# Generated by pormake.
# Topology wkj, (6)-cn, num edge types: 1
# Building blocks:
#     Node 0, Type 0, BuildingBlock: HISSIN_clean_sbu_0, # of connection points: 6
#     Node 1, Type 0, BuildingBlock: HISSIN_clean_sbu_0, # of connection points: 6
#     Node 2, Type 0, BuildingBlock: HISSIN_clean_sbu_0, # of connection points: 6
#     Node 3, Type 0, BuildingBlock: HISSIN_clean_sbu_0, # of connection points: 6
#     Node 4, Type 0, BuildingBlock: HISSIN_clean_sbu_0, # of connection points: 6
#     Node 5, Type 0, BuildingBlock: HISSIN_clean_sbu_0, # of connection points: 6
#     Node 6, Type 0, BuildingBlock: HISSIN_clean_sbu_0, # of connection points: 6
#     Node 7, Type 0, BuildingBlock: HISSIN_clean_sbu_0, # of connection points: 6
#     Node 8, Type 0, BuildingBlock: HISSIN_clean_sbu_0, # of connection points: 6
#     Node 9, Type 0, BuildingBlock: HISSIN_clean_sbu_0, # of connection points: 6
#     Node 10, Type 0, BuildingBlock: HISSIN_clean_sbu_0, # of connection points: 6
#     Node 11, Type 0, BuildingBlock: HISSIN_clean_sbu_0, # of connection points: 6
#     Edge 12, Type (0, 0), BuildingBlock: CIFDUS_clean_linker_0, # of connection points: 2
#     Edge 13, Type (0, 0), BuildingBlock: CIFDUS_clean_linker_0, # of connection points: 2
#     Edge 14, Type (0, 0), BuildingBlock: CIFDUS_clean_linker_0, # of connection points: 2
#     Edge 15, Type (0, 0), BuildingBlock: CIFDUS_clean_linker_0, # of connection points: 2
#     Edge 16, Type (0, 0), BuildingBlock: CIFDUS_clean_linker_0, # of connection points: 2
#     Edge 17, Type (0, 0), BuildingBlock: CIFDUS_clean_linker_0, # of connection points: 2
#     Edge 18, Type (0, 0), BuildingBlock: CIFDUS_clean_linker_0, # of connection points: 2
#     Edge 19, Type (0, 0), BuildingBlock: CIFDUS_clean_linker_0, # of connection points: 2
#     Edge 20, Type (0, 0), BuildingBlock: CIFDUS_clean_linker_0, # of connection points: 2
#     Edge 21, Type (0, 0), BuildingBlock: CIFDUS_clean_linker_0, # of connection points: 2
#     Edge 22, Type (0, 0), BuildingBlock: CIFDUS_clean_linker_0, # of connection points: 2
#     Edge 23, Type (0, 0), BuildingBlock: CIFDUS_clean_linker_0, # of connection points: 2
#     Edge 24, Type (0, 0), BuildingBlock: CIFDUS_clean_linker_0, # of connection points: 2
#     Edge 25, Type (0, 0), BuildingBlock: CIFDUS_clean_linker_0, # of connection points: 2
#     Edge 26, Type (0, 0), BuildingBlock: CIFDUS_clean_linker_0, # of connection points: 2
#     Edge 27, Type (0, 0), BuildingBlock: CIFDUS_clean_linker_0, # of connection points: 2
#     Edge 28, Type (0, 0), BuildingBlock: CIFDUS_clean_linker_0, # of connection points: 2
#     Edge 29, Type (0, 0), BuildingBlock: CIFDUS_clean_linker_0, # of connection points: 2
#     Edge 30, Type (0, 0), BuildingBlock: CIFDUS_clean_linker_0, # of connection points: 2
#     Edge 31, Type (0, 0), BuildingBlock: CIFDUS_clean_linker_0, # of connection points: 2
#     Edge 32, Type (0, 0), BuildingBlock: CIFDUS_clean_linker_0, # of connection points: 2
#     Edge 33, Type (0, 0), BuildingBlock: CIFDUS_clean_linker_0, # of connection points: 2
#     Edge 34, Type (0, 0), BuildingBlock: CIFDUS_clean_linker_0, # of connection points: 2
#     Edge 35, Type (0, 0), BuildingBlock: CIFDUS_clean_linker_0, # of connection points: 2
#     Edge 36, Type (0, 0), BuildingBlock: CIFDUS_clean_linker_0, # of connection points: 2
#     Edge 37, Type (0, 0), BuildingBlock: CIFDUS_clean_linker_0, # of connection points: 2
#     Edge 38, Type (0, 0), BuildingBlock: CIFDUS_clean_linker_0, # of connection points: 2
#     Edge 39, Type (0, 0), BuildingBlock: CIFDUS_clean_linker_0, # of connection points: 2
#     Edge 40, Type (0, 0), BuildingBlock: CIFDUS_clean_linker_0, # of connection points: 2
#     Edge 41, Type (0, 0), BuildingBlock: CIFDUS_clean_linker_0, # of connection points: 2
#     Edge 42, Type (0, 0), BuildingBlock: CIFDUS_clean_linker_0, # of connection points: 2
#     Edge 43, Type (0, 0), BuildingBlock: CIFDUS_clean_linker_0, # of connection points: 2
#     Edge 44, Type (0, 0), BuildingBlock: CIFDUS_clean_linker_0, # of connection points: 2
#     Edge 45, Type (0, 0), BuildingBlock: CIFDUS_clean_linker_0, # of connection points: 2
#     Edge 46, Type (0, 0), BuildingBlock: CIFDUS_clean_linker_0, # of connection points: 2
#     Edge 47, Type (0, 0), BuildingBlock: CIFDUS_clean_linker_0, # of connection points: 2
# Relax obj value: 0.883
# Max RMSD: 0.178
# Mean RMSD: 0.178
data_MOF--net-wkj--node1-HISSIN_clean_sbu_0--edge1-CIFDUS_clean_linker_0
_symmetry_space_group_name_H-M    P1
_symmetry_Int_Tables_number       1
_symmetry_cell_setting            triclinic
loop_
_symmetry_equiv_pos_as_xyz
'x, y, z'
_cell_length_a     44.322295
_cell_length_b     44.228355
_cell_length_c     25.454165
_cell_angle_alpha  90.163017
_cell_angle_beta   89.543817
_cell_angle_gamma 120.36346
loop_
_atom_site_label
_atom_site_type_symbol
_atom_site_fract_x
_atom_site_fract_y
_atom_site_fract_z
_atom_type_partial_charge
Eu0 Eu 0.4639 0.08979 0.43101 0.0
Eu1 Eu 0.54582 0.12516 0.39639 0.0
C2 C 0.5098 0.05727 0.46218 0.0
C3 C 0.37494 0.06888 0.48506 0.0
C4 C 0.34383 0.04102 0.50472 0.0
C5 C 0.36885 0.10858 0.54425 0.0
C6 C 0.32649 0.0464 0.54624 0.0
C7 C 0.38651 0.10302 0.50301 0.0
C8 C 0.3401 0.07993 0.56901 0.0
C9 C 0.3972 0.06099 0.45199 0.0
O10 O 0.51636 0.08168 0.33065 0.0
O11 O 0.45915 0.06486 0.34823 0.0
C12 C 0.48251 0.06294 0.31745 0.0
O13 O 0.4785 0.14603 0.41541 0.0
O14 O 0.58695 0.13691 0.33778 0.0
O15 O 0.60075 0.15962 0.41493 0.0
O16 O 0.53331 0.16838 0.38002 0.0
C17 C 0.50635 0.17174 0.39289 0.0
O18 O 0.49011 0.10651 0.51427 0.0
O19 O 0.54772 0.13044 0.4886 0.0
O20 O 0.54046 0.08376 0.45122 0.0
O21 O 0.41242 0.08163 0.41195 0.0
O22 O 0.41822 0.05377 0.47732 0.0
O23 O 0.4827 0.05152 0.43431 0.0
C24 C 0.63141 0.1967 0.34372 0.0
C25 C 0.63705 0.22634 0.37265 0.0
C26 C 0.64964 0.23216 0.26466 0.0
C27 C 0.6466 0.25788 0.34712 0.0
C28 C 0.64017 0.20067 0.2902 0.0
C29 C 0.65048 0.26032 0.29223 0.0
C30 C 0.61143 0.16114 0.36683 0.0
C31 C 0.52378 0.12073 0.52708 0.0
H32 H 0.3345 0.01454 0.49095 0.0
H33 H 0.37954 0.13487 0.55959 0.0
H34 H 0.30466 0.02338 0.56368 0.0
H35 H 0.41045 0.12496 0.48768 0.0
H36 H 0.63135 0.22451 0.41435 0.0
H37 H 0.65237 0.2328 0.2223 0.0
H38 H 0.64767 0.27922 0.36965 0.0
H39 H 0.63665 0.1785 0.26714 0.0
Eu40 Eu 0.33565 0.46093 0.78758 0.0
Eu41 Eu 0.39692 0.53047 0.75296 0.0
C42 C 0.40299 0.46196 0.79719 0.0
C43 C 0.2616 0.36746 0.80233 0.0
C44 C 0.28575 0.35599 0.79851 0.0
C45 C 0.21898 0.3114 0.83947 0.0
C46 C 0.27766 0.32373 0.81982 0.0
C47 C 0.22738 0.34409 0.81912 0.0
C48 C 0.24523 0.3026 0.84523 0.0
C49 C 0.27431 0.40512 0.80184 0.0
O50 O 0.40487 0.50081 0.68578 0.0
O51 O 0.35187 0.45185 0.70057 0.0
C52 C 0.38113 0.4691 0.67084 0.0
O53 O 0.32212 0.50299 0.79621 0.0
O54 O 0.43987 0.56834 0.70313 0.0
O55 O 0.42144 0.58651 0.76818 0.0
O56 O 0.34587 0.52445 0.71959 0.0
C57 C 0.32097 0.51789 0.75329 0.0
O58 O 0.36373 0.48447 0.86926 0.0
O59 O 0.40503 0.53952 0.8428 0.0
O60 O 0.41701 0.49587 0.78535 0.0
O61 O 0.29602 0.42234 0.83962 0.0
O62 O 0.2847 0.42132 0.75677 0.0
O63 O 0.36986 0.44015 0.79793 0.0
C64 C 0.43007 0.615 0.68655 0.0
C65 C 0.39851 0.6152 0.69228 0.0
C66 C 0.4348 0.6354 0.59689 0.0
C67 C 0.38421 0.62327 0.64966 0.0
C68 C 0.44914 0.62736 0.63959 0.0
C69 C 0.40105 0.63102 0.6005 0.0
C70 C 0.43861 0.59482 0.72365 0.0
C71 C 0.38998 0.5167 0.88149 0.0
H72 H 0.31221 0.37362 0.7849 0.0
H73 H 0.19326 0.29507 0.85662 0.0
H74 H 0.2986 0.31797 0.82252 0.0
H75 H 0.20823 0.35241 0.82151 0.0
H76 H 0.38314 0.60601 0.72811 0.0
H77 H 0.4485 0.64116 0.55954 0.0
H78 H 0.35842 0.62011 0.65383 0.0
H79 H 0.47347 0.62748 0.63422 0.0
Eu80 Eu 0.89393 0.37159 1.09388 0.0
Eu81 Eu 0.8557 0.41399 1.06327 0.0
C82 C 0.92073 0.45089 1.13688 0.0
C83 C 0.94433 0.33019 1.15585 0.0
C84 C 0.94371 0.33898 0.20864 0.0
C85 C -0.01086 0.31589 1.17554 0.0
C86 C 0.9658 0.33622 0.24475 0.0
C87 C 0.96688 0.31837 1.13964 0.0
C88 C -0.01101 0.32502 0.22833 0.0
C89 C 0.92325 0.33478 1.11616 0.0
O90 O 0.89011 0.41862 0.98741 0.0
O91 O 0.92355 0.39625 1.01574 0.0
C92 C 0.91582 0.41158 0.97798 0.0
O93 O 0.84438 0.33201 1.05186 0.0
O94 O 0.83638 0.43306 1.00022 0.0
O95 O 0.82702 0.44112 1.08069 0.0
O96 O 0.81147 0.35733 1.0654 0.0
C97 C 0.8137 0.32975 1.05319 0.0
O98 O 0.87277 0.37757 1.17628 0.0
O99 O 0.84974 0.41237 1.15545 0.0
O100 O 0.90386 0.45679 1.10017 0.0
O101 O 0.8908 0.32486 1.12808 0.0
O102 O 0.9389 0.36434 1.09041 0.0
O103 O 0.92182 0.42174 1.13912 0.0
C104 C 0.78113 0.42474 1.0205 0.0
C105 C 0.75694 0.39466 1.04846 0.0
C106 C 0.73759 0.41127 0.95353 0.0
C107 C 0.72412 0.37194 1.02726 0.0
C108 C 0.77037 0.43412 0.97487 0.0
C109 C 0.7154 0.37855 0.97736 0.0
C110 C 0.81871 0.44158 1.03198 0.0
C111 C 0.85859 0.39667 0.19188 0.0
H112 H 0.92672 0.34856 0.22164 0.0
H113 H 0.00667 0.30711 1.16198 0.0
H114 H 0.96559 0.34393 0.28512 0.0
H115 H 0.96771 0.31163 1.09889 0.0
H116 H 0.76455 0.38686 1.08396 0.0
H117 H 0.73182 0.41724 0.91495 0.0
H118 H 0.70751 0.34709 1.04652 0.0
H119 H 0.7886 0.45725 0.95284 0.0
Eu120 Eu 0.49225 0.88724 0.42973 0.0
Eu121 Eu 0.41271 0.84352 0.39254 0.0
C122 C 0.43781 0.9111 0.46084 0.0
C123 C 0.58334 0.91449 0.48103 0.0
C124 C 0.57202 0.89611 0.52855 0.0
C125 C 0.64332 0.9332 0.50317 0.0
C126 C 0.59645 0.89826 0.56473 0.0
C127 C 0.61881 0.93132 0.46717 0.0
C128 C 0.63255 0.91887 0.55382 0.0
C129 C 0.55908 0.9192 0.44819 0.0
O130 O 0.43927 0.88437 0.32275 0.0
O131 O 0.4968 0.91117 0.34647 0.0
C132 C 0.47285 0.90798 0.31251 0.0
O133 O 0.4778 0.83012 0.43081 0.0
O134 O 0.36708 0.83128 0.34445 0.0
O135 O 0.36368 0.7949 0.40412 0.0
O136 O 0.43588 0.80977 0.36897 0.0
C137 C 0.45795 0.80562 0.39736 0.0
O138 O 0.46717 0.87033 0.51285 0.0
O139 O 0.40999 0.8393 0.48555 0.0
O140 O 0.41045 0.88191 0.44654 0.0
O141 O 0.54431 0.89668 0.41017 0.0
O142 O 0.53736 0.92623 0.47291 0.0
O143 O 0.46894 0.92149 0.44072 0.0
C144 C 0.33346 0.77051 0.32721 0.0
C145 C 0.35578 0.76135 0.3018 0.0
C146 C 0.28367 0.72146 0.28508 0.0
C147 C 0.34238 0.73267 0.26833 0.0
C148 C 0.29725 0.75013 0.31952 0.0
C149 C 0.30621 0.7126 0.25881 0.0
C150 C 0.34834 0.79981 0.36436 0.0
C151 C 0.4333 0.85206 0.52472 0.0
H152 H 0.54455 0.88238 0.53934 0.0
H153 H 0.67085 0.94862 0.4932 0.0
H154 H 0.58701 0.88687 0.60324 0.0
H155 H 0.62781 0.945 0.42999 0.0
H156 H 0.38376 0.77671 0.30724 0.0
H157 H 0.2558 0.70683 0.2779 0.0
H158 H 0.36078 0.72756 0.24762 0.0
H159 H 0.27962 0.75664 0.33954 0.0
Eu160 Eu 0.63789 0.55731 0.79235 0.0
Eu161 Eu 0.58123 0.48371 0.75499 0.0
C162 C 0.56567 0.54724 0.7911 0.0
C163 C 0.6979 0.63992 0.86661 0.0
C164 C 0.72687 0.67404 0.86474 0.0
C165 C 0.67266 0.65717 0.93667 0.0
C166 C 0.72839 0.69994 0.89821 0.0
C167 C 0.67127 0.6314 0.90365 0.0
C168 C 0.70063 0.69186 0.93306 0.0
C169 C 0.69242 0.61504 0.82471 0.0
O170 O 0.58498 0.51408 0.67867 0.0
O171 O 0.61967 0.5695 0.71119 0.0
C172 C 0.59993 0.54847 0.67209 0.0
O173 O 0.66278 0.53924 0.73267 0.0
O174 O 0.55523 0.44457 0.69351 0.0
O175 O 0.54206 0.4297 0.77488 0.0
O176 O 0.63275 0.48368 0.75878 0.0
C177 C 0.66044 0.50888 0.73569 0.0
O178 O 0.61392 0.52335 0.87221 0.0
O179 O 0.56336 0.47812 0.84057 0.0
O180 O 0.55691 0.51764 0.76562 0.0
O181 O 0.68566 0.58383 0.839 0.0
O182 O 0.6714 0.61378 0.78821 0.0
O183 O 0.59539 0.5657 0.81408 0.0
C184 C 0.5511 0.39207 0.71977 0.0
C185 C 0.57997 0.39525 0.74732 0.0
C186 C 0.55616 0.3531 0.65809 0.0
C187 C 0.59834 0.37953 0.72801 0.0
C188 C 0.53792 0.36899 0.67726 0.0
C189 C 0.58822 0.3607 0.68066 0.0
C190 C 0.54082 0.41869 0.72698 0.0
C191 C 0.58227 0.49492 0.88167 0.0
H192 H 0.74742 0.68101 0.83578 0.0
H193 H 0.65124 0.65025 0.96398 0.0
H194 H 0.75023 0.72651 0.89504 0.0
H195 H 0.64856 0.60525 0.90519 0.0
H196 H 0.59055 0.4128 0.78056 0.0
H197 H 0.54758 0.33882 0.62143 0.0
H198 H 0.62277 0.38568 0.74638 0.0
H199 H 0.51573 0.36619 0.65551 0.0
Eu200 Eu 0.08331 0.59123 1.08463 0.0
Eu201 Eu 0.11704 0.54302 1.05247 0.0
C202 C 0.05105 0.51306 1.11949 0.0
C203 C 0.02555 0.62923 1.14105 0.0
C204 C 0.03816 0.65168 0.18458 0.0
C205 C 0.96785 0.62168 1.15628 0.0
C206 C 0.01582 0.65896 0.21375 0.0
C207 C -0.00971 0.61464 1.12678 0.0
C208 C 0.98046 0.64401 0.19993 0.0
C209 C 0.04963 0.62419 1.10688 0.0
O210 O 0.07362 0.53156 0.98795 0.0
O211 O 0.06882 0.58041 0.99691 0.0
C212 C 0.06102 0.55158 0.97035 0.0
O213 O 0.13558 0.6332 1.05425 0.0
O214 O 0.12126 0.5069 0.99772 0.0
O215 O 0.15861 0.53077 1.06023 0.0
O216 O 0.1598 0.59942 1.03441 0.0
C217 C 0.16197 0.63021 1.03773 0.0
O218 O 0.10196 0.58177 1.16589 0.0
O219 O 0.12348 0.54547 1.14464 0.0
O220 O 0.07685 0.5076 1.11107 0.0
O221 O 0.08119 0.63436 1.12318 0.0
O222 O 0.03673 0.5957 1.07892 0.0
O223 O 0.04707 0.53315 1.08628 0.0
C224 C 0.18124 0.5308 0.97606 0.0
C225 C 0.21246 0.56214 0.98793 0.0
C226 C 0.19746 0.54029 0.88373 0.0
C227 C 0.23447 0.58353 0.94771 0.0
C228 C 0.17533 0.51893 0.92392 0.0
C229 C 0.22577 0.57384 0.89512 0.0
C230 C 0.15218 0.51501 1.01496 0.0
C231 C 0.11529 0.56199 1.18114 0.0
H232 H 0.06533 0.66385 0.19596 0.0
H233 H 0.94069 0.60975 1.14493 0.0
H234 H 0.02608 0.67571 0.24791 0.0
H235 H 0.98003 0.59785 1.09266 0.0
H236 H 0.2183 0.57194 1.0278 0.0
H237 H 0.18995 0.53224 0.84344 0.0
H238 H 0.25627 0.60915 0.95743 0.0
H239 H 0.15176 0.49481 0.91362 0.0
Eu240 Eu 0.89744 0.52185 0.60597 0.0
Eu241 Eu 0.86192 0.43983 0.63065 0.0
C242 C 0.93609 0.48207 0.58031 0.0
C243 C 0.90812 0.60569 0.5539 0.0
C244 C 0.93315 0.6362 0.52848 0.0
C245 C 0.86512 0.59862 0.48918 0.0
C246 C 0.92499 0.6463 0.48138 0.0
C247 C 0.87346 0.58826 0.53605 0.0
C248 C 0.89159 0.62583 0.45894 0.0
C249 C 0.92005 0.58801 0.58958 0.0
O250 O 0.90675 0.46453 0.69368 0.0
O251 O 0.9196 0.52166 0.68952 0.0
C252 C 0.92382 0.49711 0.71297 0.0
O253 O 0.83912 0.50121 0.61505 0.0
O254 O 0.85524 0.3939 0.67387 0.0
O255 O 0.82194 0.38737 0.60812 0.0
O256 O 0.82682 0.45635 0.66989 0.0
C257 C 0.81854 0.47836 0.65021 0.0
O258 O 0.8843 0.4985 0.52035 0.0
O259 O 0.85505 0.43963 0.53917 0.0
O260 O 0.90528 0.45461 0.57572 0.0
O261 O 0.89908 0.57035 0.6284 0.0
O262 O 0.93269 0.5706 0.56569 0.0
O263 O 0.94115 0.51068 0.60276 0.0
C264 C 0.7955 0.35019 0.6791 0.0
C265 C 0.77459 0.36401 0.69458 0.0
C266 C 0.75562 0.29588 0.72418 0.0
C267 C 0.74522 0.34464 0.72588 0.0
C268 C 0.78543 0.31566 0.69273 0.0
C269 C 0.73571 0.31058 0.74264 0.0
C270 C 0.82715 0.3722 0.64791 0.0
C271 C 0.86743 0.4653 0.50357 0.0
H272 H 0.95999 0.64999 0.54185 0.0
H273 H 0.83889 0.58296 0.47395 0.0
H274 H 0.94628 0.66751 0.45983 0.0
H275 H 0.85361 0.56467 0.55544 0.0
H276 H 0.78155 0.39034 0.68352 0.0
H277 H 0.74903 0.26969 0.73571 0.0
H278 H 0.73157 0.3577 0.73964 0.0
H279 H 0.80098 0.30433 0.68012 0.0
Eu280 Eu 0.37051 0.89943 0.93896 0.0
Eu281 Eu 0.41473 0.86565 0.97486 0.0
C282 C 0.44729 0.92472 0.88894 0.0
C283 C 0.32113 0.94425 0.88291 0.0
C284 C 0.34628 0.96727 0.84697 0.0
C285 C 0.28181 0.96444 0.85613 0.0
C286 C 0.33936 0.98902 0.81614 0.0
C287 C 0.28884 0.94277 0.88719 0.0
C288 C 0.3072 0.9881 0.82079 0.0
C289 C 0.32923 0.92413 0.91977 0.0
O290 O 0.42114 0.90389 1.04605 0.0
O291 O 0.40241 0.93732 1.00641 0.0
C292 C 0.41683 0.93173 1.04773 0.0
O293 O 0.33507 0.85229 0.98995 0.0
O294 O 0.42457 0.83928 1.0389 0.0
O295 O 0.4522 0.84759 0.96525 0.0
O296 O 0.35929 0.8199 0.96876 0.0
C297 C 0.33212 0.82146 0.98487 0.0
O298 O 0.37508 0.87551 0.85813 0.0
O299 O 0.40742 0.8511 0.8855 0.0
O300 O 0.45505 0.91153 0.92914 0.0
O301 O 0.32185 0.89262 0.90619 0.0
O302 O 0.35911 0.94153 0.94381 0.0
O303 O 0.41772 0.92489 0.88642 0.0
C304 C 0.43117 0.79332 1.00837 0.0
C305 C 0.40387 0.77154 0.97436 0.0
C306 C 0.4199 0.74249 1.0592 0.0
C307 C 0.38325 0.73568 0.98486 0.0
C308 C 0.44053 0.77826 1.04855 0.0
C309 C 0.38921 0.72138 1.03022 0.0
C310 C 0.44377 0.83105 1.01001 0.0
C311 C 0.39229 0.85867 0.84654 0.0
H312 H 0.37138 0.96877 0.84333 0.0
H313 H 0.25679 0.96305 0.8602 0.0
H314 H 0.35907 0.0063 0.78813 0.0
H315 H 0.26931 0.92527 0.91524 0.0
H316 H 0.39631 0.78272 0.94285 0.0
H317 H 0.42561 0.7327 1.09443 0.0
H318 H 0.36028 0.72011 0.96115 0.0
H319 H 0.46152 0.79466 1.07513 0.0
Eu320 Eu 0.43815 0.37458 0.27776 0.0
Eu321 Eu 0.51755 0.42197 0.31861 0.0
C322 C 0.47956 0.45338 0.25112 0.0
C323 C 0.35007 0.31804 0.20548 0.0
C324 C 0.31402 0.2981 0.21522 0.0
C325 C 0.33921 0.31101 1.11187 0.0
C326 C 0.29058 0.28487 1.17352 0.0
C327 C 0.36262 0.32436 1.15362 0.0
C328 C 0.30294 0.29125 1.12141 0.0
C329 C 0.37406 0.33 0.24999 0.0
O330 O 0.48601 0.4222 0.3919 0.0
O331 O 0.43044 0.39651 0.35903 0.0
C332 C 0.4527 0.41345 0.39813 0.0
O333 O 0.45122 0.33509 0.31196 0.0
O334 O 0.55541 0.45451 0.37815 0.0
O335 O 0.57378 0.44946 0.30202 0.0
O336 O 0.50938 0.36742 0.33003 0.0
C337 C 0.48041 0.33708 0.32713 0.0
O338 O 0.47142 0.39225 0.19663 0.0
O339 O 0.52704 0.42515 0.22882 0.0
O340 O 0.49476 0.45551 0.29614 0.0
O341 O 0.39983 0.32378 0.24703 0.0
O342 O 0.38349 0.36081 0.26971 0.0
O343 O 0.45473 0.42344 0.23403 0.0
C344 C 0.60469 0.44809 0.37524 0.0
C345 C 0.58928 0.41387 0.39464 0.0
C346 C 0.66052 0.46007 0.4103 0.0
C347 C 0.60876 0.40315 0.42329 0.0
C348 C 0.6407 0.47084 0.38152 0.0
C349 C 0.64445 0.42647 0.43357 0.0
C350 C 0.58236 0.45956 0.35033 0.0
C351 C 0.50607 0.41318 0.18765 0.0
H352 H 0.30401 0.29269 0.25516 0.0
H353 H 0.34945 0.317 1.0721 0.0
H354 H 0.2628 0.26978 1.18196 0.0
H355 H 0.39045 0.33961 1.14549 0.0
H356 H 0.56156 0.39587 0.39024 0.0
H357 H 0.68797 0.47864 0.41653 0.0
H358 H 0.59469 0.37734 0.44087 0.0
H359 H 0.65316 0.49725 0.36596 0.0
Eu360 Eu 0.09882 0.45272 0.61228 0.0
Eu361 Eu 0.08033 0.50901 0.60478 0.0
C362 C 0.03792 0.43216 0.53933 0.0
C363 C 0.12967 0.39426 0.56666 0.0
C364 C 0.11196 0.35758 0.57097 0.0
C365 C 0.1257 0.38887 0.47178 0.0
C366 C 0.09876 0.33676 0.52608 0.0
C367 C 0.13886 0.40959 0.51649 0.0
C368 C 0.10316 0.35245 0.47646 0.0
C369 C 0.12848 0.41499 0.61126 0.0
O370 O 0.04389 0.47902 0.67584 0.0
O371 O 0.06063 0.43849 0.68648 0.0
C372 C 0.04183 0.45276 0.70358 0.0
O373 O 0.12479 0.49047 0.67734 0.0
O374 O 0.06284 0.54054 0.64724 0.0
O375 O 0.08518 0.55635 0.56984 0.0
O376 O 0.13957 0.5311 0.61858 0.0
C377 C 0.14903 0.52011 0.65944 0.0
O378 O 0.11488 0.47952 0.52438 0.0
O379 O 0.08543 0.50917 0.51764 0.0
O380 O 0.04132 0.46303 0.55278 0.0
O381 O 0.14616 0.44917 0.60588 0.0
O382 O 0.09692 0.40368 0.62968 0.0
O383 O 0.05434 0.41934 0.56356 0.0
C384 C 0.10468 0.60021 0.63525 0.0
C385 C 0.13774 0.61889 0.61069 0.0
C386 C 0.13018 0.63223 0.71569 0.0
C387 C 0.16716 0.64186 0.63977 0.0
C388 C 0.10077 0.60944 0.68655 0.0
C389 C 0.16398 0.64626 0.69381 0.0
C390 C 0.07739 0.56627 0.61354 0.0
C391 C 0.10423 0.49786 0.49456 0.0
H392 H 0.10477 0.34514 0.60924 0.0
H393 H 0.12982 0.40202 0.43434 0.0
H394 H 0.08222 0.30868 0.53079 0.0
H395 H 0.15267 0.43779 0.51165 0.0
H396 H 0.14163 0.61311 0.57067 0.0
H397 H 0.12649 0.63511 0.75711 0.0
H398 H 0.19273 0.65305 0.6214 0.0
H399 H 0.07553 0.59591 0.70618 0.0
Eu400 Eu 0.59044 0.08035 0.94455 0.0
Eu401 Eu 0.539 0.11017 0.97876 0.0
C402 C 0.51339 0.04699 0.90594 0.0
C403 C 0.64617 0.04635 0.87616 0.0
C404 C 0.66542 0.02977 0.88578 0.0
C405 C 0.65796 0.04713 0.78318 0.0
C406 C 0.68056 0.02142 0.84414 0.0
C407 C 0.64273 0.05533 0.82482 0.0
C408 C 0.67673 0.02978 0.7924 0.0
C409 C 0.63048 0.05458 0.9204 0.0
O410 O 0.52727 0.06534 1.04095 0.0
O411 O 0.57361 0.0566 1.02874 0.0
C412 C 0.54533 0.05008 1.05625 0.0
O413 O 0.62742 0.13131 0.9849 0.0
O414 O 0.51592 0.12373 1.0444 0.0
O415 O 0.50658 0.13364 0.96522 0.0
O416 O 0.59398 0.15717 0.98811 0.0
C417 C 0.62436 0.15891 0.99285 0.0
O418 O 0.58266 0.10123 0.86294 0.0
O419 O 0.54718 0.12284 0.88889 0.0
O420 O 0.50547 0.07045 0.91939 0.0
O421 O 0.64199 0.08769 0.92861 0.0
O422 O 0.5967 0.03548 0.9262 0.0
O423 O 0.53345 0.04156 0.93709 0.0
C424 C 0.51752 0.17687 1.0292 0.0
C425 C 0.54064 0.20464 0.99629 0.0
C426 C 0.53069 0.21828 1.10006 0.0
C427 C 0.55989 0.23876 1.01602 0.0
C428 C 0.51112 0.18439 1.08007 0.0
C429 C 0.55713 0.24554 1.06941 0.0
C430 C 0.50493 0.14007 1.01466 0.0
C431 C 0.56331 0.11562 0.85049 0.0
H432 H 0.66842 0.02295 0.92548 0.0
H433 H 0.65387 0.05314 0.74357 0.0
H434 H 0.69474 0.00796 0.85224 0.0
H435 H 0.62792 0.06819 0.81696 0.0
H436 H 0.54586 0.19971 0.95649 0.0
H437 H 0.52739 0.22181 1.14136 0.0
H438 H 0.57908 0.25909 0.99062 0.0
H439 H 0.49326 0.16344 1.10602 0.0
Eu440 Eu 0.53092 0.64316 0.2893 0.0
Eu441 Eu 0.47543 0.56828 0.29375 0.0
C442 C 0.55195 0.59814 0.22814 0.0
C443 C 0.59211 0.73473 0.23968 0.0
C444 C 0.62571 0.73924 0.23445 0.0
C445 C 0.60008 0.76356 1.15536 0.0
C446 C 0.6449 0.75289 0.18835 0.0
C447 C 0.58047 0.74917 0.20133 0.0
C448 C 0.63125 0.763 1.14657 0.0
C449 C 0.56807 0.71126 0.28098 0.0
O450 O 0.51011 0.56713 0.35958 0.0
O451 O 0.54873 0.62551 0.36601 0.0
C452 C 0.53616 0.59311 0.3851 0.0
O453 O 0.49509 0.63634 0.35553 0.0
O454 O 0.44146 0.52972 0.35175 0.0
O455 O 0.43276 0.51689 0.26916 0.0
O456 O 0.45359 0.60624 0.30028 0.0
C457 C 0.46519 0.62953 0.33802 0.0
O458 O 0.50178 0.62475 0.20262 0.0
O459 O 0.466 0.56551 0.20819 0.0
O460 O 0.52046 0.57161 0.2423 0.0
O461 O 0.53479 0.69319 0.26934 0.0
O462 O 0.5784 0.69221 0.3054 0.0
O463 O 0.56483 0.62915 0.24748 0.0
C464 C 0.38398 0.50318 0.32374 0.0
C465 C 0.37417 0.52433 0.29611 0.0
C466 C 0.34134 0.49383 0.39124 0.0
C467 C 0.35014 0.53241 0.3182 0.0
C468 C 0.36519 0.48559 0.36896 0.0
C469 C 0.33625 0.51999 0.36861 0.0
C470 C 0.41947 0.50899 0.31646 0.0
C471 C 0.47907 0.59354 1.17922 0.0
H472 H 0.6361 0.72946 0.26401 0.0
H473 H 0.58938 0.77251 1.1251 0.0
H474 H 0.66872 0.75198 0.18406 0.0
H475 H 0.55515 0.74714 0.20515 0.0
H476 H 0.38817 0.53815 0.26087 0.0
H477 H 0.33099 0.48338 0.42988 0.0
H478 H 0.34607 0.55191 0.2991 0.0
H479 H 0.37232 0.46917 0.39086 0.0
H480 H 0.45128 0.18314 0.37889 0.0
H481 H 0.56391 0.23766 0.3825 0.0
H482 H 0.56604 0.29335 0.3659 0.0
H483 H 0.53624 0.32677 0.34639 0.0
H484 H 0.42353 0.27123 0.33932 0.0
H485 H 0.42147 0.21642 0.35986 0.0
C486 C 0.47638 0.20714 0.37586 0.0
C487 C 0.50741 0.2058 0.38188 0.0
C488 C 0.47755 0.23917 0.36472 0.0
C489 C 0.53957 0.23748 0.37757 0.0
C490 C 0.54084 0.26946 0.36794 0.0
C491 C 0.51117 0.30275 0.34947 0.0
C492 C 0.48007 0.30368 0.3411 0.0
C493 C 0.51005 0.27069 0.3608 0.0
C494 C 0.448 0.27184 0.34523 0.0
C495 C 0.44674 0.24022 0.35708 0.0
H496 H 0.30506 0.5475 0.66764 0.0
H497 H 0.26359 0.49311 0.81495 0.0
H498 H 0.20918 0.49158 0.80018 0.0
H499 H 0.17174 0.50363 0.74619 0.0
H500 H 0.20933 0.55718 0.59821 0.0
H501 H 0.26662 0.56232 0.6134 0.0
C502 C 0.28421 0.53563 0.69659 0.0
C503 C 0.28893 0.52031 0.74238 0.0
C504 C 0.25213 0.53507 0.68821 0.0
C505 C 0.26131 0.50512 0.77933 0.0
C506 C 0.22981 0.50412 0.77099 0.0
C507 C 0.19253 0.51687 0.71735 0.0
C508 C 0.18603 0.53008 0.67121 0.0
C509 C 0.22482 0.51884 0.72572 0.0
C510 C 0.21353 0.54713 0.63446 0.0
C511 C 0.24625 0.54969 0.64293 0.0
H512 H 0.74495 0.31426 1.04981 0.0
H513 H 0.80878 0.26695 1.02905 0.0
H514 H 0.75677 0.21069 1.00997 0.0
H515 H 0.6928 0.17429 0.99852 0.0
H516 H 0.62892 0.22177 1.01671 0.0
H517 H 0.68099 0.27786 1.03607 0.0
C518 C 0.74759 0.29172 1.04096 0.0
C519 C 0.78122 0.29535 1.0409 0.0
C520 C 0.71729 0.25906 1.02958 0.0
C521 C 0.78362 0.26544 1.02943 0.0
C522 C 0.75371 0.23302 1.01849 0.0
C523 C 0.69007 0.19681 1.00715 0.0
C524 C 0.65647 0.19325 1.00637 0.0
C525 C 0.72035 0.22943 1.01844 0.0
C526 C 0.65403 0.22317 1.01726 0.0
C527 C 0.68394 0.25546 1.02872 0.0
H528 H 0.49106 0.6819 0.4098 0.0
H529 H 0.41673 0.63969 0.28359 0.0
H530 H 0.40709 0.68973 0.29093 0.0
H531 H 0.42268 0.74792 0.33071 0.0
H532 H 0.49885 0.78889 0.45517 0.0
H533 H 0.50487 0.73734 0.4505 0.0
C534 C 0.47247 0.6833 0.38394 0.0
C535 C 0.45474 0.65677 0.34602 0.0
C536 C 0.46769 0.71246 0.38769 0.0
C537 C 0.43071 0.6594 0.31328 0.0
C538 C 0.4254 0.68827 0.31729 0.0
C539 C 0.44059 0.74559 0.35683 0.0
C540 C 0.46047 0.77292 0.3931 0.0
C541 C 0.44422 0.7154 0.35383 0.0
C542 C 0.48332 0.76888 0.42663 0.0
C543 C 0.48679 0.73917 0.42411 0.0
H544 H 0.67899 0.45891 0.75682 0.0
H545 H 0.70627 0.54928 0.66008 0.0
H546 H 0.75607 0.54715 0.62389 0.0
H547 H 0.79415 0.52185 0.62203 0.0
H548 H 0.76915 0.43294 0.7207 0.0
H549 H 0.71677 0.4322 0.7529 0.0
C550 C 0.6957 0.47793 0.72758 0.0
C551 C 0.68884 0.50439 0.71172 0.0
C552 C 0.72512 0.47703 0.70718 0.0
C553 C 0.71094 0.52881 0.67365 0.0
C554 C 0.73958 0.52768 0.65276 0.0
C555 C 0.77725 0.5022 0.65045 0.0
C556 C 0.78589 0.47749 0.66859 0.0
C557 C 0.74733 0.50229 0.66975 0.0
C558 C 0.76338 0.45228 0.70556 0.0
C559 C 0.7333 0.45188 0.7243 0.0
H560 H 0.31357 0.75257 0.96717 0.0
H561 H 0.27354 0.81613 1.03061 0.0
H562 H 0.2179 0.76348 1.05106 0.0
H563 H 0.18021 0.69914 1.0521 0.0
H564 H 0.22027 0.63523 0.9912 0.0
H565 H 0.27513 0.68779 0.96662 0.0
C566 C 0.2927 0.75498 0.98542 0.0
C567 C 0.29816 0.78865 0.99743 0.0
C568 C 0.26029 0.72433 0.99681 0.0
C569 C 0.27047 0.79086 1.02093 0.0
C570 C 0.23845 0.76063 1.03264 0.0
C571 C 0.20089 0.69658 1.03346 0.0
C572 C 0.19563 0.66283 1.02301 0.0
C573 C 0.23302 0.72718 1.02098 0.0
C574 C 0.22316 0.66055 0.99917 0.0
C575 C 0.25475 0.69077 0.98535 0.0
H576 H 0.5549 0.28096 1.15743 0.0
H577 H 0.62732 0.28118 1.04283 0.0
H578 H 0.67273 0.30246 1.10882 0.0
H579 H 0.68203 0.29454 0.20069 0.0
H580 H 0.60601 0.28412 0.3163 0.0
H581 H 0.57298 0.29386 0.24967 0.0
C582 C 0.5809 0.28654 1.14635 0.0
C583 C 0.58653 0.2763 1.09645 0.0
C584 C 0.60623 0.29573 0.18545 0.0
C585 C 0.62119 0.28674 1.08158 0.0
C586 C 0.64734 0.29857 1.11945 0.0
C587 C 0.65909 0.29602 0.2116 0.0
C588 C 0.64511 0.28614 0.26253 0.0
C589 C 0.63877 0.29898 1.17224 0.0
C590 C 0.6166 0.29017 0.27691 0.0
C591 C 0.59732 0.2953 0.23846 0.0
H592 H 0.36833 0.59092 0.37239 0.0
H593 H 0.28545 0.49763 0.44595 0.0
H594 H 0.29264 0.5304 0.52677 0.0
H595 H 0.33516 0.57841 0.58149 0.0
H596 H 0.42152 0.6695 0.50899 0.0
H597 H 0.39909 0.64519 0.42227 0.0
C598 C 0.35048 0.57796 0.40498 0.0
C599 C 0.32744 0.54138 0.40391 0.0
C600 C 0.35609 0.59648 0.45208 0.0
C601 C 0.30424 0.52547 0.44641 0.0
C602 C 0.30857 0.54417 0.49281 0.0
C603 C 0.3483 0.5938 0.54683 0.0
C604 C 0.3807 0.62514 0.55166 0.0
C605 C 0.33649 0.57872 0.49724 0.0
C606 C 0.39709 0.64484 0.50626 0.0
C607 C 0.38446 0.63078 0.45666 0.0
H608 H 0.71496 0.3183 0.96768 0.0
H609 H 0.66593 0.37355 0.90697 0.0
H610 H 0.65361 0.34079 0.82472 0.0
H611 H 0.67655 0.31408 0.76367 0.0
H612 H 0.73746 0.27087 0.82446 0.0
H613 H 0.72163 0.27712 0.91318 0.0
C614 C 0.69924 0.32137 0.93823 0.0
C615 C 0.692 0.34876 0.94303 0.0
C616 C 0.69475 0.30443 0.89008 0.0
C617 C 0.67234 0.353 0.90374 0.0
C618 C 0.66562 0.33447 0.85652 0.0
C619 C 0.6856 0.30518 0.7964 0.0
C620 C 0.71057 0.29485 0.78745 0.0
C621 C 0.67989 0.31283 0.84776 0.0
C622 C 0.71954 0.28051 0.82969 0.0
C623 C 0.71094 0.28465 0.88096 0.0
H624 H 0.32147 0.70487 1.03397 0.0
H625 H 0.38987 0.66911 1.08893 0.0
H626 H 0.35555 0.64783 1.16979 0.0
H627 H 0.32376 0.66322 0.23419 0.0
H628 H 0.26262 0.70771 1.18023 0.0
H629 H 0.27449 0.69973 1.09013 0.0
C630 C 0.32778 0.6905 1.06191 0.0
C631 C 0.35957 0.69069 1.05703 0.0
C632 C 0.30934 0.68058 1.10964 0.0
C633 C 0.36645 0.67085 1.093 0.0
C634 C 0.34698 0.65897 1.13958 0.0
C635 C 0.31152 0.66935 0.20242 0.0
C636 C 0.29433 0.68812 0.21358 0.0
C637 C 0.32096 0.66736 1.15034 0.0
C638 C 0.27703 0.69433 1.17276 0.0
C639 C 0.28428 0.6902 1.12075 0.0
H640 H 0.63533 0.36236 0.46227 0.0
H641 H 0.69245 0.47169 0.50548 0.0
H642 H 0.69147 0.45584 0.59643 0.0
H643 H 0.65328 0.41414 0.66212 0.0
H644 H 0.5827 0.30677 0.61882 0.0
H645 H 0.60964 0.31785 0.53158 0.0
C646 C 0.64832 0.38275 0.49151 0.0
C647 C 0.66131 0.41807 0.47738 0.0
C648 C 0.64395 0.37346 0.54485 0.0
C649 C 0.68074 0.44415 0.51485 0.0
C650 C 0.67978 0.43508 0.56755 0.0
C651 C 0.64502 0.39261 0.63469 0.0
C652 C 0.61497 0.36011 0.6459 0.0
C653 C 0.65808 0.40017 0.58321 0.0
C654 C 0.60516 0.33231 0.61042 0.0
C655 C 0.62028 0.33884 0.56024 0.0
H656 H 0.22508 0.63418 0.89794 0.0
H657 H 0.2537 0.57382 0.79863 0.0
H658 H 0.24626 0.60173 0.72063 0.0
H659 H 0.21317 0.62721 0.68427 0.0
H660 H 0.18138 0.68506 0.78493 0.0
H661 H 0.20978 0.67521 0.85936 0.0
C662 C 0.23153 0.62849 0.8595 0.0
C663 C 0.23843 0.60093 0.85352 0.0
C664 C 0.22567 0.64353 0.81526 0.0
C665 C 0.24691 0.59392 0.80353 0.0
C666 C 0.24251 0.60978 0.75917 0.0
C667 C 0.2139 0.63934 0.7217 0.0
C668 C 0.19384 0.6556 0.72955 0.0
C669 C 0.22893 0.63225 0.76468 0.0
C670 C 0.19562 0.67142 0.77832 0.0
C671 C 0.21167 0.66559 0.82096 0.0
H672 H 0.41345 0.92464 1.16196 0.0
H673 H 0.44937 0.00376 1.04147 0.0
H674 H 0.47172 0.04954 1.10873 0.0
H675 H 0.48507 0.06964 0.20376 0.0
H676 H 0.44628 0.99076 0.32472 0.0
H677 H 0.42251 0.94472 0.25761 0.0
C678 C 0.42643 0.95183 1.14981 0.0
C679 C 0.43021 0.95946 1.09421 0.0
C680 C 0.43952 0.97922 0.19011 0.0
C681 C 0.44615 -0.00429 1.08224 0.0
C682 C 0.45925 0.02249 1.12146 0.0
C683 C 0.47168 0.04245 0.216 0.0
C684 C 0.46889 0.03491 0.27153 0.0
C685 C 0.45696 0.01502 1.1759 0.0
C686 C 0.45004 -0.00135 0.28384 0.0
C687 C 0.43601 0.97177 0.24471 0.0
H688 H 0.38538 0.39149 0.45065 0.0
H689 H 0.49564 0.46413 0.46707 0.0
H690 H 0.4846 0.48743 0.54712 0.0
H691 H 0.4442 0.48864 0.61557 0.0
H692 H 0.33413 0.41363 0.60581 0.0
H693 H 0.34445 0.39079 0.52347 0.0
C694 C 0.40722 0.41242 0.47141 0.0
C695 C 0.44203 0.42574 0.45007 0.0
C696 C 0.40057 0.42572 0.52034 0.0
C697 C 0.46887 0.45282 0.48022 0.0
C698 C 0.46244 0.46642 0.52697 0.0
C699 C 0.42214 0.46719 0.59592 0.0
C700 C 0.38794 0.45356 0.61909 0.0
C701 C 0.42847 0.4533 0.54794 0.0
C702 C 0.36067 0.42535 0.59101 0.0
C703 C 0.3667 0.41211 0.54297 0.0
H704 H 0.97629 0.44713 0.73424 0.0
H705 H 0.05737 0.43242 0.79862 0.0
H706 H 0.02832 0.41979 0.88491 0.0
H707 H 0.97947 0.41333 0.94604 0.0
H708 H 0.89818 0.42773 0.8809 0.0
H709 H 0.92606 0.4379 0.79419 0.0
C710 C -0.01202 0.4413 0.76681 0.0
C711 C 0.02028 0.44149 0.75731 0.0
C712 C 0.97046 0.43361 0.81809 0.0
C713 C 0.03319 0.43278 0.80211 0.0
C714 C 0.01634 0.42563 0.85257 0.0
C715 C 0.96774 0.41914 0.91334 0.0
C716 C 0.93579 0.41977 0.92294 0.0
C717 C -0.01506 0.42615 0.86182 0.0
C718 C 0.92226 0.42717 0.87759 0.0
C719 C 0.93864 0.43328 0.82694 0.0
H720 H 0.51649 0.98208 0.29415 0.0
H721 H 0.45725 0.88564 0.20875 0.0
H722 H 0.47625 0.91816 1.12554 0.0
H723 H 0.50722 0.97531 1.07366 0.0
H724 H 0.56054 0.07215 1.1597 0.0
H725 H 0.54624 0.03924 0.24251 0.0
C726 C 0.50747 0.96785 0.25754 0.0
C727 C 0.48468 0.93029 0.26 0.0
C728 C 0.51749 0.98748 0.2082 0.0
C729 C 0.47408 0.91383 0.21033 0.0
C730 C 0.48534 0.93277 1.16184 0.0
C731 C 0.51599 0.98953 1.11032 0.0
C732 C 0.53536 0.02735 1.10823 0.0
C733 C 0.50659 0.96985 1.15962 0.0
C734 C 0.54575 0.04381 1.15793 0.0
C735 C 0.53749 0.02462 0.20617 0.0
H736 H 0.57158 0.5161 0.57377 0.0
H737 H 0.61027 0.61533 0.6516 0.0
H738 H 0.59617 0.63859 0.5739 0.0
H739 H 0.57087 0.63107 0.48121 0.0
H740 H 0.53404 0.53131 0.40505 0.0
H741 H 0.55094 0.51016 0.48118 0.0
C742 C 0.57728 0.54298 0.57423 0.0
C743 C 0.59241 0.5634 0.6208 0.0
C744 C 0.56934 0.55679 0.52799 0.0
C745 C 0.59905 0.59828 0.61799 0.0
C746 C 0.59075 0.61181 0.57276 0.0
C747 C 0.56646 0.60466 0.48072 0.0
C748 C 0.55057 0.58331 0.43485 0.0
C749 C 0.57562 0.59144 0.52697 0.0
C750 C 0.54557 0.54903 0.43791 0.0
C751 C 0.55501 0.53642 0.48244 0.0
H752 H 0.06222 0.54054 0.85776 0.0
H753 H -0.00694 0.53549 0.98163 0.0
H754 H 0.94623 0.51909 0.9179 0.0
H755 H 0.92297 0.50636 0.82498 0.0
H756 H -0.00761 0.51359 0.70019 0.0
H757 H 0.03924 0.52923 0.76396 0.0
C758 C 0.03691 0.53565 0.87132 0.0
C759 C 0.03217 0.53921 0.92662 0.0
C760 C 0.00929 0.52681 0.83302 0.0
C761 C -0.00146 0.53305 0.94078 0.0
C762 C 0.9713 0.52366 0.90368 0.0
C763 C 0.94827 0.51131 0.81127 0.0
C764 C 0.95284 0.50782 0.756 0.0
C765 C 0.97603 0.52054 0.84931 0.0
C766 C -0.0132 0.51521 0.74126 0.0
C767 C 0.01411 0.52435 0.77839 0.0
H768 H 0.45398 0.03508 0.52546 0.0
H769 H 0.5545 0.04324 0.51792 0.0
H770 H 0.53157 0.98852 0.56645 0.0
H771 H 0.48342 0.93261 0.53949 0.0
H772 H 0.38631 0.92436 0.49461 0.0
H773 H 0.40232 0.97863 0.54105 0.0
C774 C 0.47076 0.02493 0.53591 0.0
C775 C 0.50406 0.03971 0.51291 0.0
C776 C 0.45563 0.99065 0.55376 0.0
C777 C 0.5276 0.03007 0.53155 0.0
C778 C 0.51425 -0.00131 0.55928 0.0
C779 C 0.46533 0.9423 0.54199 0.0
C780 C 0.43592 0.9277 0.50941 0.0
C781 C 0.47776 0.9763 0.55947 0.0
C782 C 0.41055 0.93727 0.51632 0.0
C783 C 0.41996 0.9684 0.54285 0.0
H784 H 0.44032 0.46274 0.8856 0.0
H785 H 0.42522 0.42902 0.72659 0.0
H786 H 0.47778 0.4834 0.69844 0.0
H787 H 0.51983 0.54498 0.72015 0.0
H788 H 0.54778 0.57149 0.88072 0.0
H789 H 0.49209 0.52058 0.90981 0.0
C790 C 0.4495 0.46729 0.84517 0.0
C791 C 0.42639 0.44846 0.80486 0.0
C792 C 0.47857 0.49926 0.83088 0.0
C793 C 0.441 0.44821 0.75599 0.0
C794 C 0.46984 0.47967 0.7394 0.0
C795 C 0.51289 0.53982 0.76151 0.0
C796 C 0.539 0.55674 0.79865 0.0
C797 C 0.48658 0.50663 0.77643 0.0
C798 C 0.529 0.55481 0.85157 0.0
C799 C 0.49849 0.52486 0.8683 0.0
H800 H 0.93603 0.43604 0.23272 0.0
H801 H 0.93206 0.51861 1.1506 0.0
H802 H -0.01458 0.56142 0.19419 0.0
H803 H 0.03654 0.5584 1.16743 0.0
H804 H 0.03992 0.46451 0.19671 0.0
H805 H -0.00734 0.4459 0.2608 0.0
C806 C 0.94706 0.46383 0.22501 0.0
C807 C 0.93415 0.47426 0.18267 0.0
C808 C 0.98182 0.4867 0.23827 0.0
C809 C 0.94403 0.50966 1.17881 0.0
C810 C 0.97482 0.53403 0.20364 0.0
C811 C 0.02752 0.53435 0.18949 0.0
C812 C 0.03787 0.5105 1.17334 0.0
C813 C -0.00298 0.52166 0.21916 0.0
C814 C 0.02961 0.48159 0.20527 0.0
C815 C 0.00279 0.47132 0.24234 0.0
H816 H 0.9766 0.3742 0.56398 0.0
H817 H 0.02787 0.43148 0.4271 0.0
H818 H -0.0072 0.46032 0.42762 0.0
H819 H 0.97053 0.48809 0.49099 0.0
H820 H 0.95637 0.45403 0.65225 0.0
H821 H 0.95852 0.40211 0.62758 0.0
C822 C 0.97895 0.39261 0.53381 0.0
C823 C 0.00952 0.40849 0.50403 0.0
C824 C 0.96668 0.41543 0.54476 0.0
C825 C 0.00821 0.42472 0.45745 0.0
C826 C -0.01099 0.44193 0.4586 0.0
C827 C 0.96926 0.46984 0.52058 0.0
C828 C 0.96296 0.47407 0.57307 0.0
C829 C 0.97264 0.4414 0.50639 0.0
C830 C 0.96211 0.45114 0.61176 0.0
C831 C 0.96089 0.42037 0.59725 0.0
H832 H 0.43241 0.93952 0.79261 0.0
H833 H 0.51227 0.93013 0.87205 0.0
H834 H 0.5568 0.98087 0.82447 0.0
H835 H 0.55811 0.03441 0.85113 0.0
H836 H 0.46627 0.04213 0.83054 0.0
H837 H 0.44625 -0.00252 0.76244 0.0
C838 C 0.45997 0.94882 0.79877 0.0
C839 C 0.46966 0.93564 0.8416 0.0
C840 C 0.48451 0.98279 0.78283 0.0
C841 C 0.50424 0.94278 0.84356 0.0
C842 C 0.52962 0.97203 0.81611 0.0
C843 C 0.53392 0.02647 0.8306 0.0
C844 C 0.511 0.03701 0.85035 0.0
C845 C 0.51951 -0.00394 0.8004 0.0
C846 C 0.48251 0.03124 0.81961 0.0
C847 C 0.47137 0.00579 0.78034 0.0
H848 H 0.53493 0.58243 1.12472 0.0
H849 H 0.61758 0.60378 0.22968 0.0
H850 H 0.60422 0.54338 0.22436 0.0
H851 H 0.54894 0.49069 0.2438 0.0
H852 H 0.45476 0.4707 1.1653 0.0
H853 H 0.48877 0.52215 1.10945 0.0
C854 C 0.55084 0.57355 1.144 0.0
C855 C 0.57195 0.59361 0.18564 0.0
C856 C 0.53767 0.53762 1.1489 0.0
C857 C 0.59735 0.58615 0.20297 0.0
C858 C 0.58911 0.55131 0.20083 0.0
C859 C 0.53602 0.49701 0.21333 0.0
C860 C 0.49946 0.47958 0.21129 0.0
C861 C 0.55554 0.52669 0.18312 0.0
C862 C 0.4829 0.48596 1.16967 0.0
C863 C 0.50242 0.51469 1.13696 0.0
H864 H 0.34981 0.05684 0.7987 0.0
H865 H 0.24798 0.96872 0.76428 0.0
H866 H 0.2437 -0.00084 0.68741 0.0
H867 H 0.27617 0.04211 0.6182 0.0
H868 H 0.38273 0.12363 0.64686 0.0
H869 H 0.37685 0.10655 0.73807 0.0
C870 C 0.32633 0.04474 0.77501 0.0
C871 C 0.29986 0.0102 0.78577 0.0
C872 C 0.32496 0.06148 0.72931 0.0
C873 C 0.26898 -0.00486 0.7562 0.0
C874 C 0.26663 0.01247 0.71202 0.0
C875 C 0.29788 0.05664 0.6447 0.0
C876 C 0.33052 0.08248 0.62448 0.0
C877 C 0.29561 0.04439 0.69612 0.0
C878 C 0.35748 0.10279 0.66019 0.0
C879 C 0.35443 0.09262 0.71264 0.0
H880 H 0.30502 0.26088 1.02912 0.0
H881 H 0.24563 0.29821 1.11418 0.0
H882 H 0.21358 0.29439 1.0349 0.0
H883 H 0.21345 0.29476 0.93997 0.0
H884 H 0.27422 0.26006 0.85226 0.0
H885 H 0.29402 0.24764 0.9344 0.0
C886 C 0.28452 0.26744 1.03036 0.0
C887 C 0.27829 0.28065 1.07699 0.0
C888 C 0.26676 0.26605 0.9842 0.0
C889 C 0.25108 0.28819 1.07869 0.0
C890 C 0.23286 0.28621 1.03325 0.0
C891 C 0.22973 0.28298 0.93814 0.0
C892 C 0.24356 0.27992 0.88969 0.0
C893 C 0.24194 0.27713 0.98533 0.0
C894 C 0.26421 0.26401 0.88901 0.0
C895 C 0.27574 0.2571 0.93602 0.0
H896 H 0.97594 0.29745 0.32649 0.0
H897 H 0.05898 0.35265 0.21333 0.0
H898 H 0.10223 0.35973 0.27856 0.0
H899 H 0.11672 0.35754 0.37085 0.0
H900 H 0.03332 0.30556 0.48489 0.0
H901 H -0.00986 0.2886 0.41601 0.0
C902 C 0.0035 0.31067 0.3161 0.0
C903 C 0.01437 0.32496 0.26562 0.0
C904 C 0.0282 0.31502 0.35391 0.0
C905 C 0.05003 0.34145 0.25208 0.0
C906 C 0.07476 0.34562 0.28938 0.0
C907 C 0.0891 0.3419 0.38043 0.0
C908 C 0.07844 0.33335 0.43315 0.0
C909 C 0.06422 0.33353 0.3409 0.0
C910 C 0.04251 0.3124 0.44474 0.0
C911 C 0.01764 0.30312 0.40541 0.0
H912 H 0.66713 0.96471 0.77994 0.0
H913 H 0.71118 0.06539 0.70369 0.0
H914 H 0.71184 0.03891 0.61977 0.0
H915 H 0.68416 0.98598 0.56722 0.0
H916 H 0.63553 0.88452 0.64214 0.0
H917 H 0.65393 0.91264 0.7279 0.0
C918 C 0.67825 0.98109 0.74539 0.0
C919 C 0.68808 0.01668 0.74738 0.0
C920 C 0.67727 0.96543 0.69702 0.0
C921 C 0.70259 0.0377 0.70253 0.0
C922 C 0.70295 0.02257 0.65463 0.0
C923 C 0.67899 0.9698 0.60183 0.0
C924 C 0.65715 0.9332 0.59854 0.0
C925 C 0.68797 0.98613 0.65094 0.0
C926 C 0.65132 0.91283 0.64391 0.0
C927 C 0.66157 0.92891 0.69299 0.0
H928 H 0.69893 0.78549 1.11449 0.0
H929 H 0.59403 0.74299 1.05477 0.0
H930 H 0.61016 0.72403 0.97586 0.0
H931 H 0.64819 0.70547 0.93537 0.0
H932 H 0.74988 0.73936 1.00013 0.0
H933 H 0.74073 0.77476 1.06577 0.0
C934 C 0.67963 0.7724 1.08404 0.0
C935 C 0.64484 0.76447 1.09224 0.0
C936 C 0.68821 0.75887 1.04018 0.0
C937 C 0.62093 0.74937 1.05067 0.0
C938 C 0.62993 0.73783 1.00547 0.0
C939 C 0.66858 0.72121 0.96331 0.0
C940 C 0.69919 0.71927 0.96421 0.0
C941 C 0.66256 0.74019 1.00176 0.0
C942 C 0.72592 0.74028 0.99938 0.0
C943 C 0.72059 0.76033 1.03693 0.0
H944 H 0.91745 0.59416 0.23684 0.0
H945 H -0.00986 0.70545 0.24099 0.0
H946 H 0.9591 0.71135 0.31652 0.0
H947 H 0.92124 0.68258 0.39272 0.0
H948 H 0.85477 0.56992 0.39315 0.0
H949 H 0.87115 0.56729 0.30321 0.0
C950 C 0.92568 0.61989 0.25302 0.0
C951 C 0.95647 0.64919 0.23447 0.0
C952 C 0.90863 0.62282 0.29763 0.0
C953 C 0.96691 0.6824 0.25567 0.0
C954 C 0.94916 0.68577 0.29876 0.0
C955 C 0.90966 0.65754 0.37266 0.0
C956 C 0.88816 0.62649 0.40085 0.0
C957 C 0.92146 0.65579 0.3221 0.0
C958 C 0.87191 0.59443 0.37334 0.0
C959 C 0.88177 0.59272 0.32179 0.0
H960 H 0.49279 0.12136 0.62743 0.0
H961 H 0.58213 0.12006 0.56232 0.0
H962 H 0.60196 0.11771 0.65067 0.0
H963 H 0.59486 0.11533 0.75002 0.0
H964 H 0.50807 0.12166 0.81476 0.0
H965 H 0.48771 0.12271 0.72652 0.0
C966 C 0.5168 0.12084 0.63205 0.0
C967 C 0.53558 0.12116 0.58551 0.0
C968 C 0.52913 0.12035 0.68482 0.0
C969 C 0.56666 0.12033 0.59524 0.0
C970 C 0.57821 0.1188 0.64677 0.0
C971 C 0.57165 0.11732 0.74536 0.0
C972 C 0.5537 0.11866 0.79189 0.0
C973 C 0.55989 0.1188 0.69252 0.0
C974 C 0.52345 0.121 0.78199 0.0
C975 C 0.51136 0.12144 0.73047 0.0
H976 H 0.4422 0.58259 0.92625 0.0
H977 H 0.36999 0.47571 0.97169 0.0
H978 H 0.39031 0.48981 1.06231 0.0
H979 H 0.42834 0.5316 1.13125 0.0
H980 H 0.5007 0.6391 1.08973 0.0
H981 H 0.48077 0.6257 0.99779 0.0
C982 C 0.43059 0.56214 0.95571 0.0
C983 C 0.40369 0.52744 0.93956 0.0
C984 C 0.44265 0.57071 1.0099 0.0
C985 C 0.39009 0.50234 0.98048 0.0
C986 C 0.40196 0.51056 1.03327 0.0
C987 C 0.44007 0.55264 1.10269 0.0
C988 C 0.46662 0.58697 1.12016 0.0
C989 C 0.42819 0.54457 1.0489 0.0
C990 C 0.48049 0.61269 1.08001 0.0
C991 C 0.4689 0.60478 1.02651 0.0
H992 H 0.86225 0.45549 0.2458 0.0
H993 H 0.85364 0.35581 0.27762 0.0
H994 H 0.85415 0.36653 0.37217 0.0
H995 H 0.85796 0.40452 0.44923 0.0
H996 H 0.87151 0.50632 0.41779 0.0
H997 H 0.86824 0.49455 0.32315 0.0
C998 C 0.86 0.43569 0.2731 0.0
C999 C 0.85708 0.40403 0.25209 0.0
C1000 C 0.86141 0.44263 0.32926 0.0
C1001 C 0.85541 0.38003 0.29034 0.0
C1002 C 0.85581 0.38631 0.34538 0.0
C1003 C 0.85996 0.42427 0.42205 0.0
C1004 C 0.86456 0.45655 0.44319 0.0
C1005 C 0.85888 0.41754 0.36592 0.0
C1006 C 0.86775 0.48128 0.405 0.0
C1007 C 0.86586 0.47444 0.3499 0.0
H1008 H 0.46465 0.8541 0.62384 0.0
H1009 H 0.37232 0.84834 0.5595 0.0
H1010 H 0.35174 0.85058 0.64815 0.0
H1011 H 0.35943 0.85522 0.7472 0.0
H1012 H 0.44905 0.85491 0.81105 0.0
H1013 H 0.46998 0.85395 0.72254 0.0
C1014 C 0.43979 0.85295 0.62877 0.0
C1015 C 0.42038 0.85077 0.58265 0.0
C1016 C 0.42712 0.85323 0.68149 0.0
C1017 C 0.38822 0.8495 0.59239 0.0
C1018 C 0.37629 0.851 0.64396 0.0
C1019 C 0.38338 0.85454 0.74222 0.0
C1020 C 0.40207 0.85496 0.78836 0.0
C1021 C 0.39535 0.85292 0.68941 0.0
C1022 C 0.43319 0.85417 0.77839 0.0
C1023 C 0.44557 0.85381 0.72682 0.0
H1024 H 0.61037 0.49477 0.98596 0.0
H1025 H 0.51245 0.45954 0.90721 0.0
H1026 H 0.48057 0.4315 0.98778 0.0
H1027 H 0.47822 0.41478 1.08398 0.0
H1028 H 0.57622 0.44908 1.16207 0.0
H1029 H 0.60799 0.4779 1.08201 0.0
C1030 C 0.58208 0.48133 0.98594 0.0
C1031 C 0.56482 0.48034 0.93764 0.0
C1032 C 0.56279 0.46392 1.03413 0.0
C1033 C 0.52766 0.46162 0.94155 0.0
C1034 C 0.50887 0.4451 0.98864 0.0
C1035 C 0.50651 0.42803 1.0839 0.0
C1036 C 0.52374 0.4283 1.13189 0.0
C1037 C 0.52577 0.4455 1.03573 0.0
C1038 C 0.56091 0.44709 1.12793 0.0
C1039 C 0.57969 0.46417 1.08112 0.0
H1040 H 0.09436 0.54464 0.43459 0.0
H1041 H 0.12964 0.47069 0.41475 0.0
H1042 H 0.13677 0.48338 0.31951 0.0
H1043 H 0.13168 0.51532 0.23848 0.0
H1044 H 0.09704 0.58959 0.26391 0.0
H1045 H 0.09126 0.57689 0.35745 0.0
C1046 C 0.10387 0.53111 0.41007 0.0
C1047 C 0.11147 0.50643 0.43438 0.0
C1048 C 0.10811 0.53879 0.35455 0.0
C1049 C 0.12368 0.48989 0.39948 0.0
C1050 C 0.12767 0.49721 0.34411 0.0
C1051 C 0.12328 0.52921 0.26428 0.0
C1052 C 0.11525 0.5542 0.24144 0.0
C1053 C 0.11991 0.52166 0.32053 0.0
C1054 C 0.10393 0.57076 0.27778 0.0
C1055 C 0.10041 0.5633 0.33234 0.0
loop_
_geom_bond_atom_site_label_1
_geom_bond_atom_site_label_2
_geom_bond_distance
_geom_bond_site_symmetry_2
_ccdc_geom_bond_type
Eu0 C9 2.828 . S
Eu0 O11 2.392 . S
Eu0 O13 2.418 . S
Eu0 O18 2.373 . S
Eu0 O21 2.488 . S
Eu0 O22 2.471 . S
Eu0 O23 2.349 . S
Eu1 O10 2.373 . S
Eu1 O14 2.488 . S
Eu1 O15 2.471 . S
Eu1 O16 2.349 . S
Eu1 O19 2.392 . S
Eu1 O20 2.418 . S
Eu1 C30 2.828 . S
C2 O20 1.244 . S
C2 O23 1.265 . S
C3 C4 1.379 . S
C3 C7 1.373 . S
C3 C9 1.505 . S
C4 C3 1.379 . S
C4 C6 1.369 . S
C4 H32 0.930 . S
C5 C7 1.383 . S
C5 C8 1.382 . S
C5 H33 0.930 . S
C6 C4 1.369 . S
C6 C8 1.392 . S
C6 H34 0.930 . S
C7 C3 1.373 . S
C7 C5 1.383 . S
C7 H35 0.931 . S
C8 C5 1.382 . S
C8 C6 1.392 . S
C9 Eu0 2.828 . S
C9 C3 1.505 . S
C9 O21 1.249 . S
C9 O22 1.244 . S
O10 Eu1 2.373 . S
O10 C12 1.258 . S
O11 Eu0 2.392 . S
O11 C12 1.242 . S
C12 O10 1.258 . S
C12 O11 1.242 . S
O13 Eu0 2.418 . S
O13 C17 1.244 . S
O14 Eu1 2.488 . S
O14 C30 1.249 . S
O15 Eu1 2.471 . S
O15 C30 1.244 . S
O16 Eu1 2.349 . S
O16 C17 1.265 . S
C17 O13 1.244 . S
C17 O16 1.265 . S
O18 Eu0 2.373 . S
O18 C31 1.258 . S
O19 Eu1 2.392 . S
O19 C31 1.242 . S
O20 Eu1 2.418 . S
O20 C2 1.244 . S
O21 Eu0 2.488 . S
O21 C9 1.249 . S
O22 Eu0 2.471 . S
O22 C9 1.244 . S
O23 Eu0 2.349 . S
O23 C2 1.265 . S
C24 C25 1.379 . S
C24 C28 1.373 . S
C24 C30 1.505 . S
C25 C24 1.379 . S
C25 C27 1.369 . S
C25 H36 0.930 . S
C26 C28 1.383 . S
C26 C29 1.382 . S
C26 H37 0.930 . S
C27 C25 1.369 . S
C27 C29 1.392 . S
C27 H38 0.930 . S
C28 C24 1.373 . S
C28 C26 1.383 . S
C28 H39 0.931 . S
C29 C26 1.382 . S
C29 C27 1.392 . S
C30 Eu1 2.828 . S
C30 O14 1.249 . S
C30 O15 1.244 . S
C30 C24 1.505 . S
C31 O18 1.258 . S
C31 O19 1.242 . S
H32 C4 0.930 . S
H33 C5 0.930 . S
H34 C6 0.930 . S
H35 C7 0.931 . S
H36 C25 0.930 . S
H37 C26 0.930 . S
H38 C27 0.930 . S
H39 C28 0.931 . S
Eu40 C49 2.828 . S
Eu40 O51 2.392 . S
Eu40 O53 2.418 . S
Eu40 O58 2.373 . S
Eu40 O61 2.488 . S
Eu40 O62 2.471 . S
Eu40 O63 2.349 . S
Eu41 O50 2.373 . S
Eu41 O54 2.488 . S
Eu41 O55 2.471 . S
Eu41 O56 2.349 . S
Eu41 O59 2.392 . S
Eu41 O60 2.418 . S
Eu41 C70 2.828 . S
C42 O60 1.244 . S
C42 O63 1.265 . S
C43 C44 1.379 . S
C43 C47 1.373 . S
C43 C49 1.505 . S
C44 C43 1.379 . S
C44 C46 1.369 . S
C44 H72 0.930 . S
C45 C47 1.383 . S
C45 C48 1.382 . S
C45 H73 0.930 . S
C46 C44 1.369 . S
C46 C48 1.392 . S
C46 H74 0.930 . S
C47 C43 1.373 . S
C47 C45 1.383 . S
C47 H75 0.931 . S
C48 C45 1.382 . S
C48 C46 1.392 . S
C49 Eu40 2.828 . S
C49 C43 1.505 . S
C49 O61 1.249 . S
C49 O62 1.244 . S
O50 Eu41 2.373 . S
O50 C52 1.258 . S
O51 Eu40 2.392 . S
O51 C52 1.242 . S
C52 O50 1.258 . S
C52 O51 1.242 . S
O53 Eu40 2.418 . S
O53 C57 1.244 . S
O54 Eu41 2.488 . S
O54 C70 1.249 . S
O55 Eu41 2.471 . S
O55 C70 1.244 . S
O56 Eu41 2.349 . S
O56 C57 1.265 . S
C57 O53 1.244 . S
C57 O56 1.265 . S
O58 Eu40 2.373 . S
O58 C71 1.258 . S
O59 Eu41 2.392 . S
O59 C71 1.242 . S
O60 Eu41 2.418 . S
O60 C42 1.244 . S
O61 Eu40 2.488 . S
O61 C49 1.249 . S
O62 Eu40 2.471 . S
O62 C49 1.244 . S
O63 Eu40 2.349 . S
O63 C42 1.265 . S
C64 C65 1.379 . S
C64 C68 1.373 . S
C64 C70 1.505 . S
C65 C64 1.379 . S
C65 C67 1.369 . S
C65 H76 0.930 . S
C66 C68 1.383 . S
C66 C69 1.382 . S
C66 H77 0.930 . S
C67 C65 1.369 . S
C67 C69 1.392 . S
C67 H78 0.930 . S
C68 C64 1.373 . S
C68 C66 1.383 . S
C68 H79 0.931 . S
C69 C66 1.382 . S
C69 C67 1.392 . S
C70 Eu41 2.828 . S
C70 O54 1.249 . S
C70 O55 1.244 . S
C70 C64 1.505 . S
C71 O58 1.258 . S
C71 O59 1.242 . S
H72 C44 0.930 . S
H73 C45 0.930 . S
H74 C46 0.930 . S
H75 C47 0.931 . S
H76 C65 0.930 . S
H77 C66 0.930 . S
H78 C67 0.930 . S
H79 C68 0.931 . S
Eu80 C89 2.828 1_556 S
Eu80 O91 2.392 . S
Eu80 O93 2.418 . S
Eu80 O98 2.373 . S
Eu80 O101 2.488 . S
Eu80 O102 2.471 . S
Eu80 O103 2.349 . S
Eu81 O90 2.373 . S
Eu81 O94 2.488 . S
Eu81 O95 2.471 . S
Eu81 O96 2.349 . S
Eu81 O99 2.392 . S
Eu81 O100 2.418 . S
Eu81 C110 2.828 . S
C82 O100 1.244 . S
C82 O103 1.265 . S
C83 C84 1.379 . S
C83 C87 1.373 . S
C83 C89 1.505 . S
C84 C83 1.379 . S
C84 C86 1.369 . S
C84 H112 0.930 . S
C85 C87 1.383 . S
C85 C88 1.382 . S
C85 H113 0.930 . S
C86 C84 1.369 . S
C86 C88 1.392 . S
C86 H114 0.930 . S
C87 C83 1.373 . S
C87 C85 1.383 . S
C87 H115 0.931 . S
C88 C85 1.382 . S
C88 C86 1.392 . S
C89 Eu80 2.828 1_554 S
C89 C83 1.505 . S
C89 O101 1.249 1_554 S
C89 O102 1.244 1_554 S
O90 Eu81 2.373 . S
O90 C92 1.258 . S
O91 Eu80 2.392 . S
O91 C92 1.242 . S
C92 O90 1.258 . S
C92 O91 1.242 . S
O93 Eu80 2.418 . S
O93 C97 1.244 . S
O94 Eu81 2.488 . S
O94 C110 1.249 . S
O95 Eu81 2.471 . S
O95 C110 1.244 . S
O96 Eu81 2.349 . S
O96 C97 1.265 . S
C97 O93 1.244 . S
C97 O96 1.265 . S
O98 Eu80 2.373 . S
O98 C111 1.258 . S
O99 Eu81 2.392 . S
O99 C111 1.242 . S
O100 Eu81 2.418 . S
O100 C82 1.244 . S
O101 Eu80 2.488 . S
O101 C89 1.249 1_556 S
O102 Eu80 2.471 . S
O102 C89 1.244 1_556 S
O103 Eu80 2.349 . S
O103 C82 1.265 . S
C104 C105 1.379 . S
C104 C108 1.373 . S
C104 C110 1.505 . S
C105 C104 1.379 . S
C105 C107 1.369 . S
C105 H116 0.930 . S
C106 C108 1.383 . S
C106 C109 1.382 . S
C106 H117 0.930 . S
C107 C105 1.369 . S
C107 C109 1.392 . S
C107 H118 0.930 . S
C108 C104 1.373 . S
C108 C106 1.383 . S
C108 H119 0.931 . S
C109 C106 1.382 . S
C109 C107 1.392 . S
C110 Eu81 2.828 . S
C110 O94 1.249 . S
C110 O95 1.244 . S
C110 C104 1.505 . S
C111 O98 1.258 . S
C111 O99 1.242 . S
H112 C84 0.930 . S
H113 C85 0.930 . S
H114 C86 0.930 . S
H115 C87 0.931 . S
H116 C105 0.930 . S
H117 C106 0.930 . S
H118 C107 0.930 . S
H119 C108 0.931 . S
Eu120 C129 2.828 . S
Eu120 O131 2.392 . S
Eu120 O133 2.418 . S
Eu120 O138 2.373 . S
Eu120 O141 2.488 . S
Eu120 O142 2.471 . S
Eu120 O143 2.349 . S
Eu121 O130 2.373 . S
Eu121 O134 2.488 . S
Eu121 O135 2.471 . S
Eu121 O136 2.349 . S
Eu121 O139 2.392 . S
Eu121 O140 2.418 . S
Eu121 C150 2.828 . S
C122 O140 1.244 . S
C122 O143 1.265 . S
C123 C124 1.379 . S
C123 C127 1.373 . S
C123 C129 1.505 . S
C124 C123 1.379 . S
C124 C126 1.369 . S
C124 H152 0.930 . S
C125 C127 1.383 . S
C125 C128 1.382 . S
C125 H153 0.930 . S
C126 C124 1.369 . S
C126 C128 1.392 . S
C126 H154 0.930 . S
C127 C123 1.373 . S
C127 C125 1.383 . S
C127 H155 0.931 . S
C128 C125 1.382 . S
C128 C126 1.392 . S
C129 Eu120 2.828 . S
C129 C123 1.505 . S
C129 O141 1.249 . S
C129 O142 1.244 . S
O130 Eu121 2.373 . S
O130 C132 1.258 . S
O131 Eu120 2.392 . S
O131 C132 1.242 . S
C132 O130 1.258 . S
C132 O131 1.242 . S
O133 Eu120 2.418 . S
O133 C137 1.244 . S
O134 Eu121 2.488 . S
O134 C150 1.249 . S
O135 Eu121 2.471 . S
O135 C150 1.244 . S
O136 Eu121 2.349 . S
O136 C137 1.265 . S
C137 O133 1.244 . S
C137 O136 1.265 . S
O138 Eu120 2.373 . S
O138 C151 1.258 . S
O139 Eu121 2.392 . S
O139 C151 1.242 . S
O140 Eu121 2.418 . S
O140 C122 1.244 . S
O141 Eu120 2.488 . S
O141 C129 1.249 . S
O142 Eu120 2.471 . S
O142 C129 1.244 . S
O143 Eu120 2.349 . S
O143 C122 1.265 . S
C144 C145 1.379 . S
C144 C148 1.373 . S
C144 C150 1.505 . S
C145 C144 1.379 . S
C145 C147 1.369 . S
C145 H156 0.930 . S
C146 C148 1.383 . S
C146 C149 1.382 . S
C146 H157 0.930 . S
C147 C145 1.369 . S
C147 C149 1.392 . S
C147 H158 0.930 . S
C148 C144 1.373 . S
C148 C146 1.383 . S
C148 H159 0.931 . S
C149 C146 1.382 . S
C149 C147 1.392 . S
C150 Eu121 2.828 . S
C150 O134 1.249 . S
C150 O135 1.244 . S
C150 C144 1.505 . S
C151 O138 1.258 . S
C151 O139 1.242 . S
H152 C124 0.930 . S
H153 C125 0.930 . S
H154 C126 0.930 . S
H155 C127 0.931 . S
H156 C145 0.930 . S
H157 C146 0.930 . S
H158 C147 0.930 . S
H159 C148 0.931 . S
Eu160 C169 2.828 . S
Eu160 O171 2.392 . S
Eu160 O173 2.418 . S
Eu160 O178 2.373 . S
Eu160 O181 2.488 . S
Eu160 O182 2.471 . S
Eu160 O183 2.349 . S
Eu161 O170 2.373 . S
Eu161 O174 2.488 . S
Eu161 O175 2.471 . S
Eu161 O176 2.349 . S
Eu161 O179 2.392 . S
Eu161 O180 2.418 . S
Eu161 C190 2.828 . S
C162 O180 1.244 . S
C162 O183 1.265 . S
C163 C164 1.379 . S
C163 C167 1.373 . S
C163 C169 1.505 . S
C164 C163 1.379 . S
C164 C166 1.369 . S
C164 H192 0.930 . S
C165 C167 1.383 . S
C165 C168 1.382 . S
C165 H193 0.930 . S
C166 C164 1.369 . S
C166 C168 1.392 . S
C166 H194 0.930 . S
C167 C163 1.373 . S
C167 C165 1.383 . S
C167 H195 0.931 . S
C168 C165 1.382 . S
C168 C166 1.392 . S
C169 Eu160 2.828 . S
C169 C163 1.505 . S
C169 O181 1.249 . S
C169 O182 1.244 . S
O170 Eu161 2.373 . S
O170 C172 1.258 . S
O171 Eu160 2.392 . S
O171 C172 1.242 . S
C172 O170 1.258 . S
C172 O171 1.242 . S
O173 Eu160 2.418 . S
O173 C177 1.244 . S
O174 Eu161 2.488 . S
O174 C190 1.249 . S
O175 Eu161 2.471 . S
O175 C190 1.244 . S
O176 Eu161 2.349 . S
O176 C177 1.265 . S
C177 O173 1.244 . S
C177 O176 1.265 . S
O178 Eu160 2.373 . S
O178 C191 1.258 . S
O179 Eu161 2.392 . S
O179 C191 1.242 . S
O180 Eu161 2.418 . S
O180 C162 1.244 . S
O181 Eu160 2.488 . S
O181 C169 1.249 . S
O182 Eu160 2.471 . S
O182 C169 1.244 . S
O183 Eu160 2.349 . S
O183 C162 1.265 . S
C184 C185 1.379 . S
C184 C188 1.373 . S
C184 C190 1.505 . S
C185 C184 1.379 . S
C185 C187 1.369 . S
C185 H196 0.930 . S
C186 C188 1.383 . S
C186 C189 1.382 . S
C186 H197 0.930 . S
C187 C185 1.369 . S
C187 C189 1.392 . S
C187 H198 0.930 . S
C188 C184 1.373 . S
C188 C186 1.383 . S
C188 H199 0.931 . S
C189 C186 1.382 . S
C189 C187 1.392 . S
C190 Eu161 2.828 . S
C190 O174 1.249 . S
C190 O175 1.244 . S
C190 C184 1.505 . S
C191 O178 1.258 . S
C191 O179 1.242 . S
H192 C164 0.930 . S
H193 C165 0.930 . S
H194 C166 0.930 . S
H195 C167 0.931 . S
H196 C185 0.930 . S
H197 C186 0.930 . S
H198 C187 0.930 . S
H199 C188 0.931 . S
Eu200 C209 2.828 1_556 S
Eu200 O211 2.392 . S
Eu200 O213 2.418 . S
Eu200 O218 2.373 . S
Eu200 O221 2.488 . S
Eu200 O222 2.471 . S
Eu200 O223 2.349 . S
Eu201 O210 2.373 . S
Eu201 O214 2.488 . S
Eu201 O215 2.471 . S
Eu201 O216 2.349 . S
Eu201 O219 2.392 . S
Eu201 O220 2.418 . S
Eu201 C230 2.828 . S
C202 O220 1.244 . S
C202 O223 1.265 . S
C203 C204 1.379 . S
C203 C207 1.373 . S
C203 C209 1.505 . S
C204 C203 1.379 . S
C204 C206 1.369 . S
C204 H232 0.930 . S
C205 C207 1.383 . S
C205 C208 1.382 . S
C205 H233 0.930 . S
C206 C204 1.369 . S
C206 C208 1.392 . S
C206 H234 0.930 . S
C207 C203 1.373 . S
C207 C205 1.383 . S
C207 H235 0.931 . S
C208 C205 1.382 . S
C208 C206 1.392 . S
C209 Eu200 2.828 1_554 S
C209 C203 1.505 . S
C209 O221 1.249 1_554 S
C209 O222 1.244 1_554 S
O210 Eu201 2.373 . S
O210 C212 1.258 . S
O211 Eu200 2.392 . S
O211 C212 1.242 . S
C212 O210 1.258 . S
C212 O211 1.242 . S
O213 Eu200 2.418 . S
O213 C217 1.244 . S
O214 Eu201 2.488 . S
O214 C230 1.249 . S
O215 Eu201 2.471 . S
O215 C230 1.244 . S
O216 Eu201 2.349 . S
O216 C217 1.265 . S
C217 O213 1.244 . S
C217 O216 1.265 . S
O218 Eu200 2.373 . S
O218 C231 1.258 . S
O219 Eu201 2.392 . S
O219 C231 1.242 . S
O220 Eu201 2.418 . S
O220 C202 1.244 . S
O221 Eu200 2.488 . S
O221 C209 1.249 1_556 S
O222 Eu200 2.471 . S
O222 C209 1.244 1_556 S
O223 Eu200 2.349 . S
O223 C202 1.265 . S
C224 C225 1.379 . S
C224 C228 1.373 . S
C224 C230 1.505 . S
C225 C224 1.379 . S
C225 C227 1.369 . S
C225 H236 0.930 . S
C226 C228 1.383 . S
C226 C229 1.382 . S
C226 H237 0.930 . S
C227 C225 1.369 . S
C227 C229 1.392 . S
C227 H238 0.930 . S
C228 C224 1.373 . S
C228 C226 1.383 . S
C228 H239 0.931 . S
C229 C226 1.382 . S
C229 C227 1.392 . S
C230 Eu201 2.828 . S
C230 O214 1.249 . S
C230 O215 1.244 . S
C230 C224 1.505 . S
C231 O218 1.258 . S
C231 O219 1.242 . S
H232 C204 0.930 . S
H233 C205 0.930 . S
H234 C206 0.930 . S
H235 C207 0.931 . S
H236 C225 0.930 . S
H237 C226 0.930 . S
H238 C227 0.930 . S
H239 C228 0.931 . S
Eu240 C249 2.828 . S
Eu240 O251 2.392 . S
Eu240 O253 2.418 . S
Eu240 O258 2.373 . S
Eu240 O261 2.488 . S
Eu240 O262 2.471 . S
Eu240 O263 2.349 . S
Eu241 O250 2.373 . S
Eu241 O254 2.488 . S
Eu241 O255 2.471 . S
Eu241 O256 2.349 . S
Eu241 O259 2.392 . S
Eu241 O260 2.418 . S
Eu241 C270 2.828 . S
C242 O260 1.244 . S
C242 O263 1.265 . S
C243 C244 1.379 . S
C243 C247 1.373 . S
C243 C249 1.505 . S
C244 C243 1.379 . S
C244 C246 1.369 . S
C244 H272 0.930 . S
C245 C247 1.383 . S
C245 C248 1.382 . S
C245 H273 0.930 . S
C246 C244 1.369 . S
C246 C248 1.392 . S
C246 H274 0.930 . S
C247 C243 1.373 . S
C247 C245 1.383 . S
C247 H275 0.931 . S
C248 C245 1.382 . S
C248 C246 1.392 . S
C249 Eu240 2.828 . S
C249 C243 1.505 . S
C249 O261 1.249 . S
C249 O262 1.244 . S
O250 Eu241 2.373 . S
O250 C252 1.258 . S
O251 Eu240 2.392 . S
O251 C252 1.242 . S
C252 O250 1.258 . S
C252 O251 1.242 . S
O253 Eu240 2.418 . S
O253 C257 1.244 . S
O254 Eu241 2.488 . S
O254 C270 1.249 . S
O255 Eu241 2.471 . S
O255 C270 1.244 . S
O256 Eu241 2.349 . S
O256 C257 1.265 . S
C257 O253 1.244 . S
C257 O256 1.265 . S
O258 Eu240 2.373 . S
O258 C271 1.258 . S
O259 Eu241 2.392 . S
O259 C271 1.242 . S
O260 Eu241 2.418 . S
O260 C242 1.244 . S
O261 Eu240 2.488 . S
O261 C249 1.249 . S
O262 Eu240 2.471 . S
O262 C249 1.244 . S
O263 Eu240 2.349 . S
O263 C242 1.265 . S
C264 C265 1.379 . S
C264 C268 1.373 . S
C264 C270 1.505 . S
C265 C264 1.379 . S
C265 C267 1.369 . S
C265 H276 0.930 . S
C266 C268 1.383 . S
C266 C269 1.382 . S
C266 H277 0.930 . S
C267 C265 1.369 . S
C267 C269 1.392 . S
C267 H278 0.930 . S
C268 C264 1.373 . S
C268 C266 1.383 . S
C268 H279 0.931 . S
C269 C266 1.382 . S
C269 C267 1.392 . S
C270 Eu241 2.828 . S
C270 O254 1.249 . S
C270 O255 1.244 . S
C270 C264 1.505 . S
C271 O258 1.258 . S
C271 O259 1.242 . S
H272 C244 0.930 . S
H273 C245 0.930 . S
H274 C246 0.930 . S
H275 C247 0.931 . S
H276 C265 0.930 . S
H277 C266 0.930 . S
H278 C267 0.930 . S
H279 C268 0.931 . S
Eu280 C289 2.828 . S
Eu280 O291 2.392 . S
Eu280 O293 2.418 . S
Eu280 O298 2.373 . S
Eu280 O301 2.488 . S
Eu280 O302 2.471 . S
Eu280 O303 2.349 . S
Eu281 O290 2.373 . S
Eu281 O294 2.488 . S
Eu281 O295 2.471 . S
Eu281 O296 2.349 . S
Eu281 O299 2.392 . S
Eu281 O300 2.418 . S
Eu281 C310 2.828 . S
C282 O300 1.244 . S
C282 O303 1.265 . S
C283 C284 1.379 . S
C283 C287 1.373 . S
C283 C289 1.505 . S
C284 C283 1.379 . S
C284 C286 1.369 . S
C284 H312 0.930 . S
C285 C287 1.383 . S
C285 C288 1.382 . S
C285 H313 0.930 . S
C286 C284 1.369 . S
C286 C288 1.392 . S
C286 H314 0.930 . S
C287 C283 1.373 . S
C287 C285 1.383 . S
C287 H315 0.931 . S
C288 C285 1.382 . S
C288 C286 1.392 . S
C289 Eu280 2.828 . S
C289 C283 1.505 . S
C289 O301 1.249 . S
C289 O302 1.244 . S
O290 Eu281 2.373 . S
O290 C292 1.258 . S
O291 Eu280 2.392 . S
O291 C292 1.242 . S
C292 O290 1.258 . S
C292 O291 1.242 . S
O293 Eu280 2.418 . S
O293 C297 1.244 . S
O294 Eu281 2.488 . S
O294 C310 1.249 . S
O295 Eu281 2.471 . S
O295 C310 1.244 . S
O296 Eu281 2.349 . S
O296 C297 1.265 . S
C297 O293 1.244 . S
C297 O296 1.265 . S
O298 Eu280 2.373 . S
O298 C311 1.258 . S
O299 Eu281 2.392 . S
O299 C311 1.242 . S
O300 Eu281 2.418 . S
O300 C282 1.244 . S
O301 Eu280 2.488 . S
O301 C289 1.249 . S
O302 Eu280 2.471 . S
O302 C289 1.244 . S
O303 Eu280 2.349 . S
O303 C282 1.265 . S
C304 C305 1.379 . S
C304 C308 1.373 . S
C304 C310 1.505 . S
C305 C304 1.379 . S
C305 C307 1.369 . S
C305 H316 0.930 . S
C306 C308 1.383 . S
C306 C309 1.382 . S
C306 H317 0.930 . S
C307 C305 1.369 . S
C307 C309 1.392 . S
C307 H318 0.930 . S
C308 C304 1.373 . S
C308 C306 1.383 . S
C308 H319 0.931 . S
C309 C306 1.382 . S
C309 C307 1.392 . S
C310 Eu281 2.828 . S
C310 O294 1.249 . S
C310 O295 1.244 . S
C310 C304 1.505 . S
C311 O298 1.258 . S
C311 O299 1.242 . S
H312 C284 0.930 . S
H313 C285 0.930 . S
H314 C286 0.930 . S
H315 C287 0.931 . S
H316 C305 0.930 . S
H317 C306 0.930 . S
H318 C307 0.930 . S
H319 C308 0.931 . S
Eu320 C329 2.828 1_554 S
Eu320 O331 2.392 . S
Eu320 O333 2.418 . S
Eu320 O338 2.373 . S
Eu320 O341 2.488 . S
Eu320 O342 2.471 . S
Eu320 O343 2.349 . S
Eu321 O330 2.373 . S
Eu321 O334 2.488 . S
Eu321 O335 2.471 . S
Eu321 O336 2.349 . S
Eu321 O339 2.392 . S
Eu321 O340 2.418 . S
Eu321 C350 2.828 . S
C322 O340 1.244 . S
C322 O343 1.265 . S
C323 C324 1.379 . S
C323 C327 1.373 . S
C323 C329 1.505 . S
C324 C323 1.379 . S
C324 C326 1.369 . S
C324 H352 0.930 . S
C325 C327 1.383 . S
C325 C328 1.382 . S
C325 H353 0.930 . S
C326 C324 1.369 . S
C326 C328 1.392 . S
C326 H354 0.930 . S
C327 C323 1.373 . S
C327 C325 1.383 . S
C327 H355 0.931 . S
C328 C325 1.382 . S
C328 C326 1.392 . S
C329 Eu320 2.828 1_556 S
C329 C323 1.505 . S
C329 O341 1.249 1_556 S
C329 O342 1.244 1_556 S
O330 Eu321 2.373 . S
O330 C332 1.258 . S
O331 Eu320 2.392 . S
O331 C332 1.242 . S
C332 O330 1.258 . S
C332 O331 1.242 . S
O333 Eu320 2.418 . S
O333 C337 1.244 . S
O334 Eu321 2.488 . S
O334 C350 1.249 . S
O335 Eu321 2.471 . S
O335 C350 1.244 . S
O336 Eu321 2.349 . S
O336 C337 1.265 . S
C337 O333 1.244 . S
C337 O336 1.265 . S
O338 Eu320 2.373 . S
O338 C351 1.258 . S
O339 Eu321 2.392 . S
O339 C351 1.242 . S
O340 Eu321 2.418 . S
O340 C322 1.244 . S
O341 Eu320 2.488 . S
O341 C329 1.249 1_554 S
O342 Eu320 2.471 . S
O342 C329 1.244 1_554 S
O343 Eu320 2.349 . S
O343 C322 1.265 . S
C344 C345 1.379 . S
C344 C348 1.373 . S
C344 C350 1.505 . S
C345 C344 1.379 . S
C345 C347 1.369 . S
C345 H356 0.930 . S
C346 C348 1.383 . S
C346 C349 1.382 . S
C346 H357 0.930 . S
C347 C345 1.369 . S
C347 C349 1.392 . S
C347 H358 0.930 . S
C348 C344 1.373 . S
C348 C346 1.383 . S
C348 H359 0.931 . S
C349 C346 1.382 . S
C349 C347 1.392 . S
C350 Eu321 2.828 . S
C350 O334 1.249 . S
C350 O335 1.244 . S
C350 C344 1.505 . S
C351 O338 1.258 . S
C351 O339 1.242 . S
H352 C324 0.930 . S
H353 C325 0.930 . S
H354 C326 0.930 . S
H355 C327 0.931 . S
H356 C345 0.930 . S
H357 C346 0.930 . S
H358 C347 0.930 . S
H359 C348 0.931 . S
Eu360 C369 2.828 . S
Eu360 O371 2.392 . S
Eu360 O373 2.418 . S
Eu360 O378 2.373 . S
Eu360 O381 2.488 . S
Eu360 O382 2.471 . S
Eu360 O383 2.349 . S
Eu361 O370 2.373 . S
Eu361 O374 2.488 . S
Eu361 O375 2.471 . S
Eu361 O376 2.349 . S
Eu361 O379 2.392 . S
Eu361 O380 2.418 . S
Eu361 C390 2.828 . S
C362 O380 1.244 . S
C362 O383 1.265 . S
C363 C364 1.379 . S
C363 C367 1.373 . S
C363 C369 1.505 . S
C364 C363 1.379 . S
C364 C366 1.369 . S
C364 H392 0.930 . S
C365 C367 1.383 . S
C365 C368 1.382 . S
C365 H393 0.930 . S
C366 C364 1.369 . S
C366 C368 1.392 . S
C366 H394 0.930 . S
C367 C363 1.373 . S
C367 C365 1.383 . S
C367 H395 0.931 . S
C368 C365 1.382 . S
C368 C366 1.392 . S
C369 Eu360 2.828 . S
C369 C363 1.505 . S
C369 O381 1.249 . S
C369 O382 1.244 . S
O370 Eu361 2.373 . S
O370 C372 1.258 . S
O371 Eu360 2.392 . S
O371 C372 1.242 . S
C372 O370 1.258 . S
C372 O371 1.242 . S
O373 Eu360 2.418 . S
O373 C377 1.244 . S
O374 Eu361 2.488 . S
O374 C390 1.249 . S
O375 Eu361 2.471 . S
O375 C390 1.244 . S
O376 Eu361 2.349 . S
O376 C377 1.265 . S
C377 O373 1.244 . S
C377 O376 1.265 . S
O378 Eu360 2.373 . S
O378 C391 1.258 . S
O379 Eu361 2.392 . S
O379 C391 1.242 . S
O380 Eu361 2.418 . S
O380 C362 1.244 . S
O381 Eu360 2.488 . S
O381 C369 1.249 . S
O382 Eu360 2.471 . S
O382 C369 1.244 . S
O383 Eu360 2.349 . S
O383 C362 1.265 . S
C384 C385 1.379 . S
C384 C388 1.373 . S
C384 C390 1.505 . S
C385 C384 1.379 . S
C385 C387 1.369 . S
C385 H396 0.930 . S
C386 C388 1.383 . S
C386 C389 1.382 . S
C386 H397 0.930 . S
C387 C385 1.369 . S
C387 C389 1.392 . S
C387 H398 0.930 . S
C388 C384 1.373 . S
C388 C386 1.383 . S
C388 H399 0.931 . S
C389 C386 1.382 . S
C389 C387 1.392 . S
C390 Eu361 2.828 . S
C390 O374 1.249 . S
C390 O375 1.244 . S
C390 C384 1.505 . S
C391 O378 1.258 . S
C391 O379 1.242 . S
H392 C364 0.930 . S
H393 C365 0.930 . S
H394 C366 0.930 . S
H395 C367 0.931 . S
H396 C385 0.930 . S
H397 C386 0.930 . S
H398 C387 0.930 . S
H399 C388 0.931 . S
Eu400 C409 2.828 . S
Eu400 O411 2.392 . S
Eu400 O413 2.418 . S
Eu400 O418 2.373 . S
Eu400 O421 2.488 . S
Eu400 O422 2.471 . S
Eu400 O423 2.349 . S
Eu401 O410 2.373 . S
Eu401 O414 2.488 . S
Eu401 O415 2.471 . S
Eu401 O416 2.349 . S
Eu401 O419 2.392 . S
Eu401 O420 2.418 . S
Eu401 C430 2.828 . S
C402 O420 1.244 . S
C402 O423 1.265 . S
C403 C404 1.379 . S
C403 C407 1.373 . S
C403 C409 1.505 . S
C404 C403 1.379 . S
C404 C406 1.369 . S
C404 H432 0.930 . S
C405 C407 1.383 . S
C405 C408 1.382 . S
C405 H433 0.930 . S
C406 C404 1.369 . S
C406 C408 1.392 . S
C406 H434 0.930 . S
C407 C403 1.373 . S
C407 C405 1.383 . S
C407 H435 0.931 . S
C408 C405 1.382 . S
C408 C406 1.392 . S
C409 Eu400 2.828 . S
C409 C403 1.505 . S
C409 O421 1.249 . S
C409 O422 1.244 . S
O410 Eu401 2.373 . S
O410 C412 1.258 . S
O411 Eu400 2.392 . S
O411 C412 1.242 . S
C412 O410 1.258 . S
C412 O411 1.242 . S
O413 Eu400 2.418 . S
O413 C417 1.244 . S
O414 Eu401 2.488 . S
O414 C430 1.249 . S
O415 Eu401 2.471 . S
O415 C430 1.244 . S
O416 Eu401 2.349 . S
O416 C417 1.265 . S
C417 O413 1.244 . S
C417 O416 1.265 . S
O418 Eu400 2.373 . S
O418 C431 1.258 . S
O419 Eu401 2.392 . S
O419 C431 1.242 . S
O420 Eu401 2.418 . S
O420 C402 1.244 . S
O421 Eu400 2.488 . S
O421 C409 1.249 . S
O422 Eu400 2.471 . S
O422 C409 1.244 . S
O423 Eu400 2.349 . S
O423 C402 1.265 . S
C424 C425 1.379 . S
C424 C428 1.373 . S
C424 C430 1.505 . S
C425 C424 1.379 . S
C425 C427 1.369 . S
C425 H436 0.930 . S
C426 C428 1.383 . S
C426 C429 1.382 . S
C426 H437 0.930 . S
C427 C425 1.369 . S
C427 C429 1.392 . S
C427 H438 0.930 . S
C428 C424 1.373 . S
C428 C426 1.383 . S
C428 H439 0.931 . S
C429 C426 1.382 . S
C429 C427 1.392 . S
C430 Eu401 2.828 . S
C430 O414 1.249 . S
C430 O415 1.244 . S
C430 C424 1.505 . S
C431 O418 1.258 . S
C431 O419 1.242 . S
H432 C404 0.930 . S
H433 C405 0.930 . S
H434 C406 0.930 . S
H435 C407 0.931 . S
H436 C425 0.930 . S
H437 C426 0.930 . S
H438 C427 0.930 . S
H439 C428 0.931 . S
Eu440 C449 2.828 1_554 S
Eu440 O451 2.392 . S
Eu440 O453 2.418 . S
Eu440 O458 2.373 . S
Eu440 O461 2.488 . S
Eu440 O462 2.471 . S
Eu440 O463 2.349 . S
Eu441 O450 2.373 . S
Eu441 O454 2.488 . S
Eu441 O455 2.471 . S
Eu441 O456 2.349 . S
Eu441 O459 2.392 . S
Eu441 O460 2.418 . S
Eu441 C470 2.828 . S
C442 O460 1.244 . S
C442 O463 1.265 . S
C443 C444 1.379 . S
C443 C447 1.373 . S
C443 C449 1.505 . S
C444 C443 1.379 . S
C444 C446 1.369 . S
C444 H472 0.930 . S
C445 C447 1.383 . S
C445 C448 1.382 . S
C445 H473 0.930 . S
C446 C444 1.369 . S
C446 C448 1.392 . S
C446 H474 0.930 . S
C447 C443 1.373 . S
C447 C445 1.383 . S
C447 H475 0.931 . S
C448 C445 1.382 . S
C448 C446 1.392 . S
C449 Eu440 2.828 1_556 S
C449 C443 1.505 . S
C449 O461 1.249 1_556 S
C449 O462 1.244 1_556 S
O450 Eu441 2.373 . S
O450 C452 1.258 . S
O451 Eu440 2.392 . S
O451 C452 1.242 . S
C452 O450 1.258 . S
C452 O451 1.242 . S
O453 Eu440 2.418 . S
O453 C457 1.244 . S
O454 Eu441 2.488 . S
O454 C470 1.249 . S
O455 Eu441 2.471 . S
O455 C470 1.244 . S
O456 Eu441 2.349 . S
O456 C457 1.265 . S
C457 O453 1.244 . S
C457 O456 1.265 . S
O458 Eu440 2.373 . S
O458 C471 1.258 . S
O459 Eu441 2.392 . S
O459 C471 1.242 . S
O460 Eu441 2.418 . S
O460 C442 1.244 . S
O461 Eu440 2.488 . S
O461 C449 1.249 1_554 S
O462 Eu440 2.471 . S
O462 C449 1.244 1_554 S
O463 Eu440 2.349 . S
O463 C442 1.265 . S
C464 C465 1.379 . S
C464 C468 1.373 . S
C464 C470 1.505 . S
C465 C464 1.379 . S
C465 C467 1.369 . S
C465 H476 0.930 . S
C466 C468 1.383 . S
C466 C469 1.382 . S
C466 H477 0.930 . S
C467 C465 1.369 . S
C467 C469 1.392 . S
C467 H478 0.930 . S
C468 C464 1.373 . S
C468 C466 1.383 . S
C468 H479 0.931 . S
C469 C466 1.382 . S
C469 C467 1.392 . S
C470 Eu441 2.828 . S
C470 O454 1.249 . S
C470 O455 1.244 . S
C470 C464 1.505 . S
C471 O458 1.258 . S
C471 O459 1.242 . S
H472 C444 0.930 . S
H473 C445 0.930 . S
H474 C446 0.930 . S
H475 C447 0.931 . S
H476 C465 0.930 . S
H477 C466 0.930 . S
H478 C467 0.930 . S
H479 C468 0.931 . S
H480 C486 0.930 . S
H481 C489 0.930 . S
H482 C490 0.930 . S
H483 C491 0.930 . S
H484 C494 0.930 . S
H485 C495 0.930 . S
C486 H480 0.930 . S
C486 C487 1.355 . S
C486 C488 1.415 . S
C487 C486 1.355 . S
C487 C489 1.419 . S
C488 C486 1.415 . S
C488 C493 1.425 . S
C488 C495 1.409 . S
C489 H481 0.930 . S
C489 C487 1.419 . S
C489 C490 1.362 . S
C490 H482 0.930 . S
C490 C489 1.362 . S
C490 C493 1.409 . S
C491 H483 0.930 . S
C491 C492 1.355 . S
C491 C493 1.415 . S
C492 C491 1.355 . S
C492 C494 1.419 . S
C493 C488 1.425 . S
C493 C490 1.409 . S
C493 C491 1.415 . S
C494 H484 0.930 . S
C494 C492 1.419 . S
C494 C495 1.362 . S
C495 H485 0.930 . S
C495 C488 1.409 . S
C495 C494 1.362 . S
H496 C502 0.930 . S
H497 C505 0.930 . S
H498 C506 0.930 . S
H499 C507 0.930 . S
H500 C510 0.930 . S
H501 C511 0.930 . S
C502 H496 0.930 . S
C502 C503 1.355 . S
C502 C504 1.415 . S
C503 C502 1.355 . S
C503 C505 1.419 . S
C504 C502 1.415 . S
C504 C509 1.425 . S
C504 C511 1.409 . S
C505 H497 0.930 . S
C505 C503 1.419 . S
C505 C506 1.362 . S
C506 H498 0.930 . S
C506 C505 1.362 . S
C506 C509 1.409 . S
C507 H499 0.930 . S
C507 C508 1.355 . S
C507 C509 1.415 . S
C508 C507 1.355 . S
C508 C510 1.419 . S
C509 C504 1.425 . S
C509 C506 1.409 . S
C509 C507 1.415 . S
C510 H500 0.930 . S
C510 C508 1.419 . S
C510 C511 1.362 . S
C511 H501 0.930 . S
C511 C504 1.409 . S
C511 C510 1.362 . S
H512 C518 0.930 . S
H513 C521 0.930 . S
H514 C522 0.930 . S
H515 C523 0.930 . S
H516 C526 0.930 . S
H517 C527 0.930 . S
C518 H512 0.930 . S
C518 C519 1.355 . S
C518 C520 1.415 . S
C519 C518 1.355 . S
C519 C521 1.419 . S
C520 C518 1.415 . S
C520 C525 1.425 . S
C520 C527 1.409 . S
C521 H513 0.930 . S
C521 C519 1.419 . S
C521 C522 1.362 . S
C522 H514 0.930 . S
C522 C521 1.362 . S
C522 C525 1.409 . S
C523 H515 0.930 . S
C523 C524 1.355 . S
C523 C525 1.415 . S
C524 C523 1.355 . S
C524 C526 1.419 . S
C525 C520 1.425 . S
C525 C522 1.409 . S
C525 C523 1.415 . S
C526 H516 0.930 . S
C526 C524 1.419 . S
C526 C527 1.362 . S
C527 H517 0.930 . S
C527 C520 1.409 . S
C527 C526 1.362 . S
H528 C534 0.930 . S
H529 C537 0.930 . S
H530 C538 0.930 . S
H531 C539 0.930 . S
H532 C542 0.930 . S
H533 C543 0.930 . S
C534 H528 0.930 . S
C534 C535 1.355 . S
C534 C536 1.415 . S
C535 C534 1.355 . S
C535 C537 1.419 . S
C536 C534 1.415 . S
C536 C541 1.425 . S
C536 C543 1.409 . S
C537 H529 0.930 . S
C537 C535 1.419 . S
C537 C538 1.362 . S
C538 H530 0.930 . S
C538 C537 1.362 . S
C538 C541 1.409 . S
C539 H531 0.930 . S
C539 C540 1.355 . S
C539 C541 1.415 . S
C540 C539 1.355 . S
C540 C542 1.419 . S
C541 C536 1.425 . S
C541 C538 1.409 . S
C541 C539 1.415 . S
C542 H532 0.930 . S
C542 C540 1.419 . S
C542 C543 1.362 . S
C543 H533 0.930 . S
C543 C536 1.409 . S
C543 C542 1.362 . S
H544 C550 0.930 . S
H545 C553 0.930 . S
H546 C554 0.930 . S
H547 C555 0.930 . S
H548 C558 0.930 . S
H549 C559 0.930 . S
C550 H544 0.930 . S
C550 C551 1.355 . S
C550 C552 1.415 . S
C551 C550 1.355 . S
C551 C553 1.419 . S
C552 C550 1.415 . S
C552 C557 1.425 . S
C552 C559 1.409 . S
C553 H545 0.930 . S
C553 C551 1.419 . S
C553 C554 1.362 . S
C554 H546 0.930 . S
C554 C553 1.362 . S
C554 C557 1.409 . S
C555 H547 0.930 . S
C555 C556 1.355 . S
C555 C557 1.415 . S
C556 C555 1.355 . S
C556 C558 1.419 . S
C557 C552 1.425 . S
C557 C554 1.409 . S
C557 C555 1.415 . S
C558 H548 0.930 . S
C558 C556 1.419 . S
C558 C559 1.362 . S
C559 H549 0.930 . S
C559 C552 1.409 . S
C559 C558 1.362 . S
H560 C566 0.930 . S
H561 C569 0.930 . S
H562 C570 0.930 . S
H563 C571 0.930 . S
H564 C574 0.930 . S
H565 C575 0.930 . S
C566 H560 0.930 . S
C566 C567 1.355 . S
C566 C568 1.415 . S
C567 C566 1.355 . S
C567 C569 1.419 . S
C568 C566 1.415 . S
C568 C573 1.425 . S
C568 C575 1.409 . S
C569 H561 0.930 . S
C569 C567 1.419 . S
C569 C570 1.362 . S
C570 H562 0.930 . S
C570 C569 1.362 . S
C570 C573 1.409 . S
C571 H563 0.930 . S
C571 C572 1.355 . S
C571 C573 1.415 . S
C572 C571 1.355 . S
C572 C574 1.419 . S
C573 C568 1.425 . S
C573 C570 1.409 . S
C573 C571 1.415 . S
C574 H564 0.930 . S
C574 C572 1.419 . S
C574 C575 1.362 . S
C575 H565 0.930 . S
C575 C568 1.409 . S
C575 C574 1.362 . S
H576 C582 0.930 . S
H577 C585 0.930 . S
H578 C586 0.930 . S
H579 C587 0.930 . S
H580 C590 0.930 . S
H581 C591 0.930 . S
C582 H576 0.930 . S
C582 C583 1.355 . S
C582 C584 1.415 . S
C583 C582 1.355 . S
C583 C585 1.419 1_556 S
C584 C582 1.415 . S
C584 C589 1.425 1_556 S
C584 C591 1.409 . S
C585 H577 0.930 . S
C585 C583 1.419 1_554 S
C585 C586 1.362 . S
C586 H578 0.930 . S
C586 C585 1.362 . S
C586 C589 1.409 . S
C587 H579 0.930 . S
C587 C588 1.355 . S
C587 C589 1.415 . S
C588 C587 1.355 . S
C588 C590 1.419 1_554 S
C589 C584 1.425 1_554 S
C589 C586 1.409 . S
C589 C587 1.415 . S
C590 H580 0.930 . S
C590 C588 1.419 1_556 S
C590 C591 1.362 . S
C591 H581 0.930 . S
C591 C584 1.409 . S
C591 C590 1.362 . S
H592 C598 0.930 . S
H593 C601 0.930 . S
H594 C602 0.930 . S
H595 C603 0.930 . S
H596 C606 0.930 . S
H597 C607 0.930 . S
C598 H592 0.930 . S
C598 C599 1.355 . S
C598 C600 1.415 . S
C599 C598 1.355 . S
C599 C601 1.419 . S
C600 C598 1.415 . S
C600 C605 1.425 . S
C600 C607 1.409 . S
C601 H593 0.930 . S
C601 C599 1.419 . S
C601 C602 1.362 . S
C602 H594 0.930 . S
C602 C601 1.362 . S
C602 C605 1.409 . S
C603 H595 0.930 . S
C603 C604 1.355 . S
C603 C605 1.415 . S
C604 C603 1.355 . S
C604 C606 1.419 . S
C605 C600 1.425 . S
C605 C602 1.409 . S
C605 C603 1.415 . S
C606 H596 0.930 . S
C606 C604 1.419 . S
C606 C607 1.362 . S
C607 H597 0.930 . S
C607 C600 1.409 . S
C607 C606 1.362 . S
H608 C614 0.930 . S
H609 C617 0.930 . S
H610 C618 0.930 . S
H611 C619 0.930 . S
H612 C622 0.930 . S
H613 C623 0.930 . S
C614 H608 0.930 . S
C614 C615 1.355 . S
C614 C616 1.415 . S
C615 C614 1.355 . S
C615 C617 1.419 . S
C616 C614 1.415 . S
C616 C621 1.425 . S
C616 C623 1.409 . S
C617 H609 0.930 . S
C617 C615 1.419 . S
C617 C618 1.362 . S
C618 H610 0.930 . S
C618 C617 1.362 . S
C618 C621 1.409 . S
C619 H611 0.930 . S
C619 C620 1.355 . S
C619 C621 1.415 . S
C620 C619 1.355 . S
C620 C622 1.419 . S
C621 C616 1.425 . S
C621 C618 1.409 . S
C621 C619 1.415 . S
C622 H612 0.930 . S
C622 C620 1.419 . S
C622 C623 1.362 . S
C623 H613 0.930 . S
C623 C616 1.409 . S
C623 C622 1.362 . S
H624 C630 0.930 . S
H625 C633 0.930 . S
H626 C634 0.930 . S
H627 C635 0.930 . S
H628 C638 0.930 . S
H629 C639 0.930 . S
C630 H624 0.930 . S
C630 C631 1.355 1_554 S
C630 C632 1.415 . S
C631 C630 1.355 1_556 S
C631 C633 1.419 . S
C632 C630 1.415 . S
C632 C637 1.425 1_554 S
C632 C639 1.409 . S
C633 H625 0.930 . S
C633 C631 1.419 . S
C633 C634 1.362 . S
C634 H626 0.930 . S
C634 C633 1.362 . S
C634 C637 1.409 . S
C635 H627 0.930 . S
C635 C636 1.355 1_556 S
C635 C637 1.415 . S
C636 C635 1.355 1_554 S
C636 C638 1.419 . S
C637 C632 1.425 1_556 S
C637 C634 1.409 . S
C637 C635 1.415 . S
C638 H628 0.930 . S
C638 C636 1.419 . S
C638 C639 1.362 . S
C639 H629 0.930 . S
C639 C632 1.409 . S
C639 C638 1.362 . S
H640 C646 0.930 . S
H641 C649 0.930 . S
H642 C650 0.930 . S
H643 C651 0.930 . S
H644 C654 0.930 . S
H645 C655 0.930 . S
C646 H640 0.930 . S
C646 C647 1.355 . S
C646 C648 1.415 . S
C647 C646 1.355 . S
C647 C649 1.419 . S
C648 C646 1.415 . S
C648 C653 1.425 . S
C648 C655 1.409 . S
C649 H641 0.930 . S
C649 C647 1.419 . S
C649 C650 1.362 . S
C650 H642 0.930 . S
C650 C649 1.362 . S
C650 C653 1.409 . S
C651 H643 0.930 . S
C651 C652 1.355 . S
C651 C653 1.415 . S
C652 C651 1.355 . S
C652 C654 1.419 . S
C653 C648 1.425 . S
C653 C650 1.409 . S
C653 C651 1.415 . S
C654 H644 0.930 . S
C654 C652 1.419 . S
C654 C655 1.362 . S
C655 H645 0.930 . S
C655 C648 1.409 . S
C655 C654 1.362 . S
H656 C662 0.930 . S
H657 C665 0.930 . S
H658 C666 0.930 . S
H659 C667 0.930 . S
H660 C670 0.930 . S
H661 C671 0.930 . S
C662 H656 0.930 . S
C662 C663 1.355 . S
C662 C664 1.415 . S
C663 C662 1.355 . S
C663 C665 1.419 . S
C664 C662 1.415 . S
C664 C669 1.425 . S
C664 C671 1.409 . S
C665 H657 0.930 . S
C665 C663 1.419 . S
C665 C666 1.362 . S
C666 H658 0.930 . S
C666 C665 1.362 . S
C666 C669 1.409 . S
C667 H659 0.930 . S
C667 C668 1.355 . S
C667 C669 1.415 . S
C668 C667 1.355 . S
C668 C670 1.419 . S
C669 C664 1.425 . S
C669 C666 1.409 . S
C669 C667 1.415 . S
C670 H660 0.930 . S
C670 C668 1.419 . S
C670 C671 1.362 . S
C671 H661 0.930 . S
C671 C664 1.409 . S
C671 C670 1.362 . S
H672 C678 0.930 . S
H673 C681 0.930 . S
H674 C682 0.930 . S
H675 C683 0.930 . S
H676 C686 0.930 . S
H677 C687 0.930 . S
C678 H672 0.930 . S
C678 C679 1.355 . S
C678 C680 1.415 1_556 S
C679 C678 1.355 . S
C679 C681 1.419 1_565 S
C680 C678 1.415 1_554 S
C680 C685 1.425 1_564 S
C680 C687 1.409 . S
C681 H673 0.930 . S
C681 C679 1.419 1_545 S
C681 C682 1.362 . S
C682 H674 0.930 . S
C682 C681 1.362 . S
C682 C685 1.409 . S
C683 H675 0.930 . S
C683 C684 1.355 . S
C683 C685 1.415 1_554 S
C684 C683 1.355 . S
C684 C686 1.419 1_545 S
C685 C680 1.425 1_546 S
C685 C682 1.409 . S
C685 C683 1.415 1_556 S
C686 H676 0.930 . S
C686 C684 1.419 1_565 S
C686 C687 1.362 . S
C687 H677 0.930 . S
C687 C680 1.409 . S
C687 C686 1.362 . S
H688 C694 0.930 . S
H689 C697 0.930 . S
H690 C698 0.930 . S
H691 C699 0.930 . S
H692 C702 0.930 . S
H693 C703 0.930 . S
C694 H688 0.930 . S
C694 C695 1.355 . S
C694 C696 1.415 . S
C695 C694 1.355 . S
C695 C697 1.419 . S
C696 C694 1.415 . S
C696 C701 1.425 . S
C696 C703 1.409 . S
C697 H689 0.930 . S
C697 C695 1.419 . S
C697 C698 1.362 . S
C698 H690 0.930 . S
C698 C697 1.362 . S
C698 C701 1.409 . S
C699 H691 0.930 . S
C699 C700 1.355 . S
C699 C701 1.415 . S
C700 C699 1.355 . S
C700 C702 1.419 . S
C701 C696 1.425 . S
C701 C698 1.409 . S
C701 C699 1.415 . S
C702 H692 0.930 . S
C702 C700 1.419 . S
C702 C703 1.362 . S
C703 H693 0.930 . S
C703 C696 1.409 . S
C703 C702 1.362 . S
H704 C710 0.930 1_655 S
H705 C713 0.930 . S
H706 C714 0.930 . S
H707 C715 0.930 1_455 S
H708 C718 0.930 . S
H709 C719 0.930 . S
C710 H704 0.930 1_455 S
C710 C711 1.355 . S
C710 C712 1.415 1_455 S
C711 C710 1.355 . S
C711 C713 1.419 . S
C712 C710 1.415 1_655 S
C712 C717 1.425 1_655 S
C712 C719 1.409 . S
C713 H705 0.930 . S
C713 C711 1.419 . S
C713 C714 1.362 . S
C714 H706 0.930 . S
C714 C713 1.362 . S
C714 C717 1.409 . S
C715 H707 0.930 1_655 S
C715 C716 1.355 . S
C715 C717 1.415 1_655 S
C716 C715 1.355 . S
C716 C718 1.419 . S
C717 C712 1.425 1_455 S
C717 C714 1.409 . S
C717 C715 1.415 1_455 S
C718 H708 0.930 . S
C718 C716 1.419 . S
C718 C719 1.362 . S
C719 H709 0.930 . S
C719 C712 1.409 . S
C719 C718 1.362 . S
H720 C726 0.918 1_545 S
H721 C729 0.930 . S
H722 C730 0.930 . S
H723 C731 0.918 1_565 S
H724 C734 0.930 . S
H725 C735 0.930 . S
C726 H720 0.918 1_565 S
C726 C727 1.372 . S
C726 C728 1.409 1_565 S
C727 C726 1.372 . S
C727 C729 1.419 . S
C728 C726 1.409 1_545 S
C728 C733 1.425 1_544 S
C728 C735 1.409 . S
C729 H721 0.930 . S
C729 C727 1.419 . S
C729 C730 1.362 1_554 S
C730 H722 0.930 . S
C730 C729 1.362 1_556 S
C730 C733 1.409 . S
C731 H723 0.918 1_545 S
C731 C732 1.372 . S
C731 C733 1.409 1_545 S
C732 C731 1.372 . S
C732 C734 1.419 . S
C733 C728 1.425 1_566 S
C733 C730 1.409 . S
C733 C731 1.409 1_565 S
C734 H724 0.930 . S
C734 C732 1.419 . S
C734 C735 1.362 1_556 S
C735 H725 0.930 . S
C735 C728 1.409 . S
C735 C734 1.362 1_554 S
H736 C742 0.930 . S
H737 C745 0.930 . S
H738 C746 0.930 . S
H739 C747 0.930 . S
H740 C750 0.930 . S
H741 C751 0.930 . S
C742 H736 0.930 . S
C742 C743 1.355 . S
C742 C744 1.415 . S
C743 C742 1.355 . S
C743 C745 1.419 . S
C744 C742 1.415 . S
C744 C749 1.425 . S
C744 C751 1.409 . S
C745 H737 0.930 . S
C745 C743 1.419 . S
C745 C746 1.362 . S
C746 H738 0.930 . S
C746 C745 1.362 . S
C746 C749 1.409 . S
C747 H739 0.930 . S
C747 C748 1.355 . S
C747 C749 1.415 . S
C748 C747 1.355 . S
C748 C750 1.419 . S
C749 C744 1.425 . S
C749 C746 1.409 . S
C749 C747 1.415 . S
C750 H740 0.930 . S
C750 C748 1.419 . S
C750 C751 1.362 . S
C751 H741 0.930 . S
C751 C744 1.409 . S
C751 C750 1.362 . S
H752 C758 0.930 . S
H753 C761 0.935 1_655 S
H754 C762 0.930 . S
H755 C763 0.930 . S
H756 C766 0.935 1_455 S
H757 C767 0.930 . S
C758 H752 0.930 . S
C758 C759 1.355 . S
C758 C760 1.415 . S
C759 C758 1.355 . S
C759 C761 1.433 . S
C760 C758 1.415 . S
C760 C765 1.425 1_455 S
C760 C767 1.409 . S
C761 H753 0.935 1_455 S
C761 C759 1.433 . S
C761 C762 1.345 1_455 S
C762 H754 0.930 . S
C762 C761 1.345 1_655 S
C762 C765 1.409 . S
C763 H755 0.930 . S
C763 C764 1.355 . S
C763 C765 1.415 . S
C764 C763 1.355 . S
C764 C766 1.433 . S
C765 C760 1.425 1_655 S
C765 C762 1.409 . S
C765 C763 1.415 . S
C766 H756 0.935 1_655 S
C766 C764 1.433 . S
C766 C767 1.345 1_655 S
C767 H757 0.930 . S
C767 C760 1.409 . S
C767 C766 1.345 1_455 S
H768 C774 0.930 . S
H769 C777 0.930 . S
H770 C778 0.930 . S
H771 C779 0.930 . S
H772 C782 0.930 . S
H773 C783 0.930 . S
C774 H768 0.930 . S
C774 C775 1.355 . S
C774 C776 1.415 1_545 S
C775 C774 1.355 . S
C775 C777 1.419 . S
C776 C774 1.415 1_565 S
C776 C781 1.425 1_565 S
C776 C783 1.409 . S
C777 H769 0.930 . S
C777 C775 1.419 . S
C777 C778 1.362 . S
C778 H770 0.930 . S
C778 C777 1.362 . S
C778 C781 1.409 . S
C779 H771 0.930 . S
C779 C780 1.355 . S
C779 C781 1.415 1_565 S
C780 C779 1.355 . S
C780 C782 1.419 . S
C781 C776 1.425 1_545 S
C781 C778 1.409 . S
C781 C779 1.415 1_545 S
C782 H772 0.930 . S
C782 C780 1.419 . S
C782 C783 1.362 . S
C783 H773 0.930 . S
C783 C776 1.409 . S
C783 C782 1.362 . S
H784 C790 0.930 . S
H785 C793 0.930 . S
H786 C794 0.930 . S
H787 C795 0.930 . S
H788 C798 0.930 . S
H789 C799 0.930 . S
C790 H784 0.930 . S
C790 C791 1.355 . S
C790 C792 1.415 . S
C791 C790 1.355 . S
C791 C793 1.419 . S
C792 C790 1.415 . S
C792 C797 1.425 . S
C792 C799 1.409 . S
C793 H785 0.930 . S
C793 C791 1.419 . S
C793 C794 1.362 . S
C794 H786 0.930 . S
C794 C793 1.362 . S
C794 C797 1.409 . S
C795 H787 0.930 . S
C795 C796 1.355 . S
C795 C797 1.415 . S
C796 C795 1.355 . S
C796 C798 1.419 . S
C797 C792 1.425 . S
C797 C794 1.409 . S
C797 C795 1.415 . S
C798 H788 0.930 . S
C798 C796 1.419 . S
C798 C799 1.362 . S
C799 H789 0.930 . S
C799 C792 1.409 . S
C799 C798 1.362 . S
H800 C806 0.930 . S
H801 C809 0.930 . S
H802 C810 0.930 . S
H803 C811 0.930 . S
H804 C814 0.930 . S
H805 C815 0.930 . S
C806 H800 0.930 . S
C806 C807 1.355 . S
C806 C808 1.415 1_655 S
C807 C806 1.355 . S
C807 C809 1.419 . S
C808 C806 1.415 1_455 S
C808 C813 1.425 1_455 S
C808 C815 1.409 . S
C809 H801 0.930 . S
C809 C807 1.419 . S
C809 C810 1.362 . S
C810 H802 0.930 . S
C810 C809 1.362 . S
C810 C813 1.409 . S
C811 H803 0.930 . S
C811 C812 1.355 . S
C811 C813 1.415 1_455 S
C812 C811 1.355 . S
C812 C814 1.419 . S
C813 C808 1.425 1_655 S
C813 C810 1.409 . S
C813 C811 1.415 1_655 S
C814 H804 0.930 . S
C814 C812 1.419 . S
C814 C815 1.362 . S
C815 H805 0.930 . S
C815 C808 1.409 . S
C815 C814 1.362 . S
H816 C822 0.930 . S
H817 C825 0.930 . S
H818 C826 0.930 . S
H819 C827 0.930 . S
H820 C830 0.930 . S
H821 C831 0.930 . S
C822 H816 0.930 . S
C822 C823 1.355 . S
C822 C824 1.415 1_455 S
C823 C822 1.355 . S
C823 C825 1.419 . S
C824 C822 1.415 1_655 S
C824 C829 1.425 1_655 S
C824 C831 1.409 . S
C825 H817 0.930 . S
C825 C823 1.419 . S
C825 C826 1.362 . S
C826 H818 0.930 . S
C826 C825 1.362 . S
C826 C829 1.409 . S
C827 H819 0.930 . S
C827 C828 1.355 . S
C827 C829 1.415 1_655 S
C828 C827 1.355 . S
C828 C830 1.419 . S
C829 C824 1.425 1_455 S
C829 C826 1.409 . S
C829 C827 1.415 1_455 S
C830 H820 0.930 . S
C830 C828 1.419 . S
C830 C831 1.362 . S
C831 H821 0.930 . S
C831 C824 1.409 . S
C831 C830 1.362 . S
H832 C838 0.930 . S
H833 C841 0.930 . S
H834 C842 0.930 . S
H835 C843 0.930 . S
H836 C846 0.930 . S
H837 C847 0.930 . S
C838 H832 0.930 . S
C838 C839 1.355 . S
C838 C840 1.419 . S
C839 C838 1.355 . S
C839 C841 1.419 . S
C840 C838 1.419 . S
C840 C845 1.433 1_565 S
C840 C847 1.401 1_565 S
C841 H833 0.930 . S
C841 C839 1.419 . S
C841 C842 1.362 . S
C842 H834 0.930 . S
C842 C841 1.362 . S
C842 C845 1.401 1_565 S
C843 H835 0.930 . S
C843 C844 1.355 . S
C843 C845 1.419 . S
C844 C843 1.355 . S
C844 C846 1.419 . S
C845 C840 1.433 1_545 S
C845 C842 1.401 1_545 S
C845 C843 1.419 . S
C846 H836 0.930 . S
C846 C844 1.419 . S
C846 C847 1.362 . S
C847 H837 0.930 . S
C847 C840 1.401 1_545 S
C847 C846 1.362 . S
H848 C854 0.930 . S
H849 C857 0.930 . S
H850 C858 0.930 . S
H851 C859 0.930 . S
H852 C862 0.930 . S
H853 C863 0.930 . S
C854 H848 0.930 . S
C854 C855 1.355 . S
C854 C856 1.415 . S
C855 C854 1.355 . S
C855 C857 1.419 . S
C856 C854 1.415 . S
C856 C861 1.425 . S
C856 C863 1.409 . S
C857 H849 0.930 . S
C857 C855 1.419 . S
C857 C858 1.362 . S
C858 H850 0.930 . S
C858 C857 1.362 . S
C858 C861 1.409 . S
C859 H851 0.930 . S
C859 C860 1.355 . S
C859 C861 1.415 . S
C860 C859 1.355 . S
C860 C862 1.419 . S
C861 C856 1.425 . S
C861 C858 1.409 . S
C861 C859 1.415 . S
C862 H852 0.930 . S
C862 C860 1.419 . S
C862 C863 1.362 . S
C863 H853 0.930 . S
C863 C856 1.409 . S
C863 C862 1.362 . S
H864 C870 0.930 . S
H865 C873 0.930 . S
H866 C874 0.930 . S
H867 C875 0.930 . S
H868 C878 0.930 . S
H869 C879 0.930 . S
C870 H864 0.930 . S
C870 C871 1.355 . S
C870 C872 1.408 1_565 S
C871 C870 1.355 . S
C871 C873 1.419 . S
C872 C870 1.408 1_545 S
C872 C877 1.427 1_545 S
C872 C879 1.415 . S
C873 H865 0.930 . S
C873 C871 1.419 . S
C873 C874 1.362 . S
C874 H866 0.930 . S
C874 C873 1.362 . S
C874 C877 1.415 . S
C875 H867 0.930 . S
C875 C876 1.355 . S
C875 C877 1.408 1_545 S
C876 C875 1.355 . S
C876 C878 1.419 . S
C877 C872 1.427 1_565 S
C877 C874 1.415 . S
C877 C875 1.408 1_565 S
C878 H868 0.930 . S
C878 C876 1.419 . S
C878 C879 1.362 . S
C879 H869 0.930 . S
C879 C872 1.415 . S
C879 C878 1.362 . S
H880 C886 0.930 . S
H881 C889 0.930 . S
H882 C890 0.930 . S
H883 C891 0.930 . S
H884 C894 0.930 . S
H885 C895 0.930 . S
C886 H880 0.930 . S
C886 C887 1.355 . S
C886 C888 1.415 . S
C887 C886 1.355 . S
C887 C889 1.419 . S
C888 C886 1.415 . S
C888 C893 1.425 . S
C888 C895 1.409 . S
C889 H881 0.930 . S
C889 C887 1.419 . S
C889 C890 1.362 . S
C890 H882 0.930 . S
C890 C889 1.362 . S
C890 C893 1.409 . S
C891 H883 0.930 . S
C891 C892 1.355 . S
C891 C893 1.415 . S
C892 C891 1.355 . S
C892 C894 1.419 . S
C893 C888 1.425 . S
C893 C890 1.409 . S
C893 C891 1.415 . S
C894 H884 0.930 . S
C894 C892 1.419 . S
C894 C895 1.362 . S
C895 H885 0.930 . S
C895 C888 1.409 . S
C895 C894 1.362 . S
H896 C902 0.930 . S
H897 C905 0.930 . S
H898 C906 0.930 . S
H899 C907 0.930 . S
H900 C910 0.930 . S
H901 C911 0.930 . S
C902 H896 0.930 . S
C902 C903 1.355 . S
C902 C904 1.415 . S
C903 C902 1.355 . S
C903 C905 1.419 . S
C904 C902 1.415 . S
C904 C909 1.425 1_655 S
C904 C911 1.409 1_655 S
C905 H897 0.930 . S
C905 C903 1.419 . S
C905 C906 1.362 . S
C906 H898 0.930 . S
C906 C905 1.362 . S
C906 C909 1.409 1_655 S
C907 H899 0.930 . S
C907 C908 1.355 . S
C907 C909 1.415 . S
C908 C907 1.355 . S
C908 C910 1.419 . S
C909 C904 1.425 1_455 S
C909 C906 1.409 1_455 S
C909 C907 1.415 . S
C910 H900 0.930 . S
C910 C908 1.419 . S
C910 C911 1.362 . S
C911 H901 0.930 . S
C911 C904 1.409 1_455 S
C911 C910 1.362 . S
H912 C918 0.930 . S
H913 C921 0.930 . S
H914 C922 0.930 . S
H915 C923 0.930 . S
H916 C926 0.930 . S
H917 C927 0.930 . S
C918 H912 0.930 . S
C918 C919 1.355 . S
C918 C920 1.415 . S
C919 C918 1.355 . S
C919 C921 1.419 . S
C920 C918 1.415 . S
C920 C925 1.425 1_545 S
C920 C927 1.409 1_545 S
C921 H913 0.930 . S
C921 C919 1.419 . S
C921 C922 1.362 . S
C922 H914 0.930 . S
C922 C921 1.362 . S
C922 C925 1.409 1_545 S
C923 H915 0.930 . S
C923 C924 1.355 . S
C923 C925 1.415 . S
C924 C923 1.355 . S
C924 C926 1.419 . S
C925 C920 1.425 1_565 S
C925 C922 1.409 1_565 S
C925 C923 1.415 . S
C926 H916 0.930 . S
C926 C924 1.419 . S
C926 C927 1.362 . S
C927 H917 0.930 . S
C927 C920 1.409 1_565 S
C927 C926 1.362 . S
H928 C934 0.930 . S
H929 C937 0.930 . S
H930 C938 0.930 . S
H931 C939 0.930 . S
H932 C942 0.930 . S
H933 C943 0.930 . S
C934 H928 0.930 . S
C934 C935 1.355 . S
C934 C936 1.415 . S
C935 C934 1.355 . S
C935 C937 1.419 . S
C936 C934 1.415 . S
C936 C941 1.425 . S
C936 C943 1.409 . S
C937 H929 0.930 . S
C937 C935 1.419 . S
C937 C938 1.362 . S
C938 H930 0.930 . S
C938 C937 1.362 . S
C938 C941 1.409 . S
C939 H931 0.930 . S
C939 C940 1.355 . S
C939 C941 1.415 . S
C940 C939 1.355 . S
C940 C942 1.419 . S
C941 C936 1.425 . S
C941 C938 1.409 . S
C941 C939 1.415 . S
C942 H932 0.930 . S
C942 C940 1.419 . S
C942 C943 1.362 . S
C943 H933 0.930 . S
C943 C936 1.409 . S
C943 C942 1.362 . S
H944 C950 0.930 . S
H945 C953 0.930 . S
H946 C954 0.930 . S
H947 C955 0.930 . S
H948 C958 0.930 . S
H949 C959 0.930 . S
C950 H944 0.930 . S
C950 C951 1.355 . S
C950 C952 1.437 . S
C951 C950 1.355 . S
C951 C953 1.419 . S
C952 C950 1.437 . S
C952 C957 1.442 1_455 S
C952 C959 1.379 1_455 S
C953 H945 0.930 . S
C953 C951 1.419 . S
C953 C954 1.362 . S
C954 H946 0.930 . S
C954 C953 1.362 . S
C954 C957 1.379 1_455 S
C955 H947 0.930 . S
C955 C956 1.355 . S
C955 C957 1.437 . S
C956 C955 1.355 . S
C956 C958 1.419 . S
C957 C952 1.442 1_655 S
C957 C954 1.379 1_655 S
C957 C955 1.437 . S
C958 H948 0.930 . S
C958 C956 1.419 . S
C958 C959 1.362 . S
C959 H949 0.930 . S
C959 C952 1.379 1_655 S
C959 C958 1.362 . S
H960 C966 0.930 . S
H961 C969 0.930 . S
H962 C970 0.930 . S
H963 C971 0.930 . S
H964 C974 0.930 . S
H965 C975 0.930 . S
C966 H960 0.930 . S
C966 C967 1.355 . S
C966 C968 1.415 . S
C967 C966 1.355 . S
C967 C969 1.419 . S
C968 C966 1.415 . S
C968 C973 1.425 . S
C968 C975 1.409 . S
C969 H961 0.930 . S
C969 C967 1.419 . S
C969 C970 1.362 . S
C970 H962 0.930 . S
C970 C969 1.362 . S
C970 C973 1.409 . S
C971 H963 0.930 . S
C971 C972 1.355 . S
C971 C973 1.415 . S
C972 C971 1.355 . S
C972 C974 1.419 . S
C973 C968 1.425 . S
C973 C970 1.409 . S
C973 C971 1.415 . S
C974 H964 0.930 . S
C974 C972 1.419 . S
C974 C975 1.362 . S
C975 H965 0.930 . S
C975 C968 1.409 . S
C975 C974 1.362 . S
H976 C982 0.930 . S
H977 C985 0.930 . S
H978 C986 0.930 . S
H979 C987 0.930 . S
H980 C990 0.930 . S
H981 C991 0.930 . S
C982 H976 0.930 . S
C982 C983 1.355 . S
C982 C984 1.415 . S
C983 C982 1.355 . S
C983 C985 1.419 . S
C984 C982 1.415 . S
C984 C989 1.425 . S
C984 C991 1.409 . S
C985 H977 0.930 . S
C985 C983 1.419 . S
C985 C986 1.362 . S
C986 H978 0.930 . S
C986 C985 1.362 . S
C986 C989 1.409 . S
C987 H979 0.930 . S
C987 C988 1.355 . S
C987 C989 1.415 . S
C988 C987 1.355 . S
C988 C990 1.419 . S
C989 C984 1.425 . S
C989 C986 1.409 . S
C989 C987 1.415 . S
C990 H980 0.930 . S
C990 C988 1.419 . S
C990 C991 1.362 . S
C991 H981 0.930 . S
C991 C984 1.409 . S
C991 C990 1.362 . S
H992 C998 0.930 . S
H993 C1001 0.930 . S
H994 C1002 0.930 . S
H995 C1003 0.930 . S
H996 C1006 0.930 . S
H997 C1007 0.930 . S
C998 H992 0.930 . S
C998 C999 1.355 . S
C998 C1000 1.415 . S
C999 C998 1.355 . S
C999 C1001 1.419 . S
C1000 C998 1.415 . S
C1000 C1005 1.425 . S
C1000 C1007 1.409 . S
C1001 H993 0.930 . S
C1001 C999 1.419 . S
C1001 C1002 1.362 . S
C1002 H994 0.930 . S
C1002 C1001 1.362 . S
C1002 C1005 1.409 . S
C1003 H995 0.930 . S
C1003 C1004 1.355 . S
C1003 C1005 1.415 . S
C1004 C1003 1.355 . S
C1004 C1006 1.419 . S
C1005 C1000 1.425 . S
C1005 C1002 1.409 . S
C1005 C1003 1.415 . S
C1006 H996 0.930 . S
C1006 C1004 1.419 . S
C1006 C1007 1.362 . S
C1007 H997 0.930 . S
C1007 C1000 1.409 . S
C1007 C1006 1.362 . S
H1008 C1014 0.930 . S
H1009 C1017 0.930 . S
H1010 C1018 0.930 . S
H1011 C1019 0.930 . S
H1012 C1022 0.930 . S
H1013 C1023 0.930 . S
C1014 H1008 0.930 . S
C1014 C1015 1.355 . S
C1014 C1016 1.415 . S
C1015 C1014 1.355 . S
C1015 C1017 1.419 . S
C1016 C1014 1.415 . S
C1016 C1021 1.425 . S
C1016 C1023 1.409 . S
C1017 H1009 0.930 . S
C1017 C1015 1.419 . S
C1017 C1018 1.362 . S
C1018 H1010 0.930 . S
C1018 C1017 1.362 . S
C1018 C1021 1.409 . S
C1019 H1011 0.930 . S
C1019 C1020 1.355 . S
C1019 C1021 1.415 . S
C1020 C1019 1.355 . S
C1020 C1022 1.419 . S
C1021 C1016 1.425 . S
C1021 C1018 1.409 . S
C1021 C1019 1.415 . S
C1022 H1012 0.930 . S
C1022 C1020 1.419 . S
C1022 C1023 1.362 . S
C1023 H1013 0.930 . S
C1023 C1016 1.409 . S
C1023 C1022 1.362 . S
H1024 C1030 0.930 . S
H1025 C1033 0.930 . S
H1026 C1034 0.930 . S
H1027 C1035 0.930 . S
H1028 C1038 0.930 . S
H1029 C1039 0.930 . S
C1030 H1024 0.930 . S
C1030 C1031 1.355 . S
C1030 C1032 1.415 . S
C1031 C1030 1.355 . S
C1031 C1033 1.419 . S
C1032 C1030 1.415 . S
C1032 C1037 1.425 . S
C1032 C1039 1.409 . S
C1033 H1025 0.930 . S
C1033 C1031 1.419 . S
C1033 C1034 1.362 . S
C1034 H1026 0.930 . S
C1034 C1033 1.362 . S
C1034 C1037 1.409 . S
C1035 H1027 0.930 . S
C1035 C1036 1.355 . S
C1035 C1037 1.415 . S
C1036 C1035 1.355 . S
C1036 C1038 1.419 . S
C1037 C1032 1.425 . S
C1037 C1034 1.409 . S
C1037 C1035 1.415 . S
C1038 H1028 0.930 . S
C1038 C1036 1.419 . S
C1038 C1039 1.362 . S
C1039 H1029 0.930 . S
C1039 C1032 1.409 . S
C1039 C1038 1.362 . S
H1040 C1046 0.930 . S
H1041 C1049 0.930 . S
H1042 C1050 0.930 . S
H1043 C1051 0.930 . S
H1044 C1054 0.930 . S
H1045 C1055 0.930 . S
C1046 H1040 0.930 . S
C1046 C1047 1.355 . S
C1046 C1048 1.415 . S
C1047 C1046 1.355 . S
C1047 C1049 1.419 . S
C1048 C1046 1.415 . S
C1048 C1053 1.425 . S
C1048 C1055 1.409 . S
C1049 H1041 0.930 . S
C1049 C1047 1.419 . S
C1049 C1050 1.362 . S
C1050 H1042 0.930 . S
C1050 C1049 1.362 . S
C1050 C1053 1.409 . S
C1051 H1043 0.930 . S
C1051 C1052 1.355 . S
C1051 C1053 1.415 . S
C1052 C1051 1.355 . S
C1052 C1054 1.419 . S
C1053 C1048 1.425 . S
C1053 C1050 1.409 . S
C1053 C1051 1.415 . S
C1054 H1044 0.930 . S
C1054 C1052 1.419 . S
C1054 C1055 1.362 . S
C1055 H1045 0.930 . S
C1055 C1048 1.409 . S
C1055 C1054 1.362 . S
C487 C17 1.205 . S
C492 C337 1.163 . S
C503 C57 1.230 . S
C508 C377 1.221 . S
C519 C97 1.141 . S
C524 C417 1.145 . S
C535 C457 1.225 . S
C540 C137 1.192 . S
C551 C177 1.155 . S
C556 C257 1.196 . S
C567 C297 1.163 . S
C572 C217 1.205 . S
C583 C429 1.852 . S
C588 C29 1.852 . S
C599 C469 1.758 . S
C604 C69 1.750 . S
C615 C109 1.826 . S
C620 C269 1.801 . S
C631 C309 1.768 . S
C636 C149 1.753 . S
C647 C349 1.822 . S
C652 C189 1.843 . S
C663 C229 1.752 . S
C668 C389 1.751 . S
C679 C292 4.378 . S
C684 C12 4.371 . S
C695 C332 4.376 . S
C700 C52 4.372 . S
C711 C372 4.374 . S
C716 C92 4.384 . S
C727 C132 4.378 . S
C732 C412 4.383 . S
C743 C172 4.377 . S
C748 C452 4.372 . S
C759 C212 4.372 . S
C764 C252 4.377 . S
C775 C2 0.729 . S
C780 C122 0.685 . S
C791 C42 0.752 . S
C796 C162 0.828 . S
C807 C82 0.729 . S
C812 C202 0.685 . S
C823 C362 0.777 . S
C828 C242 0.697 . S
C839 C282 0.690 . S
C844 C402 0.762 . S
C855 C442 0.764 . S
C860 C322 0.834 . S
C871 C288 0.883 . S
C876 C8 0.862 . S
C887 C328 0.820 . S
C892 C48 0.857 . S
C903 C88 0.775 . S
C908 C368 0.729 . S
C919 C408 0.774 . S
C924 C128 0.728 . S
C935 C448 0.810 . S
C940 C168 0.849 . S
C951 C208 0.875 . S
C956 C248 0.887 . S
C967 C31 4.627 . S
C972 C431 4.624 . S
C983 C71 4.630 . S
C988 C471 4.634 1_556 S
C999 C111 4.637 1_554 S
C1004 C271 4.625 . S
C1015 C151 4.623 . S
C1020 C311 4.628 . S
C1031 C191 4.622 . S
C1036 C351 4.631 1_556 S
C1047 C391 4.631 . S
C1052 C231 4.633 1_554 S
