# Generated by pormake.
# Topology wna, (6)-cn, num edge types: 1
# Building blocks:
#     Node 0, Type 0, BuildingBlock: KUMBOL_clean_sbu_1, # of connection points: 6
#     Node 1, Type 0, BuildingBlock: KUMBOL_clean_sbu_1, # of connection points: 6
#     Node 2, Type 0, BuildingBlock: KUMBOL_clean_sbu_1, # of connection points: 6
#     Node 3, Type 0, BuildingBlock: KUMBOL_clean_sbu_1, # of connection points: 6
#     Node 4, Type 0, BuildingBlock: KUMBOL_clean_sbu_1, # of connection points: 6
#     Node 5, Type 0, BuildingBlock: KUMBOL_clean_sbu_1, # of connection points: 6
#     Node 6, Type 0, BuildingBlock: KUMBOL_clean_sbu_1, # of connection points: 6
#     Node 7, Type 0, BuildingBlock: KUMBOL_clean_sbu_1, # of connection points: 6
#     Node 8, Type 0, BuildingBlock: KUMBOL_clean_sbu_1, # of connection points: 6
#     Node 9, Type 0, BuildingBlock: KUMBOL_clean_sbu_1, # of connection points: 6
#     Node 10, Type 0, BuildingBlock: KUMBOL_clean_sbu_1, # of connection points: 6
#     Node 11, Type 0, BuildingBlock: KUMBOL_clean_sbu_1, # of connection points: 6
#     Node 12, Type 0, BuildingBlock: KUMBOL_clean_sbu_1, # of connection points: 6
#     Node 13, Type 0, BuildingBlock: KUMBOL_clean_sbu_1, # of connection points: 6
#     Node 14, Type 0, BuildingBlock: KUMBOL_clean_sbu_1, # of connection points: 6
#     Node 15, Type 0, BuildingBlock: KUMBOL_clean_sbu_1, # of connection points: 6
#     Node 16, Type 0, BuildingBlock: KUMBOL_clean_sbu_1, # of connection points: 6
#     Node 17, Type 0, BuildingBlock: KUMBOL_clean_sbu_1, # of connection points: 6
#     Node 18, Type 0, BuildingBlock: KUMBOL_clean_sbu_1, # of connection points: 6
#     Node 19, Type 0, BuildingBlock: KUMBOL_clean_sbu_1, # of connection points: 6
#     Node 20, Type 0, BuildingBlock: KUMBOL_clean_sbu_1, # of connection points: 6
#     Node 21, Type 0, BuildingBlock: KUMBOL_clean_sbu_1, # of connection points: 6
#     Node 22, Type 0, BuildingBlock: KUMBOL_clean_sbu_1, # of connection points: 6
#     Node 23, Type 0, BuildingBlock: KUMBOL_clean_sbu_1, # of connection points: 6
#     Node 24, Type 0, BuildingBlock: KUMBOL_clean_sbu_1, # of connection points: 6
#     Node 25, Type 0, BuildingBlock: KUMBOL_clean_sbu_1, # of connection points: 6
#     Node 26, Type 0, BuildingBlock: KUMBOL_clean_sbu_1, # of connection points: 6
#     Node 27, Type 0, BuildingBlock: KUMBOL_clean_sbu_1, # of connection points: 6
#     Node 28, Type 0, BuildingBlock: KUMBOL_clean_sbu_1, # of connection points: 6
#     Node 29, Type 0, BuildingBlock: KUMBOL_clean_sbu_1, # of connection points: 6
#     Node 30, Type 0, BuildingBlock: KUMBOL_clean_sbu_1, # of connection points: 6
#     Node 31, Type 0, BuildingBlock: KUMBOL_clean_sbu_1, # of connection points: 6
#     Node 32, Type 0, BuildingBlock: KUMBOL_clean_sbu_1, # of connection points: 6
#     Node 33, Type 0, BuildingBlock: KUMBOL_clean_sbu_1, # of connection points: 6
#     Node 34, Type 0, BuildingBlock: KUMBOL_clean_sbu_1, # of connection points: 6
#     Node 35, Type 0, BuildingBlock: KUMBOL_clean_sbu_1, # of connection points: 6
#     Edge 36, Type (0, 0), None
#     Edge 37, Type (0, 0), None
#     Edge 38, Type (0, 0), None
#     Edge 39, Type (0, 0), None
#     Edge 40, Type (0, 0), None
#     Edge 41, Type (0, 0), None
#     Edge 42, Type (0, 0), None
#     Edge 43, Type (0, 0), None
#     Edge 44, Type (0, 0), None
#     Edge 45, Type (0, 0), None
#     Edge 46, Type (0, 0), None
#     Edge 47, Type (0, 0), None
#     Edge 48, Type (0, 0), None
#     Edge 49, Type (0, 0), None
#     Edge 50, Type (0, 0), None
#     Edge 51, Type (0, 0), None
#     Edge 52, Type (0, 0), None
#     Edge 53, Type (0, 0), None
#     Edge 54, Type (0, 0), None
#     Edge 55, Type (0, 0), None
#     Edge 56, Type (0, 0), None
#     Edge 57, Type (0, 0), None
#     Edge 58, Type (0, 0), None
#     Edge 59, Type (0, 0), None
#     Edge 60, Type (0, 0), None
#     Edge 61, Type (0, 0), None
#     Edge 62, Type (0, 0), None
#     Edge 63, Type (0, 0), None
#     Edge 64, Type (0, 0), None
#     Edge 65, Type (0, 0), None
#     Edge 66, Type (0, 0), None
#     Edge 67, Type (0, 0), None
#     Edge 68, Type (0, 0), None
#     Edge 69, Type (0, 0), None
#     Edge 70, Type (0, 0), None
#     Edge 71, Type (0, 0), None
#     Edge 72, Type (0, 0), None
#     Edge 73, Type (0, 0), None
#     Edge 74, Type (0, 0), None
#     Edge 75, Type (0, 0), None
#     Edge 76, Type (0, 0), None
#     Edge 77, Type (0, 0), None
#     Edge 78, Type (0, 0), None
#     Edge 79, Type (0, 0), None
#     Edge 80, Type (0, 0), None
#     Edge 81, Type (0, 0), None
#     Edge 82, Type (0, 0), None
#     Edge 83, Type (0, 0), None
#     Edge 84, Type (0, 0), None
#     Edge 85, Type (0, 0), None
#     Edge 86, Type (0, 0), None
#     Edge 87, Type (0, 0), None
#     Edge 88, Type (0, 0), None
#     Edge 89, Type (0, 0), None
#     Edge 90, Type (0, 0), None
#     Edge 91, Type (0, 0), None
#     Edge 92, Type (0, 0), None
#     Edge 93, Type (0, 0), None
#     Edge 94, Type (0, 0), None
#     Edge 95, Type (0, 0), None
#     Edge 96, Type (0, 0), None
#     Edge 97, Type (0, 0), None
#     Edge 98, Type (0, 0), None
#     Edge 99, Type (0, 0), None
#     Edge 100, Type (0, 0), None
#     Edge 101, Type (0, 0), None
#     Edge 102, Type (0, 0), None
#     Edge 103, Type (0, 0), None
#     Edge 104, Type (0, 0), None
#     Edge 105, Type (0, 0), None
#     Edge 106, Type (0, 0), None
#     Edge 107, Type (0, 0), None
#     Edge 108, Type (0, 0), None
#     Edge 109, Type (0, 0), None
#     Edge 110, Type (0, 0), None
#     Edge 111, Type (0, 0), None
#     Edge 112, Type (0, 0), None
#     Edge 113, Type (0, 0), None
#     Edge 114, Type (0, 0), None
#     Edge 115, Type (0, 0), None
#     Edge 116, Type (0, 0), None
#     Edge 117, Type (0, 0), None
#     Edge 118, Type (0, 0), None
#     Edge 119, Type (0, 0), None
#     Edge 120, Type (0, 0), None
#     Edge 121, Type (0, 0), None
#     Edge 122, Type (0, 0), None
#     Edge 123, Type (0, 0), None
#     Edge 124, Type (0, 0), None
#     Edge 125, Type (0, 0), None
#     Edge 126, Type (0, 0), None
#     Edge 127, Type (0, 0), None
#     Edge 128, Type (0, 0), None
#     Edge 129, Type (0, 0), None
#     Edge 130, Type (0, 0), None
#     Edge 131, Type (0, 0), None
#     Edge 132, Type (0, 0), None
#     Edge 133, Type (0, 0), None
#     Edge 134, Type (0, 0), None
#     Edge 135, Type (0, 0), None
#     Edge 136, Type (0, 0), None
#     Edge 137, Type (0, 0), None
#     Edge 138, Type (0, 0), None
#     Edge 139, Type (0, 0), None
#     Edge 140, Type (0, 0), None
#     Edge 141, Type (0, 0), None
#     Edge 142, Type (0, 0), None
#     Edge 143, Type (0, 0), None
# Relax obj value: 0.146
# Max RMSD: 0.268
# Mean RMSD: 0.239
data_MOF--net-wna--node1-KUMBOL_clean_sbu_1--edge1-none
_symmetry_space_group_name_H-M    P1
_symmetry_Int_Tables_number       1
_symmetry_cell_setting            triclinic
loop_
_symmetry_equiv_pos_as_xyz
'x, y, z'
_cell_length_a     19.307532
_cell_length_b     19.303822
_cell_length_c     99.389991
_cell_angle_alpha  89.969268
_cell_angle_beta   90.005574
_cell_angle_gamma 119.99748
loop_
_atom_site_label
_atom_site_type_symbol
_atom_site_fract_x
_atom_site_fract_y
_atom_site_fract_z
_atom_type_partial_charge
C0 C 0.99027 0.05855 0.12848 0.0
C1 C 0.92092 0.1268 0.11026 0.0
C2 C 0.96759 0.13273 0.12392 0.0
C3 C 0.89189 0.05977 0.09775 0.0
C4 C 0.92594 0.94006 0.10818 0.0
C5 C 0.88862 0.97165 0.09642 0.0
N6 N 0.06578 0.06203 0.14556 0.0
C7 C 0.11314 0.00539 0.1482 0.0
C8 C -0.00389 0.86983 0.11981 0.0
C9 C 0.06784 0.89549 0.13462 0.0
Gd10 Gd 0.10689 0.2467 0.19421 0.0
Gd11 Gd 0.09415 0.21544 0.15378 0.0
N12 N 0.98665 0.19885 0.13328 0.0
C13 C 0.86613 0.1493 0.11378 0.0
C14 C 0.93034 0.22265 0.1349 0.0
C15 C 0.86649 0.18909 0.12575 0.0
H16 H 0.98833 0.23078 0.13677 0.0
H17 H 0.81368 0.192 0.12833 0.0
H18 H 0.17165 0.16801 0.21732 0.0
H19 H 0.16945 0.03346 0.15353 0.0
H20 H 0.23803 0.21195 0.23966 0.0
H21 H 0.81048 0.10957 0.10959 0.0
H22 H 0.8782 0.08123 0.0888 0.0
H23 H 0.16056 0.42133 0.17622 0.0
H24 H -0.00128 0.85057 0.12984 0.0
H25 H 0.11054 0.8847 0.12988 0.0
H26 H 0.3421 0.49027 0.24089 0.0
H27 H 0.87203 0.94085 0.0869 0.0
H28 H 0.25744 0.6023 0.20621 0.0
H29 H 0.20215 0.55885 0.18348 0.0
N30 N 0.18769 0.38796 0.19508 0.0
C31 C 0.2304 0.41611 0.20671 0.0
C32 C 0.18534 0.44041 0.18613 0.0
C33 C 0.24389 0.54464 0.20274 0.0
C34 C 0.21039 0.5189 0.19006 0.0
C35 C 0.26029 0.49576 0.21083 0.0
H36 H 0.32266 0.58319 0.22662 0.0
N37 N 0.20109 0.28528 0.21161 0.0
C38 C 0.23882 0.36366 0.21506 0.0
C39 C 0.28021 0.33444 0.23622 0.0
C40 C 0.27951 0.39021 0.22747 0.0
C41 C 0.20329 0.23071 0.21998 0.0
C42 C 0.23971 0.25453 0.23263 0.0
O43 O 0.0271 0.13762 0.17231 0.0
O44 O 0.97358 0.1592 0.18906 0.0
O45 O 0.04082 0.15752 0.20911 0.0
O46 O 0.06831 0.28021 0.21244 0.0
O47 O 0.02246 0.27879 0.16196 0.0
O48 O 0.03948 0.30677 0.18484 0.0
O49 O 0.23393 0.28302 0.18603 0.0
O50 O 0.22564 0.28519 0.16262 0.0
O51 O 0.13275 0.32917 0.14225 0.0
O52 O 0.21786 0.29022 0.14519 0.0
O53 O 0.13447 0.14379 0.18796 0.0
O54 O 0.12943 0.12817 0.16431 0.0
C55 C 0.95891 0.11772 0.17814 0.0
C56 C 0.01091 0.31265 0.17299 0.0
C57 C 0.05074 0.2012 0.23207 0.0
C58 C 0.94744 0.06277 0.24856 0.0
C59 C 0.97777 0.21974 0.25701 0.0
C60 C 0.02482 0.25244 0.2424 0.0
C61 C 0.94228 0.08319 0.26467 0.0
C62 C 0.03198 0.10992 0.23501 0.0
C63 C 0.03796 0.20865 0.21741 0.0
C64 C 0.31188 0.47003 0.23133 0.0
C65 C 0.30075 0.52252 0.22318 0.0
H66 H 0.30895 0.35185 0.24598 0.0
C67 C 0.26903 0.30047 0.17396 0.0
C68 C 0.141 0.10762 0.17676 0.0
C69 C 0.22978 0.35775 0.12348 0.0
C70 C 0.22683 0.35269 0.09751 0.0
C71 C 0.35049 0.43218 0.11023 0.0
C72 C 0.31193 0.40806 0.12249 0.0
C73 C 0.30858 0.40616 0.09821 0.0
C74 C 0.18614 0.32711 0.1106 0.0
C75 C 0.20216 0.3393 0.13851 0.0
H76 H 0.93671 0.24255 0.25743 0.0
H77 H 0.07937 0.25649 0.23887 0.0
H78 H 0.97081 0.05945 0.27189 0.0
H79 H 0.03788 0.07437 0.22724 0.0
H80 H 0.41492 0.46829 0.11002 0.0
H81 H 0.34751 0.42656 0.13151 0.0
H82 H 0.34187 0.41984 0.08899 0.0
H83 H 0.12315 0.28321 0.11057 0.0
C84 C 0.9335 0.93043 0.12848 0.0
C85 C 0.86531 0.79285 0.11028 0.0
C86 C 0.85935 0.83356 0.12393 0.0
C87 C 0.93237 0.83088 0.09776 0.0
C88 C 0.05202 0.9846 0.10818 0.0
C89 C 0.02047 0.91571 0.09643 0.0
N90 N 0.92997 0.00242 0.14556 0.0
C91 C 0.98659 0.10641 0.14819 0.0
C92 C 0.1222 0.125 0.1198 0.0
C93 C 0.0965 0.17104 0.13461 0.0
Gd94 Gd 0.74526 0.85882 0.19419 0.0
Gd95 Gd 0.77658 0.87744 0.15379 0.0
N96 N 0.79319 0.7865 0.13329 0.0
C97 C 0.84265 0.71549 0.11379 0.0
C98 C 0.76931 0.70634 0.13491 0.0
C99 C 0.80282 0.67603 0.12575 0.0
H100 H 0.76124 0.75624 0.13678 0.0
H101 H 0.79985 0.62025 0.12833 0.0
H102 H 0.8239 0.00224 0.21729 0.0
H103 H 0.95854 0.13465 0.15352 0.0
H104 H 0.77997 0.02461 0.23963 0.0
H105 H 0.88223 0.69945 0.10957 0.0
H106 H 0.91095 0.79575 0.08881 0.0
H107 H 0.5707 0.73806 0.17621 0.0
H108 H 0.14138 0.14685 0.12983 0.0
H109 H 0.10731 0.22459 0.12989 0.0
H110 H 0.50161 0.85035 0.24089 0.0
H111 H 0.05128 0.92994 0.0869 0.0
H112 H 0.38966 0.6539 0.2062 0.0
H113 H 0.43317 0.64216 0.18347 0.0
N114 N 0.60403 0.79843 0.19507 0.0
C115 C 0.57587 0.81295 0.2067 0.0
C116 C 0.5516 0.74371 0.18612 0.0
C117 C 0.44734 0.698 0.20274 0.0
C118 C 0.4731 0.69029 0.19005 0.0
C119 C 0.4962 0.76322 0.21082 0.0
H120 H 0.40876 0.73813 0.22662 0.0
N121 N 0.70667 0.91439 0.2116 0.0
C122 C 0.6283 0.87376 0.21505 0.0
C123 C 0.65748 0.94431 0.23621 0.0
C124 C 0.60173 0.88788 0.22746 0.0
C125 C 0.76121 0.97115 0.21996 0.0
C126 C 0.73739 0.98373 0.23261 0.0
O127 O 0.85442 0.88817 0.17231 0.0
O128 O 0.83261 0.81285 0.18904 0.0
O129 O 0.83448 0.88196 0.20907 0.0
O130 O 0.71183 0.78666 0.21241 0.0
O131 O 0.71323 0.74237 0.16195 0.0
O132 O 0.68513 0.73136 0.18482 0.0
O133 O 0.709 0.94963 0.18603 0.0
O134 O 0.70676 0.93913 0.16262 0.0
O135 O 0.6629 0.80233 0.14226 0.0
O136 O 0.70184 0.92641 0.14518 0.0
O137 O 0.84817 0.98933 0.18794 0.0
O138 O 0.86385 5e-05 0.16429 0.0
C139 C 0.87419 0.83975 0.17814 0.0
C140 C 0.67928 0.69693 0.17297 0.0
C141 C 0.79075 0.84803 0.23203 0.0
C142 C 0.92905 0.88347 0.24856 0.0
C143 C 0.77213 0.75636 0.25694 0.0
C144 C 0.73958 0.77073 0.24233 0.0
C145 C 0.90841 0.85766 0.26466 0.0
C146 C 0.88186 0.92073 0.23498 0.0
C147 C 0.78338 0.8279 0.21737 0.0
C148 C 0.5219 0.84045 0.23132 0.0
C149 C 0.46943 0.77688 0.22318 0.0
H150 H 0.64006 0.95563 0.24597 0.0
C151 C 0.6915 0.96725 0.17396 0.0
C152 C 0.88438 0.03212 0.17674 0.0
C153 C 0.6343 0.87074 0.12348 0.0
C154 C 0.6393 0.87273 0.09751 0.0
C155 C 0.55977 0.91688 0.11022 0.0
C156 C 0.58393 0.90251 0.12248 0.0
C157 C 0.5858 0.90098 0.0982 0.0
C158 C 0.66493 0.8577 0.1106 0.0
C159 C 0.65277 0.86162 0.13851 0.0
H160 H 0.74941 0.69251 0.2574 0.0
H161 H 0.7351 0.82107 0.23883 0.0
H162 H 0.93185 0.90986 0.27189 0.0
H163 H 0.9174 0.96226 0.22722 0.0
H164 H 0.5236 0.94516 0.11001 0.0
H165 H 0.5654 0.91958 0.1315 0.0
H166 H 0.57209 0.92055 0.08897 0.0
H167 H 0.70886 0.83865 0.11057 0.0
C168 C 0.0616 0.00176 0.12848 0.0
C169 C 0.1992 0.07116 0.11027 0.0
C170 C 0.15845 0.02446 0.12393 0.0
C171 C 0.16121 0.10022 0.09776 0.0
C172 C 0.00748 0.06616 0.10818 0.0
C173 C 0.07639 0.10351 0.09642 0.0
N174 N 0.98958 0.9262 0.14557 0.0
C175 C 0.88558 0.87883 0.1482 0.0
C176 C 0.86708 0.99594 0.1198 0.0
C177 C 0.82101 0.92417 0.13461 0.0
Gd178 Gd 0.13303 0.88496 0.19418 0.0
Gd179 Gd 0.11453 0.89776 0.1538 0.0
N180 N 0.20549 0.00533 0.13329 0.0
C181 C 0.27649 0.1259 0.11379 0.0
C182 C 0.28561 0.0616 0.13491 0.0
C183 C 0.31593 0.12548 0.12575 0.0
H184 H 0.23572 0.00362 0.13678 0.0
H185 H 0.37166 0.17827 0.12833 0.0
H186 H 0.9896 0.82018 0.21729 0.0
H187 H 0.85732 0.8225 0.15353 0.0
H188 H 0.96718 0.75382 0.23964 0.0
H189 H 0.29245 0.18157 0.10959 0.0
H190 H 0.19629 0.11379 0.0888 0.0
H191 H 0.25387 0.83123 0.1762 0.0
H192 H 0.84521 0.99328 0.12983 0.0
H193 H 0.76749 0.88146 0.12989 0.0
H194 H 0.14147 0.64978 0.2409 0.0
H195 H 0.06218 0.12007 0.08689 0.0
H196 H 0.3381 0.73451 0.20622 0.0
H197 H 0.34985 0.78972 0.18347 0.0
N198 N 0.19346 0.80416 0.19507 0.0
C199 C 0.17895 0.76149 0.20671 0.0
C200 C 0.24821 0.80648 0.18612 0.0
C201 C 0.29398 0.74804 0.20275 0.0
C202 C 0.30168 0.78148 0.19006 0.0
C203 C 0.22872 0.73161 0.21083 0.0
H204 H 0.25378 0.66924 0.22664 0.0
N205 N 0.07746 0.79081 0.21159 0.0
C206 C 0.11812 0.75309 0.21505 0.0
C207 C 0.04751 0.71166 0.23621 0.0
C208 C 0.10398 0.71238 0.22747 0.0
C209 C 0.02068 0.78857 0.21996 0.0
C210 C 0.00807 0.75214 0.23261 0.0
O211 O 0.10334 0.96493 0.17229 0.0
O212 O 0.17912 0.01828 0.189 0.0
O213 O 0.10979 0.95102 0.20905 0.0
O214 O 0.20513 0.92374 0.21239 0.0
O215 O 0.24958 0.96949 0.16196 0.0
O216 O 0.26054 0.95235 0.18483 0.0
O217 O 0.04226 0.75791 0.18602 0.0
O218 O 0.05285 0.76623 0.16262 0.0
O219 O 0.18959 0.85917 0.14226 0.0
O220 O 0.06554 0.77405 0.14519 0.0
O221 O 0.00252 0.85735 0.18795 0.0
O222 O 0.99185 0.86229 0.16429 0.0
C223 C 0.15182 0.03295 0.17814 0.0
C224 C 0.29501 0.98099 0.17298 0.0
C225 C 0.14372 0.94121 0.232 0.0
C226 C 0.1084 0.04414 0.24852 0.0
C227 C 0.23544 0.01421 0.25689 0.0
C228 C 0.22102 0.96728 0.24229 0.0
C229 C 0.1342 0.0493 0.26462 0.0
C230 C 0.07107 0.95968 0.23496 0.0
C231 C 0.16385 0.95401 0.21734 0.0
C232 C 0.15142 0.68 0.23133 0.0
C233 C 0.21503 0.69115 0.22319 0.0
H234 H 0.03619 0.68291 0.24598 0.0
C235 C 0.02467 0.72283 0.17396 0.0
C236 C 0.95975 0.85074 0.17674 0.0
C237 C 0.1212 0.76216 0.12348 0.0
C238 C 0.11926 0.76515 0.09752 0.0
C239 C 0.07512 0.64147 0.11024 0.0
C240 C 0.08944 0.68001 0.1225 0.0
C241 C 0.09107 0.6834 0.09822 0.0
C242 C 0.13424 0.80582 0.1106 0.0
C243 C 0.13032 0.78977 0.13852 0.0
H244 H 0.29929 0.05526 0.25735 0.0
H245 H 0.17066 0.91246 0.2388 0.0
H246 H 0.082 0.02055 0.27186 0.0
H247 H 0.02955 0.95375 0.22721 0.0
H248 H 0.04685 0.57703 0.11004 0.0
H249 H 0.07233 0.64441 0.13152 0.0
H250 H 0.07153 0.6501 0.089 0.0
H251 H 0.15326 0.8688 0.11056 0.0
C252 C 0.05795 0.99127 0.38541 0.0
C253 C 0.1278 0.92315 0.40363 0.0
C254 C 0.1325 0.96883 0.38989 0.0
C255 C 0.06157 0.89434 0.41624 0.0
C256 C 0.94139 0.92752 0.40594 0.0
C257 C 0.97379 0.89117 0.4177 0.0
N258 N 0.06017 0.06636 0.3683 0.0
C259 C 0.00326 0.11408 0.36586 0.0
C260 C 0.87011 -0.00244 0.39459 0.0
C261 C 0.89426 0.06842 0.37983 0.0
Gd262 Gd 0.23712 0.10027 0.31891 0.0
Gd263 Gd 0.21423 0.09289 0.36029 0.0
N264 N 0.19799 0.98751 0.38052 0.0
C265 C 0.15208 0.86967 0.4004 0.0
C266 C 0.22224 0.93146 0.37899 0.0
C267 C 0.19047 0.86886 0.38837 0.0
H268 H 0.22981 0.98897 0.37696 0.0
H269 H 0.19346 0.81598 0.38592 0.0
H270 H 0.16387 0.17367 0.29608 0.0
H271 H 0.03332 0.17147 0.36091 0.0
H272 H 0.21417 0.24997 0.27469 0.0
H273 H 0.11355 0.81484 0.40488 0.0
H274 H 0.08335 0.8804 0.42516 0.0
H275 H 0.41017 0.15033 0.33764 0.0
H276 H 0.8468 0.99614 0.38463 0.0
H277 H 0.88448 0.10945 0.38543 0.0
H278 H 0.49242 0.35383 0.27514 0.0
H279 H 0.94388 0.87552 0.4273 0.0
H280 H 0.59804 0.25645 0.3089 0.0
H281 H 0.54843 0.19263 0.33093 0.0
N282 N 0.37882 0.17878 0.31871 0.0
C283 C 0.40918 0.22521 0.30754 0.0
C284 C 0.42997 0.17474 0.32775 0.0
C285 C 0.53783 0.23829 0.31181 0.0
C286 C 0.50932 0.20103 0.32417 0.0
C287 C 0.48963 0.25583 0.30373 0.0
H288 H 0.57994 0.32351 0.28864 0.0
N289 N 0.27975 0.2014 0.30257 0.0
C290 C 0.35928 0.24058 0.2997 0.0
C291 C 0.33668 0.29748 0.27963 0.0
C292 C 0.38979 0.28987 0.28815 0.0
C293 C 0.22747 0.20775 0.29416 0.0
C294 C 0.25528 0.25222 0.28221 0.0
O295 O 0.17074 0.02037 0.34124 0.0
O296 O 0.12048 0.98351 0.3224 0.0
O297 O 0.15598 0.0463 0.30185 0.0
O298 O 0.26317 0.03835 0.30334 0.0
O299 O 0.27978 0.02297 0.3519 0.0
O300 O 0.29456 0.02906 0.32857 0.0
O301 O 0.27624 0.22944 0.32708 0.0
O302 O 0.27799 0.22296 0.35066 0.0
O303 O 0.32493 0.12819 0.37264 0.0
O304 O 0.29397 0.21706 0.36783 0.0
O305 O 0.13518 0.12033 0.32753 0.0
O306 O 0.1184 0.11952 0.35103 0.0
C307 C 0.10647 0.96383 0.3348 0.0
C308 C 0.3071 0.00557 0.34055 0.0
C309 C 0.20053 0.01107 0.28131 0.0
C310 C 0.19445 0.1074 0.25922 0.0
C311 C 0.10378 0.9303 0.25651 0.0
C312 C 0.12896 0.92923 0.27265 0.0
C313 C 0.17251 0.06109 0.24457 0.0
C314 C 0.25029 0.10152 0.27477 0.0
C315 C 0.19765 0.01674 0.2967 0.0
C316 C 0.46959 0.31993 0.28434 0.0
C317 C 0.51905 0.30171 0.29196 0.0
H318 H 0.35686 0.33128 0.27034 0.0
C319 C 0.29311 0.26554 0.33918 0.0
C320 C 0.09665 0.12561 0.33846 0.0
C321 C 0.34981 0.22859 0.3904 0.0
C322 C 0.35275 0.22609 0.41623 0.0
C323 C 0.41083 0.34965 0.40359 0.0
C324 C 0.38684 0.31155 0.3913 0.0
C325 C 0.41063 0.30546 0.41459 0.0
C326 C 0.32384 0.18419 0.40334 0.0
C327 C 0.33798 0.19955 0.37553 0.0
H328 H 0.06467 0.87074 0.25252 0.0
H329 H 0.18409 0.95979 0.27719 0.0
H330 H 0.21629 0.08391 0.23582 0.0
H331 H 0.30198 0.14909 0.27918 0.0
H332 H 0.4472 0.41418 0.40377 0.0
H333 H 0.40084 0.34719 0.3823 0.0
H334 H 0.46559 0.30677 0.41327 0.0
H335 H 0.2831 0.12036 0.40351 0.0
C336 C 0.0015 0.06295 0.38553 0.0
C337 C 0.0716 0.20043 0.40379 0.0
C338 C 0.02448 0.15982 0.39016 0.0
C339 C 0.10207 0.16297 0.41615 0.0
C340 C 0.06745 0.00937 0.4057 0.0
C341 C 0.1054 0.07837 0.41741 0.0
N342 N 0.92453 0.99061 0.36862 0.0
C343 C 0.87681 0.88634 0.36607 0.0
C344 C -0.00356 0.86846 0.39423 0.0
C345 C 0.92375 0.82228 0.37961 0.0
Gd346 Gd 0.8906 0.13537 0.31907 0.0
Gd347 Gd 0.89652 0.11814 0.36107 0.0
N348 N 0.0042 0.20668 0.38104 0.0
C349 C 0.12388 0.27851 0.4006 0.0
C350 C 0.05911 0.28719 0.37953 0.0
C351 C 0.12249 0.31817 0.38872 0.0
H352 H 0.00194 0.23673 0.37758 0.0
H353 H 0.17393 0.37458 0.38609 0.0
H354 H 0.81799 0.9887 0.29625 0.0
H355 H 0.81934 0.8591 0.36116 0.0
H356 H 0.74234 0.9628 0.27479 0.0
H357 H 0.17892 0.29578 0.4052 0.0
H358 H 0.11695 0.19855 0.42505 0.0
H359 H 0.84062 0.25889 0.33761 0.0
H360 H 0.99505 0.84681 0.38418 0.0
H361 H 0.88254 0.7703 0.38487 0.0
H362 H 0.63788 0.13667 0.27509 0.0
H363 H 0.12225 0.06445 0.42691 0.0
H364 H 0.73444 0.33983 0.30876 0.0
H365 H 0.79832 0.35464 0.33079 0.0
N366 N 0.81225 0.19865 0.31873 0.0
C367 C 0.76589 0.18233 0.30756 0.0
C368 C 0.81634 0.25409 0.32771 0.0
C369 C 0.75269 0.29793 0.31171 0.0
C370 C 0.78999 0.30702 0.32408 0.0
C371 C 0.73524 0.23206 0.30369 0.0
H372 H 0.66759 0.25441 0.28856 0.0
N373 N 0.78986 0.07668 0.30268 0.0
C374 C 0.75068 0.11697 0.29975 0.0
C375 C 0.69438 0.03749 0.27967 0.0
C376 C 0.70166 0.09814 0.28817 0.0
C377 C 0.78387 0.01815 0.29429 0.0
C378 C 0.73975 0.00151 0.2823 0.0
O379 O 0.96864 0.1462 0.34176 0.0
O380 O 0.00785 0.13763 0.32268 0.0
O381 O 0.94525 0.10811 0.3021 0.0
O382 O 0.95204 0.2228 0.3034 0.0
O383 O 0.96557 0.25374 0.35233 0.0
O384 O 0.96181 0.26311 0.32892 0.0
O385 O 0.76213 0.0452 0.32737 0.0
O386 O 0.76758 0.05424 0.351 0.0
O387 O 0.86261 0.19303 0.37399 0.0
O388 O 0.77333 0.07315 0.36968 0.0
O389 O 0.87057 0.01354 0.32782 0.0
O390 O 0.86869 0.9958 0.35138 0.0
C391 C 0.02614 0.14066 0.33511 0.0
C392 C 0.98435 0.29878 0.34093 0.0
C393 C 0.98037 0.18734 0.28141 0.0
C394 C 0.88419 0.08558 0.25926 0.0
C395 C 0.06139 0.17165 0.25657 0.0
C396 C 0.06241 0.19764 0.27274 0.0
C397 C 0.93071 0.11018 0.24463 0.0
C398 C 0.89001 0.14699 0.27483 0.0
C399 C 0.97431 0.1791 0.29685 0.0
C400 C 0.67157 0.14778 0.28431 0.0
C401 C 0.68948 0.21543 0.2919 0.0
H402 H 0.66082 0.02384 0.27037 0.0
C403 C 0.72573 0.02657 0.33945 0.0
C404 C 0.86422 0.96903 0.33872 0.0
C405 C 0.76352 0.12071 0.39246 0.0
C406 C 0.76765 0.11505 0.4185 0.0
C407 C 0.64224 0.06232 0.40597 0.0
C408 C 0.68067 0.08344 0.39363 0.0
C409 C 0.68472 0.07751 0.41797 0.0
C410 C 0.80834 0.13584 0.40529 0.0
C411 C 0.79175 0.13529 0.37731 0.0
H412 H 0.12096 0.19218 0.25257 0.0
H413 H 0.03118 0.22099 0.27734 0.0
H414 H 0.9081 0.13139 0.23588 0.0
H415 H 0.8425 0.1513 0.27923 0.0
H416 H 0.57761 0.03144 0.40616 0.0
H417 H 0.64435 0.06823 0.38469 0.0
H418 H 0.65212 0.05582 0.42725 0.0
H419 H 0.87254 0.16123 0.40509 0.0
C420 C 0.92991 0.93482 0.38568 0.0
C421 C 0.79435 0.86727 0.40435 0.0
C422 C 0.83361 0.86091 0.39053 0.0
C423 C 0.83361 0.93483 0.41674 0.0
C424 C 0.98585 0.05368 0.40586 0.0
C425 C 0.91995 0.0226 0.41783 0.0
N426 N 0.00048 0.93081 0.36842 0.0
C427 C 0.10451 0.98724 0.3656 0.0
C428 C 0.12518 0.12373 0.39399 0.0
C429 C 0.16967 0.0978 0.37913 0.0
Gd430 Gd 0.85544 0.75359 0.31901 0.0
Gd431 Gd 0.87229 0.77622 0.36088 0.0
N432 N 0.78565 0.7946 0.38137 0.0
C433 C 0.7158 0.84192 0.40148 0.0
C434 C 0.70529 0.77041 0.38008 0.0
C435 C 0.67544 0.80259 0.38955 0.0
H436 H 0.75492 0.76269 0.3779 0.0
H437 H 0.61907 0.79853 0.3872 0.0
H438 H 0.00251 0.82768 0.29628 0.0
H439 H 0.13121 0.9569 0.36056 0.0
H440 H 0.02876 0.77801 0.27485 0.0
H441 H 0.69834 0.87879 0.40635 0.0
H442 H 0.79735 0.91327 0.42561 0.0
H443 H 0.7319 0.58003 0.33759 0.0
H444 H 0.14573 0.14576 0.38392 0.0
H445 H 0.22121 0.1078 0.38434 0.0
H446 H 0.85503 0.49962 0.27514 0.0
H447 H 0.94209 0.05183 0.42733 0.0
H448 H 0.65144 0.39285 0.30879 0.0
H449 H 0.63639 0.4419 0.3308 0.0
N450 N 0.79233 0.61193 0.31872 0.0
C451 C 0.80882 0.5819 0.30756 0.0
C452 C 0.73685 0.56054 0.32771 0.0
C453 C 0.69328 0.45303 0.31173 0.0
C454 C 0.68405 0.48123 0.32408 0.0
C455 C 0.7592 0.50151 0.3037 0.0
H456 H 0.73707 0.41158 0.28858 0.0
N457 N 0.91444 0.71154 0.30269 0.0
C458 C 0.87425 0.63207 0.29977 0.0
C459 C 0.9541 0.65533 0.27973 0.0
C460 C 0.89332 0.60192 0.28821 0.0
C461 C 0.97315 0.76412 0.29432 0.0
C462 C 0.98999 0.73667 0.28235 0.0
O463 O 0.84306 0.82015 0.34177 0.0
O464 O 0.85333 0.86894 0.32278 0.0
O465 O 0.88283 0.83546 0.30203 0.0
O466 O 0.76813 0.72764 0.30334 0.0
O467 O 0.73698 0.71098 0.35217 0.0
O468 O 0.72773 0.69678 0.32879 0.0
O469 O 0.94552 0.71479 0.32733 0.0
O470 O 0.93798 0.71268 0.35096 0.0
O471 O 0.79573 0.6663 0.37332 0.0
O472 O 0.91534 0.6955 0.36896 0.0
O473 O 0.97684 0.85549 0.32754 0.0
O474 O 0.99446 0.87084 0.35107 0.0
C475 C 0.84933 0.88364 0.33522 0.0
C476 C 0.69211 0.68415 0.34078 0.0
C477 C 0.80392 0.79125 0.28136 0.0
C478 C 0.90631 0.79739 0.25926 0.0
C479 C 0.81981 0.88803 0.25653 0.0
C480 C 0.79358 0.86285 0.27267 0.0
C481 C 0.88189 0.81931 0.24461 0.0
C482 C 0.84466 0.74154 0.27482 0.0
C483 C 0.81191 0.79356 0.29678 0.0
C484 C 0.84376 0.52217 0.28436 0.0
C485 C 0.776 0.47242 0.29193 0.0
H486 H 0.96792 0.63544 0.27044 0.0
C487 C 0.96509 0.69787 0.33941 0.0
C488 C 0.02123 0.89344 0.33841 0.0
C489 C 0.86601 0.63585 0.39145 0.0
C490 C 0.87108 0.6436 0.41741 0.0
C491 C 0.91904 0.56717 0.40466 0.0
C492 C 0.90094 0.58811 0.39241 0.0
C493 C 0.90365 0.59374 0.41667 0.0
C494 C 0.85274 0.66643 0.40432 0.0
C495 C 0.85254 0.65146 0.37645 0.0
H496 H 0.79932 0.92711 0.25252 0.0
H497 H 0.76958 0.80795 0.27724 0.0
H498 H 0.86097 0.77557 0.23586 0.0
H499 H 0.84034 0.68969 0.27921 0.0
H500 H 0.94909 0.5326 0.40482 0.0
H501 H 0.9172 0.56883 0.38338 0.0
H502 H 0.92576 0.58268 0.42585 0.0
H503 H 0.83108 0.70836 0.40426 0.0
C504 C 0.75988 0.57745 0.80721 0.0
C505 C 0.71078 0.60327 0.78645 0.0
C506 C 0.75149 0.62987 0.79886 0.0
C507 C 0.67833 0.52341 0.7826 0.0
C508 C 0.72998 0.49778 0.80311 0.0
C509 C 0.68946 0.47095 0.79076 0.0
N510 N 0.80258 0.60563 0.81884 0.0
C511 C 0.80493 0.5532 0.8278 0.0
C512 C 0.74642 0.44895 0.81119 0.0
C513 C 0.77992 0.47472 0.82387 0.0
Gd514 Gd 0.89613 0.77815 0.86014 0.0
Gd515 Gd 0.88338 0.74688 0.81971 0.0
N516 N 0.78926 0.70827 0.8023 0.0
C517 C 0.71015 0.65901 0.77768 0.0
C518 C 0.78711 0.7628 0.79391 0.0
C519 C 0.75073 0.73894 0.78125 0.0
H520 H 0.81876 0.82552 0.79656 0.0
H521 H 0.75247 0.7815 0.77422 0.0
H522 H 0.00222 0.76304 0.8771 0.0
H523 H 0.8297 0.57231 0.83771 0.0
H524 H 0.1768 0.80176 0.88556 0.0
H525 H 0.68141 0.64156 0.76792 0.0
H526 H 0.64808 0.50309 0.77304 0.0
H527 H 0.82099 0.96023 0.86038 0.0
H528 H 0.73289 0.39129 0.80773 0.0
H529 H 0.78818 0.4348 0.83046 0.0
H530 H 0.11193 0.91221 0.92514 0.0
H531 H 0.66751 0.41026 0.78732 0.0
H532 H 0.99006 0.14185 0.8841 0.0
H533 H 0.87919 0.1085 0.884 0.0
N534 N 0.92454 0.93155 0.86837 0.0
C535 C -1e-05 0.93498 0.88545 0.0
C536 C 0.87723 0.98823 0.86573 0.0
C537 C 0.99436 0.12379 0.89412 0.0
C538 C 0.92253 0.09815 0.87931 0.0
C539 C 0.06439 0.05348 0.90575 0.0
H540 H 0.11835 0.05273 0.92702 0.0
N541 N 0.00378 0.79475 0.88063 0.0
C542 C 0.02268 0.86077 0.89001 0.0
C543 C 0.12442 0.84462 0.9001 0.0
C544 C 0.06932 0.86666 0.90367 0.0
C545 C 0.06005 0.7709 0.87902 0.0
C546 C 0.124 0.80469 0.88815 0.0
O547 O 0.75632 0.71053 0.82787 0.0
O548 O 0.76463 0.7084 0.85128 0.0
O549 O 0.8571 0.66415 0.87162 0.0
O550 O 0.77236 0.70366 0.86873 0.0
O551 O 0.8558 0.84978 0.82595 0.0
O552 O 0.86094 0.86549 0.84961 0.0
O553 O 0.96321 0.85607 0.84161 0.0
O554 O 0.01667 0.83428 0.82487 0.0
O555 O 0.9495 0.83613 0.80482 0.0
O556 O 0.9221 0.71345 0.8015 0.0
O557 O 0.9678 0.71477 0.85196 0.0
O558 O 0.95078 0.68682 0.82908 0.0
C559 C 0.72123 0.69307 0.83994 0.0
C560 C 0.84932 0.886 0.83716 0.0
C561 C 0.76029 0.63586 0.89042 0.0
C562 C 0.76325 0.64092 0.91639 0.0
C563 C 0.6396 0.56137 0.90368 0.0
C564 C 0.67816 0.58549 0.89141 0.0
C565 C 0.6815 0.58745 0.9157 0.0
C566 C 0.80393 0.66653 0.9033 0.0
C567 C 0.78785 0.65435 0.87539 0.0
C568 C 0.09841 0.93374 0.91618 0.0
C569 C 0.10175 0.0219 0.9175 0.0
H570 H 0.18014 0.88457 0.90426 0.0
C571 C 0.03136 0.87585 0.83577 0.0
C572 C 0.97937 0.68094 0.84093 0.0
C573 C 0.93978 0.79248 0.78187 0.0
C574 C 0.04285 0.9308 0.76535 0.0
C575 C 0.0127 0.77378 0.75696 0.0
C576 C 0.96577 0.74122 0.77157 0.0
C577 C 0.04796 0.91021 0.74925 0.0
C578 C 0.9584 0.88369 0.77892 0.0
C579 C 0.95247 0.78504 0.79654 0.0
H580 H 0.57516 0.52523 0.90388 0.0
H581 H 0.64258 0.56693 0.8824 0.0
H582 H 0.6482 0.57376 0.92492 0.0
H583 H 0.86689 0.71046 0.90334 0.0
H584 H 0.05371 0.75091 0.7565 0.0
H585 H 0.91104 0.73689 0.77508 0.0
H586 H 0.01932 0.9338 0.74201 0.0
H587 H 0.95248 0.91928 0.78667 0.0
C588 C 0.41452 0.18054 0.80724 0.0
C589 C 0.38874 0.10571 0.78647 0.0
C590 C 0.36212 0.11978 0.79888 0.0
C591 C 0.4686 0.15313 0.78262 0.0
C592 C 0.4942 0.23029 0.80313 0.0
C593 C 0.52103 0.21666 0.79077 0.0
N594 N 0.38631 0.19502 0.81886 0.0
C595 C 0.43871 0.24971 0.82782 0.0
C596 C 0.54302 0.2955 0.81122 0.0
C597 C 0.5172 0.30316 0.8239 0.0
Gd598 Gd 0.21374 0.11604 0.86013 0.0
Gd599 Gd 0.2451 0.13469 0.81972 0.0
N600 N 0.28373 0.07915 0.80232 0.0
C601 C 0.33303 0.04938 0.77771 0.0
C602 C 0.22922 0.02248 0.79394 0.0
C603 C 0.25309 0.01001 0.78128 0.0
H604 H 0.16652 0.9914 0.7966 0.0
H605 H 0.21053 0.96924 0.77425 0.0
H606 H 0.22884 0.23728 0.87709 0.0
H607 H 0.41956 0.25533 0.83773 0.0
H608 H 0.19031 0.37327 0.88556 0.0
H609 H 0.35049 0.03812 0.76794 0.0
H610 H 0.48894 0.14325 0.77306 0.0
H611 H 0.03169 0.85889 0.86039 0.0
H612 H 0.6007 0.33963 0.80776 0.0
H613 H 0.55711 0.35128 0.83049 0.0
H614 H 0.07949 0.19773 0.92513 0.0
H615 H 0.58172 0.25541 0.78734 0.0
H616 H 0.85008 0.84631 0.88412 0.0
H617 H 0.88339 0.76874 0.88399 0.0
N618 N 0.06036 0.99112 0.86837 0.0
C619 C 0.05687 0.06311 0.88544 0.0
C620 C 0.0037 0.88713 0.86573 0.0
C621 C 0.86808 0.86865 0.89413 0.0
C622 C 0.89376 0.82249 0.87932 0.0
C623 C 0.93833 0.00898 0.90574 0.0
H624 H 0.93901 0.06364 0.92702 0.0
N625 N 0.19711 0.20713 0.88062 0.0
C626 C 0.13105 0.16001 0.89 0.0
C627 C 0.14733 0.27793 0.9001 0.0
C628 C 0.12512 0.20072 0.90366 0.0
C629 C 0.22104 0.28729 0.87901 0.0
C630 C 0.1873 0.31749 0.88814 0.0
O631 O 0.28136 0.04387 0.82787 0.0
O632 O 0.28357 0.05436 0.85128 0.0
O633 O 0.32769 0.19097 0.87161 0.0
O634 O 0.28817 0.06671 0.86875 0.0
O635 O 0.14217 0.00417 0.82596 0.0
O636 O 0.12644 0.9935 0.84962 0.0
O637 O 0.13582 0.10525 0.84161 0.0
O638 O 0.15776 0.18064 0.82487 0.0
O639 O 0.15596 0.11169 0.80483 0.0
O640 O 0.27865 0.20691 0.80151 0.0
O641 O 0.27713 0.25113 0.85197 0.0
O642 O 0.3052 0.26212 0.82909 0.0
C643 C 0.29887 0.02626 0.83994 0.0
C644 C 0.10593 0.96141 0.83717 0.0
C645 C 0.35598 0.12248 0.89043 0.0
C646 C 0.35099 0.12051 0.91639 0.0
C647 C 0.43057 0.07641 0.90369 0.0
C648 C 0.40642 0.09079 0.89142 0.0
C649 C 0.40449 0.09225 0.91571 0.0
C650 C 0.32533 0.13549 0.9033 0.0
C651 C 0.33747 0.13151 0.87539 0.0
C652 C 0.058 0.16271 0.91617 0.0
C653 C 0.96986 0.07789 0.91749 0.0
H654 H 0.10753 0.29383 0.90428 0.0
C655 C 0.11612 0.15369 0.83577 0.0
C656 C 0.31105 0.29656 0.84094 0.0
C657 C 0.19974 0.14567 0.78188 0.0
C658 C 0.06131 0.10998 0.76536 0.0
C659 C 0.2181 0.23731 0.75696 0.0
C660 C 0.25078 0.22303 0.77157 0.0
C661 C 0.08185 0.13581 0.74926 0.0
C662 C 0.10866 0.07285 0.77893 0.0
C663 C 0.20711 0.16576 0.79654 0.0
H664 H 0.46676 0.04816 0.9039 0.0
H665 H 0.425 0.07378 0.88241 0.0
H666 H 0.4182 0.07268 0.92493 0.0
H667 H 0.28136 0.15449 0.90333 0.0
H668 H 0.24084 0.30116 0.75648 0.0
H669 H 0.25522 0.17268 0.77508 0.0
H670 H 0.05846 0.08362 0.74203 0.0
H671 H 0.07314 0.0313 0.78669 0.0
C672 C 0.81149 0.23216 0.80721 0.0
C673 C 0.88637 0.28125 0.78644 0.0
C674 C 0.87227 0.24054 0.79886 0.0
C675 C 0.83896 0.3137 0.78259 0.0
C676 C 0.76172 0.26206 0.8031 0.0
C677 C 0.77539 0.30256 0.79074 0.0
N678 N 0.79699 0.18946 0.81885 0.0
C679 C 0.74228 0.18714 0.82781 0.0
C680 C 0.69648 0.24562 0.81119 0.0
C681 C 0.68881 0.21215 0.82388 0.0
Gd682 Gd 0.87589 0.09587 0.86012 0.0
Gd683 Gd 0.85735 0.1086 0.81972 0.0
N684 N 0.91289 0.20276 0.8023 0.0
C685 C 0.94274 0.2819 0.77768 0.0
C686 C 0.96957 0.20492 0.79392 0.0
C687 C 0.98211 0.24133 0.78127 0.0
H688 H 0.00065 0.17329 0.79658 0.0
H689 H 0.02293 0.2396 0.77424 0.0
H690 H 0.75465 0.98973 0.87708 0.0
H691 H 0.73665 0.16238 0.83772 0.0
H692 H 0.61872 0.81513 0.88555 0.0
H693 H 0.95403 0.31066 0.76792 0.0
H694 H 0.84886 0.34394 0.77302 0.0
H695 H 0.13304 0.17098 0.86038 0.0
H696 H 0.65235 0.25914 0.80772 0.0
H697 H 0.64066 0.20391 0.83046 0.0
H698 H 0.79411 0.87996 0.92514 0.0
H699 H 0.73664 0.32451 0.7873 0.0
H700 H 0.14553 0.00182 0.88412 0.0
H701 H 0.22309 0.11271 0.88399 0.0
N702 N 0.0008 0.06739 0.86836 0.0
C703 C 0.92876 0.99187 0.88544 0.0
C704 C 0.10478 0.11472 0.86573 0.0
C705 C 0.12316 -0.00252 0.89413 0.0
C706 C 0.16936 0.06936 0.87932 0.0
C707 C 0.98283 0.9274 0.90575 0.0
H708 H 0.92811 0.87343 0.92703 0.0
N709 N 0.78478 0.98813 0.88061 0.0
C710 C 0.83187 0.96916 0.89 0.0
C711 C 0.71397 0.86743 0.90009 0.0
C712 C 0.79112 0.92249 0.90366 0.0
C713 C 0.70466 0.9319 0.87901 0.0
C714 C 0.67446 0.86791 0.88814 0.0
O715 O 0.94811 0.23568 0.82786 0.0
O716 O 0.93755 0.22737 0.85127 0.0
O717 O 0.801 0.13491 0.87161 0.0
O718 O 0.92523 0.21963 0.86873 0.0
O719 O 0.98785 0.13618 0.82595 0.0
O720 O -0.00153 0.13119 0.84961 0.0
O721 O 0.88698 0.02871 0.84162 0.0
O722 O 0.8113 0.97532 0.8249 0.0
O723 O 0.88041 0.04246 0.80483 0.0
O724 O 0.78518 0.06991 0.8015 0.0
O725 O 0.74083 0.02419 0.85195 0.0
O726 O 0.72988 0.04122 0.82907 0.0
C727 C 0.9657 0.27078 0.83993 0.0
C728 C 0.03059 0.14276 0.83716 0.0
C729 C 0.86947 0.23168 0.89042 0.0
C730 C 0.87139 0.22868 0.91639 0.0
C731 C 0.91547 0.35235 0.90366 0.0
C732 C 0.90115 0.31381 0.8914 0.0
C733 C 0.89959 0.31043 0.91569 0.0
C734 C 0.85645 0.18802 0.9033 0.0
C735 C 0.86044 0.20414 0.87538 0.0
C736 C 0.82909 0.89336 0.91617 0.0
C737 C 0.91388 0.89 0.9175 0.0
H738 H 0.69816 0.81169 0.90426 0.0
C739 C 0.83852 0.96067 0.83577 0.0
C740 C 0.69542 0.01263 0.84092 0.0
C741 C 0.84638 0.05217 0.78187 0.0
C742 C 0.88223 0.94958 0.76535 0.0
C743 C 0.75488 0.97899 0.75696 0.0
C744 C 0.76906 0.02585 0.77157 0.0
C745 C 0.85646 0.94438 0.74925 0.0
C746 C 0.91924 0.03398 0.77892 0.0
C747 C 0.82634 0.03951 0.79654 0.0
H748 H 0.94372 0.41679 0.90386 0.0
H749 H 0.9182 0.34941 0.88238 0.0
H750 H 0.91914 0.34373 0.92491 0.0
H751 H 0.83749 0.12506 0.90334 0.0
H752 H 0.69106 0.93778 0.75648 0.0
H753 H 0.81933 0.08065 0.77507 0.0
H754 H 0.90866 0.97324 0.74201 0.0
H755 H 0.96082 0.04004 0.78667 0.0
C756 C 0.58066 0.76828 0.7063 0.0
C757 C 0.60036 0.70356 0.72566 0.0
C758 C 0.63067 0.75284 0.7141 0.0
C759 C 0.52063 0.67355 0.72951 0.0
C760 C 0.50027 0.73764 0.71015 0.0
C761 C 0.47104 0.69175 0.72193 0.0
N762 N 0.61084 0.81482 0.69515 0.0
C763 C 0.5596 0.81903 0.68615 0.0
C764 C 0.45195 0.75519 0.70211 0.0
C765 C 0.48028 0.79261 0.68975 0.0
Gd766 Gd 0.77694 0.9011 0.65316 0.0
Gd767 Gd 0.7525 0.89311 0.69488 0.0
N768 N 0.71013 0.79194 0.71119 0.0
C769 C 0.6536 0.69592 0.73414 0.0
C770 C 0.76256 0.78559 0.71956 0.0
C771 C 0.73496 0.74118 0.73153 0.0
H772 H 0.82612 0.8197 0.71761 0.0
H773 H 0.77621 0.74361 0.73903 0.0
H774 H 0.76286 0.0055 0.6363 0.0
H775 H 0.57926 0.84361 0.67626 0.0
H776 H 0.79647 0.17646 0.62711 0.0
H777 H 0.6336 0.66219 0.74344 0.0
H778 H 0.49796 0.63969 0.73872 0.0
H779 H 0.95642 0.82192 0.65299 0.0
H780 H 0.39177 0.73694 0.70505 0.0
H781 H 0.44108 0.80106 0.68303 0.0
H782 H 0.91494 0.11777 0.58842 0.0
H783 H 0.4102 0.66995 0.72528 0.0
H784 H 0.14227 0.99351 0.62954 0.0
H785 H 0.10656 0.88179 0.6293 0.0
N786 N 0.93043 0.92691 0.64525 0.0
C787 C 0.93444 0.00263 0.62815 0.0
C788 C 0.98643 0.87885 0.64788 0.0
C789 C 0.1228 0.99601 0.6195 0.0
C790 C 0.09679 0.92434 0.63429 0.0
C791 C 0.05319 0.06672 0.60788 0.0
H792 H 0.05328 0.12101 0.58659 0.0
N793 N 0.79471 0.00715 0.63276 0.0
C794 C 0.86079 0.02583 0.6235 0.0
C795 C 0.84098 0.12455 0.61272 0.0
C796 C 0.86704 0.0722 0.60974 0.0
C797 C 0.76961 0.06251 0.63411 0.0
C798 C 0.80129 0.12472 0.62468 0.0
O799 O 0.71337 0.76428 0.68655 0.0
O800 O 0.71328 0.77104 0.66293 0.0
O801 O 0.66575 0.86565 0.64097 0.0
O802 O 0.69754 0.77706 0.64559 0.0
O803 O 0.85414 0.87289 0.68632 0.0
O804 O 0.87194 0.87426 0.66281 0.0
O805 O 0.81995 0.97263 0.67233 0.0
O806 O 0.86835 0.01027 0.69134 0.0
O807 O 0.83414 0.94733 0.71188 0.0
O808 O 0.72645 0.9544 0.71054 0.0
O809 O 0.71119 0.97084 0.66173 0.0
O810 O 0.69568 0.96425 0.68508 0.0
C811 C 0.6973 0.72835 0.67443 0.0
C812 C 0.89298 0.8678 0.67544 0.0
C813 C 0.64067 0.76558 0.62315 0.0
C814 C 0.63792 0.76823 0.59731 0.0
C815 C 0.57925 0.64446 0.61 0.0
C816 C 0.60302 0.68261 0.62227 0.0
C817 C 0.58045 0.68862 0.59892 0.0
C818 C 0.66683 0.80998 0.61021 0.0
C819 C 0.65298 0.79445 0.63801 0.0
C820 C 0.93474 0.10178 0.59732 0.0
C821 C 0.02229 0.10432 0.59608 0.0
H822 H 0.87704 0.17876 0.60777 0.0
C823 C 0.88333 0.02936 0.67892 0.0
C824 C 0.68351 0.98792 0.6731 0.0
C825 C 0.78987 0.98217 0.73254 0.0
C826 C 0.79627 0.88609 0.75465 0.0
C827 C 0.88646 0.06324 0.75737 0.0
C828 C 0.8613 0.06424 0.74122 0.0
C829 C 0.81802 0.93241 0.7693 0.0
C830 C 0.74037 0.89171 0.7391 0.0
C831 C 0.79227 0.97644 0.71712 0.0
H832 H 0.54214 0.57999 0.60986 0.0
H833 H 0.58842 0.64693 0.63128 0.0
H834 H 0.52479 0.68573 0.60006 0.0
H835 H 0.70777 0.87377 0.61004 0.0
H836 H 0.92543 0.12283 0.76136 0.0
H837 H 0.80649 0.03315 0.73664 0.0
H838 H 0.77424 0.90946 0.77805 0.0
H839 H 0.68857 0.84412 0.73471 0.0
C840 C 0.22407 0.81098 0.70635 0.0
C841 C 0.28851 0.89544 0.7257 0.0
C842 C 0.23932 0.87641 0.71414 0.0
C843 C 0.31873 0.84589 0.72956 0.0
C844 C 0.25483 0.76136 0.71021 0.0
C845 C 0.30076 0.77816 0.72198 0.0
N846 N 0.17748 0.79446 0.6952 0.0
C847 C 0.17324 0.73887 0.68623 0.0
C848 C 0.23729 0.69538 0.7022 0.0
C849 C 0.19974 0.68606 0.68986 0.0
Gd850 Gd 0.09168 0.8745 0.65322 0.0
Gd851 Gd 0.09904 0.85763 0.69489 0.0
N852 N 0.19999 0.91656 0.71122 0.0
C853 C 0.29581 0.95614 0.73419 0.0
C854 C 0.20602 0.97516 0.7196 0.0
C855 C 0.2503 0.99198 0.73157 0.0
H856 H 0.17175 0.00447 0.71764 0.0
H857 H 0.24773 0.03071 0.73907 0.0
H858 H 0.98772 0.75622 0.63634 0.0
H859 H 0.1486 0.73379 0.67635 0.0
H860 H 0.8167 0.61923 0.62721 0.0
H861 H 0.32949 0.96992 0.74348 0.0
H862 H 0.35252 0.85711 0.73877 0.0
H863 H 0.17073 0.13318 0.65306 0.0
H864 H 0.25562 0.65353 0.70516 0.0
H865 H 0.19127 0.6383 0.68316 0.0
H866 H 0.87644 0.79628 0.58842 0.0
H867 H 0.3227 0.73924 0.72534 0.0
H868 H -0.00031 0.14769 0.6295 0.0
H869 H 0.11143 0.22356 0.62926 0.0
N870 N 0.06594 0.0023 0.64529 0.0
C871 C 0.99061 0.93072 0.62816 0.0
C872 C 0.11392 0.10634 0.64793 0.0
C873 C -0.00258 0.1258 0.61946 0.0
C874 C 0.06875 0.17135 0.63429 0.0
C875 C 0.92705 0.98558 0.60784 0.0
H876 H 0.87328 0.93154 0.58652 0.0
N877 N 0.98608 0.78644 0.6328 0.0
C878 C 0.96755 0.83391 0.62353 0.0
C879 C 0.86877 0.7156 0.61278 0.0
C880 C 0.9215 0.79389 0.60976 0.0
C881 C 0.93071 0.706 0.63415 0.0
C882 C 0.86851 0.67564 0.62474 0.0
O883 O 0.22801 0.94746 0.68661 0.0
O884 O 0.22155 0.94074 0.66299 0.0
O885 O 0.12747 0.79895 0.64106 0.0
O886 O 0.21588 0.91938 0.64567 0.0
O887 O 0.11937 0.97967 0.68637 0.0
O888 O 0.11825 0.99625 0.66287 0.0
O889 O 0.01981 0.84576 0.67236 0.0
O890 O 0.98192 0.85641 0.69135 0.0
O891 O 0.04434 0.88473 0.71186 0.0
O892 O 0.038 0.77026 0.71058 0.0
O893 O 0.02174 0.73883 0.66172 0.0
O894 O 0.02797 0.72969 0.68507 0.0
C895 C 0.26409 0.9674 0.6745 0.0
C896 C 0.12456 0.02368 0.67549 0.0
C897 C 0.22757 0.87394 0.62323 0.0
C898 C 0.22491 0.86869 0.59739 0.0
C899 C 0.34864 0.93227 0.61006 0.0
C900 C 0.31056 0.91844 0.62233 0.0
C901 C 0.30421 0.88981 0.59898 0.0
C902 C 0.18326 0.85622 0.61029 0.0
C903 C 0.19864 0.85745 0.63809 0.0
C904 C 0.89227 0.83212 0.5973 0.0
C905 C 0.88974 0.91715 0.59603 0.0
H906 H 0.81446 0.69791 0.60789 0.0
C907 C 0.96307 0.85251 0.67893 0.0
C908 C 0.00447 0.69393 0.67309 0.0
C909 C 0.00978 0.80581 0.73255 0.0
C910 C 0.10609 0.90796 0.75465 0.0
C911 C 0.92895 0.82171 0.75737 0.0
C912 C 0.92784 0.79556 0.74122 0.0
C913 C 0.0597 0.8835 0.76929 0.0
C914 C 0.10021 0.84637 0.7391 0.0
C915 C 0.01557 0.81382 0.71712 0.0
H916 H 0.41303 0.95908 0.60989 0.0
H917 H 0.34623 0.93934 0.63134 0.0
H918 H 0.30583 0.8363 0.60004 0.0
H919 H 0.11959 0.83393 0.61012 0.0
H920 H 0.86939 0.8012 0.76138 0.0
H921 H 0.95881 0.77175 0.73665 0.0
H922 H 0.08243 0.86245 0.77805 0.0
H923 H 0.14774 0.84213 0.73469 0.0
C924 C 0.18133 0.41159 0.70634 0.0
C925 C 0.0969 0.39169 0.7257 0.0
C926 C 0.11589 0.36148 0.71414 0.0
C927 C 0.14658 0.47141 0.72955 0.0
C928 C 0.23103 0.49197 0.7102 0.0
C929 C 0.21434 0.5211 0.72198 0.0
N930 N 0.19773 0.3815 0.69519 0.0
C931 C 0.25322 0.43281 0.68619 0.0
C932 C 0.29691 0.54039 0.70216 0.0
C933 C 0.30607 0.51213 0.6898 0.0
Gd934 Gd 0.11811 0.21592 0.65323 0.0
Gd935 Gd 0.1345 0.23985 0.6949 0.0
N936 N 0.07561 0.28201 0.71123 0.0
C937 C 0.03607 0.33833 0.73418 0.0
C938 C 0.01689 0.22948 0.71959 0.0
C939 C 7e-05 0.25699 0.73156 0.0
H940 H 0.9875 0.16592 0.71764 0.0
H941 H 0.96127 0.21567 0.73906 0.0
H942 H 0.2369 0.23028 0.63646 0.0
H943 H 0.2582 0.41321 0.67631 0.0
H944 H 0.37344 0.19468 0.6276 0.0
H945 H 0.02232 0.35825 0.74347 0.0
H946 H 0.13539 0.49399 0.73877 0.0
H947 H 0.85954 0.03631 0.65297 0.0
H948 H 0.3388 0.60057 0.7051 0.0
H949 H 0.35374 0.55139 0.68308 0.0
H950 H 0.19796 0.07956 0.58855 0.0
H951 H 0.25334 0.58193 0.72533 0.0
H952 H 0.84554 0.85106 0.62944 0.0
H953 H 0.76946 0.88663 0.62921 0.0
N954 N 0.99055 0.06246 0.64527 0.0
C955 C 0.06251 0.05881 0.62819 0.0
C956 C 0.8865 0.00641 0.64786 0.0
C957 C 0.86767 0.87063 0.61941 0.0
C958 C 0.82177 0.89632 0.63422 0.0
C959 C 0.00818 0.94056 0.60786 0.0
H960 H 0.06277 0.94101 0.58659 0.0
N961 N 0.20672 0.19852 0.6329 0.0
C962 C 0.15944 0.13262 0.6236 0.0
C963 C 0.27766 0.15104 0.61308 0.0
C964 C 0.19984 0.12666 0.60988 0.0
C965 C 0.28698 0.22305 0.63436 0.0
C966 C 0.31738 0.19072 0.62504 0.0
O967 O 0.04463 0.27887 0.6866 0.0
O968 O 0.05175 0.27944 0.66299 0.0
O969 O 0.19361 0.32728 0.64104 0.0
O970 O 0.07316 0.29512 0.64564 0.0
O971 O 0.01259 0.13821 0.68635 0.0
O972 O -0.00373 0.12068 0.66285 0.0
O973 O 0.14644 0.17255 0.6724 0.0
O974 O 0.13574 0.12394 0.69139 0.0
O975 O 0.10723 0.15809 0.7119 0.0
O976 O 0.22183 0.26604 0.71058 0.0
O977 O 0.25357 0.28163 0.66176 0.0
O978 O 0.26251 0.29673 0.68512 0.0
C979 C 0.02486 0.29511 0.67449 0.0
C980 C 0.96872 0.09948 0.67546 0.0
C981 C 0.11838 0.35196 0.62317 0.0
C982 C 0.12386 0.35484 0.59732 0.0
C983 C 0.05843 0.41305 0.60995 0.0
C984 C 0.07277 0.38933 0.62225 0.0
C985 C 0.10228 0.41273 0.59896 0.0
C986 C 0.13667 0.32583 0.61023 0.0
C987 C 0.13503 0.33979 0.63805 0.0
C988 C 0.1619 0.05935 0.59741 0.0
C989 C 0.07692 0.97178 0.5961 0.0
H990 H 0.29458 0.11329 0.60837 0.0
C991 C 0.13973 0.10903 0.67897 0.0
C992 C 0.29835 0.30908 0.67314 0.0
C993 C 0.18622 0.20239 0.73255 0.0
C994 C 0.08385 0.19602 0.75466 0.0
C995 C 0.17066 0.10568 0.75738 0.0
C996 C 0.19677 0.13088 0.74123 0.0
C997 C 0.10842 0.17419 0.76931 0.0
C998 C 0.14536 0.25194 0.73911 0.0
C999 C 0.17817 0.20009 0.71714 0.0
H1000 H 0.0305 0.44963 0.60976 0.0
H1001 H 0.05139 0.40363 0.63125 0.0
H1002 H 0.15559 0.46788 0.60049 0.0
H1003 H 0.15948 0.28486 0.61006 0.0
H1004 H 0.19121 0.06663 0.76137 0.0
H1005 H 0.22077 0.18581 0.73666 0.0
H1006 H 0.12929 0.21794 0.77806 0.0
H1007 H 0.14961 0.30379 0.73472 0.0
C1008 C 0.658 0.39304 0.46218 0.0
C1009 C 0.58788 0.46058 0.44398 0.0
C1010 C 0.63482 0.46686 0.45758 0.0
C1011 C 0.56018 0.39403 0.43142 0.0
C1012 C 0.5959 0.27455 0.44183 0.0
C1013 C 0.55935 0.30618 0.43002 0.0
N1014 N 0.7329 0.39689 0.47941 0.0
C1015 C 0.78041 0.34057 0.48217 0.0
C1016 C 0.66638 0.20565 0.45368 0.0
C1017 C 0.73663 0.23129 0.4686 0.0
Gd1018 Gd 0.77167 0.575 0.52817 0.0
Gd1019 Gd 0.76165 0.54976 0.48747 0.0
N1020 N 0.6537 0.53314 0.46693 0.0
C1021 C 0.53047 0.47924 0.44796 0.0
C1022 C 0.5967 0.55602 0.46867 0.0
C1023 C 0.53172 0.52063 0.45976 0.0
H1024 H 0.65501 0.56478 0.47041 0.0
H1025 H 0.47832 0.5221 0.46252 0.0
H1026 H 0.83743 0.5021 0.55232 0.0
H1027 H 0.83641 0.36866 0.48754 0.0
H1028 H 0.9134 0.55068 0.57355 0.0
H1029 H 0.47371 0.43375 0.44496 0.0
H1030 H 0.54389 0.41579 0.42273 0.0
H1031 H 0.82231 0.74833 0.50982 0.0
H1032 H 0.6682 0.18612 0.46373 0.0
H1033 H 0.78013 0.22071 0.46424 0.0
H1034 H 0.01373 0.83 0.57358 0.0
H1035 H 0.54856 0.27652 0.42045 0.0
H1036 H 0.9226 0.9358 0.53868 0.0
H1037 H 0.86321 0.88658 0.51637 0.0
N1038 N 0.84834 0.71729 0.529 0.0
C1039 C 0.89232 0.74774 0.54044 0.0
C1040 C 0.84592 0.76848 0.51975 0.0
C1041 C 0.90664 0.87634 0.53573 0.0
C1042 C 0.87128 0.84774 0.52325 0.0
C1043 C 0.92329 0.82852 0.54408 0.0
H1044 H 0.98917 0.91921 0.55924 0.0
N1045 N 0.8642 0.61804 0.54599 0.0
C1046 C 0.90239 0.69709 0.54897 0.0
C1047 C 0.95205 0.67296 0.56973 0.0
C1048 C 0.94704 0.72655 0.56097 0.0
C1049 C 0.86852 0.56531 0.55459 0.0
C1050 C 0.91075 0.59205 0.56669 0.0
O1051 O 0.69522 0.47297 0.50601 0.0
O1052 O 0.63872 0.4917 0.52254 0.0
O1053 O 0.70849 0.47529 0.54251 0.0
O1054 O 0.73127 0.59696 0.54682 0.0
O1055 O 0.69012 0.61176 0.49554 0.0
O1056 O 0.70161 0.63312 0.51868 0.0
O1057 O 0.90029 0.61522 0.5199 0.0
O1058 O 0.89289 0.62044 0.49649 0.0
O1059 O 0.7991 0.66346 0.47605 0.0
O1060 O 0.88504 0.62522 0.47874 0.0
O1061 O 0.80279 0.47667 0.52155 0.0
O1062 O 0.79672 0.46204 0.49791 0.0
C1063 C 0.62585 0.45172 0.51151 0.0
C1064 C 0.67595 0.64213 0.50666 0.0
C1065 C 0.65852 0.49915 0.56378 0.0
C1066 C 0.61364 0.41573 0.58378 0.0
C1067 C 0.59621 0.52784 0.58232 0.0
C1068 C 0.63941 0.55113 0.57036 0.0
C1069 C 0.56849 0.4516 0.58712 0.0
C1070 C 0.64451 0.42956 0.57048 0.0
C1071 C 0.70008 0.52315 0.55083 0.0
C1072 C 0.98024 0.80728 0.56435 0.0
C1073 C 0.96639 0.85781 0.55614 0.0
H1074 H 0.98532 0.69298 0.57907 0.0
C1075 C 0.93617 0.63519 0.50785 0.0
C1076 C 0.80888 0.44131 0.51031 0.0
C1077 C 0.89592 0.69421 0.45718 0.0
C1078 C 0.89377 0.68934 0.43118 0.0
C1079 C 0.01696 0.76982 0.44408 0.0
C1080 C 0.97768 0.74643 0.45627 0.0
C1081 C 0.97638 0.74056 0.43202 0.0
C1082 C 0.85263 0.66382 0.44426 0.0
C1083 C 0.86856 0.67426 0.47221 0.0
H1084 H 0.57828 0.5661 0.58713 0.0
H1085 H 0.65072 0.60604 0.56569 0.0
H1086 H 0.53223 0.43484 0.5961 0.0
H1087 H 0.67651 0.40137 0.56687 0.0
H1088 H 0.08143 0.80593 0.44399 0.0
H1089 H 0.01283 0.76562 0.46533 0.0
H1090 H 0.01203 0.7501 0.42311 0.0
H1091 H 0.78972 0.61962 0.44421 0.0
C1092 C 0.60202 0.265 0.46216 0.0
C1093 C 0.53658 0.12702 0.44399 0.0
C1094 C 0.52878 0.16786 0.45752 0.0
C1095 C 0.60475 0.16549 0.43158 0.0
C1096 C 0.72214 0.32053 0.44204 0.0
C1097 C 0.69202 0.25124 0.43034 0.0
N1098 N 0.59683 0.33674 0.47918 0.0
C1099 C 0.65329 0.44084 0.48185 0.0
C1100 C 0.79039 0.46042 0.45369 0.0
C1101 C 0.76364 0.5058 0.46836 0.0
Gd1102 Gd 0.41733 0.19537 0.52811 0.0
Gd1103 Gd 0.44294 0.21134 0.48702 0.0
N1104 N 0.46193 0.12053 0.46677 0.0
C1105 C 0.51739 0.05109 0.44805 0.0
C1106 C 0.43852 0.04052 0.46852 0.0
C1107 C 0.4743 0.01071 0.45974 0.0
H1108 H 0.43015 0.0903 0.47024 0.0
H1109 H 0.47145 0.95522 0.46252 0.0
H1110 H 0.4921 0.33414 0.55222 0.0
H1111 H 0.62508 0.46898 0.48715 0.0
H1112 H 0.44511 0.36037 0.57369 0.0
H1113 H 0.56174 0.03823 0.44483 0.0
H1114 H 0.58766 0.12805 0.42285 0.0
H1115 H 0.24377 0.07419 0.50986 0.0
H1116 H 0.80897 0.48202 0.46375 0.0
H1117 H 0.7744 0.55926 0.46353 0.0
H1118 H 0.16539 0.1833 0.57397 0.0
H1119 H 0.72415 0.26478 0.42098 0.0
H1120 H 0.05667 0.98863 0.53877 0.0
H1121 H 0.10501 0.97838 0.51639 0.0
N1122 N 0.27536 0.13099 0.52904 0.0
C1123 C 0.24553 0.14469 0.54054 0.0
C1124 C 0.2238 0.07788 0.51979 0.0
C1125 C 0.11626 0.03162 0.53582 0.0
C1126 C 0.14436 0.02481 0.52329 0.0
C1127 C 0.16478 0.09546 0.54422 0.0
H1128 H 0.07475 0.07096 0.5595 0.0
N1129 N 0.37571 0.2456 0.54599 0.0
C1130 C 0.2968 0.20497 0.54908 0.0
C1131 C 0.32243 0.27745 0.57001 0.0
C1132 C 0.26815 0.21979 0.5612 0.0
C1133 C 0.42903 0.30207 0.55459 0.0
C1134 C 0.40315 0.31689 0.56683 0.0
O1135 O 0.51165 0.21534 0.50619 0.0
O1136 O 0.50072 0.14569 0.52295 0.0
O1137 O 0.51609 0.23119 0.54252 0.0
O1138 O 0.39448 0.13171 0.54674 0.0
O1139 O 0.37966 0.07751 0.49527 0.0
O1140 O 0.35879 0.06754 0.51848 0.0
O1141 O 0.37699 0.28342 0.51968 0.0
O1142 O 0.37158 0.271 0.49622 0.0
O1143 O 0.33078 0.13516 0.47515 0.0
O1144 O 0.36751 0.2587 0.47806 0.0
O1145 O 0.51648 0.32443 0.52118 0.0
O1146 O 0.53172 0.33364 0.49749 0.0
C1147 C 0.53736 0.17019 0.51162 0.0
C1148 C 0.34946 0.03291 0.50645 0.0
C1149 C 0.49252 0.15795 0.5638 0.0
C1150 C 0.57587 0.19861 0.58383 0.0
C1151 C 0.46616 0.06772 0.58238 0.0
C1152 C 0.44188 0.08643 0.57039 0.0
C1153 C 0.54203 0.11778 0.58717 0.0
C1154 C 0.56094 0.21509 0.57056 0.0
C1155 C 0.4681 0.1748 0.55082 0.0
C1156 C 0.18747 0.17274 0.56465 0.0
C1157 C 0.13618 0.10915 0.55638 0.0
H1158 H 0.30308 0.29018 0.57946 0.0
C1159 C 0.35674 0.2992 0.50763 0.0
C1160 C 0.55247 0.36593 0.50993 0.0
C1161 C 0.30092 0.20221 0.45621 0.0
C1162 C 0.30987 0.2099 0.4302 0.0
C1163 C 0.22687 0.24935 0.44301 0.0
C1164 C 0.24728 0.23008 0.45523 0.0
C1165 C 0.26026 0.24299 0.431 0.0
C1166 C 0.33298 0.19129 0.4433 0.0
C1167 C 0.31971 0.19369 0.47131 0.0
H1168 H 0.42884 0.01164 0.58733 0.0
H1169 H 0.38725 0.04201 0.56576 0.0
H1170 H 0.55964 0.09909 0.59614 0.0
H1171 H 0.58702 0.27532 0.56702 0.0
H1172 H 0.1899 0.27683 0.44298 0.0
H1173 H 0.22512 0.24293 0.46427 0.0
H1174 H 0.25097 0.26964 0.42211 0.0
H1175 H 0.37632 0.17144 0.44331 0.0
C1176 C 0.73001 0.33713 0.46235 0.0
C1177 C 0.86929 0.4083 0.44442 0.0
C1178 C 0.82745 0.36049 0.45798 0.0
C1179 C 0.83147 0.43691 0.43177 0.0
C1180 C 0.6762 0.40103 0.44191 0.0
C1181 C 0.74597 0.43912 0.43026 0.0
N1182 N 0.65702 0.26111 0.47939 0.0
C1183 C 0.55269 0.21326 0.48182 0.0
C1184 C 0.53537 0.32951 0.45328 0.0
C1185 C 0.48877 0.25794 0.46799 0.0
Gd1186 Gd 0.79506 0.22034 0.52817 0.0
Gd1187 Gd 0.78045 0.23249 0.48787 0.0
N1188 N 0.874 0.34136 0.46746 0.0
C1189 C 0.94461 0.46578 0.44861 0.0
C1190 C 0.95379 0.39831 0.46932 0.0
C1191 C 0.98402 0.46378 0.46047 0.0
H1192 H 0.90412 0.33988 0.47101 0.0
H1193 H 0.03897 0.51694 0.46329 0.0
H1194 H 0.65664 0.1554 0.55233 0.0
H1195 H 0.52426 0.1569 0.48711 0.0
H1196 H 0.63043 0.08162 0.57377 0.0
H1197 H 0.95693 0.52282 0.4454 0.0
H1198 H 0.86761 0.45201 0.42289 0.0
H1199 H 0.91742 0.16881 0.50995 0.0
H1200 H 0.51286 0.32752 0.46326 0.0
H1201 H 0.43597 0.21526 0.46299 0.0
H1202 H 0.80956 0.98137 0.57409 0.0
H1203 H 0.73221 0.45575 0.4207 0.0
H1204 H 0.00533 0.07041 0.53907 0.0
H1205 H 0.01496 0.1283 0.51662 0.0
N1206 N 0.86073 0.14371 0.52916 0.0
C1207 C 0.84756 0.10046 0.54068 0.0
C1208 C 0.91408 0.14558 0.51992 0.0
C1209 C 0.9618 0.08611 0.53605 0.0
C1210 C 0.96817 0.12057 0.52349 0.0
C1211 C 0.89753 0.06984 0.54441 0.0
H1212 H 0.92264 0.00462 0.55966 0.0
N1213 N 0.74592 0.12859 0.54611 0.0
C1214 C 0.78703 0.0908 0.54921 0.0
C1215 C 0.71418 0.04291 0.57009 0.0
C1216 C 0.77236 0.04715 0.56132 0.0
C1217 C 0.68903 0.1247 0.5547 0.0
C1218 C 0.67423 0.08371 0.56692 0.0
O1219 O 0.7704 0.29834 0.50641 0.0
O1220 O 0.84777 0.3539 0.52272 0.0
O1221 O 0.75782 0.28363 0.54234 0.0
O1222 O 0.85653 0.26092 0.54691 0.0
O1223 O 0.91426 0.30353 0.49577 0.0
O1224 O 0.92379 0.28973 0.51883 0.0
O1225 O 0.70739 0.09136 0.51998 0.0
O1226 O 0.71892 0.10027 0.49661 0.0
O1227 O 0.85514 0.1917 0.47689 0.0
O1228 O 0.72987 0.10861 0.47964 0.0
O1229 O 0.66523 0.1889 0.52123 0.0
O1230 O 0.65713 0.19848 0.49769 0.0
C1231 C 0.81992 0.36729 0.51183 0.0
C1232 C 0.95871 0.31618 0.50685 0.0
C1233 C 0.83066 0.3339 0.5637 0.0
C1234 C 0.79058 0.37684 0.58372 0.0
C1235 C 0.92182 0.39941 0.58211 0.0
C1236 C 0.90241 0.35517 0.57025 0.0
C1237 C 0.87146 0.42485 0.5869 0.0
C1238 C 0.77374 0.3455 0.57045 0.0
C1239 C 0.81366 0.29207 0.55078 0.0
C1240 C 0.82 0.01419 0.56478 0.0
C1241 C 0.88402 0.02738 0.55654 0.0
H1242 H 0.70146 0.01059 0.57953 0.0
C1243 C 0.69102 0.05605 0.50789 0.0
C1244 C 0.62388 0.18463 0.51002 0.0
C1245 C 0.78497 0.09646 0.45823 0.0
C1246 C 0.79714 0.10216 0.43247 0.0
C1247 C 0.73862 0.97746 0.44482 0.0
C1248 C 0.74632 0.01365 0.45714 0.0
C1249 C 0.78238 0.02475 0.43409 0.0
C1250 C 0.80298 0.14157 0.44537 0.0
C1251 C 0.79468 0.12305 0.47315 0.0
H1252 H 0.97786 0.4181 0.58711 0.0
H1253 H 0.94625 0.34383 0.56569 0.0
H1254 H 0.89017 0.46138 0.59583 0.0
H1255 H 0.7135 0.31152 0.56693 0.0
H1256 H 0.71466 0.91352 0.44443 0.0
H1257 H 0.72447 0.97696 0.46603 0.0
H1258 H 0.83741 0.02721 0.43616 0.0
H1259 H 0.82061 0.20417 0.44514 0.0
C1260 C 0.72171 0.32202 0.71904 0.0
C1261 C 0.7843 0.2468 0.73745 0.0
C1262 C 0.79222 0.29446 0.72365 0.0
C1263 C 0.7178 0.22117 0.74986 0.0
C1264 C 0.60303 0.26221 0.73935 0.0
C1265 C 0.63202 0.22265 0.75116 0.0
N1266 N 0.72877 0.39943 0.70192 0.0
C1267 C 0.67553 0.4503 0.69926 0.0
C1268 C 0.53833 0.3377 0.72776 0.0
C1269 C 0.56668 0.40932 0.71295 0.0
Gd1270 Gd 0.9027 0.43341 0.65219 0.0
Gd1271 Gd 0.87969 0.42114 0.6939 0.0
N1272 N 0.85668 0.30997 0.71429 0.0
C1273 C 0.81415 0.19563 0.73537 0.0
C1274 C 0.87264 0.24809 0.71255 0.0
C1275 C 0.84247 0.1881 0.72255 0.0
H1276 H 0.88721 0.30829 0.71067 0.0
H1277 H 0.84652 0.13587 0.7203 0.0
H1278 H 0.83881 0.51276 0.62843 0.0
H1279 H 0.70623 0.50648 0.69396 0.0
H1280 H 0.88997 0.5812 0.60665 0.0
H1281 H 0.79904 0.14997 0.74284 0.0
H1282 H 0.73868 0.20724 0.7588 0.0
H1283 H 0.0721 0.48354 0.67163 0.0
H1284 H 0.51806 0.33933 0.71771 0.0
H1285 H 0.55939 0.45287 0.71812 0.0
H1286 H 0.16774 0.67026 0.60751 0.0
H1287 H 0.60205 0.20859 0.76075 0.0
H1288 H 0.2676 0.58434 0.64411 0.0
H1289 H 0.21243 0.52578 0.66628 0.0
N1290 N 0.04506 0.50604 0.6519 0.0
C1291 C 0.0778 0.54858 0.64042 0.0
C1292 C 0.09434 0.50523 0.66168 0.0
C1293 C 0.20609 0.56518 0.64634 0.0
C1294 C 0.17466 0.53126 0.65883 0.0
C1295 C 0.15911 0.57881 0.63727 0.0
H1296 H 0.25257 0.64458 0.6226 0.0
N1297 N 0.95126 0.52929 0.63476 0.0
C1298 C 0.02984 0.5618 0.63173 0.0
C1299 C 0.01088 0.61392 0.61077 0.0
C1300 C 0.06188 0.60596 0.61974 0.0
C1301 C 0.90164 0.53887 0.62615 0.0
C1302 C 0.93014 0.57796 0.61381 0.0
O1303 O 0.83622 0.35228 0.67481 0.0
O1304 O 0.79485 0.30835 0.65581 0.0
O1305 O 0.80606 0.38543 0.63745 0.0
O1306 O 0.91849 0.38638 0.63341 0.0
O1307 O 0.94303 0.35207 0.68495 0.0
O1308 O 0.95862 0.35933 0.6615 0.0
O1309 O 0.94275 0.56188 0.66048 0.0
O1310 O 0.94556 0.55416 0.68411 0.0
O1311 O 0.98727 0.44431 0.70615 0.0
O1312 O 0.96721 0.54124 0.70171 0.0
O1313 O 0.80717 0.46009 0.6609 0.0
O1314 O 0.78682 0.4521 0.68431 0.0
C1315 C 0.77558 0.29318 0.66825 0.0
C1316 C 0.97104 0.33615 0.67361 0.0
C1317 C 0.81817 0.33423 0.61587 0.0
C1318 C 0.74753 0.32119 0.595 0.0
C1319 C 0.80908 0.24455 0.59823 0.0
C1320 C 0.84814 0.29021 0.60967 0.0
C1321 C 0.74557 0.24858 0.59292 0.0
C1322 C 0.76774 0.35197 0.60833 0.0
C1323 C 0.84857 0.37033 0.62902 0.0
C1324 C 0.14264 0.63658 0.61666 0.0
C1325 C 0.19082 0.62175 0.62528 0.0
H1326 H 0.0327 0.64556 0.60132 0.0
C1327 C 0.96143 0.59791 0.67255 0.0
C1328 C 0.76797 0.46341 0.67175 0.0
C1329 C 0.01991 0.54435 0.72418 0.0
C1330 C 0.01853 0.54206 0.7502 0.0
C1331 C 0.05828 0.66009 0.73748 0.0
C1332 C 0.05167 0.6267 0.72506 0.0
C1333 C 0.07169 0.62249 0.74819 0.0
C1334 C 0.99256 0.49918 0.73719 0.0
C1335 C 0.00699 0.51733 0.70926 0.0
H1336 H 0.82988 0.21109 0.59249 0.0
H1337 H 0.90015 0.29124 0.61389 0.0
H1338 H 0.72028 0.21446 0.58384 0.0
H1339 H 0.76421 0.4034 0.61145 0.0
H1340 H 0.01688 0.68105 0.73861 0.0
H1341 H 0.05779 0.66163 0.71621 0.0
H1342 H 0.12777 0.62749 0.74567 0.0
H1343 H 0.95225 0.43524 0.73722 0.0
C1344 C 0.67023 0.39812 0.71903 0.0
C1345 C 0.74543 0.53595 0.73742 0.0
C1346 C 0.69779 0.49621 0.72362 0.0
C1347 C 0.77102 0.49507 0.74984 0.0
C1348 C 0.72998 0.33922 0.73935 0.0
C1349 C 0.76953 0.40778 0.75115 0.0
N1350 N 0.59287 0.32778 0.70192 0.0
C1351 C 0.54202 0.22365 0.69928 0.0
C1352 C 0.65454 0.19903 0.72778 0.0
C1353 C 0.58298 0.15576 0.71297 0.0
Gd1354 Gd 0.55866 0.46769 0.65223 0.0
Gd1355 Gd 0.57117 0.45704 0.69389 0.0
N1356 N 0.68231 0.54517 0.71426 0.0
C1357 C 0.79667 0.61695 0.73532 0.0
C1358 C 0.74422 0.62301 0.7125 0.0
C1359 C 0.80421 0.65281 0.72249 0.0
H1360 H 0.68402 0.5774 0.71063 0.0
H1361 H 0.85643 0.7091 0.72025 0.0
H1362 H 0.47929 0.32422 0.62849 0.0
H1363 H 0.48584 0.19816 0.69398 0.0
H1364 H 0.41051 0.30669 0.60674 0.0
H1365 H 0.84236 0.64747 0.74278 0.0
H1366 H 0.78501 0.52993 0.75876 0.0
H1367 H 0.50844 0.58675 0.67166 0.0
H1368 H 0.6529 0.17712 0.71774 0.0
H1369 H 0.53942 0.10487 0.71813 0.0
H1370 H 0.32202 0.49583 0.60753 0.0
H1371 H 0.78359 0.39189 0.76073 0.0
H1372 H 0.40748 0.68136 0.64413 0.0
H1373 H 0.46592 0.68468 0.66631 0.0
N1374 N 0.48589 0.53721 0.65193 0.0
C1375 C 0.44347 0.52746 0.64044 0.0
C1376 C 0.48666 0.58726 0.66172 0.0
C1377 C 0.4267 0.63905 0.64637 0.0
C1378 C 0.46052 0.64147 0.65886 0.0
C1379 C 0.41324 0.57854 0.63729 0.0
H1380 H 0.34765 0.60635 0.6226 0.0
N1381 N 0.46285 0.42024 0.6348 0.0
C1382 C 0.43032 0.46631 0.63176 0.0
C1383 C 0.37802 0.39505 0.61083 0.0
C1384 C 0.38615 0.45416 0.61978 0.0
C1385 C 0.4532 0.36096 0.6262 0.0
C1386 C 0.41394 0.35022 0.61388 0.0
O1387 O 0.63998 0.48236 0.67479 0.0
O1388 O 0.68359 0.48445 0.65579 0.0
O1389 O 0.60655 0.41921 0.63747 0.0
O1390 O 0.60581 0.53098 0.6335 0.0
O1391 O 0.64029 0.58951 0.68492 0.0
O1392 O 0.63277 0.59777 0.66149 0.0
O1393 O 0.43028 0.37934 0.66052 0.0
O1394 O 0.43809 0.38988 0.68415 0.0
O1395 O 0.54798 0.54142 0.70614 0.0
O1396 O 0.45108 0.42447 0.7017 0.0
O1397 O 0.53195 0.34539 0.66092 0.0
O1398 O 0.54022 0.33317 0.68432 0.0
C1399 C 0.6989 0.48051 0.66823 0.0
C1400 C 0.65611 0.63344 0.67357 0.0
C1401 C 0.65792 0.48305 0.61595 0.0
C1402 C 0.66923 0.42598 0.59493 0.0
C1403 C 0.74839 0.56378 0.5984 0.0
C1404 C 0.70307 0.55731 0.60988 0.0
C1405 C 0.7426 0.49596 0.59288 0.0
C1406 C 0.63889 0.41505 0.60829 0.0
C1407 C 0.6218 0.47711 0.62908 0.0
C1408 C 0.35564 0.50438 0.61668 0.0
C1409 C 0.37044 0.56739 0.62528 0.0
H1410 H 0.34628 0.38514 0.6014 0.0
C1411 C 0.39431 0.36201 0.67259 0.0
C1412 C 0.52876 0.30292 0.67177 0.0
C1413 C 0.44786 0.47391 0.72417 0.0
C1414 C 0.45001 0.4747 0.7502 0.0
C1415 C 0.33205 0.39654 0.73746 0.0
C1416 C 0.36553 0.4233 0.72504 0.0
C1417 C 0.36961 0.44748 0.74818 0.0
C1418 C 0.49296 0.49166 0.73718 0.0
C1419 C 0.47496 0.48811 0.70925 0.0
H1420 H 0.78252 0.61816 0.59272 0.0
H1421 H 0.70278 0.60844 0.61421 0.0
H1422 H 0.77622 0.50506 0.58372 0.0
H1423 H 0.58669 0.36055 0.61134 0.0
H1424 H 0.31083 0.33414 0.7386 0.0
H1425 H 0.33066 0.39448 0.7162 0.0
H1426 H 0.36464 0.49859 0.74566 0.0
H1427 H 0.55688 0.51527 0.73721 0.0
C1428 C 0.59415 0.27053 0.71904 0.0
C1429 C 0.45631 0.20789 0.73744 0.0
C1430 C 0.49607 0.2 0.72364 0.0
C1431 C 0.49714 0.27438 0.74984 0.0
C1432 C 0.65298 0.3892 0.73934 0.0
C1433 C 0.5844 0.36017 0.75114 0.0
N1434 N 0.66451 0.2635 0.70193 0.0
C1435 C 0.76862 0.31676 0.69928 0.0
C1436 C 0.79318 0.45392 0.72776 0.0
C1437 C 0.83647 0.4256 0.71296 0.0
Gd1438 Gd 0.52462 0.08937 0.65226 0.0
Gd1439 Gd 0.53536 0.11255 0.69392 0.0
N1440 N 0.44716 0.13551 0.71429 0.0
C1441 C 0.37528 0.17789 0.73536 0.0
C1442 C 0.36926 0.11938 0.71255 0.0
C1443 C 0.33941 0.1495 0.72254 0.0
H1444 H 0.41498 0.10495 0.71066 0.0
H1445 H 0.28307 0.14533 0.7203 0.0
H1446 H 0.66752 0.15342 0.62844 0.0
H1447 H 0.7941 0.28606 0.69399 0.0
H1448 H 0.68468 0.10222 0.60666 0.0
H1449 H 0.3447 0.19292 0.74283 0.0
H1450 H 0.46229 0.25349 0.75877 0.0
H1451 H 0.40558 0.9201 0.67174 0.0
H1452 H 0.81511 0.47421 0.71771 0.0
H1453 H 0.88733 0.43292 0.71812 0.0
H1454 H 0.49606 0.82428 0.60759 0.0
H1455 H 0.60026 0.39012 0.76072 0.0
H1456 H 0.31069 0.72449 0.64424 0.0
H1457 H 0.3075 0.77971 0.66642 0.0
N1458 N 0.45514 0.94703 0.65201 0.0
C1459 C 0.4649 0.91426 0.64053 0.0
C1460 C 0.40506 0.89779 0.6618 0.0
C1461 C 0.35314 0.78599 0.64648 0.0
C1462 C 0.35075 0.81745 0.65896 0.0
C1463 C 0.41374 0.83295 0.6374 0.0
H1464 H 0.38571 0.73954 0.62271 0.0
N1465 N 0.57191 0.04089 0.63483 0.0
C1466 C 0.52595 0.96224 0.63182 0.0
C1467 C 0.59676 0.98121 0.61084 0.0
C1468 C 0.53795 0.93018 0.61983 0.0
C1469 C 0.63092 0.09055 0.62618 0.0
C1470 C 0.64144 0.06202 0.61385 0.0
O1471 O 0.51001 0.15604 0.67482 0.0
O1472 O 0.50762 0.19743 0.65582 0.0
O1473 O 0.57291 0.18602 0.63752 0.0
O1474 O 0.46158 0.07323 0.63352 0.0
O1475 O 0.40289 0.04922 0.68498 0.0
O1476 O 0.39462 0.03341 0.66155 0.0
O1477 O 0.61326 0.04967 0.66051 0.0
O1478 O 0.60253 0.04665 0.68414 0.0
O1479 O 0.45101 0.00487 0.70616 0.0
O1480 O 0.56803 0.02509 0.70172 0.0
O1481 O 0.64691 0.18491 0.66093 0.0
O1482 O 0.65919 0.20542 0.68433 0.0
C1483 C 0.5117 0.21676 0.66825 0.0
C1484 C 0.35897 0.02111 0.67364 0.0
C1485 C 0.50898 0.17354 0.616 0.0
C1486 C 0.56548 0.24347 0.59506 0.0
C1487 C 0.42758 0.18227 0.59848 0.0
C1488 C 0.4348 0.14326 0.60988 0.0
C1489 C 0.49493 0.2458 0.5931 0.0
C1490 C 0.57677 0.2239 0.6084 0.0
C1491 C 0.51515 0.14334 0.62913 0.0
C1492 C 0.48771 0.84941 0.61676 0.0
C1493 C 0.42477 0.80127 0.62538 0.0
H1494 H 0.60649 0.95938 0.60139 0.0
C1495 C 0.63051 0.0309 0.67257 0.0
C1496 C 0.6894 0.22418 0.67178 0.0
C1497 C 0.51856 0.9724 0.7242 0.0
C1498 C 0.51752 0.97364 0.75022 0.0
C1499 C 0.59616 0.93436 0.73752 0.0
C1500 C 0.56946 0.94102 0.72509 0.0
C1501 C 0.54493 0.9206 0.74821 0.0
C1502 C 0.50053 -0.00043 0.7372 0.0
C1503 C 0.50437 0.98524 0.70928 0.0
H1504 H 0.37299 0.16131 0.59283 0.0
H1505 H 0.38431 0.09087 0.61412 0.0
H1506 H 0.48576 0.27104 0.58405 0.0
H1507 H 0.63158 0.22692 0.61144 0.0
H1508 H 0.65845 0.97593 0.73868 0.0
H1509 H 0.59848 0.9352 0.71626 0.0
H1510 H 0.49394 0.86449 0.74566 0.0
H1511 H 0.4767 0.03971 0.73722 0.0
C1512 C 0.43342 0.91396 0.13946 0.0
C1513 C 0.37855 0.93488 0.11893 0.0
C1514 C 0.4229 0.96438 0.13096 0.0
C1515 C 0.34553 0.85418 0.11554 0.0
C1516 C 0.40252 0.83316 0.13583 0.0
C1517 C 0.35936 0.80375 0.12377 0.0
N1518 N 0.47751 0.9446 0.15088 0.0
C1519 C 0.4799 0.89346 0.16014 0.0
C1520 C 0.41863 0.7852 0.14423 0.0
C1521 C 0.45412 0.81401 0.15669 0.0
Gd1522 Gd 0.56666 0.11213 0.19289 0.0
Gd1523 Gd 0.55393 0.0871 0.15172 0.0
N1524 N 0.46008 0.04325 0.13403 0.0
C1525 C 0.37364 0.98835 0.11013 0.0
C1526 C 0.45429 0.09559 0.12553 0.0
C1527 C 0.41346 0.06903 0.1133 0.0
H1528 H 0.4839 0.15863 0.1279 0.0
H1529 H 0.41089 0.11036 0.1064 0.0
H1530 H 0.67803 0.10153 0.20981 0.0
H1531 H 0.50363 0.91371 0.17006 0.0
H1532 H 0.84843 0.13623 0.21917 0.0
H1533 H 0.34135 0.96844 0.10071 0.0
H1534 H 0.31212 0.83137 0.1063 0.0
H1535 H 0.4858 0.28879 0.193 0.0
H1536 H 0.4017 0.7253 0.14137 0.0
H1537 H 0.46181 0.77511 0.16361 0.0
H1538 H 0.79113 0.2554 0.25755 0.0
H1539 H 0.33649 0.74231 0.1207 0.0
H1540 H 0.65076 0.47227 0.21682 0.0
H1541 H 0.53888 0.43423 0.21694 0.0
N1542 N 0.59208 0.26358 0.20099 0.0
C1543 C 0.66946 0.27025 0.2181 0.0
C1544 C 0.5419 0.31776 0.19837 0.0
C1545 C 0.65486 0.45409 0.22686 0.0
C1546 C 0.58341 0.4263 0.21207 0.0
C1547 C 0.72958 0.38926 0.2384 0.0
H1548 H 0.77958 0.39097 0.25964 0.0
N1549 N 0.67893 0.1335 0.21331 0.0
C1550 C 0.69681 0.19928 0.22263 0.0
C1551 C 0.792 0.17219 0.23446 0.0
C1552 C 0.7446 0.20681 0.23643 0.0
C1553 C 0.73688 0.11208 0.21183 0.0
C1554 C 0.7968 0.14078 0.22174 0.0
O1555 O 0.42592 0.04609 0.16013 0.0
O1556 O 0.43433 0.04036 0.18358 0.0
O1557 O 0.53548 5e-05 0.20436 0.0
O1558 O 0.44529 0.03297 0.20202 0.0
O1559 O 0.52261 0.18427 0.15891 0.0
O1560 O 0.52857 0.19825 0.18259 0.0
O1561 O 0.63076 0.18675 0.17417 0.0
O1562 O 0.68702 0.17111 0.15734 0.0
O1563 O 0.61222 0.18642 0.13748 0.0
O1564 O 0.59505 0.0673 0.13267 0.0
O1565 O 0.63701 0.05064 0.18422 0.0
O1566 O 0.62423 0.02909 0.16102 0.0
C1567 C 0.39038 0.02525 0.17218 0.0
C1568 C 0.51617 0.21909 0.17019 0.0
C1569 C 0.44096 0.96725 0.22364 0.0
C1570 C 0.44541 0.97625 0.24969 0.0
C1571 C 0.32206 0.89237 0.23705 0.0
C1572 C 0.36005 0.91272 0.22479 0.0
C1573 C 0.36273 0.92632 0.249 0.0
C1574 C 0.48546 -0.00023 0.23645 0.0
C1575 C 0.46555 0.98648 0.20849 0.0
C1576 C 0.77164 0.27421 0.24886 0.0
C1577 C 0.7688 0.36024 0.25017 0.0
H1578 H 0.83728 0.18492 0.24185 0.0
C1579 C 0.70018 0.20939 0.16859 0.0
C1580 C 0.65007 0.02 0.17301 0.0
C1581 C 0.65968 0.16929 0.11571 0.0
C1582 C 0.68286 0.24633 0.09515 0.0
C1583 C 0.74382 0.16864 0.09791 0.0
C1584 C 0.6965 0.13214 0.10932 0.0
C1585 C 0.74938 0.23772 0.09291 0.0
C1586 C 0.65053 0.22598 0.1084 0.0
C1587 C 0.62085 0.14051 0.12877 0.0
H1588 H 0.25798 0.85354 0.23709 0.0
H1589 H 0.3239 0.88904 0.21587 0.0
H1590 H 0.32745 0.91791 0.25793 0.0
H1591 H 0.54846 0.04372 0.23627 0.0
H1592 H 0.77418 0.14361 0.0924 0.0
H1593 H 0.69016 0.07727 0.11337 0.0
H1594 H 0.78546 0.2624 0.08403 0.0
H1595 H 0.60352 0.23591 0.11169 0.0
C1596 C 0.07791 0.51801 0.13946 0.0
C1597 C 0.05704 0.44231 0.11893 0.0
C1598 C 0.02751 0.45713 0.13096 0.0
C1599 C 0.13773 0.48996 0.11555 0.0
C1600 C 0.15871 0.56788 0.13583 0.0
C1601 C 0.18814 0.55417 0.12378 0.0
N1602 N 0.04724 0.53143 0.15089 0.0
C1603 C 0.09834 0.58488 0.16015 0.0
C1604 C 0.20666 0.63189 0.14424 0.0
C1605 C 0.17781 0.63852 0.1567 0.0
Gd1606 Gd 0.8797 0.45312 0.19288 0.0
Gd1607 Gd 0.90477 0.46546 0.15172 0.0
N1608 N 0.94864 0.41545 0.13404 0.0
C1609 C 0.00358 0.38398 0.11014 0.0
C1610 C 0.89633 0.35736 0.12554 0.0
C1611 C 0.92291 0.34315 0.11331 0.0
H1612 H 0.8333 0.32393 0.12792 0.0
H1613 H 0.88158 0.29929 0.10641 0.0
H1614 H 0.89027 0.57513 0.20979 0.0
H1615 H 0.07805 0.58832 0.17007 0.0
H1616 H 0.85563 0.71088 0.21914 0.0
H1617 H 0.02352 0.37165 0.10071 0.0
H1618 H 0.16057 0.4794 0.10631 0.0
H1619 H 0.70305 0.19563 0.19301 0.0
H1620 H 0.26658 0.67484 0.14138 0.0
H1621 H 0.21669 0.68505 0.16362 0.0
H1622 H 0.73631 0.53429 0.25753 0.0
H1623 H 0.24958 0.59274 0.1207 0.0
H1624 H 0.51964 0.1771 0.21684 0.0
H1625 H 0.5576 0.10319 0.21694 0.0
N1626 N 0.72826 0.32713 0.20099 0.0
C1627 C 0.72154 0.39782 0.21809 0.0
C1628 C 0.6741 0.22277 0.19838 0.0
C1629 C 0.53774 0.19938 0.22687 0.0
C1630 C 0.56556 0.15572 0.21209 0.0
C1631 C 0.60252 0.33893 0.2384 0.0
H1632 H 0.60079 0.38712 0.25963 0.0
N1633 N 0.8583 0.54405 0.21329 0.0
C1634 C 0.7925 0.49615 0.22261 0.0
C1635 C 0.81962 0.61844 0.23443 0.0
C1636 C 0.78494 0.53639 0.23641 0.0
C1637 C 0.87975 0.62345 0.2118 0.0
C1638 C 0.85107 0.65468 0.22172 0.0
O1639 O 0.94574 0.3784 0.16014 0.0
O1640 O 0.95154 0.39261 0.18358 0.0
O1641 O 0.99166 0.53404 0.20436 0.0
O1642 O 0.95886 0.41094 0.20203 0.0
O1643 O 0.80758 0.33697 0.15893 0.0
O1644 O 0.79361 0.32885 0.18261 0.0
O1645 O 0.80508 0.44264 0.17417 0.0
O1646 O 0.82087 0.51467 0.15734 0.0
O1647 O 0.80548 0.42442 0.1375 0.0
O1648 O 0.92459 0.52638 0.13266 0.0
O1649 O 0.9412 0.58496 0.18421 0.0
O1650 O 0.96283 0.59378 0.16101 0.0
C1651 C 0.96663 0.36375 0.17218 0.0
C1652 C 0.77275 0.29566 0.1702 0.0
C1653 C 0.02444 0.4723 0.22365 0.0
C1654 C 0.01534 0.46756 0.24971 0.0
C1655 C 0.09929 0.4282 0.23705 0.0
C1656 C 0.07905 0.44601 0.2248 0.0
C1657 C 0.06518 0.43469 0.249 0.0
C1658 C 0.99187 0.48419 0.23647 0.0
C1659 C 0.00526 0.47769 0.2085 0.0
C1660 C 0.71752 0.49602 0.24884 0.0
C1661 C 0.63151 0.40714 0.25016 0.0
H1662 H 0.80694 0.65102 0.24183 0.0
C1663 C 0.78253 0.48951 0.16858 0.0
C1664 C 0.9719 0.62867 0.173 0.0
C1665 C 0.82262 0.48897 0.11571 0.0
C1666 C 0.74563 0.43511 0.09516 0.0
C1667 C 0.8233 0.57378 0.09789 0.0
C1668 C 0.85978 0.56294 0.10931 0.0
C1669 C 0.75426 0.51026 0.0929 0.0
C1670 C 0.76594 0.42313 0.10842 0.0
C1671 C 0.8514 0.47895 0.12877 0.0
H1672 H 0.13816 0.40299 0.23709 0.0
H1673 H 0.10285 0.43369 0.21587 0.0
H1674 H 0.07347 0.40764 0.25793 0.0
H1675 H 0.94791 0.50323 0.23629 0.0
H1676 H 0.84832 0.62919 0.09239 0.0
H1677 H 0.91464 0.61147 0.11335 0.0
H1678 H 0.72959 0.52165 0.08402 0.0
H1679 H 0.75594 0.36615 0.11172 0.0
C1680 C 0.47395 0.55856 0.13944 0.0
C1681 C 0.54971 0.6134 0.11891 0.0
C1682 C 0.53485 0.56905 0.13095 0.0
C1683 C 0.50206 0.64645 0.11552 0.0
C1684 C 0.42407 0.58947 0.1358 0.0
C1685 C 0.43782 0.63264 0.12374 0.0
N1686 N 0.4605 0.51447 0.15088 0.0
C1687 C 0.40702 0.51212 0.16014 0.0
C1688 C 0.36001 0.57337 0.1442 0.0
C1689 C 0.35337 0.53791 0.15668 0.0
Gd1690 Gd 0.53875 0.42525 0.19286 0.0
Gd1691 Gd 0.52649 0.43799 0.15172 0.0
N1692 N 0.57652 0.53185 0.13403 0.0
C1693 C 0.60806 0.61828 0.11012 0.0
C1694 C 0.63463 0.53762 0.12553 0.0
C1695 C 0.64888 0.57842 0.1133 0.0
H1696 H 0.66803 0.50799 0.12792 0.0
H1697 H 0.69276 0.58094 0.1064 0.0
H1698 H 0.41677 0.31387 0.20979 0.0
H1699 H 0.40357 0.4884 0.17006 0.0
H1700 H 0.28107 0.14344 0.21913 0.0
H1701 H 0.62042 0.65055 0.10069 0.0
H1702 H 0.51268 0.67987 0.10627 0.0
H1703 H 0.79623 0.5061 0.193 0.0
H1704 H 0.31705 0.5903 0.14134 0.0
H1705 H 0.3068 0.53023 0.1636 0.0
H1706 H 0.45747 0.20061 0.25755 0.0
H1707 H 0.39927 0.65553 0.12067 0.0
H1708 H 0.81468 0.34106 0.21683 0.0
H1709 H 0.88852 0.45296 0.21695 0.0
N1710 N 0.66472 0.39978 0.20098 0.0
C1711 C 0.594 0.32235 0.21809 0.0
C1712 C 0.76908 0.44998 0.19837 0.0
C1713 C 0.79239 0.33693 0.22687 0.0
C1714 C 0.83607 0.40843 0.21208 0.0
C1715 C 0.65285 0.26217 0.23841 0.0
H1716 H 0.6046 0.21223 0.25965 0.0
N1717 N 0.44782 0.31294 0.2133 0.0
C1718 C 0.49569 0.29499 0.22261 0.0
C1719 C 0.37339 0.19982 0.23444 0.0
C1720 C 0.45542 0.24717 0.23641 0.0
C1721 C 0.36846 0.25502 0.2118 0.0
C1722 C 0.33721 0.19507 0.22172 0.0
O1723 O 0.61351 0.56603 0.16012 0.0
O1724 O 0.59925 0.5576 0.18357 0.0
O1725 O 0.45788 0.45637 0.20434 0.0
O1726 O 0.58096 0.54661 0.202 0.0
O1727 O 0.65498 0.46932 0.15891 0.0
O1728 O 0.66307 0.46355 0.18259 0.0
O1729 O 0.54965 0.36106 0.17419 0.0
O1730 O 0.47718 0.30491 0.15737 0.0
O1731 O 0.56751 0.37966 0.13751 0.0
O1732 O 0.46564 0.3969 0.13266 0.0
O1733 O 0.40692 0.3549 0.1842 0.0
O1734 O 0.39813 0.36771 0.16101 0.0
C1735 C 0.62815 0.60156 0.17217 0.0
C1736 C 0.69629 0.47587 0.17019 0.0
C1737 C 0.51959 0.55087 0.22363 0.0
C1738 C 0.52414 0.54639 0.24968 0.0
C1739 C 0.5637 0.66979 0.23703 0.0
C1740 C 0.54599 0.6318 0.22477 0.0
C1741 C 0.557 0.6291 0.24898 0.0
C1742 C 0.50758 0.50634 0.23645 0.0
C1743 C 0.51422 0.5263 0.20848 0.0
C1744 C 0.49575 0.22009 0.24886 0.0
C1745 C 0.58462 0.22294 0.25017 0.0
H1746 H 0.34078 0.15455 0.24184 0.0
C1747 C 0.50269 0.29178 0.16859 0.0
C1748 C 0.36321 0.34187 0.173 0.0
C1749 C 0.50302 0.33225 0.11572 0.0
C1750 C 0.55688 0.30909 0.09516 0.0
C1751 C 0.41825 0.2481 0.09792 0.0
C1752 C 0.42907 0.29544 0.10932 0.0
C1753 C 0.48176 0.24257 0.09292 0.0
C1754 C 0.56885 0.3414 0.10842 0.0
C1755 C 0.51303 0.37108 0.12877 0.0
H1756 H 0.58895 0.73389 0.23707 0.0
H1757 H 0.55843 0.66796 0.21585 0.0
H1758 H 0.58388 0.66439 0.25791 0.0
H1759 H 0.48849 0.44332 0.23627 0.0
H1760 H 0.36287 0.21773 0.09241 0.0
H1761 H 0.38056 0.30181 0.11337 0.0
H1762 H 0.47036 0.20649 0.08405 0.0
H1763 H 0.6258 0.38841 0.11171 0.0
C1764 C 0.24663 0.09919 0.03903 0.0
C1765 C 0.26476 0.04639 0.06003 0.0
C1766 C 0.29611 0.09044 0.04803 0.0
C1767 C 0.18311 0.01138 0.06285 0.0
C1768 C 0.16506 0.0671 0.04215 0.0
C1769 C 0.13358 0.02341 0.0541 0.0
N1770 N 0.27872 0.14244 0.02758 0.0
C1771 C 0.22899 0.14333 0.0179 0.0
C1772 C 0.11849 0.08287 0.03337 0.0
C1773 C 0.14916 0.11777 0.02095 0.0
Gd1774 Gd 0.44217 0.22407 0.98662 0.0
Gd1775 Gd 0.42054 0.22073 0.02753 0.0
N1776 N 0.37564 0.12894 0.04544 0.0
C1777 C 0.31712 0.04359 0.06934 0.0
C1778 C 0.42701 0.12543 0.05445 0.0
C1779 C 0.39843 0.0852 0.06668 0.0
H1780 H 0.49053 0.15592 0.05244 0.0
H1781 H 0.43855 0.08315 0.07388 0.0
H1782 H 0.42496 0.3278 0.9699 0.0
H1783 H 0.25081 0.16602 0.00798 0.0
H1784 H 0.46075 0.50161 0.9617 0.0
H1785 H 0.29574 0.01129 0.07874 0.0
H1786 H 0.15862 0.97778 0.07204 0.0
H1787 H 0.61366 0.23197 0.98159 0.0
H1788 H 0.05842 0.06657 0.03593 0.0
H1789 H 0.11127 0.12468 0.01374 0.0
H1790 H 0.57064 0.44396 0.92161 0.0
H1791 H 0.07123 -0.00108 0.05671 0.0
H1792 H 0.81163 0.33344 0.96237 0.0
H1793 H 0.78282 0.22356 0.96261 0.0
N1794 N 0.59874 0.25709 0.97811 0.0
C1795 C 0.59794 0.33063 0.96101 0.0
C1796 C 0.66001 0.2154 0.98086 0.0
C1797 C 0.79224 0.33636 0.95239 0.0
C1798 C 0.77028 0.26515 0.96733 0.0
C1799 C 0.71647 0.40043 0.94069 0.0
H1800 H 0.7126 0.45376 0.91948 0.0
N1801 N 0.45548 0.32909 0.96617 0.0
C1802 C 0.52073 0.34893 0.95653 0.0
C1803 C 0.50199 0.44991 0.94684 0.0
C1804 C 0.52438 0.39534 0.94291 0.0
C1805 C 0.43111 0.38481 0.96805 0.0
C1806 C 0.46312 0.44871 0.95893 0.0
O1807 O 0.37944 0.09053 0.02009 0.0
O1808 O 0.36975 0.09486 0.99671 0.0
O1809 O 0.32997 0.18914 0.97488 0.0
O1810 O 0.36544 0.10147 0.97768 0.0
O1811 O 0.52326 0.19673 0.02041 0.0
O1812 O 0.51833 0.1758 0.99695 0.0
O1813 O 0.52337 0.29931 1.00453 0.0
O1814 O 0.49644 0.35242 0.02086 0.0
O1815 O 0.51834 0.28232 0.04197 0.0
O1816 O 0.39807 0.26323 0.04623 0.0
O1817 O 0.3794 0.29616 0.99509 0.0
O1818 O 0.36171 0.29 0.01835 0.0
C1819 C 0.35625 0.05285 0.00825 0.0
C1820 C 0.54979 0.17881 0.00914 0.0
C1821 C 0.29773 0.09202 0.95606 0.0
C1822 C 0.30502 0.0958 0.93011 0.0
C1823 C 0.22515 0.97143 0.94275 0.0
C1824 C 0.24533 0.01018 0.95501 0.0
C1825 C 0.25515 0.01301 0.93077 0.0
C1826 C 0.32915 0.13615 0.94324 0.0
C1827 C 0.31732 0.11902 0.9711 0.0
C1828 C 0.59153 0.42743 0.93036 0.0
C1829 C 0.68182 0.43532 0.92899 0.0
H1830 H 0.54385 0.50685 0.94338 0.0
C1831 C 0.53806 0.36712 0.00994 0.0
C1832 C 0.35106 0.3135 1.00629 0.0
C1833 C 0.49811 0.33245 0.06334 0.0
C1834 C 0.58045 0.36524 0.08354 0.0
C1835 C 0.48606 0.40628 0.08184 0.0
C1836 C 0.45463 0.36208 0.07 0.0
C1837 C 0.56025 0.42341 0.08627 0.0
C1838 C 0.561 0.33257 0.07033 0.0
C1839 C 0.47124 0.29159 0.05034 0.0
H1840 H 0.18915 0.90691 0.94257 0.0
H1841 H 0.22329 0.97442 0.96399 0.0
H1842 H 0.24532 0.97848 0.92172 0.0
H1843 H 0.37303 0.19918 0.94336 0.0
H1844 H 0.45542 0.42935 0.08766 0.0
H1845 H 0.3995 0.35446 0.06585 0.0
H1846 H 0.5831 0.4608 0.09507 0.0
H1847 H 0.58079 0.29347 0.06668 0.0
C1848 C 0.8928 0.14588 0.03903 0.0
C1849 C 0.94552 0.21679 0.06003 0.0
C1850 C 0.90149 0.20409 0.04802 0.0
C1851 C 0.98057 0.17018 0.06285 0.0
C1852 C 0.92491 0.09642 0.04216 0.0
C1853 C 0.96859 0.10862 0.05411 0.0
N1854 N 0.84955 0.1347 0.02759 0.0
C1855 C 0.84866 0.08408 0.01791 0.0
C1856 C 0.90917 0.03407 0.03339 0.0
C1857 C 0.87426 0.02983 0.02097 0.0
Gd1858 Gd 0.76791 0.21649 0.98663 0.0
Gd1859 Gd 0.77122 0.19818 0.02753 0.0
N1860 N 0.86296 0.2451 0.04543 0.0
C1861 C 0.94825 0.27192 0.06933 0.0
C1862 C 0.86644 0.29998 0.05444 0.0
C1863 C 0.90662 0.31161 0.06667 0.0
H1864 H 0.83595 0.33302 0.05243 0.0
H1865 H 0.90861 0.35375 0.07387 0.0
H1866 H 0.66418 0.09547 0.96991 0.0
H1867 H 0.82595 0.08319 0.008 0.0
H1868 H 0.4904 0.95745 0.96173 0.0
H1869 H 0.98051 0.28281 0.07873 0.0
H1870 H 0.01415 0.17929 0.07203 0.0
H1871 H 0.75991 0.37997 0.98158 0.0
H1872 H 0.9255 0.99032 0.03595 0.0
H1873 H 0.86734 0.98501 0.01376 0.0
H1874 H 0.548 0.12509 0.92163 0.0
H1875 H 0.9931 0.07077 0.05672 0.0
H1876 H 0.65852 0.47656 0.96236 0.0
H1877 H 0.76836 0.55765 0.96261 0.0
N1878 N 0.73481 0.33995 0.9781 0.0
C1879 C 0.66131 0.26566 0.96101 0.0
C1880 C 0.77648 0.44291 0.98085 0.0
C1881 C 0.65559 0.45428 0.95239 0.0
C1882 C 0.72677 0.50349 0.96732 0.0
C1883 C 0.59154 0.31444 0.9407 0.0
H1884 H 0.53822 0.25727 0.9195 0.0
N1885 N 0.66289 0.12472 0.96618 0.0
C1886 C 0.64303 0.17015 0.95654 0.0
C1887 C 0.54209 0.05041 0.94686 0.0
C1888 C 0.59662 0.12739 0.94293 0.0
C1889 C 0.60718 0.04461 0.96807 0.0
C1890 C 0.54329 0.01273 0.95896 0.0
O1891 O 0.90141 0.28732 0.0201 0.0
O1892 O 0.89711 0.27326 0.99672 0.0
O1893 O 0.80287 0.13922 0.9749 0.0
O1894 O 0.89047 0.26239 0.97766 0.0
O1895 O 0.79525 0.32492 0.0204 0.0
O1896 O 0.81625 0.34095 0.99695 0.0
O1897 O 0.69263 0.22268 1.00452 0.0
O1898 O 0.63959 0.14237 0.02086 0.0
O1899 O 0.70961 0.23443 0.04196 0.0
O1900 O 0.7287 0.13323 0.04624 0.0
O1901 O 0.69578 0.08165 0.99509 0.0
O1902 O 0.70197 0.07007 0.01835 0.0
C1903 C 0.93911 0.30179 0.00826 0.0
C1904 C 0.81323 0.3694 0.00913 0.0
C1905 C 0.89993 0.20406 0.95606 0.0
C1906 C 0.89612 0.20745 0.9301 0.0
C1907 C 0.02048 0.25199 0.94273 0.0
C1908 C 0.98176 0.23348 0.955 0.0
C1909 C 0.9789 0.24039 0.93076 0.0
C1910 C 0.85579 0.1913 0.94325 0.0
C1911 C 0.87295 0.1967 0.9711 0.0
C1912 C 0.56454 0.16249 0.93037 0.0
C1913 C 0.55666 0.24492 0.929 0.0
H1914 H 0.48517 0.03526 0.94339 0.0
C1915 C 0.62494 0.16953 0.00996 0.0
C1916 C 0.67847 0.03595 1.00629 0.0
C1917 C 0.65949 0.16414 0.06334 0.0
C1918 C 0.62674 0.21377 0.08353 0.0
C1919 C 0.58551 0.07826 0.08184 0.0
C1920 C 0.62977 0.09101 0.07 0.0
C1921 C 0.56851 0.13542 0.08627 0.0
C1922 C 0.65943 0.22696 0.07032 0.0
C1923 C 0.70035 0.17809 0.05034 0.0
H1924 H 0.08499 0.28049 0.94254 0.0
H1925 H 0.01752 0.24723 0.96398 0.0
H1926 H 0.01341 0.26505 0.9217 0.0
H1927 H 0.79277 0.17215 0.94336 0.0
H1928 H 0.5623 0.0245 0.08766 0.0
H1929 H 0.63736 0.04347 0.06587 0.0
H1930 H 0.53111 0.12092 0.09507 0.0
H1931 H 0.6986 0.28585 0.06666 0.0
C1932 C 0.84608 0.74533 0.03902 0.0
C1933 C 0.77511 0.7271 0.06002 0.0
C1934 C 0.78783 0.6958 0.04801 0.0
C1935 C 0.82174 0.80874 0.06284 0.0
C1936 C 0.89556 0.8269 0.04215 0.0
C1937 C 0.88333 0.85833 0.0541 0.0
N1938 N 0.85728 0.71329 0.02758 0.0
C1939 C 0.90796 0.76307 0.0179 0.0
C1940 C 0.95794 0.87352 0.03338 0.0
C1941 C 0.96222 0.84289 0.02096 0.0
Gd1942 Gd 0.77547 0.54976 0.98661 0.0
Gd1943 Gd 0.79375 0.57143 0.02752 0.0
N1944 N 0.74681 0.61627 0.04542 0.0
C1945 C 0.71993 0.67468 0.06932 0.0
C1946 C 0.69189 0.56485 0.05443 0.0
C1947 C 0.68022 0.59337 0.06665 0.0
H1948 H 0.65885 0.50132 0.05242 0.0
H1949 H 0.63804 0.55322 0.07385 0.0
H1950 H 0.89641 0.56701 0.96989 0.0
H1951 H 0.90889 0.74129 0.00799 0.0
H1952 H 0.03443 0.53129 0.96169 0.0
H1953 H 0.709 0.69601 0.07872 0.0
H1954 H 0.81263 0.8332 0.07202 0.0
H1955 H 0.61195 0.37827 0.98158 0.0
H1956 H 0.0017 0.93358 0.03594 0.0
H1957 H 0.00707 0.88082 0.01375 0.0
H1958 H 0.8669 0.42127 0.92162 0.0
H1959 H 0.92119 0.92067 0.05671 0.0
H1960 H 0.5154 0.18029 0.96238 0.0
H1961 H 0.43436 0.20912 0.96262 0.0
N1962 N 0.65197 0.39319 0.9781 0.0
C1963 C 0.72626 0.394 0.96101 0.0
C1964 C 0.54903 0.33191 0.98085 0.0
C1965 C 0.53769 0.19968 0.9524 0.0
C1966 C 0.48848 0.22164 0.96733 0.0
C1967 C 0.67752 0.27548 0.9407 0.0
H1968 H 0.73472 0.27933 0.9195 0.0
N1969 N 0.86718 0.53649 0.96616 0.0
C1970 C 0.82176 0.47124 0.95652 0.0
C1971 C 0.9415 0.49006 0.94683 0.0
C1972 C 0.86452 0.4676 0.9429 0.0
C1973 C 0.94727 0.56087 0.96804 0.0
C1974 C 0.97916 0.52889 0.95892 0.0
O1975 O 0.70465 0.61251 0.02009 0.0
O1976 O 0.71864 0.62215 0.99671 0.0
O1977 O 0.85281 0.66201 0.97488 0.0
O1978 O 0.72968 0.62655 0.97766 0.0
O1979 O 0.66702 0.4687 0.02039 0.0
O1980 O 0.65101 0.47368 0.99693 0.0
O1981 O 0.76932 0.46834 1.00451 0.0
O1982 O 0.84956 0.49558 0.02085 0.0
O1983 O 0.75752 0.47358 0.04196 0.0
O1984 O 0.85869 0.59388 0.04622 0.0
O1985 O 0.91031 0.6125 0.99508 0.0
O1986 O 0.92185 0.6303 0.01834 0.0
C1987 C 0.69015 0.63568 0.00824 0.0
C1988 C 0.62256 0.44219 0.00912 0.0
C1989 C 0.78799 0.69427 0.95605 0.0
C1990 C 0.78447 0.68691 0.9301 0.0
C1991 C 0.73987 0.76672 0.94271 0.0
C1992 C 0.7585 0.74663 0.95498 0.0
C1993 C 0.75143 0.73668 0.93075 0.0
C1994 C 0.80074 0.66285 0.94324 0.0
C1995 C 0.79537 0.67469 0.97109 0.0
C1996 C 0.82945 0.40043 0.93036 0.0
C1997 C 0.74704 0.31013 0.929 0.0
H1998 H 0.95669 0.44834 0.94335 0.0
C1999 C 0.82248 0.45382 0.00995 0.0
C2000 C 0.95598 0.64091 1.00628 0.0
C2001 C 0.82783 0.4938 0.06334 0.0
C2002 C 0.77821 0.41152 0.08354 0.0
C2003 C 0.91366 0.50582 0.08185 0.0
C2004 C 0.90094 0.53725 0.06999 0.0
C2005 C 0.85655 0.43165 0.08628 0.0
C2006 C 0.76501 0.43098 0.07033 0.0
C2007 C 0.81386 0.52069 0.05034 0.0
H2008 H 0.71129 0.80268 0.94252 0.0
H2009 H 0.74478 0.76867 0.96396 0.0
H2010 H 0.72669 0.74646 0.92169 0.0
H2011 H 0.81996 0.61902 0.94336 0.0
H2012 H 0.96737 0.53647 0.08767 0.0
H2013 H 0.94848 0.59237 0.06584 0.0
H2014 H 0.87104 0.40879 0.09509 0.0
H2015 H 0.70614 0.41128 0.06668 0.0
C2016 C 0.3209 0.72333 0.79579 0.0
C2017 C 0.24582 0.78682 0.77747 0.0
C2018 C 0.29364 0.79435 0.79126 0.0
C2019 C 0.21876 0.71944 0.76503 0.0
C2020 C 0.26078 0.60436 0.77549 0.0
C2021 C 0.22162 0.63344 0.76372 0.0
N2022 N 0.39829 0.72998 0.8129 0.0
C2023 C 0.44844 0.67576 0.81552 0.0
C2024 C 0.33554 0.53951 0.78703 0.0
C2025 C 0.40687 0.56726 0.80182 0.0
Gd2026 Gd 0.43648 0.90643 0.86218 0.0
Gd2027 Gd 0.42382 0.88148 0.821 0.0
N2028 N 0.31174 0.86025 0.80056 0.0
C2029 C 0.19871 0.82178 0.77942 0.0
C2030 C 0.25368 0.8815 0.80208 0.0
C2031 C 0.19386 0.85304 0.79214 0.0
H2032 H 0.3128 0.89253 0.804 0.0
H2033 H 0.14215 0.8574 0.79474 0.0
H2034 H 0.5065 0.8349 0.88599 0.0
H2035 H 0.5046 0.70474 0.82087 0.0
H2036 H 0.57962 0.8832 0.90749 0.0
H2037 H 0.15354 0.80925 0.77201 0.0
H2038 H 0.19905 0.73812 0.75636 0.0
H2039 H 0.48676 0.07983 0.84383 0.0
H2040 H 0.33802 0.5201 0.79708 0.0
H2041 H 0.45077 0.55884 0.79691 0.0
H2042 H 0.67838 0.16218 0.90759 0.0
H2043 H 0.2107 0.60267 0.75425 0.0
H2044 H 0.58867 0.26821 0.87253 0.0
H2045 H 0.52853 0.21841 0.85029 0.0
N2046 N 0.5129 0.04893 0.86301 0.0
C2047 C 0.557 0.07958 0.87444 0.0
C2048 C 0.51049 0.10007 0.85376 0.0
C2049 C 0.57175 0.20833 0.86967 0.0
C2050 C 0.53625 0.17951 0.85721 0.0
C2051 C 0.58789 0.16037 0.87807 0.0
H2052 H 0.65394 0.25123 0.89319 0.0
N2053 N 0.53033 0.95028 0.87986 0.0
C2054 C 0.56753 0.02916 0.88293 0.0
C2055 C 0.61686 0.0052 0.90375 0.0
C2056 C 0.61192 0.05867 0.89496 0.0
C2057 C 0.53613 0.89794 0.88836 0.0
C2058 C 0.57701 0.92452 0.90059 0.0
O2059 O 0.35963 0.80682 0.83971 0.0
O2060 O 0.3034 0.82249 0.85654 0.0
O2061 O 0.37818 0.80708 0.87641 0.0
O2062 O 0.39537 0.92621 0.88122 0.0
O2063 O 0.35349 0.94298 0.82968 0.0
O2064 O 0.36615 0.96443 0.85288 0.0
O2065 O 0.5645 0.94745 0.85377 0.0
O2066 O 0.55612 0.95328 0.83032 0.0
O2067 O 0.45489 0.9934 0.8095 0.0
O2068 O 0.5452 0.96068 0.81187 0.0
O2069 O 0.46774 0.80923 0.85497 0.0
O2070 O 0.46193 0.79536 0.83129 0.0
C2071 C 0.29022 0.78422 0.84529 0.0
C2072 C 0.34035 0.97355 0.84089 0.0
C2073 C 0.33068 0.82426 0.89817 0.0
C2074 C 0.30736 0.74723 0.91874 0.0
C2075 C 0.24647 0.82499 0.91596 0.0
C2076 C 0.29386 0.86145 0.90456 0.0
C2077 C 0.2409 0.75594 0.92098 0.0
C2078 C 0.33975 0.76757 0.90549 0.0
C2079 C 0.36954 0.853 0.88513 0.0
C2080 C 0.64495 0.13937 0.89835 0.0
C2081 C 0.63108 0.18978 0.89012 0.0
H2082 H 0.64918 0.02512 0.91318 0.0
C2083 C 0.60005 0.96836 0.84173 0.0
C2084 C 0.47422 0.77445 0.84369 0.0
C2085 C 0.54949 0.02629 0.79023 0.0
C2086 C 0.54498 0.01716 0.76419 0.0
C2087 C 0.66835 0.10116 0.77681 0.0
C2088 C 0.63039 0.08087 0.78908 0.0
C2089 C 0.62766 0.06711 0.76487 0.0
C2090 C 0.50494 0.99373 0.77742 0.0
C2091 C 0.52488 0.0071 0.80538 0.0
H2092 H 0.21602 0.84998 0.92145 0.0
H2093 H 0.30024 0.91631 0.90049 0.0
H2094 H 0.20477 0.73128 0.92985 0.0
H2095 H 0.38676 0.75761 0.90221 0.0
H2096 H 0.73243 0.14004 0.77676 0.0
H2097 H 0.66655 0.10465 0.79799 0.0
H2098 H 0.6629 0.07549 0.75593 0.0
H2099 H 0.44193 0.94981 0.77762 0.0
C2100 C 0.26883 0.59577 0.7958 0.0
C2101 C 0.2054 0.45722 0.77749 0.0
C2102 C 0.19784 0.4975 0.79128 0.0
C2103 C 0.2728 0.49756 0.76505 0.0
C2104 C 0.38784 0.65465 0.77549 0.0
C2105 C 0.3588 0.58642 0.76373 0.0
N2106 N 0.26212 0.66649 0.8129 0.0
C2107 C 0.31632 0.77085 0.81551 0.0
C2108 C 0.45264 0.79425 0.78702 0.0
C2109 C 0.42484 0.83782 0.80181 0.0
Gd2110 Gd 0.08559 0.52818 0.86217 0.0
Gd2111 Gd 0.11062 0.54056 0.82101 0.0
N2112 N 0.13189 0.44968 0.80058 0.0
C2113 C 0.17034 0.37512 0.77943 0.0
C2114 C 0.11056 0.37033 0.80209 0.0
C2115 C 0.13899 0.33896 0.79216 0.0
H2116 H 0.0996 0.41847 0.80401 0.0
H2117 H 0.13457 0.28283 0.79475 0.0
H2118 H 0.15707 0.66972 0.88597 0.0
H2119 H 0.28735 0.79803 0.82086 0.0
H2120 H 0.10877 0.69443 0.90747 0.0
H2121 H 0.18281 0.34245 0.77203 0.0
H2122 H 0.2541 0.45919 0.75638 0.0
H2123 H 0.91229 0.40526 0.84382 0.0
H2124 H 0.47194 0.81612 0.79707 0.0
H2125 H 0.43331 0.89022 0.79692 0.0
H2126 H 0.82979 0.51434 0.90758 0.0
H2127 H 0.38959 0.60629 0.75426 0.0
H2128 H 0.72379 0.31878 0.87252 0.0
H2129 H 0.77367 0.30851 0.85028 0.0
N2130 N 0.94312 0.46219 0.863 0.0
C2131 C 0.91245 0.47564 0.87443 0.0
C2132 C 0.89201 0.40871 0.85375 0.0
C2133 C 0.7837 0.36172 0.86966 0.0
C2134 C 0.81255 0.35507 0.8572 0.0
C2135 C 0.83164 0.42577 0.87806 0.0
H2136 H 0.74078 0.40094 0.89319 0.0
N2137 N 0.04173 0.57819 0.87985 0.0
C2138 C 0.96285 0.53654 0.88292 0.0
C2139 C 0.98677 0.60973 0.90375 0.0
C2140 C 0.93332 0.55139 0.89495 0.0
C2141 C 0.09404 0.6363 0.88835 0.0
C2142 C 0.06744 0.65055 0.90057 0.0
O2143 O 0.18526 0.55096 0.83971 0.0
O2144 O 0.16942 0.4789 0.85654 0.0
O2145 O 0.1849 0.56922 0.87639 0.0
O2146 O 0.06579 0.46728 0.88122 0.0
O2147 O 0.0491 0.4087 0.82967 0.0
O2148 O 0.02754 0.39984 0.85288 0.0
O2149 O 0.04462 0.61524 0.85377 0.0
O2150 O 0.03875 0.60101 0.83032 0.0
O2151 O -0.00122 0.45971 0.8095 0.0
O2152 O 0.03145 0.58275 0.81185 0.0
O2153 O 0.18282 0.65664 0.85496 0.0
O2154 O 0.19671 0.66483 0.83127 0.0
C2155 C 0.20775 0.50404 0.8453 0.0
C2156 C 0.01845 0.36496 0.84088 0.0
C2157 C 0.16771 0.5046 0.89817 0.0
C2158 C 0.24471 0.55834 0.91873 0.0
C2159 C 0.16696 0.41967 0.91598 0.0
C2160 C 0.13051 0.4306 0.90457 0.0
C2161 C 0.23599 0.48315 0.92098 0.0
C2162 C 0.2244 0.57039 0.90548 0.0
C2163 C 0.13897 0.51469 0.88512 0.0
C2164 C 0.85262 0.50375 0.89834 0.0
C2165 C 0.80222 0.43951 0.89012 0.0
H2166 H 0.96683 0.6221 0.91317 0.0
C2167 C 0.02368 0.62987 0.84173 0.0
C2168 C 0.21762 0.69797 0.84368 0.0
C2169 C 0.96588 0.52139 0.79022 0.0
C2170 C 0.97502 0.526 0.76418 0.0
C2171 C 0.8909 0.56524 0.7768 0.0
C2172 C 0.91122 0.5476 0.78907 0.0
C2173 C 0.92502 0.55868 0.76485 0.0
C2174 C -0.00152 0.50943 0.77741 0.0
C2175 C 0.98508 0.51601 0.80538 0.0
H2176 H 0.14198 0.36421 0.92147 0.0
H2177 H 0.07566 0.38212 0.90052 0.0
H2178 H 0.26063 0.47168 0.92986 0.0
H2179 H 0.23444 0.62739 0.90218 0.0
H2180 H 0.85196 0.59037 0.77675 0.0
H2181 H 0.88737 0.55993 0.79798 0.0
H2182 H 0.91666 0.58557 0.75592 0.0
H2183 H 0.04245 0.49041 0.77761 0.0
C2184 C 0.39636 0.67124 0.7958 0.0
C2185 C 0.53494 0.74638 0.77748 0.0
C2186 C 0.49463 0.69853 0.79128 0.0
C2187 C 0.49466 0.77349 0.76504 0.0
C2188 C 0.33756 0.73144 0.77549 0.0
C2189 C 0.40583 0.77066 0.76372 0.0
N2190 N 0.3256 0.59378 0.81291 0.0
C2191 C 0.22124 0.54362 0.81552 0.0
C2192 C 0.19795 0.65663 0.78702 0.0
C2193 C 0.15434 0.58524 0.80181 0.0
Gd2194 Gd 0.46376 0.55551 0.86218 0.0
Gd2195 Gd 0.45149 0.56817 0.82102 0.0
N2196 N 0.54241 0.68035 0.80058 0.0
C2197 C 0.61702 0.7934 0.77943 0.0
C2198 C 0.62173 0.73835 0.80209 0.0
C2199 C 0.65313 0.79819 0.79215 0.0
H2200 H 0.5736 0.67925 0.80402 0.0
H2201 H 0.70923 0.84989 0.79474 0.0
H2202 H 0.32222 0.48552 0.88598 0.0
H2203 H 0.19405 0.48744 0.82087 0.0
H2204 H 0.29744 0.41246 0.90749 0.0
H2205 H 0.64973 0.83854 0.77202 0.0
H2206 H 0.53305 0.79315 0.75637 0.0
H2207 H 0.58672 0.50513 0.84383 0.0
H2208 H 0.17605 0.65409 0.79707 0.0
H2209 H 0.10198 0.54133 0.79691 0.0
H2210 H 0.47749 0.31352 0.90761 0.0
H2211 H 0.38604 0.78167 0.75425 0.0
H2212 H 0.67321 0.40322 0.87256 0.0
H2213 H 0.68351 0.46333 0.85031 0.0
N2214 N 0.52975 0.47903 0.86302 0.0
C2215 C 0.51629 0.43492 0.87445 0.0
C2216 C 0.58326 0.4814 0.85376 0.0
C2217 C 0.63025 0.42015 0.86969 0.0
C2218 C 0.63692 0.45563 0.85722 0.0
C2219 C 0.56617 0.40401 0.87809 0.0
H2220 H 0.59095 0.33792 0.89322 0.0
N2221 N 0.41372 0.46164 0.87986 0.0
C2222 C 0.45537 0.42441 0.88294 0.0
C2223 C 0.38213 0.37514 0.90377 0.0
C2224 C 0.4405 0.38003 0.89498 0.0
C2225 C 0.35561 0.45587 0.88836 0.0
C2226 C 0.34133 0.41502 0.90059 0.0
O2227 O 0.44064 0.63246 0.83969 0.0
O2228 O 0.51313 0.68857 0.85651 0.0
O2229 O 0.42274 0.61386 0.87639 0.0
O2230 O 0.52459 0.59659 0.88123 0.0
O2231 O 0.58332 0.63849 0.82969 0.0
O2232 O 0.59212 0.62582 0.85289 0.0
O2233 O 0.37673 0.42747 0.85378 0.0
O2234 O 0.39109 0.43586 0.83034 0.0
O2235 O 0.53228 0.53714 0.8095 0.0
O2236 O 0.40927 0.44681 0.81186 0.0
O2237 O 0.3353 0.52425 0.85497 0.0
O2238 O 0.32715 0.52984 0.83128 0.0
C2239 C 0.48765 0.70172 0.84529 0.0
C2240 C 0.62703 0.65161 0.8409 0.0
C2241 C 0.48731 0.66129 0.89817 0.0
C2242 C 0.43358 0.68459 0.91873 0.0
C2243 C 0.57222 0.74549 0.91595 0.0
C2244 C 0.56129 0.69808 0.90456 0.0
C2245 C 0.50876 0.75106 0.92096 0.0
C2246 C 0.42154 0.65222 0.90548 0.0
C2247 C 0.47722 0.62244 0.88512 0.0
C2248 C 0.48813 0.34696 0.89837 0.0
C2249 C 0.55239 0.36081 0.89015 0.0
H2250 H 0.36974 0.34282 0.9132 0.0
C2251 C 0.36215 0.39192 0.84174 0.0
C2252 C 0.29397 0.51763 0.84369 0.0
C2253 C 0.47061 0.44263 0.79022 0.0
C2254 C 0.466 0.4472 0.76417 0.0
C2255 C 0.42672 0.3238 0.7768 0.0
C2256 C 0.44439 0.36174 0.78907 0.0
C2257 C 0.43328 0.36451 0.76486 0.0
C2258 C 0.48259 0.48721 0.77741 0.0
C2259 C 0.47598 0.46716 0.80538 0.0
H2260 H 0.62766 0.77596 0.92144 0.0
H2261 H 0.60974 0.69166 0.9005 0.0
H2262 H 0.52023 0.78719 0.92983 0.0
H2263 H 0.36457 0.60525 0.90219 0.0
H2264 H 0.40157 0.25971 0.77676 0.0
H2265 H 0.43208 0.32554 0.79799 0.0
H2266 H 0.40638 0.32928 0.75592 0.0
H2267 H 0.50164 0.55023 0.7776 0.0
C2268 C 0.39237 0.6629 0.05287 0.0
C2269 C 0.46593 0.59821 0.07096 0.0
C2270 C 0.46959 0.64466 0.05736 0.0
C2271 C 0.39882 0.56615 0.08352 0.0
C2272 C 0.27387 0.59312 0.07319 0.0
C2273 C 0.30856 0.55831 0.08489 0.0
N2274 N 0.3916 0.73646 0.03577 0.0
C2275 C 0.33033 0.77816 0.03303 0.0
C2276 C 0.19811 0.65728 0.06148 0.0
C2277 C 0.22007 0.72838 0.04655 0.0
Gd2278 Gd 0.56979 0.77284 0.98637 0.0
Gd2279 Gd 0.54819 0.76952 0.02727 0.0
N2280 N 0.53494 0.66467 0.04772 0.0
C2281 C 0.48879 0.54397 0.06708 0.0
C2282 C 0.55923 0.60888 0.04584 0.0
C2283 C 0.52746 0.54509 0.05497 0.0
H2284 H 0.56565 0.66605 0.04403 0.0
H2285 H 0.52979 0.49217 0.0522 0.0
H2286 H 0.49981 0.83771 0.96146 0.0
H2287 H 0.37662 0.76151 0.03228 0.0
H2288 H 0.55184 0.91059 0.94003 0.0
H2289 H 0.44722 0.4871 0.07058 0.0
H2290 H 0.41968 0.54953 0.09226 0.0
H2291 H 0.73949 0.82754 1.00593 0.0
H2292 H 0.17754 0.65841 0.0515 0.0
H2293 H 0.20702 0.76926 0.05131 0.0
H2294 H 0.83176 0.01596 0.94188 0.0
H2295 H 0.27782 0.53989 0.0944 0.0
H2296 H 0.9319 0.92703 0.97798 0.0
H2297 H 0.87903 0.86889 1.00017 0.0
N2298 N 0.71161 0.85115 0.98633 0.0
C2299 C 0.7437 0.89442 0.97488 0.0
C2300 C 0.76132 0.85025 0.99601 0.0
C2301 C 0.87184 0.91073 0.98054 0.0
C2302 C 0.84115 0.87582 0.99296 0.0
C2303 C 0.82528 0.92653 0.97176 0.0
H2304 H 0.91913 0.99476 0.9572 0.0
N2305 N 0.6147 0.86467 0.96847 0.0
C2306 C 0.69424 0.9032 0.96588 0.0
C2307 C 0.67325 0.95013 0.94458 0.0
C2308 C 0.72561 0.94729 0.95388 0.0
C2309 C 0.56334 0.86822 0.95945 0.0
C2310 C 0.59194 0.90851 0.94723 0.0
O2311 O 0.467 0.69425 0.00936 0.0
O2312 O 0.49391 0.64113 0.99303 0.0
O2313 O 0.472 0.71128 0.97193 0.0
O2314 O 0.59226 0.73036 0.96766 0.0
O2315 O 0.61094 0.6974 0.0188 0.0
O2316 O 0.62864 0.70355 0.99554 0.0
O2317 O 0.61086 0.90303 0.99381 0.0
O2318 O 0.62066 0.89873 0.01718 0.0
O2319 O 0.66014 0.80411 0.03905 0.0
O2320 O 0.62513 0.89208 0.03621 0.0
O2321 O 0.46705 0.7968 0.9935 0.0
O2322 O 0.47212 0.81793 0.01695 0.0
C2323 C 0.4523 0.62643 1.00395 0.0
C2324 C 0.63928 0.68006 0.0076 0.0
C2325 C 0.4922 0.66119 0.95055 0.0
C2326 C 0.40989 0.62849 0.93036 0.0
C2327 C 0.50392 0.58697 0.93208 0.0
C2328 C 0.53552 0.63135 0.94391 0.0
C2329 C 0.42985 0.57013 0.92764 0.0
C2330 C 0.42941 0.66121 0.94356 0.0
C2331 C 0.51909 0.70203 0.96355 0.0
C2332 C 0.80726 0.98232 0.95107 0.0
C2333 C 0.85678 0.97025 0.95981 0.0
H2334 H 0.69465 0.98246 0.93518 0.0
C2335 C 0.6341 0.94072 1.00564 0.0
C2336 C 0.44057 0.8148 1.00476 0.0
C2337 C 0.69261 0.90135 0.05785 0.0
C2338 C 0.68531 0.8975 0.0838 0.0
C2339 C 0.76513 0.02192 0.07117 0.0
C2340 C 0.74498 0.9832 0.0589 0.0
C2341 C 0.73512 0.98031 0.08315 0.0
C2342 C 0.66122 0.85718 0.07066 0.0
C2343 C 0.67306 0.87434 0.04281 0.0
H2344 H 0.53437 0.56363 0.92628 0.0
H2345 H 0.59064 0.63895 0.94805 0.0
H2346 H 0.40691 0.53271 0.91884 0.0
H2347 H 0.40974 0.70042 0.94721 0.0
H2348 H 0.80108 0.08645 0.07135 0.0
H2349 H 0.767 0.01899 0.04992 0.0
H2350 H 0.74489 0.01484 0.0922 0.0
H2351 H 0.61737 0.79414 0.07054 0.0
C2352 C 0.32906 0.72791 0.05287 0.0
C2353 C 0.39372 0.86614 0.07095 0.0
C2354 C 0.34728 0.82337 0.05735 0.0
C2355 C 0.42577 0.83105 0.0835 0.0
C2356 C 0.3988 0.67913 0.07318 0.0
C2357 C 0.43361 0.74862 0.08488 0.0
N2358 N 0.25553 0.65361 0.03577 0.0
C2359 C 0.21385 0.55065 0.03304 0.0
C2360 C 0.33467 0.53922 0.06149 0.0
C2361 C 0.2636 0.49011 0.04656 0.0
Gd2362 Gd 0.21911 0.79536 0.98637 0.0
Gd2363 Gd 0.2224 0.77706 0.02726 0.0
N2364 N 0.32725 0.86872 0.04771 0.0
C2365 C 0.44793 0.94327 0.06706 0.0
C2366 C 0.38302 0.94882 0.04582 0.0
C2367 C 0.4468 0.98083 0.05495 0.0
H2368 H 0.32587 0.89808 0.04402 0.0
H2369 H 0.49971 0.03609 0.05217 0.0
H2370 H 0.15431 0.66047 0.96147 0.0
H2371 H 0.2305 0.61361 0.03229 0.0
H2372 H 0.08155 0.63968 0.94004 0.0
H2373 H 0.50477 0.95864 0.07057 0.0
H2374 H 0.44241 0.86852 0.09224 0.0
H2375 H 0.16439 0.91032 1.00591 0.0
H2376 H 0.33351 0.51753 0.0515 0.0
H2377 H 0.2227 0.43614 0.05131 0.0
H2378 H 0.97601 0.81414 0.94189 0.0
H2379 H 0.45202 0.73628 0.09439 0.0
H2380 H 0.0648 0.00318 0.97796 0.0
H2381 H 0.12298 0.00851 1.00015 0.0
N2382 N 0.14076 0.85881 0.98632 0.0
C2383 C 0.09748 0.84761 0.97487 0.0
C2384 C 0.14165 0.90943 0.99599 0.0
C2385 C 0.08112 0.95943 0.98052 0.0
C2386 C 0.11605 0.96368 0.99294 0.0
C2387 C 0.06535 0.89706 0.97175 0.0
H2388 H -0.00288 0.92269 0.9572 0.0
N2389 N 0.12733 0.74842 0.96847 0.0
C2390 C 0.08877 0.7894 0.96588 0.0
C2391 C 0.04193 0.72152 0.94458 0.0
C2392 C 0.04469 0.77667 0.95389 0.0
C2393 C 0.12381 0.69351 0.95946 0.0
C2394 C 0.08358 0.68184 0.94724 0.0
O2395 O 0.29771 0.77091 0.00937 0.0
O2396 O 0.35076 0.85121 0.99303 0.0
O2397 O 0.28069 0.75908 0.97194 0.0
O2398 O 0.2616 0.86028 0.96765 0.0
O2399 O 0.29455 0.9119 0.0188 0.0
O2400 O 0.28837 0.9235 0.99554 0.0
O2401 O 0.08894 0.7062 0.9938 0.0
O2402 O 0.09319 0.72034 0.01717 0.0
O2403 O 0.18777 0.85442 0.03903 0.0
O2404 O 0.09987 0.73141 0.03623 0.0
O2405 O 0.19513 0.66865 0.9935 0.0
O2406 O 0.17392 0.65254 0.01695 0.0
C2407 C 0.36541 0.82408 1.00393 0.0
C2408 C 0.31187 0.95761 0.0076 0.0
C2409 C 0.33077 0.82931 0.95055 0.0
C2410 C 0.36344 0.77962 0.93037 0.0
C2411 C 0.40514 0.91525 0.93208 0.0
C2412 C 0.3607 0.90249 0.9439 0.0
C2413 C 0.42186 0.85792 0.92764 0.0
C2414 C 0.33069 0.76644 0.94357 0.0
C2415 C 0.28993 0.81541 0.96355 0.0
C2416 C 0.00963 0.82327 0.95107 0.0
C2417 C 0.02164 0.88484 0.95981 0.0
H2418 H 0.00963 0.7106 0.93519 0.0
C2419 C 0.05122 0.69177 1.00564 0.0
C2420 C 0.17706 0.62413 1.00477 0.0
C2421 C 0.09058 0.78969 0.05785 0.0
C2422 C 0.09447 0.78634 0.0838 0.0
C2423 C 0.97006 0.74173 0.07119 0.0
C2424 C 0.00875 0.76022 0.05891 0.0
C2425 C 0.01167 0.75336 0.08316 0.0
C2426 C 0.13476 0.80251 0.07066 0.0
C2427 C 0.11757 0.79709 0.04281 0.0
H2428 H 0.42862 0.96908 0.92628 0.0
H2429 H 0.35312 0.95005 0.94804 0.0
H2430 H 0.45928 0.87237 0.91884 0.0
H2431 H 0.29141 0.70757 0.94723 0.0
H2432 H 0.90554 0.71319 0.07138 0.0
H2433 H 0.97296 0.74643 0.04994 0.0
H2434 H 0.97716 0.72865 0.09222 0.0
H2435 H 0.1978 0.8217 0.07053 0.0
C2436 C 0.26406 0.59957 0.05287 0.0
C2437 C 0.12584 0.52598 0.07097 0.0
C2438 C 0.16862 0.52234 0.05736 0.0
C2439 C 0.1609 0.59311 0.08352 0.0
C2440 C 0.31281 0.71808 0.07318 0.0
C2441 C 0.24332 0.68338 0.08489 0.0
N2442 N 0.33837 0.60037 0.03577 0.0
C2443 C 0.44131 0.66165 0.03303 0.0
C2444 C 0.4527 0.79386 0.06148 0.0
C2445 C 0.50182 0.77191 0.04655 0.0
Gd2446 Gd 0.19661 0.42214 0.98638 0.0
Gd2447 Gd 0.21488 0.44378 0.02728 0.0
N2448 N 0.12328 0.45699 0.04773 0.0
C2449 C 0.04871 0.50304 0.06709 0.0
C2450 C 0.0432 0.43268 0.04585 0.0
C2451 C 0.01118 0.46442 0.05498 0.0
H2452 H 0.09394 0.42628 0.04405 0.0
H2453 H 0.95592 0.46207 0.05221 0.0
H2454 H 0.33155 0.49223 0.96148 0.0
H2455 H 0.37837 0.61535 0.03229 0.0
H2456 H 0.35242 0.44029 0.94006 0.0
H2457 H 0.0333 0.54446 0.07061 0.0
H2458 H 0.12338 0.57231 0.09225 0.0
H2459 H 0.0815 0.25232 1.00592 0.0
H2460 H 0.47439 0.81443 0.05148 0.0
H2461 H 0.55575 0.78495 0.0513 0.0
H2462 H 0.17784 0.16032 0.9419 0.0
H2463 H 0.25563 0.71414 0.09439 0.0
H2464 H 0.9887 0.06 0.97797 0.0
H2465 H 0.98333 0.11278 1.00016 0.0
N2466 N 0.1331 0.28029 0.98633 0.0
C2467 C 0.14432 0.24823 0.97488 0.0
C2468 C 0.08243 0.23052 0.996 0.0
C2469 C 0.03246 0.12005 0.98053 0.0
C2470 C 0.02818 0.1507 0.99295 0.0
C2471 C 0.09485 0.16666 0.97176 0.0
H2472 H 0.06924 0.07287 0.95721 0.0
N2473 N 0.24357 0.37729 0.96848 0.0
C2474 C 0.20257 0.29775 0.9659 0.0
C2475 C 0.27052 0.31885 0.9446 0.0
C2476 C 0.21532 0.26644 0.9539 0.0
C2477 C 0.29851 0.4287 0.95948 0.0
C2478 C 0.31022 0.40016 0.94726 0.0
O2479 O 0.22099 0.52519 0.00937 0.0
O2480 O 0.14075 0.49797 0.99304 0.0
O2481 O 0.23286 0.51998 0.97193 0.0
O2482 O 0.13169 0.39969 0.96767 0.0
O2483 O 0.08004 0.38107 0.01881 0.0
O2484 O 0.06848 0.36325 0.99555 0.0
O2485 O 0.28573 0.3811 0.99381 0.0
O2486 O 0.27166 0.37133 0.01719 0.0
O2487 O 0.13745 0.33177 0.03905 0.0
O2488 O 0.26042 0.36678 0.03623 0.0
O2489 O 0.32331 0.52489 0.99352 0.0
O2490 O 0.33939 0.51977 0.01697 0.0
C2491 C 0.16781 0.53971 1.00394 0.0
C2492 C 0.03435 0.35265 0.00761 0.0
C2493 C 0.16261 0.49978 0.95056 0.0
C2494 C 0.21229 0.58204 0.93035 0.0
C2495 C 0.07672 0.4881 0.93208 0.0
C2496 C 0.08945 0.45649 0.94391 0.0
C2497 C 0.13401 0.56215 0.92762 0.0
C2498 C 0.22547 0.56252 0.94356 0.0
C2499 C 0.17654 0.47288 0.96356 0.0
C2500 C 0.1687 0.18479 0.95108 0.0
C2501 C 0.10709 0.13521 0.95982 0.0
H2502 H 0.28147 0.2975 0.9352 0.0
C2503 C 0.30019 0.35786 1.00565 0.0
C2504 C 0.36781 0.55135 1.00478 0.0
C2505 C 0.20215 0.29927 0.05786 0.0
C2506 C 0.20563 0.30665 0.08381 0.0
C2507 C 0.25032 0.22689 0.0712 0.0
C2508 C 0.23169 0.24696 0.05893 0.0
C2509 C 0.23874 0.25693 0.08317 0.0
C2510 C 0.18934 0.33067 0.07066 0.0
C2511 C 0.19473 0.31883 0.04282 0.0
H2512 H 0.02294 0.45765 0.92627 0.0
H2513 H 0.0419 0.40138 0.94806 0.0
H2514 H 0.11957 0.58509 0.91882 0.0
H2515 H 0.28433 0.58209 0.9472 0.0
H2516 H 0.27893 0.19097 0.07139 0.0
H2517 H 0.24546 0.22493 0.04995 0.0
H2518 H 0.26352 0.24721 0.09222 0.0
H2519 H 0.17008 0.37447 0.07053 0.0
C2520 C 0.09781 0.24625 0.47333 0.0
C2521 C 0.04298 0.26673 0.45277 0.0
C2522 C 0.08736 0.29649 0.46478 0.0
C2523 C 0.01129 0.18634 0.44931 0.0
C2524 C 0.06745 0.16559 0.46972 0.0
C2525 C 0.02549 0.13626 0.45756 0.0
N2526 N 0.14104 0.27694 0.48483 0.0
C2527 C 0.14288 0.22602 0.49419 0.0
C2528 C 0.08316 0.11785 0.47825 0.0
C2529 C 0.11753 0.14663 0.49079 0.0
Gd2530 Gd 0.22716 0.44309 0.52607 0.0
Gd2531 Gd 0.21775 0.41915 0.4855 0.0
N2532 N 0.12458 0.37545 0.4678 0.0
C2533 C 0.03623 0.31967 0.44412 0.0
C2534 C 0.1189 0.42771 0.45929 0.0
C2535 C 0.07566 0.40032 0.44728 0.0
H2536 H 0.14926 0.49088 0.46159 0.0
H2537 H 0.07041 0.4406 0.44058 0.0
H2538 H 0.33374 0.42811 0.5427 0.0
H2539 H 0.16602 0.24653 0.50413 0.0
H2540 H 0.50836 0.46549 0.55084 0.0
H2541 H 0.00263 0.29937 0.43482 0.0
H2542 H 0.97837 0.16351 0.44002 0.0
H2543 H 0.15373 0.62752 0.52617 0.0
H2544 H 0.06669 0.05815 0.47544 0.0
H2545 H 0.12482 0.1078 0.49779 0.0
H2546 H 0.44898 0.57759 0.59019 0.0
H2547 H 0.00348 0.07506 0.45444 0.0
H2548 H 0.32614 0.81035 0.5497 0.0
H2549 H 0.21439 0.77477 0.55035 0.0
N2550 N 0.25744 0.59797 0.53387 0.0
C2551 C 0.33319 0.60121 0.55093 0.0
C2552 C 0.21052 0.65554 0.53132 0.0
C2553 C 0.32791 0.79003 0.55972 0.0
C2554 C 0.25667 0.76505 0.54504 0.0
C2555 C 0.39777 0.71955 0.57123 0.0
H2556 H 0.44518 0.71771 0.59249 0.0
N2557 N 0.3357 0.45999 0.54619 0.0
C2558 C 0.35577 0.52668 0.55547 0.0
C2559 C 0.4577 0.5101 0.5653 0.0
C2560 C 0.40276 0.53233 0.56905 0.0
C2561 C 0.39095 0.43468 0.54455 0.0
C2562 C 0.45564 0.4685 0.5535 0.0
O2563 O 0.08956 0.38063 0.49383 0.0
O2564 O 0.0962 0.37112 0.51716 0.0
O2565 O 0.19183 0.33204 0.53832 0.0
O2566 O 0.10443 0.36758 0.53516 0.0
O2567 O 0.18805 0.51855 0.4924 0.0
O2568 O 0.19305 0.53286 0.51606 0.0
O2569 O 0.293 0.51547 0.50717 0.0
O2570 O 0.35143 0.50289 0.49059 0.0
O2571 O 0.27991 0.51814 0.47103 0.0
O2572 O 0.25741 0.39634 0.46685 0.0
O2573 O 0.2979 0.37995 0.51791 0.0
O2574 O 0.28817 0.36065 0.49473 0.0
C2575 C 0.05338 0.35879 0.50585 0.0
C2576 C 0.18232 0.55451 0.50362 0.0
C2577 C 0.095 0.30304 0.55728 0.0
C2578 C 0.09698 0.3118 0.58334 0.0
C2579 C 0.97399 0.23001 0.5706 0.0
C2580 C 0.01324 0.25067 0.55834 0.0
C2581 C 0.01426 0.26217 0.58262 0.0
C2582 C 0.13842 0.33467 0.5702 0.0
C2583 C 0.12215 0.32077 0.54212 0.0
C2584 C 0.43221 0.59935 0.58155 0.0
C2585 C 0.43409 0.6876 0.58296 0.0
H2586 H 0.51453 0.55294 0.56851 0.0
C2587 C 0.36384 0.54029 0.50185 0.0
C2588 C 0.31326 0.35072 0.50673 0.0
C2589 C 0.33014 0.49363 0.44988 0.0
C2590 C 0.37445 0.57716 0.42989 0.0
C2591 C 0.39532 0.46724 0.43154 0.0
C2592 C 0.35182 0.44318 0.44348 0.0
C2593 C 0.4214 0.5431 0.42668 0.0
C2594 C 0.34182 0.56174 0.44307 0.0
C2595 C 0.28858 0.47003 0.46281 0.0
H2596 H 0.90952 0.19347 0.5707 0.0
H2597 H 0.97783 0.2292 0.54933 0.0
H2598 H 0.97868 0.25223 0.59158 0.0
H2599 H 0.20176 0.3775 0.57013 0.0
H2600 H 0.41379 0.42962 0.42663 0.0
H2601 H 0.34153 0.38884 0.44823 0.0
H2602 H 0.45778 0.56029 0.41772 0.0
H2603 H 0.30688 0.5872 0.44648 0.0
C2604 C 0.74455 0.85179 0.47284 0.0
C2605 C 0.72404 0.77476 0.45248 0.0
C2606 C 0.69438 0.79008 0.46445 0.0
C2607 C 0.80464 0.82295 0.44904 0.0
C2608 C 0.82502 0.90223 0.46914 0.0
C2609 C 0.8547 0.88803 0.45715 0.0
N2610 N 0.71409 0.86471 0.48433 0.0
C2611 C 0.76522 0.91835 0.49357 0.0
C2612 C 0.87273 0.96651 0.4775 0.0
C2613 C 0.84426 0.97277 0.49002 0.0
Gd2614 Gd 0.5482 0.78225 0.52608 0.0
Gd2615 Gd 0.5718 0.79759 0.48528 0.0
N2616 N 0.61555 0.74813 0.46755 0.0
C2617 C 0.67072 0.71528 0.44382 0.0
C2618 C 0.56311 0.69014 0.45906 0.0
C2619 C 0.58987 0.67483 0.44694 0.0
H2620 H 0.50001 0.65725 0.4614 0.0
H2621 H 0.54847 0.63043 0.44011 0.0
H2622 H 0.56282 0.90325 0.54274 0.0
H2623 H 0.74529 0.92116 0.50355 0.0
H2624 H 0.52543 0.04017 0.55111 0.0
H2625 H 0.69084 0.70205 0.43449 0.0
H2626 H 0.82771 0.8121 0.43985 0.0
H2627 H 0.36395 0.52401 0.5261 0.0
H2628 H 0.93242 0.0095 0.47461 0.0
H2629 H 0.88316 0.01942 0.49693 0.0
H2630 H 0.41399 0.86736 0.59034 0.0
H2631 H 0.91614 0.92666 0.45409 0.0
H2632 H 0.18047 0.51316 0.54964 0.0
H2633 H 0.21665 0.43729 0.55035 0.0
N2634 N 0.39334 0.65709 0.53384 0.0
C2635 C 0.39008 0.7293 0.55094 0.0
C2636 C 0.33584 0.55266 0.53125 0.0
C2637 C 0.20126 0.53498 0.55967 0.0
C2638 C 0.22628 0.48906 0.54497 0.0
C2639 C 0.27162 0.675 0.57126 0.0
H2640 H 0.27374 0.72396 0.59259 0.0
N2641 N 0.531 0.87315 0.54624 0.0
C2642 C 0.46449 0.82624 0.55552 0.0
C2643 C 0.48133 0.94455 0.56552 0.0
C2644 C 0.45886 0.86717 0.56915 0.0
C2645 C 0.55608 0.95373 0.54465 0.0
C2646 C 0.52245 0.98434 0.5537 0.0
O2647 O 0.61165 0.70889 0.49367 0.0
O2648 O 0.61969 0.72314 0.51706 0.0
O2649 O 0.65915 0.85859 0.53826 0.0
O2650 O 0.62464 0.7359 0.53513 0.0
O2651 O 0.47296 0.6685 0.49238 0.0
O2652 O 0.45811 0.65883 0.51605 0.0
O2653 O 0.47908 0.77877 0.50701 0.0
O2654 O 0.48773 0.84711 0.49033 0.0
O2655 O 0.47167 0.75837 0.47113 0.0
O2656 O 0.59178 0.85824 0.46635 0.0
O2657 O 0.61106 0.91603 0.51795 0.0
O2658 O 0.62927 0.92646 0.49472 0.0
C2659 C 0.63291 0.69379 0.50569 0.0
C2660 C 0.43666 0.62675 0.5036 0.0
C2661 C 0.68932 0.79181 0.55724 0.0
C2662 C 0.68087 0.78507 0.5833 0.0
C2663 C 0.76484 0.7467 0.57054 0.0
C2664 C 0.74331 0.76444 0.55829 0.0
C2665 C 0.73205 0.75378 0.58257 0.0
C2666 C 0.65704 0.80262 0.57016 0.0
C2667 C 0.67111 0.80063 0.54207 0.0
C2668 C 0.39191 0.82931 0.58165 0.0
C2669 C 0.30364 0.74301 0.58304 0.0
H2670 H 0.4392 0.9589 0.56897 0.0
C2671 C 0.45202 0.82327 0.50175 0.0
C2672 C 0.6396 0.96103 0.5068 0.0
C2673 C 0.49085 0.82788 0.44965 0.0
C2674 C 0.40498 0.78036 0.43005 0.0
C2675 C 0.49932 0.91638 0.43184 0.0
C2676 C 0.53416 0.90055 0.44295 0.0
C2677 C 0.42535 0.85894 0.42742 0.0
C2678 C 0.42475 0.76685 0.44315 0.0
C2679 C 0.51797 0.81401 0.46258 0.0
H2680 H 0.80228 0.71976 0.57061 0.0
H2681 H 0.76522 0.7511 0.54927 0.0
H2682 H 0.74241 0.72834 0.59152 0.0
H2683 H 0.61305 0.82164 0.5701 0.0
H2684 H 0.52683 0.97236 0.42662 0.0
H2685 H 0.59093 0.94592 0.44681 0.0
H2686 H 0.40125 0.8738 0.41886 0.0
H2687 H 0.40505 0.70807 0.44676 0.0
C2688 C 0.14122 0.8944 0.47357 0.0
C2689 C 0.21679 0.95077 0.45309 0.0
C2690 C 0.20184 0.90522 0.46497 0.0
C2691 C 0.16858 0.98329 0.44981 0.0
C2692 C 0.09092 0.92507 0.47008 0.0
C2693 C 0.10402 0.96832 0.45805 0.0
N2694 N 0.12845 0.8502 0.48496 0.0
C2695 C 0.07578 0.848 0.49437 0.0
C2696 C 0.02696 0.90827 0.47858 0.0
C2697 C 0.02151 0.87326 0.49106 0.0
Gd2698 Gd 0.20981 0.76445 0.52612 0.0
Gd2699 Gd 0.19399 0.77336 0.48538 0.0
N2700 N 0.24334 0.86752 0.46782 0.0
C2701 C 0.27618 0.95776 0.44434 0.0
C2702 C 0.30138 0.87389 0.45925 0.0
C2703 C 0.31708 0.91774 0.44731 0.0
H2704 H 0.33429 0.84348 0.46144 0.0
H2705 H 0.36232 0.92305 0.44051 0.0
H2706 H 0.08825 0.6574 0.54281 0.0
H2707 H 0.07338 0.8247 0.50429 0.0
H2708 H 0.95138 0.48242 0.55092 0.0
H2709 H 0.28947 0.99202 0.43511 0.0
H2710 H 0.17926 0.01736 0.44067 0.0
H2711 H 0.46722 0.83758 0.52611 0.0
H2712 H 0.98314 0.92427 0.47579 0.0
H2713 H 0.97531 0.86538 0.49808 0.0
H2714 H 0.12384 0.54351 0.59032 0.0
H2715 H 0.06495 0.99064 0.45502 0.0
H2716 H 0.47814 0.6648 0.54959 0.0
H2717 H 0.55403 0.77677 0.55029 0.0
N2718 N 0.33424 0.73394 0.53388 0.0
C2719 C 0.26202 0.65812 0.55097 0.0
C2720 C 0.43859 0.78082 0.53126 0.0
C2721 C 0.45627 0.66332 0.55962 0.0
C2722 C 0.50221 0.73461 0.54495 0.0
C2723 C 0.31618 0.59337 0.57123 0.0
H2724 H 0.26701 0.54581 0.59251 0.0
N2725 N 0.11826 0.65556 0.5463 0.0
C2726 C 0.16504 0.63555 0.55556 0.0
C2727 C 0.04708 0.53272 0.56534 0.0
C2728 C 0.12392 0.5884 0.56914 0.0
C2729 C 0.03777 0.60001 0.54467 0.0
C2730 C 0.00717 0.53503 0.55359 0.0
O2731 O 0.28347 0.90169 0.49358 0.0
O2732 O 0.2682 0.89522 0.51694 0.0
O2733 O 0.13428 0.80012 0.53829 0.0
O2734 O 0.25752 0.88717 0.53528 0.0
O2735 O 0.32304 0.80282 0.49243 0.0
O2736 O 0.33361 0.79883 0.5161 0.0
O2737 O 0.21551 0.69828 0.50721 0.0
O2738 O 0.14387 0.63986 0.49063 0.0
O2739 O 0.23202 0.71318 0.47097 0.0
O2740 O 0.13112 0.73255 0.46651 0.0
O2741 O 0.07591 0.69384 0.518 0.0
O2742 O 0.06552 0.70284 0.49479 0.0
C2743 C 0.29793 0.93803 0.50556 0.0
C2744 C 0.36534 0.80896 0.50363 0.0
C2745 C 0.20136 0.89654 0.55732 0.0
C2746 C 0.20836 0.89494 0.58338 0.0
C2747 C 0.24656 0.01722 0.57059 0.0
C2748 C 0.22823 0.97783 0.55835 0.0
C2749 C 0.23987 0.97743 0.58262 0.0
C2750 C 0.19082 0.85353 0.57024 0.0
C2751 C 0.19278 0.86959 0.54216 0.0
C2752 C 0.16175 0.55909 0.58162 0.0
C2753 C 0.24801 0.55698 0.58298 0.0
H2754 H 0.03364 0.47568 0.56854 0.0
C2755 C 0.16912 0.62756 0.50188 0.0
C2756 C 0.03101 0.67819 0.50685 0.0
C2757 C 0.16239 0.66317 0.44955 0.0
C2758 C 0.20968 0.62267 0.43014 0.0
C2759 C 0.0742 0.58441 0.43161 0.0
C2760 C 0.09057 0.63593 0.44262 0.0
C2761 C 0.1307 0.56596 0.42736 0.0
C2762 C 0.2224 0.65428 0.44337 0.0
C2763 C 0.17569 0.70348 0.46256 0.0
H2764 H 0.27346 0.08158 0.57064 0.0
H2765 H 0.24077 0.01295 0.54933 0.0
H2766 H 0.26557 0.01324 0.59155 0.0
H2767 H 0.17194 0.79055 0.57021 0.0
H2768 H 0.0185 0.55677 0.42634 0.0
H2769 H 0.04568 0.64889 0.44626 0.0
H2770 H 0.11557 0.52671 0.41882 0.0
H2771 H 0.28067 0.68755 0.44757 0.0
C2772 C 0.91151 0.44097 0.37284 0.0
C2773 C 0.92713 0.384 0.3936 0.0
C2774 C 0.95958 0.42861 0.38167 0.0
C2775 C 0.84609 0.35244 0.39651 0.0
C2776 C 0.82993 0.41011 0.37588 0.0
C2777 C 0.79795 0.36694 0.38785 0.0
N2778 N 0.94471 0.48496 0.36151 0.0
C2779 C 0.8959 0.48664 0.35172 0.0
C2780 C 0.78343 0.42497 0.36688 0.0
C2781 C 0.81544 0.46023 0.3545 0.0
Gd2782 Gd 0.1105 0.57209 0.31996 0.0
Gd2783 Gd 0.08688 0.55955 0.36163 0.0
N2784 N 0.03869 0.4629 0.3789 0.0
C2785 C 0.97796 0.37676 0.40271 0.0
C2786 C 0.08829 0.45431 0.38767 0.0
C2787 C 0.05902 0.41396 0.39988 0.0
H2788 H 0.15148 0.48171 0.38558 0.0
H2789 H 0.0988 0.41042 0.40709 0.0
H2790 H 0.10321 0.68515 0.30327 0.0
H2791 H 0.91865 0.50954 0.34185 0.0
H2792 H 0.14332 0.85732 0.29356 0.0
H2793 H 0.95568 0.34453 0.4121 0.0
H2794 H 0.82095 0.31863 0.40563 0.0
H2795 H 0.28425 0.48712 0.31987 0.0
H2796 H 0.72204 0.40636 0.36913 0.0
H2797 H 0.77808 0.46674 0.3471 0.0
H2798 H 0.25111 0.78608 0.25503 0.0
H2799 H 0.73614 0.34415 0.39049 0.0
H2800 H 0.47086 0.65259 0.29606 0.0
H2801 H 0.43054 0.54004 0.29575 0.0
N2802 N 0.26152 0.59399 0.3119 0.0
C2803 C 0.26835 0.67129 0.29478 0.0
C2804 C 0.31486 0.54324 0.31455 0.0
C2805 C 0.45187 0.65595 0.28602 0.0
C2806 C 0.4237 0.58428 0.30084 0.0
C2807 C 0.38694 0.73118 0.27445 0.0
H2808 H 0.38781 0.78483 0.25306 0.0
N2809 N 0.13347 0.6834 0.29958 0.0
C2810 C 0.19776 0.69879 0.2902 0.0
C2811 C 0.1759 0.79768 0.2785 0.0
C2812 C 0.20552 0.74635 0.27638 0.0
C2813 C 0.11726 0.74512 0.30131 0.0
C2814 C 0.14758 0.8052 0.29132 0.0
O2815 O 0.04697 0.43104 0.35347 0.0
O2816 O 0.04408 0.43889 0.32984 0.0
O2817 O 0.00256 0.54859 0.3078 0.0
O2818 O 0.02326 0.45195 0.31214 0.0
O2819 O 0.1831 0.53348 0.35299 0.0
O2820 O 0.20323 0.54106 0.32957 0.0
O2821 O 0.15405 0.641 0.33906 0.0
O2822 O 0.19588 0.68405 0.35808 0.0
O2823 O 0.18155 0.6086 0.37669 0.0
O2824 O 0.06737 0.60522 0.38031 0.0
O2825 O 0.04732 0.64149 0.32887 0.0
O2826 O 0.03097 0.63336 0.3523 0.0
C2827 C 0.02791 0.39497 0.34142 0.0
C2828 C 0.22221 0.53 0.34212 0.0
C2829 C 0.97018 0.44887 0.28972 0.0
C2830 C 0.97188 0.45132 0.26369 0.0
C2831 C 0.93161 0.33315 0.27641 0.0
C2832 C 0.93807 0.36647 0.28883 0.0
C2833 C 0.91856 0.37093 0.26568 0.0
C2834 C -0.00226 0.49414 0.27671 0.0
C2835 C 0.98317 0.47571 0.30464 0.0
C2836 C 0.272 0.77208 0.26396 0.0
C2837 C 0.35784 0.77071 0.26265 0.0
H2838 H 0.19102 0.84336 0.27103 0.0
C2839 C 0.21495 0.69975 0.34564 0.0
C2840 C 0.01896 0.65697 0.34022 0.0
C2841 C 0.16594 0.65886 0.39815 0.0
C2842 C 0.24263 0.67968 0.41863 0.0
C2843 C 0.16797 0.74389 0.41605 0.0
C2844 C 0.13094 0.69772 0.40457 0.0
C2845 C 0.23606 0.74747 0.42102 0.0
C2846 C 0.22207 0.64793 0.40536 0.0
C2847 C 0.13743 0.62278 0.38492 0.0
H2848 H 0.97298 0.31213 0.27532 0.0
H2849 H 0.93171 0.33139 0.29766 0.0
H2850 H 0.86257 0.36616 0.26818 0.0
H2851 H 0.0381 0.55807 0.27669 0.0
H2852 H 0.14309 0.77384 0.42176 0.0
H2853 H 0.07721 0.69385 0.40049 0.0
H2854 H 0.26059 0.78274 0.43003 0.0
H2855 H 0.23229 0.60088 0.40201 0.0
C2856 C 0.547 0.4663 0.37333 0.0
C2857 C 0.60418 0.53977 0.39399 0.0
C2858 C 0.56014 0.52755 0.38199 0.0
C2859 C 0.6352 0.48994 0.39706 0.0
C2860 C 0.5773 0.41532 0.37651 0.0
C2861 C 0.62064 0.42695 0.38847 0.0
N2862 N 0.50442 0.45629 0.36185 0.0
C2863 C 0.50338 0.40587 0.35211 0.0
C2864 C 0.5633 0.35435 0.36751 0.0
C2865 C 0.52922 0.35151 0.35503 0.0
Gd2866 Gd 0.41937 0.53678 0.31991 0.0
Gd2867 Gd 0.43195 0.52609 0.36145 0.0
N2868 N 0.52758 0.57355 0.37892 0.0
C2869 C 0.61158 0.59845 0.40297 0.0
C2870 C 0.53701 0.63279 0.38751 0.0
C2871 C 0.57534 0.64299 0.39991 0.0
H2872 H 0.51117 0.6697 0.38517 0.0
H2873 H 0.5782 0.68628 0.40707 0.0
H2874 H 0.30632 0.41631 0.30325 0.0
H2875 H 0.48159 0.40617 0.34217 0.0
H2876 H 0.13403 0.28426 0.29361 0.0
H2877 H 0.64301 0.60825 0.41244 0.0
H2878 H 0.66894 0.49873 0.40621 0.0
H2879 H 0.50435 0.79543 0.31982 0.0
H2880 H 0.58217 0.31192 0.3698 0.0
H2881 H 0.52346 0.30791 0.34763 0.0
H2882 H 0.20523 0.46344 0.25506 0.0
H2883 H 0.64393 0.38833 0.39113 0.0
H2884 H 0.3388 0.81658 0.29607 0.0
H2885 H 0.4513 0.88884 0.29574 0.0
N2886 N 0.39743 0.66578 0.31187 0.0
C2887 C 0.32003 0.59536 0.29478 0.0
C2888 C 0.44821 0.76989 0.31451 0.0
C2889 C 0.33531 0.79424 0.28603 0.0
C2890 C 0.40708 0.83771 0.30083 0.0
C2891 C 0.26001 0.65408 0.27448 0.0
H2892 H 0.20632 0.60134 0.2531 0.0
N2893 N 0.30801 0.44833 0.29957 0.0
C2894 C 0.2925 0.49724 0.2902 0.0
C2895 C 0.19345 0.37647 0.27854 0.0
C2896 C 0.24483 0.45743 0.2764 0.0
C2897 C 0.24635 0.37038 0.30131 0.0
C2898 C 0.18615 0.34061 0.29136 0.0
O2899 O 0.56027 0.61453 0.35332 0.0
O2900 O 0.55243 0.60364 0.32971 0.0
O2901 O 0.44297 0.45237 0.30776 0.0
O2902 O 0.53952 0.56977 0.31209 0.0
O2903 O 0.45882 0.6484 0.35281 0.0
O2904 O 0.45014 0.6606 0.32944 0.0
O2905 O 0.35052 0.51169 0.33902 0.0
O2906 O 0.30662 0.50856 0.35803 0.0
O2907 O 0.38366 0.5751 0.37607 0.0
O2908 O 0.38561 0.46401 0.38022 0.0
O2909 O 0.34992 0.40429 0.32875 0.0
O2910 O 0.35776 0.396 0.35217 0.0
C2911 C 0.59622 0.63154 0.34128 0.0
C2912 C 0.46177 0.69083 0.34198 0.0
C2913 C 0.54269 0.51976 0.28968 0.0
C2914 C 0.54031 0.51907 0.26366 0.0
C2915 C 0.65844 0.59689 0.27636 0.0
C2916 C 0.62509 0.56999 0.28878 0.0
C2917 C 0.62067 0.54607 0.26564 0.0
C2918 C 0.49746 0.50211 0.27668 0.0
C2919 C 0.51582 0.50591 0.3046 0.0
C2920 C 0.21905 0.49822 0.26399 0.0
C2921 C 0.2204 0.58545 0.26269 0.0
H2922 H 0.1476 0.34589 0.2711 0.0
C2923 C 0.29138 0.51302 0.34561 0.0
C2924 C 0.33428 0.36038 0.34008 0.0
C2925 C 0.33238 0.51122 0.39757 0.0
C2926 C 0.31969 0.56692 0.4186 0.0
C2927 C 0.2418 0.42929 0.41496 0.0
C2928 C 0.28768 0.43678 0.40352 0.0
C2929 C 0.2465 0.49645 0.42049 0.0
C2930 C 0.35106 0.57869 0.40531 0.0
C2931 C 0.36886 0.51757 0.3845 0.0
H2932 H 0.67934 0.65926 0.27526 0.0
H2933 H 0.66016 0.59856 0.29762 0.0
H2934 H 0.62542 0.49484 0.26815 0.0
H2935 H 0.43356 0.47858 0.27665 0.0
H2936 H 0.20779 0.37456 0.42056 0.0
H2937 H 0.28904 0.38637 0.39915 0.0
H2938 H 0.2124 0.48612 0.42964 0.0
H2939 H 0.40421 0.63268 0.40243 0.0
C2940 C 0.52374 0.07861 0.37323 0.0
C2941 C 0.45133 0.06186 0.39404 0.0
C2942 C 0.46329 0.03017 0.38201 0.0
C2943 C 0.50111 0.1427 0.3971 0.0
C2944 C 0.57432 0.16001 0.37634 0.0
C2945 C 0.56338 0.19139 0.3884 0.0
N2946 N 0.53373 0.04612 0.36174 0.0
C2947 C 0.58339 0.09543 0.35192 0.0
C2948 C 0.63457 0.20717 0.36722 0.0
C2949 C 0.63715 0.17588 0.35473 0.0
Gd2950 Gd 0.45496 0.88087 0.31988 0.0
Gd2951 Gd 0.46594 0.90409 0.36159 0.0
N2952 N 0.4178 0.95146 0.37901 0.0
C2953 C 0.39252 0.01055 0.40301 0.0
C2954 C 0.35902 0.90144 0.38765 0.0
C2955 C 0.34775 0.92983 0.39993 0.0
H2956 H 0.32279 0.83852 0.38538 0.0
H2957 H 0.30357 0.88948 0.40699 0.0
H2958 H 0.57507 0.8882 0.30318 0.0
H2959 H 0.58307 0.073 0.342 0.0
H2960 H 0.70695 0.84794 0.29349 0.0
H2961 H 0.38246 0.03218 0.41245 0.0
H2962 H 0.4927 0.16749 0.4063 0.0
H2963 H 0.19612 0.70717 0.31989 0.0
H2964 H 0.67673 0.2686 0.36944 0.0
H2965 H 0.68022 0.2138 0.34727 0.0
H2966 H 0.52756 0.74 0.25498 0.0
H2967 H 0.60194 0.25326 0.39106 0.0
H2968 H 0.17477 0.52043 0.29612 0.0
H2969 H 0.10261 0.56082 0.2958 0.0
N2970 N 0.32568 0.72992 0.31188 0.0
C2971 C 0.39594 0.72297 0.29476 0.0
C2972 C 0.22159 0.67657 0.31456 0.0
C2973 C 0.19703 0.53937 0.28607 0.0
C2974 C 0.15368 0.56766 0.30089 0.0
C2975 C 0.3371 0.60422 0.27447 0.0
H2976 H 0.38969 0.60328 0.25307 0.0
N2977 N 0.54303 0.85791 0.2995 0.0
C2978 C 0.49402 0.79356 0.29014 0.0
C2979 C 0.61473 0.81537 0.27843 0.0
C2980 C 0.53373 0.78569 0.27632 0.0
C2981 C 0.62093 0.87408 0.30122 0.0
C2982 C 0.65061 0.84373 0.29125 0.0
O2983 O 0.37742 0.94396 0.35322 0.0
O2984 O 0.38781 0.94664 0.32958 0.0
O2985 O 0.5394 0.98884 0.30771 0.0
O2986 O 0.42219 0.96831 0.3121 0.0
O2987 O 0.34369 0.80795 0.35298 0.0
O2988 O 0.33123 0.78794 0.32955 0.0
O2989 O 0.48055 0.83773 0.33899 0.0
O2990 O 0.48216 0.79568 0.35798 0.0
O2991 O 0.42016 0.80898 0.37656 0.0
O2992 O 0.5315 0.92264 0.3802 0.0
O2993 O 0.58735 0.94433 0.32887 0.0
O2994 O 0.59551 0.96063 0.35229 0.0
C2995 C 0.36003 0.96255 0.34114 0.0
C2996 C 0.30116 0.76884 0.34212 0.0
C2997 C 0.47196 0.02138 0.28967 0.0
C2998 C 0.47272 0.01976 0.26366 0.0
C2999 C 0.39475 0.05989 0.27635 0.0
C3000 C 0.42151 0.05332 0.28878 0.0
C3001 C 0.44566 0.07309 0.26564 0.0
C3002 C 0.48971 0.99389 0.27668 0.0
C3003 C 0.48597 0.00837 0.30459 0.0
C3004 C 0.49285 0.71911 0.26393 0.0
C3005 C 0.40563 0.63324 0.26265 0.0
H3006 H 0.64532 0.80027 0.27096 0.0
C3007 C 0.47862 0.77683 0.34553 0.0
C3008 C 0.63109 0.97283 0.34022 0.0
C3009 C 0.48581 0.8236 0.39799 0.0
C3010 C 0.42809 0.74753 0.41846 0.0
C3011 C 0.56689 0.81896 0.41601 0.0
C3012 C 0.55963 0.85657 0.40443 0.0
C3013 C 0.50116 0.75125 0.4208 0.0
C3014 C 0.41799 0.76963 0.40524 0.0
C3015 C 0.47857 0.85275 0.3848 0.0
H3016 H 0.33241 0.01848 0.27523 0.0
H3017 H 0.39266 0.05949 0.29761 0.0
H3018 H 0.49684 0.12905 0.26816 0.0
H3019 H 0.51332 0.95357 0.27666 0.0
H3020 H 0.62069 0.84303 0.42199 0.0
H3021 H 0.61061 0.90896 0.40027 0.0
H3022 H 0.51034 0.72474 0.4297 0.0
H3023 H 0.362 0.76301 0.40198 0.0
loop_
_geom_bond_atom_site_label_1
_geom_bond_atom_site_label_2
_geom_bond_distance
_geom_bond_site_symmetry_2
_ccdc_geom_bond_type
C0 C2 1.422 . S
C0 C4 1.415 1_545 S
C0 N6 1.369 1_655 S
C1 C2 1.421 . S
C1 C3 1.417 1_545 S
C1 C13 1.422 . S
C2 C0 1.422 . S
C2 C1 1.421 . S
C2 N12 1.359 . S
C3 C1 1.417 1_565 S
C3 C5 1.329 . S
C3 H22 0.930 . S
C4 C0 1.415 1_565 S
C4 C5 1.437 . S
C4 C8 1.413 . S
C5 C3 1.329 . S
C5 C4 1.437 . S
C5 H27 0.929 . S
N6 C0 1.369 1_455 S
N6 C7 1.338 1_545 S
N6 Gd11 2.622 . S
C7 N6 1.338 1_565 S
C7 C9 1.378 . S
C7 H19 0.929 1_565 S
C8 C4 1.413 . S
C8 C9 1.348 1_655 S
C8 H24 0.931 . S
C9 C7 1.378 . S
C9 C8 1.348 1_455 S
C9 H25 0.930 . S
Gd10 N30 2.622 . S
Gd10 N37 2.570 . S
Gd10 O44 2.353 . S
Gd10 O45 2.468 . S
Gd10 O46 2.427 . S
Gd10 O48 2.388 . S
Gd10 O49 2.386 . S
Gd10 O53 2.307 . S
Gd10 C63 2.805 . S
Gd11 N6 2.622 . S
Gd11 N12 2.570 1_455 S
Gd11 O43 2.386 . S
Gd11 O47 2.307 . S
Gd11 O50 2.353 . S
Gd11 O51 2.468 . S
Gd11 O52 2.427 . S
Gd11 O54 2.388 . S
Gd11 C75 2.805 . S
N12 C2 1.359 . S
N12 Gd11 2.570 1_655 S
N12 C14 1.343 . S
C13 C1 1.422 . S
C13 C15 1.321 . S
C13 H21 0.931 . S
C14 N12 1.343 . S
C14 C15 1.390 . S
C14 H16 0.931 . S
C15 C13 1.321 . S
C15 C14 1.390 . S
C15 H17 0.930 . S
H16 C14 0.931 . S
H17 C15 0.930 . S
H18 C41 0.931 . S
H19 C7 0.929 1_545 S
H20 C42 0.930 . S
H21 C13 0.931 . S
H22 C3 0.930 . S
H23 C32 0.929 . S
H24 C8 0.931 . S
H25 C9 0.930 . S
H26 C64 0.930 . S
H27 C5 0.929 . S
H28 C33 0.931 . S
H29 C34 0.930 . S
N30 Gd10 2.622 . S
N30 C31 1.369 . S
N30 C32 1.338 . S
C31 N30 1.369 . S
C31 C35 1.415 . S
C31 C38 1.422 . S
C32 H23 0.929 . S
C32 N30 1.338 . S
C32 C34 1.378 . S
C33 H28 0.931 . S
C33 C34 1.348 . S
C33 C35 1.413 . S
C34 H29 0.930 . S
C34 C32 1.378 . S
C34 C33 1.348 . S
C35 C31 1.415 . S
C35 C33 1.413 . S
C35 C65 1.437 . S
H36 C65 0.929 . S
N37 Gd10 2.570 . S
N37 C38 1.359 . S
N37 C41 1.343 . S
C38 C31 1.422 . S
C38 N37 1.359 . S
C38 C40 1.421 . S
C39 C40 1.422 . S
C39 C42 1.321 . S
C39 H66 0.931 . S
C40 C38 1.421 . S
C40 C39 1.422 . S
C40 C64 1.417 . S
C41 H18 0.931 . S
C41 N37 1.343 . S
C41 C42 1.390 . S
C42 H20 0.930 . S
C42 C39 1.321 . S
C42 C41 1.390 . S
O43 Gd11 2.386 . S
O43 C55 1.265 1_455 S
O44 Gd10 2.353 . S
O44 C55 1.242 1_455 S
O45 Gd10 2.468 . S
O45 C63 1.263 . S
O46 Gd10 2.427 . S
O46 C63 1.252 . S
O47 Gd11 2.307 . S
O47 C56 1.261 . S
O48 Gd10 2.388 . S
O48 C56 1.252 . S
O49 Gd10 2.386 . S
O49 C67 1.265 . S
O50 Gd11 2.353 . S
O50 C67 1.242 . S
O51 Gd11 2.468 . S
O51 C75 1.263 . S
O52 Gd11 2.427 . S
O52 C75 1.252 . S
O53 Gd10 2.307 . S
O53 C68 1.261 . S
O54 Gd11 2.388 . S
O54 C68 1.252 . S
C55 O43 1.265 1_655 S
C55 O44 1.242 1_655 S
C56 O47 1.261 . S
C56 O48 1.252 . S
C57 C60 1.394 . S
C57 C62 1.370 . S
C57 C63 1.500 . S
C58 C61 1.383 1_455 S
C58 C62 1.395 . S
C59 C60 1.396 1_655 S
C59 C61 1.365 . S
C59 H76 0.929 . S
C60 C57 1.394 . S
C60 C59 1.396 1_455 S
C60 H77 0.930 . S
C61 C58 1.383 1_655 S
C61 C59 1.365 . S
C61 H78 0.931 . S
C62 C57 1.370 . S
C62 C58 1.395 . S
C62 H79 0.930 . S
C63 Gd10 2.805 . S
C63 O45 1.263 . S
C63 O46 1.252 . S
C63 C57 1.500 . S
C64 H26 0.930 . S
C64 C40 1.417 . S
C64 C65 1.329 . S
C65 C35 1.437 . S
C65 H36 0.929 . S
C65 C64 1.329 . S
H66 C39 0.931 . S
C67 O49 1.265 . S
C67 O50 1.242 . S
C68 O53 1.261 . S
C68 O54 1.252 . S
C69 C72 1.394 . S
C69 C74 1.370 . S
C69 C75 1.500 . S
C70 C73 1.383 . S
C70 C74 1.395 . S
C71 C72 1.396 . S
C71 C73 1.365 . S
C71 H80 0.929 . S
C72 C69 1.394 . S
C72 C71 1.396 . S
C72 H81 0.930 . S
C73 C70 1.383 . S
C73 C71 1.365 . S
C73 H82 0.931 . S
C74 C69 1.370 . S
C74 C70 1.395 . S
C74 H83 0.930 . S
C75 Gd11 2.805 . S
C75 O51 1.263 . S
C75 O52 1.252 . S
C75 C69 1.500 . S
H76 C59 0.929 . S
H77 C60 0.930 . S
H78 C61 0.931 . S
H79 C62 0.930 . S
H80 C71 0.929 . S
H81 C72 0.930 . S
H82 C73 0.931 . S
H83 C74 0.930 . S
C84 C86 1.422 . S
C84 C88 1.415 1_665 S
C84 N90 1.369 1_565 S
C85 C86 1.421 . S
C85 C87 1.417 1_655 S
C85 C97 1.422 . S
C86 C84 1.422 . S
C86 C85 1.421 . S
C86 N96 1.359 . S
C87 C85 1.417 1_455 S
C87 C89 1.329 . S
C87 H106 0.930 . S
C88 C84 1.415 1_445 S
C88 C89 1.437 1_545 S
C88 C92 1.413 . S
C89 C87 1.329 . S
C89 C88 1.437 1_565 S
C89 H111 0.929 . S
N90 C84 1.369 1_545 S
N90 C91 1.338 1_655 S
N90 Gd95 2.622 1_545 S
C91 N90 1.338 1_455 S
C91 C93 1.378 . S
C91 H103 0.929 1_455 S
C92 C88 1.413 . S
C92 C93 1.348 . S
C92 H108 0.931 . S
C93 C91 1.378 . S
C93 C92 1.348 . S
C93 H109 0.930 . S
Gd94 N114 2.622 . S
Gd94 N121 2.570 . S
Gd94 O128 2.353 . S
Gd94 O129 2.468 . S
Gd94 O130 2.427 . S
Gd94 O132 2.388 . S
Gd94 O133 2.386 . S
Gd94 O137 2.307 1_565 S
Gd94 C147 2.805 . S
Gd95 N90 2.622 1_565 S
Gd95 N96 2.570 . S
Gd95 O127 2.386 . S
Gd95 O131 2.307 . S
Gd95 O134 2.353 . S
Gd95 O135 2.468 . S
Gd95 O136 2.427 1_565 S
Gd95 O138 2.388 1_565 S
Gd95 C159 2.805 . S
N96 C86 1.359 . S
N96 Gd95 2.570 . S
N96 C98 1.343 . S
C97 C85 1.422 . S
C97 C99 1.321 . S
C97 H105 0.931 . S
C98 N96 1.343 . S
C98 C99 1.390 . S
C98 H100 0.931 . S
C99 C97 1.321 . S
C99 C98 1.390 . S
C99 H101 0.930 . S
H100 C98 0.931 . S
H101 C99 0.930 . S
H102 C125 0.931 . S
H103 C91 0.929 1_655 S
H104 C126 0.930 . S
H105 C97 0.931 . S
H106 C87 0.930 . S
H107 C116 0.929 . S
H108 C92 0.931 . S
H109 C93 0.930 . S
H110 C148 0.930 . S
H111 C89 0.929 . S
H112 C117 0.931 . S
H113 C118 0.930 . S
N114 Gd94 2.622 . S
N114 C115 1.369 . S
N114 C116 1.338 . S
C115 N114 1.369 . S
C115 C119 1.415 . S
C115 C122 1.422 . S
C116 H107 0.929 . S
C116 N114 1.338 . S
C116 C118 1.378 . S
C117 H112 0.931 . S
C117 C118 1.348 . S
C117 C119 1.413 . S
C118 H113 0.930 . S
C118 C116 1.378 . S
C118 C117 1.348 . S
C119 C115 1.415 . S
C119 C117 1.413 . S
C119 C149 1.437 . S
H120 C149 0.929 . S
N121 Gd94 2.570 . S
N121 C122 1.359 . S
N121 C125 1.343 1_565 S
C122 C115 1.422 . S
C122 N121 1.359 . S
C122 C124 1.421 . S
C123 C124 1.422 1_545 S
C123 C126 1.321 . S
C123 H150 0.931 . S
C124 C122 1.421 . S
C124 C123 1.422 1_565 S
C124 C148 1.417 . S
C125 H102 0.931 . S
C125 N121 1.343 1_545 S
C125 C126 1.390 . S
C126 H104 0.930 . S
C126 C123 1.321 . S
C126 C125 1.390 . S
O127 Gd95 2.386 . S
O127 C139 1.265 . S
O128 Gd94 2.353 . S
O128 C139 1.242 . S
O129 Gd94 2.468 . S
O129 C147 1.263 . S
O130 Gd94 2.427 . S
O130 C147 1.252 . S
O131 Gd95 2.307 . S
O131 C140 1.261 . S
O132 Gd94 2.388 . S
O132 C140 1.252 . S
O133 Gd94 2.386 . S
O133 C151 1.265 . S
O134 Gd95 2.353 . S
O134 C151 1.242 . S
O135 Gd95 2.468 . S
O135 C159 1.263 . S
O136 Gd95 2.427 1_545 S
O136 C159 1.252 1_545 S
O137 Gd94 2.307 1_545 S
O137 C152 1.261 . S
O138 Gd95 2.388 1_545 S
O138 C152 1.252 . S
C139 O127 1.265 . S
C139 O128 1.242 . S
C140 O131 1.261 . S
C140 O132 1.252 . S
C141 C144 1.394 . S
C141 C146 1.370 . S
C141 C147 1.500 . S
C142 C145 1.383 . S
C142 C146 1.395 . S
C143 C144 1.396 . S
C143 C145 1.365 . S
C143 H160 0.929 . S
C144 C141 1.394 . S
C144 C143 1.396 . S
C144 H161 0.930 . S
C145 C142 1.383 . S
C145 C143 1.365 . S
C145 H162 0.931 . S
C146 C141 1.370 . S
C146 C142 1.395 . S
C146 H163 0.930 . S
C147 Gd94 2.805 . S
C147 O129 1.263 . S
C147 O130 1.252 . S
C147 C141 1.500 . S
C148 H110 0.930 . S
C148 C124 1.417 . S
C148 C149 1.329 . S
C149 C119 1.437 . S
C149 H120 0.929 . S
C149 C148 1.329 . S
H150 C123 0.931 . S
C151 O133 1.265 . S
C151 O134 1.242 . S
C152 O137 1.261 . S
C152 O138 1.252 . S
C153 C156 1.394 1_565 S
C153 C158 1.370 . S
C153 C159 1.500 . S
C154 C157 1.383 . S
C154 C158 1.395 . S
C155 C156 1.396 . S
C155 C157 1.365 1_545 S
C155 H164 0.929 . S
C156 C153 1.394 1_545 S
C156 C155 1.396 . S
C156 H165 0.930 . S
C157 C154 1.383 . S
C157 C155 1.365 1_565 S
C157 H166 0.931 . S
C158 C153 1.370 . S
C158 C154 1.395 . S
C158 H167 0.930 . S
C159 Gd95 2.805 . S
C159 O135 1.263 . S
C159 O136 1.252 1_565 S
C159 C153 1.500 . S
H160 C143 0.929 . S
H161 C144 0.930 . S
H162 C145 0.931 . S
H163 C146 0.930 . S
H164 C155 0.929 . S
H165 C156 0.930 . S
H166 C157 0.931 . S
H167 C158 0.930 . S
C168 C170 1.422 . S
C168 C172 1.415 1_455 S
C168 N174 1.369 1_445 S
C169 C170 1.421 . S
C169 C171 1.417 . S
C169 C181 1.422 . S
C170 C168 1.422 . S
C170 C169 1.421 . S
C170 N180 1.359 . S
C171 C169 1.417 . S
C171 C173 1.329 . S
C171 H190 0.930 . S
C172 C168 1.415 1_655 S
C172 C173 1.437 1_655 S
C172 C176 1.413 . S
C173 C171 1.329 . S
C173 C172 1.437 1_455 S
C173 H195 0.929 . S
N174 C168 1.369 1_665 S
N174 C175 1.338 . S
N174 Gd179 2.622 1_655 S
C175 N174 1.338 . S
C175 C177 1.378 . S
C175 H187 0.929 . S
C176 C172 1.413 . S
C176 C177 1.348 1_545 S
C176 H192 0.931 . S
C177 C175 1.378 . S
C177 C176 1.348 1_565 S
C177 H193 0.930 . S
Gd178 N198 2.622 . S
Gd178 N205 2.570 . S
Gd178 O212 2.353 . S
Gd178 O213 2.468 . S
Gd178 O214 2.427 . S
Gd178 O216 2.388 . S
Gd178 O217 2.386 . S
Gd178 O221 2.307 1_455 S
Gd178 C231 2.805 . S
Gd179 N174 2.622 1_455 S
Gd179 N180 2.570 1_565 S
Gd179 O211 2.386 . S
Gd179 O215 2.307 . S
Gd179 O218 2.353 . S
Gd179 O219 2.468 . S
Gd179 O220 2.427 1_455 S
Gd179 O222 2.388 1_455 S
Gd179 C243 2.805 . S
N180 C170 1.359 . S
N180 Gd179 2.570 1_545 S
N180 C182 1.343 . S
C181 C169 1.422 . S
C181 C183 1.321 . S
C181 H189 0.931 . S
C182 N180 1.343 . S
C182 C183 1.390 . S
C182 H184 0.931 . S
C183 C181 1.321 . S
C183 C182 1.390 . S
C183 H185 0.930 . S
H184 C182 0.931 . S
H185 C183 0.930 . S
H186 C209 0.931 . S
H187 C175 0.929 . S
H188 C210 0.930 . S
H189 C181 0.931 . S
H190 C171 0.930 . S
H191 C200 0.929 . S
H192 C176 0.931 . S
H193 C177 0.930 . S
H194 C232 0.930 . S
H195 C173 0.929 . S
H196 C201 0.931 . S
H197 C202 0.930 . S
N198 Gd178 2.622 . S
N198 C199 1.369 . S
N198 C200 1.338 . S
C199 N198 1.369 . S
C199 C203 1.415 . S
C199 C206 1.422 . S
C200 H191 0.929 . S
C200 N198 1.338 . S
C200 C202 1.378 . S
C201 H196 0.931 . S
C201 C202 1.348 . S
C201 C203 1.413 . S
C202 H197 0.930 . S
C202 C200 1.378 . S
C202 C201 1.348 . S
C203 C199 1.415 . S
C203 C201 1.413 . S
C203 C233 1.437 . S
H204 C233 0.929 . S
N205 Gd178 2.570 . S
N205 C206 1.359 . S
N205 C209 1.343 1_455 S
C206 C199 1.422 . S
C206 N205 1.359 . S
C206 C208 1.421 . S
C207 C208 1.422 1_655 S
C207 C210 1.321 . S
C207 H234 0.931 . S
C208 C206 1.421 . S
C208 C207 1.422 1_455 S
C208 C232 1.417 . S
C209 H186 0.931 . S
C209 N205 1.343 1_655 S
C209 C210 1.390 . S
C210 H188 0.930 . S
C210 C207 1.321 . S
C210 C209 1.390 . S
O211 Gd179 2.386 . S
O211 C223 1.265 1_565 S
O212 Gd178 2.353 . S
O212 C223 1.242 1_565 S
O213 Gd178 2.468 . S
O213 C231 1.263 . S
O214 Gd178 2.427 . S
O214 C231 1.252 . S
O215 Gd179 2.307 . S
O215 C224 1.261 . S
O216 Gd178 2.388 . S
O216 C224 1.252 . S
O217 Gd178 2.386 . S
O217 C235 1.265 . S
O218 Gd179 2.353 . S
O218 C235 1.242 . S
O219 Gd179 2.468 . S
O219 C243 1.263 . S
O220 Gd179 2.427 1_655 S
O220 C243 1.252 1_655 S
O221 Gd178 2.307 1_655 S
O221 C236 1.261 . S
O222 Gd179 2.388 1_655 S
O222 C236 1.252 . S
C223 O211 1.265 1_545 S
C223 O212 1.242 1_545 S
C224 O215 1.261 . S
C224 O216 1.252 . S
C225 C228 1.394 . S
C225 C230 1.370 . S
C225 C231 1.500 . S
C226 C229 1.383 1_565 S
C226 C230 1.395 . S
C227 C228 1.396 1_545 S
C227 C229 1.365 . S
C227 H244 0.929 . S
C228 C225 1.394 . S
C228 C227 1.396 1_565 S
C228 H245 0.930 . S
C229 C226 1.383 1_545 S
C229 C227 1.365 . S
C229 H246 0.931 . S
C230 C225 1.370 . S
C230 C226 1.395 . S
C230 H247 0.930 . S
C231 Gd178 2.805 . S
C231 O213 1.263 . S
C231 O214 1.252 . S
C231 C225 1.500 . S
C232 H194 0.930 . S
C232 C208 1.417 . S
C232 C233 1.329 . S
C233 C203 1.437 . S
C233 H204 0.929 . S
C233 C232 1.329 . S
H234 C207 0.931 . S
C235 O217 1.265 . S
C235 O218 1.242 . S
C236 O221 1.261 . S
C236 O222 1.252 . S
C237 C240 1.394 1_455 S
C237 C242 1.370 . S
C237 C243 1.500 . S
C238 C241 1.383 . S
C238 C242 1.395 . S
C239 C240 1.396 . S
C239 C241 1.365 1_655 S
C239 H248 0.929 . S
C240 C237 1.394 1_655 S
C240 C239 1.396 . S
C240 H249 0.930 . S
C241 C238 1.383 . S
C241 C239 1.365 1_455 S
C241 H250 0.931 . S
C242 C237 1.370 . S
C242 C238 1.395 . S
C242 H251 0.930 . S
C243 Gd179 2.805 . S
C243 O219 1.263 . S
C243 O220 1.252 1_455 S
C243 C237 1.500 . S
H244 C227 0.929 . S
H245 C228 0.930 . S
H246 C229 0.931 . S
H247 C230 0.930 . S
H248 C239 0.929 . S
H249 C240 0.930 . S
H250 C241 0.931 . S
H251 C242 0.930 . S
C252 C254 1.422 . S
C252 C256 1.415 1_455 S
C252 N258 1.369 1_565 S
C253 C254 1.421 . S
C253 C255 1.417 1_455 S
C253 C265 1.422 . S
C254 C252 1.422 . S
C254 C253 1.421 . S
C254 N264 1.359 1_565 S
C255 C253 1.417 1_655 S
C255 C257 1.329 . S
C255 H274 0.930 . S
C256 C252 1.415 1_655 S
C256 C257 1.437 . S
C256 C260 1.413 . S
C257 C255 1.329 . S
C257 C256 1.437 . S
C257 H279 0.929 . S
N258 C252 1.369 1_545 S
N258 C259 1.338 . S
N258 Gd263 2.622 . S
C259 N258 1.338 . S
C259 C261 1.378 1_455 S
C259 H271 0.929 . S
C260 C256 1.413 . S
C260 C261 1.348 1_565 S
C260 H276 0.931 . S
C261 C259 1.378 1_655 S
C261 C260 1.348 1_545 S
C261 H277 0.930 . S
Gd262 N282 2.622 . S
Gd262 N289 2.570 . S
Gd262 O296 2.353 . S
Gd262 O297 2.468 . S
Gd262 O298 2.427 . S
Gd262 O300 2.388 . S
Gd262 O301 2.386 . S
Gd262 O305 2.307 . S
Gd262 C315 2.805 . S
Gd263 N258 2.622 . S
Gd263 N264 2.570 . S
Gd263 O295 2.386 . S
Gd263 O299 2.307 . S
Gd263 O302 2.353 . S
Gd263 O303 2.468 . S
Gd263 O304 2.427 . S
Gd263 O306 2.388 . S
Gd263 C327 2.805 . S
N264 C254 1.359 1_545 S
N264 Gd263 2.570 . S
N264 C266 1.343 1_545 S
C265 C253 1.422 . S
C265 C267 1.321 . S
C265 H273 0.931 . S
C266 N264 1.343 1_565 S
C266 C267 1.390 . S
C266 H268 0.931 . S
C267 C265 1.321 . S
C267 C266 1.390 . S
C267 H269 0.930 . S
H268 C266 0.931 . S
H269 C267 0.930 . S
H270 C293 0.931 . S
H271 C259 0.929 . S
H272 C294 0.930 . S
H273 C265 0.931 . S
H274 C255 0.930 . S
H275 C284 0.929 . S
H276 C260 0.931 . S
H277 C261 0.930 . S
H278 C316 0.930 . S
H279 C257 0.929 . S
H280 C285 0.931 . S
H281 C286 0.930 . S
N282 Gd262 2.622 . S
N282 C283 1.369 . S
N282 C284 1.338 . S
C283 N282 1.369 . S
C283 C287 1.415 . S
C283 C290 1.422 . S
C284 H275 0.929 . S
C284 N282 1.338 . S
C284 C286 1.378 . S
C285 H280 0.931 . S
C285 C286 1.348 . S
C285 C287 1.413 . S
C286 H281 0.930 . S
C286 C284 1.378 . S
C286 C285 1.348 . S
C287 C283 1.415 . S
C287 C285 1.413 . S
C287 C317 1.437 . S
H288 C317 0.929 . S
N289 Gd262 2.570 . S
N289 C290 1.359 . S
N289 C293 1.343 . S
C290 C283 1.422 . S
C290 N289 1.359 . S
C290 C292 1.421 . S
C291 C292 1.422 . S
C291 C294 1.321 . S
C291 H318 0.931 . S
C292 C290 1.421 . S
C292 C291 1.422 . S
C292 C316 1.417 . S
C293 H270 0.931 . S
C293 N289 1.343 . S
C293 C294 1.390 . S
C294 H272 0.930 . S
C294 C291 1.321 . S
C294 C293 1.390 . S
O295 Gd263 2.386 . S
O295 C307 1.265 1_545 S
O296 Gd262 2.353 . S
O296 C307 1.242 1_545 S
O297 Gd262 2.468 . S
O297 C315 1.263 . S
O298 Gd262 2.427 . S
O298 C315 1.252 . S
O299 Gd263 2.307 . S
O299 C308 1.261 . S
O300 Gd262 2.388 . S
O300 C308 1.252 . S
O301 Gd262 2.386 . S
O301 C319 1.265 . S
O302 Gd263 2.353 . S
O302 C319 1.242 . S
O303 Gd263 2.468 . S
O303 C327 1.263 . S
O304 Gd263 2.427 . S
O304 C327 1.252 . S
O305 Gd262 2.307 . S
O305 C320 1.261 . S
O306 Gd263 2.388 . S
O306 C320 1.252 . S
C307 O295 1.265 1_565 S
C307 O296 1.242 1_565 S
C308 O299 1.261 . S
C308 O300 1.252 . S
C309 C312 1.394 . S
C309 C314 1.370 . S
C309 C315 1.500 . S
C310 C313 1.383 1_545 S
C310 C314 1.395 . S
C311 C312 1.396 1_565 S
C311 C313 1.365 . S
C311 H328 0.929 . S
C312 C309 1.394 . S
C312 C311 1.396 1_545 S
C312 H329 0.930 . S
C313 C310 1.383 1_565 S
C313 C311 1.365 . S
C313 H330 0.931 . S
C314 C309 1.370 . S
C314 C310 1.395 . S
C314 H331 0.930 . S
C315 Gd262 2.805 . S
C315 O297 1.263 . S
C315 O298 1.252 . S
C315 C309 1.500 . S
C316 H278 0.930 . S
C316 C292 1.417 . S
C316 C317 1.329 . S
C317 C287 1.437 . S
C317 H288 0.929 . S
C317 C316 1.329 . S
H318 C291 0.931 . S
C319 O301 1.265 . S
C319 O302 1.242 . S
C320 O305 1.261 . S
C320 O306 1.252 . S
C321 C324 1.394 . S
C321 C326 1.370 . S
C321 C327 1.500 . S
C322 C325 1.383 . S
C322 C326 1.395 . S
C323 C324 1.396 . S
C323 C325 1.365 . S
C323 H332 0.929 . S
C324 C321 1.394 . S
C324 C323 1.396 . S
C324 H333 0.930 . S
C325 C322 1.383 . S
C325 C323 1.365 . S
C325 H334 0.931 . S
C326 C321 1.370 . S
C326 C322 1.395 . S
C326 H335 0.930 . S
C327 Gd263 2.805 . S
C327 O303 1.263 . S
C327 O304 1.252 . S
C327 C321 1.500 . S
H328 C311 0.929 . S
H329 C312 0.930 . S
H330 C313 0.931 . S
H331 C314 0.930 . S
H332 C323 0.929 . S
H333 C324 0.930 . S
H334 C325 0.931 . S
H335 C326 0.930 . S
C336 C338 1.422 . S
C336 C340 1.415 1_545 S
C336 N342 1.369 1_445 S
C337 C338 1.421 . S
C337 C339 1.417 . S
C337 C349 1.422 . S
C338 C336 1.422 . S
C338 C337 1.421 . S
C338 N348 1.359 1_455 S
C339 C337 1.417 . S
C339 C341 1.329 . S
C339 H358 0.930 . S
C340 C336 1.415 1_565 S
C340 C341 1.437 1_565 S
C340 C344 1.413 . S
C341 C339 1.329 . S
C341 C340 1.437 1_545 S
C341 H363 0.929 . S
N342 C336 1.369 1_665 S
N342 C343 1.338 . S
N342 Gd347 2.622 1_565 S
C343 N342 1.338 . S
C343 C345 1.378 . S
C343 H355 0.929 . S
C344 C340 1.413 . S
C344 C345 1.348 1_455 S
C344 H360 0.931 . S
C345 C343 1.378 . S
C345 C344 1.348 1_655 S
C345 H361 0.930 . S
Gd346 N366 2.622 . S
Gd346 N373 2.570 . S
Gd346 O380 2.353 . S
Gd346 O381 2.468 . S
Gd346 O382 2.427 . S
Gd346 O384 2.388 . S
Gd346 O385 2.386 . S
Gd346 O389 2.307 1_545 S
Gd346 C399 2.805 . S
Gd347 N342 2.622 1_545 S
Gd347 N348 2.570 . S
Gd347 O379 2.386 . S
Gd347 O383 2.307 . S
Gd347 O386 2.353 . S
Gd347 O387 2.468 . S
Gd347 O388 2.427 1_545 S
Gd347 O390 2.388 1_545 S
Gd347 C411 2.805 . S
N348 C338 1.359 1_655 S
N348 Gd347 2.570 . S
N348 C350 1.343 1_655 S
C349 C337 1.422 . S
C349 C351 1.321 . S
C349 H357 0.931 . S
C350 N348 1.343 1_455 S
C350 C351 1.390 . S
C350 H352 0.931 . S
C351 C349 1.321 . S
C351 C350 1.390 . S
C351 H353 0.930 . S
H352 C350 0.931 . S
H353 C351 0.930 . S
H354 C377 0.931 . S
H355 C343 0.929 . S
H356 C378 0.930 . S
H357 C349 0.931 . S
H358 C339 0.930 . S
H359 C368 0.929 . S
H360 C344 0.931 . S
H361 C345 0.930 . S
H362 C400 0.930 . S
H363 C341 0.929 . S
H364 C369 0.931 . S
H365 C370 0.930 . S
N366 Gd346 2.622 . S
N366 C367 1.369 . S
N366 C368 1.338 . S
C367 N366 1.369 . S
C367 C371 1.415 . S
C367 C374 1.422 . S
C368 H359 0.929 . S
C368 N366 1.338 . S
C368 C370 1.378 . S
C369 H364 0.931 . S
C369 C370 1.348 . S
C369 C371 1.413 . S
C370 H365 0.930 . S
C370 C368 1.378 . S
C370 C369 1.348 . S
C371 C367 1.415 . S
C371 C369 1.413 . S
C371 C401 1.437 . S
H372 C401 0.929 . S
N373 Gd346 2.570 . S
N373 C374 1.359 . S
N373 C377 1.343 1_545 S
C374 C367 1.422 . S
C374 N373 1.359 . S
C374 C376 1.421 . S
C375 C376 1.422 1_565 S
C375 C378 1.321 . S
C375 H402 0.931 . S
C376 C374 1.421 . S
C376 C375 1.422 1_545 S
C376 C400 1.417 . S
C377 H354 0.931 . S
C377 N373 1.343 1_565 S
C377 C378 1.390 . S
C378 H356 0.930 . S
C378 C375 1.321 . S
C378 C377 1.390 . S
O379 Gd347 2.386 . S
O379 C391 1.265 1_655 S
O380 Gd346 2.353 . S
O380 C391 1.242 1_655 S
O381 Gd346 2.468 . S
O381 C399 1.263 . S
O382 Gd346 2.427 . S
O382 C399 1.252 . S
O383 Gd347 2.307 . S
O383 C392 1.261 . S
O384 Gd346 2.388 . S
O384 C392 1.252 . S
O385 Gd346 2.386 . S
O385 C403 1.265 . S
O386 Gd347 2.353 . S
O386 C403 1.242 . S
O387 Gd347 2.468 . S
O387 C411 1.263 . S
O388 Gd347 2.427 1_565 S
O388 C411 1.252 1_565 S
O389 Gd346 2.307 1_565 S
O389 C404 1.261 . S
O390 Gd347 2.388 1_565 S
O390 C404 1.252 . S
C391 O379 1.265 1_455 S
C391 O380 1.242 1_455 S
C392 O383 1.261 . S
C392 O384 1.252 . S
C393 C396 1.394 . S
C393 C398 1.370 . S
C393 C399 1.500 . S
C394 C397 1.383 1_655 S
C394 C398 1.395 . S
C395 C396 1.396 1_455 S
C395 C397 1.365 . S
C395 H412 0.929 . S
C396 C393 1.394 . S
C396 C395 1.396 1_655 S
C396 H413 0.930 . S
C397 C394 1.383 1_455 S
C397 C395 1.365 . S
C397 H414 0.931 . S
C398 C393 1.370 . S
C398 C394 1.395 . S
C398 H415 0.930 . S
C399 Gd346 2.805 . S
C399 O381 1.263 . S
C399 O382 1.252 . S
C399 C393 1.500 . S
C400 H362 0.930 . S
C400 C376 1.417 . S
C400 C401 1.329 . S
C401 C371 1.437 . S
C401 H372 0.929 . S
C401 C400 1.329 . S
H402 C375 0.931 . S
C403 O385 1.265 . S
C403 O386 1.242 . S
C404 O389 1.261 . S
C404 O390 1.252 . S
C405 C408 1.394 1_545 S
C405 C410 1.370 . S
C405 C411 1.500 . S
C406 C409 1.383 . S
C406 C410 1.395 . S
C407 C408 1.396 . S
C407 C409 1.365 1_565 S
C407 H416 0.929 . S
C408 C405 1.394 1_565 S
C408 C407 1.396 . S
C408 H417 0.930 . S
C409 C406 1.383 . S
C409 C407 1.365 1_545 S
C409 H418 0.931 . S
C410 C405 1.370 . S
C410 C406 1.395 . S
C410 H419 0.930 . S
C411 Gd347 2.805 . S
C411 O387 1.263 . S
C411 O388 1.252 1_545 S
C411 C405 1.500 . S
H412 C395 0.929 . S
H413 C396 0.930 . S
H414 C397 0.931 . S
H415 C398 0.930 . S
H416 C407 0.929 . S
H417 C408 0.930 . S
H418 C409 0.931 . S
H419 C410 0.930 . S
C420 C422 1.422 . S
C420 C424 1.415 1_665 S
C420 N426 1.369 1_655 S
C421 C422 1.421 . S
C421 C423 1.417 1_565 S
C421 C433 1.422 . S
C422 C420 1.422 . S
C422 C421 1.421 . S
C422 N432 1.359 . S
C423 C421 1.417 1_545 S
C423 C425 1.329 . S
C423 H442 0.930 . S
C424 C420 1.415 1_445 S
C424 C425 1.437 1_455 S
C424 C428 1.413 . S
C425 C423 1.329 . S
C425 C424 1.437 1_655 S
C425 H447 0.929 . S
N426 C420 1.369 1_455 S
N426 C427 1.338 . S
N426 Gd431 2.622 1_455 S
C427 N426 1.338 . S
C427 C429 1.378 1_565 S
C427 H439 0.929 . S
C428 C424 1.413 . S
C428 C429 1.348 . S
C428 H444 0.931 . S
C429 C427 1.378 1_545 S
C429 C428 1.348 . S
C429 H445 0.930 . S
Gd430 N450 2.622 . S
Gd430 N457 2.570 . S
Gd430 O464 2.353 . S
Gd430 O465 2.468 . S
Gd430 O466 2.427 . S
Gd430 O468 2.388 . S
Gd430 O469 2.386 . S
Gd430 O473 2.307 1_655 S
Gd430 C483 2.805 . S
Gd431 N426 2.622 1_655 S
Gd431 N432 2.570 . S
Gd431 O463 2.386 . S
Gd431 O467 2.307 . S
Gd431 O470 2.353 . S
Gd431 O471 2.468 . S
Gd431 O472 2.427 1_655 S
Gd431 O474 2.388 1_655 S
Gd431 C495 2.805 . S
N432 C422 1.359 . S
N432 Gd431 2.570 . S
N432 C434 1.343 . S
C433 C421 1.422 . S
C433 C435 1.321 . S
C433 H441 0.931 . S
C434 N432 1.343 . S
C434 C435 1.390 . S
C434 H436 0.931 . S
C435 C433 1.321 . S
C435 C434 1.390 . S
C435 H437 0.930 . S
H436 C434 0.931 . S
H437 C435 0.930 . S
H438 C461 0.931 . S
H439 C427 0.929 . S
H440 C462 0.930 . S
H441 C433 0.931 . S
H442 C423 0.930 . S
H443 C452 0.929 . S
H444 C428 0.931 . S
H445 C429 0.930 . S
H446 C484 0.930 . S
H447 C425 0.929 . S
H448 C453 0.931 . S
H449 C454 0.930 . S
N450 Gd430 2.622 . S
N450 C451 1.369 . S
N450 C452 1.338 . S
C451 N450 1.369 . S
C451 C455 1.415 . S
C451 C458 1.422 . S
C452 H443 0.929 . S
C452 N450 1.338 . S
C452 C454 1.378 . S
C453 H448 0.931 . S
C453 C454 1.348 . S
C453 C455 1.413 . S
C454 H449 0.930 . S
C454 C452 1.378 . S
C454 C453 1.348 . S
C455 C451 1.415 . S
C455 C453 1.413 . S
C455 C485 1.437 . S
H456 C485 0.929 . S
N457 Gd430 2.570 . S
N457 C458 1.359 . S
N457 C461 1.343 1_655 S
C458 C451 1.422 . S
C458 N457 1.359 . S
C458 C460 1.421 . S
C459 C460 1.422 1_455 S
C459 C462 1.321 . S
C459 H486 0.931 . S
C460 C458 1.421 . S
C460 C459 1.422 1_655 S
C460 C484 1.417 . S
C461 H438 0.931 . S
C461 N457 1.343 1_455 S
C461 C462 1.390 . S
C462 H440 0.930 . S
C462 C459 1.321 . S
C462 C461 1.390 . S
O463 Gd431 2.386 . S
O463 C475 1.265 . S
O464 Gd430 2.353 . S
O464 C475 1.242 . S
O465 Gd430 2.468 . S
O465 C483 1.263 . S
O466 Gd430 2.427 . S
O466 C483 1.252 . S
O467 Gd431 2.307 . S
O467 C476 1.261 . S
O468 Gd430 2.388 . S
O468 C476 1.252 . S
O469 Gd430 2.386 . S
O469 C487 1.265 . S
O470 Gd431 2.353 . S
O470 C487 1.242 . S
O471 Gd431 2.468 . S
O471 C495 1.263 . S
O472 Gd431 2.427 1_455 S
O472 C495 1.252 1_455 S
O473 Gd430 2.307 1_455 S
O473 C488 1.261 . S
O474 Gd431 2.388 1_455 S
O474 C488 1.252 . S
C475 O463 1.265 . S
C475 O464 1.242 . S
C476 O467 1.261 . S
C476 O468 1.252 . S
C477 C480 1.394 . S
C477 C482 1.370 . S
C477 C483 1.500 . S
C478 C481 1.383 . S
C478 C482 1.395 . S
C479 C480 1.396 . S
C479 C481 1.365 . S
C479 H496 0.929 . S
C480 C477 1.394 . S
C480 C479 1.396 . S
C480 H497 0.930 . S
C481 C478 1.383 . S
C481 C479 1.365 . S
C481 H498 0.931 . S
C482 C477 1.370 . S
C482 C478 1.395 . S
C482 H499 0.930 . S
C483 Gd430 2.805 . S
C483 O465 1.263 . S
C483 O466 1.252 . S
C483 C477 1.500 . S
C484 H446 0.930 . S
C484 C460 1.417 . S
C484 C485 1.329 . S
C485 C455 1.437 . S
C485 H456 0.929 . S
C485 C484 1.329 . S
H486 C459 0.931 . S
C487 O469 1.265 . S
C487 O470 1.242 . S
C488 O473 1.261 . S
C488 O474 1.252 . S
C489 C492 1.394 1_655 S
C489 C494 1.370 . S
C489 C495 1.500 . S
C490 C493 1.383 . S
C490 C494 1.395 . S
C491 C492 1.396 . S
C491 C493 1.365 1_455 S
C491 H500 0.929 . S
C492 C489 1.394 1_455 S
C492 C491 1.396 . S
C492 H501 0.930 . S
C493 C490 1.383 . S
C493 C491 1.365 1_655 S
C493 H502 0.931 . S
C494 C489 1.370 . S
C494 C490 1.395 . S
C494 H503 0.930 . S
C495 Gd431 2.805 . S
C495 O471 1.263 . S
C495 O472 1.252 1_655 S
C495 C489 1.500 . S
H496 C479 0.929 . S
H497 C480 0.930 . S
H498 C481 0.931 . S
H499 C482 0.930 . S
H500 C491 0.929 . S
H501 C492 0.930 . S
H502 C493 0.931 . S
H503 C494 0.930 . S
C504 C506 1.422 . S
C504 C508 1.415 . S
C504 N510 1.369 . S
C505 C506 1.421 . S
C505 C507 1.417 . S
C505 C517 1.422 . S
C506 C504 1.422 . S
C506 C505 1.421 . S
C506 N516 1.359 . S
C507 C505 1.417 . S
C507 C509 1.329 . S
C507 H526 0.930 . S
C508 C504 1.415 . S
C508 C509 1.437 . S
C508 C512 1.413 . S
C509 C507 1.329 . S
C509 C508 1.437 . S
C509 H531 0.929 . S
N510 C504 1.369 . S
N510 C511 1.338 . S
N510 Gd515 2.622 . S
C511 N510 1.338 . S
C511 C513 1.378 . S
C511 H523 0.929 . S
C512 C508 1.413 . S
C512 C513 1.348 . S
C512 H528 0.931 . S
C513 C511 1.378 . S
C513 C512 1.348 . S
C513 H529 0.930 . S
Gd514 N534 2.622 . S
Gd514 N541 2.570 1_655 S
Gd514 O548 2.353 . S
Gd514 O549 2.468 . S
Gd514 O550 2.427 . S
Gd514 O552 2.388 . S
Gd514 O553 2.386 . S
Gd514 O557 2.307 . S
Gd514 C567 2.805 . S
Gd515 N510 2.622 . S
Gd515 N516 2.570 . S
Gd515 O547 2.386 . S
Gd515 O551 2.307 . S
Gd515 O554 2.353 . S
Gd515 O555 2.468 . S
Gd515 O556 2.427 . S
Gd515 O558 2.388 . S
Gd515 C579 2.805 . S
N516 C506 1.359 . S
N516 Gd515 2.570 . S
N516 C518 1.343 . S
C517 C505 1.422 . S
C517 C519 1.321 . S
C517 H525 0.931 . S
C518 N516 1.343 . S
C518 C519 1.390 . S
C518 H520 0.931 . S
C519 C517 1.321 . S
C519 C518 1.390 . S
C519 H521 0.930 . S
H520 C518 0.931 . S
H521 C519 0.930 . S
H522 C545 0.931 . S
H523 C511 0.929 . S
H524 C546 0.930 . S
H525 C517 0.931 . S
H526 C507 0.930 . S
H527 C536 0.929 1_565 S
H528 C512 0.931 . S
H529 C513 0.930 . S
H530 C568 0.930 . S
H531 C509 0.929 . S
H532 C537 0.931 . S
H533 C538 0.930 . S
N534 Gd514 2.622 . S
N534 C535 1.369 1_655 S
N534 C536 1.338 1_565 S
C535 N534 1.369 1_455 S
C535 C539 1.415 1_565 S
C535 C542 1.422 . S
C536 H527 0.929 1_545 S
C536 N534 1.338 1_545 S
C536 C538 1.378 . S
C537 H532 0.931 . S
C537 C538 1.348 1_455 S
C537 C539 1.413 . S
C538 H533 0.930 . S
C538 C536 1.378 . S
C538 C537 1.348 1_655 S
C539 C535 1.415 1_545 S
C539 C537 1.413 . S
C539 C569 1.437 . S
H540 C569 0.929 . S
N541 Gd514 2.570 1_455 S
N541 C542 1.359 . S
N541 C545 1.343 . S
C542 C535 1.422 . S
C542 N541 1.359 . S
C542 C544 1.421 . S
C543 C544 1.422 . S
C543 C546 1.321 . S
C543 H570 0.931 . S
C544 C542 1.421 . S
C544 C543 1.422 . S
C544 C568 1.417 1_565 S
C545 H522 0.931 . S
C545 N541 1.343 . S
C545 C546 1.390 . S
C546 H524 0.930 . S
C546 C543 1.321 . S
C546 C545 1.390 . S
O547 Gd515 2.386 . S
O547 C559 1.265 . S
O548 Gd514 2.353 . S
O548 C559 1.242 . S
O549 Gd514 2.468 . S
O549 C567 1.263 . S
O550 Gd514 2.427 . S
O550 C567 1.252 . S
O551 Gd515 2.307 . S
O551 C560 1.261 . S
O552 Gd514 2.388 . S
O552 C560 1.252 . S
O553 Gd514 2.386 . S
O553 C571 1.265 1_655 S
O554 Gd515 2.353 . S
O554 C571 1.242 1_655 S
O555 Gd515 2.468 . S
O555 C579 1.263 . S
O556 Gd515 2.427 . S
O556 C579 1.252 . S
O557 Gd514 2.307 . S
O557 C572 1.261 . S
O558 Gd515 2.388 . S
O558 C572 1.252 . S
C559 O547 1.265 . S
C559 O548 1.242 . S
C560 O551 1.261 . S
C560 O552 1.252 . S
C561 C564 1.394 . S
C561 C566 1.370 . S
C561 C567 1.500 . S
C562 C565 1.383 . S
C562 C566 1.395 . S
C563 C564 1.396 . S
C563 C565 1.365 . S
C563 H580 0.929 . S
C564 C561 1.394 . S
C564 C563 1.396 . S
C564 H581 0.930 . S
C565 C562 1.383 . S
C565 C563 1.365 . S
C565 H582 0.931 . S
C566 C561 1.370 . S
C566 C562 1.395 . S
C566 H583 0.930 . S
C567 Gd514 2.805 . S
C567 O549 1.263 . S
C567 O550 1.252 . S
C567 C561 1.500 . S
C568 H530 0.930 . S
C568 C544 1.417 1_545 S
C568 C569 1.329 . S
C569 C539 1.437 . S
C569 H540 0.929 . S
C569 C568 1.329 . S
H570 C543 0.931 . S
C571 O553 1.265 1_455 S
C571 O554 1.242 1_455 S
C572 O557 1.261 . S
C572 O558 1.252 . S
C573 C576 1.394 . S
C573 C578 1.370 . S
C573 C579 1.500 . S
C574 C577 1.383 1_655 S
C574 C578 1.395 . S
C575 C576 1.396 1_455 S
C575 C577 1.365 . S
C575 H584 0.929 . S
C576 C573 1.394 . S
C576 C575 1.396 1_655 S
C576 H585 0.930 . S
C577 C574 1.383 1_455 S
C577 C575 1.365 . S
C577 H586 0.931 . S
C578 C573 1.370 . S
C578 C574 1.395 . S
C578 H587 0.930 . S
C579 Gd515 2.805 . S
C579 O555 1.263 . S
C579 O556 1.252 . S
C579 C573 1.500 . S
H580 C563 0.929 . S
H581 C564 0.930 . S
H582 C565 0.931 . S
H583 C566 0.930 . S
H584 C575 0.929 . S
H585 C576 0.930 . S
H586 C577 0.931 . S
H587 C578 0.930 . S
C588 C590 1.422 . S
C588 C592 1.415 . S
C588 N594 1.369 . S
C589 C590 1.421 . S
C589 C591 1.417 . S
C589 C601 1.422 1_545 S
C590 C588 1.422 . S
C590 C589 1.421 . S
C590 N600 1.359 . S
C591 C589 1.417 . S
C591 C593 1.329 . S
C591 H610 0.930 . S
C592 C588 1.415 . S
C592 C593 1.437 . S
C592 C596 1.413 . S
C593 C591 1.329 . S
C593 C592 1.437 . S
C593 H615 0.929 . S
N594 C588 1.369 . S
N594 C595 1.338 . S
N594 Gd599 2.622 . S
C595 N594 1.338 . S
C595 C597 1.378 . S
C595 H607 0.929 . S
C596 C592 1.413 . S
C596 C597 1.348 . S
C596 H612 0.931 . S
C597 C595 1.378 . S
C597 C596 1.348 . S
C597 H613 0.930 . S
Gd598 N618 2.622 1_545 S
Gd598 N625 2.570 . S
Gd598 O632 2.353 . S
Gd598 O633 2.468 . S
Gd598 O634 2.427 1_545 S
Gd598 O636 2.388 1_545 S
Gd598 O637 2.386 . S
Gd598 O641 2.307 . S
Gd598 C651 2.805 . S
Gd599 N594 2.622 . S
Gd599 N600 2.570 . S
Gd599 O631 2.386 . S
Gd599 O635 2.307 1_545 S
Gd599 O638 2.353 . S
Gd599 O639 2.468 . S
Gd599 O640 2.427 . S
Gd599 O642 2.388 . S
Gd599 C663 2.805 . S
N600 C590 1.359 . S
N600 Gd599 2.570 . S
N600 C602 1.343 1_545 S
C601 C589 1.422 1_565 S
C601 C603 1.321 . S
C601 H609 0.931 . S
C602 N600 1.343 1_565 S
C602 C603 1.390 . S
C602 H604 0.931 . S
C603 C601 1.321 . S
C603 C602 1.390 . S
C603 H605 0.930 . S
H604 C602 0.931 . S
H605 C603 0.930 . S
H606 C629 0.931 . S
H607 C595 0.929 . S
H608 C630 0.930 . S
H609 C601 0.931 . S
H610 C591 0.930 . S
H611 C620 0.929 1_455 S
H612 C596 0.931 . S
H613 C597 0.930 . S
H614 C652 0.930 . S
H615 C593 0.929 . S
H616 C621 0.931 . S
H617 C622 0.930 . S
N618 Gd598 2.622 1_565 S
N618 C619 1.369 1_565 S
N618 C620 1.338 1_455 S
C619 N618 1.369 1_545 S
C619 C623 1.415 1_445 S
C619 C626 1.422 . S
C620 H611 0.929 1_655 S
C620 N618 1.338 1_655 S
C620 C622 1.378 . S
C621 H616 0.931 . S
C621 C622 1.348 . S
C621 C623 1.413 . S
C622 H617 0.930 . S
C622 C620 1.378 . S
C622 C621 1.348 . S
C623 C619 1.415 1_665 S
C623 C621 1.413 . S
C623 C653 1.437 1_565 S
H624 C653 0.929 . S
N625 Gd598 2.570 . S
N625 C626 1.359 . S
N625 C629 1.343 . S
C626 C619 1.422 . S
C626 N625 1.359 . S
C626 C628 1.421 . S
C627 C628 1.422 . S
C627 C630 1.321 . S
C627 H654 0.931 . S
C628 C626 1.421 . S
C628 C627 1.422 . S
C628 C652 1.417 1_455 S
C629 H606 0.931 . S
C629 N625 1.343 . S
C629 C630 1.390 . S
C630 H608 0.930 . S
C630 C627 1.321 . S
C630 C629 1.390 . S
O631 Gd599 2.386 . S
O631 C643 1.265 . S
O632 Gd598 2.353 . S
O632 C643 1.242 . S
O633 Gd598 2.468 . S
O633 C651 1.263 . S
O634 Gd598 2.427 1_565 S
O634 C651 1.252 1_565 S
O635 Gd599 2.307 1_565 S
O635 C644 1.261 . S
O636 Gd598 2.388 1_565 S
O636 C644 1.252 . S
O637 Gd598 2.386 . S
O637 C655 1.265 . S
O638 Gd599 2.353 . S
O638 C655 1.242 . S
O639 Gd599 2.468 . S
O639 C663 1.263 . S
O640 Gd599 2.427 . S
O640 C663 1.252 . S
O641 Gd598 2.307 . S
O641 C656 1.261 . S
O642 Gd599 2.388 . S
O642 C656 1.252 . S
C643 O631 1.265 . S
C643 O632 1.242 . S
C644 O635 1.261 . S
C644 O636 1.252 . S
C645 C648 1.394 1_545 S
C645 C650 1.370 . S
C645 C651 1.500 . S
C646 C649 1.383 . S
C646 C650 1.395 . S
C647 C648 1.396 . S
C647 C649 1.365 1_565 S
C647 H664 0.929 . S
C648 C645 1.394 1_565 S
C648 C647 1.396 . S
C648 H665 0.930 . S
C649 C646 1.383 . S
C649 C647 1.365 1_545 S
C649 H666 0.931 . S
C650 C645 1.370 . S
C650 C646 1.395 . S
C650 H667 0.930 . S
C651 Gd598 2.805 . S
C651 O633 1.263 . S
C651 O634 1.252 1_545 S
C651 C645 1.500 . S
C652 H614 0.930 . S
C652 C628 1.417 1_655 S
C652 C653 1.329 . S
C653 C623 1.437 1_545 S
C653 H624 0.929 . S
C653 C652 1.329 . S
H654 C627 0.931 . S
C655 O637 1.265 . S
C655 O638 1.242 . S
C656 O641 1.261 . S
C656 O642 1.252 . S
C657 C660 1.394 . S
C657 C662 1.370 . S
C657 C663 1.500 . S
C658 C661 1.383 . S
C658 C662 1.395 . S
C659 C660 1.396 . S
C659 C661 1.365 . S
C659 H668 0.929 . S
C660 C657 1.394 . S
C660 C659 1.396 . S
C660 H669 0.930 . S
C661 C658 1.383 . S
C661 C659 1.365 . S
C661 H670 0.931 . S
C662 C657 1.370 . S
C662 C658 1.395 . S
C662 H671 0.930 . S
C663 Gd599 2.805 . S
C663 O639 1.263 . S
C663 O640 1.252 . S
C663 C657 1.500 . S
H664 C647 0.929 . S
H665 C648 0.930 . S
H666 C649 0.931 . S
H667 C650 0.930 . S
H668 C659 0.929 . S
H669 C660 0.930 . S
H670 C661 0.931 . S
H671 C662 0.930 . S
C672 C674 1.422 . S
C672 C676 1.415 . S
C672 N678 1.369 . S
C673 C674 1.421 . S
C673 C675 1.417 . S
C673 C685 1.422 1_655 S
C674 C672 1.422 . S
C674 C673 1.421 . S
C674 N684 1.359 . S
C675 C673 1.417 . S
C675 C677 1.329 . S
C675 H694 0.930 . S
C676 C672 1.415 . S
C676 C677 1.437 . S
C676 C680 1.413 . S
C677 C675 1.329 . S
C677 C676 1.437 . S
C677 H699 0.929 . S
N678 C672 1.369 . S
N678 C679 1.338 . S
N678 Gd683 2.622 . S
C679 N678 1.338 . S
C679 C681 1.378 . S
C679 H691 0.929 . S
C680 C676 1.413 . S
C680 C681 1.348 . S
C680 H696 0.931 . S
C681 C679 1.378 . S
C681 C680 1.348 . S
C681 H697 0.930 . S
Gd682 N702 2.622 1_655 S
Gd682 N709 2.570 1_545 S
Gd682 O716 2.353 . S
Gd682 O717 2.468 . S
Gd682 O718 2.427 1_655 S
Gd682 O720 2.388 1_655 S
Gd682 O721 2.386 . S
Gd682 O725 2.307 . S
Gd682 C735 2.805 . S
Gd683 N678 2.622 . S
Gd683 N684 2.570 . S
Gd683 O715 2.386 . S
Gd683 O719 2.307 1_655 S
Gd683 O722 2.353 . S
Gd683 O723 2.468 . S
Gd683 O724 2.427 . S
Gd683 O726 2.388 . S
Gd683 C747 2.805 . S
N684 C674 1.359 . S
N684 Gd683 2.570 . S
N684 C686 1.343 1_655 S
C685 C673 1.422 1_455 S
C685 C687 1.321 . S
C685 H693 0.931 . S
C686 N684 1.343 1_455 S
C686 C687 1.390 . S
C686 H688 0.931 . S
C687 C685 1.321 . S
C687 C686 1.390 . S
C687 H689 0.930 . S
H688 C686 0.931 . S
H689 C687 0.930 . S
H690 C713 0.931 . S
H691 C679 0.929 . S
H692 C714 0.930 . S
H693 C685 0.931 . S
H694 C675 0.930 . S
H695 C704 0.929 . S
H696 C680 0.931 . S
H697 C681 0.930 . S
H698 C736 0.930 . S
H699 C677 0.929 . S
H700 C705 0.931 . S
H701 C706 0.930 . S
N702 Gd682 2.622 1_455 S
N702 C703 1.369 1_445 S
N702 C704 1.338 . S
C703 N702 1.369 1_665 S
C703 C707 1.415 1_655 S
C703 C710 1.422 . S
C704 H695 0.929 . S
C704 N702 1.338 . S
C704 C706 1.378 . S
C705 H700 0.931 . S
C705 C706 1.348 1_565 S
C705 C707 1.413 . S
C706 H701 0.930 . S
C706 C704 1.378 . S
C706 C705 1.348 1_545 S
C707 C703 1.415 1_455 S
C707 C705 1.413 . S
C707 C737 1.437 1_455 S
H708 C737 0.929 . S
N709 Gd682 2.570 1_565 S
N709 C710 1.359 . S
N709 C713 1.343 . S
C710 C703 1.422 . S
C710 N709 1.359 . S
C710 C712 1.421 . S
C711 C712 1.422 . S
C711 C714 1.321 . S
C711 H738 0.931 . S
C712 C710 1.421 . S
C712 C711 1.422 . S
C712 C736 1.417 . S
C713 H690 0.931 . S
C713 N709 1.343 . S
C713 C714 1.390 . S
C714 H692 0.930 . S
C714 C711 1.321 . S
C714 C713 1.390 . S
O715 Gd683 2.386 . S
O715 C727 1.265 . S
O716 Gd682 2.353 . S
O716 C727 1.242 . S
O717 Gd682 2.468 . S
O717 C735 1.263 . S
O718 Gd682 2.427 1_455 S
O718 C735 1.252 1_455 S
O719 Gd683 2.307 1_455 S
O719 C728 1.261 . S
O720 Gd682 2.388 1_455 S
O720 C728 1.252 . S
O721 Gd682 2.386 . S
O721 C739 1.265 1_545 S
O722 Gd683 2.353 . S
O722 C739 1.242 1_545 S
O723 Gd683 2.468 . S
O723 C747 1.263 . S
O724 Gd683 2.427 . S
O724 C747 1.252 . S
O725 Gd682 2.307 . S
O725 C740 1.261 . S
O726 Gd683 2.388 . S
O726 C740 1.252 . S
C727 O715 1.265 . S
C727 O716 1.242 . S
C728 O719 1.261 . S
C728 O720 1.252 . S
C729 C732 1.394 1_655 S
C729 C734 1.370 . S
C729 C735 1.500 . S
C730 C733 1.383 . S
C730 C734 1.395 . S
C731 C732 1.396 . S
C731 C733 1.365 1_455 S
C731 H748 0.929 . S
C732 C729 1.394 1_455 S
C732 C731 1.396 . S
C732 H749 0.930 . S
C733 C730 1.383 . S
C733 C731 1.365 1_655 S
C733 H750 0.931 . S
C734 C729 1.370 . S
C734 C730 1.395 . S
C734 H751 0.930 . S
C735 Gd682 2.805 . S
C735 O717 1.263 . S
C735 O718 1.252 1_655 S
C735 C729 1.500 . S
C736 H698 0.930 . S
C736 C712 1.417 . S
C736 C737 1.329 . S
C737 C707 1.437 1_655 S
C737 H708 0.929 . S
C737 C736 1.329 . S
H738 C711 0.931 . S
C739 O721 1.265 1_565 S
C739 O722 1.242 1_565 S
C740 O725 1.261 . S
C740 O726 1.252 . S
C741 C744 1.394 . S
C741 C746 1.370 . S
C741 C747 1.500 . S
C742 C745 1.383 1_545 S
C742 C746 1.395 . S
C743 C744 1.396 1_565 S
C743 C745 1.365 . S
C743 H752 0.929 . S
C744 C741 1.394 . S
C744 C743 1.396 1_545 S
C744 H753 0.930 . S
C745 C742 1.383 1_565 S
C745 C743 1.365 . S
C745 H754 0.931 . S
C746 C741 1.370 . S
C746 C742 1.395 . S
C746 H755 0.930 . S
C747 Gd683 2.805 . S
C747 O723 1.263 . S
C747 O724 1.252 . S
C747 C741 1.500 . S
H748 C731 0.929 . S
H749 C732 0.930 . S
H750 C733 0.931 . S
H751 C734 0.930 . S
H752 C743 0.929 . S
H753 C744 0.930 . S
H754 C745 0.931 . S
H755 C746 0.930 . S
C756 C758 1.422 . S
C756 C760 1.415 . S
C756 N762 1.369 . S
C757 C758 1.421 . S
C757 C759 1.417 . S
C757 C769 1.422 . S
C758 C756 1.422 . S
C758 C757 1.421 . S
C758 N768 1.359 . S
C759 C757 1.417 . S
C759 C761 1.329 . S
C759 H778 0.930 . S
C760 C756 1.415 . S
C760 C761 1.437 . S
C760 C764 1.413 . S
C761 C759 1.329 . S
C761 C760 1.437 . S
C761 H783 0.929 . S
N762 C756 1.369 . S
N762 C763 1.338 . S
N762 Gd767 2.622 . S
C763 N762 1.338 . S
C763 C765 1.378 . S
C763 H775 0.929 . S
C764 C760 1.413 . S
C764 C765 1.348 . S
C764 H780 0.931 . S
C765 C763 1.378 . S
C765 C764 1.348 . S
C765 H781 0.930 . S
Gd766 N786 2.622 . S
Gd766 N793 2.570 . S
Gd766 O800 2.353 . S
Gd766 O801 2.468 . S
Gd766 O802 2.427 . S
Gd766 O804 2.388 . S
Gd766 O805 2.386 . S
Gd766 O809 2.307 . S
Gd766 C819 2.805 . S
Gd767 N762 2.622 . S
Gd767 N768 2.570 . S
Gd767 O799 2.386 . S
Gd767 O803 2.307 . S
Gd767 O806 2.353 . S
Gd767 O807 2.468 . S
Gd767 O808 2.427 . S
Gd767 O810 2.388 . S
Gd767 C831 2.805 . S
N768 C758 1.359 . S
N768 Gd767 2.570 . S
N768 C770 1.343 . S
C769 C757 1.422 . S
C769 C771 1.321 . S
C769 H777 0.931 . S
C770 N768 1.343 . S
C770 C771 1.390 . S
C770 H772 0.931 . S
C771 C769 1.321 . S
C771 C770 1.390 . S
C771 H773 0.930 . S
H772 C770 0.931 . S
H773 C771 0.930 . S
H774 C797 0.931 . S
H775 C763 0.929 . S
H776 C798 0.930 . S
H777 C769 0.931 . S
H778 C759 0.930 . S
H779 C788 0.929 . S
H780 C764 0.931 . S
H781 C765 0.930 . S
H782 C820 0.930 . S
H783 C761 0.929 . S
H784 C789 0.931 . S
H785 C790 0.930 . S
N786 Gd766 2.622 . S
N786 C787 1.369 1_565 S
N786 C788 1.338 . S
C787 N786 1.369 1_545 S
C787 C791 1.415 1_655 S
C787 C794 1.422 . S
C788 H779 0.929 . S
C788 N786 1.338 . S
C788 C790 1.378 1_655 S
C789 H784 0.931 . S
C789 C790 1.348 1_545 S
C789 C791 1.413 . S
C790 H785 0.930 . S
C790 C788 1.378 1_455 S
C790 C789 1.348 1_565 S
C791 C787 1.415 1_455 S
C791 C789 1.413 . S
C791 C821 1.437 . S
H792 C821 0.929 . S
N793 Gd766 2.570 . S
N793 C794 1.359 1_565 S
N793 C797 1.343 1_565 S
C794 C787 1.422 . S
C794 N793 1.359 1_545 S
C794 C796 1.421 . S
C795 C796 1.422 . S
C795 C798 1.321 . S
C795 H822 0.931 . S
C796 C794 1.421 . S
C796 C795 1.422 . S
C796 C820 1.417 1_655 S
C797 H774 0.931 . S
C797 N793 1.343 1_545 S
C797 C798 1.390 . S
C798 H776 0.930 . S
C798 C795 1.321 . S
C798 C797 1.390 . S
O799 Gd767 2.386 . S
O799 C811 1.265 . S
O800 Gd766 2.353 . S
O800 C811 1.242 . S
O801 Gd766 2.468 . S
O801 C819 1.263 . S
O802 Gd766 2.427 . S
O802 C819 1.252 . S
O803 Gd767 2.307 . S
O803 C812 1.261 . S
O804 Gd766 2.388 . S
O804 C812 1.252 . S
O805 Gd766 2.386 . S
O805 C823 1.265 1_565 S
O806 Gd767 2.353 . S
O806 C823 1.242 1_565 S
O807 Gd767 2.468 . S
O807 C831 1.263 . S
O808 Gd767 2.427 . S
O808 C831 1.252 . S
O809 Gd766 2.307 . S
O809 C824 1.261 . S
O810 Gd767 2.388 . S
O810 C824 1.252 . S
C811 O799 1.265 . S
C811 O800 1.242 . S
C812 O803 1.261 . S
C812 O804 1.252 . S
C813 C816 1.394 . S
C813 C818 1.370 . S
C813 C819 1.500 . S
C814 C817 1.383 . S
C814 C818 1.395 . S
C815 C816 1.396 . S
C815 C817 1.365 . S
C815 H832 0.929 . S
C816 C813 1.394 . S
C816 C815 1.396 . S
C816 H833 0.930 . S
C817 C814 1.383 . S
C817 C815 1.365 . S
C817 H834 0.931 . S
C818 C813 1.370 . S
C818 C814 1.395 . S
C818 H835 0.930 . S
C819 Gd766 2.805 . S
C819 O801 1.263 . S
C819 O802 1.252 . S
C819 C813 1.500 . S
C820 H782 0.930 . S
C820 C796 1.417 1_455 S
C820 C821 1.329 . S
C821 C791 1.437 . S
C821 H792 0.929 . S
C821 C820 1.329 . S
H822 C795 0.931 . S
C823 O805 1.265 1_545 S
C823 O806 1.242 1_545 S
C824 O809 1.261 . S
C824 O810 1.252 . S
C825 C828 1.394 . S
C825 C830 1.370 . S
C825 C831 1.500 . S
C826 C829 1.383 1_565 S
C826 C830 1.395 . S
C827 C828 1.396 1_545 S
C827 C829 1.365 . S
C827 H836 0.929 . S
C828 C825 1.394 . S
C828 C827 1.396 1_565 S
C828 H837 0.930 . S
C829 C826 1.383 1_545 S
C829 C827 1.365 . S
C829 H838 0.931 . S
C830 C825 1.370 . S
C830 C826 1.395 . S
C830 H839 0.930 . S
C831 Gd767 2.805 . S
C831 O807 1.263 . S
C831 O808 1.252 . S
C831 C825 1.500 . S
H832 C815 0.929 . S
H833 C816 0.930 . S
H834 C817 0.931 . S
H835 C818 0.930 . S
H836 C827 0.929 . S
H837 C828 0.930 . S
H838 C829 0.931 . S
H839 C830 0.930 . S
C840 C842 1.422 . S
C840 C844 1.415 . S
C840 N846 1.369 . S
C841 C842 1.421 . S
C841 C843 1.417 . S
C841 C853 1.422 1_565 S
C842 C840 1.422 . S
C842 C841 1.421 . S
C842 N852 1.359 . S
C843 C841 1.417 . S
C843 C845 1.329 . S
C843 H862 0.930 . S
C844 C840 1.415 . S
C844 C845 1.437 . S
C844 C848 1.413 . S
C845 C843 1.329 . S
C845 C844 1.437 . S
C845 H867 0.929 . S
N846 C840 1.369 . S
N846 C847 1.338 . S
N846 Gd851 2.622 . S
C847 N846 1.338 . S
C847 C849 1.378 . S
C847 H859 0.929 . S
C848 C844 1.413 . S
C848 C849 1.348 . S
C848 H864 0.931 . S
C849 C847 1.378 . S
C849 C848 1.348 . S
C849 H865 0.930 . S
Gd850 N870 2.622 1_565 S
Gd850 N877 2.570 . S
Gd850 O884 2.353 . S
Gd850 O885 2.468 . S
Gd850 O886 2.427 1_565 S
Gd850 O888 2.388 1_565 S
Gd850 O889 2.386 . S
Gd850 O893 2.307 . S
Gd850 C903 2.805 . S
Gd851 N846 2.622 . S
Gd851 N852 2.570 . S
Gd851 O883 2.386 . S
Gd851 O887 2.307 1_565 S
Gd851 O890 2.353 . S
Gd851 O891 2.468 . S
Gd851 O892 2.427 . S
Gd851 O894 2.388 . S
Gd851 C915 2.805 . S
N852 C842 1.359 . S
N852 Gd851 2.570 . S
N852 C854 1.343 1_565 S
C853 C841 1.422 1_545 S
C853 C855 1.321 . S
C853 H861 0.931 . S
C854 N852 1.343 1_545 S
C854 C855 1.390 . S
C854 H856 0.931 . S
C855 C853 1.321 . S
C855 C854 1.390 . S
C855 H857 0.930 . S
H856 C854 0.931 . S
H857 C855 0.930 . S
H858 C881 0.931 . S
H859 C847 0.929 . S
H860 C882 0.930 . S
H861 C853 0.931 . S
H862 C843 0.930 . S
H863 C872 0.929 . S
H864 C848 0.931 . S
H865 C849 0.930 . S
H866 C904 0.930 . S
H867 C845 0.929 . S
H868 C873 0.931 . S
H869 C874 0.930 . S
N870 Gd850 2.622 1_545 S
N870 C871 1.369 1_445 S
N870 C872 1.338 . S
C871 N870 1.369 1_665 S
C871 C875 1.415 1_565 S
C871 C878 1.422 . S
C872 H863 0.929 . S
C872 N870 1.338 . S
C872 C874 1.378 . S
C873 H868 0.931 . S
C873 C874 1.348 1_655 S
C873 C875 1.413 . S
C874 H869 0.930 . S
C874 C872 1.378 . S
C874 C873 1.348 1_455 S
C875 C871 1.415 1_545 S
C875 C873 1.413 . S
C875 C905 1.437 1_545 S
H876 C905 0.929 . S
N877 Gd850 2.570 . S
N877 C878 1.359 1_455 S
N877 C881 1.343 1_455 S
C878 C871 1.422 . S
C878 N877 1.359 1_655 S
C878 C880 1.421 . S
C879 C880 1.422 . S
C879 C882 1.321 . S
C879 H906 0.931 . S
C880 C878 1.421 . S
C880 C879 1.422 . S
C880 C904 1.417 . S
C881 H858 0.931 . S
C881 N877 1.343 1_655 S
C881 C882 1.390 . S
C882 H860 0.930 . S
C882 C879 1.321 . S
C882 C881 1.390 . S
O883 Gd851 2.386 . S
O883 C895 1.265 . S
O884 Gd850 2.353 . S
O884 C895 1.242 . S
O885 Gd850 2.468 . S
O885 C903 1.263 . S
O886 Gd850 2.427 1_545 S
O886 C903 1.252 1_545 S
O887 Gd851 2.307 1_545 S
O887 C896 1.261 . S
O888 Gd850 2.388 1_545 S
O888 C896 1.252 . S
O889 Gd850 2.386 . S
O889 C907 1.265 1_455 S
O890 Gd851 2.353 . S
O890 C907 1.242 1_455 S
O891 Gd851 2.468 . S
O891 C915 1.263 . S
O892 Gd851 2.427 . S
O892 C915 1.252 . S
O893 Gd850 2.307 . S
O893 C908 1.261 . S
O894 Gd851 2.388 . S
O894 C908 1.252 . S
C895 O883 1.265 . S
C895 O884 1.242 . S
C896 O887 1.261 . S
C896 O888 1.252 . S
C897 C900 1.394 1_565 S
C897 C902 1.370 . S
C897 C903 1.500 . S
C898 C901 1.383 . S
C898 C902 1.395 . S
C899 C900 1.396 . S
C899 C901 1.365 1_545 S
C899 H916 0.929 . S
C900 C897 1.394 1_545 S
C900 C899 1.396 . S
C900 H917 0.930 . S
C901 C898 1.383 . S
C901 C899 1.365 1_565 S
C901 H918 0.931 . S
C902 C897 1.370 . S
C902 C898 1.395 . S
C902 H919 0.930 . S
C903 Gd850 2.805 . S
C903 O885 1.263 . S
C903 O886 1.252 1_565 S
C903 C897 1.500 . S
C904 H866 0.930 . S
C904 C880 1.417 . S
C904 C905 1.329 . S
C905 C875 1.437 1_565 S
C905 H876 0.929 . S
C905 C904 1.329 . S
H906 C879 0.931 . S
C907 O889 1.265 1_655 S
C907 O890 1.242 1_655 S
C908 O893 1.261 . S
C908 O894 1.252 . S
C909 C912 1.394 . S
C909 C914 1.370 . S
C909 C915 1.500 . S
C910 C913 1.383 1_455 S
C910 C914 1.395 . S
C911 C912 1.396 1_655 S
C911 C913 1.365 . S
C911 H920 0.929 . S
C912 C909 1.394 . S
C912 C911 1.396 1_455 S
C912 H921 0.930 . S
C913 C910 1.383 1_655 S
C913 C911 1.365 . S
C913 H922 0.931 . S
C914 C909 1.370 . S
C914 C910 1.395 . S
C914 H923 0.930 . S
C915 Gd851 2.805 . S
C915 O891 1.263 . S
C915 O892 1.252 . S
C915 C909 1.500 . S
H916 C899 0.929 . S
H917 C900 0.930 . S
H918 C901 0.931 . S
H919 C902 0.930 . S
H920 C911 0.929 . S
H921 C912 0.930 . S
H922 C913 0.931 . S
H923 C914 0.930 . S
C924 C926 1.422 . S
C924 C928 1.415 . S
C924 N930 1.369 . S
C925 C926 1.421 . S
C925 C927 1.417 . S
C925 C937 1.422 1_455 S
C926 C924 1.422 . S
C926 C925 1.421 . S
C926 N936 1.359 . S
C927 C925 1.417 . S
C927 C929 1.329 . S
C927 H946 0.930 . S
C928 C924 1.415 . S
C928 C929 1.437 . S
C928 C932 1.413 . S
C929 C927 1.329 . S
C929 C928 1.437 . S
C929 H951 0.929 . S
N930 C924 1.369 . S
N930 C931 1.338 . S
N930 Gd935 2.622 . S
C931 N930 1.338 . S
C931 C933 1.378 . S
C931 H943 0.929 . S
C932 C928 1.413 . S
C932 C933 1.348 . S
C932 H948 0.931 . S
C933 C931 1.378 . S
C933 C932 1.348 . S
C933 H949 0.930 . S
Gd934 N954 2.622 1_455 S
Gd934 N961 2.570 . S
Gd934 O968 2.353 . S
Gd934 O969 2.468 . S
Gd934 O970 2.427 1_455 S
Gd934 O972 2.388 1_455 S
Gd934 O973 2.386 . S
Gd934 O977 2.307 . S
Gd934 C987 2.805 . S
Gd935 N930 2.622 . S
Gd935 N936 2.570 . S
Gd935 O967 2.386 . S
Gd935 O971 2.307 1_455 S
Gd935 O974 2.353 . S
Gd935 O975 2.468 . S
Gd935 O976 2.427 . S
Gd935 O978 2.388 . S
Gd935 C999 2.805 . S
N936 C926 1.359 . S
N936 Gd935 2.570 . S
N936 C938 1.343 1_455 S
C937 C925 1.422 1_655 S
C937 C939 1.321 . S
C937 H945 0.931 . S
C938 N936 1.343 1_655 S
C938 C939 1.390 . S
C938 H940 0.931 . S
C939 C937 1.321 . S
C939 C938 1.390 . S
C939 H941 0.930 . S
H940 C938 0.931 . S
H941 C939 0.930 . S
H942 C965 0.931 . S
H943 C931 0.929 . S
H944 C966 0.930 . S
H945 C937 0.931 . S
H946 C927 0.930 . S
H947 C956 0.929 . S
H948 C932 0.931 . S
H949 C933 0.930 . S
H950 C988 0.930 . S
H951 C929 0.929 . S
H952 C957 0.931 . S
H953 C958 0.930 . S
N954 Gd934 2.622 1_655 S
N954 C955 1.369 1_655 S
N954 C956 1.338 . S
C955 N954 1.369 1_455 S
C955 C959 1.415 1_445 S
C955 C962 1.422 . S
C956 H947 0.929 . S
C956 N954 1.338 . S
C956 C958 1.378 1_545 S
C957 H952 0.931 . S
C957 C958 1.348 . S
C957 C959 1.413 . S
C958 H953 0.930 . S
C958 C956 1.378 1_565 S
C958 C957 1.348 . S
C959 C955 1.415 1_665 S
C959 C957 1.413 . S
C959 C989 1.437 1_655 S
H960 C989 0.929 . S
N961 Gd934 2.570 . S
N961 C962 1.359 . S
N961 C965 1.343 . S
C962 C955 1.422 . S
C962 N961 1.359 . S
C962 C964 1.421 . S
C963 C964 1.422 . S
C963 C966 1.321 . S
C963 H990 0.931 . S
C964 C962 1.421 . S
C964 C963 1.422 . S
C964 C988 1.417 1_545 S
C965 H942 0.931 . S
C965 N961 1.343 . S
C965 C966 1.390 . S
C966 H944 0.930 . S
C966 C963 1.321 . S
C966 C965 1.390 . S
O967 Gd935 2.386 . S
O967 C979 1.265 . S
O968 Gd934 2.353 . S
O968 C979 1.242 . S
O969 Gd934 2.468 . S
O969 C987 1.263 . S
O970 Gd934 2.427 1_655 S
O970 C987 1.252 1_655 S
O971 Gd935 2.307 1_655 S
O971 C980 1.261 . S
O972 Gd934 2.388 1_655 S
O972 C980 1.252 . S
O973 Gd934 2.386 . S
O973 C991 1.265 . S
O974 Gd935 2.353 . S
O974 C991 1.242 . S
O975 Gd935 2.468 . S
O975 C999 1.263 . S
O976 Gd935 2.427 . S
O976 C999 1.252 . S
O977 Gd934 2.307 . S
O977 C992 1.261 . S
O978 Gd935 2.388 . S
O978 C992 1.252 . S
C979 O967 1.265 . S
C979 O968 1.242 . S
C980 O971 1.261 . S
C980 O972 1.252 . S
C981 C984 1.394 1_455 S
C981 C986 1.370 . S
C981 C987 1.500 . S
C982 C985 1.383 . S
C982 C986 1.395 . S
C983 C984 1.396 . S
C983 C985 1.365 1_655 S
C983 H1000 0.929 . S
C984 C981 1.394 1_655 S
C984 C983 1.396 . S
C984 H1001 0.930 . S
C985 C982 1.383 . S
C985 C983 1.365 1_455 S
C985 H1002 0.931 . S
C986 C981 1.370 . S
C986 C982 1.395 . S
C986 H1003 0.930 . S
C987 Gd934 2.805 . S
C987 O969 1.263 . S
C987 O970 1.252 1_455 S
C987 C981 1.500 . S
C988 H950 0.930 . S
C988 C964 1.417 1_565 S
C988 C989 1.329 . S
C989 C959 1.437 1_455 S
C989 H960 0.929 . S
C989 C988 1.329 . S
H990 C963 0.931 . S
C991 O973 1.265 . S
C991 O974 1.242 . S
C992 O977 1.261 . S
C992 O978 1.252 . S
C993 C996 1.394 . S
C993 C998 1.370 . S
C993 C999 1.500 . S
C994 C997 1.383 . S
C994 C998 1.395 . S
C995 C996 1.396 . S
C995 C997 1.365 . S
C995 H1004 0.929 . S
C996 C993 1.394 . S
C996 C995 1.396 . S
C996 H1005 0.930 . S
C997 C994 1.383 . S
C997 C995 1.365 . S
C997 H1006 0.931 . S
C998 C993 1.370 . S
C998 C994 1.395 . S
C998 H1007 0.930 . S
C999 Gd935 2.805 . S
C999 O975 1.263 . S
C999 O976 1.252 . S
C999 C993 1.500 . S
H1000 C983 0.929 . S
H1001 C984 0.930 . S
H1002 C985 0.931 . S
H1003 C986 0.930 . S
H1004 C995 0.929 . S
H1005 C996 0.930 . S
H1006 C997 0.931 . S
H1007 C998 0.930 . S
C1008 C1010 1.422 . S
C1008 C1012 1.415 . S
C1008 N1014 1.369 . S
C1009 C1010 1.421 . S
C1009 C1011 1.417 . S
C1009 C1021 1.422 . S
C1010 C1008 1.422 . S
C1010 C1009 1.421 . S
C1010 N1020 1.359 . S
C1011 C1009 1.417 . S
C1011 C1013 1.329 . S
C1011 H1030 0.930 . S
C1012 C1008 1.415 . S
C1012 C1013 1.437 . S
C1012 C1016 1.413 . S
C1013 C1011 1.329 . S
C1013 C1012 1.437 . S
C1013 H1035 0.929 . S
N1014 C1008 1.369 . S
N1014 C1015 1.338 . S
N1014 Gd1019 2.622 . S
C1015 N1014 1.338 . S
C1015 C1017 1.378 . S
C1015 H1027 0.929 . S
C1016 C1012 1.413 . S
C1016 C1017 1.348 . S
C1016 H1032 0.931 . S
C1017 C1015 1.378 . S
C1017 C1016 1.348 . S
C1017 H1033 0.930 . S
Gd1018 N1038 2.622 . S
Gd1018 N1045 2.570 . S
Gd1018 O1052 2.353 . S
Gd1018 O1053 2.468 . S
Gd1018 O1054 2.427 . S
Gd1018 O1056 2.388 . S
Gd1018 O1057 2.386 . S
Gd1018 O1061 2.307 . S
Gd1018 C1071 2.805 . S
Gd1019 N1014 2.622 . S
Gd1019 N1020 2.570 . S
Gd1019 O1051 2.386 . S
Gd1019 O1055 2.307 . S
Gd1019 O1058 2.353 . S
Gd1019 O1059 2.468 . S
Gd1019 O1060 2.427 . S
Gd1019 O1062 2.388 . S
Gd1019 C1083 2.805 . S
N1020 C1010 1.359 . S
N1020 Gd1019 2.570 . S
N1020 C1022 1.343 . S
C1021 C1009 1.422 . S
C1021 C1023 1.321 . S
C1021 H1029 0.931 . S
C1022 N1020 1.343 . S
C1022 C1023 1.390 . S
C1022 H1024 0.931 . S
C1023 C1021 1.321 . S
C1023 C1022 1.390 . S
C1023 H1025 0.930 . S
H1024 C1022 0.931 . S
H1025 C1023 0.930 . S
H1026 C1049 0.931 . S
H1027 C1015 0.929 . S
H1028 C1050 0.930 . S
H1029 C1021 0.931 . S
H1030 C1011 0.930 . S
H1031 C1040 0.929 . S
H1032 C1016 0.931 . S
H1033 C1017 0.930 . S
H1034 C1072 0.930 . S
H1035 C1013 0.929 . S
H1036 C1041 0.931 1_455 S
H1037 C1042 0.930 . S
N1038 Gd1018 2.622 . S
N1038 C1039 1.369 . S
N1038 C1040 1.338 . S
C1039 N1038 1.369 . S
C1039 C1043 1.415 1_655 S
C1039 C1046 1.412 1_655 S
C1040 H1031 0.929 . S
C1040 N1038 1.338 . S
C1040 C1042 1.378 . S
C1041 H1036 0.931 1_655 S
C1041 C1042 1.348 . S
C1041 C1043 1.413 1_655 S
C1042 H1037 0.930 . S
C1042 C1040 1.378 . S
C1042 C1041 1.348 . S
C1043 C1039 1.415 1_455 S
C1043 C1041 1.413 1_455 S
C1043 C1073 1.437 . S
H1044 C1073 0.929 . S
N1045 Gd1018 2.570 . S
N1045 C1046 1.358 1_655 S
N1045 C1049 1.343 . S
C1046 C1039 1.412 1_455 S
C1046 N1045 1.358 1_455 S
C1046 C1048 1.432 . S
C1047 C1048 1.422 . S
C1047 C1050 1.321 . S
C1047 H1074 0.931 . S
C1048 C1046 1.432 . S
C1048 C1047 1.422 . S
C1048 C1072 1.417 . S
C1049 H1026 0.931 . S
C1049 N1045 1.343 . S
C1049 C1050 1.390 1_655 S
C1050 H1028 0.930 . S
C1050 C1047 1.321 . S
C1050 C1049 1.390 1_455 S
O1051 Gd1019 2.386 . S
O1051 C1063 1.265 . S
O1052 Gd1018 2.353 . S
O1052 C1063 1.242 . S
O1053 Gd1018 2.468 . S
O1053 C1071 1.263 . S
O1054 Gd1018 2.427 . S
O1054 C1071 1.252 . S
O1055 Gd1019 2.307 . S
O1055 C1064 1.261 . S
O1056 Gd1018 2.388 . S
O1056 C1064 1.252 . S
O1057 Gd1018 2.386 . S
O1057 C1075 1.265 . S
O1058 Gd1019 2.353 . S
O1058 C1075 1.242 . S
O1059 Gd1019 2.468 . S
O1059 C1083 1.263 . S
O1060 Gd1019 2.427 . S
O1060 C1083 1.252 . S
O1061 Gd1018 2.307 . S
O1061 C1076 1.261 . S
O1062 Gd1019 2.388 . S
O1062 C1076 1.252 . S
C1063 O1051 1.265 . S
C1063 O1052 1.242 . S
C1064 O1055 1.261 . S
C1064 O1056 1.252 . S
C1065 C1068 1.394 . S
C1065 C1070 1.370 . S
C1065 C1071 1.500 . S
C1066 C1069 1.383 . S
C1066 C1070 1.395 . S
C1067 C1068 1.396 . S
C1067 C1069 1.365 . S
C1067 H1084 0.929 . S
C1068 C1065 1.394 . S
C1068 C1067 1.396 . S
C1068 H1085 0.930 . S
C1069 C1066 1.383 . S
C1069 C1067 1.365 . S
C1069 H1086 0.931 . S
C1070 C1065 1.370 . S
C1070 C1066 1.395 . S
C1070 H1087 0.930 . S
C1071 Gd1018 2.805 . S
C1071 O1053 1.263 . S
C1071 O1054 1.252 . S
C1071 C1065 1.500 . S
C1072 H1034 0.930 . S
C1072 C1048 1.417 . S
C1072 C1073 1.329 . S
C1073 C1043 1.437 . S
C1073 H1044 0.929 . S
C1073 C1072 1.329 . S
H1074 C1047 0.931 . S
C1075 O1057 1.265 . S
C1075 O1058 1.242 . S
C1076 O1061 1.261 . S
C1076 O1062 1.252 . S
C1077 C1080 1.394 . S
C1077 C1082 1.370 . S
C1077 C1083 1.500 . S
C1078 C1081 1.383 . S
C1078 C1082 1.395 . S
C1079 C1080 1.396 . S
C1079 C1081 1.365 . S
C1079 H1088 0.929 . S
C1080 C1077 1.394 . S
C1080 C1079 1.396 . S
C1080 H1089 0.930 . S
C1081 C1078 1.383 . S
C1081 C1079 1.365 . S
C1081 H1090 0.931 . S
C1082 C1077 1.370 . S
C1082 C1078 1.395 . S
C1082 H1091 0.930 . S
C1083 Gd1019 2.805 . S
C1083 O1059 1.263 . S
C1083 O1060 1.252 . S
C1083 C1077 1.500 . S
H1084 C1067 0.929 . S
H1085 C1068 0.930 . S
H1086 C1069 0.931 . S
H1087 C1070 0.930 . S
H1088 C1079 0.929 . S
H1089 C1080 0.930 . S
H1090 C1081 0.931 . S
H1091 C1082 0.930 . S
C1092 C1094 1.422 . S
C1092 C1096 1.415 . S
C1092 N1098 1.369 . S
C1093 C1094 1.421 . S
C1093 C1095 1.417 . S
C1093 C1105 1.422 . S
C1094 C1092 1.422 . S
C1094 C1093 1.421 . S
C1094 N1104 1.359 . S
C1095 C1093 1.417 . S
C1095 C1097 1.329 . S
C1095 H1114 0.930 . S
C1096 C1092 1.415 . S
C1096 C1097 1.437 . S
C1096 C1100 1.413 . S
C1097 C1095 1.329 . S
C1097 C1096 1.437 . S
C1097 H1119 0.929 . S
N1098 C1092 1.369 . S
N1098 C1099 1.338 . S
N1098 Gd1103 2.622 . S
C1099 N1098 1.338 . S
C1099 C1101 1.378 . S
C1099 H1111 0.929 . S
C1100 C1096 1.413 . S
C1100 C1101 1.348 . S
C1100 H1116 0.931 . S
C1101 C1099 1.378 . S
C1101 C1100 1.348 . S
C1101 H1117 0.930 . S
Gd1102 N1122 2.622 . S
Gd1102 N1129 2.570 . S
Gd1102 O1136 2.353 . S
Gd1102 O1137 2.468 . S
Gd1102 O1138 2.427 . S
Gd1102 O1140 2.388 . S
Gd1102 O1141 2.386 . S
Gd1102 O1145 2.307 . S
Gd1102 C1155 2.805 . S
Gd1103 N1098 2.622 . S
Gd1103 N1104 2.570 . S
Gd1103 O1135 2.386 . S
Gd1103 O1139 2.307 . S
Gd1103 O1142 2.353 . S
Gd1103 O1143 2.468 . S
Gd1103 O1144 2.427 . S
Gd1103 O1146 2.388 . S
Gd1103 C1167 2.805 . S
N1104 C1094 1.359 . S
N1104 Gd1103 2.570 . S
N1104 C1106 1.343 . S
C1105 C1093 1.422 . S
C1105 C1107 1.321 . S
C1105 H1113 0.931 . S
C1106 N1104 1.343 . S
C1106 C1107 1.390 . S
C1106 H1108 0.931 . S
C1107 C1105 1.321 . S
C1107 C1106 1.390 . S
C1107 H1109 0.930 . S
H1108 C1106 0.931 . S
H1109 C1107 0.930 . S
H1110 C1133 0.931 . S
H1111 C1099 0.929 . S
H1112 C1134 0.930 . S
H1113 C1105 0.931 . S
H1114 C1095 0.930 . S
H1115 C1124 0.929 . S
H1116 C1100 0.931 . S
H1117 C1101 0.930 . S
H1118 C1156 0.930 . S
H1119 C1097 0.929 . S
H1120 C1125 0.931 . S
H1121 C1126 0.930 1_565 S
N1122 Gd1102 2.622 . S
N1122 C1123 1.369 . S
N1122 C1124 1.338 . S
C1123 N1122 1.369 . S
C1123 C1127 1.415 . S
C1123 C1130 1.422 . S
C1124 H1115 0.929 . S
C1124 N1122 1.338 . S
C1124 C1126 1.378 . S
C1125 H1120 0.931 . S
C1125 C1126 1.348 . S
C1125 C1127 1.413 . S
C1126 H1121 0.930 1_545 S
C1126 C1124 1.378 . S
C1126 C1125 1.348 . S
C1127 C1123 1.415 . S
C1127 C1125 1.413 . S
C1127 C1157 1.437 . S
H1128 C1157 0.929 . S
N1129 Gd1102 2.570 . S
N1129 C1130 1.359 . S
N1129 C1133 1.343 . S
C1130 C1123 1.422 . S
C1130 N1129 1.359 . S
C1130 C1132 1.421 . S
C1131 C1132 1.422 . S
C1131 C1134 1.321 . S
C1131 H1158 0.931 . S
C1132 C1130 1.421 . S
C1132 C1131 1.422 . S
C1132 C1156 1.417 . S
C1133 H1110 0.931 . S
C1133 N1129 1.343 . S
C1133 C1134 1.390 . S
C1134 H1112 0.930 . S
C1134 C1131 1.321 . S
C1134 C1133 1.390 . S
O1135 Gd1103 2.386 . S
O1135 C1147 1.265 . S
O1136 Gd1102 2.353 . S
O1136 C1147 1.242 . S
O1137 Gd1102 2.468 . S
O1137 C1155 1.263 . S
O1138 Gd1102 2.427 . S
O1138 C1155 1.252 . S
O1139 Gd1103 2.307 . S
O1139 C1148 1.261 . S
O1140 Gd1102 2.388 . S
O1140 C1148 1.252 . S
O1141 Gd1102 2.386 . S
O1141 C1159 1.265 . S
O1142 Gd1103 2.353 . S
O1142 C1159 1.242 . S
O1143 Gd1103 2.468 . S
O1143 C1167 1.263 . S
O1144 Gd1103 2.427 . S
O1144 C1167 1.252 . S
O1145 Gd1102 2.307 . S
O1145 C1160 1.261 . S
O1146 Gd1103 2.388 . S
O1146 C1160 1.252 . S
C1147 O1135 1.265 . S
C1147 O1136 1.242 . S
C1148 O1139 1.261 . S
C1148 O1140 1.252 . S
C1149 C1152 1.394 . S
C1149 C1154 1.370 . S
C1149 C1155 1.500 . S
C1150 C1153 1.383 . S
C1150 C1154 1.395 . S
C1151 C1152 1.396 . S
C1151 C1153 1.365 . S
C1151 H1168 0.929 . S
C1152 C1149 1.394 . S
C1152 C1151 1.396 . S
C1152 H1169 0.930 . S
C1153 C1150 1.383 . S
C1153 C1151 1.365 . S
C1153 H1170 0.931 . S
C1154 C1149 1.370 . S
C1154 C1150 1.395 . S
C1154 H1171 0.930 . S
C1155 Gd1102 2.805 . S
C1155 O1137 1.263 . S
C1155 O1138 1.252 . S
C1155 C1149 1.500 . S
C1156 H1118 0.930 . S
C1156 C1132 1.417 . S
C1156 C1157 1.329 . S
C1157 C1127 1.437 . S
C1157 H1128 0.929 . S
C1157 C1156 1.329 . S
H1158 C1131 0.931 . S
C1159 O1141 1.265 . S
C1159 O1142 1.242 . S
C1160 O1145 1.261 . S
C1160 O1146 1.252 . S
C1161 C1164 1.394 . S
C1161 C1166 1.370 . S
C1161 C1167 1.500 . S
C1162 C1165 1.383 . S
C1162 C1166 1.395 . S
C1163 C1164 1.396 . S
C1163 C1165 1.365 . S
C1163 H1172 0.929 . S
C1164 C1161 1.394 . S
C1164 C1163 1.396 . S
C1164 H1173 0.930 . S
C1165 C1162 1.383 . S
C1165 C1163 1.365 . S
C1165 H1174 0.931 . S
C1166 C1161 1.370 . S
C1166 C1162 1.395 . S
C1166 H1175 0.930 . S
C1167 Gd1103 2.805 . S
C1167 O1143 1.263 . S
C1167 O1144 1.252 . S
C1167 C1161 1.500 . S
H1168 C1151 0.929 . S
H1169 C1152 0.930 . S
H1170 C1153 0.931 . S
H1171 C1154 0.930 . S
H1172 C1163 0.929 . S
H1173 C1164 0.930 . S
H1174 C1165 0.931 . S
H1175 C1166 0.930 . S
C1176 C1178 1.422 . S
C1176 C1180 1.415 . S
C1176 N1182 1.369 . S
C1177 C1178 1.421 . S
C1177 C1179 1.417 . S
C1177 C1189 1.422 . S
C1178 C1176 1.422 . S
C1178 C1177 1.421 . S
C1178 N1188 1.359 . S
C1179 C1177 1.417 . S
C1179 C1181 1.329 . S
C1179 H1198 0.930 . S
C1180 C1176 1.415 . S
C1180 C1181 1.437 . S
C1180 C1184 1.413 . S
C1181 C1179 1.329 . S
C1181 C1180 1.437 . S
C1181 H1203 0.929 . S
N1182 C1176 1.369 . S
N1182 C1183 1.338 . S
N1182 Gd1187 2.622 . S
C1183 N1182 1.338 . S
C1183 C1185 1.378 . S
C1183 H1195 0.929 . S
C1184 C1180 1.413 . S
C1184 C1185 1.348 . S
C1184 H1200 0.931 . S
C1185 C1183 1.378 . S
C1185 C1184 1.348 . S
C1185 H1201 0.930 . S
Gd1186 N1206 2.622 . S
Gd1186 N1213 2.570 . S
Gd1186 O1220 2.353 . S
Gd1186 O1221 2.468 . S
Gd1186 O1222 2.427 . S
Gd1186 O1224 2.388 . S
Gd1186 O1225 2.386 . S
Gd1186 O1229 2.307 . S
Gd1186 C1239 2.805 . S
Gd1187 N1182 2.622 . S
Gd1187 N1188 2.570 . S
Gd1187 O1219 2.386 . S
Gd1187 O1223 2.307 . S
Gd1187 O1226 2.353 . S
Gd1187 O1227 2.468 . S
Gd1187 O1228 2.427 . S
Gd1187 O1230 2.388 . S
Gd1187 C1251 2.805 . S
N1188 C1178 1.359 . S
N1188 Gd1187 2.570 . S
N1188 C1190 1.343 . S
C1189 C1177 1.422 . S
C1189 C1191 1.321 . S
C1189 H1197 0.931 . S
C1190 N1188 1.343 . S
C1190 C1191 1.390 . S
C1190 H1192 0.931 . S
C1191 C1189 1.321 . S
C1191 C1190 1.390 . S
C1191 H1193 0.930 . S
H1192 C1190 0.931 . S
H1193 C1191 0.930 . S
H1194 C1217 0.931 . S
H1195 C1183 0.929 . S
H1196 C1218 0.930 . S
H1197 C1189 0.931 . S
H1198 C1179 0.930 . S
H1199 C1208 0.929 . S
H1200 C1184 0.931 . S
H1201 C1185 0.930 . S
H1202 C1240 0.930 . S
H1203 C1181 0.929 . S
H1204 C1209 0.931 1_565 S
H1205 C1210 0.930 1_455 S
N1206 Gd1186 2.622 . S
N1206 C1207 1.369 . S
N1206 C1208 1.338 . S
C1207 N1206 1.369 . S
C1207 C1211 1.415 1_545 S
C1207 C1214 1.424 1_545 S
C1208 H1199 0.929 . S
C1208 N1206 1.338 . S
C1208 C1210 1.378 . S
C1209 H1204 0.931 1_545 S
C1209 C1210 1.348 . S
C1209 C1211 1.413 1_545 S
C1210 H1205 0.930 1_655 S
C1210 C1208 1.378 . S
C1210 C1209 1.348 . S
C1211 C1207 1.415 1_565 S
C1211 C1209 1.413 1_565 S
C1211 C1241 1.437 . S
H1212 C1241 0.929 . S
N1213 Gd1186 2.570 . S
N1213 C1214 1.349 1_545 S
N1213 C1217 1.343 . S
C1214 C1207 1.424 1_565 S
C1214 N1213 1.349 1_565 S
C1214 C1216 1.429 . S
C1215 C1216 1.422 . S
C1215 C1218 1.321 . S
C1215 H1242 0.931 . S
C1216 C1214 1.429 . S
C1216 C1215 1.422 . S
C1216 C1240 1.417 . S
C1217 H1194 0.931 . S
C1217 N1213 1.343 . S
C1217 C1218 1.390 1_545 S
C1218 H1196 0.930 . S
C1218 C1215 1.321 . S
C1218 C1217 1.390 1_565 S
O1219 Gd1187 2.386 . S
O1219 C1231 1.265 . S
O1220 Gd1186 2.353 . S
O1220 C1231 1.242 . S
O1221 Gd1186 2.468 . S
O1221 C1239 1.263 . S
O1222 Gd1186 2.427 . S
O1222 C1239 1.252 . S
O1223 Gd1187 2.307 . S
O1223 C1232 1.261 . S
O1224 Gd1186 2.388 . S
O1224 C1232 1.252 . S
O1225 Gd1186 2.386 . S
O1225 C1243 1.265 . S
O1226 Gd1187 2.353 . S
O1226 C1243 1.242 . S
O1227 Gd1187 2.468 . S
O1227 C1251 1.263 . S
O1228 Gd1187 2.427 . S
O1228 C1251 1.252 . S
O1229 Gd1186 2.307 . S
O1229 C1244 1.261 . S
O1230 Gd1187 2.388 . S
O1230 C1244 1.252 . S
C1231 O1219 1.265 . S
C1231 O1220 1.242 . S
C1232 O1223 1.261 . S
C1232 O1224 1.252 . S
C1233 C1236 1.394 . S
C1233 C1238 1.370 . S
C1233 C1239 1.500 . S
C1234 C1237 1.383 . S
C1234 C1238 1.395 . S
C1235 C1236 1.396 . S
C1235 C1237 1.365 . S
C1235 H1252 0.929 . S
C1236 C1233 1.394 . S
C1236 C1235 1.396 . S
C1236 H1253 0.930 . S
C1237 C1234 1.383 . S
C1237 C1235 1.365 . S
C1237 H1254 0.931 . S
C1238 C1233 1.370 . S
C1238 C1234 1.395 . S
C1238 H1255 0.930 . S
C1239 Gd1186 2.805 . S
C1239 O1221 1.263 . S
C1239 O1222 1.252 . S
C1239 C1233 1.500 . S
C1240 H1202 0.930 . S
C1240 C1216 1.417 . S
C1240 C1241 1.329 . S
C1241 C1211 1.437 . S
C1241 H1212 0.929 . S
C1241 C1240 1.329 . S
H1242 C1215 0.931 . S
C1243 O1225 1.265 . S
C1243 O1226 1.242 . S
C1244 O1229 1.261 . S
C1244 O1230 1.252 . S
C1245 C1248 1.394 . S
C1245 C1250 1.370 . S
C1245 C1251 1.500 . S
C1246 C1249 1.383 . S
C1246 C1250 1.395 . S
C1247 C1248 1.396 . S
C1247 C1249 1.365 . S
C1247 H1256 0.929 . S
C1248 C1245 1.394 . S
C1248 C1247 1.396 . S
C1248 H1257 0.930 . S
C1249 C1246 1.383 . S
C1249 C1247 1.365 . S
C1249 H1258 0.931 . S
C1250 C1245 1.370 . S
C1250 C1246 1.395 . S
C1250 H1259 0.930 . S
C1251 Gd1187 2.805 . S
C1251 O1227 1.263 . S
C1251 O1228 1.252 . S
C1251 C1245 1.500 . S
H1252 C1235 0.929 . S
H1253 C1236 0.930 . S
H1254 C1237 0.931 . S
H1255 C1238 0.930 . S
H1256 C1247 0.929 . S
H1257 C1248 0.930 . S
H1258 C1249 0.931 . S
H1259 C1250 0.930 . S
C1260 C1262 1.422 . S
C1260 C1264 1.415 . S
C1260 N1266 1.369 . S
C1261 C1262 1.421 . S
C1261 C1263 1.417 . S
C1261 C1273 1.422 . S
C1262 C1260 1.422 . S
C1262 C1261 1.421 . S
C1262 N1272 1.359 . S
C1263 C1261 1.417 . S
C1263 C1265 1.329 . S
C1263 H1282 0.930 . S
C1264 C1260 1.415 . S
C1264 C1265 1.437 . S
C1264 C1268 1.413 . S
C1265 C1263 1.329 . S
C1265 C1264 1.437 . S
C1265 H1287 0.929 . S
N1266 C1260 1.369 . S
N1266 C1267 1.338 . S
N1266 Gd1271 2.622 . S
C1267 N1266 1.338 . S
C1267 C1269 1.378 . S
C1267 H1279 0.929 . S
C1268 C1264 1.413 . S
C1268 C1269 1.348 . S
C1268 H1284 0.931 . S
C1269 C1267 1.378 . S
C1269 C1268 1.348 . S
C1269 H1285 0.930 . S
Gd1270 N1290 2.622 1_655 S
Gd1270 N1297 2.570 . S
Gd1270 O1304 2.353 . S
Gd1270 O1305 2.468 . S
Gd1270 O1306 2.427 . S
Gd1270 O1308 2.388 1_655 S
Gd1270 O1309 2.386 1_655 S
Gd1270 O1313 2.307 . S
Gd1270 C1323 2.805 . S
Gd1271 N1266 2.622 . S
Gd1271 N1272 2.570 . S
Gd1271 O1303 2.386 . S
Gd1271 O1307 2.307 . S
Gd1271 O1310 2.353 . S
Gd1271 O1311 2.468 . S
Gd1271 O1312 2.427 . S
Gd1271 O1314 2.388 . S
Gd1271 C1335 2.805 . S
N1272 C1262 1.359 . S
N1272 Gd1271 2.570 . S
N1272 C1274 1.343 . S
C1273 C1261 1.422 . S
C1273 C1275 1.321 . S
C1273 H1281 0.931 . S
C1274 N1272 1.343 . S
C1274 C1275 1.390 . S
C1274 H1276 0.931 . S
C1275 C1273 1.321 . S
C1275 C1274 1.390 . S
C1275 H1277 0.930 . S
H1276 C1274 0.931 . S
H1277 C1275 0.930 . S
H1278 C1301 0.931 . S
H1279 C1267 0.929 . S
H1280 C1302 0.930 . S
H1281 C1273 0.931 . S
H1282 C1263 0.930 . S
H1283 C1292 0.929 . S
H1284 C1268 0.931 . S
H1285 C1269 0.930 . S
H1286 C1324 0.930 . S
H1287 C1265 0.929 . S
H1288 C1293 0.931 . S
H1289 C1294 0.930 . S
N1290 Gd1270 2.622 1_455 S
N1290 C1291 1.369 . S
N1290 C1292 1.338 . S
C1291 N1290 1.369 . S
C1291 C1295 1.415 . S
C1291 C1298 1.422 . S
C1292 H1283 0.929 . S
C1292 N1290 1.338 . S
C1292 C1294 1.378 . S
C1293 H1288 0.931 . S
C1293 C1294 1.348 . S
C1293 C1295 1.413 . S
C1294 H1289 0.930 . S
C1294 C1292 1.378 . S
C1294 C1293 1.348 . S
C1295 C1291 1.415 . S
C1295 C1293 1.413 . S
C1295 C1325 1.437 . S
H1296 C1325 0.929 . S
N1297 Gd1270 2.570 . S
N1297 C1298 1.359 1_655 S
N1297 C1301 1.343 . S
C1298 C1291 1.422 . S
C1298 N1297 1.359 1_455 S
C1298 C1300 1.421 . S
C1299 C1300 1.422 . S
C1299 C1302 1.321 1_455 S
C1299 H1326 0.931 . S
C1300 C1298 1.421 . S
C1300 C1299 1.422 . S
C1300 C1324 1.417 . S
C1301 H1278 0.931 . S
C1301 N1297 1.343 . S
C1301 C1302 1.390 . S
C1302 H1280 0.930 . S
C1302 C1299 1.321 1_655 S
C1302 C1301 1.390 . S
O1303 Gd1271 2.386 . S
O1303 C1315 1.265 . S
O1304 Gd1270 2.353 . S
O1304 C1315 1.242 . S
O1305 Gd1270 2.468 . S
O1305 C1323 1.263 . S
O1306 Gd1270 2.427 . S
O1306 C1323 1.252 . S
O1307 Gd1271 2.307 . S
O1307 C1316 1.261 1_655 S
O1308 Gd1270 2.388 1_455 S
O1308 C1316 1.252 . S
O1309 Gd1270 2.386 1_455 S
O1309 C1327 1.265 . S
O1310 Gd1271 2.353 . S
O1310 C1327 1.242 1_655 S
O1311 Gd1271 2.468 . S
O1311 C1335 1.263 . S
O1312 Gd1271 2.427 . S
O1312 C1335 1.252 . S
O1313 Gd1270 2.307 . S
O1313 C1328 1.261 . S
O1314 Gd1271 2.388 . S
O1314 C1328 1.252 . S
C1315 O1303 1.265 . S
C1315 O1304 1.242 . S
C1316 O1307 1.261 1_455 S
C1316 O1308 1.252 . S
C1317 C1320 1.394 . S
C1317 C1322 1.370 . S
C1317 C1323 1.500 . S
C1318 C1321 1.383 . S
C1318 C1322 1.395 . S
C1319 C1320 1.396 . S
C1319 C1321 1.365 . S
C1319 H1336 0.929 . S
C1320 C1317 1.394 . S
C1320 C1319 1.396 . S
C1320 H1337 0.930 . S
C1321 C1318 1.383 . S
C1321 C1319 1.365 . S
C1321 H1338 0.931 . S
C1322 C1317 1.370 . S
C1322 C1318 1.395 . S
C1322 H1339 0.930 . S
C1323 Gd1270 2.805 . S
C1323 O1305 1.263 . S
C1323 O1306 1.252 . S
C1323 C1317 1.500 . S
C1324 H1286 0.930 . S
C1324 C1300 1.417 . S
C1324 C1325 1.329 . S
C1325 C1295 1.437 . S
C1325 H1296 0.929 . S
C1325 C1324 1.329 . S
H1326 C1299 0.931 . S
C1327 O1309 1.265 . S
C1327 O1310 1.242 1_455 S
C1328 O1313 1.261 . S
C1328 O1314 1.252 . S
C1329 C1332 1.394 . S
C1329 C1334 1.370 1_655 S
C1329 C1335 1.500 . S
C1330 C1333 1.383 . S
C1330 C1334 1.395 . S
C1331 C1332 1.396 . S
C1331 C1333 1.365 1_655 S
C1331 H1340 0.929 . S
C1332 C1329 1.394 . S
C1332 C1331 1.396 . S
C1332 H1341 0.930 . S
C1333 C1330 1.383 . S
C1333 C1331 1.365 1_455 S
C1333 H1342 0.931 . S
C1334 C1329 1.370 1_455 S
C1334 C1330 1.395 . S
C1334 H1343 0.930 . S
C1335 Gd1271 2.805 . S
C1335 O1311 1.263 . S
C1335 O1312 1.252 . S
C1335 C1329 1.500 . S
H1336 C1319 0.929 . S
H1337 C1320 0.930 . S
H1338 C1321 0.931 . S
H1339 C1322 0.930 . S
H1340 C1331 0.929 . S
H1341 C1332 0.930 . S
H1342 C1333 0.931 . S
H1343 C1334 0.930 . S
C1344 C1346 1.422 . S
C1344 C1348 1.415 . S
C1344 N1350 1.369 . S
C1345 C1346 1.421 . S
C1345 C1347 1.417 . S
C1345 C1357 1.422 . S
C1346 C1344 1.422 . S
C1346 C1345 1.421 . S
C1346 N1356 1.359 . S
C1347 C1345 1.417 . S
C1347 C1349 1.329 . S
C1347 H1366 0.930 . S
C1348 C1344 1.415 . S
C1348 C1349 1.437 . S
C1348 C1352 1.413 . S
C1349 C1347 1.329 . S
C1349 C1348 1.437 . S
C1349 H1371 0.929 . S
N1350 C1344 1.369 . S
N1350 C1351 1.338 . S
N1350 Gd1355 2.622 . S
C1351 N1350 1.338 . S
C1351 C1353 1.378 . S
C1351 H1363 0.929 . S
C1352 C1348 1.413 . S
C1352 C1353 1.348 . S
C1352 H1368 0.931 . S
C1353 C1351 1.378 . S
C1353 C1352 1.348 . S
C1353 H1369 0.930 . S
Gd1354 N1374 2.622 . S
Gd1354 N1381 2.570 . S
Gd1354 O1388 2.353 . S
Gd1354 O1389 2.468 . S
Gd1354 O1390 2.427 . S
Gd1354 O1392 2.388 . S
Gd1354 O1393 2.386 . S
Gd1354 O1397 2.307 . S
Gd1354 C1407 2.805 . S
Gd1355 N1350 2.622 . S
Gd1355 N1356 2.570 . S
Gd1355 O1387 2.386 . S
Gd1355 O1391 2.307 . S
Gd1355 O1394 2.353 . S
Gd1355 O1395 2.468 . S
Gd1355 O1396 2.427 . S
Gd1355 O1398 2.388 . S
Gd1355 C1419 2.805 . S
N1356 C1346 1.359 . S
N1356 Gd1355 2.570 . S
N1356 C1358 1.343 . S
C1357 C1345 1.422 . S
C1357 C1359 1.321 . S
C1357 H1365 0.931 . S
C1358 N1356 1.343 . S
C1358 C1359 1.390 . S
C1358 H1360 0.931 . S
C1359 C1357 1.321 . S
C1359 C1358 1.390 . S
C1359 H1361 0.930 . S
H1360 C1358 0.931 . S
H1361 C1359 0.930 . S
H1362 C1385 0.931 . S
H1363 C1351 0.929 . S
H1364 C1386 0.930 . S
H1365 C1357 0.931 . S
H1366 C1347 0.930 . S
H1367 C1376 0.929 . S
H1368 C1352 0.931 . S
H1369 C1353 0.930 . S
H1370 C1408 0.930 . S
H1371 C1349 0.929 . S
H1372 C1377 0.931 . S
H1373 C1378 0.930 . S
N1374 Gd1354 2.622 . S
N1374 C1375 1.369 . S
N1374 C1376 1.338 . S
C1375 N1374 1.369 . S
C1375 C1379 1.415 . S
C1375 C1382 1.422 . S
C1376 H1367 0.929 . S
C1376 N1374 1.338 . S
C1376 C1378 1.378 . S
C1377 H1372 0.931 . S
C1377 C1378 1.348 . S
C1377 C1379 1.413 . S
C1378 H1373 0.930 . S
C1378 C1376 1.378 . S
C1378 C1377 1.348 . S
C1379 C1375 1.415 . S
C1379 C1377 1.413 . S
C1379 C1409 1.437 . S
H1380 C1409 0.929 . S
N1381 Gd1354 2.570 . S
N1381 C1382 1.359 . S
N1381 C1385 1.343 . S
C1382 C1375 1.422 . S
C1382 N1381 1.359 . S
C1382 C1384 1.421 . S
C1383 C1384 1.422 . S
C1383 C1386 1.321 . S
C1383 H1410 0.931 . S
C1384 C1382 1.421 . S
C1384 C1383 1.422 . S
C1384 C1408 1.417 . S
C1385 H1362 0.931 . S
C1385 N1381 1.343 . S
C1385 C1386 1.390 . S
C1386 H1364 0.930 . S
C1386 C1383 1.321 . S
C1386 C1385 1.390 . S
O1387 Gd1355 2.386 . S
O1387 C1399 1.265 . S
O1388 Gd1354 2.353 . S
O1388 C1399 1.242 . S
O1389 Gd1354 2.468 . S
O1389 C1407 1.263 . S
O1390 Gd1354 2.427 . S
O1390 C1407 1.252 . S
O1391 Gd1355 2.307 . S
O1391 C1400 1.261 . S
O1392 Gd1354 2.388 . S
O1392 C1400 1.252 . S
O1393 Gd1354 2.386 . S
O1393 C1411 1.265 . S
O1394 Gd1355 2.353 . S
O1394 C1411 1.242 . S
O1395 Gd1355 2.468 . S
O1395 C1419 1.263 . S
O1396 Gd1355 2.427 . S
O1396 C1419 1.252 . S
O1397 Gd1354 2.307 . S
O1397 C1412 1.261 . S
O1398 Gd1355 2.388 . S
O1398 C1412 1.252 . S
C1399 O1387 1.265 . S
C1399 O1388 1.242 . S
C1400 O1391 1.261 . S
C1400 O1392 1.252 . S
C1401 C1404 1.394 . S
C1401 C1406 1.370 . S
C1401 C1407 1.500 . S
C1402 C1405 1.383 . S
C1402 C1406 1.395 . S
C1403 C1404 1.396 . S
C1403 C1405 1.365 . S
C1403 H1420 0.929 . S
C1404 C1401 1.394 . S
C1404 C1403 1.396 . S
C1404 H1421 0.930 . S
C1405 C1402 1.383 . S
C1405 C1403 1.365 . S
C1405 H1422 0.931 . S
C1406 C1401 1.370 . S
C1406 C1402 1.395 . S
C1406 H1423 0.930 . S
C1407 Gd1354 2.805 . S
C1407 O1389 1.263 . S
C1407 O1390 1.252 . S
C1407 C1401 1.500 . S
C1408 H1370 0.930 . S
C1408 C1384 1.417 . S
C1408 C1409 1.329 . S
C1409 C1379 1.437 . S
C1409 H1380 0.929 . S
C1409 C1408 1.329 . S
H1410 C1383 0.931 . S
C1411 O1393 1.265 . S
C1411 O1394 1.242 . S
C1412 O1397 1.261 . S
C1412 O1398 1.252 . S
C1413 C1416 1.394 . S
C1413 C1418 1.370 . S
C1413 C1419 1.500 . S
C1414 C1417 1.383 . S
C1414 C1418 1.395 . S
C1415 C1416 1.396 . S
C1415 C1417 1.365 . S
C1415 H1424 0.929 . S
C1416 C1413 1.394 . S
C1416 C1415 1.396 . S
C1416 H1425 0.930 . S
C1417 C1414 1.383 . S
C1417 C1415 1.365 . S
C1417 H1426 0.931 . S
C1418 C1413 1.370 . S
C1418 C1414 1.395 . S
C1418 H1427 0.930 . S
C1419 Gd1355 2.805 . S
C1419 O1395 1.263 . S
C1419 O1396 1.252 . S
C1419 C1413 1.500 . S
H1420 C1403 0.929 . S
H1421 C1404 0.930 . S
H1422 C1405 0.931 . S
H1423 C1406 0.930 . S
H1424 C1415 0.929 . S
H1425 C1416 0.930 . S
H1426 C1417 0.931 . S
H1427 C1418 0.930 . S
C1428 C1430 1.422 . S
C1428 C1432 1.415 . S
C1428 N1434 1.369 . S
C1429 C1430 1.421 . S
C1429 C1431 1.417 . S
C1429 C1441 1.422 . S
C1430 C1428 1.422 . S
C1430 C1429 1.421 . S
C1430 N1440 1.359 . S
C1431 C1429 1.417 . S
C1431 C1433 1.329 . S
C1431 H1450 0.930 . S
C1432 C1428 1.415 . S
C1432 C1433 1.437 . S
C1432 C1436 1.413 . S
C1433 C1431 1.329 . S
C1433 C1432 1.437 . S
C1433 H1455 0.929 . S
N1434 C1428 1.369 . S
N1434 C1435 1.338 . S
N1434 Gd1439 2.622 . S
C1435 N1434 1.338 . S
C1435 C1437 1.378 . S
C1435 H1447 0.929 . S
C1436 C1432 1.413 . S
C1436 C1437 1.348 . S
C1436 H1452 0.931 . S
C1437 C1435 1.378 . S
C1437 C1436 1.348 . S
C1437 H1453 0.930 . S
Gd1438 N1458 2.622 1_545 S
Gd1438 N1465 2.570 . S
Gd1438 O1472 2.353 . S
Gd1438 O1473 2.468 . S
Gd1438 O1474 2.427 . S
Gd1438 O1476 2.388 1_545 S
Gd1438 O1477 2.386 1_545 S
Gd1438 O1481 2.307 . S
Gd1438 C1491 2.805 . S
Gd1439 N1434 2.622 . S
Gd1439 N1440 2.570 . S
Gd1439 O1471 2.386 . S
Gd1439 O1475 2.307 . S
Gd1439 O1478 2.353 . S
Gd1439 O1479 2.468 . S
Gd1439 O1480 2.427 . S
Gd1439 O1482 2.388 . S
Gd1439 C1503 2.805 . S
N1440 C1430 1.359 . S
N1440 Gd1439 2.570 . S
N1440 C1442 1.343 . S
C1441 C1429 1.422 . S
C1441 C1443 1.321 . S
C1441 H1449 0.931 . S
C1442 N1440 1.343 . S
C1442 C1443 1.390 . S
C1442 H1444 0.931 . S
C1443 C1441 1.321 . S
C1443 C1442 1.390 . S
C1443 H1445 0.930 . S
H1444 C1442 0.931 . S
H1445 C1443 0.930 . S
H1446 C1469 0.931 . S
H1447 C1435 0.929 . S
H1448 C1470 0.930 . S
H1449 C1441 0.931 . S
H1450 C1431 0.930 . S
H1451 C1460 0.929 . S
H1452 C1436 0.931 . S
H1453 C1437 0.930 . S
H1454 C1492 0.930 . S
H1455 C1433 0.929 . S
H1456 C1461 0.931 . S
H1457 C1462 0.930 . S
N1458 Gd1438 2.622 1_565 S
N1458 C1459 1.369 . S
N1458 C1460 1.338 . S
C1459 N1458 1.369 . S
C1459 C1463 1.415 . S
C1459 C1466 1.422 . S
C1460 H1451 0.929 . S
C1460 N1458 1.338 . S
C1460 C1462 1.378 . S
C1461 H1456 0.931 . S
C1461 C1462 1.348 . S
C1461 C1463 1.413 . S
C1462 H1457 0.930 . S
C1462 C1460 1.378 . S
C1462 C1461 1.348 . S
C1463 C1459 1.415 . S
C1463 C1461 1.413 . S
C1463 C1493 1.437 . S
H1464 C1493 0.929 . S
N1465 Gd1438 2.570 . S
N1465 C1466 1.359 1_545 S
N1465 C1469 1.343 . S
C1466 C1459 1.422 . S
C1466 N1465 1.359 1_565 S
C1466 C1468 1.421 . S
C1467 C1468 1.422 . S
C1467 C1470 1.321 1_565 S
C1467 H1494 0.931 . S
C1468 C1466 1.421 . S
C1468 C1467 1.422 . S
C1468 C1492 1.417 . S
C1469 H1446 0.931 . S
C1469 N1465 1.343 . S
C1469 C1470 1.390 . S
C1470 H1448 0.930 . S
C1470 C1467 1.321 1_545 S
C1470 C1469 1.390 . S
O1471 Gd1439 2.386 . S
O1471 C1483 1.265 . S
O1472 Gd1438 2.353 . S
O1472 C1483 1.242 . S
O1473 Gd1438 2.468 . S
O1473 C1491 1.263 . S
O1474 Gd1438 2.427 . S
O1474 C1491 1.252 . S
O1475 Gd1439 2.307 . S
O1475 C1484 1.261 1_545 S
O1476 Gd1438 2.388 1_565 S
O1476 C1484 1.252 . S
O1477 Gd1438 2.386 1_565 S
O1477 C1495 1.265 . S
O1478 Gd1439 2.353 . S
O1478 C1495 1.242 1_545 S
O1479 Gd1439 2.468 . S
O1479 C1503 1.263 . S
O1480 Gd1439 2.427 . S
O1480 C1503 1.252 . S
O1481 Gd1438 2.307 . S
O1481 C1496 1.261 . S
O1482 Gd1439 2.388 . S
O1482 C1496 1.252 . S
C1483 O1471 1.265 . S
C1483 O1472 1.242 . S
C1484 O1475 1.261 1_565 S
C1484 O1476 1.252 . S
C1485 C1488 1.394 . S
C1485 C1490 1.370 . S
C1485 C1491 1.500 . S
C1486 C1489 1.383 . S
C1486 C1490 1.395 . S
C1487 C1488 1.396 . S
C1487 C1489 1.365 . S
C1487 H1504 0.929 . S
C1488 C1485 1.394 . S
C1488 C1487 1.396 . S
C1488 H1505 0.930 . S
C1489 C1486 1.383 . S
C1489 C1487 1.365 . S
C1489 H1506 0.931 . S
C1490 C1485 1.370 . S
C1490 C1486 1.395 . S
C1490 H1507 0.930 . S
C1491 Gd1438 2.805 . S
C1491 O1473 1.263 . S
C1491 O1474 1.252 . S
C1491 C1485 1.500 . S
C1492 H1454 0.930 . S
C1492 C1468 1.417 . S
C1492 C1493 1.329 . S
C1493 C1463 1.437 . S
C1493 H1464 0.929 . S
C1493 C1492 1.329 . S
H1494 C1467 0.931 . S
C1495 O1477 1.265 . S
C1495 O1478 1.242 1_565 S
C1496 O1481 1.261 . S
C1496 O1482 1.252 . S
C1497 C1500 1.394 . S
C1497 C1502 1.370 1_545 S
C1497 C1503 1.500 . S
C1498 C1501 1.383 . S
C1498 C1502 1.395 . S
C1499 C1500 1.396 . S
C1499 C1501 1.365 1_545 S
C1499 H1508 0.929 . S
C1500 C1497 1.394 . S
C1500 C1499 1.396 . S
C1500 H1509 0.930 . S
C1501 C1498 1.383 . S
C1501 C1499 1.365 1_565 S
C1501 H1510 0.931 . S
C1502 C1497 1.370 1_565 S
C1502 C1498 1.395 . S
C1502 H1511 0.930 . S
C1503 Gd1439 2.805 . S
C1503 O1479 1.263 . S
C1503 O1480 1.252 . S
C1503 C1497 1.500 . S
H1504 C1487 0.929 . S
H1505 C1488 0.930 . S
H1506 C1489 0.931 . S
H1507 C1490 0.930 . S
H1508 C1499 0.929 . S
H1509 C1500 0.930 . S
H1510 C1501 0.931 . S
H1511 C1502 0.930 . S
C1512 C1514 1.422 . S
C1512 C1516 1.415 . S
C1512 N1518 1.369 . S
C1513 C1514 1.421 . S
C1513 C1515 1.417 . S
C1513 C1525 1.422 . S
C1514 C1512 1.422 . S
C1514 C1513 1.421 . S
C1514 N1524 1.359 1_565 S
C1515 C1513 1.417 . S
C1515 C1517 1.329 . S
C1515 H1534 0.930 . S
C1516 C1512 1.415 . S
C1516 C1517 1.437 . S
C1516 C1520 1.413 . S
C1517 C1515 1.329 . S
C1517 C1516 1.437 . S
C1517 H1539 0.929 . S
N1518 C1512 1.369 . S
N1518 C1519 1.338 . S
N1518 Gd1523 2.622 1_565 S
C1519 N1518 1.338 . S
C1519 C1521 1.378 . S
C1519 H1531 0.929 . S
C1520 C1516 1.413 . S
C1520 C1521 1.348 . S
C1520 H1536 0.931 . S
C1521 C1519 1.378 . S
C1521 C1520 1.348 . S
C1521 H1537 0.930 . S
Gd1522 N1542 2.622 . S
Gd1522 N1549 2.570 . S
Gd1522 O1556 2.353 . S
Gd1522 O1557 2.468 . S
Gd1522 O1558 2.427 . S
Gd1522 O1560 2.388 . S
Gd1522 O1561 2.386 . S
Gd1522 O1565 2.307 . S
Gd1522 C1575 2.805 . S
Gd1523 N1518 2.622 1_545 S
Gd1523 N1524 2.570 . S
Gd1523 O1555 2.386 1_545 S
Gd1523 O1559 2.307 . S
Gd1523 O1562 2.353 . S
Gd1523 O1563 2.468 . S
Gd1523 O1564 2.427 . S
Gd1523 O1566 2.388 1_545 S
Gd1523 C1587 2.805 . S
N1524 C1514 1.359 1_545 S
N1524 Gd1523 2.570 . S
N1524 C1526 1.343 . S
C1525 C1513 1.422 . S
C1525 C1527 1.321 1_565 S
C1525 H1533 0.931 . S
C1526 N1524 1.343 . S
C1526 C1527 1.390 . S
C1526 H1528 0.931 . S
C1527 C1525 1.321 1_545 S
C1527 C1526 1.390 . S
C1527 H1529 0.930 . S
H1528 C1526 0.931 . S
H1529 C1527 0.930 . S
H1530 C1553 0.931 . S
H1531 C1519 0.929 . S
H1532 C1554 0.930 . S
H1533 C1525 0.931 . S
H1534 C1515 0.930 . S
H1535 C1544 0.929 . S
H1536 C1520 0.931 . S
H1537 C1521 0.930 . S
H1538 C1576 0.930 . S
H1539 C1517 0.929 . S
H1540 C1545 0.931 . S
H1541 C1546 0.930 . S
N1542 Gd1522 2.622 . S
N1542 C1543 1.369 . S
N1542 C1544 1.338 . S
C1543 N1542 1.369 . S
C1543 C1547 1.415 . S
C1543 C1550 1.422 . S
C1544 H1535 0.929 . S
C1544 N1542 1.338 . S
C1544 C1546 1.378 . S
C1545 H1540 0.931 . S
C1545 C1546 1.348 . S
C1545 C1547 1.413 . S
C1546 H1541 0.930 . S
C1546 C1544 1.378 . S
C1546 C1545 1.348 . S
C1547 C1543 1.415 . S
C1547 C1545 1.413 . S
C1547 C1577 1.437 . S
H1548 C1577 0.929 . S
N1549 Gd1522 2.570 . S
N1549 C1550 1.359 . S
N1549 C1553 1.343 . S
C1550 C1543 1.422 . S
C1550 N1549 1.359 . S
C1550 C1552 1.421 . S
C1551 C1552 1.422 . S
C1551 C1554 1.321 . S
C1551 H1578 0.931 . S
C1552 C1550 1.421 . S
C1552 C1551 1.422 . S
C1552 C1576 1.417 . S
C1553 H1530 0.931 . S
C1553 N1549 1.343 . S
C1553 C1554 1.390 . S
C1554 H1532 0.930 . S
C1554 C1551 1.321 . S
C1554 C1553 1.390 . S
O1555 Gd1523 2.386 1_565 S
O1555 C1567 1.265 . S
O1556 Gd1522 2.353 . S
O1556 C1567 1.242 1_545 S
O1557 Gd1522 2.468 . S
O1557 C1575 1.263 . S
O1558 Gd1522 2.427 . S
O1558 C1575 1.252 . S
O1559 Gd1523 2.307 . S
O1559 C1568 1.261 . S
O1560 Gd1522 2.388 . S
O1560 C1568 1.252 . S
O1561 Gd1522 2.386 . S
O1561 C1579 1.265 . S
O1562 Gd1523 2.353 . S
O1562 C1579 1.242 . S
O1563 Gd1523 2.468 . S
O1563 C1587 1.263 . S
O1564 Gd1523 2.427 . S
O1564 C1587 1.252 . S
O1565 Gd1522 2.307 . S
O1565 C1580 1.261 1_545 S
O1566 Gd1523 2.388 1_565 S
O1566 C1580 1.252 . S
C1567 O1555 1.265 . S
C1567 O1556 1.242 1_565 S
C1568 O1559 1.261 . S
C1568 O1560 1.252 . S
C1569 C1572 1.394 . S
C1569 C1574 1.370 1_545 S
C1569 C1575 1.500 . S
C1570 C1573 1.390 . S
C1570 C1574 1.395 . S
C1571 C1572 1.396 . S
C1571 C1573 1.358 1_545 S
C1571 H1588 0.929 . S
C1572 C1569 1.394 . S
C1572 C1571 1.396 . S
C1572 H1589 0.930 . S
C1573 C1570 1.390 . S
C1573 C1571 1.358 1_565 S
C1573 H1590 0.932 . S
C1574 C1569 1.370 1_565 S
C1574 C1570 1.395 . S
C1574 H1591 0.930 . S
C1575 Gd1522 2.805 . S
C1575 O1557 1.263 . S
C1575 O1558 1.252 . S
C1575 C1569 1.500 . S
C1576 H1538 0.930 . S
C1576 C1552 1.417 . S
C1576 C1577 1.329 . S
C1577 C1547 1.437 . S
C1577 H1548 0.929 . S
C1577 C1576 1.329 . S
H1578 C1551 0.931 . S
C1579 O1561 1.265 . S
C1579 O1562 1.242 . S
C1580 O1565 1.261 1_565 S
C1580 O1566 1.252 . S
C1581 C1584 1.394 . S
C1581 C1586 1.370 . S
C1581 C1587 1.500 . S
C1582 C1585 1.383 . S
C1582 C1586 1.395 . S
C1583 C1584 1.396 . S
C1583 C1585 1.365 . S
C1583 H1592 0.929 . S
C1584 C1581 1.394 . S
C1584 C1583 1.396 . S
C1584 H1593 0.930 . S
C1585 C1582 1.383 . S
C1585 C1583 1.365 . S
C1585 H1594 0.931 . S
C1586 C1581 1.370 . S
C1586 C1582 1.395 . S
C1586 H1595 0.930 . S
C1587 Gd1523 2.805 . S
C1587 O1563 1.263 . S
C1587 O1564 1.252 . S
C1587 C1581 1.500 . S
H1588 C1571 0.929 . S
H1589 C1572 0.930 . S
H1590 C1573 0.932 . S
H1591 C1574 0.930 . S
H1592 C1583 0.929 . S
H1593 C1584 0.930 . S
H1594 C1585 0.931 . S
H1595 C1586 0.930 . S
C1596 C1598 1.422 . S
C1596 C1600 1.415 . S
C1596 N1602 1.369 . S
C1597 C1598 1.421 . S
C1597 C1599 1.417 . S
C1597 C1609 1.422 . S
C1598 C1596 1.422 . S
C1598 C1597 1.421 . S
C1598 N1608 1.359 1_455 S
C1599 C1597 1.417 . S
C1599 C1601 1.329 . S
C1599 H1618 0.930 . S
C1600 C1596 1.415 . S
C1600 C1601 1.437 . S
C1600 C1604 1.413 . S
C1601 C1599 1.329 . S
C1601 C1600 1.437 . S
C1601 H1623 0.929 . S
N1602 C1596 1.369 . S
N1602 C1603 1.338 . S
N1602 Gd1607 2.622 1_455 S
C1603 N1602 1.338 . S
C1603 C1605 1.378 . S
C1603 H1615 0.929 . S
C1604 C1600 1.413 . S
C1604 C1605 1.348 . S
C1604 H1620 0.931 . S
C1605 C1603 1.378 . S
C1605 C1604 1.348 . S
C1605 H1621 0.930 . S
Gd1606 N1626 2.622 . S
Gd1606 N1633 2.570 . S
Gd1606 O1640 2.353 . S
Gd1606 O1641 2.468 . S
Gd1606 O1642 2.427 . S
Gd1606 O1644 2.388 . S
Gd1606 O1645 2.386 . S
Gd1606 O1649 2.307 . S
Gd1606 C1659 2.805 . S
Gd1607 N1602 2.622 1_655 S
Gd1607 N1608 2.570 . S
Gd1607 O1639 2.386 1_655 S
Gd1607 O1643 2.307 . S
Gd1607 O1646 2.353 . S
Gd1607 O1647 2.468 . S
Gd1607 O1648 2.427 . S
Gd1607 O1650 2.388 1_655 S
Gd1607 C1671 2.805 . S
N1608 C1598 1.359 1_655 S
N1608 Gd1607 2.570 . S
N1608 C1610 1.343 . S
C1609 C1597 1.422 . S
C1609 C1611 1.321 1_455 S
C1609 H1617 0.931 . S
C1610 N1608 1.343 . S
C1610 C1611 1.390 . S
C1610 H1612 0.931 . S
C1611 C1609 1.321 1_655 S
C1611 C1610 1.390 . S
C1611 H1613 0.930 . S
H1612 C1610 0.931 . S
H1613 C1611 0.930 . S
H1614 C1637 0.931 . S
H1615 C1603 0.929 . S
H1616 C1638 0.930 . S
H1617 C1609 0.931 . S
H1618 C1599 0.930 . S
H1619 C1628 0.929 . S
H1620 C1604 0.931 . S
H1621 C1605 0.930 . S
H1622 C1660 0.930 . S
H1623 C1601 0.929 . S
H1624 C1629 0.931 . S
H1625 C1630 0.930 . S
N1626 Gd1606 2.622 . S
N1626 C1627 1.369 . S
N1626 C1628 1.338 . S
C1627 N1626 1.369 . S
C1627 C1631 1.415 . S
C1627 C1634 1.422 . S
C1628 H1619 0.929 . S
C1628 N1626 1.338 . S
C1628 C1630 1.378 . S
C1629 H1624 0.931 . S
C1629 C1630 1.348 . S
C1629 C1631 1.413 . S
C1630 H1625 0.930 . S
C1630 C1628 1.378 . S
C1630 C1629 1.348 . S
C1631 C1627 1.415 . S
C1631 C1629 1.413 . S
C1631 C1661 1.437 . S
H1632 C1661 0.929 . S
N1633 Gd1606 2.570 . S
N1633 C1634 1.359 . S
N1633 C1637 1.343 . S
C1634 C1627 1.422 . S
C1634 N1633 1.359 . S
C1634 C1636 1.421 . S
C1635 C1636 1.422 . S
C1635 C1638 1.321 . S
C1635 H1662 0.931 . S
C1636 C1634 1.421 . S
C1636 C1635 1.422 . S
C1636 C1660 1.417 . S
C1637 H1614 0.931 . S
C1637 N1633 1.343 . S
C1637 C1638 1.390 . S
C1638 H1616 0.930 . S
C1638 C1635 1.321 . S
C1638 C1637 1.390 . S
O1639 Gd1607 2.386 1_455 S
O1639 C1651 1.265 . S
O1640 Gd1606 2.353 . S
O1640 C1651 1.242 1_655 S
O1641 Gd1606 2.468 . S
O1641 C1659 1.263 . S
O1642 Gd1606 2.427 . S
O1642 C1659 1.252 . S
O1643 Gd1607 2.307 . S
O1643 C1652 1.261 . S
O1644 Gd1606 2.388 . S
O1644 C1652 1.252 . S
O1645 Gd1606 2.386 . S
O1645 C1663 1.265 . S
O1646 Gd1607 2.353 . S
O1646 C1663 1.242 . S
O1647 Gd1607 2.468 . S
O1647 C1671 1.263 . S
O1648 Gd1607 2.427 . S
O1648 C1671 1.252 . S
O1649 Gd1606 2.307 . S
O1649 C1664 1.261 1_655 S
O1650 Gd1607 2.388 1_455 S
O1650 C1664 1.252 . S
C1651 O1639 1.265 . S
C1651 O1640 1.242 1_455 S
C1652 O1643 1.261 . S
C1652 O1644 1.252 . S
C1653 C1656 1.394 . S
C1653 C1658 1.370 1_655 S
C1653 C1659 1.500 . S
C1654 C1657 1.384 . S
C1654 C1658 1.395 . S
C1655 C1656 1.396 . S
C1655 C1657 1.363 1_655 S
C1655 H1672 0.929 . S
C1656 C1653 1.394 . S
C1656 C1655 1.396 . S
C1656 H1673 0.930 . S
C1657 C1654 1.384 . S
C1657 C1655 1.363 1_455 S
C1657 H1674 0.933 . S
C1658 C1653 1.370 1_455 S
C1658 C1654 1.395 . S
C1658 H1675 0.930 . S
C1659 Gd1606 2.805 . S
C1659 O1641 1.263 . S
C1659 O1642 1.252 . S
C1659 C1653 1.500 . S
C1660 H1622 0.930 . S
C1660 C1636 1.417 . S
C1660 C1661 1.329 . S
C1661 C1631 1.437 . S
C1661 H1632 0.929 . S
C1661 C1660 1.329 . S
H1662 C1635 0.931 . S
C1663 O1645 1.265 . S
C1663 O1646 1.242 . S
C1664 O1649 1.261 1_455 S
C1664 O1650 1.252 . S
C1665 C1668 1.394 . S
C1665 C1670 1.370 . S
C1665 C1671 1.500 . S
C1666 C1669 1.383 . S
C1666 C1670 1.395 . S
C1667 C1668 1.396 . S
C1667 C1669 1.365 . S
C1667 H1676 0.929 . S
C1668 C1665 1.394 . S
C1668 C1667 1.396 . S
C1668 H1677 0.930 . S
C1669 C1666 1.383 . S
C1669 C1667 1.365 . S
C1669 H1678 0.931 . S
C1670 C1665 1.370 . S
C1670 C1666 1.395 . S
C1670 H1679 0.930 . S
C1671 Gd1607 2.805 . S
C1671 O1647 1.263 . S
C1671 O1648 1.252 . S
C1671 C1665 1.500 . S
H1672 C1655 0.929 . S
H1673 C1656 0.930 . S
H1674 C1657 0.933 . S
H1675 C1658 0.930 . S
H1676 C1667 0.929 . S
H1677 C1668 0.930 . S
H1678 C1669 0.931 . S
H1679 C1670 0.930 . S
C1680 C1682 1.422 . S
C1680 C1684 1.415 . S
C1680 N1686 1.369 . S
C1681 C1682 1.421 . S
C1681 C1683 1.417 . S
C1681 C1693 1.422 . S
C1682 C1680 1.422 . S
C1682 C1681 1.421 . S
C1682 N1692 1.359 . S
C1683 C1681 1.417 . S
C1683 C1685 1.329 . S
C1683 H1702 0.930 . S
C1684 C1680 1.415 . S
C1684 C1685 1.437 . S
C1684 C1688 1.413 . S
C1685 C1683 1.329 . S
C1685 C1684 1.437 . S
C1685 H1707 0.929 . S
N1686 C1680 1.369 . S
N1686 C1687 1.338 . S
N1686 Gd1691 2.622 . S
C1687 N1686 1.338 . S
C1687 C1689 1.378 . S
C1687 H1699 0.929 . S
C1688 C1684 1.413 . S
C1688 C1689 1.348 . S
C1688 H1704 0.931 . S
C1689 C1687 1.378 . S
C1689 C1688 1.348 . S
C1689 H1705 0.930 . S
Gd1690 N1710 2.622 . S
Gd1690 N1717 2.570 . S
Gd1690 O1724 2.353 . S
Gd1690 O1725 2.468 . S
Gd1690 O1726 2.427 . S
Gd1690 O1728 2.388 . S
Gd1690 O1729 2.386 . S
Gd1690 O1733 2.307 . S
Gd1690 C1743 2.805 . S
Gd1691 N1686 2.622 . S
Gd1691 N1692 2.570 . S
Gd1691 O1723 2.386 . S
Gd1691 O1727 2.307 . S
Gd1691 O1730 2.353 . S
Gd1691 O1731 2.468 . S
Gd1691 O1732 2.427 . S
Gd1691 O1734 2.388 . S
Gd1691 C1755 2.805 . S
N1692 C1682 1.359 . S
N1692 Gd1691 2.570 . S
N1692 C1694 1.343 . S
C1693 C1681 1.422 . S
C1693 C1695 1.321 . S
C1693 H1701 0.931 . S
C1694 N1692 1.343 . S
C1694 C1695 1.390 . S
C1694 H1696 0.931 . S
C1695 C1693 1.321 . S
C1695 C1694 1.390 . S
C1695 H1697 0.930 . S
H1696 C1694 0.931 . S
H1697 C1695 0.930 . S
H1698 C1721 0.931 . S
H1699 C1687 0.929 . S
H1700 C1722 0.930 . S
H1701 C1693 0.931 . S
H1702 C1683 0.930 . S
H1703 C1712 0.929 . S
H1704 C1688 0.931 . S
H1705 C1689 0.930 . S
H1706 C1744 0.930 . S
H1707 C1685 0.929 . S
H1708 C1713 0.931 . S
H1709 C1714 0.930 . S
N1710 Gd1690 2.622 . S
N1710 C1711 1.369 . S
N1710 C1712 1.338 . S
C1711 N1710 1.369 . S
C1711 C1715 1.415 . S
C1711 C1718 1.422 . S
C1712 H1703 0.929 . S
C1712 N1710 1.338 . S
C1712 C1714 1.378 . S
C1713 H1708 0.931 . S
C1713 C1714 1.348 . S
C1713 C1715 1.413 . S
C1714 H1709 0.930 . S
C1714 C1712 1.378 . S
C1714 C1713 1.348 . S
C1715 C1711 1.415 . S
C1715 C1713 1.413 . S
C1715 C1745 1.437 . S
H1716 C1745 0.929 . S
N1717 Gd1690 2.570 . S
N1717 C1718 1.359 . S
N1717 C1721 1.343 . S
C1718 C1711 1.422 . S
C1718 N1717 1.359 . S
C1718 C1720 1.421 . S
C1719 C1720 1.422 . S
C1719 C1722 1.321 . S
C1719 H1746 0.931 . S
C1720 C1718 1.421 . S
C1720 C1719 1.422 . S
C1720 C1744 1.417 . S
C1721 H1698 0.931 . S
C1721 N1717 1.343 . S
C1721 C1722 1.390 . S
C1722 H1700 0.930 . S
C1722 C1719 1.321 . S
C1722 C1721 1.390 . S
O1723 Gd1691 2.386 . S
O1723 C1735 1.265 . S
O1724 Gd1690 2.353 . S
O1724 C1735 1.242 . S
O1725 Gd1690 2.468 . S
O1725 C1743 1.263 . S
O1726 Gd1690 2.427 . S
O1726 C1743 1.252 . S
O1727 Gd1691 2.307 . S
O1727 C1736 1.261 . S
O1728 Gd1690 2.388 . S
O1728 C1736 1.252 . S
O1729 Gd1690 2.386 . S
O1729 C1747 1.265 . S
O1730 Gd1691 2.353 . S
O1730 C1747 1.242 . S
O1731 Gd1691 2.468 . S
O1731 C1755 1.263 . S
O1732 Gd1691 2.427 . S
O1732 C1755 1.252 . S
O1733 Gd1690 2.307 . S
O1733 C1748 1.261 . S
O1734 Gd1691 2.388 . S
O1734 C1748 1.252 . S
C1735 O1723 1.265 . S
C1735 O1724 1.242 . S
C1736 O1727 1.261 . S
C1736 O1728 1.252 . S
C1737 C1740 1.394 . S
C1737 C1742 1.370 . S
C1737 C1743 1.500 . S
C1738 C1741 1.383 . S
C1738 C1742 1.395 . S
C1739 C1740 1.396 . S
C1739 C1741 1.365 . S
C1739 H1756 0.929 . S
C1740 C1737 1.394 . S
C1740 C1739 1.396 . S
C1740 H1757 0.930 . S
C1741 C1738 1.383 . S
C1741 C1739 1.365 . S
C1741 H1758 0.931 . S
C1742 C1737 1.370 . S
C1742 C1738 1.395 . S
C1742 H1759 0.930 . S
C1743 Gd1690 2.805 . S
C1743 O1725 1.263 . S
C1743 O1726 1.252 . S
C1743 C1737 1.500 . S
C1744 H1706 0.930 . S
C1744 C1720 1.417 . S
C1744 C1745 1.329 . S
C1745 C1715 1.437 . S
C1745 H1716 0.929 . S
C1745 C1744 1.329 . S
H1746 C1719 0.931 . S
C1747 O1729 1.265 . S
C1747 O1730 1.242 . S
C1748 O1733 1.261 . S
C1748 O1734 1.252 . S
C1749 C1752 1.394 . S
C1749 C1754 1.370 . S
C1749 C1755 1.500 . S
C1750 C1753 1.383 . S
C1750 C1754 1.395 . S
C1751 C1752 1.396 . S
C1751 C1753 1.365 . S
C1751 H1760 0.929 . S
C1752 C1749 1.394 . S
C1752 C1751 1.396 . S
C1752 H1761 0.930 . S
C1753 C1750 1.383 . S
C1753 C1751 1.365 . S
C1753 H1762 0.931 . S
C1754 C1749 1.370 . S
C1754 C1750 1.395 . S
C1754 H1763 0.930 . S
C1755 Gd1691 2.805 . S
C1755 O1731 1.263 . S
C1755 O1732 1.252 . S
C1755 C1749 1.500 . S
H1756 C1739 0.929 . S
H1757 C1740 0.930 . S
H1758 C1741 0.931 . S
H1759 C1742 0.930 . S
H1760 C1751 0.929 . S
H1761 C1752 0.930 . S
H1762 C1753 0.931 . S
H1763 C1754 0.930 . S
C1764 C1766 1.422 . S
C1764 C1768 1.415 . S
C1764 N1770 1.369 . S
C1765 C1766 1.421 1_565 S
C1765 C1767 1.417 . S
C1765 C1777 1.422 . S
C1766 C1764 1.422 . S
C1766 C1765 1.421 1_545 S
C1766 N1776 1.359 . S
C1767 C1765 1.417 . S
C1767 C1769 1.329 . S
C1767 H1786 0.930 . S
C1768 C1764 1.415 . S
C1768 C1769 1.437 1_545 S
C1768 C1772 1.413 . S
C1769 C1767 1.329 . S
C1769 C1768 1.437 1_565 S
C1769 H1791 0.929 . S
N1770 C1764 1.369 . S
N1770 C1771 1.338 . S
N1770 Gd1775 2.622 . S
C1771 N1770 1.338 . S
C1771 C1773 1.378 . S
C1771 H1783 0.929 . S
C1772 C1768 1.413 . S
C1772 C1773 1.348 . S
C1772 H1788 0.931 . S
C1773 C1771 1.378 . S
C1773 C1772 1.348 . S
C1773 H1789 0.930 . S
Gd1774 N1794 2.622 . S
Gd1774 N1801 2.570 . S
Gd1774 O1808 2.353 . S
Gd1774 O1809 2.468 . S
Gd1774 O1810 2.427 . S
Gd1774 O1812 2.388 . S
Gd1774 O1813 2.386 . S
Gd1774 O1817 2.307 . S
Gd1774 C1827 2.805 . S
Gd1775 N1770 2.622 . S
Gd1775 N1776 2.570 . S
Gd1775 O1807 2.386 . S
Gd1775 O1811 2.307 . S
Gd1775 O1814 2.353 . S
Gd1775 O1815 2.468 . S
Gd1775 O1816 2.427 . S
Gd1775 O1818 2.388 . S
Gd1775 C1839 2.805 . S
N1776 C1766 1.359 . S
N1776 Gd1775 2.570 . S
N1776 C1778 1.343 . S
C1777 C1765 1.422 . S
C1777 C1779 1.321 . S
C1777 H1785 0.931 . S
C1778 N1776 1.343 . S
C1778 C1779 1.390 1_545 S
C1778 H1780 0.931 . S
C1779 C1777 1.321 . S
C1779 C1778 1.390 1_565 S
C1779 H1781 0.930 . S
H1780 C1778 0.931 . S
H1781 C1779 0.930 . S
H1782 C1805 0.931 . S
H1783 C1771 0.929 . S
H1784 C1806 0.930 . S
H1785 C1777 0.931 . S
H1786 C1767 0.930 . S
H1787 C1796 0.929 . S
H1788 C1772 0.931 . S
H1789 C1773 0.930 . S
H1790 C1828 0.930 . S
H1791 C1769 0.929 . S
H1792 C1797 0.931 . S
H1793 C1798 0.930 . S
N1794 Gd1774 2.622 . S
N1794 C1795 1.369 . S
N1794 C1796 1.338 . S
C1795 N1794 1.369 . S
C1795 C1799 1.415 . S
C1795 C1802 1.422 . S
C1796 H1787 0.929 . S
C1796 N1794 1.338 . S
C1796 C1798 1.378 . S
C1797 H1792 0.931 . S
C1797 C1798 1.348 . S
C1797 C1799 1.413 . S
C1798 H1793 0.930 . S
C1798 C1796 1.378 . S
C1798 C1797 1.348 . S
C1799 C1795 1.415 . S
C1799 C1797 1.413 . S
C1799 C1829 1.437 . S
H1800 C1829 0.929 . S
N1801 Gd1774 2.570 . S
N1801 C1802 1.359 . S
N1801 C1805 1.343 . S
C1802 C1795 1.422 . S
C1802 N1801 1.359 . S
C1802 C1804 1.421 . S
C1803 C1804 1.422 . S
C1803 C1806 1.321 . S
C1803 H1830 0.931 . S
C1804 C1802 1.421 . S
C1804 C1803 1.422 . S
C1804 C1828 1.417 . S
C1805 H1782 0.931 . S
C1805 N1801 1.343 . S
C1805 C1806 1.390 . S
C1806 H1784 0.930 . S
C1806 C1803 1.321 . S
C1806 C1805 1.390 . S
O1807 Gd1775 2.386 . S
O1807 C1819 1.265 1_554 S
O1808 Gd1774 2.353 . S
O1808 C1819 1.242 . S
O1809 Gd1774 2.468 . S
O1809 C1827 1.263 . S
O1810 Gd1774 2.427 . S
O1810 C1827 1.252 . S
O1811 Gd1775 2.307 . S
O1811 C1820 1.261 . S
O1812 Gd1774 2.388 . S
O1812 C1820 1.252 1_556 S
O1813 Gd1774 2.386 . S
O1813 C1831 1.265 1_556 S
O1814 Gd1775 2.353 . S
O1814 C1831 1.242 . S
O1815 Gd1775 2.468 . S
O1815 C1839 1.263 . S
O1816 Gd1775 2.427 . S
O1816 C1839 1.252 . S
O1817 Gd1774 2.307 . S
O1817 C1832 1.261 . S
O1818 Gd1775 2.388 . S
O1818 C1832 1.252 1_554 S
C1819 O1807 1.265 1_556 S
C1819 O1808 1.242 . S
C1820 O1811 1.261 . S
C1820 O1812 1.252 1_554 S
C1821 C1824 1.394 . S
C1821 C1826 1.370 . S
C1821 C1827 1.500 . S
C1822 C1825 1.383 . S
C1822 C1826 1.395 . S
C1823 C1824 1.396 . S
C1823 C1825 1.365 . S
C1823 H1840 0.929 . S
C1824 C1821 1.394 . S
C1824 C1823 1.396 . S
C1824 H1841 0.930 . S
C1825 C1822 1.383 . S
C1825 C1823 1.365 . S
C1825 H1842 0.931 . S
C1826 C1821 1.370 . S
C1826 C1822 1.395 . S
C1826 H1843 0.930 . S
C1827 Gd1774 2.805 . S
C1827 O1809 1.263 . S
C1827 O1810 1.252 . S
C1827 C1821 1.500 . S
C1828 H1790 0.930 . S
C1828 C1804 1.417 . S
C1828 C1829 1.329 . S
C1829 C1799 1.437 . S
C1829 H1800 0.929 . S
C1829 C1828 1.329 . S
H1830 C1803 0.931 . S
C1831 O1813 1.265 1_554 S
C1831 O1814 1.242 . S
C1832 O1817 1.261 . S
C1832 O1818 1.252 1_556 S
C1833 C1836 1.394 . S
C1833 C1838 1.370 . S
C1833 C1839 1.500 . S
C1834 C1837 1.383 . S
C1834 C1838 1.395 . S
C1835 C1836 1.396 . S
C1835 C1837 1.365 . S
C1835 H1844 0.929 . S
C1836 C1833 1.394 . S
C1836 C1835 1.396 . S
C1836 H1845 0.930 . S
C1837 C1834 1.383 . S
C1837 C1835 1.365 . S
C1837 H1846 0.931 . S
C1838 C1833 1.370 . S
C1838 C1834 1.395 . S
C1838 H1847 0.930 . S
C1839 Gd1775 2.805 . S
C1839 O1815 1.263 . S
C1839 O1816 1.252 . S
C1839 C1833 1.500 . S
H1840 C1823 0.929 . S
H1841 C1824 0.930 . S
H1842 C1825 0.931 . S
H1843 C1826 0.930 . S
H1844 C1835 0.929 . S
H1845 C1836 0.930 . S
H1846 C1837 0.931 . S
H1847 C1838 0.930 . S
C1848 C1850 1.422 . S
C1848 C1852 1.415 . S
C1848 N1854 1.369 . S
C1849 C1850 1.421 1_455 S
C1849 C1851 1.417 . S
C1849 C1861 1.422 . S
C1850 C1848 1.422 . S
C1850 C1849 1.421 1_655 S
C1850 N1860 1.359 . S
C1851 C1849 1.417 . S
C1851 C1853 1.329 . S
C1851 H1870 0.930 . S
C1852 C1848 1.415 . S
C1852 C1853 1.437 1_655 S
C1852 C1856 1.413 . S
C1853 C1851 1.329 . S
C1853 C1852 1.437 1_455 S
C1853 H1875 0.929 . S
N1854 C1848 1.369 . S
N1854 C1855 1.338 . S
N1854 Gd1859 2.622 . S
C1855 N1854 1.338 . S
C1855 C1857 1.378 . S
C1855 H1867 0.929 . S
C1856 C1852 1.413 . S
C1856 C1857 1.348 . S
C1856 H1872 0.931 . S
C1857 C1855 1.378 . S
C1857 C1856 1.348 . S
C1857 H1873 0.930 1_545 S
Gd1858 N1878 2.622 . S
Gd1858 N1885 2.570 . S
Gd1858 O1892 2.353 . S
Gd1858 O1893 2.468 . S
Gd1858 O1894 2.427 . S
Gd1858 O1896 2.388 . S
Gd1858 O1897 2.386 . S
Gd1858 O1901 2.307 . S
Gd1858 C1911 2.805 . S
Gd1859 N1854 2.622 . S
Gd1859 N1860 2.570 . S
Gd1859 O1891 2.386 . S
Gd1859 O1895 2.307 . S
Gd1859 O1898 2.353 . S
Gd1859 O1899 2.468 . S
Gd1859 O1900 2.427 . S
Gd1859 O1902 2.388 . S
Gd1859 C1923 2.805 . S
N1860 C1850 1.359 . S
N1860 Gd1859 2.570 . S
N1860 C1862 1.343 . S
C1861 C1849 1.422 . S
C1861 C1863 1.321 . S
C1861 H1869 0.931 . S
C1862 N1860 1.343 . S
C1862 C1863 1.390 1_655 S
C1862 H1864 0.931 . S
C1863 C1861 1.321 . S
C1863 C1862 1.390 1_455 S
C1863 H1865 0.930 . S
H1864 C1862 0.931 . S
H1865 C1863 0.930 . S
H1866 C1889 0.931 . S
H1867 C1855 0.929 . S
H1868 C1890 0.930 1_565 S
H1869 C1861 0.931 . S
H1870 C1851 0.930 . S
H1871 C1880 0.929 . S
H1872 C1856 0.931 . S
H1873 C1857 0.930 1_565 S
H1874 C1912 0.930 . S
H1875 C1853 0.929 . S
H1876 C1881 0.931 . S
H1877 C1882 0.930 . S
N1878 Gd1858 2.622 . S
N1878 C1879 1.369 . S
N1878 C1880 1.338 . S
C1879 N1878 1.369 . S
C1879 C1883 1.415 . S
C1879 C1886 1.422 . S
C1880 H1871 0.929 . S
C1880 N1878 1.338 . S
C1880 C1882 1.378 . S
C1881 H1876 0.931 . S
C1881 C1882 1.348 . S
C1881 C1883 1.413 . S
C1882 H1877 0.930 . S
C1882 C1880 1.378 . S
C1882 C1881 1.348 . S
C1883 C1879 1.415 . S
C1883 C1881 1.413 . S
C1883 C1913 1.437 . S
H1884 C1913 0.929 . S
N1885 Gd1858 2.570 . S
N1885 C1886 1.359 . S
N1885 C1889 1.343 . S
C1886 C1879 1.422 . S
C1886 N1885 1.359 . S
C1886 C1888 1.421 . S
C1887 C1888 1.422 . S
C1887 C1890 1.321 . S
C1887 H1914 0.931 . S
C1888 C1886 1.421 . S
C1888 C1887 1.422 . S
C1888 C1912 1.417 . S
C1889 H1866 0.931 . S
C1889 N1885 1.343 . S
C1889 C1890 1.390 . S
C1890 H1868 0.930 1_545 S
C1890 C1887 1.321 . S
C1890 C1889 1.390 . S
O1891 Gd1859 2.386 . S
O1891 C1903 1.265 1_554 S
O1892 Gd1858 2.353 . S
O1892 C1903 1.242 . S
O1893 Gd1858 2.468 . S
O1893 C1911 1.263 . S
O1894 Gd1858 2.427 . S
O1894 C1911 1.252 . S
O1895 Gd1859 2.307 . S
O1895 C1904 1.261 . S
O1896 Gd1858 2.388 . S
O1896 C1904 1.252 1_556 S
O1897 Gd1858 2.386 . S
O1897 C1915 1.265 1_556 S
O1898 Gd1859 2.353 . S
O1898 C1915 1.242 . S
O1899 Gd1859 2.468 . S
O1899 C1923 1.263 . S
O1900 Gd1859 2.427 . S
O1900 C1923 1.252 . S
O1901 Gd1858 2.307 . S
O1901 C1916 1.261 . S
O1902 Gd1859 2.388 . S
O1902 C1916 1.252 1_554 S
C1903 O1891 1.265 1_556 S
C1903 O1892 1.242 . S
C1904 O1895 1.261 . S
C1904 O1896 1.252 1_554 S
C1905 C1908 1.394 . S
C1905 C1910 1.370 . S
C1905 C1911 1.500 . S
C1906 C1909 1.383 . S
C1906 C1910 1.395 . S
C1907 C1908 1.396 . S
C1907 C1909 1.365 . S
C1907 H1924 0.929 . S
C1908 C1905 1.394 . S
C1908 C1907 1.396 . S
C1908 H1925 0.930 . S
C1909 C1906 1.383 . S
C1909 C1907 1.365 . S
C1909 H1926 0.931 . S
C1910 C1905 1.370 . S
C1910 C1906 1.395 . S
C1910 H1927 0.930 . S
C1911 Gd1858 2.805 . S
C1911 O1893 1.263 . S
C1911 O1894 1.252 . S
C1911 C1905 1.500 . S
C1912 H1874 0.930 . S
C1912 C1888 1.417 . S
C1912 C1913 1.329 . S
C1913 C1883 1.437 . S
C1913 H1884 0.929 . S
C1913 C1912 1.329 . S
H1914 C1887 0.931 . S
C1915 O1897 1.265 1_554 S
C1915 O1898 1.242 . S
C1916 O1901 1.261 . S
C1916 O1902 1.252 1_556 S
C1917 C1920 1.394 . S
C1917 C1922 1.370 . S
C1917 C1923 1.500 . S
C1918 C1921 1.383 . S
C1918 C1922 1.395 . S
C1919 C1920 1.396 . S
C1919 C1921 1.365 . S
C1919 H1928 0.929 . S
C1920 C1917 1.394 . S
C1920 C1919 1.396 . S
C1920 H1929 0.930 . S
C1921 C1918 1.383 . S
C1921 C1919 1.365 . S
C1921 H1930 0.931 . S
C1922 C1917 1.370 . S
C1922 C1918 1.395 . S
C1922 H1931 0.930 . S
C1923 Gd1859 2.805 . S
C1923 O1899 1.263 . S
C1923 O1900 1.252 . S
C1923 C1917 1.500 . S
H1924 C1907 0.929 . S
H1925 C1908 0.930 . S
H1926 C1909 0.931 . S
H1927 C1910 0.930 . S
H1928 C1919 0.929 . S
H1929 C1920 0.930 . S
H1930 C1921 0.931 . S
H1931 C1922 0.930 . S
C1932 C1934 1.422 . S
C1932 C1936 1.415 . S
C1932 N1938 1.369 . S
C1933 C1934 1.421 . S
C1933 C1935 1.417 . S
C1933 C1945 1.422 . S
C1934 C1932 1.422 . S
C1934 C1933 1.421 . S
C1934 N1944 1.359 . S
C1935 C1933 1.417 . S
C1935 C1937 1.329 . S
C1935 H1954 0.930 . S
C1936 C1932 1.415 . S
C1936 C1937 1.437 . S
C1936 C1940 1.413 . S
C1937 C1935 1.329 . S
C1937 C1936 1.437 . S
C1937 H1959 0.929 . S
N1938 C1932 1.369 . S
N1938 C1939 1.338 . S
N1938 Gd1943 2.622 . S
C1939 N1938 1.338 . S
C1939 C1941 1.378 . S
C1939 H1951 0.929 . S
C1940 C1936 1.413 . S
C1940 C1941 1.348 . S
C1940 H1956 0.931 . S
C1941 C1939 1.378 . S
C1941 C1940 1.348 . S
C1941 H1957 0.930 1_655 S
Gd1942 N1962 2.622 . S
Gd1942 N1969 2.570 . S
Gd1942 O1976 2.353 . S
Gd1942 O1977 2.468 . S
Gd1942 O1978 2.427 . S
Gd1942 O1980 2.388 . S
Gd1942 O1981 2.386 . S
Gd1942 O1985 2.307 . S
Gd1942 C1995 2.805 . S
Gd1943 N1938 2.622 . S
Gd1943 N1944 2.570 . S
Gd1943 O1975 2.386 . S
Gd1943 O1979 2.307 . S
Gd1943 O1982 2.353 . S
Gd1943 O1983 2.468 . S
Gd1943 O1984 2.427 . S
Gd1943 O1986 2.388 . S
Gd1943 C2007 2.805 . S
N1944 C1934 1.359 . S
N1944 Gd1943 2.570 . S
N1944 C1946 1.343 . S
C1945 C1933 1.422 . S
C1945 C1947 1.321 . S
C1945 H1953 0.931 . S
C1946 N1944 1.343 . S
C1946 C1947 1.390 . S
C1946 H1948 0.931 . S
C1947 C1945 1.321 . S
C1947 C1946 1.390 . S
C1947 H1949 0.930 . S
H1948 C1946 0.931 . S
H1949 C1947 0.930 . S
H1950 C1973 0.931 . S
H1951 C1939 0.929 . S
H1952 C1974 0.930 1_455 S
H1953 C1945 0.931 . S
H1954 C1935 0.930 . S
H1955 C1964 0.929 . S
H1956 C1940 0.931 . S
H1957 C1941 0.930 1_455 S
H1958 C1996 0.930 . S
H1959 C1937 0.929 . S
H1960 C1965 0.931 . S
H1961 C1966 0.930 . S
N1962 Gd1942 2.622 . S
N1962 C1963 1.369 . S
N1962 C1964 1.338 . S
C1963 N1962 1.369 . S
C1963 C1967 1.415 . S
C1963 C1970 1.422 . S
C1964 H1955 0.929 . S
C1964 N1962 1.338 . S
C1964 C1966 1.378 . S
C1965 H1960 0.931 . S
C1965 C1966 1.348 . S
C1965 C1967 1.413 . S
C1966 H1961 0.930 . S
C1966 C1964 1.378 . S
C1966 C1965 1.348 . S
C1967 C1963 1.415 . S
C1967 C1965 1.413 . S
C1967 C1997 1.437 . S
H1968 C1997 0.929 . S
N1969 Gd1942 2.570 . S
N1969 C1970 1.359 . S
N1969 C1973 1.343 . S
C1970 C1963 1.422 . S
C1970 N1969 1.359 . S
C1970 C1972 1.421 . S
C1971 C1972 1.422 . S
C1971 C1974 1.321 . S
C1971 H1998 0.931 . S
C1972 C1970 1.421 . S
C1972 C1971 1.422 . S
C1972 C1996 1.417 . S
C1973 H1950 0.931 . S
C1973 N1969 1.343 . S
C1973 C1974 1.390 . S
C1974 H1952 0.930 1_655 S
C1974 C1971 1.321 . S
C1974 C1973 1.390 . S
O1975 Gd1943 2.386 . S
O1975 C1987 1.265 1_554 S
O1976 Gd1942 2.353 . S
O1976 C1987 1.242 . S
O1977 Gd1942 2.468 . S
O1977 C1995 1.263 . S
O1978 Gd1942 2.427 . S
O1978 C1995 1.252 . S
O1979 Gd1943 2.307 . S
O1979 C1988 1.261 . S
O1980 Gd1942 2.388 . S
O1980 C1988 1.252 1_556 S
O1981 Gd1942 2.386 . S
O1981 C1999 1.265 1_556 S
O1982 Gd1943 2.353 . S
O1982 C1999 1.242 . S
O1983 Gd1943 2.468 . S
O1983 C2007 1.263 . S
O1984 Gd1943 2.427 . S
O1984 C2007 1.252 . S
O1985 Gd1942 2.307 . S
O1985 C2000 1.261 . S
O1986 Gd1943 2.388 . S
O1986 C2000 1.252 1_554 S
C1987 O1975 1.265 1_556 S
C1987 O1976 1.242 . S
C1988 O1979 1.261 . S
C1988 O1980 1.252 1_554 S
C1989 C1992 1.394 . S
C1989 C1994 1.370 . S
C1989 C1995 1.500 . S
C1990 C1993 1.383 . S
C1990 C1994 1.395 . S
C1991 C1992 1.396 . S
C1991 C1993 1.365 . S
C1991 H2008 0.929 . S
C1992 C1989 1.394 . S
C1992 C1991 1.396 . S
C1992 H2009 0.930 . S
C1993 C1990 1.383 . S
C1993 C1991 1.365 . S
C1993 H2010 0.931 . S
C1994 C1989 1.370 . S
C1994 C1990 1.395 . S
C1994 H2011 0.930 . S
C1995 Gd1942 2.805 . S
C1995 O1977 1.263 . S
C1995 O1978 1.252 . S
C1995 C1989 1.500 . S
C1996 H1958 0.930 . S
C1996 C1972 1.417 . S
C1996 C1997 1.329 . S
C1997 C1967 1.437 . S
C1997 H1968 0.929 . S
C1997 C1996 1.329 . S
H1998 C1971 0.931 . S
C1999 O1981 1.265 1_554 S
C1999 O1982 1.242 . S
C2000 O1985 1.261 . S
C2000 O1986 1.252 1_556 S
C2001 C2004 1.394 . S
C2001 C2006 1.370 . S
C2001 C2007 1.500 . S
C2002 C2005 1.383 . S
C2002 C2006 1.395 . S
C2003 C2004 1.396 . S
C2003 C2005 1.365 . S
C2003 H2012 0.929 . S
C2004 C2001 1.394 . S
C2004 C2003 1.396 . S
C2004 H2013 0.930 . S
C2005 C2002 1.383 . S
C2005 C2003 1.365 . S
C2005 H2014 0.931 . S
C2006 C2001 1.370 . S
C2006 C2002 1.395 . S
C2006 H2015 0.930 . S
C2007 Gd1943 2.805 . S
C2007 O1983 1.263 . S
C2007 O1984 1.252 . S
C2007 C2001 1.500 . S
H2008 C1991 0.929 . S
H2009 C1992 0.930 . S
H2010 C1993 0.931 . S
H2011 C1994 0.930 . S
H2012 C2003 0.929 . S
H2013 C2004 0.930 . S
H2014 C2005 0.931 . S
H2015 C2006 0.930 . S
C2016 C2018 1.422 . S
C2016 C2020 1.415 . S
C2016 N2022 1.369 . S
C2017 C2018 1.421 . S
C2017 C2019 1.417 . S
C2017 C2029 1.422 . S
C2018 C2016 1.422 . S
C2018 C2017 1.421 . S
C2018 N2028 1.359 . S
C2019 C2017 1.417 . S
C2019 C2021 1.329 . S
C2019 H2038 0.930 . S
C2020 C2016 1.415 . S
C2020 C2021 1.437 . S
C2020 C2024 1.413 . S
C2021 C2019 1.329 . S
C2021 C2020 1.437 . S
C2021 H2043 0.929 . S
N2022 C2016 1.369 . S
N2022 C2023 1.338 . S
N2022 Gd2027 2.622 . S
C2023 N2022 1.338 . S
C2023 C2025 1.378 . S
C2023 H2035 0.929 . S
C2024 C2020 1.413 . S
C2024 C2025 1.348 . S
C2024 H2040 0.931 . S
C2025 C2023 1.378 . S
C2025 C2024 1.348 . S
C2025 H2041 0.930 . S
Gd2026 N2046 2.622 1_565 S
Gd2026 N2053 2.570 . S
Gd2026 O2060 2.353 . S
Gd2026 O2061 2.468 . S
Gd2026 O2062 2.427 . S
Gd2026 O2064 2.388 1_565 S
Gd2026 O2065 2.386 1_565 S
Gd2026 O2069 2.307 . S
Gd2026 C2079 2.805 . S
Gd2027 N2022 2.622 . S
Gd2027 N2028 2.570 . S
Gd2027 O2059 2.386 . S
Gd2027 O2063 2.307 . S
Gd2027 O2066 2.353 . S
Gd2027 O2067 2.468 . S
Gd2027 O2068 2.427 . S
Gd2027 O2070 2.388 . S
Gd2027 C2091 2.805 . S
N2028 C2018 1.359 . S
N2028 Gd2027 2.570 . S
N2028 C2030 1.343 . S
C2029 C2017 1.422 . S
C2029 C2031 1.321 . S
C2029 H2037 0.931 . S
C2030 N2028 1.343 . S
C2030 C2031 1.390 . S
C2030 H2032 0.931 . S
C2031 C2029 1.321 . S
C2031 C2030 1.390 . S
C2031 H2033 0.930 . S
H2032 C2030 0.931 . S
H2033 C2031 0.930 . S
H2034 C2057 0.931 . S
H2035 C2023 0.929 . S
H2036 C2058 0.930 . S
H2037 C2029 0.931 . S
H2038 C2019 0.930 . S
H2039 C2048 0.929 . S
H2040 C2024 0.931 . S
H2041 C2025 0.930 . S
H2042 C2080 0.930 . S
H2043 C2021 0.929 . S
H2044 C2049 0.931 . S
H2045 C2050 0.930 . S
N2046 Gd2026 2.622 1_545 S
N2046 C2047 1.369 . S
N2046 C2048 1.338 . S
C2047 N2046 1.369 . S
C2047 C2051 1.415 . S
C2047 C2054 1.422 . S
C2048 H2039 0.929 . S
C2048 N2046 1.338 . S
C2048 C2050 1.378 . S
C2049 H2044 0.931 . S
C2049 C2050 1.348 . S
C2049 C2051 1.413 . S
C2050 H2045 0.930 . S
C2050 C2048 1.378 . S
C2050 C2049 1.348 . S
C2051 C2047 1.415 . S
C2051 C2049 1.413 . S
C2051 C2081 1.437 . S
H2052 C2081 0.929 . S
N2053 Gd2026 2.570 . S
N2053 C2054 1.359 1_565 S
N2053 C2057 1.343 . S
C2054 C2047 1.422 . S
C2054 N2053 1.359 1_545 S
C2054 C2056 1.421 . S
C2055 C2056 1.422 . S
C2055 C2058 1.321 1_545 S
C2055 H2082 0.931 . S
C2056 C2054 1.421 . S
C2056 C2055 1.422 . S
C2056 C2080 1.417 . S
C2057 H2034 0.931 . S
C2057 N2053 1.343 . S
C2057 C2058 1.390 . S
C2058 H2036 0.930 . S
C2058 C2055 1.321 1_565 S
C2058 C2057 1.390 . S
O2059 Gd2027 2.386 . S
O2059 C2071 1.265 . S
O2060 Gd2026 2.353 . S
O2060 C2071 1.242 . S
O2061 Gd2026 2.468 . S
O2061 C2079 1.263 . S
O2062 Gd2026 2.427 . S
O2062 C2079 1.252 . S
O2063 Gd2027 2.307 . S
O2063 C2072 1.261 1_565 S
O2064 Gd2026 2.388 1_545 S
O2064 C2072 1.252 . S
O2065 Gd2026 2.386 1_545 S
O2065 C2083 1.265 . S
O2066 Gd2027 2.353 . S
O2066 C2083 1.242 1_565 S
O2067 Gd2027 2.468 . S
O2067 C2091 1.263 . S
O2068 Gd2027 2.427 . S
O2068 C2091 1.252 . S
O2069 Gd2026 2.307 . S
O2069 C2084 1.261 . S
O2070 Gd2027 2.388 . S
O2070 C2084 1.252 . S
C2071 O2059 1.265 . S
C2071 O2060 1.242 . S
C2072 O2063 1.261 1_545 S
C2072 O2064 1.252 . S
C2073 C2076 1.394 . S
C2073 C2078 1.370 . S
C2073 C2079 1.500 . S
C2074 C2077 1.383 . S
C2074 C2078 1.395 . S
C2075 C2076 1.396 . S
C2075 C2077 1.365 . S
C2075 H2092 0.929 . S
C2076 C2073 1.394 . S
C2076 C2075 1.396 . S
C2076 H2093 0.930 . S
C2077 C2074 1.383 . S
C2077 C2075 1.365 . S
C2077 H2094 0.931 . S
C2078 C2073 1.370 . S
C2078 C2074 1.395 . S
C2078 H2095 0.930 . S
C2079 Gd2026 2.805 . S
C2079 O2061 1.263 . S
C2079 O2062 1.252 . S
C2079 C2073 1.500 . S
C2080 H2042 0.930 . S
C2080 C2056 1.417 . S
C2080 C2081 1.329 . S
C2081 C2051 1.437 . S
C2081 H2052 0.929 . S
C2081 C2080 1.329 . S
H2082 C2055 0.931 . S
C2083 O2065 1.265 . S
C2083 O2066 1.242 1_545 S
C2084 O2069 1.261 . S
C2084 O2070 1.252 . S
C2085 C2088 1.394 . S
C2085 C2090 1.370 1_565 S
C2085 C2091 1.500 . S
C2086 C2089 1.390 . S
C2086 C2090 1.395 . S
C2087 C2088 1.396 . S
C2087 C2089 1.358 1_565 S
C2087 H2096 0.929 . S
C2088 C2085 1.394 . S
C2088 C2087 1.396 . S
C2088 H2097 0.930 . S
C2089 C2086 1.390 . S
C2089 C2087 1.358 1_545 S
C2089 H2098 0.932 . S
C2090 C2085 1.370 1_545 S
C2090 C2086 1.395 . S
C2090 H2099 0.930 . S
C2091 Gd2027 2.805 . S
C2091 O2067 1.263 . S
C2091 O2068 1.252 . S
C2091 C2085 1.500 . S
H2092 C2075 0.929 . S
H2093 C2076 0.930 . S
H2094 C2077 0.931 . S
H2095 C2078 0.930 . S
H2096 C2087 0.929 . S
H2097 C2088 0.930 . S
H2098 C2089 0.932 . S
H2099 C2090 0.930 . S
C2100 C2102 1.422 . S
C2100 C2104 1.415 . S
C2100 N2106 1.369 . S
C2101 C2102 1.421 . S
C2101 C2103 1.417 . S
C2101 C2113 1.422 . S
C2102 C2100 1.422 . S
C2102 C2101 1.421 . S
C2102 N2112 1.359 . S
C2103 C2101 1.417 . S
C2103 C2105 1.329 . S
C2103 H2122 0.930 . S
C2104 C2100 1.415 . S
C2104 C2105 1.437 . S
C2104 C2108 1.413 . S
C2105 C2103 1.329 . S
C2105 C2104 1.437 . S
C2105 H2127 0.929 . S
N2106 C2100 1.369 . S
N2106 C2107 1.338 . S
N2106 Gd2111 2.622 . S
C2107 N2106 1.338 . S
C2107 C2109 1.378 . S
C2107 H2119 0.929 . S
C2108 C2104 1.413 . S
C2108 C2109 1.348 . S
C2108 H2124 0.931 . S
C2109 C2107 1.378 . S
C2109 C2108 1.348 . S
C2109 H2125 0.930 . S
Gd2110 N2130 2.622 1_455 S
Gd2110 N2137 2.570 . S
Gd2110 O2144 2.353 . S
Gd2110 O2145 2.468 . S
Gd2110 O2146 2.427 . S
Gd2110 O2148 2.388 1_455 S
Gd2110 O2149 2.386 1_455 S
Gd2110 O2153 2.307 . S
Gd2110 C2163 2.805 . S
Gd2111 N2106 2.622 . S
Gd2111 N2112 2.570 . S
Gd2111 O2143 2.386 . S
Gd2111 O2147 2.307 . S
Gd2111 O2150 2.353 . S
Gd2111 O2151 2.468 . S
Gd2111 O2152 2.427 . S
Gd2111 O2154 2.388 . S
Gd2111 C2175 2.805 . S
N2112 C2102 1.359 . S
N2112 Gd2111 2.570 . S
N2112 C2114 1.343 . S
C2113 C2101 1.422 . S
C2113 C2115 1.321 . S
C2113 H2121 0.931 . S
C2114 N2112 1.343 . S
C2114 C2115 1.390 . S
C2114 H2116 0.931 . S
C2115 C2113 1.321 . S
C2115 C2114 1.390 . S
C2115 H2117 0.930 . S
H2116 C2114 0.931 . S
H2117 C2115 0.930 . S
H2118 C2141 0.931 . S
H2119 C2107 0.929 . S
H2120 C2142 0.930 . S
H2121 C2113 0.931 . S
H2122 C2103 0.930 . S
H2123 C2132 0.929 . S
H2124 C2108 0.931 . S
H2125 C2109 0.930 . S
H2126 C2164 0.930 . S
H2127 C2105 0.929 . S
H2128 C2133 0.931 . S
H2129 C2134 0.930 . S
N2130 Gd2110 2.622 1_655 S
N2130 C2131 1.369 . S
N2130 C2132 1.338 . S
C2131 N2130 1.369 . S
C2131 C2135 1.415 . S
C2131 C2138 1.422 . S
C2132 H2123 0.929 . S
C2132 N2130 1.338 . S
C2132 C2134 1.378 . S
C2133 H2128 0.931 . S
C2133 C2134 1.348 . S
C2133 C2135 1.413 . S
C2134 H2129 0.930 . S
C2134 C2132 1.378 . S
C2134 C2133 1.348 . S
C2135 C2131 1.415 . S
C2135 C2133 1.413 . S
C2135 C2165 1.437 . S
H2136 C2165 0.929 . S
N2137 Gd2110 2.570 . S
N2137 C2138 1.359 1_455 S
N2137 C2141 1.343 . S
C2138 C2131 1.422 . S
C2138 N2137 1.359 1_655 S
C2138 C2140 1.421 . S
C2139 C2140 1.422 . S
C2139 C2142 1.321 1_655 S
C2139 H2166 0.931 . S
C2140 C2138 1.421 . S
C2140 C2139 1.422 . S
C2140 C2164 1.417 . S
C2141 H2118 0.931 . S
C2141 N2137 1.343 . S
C2141 C2142 1.390 . S
C2142 H2120 0.930 . S
C2142 C2139 1.321 1_455 S
C2142 C2141 1.390 . S
O2143 Gd2111 2.386 . S
O2143 C2155 1.265 . S
O2144 Gd2110 2.353 . S
O2144 C2155 1.242 . S
O2145 Gd2110 2.468 . S
O2145 C2163 1.263 . S
O2146 Gd2110 2.427 . S
O2146 C2163 1.252 . S
O2147 Gd2111 2.307 . S
O2147 C2156 1.261 1_455 S
O2148 Gd2110 2.388 1_655 S
O2148 C2156 1.252 . S
O2149 Gd2110 2.386 1_655 S
O2149 C2167 1.265 . S
O2150 Gd2111 2.353 . S
O2150 C2167 1.242 1_455 S
O2151 Gd2111 2.468 . S
O2151 C2175 1.263 . S
O2152 Gd2111 2.427 . S
O2152 C2175 1.252 . S
O2153 Gd2110 2.307 . S
O2153 C2168 1.261 . S
O2154 Gd2111 2.388 . S
O2154 C2168 1.252 . S
C2155 O2143 1.265 . S
C2155 O2144 1.242 . S
C2156 O2147 1.261 1_655 S
C2156 O2148 1.252 . S
C2157 C2160 1.394 . S
C2157 C2162 1.370 . S
C2157 C2163 1.500 . S
C2158 C2161 1.383 . S
C2158 C2162 1.395 . S
C2159 C2160 1.396 . S
C2159 C2161 1.365 . S
C2159 H2176 0.929 . S
C2160 C2157 1.394 . S
C2160 C2159 1.396 . S
C2160 H2177 0.930 . S
C2161 C2158 1.383 . S
C2161 C2159 1.365 . S
C2161 H2178 0.931 . S
C2162 C2157 1.370 . S
C2162 C2158 1.395 . S
C2162 H2179 0.930 . S
C2163 Gd2110 2.805 . S
C2163 O2145 1.263 . S
C2163 O2146 1.252 . S
C2163 C2157 1.500 . S
C2164 H2126 0.930 . S
C2164 C2140 1.417 . S
C2164 C2165 1.329 . S
C2165 C2135 1.437 . S
C2165 H2136 0.929 . S
C2165 C2164 1.329 . S
H2166 C2139 0.931 . S
C2167 O2149 1.265 . S
C2167 O2150 1.242 1_655 S
C2168 O2153 1.261 . S
C2168 O2154 1.252 . S
C2169 C2172 1.394 . S
C2169 C2174 1.370 1_455 S
C2169 C2175 1.500 . S
C2170 C2173 1.384 . S
C2170 C2174 1.395 . S
C2171 C2172 1.396 . S
C2171 C2173 1.363 1_455 S
C2171 H2180 0.929 . S
C2172 C2169 1.394 . S
C2172 C2171 1.396 . S
C2172 H2181 0.930 . S
C2173 C2170 1.384 . S
C2173 C2171 1.363 1_655 S
C2173 H2182 0.933 . S
C2174 C2169 1.370 1_655 S
C2174 C2170 1.395 . S
C2174 H2183 0.930 . S
C2175 Gd2111 2.805 . S
C2175 O2151 1.263 . S
C2175 O2152 1.252 . S
C2175 C2169 1.500 . S
H2176 C2159 0.929 . S
H2177 C2160 0.930 . S
H2178 C2161 0.931 . S
H2179 C2162 0.930 . S
H2180 C2171 0.929 . S
H2181 C2172 0.930 . S
H2182 C2173 0.933 . S
H2183 C2174 0.930 . S
C2184 C2186 1.422 . S
C2184 C2188 1.415 . S
C2184 N2190 1.369 . S
C2185 C2186 1.421 . S
C2185 C2187 1.417 . S
C2185 C2197 1.422 . S
C2186 C2184 1.422 . S
C2186 C2185 1.421 . S
C2186 N2196 1.359 . S
C2187 C2185 1.417 . S
C2187 C2189 1.329 . S
C2187 H2206 0.930 . S
C2188 C2184 1.415 . S
C2188 C2189 1.437 . S
C2188 C2192 1.413 . S
C2189 C2187 1.329 . S
C2189 C2188 1.437 . S
C2189 H2211 0.929 . S
N2190 C2184 1.369 . S
N2190 C2191 1.338 . S
N2190 Gd2195 2.622 . S
C2191 N2190 1.338 . S
C2191 C2193 1.378 . S
C2191 H2203 0.929 . S
C2192 C2188 1.413 . S
C2192 C2193 1.348 . S
C2192 H2208 0.931 . S
C2193 C2191 1.378 . S
C2193 C2192 1.348 . S
C2193 H2209 0.930 . S
Gd2194 N2214 2.622 . S
Gd2194 N2221 2.570 . S
Gd2194 O2228 2.353 . S
Gd2194 O2229 2.468 . S
Gd2194 O2230 2.427 . S
Gd2194 O2232 2.388 . S
Gd2194 O2233 2.386 . S
Gd2194 O2237 2.307 . S
Gd2194 C2247 2.805 . S
Gd2195 N2190 2.622 . S
Gd2195 N2196 2.570 . S
Gd2195 O2227 2.386 . S
Gd2195 O2231 2.307 . S
Gd2195 O2234 2.353 . S
Gd2195 O2235 2.468 . S
Gd2195 O2236 2.427 . S
Gd2195 O2238 2.388 . S
Gd2195 C2259 2.805 . S
N2196 C2186 1.359 . S
N2196 Gd2195 2.570 . S
N2196 C2198 1.343 . S
C2197 C2185 1.422 . S
C2197 C2199 1.321 . S
C2197 H2205 0.931 . S
C2198 N2196 1.343 . S
C2198 C2199 1.390 . S
C2198 H2200 0.931 . S
C2199 C2197 1.321 . S
C2199 C2198 1.390 . S
C2199 H2201 0.930 . S
H2200 C2198 0.931 . S
H2201 C2199 0.930 . S
H2202 C2225 0.931 . S
H2203 C2191 0.929 . S
H2204 C2226 0.930 . S
H2205 C2197 0.931 . S
H2206 C2187 0.930 . S
H2207 C2216 0.929 . S
H2208 C2192 0.931 . S
H2209 C2193 0.930 . S
H2210 C2248 0.930 . S
H2211 C2189 0.929 . S
H2212 C2217 0.931 . S
H2213 C2218 0.930 . S
N2214 Gd2194 2.622 . S
N2214 C2215 1.369 . S
N2214 C2216 1.338 . S
C2215 N2214 1.369 . S
C2215 C2219 1.415 . S
C2215 C2222 1.422 . S
C2216 H2207 0.929 . S
C2216 N2214 1.338 . S
C2216 C2218 1.378 . S
C2217 H2212 0.931 . S
C2217 C2218 1.348 . S
C2217 C2219 1.413 . S
C2218 H2213 0.930 . S
C2218 C2216 1.378 . S
C2218 C2217 1.348 . S
C2219 C2215 1.415 . S
C2219 C2217 1.413 . S
C2219 C2249 1.437 . S
H2220 C2249 0.929 . S
N2221 Gd2194 2.570 . S
N2221 C2222 1.359 . S
N2221 C2225 1.343 . S
C2222 C2215 1.422 . S
C2222 N2221 1.359 . S
C2222 C2224 1.421 . S
C2223 C2224 1.422 . S
C2223 C2226 1.321 . S
C2223 H2250 0.931 . S
C2224 C2222 1.421 . S
C2224 C2223 1.422 . S
C2224 C2248 1.417 . S
C2225 H2202 0.931 . S
C2225 N2221 1.343 . S
C2225 C2226 1.390 . S
C2226 H2204 0.930 . S
C2226 C2223 1.321 . S
C2226 C2225 1.390 . S
O2227 Gd2195 2.386 . S
O2227 C2239 1.265 . S
O2228 Gd2194 2.353 . S
O2228 C2239 1.242 . S
O2229 Gd2194 2.468 . S
O2229 C2247 1.263 . S
O2230 Gd2194 2.427 . S
O2230 C2247 1.252 . S
O2231 Gd2195 2.307 . S
O2231 C2240 1.261 . S
O2232 Gd2194 2.388 . S
O2232 C2240 1.252 . S
O2233 Gd2194 2.386 . S
O2233 C2251 1.265 . S
O2234 Gd2195 2.353 . S
O2234 C2251 1.242 . S
O2235 Gd2195 2.468 . S
O2235 C2259 1.263 . S
O2236 Gd2195 2.427 . S
O2236 C2259 1.252 . S
O2237 Gd2194 2.307 . S
O2237 C2252 1.261 . S
O2238 Gd2195 2.388 . S
O2238 C2252 1.252 . S
C2239 O2227 1.265 . S
C2239 O2228 1.242 . S
C2240 O2231 1.261 . S
C2240 O2232 1.252 . S
C2241 C2244 1.394 . S
C2241 C2246 1.370 . S
C2241 C2247 1.500 . S
C2242 C2245 1.383 . S
C2242 C2246 1.395 . S
C2243 C2244 1.396 . S
C2243 C2245 1.365 . S
C2243 H2260 0.929 . S
C2244 C2241 1.394 . S
C2244 C2243 1.396 . S
C2244 H2261 0.930 . S
C2245 C2242 1.383 . S
C2245 C2243 1.365 . S
C2245 H2262 0.931 . S
C2246 C2241 1.370 . S
C2246 C2242 1.395 . S
C2246 H2263 0.930 . S
C2247 Gd2194 2.805 . S
C2247 O2229 1.263 . S
C2247 O2230 1.252 . S
C2247 C2241 1.500 . S
C2248 H2210 0.930 . S
C2248 C2224 1.417 . S
C2248 C2249 1.329 . S
C2249 C2219 1.437 . S
C2249 H2220 0.929 . S
C2249 C2248 1.329 . S
H2250 C2223 0.931 . S
C2251 O2233 1.265 . S
C2251 O2234 1.242 . S
C2252 O2237 1.261 . S
C2252 O2238 1.252 . S
C2253 C2256 1.394 . S
C2253 C2258 1.370 . S
C2253 C2259 1.500 . S
C2254 C2257 1.383 . S
C2254 C2258 1.395 . S
C2255 C2256 1.396 . S
C2255 C2257 1.365 . S
C2255 H2264 0.929 . S
C2256 C2253 1.394 . S
C2256 C2255 1.396 . S
C2256 H2265 0.930 . S
C2257 C2254 1.383 . S
C2257 C2255 1.365 . S
C2257 H2266 0.931 . S
C2258 C2253 1.370 . S
C2258 C2254 1.395 . S
C2258 H2267 0.930 . S
C2259 Gd2195 2.805 . S
C2259 O2235 1.263 . S
C2259 O2236 1.252 . S
C2259 C2253 1.500 . S
H2260 C2243 0.929 . S
H2261 C2244 0.930 . S
H2262 C2245 0.931 . S
H2263 C2246 0.930 . S
H2264 C2255 0.929 . S
H2265 C2256 0.930 . S
H2266 C2257 0.931 . S
H2267 C2258 0.930 . S
C2268 C2270 1.422 . S
C2268 C2272 1.415 . S
C2268 N2274 1.369 . S
C2269 C2270 1.421 . S
C2269 C2271 1.417 . S
C2269 C2281 1.422 . S
C2270 C2268 1.422 . S
C2270 C2269 1.421 . S
C2270 N2280 1.359 . S
C2271 C2269 1.417 . S
C2271 C2273 1.329 . S
C2271 H2290 0.930 . S
C2272 C2268 1.415 . S
C2272 C2273 1.437 . S
C2272 C2276 1.413 . S
C2273 C2271 1.329 . S
C2273 C2272 1.437 . S
C2273 H2295 0.929 . S
N2274 C2268 1.369 . S
N2274 C2275 1.338 . S
N2274 Gd2279 2.622 . S
C2275 N2274 1.338 . S
C2275 C2277 1.378 . S
C2275 H2287 0.929 . S
C2276 C2272 1.413 . S
C2276 C2277 1.348 . S
C2276 H2292 0.931 . S
C2277 C2275 1.378 . S
C2277 C2276 1.348 . S
C2277 H2293 0.930 . S
Gd2278 N2298 2.622 . S
Gd2278 N2305 2.570 . S
Gd2278 O2312 2.353 . S
Gd2278 O2313 2.468 . S
Gd2278 O2314 2.427 . S
Gd2278 O2316 2.388 . S
Gd2278 O2317 2.386 . S
Gd2278 O2321 2.307 . S
Gd2278 C2331 2.805 . S
Gd2279 N2274 2.622 . S
Gd2279 N2280 2.570 . S
Gd2279 O2311 2.386 . S
Gd2279 O2315 2.307 . S
Gd2279 O2318 2.353 . S
Gd2279 O2319 2.468 . S
Gd2279 O2320 2.427 . S
Gd2279 O2322 2.388 . S
Gd2279 C2343 2.805 . S
N2280 C2270 1.359 . S
N2280 Gd2279 2.570 . S
N2280 C2282 1.343 . S
C2281 C2269 1.422 . S
C2281 C2283 1.321 . S
C2281 H2289 0.931 . S
C2282 N2280 1.343 . S
C2282 C2283 1.390 . S
C2282 H2284 0.931 . S
C2283 C2281 1.321 . S
C2283 C2282 1.390 . S
C2283 H2285 0.930 . S
H2284 C2282 0.931 . S
H2285 C2283 0.930 . S
H2286 C2309 0.931 . S
H2287 C2275 0.929 . S
H2288 C2310 0.930 . S
H2289 C2281 0.931 . S
H2290 C2271 0.930 . S
H2291 C2300 0.929 . S
H2292 C2276 0.931 . S
H2293 C2277 0.930 . S
H2294 C2332 0.930 . S
H2295 C2273 0.929 . S
H2296 C2301 0.931 . S
H2297 C2302 0.930 . S
N2298 Gd2278 2.622 . S
N2298 C2299 1.369 . S
N2298 C2300 1.338 . S
C2299 N2298 1.369 . S
C2299 C2303 1.415 . S
C2299 C2306 1.422 . S
C2300 H2291 0.929 . S
C2300 N2298 1.338 . S
C2300 C2302 1.378 . S
C2301 H2296 0.931 . S
C2301 C2302 1.348 . S
C2301 C2303 1.413 . S
C2302 H2297 0.930 . S
C2302 C2300 1.378 . S
C2302 C2301 1.348 . S
C2303 C2299 1.415 . S
C2303 C2301 1.413 . S
C2303 C2333 1.437 1_565 S
H2304 C2333 0.929 . S
N2305 Gd2278 2.570 . S
N2305 C2306 1.359 . S
N2305 C2309 1.343 . S
C2306 C2299 1.422 . S
C2306 N2305 1.359 . S
C2306 C2308 1.421 1_565 S
C2307 C2308 1.422 . S
C2307 C2310 1.321 . S
C2307 H2334 0.931 . S
C2308 C2306 1.421 1_545 S
C2308 C2307 1.422 . S
C2308 C2332 1.417 . S
C2309 H2286 0.931 . S
C2309 N2305 1.343 . S
C2309 C2310 1.390 1_565 S
C2310 H2288 0.930 . S
C2310 C2307 1.321 . S
C2310 C2309 1.390 1_545 S
O2311 Gd2279 2.386 . S
O2311 C2323 1.265 1_554 S
O2312 Gd2278 2.353 . S
O2312 C2323 1.242 . S
O2313 Gd2278 2.468 . S
O2313 C2331 1.263 . S
O2314 Gd2278 2.427 . S
O2314 C2331 1.252 . S
O2315 Gd2279 2.307 . S
O2315 C2324 1.261 . S
O2316 Gd2278 2.388 . S
O2316 C2324 1.252 1_556 S
O2317 Gd2278 2.386 . S
O2317 C2335 1.265 1_556 S
O2318 Gd2279 2.353 . S
O2318 C2335 1.242 . S
O2319 Gd2279 2.468 . S
O2319 C2343 1.263 . S
O2320 Gd2279 2.427 . S
O2320 C2343 1.252 . S
O2321 Gd2278 2.307 . S
O2321 C2336 1.261 . S
O2322 Gd2279 2.388 . S
O2322 C2336 1.252 1_554 S
C2323 O2311 1.265 1_556 S
C2323 O2312 1.242 . S
C2324 O2315 1.261 . S
C2324 O2316 1.252 1_554 S
C2325 C2328 1.394 . S
C2325 C2330 1.370 . S
C2325 C2331 1.500 . S
C2326 C2329 1.383 . S
C2326 C2330 1.395 . S
C2327 C2328 1.396 . S
C2327 C2329 1.365 . S
C2327 H2344 0.929 . S
C2328 C2325 1.394 . S
C2328 C2327 1.396 . S
C2328 H2345 0.930 . S
C2329 C2326 1.383 . S
C2329 C2327 1.365 . S
C2329 H2346 0.931 . S
C2330 C2325 1.370 . S
C2330 C2326 1.395 . S
C2330 H2347 0.930 . S
C2331 Gd2278 2.805 . S
C2331 O2313 1.263 . S
C2331 O2314 1.252 . S
C2331 C2325 1.500 . S
C2332 H2294 0.930 . S
C2332 C2308 1.417 . S
C2332 C2333 1.329 . S
C2333 C2303 1.437 1_545 S
C2333 H2304 0.929 . S
C2333 C2332 1.329 . S
H2334 C2307 0.931 . S
C2335 O2317 1.265 1_554 S
C2335 O2318 1.242 . S
C2336 O2321 1.261 . S
C2336 O2322 1.252 1_556 S
C2337 C2340 1.394 . S
C2337 C2342 1.370 . S
C2337 C2343 1.500 . S
C2338 C2341 1.383 . S
C2338 C2342 1.395 . S
C2339 C2340 1.396 . S
C2339 C2341 1.365 . S
C2339 H2348 0.929 . S
C2340 C2337 1.394 . S
C2340 C2339 1.396 . S
C2340 H2349 0.930 . S
C2341 C2338 1.383 . S
C2341 C2339 1.365 . S
C2341 H2350 0.931 . S
C2342 C2337 1.370 . S
C2342 C2338 1.395 . S
C2342 H2351 0.930 . S
C2343 Gd2279 2.805 . S
C2343 O2319 1.263 . S
C2343 O2320 1.252 . S
C2343 C2337 1.500 . S
H2344 C2327 0.929 . S
H2345 C2328 0.930 . S
H2346 C2329 0.931 . S
H2347 C2330 0.930 . S
H2348 C2339 0.929 . S
H2349 C2340 0.930 . S
H2350 C2341 0.931 . S
H2351 C2342 0.930 . S
C2352 C2354 1.422 . S
C2352 C2356 1.415 . S
C2352 N2358 1.369 . S
C2353 C2354 1.421 . S
C2353 C2355 1.417 . S
C2353 C2365 1.422 . S
C2354 C2352 1.422 . S
C2354 C2353 1.421 . S
C2354 N2364 1.359 . S
C2355 C2353 1.417 . S
C2355 C2357 1.329 . S
C2355 H2374 0.930 . S
C2356 C2352 1.415 . S
C2356 C2357 1.437 . S
C2356 C2360 1.413 . S
C2357 C2355 1.329 . S
C2357 C2356 1.437 . S
C2357 H2379 0.929 . S
N2358 C2352 1.369 . S
N2358 C2359 1.338 . S
N2358 Gd2363 2.622 . S
C2359 N2358 1.338 . S
C2359 C2361 1.378 . S
C2359 H2371 0.929 . S
C2360 C2356 1.413 . S
C2360 C2361 1.348 . S
C2360 H2376 0.931 . S
C2361 C2359 1.378 . S
C2361 C2360 1.348 . S
C2361 H2377 0.930 . S
Gd2362 N2382 2.622 . S
Gd2362 N2389 2.570 . S
Gd2362 O2396 2.353 . S
Gd2362 O2397 2.468 . S
Gd2362 O2398 2.427 . S
Gd2362 O2400 2.388 . S
Gd2362 O2401 2.386 . S
Gd2362 O2405 2.307 . S
Gd2362 C2415 2.805 . S
Gd2363 N2358 2.622 . S
Gd2363 N2364 2.570 . S
Gd2363 O2395 2.386 . S
Gd2363 O2399 2.307 . S
Gd2363 O2402 2.353 . S
Gd2363 O2403 2.468 . S
Gd2363 O2404 2.427 . S
Gd2363 O2406 2.388 . S
Gd2363 C2427 2.805 . S
N2364 C2354 1.359 . S
N2364 Gd2363 2.570 . S
N2364 C2366 1.343 . S
C2365 C2353 1.422 . S
C2365 C2367 1.321 . S
C2365 H2373 0.931 . S
C2366 N2364 1.343 . S
C2366 C2367 1.390 . S
C2366 H2368 0.931 . S
C2367 C2365 1.321 . S
C2367 C2366 1.390 . S
C2367 H2369 0.930 1_565 S
H2368 C2366 0.931 . S
H2369 C2367 0.930 1_545 S
H2370 C2393 0.931 . S
H2371 C2359 0.929 . S
H2372 C2394 0.930 . S
H2373 C2365 0.931 . S
H2374 C2355 0.930 . S
H2375 C2384 0.929 . S
H2376 C2360 0.931 . S
H2377 C2361 0.930 . S
H2378 C2416 0.930 . S
H2379 C2357 0.929 . S
H2380 C2385 0.931 . S
H2381 C2386 0.930 1_545 S
N2382 Gd2362 2.622 . S
N2382 C2383 1.369 . S
N2382 C2384 1.338 . S
C2383 N2382 1.369 . S
C2383 C2387 1.415 . S
C2383 C2390 1.422 . S
C2384 H2375 0.929 . S
C2384 N2382 1.338 . S
C2384 C2386 1.378 . S
C2385 H2380 0.931 . S
C2385 C2386 1.348 . S
C2385 C2387 1.413 . S
C2386 H2381 0.930 1_565 S
C2386 C2384 1.378 . S
C2386 C2385 1.348 . S
C2387 C2383 1.415 . S
C2387 C2385 1.413 . S
C2387 C2417 1.437 1_455 S
H2388 C2417 0.929 . S
N2389 Gd2362 2.570 . S
N2389 C2390 1.359 . S
N2389 C2393 1.343 . S
C2390 C2383 1.422 . S
C2390 N2389 1.359 . S
C2390 C2392 1.421 1_455 S
C2391 C2392 1.422 . S
C2391 C2394 1.321 . S
C2391 H2418 0.931 . S
C2392 C2390 1.421 1_655 S
C2392 C2391 1.422 . S
C2392 C2416 1.417 . S
C2393 H2370 0.931 . S
C2393 N2389 1.343 . S
C2393 C2394 1.390 1_455 S
C2394 H2372 0.930 . S
C2394 C2391 1.321 . S
C2394 C2393 1.390 1_655 S
O2395 Gd2363 2.386 . S
O2395 C2407 1.265 1_554 S
O2396 Gd2362 2.353 . S
O2396 C2407 1.242 . S
O2397 Gd2362 2.468 . S
O2397 C2415 1.263 . S
O2398 Gd2362 2.427 . S
O2398 C2415 1.252 . S
O2399 Gd2363 2.307 . S
O2399 C2408 1.261 . S
O2400 Gd2362 2.388 . S
O2400 C2408 1.252 1_556 S
O2401 Gd2362 2.386 . S
O2401 C2419 1.265 1_556 S
O2402 Gd2363 2.353 . S
O2402 C2419 1.242 . S
O2403 Gd2363 2.468 . S
O2403 C2427 1.263 . S
O2404 Gd2363 2.427 . S
O2404 C2427 1.252 . S
O2405 Gd2362 2.307 . S
O2405 C2420 1.261 . S
O2406 Gd2363 2.388 . S
O2406 C2420 1.252 1_554 S
C2407 O2395 1.265 1_556 S
C2407 O2396 1.242 . S
C2408 O2399 1.261 . S
C2408 O2400 1.252 1_554 S
C2409 C2412 1.394 . S
C2409 C2414 1.370 . S
C2409 C2415 1.500 . S
C2410 C2413 1.383 . S
C2410 C2414 1.395 . S
C2411 C2412 1.396 . S
C2411 C2413 1.365 . S
C2411 H2428 0.929 . S
C2412 C2409 1.394 . S
C2412 C2411 1.396 . S
C2412 H2429 0.930 . S
C2413 C2410 1.383 . S
C2413 C2411 1.365 . S
C2413 H2430 0.931 . S
C2414 C2409 1.370 . S
C2414 C2410 1.395 . S
C2414 H2431 0.930 . S
C2415 Gd2362 2.805 . S
C2415 O2397 1.263 . S
C2415 O2398 1.252 . S
C2415 C2409 1.500 . S
C2416 H2378 0.930 . S
C2416 C2392 1.417 . S
C2416 C2417 1.329 . S
C2417 C2387 1.437 1_655 S
C2417 H2388 0.929 . S
C2417 C2416 1.329 . S
H2418 C2391 0.931 . S
C2419 O2401 1.265 1_554 S
C2419 O2402 1.242 . S
C2420 O2405 1.261 . S
C2420 O2406 1.252 1_556 S
C2421 C2424 1.394 . S
C2421 C2426 1.370 . S
C2421 C2427 1.500 . S
C2422 C2425 1.383 . S
C2422 C2426 1.395 . S
C2423 C2424 1.396 . S
C2423 C2425 1.365 . S
C2423 H2432 0.929 . S
C2424 C2421 1.394 . S
C2424 C2423 1.396 . S
C2424 H2433 0.930 . S
C2425 C2422 1.383 . S
C2425 C2423 1.365 . S
C2425 H2434 0.931 . S
C2426 C2421 1.370 . S
C2426 C2422 1.395 . S
C2426 H2435 0.930 . S
C2427 Gd2363 2.805 . S
C2427 O2403 1.263 . S
C2427 O2404 1.252 . S
C2427 C2421 1.500 . S
H2428 C2411 0.929 . S
H2429 C2412 0.930 . S
H2430 C2413 0.931 . S
H2431 C2414 0.930 . S
H2432 C2423 0.929 . S
H2433 C2424 0.930 . S
H2434 C2425 0.931 . S
H2435 C2426 0.930 . S
C2436 C2438 1.422 . S
C2436 C2440 1.415 . S
C2436 N2442 1.369 . S
C2437 C2438 1.421 . S
C2437 C2439 1.417 . S
C2437 C2449 1.422 . S
C2438 C2436 1.422 . S
C2438 C2437 1.421 . S
C2438 N2448 1.359 . S
C2439 C2437 1.417 . S
C2439 C2441 1.329 . S
C2439 H2458 0.930 . S
C2440 C2436 1.415 . S
C2440 C2441 1.437 . S
C2440 C2444 1.413 . S
C2441 C2439 1.329 . S
C2441 C2440 1.437 . S
C2441 H2463 0.929 . S
N2442 C2436 1.369 . S
N2442 C2443 1.338 . S
N2442 Gd2447 2.622 . S
C2443 N2442 1.338 . S
C2443 C2445 1.378 . S
C2443 H2455 0.929 . S
C2444 C2440 1.413 . S
C2444 C2445 1.348 . S
C2444 H2460 0.931 . S
C2445 C2443 1.378 . S
C2445 C2444 1.348 . S
C2445 H2461 0.930 . S
Gd2446 N2466 2.622 . S
Gd2446 N2473 2.570 . S
Gd2446 O2480 2.353 . S
Gd2446 O2481 2.468 . S
Gd2446 O2482 2.427 . S
Gd2446 O2484 2.388 . S
Gd2446 O2485 2.386 . S
Gd2446 O2489 2.307 . S
Gd2446 C2499 2.805 . S
Gd2447 N2442 2.622 . S
Gd2447 N2448 2.570 . S
Gd2447 O2479 2.386 . S
Gd2447 O2483 2.307 . S
Gd2447 O2486 2.353 . S
Gd2447 O2487 2.468 . S
Gd2447 O2488 2.427 . S
Gd2447 O2490 2.388 . S
Gd2447 C2511 2.805 . S
N2448 C2438 1.359 . S
N2448 Gd2447 2.570 . S
N2448 C2450 1.343 . S
C2449 C2437 1.422 . S
C2449 C2451 1.321 . S
C2449 H2457 0.931 . S
C2450 N2448 1.343 . S
C2450 C2451 1.390 . S
C2450 H2452 0.931 . S
C2451 C2449 1.321 . S
C2451 C2450 1.390 . S
C2451 H2453 0.930 1_455 S
H2452 C2450 0.931 . S
H2453 C2451 0.930 1_655 S
H2454 C2477 0.931 . S
H2455 C2443 0.929 . S
H2456 C2478 0.930 . S
H2457 C2449 0.931 . S
H2458 C2439 0.930 . S
H2459 C2468 0.929 . S
H2460 C2444 0.931 . S
H2461 C2445 0.930 . S
H2462 C2500 0.930 . S
H2463 C2441 0.929 . S
H2464 C2469 0.931 . S
H2465 C2470 0.930 1_655 S
N2466 Gd2446 2.622 . S
N2466 C2467 1.369 . S
N2466 C2468 1.338 . S
C2467 N2466 1.369 . S
C2467 C2471 1.415 . S
C2467 C2474 1.422 . S
C2468 H2459 0.929 . S
C2468 N2466 1.338 . S
C2468 C2470 1.378 . S
C2469 H2464 0.931 . S
C2469 C2470 1.348 . S
C2469 C2471 1.413 . S
C2470 H2465 0.930 1_455 S
C2470 C2468 1.378 . S
C2470 C2469 1.348 . S
C2471 C2467 1.415 . S
C2471 C2469 1.413 . S
C2471 C2501 1.437 . S
H2472 C2501 0.929 . S
N2473 Gd2446 2.570 . S
N2473 C2474 1.359 . S
N2473 C2477 1.343 . S
C2474 C2467 1.422 . S
C2474 N2473 1.359 . S
C2474 C2476 1.421 . S
C2475 C2476 1.422 . S
C2475 C2478 1.321 . S
C2475 H2502 0.931 . S
C2476 C2474 1.421 . S
C2476 C2475 1.422 . S
C2476 C2500 1.417 . S
C2477 H2454 0.931 . S
C2477 N2473 1.343 . S
C2477 C2478 1.390 . S
C2478 H2456 0.930 . S
C2478 C2475 1.321 . S
C2478 C2477 1.390 . S
O2479 Gd2447 2.386 . S
O2479 C2491 1.265 1_554 S
O2480 Gd2446 2.353 . S
O2480 C2491 1.242 . S
O2481 Gd2446 2.468 . S
O2481 C2499 1.263 . S
O2482 Gd2446 2.427 . S
O2482 C2499 1.252 . S
O2483 Gd2447 2.307 . S
O2483 C2492 1.261 . S
O2484 Gd2446 2.388 . S
O2484 C2492 1.252 1_556 S
O2485 Gd2446 2.386 . S
O2485 C2503 1.265 1_556 S
O2486 Gd2447 2.353 . S
O2486 C2503 1.242 . S
O2487 Gd2447 2.468 . S
O2487 C2511 1.263 . S
O2488 Gd2447 2.427 . S
O2488 C2511 1.252 . S
O2489 Gd2446 2.307 . S
O2489 C2504 1.261 . S
O2490 Gd2447 2.388 . S
O2490 C2504 1.252 1_554 S
C2491 O2479 1.265 1_556 S
C2491 O2480 1.242 . S
C2492 O2483 1.261 . S
C2492 O2484 1.252 1_554 S
C2493 C2496 1.394 . S
C2493 C2498 1.370 . S
C2493 C2499 1.500 . S
C2494 C2497 1.383 . S
C2494 C2498 1.395 . S
C2495 C2496 1.396 . S
C2495 C2497 1.365 . S
C2495 H2512 0.929 . S
C2496 C2493 1.394 . S
C2496 C2495 1.396 . S
C2496 H2513 0.930 . S
C2497 C2494 1.383 . S
C2497 C2495 1.365 . S
C2497 H2514 0.931 . S
C2498 C2493 1.370 . S
C2498 C2494 1.395 . S
C2498 H2515 0.930 . S
C2499 Gd2446 2.805 . S
C2499 O2481 1.263 . S
C2499 O2482 1.252 . S
C2499 C2493 1.500 . S
C2500 H2462 0.930 . S
C2500 C2476 1.417 . S
C2500 C2501 1.329 . S
C2501 C2471 1.437 . S
C2501 H2472 0.929 . S
C2501 C2500 1.329 . S
H2502 C2475 0.931 . S
C2503 O2485 1.265 1_554 S
C2503 O2486 1.242 . S
C2504 O2489 1.261 . S
C2504 O2490 1.252 1_556 S
C2505 C2508 1.394 . S
C2505 C2510 1.370 . S
C2505 C2511 1.500 . S
C2506 C2509 1.383 . S
C2506 C2510 1.395 . S
C2507 C2508 1.396 . S
C2507 C2509 1.365 . S
C2507 H2516 0.929 . S
C2508 C2505 1.394 . S
C2508 C2507 1.396 . S
C2508 H2517 0.930 . S
C2509 C2506 1.383 . S
C2509 C2507 1.365 . S
C2509 H2518 0.931 . S
C2510 C2505 1.370 . S
C2510 C2506 1.395 . S
C2510 H2519 0.930 . S
C2511 Gd2447 2.805 . S
C2511 O2487 1.263 . S
C2511 O2488 1.252 . S
C2511 C2505 1.500 . S
H2512 C2495 0.929 . S
H2513 C2496 0.930 . S
H2514 C2497 0.931 . S
H2515 C2498 0.930 . S
H2516 C2507 0.929 . S
H2517 C2508 0.930 . S
H2518 C2509 0.931 . S
H2519 C2510 0.930 . S
C2520 C2522 1.412 1_455 S
C2520 C2524 1.415 1_455 S
C2520 N2526 1.369 . S
C2521 C2522 1.432 . S
C2521 C2523 1.417 . S
C2521 C2533 1.422 . S
C2522 C2520 1.412 1_655 S
C2522 C2521 1.432 . S
C2522 N2532 1.358 1_655 S
C2523 C2521 1.417 . S
C2523 C2525 1.329 . S
C2523 H2542 0.930 . S
C2524 C2520 1.415 1_655 S
C2524 C2525 1.437 . S
C2524 C2528 1.413 1_655 S
C2525 C2523 1.329 . S
C2525 C2524 1.437 . S
C2525 H2547 0.929 . S
N2526 C2520 1.369 . S
N2526 C2527 1.338 . S
N2526 Gd2531 2.622 . S
C2527 N2526 1.338 . S
C2527 C2529 1.378 . S
C2527 H2539 0.929 . S
C2528 C2524 1.413 1_455 S
C2528 C2529 1.348 . S
C2528 H2544 0.931 1_455 S
C2529 C2527 1.378 . S
C2529 C2528 1.348 . S
C2529 H2545 0.930 . S
Gd2530 N2550 2.622 . S
Gd2530 N2557 2.570 . S
Gd2530 O2564 2.353 . S
Gd2530 O2565 2.468 . S
Gd2530 O2566 2.427 . S
Gd2530 O2568 2.388 . S
Gd2530 O2569 2.386 . S
Gd2530 O2573 2.307 . S
Gd2530 C2583 2.805 . S
Gd2531 N2526 2.622 . S
Gd2531 N2532 2.570 . S
Gd2531 O2563 2.386 . S
Gd2531 O2567 2.307 . S
Gd2531 O2570 2.353 . S
Gd2531 O2571 2.468 . S
Gd2531 O2572 2.427 . S
Gd2531 O2574 2.388 . S
Gd2531 C2595 2.805 . S
N2532 C2522 1.358 1_455 S
N2532 Gd2531 2.570 . S
N2532 C2534 1.343 . S
C2533 C2521 1.422 . S
C2533 C2535 1.321 . S
C2533 H2541 0.931 . S
C2534 N2532 1.343 . S
C2534 C2535 1.390 1_455 S
C2534 H2536 0.931 . S
C2535 C2533 1.321 . S
C2535 C2534 1.390 1_655 S
C2535 H2537 0.930 . S
H2536 C2534 0.931 . S
H2537 C2535 0.930 . S
H2538 C2561 0.931 . S
H2539 C2527 0.929 . S
H2540 C2562 0.930 . S
H2541 C2533 0.931 . S
H2542 C2523 0.930 . S
H2543 C2552 0.929 . S
H2544 C2528 0.931 1_655 S
H2545 C2529 0.930 . S
H2546 C2584 0.930 . S
H2547 C2525 0.929 . S
H2548 C2553 0.931 . S
H2549 C2554 0.930 . S
N2550 Gd2530 2.622 . S
N2550 C2551 1.369 . S
N2550 C2552 1.338 . S
C2551 N2550 1.369 . S
C2551 C2555 1.415 . S
C2551 C2558 1.422 . S
C2552 H2543 0.929 . S
C2552 N2550 1.338 . S
C2552 C2554 1.378 . S
C2553 H2548 0.931 . S
C2553 C2554 1.348 . S
C2553 C2555 1.413 . S
C2554 H2549 0.930 . S
C2554 C2552 1.378 . S
C2554 C2553 1.348 . S
C2555 C2551 1.415 . S
C2555 C2553 1.413 . S
C2555 C2585 1.437 . S
H2556 C2585 0.929 . S
N2557 Gd2530 2.570 . S
N2557 C2558 1.359 . S
N2557 C2561 1.343 . S
C2558 C2551 1.422 . S
C2558 N2557 1.359 . S
C2558 C2560 1.421 . S
C2559 C2560 1.422 . S
C2559 C2562 1.321 . S
C2559 H2586 0.931 . S
C2560 C2558 1.421 . S
C2560 C2559 1.422 . S
C2560 C2584 1.417 . S
C2561 H2538 0.931 . S
C2561 N2557 1.343 . S
C2561 C2562 1.390 . S
C2562 H2540 0.930 . S
C2562 C2559 1.321 . S
C2562 C2561 1.390 . S
O2563 Gd2531 2.386 . S
O2563 C2575 1.265 . S
O2564 Gd2530 2.353 . S
O2564 C2575 1.242 . S
O2565 Gd2530 2.468 . S
O2565 C2583 1.263 . S
O2566 Gd2530 2.427 . S
O2566 C2583 1.252 . S
O2567 Gd2531 2.307 . S
O2567 C2576 1.261 . S
O2568 Gd2530 2.388 . S
O2568 C2576 1.252 . S
O2569 Gd2530 2.386 . S
O2569 C2587 1.265 . S
O2570 Gd2531 2.353 . S
O2570 C2587 1.242 . S
O2571 Gd2531 2.468 . S
O2571 C2595 1.263 . S
O2572 Gd2531 2.427 . S
O2572 C2595 1.252 . S
O2573 Gd2530 2.307 . S
O2573 C2588 1.261 . S
O2574 Gd2531 2.388 . S
O2574 C2588 1.252 . S
C2575 O2563 1.265 . S
C2575 O2564 1.242 . S
C2576 O2567 1.261 . S
C2576 O2568 1.252 . S
C2577 C2580 1.394 . S
C2577 C2582 1.370 . S
C2577 C2583 1.500 . S
C2578 C2581 1.383 . S
C2578 C2582 1.395 . S
C2579 C2580 1.396 . S
C2579 C2581 1.365 . S
C2579 H2596 0.929 . S
C2580 C2577 1.394 . S
C2580 C2579 1.396 . S
C2580 H2597 0.930 . S
C2581 C2578 1.383 . S
C2581 C2579 1.365 . S
C2581 H2598 0.931 . S
C2582 C2577 1.370 . S
C2582 C2578 1.395 . S
C2582 H2599 0.930 . S
C2583 Gd2530 2.805 . S
C2583 O2565 1.263 . S
C2583 O2566 1.252 . S
C2583 C2577 1.500 . S
C2584 H2546 0.930 . S
C2584 C2560 1.417 . S
C2584 C2585 1.329 . S
C2585 C2555 1.437 . S
C2585 H2556 0.929 . S
C2585 C2584 1.329 . S
H2586 C2559 0.931 . S
C2587 O2569 1.265 . S
C2587 O2570 1.242 . S
C2588 O2573 1.261 . S
C2588 O2574 1.252 . S
C2589 C2592 1.394 . S
C2589 C2594 1.370 . S
C2589 C2595 1.500 . S
C2590 C2593 1.383 . S
C2590 C2594 1.395 . S
C2591 C2592 1.396 . S
C2591 C2593 1.365 . S
C2591 H2600 0.929 . S
C2592 C2589 1.394 . S
C2592 C2591 1.396 . S
C2592 H2601 0.930 . S
C2593 C2590 1.383 . S
C2593 C2591 1.365 . S
C2593 H2602 0.931 . S
C2594 C2589 1.370 . S
C2594 C2590 1.395 . S
C2594 H2603 0.930 . S
C2595 Gd2531 2.805 . S
C2595 O2571 1.263 . S
C2595 O2572 1.252 . S
C2595 C2589 1.500 . S
H2596 C2579 0.929 . S
H2597 C2580 0.930 . S
H2598 C2581 0.931 . S
H2599 C2582 0.930 . S
H2600 C2591 0.929 . S
H2601 C2592 0.930 . S
H2602 C2593 0.931 . S
H2603 C2594 0.930 . S
C2604 C2606 1.422 . S
C2604 C2608 1.415 . S
C2604 N2610 1.369 . S
C2605 C2606 1.421 . S
C2605 C2607 1.417 . S
C2605 C2617 1.422 . S
C2606 C2604 1.422 . S
C2606 C2605 1.421 . S
C2606 N2616 1.359 . S
C2607 C2605 1.417 . S
C2607 C2609 1.329 . S
C2607 H2626 0.930 . S
C2608 C2604 1.415 . S
C2608 C2609 1.437 . S
C2608 C2612 1.413 . S
C2609 C2607 1.329 . S
C2609 C2608 1.437 . S
C2609 H2631 0.929 . S
N2610 C2604 1.369 . S
N2610 C2611 1.338 . S
N2610 Gd2615 2.622 . S
C2611 N2610 1.338 . S
C2611 C2613 1.378 . S
C2611 H2623 0.929 . S
C2612 C2608 1.413 . S
C2612 C2613 1.348 . S
C2612 H2628 0.931 . S
C2613 C2611 1.378 . S
C2613 C2612 1.348 . S
C2613 H2629 0.930 1_565 S
Gd2614 N2634 2.622 . S
Gd2614 N2641 2.570 . S
Gd2614 O2648 2.353 . S
Gd2614 O2649 2.468 . S
Gd2614 O2650 2.427 . S
Gd2614 O2652 2.388 . S
Gd2614 O2653 2.386 . S
Gd2614 O2657 2.307 . S
Gd2614 C2667 2.805 . S
Gd2615 N2610 2.622 . S
Gd2615 N2616 2.570 . S
Gd2615 O2647 2.386 . S
Gd2615 O2651 2.307 . S
Gd2615 O2654 2.353 . S
Gd2615 O2655 2.468 . S
Gd2615 O2656 2.427 . S
Gd2615 O2658 2.388 . S
Gd2615 C2679 2.805 . S
N2616 C2606 1.359 . S
N2616 Gd2615 2.570 . S
N2616 C2618 1.343 . S
C2617 C2605 1.422 . S
C2617 C2619 1.321 . S
C2617 H2625 0.931 . S
C2618 N2616 1.343 . S
C2618 C2619 1.390 . S
C2618 H2620 0.931 . S
C2619 C2617 1.321 . S
C2619 C2618 1.390 . S
C2619 H2621 0.930 . S
H2620 C2618 0.931 . S
H2621 C2619 0.930 . S
H2622 C2645 0.931 . S
H2623 C2611 0.929 . S
H2624 C2646 0.930 . S
H2625 C2617 0.931 . S
H2626 C2607 0.930 . S
H2627 C2636 0.929 . S
H2628 C2612 0.931 . S
H2629 C2613 0.930 1_545 S
H2630 C2668 0.930 . S
H2631 C2609 0.929 . S
H2632 C2637 0.931 . S
H2633 C2638 0.930 . S
N2634 Gd2614 2.622 . S
N2634 C2635 1.369 . S
N2634 C2636 1.338 . S
C2635 N2634 1.369 . S
C2635 C2639 1.415 . S
C2635 C2642 1.422 . S
C2636 H2627 0.929 . S
C2636 N2634 1.338 . S
C2636 C2638 1.378 . S
C2637 H2632 0.931 . S
C2637 C2638 1.348 . S
C2637 C2639 1.413 . S
C2638 H2633 0.930 . S
C2638 C2636 1.378 . S
C2638 C2637 1.348 . S
C2639 C2635 1.415 . S
C2639 C2637 1.413 . S
C2639 C2669 1.437 . S
H2640 C2669 0.929 . S
N2641 Gd2614 2.570 . S
N2641 C2642 1.359 . S
N2641 C2645 1.343 . S
C2642 C2635 1.422 . S
C2642 N2641 1.359 . S
C2642 C2644 1.421 . S
C2643 C2644 1.422 . S
C2643 C2646 1.321 . S
C2643 H2670 0.931 . S
C2644 C2642 1.421 . S
C2644 C2643 1.422 . S
C2644 C2668 1.417 . S
C2645 H2622 0.931 . S
C2645 N2641 1.343 . S
C2645 C2646 1.390 . S
C2646 H2624 0.930 . S
C2646 C2643 1.321 . S
C2646 C2645 1.390 . S
O2647 Gd2615 2.386 . S
O2647 C2659 1.265 . S
O2648 Gd2614 2.353 . S
O2648 C2659 1.242 . S
O2649 Gd2614 2.468 . S
O2649 C2667 1.263 . S
O2650 Gd2614 2.427 . S
O2650 C2667 1.252 . S
O2651 Gd2615 2.307 . S
O2651 C2660 1.261 . S
O2652 Gd2614 2.388 . S
O2652 C2660 1.252 . S
O2653 Gd2614 2.386 . S
O2653 C2671 1.265 . S
O2654 Gd2615 2.353 . S
O2654 C2671 1.242 . S
O2655 Gd2615 2.468 . S
O2655 C2679 1.263 . S
O2656 Gd2615 2.427 . S
O2656 C2679 1.252 . S
O2657 Gd2614 2.307 . S
O2657 C2672 1.261 . S
O2658 Gd2615 2.388 . S
O2658 C2672 1.252 . S
C2659 O2647 1.265 . S
C2659 O2648 1.242 . S
C2660 O2651 1.261 . S
C2660 O2652 1.252 . S
C2661 C2664 1.394 . S
C2661 C2666 1.370 . S
C2661 C2667 1.500 . S
C2662 C2665 1.383 . S
C2662 C2666 1.395 . S
C2663 C2664 1.396 . S
C2663 C2665 1.365 . S
C2663 H2680 0.929 . S
C2664 C2661 1.394 . S
C2664 C2663 1.396 . S
C2664 H2681 0.930 . S
C2665 C2662 1.383 . S
C2665 C2663 1.365 . S
C2665 H2682 0.931 . S
C2666 C2661 1.370 . S
C2666 C2662 1.395 . S
C2666 H2683 0.930 . S
C2667 Gd2614 2.805 . S
C2667 O2649 1.263 . S
C2667 O2650 1.252 . S
C2667 C2661 1.500 . S
C2668 H2630 0.930 . S
C2668 C2644 1.417 . S
C2668 C2669 1.329 . S
C2669 C2639 1.437 . S
C2669 H2640 0.929 . S
C2669 C2668 1.329 . S
H2670 C2643 0.931 . S
C2671 O2653 1.265 . S
C2671 O2654 1.242 . S
C2672 O2657 1.261 . S
C2672 O2658 1.252 . S
C2673 C2676 1.394 . S
C2673 C2678 1.370 . S
C2673 C2679 1.500 . S
C2674 C2677 1.383 . S
C2674 C2678 1.395 . S
C2675 C2676 1.396 . S
C2675 C2677 1.365 . S
C2675 H2684 0.929 . S
C2676 C2673 1.394 . S
C2676 C2675 1.396 . S
C2676 H2685 0.930 . S
C2677 C2674 1.383 . S
C2677 C2675 1.365 . S
C2677 H2686 0.931 . S
C2678 C2673 1.370 . S
C2678 C2674 1.395 . S
C2678 H2687 0.930 . S
C2679 Gd2615 2.805 . S
C2679 O2655 1.263 . S
C2679 O2656 1.252 . S
C2679 C2673 1.500 . S
H2680 C2663 0.929 . S
H2681 C2664 0.930 . S
H2682 C2665 0.931 . S
H2683 C2666 0.930 . S
H2684 C2675 0.929 . S
H2685 C2676 0.930 . S
H2686 C2677 0.931 . S
H2687 C2678 0.930 . S
C2688 C2690 1.424 1_565 S
C2688 C2692 1.415 1_565 S
C2688 N2694 1.369 . S
C2689 C2690 1.429 . S
C2689 C2691 1.417 . S
C2689 C2701 1.422 . S
C2690 C2688 1.424 1_545 S
C2690 C2689 1.429 . S
C2690 N2700 1.349 1_545 S
C2691 C2689 1.417 . S
C2691 C2693 1.329 . S
C2691 H2710 0.930 . S
C2692 C2688 1.415 1_545 S
C2692 C2693 1.437 . S
C2692 C2696 1.413 1_545 S
C2693 C2691 1.329 . S
C2693 C2692 1.437 . S
C2693 H2715 0.929 . S
N2694 C2688 1.369 . S
N2694 C2695 1.338 . S
N2694 Gd2699 2.622 . S
C2695 N2694 1.338 . S
C2695 C2697 1.378 . S
C2695 H2707 0.929 . S
C2696 C2692 1.413 1_565 S
C2696 C2697 1.348 . S
C2696 H2712 0.931 1_565 S
C2697 C2695 1.378 . S
C2697 C2696 1.348 . S
C2697 H2713 0.930 1_455 S
Gd2698 N2718 2.622 . S
Gd2698 N2725 2.570 . S
Gd2698 O2732 2.353 . S
Gd2698 O2733 2.468 . S
Gd2698 O2734 2.427 . S
Gd2698 O2736 2.388 . S
Gd2698 O2737 2.386 . S
Gd2698 O2741 2.307 . S
Gd2698 C2751 2.805 . S
Gd2699 N2694 2.622 . S
Gd2699 N2700 2.570 . S
Gd2699 O2731 2.386 . S
Gd2699 O2735 2.307 . S
Gd2699 O2738 2.353 . S
Gd2699 O2739 2.468 . S
Gd2699 O2740 2.427 . S
Gd2699 O2742 2.388 . S
Gd2699 C2763 2.805 . S
N2700 C2690 1.349 1_565 S
N2700 Gd2699 2.570 . S
N2700 C2702 1.343 . S
C2701 C2689 1.422 . S
C2701 C2703 1.321 . S
C2701 H2709 0.931 . S
C2702 N2700 1.343 . S
C2702 C2703 1.390 1_565 S
C2702 H2704 0.931 . S
C2703 C2701 1.321 . S
C2703 C2702 1.390 1_545 S
C2703 H2705 0.930 . S
H2704 C2702 0.931 . S
H2705 C2703 0.930 . S
H2706 C2729 0.931 . S
H2707 C2695 0.929 . S
H2708 C2730 0.930 . S
H2709 C2701 0.931 . S
H2710 C2691 0.930 . S
H2711 C2720 0.929 . S
H2712 C2696 0.931 1_545 S
H2713 C2697 0.930 1_655 S
H2714 C2752 0.930 . S
H2715 C2693 0.929 . S
H2716 C2721 0.931 . S
H2717 C2722 0.930 . S
N2718 Gd2698 2.622 . S
N2718 C2719 1.369 . S
N2718 C2720 1.338 . S
C2719 N2718 1.369 . S
C2719 C2723 1.415 . S
C2719 C2726 1.422 . S
C2720 H2711 0.929 . S
C2720 N2718 1.338 . S
C2720 C2722 1.378 . S
C2721 H2716 0.931 . S
C2721 C2722 1.348 . S
C2721 C2723 1.413 . S
C2722 H2717 0.930 . S
C2722 C2720 1.378 . S
C2722 C2721 1.348 . S
C2723 C2719 1.415 . S
C2723 C2721 1.413 . S
C2723 C2753 1.437 . S
H2724 C2753 0.929 . S
N2725 Gd2698 2.570 . S
N2725 C2726 1.359 . S
N2725 C2729 1.343 . S
C2726 C2719 1.422 . S
C2726 N2725 1.359 . S
C2726 C2728 1.421 . S
C2727 C2728 1.422 . S
C2727 C2730 1.321 . S
C2727 H2754 0.931 . S
C2728 C2726 1.421 . S
C2728 C2727 1.422 . S
C2728 C2752 1.417 . S
C2729 H2706 0.931 . S
C2729 N2725 1.343 . S
C2729 C2730 1.390 . S
C2730 H2708 0.930 . S
C2730 C2727 1.321 . S
C2730 C2729 1.390 . S
O2731 Gd2699 2.386 . S
O2731 C2743 1.265 . S
O2732 Gd2698 2.353 . S
O2732 C2743 1.242 . S
O2733 Gd2698 2.468 . S
O2733 C2751 1.263 . S
O2734 Gd2698 2.427 . S
O2734 C2751 1.252 . S
O2735 Gd2699 2.307 . S
O2735 C2744 1.261 . S
O2736 Gd2698 2.388 . S
O2736 C2744 1.252 . S
O2737 Gd2698 2.386 . S
O2737 C2755 1.265 . S
O2738 Gd2699 2.353 . S
O2738 C2755 1.242 . S
O2739 Gd2699 2.468 . S
O2739 C2763 1.263 . S
O2740 Gd2699 2.427 . S
O2740 C2763 1.252 . S
O2741 Gd2698 2.307 . S
O2741 C2756 1.261 . S
O2742 Gd2699 2.388 . S
O2742 C2756 1.252 . S
C2743 O2731 1.265 . S
C2743 O2732 1.242 . S
C2744 O2735 1.261 . S
C2744 O2736 1.252 . S
C2745 C2748 1.394 . S
C2745 C2750 1.370 . S
C2745 C2751 1.500 . S
C2746 C2749 1.383 . S
C2746 C2750 1.395 . S
C2747 C2748 1.396 . S
C2747 C2749 1.365 . S
C2747 H2764 0.929 . S
C2748 C2745 1.394 . S
C2748 C2747 1.396 . S
C2748 H2765 0.930 . S
C2749 C2746 1.383 . S
C2749 C2747 1.365 . S
C2749 H2766 0.931 . S
C2750 C2745 1.370 . S
C2750 C2746 1.395 . S
C2750 H2767 0.930 . S
C2751 Gd2698 2.805 . S
C2751 O2733 1.263 . S
C2751 O2734 1.252 . S
C2751 C2745 1.500 . S
C2752 H2714 0.930 . S
C2752 C2728 1.417 . S
C2752 C2753 1.329 . S
C2753 C2723 1.437 . S
C2753 H2724 0.929 . S
C2753 C2752 1.329 . S
H2754 C2727 0.931 . S
C2755 O2737 1.265 . S
C2755 O2738 1.242 . S
C2756 O2741 1.261 . S
C2756 O2742 1.252 . S
C2757 C2760 1.394 . S
C2757 C2762 1.370 . S
C2757 C2763 1.500 . S
C2758 C2761 1.383 . S
C2758 C2762 1.395 . S
C2759 C2760 1.396 . S
C2759 C2761 1.365 . S
C2759 H2768 0.929 . S
C2760 C2757 1.394 . S
C2760 C2759 1.396 . S
C2760 H2769 0.930 . S
C2761 C2758 1.383 . S
C2761 C2759 1.365 . S
C2761 H2770 0.931 . S
C2762 C2757 1.370 . S
C2762 C2758 1.395 . S
C2762 H2771 0.930 . S
C2763 Gd2699 2.805 . S
C2763 O2739 1.263 . S
C2763 O2740 1.252 . S
C2763 C2757 1.500 . S
H2764 C2747 0.929 . S
H2765 C2748 0.930 . S
H2766 C2749 0.931 . S
H2767 C2750 0.930 . S
H2768 C2759 0.929 . S
H2769 C2760 0.930 . S
H2770 C2761 0.931 . S
H2771 C2762 0.930 . S
C2772 C2774 1.422 . S
C2772 C2776 1.415 . S
C2772 N2778 1.369 . S
C2773 C2774 1.421 . S
C2773 C2775 1.417 . S
C2773 C2785 1.422 . S
C2774 C2772 1.422 . S
C2774 C2773 1.421 . S
C2774 N2784 1.359 1_655 S
C2775 C2773 1.417 . S
C2775 C2777 1.329 . S
C2775 H2794 0.930 . S
C2776 C2772 1.415 . S
C2776 C2777 1.437 . S
C2776 C2780 1.413 . S
C2777 C2775 1.329 . S
C2777 C2776 1.437 . S
C2777 H2799 0.929 . S
N2778 C2772 1.369 . S
N2778 C2779 1.338 . S
N2778 Gd2783 2.622 1_655 S
C2779 N2778 1.338 . S
C2779 C2781 1.378 . S
C2779 H2791 0.929 . S
C2780 C2776 1.413 . S
C2780 C2781 1.348 . S
C2780 H2796 0.931 . S
C2781 C2779 1.378 . S
C2781 C2780 1.348 . S
C2781 H2797 0.930 . S
Gd2782 N2802 2.622 . S
Gd2782 N2809 2.570 . S
Gd2782 O2816 2.353 . S
Gd2782 O2817 2.468 . S
Gd2782 O2818 2.427 . S
Gd2782 O2820 2.388 . S
Gd2782 O2821 2.386 . S
Gd2782 O2825 2.307 . S
Gd2782 C2835 2.805 . S
Gd2783 N2778 2.622 1_455 S
Gd2783 N2784 2.570 . S
Gd2783 O2815 2.386 1_455 S
Gd2783 O2819 2.307 . S
Gd2783 O2822 2.353 . S
Gd2783 O2823 2.468 . S
Gd2783 O2824 2.427 . S
Gd2783 O2826 2.388 1_455 S
Gd2783 C2847 2.805 . S
N2784 C2774 1.359 1_455 S
N2784 Gd2783 2.570 . S
N2784 C2786 1.343 . S
C2785 C2773 1.422 . S
C2785 C2787 1.321 1_655 S
C2785 H2793 0.931 . S
C2786 N2784 1.343 . S
C2786 C2787 1.390 . S
C2786 H2788 0.931 . S
C2787 C2785 1.321 1_455 S
C2787 C2786 1.390 . S
C2787 H2789 0.930 . S
H2788 C2786 0.931 . S
H2789 C2787 0.930 . S
H2790 C2813 0.931 . S
H2791 C2779 0.929 . S
H2792 C2814 0.930 . S
H2793 C2785 0.931 . S
H2794 C2775 0.930 . S
H2795 C2804 0.929 . S
H2796 C2780 0.931 . S
H2797 C2781 0.930 . S
H2798 C2836 0.930 . S
H2799 C2777 0.929 . S
H2800 C2805 0.931 . S
H2801 C2806 0.930 . S
N2802 Gd2782 2.622 . S
N2802 C2803 1.369 . S
N2802 C2804 1.338 . S
C2803 N2802 1.369 . S
C2803 C2807 1.415 . S
C2803 C2810 1.422 . S
C2804 H2795 0.929 . S
C2804 N2802 1.338 . S
C2804 C2806 1.378 . S
C2805 H2800 0.931 . S
C2805 C2806 1.348 . S
C2805 C2807 1.413 . S
C2806 H2801 0.930 . S
C2806 C2804 1.378 . S
C2806 C2805 1.348 . S
C2807 C2803 1.415 . S
C2807 C2805 1.413 . S
C2807 C2837 1.437 . S
H2808 C2837 0.929 . S
N2809 Gd2782 2.570 . S
N2809 C2810 1.359 . S
N2809 C2813 1.343 . S
C2810 C2803 1.422 . S
C2810 N2809 1.359 . S
C2810 C2812 1.421 . S
C2811 C2812 1.422 . S
C2811 C2814 1.321 . S
C2811 H2838 0.931 . S
C2812 C2810 1.421 . S
C2812 C2811 1.422 . S
C2812 C2836 1.417 . S
C2813 H2790 0.931 . S
C2813 N2809 1.343 . S
C2813 C2814 1.390 . S
C2814 H2792 0.930 . S
C2814 C2811 1.321 . S
C2814 C2813 1.390 . S
O2815 Gd2783 2.386 1_655 S
O2815 C2827 1.265 . S
O2816 Gd2782 2.353 . S
O2816 C2827 1.242 1_455 S
O2817 Gd2782 2.468 . S
O2817 C2835 1.263 . S
O2818 Gd2782 2.427 . S
O2818 C2835 1.252 . S
O2819 Gd2783 2.307 . S
O2819 C2828 1.261 . S
O2820 Gd2782 2.388 . S
O2820 C2828 1.252 . S
O2821 Gd2782 2.386 . S
O2821 C2839 1.265 . S
O2822 Gd2783 2.353 . S
O2822 C2839 1.242 . S
O2823 Gd2783 2.468 . S
O2823 C2847 1.263 . S
O2824 Gd2783 2.427 . S
O2824 C2847 1.252 . S
O2825 Gd2782 2.307 . S
O2825 C2840 1.261 1_455 S
O2826 Gd2783 2.388 1_655 S
O2826 C2840 1.252 . S
C2827 O2815 1.265 . S
C2827 O2816 1.242 1_655 S
C2828 O2819 1.261 . S
C2828 O2820 1.252 . S
C2829 C2832 1.394 . S
C2829 C2834 1.370 1_455 S
C2829 C2835 1.500 . S
C2830 C2833 1.383 . S
C2830 C2834 1.395 . S
C2831 C2832 1.396 . S
C2831 C2833 1.365 1_455 S
C2831 H2848 0.929 . S
C2832 C2829 1.394 . S
C2832 C2831 1.396 . S
C2832 H2849 0.930 . S
C2833 C2830 1.383 . S
C2833 C2831 1.365 1_655 S
C2833 H2850 0.931 . S
C2834 C2829 1.370 1_655 S
C2834 C2830 1.395 . S
C2834 H2851 0.930 . S
C2835 Gd2782 2.805 . S
C2835 O2817 1.263 . S
C2835 O2818 1.252 . S
C2835 C2829 1.500 . S
C2836 H2798 0.930 . S
C2836 C2812 1.417 . S
C2836 C2837 1.329 . S
C2837 C2807 1.437 . S
C2837 H2808 0.929 . S
C2837 C2836 1.329 . S
H2838 C2811 0.931 . S
C2839 O2821 1.265 . S
C2839 O2822 1.242 . S
C2840 O2825 1.261 1_655 S
C2840 O2826 1.252 . S
C2841 C2844 1.394 . S
C2841 C2846 1.370 . S
C2841 C2847 1.500 . S
C2842 C2845 1.383 . S
C2842 C2846 1.395 . S
C2843 C2844 1.396 . S
C2843 C2845 1.365 . S
C2843 H2852 0.929 . S
C2844 C2841 1.394 . S
C2844 C2843 1.396 . S
C2844 H2853 0.930 . S
C2845 C2842 1.383 . S
C2845 C2843 1.365 . S
C2845 H2854 0.931 . S
C2846 C2841 1.370 . S
C2846 C2842 1.395 . S
C2846 H2855 0.930 . S
C2847 Gd2783 2.805 . S
C2847 O2823 1.263 . S
C2847 O2824 1.252 . S
C2847 C2841 1.500 . S
H2848 C2831 0.929 . S
H2849 C2832 0.930 . S
H2850 C2833 0.931 . S
H2851 C2834 0.930 . S
H2852 C2843 0.929 . S
H2853 C2844 0.930 . S
H2854 C2845 0.931 . S
H2855 C2846 0.930 . S
C2856 C2858 1.422 . S
C2856 C2860 1.415 . S
C2856 N2862 1.369 . S
C2857 C2858 1.421 . S
C2857 C2859 1.417 . S
C2857 C2869 1.422 . S
C2858 C2856 1.422 . S
C2858 C2857 1.421 . S
C2858 N2868 1.359 . S
C2859 C2857 1.417 . S
C2859 C2861 1.329 . S
C2859 H2878 0.930 . S
C2860 C2856 1.415 . S
C2860 C2861 1.437 . S
C2860 C2864 1.413 . S
C2861 C2859 1.329 . S
C2861 C2860 1.437 . S
C2861 H2883 0.929 . S
N2862 C2856 1.369 . S
N2862 C2863 1.338 . S
N2862 Gd2867 2.622 . S
C2863 N2862 1.338 . S
C2863 C2865 1.378 . S
C2863 H2875 0.929 . S
C2864 C2860 1.413 . S
C2864 C2865 1.348 . S
C2864 H2880 0.931 . S
C2865 C2863 1.378 . S
C2865 C2864 1.348 . S
C2865 H2881 0.930 . S
Gd2866 N2886 2.622 . S
Gd2866 N2893 2.570 . S
Gd2866 O2900 2.353 . S
Gd2866 O2901 2.468 . S
Gd2866 O2902 2.427 . S
Gd2866 O2904 2.388 . S
Gd2866 O2905 2.386 . S
Gd2866 O2909 2.307 . S
Gd2866 C2919 2.805 . S
Gd2867 N2862 2.622 . S
Gd2867 N2868 2.570 . S
Gd2867 O2899 2.386 . S
Gd2867 O2903 2.307 . S
Gd2867 O2906 2.353 . S
Gd2867 O2907 2.468 . S
Gd2867 O2908 2.427 . S
Gd2867 O2910 2.388 . S
Gd2867 C2931 2.805 . S
N2868 C2858 1.359 . S
N2868 Gd2867 2.570 . S
N2868 C2870 1.343 . S
C2869 C2857 1.422 . S
C2869 C2871 1.321 . S
C2869 H2877 0.931 . S
C2870 N2868 1.343 . S
C2870 C2871 1.390 . S
C2870 H2872 0.931 . S
C2871 C2869 1.321 . S
C2871 C2870 1.390 . S
C2871 H2873 0.930 . S
H2872 C2870 0.931 . S
H2873 C2871 0.930 . S
H2874 C2897 0.931 . S
H2875 C2863 0.929 . S
H2876 C2898 0.930 . S
H2877 C2869 0.931 . S
H2878 C2859 0.930 . S
H2879 C2888 0.929 . S
H2880 C2864 0.931 . S
H2881 C2865 0.930 . S
H2882 C2920 0.930 . S
H2883 C2861 0.929 . S
H2884 C2889 0.931 . S
H2885 C2890 0.930 . S
N2886 Gd2866 2.622 . S
N2886 C2887 1.369 . S
N2886 C2888 1.338 . S
C2887 N2886 1.369 . S
C2887 C2891 1.415 . S
C2887 C2894 1.422 . S
C2888 H2879 0.929 . S
C2888 N2886 1.338 . S
C2888 C2890 1.378 . S
C2889 H2884 0.931 . S
C2889 C2890 1.348 . S
C2889 C2891 1.413 . S
C2890 H2885 0.930 . S
C2890 C2888 1.378 . S
C2890 C2889 1.348 . S
C2891 C2887 1.415 . S
C2891 C2889 1.413 . S
C2891 C2921 1.437 . S
H2892 C2921 0.929 . S
N2893 Gd2866 2.570 . S
N2893 C2894 1.359 . S
N2893 C2897 1.343 . S
C2894 C2887 1.422 . S
C2894 N2893 1.359 . S
C2894 C2896 1.421 . S
C2895 C2896 1.422 . S
C2895 C2898 1.321 . S
C2895 H2922 0.931 . S
C2896 C2894 1.421 . S
C2896 C2895 1.422 . S
C2896 C2920 1.417 . S
C2897 H2874 0.931 . S
C2897 N2893 1.343 . S
C2897 C2898 1.390 . S
C2898 H2876 0.930 . S
C2898 C2895 1.321 . S
C2898 C2897 1.390 . S
O2899 Gd2867 2.386 . S
O2899 C2911 1.265 . S
O2900 Gd2866 2.353 . S
O2900 C2911 1.242 . S
O2901 Gd2866 2.468 . S
O2901 C2919 1.263 . S
O2902 Gd2866 2.427 . S
O2902 C2919 1.252 . S
O2903 Gd2867 2.307 . S
O2903 C2912 1.261 . S
O2904 Gd2866 2.388 . S
O2904 C2912 1.252 . S
O2905 Gd2866 2.386 . S
O2905 C2923 1.265 . S
O2906 Gd2867 2.353 . S
O2906 C2923 1.242 . S
O2907 Gd2867 2.468 . S
O2907 C2931 1.263 . S
O2908 Gd2867 2.427 . S
O2908 C2931 1.252 . S
O2909 Gd2866 2.307 . S
O2909 C2924 1.261 . S
O2910 Gd2867 2.388 . S
O2910 C2924 1.252 . S
C2911 O2899 1.265 . S
C2911 O2900 1.242 . S
C2912 O2903 1.261 . S
C2912 O2904 1.252 . S
C2913 C2916 1.394 . S
C2913 C2918 1.370 . S
C2913 C2919 1.500 . S
C2914 C2917 1.383 . S
C2914 C2918 1.395 . S
C2915 C2916 1.396 . S
C2915 C2917 1.365 . S
C2915 H2932 0.929 . S
C2916 C2913 1.394 . S
C2916 C2915 1.396 . S
C2916 H2933 0.930 . S
C2917 C2914 1.383 . S
C2917 C2915 1.365 . S
C2917 H2934 0.931 . S
C2918 C2913 1.370 . S
C2918 C2914 1.395 . S
C2918 H2935 0.930 . S
C2919 Gd2866 2.805 . S
C2919 O2901 1.263 . S
C2919 O2902 1.252 . S
C2919 C2913 1.500 . S
C2920 H2882 0.930 . S
C2920 C2896 1.417 . S
C2920 C2921 1.329 . S
C2921 C2891 1.437 . S
C2921 H2892 0.929 . S
C2921 C2920 1.329 . S
H2922 C2895 0.931 . S
C2923 O2905 1.265 . S
C2923 O2906 1.242 . S
C2924 O2909 1.261 . S
C2924 O2910 1.252 . S
C2925 C2928 1.394 . S
C2925 C2930 1.370 . S
C2925 C2931 1.500 . S
C2926 C2929 1.383 . S
C2926 C2930 1.395 . S
C2927 C2928 1.396 . S
C2927 C2929 1.365 . S
C2927 H2936 0.929 . S
C2928 C2925 1.394 . S
C2928 C2927 1.396 . S
C2928 H2937 0.930 . S
C2929 C2926 1.383 . S
C2929 C2927 1.365 . S
C2929 H2938 0.931 . S
C2930 C2925 1.370 . S
C2930 C2926 1.395 . S
C2930 H2939 0.930 . S
C2931 Gd2867 2.805 . S
C2931 O2907 1.263 . S
C2931 O2908 1.252 . S
C2931 C2925 1.500 . S
H2932 C2915 0.929 . S
H2933 C2916 0.930 . S
H2934 C2917 0.931 . S
H2935 C2918 0.930 . S
H2936 C2927 0.929 . S
H2937 C2928 0.930 . S
H2938 C2929 0.931 . S
H2939 C2930 0.930 . S
C2940 C2942 1.422 . S
C2940 C2944 1.415 . S
C2940 N2946 1.369 . S
C2941 C2942 1.421 . S
C2941 C2943 1.417 . S
C2941 C2953 1.422 . S
C2942 C2940 1.422 . S
C2942 C2941 1.421 . S
C2942 N2952 1.359 1_545 S
C2943 C2941 1.417 . S
C2943 C2945 1.329 . S
C2943 H2962 0.930 . S
C2944 C2940 1.415 . S
C2944 C2945 1.437 . S
C2944 C2948 1.413 . S
C2945 C2943 1.329 . S
C2945 C2944 1.437 . S
C2945 H2967 0.929 . S
N2946 C2940 1.369 . S
N2946 C2947 1.338 . S
N2946 Gd2951 2.622 1_545 S
C2947 N2946 1.338 . S
C2947 C2949 1.378 . S
C2947 H2959 0.929 . S
C2948 C2944 1.413 . S
C2948 C2949 1.348 . S
C2948 H2964 0.931 . S
C2949 C2947 1.378 . S
C2949 C2948 1.348 . S
C2949 H2965 0.930 . S
Gd2950 N2970 2.622 . S
Gd2950 N2977 2.570 . S
Gd2950 O2984 2.353 . S
Gd2950 O2985 2.468 . S
Gd2950 O2986 2.427 . S
Gd2950 O2988 2.388 . S
Gd2950 O2989 2.386 . S
Gd2950 O2993 2.307 . S
Gd2950 C3003 2.805 . S
Gd2951 N2946 2.622 1_565 S
Gd2951 N2952 2.570 . S
Gd2951 O2983 2.386 1_565 S
Gd2951 O2987 2.307 . S
Gd2951 O2990 2.353 . S
Gd2951 O2991 2.468 . S
Gd2951 O2992 2.427 . S
Gd2951 O2994 2.388 1_565 S
Gd2951 C3015 2.805 . S
N2952 C2942 1.359 1_565 S
N2952 Gd2951 2.570 . S
N2952 C2954 1.343 . S
C2953 C2941 1.422 . S
C2953 C2955 1.321 1_545 S
C2953 H2961 0.931 . S
C2954 N2952 1.343 . S
C2954 C2955 1.390 . S
C2954 H2956 0.931 . S
C2955 C2953 1.321 1_565 S
C2955 C2954 1.390 . S
C2955 H2957 0.930 . S
H2956 C2954 0.931 . S
H2957 C2955 0.930 . S
H2958 C2981 0.931 . S
H2959 C2947 0.929 . S
H2960 C2982 0.930 . S
H2961 C2953 0.931 . S
H2962 C2943 0.930 . S
H2963 C2972 0.929 . S
H2964 C2948 0.931 . S
H2965 C2949 0.930 . S
H2966 C3004 0.930 . S
H2967 C2945 0.929 . S
H2968 C2973 0.931 . S
H2969 C2974 0.930 . S
N2970 Gd2950 2.622 . S
N2970 C2971 1.369 . S
N2970 C2972 1.338 . S
C2971 N2970 1.369 . S
C2971 C2975 1.415 . S
C2971 C2978 1.422 . S
C2972 H2963 0.929 . S
C2972 N2970 1.338 . S
C2972 C2974 1.378 . S
C2973 H2968 0.931 . S
C2973 C2974 1.348 . S
C2973 C2975 1.413 . S
C2974 H2969 0.930 . S
C2974 C2972 1.378 . S
C2974 C2973 1.348 . S
C2975 C2971 1.415 . S
C2975 C2973 1.413 . S
C2975 C3005 1.437 . S
H2976 C3005 0.929 . S
N2977 Gd2950 2.570 . S
N2977 C2978 1.359 . S
N2977 C2981 1.343 . S
C2978 C2971 1.422 . S
C2978 N2977 1.359 . S
C2978 C2980 1.421 . S
C2979 C2980 1.422 . S
C2979 C2982 1.321 . S
C2979 H3006 0.931 . S
C2980 C2978 1.421 . S
C2980 C2979 1.422 . S
C2980 C3004 1.417 . S
C2981 H2958 0.931 . S
C2981 N2977 1.343 . S
C2981 C2982 1.390 . S
C2982 H2960 0.930 . S
C2982 C2979 1.321 . S
C2982 C2981 1.390 . S
O2983 Gd2951 2.386 1_545 S
O2983 C2995 1.265 . S
O2984 Gd2950 2.353 . S
O2984 C2995 1.242 1_565 S
O2985 Gd2950 2.468 . S
O2985 C3003 1.263 . S
O2986 Gd2950 2.427 . S
O2986 C3003 1.252 . S
O2987 Gd2951 2.307 . S
O2987 C2996 1.261 . S
O2988 Gd2950 2.388 . S
O2988 C2996 1.252 . S
O2989 Gd2950 2.386 . S
O2989 C3007 1.265 . S
O2990 Gd2951 2.353 . S
O2990 C3007 1.242 . S
O2991 Gd2951 2.468 . S
O2991 C3015 1.263 . S
O2992 Gd2951 2.427 . S
O2992 C3015 1.252 . S
O2993 Gd2950 2.307 . S
O2993 C3008 1.261 1_565 S
O2994 Gd2951 2.388 1_545 S
O2994 C3008 1.252 . S
C2995 O2983 1.265 . S
C2995 O2984 1.242 1_545 S
C2996 O2987 1.261 . S
C2996 O2988 1.252 . S
C2997 C3000 1.394 . S
C2997 C3002 1.370 1_565 S
C2997 C3003 1.500 . S
C2998 C3001 1.383 . S
C2998 C3002 1.395 . S
C2999 C3000 1.396 . S
C2999 C3001 1.365 1_565 S
C2999 H3016 0.929 . S
C3000 C2997 1.394 . S
C3000 C2999 1.396 . S
C3000 H3017 0.930 . S
C3001 C2998 1.383 . S
C3001 C2999 1.365 1_545 S
C3001 H3018 0.931 . S
C3002 C2997 1.370 1_545 S
C3002 C2998 1.395 . S
C3002 H3019 0.930 . S
C3003 Gd2950 2.805 . S
C3003 O2985 1.263 . S
C3003 O2986 1.252 . S
C3003 C2997 1.500 . S
C3004 H2966 0.930 . S
C3004 C2980 1.417 . S
C3004 C3005 1.329 . S
C3005 C2975 1.437 . S
C3005 H2976 0.929 . S
C3005 C3004 1.329 . S
H3006 C2979 0.931 . S
C3007 O2989 1.265 . S
C3007 O2990 1.242 . S
C3008 O2993 1.261 1_545 S
C3008 O2994 1.252 . S
C3009 C3012 1.394 . S
C3009 C3014 1.370 . S
C3009 C3015 1.500 . S
C3010 C3013 1.383 . S
C3010 C3014 1.395 . S
C3011 C3012 1.396 . S
C3011 C3013 1.365 . S
C3011 H3020 0.929 . S
C3012 C3009 1.394 . S
C3012 C3011 1.396 . S
C3012 H3021 0.930 . S
C3013 C3010 1.383 . S
C3013 C3011 1.365 . S
C3013 H3022 0.931 . S
C3014 C3009 1.370 . S
C3014 C3010 1.395 . S
C3014 H3023 0.930 . S
C3015 Gd2951 2.805 . S
C3015 O2991 1.263 . S
C3015 O2992 1.252 . S
C3015 C3009 1.500 . S
H3016 C2999 0.929 . S
H3017 C3000 0.930 . S
H3018 C3001 0.931 . S
H3019 C3002 0.930 . S
H3020 C3011 0.929 . S
H3021 C3012 0.930 . S
H3022 C3013 0.931 . S
H3023 C3014 0.930 . S
C68 C223 1.973 . S
C55 C152 1.972 . S
C236 C139 1.972 . S
C320 C391 2.087 . S
C475 C404 2.084 . S
C488 C307 2.085 . S
C560 C739 1.973 . S
C644 C571 1.972 . S
C728 C655 1.972 . S
C812 C907 2.087 . S
C991 C896 2.084 . S
C823 C980 2.085 . S
C1231 C1076 2.068 . S
C1160 C1063 2.066 . S
C1147 C1244 2.068 . S
C1328 C1399 2.100 . S
C1483 C1412 2.098 . S
C1315 C1496 2.098 . S
C1568 C1747 2.014 . S
C1652 C1579 2.012 . S
C1663 C1736 2.013 . S
C1915 C1820 1.775 . S
C1904 C1999 1.778 . S
C1831 C1988 1.775 . S
C2084 C2239 2.014 . S
C2168 C2071 2.012 . S
C2252 C2155 2.013 . S
C2336 C2407 1.775 . S
C2420 C2491 1.778 . S
C2504 C2323 1.774 . S
C2576 C2755 2.068 . S
C2660 C2587 2.066 . S
C2671 C2744 2.068 . S
C2828 C2923 2.100 . S
C2912 C3007 2.098 . S
C2839 C2996 2.098 . S
C67 C1748 2.161 . S
C1580 C151 2.163 . S
C235 C1664 2.163 . S
C319 C2924 2.043 . S
C3008 C403 2.045 . S
C487 C2840 2.045 . S
C2240 C559 2.161 . S
C643 C2072 2.163 . S
C727 C2156 2.163 . S
C1400 C811 2.043 . S
C1484 C895 2.045 . S
C1316 C979 2.045 . S
C1075 C2756 2.110 1_655 S
C1159 C2588 2.112 . S
C2672 C1243 2.113 1_565 S
C908 C1327 2.107 . S
C992 C1411 2.108 . S
C824 C1495 2.109 . S
C224 C1567 2.165 . S
C1651 C56 2.169 . S
C1735 C140 2.167 . S
C2408 C1819 2.301 1_564 S
C2492 C1903 2.303 1_454 S
C1987 C2324 2.303 1_556 S
C740 C2083 2.165 . S
C572 C2167 2.169 . S
C656 C2251 2.167 . S
C2335 C1916 2.301 1_564 S
C2000 C2419 2.303 1_656 S
C2503 C1832 2.303 1_554 S
C2575 C1232 2.110 1_455 S
C2659 C1064 2.112 . S
C2743 C1148 2.113 1_565 S
C2827 C392 2.107 . S
C476 C2911 2.108 . S
C308 C2995 2.109 . S
C2506 C70 2.729 . S
C2338 C154 2.728 . S
C238 C2422 2.727 . S
C1162 C322 2.831 . S
C406 C1246 2.833 . S
C490 C1078 2.832 . S
C562 C1990 2.729 . S
C646 C1822 2.728 . S
C730 C1906 2.727 . S
C2662 C814 2.831 . S
C2746 C898 2.833 . S
C2578 C982 2.832 . S
C1330 C2170 2.821 1_455 S
C1414 C2254 2.820 . S
C1498 C2086 2.819 1_565 S
C1570 C2998 2.820 1_565 S
C2830 C1654 2.821 1_655 S
C1738 C2914 2.820 . S
C394 C58 0.830 1_655 S
C478 C142 0.828 . S
C310 C226 0.827 1_545 S
C574 C910 0.830 1_655 S
C994 C658 0.828 . S
C742 C826 0.827 1_545 S
C1402 C1066 0.872 . S
C1486 C1150 0.875 . S
C1318 C1234 0.874 . S
C1918 C1582 1.088 . S
C1666 C2002 1.088 . S
C1750 C1834 1.090 . S
C2074 C2410 1.088 . S
C2494 C2158 1.088 . S
C2242 C2326 1.090 . S
C2590 C2926 0.872 . S
C3010 C2674 0.875 . S
C2758 C2842 0.874 . S
