# Generated by pormake.
# Topology ukc, (4)-cn, num edge types: 1
# Building blocks:
#     Node 0, Type 0, BuildingBlock: ICAMEG_clean_sbu_1, # of connection points: 4
#     Node 1, Type 0, BuildingBlock: ICAMEG_clean_sbu_1, # of connection points: 4
#     Node 2, Type 0, BuildingBlock: ICAMEG_clean_sbu_1, # of connection points: 4
#     Node 3, Type 0, BuildingBlock: ICAMEG_clean_sbu_1, # of connection points: 4
#     Node 4, Type 0, BuildingBlock: ICAMEG_clean_sbu_1, # of connection points: 4
#     Node 5, Type 0, BuildingBlock: ICAMEG_clean_sbu_1, # of connection points: 4
#     Node 6, Type 0, BuildingBlock: ICAMEG_clean_sbu_1, # of connection points: 4
#     Node 7, Type 0, BuildingBlock: ICAMEG_clean_sbu_1, # of connection points: 4
#     Node 8, Type 0, BuildingBlock: ICAMEG_clean_sbu_1, # of connection points: 4
#     Node 9, Type 0, BuildingBlock: ICAMEG_clean_sbu_1, # of connection points: 4
#     Node 10, Type 0, BuildingBlock: ICAMEG_clean_sbu_1, # of connection points: 4
#     Node 11, Type 0, BuildingBlock: ICAMEG_clean_sbu_1, # of connection points: 4
#     Node 12, Type 0, BuildingBlock: ICAMEG_clean_sbu_1, # of connection points: 4
#     Node 13, Type 0, BuildingBlock: ICAMEG_clean_sbu_1, # of connection points: 4
#     Node 14, Type 0, BuildingBlock: ICAMEG_clean_sbu_1, # of connection points: 4
#     Node 15, Type 0, BuildingBlock: ICAMEG_clean_sbu_1, # of connection points: 4
#     Node 16, Type 0, BuildingBlock: ICAMEG_clean_sbu_1, # of connection points: 4
#     Node 17, Type 0, BuildingBlock: ICAMEG_clean_sbu_1, # of connection points: 4
#     Node 18, Type 0, BuildingBlock: ICAMEG_clean_sbu_1, # of connection points: 4
#     Node 19, Type 0, BuildingBlock: ICAMEG_clean_sbu_1, # of connection points: 4
#     Node 20, Type 0, BuildingBlock: ICAMEG_clean_sbu_1, # of connection points: 4
#     Node 21, Type 0, BuildingBlock: ICAMEG_clean_sbu_1, # of connection points: 4
#     Node 22, Type 0, BuildingBlock: ICAMEG_clean_sbu_1, # of connection points: 4
#     Node 23, Type 0, BuildingBlock: ICAMEG_clean_sbu_1, # of connection points: 4
#     Node 24, Type 0, BuildingBlock: ICAMEG_clean_sbu_1, # of connection points: 4
#     Node 25, Type 0, BuildingBlock: ICAMEG_clean_sbu_1, # of connection points: 4
#     Node 26, Type 0, BuildingBlock: ICAMEG_clean_sbu_1, # of connection points: 4
#     Node 27, Type 0, BuildingBlock: ICAMEG_clean_sbu_1, # of connection points: 4
#     Node 28, Type 0, BuildingBlock: ICAMEG_clean_sbu_1, # of connection points: 4
#     Node 29, Type 0, BuildingBlock: ICAMEG_clean_sbu_1, # of connection points: 4
#     Node 30, Type 0, BuildingBlock: ICAMEG_clean_sbu_1, # of connection points: 4
#     Node 31, Type 0, BuildingBlock: ICAMEG_clean_sbu_1, # of connection points: 4
#     Edge 32, Type (0, 0), BuildingBlock: AJUNOK_clean_linker_0, # of connection points: 2
#     Edge 33, Type (0, 0), BuildingBlock: AJUNOK_clean_linker_0, # of connection points: 2
#     Edge 34, Type (0, 0), BuildingBlock: AJUNOK_clean_linker_0, # of connection points: 2
#     Edge 35, Type (0, 0), BuildingBlock: AJUNOK_clean_linker_0, # of connection points: 2
#     Edge 36, Type (0, 0), BuildingBlock: AJUNOK_clean_linker_0, # of connection points: 2
#     Edge 37, Type (0, 0), BuildingBlock: AJUNOK_clean_linker_0, # of connection points: 2
#     Edge 38, Type (0, 0), BuildingBlock: AJUNOK_clean_linker_0, # of connection points: 2
#     Edge 39, Type (0, 0), BuildingBlock: AJUNOK_clean_linker_0, # of connection points: 2
#     Edge 40, Type (0, 0), BuildingBlock: AJUNOK_clean_linker_0, # of connection points: 2
#     Edge 41, Type (0, 0), BuildingBlock: AJUNOK_clean_linker_0, # of connection points: 2
#     Edge 42, Type (0, 0), BuildingBlock: AJUNOK_clean_linker_0, # of connection points: 2
#     Edge 43, Type (0, 0), BuildingBlock: AJUNOK_clean_linker_0, # of connection points: 2
#     Edge 44, Type (0, 0), BuildingBlock: AJUNOK_clean_linker_0, # of connection points: 2
#     Edge 45, Type (0, 0), BuildingBlock: AJUNOK_clean_linker_0, # of connection points: 2
#     Edge 46, Type (0, 0), BuildingBlock: AJUNOK_clean_linker_0, # of connection points: 2
#     Edge 47, Type (0, 0), BuildingBlock: AJUNOK_clean_linker_0, # of connection points: 2
#     Edge 48, Type (0, 0), BuildingBlock: AJUNOK_clean_linker_0, # of connection points: 2
#     Edge 49, Type (0, 0), BuildingBlock: AJUNOK_clean_linker_0, # of connection points: 2
#     Edge 50, Type (0, 0), BuildingBlock: AJUNOK_clean_linker_0, # of connection points: 2
#     Edge 51, Type (0, 0), BuildingBlock: AJUNOK_clean_linker_0, # of connection points: 2
#     Edge 52, Type (0, 0), BuildingBlock: AJUNOK_clean_linker_0, # of connection points: 2
#     Edge 53, Type (0, 0), BuildingBlock: AJUNOK_clean_linker_0, # of connection points: 2
#     Edge 54, Type (0, 0), BuildingBlock: AJUNOK_clean_linker_0, # of connection points: 2
#     Edge 55, Type (0, 0), BuildingBlock: AJUNOK_clean_linker_0, # of connection points: 2
#     Edge 56, Type (0, 0), BuildingBlock: AJUNOK_clean_linker_0, # of connection points: 2
#     Edge 57, Type (0, 0), BuildingBlock: AJUNOK_clean_linker_0, # of connection points: 2
#     Edge 58, Type (0, 0), BuildingBlock: AJUNOK_clean_linker_0, # of connection points: 2
#     Edge 59, Type (0, 0), BuildingBlock: AJUNOK_clean_linker_0, # of connection points: 2
#     Edge 60, Type (0, 0), BuildingBlock: AJUNOK_clean_linker_0, # of connection points: 2
#     Edge 61, Type (0, 0), BuildingBlock: AJUNOK_clean_linker_0, # of connection points: 2
#     Edge 62, Type (0, 0), BuildingBlock: AJUNOK_clean_linker_0, # of connection points: 2
#     Edge 63, Type (0, 0), BuildingBlock: AJUNOK_clean_linker_0, # of connection points: 2
#     Edge 64, Type (0, 0), BuildingBlock: AJUNOK_clean_linker_0, # of connection points: 2
#     Edge 65, Type (0, 0), BuildingBlock: AJUNOK_clean_linker_0, # of connection points: 2
#     Edge 66, Type (0, 0), BuildingBlock: AJUNOK_clean_linker_0, # of connection points: 2
#     Edge 67, Type (0, 0), BuildingBlock: AJUNOK_clean_linker_0, # of connection points: 2
#     Edge 68, Type (0, 0), BuildingBlock: AJUNOK_clean_linker_0, # of connection points: 2
#     Edge 69, Type (0, 0), BuildingBlock: AJUNOK_clean_linker_0, # of connection points: 2
#     Edge 70, Type (0, 0), BuildingBlock: AJUNOK_clean_linker_0, # of connection points: 2
#     Edge 71, Type (0, 0), BuildingBlock: AJUNOK_clean_linker_0, # of connection points: 2
#     Edge 72, Type (0, 0), BuildingBlock: AJUNOK_clean_linker_0, # of connection points: 2
#     Edge 73, Type (0, 0), BuildingBlock: AJUNOK_clean_linker_0, # of connection points: 2
#     Edge 74, Type (0, 0), BuildingBlock: AJUNOK_clean_linker_0, # of connection points: 2
#     Edge 75, Type (0, 0), BuildingBlock: AJUNOK_clean_linker_0, # of connection points: 2
#     Edge 76, Type (0, 0), BuildingBlock: AJUNOK_clean_linker_0, # of connection points: 2
#     Edge 77, Type (0, 0), BuildingBlock: AJUNOK_clean_linker_0, # of connection points: 2
#     Edge 78, Type (0, 0), BuildingBlock: AJUNOK_clean_linker_0, # of connection points: 2
#     Edge 79, Type (0, 0), BuildingBlock: AJUNOK_clean_linker_0, # of connection points: 2
#     Edge 80, Type (0, 0), BuildingBlock: AJUNOK_clean_linker_0, # of connection points: 2
#     Edge 81, Type (0, 0), BuildingBlock: AJUNOK_clean_linker_0, # of connection points: 2
#     Edge 82, Type (0, 0), BuildingBlock: AJUNOK_clean_linker_0, # of connection points: 2
#     Edge 83, Type (0, 0), BuildingBlock: AJUNOK_clean_linker_0, # of connection points: 2
#     Edge 84, Type (0, 0), BuildingBlock: AJUNOK_clean_linker_0, # of connection points: 2
#     Edge 85, Type (0, 0), BuildingBlock: AJUNOK_clean_linker_0, # of connection points: 2
#     Edge 86, Type (0, 0), BuildingBlock: AJUNOK_clean_linker_0, # of connection points: 2
#     Edge 87, Type (0, 0), BuildingBlock: AJUNOK_clean_linker_0, # of connection points: 2
#     Edge 88, Type (0, 0), BuildingBlock: AJUNOK_clean_linker_0, # of connection points: 2
#     Edge 89, Type (0, 0), BuildingBlock: AJUNOK_clean_linker_0, # of connection points: 2
#     Edge 90, Type (0, 0), BuildingBlock: AJUNOK_clean_linker_0, # of connection points: 2
#     Edge 91, Type (0, 0), BuildingBlock: AJUNOK_clean_linker_0, # of connection points: 2
#     Edge 92, Type (0, 0), BuildingBlock: AJUNOK_clean_linker_0, # of connection points: 2
#     Edge 93, Type (0, 0), BuildingBlock: AJUNOK_clean_linker_0, # of connection points: 2
#     Edge 94, Type (0, 0), BuildingBlock: AJUNOK_clean_linker_0, # of connection points: 2
#     Edge 95, Type (0, 0), BuildingBlock: AJUNOK_clean_linker_0, # of connection points: 2
# Relax obj value: 0.064
# Max RMSD: 0.144
# Mean RMSD: 0.144
data_MOF--net-ukc--node1-ICAMEG_clean_sbu_1--edge1-AJUNOK_clean_linker_0
_symmetry_space_group_name_H-M    P1
_symmetry_Int_Tables_number       1
_symmetry_cell_setting            triclinic
loop_
_symmetry_equiv_pos_as_xyz
'x, y, z'
_cell_length_a     36.217504
_cell_length_b     36.258241
_cell_length_c     66.891168
_cell_angle_alpha  90.008285
_cell_angle_beta   89.980835
_cell_angle_gamma 89.923088
loop_
_atom_site_label
_atom_site_type_symbol
_atom_site_fract_x
_atom_site_fract_y
_atom_site_fract_z
_atom_type_partial_charge
Co0 Co 0.06662 0.40926 0.06716 0.0
Co1 Co 0.13912 0.35621 0.05272 0.0
O2 O 0.10995 0.40183 0.0496 0.0
C3 C 0.04191 0.44198 0.02798 0.0
O4 O 0.05779 0.4155 0.01771 0.0
C5 C 0.19569 0.41188 0.03613 0.0
O6 O 0.17191 0.43924 0.03586 0.0
O7 O 0.1486 0.37024 0.08148 0.0
O8 O 0.08927 0.37962 0.08873 0.0
H9 H 0.17914 0.243 0.09029 0.0
H10 H 0.10557 0.47345 0.0497 0.0
O11 O 0.04212 0.44128 0.04691 0.0
H12 H 0.10763 0.49421 0.12255 0.0
H13 H 0.96238 0.48107 0.09873 0.0
H14 H 0.02315 0.35971 0.09351 0.0
H15 H 0.07726 0.43927 0.10847 0.0
H16 H 0.0172 0.47291 0.07736 0.0
O17 O 0.18671 0.38093 0.0439 0.0
H18 H 0.14264 0.29939 0.0845 0.0
H19 H 0.1979 0.31703 0.02932 0.0
H20 H 0.96867 0.3668 0.11518 0.0
H21 H 0.13596 0.52898 0.06314 0.0
H22 H 0.93784 0.42782 0.11792 0.0
H23 H 0.13719 0.53962 0.09982 0.0
O24 O 0.04406 0.36319 0.056 0.0
H25 H 0.12159 0.38175 0.97915 0.0
H26 H 0.11871 0.28645 0.03151 0.0
H27 H 0.10412 0.26941 0.99687 0.0
H28 H 0.10581 0.31718 0.97028 0.0
H29 H 0.13509 0.39768 0.01401 0.0
H30 H 0.2353 0.26105 0.03462 0.0
H31 H 0.22587 0.22344 0.06524 0.0
O32 O 0.09364 0.32748 0.06071 0.0
C33 C 0.12255 0.37533 0.09411 0.0
C34 C 0.18353 0.25915 0.0769 0.0
C35 C 0.21505 0.26928 0.04566 0.0
N36 N 0.16806 0.31155 0.05659 0.0
C37 C 0.16294 0.29115 0.07353 0.0
C38 C 0.19392 0.3011 0.0428 0.0
C39 C 0.20974 0.24819 0.06283 0.0
C40 C 0.10584 0.47795 0.06567 0.0
N41 N 0.0896 0.45313 0.07825 0.0
C42 C 0.12314 0.50943 0.0732 0.0
C43 C 0.12383 0.51537 0.09378 0.0
C44 C 0.10725 0.48992 0.10653 0.0
C45 C 0.09015 0.4588 0.09847 0.0
C46 C 0.97556 0.45433 0.09765 0.0
C47 C 1.01003 0.3864 0.0946 0.0
C48 C 1.00654 0.44948 0.08549 0.0
N49 N 0.02351 0.41585 0.08414 0.0
C50 C 0.97911 0.39022 0.10691 0.0
C51 C 0.96181 0.42446 0.10843 0.0
C52 C 0.05893 0.33126 0.05784 0.0
C53 C 0.12117 0.36058 0.99055 0.0
C54 C 0.11946 0.30749 0.02017 0.0
C55 C 0.11123 0.29762 1.00049 0.0
C56 C 0.1122 0.32439 0.98559 0.0
N57 N 0.12878 0.34296 0.02497 0.0
C58 C 0.12925 0.36939 1.0104 0.0
Co59 Co 0.87508 0.80889 0.31255 0.0
Co60 Co 0.9259 0.88516 0.30248 0.0
O61 O 0.88215 0.85458 0.29694 0.0
C62 C 0.83473 0.79604 0.27353 0.0
O63 O 0.84681 0.82716 0.26599 0.0
C64 C 0.86853 0.93973 0.28578 0.0
O65 O 0.8428 0.91435 0.28481 0.0
O66 O 0.90779 0.89071 0.33088 0.0
O67 O 0.9014 0.8303 0.33595 0.0
H68 H 0.03285 0.9252 0.34505 0.0
H69 H 0.81055 0.85113 0.29601 0.0
O70 O 0.84689 0.78452 0.29026 0.0
H71 H 0.78397 0.83546 0.36768 0.0
H72 H 0.80633 0.69717 0.33764 0.0
H73 H 0.92465 0.76417 0.33832 0.0
H74 H 0.84104 0.81018 0.35316 0.0
H75 H 0.81337 0.75519 0.31886 0.0
O76 O 0.89954 0.93235 0.29407 0.0
H77 H 0.97899 0.88713 0.33612 0.0
H78 H 0.96442 0.94841 0.28259 0.0
H79 H 0.91862 0.70657 0.35753 0.0
H80 H 0.75305 0.87624 0.30983 0.0
H81 H 0.85911 0.67259 0.35727 0.0
H82 H 0.7393 0.8686 0.34597 0.0
O83 O 0.92313 0.79029 0.30185 0.0
H84 H 0.91065 0.8758 0.22763 0.0
H85 H 0.99908 0.86998 0.2834 0.0
H86 H 0.02119 0.86018 0.24908 0.0
H87 H 0.97689 0.86333 0.2208 0.0
H88 H 0.88974 0.88472 0.26215 0.0
H89 H 0.01782 0.98747 0.29107 0.0
H90 H 0.05262 0.97581 0.32244 0.0
O91 O 0.95612 0.84008 0.31003 0.0
C92 C 0.90312 0.86312 0.34255 0.0
C93 C 0.01792 0.93057 0.33134 0.0
C94 C 1.00946 0.96554 0.30106 0.0
N95 N 0.96849 0.91553 0.30886 0.0
C96 C 0.98737 0.9091 0.3262 0.0
C97 C 0.97907 0.94348 0.2964 0.0
C98 C 0.02898 0.95897 0.31865 0.0
C99 C 0.80473 0.84687 0.31159 0.0
N100 N 0.82899 0.82816 0.32352 0.0
C101 C 0.77209 0.86151 0.31942 0.0
C102 C 0.76443 0.85729 0.33969 0.0
C103 C 0.78945 0.83868 0.35187 0.0
C104 C 0.82174 0.82433 0.3435 0.0
C105 C 0.83239 0.71174 0.33789 0.0
C106 C 0.89859 0.74976 0.33821 0.0
C107 C 0.83661 0.74456 0.32721 0.0
N108 N 0.86936 0.76331 0.32757 0.0
C109 C 0.89537 0.71704 0.34908 0.0
C110 C 0.862 0.69798 0.34891 0.0
C111 C 0.95416 0.80587 0.30538 0.0
C112 C 0.9303 0.87461 0.2398 0.0
C113 C 0.97951 0.87123 0.27131 0.0
C114 C 0.99226 0.86576 0.25183 0.0
C115 C 0.96743 0.86754 0.23598 0.0
N116 N 0.94307 0.87856 0.27501 0.0
C117 C 0.91858 0.87992 0.25949 0.0
Co118 Co 0.45644 0.61583 0.5643 0.0
Co119 Co 0.38026 0.66705 0.55376 0.0
O120 O 0.41091 0.62311 0.54852 0.0
C121 C 0.47068 0.57681 0.52506 0.0
O122 O 0.43972 0.58901 0.51732 0.0
C123 C 0.32531 0.60976 0.53736 0.0
O124 O 0.35052 0.58379 0.53632 0.0
O125 O 0.37436 0.64982 0.58227 0.0
O126 O 0.43466 0.6419 0.5876 0.0
H127 H 0.34007 0.7753 0.59536 0.0
H128 H 0.41521 0.55153 0.5471 0.0
O129 O 0.48134 0.58804 0.54211 0.0
H130 H 0.4281 0.52435 0.61887 0.0
H131 H 0.56768 0.54643 0.5898 0.0
H132 H 0.50076 0.66488 0.59052 0.0
H133 H 0.45369 0.58156 0.60481 0.0
H134 H 0.50994 0.55389 0.57074 0.0
O135 O 0.33305 0.64077 0.54549 0.0
H136 H 0.37807 0.721 0.58699 0.0
H137 H 0.31718 0.70525 0.53342 0.0
H138 H 0.55807 0.65843 0.60999 0.0
H139 H 0.38979 0.49388 0.56046 0.0
H140 H 0.59202 0.59886 0.60972 0.0
H141 H 0.39606 0.47983 0.59664 0.0
O142 O 0.47538 0.66381 0.55391 0.0
H143 H 0.3901 0.64983 0.47904 0.0
H144 H 0.39577 0.73955 0.53415 0.0
H145 H 0.40605 0.76068 0.49971 0.0
H146 H 0.40298 0.71572 0.47175 0.0
H147 H 0.38075 0.62992 0.51368 0.0
H148 H 0.27821 0.75909 0.54133 0.0
H149 H 0.28971 0.79469 0.57244 0.0
O150 O 0.42528 0.69716 0.5613 0.0
C151 C 0.40181 0.64496 0.59403 0.0
C152 C 0.33477 0.76001 0.58176 0.0
C153 C 0.30003 0.75089 0.55146 0.0
N154 N 0.34988 0.70989 0.55974 0.0
C155 C 0.3562 0.72921 0.57694 0.0
C156 C 0.32205 0.72026 0.54712 0.0
C157 C 0.30651 0.77087 0.5689 0.0
C158 C 0.41882 0.54557 0.56272 0.0
N159 N 0.43691 0.56973 0.57495 0.0
C160 C 0.40403 0.51286 0.57028 0.0
C161 C 0.40748 0.50503 0.59058 0.0
C162 C 0.42547 0.52996 0.60304 0.0
C163 C 0.43997 0.56235 0.59495 0.0
C164 C 0.55312 0.57251 0.59006 0.0
C165 C 0.51515 0.63879 0.59039 0.0
C166 C 0.52046 0.57697 0.57923 0.0
N167 N 0.50175 0.60976 0.57958 0.0
C168 C 0.5477 0.63534 0.60142 0.0
C169 C 0.56675 0.60193 0.60124 0.0
C170 C 0.45975 0.69488 0.55724 0.0
C171 C 0.3913 0.66977 0.49107 0.0
C172 C 0.39463 0.7197 0.52221 0.0
C173 C 0.40034 0.73189 0.50266 0.0
C174 C 0.3986 0.70669 0.48699 0.0
N175 N 0.38714 0.68345 0.52618 0.0
C176 C 0.38575 0.65862 0.51083 0.0
Co177 Co 0.65709 0.20922 0.81254 0.0
Co178 Co 0.60173 0.1375 0.79944 0.0
O179 O 0.64793 0.16555 0.79557 0.0
C180 C 0.69971 0.22486 0.77423 0.0
O181 O 0.68865 0.19421 0.76569 0.0
C182 C 0.65673 0.07974 0.78326 0.0
O183 O 0.68422 0.10327 0.78292 0.0
O184 O 0.61664 0.12846 0.82806 0.0
O185 O 0.62846 0.18746 0.83492 0.0
H186 H 0.48789 0.10256 0.83794 0.0
H187 H 0.71978 0.16522 0.7954 0.0
O188 O 0.68742 0.23412 0.79133 0.0
H189 H 0.74377 0.17128 0.86776 0.0
H190 H 0.73123 0.31424 0.84133 0.0
H191 H 0.60951 0.25363 0.83961 0.0
H192 H 0.68897 0.20145 0.85343 0.0
H193 H 0.72164 0.25833 0.82106 0.0
O194 O 0.62561 0.08925 0.79073 0.0
H195 H 0.54493 0.1375 0.8313 0.0
H196 H 0.56156 0.07784 0.77739 0.0
H197 H 0.61807 0.30918 0.86025 0.0
H198 H 0.77506 0.13519 0.80904 0.0
H199 H 0.67926 0.34 0.86118 0.0
H200 H 0.78748 0.138 0.84552 0.0
O201 O 0.61094 0.23201 0.80185 0.0
H202 H 0.624 0.15112 0.72533 0.0
H203 H 0.5316 0.15953 0.77918 0.0
H204 H 0.51316 0.1733 0.7446 0.0
H205 H 0.55945 0.1689 0.7173 0.0
H206 H 0.64132 0.13821 0.7601 0.0
H207 H 0.505 0.04189 0.78358 0.0
H208 H 0.4676 0.0543 0.814 0.0
O209 O 0.57395 0.18381 0.80736 0.0
C210 C 0.62316 0.15445 0.84048 0.0
C211 C 0.50395 0.09689 0.82463 0.0
C212 C 0.51358 0.0628 0.79415 0.0
N213 N 0.55666 0.10971 0.80401 0.0
C214 C 0.53627 0.11663 0.82079 0.0
C215 C 0.54573 0.0831 0.79079 0.0
C216 C 0.49259 0.0698 0.8112 0.0
C217 C 0.72509 0.16733 0.81117 0.0
N218 N 0.70139 0.18605 0.82341 0.0
C219 C 0.75643 0.14993 0.81887 0.0
C220 C 0.76335 0.15144 0.83934 0.0
C221 C 0.73888 0.17013 0.85181 0.0
C222 C 0.70787 0.18725 0.84356 0.0
C223 C 0.70442 0.30111 0.84103 0.0
C224 C 0.63629 0.26671 0.83996 0.0
C225 C 0.69874 0.26953 0.82948 0.0
N226 N 0.66496 0.25273 0.82902 0.0
C227 C 0.64094 0.29824 0.85167 0.0
C228 C 0.67526 0.31553 0.85217 0.0
C229 C 0.5787 0.21825 0.80408 0.0
C230 C 0.60348 0.15285 0.73707 0.0
C231 C 0.55201 0.15758 0.76748 0.0
C232 C 0.54134 0.16538 0.74787 0.0
C233 C 0.5673 0.1629 0.73257 0.0
N234 N 0.58748 0.14729 0.77181 0.0
C235 C 0.61312 0.14527 0.75686 0.0
Co236 Co 0.06236 0.61591 0.45962 0.0
Co237 Co 0.13715 0.66838 0.47057 0.0
O238 O 0.10721 0.62401 0.47584 0.0
C239 C 0.04732 0.57696 0.49884 0.0
O240 O 0.07809 0.58905 0.50682 0.0
C241 C 0.19357 0.6114 0.48611 0.0
O242 O 0.17155 0.58314 0.48341 0.0
O243 O 0.14473 0.65023 0.44235 0.0
O244 O 0.08471 0.64174 0.43641 0.0
H245 H 0.17699 0.77564 0.42825 0.0
H246 H 0.10401 0.55233 0.47751 0.0
O247 O 0.03707 0.58829 0.48172 0.0
H248 H 0.09368 0.52384 0.40577 0.0
H249 H 0.95289 0.54498 0.43336 0.0
H250 H 0.0186 0.66394 0.43254 0.0
H251 H 0.06685 0.58096 0.41933 0.0
H252 H 1.00982 0.55336 0.453 0.0
O253 O 0.18416 0.64357 0.48019 0.0
H254 H 0.13981 0.72101 0.43678 0.0
H255 H 0.19873 0.70855 0.49124 0.0
H256 H 0.9621 0.65656 0.41249 0.0
H257 H 0.13062 0.49476 0.46465 0.0
H258 H 0.92876 0.59674 0.41281 0.0
H259 H 0.12568 0.48007 0.42849 0.0
O260 O 0.04229 0.66386 0.4696 0.0
H261 H 0.1264 0.65211 0.54506 0.0
H262 H 0.11834 0.74094 0.48957 0.0
H263 H 0.10647 0.76209 0.52391 0.0
H264 H 0.11068 0.71756 0.55203 0.0
H265 H 0.13747 0.63213 0.51044 0.0
H266 H 0.23674 0.76285 0.48324 0.0
H267 H 0.22584 0.79698 0.45158 0.0
O268 O 0.09199 0.69742 0.46206 0.0
C269 C 0.1178 0.64468 0.43033 0.0
C270 C 0.18199 0.76104 0.4421 0.0
C271 C 0.21552 0.75385 0.47295 0.0
N272 N 0.1669 0.7116 0.46455 0.0
C273 C 0.16101 0.73005 0.44702 0.0
C274 C 0.19398 0.72298 0.47737 0.0
C275 C 0.20939 0.77299 0.45519 0.0
C276 C 0.1009 0.54606 0.46189 0.0
N277 N 0.08286 0.56983 0.4494 0.0
C278 C 0.1164 0.51341 0.45462 0.0
C279 C 0.1137 0.50522 0.43434 0.0
C280 C 0.09573 0.52973 0.42159 0.0
C281 C 0.08052 0.56207 0.42941 0.0
C282 C 0.96717 0.57118 0.43308 0.0
C283 C 1.00444 0.63775 0.43271 0.0
C284 C 0.99936 0.57616 0.44425 0.0
N285 N 0.01771 0.6091 0.4439 0.0
C286 C 0.97236 0.63377 0.42135 0.0
C287 C 0.95366 0.60022 0.42155 0.0
C288 C 0.05757 0.69502 0.46615 0.0
C289 C 0.12453 0.67182 0.53295 0.0
C290 C 0.11986 0.7213 0.5016 0.0
C291 C 0.11329 0.73349 0.52108 0.0
C292 C 0.11568 0.70852 0.53685 0.0
N293 N 0.1287 0.68528 0.49785 0.0
C294 C 0.13088 0.66066 0.51326 0.0
Co295 Co 0.65362 0.81441 0.70761 0.0
Co296 Co 0.59812 0.88664 0.71958 0.0
O297 O 0.64421 0.8586 0.72418 0.0
C298 C 0.69605 0.79959 0.74611 0.0
O299 O 0.68504 0.83047 0.75447 0.0
C300 C 0.65361 0.94524 0.73406 0.0
O301 O 0.6824 0.92395 0.73108 0.0
O302 O 0.61434 0.89499 0.69102 0.0
O303 O 0.62523 0.83555 0.685 0.0
H304 H 0.48604 0.92022 0.67926 0.0
H305 H 0.71633 0.85841 0.7246 0.0
O306 O 0.68369 0.79001 0.72908 0.0
H307 H 0.74083 0.85086 0.65232 0.0
H308 H 0.72852 0.70904 0.67952 0.0
H309 H 0.60635 0.76903 0.68093 0.0
H310 H 0.6859 0.82117 0.66672 0.0
H311 H 0.71846 0.76527 0.69949 0.0
O312 O 0.62142 0.93473 0.72869 0.0
H313 H 0.54295 0.88573 0.68697 0.0
H314 H 0.55642 0.94689 0.7406 0.0
H315 H 0.61537 0.71322 0.66054 0.0
H316 H 0.77176 0.88791 0.71089 0.0
H317 H 0.6768 0.6827 0.65978 0.0
H318 H 0.78443 0.88438 0.67445 0.0
O319 O 0.60726 0.79215 0.71833 0.0
H320 H 0.61905 0.87644 0.79374 0.0
H321 H 0.52739 0.8653 0.73971 0.0
H322 H 0.50864 0.85266 0.7744 0.0
H323 H 0.5546 0.85841 0.80177 0.0
H324 H 0.63668 0.88823 0.75881 0.0
H325 H 0.49995 0.98236 0.73337 0.0
H326 H 0.46418 0.96898 0.70253 0.0
O327 O 0.57057 0.84019 0.71172 0.0
C328 C 0.62076 0.86838 0.67893 0.0
C329 C 0.50137 0.92632 0.69275 0.0
C330 C 0.50923 0.96123 0.72308 0.0
N331 N 0.55315 0.91428 0.71422 0.0
C332 C 0.53363 0.90684 0.69721 0.0
C333 C 0.54137 0.9412 0.72705 0.0
C334 C 0.48915 0.95368 0.7058 0.0
C335 C 0.72175 0.85596 0.70886 0.0
N336 N 0.69807 0.83716 0.69668 0.0
C337 C 0.75318 0.87307 0.70111 0.0
C338 C 0.76023 0.87116 0.68067 0.0
C339 C 0.73581 0.85235 0.66826 0.0
C340 C 0.70472 0.83552 0.67655 0.0
C341 C 0.7016 0.72204 0.67975 0.0
C342 C 0.63322 0.75611 0.68064 0.0
C343 C 0.69566 0.75379 0.69113 0.0
N344 N 0.66175 0.77044 0.6915 0.0
C345 C 0.63814 0.72441 0.66907 0.0
C346 C 0.67259 0.70729 0.66867 0.0
C347 C 0.57509 0.80594 0.71567 0.0
C348 C 0.59873 0.87393 0.78196 0.0
C349 C 0.54765 0.86756 0.75144 0.0
C350 C 0.53682 0.86052 0.77111 0.0
C351 C 0.56259 0.86378 0.78646 0.0
N352 N 0.58312 0.87769 0.74711 0.0
C353 C 0.60854 0.88072 0.76211 0.0
Co354 Co 0.45964 0.40532 0.96205 0.0
Co355 Co 0.38537 0.35087 0.9703 0.0
O356 O 0.41365 0.39569 0.97699 0.0
C357 C 0.46962 0.44527 1.00156 0.0
O358 O 0.43816 0.43306 1.00869 0.0
C359 C 0.32737 0.40678 0.98475 0.0
O360 O 0.3493 0.43508 0.98198 0.0
O361 O 0.37997 0.37022 0.94222 0.0
O362 O 0.44037 0.37904 0.93806 0.0
H363 H 0.35323 0.24398 0.92583 0.0
H364 H 0.41458 0.46789 0.97867 0.0
O365 O 0.48183 0.43348 0.98489 0.0
H366 H 0.43133 0.49665 0.90734 0.0
H367 H 0.56912 0.47975 0.93879 0.0
H368 H 0.50758 0.35869 0.93639 0.0
H369 H 0.45828 0.44028 0.92167 0.0
H370 H 0.51062 0.46957 0.95678 0.0
O371 O 0.33717 0.37453 0.9791 0.0
H372 H 0.38839 0.29886 0.93622 0.0
H373 H 0.32185 0.30927 0.98822 0.0
H374 H 0.56571 0.36781 0.91795 0.0
H375 H 0.38777 0.5247 0.96504 0.0
H376 H 0.59696 0.42872 0.91909 0.0
H377 H 0.39592 0.53954 0.92907 0.0
O378 O 0.47984 0.3579 0.9727 0.0
H379 H 0.38817 0.36217 0.04528 0.0
H380 H 0.40449 0.27768 0.9882 0.0
H381 H 0.41191 0.25404 0.02248 0.0
H382 H 0.40373 0.29637 0.05134 0.0
H383 H 0.38082 0.38461 0.01079 0.0
H384 H 0.28577 0.25473 0.9783 0.0
H385 H 0.30148 0.22155 0.94693 0.0
O386 O 0.43212 0.32338 0.96272 0.0
C387 C 0.40794 0.37611 0.93098 0.0
C388 C 0.34614 0.25817 0.93955 0.0
C389 C 0.30824 0.26425 0.96897 0.0
N390 N 0.35727 0.30735 0.96284 0.0
C391 C 0.36599 0.28927 0.94553 0.0
C392 C 0.32867 0.29528 0.97447 0.0
C393 C 0.31708 0.24562 0.95138 0.0
C394 C 0.41907 0.4742 0.96317 0.0
N395 N 0.43892 0.45089 0.95123 0.0
C396 C 0.40346 0.50644 0.95545 0.0
C397 C 0.40796 0.51471 0.93526 0.0
C398 C 0.42783 0.49069 0.92308 0.0
C399 C 0.44309 0.45876 0.93134 0.0
C400 C 0.5558 0.45307 0.93819 0.0
C401 C 0.52087 0.38528 0.93693 0.0
C402 C 0.52275 0.44706 0.94844 0.0
N403 N 0.50559 0.41351 0.94766 0.0
C404 C 0.55386 0.39028 0.92647 0.0
C405 C 0.57138 0.42444 0.92712 0.0
C406 C 0.4654 0.32656 0.96886 0.0
C407 C 0.39164 0.34339 0.03284 0.0
C408 C 0.40065 0.29631 1.00065 0.0
C409 C 0.40492 0.28272 0.02005 0.0
C410 C 0.40037 0.30649 0.03623 0.0
N411 N 0.39163 0.33247 0.99742 0.0
C412 C 0.38743 0.35595 0.01323 0.0
Co413 Co 0.86499 0.2026 0.20933 0.0
Co414 Co 0.92174 0.13051 0.21959 0.0
O415 O 0.87537 0.1575 0.22491 0.0
C416 C 0.82323 0.21328 0.24834 0.0
O417 O 0.83611 0.18253 0.25599 0.0
C418 C 0.86745 0.07108 0.23418 0.0
O419 O 0.8385 0.0925 0.23207 0.0
O420 O 0.90514 0.12381 0.19095 0.0
O421 O 0.89332 0.18347 0.18611 0.0
H422 H 0.03382 0.10147 0.17822 0.0
H423 H 0.80321 0.15646 0.22567 0.0
O424 O 0.83487 0.22478 0.2315 0.0
H425 H 0.77738 0.16903 0.15374 0.0
H426 H 0.78822 0.30906 0.18411 0.0
H427 H 0.91101 0.25032 0.18322 0.0
H428 H 0.83214 0.19839 0.1685 0.0
H429 H 0.79945 0.25164 0.20286 0.0
O430 O 0.89919 0.08161 0.22804 0.0
H431 H 0.97656 0.13459 0.18688 0.0
H432 H 0.96424 0.06899 0.23903 0.0
H433 H 0.90082 0.30736 0.16405 0.0
H434 H 0.74797 0.12721 0.2116 0.0
H435 H 0.83906 0.33724 0.16444 0.0
H436 H 0.73463 0.13327 0.17533 0.0
O437 O 0.91114 0.22481 0.22032 0.0
H438 H 0.90228 0.13687 0.29407 0.0
H439 H 0.99281 0.15071 0.23966 0.0
H440 H 0.0123 0.16152 0.27439 0.0
H441 H 0.96692 0.1544 0.30196 0.0
H442 H 0.88392 0.1269 0.25913 0.0
H443 H 0.02107 0.03486 0.23082 0.0
H444 H 0.05645 0.05116 0.20026 0.0
O445 O 0.94845 0.17787 0.21249 0.0
C446 C 0.89823 0.15111 0.17939 0.0
C447 C 0.01867 0.09411 0.19159 0.0
C448 C 1.01148 0.05669 0.22108 0.0
N449 N 0.96695 0.10381 0.21347 0.0
C450 C 0.98622 0.11282 0.19659 0.0
C451 C 0.97913 0.07599 0.2256 0.0
C452 C 0.03133 0.06588 0.20395 0.0
C453 C 0.79751 0.15997 0.21002 0.0
N454 N 0.82072 0.18 0.19814 0.0
C455 C 0.76618 0.14301 0.20206 0.0
C456 C 0.75875 0.14635 0.18171 0.0
C457 C 0.78269 0.16642 0.1696 0.0
C458 C 0.8137 0.18305 0.1781 0.0
C459 C 0.81527 0.29635 0.18385 0.0
C460 C 0.88401 0.26296 0.18343 0.0
C461 C 0.82188 0.26393 0.19455 0.0
N462 N 0.85594 0.24759 0.19424 0.0
C463 C 0.87842 0.29536 0.17255 0.0
C464 C 0.84379 0.31212 0.1728 0.0
C465 C 0.94347 0.21171 0.21725 0.0
C466 C 0.92236 0.13997 0.28221 0.0
C467 C 0.97279 0.14785 0.25147 0.0
C468 C 0.98404 0.15386 0.27117 0.0
C469 C 0.9586 0.14984 0.28662 0.0
N470 N 0.93722 0.13799 0.2472 0.0
C471 C 0.91212 0.13424 0.26232 0.0
Co472 Co 0.96293 0.61465 0.95284 0.0
Co473 Co 0.88975 0.66735 0.96611 0.0
O474 O 0.91847 0.62155 0.96963 0.0
C475 C 0.98252 0.57578 0.99139 0.0
O476 O 0.96695 0.60149 1.00235 0.0
C477 C 0.83403 0.6129 0.98348 0.0
O478 O 0.85903 0.587 0.98572 0.0
O479 O 0.88312 0.65366 0.93691 0.0
O480 O 0.94315 0.6475 0.93165 0.0
H481 H 0.85699 0.78322 0.92894 0.0
H482 H 0.91898 0.55093 0.9669 0.0
O483 O 0.98463 0.57941 0.97258 0.0
H484 H 0.92693 0.53588 0.89377 0.0
H485 H 0.06824 0.54393 0.92137 0.0
H486 H 1.01084 0.66612 0.93015 0.0
H487 H 0.95727 0.5883 0.91042 0.0
H488 H 1.01136 0.55088 0.94116 0.0
O489 O 0.84137 0.64195 0.97336 0.0
H490 H 0.89299 0.72693 0.93596 0.0
H491 H 0.82453 0.70339 0.98596 0.0
H492 H 0.06741 0.66043 0.91 0.0
H493 H 0.88851 0.49785 0.95088 0.0
H494 H 0.09661 0.59897 0.90549 0.0
H495 H 0.89233 0.49007 0.91404 0.0
O496 O 0.9849 0.65881 0.96619 0.0
H497 H 0.90587 0.64272 0.04017 0.0
H498 H 0.90251 0.73817 0.98793 0.0
H499 H 0.91232 0.75636 0.02281 0.0
H500 H 0.9136 0.70857 0.04939 0.0
H501 H 0.89711 0.6257 1.00518 0.0
H502 H 0.78746 0.75899 0.97924 0.0
H503 H 0.80375 0.79954 0.95064 0.0
O504 O 0.93669 0.69615 0.96026 0.0
C505 C 0.91052 0.65017 0.92497 0.0
C506 C 0.84968 0.76583 0.94148 0.0
C507 C 0.81059 0.75218 0.96967 0.0
N508 N 0.86107 0.7119 0.96139 0.0
C509 C 0.87004 0.73397 0.94557 0.0
C510 C 0.83159 0.72055 0.97332 0.0
C511 C 0.81978 0.77494 0.95364 0.0
C512 C 0.92081 0.54774 0.95088 0.0
N513 N 0.93994 0.57273 0.93966 0.0
C514 C 0.9035 0.51761 0.94188 0.0
C515 C 0.90567 0.51325 0.92122 0.0
C516 C 0.92509 0.53892 0.90984 0.0
C517 C 0.94216 0.56862 0.91936 0.0
C518 C 0.05582 0.57088 0.92323 0.0
C519 C 0.02315 0.63924 0.92822 0.0
C520 C 0.02366 0.57502 0.93455 0.0
N521 N 1.00757 0.60888 0.93687 0.0
C522 C 0.05531 0.63621 0.91681 0.0
C523 C 0.07169 0.60175 0.91431 0.0
C524 C 0.97083 0.6912 0.96477 0.0
C525 C 0.90461 0.66392 0.0288 0.0
C526 C 0.90258 0.71702 0.99924 0.0
C527 C 0.90834 0.72759 0.01907 0.0
C528 C 0.9091 0.70081 0.03395 0.0
N529 N 0.89709 0.6808 0.99423 0.0
C530 C 0.89898 0.65441 1.00879 0.0
Co531 Co 0.16633 0.20731 0.7043 0.0
Co532 Co 0.11202 0.13629 0.71915 0.0
O533 O 0.15828 0.16427 0.72185 0.0
C534 C 0.19876 0.23276 0.74327 0.0
O535 O 0.16989 0.22074 0.75318 0.0
C536 C 0.16709 0.07902 0.73566 0.0
O537 O 0.19406 0.103 0.73726 0.0
O538 O 0.12465 0.12715 0.69013 0.0
O539 O 0.13484 0.18622 0.68295 0.0
H540 H 0.99491 0.10188 0.68352 0.0
H541 H 0.23004 0.16606 0.7208 0.0
O542 O 0.19989 0.23006 0.72439 0.0
H543 H 0.2475 0.16395 0.64769 0.0
H544 H 0.24047 0.30968 0.67282 0.0
H545 H 0.11755 0.25232 0.67819 0.0
H546 H 0.19423 0.19617 0.66257 0.0
H547 H 0.23116 0.25485 0.69396 0.0
O548 O 0.1367 0.08812 0.72721 0.0
H549 H 0.05211 0.13723 0.68904 0.0
H550 H 0.07465 0.07503 0.74147 0.0
H551 H 0.12577 0.30682 0.65673 0.0
H552 H 0.28394 0.13377 0.70654 0.0
H553 H 0.18758 0.33597 0.65393 0.0
H554 H 0.29289 0.13251 0.66972 0.0
O555 O 0.12154 0.23116 0.71612 0.0
H556 H 0.14008 0.15495 0.7925 0.0
H557 H 0.04268 0.15483 0.7412 0.0
H558 H 0.02643 0.1686 0.77605 0.0
H559 H 0.07523 0.1684 0.80211 0.0
H560 H 0.15519 0.14215 0.75751 0.0
H561 H 0.01809 0.0386 0.73631 0.0
H562 H 0.97761 0.05209 0.70723 0.0
O563 O 0.0838 0.18283 0.7121 0.0
C564 C 0.12947 0.15319 0.6775 0.0
C565 C 0.01229 0.09578 0.69627 0.0
C566 C 0.02532 0.06023 0.72587 0.0
N567 N 0.06673 0.10831 0.71557 0.0
C568 C 0.04468 0.11578 0.6995 0.0
C569 C 0.05746 0.08083 0.72864 0.0
C570 C 1.00261 0.06782 0.70956 0.0
C571 C 0.23382 0.16575 0.70477 0.0
N572 N 0.20898 0.18297 0.69256 0.0
C573 C 0.26437 0.14739 0.69678 0.0
C574 C 0.26937 0.14668 0.67612 0.0
C575 C 0.24393 0.16432 0.66375 0.0
C576 C 0.21376 0.18246 0.67228 0.0
C577 C 0.21338 0.29727 0.67394 0.0
C578 C 0.14459 0.26468 0.67705 0.0
C579 C 0.20788 0.26631 0.68599 0.0
N580 N 0.17379 0.25034 0.68742 0.0
C581 C 0.14905 0.29563 0.66487 0.0
C582 C 0.18372 0.31199 0.66333 0.0
C583 C 0.08904 0.21737 0.71502 0.0
C584 C 0.11844 0.15454 0.78135 0.0
C585 C 0.06417 0.15442 0.75233 0.0
C586 C 0.05474 0.16233 0.77212 0.0
C587 C 0.0821 0.16223 0.78672 0.0
N588 N 0.09979 0.14613 0.74713 0.0
C589 C 0.12681 0.14675 0.7614 0.0
Co590 Co 0.56047 0.40787 0.45545 0.0
Co591 Co 0.63246 0.35091 0.46454 0.0
O592 O 0.60495 0.39641 0.4714 0.0
C593 C 0.54614 0.44583 0.49531 0.0
O594 O 0.57752 0.43479 0.50312 0.0
C595 C 0.69182 0.40331 0.4816 0.0
O596 O 0.67243 0.43316 0.47799 0.0
O597 O 0.64122 0.37222 0.43704 0.0
O598 O 0.58141 0.38227 0.43166 0.0
H599 H 0.66531 0.24661 0.41837 0.0
H600 H 0.60549 0.46804 0.47411 0.0
O601 O 0.53648 0.43523 0.47798 0.0
H602 H 0.59511 0.50151 0.40301 0.0
H603 H 0.45398 0.48523 0.43075 0.0
H604 H 0.51418 0.3633 0.42798 0.0
H605 H 0.56567 0.4451 0.41572 0.0
H606 H 0.51099 0.47333 0.44979 0.0
O607 O 0.68054 0.37184 0.47551 0.0
H608 H 0.63097 0.30177 0.42923 0.0
H609 H 0.69308 0.30551 0.48302 0.0
H610 H 0.45748 0.37421 0.40851 0.0
H611 H 0.63477 0.52488 0.4621 0.0
H612 H 0.42692 0.43553 0.40984 0.0
H613 H 0.62983 0.54205 0.42627 0.0
O614 O 0.5385 0.3607 0.4651 0.0
H615 H 0.61742 0.35805 0.53919 0.0
H616 H 0.61148 0.27646 0.48034 0.0
H617 H 0.59919 0.25091 0.51379 0.0
H618 H 0.60198 0.29181 0.54353 0.0
H619 H 0.63064 0.38222 0.50555 0.0
H620 H 0.72833 0.25067 0.47267 0.0
H621 H 0.71443 0.22066 0.44015 0.0
O622 O 0.58573 0.32563 0.45505 0.0
C623 C 0.61436 0.37975 0.42525 0.0
C624 C 0.6716 0.25939 0.43259 0.0
C625 C 0.70701 0.26172 0.46303 0.0
N626 N 0.65987 0.30697 0.45679 0.0
C627 C 0.65219 0.29064 0.43885 0.0
C628 C 0.68706 0.29296 0.46879 0.0
C629 C 0.69917 0.24487 0.4448 0.0
C630 C 0.60241 0.47543 0.45864 0.0
N631 N 0.58294 0.45344 0.44586 0.0
C632 C 0.61941 0.50765 0.45185 0.0
C633 C 0.6167 0.51723 0.43174 0.0
C634 C 0.59722 0.49452 0.4187 0.0
C635 C 0.58053 0.46258 0.42604 0.0
C636 C 0.46704 0.4584 0.43004 0.0
C637 C 0.50119 0.39011 0.4286 0.0
C638 C 0.49927 0.45142 0.44086 0.0
N639 N 0.51602 0.41762 0.44001 0.0
C640 C 0.46903 0.39611 0.41755 0.0
C641 C 0.45188 0.43051 0.41831 0.0
C642 C 0.55246 0.32921 0.46113 0.0
C643 C 0.61626 0.33989 0.52636 0.0
C644 C 0.6134 0.29439 0.49321 0.0
C645 C 0.60622 0.27975 0.51212 0.0
C646 C 0.60767 0.30273 0.52879 0.0
N647 N 0.62257 0.33074 0.49096 0.0
C648 C 0.62359 0.35348 0.50723 0.0
Co649 Co 0.3669 0.81172 0.2045 0.0
Co650 Co 0.41457 0.88817 0.21761 0.0
O651 O 0.37063 0.85679 0.22112 0.0
C652 C 0.32943 0.79098 0.24316 0.0
O653 O 0.35387 0.80892 0.25387 0.0
C654 C 0.35652 0.94239 0.23401 0.0
O655 O 0.3314 0.91677 0.23663 0.0
O656 O 0.40051 0.89379 0.18845 0.0
O657 O 0.3981 0.83348 0.18319 0.0
H658 H 0.52753 0.9289 0.18005 0.0
H659 H 0.30045 0.85186 0.21852 0.0
O660 O 0.33342 0.78795 0.2244 0.0
H661 H 0.28534 0.84153 0.14549 0.0
H662 H 0.30371 0.70158 0.17348 0.0
H663 H 0.42162 0.76749 0.18166 0.0
H664 H 0.33984 0.81491 0.16214 0.0
H665 H 0.30671 0.75876 0.19323 0.0
O666 O 0.38647 0.93503 0.22466 0.0
H667 H 0.47342 0.8897 0.18693 0.0
H668 H 0.44753 0.95404 0.23815 0.0
H669 H 0.41979 0.71075 0.16154 0.0
H670 H 0.24533 0.87862 0.20248 0.0
H671 H 0.36052 0.67727 0.15732 0.0
H672 H 0.23749 0.87356 0.16569 0.0
O673 O 0.41267 0.79275 0.2177 0.0
H674 H 0.38907 0.87257 0.29151 0.0
H675 H 0.48566 0.87874 0.23992 0.0
H676 H 0.50341 0.86954 0.27492 0.0
H677 H 0.45499 0.86679 0.30117 0.0
H678 H 0.37258 0.88072 0.25635 0.0
H679 H 0.50092 0.99428 0.23162 0.0
H680 H 0.54158 0.98164 0.20249 0.0
O681 O 0.44636 0.84328 0.21165 0.0
C682 C 0.39848 0.86621 0.17657 0.0
C683 C 0.51008 0.93463 0.19282 0.0
C684 C 0.49513 0.97135 0.22175 0.0
N685 N 0.45739 0.91936 0.21298 0.0
C686 C 0.47943 0.91248 0.19682 0.0
C687 C 0.46477 0.94856 0.2253 0.0
C688 C 0.51793 0.96424 0.20541 0.0
C689 C 0.29724 0.84947 0.20252 0.0
N690 N 0.32333 0.83167 0.19134 0.0
C691 C 0.26595 0.86469 0.19351 0.0
C692 C 0.26156 0.86183 0.17288 0.0
C693 C 0.28836 0.84384 0.16154 0.0
C694 C 0.31921 0.82883 0.17107 0.0
C695 C 0.32973 0.71589 0.17521 0.0
C696 C 0.39566 0.7533 0.1799 0.0
C697 C 0.33163 0.74823 0.18651 0.0
N698 N 0.36428 0.7667 0.18866 0.0
C699 C 0.39483 0.72105 0.16849 0.0
C700 C 0.36158 0.70228 0.16614 0.0
C701 C 0.44402 0.8088 0.2158 0.0
C702 C 0.4105 0.87429 0.28027 0.0
C703 C 0.46427 0.87768 0.25106 0.0
C704 C 0.47458 0.87244 0.27097 0.0
C705 C 0.44745 0.87091 0.28567 0.0
N706 N 0.42797 0.88178 0.24578 0.0
C707 C 0.40128 0.87947 0.26018 0.0
Co708 Co 0.95298 0.4037 0.56478 0.0
Co709 Co 0.8808 0.34973 0.55059 0.0
O710 O 0.90985 0.39537 0.54719 0.0
C711 C 0.9716 0.44456 0.52644 0.0
O712 O 0.94126 0.43357 0.51755 0.0
C713 C 0.82397 0.40478 0.53292 0.0
O714 O 0.84765 0.43213 0.53206 0.0
O715 O 0.87021 0.36507 0.57899 0.0
O716 O 0.92899 0.37629 0.58703 0.0
H717 H 0.83985 0.23803 0.58909 0.0
H718 H 0.91079 0.46645 0.54656 0.0
O719 O 0.97979 0.43281 0.5438 0.0
H720 H 0.91682 0.49422 0.61854 0.0
H721 H 0.05851 0.47552 0.59481 0.0
H722 H 0.99497 0.35542 0.59253 0.0
H723 H 0.94471 0.43737 0.60525 0.0
H724 H 1.0034 0.46704 0.57374 0.0
O725 O 0.83334 0.37409 0.54092 0.0
H726 H 0.8761 0.29443 0.58309 0.0
H727 H 0.82341 0.30928 0.52694 0.0
H728 H 0.0497 0.3629 0.61401 0.0
H729 H 0.8825 0.52342 0.55922 0.0
H730 H 0.08192 0.42328 0.61524 0.0
H731 H 0.88543 0.53781 0.59548 0.0
O732 O 0.97536 0.35686 0.55469 0.0
H733 H 0.8998 0.37154 0.47677 0.0
H734 H 0.90328 0.27925 0.53068 0.0
H735 H 0.91947 0.26065 0.49647 0.0
H736 H 0.91754 0.30689 0.4691 0.0
H737 H 0.88458 0.38899 0.51122 0.0
H738 H 0.7864 0.25318 0.5324 0.0
H739 H 0.79462 0.21701 0.56362 0.0
O740 O 0.926 0.32126 0.55956 0.0
C741 C 0.89542 0.37167 0.59191 0.0
C742 C 0.836 0.25355 0.57542 0.0
C743 C 0.80602 0.26203 0.54361 0.0
N744 N 0.85196 0.30518 0.55468 0.0
C745 C 0.85644 0.28555 0.57194 0.0
C746 C 0.82697 0.29388 0.54064 0.0
C747 C 0.81064 0.24177 0.56113 0.0
C748 C 0.91278 0.4725 0.56227 0.0
N749 N 0.93048 0.44885 0.57496 0.0
C750 C 0.89642 0.50483 0.5694 0.0
C751 C 0.89801 0.51287 0.58974 0.0
C752 C 0.91564 0.48846 0.60268 0.0
C753 C 0.93151 0.45631 0.59502 0.0
C754 C 0.04472 0.44907 0.59441 0.0
C755 C 1.0087 0.38184 0.59301 0.0
C756 C 0.01359 0.44402 0.58241 0.0
N757 N 0.9959 0.41072 0.58184 0.0
C758 C 0.03975 0.38589 0.60519 0.0
C759 C 0.05783 0.41976 0.60586 0.0
C760 C 0.96072 0.32503 0.55677 0.0
C761 C 0.90049 0.35104 0.48853 0.0
C762 C 0.90252 0.29966 0.51901 0.0
C763 C 0.91163 0.28889 0.49957 0.0
C764 C 0.91052 0.31481 0.48424 0.0
N765 N 0.89231 0.3352 0.52315 0.0
C766 C 0.89159 0.36077 0.50815 0.0
Co767 Co 0.36162 0.20187 0.31738 0.0
Co768 Co 0.4181 0.13684 0.29741 0.0
O769 O 0.37074 0.16367 0.29696 0.0
C770 C 0.3286 0.23434 0.28023 0.0
O771 O 0.35642 0.22217 0.26951 0.0
C772 C 0.36605 0.07223 0.28627 0.0
O773 O 0.3428 0.07842 0.30097 0.0
O774 O 0.40618 0.11919 0.32533 0.0
O775 O 0.39255 0.17532 0.3371 0.0
H776 H 0.53661 0.09518 0.32933 0.0
H777 H 0.29938 0.16407 0.29731 0.0
O778 O 0.32834 0.22958 0.299 0.0
H779 H 0.27896 0.14447 0.36942 0.0
H780 H 0.28567 0.29376 0.35644 0.0
H781 H 0.40962 0.24036 0.34664 0.0
H782 H 0.33241 0.18035 0.35759 0.0
H783 H 0.29599 0.24552 0.33109 0.0
O784 O 0.39484 0.09213 0.28437 0.0
H785 H 0.47786 0.12932 0.32732 0.0
H786 H 0.45813 0.08602 0.26938 0.0
H787 H 0.40038 0.2882 0.37231 0.0
H788 H 0.24538 0.1282 0.30851 0.0
H789 H 0.33804 0.31523 0.37738 0.0
H790 H 0.23492 0.11816 0.3448 0.0
O791 O 0.40633 0.22918 0.30778 0.0
H792 H 0.3874 0.16682 0.22601 0.0
H793 H 0.4847 0.16929 0.27747 0.0
H794 H 0.49813 0.19325 0.24379 0.0
H795 H 0.44931 0.19196 0.21773 0.0
H796 H 0.37505 0.14358 0.26 0.0
H797 H 0.51634 0.051 0.27081 0.0
H798 H 0.55621 0.05559 0.30092 0.0
O799 O 0.44484 0.18102 0.30879 0.0
C800 C 0.39963 0.1414 0.33983 0.0
C801 C 0.5195 0.09295 0.31612 0.0
C802 C 0.5081 0.06812 0.2833 0.0
N803 N 0.46444 0.10972 0.29829 0.0
C804 C 0.48619 0.11227 0.31491 0.0
C805 C 0.475 0.08788 0.28262 0.0
C806 C 0.53046 0.07072 0.30019 0.0
C807 C 0.29491 0.15999 0.31313 0.0
N808 N 0.31897 0.17443 0.32676 0.0
C809 C 0.26432 0.1396 0.31938 0.0
C810 C 0.25848 0.13395 0.33975 0.0
C811 C 0.28316 0.14871 0.35357 0.0
C812 C 0.31343 0.16897 0.34677 0.0
C813 C 0.31298 0.28222 0.35436 0.0
C814 C 0.38237 0.25192 0.34872 0.0
C815 C 0.31905 0.25502 0.33993 0.0
N816 N 0.35339 0.24005 0.33732 0.0
C817 C 0.37733 0.27906 0.36329 0.0
C818 C 0.34236 0.29424 0.36611 0.0
C819 C 0.43908 0.21583 0.30814 0.0
C820 C 0.40892 0.16751 0.23722 0.0
C821 C 0.46321 0.16894 0.26631 0.0
C822 C 0.47103 0.1824 0.24721 0.0
C823 C 0.44364 0.18164 0.23259 0.0
N824 N 0.42911 0.15506 0.27075 0.0
C825 C 0.40212 0.15433 0.25649 0.0
Co826 Co 0.56492 0.6202 0.06572 0.0
Co827 Co 0.63799 0.66905 0.04802 0.0
O828 O 0.60567 0.62556 0.04657 0.0
C829 C 0.53964 0.58143 0.02817 0.0
O830 O 0.56792 0.59419 0.01808 0.0
C831 C 0.71342 0.63609 0.04044 0.0
O832 O 0.72435 0.64875 0.05785 0.0
O833 O 0.65184 0.65407 0.07616 0.0
O834 O 0.59365 0.64625 0.0866 0.0
H835 H 0.6942 0.77855 0.08247 0.0
H836 H 0.60016 0.55475 0.04616 0.0
O837 O 0.53381 0.59213 0.04601 0.0
H838 H 0.60458 0.52917 0.11844 0.0
H839 H 0.45962 0.55579 0.10056 0.0
H840 H 0.53025 0.67146 0.09481 0.0
H841 H 0.57724 0.58691 0.10597 0.0
H842 H 0.51189 0.56043 0.07711 0.0
O843 O 0.6794 0.63874 0.03553 0.0
H844 H 0.65329 0.72464 0.07929 0.0
H845 H 0.69288 0.70499 0.02054 0.0
H846 H 0.47854 0.66779 0.11866 0.0
H847 H 0.62715 0.49651 0.05799 0.0
H848 H 0.44278 0.60965 0.12165 0.0
H849 H 0.62956 0.48329 0.09439 0.0
O850 O 0.54465 0.66836 0.05624 0.0
H851 H 0.61003 0.64521 0.97554 0.0
H852 H 0.61382 0.73954 0.02852 0.0
H853 H 0.59344 0.757 0.99472 0.0
H854 H 0.59158 0.70968 0.96787 0.0
H855 H 0.62991 0.62891 1.00964 0.0
H856 H 0.73447 0.75844 0.02308 0.0
H857 H 0.73525 0.79578 0.05422 0.0
O858 O 0.5967 0.70119 0.05895 0.0
C859 C 0.62797 0.64944 0.09011 0.0
C860 C 0.6942 0.76246 0.06883 0.0
C861 C 0.71678 0.75119 0.03552 0.0
N862 N 0.67075 0.71144 0.0498 0.0
C863 C 0.67111 0.73184 0.06697 0.0
C864 C 0.69324 0.72082 0.03418 0.0
C865 C 0.7172 0.77212 0.05298 0.0
C866 C 0.60027 0.54908 0.06197 0.0
N867 N 0.58594 0.57393 0.07524 0.0
C868 C 0.61596 0.51608 0.06861 0.0
C869 C 0.61738 0.50871 0.08903 0.0
C870 C 0.60334 0.5344 0.10253 0.0
C871 C 0.58779 0.56706 0.09534 0.0
C872 C 0.47498 0.58128 0.09939 0.0
C873 C 0.51494 0.64601 0.09603 0.0
C874 C 0.50449 0.58416 0.08604 0.0
N875 N 0.52415 0.61622 0.08452 0.0
C876 C 0.48563 0.64412 0.10956 0.0
C877 C 0.46555 0.6115 0.11122 0.0
C878 C 0.56144 0.69933 0.05761 0.0
C879 C 0.61064 0.66608 0.9871 0.0
C880 C 0.61272 0.71868 0.01704 0.0
C881 C 0.60133 0.72878 0.99786 0.0
C882 C 0.60031 0.70224 0.98281 0.0
N883 N 0.62291 0.68315 0.02115 0.0
C884 C 0.62186 0.657 1.00646 0.0
Co885 Co 0.15985 0.8208 0.81937 0.0
Co886 Co 0.10362 0.88803 0.80115 0.0
O887 O 0.15126 0.8612 0.80005 0.0
C888 C 0.1976 0.79503 0.78151 0.0
O889 O 0.17314 0.81173 0.77022 0.0
C890 C 0.15846 0.94839 0.78734 0.0
O891 O 0.18661 0.9348 0.79728 0.0
O892 O 0.11615 0.90358 0.8294 0.0
O893 O 0.12906 0.84643 0.83995 0.0
H894 H 0.98449 0.92649 0.83371 0.0
H895 H 0.22193 0.86143 0.80082 0.0
O896 O 0.19356 0.79423 0.80037 0.0
H897 H 0.24538 0.86693 0.87335 0.0
H898 H 0.23215 0.72249 0.85605 0.0
H899 H 0.11038 0.7808 0.84705 0.0
H900 H 0.1902 0.83538 0.86028 0.0
H901 H 0.22413 0.77401 0.8325 0.0
O902 O 0.12649 0.93393 0.78901 0.0
H903 H 0.0431 0.89236 0.8307 0.0
H904 H 0.06365 0.9414 0.77441 0.0
H905 H 0.1171 0.72969 0.871 0.0
H906 H 0.27739 0.89338 0.81324 0.0
H907 H 0.1784 0.70009 0.87564 0.0
H908 H 0.2895 0.89618 0.84976 0.0
O909 O 0.11513 0.79508 0.80845 0.0
H910 H 0.13241 0.86229 0.72897 0.0
H911 H 0.03652 0.85694 0.78121 0.0
H912 H 0.02198 0.83549 0.74717 0.0
H913 H 0.07006 0.83822 0.72072 0.0
H914 H 0.14585 0.8832 0.76327 0.0
H915 H 1.00562 0.97644 0.77667 0.0
H916 H 0.9654 0.96907 0.8065 0.0
O917 O 0.07698 0.84316 0.8118 0.0
C918 C 0.12345 0.88052 0.84343 0.0
C919 C 1.00183 0.93013 0.82068 0.0
C920 C 0.0137 0.95817 0.7887 0.0
N921 N 0.05723 0.91516 0.80264 0.0
C922 C 0.03511 0.91089 0.81898 0.0
C923 C 0.04679 0.93843 0.78757 0.0
C924 C 0.99113 0.95399 0.80541 0.0
C925 C 0.22692 0.86259 0.81673 0.0
N926 N 0.20289 0.84637 0.82977 0.0
C927 C 0.25841 0.8807 0.82368 0.0
C928 C 0.2652 0.88225 0.84416 0.0
C929 C 0.24049 0.86582 0.8574 0.0
C930 C 0.20925 0.84801 0.8499 0.0
C931 C 0.20526 0.73506 0.85412 0.0
C932 C 0.13709 0.76812 0.84893 0.0
C933 C 0.20051 0.7641 0.84064 0.0
N934 N 0.16675 0.78038 0.8382 0.0
C935 C 0.14075 0.73914 0.86254 0.0
C936 C 0.17512 0.72254 0.86513 0.0
C937 C 0.08261 0.80879 0.809 0.0
C938 C 0.11118 0.86104 0.74034 0.0
C939 C 0.05766 0.85818 0.76982 0.0
C940 C 0.04922 0.84603 0.75055 0.0
C941 C 0.07621 0.84754 0.73572 0.0
N942 N 0.09199 0.87157 0.77423 0.0
C943 C 0.11862 0.87291 0.75979 0.0
Co944 Co 0.56329 0.90626 0.56567 0.0
Co945 Co 0.63314 0.84916 0.55158 0.0
O946 O 0.60566 0.89587 0.54788 0.0
C947 C 0.54469 0.9465 0.52719 0.0
O948 O 0.57445 0.93435 0.51812 0.0
C949 C 0.69307 0.90332 0.5367 0.0
O950 O 0.67608 0.93285 0.54337 0.0
O951 O 0.64518 0.86516 0.57976 0.0
O952 O 0.58681 0.87852 0.58777 0.0
H953 H 0.66896 0.73651 0.5908 0.0
H954 H 0.6061 0.96763 0.54664 0.0
O955 O 0.53684 0.93573 0.54476 0.0
H956 H 0.60623 0.99498 0.61874 0.0
H957 H 0.46083 0.98242 0.5959 0.0
H958 H 0.52089 0.86035 0.59437 0.0
H959 H 0.57471 0.93978 0.60591 0.0
H960 H 0.51507 0.97149 0.57445 0.0
O961 O 0.68034 0.87122 0.54042 0.0
H962 H 0.6349 0.79407 0.5842 0.0
H963 H 0.69025 0.80621 0.52865 0.0
H964 H 0.46707 0.87027 0.61622 0.0
H965 H 0.63736 0.02334 0.55878 0.0
H966 H 0.43654 0.93165 0.61706 0.0
H967 H 0.63769 0.03742 0.59511 0.0
O968 O 0.53922 0.86006 0.55605 0.0
H969 H 0.6128 0.87096 0.4782 0.0
H970 H 0.60881 0.77864 0.53215 0.0
H971 H 0.59104 0.76053 0.49803 0.0
H972 H 0.59309 0.80685 0.4707 0.0
H973 H 0.6302 0.88781 0.5126 0.0
H974 H 0.72528 0.74911 0.53474 0.0
H975 H 0.7146 0.71365 0.56598 0.0
O976 O 0.58733 0.82279 0.56128 0.0
C977 C 0.62016 0.87275 0.59267 0.0
C978 C 0.67385 0.75169 0.57712 0.0
C979 C 0.7055 0.7588 0.54569 0.0
N980 N 0.66047 0.80364 0.55603 0.0
C981 C 0.65459 0.78432 0.57328 0.0
C982 C 0.68571 0.79131 0.54236 0.0
C983 C 0.69947 0.7389 0.5632 0.0
C984 C 0.60529 0.97373 0.56237 0.0
N985 N 0.58758 0.95073 0.57539 0.0
C986 C 0.62341 1.00528 0.56921 0.0
C987 C 0.62367 0.01313 0.5896 0.0
C988 C 0.60601 0.98936 0.60285 0.0
C989 C 0.58812 0.95812 0.59545 0.0
C990 C 0.47386 0.95554 0.59565 0.0
C991 C 0.50795 0.88721 0.59469 0.0
C992 C 0.5045 0.94911 0.58345 0.0
N993 N 0.52116 0.91524 0.58306 0.0
C994 C 0.47739 0.89263 0.60709 0.0
C995 C 0.46026 0.92705 0.60753 0.0
C996 C 0.55282 0.82779 0.55831 0.0
C997 C 0.61168 0.85053 0.48998 0.0
C998 C 0.60942 0.79905 0.52046 0.0
C999 C 0.59949 0.78859 0.5011 0.0
C1000 C 0.60065 0.81457 0.48578 0.0
N1001 N 0.62033 0.83435 0.52449 0.0
C1002 C 0.6214 0.85996 0.50953 0.0
Co1003 Co 0.36862 0.31711 0.81903 0.0
Co1004 Co 0.41727 0.3909 0.80268 0.0
O1005 O 0.37229 0.36047 0.8012 0.0
C1006 C 0.33105 0.29298 0.78117 0.0
O1007 O 0.35639 0.30915 0.77023 0.0
C1008 C 0.3579 0.44553 0.7879 0.0
O1009 O 0.33147 0.42078 0.78794 0.0
O1010 O 0.40603 0.40014 0.83178 0.0
O1011 O 0.40079 0.34063 0.8394 0.0
H1012 H 0.534 0.43357 0.83594 0.0
H1013 H 0.30148 0.35543 0.80452 0.0
O1014 O 0.33426 0.29199 0.80004 0.0
H1015 H 0.29003 0.35438 0.87797 0.0
H1016 H 0.30515 0.21099 0.85371 0.0
H1017 H 0.42339 0.27518 0.84301 0.0
H1018 H 0.34385 0.32589 0.86152 0.0
H1019 H 0.30826 0.26593 0.83215 0.0
O1020 O 0.3898 0.43754 0.79488 0.0
H1021 H 0.47814 0.39545 0.83211 0.0
H1022 H 0.45073 0.45192 0.77848 0.0
H1023 H 0.42145 0.22064 0.86488 0.0
H1024 H 0.24702 0.38399 0.82035 0.0
H1025 H 0.36201 0.18808 0.87037 0.0
H1026 H 0.24103 0.38361 0.85735 0.0
O1027 O 0.41348 0.2959 0.80586 0.0
H1028 H 0.38447 0.37273 0.72997 0.0
H1029 H 0.48533 0.37301 0.77928 0.0
H1030 H 0.49925 0.35943 0.74409 0.0
H1031 H 0.44867 0.35955 0.71904 0.0
H1032 H 0.37172 0.38525 0.76532 0.0
H1033 H 0.50603 0.49095 0.78187 0.0
H1034 H 0.54828 0.48173 0.81069 0.0
O1035 O 0.44848 0.34618 0.80953 0.0
C1036 C 0.40352 0.37416 0.84461 0.0
C1037 C 0.51584 0.43783 0.8233 0.0
C1038 C 0.50014 0.47004 0.79296 0.0
N1039 N 0.46126 0.42125 0.80504 0.0
C1040 C 0.48417 0.41629 0.82104 0.0
C1041 C 0.46875 0.44794 0.79118 0.0
C1042 C 0.52383 0.46484 0.80913 0.0
C1043 C 0.29906 0.35507 0.82062 0.0
N1044 N 0.3258 0.33887 0.83204 0.0
C1045 C 0.26815 0.37131 0.8295 0.0
C1046 C 0.26481 0.37108 0.85026 0.0
C1047 C 0.29226 0.35466 0.86183 0.0
C1048 C 0.32271 0.3386 0.85242 0.0
C1049 C 0.33124 0.22488 0.8514 0.0
C1050 C 0.39737 0.26127 0.84528 0.0
C1051 C 0.3332 0.25592 0.83908 0.0
N1052 N 0.36596 0.27384 0.83619 0.0
C1053 C 0.39647 0.23033 0.8577 0.0
C1054 C 0.36313 0.21207 0.86076 0.0
C1055 C 0.44522 0.31144 0.80654 0.0
C1056 C 0.40685 0.37303 0.74069 0.0
C1057 C 0.46308 0.37312 0.7686 0.0
C1058 C 0.47118 0.36543 0.74862 0.0
C1059 C 0.44282 0.36551 0.73458 0.0
N1060 N 0.42778 0.38104 0.77453 0.0
C1061 C 0.39982 0.38058 0.76082 0.0
Co1062 Co 0.95486 0.12044 0.06513 0.0
Co1063 Co 0.88417 0.17723 0.05217 0.0
O1064 O 0.91182 0.13079 0.04784 0.0
C1065 C 0.97102 0.07907 0.02672 0.0
O1066 O 0.94084 0.09123 0.01811 0.0
C1067 C 0.82594 0.12326 0.03544 0.0
O1068 O 0.84548 0.09382 0.03971 0.0
O1069 O 0.87308 0.16007 0.0803 0.0
O1070 O 0.93199 0.14796 0.0876 0.0
H1071 H 0.84893 0.28817 0.09294 0.0
H1072 H 0.91072 0.05899 0.04681 0.0
O1073 O 0.9806 0.09105 0.04382 0.0
H1074 H 0.91563 0.03114 0.11877 0.0
H1075 H 0.05932 0.04503 0.09387 0.0
H1076 H 0.99773 0.16635 0.09362 0.0
H1077 H 0.94606 0.08653 0.10546 0.0
H1078 H 1.00444 0.05573 0.0729 0.0
O1079 O 0.83666 0.15517 0.04113 0.0
H1080 H 0.88319 0.23114 0.08535 0.0
H1081 H 0.82586 0.22054 0.03032 0.0
H1082 H 0.05223 0.15664 0.11497 0.0
H1083 H 0.88054 1.00314 0.05942 0.0
H1084 H 0.0835 0.09563 0.11518 0.0
H1085 H 0.88273 0.98876 0.0957 0.0
O1086 O 0.97811 0.16685 0.05528 0.0
H1087 H 0.9047 0.15834 0.97849 0.0
H1088 H 0.90681 0.24885 0.03338 0.0
H1089 H 0.92385 0.26856 0.99942 0.0
H1090 H 0.92276 0.22317 0.97161 0.0
H1091 H 0.88785 0.1399 0.01269 0.0
H1092 H 0.79064 0.27712 0.0374 0.0
H1093 H 0.80221 0.31155 0.06888 0.0
O1094 O 0.93017 0.2037 0.06167 0.0
C1095 C 0.89865 0.15257 0.09291 0.0
C1096 C 0.84365 0.27345 0.07916 0.0
C1097 C 0.8109 0.26721 0.04802 0.0
N1098 N 0.85666 0.22238 0.05736 0.0
C1099 C 0.86303 0.24113 0.07475 0.0
C1100 C 0.83081 0.23498 0.04412 0.0
C1101 C 0.81743 0.28653 0.06567 0.0
C1102 C 0.91269 0.05281 0.06248 0.0
N1103 N 0.93127 0.07576 0.07516 0.0
C1104 C 0.89515 0.02115 0.06961 0.0
C1105 C 0.89631 0.01314 0.08996 0.0
C1106 C 0.91478 0.03686 0.1029 0.0
C1107 C 0.93208 0.06821 0.09522 0.0
C1108 C 0.04596 0.07175 0.09389 0.0
C1109 C 1.01099 0.13965 0.09366 0.0
C1110 C 0.01495 0.07806 0.08196 0.0
N1111 N 0.99779 0.11169 0.08197 0.0
C1112 C 0.04194 0.13435 0.10577 0.0
C1113 C 0.05949 0.10013 0.10586 0.0
C1114 C 0.96453 0.19901 0.05804 0.0
C1115 C 0.90531 0.1784 0.99047 0.0
C1116 C 0.9064 0.22886 0.02146 0.0
C1117 C 0.91601 0.24022 1.00221 0.0
C1118 C 0.91542 0.21476 0.98662 0.0
N1119 N 0.89625 0.19319 0.02514 0.0
C1120 C 0.89588 0.16807 1.00992 0.0
Co1121 Co 0.16442 0.70153 0.31871 0.0
Co1122 Co 0.10999 0.63185 0.3021 0.0
O1123 O 0.15681 0.65928 0.30055 0.0
C1124 C 0.19743 0.72923 0.28052 0.0
O1125 O 0.16826 0.71834 0.27048 0.0
C1126 C 0.16566 0.57428 0.28651 0.0
O1127 O 0.19341 0.59752 0.28674 0.0
O1128 O 0.1208 0.62113 0.33113 0.0
O1129 O 0.13197 0.67962 0.33935 0.0
H1130 H 0.99033 0.59749 0.33518 0.0
H1131 H 0.22866 0.66087 0.30238 0.0
O1132 O 0.19879 0.72495 0.29929 0.0
H1133 H 0.24301 0.65511 0.37562 0.0
H1134 H 0.23784 0.80193 0.35245 0.0
H1135 H 0.11481 0.74572 0.34477 0.0
H1136 H 0.19048 0.68823 0.36057 0.0
H1137 H 0.22908 0.74815 0.33044 0.0
O1138 O 0.13433 0.58373 0.29374 0.0
H1139 H 0.04863 0.63178 0.33137 0.0
H1140 H 0.07261 0.57311 0.27793 0.0
H1141 H 0.12245 0.79917 0.36707 0.0
H1142 H 0.28183 0.62767 0.3168 0.0
H1143 H 0.18432 0.82773 0.37103 0.0
H1144 H 0.28922 0.62457 0.35368 0.0
O1145 O 0.12034 0.72634 0.30669 0.0
H1146 H 0.14327 0.65184 0.22959 0.0
H1147 H 0.04273 0.65395 0.27914 0.0
H1148 H 0.02932 0.66989 0.24419 0.0
H1149 H 0.07973 0.66863 0.21902 0.0
H1150 H 0.15557 0.63684 0.26469 0.0
H1151 H 0.01487 0.53778 0.28134 0.0
H1152 H 0.97313 0.55004 0.31007 0.0
O1153 O 0.08199 0.67827 0.30945 0.0
C1154 C 0.12578 0.64641 0.34418 0.0
C1155 C 1.00827 0.59191 0.32259 0.0
C1156 C 0.02207 0.55835 0.2924 0.0
N1157 N 0.06406 0.60451 0.30445 0.0
C1158 C 0.0413 0.6113 0.32033 0.0
C1159 C 0.05487 0.5783 0.29062 0.0
C1160 C 0.99865 0.56527 0.30851 0.0
C1161 C 0.23175 0.65972 0.31843 0.0
N1162 N 0.20644 0.67641 0.33059 0.0
C1163 C 0.2619 0.64087 0.32652 0.0
C1164 C 0.26602 0.63913 0.34721 0.0
C1165 C 0.24012 0.65626 0.35953 0.0
C1166 C 0.21036 0.67491 0.35091 0.0
C1167 C 0.21073 0.78977 0.35082 0.0
C1168 C 0.14187 0.75783 0.34642 0.0
C1169 C 0.20555 0.7594 0.33829 0.0
N1170 N 0.17143 0.74374 0.33623 0.0
C1171 C 0.146 0.78818 0.35907 0.0
C1172 C 0.18071 0.80421 0.36126 0.0
C1173 C 0.08768 0.71286 0.30714 0.0
C1174 C 0.12094 0.65202 0.24035 0.0
C1175 C 0.06489 0.65317 0.26838 0.0
C1176 C 0.05708 0.66227 0.24854 0.0
C1177 C 0.08534 0.66156 0.23444 0.0
N1178 N 0.09979 0.64322 0.2741 0.0
C1179 C 0.12769 0.64307 0.26033 0.0
Co1180 Co 0.56486 0.117 0.95438 0.0
Co1181 Co 0.63569 0.17226 0.96789 0.0
O1182 O 0.60899 0.12528 0.97126 0.0
C1183 C 0.54796 0.07721 0.99288 0.0
O1184 O 0.5649 0.10232 1.00361 0.0
C1185 C 0.6949 0.1185 0.98358 0.0
O1186 O 0.67157 0.09089 0.98468 0.0
O1187 O 0.64374 0.15871 0.93893 0.0
O1188 O 0.58401 0.1501 0.93309 0.0
H1189 H 0.66586 0.28848 0.93044 0.0
H1190 H 0.61055 0.05449 0.96864 0.0
O1191 O 0.54396 0.08148 0.97419 0.0
H1192 H 0.60393 0.03915 0.89549 0.0
H1193 H 0.46193 0.04343 0.92276 0.0
H1194 H 0.51654 0.16689 0.9309 0.0
H1195 H 0.57197 0.09085 0.91201 0.0
H1196 H 0.51799 0.05203 0.94301 0.0
O1197 O 0.68492 0.14908 0.97565 0.0
H1198 H 0.63237 0.23055 0.93695 0.0
H1199 H 0.69587 0.21268 0.98945 0.0
H1200 H 0.46081 0.15955 0.91025 0.0
H1201 H 0.64273 1.00221 0.95274 0.0
H1202 H 0.43303 0.09742 0.90607 0.0
H1203 H 0.63955 0.99427 0.91589 0.0
O1204 O 0.54116 0.16042 0.96768 0.0
H1205 H 0.62504 0.14741 0.042 0.0
H1206 H 0.61374 0.2413 0.98913 0.0
H1207 H 0.60301 0.25891 0.02415 0.0
H1208 H 0.60875 0.21187 0.05094 0.0
H1209 H 0.63549 0.13099 1.0069 0.0
H1210 H 0.73039 0.27012 0.98335 0.0
H1211 H 0.71534 0.30857 0.95371 0.0
O1212 O 0.58803 0.19899 0.96126 0.0
C1213 C 0.6168 0.15417 0.92683 0.0
C1214 C 0.67269 0.27196 0.9434 0.0
C1215 C 0.70894 0.26163 0.97308 0.0
N1216 N 0.66221 0.21813 0.96351 0.0
C1217 C 0.65379 0.23913 0.94718 0.0
C1218 C 0.68945 0.22899 0.97638 0.0
C1219 C 0.70046 0.28321 0.95646 0.0
C1220 C 0.60898 0.05122 0.95261 0.0
N1221 N 0.58924 0.07567 0.94132 0.0
C1222 C 0.62726 0.02154 0.94368 0.0
C1223 C 0.62546 0.0171 0.92302 0.0
C1224 C 0.60545 0.04224 0.91157 0.0
C1225 C 0.58742 0.0715 0.92102 0.0
C1226 C 0.47371 0.07066 0.9245 0.0
C1227 C 0.50475 0.13978 0.92918 0.0
C1228 C 0.50537 0.07573 0.93609 0.0
N1229 N 0.52065 0.10996 0.93826 0.0
C1230 C 0.47311 0.13579 0.91745 0.0
C1231 C 0.45753 0.10095 0.91512 0.0
C1232 C 0.55445 0.19301 0.96629 0.0
C1233 C 0.623 0.16831 0.0305 0.0
C1234 C 0.61691 0.22064 1.00065 0.0
C1235 C 0.61062 0.23083 0.0205 0.0
C1236 C 0.61377 0.20443 0.03551 0.0
N1237 N 0.62687 0.18529 0.99583 0.0
C1238 C 0.62932 0.15919 1.0105 0.0
Co1239 Co 0.1527 0.3125 0.20715 0.0
Co1240 Co 0.10201 0.3864 0.22148 0.0
O1241 O 0.14746 0.35673 0.22434 0.0
C1242 C 0.19331 0.2939 0.2452 0.0
O1243 O 0.17096 0.31437 0.25595 0.0
C1244 C 0.1603 0.44269 0.23537 0.0
O1245 O 0.18819 0.42017 0.23251 0.0
O1246 O 0.11562 0.39454 0.1925 0.0
O1247 O 0.12089 0.33462 0.18621 0.0
H1248 H 0.98765 0.42477 0.18445 0.0
H1249 H 0.21823 0.35363 0.22163 0.0
O1250 O 0.18693 0.28847 0.22677 0.0
H1251 H 0.23277 0.3476 0.14843 0.0
H1252 H 0.21884 0.20574 0.17428 0.0
H1253 H 0.09927 0.2685 0.18341 0.0
H1254 H 0.17921 0.31877 0.16482 0.0
H1255 H 0.21426 0.26158 0.19504 0.0
O1256 O 0.12773 0.43363 0.2299 0.0
H1257 H 0.04404 0.38832 0.19039 0.0
H1258 H 0.06421 0.44748 0.24404 0.0
H1259 H 0.10265 0.2131 0.16228 0.0
H1260 H 0.27237 0.38263 0.20585 0.0
H1261 H 0.16276 0.18119 0.15759 0.0
H1262 H 0.27994 0.37975 0.16897 0.0
O1263 O 0.10757 0.2914 0.22009 0.0
H1264 H 0.1309 0.37432 0.29483 0.0
H1265 H 0.03281 0.36803 0.24404 0.0
H1266 H 0.01748 0.35602 0.27924 0.0
H1267 H 0.06669 0.35939 0.30502 0.0
H1268 H 0.14506 0.38534 0.25941 0.0
H1269 H 1.00832 0.48485 0.2386 0.0
H1270 H 0.9694 0.47344 0.20866 0.0
O1271 O 0.07217 0.34087 0.21452 0.0
C1272 C 0.11899 0.36772 0.1802 0.0
C1273 C 1.00436 0.43001 0.19755 0.0
C1274 C 0.01598 0.46374 0.22792 0.0
N1275 N 0.05751 0.41565 0.21759 0.0
C1276 C 0.03636 0.40945 0.20101 0.0
C1277 C 0.04778 0.44261 0.23088 0.0
C1278 C 0.99414 0.45731 0.21114 0.0
C1279 C 0.22131 0.35215 0.20559 0.0
N1280 N 0.1956 0.3343 0.19423 0.0
C1281 C 0.25205 0.36865 0.19673 0.0
C1282 C 0.25629 0.36702 0.17604 0.0
C1283 C 0.22987 0.34896 0.16452 0.0
C1284 C 0.19956 0.33268 0.17391 0.0
C1285 C 0.19245 0.21932 0.17625 0.0
C1286 C 0.12558 0.25495 0.18149 0.0
C1287 C 0.18967 0.25087 0.18814 0.0
N1288 N 0.15656 0.26845 0.19059 0.0
C1289 C 0.1273 0.22348 0.16948 0.0
C1290 C 0.16101 0.20559 0.16686 0.0
C1291 C 0.07566 0.3064 0.2183 0.0
C1292 C 0.10915 0.37291 0.28376 0.0
C1293 C 0.05446 0.36919 0.25502 0.0
C1294 C 0.04557 0.36254 0.27501 0.0
C1295 C 0.07316 0.36447 0.28946 0.0
N1296 N 0.08979 0.37769 0.24949 0.0
C1297 C 0.11698 0.37935 0.26361 0.0
Co1298 Co 0.95533 0.90666 0.45607 0.0
Co1299 Co 0.88368 0.85172 0.47031 0.0
O1300 O 0.91228 0.89768 0.47359 0.0
C1301 C 0.97401 0.94683 0.49466 0.0
O1302 O 0.9442 0.93497 0.50376 0.0
C1303 C 0.82641 0.90726 0.48674 0.0
O1304 O 0.85033 0.93434 0.48801 0.0
O1305 O 0.87395 0.86556 0.44158 0.0
O1306 O 0.93248 0.87845 0.43394 0.0
H1307 H 0.84682 0.73686 0.43335 0.0
H1308 H 0.91377 0.96952 0.47433 0.0
O1309 O 0.98148 0.93637 0.47698 0.0
H1310 H 0.91433 0.99421 0.40193 0.0
H1311 H 0.05919 0.98063 0.42587 0.0
H1312 H 0.99816 0.85925 0.42818 0.0
H1313 H 0.94491 0.9389 0.41541 0.0
H1314 H 1.00433 0.971 0.44701 0.0
O1315 O 0.83583 0.8764 0.47896 0.0
H1316 H 0.88269 0.79358 0.43919 0.0
H1317 H 0.82348 0.81345 0.49296 0.0
H1318 H 0.05262 0.86785 0.40665 0.0
H1319 H 0.88335 0.02534 0.46154 0.0
H1320 H 0.08364 0.92887 0.40542 0.0
H1321 H 0.88341 0.03807 0.42506 0.0
O1322 O 0.97841 0.86044 0.46632 0.0
H1323 H 0.89973 0.87584 0.54417 0.0
H1324 H 0.9047 0.78193 0.49107 0.0
H1325 H 0.91917 0.7642 0.52566 0.0
H1326 H 0.9165 0.81126 0.5526 0.0
H1327 H 0.88619 0.8924 0.50941 0.0
H1328 H 0.78661 0.75727 0.48755 0.0
H1329 H 0.7983 0.7184 0.45761 0.0
O1330 O 0.92965 0.82335 0.46237 0.0
C1331 C 0.89941 0.87209 0.42883 0.0
C1332 C 0.84148 0.75354 0.44646 0.0
C1333 C 0.80767 0.76501 0.47686 0.0
N1334 N 0.85526 0.80686 0.46639 0.0
C1335 C 0.86176 0.78567 0.44986 0.0
C1336 C 0.82853 0.79692 0.47979 0.0
C1337 C 0.81425 0.74321 0.46007 0.0
C1338 C 0.91456 0.97498 0.45853 0.0
N1339 N 0.93191 0.95116 0.44577 0.0
C1340 C 0.897 1.00661 0.45132 0.0
C1341 C 0.89698 0.01371 0.43085 0.0
C1342 C 0.91433 0.98914 0.41788 0.0
C1343 C 0.93165 0.95783 0.42563 0.0
C1344 C 0.04596 0.95389 0.4263 0.0
C1345 C 1.01134 0.88595 0.42771 0.0
C1346 C 0.01498 0.9482 0.43834 0.0
N1347 N 0.99808 0.9145 0.43898 0.0
C1348 C 0.04225 0.89063 0.41548 0.0
C1349 C 0.05965 0.92485 0.41482 0.0
C1350 C 0.96436 0.82823 0.46482 0.0
C1351 C 0.90074 0.85499 0.5326 0.0
C1352 C 0.90359 0.8027 0.50259 0.0
C1353 C 0.91174 0.79242 0.52222 0.0
C1354 C 0.91022 0.8188 0.53732 0.0
N1355 N 0.89392 0.83821 0.49802 0.0
C1356 C 0.89278 0.86422 0.51279 0.0
Co1357 Co 0.36334 0.70552 0.70657 0.0
Co1358 Co 0.41593 0.63343 0.72185 0.0
O1359 O 0.37042 0.66296 0.72465 0.0
C1360 C 0.33043 0.73152 0.74554 0.0
O1361 O 0.35637 0.7151 0.75596 0.0
C1362 C 0.35854 0.57704 0.73689 0.0
O1363 O 0.32993 0.59803 0.73291 0.0
O1364 O 0.40153 0.62252 0.69332 0.0
O1365 O 0.39277 0.68153 0.68521 0.0
H1366 H 0.52882 0.59128 0.68458 0.0
H1367 H 0.29855 0.66823 0.72452 0.0
O1368 O 0.33151 0.73122 0.72659 0.0
H1369 H 0.27797 0.66289 0.65172 0.0
H1370 H 0.29237 0.80883 0.6737 0.0
H1371 H 0.41328 0.74721 0.67961 0.0
H1372 H 0.33327 0.69326 0.66541 0.0
H1373 H 0.3001 0.75509 0.69585 0.0
O1374 O 0.39105 0.58698 0.73185 0.0
H1375 H 0.47251 0.62813 0.69003 0.0
H1376 H 0.4551 0.5754 0.7459 0.0
H1377 H 0.40661 0.80058 0.65714 0.0
H1378 H 0.24263 0.6379 0.71147 0.0
H1379 H 0.3458 0.83182 0.65405 0.0
H1380 H 0.23209 0.635 0.67481 0.0
O1381 O 0.40971 0.72814 0.71744 0.0
H1382 H 0.38971 0.65137 0.79508 0.0
H1383 H 0.48555 0.65571 0.74292 0.0
H1384 H 0.50191 0.67142 0.77756 0.0
H1385 H 0.45383 0.66908 0.80402 0.0
H1386 H 0.37447 0.63661 0.76016 0.0
H1387 H 0.51101 0.53777 0.74101 0.0
H1388 H 0.54849 0.54573 0.7102 0.0
O1389 O 0.44498 0.6782 0.71307 0.0
C1390 C 0.39668 0.64794 0.68032 0.0
C1391 C 0.51275 0.58756 0.69808 0.0
C1392 C 0.50275 0.55753 0.72973 0.0
N1393 N 0.46048 0.60411 0.71831 0.0
C1394 C 0.48079 0.60835 0.70125 0.0
C1395 C 0.47097 0.57884 0.73239 0.0
C1396 C 0.52377 0.56202 0.71245 0.0
C1397 C 0.29407 0.66726 0.70856 0.0
N1398 N 0.31917 0.68255 0.69578 0.0
C1399 C 0.26238 0.64999 0.70125 0.0
C1400 C 0.2565 0.64836 0.68068 0.0
C1401 C 0.28221 0.66399 0.66772 0.0
C1402 C 0.31354 0.68109 0.67558 0.0
C1403 C 0.31901 0.79546 0.67492 0.0
C1404 C 0.38669 0.76053 0.67836 0.0
C1405 C 0.32362 0.76509 0.68753 0.0
N1406 N 0.35712 0.74788 0.68905 0.0
C1407 C 0.3831 0.79081 0.66561 0.0
C1408 C 0.34899 0.80833 0.66389 0.0
C1409 C 0.44156 0.71297 0.71577 0.0
C1410 C 0.41096 0.65234 0.78372 0.0
C1411 C 0.46439 0.65494 0.75421 0.0
C1412 C 0.47386 0.6637 0.77388 0.0
C1413 C 0.44691 0.66235 0.78872 0.0
N1414 N 0.42912 0.64495 0.74939 0.0
C1415 C 0.40253 0.64378 0.76388 0.0
Co1416 Co 0.46031 0.11539 0.45773 0.0
Co1417 Co 0.38572 0.17055 0.46408 0.0
O1418 O 0.41407 0.12646 0.47231 0.0
C1419 C 0.47056 0.07872 0.49814 0.0
O1420 O 0.4387 0.0906 0.50496 0.0
C1421 C 0.32801 0.11729 0.48143 0.0
O1422 O 0.351 0.08932 0.48121 0.0
O1423 O 0.38086 0.14808 0.43661 0.0
O1424 O 0.44134 0.13944 0.43301 0.0
H1425 H 0.35471 0.27193 0.41571 0.0
H1426 H 0.41485 0.05467 0.47577 0.0
O1427 O 0.48252 0.08947 0.48125 0.0
H1428 H 0.43319 0.01896 0.40548 0.0
H1429 H 0.57029 0.03903 0.4368 0.0
H1430 H 0.50888 0.15999 0.43147 0.0
H1431 H 0.45984 0.07659 0.41837 0.0
H1432 H 0.51147 0.05069 0.45423 0.0
O1433 O 0.33714 0.14802 0.47341 0.0
H1434 H 0.38965 0.21847 0.42834 0.0
H1435 H 0.3217 0.21446 0.48003 0.0
H1436 H 0.56733 0.14934 0.41354 0.0
H1437 H 0.38828 0.9967 0.4636 0.0
H1438 H 0.59851 0.08847 0.41615 0.0
H1439 H 0.39726 0.97835 0.42816 0.0
O1440 O 0.48014 0.16355 0.46729 0.0
H1441 H 0.38853 0.16775 0.53935 0.0
H1442 H 0.40303 0.24597 0.47962 0.0
H1443 H 0.40896 0.27373 0.51305 0.0
H1444 H 0.40173 0.23457 0.54325 0.0
H1445 H 0.38238 0.14121 0.5057 0.0
H1446 H 0.28581 0.26767 0.46789 0.0
H1447 H 0.30234 0.29692 0.43553 0.0
O1448 O 0.43267 0.19716 0.45599 0.0
C1449 C 0.40905 0.14124 0.42566 0.0
C1450 C 0.34724 0.25946 0.42984 0.0
C1451 C 0.30853 0.257 0.4591 0.0
N1452 N 0.35777 0.2132 0.45493 0.0
C1453 C 0.36696 0.22915 0.4371 0.0
C1454 C 0.32883 0.22668 0.46586 0.0
C1455 C 0.31785 0.27343 0.44096 0.0
C1456 C 0.41966 0.04686 0.46051 0.0
N1457 N 0.43984 0.0689 0.44807 0.0
C1458 C 0.4042 0.01396 0.45361 0.0
C1459 C 0.40917 1.00372 0.43372 0.0
C1460 C 0.42934 0.02646 0.42101 0.0
C1461 C 0.44443 0.05911 0.42845 0.0
C1462 C 0.55695 0.06565 0.43551 0.0
C1463 C 0.52206 0.13337 0.43258 0.0
C1464 C 0.52369 0.07249 0.44542 0.0
N1465 N 0.50649 0.10597 0.44377 0.0
C1466 C 0.55526 0.12753 0.42244 0.0
C1467 C 0.57276 0.09339 0.42392 0.0
C1468 C 0.4657 0.19451 0.46261 0.0
C1469 C 0.39147 0.18518 0.52632 0.0
C1470 C 0.39939 0.22872 0.49264 0.0
C1471 C 0.40288 0.24464 0.51156 0.0
C1472 C 0.39889 0.22265 0.52849 0.0
N1473 N 0.39141 0.19204 0.49059 0.0
C1474 C 0.38789 0.17028 0.50716 0.0
Co1475 Co 0.65807 0.71236 0.20667 0.0
Co1476 Co 0.6045 0.63777 0.21625 0.0
O1477 O 0.64907 0.667 0.22226 0.0
C1478 C 0.70001 0.72457 0.24558 0.0
O1479 O 0.68982 0.69271 0.25305 0.0
C1480 C 0.65843 0.58245 0.23469 0.0
O1481 O 0.68354 0.60788 0.23776 0.0
O1482 O 0.62282 0.63245 0.18782 0.0
O1483 O 0.6306 0.6926 0.18325 0.0
H1484 H 0.4959 0.60381 0.17337 0.0
H1485 H 0.72061 0.66683 0.22282 0.0
O1486 O 0.68721 0.73558 0.2289 0.0
H1487 H 0.74772 0.68284 0.15125 0.0
H1488 H 0.73156 0.82111 0.18166 0.0
H1489 H 0.61013 0.75993 0.18149 0.0
H1490 H 0.6919 0.71035 0.16598 0.0
H1491 H 0.72225 0.76292 0.19998 0.0
O1492 O 0.62973 0.58968 0.22423 0.0
H1493 H 0.55007 0.6406 0.1833 0.0
H1494 H 0.56652 0.57183 0.23397 0.0
H1495 H 0.61837 0.81772 0.16269 0.0
H1496 H 0.77689 0.63943 0.20879 0.0
H1497 H 0.67945 0.84883 0.16273 0.0
H1498 H 0.7909 0.64725 0.1727 0.0
O1499 O 0.61101 0.7325 0.21762 0.0
H1500 H 0.61705 0.64961 0.29137 0.0
H1501 H 0.53043 0.65015 0.23471 0.0
H1502 H 0.50667 0.6589 0.26873 0.0
H1503 H 0.54999 0.6583 0.29749 0.0
H1504 H 0.63961 0.64176 0.2572 0.0
H1505 H 0.51294 0.534 0.22439 0.0
H1506 H 0.47704 0.55003 0.19396 0.0
O1507 O 0.57564 0.68424 0.20936 0.0
C1508 C 0.62811 0.66012 0.17631 0.0
C1509 C 0.51125 0.59661 0.18669 0.0
C1510 C 0.52087 0.55738 0.2153 0.0
N1511 N 0.56141 0.60856 0.20924 0.0
C1512 C 0.5419 0.61741 0.19242 0.0
C1513 C 0.55135 0.57882 0.22058 0.0
C1514 C 0.50072 0.56641 0.19824 0.0
C1515 C 0.7266 0.67118 0.20728 0.0
N1516 N 0.70322 0.69127 0.1955 0.0
C1517 C 0.75852 0.65523 0.19932 0.0
C1518 C 0.76633 0.65955 0.17907 0.0
C1519 C 0.74215 0.67954 0.16704 0.0
C1520 C 0.71056 0.69515 0.17553 0.0
C1521 C 0.70482 0.80781 0.18149 0.0
C1522 C 0.63687 0.77303 0.18144 0.0
C1523 C 0.69932 0.77491 0.19192 0.0
N1524 N 0.66566 0.75783 0.19176 0.0
C1525 C 0.64134 0.80588 0.17083 0.0
C1526 C 0.67559 0.82333 0.17087 0.0
C1527 C 0.57925 0.71817 0.21448 0.0
C1528 C 0.59778 0.64938 0.27901 0.0
C1529 C 0.54964 0.6496 0.247 0.0
C1530 C 0.53592 0.65467 0.26632 0.0
C1531 C 0.56021 0.65437 0.28243 0.0
N1532 N 0.58652 0.64389 0.24368 0.0
C1533 C 0.61048 0.64447 0.25946 0.0
Co1534 Co 0.06089 0.90539 0.9614 0.0
Co1535 Co 0.1397 0.85722 0.9696 0.0
O1536 O 0.10768 0.89956 0.97619 0.0
C1537 C 0.04772 0.94616 1.00053 0.0
O1538 O 0.08064 0.93823 1.00751 0.0
C1539 C 0.19283 0.91459 0.98728 0.0
O1540 O 0.16628 0.93839 0.99082 0.0
O1541 O 0.14248 0.87624 0.94115 0.0
O1542 O 0.08168 0.88002 0.93751 0.0
H1543 H 0.18013 0.75236 0.9256 0.0
H1544 H 0.10308 0.97051 0.9772 0.0
O1545 O 0.03665 0.93229 0.98413 0.0
H1546 H 0.08051 0.99802 0.90621 0.0
H1547 H 0.94613 0.97177 0.93819 0.0
H1548 H 0.0141 0.85394 0.93783 0.0
H1549 H 0.05787 0.94025 0.921 0.0
H1550 H 1.00616 0.96633 0.95523 0.0
O1551 O 0.18631 0.88537 0.97713 0.0
H1552 H 0.14017 0.80398 0.93605 0.0
H1553 H 0.20802 0.82272 0.98684 0.0
H1554 H 0.95429 0.85823 0.92052 0.0
H1555 H 0.12555 0.02874 0.96313 0.0
H1556 H 0.91984 0.91752 0.92056 0.0
H1557 H 0.11442 0.04298 0.92733 0.0
O1558 O 0.04476 0.85671 0.97225 0.0
H1559 H 0.13025 0.86936 0.04478 0.0
H1560 H 0.13336 0.78251 0.98831 0.0
H1561 H 0.12716 0.75855 0.02242 0.0
H1562 H 0.12591 0.80203 0.0511 0.0
H1563 H 0.13559 0.89203 1.01048 0.0
H1564 H 0.24903 0.77176 0.97675 0.0
H1565 H 0.23504 0.73595 0.94601 0.0
O1566 O 0.09515 0.82535 0.96297 0.0
C1567 C 0.11395 0.88029 0.93005 0.0
C1568 C 0.18647 0.76769 0.93905 0.0
C1569 C 0.22517 0.77861 0.96774 0.0
N1570 N 0.17157 0.81629 0.96209 0.0
C1571 C 0.16389 0.79691 0.94507 0.0
C1572 C 0.20194 0.80761 0.97331 0.0
C1573 C 0.21729 0.75852 0.9505 0.0
C1574 C 0.09723 0.97654 0.96181 0.0
N1575 N 0.07801 0.95215 0.95024 0.0
C1576 C 0.11042 1.00959 0.95382 0.0
C1577 C 0.10425 0.01753 0.93373 0.0
C1578 C 0.08522 0.99235 0.92189 0.0
C1579 C 0.07238 0.95964 0.93041 0.0
C1580 C 0.96093 0.94582 0.93797 0.0
C1581 C 0.99946 0.87988 0.93789 0.0
C1582 C 0.99496 0.94253 0.94763 0.0
N1583 N 0.01402 0.90993 0.94734 0.0
C1584 C 0.9655 0.88213 0.92807 0.0
C1585 C 0.94619 0.91538 0.92811 0.0
C1586 C 0.06113 0.82624 0.96828 0.0
C1587 C 0.13117 0.85005 0.03244 0.0
C1588 C 0.13283 0.80178 1.00053 0.0
C1589 C 0.12934 0.78795 0.01992 0.0
C1590 C 0.12864 0.81232 0.03598 0.0
N1591 N 0.13594 0.83885 0.99707 0.0
C1592 C 0.13459 0.86283 0.01283 0.0
Co1593 Co 0.87551 0.31086 0.70838 0.0
Co1594 Co 0.92503 0.38805 0.71797 0.0
O1595 O 0.88195 0.35679 0.72393 0.0
C1596 C 0.83424 0.29809 0.74716 0.0
O1597 O 0.84554 0.32953 0.75464 0.0
C1598 C 0.86817 0.44234 0.73564 0.0
O1599 O 0.84349 0.41652 0.73884 0.0
O1600 O 0.90611 0.39271 0.68965 0.0
O1601 O 0.90203 0.33222 0.68501 0.0
H1602 H 0.0308 0.42851 0.67466 0.0
H1603 H 0.81109 0.35394 0.72438 0.0
O1604 O 0.84722 0.28644 0.73063 0.0
H1605 H 0.78441 0.33525 0.65295 0.0
H1606 H 0.80866 0.19766 0.68372 0.0
H1607 H 0.92576 0.26681 0.68258 0.0
H1608 H 0.84127 0.31022 0.66777 0.0
H1609 H 0.81464 0.25618 0.70216 0.0
O1610 O 0.89786 0.43492 0.72604 0.0
H1611 H 0.97812 0.38938 0.68435 0.0
H1612 H 0.96144 0.45388 0.73661 0.0
H1613 H 0.92078 0.20864 0.66378 0.0
H1614 H 0.75376 0.37881 0.71025 0.0
H1615 H 0.86192 0.17359 0.66426 0.0
H1616 H 0.73998 0.36968 0.67423 0.0
O1617 O 0.92364 0.29308 0.71929 0.0
H1618 H 0.91205 0.37755 0.79302 0.0
H1619 H 0.99928 0.37707 0.73662 0.0
H1620 H 0.02275 0.36859 0.77072 0.0
H1621 H 0.97907 0.36909 0.79935 0.0
H1622 H 0.88984 0.38518 0.75871 0.0
H1623 H 0.01354 0.49402 0.72733 0.0
H1624 H 0.04881 0.4813 0.69622 0.0
O1625 O 0.95602 0.34315 0.71076 0.0
C1626 C 0.90145 0.36486 0.67818 0.0
C1627 C 0.01569 0.43431 0.68827 0.0
C1628 C 1.006 0.47108 0.71782 0.0
N1629 N 0.96678 0.41917 0.71106 0.0
C1630 C 0.98587 0.4122 0.69385 0.0
C1631 C 0.97637 0.44835 0.72294 0.0
C1632 C 0.02577 0.46392 0.70036 0.0
C1633 C 0.80522 0.34896 0.70887 0.0
N1634 N 0.82934 0.32953 0.69718 0.0
C1635 C 0.77269 0.36349 0.70086 0.0
C1636 C 0.765 0.35844 0.68065 0.0
C1637 C 0.78987 0.33909 0.66872 0.0
C1638 C 0.82204 0.32485 0.67726 0.0
C1639 C 0.83447 0.21267 0.68341 0.0
C1640 C 0.89999 0.25186 0.68286 0.0
C1641 C 0.8381 0.24576 0.69391 0.0
N1642 N 0.87054 0.26504 0.69348 0.0
C1643 C 0.89736 0.21886 0.67218 0.0
C1644 C 0.86434 0.1992 0.67248 0.0
C1645 C 0.9545 0.30903 0.71574 0.0
C1646 C 0.93144 0.37762 0.7807 0.0
C1647 C 0.97995 0.37727 0.74883 0.0
C1648 C 0.99349 0.3725 0.76821 0.0
C1649 C 0.969 0.37279 0.78424 0.0
N1650 N 0.94306 0.38253 0.74539 0.0
C1651 C 0.91895 0.38228 0.76111 0.0
Co1652 Co 0.45763 0.91169 0.067 0.0
Co1653 Co 0.39097 0.85587 0.04849 0.0
O1654 O 0.4184 0.9027 0.0472 0.0
C1655 C 0.48941 0.94323 0.0293 0.0
O1656 O 0.47739 0.91502 0.01887 0.0
C1657 C 0.32356 0.90572 0.03904 0.0
O1658 O 0.32656 0.9255 0.05541 0.0
O1659 O 0.37471 0.86905 0.07653 0.0
O1660 O 0.43176 0.8816 0.08724 0.0
H1661 H 0.34918 0.73936 0.0822 0.0
H1662 H 0.41943 0.97398 0.04715 0.0
O1663 O 0.4847 0.94419 0.04805 0.0
H1664 H 0.40333 0.99575 0.11941 0.0
H1665 H 0.55299 0.98683 0.10385 0.0
H1666 H 0.49719 0.86376 0.09589 0.0
H1667 H 0.43836 0.94185 0.10735 0.0
H1668 H 0.50272 0.9769 0.07963 0.0
O1669 O 0.34629 0.8796 0.03564 0.0
H1670 H 0.38406 0.79737 0.07912 0.0
H1671 H 0.33803 0.81595 0.02164 0.0
H1672 H 0.54714 0.87259 0.12039 0.0
H1673 H 0.3844 0.02844 0.05858 0.0
H1674 H 0.57543 0.93449 0.12451 0.0
H1675 H 0.37612 0.03957 0.09495 0.0
O1676 O 0.48389 0.86645 0.05726 0.0
H1677 H 0.41898 0.88362 0.97649 0.0
H1678 H 0.42105 0.7879 0.02876 0.0
H1679 H 0.44344 0.77287 0.99496 0.0
H1680 H 0.44234 0.82089 0.96848 0.0
H1681 H 0.39729 0.89756 0.01061 0.0
H1682 H 0.30226 0.75844 0.02418 0.0
H1683 H 0.30785 0.71954 0.0546 0.0
O1684 O 0.43531 0.82875 0.05955 0.0
C1685 C 0.39784 0.87549 0.09061 0.0
C1686 C 0.34651 0.75605 0.06887 0.0
C1687 C 0.32015 0.76679 0.03632 0.0
N1688 N 0.36317 0.81015 0.05023 0.0
C1689 C 0.36625 0.78893 0.06703 0.0
C1690 C 0.34034 0.79949 0.03501 0.0
C1691 C 0.32331 0.74496 0.05338 0.0
C1692 C 0.41612 0.97876 0.063 0.0
N1693 N 0.43108 0.95483 0.07655 0.0
C1694 C 0.3962 1.0096 0.06938 0.0
C1695 C 0.39155 0.01582 0.08979 0.0
C1696 C 0.40682 0.99126 0.10352 0.0
C1697 C 0.42659 0.96075 0.09659 0.0
C1698 C 0.5409 0.95972 0.10218 0.0
C1699 C 0.50924 0.89082 0.09758 0.0
C1700 C 0.51252 0.95388 0.08841 0.0
N1701 N 0.49695 0.91976 0.08629 0.0
C1702 C 0.53759 0.89563 0.11149 0.0
C1703 C 0.55346 0.93035 0.11378 0.0
C1704 C 0.47017 0.83395 0.05819 0.0
C1705 C 0.4196 0.86244 0.98789 0.0
C1706 C 0.42082 0.80904 0.01743 0.0
C1707 C 0.43337 0.80032 0.99826 0.0
C1708 C 0.43272 0.82726 0.98341 0.0
N1709 N 0.40792 0.8436 0.02172 0.0
C1710 C 0.40731 0.87015 1.00723 0.0
Co1711 Co 0.86895 0.70791 0.81153 0.0
Co1712 Co 0.92814 0.63934 0.79712 0.0
O1713 O 0.88203 0.66729 0.7933 0.0
C1714 C 0.8316 0.72722 0.77234 0.0
O1715 O 0.84556 0.69839 0.7632 0.0
C1716 C 0.87594 0.57456 0.78627 0.0
O1717 O 0.85147 0.58216 0.80017 0.0
O1718 O 0.91142 0.62593 0.82505 0.0
O1719 O 0.89382 0.68275 0.8342 0.0
H1720 H 0.04034 0.59864 0.8355 0.0
H1721 H 0.81214 0.66311 0.78945 0.0
O1722 O 0.8419 0.73553 0.78995 0.0
H1723 H 0.77291 0.66181 0.8599 0.0
H1724 H 0.78724 0.80818 0.8397 0.0
H1725 H 0.90793 0.74626 0.84445 0.0
H1726 H 0.82935 0.69459 0.8499 0.0
H1727 H 0.80242 0.75612 0.81753 0.0
O1728 O 0.90518 0.59389 0.78471 0.0
H1729 H 0.98365 0.63458 0.82947 0.0
H1730 H 0.96947 0.58263 0.77323 0.0
H1731 H 0.89399 0.7981 0.86704 0.0
H1732 H 0.75539 0.63061 0.79877 0.0
H1733 H 0.83314 0.82953 0.86472 0.0
H1734 H 0.73523 0.62971 0.83425 0.0
O1735 O 0.91658 0.73312 0.8044 0.0
H1736 H 0.91062 0.66038 0.72347 0.0
H1737 H 0.99914 0.66587 0.77936 0.0
H1738 H 0.01949 0.68339 0.7455 0.0
H1739 H 0.97507 0.68073 0.71725 0.0
H1740 H 0.89158 0.64277 0.75755 0.0
H1741 H 0.02569 0.54577 0.77863 0.0
H1742 H 0.06172 0.55373 0.80992 0.0
O1743 O 0.95445 0.68437 0.80789 0.0
C1744 C 0.90165 0.64948 0.83838 0.0
C1745 C 0.0249 0.59488 0.8218 0.0
C1746 C 0.01664 0.56519 0.78991 0.0
N1747 N 0.97308 0.6108 0.80112 0.0
C1748 C 0.99277 0.61524 0.81834 0.0
C1749 C 0.98464 0.58603 0.78699 0.0
C1750 C 0.03686 0.56969 0.80745 0.0
C1751 C 0.80335 0.66396 0.80479 0.0
N1752 N 0.82354 0.68235 0.81888 0.0
C1753 C 0.77123 0.645 0.81005 0.0
C1754 C 0.75999 0.6444 0.82995 0.0
C1755 C 0.78107 0.66245 0.84434 0.0
C1756 C 0.81299 0.68117 0.83852 0.0
C1757 C 0.81396 0.79493 0.84075 0.0
C1758 C 0.88175 0.76003 0.8432 0.0
C1759 C 0.82289 0.76558 0.8281 0.0
N1760 N 0.85658 0.74858 0.82936 0.0
C1761 C 0.87383 0.78927 0.8561 0.0
C1762 C 0.8397 0.80686 0.85481 0.0
C1763 C 0.94895 0.71907 0.806 0.0
C1764 C 0.93022 0.66176 0.73565 0.0
C1765 C 0.97962 0.66465 0.76716 0.0
C1766 C 0.99133 0.67457 0.74801 0.0
C1767 C 0.96639 0.67311 0.73217 0.0
N1768 N 0.94412 0.65342 0.77046 0.0
C1769 C 0.91954 0.65198 0.755 0.0
Co1770 Co 0.06805 0.11572 0.56321 0.0
Co1771 Co 0.13864 0.1728 0.55026 0.0
O1772 O 0.11116 0.12644 0.54605 0.0
C1773 C 0.05193 0.07638 0.52417 0.0
O1774 O 0.08137 0.09003 0.51549 0.0
C1775 C 0.19652 0.11871 0.5334 0.0
O1776 O 0.17335 0.09094 0.53406 0.0
O1777 O 0.14866 0.15684 0.57866 0.0
O1778 O 0.09001 0.1435 0.58582 0.0
H1779 H 0.17302 0.28509 0.59008 0.0
H1780 H 0.11141 0.05431 0.54453 0.0
O1781 O 0.04307 0.08629 0.54176 0.0
H1782 H 0.10962 0.02696 0.61663 0.0
H1783 H 0.96484 0.03845 0.59159 0.0
H1784 H 0.0239 0.16086 0.59159 0.0
H1785 H 0.07815 0.08207 0.60354 0.0
H1786 H 0.01977 0.05018 0.57081 0.0
O1787 O 0.1871 0.15 0.54071 0.0
H1788 H 0.13881 0.22786 0.58294 0.0
H1789 H 0.19656 0.21531 0.5281 0.0
H1790 H 0.96934 0.15013 0.61275 0.0
H1791 H 0.14273 0.99875 0.55694 0.0
H1792 H 0.93932 0.08858 0.61283 0.0
H1793 H 0.14208 0.98466 0.59327 0.0
O1794 O 0.04422 0.16185 0.55342 0.0
H1795 H 0.12427 0.1531 0.47602 0.0
H1796 H 0.11483 0.2432 0.53088 0.0
H1797 H 0.09978 0.26253 0.49659 0.0
H1798 H 0.10468 0.21739 0.46879 0.0
H1799 H 0.13838 0.13487 0.51052 0.0
H1800 H 0.23181 0.27211 0.53477 0.0
H1801 H 0.21998 0.30755 0.56591 0.0
O1802 O 0.09196 0.19954 0.55885 0.0
C1803 C 0.12304 0.14944 0.59121 0.0
C1804 C 0.17847 0.26988 0.57647 0.0
C1805 C 0.21151 0.26255 0.54545 0.0
N1806 N 0.16582 0.21807 0.55518 0.0
C1807 C 0.15917 0.23744 0.57234 0.0
C1808 C 0.19167 0.23023 0.54182 0.0
C1809 C 0.20483 0.28244 0.56291 0.0
C1810 C 0.11034 0.04829 0.56027 0.0
N1811 N 0.09219 0.07128 0.57314 0.0
C1812 C 0.12842 0.01679 0.56726 0.0
C1813 C 0.12811 1.00893 0.58764 0.0
C1814 C 0.10989 0.03263 0.60074 0.0
C1815 C 0.09207 0.06383 0.5932 0.0
C1816 C 0.97764 0.0654 0.59167 0.0
C1817 C 1.0112 0.13392 0.59158 0.0
C1818 C 1.00867 0.07229 0.57985 0.0
N1819 N 0.02512 0.10623 0.57992 0.0
C1820 C 0.98021 0.12804 0.60358 0.0
C1821 C 0.96336 0.09352 0.6036 0.0
C1822 C 0.05745 0.19421 0.55584 0.0
C1823 C 0.12221 0.1731 0.48798 0.0
C1824 C 0.11683 0.22327 0.51897 0.0
C1825 C 0.10838 0.23445 0.49952 0.0
C1826 C 0.11116 0.20914 0.48394 0.0
N1827 N 0.12795 0.18792 0.52287 0.0
C1828 C 0.13042 0.16295 0.50763 0.0
Co1829 Co 0.65271 0.31179 0.31467 0.0
Co1830 Co 0.60251 0.38454 0.29741 0.0
O1831 O 0.64602 0.35218 0.29542 0.0
C1832 C 0.68892 0.28566 0.27646 0.0
O1833 O 0.67595 0.31401 0.26651 0.0
C1834 C 0.63581 0.45948 0.28994 0.0
O1835 O 0.62445 0.46974 0.30774 0.0
O1836 O 0.6189 0.39875 0.32514 0.0
O1837 O 0.62825 0.34113 0.33607 0.0
H1838 H 0.49429 0.44063 0.33327 0.0
H1839 H 0.7163 0.34715 0.29355 0.0
O1840 O 0.67923 0.28022 0.29451 0.0
H1841 H 0.74964 0.34846 0.36492 0.0
H1842 H 0.7192 0.20649 0.34845 0.0
H1843 H 0.60346 0.27794 0.34497 0.0
H1844 H 0.68978 0.32343 0.35406 0.0
H1845 H 0.7131 0.25843 0.32493 0.0
O1846 O 0.63219 0.42584 0.28456 0.0
H1847 H 0.54813 0.39961 0.32937 0.0
H1848 H 0.56557 0.43969 0.27051 0.0
H1849 H 0.60863 0.22657 0.36893 0.0
H1850 H 0.77618 0.37266 0.3038 0.0
H1851 H 0.66682 0.19041 0.37078 0.0
H1852 H 0.79338 0.37334 0.33973 0.0
O1853 O 0.60395 0.29148 0.30625 0.0
H1854 H 0.62279 0.35699 0.22456 0.0
H1855 H 0.53111 0.36027 0.27897 0.0
H1856 H 0.512 0.34005 0.2454 0.0
H1857 H 0.55797 0.33846 0.21785 0.0
H1858 H 0.64079 0.3766 0.25846 0.0
H1859 H 0.51216 0.48137 0.27379 0.0
H1860 H 0.47598 0.48195 0.30535 0.0
O1861 O 0.57087 0.3434 0.30888 0.0
C1862 C 0.62495 0.37556 0.33921 0.0
C1863 C 0.50987 0.4407 0.31946 0.0
C1864 C 0.51988 0.46356 0.28608 0.0
N1865 N 0.56017 0.41732 0.29976 0.0
C1866 C 0.54043 0.41755 0.31717 0.0
C1867 C 0.55022 0.43997 0.28433 0.0
C1868 C 0.4996 0.46386 0.30379 0.0
C1869 C 0.72354 0.34679 0.30916 0.0
N1870 N 0.69982 0.33257 0.32305 0.0
C1871 C 0.75752 0.36156 0.31491 0.0
C1872 C 0.76713 0.362 0.33507 0.0
C1873 C 0.74263 0.34803 0.3492 0.0
C1874 C 0.70878 0.33372 0.34292 0.0
C1875 C 0.6937 0.22203 0.34779 0.0
C1876 C 0.62893 0.26246 0.34571 0.0
C1877 C 0.68998 0.25136 0.3344 0.0
N1878 N 0.65792 0.27128 0.33353 0.0
C1879 C 0.63167 0.23334 0.3593 0.0
C1880 C 0.66431 0.21304 0.36032 0.0
C1881 C 0.57291 0.30817 0.30773 0.0
C1882 C 0.60251 0.35748 0.23644 0.0
C1883 C 0.55141 0.35922 0.26718 0.0
C1884 C 0.54036 0.34795 0.24814 0.0
C1885 C 0.56615 0.34709 0.23269 0.0
N1886 N 0.58714 0.3694 0.27077 0.0
C1887 C 0.61255 0.36855 0.25569 0.0
C1888 C 1.00607 0.53988 0.02084 0.0
C1889 C 0.99683 0.54112 1.00049 0.0
C1890 C 0.02044 0.50766 0.02947 0.0
C1891 C 0.0261 0.47521 0.01815 0.0
H1892 H 1.00271 0.56411 0.03014 0.0
H1893 H 0.02766 0.50852 0.04518 0.0
S1894 S 1.00325 0.46282 0.9646 0.0
N1895 N 0.99202 0.506 0.96949 0.0
N1896 N 0.01959 0.44594 0.98573 0.0
C1897 C 0.01641 0.47584 0.99788 0.0
C1898 C 1.00159 0.5086 0.98907 0.0
C1899 C 0.75861 0.72528 0.2656 0.0
C1900 C 0.7327 0.74427 0.25377 0.0
C1901 C 0.79198 0.74186 0.27133 0.0
C1902 C 0.80102 0.77807 0.2654 0.0
H1903 H 0.75354 0.69705 0.27011 0.0
H1904 H 0.81091 0.72606 0.2805 0.0
S1905 S 0.74132 0.84081 0.23569 0.0
N1906 N 0.71741 0.80222 0.23736 0.0
N1907 N 0.78022 0.83303 0.24783 0.0
C1908 C 0.77513 0.79756 0.2538 0.0
C1909 C 0.74098 0.78081 0.24813 0.0
C1910 C 0.54335 0.50257 0.51669 0.0
C1911 C 0.5254 0.47726 0.50411 0.0
C1912 C 0.52581 0.53521 0.52283 0.0
C1913 C 0.48965 0.54399 0.51658 0.0
H1914 H 0.57153 0.4977 0.52144 0.0
H1915 H 0.54082 0.55378 0.53256 0.0
S1916 S 0.42944 0.48539 0.48487 0.0
N1917 N 0.46847 0.46207 0.48662 0.0
N1918 N 0.43586 0.52353 0.49788 0.0
C1919 C 0.47117 0.51862 0.50424 0.0
C1920 C 0.48889 0.48523 0.49815 0.0
C1921 C 0.79133 0.24386 0.74845 0.0
C1922 C 0.80066 0.27954 0.75516 0.0
C1923 C 0.75801 0.22695 0.75398 0.0
C1924 C 0.73249 0.24499 0.76647 0.0
H1925 H 0.80995 0.22872 0.73877 0.0
H1926 H 0.75267 0.19918 0.74877 0.0
S1927 S 0.74221 0.33958 0.78721 0.0
N1928 N 0.78067 0.33283 0.77448 0.0
N1929 N 0.71805 0.30132 0.78466 0.0
C1930 C 0.74115 0.28089 0.77306 0.0
C1931 C 0.7752 0.29803 0.76753 0.0
C1932 C 0.97527 0.50183 0.50559 0.0
C1933 C 0.99244 0.47682 0.51869 0.0
C1934 C 0.99271 0.53473 0.49993 0.0
C1935 C 0.02809 0.5441 0.50712 0.0
H1936 H 0.94776 0.49643 0.49997 0.0
H1937 H 0.97827 0.55294 0.48974 0.0
S1938 S 0.08594 0.48692 0.54089 0.0
N1939 N 0.04764 0.46289 0.53803 0.0
N1940 N 0.08018 0.52479 0.52756 0.0
C1941 C 0.04572 0.5192 0.52013 0.0
C1942 C 0.02803 0.48555 0.5258 0.0
C1943 C 0.75444 0.79769 0.76634 0.0
C1944 C 0.72903 0.77962 0.75382 0.0
C1945 C 0.78804 0.781 0.77168 0.0
C1946 C 0.79784 0.74569 0.76459 0.0
H1947 H 0.74876 0.82528 0.77174 0.0
H1948 H 0.80656 0.79597 0.78147 0.0
S1949 S 0.73962 0.68527 0.7328 0.0
N1950 N 0.71497 0.72323 0.7356 0.0
N1951 N 0.77829 0.69239 0.74525 0.0
C1952 C 0.77247 0.72709 0.75229 0.0
C1953 C 0.73806 0.74386 0.74706 0.0
C1954 C 0.52201 0.4901 1.00233 0.0
C1955 C 0.4875 0.47884 1.00996 0.0
C1956 C 0.53781 0.52391 1.00767 0.0
C1957 C 0.52008 0.54793 0.02109 0.0
H1958 H 0.53704 0.47276 0.99195 0.0
H1959 H 0.5646 0.53082 1.00152 0.0
S1960 S 0.42936 0.53208 0.0455 0.0
N1961 N 0.43603 0.49488 0.03171 0.0
N1962 N 0.46601 0.55829 0.04193 0.0
C1963 C 0.48574 0.53704 0.02903 0.0
C1964 C 0.46947 0.50255 0.0235 0.0
C1965 C 0.77817 0.26566 0.24882 0.0
C1966 C 0.7898 0.23152 0.25677 0.0
C1967 C 0.74482 0.28207 0.25463 0.0
C1968 C 0.72163 0.26531 0.2688 0.0
H1969 H 0.79492 0.27999 0.2379 0.0
H1970 H 0.73769 0.30862 0.24828 0.0
S1971 S 0.73838 0.17552 0.29397 0.0
N1972 N 0.77478 0.18123 0.27944 0.0
N1973 N 0.71216 0.21222 0.29043 0.0
C1974 C 0.73275 0.23117 0.27691 0.0
C1975 C 0.76679 0.21434 0.27094 0.0
C1976 C 0.29621 0.26916 0.75146 0.0
C1977 C 0.29702 0.27752 0.77193 0.0
C1978 C 0.26437 0.25471 0.74249 0.0
C1979 C 0.23176 0.24819 0.75356 0.0
H1980 H 0.32046 0.27349 0.74227 0.0
H1981 H 0.2656 0.24841 0.72668 0.0
S1982 S 0.21855 0.26752 0.80752 0.0
N1983 N 0.26161 0.27967 0.80294 0.0
N1984 N 0.2021 0.25235 0.78604 0.0
C1985 C 0.23203 0.25675 0.77401 0.0
C1986 C 0.2645 0.27146 0.78318 0.0
C1987 C 0.26262 0.75242 0.28168 0.0
C1988 C 0.23029 0.74542 0.27046 0.0
C1989 C 0.29439 0.76736 0.27286 0.0
C1990 C 0.29538 0.77566 0.25239 0.0
H1991 H 0.26369 0.74611 0.29749 0.0
H1992 H 0.31849 0.77195 0.28212 0.0
S1993 S 0.21754 0.76493 0.2165 0.0
N1994 N 0.201 0.74941 0.23788 0.0
N1995 N 0.26036 0.77761 0.22128 0.0
C1996 C 0.26308 0.76932 0.24102 0.0
C1997 C 0.23069 0.75416 0.25004 0.0
C1998 C 0.26367 0.25824 0.2827 0.0
C1999 C 0.29517 0.25085 0.27084 0.0
C2000 C 0.23102 0.27235 0.27439 0.0
C2001 C 0.22827 0.27938 0.25383 0.0
H2002 H 0.26389 0.25268 0.2986 0.0
H2003 H 0.2076 0.27721 0.28412 0.0
S2004 S 0.30348 0.26801 0.21638 0.0
N2005 N 0.32188 0.25368 0.23757 0.0
N2006 N 0.26086 0.28039 0.22196 0.0
C2007 C 0.25977 0.27294 0.24185 0.0
C2008 C 0.29307 0.25864 0.25033 0.0
C2009 C 0.23266 0.76826 0.75252 0.0
C2010 C 0.23183 0.77898 0.77268 0.0
C2011 C 0.26466 0.75305 0.74399 0.0
C2012 C 0.29731 0.74798 0.75524 0.0
H2013 H 0.20829 0.77126 0.74327 0.0
H2014 H 0.26354 0.74482 0.72844 0.0
S2015 S 0.3109 0.77476 0.80817 0.0
N2016 N 0.26765 0.78591 0.80329 0.0
N2017 N 0.32724 0.75663 0.78733 0.0
C2018 C 0.29707 0.75904 0.77532 0.0
C2019 C 0.26454 0.77475 0.784 0.0
C2020 C 0.54223 1.00377 0.50643 0.0
C2021 C 0.52439 0.97898 0.51933 0.0
C2022 C 0.5252 0.03675 0.50056 0.0
C2023 C 0.48945 0.04633 0.50719 0.0
H2024 H 0.56992 0.99811 0.50111 0.0
H2025 H 0.54022 0.05475 0.49052 0.0
S2026 S 0.43041 0.99023 0.54082 0.0
N2027 N 0.46869 0.96587 0.53841 0.0
N2028 N 0.43666 0.02779 0.52729 0.0
C2029 C 0.4713 0.0218 0.52017 0.0
C2030 C 0.4887 0.98815 0.52618 0.0
C2031 C 0.04476 1.00542 0.01985 0.0
C2032 C 0.02665 0.97814 1.00857 0.0
C2033 C 0.02686 0.03839 0.02512 0.0
C2034 C 0.99023 0.04566 0.01916 0.0
H2035 H 0.07331 1.00178 0.02425 0.0
H2036 H 0.04195 0.05846 0.03389 0.0
S2037 S 0.92926 0.98177 0.99114 0.0
N2038 N 0.96889 0.9595 0.99297 0.0
N2039 N 0.93572 0.02171 1.00243 0.0
C2040 C 0.97155 0.01836 1.00821 0.0
C2041 C 0.98959 0.98456 1.00308 0.0
C2042 C 0.52518 0.04111 0.02234 0.0
C2043 C 0.53448 0.04239 1.00201 0.0
C2044 C 0.51105 1.00881 0.03095 0.0
C2045 C 0.50585 0.97629 0.01962 0.0
H2046 H 0.52809 0.06543 0.03162 0.0
H2047 H 0.50359 1.00973 0.04662 0.0
S2048 S 0.52955 0.96407 0.96612 0.0
N2049 N 0.54015 1.00736 0.97105 0.0
N2050 N 0.51326 0.94701 0.98722 0.0
C2051 C 0.51597 0.97691 0.99939 0.0
C2052 C 0.53038 1.00981 0.99061 0.0
C2053 C 0.99722 0.03435 0.52316 0.0
C2054 C 0.03225 0.04412 0.51562 0.0
C2055 C 0.97918 1.00215 0.51693 0.0
C2056 C 0.99542 0.97826 0.5029 0.0
H2057 H 0.9835 0.05178 0.53404 0.0
H2058 H 0.95193 0.99643 0.52284 0.0
S2059 S 0.08796 0.98949 0.47963 0.0
N2060 N 0.08317 0.02624 0.49397 0.0
N2061 N 0.04959 0.96554 0.48244 0.0
C2062 C 0.03075 0.98729 0.4955 0.0
C2063 C 0.04901 0.02026 0.50174 0.0
C2064 C 0.97412 0.2681 0.05792 0.0
C2065 C 0.98926 0.23215 0.05833 0.0
C2066 C 0.99658 0.29977 0.05757 0.0
C2067 C 0.03535 0.29716 0.05824 0.0
H2068 H 0.94453 0.27207 0.05783 0.0
H2069 H 0.9833 0.32653 0.05696 0.0
S2070 S 0.08901 0.2096 0.06226 0.0
N2071 N 0.04566 0.19612 0.06067 0.0
N2072 N 0.08762 0.25502 0.06139 0.0
C2073 C 0.05079 0.26133 0.05964 0.0
C2074 C 0.02792 0.2291 0.05937 0.0
C2075 C 0.01897 0.72247 0.30382 0.0
C2076 C 0.05453 0.7377 0.30644 0.0
C2077 C 0.98707 0.74458 0.30326 0.0
C2078 C 0.98885 0.78307 0.30583 0.0
H2079 H 0.01543 0.69301 0.30223 0.0
H2080 H 0.9607 0.73113 0.30105 0.0
S2081 S 0.07482 0.83677 0.31511 0.0
N2082 N 0.0893 0.79393 0.3123 0.0
N2083 N 0.02956 0.83514 0.31254 0.0
C2084 C 0.02418 0.79863 0.3091 0.0
C2085 C 0.05683 0.77613 0.30909 0.0
C2086 C 0.5214 0.72713 0.5568 0.0
C2087 C 0.48266 0.72933 0.55801 0.0
C2088 C 0.54356 0.75888 0.55742 0.0
C2089 C 0.52816 0.79463 0.55854 0.0
H2090 H 0.53495 0.70058 0.55558 0.0
H2091 H 0.57316 0.75509 0.55696 0.0
S2092 S 0.42845 0.81598 0.56432 0.0
N2093 N 0.43015 0.77062 0.5627 0.0
N2094 N 0.47158 0.83003 0.56228 0.0
C2095 C 0.48952 0.79731 0.56018 0.0
C2096 C 0.46693 0.76485 0.56027 0.0
C2097 C 0.50951 0.22747 0.80437 0.0
C2098 C 0.54534 0.24287 0.8044 0.0
C2099 C 0.47757 0.24963 0.80481 0.0
C2100 C 0.47974 0.28836 0.80574 0.0
H2101 H 0.50585 0.19787 0.80406 0.0
H2102 H 0.45093 0.23609 0.80465 0.0
S2103 S 0.56693 0.34278 0.80779 0.0
N2104 N 0.58086 0.2996 0.80598 0.0
N2105 N 0.52144 0.34099 0.80786 0.0
C2106 C 0.51549 0.30413 0.8063 0.0
C2107 C 0.548 0.28155 0.80538 0.0
C2108 C 0.97359 0.75926 0.46689 0.0
C2109 C 0.98891 0.79488 0.4649 0.0
C2110 C 0.9958 0.72742 0.46741 0.0
C2111 C 0.03444 0.72942 0.46536 0.0
H2112 H 0.94405 0.75568 0.46811 0.0
H2113 H 0.98238 0.70097 0.46927 0.0
S2114 S 0.0883 0.81563 0.45719 0.0
N2115 N 0.04532 0.82988 0.45982 0.0
N2116 N 0.08664 0.77036 0.45931 0.0
C2117 C 0.05002 0.76479 0.46243 0.0
C2118 C 0.02745 0.79732 0.46256 0.0
C2119 C 0.5058 0.797 0.71599 0.0
C2120 C 0.54165 0.78151 0.71565 0.0
C2121 C 0.47383 0.77491 0.71619 0.0
C2122 C 0.47599 0.73617 0.71545 0.0
H2123 H 0.50213 0.8266 0.7161 0.0
H2124 H 0.44718 0.78847 0.71674 0.0
S2125 S 0.56314 0.6816 0.71189 0.0
N2126 N 0.5771 0.72474 0.7136 0.0
N2127 N 0.51767 0.68351 0.71246 0.0
C2128 C 0.51173 0.72036 0.71422 0.0
C2129 C 0.54427 0.74285 0.71469 0.0
C2130 C 0.5199 0.24422 0.9497 0.0
C2131 C 0.52954 0.22537 0.96733 0.0
C2132 C 0.49923 0.27707 0.95034 0.0
C2133 C 0.48889 0.2931 0.96866 0.0
H2134 H 0.52848 0.23357 0.9353 0.0
H2135 H 0.49163 0.29021 0.93641 0.0
S2136 S 0.50816 0.25521 0.01903 0.0
N2137 N 0.52674 0.22484 1.00357 0.0
N2138 N 0.49016 0.2879 1.00481 0.0
C2139 C 0.49885 0.27485 0.98638 0.0
C2140 C 0.51871 0.24069 0.9857 0.0
C2141 C 0.04418 0.24414 0.21843 0.0
C2142 C 0.04148 0.28288 0.21824 0.0
C2143 C 0.01256 0.22164 0.21785 0.0
C2144 C 0.97652 0.23663 0.21774 0.0
H2145 H 0.07101 0.23091 0.21868 0.0
H2146 H 0.01666 0.19211 0.2174 0.0
S2147 S 0.95363 0.33641 0.21567 0.0
N2148 N 0.99913 0.33511 0.21618 0.0
N2149 N 0.94026 0.293 0.21669 0.0
C2150 C 0.97334 0.2753 0.21746 0.0
C2151 C 1.00555 0.29827 0.21734 0.0
C2152 C 0.97887 0.76001 0.96836 0.0
C2153 C 0.99499 0.72471 0.96637 0.0
C2154 C 1.00033 0.79224 0.9694 0.0
C2155 C 0.0391 0.79111 0.96779 0.0
H2156 H 0.94921 0.76307 0.96902 0.0
H2157 H 0.98616 0.81838 0.97107 0.0
S2158 S 0.09534 0.70596 0.96094 0.0
N2159 N 0.05254 0.69082 0.96274 0.0
N2160 N 0.09254 0.75122 0.96289 0.0
C2161 C 0.05562 0.75603 0.96527 0.0
C2162 C 0.03376 0.72302 0.96501 0.0
C2163 C 0.98802 0.24811 0.71818 0.0
C2164 C 0.98946 0.28662 0.71558 0.0
C2165 C 0.02016 0.22633 0.71788 0.0
C2166 C 0.05563 0.2419 0.71556 0.0
H2167 H 0.96174 0.23438 0.72018 0.0
H2168 H 0.01687 0.19684 0.71943 0.0
S2169 S 0.07513 0.34118 0.70702 0.0
N2170 N 0.02981 0.33906 0.70913 0.0
N2171 N 0.08998 0.29851 0.71006 0.0
C2172 C 0.05761 0.28037 0.71295 0.0
C2173 C 0.02471 0.30252 0.7126 0.0
C2174 C 0.52095 0.27663 0.44397 0.0
C2175 C 0.5289 0.29595 0.46169 0.0
C2176 C 0.50052 0.24364 0.44436 0.0
C2177 C 0.48885 0.22808 0.46256 0.0
H2178 H 0.53032 0.28728 0.42971 0.0
H2179 H 0.49406 0.23007 0.43037 0.0
S2180 S 0.50386 0.26719 0.51307 0.0
N2181 N 0.52307 0.29746 0.49782 0.0
N2182 N 0.48751 0.23394 0.49869 0.0
C2183 C 0.49733 0.24673 0.48036 0.0
C2184 C 0.51669 0.28106 0.4799 0.0
C2185 C 0.4775 0.74747 0.21595 0.0
C2186 C 0.47893 0.7863 0.21593 0.0
C2187 C 0.50984 0.72591 0.21528 0.0
C2188 C 0.54535 0.74199 0.2152 0.0
H2189 H 0.45112 0.73344 0.21609 0.0
H2190 H 0.50676 0.69628 0.21474 0.0
S2191 S 0.56494 0.84252 0.21414 0.0
N2192 N 0.51952 0.83981 0.21449 0.0
N2193 N 0.57972 0.79951 0.21478 0.0
C2194 C 0.54725 0.78077 0.21528 0.0
C2195 C 0.51432 0.80276 0.21527 0.0
C2196 C 0.02345 0.29437 0.55572 0.0
C2197 C 0.98477 0.29121 0.5571 0.0
C2198 C 0.0465 0.26308 0.55566 0.0
C2199 C 0.03206 0.22694 0.55639 0.0
H2200 H 0.03624 0.3213 0.5548 0.0
H2201 H 0.07599 0.26751 0.55496 0.0
S2202 S 0.93289 0.20297 0.56196 0.0
N2203 N 0.93343 0.24841 0.56115 0.0
N2204 N 0.97635 0.1901 0.55961 0.0
C2205 C 0.99348 0.22331 0.55808 0.0
C2206 C 0.97004 0.2552 0.55877 0.0
C2207 C 0.50801 0.2251 0.30775 0.0
C2208 C 0.47226 0.24064 0.30876 0.0
C2209 C 0.53994 0.24701 0.30758 0.0
C2210 C 0.53806 0.28574 0.30871 0.0
H2211 H 0.51167 0.19551 0.30694 0.0
H2212 H 0.56641 0.23322 0.30646 0.0
S2213 S 0.45153 0.34056 0.31379 0.0
N2214 N 0.43715 0.29749 0.31211 0.0
N2215 N 0.497 0.33862 0.31248 0.0
C2216 C 0.50254 0.30174 0.31052 0.0
C2217 C 0.46983 0.2793 0.31039 0.0
C2218 C 0.47876 0.76498 0.05797 0.0
C2219 C 0.49466 0.80052 0.05871 0.0
C2220 C 0.50042 0.73283 0.0577 0.0
C2221 C 0.53922 0.73432 0.05853 0.0
H2222 H 0.44908 0.76166 0.05746 0.0
H2223 H 0.48639 0.70652 0.0568 0.0
S2224 S 0.59494 0.82019 0.06301 0.0
N2225 N 0.55192 0.835 0.06156 0.0
N2226 N 0.59258 0.7748 0.06183 0.0
C2227 C 0.55558 0.76964 0.06012 0.0
C2228 C 0.53341 0.80254 0.06003 0.0
C2229 C 1.00374 0.74918 0.78962 0.0
C2230 C 0.98196 0.74345 0.80681 0.0
C2231 C 0.0372 0.76902 0.79053 0.0
C2232 C 0.04978 0.7843 0.80861 0.0
H2233 H 0.99485 0.73838 0.77535 0.0
H2234 H 0.05288 0.77312 0.77691 0.0
S2235 S 1.00315 0.77738 0.85772 0.0
N2236 N 0.97616 0.75407 0.84241 0.0
N2237 N 0.03756 0.79293 0.84392 0.0
C2238 C 0.02805 0.77919 0.82577 0.0
C2239 C 0.99455 0.75836 0.82492 0.0
C2240 C 0.28494 0.38084 0.01077 0.0
C2241 C 0.29421 0.41024 0.99798 0.0
C2242 C 0.25439 0.38264 0.02364 0.0
C2243 C 0.23087 0.41368 0.0242 0.0
H2244 H 0.30175 0.35615 0.01109 0.0
H2245 H 0.24903 0.35901 0.03307 0.0
S2246 S 0.2441 0.49928 0.99444 0.0
N2247 N 0.27867 0.47242 0.98747 0.0
N2248 N 0.22042 0.47555 0.01117 0.0
C2249 C 0.24039 0.44384 0.01185 0.0
C2250 C 0.27213 0.44218 0.99891 0.0
C2251 C 0.89504 0.03055 0.26065 0.0
C2252 C 0.86558 0.03797 0.24751 0.0
C2253 C 0.89472 0.99999 0.27354 0.0
C2254 C 0.86513 0.97475 0.27383 0.0
H2255 H 0.91857 0.04885 0.26123 0.0
H2256 H 0.91835 0.996 0.28319 0.0
S2257 S 0.77978 0.98286 0.24319 0.0
N2258 N 0.80477 0.01884 0.23642 0.0
N2259 N 0.80435 0.96073 0.26021 0.0
C2260 C 0.83481 0.98247 0.26117 0.0
C2261 C 0.83498 0.01413 0.24818 0.0
C2262 C 0.23396 0.63723 0.51306 0.0
C2263 C 0.22633 0.60832 0.49963 0.0
C2264 C 0.2647 0.63631 0.52583 0.0
C2265 C 0.28996 0.60668 0.52566 0.0
H2266 H 0.21581 0.66091 0.51388 0.0
H2267 H 0.26888 0.65958 0.53569 0.0
S2268 S 0.28132 0.52259 0.49413 0.0
N2269 N 0.24521 0.54792 0.4878 0.0
N2270 N 0.30373 0.5464 0.51134 0.0
C2271 C 0.28198 0.57684 0.51274 0.0
C2272 C 0.25009 0.5776 0.49989 0.0
C2273 C 0.62833 0.02 0.77183 0.0
C2274 C 0.65895 0.04398 0.77189 0.0
C2275 C 0.62716 0.98853 0.75961 0.0
C2276 C 0.65665 0.97899 0.74688 0.0
H2277 H 0.60457 0.02568 0.78115 0.0
H2278 H 0.60289 0.97127 0.76039 0.0
S2279 S 0.74472 0.03036 0.74216 0.0
N2280 N 0.72062 0.05459 0.75854 0.0
N2281 N 0.71847 0.99498 0.73589 0.0
C2282 C 0.68816 1.00166 0.74731 0.0
C2283 C 0.68929 0.03416 0.75967 0.0
C2284 C 0.77593 0.61019 0.03108 0.0
C2285 C 0.74174 0.62517 0.0251 0.0
C2286 C 0.80472 0.60398 0.01725 0.0
C2287 C 0.80103 0.61352 0.99691 0.0
H2288 H 0.7808 0.60391 0.04669 0.0
H2289 H 0.83079 0.59346 0.02278 0.0
S2290 S 0.71727 0.65276 0.97319 0.0
N2291 N 0.70567 0.64765 0.9969 0.0
N2292 N 0.76027 0.63793 0.97139 0.0
C2293 C 0.76691 0.62787 0.99063 0.0
C2294 C 0.73719 0.63311 1.00456 0.0
C2295 C 0.18944 1.008 0.7765 0.0
C2296 C 0.16336 0.9799 0.77301 0.0
C2297 C 0.19188 0.03915 0.76383 0.0
C2298 C 0.16855 0.04336 0.74704 0.0
H2299 H 0.20716 1.00661 0.78951 0.0
H2300 H 0.21121 0.06075 0.76771 0.0
S2301 S 0.09999 0.97467 0.72935 0.0
N2302 N 0.11692 0.95656 0.75003 0.0
N2303 N 0.12153 0.01438 0.72649 0.0
C2304 C 0.14396 0.01438 0.74279 0.0
C2305 C 0.14137 0.98293 0.75567 0.0
C2306 C 0.78197 0.43435 0.50692 0.0
C2307 C 0.78826 0.40666 0.52143 0.0
C2308 C 0.75058 0.43368 0.4943 0.0
C2309 C 0.72458 0.40484 0.49532 0.0
H2310 H 0.80189 0.45628 0.50491 0.0
H2311 H 0.74723 0.4553 0.48328 0.0
S2312 S 0.72501 0.32857 0.53244 0.0
N2313 N 0.76275 0.35219 0.53749 0.0
N2314 N 0.70571 0.34988 0.51334 0.0
C2315 C 0.72992 0.37783 0.51019 0.0
C2316 C 0.76115 0.37901 0.52332 0.0
C2317 C 0.33706 1.01102 0.27639 0.0
C2318 C 0.36015 0.04111 0.27171 0.0
C2319 C 0.33427 0.98008 0.2636 0.0
C2320 C 0.35439 0.97787 0.24554 0.0
H2321 H 0.32205 1.01068 0.29039 0.0
H2322 H 0.3175 0.95701 0.26839 0.0
S2323 S 0.41446 0.05139 0.22478 0.0
N2324 N 0.40028 0.06803 0.24642 0.0
N2325 N 0.39517 1.01037 0.22277 0.0
C2326 C 0.37589 1.00862 0.24018 0.0
C2327 C 0.37873 0.04001 0.25313 0.0
C2328 C 0.78468 0.93501 0.51335 0.0
C2329 C 0.79025 0.90942 0.49768 0.0
C2330 C 0.75285 0.93375 0.52562 0.0
C2331 C 0.72556 0.90655 0.5229 0.0
H2332 H 0.80563 0.9554 0.51665 0.0
H2333 H 0.75028 0.95339 0.53775 0.0
S2334 S 0.72388 0.83685 0.48213 0.0
N2335 N 0.76316 0.85899 0.4788 0.0
N2336 N 0.70452 0.85617 0.50184 0.0
C2337 C 0.73004 0.88207 0.50669 0.0
C2338 C 0.76199 0.88362 0.49412 0.0
C2339 C 0.38312 0.53812 0.76476 0.0
C2340 C 0.35506 0.54469 0.75062 0.0
C2341 C 0.38251 0.50723 0.77736 0.0
C2342 C 0.35392 0.48095 0.77645 0.0
H2343 H 0.40596 0.55713 0.76619 0.0
H2344 H 0.4053 0.50365 0.78766 0.0
S2345 S 0.27204 0.48666 0.74304 0.0
N2346 N 0.2964 0.52371 0.73735 0.0
N2347 N 0.29533 0.46508 0.76078 0.0
C2348 C 0.3247 0.48797 0.76295 0.0
C2349 C 0.32524 0.5199 0.75015 0.0
C2350 C 0.76755 0.09208 0.02298 0.0
C2351 C 0.79374 0.12063 0.02141 0.0
C2352 C 0.73644 0.09058 1.01021 0.0
C2353 C 0.73056 0.11718 0.99507 0.0
H2354 H 0.77049 0.0714 0.03456 0.0
H2355 H 0.71631 0.06899 0.01265 0.0
S2356 S 0.79455 0.19376 0.98247 0.0
N2357 N 0.81356 0.17371 1.00206 0.0
N2358 N 0.75652 0.17024 0.9779 0.0
C2359 C 0.75784 0.14448 0.99265 0.0
C2360 C 0.78896 0.14637 1.00583 0.0
C2361 C 0.13776 0.51433 0.27524 0.0
C2362 C 0.16782 0.53898 0.27477 0.0
C2363 C 0.13605 0.48352 0.26259 0.0
C2364 C 0.16431 0.47545 0.2488 0.0
H2365 H 0.11483 0.51904 0.28532 0.0
H2366 H 0.11232 0.46562 0.26384 0.0
S2367 S 0.25069 0.52889 0.24235 0.0
N2368 N 0.22783 0.55168 0.25982 0.0
N2369 N 0.22458 0.49326 0.23629 0.0
C2370 C 0.1954 0.49865 0.24871 0.0
C2371 C 0.19712 0.53047 0.26156 0.0
C2372 C 0.25309 0.14794 0.5181 0.0
C2373 C 0.23128 0.1162 0.52108 0.0
C2374 C 0.28361 0.14795 0.5051 0.0
C2375 C 0.29441 0.11611 0.49453 0.0
H2376 H 0.24652 0.17339 0.52574 0.0
H2377 H 0.29932 0.17315 0.50369 0.0
S2378 S 0.24876 0.02475 0.49766 0.0
N2379 N 0.22398 0.05127 0.51263 0.0
N2380 N 0.28186 0.05128 0.48864 0.0
C2381 C 0.27382 0.08376 0.49779 0.0
C2382 C 0.24223 0.08381 0.51088 0.0
C2383 C 0.66227 0.52185 0.28128 0.0
C2384 C 0.64658 0.48829 0.27492 0.0
C2385 C 0.66833 0.55122 0.26785 0.0
C2386 C 0.65798 0.54876 0.24757 0.0
H2387 H 0.66919 0.5258 0.29688 0.0
H2388 H 0.67938 0.5768 0.27369 0.0
S2389 S 0.61691 0.46687 0.22298 0.0
N2390 N 0.62265 0.454 0.24645 0.0
N2391 N 0.63225 0.50967 0.22168 0.0
C2392 C 0.64303 0.51519 0.2409 0.0
C2393 C 0.63787 0.48488 0.25442 0.0
C2394 C 0.23002 0.93573 0.01722 0.0
C2395 C 0.22838 0.91692 0.99874 0.0
C2396 C 0.26119 0.93313 0.02985 0.0
C2397 C 0.29221 0.91164 0.02459 0.0
H2398 H 0.20636 0.95128 0.02244 0.0
H2399 H 0.26035 0.94704 0.04417 0.0
S2400 S 0.30397 0.86115 0.97649 0.0
N2401 N 0.26215 0.87905 0.97502 0.0
N2402 N 0.32037 0.87439 0.99834 0.0
C2403 C 0.29162 0.89445 1.00559 0.0
C2404 C 0.25991 0.89701 0.99283 0.0
C2405 C 0.84475 0.48154 0.76441 0.0
C2406 C 0.8659 0.47828 0.74674 0.0
C2407 C 0.84706 0.51308 0.7768 0.0
C2408 C 0.87078 0.54267 0.77213 0.0
H2409 H 0.8274 0.45891 0.76921 0.0
H2410 H 0.83114 0.51361 0.7905 0.0
S2411 S 0.9281 0.55016 0.72609 0.0
N2412 N 0.90826 0.50939 0.72422 0.0
N2413 N 0.91299 0.56781 0.7473 0.0
C2414 C 0.89057 0.54043 0.75395 0.0
C2415 C 0.88803 0.50857 0.74134 0.0
C2416 C 0.14594 0.39672 0.12745 0.0
C2417 C 0.12759 0.37009 0.11578 0.0
C2418 C 0.14149 0.39773 0.14844 0.0
C2419 C 0.11809 0.37251 0.15823 0.0
H2420 H 0.16267 0.41762 0.12027 0.0
H2421 H 0.15695 0.41775 0.15705 0.0
S2422 S 0.06284 0.29859 0.13414 0.0
N2423 N 0.08514 0.3184 0.11551 0.0
N2424 N 0.07571 0.321 0.15443 0.0
C2425 C 0.09946 0.34615 0.14655 0.0
C2426 C 0.10456 0.34469 0.1255 0.0
C2427 C 0.87651 0.89328 0.39535 0.0
C2428 C 0.89408 0.86633 0.4072 0.0
C2429 C 0.88059 0.89345 0.37433 0.0
C2430 C 0.90274 0.86695 0.36463 0.0
H2431 H 0.86078 0.91512 0.40241 0.0
H2432 H 0.86608 0.91408 0.36564 0.0
S2433 S 0.95614 0.79206 0.38921 0.0
N2434 N 0.93501 0.81338 0.40777 0.0
N2435 N 0.94329 0.81394 0.36873 0.0
C2436 C 0.92049 0.84014 0.37647 0.0
C2437 C 0.916 0.83977 0.3976 0.0
C2438 C 0.37483 0.6216 0.64766 0.0
C2439 C 0.40131 0.6415 0.65868 0.0
C2440 C 0.37342 0.62405 0.62659 0.0
C2441 C 0.39814 0.64686 0.61605 0.0
H2442 H 0.3543 0.60524 0.6554 0.0
H2443 H 0.35337 0.60768 0.61851 0.0
S2444 S 0.47168 0.70532 0.63817 0.0
N2445 N 0.45244 0.68463 0.6575 0.0
N2446 N 0.44917 0.69016 0.61837 0.0
C2447 C 0.42448 0.66687 0.62704 0.0
C2448 C 0.42626 0.66391 0.64821 0.0
C2449 C 0.64561 0.13065 0.87356 0.0
C2450 C 0.61879 0.14955 0.86224 0.0
C2451 C 0.64667 0.13384 0.89461 0.0
C2452 C 0.62113 0.15629 0.90484 0.0
H2453 H 0.66653 0.11432 0.86608 0.0
H2454 H 0.66691 0.11805 0.90291 0.0
S2455 S 0.54661 0.21247 0.88186 0.0
N2456 N 0.56692 0.19193 0.86276 0.0
N2457 N 0.56895 0.19817 0.90192 0.0
C2458 C 0.59452 0.17541 0.89355 0.0
C2459 C 0.59333 0.17197 0.87238 0.0
C2460 C 0.14527 0.61941 0.37707 0.0
C2461 C 0.11996 0.6403 0.36575 0.0
C2462 C 0.14624 0.62217 0.39814 0.0
C2463 C 0.12224 0.64625 0.40837 0.0
H2464 H 0.1653 0.60203 0.36958 0.0
H2465 H 0.16536 0.60505 0.40645 0.0
S2466 S 0.05165 0.70734 0.38545 0.0
N2467 N 0.07066 0.68567 0.36634 0.0
N2468 N 0.07292 0.69147 0.4055 0.0
C2469 C 0.09697 0.66713 0.3971 0.0
C2470 C 0.09569 0.66396 0.37593 0.0
C2471 C 0.64216 0.8969 0.64653 0.0
C2472 C 0.61876 0.87255 0.65694 0.0
C2473 C 0.64544 0.89508 0.62548 0.0
C2474 C 0.62602 0.86836 0.61437 0.0
H2475 H 0.65846 0.91688 0.65469 0.0
H2476 H 0.66221 0.91536 0.61782 0.0
S2477 S 0.56086 0.79891 0.63456 0.0
N2478 N 0.57535 0.82171 0.65441 0.0
N2479 N 0.58241 0.81765 0.61536 0.0
C2480 C 0.60293 0.84386 0.62474 0.0
C2481 C 0.59906 0.84614 0.64585 0.0
C2482 C 0.38121 0.3998 0.87732 0.0
C2483 C 0.40811 0.38047 0.86625 0.0
C2484 C 0.37985 0.3972 0.89838 0.0
C2485 C 0.4053 0.37511 0.90889 0.0
H2486 H 0.3602 0.41564 0.86962 0.0
H2487 H 0.35917 0.41282 0.90647 0.0
S2488 S 0.4806 0.31884 0.88667 0.0
N2489 N 0.4605 0.33876 0.86734 0.0
N2490 N 0.45785 0.33355 0.90651 0.0
C2491 C 0.43234 0.35602 0.89787 0.0
C2492 C 0.4338 0.35881 0.87669 0.0
C2493 C 0.87672 0.12489 0.1464 0.0
C2494 C 0.90023 0.14841 0.1573 0.0
C2495 C 0.8735 0.12808 0.12538 0.0
C2496 C 0.89318 0.15531 0.11477 0.0
H2497 H 0.86026 0.1045 0.15417 0.0
H2498 H 0.85656 0.10845 0.11735 0.0
S2499 S 0.95851 0.22318 0.13636 0.0
N2500 N 0.94379 0.19922 0.15576 0.0
N2501 N 0.93705 0.2057 0.11678 0.0
C2502 C 0.91639 0.17897 0.12563 0.0
C2503 C 0.9201 0.1754 0.14672 0.0
C2504 C 0.87629 0.63049 0.87177 0.0
C2505 C 0.90636 0.64236 0.85999 0.0
C2506 C 0.87664 0.63414 0.89284 0.0
C2507 C 0.90676 0.65058 0.90275 0.0
H2508 H 0.85189 0.61942 0.8646 0.0
H2509 H 0.85346 0.62381 0.90139 0.0
S2510 S 0.99088 0.68858 0.87845 0.0
N2511 N 0.96597 0.67246 0.85978 0.0
N2512 N 0.96651 0.68033 0.89875 0.0
C2513 C 0.9365 0.66308 0.89093 0.0
C2514 C 0.93634 0.65874 0.86977 0.0
C2515 C 0.151 0.12777 0.62361 0.0
C2516 C 0.1284 0.15269 0.61304 0.0
C2517 C 0.14951 0.12562 0.6447 0.0
C2518 C 0.12499 0.14796 0.65572 0.0
H2519 H 0.1692 0.1093 0.61553 0.0
H2520 H 0.16833 0.10729 0.65243 0.0
S2521 S 0.05971 0.21697 0.63498 0.0
N2522 N 0.08081 0.19974 0.6152 0.0
N2523 N 0.07761 0.19535 0.65442 0.0
C2524 C 0.10215 0.17256 0.64519 0.0
C2525 C 0.10396 0.17501 0.62399 0.0
C2526 C 0.58819 0.37067 0.39122 0.0
C2527 C 0.61863 0.38103 0.40313 0.0
C2528 C 0.58932 0.3728 0.37037 0.0
C2529 C 0.62071 0.38584 0.36039 0.0
H2530 H 0.56332 0.3598 0.39801 0.0
H2531 H 0.56606 0.36229 0.36192 0.0
S2532 S 0.70684 0.41916 0.38422 0.0
N2533 N 0.68049 0.40684 0.40327 0.0
N2534 N 0.68256 0.41082 0.36378 0.0
C2535 C 0.65096 0.39753 0.37196 0.0
C2536 C 0.64998 0.39506 0.39338 0.0
C2537 C 0.37263 0.89624 0.12359 0.0
C2538 C 0.38946 0.86862 0.11185 0.0
C2539 C 0.37668 0.89668 0.14462 0.0
C2540 C 0.39829 0.86991 0.15445 0.0
H2541 H 0.35783 0.91858 0.11642 0.0
H2542 H 0.36273 0.91786 0.1532 0.0
S2543 S 0.44975 0.79321 0.13018 0.0
N2544 N 0.42878 0.81449 0.11158 0.0
N2545 N 0.43765 0.81592 0.15053 0.0
C2546 C 0.4152 0.84235 0.14272 0.0
C2547 C 0.41036 0.84148 0.12163 0.0
C2548 C 0.91231 0.33927 0.64418 0.0
C2549 C 0.89848 0.36828 0.65608 0.0
C2550 C 0.90789 0.33904 0.62342 0.0
C2551 C 0.8889 0.36745 0.61355 0.0
H2552 H 0.9274 0.31665 0.65093 0.0
H2553 H 0.92087 0.31716 0.61487 0.0
S2554 S 0.84513 0.44861 0.63757 0.0
N2555 N 0.86334 0.4254 0.65643 0.0
N2556 N 0.85504 0.4249 0.61713 0.0
C2557 C 0.8739 0.39613 0.62517 0.0
C2558 C 0.87875 0.39661 0.64648 0.0
C2559 C 0.37869 0.11607 0.37262 0.0
C2560 C 0.40691 0.13176 0.36086 0.0
C2561 C 0.37865 0.11976 0.39365 0.0
C2562 C 0.40668 0.13954 0.40351 0.0
H2563 H 0.35545 0.10276 0.36545 0.0
H2564 H 0.35655 0.10728 0.4022 0.0
S2565 S 0.48575 0.18719 0.37932 0.0
N2566 N 0.46296 0.16819 0.36063 0.0
N2567 N 0.46293 0.17549 0.39969 0.0
C2568 C 0.4352 0.15481 0.39182 0.0
C2569 C 0.43535 0.15076 0.37066 0.0
C2570 C 0.64635 0.62694 0.14438 0.0
C2571 C 0.62898 0.65677 0.15411 0.0
C2572 C 0.6499 0.62615 0.12332 0.0
C2573 C 0.6368 0.65544 0.1114 0.0
H2574 H 0.65713 0.60413 0.15306 0.0
H2575 H 0.6613 0.60175 0.11628 0.0
S2576 S 0.58753 0.73877 0.12926 0.0
N2577 N 0.59715 0.71544 0.14978 0.0
N2578 N 0.60497 0.71422 0.11077 0.0
C2579 C 0.61998 0.68544 0.121 0.0
C2580 C 0.61575 0.68602 0.14217 0.0
C2581 C 0.14913 0.89928 0.87678 0.0
C2582 C 0.11841 0.88992 0.86484 0.0
C2583 C 0.14818 0.89575 0.89784 0.0
C2584 C 0.11636 0.88282 0.90772 0.0
H2585 H 0.17458 0.90791 0.86973 0.0
H2586 H 0.17252 0.90298 0.90639 0.0
S2587 S 0.02797 0.85655 0.88315 0.0
N2588 N 0.0553 0.86835 0.86454 0.0
N2589 N 0.0529 0.86195 0.9035 0.0
C2590 C 0.08521 0.87458 0.8958 0.0
C2591 C 0.08635 0.87814 0.87458 0.0
loop_
_geom_bond_atom_site_label_1
_geom_bond_atom_site_label_2
_geom_bond_distance
_geom_bond_site_symmetry_2
_ccdc_geom_bond_type
Co0 O2 2.143 . S
Co0 O8 2.074 . S
Co0 O11 2.093 . S
Co0 O24 2.097 . S
Co0 N41 2.151 . S
Co0 N49 2.214 . S
Co1 O2 2.160 . S
Co1 O7 2.058 . S
Co1 O17 2.057 . S
Co1 O32 2.037 . S
Co1 N36 2.145 . S
Co1 N57 2.257 . S
O2 Co0 2.143 . S
O2 Co1 2.160 . S
C3 O4 1.278 . S
C3 O11 1.224 . S
O4 C3 1.278 . S
C5 O6 1.245 . S
C5 O17 1.232 . S
O6 C5 1.245 . S
O7 Co1 2.058 . S
O7 C33 1.269 . S
O8 Co0 2.074 . S
O8 C33 1.257 . S
H9 C34 0.930 . S
H10 C40 0.930 . S
O11 Co0 2.093 . S
O11 C3 1.224 . S
H12 C44 0.929 . S
H13 C46 0.930 . S
H14 C47 0.930 1_455 S
H15 C45 0.929 . S
H16 C48 0.928 . S
O17 Co1 2.057 . S
O17 C5 1.232 . S
H18 C37 0.929 . S
H19 C38 0.929 . S
H20 C50 0.931 . S
H21 C42 0.929 . S
H22 C51 0.930 . S
H23 C43 0.931 . S
O24 Co0 2.097 . S
O24 C52 1.214 . S
H25 C53 0.929 . S
H26 C54 0.929 . S
H27 C55 0.930 . S
H28 C56 0.929 . S
H29 C58 0.930 . S
H30 C35 0.930 . S
H31 C39 0.930 . S
O32 Co1 2.037 . S
O32 C52 1.234 . S
C33 O7 1.269 . S
C33 O8 1.257 . S
C34 H9 0.930 . S
C34 C37 1.388 . S
C34 C39 1.418 . S
C35 H30 0.930 . S
C35 C38 1.404 . S
C35 C39 1.353 . S
N36 Co1 2.145 . S
N36 C37 1.397 . S
N36 C38 1.334 . S
C37 H18 0.929 . S
C37 C34 1.388 . S
C37 N36 1.397 . S
C38 H19 0.929 . S
C38 C35 1.404 . S
C38 N36 1.334 . S
C39 H31 0.930 . S
C39 C34 1.418 . S
C39 C35 1.353 . S
C40 H10 0.930 . S
C40 N41 1.330 . S
C40 C42 1.446 . S
N41 Co0 2.151 . S
N41 C40 1.330 . S
N41 C45 1.418 . S
C42 H21 0.929 . S
C42 C40 1.446 . S
C42 C43 1.332 . S
C43 H23 0.931 . S
C43 C42 1.332 . S
C43 C44 1.267 . S
C44 H12 0.929 . S
C44 C43 1.267 . S
C44 C45 1.251 . S
C45 H15 0.929 . S
C45 N41 1.418 . S
C45 C44 1.251 . S
C46 H13 0.930 . S
C46 C48 1.406 . S
C46 C51 1.261 . S
C47 H14 0.930 1_655 S
C47 N49 1.325 1_655 S
C47 C50 1.357 . S
C48 H16 0.928 . S
C48 C46 1.406 . S
C48 N49 1.261 1_655 S
N49 Co0 2.214 . S
N49 C47 1.325 1_455 S
N49 C48 1.261 1_455 S
C50 H20 0.931 . S
C50 C47 1.357 . S
C50 C51 1.312 . S
C51 H22 0.930 . S
C51 C46 1.261 . S
C51 C50 1.312 . S
C52 O24 1.214 . S
C52 O32 1.234 . S
C53 H25 0.929 . S
C53 C56 1.391 . S
C53 C58 1.391 . S
C54 H26 0.929 . S
C54 C55 1.390 1_554 S
C54 N57 1.391 . S
C55 H27 0.930 . S
C55 C54 1.390 1_556 S
C55 C56 1.392 . S
C56 H28 0.929 . S
C56 C53 1.391 . S
C56 C55 1.392 . S
N57 Co1 2.257 . S
N57 C54 1.391 . S
N57 C58 1.388 1_554 S
C58 H29 0.930 . S
C58 C53 1.391 . S
C58 N57 1.388 1_556 S
Co59 O61 2.143 . S
Co59 O67 2.074 . S
Co59 O70 2.093 . S
Co59 O83 2.097 . S
Co59 N100 2.151 . S
Co59 N108 2.214 . S
Co60 O61 2.160 . S
Co60 O66 2.058 . S
Co60 O76 2.057 . S
Co60 O91 2.037 . S
Co60 N95 2.145 . S
Co60 N116 2.257 . S
O61 Co59 2.143 . S
O61 Co60 2.160 . S
C62 O63 1.278 . S
C62 O70 1.224 . S
O63 C62 1.278 . S
C64 O65 1.245 . S
C64 O76 1.232 . S
O65 C64 1.245 . S
O66 Co60 2.058 . S
O66 C92 1.269 . S
O67 Co59 2.074 . S
O67 C92 1.257 . S
H68 C93 0.930 . S
H69 C99 0.930 . S
O70 Co59 2.093 . S
O70 C62 1.224 . S
H71 C103 0.929 . S
H72 C105 0.930 . S
H73 C106 0.930 . S
H74 C104 0.929 . S
H75 C107 0.928 . S
O76 Co60 2.057 . S
O76 C64 1.232 . S
H77 C96 0.929 . S
H78 C97 0.929 . S
H79 C109 0.931 . S
H80 C101 0.929 . S
H81 C110 0.930 . S
H82 C102 0.931 . S
O83 Co59 2.097 . S
O83 C111 1.214 . S
H84 C112 0.929 . S
H85 C113 0.929 . S
H86 C114 0.930 . S
H87 C115 0.929 . S
H88 C117 0.930 . S
H89 C94 0.927 1_455 S
H90 C98 0.930 . S
O91 Co60 2.037 . S
O91 C111 1.234 . S
C92 O66 1.269 . S
C92 O67 1.257 . S
C93 H68 0.930 . S
C93 C96 1.388 1_455 S
C93 C98 1.418 . S
C94 H89 0.927 1_655 S
C94 C97 1.404 . S
C94 C98 1.353 1_655 S
N95 Co60 2.145 . S
N95 C96 1.397 . S
N95 C97 1.334 . S
C96 H77 0.929 . S
C96 C93 1.388 1_655 S
C96 N95 1.397 . S
C97 H78 0.929 . S
C97 C94 1.404 . S
C97 N95 1.334 . S
C98 H90 0.930 . S
C98 C93 1.418 . S
C98 C94 1.353 1_455 S
C99 H69 0.930 . S
C99 N100 1.330 . S
C99 C101 1.446 . S
N100 Co59 2.151 . S
N100 C99 1.330 . S
N100 C104 1.418 . S
C101 H80 0.929 . S
C101 C99 1.446 . S
C101 C102 1.332 . S
C102 H82 0.931 . S
C102 C101 1.332 . S
C102 C103 1.267 . S
C103 H71 0.929 . S
C103 C102 1.267 . S
C103 C104 1.251 . S
C104 H74 0.929 . S
C104 N100 1.418 . S
C104 C103 1.251 . S
C105 H72 0.930 . S
C105 C107 1.406 . S
C105 C110 1.261 . S
C106 H73 0.930 . S
C106 N108 1.325 . S
C106 C109 1.357 . S
C107 H75 0.928 . S
C107 C105 1.406 . S
C107 N108 1.261 . S
N108 Co59 2.214 . S
N108 C106 1.325 . S
N108 C107 1.261 . S
C109 H79 0.931 . S
C109 C106 1.357 . S
C109 C110 1.312 . S
C110 H81 0.930 . S
C110 C105 1.261 . S
C110 C109 1.312 . S
C111 O83 1.214 . S
C111 O91 1.234 . S
C112 H84 0.929 . S
C112 C115 1.391 . S
C112 C117 1.391 . S
C113 H85 0.929 . S
C113 C114 1.390 . S
C113 N116 1.391 . S
C114 H86 0.930 . S
C114 C113 1.390 . S
C114 C115 1.392 . S
C115 H87 0.929 . S
C115 C112 1.391 . S
C115 C114 1.392 . S
N116 Co60 2.257 . S
N116 C113 1.391 . S
N116 C117 1.388 . S
C117 H88 0.930 . S
C117 C112 1.391 . S
C117 N116 1.388 . S
Co118 O120 2.143 . S
Co118 O126 2.074 . S
Co118 O129 2.093 . S
Co118 O142 2.097 . S
Co118 N159 2.151 . S
Co118 N167 2.214 . S
Co119 O120 2.160 . S
Co119 O125 2.058 . S
Co119 O135 2.057 . S
Co119 O150 2.037 . S
Co119 N154 2.145 . S
Co119 N175 2.257 . S
O120 Co118 2.143 . S
O120 Co119 2.160 . S
C121 O122 1.278 . S
C121 O129 1.224 . S
O122 C121 1.278 . S
C123 O124 1.245 . S
C123 O135 1.232 . S
O124 C123 1.245 . S
O125 Co119 2.058 . S
O125 C151 1.269 . S
O126 Co118 2.074 . S
O126 C151 1.257 . S
H127 C152 0.930 . S
H128 C158 0.930 . S
O129 Co118 2.093 . S
O129 C121 1.224 . S
H130 C162 0.929 . S
H131 C164 0.930 . S
H132 C165 0.930 . S
H133 C163 0.929 . S
H134 C166 0.928 . S
O135 Co119 2.057 . S
O135 C123 1.232 . S
H136 C155 0.929 . S
H137 C156 0.929 . S
H138 C168 0.931 . S
H139 C160 0.929 . S
H140 C169 0.930 . S
H141 C161 0.931 . S
O142 Co118 2.097 . S
O142 C170 1.214 . S
H143 C171 0.929 . S
H144 C172 0.929 . S
H145 C173 0.930 . S
H146 C174 0.929 . S
H147 C176 0.930 . S
H148 C153 0.930 . S
H149 C157 0.930 . S
O150 Co119 2.037 . S
O150 C170 1.234 . S
C151 O125 1.269 . S
C151 O126 1.257 . S
C152 H127 0.930 . S
C152 C155 1.388 . S
C152 C157 1.418 . S
C153 H148 0.930 . S
C153 C156 1.404 . S
C153 C157 1.353 . S
N154 Co119 2.145 . S
N154 C155 1.397 . S
N154 C156 1.334 . S
C155 H136 0.929 . S
C155 C152 1.388 . S
C155 N154 1.397 . S
C156 H137 0.929 . S
C156 C153 1.404 . S
C156 N154 1.334 . S
C157 H149 0.930 . S
C157 C152 1.418 . S
C157 C153 1.353 . S
C158 H128 0.930 . S
C158 N159 1.330 . S
C158 C160 1.446 . S
N159 Co118 2.151 . S
N159 C158 1.330 . S
N159 C163 1.418 . S
C160 H139 0.929 . S
C160 C158 1.446 . S
C160 C161 1.332 . S
C161 H141 0.931 . S
C161 C160 1.332 . S
C161 C162 1.267 . S
C162 H130 0.929 . S
C162 C161 1.267 . S
C162 C163 1.251 . S
C163 H133 0.929 . S
C163 N159 1.418 . S
C163 C162 1.251 . S
C164 H131 0.930 . S
C164 C166 1.406 . S
C164 C169 1.261 . S
C165 H132 0.930 . S
C165 N167 1.325 . S
C165 C168 1.357 . S
C166 H134 0.928 . S
C166 C164 1.406 . S
C166 N167 1.261 . S
N167 Co118 2.214 . S
N167 C165 1.325 . S
N167 C166 1.261 . S
C168 H138 0.931 . S
C168 C165 1.357 . S
C168 C169 1.312 . S
C169 H140 0.930 . S
C169 C164 1.261 . S
C169 C168 1.312 . S
C170 O142 1.214 . S
C170 O150 1.234 . S
C171 H143 0.929 . S
C171 C174 1.391 . S
C171 C176 1.391 . S
C172 H144 0.929 . S
C172 C173 1.390 . S
C172 N175 1.391 . S
C173 H145 0.930 . S
C173 C172 1.390 . S
C173 C174 1.392 . S
C174 H146 0.929 . S
C174 C171 1.391 . S
C174 C173 1.392 . S
N175 Co119 2.257 . S
N175 C172 1.391 . S
N175 C176 1.388 . S
C176 H147 0.930 . S
C176 C171 1.391 . S
C176 N175 1.388 . S
Co177 O179 2.143 . S
Co177 O185 2.074 . S
Co177 O188 2.093 . S
Co177 O201 2.097 . S
Co177 N218 2.151 . S
Co177 N226 2.214 . S
Co178 O179 2.160 . S
Co178 O184 2.058 . S
Co178 O194 2.057 . S
Co178 O209 2.037 . S
Co178 N213 2.145 . S
Co178 N234 2.257 . S
O179 Co177 2.143 . S
O179 Co178 2.160 . S
C180 O181 1.278 . S
C180 O188 1.224 . S
O181 C180 1.278 . S
C182 O183 1.245 . S
C182 O194 1.232 . S
O183 C182 1.245 . S
O184 Co178 2.058 . S
O184 C210 1.269 . S
O185 Co177 2.074 . S
O185 C210 1.257 . S
H186 C211 0.930 . S
H187 C217 0.930 . S
O188 Co177 2.093 . S
O188 C180 1.224 . S
H189 C221 0.929 . S
H190 C223 0.930 . S
H191 C224 0.930 . S
H192 C222 0.929 . S
H193 C225 0.928 . S
O194 Co178 2.057 . S
O194 C182 1.232 . S
H195 C214 0.929 . S
H196 C215 0.929 . S
H197 C227 0.931 . S
H198 C219 0.929 . S
H199 C228 0.930 . S
H200 C220 0.931 . S
O201 Co177 2.097 . S
O201 C229 1.214 . S
H202 C230 0.929 . S
H203 C231 0.929 . S
H204 C232 0.930 . S
H205 C233 0.929 . S
H206 C235 0.930 . S
H207 C212 0.930 . S
H208 C216 0.930 . S
O209 Co178 2.037 . S
O209 C229 1.234 . S
C210 O184 1.269 . S
C210 O185 1.257 . S
C211 H186 0.930 . S
C211 C214 1.388 . S
C211 C216 1.418 . S
C212 H207 0.930 . S
C212 C215 1.404 . S
C212 C216 1.353 . S
N213 Co178 2.145 . S
N213 C214 1.397 . S
N213 C215 1.334 . S
C214 H195 0.929 . S
C214 C211 1.388 . S
C214 N213 1.397 . S
C215 H196 0.929 . S
C215 C212 1.404 . S
C215 N213 1.334 . S
C216 H208 0.930 . S
C216 C211 1.418 . S
C216 C212 1.353 . S
C217 H187 0.930 . S
C217 N218 1.330 . S
C217 C219 1.446 . S
N218 Co177 2.151 . S
N218 C217 1.330 . S
N218 C222 1.418 . S
C219 H198 0.929 . S
C219 C217 1.446 . S
C219 C220 1.332 . S
C220 H200 0.931 . S
C220 C219 1.332 . S
C220 C221 1.267 . S
C221 H189 0.929 . S
C221 C220 1.267 . S
C221 C222 1.251 . S
C222 H192 0.929 . S
C222 N218 1.418 . S
C222 C221 1.251 . S
C223 H190 0.930 . S
C223 C225 1.406 . S
C223 C228 1.261 . S
C224 H191 0.930 . S
C224 N226 1.325 . S
C224 C227 1.357 . S
C225 H193 0.928 . S
C225 C223 1.406 . S
C225 N226 1.261 . S
N226 Co177 2.214 . S
N226 C224 1.325 . S
N226 C225 1.261 . S
C227 H197 0.931 . S
C227 C224 1.357 . S
C227 C228 1.312 . S
C228 H199 0.930 . S
C228 C223 1.261 . S
C228 C227 1.312 . S
C229 O201 1.214 . S
C229 O209 1.234 . S
C230 H202 0.929 . S
C230 C233 1.391 . S
C230 C235 1.391 . S
C231 H203 0.929 . S
C231 C232 1.390 . S
C231 N234 1.391 . S
C232 H204 0.930 . S
C232 C231 1.390 . S
C232 C233 1.392 . S
C233 H205 0.929 . S
C233 C230 1.391 . S
C233 C232 1.392 . S
N234 Co178 2.257 . S
N234 C231 1.391 . S
N234 C235 1.388 . S
C235 H206 0.930 . S
C235 C230 1.391 . S
C235 N234 1.388 . S
Co236 O238 2.143 . S
Co236 O244 2.074 . S
Co236 O247 2.093 . S
Co236 O260 2.097 . S
Co236 N277 2.151 . S
Co236 N285 2.214 . S
Co237 O238 2.160 . S
Co237 O243 2.058 . S
Co237 O253 2.057 . S
Co237 O268 2.037 . S
Co237 N272 2.145 . S
Co237 N293 2.257 . S
O238 Co236 2.143 . S
O238 Co237 2.160 . S
C239 O240 1.278 . S
C239 O247 1.224 . S
O240 C239 1.278 . S
C241 O242 1.245 . S
C241 O253 1.232 . S
O242 C241 1.245 . S
O243 Co237 2.058 . S
O243 C269 1.269 . S
O244 Co236 2.074 . S
O244 C269 1.257 . S
H245 C270 0.930 . S
H246 C276 0.930 . S
O247 Co236 2.093 . S
O247 C239 1.224 . S
H248 C280 0.929 . S
H249 C282 0.930 . S
H250 C283 0.930 1_455 S
H251 C281 0.929 . S
H252 C284 0.928 . S
O253 Co237 2.057 . S
O253 C241 1.232 . S
H254 C273 0.929 . S
H255 C274 0.929 . S
H256 C286 0.931 . S
H257 C278 0.929 . S
H258 C287 0.930 . S
H259 C279 0.931 . S
O260 Co236 2.097 . S
O260 C288 1.214 . S
H261 C289 0.929 . S
H262 C290 0.929 . S
H263 C291 0.930 . S
H264 C292 0.929 . S
H265 C294 0.930 . S
H266 C271 0.930 . S
H267 C275 0.930 . S
O268 Co237 2.037 . S
O268 C288 1.234 . S
C269 O243 1.269 . S
C269 O244 1.257 . S
C270 H245 0.930 . S
C270 C273 1.388 . S
C270 C275 1.418 . S
C271 H266 0.930 . S
C271 C274 1.404 . S
C271 C275 1.353 . S
N272 Co237 2.145 . S
N272 C273 1.397 . S
N272 C274 1.334 . S
C273 H254 0.929 . S
C273 C270 1.388 . S
C273 N272 1.397 . S
C274 H255 0.929 . S
C274 C271 1.404 . S
C274 N272 1.334 . S
C275 H267 0.930 . S
C275 C270 1.418 . S
C275 C271 1.353 . S
C276 H246 0.930 . S
C276 N277 1.330 . S
C276 C278 1.446 . S
N277 Co236 2.151 . S
N277 C276 1.330 . S
N277 C281 1.418 . S
C278 H257 0.929 . S
C278 C276 1.446 . S
C278 C279 1.332 . S
C279 H259 0.931 . S
C279 C278 1.332 . S
C279 C280 1.267 . S
C280 H248 0.929 . S
C280 C279 1.267 . S
C280 C281 1.251 . S
C281 H251 0.929 . S
C281 N277 1.418 . S
C281 C280 1.251 . S
C282 H249 0.930 . S
C282 C284 1.406 . S
C282 C287 1.261 . S
C283 H250 0.930 1_655 S
C283 N285 1.325 1_655 S
C283 C286 1.357 . S
C284 H252 0.928 . S
C284 C282 1.406 . S
C284 N285 1.261 1_655 S
N285 Co236 2.214 . S
N285 C283 1.325 1_455 S
N285 C284 1.261 1_455 S
C286 H256 0.931 . S
C286 C283 1.357 . S
C286 C287 1.312 . S
C287 H258 0.930 . S
C287 C282 1.261 . S
C287 C286 1.312 . S
C288 O260 1.214 . S
C288 O268 1.234 . S
C289 H261 0.929 . S
C289 C292 1.391 . S
C289 C294 1.391 . S
C290 H262 0.929 . S
C290 C291 1.390 . S
C290 N293 1.391 . S
C291 H263 0.930 . S
C291 C290 1.390 . S
C291 C292 1.392 . S
C292 H264 0.929 . S
C292 C289 1.391 . S
C292 C291 1.392 . S
N293 Co237 2.257 . S
N293 C290 1.391 . S
N293 C294 1.388 . S
C294 H265 0.930 . S
C294 C289 1.391 . S
C294 N293 1.388 . S
Co295 O297 2.143 . S
Co295 O303 2.074 . S
Co295 O306 2.093 . S
Co295 O319 2.097 . S
Co295 N336 2.151 . S
Co295 N344 2.214 . S
Co296 O297 2.160 . S
Co296 O302 2.058 . S
Co296 O312 2.057 . S
Co296 O327 2.037 . S
Co296 N331 2.145 . S
Co296 N352 2.257 . S
O297 Co295 2.143 . S
O297 Co296 2.160 . S
C298 O299 1.278 . S
C298 O306 1.224 . S
O299 C298 1.278 . S
C300 O301 1.245 . S
C300 O312 1.232 . S
O301 C300 1.245 . S
O302 Co296 2.058 . S
O302 C328 1.269 . S
O303 Co295 2.074 . S
O303 C328 1.257 . S
H304 C329 0.930 . S
H305 C335 0.930 . S
O306 Co295 2.093 . S
O306 C298 1.224 . S
H307 C339 0.929 . S
H308 C341 0.930 . S
H309 C342 0.930 . S
H310 C340 0.929 . S
H311 C343 0.928 . S
O312 Co296 2.057 . S
O312 C300 1.232 . S
H313 C332 0.929 . S
H314 C333 0.929 . S
H315 C345 0.931 . S
H316 C337 0.929 . S
H317 C346 0.930 . S
H318 C338 0.931 . S
O319 Co295 2.097 . S
O319 C347 1.214 . S
H320 C348 0.929 . S
H321 C349 0.929 . S
H322 C350 0.930 . S
H323 C351 0.929 . S
H324 C353 0.930 . S
H325 C330 0.930 . S
H326 C334 0.930 . S
O327 Co296 2.037 . S
O327 C347 1.234 . S
C328 O302 1.269 . S
C328 O303 1.257 . S
C329 H304 0.930 . S
C329 C332 1.388 . S
C329 C334 1.418 . S
C330 H325 0.930 . S
C330 C333 1.404 . S
C330 C334 1.353 . S
N331 Co296 2.145 . S
N331 C332 1.397 . S
N331 C333 1.334 . S
C332 H313 0.929 . S
C332 C329 1.388 . S
C332 N331 1.397 . S
C333 H314 0.929 . S
C333 C330 1.404 . S
C333 N331 1.334 . S
C334 H326 0.930 . S
C334 C329 1.418 . S
C334 C330 1.353 . S
C335 H305 0.930 . S
C335 N336 1.330 . S
C335 C337 1.446 . S
N336 Co295 2.151 . S
N336 C335 1.330 . S
N336 C340 1.418 . S
C337 H316 0.929 . S
C337 C335 1.446 . S
C337 C338 1.332 . S
C338 H318 0.931 . S
C338 C337 1.332 . S
C338 C339 1.267 . S
C339 H307 0.929 . S
C339 C338 1.267 . S
C339 C340 1.251 . S
C340 H310 0.929 . S
C340 N336 1.418 . S
C340 C339 1.251 . S
C341 H308 0.930 . S
C341 C343 1.406 . S
C341 C346 1.261 . S
C342 H309 0.930 . S
C342 N344 1.325 . S
C342 C345 1.357 . S
C343 H311 0.928 . S
C343 C341 1.406 . S
C343 N344 1.261 . S
N344 Co295 2.214 . S
N344 C342 1.325 . S
N344 C343 1.261 . S
C345 H315 0.931 . S
C345 C342 1.357 . S
C345 C346 1.312 . S
C346 H317 0.930 . S
C346 C341 1.261 . S
C346 C345 1.312 . S
C347 O319 1.214 . S
C347 O327 1.234 . S
C348 H320 0.929 . S
C348 C351 1.391 . S
C348 C353 1.391 . S
C349 H321 0.929 . S
C349 C350 1.390 . S
C349 N352 1.391 . S
C350 H322 0.930 . S
C350 C349 1.390 . S
C350 C351 1.392 . S
C351 H323 0.929 . S
C351 C348 1.391 . S
C351 C350 1.392 . S
N352 Co296 2.257 . S
N352 C349 1.391 . S
N352 C353 1.388 . S
C353 H324 0.930 . S
C353 C348 1.391 . S
C353 N352 1.388 . S
Co354 O356 2.143 . S
Co354 O362 2.074 . S
Co354 O365 2.093 . S
Co354 O378 2.097 . S
Co354 N395 2.151 . S
Co354 N403 2.214 . S
Co355 O356 2.160 . S
Co355 O361 2.058 . S
Co355 O371 2.057 . S
Co355 O386 2.037 . S
Co355 N390 2.145 . S
Co355 N411 2.257 . S
O356 Co354 2.143 . S
O356 Co355 2.160 . S
C357 O358 1.278 . S
C357 O365 1.224 . S
O358 C357 1.278 . S
C359 O360 1.245 . S
C359 O371 1.232 . S
O360 C359 1.245 . S
O361 Co355 2.058 . S
O361 C387 1.269 . S
O362 Co354 2.074 . S
O362 C387 1.257 . S
H363 C388 0.930 . S
H364 C394 0.930 . S
O365 Co354 2.093 . S
O365 C357 1.224 . S
H366 C398 0.929 . S
H367 C400 0.930 . S
H368 C401 0.930 . S
H369 C399 0.929 . S
H370 C402 0.928 . S
O371 Co355 2.057 . S
O371 C359 1.232 . S
H372 C391 0.929 . S
H373 C392 0.929 . S
H374 C404 0.931 . S
H375 C396 0.929 . S
H376 C405 0.930 . S
H377 C397 0.931 . S
O378 Co354 2.097 . S
O378 C406 1.214 . S
H379 C407 0.929 . S
H380 C408 0.929 . S
H381 C409 0.930 . S
H382 C410 0.929 . S
H383 C412 0.930 . S
H384 C389 0.930 . S
H385 C393 0.930 . S
O386 Co355 2.037 . S
O386 C406 1.234 . S
C387 O361 1.269 . S
C387 O362 1.257 . S
C388 H363 0.930 . S
C388 C391 1.388 . S
C388 C393 1.418 . S
C389 H384 0.930 . S
C389 C392 1.404 . S
C389 C393 1.353 . S
N390 Co355 2.145 . S
N390 C391 1.397 . S
N390 C392 1.334 . S
C391 H372 0.929 . S
C391 C388 1.388 . S
C391 N390 1.397 . S
C392 H373 0.929 . S
C392 C389 1.404 . S
C392 N390 1.334 . S
C393 H385 0.930 . S
C393 C388 1.418 . S
C393 C389 1.353 . S
C394 H364 0.930 . S
C394 N395 1.330 . S
C394 C396 1.446 . S
N395 Co354 2.151 . S
N395 C394 1.330 . S
N395 C399 1.418 . S
C396 H375 0.929 . S
C396 C394 1.446 . S
C396 C397 1.332 . S
C397 H377 0.931 . S
C397 C396 1.332 . S
C397 C398 1.267 . S
C398 H366 0.929 . S
C398 C397 1.267 . S
C398 C399 1.251 . S
C399 H369 0.929 . S
C399 N395 1.418 . S
C399 C398 1.251 . S
C400 H367 0.930 . S
C400 C402 1.406 . S
C400 C405 1.261 . S
C401 H368 0.930 . S
C401 N403 1.325 . S
C401 C404 1.357 . S
C402 H370 0.928 . S
C402 C400 1.406 . S
C402 N403 1.261 . S
N403 Co354 2.214 . S
N403 C401 1.325 . S
N403 C402 1.261 . S
C404 H374 0.931 . S
C404 C401 1.357 . S
C404 C405 1.312 . S
C405 H376 0.930 . S
C405 C400 1.261 . S
C405 C404 1.312 . S
C406 O378 1.214 . S
C406 O386 1.234 . S
C407 H379 0.929 . S
C407 C410 1.391 . S
C407 C412 1.391 . S
C408 H380 0.929 . S
C408 C409 1.390 1_556 S
C408 N411 1.391 . S
C409 H381 0.930 . S
C409 C408 1.390 1_554 S
C409 C410 1.392 . S
C410 H382 0.929 . S
C410 C407 1.391 . S
C410 C409 1.392 . S
N411 Co355 2.257 . S
N411 C408 1.391 . S
N411 C412 1.388 1_556 S
C412 H383 0.930 . S
C412 C407 1.391 . S
C412 N411 1.388 1_554 S
Co413 O415 2.143 . S
Co413 O421 2.074 . S
Co413 O424 2.093 . S
Co413 O437 2.097 . S
Co413 N454 2.151 . S
Co413 N462 2.214 . S
Co414 O415 2.160 . S
Co414 O420 2.058 . S
Co414 O430 2.057 . S
Co414 O445 2.037 . S
Co414 N449 2.145 . S
Co414 N470 2.257 . S
O415 Co413 2.143 . S
O415 Co414 2.160 . S
C416 O417 1.278 . S
C416 O424 1.224 . S
O417 C416 1.278 . S
C418 O419 1.245 . S
C418 O430 1.232 . S
O419 C418 1.245 . S
O420 Co414 2.058 . S
O420 C446 1.269 . S
O421 Co413 2.074 . S
O421 C446 1.257 . S
H422 C447 0.930 . S
H423 C453 0.930 . S
O424 Co413 2.093 . S
O424 C416 1.224 . S
H425 C457 0.929 . S
H426 C459 0.930 . S
H427 C460 0.930 . S
H428 C458 0.929 . S
H429 C461 0.928 . S
O430 Co414 2.057 . S
O430 C418 1.232 . S
H431 C450 0.929 . S
H432 C451 0.929 . S
H433 C463 0.931 . S
H434 C455 0.929 . S
H435 C464 0.930 . S
H436 C456 0.931 . S
O437 Co413 2.097 . S
O437 C465 1.214 . S
H438 C466 0.929 . S
H439 C467 0.929 . S
H440 C468 0.930 . S
H441 C469 0.929 . S
H442 C471 0.930 . S
H443 C448 0.927 1_455 S
H444 C452 0.930 . S
O445 Co414 2.037 . S
O445 C465 1.234 . S
C446 O420 1.269 . S
C446 O421 1.257 . S
C447 H422 0.930 . S
C447 C450 1.388 1_455 S
C447 C452 1.418 . S
C448 H443 0.927 1_655 S
C448 C451 1.404 . S
C448 C452 1.353 1_655 S
N449 Co414 2.145 . S
N449 C450 1.397 . S
N449 C451 1.334 . S
C450 H431 0.929 . S
C450 C447 1.388 1_655 S
C450 N449 1.397 . S
C451 H432 0.929 . S
C451 C448 1.404 . S
C451 N449 1.334 . S
C452 H444 0.930 . S
C452 C447 1.418 . S
C452 C448 1.353 1_455 S
C453 H423 0.930 . S
C453 N454 1.330 . S
C453 C455 1.446 . S
N454 Co413 2.151 . S
N454 C453 1.330 . S
N454 C458 1.418 . S
C455 H434 0.929 . S
C455 C453 1.446 . S
C455 C456 1.332 . S
C456 H436 0.931 . S
C456 C455 1.332 . S
C456 C457 1.267 . S
C457 H425 0.929 . S
C457 C456 1.267 . S
C457 C458 1.251 . S
C458 H428 0.929 . S
C458 N454 1.418 . S
C458 C457 1.251 . S
C459 H426 0.930 . S
C459 C461 1.406 . S
C459 C464 1.261 . S
C460 H427 0.930 . S
C460 N462 1.325 . S
C460 C463 1.357 . S
C461 H429 0.928 . S
C461 C459 1.406 . S
C461 N462 1.261 . S
N462 Co413 2.214 . S
N462 C460 1.325 . S
N462 C461 1.261 . S
C463 H433 0.931 . S
C463 C460 1.357 . S
C463 C464 1.312 . S
C464 H435 0.930 . S
C464 C459 1.261 . S
C464 C463 1.312 . S
C465 O437 1.214 . S
C465 O445 1.234 . S
C466 H438 0.929 . S
C466 C469 1.391 . S
C466 C471 1.391 . S
C467 H439 0.929 . S
C467 C468 1.390 . S
C467 N470 1.391 . S
C468 H440 0.930 . S
C468 C467 1.390 . S
C468 C469 1.392 . S
C469 H441 0.929 . S
C469 C466 1.391 . S
C469 C468 1.392 . S
N470 Co414 2.257 . S
N470 C467 1.391 . S
N470 C471 1.388 . S
C471 H442 0.930 . S
C471 C466 1.391 . S
C471 N470 1.388 . S
Co472 O474 2.143 . S
Co472 O480 2.074 . S
Co472 O483 2.093 . S
Co472 O496 2.097 . S
Co472 N513 2.151 . S
Co472 N521 2.214 . S
Co473 O474 2.160 . S
Co473 O479 2.058 . S
Co473 O489 2.057 . S
Co473 O504 2.037 . S
Co473 N508 2.145 . S
Co473 N529 2.257 . S
O474 Co472 2.143 . S
O474 Co473 2.160 . S
C475 O476 1.278 . S
C475 O483 1.224 . S
O476 C475 1.278 . S
C477 O478 1.245 . S
C477 O489 1.232 . S
O478 C477 1.245 . S
O479 Co473 2.058 . S
O479 C505 1.269 . S
O480 Co472 2.074 . S
O480 C505 1.257 . S
H481 C506 0.930 . S
H482 C512 0.930 . S
O483 Co472 2.093 . S
O483 C475 1.224 . S
H484 C516 0.929 . S
H485 C518 0.930 . S
H486 C519 0.930 1_655 S
H487 C517 0.929 . S
H488 C520 0.928 . S
O489 Co473 2.057 . S
O489 C477 1.232 . S
H490 C509 0.929 . S
H491 C510 0.929 . S
H492 C522 0.931 . S
H493 C514 0.929 . S
H494 C523 0.930 . S
H495 C515 0.931 . S
O496 Co472 2.097 . S
O496 C524 1.214 . S
H497 C525 0.929 . S
H498 C526 0.929 . S
H499 C527 0.930 . S
H500 C528 0.929 . S
H501 C530 0.930 . S
H502 C507 0.930 . S
H503 C511 0.930 . S
O504 Co473 2.037 . S
O504 C524 1.234 . S
C505 O479 1.269 . S
C505 O480 1.257 . S
C506 H481 0.930 . S
C506 C509 1.388 . S
C506 C511 1.418 . S
C507 H502 0.930 . S
C507 C510 1.404 . S
C507 C511 1.353 . S
N508 Co473 2.145 . S
N508 C509 1.397 . S
N508 C510 1.334 . S
C509 H490 0.929 . S
C509 C506 1.388 . S
C509 N508 1.397 . S
C510 H491 0.929 . S
C510 C507 1.404 . S
C510 N508 1.334 . S
C511 H503 0.930 . S
C511 C506 1.418 . S
C511 C507 1.353 . S
C512 H482 0.930 . S
C512 N513 1.330 . S
C512 C514 1.446 . S
N513 Co472 2.151 . S
N513 C512 1.330 . S
N513 C517 1.418 . S
C514 H493 0.929 . S
C514 C512 1.446 . S
C514 C515 1.332 . S
C515 H495 0.931 . S
C515 C514 1.332 . S
C515 C516 1.267 . S
C516 H484 0.929 . S
C516 C515 1.267 . S
C516 C517 1.251 . S
C517 H487 0.929 . S
C517 N513 1.418 . S
C517 C516 1.251 . S
C518 H485 0.930 . S
C518 C520 1.406 . S
C518 C523 1.261 . S
C519 H486 0.930 1_455 S
C519 N521 1.325 1_455 S
C519 C522 1.357 . S
C520 H488 0.928 . S
C520 C518 1.406 . S
C520 N521 1.261 1_455 S
N521 Co472 2.214 . S
N521 C519 1.325 1_655 S
N521 C520 1.261 1_655 S
C522 H492 0.931 . S
C522 C519 1.357 . S
C522 C523 1.312 . S
C523 H494 0.930 . S
C523 C518 1.261 . S
C523 C522 1.312 . S
C524 O496 1.214 . S
C524 O504 1.234 . S
C525 H497 0.929 . S
C525 C528 1.391 . S
C525 C530 1.391 . S
C526 H498 0.929 . S
C526 C527 1.390 1_556 S
C526 N529 1.391 . S
C527 H499 0.930 . S
C527 C526 1.390 1_554 S
C527 C528 1.392 . S
C528 H500 0.929 . S
C528 C525 1.391 . S
C528 C527 1.392 . S
N529 Co473 2.257 . S
N529 C526 1.391 . S
N529 C530 1.388 1_556 S
C530 H501 0.930 . S
C530 C525 1.391 . S
C530 N529 1.388 1_554 S
Co531 O533 2.143 . S
Co531 O539 2.074 . S
Co531 O542 2.093 . S
Co531 O555 2.097 . S
Co531 N572 2.151 . S
Co531 N580 2.214 . S
Co532 O533 2.160 . S
Co532 O538 2.058 . S
Co532 O548 2.057 . S
Co532 O563 2.037 . S
Co532 N567 2.145 . S
Co532 N588 2.257 . S
O533 Co531 2.143 . S
O533 Co532 2.160 . S
C534 O535 1.278 . S
C534 O542 1.224 . S
O535 C534 1.278 . S
C536 O537 1.245 . S
C536 O548 1.232 . S
O537 C536 1.245 . S
O538 Co532 2.058 . S
O538 C564 1.269 . S
O539 Co531 2.074 . S
O539 C564 1.257 . S
H540 C565 0.930 . S
H541 C571 0.930 . S
O542 Co531 2.093 . S
O542 C534 1.224 . S
H543 C575 0.929 . S
H544 C577 0.930 . S
H545 C578 0.930 . S
H546 C576 0.929 . S
H547 C579 0.928 . S
O548 Co532 2.057 . S
O548 C536 1.232 . S
H549 C568 0.929 . S
H550 C569 0.929 . S
H551 C581 0.931 . S
H552 C573 0.929 . S
H553 C582 0.930 . S
H554 C574 0.931 . S
O555 Co531 2.097 . S
O555 C583 1.214 . S
H556 C584 0.929 . S
H557 C585 0.929 . S
H558 C586 0.930 . S
H559 C587 0.929 . S
H560 C589 0.930 . S
H561 C566 0.927 1_655 S
H562 C570 0.930 . S
O563 Co532 2.037 . S
O563 C583 1.234 . S
C564 O538 1.269 . S
C564 O539 1.257 . S
C565 H540 0.930 . S
C565 C568 1.388 1_655 S
C565 C570 1.418 . S
C566 H561 0.927 1_455 S
C566 C569 1.404 . S
C566 C570 1.353 1_455 S
N567 Co532 2.145 . S
N567 C568 1.397 . S
N567 C569 1.334 . S
C568 H549 0.929 . S
C568 C565 1.388 1_455 S
C568 N567 1.397 . S
C569 H550 0.929 . S
C569 C566 1.404 . S
C569 N567 1.334 . S
C570 H562 0.930 . S
C570 C565 1.418 . S
C570 C566 1.353 1_655 S
C571 H541 0.930 . S
C571 N572 1.330 . S
C571 C573 1.446 . S
N572 Co531 2.151 . S
N572 C571 1.330 . S
N572 C576 1.418 . S
C573 H552 0.929 . S
C573 C571 1.446 . S
C573 C574 1.332 . S
C574 H554 0.931 . S
C574 C573 1.332 . S
C574 C575 1.267 . S
C575 H543 0.929 . S
C575 C574 1.267 . S
C575 C576 1.251 . S
C576 H546 0.929 . S
C576 N572 1.418 . S
C576 C575 1.251 . S
C577 H544 0.930 . S
C577 C579 1.406 . S
C577 C582 1.261 . S
C578 H545 0.930 . S
C578 N580 1.325 . S
C578 C581 1.357 . S
C579 H547 0.928 . S
C579 C577 1.406 . S
C579 N580 1.261 . S
N580 Co531 2.214 . S
N580 C578 1.325 . S
N580 C579 1.261 . S
C581 H551 0.931 . S
C581 C578 1.357 . S
C581 C582 1.312 . S
C582 H553 0.930 . S
C582 C577 1.261 . S
C582 C581 1.312 . S
C583 O555 1.214 . S
C583 O563 1.234 . S
C584 H556 0.929 . S
C584 C587 1.391 . S
C584 C589 1.391 . S
C585 H557 0.929 . S
C585 C586 1.390 . S
C585 N588 1.391 . S
C586 H558 0.930 . S
C586 C585 1.390 . S
C586 C587 1.392 . S
C587 H559 0.929 . S
C587 C584 1.391 . S
C587 C586 1.392 . S
N588 Co532 2.257 . S
N588 C585 1.391 . S
N588 C589 1.388 . S
C589 H560 0.930 . S
C589 C584 1.391 . S
C589 N588 1.388 . S
Co590 O592 2.143 . S
Co590 O598 2.074 . S
Co590 O601 2.093 . S
Co590 O614 2.097 . S
Co590 N631 2.151 . S
Co590 N639 2.214 . S
Co591 O592 2.160 . S
Co591 O597 2.058 . S
Co591 O607 2.057 . S
Co591 O622 2.037 . S
Co591 N626 2.145 . S
Co591 N647 2.257 . S
O592 Co590 2.143 . S
O592 Co591 2.160 . S
C593 O594 1.278 . S
C593 O601 1.224 . S
O594 C593 1.278 . S
C595 O596 1.245 . S
C595 O607 1.232 . S
O596 C595 1.245 . S
O597 Co591 2.058 . S
O597 C623 1.269 . S
O598 Co590 2.074 . S
O598 C623 1.257 . S
H599 C624 0.930 . S
H600 C630 0.930 . S
O601 Co590 2.093 . S
O601 C593 1.224 . S
H602 C634 0.929 . S
H603 C636 0.930 . S
H604 C637 0.930 . S
H605 C635 0.929 . S
H606 C638 0.928 . S
O607 Co591 2.057 . S
O607 C595 1.232 . S
H608 C627 0.929 . S
H609 C628 0.929 . S
H610 C640 0.931 . S
H611 C632 0.929 . S
H612 C641 0.930 . S
H613 C633 0.931 . S
O614 Co590 2.097 . S
O614 C642 1.214 . S
H615 C643 0.929 . S
H616 C644 0.929 . S
H617 C645 0.930 . S
H618 C646 0.929 . S
H619 C648 0.930 . S
H620 C625 0.930 . S
H621 C629 0.930 . S
O622 Co591 2.037 . S
O622 C642 1.234 . S
C623 O597 1.269 . S
C623 O598 1.257 . S
C624 H599 0.930 . S
C624 C627 1.388 . S
C624 C629 1.418 . S
C625 H620 0.930 . S
C625 C628 1.404 . S
C625 C629 1.353 . S
N626 Co591 2.145 . S
N626 C627 1.397 . S
N626 C628 1.334 . S
C627 H608 0.929 . S
C627 C624 1.388 . S
C627 N626 1.397 . S
C628 H609 0.929 . S
C628 C625 1.404 . S
C628 N626 1.334 . S
C629 H621 0.930 . S
C629 C624 1.418 . S
C629 C625 1.353 . S
C630 H600 0.930 . S
C630 N631 1.330 . S
C630 C632 1.446 . S
N631 Co590 2.151 . S
N631 C630 1.330 . S
N631 C635 1.418 . S
C632 H611 0.929 . S
C632 C630 1.446 . S
C632 C633 1.332 . S
C633 H613 0.931 . S
C633 C632 1.332 . S
C633 C634 1.267 . S
C634 H602 0.929 . S
C634 C633 1.267 . S
C634 C635 1.251 . S
C635 H605 0.929 . S
C635 N631 1.418 . S
C635 C634 1.251 . S
C636 H603 0.930 . S
C636 C638 1.406 . S
C636 C641 1.261 . S
C637 H604 0.930 . S
C637 N639 1.325 . S
C637 C640 1.357 . S
C638 H606 0.928 . S
C638 C636 1.406 . S
C638 N639 1.261 . S
N639 Co590 2.214 . S
N639 C637 1.325 . S
N639 C638 1.261 . S
C640 H610 0.931 . S
C640 C637 1.357 . S
C640 C641 1.312 . S
C641 H612 0.930 . S
C641 C636 1.261 . S
C641 C640 1.312 . S
C642 O614 1.214 . S
C642 O622 1.234 . S
C643 H615 0.929 . S
C643 C646 1.391 . S
C643 C648 1.391 . S
C644 H616 0.929 . S
C644 C645 1.390 . S
C644 N647 1.391 . S
C645 H617 0.930 . S
C645 C644 1.390 . S
C645 C646 1.392 . S
C646 H618 0.929 . S
C646 C643 1.391 . S
C646 C645 1.392 . S
N647 Co591 2.257 . S
N647 C644 1.391 . S
N647 C648 1.388 . S
C648 H619 0.930 . S
C648 C643 1.391 . S
C648 N647 1.388 . S
Co649 O651 2.143 . S
Co649 O657 2.074 . S
Co649 O660 2.093 . S
Co649 O673 2.097 . S
Co649 N690 2.151 . S
Co649 N698 2.214 . S
Co650 O651 2.160 . S
Co650 O656 2.058 . S
Co650 O666 2.057 . S
Co650 O681 2.037 . S
Co650 N685 2.145 . S
Co650 N706 2.257 . S
O651 Co649 2.143 . S
O651 Co650 2.160 . S
C652 O653 1.278 . S
C652 O660 1.224 . S
O653 C652 1.278 . S
C654 O655 1.245 . S
C654 O666 1.232 . S
O655 C654 1.245 . S
O656 Co650 2.058 . S
O656 C682 1.269 . S
O657 Co649 2.074 . S
O657 C682 1.257 . S
H658 C683 0.930 . S
H659 C689 0.930 . S
O660 Co649 2.093 . S
O660 C652 1.224 . S
H661 C693 0.929 . S
H662 C695 0.930 . S
H663 C696 0.930 . S
H664 C694 0.929 . S
H665 C697 0.928 . S
O666 Co650 2.057 . S
O666 C654 1.232 . S
H667 C686 0.929 . S
H668 C687 0.929 . S
H669 C699 0.931 . S
H670 C691 0.929 . S
H671 C700 0.930 . S
H672 C692 0.931 . S
O673 Co649 2.097 . S
O673 C701 1.214 . S
H674 C702 0.929 . S
H675 C703 0.929 . S
H676 C704 0.930 . S
H677 C705 0.929 . S
H678 C707 0.930 . S
H679 C684 0.930 . S
H680 C688 0.930 . S
O681 Co650 2.037 . S
O681 C701 1.234 . S
C682 O656 1.269 . S
C682 O657 1.257 . S
C683 H658 0.930 . S
C683 C686 1.388 . S
C683 C688 1.418 . S
C684 H679 0.930 . S
C684 C687 1.404 . S
C684 C688 1.353 . S
N685 Co650 2.145 . S
N685 C686 1.397 . S
N685 C687 1.334 . S
C686 H667 0.929 . S
C686 C683 1.388 . S
C686 N685 1.397 . S
C687 H668 0.929 . S
C687 C684 1.404 . S
C687 N685 1.334 . S
C688 H680 0.930 . S
C688 C683 1.418 . S
C688 C684 1.353 . S
C689 H659 0.930 . S
C689 N690 1.330 . S
C689 C691 1.446 . S
N690 Co649 2.151 . S
N690 C689 1.330 . S
N690 C694 1.418 . S
C691 H670 0.929 . S
C691 C689 1.446 . S
C691 C692 1.332 . S
C692 H672 0.931 . S
C692 C691 1.332 . S
C692 C693 1.267 . S
C693 H661 0.929 . S
C693 C692 1.267 . S
C693 C694 1.251 . S
C694 H664 0.929 . S
C694 N690 1.418 . S
C694 C693 1.251 . S
C695 H662 0.930 . S
C695 C697 1.406 . S
C695 C700 1.261 . S
C696 H663 0.930 . S
C696 N698 1.325 . S
C696 C699 1.357 . S
C697 H665 0.928 . S
C697 C695 1.406 . S
C697 N698 1.261 . S
N698 Co649 2.214 . S
N698 C696 1.325 . S
N698 C697 1.261 . S
C699 H669 0.931 . S
C699 C696 1.357 . S
C699 C700 1.312 . S
C700 H671 0.930 . S
C700 C695 1.261 . S
C700 C699 1.312 . S
C701 O673 1.214 . S
C701 O681 1.234 . S
C702 H674 0.929 . S
C702 C705 1.391 . S
C702 C707 1.391 . S
C703 H675 0.929 . S
C703 C704 1.390 . S
C703 N706 1.391 . S
C704 H676 0.930 . S
C704 C703 1.390 . S
C704 C705 1.392 . S
C705 H677 0.929 . S
C705 C702 1.391 . S
C705 C704 1.392 . S
N706 Co650 2.257 . S
N706 C703 1.391 . S
N706 C707 1.388 . S
C707 H678 0.930 . S
C707 C702 1.391 . S
C707 N706 1.388 . S
Co708 O710 2.143 . S
Co708 O716 2.074 . S
Co708 O719 2.093 . S
Co708 O732 2.097 . S
Co708 N749 2.151 . S
Co708 N757 2.214 . S
Co709 O710 2.160 . S
Co709 O715 2.058 . S
Co709 O725 2.057 . S
Co709 O740 2.037 . S
Co709 N744 2.145 . S
Co709 N765 2.257 . S
O710 Co708 2.143 . S
O710 Co709 2.160 . S
C711 O712 1.278 . S
C711 O719 1.224 . S
O712 C711 1.278 . S
C713 O714 1.245 . S
C713 O725 1.232 . S
O714 C713 1.245 . S
O715 Co709 2.058 . S
O715 C741 1.269 . S
O716 Co708 2.074 . S
O716 C741 1.257 . S
H717 C742 0.930 . S
H718 C748 0.930 . S
O719 Co708 2.093 . S
O719 C711 1.224 . S
H720 C752 0.929 . S
H721 C754 0.930 . S
H722 C755 0.930 1_655 S
H723 C753 0.929 . S
H724 C756 0.928 . S
O725 Co709 2.057 . S
O725 C713 1.232 . S
H726 C745 0.929 . S
H727 C746 0.929 . S
H728 C758 0.931 . S
H729 C750 0.929 . S
H730 C759 0.930 . S
H731 C751 0.931 . S
O732 Co708 2.097 . S
O732 C760 1.214 . S
H733 C761 0.929 . S
H734 C762 0.929 . S
H735 C763 0.930 . S
H736 C764 0.929 . S
H737 C766 0.930 . S
H738 C743 0.930 . S
H739 C747 0.930 . S
O740 Co709 2.037 . S
O740 C760 1.234 . S
C741 O715 1.269 . S
C741 O716 1.257 . S
C742 H717 0.930 . S
C742 C745 1.388 . S
C742 C747 1.418 . S
C743 H738 0.930 . S
C743 C746 1.404 . S
C743 C747 1.353 . S
N744 Co709 2.145 . S
N744 C745 1.397 . S
N744 C746 1.334 . S
C745 H726 0.929 . S
C745 C742 1.388 . S
C745 N744 1.397 . S
C746 H727 0.929 . S
C746 C743 1.404 . S
C746 N744 1.334 . S
C747 H739 0.930 . S
C747 C742 1.418 . S
C747 C743 1.353 . S
C748 H718 0.930 . S
C748 N749 1.330 . S
C748 C750 1.446 . S
N749 Co708 2.151 . S
N749 C748 1.330 . S
N749 C753 1.418 . S
C750 H729 0.929 . S
C750 C748 1.446 . S
C750 C751 1.332 . S
C751 H731 0.931 . S
C751 C750 1.332 . S
C751 C752 1.267 . S
C752 H720 0.929 . S
C752 C751 1.267 . S
C752 C753 1.251 . S
C753 H723 0.929 . S
C753 N749 1.418 . S
C753 C752 1.251 . S
C754 H721 0.930 . S
C754 C756 1.406 . S
C754 C759 1.261 . S
C755 H722 0.930 1_455 S
C755 N757 1.325 1_455 S
C755 C758 1.357 . S
C756 H724 0.928 . S
C756 C754 1.406 . S
C756 N757 1.261 1_455 S
N757 Co708 2.214 . S
N757 C755 1.325 1_655 S
N757 C756 1.261 1_655 S
C758 H728 0.931 . S
C758 C755 1.357 . S
C758 C759 1.312 . S
C759 H730 0.930 . S
C759 C754 1.261 . S
C759 C758 1.312 . S
C760 O732 1.214 . S
C760 O740 1.234 . S
C761 H733 0.929 . S
C761 C764 1.391 . S
C761 C766 1.391 . S
C762 H734 0.929 . S
C762 C763 1.390 . S
C762 N765 1.391 . S
C763 H735 0.930 . S
C763 C762 1.390 . S
C763 C764 1.392 . S
C764 H736 0.929 . S
C764 C761 1.391 . S
C764 C763 1.392 . S
N765 Co709 2.257 . S
N765 C762 1.391 . S
N765 C766 1.388 . S
C766 H737 0.930 . S
C766 C761 1.391 . S
C766 N765 1.388 . S
Co767 O769 2.143 . S
Co767 O775 2.074 . S
Co767 O778 2.093 . S
Co767 O791 2.097 . S
Co767 N808 2.151 . S
Co767 N816 2.214 . S
Co768 O769 2.160 . S
Co768 O774 2.058 . S
Co768 O784 2.057 . S
Co768 O799 2.037 . S
Co768 N803 2.145 . S
Co768 N824 2.257 . S
O769 Co767 2.143 . S
O769 Co768 2.160 . S
C770 O771 1.278 . S
C770 O778 1.224 . S
O771 C770 1.278 . S
C772 O773 1.245 . S
C772 O784 1.232 . S
O773 C772 1.245 . S
O774 Co768 2.058 . S
O774 C800 1.269 . S
O775 Co767 2.074 . S
O775 C800 1.257 . S
H776 C801 0.930 . S
H777 C807 0.930 . S
O778 Co767 2.093 . S
O778 C770 1.224 . S
H779 C811 0.929 . S
H780 C813 0.930 . S
H781 C814 0.930 . S
H782 C812 0.929 . S
H783 C815 0.928 . S
O784 Co768 2.057 . S
O784 C772 1.232 . S
H785 C804 0.929 . S
H786 C805 0.929 . S
H787 C817 0.931 . S
H788 C809 0.929 . S
H789 C818 0.930 . S
H790 C810 0.931 . S
O791 Co767 2.097 . S
O791 C819 1.214 . S
H792 C820 0.929 . S
H793 C821 0.929 . S
H794 C822 0.930 . S
H795 C823 0.929 . S
H796 C825 0.930 . S
H797 C802 0.930 . S
H798 C806 0.930 . S
O799 Co768 2.037 . S
O799 C819 1.234 . S
C800 O774 1.269 . S
C800 O775 1.257 . S
C801 H776 0.930 . S
C801 C804 1.388 . S
C801 C806 1.418 . S
C802 H797 0.930 . S
C802 C805 1.404 . S
C802 C806 1.353 . S
N803 Co768 2.145 . S
N803 C804 1.397 . S
N803 C805 1.334 . S
C804 H785 0.929 . S
C804 C801 1.388 . S
C804 N803 1.397 . S
C805 H786 0.929 . S
C805 C802 1.404 . S
C805 N803 1.334 . S
C806 H798 0.930 . S
C806 C801 1.418 . S
C806 C802 1.353 . S
C807 H777 0.930 . S
C807 N808 1.330 . S
C807 C809 1.446 . S
N808 Co767 2.151 . S
N808 C807 1.330 . S
N808 C812 1.418 . S
C809 H788 0.929 . S
C809 C807 1.446 . S
C809 C810 1.332 . S
C810 H790 0.931 . S
C810 C809 1.332 . S
C810 C811 1.267 . S
C811 H779 0.929 . S
C811 C810 1.267 . S
C811 C812 1.251 . S
C812 H782 0.929 . S
C812 N808 1.418 . S
C812 C811 1.251 . S
C813 H780 0.930 . S
C813 C815 1.406 . S
C813 C818 1.261 . S
C814 H781 0.930 . S
C814 N816 1.325 . S
C814 C817 1.357 . S
C815 H783 0.928 . S
C815 C813 1.406 . S
C815 N816 1.261 . S
N816 Co767 2.214 . S
N816 C814 1.325 . S
N816 C815 1.261 . S
C817 H787 0.931 . S
C817 C814 1.357 . S
C817 C818 1.312 . S
C818 H789 0.930 . S
C818 C813 1.261 . S
C818 C817 1.312 . S
C819 O791 1.214 . S
C819 O799 1.234 . S
C820 H792 0.929 . S
C820 C823 1.391 . S
C820 C825 1.391 . S
C821 H793 0.929 . S
C821 C822 1.390 . S
C821 N824 1.391 . S
C822 H794 0.930 . S
C822 C821 1.390 . S
C822 C823 1.392 . S
C823 H795 0.929 . S
C823 C820 1.391 . S
C823 C822 1.392 . S
N824 Co768 2.257 . S
N824 C821 1.391 . S
N824 C825 1.388 . S
C825 H796 0.930 . S
C825 C820 1.391 . S
C825 N824 1.388 . S
Co826 O828 2.143 . S
Co826 O834 2.074 . S
Co826 O837 2.093 . S
Co826 O850 2.097 . S
Co826 N867 2.151 . S
Co826 N875 2.214 . S
Co827 O828 2.160 . S
Co827 O833 2.058 . S
Co827 O843 2.057 . S
Co827 O858 2.037 . S
Co827 N862 2.145 . S
Co827 N883 2.257 . S
O828 Co826 2.143 . S
O828 Co827 2.160 . S
C829 O830 1.278 . S
C829 O837 1.224 . S
O830 C829 1.278 . S
C831 O832 1.245 . S
C831 O843 1.232 . S
O832 C831 1.245 . S
O833 Co827 2.058 . S
O833 C859 1.269 . S
O834 Co826 2.074 . S
O834 C859 1.257 . S
H835 C860 0.930 . S
H836 C866 0.930 . S
O837 Co826 2.093 . S
O837 C829 1.224 . S
H838 C870 0.929 . S
H839 C872 0.930 . S
H840 C873 0.930 . S
H841 C871 0.929 . S
H842 C874 0.928 . S
O843 Co827 2.057 . S
O843 C831 1.232 . S
H844 C863 0.929 . S
H845 C864 0.929 . S
H846 C876 0.931 . S
H847 C868 0.929 . S
H848 C877 0.930 . S
H849 C869 0.931 . S
O850 Co826 2.097 . S
O850 C878 1.214 . S
H851 C879 0.929 . S
H852 C880 0.929 . S
H853 C881 0.930 . S
H854 C882 0.929 . S
H855 C884 0.930 . S
H856 C861 0.930 . S
H857 C865 0.930 . S
O858 Co827 2.037 . S
O858 C878 1.234 . S
C859 O833 1.269 . S
C859 O834 1.257 . S
C860 H835 0.930 . S
C860 C863 1.388 . S
C860 C865 1.418 . S
C861 H856 0.930 . S
C861 C864 1.404 . S
C861 C865 1.353 . S
N862 Co827 2.145 . S
N862 C863 1.397 . S
N862 C864 1.334 . S
C863 H844 0.929 . S
C863 C860 1.388 . S
C863 N862 1.397 . S
C864 H845 0.929 . S
C864 C861 1.404 . S
C864 N862 1.334 . S
C865 H857 0.930 . S
C865 C860 1.418 . S
C865 C861 1.353 . S
C866 H836 0.930 . S
C866 N867 1.330 . S
C866 C868 1.446 . S
N867 Co826 2.151 . S
N867 C866 1.330 . S
N867 C871 1.418 . S
C868 H847 0.929 . S
C868 C866 1.446 . S
C868 C869 1.332 . S
C869 H849 0.931 . S
C869 C868 1.332 . S
C869 C870 1.267 . S
C870 H838 0.929 . S
C870 C869 1.267 . S
C870 C871 1.251 . S
C871 H841 0.929 . S
C871 N867 1.418 . S
C871 C870 1.251 . S
C872 H839 0.930 . S
C872 C874 1.406 . S
C872 C877 1.261 . S
C873 H840 0.930 . S
C873 N875 1.325 . S
C873 C876 1.357 . S
C874 H842 0.928 . S
C874 C872 1.406 . S
C874 N875 1.261 . S
N875 Co826 2.214 . S
N875 C873 1.325 . S
N875 C874 1.261 . S
C876 H846 0.931 . S
C876 C873 1.357 . S
C876 C877 1.312 . S
C877 H848 0.930 . S
C877 C872 1.261 . S
C877 C876 1.312 . S
C878 O850 1.214 . S
C878 O858 1.234 . S
C879 H851 0.929 . S
C879 C882 1.391 . S
C879 C884 1.391 . S
C880 H852 0.929 . S
C880 C881 1.390 1_554 S
C880 N883 1.391 . S
C881 H853 0.930 . S
C881 C880 1.390 1_556 S
C881 C882 1.392 . S
C882 H854 0.929 . S
C882 C879 1.391 . S
C882 C881 1.392 . S
N883 Co827 2.257 . S
N883 C880 1.391 . S
N883 C884 1.388 1_554 S
C884 H855 0.930 . S
C884 C879 1.391 . S
C884 N883 1.388 1_556 S
Co885 O887 2.143 . S
Co885 O893 2.074 . S
Co885 O896 2.093 . S
Co885 O909 2.097 . S
Co885 N926 2.151 . S
Co885 N934 2.214 . S
Co886 O887 2.160 . S
Co886 O892 2.058 . S
Co886 O902 2.057 . S
Co886 O917 2.037 . S
Co886 N921 2.145 . S
Co886 N942 2.257 . S
O887 Co885 2.143 . S
O887 Co886 2.160 . S
C888 O889 1.278 . S
C888 O896 1.224 . S
O889 C888 1.278 . S
C890 O891 1.245 . S
C890 O902 1.232 . S
O891 C890 1.245 . S
O892 Co886 2.058 . S
O892 C918 1.269 . S
O893 Co885 2.074 . S
O893 C918 1.257 . S
H894 C919 0.930 . S
H895 C925 0.930 . S
O896 Co885 2.093 . S
O896 C888 1.224 . S
H897 C929 0.929 . S
H898 C931 0.930 . S
H899 C932 0.930 . S
H900 C930 0.929 . S
H901 C933 0.928 . S
O902 Co886 2.057 . S
O902 C890 1.232 . S
H903 C922 0.929 . S
H904 C923 0.929 . S
H905 C935 0.931 . S
H906 C927 0.929 . S
H907 C936 0.930 . S
H908 C928 0.931 . S
O909 Co885 2.097 . S
O909 C937 1.214 . S
H910 C938 0.929 . S
H911 C939 0.929 . S
H912 C940 0.930 . S
H913 C941 0.929 . S
H914 C943 0.930 . S
H915 C920 0.927 1_655 S
H916 C924 0.930 . S
O917 Co886 2.037 . S
O917 C937 1.234 . S
C918 O892 1.269 . S
C918 O893 1.257 . S
C919 H894 0.930 . S
C919 C922 1.388 1_655 S
C919 C924 1.418 . S
C920 H915 0.927 1_455 S
C920 C923 1.404 . S
C920 C924 1.353 1_455 S
N921 Co886 2.145 . S
N921 C922 1.397 . S
N921 C923 1.334 . S
C922 H903 0.929 . S
C922 C919 1.388 1_455 S
C922 N921 1.397 . S
C923 H904 0.929 . S
C923 C920 1.404 . S
C923 N921 1.334 . S
C924 H916 0.930 . S
C924 C919 1.418 . S
C924 C920 1.353 1_655 S
C925 H895 0.930 . S
C925 N926 1.330 . S
C925 C927 1.446 . S
N926 Co885 2.151 . S
N926 C925 1.330 . S
N926 C930 1.418 . S
C927 H906 0.929 . S
C927 C925 1.446 . S
C927 C928 1.332 . S
C928 H908 0.931 . S
C928 C927 1.332 . S
C928 C929 1.267 . S
C929 H897 0.929 . S
C929 C928 1.267 . S
C929 C930 1.251 . S
C930 H900 0.929 . S
C930 N926 1.418 . S
C930 C929 1.251 . S
C931 H898 0.930 . S
C931 C933 1.406 . S
C931 C936 1.261 . S
C932 H899 0.930 . S
C932 N934 1.325 . S
C932 C935 1.357 . S
C933 H901 0.928 . S
C933 C931 1.406 . S
C933 N934 1.261 . S
N934 Co885 2.214 . S
N934 C932 1.325 . S
N934 C933 1.261 . S
C935 H905 0.931 . S
C935 C932 1.357 . S
C935 C936 1.312 . S
C936 H907 0.930 . S
C936 C931 1.261 . S
C936 C935 1.312 . S
C937 O909 1.214 . S
C937 O917 1.234 . S
C938 H910 0.929 . S
C938 C941 1.391 . S
C938 C943 1.391 . S
C939 H911 0.929 . S
C939 C940 1.390 . S
C939 N942 1.391 . S
C940 H912 0.930 . S
C940 C939 1.390 . S
C940 C941 1.392 . S
C941 H913 0.929 . S
C941 C938 1.391 . S
C941 C940 1.392 . S
N942 Co886 2.257 . S
N942 C939 1.391 . S
N942 C943 1.388 . S
C943 H914 0.930 . S
C943 C938 1.391 . S
C943 N942 1.388 . S
Co944 O946 2.143 . S
Co944 O952 2.074 . S
Co944 O955 2.093 . S
Co944 O968 2.097 . S
Co944 N985 2.151 . S
Co944 N993 2.214 . S
Co945 O946 2.160 . S
Co945 O951 2.058 . S
Co945 O961 2.057 . S
Co945 O976 2.037 . S
Co945 N980 2.145 . S
Co945 N1001 2.257 . S
O946 Co944 2.143 . S
O946 Co945 2.160 . S
C947 O948 1.278 . S
C947 O955 1.224 . S
O948 C947 1.278 . S
C949 O950 1.245 . S
C949 O961 1.232 . S
O950 C949 1.245 . S
O951 Co945 2.058 . S
O951 C977 1.269 . S
O952 Co944 2.074 . S
O952 C977 1.257 . S
H953 C978 0.930 . S
H954 C984 0.930 . S
O955 Co944 2.093 . S
O955 C947 1.224 . S
H956 C988 0.927 1_545 S
H957 C990 0.930 . S
H958 C991 0.930 . S
H959 C989 0.929 . S
H960 C992 0.928 . S
O961 Co945 2.057 . S
O961 C949 1.232 . S
H962 C981 0.929 . S
H963 C982 0.929 . S
H964 C994 0.931 . S
H965 C986 0.929 . S
H966 C995 0.930 . S
H967 C987 0.931 . S
O968 Co944 2.097 . S
O968 C996 1.214 . S
H969 C997 0.929 . S
H970 C998 0.929 . S
H971 C999 0.930 . S
H972 C1000 0.929 . S
H973 C1002 0.930 . S
H974 C979 0.930 . S
H975 C983 0.930 . S
O976 Co945 2.037 . S
O976 C996 1.234 . S
C977 O951 1.269 . S
C977 O952 1.257 . S
C978 H953 0.930 . S
C978 C981 1.388 . S
C978 C983 1.418 . S
C979 H974 0.930 . S
C979 C982 1.404 . S
C979 C983 1.353 . S
N980 Co945 2.145 . S
N980 C981 1.397 . S
N980 C982 1.334 . S
C981 H962 0.929 . S
C981 C978 1.388 . S
C981 N980 1.397 . S
C982 H963 0.929 . S
C982 C979 1.404 . S
C982 N980 1.334 . S
C983 H975 0.930 . S
C983 C978 1.418 . S
C983 C979 1.353 . S
C984 H954 0.930 . S
C984 N985 1.330 . S
C984 C986 1.446 1_565 S
N985 Co944 2.151 . S
N985 C984 1.330 . S
N985 C989 1.418 . S
C986 H965 0.929 . S
C986 C984 1.446 1_545 S
C986 C987 1.332 . S
C987 H967 0.931 . S
C987 C986 1.332 . S
C987 C988 1.256 1_545 S
C988 H956 0.927 1_565 S
C988 C987 1.256 1_565 S
C988 C989 1.265 . S
C989 H959 0.929 . S
C989 N985 1.418 . S
C989 C988 1.265 . S
C990 H957 0.930 . S
C990 C992 1.406 . S
C990 C995 1.261 . S
C991 H958 0.930 . S
C991 N993 1.325 . S
C991 C994 1.357 . S
C992 H960 0.928 . S
C992 C990 1.406 . S
C992 N993 1.261 . S
N993 Co944 2.214 . S
N993 C991 1.325 . S
N993 C992 1.261 . S
C994 H964 0.931 . S
C994 C991 1.357 . S
C994 C995 1.312 . S
C995 H966 0.930 . S
C995 C990 1.261 . S
C995 C994 1.312 . S
C996 O968 1.214 . S
C996 O976 1.234 . S
C997 H969 0.929 . S
C997 C1000 1.391 . S
C997 C1002 1.391 . S
C998 H970 0.929 . S
C998 C999 1.390 . S
C998 N1001 1.391 . S
C999 H971 0.930 . S
C999 C998 1.390 . S
C999 C1000 1.392 . S
C1000 H972 0.929 . S
C1000 C997 1.391 . S
C1000 C999 1.392 . S
N1001 Co945 2.257 . S
N1001 C998 1.391 . S
N1001 C1002 1.388 . S
C1002 H973 0.930 . S
C1002 C997 1.391 . S
C1002 N1001 1.388 . S
Co1003 O1005 2.143 . S
Co1003 O1011 2.074 . S
Co1003 O1014 2.093 . S
Co1003 O1027 2.097 . S
Co1003 N1044 2.151 . S
Co1003 N1052 2.214 . S
Co1004 O1005 2.160 . S
Co1004 O1010 2.058 . S
Co1004 O1020 2.057 . S
Co1004 O1035 2.037 . S
Co1004 N1039 2.145 . S
Co1004 N1060 2.257 . S
O1005 Co1003 2.143 . S
O1005 Co1004 2.160 . S
C1006 O1007 1.278 . S
C1006 O1014 1.224 . S
O1007 C1006 1.278 . S
C1008 O1009 1.245 . S
C1008 O1020 1.232 . S
O1009 C1008 1.245 . S
O1010 Co1004 2.058 . S
O1010 C1036 1.269 . S
O1011 Co1003 2.074 . S
O1011 C1036 1.257 . S
H1012 C1037 0.930 . S
H1013 C1043 0.930 . S
O1014 Co1003 2.093 . S
O1014 C1006 1.224 . S
H1015 C1047 0.929 . S
H1016 C1049 0.930 . S
H1017 C1050 0.930 . S
H1018 C1048 0.929 . S
H1019 C1051 0.928 . S
O1020 Co1004 2.057 . S
O1020 C1008 1.232 . S
H1021 C1040 0.929 . S
H1022 C1041 0.929 . S
H1023 C1053 0.931 . S
H1024 C1045 0.929 . S
H1025 C1054 0.930 . S
H1026 C1046 0.931 . S
O1027 Co1003 2.097 . S
O1027 C1055 1.214 . S
H1028 C1056 0.929 . S
H1029 C1057 0.929 . S
H1030 C1058 0.930 . S
H1031 C1059 0.929 . S
H1032 C1061 0.930 . S
H1033 C1038 0.930 . S
H1034 C1042 0.930 . S
O1035 Co1004 2.037 . S
O1035 C1055 1.234 . S
C1036 O1010 1.269 . S
C1036 O1011 1.257 . S
C1037 H1012 0.930 . S
C1037 C1040 1.388 . S
C1037 C1042 1.418 . S
C1038 H1033 0.930 . S
C1038 C1041 1.404 . S
C1038 C1042 1.353 . S
N1039 Co1004 2.145 . S
N1039 C1040 1.397 . S
N1039 C1041 1.334 . S
C1040 H1021 0.929 . S
C1040 C1037 1.388 . S
C1040 N1039 1.397 . S
C1041 H1022 0.929 . S
C1041 C1038 1.404 . S
C1041 N1039 1.334 . S
C1042 H1034 0.930 . S
C1042 C1037 1.418 . S
C1042 C1038 1.353 . S
C1043 H1013 0.930 . S
C1043 N1044 1.330 . S
C1043 C1045 1.446 . S
N1044 Co1003 2.151 . S
N1044 C1043 1.330 . S
N1044 C1048 1.418 . S
C1045 H1024 0.929 . S
C1045 C1043 1.446 . S
C1045 C1046 1.332 . S
C1046 H1026 0.931 . S
C1046 C1045 1.332 . S
C1046 C1047 1.267 . S
C1047 H1015 0.929 . S
C1047 C1046 1.267 . S
C1047 C1048 1.251 . S
C1048 H1018 0.929 . S
C1048 N1044 1.418 . S
C1048 C1047 1.251 . S
C1049 H1016 0.930 . S
C1049 C1051 1.406 . S
C1049 C1054 1.261 . S
C1050 H1017 0.930 . S
C1050 N1052 1.325 . S
C1050 C1053 1.357 . S
C1051 H1019 0.928 . S
C1051 C1049 1.406 . S
C1051 N1052 1.261 . S
N1052 Co1003 2.214 . S
N1052 C1050 1.325 . S
N1052 C1051 1.261 . S
C1053 H1023 0.931 . S
C1053 C1050 1.357 . S
C1053 C1054 1.312 . S
C1054 H1025 0.930 . S
C1054 C1049 1.261 . S
C1054 C1053 1.312 . S
C1055 O1027 1.214 . S
C1055 O1035 1.234 . S
C1056 H1028 0.929 . S
C1056 C1059 1.391 . S
C1056 C1061 1.391 . S
C1057 H1029 0.929 . S
C1057 C1058 1.390 . S
C1057 N1060 1.391 . S
C1058 H1030 0.930 . S
C1058 C1057 1.390 . S
C1058 C1059 1.392 . S
C1059 H1031 0.929 . S
C1059 C1056 1.391 . S
C1059 C1058 1.392 . S
N1060 Co1004 2.257 . S
N1060 C1057 1.391 . S
N1060 C1061 1.388 . S
C1061 H1032 0.930 . S
C1061 C1056 1.391 . S
C1061 N1060 1.388 . S
Co1062 O1064 2.143 . S
Co1062 O1070 2.074 . S
Co1062 O1073 2.093 . S
Co1062 O1086 2.097 . S
Co1062 N1103 2.151 . S
Co1062 N1111 2.214 . S
Co1063 O1064 2.160 . S
Co1063 O1069 2.058 . S
Co1063 O1079 2.057 . S
Co1063 O1094 2.037 . S
Co1063 N1098 2.145 . S
Co1063 N1119 2.257 . S
O1064 Co1062 2.143 . S
O1064 Co1063 2.160 . S
C1065 O1066 1.278 . S
C1065 O1073 1.224 . S
O1066 C1065 1.278 . S
C1067 O1068 1.245 . S
C1067 O1079 1.232 . S
O1068 C1067 1.245 . S
O1069 Co1063 2.058 . S
O1069 C1095 1.269 . S
O1070 Co1062 2.074 . S
O1070 C1095 1.257 . S
H1071 C1096 0.930 . S
H1072 C1102 0.930 . S
O1073 Co1062 2.093 . S
O1073 C1065 1.224 . S
H1074 C1106 0.927 1_565 S
H1075 C1108 0.930 . S
H1076 C1109 0.930 1_655 S
H1077 C1107 0.929 . S
H1078 C1110 0.928 . S
O1079 Co1063 2.057 . S
O1079 C1067 1.232 . S
H1080 C1099 0.929 . S
H1081 C1100 0.929 . S
H1082 C1112 0.931 . S
H1083 C1104 0.929 . S
H1084 C1113 0.930 . S
H1085 C1105 0.931 . S
O1086 Co1062 2.097 . S
O1086 C1114 1.214 . S
H1087 C1115 0.929 . S
H1088 C1116 0.929 . S
H1089 C1117 0.930 . S
H1090 C1118 0.929 . S
H1091 C1120 0.930 . S
H1092 C1097 0.930 . S
H1093 C1101 0.930 . S
O1094 Co1063 2.037 . S
O1094 C1114 1.234 . S
C1095 O1069 1.269 . S
C1095 O1070 1.257 . S
C1096 H1071 0.930 . S
C1096 C1099 1.388 . S
C1096 C1101 1.418 . S
C1097 H1092 0.930 . S
C1097 C1100 1.404 . S
C1097 C1101 1.353 . S
N1098 Co1063 2.145 . S
N1098 C1099 1.397 . S
N1098 C1100 1.334 . S
C1099 H1080 0.929 . S
C1099 C1096 1.388 . S
C1099 N1098 1.397 . S
C1100 H1081 0.929 . S
C1100 C1097 1.404 . S
C1100 N1098 1.334 . S
C1101 H1093 0.930 . S
C1101 C1096 1.418 . S
C1101 C1097 1.353 . S
C1102 H1072 0.930 . S
C1102 N1103 1.330 . S
C1102 C1104 1.446 1_545 S
N1103 Co1062 2.151 . S
N1103 C1102 1.330 . S
N1103 C1107 1.418 . S
C1104 H1083 0.929 . S
C1104 C1102 1.446 1_565 S
C1104 C1105 1.332 . S
C1105 H1085 0.931 . S
C1105 C1104 1.332 . S
C1105 C1106 1.256 1_565 S
C1106 H1074 0.927 1_545 S
C1106 C1105 1.256 1_545 S
C1106 C1107 1.265 . S
C1107 H1077 0.929 . S
C1107 N1103 1.418 . S
C1107 C1106 1.265 . S
C1108 H1075 0.930 . S
C1108 C1110 1.406 . S
C1108 C1113 1.261 . S
C1109 H1076 0.930 1_455 S
C1109 N1111 1.325 1_455 S
C1109 C1112 1.357 . S
C1110 H1078 0.928 . S
C1110 C1108 1.406 . S
C1110 N1111 1.261 1_455 S
N1111 Co1062 2.214 . S
N1111 C1109 1.325 1_655 S
N1111 C1110 1.261 1_655 S
C1112 H1082 0.931 . S
C1112 C1109 1.357 . S
C1112 C1113 1.312 . S
C1113 H1084 0.930 . S
C1113 C1108 1.261 . S
C1113 C1112 1.312 . S
C1114 O1086 1.214 . S
C1114 O1094 1.234 . S
C1115 H1087 0.929 . S
C1115 C1118 1.391 . S
C1115 C1120 1.391 . S
C1116 H1088 0.929 . S
C1116 C1117 1.390 1_554 S
C1116 N1119 1.391 . S
C1117 H1089 0.930 . S
C1117 C1116 1.390 1_556 S
C1117 C1118 1.392 . S
C1118 H1090 0.929 . S
C1118 C1115 1.391 . S
C1118 C1117 1.392 . S
N1119 Co1063 2.257 . S
N1119 C1116 1.391 . S
N1119 C1120 1.388 1_554 S
C1120 H1091 0.930 . S
C1120 C1115 1.391 . S
C1120 N1119 1.388 1_556 S
Co1121 O1123 2.143 . S
Co1121 O1129 2.074 . S
Co1121 O1132 2.093 . S
Co1121 O1145 2.097 . S
Co1121 N1162 2.151 . S
Co1121 N1170 2.214 . S
Co1122 O1123 2.160 . S
Co1122 O1128 2.058 . S
Co1122 O1138 2.057 . S
Co1122 O1153 2.037 . S
Co1122 N1157 2.145 . S
Co1122 N1178 2.257 . S
O1123 Co1121 2.143 . S
O1123 Co1122 2.160 . S
C1124 O1125 1.278 . S
C1124 O1132 1.224 . S
O1125 C1124 1.278 . S
C1126 O1127 1.245 . S
C1126 O1138 1.232 . S
O1127 C1126 1.245 . S
O1128 Co1122 2.058 . S
O1128 C1154 1.269 . S
O1129 Co1121 2.074 . S
O1129 C1154 1.257 . S
H1130 C1155 0.930 . S
H1131 C1161 0.930 . S
O1132 Co1121 2.093 . S
O1132 C1124 1.224 . S
H1133 C1165 0.929 . S
H1134 C1167 0.930 . S
H1135 C1168 0.930 . S
H1136 C1166 0.929 . S
H1137 C1169 0.928 . S
O1138 Co1122 2.057 . S
O1138 C1126 1.232 . S
H1139 C1158 0.929 . S
H1140 C1159 0.929 . S
H1141 C1171 0.931 . S
H1142 C1163 0.929 . S
H1143 C1172 0.930 . S
H1144 C1164 0.931 . S
O1145 Co1121 2.097 . S
O1145 C1173 1.214 . S
H1146 C1174 0.929 . S
H1147 C1175 0.929 . S
H1148 C1176 0.930 . S
H1149 C1177 0.929 . S
H1150 C1179 0.930 . S
H1151 C1156 0.927 1_655 S
H1152 C1160 0.930 . S
O1153 Co1122 2.037 . S
O1153 C1173 1.234 . S
C1154 O1128 1.269 . S
C1154 O1129 1.257 . S
C1155 H1130 0.930 . S
C1155 C1158 1.388 1_655 S
C1155 C1160 1.418 . S
C1156 H1151 0.927 1_455 S
C1156 C1159 1.404 . S
C1156 C1160 1.353 1_455 S
N1157 Co1122 2.145 . S
N1157 C1158 1.397 . S
N1157 C1159 1.334 . S
C1158 H1139 0.929 . S
C1158 C1155 1.388 1_455 S
C1158 N1157 1.397 . S
C1159 H1140 0.929 . S
C1159 C1156 1.404 . S
C1159 N1157 1.334 . S
C1160 H1152 0.930 . S
C1160 C1155 1.418 . S
C1160 C1156 1.353 1_655 S
C1161 H1131 0.930 . S
C1161 N1162 1.330 . S
C1161 C1163 1.446 . S
N1162 Co1121 2.151 . S
N1162 C1161 1.330 . S
N1162 C1166 1.418 . S
C1163 H1142 0.929 . S
C1163 C1161 1.446 . S
C1163 C1164 1.332 . S
C1164 H1144 0.931 . S
C1164 C1163 1.332 . S
C1164 C1165 1.267 . S
C1165 H1133 0.929 . S
C1165 C1164 1.267 . S
C1165 C1166 1.251 . S
C1166 H1136 0.929 . S
C1166 N1162 1.418 . S
C1166 C1165 1.251 . S
C1167 H1134 0.930 . S
C1167 C1169 1.406 . S
C1167 C1172 1.261 . S
C1168 H1135 0.930 . S
C1168 N1170 1.325 . S
C1168 C1171 1.357 . S
C1169 H1137 0.928 . S
C1169 C1167 1.406 . S
C1169 N1170 1.261 . S
N1170 Co1121 2.214 . S
N1170 C1168 1.325 . S
N1170 C1169 1.261 . S
C1171 H1141 0.931 . S
C1171 C1168 1.357 . S
C1171 C1172 1.312 . S
C1172 H1143 0.930 . S
C1172 C1167 1.261 . S
C1172 C1171 1.312 . S
C1173 O1145 1.214 . S
C1173 O1153 1.234 . S
C1174 H1146 0.929 . S
C1174 C1177 1.391 . S
C1174 C1179 1.391 . S
C1175 H1147 0.929 . S
C1175 C1176 1.390 . S
C1175 N1178 1.391 . S
C1176 H1148 0.930 . S
C1176 C1175 1.390 . S
C1176 C1177 1.392 . S
C1177 H1149 0.929 . S
C1177 C1174 1.391 . S
C1177 C1176 1.392 . S
N1178 Co1122 2.257 . S
N1178 C1175 1.391 . S
N1178 C1179 1.388 . S
C1179 H1150 0.930 . S
C1179 C1174 1.391 . S
C1179 N1178 1.388 . S
Co1180 O1182 2.143 . S
Co1180 O1188 2.074 . S
Co1180 O1191 2.093 . S
Co1180 O1204 2.097 . S
Co1180 N1221 2.151 . S
Co1180 N1229 2.214 . S
Co1181 O1182 2.160 . S
Co1181 O1187 2.058 . S
Co1181 O1197 2.057 . S
Co1181 O1212 2.037 . S
Co1181 N1216 2.145 . S
Co1181 N1237 2.257 . S
O1182 Co1180 2.143 . S
O1182 Co1181 2.160 . S
C1183 O1184 1.278 . S
C1183 O1191 1.224 . S
O1184 C1183 1.278 . S
C1185 O1186 1.245 . S
C1185 O1197 1.232 . S
O1186 C1185 1.245 . S
O1187 Co1181 2.058 . S
O1187 C1213 1.269 . S
O1188 Co1180 2.074 . S
O1188 C1213 1.257 . S
H1189 C1214 0.930 . S
H1190 C1220 0.930 . S
O1191 Co1180 2.093 . S
O1191 C1183 1.224 . S
H1192 C1224 0.927 1_565 S
H1193 C1226 0.930 . S
H1194 C1227 0.930 . S
H1195 C1225 0.929 . S
H1196 C1228 0.928 . S
O1197 Co1181 2.057 . S
O1197 C1185 1.232 . S
H1198 C1217 0.929 . S
H1199 C1218 0.929 . S
H1200 C1230 0.931 . S
H1201 C1222 0.929 . S
H1202 C1231 0.930 . S
H1203 C1223 0.931 . S
O1204 Co1180 2.097 . S
O1204 C1232 1.214 . S
H1205 C1233 0.929 . S
H1206 C1234 0.929 . S
H1207 C1235 0.930 . S
H1208 C1236 0.929 . S
H1209 C1238 0.930 . S
H1210 C1215 0.930 . S
H1211 C1219 0.930 . S
O1212 Co1181 2.037 . S
O1212 C1232 1.234 . S
C1213 O1187 1.269 . S
C1213 O1188 1.257 . S
C1214 H1189 0.930 . S
C1214 C1217 1.388 . S
C1214 C1219 1.418 . S
C1215 H1210 0.930 . S
C1215 C1218 1.404 . S
C1215 C1219 1.353 . S
N1216 Co1181 2.145 . S
N1216 C1217 1.397 . S
N1216 C1218 1.334 . S
C1217 H1198 0.929 . S
C1217 C1214 1.388 . S
C1217 N1216 1.397 . S
C1218 H1199 0.929 . S
C1218 C1215 1.404 . S
C1218 N1216 1.334 . S
C1219 H1211 0.930 . S
C1219 C1214 1.418 . S
C1219 C1215 1.353 . S
C1220 H1190 0.930 . S
C1220 N1221 1.330 . S
C1220 C1222 1.446 1_545 S
N1221 Co1180 2.151 . S
N1221 C1220 1.330 . S
N1221 C1225 1.418 . S
C1222 H1201 0.929 . S
C1222 C1220 1.446 1_565 S
C1222 C1223 1.332 . S
C1223 H1203 0.931 . S
C1223 C1222 1.332 . S
C1223 C1224 1.256 1_565 S
C1224 H1192 0.927 1_545 S
C1224 C1223 1.256 1_545 S
C1224 C1225 1.265 . S
C1225 H1195 0.929 . S
C1225 N1221 1.418 . S
C1225 C1224 1.265 . S
C1226 H1193 0.930 . S
C1226 C1228 1.406 . S
C1226 C1231 1.261 . S
C1227 H1194 0.930 . S
C1227 N1229 1.325 . S
C1227 C1230 1.357 . S
C1228 H1196 0.928 . S
C1228 C1226 1.406 . S
C1228 N1229 1.261 . S
N1229 Co1180 2.214 . S
N1229 C1227 1.325 . S
N1229 C1228 1.261 . S
C1230 H1200 0.931 . S
C1230 C1227 1.357 . S
C1230 C1231 1.312 . S
C1231 H1202 0.930 . S
C1231 C1226 1.261 . S
C1231 C1230 1.312 . S
C1232 O1204 1.214 . S
C1232 O1212 1.234 . S
C1233 H1205 0.929 . S
C1233 C1236 1.391 . S
C1233 C1238 1.391 . S
C1234 H1206 0.929 . S
C1234 C1235 1.390 1_556 S
C1234 N1237 1.391 . S
C1235 H1207 0.930 . S
C1235 C1234 1.390 1_554 S
C1235 C1236 1.392 . S
C1236 H1208 0.929 . S
C1236 C1233 1.391 . S
C1236 C1235 1.392 . S
N1237 Co1181 2.257 . S
N1237 C1234 1.391 . S
N1237 C1238 1.388 1_556 S
C1238 H1209 0.930 . S
C1238 C1233 1.391 . S
C1238 N1237 1.388 1_554 S
Co1239 O1241 2.143 . S
Co1239 O1247 2.074 . S
Co1239 O1250 2.093 . S
Co1239 O1263 2.097 . S
Co1239 N1280 2.151 . S
Co1239 N1288 2.214 . S
Co1240 O1241 2.160 . S
Co1240 O1246 2.058 . S
Co1240 O1256 2.057 . S
Co1240 O1271 2.037 . S
Co1240 N1275 2.145 . S
Co1240 N1296 2.257 . S
O1241 Co1239 2.143 . S
O1241 Co1240 2.160 . S
C1242 O1243 1.278 . S
C1242 O1250 1.224 . S
O1243 C1242 1.278 . S
C1244 O1245 1.245 . S
C1244 O1256 1.232 . S
O1245 C1244 1.245 . S
O1246 Co1240 2.058 . S
O1246 C1272 1.269 . S
O1247 Co1239 2.074 . S
O1247 C1272 1.257 . S
H1248 C1273 0.930 . S
H1249 C1279 0.930 . S
O1250 Co1239 2.093 . S
O1250 C1242 1.224 . S
H1251 C1283 0.929 . S
H1252 C1285 0.930 . S
H1253 C1286 0.930 . S
H1254 C1284 0.929 . S
H1255 C1287 0.928 . S
O1256 Co1240 2.057 . S
O1256 C1244 1.232 . S
H1257 C1276 0.929 . S
H1258 C1277 0.929 . S
H1259 C1289 0.931 . S
H1260 C1281 0.929 . S
H1261 C1290 0.930 . S
H1262 C1282 0.931 . S
O1263 Co1239 2.097 . S
O1263 C1291 1.214 . S
H1264 C1292 0.929 . S
H1265 C1293 0.929 . S
H1266 C1294 0.930 . S
H1267 C1295 0.929 . S
H1268 C1297 0.930 . S
H1269 C1274 0.927 1_655 S
H1270 C1278 0.930 . S
O1271 Co1240 2.037 . S
O1271 C1291 1.234 . S
C1272 O1246 1.269 . S
C1272 O1247 1.257 . S
C1273 H1248 0.930 . S
C1273 C1276 1.388 1_655 S
C1273 C1278 1.418 . S
C1274 H1269 0.927 1_455 S
C1274 C1277 1.404 . S
C1274 C1278 1.353 1_455 S
N1275 Co1240 2.145 . S
N1275 C1276 1.397 . S
N1275 C1277 1.334 . S
C1276 H1257 0.929 . S
C1276 C1273 1.388 1_455 S
C1276 N1275 1.397 . S
C1277 H1258 0.929 . S
C1277 C1274 1.404 . S
C1277 N1275 1.334 . S
C1278 H1270 0.930 . S
C1278 C1273 1.418 . S
C1278 C1274 1.353 1_655 S
C1279 H1249 0.930 . S
C1279 N1280 1.330 . S
C1279 C1281 1.446 . S
N1280 Co1239 2.151 . S
N1280 C1279 1.330 . S
N1280 C1284 1.418 . S
C1281 H1260 0.929 . S
C1281 C1279 1.446 . S
C1281 C1282 1.332 . S
C1282 H1262 0.931 . S
C1282 C1281 1.332 . S
C1282 C1283 1.267 . S
C1283 H1251 0.929 . S
C1283 C1282 1.267 . S
C1283 C1284 1.251 . S
C1284 H1254 0.929 . S
C1284 N1280 1.418 . S
C1284 C1283 1.251 . S
C1285 H1252 0.930 . S
C1285 C1287 1.406 . S
C1285 C1290 1.261 . S
C1286 H1253 0.930 . S
C1286 N1288 1.325 . S
C1286 C1289 1.357 . S
C1287 H1255 0.928 . S
C1287 C1285 1.406 . S
C1287 N1288 1.261 . S
N1288 Co1239 2.214 . S
N1288 C1286 1.325 . S
N1288 C1287 1.261 . S
C1289 H1259 0.931 . S
C1289 C1286 1.357 . S
C1289 C1290 1.312 . S
C1290 H1261 0.930 . S
C1290 C1285 1.261 . S
C1290 C1289 1.312 . S
C1291 O1263 1.214 . S
C1291 O1271 1.234 . S
C1292 H1264 0.929 . S
C1292 C1295 1.391 . S
C1292 C1297 1.391 . S
C1293 H1265 0.929 . S
C1293 C1294 1.390 . S
C1293 N1296 1.391 . S
C1294 H1266 0.930 . S
C1294 C1293 1.390 . S
C1294 C1295 1.392 . S
C1295 H1267 0.929 . S
C1295 C1292 1.391 . S
C1295 C1294 1.392 . S
N1296 Co1240 2.257 . S
N1296 C1293 1.391 . S
N1296 C1297 1.388 . S
C1297 H1268 0.930 . S
C1297 C1292 1.391 . S
C1297 N1296 1.388 . S
Co1298 O1300 2.143 . S
Co1298 O1306 2.074 . S
Co1298 O1309 2.093 . S
Co1298 O1322 2.097 . S
Co1298 N1339 2.151 . S
Co1298 N1347 2.214 . S
Co1299 O1300 2.160 . S
Co1299 O1305 2.058 . S
Co1299 O1315 2.057 . S
Co1299 O1330 2.037 . S
Co1299 N1334 2.145 . S
Co1299 N1355 2.257 . S
O1300 Co1298 2.143 . S
O1300 Co1299 2.160 . S
C1301 O1302 1.278 . S
C1301 O1309 1.224 . S
O1302 C1301 1.278 . S
C1303 O1304 1.245 . S
C1303 O1315 1.232 . S
O1304 C1303 1.245 . S
O1305 Co1299 2.058 . S
O1305 C1331 1.269 . S
O1306 Co1298 2.074 . S
O1306 C1331 1.257 . S
H1307 C1332 0.930 . S
H1308 C1338 0.930 . S
O1309 Co1298 2.093 . S
O1309 C1301 1.224 . S
H1310 C1342 0.927 1_545 S
H1311 C1344 0.930 . S
H1312 C1345 0.930 1_655 S
H1313 C1343 0.929 . S
H1314 C1346 0.928 . S
O1315 Co1299 2.057 . S
O1315 C1303 1.232 . S
H1316 C1335 0.929 . S
H1317 C1336 0.929 . S
H1318 C1348 0.931 . S
H1319 C1340 0.929 . S
H1320 C1349 0.930 . S
H1321 C1341 0.931 . S
O1322 Co1298 2.097 . S
O1322 C1350 1.214 . S
H1323 C1351 0.929 . S
H1324 C1352 0.929 . S
H1325 C1353 0.930 . S
H1326 C1354 0.929 . S
H1327 C1356 0.930 . S
H1328 C1333 0.930 . S
H1329 C1337 0.930 . S
O1330 Co1299 2.037 . S
O1330 C1350 1.234 . S
C1331 O1305 1.269 . S
C1331 O1306 1.257 . S
C1332 H1307 0.930 . S
C1332 C1335 1.388 . S
C1332 C1337 1.418 . S
C1333 H1328 0.930 . S
C1333 C1336 1.404 . S
C1333 C1337 1.353 . S
N1334 Co1299 2.145 . S
N1334 C1335 1.397 . S
N1334 C1336 1.334 . S
C1335 H1316 0.929 . S
C1335 C1332 1.388 . S
C1335 N1334 1.397 . S
C1336 H1317 0.929 . S
C1336 C1333 1.404 . S
C1336 N1334 1.334 . S
C1337 H1329 0.930 . S
C1337 C1332 1.418 . S
C1337 C1333 1.353 . S
C1338 H1308 0.930 . S
C1338 N1339 1.330 . S
C1338 C1340 1.446 1_565 S
N1339 Co1298 2.151 . S
N1339 C1338 1.330 . S
N1339 C1343 1.418 . S
C1340 H1319 0.929 . S
C1340 C1338 1.446 1_545 S
C1340 C1341 1.332 . S
C1341 H1321 0.931 . S
C1341 C1340 1.332 . S
C1341 C1342 1.256 1_545 S
C1342 H1310 0.927 1_565 S
C1342 C1341 1.256 1_565 S
C1342 C1343 1.265 . S
C1343 H1313 0.929 . S
C1343 N1339 1.418 . S
C1343 C1342 1.265 . S
C1344 H1311 0.930 . S
C1344 C1346 1.406 . S
C1344 C1349 1.261 . S
C1345 H1312 0.930 1_455 S
C1345 N1347 1.325 1_455 S
C1345 C1348 1.357 . S
C1346 H1314 0.928 . S
C1346 C1344 1.406 . S
C1346 N1347 1.261 1_455 S
N1347 Co1298 2.214 . S
N1347 C1345 1.325 1_655 S
N1347 C1346 1.261 1_655 S
C1348 H1318 0.931 . S
C1348 C1345 1.357 . S
C1348 C1349 1.312 . S
C1349 H1320 0.930 . S
C1349 C1344 1.261 . S
C1349 C1348 1.312 . S
C1350 O1322 1.214 . S
C1350 O1330 1.234 . S
C1351 H1323 0.929 . S
C1351 C1354 1.391 . S
C1351 C1356 1.391 . S
C1352 H1324 0.929 . S
C1352 C1353 1.390 . S
C1352 N1355 1.391 . S
C1353 H1325 0.930 . S
C1353 C1352 1.390 . S
C1353 C1354 1.392 . S
C1354 H1326 0.929 . S
C1354 C1351 1.391 . S
C1354 C1353 1.392 . S
N1355 Co1299 2.257 . S
N1355 C1352 1.391 . S
N1355 C1356 1.388 . S
C1356 H1327 0.930 . S
C1356 C1351 1.391 . S
C1356 N1355 1.388 . S
Co1357 O1359 2.143 . S
Co1357 O1365 2.074 . S
Co1357 O1368 2.093 . S
Co1357 O1381 2.097 . S
Co1357 N1398 2.151 . S
Co1357 N1406 2.214 . S
Co1358 O1359 2.160 . S
Co1358 O1364 2.058 . S
Co1358 O1374 2.057 . S
Co1358 O1389 2.037 . S
Co1358 N1393 2.145 . S
Co1358 N1414 2.257 . S
O1359 Co1357 2.143 . S
O1359 Co1358 2.160 . S
C1360 O1361 1.278 . S
C1360 O1368 1.224 . S
O1361 C1360 1.278 . S
C1362 O1363 1.245 . S
C1362 O1374 1.232 . S
O1363 C1362 1.245 . S
O1364 Co1358 2.058 . S
O1364 C1390 1.269 . S
O1365 Co1357 2.074 . S
O1365 C1390 1.257 . S
H1366 C1391 0.930 . S
H1367 C1397 0.930 . S
O1368 Co1357 2.093 . S
O1368 C1360 1.224 . S
H1369 C1401 0.929 . S
H1370 C1403 0.930 . S
H1371 C1404 0.930 . S
H1372 C1402 0.929 . S
H1373 C1405 0.928 . S
O1374 Co1358 2.057 . S
O1374 C1362 1.232 . S
H1375 C1394 0.929 . S
H1376 C1395 0.929 . S
H1377 C1407 0.931 . S
H1378 C1399 0.929 . S
H1379 C1408 0.930 . S
H1380 C1400 0.931 . S
O1381 Co1357 2.097 . S
O1381 C1409 1.214 . S
H1382 C1410 0.929 . S
H1383 C1411 0.929 . S
H1384 C1412 0.930 . S
H1385 C1413 0.929 . S
H1386 C1415 0.930 . S
H1387 C1392 0.930 . S
H1388 C1396 0.930 . S
O1389 Co1358 2.037 . S
O1389 C1409 1.234 . S
C1390 O1364 1.269 . S
C1390 O1365 1.257 . S
C1391 H1366 0.930 . S
C1391 C1394 1.388 . S
C1391 C1396 1.418 . S
C1392 H1387 0.930 . S
C1392 C1395 1.404 . S
C1392 C1396 1.353 . S
N1393 Co1358 2.145 . S
N1393 C1394 1.397 . S
N1393 C1395 1.334 . S
C1394 H1375 0.929 . S
C1394 C1391 1.388 . S
C1394 N1393 1.397 . S
C1395 H1376 0.929 . S
C1395 C1392 1.404 . S
C1395 N1393 1.334 . S
C1396 H1388 0.930 . S
C1396 C1391 1.418 . S
C1396 C1392 1.353 . S
C1397 H1367 0.930 . S
C1397 N1398 1.330 . S
C1397 C1399 1.446 . S
N1398 Co1357 2.151 . S
N1398 C1397 1.330 . S
N1398 C1402 1.418 . S
C1399 H1378 0.929 . S
C1399 C1397 1.446 . S
C1399 C1400 1.332 . S
C1400 H1380 0.931 . S
C1400 C1399 1.332 . S
C1400 C1401 1.267 . S
C1401 H1369 0.929 . S
C1401 C1400 1.267 . S
C1401 C1402 1.251 . S
C1402 H1372 0.929 . S
C1402 N1398 1.418 . S
C1402 C1401 1.251 . S
C1403 H1370 0.930 . S
C1403 C1405 1.406 . S
C1403 C1408 1.261 . S
C1404 H1371 0.930 . S
C1404 N1406 1.325 . S
C1404 C1407 1.357 . S
C1405 H1373 0.928 . S
C1405 C1403 1.406 . S
C1405 N1406 1.261 . S
N1406 Co1357 2.214 . S
N1406 C1404 1.325 . S
N1406 C1405 1.261 . S
C1407 H1377 0.931 . S
C1407 C1404 1.357 . S
C1407 C1408 1.312 . S
C1408 H1379 0.930 . S
C1408 C1403 1.261 . S
C1408 C1407 1.312 . S
C1409 O1381 1.214 . S
C1409 O1389 1.234 . S
C1410 H1382 0.929 . S
C1410 C1413 1.391 . S
C1410 C1415 1.391 . S
C1411 H1383 0.929 . S
C1411 C1412 1.390 . S
C1411 N1414 1.391 . S
C1412 H1384 0.930 . S
C1412 C1411 1.390 . S
C1412 C1413 1.392 . S
C1413 H1385 0.929 . S
C1413 C1410 1.391 . S
C1413 C1412 1.392 . S
N1414 Co1358 2.257 . S
N1414 C1411 1.391 . S
N1414 C1415 1.388 . S
C1415 H1386 0.930 . S
C1415 C1410 1.391 . S
C1415 N1414 1.388 . S
Co1416 O1418 2.143 . S
Co1416 O1424 2.074 . S
Co1416 O1427 2.093 . S
Co1416 O1440 2.097 . S
Co1416 N1457 2.151 . S
Co1416 N1465 2.214 . S
Co1417 O1418 2.160 . S
Co1417 O1423 2.058 . S
Co1417 O1433 2.057 . S
Co1417 O1448 2.037 . S
Co1417 N1452 2.145 . S
Co1417 N1473 2.257 . S
O1418 Co1416 2.143 . S
O1418 Co1417 2.160 . S
C1419 O1420 1.278 . S
C1419 O1427 1.224 . S
O1420 C1419 1.278 . S
C1421 O1422 1.245 . S
C1421 O1433 1.232 . S
O1422 C1421 1.245 . S
O1423 Co1417 2.058 . S
O1423 C1449 1.269 . S
O1424 Co1416 2.074 . S
O1424 C1449 1.257 . S
H1425 C1450 0.930 . S
H1426 C1456 0.930 . S
O1427 Co1416 2.093 . S
O1427 C1419 1.224 . S
H1428 C1460 0.927 1_565 S
H1429 C1462 0.930 . S
H1430 C1463 0.930 . S
H1431 C1461 0.929 . S
H1432 C1464 0.928 . S
O1433 Co1417 2.057 . S
O1433 C1421 1.232 . S
H1434 C1453 0.929 . S
H1435 C1454 0.929 . S
H1436 C1466 0.931 . S
H1437 C1458 0.929 . S
H1438 C1467 0.930 . S
H1439 C1459 0.931 . S
O1440 Co1416 2.097 . S
O1440 C1468 1.214 . S
H1441 C1469 0.929 . S
H1442 C1470 0.929 . S
H1443 C1471 0.930 . S
H1444 C1472 0.929 . S
H1445 C1474 0.930 . S
H1446 C1451 0.930 . S
H1447 C1455 0.930 . S
O1448 Co1417 2.037 . S
O1448 C1468 1.234 . S
C1449 O1423 1.269 . S
C1449 O1424 1.257 . S
C1450 H1425 0.930 . S
C1450 C1453 1.388 . S
C1450 C1455 1.418 . S
C1451 H1446 0.930 . S
C1451 C1454 1.404 . S
C1451 C1455 1.353 . S
N1452 Co1417 2.145 . S
N1452 C1453 1.397 . S
N1452 C1454 1.334 . S
C1453 H1434 0.929 . S
C1453 C1450 1.388 . S
C1453 N1452 1.397 . S
C1454 H1435 0.929 . S
C1454 C1451 1.404 . S
C1454 N1452 1.334 . S
C1455 H1447 0.930 . S
C1455 C1450 1.418 . S
C1455 C1451 1.353 . S
C1456 H1426 0.930 . S
C1456 N1457 1.330 . S
C1456 C1458 1.446 1_545 S
N1457 Co1416 2.151 . S
N1457 C1456 1.330 . S
N1457 C1461 1.418 . S
C1458 H1437 0.929 . S
C1458 C1456 1.446 1_565 S
C1458 C1459 1.332 . S
C1459 H1439 0.931 . S
C1459 C1458 1.332 . S
C1459 C1460 1.256 1_565 S
C1460 H1428 0.927 1_545 S
C1460 C1459 1.256 1_545 S
C1460 C1461 1.265 . S
C1461 H1431 0.929 . S
C1461 N1457 1.418 . S
C1461 C1460 1.265 . S
C1462 H1429 0.930 . S
C1462 C1464 1.406 . S
C1462 C1467 1.261 . S
C1463 H1430 0.930 . S
C1463 N1465 1.325 . S
C1463 C1466 1.357 . S
C1464 H1432 0.928 . S
C1464 C1462 1.406 . S
C1464 N1465 1.261 . S
N1465 Co1416 2.214 . S
N1465 C1463 1.325 . S
N1465 C1464 1.261 . S
C1466 H1436 0.931 . S
C1466 C1463 1.357 . S
C1466 C1467 1.312 . S
C1467 H1438 0.930 . S
C1467 C1462 1.261 . S
C1467 C1466 1.312 . S
C1468 O1440 1.214 . S
C1468 O1448 1.234 . S
C1469 H1441 0.929 . S
C1469 C1472 1.391 . S
C1469 C1474 1.391 . S
C1470 H1442 0.929 . S
C1470 C1471 1.390 . S
C1470 N1473 1.391 . S
C1471 H1443 0.930 . S
C1471 C1470 1.390 . S
C1471 C1472 1.392 . S
C1472 H1444 0.929 . S
C1472 C1469 1.391 . S
C1472 C1471 1.392 . S
N1473 Co1417 2.257 . S
N1473 C1470 1.391 . S
N1473 C1474 1.388 . S
C1474 H1445 0.930 . S
C1474 C1469 1.391 . S
C1474 N1473 1.388 . S
Co1475 O1477 2.143 . S
Co1475 O1483 2.074 . S
Co1475 O1486 2.093 . S
Co1475 O1499 2.097 . S
Co1475 N1516 2.151 . S
Co1475 N1524 2.214 . S
Co1476 O1477 2.160 . S
Co1476 O1482 2.058 . S
Co1476 O1492 2.057 . S
Co1476 O1507 2.037 . S
Co1476 N1511 2.145 . S
Co1476 N1532 2.257 . S
O1477 Co1475 2.143 . S
O1477 Co1476 2.160 . S
C1478 O1479 1.278 . S
C1478 O1486 1.224 . S
O1479 C1478 1.278 . S
C1480 O1481 1.245 . S
C1480 O1492 1.232 . S
O1481 C1480 1.245 . S
O1482 Co1476 2.058 . S
O1482 C1508 1.269 . S
O1483 Co1475 2.074 . S
O1483 C1508 1.257 . S
H1484 C1509 0.930 . S
H1485 C1515 0.930 . S
O1486 Co1475 2.093 . S
O1486 C1478 1.224 . S
H1487 C1519 0.929 . S
H1488 C1521 0.930 . S
H1489 C1522 0.930 . S
H1490 C1520 0.929 . S
H1491 C1523 0.928 . S
O1492 Co1476 2.057 . S
O1492 C1480 1.232 . S
H1493 C1512 0.929 . S
H1494 C1513 0.929 . S
H1495 C1525 0.931 . S
H1496 C1517 0.929 . S
H1497 C1526 0.930 . S
H1498 C1518 0.931 . S
O1499 Co1475 2.097 . S
O1499 C1527 1.214 . S
H1500 C1528 0.929 . S
H1501 C1529 0.929 . S
H1502 C1530 0.930 . S
H1503 C1531 0.929 . S
H1504 C1533 0.930 . S
H1505 C1510 0.930 . S
H1506 C1514 0.930 . S
O1507 Co1476 2.037 . S
O1507 C1527 1.234 . S
C1508 O1482 1.269 . S
C1508 O1483 1.257 . S
C1509 H1484 0.930 . S
C1509 C1512 1.388 . S
C1509 C1514 1.418 . S
C1510 H1505 0.930 . S
C1510 C1513 1.404 . S
C1510 C1514 1.353 . S
N1511 Co1476 2.145 . S
N1511 C1512 1.397 . S
N1511 C1513 1.334 . S
C1512 H1493 0.929 . S
C1512 C1509 1.388 . S
C1512 N1511 1.397 . S
C1513 H1494 0.929 . S
C1513 C1510 1.404 . S
C1513 N1511 1.334 . S
C1514 H1506 0.930 . S
C1514 C1509 1.418 . S
C1514 C1510 1.353 . S
C1515 H1485 0.930 . S
C1515 N1516 1.330 . S
C1515 C1517 1.446 . S
N1516 Co1475 2.151 . S
N1516 C1515 1.330 . S
N1516 C1520 1.418 . S
C1517 H1496 0.929 . S
C1517 C1515 1.446 . S
C1517 C1518 1.332 . S
C1518 H1498 0.931 . S
C1518 C1517 1.332 . S
C1518 C1519 1.267 . S
C1519 H1487 0.929 . S
C1519 C1518 1.267 . S
C1519 C1520 1.251 . S
C1520 H1490 0.929 . S
C1520 N1516 1.418 . S
C1520 C1519 1.251 . S
C1521 H1488 0.930 . S
C1521 C1523 1.406 . S
C1521 C1526 1.261 . S
C1522 H1489 0.930 . S
C1522 N1524 1.325 . S
C1522 C1525 1.357 . S
C1523 H1491 0.928 . S
C1523 C1521 1.406 . S
C1523 N1524 1.261 . S
N1524 Co1475 2.214 . S
N1524 C1522 1.325 . S
N1524 C1523 1.261 . S
C1525 H1495 0.931 . S
C1525 C1522 1.357 . S
C1525 C1526 1.312 . S
C1526 H1497 0.930 . S
C1526 C1521 1.261 . S
C1526 C1525 1.312 . S
C1527 O1499 1.214 . S
C1527 O1507 1.234 . S
C1528 H1500 0.929 . S
C1528 C1531 1.391 . S
C1528 C1533 1.391 . S
C1529 H1501 0.929 . S
C1529 C1530 1.390 . S
C1529 N1532 1.391 . S
C1530 H1502 0.930 . S
C1530 C1529 1.390 . S
C1530 C1531 1.392 . S
C1531 H1503 0.929 . S
C1531 C1528 1.391 . S
C1531 C1530 1.392 . S
N1532 Co1476 2.257 . S
N1532 C1529 1.391 . S
N1532 C1533 1.388 . S
C1533 H1504 0.930 . S
C1533 C1528 1.391 . S
C1533 N1532 1.388 . S
Co1534 O1536 2.143 . S
Co1534 O1542 2.074 . S
Co1534 O1545 2.093 . S
Co1534 O1558 2.097 . S
Co1534 N1575 2.151 . S
Co1534 N1583 2.214 . S
Co1535 O1536 2.160 . S
Co1535 O1541 2.058 . S
Co1535 O1551 2.057 . S
Co1535 O1566 2.037 . S
Co1535 N1570 2.145 . S
Co1535 N1591 2.257 . S
O1536 Co1534 2.143 . S
O1536 Co1535 2.160 . S
C1537 O1538 1.278 . S
C1537 O1545 1.224 . S
O1538 C1537 1.278 . S
C1539 O1540 1.245 . S
C1539 O1551 1.232 . S
O1540 C1539 1.245 . S
O1541 Co1535 2.058 . S
O1541 C1567 1.269 . S
O1542 Co1534 2.074 . S
O1542 C1567 1.257 . S
H1543 C1568 0.930 . S
H1544 C1574 0.930 . S
O1545 Co1534 2.093 . S
O1545 C1537 1.224 . S
H1546 C1578 0.927 1_545 S
H1547 C1580 0.930 . S
H1548 C1581 0.930 1_455 S
H1549 C1579 0.929 . S
H1550 C1582 0.928 . S
O1551 Co1535 2.057 . S
O1551 C1539 1.232 . S
H1552 C1571 0.929 . S
H1553 C1572 0.929 . S
H1554 C1584 0.931 . S
H1555 C1576 0.929 . S
H1556 C1585 0.930 . S
H1557 C1577 0.931 . S
O1558 Co1534 2.097 . S
O1558 C1586 1.214 . S
H1559 C1587 0.929 . S
H1560 C1588 0.929 . S
H1561 C1589 0.930 . S
H1562 C1590 0.929 . S
H1563 C1592 0.930 . S
H1564 C1569 0.930 . S
H1565 C1573 0.930 . S
O1566 Co1535 2.037 . S
O1566 C1586 1.234 . S
C1567 O1541 1.269 . S
C1567 O1542 1.257 . S
C1568 H1543 0.930 . S
C1568 C1571 1.388 . S
C1568 C1573 1.418 . S
C1569 H1564 0.930 . S
C1569 C1572 1.404 . S
C1569 C1573 1.353 . S
N1570 Co1535 2.145 . S
N1570 C1571 1.397 . S
N1570 C1572 1.334 . S
C1571 H1552 0.929 . S
C1571 C1568 1.388 . S
C1571 N1570 1.397 . S
C1572 H1553 0.929 . S
C1572 C1569 1.404 . S
C1572 N1570 1.334 . S
C1573 H1565 0.930 . S
C1573 C1568 1.418 . S
C1573 C1569 1.353 . S
C1574 H1544 0.930 . S
C1574 N1575 1.330 . S
C1574 C1576 1.446 1_565 S
N1575 Co1534 2.151 . S
N1575 C1574 1.330 . S
N1575 C1579 1.418 . S
C1576 H1555 0.929 . S
C1576 C1574 1.446 1_545 S
C1576 C1577 1.332 . S
C1577 H1557 0.931 . S
C1577 C1576 1.332 . S
C1577 C1578 1.256 1_545 S
C1578 H1546 0.927 1_565 S
C1578 C1577 1.256 1_565 S
C1578 C1579 1.265 . S
C1579 H1549 0.929 . S
C1579 N1575 1.418 . S
C1579 C1578 1.265 . S
C1580 H1547 0.930 . S
C1580 C1582 1.406 . S
C1580 C1585 1.261 . S
C1581 H1548 0.930 1_655 S
C1581 N1583 1.325 1_655 S
C1581 C1584 1.357 . S
C1582 H1550 0.928 . S
C1582 C1580 1.406 . S
C1582 N1583 1.261 1_655 S
N1583 Co1534 2.214 . S
N1583 C1581 1.325 1_455 S
N1583 C1582 1.261 1_455 S
C1584 H1554 0.931 . S
C1584 C1581 1.357 . S
C1584 C1585 1.312 . S
C1585 H1556 0.930 . S
C1585 C1580 1.261 . S
C1585 C1584 1.312 . S
C1586 O1558 1.214 . S
C1586 O1566 1.234 . S
C1587 H1559 0.929 . S
C1587 C1590 1.391 . S
C1587 C1592 1.391 . S
C1588 H1560 0.929 . S
C1588 C1589 1.390 1_556 S
C1588 N1591 1.391 . S
C1589 H1561 0.930 . S
C1589 C1588 1.390 1_554 S
C1589 C1590 1.392 . S
C1590 H1562 0.929 . S
C1590 C1587 1.391 . S
C1590 C1589 1.392 . S
N1591 Co1535 2.257 . S
N1591 C1588 1.391 . S
N1591 C1592 1.388 1_556 S
C1592 H1563 0.930 . S
C1592 C1587 1.391 . S
C1592 N1591 1.388 1_554 S
Co1593 O1595 2.143 . S
Co1593 O1601 2.074 . S
Co1593 O1604 2.093 . S
Co1593 O1617 2.097 . S
Co1593 N1634 2.151 . S
Co1593 N1642 2.214 . S
Co1594 O1595 2.160 . S
Co1594 O1600 2.058 . S
Co1594 O1610 2.057 . S
Co1594 O1625 2.037 . S
Co1594 N1629 2.145 . S
Co1594 N1650 2.257 . S
O1595 Co1593 2.143 . S
O1595 Co1594 2.160 . S
C1596 O1597 1.278 . S
C1596 O1604 1.224 . S
O1597 C1596 1.278 . S
C1598 O1599 1.245 . S
C1598 O1610 1.232 . S
O1599 C1598 1.245 . S
O1600 Co1594 2.058 . S
O1600 C1626 1.269 . S
O1601 Co1593 2.074 . S
O1601 C1626 1.257 . S
H1602 C1627 0.930 . S
H1603 C1633 0.930 . S
O1604 Co1593 2.093 . S
O1604 C1596 1.224 . S
H1605 C1637 0.929 . S
H1606 C1639 0.930 . S
H1607 C1640 0.930 . S
H1608 C1638 0.929 . S
H1609 C1641 0.928 . S
O1610 Co1594 2.057 . S
O1610 C1598 1.232 . S
H1611 C1630 0.929 . S
H1612 C1631 0.929 . S
H1613 C1643 0.931 . S
H1614 C1635 0.929 . S
H1615 C1644 0.930 . S
H1616 C1636 0.931 . S
O1617 Co1593 2.097 . S
O1617 C1645 1.214 . S
H1618 C1646 0.929 . S
H1619 C1647 0.929 . S
H1620 C1648 0.930 . S
H1621 C1649 0.929 . S
H1622 C1651 0.930 . S
H1623 C1628 0.927 1_455 S
H1624 C1632 0.930 . S
O1625 Co1594 2.037 . S
O1625 C1645 1.234 . S
C1626 O1600 1.269 . S
C1626 O1601 1.257 . S
C1627 H1602 0.930 . S
C1627 C1630 1.388 1_455 S
C1627 C1632 1.418 . S
C1628 H1623 0.927 1_655 S
C1628 C1631 1.404 . S
C1628 C1632 1.353 1_655 S
N1629 Co1594 2.145 . S
N1629 C1630 1.397 . S
N1629 C1631 1.334 . S
C1630 H1611 0.929 . S
C1630 C1627 1.388 1_655 S
C1630 N1629 1.397 . S
C1631 H1612 0.929 . S
C1631 C1628 1.404 . S
C1631 N1629 1.334 . S
C1632 H1624 0.930 . S
C1632 C1627 1.418 . S
C1632 C1628 1.353 1_455 S
C1633 H1603 0.930 . S
C1633 N1634 1.330 . S
C1633 C1635 1.446 . S
N1634 Co1593 2.151 . S
N1634 C1633 1.330 . S
N1634 C1638 1.418 . S
C1635 H1614 0.929 . S
C1635 C1633 1.446 . S
C1635 C1636 1.332 . S
C1636 H1616 0.931 . S
C1636 C1635 1.332 . S
C1636 C1637 1.267 . S
C1637 H1605 0.929 . S
C1637 C1636 1.267 . S
C1637 C1638 1.251 . S
C1638 H1608 0.929 . S
C1638 N1634 1.418 . S
C1638 C1637 1.251 . S
C1639 H1606 0.930 . S
C1639 C1641 1.406 . S
C1639 C1644 1.261 . S
C1640 H1607 0.930 . S
C1640 N1642 1.325 . S
C1640 C1643 1.357 . S
C1641 H1609 0.928 . S
C1641 C1639 1.406 . S
C1641 N1642 1.261 . S
N1642 Co1593 2.214 . S
N1642 C1640 1.325 . S
N1642 C1641 1.261 . S
C1643 H1613 0.931 . S
C1643 C1640 1.357 . S
C1643 C1644 1.312 . S
C1644 H1615 0.930 . S
C1644 C1639 1.261 . S
C1644 C1643 1.312 . S
C1645 O1617 1.214 . S
C1645 O1625 1.234 . S
C1646 H1618 0.929 . S
C1646 C1649 1.391 . S
C1646 C1651 1.391 . S
C1647 H1619 0.929 . S
C1647 C1648 1.390 . S
C1647 N1650 1.391 . S
C1648 H1620 0.930 . S
C1648 C1647 1.390 . S
C1648 C1649 1.392 . S
C1649 H1621 0.929 . S
C1649 C1646 1.391 . S
C1649 C1648 1.392 . S
N1650 Co1594 2.257 . S
N1650 C1647 1.391 . S
N1650 C1651 1.388 . S
C1651 H1622 0.930 . S
C1651 C1646 1.391 . S
C1651 N1650 1.388 . S
Co1652 O1654 2.143 . S
Co1652 O1660 2.074 . S
Co1652 O1663 2.093 . S
Co1652 O1676 2.097 . S
Co1652 N1693 2.151 . S
Co1652 N1701 2.214 . S
Co1653 O1654 2.160 . S
Co1653 O1659 2.058 . S
Co1653 O1669 2.057 . S
Co1653 O1684 2.037 . S
Co1653 N1688 2.145 . S
Co1653 N1709 2.257 . S
O1654 Co1652 2.143 . S
O1654 Co1653 2.160 . S
C1655 O1656 1.278 . S
C1655 O1663 1.224 . S
O1656 C1655 1.278 . S
C1657 O1658 1.245 . S
C1657 O1669 1.232 . S
O1658 C1657 1.245 . S
O1659 Co1653 2.058 . S
O1659 C1685 1.269 . S
O1660 Co1652 2.074 . S
O1660 C1685 1.257 . S
H1661 C1686 0.930 . S
H1662 C1692 0.930 . S
O1663 Co1652 2.093 . S
O1663 C1655 1.224 . S
H1664 C1696 0.927 1_545 S
H1665 C1698 0.930 . S
H1666 C1699 0.930 . S
H1667 C1697 0.929 . S
H1668 C1700 0.928 . S
O1669 Co1653 2.057 . S
O1669 C1657 1.232 . S
H1670 C1689 0.929 . S
H1671 C1690 0.929 . S
H1672 C1702 0.931 . S
H1673 C1694 0.929 . S
H1674 C1703 0.930 . S
H1675 C1695 0.931 . S
O1676 Co1652 2.097 . S
O1676 C1704 1.214 . S
H1677 C1705 0.929 . S
H1678 C1706 0.929 . S
H1679 C1707 0.930 . S
H1680 C1708 0.929 . S
H1681 C1710 0.930 . S
H1682 C1687 0.930 . S
H1683 C1691 0.930 . S
O1684 Co1653 2.037 . S
O1684 C1704 1.234 . S
C1685 O1659 1.269 . S
C1685 O1660 1.257 . S
C1686 H1661 0.930 . S
C1686 C1689 1.388 . S
C1686 C1691 1.418 . S
C1687 H1682 0.930 . S
C1687 C1690 1.404 . S
C1687 C1691 1.353 . S
N1688 Co1653 2.145 . S
N1688 C1689 1.397 . S
N1688 C1690 1.334 . S
C1689 H1670 0.929 . S
C1689 C1686 1.388 . S
C1689 N1688 1.397 . S
C1690 H1671 0.929 . S
C1690 C1687 1.404 . S
C1690 N1688 1.334 . S
C1691 H1683 0.930 . S
C1691 C1686 1.418 . S
C1691 C1687 1.353 . S
C1692 H1662 0.930 . S
C1692 N1693 1.330 . S
C1692 C1694 1.446 1_565 S
N1693 Co1652 2.151 . S
N1693 C1692 1.330 . S
N1693 C1697 1.418 . S
C1694 H1673 0.929 . S
C1694 C1692 1.446 1_545 S
C1694 C1695 1.332 . S
C1695 H1675 0.931 . S
C1695 C1694 1.332 . S
C1695 C1696 1.256 1_545 S
C1696 H1664 0.927 1_565 S
C1696 C1695 1.256 1_565 S
C1696 C1697 1.265 . S
C1697 H1667 0.929 . S
C1697 N1693 1.418 . S
C1697 C1696 1.265 . S
C1698 H1665 0.930 . S
C1698 C1700 1.406 . S
C1698 C1703 1.261 . S
C1699 H1666 0.930 . S
C1699 N1701 1.325 . S
C1699 C1702 1.357 . S
C1700 H1668 0.928 . S
C1700 C1698 1.406 . S
C1700 N1701 1.261 . S
N1701 Co1652 2.214 . S
N1701 C1699 1.325 . S
N1701 C1700 1.261 . S
C1702 H1672 0.931 . S
C1702 C1699 1.357 . S
C1702 C1703 1.312 . S
C1703 H1674 0.930 . S
C1703 C1698 1.261 . S
C1703 C1702 1.312 . S
C1704 O1676 1.214 . S
C1704 O1684 1.234 . S
C1705 H1677 0.929 . S
C1705 C1708 1.391 . S
C1705 C1710 1.391 . S
C1706 H1678 0.929 . S
C1706 C1707 1.390 1_554 S
C1706 N1709 1.391 . S
C1707 H1679 0.930 . S
C1707 C1706 1.390 1_556 S
C1707 C1708 1.392 . S
C1708 H1680 0.929 . S
C1708 C1705 1.391 . S
C1708 C1707 1.392 . S
N1709 Co1653 2.257 . S
N1709 C1706 1.391 . S
N1709 C1710 1.388 1_554 S
C1710 H1681 0.930 . S
C1710 C1705 1.391 . S
C1710 N1709 1.388 1_556 S
Co1711 O1713 2.143 . S
Co1711 O1719 2.074 . S
Co1711 O1722 2.093 . S
Co1711 O1735 2.097 . S
Co1711 N1752 2.151 . S
Co1711 N1760 2.214 . S
Co1712 O1713 2.160 . S
Co1712 O1718 2.058 . S
Co1712 O1728 2.057 . S
Co1712 O1743 2.037 . S
Co1712 N1747 2.145 . S
Co1712 N1768 2.257 . S
O1713 Co1711 2.143 . S
O1713 Co1712 2.160 . S
C1714 O1715 1.278 . S
C1714 O1722 1.224 . S
O1715 C1714 1.278 . S
C1716 O1717 1.245 . S
C1716 O1728 1.232 . S
O1717 C1716 1.245 . S
O1718 Co1712 2.058 . S
O1718 C1744 1.269 . S
O1719 Co1711 2.074 . S
O1719 C1744 1.257 . S
H1720 C1745 0.930 . S
H1721 C1751 0.930 . S
O1722 Co1711 2.093 . S
O1722 C1714 1.224 . S
H1723 C1755 0.929 . S
H1724 C1757 0.930 . S
H1725 C1758 0.930 . S
H1726 C1756 0.929 . S
H1727 C1759 0.928 . S
O1728 Co1712 2.057 . S
O1728 C1716 1.232 . S
H1729 C1748 0.929 . S
H1730 C1749 0.929 . S
H1731 C1761 0.931 . S
H1732 C1753 0.929 . S
H1733 C1762 0.930 . S
H1734 C1754 0.931 . S
O1735 Co1711 2.097 . S
O1735 C1763 1.214 . S
H1736 C1764 0.929 . S
H1737 C1765 0.929 . S
H1738 C1766 0.930 . S
H1739 C1767 0.929 . S
H1740 C1769 0.930 . S
H1741 C1746 0.927 1_455 S
H1742 C1750 0.930 . S
O1743 Co1712 2.037 . S
O1743 C1763 1.234 . S
C1744 O1718 1.269 . S
C1744 O1719 1.257 . S
C1745 H1720 0.930 . S
C1745 C1748 1.388 1_455 S
C1745 C1750 1.418 . S
C1746 H1741 0.927 1_655 S
C1746 C1749 1.404 . S
C1746 C1750 1.353 1_655 S
N1747 Co1712 2.145 . S
N1747 C1748 1.397 . S
N1747 C1749 1.334 . S
C1748 H1729 0.929 . S
C1748 C1745 1.388 1_655 S
C1748 N1747 1.397 . S
C1749 H1730 0.929 . S
C1749 C1746 1.404 . S
C1749 N1747 1.334 . S
C1750 H1742 0.930 . S
C1750 C1745 1.418 . S
C1750 C1746 1.353 1_455 S
C1751 H1721 0.930 . S
C1751 N1752 1.330 . S
C1751 C1753 1.446 . S
N1752 Co1711 2.151 . S
N1752 C1751 1.330 . S
N1752 C1756 1.418 . S
C1753 H1732 0.929 . S
C1753 C1751 1.446 . S
C1753 C1754 1.332 . S
C1754 H1734 0.931 . S
C1754 C1753 1.332 . S
C1754 C1755 1.267 . S
C1755 H1723 0.929 . S
C1755 C1754 1.267 . S
C1755 C1756 1.251 . S
C1756 H1726 0.929 . S
C1756 N1752 1.418 . S
C1756 C1755 1.251 . S
C1757 H1724 0.930 . S
C1757 C1759 1.406 . S
C1757 C1762 1.261 . S
C1758 H1725 0.930 . S
C1758 N1760 1.325 . S
C1758 C1761 1.357 . S
C1759 H1727 0.928 . S
C1759 C1757 1.406 . S
C1759 N1760 1.261 . S
N1760 Co1711 2.214 . S
N1760 C1758 1.325 . S
N1760 C1759 1.261 . S
C1761 H1731 0.931 . S
C1761 C1758 1.357 . S
C1761 C1762 1.312 . S
C1762 H1733 0.930 . S
C1762 C1757 1.261 . S
C1762 C1761 1.312 . S
C1763 O1735 1.214 . S
C1763 O1743 1.234 . S
C1764 H1736 0.929 . S
C1764 C1767 1.391 . S
C1764 C1769 1.391 . S
C1765 H1737 0.929 . S
C1765 C1766 1.390 . S
C1765 N1768 1.391 . S
C1766 H1738 0.930 . S
C1766 C1765 1.390 . S
C1766 C1767 1.392 . S
C1767 H1739 0.929 . S
C1767 C1764 1.391 . S
C1767 C1766 1.392 . S
N1768 Co1712 2.257 . S
N1768 C1765 1.391 . S
N1768 C1769 1.388 . S
C1769 H1740 0.930 . S
C1769 C1764 1.391 . S
C1769 N1768 1.388 . S
Co1770 O1772 2.143 . S
Co1770 O1778 2.074 . S
Co1770 O1781 2.093 . S
Co1770 O1794 2.097 . S
Co1770 N1811 2.151 . S
Co1770 N1819 2.214 . S
Co1771 O1772 2.160 . S
Co1771 O1777 2.058 . S
Co1771 O1787 2.057 . S
Co1771 O1802 2.037 . S
Co1771 N1806 2.145 . S
Co1771 N1827 2.257 . S
O1772 Co1770 2.143 . S
O1772 Co1771 2.160 . S
C1773 O1774 1.278 . S
C1773 O1781 1.224 . S
O1774 C1773 1.278 . S
C1775 O1776 1.245 . S
C1775 O1787 1.232 . S
O1776 C1775 1.245 . S
O1777 Co1771 2.058 . S
O1777 C1803 1.269 . S
O1778 Co1770 2.074 . S
O1778 C1803 1.257 . S
H1779 C1804 0.930 . S
H1780 C1810 0.930 . S
O1781 Co1770 2.093 . S
O1781 C1773 1.224 . S
H1782 C1814 0.927 1_565 S
H1783 C1816 0.930 . S
H1784 C1817 0.930 1_455 S
H1785 C1815 0.929 . S
H1786 C1818 0.928 . S
O1787 Co1771 2.057 . S
O1787 C1775 1.232 . S
H1788 C1807 0.929 . S
H1789 C1808 0.929 . S
H1790 C1820 0.931 . S
H1791 C1812 0.929 . S
H1792 C1821 0.930 . S
H1793 C1813 0.931 . S
O1794 Co1770 2.097 . S
O1794 C1822 1.214 . S
H1795 C1823 0.929 . S
H1796 C1824 0.929 . S
H1797 C1825 0.930 . S
H1798 C1826 0.929 . S
H1799 C1828 0.930 . S
H1800 C1805 0.930 . S
H1801 C1809 0.930 . S
O1802 Co1771 2.037 . S
O1802 C1822 1.234 . S
C1803 O1777 1.269 . S
C1803 O1778 1.257 . S
C1804 H1779 0.930 . S
C1804 C1807 1.388 . S
C1804 C1809 1.418 . S
C1805 H1800 0.930 . S
C1805 C1808 1.404 . S
C1805 C1809 1.353 . S
N1806 Co1771 2.145 . S
N1806 C1807 1.397 . S
N1806 C1808 1.334 . S
C1807 H1788 0.929 . S
C1807 C1804 1.388 . S
C1807 N1806 1.397 . S
C1808 H1789 0.929 . S
C1808 C1805 1.404 . S
C1808 N1806 1.334 . S
C1809 H1801 0.930 . S
C1809 C1804 1.418 . S
C1809 C1805 1.353 . S
C1810 H1780 0.930 . S
C1810 N1811 1.330 . S
C1810 C1812 1.446 1_545 S
N1811 Co1770 2.151 . S
N1811 C1810 1.330 . S
N1811 C1815 1.418 . S
C1812 H1791 0.929 . S
C1812 C1810 1.446 1_565 S
C1812 C1813 1.332 . S
C1813 H1793 0.931 . S
C1813 C1812 1.332 . S
C1813 C1814 1.256 1_565 S
C1814 H1782 0.927 1_545 S
C1814 C1813 1.256 1_545 S
C1814 C1815 1.265 . S
C1815 H1785 0.929 . S
C1815 N1811 1.418 . S
C1815 C1814 1.265 . S
C1816 H1783 0.930 . S
C1816 C1818 1.406 . S
C1816 C1821 1.261 . S
C1817 H1784 0.930 1_655 S
C1817 N1819 1.325 1_655 S
C1817 C1820 1.357 . S
C1818 H1786 0.928 . S
C1818 C1816 1.406 . S
C1818 N1819 1.261 1_655 S
N1819 Co1770 2.214 . S
N1819 C1817 1.325 1_455 S
N1819 C1818 1.261 1_455 S
C1820 H1790 0.931 . S
C1820 C1817 1.357 . S
C1820 C1821 1.312 . S
C1821 H1792 0.930 . S
C1821 C1816 1.261 . S
C1821 C1820 1.312 . S
C1822 O1794 1.214 . S
C1822 O1802 1.234 . S
C1823 H1795 0.929 . S
C1823 C1826 1.391 . S
C1823 C1828 1.391 . S
C1824 H1796 0.929 . S
C1824 C1825 1.390 . S
C1824 N1827 1.391 . S
C1825 H1797 0.930 . S
C1825 C1824 1.390 . S
C1825 C1826 1.392 . S
C1826 H1798 0.929 . S
C1826 C1823 1.391 . S
C1826 C1825 1.392 . S
N1827 Co1771 2.257 . S
N1827 C1824 1.391 . S
N1827 C1828 1.388 . S
C1828 H1799 0.930 . S
C1828 C1823 1.391 . S
C1828 N1827 1.388 . S
Co1829 O1831 2.143 . S
Co1829 O1837 2.074 . S
Co1829 O1840 2.093 . S
Co1829 O1853 2.097 . S
Co1829 N1870 2.151 . S
Co1829 N1878 2.214 . S
Co1830 O1831 2.160 . S
Co1830 O1836 2.058 . S
Co1830 O1846 2.057 . S
Co1830 O1861 2.037 . S
Co1830 N1865 2.145 . S
Co1830 N1886 2.257 . S
O1831 Co1829 2.143 . S
O1831 Co1830 2.160 . S
C1832 O1833 1.278 . S
C1832 O1840 1.224 . S
O1833 C1832 1.278 . S
C1834 O1835 1.245 . S
C1834 O1846 1.232 . S
O1835 C1834 1.245 . S
O1836 Co1830 2.058 . S
O1836 C1862 1.269 . S
O1837 Co1829 2.074 . S
O1837 C1862 1.257 . S
H1838 C1863 0.930 . S
H1839 C1869 0.930 . S
O1840 Co1829 2.093 . S
O1840 C1832 1.224 . S
H1841 C1873 0.929 . S
H1842 C1875 0.930 . S
H1843 C1876 0.930 . S
H1844 C1874 0.929 . S
H1845 C1877 0.928 . S
O1846 Co1830 2.057 . S
O1846 C1834 1.232 . S
H1847 C1866 0.929 . S
H1848 C1867 0.929 . S
H1849 C1879 0.931 . S
H1850 C1871 0.929 . S
H1851 C1880 0.930 . S
H1852 C1872 0.931 . S
O1853 Co1829 2.097 . S
O1853 C1881 1.214 . S
H1854 C1882 0.929 . S
H1855 C1883 0.929 . S
H1856 C1884 0.930 . S
H1857 C1885 0.929 . S
H1858 C1887 0.930 . S
H1859 C1864 0.930 . S
H1860 C1868 0.930 . S
O1861 Co1830 2.037 . S
O1861 C1881 1.234 . S
C1862 O1836 1.269 . S
C1862 O1837 1.257 . S
C1863 H1838 0.930 . S
C1863 C1866 1.388 . S
C1863 C1868 1.418 . S
C1864 H1859 0.930 . S
C1864 C1867 1.404 . S
C1864 C1868 1.353 . S
N1865 Co1830 2.145 . S
N1865 C1866 1.397 . S
N1865 C1867 1.334 . S
C1866 H1847 0.929 . S
C1866 C1863 1.388 . S
C1866 N1865 1.397 . S
C1867 H1848 0.929 . S
C1867 C1864 1.404 . S
C1867 N1865 1.334 . S
C1868 H1860 0.930 . S
C1868 C1863 1.418 . S
C1868 C1864 1.353 . S
C1869 H1839 0.930 . S
C1869 N1870 1.330 . S
C1869 C1871 1.446 . S
N1870 Co1829 2.151 . S
N1870 C1869 1.330 . S
N1870 C1874 1.418 . S
C1871 H1850 0.929 . S
C1871 C1869 1.446 . S
C1871 C1872 1.332 . S
C1872 H1852 0.931 . S
C1872 C1871 1.332 . S
C1872 C1873 1.267 . S
C1873 H1841 0.929 . S
C1873 C1872 1.267 . S
C1873 C1874 1.251 . S
C1874 H1844 0.929 . S
C1874 N1870 1.418 . S
C1874 C1873 1.251 . S
C1875 H1842 0.930 . S
C1875 C1877 1.406 . S
C1875 C1880 1.261 . S
C1876 H1843 0.930 . S
C1876 N1878 1.325 . S
C1876 C1879 1.357 . S
C1877 H1845 0.928 . S
C1877 C1875 1.406 . S
C1877 N1878 1.261 . S
N1878 Co1829 2.214 . S
N1878 C1876 1.325 . S
N1878 C1877 1.261 . S
C1879 H1849 0.931 . S
C1879 C1876 1.357 . S
C1879 C1880 1.312 . S
C1880 H1851 0.930 . S
C1880 C1875 1.261 . S
C1880 C1879 1.312 . S
C1881 O1853 1.214 . S
C1881 O1861 1.234 . S
C1882 H1854 0.929 . S
C1882 C1885 1.391 . S
C1882 C1887 1.391 . S
C1883 H1855 0.929 . S
C1883 C1884 1.390 . S
C1883 N1886 1.391 . S
C1884 H1856 0.930 . S
C1884 C1883 1.390 . S
C1884 C1885 1.392 . S
C1885 H1857 0.929 . S
C1885 C1882 1.391 . S
C1885 C1884 1.392 . S
N1886 Co1830 2.257 . S
N1886 C1883 1.391 . S
N1886 C1887 1.388 . S
C1887 H1858 0.930 . S
C1887 C1882 1.391 . S
C1887 N1886 1.388 . S
C1888 C1889 1.369 1_554 S
C1888 C1890 1.419 1_655 S
C1888 H1892 0.930 . S
C1889 C1888 1.369 1_556 S
C1889 C1898 1.429 . S
C1890 C1888 1.419 1_455 S
C1890 C1891 1.363 . S
C1890 H1893 0.929 . S
C1891 C1890 1.363 . S
C1891 C1897 1.428 1_554 S
H1892 C1888 0.930 . S
H1893 C1890 0.929 . S
S1894 N1895 1.613 . S
S1894 N1896 1.610 1_655 S
N1895 S1894 1.613 . S
N1895 C1898 1.350 . S
N1896 S1894 1.610 1_455 S
N1896 C1897 1.351 . S
C1897 C1891 1.428 1_556 S
C1897 N1896 1.351 . S
C1897 C1898 1.434 1_455 S
C1898 C1889 1.429 . S
C1898 N1895 1.350 . S
C1898 C1897 1.434 1_655 S
C1899 C1900 1.369 . S
C1899 C1901 1.419 . S
C1899 H1903 0.930 . S
C1900 C1899 1.369 . S
C1900 C1909 1.429 . S
C1901 C1899 1.419 . S
C1901 C1902 1.363 . S
C1901 H1904 0.929 . S
C1902 C1901 1.363 . S
C1902 C1908 1.428 . S
H1903 C1899 0.930 . S
H1904 C1901 0.929 . S
S1905 N1906 1.613 . S
S1905 N1907 1.610 . S
N1906 S1905 1.613 . S
N1906 C1909 1.350 . S
N1907 S1905 1.610 . S
N1907 C1908 1.351 . S
C1908 C1902 1.428 . S
C1908 N1907 1.351 . S
C1908 C1909 1.434 . S
C1909 C1900 1.429 . S
C1909 N1906 1.350 . S
C1909 C1908 1.434 . S
C1910 C1911 1.369 . S
C1910 C1912 1.419 . S
C1910 H1914 0.930 . S
C1911 C1910 1.369 . S
C1911 C1920 1.429 . S
C1912 C1910 1.419 . S
C1912 C1913 1.363 . S
C1912 H1915 0.929 . S
C1913 C1912 1.363 . S
C1913 C1919 1.428 . S
H1914 C1910 0.930 . S
H1915 C1912 0.929 . S
S1916 N1917 1.613 . S
S1916 N1918 1.610 . S
N1917 S1916 1.613 . S
N1917 C1920 1.350 . S
N1918 S1916 1.610 . S
N1918 C1919 1.351 . S
C1919 C1913 1.428 . S
C1919 N1918 1.351 . S
C1919 C1920 1.434 . S
C1920 C1911 1.429 . S
C1920 N1917 1.350 . S
C1920 C1919 1.434 . S
C1921 C1922 1.369 . S
C1921 C1923 1.419 . S
C1921 H1925 0.930 . S
C1922 C1921 1.369 . S
C1922 C1931 1.429 . S
C1923 C1921 1.419 . S
C1923 C1924 1.363 . S
C1923 H1926 0.929 . S
C1924 C1923 1.363 . S
C1924 C1930 1.428 . S
H1925 C1921 0.930 . S
H1926 C1923 0.929 . S
S1927 N1928 1.613 . S
S1927 N1929 1.610 . S
N1928 S1927 1.613 . S
N1928 C1931 1.350 . S
N1929 S1927 1.610 . S
N1929 C1930 1.351 . S
C1930 C1924 1.428 . S
C1930 N1929 1.351 . S
C1930 C1931 1.434 . S
C1931 C1922 1.429 . S
C1931 N1928 1.350 . S
C1931 C1930 1.434 . S
C1932 C1933 1.369 . S
C1932 C1934 1.419 . S
C1932 H1936 0.930 . S
C1933 C1932 1.369 . S
C1933 C1942 1.429 1_655 S
C1934 C1932 1.419 . S
C1934 C1935 1.363 1_655 S
C1934 H1937 0.929 . S
C1935 C1934 1.363 1_455 S
C1935 C1941 1.428 . S
H1936 C1932 0.930 . S
H1937 C1934 0.929 . S
S1938 N1939 1.613 . S
S1938 N1940 1.610 . S
N1939 S1938 1.613 . S
N1939 C1942 1.350 . S
N1940 S1938 1.610 . S
N1940 C1941 1.351 . S
C1941 C1935 1.428 . S
C1941 N1940 1.351 . S
C1941 C1942 1.434 . S
C1942 C1933 1.429 1_455 S
C1942 N1939 1.350 . S
C1942 C1941 1.434 . S
C1943 C1944 1.369 . S
C1943 C1945 1.419 . S
C1943 H1947 0.930 . S
C1944 C1943 1.369 . S
C1944 C1953 1.429 . S
C1945 C1943 1.419 . S
C1945 C1946 1.363 . S
C1945 H1948 0.929 . S
C1946 C1945 1.363 . S
C1946 C1952 1.428 . S
H1947 C1943 0.930 . S
H1948 C1945 0.929 . S
S1949 N1950 1.613 . S
S1949 N1951 1.610 . S
N1950 S1949 1.613 . S
N1950 C1953 1.350 . S
N1951 S1949 1.610 . S
N1951 C1952 1.351 . S
C1952 C1946 1.428 . S
C1952 N1951 1.351 . S
C1952 C1953 1.434 . S
C1953 C1944 1.429 . S
C1953 N1950 1.350 . S
C1953 C1952 1.434 . S
C1954 C1955 1.369 . S
C1954 C1956 1.419 1_556 S
C1954 H1958 0.930 . S
C1955 C1954 1.369 . S
C1955 C1964 1.429 . S
C1956 C1954 1.419 1_554 S
C1956 C1957 1.363 . S
C1956 H1959 0.929 . S
C1957 C1956 1.363 . S
C1957 C1963 1.428 . S
H1958 C1954 0.930 . S
H1959 C1956 0.929 . S
S1960 N1961 1.613 . S
S1960 N1962 1.610 1_556 S
N1961 S1960 1.613 . S
N1961 C1964 1.350 . S
N1962 S1960 1.610 1_554 S
N1962 C1963 1.351 . S
C1963 C1957 1.428 . S
C1963 N1962 1.351 . S
C1963 C1964 1.434 1_554 S
C1964 C1955 1.429 . S
C1964 N1961 1.350 . S
C1964 C1963 1.434 1_556 S
C1965 C1966 1.369 . S
C1965 C1967 1.419 . S
C1965 H1969 0.930 . S
C1966 C1965 1.369 . S
C1966 C1975 1.429 . S
C1967 C1965 1.419 . S
C1967 C1968 1.363 . S
C1967 H1970 0.929 . S
C1968 C1967 1.363 . S
C1968 C1974 1.428 . S
H1969 C1965 0.930 . S
H1970 C1967 0.929 . S
S1971 N1972 1.613 . S
S1971 N1973 1.610 . S
N1972 S1971 1.613 . S
N1972 C1975 1.350 . S
N1973 S1971 1.610 . S
N1973 C1974 1.351 . S
C1974 C1968 1.428 . S
C1974 N1973 1.351 . S
C1974 C1975 1.434 . S
C1975 C1966 1.429 . S
C1975 N1972 1.350 . S
C1975 C1974 1.434 . S
C1976 C1977 1.369 . S
C1976 C1978 1.419 . S
C1976 H1980 0.930 . S
C1977 C1976 1.369 . S
C1977 C1986 1.429 . S
C1978 C1976 1.419 . S
C1978 C1979 1.363 . S
C1978 H1981 0.929 . S
C1979 C1978 1.363 . S
C1979 C1985 1.428 . S
H1980 C1976 0.930 . S
H1981 C1978 0.929 . S
S1982 N1983 1.613 . S
S1982 N1984 1.610 . S
N1983 S1982 1.613 . S
N1983 C1986 1.350 . S
N1984 S1982 1.610 . S
N1984 C1985 1.351 . S
C1985 C1979 1.428 . S
C1985 N1984 1.351 . S
C1985 C1986 1.434 . S
C1986 C1977 1.429 . S
C1986 N1983 1.350 . S
C1986 C1985 1.434 . S
C1987 C1988 1.369 . S
C1987 C1989 1.419 . S
C1987 H1991 0.930 . S
C1988 C1987 1.369 . S
C1988 C1997 1.429 . S
C1989 C1987 1.419 . S
C1989 C1990 1.363 . S
C1989 H1992 0.929 . S
C1990 C1989 1.363 . S
C1990 C1996 1.428 . S
H1991 C1987 0.930 . S
H1992 C1989 0.929 . S
S1993 N1994 1.613 . S
S1993 N1995 1.610 . S
N1994 S1993 1.613 . S
N1994 C1997 1.350 . S
N1995 S1993 1.610 . S
N1995 C1996 1.351 . S
C1996 C1990 1.428 . S
C1996 N1995 1.351 . S
C1996 C1997 1.434 . S
C1997 C1988 1.429 . S
C1997 N1994 1.350 . S
C1997 C1996 1.434 . S
C1998 C1999 1.369 . S
C1998 C2000 1.419 . S
C1998 H2002 0.930 . S
C1999 C1998 1.369 . S
C1999 C2008 1.429 . S
C2000 C1998 1.419 . S
C2000 C2001 1.363 . S
C2000 H2003 0.929 . S
C2001 C2000 1.363 . S
C2001 C2007 1.428 . S
H2002 C1998 0.930 . S
H2003 C2000 0.929 . S
S2004 N2005 1.613 . S
S2004 N2006 1.610 . S
N2005 S2004 1.613 . S
N2005 C2008 1.350 . S
N2006 S2004 1.610 . S
N2006 C2007 1.351 . S
C2007 C2001 1.428 . S
C2007 N2006 1.351 . S
C2007 C2008 1.434 . S
C2008 C1999 1.429 . S
C2008 N2005 1.350 . S
C2008 C2007 1.434 . S
C2009 C2010 1.369 . S
C2009 C2011 1.419 . S
C2009 H2013 0.930 . S
C2010 C2009 1.369 . S
C2010 C2019 1.429 . S
C2011 C2009 1.419 . S
C2011 C2012 1.363 . S
C2011 H2014 0.929 . S
C2012 C2011 1.363 . S
C2012 C2018 1.428 . S
H2013 C2009 0.930 . S
H2014 C2011 0.929 . S
S2015 N2016 1.613 . S
S2015 N2017 1.610 . S
N2016 S2015 1.613 . S
N2016 C2019 1.350 . S
N2017 S2015 1.610 . S
N2017 C2018 1.351 . S
C2018 C2012 1.428 . S
C2018 N2017 1.351 . S
C2018 C2019 1.434 . S
C2019 C2010 1.429 . S
C2019 N2016 1.350 . S
C2019 C2018 1.434 . S
C2020 C2021 1.369 . S
C2020 C2022 1.419 1_565 S
C2020 H2024 0.930 . S
C2021 C2020 1.369 . S
C2021 C2030 1.429 . S
C2022 C2020 1.419 1_545 S
C2022 C2023 1.363 . S
C2022 H2025 0.929 . S
C2023 C2022 1.363 . S
C2023 C2029 1.428 . S
H2024 C2020 0.930 . S
H2025 C2022 0.929 . S
S2026 N2027 1.613 . S
S2026 N2028 1.610 1_565 S
N2027 S2026 1.613 . S
N2027 C2030 1.350 . S
N2028 S2026 1.610 1_545 S
N2028 C2029 1.351 . S
C2029 C2023 1.428 . S
C2029 N2028 1.351 . S
C2029 C2030 1.434 1_545 S
C2030 C2021 1.429 . S
C2030 N2027 1.350 . S
C2030 C2029 1.434 1_565 S
C2031 C2032 1.369 1_554 S
C2031 C2033 1.408 1_465 S
C2031 H2035 0.930 . S
C2032 C2031 1.369 1_556 S
C2032 C2041 1.439 . S
C2033 C2031 1.408 1_645 S
C2033 C2034 1.374 . S
C2033 H2036 0.929 1_655 S
C2034 C2033 1.374 . S
C2034 C2040 1.428 1_554 S
H2035 C2031 0.930 . S
H2036 C2033 0.929 1_455 S
S2037 N2038 1.621 1_545 S
S2037 N2039 1.610 . S
N2038 S2037 1.621 1_565 S
N2038 C2041 1.349 1_655 S
N2039 S2037 1.610 . S
N2039 C2040 1.351 . S
C2040 C2034 1.428 1_556 S
C2040 N2039 1.351 . S
C2040 C2041 1.424 1_645 S
C2041 C2032 1.439 . S
C2041 N2038 1.349 1_455 S
C2041 C2040 1.424 1_465 S
C2042 C2043 1.369 1_554 S
C2042 C2044 1.419 1_545 S
C2042 H2046 0.930 . S
C2043 C2042 1.369 1_556 S
C2043 C2052 1.429 . S
C2044 C2042 1.419 1_565 S
C2044 C2045 1.363 . S
C2044 H2047 0.929 . S
C2045 C2044 1.363 . S
C2045 C2051 1.428 1_554 S
H2046 C2042 0.930 . S
H2047 C2044 0.929 . S
S2048 N2049 1.613 1_565 S
S2048 N2050 1.610 . S
N2049 S2048 1.613 1_545 S
N2049 C2052 1.350 . S
N2050 S2048 1.610 . S
N2050 C2051 1.351 . S
C2051 C2045 1.428 1_556 S
C2051 N2050 1.351 . S
C2051 C2052 1.434 1_565 S
C2052 C2043 1.429 . S
C2052 N2049 1.350 . S
C2052 C2051 1.434 1_545 S
C2053 C2054 1.369 1_655 S
C2053 C2055 1.419 1_545 S
C2053 H2057 0.930 . S
C2054 C2053 1.369 1_455 S
C2054 C2063 1.429 . S
C2055 C2053 1.419 1_565 S
C2055 C2056 1.363 . S
C2055 H2058 0.929 . S
C2056 C2055 1.363 . S
C2056 C2062 1.428 1_655 S
H2057 C2053 0.930 . S
H2058 C2055 0.929 . S
S2059 N2060 1.613 1_565 S
S2059 N2061 1.610 . S
N2060 S2059 1.613 1_545 S
N2060 C2063 1.350 . S
N2061 S2059 1.610 . S
N2061 C2062 1.351 . S
C2062 C2056 1.428 1_455 S
C2062 N2061 1.351 . S
C2062 C2063 1.434 1_565 S
C2063 C2054 1.429 . S
C2063 N2060 1.350 . S
C2063 C2062 1.434 1_545 S
C2064 C2065 1.369 . S
C2064 C2066 1.419 . S
C2064 H2068 0.930 . S
C2065 C2064 1.369 . S
C2065 C2074 1.429 1_655 S
C2066 C2064 1.419 . S
C2066 C2067 1.363 1_655 S
C2066 H2069 0.929 . S
C2067 C2066 1.363 1_455 S
C2067 C2073 1.428 . S
H2068 C2064 0.930 . S
H2069 C2066 0.929 . S
S2070 N2071 1.613 . S
S2070 N2072 1.610 . S
N2071 S2070 1.613 . S
N2071 C2074 1.350 . S
N2072 S2070 1.610 . S
N2072 C2073 1.351 . S
C2073 C2067 1.428 . S
C2073 N2072 1.351 . S
C2073 C2074 1.434 . S
C2074 C2065 1.429 1_455 S
C2074 N2071 1.350 . S
C2074 C2073 1.434 . S
C2075 C2076 1.369 . S
C2075 C2077 1.419 1_455 S
C2075 H2079 0.930 . S
C2076 C2075 1.369 . S
C2076 C2085 1.429 . S
C2077 C2075 1.419 1_655 S
C2077 C2078 1.363 . S
C2077 H2080 0.929 . S
C2078 C2077 1.363 . S
C2078 C2084 1.428 . S
H2079 C2075 0.930 . S
H2080 C2077 0.929 . S
S2081 N2082 1.613 . S
S2081 N2083 1.610 1_455 S
N2082 S2081 1.613 . S
N2082 C2085 1.350 . S
N2083 S2081 1.610 1_655 S
N2083 C2084 1.351 . S
C2084 C2078 1.428 . S
C2084 N2083 1.351 . S
C2084 C2085 1.434 1_655 S
C2085 C2076 1.429 . S
C2085 N2082 1.350 . S
C2085 C2084 1.434 1_455 S
C2086 C2087 1.369 . S
C2086 C2088 1.419 . S
C2086 H2090 0.930 . S
C2087 C2086 1.369 . S
C2087 C2096 1.429 . S
C2088 C2086 1.419 . S
C2088 C2089 1.363 . S
C2088 H2091 0.929 . S
C2089 C2088 1.363 . S
C2089 C2095 1.428 . S
H2090 C2086 0.930 . S
H2091 C2088 0.929 . S
S2092 N2093 1.613 . S
S2092 N2094 1.610 . S
N2093 S2092 1.613 . S
N2093 C2096 1.350 . S
N2094 S2092 1.610 . S
N2094 C2095 1.351 . S
C2095 C2089 1.428 . S
C2095 N2094 1.351 . S
C2095 C2096 1.434 . S
C2096 C2087 1.429 . S
C2096 N2093 1.350 . S
C2096 C2095 1.434 . S
C2097 C2098 1.369 . S
C2097 C2099 1.419 . S
C2097 H2101 0.930 . S
C2098 C2097 1.369 . S
C2098 C2107 1.429 . S
C2099 C2097 1.419 . S
C2099 C2100 1.363 . S
C2099 H2102 0.929 . S
C2100 C2099 1.363 . S
C2100 C2106 1.428 . S
H2101 C2097 0.930 . S
H2102 C2099 0.929 . S
S2103 N2104 1.613 . S
S2103 N2105 1.610 . S
N2104 S2103 1.613 . S
N2104 C2107 1.350 . S
N2105 S2103 1.610 . S
N2105 C2106 1.351 . S
C2106 C2100 1.428 . S
C2106 N2105 1.351 . S
C2106 C2107 1.434 . S
C2107 C2098 1.429 . S
C2107 N2104 1.350 . S
C2107 C2106 1.434 . S
C2108 C2109 1.369 . S
C2108 C2110 1.419 . S
C2108 H2112 0.930 . S
C2109 C2108 1.369 . S
C2109 C2118 1.429 1_655 S
C2110 C2108 1.419 . S
C2110 C2111 1.363 1_655 S
C2110 H2113 0.929 . S
C2111 C2110 1.363 1_455 S
C2111 C2117 1.428 . S
H2112 C2108 0.930 . S
H2113 C2110 0.929 . S
S2114 N2115 1.613 . S
S2114 N2116 1.610 . S
N2115 S2114 1.613 . S
N2115 C2118 1.350 . S
N2116 S2114 1.610 . S
N2116 C2117 1.351 . S
C2117 C2111 1.428 . S
C2117 N2116 1.351 . S
C2117 C2118 1.434 . S
C2118 C2109 1.429 1_455 S
C2118 N2115 1.350 . S
C2118 C2117 1.434 . S
C2119 C2120 1.369 . S
C2119 C2121 1.419 . S
C2119 H2123 0.930 . S
C2120 C2119 1.369 . S
C2120 C2129 1.429 . S
C2121 C2119 1.419 . S
C2121 C2122 1.363 . S
C2121 H2124 0.929 . S
C2122 C2121 1.363 . S
C2122 C2128 1.428 . S
H2123 C2119 0.930 . S
H2124 C2121 0.929 . S
S2125 N2126 1.613 . S
S2125 N2127 1.610 . S
N2126 S2125 1.613 . S
N2126 C2129 1.350 . S
N2127 S2125 1.610 . S
N2127 C2128 1.351 . S
C2128 C2122 1.428 . S
C2128 N2127 1.351 . S
C2128 C2129 1.434 . S
C2129 C2120 1.429 . S
C2129 N2126 1.350 . S
C2129 C2128 1.434 . S
C2130 C2131 1.369 . S
C2130 C2132 1.419 . S
C2130 H2134 0.930 . S
C2131 C2130 1.369 . S
C2131 C2140 1.429 . S
C2132 C2130 1.419 . S
C2132 C2133 1.363 . S
C2132 H2135 0.929 . S
C2133 C2132 1.363 . S
C2133 C2139 1.428 . S
H2134 C2130 0.930 . S
H2135 C2132 0.929 . S
S2136 N2137 1.613 1_554 S
S2136 N2138 1.610 1_554 S
N2137 S2136 1.613 1_556 S
N2137 C2140 1.350 . S
N2138 S2136 1.610 1_556 S
N2138 C2139 1.351 . S
C2139 C2133 1.428 . S
C2139 N2138 1.351 . S
C2139 C2140 1.434 . S
C2140 C2131 1.429 . S
C2140 N2137 1.350 . S
C2140 C2139 1.434 . S
C2141 C2142 1.369 . S
C2141 C2143 1.419 1_455 S
C2141 H2145 0.930 . S
C2142 C2141 1.369 . S
C2142 C2151 1.429 . S
C2143 C2141 1.419 1_655 S
C2143 C2144 1.363 . S
C2143 H2146 0.929 . S
C2144 C2143 1.363 . S
C2144 C2150 1.428 . S
H2145 C2141 0.930 . S
H2146 C2143 0.929 . S
S2147 N2148 1.613 1_655 S
S2147 N2149 1.610 . S
N2148 S2147 1.613 1_455 S
N2148 C2151 1.350 . S
N2149 S2147 1.610 . S
N2149 C2150 1.351 . S
C2150 C2144 1.428 . S
C2150 N2149 1.351 . S
C2150 C2151 1.434 1_655 S
C2151 C2142 1.429 . S
C2151 N2148 1.350 . S
C2151 C2150 1.434 1_455 S
C2152 C2153 1.369 . S
C2152 C2154 1.419 . S
C2152 H2156 0.930 . S
C2153 C2152 1.369 . S
C2153 C2162 1.429 1_655 S
C2154 C2152 1.419 . S
C2154 C2155 1.363 1_655 S
C2154 H2157 0.929 . S
C2155 C2154 1.363 1_455 S
C2155 C2161 1.428 . S
H2156 C2152 0.930 . S
H2157 C2154 0.929 . S
S2158 N2159 1.613 . S
S2158 N2160 1.610 . S
N2159 S2158 1.613 . S
N2159 C2162 1.350 . S
N2160 S2158 1.610 . S
N2160 C2161 1.351 . S
C2161 C2155 1.428 . S
C2161 N2160 1.351 . S
C2161 C2162 1.434 . S
C2162 C2153 1.429 1_455 S
C2162 N2159 1.350 . S
C2162 C2161 1.434 . S
C2163 C2164 1.369 . S
C2163 C2165 1.419 1_655 S
C2163 H2167 0.930 . S
C2164 C2163 1.369 . S
C2164 C2173 1.429 . S
C2165 C2163 1.419 1_455 S
C2165 C2166 1.363 . S
C2165 H2168 0.929 . S
C2166 C2165 1.363 . S
C2166 C2172 1.428 . S
H2167 C2163 0.930 . S
H2168 C2165 0.929 . S
S2169 N2170 1.613 1_455 S
S2169 N2171 1.610 . S
N2170 S2169 1.613 1_655 S
N2170 C2173 1.350 . S
N2171 S2169 1.610 . S
N2171 C2172 1.351 . S
C2172 C2166 1.428 . S
C2172 N2171 1.351 . S
C2172 C2173 1.434 1_455 S
C2173 C2164 1.429 . S
C2173 N2170 1.350 . S
C2173 C2172 1.434 1_655 S
C2174 C2175 1.369 . S
C2174 C2176 1.419 . S
C2174 H2178 0.930 . S
C2175 C2174 1.369 . S
C2175 C2184 1.429 . S
C2176 C2174 1.419 . S
C2176 C2177 1.363 . S
C2176 H2179 0.929 . S
C2177 C2176 1.363 . S
C2177 C2183 1.428 . S
H2178 C2174 0.930 . S
H2179 C2176 0.929 . S
S2180 N2181 1.613 . S
S2180 N2182 1.610 . S
N2181 S2180 1.613 . S
N2181 C2184 1.350 . S
N2182 S2180 1.610 . S
N2182 C2183 1.351 . S
C2183 C2177 1.428 . S
C2183 N2182 1.351 . S
C2183 C2184 1.434 . S
C2184 C2175 1.429 . S
C2184 N2181 1.350 . S
C2184 C2183 1.434 . S
C2185 C2186 1.369 . S
C2185 C2187 1.419 . S
C2185 H2189 0.930 . S
C2186 C2185 1.369 . S
C2186 C2195 1.429 . S
C2187 C2185 1.419 . S
C2187 C2188 1.363 . S
C2187 H2190 0.929 . S
C2188 C2187 1.363 . S
C2188 C2194 1.428 . S
H2189 C2185 0.930 . S
H2190 C2187 0.929 . S
S2191 N2192 1.613 . S
S2191 N2193 1.610 . S
N2192 S2191 1.613 . S
N2192 C2195 1.350 . S
N2193 S2191 1.610 . S
N2193 C2194 1.351 . S
C2194 C2188 1.428 . S
C2194 N2193 1.351 . S
C2194 C2195 1.434 . S
C2195 C2186 1.429 . S
C2195 N2192 1.350 . S
C2195 C2194 1.434 . S
C2196 C2197 1.369 1_455 S
C2196 C2198 1.419 . S
C2196 H2200 0.930 . S
C2197 C2196 1.369 1_655 S
C2197 C2206 1.429 . S
C2198 C2196 1.419 . S
C2198 C2199 1.363 . S
C2198 H2201 0.929 . S
C2199 C2198 1.363 . S
C2199 C2205 1.428 1_455 S
H2200 C2196 0.930 . S
H2201 C2198 0.929 . S
S2202 N2203 1.613 . S
S2202 N2204 1.610 . S
N2203 S2202 1.613 . S
N2203 C2206 1.350 . S
N2204 S2202 1.610 . S
N2204 C2205 1.351 . S
C2205 C2199 1.428 1_655 S
C2205 N2204 1.351 . S
C2205 C2206 1.434 . S
C2206 C2197 1.429 . S
C2206 N2203 1.350 . S
C2206 C2205 1.434 . S
C2207 C2208 1.369 . S
C2207 C2209 1.419 . S
C2207 H2211 0.930 . S
C2208 C2207 1.369 . S
C2208 C2217 1.429 . S
C2209 C2207 1.419 . S
C2209 C2210 1.363 . S
C2209 H2212 0.929 . S
C2210 C2209 1.363 . S
C2210 C2216 1.428 . S
H2211 C2207 0.930 . S
H2212 C2209 0.929 . S
S2213 N2214 1.613 . S
S2213 N2215 1.610 . S
N2214 S2213 1.613 . S
N2214 C2217 1.350 . S
N2215 S2213 1.610 . S
N2215 C2216 1.351 . S
C2216 C2210 1.428 . S
C2216 N2215 1.351 . S
C2216 C2217 1.434 . S
C2217 C2208 1.429 . S
C2217 N2214 1.350 . S
C2217 C2216 1.434 . S
C2218 C2219 1.369 . S
C2218 C2220 1.419 . S
C2218 H2222 0.930 . S
C2219 C2218 1.369 . S
C2219 C2228 1.429 . S
C2220 C2218 1.419 . S
C2220 C2221 1.363 . S
C2220 H2223 0.929 . S
C2221 C2220 1.363 . S
C2221 C2227 1.428 . S
H2222 C2218 0.930 . S
H2223 C2220 0.929 . S
S2224 N2225 1.613 . S
S2224 N2226 1.610 . S
N2225 S2224 1.613 . S
N2225 C2228 1.350 . S
N2226 S2224 1.610 . S
N2226 C2227 1.351 . S
C2227 C2221 1.428 . S
C2227 N2226 1.351 . S
C2227 C2228 1.434 . S
C2228 C2219 1.429 . S
C2228 N2225 1.350 . S
C2228 C2227 1.434 . S
C2229 C2230 1.369 . S
C2229 C2231 1.419 1_655 S
C2229 H2233 0.930 . S
C2230 C2229 1.369 . S
C2230 C2239 1.429 . S
C2231 C2229 1.419 1_455 S
C2231 C2232 1.363 . S
C2231 H2234 0.929 . S
C2232 C2231 1.363 . S
C2232 C2238 1.428 . S
H2233 C2229 0.930 . S
H2234 C2231 0.929 . S
S2235 N2236 1.613 . S
S2235 N2237 1.610 1_655 S
N2236 S2235 1.613 . S
N2236 C2239 1.350 . S
N2237 S2235 1.610 1_455 S
N2237 C2238 1.351 . S
C2238 C2232 1.428 . S
C2238 N2237 1.351 . S
C2238 C2239 1.434 1_455 S
C2239 C2230 1.429 . S
C2239 N2236 1.350 . S
C2239 C2238 1.434 1_655 S
C2240 C2241 1.369 1_554 S
C2240 C2242 1.419 . S
C2240 H2244 0.930 . S
C2241 C2240 1.369 1_556 S
C2241 C2250 1.429 . S
C2242 C2240 1.419 . S
C2242 C2243 1.363 . S
C2242 H2245 0.929 . S
C2243 C2242 1.363 . S
C2243 C2249 1.428 1_554 S
H2244 C2240 0.930 . S
H2245 C2242 0.929 . S
S2246 N2247 1.613 . S
S2246 N2248 1.610 . S
N2247 S2246 1.613 . S
N2247 C2250 1.350 . S
N2248 S2246 1.610 . S
N2248 C2249 1.351 . S
C2249 C2243 1.428 1_556 S
C2249 N2248 1.351 . S
C2249 C2250 1.434 . S
C2250 C2241 1.429 . S
C2250 N2247 1.350 . S
C2250 C2249 1.434 . S
C2251 C2252 1.369 . S
C2251 C2253 1.419 . S
C2251 H2255 0.930 . S
C2252 C2251 1.369 . S
C2252 C2261 1.429 1_545 S
C2253 C2251 1.419 . S
C2253 C2254 1.363 1_545 S
C2253 H2256 0.929 . S
C2254 C2253 1.363 1_565 S
C2254 C2260 1.428 . S
H2255 C2251 0.930 . S
H2256 C2253 0.929 . S
S2257 N2258 1.613 . S
S2257 N2259 1.610 . S
N2258 S2257 1.613 . S
N2258 C2261 1.350 . S
N2259 S2257 1.610 . S
N2259 C2260 1.351 . S
C2260 C2254 1.428 . S
C2260 N2259 1.351 . S
C2260 C2261 1.434 . S
C2261 C2252 1.429 1_565 S
C2261 N2258 1.350 . S
C2261 C2260 1.434 . S
C2262 C2263 1.369 . S
C2262 C2264 1.419 . S
C2262 H2266 0.930 . S
C2263 C2262 1.369 . S
C2263 C2272 1.429 . S
C2264 C2262 1.419 . S
C2264 C2265 1.363 . S
C2264 H2267 0.929 . S
C2265 C2264 1.363 . S
C2265 C2271 1.428 . S
H2266 C2262 0.930 . S
H2267 C2264 0.929 . S
S2268 N2269 1.613 . S
S2268 N2270 1.610 . S
N2269 S2268 1.613 . S
N2269 C2272 1.350 . S
N2270 S2268 1.610 . S
N2270 C2271 1.351 . S
C2271 C2265 1.428 . S
C2271 N2270 1.351 . S
C2271 C2272 1.434 . S
C2272 C2263 1.429 . S
C2272 N2269 1.350 . S
C2272 C2271 1.434 . S
C2273 C2274 1.369 . S
C2273 C2275 1.419 1_545 S
C2273 H2277 0.930 . S
C2274 C2273 1.369 . S
C2274 C2283 1.429 . S
C2275 C2273 1.419 1_565 S
C2275 C2276 1.363 . S
C2275 H2278 0.929 . S
C2276 C2275 1.363 . S
C2276 C2282 1.428 . S
H2277 C2273 0.930 . S
H2278 C2275 0.929 . S
S2279 N2280 1.613 . S
S2279 N2281 1.610 . S
N2280 S2279 1.613 . S
N2280 C2283 1.350 . S
N2281 S2279 1.610 . S
N2281 C2282 1.351 1_545 S
C2282 C2276 1.428 . S
C2282 N2281 1.351 1_565 S
C2282 C2283 1.434 1_565 S
C2283 C2274 1.429 . S
C2283 N2280 1.350 . S
C2283 C2282 1.434 1_545 S
C2284 C2285 1.369 . S
C2284 C2286 1.419 . S
C2284 H2288 0.930 . S
C2285 C2284 1.369 . S
C2285 C2294 1.429 1_554 S
C2286 C2284 1.419 . S
C2286 C2287 1.363 1_554 S
C2286 H2289 0.929 . S
C2287 C2286 1.363 1_556 S
C2287 C2293 1.428 . S
H2288 C2284 0.930 . S
H2289 C2286 0.929 . S
S2290 N2291 1.613 . S
S2290 N2292 1.610 . S
N2291 S2290 1.613 . S
N2291 C2294 1.350 . S
N2292 S2290 1.610 . S
N2292 C2293 1.351 . S
C2293 C2287 1.428 . S
C2293 N2292 1.351 . S
C2293 C2294 1.434 . S
C2294 C2285 1.429 1_556 S
C2294 N2291 1.350 . S
C2294 C2293 1.434 . S
C2295 C2296 1.369 1_545 S
C2295 C2297 1.419 . S
C2295 H2299 0.930 . S
C2296 C2295 1.369 1_565 S
C2296 C2305 1.429 . S
C2297 C2295 1.419 . S
C2297 C2298 1.363 . S
C2297 H2300 0.929 . S
C2298 C2297 1.363 . S
C2298 C2304 1.428 1_545 S
H2299 C2295 0.930 . S
H2300 C2297 0.929 . S
S2301 N2302 1.613 . S
S2301 N2303 1.610 . S
N2302 S2301 1.613 . S
N2302 C2305 1.350 . S
N2303 S2301 1.610 . S
N2303 C2304 1.351 . S
C2304 C2298 1.428 1_565 S
C2304 N2303 1.351 . S
C2304 C2305 1.434 . S
C2305 C2296 1.429 . S
C2305 N2302 1.350 . S
C2305 C2304 1.434 . S
C2306 C2307 1.369 . S
C2306 C2308 1.419 . S
C2306 H2310 0.930 . S
C2307 C2306 1.369 . S
C2307 C2316 1.429 . S
C2308 C2306 1.419 . S
C2308 C2309 1.363 . S
C2308 H2311 0.929 . S
C2309 C2308 1.363 . S
C2309 C2315 1.428 . S
H2310 C2306 0.930 . S
H2311 C2308 0.929 . S
S2312 N2313 1.613 . S
S2312 N2314 1.610 . S
N2313 S2312 1.613 . S
N2313 C2316 1.350 . S
N2314 S2312 1.610 . S
N2314 C2315 1.351 . S
C2315 C2309 1.428 . S
C2315 N2314 1.351 . S
C2315 C2316 1.434 . S
C2316 C2307 1.429 . S
C2316 N2313 1.350 . S
C2316 C2315 1.434 . S
C2317 C2318 1.369 . S
C2317 C2319 1.419 1_545 S
C2317 H2321 0.930 . S
C2318 C2317 1.369 . S
C2318 C2327 1.429 . S
C2319 C2317 1.419 1_565 S
C2319 C2320 1.363 . S
C2319 H2322 0.929 . S
C2320 C2319 1.363 . S
C2320 C2326 1.436 . S
H2321 C2317 0.930 . S
H2322 C2319 0.929 . S
S2323 N2324 1.613 . S
S2323 N2325 1.610 . S
N2324 S2323 1.613 . S
N2324 C2327 1.350 . S
N2325 S2323 1.610 . S
N2325 C2326 1.350 1_545 S
C2326 C2320 1.436 . S
C2326 N2325 1.350 1_565 S
C2326 C2327 1.426 1_565 S
C2327 C2318 1.429 . S
C2327 N2324 1.350 . S
C2327 C2326 1.426 1_545 S
C2328 C2329 1.369 . S
C2328 C2330 1.419 . S
C2328 H2332 0.930 . S
C2329 C2328 1.369 . S
C2329 C2338 1.429 . S
C2330 C2328 1.419 . S
C2330 C2331 1.363 . S
C2330 H2333 0.929 . S
C2331 C2330 1.363 . S
C2331 C2337 1.428 . S
H2332 C2328 0.930 . S
H2333 C2330 0.929 . S
S2334 N2335 1.613 . S
S2334 N2336 1.610 . S
N2335 S2334 1.613 . S
N2335 C2338 1.350 . S
N2336 S2334 1.610 . S
N2336 C2337 1.351 . S
C2337 C2331 1.428 . S
C2337 N2336 1.351 . S
C2337 C2338 1.434 . S
C2338 C2329 1.429 . S
C2338 N2335 1.350 . S
C2338 C2337 1.434 . S
C2339 C2340 1.369 . S
C2339 C2341 1.419 . S
C2339 H2343 0.930 . S
C2340 C2339 1.369 . S
C2340 C2349 1.429 . S
C2341 C2339 1.419 . S
C2341 C2342 1.363 . S
C2341 H2344 0.929 . S
C2342 C2341 1.363 . S
C2342 C2348 1.428 . S
H2343 C2339 0.930 . S
H2344 C2341 0.929 . S
S2345 N2346 1.613 . S
S2345 N2347 1.610 . S
N2346 S2345 1.613 . S
N2346 C2349 1.350 . S
N2347 S2345 1.610 . S
N2347 C2348 1.351 . S
C2348 C2342 1.428 . S
C2348 N2347 1.351 . S
C2348 C2349 1.434 . S
C2349 C2340 1.429 . S
C2349 N2346 1.350 . S
C2349 C2348 1.434 . S
C2350 C2351 1.369 . S
C2350 C2352 1.419 1_554 S
C2350 H2354 0.930 . S
C2351 C2350 1.369 . S
C2351 C2360 1.429 . S
C2352 C2350 1.419 1_556 S
C2352 C2353 1.363 . S
C2352 H2355 0.929 . S
C2353 C2352 1.363 . S
C2353 C2359 1.428 . S
H2354 C2350 0.930 . S
H2355 C2352 0.929 . S
S2356 N2357 1.613 . S
S2356 N2358 1.610 1_554 S
N2357 S2356 1.613 . S
N2357 C2360 1.350 . S
N2358 S2356 1.610 1_556 S
N2358 C2359 1.351 . S
C2359 C2353 1.428 . S
C2359 N2358 1.351 . S
C2359 C2360 1.434 1_556 S
C2360 C2351 1.429 . S
C2360 N2357 1.350 . S
C2360 C2359 1.434 1_554 S
C2361 C2362 1.369 . S
C2361 C2363 1.419 . S
C2361 H2365 0.930 . S
C2362 C2361 1.369 . S
C2362 C2371 1.429 . S
C2363 C2361 1.419 . S
C2363 C2364 1.363 . S
C2363 H2366 0.929 . S
C2364 C2363 1.363 . S
C2364 C2370 1.428 . S
H2365 C2361 0.930 . S
H2366 C2363 0.929 . S
S2367 N2368 1.613 . S
S2367 N2369 1.610 . S
N2368 S2367 1.613 . S
N2368 C2371 1.350 . S
N2369 S2367 1.610 . S
N2369 C2370 1.351 . S
C2370 C2364 1.428 . S
C2370 N2369 1.351 . S
C2370 C2371 1.434 . S
C2371 C2362 1.429 . S
C2371 N2368 1.350 . S
C2371 C2370 1.434 . S
C2372 C2373 1.369 . S
C2372 C2374 1.419 . S
C2372 H2376 0.930 . S
C2373 C2372 1.369 . S
C2373 C2382 1.429 . S
C2374 C2372 1.419 . S
C2374 C2375 1.363 . S
C2374 H2377 0.929 . S
C2375 C2374 1.363 . S
C2375 C2381 1.428 . S
H2376 C2372 0.930 . S
H2377 C2374 0.929 . S
S2378 N2379 1.613 . S
S2378 N2380 1.610 . S
N2379 S2378 1.613 . S
N2379 C2382 1.350 . S
N2380 S2378 1.610 . S
N2380 C2381 1.351 . S
C2381 C2375 1.428 . S
C2381 N2380 1.351 . S
C2381 C2382 1.434 . S
C2382 C2373 1.429 . S
C2382 N2379 1.350 . S
C2382 C2381 1.434 . S
C2383 C2384 1.369 . S
C2383 C2385 1.419 . S
C2383 H2387 0.930 . S
C2384 C2383 1.369 . S
C2384 C2393 1.429 . S
C2385 C2383 1.419 . S
C2385 C2386 1.363 . S
C2385 H2388 0.929 . S
C2386 C2385 1.363 . S
C2386 C2392 1.428 . S
H2387 C2383 0.930 . S
H2388 C2385 0.929 . S
S2389 N2390 1.613 . S
S2389 N2391 1.610 . S
N2390 S2389 1.613 . S
N2390 C2393 1.350 . S
N2391 S2389 1.610 . S
N2391 C2392 1.351 . S
C2392 C2386 1.428 . S
C2392 N2391 1.351 . S
C2392 C2393 1.434 . S
C2393 C2384 1.429 . S
C2393 N2390 1.350 . S
C2393 C2392 1.434 . S
C2394 C2395 1.369 1_554 S
C2394 C2396 1.419 . S
C2394 H2398 0.930 . S
C2395 C2394 1.369 1_556 S
C2395 C2404 1.429 . S
C2396 C2394 1.419 . S
C2396 C2397 1.363 . S
C2396 H2399 0.929 . S
C2397 C2396 1.363 . S
C2397 C2403 1.428 1_554 S
H2398 C2394 0.930 . S
H2399 C2396 0.929 . S
S2400 N2401 1.613 . S
S2400 N2402 1.610 . S
N2401 S2400 1.613 . S
N2401 C2404 1.350 . S
N2402 S2400 1.610 . S
N2402 C2403 1.351 . S
C2403 C2397 1.428 1_556 S
C2403 N2402 1.351 . S
C2403 C2404 1.434 . S
C2404 C2395 1.429 . S
C2404 N2401 1.350 . S
C2404 C2403 1.434 . S
C2405 C2406 1.369 . S
C2405 C2407 1.419 . S
C2405 H2409 0.930 . S
C2406 C2405 1.369 . S
C2406 C2415 1.429 . S
C2407 C2405 1.419 . S
C2407 C2408 1.363 . S
C2407 H2410 0.929 . S
C2408 C2407 1.363 . S
C2408 C2414 1.428 . S
H2409 C2405 0.930 . S
H2410 C2407 0.929 . S
S2411 N2412 1.613 . S
S2411 N2413 1.610 . S
N2412 S2411 1.613 . S
N2412 C2415 1.350 . S
N2413 S2411 1.610 . S
N2413 C2414 1.351 . S
C2414 C2408 1.428 . S
C2414 N2413 1.351 . S
C2414 C2415 1.434 . S
C2415 C2406 1.429 . S
C2415 N2412 1.350 . S
C2415 C2414 1.434 . S
C2416 C2417 1.369 . S
C2416 C2418 1.419 . S
C2416 H2420 0.930 . S
C2417 C2416 1.369 . S
C2417 C2426 1.429 . S
C2418 C2416 1.419 . S
C2418 C2419 1.363 . S
C2418 H2421 0.929 . S
C2419 C2418 1.363 . S
C2419 C2425 1.428 . S
H2420 C2416 0.930 . S
H2421 C2418 0.929 . S
S2422 N2423 1.613 . S
S2422 N2424 1.610 . S
N2423 S2422 1.613 . S
N2423 C2426 1.350 . S
N2424 S2422 1.610 . S
N2424 C2425 1.351 . S
C2425 C2419 1.428 . S
C2425 N2424 1.351 . S
C2425 C2426 1.434 . S
C2426 C2417 1.429 . S
C2426 N2423 1.350 . S
C2426 C2425 1.434 . S
C2427 C2428 1.369 . S
C2427 C2429 1.419 . S
C2427 H2431 0.930 . S
C2428 C2427 1.369 . S
C2428 C2437 1.429 . S
C2429 C2427 1.419 . S
C2429 C2430 1.363 . S
C2429 H2432 0.929 . S
C2430 C2429 1.363 . S
C2430 C2436 1.428 . S
H2431 C2427 0.930 . S
H2432 C2429 0.929 . S
S2433 N2434 1.613 . S
S2433 N2435 1.610 . S
N2434 S2433 1.613 . S
N2434 C2437 1.350 . S
N2435 S2433 1.610 . S
N2435 C2436 1.351 . S
C2436 C2430 1.428 . S
C2436 N2435 1.351 . S
C2436 C2437 1.434 . S
C2437 C2428 1.429 . S
C2437 N2434 1.350 . S
C2437 C2436 1.434 . S
C2438 C2439 1.369 . S
C2438 C2440 1.419 . S
C2438 H2442 0.930 . S
C2439 C2438 1.369 . S
C2439 C2448 1.429 . S
C2440 C2438 1.419 . S
C2440 C2441 1.363 . S
C2440 H2443 0.929 . S
C2441 C2440 1.363 . S
C2441 C2447 1.428 . S
H2442 C2438 0.930 . S
H2443 C2440 0.929 . S
S2444 N2445 1.613 . S
S2444 N2446 1.610 . S
N2445 S2444 1.613 . S
N2445 C2448 1.350 . S
N2446 S2444 1.610 . S
N2446 C2447 1.351 . S
C2447 C2441 1.428 . S
C2447 N2446 1.351 . S
C2447 C2448 1.434 . S
C2448 C2439 1.429 . S
C2448 N2445 1.350 . S
C2448 C2447 1.434 . S
C2449 C2450 1.369 . S
C2449 C2451 1.419 . S
C2449 H2453 0.930 . S
C2450 C2449 1.369 . S
C2450 C2459 1.429 . S
C2451 C2449 1.419 . S
C2451 C2452 1.363 . S
C2451 H2454 0.929 . S
C2452 C2451 1.363 . S
C2452 C2458 1.428 . S
H2453 C2449 0.930 . S
H2454 C2451 0.929 . S
S2455 N2456 1.613 . S
S2455 N2457 1.610 . S
N2456 S2455 1.613 . S
N2456 C2459 1.350 . S
N2457 S2455 1.610 . S
N2457 C2458 1.351 . S
C2458 C2452 1.428 . S
C2458 N2457 1.351 . S
C2458 C2459 1.434 . S
C2459 C2450 1.429 . S
C2459 N2456 1.350 . S
C2459 C2458 1.434 . S
C2460 C2461 1.369 . S
C2460 C2462 1.419 . S
C2460 H2464 0.930 . S
C2461 C2460 1.369 . S
C2461 C2470 1.429 . S
C2462 C2460 1.419 . S
C2462 C2463 1.363 . S
C2462 H2465 0.929 . S
C2463 C2462 1.363 . S
C2463 C2469 1.428 . S
H2464 C2460 0.930 . S
H2465 C2462 0.929 . S
S2466 N2467 1.613 . S
S2466 N2468 1.610 . S
N2467 S2466 1.613 . S
N2467 C2470 1.350 . S
N2468 S2466 1.610 . S
N2468 C2469 1.351 . S
C2469 C2463 1.428 . S
C2469 N2468 1.351 . S
C2469 C2470 1.434 . S
C2470 C2461 1.429 . S
C2470 N2467 1.350 . S
C2470 C2469 1.434 . S
C2471 C2472 1.369 . S
C2471 C2473 1.419 . S
C2471 H2475 0.930 . S
C2472 C2471 1.369 . S
C2472 C2481 1.429 . S
C2473 C2471 1.419 . S
C2473 C2474 1.363 . S
C2473 H2476 0.929 . S
C2474 C2473 1.363 . S
C2474 C2480 1.428 . S
H2475 C2471 0.930 . S
H2476 C2473 0.929 . S
S2477 N2478 1.613 . S
S2477 N2479 1.610 . S
N2478 S2477 1.613 . S
N2478 C2481 1.350 . S
N2479 S2477 1.610 . S
N2479 C2480 1.351 . S
C2480 C2474 1.428 . S
C2480 N2479 1.351 . S
C2480 C2481 1.434 . S
C2481 C2472 1.429 . S
C2481 N2478 1.350 . S
C2481 C2480 1.434 . S
C2482 C2483 1.369 . S
C2482 C2484 1.419 . S
C2482 H2486 0.930 . S
C2483 C2482 1.369 . S
C2483 C2492 1.429 . S
C2484 C2482 1.419 . S
C2484 C2485 1.363 . S
C2484 H2487 0.929 . S
C2485 C2484 1.363 . S
C2485 C2491 1.428 . S
H2486 C2482 0.930 . S
H2487 C2484 0.929 . S
S2488 N2489 1.613 . S
S2488 N2490 1.610 . S
N2489 S2488 1.613 . S
N2489 C2492 1.350 . S
N2490 S2488 1.610 . S
N2490 C2491 1.351 . S
C2491 C2485 1.428 . S
C2491 N2490 1.351 . S
C2491 C2492 1.434 . S
C2492 C2483 1.429 . S
C2492 N2489 1.350 . S
C2492 C2491 1.434 . S
C2493 C2494 1.369 . S
C2493 C2495 1.419 . S
C2493 H2497 0.930 . S
C2494 C2493 1.369 . S
C2494 C2503 1.429 . S
C2495 C2493 1.419 . S
C2495 C2496 1.363 . S
C2495 H2498 0.929 . S
C2496 C2495 1.363 . S
C2496 C2502 1.428 . S
H2497 C2493 0.930 . S
H2498 C2495 0.929 . S
S2499 N2500 1.613 . S
S2499 N2501 1.610 . S
N2500 S2499 1.613 . S
N2500 C2503 1.350 . S
N2501 S2499 1.610 . S
N2501 C2502 1.351 . S
C2502 C2496 1.428 . S
C2502 N2501 1.351 . S
C2502 C2503 1.434 . S
C2503 C2494 1.429 . S
C2503 N2500 1.350 . S
C2503 C2502 1.434 . S
C2504 C2505 1.369 . S
C2504 C2506 1.419 . S
C2504 H2508 0.930 . S
C2505 C2504 1.369 . S
C2505 C2514 1.429 . S
C2506 C2504 1.419 . S
C2506 C2507 1.363 . S
C2506 H2509 0.929 . S
C2507 C2506 1.363 . S
C2507 C2513 1.428 . S
H2508 C2504 0.930 . S
H2509 C2506 0.929 . S
S2510 N2511 1.613 . S
S2510 N2512 1.610 . S
N2511 S2510 1.613 . S
N2511 C2514 1.350 . S
N2512 S2510 1.610 . S
N2512 C2513 1.351 . S
C2513 C2507 1.428 . S
C2513 N2512 1.351 . S
C2513 C2514 1.434 . S
C2514 C2505 1.429 . S
C2514 N2511 1.350 . S
C2514 C2513 1.434 . S
C2515 C2516 1.369 . S
C2515 C2517 1.419 . S
C2515 H2519 0.930 . S
C2516 C2515 1.369 . S
C2516 C2525 1.429 . S
C2517 C2515 1.419 . S
C2517 C2518 1.363 . S
C2517 H2520 0.929 . S
C2518 C2517 1.363 . S
C2518 C2524 1.428 . S
H2519 C2515 0.930 . S
H2520 C2517 0.929 . S
S2521 N2522 1.613 . S
S2521 N2523 1.610 . S
N2522 S2521 1.613 . S
N2522 C2525 1.350 . S
N2523 S2521 1.610 . S
N2523 C2524 1.351 . S
C2524 C2518 1.428 . S
C2524 N2523 1.351 . S
C2524 C2525 1.434 . S
C2525 C2516 1.429 . S
C2525 N2522 1.350 . S
C2525 C2524 1.434 . S
C2526 C2527 1.369 . S
C2526 C2528 1.419 . S
C2526 H2530 0.930 . S
C2527 C2526 1.369 . S
C2527 C2536 1.429 . S
C2528 C2526 1.419 . S
C2528 C2529 1.363 . S
C2528 H2531 0.929 . S
C2529 C2528 1.363 . S
C2529 C2535 1.428 . S
H2530 C2526 0.930 . S
H2531 C2528 0.929 . S
S2532 N2533 1.613 . S
S2532 N2534 1.610 . S
N2533 S2532 1.613 . S
N2533 C2536 1.350 . S
N2534 S2532 1.610 . S
N2534 C2535 1.351 . S
C2535 C2529 1.428 . S
C2535 N2534 1.351 . S
C2535 C2536 1.434 . S
C2536 C2527 1.429 . S
C2536 N2533 1.350 . S
C2536 C2535 1.434 . S
C2537 C2538 1.369 . S
C2537 C2539 1.419 . S
C2537 H2541 0.930 . S
C2538 C2537 1.369 . S
C2538 C2547 1.429 . S
C2539 C2537 1.419 . S
C2539 C2540 1.363 . S
C2539 H2542 0.929 . S
C2540 C2539 1.363 . S
C2540 C2546 1.428 . S
H2541 C2537 0.930 . S
H2542 C2539 0.929 . S
S2543 N2544 1.613 . S
S2543 N2545 1.610 . S
N2544 S2543 1.613 . S
N2544 C2547 1.350 . S
N2545 S2543 1.610 . S
N2545 C2546 1.351 . S
C2546 C2540 1.428 . S
C2546 N2545 1.351 . S
C2546 C2547 1.434 . S
C2547 C2538 1.429 . S
C2547 N2544 1.350 . S
C2547 C2546 1.434 . S
C2548 C2549 1.369 . S
C2548 C2550 1.419 . S
C2548 H2552 0.930 . S
C2549 C2548 1.369 . S
C2549 C2558 1.429 . S
C2550 C2548 1.419 . S
C2550 C2551 1.363 . S
C2550 H2553 0.929 . S
C2551 C2550 1.363 . S
C2551 C2557 1.428 . S
H2552 C2548 0.930 . S
H2553 C2550 0.929 . S
S2554 N2555 1.613 . S
S2554 N2556 1.610 . S
N2555 S2554 1.613 . S
N2555 C2558 1.350 . S
N2556 S2554 1.610 . S
N2556 C2557 1.351 . S
C2557 C2551 1.428 . S
C2557 N2556 1.351 . S
C2557 C2558 1.434 . S
C2558 C2549 1.429 . S
C2558 N2555 1.350 . S
C2558 C2557 1.434 . S
C2559 C2560 1.369 . S
C2559 C2561 1.419 . S
C2559 H2563 0.930 . S
C2560 C2559 1.369 . S
C2560 C2569 1.429 . S
C2561 C2559 1.419 . S
C2561 C2562 1.363 . S
C2561 H2564 0.929 . S
C2562 C2561 1.363 . S
C2562 C2568 1.428 . S
H2563 C2559 0.930 . S
H2564 C2561 0.929 . S
S2565 N2566 1.613 . S
S2565 N2567 1.610 . S
N2566 S2565 1.613 . S
N2566 C2569 1.350 . S
N2567 S2565 1.610 . S
N2567 C2568 1.351 . S
C2568 C2562 1.428 . S
C2568 N2567 1.351 . S
C2568 C2569 1.434 . S
C2569 C2560 1.429 . S
C2569 N2566 1.350 . S
C2569 C2568 1.434 . S
C2570 C2571 1.369 . S
C2570 C2572 1.419 . S
C2570 H2574 0.930 . S
C2571 C2570 1.369 . S
C2571 C2580 1.429 . S
C2572 C2570 1.419 . S
C2572 C2573 1.363 . S
C2572 H2575 0.929 . S
C2573 C2572 1.363 . S
C2573 C2579 1.428 . S
H2574 C2570 0.930 . S
H2575 C2572 0.929 . S
S2576 N2577 1.613 . S
S2576 N2578 1.610 . S
N2577 S2576 1.613 . S
N2577 C2580 1.350 . S
N2578 S2576 1.610 . S
N2578 C2579 1.351 . S
C2579 C2573 1.428 . S
C2579 N2578 1.351 . S
C2579 C2580 1.434 . S
C2580 C2571 1.429 . S
C2580 N2577 1.350 . S
C2580 C2579 1.434 . S
C2581 C2582 1.369 . S
C2581 C2583 1.419 . S
C2581 H2585 0.930 . S
C2582 C2581 1.369 . S
C2582 C2591 1.429 . S
C2583 C2581 1.419 . S
C2583 C2584 1.363 . S
C2583 H2586 0.929 . S
C2584 C2583 1.363 . S
C2584 C2590 1.428 . S
H2585 C2581 0.930 . S
H2586 C2583 0.929 . S
S2587 N2588 1.613 . S
S2587 N2589 1.610 . S
N2588 S2587 1.613 . S
N2588 C2591 1.350 . S
N2589 S2587 1.610 . S
N2589 C2590 1.351 . S
C2590 C2584 1.428 . S
C2590 N2589 1.351 . S
C2590 C2591 1.434 . S
C2591 C2582 1.429 . S
C2591 N2588 1.350 . S
C2591 C2590 1.434 . S
C1889 C475 1.443 . S
C1891 C3 1.444 . S
C1900 C1478 1.441 . S
C1902 C62 1.446 . S
C1911 C593 1.442 . S
C1913 C121 1.445 . S
C1922 C1596 1.446 . S
C1924 C180 1.442 . S
C1933 C711 1.441 . S
C1935 C239 1.446 . S
C1944 C298 1.442 . S
C1946 C1714 1.445 . S
C1955 C357 1.444 . S
C1957 C829 1.443 . S
C1966 C416 1.445 . S
C1968 C1832 1.442 . S
C1977 C1006 1.441 . S
C1979 C534 1.445 . S
C1988 C1124 1.446 . S
C1990 C652 1.442 . S
C1999 C770 1.445 . S
C2001 C1242 1.443 . S
C2010 C888 1.444 . S
C2012 C1360 1.444 . S
C2021 C947 1.441 . S
C2023 C1419 1.445 . S
C2032 C1537 1.441 . S
C2034 C1065 1.445 . S
C2043 C1183 1.441 . S
C2045 C1655 1.446 . S
C2054 C1773 1.446 . S
C2056 C1301 1.441 . S
C2065 C1114 1.881 . S
C2067 C52 1.879 . S
C2076 C1173 1.883 . S
C2078 C111 1.879 . S
C2087 C170 1.879 . S
C2089 C996 1.881 . S
C2098 C229 1.883 . S
C2100 C1055 1.879 . S
C2109 C1350 1.883 . S
C2111 C288 1.879 . S
C2120 C347 1.881 . S
C2122 C1409 1.882 . S
C2131 C1232 1.880 . S
C2133 C406 1.879 . S
C2142 C1291 1.879 . S
C2144 C465 1.882 . S
C2153 C524 1.881 . S
C2155 C1586 1.879 . S
C2164 C1645 1.881 . S
C2166 C583 1.881 . S
C2175 C642 1.878 . S
C2177 C1468 1.881 . S
C2186 C701 1.879 . S
C2188 C1527 1.882 . S
C2197 C760 1.882 . S
C2199 C1822 1.881 . S
C2208 C819 1.881 . S
C2210 C1881 1.879 . S
C2219 C1704 1.882 . S
C2221 C878 1.881 . S
C2230 C1763 1.882 . S
C2232 C937 1.880 . S
C2241 C359 1.730 . S
C2243 C5 1.729 . S
C2252 C418 1.730 . S
C2254 C64 1.728 . S
C2263 C241 1.730 . S
C2265 C123 1.728 . S
C2274 C182 1.727 . S
C2276 C300 1.730 . S
C2285 C831 1.726 . S
C2287 C477 1.729 . S
C2296 C890 1.727 . S
C2298 C536 1.730 . S
C2307 C713 1.727 . S
C2309 C595 1.727 . S
C2318 C772 1.726 . S
C2320 C654 1.729 . S
C2329 C1303 1.728 . S
C2331 C949 1.727 . S
C2340 C1362 1.730 . S
C2342 C1008 1.728 . S
C2351 C1067 1.728 . S
C2353 C1185 1.727 . S
C2362 C1126 1.728 . S
C2364 C1244 1.730 . S
C2373 C1775 1.728 . S
C2375 C1421 1.730 . S
C2384 C1834 1.726 . S
C2386 C1480 1.729 . S
C2395 C1539 1.728 . S
C2397 C1657 1.727 . S
C2406 C1598 1.728 . S
C2408 C1716 1.727 . S
C2417 C33 1.527 . S
C2419 C1272 1.524 . S
C2428 C1331 1.524 . S
C2430 C92 1.527 . S
C2439 C1390 1.524 . S
C2441 C151 1.526 . S
C2450 C210 1.524 . S
C2452 C1213 1.527 . S
C2461 C1154 1.524 . S
C2463 C269 1.526 . S
C2472 C328 1.524 . S
C2474 C977 1.526 . S
C2483 C1036 1.524 . S
C2485 C387 1.526 . S
C2494 C446 1.524 . S
C2496 C1095 1.527 . S
C2505 C1744 1.528 . S
C2507 C505 1.524 . S
C2516 C1803 1.526 . S
C2518 C564 1.525 . S
C2527 C623 1.525 . S
C2529 C1862 1.527 . S
C2538 C1685 1.528 . S
C2540 C682 1.524 . S
C2549 C1626 1.528 . S
C2551 C741 1.525 . S
C2560 C800 1.525 . S
C2562 C1449 1.526 . S
C2571 C1508 1.524 . S
C2573 C859 1.528 . S
C2582 C918 1.527 . S
C2584 C1567 1.525 . S
