# Generated by pormake.
# Topology wgu, (5)-cn, num edge types: 1
# Building blocks:
#     Node 0, Type 0, BuildingBlock: XOMCOT_clean_sbu_0, # of connection points: 5
#     Node 1, Type 0, BuildingBlock: XOMCOT_clean_sbu_0, # of connection points: 5
#     Node 2, Type 0, BuildingBlock: XOMCOT_clean_sbu_0, # of connection points: 5
#     Node 3, Type 0, BuildingBlock: XOMCOT_clean_sbu_0, # of connection points: 5
#     Node 4, Type 0, BuildingBlock: XOMCOT_clean_sbu_0, # of connection points: 5
#     Node 5, Type 0, BuildingBlock: XOMCOT_clean_sbu_0, # of connection points: 5
#     Node 6, Type 0, BuildingBlock: XOMCOT_clean_sbu_0, # of connection points: 5
#     Node 7, Type 0, BuildingBlock: XOMCOT_clean_sbu_0, # of connection points: 5
#     Edge 8, Type (0, 0), BuildingBlock: EZIPEK_clean_linker_0, # of connection points: 2
#     Edge 9, Type (0, 0), BuildingBlock: EZIPEK_clean_linker_0, # of connection points: 2
#     Edge 10, Type (0, 0), BuildingBlock: EZIPEK_clean_linker_0, # of connection points: 2
#     Edge 11, Type (0, 0), BuildingBlock: EZIPEK_clean_linker_0, # of connection points: 2
#     Edge 12, Type (0, 0), BuildingBlock: EZIPEK_clean_linker_0, # of connection points: 2
#     Edge 13, Type (0, 0), BuildingBlock: EZIPEK_clean_linker_0, # of connection points: 2
#     Edge 14, Type (0, 0), BuildingBlock: EZIPEK_clean_linker_0, # of connection points: 2
#     Edge 15, Type (0, 0), BuildingBlock: EZIPEK_clean_linker_0, # of connection points: 2
#     Edge 16, Type (0, 0), BuildingBlock: EZIPEK_clean_linker_0, # of connection points: 2
#     Edge 17, Type (0, 0), BuildingBlock: EZIPEK_clean_linker_0, # of connection points: 2
#     Edge 18, Type (0, 0), BuildingBlock: EZIPEK_clean_linker_0, # of connection points: 2
#     Edge 19, Type (0, 0), BuildingBlock: EZIPEK_clean_linker_0, # of connection points: 2
#     Edge 20, Type (0, 0), BuildingBlock: EZIPEK_clean_linker_0, # of connection points: 2
#     Edge 21, Type (0, 0), BuildingBlock: EZIPEK_clean_linker_0, # of connection points: 2
#     Edge 22, Type (0, 0), BuildingBlock: EZIPEK_clean_linker_0, # of connection points: 2
#     Edge 23, Type (0, 0), BuildingBlock: EZIPEK_clean_linker_0, # of connection points: 2
#     Edge 24, Type (0, 0), BuildingBlock: EZIPEK_clean_linker_0, # of connection points: 2
#     Edge 25, Type (0, 0), BuildingBlock: EZIPEK_clean_linker_0, # of connection points: 2
#     Edge 26, Type (0, 0), BuildingBlock: EZIPEK_clean_linker_0, # of connection points: 2
#     Edge 27, Type (0, 0), BuildingBlock: EZIPEK_clean_linker_0, # of connection points: 2
# Relax obj value: 0.190
# Max RMSD: 0.155
# Mean RMSD: 0.155
data_MOF--net-wgu--node1-XOMCOT_clean_sbu_0--edge1-EZIPEK_clean_linker_0
_symmetry_space_group_name_H-M    P1
_symmetry_Int_Tables_number       1
_symmetry_cell_setting            triclinic
loop_
_symmetry_equiv_pos_as_xyz
'x, y, z'
_cell_length_a     24.585535
_cell_length_b     24.6054
_cell_length_c     22.07251
_cell_angle_alpha  89.866174
_cell_angle_beta   89.873516
_cell_angle_gamma 90.060313
loop_
_atom_site_label
_atom_site_type_symbol
_atom_site_fract_x
_atom_site_fract_y
_atom_site_fract_z
_atom_type_partial_charge
Co0 Co 0.33385 0.39212 0.11451 0.0
C1 C 0.34435 0.286 0.05779 0.0
C2 C 0.41311 0.30207 0.11454 0.0
C3 C 0.41579 0.24878 0.09555 0.0
N4 N 0.36906 0.32577 0.08933 0.0
N5 N 0.37207 0.23899 0.06055 0.0
H6 H 0.30444 0.2899 0.03773 0.0
H7 H 0.43957 0.32127 0.14725 0.0
C8 C 0.44757 0.42986 0.07043 0.0
O9 O 0.45705 0.3832 0.04395 0.0
N10 N 0.29634 0.45758 0.14097 0.0
C11 C 0.26216 0.46282 0.18878 0.0
C12 C 0.23558 0.51164 0.18475 0.0
C13 C 0.29059 0.50424 0.10919 0.0
N14 N 0.25337 0.5375 0.13482 0.0
C15 C 0.24676 0.39897 0.03005 0.0
C16 C 0.30781 0.38902 0.92554 0.0
C17 C 0.25112 0.38342 0.92196 0.0
C18 C 0.22037 0.39041 0.97474 0.0
C19 C 0.33261 0.39778 0.98184 0.0
N20 N 0.30228 0.40074 0.03364 0.0
H21 H 0.22251 0.40088 0.07088 0.0
H22 H 0.37613 0.39766 0.98385 0.0
H23 H 0.25427 0.43271 0.22322 0.0
H24 H 0.31057 0.51227 0.06633 0.0
O25 O 0.27651 0.34793 0.14916 0.0
O26 O 0.35026 0.37244 0.19819 0.0
O27 O 0.40125 0.43955 0.09564 0.0
C28 C 0.30465 0.34522 0.19878 0.0
H29 H 0.44504 0.21854 0.10986 0.0
H30 H 0.20423 0.52643 0.21503 0.0
H31 H 0.33292 0.38313 0.88571 0.0
H32 H 0.17655 0.38587 0.97386 0.0
Co33 Co 0.64888 0.32778 0.61896 0.0
C34 C 0.75959 0.34176 0.57348 0.0
C35 C 0.73033 0.41625 0.61233 0.0
C36 C 0.7838 0.42363 0.59452 0.0
N37 N 0.7155 0.36494 0.59878 0.0
N38 N 0.80156 0.37662 0.57035 0.0
H39 H 0.76138 0.2998 0.55892 0.0
H40 H 0.70477 0.44556 0.6351 0.0
C41 C 0.57123 0.41641 0.57105 0.0
O42 O 0.55628 0.38588 0.52544 0.0
N43 N 0.58172 0.28949 0.64088 0.0
C44 C 0.57261 0.26057 0.69216 0.0
C45 C 0.52498 0.23215 0.68679 0.0
C46 C 0.5374 0.27978 0.60623 0.0
N47 N 0.50252 0.24461 0.63308 0.0
C48 C 0.63856 0.25046 0.52522 0.0
C49 C 0.66646 0.31768 0.42968 0.0
C50 C 0.6651 0.26122 0.42049 0.0
C51 C 0.64959 0.22771 0.46871 0.0
C52 C 0.65562 0.33885 0.48741 0.0
N53 N 0.64221 0.30524 0.53458 0.0
H54 H 0.63089 0.2234 0.56291 0.0
H55 H 0.66179 0.38173 0.49518 0.0
H56 H 0.59882 0.25854 0.73116 0.0
H57 H 0.53182 0.2954 0.56099 0.0
O58 O 0.69209 0.26626 0.64502 0.0
O59 O 0.66754 0.33394 0.70442 0.0
O60 O 0.6065 0.39927 0.60947 0.0
C61 C 0.6939 0.28813 0.69834 0.0
H62 H 0.80814 0.45994 0.60016 0.0
H63 H 0.508 0.20428 0.71985 0.0
H64 H 0.67924 0.34475 0.39359 0.0
H65 H 0.64897 0.18393 0.46362 0.0
Co66 Co 0.72943 0.64268 0.11152 0.0
C67 C 0.70221 0.75366 0.0815 0.0
C68 C 0.63165 0.71422 0.11869 0.0
C69 C 0.61892 0.76804 0.10642 0.0
N70 N 0.68395 0.70576 0.10278 0.0
N71 N 0.66372 0.79213 0.08335 0.0
H72 H 0.74328 0.76054 0.06543 0.0
H73 H 0.60511 0.68394 0.13857 0.0
C74 C 0.64851 0.5565 0.05949 0.0
O75 O 0.68241 0.54015 1.01719 0.0
N76 N 0.77894 0.58072 0.11959 0.0
C77 C 0.8336 0.58609 0.12409 0.0
C78 C 0.85796 0.53642 0.12111 0.0
C79 C 0.77118 0.52641 0.11386 0.0
N80 N 0.81893 0.49909 0.11394 0.0
C81 C 0.80165 0.66783 1.01443 0.0
C82 C 0.72903 0.65895 0.92001 0.0
C83 C 0.78226 0.67693 0.90775 0.0
C84 C 0.8183 0.6818 0.95623 0.0
C85 C 0.71299 0.64875 0.98009 0.0
N86 N 0.74987 0.65048 0.02623 0.0
H87 H 0.83008 0.67464 0.05039 0.0
H88 H 0.6706 0.64201 0.98967 0.0
H89 H 0.85575 0.62379 0.12566 0.0
H90 H 0.73249 0.50687 0.10731 0.0
O91 O 0.78458 0.68984 0.14626 0.0
O92 O 0.72174 0.6469 0.1995 0.0
O93 O 0.66242 0.59436 0.09633 0.0
C94 C 0.76267 0.68053 0.19875 0.0
H95 H 0.58025 0.78792 0.11396 0.0
H96 H 0.90127 0.52859 0.11913 0.0
H97 H 0.69934 0.65592 0.88399 0.0
H98 H 0.85914 0.69727 0.94936 0.0
Co99 Co 0.39619 0.72532 0.60663 0.0
C100 C 0.29067 0.70662 0.55304 0.0
C101 C 0.31041 0.64071 0.61255 0.0
C102 C 0.25665 0.63562 0.59541 0.0
N103 N 0.33211 0.68449 0.58439 0.0
N104 N 0.24445 0.67785 0.55892 0.0
H105 H 0.29272 0.74592 0.53102 0.0
H106 H 0.33104 0.61646 0.64635 0.0
C107 C 0.44122 0.61279 0.57051 0.0
O108 O 0.39491 0.59855 0.54595 0.0
N109 N 0.45857 0.76985 0.62943 0.0
C110 C 0.45763 0.81337 0.66689 0.0
C111 C 0.5047 0.84254 0.66002 0.0
C112 C 0.50729 0.77309 0.60091 0.0
N113 N 0.53605 0.81717 0.61899 0.0
C114 C 0.39458 0.80792 0.51612 0.0
C115 C 0.39559 0.7418 0.41576 0.0
C116 C 0.39077 0.7985 0.40558 0.0
C117 C 0.38764 0.83071 0.45851 0.0
C118 C 0.40233 0.72053 0.47431 0.0
N119 N 0.40176 0.75347 0.52383 0.0
H120 H 0.39123 0.83404 0.55523 0.0
H121 H 0.40431 0.67722 0.47956 0.0
H122 H 0.42404 0.82598 0.69499 0.0
H123 H 0.51988 0.74608 0.56488 0.0
O124 O 0.3476 0.77974 0.63976 0.0
O125 O 0.37984 0.71014 0.69117 0.0
O126 O 0.44838 0.66111 0.59135 0.0
C127 C 0.34887 0.75307 0.69072 0.0
H128 H 0.22768 0.60609 0.61236 0.0
H129 H 0.51466 0.8805 0.68212 0.0
H130 H 0.39108 0.71254 0.37987 0.0
H131 H 0.37676 0.87307 0.4574 0.0
Co132 Co 0.81662 0.13963 0.99725 0.0
C133 C 0.84532 0.24653 0.04281 0.0
C134 C 0.90959 0.21613 0.98664 0.0
C135 C 0.9215 0.26922 1.00201 0.0
N136 N 0.86239 0.20167 1.01367 0.0
N137 N 0.88008 0.28831 0.03592 0.0
H138 H 0.80601 0.25021 0.06447 0.0
H139 H 0.93234 0.19086 0.95566 0.0
C140 C 0.9251 0.09143 0.04185 0.0
O141 O 0.93683 0.13634 0.07094 0.0
N142 N 0.76813 0.07896 0.98113 0.0
C143 C 0.72058 0.08077 0.95041 0.0
C144 C 0.6927 0.03312 0.95955 0.0
C145 C 0.76815 0.02989 1.00882 0.0
N146 N 0.72257 1.00134 0.99617 0.0
C147 C 0.73644 0.16302 0.08616 0.0
C148 C 0.79623 0.14114 0.18885 0.0
C149 C 0.74631 0.16834 0.19489 0.0
C150 C 0.71575 0.17781 0.14262 0.0
C151 C 0.81651 0.12895 0.13093 0.0
N152 N 0.78767 0.14202 0.08011 0.0
H153 H 0.71178 0.17109 0.04686 0.0
H154 H 0.85564 0.11038 0.12781 0.0
H155 H 0.70511 0.11514 0.92537 0.0
H156 H 0.7992 1.01648 0.04014 0.0
O157 O 0.76529 0.18957 0.96024 0.0
O158 O 0.83132 0.14846 0.91064 0.0
O159 O 0.87853 0.08541 1.016 0.0
C160 C 0.79036 0.18203 0.90924 0.0
H161 H 0.95555 0.29316 0.98584 0.0
H162 H 0.65279 0.02305 0.94221 0.0
H163 H 0.82052 0.13186 0.22842 0.0
H164 H 0.67653 0.19772 0.14524 0.0
Co165 Co 0.89187 0.83446 0.48487 0.0
C166 C 0.78127 0.85372 0.52731 0.0
C167 C 0.81505 0.92772 0.49161 0.0
C168 C 0.76176 0.93733 0.50914 0.0
N169 N 0.82688 0.87524 0.5033 0.0
N170 N 0.74102 0.89044 0.53097 0.0
H171 H 0.77721 0.81156 0.5408 0.0
H172 H 0.84267 0.95655 0.47089 0.0
C173 C 0.96996 0.91963 0.54136 0.0
O174 O 0.97931 0.89003 0.58974 0.0
N175 N 0.95673 0.79113 0.46574 0.0
C176 C 0.9572 0.74406 0.43385 0.0
C177 C 1.00689 0.7195 0.43915 0.0
C178 C 1.00716 0.79387 0.49021 0.0
N179 N 0.03804 0.75064 0.47475 0.0
C180 C 0.89534 0.75324 0.57611 0.0
C181 C 0.86707 0.81855 0.6727 0.0
C182 C 0.86673 0.76191 0.68024 0.0
C183 C 0.88216 0.72925 0.6315 0.0
C184 C 0.8798 0.84096 0.61606 0.0
N185 N 0.89349 0.80833 0.56833 0.0
H186 H 0.90294 0.72687 0.53811 0.0
H187 H 0.87525 0.88425 0.60958 0.0
H188 H 0.9228 0.72554 0.41189 0.0
H189 H 1.02048 0.82441 0.52158 0.0
O190 O 0.84574 0.77782 0.45235 0.0
O191 O 0.87909 0.84665 0.39903 0.0
O192 O 0.93813 0.90258 0.49949 0.0
C193 C 0.84946 0.80274 0.40048 0.0
H194 H 0.73972 0.97523 0.50527 0.0
H195 H 1.01839 0.68023 0.42119 0.0
H196 H 0.85433 0.84499 0.70924 0.0
H197 H 0.88121 0.68535 0.63529 0.0
Co198 Co 0.21203 0.88934 0.98956 0.0
C199 C 0.20329 0.77987 0.03667 0.0
C200 C 0.12432 0.80765 1.00906 0.0
C201 C 0.11976 0.75473 0.03002 0.0
N202 N 0.17681 0.82294 1.01371 0.0
N203 N 0.16969 0.73792 0.04691 0.0
H204 H 0.24655 0.77917 0.04577 0.0
H205 H 0.092 0.83273 0.99114 0.0
C206 C 0.12403 0.9646 0.04579 0.0
O207 O 0.15396 0.97696 0.09292 0.0
N208 N 0.24986 0.95587 0.96431 0.0
C209 C 0.29106 0.95872 0.92348 0.0
C210 C 0.31753 1.00735 0.92918 0.0
C211 C 0.25147 1.00442 0.99305 0.0
N212 N 0.29262 0.03619 0.97267 0.0
C213 C 0.29629 0.90142 0.07656 0.0
C214 C 0.2368 0.87092 0.17757 0.0
C215 C 0.2935 0.87483 0.18212 0.0
C216 C 0.32309 0.89169 0.13128 0.0
C217 C 0.21136 0.88153 0.12184 0.0
N218 N 0.24114 0.89608 0.07179 0.0
H219 H 0.32056 0.90994 0.03683 0.0
H220 H 0.16813 0.87436 0.11799 0.0
H221 H 0.30455 0.92671 0.89387 0.0
H222 H 0.22627 1.01507 0.03111 0.0
O223 O 0.27067 0.84634 0.95551 0.0
O224 O 0.19703 0.87084 0.90572 0.0
O225 O 0.14165 0.93177 1.00516 0.0
C226 C 0.243 0.84456 0.90531 0.0
H227 H 0.08314 0.73032 0.032 0.0
H228 H 0.35371 1.01992 0.9048 0.0
H229 H 0.21276 0.85717 0.21583 0.0
H230 H 0.36704 0.89446 0.13301 0.0
Co231 Co 0.15059 0.22412 0.49646 0.0
C232 C 0.25581 0.19996 0.54897 0.0
C233 C 0.23066 0.13463 0.49148 0.0
C234 C 0.28397 0.12576 0.50838 0.0
N235 N 0.21281 0.18066 0.51819 0.0
N236 N 0.29961 0.16766 0.54347 0.0
H237 H 0.25671 0.23926 0.57079 0.0
H238 H 0.20768 0.11099 0.45918 0.0
C239 C 0.1024 0.11518 0.54015 0.0
O240 O 0.14674 0.10364 0.57046 0.0
N241 N 0.08956 0.26993 0.47443 0.0
C242 C 0.09097 0.31579 0.44052 0.0
C243 C 0.04243 0.34278 0.44669 0.0
C244 C 0.03978 0.26968 0.50043 0.0
N245 N 1.01043 0.31373 0.48419 0.0
C246 C 0.16577 0.3071 0.58476 0.0
C247 C 0.14076 0.24797 0.68737 0.0
C248 C 0.16517 0.29927 0.69419 0.0
C249 C 0.17615 0.32945 0.64177 0.0
C250 C 0.13331 0.22608 0.62923 0.0
N251 N 0.14753 0.25484 0.57858 0.0
H252 H 0.17518 0.33133 0.54534 0.0
H253 H 0.11796 0.18561 0.62588 0.0
H254 H 0.12561 0.33087 0.41546 0.0
H255 H 0.02653 0.23996 0.53356 0.0
O256 O 0.20079 0.27617 0.46111 0.0
O257 O 0.16502 0.20761 0.41143 0.0
O258 O 0.09688 0.16151 0.51368 0.0
C259 C 0.19756 0.24945 0.41062 0.0
H260 H 0.31024 0.09332 0.49292 0.0
H261 H 0.03195 0.38169 0.42693 0.0
H262 H 0.13073 0.22361 0.72678 0.0
H263 H 0.19423 0.36952 0.64476 0.0
C264 C 0.32288 0.0943 0.0582 0.0
C265 C 0.31096 0.08793 0.99572 0.0
C266 C 0.3479 0.1789 0.97568 0.0
C267 C 0.35309 0.18734 0.03877 0.0
N268 N 0.33484 0.15737 0.14087 0.0
N269 N 0.30474 0.12687 0.89581 0.0
C270 C 0.33737 0.14632 0.08034 0.0
C271 C 0.32145 0.13117 0.95458 0.0
N272 N 0.32417 0.05018 0.09572 0.0
N273 N 0.36901 0.21633 0.93634 0.0
H274 H 0.28037 0.09497 0.88074 0.0
H275 H 0.3111 0.15658 0.86302 0.0
H276 H 0.38886 0.25139 0.95108 0.0
H277 H 0.37087 0.21078 0.88965 0.0
H278 H 0.33734 0.05206 0.14051 0.0
H279 H 0.31863 1.01073 0.08019 0.0
H280 H 0.31814 0.13049 0.17239 0.0
H281 H 0.34444 0.19531 0.15881 0.0
C282 C 0.91471 0.33833 0.46463 0.0
C283 C 0.95776 0.32996 0.50632 0.0
C284 C 0.89697 0.35216 0.59071 0.0
C285 C 0.85518 0.36396 0.54878 0.0
N286 N 0.82505 0.37669 0.4465 0.0
N287 N 0.99372 0.34114 0.60702 0.0
C288 C 0.86445 0.35973 0.48574 0.0
C289 C 0.94999 0.34017 0.56896 0.0
N290 N 0.92162 0.32396 0.40535 0.0
N291 N 0.88539 0.35089 0.65123 0.0
H292 H 0.0335 0.3352 0.59203 0.0
H293 H 0.99128 0.35321 0.65214 0.0
H294 H 0.84684 0.35978 0.66838 0.0
H295 H 0.91264 0.33693 0.6838 0.0
H296 H 0.89146 0.32694 0.37259 0.0
H297 H 0.95686 0.30511 0.38957 0.0
H298 H 0.83043 0.37927 0.3998 0.0
H299 H 0.78778 0.392 0.46138 0.0
C300 C 0.69655 0.94149 0.08204 0.0
C301 C 0.70631 0.94896 1.01918 0.0
C302 C 0.674 0.8566 0.99944 0.0
C303 C 0.67101 0.84695 0.06242 0.0
N304 N 0.68491 0.87708 0.16462 0.0
N305 N 0.71228 0.91149 0.91878 0.0
C306 C 0.68361 0.88865 0.10413 0.0
C307 C 0.69682 0.90596 0.97794 0.0
N308 N 0.69758 0.9852 0.12002 0.0
N309 N 0.65451 0.81837 0.9604 0.0
H310 H 0.73127 0.94645 0.90226 0.0
H311 H 0.71107 0.87977 0.88765 0.0
H312 H 0.63821 0.78152 0.97542 0.0
H313 H 0.64979 0.8254 0.91415 0.0
H314 H 0.68607 0.98317 0.1654 0.0
H315 H 0.70521 0.02464 0.10481 0.0
H316 H 0.69949 0.90406 0.19706 0.0
H317 H 0.67464 0.83888 0.18181 0.0
C318 C 0.09764 0.72222 0.55933 0.0
C319 C 0.09076 0.73549 0.49733 0.0
C320 C 0.18302 0.70363 0.47562 0.0
C321 C 0.19169 0.69533 0.53839 0.0
N322 N 0.16132 0.70908 0.64133 0.0
N323 N 0.12912 0.74812 0.39813 0.0
C324 C 0.15015 0.70808 0.58078 0.0
C325 C 0.13428 0.72895 0.45593 0.0
N326 N 0.05364 0.72061 0.59716 0.0
N327 N 0.22076 0.6856 0.43487 0.0
H328 H 0.09403 0.76778 0.38316 0.0
H329 H 0.16106 0.74908 0.36708 0.0
H330 H 0.2561 0.66541 0.44809 0.0
H331 H 0.21473 0.68608 0.38819 0.0
H332 H 0.0555 0.70588 0.6414 0.0
H333 H 1.01424 0.72892 0.58259 0.0
H334 H 0.13397 0.72358 0.67358 0.0
H335 H 0.19973 0.70087 0.65889 0.0
C336 C 0.84033 0.43632 0.03086 0.0
C337 C 0.82958 0.44494 0.09319 0.0
C338 C 0.8629 0.35393 0.11726 0.0
C339 C 0.8691 0.34325 0.05464 0.0
N340 N 0.86194 0.37294 0.95059 0.0
N341 N 0.82545 0.41243 0.19541 0.0
C342 C 0.85772 0.38423 1.01097 0.0
C343 C 0.83932 0.4037 0.13631 0.0
N344 N 0.83522 0.47874 0.99114 0.0
N345 N 0.88201 0.31706 0.15829 0.0
H346 H 0.80855 0.44906 0.20999 0.0
H347 H 0.82675 0.38245 0.22875 0.0
H348 H 0.90048 0.28076 0.14513 0.0
H349 H 0.88433 0.32454 0.2046 0.0
H350 H 0.8487 0.47786 0.94645 0.0
H351 H 0.81983 0.51652 1.00382 0.0
H352 H 0.84882 0.39893 0.91639 0.0
H353 H 0.87551 0.3359 0.93387 0.0
C354 C 0.63062 0.84694 0.63766 0.0
C355 C 0.58744 0.83724 0.59635 0.0
C356 C 0.64404 0.87037 0.51235 0.0
C357 C 0.68713 0.8796 0.55351 0.0
N358 N 0.72046 0.8861 0.65502 0.0
N359 N 0.54763 0.854 0.49849 0.0
C360 C 0.67971 0.87126 0.61639 0.0
C361 C 0.59263 0.85284 0.53467 0.0
N362 N 0.62455 0.83177 0.6969 0.0
N363 N 0.65286 0.87715 0.45173 0.0
H364 H 0.5089 0.84418 0.51429 0.0
H365 H 0.54752 0.86977 0.45468 0.0
H366 H 0.68924 0.89249 0.43437 0.0
H367 H 0.62549 0.86478 0.41856 0.0
H368 H 0.65222 0.8403 0.73106 0.0
H369 H 0.5919 0.80831 0.71205 0.0
H370 H 0.71834 0.88331 0.70195 0.0
H371 H 0.75632 0.90432 0.63971 0.0
C372 C 0.23473 0.63516 0.1485 0.0
C373 C 0.23217 0.58801 0.11184 0.0
C374 C 0.18779 0.64032 0.03151 0.0
C375 C 0.18614 0.686 0.07024 0.0
N376 N 0.19889 0.72525 0.16865 0.0
N377 N 0.19432 0.54249 1.02496 0.0
C378 C 0.20678 0.68278 0.1299 0.0
C379 C 0.2054 0.58961 0.05499 0.0
N380 N 0.26544 0.63469 0.19998 0.0
N381 N 0.17457 0.64591 0.97179 0.0
H382 H 0.20367 0.50443 0.04275 0.0
H383 H 0.17074 0.54087 0.98583 0.0
H384 H 0.16207 0.68278 0.95309 0.0
H385 H 0.18053 0.61526 0.93998 0.0
H386 H 0.27166 0.66865 0.22711 0.0
H387 H 0.28874 0.60121 0.21283 0.0
H388 H 0.20904 0.72413 0.2144 0.0
H389 H 0.17749 0.76006 0.15598 0.0
C390 C 0.35924 0.19193 0.62788 0.0
C391 C 0.353 0.1807 0.56568 0.0
C392 C 0.44907 0.20214 0.5499 0.0
C393 C 0.45207 0.22319 0.60968 0.0
N394 N 0.40351 0.24993 0.70023 0.0
N395 N 0.39017 0.18598 0.46433 0.0
C396 C 0.40538 0.22118 0.64748 0.0
C397 C 0.39741 0.18868 0.52551 0.0
N398 N 0.32133 0.17399 0.66836 0.0
N399 N 0.49533 0.19239 0.51752 0.0
H400 H 0.35249 0.17874 0.44445 0.0
H401 H 0.4206 0.19656 0.4335 0.0
H402 H 0.53396 0.1968 0.53612 0.0
H403 H 0.49509 0.17343 0.47533 0.0
H404 H 0.32755 0.17594 0.71501 0.0
H405 H 0.28728 0.15162 0.65512 0.0
H406 H 0.36848 0.25242 0.72683 0.0
H407 H 0.43433 0.27655 0.71325 0.0
C408 C 0.55833 0.52762 1.01334 0.0
C409 C 0.59323 0.52994 0.06473 0.0
C410 C 0.52374 0.47964 0.12393 0.0
C411 C 0.49278 0.47108 0.0705 0.0
N412 N 0.48124 0.48527 0.9634 0.0
N413 N 0.61114 0.50273 0.16801 0.0
C414 C 0.51027 0.49482 1.01504 0.0
C415 C 0.57607 0.5052 0.12009 0.0
N416 N 0.56991 0.55856 0.96344 0.0
N417 N 0.5034 0.46273 0.17849 0.0
H418 H 0.64985 0.51992 0.16739 0.0
H419 H 0.6039 0.47971 0.20683 0.0
H420 H 0.46642 0.44228 0.18281 0.0
H421 H 0.52073 0.47291 0.21994 0.0
H422 H 0.54331 0.56361 0.92724 0.0
H423 H 0.60404 0.58344 0.9604 0.0
H424 H 0.49539 0.49461 0.92011 0.0
H425 H 0.44373 0.46549 0.96361 0.0
C426 C 0.50971 0.48313 0.62599 0.0
C427 C 0.54593 0.47174 0.57731 0.0
C428 C 0.52015 0.55852 0.52863 0.0
C429 C 0.48391 0.5697 0.57713 0.0
N430 N 0.45304 0.54937 0.67811 0.0
N431 N 0.59506 0.50412 0.48991 0.0
C432 C 0.48185 0.53416 0.62792 0.0
C433 C 0.554 0.51127 0.53095 0.0
N434 N 0.49932 0.44391 0.66846 0.0
N435 N 0.52092 0.59229 0.47939 0.0
H436 H 0.62095 0.47061 0.49108 0.0
H437 H 0.60672 0.53342 0.45836 0.0
H438 H 0.49893 0.62853 0.47784 0.0
H439 H 0.54112 0.58334 0.43915 0.0
H440 H 0.46865 0.4469 0.70086 0.0
H441 H 0.51889 0.40633 0.6689 0.0
H442 H 0.45386 0.52818 0.71897 0.0
H443 H 0.43205 0.58615 0.68061 0.0
C444 C 0.02921 0.98227 0.08602 0.0
C445 C 0.06876 0.99013 0.03968 0.0
C446 C 1.00449 0.05033 0.98605 0.0
C447 C 0.9689 0.04918 0.03681 0.0
N448 N 0.94697 1.01428 0.13574 0.0
N449 N 0.09589 0.03577 0.94751 0.0
C450 C 0.98106 1.01488 0.08682 0.0
C451 C 0.05657 0.02465 0.98968 0.0
N452 N 0.03695 0.94231 0.12825 0.0
N453 N 0.98842 0.07613 0.93423 0.0
H454 H 0.13455 1.01849 0.94857 0.0
H455 H 0.09185 0.06547 0.91415 0.0
H456 H 0.95065 0.09504 0.9302 0.0
H457 H 1.00991 0.07421 0.89359 0.0
H458 H 1.0076 0.93071 0.15979 0.0
H459 H 0.07104 0.91709 0.12822 0.0
H460 H 0.9566 0.99604 0.17695 0.0
H461 H 0.90954 0.0341 0.13572 0.0
C462 C 0.03475 0.98432 0.48735 0.0
C463 C 0.99759 0.97387 0.53554 0.0
C464 C 0.02308 0.06118 0.58249 0.0
C465 C 0.06005 0.0716 0.53432 0.0
N466 N 0.09154 0.04987 0.434 0.0
N467 N 0.94677 1.0082 0.62062 0.0
C468 C 0.06255 0.03536 0.48441 0.0
C469 C 0.98895 1.01413 0.58067 0.0
N470 N 0.0461 0.94433 0.44632 0.0
N471 N 1.02128 0.09583 0.63068 0.0
H472 H 0.92037 0.97501 0.61971 0.0
H473 H 0.93468 0.03827 0.65086 0.0
H474 H 0.04222 0.13263 0.63116 0.0
H475 H 1.00092 0.0872 0.67098 0.0
H476 H 0.07748 0.94687 0.41471 0.0
H477 H 0.02691 0.90658 0.4466 0.0
H478 H 0.09081 0.02804 0.39366 0.0
H479 H 0.11232 0.08673 0.43055 0.0
C480 C 0.29766 0.32982 0.31385 0.0
C481 C 0.28265 0.31572 0.25354 0.0
C482 C 0.20921 0.25912 0.29568 0.0
C483 C 0.22866 0.26782 0.35553 0.0
N484 N 0.30661 0.29487 0.41547 0.0
N485 N 0.23697 0.24814 0.19171 0.0
C486 C 0.27777 0.29779 0.36279 0.0
C487 C 0.24258 0.27436 0.24578 0.0
N488 N 0.32769 0.37517 0.32612 0.0
N489 N 0.15811 0.23955 0.28524 0.0
H490 H 0.26371 0.25374 0.15557 0.0
H491 H 0.21055 0.21533 0.18612 0.0
H492 H 0.12946 0.23299 0.31921 0.0
H493 H 0.1419 0.23681 0.24171 0.0
H494 H 0.33542 0.38785 0.37035 0.0
H495 H 0.33844 0.40411 0.29391 0.0
H496 H 0.34454 0.31335 0.42052 0.0
H497 H 0.29659 0.26813 0.45042 0.0
C498 C 0.75153 0.17708 0.80328 0.0
C499 C 0.77056 0.20883 0.85256 0.0
C500 C 0.74845 0.2916 0.79509 0.0
C501 C 0.72157 0.26029 0.75035 0.0
N502 N 0.68716 0.17149 0.72117 0.0
N503 N 0.77568 0.29748 0.89948 0.0
C504 C 0.72065 0.20247 0.75649 0.0
C505 C 0.76532 0.26634 0.84983 0.0
N506 N 0.76113 0.12242 0.80152 0.0
N507 N 0.76094 0.34491 0.78439 0.0
H508 H 0.79161 0.28204 0.93955 0.0
H509 H 0.76449 0.3383 0.90178 0.0
H510 H 0.75366 0.3641 0.74306 0.0
H511 H 0.78475 0.36792 0.81381 0.0
H512 H 0.75378 0.09893 0.76316 0.0
H513 H 0.78031 0.10104 0.83612 0.0
H514 H 0.6808 0.13014 0.72864 0.0
H515 H 0.66046 0.18731 0.68927 0.0
C516 C 0.76842 0.77015 0.34057 0.0
C517 C 0.82557 0.778 0.3452 0.0
C518 C 0.83919 0.71247 0.2642 0.0
C519 C 0.78248 0.70984 0.25355 0.0
N520 N 0.69304 0.74571 0.2756 0.0
N521 N 0.91399 0.76767 0.29825 0.0
C522 C 0.74682 0.74121 0.29016 0.0
C523 C 0.86046 0.75333 0.3023 0.0
N524 N 0.73467 0.79029 0.38414 0.0
N525 N 0.87242 0.67278 0.2425 0.0
H526 H 0.93135 0.79815 0.32455 0.0
H527 H 0.93953 0.75301 0.26423 0.0
H528 H 0.85634 0.63726 0.22456 0.0
H529 H 0.91387 0.67084 0.25215 0.0
H530 H 0.69359 0.78012 0.38714 0.0
H531 H 0.74866 0.81477 0.41916 0.0
H532 H 0.6668 0.77285 0.29697 0.0
H533 H 0.67556 0.72598 0.23882 0.0
C534 C 0.30345 0.77438 0.85556 0.0
C535 C 0.26581 0.8179 0.84961 0.0
C536 C 0.27244 0.80704 0.73942 0.0
C537 C 0.31893 0.77299 0.74583 0.0
N538 N 0.38716 0.73867 0.81594 0.0
N539 N 0.22743 0.88527 0.78104 0.0
C540 C 0.33697 0.76043 0.80553 0.0
C541 C 0.25364 0.83706 0.79022 0.0
N542 N 0.30659 0.74507 0.90799 0.0
N543 N 0.24481 0.81 0.68594 0.0
H544 H 0.2182 0.91248 0.81553 0.0
H545 H 0.22181 0.90163 0.73785 0.0
H546 H 0.25336 0.78516 0.64902 0.0
H547 H 0.20858 0.83168 0.68152 0.0
H548 H 0.33134 0.71085 0.91216 0.0
H549 H 0.27927 0.75013 0.94364 0.0
H550 H 0.40214 0.73259 0.85962 0.0
H551 H 0.41673 0.7343 0.78254 0.0
C552 C 0.85089 0.67404 0.82239 0.0
C553 C 0.80069 0.6939 0.84576 0.0
C554 C 0.78938 0.74693 0.75279 0.0
C555 C 0.84408 0.73665 0.73634 0.0
N556 N 0.92994 0.69445 0.76073 0.0
N557 N 0.7282 0.7602 0.83647 0.0
C558 C 0.87581 0.70112 0.77251 0.0
C559 C 0.77124 0.73312 0.81176 0.0
N560 N 0.87396 0.62843 0.84656 0.0
N561 N 0.75388 0.76794 0.71158 0.0
H562 H 0.71614 0.75541 0.88137 0.0
H563 H 0.70874 0.79211 0.81413 0.0
H564 H 0.7649 0.77722 0.66707 0.0
H565 H 0.7122 0.76892 0.71988 0.0
H566 H 0.90819 0.60987 0.82792 0.0
H567 H 0.85531 0.60582 0.88086 0.0
H568 H 0.95579 0.67289 0.7894 0.0
H569 H 0.94995 0.71465 0.72555 0.0
C570 C 0.36994 0.8785 0.33265 0.0
C571 C 0.3811 0.82242 0.34207 0.0
C572 C 0.34635 0.80395 0.23982 0.0
C573 C 0.32313 0.85679 0.23767 0.0
N574 N 0.31448 0.9459 0.28202 0.0
N575 N 0.41888 0.75001 0.28237 0.0
C576 C 0.33543 0.89458 0.28409 0.0
C577 C 0.38039 0.78938 0.28937 0.0
N578 N 0.40007 0.91659 0.3623 0.0
N579 N 0.33581 0.76741 0.19484 0.0
H580 H 0.4508 0.74574 0.31316 0.0
H581 H 0.42384 0.72779 0.24261 0.0
H582 H 0.31142 0.77645 0.15753 0.0
H583 H 0.34823 0.72698 0.19704 0.0
H584 H 0.39729 0.95811 0.35338 0.0
H585 H 0.43351 0.90559 0.38872 0.0
H586 H 0.31817 0.97312 0.31792 0.0
H587 H 0.29023 0.95968 0.24642 0.0
C588 C 0.21993 0.2887 0.79072 0.0
C589 C 0.18322 0.31983 0.7551 0.0
C590 C 0.19172 0.39486 0.82852 0.0
C591 C 0.22524 0.36179 0.86564 0.0
N592 N 0.25556 0.27147 0.89073 0.0
N593 N 0.12399 0.39778 0.74861 0.0
C594 C 0.23441 0.30694 0.84942 0.0
C595 C 0.16608 0.37167 0.77651 0.0
N596 N 0.24406 0.24333 0.76751 0.0
N597 N 0.18531 0.4486 0.84208 0.0
H598 H 0.10294 0.381 0.71216 0.0
H599 H 0.10644 0.43322 0.76536 0.0
H600 H 0.20297 0.46652 0.88007 0.0
H601 H 0.16604 0.47609 0.81332 0.0
H602 H 0.27488 0.22261 0.79014 0.0
H603 H 0.23797 0.22998 0.72332 0.0
H604 H 0.25557 0.22967 0.88371 0.0
H605 H 0.26671 0.28286 0.93444 0.0
C606 C 0.67422 0.17488 0.27674 0.0
C607 C 0.72671 0.1894 0.25477 0.0
C608 C 0.74117 0.24348 0.34654 0.0
C609 C 0.68583 0.23651 0.36313 0.0
N610 N 0.597 0.20122 0.33851 0.0
N611 N 0.80518 0.24836 0.26389 0.0
C612 C 0.6515 0.20372 0.32665 0.0
C613 C 0.75894 0.22662 0.28835 0.0
N614 N 0.64685 0.13226 0.25146 0.0
N615 N 0.77757 0.26402 0.38715 0.0
H616 H 0.81844 0.23985 0.22008 0.0
H617 H 0.82697 0.2794 0.28489 0.0
H618 H 0.76689 0.27528 0.43111 0.0
H619 H 0.81936 0.26357 0.37932 0.0
H620 H 0.61071 0.11681 0.26926 0.0
H621 H 0.66323 0.10867 0.21671 0.0
H622 H 0.56934 0.18218 0.30982 0.0
H623 H 0.57878 0.22252 0.37396 0.0
loop_
_geom_bond_atom_site_label_1
_geom_bond_atom_site_label_2
_geom_bond_distance
_geom_bond_site_symmetry_2
_ccdc_geom_bond_type
Co0 N4 2.148 . S
Co0 N10 2.128 . S
Co0 N20 2.194 1_554 S
Co0 O25 2.351 . S
Co0 O26 2.155 . S
Co0 O27 2.096 . S
C1 N4 1.301 . S
C1 N5 1.328 . S
C1 H6 0.930 . S
C2 C3 1.333 . S
C2 N4 1.317 . S
C2 H7 0.930 . S
C3 C2 1.333 . S
C3 N5 1.350 . S
C3 H29 0.931 . S
N4 Co0 2.148 . S
N4 C1 1.301 . S
N4 C2 1.317 . S
N5 C1 1.328 . S
N5 C3 1.350 . S
H6 C1 0.930 . S
H7 C2 0.930 . S
C8 O9 1.224 1_554 S
C8 O27 1.247 . S
O9 C8 1.224 1_556 S
N10 Co0 2.128 . S
N10 C11 1.355 . S
N10 C13 1.311 . S
C11 N10 1.355 . S
C11 C12 1.363 . S
C11 H23 0.929 . S
C12 C11 1.363 . S
C12 N14 1.375 . S
C12 H30 0.931 . S
C13 N10 1.311 . S
C13 N14 1.347 . S
C13 H24 0.929 . S
N14 C12 1.375 . S
N14 C13 1.347 . S
C15 C18 1.365 . S
C15 N20 1.328 . S
C15 H21 0.929 1_556 S
C16 C17 1.362 . S
C16 C19 1.378 . S
C16 H31 0.929 . S
C17 C16 1.362 . S
C17 C18 1.366 . S
C18 C15 1.365 . S
C18 C17 1.366 . S
C18 H32 0.930 . S
C19 C16 1.378 . S
C19 N20 1.315 . S
C19 H22 0.930 . S
N20 Co0 2.194 1_556 S
N20 C15 1.328 . S
N20 C19 1.315 . S
H21 C15 0.929 1_554 S
H22 C19 0.930 . S
H23 C11 0.929 . S
H24 C13 0.929 . S
O25 Co0 2.351 . S
O25 C28 1.244 . S
O26 Co0 2.155 . S
O26 C28 1.240 . S
O27 Co0 2.096 . S
O27 C8 1.247 . S
C28 O25 1.244 . S
C28 O26 1.240 . S
H29 C3 0.931 . S
H30 C12 0.931 . S
H31 C16 0.929 . S
H32 C18 0.930 . S
Co33 N37 2.148 . S
Co33 N43 2.128 . S
Co33 N53 2.194 . S
Co33 O58 2.351 . S
Co33 O59 2.155 . S
Co33 O60 2.096 . S
C34 N37 1.301 . S
C34 N38 1.328 . S
C34 H39 0.930 . S
C35 C36 1.333 . S
C35 N37 1.317 . S
C35 H40 0.930 . S
C36 C35 1.333 . S
C36 N38 1.350 . S
C36 H62 0.931 . S
N37 Co33 2.148 . S
N37 C34 1.301 . S
N37 C35 1.317 . S
N38 C34 1.328 . S
N38 C36 1.350 . S
H39 C34 0.930 . S
H40 C35 0.930 . S
C41 O42 1.224 . S
C41 O60 1.247 . S
O42 C41 1.224 . S
N43 Co33 2.128 . S
N43 C44 1.355 . S
N43 C46 1.311 . S
C44 N43 1.355 . S
C44 C45 1.363 . S
C44 H56 0.929 . S
C45 C44 1.363 . S
C45 N47 1.375 . S
C45 H63 0.931 . S
C46 N43 1.311 . S
C46 N47 1.347 . S
C46 H57 0.929 . S
N47 C45 1.375 . S
N47 C46 1.347 . S
C48 C51 1.365 . S
C48 N53 1.328 . S
C48 H54 0.929 . S
C49 C50 1.362 . S
C49 C52 1.378 . S
C49 H64 0.929 . S
C50 C49 1.362 . S
C50 C51 1.366 . S
C51 C48 1.365 . S
C51 C50 1.366 . S
C51 H65 0.930 . S
C52 C49 1.378 . S
C52 N53 1.315 . S
C52 H55 0.930 . S
N53 Co33 2.194 . S
N53 C48 1.328 . S
N53 C52 1.315 . S
H54 C48 0.929 . S
H55 C52 0.930 . S
H56 C44 0.929 . S
H57 C46 0.929 . S
O58 Co33 2.351 . S
O58 C61 1.244 . S
O59 Co33 2.155 . S
O59 C61 1.240 . S
O60 Co33 2.096 . S
O60 C41 1.247 . S
C61 O58 1.244 . S
C61 O59 1.240 . S
H62 C36 0.931 . S
H63 C45 0.931 . S
H64 C49 0.929 . S
H65 C51 0.930 . S
Co66 N70 2.148 . S
Co66 N76 2.128 . S
Co66 N86 2.194 1_554 S
Co66 O91 2.351 . S
Co66 O92 2.155 . S
Co66 O93 2.096 . S
C67 N70 1.301 . S
C67 N71 1.328 . S
C67 H72 0.930 . S
C68 C69 1.333 . S
C68 N70 1.317 . S
C68 H73 0.930 . S
C69 C68 1.333 . S
C69 N71 1.350 . S
C69 H95 0.931 . S
N70 Co66 2.148 . S
N70 C67 1.301 . S
N70 C68 1.317 . S
N71 C67 1.328 . S
N71 C69 1.350 . S
H72 C67 0.930 . S
H73 C68 0.930 . S
C74 O75 1.224 1_554 S
C74 O93 1.247 . S
O75 C74 1.224 1_556 S
N76 Co66 2.128 . S
N76 C77 1.355 . S
N76 C79 1.311 . S
C77 N76 1.355 . S
C77 C78 1.363 . S
C77 H89 0.929 . S
C78 C77 1.363 . S
C78 N80 1.375 . S
C78 H96 0.931 . S
C79 N76 1.311 . S
C79 N80 1.347 . S
C79 H90 0.929 . S
N80 C78 1.375 . S
N80 C79 1.347 . S
C81 C84 1.365 . S
C81 N86 1.328 . S
C81 H87 0.929 1_556 S
C82 C83 1.362 . S
C82 C85 1.378 . S
C82 H97 0.929 . S
C83 C82 1.362 . S
C83 C84 1.366 . S
C84 C81 1.365 . S
C84 C83 1.366 . S
C84 H98 0.930 . S
C85 C82 1.378 . S
C85 N86 1.315 . S
C85 H88 0.930 . S
N86 Co66 2.194 1_556 S
N86 C81 1.328 . S
N86 C85 1.315 . S
H87 C81 0.929 1_554 S
H88 C85 0.930 . S
H89 C77 0.929 . S
H90 C79 0.929 . S
O91 Co66 2.351 . S
O91 C94 1.244 . S
O92 Co66 2.155 . S
O92 C94 1.240 . S
O93 Co66 2.096 . S
O93 C74 1.247 . S
C94 O91 1.244 . S
C94 O92 1.240 . S
H95 C69 0.931 . S
H96 C78 0.931 . S
H97 C82 0.929 . S
H98 C84 0.930 . S
Co99 N103 2.148 . S
Co99 N109 2.128 . S
Co99 N119 2.194 . S
Co99 O124 2.351 . S
Co99 O125 2.155 . S
Co99 O126 2.096 . S
C100 N103 1.301 . S
C100 N104 1.328 . S
C100 H105 0.930 . S
C101 C102 1.333 . S
C101 N103 1.317 . S
C101 H106 0.930 . S
C102 C101 1.333 . S
C102 N104 1.350 . S
C102 H128 0.931 . S
N103 Co99 2.148 . S
N103 C100 1.301 . S
N103 C101 1.317 . S
N104 C100 1.328 . S
N104 C102 1.350 . S
H105 C100 0.930 . S
H106 C101 0.930 . S
C107 O108 1.224 . S
C107 O126 1.247 . S
O108 C107 1.224 . S
N109 Co99 2.128 . S
N109 C110 1.355 . S
N109 C112 1.311 . S
C110 N109 1.355 . S
C110 C111 1.363 . S
C110 H122 0.929 . S
C111 C110 1.363 . S
C111 N113 1.375 . S
C111 H129 0.931 . S
C112 N109 1.311 . S
C112 N113 1.347 . S
C112 H123 0.929 . S
N113 C111 1.375 . S
N113 C112 1.347 . S
C114 C117 1.365 . S
C114 N119 1.328 . S
C114 H120 0.929 . S
C115 C116 1.362 . S
C115 C118 1.378 . S
C115 H130 0.929 . S
C116 C115 1.362 . S
C116 C117 1.366 . S
C117 C114 1.365 . S
C117 C116 1.366 . S
C117 H131 0.930 . S
C118 C115 1.378 . S
C118 N119 1.315 . S
C118 H121 0.930 . S
N119 Co99 2.194 . S
N119 C114 1.328 . S
N119 C118 1.315 . S
H120 C114 0.929 . S
H121 C118 0.930 . S
H122 C110 0.929 . S
H123 C112 0.929 . S
O124 Co99 2.351 . S
O124 C127 1.244 . S
O125 Co99 2.155 . S
O125 C127 1.240 . S
O126 Co99 2.096 . S
O126 C107 1.247 . S
C127 O124 1.244 . S
C127 O125 1.240 . S
H128 C102 0.931 . S
H129 C111 0.931 . S
H130 C115 0.929 . S
H131 C117 0.930 . S
Co132 N136 2.148 . S
Co132 N142 2.128 . S
Co132 N152 2.194 1_556 S
Co132 O157 2.351 . S
Co132 O158 2.155 . S
Co132 O159 2.096 . S
C133 N136 1.301 . S
C133 N137 1.328 . S
C133 H138 0.930 . S
C134 C135 1.333 . S
C134 N136 1.317 . S
C134 H139 0.930 . S
C135 C134 1.333 . S
C135 N137 1.350 . S
C135 H161 0.931 . S
N136 Co132 2.148 . S
N136 C133 1.301 . S
N136 C134 1.317 . S
N137 C133 1.328 . S
N137 C135 1.350 . S
H138 C133 0.930 . S
H139 C134 0.930 . S
C140 O141 1.224 . S
C140 O159 1.247 1_554 S
O141 C140 1.224 . S
N142 Co132 2.128 . S
N142 C143 1.355 1_546 S
N142 C145 1.311 1_545 S
C143 N142 1.355 1_564 S
C143 C144 1.363 . S
C143 H155 0.929 1_565 S
C144 C143 1.363 . S
C144 N146 1.375 . S
C144 H162 0.931 . S
C145 N142 1.311 1_565 S
C145 N146 1.347 1_556 S
C145 H156 0.929 . S
N146 C144 1.375 . S
N146 C145 1.347 1_554 S
C147 C150 1.365 . S
C147 N152 1.328 . S
C147 H153 0.929 . S
C148 C149 1.362 . S
C148 C151 1.378 . S
C148 H163 0.929 . S
C149 C148 1.362 . S
C149 C150 1.366 . S
C150 C147 1.365 . S
C150 C149 1.366 . S
C150 H164 0.930 . S
C151 C148 1.378 . S
C151 N152 1.315 . S
C151 H154 0.930 . S
N152 Co132 2.194 1_554 S
N152 C147 1.328 . S
N152 C151 1.315 . S
H153 C147 0.929 . S
H154 C151 0.930 . S
H155 C143 0.929 1_545 S
H156 C145 0.929 . S
O157 Co132 2.351 . S
O157 C160 1.244 . S
O158 Co132 2.155 . S
O158 C160 1.240 . S
O159 Co132 2.096 . S
O159 C140 1.247 1_556 S
C160 O157 1.244 . S
C160 O158 1.240 . S
H161 C135 0.931 . S
H162 C144 0.931 . S
H163 C148 0.929 . S
H164 C150 0.930 . S
Co165 N169 2.148 . S
Co165 N175 2.128 . S
Co165 N185 2.194 . S
Co165 O190 2.351 . S
Co165 O191 2.155 . S
Co165 O192 2.096 . S
C166 N169 1.301 . S
C166 N170 1.328 . S
C166 H171 0.930 . S
C167 C168 1.333 . S
C167 N169 1.317 . S
C167 H172 0.930 . S
C168 C167 1.333 . S
C168 N170 1.350 . S
C168 H194 0.931 . S
N169 Co165 2.148 . S
N169 C166 1.301 . S
N169 C167 1.317 . S
N170 C166 1.328 . S
N170 C168 1.350 . S
H171 C166 0.930 . S
H172 C167 0.930 . S
C173 O174 1.224 . S
C173 O192 1.247 . S
O174 C173 1.224 . S
N175 Co165 2.128 . S
N175 C176 1.355 1_655 S
N175 C178 1.311 1_655 S
C176 N175 1.355 1_455 S
C176 C177 1.363 . S
C176 H188 0.929 1_455 S
C177 C176 1.363 . S
C177 N179 1.375 . S
C177 H195 0.931 . S
C178 N175 1.311 1_455 S
C178 N179 1.347 . S
C178 H189 0.929 . S
N179 C177 1.375 . S
N179 C178 1.347 . S
C180 C183 1.365 . S
C180 N185 1.328 . S
C180 H186 0.929 . S
C181 C182 1.362 . S
C181 C184 1.378 . S
C181 H196 0.929 . S
C182 C181 1.362 . S
C182 C183 1.366 . S
C183 C180 1.365 . S
C183 C182 1.366 . S
C183 H197 0.930 . S
C184 C181 1.378 . S
C184 N185 1.315 . S
C184 H187 0.930 . S
N185 Co165 2.194 . S
N185 C180 1.328 . S
N185 C184 1.315 . S
H186 C180 0.929 . S
H187 C184 0.930 . S
H188 C176 0.929 1_655 S
H189 C178 0.929 . S
O190 Co165 2.351 . S
O190 C193 1.244 . S
O191 Co165 2.155 . S
O191 C193 1.240 . S
O192 Co165 2.096 . S
O192 C173 1.247 . S
C193 O190 1.244 . S
C193 O191 1.240 . S
H194 C168 0.931 . S
H195 C177 0.931 . S
H196 C181 0.929 . S
H197 C183 0.930 . S
Co198 N202 2.148 . S
Co198 N208 2.128 . S
Co198 N218 2.194 1_556 S
Co198 O223 2.351 . S
Co198 O224 2.155 . S
Co198 O225 2.096 . S
C199 N202 1.301 . S
C199 N203 1.328 . S
C199 H204 0.930 . S
C200 C201 1.333 . S
C200 N202 1.317 . S
C200 H205 0.930 . S
C201 C200 1.333 . S
C201 N203 1.350 . S
C201 H227 0.931 . S
N202 Co198 2.148 . S
N202 C199 1.301 . S
N202 C200 1.317 . S
N203 C199 1.328 . S
N203 C201 1.350 . S
H204 C199 0.930 . S
H205 C200 0.930 . S
C206 O207 1.224 . S
C206 O225 1.247 1_554 S
O207 C206 1.224 . S
N208 Co198 2.128 . S
N208 C209 1.355 1_566 S
N208 C211 1.311 1_565 S
C209 N208 1.355 1_544 S
C209 C210 1.363 . S
C209 H221 0.929 1_545 S
C210 C209 1.363 . S
C210 N212 1.375 . S
C210 H228 0.931 . S
C211 N208 1.311 1_545 S
C211 N212 1.347 1_556 S
C211 H222 0.929 . S
N212 C210 1.375 . S
N212 C211 1.347 1_554 S
C213 C216 1.365 . S
C213 N218 1.328 . S
C213 H219 0.929 . S
C214 C215 1.362 . S
C214 C217 1.378 . S
C214 H229 0.929 . S
C215 C214 1.362 . S
C215 C216 1.366 . S
C216 C213 1.365 . S
C216 C215 1.366 . S
C216 H230 0.930 . S
C217 C214 1.378 . S
C217 N218 1.315 . S
C217 H220 0.930 . S
N218 Co198 2.194 1_554 S
N218 C213 1.328 . S
N218 C217 1.315 . S
H219 C213 0.929 . S
H220 C217 0.930 . S
H221 C209 0.929 1_565 S
H222 C211 0.929 . S
O223 Co198 2.351 . S
O223 C226 1.244 . S
O224 Co198 2.155 . S
O224 C226 1.240 . S
O225 Co198 2.096 . S
O225 C206 1.247 1_556 S
C226 O223 1.244 . S
C226 O224 1.240 . S
H227 C201 0.931 . S
H228 C210 0.931 . S
H229 C214 0.929 . S
H230 C216 0.930 . S
Co231 N235 2.148 . S
Co231 N241 2.128 . S
Co231 N251 2.194 . S
Co231 O256 2.351 . S
Co231 O257 2.155 . S
Co231 O258 2.096 . S
C232 N235 1.301 . S
C232 N236 1.328 . S
C232 H237 0.930 . S
C233 C234 1.333 . S
C233 N235 1.317 . S
C233 H238 0.930 . S
C234 C233 1.333 . S
C234 N236 1.350 . S
C234 H260 0.931 . S
N235 Co231 2.148 . S
N235 C232 1.301 . S
N235 C233 1.317 . S
N236 C232 1.328 . S
N236 C234 1.350 . S
H237 C232 0.930 . S
H238 C233 0.930 . S
C239 O240 1.224 . S
C239 O258 1.247 . S
O240 C239 1.224 . S
N241 Co231 2.128 . S
N241 C242 1.355 1_455 S
N241 C244 1.311 1_455 S
C242 N241 1.355 1_655 S
C242 C243 1.363 . S
C242 H254 0.929 1_655 S
C243 C242 1.363 . S
C243 N245 1.375 . S
C243 H261 0.931 . S
C244 N241 1.311 1_655 S
C244 N245 1.347 . S
C244 H255 0.929 . S
N245 C243 1.375 . S
N245 C244 1.347 . S
C246 C249 1.365 . S
C246 N251 1.328 . S
C246 H252 0.929 . S
C247 C248 1.362 . S
C247 C250 1.378 . S
C247 H262 0.929 . S
C248 C247 1.362 . S
C248 C249 1.366 . S
C249 C246 1.365 . S
C249 C248 1.366 . S
C249 H263 0.930 . S
C250 C247 1.378 . S
C250 N251 1.315 . S
C250 H253 0.930 . S
N251 Co231 2.194 . S
N251 C246 1.328 . S
N251 C250 1.315 . S
H252 C246 0.929 . S
H253 C250 0.930 . S
H254 C242 0.929 1_455 S
H255 C244 0.929 . S
O256 Co231 2.351 . S
O256 C259 1.244 . S
O257 Co231 2.155 . S
O257 C259 1.240 . S
O258 Co231 2.096 . S
O258 C239 1.247 . S
C259 O256 1.244 . S
C259 O257 1.240 . S
H260 C234 0.931 . S
H261 C243 0.931 . S
H262 C247 0.929 . S
H263 C249 0.930 . S
C264 C265 1.363 . S
C264 C270 1.379 . S
C264 N272 1.356 . S
C265 C264 1.363 . S
C265 C271 1.363 1_554 S
C266 C267 1.363 . S
C266 C271 1.379 1_554 S
C266 N273 1.356 . S
C267 C266 1.363 . S
C267 C270 1.363 . S
N268 C270 1.356 . S
N268 H280 0.984 . S
N268 H281 0.985 . S
N269 C271 1.356 . S
N269 H274 0.984 . S
N269 H275 0.985 . S
C270 C264 1.379 . S
C270 C267 1.363 . S
C270 N268 1.356 . S
C271 C265 1.363 1_556 S
C271 C266 1.379 1_556 S
C271 N269 1.356 . S
N272 C264 1.356 . S
N272 H278 0.984 . S
N272 H279 0.984 . S
N273 C266 1.356 . S
N273 H276 0.984 . S
N273 H277 0.985 1_554 S
H274 N269 0.984 . S
H275 N269 0.985 . S
H276 N273 0.984 . S
H277 N273 0.985 1_556 S
H278 N272 0.984 . S
H279 N272 0.984 . S
H280 N268 0.984 . S
H281 N268 0.985 . S
C282 C283 1.363 . S
C282 C288 1.379 . S
C282 N290 1.356 . S
C283 C282 1.363 . S
C283 C289 1.363 . S
C284 C285 1.363 . S
C284 C289 1.379 . S
C284 N291 1.356 . S
C285 C284 1.363 . S
C285 C288 1.363 . S
N286 C288 1.356 . S
N286 H298 0.984 . S
N286 H299 0.985 . S
N287 C289 1.356 . S
N287 H292 0.984 . S
N287 H293 0.985 . S
C288 C282 1.379 . S
C288 C285 1.363 . S
C288 N286 1.356 . S
C289 C283 1.363 . S
C289 C284 1.379 . S
C289 N287 1.356 . S
N290 C282 1.356 . S
N290 H296 0.984 . S
N290 H297 0.984 . S
N291 C284 1.356 . S
N291 H294 0.984 . S
N291 H295 0.985 . S
H292 N287 0.984 . S
H293 N287 0.985 . S
H294 N291 0.984 . S
H295 N291 0.985 . S
H296 N290 0.984 . S
H297 N290 0.984 . S
H298 N286 0.984 . S
H299 N286 0.985 . S
C300 C301 1.363 . S
C300 C306 1.379 . S
C300 N308 1.356 . S
C301 C300 1.363 . S
C301 C307 1.363 1_554 S
C302 C303 1.363 . S
C302 C307 1.379 1_554 S
C302 N309 1.356 1_554 S
C303 C302 1.363 . S
C303 C306 1.363 . S
N304 C306 1.356 . S
N304 H316 0.984 . S
N304 H317 0.985 . S
N305 C307 1.356 . S
N305 H310 0.984 . S
N305 H311 0.985 . S
C306 C300 1.379 . S
C306 C303 1.363 . S
C306 N304 1.356 . S
C307 C301 1.363 1_556 S
C307 C302 1.379 1_556 S
C307 N305 1.356 . S
N308 C300 1.356 . S
N308 H314 0.984 . S
N308 H315 0.984 . S
N309 C302 1.356 1_556 S
N309 H312 0.984 1_556 S
N309 H313 0.985 . S
H310 N305 0.984 . S
H311 N305 0.985 . S
H312 N309 0.984 1_554 S
H313 N309 0.985 . S
H314 N308 0.984 . S
H315 N308 0.984 . S
H316 N304 0.984 . S
H317 N304 0.985 . S
C318 C319 1.363 . S
C318 C324 1.379 . S
C318 N326 1.356 . S
C319 C318 1.363 . S
C319 C325 1.363 . S
C320 C321 1.363 . S
C320 C325 1.379 . S
C320 N327 1.356 . S
C321 C320 1.363 . S
C321 C324 1.363 . S
N322 C324 1.356 . S
N322 H334 0.984 . S
N322 H335 0.985 . S
N323 C325 1.356 . S
N323 H328 0.984 . S
N323 H329 0.985 . S
C324 C318 1.379 . S
C324 C321 1.363 . S
C324 N322 1.356 . S
C325 C319 1.363 . S
C325 C320 1.379 . S
C325 N323 1.356 . S
N326 C318 1.356 . S
N326 H332 0.984 . S
N326 H333 0.984 . S
N327 C320 1.356 . S
N327 H330 0.984 . S
N327 H331 0.985 . S
H328 N323 0.984 . S
H329 N323 0.985 . S
H330 N327 0.984 . S
H331 N327 0.985 . S
H332 N326 0.984 . S
H333 N326 0.984 . S
H334 N322 0.984 . S
H335 N322 0.985 . S
C336 C337 1.363 1_556 S
C336 C342 1.379 . S
C336 N344 1.356 . S
C337 C336 1.363 1_554 S
C337 C343 1.363 . S
C338 C339 1.363 1_554 S
C338 C343 1.379 . S
C338 N345 1.356 . S
C339 C338 1.363 1_556 S
C339 C342 1.363 . S
N340 C342 1.356 . S
N340 H352 0.984 . S
N340 H353 0.985 . S
N341 C343 1.356 . S
N341 H346 0.984 . S
N341 H347 0.985 . S
C342 C336 1.379 . S
C342 C339 1.363 . S
C342 N340 1.356 . S
C343 C337 1.363 . S
C343 C338 1.379 . S
C343 N341 1.356 . S
N344 C336 1.356 . S
N344 H350 0.984 . S
N344 H351 0.984 1_556 S
N345 C338 1.356 . S
N345 H348 0.984 . S
N345 H349 0.985 . S
H346 N341 0.984 . S
H347 N341 0.985 . S
H348 N345 0.984 . S
H349 N345 0.985 . S
H350 N344 0.984 . S
H351 N344 0.984 1_554 S
H352 N340 0.984 . S
H353 N340 0.985 . S
C354 C355 1.363 . S
C354 C360 1.379 . S
C354 N362 1.356 . S
C355 C354 1.363 . S
C355 C361 1.363 . S
C356 C357 1.363 . S
C356 C361 1.379 . S
C356 N363 1.356 . S
C357 C356 1.363 . S
C357 C360 1.363 . S
N358 C360 1.356 . S
N358 H370 0.984 . S
N358 H371 0.985 . S
N359 C361 1.356 . S
N359 H364 0.984 . S
N359 H365 0.985 . S
C360 C354 1.379 . S
C360 C357 1.363 . S
C360 N358 1.356 . S
C361 C355 1.363 . S
C361 C356 1.379 . S
C361 N359 1.356 . S
N362 C354 1.356 . S
N362 H368 0.984 . S
N362 H369 0.984 . S
N363 C356 1.356 . S
N363 H366 0.984 . S
N363 H367 0.985 . S
H364 N359 0.984 . S
H365 N359 0.985 . S
H366 N363 0.984 . S
H367 N363 0.985 . S
H368 N362 0.984 . S
H369 N362 0.984 . S
H370 N358 0.984 . S
H371 N358 0.985 . S
C372 C373 1.363 . S
C372 C378 1.379 . S
C372 N380 1.356 . S
C373 C372 1.363 . S
C373 C379 1.363 1_554 S
C374 C375 1.363 . S
C374 C379 1.379 . S
C374 N381 1.356 . S
C375 C374 1.363 . S
C375 C378 1.363 1_556 S
N376 C378 1.356 . S
N376 H388 0.984 . S
N376 H389 0.985 . S
N377 C379 1.356 . S
N377 H382 0.984 1_556 S
N377 H383 0.985 . S
C378 C372 1.379 . S
C378 C375 1.363 1_554 S
C378 N376 1.356 . S
C379 C373 1.363 1_556 S
C379 C374 1.379 . S
C379 N377 1.356 . S
N380 C372 1.356 . S
N380 H386 0.984 . S
N380 H387 0.984 . S
N381 C374 1.356 . S
N381 H384 0.984 . S
N381 H385 0.985 . S
H382 N377 0.984 1_554 S
H383 N377 0.985 . S
H384 N381 0.984 . S
H385 N381 0.985 . S
H386 N380 0.984 . S
H387 N380 0.984 . S
H388 N376 0.984 . S
H389 N376 0.985 . S
C390 C391 1.363 . S
C390 C396 1.379 . S
C390 N398 1.356 . S
C391 C390 1.363 . S
C391 C397 1.363 . S
C392 C393 1.363 . S
C392 C397 1.379 . S
C392 N399 1.356 . S
C393 C392 1.363 . S
C393 C396 1.363 . S
N394 C396 1.356 . S
N394 H406 0.984 . S
N394 H407 0.985 . S
N395 C397 1.356 . S
N395 H400 0.984 . S
N395 H401 0.985 . S
C396 C390 1.379 . S
C396 C393 1.363 . S
C396 N394 1.356 . S
C397 C391 1.363 . S
C397 C392 1.379 . S
C397 N395 1.356 . S
N398 C390 1.356 . S
N398 H404 0.984 . S
N398 H405 0.984 . S
N399 C392 1.356 . S
N399 H402 0.984 . S
N399 H403 0.985 . S
H400 N395 0.984 . S
H401 N395 0.985 . S
H402 N399 0.984 . S
H403 N399 0.985 . S
H404 N398 0.984 . S
H405 N398 0.984 . S
H406 N394 0.984 . S
H407 N394 0.985 . S
C408 C409 1.363 . S
C408 C414 1.379 . S
C408 N416 1.356 1_554 S
C409 C408 1.363 . S
C409 C415 1.363 . S
C410 C411 1.363 . S
C410 C415 1.379 . S
C410 N417 1.356 . S
C411 C410 1.363 . S
C411 C414 1.363 . S
N412 C414 1.356 1_556 S
N412 H424 0.984 . S
N412 H425 0.985 . S
N413 C415 1.356 . S
N413 H418 0.984 . S
N413 H419 0.985 . S
C414 C408 1.379 . S
C414 C411 1.363 . S
C414 N412 1.356 1_554 S
C415 C409 1.363 . S
C415 C410 1.379 . S
C415 N413 1.356 . S
N416 C408 1.356 1_556 S
N416 H422 0.984 . S
N416 H423 0.984 . S
N417 C410 1.356 . S
N417 H420 0.984 . S
N417 H421 0.985 . S
H418 N413 0.984 . S
H419 N413 0.985 . S
H420 N417 0.984 . S
H421 N417 0.985 . S
H422 N416 0.984 . S
H423 N416 0.984 . S
H424 N412 0.984 . S
H425 N412 0.985 . S
C426 C427 1.363 . S
C426 C432 1.379 . S
C426 N434 1.356 . S
C427 C426 1.363 . S
C427 C433 1.363 . S
C428 C429 1.363 . S
C428 C433 1.379 . S
C428 N435 1.356 . S
C429 C428 1.363 . S
C429 C432 1.363 . S
N430 C432 1.356 . S
N430 H442 0.984 . S
N430 H443 0.985 . S
N431 C433 1.356 . S
N431 H436 0.984 . S
N431 H437 0.985 . S
C432 C426 1.379 . S
C432 C429 1.363 . S
C432 N430 1.356 . S
C433 C427 1.363 . S
C433 C428 1.379 . S
C433 N431 1.356 . S
N434 C426 1.356 . S
N434 H440 0.984 . S
N434 H441 0.984 . S
N435 C428 1.356 . S
N435 H438 0.984 . S
N435 H439 0.985 . S
H436 N431 0.984 . S
H437 N431 0.985 . S
H438 N435 0.984 . S
H439 N435 0.985 . S
H440 N434 0.984 . S
H441 N434 0.984 . S
H442 N430 0.984 . S
H443 N430 0.985 . S
C444 C445 1.363 . S
C444 C450 1.379 1_455 S
C444 N452 1.356 . S
C445 C444 1.363 . S
C445 C451 1.363 1_564 S
C446 C447 1.363 1_556 S
C446 C451 1.379 1_655 S
C446 N453 1.356 . S
C447 C446 1.363 1_554 S
C447 C450 1.363 1_545 S
N448 C450 1.356 . S
N448 H460 0.984 . S
N448 H461 0.985 . S
N449 C451 1.356 . S
N449 H454 0.984 . S
N449 H455 0.985 . S
C450 C444 1.379 1_655 S
C450 C447 1.363 1_565 S
C450 N448 1.356 . S
C451 C445 1.363 1_546 S
C451 C446 1.379 1_455 S
C451 N449 1.356 . S
N452 C444 1.356 . S
N452 H458 0.984 . S
N452 H459 0.984 . S
N453 C446 1.356 . S
N453 H456 0.984 . S
N453 H457 0.985 . S
H454 N449 0.984 . S
H455 N449 0.985 . S
H456 N453 0.984 . S
H457 N453 0.985 . S
H458 N452 0.984 . S
H459 N452 0.984 . S
H460 N448 0.984 . S
H461 N448 0.985 . S
C462 C463 1.363 1_455 S
C462 C468 1.379 1_565 S
C462 N470 1.356 . S
C463 C462 1.363 1_655 S
C463 C469 1.363 . S
C464 C465 1.363 1_655 S
C464 C469 1.379 1_545 S
C464 N471 1.356 . S
C465 C464 1.363 1_455 S
C465 C468 1.363 . S
N466 C468 1.356 . S
N466 H478 0.984 . S
N466 H479 0.985 . S
N467 C469 1.356 . S
N467 H472 0.984 . S
N467 H473 0.985 . S
C468 C462 1.379 1_545 S
C468 C465 1.363 . S
C468 N466 1.356 . S
C469 C463 1.363 . S
C469 C464 1.379 1_565 S
C469 N467 1.356 . S
N470 C462 1.356 . S
N470 H476 0.984 . S
N470 H477 0.984 . S
N471 C464 1.356 . S
N471 H474 0.984 . S
N471 H475 0.985 . S
H472 N467 0.984 . S
H473 N467 0.985 . S
H474 N471 0.984 . S
H475 N471 0.985 . S
H476 N470 0.984 . S
H477 N470 0.984 . S
H478 N466 0.984 . S
H479 N466 0.985 . S
C480 C481 1.363 . S
C480 C486 1.379 . S
C480 N488 1.356 . S
C481 C480 1.363 . S
C481 C487 1.363 . S
C482 C483 1.363 . S
C482 C487 1.379 . S
C482 N489 1.356 . S
C483 C482 1.363 . S
C483 C486 1.363 . S
N484 C486 1.356 . S
N484 H496 0.984 . S
N484 H497 0.985 . S
N485 C487 1.356 . S
N485 H490 0.984 . S
N485 H491 0.985 . S
C486 C480 1.379 . S
C486 C483 1.363 . S
C486 N484 1.356 . S
C487 C481 1.363 . S
C487 C482 1.379 . S
C487 N485 1.356 . S
N488 C480 1.356 . S
N488 H494 0.984 . S
N488 H495 0.984 . S
N489 C482 1.356 . S
N489 H492 0.984 . S
N489 H493 0.985 . S
H490 N485 0.984 . S
H491 N485 0.985 . S
H492 N489 0.984 . S
H493 N489 0.985 . S
H494 N488 0.984 . S
H495 N488 0.984 . S
H496 N484 0.984 . S
H497 N484 0.985 . S
C498 C499 1.363 . S
C498 C504 1.379 . S
C498 N506 1.356 . S
C499 C498 1.363 . S
C499 C505 1.363 . S
C500 C501 1.363 . S
C500 C505 1.379 . S
C500 N507 1.356 . S
C501 C500 1.363 . S
C501 C504 1.363 . S
N502 C504 1.356 . S
N502 H514 0.984 . S
N502 H515 0.985 . S
N503 C505 1.356 . S
N503 H508 0.984 . S
N503 H509 0.985 . S
C504 C498 1.379 . S
C504 C501 1.363 . S
C504 N502 1.356 . S
C505 C499 1.363 . S
C505 C500 1.379 . S
C505 N503 1.356 . S
N506 C498 1.356 . S
N506 H512 0.984 . S
N506 H513 0.984 . S
N507 C500 1.356 . S
N507 H510 0.984 . S
N507 H511 0.985 . S
H508 N503 0.984 . S
H509 N503 0.985 . S
H510 N507 0.984 . S
H511 N507 0.985 . S
H512 N506 0.984 . S
H513 N506 0.984 . S
H514 N502 0.984 . S
H515 N502 0.985 . S
C516 C517 1.363 . S
C516 C522 1.379 . S
C516 N524 1.356 . S
C517 C516 1.363 . S
C517 C523 1.363 . S
C518 C519 1.363 . S
C518 C523 1.379 . S
C518 N525 1.356 . S
C519 C518 1.363 . S
C519 C522 1.363 . S
N520 C522 1.356 . S
N520 H532 0.984 . S
N520 H533 0.985 . S
N521 C523 1.356 . S
N521 H526 0.984 . S
N521 H527 0.985 . S
C522 C516 1.379 . S
C522 C519 1.363 . S
C522 N520 1.356 . S
C523 C517 1.363 . S
C523 C518 1.379 . S
C523 N521 1.356 . S
N524 C516 1.356 . S
N524 H530 0.984 . S
N524 H531 0.984 . S
N525 C518 1.356 . S
N525 H528 0.984 . S
N525 H529 0.985 . S
H526 N521 0.984 . S
H527 N521 0.985 . S
H528 N525 0.984 . S
H529 N525 0.985 . S
H530 N524 0.984 . S
H531 N524 0.984 . S
H532 N520 0.984 . S
H533 N520 0.985 . S
C534 C535 1.363 . S
C534 C540 1.379 . S
C534 N542 1.356 . S
C535 C534 1.363 . S
C535 C541 1.363 . S
C536 C537 1.363 . S
C536 C541 1.379 . S
C536 N543 1.356 . S
C537 C536 1.363 . S
C537 C540 1.363 . S
N538 C540 1.356 . S
N538 H550 0.984 . S
N538 H551 0.985 . S
N539 C541 1.356 . S
N539 H544 0.984 . S
N539 H545 0.985 . S
C540 C534 1.379 . S
C540 C537 1.363 . S
C540 N538 1.356 . S
C541 C535 1.363 . S
C541 C536 1.379 . S
C541 N539 1.356 . S
N542 C534 1.356 . S
N542 H548 0.984 . S
N542 H549 0.984 . S
N543 C536 1.356 . S
N543 H546 0.984 . S
N543 H547 0.985 . S
H544 N539 0.984 . S
H545 N539 0.985 . S
H546 N543 0.984 . S
H547 N543 0.985 . S
H548 N542 0.984 . S
H549 N542 0.984 . S
H550 N538 0.984 . S
H551 N538 0.985 . S
C552 C553 1.363 . S
C552 C558 1.379 . S
C552 N560 1.356 . S
C553 C552 1.363 . S
C553 C559 1.363 . S
C554 C555 1.363 . S
C554 C559 1.379 . S
C554 N561 1.356 . S
C555 C554 1.363 . S
C555 C558 1.363 . S
N556 C558 1.356 . S
N556 H568 0.984 . S
N556 H569 0.985 . S
N557 C559 1.356 . S
N557 H562 0.984 . S
N557 H563 0.985 . S
C558 C552 1.379 . S
C558 C555 1.363 . S
C558 N556 1.356 . S
C559 C553 1.363 . S
C559 C554 1.379 . S
C559 N557 1.356 . S
N560 C552 1.356 . S
N560 H566 0.984 . S
N560 H567 0.984 . S
N561 C554 1.356 . S
N561 H564 0.984 . S
N561 H565 0.985 . S
H562 N557 0.984 . S
H563 N557 0.985 . S
H564 N561 0.984 . S
H565 N561 0.985 . S
H566 N560 0.984 . S
H567 N560 0.984 . S
H568 N556 0.984 . S
H569 N556 0.985 . S
C570 C571 1.363 . S
C570 C576 1.379 . S
C570 N578 1.356 . S
C571 C570 1.363 . S
C571 C577 1.363 . S
C572 C573 1.363 . S
C572 C577 1.379 . S
C572 N579 1.356 . S
C573 C572 1.363 . S
C573 C576 1.363 . S
N574 C576 1.356 . S
N574 H586 0.984 . S
N574 H587 0.985 . S
N575 C577 1.356 . S
N575 H580 0.984 . S
N575 H581 0.985 . S
C576 C570 1.379 . S
C576 C573 1.363 . S
C576 N574 1.356 . S
C577 C571 1.363 . S
C577 C572 1.379 . S
C577 N575 1.356 . S
N578 C570 1.356 . S
N578 H584 0.984 . S
N578 H585 0.984 . S
N579 C572 1.356 . S
N579 H582 0.984 . S
N579 H583 0.985 . S
H580 N575 0.984 . S
H581 N575 0.985 . S
H582 N579 0.984 . S
H583 N579 0.985 . S
H584 N578 0.984 . S
H585 N578 0.984 . S
H586 N574 0.984 . S
H587 N574 0.985 . S
C588 C589 1.363 . S
C588 C594 1.379 . S
C588 N596 1.356 . S
C589 C588 1.363 . S
C589 C595 1.363 . S
C590 C591 1.363 . S
C590 C595 1.379 . S
C590 N597 1.356 . S
C591 C590 1.363 . S
C591 C594 1.363 . S
N592 C594 1.356 . S
N592 H604 0.984 . S
N592 H605 0.985 . S
N593 C595 1.356 . S
N593 H598 0.984 . S
N593 H599 0.985 . S
C594 C588 1.379 . S
C594 C591 1.363 . S
C594 N592 1.356 . S
C595 C589 1.363 . S
C595 C590 1.379 . S
C595 N593 1.356 . S
N596 C588 1.356 . S
N596 H602 0.984 . S
N596 H603 0.984 . S
N597 C590 1.356 . S
N597 H600 0.984 . S
N597 H601 0.985 . S
H598 N593 0.984 . S
H599 N593 0.985 . S
H600 N597 0.984 . S
H601 N597 0.985 . S
H602 N596 0.984 . S
H603 N596 0.984 . S
H604 N592 0.984 . S
H605 N592 0.985 . S
C606 C607 1.363 . S
C606 C612 1.379 . S
C606 N614 1.356 . S
C607 C606 1.363 . S
C607 C613 1.363 . S
C608 C609 1.363 . S
C608 C613 1.379 . S
C608 N615 1.356 . S
C609 C608 1.363 . S
C609 C612 1.363 . S
N610 C612 1.356 . S
N610 H622 0.984 . S
N610 H623 0.985 . S
N611 C613 1.356 . S
N611 H616 0.984 . S
N611 H617 0.985 . S
C612 C606 1.379 . S
C612 C609 1.363 . S
C612 N610 1.356 . S
C613 C607 1.363 . S
C613 C608 1.379 . S
C613 N611 1.356 . S
N614 C606 1.356 . S
N614 H620 0.984 . S
N614 H621 0.984 . S
N615 C608 1.356 . S
N615 H618 0.984 . S
N615 H619 0.985 . S
H616 N611 0.984 . S
H617 N611 0.985 . S
H618 N615 0.984 . S
H619 N615 0.985 . S
H620 N614 0.984 . S
H621 N614 0.984 . S
H622 N610 0.984 . S
H623 N610 0.985 . S
C265 N212 0.987 . S
C267 N5 1.001 . S
C283 N245 0.987 . S
C285 N38 1.001 . S
C301 N146 0.987 . S
C303 N71 1.001 . S
C319 N179 0.987 . S
C321 N104 1.001 . S
C337 N80 0.987 . S
C339 N137 1.001 . S
C355 N113 0.987 . S
C357 N170 1.001 . S
C373 N14 0.987 . S
C375 N203 1.001 . S
C391 N236 1.001 . S
C393 N47 0.987 . S
C409 C74 2.443 . S
C411 C8 2.443 . S
C427 C41 2.443 . S
C429 C107 2.443 . S
C445 C206 2.443 . S
C447 C140 2.443 . S
C463 C173 2.443 . S
C465 C239 2.443 . S
C481 C28 1.952 . S
C483 C259 1.952 . S
C499 C160 1.952 . S
C501 C61 1.952 . S
C517 C193 1.952 . S
C519 C94 1.952 . S
C535 C226 1.952 . S
C537 C127 1.952 . S
C553 C83 1.209 . S
C555 C182 1.209 . S
C571 C116 1.209 . S
C573 C215 1.209 . S
C589 C248 1.209 . S
C591 C17 1.209 . S
C607 C149 1.209 . S
C609 C50 1.209 . S
