# Generated by pormake.
# Topology zfi, (5)-cn, num edge types: 1
# Building blocks:
#     Node 0, Type 0, BuildingBlock: XOMCOT_clean_sbu_0, # of connection points: 5
#     Node 1, Type 0, BuildingBlock: XOMCOT_clean_sbu_0, # of connection points: 5
#     Node 2, Type 0, BuildingBlock: XOMCOT_clean_sbu_0, # of connection points: 5
#     Node 3, Type 0, BuildingBlock: XOMCOT_clean_sbu_0, # of connection points: 5
#     Node 4, Type 0, BuildingBlock: XOMCOT_clean_sbu_0, # of connection points: 5
#     Node 5, Type 0, BuildingBlock: XOMCOT_clean_sbu_0, # of connection points: 5
#     Node 6, Type 0, BuildingBlock: XOMCOT_clean_sbu_0, # of connection points: 5
#     Node 7, Type 0, BuildingBlock: XOMCOT_clean_sbu_0, # of connection points: 5
#     Node 8, Type 0, BuildingBlock: XOMCOT_clean_sbu_0, # of connection points: 5
#     Node 9, Type 0, BuildingBlock: XOMCOT_clean_sbu_0, # of connection points: 5
#     Node 10, Type 0, BuildingBlock: XOMCOT_clean_sbu_0, # of connection points: 5
#     Node 11, Type 0, BuildingBlock: XOMCOT_clean_sbu_0, # of connection points: 5
#     Node 12, Type 0, BuildingBlock: XOMCOT_clean_sbu_0, # of connection points: 5
#     Node 13, Type 0, BuildingBlock: XOMCOT_clean_sbu_0, # of connection points: 5
#     Node 14, Type 0, BuildingBlock: XOMCOT_clean_sbu_0, # of connection points: 5
#     Node 15, Type 0, BuildingBlock: XOMCOT_clean_sbu_0, # of connection points: 5
#     Edge 16, Type (0, 0), None
#     Edge 17, Type (0, 0), None
#     Edge 18, Type (0, 0), None
#     Edge 19, Type (0, 0), None
#     Edge 20, Type (0, 0), None
#     Edge 21, Type (0, 0), None
#     Edge 22, Type (0, 0), None
#     Edge 23, Type (0, 0), None
#     Edge 24, Type (0, 0), None
#     Edge 25, Type (0, 0), None
#     Edge 26, Type (0, 0), None
#     Edge 27, Type (0, 0), None
#     Edge 28, Type (0, 0), None
#     Edge 29, Type (0, 0), None
#     Edge 30, Type (0, 0), None
#     Edge 31, Type (0, 0), None
#     Edge 32, Type (0, 0), None
#     Edge 33, Type (0, 0), None
#     Edge 34, Type (0, 0), None
#     Edge 35, Type (0, 0), None
#     Edge 36, Type (0, 0), None
#     Edge 37, Type (0, 0), None
#     Edge 38, Type (0, 0), None
#     Edge 39, Type (0, 0), None
#     Edge 40, Type (0, 0), None
#     Edge 41, Type (0, 0), None
#     Edge 42, Type (0, 0), None
#     Edge 43, Type (0, 0), None
#     Edge 44, Type (0, 0), None
#     Edge 45, Type (0, 0), None
#     Edge 46, Type (0, 0), None
#     Edge 47, Type (0, 0), None
#     Edge 48, Type (0, 0), None
#     Edge 49, Type (0, 0), None
#     Edge 50, Type (0, 0), None
#     Edge 51, Type (0, 0), None
#     Edge 52, Type (0, 0), None
#     Edge 53, Type (0, 0), None
#     Edge 54, Type (0, 0), None
#     Edge 55, Type (0, 0), None
# Relax obj value: 0.121
# Max RMSD: 0.138
# Mean RMSD: 0.138
data_MOF--net-zfi--node1-XOMCOT_clean_sbu_0--edge1-none
_symmetry_space_group_name_H-M    P1
_symmetry_Int_Tables_number       1
_symmetry_cell_setting            triclinic
loop_
_symmetry_equiv_pos_as_xyz
'x, y, z'
_cell_length_a     20.191656
_cell_length_b     20.191699
_cell_length_c     22.359777
_cell_angle_alpha  90.002732
_cell_angle_beta   90.00377
_cell_angle_gamma 89.999667
loop_
_atom_site_label
_atom_site_type_symbol
_atom_site_fract_x
_atom_site_fract_y
_atom_site_fract_z
_atom_type_partial_charge
Co0 Co 0.65323 0.09379 0.125 0.0
C1 C 0.71946 0.22514 0.14602 0.0
C2 C 0.66216 0.22617 0.06587 0.0
C3 C 0.70773 0.27752 0.06507 0.0
N4 N 0.67094 0.19056 0.11589 0.0
N5 N 0.74793 0.27395 0.11319 0.0
H6 H 0.73846 0.21127 0.18941 0.0
H7 H 0.63098 0.21144 0.02886 0.0
C8 C 0.56793 0.03428 0.01542 0.0
O9 O 0.60498 0.98195 0.00656 0.0
N10 N 0.64253 1.00006 0.13825 0.0
C11 C 0.69128 0.9543 0.1411 0.0
C12 C 0.66664 0.89463 0.12153 0.0
C13 C 0.58757 0.96596 0.12615 0.0
N14 N 0.60201 0.90357 0.10988 0.0
C15 C 0.7914 0.09893 0.11983 0.0
C16 C 0.80822 0.99323 0.04514 0.0
C17 C 0.85648 1.0096 0.08799 0.0
C18 C 0.85171 0.06868 0.11808 0.0
C19 C 0.75014 1.03164 0.04266 0.0
N20 N 0.7388 0.07759 0.08635 0.0
H21 H 0.78609 0.12814 0.15861 0.0
H22 H 0.71205 1.01772 0.01211 0.0
H23 H 0.74235 0.96455 0.15194 0.0
H24 H 0.53914 0.98845 0.12165 0.0
O25 O 0.68623 0.09903 0.20615 0.0
O26 O 0.58129 0.11218 0.18012 0.0
O27 O 0.59023 0.08478 0.04753 0.0
C28 C 0.62571 0.11017 0.22214 0.0
H29 H 0.71484 0.31041 0.02834 0.0
H30 H 0.69384 0.84892 0.11533 0.0
H31 H 0.81281 0.94895 0.01817 0.0
H32 H 0.88863 0.08309 0.1508 0.0
Co33 Co 0.47147 0.65325 0.12498 0.0
C34 C 0.34014 0.7195 0.14601 0.0
C35 C 0.33907 0.66215 0.06588 0.0
C36 C 0.28773 0.70773 0.06508 0.0
N37 N 0.37471 0.67096 0.1159 0.0
N38 N 0.29131 0.74795 0.11318 0.0
H39 H 0.35401 0.73851 0.1894 0.0
H40 H 0.35378 0.63095 0.02888 0.0
C41 C 0.53092 0.56794 0.0154 0.0
O42 O 0.58323 0.60499 0.0065 0.0
N43 N 0.5652 0.64253 0.1382 0.0
C44 C 0.61097 0.69128 0.14103 0.0
C45 C 0.67063 0.66663 0.12143 0.0
C46 C 0.59929 0.58757 0.12609 0.0
N47 N 0.66166 0.60199 0.10979 0.0
C48 C 0.46637 0.7914 0.11983 0.0
C49 C 0.57201 0.80822 0.04509 0.0
C50 C 0.55569 0.85646 0.08796 0.0
C51 C 0.49663 0.85171 0.11809 0.0
C52 C 0.53358 0.75015 0.04262 0.0
N53 N 0.48765 0.73882 0.08633 0.0
H54 H 0.43717 0.7861 0.15862 0.0
H55 H 0.54746 0.71206 0.01205 0.0
H56 H 0.60075 0.74235 0.15188 0.0
H57 H 0.57679 0.53914 0.12161 0.0
O58 O 0.46627 0.68623 0.20613 0.0
O59 O 0.4531 0.58129 0.18009 0.0
O60 O 0.48043 0.59025 0.04751 0.0
C61 C 0.45514 0.6257 0.22211 0.0
H62 H 0.25481 0.71482 0.02836 0.0
H63 H 0.71634 0.69382 0.11522 0.0
H64 H 0.61627 0.8128 0.01809 0.0
H65 H 0.48227 0.88862 0.15083 0.0
Co66 Co 0.91199 0.47148 0.125 0.0
C67 C 0.84568 0.34021 0.14606 0.0
C68 C 0.90302 0.33905 0.06593 0.0
C69 C 0.85734 0.28779 0.06509 0.0
N70 N 0.89427 0.3747 0.11595 0.0
N71 N 0.8171 0.29153 0.11315 0.0
H72 H 0.82669 0.35408 0.18945 0.0
H73 H 0.93425 0.35371 0.02894 0.0
C74 C 0.99726 0.53091 0.01541 0.0
O75 O 0.9602 0.58323 0.00653 0.0
N76 N 0.9227 0.56521 0.13818 0.0
C77 C 0.87394 0.61098 0.141 0.0
C78 C 0.8986 0.67065 0.12143 0.0
C79 C 0.97766 0.59931 0.1261 0.0
N80 N 0.96324 0.66169 0.10981 0.0
C81 C 0.77383 0.4664 0.11988 0.0
C82 C 0.75701 0.57194 0.04502 0.0
C83 C 0.70876 0.55565 0.08789 0.0
C84 C 0.71352 0.49663 0.11808 0.0
C85 C 0.81508 0.53352 0.04259 0.0
N86 N 0.82642 0.48764 0.08635 0.0
H87 H 0.77914 0.43727 0.15872 0.0
H88 H 0.85316 0.54735 0.012 0.0
H89 H 0.82287 0.60075 0.15182 0.0
H90 H 1.0261 0.57682 0.12163 0.0
O91 O 0.87903 0.46631 0.20616 0.0
O92 O 0.98396 0.45312 0.18011 0.0
O93 O 0.97496 0.48043 0.04752 0.0
C94 C 0.93955 0.45517 0.22213 0.0
H95 H 0.85021 0.25488 0.02838 0.0
H96 H 0.87141 0.71635 0.11522 0.0
H97 H 0.75242 0.61617 0.01798 0.0
H98 H 0.6766 0.4823 0.15082 0.0
Co99 Co 0.0938 0.91204 0.12505 0.0
C100 C 0.22507 0.8457 0.14605 0.0
C101 C 0.22618 0.90303 0.06591 0.0
C102 C 0.27745 0.85735 0.06506 0.0
N103 N 0.19057 0.8943 0.11595 0.0
N104 N 0.27373 0.81711 0.11313 0.0
H105 H 0.21122 0.82673 0.18945 0.0
H106 H 0.2115 0.93426 0.02892 0.0
C107 C 0.03428 0.99727 0.01545 0.0
O108 O 0.98194 0.96023 0.00665 0.0
N109 N 1.00008 0.92277 0.13829 0.0
C110 C 0.95432 0.87401 0.14112 0.0
C111 C 0.89464 0.89865 0.12157 0.0
C112 C 0.96597 0.97773 0.12622 0.0
N113 N 0.90357 0.9633 0.10997 0.0
C114 C 0.09883 0.77388 0.11997 0.0
C115 C 0.9933 0.75706 0.04508 0.0
C116 C 1.00958 0.70881 0.08795 0.0
C117 C 0.06858 0.71357 0.11817 0.0
C118 C 1.03173 0.81513 0.04266 0.0
N119 N 0.07759 0.82646 0.08643 0.0
H120 H 0.12797 0.77919 0.1588 0.0
H121 H 1.01791 0.85321 0.01206 0.0
H122 H 0.96457 0.82293 0.15193 0.0
H123 H 0.98846 1.02615 0.1217 0.0
O124 O 0.09904 0.8791 0.20621 0.0
O125 O 0.11222 0.98402 0.18015 0.0
O126 O 0.08479 0.975 0.04755 0.0
C127 C 0.11021 0.93961 0.22217 0.0
H128 H 0.31033 0.85019 0.02833 0.0
H129 H 0.84895 0.87144 0.11534 0.0
H130 H 0.94909 0.75247 0.01801 0.0
H131 H 0.08291 0.67666 0.15092 0.0
Co132 Co 0.15327 0.97147 0.38127 0.0
C133 C 0.21949 0.84013 0.36021 0.0
C134 C 0.16216 0.83906 0.44034 0.0
C135 C 0.20773 0.78771 0.44113 0.0
N136 N 0.17096 0.8747 0.39033 0.0
N137 N 0.24794 0.79129 0.39303 0.0
H138 H 0.23849 0.85401 0.31683 0.0
H139 H 0.13097 0.85377 0.47735 0.0
C140 C 0.06794 1.03092 0.49083 0.0
O141 O 0.10499 0.08324 0.49974 0.0
N142 N 0.14256 0.06521 0.36806 0.0
C143 C 0.19131 0.11098 0.36522 0.0
C144 C 0.16666 0.17064 0.3848 0.0
C145 C 0.0876 0.09929 0.38015 0.0
N146 N 0.10203 0.16168 0.39644 0.0
C147 C 0.29143 0.96632 0.38648 0.0
C148 C 0.30824 0.07204 0.46114 0.0
C149 C 0.35648 0.05568 0.41829 0.0
C150 C 0.35173 0.99658 0.38822 0.0
C151 C 0.25017 0.03362 0.46363 0.0
N152 N 0.23883 0.98765 0.41995 0.0
H153 H 0.28613 0.9371 0.3477 0.0
H154 H 0.21208 0.04754 0.49418 0.0
H155 H 0.24238 0.10074 0.35437 0.0
H156 H 0.03917 0.0768 0.38462 0.0
O157 O 0.18627 0.96628 0.30012 0.0
O158 O 0.08133 0.95312 0.32614 0.0
O159 O 0.09026 0.98044 0.45872 0.0
C160 C 0.12575 0.95515 0.28413 0.0
H161 H 0.21482 0.75479 0.47784 0.0
H162 H 0.19384 0.21635 0.39099 0.0
H163 H 0.31281 0.11633 0.4881 0.0
H164 H 0.38865 0.98217 0.3555 0.0
Co165 Co 0.59378 0.15322 0.38123 0.0
C166 C 0.72513 0.21944 0.36022 0.0
C167 C 0.72616 0.16215 0.44037 0.0
C168 C 0.77751 0.20772 0.44117 0.0
N169 N 0.69055 0.17092 0.39035 0.0
N170 N 0.77395 0.24791 0.39305 0.0
H171 H 0.71126 0.23844 0.31683 0.0
H172 H 0.71144 0.13097 0.47738 0.0
C173 C 0.53427 0.06793 0.4908 0.0
O174 O 0.48194 0.10497 0.49964 0.0
N175 N 0.50005 0.14252 0.36797 0.0
C176 C 0.45429 0.19127 0.36511 0.0
C177 C 0.39462 0.16663 0.38467 0.0
C178 C 0.46595 0.08756 0.38005 0.0
N179 N 0.40356 0.10199 0.39629 0.0
C180 C 0.59892 0.29139 0.38642 0.0
C181 C 0.49321 0.30821 0.46109 0.0
C182 C 0.50958 0.35646 0.41825 0.0
C183 C 0.56866 0.3517 0.38816 0.0
C184 C 0.53163 0.25013 0.46358 0.0
N185 N 0.57759 0.23879 0.41989 0.0
H186 H 0.62814 0.28609 0.34765 0.0
H187 H 0.51771 0.21204 0.49412 0.0
H188 H 0.46454 0.24234 0.35429 0.0
H189 H 0.48845 0.03913 0.38456 0.0
O190 O 0.59902 0.18622 0.30008 0.0
O191 O 0.61218 0.08128 0.3261 0.0
O192 O 0.58477 0.09022 0.45869 0.0
C193 C 0.61018 0.1257 0.28409 0.0
H194 H 0.81041 0.21483 0.4779 0.0
H195 H 0.34892 0.19383 0.3909 0.0
H196 H 0.44893 0.31279 0.48806 0.0
H197 H 0.58307 0.38862 0.35545 0.0
Co198 Co 0.41203 0.59378 0.38118 0.0
C199 C 0.34571 0.72506 0.36016 0.0
C200 C 0.40302 0.72618 0.44032 0.0
C201 C 0.35734 0.77744 0.44116 0.0
N202 N 0.3943 0.69055 0.39027 0.0
N203 N 0.31711 0.77372 0.39308 0.0
H204 H 0.32673 0.7112 0.31676 0.0
H205 H 0.43425 0.7115 0.47731 0.0
C206 C 0.49727 0.53428 0.49078 0.0
O207 O 0.46022 0.48194 0.4996 0.0
N208 N 0.42274 0.50005 0.36795 0.0
C209 C 0.37398 0.4543 0.36512 0.0
C210 C 0.39863 0.39462 0.38467 0.0
C211 C 0.4777 0.46595 0.38002 0.0
N212 N 0.46327 0.40355 0.39627 0.0
C213 C 0.27386 0.59886 0.38627 0.0
C214 C 0.25701 0.49332 0.46113 0.0
C215 C 0.20876 0.50963 0.41827 0.0
C216 C 0.21354 0.56865 0.38808 0.0
C217 C 0.3151 0.53172 0.46356 0.0
N218 N 0.32644 0.5776 0.4198 0.0
H219 H 0.27918 0.62798 0.34744 0.0
H220 H 0.35319 0.51787 0.49414 0.0
H221 H 0.3229 0.46455 0.35431 0.0
H222 H 0.52613 0.48844 0.38453 0.0
O223 O 0.37908 0.599 0.30002 0.0
O224 O 0.484 0.61218 0.32609 0.0
O225 O 0.47499 0.58478 0.45868 0.0
C226 C 0.4396 0.61017 0.28406 0.0
H227 H 0.35019 0.81032 0.47788 0.0
H228 H 0.37142 0.34893 0.3909 0.0
H229 H 0.25242 0.44909 0.48817 0.0
H230 H 0.17662 0.583 0.35534 0.0
Co231 Co 0.97145 0.41202 0.3812 0.0
C232 C 0.8402 0.34565 0.36018 0.0
C233 C 0.83905 0.40302 0.4403 0.0
C234 C 0.7878 0.35733 0.44115 0.0
N235 N 0.87468 0.39427 0.39027 0.0
N236 N 0.79153 0.31707 0.39309 0.0
H237 H 0.85405 0.32667 0.31678 0.0
H238 H 0.85371 0.43428 0.47727 0.0
C239 C 1.03092 0.49726 0.4908 0.0
O240 O 0.08325 0.46022 0.49964 0.0
N241 N 0.06517 0.42275 0.36799 0.0
C242 C 0.11094 0.374 0.36518 0.0
C243 C 0.17061 0.39866 0.38475 0.0
C244 C 0.09927 0.47772 0.38007 0.0
N245 N 0.16166 0.4633 0.39634 0.0
C246 C 0.96644 0.27386 0.38624 0.0
C247 C 0.07193 0.25704 0.46118 0.0
C248 C 0.05568 0.2088 0.41829 0.0
C249 C 0.99669 0.21356 0.38804 0.0
C250 C 0.0335 0.31511 0.46359 0.0
N251 N 0.98765 0.32644 0.4198 0.0
H252 H 0.93733 0.27918 0.34739 0.0
H253 H 0.04729 0.35318 0.4942 0.0
H254 H 0.10071 0.32292 0.35436 0.0
H255 H 0.07677 0.52615 0.38456 0.0
O256 O 0.96625 0.37909 0.30003 0.0
O257 O 0.95305 0.48401 0.32612 0.0
O258 O 0.98042 0.47497 0.4587 0.0
C259 C 0.95508 0.43962 0.28408 0.0
H260 H 0.75489 0.35021 0.47786 0.0
H261 H 0.21631 0.37146 0.39097 0.0
H262 H 0.11613 0.25245 0.48825 0.0
H263 H 0.98238 0.17664 0.35528 0.0
Co264 Co 0.41196 0.9714 0.88123 0.0
C265 C 0.34573 0.84005 0.86021 0.0
C266 C 0.40303 0.83902 0.94036 0.0
C267 C 0.35746 0.78767 0.94116 0.0
N268 N 0.39426 0.87464 0.89033 0.0
N269 N 0.31726 0.79124 0.89304 0.0
H270 H 0.32673 0.85391 0.81682 0.0
H271 H 0.43422 0.85375 0.97737 0.0
C272 C 0.49726 1.03091 0.99081 0.0
O273 O 0.46021 0.08324 0.99966 0.0
N274 N 0.42267 0.06513 0.86798 0.0
C275 C 0.37391 0.11089 0.86512 0.0
C276 C 0.39855 0.17057 0.88469 0.0
C277 C 0.47762 0.09923 0.88007 0.0
N278 N 0.46319 0.16162 0.89634 0.0
C279 C 0.2738 0.96626 0.8864 0.0
C280 C 0.25697 0.07196 0.96108 0.0
C281 C 0.20872 0.05559 0.91824 0.0
C282 C 0.21348 0.99651 0.88814 0.0
C283 C 0.31505 0.03356 0.96357 0.0
N284 N 0.32639 0.9876 0.91988 0.0
H285 H 0.2791 0.93704 0.84762 0.0
H286 H 0.35314 0.04748 0.99412 0.0
H287 H 0.32284 0.10064 0.85428 0.0
H288 H 0.52605 0.07674 0.88458 0.0
O289 O 0.37896 0.96616 0.80008 0.0
O290 O 0.4839 0.95301 0.82611 0.0
O291 O 0.47496 0.98042 0.9587 0.0
C292 C 0.43948 0.95502 0.78409 0.0
H293 H 0.35035 0.75478 0.97789 0.0
H294 H 0.37135 0.21627 0.89089 0.0
H295 H 0.25239 0.11624 0.98805 0.0
H296 H 0.17656 0.9821 0.85542 0.0
Co297 Co 0.59372 0.41194 0.88125 0.0
C298 C 0.72505 0.34569 0.86022 0.0
C299 C 0.72612 0.40304 0.94035 0.0
C300 C 0.77746 0.35746 0.94115 0.0
N301 N 0.69049 0.39424 0.89033 0.0
N302 N 0.77388 0.31724 0.89305 0.0
H303 H 0.71118 0.32668 0.81683 0.0
H304 H 0.71141 0.43424 0.97735 0.0
C305 C 0.53428 0.49725 0.99083 0.0
O306 O 0.48196 0.4602 0.99973 0.0
N307 N 0.49999 0.42266 0.86803 0.0
C308 C 0.45422 0.37391 0.86519 0.0
C309 C 0.39456 0.39856 0.88479 0.0
C310 C 0.46591 0.47762 0.88014 0.0
N311 N 0.40353 0.4632 0.89644 0.0
C312 C 0.59883 0.27379 0.88639 0.0
C313 C 0.49318 0.25697 0.96113 0.0
C314 C 0.5095 0.20873 0.91827 0.0
C315 C 0.56856 0.21348 0.88813 0.0
C316 C 0.53161 0.31504 0.96361 0.0
N317 N 0.57754 0.32637 0.9199 0.0
H318 H 0.62803 0.27909 0.84761 0.0
H319 H 0.51773 0.35313 0.99418 0.0
H320 H 0.46445 0.32284 0.85435 0.0
H321 H 0.4884 0.52605 0.88462 0.0
O322 O 0.59892 0.37896 0.80009 0.0
O323 O 0.61209 0.4839 0.82614 0.0
O324 O 0.58476 0.47494 0.95872 0.0
C325 C 0.61005 0.43949 0.78411 0.0
H326 H 0.81038 0.35037 0.97787 0.0
H327 H 0.34886 0.37137 0.891 0.0
H328 H 0.44892 0.25239 0.98814 0.0
H329 H 0.58293 0.17657 0.8554 0.0
Co330 Co 0.1532 0.59371 0.88123 0.0
C331 C 0.21952 0.72498 0.86017 0.0
C332 C 0.16218 0.72614 0.9403 0.0
C333 C 0.20785 0.7774 0.94114 0.0
N334 N 0.17092 0.69049 0.89027 0.0
N335 N 0.2481 0.77366 0.89307 0.0
H336 H 0.2385 0.71111 0.81677 0.0
H337 H 0.13094 0.71147 0.97729 0.0
C338 C 0.06793 0.53428 0.99082 0.0
O339 O 0.10499 0.48195 0.99969 0.0
N340 N 0.14249 0.49998 0.86804 0.0
C341 C 0.19125 0.45421 0.86522 0.0
C342 C 0.16659 0.39455 0.8848 0.0
C343 C 0.08753 0.46588 0.88012 0.0
N344 N 0.10196 0.4035 0.89641 0.0
C345 C 0.29136 0.59879 0.88635 0.0
C346 C 0.30818 0.49325 0.96121 0.0
C347 C 0.35643 0.50953 0.91834 0.0
C348 C 0.35167 0.56856 0.88815 0.0
C349 C 0.25011 0.53167 0.96364 0.0
N350 N 0.23878 0.57755 0.91987 0.0
H351 H 0.28605 0.62792 0.84751 0.0
H352 H 0.21203 0.51784 0.99422 0.0
H353 H 0.24232 0.46444 0.8544 0.0
H354 H 0.0391 0.48837 0.88459 0.0
O355 O 0.18616 0.59888 0.80007 0.0
O356 O 0.08124 0.61207 0.82612 0.0
O357 O 0.09023 0.58476 0.95871 0.0
C358 C 0.12564 0.61002 0.78409 0.0
H359 H 0.21498 0.81031 0.97785 0.0
H360 H 0.19379 0.34884 0.89101 0.0
H361 H 0.31277 0.44902 0.98825 0.0
H362 H 0.38859 0.58289 0.85541 0.0
Co363 Co 0.97139 0.15315 0.88118 0.0
C364 C 0.84012 0.21949 0.86018 0.0
C365 C 0.83901 0.16216 0.94032 0.0
C366 C 0.78775 0.20784 0.94117 0.0
N367 N 0.87463 0.17089 0.89028 0.0
N368 N 0.79146 0.24808 0.8931 0.0
H369 H 0.85397 0.23846 0.81678 0.0
H370 H 0.85369 0.13093 0.97731 0.0
C371 C 1.03092 0.06792 0.99077 0.0
O372 O 0.08326 0.10496 0.99958 0.0
N373 N 0.06511 0.14242 0.86794 0.0
C374 C 0.11087 0.19119 0.8651 0.0
C375 C 0.17055 0.16654 0.88465 0.0
C376 C 0.09922 0.08746 0.88001 0.0
N377 N 0.16162 0.1019 0.89625 0.0
C378 C 0.96636 0.29131 0.88626 0.0
C379 C 0.07189 0.30813 0.96115 0.0
C380 C 0.05562 0.35638 0.91828 0.0
C381 C 0.99661 0.35162 0.88806 0.0
C382 C 0.03347 0.25006 0.96357 0.0
N383 N 0.9876 0.23873 0.9198 0.0
H384 H 0.93722 0.286 0.84743 0.0
H385 H 0.04728 0.21198 0.99417 0.0
H386 H 0.10062 0.24226 0.8543 0.0
H387 H 0.07673 0.03904 0.88452 0.0
O388 O 0.96615 0.18609 0.80002 0.0
O389 O 0.95297 0.08117 0.82608 0.0
O390 O 0.98041 0.09019 0.95867 0.0
C391 C 0.95498 0.12558 0.78405 0.0
H392 H 0.75486 0.215 0.9779 0.0
H393 H 0.21624 0.19375 0.89088 0.0
H394 H 0.11611 0.31272 0.98821 0.0
H395 H 0.98229 0.38853 0.85531 0.0
Co396 Co 0.91192 0.09372 0.62496 0.0
C397 C 0.84571 0.22506 0.64602 0.0
C398 C 0.90303 0.22613 0.56588 0.0
C399 C 0.85746 0.27748 0.56509 0.0
N400 N 0.89423 0.19049 0.61589 0.0
N401 N 0.81725 0.2739 0.6132 0.0
H402 H 0.8267 0.21119 0.6894 0.0
H403 H 0.93422 0.21142 0.52888 0.0
C404 C 0.99725 0.03427 0.51539 0.0
O405 O 0.96021 0.98195 0.50649 0.0
N406 N 0.92263 0.99999 0.63817 0.0
C407 C 0.87388 0.95422 0.64101 0.0
C408 C 0.89854 0.89455 0.62143 0.0
C409 C 0.97759 0.9659 0.62607 0.0
N410 N 0.96317 0.90351 0.60979 0.0
C411 C 0.77376 0.09887 0.61975 0.0
C412 C 0.75696 0.99315 0.54509 0.0
C413 C 0.70871 1.00951 0.58794 0.0
C414 C 0.71346 0.06861 0.61801 0.0
C415 C 0.81503 1.03157 0.54259 0.0
N416 N 0.82636 0.07754 0.58628 0.0
H417 H 0.77906 0.12809 0.65853 0.0
H418 H 0.85312 1.01765 0.51205 0.0
H419 H 0.82281 0.96445 0.65186 0.0
H420 H 1.02602 0.98839 0.6216 0.0
O421 O 0.87892 0.09891 0.7061 0.0
O422 O 0.98386 0.11208 0.68009 0.0
O423 O 0.97493 0.08475 0.5475 0.0
C424 C 0.93944 0.11004 0.7221 0.0
H425 H 0.85037 0.3104 0.52838 0.0
H426 H 0.87135 0.84884 0.61524 0.0
H427 H 0.75238 0.94885 0.51813 0.0
H428 H 0.67654 0.08302 0.65073 0.0
Co429 Co 0.47141 0.91197 0.625 0.0
C430 C 0.34006 0.84575 0.646 0.0
C431 C 0.33903 0.90304 0.56585 0.0
C432 C 0.28768 0.85747 0.56505 0.0
N433 N 0.37465 0.89427 0.61588 0.0
N434 N 0.29124 0.81728 0.61317 0.0
H435 H 0.35393 0.82675 0.68939 0.0
H436 H 0.35376 0.93422 0.52884 0.0
C437 C 0.53092 0.99726 0.51543 0.0
O438 O 0.58326 0.96022 0.50659 0.0
N439 N 0.56514 0.92267 0.63826 0.0
C440 C 0.6109 0.87392 0.64112 0.0
C441 C 0.67057 0.89856 0.62155 0.0
C442 C 0.59924 0.97763 0.62618 0.0
N443 N 0.66163 0.9632 0.60994 0.0
C444 C 0.46628 0.7738 0.61981 0.0
C445 C 0.57198 0.75699 0.54514 0.0
C446 C 0.55562 0.70873 0.58798 0.0
C447 C 0.49653 0.71349 0.61806 0.0
C448 C 0.53357 0.81507 0.54265 0.0
N449 N 0.48761 0.8264 0.58634 0.0
H450 H 0.43705 0.7791 0.65858 0.0
H451 H 0.54748 0.85315 0.51211 0.0
H452 H 0.60065 0.82285 0.65194 0.0
H453 H 0.57674 1.02606 0.62167 0.0
O454 O 0.46617 0.87897 0.70614 0.0
O455 O 0.45301 0.98391 0.68012 0.0
O456 O 0.48043 0.97497 0.54754 0.0
C457 C 0.45501 0.93949 0.72213 0.0
H458 H 0.25478 0.85036 0.52832 0.0
H459 H 0.71627 0.87136 0.61533 0.0
H460 H 0.61626 0.75241 0.51817 0.0
H461 H 0.48213 0.67657 0.65078 0.0
Co462 Co 0.65317 0.47141 0.62504 0.0
C463 C 0.71949 0.34013 0.64606 0.0
C464 C 0.66217 0.33902 0.56591 0.0
C465 C 0.70785 0.28775 0.56507 0.0
N466 N 0.67089 0.37464 0.61595 0.0
N467 N 0.74808 0.29147 0.61314 0.0
H468 H 0.73846 0.35399 0.68946 0.0
H469 H 0.63095 0.3537 0.52891 0.0
C470 C 0.56792 0.53092 0.51545 0.0
O471 O 0.60497 0.58325 0.50663 0.0
N472 N 0.64245 0.56514 0.63828 0.0
C473 C 0.69122 0.61089 0.64111 0.0
C474 C 0.66657 0.67057 0.62156 0.0
C475 C 0.58749 0.59924 0.6262 0.0
N476 N 0.60192 0.66164 0.60996 0.0
C477 C 0.79133 0.46633 0.61995 0.0
C478 C 0.80818 0.57187 0.5451 0.0
C479 C 0.85643 0.55556 0.58796 0.0
C480 C 0.85166 0.49654 0.61814 0.0
C481 C 0.75009 0.53347 0.54267 0.0
N482 N 0.73875 0.48759 0.58643 0.0
H483 H 0.78601 0.43721 0.65879 0.0
H484 H 0.71201 0.54732 0.51209 0.0
H485 H 0.74229 0.60064 0.65192 0.0
H486 H 0.53906 0.57675 0.62169 0.0
O487 O 0.68612 0.46619 0.7062 0.0
O488 O 0.58119 0.45301 0.68013 0.0
O489 O 0.59021 0.48041 0.54755 0.0
C490 C 0.6256 0.45502 0.72216 0.0
H491 H 0.71501 0.25487 0.52834 0.0
H492 H 0.69378 0.71626 0.61533 0.0
H493 H 0.81277 0.6161 0.51806 0.0
H494 H 0.88858 0.48219 0.65088 0.0
Co495 Co 0.09375 0.65317 0.62503 0.0
C496 C 0.225 0.71954 0.64605 0.0
C497 C 0.22615 0.66217 0.56593 0.0
C498 C 0.2774 0.70786 0.56508 0.0
N499 N 0.19051 0.67092 0.61596 0.0
N500 N 0.27366 0.74812 0.61313 0.0
H501 H 0.21114 0.73852 0.68945 0.0
H502 H 0.21148 0.63091 0.52895 0.0
C503 C 0.03427 0.56793 0.51543 0.0
O504 O 0.98194 0.60498 0.50658 0.0
N505 N 1.00002 0.64244 0.63824 0.0
C506 C 0.95425 0.69119 0.64105 0.0
C507 C 0.89458 0.66653 0.62148 0.0
C508 C 0.96593 0.58747 0.62615 0.0
N509 N 0.90354 0.60189 0.60988 0.0
C510 C 0.09875 0.79133 0.61999 0.0
C511 C 0.99326 0.80815 0.54505 0.0
C512 C 1.00951 0.85639 0.58794 0.0
C513 C 0.0685 0.85163 0.61818 0.0
C514 C 1.0317 0.75008 0.54264 0.0
N515 N 0.07754 0.73875 0.58642 0.0
H516 H 0.12787 0.78601 0.65883 0.0
H517 H 1.0179 0.71201 0.51202 0.0
H518 H 0.96448 0.74227 0.65187 0.0
H519 H 0.98842 0.53904 0.62166 0.0
O520 O 0.09894 0.6861 0.7062 0.0
O521 O 0.11215 0.58118 0.68011 0.0
O522 O 0.08478 0.59022 0.54753 0.0
C523 C 0.11011 0.62557 0.72215 0.0
H524 H 0.3103 0.71499 0.52836 0.0
H525 H 0.84888 0.69373 0.61526 0.0
H526 H 0.94906 0.81274 0.51798 0.0
H527 H 0.08281 0.88855 0.65094 0.0
loop_
_geom_bond_atom_site_label_1
_geom_bond_atom_site_label_2
_geom_bond_distance
_geom_bond_site_symmetry_2
_ccdc_geom_bond_type
Co0 N4 2.148 . S
Co0 N10 2.128 1_545 S
Co0 N20 2.194 . S
Co0 O25 2.351 . S
Co0 O26 2.155 . S
Co0 O27 2.096 . S
C1 N4 1.301 . S
C1 N5 1.328 . S
C1 H6 0.930 . S
C2 C3 1.333 . S
C2 N4 1.317 . S
C2 H7 0.930 . S
C3 C2 1.333 . S
C3 N5 1.350 . S
C3 H29 0.931 . S
N4 Co0 2.148 . S
N4 C1 1.301 . S
N4 C2 1.317 . S
N5 C1 1.328 . S
N5 C3 1.350 . S
H6 C1 0.930 . S
H7 C2 0.930 . S
C8 O9 1.225 . S
C8 O27 1.242 1_556 S
O9 C8 1.225 . S
N10 Co0 2.128 1_565 S
N10 C11 1.355 . S
N10 C13 1.311 . S
C11 N10 1.355 . S
C11 C12 1.363 . S
C11 H23 0.929 . S
C12 C11 1.363 . S
C12 N14 1.375 . S
C12 H30 0.931 . S
C13 N10 1.311 . S
C13 N14 1.347 . S
C13 H24 0.929 . S
N14 C12 1.375 . S
N14 C13 1.347 . S
C15 C18 1.365 1_545 S
C15 N20 1.328 . S
C15 H21 0.929 . S
C16 C17 1.362 . S
C16 C19 1.378 . S
C16 H31 0.929 1_554 S
C17 C16 1.362 . S
C17 C18 1.366 . S
C18 C15 1.365 1_565 S
C18 C17 1.366 . S
C18 H32 0.930 . S
C19 C16 1.378 . S
C19 N20 1.315 1_565 S
C19 H22 0.930 . S
N20 Co0 2.194 . S
N20 C15 1.328 . S
N20 C19 1.315 1_545 S
H21 C15 0.929 . S
H22 C19 0.930 . S
H23 C11 0.929 . S
H24 C13 0.929 . S
O25 Co0 2.351 . S
O25 C28 1.244 . S
O26 Co0 2.155 . S
O26 C28 1.240 . S
O27 Co0 2.096 . S
O27 C8 1.242 1_554 S
C28 O25 1.244 . S
C28 O26 1.240 . S
H29 C3 0.931 . S
H30 C12 0.931 . S
H31 C16 0.929 1_556 S
H32 C18 0.930 . S
Co33 N37 2.148 . S
Co33 N43 2.128 . S
Co33 N53 2.194 . S
Co33 O58 2.351 . S
Co33 O59 2.155 . S
Co33 O60 2.096 . S
C34 N37 1.301 . S
C34 N38 1.328 . S
C34 H39 0.930 . S
C35 C36 1.333 . S
C35 N37 1.317 . S
C35 H40 0.930 . S
C36 C35 1.333 . S
C36 N38 1.350 . S
C36 H62 0.931 . S
N37 Co33 2.148 . S
N37 C34 1.301 . S
N37 C35 1.317 . S
N38 C34 1.328 . S
N38 C36 1.350 . S
H39 C34 0.930 . S
H40 C35 0.930 . S
C41 O42 1.225 . S
C41 O60 1.242 1_556 S
O42 C41 1.225 . S
N43 Co33 2.128 . S
N43 C44 1.355 . S
N43 C46 1.311 . S
C44 N43 1.355 . S
C44 C45 1.363 . S
C44 H56 0.929 . S
C45 C44 1.363 . S
C45 N47 1.375 . S
C45 H63 0.931 . S
C46 N43 1.311 . S
C46 N47 1.347 . S
C46 H57 0.929 . S
N47 C45 1.375 . S
N47 C46 1.347 . S
C48 C51 1.365 . S
C48 N53 1.328 . S
C48 H54 0.929 . S
C49 C50 1.362 . S
C49 C52 1.378 . S
C49 H64 0.929 1_554 S
C50 C49 1.362 . S
C50 C51 1.366 . S
C51 C48 1.365 . S
C51 C50 1.366 . S
C51 H65 0.930 . S
C52 C49 1.378 . S
C52 N53 1.315 . S
C52 H55 0.930 . S
N53 Co33 2.194 . S
N53 C48 1.328 . S
N53 C52 1.315 . S
H54 C48 0.929 . S
H55 C52 0.930 . S
H56 C44 0.929 . S
H57 C46 0.929 . S
O58 Co33 2.351 . S
O58 C61 1.244 . S
O59 Co33 2.155 . S
O59 C61 1.240 . S
O60 Co33 2.096 . S
O60 C41 1.242 1_554 S
C61 O58 1.244 . S
C61 O59 1.240 . S
H62 C36 0.931 . S
H63 C45 0.931 . S
H64 C49 0.929 1_556 S
H65 C51 0.930 . S
Co66 N70 2.148 . S
Co66 N76 2.128 . S
Co66 N86 2.194 . S
Co66 O91 2.351 . S
Co66 O92 2.155 . S
Co66 O93 2.096 . S
C67 N70 1.301 . S
C67 N71 1.328 . S
C67 H72 0.930 . S
C68 C69 1.333 . S
C68 N70 1.317 . S
C68 H73 0.930 . S
C69 C68 1.333 . S
C69 N71 1.350 . S
C69 H95 0.931 . S
N70 Co66 2.148 . S
N70 C67 1.301 . S
N70 C68 1.317 . S
N71 C67 1.328 . S
N71 C69 1.350 . S
H72 C67 0.930 . S
H73 C68 0.930 . S
C74 O75 1.225 . S
C74 O93 1.242 1_556 S
O75 C74 1.225 . S
N76 Co66 2.128 . S
N76 C77 1.355 . S
N76 C79 1.311 . S
C77 N76 1.355 . S
C77 C78 1.363 . S
C77 H89 0.929 . S
C78 C77 1.363 . S
C78 N80 1.375 . S
C78 H96 0.931 . S
C79 N76 1.311 . S
C79 N80 1.347 . S
C79 H90 0.929 . S
N80 C78 1.375 . S
N80 C79 1.347 . S
C81 C84 1.365 . S
C81 N86 1.328 . S
C81 H87 0.929 . S
C82 C83 1.362 . S
C82 C85 1.378 . S
C82 H97 0.929 1_554 S
C83 C82 1.362 . S
C83 C84 1.366 . S
C84 C81 1.365 . S
C84 C83 1.366 . S
C84 H98 0.930 . S
C85 C82 1.378 . S
C85 N86 1.315 . S
C85 H88 0.930 . S
N86 Co66 2.194 . S
N86 C81 1.328 . S
N86 C85 1.315 . S
H87 C81 0.929 . S
H88 C85 0.930 . S
H89 C77 0.929 . S
H90 C79 0.929 . S
O91 Co66 2.351 . S
O91 C94 1.244 . S
O92 Co66 2.155 . S
O92 C94 1.240 . S
O93 Co66 2.096 . S
O93 C74 1.242 1_554 S
C94 O91 1.244 . S
C94 O92 1.240 . S
H95 C69 0.931 . S
H96 C78 0.931 . S
H97 C82 0.929 1_556 S
H98 C84 0.930 . S
Co99 N103 2.148 . S
Co99 N109 2.128 1_455 S
Co99 N119 2.194 . S
Co99 O124 2.351 . S
Co99 O125 2.155 . S
Co99 O126 2.096 . S
C100 N103 1.301 . S
C100 N104 1.328 . S
C100 H105 0.930 . S
C101 C102 1.333 . S
C101 N103 1.317 . S
C101 H106 0.930 . S
C102 C101 1.333 . S
C102 N104 1.350 . S
C102 H128 0.931 . S
N103 Co99 2.148 . S
N103 C100 1.301 . S
N103 C101 1.317 . S
N104 C100 1.328 . S
N104 C102 1.350 . S
H105 C100 0.930 . S
H106 C101 0.930 . S
C107 O108 1.225 . S
C107 O126 1.242 1_556 S
O108 C107 1.225 . S
N109 Co99 2.128 1_655 S
N109 C110 1.355 . S
N109 C112 1.311 . S
C110 N109 1.355 . S
C110 C111 1.363 . S
C110 H122 0.929 . S
C111 C110 1.363 . S
C111 N113 1.375 . S
C111 H129 0.931 . S
C112 N109 1.311 . S
C112 N113 1.347 . S
C112 H123 0.929 . S
N113 C111 1.375 . S
N113 C112 1.347 . S
C114 C117 1.365 1_455 S
C114 N119 1.328 . S
C114 H120 0.929 . S
C115 C116 1.362 . S
C115 C118 1.378 . S
C115 H130 0.929 1_554 S
C116 C115 1.362 . S
C116 C117 1.366 . S
C117 C114 1.365 1_655 S
C117 C116 1.366 . S
C117 H131 0.930 . S
C118 C115 1.378 . S
C118 N119 1.315 1_655 S
C118 H121 0.930 . S
N119 Co99 2.194 . S
N119 C114 1.328 . S
N119 C118 1.315 1_455 S
H120 C114 0.929 . S
H121 C118 0.930 . S
H122 C110 0.929 . S
H123 C112 0.929 . S
O124 Co99 2.351 . S
O124 C127 1.244 . S
O125 Co99 2.155 . S
O125 C127 1.240 . S
O126 Co99 2.096 . S
O126 C107 1.242 1_554 S
C127 O124 1.244 . S
C127 O125 1.240 . S
H128 C102 0.931 . S
H129 C111 0.931 . S
H130 C115 0.929 1_556 S
H131 C117 0.930 . S
Co132 N136 2.148 . S
Co132 N142 2.128 1_565 S
Co132 N152 2.194 . S
Co132 O157 2.351 . S
Co132 O158 2.155 . S
Co132 O159 2.096 . S
C133 N136 1.301 . S
C133 N137 1.328 . S
C133 H138 0.930 . S
C134 C135 1.333 . S
C134 N136 1.317 . S
C134 H139 0.930 . S
C135 C134 1.333 . S
C135 N137 1.350 . S
C135 H161 0.931 . S
N136 Co132 2.148 . S
N136 C133 1.301 . S
N136 C134 1.317 . S
N137 C133 1.328 . S
N137 C135 1.350 . S
H138 C133 0.930 . S
H139 C134 0.930 . S
C140 O141 1.224 . S
C140 O159 1.247 . S
O141 C140 1.224 . S
N142 Co132 2.128 1_545 S
N142 C143 1.355 . S
N142 C145 1.311 . S
C143 N142 1.355 . S
C143 C144 1.363 . S
C143 H155 0.929 . S
C144 C143 1.363 . S
C144 N146 1.375 . S
C144 H162 0.931 . S
C145 N142 1.311 . S
C145 N146 1.347 . S
C145 H156 0.929 . S
N146 C144 1.375 . S
N146 C145 1.347 . S
C147 C150 1.365 1_565 S
C147 N152 1.328 . S
C147 H153 0.929 . S
C148 C149 1.362 . S
C148 C151 1.378 . S
C148 H163 0.929 . S
C149 C148 1.362 . S
C149 C150 1.366 . S
C150 C147 1.365 1_545 S
C150 C149 1.366 . S
C150 H164 0.930 . S
C151 C148 1.378 . S
C151 N152 1.315 1_545 S
C151 H154 0.930 . S
N152 Co132 2.194 . S
N152 C147 1.328 . S
N152 C151 1.315 1_565 S
H153 C147 0.929 . S
H154 C151 0.930 . S
H155 C143 0.929 . S
H156 C145 0.929 . S
O157 Co132 2.351 . S
O157 C160 1.244 . S
O158 Co132 2.155 . S
O158 C160 1.240 . S
O159 Co132 2.096 . S
O159 C140 1.247 . S
C160 O157 1.244 . S
C160 O158 1.240 . S
H161 C135 0.931 . S
H162 C144 0.931 . S
H163 C148 0.929 . S
H164 C150 0.930 . S
Co165 N169 2.148 . S
Co165 N175 2.128 . S
Co165 N185 2.194 . S
Co165 O190 2.351 . S
Co165 O191 2.155 . S
Co165 O192 2.096 . S
C166 N169 1.301 . S
C166 N170 1.328 . S
C166 H171 0.930 . S
C167 C168 1.333 . S
C167 N169 1.317 . S
C167 H172 0.930 . S
C168 C167 1.333 . S
C168 N170 1.350 . S
C168 H194 0.931 . S
N169 Co165 2.148 . S
N169 C166 1.301 . S
N169 C167 1.317 . S
N170 C166 1.328 . S
N170 C168 1.350 . S
H171 C166 0.930 . S
H172 C167 0.930 . S
C173 O174 1.224 . S
C173 O192 1.247 . S
O174 C173 1.224 . S
N175 Co165 2.128 . S
N175 C176 1.355 . S
N175 C178 1.311 . S
C176 N175 1.355 . S
C176 C177 1.363 . S
C176 H188 0.929 . S
C177 C176 1.363 . S
C177 N179 1.375 . S
C177 H195 0.931 . S
C178 N175 1.311 . S
C178 N179 1.347 . S
C178 H189 0.929 . S
N179 C177 1.375 . S
N179 C178 1.347 . S
C180 C183 1.365 . S
C180 N185 1.328 . S
C180 H186 0.929 . S
C181 C182 1.362 . S
C181 C184 1.378 . S
C181 H196 0.929 . S
C182 C181 1.362 . S
C182 C183 1.366 . S
C183 C180 1.365 . S
C183 C182 1.366 . S
C183 H197 0.930 . S
C184 C181 1.378 . S
C184 N185 1.315 . S
C184 H187 0.930 . S
N185 Co165 2.194 . S
N185 C180 1.328 . S
N185 C184 1.315 . S
H186 C180 0.929 . S
H187 C184 0.930 . S
H188 C176 0.929 . S
H189 C178 0.929 . S
O190 Co165 2.351 . S
O190 C193 1.244 . S
O191 Co165 2.155 . S
O191 C193 1.240 . S
O192 Co165 2.096 . S
O192 C173 1.247 . S
C193 O190 1.244 . S
C193 O191 1.240 . S
H194 C168 0.931 . S
H195 C177 0.931 . S
H196 C181 0.929 . S
H197 C183 0.930 . S
Co198 N202 2.148 . S
Co198 N208 2.128 . S
Co198 N218 2.194 . S
Co198 O223 2.351 . S
Co198 O224 2.155 . S
Co198 O225 2.096 . S
C199 N202 1.301 . S
C199 N203 1.328 . S
C199 H204 0.930 . S
C200 C201 1.333 . S
C200 N202 1.317 . S
C200 H205 0.930 . S
C201 C200 1.333 . S
C201 N203 1.350 . S
C201 H227 0.931 . S
N202 Co198 2.148 . S
N202 C199 1.301 . S
N202 C200 1.317 . S
N203 C199 1.328 . S
N203 C201 1.350 . S
H204 C199 0.930 . S
H205 C200 0.930 . S
C206 O207 1.224 . S
C206 O225 1.247 . S
O207 C206 1.224 . S
N208 Co198 2.128 . S
N208 C209 1.355 . S
N208 C211 1.311 . S
C209 N208 1.355 . S
C209 C210 1.363 . S
C209 H221 0.929 . S
C210 C209 1.363 . S
C210 N212 1.375 . S
C210 H228 0.931 . S
C211 N208 1.311 . S
C211 N212 1.347 . S
C211 H222 0.929 . S
N212 C210 1.375 . S
N212 C211 1.347 . S
C213 C216 1.365 . S
C213 N218 1.328 . S
C213 H219 0.929 . S
C214 C215 1.362 . S
C214 C217 1.378 . S
C214 H229 0.929 . S
C215 C214 1.362 . S
C215 C216 1.366 . S
C216 C213 1.365 . S
C216 C215 1.366 . S
C216 H230 0.930 . S
C217 C214 1.378 . S
C217 N218 1.315 . S
C217 H220 0.930 . S
N218 Co198 2.194 . S
N218 C213 1.328 . S
N218 C217 1.315 . S
H219 C213 0.929 . S
H220 C217 0.930 . S
H221 C209 0.929 . S
H222 C211 0.929 . S
O223 Co198 2.351 . S
O223 C226 1.244 . S
O224 Co198 2.155 . S
O224 C226 1.240 . S
O225 Co198 2.096 . S
O225 C206 1.247 . S
C226 O223 1.244 . S
C226 O224 1.240 . S
H227 C201 0.931 . S
H228 C210 0.931 . S
H229 C214 0.929 . S
H230 C216 0.930 . S
Co231 N235 2.148 . S
Co231 N241 2.128 1_655 S
Co231 N251 2.194 . S
Co231 O256 2.351 . S
Co231 O257 2.155 . S
Co231 O258 2.096 . S
C232 N235 1.301 . S
C232 N236 1.328 . S
C232 H237 0.930 . S
C233 C234 1.333 . S
C233 N235 1.317 . S
C233 H238 0.930 . S
C234 C233 1.333 . S
C234 N236 1.350 . S
C234 H260 0.931 . S
N235 Co231 2.148 . S
N235 C232 1.301 . S
N235 C233 1.317 . S
N236 C232 1.328 . S
N236 C234 1.350 . S
H237 C232 0.930 . S
H238 C233 0.930 . S
C239 O240 1.224 . S
C239 O258 1.247 . S
O240 C239 1.224 . S
N241 Co231 2.128 1_455 S
N241 C242 1.355 . S
N241 C244 1.311 . S
C242 N241 1.355 . S
C242 C243 1.363 . S
C242 H254 0.929 . S
C243 C242 1.363 . S
C243 N245 1.375 . S
C243 H261 0.931 . S
C244 N241 1.311 . S
C244 N245 1.347 . S
C244 H255 0.929 . S
N245 C243 1.375 . S
N245 C244 1.347 . S
C246 C249 1.365 1_655 S
C246 N251 1.328 . S
C246 H252 0.929 . S
C247 C248 1.362 . S
C247 C250 1.378 . S
C247 H262 0.929 . S
C248 C247 1.362 . S
C248 C249 1.366 . S
C249 C246 1.365 1_455 S
C249 C248 1.366 . S
C249 H263 0.930 . S
C250 C247 1.378 . S
C250 N251 1.315 1_455 S
C250 H253 0.930 . S
N251 Co231 2.194 . S
N251 C246 1.328 . S
N251 C250 1.315 1_655 S
H252 C246 0.929 . S
H253 C250 0.930 . S
H254 C242 0.929 . S
H255 C244 0.929 . S
O256 Co231 2.351 . S
O256 C259 1.244 . S
O257 Co231 2.155 . S
O257 C259 1.240 . S
O258 Co231 2.096 . S
O258 C239 1.247 . S
C259 O256 1.244 . S
C259 O257 1.240 . S
H260 C234 0.931 . S
H261 C243 0.931 . S
H262 C247 0.929 . S
H263 C249 0.930 . S
Co264 N268 2.148 . S
Co264 N274 2.128 1_565 S
Co264 N284 2.194 . S
Co264 O289 2.351 . S
Co264 O290 2.155 . S
Co264 O291 2.096 . S
C265 N268 1.301 . S
C265 N269 1.328 . S
C265 H270 0.930 . S
C266 C267 1.333 . S
C266 N268 1.317 . S
C266 H271 0.930 . S
C267 C266 1.333 . S
C267 N269 1.350 . S
C267 H293 0.931 . S
N268 Co264 2.148 . S
N268 C265 1.301 . S
N268 C266 1.317 . S
N269 C265 1.328 . S
N269 C267 1.350 . S
H270 C265 0.930 . S
H271 C266 0.930 . S
C272 O273 1.225 . S
C272 O291 1.242 1_554 S
O273 C272 1.225 . S
N274 Co264 2.128 1_545 S
N274 C275 1.355 . S
N274 C277 1.311 . S
C275 N274 1.355 . S
C275 C276 1.363 . S
C275 H287 0.929 . S
C276 C275 1.363 . S
C276 N278 1.375 . S
C276 H294 0.931 . S
C277 N274 1.311 . S
C277 N278 1.347 . S
C277 H288 0.929 . S
N278 C276 1.375 . S
N278 C277 1.347 . S
C279 C282 1.365 1_565 S
C279 N284 1.328 . S
C279 H285 0.929 . S
C280 C281 1.362 . S
C280 C283 1.378 . S
C280 H295 0.929 1_556 S
C281 C280 1.362 . S
C281 C282 1.366 . S
C282 C279 1.365 1_545 S
C282 C281 1.366 . S
C282 H296 0.930 . S
C283 C280 1.378 . S
C283 N284 1.315 1_545 S
C283 H286 0.930 . S
N284 Co264 2.194 . S
N284 C279 1.328 . S
N284 C283 1.315 1_565 S
H285 C279 0.929 . S
H286 C283 0.930 . S
H287 C275 0.929 . S
H288 C277 0.929 . S
O289 Co264 2.351 . S
O289 C292 1.244 . S
O290 Co264 2.155 . S
O290 C292 1.240 . S
O291 Co264 2.096 . S
O291 C272 1.242 1_556 S
C292 O289 1.244 . S
C292 O290 1.240 . S
H293 C267 0.931 . S
H294 C276 0.931 . S
H295 C280 0.929 1_554 S
H296 C282 0.930 . S
Co297 N301 2.148 . S
Co297 N307 2.128 . S
Co297 N317 2.194 . S
Co297 O322 2.351 . S
Co297 O323 2.155 . S
Co297 O324 2.096 . S
C298 N301 1.301 . S
C298 N302 1.328 . S
C298 H303 0.930 . S
C299 C300 1.333 . S
C299 N301 1.317 . S
C299 H304 0.930 . S
C300 C299 1.333 . S
C300 N302 1.350 . S
C300 H326 0.931 . S
N301 Co297 2.148 . S
N301 C298 1.301 . S
N301 C299 1.317 . S
N302 C298 1.328 . S
N302 C300 1.350 . S
H303 C298 0.930 . S
H304 C299 0.930 . S
C305 O306 1.225 . S
C305 O324 1.242 1_554 S
O306 C305 1.225 . S
N307 Co297 2.128 . S
N307 C308 1.355 . S
N307 C310 1.311 . S
C308 N307 1.355 . S
C308 C309 1.363 . S
C308 H320 0.929 . S
C309 C308 1.363 . S
C309 N311 1.375 . S
C309 H327 0.931 . S
C310 N307 1.311 . S
C310 N311 1.347 . S
C310 H321 0.929 . S
N311 C309 1.375 . S
N311 C310 1.347 . S
C312 C315 1.365 . S
C312 N317 1.328 . S
C312 H318 0.929 . S
C313 C314 1.362 . S
C313 C316 1.378 . S
C313 H328 0.929 1_556 S
C314 C313 1.362 . S
C314 C315 1.366 . S
C315 C312 1.365 . S
C315 C314 1.366 . S
C315 H329 0.930 . S
C316 C313 1.378 . S
C316 N317 1.315 . S
C316 H319 0.930 . S
N317 Co297 2.194 . S
N317 C312 1.328 . S
N317 C316 1.315 . S
H318 C312 0.929 . S
H319 C316 0.930 . S
H320 C308 0.929 . S
H321 C310 0.929 . S
O322 Co297 2.351 . S
O322 C325 1.244 . S
O323 Co297 2.155 . S
O323 C325 1.240 . S
O324 Co297 2.096 . S
O324 C305 1.242 1_556 S
C325 O322 1.244 . S
C325 O323 1.240 . S
H326 C300 0.931 . S
H327 C309 0.931 . S
H328 C313 0.929 1_554 S
H329 C315 0.930 . S
Co330 N334 2.148 . S
Co330 N340 2.128 . S
Co330 N350 2.194 . S
Co330 O355 2.351 . S
Co330 O356 2.155 . S
Co330 O357 2.096 . S
C331 N334 1.301 . S
C331 N335 1.328 . S
C331 H336 0.930 . S
C332 C333 1.333 . S
C332 N334 1.317 . S
C332 H337 0.930 . S
C333 C332 1.333 . S
C333 N335 1.350 . S
C333 H359 0.931 . S
N334 Co330 2.148 . S
N334 C331 1.301 . S
N334 C332 1.317 . S
N335 C331 1.328 . S
N335 C333 1.350 . S
H336 C331 0.930 . S
H337 C332 0.930 . S
C338 O339 1.225 . S
C338 O357 1.242 1_554 S
O339 C338 1.225 . S
N340 Co330 2.128 . S
N340 C341 1.355 . S
N340 C343 1.311 . S
C341 N340 1.355 . S
C341 C342 1.363 . S
C341 H353 0.929 . S
C342 C341 1.363 . S
C342 N344 1.375 . S
C342 H360 0.931 . S
C343 N340 1.311 . S
C343 N344 1.347 . S
C343 H354 0.929 . S
N344 C342 1.375 . S
N344 C343 1.347 . S
C345 C348 1.365 . S
C345 N350 1.328 . S
C345 H351 0.929 . S
C346 C347 1.362 . S
C346 C349 1.378 . S
C346 H361 0.929 1_556 S
C347 C346 1.362 . S
C347 C348 1.366 . S
C348 C345 1.365 . S
C348 C347 1.366 . S
C348 H362 0.930 . S
C349 C346 1.378 . S
C349 N350 1.315 . S
C349 H352 0.930 . S
N350 Co330 2.194 . S
N350 C345 1.328 . S
N350 C349 1.315 . S
H351 C345 0.929 . S
H352 C349 0.930 . S
H353 C341 0.929 . S
H354 C343 0.929 . S
O355 Co330 2.351 . S
O355 C358 1.244 . S
O356 Co330 2.155 . S
O356 C358 1.240 . S
O357 Co330 2.096 . S
O357 C338 1.242 1_556 S
C358 O355 1.244 . S
C358 O356 1.240 . S
H359 C333 0.931 . S
H360 C342 0.931 . S
H361 C346 0.929 1_554 S
H362 C348 0.930 . S
Co363 N367 2.148 . S
Co363 N373 2.128 1_655 S
Co363 N383 2.194 . S
Co363 O388 2.351 . S
Co363 O389 2.155 . S
Co363 O390 2.096 . S
C364 N367 1.301 . S
C364 N368 1.328 . S
C364 H369 0.930 . S
C365 C366 1.333 . S
C365 N367 1.317 . S
C365 H370 0.930 . S
C366 C365 1.333 . S
C366 N368 1.350 . S
C366 H392 0.931 . S
N367 Co363 2.148 . S
N367 C364 1.301 . S
N367 C365 1.317 . S
N368 C364 1.328 . S
N368 C366 1.350 . S
H369 C364 0.930 . S
H370 C365 0.930 . S
C371 O372 1.225 . S
C371 O390 1.242 1_554 S
O372 C371 1.225 . S
N373 Co363 2.128 1_455 S
N373 C374 1.355 . S
N373 C376 1.311 . S
C374 N373 1.355 . S
C374 C375 1.363 . S
C374 H386 0.929 . S
C375 C374 1.363 . S
C375 N377 1.375 . S
C375 H393 0.931 . S
C376 N373 1.311 . S
C376 N377 1.347 . S
C376 H387 0.929 . S
N377 C375 1.375 . S
N377 C376 1.347 . S
C378 C381 1.365 1_655 S
C378 N383 1.328 . S
C378 H384 0.929 . S
C379 C380 1.362 . S
C379 C382 1.378 . S
C379 H394 0.929 1_556 S
C380 C379 1.362 . S
C380 C381 1.366 . S
C381 C378 1.365 1_455 S
C381 C380 1.366 . S
C381 H395 0.930 . S
C382 C379 1.378 . S
C382 N383 1.315 1_455 S
C382 H385 0.930 . S
N383 Co363 2.194 . S
N383 C378 1.328 . S
N383 C382 1.315 1_655 S
H384 C378 0.929 . S
H385 C382 0.930 . S
H386 C374 0.929 . S
H387 C376 0.929 . S
O388 Co363 2.351 . S
O388 C391 1.244 . S
O389 Co363 2.155 . S
O389 C391 1.240 . S
O390 Co363 2.096 . S
O390 C371 1.242 1_556 S
C391 O388 1.244 . S
C391 O389 1.240 . S
H392 C366 0.931 . S
H393 C375 0.931 . S
H394 C379 0.929 1_554 S
H395 C381 0.930 . S
Co396 N400 2.148 . S
Co396 N406 2.128 1_545 S
Co396 N416 2.194 . S
Co396 O421 2.351 . S
Co396 O422 2.155 . S
Co396 O423 2.096 . S
C397 N400 1.301 . S
C397 N401 1.328 . S
C397 H402 0.930 . S
C398 C399 1.333 . S
C398 N400 1.317 . S
C398 H403 0.930 . S
C399 C398 1.333 . S
C399 N401 1.350 . S
C399 H425 0.931 . S
N400 Co396 2.148 . S
N400 C397 1.301 . S
N400 C398 1.317 . S
N401 C397 1.328 . S
N401 C399 1.350 . S
H402 C397 0.930 . S
H403 C398 0.930 . S
C404 O405 1.224 . S
C404 O423 1.247 . S
O405 C404 1.224 . S
N406 Co396 2.128 1_565 S
N406 C407 1.355 . S
N406 C409 1.311 . S
C407 N406 1.355 . S
C407 C408 1.363 . S
C407 H419 0.929 . S
C408 C407 1.363 . S
C408 N410 1.375 . S
C408 H426 0.931 . S
C409 N406 1.311 . S
C409 N410 1.347 . S
C409 H420 0.929 . S
N410 C408 1.375 . S
N410 C409 1.347 . S
C411 C414 1.365 1_545 S
C411 N416 1.328 . S
C411 H417 0.929 . S
C412 C413 1.362 . S
C412 C415 1.378 . S
C412 H427 0.929 . S
C413 C412 1.362 . S
C413 C414 1.366 . S
C414 C411 1.365 1_565 S
C414 C413 1.366 . S
C414 H428 0.930 . S
C415 C412 1.378 . S
C415 N416 1.315 1_565 S
C415 H418 0.930 . S
N416 Co396 2.194 . S
N416 C411 1.328 . S
N416 C415 1.315 1_545 S
H417 C411 0.929 . S
H418 C415 0.930 . S
H419 C407 0.929 . S
H420 C409 0.929 . S
O421 Co396 2.351 . S
O421 C424 1.244 . S
O422 Co396 2.155 . S
O422 C424 1.240 . S
O423 Co396 2.096 . S
O423 C404 1.247 . S
C424 O421 1.244 . S
C424 O422 1.240 . S
H425 C399 0.931 . S
H426 C408 0.931 . S
H427 C412 0.929 . S
H428 C414 0.930 . S
Co429 N433 2.148 . S
Co429 N439 2.128 . S
Co429 N449 2.194 . S
Co429 O454 2.351 . S
Co429 O455 2.155 . S
Co429 O456 2.096 . S
C430 N433 1.301 . S
C430 N434 1.328 . S
C430 H435 0.930 . S
C431 C432 1.333 . S
C431 N433 1.317 . S
C431 H436 0.930 . S
C432 C431 1.333 . S
C432 N434 1.350 . S
C432 H458 0.931 . S
N433 Co429 2.148 . S
N433 C430 1.301 . S
N433 C431 1.317 . S
N434 C430 1.328 . S
N434 C432 1.350 . S
H435 C430 0.930 . S
H436 C431 0.930 . S
C437 O438 1.224 . S
C437 O456 1.247 . S
O438 C437 1.224 . S
N439 Co429 2.128 . S
N439 C440 1.355 . S
N439 C442 1.311 . S
C440 N439 1.355 . S
C440 C441 1.363 . S
C440 H452 0.929 . S
C441 C440 1.363 . S
C441 N443 1.375 . S
C441 H459 0.931 . S
C442 N439 1.311 . S
C442 N443 1.347 . S
C442 H453 0.929 . S
N443 C441 1.375 . S
N443 C442 1.347 . S
C444 C447 1.365 . S
C444 N449 1.328 . S
C444 H450 0.929 . S
C445 C446 1.362 . S
C445 C448 1.378 . S
C445 H460 0.929 . S
C446 C445 1.362 . S
C446 C447 1.366 . S
C447 C444 1.365 . S
C447 C446 1.366 . S
C447 H461 0.930 . S
C448 C445 1.378 . S
C448 N449 1.315 . S
C448 H451 0.930 . S
N449 Co429 2.194 . S
N449 C444 1.328 . S
N449 C448 1.315 . S
H450 C444 0.929 . S
H451 C448 0.930 . S
H452 C440 0.929 . S
H453 C442 0.929 . S
O454 Co429 2.351 . S
O454 C457 1.244 . S
O455 Co429 2.155 . S
O455 C457 1.240 . S
O456 Co429 2.096 . S
O456 C437 1.247 . S
C457 O454 1.244 . S
C457 O455 1.240 . S
H458 C432 0.931 . S
H459 C441 0.931 . S
H460 C445 0.929 . S
H461 C447 0.930 . S
Co462 N466 2.148 . S
Co462 N472 2.128 . S
Co462 N482 2.194 . S
Co462 O487 2.351 . S
Co462 O488 2.155 . S
Co462 O489 2.096 . S
C463 N466 1.301 . S
C463 N467 1.328 . S
C463 H468 0.930 . S
C464 C465 1.333 . S
C464 N466 1.317 . S
C464 H469 0.930 . S
C465 C464 1.333 . S
C465 N467 1.350 . S
C465 H491 0.931 . S
N466 Co462 2.148 . S
N466 C463 1.301 . S
N466 C464 1.317 . S
N467 C463 1.328 . S
N467 C465 1.350 . S
H468 C463 0.930 . S
H469 C464 0.930 . S
C470 O471 1.224 . S
C470 O489 1.247 . S
O471 C470 1.224 . S
N472 Co462 2.128 . S
N472 C473 1.355 . S
N472 C475 1.311 . S
C473 N472 1.355 . S
C473 C474 1.363 . S
C473 H485 0.929 . S
C474 C473 1.363 . S
C474 N476 1.375 . S
C474 H492 0.931 . S
C475 N472 1.311 . S
C475 N476 1.347 . S
C475 H486 0.929 . S
N476 C474 1.375 . S
N476 C475 1.347 . S
C477 C480 1.365 . S
C477 N482 1.328 . S
C477 H483 0.929 . S
C478 C479 1.362 . S
C478 C481 1.378 . S
C478 H493 0.929 . S
C479 C478 1.362 . S
C479 C480 1.366 . S
C480 C477 1.365 . S
C480 C479 1.366 . S
C480 H494 0.930 . S
C481 C478 1.378 . S
C481 N482 1.315 . S
C481 H484 0.930 . S
N482 Co462 2.194 . S
N482 C477 1.328 . S
N482 C481 1.315 . S
H483 C477 0.929 . S
H484 C481 0.930 . S
H485 C473 0.929 . S
H486 C475 0.929 . S
O487 Co462 2.351 . S
O487 C490 1.244 . S
O488 Co462 2.155 . S
O488 C490 1.240 . S
O489 Co462 2.096 . S
O489 C470 1.247 . S
C490 O487 1.244 . S
C490 O488 1.240 . S
H491 C465 0.931 . S
H492 C474 0.931 . S
H493 C478 0.929 . S
H494 C480 0.930 . S
Co495 N499 2.148 . S
Co495 N505 2.128 1_455 S
Co495 N515 2.194 . S
Co495 O520 2.351 . S
Co495 O521 2.155 . S
Co495 O522 2.096 . S
C496 N499 1.301 . S
C496 N500 1.328 . S
C496 H501 0.930 . S
C497 C498 1.333 . S
C497 N499 1.317 . S
C497 H502 0.930 . S
C498 C497 1.333 . S
C498 N500 1.350 . S
C498 H524 0.931 . S
N499 Co495 2.148 . S
N499 C496 1.301 . S
N499 C497 1.317 . S
N500 C496 1.328 . S
N500 C498 1.350 . S
H501 C496 0.930 . S
H502 C497 0.930 . S
C503 O504 1.224 . S
C503 O522 1.247 . S
O504 C503 1.224 . S
N505 Co495 2.128 1_655 S
N505 C506 1.355 . S
N505 C508 1.311 . S
C506 N505 1.355 . S
C506 C507 1.363 . S
C506 H518 0.929 . S
C507 C506 1.363 . S
C507 N509 1.375 . S
C507 H525 0.931 . S
C508 N505 1.311 . S
C508 N509 1.347 . S
C508 H519 0.929 . S
N509 C507 1.375 . S
N509 C508 1.347 . S
C510 C513 1.365 1_455 S
C510 N515 1.328 . S
C510 H516 0.929 . S
C511 C512 1.362 . S
C511 C514 1.378 . S
C511 H526 0.929 . S
C512 C511 1.362 . S
C512 C513 1.366 . S
C513 C510 1.365 1_655 S
C513 C512 1.366 . S
C513 H527 0.930 . S
C514 C511 1.378 . S
C514 N515 1.315 1_655 S
C514 H517 0.930 . S
N515 Co495 2.194 . S
N515 C510 1.328 . S
N515 C514 1.315 1_455 S
H516 C510 0.929 . S
H517 C514 0.930 . S
H518 C506 0.929 . S
H519 C508 0.929 . S
O520 Co495 2.351 . S
O520 C523 1.244 . S
O521 Co495 2.155 . S
O521 C523 1.240 . S
O522 Co495 2.096 . S
O522 C503 1.247 . S
C523 O520 1.244 . S
C523 O521 1.240 . S
H524 C498 0.931 . S
H525 C507 0.931 . S
H526 C511 0.929 . S
H527 C513 0.930 . S
N14 C50 1.397 . S
C83 N47 1.397 . S
C116 N80 1.397 . S
N113 C17 1.397 . S
C248 N146 1.397 . S
C149 N179 1.397 . S
C182 N212 1.397 . S
N245 C215 1.397 . S
N278 C314 1.397 . S
N311 C347 1.397 . S
C380 N344 1.397 . S
C281 N377 1.397 . S
C512 N410 1.397 . S
C413 N443 1.397 . S
N476 C446 1.397 . S
N509 C479 1.397 . S
N5 N71 2.685 . S
N38 N104 2.685 . S
N203 N137 2.685 . S
N236 N170 2.685 . S
N335 N269 2.685 . S
N302 N368 2.685 . S
N401 N467 2.685 . S
N434 N500 2.685 . S
C8 C272 2.612 1_546 S
C41 C305 2.612 1_556 S
C74 C338 2.612 1_656 S
C371 C107 2.612 1_644 S
C404 C140 2.612 1_645 S
C173 C437 2.612 1_545 S
C206 C470 2.612 . S
C503 C239 2.612 1_455 S
C193 C28 1.681 . S
C226 C61 1.681 . S
C94 C259 1.681 . S
C160 C127 1.681 . S
C292 C457 1.681 . S
C490 C325 1.681 . S
C523 C358 1.681 . S
C391 C424 1.681 . S
