# Generated by pormake.
# Topology wku, (7)-cn, num edge types: 1
# Building blocks:
#     Node 0, Type 0, BuildingBlock: OLANEW_clean_sbu_3, # of connection points: 7
#     Node 1, Type 0, BuildingBlock: OLANEW_clean_sbu_3, # of connection points: 7
#     Node 2, Type 0, BuildingBlock: OLANEW_clean_sbu_3, # of connection points: 7
#     Node 3, Type 0, BuildingBlock: OLANEW_clean_sbu_3, # of connection points: 7
#     Node 4, Type 0, BuildingBlock: OLANEW_clean_sbu_3, # of connection points: 7
#     Node 5, Type 0, BuildingBlock: OLANEW_clean_sbu_3, # of connection points: 7
#     Node 6, Type 0, BuildingBlock: OLANEW_clean_sbu_3, # of connection points: 7
#     Node 7, Type 0, BuildingBlock: OLANEW_clean_sbu_3, # of connection points: 7
#     Node 8, Type 0, BuildingBlock: OLANEW_clean_sbu_3, # of connection points: 7
#     Node 9, Type 0, BuildingBlock: OLANEW_clean_sbu_3, # of connection points: 7
#     Node 10, Type 0, BuildingBlock: OLANEW_clean_sbu_3, # of connection points: 7
#     Node 11, Type 0, BuildingBlock: OLANEW_clean_sbu_3, # of connection points: 7
#     Edge 12, Type (0, 0), BuildingBlock: UVAHIK_clean_linker_0, # of connection points: 2
#     Edge 13, Type (0, 0), BuildingBlock: UVAHIK_clean_linker_0, # of connection points: 2
#     Edge 14, Type (0, 0), BuildingBlock: UVAHIK_clean_linker_0, # of connection points: 2
#     Edge 15, Type (0, 0), BuildingBlock: UVAHIK_clean_linker_0, # of connection points: 2
#     Edge 16, Type (0, 0), BuildingBlock: UVAHIK_clean_linker_0, # of connection points: 2
#     Edge 17, Type (0, 0), BuildingBlock: UVAHIK_clean_linker_0, # of connection points: 2
#     Edge 18, Type (0, 0), BuildingBlock: UVAHIK_clean_linker_0, # of connection points: 2
#     Edge 19, Type (0, 0), BuildingBlock: UVAHIK_clean_linker_0, # of connection points: 2
#     Edge 20, Type (0, 0), BuildingBlock: UVAHIK_clean_linker_0, # of connection points: 2
#     Edge 21, Type (0, 0), BuildingBlock: UVAHIK_clean_linker_0, # of connection points: 2
#     Edge 22, Type (0, 0), BuildingBlock: UVAHIK_clean_linker_0, # of connection points: 2
#     Edge 23, Type (0, 0), BuildingBlock: UVAHIK_clean_linker_0, # of connection points: 2
#     Edge 24, Type (0, 0), BuildingBlock: UVAHIK_clean_linker_0, # of connection points: 2
#     Edge 25, Type (0, 0), BuildingBlock: UVAHIK_clean_linker_0, # of connection points: 2
#     Edge 26, Type (0, 0), BuildingBlock: UVAHIK_clean_linker_0, # of connection points: 2
#     Edge 27, Type (0, 0), BuildingBlock: UVAHIK_clean_linker_0, # of connection points: 2
#     Edge 28, Type (0, 0), BuildingBlock: UVAHIK_clean_linker_0, # of connection points: 2
#     Edge 29, Type (0, 0), BuildingBlock: UVAHIK_clean_linker_0, # of connection points: 2
#     Edge 30, Type (0, 0), BuildingBlock: UVAHIK_clean_linker_0, # of connection points: 2
#     Edge 31, Type (0, 0), BuildingBlock: UVAHIK_clean_linker_0, # of connection points: 2
#     Edge 32, Type (0, 0), BuildingBlock: UVAHIK_clean_linker_0, # of connection points: 2
#     Edge 33, Type (0, 0), BuildingBlock: UVAHIK_clean_linker_0, # of connection points: 2
#     Edge 34, Type (0, 0), BuildingBlock: UVAHIK_clean_linker_0, # of connection points: 2
#     Edge 35, Type (0, 0), BuildingBlock: UVAHIK_clean_linker_0, # of connection points: 2
#     Edge 36, Type (0, 0), BuildingBlock: UVAHIK_clean_linker_0, # of connection points: 2
#     Edge 37, Type (0, 0), BuildingBlock: UVAHIK_clean_linker_0, # of connection points: 2
#     Edge 38, Type (0, 0), BuildingBlock: UVAHIK_clean_linker_0, # of connection points: 2
#     Edge 39, Type (0, 0), BuildingBlock: UVAHIK_clean_linker_0, # of connection points: 2
#     Edge 40, Type (0, 0), BuildingBlock: UVAHIK_clean_linker_0, # of connection points: 2
#     Edge 41, Type (0, 0), BuildingBlock: UVAHIK_clean_linker_0, # of connection points: 2
#     Edge 42, Type (0, 0), BuildingBlock: UVAHIK_clean_linker_0, # of connection points: 2
#     Edge 43, Type (0, 0), BuildingBlock: UVAHIK_clean_linker_0, # of connection points: 2
#     Edge 44, Type (0, 0), BuildingBlock: UVAHIK_clean_linker_0, # of connection points: 2
#     Edge 45, Type (0, 0), BuildingBlock: UVAHIK_clean_linker_0, # of connection points: 2
#     Edge 46, Type (0, 0), BuildingBlock: UVAHIK_clean_linker_0, # of connection points: 2
#     Edge 47, Type (0, 0), BuildingBlock: UVAHIK_clean_linker_0, # of connection points: 2
#     Edge 48, Type (0, 0), BuildingBlock: UVAHIK_clean_linker_0, # of connection points: 2
#     Edge 49, Type (0, 0), BuildingBlock: UVAHIK_clean_linker_0, # of connection points: 2
#     Edge 50, Type (0, 0), BuildingBlock: UVAHIK_clean_linker_0, # of connection points: 2
#     Edge 51, Type (0, 0), BuildingBlock: UVAHIK_clean_linker_0, # of connection points: 2
#     Edge 52, Type (0, 0), BuildingBlock: UVAHIK_clean_linker_0, # of connection points: 2
#     Edge 53, Type (0, 0), BuildingBlock: UVAHIK_clean_linker_0, # of connection points: 2
# Relax obj value: 0.108
# Max RMSD: 0.198
# Mean RMSD: 0.197
data_MOF--net-wku--node1-OLANEW_clean_sbu_3--edge1-UVAHIK_clean_linker_0
_symmetry_space_group_name_H-M    P1
_symmetry_Int_Tables_number       1
_symmetry_cell_setting            triclinic
loop_
_symmetry_equiv_pos_as_xyz
'x, y, z'
_cell_length_a     37.855806
_cell_length_b     37.840742
_cell_length_c     148.10028
_cell_angle_alpha  89.968062
_cell_angle_beta   89.940545
_cell_angle_gamma 119.98897
loop_
_atom_site_label
_atom_site_type_symbol
_atom_site_fract_x
_atom_site_fract_y
_atom_site_fract_z
_atom_type_partial_charge
C0 C 0.26692 0.34535 0.05837 0.0
C1 C 0.23119 0.31117 0.05533 0.0
C2 C 0.23501 0.28368 0.04949 0.0
C3 C 0.27389 0.29045 0.0469 0.0
C4 C 0.30825 0.32523 0.05021 0.0
N5 N 0.30269 0.35038 0.0556 0.0
C6 C 0.3516 0.33817 0.04873 0.0
C7 C 0.42257 0.39402 0.05178 0.0
C8 C 0.44293 0.37205 0.05341 0.0
C9 C 0.48538 0.39118 0.05274 0.0
C10 C 0.50796 0.43209 0.05019 0.0
C11 C 0.48795 0.45345 0.048 0.0
C12 C 0.44552 0.43442 0.0487 0.0
Cd13 Cd 0.36954 0.29898 0.02826 0.0
Cd14 Cd 0.329 0.29886 0.01449 0.0
C15 C 0.31962 0.43125 0.07495 0.0
C16 C 0.34152 0.4987 0.08113 0.0
C17 C 0.33273 0.48206 0.08982 0.0
C18 C 0.31501 0.44005 0.0912 0.0
C19 C 0.30893 0.41464 0.08373 0.0
C20 C 0.33445 0.47323 0.07366 0.0
Co21 Co 0.34845 0.394 0.06044 0.0
N22 N 0.35149 0.36325 0.07058 0.0
N23 N 0.3938 0.43806 0.06531 0.0
C24 C 0.40557 0.43194 0.07335 0.0
C25 C 0.43548 0.46569 0.07808 0.0
C26 C 0.4505 0.50481 0.07418 0.0
C27 C 0.43493 0.50952 0.06587 0.0
C28 C 0.40511 0.47433 0.06155 0.0
N29 N 0.35144 0.43212 0.05137 0.0
N30 N 0.37888 0.37499 0.05278 0.0
N31 N 0.31051 0.40456 0.06729 0.0
O32 O 0.37684 0.3098 1.0032 0.0
O33 O 0.38182 0.27051 1.01343 0.0
C34 C 0.45371 0.34965 0.02967 0.0
O35 O 0.4318 0.35824 0.02464 0.0
O36 O 0.4363 0.31585 0.03394 0.0
C37 C 0.29047 0.20612 0.02269 0.0
O38 O 0.31967 0.22362 0.02835 0.0
O39 O 0.28499 0.22736 0.0168 0.0
C40 C 0.38202 0.38912 0.0763 0.0
O41 O 0.39226 0.37579 0.08347 0.0
O42 O 0.3386 0.34147 0.02717 0.0
O43 O 0.30211 0.34386 0.01597 0.0
C44 C 0.38092 0.47097 0.05348 0.0
O45 O 0.38878 0.50243 0.04835 0.0
C46 C 0.32839 0.42135 0.04325 0.0
C47 C 0.3385 0.40306 0.03644 0.0
C48 C 0.31258 0.38521 0.02908 0.0
C49 C 0.27938 0.39124 0.02788 0.0
C50 C 0.27075 0.41298 0.03441 0.0
C51 C 0.29454 0.42639 0.04232 0.0
C52 C 0.38652 0.28325 1.00526 0.0
O53 O 0.36267 0.31249 0.0448 0.0
C54 C 0.3184 0.35632 0.02364 0.0
C55 C 0.33811 0.3206 0.07023 0.0
C56 C 0.29693 0.29114 0.07094 0.0
C57 C 0.28503 0.25001 0.07002 0.0
C58 C 0.31413 0.23813 0.06855 0.0
C59 C 0.35621 0.26747 0.06807 0.0
C60 C 0.36708 0.30869 0.06888 0.0
C61 C 0.27129 0.37625 0.06501 0.0
O62 O 0.23958 0.37491 0.06899 0.0
H63 H 0.20146 0.30547 0.05748 0.0
H64 H 0.2079 0.25689 0.04707 0.0
H65 H 0.27686 0.26916 0.04253 0.0
H66 H 0.42635 0.34008 0.05513 0.0
H67 H 0.5408 0.44686 0.04966 0.0
H68 H 0.43089 0.45098 0.0465 0.0
H69 H 0.3363 0.50175 0.09549 0.0
H70 H 0.2948 0.38195 0.08468 0.0
H71 H 0.33899 0.4857 0.06691 0.0
H72 H 0.44609 0.46221 0.08462 0.0
H73 H 0.47326 0.53151 0.07773 0.0
H74 H 0.44502 0.53953 0.06308 0.0
H75 H 0.36568 0.40073 0.03718 0.0
H76 H 0.26075 0.37925 0.02189 0.0
H77 H 0.28716 0.44097 0.04771 0.0
H78 H 0.27418 0.29981 0.07222 0.0
H79 H 0.30305 0.20579 0.06824 0.0
H80 H 0.39823 0.33282 0.06866 0.0
C81 C 0.90948 0.27535 0.22352 0.0
C82 C 0.90686 0.23978 0.22001 0.0
C83 C 0.93882 0.24382 0.21433 0.0
C84 C 0.97263 0.2827 0.21237 0.0
C85 C 0.97328 0.31688 0.21615 0.0
N86 N 0.94178 0.3111 0.2213 0.0
C87 C 0.00472 0.36036 0.2152 0.0
C88 C 0.01639 0.43055 0.21802 0.0
C89 C 0.0523 0.45608 0.22275 0.0
C90 C 0.07181 0.49842 0.22169 0.0
C91 C 0.05549 0.51569 0.21591 0.0
C92 C 0.01977 0.49059 0.21116 0.0
C93 C 0.00048 0.44825 0.21213 0.0
Cd94 Cd 0.05594 0.37289 0.19434 0.0
Cd95 Cd 0.0069 0.31105 0.18027 0.0
C96 C 0.87675 0.32672 0.24071 0.0
C97 C 0.83316 0.35146 0.24683 0.0
C98 C 0.83577 0.33705 0.25533 0.0
C99 C 0.85581 0.31489 0.25657 0.0
C100 C 0.87752 0.31085 0.24931 0.0
C101 C 0.85307 0.34565 0.23945 0.0
Co102 Co 0.94514 0.35638 0.22667 0.0
N103 N 0.97747 0.35562 0.23683 0.0
N104 N 0.9482 0.40154 0.23201 0.0
C105 C 0.96634 0.41182 0.24004 0.0
C106 C 0.96611 0.44375 0.24476 0.0
C107 C 0.94563 0.46261 0.2408 0.0
C108 C 0.92568 0.44918 0.23238 0.0
C109 C 0.92742 0.41724 0.22805 0.0
N110 N 0.91252 0.36352 0.21752 0.0
N111 N -0.00485 0.38714 0.21946 0.0
N112 N 0.89515 0.31834 0.23306 0.0
O113 O 0.04577 0.36036 0.16921 0.0
O114 O 0.09463 0.38614 0.17938 0.0
C115 C 0.08375 0.45625 0.19485 0.0
O116 O 0.05258 0.43158 0.19031 0.0
O117 O 0.10333 0.442 0.19904 0.0
C118 C 0.07233 0.29209 0.19146 0.0
O119 O 0.08569 0.32687 0.19522 0.0
O120 O 0.04149 0.27784 0.18628 0.0
C121 C -0.01653 0.38597 0.24277 0.0
O122 O 0.00621 0.39388 0.25002 0.0
O123 O -0.01718 0.33694 0.19264 0.0
O124 O 0.93769 0.29144 0.18357 0.0
C125 C 0.90689 0.39546 0.2197 0.0
O126 O 0.88589 0.40664 0.21457 0.0
C127 C 0.8978 0.34009 0.20943 0.0
C128 C 0.92577 0.34306 0.20297 0.0
C129 C 0.91413 0.3151 0.1959 0.0
C130 C 0.87297 0.28683 0.19469 0.0
C131 C 0.84396 0.28629 0.20065 0.0
C132 C 0.85628 0.31231 0.20818 0.0
C133 C 0.08333 0.38172 0.17112 0.0
O134 O 0.04108 0.37186 0.21108 0.0
C135 C 0.94591 0.31472 0.19031 0.0
C136 C 0.0045 0.33921 0.23636 0.0
C137 C -0.01053 0.29715 0.23584 0.0
C138 C 0.01573 0.28245 0.23367 0.0
C139 C 0.05736 0.30946 0.23234 0.0
C140 C 0.07358 0.35167 0.23358 0.0
C141 C 0.04651 0.36581 0.23568 0.0
C142 C 0.88281 0.2794 0.23021 0.0
O143 O 0.85077 0.24743 0.23367 0.0
H144 H 0.8816 0.20997 0.22171 0.0
H145 H 0.93765 0.21681 0.21156 0.0
H146 H -0.00275 0.28579 0.2081 0.0
H147 H 0.06498 0.44355 0.22734 0.0
H148 H 0.07053 0.54845 0.2151 0.0
H149 H 0.97314 0.42976 0.2083 0.0
H150 H 0.81873 0.3399 0.26092 0.0
H151 H 0.89291 0.29344 0.25018 0.0
H152 H 0.84867 0.35414 0.23275 0.0
H153 H 0.98061 0.45343 0.25129 0.0
H154 H 0.94464 0.48713 0.24433 0.0
H155 H 0.90903 0.46276 0.22947 0.0
H156 H 0.95717 0.36647 0.20364 0.0
H157 H 0.86331 0.26579 0.18904 0.0
H158 H 0.83402 0.3108 0.213 0.0
H159 H 0.95749 0.27579 0.23691 0.0
H160 H 0.07683 0.29705 0.23068 0.0
H161 H 0.05792 0.3976 0.23712 0.0
C162 C 0.62197 0.91303 0.39082 0.0
C163 C 0.6561 0.91121 0.38782 0.0
C164 C 0.68467 0.94324 0.38226 0.0
C165 C 0.67904 0.97634 0.37993 0.0
C166 C 0.64428 0.97616 0.38319 0.0
N167 N 0.61795 0.94463 0.38826 0.0
C168 C 0.63196 0.0071 0.38182 0.0
C169 C 0.57538 0.02152 0.38424 0.0
C170 C 0.59666 0.06373 0.386 0.0
C171 C 0.57815 0.08724 0.38455 0.0
C172 C 0.53859 0.0692 0.38113 0.0
C173 C 0.51794 0.02784 0.37893 0.0
C174 C 0.53631 0.00422 0.38041 0.0
Cd175 Cd 0.67532 0.06059 0.36133 0.0
Cd176 Cd 0.67877 0.01975 0.34731 0.0
C177 C 0.5369 0.88073 0.40753 0.0
C178 C 0.47017 0.83737 0.41434 0.0
C179 C 0.48843 0.84471 0.42284 0.0
C180 C 0.53074 0.86749 0.42379 0.0
C181 C 0.555 0.88592 0.41612 0.0
C182 C 0.49442 0.85505 0.40664 0.0
Co183 Co 0.57413 0.94681 0.393 0.0
N184 N 0.60422 0.97939 0.40332 0.0
N185 N 0.52994 0.94827 0.39779 0.0
C186 C 0.53544 0.96483 0.40598 0.0
C187 C 0.50143 0.96049 0.41069 0.0
C188 C 0.46264 0.93726 0.40664 0.0
C189 C 0.45847 0.91818 0.39819 0.0
C190 C 0.49391 0.92396 0.39389 0.0
N191 N 0.5364 0.91269 0.3837 0.0
N192 N 0.59449 -0.00284 0.38559 0.0
N193 N 0.56236 0.89735 0.39964 0.0
O194 O 0.67096 0.06283 0.33692 0.0
O195 O 0.71117 0.10476 0.34739 0.0
C196 C 0.62019 0.08734 0.3587 0.0
O197 O 0.62006 0.05923 0.35396 0.0
O198 O 0.64738 0.10407 0.36482 0.0
C199 C 0.76874 0.07407 0.35688 0.0
O200 O 0.74987 0.08635 0.36199 0.0
O201 O 0.7492 0.04666 0.351 0.0
C202 C 0.57783 0.98305 0.40909 0.0
O203 O 0.59049 0.00514 0.41649 0.0
O204 O 0.63448 0.98819 0.36008 0.0
O205 O 0.63107 0.94817 0.34907 0.0
C206 C 0.49754 0.90349 0.38578 0.0
O207 O 0.46624 0.88025 0.38059 0.0
C208 C 0.5472 0.89961 0.37568 0.0
C209 C 0.57039 0.92859 0.36926 0.0
C210 C 0.58827 0.91913 0.3621 0.0
C211 C 0.57841 0.87883 0.36075 0.0
C212 C 0.55145 0.84839 0.36672 0.0
C213 C 0.5365 0.85888 0.37434 0.0
C214 C 0.69836 0.09834 0.33923 0.0
O215 O 0.65789 0.04394 0.37794 0.0
C216 C 0.61925 0.95283 0.35675 0.0
C217 C 0.64666 0.00944 0.40317 0.0
C218 C 0.67696 -0.00123 0.40389 0.0
C219 C 0.71797 0.02931 0.40388 0.0
C220 C 0.72878 0.07046 0.40336 0.0
C221 C 0.69839 0.0816 0.40287 0.0
C222 C 0.6576 0.05039 0.40249 0.0
C223 C 0.5902 0.88591 0.39724 0.0
O224 O 0.59082 0.85488 0.40109 0.0
H225 H 0.66095 0.88643 0.3898 0.0
H226 H 0.71139 0.94267 0.37986 0.0
H227 H 0.70108 0.00108 0.37575 0.0
H228 H 0.62775 0.07889 0.38837 0.0
H229 H 0.52432 0.08745 0.37999 0.0
H230 H 0.52052 0.97304 0.37818 0.0
H231 H 0.4697 0.82931 0.4287 0.0
H232 H 0.58791 0.90316 0.41677 0.0
H233 H 0.48061 0.84757 0.40002 0.0
H234 H 0.50448 0.97348 0.41735 0.0
H235 H 0.43573 0.93292 0.41019 0.0
H236 H 0.42864 0.89868 0.3953 0.0
H237 H 0.57546 0.95916 0.37004 0.0
H238 H 0.5909 0.87103 0.35499 0.0
H239 H 0.51681 0.83575 0.37915 0.0
H240 H 0.66902 0.96721 0.40458 0.0
H241 H 0.76075 0.09319 0.40383 0.0
H242 H 0.63334 0.05738 0.402 0.0
C243 C 0.69666 0.62617 0.55662 0.0
C244 C 0.73224 0.65892 0.55304 0.0
C245 C 0.7283 0.68687 0.54737 0.0
C246 C 0.68948 0.68193 0.54544 0.0
C247 C 0.65528 0.64851 0.54925 0.0
N248 N 0.66096 0.62301 0.5545 0.0
C249 C 0.61197 0.63681 0.54833 0.0
C250 C 0.54133 0.58199 0.55209 0.0
C251 C 0.52269 0.60446 0.55464 0.0
C252 C 0.48022 0.58637 0.55472 0.0
C253 C 0.45598 0.54581 0.55205 0.0
C254 C 0.47427 0.52388 0.54899 0.0
C255 C 0.51674 0.54202 0.54891 0.0
Cd256 Cd 0.58831 0.67717 0.52855 0.0
Cd257 Cd 0.63968 0.68838 0.51597 0.0
C258 C 0.64613 0.5439 0.57414 0.0
C259 C 0.62079 0.47743 0.58138 0.0
C260 C 0.63631 0.49699 0.58961 0.0
C261 C 0.65886 0.53942 0.59018 0.0
C262 C 0.66297 0.56298 0.58249 0.0
C263 C 0.62651 0.50093 0.57357 0.0
Co264 Co 0.61559 0.58026 0.55969 0.0
N265 N 0.61445 0.61188 0.56999 0.0
N266 N 0.57051 0.53687 0.56483 0.0
C267 C 0.56024 0.54331 0.57302 0.0
C268 C 0.53015 0.50995 0.57784 0.0
C269 C 0.51324 0.47083 0.57386 0.0
C270 C 0.52717 0.46569 0.56536 0.0
C271 C 0.55738 0.50049 0.56096 0.0
N272 N 0.61034 0.54144 0.55044 0.0
N273 N 0.58497 0.60006 0.55246 0.0
N274 N 0.65381 0.56854 0.56612 0.0
O275 O 0.59887 0.67766 0.50328 0.0
O276 O 0.57376 0.70153 0.51337 0.0
C277 C 0.50493 0.62638 0.5313 0.0
O278 O 0.52542 0.61757 0.52589 0.0
O279 O 0.52329 0.66064 0.53535 0.0
C280 C 0.6652 0.77527 0.52484 0.0
O281 O 0.63187 0.75333 0.5291 0.0
O282 O 0.6792 0.75899 0.51952 0.0
C283 C 0.58502 0.58601 0.57595 0.0
O284 O 0.57725 0.59913 0.5835 0.0
O285 O 0.61955 0.63496 0.52698 0.0
O286 O 0.66647 0.6439 0.51712 0.0
C287 C 0.58008 0.50306 0.55267 0.0
O288 O 0.56993 0.47143 0.54741 0.0
C289 C 0.63095 0.55158 0.54194 0.0
C290 C 0.62133 0.57273 0.53571 0.0
C291 C 0.64658 0.59161 0.52828 0.0
C292 C 0.67722 0.5828 0.52621 0.0
C293 C 0.68349 0.55647 0.53179 0.0
C294 C 0.6617 0.54244 0.53995 0.0
C295 C 0.5781 0.69451 0.5051 0.0
O296 O 0.60087 0.66313 0.54474 0.0
C297 C 0.64318 0.6238 0.52359 0.0
C298 C 0.62812 0.65487 0.5698 0.0
C299 C 0.66951 0.68394 0.56899 0.0
C300 C 0.68158 0.72507 0.56786 0.0
C301 C 0.6527 0.73779 0.56792 0.0
C302 C 0.61117 0.70952 0.56948 0.0
C303 C 0.59946 0.66801 0.57029 0.0
C304 C 0.69268 0.59519 0.56322 0.0
O305 O 0.72475 0.59538 0.56668 0.0
H306 H 0.762 0.66319 0.55467 0.0
H307 H 0.75531 0.71254 0.54454 0.0
H308 H 0.68644 0.7034 0.54114 0.0
H309 H 0.54111 0.63603 0.55648 0.0
H310 H 0.42312 0.53177 0.5521 0.0
H311 H 0.53008 0.5251 0.54614 0.0
H312 H 0.63388 0.4789 0.59553 0.0
H313 H 0.68081 0.59596 0.58288 0.0
H314 H 0.61716 0.48596 0.56709 0.0
H315 H 0.52066 0.51371 0.58449 0.0
H316 H 0.49023 0.44443 0.57746 0.0
H317 H 0.51558 0.43561 0.56248 0.0
H318 H 0.59531 0.57646 0.53698 0.0
H319 H 0.69615 0.59625 0.52028 0.0
H320 H 0.66783 0.52399 0.54458 0.0
H321 H 0.69245 0.67498 0.56918 0.0
H322 H 0.66331 0.76992 0.567 0.0
H323 H 0.56799 0.6454 0.57155 0.0
C324 C 0.05526 0.7043 0.72429 0.0
C325 C 0.05753 0.74014 0.72105 0.0
C326 C 0.02614 0.73648 0.71525 0.0
C327 C -0.00685 0.69767 0.71292 0.0
C328 C -0.00714 0.6632 0.71643 0.0
N329 N 0.02386 0.66865 0.72169 0.0
C330 C 0.96221 0.61974 0.7151 0.0
C331 C 0.95114 0.54963 0.71711 0.0
C332 C 0.91091 0.52488 0.72004 0.0
C333 C 0.88992 0.48304 0.71824 0.0
C334 C 0.9089 0.4656 0.71335 0.0
C335 C 0.94856 0.49017 0.71014 0.0
C336 C 0.96954 0.532 0.71197 0.0
Cd337 Cd 0.91088 0.6092 0.69462 0.0
Cd338 Cd 0.95597 0.66704 0.68128 0.0
C339 C 0.08705 0.65111 0.74117 0.0
C340 C 0.1324 0.62865 0.74727 0.0
C341 C 0.12536 0.63816 0.75595 0.0
C342 C 0.10138 0.65621 0.7574 0.0
C343 C 0.0818 0.66225 0.74997 0.0
C344 C 0.11368 0.63562 0.73984 0.0
Co345 Co 0.02102 0.62279 0.72664 0.0
N346 N -0.01375 0.61997 0.73666 0.0
N347 N 0.01871 0.57717 0.73158 0.0
C348 C -0.0001 0.5652 0.73954 0.0
C349 C 0.00222 0.53428 0.74422 0.0
C350 C 0.02556 0.51833 0.74036 0.0
C351 C 0.0464 0.53376 0.73208 0.0
C352 C 0.04252 0.56458 0.72778 0.0
N353 N 0.05625 0.61924 0.71761 0.0
N354 N 0.97243 0.5927 0.71897 0.0
N355 N 0.0694 0.66039 0.73354 0.0
O356 O 0.91651 0.61832 0.67006 0.0
O357 O 0.86882 0.59966 0.68044 0.0
C358 C 0.88769 0.52747 0.69278 0.0
O359 O 0.91533 0.55529 0.68791 0.0
O360 O 0.86939 0.53787 0.69851 0.0
C361 C 0.89191 0.68773 0.69201 0.0
O362 O 0.8791 0.65293 0.69571 0.0
O363 O 0.92301 0.70281 0.68688 0.0
C364 C 0.98074 0.58906 0.74238 0.0
O365 O 0.95711 0.57919 0.74954 0.0
O366 O -0.01617 0.64492 0.69347 0.0
O367 O 0.02683 0.69018 0.684 0.0
C368 C 0.06408 0.58865 0.71972 0.0
O369 O 0.08743 0.58016 0.71467 0.0
C370 C 0.0706 0.6438 0.70966 0.0
C371 C 0.04252 0.63971 0.70315 0.0
C372 C 0.05294 0.66893 0.69635 0.0
C373 C 0.09347 0.6995 0.69538 0.0
C374 C 0.12314 0.7012 0.70134 0.0
C375 C 0.11148 0.674 0.70868 0.0
C376 C 0.87905 0.60101 0.67217 0.0
O377 O 0.92544 0.60822 0.71119 0.0
C378 C 0.02019 0.66797 0.6909 0.0
C379 C 0.95791 0.63478 0.73623 0.0
C380 C 0.97155 0.6766 0.73601 0.0
C381 C 0.94452 0.69025 0.73382 0.0
C382 C 0.90331 0.66236 0.73231 0.0
C383 C 0.88804 0.62017 0.73344 0.0
C384 C 0.91616 0.60702 0.73533 0.0
C385 C 0.0813 0.69967 0.73104 0.0
O386 O 0.11218 0.73129 0.7349 0.0
H387 H 0.0821 0.76984 0.72304 0.0
H388 H 0.02706 0.76369 0.71268 0.0
H389 H 0.9689 0.69484 0.70858 0.0
H390 H 0.89584 0.53806 0.72365 0.0
H391 H 0.89267 0.43325 0.71193 0.0
H392 H -0.00043 0.55033 0.70915 0.0
H393 H 0.14182 0.63466 0.76155 0.0
H394 H 0.06343 0.67655 0.75095 0.0
H395 H 0.12099 0.63052 0.73307 0.0
H396 H -0.01259 0.52344 0.7507 0.0
H397 H 0.0283 0.49474 0.74388 0.0
H398 H 0.06553 0.52272 0.72929 0.0
H399 H 0.01182 0.61439 0.7036 0.0
H400 H 0.1021 0.72105 0.68985 0.0
H401 H 0.13389 0.67624 0.71354 0.0
H402 H 0.00317 0.69865 0.73726 0.0
H403 H 0.88344 0.67424 0.73062 0.0
H404 H 0.906 0.57514 0.73639 0.0
C405 C 0.34604 0.06656 0.89006 0.0
C406 C 0.31427 0.07042 0.88627 0.0
C407 C 0.28683 0.03921 0.88041 0.0
C408 C 0.29124 0.00496 0.87853 0.0
C409 C 0.32368 0.00315 0.88257 0.0
N410 N 0.3488 0.03376 0.88797 0.0
C411 C 0.33458 0.97093 0.88176 0.0
C412 C 0.38815 0.95361 0.88577 0.0
C413 C 0.36449 0.91198 0.88788 0.0
C414 C 0.38185 0.88693 0.88789 0.0
C415 C 0.42287 0.90307 0.88562 0.0
C416 C 0.44616 0.94394 0.88308 0.0
C417 C 0.42878 0.96897 0.88306 0.0
Cd418 Cd 0.29314 0.91008 0.86183 0.0
Cd419 Cd 0.29184 0.9506 0.848 0.0
C420 C 0.42449 0.09458 0.90822 0.0
C421 C 0.48853 0.13723 0.9162 0.0
C422 C 0.46694 0.12805 0.92434 0.0
C423 C 0.42446 0.10481 0.92452 0.0
C424 C 0.40318 0.08787 0.91646 0.0
C425 C 0.46729 0.12029 0.90811 0.0
Co426 Co 0.39028 0.02985 0.89341 0.0
N427 N 0.3569 -0.00339 0.90349 0.0
N428 N 0.43261 0.02718 0.89885 0.0
C429 C 0.42478 0.01035 0.90705 0.0
C430 C 0.45734 0.01406 0.91224 0.0
C431 C 0.49718 0.03699 0.90864 0.0
C432 C 0.50379 0.05648 0.90016 0.0
C433 C 0.46972 0.05143 0.89537 0.0
N434 N 0.43066 0.06381 0.88442 0.0
N435 N 0.37069 0.97977 0.88607 0.0
N436 N 0.4019 0.07951 0.89991 0.0
O437 O 0.30167 0.91269 0.83668 0.0
O438 O 0.26334 0.86899 0.8471 0.0
C439 C 0.34128 0.87401 0.8635 0.0
O440 O 0.35093 0.90474 0.85847 0.0
O441 O 0.30733 0.85828 0.8677 0.0
C442 C 0.20035 0.89856 0.85697 0.0
O443 O 0.2184 0.88609 0.86229 0.0
O444 O 0.22077 0.92534 0.85102 0.0
C445 C 0.38172 -0.00737 0.90967 0.0
O446 O 0.36738 0.97164 0.91718 0.0
O447 O 0.3391 0.98283 0.86028 0.0
O448 O 0.3406 0.0215 0.84913 0.0
C449 C 0.46866 0.07222 0.88705 0.0
O450 O 0.50131 0.09439 0.88211 0.0
C451 C 0.42235 0.07502 0.8758 0.0
C452 C 0.40171 0.04467 0.86944 0.0
C453 C 0.38615 0.0524 0.86161 0.0
C454 C 0.39751 0.09248 0.8594 0.0
C455 C 0.42252 0.12419 0.86529 0.0
C456 C 0.43374 0.11547 0.87369 0.0
C457 C 0.2756 0.87657 0.8389 0.0
O458 O 0.30788 0.93373 0.87816 0.0
C459 C 0.35479 0.0176 0.85656 0.0
C460 C 0.31409 0.96696 0.90295 0.0
C461 C 0.28485 0.97884 0.9018 0.0
C462 C 0.24407 0.94946 0.90038 0.0
C463 C 0.2318 0.90795 0.90051 0.0
C464 C 0.26015 0.89512 0.90241 0.0
C465 C 0.30137 0.92524 0.90345 0.0
C466 C 0.37623 0.09266 0.89687 0.0
O467 O 0.37573 0.12417 0.90047 0.0
H468 H 0.31036 0.09616 0.88786 0.0
H469 H 0.26193 0.04135 0.8774 0.0
H470 H 0.27012 0.98094 0.87409 0.0
H471 H 0.33261 0.89888 0.88947 0.0
H472 H 0.43633 0.88371 0.88563 0.0
H473 H 0.44684 -0.00021 0.88066 0.0
H474 H 0.48321 0.14234 0.93053 0.0
H475 H 0.37014 0.07071 0.9165 0.0
H476 H 0.48357 0.12868 0.90175 0.0
H477 H 0.45243 0.0008 0.91893 0.0
H478 H 0.52298 0.04078 0.91256 0.0
H479 H 0.53438 0.07574 0.8976 0.0
H480 H 0.39636 0.01437 0.8708 0.0
H481 H 0.38686 0.09912 0.85318 0.0
H482 H 0.45151 0.13971 0.87844 0.0
H483 H 0.29341 0.01066 0.90192 0.0
H484 H 0.19993 0.88617 0.8994 0.0
H485 H 0.32404 0.91669 0.90492 0.0
C486 C 0.62657 0.70583 0.80336 0.0
C487 C 0.66029 0.74188 0.80643 0.0
C488 C 0.68876 0.73861 0.81205 0.0
C489 C 0.68337 0.69997 0.81439 0.0
C490 C 0.64901 0.66527 0.81105 0.0
N491 N 0.62296 0.67032 0.80587 0.0
C492 C 0.63651 0.62203 0.81255 0.0
C493 C 0.58033 0.55091 0.81005 0.0
C494 C 0.60149 0.53012 0.80802 0.0
C495 C 0.58266 0.48785 0.80912 0.0
C496 C 0.54296 0.46599 0.81249 0.0
C497 C 0.52262 0.4866 0.81505 0.0
C498 C 0.54133 0.52884 0.81392 0.0
Cd499 Cd 0.67374 0.60633 0.83335 0.0
Cd500 Cd 0.68825 0.66663 0.84837 0.0
C501 C 0.53906 0.65233 0.78725 0.0
C502 C 0.47101 0.62822 0.78114 0.0
C503 C 0.4876 0.63825 0.77246 0.0
C504 C 0.52969 0.65725 0.77102 0.0
C505 C 0.55543 0.66391 0.77845 0.0
C506 C 0.49682 0.6359 0.78858 0.0
Co507 Co 0.57849 0.62413 0.80143 0.0
N508 N 0.60713 0.62084 0.79091 0.0
N509 N 0.53354 0.57834 0.79696 0.0
C510 C 0.53776 0.56703 0.78869 0.0
C511 C 0.50298 0.53744 0.7842 0.0
C512 C 0.4648 0.52229 0.78855 0.0
C513 C 0.46199 0.53753 0.79708 0.0
C514 C 0.49814 0.56707 0.80114 0.0
N515 N 0.54244 0.62124 0.81101 0.0
N516 N 0.59926 0.59441 0.80876 0.0
N517 N 0.56604 0.66157 0.79487 0.0
O518 O 0.67307 0.61074 0.85816 0.0
O519 O 0.70236 0.59294 0.84765 0.0
C520 C 0.61442 0.52358 0.8335 0.0
O521 O 0.61154 0.5497 0.83837 0.0
O522 O 0.64622 0.53604 0.82861 0.0
C523 C 0.77234 0.68301 0.8373 0.0
O524 O 0.74992 0.6491 0.83328 0.0
O525 O 0.75686 0.69826 0.84254 0.0
C526 C 0.57974 0.59088 0.78527 0.0
O527 O 0.59123 0.58103 0.77775 0.0
O528 O 0.63985 0.64487 0.83552 0.0
O529 O 0.6408 0.6894 0.84497 0.0
C530 C 0.50319 0.59168 0.80925 0.0
O531 O 0.4727 0.5846 0.81463 0.0
C532 C 0.55458 0.64677 0.81876 0.0
C533 C 0.57754 0.64149 0.82534 0.0
C534 C 0.59563 0.66992 0.83229 0.0
C535 C 0.58619 0.70101 0.83326 0.0
C536 C 0.5601 0.70459 0.82702 0.0
C537 C 0.54565 0.67818 0.81956 0.0
C538 C 0.6925 0.59285 0.85591 0.0
O539 O 0.66192 0.61115 0.81666 0.0
C540 C 0.62612 0.66774 0.83799 0.0
C541 C 0.64926 0.63193 0.7909 0.0
C542 C 0.68052 0.67262 0.7904 0.0
C543 C 0.72118 0.68184 0.79042 0.0
C544 C 0.73071 0.65054 0.79073 0.0
C545 C 0.69935 0.60939 0.79097 0.0
C546 C 0.65895 0.60097 0.79133 0.0
C547 C 0.59423 0.70094 0.79709 0.0
O548 O 0.59428 0.73244 0.79332 0.0
H549 H 0.66475 0.77144 0.80452 0.0
H550 H 0.71511 0.76598 0.81452 0.0
H551 H 0.70518 0.69742 0.81866 0.0
H552 H 0.63265 0.54633 0.80568 0.0
H553 H 0.52844 0.43329 0.81336 0.0
H554 H 0.52579 0.5441 0.81641 0.0
H555 H 0.46753 0.63415 0.76684 0.0
H556 H 0.58813 0.67876 0.77746 0.0
H557 H 0.48433 0.63032 0.79534 0.0
H558 H 0.50497 0.52726 0.77749 0.0
H559 H 0.43732 0.49981 0.78518 0.0
H560 H 0.43263 0.52758 0.8002 0.0
H561 H 0.58231 0.61568 0.82484 0.0
H562 H 0.59829 0.72154 0.83896 0.0
H563 H 0.52713 0.68158 0.81443 0.0
H564 H 0.67362 0.69703 0.7899 0.0
H565 H 0.76242 0.65871 0.79029 0.0
H566 H 0.6341 0.56989 0.79165 0.0
C567 C 0.90854 0.62627 0.97128 0.0
C568 C 0.90546 0.6585 0.97507 0.0
C569 C 0.93749 0.68624 0.98073 0.0
C570 C 0.9718 0.68167 0.98242 0.0
C571 C 0.97288 0.64881 0.97839 0.0
N572 N 0.94141 0.62339 0.9732 0.0
C573 C 0.00445 0.63685 0.97921 0.0
C574 C 0.01721 0.57945 0.9757 0.0
C575 C 0.05474 0.59439 0.9713 0.0
C576 C 0.0749 0.57192 0.97126 0.0
C577 C 0.05774 0.53432 0.97567 0.0
C578 C 0.02084 0.51961 0.98028 0.0
C579 C 0.00093 0.5423 0.9804 0.0
Cd580 Cd 0.06127 0.68004 0.99967 0.0
Cd581 Cd 0.02003 0.68054 1.01364 0.0
C582 C 0.87743 0.54532 0.95343 0.0
C583 C 0.83998 0.47896 0.94595 0.0
C584 C 0.84317 0.49889 0.93778 0.0
C585 C 0.8607 0.54122 0.9374 0.0
C586 C 0.87866 0.56457 0.94517 0.0
C587 C 0.85622 0.50225 0.95385 0.0
Co588 Co 0.94433 0.58135 0.96779 0.0
N589 N 0.97674 0.61421 0.95758 0.0
N590 N 0.94684 0.53893 0.96242 0.0
C591 C 0.96473 0.54659 0.95435 0.0
C592 C 0.96365 0.51418 0.94957 0.0
C593 C 0.94265 0.47479 0.9535 0.0
C594 C 0.92288 0.46846 0.96195 0.0
C595 C 0.92535 0.50237 0.96634 0.0
N596 N 0.91143 0.54168 0.97692 0.0
N597 N -0.00553 0.60041 0.97494 0.0
N598 N 0.8942 0.56962 0.96149 0.0
O599 O 0.05544 0.66531 0.02469 0.0
O600 O 0.09923 0.70821 0.01483 0.0
C601 C 0.09918 0.63341 0.99963 0.0
O602 O 0.06634 0.62284 1.00395 0.0
O603 O 0.1154 0.66685 0.99523 0.0
C604 C 0.07796 0.77345 1.00538 0.0
O605 O 0.08653 0.75518 0.99925 0.0
O606 O 0.05311 0.75319 1.01166 0.0
C607 C 0.98214 0.58956 0.9516 0.0
O608 O 0.0038 0.60392 0.94418 0.0
O609 O -0.01198 0.63686 1.00078 0.0
O610 O 0.94812 0.63612 1.01156 0.0
C611 C 0.9048 0.50382 0.97467 0.0
O612 O 0.88362 0.47172 0.97984 0.0
C613 C 0.89843 0.55097 0.98519 0.0
C614 C 0.92745 0.57325 0.99165 0.0
C615 C 0.91845 0.59116 0.99888 0.0
C616 C 0.87819 0.58152 1.00034 0.0
C617 C 0.84746 0.55522 0.99433 0.0
C618 C 0.85801 0.54117 0.98654 0.0
C619 C 0.09122 0.69362 0.02285 0.0
O620 O 0.04154 0.66228 0.98304 0.0
C621 C 0.95265 0.62223 1.00414 0.0
C622 C 0.00337 0.65777 0.95776 0.0
C623 C -0.01218 0.68436 0.95836 0.0
C624 C 0.01417 0.72608 0.95968 0.0
C625 C 0.05631 0.74182 0.9601 0.0
C626 C 0.07273 0.71602 0.95887 0.0
C627 C 0.0457 0.67404 0.95766 0.0
C628 C 0.8816 0.59569 0.9646 0.0
O629 O 0.84938 0.59568 0.96129 0.0
H630 H 0.8797 0.66256 0.97362 0.0
H631 H 0.9359 0.71145 0.98374 0.0
H632 H -0.00368 0.70289 0.98674 0.0
H633 H 0.06805 0.62297 0.96782 0.0
H634 H 0.07321 0.51683 0.97561 0.0
H635 H 0.97293 0.53062 0.98417 0.0
H636 H 0.82855 0.48099 0.93179 0.0
H637 H 0.89221 0.59744 0.9449 0.0
H638 H 0.8513 0.48693 0.96027 0.0
H639 H 0.97786 0.51884 0.94299 0.0
H640 H 0.94101 0.44909 0.94992 0.0
H641 H 0.9057 0.43818 0.96483 0.0
H642 H 0.95794 0.57838 0.99078 0.0
H643 H 0.87077 0.59369 1.0062 0.0
H644 H 0.83507 0.5227 0.98159 0.0
H645 H 0.95547 0.67302 0.95783 0.0
H646 H 0.0759 0.77428 0.96111 0.0
H647 H 0.05741 0.65376 0.95632 0.0
C648 C 0.26898 0.91739 0.13697 0.0
C649 C 0.233 0.9161 0.13975 0.0
C650 C 0.23636 0.9482 0.14526 0.0
C651 C 0.27503 0.98088 0.14775 0.0
C652 C 0.30965 0.98022 0.1447 0.0
N653 N 0.3045 0.94859 0.13968 0.0
C654 C 0.35294 0.01079 0.14622 0.0
C655 C 0.42369 0.02369 0.14416 0.0
C656 C 0.44653 0.06539 0.14194 0.0
C657 C 0.48869 0.08718 0.14333 0.0
C658 C 0.50836 0.06795 0.14715 0.0
C659 C 0.48566 0.0273 0.14988 0.0
C660 C 0.44355 0.00545 0.14848 0.0
Cd661 Cd 0.36721 0.0647 0.16696 0.0
Cd662 Cd 0.31173 0.02098 0.18079 0.0
C663 C 0.32264 0.88479 0.12051 0.0
C664 C 0.34799 0.84247 0.11406 0.0
C665 C 0.33661 0.84844 0.10548 0.0
C666 C 0.31611 0.87025 0.10425 0.0
C667 C 0.30973 0.88904 0.11181 0.0
C668 C 0.3403 0.85999 0.12161 0.0
Co669 Co 0.35061 0.95067 0.13505 0.0
N670 N 0.35373 0.98354 0.12474 0.0
N671 N 0.3965 0.95235 0.13041 0.0
C672 C 0.40923 0.97067 0.12242 0.0
C673 C 0.44057 0.96812 0.118 0.0
C674 C 0.45616 0.94503 0.12215 0.0
C675 C 0.43986 0.92457 0.13043 0.0
C676 C 0.4086 0.92861 0.13444 0.0
N677 N 0.3537 0.91638 0.14439 0.0
N678 N 0.38038 0.00064 0.14252 0.0
N679 N 0.31323 0.90158 0.12829 0.0
O680 O 0.36057 0.05885 0.19211 0.0
O681 O 0.37679 0.10534 0.18153 0.0
C682 C 0.44993 0.08951 0.16721 0.0
O683 O 0.42411 0.06061 0.17216 0.0
O684 O 0.43724 0.10857 0.1623 0.0
C685 C 0.29039 0.08545 0.17029 0.0
O686 O 0.32424 0.09745 0.1662 0.0
O687 O 0.27616 0.05496 0.17559 0.0
C688 C 0.38539 -0.01074 0.11925 0.0
O689 O 0.39588 0.01271 0.11205 0.0
O690 O 0.33084 -0.0082 0.16838 0.0
O691 O 0.28658 0.94974 0.17815 0.0
C692 C 0.38385 0.90765 0.14246 0.0
O693 O 0.392 0.88476 0.14776 0.0
C694 C 0.32926 0.90321 0.15235 0.0
C695 C 0.33403 0.9321 0.1587 0.0
C696 C 0.30575 0.92238 0.16568 0.0
C697 C 0.27535 0.8819 0.16693 0.0
C698 C 0.27306 0.85161 0.16109 0.0
C699 C 0.29939 0.86241 0.15362 0.0
C700 C 0.37647 0.096 0.18985 0.0
O701 O 0.36402 0.04729 0.15028 0.0
C702 C 0.30776 0.95567 0.17111 0.0
C703 C 0.33759 0.01055 0.1246 0.0
C704 C 0.29621 -0.00376 0.12314 0.0
C705 C 0.28154 0.02346 0.12342 0.0
C706 C 0.30814 0.065 0.125 0.0
C707 C 0.35043 0.0803 0.12625 0.0
C708 C 0.364 0.05187 0.12616 0.0
C709 C 0.27386 0.89038 0.13055 0.0
O710 O 0.24239 0.85965 0.12661 0.0
H711 H 0.20345 0.89174 0.13762 0.0
H712 H 0.20905 0.94806 0.14747 0.0
H713 H 0.27765 0.00572 0.15187 0.0
H714 H 0.43206 0.08146 0.13927 0.0
H715 H 0.54096 0.08485 0.14825 0.0
H716 H 0.42666 0.9749 0.15109 0.0
H717 H 0.34047 0.83254 0.09981 0.0
H718 H 0.29381 0.90598 0.111 0.0
H719 H 0.3466 0.8531 0.1283 0.0
H720 H 0.45198 0.98255 0.11151 0.0
H721 H 0.4801 0.94216 0.11884 0.0
H722 H 0.45065 0.90562 0.13343 0.0
H723 H 0.35947 0.9627 0.15804 0.0
H724 H 0.25441 0.87378 0.17257 0.0
H725 H 0.29678 0.83941 0.14888 0.0
H726 H 0.27546 0.96434 0.12175 0.0
H727 H 0.29518 0.0847 0.12475 0.0
H728 H 0.39543 0.0608 0.12704 0.0
C729 C 0.33766 0.2711 0.30386 0.0
C730 C 0.30337 0.23537 0.30689 0.0
C731 C 0.27394 0.23921 0.31204 0.0
C732 C 0.27904 0.27808 0.31399 0.0
C733 C 0.31401 0.31242 0.31071 0.0
N734 N 0.34076 0.30683 0.30593 0.0
C735 C 0.32634 0.3558 0.31182 0.0
C736 C 0.38235 0.42679 0.30889 0.0
C737 C 0.3603 0.44627 0.30646 0.0
C738 C 0.37869 0.48876 0.30677 0.0
C739 C 0.4189 0.51226 0.30972 0.0
C740 C 0.44021 0.49317 0.31266 0.0
C741 C 0.42185 0.4507 0.31237 0.0
Cd742 Cd 0.28975 0.37767 0.33187 0.0
Cd743 Cd 0.2864 0.33133 0.35348 0.0
C744 C 0.42624 0.32266 0.28798 0.0
C745 C 0.49391 0.34602 0.28165 0.0
C746 C 0.47672 0.33485 0.27306 0.0
C747 C 0.43458 0.31591 0.27174 0.0
C748 C 0.40932 0.31007 0.27925 0.0
C749 C 0.46863 0.33948 0.28916 0.0
Co750 Co 0.38615 0.35251 0.30162 0.0
N751 N 0.35993 0.35532 0.29062 0.0
N752 N 0.43223 0.39767 0.29731 0.0
C753 C 0.42988 0.40867 0.28888 0.0
C754 C 0.46573 0.4377 0.28459 0.0
C755 C 0.50293 0.4526 0.28933 0.0
C756 C 0.50376 0.4376 0.29803 0.0
C757 C 0.46666 0.40854 0.30186 0.0
N758 N 0.41981 0.35588 0.31179 0.0
N759 N 0.3642 0.38307 0.30821 0.0
N760 N 0.3997 0.31444 0.29568 0.0
O761 O 0.30965 0.40319 0.35484 0.0
O762 O 0.26089 0.39453 0.34556 0.0
C763 C 0.34753 0.46009 0.33077 0.0
O764 O 0.35389 0.43481 0.33512 0.0
O765 O 0.31299 0.44682 0.32695 0.0
C766 C 0.19923 0.30176 0.33941 0.0
O767 O 0.21598 0.32686 0.33288 0.0
O768 O 0.22024 0.30142 0.34609 0.0
C769 C 0.38861 0.38496 0.28509 0.0
O770 O 0.37888 0.39454 0.27731 0.0
O771 O 0.32273 0.34287 0.3371 0.0
O772 O 0.33326 0.31085 0.34794 0.0
C773 C 0.45959 0.3847 0.31021 0.0
O774 O 0.48877 0.39262 0.31604 0.0
C775 C 0.40595 0.33299 0.31998 0.0
C776 C 0.38292 0.34123 0.3261 0.0
C777 C 0.36739 0.31781 0.33395 0.0
C778 C 0.37767 0.28815 0.33598 0.0
C779 C 0.40341 0.28184 0.33025 0.0
C780 C 0.4166 0.30348 0.32208 0.0
C781 C 0.27915 0.40746 0.35311 0.0
O782 O 0.30046 0.36707 0.31551 0.0
C783 C 0.34031 0.32421 0.33994 0.0
C784 C 0.31792 0.34451 0.29012 0.0
C785 C 0.28653 0.30383 0.28981 0.0
C786 C 0.24592 0.29479 0.28965 0.0
C787 C 0.23657 0.32622 0.28961 0.0
C788 C 0.26804 0.36731 0.28964 0.0
C789 C 0.30841 0.37565 0.29006 0.0
C790 C 0.37114 0.27533 0.29803 0.0
O791 O 0.37131 0.24343 0.29456 0.0
H792 H 0.29921 0.20562 0.3053 0.0
H793 H 0.24712 0.21209 0.31447 0.0
H794 H 0.25654 0.28107 0.31792 0.0
H795 H 0.3289 0.42891 0.30433 0.0
H796 H 0.43311 0.54513 0.30997 0.0
H797 H 0.43816 0.43683 0.31517 0.0
H798 H 0.49647 0.33829 0.2674 0.0
H799 H 0.37657 0.29525 0.27837 0.0
H800 H 0.48162 0.3463 0.29588 0.0
H801 H 0.46528 0.44761 0.27776 0.0
H802 H 0.5312 0.47468 0.28614 0.0
H803 H 0.53238 0.44742 0.30147 0.0
H804 H 0.37767 0.36633 0.32483 0.0
H805 H 0.36616 0.27028 0.34212 0.0
H806 H 0.4362 0.2986 0.31753 0.0
H807 H 0.2933 0.27927 0.28967 0.0
H808 H 0.20491 0.3182 0.28912 0.0
H809 H 0.33327 0.40679 0.29021 0.0
C810 C 0.05625 0.34559 0.46977 0.0
C811 C 0.0597 0.31274 0.47305 0.0
C812 C 0.02929 0.28515 0.47907 0.0
C813 C -0.00378 0.29049 0.4816 0.0
C814 C -0.00524 0.32399 0.47805 0.0
N815 N 0.02469 0.34931 0.4725 0.0
C816 C 0.96369 0.336 0.47957 0.0
C817 C 0.94884 0.39226 0.47724 0.0
C818 C 0.90681 0.37166 0.47548 0.0
C819 C 0.88365 0.39041 0.47712 0.0
C820 C 0.90209 0.42964 0.48077 0.0
C821 C 0.94336 0.44951 0.48303 0.0
C822 C 0.96653 0.4308 0.48135 0.0
Cd823 Cd 0.91297 0.29551 0.50038 0.0
Cd824 Cd 0.95787 0.28963 0.51346 0.0
C825 C 0.0861 0.42956 0.4527 0.0
C826 C 0.12754 0.49766 0.44627 0.0
C827 C 0.12499 0.48028 0.43782 0.0
C828 C 0.10598 0.43806 0.43676 0.0
C829 C 0.08532 0.41258 0.44413 0.0
C830 C 0.10916 0.47226 0.45378 0.0
Co831 Co 0.02089 0.39202 0.46763 0.0
N832 N -0.01417 0.36001 0.45769 0.0
N833 N 0.01775 0.43513 0.46279 0.0
C834 C -0.00075 0.42838 0.45482 0.0
C835 C 0.00103 0.46151 0.45019 0.0
C836 C 0.0237 0.50071 0.45412 0.0
C837 C 0.04453 0.50616 0.46238 0.0
C838 C 0.04121 0.47156 0.46661 0.0
N839 N 0.05649 0.43108 0.47654 0.0
N840 N 0.97252 0.37271 0.47559 0.0
N841 N 0.06911 0.40321 0.46048 0.0
O842 O 0.91967 0.29827 0.52488 0.0
O843 O 0.87174 0.26374 0.51489 0.0
C844 C 0.88756 0.35254 0.50223 0.0
O845 O 0.9162 0.35364 0.50693 0.0
O846 O 0.86933 0.32328 0.49662 0.0
C847 C 0.89874 0.20046 0.50417 0.0
O848 O 0.88528 0.22005 0.49965 0.0
O849 O 0.9285 0.21944 0.50955 0.0
C850 C 0.98081 0.38556 0.45191 0.0
O851 O 0.95722 0.37182 0.44475 0.0
O852 O -0.01389 0.33571 0.50096 0.0
O853 O 0.02898 0.33672 0.51097 0.0
C854 C 0.06356 0.46932 0.47453 0.0
O855 O 0.08684 0.50118 0.47957 0.0
C856 C 0.07138 0.42123 0.48441 0.0
C857 C 0.044 0.39886 0.49117 0.0
C858 C 0.05489 0.38103 0.49808 0.0
C859 C 0.09546 0.39088 0.49893 0.0
C860 C 0.12463 0.41757 0.49268 0.0
C861 C 0.11215 0.43145 0.48518 0.0
C862 C 0.88228 0.27496 0.52306 0.0
O863 O 0.92748 0.31025 0.4837 0.0
C864 C 0.02235 0.35017 0.50372 0.0
C865 C 0.95577 0.31749 0.45843 0.0
C866 C 0.96712 0.28765 0.45898 0.0
C867 C 0.93837 0.24792 0.46148 0.0
C868 C 0.89775 0.23719 0.46298 0.0
C869 C 0.88462 0.26576 0.46154 0.0
C870 C 0.91464 0.30608 0.45936 0.0
C871 C 0.08164 0.3763 0.46297 0.0
O872 O 0.11305 0.37636 0.45914 0.0
H873 H 0.0845 0.30814 0.47096 0.0
H874 H 0.03112 0.25941 0.48169 0.0
H875 H 0.97277 0.26923 0.48614 0.0
H876 H 0.89182 0.34081 0.47302 0.0
H877 H 0.88419 0.44415 0.48206 0.0
H878 H -0.00236 0.44591 0.48363 0.0
H879 H 0.14146 0.49994 0.43215 0.0
H880 H 0.07079 0.37977 0.44338 0.0
H881 H 0.11454 0.48563 0.46042 0.0
H882 H -0.01371 0.45753 0.44372 0.0
H883 H 0.02602 0.52696 0.45064 0.0
H884 H 0.06337 0.53631 0.46519 0.0
H885 H 0.0134 0.39398 0.4908 0.0
H886 H 0.10444 0.37903 0.50461 0.0
H887 H 0.13398 0.45056 0.48009 0.0
H888 H -0.00169 0.29529 0.4578 0.0
H889 H 0.87692 0.20613 0.46498 0.0
H890 H 0.90676 0.32942 0.45823 0.0
C891 C 0.69805 0.06327 0.6371 0.0
C892 C 0.73416 0.06588 0.64023 0.0
C893 C 0.73106 0.03434 0.64592 0.0
C894 C 0.69252 0.00096 0.64828 0.0
C895 C 0.65773 0.00034 0.64491 0.0
N896 N 0.66264 0.03132 0.63967 0.0
C897 C 0.61452 0.96881 0.64619 0.0
C898 C 0.54334 0.95279 0.64309 0.0
C899 C 0.52435 0.91148 0.6407 0.0
C900 C 0.4819 0.88703 0.64098 0.0
C901 C 0.45804 0.90351 0.64386 0.0
C902 C 0.47676 0.94396 0.64676 0.0
C903 C 0.51921 0.96831 0.64649 0.0
Cd904 Cd 0.59375 0.90719 0.66614 0.0
Cd905 Cd 0.63566 0.94585 0.6804 0.0
C906 C 0.6434 0.09658 0.62088 0.0
C907 C 0.61049 0.13402 0.61558 0.0
C908 C 0.61763 0.12684 0.60672 0.0
C909 C 0.64535 0.11351 0.60481 0.0
C910 C 0.65616 0.09574 0.61191 0.0
C911 C 0.62422 0.11957 0.62271 0.0
Co912 Co 0.61644 0.02836 0.63492 0.0
N913 N 0.61374 -0.00498 0.6246 0.0
N914 N 0.57052 0.02622 0.63019 0.0
C915 C 0.55896 0.00901 0.62208 0.0
C916 C 0.528 0.01184 0.61757 0.0
C917 C 0.51155 0.03407 0.62176 0.0
C918 C 0.52667 0.05348 0.63017 0.0
C919 C 0.55766 0.04929 0.63427 0.0
N920 N 0.61261 0.06238 0.64427 0.0
N921 N 0.58693 0.97838 0.64235 0.0
N922 N 0.65361 0.07787 0.62817 0.0
O923 O 0.58471 0.90588 0.69107 0.0
O924 O 0.58324 0.86431 0.68054 0.0
C925 C 0.51034 0.87757 0.66515 0.0
O926 O 0.53366 0.90662 0.67036 0.0
O927 O 0.52576 0.86018 0.66053 0.0
C928 C 0.67258 0.89266 0.67051 0.0
O929 O 0.64174 0.88054 0.66533 0.0
O930 O 0.67966 0.91919 0.67656 0.0
C931 C 0.58328 -0.00908 0.61891 0.0
O932 O 0.57416 0.96929 0.61145 0.0
O933 O 0.62419 0.97965 0.66797 0.0
O934 O 0.66021 0.01733 0.67932 0.0
C935 C 0.58156 0.06981 0.6424 0.0
O936 O 0.57192 0.09118 0.64782 0.0
C937 C 0.63399 0.07288 0.65266 0.0
C938 C 0.62445 0.0423 0.65895 0.0
C939 C 0.64858 0.04939 0.66661 0.0
C940 C 0.6785 0.08902 0.6687 0.0
C941 C 0.68509 0.12122 0.66295 0.0
C942 C 0.66408 0.11299 0.65468 0.0
C943 C 0.57661 0.87047 0.68871 0.0
O944 O 0.60382 0.93154 0.64983 0.0
C945 C 0.6439 0.01423 0.6717 0.0
C946 C 0.62791 0.96609 0.6246 0.0
C947 C 0.66953 0.979 0.62493 0.0
C948 C 0.68236 0.95056 0.62608 0.0
C949 C 0.65391 0.90889 0.62649 0.0
C950 C 0.61197 0.89484 0.62533 0.0
C951 C 0.59958 0.92415 0.62451 0.0
C952 C 0.693 0.08977 0.63053 0.0
O953 O 0.72436 0.12148 0.6268 0.0
H954 H 0.76367 0.09085 0.63824 0.0
H955 H 0.7585 0.0355 0.64839 0.0
H956 H 0.69013 0.9766 0.65254 0.0
H957 H 0.54249 0.89823 0.6387 0.0
H958 H 0.4252 0.88465 0.64409 0.0
H959 H 0.53288 -0.00133 0.64921 0.0
H960 H 0.60625 0.13762 0.60129 0.0
H961 H 0.67575 0.08308 0.61061 0.0
H962 H 0.62067 0.1268 0.62959 0.0
H963 H 0.51749 -0.00177 0.61099 0.0
H964 H 0.48791 0.03716 0.61838 0.0
H965 H 0.51536 0.07195 0.6332 0.0
H966 H 0.59868 0.01238 0.65773 0.0
H967 H 0.69657 0.09494 0.67478 0.0
H968 H 0.67009 0.13742 0.65 0.0
H969 H 0.6921 0.01092 0.62437 0.0
H970 H 0.66517 0.88794 0.62744 0.0
H971 H 0.56782 0.91482 0.62356 0.0
C972 C 0.39861 0.82062 0.11094 0.0
C973 C 0.36121 0.81195 0.11477 0.0
C974 C 0.40445 0.78896 0.10784 0.0
C975 C 0.35399 0.6746 0.10629 0.0
H976 H 0.40626 0.69879 0.08275 0.0
C977 C 0.31975 0.55005 0.08051 0.0
C978 C 0.35187 0.54162 0.08028 0.0
C979 C 0.32631 0.58748 0.08377 0.0
C980 C 0.39176 0.69182 0.08933 0.0
H981 H 0.30186 0.76387 0.11903 0.0
H982 H 0.31141 0.70873 0.11359 0.0
H983 H 0.40939 0.75404 0.09191 0.0
H984 H 0.41648 0.56645 0.08247 0.0
H985 H 0.42843 0.63304 0.0878 0.0
H986 H 0.33454 0.612 0.10339 0.0
C987 C 0.33683 0.73957 0.11307 0.0
C988 C 0.39389 0.72342 0.09465 0.0
C989 C 0.33131 0.77121 0.11628 0.0
C990 C 0.39152 0.57272 0.08239 0.0
C991 C 0.39823 0.61053 0.08552 0.0
C992 C 0.35124 0.64307 0.10089 0.0
C993 C 0.37266 0.7481 0.10837 0.0
C994 C 0.37458 0.7152 0.10318 0.0
C995 C 0.36522 0.6172 0.0867 0.0
C996 C 0.36968 0.65137 0.09234 0.0
H997 H 0.42186 0.85192 0.1096 0.0
H998 H 0.43293 0.79675 0.10453 0.0
H999 H 0.33945 0.66696 0.11285 0.0
H1000 H 0.28879 0.52615 0.07911 0.0
H1001 H 0.30046 0.59207 0.08465 0.0
C1002 C 0.81285 0.40351 0.24966 0.0
C1003 C 0.80334 0.3656 0.24594 0.0
C1004 C 0.78183 0.40985 0.25303 0.0
C1005 C 0.69906 0.35725 0.26678 0.0
H1006 H 0.64636 0.41822 0.25973 0.0
C1007 C 0.54871 0.32903 0.28285 0.0
C1008 C 0.53772 0.35929 0.28232 0.0
C1009 C 0.5861 0.33616 0.27938 0.0
C1010 C 0.66135 0.40176 0.26195 0.0
H1011 H 0.75417 0.30601 0.24213 0.0
H1012 H 0.70003 0.31704 0.24803 0.0
H1013 H 0.7001 0.42005 0.25019 0.0
H1014 H 0.55839 0.42178 0.27852 0.0
H1015 H 0.625 0.43543 0.27303 0.0
H1016 H 0.66154 0.33939 0.27858 0.0
C1017 C 0.73129 0.34192 0.24824 0.0
C1018 C 0.6918 0.40252 0.25639 0.0
C1019 C 0.7622 0.33583 0.24476 0.0
C1020 C 0.56652 0.3982 0.27915 0.0
C1021 C 0.60426 0.40559 0.2758 0.0
C1022 C 0.66921 0.35696 0.2724 0.0
C1023 C 0.74107 0.37818 0.2528 0.0
C1024 C 0.71027 0.37964 0.2587 0.0
C1025 C 0.61361 0.37395 0.27538 0.0
C1026 C 0.64922 0.37853 0.26999 0.0
H1027 H 0.84437 0.4265 0.25085 0.0
H1028 H 0.79 0.43795 0.25657 0.0
H1029 H 0.71337 0.33974 0.26873 0.0
H1030 H 0.52656 0.29845 0.28502 0.0
H1031 H 0.59165 0.31076 0.27916 0.0
C1032 C 0.14588 0.5691 0.44292 0.0
C1033 C 0.1559 0.54192 0.44706 0.0
C1034 C 0.17666 0.60771 0.44013 0.0
C1035 C 0.29034 0.67798 0.43999 0.0
H1036 H 0.27033 0.70129 0.41559 0.0
C1037 C 0.41685 0.76482 0.41407 0.0
C1038 C 0.42674 0.80585 0.41385 0.0
C1039 C 0.37909 0.73487 0.41742 0.0
C1040 C 0.27608 0.69524 0.42242 0.0
H1041 H 0.2052 0.53444 0.45217 0.0
H1042 H 0.2589 0.60119 0.44727 0.0
H1043 H 0.21433 0.64802 0.4244 0.0
H1044 H 0.40431 0.84753 0.41628 0.0
H1045 H 0.33713 0.79449 0.42179 0.0
H1046 H 0.35274 0.72379 0.4377 0.0
C1047 C 0.22757 0.59361 0.44627 0.0
C1048 C 0.24402 0.66505 0.42754 0.0
C1049 C 0.19675 0.55529 0.44916 0.0
C1050 C 0.39687 0.81592 0.41618 0.0
C1051 C 0.35877 0.78576 0.41942 0.0
C1052 C 0.32238 0.70769 0.43483 0.0
C1053 C 0.21804 0.61947 0.44127 0.0
C1054 C 0.25084 0.65548 0.43635 0.0
C1055 C 0.35052 0.74547 0.42046 0.0
C1056 C 0.31558 0.71609 0.42598 0.0
H1057 H 0.11452 0.55914 0.44114 0.0
H1058 H 0.16805 0.62721 0.43655 0.0
H1059 H 0.29679 0.67213 0.44677 0.0
H1060 H 0.43982 0.7566 0.41254 0.0
H1061 H 0.37331 0.70395 0.41822 0.0
C1062 C 0.63195 0.41872 0.57966 0.0
C1063 C 0.60463 0.4329 0.58123 0.0
C1064 C 0.62411 0.38108 0.58315 0.0
C1065 C 0.56748 0.31303 0.60235 0.0
H1066 H 0.61332 0.2489 0.59302 0.0
C1067 C 0.55942 0.15629 0.61345 0.0
C1068 C 0.59773 0.16485 0.61673 0.0
C1069 C 0.55365 0.18781 0.61017 0.0
C1070 C 0.60029 0.26658 0.59567 0.0
H1071 H 0.54621 0.4177 0.58698 0.0
H1072 H 0.53115 0.35083 0.59263 0.0
H1073 H 0.61305 0.30168 0.58355 0.0
H1074 H 0.65879 0.21313 0.61989 0.0
H1075 H 0.64857 0.26816 0.61423 0.0
H1076 H 0.55469 0.27723 0.61448 0.0
C1077 C 0.55933 0.36919 0.58897 0.0
C1078 C 0.60026 0.29694 0.59028 0.0
C1079 C 0.56744 0.40707 0.58556 0.0
C1080 C 0.62867 0.20579 0.61763 0.0
C1081 C 0.62304 0.23721 0.61426 0.0
C1082 C 0.56722 0.28234 0.60772 0.0
C1083 C 0.58859 0.35668 0.58825 0.0
C1084 C 0.58442 0.32111 0.59358 0.0
C1085 C 0.58614 0.22819 0.61013 0.0
C1086 C 0.58414 0.25932 0.60445 0.0
H1087 H 0.66131 0.43857 0.57655 0.0
H1088 H 0.6476 0.3729 0.58247 0.0
H1089 H 0.55569 0.33136 0.60523 0.0
H1090 H 0.53547 0.12495 0.61249 0.0
H1091 H 0.52501 0.18024 0.60697 0.0
C1092 C 0.1558 0.57837 0.74912 0.0
C1093 C 0.16448 0.61752 0.74642 0.0
C1094 C 0.18688 0.57215 0.75249 0.0
C1095 C 0.26794 0.62293 0.76739 0.0
H1096 H 0.31865 0.56097 0.75965 0.0
C1097 C 0.41701 0.64605 0.78292 0.0
C1098 C 0.42741 0.61552 0.78198 0.0
C1099 C 0.37965 0.63987 0.77969 0.0
C1100 C 0.30416 0.57763 0.76206 0.0
H1101 H 0.21245 0.67998 0.74445 0.0
H1102 H 0.26667 0.66917 0.75037 0.0
H1103 H 0.26599 0.56196 0.75027 0.0
H1104 H 0.40577 0.55336 0.77777 0.0
H1105 H 0.33926 0.54132 0.77267 0.0
H1106 H 0.30479 0.63803 0.77924 0.0
C1107 C 0.23607 0.6433 0.74978 0.0
C1108 C 0.27434 0.57849 0.7566 0.0
C1109 C 0.2052 0.64934 0.74628 0.0
C1110 C 0.39809 0.57714 0.77869 0.0
C1111 C 0.36041 0.57069 0.77556 0.0
C1112 C 0.29707 0.62147 0.77292 0.0
C1113 C 0.22676 0.60517 0.75331 0.0
C1114 C 0.25674 0.60192 0.75914 0.0
C1115 C 0.35167 0.60278 0.77552 0.0
C1116 C 0.3164 0.59959 0.77026 0.0
H1117 H 0.12448 0.55368 0.7495 0.0
H1118 H 0.17906 0.54254 0.75521 0.0
H1119 H 0.25417 0.64068 0.76954 0.0
H1120 H 0.43954 0.67621 0.78523 0.0
H1121 H 0.37453 0.66556 0.77976 0.0
C1122 C 0.77493 0.41599 0.9498 0.0
C1123 C 0.81406 0.43391 0.94599 0.0
C1124 C 0.74457 0.37704 0.94707 0.0
C1125 C 0.71892 0.31187 0.92673 0.0
H1126 H 0.62223 0.24083 0.94065 0.0
C1127 C 0.56334 0.16013 0.91644 0.0
C1128 C 0.53193 0.1697 0.91649 0.0
C1129 C 0.6026 0.18885 0.91948 0.0
C1130 C 0.64931 0.26016 0.93672 0.0
H1131 H 0.8534 0.42397 0.93703 0.0
H1132 H 0.80111 0.3553 0.93256 0.0
H1133 H 0.68251 0.29422 0.94833 0.0
H1134 H 0.51705 0.21685 0.91934 0.0
H1135 H 0.58525 0.26668 0.92464 0.0
H1136 H 0.68488 0.2778 0.91511 0.0
C1137 C 0.79325 0.37159 0.93743 0.0
C1138 C 0.68374 0.29097 0.94109 0.0
C1139 C 0.82345 0.41063 0.94011 0.0
C1140 C 0.54096 0.20905 0.91909 0.0
C1141 C 0.57976 0.23736 0.9222 0.0
C1142 C 0.68454 0.28073 0.92238 0.0
C1143 C 0.75282 0.35512 0.9405 0.0
C1144 C 0.71868 0.3181 0.93613 0.0
C1145 C 0.61053 0.22711 0.92268 0.0
C1146 C 0.64916 0.25533 0.92732 0.0
H1147 H 0.76671 0.43359 0.95421 0.0
H1148 H 0.7139 0.36572 0.94958 0.0
H1149 H 0.74484 0.33239 0.92263 0.0
H1150 H 0.55684 0.12971 0.91465 0.0
H1151 H 0.626 0.1804 0.91981 0.0
C1152 C 0.10384 0.84541 0.99991 0.0
C1153 C 0.10245 0.81807 1.00648 0.0
C1154 C 0.12461 0.88755 1.00169 0.0
C1155 C 0.16684 0.96063 0.02116 0.0
H1156 H 0.21842 0.04115 1.00222 0.0
C1157 C 0.27351 0.13518 0.02747 0.0
C1158 C 0.2656 0.16094 0.02204 0.0
C1159 C 0.25318 0.09295 0.02587 0.0
C1160 C 0.20401 0.01893 1.00758 0.0
H1161 H 0.12298 0.81279 0.01978 0.0
H1162 H 0.16121 0.88556 0.02263 0.0
H1163 H 0.18527 0.96878 0.99848 0.0
H1164 H 0.22883 0.16202 1.01088 0.0
H1165 H 0.19411 0.08909 1.00811 0.0
H1166 H 0.18672 0.01116 0.03026 0.0
C1167 C 0.14487 0.87518 0.01631 0.0
C1168 C 0.18474 0.97737 1.00543 0.0
C1169 C 0.12337 0.83337 0.01464 0.0
C1170 C 0.23597 0.14331 0.01519 0.0
C1171 C 0.21618 0.10146 1.01354 0.0
C1172 C 0.18672 0.00216 0.02332 0.0
C1173 C 0.14504 0.90298 1.00998 0.0
C1174 C 0.16574 0.94752 1.01219 0.0
C1175 C 0.22501 0.07589 0.01874 0.0
C1176 C 0.20527 0.03175 0.01654 0.0
H1177 H 0.08767 0.83416 0.99359 0.0
H1178 H 0.12362 0.90778 0.99666 0.0
H1179 H 0.15177 0.93886 0.02656 0.0
H1180 H 0.29622 0.1477 0.03276 0.0
H1181 H 0.26053 0.07385 0.02999 0.0
C1182 C 0.29332 0.15267 0.17144 0.0
C1183 C 0.27024 0.11022 0.1702 0.0
C1184 C 0.27401 0.17498 0.17358 0.0
C1185 C 0.1758 0.17264 0.17287 0.0
H1186 H 0.21227 0.23823 0.19465 0.0
C1187 C 0.0766 0.22918 0.1891 0.0
C1188 C 0.09575 0.27031 0.19175 0.0
C1189 C 0.09953 0.21064 0.18709 0.0
C1190 C 0.202 0.22045 0.1885 0.0
H1191 H 0.20914 0.0581 0.16981 0.0
H1192 H 0.1753 0.09723 0.17313 0.0
H1193 H 0.25028 0.20628 0.18887 0.0
H1194 H 0.15391 0.32336 0.19502 0.0
H1195 H 0.19424 0.29084 0.19149 0.0
H1196 H 0.12781 0.18674 0.17241 0.0
C1197 C 0.20824 0.11325 0.17255 0.0
C1198 C 0.22381 0.20225 0.18518 0.0
C1199 C 0.22754 0.09087 0.17062 0.0
C1200 C 0.13823 0.29156 0.19304 0.0
C1201 C 0.16135 0.27295 0.19097 0.0
C1202 C 0.15424 0.19101 0.17614 0.0
C1203 C 0.23129 0.15531 0.17432 0.0
C1204 C 0.21057 0.17772 0.1774 0.0
C1205 C 0.14232 0.23276 0.18762 0.0
C1206 C 0.1666 0.21458 0.18408 0.0
H1207 H 0.32634 0.16816 0.17134 0.0
H1208 H 0.29247 0.20741 0.17487 0.0
H1209 H 0.16519 0.15431 0.1668 0.0
H1210 H 0.04387 0.2118 0.18813 0.0
H1211 H 0.08373 0.17925 0.18481 0.0
C1212 C 0.12771 0.27919 0.33396 0.0
C1213 C 0.15424 0.27567 0.34007 0.0
C1214 C 0.08545 0.25803 0.33553 0.0
C1215 C 0.01237 0.21447 0.35431 0.0
H1216 H 0.93233 0.14976 0.33616 0.0
C1217 C 0.83722 0.13483 0.3603 0.0
C1218 C 0.81386 0.09557 0.35661 0.0
C1219 C 0.87903 0.15815 0.35843 0.0
C1220 C 0.95437 0.16764 0.34131 0.0
H1221 H 0.15669 0.24542 0.35236 0.0
H1222 H 0.08392 0.20926 0.35502 0.0
H1223 H 0.00461 0.18826 0.33207 0.0
H1224 H 0.81658 0.04905 0.34856 0.0
H1225 H 0.88927 0.0893 0.34548 0.0
H1226 H 0.96245 0.19336 0.36359 0.0
C1227 C 0.09562 0.22872 0.34912 0.0
C1228 C -0.00436 0.19 0.33893 0.0
C1229 C 0.13743 0.24933 0.34753 0.0
C1230 C 0.83359 0.07931 0.35146 0.0
C1231 C 0.8752 0.10254 0.3496 0.0
C1232 C 0.97115 0.19237 0.35667 0.0
C1233 C 0.06923 0.23346 0.34327 0.0
C1234 C 0.02511 0.21299 0.34546 0.0
C1235 C 0.89819 0.14261 0.35285 0.0
C1236 C 0.94175 0.1681 0.35024 0.0
H1237 H 0.13963 0.29921 0.32816 0.0
H1238 H 0.06564 0.26201 0.33088 0.0
H1239 H 0.03445 0.23237 0.35945 0.0
H1240 H 0.82289 0.14837 0.36423 0.0
H1241 H 0.89596 0.18895 0.36104 0.0
C1242 C 0.66581 0.83699 0.51916 0.0
C1243 C 0.68386 0.81981 0.52454 0.0
C1244 C 0.68744 0.87844 0.51693 0.0
C1245 C 0.77601 0.97748 0.52326 0.0
H1246 H 0.77719 0.00434 0.49792 0.0
C1247 C 0.89188 0.13503 0.5097 0.0
C1248 C 0.87656 0.1552 0.50438 0.0
C1249 C 0.868 0.09353 0.51159 0.0
C1250 C 0.77682 -0.00265 0.50502 0.0
H1251 H 0.73786 0.83189 0.53197 0.0
H1252 H 0.77535 0.90494 0.5284 0.0
H1253 H 0.7345 0.93377 0.503 0.0
H1254 H 0.82502 0.14664 0.49634 0.0
H1255 H 0.7833 0.07352 0.49956 0.0
H1256 H 0.81841 0.04087 0.5253 0.0
C1257 C 0.74454 0.8865 0.52589 0.0
C1258 C 0.75233 0.95701 0.50794 0.0
C1259 C 0.72314 0.84485 0.52798 0.0
C1260 C 0.83775 0.13208 0.50046 0.0
C1261 C 0.81383 0.09023 0.50232 0.0
C1262 C 0.80043 0.01773 0.52035 0.0
C1263 C 0.72736 0.9035 0.52013 0.0
C1264 C 0.75185 0.94661 0.51709 0.0
C1265 C 0.82823 0.07092 0.50818 0.0
C1266 C 0.80141 0.02808 0.51118 0.0
H1267 H 0.63588 0.81786 0.51625 0.0
H1268 H 0.6733 0.89069 0.51254 0.0
H1269 H 0.77589 0.97055 0.53036 0.0
H1270 H 0.92177 0.15168 0.51277 0.0
H1271 H 0.88033 0.07932 0.51594 0.0
C1272 C 0.88656 0.75064 0.69139 0.0
C1273 C 0.86727 0.70802 0.69224 0.0
C1274 C 0.86386 0.76961 0.68949 0.0
C1275 C 0.77403 0.75204 0.67729 0.0
H1276 H 0.78714 0.84763 0.68986 0.0
C1277 C 0.67929 0.83044 0.66884 0.0
C1278 C 0.69736 0.87247 0.67052 0.0
C1279 C 0.70007 0.80958 0.671 0.0
C1280 C 0.78363 0.82143 0.68615 0.0
H1281 H 0.80901 0.65186 0.69202 0.0
H1282 H 0.76922 0.68516 0.68855 0.0
H1283 H 0.82165 0.81236 0.69547 0.0
H1284 H 0.7524 0.92627 0.67499 0.0
H1285 H 0.7894 0.8906 0.67827 0.0
H1286 H 0.7372 0.7618 0.66777 0.0
C1287 C 0.8019 0.70377 0.68945 0.0
C1288 C 0.80311 0.80101 0.68945 0.0
C1289 C 0.82457 0.68483 0.69155 0.0
C1290 C 0.73762 0.89378 0.6737 0.0
C1291 C 0.75859 0.87315 0.6757 0.0
C1292 C 0.75497 0.77285 0.6739 0.0
C1293 C 0.82151 0.74625 0.68821 0.0
C1294 C 0.7986 0.7662 0.68505 0.0
C1295 C 0.7395 0.83051 0.67477 0.0
C1296 C 0.75974 0.80804 0.67825 0.0
H1297 H 0.91947 0.76916 0.69181 0.0
H1298 H 0.87972 0.80239 0.68854 0.0
H1299 H 0.77054 0.72554 0.6737 0.0
H1300 H 0.6481 0.81319 0.66647 0.0
H1301 H 0.68426 0.77676 0.67019 0.0
C1302 C 0.83524 0.68005 0.84061 0.0
C1303 C 0.81711 0.70201 0.83729 0.0
C1304 C 0.87684 0.70025 0.84277 0.0
C1305 C 0.97487 0.79274 0.83849 0.0
H1306 H 0.00387 0.77794 0.86276 0.0
C1307 C 0.13663 0.89666 0.8518 0.0
C1308 C 0.15517 0.87859 0.85674 0.0
C1309 C 0.09484 0.87514 0.85 0.0
C1310 C -0.00356 0.78207 0.85592 0.0
H1311 H 0.82801 0.76173 0.8334 0.0
H1312 H 0.90123 0.79676 0.83667 0.0
H1313 H 0.93291 0.73847 0.85775 0.0
H1314 H 0.14375 0.82435 0.8641 0.0
H1315 H 0.07066 0.78645 0.86089 0.0
H1316 H 0.03809 0.83556 0.83652 0.0
C1317 C 0.88329 0.76409 0.8377 0.0
C1318 C 0.95578 0.75945 0.85306 0.0
C1319 C 0.84154 0.74409 0.83577 0.0
C1320 C 0.13041 0.83924 0.8603 0.0
C1321 C 0.08845 0.81749 0.85844 0.0
C1322 C 0.0155 0.81496 0.8413 0.0
C1323 C 0.90115 0.7426 0.84145 0.0
C1324 C 0.94456 0.76481 0.84434 0.0
C1325 C 0.07037 0.83474 0.85302 0.0
C1326 C 0.02686 0.81033 0.85009 0.0
H1327 H 0.81674 0.64776 0.84207 0.0
H1328 H 0.88985 0.68295 0.84563 0.0
H1329 H 0.96716 0.79719 0.8317 0.0
H1330 H 0.1547 0.92707 0.84902 0.0
H1331 H 0.08191 0.88998 0.84605 0.0
C1332 C 0.40814 0.08869 0.94086 0.0
C1333 C 0.40405 0.10648 0.93288 0.0
C1334 C 0.40284 0.10214 0.94931 0.0
C1335 C 0.42646 0.19701 0.95935 0.0
H1336 H 0.35716 0.13847 0.97968 0.0
C1337 C 0.40637 0.28126 0.98927 0.0
C1338 C 0.39745 0.26369 0.99792 0.0
C1339 C 0.40994 0.26027 0.9819 0.0
C1340 C 0.37737 0.15516 0.97414 0.0
H1341 H 0.3895 0.15068 0.92742 0.0
H1342 H 0.38076 0.17456 0.94216 0.0
H1343 H 0.35261 0.10182 0.96568 0.0
H1344 H 0.38744 0.21091 1.00571 0.0
H1345 H 0.39465 0.17442 0.99283 0.0
H1346 H 0.45223 0.25002 0.96771 0.0
C1347 C 0.38737 0.14983 0.94189 0.0
C1348 C 0.37441 0.13416 0.96611 0.0
C1349 C 0.3918 0.13581 0.93347 0.0
C1350 C 0.39439 0.22536 0.99912 0.0
C1351 C 0.39802 0.20423 0.99171 0.0
C1352 C 0.42997 0.2178 0.96739 0.0
C1353 C 0.39442 0.13426 0.94987 0.0
C1354 C 0.39825 0.15519 0.95858 0.0
C1355 C 0.40494 0.22106 0.98296 0.0
C1356 C 0.40474 0.19749 0.97483 0.0
H1357 H 0.41853 0.06673 0.94056 0.0
H1358 H 0.40858 0.08979 0.95537 0.0
H1359 H 0.4459 0.21371 0.9537 0.0
H1360 H 0.40905 0.31076 0.98809 0.0
H1361 H 0.41476 0.27422 0.9753 0.0
C1362 C 0.09936 0.3894 0.15463 0.0
C1363 C 0.11343 0.39578 0.1636 0.0
C1364 C 0.12557 0.39488 0.14747 0.0
C1365 C 0.22961 0.44288 0.13932 0.0
H1366 H 0.18918 0.3463 0.12431 0.0
C1367 C 0.3202 0.4415 0.10807 0.0
C1368 C 0.29716 0.42379 0.10022 0.0
C1369 C 0.30109 0.43517 0.11649 0.0
C1370 C 0.20086 0.37372 0.12835 0.0
H1371 H 0.16715 0.41617 0.17198 0.0
H1372 H 0.21346 0.42675 0.1593 0.0
H1373 H 0.15042 0.34548 0.13752 0.0
H1374 H 0.23636 0.38405 0.09511 0.0
H1375 H 0.20285 0.3731 0.1097 0.0
H1376 H 0.27906 0.47193 0.12993 0.0
C1377 C 0.18175 0.41681 0.15792 0.0
C1378 C 0.17869 0.37313 0.13595 0.0
C1379 C 0.15526 0.41084 0.16516 0.0
C1380 C 0.25498 0.39742 0.10106 0.0
C1381 C 0.23578 0.39137 0.10946 0.0
C1382 C 0.25159 0.44373 0.13161 0.0
C1383 C 0.16669 0.40741 0.14904 0.0
C1384 C 0.19247 0.40784 0.14143 0.0
C1385 C 0.2584 0.41125 0.11725 0.0
C1386 C 0.23719 0.40928 0.12593 0.0
H1387 H 0.06753 0.37834 0.15313 0.0
H1388 H 0.11336 0.38819 0.14067 0.0
H1389 H 0.24079 0.4701 0.14342 0.0
H1390 H 0.3528 0.46212 0.1076 0.0
H1391 H 0.31971 0.45021 0.12234 0.0
C1392 C 0.80586 0.26295 0.26707 0.0
C1393 C 0.84683 0.29085 0.26503 0.0
C1394 C 0.79444 0.24625 0.27568 0.0
C1395 C 0.82919 0.22512 0.29709 0.0
H1396 H 0.73288 0.22425 0.3064 0.0
C1397 C 0.76003 0.15833 0.3324 0.0
C1398 C 0.71797 0.13007 0.33216 0.0
C1399 C 0.77949 0.18363 0.32494 0.0
C1400 C 0.75978 0.22422 0.3039 0.0
H1401 H 0.90837 0.32162 0.27026 0.0
H1402 H 0.88842 0.29133 0.28547 0.0
H1403 H 0.76085 0.25559 0.2918 0.0
H1404 H 0.66302 0.10766 0.32417 0.0
H1405 H 0.69653 0.15228 0.31132 0.0
H1406 H 0.82739 0.19282 0.30916 0.0
C1407 C 0.86517 0.28275 0.28035 0.0
C1408 C 0.77578 0.2421 0.29553 0.0
C1409 C 0.87666 0.29984 0.27165 0.0
C1410 C 0.69546 0.12913 0.32454 0.0
C1411 C 0.71469 0.15483 0.31719 0.0
C1412 C 0.81311 0.20716 0.30551 0.0
C1413 C 0.82369 0.25685 0.28252 0.0
C1414 C 0.81 0.24179 0.29189 0.0
C1415 C 0.75709 0.18171 0.31719 0.0
C1416 C 0.77759 0.20561 0.3089 0.0
H1417 H 0.78227 0.25555 0.26207 0.0
H1418 H 0.7624 0.22569 0.27705 0.0
H1419 H 0.85552 0.22435 0.29447 0.0
H1420 H 0.7782 0.15943 0.33816 0.0
H1421 H 0.81214 0.20422 0.32518 0.0
C1422 C 0.53726 0.87698 0.44053 0.0
C1423 C 0.54809 0.86474 0.43254 0.0
C1424 C 0.54317 0.86389 0.44895 0.0
C1425 C 0.59047 0.80828 0.46014 0.0
H1426 H 0.50397 0.77918 0.47769 0.0
C1427 C 0.56391 0.69651 0.48873 0.0
C1428 C 0.56457 0.71067 0.49754 0.0
C1429 C 0.55986 0.71674 0.48127 0.0
C1430 C 0.52846 0.78745 0.47288 0.0
H1431 H 0.57433 0.83006 0.42706 0.0
H1432 H 0.58388 0.80636 0.44163 0.0
H1433 H 0.50489 0.81469 0.46382 0.0
H1434 H 0.55846 0.75556 0.50543 0.0
H1435 H 0.55068 0.79077 0.49228 0.0
H1436 H 0.61279 0.77925 0.46903 0.0
C1437 C 0.57204 0.82713 0.44153 0.0
C1438 C 0.52928 0.80811 0.46494 0.0
C1439 C 0.56679 0.84086 0.43314 0.0
C1440 C 0.55794 0.74381 0.49874 0.0
C1441 C 0.55366 0.76405 0.49122 0.0
C1442 C 0.5892 0.78707 0.46797 0.0
C1443 C 0.55923 0.83745 0.44956 0.0
C1444 C 0.56009 0.81845 0.45839 0.0
C1445 C 0.55614 0.75155 0.48241 0.0
C1446 C 0.55795 0.77598 0.47437 0.0
H1447 H 0.52222 0.89493 0.44022 0.0
H1448 H 0.5338 0.87339 0.45495 0.0
H1449 H 0.61529 0.81646 0.45544 0.0
H1450 H 0.56839 0.67076 0.48755 0.0
H1451 H 0.56098 0.70591 0.47456 0.0
C1452 C 0.71869 0.5535 0.59943 0.0
C1453 C 0.68363 0.55683 0.5984 0.0
C1454 C 0.73648 0.558 0.60791 0.0
C1455 C 0.74357 0.59627 0.63108 0.0
H1456 H 0.77056 0.51244 0.63677 0.0
C1457 C 0.8131 0.59013 0.66563 0.0
C1458 C 0.84831 0.58674 0.66486 0.0
C1459 C 0.78775 0.58295 0.65813 0.0
C1460 C 0.76331 0.53613 0.63529 0.0
H1461 H 0.64025 0.56865 0.6053 0.0
H1462 H 0.6724 0.57813 0.62021 0.0
H1463 H 0.73887 0.5107 0.62234 0.0
H1464 H 0.88328 0.57092 0.65583 0.0
H1465 H 0.83887 0.55757 0.64286 0.0
H1466 H 0.76888 0.62213 0.64399 0.0
C1467 C 0.68606 0.57199 0.61444 0.0
C1468 C 0.74527 0.53523 0.627 0.0
C1469 C 0.66789 0.56698 0.60592 0.0
C1470 C 0.85641 0.57387 0.65662 0.0
C1471 C 0.83082 0.56605 0.64919 0.0
C1472 C 0.76176 0.59723 0.63939 0.0
C1473 C 0.71967 0.56603 0.61557 0.0
C1474 C 0.73604 0.56579 0.6247 0.0
C1475 C 0.79676 0.5715 0.64978 0.0
C1476 C 0.77266 0.56764 0.64151 0.0
H1477 H 0.73076 0.54477 0.59376 0.0
H1478 H 0.76269 0.55384 0.60852 0.0
H1479 H 0.73682 0.62023 0.6295 0.0
H1480 H 0.80627 0.6003 0.67189 0.0
H1481 H 0.76154 0.58707 0.65882 0.0
C1482 C 0.27759 0.84861 0.82375 0.0
C1483 C 0.25603 0.84554 0.83171 0.0
C1484 C 0.25763 0.82418 0.81627 0.0
C1485 C 0.15867 0.73538 0.80842 0.0
H1486 H 0.19679 0.78935 0.78529 0.0
C1487 C 0.10108 0.65116 0.77428 0.0
C1488 C 0.1029 0.67351 0.76652 0.0
C1489 C 0.11471 0.67053 0.78263 0.0
C1490 C 0.18511 0.77392 0.79168 0.0
H1491 H 0.19694 0.81327 0.83821 0.0
H1492 H 0.16162 0.77156 0.82508 0.0
H1493 H 0.23159 0.82438 0.79896 0.0
H1494 H 0.11699 0.73309 0.76165 0.0
H1495 H 0.13866 0.76661 0.7763 0.0
H1496 H 0.11108 0.68554 0.80111 0.0
C1497 C 0.1942 0.79212 0.82463 0.0
C1498 C 0.20579 0.79379 0.79956 0.0
C1499 C 0.21443 0.81607 0.83219 0.0
C1500 C 0.11496 0.71494 0.76749 0.0
C1501 C 0.12824 0.73431 0.77588 0.0
C1502 C 0.13764 0.71566 0.80052 0.0
C1503 C 0.2153 0.79666 0.81647 0.0
C1504 C 0.19313 0.77479 0.80806 0.0
C1505 C 0.13002 0.71276 0.78348 0.0
C1506 C 0.15064 0.73456 0.79202 0.0
H1507 H 0.3098 0.87078 0.82321 0.0
H1508 H 0.27537 0.82769 0.81026 0.0
H1509 H 0.14806 0.71945 0.81479 0.0
H1510 H 0.09176 0.6191 0.77376 0.0
H1511 H 0.1156 0.6527 0.78825 0.0
C1512 C 0.81512 0.55705 0.92853 0.0
C1513 C 0.85272 0.55838 0.92921 0.0
C1514 C 0.80044 0.56062 0.92013 0.0
C1515 C 0.82696 0.59274 0.89647 0.0
H1516 H 0.71484 0.50886 0.89206 0.0
C1517 C 0.7472 0.58105 0.86229 0.0
C1518 C 0.70874 0.57794 0.86315 0.0
C1519 C 0.76593 0.57465 0.8698 0.0
C1520 C 0.74611 0.53259 0.89318 0.0
H1521 H 0.9052 0.56582 0.92178 0.0
H1522 H 0.88028 0.57386 0.90703 0.0
H1523 H 0.74695 0.51032 0.90642 0.0
H1524 H 0.65865 0.56305 0.87233 0.0
H1525 H 0.69073 0.55122 0.88532 0.0
H1526 H 0.82575 0.61561 0.88329 0.0
C1527 C 0.86213 0.56995 0.913 0.0
C1528 C 0.76447 0.53351 0.90143 0.0
C1529 C 0.87659 0.56576 0.92142 0.0
C1530 C 0.68833 0.56575 0.87148 0.0
C1531 C 0.70672 0.55883 0.87892 0.0
C1532 C 0.80847 0.59197 0.88821 0.0
C1533 C 0.82317 0.5658 0.91223 0.0
C1534 C 0.80484 0.56404 0.90324 0.0
C1535 C 0.74626 0.56439 0.87826 0.0
C1536 C 0.76754 0.56231 0.88654 0.0
H1537 H 0.79578 0.55035 0.93442 0.0
H1538 H 0.77055 0.5578 0.91978 0.0
H1539 H 0.85809 0.61662 0.89767 0.0
H1540 H 0.76381 0.5907 0.85597 0.0
H1541 H 0.7962 0.57871 0.86903 0.0
C1542 C 0.25506 0.85349 0.09463 0.0
C1543 C 0.29698 0.86727 0.09528 0.0
C1544 C 0.23466 0.83944 0.08636 0.0
C1545 C 0.25135 0.83078 0.0615 0.0
H1546 H 0.14284 0.73676 0.06333 0.0
C1547 C 0.15136 0.75431 0.02985 0.0
C1548 C 0.12112 0.71295 0.03029 0.0
C1549 C 0.17487 0.77433 0.03746 0.0
C1550 C 0.17338 0.76254 0.06264 0.0
H1551 H 0.35094 0.88042 0.0876 0.0
H1552 H 0.31567 0.85505 0.07336 0.0
H1553 H 0.17886 0.77131 0.07692 0.0
H1554 H 0.09409 0.65933 0.03885 0.0
H1555 H 0.1366 0.69323 0.0519 0.0
H1556 H 0.2468 0.82044 0.04725 0.0
C1557 C 0.29817 0.85526 0.07912 0.0
C1558 C 0.19384 0.78312 0.07049 0.0
C1559 C 0.31854 0.86975 0.08733 0.0
C1560 C 0.11679 0.69139 0.03833 0.0
C1561 C 0.14092 0.7111 0.04587 0.0
C1562 C 0.23116 0.80974 0.05365 0.0
C1563 C 0.25562 0.83848 0.07855 0.0
C1564 C 0.23314 0.81769 0.07007 0.0
C1565 C 0.16939 0.75325 0.04567 0.0
C1566 C 0.19176 0.77527 0.05407 0.0
H1567 H 0.23747 0.85091 0.10061 0.0
H1568 H 0.20213 0.82795 0.08618 0.0
H1569 H 0.28132 0.85745 0.06082 0.0
H1570 H 0.15544 0.77179 0.02375 0.0
H1571 H 0.19608 0.80676 0.03697 0.0
C1572 C 0.38909 0.25726 0.26158 0.0
C1573 C 0.41852 0.2987 0.26262 0.0
C1574 C 0.38238 0.23842 0.25309 0.0
C1575 C 0.43927 0.24589 0.23267 0.0
H1576 H 0.33475 0.17293 0.22167 0.0
C1577 C 0.40984 0.1259 0.20464 0.0
C1578 C 0.38827 0.127 0.19704 0.0
C1579 C 0.41541 0.15085 0.21211 0.0
C1580 C 0.36413 0.19341 0.22466 0.0
H1581 H 0.46121 0.35359 0.25542 0.0
H1582 H 0.44988 0.32065 0.2407 0.0
H1583 H 0.33736 0.20783 0.23585 0.0
H1584 H 0.35588 0.15517 0.19122 0.0
H1585 H 0.3643 0.19776 0.20446 0.0
H1586 H 0.46595 0.2303 0.22167 0.0
C1587 C 0.43238 0.30263 0.24645 0.0
C1588 C 0.36559 0.21314 0.23278 0.0
C1589 C 0.43863 0.3215 0.25486 0.0
C1590 C 0.37316 0.1542 0.19695 0.0
C1591 C 0.37763 0.17824 0.20454 0.0
C1592 C 0.43775 0.22545 0.22467 0.0
C1593 C 0.40523 0.26062 0.24552 0.0
C1594 C 0.4032 0.23975 0.23685 0.0
C1595 C 0.39832 0.17636 0.21224 0.0
C1596 C 0.40018 0.19913 0.22057 0.0
H1597 H 0.37346 0.23874 0.26742 0.0
H1598 H 0.3612 0.20596 0.25257 0.0
H1599 H 0.46869 0.2659 0.23571 0.0
H1600 H 0.42155 0.105 0.20489 0.0
H1601 H 0.43145 0.14882 0.21797 0.0
C1602 C 0.0893 0.40965 0.42099 0.0
C1603 C 0.11578 0.42301 0.42843 0.0
C1604 C 0.1035 0.40617 0.41244 0.0
C1605 C 0.19936 0.45278 0.39956 0.0
H1606 H 0.14426 0.3625 0.38289 0.0
C1607 C 0.28108 0.43385 0.36871 0.0
C1608 C 0.25911 0.41622 0.36074 0.0
C1609 C 0.26143 0.43663 0.37645 0.0
C1610 C 0.15973 0.38833 0.38739 0.0
H1611 H 0.1771 0.44202 0.43291 0.0
H1612 H 0.20176 0.43579 0.4181 0.0
H1613 H 0.11286 0.36036 0.3975 0.0
H1614 H 0.19918 0.38902 0.35461 0.0
H1615 H 0.16485 0.39436 0.36812 0.0
H1616 H 0.24608 0.481 0.38954 0.0
C1617 C 0.17019 0.428 0.41879 0.0
C1618 C 0.14177 0.38695 0.39578 0.0
C1619 C 0.15594 0.43099 0.42729 0.0
C1620 C 0.21712 0.40297 0.36061 0.0
C1621 C 0.19733 0.40558 0.3684 0.0
C1622 C 0.21711 0.45431 0.39118 0.0
C1623 C 0.14457 0.41679 0.4112 0.0
C1624 C 0.16181 0.41881 0.40203 0.0
C1625 C 0.21912 0.4218 0.37648 0.0
C1626 C 0.198 0.42178 0.38503 0.0
H1627 H 0.05849 0.40421 0.42168 0.0
H1628 H 0.08306 0.39749 0.40672 0.0
H1629 H 0.21516 0.47829 0.40414 0.0
H1630 H 0.31343 0.44437 0.36906 0.0
H1631 H 0.27928 0.44893 0.38253 0.0
C1632 C 0.81388 0.22332 0.52964 0.0
C1633 C 0.85256 0.25832 0.53063 0.0
C1634 C 0.78849 0.2055 0.5372 0.0
C1635 C 0.77628 0.22872 0.56115 0.0
H1636 H 0.71282 0.11124 0.56398 0.0
C1637 C 0.67421 0.16231 0.59184 0.0
C1638 C 0.66709 0.12554 0.59588 0.0
C1639 C 0.69331 0.17487 0.58352 0.0
C1640 C 0.7308 0.14409 0.56334 0.0
H1641 H 0.89414 0.30268 0.54028 0.0
H1642 H 0.85107 0.27173 0.55327 0.0
H1643 H 0.75144 0.14058 0.55003 0.0
H1644 H 0.67721 0.07435 0.59428 0.0
H1645 H 0.71413 0.09834 0.57986 0.0
H1646 H 0.75874 0.23301 0.57453 0.0
C1647 C 0.83958 0.258 0.54673 0.0
C1648 C 0.75238 0.16096 0.55527 0.0
C1649 C 0.86463 0.27572 0.53925 0.0
C1650 C 0.68173 0.1026 0.59139 0.0
C1651 C 0.70244 0.11614 0.58306 0.0
C1652 C 0.7557 0.21206 0.56922 0.0
C1653 C 0.80125 0.22246 0.54587 0.0
C1654 C 0.77564 0.20361 0.5541 0.0
C1655 C 0.70868 0.15274 0.57905 0.0
C1656 C 0.7322 0.1695 0.57045 0.0
H1657 H 0.80373 0.20904 0.5231 0.0
H1658 H 0.759 0.17844 0.53624 0.0
H1659 H 0.79302 0.26163 0.5605 0.0
H1660 H 0.6655 0.18235 0.59513 0.0
H1661 H 0.69618 0.20251 0.58066 0.0
C1662 C 0.52548 0.65047 0.75419 0.0
C1663 C 0.54524 0.67408 0.76186 0.0
C1664 C 0.53092 0.66871 0.74572 0.0
C1665 C 0.59478 0.75925 0.73189 0.0
H1666 H 0.4926 0.73467 0.72053 0.0
C1667 C 0.58583 0.81601 0.696 0.0
C1668 C 0.56628 0.83925 0.6958 0.0
C1669 C 0.58263 0.79264 0.70363 0.0
C1670 C 0.52132 0.74163 0.7236 0.0
H1671 H 0.58869 0.73489 0.76648 0.0
H1672 H 0.5994 0.76669 0.75153 0.0
H1673 H 0.49185 0.70091 0.73469 0.0
H1674 H 0.5263 0.8546 0.70315 0.0
H1675 H 0.51901 0.8121 0.7163 0.0
H1676 H 0.62417 0.79995 0.72075 0.0
C1677 C 0.57928 0.73406 0.75215 0.0
C1678 C 0.52095 0.72221 0.73168 0.0
C1679 C 0.57346 0.71581 0.76069 0.0
C1680 C 0.54153 0.8368 0.70313 0.0
C1681 C 0.53743 0.81258 0.71064 0.0
C1682 C 0.59514 0.77808 0.72371 0.0
C1683 C 0.55676 0.71093 0.74466 0.0
C1684 C 0.55767 0.73093 0.73593 0.0
C1685 C 0.55895 0.79127 0.71109 0.0
C1686 C 0.55842 0.76962 0.71951 0.0
H1687 H 0.50374 0.61819 0.75487 0.0
H1688 H 0.51374 0.65 0.74004 0.0
H1689 H 0.62349 0.7666 0.73502 0.0
H1690 H 0.60554 0.8178 0.69049 0.0
H1691 H 0.59932 0.77629 0.70379 0.0
C1692 C 0.52429 0.36137 0.03101 0.0
C1693 C 0.49793 0.37704 0.02991 0.0
C1694 C 0.56562 0.38576 0.02897 0.0
C1695 C 0.65249 0.48292 0.02406 0.0
H1696 H 0.6548 0.43883 1.00053 0.0
C1697 C 0.79142 0.56483 1.00056 0.0
C1698 C 0.80443 0.53927 0.99676 0.0
C1699 C 0.75307 0.54807 1.00461 0.0
C1700 C 0.6549 0.4513 1.00712 0.0
H1701 H 0.49419 0.43134 0.02711 0.0
H1702 H 0.56672 0.47413 0.02373 0.0
H1703 H 0.59412 0.40376 1.00993 0.0
H1704 H 0.78715 0.47664 0.99373 0.0
H1705 H 0.72076 0.44741 1.00081 0.0
H1706 H 0.71381 0.52992 0.02139 0.0
C1707 C 0.5554 0.44308 0.02602 0.0
C1708 C 0.6203 0.43117 1.01248 0.0
C1709 C 0.51401 0.41852 0.02784 0.0
C1710 C 0.77763 0.49705 0.99651 0.0
C1711 C 0.73957 0.48032 1.0006 0.0
C1712 C 0.68765 0.50278 0.01875 0.0
C1713 C 0.58083 0.42613 0.02607 0.0
C1714 C 0.61903 0.44666 0.02098 0.0
C1715 C 0.72736 0.50553 1.00493 0.0
C1716 C 0.68922 0.48693 1.01024 0.0
H1717 H 0.51249 0.32951 0.03265 0.0
H1718 H 0.58503 0.37229 0.02897 0.0
H1719 H 0.65151 0.49549 0.03056 0.0
H1720 H 0.81149 0.5976 1.00072 0.0
H1721 H 0.74407 0.56828 1.00772 0.0
C1722 C 0.06975 0.51276 0.19236 0.0
C1723 C 0.09733 0.49989 0.19479 0.0
C1724 C 0.08336 0.55387 0.19092 0.0
C1725 C 0.17623 0.65746 0.19097 0.0
H1726 H 0.12935 0.66732 0.16845 0.0
C1727 C 0.26407 0.78485 0.1655 0.0
C1728 C 0.2464 0.80884 0.16355 0.0
C1729 C 0.24155 0.74797 0.17003 0.0
C1730 C 0.14229 0.665 0.17479 0.0
H1731 H 0.16005 0.51962 0.19826 0.0
H1732 H 0.18465 0.59129 0.19508 0.0
H1733 H 0.09707 0.60271 0.17648 0.0
H1734 H 0.19128 0.81274 0.16412 0.0
H1735 H 0.15101 0.74677 0.17177 0.0
H1736 H 0.22318 0.71939 0.18879 0.0
C1737 C 0.15222 0.57004 0.1946 0.0
C1738 C 0.12369 0.6282 0.17947 0.0
C1739 C 0.13828 0.52892 0.19634 0.0
C1740 C 0.20518 0.79433 0.16556 0.0
C1741 C 0.18241 0.75703 0.16995 0.0
C1742 C 0.19521 0.69407 0.18619 0.0
C1743 C 0.12511 0.58264 0.19149 0.0
C1744 C 0.14099 0.62369 0.1875 0.0
C1745 C 0.20102 0.73452 0.1725 0.0
C1746 C 0.1788 0.69759 0.17797 0.0
H1747 H 0.03776 0.49089 0.19132 0.0
H1748 H 0.06147 0.56277 0.18885 0.0
H1749 H 0.18987 0.65524 0.19721 0.0
H1750 H 0.29601 0.7959 0.16409 0.0
H1751 H 0.25608 0.73051 0.17184 0.0
C1752 C 0.41985 0.22648 0.32748 0.0
C1753 C 0.4189 0.25521 0.33329 0.0
C1754 C 0.43532 0.20203 0.33054 0.0
C1755 C 0.46348 0.16771 0.35133 0.0
H1756 H 0.54105 0.1598 0.33556 0.0
C1757 C 0.58899 0.13058 0.36209 0.0
C1758 C 0.59049 0.10048 0.35683 0.0
C1759 C 0.56227 0.14445 0.35977 0.0
C1760 C 0.51912 0.1615 0.33998 0.0
H1761 H 0.43367 0.28168 0.34671 0.0
H1762 H 0.46098 0.23954 0.35198 0.0
H1763 H 0.50368 0.19238 0.33006 0.0
H1764 H 0.56427 0.06007 0.3453 0.0
H1765 H 0.51854 0.08502 0.3412 0.0
H1766 H 0.48054 0.13818 0.36138 0.0
C1767 C 0.44885 0.2349 0.34519 0.0
C1768 C 0.49757 0.17979 0.33682 0.0
C1769 C 0.43339 0.25913 0.34216 0.0
C1770 C 0.56402 0.08352 0.34944 0.0
C1771 C 0.53783 0.09767 0.34709 0.0
C1772 C 0.48543 0.14976 0.35452 0.0
C1773 C 0.45018 0.20632 0.3394 0.0
C1774 C 0.46981 0.18335 0.34249 0.0
C1775 C 0.53736 0.12869 0.35212 0.0
C1776 C 0.51343 0.14675 0.34886 0.0
H1777 H 0.40852 0.22285 0.32063 0.0
H1778 H 0.43585 0.17996 0.32597 0.0
H1779 H 0.44191 0.16978 0.3558 0.0
H1780 H 0.60896 0.14395 0.36784 0.0
H1781 H 0.56228 0.1686 0.3637 0.0
C1782 C 0.19217 0.47809 0.49517 0.0
C1783 C 0.16803 0.43551 0.49487 0.0
C1784 C 0.22897 0.49619 0.49979 0.0
C1785 C 0.27692 0.47256 0.51857 0.0
H1786 H 0.36814 0.57904 0.51259 0.0
C1787 C 0.44476 0.55743 0.5301 0.0
C1788 C 0.46095 0.59896 0.53208 0.0
C1789 C 0.40342 0.53301 0.5283 0.0
C1790 C 0.34239 0.54961 0.5144 0.0
H1791 H 0.16498 0.37827 0.49819 0.0
H1792 H 0.23053 0.41009 0.50603 0.0
H1793 H 0.31281 0.54455 0.50185 0.0
H1794 H 0.44666 0.64664 0.53486 0.0
H1795 H 0.3742 0.60416 0.53118 0.0
H1796 H 0.30867 0.47714 0.53093 0.0
C1797 C 0.22024 0.42942 0.503 0.0
C1798 C 0.31091 0.52975 0.50824 0.0
C1799 C 0.18309 0.41126 0.49844 0.0
C1800 C 0.43471 0.6147 0.53328 0.0
C1801 C 0.39341 0.59047 0.53125 0.0
C1802 C 0.30909 0.49217 0.52467 0.0
C1803 C 0.24252 0.472 0.50408 0.0
C1804 C 0.27764 0.4912 0.51028 0.0
C1805 C 0.37827 0.55028 0.52824 0.0
C1806 C 0.34166 0.53099 0.52263 0.0
H1807 H 0.18096 0.49742 0.49256 0.0
H1808 H 0.24515 0.52905 0.50054 0.0
H1809 H 0.25134 0.44314 0.52041 0.0
H1810 H 0.46455 0.54461 0.52928 0.0
H1811 H 0.3922 0.50209 0.52594 0.0
C1812 C 0.84312 0.45304 0.69595 0.0
C1813 C 0.87656 0.48475 0.69142 0.0
C1814 C 0.83018 0.41251 0.69376 0.0
C1815 C 0.82279 0.35598 0.67408 0.0
H1816 H 0.79405 0.2639 0.68992 0.0
C1817 C 0.74427 0.19146 0.66067 0.0
C1818 C 0.71204 0.16307 0.66603 0.0
C1819 C 0.77062 0.23043 0.66403 0.0
C1820 C 0.80183 0.28938 0.68543 0.0
H1821 H 0.92471 0.49919 0.68163 0.0
H1822 H 0.90139 0.42854 0.67769 0.0
H1823 H 0.82939 0.33314 0.69609 0.0
H1824 H 0.68084 0.15264 0.67888 0.0
H1825 H 0.72582 0.22071 0.68464 0.0
H1826 H 0.79336 0.31271 0.66353 0.0
C1827 C 0.88529 0.43507 0.68289 0.0
C1828 C 0.82208 0.32876 0.68896 0.0
C1829 C 0.89839 0.47537 0.68512 0.0
C1830 C 0.70597 0.17408 0.67469 0.0
C1831 C 0.73192 0.21286 0.67801 0.0
C1832 C 0.80208 0.31669 0.67058 0.0
C1833 C 0.85043 0.40353 0.68698 0.0
C1834 C 0.83224 0.36217 0.68331 0.0
C1835 C 0.76465 0.24137 0.67275 0.0
C1836 C 0.79081 0.28299 0.67625 0.0
H1837 H 0.82607 0.45951 0.70091 0.0
H1838 H 0.80306 0.38839 0.69696 0.0
H1839 H 0.82996 0.38151 0.66965 0.0
H1840 H 0.74948 0.18325 0.654 0.0
H1841 H 0.79576 0.25185 0.65985 0.0
C1842 C 0.5689 0.77026 0.83313 0.0
C1843 C 0.54425 0.73235 0.82895 0.0
C1844 C 0.55127 0.79151 0.83693 0.0
C1845 C 0.45468 0.79353 0.83853 0.0
H1846 H 0.48619 0.82254 0.86357 0.0
C1847 C 0.35132 0.81421 0.86266 0.0
C1848 C 0.36778 0.85633 0.86374 0.0
C1849 C 0.37664 0.79911 0.86001 0.0
C1850 C 0.4772 0.81428 0.8566 0.0
H1851 H 0.48251 0.68879 0.82476 0.0
H1852 H 0.45213 0.72585 0.83122 0.0
H1853 H 0.52584 0.80242 0.85392 0.0
H1854 H 0.42323 0.91515 0.86406 0.0
H1855 H 0.46771 0.88837 0.85983 0.0
H1856 H 0.40531 0.80407 0.84132 0.0
C1857 C 0.48494 0.73933 0.8316 0.0
C1858 C 0.50011 0.80352 0.85104 0.0
C1859 C 0.50244 0.71806 0.82786 0.0
C1860 C 0.41012 0.8825 0.86325 0.0
C1861 C 0.4355 0.86728 0.86087 0.0
C1862 C 0.43153 0.80359 0.84411 0.0
C1863 C 0.50889 0.77526 0.83651 0.0
C1864 C 0.48864 0.7925 0.84199 0.0
C1865 C 0.4185 0.82598 0.85871 0.0
C1866 C 0.44231 0.81339 0.85319 0.0
H1867 H 0.60142 0.78244 0.83387 0.0
H1868 H 0.57048 0.81966 0.84052 0.0
H1869 H 0.44558 0.78583 0.83155 0.0
H1870 H 0.31866 0.79368 0.86295 0.0
H1871 H 0.36319 0.7671 0.8583 0.0
C1872 C 0.54527 0.4691 0.83809 0.0
C1873 C 0.58279 0.48033 0.83393 0.0
C1874 C 0.51741 0.42823 0.83979 0.0
C1875 C 0.49325 0.32209 0.8359 0.0
H1876 H 0.47235 0.31112 0.86171 0.0
C1877 C 0.46695 0.18112 0.85529 0.0
C1878 C 0.43792 0.16605 0.86222 0.0
C1879 C 0.47741 0.21807 0.85116 0.0
C1880 C 0.47701 0.31345 0.85447 0.0
H1881 H 0.61909 0.45776 0.82749 0.0
H1882 H 0.5706 0.38608 0.83063 0.0
H1883 H 0.5006 0.37777 0.85465 0.0
H1884 H 0.39679 0.17666 0.87039 0.0
H1885 H 0.41519 0.2421 0.86316 0.0
H1886 H 0.47066 0.25779 0.83579 0.0
C1887 C 0.56266 0.40888 0.83253 0.0
C1888 C 0.49314 0.35163 0.85041 0.0
C1889 C 0.59057 0.44987 0.83081 0.0
C1890 C 0.41987 0.18851 0.86515 0.0
C1891 C 0.4302 0.22558 0.86098 0.0
C1892 C 0.47679 0.28378 0.83995 0.0
C1893 C 0.52669 0.39795 0.83738 0.0
C1894 C 0.50258 0.35648 0.84115 0.0
C1895 C 0.45863 0.24034 0.85384 0.0
C1896 C 0.4699 0.27941 0.84933 0.0
H1897 H 0.5381 0.492 0.84037 0.0
H1898 H 0.48952 0.42044 0.84339 0.0
H1899 H 0.49988 0.32505 0.82873 0.0
H1900 H 0.48076 0.1637 0.85291 0.0
H1901 H 0.50015 0.22912 0.84585 0.0
C1902 C 0.15627 0.62392 1.00446 0.0
C1903 C 0.11817 0.60828 1.0003 0.0
C1904 C 0.16893 0.59722 1.00756 0.0
C1905 C 0.15839 0.49757 1.0067 0.0
H1906 H 0.16482 0.50502 0.03286 0.0
C1907 C 0.20473 0.39977 0.02745 0.0
C1908 C 0.23974 0.42488 0.03258 0.0
C1909 C 0.18067 0.41514 0.02408 0.0
C1910 C 0.16286 0.50246 0.02557 0.0
H1911 H 0.06456 0.55403 0.9956 0.0
H1912 H 0.08805 0.50736 1.00041 0.0
H1913 H 0.14783 0.54971 0.02431 0.0
H1914 H 0.27489 0.48462 0.0388 0.0
H1915 H 0.23257 0.51063 0.03319 0.0
H1916 H 0.17541 0.45171 1.00791 0.0
C1917 C 0.10774 0.53989 1.00137 0.0
C1918 C 0.15355 0.52815 0.0207 0.0
C1919 C 0.09451 0.56642 0.99856 0.0
C1920 C 0.24795 0.46417 0.03497 0.0
C1921 C 0.22368 0.47921 0.03173 0.0
C1922 C 0.16824 0.47212 1.01157 0.0
C1923 C 0.14398 0.555 1.00628 0.0
C1924 C 0.1524 0.52659 1.01125 0.0
C1925 C 0.1909 0.45549 0.02595 0.0
C1926 C 0.17168 0.47525 0.02103 0.0
H1927 H 0.17441 0.65613 1.00602 0.0
H1928 H 0.19695 0.60921 1.01139 0.0
H1929 H 0.15702 0.49576 0.9994 0.0
H1930 H 0.19693 0.36893 0.0257 0.0
H1931 H 0.15514 0.39614 0.01972 0.0
C1932 C 0.7817 0.27825 0.19366 0.0
C1933 C 0.80107 0.26061 0.19835 0.0
C1934 C 0.74517 0.25355 0.1892 0.0
C1935 C 0.65647 0.15314 0.1885 0.0
H1936 H 0.64905 0.18179 0.16367 0.0
C1937 C 0.50411 0.07351 0.17105 0.0
C1938 C 0.49306 0.10106 0.16753 0.0
C1939 C 0.54486 0.08603 0.17267 0.0
C1940 C 0.65077 0.17334 0.17058 0.0
H1941 H 0.79803 0.20424 0.20242 0.0
H1942 H 0.73255 0.16045 0.1949 0.0
H1943 H 0.71384 0.21875 0.17174 0.0
H1944 H 0.51565 0.16181 0.16211 0.0
H1945 H 0.58693 0.18449 0.16534 0.0
H1946 H 0.59319 0.10952 0.18762 0.0
C1947 C 0.74581 0.19328 0.19461 0.0
C1948 C 0.68767 0.19447 0.17518 0.0
C1949 C 0.78275 0.21809 0.19896 0.0
C1950 C 0.5235 0.14024 0.16494 0.0
C1951 C 0.56432 0.15301 0.16671 0.0
C1952 C 0.61953 0.13227 0.18394 0.0
C1953 C 0.72755 0.21095 0.18945 0.0
C1954 C 0.69033 0.18529 0.18426 0.0
C1955 C 0.57511 0.12655 0.17098 0.0
C1956 C 0.616 0.143 0.17502 0.0
H1957 H 0.7961 0.31111 0.19298 0.0
H1958 H 0.73115 0.26771 0.18537 0.0
H1959 H 0.65793 0.14571 0.19551 0.0
H1960 H 0.48114 0.04266 0.17285 0.0
H1961 H 0.55246 0.06468 0.17574 0.0
C1962 C 0.36723 0.53326 0.32954 0.0
C1963 C 0.37842 0.50347 0.33079 0.0
C1964 C 0.3951 0.574 0.33143 0.0
C1965 C 0.48076 0.62815 0.34684 0.0
H1966 H 0.47464 0.72181 0.33833 0.0
C1967 C 0.56319 0.79192 0.36224 0.0
C1968 C 0.53594 0.80578 0.36425 0.0
C1969 C 0.5495 0.75526 0.35764 0.0
C1970 C 0.47671 0.69581 0.34071 0.0
H1971 H 0.42844 0.49285 0.33376 0.0
H1972 H 0.47762 0.56416 0.33665 0.0
H1973 H 0.44467 0.65955 0.32927 0.0
H1974 H 0.47326 0.79223 0.36354 0.0
H1975 H 0.44927 0.72799 0.35541 0.0
H1976 H 0.51256 0.66463 0.35831 0.0
C1977 C 0.44697 0.55607 0.33465 0.0
C1978 C 0.45963 0.66032 0.33555 0.0
C1979 C 0.41888 0.51531 0.33299 0.0
C1980 C 0.49452 0.78163 0.36214 0.0
C1981 C 0.48101 0.74542 0.3574 0.0
C1982 C 0.49839 0.66386 0.3519 0.0
C1983 C 0.43468 0.58543 0.33443 0.0
C1984 C 0.46015 0.62561 0.33873 0.0
C1985 C 0.50871 0.73282 0.35488 0.0
C1986 C 0.49512 0.69726 0.34902 0.0
H1987 H 0.33622 0.52478 0.32778 0.0
H1988 H 0.3845 0.59579 0.33122 0.0
H1989 H 0.48117 0.60184 0.34959 0.0
H1990 H 0.59534 0.81053 0.3638 0.0
H1991 H 0.57111 0.74566 0.35578 0.0
C1992 C 0.70635 0.52697 0.51984 0.0
C1993 C 0.7111 0.54237 0.52864 0.0
C1994 C 0.7323 0.51403 0.51655 0.0
C1995 C 0.79947 0.4768 0.52423 0.0
H1996 H 0.82904 0.48836 0.49884 0.0
C1997 C 0.89708 0.41505 0.50984 0.0
C1998 C 0.87542 0.38343 0.50362 0.0
C1999 C 0.88343 0.44185 0.51206 0.0
C2000 C 0.82104 0.48519 0.50594 0.0
H2001 H 0.74653 0.55688 0.54093 0.0
H2002 H 0.7929 0.53455 0.53512 0.0
H2003 H 0.79464 0.52346 0.5049 0.0
H2004 H 0.82437 0.35689 0.49432 0.0
H2005 H 0.80053 0.40449 0.49821 0.0
H2006 H 0.82606 0.4387 0.52524 0.0
C2007 C 0.76868 0.53206 0.53081 0.0
C2008 C 0.80132 0.50502 0.50941 0.0
C2009 C 0.74228 0.54474 0.53414 0.0
C2010 C 0.84137 0.38077 0.4992 0.0
C2011 C 0.82794 0.40804 0.50136 0.0
C2012 C 0.81974 0.45761 0.5208 0.0
C2013 C 0.76379 0.51646 0.52198 0.0
C2014 C 0.78949 0.50021 0.51855 0.0
C2015 C 0.84821 0.43781 0.50802 0.0
C2016 C 0.82997 0.46112 0.51161 0.0
H2017 H 0.68206 0.52442 0.51553 0.0
H2018 H 0.72697 0.50116 0.50983 0.0
H2019 H 0.79013 0.47185 0.53125 0.0
H2020 H 0.92379 0.41825 0.51326 0.0
H2021 H 0.89951 0.46485 0.51717 0.0
C2022 C 0.19029 0.71004 0.69739 0.0
C2023 C 0.16616 0.72786 0.69904 0.0
C2024 C 0.22649 0.73145 0.69257 0.0
C2025 C 0.30736 0.82913 0.68563 0.0
H2026 H 0.31093 0.77179 0.66421 0.0
C2027 C 0.45462 0.89314 0.66649 0.0
C2028 C 0.46692 0.86438 0.66489 0.0
C2029 C 0.41379 0.88048 0.668 0.0
C2030 C 0.3104 0.78818 0.67016 0.0
H2031 H 0.16205 0.78275 0.69778 0.0
H2032 H 0.22669 0.821 0.68956 0.0
H2033 H 0.24954 0.74213 0.67358 0.0
H2034 H 0.44663 0.80044 0.66283 0.0
H2035 H 0.37537 0.77769 0.66616 0.0
H2036 H 0.36875 0.87374 0.68271 0.0
C2037 C 0.21702 0.79028 0.69184 0.0
C2038 C 0.27539 0.77124 0.67549 0.0
C2039 C 0.18045 0.76863 0.69657 0.0
C2040 C 0.43761 0.82303 0.6641 0.0
C2041 C 0.39678 0.81015 0.66593 0.0
C2042 C 0.3426 0.84576 0.6804 0.0
C2043 C 0.23915 0.77104 0.68948 0.0
C2044 C 0.27422 0.79112 0.68338 0.0
C2045 C 0.38487 0.83871 0.66836 0.0
C2046 C 0.34494 0.8249 0.67274 0.0
H2047 H 0.17955 0.67848 0.69917 0.0
H2048 H 0.24374 0.71652 0.69092 0.0
H2049 H 0.30681 0.84484 0.6917 0.0
H2050 H 0.47685 0.92538 0.66691 0.0
H2051 H 0.40536 0.90331 0.66951 0.0
C2052 C 0.36761 0.15419 0.12601 0.0
C2053 C 0.38077 0.1253 0.12603 0.0
C2054 C 0.38981 0.19057 0.12119 0.0
C2055 C 0.46646 0.23081 0.10237 0.0
H2056 H 0.36623 0.1831 0.08855 0.0
C2057 C 0.42857 0.28328 0.07129 0.0
C2058 C 0.38852 0.25536 0.06832 0.0
C2059 C 0.45056 0.26938 0.07618 0.0
C2060 C 0.39475 0.19593 0.09221 0.0
H2061 H 0.43646 0.12137 0.12431 0.0
H2062 H 0.47229 0.1819 0.11571 0.0
H2063 H 0.36283 0.17482 0.10457 0.0
H2064 H 0.35001 0.19147 0.06457 0.0
H2065 H 0.38761 0.16769 0.07347 0.0
H2066 H 0.49801 0.25197 0.0897 0.0
C2067 C 0.44392 0.17575 0.11886 0.0
C2068 C 0.39272 0.19251 0.10152 0.0
C2069 C 0.42204 0.1396 0.12368 0.0
C2070 C 0.37793 0.21403 0.06775 0.0
C2071 C 0.40034 0.20028 0.07261 0.0
C2072 C 0.46851 0.23473 0.09294 0.0
C2073 C 0.42459 0.19742 0.11632 0.0
C2074 C 0.42839 0.20986 0.10675 0.0
C2075 C 0.43243 0.22782 0.07817 0.0
C2076 C 0.43254 0.21707 0.08777 0.0
H2077 H 0.33821 0.14709 0.12868 0.0
H2078 H 0.37574 0.20892 0.11987 0.0
H2079 H 0.49446 0.24368 0.10623 0.0
H2080 H 0.44148 0.31588 0.07107 0.0
H2081 H 0.47731 0.29163 0.07982 0.0
C2082 C 0.14225 0.36736 0.23901 0.0
C2083 C 0.11832 0.38035 0.23441 0.0
C2084 C 0.17416 0.39483 0.24446 0.0
C2085 C 0.22745 0.48571 0.257 0.0
H2086 H 0.15402 0.4127 0.27533 0.0
C2087 C 0.22336 0.39922 0.29083 0.0
C2088 C 0.25977 0.40129 0.28799 0.0
C2089 C 0.21151 0.42577 0.28713 0.0
C2090 C 0.17476 0.43482 0.27051 0.0
H2091 H 0.11862 0.43415 0.22923 0.0
H2092 H 0.17029 0.48092 0.23979 0.0
H2093 H 0.13269 0.40334 0.25989 0.0
H2094 H 0.31543 0.43792 0.28024 0.0
H2095 H 0.29534 0.48238 0.27397 0.0
H2096 H 0.26955 0.51745 0.26764 0.0
C2097 C 0.16433 0.44985 0.23929 0.0
C2098 C 0.16246 0.42887 0.26156 0.0
C2099 C 0.13401 0.42273 0.23342 0.0
C2100 C 0.28675 0.43441 0.28256 0.0
C2101 C 0.27495 0.46063 0.27889 0.0
C2102 C 0.23936 0.4926 0.26608 0.0
C2103 C 0.18103 0.43467 0.24554 0.0
C2104 C 0.19022 0.45158 0.25471 0.0
C2105 C 0.23519 0.45363 0.28028 0.0
C2106 C 0.2153 0.46366 0.27275 0.0
H2107 H 0.13274 0.33534 0.23965 0.0
H2108 H 0.188 0.38299 0.24907 0.0
H2109 H 0.24854 0.50473 0.2518 0.0
H2110 H 0.20281 0.37547 0.29541 0.0
H2111 H 0.18185 0.42133 0.28894 0.0
C2112 C 0.8116 0.21227 0.4584 0.0
C2113 C 0.8402 0.2529 0.46069 0.0
C2114 C 0.77867 0.20428 0.45287 0.0
C2115 C 0.73739 0.2418 0.4359 0.0
H2116 H 0.80662 0.21786 0.42079 0.0
C2117 C 0.74694 0.15776 0.40227 0.0
C2118 C 0.70813 0.12459 0.40428 0.0
C2119 C 0.76011 0.19554 0.40641 0.0
C2120 C 0.78763 0.22603 0.42471 0.0
H2121 H 0.84586 0.31315 0.46199 0.0
H2122 H 0.79251 0.29995 0.45143 0.0
H2123 H 0.8208 0.22983 0.43661 0.0
H2124 H 0.65 0.1086 0.41073 0.0
H2125 H 0.67257 0.17239 0.41767 0.0
H2126 H 0.70359 0.23706 0.42392 0.0
C2127 C 0.79604 0.27466 0.4537 0.0
C2128 C 0.79525 0.23181 0.43388 0.0
C2129 C 0.82791 0.28236 0.45955 0.0
C2130 C 0.6805 0.13243 0.40905 0.0
C2131 C 0.69359 0.16999 0.4131 0.0
C2132 C 0.72977 0.23622 0.4266 0.0
C2133 C 0.77534 0.23696 0.44937 0.0
C2134 C 0.7686 0.23686 0.43961 0.0
C2135 C 0.73492 0.20006 0.41277 0.0
C2136 C 0.75291 0.22498 0.42103 0.0
H2137 H 0.81718 0.18735 0.4596 0.0
H2138 H 0.76135 0.1742 0.44989 0.0
H2139 H 0.71765 0.24752 0.4402 0.0
H2140 H 0.76835 0.15373 0.39817 0.0
H2141 H 0.79166 0.21917 0.40558 0.0
C2142 C 0.53867 0.69595 0.57063 0.0
C2143 C 0.58102 0.72304 0.57154 0.0
C2144 C 0.5106 0.70215 0.57546 0.0
C2145 C 0.49645 0.76849 0.59118 0.0
H2146 H 0.50163 0.70035 0.61012 0.0
C2147 C 0.5396 0.83512 0.62484 0.0
C2148 C 0.58192 0.85067 0.62372 0.0
C2149 C 0.51128 0.7998 0.62038 0.0
C2150 C 0.49769 0.71828 0.60493 0.0
H2151 H 0.62573 0.78222 0.57697 0.0
H2152 H 0.57685 0.79364 0.58495 0.0
H2153 H 0.50039 0.68131 0.59438 0.0
H2154 H 0.62641 0.83555 0.61839 0.0
H2155 H 0.57723 0.7737 0.61104 0.0
H2156 H 0.49821 0.80774 0.6017 0.0
C2157 C 0.56554 0.76693 0.58067 0.0
C2158 C 0.49701 0.70749 0.5959 0.0
C2159 C 0.59376 0.76018 0.57607 0.0
C2160 C 0.59452 0.82561 0.61943 0.0
C2161 C 0.56607 0.78964 0.6152 0.0
C2162 C 0.49577 0.77857 0.6002 0.0
C2163 C 0.52429 0.7364 0.58099 0.0
C2164 C 0.50081 0.73484 0.58903 0.0
C2165 C 0.52472 0.77856 0.615 0.0
C2166 C 0.50088 0.75581 0.60707 0.0
H2167 H 0.52692 0.66791 0.56692 0.0
H2168 H 0.47885 0.67834 0.57559 0.0
H2169 H 0.49939 0.78994 0.58597 0.0
H2170 H 0.5279 0.85183 0.62841 0.0
H2171 H 0.47945 0.79157 0.62036 0.0
C2172 C 0.82829 0.54831 0.73408 0.0
C2173 C 0.84331 0.59078 0.73442 0.0
C2174 C 0.79751 0.5223 0.74001 0.0
C2175 C 0.80078 0.55038 0.76165 0.0
H2176 H 0.69798 0.45866 0.76919 0.0
C2177 C 0.68022 0.54155 0.78422 0.0
C2178 C 0.70771 0.57537 0.7894 0.0
C2179 C 0.69215 0.51573 0.7804 0.0
C2180 C 0.72706 0.4843 0.76721 0.0
H2181 H 0.82674 0.63591 0.73853 0.0
H2182 H 0.77149 0.59011 0.74815 0.0
H2183 H 0.7156 0.46882 0.7531 0.0
H2184 H 0.76598 0.60261 0.7963 0.0
H2185 H 0.78723 0.55763 0.78947 0.0
H2186 H 0.81138 0.56924 0.77524 0.0
C2187 C 0.78605 0.57757 0.74396 0.0
C2188 C 0.73694 0.48988 0.758 0.0
C2189 C 0.81823 0.60407 0.73841 0.0
C2190 C 0.7449 0.57835 0.79191 0.0
C2191 C 0.7569 0.55225 0.78803 0.0
C2192 C 0.79058 0.54549 0.77073 0.0
C2193 C 0.78004 0.53851 0.74576 0.0
C2194 C 0.77244 0.52486 0.7552 0.0
C2195 C 0.73246 0.5239 0.78136 0.0
C2196 C 0.75155 0.51493 0.77352 0.0
H2197 H 0.84397 0.53589 0.73037 0.0
H2198 H 0.79208 0.49162 0.74103 0.0
H2199 H 0.82937 0.57663 0.75957 0.0
H2200 H 0.65096 0.53722 0.78213 0.0
H2201 H 0.67131 0.49353 0.77561 0.0
C2202 C 0.13989 0.7682 0.95236 0.0
C2203 C 0.11726 0.73252 0.95748 0.0
C2204 C 0.17591 0.77567 0.94815 0.0
C2205 C 0.18986 0.71542 0.93443 0.0
H2206 H 0.28766 0.81604 0.92815 0.0
C2207 C 0.20922 0.82722 0.90902 0.0
C2208 C 0.24681 0.85162 0.90465 0.0
C2209 C 0.20242 0.79288 0.9139 0.0
C2210 C 0.26133 0.78681 0.92981 0.0
H2211 H 0.11998 0.68235 0.96388 0.0
H2212 H 0.18019 0.69274 0.95562 0.0
H2213 H 0.26766 0.80101 0.94392 0.0
H2214 H 0.30283 0.85311 0.90053 0.0
H2215 H 0.29227 0.7958 0.90974 0.0
H2216 H 0.1793 0.70527 0.92022 0.0
C2217 C 0.17021 0.71493 0.95496 0.0
C2218 C 0.25 0.77828 0.93887 0.0
C2219 C 0.13514 0.70849 0.9595 0.0
C2220 C 0.27441 0.8368 0.90414 0.0
C2221 C 0.26816 0.80323 0.90928 0.0
C2222 C 0.2005 0.72462 0.92536 0.0
C2223 C 0.18918 0.74709 0.9488 0.0
C2224 C 0.21234 0.74439 0.94112 0.0
C2225 C 0.23335 0.78286 0.91468 0.0
C2226 C 0.23436 0.76219 0.92301 0.0
H2227 H 0.12769 0.78788 0.95071 0.0
H2228 H 0.19013 0.80077 0.94339 0.0
H2229 H 0.16056 0.68906 0.93604 0.0
H2230 H 0.18674 0.83677 0.90959 0.0
H2231 H 0.17524 0.77763 0.91806 0.0
loop_
_geom_bond_atom_site_label_1
_geom_bond_atom_site_label_2
_geom_bond_distance
_geom_bond_site_symmetry_2
_ccdc_geom_bond_type
C0 C1 1.359 . S
C0 N5 1.330 . S
C0 C61 1.504 . S
C1 C0 1.359 . S
C1 C2 1.366 . S
C1 H63 0.929 . S
C2 C1 1.366 . S
C2 C3 1.415 . S
C2 H64 0.932 . S
C3 C2 1.415 . S
C3 C4 1.366 . S
C3 H65 0.931 . S
C4 C3 1.366 . S
C4 N5 1.325 . S
C4 C6 1.516 . S
N5 C0 1.330 . S
N5 C4 1.325 . S
N5 Co21 1.869 . S
C6 C4 1.516 . S
C6 N30 1.316 . S
C6 O53 1.263 . S
C7 C8 1.421 . S
C7 C12 1.360 . S
C7 N30 1.436 . S
C8 C7 1.421 . S
C8 C9 1.379 . S
C8 H66 0.929 . S
C9 C8 1.379 . S
C9 C10 1.417 . S
C10 C9 1.417 . S
C10 C11 1.352 . S
C10 H67 0.929 . S
C11 C10 1.352 . S
C11 C12 1.393 . S
C12 C7 1.360 . S
C12 C11 1.393 . S
C12 H68 0.931 . S
Cd13 O33 2.350 . S
Cd13 O35 2.350 . S
Cd13 O36 2.277 . S
Cd13 O38 2.173 . S
Cd13 O42 2.263 . S
Cd13 O53 2.366 . S
Cd14 O32 2.352 . S
Cd14 O39 2.250 1_556 S
Cd14 O43 2.308 1_556 S
C15 C19 1.403 . S
C15 C20 1.370 . S
C15 N31 1.423 . S
C16 C17 1.389 . S
C16 C20 1.389 . S
C17 C16 1.389 . S
C17 C18 1.379 . S
C17 H69 0.929 . S
C18 C17 1.379 . S
C18 C19 1.405 . S
C19 C15 1.403 . S
C19 C18 1.405 . S
C19 H70 0.932 . S
C20 C15 1.370 . S
C20 C16 1.389 . S
C20 H71 0.931 . S
Co21 N5 1.869 . S
Co21 N22 1.955 . S
Co21 N23 1.864 . S
Co21 N29 1.958 . S
Co21 N30 1.953 . S
Co21 N31 1.974 . S
N22 Co21 1.955 . S
N22 C40 1.329 . S
N22 C55 1.432 . S
N23 Co21 1.864 . S
N23 C24 1.327 . S
N23 C28 1.342 . S
C24 N23 1.327 . S
C24 C25 1.407 . S
C24 C40 1.481 . S
C25 C24 1.407 . S
C25 C26 1.364 . S
C25 H72 0.930 . S
C26 C25 1.364 . S
C26 C27 1.390 . S
C26 H73 0.931 . S
C27 C26 1.390 . S
C27 C28 1.346 . S
C27 H74 0.930 . S
C28 N23 1.342 . S
C28 C27 1.346 . S
C28 C44 1.516 . S
N29 Co21 1.958 . S
N29 C44 1.324 . S
N29 C46 1.427 . S
N30 C6 1.316 . S
N30 C7 1.436 . S
N30 Co21 1.953 . S
N31 C15 1.423 . S
N31 Co21 1.974 . S
N31 C61 1.309 . S
O32 Cd14 2.352 . S
O32 C52 1.235 . S
O33 Cd13 2.350 . S
O33 C52 1.255 1_554 S
C34 O35 1.270 . S
C34 O36 1.248 . S
O35 Cd13 2.350 . S
O35 C34 1.270 . S
O36 Cd13 2.277 . S
O36 C34 1.248 . S
C37 O38 1.277 . S
C37 O39 1.230 . S
O38 Cd13 2.173 . S
O38 C37 1.277 . S
O39 Cd14 2.250 1_554 S
O39 C37 1.230 . S
C40 N22 1.329 . S
C40 C24 1.481 . S
C40 O41 1.246 . S
O41 C40 1.246 . S
O42 Cd13 2.263 . S
O42 C54 1.258 . S
O43 Cd14 2.308 1_554 S
O43 C54 1.274 . S
C44 C28 1.516 . S
C44 N29 1.324 . S
C44 O45 1.238 . S
O45 C44 1.238 . S
C46 N29 1.427 . S
C46 C47 1.394 . S
C46 C51 1.395 . S
C47 C46 1.394 . S
C47 C48 1.380 . S
C47 H75 0.929 . S
C48 C47 1.380 . S
C48 C49 1.384 . S
C48 C54 1.495 . S
C49 C48 1.384 . S
C49 C50 1.382 . S
C49 H76 0.930 . S
C50 C49 1.382 . S
C50 C51 1.398 . S
C51 C46 1.395 . S
C51 C50 1.398 . S
C51 H77 0.930 . S
C52 O32 1.235 . S
C52 O33 1.255 1_556 S
O53 C6 1.263 . S
O53 Cd13 2.366 . S
C54 O42 1.258 . S
C54 O43 1.274 . S
C54 C48 1.495 . S
C55 N22 1.432 . S
C55 C56 1.381 . S
C55 C60 1.385 . S
C56 C55 1.381 . S
C56 C57 1.371 . S
C56 H78 0.932 . S
C57 C56 1.371 . S
C57 C58 1.400 . S
C58 C57 1.400 . S
C58 C59 1.351 . S
C58 H79 0.930 . S
C59 C58 1.351 . S
C59 C60 1.388 . S
C60 C55 1.385 . S
C60 C59 1.388 . S
C60 H80 0.929 . S
C61 C0 1.504 . S
C61 N31 1.309 . S
C61 O62 1.258 . S
O62 C61 1.258 . S
H63 C1 0.929 . S
H64 C2 0.932 . S
H65 C3 0.931 . S
H66 C8 0.929 . S
H67 C10 0.929 . S
H68 C12 0.931 . S
H69 C17 0.929 . S
H70 C19 0.932 . S
H71 C20 0.931 . S
H72 C25 0.930 . S
H73 C26 0.931 . S
H74 C27 0.930 . S
H75 C47 0.929 . S
H76 C49 0.930 . S
H77 C51 0.930 . S
H78 C56 0.932 . S
H79 C58 0.930 . S
H80 C60 0.929 . S
C81 C82 1.359 . S
C81 N86 1.330 . S
C81 C142 1.504 . S
C82 C81 1.359 . S
C82 C83 1.366 . S
C82 H144 0.929 . S
C83 C82 1.366 . S
C83 C84 1.415 1_655 S
C83 H145 0.932 1_655 S
C84 C83 1.415 1_455 S
C84 C85 1.366 . S
C84 H146 0.931 . S
C85 C84 1.366 . S
C85 N86 1.325 1_455 S
C85 C87 1.516 . S
N86 C81 1.330 . S
N86 C85 1.325 1_655 S
N86 Co102 1.869 . S
C87 C85 1.516 . S
C87 N111 1.316 . S
C87 O134 1.263 . S
C88 C89 1.421 . S
C88 C93 1.360 . S
C88 N111 1.436 . S
C89 C88 1.421 . S
C89 C90 1.379 . S
C89 H147 0.929 . S
C90 C89 1.379 . S
C90 C91 1.417 . S
C91 C90 1.417 . S
C91 C92 1.352 . S
C91 H148 0.929 . S
C92 C91 1.352 . S
C92 C93 1.393 . S
C93 C88 1.360 . S
C93 C92 1.393 . S
C93 H149 0.931 1_455 S
Cd94 O114 2.329 . S
Cd94 O116 2.350 . S
Cd94 O117 2.277 . S
Cd94 O119 2.173 . S
Cd94 O123 2.263 . S
Cd94 O134 2.366 . S
Cd95 O113 2.352 . S
Cd95 O120 2.250 . S
Cd95 O124 2.308 1_455 S
C96 C100 1.403 . S
C96 C101 1.370 . S
C96 N112 1.423 . S
C97 C98 1.389 . S
C97 C101 1.389 . S
C98 C97 1.389 . S
C98 C99 1.379 . S
C98 H150 0.929 . S
C99 C98 1.379 . S
C99 C100 1.405 . S
C100 C96 1.403 . S
C100 C99 1.405 . S
C100 H151 0.932 . S
C101 C96 1.370 . S
C101 C97 1.389 . S
C101 H152 0.931 . S
Co102 N86 1.869 . S
Co102 N103 1.955 1_655 S
Co102 N104 1.864 . S
Co102 N110 1.958 . S
Co102 N111 1.953 1_655 S
Co102 N112 1.974 . S
N103 Co102 1.955 1_455 S
N103 C121 1.329 . S
N103 C136 1.432 . S
N104 Co102 1.864 . S
N104 C105 1.327 . S
N104 C109 1.342 . S
C105 N104 1.327 . S
C105 C106 1.407 . S
C105 C121 1.481 1_655 S
C106 C105 1.407 . S
C106 C107 1.364 . S
C106 H153 0.930 . S
C107 C106 1.364 . S
C107 C108 1.390 . S
C107 H154 0.931 . S
C108 C107 1.390 . S
C108 C109 1.346 . S
C108 H155 0.930 . S
C109 N104 1.342 . S
C109 C108 1.346 . S
C109 C125 1.516 . S
N110 Co102 1.958 . S
N110 C125 1.324 . S
N110 C127 1.427 . S
N111 C87 1.316 . S
N111 C88 1.436 . S
N111 Co102 1.953 1_455 S
N112 C96 1.423 . S
N112 Co102 1.974 . S
N112 C142 1.309 . S
O113 Cd95 2.352 . S
O113 C133 1.235 . S
O114 Cd94 2.329 . S
O114 C133 1.270 . S
C115 O116 1.270 . S
C115 O117 1.248 . S
O116 Cd94 2.350 . S
O116 C115 1.270 . S
O117 Cd94 2.277 . S
O117 C115 1.248 . S
C118 O119 1.277 . S
C118 O120 1.230 . S
O119 Cd94 2.173 . S
O119 C118 1.277 . S
O120 Cd95 2.250 . S
O120 C118 1.230 . S
C121 N103 1.329 . S
C121 C105 1.481 1_455 S
C121 O122 1.246 . S
O122 C121 1.246 . S
O123 Cd94 2.263 . S
O123 C135 1.258 1_455 S
O124 Cd95 2.308 1_655 S
O124 C135 1.274 . S
C125 C109 1.516 . S
C125 N110 1.324 . S
C125 O126 1.238 . S
O126 C125 1.238 . S
C127 N110 1.427 . S
C127 C128 1.394 . S
C127 C132 1.395 . S
C128 C127 1.394 . S
C128 C129 1.380 . S
C128 H156 0.929 . S
C129 C128 1.380 . S
C129 C130 1.384 . S
C129 C135 1.495 . S
C130 C129 1.384 . S
C130 C131 1.382 . S
C130 H157 0.930 . S
C131 C130 1.382 . S
C131 C132 1.398 . S
C132 C127 1.395 . S
C132 C131 1.398 . S
C132 H158 0.930 . S
C133 O113 1.235 . S
C133 O114 1.270 . S
O134 C87 1.263 . S
O134 Cd94 2.366 . S
C135 O123 1.258 1_655 S
C135 O124 1.274 . S
C135 C129 1.495 . S
C136 N103 1.432 . S
C136 C137 1.381 . S
C136 C141 1.385 . S
C137 C136 1.381 . S
C137 C138 1.371 . S
C137 H159 0.932 1_455 S
C138 C137 1.371 . S
C138 C139 1.400 . S
C139 C138 1.400 . S
C139 C140 1.351 . S
C139 H160 0.930 . S
C140 C139 1.351 . S
C140 C141 1.388 . S
C141 C136 1.385 . S
C141 C140 1.388 . S
C141 H161 0.929 . S
C142 C81 1.504 . S
C142 N112 1.309 . S
C142 O143 1.258 . S
O143 C142 1.258 . S
H144 C82 0.929 . S
H145 C83 0.932 1_455 S
H146 C84 0.931 . S
H147 C89 0.929 . S
H148 C91 0.929 . S
H149 C93 0.931 1_655 S
H150 C98 0.929 . S
H151 C100 0.932 . S
H152 C101 0.931 . S
H153 C106 0.930 . S
H154 C107 0.931 . S
H155 C108 0.930 . S
H156 C128 0.929 . S
H157 C130 0.930 . S
H158 C132 0.930 . S
H159 C137 0.932 1_655 S
H160 C139 0.930 . S
H161 C141 0.929 . S
C162 C163 1.359 . S
C162 N167 1.330 . S
C162 C223 1.504 . S
C163 C162 1.359 . S
C163 C164 1.366 . S
C163 H225 0.929 . S
C164 C163 1.366 . S
C164 C165 1.415 1_565 S
C164 H226 0.932 1_565 S
C165 C164 1.415 1_545 S
C165 C166 1.366 . S
C165 H227 0.931 . S
C166 C165 1.366 . S
C166 N167 1.325 1_545 S
C166 C168 1.516 . S
N167 C162 1.330 . S
N167 C166 1.325 1_565 S
N167 Co183 1.869 . S
C168 C166 1.516 . S
C168 N192 1.316 . S
C168 O215 1.263 . S
C169 C170 1.421 . S
C169 C174 1.360 . S
C169 N192 1.436 . S
C170 C169 1.421 . S
C170 C171 1.379 . S
C170 H228 0.929 . S
C171 C170 1.379 . S
C171 C172 1.417 . S
C172 C171 1.417 . S
C172 C173 1.352 . S
C172 H229 0.929 . S
C173 C172 1.352 . S
C173 C174 1.393 . S
C174 C169 1.360 . S
C174 C173 1.393 . S
C174 H230 0.931 1_545 S
Cd175 O195 2.329 . S
Cd175 O197 2.350 . S
Cd175 O198 2.277 . S
Cd175 O200 2.173 . S
Cd175 O204 2.263 . S
Cd175 O215 2.366 . S
Cd176 O194 2.352 . S
Cd176 O201 2.250 . S
Cd176 O205 2.308 1_545 S
C177 C181 1.403 . S
C177 C182 1.370 . S
C177 N193 1.423 . S
C178 C179 1.389 . S
C178 C182 1.389 . S
C179 C178 1.389 . S
C179 C180 1.379 . S
C179 H231 0.929 . S
C180 C179 1.379 . S
C180 C181 1.405 . S
C181 C177 1.403 . S
C181 C180 1.405 . S
C181 H232 0.932 . S
C182 C177 1.370 . S
C182 C178 1.389 . S
C182 H233 0.931 . S
Co183 N167 1.869 . S
Co183 N184 1.955 1_565 S
Co183 N185 1.864 . S
Co183 N191 1.958 . S
Co183 N192 1.953 1_565 S
Co183 N193 1.974 . S
N184 Co183 1.955 1_545 S
N184 C202 1.329 . S
N184 C217 1.432 . S
N185 Co183 1.864 . S
N185 C186 1.327 . S
N185 C190 1.342 . S
C186 N185 1.327 . S
C186 C187 1.407 . S
C186 C202 1.481 1_565 S
C187 C186 1.407 . S
C187 C188 1.364 . S
C187 H234 0.930 . S
C188 C187 1.364 . S
C188 C189 1.390 . S
C188 H235 0.931 . S
C189 C188 1.390 . S
C189 C190 1.346 . S
C189 H236 0.930 . S
C190 N185 1.342 . S
C190 C189 1.346 . S
C190 C206 1.516 . S
N191 Co183 1.958 . S
N191 C206 1.324 . S
N191 C208 1.427 . S
N192 C168 1.316 . S
N192 C169 1.436 . S
N192 Co183 1.953 1_545 S
N193 C177 1.423 . S
N193 Co183 1.974 . S
N193 C223 1.309 . S
O194 Cd176 2.352 . S
O194 C214 1.235 . S
O195 Cd175 2.329 . S
O195 C214 1.270 . S
C196 O197 1.270 . S
C196 O198 1.248 . S
O197 Cd175 2.350 . S
O197 C196 1.270 . S
O198 Cd175 2.277 . S
O198 C196 1.248 . S
C199 O200 1.277 . S
C199 O201 1.230 . S
O200 Cd175 2.173 . S
O200 C199 1.277 . S
O201 Cd176 2.250 . S
O201 C199 1.230 . S
C202 N184 1.329 . S
C202 C186 1.481 1_545 S
C202 O203 1.246 . S
O203 C202 1.246 . S
O204 Cd175 2.263 . S
O204 C216 1.258 1_545 S
O205 Cd176 2.308 1_565 S
O205 C216 1.274 . S
C206 C190 1.516 . S
C206 N191 1.324 . S
C206 O207 1.238 . S
O207 C206 1.238 . S
C208 N191 1.427 . S
C208 C209 1.394 . S
C208 C213 1.395 . S
C209 C208 1.394 . S
C209 C210 1.380 . S
C209 H237 0.929 . S
C210 C209 1.380 . S
C210 C211 1.384 . S
C210 C216 1.495 . S
C211 C210 1.384 . S
C211 C212 1.382 . S
C211 H238 0.930 . S
C212 C211 1.382 . S
C212 C213 1.398 . S
C213 C208 1.395 . S
C213 C212 1.398 . S
C213 H239 0.930 . S
C214 O194 1.235 . S
C214 O195 1.270 . S
O215 C168 1.263 . S
O215 Cd175 2.366 . S
C216 O204 1.258 1_565 S
C216 O205 1.274 . S
C216 C210 1.495 . S
C217 N184 1.432 . S
C217 C218 1.381 . S
C217 C222 1.385 . S
C218 C217 1.381 . S
C218 C219 1.371 . S
C218 H240 0.932 1_545 S
C219 C218 1.371 . S
C219 C220 1.400 . S
C220 C219 1.400 . S
C220 C221 1.351 . S
C220 H241 0.930 . S
C221 C220 1.351 . S
C221 C222 1.388 . S
C222 C217 1.385 . S
C222 C221 1.388 . S
C222 H242 0.929 . S
C223 C162 1.504 . S
C223 N193 1.309 . S
C223 O224 1.258 . S
O224 C223 1.258 . S
H225 C163 0.929 . S
H226 C164 0.932 1_545 S
H227 C165 0.931 . S
H228 C170 0.929 . S
H229 C172 0.929 . S
H230 C174 0.931 1_565 S
H231 C179 0.929 . S
H232 C181 0.932 . S
H233 C182 0.931 . S
H234 C187 0.930 . S
H235 C188 0.931 . S
H236 C189 0.930 . S
H237 C209 0.929 . S
H238 C211 0.930 . S
H239 C213 0.930 . S
H240 C218 0.932 1_565 S
H241 C220 0.930 . S
H242 C222 0.929 . S
C243 C244 1.359 . S
C243 N248 1.330 . S
C243 C304 1.504 . S
C244 C243 1.359 . S
C244 C245 1.366 . S
C244 H306 0.929 . S
C245 C244 1.366 . S
C245 C246 1.415 . S
C245 H307 0.932 . S
C246 C245 1.415 . S
C246 C247 1.366 . S
C246 H308 0.931 . S
C247 C246 1.366 . S
C247 N248 1.325 . S
C247 C249 1.516 . S
N248 C243 1.330 . S
N248 C247 1.325 . S
N248 Co264 1.869 . S
C249 C247 1.516 . S
C249 N273 1.316 . S
C249 O296 1.263 . S
C250 C251 1.421 . S
C250 C255 1.360 . S
C250 N273 1.436 . S
C251 C250 1.421 . S
C251 C252 1.379 . S
C251 H309 0.929 . S
C252 C251 1.379 . S
C252 C253 1.417 . S
C253 C252 1.417 . S
C253 C254 1.352 . S
C253 H310 0.929 . S
C254 C253 1.352 . S
C254 C255 1.393 . S
C255 C250 1.360 . S
C255 C254 1.393 . S
C255 H311 0.931 . S
Cd256 O276 2.329 . S
Cd256 O278 2.350 . S
Cd256 O279 2.277 . S
Cd256 O281 2.173 . S
Cd256 O285 2.263 . S
Cd256 O296 2.366 . S
Cd257 O275 2.352 . S
Cd257 O282 2.250 . S
Cd257 O286 2.308 . S
C258 C262 1.403 . S
C258 C263 1.370 . S
C258 N274 1.423 . S
C259 C260 1.389 . S
C259 C263 1.389 . S
C260 C259 1.389 . S
C260 C261 1.379 . S
C260 H312 0.929 . S
C261 C260 1.379 . S
C261 C262 1.405 . S
C262 C258 1.403 . S
C262 C261 1.405 . S
C262 H313 0.932 . S
C263 C258 1.370 . S
C263 C259 1.389 . S
C263 H314 0.931 . S
Co264 N248 1.869 . S
Co264 N265 1.955 . S
Co264 N266 1.864 . S
Co264 N272 1.958 . S
Co264 N273 1.953 . S
Co264 N274 1.974 . S
N265 Co264 1.955 . S
N265 C283 1.329 . S
N265 C298 1.432 . S
N266 Co264 1.864 . S
N266 C267 1.327 . S
N266 C271 1.342 . S
C267 N266 1.327 . S
C267 C268 1.407 . S
C267 C283 1.481 . S
C268 C267 1.407 . S
C268 C269 1.364 . S
C268 H315 0.930 . S
C269 C268 1.364 . S
C269 C270 1.390 . S
C269 H316 0.931 . S
C270 C269 1.390 . S
C270 C271 1.346 . S
C270 H317 0.930 . S
C271 N266 1.342 . S
C271 C270 1.346 . S
C271 C287 1.516 . S
N272 Co264 1.958 . S
N272 C287 1.324 . S
N272 C289 1.427 . S
N273 C249 1.316 . S
N273 C250 1.436 . S
N273 Co264 1.953 . S
N274 C258 1.423 . S
N274 Co264 1.974 . S
N274 C304 1.309 . S
O275 Cd257 2.352 . S
O275 C295 1.235 . S
O276 Cd256 2.329 . S
O276 C295 1.270 . S
C277 O278 1.270 . S
C277 O279 1.248 . S
O278 Cd256 2.350 . S
O278 C277 1.270 . S
O279 Cd256 2.277 . S
O279 C277 1.248 . S
C280 O281 1.277 . S
C280 O282 1.230 . S
O281 Cd256 2.173 . S
O281 C280 1.277 . S
O282 Cd257 2.250 . S
O282 C280 1.230 . S
C283 N265 1.329 . S
C283 C267 1.481 . S
C283 O284 1.246 . S
O284 C283 1.246 . S
O285 Cd256 2.263 . S
O285 C297 1.258 . S
O286 Cd257 2.308 . S
O286 C297 1.274 . S
C287 C271 1.516 . S
C287 N272 1.324 . S
C287 O288 1.238 . S
O288 C287 1.238 . S
C289 N272 1.427 . S
C289 C290 1.394 . S
C289 C294 1.395 . S
C290 C289 1.394 . S
C290 C291 1.380 . S
C290 H318 0.929 . S
C291 C290 1.380 . S
C291 C292 1.384 . S
C291 C297 1.495 . S
C292 C291 1.384 . S
C292 C293 1.382 . S
C292 H319 0.930 . S
C293 C292 1.382 . S
C293 C294 1.398 . S
C294 C289 1.395 . S
C294 C293 1.398 . S
C294 H320 0.930 . S
C295 O275 1.235 . S
C295 O276 1.270 . S
O296 C249 1.263 . S
O296 Cd256 2.366 . S
C297 O285 1.258 . S
C297 O286 1.274 . S
C297 C291 1.495 . S
C298 N265 1.432 . S
C298 C299 1.381 . S
C298 C303 1.385 . S
C299 C298 1.381 . S
C299 C300 1.371 . S
C299 H321 0.932 . S
C300 C299 1.371 . S
C300 C301 1.400 . S
C301 C300 1.400 . S
C301 C302 1.351 . S
C301 H322 0.930 . S
C302 C301 1.351 . S
C302 C303 1.388 . S
C303 C298 1.385 . S
C303 C302 1.388 . S
C303 H323 0.929 . S
C304 C243 1.504 . S
C304 N274 1.309 . S
C304 O305 1.258 . S
O305 C304 1.258 . S
H306 C244 0.929 . S
H307 C245 0.932 . S
H308 C246 0.931 . S
H309 C251 0.929 . S
H310 C253 0.929 . S
H311 C255 0.931 . S
H312 C260 0.929 . S
H313 C262 0.932 . S
H314 C263 0.931 . S
H315 C268 0.930 . S
H316 C269 0.931 . S
H317 C270 0.930 . S
H318 C290 0.929 . S
H319 C292 0.930 . S
H320 C294 0.930 . S
H321 C299 0.932 . S
H322 C301 0.930 . S
H323 C303 0.929 . S
C324 C325 1.359 . S
C324 N329 1.330 . S
C324 C385 1.504 . S
C325 C324 1.359 . S
C325 C326 1.366 . S
C325 H387 0.929 . S
C326 C325 1.366 . S
C326 C327 1.415 1_455 S
C326 H388 0.932 1_455 S
C327 C326 1.415 1_655 S
C327 C328 1.366 . S
C327 H389 0.931 . S
C328 C327 1.366 . S
C328 N329 1.325 1_655 S
C328 C330 1.516 . S
N329 C324 1.330 . S
N329 C328 1.325 1_455 S
N329 Co345 1.869 . S
C330 C328 1.516 . S
C330 N354 1.316 . S
C330 O377 1.263 . S
C331 C332 1.421 . S
C331 C336 1.360 . S
C331 N354 1.436 . S
C332 C331 1.421 . S
C332 C333 1.379 . S
C332 H390 0.929 . S
C333 C332 1.379 . S
C333 C334 1.417 . S
C334 C333 1.417 . S
C334 C335 1.352 . S
C334 H391 0.929 . S
C335 C334 1.352 . S
C335 C336 1.393 . S
C336 C331 1.360 . S
C336 C335 1.393 . S
C336 H392 0.931 1_655 S
Cd337 O357 2.329 . S
Cd337 O359 2.350 . S
Cd337 O360 2.277 . S
Cd337 O362 2.173 . S
Cd337 O366 2.263 . S
Cd337 O377 2.366 . S
Cd338 O356 2.352 . S
Cd338 O363 2.250 . S
Cd338 O367 2.308 1_655 S
C339 C343 1.403 . S
C339 C344 1.370 . S
C339 N355 1.423 . S
C340 C341 1.389 . S
C340 C344 1.389 . S
C341 C340 1.389 . S
C341 C342 1.379 . S
C341 H393 0.929 . S
C342 C341 1.379 . S
C342 C343 1.405 . S
C343 C339 1.403 . S
C343 C342 1.405 . S
C343 H394 0.932 . S
C344 C339 1.370 . S
C344 C340 1.389 . S
C344 H395 0.931 . S
Co345 N329 1.869 . S
Co345 N346 1.955 1_455 S
Co345 N347 1.864 . S
Co345 N353 1.958 . S
Co345 N354 1.953 1_455 S
Co345 N355 1.974 . S
N346 Co345 1.955 1_655 S
N346 C364 1.329 . S
N346 C379 1.432 . S
N347 Co345 1.864 . S
N347 C348 1.327 . S
N347 C352 1.342 . S
C348 N347 1.327 . S
C348 C349 1.407 . S
C348 C364 1.481 1_455 S
C349 C348 1.407 . S
C349 C350 1.364 . S
C349 H396 0.930 . S
C350 C349 1.364 . S
C350 C351 1.390 . S
C350 H397 0.931 . S
C351 C350 1.390 . S
C351 C352 1.346 . S
C351 H398 0.930 . S
C352 N347 1.342 . S
C352 C351 1.346 . S
C352 C368 1.516 . S
N353 Co345 1.958 . S
N353 C368 1.324 . S
N353 C370 1.427 . S
N354 C330 1.316 . S
N354 C331 1.436 . S
N354 Co345 1.953 1_655 S
N355 C339 1.423 . S
N355 Co345 1.974 . S
N355 C385 1.309 . S
O356 Cd338 2.352 . S
O356 C376 1.235 . S
O357 Cd337 2.329 . S
O357 C376 1.270 . S
C358 O359 1.270 . S
C358 O360 1.248 . S
O359 Cd337 2.350 . S
O359 C358 1.270 . S
O360 Cd337 2.277 . S
O360 C358 1.248 . S
C361 O362 1.277 . S
C361 O363 1.230 . S
O362 Cd337 2.173 . S
O362 C361 1.277 . S
O363 Cd338 2.250 . S
O363 C361 1.230 . S
C364 N346 1.329 . S
C364 C348 1.481 1_655 S
C364 O365 1.246 . S
O365 C364 1.246 . S
O366 Cd337 2.263 . S
O366 C378 1.258 1_655 S
O367 Cd338 2.308 1_455 S
O367 C378 1.274 . S
C368 C352 1.516 . S
C368 N353 1.324 . S
C368 O369 1.238 . S
O369 C368 1.238 . S
C370 N353 1.427 . S
C370 C371 1.394 . S
C370 C375 1.395 . S
C371 C370 1.394 . S
C371 C372 1.380 . S
C371 H399 0.929 . S
C372 C371 1.380 . S
C372 C373 1.384 . S
C372 C378 1.495 . S
C373 C372 1.384 . S
C373 C374 1.382 . S
C373 H400 0.930 . S
C374 C373 1.382 . S
C374 C375 1.398 . S
C375 C370 1.395 . S
C375 C374 1.398 . S
C375 H401 0.930 . S
C376 O356 1.235 . S
C376 O357 1.270 . S
O377 C330 1.263 . S
O377 Cd337 2.366 . S
C378 O366 1.258 1_455 S
C378 O367 1.274 . S
C378 C372 1.495 . S
C379 N346 1.432 . S
C379 C380 1.381 . S
C379 C384 1.385 . S
C380 C379 1.381 . S
C380 C381 1.371 . S
C380 H402 0.932 1_655 S
C381 C380 1.371 . S
C381 C382 1.400 . S
C382 C381 1.400 . S
C382 C383 1.351 . S
C382 H403 0.930 . S
C383 C382 1.351 . S
C383 C384 1.388 . S
C384 C379 1.385 . S
C384 C383 1.388 . S
C384 H404 0.929 . S
C385 C324 1.504 . S
C385 N355 1.309 . S
C385 O386 1.258 . S
O386 C385 1.258 . S
H387 C325 0.929 . S
H388 C326 0.932 1_655 S
H389 C327 0.931 . S
H390 C332 0.929 . S
H391 C334 0.929 . S
H392 C336 0.931 1_455 S
H393 C341 0.929 . S
H394 C343 0.932 . S
H395 C344 0.931 . S
H396 C349 0.930 . S
H397 C350 0.931 . S
H398 C351 0.930 . S
H399 C371 0.929 . S
H400 C373 0.930 . S
H401 C375 0.930 . S
H402 C380 0.932 1_455 S
H403 C382 0.930 . S
H404 C384 0.929 . S
C405 C406 1.359 . S
C405 N410 1.330 . S
C405 C466 1.504 . S
C406 C405 1.359 . S
C406 C407 1.366 . S
C406 H468 0.929 . S
C407 C406 1.366 . S
C407 C408 1.415 1_545 S
C407 H469 0.932 1_545 S
C408 C407 1.415 1_565 S
C408 C409 1.366 . S
C408 H470 0.931 . S
C409 C408 1.366 . S
C409 N410 1.325 1_565 S
C409 C411 1.516 . S
N410 C405 1.330 . S
N410 C409 1.325 1_545 S
N410 Co426 1.869 . S
C411 C409 1.516 . S
C411 N435 1.316 . S
C411 O458 1.263 . S
C412 C413 1.421 . S
C412 C417 1.360 . S
C412 N435 1.436 . S
C413 C412 1.421 . S
C413 C414 1.379 . S
C413 H471 0.929 . S
C414 C413 1.379 . S
C414 C415 1.417 . S
C415 C414 1.417 . S
C415 C416 1.352 . S
C415 H472 0.929 . S
C416 C415 1.352 . S
C416 C417 1.393 . S
C417 C412 1.360 . S
C417 C416 1.393 . S
C417 H473 0.931 1_565 S
Cd418 O438 2.329 . S
Cd418 O440 2.350 . S
Cd418 O441 2.277 . S
Cd418 O443 2.173 . S
Cd418 O447 2.263 . S
Cd418 O458 2.366 . S
Cd419 O437 2.352 . S
Cd419 O444 2.250 . S
Cd419 O448 2.308 1_565 S
C420 C424 1.403 . S
C420 C425 1.370 . S
C420 N436 1.423 . S
C421 C422 1.389 . S
C421 C425 1.389 . S
C422 C421 1.389 . S
C422 C423 1.379 . S
C422 H474 0.929 . S
C423 C422 1.379 . S
C423 C424 1.405 . S
C424 C420 1.403 . S
C424 C423 1.405 . S
C424 H475 0.932 . S
C425 C420 1.370 . S
C425 C421 1.389 . S
C425 H476 0.931 . S
Co426 N410 1.869 . S
Co426 N427 1.955 1_545 S
Co426 N428 1.864 . S
Co426 N434 1.958 . S
Co426 N435 1.953 1_545 S
Co426 N436 1.974 . S
N427 Co426 1.955 1_565 S
N427 C445 1.329 . S
N427 C460 1.432 . S
N428 Co426 1.864 . S
N428 C429 1.327 . S
N428 C433 1.342 . S
C429 N428 1.327 . S
C429 C430 1.407 . S
C429 C445 1.481 1_545 S
C430 C429 1.407 . S
C430 C431 1.364 . S
C430 H477 0.930 . S
C431 C430 1.364 . S
C431 C432 1.390 . S
C431 H478 0.931 . S
C432 C431 1.390 . S
C432 C433 1.346 . S
C432 H479 0.930 . S
C433 N428 1.342 . S
C433 C432 1.346 . S
C433 C449 1.516 . S
N434 Co426 1.958 . S
N434 C449 1.324 . S
N434 C451 1.427 . S
N435 C411 1.316 . S
N435 C412 1.436 . S
N435 Co426 1.953 1_565 S
N436 C420 1.423 . S
N436 Co426 1.974 . S
N436 C466 1.309 . S
O437 Cd419 2.352 . S
O437 C457 1.235 . S
O438 Cd418 2.329 . S
O438 C457 1.270 . S
C439 O440 1.270 . S
C439 O441 1.248 . S
O440 Cd418 2.350 . S
O440 C439 1.270 . S
O441 Cd418 2.277 . S
O441 C439 1.248 . S
C442 O443 1.277 . S
C442 O444 1.230 . S
O443 Cd418 2.173 . S
O443 C442 1.277 . S
O444 Cd419 2.250 . S
O444 C442 1.230 . S
C445 N427 1.329 . S
C445 C429 1.481 1_565 S
C445 O446 1.246 . S
O446 C445 1.246 . S
O447 Cd418 2.263 . S
O447 C459 1.258 1_565 S
O448 Cd419 2.308 1_545 S
O448 C459 1.274 . S
C449 C433 1.516 . S
C449 N434 1.324 . S
C449 O450 1.238 . S
O450 C449 1.238 . S
C451 N434 1.427 . S
C451 C452 1.394 . S
C451 C456 1.395 . S
C452 C451 1.394 . S
C452 C453 1.380 . S
C452 H480 0.929 . S
C453 C452 1.380 . S
C453 C454 1.384 . S
C453 C459 1.495 . S
C454 C453 1.384 . S
C454 C455 1.382 . S
C454 H481 0.930 . S
C455 C454 1.382 . S
C455 C456 1.398 . S
C456 C451 1.395 . S
C456 C455 1.398 . S
C456 H482 0.930 . S
C457 O437 1.235 . S
C457 O438 1.270 . S
O458 C411 1.263 . S
O458 Cd418 2.366 . S
C459 O447 1.258 1_545 S
C459 O448 1.274 . S
C459 C453 1.495 . S
C460 N427 1.432 . S
C460 C461 1.381 . S
C460 C465 1.385 . S
C461 C460 1.381 . S
C461 C462 1.371 . S
C461 H483 0.932 1_565 S
C462 C461 1.371 . S
C462 C463 1.400 . S
C463 C462 1.400 . S
C463 C464 1.351 . S
C463 H484 0.930 . S
C464 C463 1.351 . S
C464 C465 1.388 . S
C465 C460 1.385 . S
C465 C464 1.388 . S
C465 H485 0.929 . S
C466 C405 1.504 . S
C466 N436 1.309 . S
C466 O467 1.258 . S
O467 C466 1.258 . S
H468 C406 0.929 . S
H469 C407 0.932 1_565 S
H470 C408 0.931 . S
H471 C413 0.929 . S
H472 C415 0.929 . S
H473 C417 0.931 1_545 S
H474 C422 0.929 . S
H475 C424 0.932 . S
H476 C425 0.931 . S
H477 C430 0.930 . S
H478 C431 0.931 . S
H479 C432 0.930 . S
H480 C452 0.929 . S
H481 C454 0.930 . S
H482 C456 0.930 . S
H483 C461 0.932 1_545 S
H484 C463 0.930 . S
H485 C465 0.929 . S
C486 C487 1.359 . S
C486 N491 1.330 . S
C486 C547 1.504 . S
C487 C486 1.359 . S
C487 C488 1.366 . S
C487 H549 0.929 . S
C488 C487 1.366 . S
C488 C489 1.415 . S
C488 H550 0.932 . S
C489 C488 1.415 . S
C489 C490 1.366 . S
C489 H551 0.931 . S
C490 C489 1.366 . S
C490 N491 1.325 . S
C490 C492 1.516 . S
N491 C486 1.330 . S
N491 C490 1.325 . S
N491 Co507 1.869 . S
C492 C490 1.516 . S
C492 N516 1.316 . S
C492 O539 1.263 . S
C493 C494 1.421 . S
C493 C498 1.360 . S
C493 N516 1.436 . S
C494 C493 1.421 . S
C494 C495 1.379 . S
C494 H552 0.929 . S
C495 C494 1.379 . S
C495 C496 1.417 . S
C496 C495 1.417 . S
C496 C497 1.352 . S
C496 H553 0.929 . S
C497 C496 1.352 . S
C497 C498 1.393 . S
C498 C493 1.360 . S
C498 C497 1.393 . S
C498 H554 0.931 . S
Cd499 O519 2.329 . S
Cd499 O521 2.350 . S
Cd499 O522 2.277 . S
Cd499 O524 2.173 . S
Cd499 O528 2.263 . S
Cd499 O539 2.366 . S
Cd500 O518 2.352 . S
Cd500 O525 2.250 . S
Cd500 O529 2.308 . S
C501 C505 1.403 . S
C501 C506 1.370 . S
C501 N517 1.423 . S
C502 C503 1.389 . S
C502 C506 1.389 . S
C503 C502 1.389 . S
C503 C504 1.379 . S
C503 H555 0.929 . S
C504 C503 1.379 . S
C504 C505 1.405 . S
C505 C501 1.403 . S
C505 C504 1.405 . S
C505 H556 0.932 . S
C506 C501 1.370 . S
C506 C502 1.389 . S
C506 H557 0.931 . S
Co507 N491 1.869 . S
Co507 N508 1.955 . S
Co507 N509 1.864 . S
Co507 N515 1.958 . S
Co507 N516 1.953 . S
Co507 N517 1.974 . S
N508 Co507 1.955 . S
N508 C526 1.329 . S
N508 C541 1.432 . S
N509 Co507 1.864 . S
N509 C510 1.327 . S
N509 C514 1.342 . S
C510 N509 1.327 . S
C510 C511 1.407 . S
C510 C526 1.481 . S
C511 C510 1.407 . S
C511 C512 1.364 . S
C511 H558 0.930 . S
C512 C511 1.364 . S
C512 C513 1.390 . S
C512 H559 0.931 . S
C513 C512 1.390 . S
C513 C514 1.346 . S
C513 H560 0.930 . S
C514 N509 1.342 . S
C514 C513 1.346 . S
C514 C530 1.516 . S
N515 Co507 1.958 . S
N515 C530 1.324 . S
N515 C532 1.427 . S
N516 C492 1.316 . S
N516 C493 1.436 . S
N516 Co507 1.953 . S
N517 C501 1.423 . S
N517 Co507 1.974 . S
N517 C547 1.309 . S
O518 Cd500 2.352 . S
O518 C538 1.235 . S
O519 Cd499 2.329 . S
O519 C538 1.270 . S
C520 O521 1.270 . S
C520 O522 1.248 . S
O521 Cd499 2.350 . S
O521 C520 1.270 . S
O522 Cd499 2.277 . S
O522 C520 1.248 . S
C523 O524 1.277 . S
C523 O525 1.230 . S
O524 Cd499 2.173 . S
O524 C523 1.277 . S
O525 Cd500 2.250 . S
O525 C523 1.230 . S
C526 N508 1.329 . S
C526 C510 1.481 . S
C526 O527 1.246 . S
O527 C526 1.246 . S
O528 Cd499 2.263 . S
O528 C540 1.258 . S
O529 Cd500 2.308 . S
O529 C540 1.274 . S
C530 C514 1.516 . S
C530 N515 1.324 . S
C530 O531 1.238 . S
O531 C530 1.238 . S
C532 N515 1.427 . S
C532 C533 1.394 . S
C532 C537 1.395 . S
C533 C532 1.394 . S
C533 C534 1.380 . S
C533 H561 0.929 . S
C534 C533 1.380 . S
C534 C535 1.384 . S
C534 C540 1.495 . S
C535 C534 1.384 . S
C535 C536 1.382 . S
C535 H562 0.930 . S
C536 C535 1.382 . S
C536 C537 1.398 . S
C537 C532 1.395 . S
C537 C536 1.398 . S
C537 H563 0.930 . S
C538 O518 1.235 . S
C538 O519 1.270 . S
O539 C492 1.263 . S
O539 Cd499 2.366 . S
C540 O528 1.258 . S
C540 O529 1.274 . S
C540 C534 1.495 . S
C541 N508 1.432 . S
C541 C542 1.381 . S
C541 C546 1.385 . S
C542 C541 1.381 . S
C542 C543 1.371 . S
C542 H564 0.932 . S
C543 C542 1.371 . S
C543 C544 1.400 . S
C544 C543 1.400 . S
C544 C545 1.351 . S
C544 H565 0.930 . S
C545 C544 1.351 . S
C545 C546 1.388 . S
C546 C541 1.385 . S
C546 C545 1.388 . S
C546 H566 0.929 . S
C547 C486 1.504 . S
C547 N517 1.309 . S
C547 O548 1.258 . S
O548 C547 1.258 . S
H549 C487 0.929 . S
H550 C488 0.932 . S
H551 C489 0.931 . S
H552 C494 0.929 . S
H553 C496 0.929 . S
H554 C498 0.931 . S
H555 C503 0.929 . S
H556 C505 0.932 . S
H557 C506 0.931 . S
H558 C511 0.930 . S
H559 C512 0.931 . S
H560 C513 0.930 . S
H561 C533 0.929 . S
H562 C535 0.930 . S
H563 C537 0.930 . S
H564 C542 0.932 . S
H565 C544 0.930 . S
H566 C546 0.929 . S
C567 C568 1.359 . S
C567 N572 1.330 . S
C567 C628 1.504 . S
C568 C567 1.359 . S
C568 C569 1.366 . S
C568 H630 0.929 . S
C569 C568 1.366 . S
C569 C570 1.415 1_655 S
C569 H631 0.932 1_655 S
C570 C569 1.415 1_455 S
C570 C571 1.366 . S
C570 H632 0.931 . S
C571 C570 1.366 . S
C571 N572 1.325 1_455 S
C571 C573 1.516 . S
N572 C567 1.330 . S
N572 C571 1.325 1_655 S
N572 Co588 1.869 . S
C573 C571 1.516 . S
C573 N597 1.316 . S
C573 O620 1.263 . S
C574 C575 1.421 . S
C574 C579 1.360 . S
C574 N597 1.436 . S
C575 C574 1.421 . S
C575 C576 1.379 . S
C575 H633 0.929 . S
C576 C575 1.379 . S
C576 C577 1.417 . S
C577 C576 1.417 . S
C577 C578 1.352 . S
C577 H634 0.929 . S
C578 C577 1.352 . S
C578 C579 1.393 . S
C579 C574 1.360 . S
C579 C578 1.393 . S
C579 H635 0.931 1_455 S
Cd580 O600 2.329 . S
Cd580 O602 2.350 . S
Cd580 O603 2.277 . S
Cd580 O605 2.173 . S
Cd580 O609 2.263 . S
Cd580 O620 2.366 . S
Cd581 O599 2.352 . S
Cd581 O606 2.250 1_554 S
Cd581 O610 2.308 1_454 S
C582 C586 1.403 . S
C582 C587 1.370 . S
C582 N598 1.423 . S
C583 C584 1.389 . S
C583 C587 1.389 . S
C584 C583 1.389 . S
C584 C585 1.379 . S
C584 H636 0.929 . S
C585 C584 1.379 . S
C585 C586 1.405 . S
C586 C582 1.403 . S
C586 C585 1.405 . S
C586 H637 0.932 . S
C587 C582 1.370 . S
C587 C583 1.389 . S
C587 H638 0.931 . S
Co588 N572 1.869 . S
Co588 N589 1.955 1_655 S
Co588 N590 1.864 . S
Co588 N596 1.958 . S
Co588 N597 1.953 1_655 S
Co588 N598 1.974 . S
N589 Co588 1.955 1_455 S
N589 C607 1.329 . S
N589 C622 1.432 . S
N590 Co588 1.864 . S
N590 C591 1.327 . S
N590 C595 1.342 . S
C591 N590 1.327 . S
C591 C592 1.407 . S
C591 C607 1.481 1_655 S
C592 C591 1.407 . S
C592 C593 1.364 . S
C592 H639 0.930 . S
C593 C592 1.364 . S
C593 C594 1.390 . S
C593 H640 0.931 . S
C594 C593 1.390 . S
C594 C595 1.346 . S
C594 H641 0.930 . S
C595 N590 1.342 . S
C595 C594 1.346 . S
C595 C611 1.516 . S
N596 Co588 1.958 . S
N596 C611 1.324 . S
N596 C613 1.427 . S
N597 C573 1.316 . S
N597 C574 1.436 . S
N597 Co588 1.953 1_455 S
N598 C582 1.423 . S
N598 Co588 1.974 . S
N598 C628 1.309 . S
O599 Cd581 2.352 . S
O599 C619 1.235 . S
O600 Cd580 2.329 . S
O600 C619 1.270 1_556 S
C601 O602 1.270 . S
C601 O603 1.248 . S
O602 Cd580 2.350 . S
O602 C601 1.270 . S
O603 Cd580 2.277 . S
O603 C601 1.248 . S
C604 O605 1.277 . S
C604 O606 1.230 . S
O605 Cd580 2.173 . S
O605 C604 1.277 . S
O606 Cd581 2.250 1_556 S
O606 C604 1.230 . S
C607 N589 1.329 . S
C607 C591 1.481 1_455 S
C607 O608 1.246 . S
O608 C607 1.246 . S
O609 Cd580 2.263 . S
O609 C621 1.258 1_455 S
O610 Cd581 2.308 1_656 S
O610 C621 1.274 . S
C611 C595 1.516 . S
C611 N596 1.324 . S
C611 O612 1.238 . S
O612 C611 1.238 . S
C613 N596 1.427 . S
C613 C614 1.394 . S
C613 C618 1.395 . S
C614 C613 1.394 . S
C614 C615 1.380 . S
C614 H642 0.929 . S
C615 C614 1.380 . S
C615 C616 1.384 . S
C615 C621 1.495 . S
C616 C615 1.384 . S
C616 C617 1.382 . S
C616 H643 0.930 . S
C617 C616 1.382 . S
C617 C618 1.398 . S
C618 C613 1.395 . S
C618 C617 1.398 . S
C618 H644 0.930 . S
C619 O599 1.235 . S
C619 O600 1.270 1_554 S
O620 C573 1.263 . S
O620 Cd580 2.366 . S
C621 O609 1.258 1_655 S
C621 O610 1.274 . S
C621 C615 1.495 . S
C622 N589 1.432 . S
C622 C623 1.381 . S
C622 C627 1.385 . S
C623 C622 1.381 . S
C623 C624 1.371 . S
C623 H645 0.932 1_455 S
C624 C623 1.371 . S
C624 C625 1.400 . S
C625 C624 1.400 . S
C625 C626 1.351 . S
C625 H646 0.930 . S
C626 C625 1.351 . S
C626 C627 1.388 . S
C627 C622 1.385 . S
C627 C626 1.388 . S
C627 H647 0.929 . S
C628 C567 1.504 . S
C628 N598 1.309 . S
C628 O629 1.258 . S
O629 C628 1.258 . S
H630 C568 0.929 . S
H631 C569 0.932 1_455 S
H632 C570 0.931 . S
H633 C575 0.929 . S
H634 C577 0.929 . S
H635 C579 0.931 1_655 S
H636 C584 0.929 . S
H637 C586 0.932 . S
H638 C587 0.931 . S
H639 C592 0.930 . S
H640 C593 0.931 . S
H641 C594 0.930 . S
H642 C614 0.929 . S
H643 C616 0.930 . S
H644 C618 0.930 . S
H645 C623 0.932 1_655 S
H646 C625 0.930 . S
H647 C627 0.929 . S
C648 C649 1.359 . S
C648 N653 1.330 . S
C648 C709 1.504 . S
C649 C648 1.359 . S
C649 C650 1.366 . S
C649 H711 0.929 . S
C650 C649 1.366 . S
C650 C651 1.415 1_565 S
C650 H712 0.932 1_565 S
C651 C650 1.415 1_545 S
C651 C652 1.366 . S
C651 H713 0.931 . S
C652 C651 1.366 . S
C652 N653 1.325 1_545 S
C652 C654 1.516 . S
N653 C648 1.330 . S
N653 C652 1.325 1_565 S
N653 Co669 1.869 . S
C654 C652 1.516 . S
C654 N678 1.316 . S
C654 O701 1.263 . S
C655 C656 1.421 . S
C655 C660 1.360 . S
C655 N678 1.436 . S
C656 C655 1.421 . S
C656 C657 1.379 . S
C656 H714 0.929 . S
C657 C656 1.379 . S
C657 C658 1.417 . S
C658 C657 1.417 . S
C658 C659 1.352 . S
C658 H715 0.929 . S
C659 C658 1.352 . S
C659 C660 1.393 . S
C660 C655 1.360 . S
C660 C659 1.393 . S
C660 H716 0.931 1_545 S
Cd661 O681 2.329 . S
Cd661 O683 2.350 . S
Cd661 O684 2.277 . S
Cd661 O686 2.173 . S
Cd661 O690 2.263 . S
Cd661 O701 2.366 . S
Cd662 O680 2.352 . S
Cd662 O687 2.250 . S
Cd662 O691 2.308 1_545 S
C663 C667 1.403 . S
C663 C668 1.370 . S
C663 N679 1.423 . S
C664 C665 1.389 . S
C664 C668 1.389 . S
C665 C664 1.389 . S
C665 C666 1.379 . S
C665 H717 0.929 . S
C666 C665 1.379 . S
C666 C667 1.405 . S
C667 C663 1.403 . S
C667 C666 1.405 . S
C667 H718 0.932 . S
C668 C663 1.370 . S
C668 C664 1.389 . S
C668 H719 0.931 . S
Co669 N653 1.869 . S
Co669 N670 1.955 1_565 S
Co669 N671 1.864 . S
Co669 N677 1.958 . S
Co669 N678 1.953 1_565 S
Co669 N679 1.974 . S
N670 Co669 1.955 1_545 S
N670 C688 1.329 . S
N670 C703 1.432 . S
N671 Co669 1.864 . S
N671 C672 1.327 . S
N671 C676 1.342 . S
C672 N671 1.327 . S
C672 C673 1.407 . S
C672 C688 1.481 1_565 S
C673 C672 1.407 . S
C673 C674 1.364 . S
C673 H720 0.930 . S
C674 C673 1.364 . S
C674 C675 1.390 . S
C674 H721 0.931 . S
C675 C674 1.390 . S
C675 C676 1.346 . S
C675 H722 0.930 . S
C676 N671 1.342 . S
C676 C675 1.346 . S
C676 C692 1.516 . S
N677 Co669 1.958 . S
N677 C692 1.324 . S
N677 C694 1.427 . S
N678 C654 1.316 . S
N678 C655 1.436 . S
N678 Co669 1.953 1_545 S
N679 C663 1.423 . S
N679 Co669 1.974 . S
N679 C709 1.309 . S
O680 Cd662 2.352 . S
O680 C700 1.235 . S
O681 Cd661 2.329 . S
O681 C700 1.270 . S
C682 O683 1.270 . S
C682 O684 1.248 . S
O683 Cd661 2.350 . S
O683 C682 1.270 . S
O684 Cd661 2.277 . S
O684 C682 1.248 . S
C685 O686 1.277 . S
C685 O687 1.230 . S
O686 Cd661 2.173 . S
O686 C685 1.277 . S
O687 Cd662 2.250 . S
O687 C685 1.230 . S
C688 N670 1.329 . S
C688 C672 1.481 1_545 S
C688 O689 1.246 . S
O689 C688 1.246 . S
O690 Cd661 2.263 . S
O690 C702 1.258 1_545 S
O691 Cd662 2.308 1_565 S
O691 C702 1.274 . S
C692 C676 1.516 . S
C692 N677 1.324 . S
C692 O693 1.238 . S
O693 C692 1.238 . S
C694 N677 1.427 . S
C694 C695 1.394 . S
C694 C699 1.395 . S
C695 C694 1.394 . S
C695 C696 1.380 . S
C695 H723 0.929 . S
C696 C695 1.380 . S
C696 C697 1.384 . S
C696 C702 1.495 . S
C697 C696 1.384 . S
C697 C698 1.382 . S
C697 H724 0.930 . S
C698 C697 1.382 . S
C698 C699 1.398 . S
C699 C694 1.395 . S
C699 C698 1.398 . S
C699 H725 0.930 . S
C700 O680 1.235 . S
C700 O681 1.270 . S
O701 C654 1.263 . S
O701 Cd661 2.366 . S
C702 O690 1.258 1_565 S
C702 O691 1.274 . S
C702 C696 1.495 . S
C703 N670 1.432 . S
C703 C704 1.381 . S
C703 C708 1.385 . S
C704 C703 1.381 . S
C704 C705 1.371 . S
C704 H726 0.932 1_545 S
C705 C704 1.371 . S
C705 C706 1.400 . S
C706 C705 1.400 . S
C706 C707 1.351 . S
C706 H727 0.930 . S
C707 C706 1.351 . S
C707 C708 1.388 . S
C708 C703 1.385 . S
C708 C707 1.388 . S
C708 H728 0.929 . S
C709 C648 1.504 . S
C709 N679 1.309 . S
C709 O710 1.258 . S
O710 C709 1.258 . S
H711 C649 0.929 . S
H712 C650 0.932 1_545 S
H713 C651 0.931 . S
H714 C656 0.929 . S
H715 C658 0.929 . S
H716 C660 0.931 1_565 S
H717 C665 0.929 . S
H718 C667 0.932 . S
H719 C668 0.931 . S
H720 C673 0.930 . S
H721 C674 0.931 . S
H722 C675 0.930 . S
H723 C695 0.929 . S
H724 C697 0.930 . S
H725 C699 0.930 . S
H726 C704 0.932 1_565 S
H727 C706 0.930 . S
H728 C708 0.929 . S
C729 C730 1.359 . S
C729 N734 1.330 . S
C729 C790 1.504 . S
C730 C729 1.359 . S
C730 C731 1.366 . S
C730 H792 0.929 . S
C731 C730 1.366 . S
C731 C732 1.415 . S
C731 H793 0.932 . S
C732 C731 1.415 . S
C732 C733 1.366 . S
C732 H794 0.931 . S
C733 C732 1.366 . S
C733 N734 1.325 . S
C733 C735 1.516 . S
N734 C729 1.330 . S
N734 C733 1.325 . S
N734 Co750 1.869 . S
C735 C733 1.516 . S
C735 N759 1.316 . S
C735 O782 1.263 . S
C736 C737 1.421 . S
C736 C741 1.360 . S
C736 N759 1.436 . S
C737 C736 1.421 . S
C737 C738 1.379 . S
C737 H795 0.929 . S
C738 C737 1.379 . S
C738 C739 1.417 . S
C739 C738 1.417 . S
C739 C740 1.352 . S
C739 H796 0.929 . S
C740 C739 1.352 . S
C740 C741 1.393 . S
C741 C736 1.360 . S
C741 C740 1.393 . S
C741 H797 0.931 . S
Cd742 O762 2.329 . S
Cd742 O764 2.350 . S
Cd742 O765 2.277 . S
Cd742 O767 2.173 . S
Cd742 O771 2.263 . S
Cd742 O782 2.366 . S
Cd743 O761 2.352 . S
Cd743 O768 2.250 . S
Cd743 O772 2.308 . S
C744 C748 1.403 . S
C744 C749 1.370 . S
C744 N760 1.423 . S
C745 C746 1.389 . S
C745 C749 1.389 . S
C746 C745 1.389 . S
C746 C747 1.379 . S
C746 H798 0.929 . S
C747 C746 1.379 . S
C747 C748 1.405 . S
C748 C744 1.403 . S
C748 C747 1.405 . S
C748 H799 0.932 . S
C749 C744 1.370 . S
C749 C745 1.389 . S
C749 H800 0.931 . S
Co750 N734 1.869 . S
Co750 N751 1.955 . S
Co750 N752 1.864 . S
Co750 N758 1.958 . S
Co750 N759 1.953 . S
Co750 N760 1.974 . S
N751 Co750 1.955 . S
N751 C769 1.329 . S
N751 C784 1.432 . S
N752 Co750 1.864 . S
N752 C753 1.327 . S
N752 C757 1.342 . S
C753 N752 1.327 . S
C753 C754 1.407 . S
C753 C769 1.481 . S
C754 C753 1.407 . S
C754 C755 1.364 . S
C754 H801 0.930 . S
C755 C754 1.364 . S
C755 C756 1.390 . S
C755 H802 0.931 . S
C756 C755 1.390 . S
C756 C757 1.346 . S
C756 H803 0.930 . S
C757 N752 1.342 . S
C757 C756 1.346 . S
C757 C773 1.516 . S
N758 Co750 1.958 . S
N758 C773 1.324 . S
N758 C775 1.427 . S
N759 C735 1.316 . S
N759 C736 1.436 . S
N759 Co750 1.953 . S
N760 C744 1.423 . S
N760 Co750 1.974 . S
N760 C790 1.309 . S
O761 Cd743 2.352 . S
O761 C781 1.235 . S
O762 Cd742 2.329 . S
O762 C781 1.270 . S
C763 O764 1.270 . S
C763 O765 1.248 . S
O764 Cd742 2.350 . S
O764 C763 1.270 . S
O765 Cd742 2.277 . S
O765 C763 1.248 . S
C766 O767 1.277 . S
C766 O768 1.230 . S
O767 Cd742 2.173 . S
O767 C766 1.277 . S
O768 Cd743 2.250 . S
O768 C766 1.230 . S
C769 N751 1.329 . S
C769 C753 1.481 . S
C769 O770 1.246 . S
O770 C769 1.246 . S
O771 Cd742 2.263 . S
O771 C783 1.258 . S
O772 Cd743 2.308 . S
O772 C783 1.274 . S
C773 C757 1.516 . S
C773 N758 1.324 . S
C773 O774 1.238 . S
O774 C773 1.238 . S
C775 N758 1.427 . S
C775 C776 1.394 . S
C775 C780 1.395 . S
C776 C775 1.394 . S
C776 C777 1.380 . S
C776 H804 0.929 . S
C777 C776 1.380 . S
C777 C778 1.384 . S
C777 C783 1.495 . S
C778 C777 1.384 . S
C778 C779 1.382 . S
C778 H805 0.930 . S
C779 C778 1.382 . S
C779 C780 1.398 . S
C780 C775 1.395 . S
C780 C779 1.398 . S
C780 H806 0.930 . S
C781 O761 1.235 . S
C781 O762 1.270 . S
O782 C735 1.263 . S
O782 Cd742 2.366 . S
C783 O771 1.258 . S
C783 O772 1.274 . S
C783 C777 1.495 . S
C784 N751 1.432 . S
C784 C785 1.381 . S
C784 C789 1.385 . S
C785 C784 1.381 . S
C785 C786 1.371 . S
C785 H807 0.932 . S
C786 C785 1.371 . S
C786 C787 1.400 . S
C787 C786 1.400 . S
C787 C788 1.351 . S
C787 H808 0.930 . S
C788 C787 1.351 . S
C788 C789 1.388 . S
C789 C784 1.385 . S
C789 C788 1.388 . S
C789 H809 0.929 . S
C790 C729 1.504 . S
C790 N760 1.309 . S
C790 O791 1.258 . S
O791 C790 1.258 . S
H792 C730 0.929 . S
H793 C731 0.932 . S
H794 C732 0.931 . S
H795 C737 0.929 . S
H796 C739 0.929 . S
H797 C741 0.931 . S
H798 C746 0.929 . S
H799 C748 0.932 . S
H800 C749 0.931 . S
H801 C754 0.930 . S
H802 C755 0.931 . S
H803 C756 0.930 . S
H804 C776 0.929 . S
H805 C778 0.930 . S
H806 C780 0.930 . S
H807 C785 0.932 . S
H808 C787 0.930 . S
H809 C789 0.929 . S
C810 C811 1.359 . S
C810 N815 1.330 . S
C810 C871 1.504 . S
C811 C810 1.359 . S
C811 C812 1.366 . S
C811 H873 0.929 . S
C812 C811 1.366 . S
C812 C813 1.415 1_455 S
C812 H874 0.932 1_455 S
C813 C812 1.415 1_655 S
C813 C814 1.366 . S
C813 H875 0.931 . S
C814 C813 1.366 . S
C814 N815 1.325 1_655 S
C814 C816 1.516 . S
N815 C810 1.330 . S
N815 C814 1.325 1_455 S
N815 Co831 1.869 . S
C816 C814 1.516 . S
C816 N840 1.316 . S
C816 O863 1.263 . S
C817 C818 1.421 . S
C817 C822 1.360 . S
C817 N840 1.436 . S
C818 C817 1.421 . S
C818 C819 1.379 . S
C818 H876 0.929 . S
C819 C818 1.379 . S
C819 C820 1.417 . S
C820 C819 1.417 . S
C820 C821 1.352 . S
C820 H877 0.929 . S
C821 C820 1.352 . S
C821 C822 1.393 . S
C822 C817 1.360 . S
C822 C821 1.393 . S
C822 H878 0.931 1_655 S
Cd823 O843 2.329 . S
Cd823 O845 2.350 . S
Cd823 O846 2.277 . S
Cd823 O848 2.173 . S
Cd823 O852 2.263 . S
Cd823 O863 2.366 . S
Cd824 O842 2.352 . S
Cd824 O849 2.250 . S
Cd824 O853 2.308 1_655 S
C825 C829 1.403 . S
C825 C830 1.370 . S
C825 N841 1.423 . S
C826 C827 1.389 . S
C826 C830 1.389 . S
C827 C826 1.389 . S
C827 C828 1.379 . S
C827 H879 0.929 . S
C828 C827 1.379 . S
C828 C829 1.405 . S
C829 C825 1.403 . S
C829 C828 1.405 . S
C829 H880 0.932 . S
C830 C825 1.370 . S
C830 C826 1.389 . S
C830 H881 0.931 . S
Co831 N815 1.869 . S
Co831 N832 1.955 1_455 S
Co831 N833 1.864 . S
Co831 N839 1.958 . S
Co831 N840 1.953 1_455 S
Co831 N841 1.974 . S
N832 Co831 1.955 1_655 S
N832 C850 1.329 . S
N832 C865 1.432 . S
N833 Co831 1.864 . S
N833 C834 1.327 . S
N833 C838 1.342 . S
C834 N833 1.327 . S
C834 C835 1.407 . S
C834 C850 1.481 1_455 S
C835 C834 1.407 . S
C835 C836 1.364 . S
C835 H882 0.930 . S
C836 C835 1.364 . S
C836 C837 1.390 . S
C836 H883 0.931 . S
C837 C836 1.390 . S
C837 C838 1.346 . S
C837 H884 0.930 . S
C838 N833 1.342 . S
C838 C837 1.346 . S
C838 C854 1.516 . S
N839 Co831 1.958 . S
N839 C854 1.324 . S
N839 C856 1.427 . S
N840 C816 1.316 . S
N840 C817 1.436 . S
N840 Co831 1.953 1_655 S
N841 C825 1.423 . S
N841 Co831 1.974 . S
N841 C871 1.309 . S
O842 Cd824 2.352 . S
O842 C862 1.235 . S
O843 Cd823 2.329 . S
O843 C862 1.270 . S
C844 O845 1.270 . S
C844 O846 1.248 . S
O845 Cd823 2.350 . S
O845 C844 1.270 . S
O846 Cd823 2.277 . S
O846 C844 1.248 . S
C847 O848 1.277 . S
C847 O849 1.230 . S
O848 Cd823 2.173 . S
O848 C847 1.277 . S
O849 Cd824 2.250 . S
O849 C847 1.230 . S
C850 N832 1.329 . S
C850 C834 1.481 1_655 S
C850 O851 1.246 . S
O851 C850 1.246 . S
O852 Cd823 2.263 . S
O852 C864 1.258 1_655 S
O853 Cd824 2.308 1_455 S
O853 C864 1.274 . S
C854 C838 1.516 . S
C854 N839 1.324 . S
C854 O855 1.238 . S
O855 C854 1.238 . S
C856 N839 1.427 . S
C856 C857 1.394 . S
C856 C861 1.395 . S
C857 C856 1.394 . S
C857 C858 1.380 . S
C857 H885 0.929 . S
C858 C857 1.380 . S
C858 C859 1.384 . S
C858 C864 1.495 . S
C859 C858 1.384 . S
C859 C860 1.382 . S
C859 H886 0.930 . S
C860 C859 1.382 . S
C860 C861 1.398 . S
C861 C856 1.395 . S
C861 C860 1.398 . S
C861 H887 0.930 . S
C862 O842 1.235 . S
C862 O843 1.270 . S
O863 C816 1.263 . S
O863 Cd823 2.366 . S
C864 O852 1.258 1_455 S
C864 O853 1.274 . S
C864 C858 1.495 . S
C865 N832 1.432 . S
C865 C866 1.381 . S
C865 C870 1.385 . S
C866 C865 1.381 . S
C866 C867 1.371 . S
C866 H888 0.932 1_655 S
C867 C866 1.371 . S
C867 C868 1.400 . S
C868 C867 1.400 . S
C868 C869 1.351 . S
C868 H889 0.930 . S
C869 C868 1.351 . S
C869 C870 1.388 . S
C870 C865 1.385 . S
C870 C869 1.388 . S
C870 H890 0.929 . S
C871 C810 1.504 . S
C871 N841 1.309 . S
C871 O872 1.258 . S
O872 C871 1.258 . S
H873 C811 0.929 . S
H874 C812 0.932 1_655 S
H875 C813 0.931 . S
H876 C818 0.929 . S
H877 C820 0.929 . S
H878 C822 0.931 1_455 S
H879 C827 0.929 . S
H880 C829 0.932 . S
H881 C830 0.931 . S
H882 C835 0.930 . S
H883 C836 0.931 . S
H884 C837 0.930 . S
H885 C857 0.929 . S
H886 C859 0.930 . S
H887 C861 0.930 . S
H888 C866 0.932 1_455 S
H889 C868 0.930 . S
H890 C870 0.929 . S
C891 C892 1.359 . S
C891 N896 1.330 . S
C891 C952 1.504 . S
C892 C891 1.359 . S
C892 C893 1.366 . S
C892 H954 0.929 . S
C893 C892 1.366 . S
C893 C894 1.415 1_545 S
C893 H955 0.932 1_545 S
C894 C893 1.415 1_565 S
C894 C895 1.366 . S
C894 H956 0.931 . S
C895 C894 1.366 . S
C895 N896 1.325 1_565 S
C895 C897 1.516 . S
N896 C891 1.330 . S
N896 C895 1.325 1_545 S
N896 Co912 1.869 . S
C897 C895 1.516 . S
C897 N921 1.316 . S
C897 O944 1.263 . S
C898 C899 1.421 . S
C898 C903 1.360 . S
C898 N921 1.436 . S
C899 C898 1.421 . S
C899 C900 1.379 . S
C899 H957 0.929 . S
C900 C899 1.379 . S
C900 C901 1.417 . S
C901 C900 1.417 . S
C901 C902 1.352 . S
C901 H958 0.929 . S
C902 C901 1.352 . S
C902 C903 1.393 . S
C903 C898 1.360 . S
C903 C902 1.393 . S
C903 H959 0.931 1_565 S
Cd904 O924 2.329 . S
Cd904 O926 2.350 . S
Cd904 O927 2.277 . S
Cd904 O929 2.173 . S
Cd904 O933 2.263 . S
Cd904 O944 2.366 . S
Cd905 O923 2.352 . S
Cd905 O930 2.250 . S
Cd905 O934 2.308 1_565 S
C906 C910 1.403 . S
C906 C911 1.370 . S
C906 N922 1.423 . S
C907 C908 1.389 . S
C907 C911 1.389 . S
C908 C907 1.389 . S
C908 C909 1.379 . S
C908 H960 0.929 . S
C909 C908 1.379 . S
C909 C910 1.405 . S
C910 C906 1.403 . S
C910 C909 1.405 . S
C910 H961 0.932 . S
C911 C906 1.370 . S
C911 C907 1.389 . S
C911 H962 0.931 . S
Co912 N896 1.869 . S
Co912 N913 1.955 1_545 S
Co912 N914 1.864 . S
Co912 N920 1.958 . S
Co912 N921 1.953 1_545 S
Co912 N922 1.974 . S
N913 Co912 1.955 1_565 S
N913 C931 1.329 . S
N913 C946 1.432 . S
N914 Co912 1.864 . S
N914 C915 1.327 . S
N914 C919 1.342 . S
C915 N914 1.327 . S
C915 C916 1.407 . S
C915 C931 1.481 1_545 S
C916 C915 1.407 . S
C916 C917 1.364 . S
C916 H963 0.930 . S
C917 C916 1.364 . S
C917 C918 1.390 . S
C917 H964 0.931 . S
C918 C917 1.390 . S
C918 C919 1.346 . S
C918 H965 0.930 . S
C919 N914 1.342 . S
C919 C918 1.346 . S
C919 C935 1.516 . S
N920 Co912 1.958 . S
N920 C935 1.324 . S
N920 C937 1.427 . S
N921 C897 1.316 . S
N921 C898 1.436 . S
N921 Co912 1.953 1_565 S
N922 C906 1.423 . S
N922 Co912 1.974 . S
N922 C952 1.309 . S
O923 Cd905 2.352 . S
O923 C943 1.235 . S
O924 Cd904 2.329 . S
O924 C943 1.270 . S
C925 O926 1.270 . S
C925 O927 1.248 . S
O926 Cd904 2.350 . S
O926 C925 1.270 . S
O927 Cd904 2.277 . S
O927 C925 1.248 . S
C928 O929 1.277 . S
C928 O930 1.230 . S
O929 Cd904 2.173 . S
O929 C928 1.277 . S
O930 Cd905 2.250 . S
O930 C928 1.230 . S
C931 N913 1.329 . S
C931 C915 1.481 1_565 S
C931 O932 1.246 . S
O932 C931 1.246 . S
O933 Cd904 2.263 . S
O933 C945 1.258 1_565 S
O934 Cd905 2.308 1_545 S
O934 C945 1.274 . S
C935 C919 1.516 . S
C935 N920 1.324 . S
C935 O936 1.238 . S
O936 C935 1.238 . S
C937 N920 1.427 . S
C937 C938 1.394 . S
C937 C942 1.395 . S
C938 C937 1.394 . S
C938 C939 1.380 . S
C938 H966 0.929 . S
C939 C938 1.380 . S
C939 C940 1.384 . S
C939 C945 1.495 . S
C940 C939 1.384 . S
C940 C941 1.382 . S
C940 H967 0.930 . S
C941 C940 1.382 . S
C941 C942 1.398 . S
C942 C937 1.395 . S
C942 C941 1.398 . S
C942 H968 0.930 . S
C943 O923 1.235 . S
C943 O924 1.270 . S
O944 C897 1.263 . S
O944 Cd904 2.366 . S
C945 O933 1.258 1_545 S
C945 O934 1.274 . S
C945 C939 1.495 . S
C946 N913 1.432 . S
C946 C947 1.381 . S
C946 C951 1.385 . S
C947 C946 1.381 . S
C947 C948 1.371 . S
C947 H969 0.932 1_565 S
C948 C947 1.371 . S
C948 C949 1.400 . S
C949 C948 1.400 . S
C949 C950 1.351 . S
C949 H970 0.930 . S
C950 C949 1.351 . S
C950 C951 1.388 . S
C951 C946 1.385 . S
C951 C950 1.388 . S
C951 H971 0.929 . S
C952 C891 1.504 . S
C952 N922 1.309 . S
C952 O953 1.258 . S
O953 C952 1.258 . S
H954 C892 0.929 . S
H955 C893 0.932 1_565 S
H956 C894 0.931 . S
H957 C899 0.929 . S
H958 C901 0.929 . S
H959 C903 0.931 1_545 S
H960 C908 0.929 . S
H961 C910 0.932 . S
H962 C911 0.931 . S
H963 C916 0.930 . S
H964 C917 0.931 . S
H965 C918 0.930 . S
H966 C938 0.929 . S
H967 C940 0.930 . S
H968 C942 0.930 . S
H969 C947 0.932 1_545 S
H970 C949 0.930 . S
H971 C951 0.929 . S
C972 C973 1.349 . S
C972 C974 1.327 . S
C972 H997 0.950 . S
C973 C972 1.349 . S
C973 C989 1.349 . S
C974 C972 1.327 . S
C974 C993 1.429 . S
C974 H998 0.950 . S
C975 C992 1.574 . S
C975 C994 1.368 . S
C975 H999 0.949 . S
H976 C980 0.949 . S
C977 C978 1.349 . S
C977 C979 1.327 . S
C977 H1000 0.950 . S
C978 C977 1.349 . S
C978 C990 1.349 . S
C979 C977 1.327 . S
C979 C995 1.429 . S
C979 H1001 0.950 . S
C980 H976 0.949 . S
C980 C988 1.574 . S
C980 C996 1.368 . S
H981 C989 0.950 . S
H982 C987 0.950 . S
H983 C988 0.949 . S
H984 C990 0.950 . S
H985 C991 0.950 . S
H986 C992 0.949 . S
C987 H982 0.950 . S
C987 C989 1.327 . S
C987 C993 1.429 . S
C988 C980 1.574 . S
C988 H983 0.949 . S
C988 C994 1.368 . S
C989 C973 1.349 . S
C989 H981 0.950 . S
C989 C987 1.327 . S
C990 C978 1.349 . S
C990 H984 0.950 . S
C990 C991 1.327 . S
C991 H985 0.950 . S
C991 C990 1.327 . S
C991 C995 1.429 . S
C992 C975 1.574 . S
C992 H986 0.949 . S
C992 C996 1.368 . S
C993 C974 1.429 . S
C993 C987 1.429 . S
C993 C994 1.523 . S
C994 C975 1.368 . S
C994 C988 1.368 . S
C994 C993 1.523 . S
C995 C979 1.429 . S
C995 C991 1.429 . S
C995 C996 1.523 . S
C996 C980 1.368 . S
C996 C992 1.368 . S
C996 C995 1.523 . S
H997 C972 0.950 . S
H998 C974 0.950 . S
H999 C975 0.949 . S
H1000 C977 0.950 . S
H1001 C979 0.950 . S
C1002 C1003 1.349 . S
C1002 C1004 1.327 . S
C1002 H1027 0.950 . S
C1003 C1002 1.349 . S
C1003 C1019 1.349 . S
C1004 C1002 1.327 . S
C1004 C1023 1.429 . S
C1004 H1028 0.950 . S
C1005 C1022 1.574 . S
C1005 C1024 1.368 . S
C1005 H1029 0.949 . S
H1006 C1010 0.949 . S
C1007 C1008 1.349 . S
C1007 C1009 1.327 . S
C1007 H1030 0.950 . S
C1008 C1007 1.349 . S
C1008 C1020 1.349 . S
C1009 C1007 1.327 . S
C1009 C1025 1.429 . S
C1009 H1031 0.950 . S
C1010 H1006 0.949 . S
C1010 C1018 1.574 . S
C1010 C1026 1.368 . S
H1011 C1019 0.950 . S
H1012 C1017 0.950 . S
H1013 C1018 0.949 . S
H1014 C1020 0.950 . S
H1015 C1021 0.950 . S
H1016 C1022 0.949 . S
C1017 H1012 0.950 . S
C1017 C1019 1.327 . S
C1017 C1023 1.429 . S
C1018 C1010 1.574 . S
C1018 H1013 0.949 . S
C1018 C1024 1.368 . S
C1019 C1003 1.349 . S
C1019 H1011 0.950 . S
C1019 C1017 1.327 . S
C1020 C1008 1.349 . S
C1020 H1014 0.950 . S
C1020 C1021 1.327 . S
C1021 H1015 0.950 . S
C1021 C1020 1.327 . S
C1021 C1025 1.429 . S
C1022 C1005 1.574 . S
C1022 H1016 0.949 . S
C1022 C1026 1.368 . S
C1023 C1004 1.429 . S
C1023 C1017 1.429 . S
C1023 C1024 1.523 . S
C1024 C1005 1.368 . S
C1024 C1018 1.368 . S
C1024 C1023 1.523 . S
C1025 C1009 1.429 . S
C1025 C1021 1.429 . S
C1025 C1026 1.523 . S
C1026 C1010 1.368 . S
C1026 C1022 1.368 . S
C1026 C1025 1.523 . S
H1027 C1002 0.950 . S
H1028 C1004 0.950 . S
H1029 C1005 0.949 . S
H1030 C1007 0.950 . S
H1031 C1009 0.950 . S
C1032 C1033 1.349 . S
C1032 C1034 1.327 . S
C1032 H1057 0.950 . S
C1033 C1032 1.349 . S
C1033 C1049 1.349 . S
C1034 C1032 1.327 . S
C1034 C1053 1.429 . S
C1034 H1058 0.950 . S
C1035 C1052 1.574 . S
C1035 C1054 1.368 . S
C1035 H1059 0.949 . S
H1036 C1040 0.949 . S
C1037 C1038 1.349 . S
C1037 C1039 1.327 . S
C1037 H1060 0.950 . S
C1038 C1037 1.349 . S
C1038 C1050 1.349 . S
C1039 C1037 1.327 . S
C1039 C1055 1.429 . S
C1039 H1061 0.950 . S
C1040 H1036 0.949 . S
C1040 C1048 1.574 . S
C1040 C1056 1.368 . S
H1041 C1049 0.950 . S
H1042 C1047 0.950 . S
H1043 C1048 0.949 . S
H1044 C1050 0.950 . S
H1045 C1051 0.950 . S
H1046 C1052 0.949 . S
C1047 H1042 0.950 . S
C1047 C1049 1.327 . S
C1047 C1053 1.429 . S
C1048 C1040 1.574 . S
C1048 H1043 0.949 . S
C1048 C1054 1.368 . S
C1049 C1033 1.349 . S
C1049 H1041 0.950 . S
C1049 C1047 1.327 . S
C1050 C1038 1.349 . S
C1050 H1044 0.950 . S
C1050 C1051 1.327 . S
C1051 H1045 0.950 . S
C1051 C1050 1.327 . S
C1051 C1055 1.429 . S
C1052 C1035 1.574 . S
C1052 H1046 0.949 . S
C1052 C1056 1.368 . S
C1053 C1034 1.429 . S
C1053 C1047 1.429 . S
C1053 C1054 1.523 . S
C1054 C1035 1.368 . S
C1054 C1048 1.368 . S
C1054 C1053 1.523 . S
C1055 C1039 1.429 . S
C1055 C1051 1.429 . S
C1055 C1056 1.523 . S
C1056 C1040 1.368 . S
C1056 C1052 1.368 . S
C1056 C1055 1.523 . S
H1057 C1032 0.950 . S
H1058 C1034 0.950 . S
H1059 C1035 0.949 . S
H1060 C1037 0.950 . S
H1061 C1039 0.950 . S
C1062 C1063 1.349 . S
C1062 C1064 1.327 . S
C1062 H1087 0.950 . S
C1063 C1062 1.349 . S
C1063 C1079 1.349 . S
C1064 C1062 1.327 . S
C1064 C1083 1.429 . S
C1064 H1088 0.950 . S
C1065 C1082 1.574 . S
C1065 C1084 1.368 . S
C1065 H1089 0.949 . S
H1066 C1070 0.949 . S
C1067 C1068 1.349 . S
C1067 C1069 1.327 . S
C1067 H1090 0.950 . S
C1068 C1067 1.349 . S
C1068 C1080 1.349 . S
C1069 C1067 1.327 . S
C1069 C1085 1.429 . S
C1069 H1091 0.950 . S
C1070 H1066 0.949 . S
C1070 C1078 1.574 . S
C1070 C1086 1.368 . S
H1071 C1079 0.950 . S
H1072 C1077 0.950 . S
H1073 C1078 0.949 . S
H1074 C1080 0.950 . S
H1075 C1081 0.950 . S
H1076 C1082 0.949 . S
C1077 H1072 0.950 . S
C1077 C1079 1.327 . S
C1077 C1083 1.429 . S
C1078 C1070 1.574 . S
C1078 H1073 0.949 . S
C1078 C1084 1.368 . S
C1079 C1063 1.349 . S
C1079 H1071 0.950 . S
C1079 C1077 1.327 . S
C1080 C1068 1.349 . S
C1080 H1074 0.950 . S
C1080 C1081 1.327 . S
C1081 H1075 0.950 . S
C1081 C1080 1.327 . S
C1081 C1085 1.429 . S
C1082 C1065 1.574 . S
C1082 H1076 0.949 . S
C1082 C1086 1.368 . S
C1083 C1064 1.429 . S
C1083 C1077 1.429 . S
C1083 C1084 1.523 . S
C1084 C1065 1.368 . S
C1084 C1078 1.368 . S
C1084 C1083 1.523 . S
C1085 C1069 1.429 . S
C1085 C1081 1.429 . S
C1085 C1086 1.523 . S
C1086 C1070 1.368 . S
C1086 C1082 1.368 . S
C1086 C1085 1.523 . S
H1087 C1062 0.950 . S
H1088 C1064 0.950 . S
H1089 C1065 0.949 . S
H1090 C1067 0.950 . S
H1091 C1069 0.950 . S
C1092 C1093 1.349 . S
C1092 C1094 1.327 . S
C1092 H1117 0.950 . S
C1093 C1092 1.349 . S
C1093 C1109 1.349 . S
C1094 C1092 1.327 . S
C1094 C1113 1.429 . S
C1094 H1118 0.950 . S
C1095 C1112 1.574 . S
C1095 C1114 1.368 . S
C1095 H1119 0.949 . S
H1096 C1100 0.949 . S
C1097 C1098 1.349 . S
C1097 C1099 1.327 . S
C1097 H1120 0.950 . S
C1098 C1097 1.349 . S
C1098 C1110 1.349 . S
C1099 C1097 1.327 . S
C1099 C1115 1.429 . S
C1099 H1121 0.950 . S
C1100 H1096 0.949 . S
C1100 C1108 1.574 . S
C1100 C1116 1.368 . S
H1101 C1109 0.950 . S
H1102 C1107 0.950 . S
H1103 C1108 0.949 . S
H1104 C1110 0.950 . S
H1105 C1111 0.950 . S
H1106 C1112 0.949 . S
C1107 H1102 0.950 . S
C1107 C1109 1.327 . S
C1107 C1113 1.429 . S
C1108 C1100 1.574 . S
C1108 H1103 0.949 . S
C1108 C1114 1.368 . S
C1109 C1093 1.349 . S
C1109 H1101 0.950 . S
C1109 C1107 1.327 . S
C1110 C1098 1.349 . S
C1110 H1104 0.950 . S
C1110 C1111 1.327 . S
C1111 H1105 0.950 . S
C1111 C1110 1.327 . S
C1111 C1115 1.429 . S
C1112 C1095 1.574 . S
C1112 H1106 0.949 . S
C1112 C1116 1.368 . S
C1113 C1094 1.429 . S
C1113 C1107 1.429 . S
C1113 C1114 1.523 . S
C1114 C1095 1.368 . S
C1114 C1108 1.368 . S
C1114 C1113 1.523 . S
C1115 C1099 1.429 . S
C1115 C1111 1.429 . S
C1115 C1116 1.523 . S
C1116 C1100 1.368 . S
C1116 C1112 1.368 . S
C1116 C1115 1.523 . S
H1117 C1092 0.950 . S
H1118 C1094 0.950 . S
H1119 C1095 0.949 . S
H1120 C1097 0.950 . S
H1121 C1099 0.950 . S
C1122 C1123 1.349 . S
C1122 C1124 1.327 . S
C1122 H1147 0.950 . S
C1123 C1122 1.349 . S
C1123 C1139 1.349 . S
C1124 C1122 1.327 . S
C1124 C1143 1.429 . S
C1124 H1148 0.950 . S
C1125 C1142 1.574 . S
C1125 C1144 1.368 . S
C1125 H1149 0.949 . S
H1126 C1130 0.949 . S
C1127 C1128 1.349 . S
C1127 C1129 1.327 . S
C1127 H1150 0.950 . S
C1128 C1127 1.349 . S
C1128 C1140 1.349 . S
C1129 C1127 1.327 . S
C1129 C1145 1.429 . S
C1129 H1151 0.950 . S
C1130 H1126 0.949 . S
C1130 C1138 1.574 . S
C1130 C1146 1.368 . S
H1131 C1139 0.950 . S
H1132 C1137 0.950 . S
H1133 C1138 0.949 . S
H1134 C1140 0.950 . S
H1135 C1141 0.950 . S
H1136 C1142 0.949 . S
C1137 H1132 0.950 . S
C1137 C1139 1.327 . S
C1137 C1143 1.429 . S
C1138 C1130 1.574 . S
C1138 H1133 0.949 . S
C1138 C1144 1.368 . S
C1139 C1123 1.349 . S
C1139 H1131 0.950 . S
C1139 C1137 1.327 . S
C1140 C1128 1.349 . S
C1140 H1134 0.950 . S
C1140 C1141 1.327 . S
C1141 H1135 0.950 . S
C1141 C1140 1.327 . S
C1141 C1145 1.429 . S
C1142 C1125 1.574 . S
C1142 H1136 0.949 . S
C1142 C1146 1.368 . S
C1143 C1124 1.429 . S
C1143 C1137 1.429 . S
C1143 C1144 1.523 . S
C1144 C1125 1.368 . S
C1144 C1138 1.368 . S
C1144 C1143 1.523 . S
C1145 C1129 1.429 . S
C1145 C1141 1.429 . S
C1145 C1146 1.523 . S
C1146 C1130 1.368 . S
C1146 C1142 1.368 . S
C1146 C1145 1.523 . S
H1147 C1122 0.950 . S
H1148 C1124 0.950 . S
H1149 C1125 0.949 . S
H1150 C1127 0.950 . S
H1151 C1129 0.950 . S
C1152 C1153 1.349 . S
C1152 C1154 1.327 . S
C1152 H1177 0.950 . S
C1153 C1152 1.349 . S
C1153 C1169 1.349 . S
C1154 C1152 1.327 . S
C1154 C1173 1.429 . S
C1154 H1178 0.950 . S
C1155 C1172 1.574 1_565 S
C1155 C1174 1.368 1_554 S
C1155 H1179 0.949 . S
H1156 C1160 0.949 . S
C1157 C1158 1.349 . S
C1157 C1159 1.327 . S
C1157 H1180 0.950 . S
C1158 C1157 1.349 . S
C1158 C1170 1.349 . S
C1159 C1157 1.327 . S
C1159 C1175 1.429 . S
C1159 H1181 0.950 . S
C1160 H1156 0.949 . S
C1160 C1168 1.574 1_545 S
C1160 C1176 1.368 1_556 S
H1161 C1169 0.950 1_554 S
H1162 C1167 0.950 . S
H1163 C1168 0.949 . S
H1164 C1170 0.950 1_556 S
H1165 C1171 1.057 . S
H1166 C1172 0.949 . S
C1167 H1162 0.950 . S
C1167 C1169 1.327 1_554 S
C1167 C1173 1.429 1_554 S
C1168 C1160 1.574 1_565 S
C1168 H1163 0.949 . S
C1168 C1174 1.368 . S
C1169 C1153 1.349 . S
C1169 H1161 0.950 1_556 S
C1169 C1167 1.327 1_556 S
C1170 C1158 1.349 . S
C1170 H1164 0.950 1_554 S
C1170 C1171 1.300 1_554 S
C1171 H1165 1.057 . S
C1171 C1170 1.300 1_556 S
C1171 C1175 1.361 1_556 S
C1172 C1155 1.574 1_545 S
C1172 H1166 0.949 . S
C1172 C1176 1.368 . S
C1173 C1154 1.429 . S
C1173 C1167 1.429 1_556 S
C1173 C1174 1.523 . S
C1174 C1155 1.368 1_556 S
C1174 C1168 1.368 . S
C1174 C1173 1.523 . S
C1175 C1159 1.429 . S
C1175 C1171 1.361 1_554 S
C1175 C1176 1.523 . S
C1176 C1160 1.368 1_554 S
C1176 C1172 1.368 . S
C1176 C1175 1.523 . S
H1177 C1152 0.950 . S
H1178 C1154 0.950 . S
H1179 C1155 0.949 . S
H1180 C1157 0.950 . S
H1181 C1159 0.950 . S
C1182 C1183 1.349 . S
C1182 C1184 1.327 . S
C1182 H1207 0.950 . S
C1183 C1182 1.349 . S
C1183 C1199 1.349 . S
C1184 C1182 1.327 . S
C1184 C1203 1.429 . S
C1184 H1208 0.950 . S
C1185 C1202 1.574 . S
C1185 C1204 1.368 . S
C1185 H1209 0.949 . S
H1186 C1190 0.949 . S
C1187 C1188 1.349 . S
C1187 C1189 1.327 . S
C1187 H1210 0.950 . S
C1188 C1187 1.349 . S
C1188 C1200 1.349 . S
C1189 C1187 1.327 . S
C1189 C1205 1.429 . S
C1189 H1211 0.950 . S
C1190 H1186 0.949 . S
C1190 C1198 1.574 . S
C1190 C1206 1.368 . S
H1191 C1199 0.950 . S
H1192 C1197 0.950 . S
H1193 C1198 0.949 . S
H1194 C1200 0.950 . S
H1195 C1201 0.950 . S
H1196 C1202 0.949 . S
C1197 H1192 0.950 . S
C1197 C1199 1.327 . S
C1197 C1203 1.429 . S
C1198 C1190 1.574 . S
C1198 H1193 0.949 . S
C1198 C1204 1.368 . S
C1199 C1183 1.349 . S
C1199 H1191 0.950 . S
C1199 C1197 1.327 . S
C1200 C1188 1.349 . S
C1200 H1194 0.950 . S
C1200 C1201 1.327 . S
C1201 H1195 0.950 . S
C1201 C1200 1.327 . S
C1201 C1205 1.429 . S
C1202 C1185 1.574 . S
C1202 H1196 0.949 . S
C1202 C1206 1.368 . S
C1203 C1184 1.429 . S
C1203 C1197 1.429 . S
C1203 C1204 1.523 . S
C1204 C1185 1.368 . S
C1204 C1198 1.368 . S
C1204 C1203 1.523 . S
C1205 C1189 1.429 . S
C1205 C1201 1.429 . S
C1205 C1206 1.523 . S
C1206 C1190 1.368 . S
C1206 C1202 1.368 . S
C1206 C1205 1.523 . S
H1207 C1182 0.950 . S
H1208 C1184 0.950 . S
H1209 C1185 0.949 . S
H1210 C1187 0.950 . S
H1211 C1189 0.950 . S
C1212 C1213 1.349 . S
C1212 C1214 1.327 . S
C1212 H1237 0.950 . S
C1213 C1212 1.349 . S
C1213 C1229 1.349 . S
C1214 C1212 1.327 . S
C1214 C1233 1.429 . S
C1214 H1238 0.950 . S
C1215 C1232 1.574 1_455 S
C1215 C1234 1.368 . S
C1215 H1239 0.949 . S
H1216 C1220 0.949 . S
C1217 C1218 1.349 . S
C1217 C1219 1.327 . S
C1217 H1240 0.950 . S
C1218 C1217 1.349 . S
C1218 C1230 1.349 . S
C1219 C1217 1.327 . S
C1219 C1235 1.429 . S
C1219 H1241 0.950 . S
C1220 H1216 0.949 . S
C1220 C1228 1.574 1_655 S
C1220 C1236 1.368 . S
H1221 C1229 0.950 . S
H1222 C1227 0.950 . S
H1223 C1228 0.949 . S
H1224 C1230 0.950 . S
H1225 C1231 0.950 . S
H1226 C1232 0.949 . S
C1227 H1222 0.950 . S
C1227 C1229 1.327 . S
C1227 C1233 1.429 . S
C1228 C1220 1.574 1_455 S
C1228 H1223 0.949 . S
C1228 C1234 1.368 . S
C1229 C1213 1.349 . S
C1229 H1221 0.950 . S
C1229 C1227 1.327 . S
C1230 C1218 1.349 . S
C1230 H1224 0.950 . S
C1230 C1231 1.327 . S
C1231 H1225 0.950 . S
C1231 C1230 1.327 . S
C1231 C1235 1.429 . S
C1232 C1215 1.574 1_655 S
C1232 H1226 0.949 . S
C1232 C1236 1.368 . S
C1233 C1214 1.429 . S
C1233 C1227 1.429 . S
C1233 C1234 1.523 . S
C1234 C1215 1.368 . S
C1234 C1228 1.368 . S
C1234 C1233 1.523 . S
C1235 C1219 1.429 . S
C1235 C1231 1.429 . S
C1235 C1236 1.523 . S
C1236 C1220 1.368 . S
C1236 C1232 1.368 . S
C1236 C1235 1.523 . S
H1237 C1212 0.950 . S
H1238 C1214 0.950 . S
H1239 C1215 0.949 . S
H1240 C1217 0.950 . S
H1241 C1219 0.950 . S
C1242 C1243 1.349 . S
C1242 C1244 1.327 . S
C1242 H1267 0.950 . S
C1243 C1242 1.349 . S
C1243 C1259 1.349 . S
C1244 C1242 1.327 . S
C1244 C1263 1.429 . S
C1244 H1268 0.950 . S
C1245 C1262 1.574 1_565 S
C1245 C1264 1.368 . S
C1245 H1269 0.949 . S
H1246 C1250 0.949 . S
C1247 C1248 1.349 . S
C1247 C1249 1.327 . S
C1247 H1270 0.950 . S
C1248 C1247 1.349 . S
C1248 C1260 1.349 . S
C1249 C1247 1.327 . S
C1249 C1265 1.429 . S
C1249 H1271 0.950 . S
C1250 H1246 0.949 . S
C1250 C1258 1.574 1_545 S
C1250 C1266 1.368 . S
H1251 C1259 0.950 . S
H1252 C1257 0.950 . S
H1253 C1258 0.949 . S
H1254 C1260 0.950 . S
H1255 C1261 0.950 . S
H1256 C1262 0.949 . S
C1257 H1252 0.950 . S
C1257 C1259 1.327 . S
C1257 C1263 1.429 . S
C1258 C1250 1.574 1_565 S
C1258 H1253 0.949 . S
C1258 C1264 1.368 . S
C1259 C1243 1.349 . S
C1259 H1251 0.950 . S
C1259 C1257 1.327 . S
C1260 C1248 1.349 . S
C1260 H1254 0.950 . S
C1260 C1261 1.327 . S
C1261 H1255 0.950 . S
C1261 C1260 1.327 . S
C1261 C1265 1.429 . S
C1262 C1245 1.574 1_545 S
C1262 H1256 0.949 . S
C1262 C1266 1.368 . S
C1263 C1244 1.429 . S
C1263 C1257 1.429 . S
C1263 C1264 1.523 . S
C1264 C1245 1.368 . S
C1264 C1258 1.368 . S
C1264 C1263 1.523 . S
C1265 C1249 1.429 . S
C1265 C1261 1.429 . S
C1265 C1266 1.523 . S
C1266 C1250 1.368 . S
C1266 C1262 1.368 . S
C1266 C1265 1.523 . S
H1267 C1242 0.950 . S
H1268 C1244 0.950 . S
H1269 C1245 0.949 . S
H1270 C1247 0.950 . S
H1271 C1249 0.950 . S
C1272 C1273 1.349 . S
C1272 C1274 1.327 . S
C1272 H1297 0.950 . S
C1273 C1272 1.349 . S
C1273 C1289 1.349 . S
C1274 C1272 1.327 . S
C1274 C1293 1.429 . S
C1274 H1298 0.950 . S
C1275 C1292 1.574 . S
C1275 C1294 1.368 . S
C1275 H1299 0.949 . S
H1276 C1280 0.949 . S
C1277 C1278 1.349 . S
C1277 C1279 1.327 . S
C1277 H1300 0.950 . S
C1278 C1277 1.349 . S
C1278 C1290 1.349 . S
C1279 C1277 1.327 . S
C1279 C1295 1.429 . S
C1279 H1301 0.950 . S
C1280 H1276 0.949 . S
C1280 C1288 1.574 . S
C1280 C1296 1.368 . S
H1281 C1289 0.950 . S
H1282 C1287 0.950 . S
H1283 C1288 0.949 . S
H1284 C1290 0.950 . S
H1285 C1291 0.950 . S
H1286 C1292 0.949 . S
C1287 H1282 0.950 . S
C1287 C1289 1.327 . S
C1287 C1293 1.429 . S
C1288 C1280 1.574 . S
C1288 H1283 0.949 . S
C1288 C1294 1.368 . S
C1289 C1273 1.349 . S
C1289 H1281 0.950 . S
C1289 C1287 1.327 . S
C1290 C1278 1.349 . S
C1290 H1284 0.950 . S
C1290 C1291 1.327 . S
C1291 H1285 0.950 . S
C1291 C1290 1.327 . S
C1291 C1295 1.429 . S
C1292 C1275 1.574 . S
C1292 H1286 0.949 . S
C1292 C1296 1.368 . S
C1293 C1274 1.429 . S
C1293 C1287 1.429 . S
C1293 C1294 1.523 . S
C1294 C1275 1.368 . S
C1294 C1288 1.368 . S
C1294 C1293 1.523 . S
C1295 C1279 1.429 . S
C1295 C1291 1.429 . S
C1295 C1296 1.523 . S
C1296 C1280 1.368 . S
C1296 C1292 1.368 . S
C1296 C1295 1.523 . S
H1297 C1272 0.950 . S
H1298 C1274 0.950 . S
H1299 C1275 0.949 . S
H1300 C1277 0.950 . S
H1301 C1279 0.950 . S
C1302 C1303 1.349 . S
C1302 C1304 1.327 . S
C1302 H1327 0.950 . S
C1303 C1302 1.349 . S
C1303 C1319 1.349 . S
C1304 C1302 1.327 . S
C1304 C1323 1.429 . S
C1304 H1328 0.950 . S
C1305 C1322 1.574 1_655 S
C1305 C1324 1.368 . S
C1305 H1329 0.949 . S
H1306 C1310 0.949 . S
C1307 C1308 1.349 . S
C1307 C1309 1.327 . S
C1307 H1330 0.950 . S
C1308 C1307 1.349 . S
C1308 C1320 1.349 . S
C1309 C1307 1.327 . S
C1309 C1325 1.429 . S
C1309 H1331 0.950 . S
C1310 H1306 0.949 . S
C1310 C1318 1.574 1_455 S
C1310 C1326 1.368 . S
H1311 C1319 0.950 . S
H1312 C1317 0.950 . S
H1313 C1318 0.949 . S
H1314 C1320 0.950 . S
H1315 C1321 0.950 . S
H1316 C1322 0.949 . S
C1317 H1312 0.950 . S
C1317 C1319 1.327 . S
C1317 C1323 1.429 . S
C1318 C1310 1.574 1_655 S
C1318 H1313 0.949 . S
C1318 C1324 1.368 . S
C1319 C1303 1.349 . S
C1319 H1311 0.950 . S
C1319 C1317 1.327 . S
C1320 C1308 1.349 . S
C1320 H1314 0.950 . S
C1320 C1321 1.327 . S
C1321 H1315 0.950 . S
C1321 C1320 1.327 . S
C1321 C1325 1.429 . S
C1322 C1305 1.574 1_455 S
C1322 H1316 0.949 . S
C1322 C1326 1.368 . S
C1323 C1304 1.429 . S
C1323 C1317 1.429 . S
C1323 C1324 1.523 . S
C1324 C1305 1.368 . S
C1324 C1318 1.368 . S
C1324 C1323 1.523 . S
C1325 C1309 1.429 . S
C1325 C1321 1.429 . S
C1325 C1326 1.523 . S
C1326 C1310 1.368 . S
C1326 C1322 1.368 . S
C1326 C1325 1.523 . S
H1327 C1302 0.950 . S
H1328 C1304 0.950 . S
H1329 C1305 0.949 . S
H1330 C1307 0.950 . S
H1331 C1309 0.950 . S
C1332 C1333 1.349 . S
C1332 C1334 1.327 . S
C1332 H1357 0.950 . S
C1333 C1332 1.349 . S
C1333 C1349 1.349 . S
C1334 C1332 1.327 . S
C1334 C1353 1.429 . S
C1334 H1358 0.950 . S
C1335 C1352 1.574 . S
C1335 C1354 1.368 . S
C1335 H1359 0.949 . S
H1336 C1340 0.949 . S
C1337 C1338 1.349 . S
C1337 C1339 1.327 . S
C1337 H1360 0.950 . S
C1338 C1337 1.349 . S
C1338 C1350 1.349 . S
C1339 C1337 1.327 . S
C1339 C1355 1.429 . S
C1339 H1361 0.950 . S
C1340 H1336 0.949 . S
C1340 C1348 1.574 . S
C1340 C1356 1.368 . S
H1341 C1349 0.950 . S
H1342 C1347 0.950 . S
H1343 C1348 0.949 . S
H1344 C1350 0.950 . S
H1345 C1351 0.950 . S
H1346 C1352 0.949 . S
C1347 H1342 0.950 . S
C1347 C1349 1.327 . S
C1347 C1353 1.429 . S
C1348 C1340 1.574 . S
C1348 H1343 0.949 . S
C1348 C1354 1.368 . S
C1349 C1333 1.349 . S
C1349 H1341 0.950 . S
C1349 C1347 1.327 . S
C1350 C1338 1.349 . S
C1350 H1344 0.950 . S
C1350 C1351 1.327 . S
C1351 H1345 0.950 . S
C1351 C1350 1.327 . S
C1351 C1355 1.429 . S
C1352 C1335 1.574 . S
C1352 H1346 0.949 . S
C1352 C1356 1.368 . S
C1353 C1334 1.429 . S
C1353 C1347 1.429 . S
C1353 C1354 1.523 . S
C1354 C1335 1.368 . S
C1354 C1348 1.368 . S
C1354 C1353 1.523 . S
C1355 C1339 1.429 . S
C1355 C1351 1.429 . S
C1355 C1356 1.523 . S
C1356 C1340 1.368 . S
C1356 C1352 1.368 . S
C1356 C1355 1.523 . S
H1357 C1332 0.950 . S
H1358 C1334 0.950 . S
H1359 C1335 0.949 . S
H1360 C1337 0.950 . S
H1361 C1339 0.950 . S
C1362 C1363 1.349 . S
C1362 C1364 1.327 . S
C1362 H1387 0.950 . S
C1363 C1362 1.349 . S
C1363 C1379 1.349 . S
C1364 C1362 1.327 . S
C1364 C1383 1.429 . S
C1364 H1388 0.950 . S
C1365 C1382 1.574 . S
C1365 C1384 1.368 . S
C1365 H1389 0.949 . S
H1366 C1370 0.949 . S
C1367 C1368 1.349 . S
C1367 C1369 1.327 . S
C1367 H1390 0.950 . S
C1368 C1367 1.349 . S
C1368 C1380 1.349 . S
C1369 C1367 1.327 . S
C1369 C1385 1.429 . S
C1369 H1391 0.950 . S
C1370 H1366 0.949 . S
C1370 C1378 1.574 . S
C1370 C1386 1.368 . S
H1371 C1379 0.950 . S
H1372 C1377 0.950 . S
H1373 C1378 0.949 . S
H1374 C1380 0.950 . S
H1375 C1381 0.950 . S
H1376 C1382 0.949 . S
C1377 H1372 0.950 . S
C1377 C1379 1.327 . S
C1377 C1383 1.429 . S
C1378 C1370 1.574 . S
C1378 H1373 0.949 . S
C1378 C1384 1.368 . S
C1379 C1363 1.349 . S
C1379 H1371 0.950 . S
C1379 C1377 1.327 . S
C1380 C1368 1.349 . S
C1380 H1374 0.950 . S
C1380 C1381 1.327 . S
C1381 H1375 0.950 . S
C1381 C1380 1.327 . S
C1381 C1385 1.429 . S
C1382 C1365 1.574 . S
C1382 H1376 0.949 . S
C1382 C1386 1.368 . S
C1383 C1364 1.429 . S
C1383 C1377 1.429 . S
C1383 C1384 1.523 . S
C1384 C1365 1.368 . S
C1384 C1378 1.368 . S
C1384 C1383 1.523 . S
C1385 C1369 1.429 . S
C1385 C1381 1.429 . S
C1385 C1386 1.523 . S
C1386 C1370 1.368 . S
C1386 C1382 1.368 . S
C1386 C1385 1.523 . S
H1387 C1362 0.950 . S
H1388 C1364 0.950 . S
H1389 C1365 0.949 . S
H1390 C1367 0.950 . S
H1391 C1369 0.950 . S
C1392 C1393 1.349 . S
C1392 C1394 1.327 . S
C1392 H1417 0.950 . S
C1393 C1392 1.349 . S
C1393 C1409 1.349 . S
C1394 C1392 1.327 . S
C1394 C1413 1.429 . S
C1394 H1418 0.950 . S
C1395 C1412 1.574 . S
C1395 C1414 1.368 . S
C1395 H1419 0.949 . S
H1396 C1400 0.949 . S
C1397 C1398 1.349 . S
C1397 C1399 1.327 . S
C1397 H1420 0.950 . S
C1398 C1397 1.349 . S
C1398 C1410 1.349 . S
C1399 C1397 1.327 . S
C1399 C1415 1.429 . S
C1399 H1421 0.950 . S
C1400 H1396 0.949 . S
C1400 C1408 1.574 . S
C1400 C1416 1.368 . S
H1401 C1409 0.950 . S
H1402 C1407 0.950 . S
H1403 C1408 0.949 . S
H1404 C1410 0.950 . S
H1405 C1411 0.950 . S
H1406 C1412 0.949 . S
C1407 H1402 0.950 . S
C1407 C1409 1.327 . S
C1407 C1413 1.429 . S
C1408 C1400 1.574 . S
C1408 H1403 0.949 . S
C1408 C1414 1.368 . S
C1409 C1393 1.349 . S
C1409 H1401 0.950 . S
C1409 C1407 1.327 . S
C1410 C1398 1.349 . S
C1410 H1404 0.950 . S
C1410 C1411 1.327 . S
C1411 H1405 0.950 . S
C1411 C1410 1.327 . S
C1411 C1415 1.429 . S
C1412 C1395 1.574 . S
C1412 H1406 0.949 . S
C1412 C1416 1.368 . S
C1413 C1394 1.429 . S
C1413 C1407 1.429 . S
C1413 C1414 1.523 . S
C1414 C1395 1.368 . S
C1414 C1408 1.368 . S
C1414 C1413 1.523 . S
C1415 C1399 1.429 . S
C1415 C1411 1.429 . S
C1415 C1416 1.523 . S
C1416 C1400 1.368 . S
C1416 C1412 1.368 . S
C1416 C1415 1.523 . S
H1417 C1392 0.950 . S
H1418 C1394 0.950 . S
H1419 C1395 0.949 . S
H1420 C1397 0.950 . S
H1421 C1399 0.950 . S
C1422 C1423 1.349 . S
C1422 C1424 1.327 . S
C1422 H1447 0.950 . S
C1423 C1422 1.349 . S
C1423 C1439 1.349 . S
C1424 C1422 1.327 . S
C1424 C1443 1.429 . S
C1424 H1448 0.950 . S
C1425 C1442 1.574 . S
C1425 C1444 1.368 . S
C1425 H1449 0.949 . S
H1426 C1430 0.949 . S
C1427 C1428 1.349 . S
C1427 C1429 1.327 . S
C1427 H1450 0.950 . S
C1428 C1427 1.349 . S
C1428 C1440 1.349 . S
C1429 C1427 1.327 . S
C1429 C1445 1.429 . S
C1429 H1451 0.950 . S
C1430 H1426 0.949 . S
C1430 C1438 1.574 . S
C1430 C1446 1.368 . S
H1431 C1439 0.950 . S
H1432 C1437 0.950 . S
H1433 C1438 0.949 . S
H1434 C1440 0.950 . S
H1435 C1441 0.950 . S
H1436 C1442 0.949 . S
C1437 H1432 0.950 . S
C1437 C1439 1.327 . S
C1437 C1443 1.429 . S
C1438 C1430 1.574 . S
C1438 H1433 0.949 . S
C1438 C1444 1.368 . S
C1439 C1423 1.349 . S
C1439 H1431 0.950 . S
C1439 C1437 1.327 . S
C1440 C1428 1.349 . S
C1440 H1434 0.950 . S
C1440 C1441 1.327 . S
C1441 H1435 0.950 . S
C1441 C1440 1.327 . S
C1441 C1445 1.429 . S
C1442 C1425 1.574 . S
C1442 H1436 0.949 . S
C1442 C1446 1.368 . S
C1443 C1424 1.429 . S
C1443 C1437 1.429 . S
C1443 C1444 1.523 . S
C1444 C1425 1.368 . S
C1444 C1438 1.368 . S
C1444 C1443 1.523 . S
C1445 C1429 1.429 . S
C1445 C1441 1.429 . S
C1445 C1446 1.523 . S
C1446 C1430 1.368 . S
C1446 C1442 1.368 . S
C1446 C1445 1.523 . S
H1447 C1422 0.950 . S
H1448 C1424 0.950 . S
H1449 C1425 0.949 . S
H1450 C1427 0.950 . S
H1451 C1429 0.950 . S
C1452 C1453 1.349 . S
C1452 C1454 1.327 . S
C1452 H1477 0.950 . S
C1453 C1452 1.349 . S
C1453 C1469 1.349 . S
C1454 C1452 1.327 . S
C1454 C1473 1.429 . S
C1454 H1478 0.950 . S
C1455 C1472 1.574 . S
C1455 C1474 1.368 . S
C1455 H1479 0.949 . S
H1456 C1460 0.949 . S
C1457 C1458 1.349 . S
C1457 C1459 1.327 . S
C1457 H1480 0.950 . S
C1458 C1457 1.349 . S
C1458 C1470 1.349 . S
C1459 C1457 1.327 . S
C1459 C1475 1.429 . S
C1459 H1481 0.950 . S
C1460 H1456 0.949 . S
C1460 C1468 1.574 . S
C1460 C1476 1.368 . S
H1461 C1469 0.950 . S
H1462 C1467 0.950 . S
H1463 C1468 0.949 . S
H1464 C1470 0.950 . S
H1465 C1471 0.950 . S
H1466 C1472 0.949 . S
C1467 H1462 0.950 . S
C1467 C1469 1.327 . S
C1467 C1473 1.429 . S
C1468 C1460 1.574 . S
C1468 H1463 0.949 . S
C1468 C1474 1.368 . S
C1469 C1453 1.349 . S
C1469 H1461 0.950 . S
C1469 C1467 1.327 . S
C1470 C1458 1.349 . S
C1470 H1464 0.950 . S
C1470 C1471 1.327 . S
C1471 H1465 0.950 . S
C1471 C1470 1.327 . S
C1471 C1475 1.429 . S
C1472 C1455 1.574 . S
C1472 H1466 0.949 . S
C1472 C1476 1.368 . S
C1473 C1454 1.429 . S
C1473 C1467 1.429 . S
C1473 C1474 1.523 . S
C1474 C1455 1.368 . S
C1474 C1468 1.368 . S
C1474 C1473 1.523 . S
C1475 C1459 1.429 . S
C1475 C1471 1.429 . S
C1475 C1476 1.523 . S
C1476 C1460 1.368 . S
C1476 C1472 1.368 . S
C1476 C1475 1.523 . S
H1477 C1452 0.950 . S
H1478 C1454 0.950 . S
H1479 C1455 0.949 . S
H1480 C1457 0.950 . S
H1481 C1459 0.950 . S
C1482 C1483 1.349 . S
C1482 C1484 1.327 . S
C1482 H1507 0.950 . S
C1483 C1482 1.349 . S
C1483 C1499 1.349 . S
C1484 C1482 1.327 . S
C1484 C1503 1.429 . S
C1484 H1508 0.950 . S
C1485 C1502 1.574 . S
C1485 C1504 1.368 . S
C1485 H1509 0.949 . S
H1486 C1490 0.949 . S
C1487 C1488 1.349 . S
C1487 C1489 1.327 . S
C1487 H1510 0.950 . S
C1488 C1487 1.349 . S
C1488 C1500 1.349 . S
C1489 C1487 1.327 . S
C1489 C1505 1.429 . S
C1489 H1511 0.950 . S
C1490 H1486 0.949 . S
C1490 C1498 1.574 . S
C1490 C1506 1.368 . S
H1491 C1499 0.950 . S
H1492 C1497 0.950 . S
H1493 C1498 0.949 . S
H1494 C1500 0.950 . S
H1495 C1501 0.950 . S
H1496 C1502 0.949 . S
C1497 H1492 0.950 . S
C1497 C1499 1.327 . S
C1497 C1503 1.429 . S
C1498 C1490 1.574 . S
C1498 H1493 0.949 . S
C1498 C1504 1.368 . S
C1499 C1483 1.349 . S
C1499 H1491 0.950 . S
C1499 C1497 1.327 . S
C1500 C1488 1.349 . S
C1500 H1494 0.950 . S
C1500 C1501 1.327 . S
C1501 H1495 0.950 . S
C1501 C1500 1.327 . S
C1501 C1505 1.429 . S
C1502 C1485 1.574 . S
C1502 H1496 0.949 . S
C1502 C1506 1.368 . S
C1503 C1484 1.429 . S
C1503 C1497 1.429 . S
C1503 C1504 1.523 . S
C1504 C1485 1.368 . S
C1504 C1498 1.368 . S
C1504 C1503 1.523 . S
C1505 C1489 1.429 . S
C1505 C1501 1.429 . S
C1505 C1506 1.523 . S
C1506 C1490 1.368 . S
C1506 C1502 1.368 . S
C1506 C1505 1.523 . S
H1507 C1482 0.950 . S
H1508 C1484 0.950 . S
H1509 C1485 0.949 . S
H1510 C1487 0.950 . S
H1511 C1489 0.950 . S
C1512 C1513 1.349 . S
C1512 C1514 1.327 . S
C1512 H1537 0.950 . S
C1513 C1512 1.349 . S
C1513 C1529 1.349 . S
C1514 C1512 1.327 . S
C1514 C1533 1.429 . S
C1514 H1538 0.950 . S
C1515 C1532 1.574 . S
C1515 C1534 1.368 . S
C1515 H1539 0.949 . S
H1516 C1520 0.949 . S
C1517 C1518 1.349 . S
C1517 C1519 1.327 . S
C1517 H1540 0.950 . S
C1518 C1517 1.349 . S
C1518 C1530 1.349 . S
C1519 C1517 1.327 . S
C1519 C1535 1.429 . S
C1519 H1541 0.950 . S
C1520 H1516 0.949 . S
C1520 C1528 1.574 . S
C1520 C1536 1.368 . S
H1521 C1529 0.950 . S
H1522 C1527 0.950 . S
H1523 C1528 0.949 . S
H1524 C1530 0.950 . S
H1525 C1531 0.950 . S
H1526 C1532 0.949 . S
C1527 H1522 0.950 . S
C1527 C1529 1.327 . S
C1527 C1533 1.429 . S
C1528 C1520 1.574 . S
C1528 H1523 0.949 . S
C1528 C1534 1.368 . S
C1529 C1513 1.349 . S
C1529 H1521 0.950 . S
C1529 C1527 1.327 . S
C1530 C1518 1.349 . S
C1530 H1524 0.950 . S
C1530 C1531 1.327 . S
C1531 H1525 0.950 . S
C1531 C1530 1.327 . S
C1531 C1535 1.429 . S
C1532 C1515 1.574 . S
C1532 H1526 0.949 . S
C1532 C1536 1.368 . S
C1533 C1514 1.429 . S
C1533 C1527 1.429 . S
C1533 C1534 1.523 . S
C1534 C1515 1.368 . S
C1534 C1528 1.368 . S
C1534 C1533 1.523 . S
C1535 C1519 1.429 . S
C1535 C1531 1.429 . S
C1535 C1536 1.523 . S
C1536 C1520 1.368 . S
C1536 C1532 1.368 . S
C1536 C1535 1.523 . S
H1537 C1512 0.950 . S
H1538 C1514 0.950 . S
H1539 C1515 0.949 . S
H1540 C1517 0.950 . S
H1541 C1519 0.950 . S
C1542 C1543 1.349 . S
C1542 C1544 1.327 . S
C1542 H1567 0.950 . S
C1543 C1542 1.349 . S
C1543 C1559 1.349 . S
C1544 C1542 1.327 . S
C1544 C1563 1.429 . S
C1544 H1568 0.950 . S
C1545 C1562 1.574 . S
C1545 C1564 1.368 . S
C1545 H1569 0.949 . S
H1546 C1550 0.949 . S
C1547 C1548 1.349 . S
C1547 C1549 1.327 . S
C1547 H1570 0.950 . S
C1548 C1547 1.349 . S
C1548 C1560 1.349 . S
C1549 C1547 1.327 . S
C1549 C1565 1.429 . S
C1549 H1571 0.950 . S
C1550 H1546 0.949 . S
C1550 C1558 1.574 . S
C1550 C1566 1.368 . S
H1551 C1559 0.950 . S
H1552 C1557 0.950 . S
H1553 C1558 0.949 . S
H1554 C1560 0.950 . S
H1555 C1561 0.950 . S
H1556 C1562 0.949 . S
C1557 H1552 0.950 . S
C1557 C1559 1.327 . S
C1557 C1563 1.429 . S
C1558 C1550 1.574 . S
C1558 H1553 0.949 . S
C1558 C1564 1.368 . S
C1559 C1543 1.349 . S
C1559 H1551 0.950 . S
C1559 C1557 1.327 . S
C1560 C1548 1.349 . S
C1560 H1554 0.950 . S
C1560 C1561 1.327 . S
C1561 H1555 0.950 . S
C1561 C1560 1.327 . S
C1561 C1565 1.429 . S
C1562 C1545 1.574 . S
C1562 H1556 0.949 . S
C1562 C1566 1.368 . S
C1563 C1544 1.429 . S
C1563 C1557 1.429 . S
C1563 C1564 1.523 . S
C1564 C1545 1.368 . S
C1564 C1558 1.368 . S
C1564 C1563 1.523 . S
C1565 C1549 1.429 . S
C1565 C1561 1.429 . S
C1565 C1566 1.523 . S
C1566 C1550 1.368 . S
C1566 C1562 1.368 . S
C1566 C1565 1.523 . S
H1567 C1542 0.950 . S
H1568 C1544 0.950 . S
H1569 C1545 0.949 . S
H1570 C1547 0.950 . S
H1571 C1549 0.950 . S
C1572 C1573 1.349 . S
C1572 C1574 1.327 . S
C1572 H1597 0.950 . S
C1573 C1572 1.349 . S
C1573 C1589 1.349 . S
C1574 C1572 1.327 . S
C1574 C1593 1.429 . S
C1574 H1598 0.950 . S
C1575 C1592 1.574 . S
C1575 C1594 1.368 . S
C1575 H1599 0.949 . S
H1576 C1580 0.949 . S
C1577 C1578 1.349 . S
C1577 C1579 1.327 . S
C1577 H1600 0.950 . S
C1578 C1577 1.349 . S
C1578 C1590 1.349 . S
C1579 C1577 1.327 . S
C1579 C1595 1.429 . S
C1579 H1601 0.950 . S
C1580 H1576 0.949 . S
C1580 C1588 1.574 . S
C1580 C1596 1.368 . S
H1581 C1589 0.950 . S
H1582 C1587 0.950 . S
H1583 C1588 0.949 . S
H1584 C1590 0.950 . S
H1585 C1591 0.950 . S
H1586 C1592 0.949 . S
C1587 H1582 0.950 . S
C1587 C1589 1.327 . S
C1587 C1593 1.429 . S
C1588 C1580 1.574 . S
C1588 H1583 0.949 . S
C1588 C1594 1.368 . S
C1589 C1573 1.349 . S
C1589 H1581 0.950 . S
C1589 C1587 1.327 . S
C1590 C1578 1.349 . S
C1590 H1584 0.950 . S
C1590 C1591 1.327 . S
C1591 H1585 0.950 . S
C1591 C1590 1.327 . S
C1591 C1595 1.429 . S
C1592 C1575 1.574 . S
C1592 H1586 0.949 . S
C1592 C1596 1.368 . S
C1593 C1574 1.429 . S
C1593 C1587 1.429 . S
C1593 C1594 1.523 . S
C1594 C1575 1.368 . S
C1594 C1588 1.368 . S
C1594 C1593 1.523 . S
C1595 C1579 1.429 . S
C1595 C1591 1.429 . S
C1595 C1596 1.523 . S
C1596 C1580 1.368 . S
C1596 C1592 1.368 . S
C1596 C1595 1.523 . S
H1597 C1572 0.950 . S
H1598 C1574 0.950 . S
H1599 C1575 0.949 . S
H1600 C1577 0.950 . S
H1601 C1579 0.950 . S
C1602 C1603 1.349 . S
C1602 C1604 1.327 . S
C1602 H1627 0.950 . S
C1603 C1602 1.349 . S
C1603 C1619 1.349 . S
C1604 C1602 1.327 . S
C1604 C1623 1.429 . S
C1604 H1628 0.950 . S
C1605 C1622 1.574 . S
C1605 C1624 1.368 . S
C1605 H1629 0.949 . S
H1606 C1610 0.949 . S
C1607 C1608 1.349 . S
C1607 C1609 1.327 . S
C1607 H1630 0.950 . S
C1608 C1607 1.349 . S
C1608 C1620 1.349 . S
C1609 C1607 1.327 . S
C1609 C1625 1.429 . S
C1609 H1631 0.950 . S
C1610 H1606 0.949 . S
C1610 C1618 1.574 . S
C1610 C1626 1.368 . S
H1611 C1619 0.950 . S
H1612 C1617 0.950 . S
H1613 C1618 0.949 . S
H1614 C1620 0.950 . S
H1615 C1621 0.950 . S
H1616 C1622 0.949 . S
C1617 H1612 0.950 . S
C1617 C1619 1.327 . S
C1617 C1623 1.429 . S
C1618 C1610 1.574 . S
C1618 H1613 0.949 . S
C1618 C1624 1.368 . S
C1619 C1603 1.349 . S
C1619 H1611 0.950 . S
C1619 C1617 1.327 . S
C1620 C1608 1.349 . S
C1620 H1614 0.950 . S
C1620 C1621 1.327 . S
C1621 H1615 0.950 . S
C1621 C1620 1.327 . S
C1621 C1625 1.429 . S
C1622 C1605 1.574 . S
C1622 H1616 0.949 . S
C1622 C1626 1.368 . S
C1623 C1604 1.429 . S
C1623 C1617 1.429 . S
C1623 C1624 1.523 . S
C1624 C1605 1.368 . S
C1624 C1618 1.368 . S
C1624 C1623 1.523 . S
C1625 C1609 1.429 . S
C1625 C1621 1.429 . S
C1625 C1626 1.523 . S
C1626 C1610 1.368 . S
C1626 C1622 1.368 . S
C1626 C1625 1.523 . S
H1627 C1602 0.950 . S
H1628 C1604 0.950 . S
H1629 C1605 0.949 . S
H1630 C1607 0.950 . S
H1631 C1609 0.950 . S
C1632 C1633 1.349 . S
C1632 C1634 1.327 . S
C1632 H1657 0.950 . S
C1633 C1632 1.349 . S
C1633 C1649 1.349 . S
C1634 C1632 1.327 . S
C1634 C1653 1.429 . S
C1634 H1658 0.950 . S
C1635 C1652 1.574 . S
C1635 C1654 1.368 . S
C1635 H1659 0.949 . S
H1636 C1640 0.949 . S
C1637 C1638 1.349 . S
C1637 C1639 1.327 . S
C1637 H1660 0.950 . S
C1638 C1637 1.349 . S
C1638 C1650 1.349 . S
C1639 C1637 1.327 . S
C1639 C1655 1.429 . S
C1639 H1661 0.950 . S
C1640 H1636 0.949 . S
C1640 C1648 1.574 . S
C1640 C1656 1.368 . S
H1641 C1649 0.950 . S
H1642 C1647 0.950 . S
H1643 C1648 0.949 . S
H1644 C1650 0.950 . S
H1645 C1651 0.950 . S
H1646 C1652 0.949 . S
C1647 H1642 0.950 . S
C1647 C1649 1.327 . S
C1647 C1653 1.429 . S
C1648 C1640 1.574 . S
C1648 H1643 0.949 . S
C1648 C1654 1.368 . S
C1649 C1633 1.349 . S
C1649 H1641 0.950 . S
C1649 C1647 1.327 . S
C1650 C1638 1.349 . S
C1650 H1644 0.950 . S
C1650 C1651 1.327 . S
C1651 H1645 0.950 . S
C1651 C1650 1.327 . S
C1651 C1655 1.429 . S
C1652 C1635 1.574 . S
C1652 H1646 0.949 . S
C1652 C1656 1.368 . S
C1653 C1634 1.429 . S
C1653 C1647 1.429 . S
C1653 C1654 1.523 . S
C1654 C1635 1.368 . S
C1654 C1648 1.368 . S
C1654 C1653 1.523 . S
C1655 C1639 1.429 . S
C1655 C1651 1.429 . S
C1655 C1656 1.523 . S
C1656 C1640 1.368 . S
C1656 C1652 1.368 . S
C1656 C1655 1.523 . S
H1657 C1632 0.950 . S
H1658 C1634 0.950 . S
H1659 C1635 0.949 . S
H1660 C1637 0.950 . S
H1661 C1639 0.950 . S
C1662 C1663 1.349 . S
C1662 C1664 1.327 . S
C1662 H1687 0.950 . S
C1663 C1662 1.349 . S
C1663 C1679 1.349 . S
C1664 C1662 1.327 . S
C1664 C1683 1.429 . S
C1664 H1688 0.950 . S
C1665 C1682 1.574 . S
C1665 C1684 1.368 . S
C1665 H1689 0.949 . S
H1666 C1670 0.949 . S
C1667 C1668 1.349 . S
C1667 C1669 1.327 . S
C1667 H1690 0.950 . S
C1668 C1667 1.349 . S
C1668 C1680 1.349 . S
C1669 C1667 1.327 . S
C1669 C1685 1.429 . S
C1669 H1691 0.950 . S
C1670 H1666 0.949 . S
C1670 C1678 1.574 . S
C1670 C1686 1.368 . S
H1671 C1679 0.950 . S
H1672 C1677 0.950 . S
H1673 C1678 0.949 . S
H1674 C1680 0.950 . S
H1675 C1681 0.950 . S
H1676 C1682 0.949 . S
C1677 H1672 0.950 . S
C1677 C1679 1.327 . S
C1677 C1683 1.429 . S
C1678 C1670 1.574 . S
C1678 H1673 0.949 . S
C1678 C1684 1.368 . S
C1679 C1663 1.349 . S
C1679 H1671 0.950 . S
C1679 C1677 1.327 . S
C1680 C1668 1.349 . S
C1680 H1674 0.950 . S
C1680 C1681 1.327 . S
C1681 H1675 0.950 . S
C1681 C1680 1.327 . S
C1681 C1685 1.429 . S
C1682 C1665 1.574 . S
C1682 H1676 0.949 . S
C1682 C1686 1.368 . S
C1683 C1664 1.429 . S
C1683 C1677 1.429 . S
C1683 C1684 1.523 . S
C1684 C1665 1.368 . S
C1684 C1678 1.368 . S
C1684 C1683 1.523 . S
C1685 C1669 1.429 . S
C1685 C1681 1.429 . S
C1685 C1686 1.523 . S
C1686 C1670 1.368 . S
C1686 C1682 1.368 . S
C1686 C1685 1.523 . S
H1687 C1662 0.950 . S
H1688 C1664 0.950 . S
H1689 C1665 0.949 . S
H1690 C1667 0.950 . S
H1691 C1669 0.950 . S
C1692 C1693 1.349 . S
C1692 C1694 1.327 . S
C1692 H1717 0.950 . S
C1693 C1692 1.349 . S
C1693 C1709 1.349 . S
C1694 C1692 1.327 . S
C1694 C1713 1.429 . S
C1694 H1718 0.950 . S
C1695 C1712 1.521 1_554 S
C1695 C1714 1.368 . S
C1695 H1719 0.949 . S
H1696 C1700 0.949 . S
C1697 C1698 1.349 . S
C1697 C1699 1.327 . S
C1697 H1720 0.950 . S
C1698 C1697 1.349 . S
C1698 C1710 1.349 . S
C1699 C1697 1.327 . S
C1699 C1715 1.429 . S
C1699 H1721 0.950 . S
C1700 H1696 0.949 . S
C1700 C1708 1.571 . S
C1700 C1716 1.368 . S
H1701 C1709 0.950 . S
H1702 C1707 0.950 . S
H1703 C1708 0.948 1_554 S
H1704 C1710 0.950 . S
H1705 C1711 0.950 . S
H1706 C1712 0.961 . S
C1707 H1702 0.950 . S
C1707 C1709 1.327 . S
C1707 C1713 1.429 . S
C1708 C1700 1.571 . S
C1708 H1703 0.948 1_556 S
C1708 C1714 1.371 1_556 S
C1709 C1693 1.349 . S
C1709 H1701 0.950 . S
C1709 C1707 1.327 . S
C1710 C1698 1.349 . S
C1710 H1704 0.950 . S
C1710 C1711 1.327 . S
C1711 H1705 0.950 . S
C1711 C1710 1.327 . S
C1711 C1715 1.429 . S
C1712 C1695 1.521 1_556 S
C1712 H1706 0.961 . S
C1712 C1716 1.420 . S
C1713 C1694 1.429 . S
C1713 C1707 1.429 . S
C1713 C1714 1.523 . S
C1714 C1695 1.368 . S
C1714 C1708 1.371 1_554 S
C1714 C1713 1.523 . S
C1715 C1699 1.429 . S
C1715 C1711 1.429 . S
C1715 C1716 1.523 . S
C1716 C1700 1.368 . S
C1716 C1712 1.420 . S
C1716 C1715 1.523 . S
H1717 C1692 0.950 . S
H1718 C1694 0.950 . S
H1719 C1695 0.949 . S
H1720 C1697 0.950 . S
H1721 C1699 0.950 . S
C1722 C1723 1.349 . S
C1722 C1724 1.327 . S
C1722 H1747 0.950 . S
C1723 C1722 1.349 . S
C1723 C1739 1.349 . S
C1724 C1722 1.327 . S
C1724 C1743 1.429 . S
C1724 H1748 0.950 . S
C1725 C1742 1.574 . S
C1725 C1744 1.368 . S
C1725 H1749 0.949 . S
H1726 C1730 0.949 . S
C1727 C1728 1.349 . S
C1727 C1729 1.327 . S
C1727 H1750 0.950 . S
C1728 C1727 1.349 . S
C1728 C1740 1.349 . S
C1729 C1727 1.327 . S
C1729 C1745 1.429 . S
C1729 H1751 0.950 . S
C1730 H1726 0.949 . S
C1730 C1738 1.574 . S
C1730 C1746 1.368 . S
H1731 C1739 0.950 . S
H1732 C1737 0.950 . S
H1733 C1738 0.949 . S
H1734 C1740 0.950 . S
H1735 C1741 0.950 . S
H1736 C1742 0.949 . S
C1737 H1732 0.950 . S
C1737 C1739 1.327 . S
C1737 C1743 1.429 . S
C1738 C1730 1.574 . S
C1738 H1733 0.949 . S
C1738 C1744 1.368 . S
C1739 C1723 1.349 . S
C1739 H1731 0.950 . S
C1739 C1737 1.327 . S
C1740 C1728 1.349 . S
C1740 H1734 0.950 . S
C1740 C1741 1.327 . S
C1741 H1735 0.950 . S
C1741 C1740 1.327 . S
C1741 C1745 1.429 . S
C1742 C1725 1.574 . S
C1742 H1736 0.949 . S
C1742 C1746 1.368 . S
C1743 C1724 1.429 . S
C1743 C1737 1.429 . S
C1743 C1744 1.523 . S
C1744 C1725 1.368 . S
C1744 C1738 1.368 . S
C1744 C1743 1.523 . S
C1745 C1729 1.429 . S
C1745 C1741 1.429 . S
C1745 C1746 1.523 . S
C1746 C1730 1.368 . S
C1746 C1742 1.368 . S
C1746 C1745 1.523 . S
H1747 C1722 0.950 . S
H1748 C1724 0.950 . S
H1749 C1725 0.949 . S
H1750 C1727 0.950 . S
H1751 C1729 0.950 . S
C1752 C1753 1.349 . S
C1752 C1754 1.327 . S
C1752 H1777 0.950 . S
C1753 C1752 1.349 . S
C1753 C1769 1.349 . S
C1754 C1752 1.327 . S
C1754 C1773 1.429 . S
C1754 H1778 0.950 . S
C1755 C1772 1.574 . S
C1755 C1774 1.368 . S
C1755 H1779 0.949 . S
H1756 C1760 0.949 . S
C1757 C1758 1.349 . S
C1757 C1759 1.327 . S
C1757 H1780 0.950 . S
C1758 C1757 1.349 . S
C1758 C1770 1.349 . S
C1759 C1757 1.327 . S
C1759 C1775 1.429 . S
C1759 H1781 0.950 . S
C1760 H1756 0.949 . S
C1760 C1768 1.574 . S
C1760 C1776 1.368 . S
H1761 C1769 0.950 . S
H1762 C1767 0.950 . S
H1763 C1768 0.949 . S
H1764 C1770 0.950 . S
H1765 C1771 0.950 . S
H1766 C1772 0.949 . S
C1767 H1762 0.950 . S
C1767 C1769 1.327 . S
C1767 C1773 1.429 . S
C1768 C1760 1.574 . S
C1768 H1763 0.949 . S
C1768 C1774 1.368 . S
C1769 C1753 1.349 . S
C1769 H1761 0.950 . S
C1769 C1767 1.327 . S
C1770 C1758 1.349 . S
C1770 H1764 0.950 . S
C1770 C1771 1.327 . S
C1771 H1765 0.950 . S
C1771 C1770 1.327 . S
C1771 C1775 1.429 . S
C1772 C1755 1.574 . S
C1772 H1766 0.949 . S
C1772 C1776 1.368 . S
C1773 C1754 1.429 . S
C1773 C1767 1.429 . S
C1773 C1774 1.523 . S
C1774 C1755 1.368 . S
C1774 C1768 1.368 . S
C1774 C1773 1.523 . S
C1775 C1759 1.429 . S
C1775 C1771 1.429 . S
C1775 C1776 1.523 . S
C1776 C1760 1.368 . S
C1776 C1772 1.368 . S
C1776 C1775 1.523 . S
H1777 C1752 0.950 . S
H1778 C1754 0.950 . S
H1779 C1755 0.949 . S
H1780 C1757 0.950 . S
H1781 C1759 0.950 . S
C1782 C1783 1.349 . S
C1782 C1784 1.327 . S
C1782 H1807 0.950 . S
C1783 C1782 1.349 . S
C1783 C1799 1.349 . S
C1784 C1782 1.327 . S
C1784 C1803 1.429 . S
C1784 H1808 0.950 . S
C1785 C1802 1.574 . S
C1785 C1804 1.368 . S
C1785 H1809 0.949 . S
H1786 C1790 0.949 . S
C1787 C1788 1.349 . S
C1787 C1789 1.327 . S
C1787 H1810 0.950 . S
C1788 C1787 1.349 . S
C1788 C1800 1.349 . S
C1789 C1787 1.327 . S
C1789 C1805 1.429 . S
C1789 H1811 0.950 . S
C1790 H1786 0.949 . S
C1790 C1798 1.574 . S
C1790 C1806 1.368 . S
H1791 C1799 0.950 . S
H1792 C1797 0.950 . S
H1793 C1798 0.949 . S
H1794 C1800 0.950 . S
H1795 C1801 0.950 . S
H1796 C1802 0.949 . S
C1797 H1792 0.950 . S
C1797 C1799 1.327 . S
C1797 C1803 1.429 . S
C1798 C1790 1.574 . S
C1798 H1793 0.949 . S
C1798 C1804 1.368 . S
C1799 C1783 1.349 . S
C1799 H1791 0.950 . S
C1799 C1797 1.327 . S
C1800 C1788 1.349 . S
C1800 H1794 0.950 . S
C1800 C1801 1.327 . S
C1801 H1795 0.950 . S
C1801 C1800 1.327 . S
C1801 C1805 1.429 . S
C1802 C1785 1.574 . S
C1802 H1796 0.949 . S
C1802 C1806 1.368 . S
C1803 C1784 1.429 . S
C1803 C1797 1.429 . S
C1803 C1804 1.523 . S
C1804 C1785 1.368 . S
C1804 C1798 1.368 . S
C1804 C1803 1.523 . S
C1805 C1789 1.429 . S
C1805 C1801 1.429 . S
C1805 C1806 1.523 . S
C1806 C1790 1.368 . S
C1806 C1802 1.368 . S
C1806 C1805 1.523 . S
H1807 C1782 0.950 . S
H1808 C1784 0.950 . S
H1809 C1785 0.949 . S
H1810 C1787 0.950 . S
H1811 C1789 0.950 . S
C1812 C1813 1.349 . S
C1812 C1814 1.327 . S
C1812 H1837 0.950 . S
C1813 C1812 1.349 . S
C1813 C1829 1.349 . S
C1814 C1812 1.327 . S
C1814 C1833 1.429 . S
C1814 H1838 0.950 . S
C1815 C1832 1.574 . S
C1815 C1834 1.368 . S
C1815 H1839 0.949 . S
H1816 C1820 0.949 . S
C1817 C1818 1.349 . S
C1817 C1819 1.327 . S
C1817 H1840 0.950 . S
C1818 C1817 1.349 . S
C1818 C1830 1.349 . S
C1819 C1817 1.327 . S
C1819 C1835 1.429 . S
C1819 H1841 0.950 . S
C1820 H1816 0.949 . S
C1820 C1828 1.574 . S
C1820 C1836 1.368 . S
H1821 C1829 0.950 . S
H1822 C1827 0.950 . S
H1823 C1828 0.949 . S
H1824 C1830 0.950 . S
H1825 C1831 0.950 . S
H1826 C1832 0.949 . S
C1827 H1822 0.950 . S
C1827 C1829 1.327 . S
C1827 C1833 1.429 . S
C1828 C1820 1.574 . S
C1828 H1823 0.949 . S
C1828 C1834 1.368 . S
C1829 C1813 1.349 . S
C1829 H1821 0.950 . S
C1829 C1827 1.327 . S
C1830 C1818 1.349 . S
C1830 H1824 0.950 . S
C1830 C1831 1.327 . S
C1831 H1825 0.950 . S
C1831 C1830 1.327 . S
C1831 C1835 1.429 . S
C1832 C1815 1.574 . S
C1832 H1826 0.949 . S
C1832 C1836 1.368 . S
C1833 C1814 1.429 . S
C1833 C1827 1.429 . S
C1833 C1834 1.523 . S
C1834 C1815 1.368 . S
C1834 C1828 1.368 . S
C1834 C1833 1.523 . S
C1835 C1819 1.429 . S
C1835 C1831 1.429 . S
C1835 C1836 1.523 . S
C1836 C1820 1.368 . S
C1836 C1832 1.368 . S
C1836 C1835 1.523 . S
H1837 C1812 0.950 . S
H1838 C1814 0.950 . S
H1839 C1815 0.949 . S
H1840 C1817 0.950 . S
H1841 C1819 0.950 . S
C1842 C1843 1.349 . S
C1842 C1844 1.327 . S
C1842 H1867 0.950 . S
C1843 C1842 1.349 . S
C1843 C1859 1.349 . S
C1844 C1842 1.327 . S
C1844 C1863 1.429 . S
C1844 H1868 0.950 . S
C1845 C1862 1.574 . S
C1845 C1864 1.368 . S
C1845 H1869 0.949 . S
H1846 C1850 0.949 . S
C1847 C1848 1.349 . S
C1847 C1849 1.327 . S
C1847 H1870 0.950 . S
C1848 C1847 1.349 . S
C1848 C1860 1.349 . S
C1849 C1847 1.327 . S
C1849 C1865 1.429 . S
C1849 H1871 0.950 . S
C1850 H1846 0.949 . S
C1850 C1858 1.574 . S
C1850 C1866 1.368 . S
H1851 C1859 0.950 . S
H1852 C1857 0.950 . S
H1853 C1858 0.949 . S
H1854 C1860 0.950 . S
H1855 C1861 0.950 . S
H1856 C1862 0.949 . S
C1857 H1852 0.950 . S
C1857 C1859 1.327 . S
C1857 C1863 1.429 . S
C1858 C1850 1.574 . S
C1858 H1853 0.949 . S
C1858 C1864 1.368 . S
C1859 C1843 1.349 . S
C1859 H1851 0.950 . S
C1859 C1857 1.327 . S
C1860 C1848 1.349 . S
C1860 H1854 0.950 . S
C1860 C1861 1.327 . S
C1861 H1855 0.950 . S
C1861 C1860 1.327 . S
C1861 C1865 1.429 . S
C1862 C1845 1.574 . S
C1862 H1856 0.949 . S
C1862 C1866 1.368 . S
C1863 C1844 1.429 . S
C1863 C1857 1.429 . S
C1863 C1864 1.523 . S
C1864 C1845 1.368 . S
C1864 C1858 1.368 . S
C1864 C1863 1.523 . S
C1865 C1849 1.429 . S
C1865 C1861 1.429 . S
C1865 C1866 1.523 . S
C1866 C1850 1.368 . S
C1866 C1862 1.368 . S
C1866 C1865 1.523 . S
H1867 C1842 0.950 . S
H1868 C1844 0.950 . S
H1869 C1845 0.949 . S
H1870 C1847 0.950 . S
H1871 C1849 0.950 . S
C1872 C1873 1.349 . S
C1872 C1874 1.327 . S
C1872 H1897 0.950 . S
C1873 C1872 1.349 . S
C1873 C1889 1.349 . S
C1874 C1872 1.327 . S
C1874 C1893 1.429 . S
C1874 H1898 0.950 . S
C1875 C1892 1.574 . S
C1875 C1894 1.368 . S
C1875 H1899 0.949 . S
H1876 C1880 0.949 . S
C1877 C1878 1.349 . S
C1877 C1879 1.327 . S
C1877 H1900 0.950 . S
C1878 C1877 1.349 . S
C1878 C1890 1.349 . S
C1879 C1877 1.327 . S
C1879 C1895 1.429 . S
C1879 H1901 0.950 . S
C1880 H1876 0.949 . S
C1880 C1888 1.574 . S
C1880 C1896 1.368 . S
H1881 C1889 0.950 . S
H1882 C1887 0.950 . S
H1883 C1888 0.949 . S
H1884 C1890 0.950 . S
H1885 C1891 0.950 . S
H1886 C1892 0.949 . S
C1887 H1882 0.950 . S
C1887 C1889 1.327 . S
C1887 C1893 1.429 . S
C1888 C1880 1.574 . S
C1888 H1883 0.949 . S
C1888 C1894 1.368 . S
C1889 C1873 1.349 . S
C1889 H1881 0.950 . S
C1889 C1887 1.327 . S
C1890 C1878 1.349 . S
C1890 H1884 0.950 . S
C1890 C1891 1.327 . S
C1891 H1885 0.950 . S
C1891 C1890 1.327 . S
C1891 C1895 1.429 . S
C1892 C1875 1.574 . S
C1892 H1886 0.949 . S
C1892 C1896 1.368 . S
C1893 C1874 1.429 . S
C1893 C1887 1.429 . S
C1893 C1894 1.523 . S
C1894 C1875 1.368 . S
C1894 C1888 1.368 . S
C1894 C1893 1.523 . S
C1895 C1879 1.429 . S
C1895 C1891 1.429 . S
C1895 C1896 1.523 . S
C1896 C1880 1.368 . S
C1896 C1892 1.368 . S
C1896 C1895 1.523 . S
H1897 C1872 0.950 . S
H1898 C1874 0.950 . S
H1899 C1875 0.949 . S
H1900 C1877 0.950 . S
H1901 C1879 0.950 . S
C1902 C1903 1.349 . S
C1902 C1904 1.327 . S
C1902 H1927 0.950 . S
C1903 C1902 1.349 . S
C1903 C1919 1.349 . S
C1904 C1902 1.327 . S
C1904 C1923 1.429 . S
C1904 H1928 0.825 1_556 S
C1905 C1922 1.574 . S
C1905 C1924 1.368 . S
C1905 H1929 0.949 . S
H1906 C1910 0.949 . S
C1907 C1908 1.349 . S
C1907 C1909 1.327 . S
C1907 H1930 0.950 . S
C1908 C1907 1.349 . S
C1908 C1920 1.349 . S
C1909 C1907 1.327 . S
C1909 C1925 1.429 . S
C1909 H1931 0.962 . S
C1910 H1906 0.949 . S
C1910 C1918 1.574 . S
C1910 C1926 1.368 . S
H1911 C1919 0.950 . S
H1912 C1917 0.950 . S
H1913 C1918 0.949 . S
H1914 C1920 0.950 . S
H1915 C1921 0.950 . S
H1916 C1922 0.949 . S
C1917 H1912 0.950 . S
C1917 C1919 1.327 . S
C1917 C1923 1.429 . S
C1918 C1910 1.574 . S
C1918 H1913 0.949 . S
C1918 C1924 1.368 1_554 S
C1919 C1903 1.349 . S
C1919 H1911 0.950 . S
C1919 C1917 1.327 . S
C1920 C1908 1.349 . S
C1920 H1914 0.950 . S
C1920 C1921 1.327 . S
C1921 H1915 0.950 . S
C1921 C1920 1.327 . S
C1921 C1925 1.429 . S
C1922 C1905 1.574 . S
C1922 H1916 0.949 . S
C1922 C1926 1.368 1_556 S
C1923 C1904 1.429 . S
C1923 C1917 1.429 . S
C1923 C1924 1.523 . S
C1924 C1905 1.368 . S
C1924 C1918 1.368 1_556 S
C1924 C1923 1.523 . S
C1925 C1909 1.429 . S
C1925 C1921 1.429 . S
C1925 C1926 1.523 . S
C1926 C1910 1.368 . S
C1926 C1922 1.368 1_554 S
C1926 C1925 1.523 . S
H1927 C1902 0.950 . S
H1928 C1904 0.825 1_554 S
H1929 C1905 0.949 . S
H1930 C1907 0.950 . S
H1931 C1909 0.962 . S
C1932 C1933 1.349 . S
C1932 C1934 1.327 . S
C1932 H1957 0.950 . S
C1933 C1932 1.349 . S
C1933 C1949 1.349 . S
C1934 C1932 1.327 . S
C1934 C1953 1.429 . S
C1934 H1958 0.950 . S
C1935 C1952 1.574 . S
C1935 C1954 1.368 . S
C1935 H1959 0.949 . S
H1936 C1940 0.949 . S
C1937 C1938 1.349 . S
C1937 C1939 1.327 . S
C1937 H1960 0.950 . S
C1938 C1937 1.349 . S
C1938 C1950 1.349 . S
C1939 C1937 1.327 . S
C1939 C1955 1.429 . S
C1939 H1961 0.950 . S
C1940 H1936 0.949 . S
C1940 C1948 1.574 . S
C1940 C1956 1.368 . S
H1941 C1949 0.950 . S
H1942 C1947 0.950 . S
H1943 C1948 0.949 . S
H1944 C1950 0.950 . S
H1945 C1951 0.950 . S
H1946 C1952 0.949 . S
C1947 H1942 0.950 . S
C1947 C1949 1.327 . S
C1947 C1953 1.429 . S
C1948 C1940 1.574 . S
C1948 H1943 0.949 . S
C1948 C1954 1.368 . S
C1949 C1933 1.349 . S
C1949 H1941 0.950 . S
C1949 C1947 1.327 . S
C1950 C1938 1.349 . S
C1950 H1944 0.950 . S
C1950 C1951 1.327 . S
C1951 H1945 0.950 . S
C1951 C1950 1.327 . S
C1951 C1955 1.429 . S
C1952 C1935 1.574 . S
C1952 H1946 0.949 . S
C1952 C1956 1.368 . S
C1953 C1934 1.429 . S
C1953 C1947 1.429 . S
C1953 C1954 1.523 . S
C1954 C1935 1.368 . S
C1954 C1948 1.368 . S
C1954 C1953 1.523 . S
C1955 C1939 1.429 . S
C1955 C1951 1.429 . S
C1955 C1956 1.523 . S
C1956 C1940 1.368 . S
C1956 C1952 1.368 . S
C1956 C1955 1.523 . S
H1957 C1932 0.950 . S
H1958 C1934 0.950 . S
H1959 C1935 0.949 . S
H1960 C1937 0.950 . S
H1961 C1939 0.950 . S
C1962 C1963 1.349 . S
C1962 C1964 1.327 . S
C1962 H1987 0.950 . S
C1963 C1962 1.349 . S
C1963 C1979 1.349 . S
C1964 C1962 1.327 . S
C1964 C1983 1.429 . S
C1964 H1988 0.950 . S
C1965 C1982 1.574 . S
C1965 C1984 1.368 . S
C1965 H1989 0.949 . S
H1966 C1970 0.949 . S
C1967 C1968 1.349 . S
C1967 C1969 1.327 . S
C1967 H1990 0.950 . S
C1968 C1967 1.349 . S
C1968 C1980 1.349 . S
C1969 C1967 1.327 . S
C1969 C1985 1.429 . S
C1969 H1991 0.950 . S
C1970 H1966 0.949 . S
C1970 C1978 1.574 . S
C1970 C1986 1.368 . S
H1971 C1979 0.950 . S
H1972 C1977 0.950 . S
H1973 C1978 0.949 . S
H1974 C1980 0.950 . S
H1975 C1981 0.950 . S
H1976 C1982 0.949 . S
C1977 H1972 0.950 . S
C1977 C1979 1.327 . S
C1977 C1983 1.429 . S
C1978 C1970 1.574 . S
C1978 H1973 0.949 . S
C1978 C1984 1.368 . S
C1979 C1963 1.349 . S
C1979 H1971 0.950 . S
C1979 C1977 1.327 . S
C1980 C1968 1.349 . S
C1980 H1974 0.950 . S
C1980 C1981 1.327 . S
C1981 H1975 0.950 . S
C1981 C1980 1.327 . S
C1981 C1985 1.429 . S
C1982 C1965 1.574 . S
C1982 H1976 0.949 . S
C1982 C1986 1.368 . S
C1983 C1964 1.429 . S
C1983 C1977 1.429 . S
C1983 C1984 1.523 . S
C1984 C1965 1.368 . S
C1984 C1978 1.368 . S
C1984 C1983 1.523 . S
C1985 C1969 1.429 . S
C1985 C1981 1.429 . S
C1985 C1986 1.523 . S
C1986 C1970 1.368 . S
C1986 C1982 1.368 . S
C1986 C1985 1.523 . S
H1987 C1962 0.950 . S
H1988 C1964 0.950 . S
H1989 C1965 0.949 . S
H1990 C1967 0.950 . S
H1991 C1969 0.950 . S
C1992 C1993 1.349 . S
C1992 C1994 1.327 . S
C1992 H2017 0.950 . S
C1993 C1992 1.349 . S
C1993 C2009 1.349 . S
C1994 C1992 1.327 . S
C1994 C2013 1.429 . S
C1994 H2018 0.950 . S
C1995 C2012 1.574 . S
C1995 C2014 1.368 . S
C1995 H2019 0.949 . S
H1996 C2000 0.949 . S
C1997 C1998 1.349 . S
C1997 C1999 1.327 . S
C1997 H2020 0.950 . S
C1998 C1997 1.349 . S
C1998 C2010 1.349 . S
C1999 C1997 1.327 . S
C1999 C2015 1.429 . S
C1999 H2021 0.950 . S
C2000 H1996 0.949 . S
C2000 C2008 1.574 . S
C2000 C2016 1.368 . S
H2001 C2009 0.950 . S
H2002 C2007 0.950 . S
H2003 C2008 0.949 . S
H2004 C2010 0.950 . S
H2005 C2011 0.950 . S
H2006 C2012 0.949 . S
C2007 H2002 0.950 . S
C2007 C2009 1.327 . S
C2007 C2013 1.429 . S
C2008 C2000 1.574 . S
C2008 H2003 0.949 . S
C2008 C2014 1.368 . S
C2009 C1993 1.349 . S
C2009 H2001 0.950 . S
C2009 C2007 1.327 . S
C2010 C1998 1.349 . S
C2010 H2004 0.950 . S
C2010 C2011 1.327 . S
C2011 H2005 0.950 . S
C2011 C2010 1.327 . S
C2011 C2015 1.429 . S
C2012 C1995 1.574 . S
C2012 H2006 0.949 . S
C2012 C2016 1.368 . S
C2013 C1994 1.429 . S
C2013 C2007 1.429 . S
C2013 C2014 1.523 . S
C2014 C1995 1.368 . S
C2014 C2008 1.368 . S
C2014 C2013 1.523 . S
C2015 C1999 1.429 . S
C2015 C2011 1.429 . S
C2015 C2016 1.523 . S
C2016 C2000 1.368 . S
C2016 C2012 1.368 . S
C2016 C2015 1.523 . S
H2017 C1992 0.950 . S
H2018 C1994 0.950 . S
H2019 C1995 0.949 . S
H2020 C1997 0.950 . S
H2021 C1999 0.950 . S
C2022 C2023 1.349 . S
C2022 C2024 1.327 . S
C2022 H2047 0.950 . S
C2023 C2022 1.349 . S
C2023 C2039 1.349 . S
C2024 C2022 1.327 . S
C2024 C2043 1.429 . S
C2024 H2048 0.950 . S
C2025 C2042 1.574 . S
C2025 C2044 1.368 . S
C2025 H2049 0.949 . S
H2026 C2030 0.949 . S
C2027 C2028 1.349 . S
C2027 C2029 1.327 . S
C2027 H2050 0.950 . S
C2028 C2027 1.349 . S
C2028 C2040 1.349 . S
C2029 C2027 1.327 . S
C2029 C2045 1.429 . S
C2029 H2051 0.950 . S
C2030 H2026 0.949 . S
C2030 C2038 1.574 . S
C2030 C2046 1.368 . S
H2031 C2039 0.950 . S
H2032 C2037 0.950 . S
H2033 C2038 0.949 . S
H2034 C2040 0.950 . S
H2035 C2041 0.950 . S
H2036 C2042 0.949 . S
C2037 H2032 0.950 . S
C2037 C2039 1.327 . S
C2037 C2043 1.429 . S
C2038 C2030 1.574 . S
C2038 H2033 0.949 . S
C2038 C2044 1.368 . S
C2039 C2023 1.349 . S
C2039 H2031 0.950 . S
C2039 C2037 1.327 . S
C2040 C2028 1.349 . S
C2040 H2034 0.950 . S
C2040 C2041 1.327 . S
C2041 H2035 0.950 . S
C2041 C2040 1.327 . S
C2041 C2045 1.429 . S
C2042 C2025 1.574 . S
C2042 H2036 0.949 . S
C2042 C2046 1.368 . S
C2043 C2024 1.429 . S
C2043 C2037 1.429 . S
C2043 C2044 1.523 . S
C2044 C2025 1.368 . S
C2044 C2038 1.368 . S
C2044 C2043 1.523 . S
C2045 C2029 1.429 . S
C2045 C2041 1.429 . S
C2045 C2046 1.523 . S
C2046 C2030 1.368 . S
C2046 C2042 1.368 . S
C2046 C2045 1.523 . S
H2047 C2022 0.950 . S
H2048 C2024 0.950 . S
H2049 C2025 0.949 . S
H2050 C2027 0.950 . S
H2051 C2029 0.950 . S
C2052 C2053 1.349 . S
C2052 C2054 1.327 . S
C2052 H2077 0.950 . S
C2053 C2052 1.349 . S
C2053 C2069 1.349 . S
C2054 C2052 1.327 . S
C2054 C2073 1.429 . S
C2054 H2078 0.950 . S
C2055 C2072 1.574 . S
C2055 C2074 1.368 . S
C2055 H2079 0.949 . S
H2056 C2060 0.949 . S
C2057 C2058 1.349 . S
C2057 C2059 1.327 . S
C2057 H2080 0.950 . S
C2058 C2057 1.349 . S
C2058 C2070 1.349 . S
C2059 C2057 1.327 . S
C2059 C2075 1.429 . S
C2059 H2081 0.950 . S
C2060 H2056 0.949 . S
C2060 C2068 1.574 . S
C2060 C2076 1.368 . S
H2061 C2069 0.950 . S
H2062 C2067 0.950 . S
H2063 C2068 0.949 . S
H2064 C2070 0.950 . S
H2065 C2071 0.950 . S
H2066 C2072 0.949 . S
C2067 H2062 0.950 . S
C2067 C2069 1.327 . S
C2067 C2073 1.429 . S
C2068 C2060 1.574 . S
C2068 H2063 0.949 . S
C2068 C2074 1.368 . S
C2069 C2053 1.349 . S
C2069 H2061 0.950 . S
C2069 C2067 1.327 . S
C2070 C2058 1.349 . S
C2070 H2064 0.950 . S
C2070 C2071 1.327 . S
C2071 H2065 0.950 . S
C2071 C2070 1.327 . S
C2071 C2075 1.429 . S
C2072 C2055 1.574 . S
C2072 H2066 0.949 . S
C2072 C2076 1.368 . S
C2073 C2054 1.429 . S
C2073 C2067 1.429 . S
C2073 C2074 1.523 . S
C2074 C2055 1.368 . S
C2074 C2068 1.368 . S
C2074 C2073 1.523 . S
C2075 C2059 1.429 . S
C2075 C2071 1.429 . S
C2075 C2076 1.523 . S
C2076 C2060 1.368 . S
C2076 C2072 1.368 . S
C2076 C2075 1.523 . S
H2077 C2052 0.950 . S
H2078 C2054 0.950 . S
H2079 C2055 0.949 . S
H2080 C2057 0.950 . S
H2081 C2059 0.950 . S
C2082 C2083 1.349 . S
C2082 C2084 1.327 . S
C2082 H2107 0.950 . S
C2083 C2082 1.349 . S
C2083 C2099 1.349 . S
C2084 C2082 1.327 . S
C2084 C2103 1.429 . S
C2084 H2108 0.950 . S
C2085 C2102 1.574 . S
C2085 C2104 1.368 . S
C2085 H2109 0.949 . S
H2086 C2090 0.949 . S
C2087 C2088 1.349 . S
C2087 C2089 1.327 . S
C2087 H2110 0.950 . S
C2088 C2087 1.349 . S
C2088 C2100 1.349 . S
C2089 C2087 1.327 . S
C2089 C2105 1.429 . S
C2089 H2111 0.950 . S
C2090 H2086 0.949 . S
C2090 C2098 1.574 . S
C2090 C2106 1.368 . S
H2091 C2099 0.950 . S
H2092 C2097 0.950 . S
H2093 C2098 0.949 . S
H2094 C2100 0.950 . S
H2095 C2101 0.950 . S
H2096 C2102 0.949 . S
C2097 H2092 0.950 . S
C2097 C2099 1.327 . S
C2097 C2103 1.429 . S
C2098 C2090 1.574 . S
C2098 H2093 0.949 . S
C2098 C2104 1.368 . S
C2099 C2083 1.349 . S
C2099 H2091 0.950 . S
C2099 C2097 1.327 . S
C2100 C2088 1.349 . S
C2100 H2094 0.950 . S
C2100 C2101 1.327 . S
C2101 H2095 0.950 . S
C2101 C2100 1.327 . S
C2101 C2105 1.429 . S
C2102 C2085 1.574 . S
C2102 H2096 0.949 . S
C2102 C2106 1.368 . S
C2103 C2084 1.429 . S
C2103 C2097 1.429 . S
C2103 C2104 1.523 . S
C2104 C2085 1.368 . S
C2104 C2098 1.368 . S
C2104 C2103 1.523 . S
C2105 C2089 1.429 . S
C2105 C2101 1.429 . S
C2105 C2106 1.523 . S
C2106 C2090 1.368 . S
C2106 C2102 1.368 . S
C2106 C2105 1.523 . S
H2107 C2082 0.950 . S
H2108 C2084 0.950 . S
H2109 C2085 0.949 . S
H2110 C2087 0.950 . S
H2111 C2089 0.950 . S
C2112 C2113 1.349 . S
C2112 C2114 1.327 . S
C2112 H2137 0.950 . S
C2113 C2112 1.349 . S
C2113 C2129 1.349 . S
C2114 C2112 1.327 . S
C2114 C2133 1.429 . S
C2114 H2138 0.950 . S
C2115 C2132 1.574 . S
C2115 C2134 1.368 . S
C2115 H2139 0.949 . S
H2116 C2120 0.949 . S
C2117 C2118 1.349 . S
C2117 C2119 1.327 . S
C2117 H2140 0.950 . S
C2118 C2117 1.349 . S
C2118 C2130 1.349 . S
C2119 C2117 1.327 . S
C2119 C2135 1.429 . S
C2119 H2141 0.950 . S
C2120 H2116 0.949 . S
C2120 C2128 1.574 . S
C2120 C2136 1.368 . S
H2121 C2129 0.950 . S
H2122 C2127 0.950 . S
H2123 C2128 0.949 . S
H2124 C2130 0.950 . S
H2125 C2131 0.950 . S
H2126 C2132 0.949 . S
C2127 H2122 0.950 . S
C2127 C2129 1.327 . S
C2127 C2133 1.429 . S
C2128 C2120 1.574 . S
C2128 H2123 0.949 . S
C2128 C2134 1.368 . S
C2129 C2113 1.349 . S
C2129 H2121 0.950 . S
C2129 C2127 1.327 . S
C2130 C2118 1.349 . S
C2130 H2124 0.950 . S
C2130 C2131 1.327 . S
C2131 H2125 0.950 . S
C2131 C2130 1.327 . S
C2131 C2135 1.429 . S
C2132 C2115 1.574 . S
C2132 H2126 0.949 . S
C2132 C2136 1.368 . S
C2133 C2114 1.429 . S
C2133 C2127 1.429 . S
C2133 C2134 1.523 . S
C2134 C2115 1.368 . S
C2134 C2128 1.368 . S
C2134 C2133 1.523 . S
C2135 C2119 1.429 . S
C2135 C2131 1.429 . S
C2135 C2136 1.523 . S
C2136 C2120 1.368 . S
C2136 C2132 1.368 . S
C2136 C2135 1.523 . S
H2137 C2112 0.950 . S
H2138 C2114 0.950 . S
H2139 C2115 0.949 . S
H2140 C2117 0.950 . S
H2141 C2119 0.950 . S
C2142 C2143 1.349 . S
C2142 C2144 1.327 . S
C2142 H2167 0.950 . S
C2143 C2142 1.349 . S
C2143 C2159 1.349 . S
C2144 C2142 1.327 . S
C2144 C2163 1.429 . S
C2144 H2168 0.950 . S
C2145 C2162 1.574 . S
C2145 C2164 1.368 . S
C2145 H2169 0.949 . S
H2146 C2150 0.949 . S
C2147 C2148 1.349 . S
C2147 C2149 1.327 . S
C2147 H2170 0.950 . S
C2148 C2147 1.349 . S
C2148 C2160 1.349 . S
C2149 C2147 1.327 . S
C2149 C2165 1.429 . S
C2149 H2171 0.950 . S
C2150 H2146 0.949 . S
C2150 C2158 1.574 . S
C2150 C2166 1.368 . S
H2151 C2159 0.950 . S
H2152 C2157 0.950 . S
H2153 C2158 0.949 . S
H2154 C2160 0.950 . S
H2155 C2161 0.950 . S
H2156 C2162 0.949 . S
C2157 H2152 0.950 . S
C2157 C2159 1.327 . S
C2157 C2163 1.429 . S
C2158 C2150 1.574 . S
C2158 H2153 0.949 . S
C2158 C2164 1.368 . S
C2159 C2143 1.349 . S
C2159 H2151 0.950 . S
C2159 C2157 1.327 . S
C2160 C2148 1.349 . S
C2160 H2154 0.950 . S
C2160 C2161 1.327 . S
C2161 H2155 0.950 . S
C2161 C2160 1.327 . S
C2161 C2165 1.429 . S
C2162 C2145 1.574 . S
C2162 H2156 0.949 . S
C2162 C2166 1.368 . S
C2163 C2144 1.429 . S
C2163 C2157 1.429 . S
C2163 C2164 1.523 . S
C2164 C2145 1.368 . S
C2164 C2158 1.368 . S
C2164 C2163 1.523 . S
C2165 C2149 1.429 . S
C2165 C2161 1.429 . S
C2165 C2166 1.523 . S
C2166 C2150 1.368 . S
C2166 C2162 1.368 . S
C2166 C2165 1.523 . S
H2167 C2142 0.950 . S
H2168 C2144 0.950 . S
H2169 C2145 0.949 . S
H2170 C2147 0.950 . S
H2171 C2149 0.950 . S
C2172 C2173 1.349 . S
C2172 C2174 1.327 . S
C2172 H2197 0.950 . S
C2173 C2172 1.349 . S
C2173 C2189 1.349 . S
C2174 C2172 1.327 . S
C2174 C2193 1.429 . S
C2174 H2198 0.950 . S
C2175 C2192 1.574 . S
C2175 C2194 1.368 . S
C2175 H2199 0.949 . S
H2176 C2180 0.949 . S
C2177 C2178 1.349 . S
C2177 C2179 1.327 . S
C2177 H2200 0.950 . S
C2178 C2177 1.349 . S
C2178 C2190 1.349 . S
C2179 C2177 1.327 . S
C2179 C2195 1.429 . S
C2179 H2201 0.950 . S
C2180 H2176 0.949 . S
C2180 C2188 1.574 . S
C2180 C2196 1.368 . S
H2181 C2189 0.950 . S
H2182 C2187 0.950 . S
H2183 C2188 0.949 . S
H2184 C2190 0.950 . S
H2185 C2191 0.950 . S
H2186 C2192 0.949 . S
C2187 H2182 0.950 . S
C2187 C2189 1.327 . S
C2187 C2193 1.429 . S
C2188 C2180 1.574 . S
C2188 H2183 0.949 . S
C2188 C2194 1.368 . S
C2189 C2173 1.349 . S
C2189 H2181 0.950 . S
C2189 C2187 1.327 . S
C2190 C2178 1.349 . S
C2190 H2184 0.950 . S
C2190 C2191 1.327 . S
C2191 H2185 0.950 . S
C2191 C2190 1.327 . S
C2191 C2195 1.429 . S
C2192 C2175 1.574 . S
C2192 H2186 0.949 . S
C2192 C2196 1.368 . S
C2193 C2174 1.429 . S
C2193 C2187 1.429 . S
C2193 C2194 1.523 . S
C2194 C2175 1.368 . S
C2194 C2188 1.368 . S
C2194 C2193 1.523 . S
C2195 C2179 1.429 . S
C2195 C2191 1.429 . S
C2195 C2196 1.523 . S
C2196 C2180 1.368 . S
C2196 C2192 1.368 . S
C2196 C2195 1.523 . S
H2197 C2172 0.950 . S
H2198 C2174 0.950 . S
H2199 C2175 0.949 . S
H2200 C2177 0.950 . S
H2201 C2179 0.950 . S
C2202 C2203 1.349 . S
C2202 C2204 1.327 . S
C2202 H2227 0.950 . S
C2203 C2202 1.349 . S
C2203 C2219 1.349 . S
C2204 C2202 1.327 . S
C2204 C2223 1.429 . S
C2204 H2228 0.950 . S
C2205 C2222 1.574 . S
C2205 C2224 1.368 . S
C2205 H2229 0.949 . S
H2206 C2210 0.949 . S
C2207 C2208 1.349 . S
C2207 C2209 1.327 . S
C2207 H2230 0.950 . S
C2208 C2207 1.349 . S
C2208 C2220 1.349 . S
C2209 C2207 1.327 . S
C2209 C2225 1.429 . S
C2209 H2231 0.950 . S
C2210 H2206 0.949 . S
C2210 C2218 1.574 . S
C2210 C2226 1.368 . S
H2211 C2219 0.950 . S
H2212 C2217 0.950 . S
H2213 C2218 0.949 . S
H2214 C2220 0.950 . S
H2215 C2221 0.950 . S
H2216 C2222 0.949 . S
C2217 H2212 0.950 . S
C2217 C2219 1.327 . S
C2217 C2223 1.429 . S
C2218 C2210 1.574 . S
C2218 H2213 0.949 . S
C2218 C2224 1.368 . S
C2219 C2203 1.349 . S
C2219 H2211 0.950 . S
C2219 C2217 1.327 . S
C2220 C2208 1.349 . S
C2220 H2214 0.950 . S
C2220 C2221 1.327 . S
C2221 H2215 0.950 . S
C2221 C2220 1.327 . S
C2221 C2225 1.429 . S
C2222 C2205 1.574 . S
C2222 H2216 0.949 . S
C2222 C2226 1.368 . S
C2223 C2204 1.429 . S
C2223 C2217 1.429 . S
C2223 C2224 1.523 . S
C2224 C2205 1.368 . S
C2224 C2218 1.368 . S
C2224 C2223 1.523 . S
C2225 C2209 1.429 . S
C2225 C2221 1.429 . S
C2225 C2226 1.523 . S
C2226 C2210 1.368 . S
C2226 C2222 1.368 . S
C2226 C2225 1.523 . S
H2227 C2202 0.950 . S
H2228 C2204 0.950 . S
H2229 C2205 0.949 . S
H2230 C2207 0.950 . S
H2231 C2209 0.950 . S
C973 C664 1.343 . S
C978 C16 1.339 . S
C1003 C97 1.343 . S
C1008 C745 1.339 . S
C1033 C826 1.319 . S
C1038 C178 1.316 . S
C1063 C259 1.343 . S
C1068 C907 1.339 . S
C1093 C340 1.343 . S
C1098 C502 1.339 . S
C1123 C583 1.319 . S
C1128 C421 1.316 . S
C1153 C604 3.244 . S
C1158 C37 3.246 . S
C1183 C685 3.243 . S
C1188 C118 3.249 . S
C1213 C766 3.245 . S
C1218 C199 3.244 . S
C1243 C280 3.245 . S
C1248 C847 3.244 . S
C1273 C361 3.243 . S
C1278 C928 3.249 . S
C1303 C523 3.245 . S
C1308 C442 3.244 . S
C1333 C423 2.218 . S
C1338 C52 2.001 . S
C1363 C133 2.011 . S
C1368 C18 2.225 . S
C1393 C99 2.222 . S
C1398 C214 2.011 . S
C1423 C180 2.218 . S
C1428 C295 2.000 . S
C1453 C261 2.223 . S
C1458 C376 2.013 . S
C1483 C457 2.009 . S
C1488 C342 2.223 . S
C1513 C585 2.218 . S
C1518 C538 2.000 . S
C1543 C666 2.222 . S
C1548 C619 2.011 . S
C1573 C747 2.223 . S
C1578 C700 2.013 . S
C1603 C828 2.218 . S
C1608 C781 2.000 . S
C1633 C862 2.009 . S
C1638 C909 2.223 . S
C1663 C504 2.223 . S
C1668 C943 2.013 . S
C1693 C34 1.077 . S
C1698 C617 1.114 . S
C1723 C115 1.085 . S
C1728 C698 1.124 . S
C1753 C779 1.138 . S
C1758 C196 1.100 . S
C1783 C860 1.117 . S
C1788 C277 1.074 . S
C1813 C358 1.085 . S
C1818 C941 1.124 . S
C1843 C536 1.138 . S
C1848 C439 1.100 . S
C1873 C520 1.077 . S
C1878 C455 1.114 . S
C1903 C601 1.097 . S
C1908 C50 1.142 . S
C1933 C131 1.125 . S
C1938 C682 1.081 . S
C1963 C763 1.077 . S
C1968 C212 1.114 . S
C1993 C293 1.138 . S
C1998 C844 1.100 . S
C2023 C374 1.125 . S
C2028 C925 1.081 . S
C2053 C707 0.829 . S
C2058 C59 0.831 . S
C2083 C140 0.829 . S
C2088 C788 0.831 . S
C2113 C869 0.803 . S
C2118 C221 0.803 . S
C2143 C302 0.831 . S
C2148 C950 0.828 . S
C2173 C383 0.829 . S
C2178 C545 0.831 . S
C2203 C626 0.803 . S
C2208 C464 0.803 . S
