# Generated by pormake.
# Topology svc, (7)-cn, num edge types: 1
# Building blocks:
#     Node 0, Type 0, BuildingBlock: HICVOG_clean_sbu_0, # of connection points: 7
#     Node 1, Type 0, BuildingBlock: HICVOG_clean_sbu_0, # of connection points: 7
#     Node 2, Type 0, BuildingBlock: HICVOG_clean_sbu_0, # of connection points: 7
#     Node 3, Type 0, BuildingBlock: HICVOG_clean_sbu_0, # of connection points: 7
#     Node 4, Type 0, BuildingBlock: HICVOG_clean_sbu_0, # of connection points: 7
#     Node 5, Type 0, BuildingBlock: HICVOG_clean_sbu_0, # of connection points: 7
#     Node 6, Type 0, BuildingBlock: HICVOG_clean_sbu_0, # of connection points: 7
#     Node 7, Type 0, BuildingBlock: HICVOG_clean_sbu_0, # of connection points: 7
#     Node 8, Type 0, BuildingBlock: HICVOG_clean_sbu_0, # of connection points: 7
#     Node 9, Type 0, BuildingBlock: HICVOG_clean_sbu_0, # of connection points: 7
#     Node 10, Type 0, BuildingBlock: HICVOG_clean_sbu_0, # of connection points: 7
#     Node 11, Type 0, BuildingBlock: HICVOG_clean_sbu_0, # of connection points: 7
#     Node 12, Type 0, BuildingBlock: HICVOG_clean_sbu_0, # of connection points: 7
#     Node 13, Type 0, BuildingBlock: HICVOG_clean_sbu_0, # of connection points: 7
#     Node 14, Type 0, BuildingBlock: HICVOG_clean_sbu_0, # of connection points: 7
#     Node 15, Type 0, BuildingBlock: HICVOG_clean_sbu_0, # of connection points: 7
#     Edge 16, Type (0, 0), BuildingBlock: AJUNOK_clean_linker_0, # of connection points: 2
#     Edge 17, Type (0, 0), BuildingBlock: AJUNOK_clean_linker_0, # of connection points: 2
#     Edge 18, Type (0, 0), BuildingBlock: AJUNOK_clean_linker_0, # of connection points: 2
#     Edge 19, Type (0, 0), BuildingBlock: AJUNOK_clean_linker_0, # of connection points: 2
#     Edge 20, Type (0, 0), BuildingBlock: AJUNOK_clean_linker_0, # of connection points: 2
#     Edge 21, Type (0, 0), BuildingBlock: AJUNOK_clean_linker_0, # of connection points: 2
#     Edge 22, Type (0, 0), BuildingBlock: AJUNOK_clean_linker_0, # of connection points: 2
#     Edge 23, Type (0, 0), BuildingBlock: AJUNOK_clean_linker_0, # of connection points: 2
#     Edge 24, Type (0, 0), BuildingBlock: AJUNOK_clean_linker_0, # of connection points: 2
#     Edge 25, Type (0, 0), BuildingBlock: AJUNOK_clean_linker_0, # of connection points: 2
#     Edge 26, Type (0, 0), BuildingBlock: AJUNOK_clean_linker_0, # of connection points: 2
#     Edge 27, Type (0, 0), BuildingBlock: AJUNOK_clean_linker_0, # of connection points: 2
#     Edge 28, Type (0, 0), BuildingBlock: AJUNOK_clean_linker_0, # of connection points: 2
#     Edge 29, Type (0, 0), BuildingBlock: AJUNOK_clean_linker_0, # of connection points: 2
#     Edge 30, Type (0, 0), BuildingBlock: AJUNOK_clean_linker_0, # of connection points: 2
#     Edge 31, Type (0, 0), BuildingBlock: AJUNOK_clean_linker_0, # of connection points: 2
#     Edge 32, Type (0, 0), BuildingBlock: AJUNOK_clean_linker_0, # of connection points: 2
#     Edge 33, Type (0, 0), BuildingBlock: AJUNOK_clean_linker_0, # of connection points: 2
#     Edge 34, Type (0, 0), BuildingBlock: AJUNOK_clean_linker_0, # of connection points: 2
#     Edge 35, Type (0, 0), BuildingBlock: AJUNOK_clean_linker_0, # of connection points: 2
#     Edge 36, Type (0, 0), BuildingBlock: AJUNOK_clean_linker_0, # of connection points: 2
#     Edge 37, Type (0, 0), BuildingBlock: AJUNOK_clean_linker_0, # of connection points: 2
#     Edge 38, Type (0, 0), BuildingBlock: AJUNOK_clean_linker_0, # of connection points: 2
#     Edge 39, Type (0, 0), BuildingBlock: AJUNOK_clean_linker_0, # of connection points: 2
#     Edge 40, Type (0, 0), BuildingBlock: AJUNOK_clean_linker_0, # of connection points: 2
#     Edge 41, Type (0, 0), BuildingBlock: AJUNOK_clean_linker_0, # of connection points: 2
#     Edge 42, Type (0, 0), BuildingBlock: AJUNOK_clean_linker_0, # of connection points: 2
#     Edge 43, Type (0, 0), BuildingBlock: AJUNOK_clean_linker_0, # of connection points: 2
#     Edge 44, Type (0, 0), BuildingBlock: AJUNOK_clean_linker_0, # of connection points: 2
#     Edge 45, Type (0, 0), BuildingBlock: AJUNOK_clean_linker_0, # of connection points: 2
#     Edge 46, Type (0, 0), BuildingBlock: AJUNOK_clean_linker_0, # of connection points: 2
#     Edge 47, Type (0, 0), BuildingBlock: AJUNOK_clean_linker_0, # of connection points: 2
#     Edge 48, Type (0, 0), BuildingBlock: AJUNOK_clean_linker_0, # of connection points: 2
#     Edge 49, Type (0, 0), BuildingBlock: AJUNOK_clean_linker_0, # of connection points: 2
#     Edge 50, Type (0, 0), BuildingBlock: AJUNOK_clean_linker_0, # of connection points: 2
#     Edge 51, Type (0, 0), BuildingBlock: AJUNOK_clean_linker_0, # of connection points: 2
#     Edge 52, Type (0, 0), BuildingBlock: AJUNOK_clean_linker_0, # of connection points: 2
#     Edge 53, Type (0, 0), BuildingBlock: AJUNOK_clean_linker_0, # of connection points: 2
#     Edge 54, Type (0, 0), BuildingBlock: AJUNOK_clean_linker_0, # of connection points: 2
#     Edge 55, Type (0, 0), BuildingBlock: AJUNOK_clean_linker_0, # of connection points: 2
#     Edge 56, Type (0, 0), BuildingBlock: AJUNOK_clean_linker_0, # of connection points: 2
#     Edge 57, Type (0, 0), BuildingBlock: AJUNOK_clean_linker_0, # of connection points: 2
#     Edge 58, Type (0, 0), BuildingBlock: AJUNOK_clean_linker_0, # of connection points: 2
#     Edge 59, Type (0, 0), BuildingBlock: AJUNOK_clean_linker_0, # of connection points: 2
#     Edge 60, Type (0, 0), BuildingBlock: AJUNOK_clean_linker_0, # of connection points: 2
#     Edge 61, Type (0, 0), BuildingBlock: AJUNOK_clean_linker_0, # of connection points: 2
#     Edge 62, Type (0, 0), BuildingBlock: AJUNOK_clean_linker_0, # of connection points: 2
#     Edge 63, Type (0, 0), BuildingBlock: AJUNOK_clean_linker_0, # of connection points: 2
#     Edge 64, Type (0, 0), BuildingBlock: AJUNOK_clean_linker_0, # of connection points: 2
#     Edge 65, Type (0, 0), BuildingBlock: AJUNOK_clean_linker_0, # of connection points: 2
#     Edge 66, Type (0, 0), BuildingBlock: AJUNOK_clean_linker_0, # of connection points: 2
#     Edge 67, Type (0, 0), BuildingBlock: AJUNOK_clean_linker_0, # of connection points: 2
#     Edge 68, Type (0, 0), BuildingBlock: AJUNOK_clean_linker_0, # of connection points: 2
#     Edge 69, Type (0, 0), BuildingBlock: AJUNOK_clean_linker_0, # of connection points: 2
#     Edge 70, Type (0, 0), BuildingBlock: AJUNOK_clean_linker_0, # of connection points: 2
#     Edge 71, Type (0, 0), BuildingBlock: AJUNOK_clean_linker_0, # of connection points: 2
# Relax obj value: 0.189
# Max RMSD: 0.254
# Mean RMSD: 0.218
data_MOF--net-svc--node1-HICVOG_clean_sbu_0--edge1-AJUNOK_clean_linker_0
_symmetry_space_group_name_H-M    P1
_symmetry_Int_Tables_number       1
_symmetry_cell_setting            triclinic
loop_
_symmetry_equiv_pos_as_xyz
'x, y, z'
_cell_length_a     23.839102
_cell_length_b     20.901837
_cell_length_c     63.497062
_cell_angle_alpha  98.999892
_cell_angle_beta   94.415036
_cell_angle_gamma 89.990508
loop_
_atom_site_label
_atom_site_type_symbol
_atom_site_fract_x
_atom_site_fract_y
_atom_site_fract_z
_atom_type_partial_charge
Zn0 Zn 0.23978 0.39255 0.11437 0.0
C1 C 0.11479 0.31913 0.14034 0.0
N2 N 0.14189 0.26262 0.13653 0.0
C3 C 0.19242 0.28039 0.13126 0.0
N4 N 0.19539 0.34522 0.13117 0.0
N5 N 0.14709 0.36945 0.1375 0.0
C6 C 0.04201 0.4989 0.13685 0.0
O7 O 0.07509 0.49789 0.12119 0.0
O8 O 0.32124 0.3839 0.12184 0.0
Zn9 Zn 0.14077 0.45325 0.15523 0.0
N10 N 0.2207 0.36125 0.08424 0.0
C11 C 0.15843 0.30168 0.05704 0.0
C12 C 0.17529 0.32119 0.07858 0.0
C13 C 0.25001 0.3828 0.06911 0.0
N14 N 0.18719 0.32373 0.04195 0.0
C15 C 0.23269 0.36393 0.04732 0.0
O16 O 0.18185 0.5301 0.14644 0.0
C17 C 0.21196 0.53953 0.13143 0.0
O18 O 0.2308 0.49172 0.11901 0.0
H19 H 0.1517 0.30528 0.09067 0.0
H20 H 0.28516 0.41594 0.07406 0.0
C21 C 0.13926 0.47143 0.20205 0.0
C22 C 0.15753 0.45774 0.2226 0.0
C23 C 0.22376 0.38381 0.20674 0.0
C24 C 0.2064 0.39846 0.18666 0.0
N25 N 0.16457 0.44175 0.18458 0.0
N26 N 0.19922 0.41377 0.22412 0.0
H27 H 0.10499 0.50421 0.19984 0.0
C28 C 0.33581 0.41739 0.13989 0.0
O29 O 0.29633 0.43781 0.15256 0.0
O30 O 0.0606 0.47832 0.1538 0.0
H31 H 0.22572 0.37461 0.17278 0.0
H32 H 0.12228 0.26994 0.05234 0.0
H33 H 0.25674 0.34908 0.20855 0.0
Zn34 Zn 0.88161 1.036 0.36673 0.0
C35 C 0.97481 0.92231 0.39897 0.0
N36 N 1.01876 0.95523 0.39371 0.0
C37 C 0.9941 1.00451 0.38549 0.0
N38 N 0.93759 1.0011 0.38526 0.0
N39 N 0.92578 0.95131 0.39457 0.0
C40 C 0.7964 0.8668 0.39752 0.0
O41 O 0.79861 0.89998 0.38169 0.0
O42 O 0.90366 0.12529 0.36555 0.0
Zn43 Zn 0.8689 0.96117 0.41458 0.0
N44 N 0.87936 0.98511 0.33845 0.0
C45 C 0.86644 0.88227 0.31647 0.0
C46 C 0.86974 0.92042 0.33661 0.0
C47 C 0.8852 1.01364 0.32088 0.0
N48 N 0.87143 0.91073 0.29889 0.0
C49 C 0.88 0.97575 0.30041 0.0
O50 O 0.80142 1.01792 0.40893 0.0
C51 C 0.77541 1.03849 0.39306 0.0
O52 O 0.79994 1.04218 0.37609 0.0
H53 H 0.86449 0.8988 0.35071 0.0
H54 H 0.89381 0.06509 0.32296 0.0
C55 C 0.86914 0.96819 0.4592 0.0
C56 C 0.88833 0.98442 0.48089 0.0
C57 C 0.96959 1.03331 0.47046 0.0
C58 C 0.94973 1.01783 0.44898 0.0
N59 N 0.89989 0.98567 0.44381 0.0
N60 N 0.93864 1.0162 0.48587 0.0
H61 H 0.83062 0.94068 0.4544 0.0
C62 C 0.90366 0.15773 0.38412 0.0
O63 O 0.90298 0.12578 0.40036 0.0
O64 O 0.83227 0.87822 0.4134 0.0
H65 H 0.97393 1.03073 0.43655 0.0
H66 H 0.85927 0.83058 0.3148 0.0
H67 H 1.00938 0.05861 0.47485 0.0
Zn68 Zn 0.35294 0.64025 0.62496 0.0
C69 C 0.49502 0.57339 0.65018 0.0
N70 N 0.51668 0.63107 0.64827 0.0
C71 C 0.47084 0.66491 0.64338 0.0
N72 N 0.42296 0.6291 0.64185 0.0
N73 N 0.43835 0.57227 0.64694 0.0
C74 C 0.38986 0.41583 0.62862 0.0
O75 O 0.37914 0.4659 0.61889 0.0
O76 O 0.33486 0.73399 0.62875 0.0
Zn77 Zn 0.39174 0.51791 0.66025 0.0
N78 N 0.3674 0.61037 0.59501 0.0
C79 C 0.42294 0.54243 0.57121 0.0
C80 C 0.40993 0.56744 0.59183 0.0
C81 C 0.3387 0.63164 0.57804 0.0
N82 N 0.39403 0.56284 0.55435 0.0
C83 C 0.35244 0.60721 0.55707 0.0
O84 O 0.30619 0.524 0.65448 0.0
C85 C 0.26858 0.55212 0.64399 0.0
O86 O 0.28167 0.5942 0.63256 0.0
H87 H 0.43403 0.55286 0.60522 0.0
H88 H 0.30574 0.66684 0.58084 0.0
C89 C 0.39489 0.50181 0.70545 0.0
C90 C 0.40878 0.52257 0.72749 0.0
C91 C 0.45336 0.61627 0.71932 0.0
C92 C 0.43877 0.59627 0.69771 0.0
N93 N 0.41071 0.53908 0.69104 0.0
N94 N 0.4379 0.57929 0.73362 0.0
H95 H 0.37029 0.45822 0.6998 0.0
C96 C 0.3106 0.75874 0.64519 0.0
O97 O 0.30083 0.72252 0.65968 0.0
O98 O 0.40687 0.42676 0.64835 0.0
H99 H 0.44909 0.62721 0.68647 0.0
H100 H 0.45631 0.50767 0.56861 0.0
H101 H 0.47593 0.66144 0.72475 0.0
Zn102 Zn 0.65066 0.1168 0.87054 0.0
C103 C 0.72001 0.29706 0.88627 0.0
N104 N 0.66915 0.3115 0.87787 0.0
C105 C 0.64023 0.25575 0.87599 0.0
N106 N 0.67131 0.20835 0.88301 0.0
N107 N 0.72174 0.23436 0.89002 0.0
C108 C 0.8699 0.15145 0.88226 0.0
O109 O 0.82886 0.11581 0.87141 0.0
O110 O 0.5628 0.09986 0.86961 0.0
Zn111 Zn 0.77732 0.1907 0.90743 0.0
N112 N 0.6762 0.10962 0.84137 0.0
C113 C 0.7465 0.15076 0.82208 0.0
C114 C 0.72391 0.14522 0.84118 0.0
C115 C 0.6509 0.07693 0.82268 0.0
N116 N 0.72138 0.11906 0.80362 0.0
C117 C 0.67445 0.08174 0.80314 0.0
O118 O 0.76221 0.09369 0.90651 0.0
C119 C 0.73303 1.04308 0.8988 0.0
O120 O 0.69123 0.04583 0.88514 0.0
H121 H 0.74453 0.16992 0.85579 0.0
H122 H 0.6131 0.04853 0.82297 0.0
C123 C 0.79878 0.20134 0.95363 0.0
C124 C 0.79413 0.23023 0.97502 0.0
C125 C 0.74395 0.31694 0.96282 0.0
C126 C 0.74674 0.2869 0.94177 0.0
N127 N 0.77528 0.2307 0.93741 0.0
N128 N 0.76731 0.2878 0.97893 0.0
H129 H 0.82011 0.15583 0.94992 0.0
C130 C 0.54075 0.06661 0.88226 0.0
O131 O 0.57453 1.04153 0.89606 0.0
O132 O 0.85789 0.19308 0.89815 0.0
H133 H 0.72503 0.30761 0.92911 0.0
H134 H 0.78405 0.17969 0.82192 0.0
H135 H 0.7219 0.36211 0.96637 0.0
Zn136 Zn 0.13208 0.60983 0.37486 0.0
C137 C 0.20502 0.78424 0.39357 0.0
N138 N 0.15218 0.80274 0.38907 0.0
C139 C 0.12148 0.74807 0.38771 0.0
N140 N 0.1537 0.69724 0.39114 0.0
N141 N 0.2061 0.72018 0.3957 0.0
C142 C 0.35276 0.65355 0.38793 0.0
O143 O 0.3125 0.62599 0.37424 0.0
O144 O 0.044 0.59658 0.37429 0.0
Zn145 Zn 0.25851 0.67406 0.41268 0.0
N146 N 0.1541 0.61332 0.3454 0.0
C147 C 0.21788 0.66532 0.32606 0.0
C148 C 0.19919 0.65316 0.34519 0.0
C149 C 0.12856 0.58188 0.32652 0.0
N150 N 0.19221 0.63524 0.30748 0.0
C151 C 0.14829 0.59339 0.30691 0.0
O152 O 0.24657 0.57505 0.40737 0.0
C153 C 0.21843 0.52507 0.39812 0.0
O154 O 0.17452 0.53128 0.38565 0.0
H155 H 0.22127 0.6756 0.35972 0.0
H156 H 0.09365 0.54895 0.32671 0.0
C157 C 0.2723 0.67942 0.45941 0.0
C158 C 0.26019 0.70382 0.48063 0.0
C159 C 0.20103 0.78247 0.46758 0.0
C160 C 0.21219 0.75758 0.44676 0.0
N161 N 0.24788 0.70695 0.44289 0.0
N162 N 0.22514 0.75515 0.48395 0.0
H163 H 0.30088 0.63962 0.45602 0.0
C164 C 1.02131 0.57327 0.38911 0.0
O165 O 0.05455 0.55812 0.40502 0.0
O166 O 0.33915 0.68442 0.40571 0.0
H167 H 0.19169 0.77862 0.43386 0.0
H168 H 0.25324 0.6977 0.32596 0.0
H169 H 0.17293 0.8229 0.47073 0.0
Zn170 Zn 0.76126 0.89767 0.61233 0.0
C171 C 0.6299 0.81207 0.628 0.0
N172 N 0.65638 0.75716 0.62084 0.0
C173 C 0.70986 0.77657 0.62033 0.0
N174 N 0.71542 0.8418 0.62634 0.0
N175 N 0.66588 0.86338 0.63233 0.0
C176 C 0.5613 0.99207 0.63411 0.0
O177 O 0.59559 0.99263 0.61891 0.0
O178 O 0.84217 0.89095 0.62129 0.0
Zn179 Zn 0.65823 0.94382 0.65233 0.0
N180 N 0.74725 0.87508 0.58139 0.0
C181 C 0.68737 0.82524 0.55158 0.0
C182 C 0.70117 0.83801 0.57354 0.0
C183 C 0.77969 0.90106 0.56799 0.0
N184 N 0.7192 0.85162 0.53829 0.0
C185 C 0.76495 0.88972 0.54579 0.0
O186 O 0.69813 1.02548 0.6464 0.0
C187 C 0.72876 1.04049 0.6323 0.0
O188 O 0.74962 0.99638 0.61903 0.0
H189 H 0.67424 0.81977 0.58417 0.0
H190 H 0.815 0.93226 0.57465 0.0
C191 C 0.65947 0.95885 0.69912 0.0
C192 C 0.67412 0.93918 0.71912 0.0
C193 C 0.73109 0.85669 0.70194 0.0
C194 C 0.71668 0.87643 0.68234 0.0
N195 N 0.68095 0.92662 0.68117 0.0
N196 N 0.7097 0.88845 0.71977 0.0
H197 H 0.63062 0.99821 0.69774 0.0
C198 C 0.85449 0.92246 0.63986 0.0
O199 O 0.81344 0.93981 0.65213 0.0
O200 O 0.57831 0.96894 0.65077 0.0
H201 H 0.73306 0.85101 0.66809 0.0
H202 H 0.65088 0.79574 0.54516 0.0
H203 H 0.75916 0.81646 0.70301 0.0
Zn204 Zn 0.33391 0.47729 0.91601 0.0
C205 C 0.4125 0.32564 0.88744 0.0
N206 N 0.38184 0.29537 0.89998 0.0
C207 C 0.3459 0.34108 0.90754 0.0
N208 N 0.35429 0.3965 0.90018 0.0
N209 N 0.39432 0.38705 0.88684 0.0
C210 C 0.49853 0.50848 0.8849 0.0
O211 O 0.4725 0.4998 0.90172 0.0
O212 O 0.2509 0.48936 0.91429 0.0
Zn213 Zn 0.39983 0.44575 0.86597 0.0
N214 N 0.36122 0.48066 0.9456 0.0
C215 C 0.43092 0.51689 0.97375 0.0
C216 C 0.41084 0.51189 0.95237 0.0
C217 C 0.33074 0.4539 0.95933 0.0
N218 N 0.40011 0.49126 0.98755 0.0
C219 C 0.35002 0.4602 0.9811 0.0
O220 O 0.35197 0.52584 0.87103 0.0
C221 C 0.34893 0.56763 0.88772 0.0
O222 O 0.36598 0.55426 0.9059 0.0
H223 H 0.43444 0.53296 0.94125 0.0
H224 H 0.2924 0.42772 0.95313 0.0
C225 C 0.38116 0.42899 0.82035 0.0
C226 C 0.358 0.40001 0.80006 0.0
C227 C 0.31405 0.3202 0.81616 0.0
C228 C 0.33685 0.3494 0.83626 0.0
N229 N 0.37033 0.40288 0.83792 0.0
N230 N 0.32516 0.34597 0.79854 0.0
H231 H 0.40763 0.47189 0.82227 0.0
C232 C 0.22539 0.48984 0.89604 0.0
O233 O 0.25228 0.47314 0.87879 0.0
O234 O 0.47759 0.48297 0.86651 0.0
H235 H 0.3276 0.32988 0.85042 0.0
H236 H 0.47045 0.54145 0.97938 0.0
H237 H 0.28699 0.278 0.81465 0.0
Zn238 Zn 0.82802 0.14562 0.11737 0.0
C239 C 0.96858 0.06784 0.12997 0.0
N240 N 0.98856 0.12015 0.12304 0.0
C241 C 0.94553 0.16173 0.12462 0.0
N242 N 0.90061 0.13502 0.13176 0.0
N243 N 0.91543 0.07702 0.13591 0.0
C244 C 0.89499 0.90778 0.13239 0.0
O245 O 0.90054 0.93925 0.11634 0.0
O246 O 0.80994 0.23905 0.11883 0.0
Zn247 Zn 0.8724 1.03259 0.15431 0.0
N248 N 0.83239 0.10556 0.08794 0.0
C249 C 0.84519 1.00725 0.06449 0.0
C250 C 0.8391 1.04044 0.08493 0.0
C251 C 0.83009 0.13922 0.07119 0.0
N252 N 0.84345 1.04061 0.04776 0.0
C253 C 0.83616 0.10595 0.05036 0.0
O254 O 0.78489 1.03079 0.14905 0.0
C255 C 0.74744 0.06169 0.13935 0.0
O256 O 0.76185 0.10392 0.12832 0.0
H257 H 0.83932 1.01474 0.0984 0.0
H258 H 0.82216 0.19058 0.07417 0.0
C259 C 0.88673 0.04656 0.20106 0.0
C260 C 0.89399 0.0837 0.22167 0.0
C261 C 0.90596 0.17817 0.206 0.0
C262 C 0.89702 0.14171 0.18575 0.0
N263 N 0.88831 0.07669 0.18355 0.0
N264 N 0.90387 0.14851 0.22342 0.0
H265 H 0.87776 0.99513 0.19894 0.0
C266 C 0.80258 0.27135 0.13704 0.0
O267 O 0.81126 0.24321 0.1541 0.0
O268 O 0.8948 0.93989 0.15113 0.0
H269 H 0.89567 0.16552 0.17188 0.0
H270 H 0.85078 0.95534 0.06187 0.0
H271 H 0.91318 0.22991 0.20789 0.0
Zn272 Zn 0.9018 0.64283 0.87458 0.0
C273 C 0.85165 0.80814 0.90889 0.0
N274 N 0.90588 0.82591 0.9092 0.0
C275 C 0.93072 0.77117 0.90077 0.0
N276 N 0.89317 0.72209 0.89485 0.0
N277 N 0.84392 0.74433 0.90092 0.0
C278 C 0.69999 0.66921 0.89299 0.0
O279 O 0.73541 0.65385 0.87818 0.0
O280 O 0.98239 0.62056 0.87568 0.0
Zn281 Zn 0.80183 0.68911 0.91601 0.0
N282 N 0.87966 0.6624 0.8461 0.0
C283 C 0.82737 0.73046 0.82526 0.0
C284 C 0.84191 0.71067 0.84486 0.0
C285 C 0.90326 0.6325 0.82829 0.0
N286 N 0.85039 0.70043 0.80752 0.0
C287 C 0.88804 0.65168 0.80827 0.0
O288 O 0.81089 0.59177 0.90728 0.0
C289 C 0.83085 0.54643 0.89426 0.0
O290 O 0.86251 0.55959 0.88017 0.0
H291 H 0.82359 0.73422 0.85902 0.0
H292 H 0.93369 0.59478 0.82981 0.0
C293 C 0.79106 0.69884 0.96149 0.0
C294 C 0.81158 0.7088 0.98318 0.0
C295 C 0.90107 0.73684 0.97311 0.0
C296 C 0.88074 0.72637 0.9517 0.0
N297 N 0.82614 0.70807 0.94626 0.0
N298 N 0.86628 0.72742 0.98829 0.0
H299 H 0.74846 0.68172 0.95665 0.0
C300 C 1.00265 0.59932 0.89226 0.0
O301 O 0.97018 0.59589 0.90787 0.0
O302 O 0.71913 0.6985 0.91116 0.0
H303 H 0.90871 0.73147 0.93949 0.0
H304 H 0.79763 0.76908 0.8241 0.0
H305 H 0.94446 0.75132 0.97762 0.0
Zn306 Zn 0.23062 0.11323 0.61484 0.0
C307 C 0.14876 0.25425 0.64701 0.0
N308 N 0.1791 0.29079 0.63625 0.0
C309 C 0.21633 0.24815 0.62755 0.0
N310 N 0.20882 0.18917 0.63251 0.0
N311 N 0.16737 0.19287 0.64507 0.0
C312 C 0.06559 0.06474 0.64966 0.0
O313 O 0.0992 0.05204 0.63418 0.0
O314 O 0.31349 0.11128 0.61343 0.0
Zn315 Zn 0.16095 0.13579 0.66571 0.0
N316 N 0.19321 0.10936 0.58656 0.0
C317 C 0.11205 0.08086 0.56275 0.0
C318 C 0.13944 0.08649 0.58315 0.0
C319 C 0.22072 0.12755 0.57044 0.0
N320 N 0.13993 0.09731 0.5465 0.0
C321 C 0.194 0.11995 0.54959 0.0
O322 O 0.20676 0.05333 0.66049 0.0
C323 C 0.21894 1.01478 0.64391 0.0
O324 O 0.21479 1.03081 0.62536 0.0
H325 H 0.11816 0.07256 0.59616 0.0
H326 H 0.2626 0.14811 0.57406 0.0
C327 C 0.17378 0.15975 0.71142 0.0
C328 C 0.19613 0.19048 0.73162 0.0
C329 C 0.24438 0.26547 0.71485 0.0
C330 C 0.22274 0.23424 0.69485 0.0
N331 N 0.18771 0.18216 0.69352 0.0
N332 N 0.23097 0.24269 0.73274 0.0
H333 H 0.14709 0.11711 0.7098 0.0
C334 C 0.33966 0.10484 0.63113 0.0
O335 O 0.31173 0.11034 0.64835 0.0
O336 O 0.0815 0.10592 0.6659 0.0
H337 H 0.23457 0.25085 0.6805 0.0
H338 H 0.06914 0.06294 0.5598 0.0
H339 H 0.2722 0.30701 0.71615 0.0
Zn340 Zn 0.69153 0.45733 0.41279 0.0
C341 C 0.55162 0.5088 0.38802 0.0
N342 N 0.53134 0.45716 0.39524 0.0
C343 C 0.57786 0.42269 0.39872 0.0
N344 N 0.62432 0.45251 0.39402 0.0
N345 N 0.6077 0.50515 0.38652 0.0
C346 C 0.64365 0.66141 0.39344 0.0
O347 O 0.65481 0.62125 0.40715 0.0
O348 O 0.725 0.37251 0.40954 0.0
Zn349 Zn 0.65363 0.54689 0.36901 0.0
N350 N 0.67307 0.48185 0.44215 0.0
C351 C 0.6178 0.54559 0.46696 0.0
C352 C 0.633 0.52725 0.44615 0.0
C353 C 0.69857 0.45341 0.45817 0.0
N354 N 0.64367 0.51794 0.48302 0.0
C355 C 0.68421 0.47251 0.47935 0.0
O356 O 0.74098 0.54548 0.37505 0.0
C357 C 0.77518 0.53552 0.3907 0.0
O358 O 0.75774 0.51159 0.40633 0.0
H359 H 0.61279 0.54839 0.43319 0.0
H360 H 0.72872 0.41563 0.45426 0.0
C361 C 0.64508 0.54489 0.32373 0.0
C362 C 0.63002 0.51844 0.30228 0.0
C363 C 0.59296 0.42542 0.31382 0.0
C364 C 0.60806 0.45188 0.33501 0.0
N365 N 0.63369 0.511 0.33954 0.0
N366 N 0.60426 0.45916 0.298 0.0
H367 H 0.66634 0.59136 0.32793 0.0
C368 C 0.74679 0.3609 0.39178 0.0
O369 O 0.73262 0.3963 0.3769 0.0
O370 O 0.63389 0.63801 0.37388 0.0
H371 H 0.59947 0.42553 0.34776 0.0
H372 H 0.58569 0.58151 0.47033 0.0
H373 H 0.57249 0.37842 0.30994 0.0
Zn374 Zn 0.39728 0.96405 0.15684 0.0
C375 C 0.32079 0.78693 0.13915 0.0
N376 N 0.36967 0.76959 0.14846 0.0
C377 C 0.40024 0.82443 0.15166 0.0
N378 N 0.3722 0.87381 0.14456 0.0
N379 N 0.32168 0.85051 0.13643 0.0
C380 C 0.16643 0.91666 0.13657 0.0
O381 O 0.20025 0.9403 0.15325 0.0
O382 O 0.48468 0.97959 0.15704 0.0
Zn383 Zn 0.27324 0.89626 0.11731 0.0
N384 N 0.37575 0.96973 0.18608 0.0
C385 C 0.30245 0.9365 0.20557 0.0
C386 C 0.32334 0.94439 0.18633 0.0
C387 C 0.40785 0.99009 0.2047 0.0
N388 N 0.33432 0.95575 0.22403 0.0
C389 C 0.38641 0.98261 0.22431 0.0
O390 O 0.28573 0.99367 0.12223 0.0
C391 C 0.3138 1.0437 0.13119 0.0
O392 O 0.35633 1.03864 0.14429 0.0
H393 H 0.29836 0.92903 0.17154 0.0
H394 H 0.44933 1.01065 0.20426 0.0
C395 C 0.26596 0.88727 0.07074 0.0
C396 C 0.28381 0.86564 0.05015 0.0
C397 C 0.35391 0.80245 0.06543 0.0
C398 C 0.33704 0.82511 0.08573 0.0
N399 N 0.29266 0.86581 0.08807 0.0
N400 N 0.32714 0.82328 0.0482 0.0
H401 H 0.23165 0.92093 0.07302 0.0
C402 C 0.5044 1.00842 0.14281 0.0
O403 O 0.46869 1.02565 0.12797 0.0
O404 O 0.18814 0.88842 0.11985 0.0
H405 H 0.3599 0.81082 0.09952 0.0
H406 H 0.26111 0.91548 0.20587 0.0
H407 H 0.38873 0.76944 0.06341 0.0
Zn408 Zn 0.91295 0.46538 0.65759 0.0
C409 C 0.83463 0.29077 0.64287 0.0
N410 N 0.88246 0.27311 0.65262 0.0
C411 C 0.91694 0.32441 0.65364 0.0
N412 N 0.89096 0.37334 0.64523 0.0
N413 N 0.83926 0.35165 0.63796 0.0
C414 C 0.69333 0.42526 0.6443 0.0
O415 O 0.73453 0.45445 0.65714 0.0
O416 O 0.99962 0.48728 0.6579 0.0
Zn417 Zn 0.78752 0.39588 0.61971 0.0
N418 N 0.88929 0.47304 0.68709 0.0
C419 C 0.82239 0.43058 0.70755 0.0
C420 C 0.84323 0.43543 0.68809 0.0
C421 C 0.91427 0.50879 0.70532 0.0
N422 N 0.84732 0.46516 0.72556 0.0
C423 C 0.89238 0.50472 0.72521 0.0
O424 O 0.80099 0.4929 0.62185 0.0
C425 C 0.83013 0.54272 0.63028 0.0
O426 O 0.87196 0.53788 0.64373 0.0
H427 H 0.82241 0.4087 0.67389 0.0
H428 H 0.95047 0.53918 0.70441 0.0
C429 C 0.77026 0.38511 0.57361 0.0
C430 C 0.78321 0.36248 0.55246 0.0
C431 C 0.84743 0.28825 0.56542 0.0
C432 C 0.83581 0.3122 0.58631 0.0
N433 N 0.79698 0.35942 0.59007 0.0
N434 N 0.82129 0.31415 0.54905 0.0
H435 H 0.74135 0.42461 0.57709 0.0
C436 C 0.03266 0.46736 0.64334 0.0
O437 O 1.01328 0.42544 0.62676 0.0
O438 O 0.70576 0.39047 0.62698 0.0
H439 H 0.85898 0.29456 0.59943 0.0
H440 H 0.78624 0.4 0.70835 0.0
H441 H 0.87811 0.25052 0.56225 0.0
Zn442 Zn 0.41422 0.11138 0.37721 0.0
C443 C 0.34391 0.28599 0.39487 0.0
N444 N 0.39559 0.30557 0.3915 0.0
C445 C 0.42542 0.25076 0.38945 0.0
N446 N 0.39401 0.19889 0.39152 0.0
N447 N 0.34274 0.22088 0.39545 0.0
C448 C 0.18975 0.15293 0.38428 0.0
O449 O 0.22438 0.12567 0.37052 0.0
O450 O 0.50179 0.10129 0.37895 0.0
Zn451 Zn 0.29335 0.17189 0.4103 0.0
N452 N 0.38858 0.11279 0.34722 0.0
C453 C 0.31994 0.15694 0.32442 0.0
C454 C 0.34022 0.14619 0.34462 0.0
C455 C 0.41663 0.08711 0.32992 0.0
N456 N 0.3479 0.13218 0.30731 0.0
C457 C 0.3955 0.09704 0.3093 0.0
O458 O 0.30385 0.07288 0.40501 0.0
C459 C 0.33151 1.02393 0.3969 0.0
O460 O 0.37434 1.03176 0.3865 0.0
H461 H 0.31762 0.16521 0.35818 0.0
H462 H 0.45477 0.06009 0.33219 0.0
C463 C 0.28215 0.17843 0.45604 0.0
C464 C 0.30004 0.19704 0.47781 0.0
C465 C 0.37241 0.26178 0.46812 0.0
C466 C 0.35532 0.24245 0.44663 0.0
N467 N 0.31066 0.20117 0.44088 0.0
N468 N 0.34475 0.23832 0.48317 0.0
H469 H 0.24735 0.14473 0.45119 0.0
C470 C 0.52892 0.07151 0.39252 0.0
O471 O 0.50023 0.04687 0.40625 0.0
O472 O 0.21063 0.18316 0.40214 0.0
H473 H 0.37841 0.25959 0.43469 0.0
H474 H 0.28194 0.18428 0.32229 0.0
H475 H 0.40793 0.29447 0.47281 0.0
Zn476 Zn 0.70963 0.62625 0.11704 0.0
C477 C 0.63413 0.76558 0.15252 0.0
N478 N 0.67187 0.80255 0.14494 0.0
C479 C 0.70715 0.75831 0.13589 0.0
N480 N 0.69183 0.69814 0.13757 0.0
N481 N 0.64715 0.70199 0.14856 0.0
C482 C 0.54095 0.5703 0.14791 0.0
O483 O 0.57052 0.56703 0.13119 0.0
O484 O 0.7927 0.61701 0.1166 0.0
Zn485 Zn 0.63865 0.6367 0.16649 0.0
N486 N 0.67615 0.63968 0.08938 0.0
C487 C 0.59282 0.64374 0.06657 0.0
C488 C 0.61921 0.63536 0.08626 0.0
C489 C 0.708 0.65309 0.07369 0.0
N490 N 0.62449 0.6561 0.05078 0.0
C491 C 0.68164 0.6612 0.05361 0.0
O492 O 0.68542 0.55675 0.15848 0.0
C493 C 0.69356 0.52119 0.14082 0.0
O494 O 0.68214 0.54119 0.12312 0.0
H495 H 0.59463 0.62552 0.09901 0.0
H496 H 0.75309 0.65798 0.07705 0.0
C497 C 0.6527 0.63628 0.21116 0.0
C498 C 0.67353 0.6573 0.23241 0.0
C499 C 0.7172 0.74736 0.22145 0.0
C500 C 0.6977 0.72523 0.2003 0.0
N501 N 0.66541 0.6705 0.19562 0.0
N502 N 0.70476 0.71297 0.23699 0.0
H503 H 0.62641 0.59333 0.20687 0.0
C504 C 0.81816 0.60687 0.13404 0.0
O505 O 0.78991 0.61021 0.15111 0.0
O506 O 0.56002 0.60369 0.16539 0.0
H507 H 0.70825 0.75151 0.18776 0.0
H508 H 0.54749 0.64028 0.06382 0.0
H509 H 0.74249 0.79115 0.22548 0.0
Zn510 Zn 0.20814 0.94033 0.90607 0.0
C511 C 0.0694 1.00588 0.87731 0.0
N512 N 0.04747 0.94729 0.87781 0.0
C513 C 0.09203 0.9139 0.88428 0.0
N514 N 0.13943 0.95115 0.88819 0.0
N515 N 0.12528 1.00817 0.8829 0.0
C516 C 0.18073 0.1651 0.90213 0.0
O517 O 0.19385 0.11529 0.91171 0.0
O518 O 0.22491 0.84622 0.90397 0.0
Zn519 Zn 0.17457 0.06155 0.87013 0.0
N520 N 0.19299 0.97299 0.93574 0.0
C521 C 0.13603 1.04009 0.95914 0.0
C522 C 0.15218 1.01818 0.9387 0.0
C523 C 0.21749 0.94736 0.95263 0.0
N524 N 0.15984 1.01415 0.97589 0.0
C525 C 0.19968 0.96752 0.97335 0.0
O526 O 0.25964 0.04906 0.87481 0.0
C527 C 0.29625 1.02089 0.88572 0.0
O528 O 0.28097 0.98217 0.89801 0.0
H529 H 0.13119 1.03593 0.92521 0.0
H530 H 0.24972 0.91134 0.94982 0.0
C531 C 0.16504 0.08439 0.82567 0.0
C532 C 0.14986 0.06582 0.80368 0.0
C533 C 0.11587 0.96512 0.81052 0.0
C534 C 0.13216 0.98285 0.83213 0.0
N535 N 0.15511 1.04259 0.83945 0.0
N536 N 0.12504 1.00688 0.79682 0.0
H537 H 0.18435 0.13116 0.83174 0.0
C538 C 0.2386 0.81517 0.88632 0.0
O539 O 0.23737 0.84497 0.86955 0.0
O540 O 0.16345 0.1539 0.88243 0.0
H541 H 0.12672 0.94873 0.84294 0.0
H542 H 0.10382 0.07635 0.96162 0.0
H543 H 0.0968 0.91815 0.80459 0.0
C544 C 0.02732 0.29565 0.15575 0.0
C545 C 0.05294 0.31866 0.1392 0.0
C546 C 0.98081 0.25325 0.1512 0.0
C547 C 0.96006 0.23122 0.1299 0.0
H548 H 0.0483 0.30222 0.17171 0.0
H549 H 0.96815 0.22911 0.16397 0.0
S550 S 1.00162 0.29387 0.08202 0.0
N551 N 0.04442 0.33143 0.10179 0.0
N552 N 0.95962 0.24792 0.09302 0.0
C553 C 0.97876 0.26319 0.11391 0.0
C554 C 1.02472 0.30825 0.11867 0.0
C555 C 1.01244 0.83275 0.41635 0.0
C556 C 0.9807 0.85226 0.39898 0.0
C557 C 0.05183 0.783 0.41296 0.0
C558 C 0.06196 0.75403 0.39205 0.0
H559 H 1.01325 0.8623 0.432 0.0
H560 H 0.0814 0.77621 0.42625 0.0
S561 S 0.97622 0.77269 0.34252 0.0
N562 N 0.94992 0.8253 0.3613 0.0
N563 N 0.02691 0.73524 0.35482 0.0
C564 C 1.02296 0.76407 0.37536 0.0
C565 C 0.98138 0.81282 0.37891 0.0
C566 C 0.48854 0.73819 0.61813 0.0
C567 C 0.47779 0.73151 0.63909 0.0
C568 C 0.53378 0.77691 0.61436 0.0
C569 C 0.56927 0.80994 0.63142 0.0
H570 H 0.46867 0.7052 0.60477 0.0
H571 H 0.54611 0.77295 0.59813 0.0
S572 S 0.54578 0.82452 0.68886 0.0
N573 N 0.49524 0.77497 0.6767 0.0
N574 N 0.58142 0.8455 0.66967 0.0
C575 C 0.55178 0.81338 0.65211 0.0
C576 C 0.50504 0.77504 0.65589 0.0
C577 C 0.49447 0.25585 0.89315 0.0
C578 C 0.46669 0.29793 0.88052 0.0
C579 C 0.54951 0.23596 0.89003 0.0
C580 C 0.5786 0.25617 0.87386 0.0
H581 H 0.47513 0.24134 0.90658 0.0
H582 H 0.57081 0.20891 0.90145 0.0
S583 S 0.52216 0.35418 0.8335 0.0
N584 N 0.47039 0.35017 0.8491 0.0
N585 N 0.57426 0.3128 0.84327 0.0
C586 C 0.5501 0.29319 0.85993 0.0
C587 C 0.49402 0.31407 0.86323 0.0
C588 C 1.00586 0.76986 0.87583 0.0
C589 C 0.99087 0.77174 0.89684 0.0
C590 C 0.0523 0.80617 0.87171 0.0
C591 C 0.08313 0.84725 0.8884 0.0
H592 H 0.97732 0.74846 0.86249 0.0
H593 H 0.05728 0.81145 0.85524 0.0
S594 S 0.07227 0.8493 0.94624 0.0
N595 N 1.0201 0.80131 0.93456 0.0
N596 N 0.10555 0.87152 0.92664 0.0
C597 C 0.0754 0.83841 0.90938 0.0
C598 C 0.02898 0.80058 0.91364 0.0
C599 C 0.07538 0.32134 0.66618 0.0
C600 C 0.0902 0.27017 0.65049 0.0
C601 C 1.01887 0.3406 0.6673 0.0
C602 C 0.97702 0.31091 0.65213 0.0
H603 H 0.10745 0.34628 0.67752 0.0
H604 H 1.00793 0.37853 0.67994 0.0
S605 S 0.99627 0.17857 0.60699 0.0
N606 N 0.05956 0.19201 0.61934 0.0
N607 N 0.95483 0.23022 0.62054 0.0
C608 C 0.99221 0.26099 0.63612 0.0
C609 C 0.04857 0.24018 0.63549 0.0
C610 C 0.51454 0.26918 0.37445 0.0
C611 C 0.48718 0.25489 0.39197 0.0
C612 C 0.55728 0.31667 0.37738 0.0
C613 C 0.57194 0.35231 0.39779 0.0
H614 H 0.49698 0.25158 0.35833 0.0
H615 H 0.57117 0.33331 0.3633 0.0
S616 S 0.52681 0.31615 0.44905 0.0
N617 N 0.49021 0.26487 0.43062 0.0
N618 N 0.56739 0.35766 0.43595 0.0
C619 C 0.55305 0.32915 0.41552 0.0
C620 C 0.51124 0.27907 0.41259 0.0
C621 C 0.49513 0.84253 0.14099 0.0
C622 C 0.46138 0.82292 0.15596 0.0
C623 C 0.55196 0.82672 0.14106 0.0
C624 C 0.57677 0.78923 0.15578 0.0
H625 H 0.47675 0.86673 0.12825 0.0
H626 H 0.57572 0.8407 0.12859 0.0
S627 S 0.50712 0.73135 0.19957 0.0
N628 N 0.45685 0.76824 0.18683 0.0
N629 N 0.56435 0.73814 0.18693 0.0
C630 C 0.54405 0.77168 0.17143 0.0
C631 C 0.48606 0.78847 0.17149 0.0
C632 C 0.30953 0.16601 0.14192 0.0
C633 C 0.29261 0.10933 0.1276 0.0
C634 C 0.28165 0.22552 0.14125 0.0
C635 C 0.23609 0.23081 0.12615 0.0
H636 H 0.34185 0.16347 0.1547 0.0
H637 H 0.29248 0.2659 0.15382 0.0
S638 S 0.18095 0.10089 0.08294 0.0
N639 N 0.23185 0.06594 0.09597 0.0
N640 N 0.17941 0.17647 0.09522 0.0
C641 C 0.22211 0.17628 0.11069 0.0
C642 C 0.25033 0.11601 0.11126 0.0
C643 C 0.06046 0.05055 0.36363 0.0
C644 C 0.02791 0.0594 0.38131 0.0
C645 C 0.1101 0.08677 0.36366 0.0
C646 C 0.12947 0.13224 0.38159 0.0
H647 H 0.05036 1.01135 0.35056 0.0
H648 H 0.13587 0.07472 0.3503 0.0
S649 S 0.05448 0.17933 0.43068 0.0
N650 N 1.01512 0.12112 0.41623 0.0
N651 N 0.10711 0.19048 0.41616 0.0
C652 C 0.09388 0.14623 0.39837 0.0
C653 C 0.04353 0.10918 0.39831 0.0
C654 C 0.30652 0.8651 0.63231 0.0
C655 C 0.28967 0.82581 0.6468 0.0
C656 C 0.28382 0.9264 0.63185 0.0
C657 C 0.24357 0.95122 0.64594 0.0
H658 H 0.3369 0.84808 0.62092 0.0
H659 H 0.29784 0.95449 0.62023 0.0
S660 S 0.18657 0.86949 0.68757 0.0
N661 N 0.23121 0.81711 0.67612 0.0
N662 N 0.18898 0.93338 0.67528 0.0
C663 C 0.22765 0.9138 0.66105 0.0
C664 C 0.25057 0.8508 0.66147 0.0
C665 C 0.4573 1.01279 0.89487 0.0
C666 C 0.47799 0.056 0.88217 0.0
C667 C 0.39923 1.00187 0.89581 0.0
C668 C 0.35821 1.03373 0.88419 0.0
H669 H 0.4863 0.98668 0.9043 0.0
H670 H 0.38654 0.96795 0.90587 0.0
S671 S 0.38909 0.15306 0.8486 0.0
N672 N 0.45189 0.13116 0.85761 0.0
N673 N 0.34326 0.1118 0.85957 0.0
C674 C 0.37818 0.07743 0.8714 0.0
C675 C 0.43763 0.08818 0.87034 0.0
C676 C 0.26915 0.95011 0.41327 0.0
C677 C 0.30979 0.95681 0.39868 0.0
C678 C 0.24052 0.89103 0.41321 0.0
C679 C 0.25097 0.83476 0.39871 0.0
H680 H 0.25704 0.99189 0.42427 0.0
H681 H 0.20678 0.89073 0.4237 0.0
S682 S 0.35601 0.82295 0.35816 0.0
N683 N 0.36178 0.89902 0.37019 0.0
N684 N 0.30723 0.78879 0.37001 0.0
C685 C 0.29386 0.83921 0.38492 0.0
C686 C 0.32339 0.89973 0.38495 0.0
C687 C 0.46983 1.02007 0.64932 0.0
C688 C 0.5053 1.02193 0.63273 0.0
C689 C 0.41714 0.04903 0.64892 0.0
C690 C 0.3976 0.08064 0.63185 0.0
H691 H 0.48258 0.99577 0.66275 0.0
H692 H 0.39103 0.04504 0.6619 0.0
S693 S 0.47478 0.10186 0.58485 0.0
N694 N 0.51782 0.06005 0.59899 0.0
N695 N 0.4181 0.11418 0.59825 0.0
C696 C 0.43268 0.08372 0.61524 0.0
C697 C 0.48667 0.05438 0.61567 0.0
C698 C 0.20138 0.27874 0.89841 0.0
C699 C 0.20522 0.22936 0.91113 0.0
C700 C 0.24454 0.32476 0.89996 0.0
C701 C 0.29189 0.32291 0.91443 0.0
H702 H 0.16946 0.27645 0.8852 0.0
H703 H 0.24486 0.35459 0.88751 0.0
S704 S 0.30971 0.22145 0.9571 0.0
N705 N 0.25039 0.19512 0.94329 0.0
N706 N 0.33244 0.28113 0.9456 0.0
C707 C 0.29047 0.2825 0.92995 0.0
C708 C 0.2463 0.23593 0.92856 0.0
C709 C 0.07921 0.94471 0.11537 0.0
C710 C 0.10678 0.9387 0.13538 0.0
C711 C 0.03014 0.98144 0.11387 0.0
C712 C 1.00576 1.01223 0.13222 0.0
H713 H 0.0981 0.9257 0.10074 0.0
H714 H 1.01334 0.98965 0.09817 0.0
S715 S 0.0556 1.00338 0.18831 0.0
N716 N 0.10168 0.96049 0.17401 0.0
N717 N 1.00916 1.02893 0.17091 0.0
C718 C 0.02962 1.00178 0.15224 0.0
C719 C 0.08013 0.96502 0.15387 0.0
C720 C 0.76708 0.86169 0.89312 0.0
C721 C 0.80766 0.85914 0.91032 0.0
C722 C 0.73989 0.92032 0.89022 0.0
C723 C 0.75249 0.97872 0.90435 0.0
H724 H 0.75981 0.81975 0.88082 0.0
H725 H 0.71183 0.92071 0.876 0.0
S726 S 0.84823 0.99431 0.95398 0.0
N727 N 0.85335 0.9177 0.94309 0.0
N728 N 0.80262 1.02669 0.93792 0.0
C729 C 0.78921 0.97483 0.92261 0.0
C730 C 0.81656 0.91545 0.92552 0.0
C731 C 1.00289 0.97294 0.63272 0.0
C732 C 1.01257 1.02751 0.64864 0.0
C733 C 0.95298 0.93686 0.63087 0.0
C734 C 0.91049 0.954 0.6448 0.0
H735 H 0.03386 0.95807 0.62137 0.0
H736 H 0.94706 0.89635 0.61796 0.0
S737 S 0.91614 0.09123 0.68992 0.0
N738 N 0.97661 0.09566 0.67918 0.0
N739 N 0.88243 1.02791 0.67574 0.0
C740 C 0.9204 1.00717 0.66133 0.0
C741 C 0.97144 1.04401 0.6632 0.0
C742 C 0.81907 0.29483 0.40797 0.0
C743 C 0.79443 0.31683 0.38963 0.0
C744 C 0.86151 0.2492 0.40643 0.0
C745 C 0.87964 0.22277 0.38642 0.0
H746 H 0.80428 0.31116 0.4236 0.0
H747 H 0.87645 0.23055 0.42082 0.0
S748 S 0.83967 0.27761 0.33454 0.0
N749 N 0.79931 0.31934 0.3516 0.0
N750 N 0.87918 0.2322 0.34863 0.0
C751 C 0.86067 0.25047 0.36839 0.0
C752 C 0.8175 0.29747 0.36998 0.0
C753 C 0.66622 1.00258 0.15257 0.0
C754 C 0.68541 0.04875 0.14059 0.0
C755 C 0.60805 0.99037 0.15365 0.0
C756 C 0.5663 1.02308 0.14257 0.0
H757 H 0.69632 0.97543 0.16118 0.0
H758 H 0.59582 0.95436 0.16302 0.0
S759 S 0.59313 0.15101 0.10978 0.0
N760 N 0.65641 0.12904 0.11807 0.0
N761 N 0.54889 0.10579 0.11994 0.0
C762 C 0.58496 0.0698 0.13079 0.0
C763 C 0.64377 0.08262 0.12982 0.0
C764 C 0.8048 0.189 0.6191 0.0
C765 C 0.79081 0.23999 0.63507 0.0
C766 C 0.78196 0.12616 0.61757 0.0
C767 C 0.74446 0.11046 0.63218 0.0
H768 H 0.83792 0.19574 0.60891 0.0
H769 H 0.79687 0.08867 0.6056 0.0
S770 S 0.68961 0.2281 0.67578 0.0
N771 N 0.73363 0.2716 0.66477 0.0
N772 N 0.69001 0.15421 0.66198 0.0
C773 C 0.72687 0.1622 0.64729 0.0
C774 C 0.7502 0.22647 0.64872 0.0
C775 C 0.68382 0.08836 0.38025 0.0
C776 C 0.71294 0.04896 0.39349 0.0
C777 C 0.62472 0.09589 0.38006 0.0
C778 C 0.59189 0.0637 0.39288 0.0
H779 H 0.70688 0.11383 0.37 0.0
H780 H 0.60466 0.12717 0.36972 0.0
S781 S 0.64686 0.95044 0.42912 0.0
N782 N 0.70331 0.97513 0.4191 0.0
N783 N 0.59369 0.98815 0.41846 0.0
C784 C 0.62058 1.02342 0.40593 0.0
C785 C 0.6805 1.01636 0.4063 0.0
C786 C 0.81911 0.83981 0.11146 0.0
C787 C 0.8617 0.84745 0.12839 0.0
C788 C 0.76983 0.80492 0.11285 0.0
C789 C 0.76314 0.77533 0.1308 0.0
H790 H 0.82036 0.86751 0.09843 0.0
H791 H 0.73518 0.8057 0.1008 0.0
S792 S 0.86741 0.76817 0.17667 0.0
N793 N 0.89836 0.81241 0.16142 0.0
N794 N 0.80538 0.74717 0.1641 0.0
C795 C 0.80831 0.7751 0.14627 0.0
C796 C 0.85825 0.8106 0.1449 0.0
C797 C 0.98989 0.05452 0.85829 0.0
C798 C 0.03202 0.06151 0.87524 0.0
C799 C 0.93963 0.08934 0.85986 0.0
C800 C 0.92908 0.13206 0.8786 0.0
H801 H 0.99366 1.01755 0.84447 0.0
H802 H 0.90702 0.07867 0.84692 0.0
S803 S 0.02934 0.17402 0.92647 0.0
N804 N 0.06242 0.11936 0.91042 0.0
N805 N 0.9685 0.18545 0.91338 0.0
C806 C 0.9733 0.14449 0.89477 0.0
C807 C 1.02463 0.10893 0.8931 0.0
C808 C 0.77102 0.61055 0.60781 0.0
C809 C 0.81105 0.60782 0.62521 0.0
C810 C 0.74384 0.66847 0.60472 0.0
C811 C 0.75519 0.72693 0.61877 0.0
H812 H 0.75805 0.56672 0.59705 0.0
H813 H 0.71024 0.66627 0.59211 0.0
S814 S 0.86178 0.74931 0.66515 0.0
N815 N 0.8652 0.67147 0.65538 0.0
N816 N 0.81374 0.77985 0.64951 0.0
C817 C 0.79864 0.7265 0.63509 0.0
C818 C 0.82653 0.66717 0.63833 0.0
C819 C 0.62778 0.59482 0.87138 0.0
C820 C 0.64445 0.63584 0.89063 0.0
C821 C 0.58058 0.55396 0.86967 0.0
C822 C 0.54817 0.55226 0.88716 0.0
H823 H 0.65231 0.59264 0.85762 0.0
H824 H 0.57012 0.52257 0.85461 0.0
S825 S 0.57064 0.6542 0.94065 0.0
N826 N 0.6223 0.67526 0.92718 0.0
N827 N 0.53376 0.59843 0.92399 0.0
C828 C 0.56306 0.59468 0.9063 0.0
C829 C 0.61099 0.63662 0.908 0.0
C830 C 0.7232 0.41536 0.12118 0.0
C831 C 0.72112 0.4576 0.14066 0.0
C832 C 0.7508 0.35612 0.12015 0.0
C833 C 0.77738 0.33639 0.13858 0.0
H834 H 0.70316 0.4279 0.1065 0.0
H835 H 0.75036 0.3251 0.10477 0.0
S836 S 0.78819 0.43102 0.19332 0.0
N837 N 0.75082 0.47692 0.17872 0.0
N838 N 0.80251 0.36507 0.17675 0.0
C839 C 0.77659 0.37844 0.15814 0.0
C840 C 0.74847 0.43908 0.1592 0.0
C841 C 0.86041 0.58748 0.37741 0.0
C842 C 0.83787 0.54522 0.39005 0.0
C843 C 0.91937 0.59602 0.37685 0.0
C844 C 0.95854 0.56247 0.38883 0.0
H845 H 0.8323 0.61482 0.36806 0.0
H846 H 0.93431 0.62991 0.36721 0.0
S847 S 0.92201 0.44035 0.42253 0.0
N848 N 0.86061 0.46587 0.41355 0.0
N849 N 0.96958 0.4815 0.41244 0.0
C850 C 0.93638 0.51885 0.40102 0.0
C851 C 0.87679 0.51034 0.40164 0.0
C852 C 0.76866 0.46701 0.90773 0.0
C853 C 0.81202 0.4778 0.89475 0.0
C854 C 0.74379 0.40566 0.90666 0.0
C855 C 0.76184 0.3508 0.89312 0.0
H856 H 0.75096 0.50713 0.91794 0.0
H857 H 0.70685 0.40238 0.91538 0.0
S858 S 0.87702 0.34986 0.85709 0.0
N859 N 0.87463 0.42619 0.86875 0.0
N860 N 0.82779 0.31066 0.86711 0.0
C861 C 0.8074 0.35956 0.88101 0.0
C862 C 0.83253 0.42279 0.88179 0.0
C863 C 0.89606 0.55015 0.15139 0.0
C864 C 0.87626 0.58288 0.13462 0.0
C865 C 0.94943 0.5227 0.15179 0.0
C866 C 0.98527 0.52707 0.13548 0.0
H867 H 0.86978 0.5444 0.16417 0.0
H868 H 0.96245 0.49757 0.16501 0.0
S869 S 0.95419 0.61055 0.08843 0.0
N870 N 0.89695 0.62009 0.1016 0.0
N871 N 0.9977 0.56853 0.10231 0.0
C872 C 0.96625 0.56038 0.11869 0.0
C873 C 0.91167 0.58834 0.11828 0.0
C874 C 0.74899 0.78759 0.4154 0.0
C875 C 0.74893 0.82341 0.39844 0.0
C876 C 0.7079 0.74067 0.41559 0.0
C877 C 0.66642 0.72728 0.39852 0.0
H878 H 0.78265 0.79307 0.42805 0.0
H879 H 0.71256 0.71039 0.42798 0.0
S880 S 0.63672 0.8227 0.35453 0.0
N881 N 0.69565 0.85431 0.36731 0.0
N882 N 0.61855 0.76425 0.36748 0.0
C883 C 0.66086 0.76928 0.3833 0.0
C884 C 0.70261 0.81748 0.38315 0.0
C885 C 0.62358 0.48656 0.66699 0.0
C886 C 0.63438 0.44576 0.64786 0.0
C887 C 0.57369 0.52206 0.66876 0.0
C888 C 0.53214 0.51736 0.65167 0.0
H889 H 0.65572 0.49527 0.68016 0.0
H890 H 0.56977 0.5576 0.68294 0.0
S891 S 0.53559 0.41071 0.59929 0.0
N892 N 0.59568 0.39677 0.61244 0.0
N893 N 0.50267 0.46424 0.61578 0.0
C894 C 0.53984 0.47208 0.63329 0.0
C895 C 0.59071 0.43589 0.63142 0.0
C896 C 0.25312 0.3425 0.38571 0.0
C897 C 0.29982 0.33601 0.40026 0.0
C898 C 0.22436 0.40225 0.38592 0.0
C899 C 0.24149 0.45852 0.40052 0.0
H900 H 0.24155 0.30281 0.37298 0.0
H901 H 0.19082 0.40535 0.37363 0.0
S902 S 0.35856 0.46512 0.44316 0.0
N903 N 0.35894 0.38987 0.43059 0.0
N904 N 0.30588 0.50039 0.43122 0.0
C905 C 0.2858 0.45085 0.41603 0.0
C906 C 0.31456 0.39035 0.41582 0.0
C907 C 0.42508 0.44888 0.12607 0.0
C908 C 0.39157 0.44972 0.1434 0.0
C909 C 0.47297 0.48837 0.12773 0.0
C910 C 0.48959 0.52997 0.14681 0.0
H911 H 0.41321 0.41938 0.11078 0.0
H912 H 0.49672 0.48656 0.11378 0.0
S913 S 0.41906 0.54625 0.1975 0.0
N914 N 0.38022 0.49264 0.18071 0.0
N915 N 0.47058 0.56678 0.18387 0.0
C916 C 0.45771 0.52957 0.16455 0.0
C917 C 0.40874 0.48935 0.16284 0.0
C918 C 0.27373 0.72458 0.90486 0.0
C919 C 0.26287 0.74967 0.88566 0.0
C920 C 0.30162 0.66597 0.90528 0.0
C921 C 0.31953 0.62951 0.8865 0.0
H922 H 0.26171 0.75102 0.91988 0.0
H923 H 0.30915 0.64924 0.92055 0.0
S924 S 0.29758 0.67087 0.83171 0.0
N925 N 0.26952 0.7316 0.84711 0.0
N926 N 0.32186 0.62097 0.84791 0.0
C927 C 0.30739 0.65279 0.86704 0.0
C928 C 0.27909 0.71289 0.86661 0.0
C929 C 0.1345 0.44771 0.63637 0.0
C930 C 0.09284 0.49027 0.6447 0.0
C931 C 0.19112 0.4678 0.63658 0.0
C932 C 0.20829 0.53225 0.64427 0.0
H933 H 0.12318 0.39818 0.62966 0.0
H934 H 0.22154 0.43287 0.63027 0.0
S935 S 0.11611 0.66413 0.66703 0.0
N936 N 0.07346 0.60046 0.6609 0.0
N937 N 0.17883 0.63891 0.66015 0.0
C938 C 0.1671 0.5757 0.65232 0.0
C939 C 0.10976 0.55463 0.65282 0.0
C940 C 0.23605 0.72389 0.14482 0.0
C941 C 0.27746 0.73579 0.1312 0.0
C942 C 0.21247 0.66134 0.14395 0.0
C943 C 0.22964 0.60763 0.12953 0.0
H944 H 0.22559 0.76175 0.15757 0.0
H945 H 0.18312 0.65442 0.15562 0.0
S946 S 0.33309 0.61465 0.08898 0.0
N947 N 0.33163 0.68944 0.10191 0.0
N948 N 0.28702 0.57334 0.09977 0.0
C949 C 0.2678 0.6203 0.11471 0.0
C950 C 0.29169 0.68381 0.11568 0.0
C951 C 0.13141 0.50982 0.91007 0.0
C952 C 0.16865 0.51682 0.89448 0.0
C953 C 0.07801 0.53748 0.90939 0.0
C954 C 0.06031 0.57368 0.89322 0.0
H955 H 0.14345 0.48231 0.92279 0.0
H956 H 0.0503 0.52979 0.92152 0.0
S957 S 0.14513 0.61196 0.85 0.0
N958 N 0.1861 0.56571 0.86325 0.0
N959 N 0.08608 0.61875 0.86209 0.0
C960 C 0.09795 0.58248 0.87785 0.0
C961 C 0.15204 0.55368 0.87843 0.0
C962 C 0.36397 0.30484 0.6331 0.0
C963 C 0.36033 0.35406 0.62034 0.0
C964 C 0.31816 0.26371 0.63338 0.0
C965 C 0.26879 0.26899 0.6203 0.0
H966 H 0.39862 0.30419 0.64516 0.0
H967 H 0.31876 0.23422 0.64596 0.0
S968 S 0.24652 0.37275 0.57847 0.0
N969 N 0.30985 0.39321 0.58998 0.0
N970 N 0.22353 0.31499 0.59076 0.0
C971 C 0.26855 0.30959 0.60482 0.0
C972 C 0.31513 0.3518 0.60451 0.0
C973 C 0.47429 0.5534 0.36671 0.0
C974 C 0.51476 0.56308 0.38418 0.0
C975 C 0.42401 0.58845 0.36702 0.0
C976 C 0.41202 0.63367 0.38502 0.0
H977 H 0.47918 0.51438 0.35359 0.0
H978 H 0.39244 0.57575 0.35382 0.0
S979 S 0.50855 0.68349 0.43349 0.0
N980 N 0.54229 0.62588 0.4189 0.0
N981 N 0.44903 0.69301 0.41931 0.0
C982 C 0.45493 0.64865 0.40155 0.0
C983 C 0.50591 0.61273 0.40122 0.0
C984 C 0.34834 0.41194 1.01467 0.0
C985 C 0.31826 0.43406 0.99726 0.0
C986 C 0.32059 0.38963 0.03086 0.0
C987 C 0.26157 0.38822 0.03024 0.0
H988 H 0.3939 0.41164 0.01581 0.0
H989 H 0.34558 0.37265 0.04382 0.0
S990 S 0.16262 0.44534 0.98936 0.0
N991 N 0.22554 0.45716 0.98139 0.0
N992 N 0.17369 0.4129 1.01138 0.0
C993 C 0.23081 0.4102 1.01304 0.0
C994 C 0.25901 0.43375 0.99667 0.0
C995 C 0.91241 0.99532 0.24399 0.0
C996 C 0.88854 0.05545 0.24145 0.0
C997 C 0.90958 0.97027 0.26316 0.0
C998 C 0.88298 1.0044 0.28052 0.0
H999 H 0.9344 0.96808 0.23127 0.0
H1000 H 0.92908 0.92408 0.26451 0.0
S1001 S 0.80793 0.16025 0.28088 0.0
N1002 N 0.83394 0.14627 0.25727 0.0
N1003 N 0.82769 0.09873 0.29302 0.0
C1004 C 0.85753 0.06372 0.27791 0.0
C1005 C 0.86065 0.08928 0.25846 0.0
C1006 C 0.31857 0.69682 0.53755 0.0
C1007 C 0.32532 0.63025 0.53789 0.0
C1008 C 0.29843 0.71962 0.5188 0.0
C1009 C 0.28427 0.67688 0.49964 0.0
H1010 H 0.33038 0.73169 0.55169 0.0
H1011 H 0.29446 0.77147 0.51928 0.0
S1012 S 0.28839 0.49737 0.49298 0.0
N1013 N 0.31314 0.52143 0.51798 0.0
N1014 N 0.27392 0.56416 0.48285 0.0
C1015 C 0.28949 0.60998 0.49994 0.0
C1016 C 0.31035 0.5868 0.51904 0.0
C1017 C 0.65506 1.04269 0.74326 0.0
C1018 C 0.65632 0.9746 0.73972 0.0
C1019 C 0.65399 0.07736 0.76401 0.0
C1020 C 0.65378 0.0455 0.782 0.0
H1021 H 0.66 0.06968 0.73028 0.0
H1022 H 0.65801 0.12968 0.76616 0.0
S1023 S 0.64604 0.868 0.78094 0.0
N1024 N 0.64855 0.8766 0.75561 0.0
N1025 N 0.64738 0.94212 0.79459 0.0
C1026 C 0.64905 0.97769 0.77848 0.0
C1027 C 0.65029 0.94222 0.75733 0.0
C1028 C 0.80047 0.6638 0.01672 0.0
C1029 C 0.77671 0.69644 1.0005 0.0
C1030 C 0.76976 0.65246 0.03375 0.0
C1031 C 0.71416 0.6744 0.03553 0.0
H1032 H 0.84309 0.646 0.01611 0.0
H1033 H 0.78985 0.62523 0.04533 0.0
S1034 S 0.63372 0.76589 0.99767 0.0
N1035 N 0.69503 0.75237 0.98747 0.0
N1036 N 0.63726 0.7322 0.01957 0.0
C1037 C 0.69002 0.70761 0.01938 0.0
C1038 C 0.72129 0.71848 1.0019 0.0
C1039 C 0.12961 0.1437 0.75396 0.0
C1040 C 0.18415 0.16537 0.75139 0.0
C1041 C 0.11846 0.11464 0.77163 0.0
C1042 C 0.16122 0.10675 0.7875 0.0
H1043 H 0.09544 0.14816 0.74203 0.0
H1044 H 0.07625 0.09667 0.77263 0.0
S1045 S 0.31142 0.15312 0.78797 0.0
N1046 N 0.28151 0.17652 0.76614 0.0
N1047 N 0.26032 0.12173 0.79942 0.0
C1048 C 0.21561 0.12972 0.78549 0.0
C1049 C 0.22707 0.15922 0.76743 0.0
C1050 C 0.7017 0.40827 0.5323 0.0
C1051 C 0.75886 0.39165 0.53397 0.0
C1052 C 0.67818 0.43396 0.51451 0.0
C1053 C 0.71079 0.44405 0.4977 0.0
H1054 H 0.67467 0.40031 0.54462 0.0
H1055 H 0.63379 0.44533 0.51382 0.0
S1056 S 0.86415 0.41504 0.49562 0.0
N1057 N 0.84835 0.39074 0.51798 0.0
N1058 N 0.80459 0.44038 0.4849 0.0
C1059 C 0.76839 0.4291 0.49946 0.0
C1060 C 0.79219 0.40252 0.51749 0.0
C1061 C 0.4235 0.10421 0.27288 0.0
C1062 C 0.41889 0.06656 0.28926 0.0
C1063 C 0.42183 0.07545 0.25132 0.0
C1064 C 0.41469 1.00817 0.24549 0.0
H1065 H 0.42261 0.15659 0.27657 0.0
H1066 H 0.41925 0.10656 0.23914 0.0
S1067 S 0.41168 0.88745 0.28238 0.0
N1068 N 0.41613 0.95804 0.29832 0.0
N1069 N 0.41223 0.90403 0.2578 0.0
C1070 C 0.41705 0.96968 0.26183 0.0
C1071 C 0.4194 0.99889 0.28377 0.0
C1072 C 0.8848 0.94316 0.51584 0.0
C1073 C 0.85612 0.96543 0.49818 0.0
C1074 C 0.85539 0.92058 0.53164 0.0
C1075 C 0.79621 0.91951 0.53035 0.0
H1076 H 0.93032 0.94121 0.51711 0.0
H1077 H 0.87915 0.90175 0.54452 0.0
S1078 S 0.70132 0.98252 0.48941 0.0
N1079 N 0.76512 0.99266 0.48197 0.0
N1080 N 0.71015 0.94883 0.51126 0.0
C1081 C 0.76715 0.94444 0.51334 0.0
C1082 C 0.79697 0.96783 0.49739 0.0
C1083 C 0.37685 0.5251 0.76392 0.0
C1084 C 0.39073 0.4879 0.74459 0.0
C1085 C 0.36541 0.49623 0.78155 0.0
C1086 C 0.36734 0.42871 0.78068 0.0
H1087 H 0.37541 0.57747 0.76557 0.0
H1088 H 0.35514 0.52725 0.79603 0.0
S1089 S 0.40059 0.3086 0.73397 0.0
N1090 N 0.40529 0.3793 0.72564 0.0
N1091 N 0.38247 0.32481 0.75882 0.0
C1092 C 0.37921 0.39044 0.7613 0.0
C1093 C 0.39131 0.41999 0.74325 0.0
C1094 C 0.80641 0.10349 1.01164 0.0
C1095 C 0.83089 0.13829 0.03099 0.0
C1096 C 0.7973 0.13247 0.99323 0.0
C1097 C 0.81254 0.19743 0.99337 0.0
H1098 H 0.79217 0.05387 1.01085 0.0
H1099 H 0.77568 0.10472 0.97911 0.0
S1100 S 0.88535 0.30761 0.03863 0.0
N1101 N 0.87626 0.23959 0.04818 0.0
N1102 N 0.85741 0.2944 1.01371 0.0
C1103 C 0.83919 0.2321 1.01222 0.0
C1104 C 0.84893 0.20253 0.03098 0.0
C1105 C 0.1312 0.49032 0.28143 0.0
C1106 C 0.1282 0.55815 0.28553 0.0
C1107 C 0.13526 0.45759 0.2605 0.0
C1108 C 0.13626 0.49135 0.24291 0.0
H1109 H 0.13615 0.46294 0.29458 0.0
H1110 H 0.14177 0.40574 0.25831 0.0
S1111 S 0.11985 0.66889 0.24513 0.0
N1112 N 0.11835 0.65727 0.2702 0.0
N1113 N 0.12689 0.59635 0.23105 0.0
C1114 C 0.12735 0.5586 0.24664 0.0
C1115 C 0.12307 0.59176 0.26793 0.0
C1116 C 0.18991 0.16084 0.51448 0.0
C1117 C 0.22222 0.13666 0.53101 0.0
C1118 C 0.21479 0.1781 0.49681 0.0
C1119 C 0.27295 0.1721 0.49509 0.0
H1120 H 0.14508 0.16781 0.5154 0.0
H1121 H 0.18865 0.1982 0.48479 0.0
S1122 S 0.37546 0.10291 0.53201 0.0
N1123 N 0.31494 0.10042 0.54287 0.0
N1124 N 0.36167 0.13572 0.51019 0.0
C1125 C 0.30553 0.14611 0.51101 0.0
C1126 C 0.28022 0.12761 0.52883 0.0
C1127 C 0.64878 0.65416 0.2697 0.0
C1128 C 0.66234 0.6206 0.24982 0.0
C1129 C 0.63839 0.62109 0.28661 0.0
C1130 C 0.64183 0.55309 0.28435 0.0
H1131 H 0.64536 0.70648 0.27213 0.0
H1132 H 0.62669 0.6491 0.30141 0.0
S1133 S 0.68083 0.44302 0.23607 0.0
N1134 N 0.68207 0.51595 0.22921 0.0
N1135 N 0.66239 0.45369 0.2609 0.0
C1136 C 0.65612 0.51907 0.2646 0.0
C1137 C 0.66658 0.55274 0.24738 0.0
C1138 C 0.24647 0.95565 0.03123 0.0
C1139 C 0.25913 0.88972 0.03068 0.0
C1140 C 0.22809 0.98 1.01253 0.0
C1141 C 0.22174 0.93962 0.99249 0.0
H1142 H 0.25222 0.98914 0.04609 0.0
H1143 H 0.21939 1.03129 1.01377 0.0
S1144 S 0.24347 0.7618 0.98288 0.0
N1145 N 0.26073 0.78359 1.00869 0.0
N1146 N 0.22493 0.82902 0.9737 0.0
C1147 C 0.2328 0.8732 0.99183 0.0
C1148 C 0.25182 0.84846 1.01086 0.0
C1149 C 0.91624 0.51364 0.76424 0.0
C1150 C 0.91259 0.54397 0.74588 0.0
C1151 C 0.91366 0.54931 0.78475 0.0
C1152 C 0.90707 0.61696 0.78772 0.0
H1153 H 0.9162 0.46123 0.76257 0.0
H1154 H 0.91171 0.52275 0.79801 0.0
S1155 S 0.90594 0.72066 0.74519 0.0
N1156 N 0.90971 0.64609 0.7322 0.0
N1157 N 0.90586 0.71375 0.77075 0.0
C1158 C 0.90934 0.64843 0.76967 0.0
C1159 C 0.91205 0.61187 0.74875 0.0
loop_
_geom_bond_atom_site_label_1
_geom_bond_atom_site_label_2
_geom_bond_distance
_geom_bond_site_symmetry_2
_ccdc_geom_bond_type
Zn0 N4 2.020 . S
Zn0 O8 2.019 . S
Zn0 N10 2.119 . S
Zn0 O18 1.975 . S
C1 N2 1.334 . S
C1 N5 1.336 . S
N2 C1 1.334 . S
N2 C3 1.334 . S
C3 N2 1.334 . S
C3 N4 1.336 . S
N4 Zn0 2.020 . S
N4 C3 1.336 . S
N4 N5 1.354 . S
N5 C1 1.336 . S
N5 N4 1.354 . S
N5 Zn9 2.020 . S
C6 O7 1.244 . S
C6 O30 1.257 1_655 S
O7 C6 1.244 . S
O8 Zn0 2.019 . S
O8 C28 1.257 . S
Zn9 N5 2.020 . S
Zn9 O16 1.975 . S
Zn9 N25 2.119 . S
Zn9 O30 2.019 . S
N10 Zn0 2.119 . S
N10 C12 1.334 . S
N10 C13 1.328 . S
C11 C12 1.391 . S
C11 N14 1.329 . S
C11 H32 0.930 . S
C12 N10 1.334 . S
C12 C11 1.391 . S
C12 H19 0.930 . S
C13 N10 1.328 . S
C13 C15 1.392 . S
C13 H20 0.930 . S
N14 C11 1.329 . S
N14 C15 1.331 . S
C15 C13 1.392 . S
C15 N14 1.331 . S
O16 Zn9 1.975 . S
O16 C17 1.252 . S
C17 O16 1.252 . S
C17 O18 1.252 . S
O18 Zn0 1.975 . S
O18 C17 1.252 . S
H19 C12 0.930 . S
H20 C13 0.930 . S
C21 C22 1.392 . S
C21 N25 1.328 . S
C21 H27 0.930 . S
C22 C21 1.392 . S
C22 N26 1.331 . S
C23 C24 1.391 . S
C23 N26 1.329 . S
C23 H33 0.930 . S
C24 C23 1.391 . S
C24 N25 1.334 . S
C24 H31 0.930 . S
N25 Zn9 2.119 . S
N25 C21 1.328 . S
N25 C24 1.334 . S
N26 C22 1.331 . S
N26 C23 1.329 . S
H27 C21 0.930 . S
C28 O8 1.257 . S
C28 O29 1.244 . S
O29 C28 1.244 . S
O30 C6 1.257 1_455 S
O30 Zn9 2.019 . S
H31 C24 0.930 . S
H32 C11 0.930 . S
H33 C23 0.930 . S
Zn34 N38 2.020 1_545 S
Zn34 O42 2.019 . S
Zn34 N44 2.119 1_545 S
Zn34 O52 1.975 1_545 S
C35 N36 1.334 . S
C35 N39 1.336 . S
N36 C35 1.334 . S
N36 C37 1.334 . S
C37 N36 1.334 . S
C37 N38 1.336 . S
N38 Zn34 2.020 1_565 S
N38 C37 1.336 . S
N38 N39 1.354 . S
N39 C35 1.336 . S
N39 N38 1.354 . S
N39 Zn43 2.020 . S
C40 O41 1.244 . S
C40 O64 1.257 . S
O41 C40 1.244 . S
O42 Zn34 2.019 . S
O42 C62 1.257 . S
Zn43 N39 2.020 . S
Zn43 O50 1.975 . S
Zn43 N59 2.119 . S
Zn43 O64 2.019 . S
N44 Zn34 2.119 1_565 S
N44 C46 1.334 . S
N44 C47 1.328 1_565 S
C45 C46 1.391 . S
C45 N48 1.329 . S
C45 H66 0.930 . S
C46 N44 1.334 . S
C46 C45 1.391 . S
C46 H53 0.930 . S
C47 N44 1.328 1_545 S
C47 C49 1.392 1_545 S
C47 H54 0.930 . S
N48 C45 1.329 . S
N48 C49 1.331 . S
C49 C47 1.392 1_565 S
C49 N48 1.331 . S
O50 Zn43 1.975 . S
O50 C51 1.252 . S
C51 O50 1.252 . S
C51 O52 1.252 . S
O52 Zn34 1.975 1_565 S
O52 C51 1.252 . S
H53 C46 0.930 . S
H54 C47 0.930 . S
C55 C56 1.392 . S
C55 N59 1.328 . S
C55 H61 0.930 . S
C56 C55 1.392 . S
C56 N60 1.331 . S
C57 C58 1.391 . S
C57 N60 1.329 . S
C57 H67 0.930 1_565 S
C58 C57 1.391 . S
C58 N59 1.334 . S
C58 H65 0.930 . S
N59 Zn43 2.119 . S
N59 C55 1.328 . S
N59 C58 1.334 . S
N60 C56 1.331 . S
N60 C57 1.329 . S
H61 C55 0.930 . S
C62 O42 1.257 . S
C62 O63 1.244 . S
O63 C62 1.244 . S
O64 C40 1.257 . S
O64 Zn43 2.019 . S
H65 C58 0.930 . S
H66 C45 0.930 . S
H67 C57 0.930 1_545 S
Zn68 N72 2.020 . S
Zn68 O76 2.019 . S
Zn68 N78 2.119 . S
Zn68 O86 1.975 . S
C69 N70 1.334 . S
C69 N73 1.336 . S
N70 C69 1.334 . S
N70 C71 1.334 . S
C71 N70 1.334 . S
C71 N72 1.336 . S
N72 Zn68 2.020 . S
N72 C71 1.336 . S
N72 N73 1.354 . S
N73 C69 1.336 . S
N73 N72 1.354 . S
N73 Zn77 2.020 . S
C74 O75 1.244 . S
C74 O98 1.257 . S
O75 C74 1.244 . S
O76 Zn68 2.019 . S
O76 C96 1.257 . S
Zn77 N73 2.020 . S
Zn77 O84 1.975 . S
Zn77 N93 2.119 . S
Zn77 O98 2.019 . S
N78 Zn68 2.119 . S
N78 C80 1.334 . S
N78 C81 1.328 . S
C79 C80 1.391 . S
C79 N82 1.329 . S
C79 H100 0.930 . S
C80 N78 1.334 . S
C80 C79 1.391 . S
C80 H87 0.930 . S
C81 N78 1.328 . S
C81 C83 1.392 . S
C81 H88 0.930 . S
N82 C79 1.329 . S
N82 C83 1.331 . S
C83 C81 1.392 . S
C83 N82 1.331 . S
O84 Zn77 1.975 . S
O84 C85 1.252 . S
C85 O84 1.252 . S
C85 O86 1.252 . S
O86 Zn68 1.975 . S
O86 C85 1.252 . S
H87 C80 0.930 . S
H88 C81 0.930 . S
C89 C90 1.392 . S
C89 N93 1.328 . S
C89 H95 0.930 . S
C90 C89 1.392 . S
C90 N94 1.331 . S
C91 C92 1.391 . S
C91 N94 1.329 . S
C91 H101 0.930 . S
C92 C91 1.391 . S
C92 N93 1.334 . S
C92 H99 0.930 . S
N93 Zn77 2.119 . S
N93 C89 1.328 . S
N93 C92 1.334 . S
N94 C90 1.331 . S
N94 C91 1.329 . S
H95 C89 0.930 . S
C96 O76 1.257 . S
C96 O97 1.244 . S
O97 C96 1.244 . S
O98 C74 1.257 . S
O98 Zn77 2.019 . S
H99 C92 0.930 . S
H100 C79 0.930 . S
H101 C91 0.930 . S
Zn102 N106 2.020 . S
Zn102 O110 2.019 . S
Zn102 N112 2.119 . S
Zn102 O120 1.975 1_545 S
C103 N104 1.334 . S
C103 N107 1.336 . S
N104 C103 1.334 . S
N104 C105 1.334 . S
C105 N104 1.334 . S
C105 N106 1.336 . S
N106 Zn102 2.020 . S
N106 C105 1.336 . S
N106 N107 1.354 . S
N107 C103 1.336 . S
N107 N106 1.354 . S
N107 Zn111 2.020 . S
C108 O109 1.244 . S
C108 O132 1.257 . S
O109 C108 1.244 . S
O110 Zn102 2.019 . S
O110 C130 1.257 . S
Zn111 N107 2.020 . S
Zn111 O118 1.975 . S
Zn111 N127 2.119 . S
Zn111 O132 2.019 . S
N112 Zn102 2.119 . S
N112 C114 1.334 . S
N112 C115 1.328 . S
C113 C114 1.391 . S
C113 N116 1.329 . S
C113 H134 0.930 . S
C114 N112 1.334 . S
C114 C113 1.391 . S
C114 H121 0.930 . S
C115 N112 1.328 . S
C115 C117 1.392 . S
C115 H122 0.930 . S
N116 C113 1.329 . S
N116 C117 1.331 . S
C117 C115 1.392 . S
C117 N116 1.331 . S
O118 Zn111 1.975 . S
O118 C119 1.252 1_545 S
C119 O118 1.252 1_565 S
C119 O120 1.252 . S
O120 Zn102 1.975 1_565 S
O120 C119 1.252 . S
H121 C114 0.930 . S
H122 C115 0.930 . S
C123 C124 1.392 . S
C123 N127 1.328 . S
C123 H129 0.930 . S
C124 C123 1.392 . S
C124 N128 1.331 . S
C125 C126 1.391 . S
C125 N128 1.329 . S
C125 H135 0.930 . S
C126 C125 1.391 . S
C126 N127 1.334 . S
C126 H133 0.930 . S
N127 Zn111 2.119 . S
N127 C123 1.328 . S
N127 C126 1.334 . S
N128 C124 1.331 . S
N128 C125 1.329 . S
H129 C123 0.930 . S
C130 O110 1.257 . S
C130 O131 1.244 . S
O131 C130 1.244 . S
O132 C108 1.257 . S
O132 Zn111 2.019 . S
H133 C126 0.930 . S
H134 C113 0.930 . S
H135 C125 0.930 . S
Zn136 N140 2.020 . S
Zn136 O144 2.019 . S
Zn136 N146 2.119 . S
Zn136 O154 1.975 . S
C137 N138 1.334 . S
C137 N141 1.336 . S
N138 C137 1.334 . S
N138 C139 1.334 . S
C139 N138 1.334 . S
C139 N140 1.336 . S
N140 Zn136 2.020 . S
N140 C139 1.336 . S
N140 N141 1.354 . S
N141 C137 1.336 . S
N141 N140 1.354 . S
N141 Zn145 2.020 . S
C142 O143 1.244 . S
C142 O166 1.257 . S
O143 C142 1.244 . S
O144 Zn136 2.019 . S
O144 C164 1.257 1_455 S
Zn145 N141 2.020 . S
Zn145 O152 1.975 . S
Zn145 N161 2.119 . S
Zn145 O166 2.019 . S
N146 Zn136 2.119 . S
N146 C148 1.334 . S
N146 C149 1.328 . S
C147 C148 1.391 . S
C147 N150 1.329 . S
C147 H168 0.930 . S
C148 N146 1.334 . S
C148 C147 1.391 . S
C148 H155 0.930 . S
C149 N146 1.328 . S
C149 C151 1.392 . S
C149 H156 0.930 . S
N150 C147 1.329 . S
N150 C151 1.331 . S
C151 C149 1.392 . S
C151 N150 1.331 . S
O152 Zn145 1.975 . S
O152 C153 1.252 . S
C153 O152 1.252 . S
C153 O154 1.252 . S
O154 Zn136 1.975 . S
O154 C153 1.252 . S
H155 C148 0.930 . S
H156 C149 0.930 . S
C157 C158 1.392 . S
C157 N161 1.328 . S
C157 H163 0.930 . S
C158 C157 1.392 . S
C158 N162 1.331 . S
C159 C160 1.391 . S
C159 N162 1.329 . S
C159 H169 0.930 . S
C160 C159 1.391 . S
C160 N161 1.334 . S
C160 H167 0.930 . S
N161 Zn145 2.119 . S
N161 C157 1.328 . S
N161 C160 1.334 . S
N162 C158 1.331 . S
N162 C159 1.329 . S
H163 C157 0.930 . S
C164 O144 1.257 1_655 S
C164 O165 1.244 1_655 S
O165 C164 1.244 1_455 S
O166 C142 1.257 . S
O166 Zn145 2.019 . S
H167 C160 0.930 . S
H168 C147 0.930 . S
H169 C159 0.930 . S
Zn170 N174 2.020 . S
Zn170 O178 2.019 . S
Zn170 N180 2.119 . S
Zn170 O188 1.975 . S
C171 N172 1.334 . S
C171 N175 1.336 . S
N172 C171 1.334 . S
N172 C173 1.334 . S
C173 N172 1.334 . S
C173 N174 1.336 . S
N174 Zn170 2.020 . S
N174 C173 1.336 . S
N174 N175 1.354 . S
N175 C171 1.336 . S
N175 N174 1.354 . S
N175 Zn179 2.020 . S
C176 O177 1.244 . S
C176 O200 1.257 . S
O177 C176 1.244 . S
O178 Zn170 2.019 . S
O178 C198 1.257 . S
Zn179 N175 2.020 . S
Zn179 O186 1.975 . S
Zn179 N195 2.119 . S
Zn179 O200 2.019 . S
N180 Zn170 2.119 . S
N180 C182 1.334 . S
N180 C183 1.328 . S
C181 C182 1.391 . S
C181 N184 1.329 . S
C181 H202 0.930 . S
C182 N180 1.334 . S
C182 C181 1.391 . S
C182 H189 0.930 . S
C183 N180 1.328 . S
C183 C185 1.392 . S
C183 H190 0.930 . S
N184 C181 1.329 . S
N184 C185 1.331 . S
C185 C183 1.392 . S
C185 N184 1.331 . S
O186 Zn179 1.975 . S
O186 C187 1.252 . S
C187 O186 1.252 . S
C187 O188 1.252 . S
O188 Zn170 1.975 . S
O188 C187 1.252 . S
H189 C182 0.930 . S
H190 C183 0.930 . S
C191 C192 1.392 . S
C191 N195 1.328 . S
C191 H197 0.930 . S
C192 C191 1.392 . S
C192 N196 1.331 . S
C193 C194 1.391 . S
C193 N196 1.329 . S
C193 H203 0.930 . S
C194 C193 1.391 . S
C194 N195 1.334 . S
C194 H201 0.930 . S
N195 Zn179 2.119 . S
N195 C191 1.328 . S
N195 C194 1.334 . S
N196 C192 1.331 . S
N196 C193 1.329 . S
H197 C191 0.930 . S
C198 O178 1.257 . S
C198 O199 1.244 . S
O199 C198 1.244 . S
O200 C176 1.257 . S
O200 Zn179 2.019 . S
H201 C194 0.930 . S
H202 C181 0.930 . S
H203 C193 0.930 . S
Zn204 N208 2.020 . S
Zn204 O212 2.019 . S
Zn204 N214 2.119 . S
Zn204 O222 1.975 . S
C205 N206 1.334 . S
C205 N209 1.336 . S
N206 C205 1.334 . S
N206 C207 1.334 . S
C207 N206 1.334 . S
C207 N208 1.336 . S
N208 Zn204 2.020 . S
N208 C207 1.336 . S
N208 N209 1.354 . S
N209 C205 1.336 . S
N209 N208 1.354 . S
N209 Zn213 2.020 . S
C210 O211 1.244 . S
C210 O234 1.257 . S
O211 C210 1.244 . S
O212 Zn204 2.019 . S
O212 C232 1.257 . S
Zn213 N209 2.020 . S
Zn213 O220 1.975 . S
Zn213 N229 2.119 . S
Zn213 O234 2.019 . S
N214 Zn204 2.119 . S
N214 C216 1.334 . S
N214 C217 1.328 . S
C215 C216 1.391 . S
C215 N218 1.329 . S
C215 H236 0.930 . S
C216 N214 1.334 . S
C216 C215 1.391 . S
C216 H223 0.930 . S
C217 N214 1.328 . S
C217 C219 1.392 . S
C217 H224 0.930 . S
N218 C215 1.329 . S
N218 C219 1.331 . S
C219 C217 1.392 . S
C219 N218 1.331 . S
O220 Zn213 1.975 . S
O220 C221 1.252 . S
C221 O220 1.252 . S
C221 O222 1.252 . S
O222 Zn204 1.975 . S
O222 C221 1.252 . S
H223 C216 0.930 . S
H224 C217 0.930 . S
C225 C226 1.392 . S
C225 N229 1.328 . S
C225 H231 0.930 . S
C226 C225 1.392 . S
C226 N230 1.331 . S
C227 C228 1.391 . S
C227 N230 1.329 . S
C227 H237 0.930 . S
C228 C227 1.391 . S
C228 N229 1.334 . S
C228 H235 0.930 . S
N229 Zn213 2.119 . S
N229 C225 1.328 . S
N229 C228 1.334 . S
N230 C226 1.331 . S
N230 C227 1.329 . S
H231 C225 0.930 . S
C232 O212 1.257 . S
C232 O233 1.244 . S
O233 C232 1.244 . S
O234 C210 1.257 . S
O234 Zn213 2.019 . S
H235 C228 0.930 . S
H236 C215 0.930 . S
H237 C227 0.930 . S
Zn238 N242 2.020 . S
Zn238 O246 2.019 . S
Zn238 N248 2.119 . S
Zn238 O256 1.975 . S
C239 N240 1.334 . S
C239 N243 1.336 . S
N240 C239 1.334 . S
N240 C241 1.334 . S
C241 N240 1.334 . S
C241 N242 1.336 . S
N242 Zn238 2.020 . S
N242 C241 1.336 . S
N242 N243 1.354 . S
N243 C239 1.336 . S
N243 N242 1.354 . S
N243 Zn247 2.020 . S
C244 O245 1.244 . S
C244 O268 1.257 . S
O245 C244 1.244 . S
O246 Zn238 2.019 . S
O246 C266 1.257 . S
Zn247 N243 2.020 . S
Zn247 O254 1.975 . S
Zn247 N263 2.119 . S
Zn247 O268 2.019 1_545 S
N248 Zn238 2.119 . S
N248 C250 1.334 . S
N248 C251 1.328 . S
C249 C250 1.391 . S
C249 N252 1.329 . S
C249 H270 0.930 1_545 S
C250 N248 1.334 . S
C250 C249 1.391 . S
C250 H257 0.930 . S
C251 N248 1.328 . S
C251 C253 1.392 . S
C251 H258 0.930 . S
N252 C249 1.329 . S
N252 C253 1.331 . S
C253 C251 1.392 . S
C253 N252 1.331 . S
O254 Zn247 1.975 . S
O254 C255 1.252 . S
C255 O254 1.252 . S
C255 O256 1.252 . S
O256 Zn238 1.975 . S
O256 C255 1.252 . S
H257 C250 0.930 . S
H258 C251 0.930 . S
C259 C260 1.392 . S
C259 N263 1.328 . S
C259 H265 0.930 1_545 S
C260 C259 1.392 . S
C260 N264 1.331 . S
C261 C262 1.391 . S
C261 N264 1.329 . S
C261 H271 0.930 . S
C262 C261 1.391 . S
C262 N263 1.334 . S
C262 H269 0.930 . S
N263 Zn247 2.119 . S
N263 C259 1.328 . S
N263 C262 1.334 . S
N264 C260 1.331 . S
N264 C261 1.329 . S
H265 C259 0.930 1_565 S
C266 O246 1.257 . S
C266 O267 1.244 . S
O267 C266 1.244 . S
O268 C244 1.257 . S
O268 Zn247 2.019 1_565 S
H269 C262 0.930 . S
H270 C249 0.930 1_565 S
H271 C261 0.930 . S
Zn272 N276 2.020 . S
Zn272 O280 2.019 . S
Zn272 N282 2.119 . S
Zn272 O290 1.975 . S
C273 N274 1.334 . S
C273 N277 1.336 . S
N274 C273 1.334 . S
N274 C275 1.334 . S
C275 N274 1.334 . S
C275 N276 1.336 . S
N276 Zn272 2.020 . S
N276 C275 1.336 . S
N276 N277 1.354 . S
N277 C273 1.336 . S
N277 N276 1.354 . S
N277 Zn281 2.020 . S
C278 O279 1.244 . S
C278 O302 1.257 . S
O279 C278 1.244 . S
O280 Zn272 2.019 . S
O280 C300 1.257 1_655 S
Zn281 N277 2.020 . S
Zn281 O288 1.975 . S
Zn281 N297 2.119 . S
Zn281 O302 2.019 . S
N282 Zn272 2.119 . S
N282 C284 1.334 . S
N282 C285 1.328 . S
C283 C284 1.391 . S
C283 N286 1.329 . S
C283 H304 0.930 . S
C284 N282 1.334 . S
C284 C283 1.391 . S
C284 H291 0.930 . S
C285 N282 1.328 . S
C285 C287 1.392 . S
C285 H292 0.930 . S
N286 C283 1.329 . S
N286 C287 1.331 . S
C287 C285 1.392 . S
C287 N286 1.331 . S
O288 Zn281 1.975 . S
O288 C289 1.252 . S
C289 O288 1.252 . S
C289 O290 1.252 . S
O290 Zn272 1.975 . S
O290 C289 1.252 . S
H291 C284 0.930 . S
H292 C285 0.930 . S
C293 C294 1.392 . S
C293 N297 1.328 . S
C293 H299 0.930 . S
C294 C293 1.392 . S
C294 N298 1.331 . S
C295 C296 1.391 . S
C295 N298 1.329 . S
C295 H305 0.930 . S
C296 C295 1.391 . S
C296 N297 1.334 . S
C296 H303 0.930 . S
N297 Zn281 2.119 . S
N297 C293 1.328 . S
N297 C296 1.334 . S
N298 C294 1.331 . S
N298 C295 1.329 . S
H299 C293 0.930 . S
C300 O280 1.257 1_455 S
C300 O301 1.244 1_455 S
O301 C300 1.244 1_655 S
O302 C278 1.257 . S
O302 Zn281 2.019 . S
H303 C296 0.930 . S
H304 C283 0.930 . S
H305 C295 0.930 . S
Zn306 N310 2.020 . S
Zn306 O314 2.019 . S
Zn306 N316 2.119 . S
Zn306 O324 1.975 1_545 S
C307 N308 1.334 . S
C307 N311 1.336 . S
N308 C307 1.334 . S
N308 C309 1.334 . S
C309 N308 1.334 . S
C309 N310 1.336 . S
N310 Zn306 2.020 . S
N310 C309 1.336 . S
N310 N311 1.354 . S
N311 C307 1.336 . S
N311 N310 1.354 . S
N311 Zn315 2.020 . S
C312 O313 1.246 . S
C312 O336 1.256 1_545 S
O313 C312 1.246 . S
O314 Zn306 2.019 . S
O314 C334 1.257 . S
Zn315 N311 2.020 . S
Zn315 O322 1.975 1_545 S
Zn315 N331 2.119 . S
Zn315 O336 2.019 1_545 S
N316 Zn306 2.119 . S
N316 C318 1.334 . S
N316 C319 1.328 . S
C317 C318 1.391 . S
C317 N320 1.329 . S
C317 H338 0.930 1_545 S
C318 N316 1.334 . S
C318 C317 1.391 . S
C318 H325 0.930 . S
C319 N316 1.328 . S
C319 C321 1.392 . S
C319 H326 0.930 . S
N320 C317 1.329 . S
N320 C321 1.331 . S
C321 C319 1.392 . S
C321 N320 1.331 . S
O322 Zn315 1.975 1_565 S
O322 C323 1.252 . S
C323 O322 1.252 . S
C323 O324 1.252 . S
O324 Zn306 1.975 1_565 S
O324 C323 1.252 . S
H325 C318 0.930 . S
H326 C319 0.930 . S
C327 C328 1.392 . S
C327 N331 1.328 . S
C327 H333 0.930 . S
C328 C327 1.392 . S
C328 N332 1.331 . S
C329 C330 1.391 . S
C329 N332 1.329 . S
C329 H339 0.930 . S
C330 C329 1.391 . S
C330 N331 1.334 . S
C330 H337 0.930 . S
N331 Zn315 2.119 . S
N331 C327 1.328 . S
N331 C330 1.334 . S
N332 C328 1.331 . S
N332 C329 1.329 . S
H333 C327 0.930 . S
C334 O314 1.257 . S
C334 O335 1.244 . S
O335 C334 1.244 . S
O336 C312 1.256 1_565 S
O336 Zn315 2.019 1_565 S
H337 C330 0.930 . S
H338 C317 0.930 1_565 S
H339 C329 0.930 . S
Zn340 N344 2.020 . S
Zn340 O348 2.019 . S
Zn340 N350 2.119 . S
Zn340 O358 1.975 . S
C341 N342 1.334 . S
C341 N345 1.336 . S
N342 C341 1.334 . S
N342 C343 1.334 . S
C343 N342 1.334 . S
C343 N344 1.336 . S
N344 Zn340 2.020 . S
N344 C343 1.336 . S
N344 N345 1.354 . S
N345 C341 1.336 . S
N345 N344 1.354 . S
N345 Zn349 2.020 . S
C346 O347 1.244 . S
C346 O370 1.257 . S
O347 C346 1.244 . S
O348 Zn340 2.019 . S
O348 C368 1.257 . S
Zn349 N345 2.020 . S
Zn349 O356 1.975 . S
Zn349 N365 2.119 . S
Zn349 O370 2.019 . S
N350 Zn340 2.119 . S
N350 C352 1.334 . S
N350 C353 1.328 . S
C351 C352 1.391 . S
C351 N354 1.329 . S
C351 H372 0.930 . S
C352 N350 1.334 . S
C352 C351 1.391 . S
C352 H359 0.930 . S
C353 N350 1.328 . S
C353 C355 1.392 . S
C353 H360 0.930 . S
N354 C351 1.329 . S
N354 C355 1.331 . S
C355 C353 1.392 . S
C355 N354 1.331 . S
O356 Zn349 1.975 . S
O356 C357 1.252 . S
C357 O356 1.252 . S
C357 O358 1.252 . S
O358 Zn340 1.975 . S
O358 C357 1.252 . S
H359 C352 0.930 . S
H360 C353 0.930 . S
C361 C362 1.392 . S
C361 N365 1.328 . S
C361 H367 0.930 . S
C362 C361 1.392 . S
C362 N366 1.331 . S
C363 C364 1.391 . S
C363 N366 1.329 . S
C363 H373 0.930 . S
C364 C363 1.391 . S
C364 N365 1.334 . S
C364 H371 0.930 . S
N365 Zn349 2.119 . S
N365 C361 1.328 . S
N365 C364 1.334 . S
N366 C362 1.331 . S
N366 C363 1.329 . S
H367 C361 0.930 . S
C368 O348 1.257 . S
C368 O369 1.244 . S
O369 C368 1.244 . S
O370 C346 1.257 . S
O370 Zn349 2.019 . S
H371 C364 0.930 . S
H372 C351 0.930 . S
H373 C363 0.930 . S
Zn374 N378 2.020 . S
Zn374 O382 2.019 . S
Zn374 N384 2.119 . S
Zn374 O392 1.975 1_565 S
C375 N376 1.334 . S
C375 N379 1.336 . S
N376 C375 1.334 . S
N376 C377 1.334 . S
C377 N376 1.334 . S
C377 N378 1.336 . S
N378 Zn374 2.020 . S
N378 C377 1.336 . S
N378 N379 1.354 . S
N379 C375 1.336 . S
N379 N378 1.354 . S
N379 Zn383 2.020 . S
C380 O381 1.244 . S
C380 O404 1.257 . S
O381 C380 1.244 . S
O382 Zn374 2.019 . S
O382 C402 1.257 . S
Zn383 N379 2.020 . S
Zn383 O390 1.975 . S
Zn383 N399 2.119 . S
Zn383 O404 2.019 . S
N384 Zn374 2.119 . S
N384 C386 1.334 . S
N384 C387 1.328 . S
C385 C386 1.391 . S
C385 N388 1.329 . S
C385 H406 0.930 . S
C386 N384 1.334 . S
C386 C385 1.391 . S
C386 H393 0.930 . S
C387 N384 1.328 . S
C387 C389 1.392 . S
C387 H394 0.930 . S
N388 C385 1.329 . S
N388 C389 1.331 . S
C389 C387 1.392 . S
C389 N388 1.331 . S
O390 Zn383 1.975 . S
O390 C391 1.252 1_565 S
C391 O390 1.252 1_545 S
C391 O392 1.252 . S
O392 Zn374 1.975 1_545 S
O392 C391 1.252 . S
H393 C386 0.930 . S
H394 C387 0.930 . S
C395 C396 1.392 . S
C395 N399 1.328 . S
C395 H401 0.930 . S
C396 C395 1.392 . S
C396 N400 1.331 . S
C397 C398 1.391 . S
C397 N400 1.329 . S
C397 H407 0.930 . S
C398 C397 1.391 . S
C398 N399 1.334 . S
C398 H405 0.930 . S
N399 Zn383 2.119 . S
N399 C395 1.328 . S
N399 C398 1.334 . S
N400 C396 1.331 . S
N400 C397 1.329 . S
H401 C395 0.930 . S
C402 O382 1.257 . S
C402 O403 1.244 . S
O403 C402 1.244 . S
O404 C380 1.257 . S
O404 Zn383 2.019 . S
H405 C398 0.930 . S
H406 C385 0.930 . S
H407 C397 0.930 . S
Zn408 N412 2.020 . S
Zn408 O416 2.019 . S
Zn408 N418 2.119 . S
Zn408 O426 1.975 . S
C409 N410 1.334 . S
C409 N413 1.336 . S
N410 C409 1.334 . S
N410 C411 1.334 . S
C411 N410 1.334 . S
C411 N412 1.336 . S
N412 Zn408 2.020 . S
N412 C411 1.336 . S
N412 N413 1.354 . S
N413 C409 1.336 . S
N413 N412 1.354 . S
N413 Zn417 2.020 . S
C414 O415 1.244 . S
C414 O438 1.257 . S
O415 C414 1.244 . S
O416 Zn408 2.019 . S
O416 C436 1.257 1_655 S
Zn417 N413 2.020 . S
Zn417 O424 1.975 . S
Zn417 N433 2.119 . S
Zn417 O438 2.019 . S
N418 Zn408 2.119 . S
N418 C420 1.334 . S
N418 C421 1.328 . S
C419 C420 1.391 . S
C419 N422 1.329 . S
C419 H440 0.930 . S
C420 N418 1.334 . S
C420 C419 1.391 . S
C420 H427 0.930 . S
C421 N418 1.328 . S
C421 C423 1.392 . S
C421 H428 0.930 . S
N422 C419 1.329 . S
N422 C423 1.331 . S
C423 C421 1.392 . S
C423 N422 1.331 . S
O424 Zn417 1.975 . S
O424 C425 1.252 . S
C425 O424 1.252 . S
C425 O426 1.252 . S
O426 Zn408 1.975 . S
O426 C425 1.252 . S
H427 C420 0.930 . S
H428 C421 0.930 . S
C429 C430 1.392 . S
C429 N433 1.328 . S
C429 H435 0.930 . S
C430 C429 1.392 . S
C430 N434 1.331 . S
C431 C432 1.391 . S
C431 N434 1.329 . S
C431 H441 0.930 . S
C432 C431 1.391 . S
C432 N433 1.334 . S
C432 H439 0.930 . S
N433 Zn417 2.119 . S
N433 C429 1.328 . S
N433 C432 1.334 . S
N434 C430 1.331 . S
N434 C431 1.329 . S
H435 C429 0.930 . S
C436 O416 1.257 1_455 S
C436 O437 1.244 1_455 S
O437 C436 1.244 1_655 S
O438 C414 1.257 . S
O438 Zn417 2.019 . S
H439 C432 0.930 . S
H440 C419 0.930 . S
H441 C431 0.930 . S
Zn442 N446 2.020 . S
Zn442 O450 2.019 . S
Zn442 N452 2.119 . S
Zn442 O460 1.975 1_545 S
C443 N444 1.334 . S
C443 N447 1.336 . S
N444 C443 1.334 . S
N444 C445 1.334 . S
C445 N444 1.334 . S
C445 N446 1.336 . S
N446 Zn442 2.020 . S
N446 C445 1.336 . S
N446 N447 1.354 . S
N447 C443 1.336 . S
N447 N446 1.354 . S
N447 Zn451 2.020 . S
C448 O449 1.244 . S
C448 O472 1.257 . S
O449 C448 1.244 . S
O450 Zn442 2.019 . S
O450 C470 1.257 . S
Zn451 N447 2.020 . S
Zn451 O458 1.975 . S
Zn451 N467 2.119 . S
Zn451 O472 2.019 . S
N452 Zn442 2.119 . S
N452 C454 1.334 . S
N452 C455 1.328 . S
C453 C454 1.391 . S
C453 N456 1.329 . S
C453 H474 0.930 . S
C454 N452 1.334 . S
C454 C453 1.391 . S
C454 H461 0.930 . S
C455 N452 1.328 . S
C455 C457 1.392 . S
C455 H462 0.930 . S
N456 C453 1.329 . S
N456 C457 1.331 . S
C457 C455 1.392 . S
C457 N456 1.331 . S
O458 Zn451 1.975 . S
O458 C459 1.252 1_545 S
C459 O458 1.252 1_565 S
C459 O460 1.252 . S
O460 Zn442 1.975 1_565 S
O460 C459 1.252 . S
H461 C454 0.930 . S
H462 C455 0.930 . S
C463 C464 1.392 . S
C463 N467 1.328 . S
C463 H469 0.930 . S
C464 C463 1.392 . S
C464 N468 1.331 . S
C465 C466 1.391 . S
C465 N468 1.329 . S
C465 H475 0.930 . S
C466 C465 1.391 . S
C466 N467 1.334 . S
C466 H473 0.930 . S
N467 Zn451 2.119 . S
N467 C463 1.328 . S
N467 C466 1.334 . S
N468 C464 1.331 . S
N468 C465 1.329 . S
H469 C463 0.930 . S
C470 O450 1.257 . S
C470 O471 1.244 . S
O471 C470 1.244 . S
O472 C448 1.257 . S
O472 Zn451 2.019 . S
H473 C466 0.930 . S
H474 C453 0.930 . S
H475 C465 0.930 . S
Zn476 N480 2.020 . S
Zn476 O484 2.019 . S
Zn476 N486 2.119 . S
Zn476 O494 1.975 . S
C477 N478 1.334 . S
C477 N481 1.336 . S
N478 C477 1.334 . S
N478 C479 1.334 . S
C479 N478 1.334 . S
C479 N480 1.336 . S
N480 Zn476 2.020 . S
N480 C479 1.336 . S
N480 N481 1.354 . S
N481 C477 1.336 . S
N481 N480 1.354 . S
N481 Zn485 2.020 . S
C482 O483 1.244 . S
C482 O506 1.257 . S
O483 C482 1.244 . S
O484 Zn476 2.019 . S
O484 C504 1.257 . S
Zn485 N481 2.020 . S
Zn485 O492 1.975 . S
Zn485 N501 2.119 . S
Zn485 O506 2.019 . S
N486 Zn476 2.119 . S
N486 C488 1.334 . S
N486 C489 1.328 . S
C487 C488 1.391 . S
C487 N490 1.329 . S
C487 H508 0.930 . S
C488 N486 1.334 . S
C488 C487 1.391 . S
C488 H495 0.930 . S
C489 N486 1.328 . S
C489 C491 1.392 . S
C489 H496 0.930 . S
N490 C487 1.329 . S
N490 C491 1.331 . S
C491 C489 1.392 . S
C491 N490 1.331 . S
O492 Zn485 1.975 . S
O492 C493 1.252 . S
C493 O492 1.252 . S
C493 O494 1.252 . S
O494 Zn476 1.975 . S
O494 C493 1.252 . S
H495 C488 0.930 . S
H496 C489 0.930 . S
C497 C498 1.392 . S
C497 N501 1.328 . S
C497 H503 0.930 . S
C498 C497 1.392 . S
C498 N502 1.331 . S
C499 C500 1.391 . S
C499 N502 1.329 . S
C499 H509 0.930 . S
C500 C499 1.391 . S
C500 N501 1.334 . S
C500 H507 0.930 . S
N501 Zn485 2.119 . S
N501 C497 1.328 . S
N501 C500 1.334 . S
N502 C498 1.331 . S
N502 C499 1.329 . S
H503 C497 0.930 . S
C504 O484 1.257 . S
C504 O505 1.244 . S
O505 C504 1.244 . S
O506 C482 1.257 . S
O506 Zn485 2.019 . S
H507 C500 0.930 . S
H508 C487 0.930 . S
H509 C499 0.930 . S
Zn510 N514 2.020 . S
Zn510 O518 2.019 . S
Zn510 N520 2.119 . S
Zn510 O528 1.975 . S
C511 N512 1.334 . S
C511 N515 1.336 . S
N512 C511 1.334 . S
N512 C513 1.334 . S
C513 N512 1.334 . S
C513 N514 1.336 . S
N514 Zn510 2.020 . S
N514 C513 1.336 . S
N514 N515 1.354 . S
N515 C511 1.336 . S
N515 N514 1.354 . S
N515 Zn519 2.020 1_565 S
C516 O517 1.244 . S
C516 O540 1.257 . S
O517 C516 1.244 . S
O518 Zn510 2.019 . S
O518 C538 1.257 . S
Zn519 N515 2.020 1_545 S
Zn519 O526 1.975 1_545 S
Zn519 N535 2.119 1_545 S
Zn519 O540 2.019 . S
N520 Zn510 2.119 . S
N520 C522 1.334 . S
N520 C523 1.328 . S
C521 C522 1.391 . S
C521 N524 1.329 . S
C521 H542 0.930 1_565 S
C522 N520 1.334 . S
C522 C521 1.391 . S
C522 H529 0.930 . S
C523 N520 1.328 . S
C523 C525 1.392 . S
C523 H530 0.930 . S
N524 C521 1.329 . S
N524 C525 1.331 . S
C525 C523 1.392 . S
C525 N524 1.331 . S
O526 Zn519 1.975 1_565 S
O526 C527 1.252 . S
C527 O526 1.252 . S
C527 O528 1.252 . S
O528 Zn510 1.975 . S
O528 C527 1.252 . S
H529 C522 0.930 . S
H530 C523 0.930 . S
C531 C532 1.392 1_545 S
C531 N535 1.328 1_545 S
C531 H537 0.930 . S
C532 C531 1.392 1_565 S
C532 N536 1.331 . S
C533 C534 1.391 . S
C533 N536 1.329 . S
C533 H543 0.930 . S
C534 C533 1.391 . S
C534 N535 1.334 . S
C534 H541 0.930 . S
N535 Zn519 2.119 1_565 S
N535 C531 1.328 1_565 S
N535 C534 1.334 . S
N536 C532 1.331 . S
N536 C533 1.329 . S
H537 C531 0.930 . S
C538 O518 1.257 . S
C538 O539 1.244 . S
O539 C538 1.244 . S
O540 C516 1.257 . S
O540 Zn519 2.019 . S
H541 C534 0.930 . S
H542 C521 0.930 1_545 S
H543 C533 0.930 . S
C544 C545 1.369 . S
C544 C546 1.419 1_455 S
C544 H548 0.930 . S
C545 C544 1.369 . S
C545 C554 1.429 . S
C546 C544 1.419 1_655 S
C546 C547 1.363 . S
C546 H549 0.929 . S
C547 C546 1.363 . S
C547 C553 1.428 . S
H548 C544 0.930 . S
H549 C546 0.929 . S
S550 N551 1.613 1_655 S
S550 N552 1.610 . S
N551 S550 1.613 1_455 S
N551 C554 1.350 . S
N552 S550 1.610 . S
N552 C553 1.351 . S
C553 C547 1.428 . S
C553 N552 1.351 . S
C553 C554 1.434 1_655 S
C554 C545 1.429 . S
C554 N551 1.350 . S
C554 C553 1.434 1_455 S
C555 C556 1.369 . S
C555 C557 1.419 1_655 S
C555 H559 0.930 . S
C556 C555 1.369 . S
C556 C565 1.429 . S
C557 C555 1.419 1_455 S
C557 C558 1.363 . S
C557 H560 0.929 . S
C558 C557 1.363 . S
C558 C564 1.428 . S
H559 C555 0.930 . S
H560 C557 0.929 . S
S561 N562 1.613 . S
S561 N563 1.610 1_655 S
N562 S561 1.613 . S
N562 C565 1.350 . S
N563 S561 1.610 1_455 S
N563 C564 1.351 . S
C564 C558 1.428 . S
C564 N563 1.351 . S
C564 C565 1.434 1_455 S
C565 C556 1.429 . S
C565 N562 1.350 . S
C565 C564 1.434 1_655 S
C566 C567 1.369 . S
C566 C568 1.419 . S
C566 H570 0.930 . S
C567 C566 1.369 . S
C567 C576 1.429 . S
C568 C566 1.419 . S
C568 C569 1.363 . S
C568 H571 0.929 . S
C569 C568 1.363 . S
C569 C575 1.428 . S
H570 C566 0.930 . S
H571 C568 0.929 . S
S572 N573 1.613 . S
S572 N574 1.610 . S
N573 S572 1.613 . S
N573 C576 1.350 . S
N574 S572 1.610 . S
N574 C575 1.351 . S
C575 C569 1.428 . S
C575 N574 1.351 . S
C575 C576 1.434 . S
C576 C567 1.429 . S
C576 N573 1.350 . S
C576 C575 1.434 . S
C577 C578 1.369 . S
C577 C579 1.419 . S
C577 H581 0.930 . S
C578 C577 1.369 . S
C578 C587 1.429 . S
C579 C577 1.419 . S
C579 C580 1.363 . S
C579 H582 0.929 . S
C580 C579 1.363 . S
C580 C586 1.428 . S
H581 C577 0.930 . S
H582 C579 0.929 . S
S583 N584 1.613 . S
S583 N585 1.610 . S
N584 S583 1.613 . S
N584 C587 1.350 . S
N585 S583 1.610 . S
N585 C586 1.351 . S
C586 C580 1.428 . S
C586 N585 1.351 . S
C586 C587 1.434 . S
C587 C578 1.429 . S
C587 N584 1.350 . S
C587 C586 1.434 . S
C588 C589 1.369 . S
C588 C590 1.419 1_655 S
C588 H592 0.930 . S
C589 C588 1.369 . S
C589 C598 1.429 . S
C590 C588 1.419 1_455 S
C590 C591 1.363 . S
C590 H593 0.929 . S
C591 C590 1.363 . S
C591 C597 1.428 1_455 S
H592 C588 0.930 . S
H593 C590 0.929 . S
S594 N595 1.613 . S
S594 N596 1.617 . S
N595 S594 1.613 . S
N595 C598 1.350 . S
N596 S594 1.617 . S
N596 C597 1.351 . S
C597 C591 1.428 1_655 S
C597 N596 1.351 . S
C597 C598 1.434 . S
C598 C589 1.429 . S
C598 N595 1.350 . S
C598 C597 1.434 . S
C599 C600 1.369 . S
C599 C601 1.419 . S
C599 H603 0.930 . S
C600 C599 1.369 . S
C600 C609 1.429 . S
C601 C599 1.419 . S
C601 C602 1.363 1_455 S
C601 H604 0.929 1_455 S
C602 C601 1.363 1_655 S
C602 C608 1.428 . S
H603 C599 0.930 . S
H604 C601 0.929 1_655 S
S605 N606 1.613 . S
S605 N607 1.610 1_455 S
N606 S605 1.613 . S
N606 C609 1.350 . S
N607 S605 1.610 1_655 S
N607 C608 1.351 . S
C608 C602 1.428 . S
C608 N607 1.351 . S
C608 C609 1.434 1_655 S
C609 C600 1.429 . S
C609 N606 1.350 . S
C609 C608 1.434 1_455 S
C610 C611 1.369 . S
C610 C612 1.419 . S
C610 H614 0.930 . S
C611 C610 1.369 . S
C611 C620 1.429 . S
C612 C610 1.419 . S
C612 C613 1.363 . S
C612 H615 0.929 . S
C613 C612 1.363 . S
C613 C619 1.428 . S
H614 C610 0.930 . S
H615 C612 0.929 . S
S616 N617 1.613 . S
S616 N618 1.610 . S
N617 S616 1.613 . S
N617 C620 1.350 . S
N618 S616 1.610 . S
N618 C619 1.351 . S
C619 C613 1.428 . S
C619 N618 1.351 . S
C619 C620 1.434 . S
C620 C611 1.429 . S
C620 N617 1.350 . S
C620 C619 1.434 . S
C621 C622 1.369 . S
C621 C623 1.419 . S
C621 H625 0.930 . S
C622 C621 1.369 . S
C622 C631 1.429 . S
C623 C621 1.419 . S
C623 C624 1.363 . S
C623 H626 0.929 . S
C624 C623 1.363 . S
C624 C630 1.428 . S
H625 C621 0.930 . S
H626 C623 0.929 . S
S627 N628 1.613 . S
S627 N629 1.610 . S
N628 S627 1.613 . S
N628 C631 1.350 . S
N629 S627 1.610 . S
N629 C630 1.351 . S
C630 C624 1.428 . S
C630 N629 1.351 . S
C630 C631 1.434 . S
C631 C622 1.429 . S
C631 N628 1.350 . S
C631 C630 1.434 . S
C632 C633 1.369 . S
C632 C634 1.419 . S
C632 H636 0.930 . S
C633 C632 1.369 . S
C633 C642 1.429 . S
C634 C632 1.419 . S
C634 C635 1.363 . S
C634 H637 0.929 . S
C635 C634 1.363 . S
C635 C641 1.428 . S
H636 C632 0.930 . S
H637 C634 0.929 . S
S638 N639 1.613 . S
S638 N640 1.610 . S
N639 S638 1.613 . S
N639 C642 1.350 . S
N640 S638 1.610 . S
N640 C641 1.351 . S
C641 C635 1.428 . S
C641 N640 1.351 . S
C641 C642 1.434 . S
C642 C633 1.429 . S
C642 N639 1.350 . S
C642 C641 1.434 . S
C643 C644 1.365 1_455 S
C643 C645 1.419 . S
C643 H647 0.930 . S
C644 C643 1.365 1_655 S
C644 C653 1.427 1_655 S
C645 C643 1.419 . S
C645 C646 1.363 . S
C645 H648 0.929 . S
C646 C645 1.363 . S
C646 C652 1.428 . S
H647 C643 0.930 . S
H648 C645 0.929 . S
S649 N650 1.613 1_455 S
S649 N651 1.610 . S
N650 S649 1.613 1_655 S
N650 C653 1.350 1_655 S
N651 S649 1.610 . S
N651 C652 1.351 . S
C652 C646 1.428 . S
C652 N651 1.351 . S
C652 C653 1.434 . S
C653 C644 1.427 1_455 S
C653 N650 1.350 1_455 S
C653 C652 1.434 . S
C654 C655 1.369 . S
C654 C656 1.419 . S
C654 H658 0.930 . S
C655 C654 1.369 . S
C655 C664 1.429 . S
C656 C654 1.419 . S
C656 C657 1.363 . S
C656 H659 0.929 . S
C657 C656 1.363 . S
C657 C663 1.428 . S
H658 C654 0.930 . S
H659 C656 0.929 . S
S660 N661 1.613 . S
S660 N662 1.610 . S
N661 S660 1.613 . S
N661 C664 1.350 . S
N662 S660 1.610 . S
N662 C663 1.351 . S
C663 C657 1.428 . S
C663 N662 1.351 . S
C663 C664 1.434 . S
C664 C655 1.429 . S
C664 N661 1.350 . S
C664 C663 1.434 . S
C665 C666 1.369 . S
C665 C667 1.419 . S
C665 H669 0.930 . S
C666 C665 1.369 . S
C666 C675 1.429 1_545 S
C667 C665 1.419 . S
C667 C668 1.363 1_545 S
C667 H670 0.929 . S
C668 C667 1.363 1_565 S
C668 C674 1.428 . S
H669 C665 0.930 . S
H670 C667 0.929 . S
S671 N672 1.613 . S
S671 N673 1.610 . S
N672 S671 1.613 . S
N672 C675 1.350 . S
N673 S671 1.610 . S
N673 C674 1.351 . S
C674 C668 1.428 . S
C674 N673 1.351 . S
C674 C675 1.434 . S
C675 C666 1.429 1_565 S
C675 N672 1.350 . S
C675 C674 1.434 . S
C676 C677 1.369 . S
C676 C678 1.419 . S
C676 H680 0.930 . S
C677 C676 1.369 . S
C677 C686 1.429 . S
C678 C676 1.419 . S
C678 C679 1.363 . S
C678 H681 0.929 . S
C679 C678 1.363 . S
C679 C685 1.428 . S
H680 C676 0.930 . S
H681 C678 0.929 . S
S682 N683 1.613 . S
S682 N684 1.610 . S
N683 S682 1.613 . S
N683 C686 1.350 . S
N684 S682 1.610 . S
N684 C685 1.351 . S
C685 C679 1.428 . S
C685 N684 1.351 . S
C685 C686 1.434 . S
C686 C677 1.429 . S
C686 N683 1.350 . S
C686 C685 1.434 . S
C687 C688 1.369 . S
C687 C689 1.419 1_565 S
C687 H691 0.930 . S
C688 C687 1.369 . S
C688 C697 1.429 . S
C689 C687 1.419 1_545 S
C689 C690 1.363 . S
C689 H692 0.929 . S
C690 C689 1.363 . S
C690 C696 1.428 . S
H691 C687 0.930 . S
H692 C689 0.929 . S
S693 N694 1.613 1_545 S
S693 N695 1.610 . S
N694 S693 1.613 1_565 S
N694 C697 1.350 . S
N695 S693 1.610 . S
N695 C696 1.351 . S
C696 C690 1.428 . S
C696 N695 1.351 . S
C696 C697 1.434 1_545 S
C697 C688 1.429 . S
C697 N694 1.350 . S
C697 C696 1.434 1_565 S
C698 C699 1.369 . S
C698 C700 1.419 . S
C698 H702 0.930 . S
C699 C698 1.369 . S
C699 C708 1.429 . S
C700 C698 1.419 . S
C700 C701 1.363 . S
C700 H703 0.929 . S
C701 C700 1.363 . S
C701 C707 1.428 . S
H702 C698 0.930 . S
H703 C700 0.929 . S
S704 N705 1.613 . S
S704 N706 1.610 . S
N705 S704 1.613 . S
N705 C708 1.350 . S
N706 S704 1.610 . S
N706 C707 1.351 . S
C707 C701 1.428 . S
C707 N706 1.351 . S
C707 C708 1.434 . S
C708 C699 1.429 . S
C708 N705 1.350 . S
C708 C707 1.434 . S
C709 C710 1.369 . S
C709 C711 1.422 1_455 S
C709 H713 0.930 . S
C710 C709 1.369 . S
C710 C719 1.429 . S
C711 C709 1.422 1_655 S
C711 C712 1.363 1_565 S
C711 H714 0.926 1_565 S
C712 C711 1.363 1_545 S
C712 C718 1.428 1_645 S
H713 C709 0.930 . S
H714 C711 0.926 1_545 S
S715 N716 1.613 . S
S715 N717 1.610 1_565 S
N716 S715 1.613 . S
N716 C719 1.350 . S
N717 S715 1.610 1_545 S
N717 C718 1.351 1_545 S
C718 C712 1.428 1_465 S
C718 N717 1.351 1_565 S
C718 C719 1.434 . S
C719 C710 1.429 . S
C719 N716 1.350 . S
C719 C718 1.434 . S
C720 C721 1.369 . S
C720 C722 1.419 . S
C720 H724 0.930 . S
C721 C720 1.369 . S
C721 C730 1.429 . S
C722 C720 1.419 . S
C722 C723 1.363 . S
C722 H725 0.929 . S
C723 C722 1.363 . S
C723 C729 1.428 . S
H724 C720 0.930 . S
H725 C722 0.929 . S
S726 N727 1.613 . S
S726 N728 1.610 . S
N727 S726 1.613 . S
N727 C730 1.350 . S
N728 S726 1.610 . S
N728 C729 1.351 . S
C729 C723 1.428 . S
C729 N728 1.351 . S
C729 C730 1.434 . S
C730 C721 1.429 . S
C730 N727 1.350 . S
C730 C729 1.434 . S
C731 C732 1.369 . S
C731 C733 1.419 . S
C731 H735 0.930 1_565 S
C732 C731 1.369 . S
C732 C741 1.429 . S
C733 C731 1.419 . S
C733 C734 1.363 . S
C733 H736 0.929 . S
C734 C733 1.363 . S
C734 C740 1.428 . S
H735 C731 0.930 1_545 S
H736 C733 0.929 . S
S737 N738 1.613 . S
S737 N739 1.610 1_455 S
N738 S737 1.613 . S
N738 C741 1.350 1_455 S
N739 S737 1.610 1_655 S
N739 C740 1.351 . S
C740 C734 1.428 . S
C740 N739 1.351 . S
C740 C741 1.434 . S
C741 C732 1.429 . S
C741 N738 1.350 1_655 S
C741 C740 1.434 . S
C742 C743 1.369 . S
C742 C744 1.419 . S
C742 H746 0.930 . S
C743 C742 1.369 . S
C743 C752 1.429 . S
C744 C742 1.419 . S
C744 C745 1.363 . S
C744 H747 0.929 . S
C745 C744 1.363 . S
C745 C751 1.428 . S
H746 C742 0.930 . S
H747 C744 0.929 . S
S748 N749 1.613 . S
S748 N750 1.610 . S
N749 S748 1.613 . S
N749 C752 1.350 . S
N750 S748 1.610 . S
N750 C751 1.351 . S
C751 C745 1.428 . S
C751 N750 1.351 . S
C751 C752 1.434 . S
C752 C743 1.429 . S
C752 N749 1.350 . S
C752 C751 1.434 . S
C753 C754 1.369 . S
C753 C755 1.419 . S
C753 H757 0.930 . S
C754 C753 1.369 . S
C754 C763 1.429 1_545 S
C755 C753 1.419 . S
C755 C756 1.363 . S
C755 H758 0.929 . S
C756 C755 1.363 . S
C756 C762 1.428 1_545 S
H757 C753 0.930 . S
H758 C755 0.929 . S
S759 N760 1.613 . S
S759 N761 1.610 . S
N760 S759 1.613 . S
N760 C763 1.350 . S
N761 S759 1.610 . S
N761 C762 1.351 . S
C762 C756 1.428 1_565 S
C762 N761 1.351 . S
C762 C763 1.434 . S
C763 C754 1.429 1_565 S
C763 N760 1.350 . S
C763 C762 1.434 . S
C764 C765 1.369 . S
C764 C766 1.419 . S
C764 H768 0.930 . S
C765 C764 1.369 . S
C765 C774 1.429 . S
C766 C764 1.419 . S
C766 C767 1.363 . S
C766 H769 0.929 . S
C767 C766 1.363 . S
C767 C773 1.428 . S
H768 C764 0.930 . S
H769 C766 0.929 . S
S770 N771 1.613 . S
S770 N772 1.610 . S
N771 S770 1.613 . S
N771 C774 1.350 . S
N772 S770 1.610 . S
N772 C773 1.351 . S
C773 C767 1.428 . S
C773 N772 1.351 . S
C773 C774 1.434 . S
C774 C765 1.429 . S
C774 N771 1.350 . S
C774 C773 1.434 . S
C775 C776 1.369 1_545 S
C775 C777 1.419 . S
C775 H779 0.930 . S
C776 C775 1.369 1_565 S
C776 C785 1.429 . S
C777 C775 1.419 . S
C777 C778 1.363 . S
C777 H780 0.929 . S
C778 C777 1.363 . S
C778 C784 1.428 1_545 S
H779 C775 0.930 . S
H780 C777 0.929 . S
S781 N782 1.613 . S
S781 N783 1.610 . S
N782 S781 1.613 . S
N782 C785 1.350 . S
N783 S781 1.610 . S
N783 C784 1.351 . S
C784 C778 1.428 1_565 S
C784 N783 1.351 . S
C784 C785 1.434 . S
C785 C776 1.429 . S
C785 N782 1.350 . S
C785 C784 1.434 . S
C786 C787 1.369 . S
C786 C788 1.419 . S
C786 H790 0.930 . S
C787 C786 1.369 . S
C787 C796 1.429 . S
C788 C786 1.419 . S
C788 C789 1.363 . S
C788 H791 0.929 . S
C789 C788 1.363 . S
C789 C795 1.428 . S
H790 C786 0.930 . S
H791 C788 0.929 . S
S792 N793 1.613 . S
S792 N794 1.610 . S
N793 S792 1.613 . S
N793 C796 1.350 . S
N794 S792 1.610 . S
N794 C795 1.351 . S
C795 C789 1.428 . S
C795 N794 1.351 . S
C795 C796 1.434 . S
C796 C787 1.429 . S
C796 N793 1.350 . S
C796 C795 1.434 . S
C797 C798 1.369 . S
C797 C799 1.419 . S
C797 H801 0.930 . S
C798 C797 1.369 . S
C798 C807 1.429 1_545 S
C799 C797 1.419 . S
C799 C800 1.363 . S
C799 H802 0.929 . S
C800 C799 1.363 . S
C800 C806 1.428 . S
H801 C797 0.930 . S
H802 C799 0.929 . S
S803 N804 1.613 . S
S803 N805 1.610 1_565 S
N804 S803 1.613 . S
N804 C807 1.350 . S
N805 S803 1.610 1_545 S
N805 C806 1.351 . S
C806 C800 1.428 . S
C806 N805 1.351 . S
C806 C807 1.434 1_545 S
C807 C798 1.429 1_565 S
C807 N804 1.350 . S
C807 C806 1.434 1_565 S
C808 C809 1.369 . S
C808 C810 1.419 . S
C808 H812 0.930 . S
C809 C808 1.369 . S
C809 C818 1.429 . S
C810 C808 1.419 . S
C810 C811 1.363 . S
C810 H813 0.929 . S
C811 C810 1.363 . S
C811 C817 1.428 . S
H812 C808 0.930 . S
H813 C810 0.929 . S
S814 N815 1.613 . S
S814 N816 1.610 . S
N815 S814 1.613 . S
N815 C818 1.350 . S
N816 S814 1.610 . S
N816 C817 1.351 . S
C817 C811 1.428 . S
C817 N816 1.351 . S
C817 C818 1.434 . S
C818 C809 1.429 . S
C818 N815 1.350 . S
C818 C817 1.434 . S
C819 C820 1.369 . S
C819 C821 1.419 . S
C819 H823 0.930 . S
C820 C819 1.369 . S
C820 C829 1.429 . S
C821 C819 1.419 . S
C821 C822 1.363 . S
C821 H824 0.929 . S
C822 C821 1.363 . S
C822 C828 1.428 . S
H823 C819 0.930 . S
H824 C821 0.929 . S
S825 N826 1.613 . S
S825 N827 1.610 . S
N826 S825 1.613 . S
N826 C829 1.350 . S
N827 S825 1.610 . S
N827 C828 1.351 . S
C828 C822 1.428 . S
C828 N827 1.351 . S
C828 C829 1.434 . S
C829 C820 1.429 . S
C829 N826 1.350 . S
C829 C828 1.434 . S
C830 C831 1.369 . S
C830 C832 1.419 . S
C830 H834 0.930 . S
C831 C830 1.369 . S
C831 C840 1.429 . S
C832 C830 1.419 . S
C832 C833 1.363 . S
C832 H835 0.929 . S
C833 C832 1.363 . S
C833 C839 1.428 . S
H834 C830 0.930 . S
H835 C832 0.929 . S
S836 N837 1.613 . S
S836 N838 1.610 . S
N837 S836 1.613 . S
N837 C840 1.350 . S
N838 S836 1.610 . S
N838 C839 1.351 . S
C839 C833 1.428 . S
C839 N838 1.351 . S
C839 C840 1.434 . S
C840 C831 1.429 . S
C840 N837 1.350 . S
C840 C839 1.434 . S
C841 C842 1.369 . S
C841 C843 1.419 . S
C841 H845 0.930 . S
C842 C841 1.369 . S
C842 C851 1.429 . S
C843 C841 1.419 . S
C843 C844 1.363 . S
C843 H846 0.929 . S
C844 C843 1.363 . S
C844 C850 1.428 . S
H845 C841 0.930 . S
H846 C843 0.929 . S
S847 N848 1.613 . S
S847 N849 1.610 . S
N848 S847 1.613 . S
N848 C851 1.350 . S
N849 S847 1.610 . S
N849 C850 1.351 . S
C850 C844 1.428 . S
C850 N849 1.351 . S
C850 C851 1.434 . S
C851 C842 1.429 . S
C851 N848 1.350 . S
C851 C850 1.434 . S
C852 C853 1.369 . S
C852 C854 1.419 . S
C852 H856 0.930 . S
C853 C852 1.369 . S
C853 C862 1.429 . S
C854 C852 1.419 . S
C854 C855 1.363 . S
C854 H857 0.929 . S
C855 C854 1.363 . S
C855 C861 1.428 . S
H856 C852 0.930 . S
H857 C854 0.929 . S
S858 N859 1.613 . S
S858 N860 1.610 . S
N859 S858 1.613 . S
N859 C862 1.350 . S
N860 S858 1.610 . S
N860 C861 1.351 . S
C861 C855 1.428 . S
C861 N860 1.351 . S
C861 C862 1.434 . S
C862 C853 1.429 . S
C862 N859 1.350 . S
C862 C861 1.434 . S
C863 C864 1.369 . S
C863 C865 1.419 . S
C863 H867 0.930 . S
C864 C863 1.369 . S
C864 C873 1.429 . S
C865 C863 1.419 . S
C865 C866 1.363 . S
C865 H868 0.929 . S
C866 C865 1.363 . S
C866 C872 1.428 . S
H867 C863 0.930 . S
H868 C865 0.929 . S
S869 N870 1.613 . S
S869 N871 1.610 . S
N870 S869 1.613 . S
N870 C873 1.350 . S
N871 S869 1.610 . S
N871 C872 1.351 . S
C872 C866 1.428 . S
C872 N871 1.351 . S
C872 C873 1.434 . S
C873 C864 1.429 . S
C873 N870 1.350 . S
C873 C872 1.434 . S
C874 C875 1.369 . S
C874 C876 1.419 . S
C874 H878 0.930 . S
C875 C874 1.369 . S
C875 C884 1.429 . S
C876 C874 1.419 . S
C876 C877 1.363 . S
C876 H879 0.929 . S
C877 C876 1.363 . S
C877 C883 1.428 . S
H878 C874 0.930 . S
H879 C876 0.929 . S
S880 N881 1.613 . S
S880 N882 1.610 . S
N881 S880 1.613 . S
N881 C884 1.350 . S
N882 S880 1.610 . S
N882 C883 1.351 . S
C883 C877 1.428 . S
C883 N882 1.351 . S
C883 C884 1.434 . S
C884 C875 1.429 . S
C884 N881 1.350 . S
C884 C883 1.434 . S
C885 C886 1.369 . S
C885 C887 1.419 . S
C885 H889 0.930 . S
C886 C885 1.369 . S
C886 C895 1.429 . S
C887 C885 1.419 . S
C887 C888 1.363 . S
C887 H890 0.929 . S
C888 C887 1.363 . S
C888 C894 1.428 . S
H889 C885 0.930 . S
H890 C887 0.929 . S
S891 N892 1.613 . S
S891 N893 1.610 . S
N892 S891 1.613 . S
N892 C895 1.350 . S
N893 S891 1.610 . S
N893 C894 1.351 . S
C894 C888 1.428 . S
C894 N893 1.351 . S
C894 C895 1.434 . S
C895 C886 1.429 . S
C895 N892 1.350 . S
C895 C894 1.434 . S
C896 C897 1.369 . S
C896 C898 1.419 . S
C896 H900 0.930 . S
C897 C896 1.369 . S
C897 C906 1.429 . S
C898 C896 1.419 . S
C898 C899 1.363 . S
C898 H901 0.929 . S
C899 C898 1.363 . S
C899 C905 1.428 . S
H900 C896 0.930 . S
H901 C898 0.929 . S
S902 N903 1.613 . S
S902 N904 1.610 . S
N903 S902 1.613 . S
N903 C906 1.350 . S
N904 S902 1.610 . S
N904 C905 1.351 . S
C905 C899 1.428 . S
C905 N904 1.351 . S
C905 C906 1.434 . S
C906 C897 1.429 . S
C906 N903 1.350 . S
C906 C905 1.434 . S
C907 C908 1.369 . S
C907 C909 1.419 . S
C907 H911 0.930 . S
C908 C907 1.369 . S
C908 C917 1.429 . S
C909 C907 1.419 . S
C909 C910 1.363 . S
C909 H912 0.929 . S
C910 C909 1.363 . S
C910 C916 1.428 . S
H911 C907 0.930 . S
H912 C909 0.929 . S
S913 N914 1.613 . S
S913 N915 1.610 . S
N914 S913 1.613 . S
N914 C917 1.350 . S
N915 S913 1.610 . S
N915 C916 1.351 . S
C916 C910 1.428 . S
C916 N915 1.351 . S
C916 C917 1.434 . S
C917 C908 1.429 . S
C917 N914 1.350 . S
C917 C916 1.434 . S
C918 C919 1.369 . S
C918 C920 1.419 . S
C918 H922 0.930 . S
C919 C918 1.369 . S
C919 C928 1.429 . S
C920 C918 1.419 . S
C920 C921 1.363 . S
C920 H923 0.929 . S
C921 C920 1.363 . S
C921 C927 1.428 . S
H922 C918 0.930 . S
H923 C920 0.929 . S
S924 N925 1.613 . S
S924 N926 1.610 . S
N925 S924 1.613 . S
N925 C928 1.350 . S
N926 S924 1.610 . S
N926 C927 1.351 . S
C927 C921 1.428 . S
C927 N926 1.351 . S
C927 C928 1.434 . S
C928 C919 1.429 . S
C928 N925 1.350 . S
C928 C927 1.434 . S
C929 C930 1.369 . S
C929 C931 1.419 . S
C929 H933 0.930 . S
C930 C929 1.369 . S
C930 C939 1.429 . S
C931 C929 1.419 . S
C931 C932 1.363 . S
C931 H934 0.929 . S
C932 C931 1.363 . S
C932 C938 1.428 . S
H933 C929 0.930 . S
H934 C931 0.929 . S
S935 N936 1.613 . S
S935 N937 1.610 . S
N936 S935 1.613 . S
N936 C939 1.350 . S
N937 S935 1.610 . S
N937 C938 1.351 . S
C938 C932 1.428 . S
C938 N937 1.351 . S
C938 C939 1.434 . S
C939 C930 1.429 . S
C939 N936 1.350 . S
C939 C938 1.434 . S
C940 C941 1.369 . S
C940 C942 1.419 . S
C940 H944 0.930 . S
C941 C940 1.369 . S
C941 C950 1.429 . S
C942 C940 1.419 . S
C942 C943 1.363 . S
C942 H945 0.929 . S
C943 C942 1.363 . S
C943 C949 1.428 . S
H944 C940 0.930 . S
H945 C942 0.929 . S
S946 N947 1.613 . S
S946 N948 1.610 . S
N947 S946 1.613 . S
N947 C950 1.350 . S
N948 S946 1.610 . S
N948 C949 1.351 . S
C949 C943 1.428 . S
C949 N948 1.351 . S
C949 C950 1.434 . S
C950 C941 1.429 . S
C950 N947 1.350 . S
C950 C949 1.434 . S
C951 C952 1.369 . S
C951 C953 1.419 . S
C951 H955 0.930 . S
C952 C951 1.369 . S
C952 C961 1.429 . S
C953 C951 1.419 . S
C953 C954 1.363 . S
C953 H956 0.927 . S
C954 C953 1.363 . S
C954 C960 1.428 . S
H955 C951 0.930 . S
H956 C953 0.927 . S
S957 N958 1.613 . S
S957 N959 1.610 . S
N958 S957 1.613 . S
N958 C961 1.350 . S
N959 S957 1.610 . S
N959 C960 1.351 . S
C960 C954 1.428 . S
C960 N959 1.351 . S
C960 C961 1.434 . S
C961 C952 1.429 . S
C961 N958 1.350 . S
C961 C960 1.434 . S
C962 C963 1.369 . S
C962 C964 1.419 . S
C962 H966 0.930 . S
C963 C962 1.369 . S
C963 C972 1.429 . S
C964 C962 1.419 . S
C964 C965 1.363 . S
C964 H967 0.929 . S
C965 C964 1.363 . S
C965 C971 1.428 . S
H966 C962 0.930 . S
H967 C964 0.929 . S
S968 N969 1.613 . S
S968 N970 1.610 . S
N969 S968 1.613 . S
N969 C972 1.350 . S
N970 S968 1.610 . S
N970 C971 1.351 . S
C971 C965 1.428 . S
C971 N970 1.351 . S
C971 C972 1.434 . S
C972 C963 1.429 . S
C972 N969 1.350 . S
C972 C971 1.434 . S
C973 C974 1.369 . S
C973 C975 1.419 . S
C973 H977 0.930 . S
C974 C973 1.369 . S
C974 C983 1.429 . S
C975 C973 1.419 . S
C975 C976 1.363 . S
C975 H978 0.929 . S
C976 C975 1.363 . S
C976 C982 1.428 . S
H977 C973 0.930 . S
H978 C975 0.929 . S
S979 N980 1.613 . S
S979 N981 1.610 . S
N980 S979 1.613 . S
N980 C983 1.350 . S
N981 S979 1.610 . S
N981 C982 1.351 . S
C982 C976 1.428 . S
C982 N981 1.351 . S
C982 C983 1.434 . S
C983 C974 1.429 . S
C983 N980 1.350 . S
C983 C982 1.434 . S
C984 C985 1.369 . S
C984 C986 1.425 1_556 S
C984 H988 0.930 . S
C985 C984 1.369 . S
C985 C994 1.429 . S
C986 C984 1.425 1_554 S
C986 C987 1.360 . S
C986 H989 0.927 . S
C987 C986 1.360 . S
C987 C993 1.428 . S
H988 C984 0.930 . S
H989 C986 0.927 . S
S990 N991 1.613 1_554 S
S990 N992 1.610 . S
N991 S990 1.613 1_556 S
N991 C994 1.350 . S
N992 S990 1.610 . S
N992 C993 1.351 . S
C993 C987 1.428 . S
C993 N992 1.351 . S
C993 C994 1.434 1_554 S
C994 C985 1.429 . S
C994 N991 1.350 . S
C994 C993 1.434 1_556 S
C995 C996 1.369 1_565 S
C995 C997 1.419 . S
C995 H999 0.930 . S
C996 C995 1.369 1_545 S
C996 C1005 1.429 . S
C997 C995 1.419 . S
C997 C998 1.363 1_565 S
C997 H1000 0.929 . S
C998 C997 1.363 1_545 S
C998 C1004 1.428 . S
H999 C995 0.930 . S
H1000 C997 0.929 . S
S1001 N1002 1.613 . S
S1001 N1003 1.610 . S
N1002 S1001 1.613 . S
N1002 C1005 1.350 . S
N1003 S1001 1.610 . S
N1003 C1004 1.351 . S
C1004 C998 1.428 . S
C1004 N1003 1.351 . S
C1004 C1005 1.434 . S
C1005 C996 1.429 . S
C1005 N1002 1.350 . S
C1005 C1004 1.434 . S
C1006 C1007 1.369 . S
C1006 C1008 1.419 . S
C1006 H1010 0.930 . S
C1007 C1006 1.369 . S
C1007 C1016 1.429 . S
C1008 C1006 1.419 . S
C1008 C1009 1.363 . S
C1008 H1011 0.929 . S
C1009 C1008 1.363 . S
C1009 C1015 1.428 . S
H1010 C1006 0.930 . S
H1011 C1008 0.929 . S
S1012 N1013 1.613 . S
S1012 N1014 1.610 . S
N1013 S1012 1.613 . S
N1013 C1016 1.350 . S
N1014 S1012 1.610 . S
N1014 C1015 1.351 . S
C1015 C1009 1.428 . S
C1015 N1014 1.351 . S
C1015 C1016 1.434 . S
C1016 C1007 1.429 . S
C1016 N1013 1.350 . S
C1016 C1015 1.434 . S
C1017 C1018 1.369 1_545 S
C1017 C1019 1.419 . S
C1017 H1021 0.930 . S
C1018 C1017 1.369 1_565 S
C1018 C1027 1.429 . S
C1019 C1017 1.419 . S
C1019 C1020 1.363 1_545 S
C1019 H1022 0.929 . S
C1020 C1019 1.363 1_565 S
C1020 C1026 1.428 . S
H1021 C1017 0.930 . S
H1022 C1019 0.929 . S
S1023 N1024 1.613 . S
S1023 N1025 1.610 . S
N1024 S1023 1.613 . S
N1024 C1027 1.350 . S
N1025 S1023 1.610 . S
N1025 C1026 1.351 . S
C1026 C1020 1.428 . S
C1026 N1025 1.351 . S
C1026 C1027 1.434 . S
C1027 C1018 1.429 . S
C1027 N1024 1.350 . S
C1027 C1026 1.434 . S
C1028 C1029 1.369 . S
C1028 C1030 1.419 1_556 S
C1028 H1032 0.930 . S
C1029 C1028 1.369 . S
C1029 C1038 1.429 . S
C1030 C1028 1.419 1_554 S
C1030 C1031 1.363 . S
C1030 H1033 0.929 . S
C1031 C1030 1.363 . S
C1031 C1037 1.428 . S
H1032 C1028 0.930 . S
H1033 C1030 0.929 . S
S1034 N1035 1.613 1_554 S
S1034 N1036 1.610 . S
N1035 S1034 1.613 1_556 S
N1035 C1038 1.350 . S
N1036 S1034 1.610 . S
N1036 C1037 1.351 . S
C1037 C1031 1.428 . S
C1037 N1036 1.351 . S
C1037 C1038 1.434 1_554 S
C1038 C1029 1.429 . S
C1038 N1035 1.350 . S
C1038 C1037 1.434 1_556 S
C1039 C1040 1.369 . S
C1039 C1041 1.419 . S
C1039 H1043 0.930 . S
C1040 C1039 1.369 . S
C1040 C1049 1.429 . S
C1041 C1039 1.419 . S
C1041 C1042 1.363 . S
C1041 H1044 0.929 . S
C1042 C1041 1.363 . S
C1042 C1048 1.428 . S
H1043 C1039 0.930 . S
H1044 C1041 0.929 . S
S1045 N1046 1.613 1_565 S
S1045 N1047 1.610 . S
N1046 S1045 1.613 1_545 S
N1046 C1049 1.350 . S
N1047 S1045 1.610 . S
N1047 C1048 1.351 1_565 S
C1048 C1042 1.428 . S
C1048 N1047 1.351 1_545 S
C1048 C1049 1.434 . S
C1049 C1040 1.429 . S
C1049 N1046 1.350 . S
C1049 C1048 1.434 . S
C1050 C1051 1.369 . S
C1050 C1052 1.419 . S
C1050 H1054 0.930 . S
C1051 C1050 1.369 . S
C1051 C1060 1.429 . S
C1052 C1050 1.419 . S
C1052 C1053 1.363 . S
C1052 H1055 0.929 . S
C1053 C1052 1.363 . S
C1053 C1059 1.428 . S
H1054 C1050 0.930 . S
H1055 C1052 0.929 . S
S1056 N1057 1.613 . S
S1056 N1058 1.610 . S
N1057 S1056 1.613 . S
N1057 C1060 1.350 . S
N1058 S1056 1.610 . S
N1058 C1059 1.351 . S
C1059 C1053 1.428 . S
C1059 N1058 1.351 . S
C1059 C1060 1.434 . S
C1060 C1051 1.429 . S
C1060 N1057 1.350 . S
C1060 C1059 1.434 . S
C1061 C1062 1.369 . S
C1061 C1063 1.419 . S
C1061 H1065 0.930 . S
C1062 C1061 1.369 . S
C1062 C1071 1.429 1_545 S
C1063 C1061 1.419 . S
C1063 C1064 1.363 . S
C1063 H1066 0.929 . S
C1064 C1063 1.363 . S
C1064 C1070 1.428 1_545 S
H1065 C1061 0.930 . S
H1066 C1063 0.929 . S
S1067 N1068 1.613 . S
S1067 N1069 1.610 . S
N1068 S1067 1.613 . S
N1068 C1071 1.350 . S
N1069 S1067 1.610 . S
N1069 C1070 1.351 . S
C1070 C1064 1.428 1_565 S
C1070 N1069 1.351 . S
C1070 C1071 1.434 . S
C1071 C1062 1.429 1_565 S
C1071 N1068 1.350 . S
C1071 C1070 1.434 . S
C1072 C1073 1.369 . S
C1072 C1074 1.419 . S
C1072 H1076 0.930 . S
C1073 C1072 1.369 . S
C1073 C1082 1.429 . S
C1074 C1072 1.419 . S
C1074 C1075 1.363 . S
C1074 H1077 0.929 . S
C1075 C1074 1.363 . S
C1075 C1081 1.428 . S
H1076 C1072 0.930 . S
H1077 C1074 0.929 . S
S1078 N1079 1.613 . S
S1078 N1080 1.610 . S
N1079 S1078 1.613 . S
N1079 C1082 1.350 . S
N1080 S1078 1.610 . S
N1080 C1081 1.351 . S
C1081 C1075 1.428 . S
C1081 N1080 1.351 . S
C1081 C1082 1.434 . S
C1082 C1073 1.429 . S
C1082 N1079 1.350 . S
C1082 C1081 1.434 . S
C1083 C1084 1.369 . S
C1083 C1085 1.419 . S
C1083 H1087 0.930 . S
C1084 C1083 1.369 . S
C1084 C1093 1.429 . S
C1085 C1083 1.419 . S
C1085 C1086 1.363 . S
C1085 H1088 0.929 . S
C1086 C1085 1.363 . S
C1086 C1092 1.428 . S
H1087 C1083 0.930 . S
H1088 C1085 0.929 . S
S1089 N1090 1.613 . S
S1089 N1091 1.610 . S
N1090 S1089 1.613 . S
N1090 C1093 1.350 . S
N1091 S1089 1.610 . S
N1091 C1092 1.351 . S
C1092 C1086 1.428 . S
C1092 N1091 1.351 . S
C1092 C1093 1.434 . S
C1093 C1084 1.429 . S
C1093 N1090 1.350 . S
C1093 C1092 1.434 . S
C1094 C1095 1.369 . S
C1094 C1096 1.419 1_554 S
C1094 H1098 0.930 . S
C1095 C1094 1.369 . S
C1095 C1104 1.429 . S
C1096 C1094 1.419 1_556 S
C1096 C1097 1.363 . S
C1096 H1099 0.929 . S
C1097 C1096 1.363 . S
C1097 C1103 1.428 . S
H1098 C1094 0.930 . S
H1099 C1096 0.929 . S
S1100 N1101 1.613 1_556 S
S1100 N1102 1.610 . S
N1101 S1100 1.613 1_554 S
N1101 C1104 1.350 . S
N1102 S1100 1.610 . S
N1102 C1103 1.351 . S
C1103 C1097 1.428 . S
C1103 N1102 1.351 . S
C1103 C1104 1.434 1_556 S
C1104 C1095 1.429 . S
C1104 N1101 1.350 . S
C1104 C1103 1.434 1_554 S
C1105 C1106 1.369 . S
C1105 C1107 1.419 . S
C1105 H1109 0.930 . S
C1106 C1105 1.369 . S
C1106 C1115 1.429 . S
C1107 C1105 1.419 . S
C1107 C1108 1.363 . S
C1107 H1110 0.929 . S
C1108 C1107 1.363 . S
C1108 C1114 1.428 . S
H1109 C1105 0.930 . S
H1110 C1107 0.929 . S
S1111 N1112 1.613 . S
S1111 N1113 1.610 . S
N1112 S1111 1.613 . S
N1112 C1115 1.350 . S
N1113 S1111 1.610 . S
N1113 C1114 1.351 . S
C1114 C1108 1.428 . S
C1114 N1113 1.351 . S
C1114 C1115 1.434 . S
C1115 C1106 1.429 . S
C1115 N1112 1.350 . S
C1115 C1114 1.434 . S
C1116 C1117 1.369 . S
C1116 C1118 1.419 . S
C1116 H1120 0.930 . S
C1117 C1116 1.369 . S
C1117 C1126 1.429 . S
C1118 C1116 1.419 . S
C1118 C1119 1.363 . S
C1118 H1121 0.929 . S
C1119 C1118 1.363 . S
C1119 C1125 1.428 . S
H1120 C1116 0.930 . S
H1121 C1118 0.929 . S
S1122 N1123 1.613 . S
S1122 N1124 1.610 . S
N1123 S1122 1.613 . S
N1123 C1126 1.350 . S
N1124 S1122 1.610 . S
N1124 C1125 1.351 . S
C1125 C1119 1.428 . S
C1125 N1124 1.351 . S
C1125 C1126 1.434 . S
C1126 C1117 1.429 . S
C1126 N1123 1.350 . S
C1126 C1125 1.434 . S
C1127 C1128 1.369 . S
C1127 C1129 1.419 . S
C1127 H1131 0.930 . S
C1128 C1127 1.369 . S
C1128 C1137 1.429 . S
C1129 C1127 1.419 . S
C1129 C1130 1.363 . S
C1129 H1132 0.929 . S
C1130 C1129 1.363 . S
C1130 C1136 1.428 . S
H1131 C1127 0.930 . S
H1132 C1129 0.929 . S
S1133 N1134 1.613 . S
S1133 N1135 1.610 . S
N1134 S1133 1.613 . S
N1134 C1137 1.350 . S
N1135 S1133 1.610 . S
N1135 C1136 1.351 . S
C1136 C1130 1.428 . S
C1136 N1135 1.351 . S
C1136 C1137 1.434 . S
C1137 C1128 1.429 . S
C1137 N1134 1.350 . S
C1137 C1136 1.434 . S
C1138 C1139 1.369 . S
C1138 C1140 1.419 1_554 S
C1138 H1142 0.930 . S
C1139 C1138 1.369 . S
C1139 C1148 1.429 . S
C1140 C1138 1.419 1_556 S
C1140 C1141 1.363 . S
C1140 H1143 0.929 . S
C1141 C1140 1.363 . S
C1141 C1147 1.428 . S
H1142 C1138 0.930 . S
H1143 C1140 0.929 . S
S1144 N1145 1.600 1_556 S
S1144 N1146 1.627 . S
N1145 S1144 1.600 1_554 S
N1145 C1148 1.350 . S
N1146 S1144 1.627 . S
N1146 C1147 1.351 . S
C1147 C1141 1.428 . S
C1147 N1146 1.351 . S
C1147 C1148 1.434 1_556 S
C1148 C1139 1.429 . S
C1148 N1145 1.350 . S
C1148 C1147 1.434 1_554 S
C1149 C1150 1.369 . S
C1149 C1151 1.419 . S
C1149 H1153 0.930 . S
C1150 C1149 1.369 . S
C1150 C1159 1.429 . S
C1151 C1149 1.419 . S
C1151 C1152 1.363 . S
C1151 H1154 0.929 . S
C1152 C1151 1.363 . S
C1152 C1158 1.428 . S
H1153 C1149 0.930 . S
H1154 C1151 0.929 . S
S1155 N1156 1.613 . S
S1155 N1157 1.610 . S
N1156 S1155 1.613 . S
N1156 C1159 1.350 1_455 S
N1157 S1155 1.610 . S
N1157 C1158 1.351 1_455 S
C1158 C1152 1.428 . S
C1158 N1157 1.351 1_655 S
C1158 C1159 1.434 . S
C1159 C1150 1.429 . S
C1159 N1156 1.350 1_655 S
C1159 C1158 1.434 . S
C545 C1 1.592 . S
C547 C241 1.589 . S
C556 C35 1.529 . S
C558 C139 1.596 . S
C567 C71 1.498 . S
C569 C171 1.506 . S
C578 C205 1.692 . S
C580 C105 1.694 . S
C589 C275 1.535 . S
C591 C513 1.587 . S
C600 C307 1.692 . S
C602 C411 1.715 . S
C611 C445 1.535 . S
C613 C343 1.563 . S
C622 C377 1.731 . S
C624 C477 1.712 . S
C633 C391 2.466 . S
C635 C3 2.289 . S
C644 C37 1.870 1_545 S
C646 C448 1.967 . S
C655 C96 1.426 . S
C657 C323 1.422 . S
C666 C130 1.876 . S
C668 C527 1.873 . S
C677 C459 2.101 . S
C679 C137 1.980 . S
C688 C176 1.092 . S
C690 C334 1.033 . S
C699 C516 1.416 . S
C701 C207 1.551 . S
C710 C380 1.883 . S
C712 C239 1.839 . S
C721 C273 2.326 . S
C723 C119 2.494 . S
C732 C312 1.212 1_665 S
C734 C198 1.164 . S
C743 C368 1.058 . S
C745 C62 0.977 . S
C754 C255 1.769 . S
C756 C402 1.776 1_545 S
C765 C409 1.975 . S
C767 C187 2.098 1_545 S
C776 C51 1.524 . S
C778 C470 1.530 . S
C787 C244 1.385 . S
C789 C479 1.467 . S
C798 C511 1.632 1_645 S
C800 C108 1.698 . S
C809 C425 2.300 . S
C811 C173 2.113 . S
C820 C278 1.135 . S
C822 C210 1.168 . S
C831 C493 1.251 . S
C833 C266 1.265 . S
C842 C357 1.784 . S
C844 C164 1.787 . S
C853 C289 2.020 . S
C855 C103 1.943 . S
C864 C504 0.887 . S
C866 C6 0.916 . S
C875 C40 0.911 . S
C877 C346 0.873 . S
C886 C414 1.729 . S
C888 C69 1.675 . S
C897 C443 2.261 . S
C899 C153 2.414 . S
C908 C28 1.152 . S
C910 C482 1.207 . S
C919 C538 1.469 . S
C921 C221 1.456 . S
C930 C436 1.888 . S
C932 C85 1.885 . S
C941 C375 1.882 . S
C943 C17 1.981 . S
C952 C232 0.841 . S
C954 C300 0.885 . S
C963 C74 1.373 . S
C965 C309 1.498 . S
C974 C341 1.693 . S
C976 C142 1.773 . S
C985 C219 1.581 . S
C987 C15 1.563 . S
C996 C260 1.569 . S
C998 C49 1.585 1_545 S
C1007 C83 1.451 . S
C1009 C158 1.448 . S
C1018 C192 1.850 . S
C1020 C117 1.683 1_565 S
C1029 C294 1.544 . S
C1031 C491 1.557 . S
C1040 C328 1.541 . S
C1042 C532 1.607 1_545 S
C1051 C430 1.666 . S
C1053 C355 1.675 . S
C1062 C457 1.647 . S
C1064 C389 1.595 1_545 S
C1073 C56 1.495 . S
C1075 C185 1.531 . S
C1084 C90 1.625 . S
C1086 C226 1.551 . S
C1095 C253 1.581 . S
C1097 C124 1.613 . S
C1106 C151 1.852 . S
C1108 C22 1.913 . S
C1117 C321 1.674 . S
C1119 C464 1.638 . S
C1128 C498 1.548 . S
C1130 C362 1.700 . S
C1139 C396 1.554 . S
C1141 C525 1.542 . S
C1150 C423 1.730 . S
C1152 C287 1.860 . S
