# Generated by pormake.
# Topology sxf, (6)-cn, num edge types: 1
# Building blocks:
#     Node 0, Type 0, BuildingBlock: IZENUY_clean_sbu_0, # of connection points: 6
#     Node 1, Type 0, BuildingBlock: IZENUY_clean_sbu_0, # of connection points: 6
#     Node 2, Type 0, BuildingBlock: IZENUY_clean_sbu_0, # of connection points: 6
#     Node 3, Type 0, BuildingBlock: IZENUY_clean_sbu_0, # of connection points: 6
#     Node 4, Type 0, BuildingBlock: IZENUY_clean_sbu_0, # of connection points: 6
#     Node 5, Type 0, BuildingBlock: IZENUY_clean_sbu_0, # of connection points: 6
#     Node 6, Type 0, BuildingBlock: IZENUY_clean_sbu_0, # of connection points: 6
#     Node 7, Type 0, BuildingBlock: IZENUY_clean_sbu_0, # of connection points: 6
#     Node 8, Type 0, BuildingBlock: IZENUY_clean_sbu_0, # of connection points: 6
#     Node 9, Type 0, BuildingBlock: IZENUY_clean_sbu_0, # of connection points: 6
#     Node 10, Type 0, BuildingBlock: IZENUY_clean_sbu_0, # of connection points: 6
#     Node 11, Type 0, BuildingBlock: IZENUY_clean_sbu_0, # of connection points: 6
#     Node 12, Type 0, BuildingBlock: IZENUY_clean_sbu_0, # of connection points: 6
#     Node 13, Type 0, BuildingBlock: IZENUY_clean_sbu_0, # of connection points: 6
#     Node 14, Type 0, BuildingBlock: IZENUY_clean_sbu_0, # of connection points: 6
#     Node 15, Type 0, BuildingBlock: IZENUY_clean_sbu_0, # of connection points: 6
#     Node 16, Type 0, BuildingBlock: IZENUY_clean_sbu_0, # of connection points: 6
#     Node 17, Type 0, BuildingBlock: IZENUY_clean_sbu_0, # of connection points: 6
#     Node 18, Type 0, BuildingBlock: IZENUY_clean_sbu_0, # of connection points: 6
#     Node 19, Type 0, BuildingBlock: IZENUY_clean_sbu_0, # of connection points: 6
#     Node 20, Type 0, BuildingBlock: IZENUY_clean_sbu_0, # of connection points: 6
#     Node 21, Type 0, BuildingBlock: IZENUY_clean_sbu_0, # of connection points: 6
#     Node 22, Type 0, BuildingBlock: IZENUY_clean_sbu_0, # of connection points: 6
#     Node 23, Type 0, BuildingBlock: IZENUY_clean_sbu_0, # of connection points: 6
#     Edge 24, Type (0, 0), BuildingBlock: ZUJKAS_clean_linker_0, # of connection points: 2
#     Edge 25, Type (0, 0), BuildingBlock: ZUJKAS_clean_linker_0, # of connection points: 2
#     Edge 26, Type (0, 0), BuildingBlock: ZUJKAS_clean_linker_0, # of connection points: 2
#     Edge 27, Type (0, 0), BuildingBlock: ZUJKAS_clean_linker_0, # of connection points: 2
#     Edge 28, Type (0, 0), BuildingBlock: ZUJKAS_clean_linker_0, # of connection points: 2
#     Edge 29, Type (0, 0), BuildingBlock: ZUJKAS_clean_linker_0, # of connection points: 2
#     Edge 30, Type (0, 0), BuildingBlock: ZUJKAS_clean_linker_0, # of connection points: 2
#     Edge 31, Type (0, 0), BuildingBlock: ZUJKAS_clean_linker_0, # of connection points: 2
#     Edge 32, Type (0, 0), BuildingBlock: ZUJKAS_clean_linker_0, # of connection points: 2
#     Edge 33, Type (0, 0), BuildingBlock: ZUJKAS_clean_linker_0, # of connection points: 2
#     Edge 34, Type (0, 0), BuildingBlock: ZUJKAS_clean_linker_0, # of connection points: 2
#     Edge 35, Type (0, 0), BuildingBlock: ZUJKAS_clean_linker_0, # of connection points: 2
#     Edge 36, Type (0, 0), BuildingBlock: ZUJKAS_clean_linker_0, # of connection points: 2
#     Edge 37, Type (0, 0), BuildingBlock: ZUJKAS_clean_linker_0, # of connection points: 2
#     Edge 38, Type (0, 0), BuildingBlock: ZUJKAS_clean_linker_0, # of connection points: 2
#     Edge 39, Type (0, 0), BuildingBlock: ZUJKAS_clean_linker_0, # of connection points: 2
#     Edge 40, Type (0, 0), BuildingBlock: ZUJKAS_clean_linker_0, # of connection points: 2
#     Edge 41, Type (0, 0), BuildingBlock: ZUJKAS_clean_linker_0, # of connection points: 2
#     Edge 42, Type (0, 0), BuildingBlock: ZUJKAS_clean_linker_0, # of connection points: 2
#     Edge 43, Type (0, 0), BuildingBlock: ZUJKAS_clean_linker_0, # of connection points: 2
#     Edge 44, Type (0, 0), BuildingBlock: ZUJKAS_clean_linker_0, # of connection points: 2
#     Edge 45, Type (0, 0), BuildingBlock: ZUJKAS_clean_linker_0, # of connection points: 2
#     Edge 46, Type (0, 0), BuildingBlock: ZUJKAS_clean_linker_0, # of connection points: 2
#     Edge 47, Type (0, 0), BuildingBlock: ZUJKAS_clean_linker_0, # of connection points: 2
#     Edge 48, Type (0, 0), BuildingBlock: ZUJKAS_clean_linker_0, # of connection points: 2
#     Edge 49, Type (0, 0), BuildingBlock: ZUJKAS_clean_linker_0, # of connection points: 2
#     Edge 50, Type (0, 0), BuildingBlock: ZUJKAS_clean_linker_0, # of connection points: 2
#     Edge 51, Type (0, 0), BuildingBlock: ZUJKAS_clean_linker_0, # of connection points: 2
#     Edge 52, Type (0, 0), BuildingBlock: ZUJKAS_clean_linker_0, # of connection points: 2
#     Edge 53, Type (0, 0), BuildingBlock: ZUJKAS_clean_linker_0, # of connection points: 2
#     Edge 54, Type (0, 0), BuildingBlock: ZUJKAS_clean_linker_0, # of connection points: 2
#     Edge 55, Type (0, 0), BuildingBlock: ZUJKAS_clean_linker_0, # of connection points: 2
#     Edge 56, Type (0, 0), BuildingBlock: ZUJKAS_clean_linker_0, # of connection points: 2
#     Edge 57, Type (0, 0), BuildingBlock: ZUJKAS_clean_linker_0, # of connection points: 2
#     Edge 58, Type (0, 0), BuildingBlock: ZUJKAS_clean_linker_0, # of connection points: 2
#     Edge 59, Type (0, 0), BuildingBlock: ZUJKAS_clean_linker_0, # of connection points: 2
#     Edge 60, Type (0, 0), BuildingBlock: ZUJKAS_clean_linker_0, # of connection points: 2
#     Edge 61, Type (0, 0), BuildingBlock: ZUJKAS_clean_linker_0, # of connection points: 2
#     Edge 62, Type (0, 0), BuildingBlock: ZUJKAS_clean_linker_0, # of connection points: 2
#     Edge 63, Type (0, 0), BuildingBlock: ZUJKAS_clean_linker_0, # of connection points: 2
#     Edge 64, Type (0, 0), BuildingBlock: ZUJKAS_clean_linker_0, # of connection points: 2
#     Edge 65, Type (0, 0), BuildingBlock: ZUJKAS_clean_linker_0, # of connection points: 2
#     Edge 66, Type (0, 0), BuildingBlock: ZUJKAS_clean_linker_0, # of connection points: 2
#     Edge 67, Type (0, 0), BuildingBlock: ZUJKAS_clean_linker_0, # of connection points: 2
#     Edge 68, Type (0, 0), BuildingBlock: ZUJKAS_clean_linker_0, # of connection points: 2
#     Edge 69, Type (0, 0), BuildingBlock: ZUJKAS_clean_linker_0, # of connection points: 2
#     Edge 70, Type (0, 0), BuildingBlock: ZUJKAS_clean_linker_0, # of connection points: 2
#     Edge 71, Type (0, 0), BuildingBlock: ZUJKAS_clean_linker_0, # of connection points: 2
#     Edge 72, Type (0, 0), BuildingBlock: ZUJKAS_clean_linker_0, # of connection points: 2
#     Edge 73, Type (0, 0), BuildingBlock: ZUJKAS_clean_linker_0, # of connection points: 2
#     Edge 74, Type (0, 0), BuildingBlock: ZUJKAS_clean_linker_0, # of connection points: 2
#     Edge 75, Type (0, 0), BuildingBlock: ZUJKAS_clean_linker_0, # of connection points: 2
#     Edge 76, Type (0, 0), BuildingBlock: ZUJKAS_clean_linker_0, # of connection points: 2
#     Edge 77, Type (0, 0), BuildingBlock: ZUJKAS_clean_linker_0, # of connection points: 2
#     Edge 78, Type (0, 0), BuildingBlock: ZUJKAS_clean_linker_0, # of connection points: 2
#     Edge 79, Type (0, 0), BuildingBlock: ZUJKAS_clean_linker_0, # of connection points: 2
#     Edge 80, Type (0, 0), BuildingBlock: ZUJKAS_clean_linker_0, # of connection points: 2
#     Edge 81, Type (0, 0), BuildingBlock: ZUJKAS_clean_linker_0, # of connection points: 2
#     Edge 82, Type (0, 0), BuildingBlock: ZUJKAS_clean_linker_0, # of connection points: 2
#     Edge 83, Type (0, 0), BuildingBlock: ZUJKAS_clean_linker_0, # of connection points: 2
#     Edge 84, Type (0, 0), BuildingBlock: ZUJKAS_clean_linker_0, # of connection points: 2
#     Edge 85, Type (0, 0), BuildingBlock: ZUJKAS_clean_linker_0, # of connection points: 2
#     Edge 86, Type (0, 0), BuildingBlock: ZUJKAS_clean_linker_0, # of connection points: 2
#     Edge 87, Type (0, 0), BuildingBlock: ZUJKAS_clean_linker_0, # of connection points: 2
#     Edge 88, Type (0, 0), BuildingBlock: ZUJKAS_clean_linker_0, # of connection points: 2
#     Edge 89, Type (0, 0), BuildingBlock: ZUJKAS_clean_linker_0, # of connection points: 2
#     Edge 90, Type (0, 0), BuildingBlock: ZUJKAS_clean_linker_0, # of connection points: 2
#     Edge 91, Type (0, 0), BuildingBlock: ZUJKAS_clean_linker_0, # of connection points: 2
#     Edge 92, Type (0, 0), BuildingBlock: ZUJKAS_clean_linker_0, # of connection points: 2
#     Edge 93, Type (0, 0), BuildingBlock: ZUJKAS_clean_linker_0, # of connection points: 2
#     Edge 94, Type (0, 0), BuildingBlock: ZUJKAS_clean_linker_0, # of connection points: 2
#     Edge 95, Type (0, 0), BuildingBlock: ZUJKAS_clean_linker_0, # of connection points: 2
# Relax obj value: 0.435
# Max RMSD: 0.176
# Mean RMSD: 0.176
data_MOF--net-sxf--node1-IZENUY_clean_sbu_0--edge1-ZUJKAS_clean_linker_0
_symmetry_space_group_name_H-M    P1
_symmetry_Int_Tables_number       1
_symmetry_cell_setting            triclinic
loop_
_symmetry_equiv_pos_as_xyz
'x, y, z'
_cell_length_a     58.4158
_cell_length_b     58.412601
_cell_length_c     58.379924
_cell_angle_alpha  90.035075
_cell_angle_beta   90.097209
_cell_angle_gamma 90.04885
loop_
_atom_site_label
_atom_site_type_symbol
_atom_site_fract_x
_atom_site_fract_y
_atom_site_fract_z
_atom_type_partial_charge
Fe0 Fe 0.03699 0.42917 0.22474 0.0
Fe1 Fe 0.06957 0.39029 0.21108 0.0
O2 O 0.05218 0.4139 0.20349 0.0
Fe3 Fe 0.04994 0.42223 0.17458 0.0
O4 O 0.04627 0.45276 0.18082 0.0
O5 O 0.05185 0.45562 0.21789 0.0
O6 O 0.05856 0.42461 0.24714 0.0
C7 C 0.07973 0.42025 0.24547 0.0
C8 C 0.0056 0.42726 0.1877 0.0
O9 O 0.08727 0.40817 0.22924 0.0
C10 C 0.04924 0.37408 0.17228 0.0
O11 O 0.02129 0.40372 0.23281 0.0
O12 O 0.0515 0.38144 0.23523 0.0
O13 O 0.01936 0.41726 0.17444 0.0
O14 O 0.01269 0.43645 0.20607 0.0
C15 C 0.09555 0.41308 0.17706 0.0
O16 O 0.05265 0.37106 0.19338 0.0
O17 O 0.05332 0.39323 0.16304 0.0
C18 C 0.03054 0.38532 0.23923 0.0
O19 O 0.09087 0.39505 0.18824 0.0
O20 O 0.08027 0.42777 0.17311 0.0
C21 C 0.05211 0.46441 0.19816 0.0
Fe22 Fe 0.45809 0.5452 0.73959 0.0
Fe23 Fe 0.4313 0.58523 0.71834 0.0
O24 O 0.44958 0.56125 0.71528 0.0
Fe25 Fe 0.45961 0.55322 0.688 0.0
O26 O 0.4604 0.52246 0.69448 0.0
O27 O 0.44453 0.51956 0.72842 0.0
O28 O 0.43176 0.5505 0.75565 0.0
C29 C 0.41191 0.5556 0.74866 0.0
C30 C 0.49826 0.54715 0.71324 0.0
O31 O 0.40914 0.56779 0.7311 0.0
C32 C 0.46155 0.60148 0.68663 0.0
O33 O 0.47195 0.56996 0.7519 0.0
O34 O 0.44308 0.59358 0.74634 0.0
O35 O 0.48899 0.55756 0.69681 0.0
O36 O 0.48617 0.53695 0.72802 0.0
C37 C 0.41517 0.56347 0.67788 0.0
O38 O 0.45219 0.60442 0.70581 0.0
O39 O 0.46048 0.58234 0.67656 0.0
C40 C 0.46231 0.58896 0.75536 0.0
O41 O 0.41654 0.58094 0.69075 0.0
O42 O 0.43086 0.54868 0.67763 0.0
C43 C 0.44913 0.51106 0.70911 0.0
Fe44 Fe 0.56382 0.08898 0.77651 0.0
Fe45 Fe 0.53976 0.05926 0.81237 0.0
O46 O 0.54635 0.06502 0.7834 0.0
Fe47 Fe 0.53544 0.04686 0.76157 0.0
O48 O 0.56385 0.04034 0.75149 0.0
O49 O 0.57738 0.07547 0.75154 0.0
O50 O 0.58753 0.07823 0.79355 0.0
C51 C 0.586 0.07322 0.81448 0.0
C52 C 0.5311 0.09153 0.74294 0.0
O53 O 0.56664 0.07067 0.8238 0.0
C54 C 0.49825 0.04846 0.78978 0.0
O55 O 0.55316 0.10694 0.80017 0.0
O56 O 0.52544 0.08647 0.81524 0.0
O57 O 0.53167 0.06997 0.74057 0.0
O58 O 0.54153 0.10138 0.75908 0.0
C59 C 0.54882 0.01616 0.79684 0.0
O60 O 0.51167 0.04662 0.80667 0.0
O61 O 0.50596 0.05189 0.76996 0.0
C62 C 0.53471 0.1056 0.81153 0.0
O63 O 0.55366 0.03172 0.81103 0.0
O64 O 0.53744 0.02054 0.77883 0.0
C65 C 0.57876 0.05469 0.7455 0.0
Fe66 Fe 0.94074 0.93063 0.31404 0.0
Fe67 Fe 0.95489 0.94016 0.26459 0.0
O68 O 0.93997 0.92328 0.28479 0.0
Fe69 Fe 0.92435 0.89887 0.27588 0.0
O70 O 0.90221 0.90133 0.29831 0.0
O71 O 0.91011 0.93426 0.3146 0.0
O72 O 0.94285 0.96146 0.30907 0.0
C73 C 0.93697 0.97345 0.29201 0.0
C74 C 0.94494 0.88282 0.3145 0.0
O75 O 0.93846 0.96554 0.27196 0.0
C76 C 0.96434 0.89719 0.24897 0.0
O77 O 0.97153 0.92748 0.3151 0.0
O78 O 0.97828 0.948 0.28431 0.0
O79 O 0.9422 0.88026 0.29325 0.0
O80 O 0.93871 0.90107 0.32432 0.0
C81 C 0.91322 0.92923 0.2423 0.0
O82 O 0.97225 0.91597 0.25609 0.0
O83 O 0.94347 0.89211 0.25192 0.0
C84 C 0.98522 0.9385 0.30259 0.0
O85 O 0.93409 0.93521 0.24142 0.0
O86 O 0.90604 0.91621 0.25796 0.0
C87 C 0.896 0.91863 0.30989 0.0
Fe88 Fe 0.21631 0.05727 0.42254 0.0
Fe89 Fe 0.19013 0.03884 0.46398 0.0
O90 O 0.21628 0.04496 0.45025 0.0
Fe91 Fe 0.24244 0.03875 0.46426 0.0
O92 O 0.25064 0.06848 0.46348 0.0
O93 O 0.24284 0.07384 0.42702 0.0
O94 O 0.20077 0.08227 0.43229 0.0
C95 C 0.18165 0.08136 0.44222 0.0
C96 C 0.25057 0.02594 0.41838 0.0
O97 O 0.17459 0.06284 0.45102 0.0
C98 C 0.21783 0.00077 0.4753 0.0
O99 O 0.18987 0.04291 0.41311 0.0
O100 O 0.1816 0.01945 0.44132 0.0
O101 O 0.2581 0.03222 0.43775 0.0
O102 O 0.23159 0.03303 0.41106 0.0
C103 C 0.21457 0.05612 0.49982 0.0
O104 O 0.20098 0.01375 0.47951 0.0
O105 O 0.2356 0.00852 0.46586 0.0
C106 C 0.18 0.02505 0.42053 0.0
O107 O 0.19705 0.05789 0.48733 0.0
O108 O 0.23155 0.04429 0.49335 0.0
C109 C 0.25202 0.08042 0.44558 0.0
Fe110 Fe 0.31393 0.94304 0.94493 0.0
Fe111 Fe 0.26326 0.95283 0.95418 0.0
O112 O 0.28489 0.94039 0.93695 0.0
Fe113 Fe 0.27759 0.92524 0.91168 0.0
O114 O 0.30151 0.90481 0.91361 0.0
O115 O 0.31701 0.91231 0.94703 0.0
O116 O 0.30845 0.94314 0.97582 0.0
C117 C 0.2916 0.93593 0.98736 0.0
C118 C 0.31499 0.94883 0.89689 0.0
O119 O 0.27168 0.9361 0.97902 0.0
C120 C 0.24693 0.96274 0.91151 0.0
O121 O 0.31254 0.97394 0.94337 0.0
O122 O 0.2808 0.97742 0.96326 0.0
O123 O 0.29396 0.94489 0.89401 0.0
O124 O 0.32482 0.94343 0.91546 0.0
C125 C 0.24454 0.91008 0.941 0.0
O126 O 0.25328 0.97042 0.93067 0.0
O127 O 0.25238 0.94274 0.90518 0.0
C128 C 0.29871 0.98611 0.9546 0.0
O129 O 0.242 0.93044 0.94807 0.0
O130 O 0.26082 0.90483 0.92785 0.0
C131 C 0.31334 0.89863 0.93074 0.0
Fe132 Fe 0.71655 0.42713 0.589 0.0
Fe133 Fe 0.6802 0.44298 0.5548 0.0
O134 O 0.70917 0.44097 0.56302 0.0
Fe135 Fe 0.73068 0.45301 0.54543 0.0
O136 O 0.7522 0.43135 0.55278 0.0
O137 O 0.73367 0.40628 0.57395 0.0
O138 O 0.69274 0.40629 0.58786 0.0
C139 C 0.68085 0.39937 0.57099 0.0
C140 C 0.74596 0.46547 0.58788 0.0
O141 O 0.67747 0.41222 0.554 0.0
C142 C 0.69519 0.48578 0.54364 0.0
O143 O 0.69996 0.44738 0.60557 0.0
O144 O 0.66918 0.44457 0.58417 0.0
O145 O 0.73982 0.47189 0.56823 0.0
O146 O 0.74153 0.44541 0.59484 0.0
C147 C 0.70292 0.43428 0.51285 0.0
O148 O 0.68129 0.47393 0.55512 0.0
O149 O 0.71294 0.47678 0.53507 0.0
C150 C 0.67899 0.45117 0.60236 0.0
O151 O 0.6859 0.44175 0.52398 0.0
O152 O 0.72279 0.43504 0.52129 0.0
C153 C 0.74991 0.41127 0.56067 0.0
Fe154 Fe 0.77931 0.56146 0.07593 0.0
Fe155 Fe 0.80629 0.54737 0.03319 0.0
O156 O 0.77996 0.55075 0.0475 0.0
Fe157 Fe 0.75428 0.54331 0.0332 0.0
O158 O 0.74407 0.57224 0.03552 0.0
O159 O 0.75201 0.57681 0.07214 0.0
O160 O 0.79347 0.58784 0.06775 0.0
C161 C 0.81247 0.58881 0.05764 0.0
C162 C 0.74683 0.52788 0.07838 0.0
O163 O 0.82049 0.57142 0.04754 0.0
C164 C 0.78146 0.50799 0.0201 0.0
O165 O 0.80651 0.54787 0.08449 0.0
O166 O 0.81609 0.52726 0.05445 0.0
O167 O 0.73913 0.53436 0.05919 0.0
O168 O 0.76524 0.53591 0.08622 0.0
C169 C 0.78064 0.56433 -0.00168 0.0
O170 O 0.79704 0.52256 0.01623 0.0
O171 O 0.76328 0.5138 0.03011 0.0
C172 C 0.81714 0.53111 0.07566 0.0
O173 O 0.79784 0.56729 0.01105 0.0
O174 O 0.76467 0.55096 0.00442 0.0
C175 C 0.74228 0.58346 0.05387 0.0
Fe176 Fe 0.41645 0.22494 0.062 0.0
Fe177 Fe 0.45465 0.19455 0.04311 0.0
O178 O 0.44309 0.22198 0.04777 0.0
Fe179 Fe 0.45822 0.24639 0.03807 0.0
O180 O 0.46016 0.25731 0.06678 0.0
O181 O 0.42396 0.25241 0.07594 0.0
O182 O 0.42692 0.21073 0.08761 0.0
C183 C 0.4357 0.19103 0.0875 0.0
C184 C 0.41213 0.25642 0.02769 0.0
O185 O 0.44246 0.18198 0.06903 0.0
C186 C 0.46533 0.21785 0.00202 0.0
O187 O 0.4043 0.19809 0.05051 0.0
O188 O 0.43025 0.18623 0.02599 0.0
O189 O 0.43234 0.26321 0.03175 0.0
O190 O 0.40418 0.23891 0.03738 0.0
C191 C 0.49302 0.2177 0.05584 0.0
O192 O 0.46915 0.20203 0.01632 0.0
O193 O 0.45732 0.23677 0.00854 0.0
C194 C 0.40987 0.18641 0.03304 0.0
O195 O 0.47954 0.2014 0.06004 0.0
O196 O 0.4869 0.23398 0.04283 0.0
C197 C 0.44354 0.261 0.07995 0.0
Fe198 Fe 0.94147 0.25564 0.94598 0.0
Fe199 Fe 0.90088 0.27587 0.9192 0.0
O200 O 0.92624 0.27963 0.93547 0.0
Fe201 Fe 0.93635 0.30748 0.94122 0.0
O202 O 0.96278 0.30174 0.92619 0.0
O203 O 0.96988 0.2691 0.94354 0.0
O204 O 0.94566 0.24487 0.91737 0.0
C205 C 0.92985 0.24051 0.90334 0.0
C206 C 0.94497 0.284 0.9828 0.0
O207 O 0.91001 0.24881 0.90598 0.0
C208 C 0.8906 0.31338 0.94789 0.0
O209 O 0.91579 0.23805 0.9503 0.0
O210 O 0.88724 0.26138 0.94278 0.0
O211 O 0.94901 0.30032 0.96912 0.0
O212 O 0.93833 0.26486 0.97541 0.0
C213 C 0.92092 0.31054 0.89539 0.0
O214 O 0.8871 0.30213 0.92965 0.0
O215 O 0.91039 0.31465 0.95645 0.0
C216 C 0.89519 0.24419 0.95307 0.0
O217 O 0.91305 0.29044 0.89457 0.0
O218 O 0.92559 0.31979 0.91445 0.0
C219 C 0.97631 0.28568 0.93113 0.0
Fe220 Fe 0.53845 0.74536 0.46233 0.0
Fe221 Fe 0.58032 0.72464 0.43817 0.0
O222 O 0.55363 0.72124 0.45209 0.0
Fe223 Fe 0.54217 0.69365 0.45596 0.0
O224 O 0.51732 0.70079 0.43909 0.0
O225 O 0.50976 0.73287 0.45719 0.0
O226 O 0.5367 0.75711 0.43392 0.0
C227 C 0.5536 0.76142 0.42128 0.0
C228 C 0.5314 0.71592 0.49759 0.0
O229 O 0.57301 0.7525 0.42521 0.0
C230 C 0.58691 0.68569 0.46614 0.0
O231 O 0.56435 0.76205 0.46929 0.0
O232 O 0.59245 0.73778 0.46338 0.0
O233 O 0.52751 0.70039 0.48296 0.0
O234 O 0.53935 0.73499 0.49151 0.0
C235 C 0.56133 0.69144 0.41149 0.0
O236 O 0.59238 0.6975 0.44877 0.0
O237 O 0.56649 0.6851 0.47303 0.0
C238 C 0.5844 0.75495 0.47359 0.0
O239 O 0.56979 0.71131 0.41209 0.0
O240 O 0.55463 0.68178 0.4297 0.0
C241 C 0.50365 0.71673 0.44393 0.0
Fe242 Fe 0.06016 0.81076 0.54148 0.0
Fe243 Fe 0.04934 0.75958 0.53963 0.0
O244 O 0.06685 0.7824 0.54943 0.0
Fe245 Fe 0.09098 0.77689 0.56701 0.0
O246 O 0.08831 0.80341 0.58365 0.0
O247 O 0.05646 0.81916 0.57113 0.0
O248 O 0.02917 0.806 0.54027 0.0
C249 C 0.01659 0.79109 0.5497 0.0
C250 C 0.10836 0.80997 0.53889 0.0
O251 O 0.02425 0.77132 0.55388 0.0
C252 C 0.0922 0.7418 0.53381 0.0
O253 O 0.0636 0.80396 0.51138 0.0
O254 O 0.0418 0.77335 0.51236 0.0
O255 O 0.11046 0.78998 0.54666 0.0
O256 O 0.08979 0.82081 0.54116 0.0
C257 C 0.06029 0.74662 0.585 0.0
O258 O 0.07317 0.74658 0.5248 0.0
O259 O 0.09777 0.74952 0.55331 0.0
C260 C 0.05224 0.78869 0.50116 0.0
O261 O 0.05388 0.7416 0.56492 0.0
O262 O 0.07335 0.76341 0.58863 0.0
C263 C 0.07141 0.81668 0.58656 0.0
Fe264 Fe 0.92596 0.58607 0.77332 0.0
Fe265 Fe 0.94269 0.5467 0.80357 0.0
O266 O 0.93995 0.55931 0.77628 0.0
Fe267 Fe 0.95133 0.54505 0.75205 0.0
O268 O 0.92349 0.54351 0.739 0.0
O269 O 0.91361 0.57939 0.74495 0.0
O270 O 0.89961 0.57517 0.7855 0.0
C271 C 0.89826 0.56594 0.80493 0.0
C272 C 0.96171 0.5916 0.74375 0.0
O273 O 0.916 0.55855 0.81491 0.0
C274 C 0.98532 0.53708 0.78285 0.0
O275 O 0.93593 0.59738 0.80117 0.0
O276 O 0.9592 0.57068 0.81393 0.0
O277 O 0.95853 0.57142 0.73649 0.0
O278 O 0.95126 0.59889 0.7611 0.0
C279 C 0.93211 0.50902 0.77836 0.0
O280 O 0.96995 0.53253 0.79741 0.0
O281 O 0.9801 0.54568 0.76376 0.0
C282 C 0.95259 0.59121 0.81372 0.0
O283 O 0.92636 0.52197 0.79464 0.0
O284 O 0.94596 0.51598 0.76316 0.0
C285 C 0.91053 0.56027 0.73506 0.0
Fe286 Fe 0.54468 0.46484 0.25181 0.0
Fe287 Fe 0.56562 0.42177 0.27373 0.0
O288 O 0.55269 0.44911 0.27643 0.0
Fe289 Fe 0.54757 0.46081 0.30376 0.0
O290 O 0.56576 0.4851 0.29781 0.0
O291 O 0.54983 0.49323 0.26478 0.0
O292 O 0.57392 0.46561 0.24218 0.0
C293 C 0.58626 0.44827 0.23877 0.0
C294 C 0.50781 0.47266 0.27897 0.0
O295 O 0.58093 0.42889 0.24703 0.0
C296 C 0.53492 0.41646 0.31096 0.0
O297 O 0.53803 0.43949 0.23435 0.0
O298 O 0.5411 0.41073 0.25835 0.0
O299 O 0.52163 0.47639 0.29529 0.0
O300 O 0.51486 0.46482 0.26018 0.0
C301 C 0.59079 0.43941 0.30897 0.0
O302 O 0.55247 0.40998 0.29994 0.0
O303 O 0.5291 0.43722 0.31121 0.0
C304 C 0.53276 0.41935 0.24042 0.0
O305 O 0.59107 0.43087 0.28914 0.0
O306 O 0.57246 0.44736 0.31732 0.0
C307 C 0.56216 0.49902 0.28174 0.0
Fe308 Fe 0.43097 0.91358 0.22617 0.0
Fe309 Fe 0.45096 0.94732 0.19147 0.0
O310 O 0.44601 0.93927 0.22012 0.0
Fe311 Fe 0.4563 0.9569 0.24262 0.0
O312 O 0.42768 0.96088 0.2535 0.0
O313 O 0.41754 0.9246 0.25235 0.0
O314 O 0.40566 0.92316 0.21067 0.0
C315 C 0.40598 0.9296 0.19005 0.0
C316 C 0.46542 0.91215 0.25801 0.0
O317 O 0.42467 0.93448 0.18032 0.0
C318 C 0.49249 0.95875 0.21333 0.0
O319 O 0.44194 0.89805 0.20111 0.0
O320 O 0.46727 0.92157 0.18627 0.0
O321 O 0.46197 0.93311 0.26227 0.0
O322 O 0.45518 0.90225 0.24178 0.0
C323 C 0.43952 0.9885 0.21003 0.0
O324 O 0.4783 0.96166 0.1972 0.0
O325 O 0.48569 0.95393 0.23319 0.0
C326 C 0.45983 0.90155 0.18936 0.0
O327 O 0.43485 0.97348 0.19524 0.0
O328 O 0.45249 0.98394 0.22684 0.0
C329 C 0.41421 0.94497 0.25905 0.0
Fe330 Fe 0.07305 0.09101 0.7236 0.0
Fe331 Fe 0.06076 0.05773 0.68522 0.0
O332 O 0.05969 0.0654 0.71438 0.0
Fe333 Fe 0.04508 0.04768 0.73413 0.0
O334 O 0.06448 0.05426 0.75813 0.0
O335 O 0.0917 0.0753 0.74267 0.0
O336 O 0.09635 0.0898 0.70229 0.0
C337 C 0.10434 0.07281 0.69135 0.0
C338 C 0.03182 0.09007 0.74859 0.0
O339 O 0.09158 0.0562 0.68611 0.0
C340 C 0.01634 0.04734 0.69506 0.0
O341 O 0.0548 0.10809 0.70507 0.0
O342 O 0.06128 0.08722 0.67457 0.0
O343 O 0.02575 0.07062 0.74157 0.0
O344 O 0.05235 0.09672 0.7465 0.0
C345 C 0.06609 0.01537 0.70794 0.0
O346 O 0.02988 0.05885 0.68283 0.0
O347 O 0.02316 0.03816 0.71354 0.0
C348 C 0.05334 0.10513 0.68374 0.0
O349 O 0.06049 0.02689 0.69047 0.0
O350 O 0.06336 0.02337 0.72781 0.0
C351 C 0.08484 0.06186 0.75812 0.0
Fe352 Fe 0.7779 0.93514 0.58141 0.0
Fe353 Fe 0.80454 0.95625 0.5416 0.0
O354 O 0.77824 0.949 0.55442 0.0
Fe355 Fe 0.75236 0.95571 0.54013 0.0
O356 O 0.7444 0.92602 0.53917 0.0
O357 O 0.75194 0.91808 0.57524 0.0
O358 O 0.79439 0.91109 0.5707 0.0
C359 C 0.8138 0.91303 0.56151 0.0
C360 C 0.74265 0.96537 0.58663 0.0
O361 O 0.82051 0.93219 0.55393 0.0
C362 C 0.77661 0.99435 0.53122 0.0
O363 O 0.80379 0.94983 0.59222 0.0
O364 O 0.81186 0.9748 0.56522 0.0
O365 O 0.73595 0.96066 0.56653 0.0
O366 O 0.7616 0.9582 0.59397 0.0
C367 C 0.7814 0.9403 0.50447 0.0
O368 O 0.7936 0.98169 0.52676 0.0
O369 O 0.75887 0.98609 0.54024 0.0
C370 C 0.81335 0.96827 0.58574 0.0
O371 O 0.79856 0.93808 0.51737 0.0
O372 O 0.76407 0.95164 0.51103 0.0
C373 C 0.74276 0.91292 0.55619 0.0
Fe374 Fe 0.73543 0.04111 0.04713 0.0
Fe375 Fe 0.71776 0.06615 0.09002 0.0
O376 O 0.71241 0.05117 0.06413 0.0
Fe377 Fe 0.68391 0.04626 0.05528 0.0
O378 O 0.69012 0.04747 0.02461 0.0
O379 O 0.72621 0.05776 0.02249 0.0
O380 O 0.75455 0.06498 0.05439 0.0
C381 C 0.75015 0.08478 0.06207 0.0
C382 C 0.70327 0.00493 0.04535 0.0
O383 O 0.73325 0.08822 0.07497 0.0
C384 C 0.68209 0.03901 0.10301 0.0
O385 O 0.74626 0.02378 0.07038 0.0
O386 O 0.74408 0.05046 0.09685 0.0
O387 O 0.68798 0.01561 0.0562 0.0
O388 O 0.72034 0.0154 0.03702 0.0
C389 C 0.6809 0.09038 0.07025 0.0
O390 O 0.70251 0.04489 0.10677 0.0
O391 O 0.67237 0.04415 0.08433 0.0
C392 C 0.75136 0.03124 0.08998 0.0
O393 O 0.69247 0.08473 0.08773 0.0
O394 O 0.67826 0.07662 0.05382 0.0
C395 C 0.70647 0.05668 0.01381 0.0
Fe396 Fe 0.25845 0.53312 0.43953 0.0
Fe397 Fe 0.27325 0.56292 0.39853 0.0
O398 O 0.28009 0.54409 0.42138 0.0
Fe399 Fe 0.30887 0.53614 0.42586 0.0
O400 O 0.30897 0.54888 0.45401 0.0
O401 O 0.27656 0.53332 0.46545 0.0
O402 O 0.24951 0.56145 0.44766 0.0
C403 C 0.24351 0.57704 0.43409 0.0
C404 C 0.28514 0.49508 0.43569 0.0
O405 O 0.24895 0.57645 0.41313 0.0
C406 C 0.30624 0.53336 0.37951 0.0
O407 O 0.23682 0.53127 0.41673 0.0
O408 O 0.25507 0.54165 0.38538 0.0
O409 O 0.30254 0.5078 0.43756 0.0
O410 O 0.2656 0.50367 0.43285 0.0
C411 C 0.31213 0.58297 0.41454 0.0
O412 O 0.29633 0.55266 0.3796 0.0
O413 O 0.31 0.52283 0.39795 0.0
C414 C 0.23888 0.5312 0.3951 0.0
O415 O 0.29108 0.58542 0.41048 0.0
O416 O 0.32089 0.56316 0.41519 0.0
C417 C 0.29511 0.54385 0.46978 0.0
Fe418 Fe 0.21507 0.42686 0.90557 0.0
Fe419 Fe 0.18372 0.45 0.94056 0.0
O420 O 0.21151 0.44409 0.93038 0.0
Fe421 Fe 0.23559 0.45555 0.94495 0.0
O422 O 0.2469 0.4274 0.94999 0.0
O423 O 0.24225 0.41397 0.91511 0.0
O424 O 0.2006 0.40266 0.91856 0.0
C425 C 0.18067 0.40372 0.92669 0.0
C426 C 0.2466 0.46062 0.89809 0.0
O427 O 0.17145 0.42282 0.931 0.0
C428 C 0.2067 0.49204 0.94719 0.0
O429 O 0.18867 0.43685 0.89149 0.0
O430 O 0.17622 0.46419 0.91414 0.0
O431 O 0.25277 0.45939 0.91887 0.0
O432 O 0.22943 0.44979 0.89088 0.0
C433 C 0.20606 0.44135 0.98067 0.0
O434 O 0.19072 0.4783 0.9521 0.0
O435 O 0.22595 0.48472 0.94094 0.0
C436 C 0.1773 0.45508 0.8946 0.0
O437 O 0.1898 0.43614 0.96745 0.0
O438 O 0.22263 0.45352 0.97367 0.0
C439 C 0.25114 0.41265 0.93489 0.0
Fe440 Fe 0.58509 0.77408 0.93961 0.0
Fe441 Fe 0.54996 0.80677 0.96065 0.0
O442 O 0.55961 0.77873 0.95537 0.0
Fe443 Fe 0.5437 0.75519 0.96603 0.0
O444 O 0.55174 0.73577 0.94272 0.0
O445 O 0.56963 0.75785 0.91818 0.0
O446 O 0.5815 0.79924 0.92087 0.0
C447 C 0.56395 0.8112 0.91634 0.0
C448 C 0.58746 0.74249 0.97603 0.0
O449 O 0.54773 0.81271 0.93043 0.0
C450 C 0.54114 0.7872 0.00199 0.0
O451 O 0.60217 0.79011 0.95999 0.0
O452 O 0.5786 0.81932 0.96245 0.0
O453 O 0.56762 0.74639 0.98347 0.0
O454 O 0.59313 0.74827 0.95585 0.0
C455 C 0.50946 0.78249 0.95011 0.0
O456 O 0.5517 0.80258 0.99125 0.0
O457 O 0.53282 0.77018 0.99144 0.0
C458 C 0.59784 0.81021 0.96647 0.0
O459 O 0.51954 0.79916 0.9597 0.0
O460 O 0.51877 0.76302 0.94916 0.0
C461 C 0.55773 0.74038 0.92243 0.0
Fe462 Fe 0.0481 0.72996 0.04567 0.0
Fe463 Fe 0.08987 0.71164 0.07202 0.0
O464 O 0.06434 0.70666 0.05636 0.0
Fe465 Fe 0.05514 0.67833 0.05133 0.0
O466 O 0.02458 0.68522 0.05202 0.0
O467 O 0.02303 0.72148 0.06195 0.0
O468 O 0.05534 0.74918 0.06951 0.0
C469 C 0.06238 0.74492 0.08961 0.0
C470 C 0.04566 0.69728 0.00973 0.0
O471 O 0.07456 0.72758 0.09367 0.0
C472 C 0.10307 0.67569 0.04546 0.0
O473 O 0.07201 0.73995 0.02867 0.0
O474 O 0.09746 0.73773 0.05635 0.0
O475 O 0.05662 0.6822 0.02062 0.0
O476 O 0.03792 0.7148 0.01993 0.0
C477 C 0.06942 0.67442 0.09558 0.0
O478 O 0.1068 0.69614 0.05119 0.0
O479 O 0.08408 0.66622 0.04983 0.0
C480 C 0.09157 0.74452 0.03661 0.0
O481 O 0.0869 0.68628 0.09059 0.0
O482 O 0.053 0.67273 0.08166 0.0
C483 C 0.01396 0.70191 0.06085 0.0
Fe484 Fe 0.43376 0.31321 0.54711 0.0
Fe485 Fe 0.44385 0.26327 0.53534 0.0
O486 O 0.42637 0.28402 0.5488 0.0
Fe487 Fe 0.40142 0.27566 0.56386 0.0
O488 O 0.40308 0.29898 0.58522 0.0
O489 O 0.43617 0.31518 0.57787 0.0
O490 O 0.46474 0.30824 0.54662 0.0
C491 C 0.47646 0.29138 0.55358 0.0
C492 C 0.38579 0.3135 0.5415 0.0
O493 O 0.46851 0.27134 0.55252 0.0
C494 C 0.40122 0.24724 0.52474 0.0
O495 O 0.43184 0.31289 0.5162 0.0
O496 O 0.45264 0.28196 0.51154 0.0
O497 O 0.3833 0.29235 0.54494 0.0
O498 O 0.40411 0.32356 0.54732 0.0
C499 C 0.43157 0.2427 0.57738 0.0
O500 O 0.42033 0.25399 0.51735 0.0
O501 O 0.39534 0.25103 0.54528 0.0
C502 C 0.44341 0.29987 0.50349 0.0
O503 O 0.43825 0.24101 0.5568 0.0
O504 O 0.41803 0.25836 0.58347 0.0
C505 C 0.42005 0.31101 0.59154 0.0
Fe506 Fe 0.90226 0.21393 0.43109 0.0
Fe507 Fe 0.93347 0.17894 0.45458 0.0
O508 O 0.92702 0.20754 0.4475 0.0
Fe509 Fe 0.9453 0.22983 0.45699 0.0
O510 O 0.93997 0.24831 0.43214 0.0
O511 O 0.91933 0.22705 0.4089 0.0
O512 O 0.90322 0.18744 0.41403 0.0
C513 C 0.91966 0.17384 0.41015 0.0
C514 C 0.9033 0.24845 0.46487 0.0
O515 O 0.93536 0.17107 0.42472 0.0
C516 C 0.94407 0.19988 0.49493 0.0
O517 O 0.88347 0.20119 0.45226 0.0
O518 O 0.90359 0.16972 0.45646 0.0
O519 O 0.92232 0.24259 0.47319 0.0
O520 O 0.89701 0.24149 0.44527 0.0
C521 C 0.9768 0.19808 0.44412 0.0
O522 O 0.9319 0.1851 0.48496 0.0
O523 O 0.95402 0.21542 0.48358 0.0
C524 C 0.88546 0.18109 0.4598 0.0
O525 O 0.96461 0.18303 0.4539 0.0
O526 O 0.96944 0.21818 0.44141 0.0
C527 C 0.93311 0.24333 0.41215 0.0
H528 H 0.12629 0.4151 0.24758 0.0
H529 H 0.15249 0.43222 0.27549 0.0
H530 H 0.0953 0.4623 0.31109 0.0
H531 H 0.06899 0.4455 0.28327 0.0
H532 H 0.13021 0.4933 0.2997 0.0
H533 H 0.16435 0.41604 0.34341 0.0
H534 H 0.1657 0.41518 0.31267 0.0
H535 H 0.13833 0.41562 0.32664 0.0
C536 C 0.11926 0.4251 0.26152 0.0
C537 C 0.09555 0.42894 0.2632 0.0
C538 C 0.13424 0.43476 0.27749 0.0
C539 C 0.12574 0.44827 0.29542 0.0
C540 C 0.10212 0.4518 0.2974 0.0
H541 H 0.20252 0.5055 0.40966 0.0
H542 H 0.17428 0.48554 0.38591 0.0
C543 C 0.08713 0.44217 0.28148 0.0
C544 C 0.14155 0.46014 0.31117 0.0
H545 H 0.18324 0.45134 0.35117 0.0
C546 C 0.14172 0.48415 0.31106 0.0
C547 C 0.15634 0.44809 0.32605 0.0
C548 C 0.15612 0.4223 0.32743 0.0
C549 C 0.1567 0.4965 0.32516 0.0
C550 C 0.17202 0.48445 0.33948 0.0
C551 C 0.17152 0.46045 0.34 0.0
C552 C 0.18898 0.49653 0.35376 0.0
C553 C 0.15597 0.52232 0.32472 0.0
C554 C 0.2066 0.50909 0.34343 0.0
C555 C 0.22272 0.5205 0.35687 0.0
C556 C 0.2215 0.5195 0.38091 0.0
C557 C 0.20385 0.50675 0.3912 0.0
C558 C 0.18776 0.49528 0.3777 0.0
H559 H 0.13977 0.52879 0.3171 0.0
H560 H 0.1578 0.52947 0.34226 0.0
H561 H 0.1704 0.52881 0.31422 0.0
H562 H 0.20796 0.50992 0.32494 0.0
H563 H 0.23618 0.53002 0.34839 0.0
H564 H 0.2867 0.48369 0.90592 0.0
H565 H 0.31005 0.50405 0.8778 0.0
H566 H 0.26098 0.48785 0.82491 0.0
H567 H 0.23764 0.46729 0.85272 0.0
H568 H 0.3056 0.47618 0.81401 0.0
H569 H 0.30036 0.56571 0.84517 0.0
H570 H 0.30808 0.54558 0.86709 0.0
H571 H 0.28033 0.54378 0.85383 0.0
C572 C 0.28078 0.4846 0.88835 0.0
C573 C 0.26043 0.47371 0.88152 0.0
C574 C 0.29402 0.49642 0.87237 0.0
C575 C 0.287 0.49768 0.84942 0.0
C576 C 0.26655 0.48716 0.84262 0.0
H577 H 0.36714 0.56893 0.74369 0.0
H578 H 0.33422 0.55592 0.76632 0.0
C579 C 0.25332 0.47534 0.85853 0.0
C580 C 0.30205 0.50814 0.83212 0.0
H581 H 0.33091 0.55716 0.81897 0.0
C582 C 0.31085 0.49398 0.81485 0.0
C583 C 0.30861 0.53141 0.83317 0.0
C584 C 0.29869 0.54758 0.85068 0.0
C585 C 0.32705 0.5022 0.79929 0.0
C586 C 0.33467 0.52504 0.80126 0.0
C587 C 0.32502 0.53959 0.81772 0.0
C588 C 0.3542 0.53334 0.7878 0.0
C589 C 0.33646 0.48627 0.78127 0.0
C590 C 0.37612 0.52504 0.79275 0.0
C591 C 0.39485 0.53243 0.78007 0.0
C592 C 0.39194 0.54826 0.76218 0.0
C593 C 0.36989 0.55669 0.75735 0.0
C594 C 0.35112 0.54935 0.77022 0.0
H595 H 0.32525 0.47111 0.77866 0.0
H596 H 0.3385 0.49533 0.76467 0.0
H597 H 0.35359 0.48012 0.78674 0.0
H598 H 0.37871 0.51277 0.80643 0.0
H599 H 0.41157 0.52556 0.78419 0.0
H600 H 0.61539 0.07969 0.73002 0.0
H601 H 0.64522 0.0672 0.70336 0.0
H602 H 0.61309 0.00088 0.69827 0.0
H603 H 0.58362 0.01292 0.72515 0.0
H604 H 0.6592 -0.00202 0.70454 0.0
H605 H 0.63852 0.05879 0.63432 0.0
H606 H 0.64433 0.07193 0.66155 0.0
H607 H 0.61957 0.05394 0.65823 0.0
C608 C 0.61467 0.06246 0.72319 0.0
C609 C 0.59705 0.04735 0.72963 0.0
C610 C 0.63164 0.05541 0.70787 0.0
C611 C 0.63112 0.03325 0.69858 0.0
C612 C 0.61373 0.01809 0.70519 0.0
H613 H 0.69711 0.97471 0.58083 0.0
H614 H 0.67116 0.99254 0.6084 0.0
C615 C 0.59688 0.02503 0.72055 0.0
C616 C 0.64884 0.02546 0.68228 0.0
H617 H 0.67085 0.03503 0.629 0.0
C618 C 0.66183 0.00612 0.68805 0.0
C619 C 0.65198 0.03599 0.6607 0.0
C620 C 0.63775 0.05619 0.65316 0.0
C621 C 0.67775 0.99681 0.67273 0.0
C622 C 0.68116 0.00753 0.65128 0.0
C623 C 0.6683 0.027 0.64555 0.0
C624 C 0.69726 -0.00187 0.63417 0.0
C625 C 0.69017 0.97514 0.67937 0.0
C626 C 0.72059 0.99587 0.63935 0.0
C627 C 0.7354 0.98548 0.62376 0.0
C628 C 0.72717 0.97745 0.60257 0.0
C629 C 0.70395 0.98061 0.59705 0.0
C630 C 0.68912 0.99083 0.61275 0.0
H631 H 0.68142 0.96604 0.6936 0.0
H632 H 0.69157 0.96329 0.66457 0.0
H633 H 0.70772 0.97952 0.6852 0.0
H634 H 0.7273 0.0019 0.65558 0.0
H635 H 0.75327 0.98363 0.62839 0.0
H636 H 0.86658 0.92652 0.24227 0.0
H637 H 0.84026 0.941 0.2132 0.0
H638 H 0.89749 0.9629 0.17201 0.0
H639 H 0.92397 0.94904 0.20131 0.0
H640 H 0.86676 0.99607 0.17665 0.0
H641 H 0.82216 0.91636 0.15134 0.0
H642 H 0.82105 0.92101 0.18168 0.0
H643 H 0.84824 0.91625 0.16798 0.0
C644 C 0.87358 0.93415 0.22689 0.0
C645 C 0.89735 0.93663 0.22407 0.0
C646 C 0.85851 0.94226 0.21021 0.0
C647 C 0.86694 0.95263 0.19026 0.0
C648 C 0.89066 0.95481 0.18723 0.0
H649 H 0.77785 0.99464 0.07751 0.0
H650 H 0.80681 0.97521 0.10073 0.0
C651 C 0.90575 0.94692 0.20401 0.0
C652 C 0.85098 0.96285 0.17346 0.0
H653 H 0.8036 0.95164 0.14108 0.0
C654 C 0.85312 0.98629 0.16866 0.0
C655 C 0.83341 0.94999 0.16279 0.0
C656 C 0.83121 0.92446 0.16602 0.0
C657 C 0.83766 -0.00258 0.15411 0.0
C658 C 0.81922 0.98487 0.14463 0.0
C659 C 0.81756 0.96126 0.14869 0.0
C660 C 0.80125 0.99611 0.13082 0.0
C661 C 0.84129 0.02249 0.14899 0.0
C662 C 0.7882 0.01389 0.14028 0.0
C663 C 0.77182 0.02513 0.12706 0.0
C664 C 0.76796 0.01857 0.10421 0.0
C665 C 0.78049 0.00017 0.09502 0.0
C666 C 0.79703 0.98905 0.10824 0.0
H667 H 0.85944 0.02759 0.1516 0.0
H668 H 0.83629 0.02666 0.13111 0.0
H669 H 0.83063 0.03288 0.16077 0.0
H670 H 0.79078 0.01916 0.15789 0.0
H671 H 0.76222 0.03901 0.13474 0.0
H672 H 0.36171 0.22556 0.53676 0.0
H673 H 0.33697 0.20221 0.51261 0.0
H674 H 0.38106 0.21456 0.45472 0.0
H675 H 0.40635 0.23776 0.47897 0.0
H676 H 0.31326 0.21365 0.47247 0.0
H677 H 0.37738 0.1445 0.45755 0.0
H678 H 0.38137 0.16601 0.47939 0.0
H679 H 0.38531 0.17321 0.44977 0.0
C680 C 0.36625 0.22333 0.51891 0.0
C681 C 0.38616 0.23332 0.50986 0.0
C682 C 0.35201 0.21005 0.5051 0.0
C683 C 0.3573 0.20651 0.48195 0.0
C684 C 0.37689 0.21681 0.47264 0.0
H685 H 0.27348 0.10223 0.40986 0.0
H686 H 0.29864 0.136 0.41234 0.0
C687 C 0.39128 0.23006 0.48652 0.0
C688 C 0.34236 0.19142 0.46815 0.0
H689 H 0.33959 0.13728 0.4463 0.0
C690 C 0.3191 0.19716 0.46623 0.0
C691 C 0.35009 0.17 0.45989 0.0
C692 C 0.37485 0.16287 0.46178 0.0
C693 C 0.3031 0.18136 0.45786 0.0
C694 C 0.31059 0.15936 0.45132 0.0
C695 C 0.33403 0.15427 0.45134 0.0
C696 C 0.29427 0.14028 0.44886 0.0
C697 C 0.2781 0.18772 0.45738 0.0
C698 C 0.28374 0.13167 0.4686 0.0
C699 C 0.2698 0.11239 0.46733 0.0
C700 C 0.26599 0.10143 0.44624 0.0
C701 C 0.2761 0.11041 0.42631 0.0
C702 C 0.29042 0.12962 0.42768 0.0
H703 H 0.2757 0.20659 0.45709 0.0
H704 H 0.26945 0.18012 0.44222 0.0
H705 H 0.26966 0.18092 0.47299 0.0
H706 H 0.28676 0.13958 0.48512 0.0
H707 H 0.2621 0.10597 0.48294 0.0
H708 H 0.20311 0.91669 0.96152 0.0
H709 H 0.17629 0.88748 0.9747 0.0
H710 H 0.22092 0.83455 0.94915 0.0
H711 H 0.24771 0.86369 0.93541 0.0
H712 H 0.1749 0.82597 0.94024 0.0
H713 H 0.18911 0.84894 0.03141 0.0
H714 H 0.17989 0.87258 0.01408 0.0
H715 H 0.20718 0.8594 0.00867 0.0
C716 C 0.2072 0.89884 0.95859 0.0
C717 C 0.22764 0.89248 0.94762 0.0
C718 C 0.19188 0.88219 0.96619 0.0
C719 C 0.19688 0.85889 0.96329 0.0
C720 C 0.21685 0.85247 0.95164 0.0
H721 H 0.13714 0.75068 0.04386 0.0
H722 H 0.16279 0.77707 0.02417 0.0
C723 C 0.23212 0.86913 0.94383 0.0
C724 C 0.18167 0.84126 0.97314 0.0
H725 H 0.15911 0.82272 0.02364 0.0
C726 C 0.17146 0.82516 0.95848 0.0
C727 C 0.17757 0.84009 0.99697 0.0
C728 C 0.18918 0.85602 0.01375 0.0
C729 C 0.15691 0.80804 0.96703 0.0
C730 C 0.15219 0.8074 0.99077 0.0
C731 C 0.16262 0.82337 0.00541 0.0
C732 C 0.13686 0.7901 0.0011 0.0
C733 C 0.14714 0.79058 0.95065 0.0
C734 C 0.11378 0.78855 0.99452 0.0
C735 C 0.09907 0.77331 0.00565 0.0
C736 C 0.10715 0.7597 0.02379 0.0
C737 C 0.13034 0.7611 0.03009 0.0
C738 C 0.14504 0.77612 0.01882 0.0
H739 H 0.15728 0.78955 0.93461 0.0
H740 H 0.14654 0.77332 0.95861 0.0
H741 H 0.12941 0.79559 0.946 0.0
H742 H 0.107 0.79955 0.98122 0.0
H743 H 0.08126 0.77267 0.00048 0.0
H744 H 0.86641 0.2721 0.44878 0.0
H745 H 0.84194 0.2984 0.47003 0.0
H746 H 0.88202 0.28689 0.53109 0.0
H747 H 0.90701 0.26094 0.5098 0.0
H748 H 0.81559 0.2898 0.50779 0.0
H749 H 0.88116 0.35635 0.52657 0.0
H750 H 0.88583 0.33377 0.50601 0.0
H751 H 0.88819 0.328 0.53615 0.0
C752 C 0.87012 0.27526 0.46669 0.0
C753 C 0.88875 0.26463 0.47758 0.0
C754 C 0.8561 0.29023 0.47881 0.0
C755 C 0.86038 0.29475 0.50202 0.0
C756 C 0.87877 0.28397 0.51305 0.0
H757 H 0.75572 0.36907 0.58027 0.0
H758 H 0.78354 0.33972 0.56939 0.0
C759 C 0.89296 0.26913 0.50088 0.0
C760 C 0.84527 0.31061 0.51454 0.0
H761 H 0.84415 0.36246 0.54136 0.0
C762 C 0.8218 0.30563 0.51529 0.0
C763 C 0.85356 0.33123 0.52418 0.0
C764 C 0.87852 0.33783 0.52308 0.0
C765 C 0.80617 0.32111 0.52478 0.0
C766 C 0.81443 0.34181 0.53427 0.0
C767 C 0.83799 0.34646 0.53418 0.0
C768 C 0.79872 0.35986 0.54226 0.0
C769 C 0.78093 0.31565 0.52356 0.0
C770 C 0.79867 0.3811 0.53111 0.0
C771 C 0.78307 0.39795 0.53744 0.0
C772 C 0.76718 0.3938 0.55499 0.0
C773 C 0.76763 0.37268 0.56653 0.0
C774 C 0.78342 0.35588 0.56031 0.0
H775 H 0.77725 0.30144 0.51143 0.0
H776 H 0.77483 0.3104 0.54076 0.0
H777 H 0.77097 0.33091 0.51815 0.0
H778 H 0.81038 0.38446 0.51713 0.0
H779 H 0.78315 0.41403 0.52819 0.0
H780 H 0.72389 0.6062 0.09084 0.0
H781 H 0.69794 0.63941 0.08963 0.0
H782 H 0.70215 0.64001 0.01591 0.0
H783 H 0.72767 0.60716 0.01682 0.0
H784 H 0.70762 0.68599 0.04498 0.0
H785 H 0.62979 0.63211 0.05772 0.0
H786 H 0.65516 0.6282 0.07499 0.0
H787 H 0.65518 0.61944 0.04557 0.0
C788 C 0.71936 0.61356 0.07442 0.0
C789 C 0.72757 0.60394 0.05391 0.0
C790 C 0.70463 0.63246 0.07379 0.0
C791 C 0.69829 0.64198 0.05268 0.0
C792 C 0.70698 0.63282 0.03233 0.0
H793 H 0.6298 0.72627 0.96453 0.0
H794 H 0.65661 0.70568 0.98905 0.0
C795 C 0.72142 0.61396 0.03291 0.0
C796 C 0.68152 0.66065 0.05096 0.0
H797 H 0.62476 0.66797 0.04 0.0
C798 C 0.6894 0.68239 0.04459 0.0
C799 C 0.65786 0.65582 0.05066 0.0
C800 C 0.6488 0.63267 0.05763 0.0
C801 C 0.67425 0.69893 0.0361 0.0
C802 C 0.65088 0.69319 0.0334 0.0
C803 C 0.64275 0.67222 0.04184 0.0
C804 C 0.63524 0.70722 0.01931 0.0
C805 C 0.6836 0.72198 0.02916 0.0
C806 C 0.61405 0.71429 0.02799 0.0
C807 C 0.5985 0.72572 0.01389 0.0
C808 C 0.60385 0.73015 0.9908 0.0
C809 C 0.62516 0.72315 0.98221 0.0
C810 C 0.64063 0.71164 0.9963 0.0
H811 H 0.69866 0.72671 0.03981 0.0
H812 H 0.68934 0.72119 0.01107 0.0
H813 H 0.67044 0.7356 0.03074 0.0
H814 H 0.60947 0.71081 0.04563 0.0
H815 H 0.58228 0.73104 0.0211 0.0
H816 H 0.48371 0.27072 0.10072 0.0
H817 H 0.49141 0.29984 0.12949 0.0
H818 H 0.41976 0.31758 0.13106 0.0
H819 H 0.41175 0.28783 0.10222 0.0
H820 H 0.48277 0.3462 0.12241 0.0
H821 H 0.43787 0.31288 0.19963 0.0
H822 H 0.44461 0.29483 0.17544 0.0
H823 H 0.42162 0.31507 0.17349 0.0
C824 C 0.4695 0.28064 0.1073 0.0
C825 C 0.44714 0.27716 0.09907 0.0
C826 C 0.47394 0.29726 0.12377 0.0
C827 C 0.45619 0.31088 0.13236 0.0
C828 C 0.43366 0.30705 0.1248 0.0
H829 H 0.50501 0.43351 0.20544 0.0
H830 H 0.48206 0.40958 0.17971 0.0
C831 C 0.42912 0.29013 0.10833 0.0
C832 C 0.46208 0.32985 0.14811 0.0
H833 H 0.45947 0.34662 0.20404 0.0
C834 C 0.47745 0.34654 0.1402 0.0
C835 C 0.45512 0.33008 0.17126 0.0
C836 C 0.439 0.31223 0.18064 0.0
C837 C 0.48705 0.36274 0.15508 0.0
C838 C 0.48054 0.36269 0.17842 0.0
C839 C 0.46434 0.34665 0.18612 0.0
C840 C 0.49213 0.37757 0.19542 0.0
C841 C 0.50511 0.37881 0.1459 0.0
C842 C 0.5046 0.36758 0.21337 0.0
C843 C 0.51747 0.38119 0.22825 0.0
C844 C 0.51825 0.40507 0.22534 0.0
C845 C 0.5051 0.41512 0.20784 0.0
C846 C 0.49199 0.40149 0.19313 0.0
H847 H 0.51172 0.37318 0.12898 0.0
H848 H 0.49761 0.39612 0.14374 0.0
H849 H 0.51977 0.38016 0.15796 0.0
H850 H 0.50493 0.34915 0.21546 0.0
H851 H 0.52727 0.37292 0.24166 0.0
H852 H 0.96915 0.21682 0.89542 0.0
H853 H 0.97661 0.18929 0.86505 0.0
H854 H 0.90826 0.19877 0.83876 0.0
H855 H 0.90046 0.22661 0.86929 0.0
H856 H 0.9486 0.14739 0.85515 0.0
H857 H 0.95503 0.21068 0.78388 0.0
H858 H 0.95875 0.21929 0.81337 0.0
H859 H 0.93088 0.21159 0.80306 0.0
C860 C 0.95563 0.21312 0.88325 0.0
C861 C 0.93419 0.22391 0.88478 0.0
C862 C 0.95993 0.19734 0.86595 0.0
C863 C 0.94297 0.19211 0.84979 0.0
C864 C 0.92153 0.20274 0.85113 0.0
H865 H 0.98654 0.08115 0.75701 0.0
H866 H 0.95961 0.10491 0.7786 0.0
C867 C 0.91714 0.21857 0.86855 0.0
C868 C 0.9484 0.17563 0.83153 0.0
H869 H 0.96848 0.17347 0.77681 0.0
C870 C 0.95239 0.15283 0.83779 0.0
C871 C 0.95332 0.18303 0.80906 0.0
C872 C 0.94937 0.20748 0.80176 0.0
C873 C 0.96277 0.1375 0.82257 0.0
C874 C 0.96901 0.14528 0.80053 0.0
C875 C 0.96357 0.16766 0.79375 0.0
C876 C 0.98423 0.13166 0.78575 0.0
C877 C 0.96855 0.11367 0.83074 0.0
C878 C 0.00674 0.13919 0.78225 0.0
C879 C 0.02213 0.12576 0.76999 0.0
C880 C 0.01525 0.10452 0.76099 0.0
C881 C 0.99244 0.09731 0.76397 0.0
C882 C 0.97702 0.11083 0.77625 0.0
H883 H 0.96496 0.11133 0.84927 0.0
H884 H 0.95825 0.10099 0.82101 0.0
H885 H 0.98691 0.10989 0.82761 0.0
H886 H 0.01257 0.15524 0.78953 0.0
H887 H 0.03949 0.13191 0.76785 0.0
H888 H 0.49822 0.92864 0.28695 0.0
H889 H 0.52369 0.90664 0.31186 0.0
H890 H 0.49261 0.84392 0.28802 0.0
H891 H 0.46775 0.8657 0.26252 0.0
H892 H 0.51217 0.88154 0.34639 0.0
H893 H 0.5583 0.8257 0.28613 0.0
H894 H 0.54205 0.85021 0.2766 0.0
H895 H 0.52813 0.82304 0.28131 0.0
C896 C 0.49696 0.91013 0.2869 0.0
C897 C 0.4809 0.89887 0.2729 0.0
C898 C 0.51163 0.8976 0.30102 0.0
C899 C 0.51042 0.8736 0.30146 0.0
C900 C 0.49444 0.86236 0.28741 0.0
H901 H 0.51392 0.78111 0.40721 0.0
H902 H 0.50877 0.81054 0.37834 0.0
C903 C 0.48 0.87485 0.27306 0.0
C904 C 0.52385 0.8604 0.31844 0.0
H905 H 0.55345 0.81048 0.32502 0.0
C906 C 0.5217 0.86634 0.34163 0.0
C907 C 0.5368 0.84085 0.31231 0.0
C908 C 0.54166 0.83478 0.28768 0.0
C909 C 0.53036 0.85216 0.35888 0.0
C910 C 0.54089 0.83126 0.35277 0.0
C911 C 0.54493 0.82632 0.32963 0.0
C912 C 0.54474 0.81316 0.36995 0.0
C913 C 0.52727 0.8592 0.38356 0.0
C914 C 0.56665 0.80425 0.37416 0.0
C915 C 0.5697 0.78716 0.39071 0.0
C916 C 0.55083 0.77876 0.4031 0.0
C917 C 0.52889 0.78739 0.39826 0.0
C918 C 0.5259 0.80432 0.38182 0.0
H919 H 0.52655 0.87813 0.38526 0.0
H920 H 0.51084 0.85218 0.39002 0.0
H921 H 0.54136 0.85261 0.3945 0.0
H922 H 0.58134 0.81071 0.36488 0.0
H923 H 0.58679 0.78076 0.39396 0.0
H924 H 0.06357 0.75513 0.63105 0.0
H925 H 0.05177 0.72979 0.66244 0.0
H926 H 0.03092 0.67862 0.61339 0.0
H927 H 0.0424 0.70367 0.58204 0.0
H928 H 0.00403 0.70978 0.66561 0.0
H929 H 0.07383 0.64533 0.66192 0.0
H930 H 0.07715 0.67425 0.65138 0.0
H931 H 0.06166 0.65346 0.63479 0.0
C932 C 0.05663 0.7384 0.62699 0.0
C933 C 0.05389 0.73138 0.60409 0.0
C934 C 0.04994 0.72401 0.64489 0.0
C935 C 0.0408 0.70233 0.6401 0.0
C936 C 0.03826 0.69521 0.61734 0.0
H937 H 0.97734 0.58647 0.69996 0.0
H938 H -0.00155 0.61446 0.67716 0.0
C939 C 0.04469 0.70962 0.59947 0.0
C940 C 0.03245 0.68748 0.65866 0.0
H941 H 0.04041 0.63499 0.68284 0.0
C942 C 0.01212 0.69359 0.66976 0.0
C943 C 0.04309 0.66639 0.66372 0.0
C944 C 0.06525 0.65945 0.65249 0.0
C945 C 0.0014 0.67853 0.68505 0.0
C946 C 0.01173 0.6571 0.68971 0.0
C947 C 0.03256 0.65141 0.67921 0.0
C948 C 0.00039 0.63977 0.70421 0.0
C949 C 0.97853 0.68519 0.69505 0.0
C950 C 0.995 0.64455 0.7271 0.0
C951 C 0.9827 0.62872 0.74008 0.0
C952 C 0.9759 0.6077 0.73045 0.0
C953 C 0.98224 0.60254 0.70782 0.0
C954 C 0.99433 0.61849 0.6948 0.0
H955 H 0.97054 0.69961 0.68555 0.0
H956 H 0.96649 0.67046 0.69489 0.0
H957 H 0.98096 0.6907 0.71308 0.0
H958 H 4e-05 0.66064 0.73484 0.0
H959 H 0.97838 0.63302 0.7576 0.0
H960 H 0.87543 0.5899 0.72442 0.0
H961 H 0.84407 0.58327 0.69703 0.0
H962 H 0.87294 0.51756 0.67983 0.0
H963 H 0.90409 0.52396 0.70665 0.0
H964 H 0.8587 0.54481 0.64146 0.0
H965 H 0.79196 0.53553 0.70905 0.0
H966 H 0.80929 0.56104 0.70882 0.0
H967 H 0.82211 0.53402 0.71569 0.0
C968 C 0.87515 0.57415 0.71464 0.0
C969 C 0.89219 0.55742 0.7178 0.0
C970 C 0.85721 0.57037 0.69911 0.0
C971 C 0.85619 0.54986 0.68659 0.0
C972 C 0.87348 0.5335 0.68933 0.0
H973 H 0.76636 0.45589 0.62891 0.0
H974 H 0.79071 0.48103 0.65182 0.0
C975 C 0.89124 0.53719 0.70477 0.0
C976 C 0.83691 0.54449 0.67112 0.0
H977 H 0.78212 0.52425 0.67177 0.0
C978 C 0.84174 0.54081 0.64788 0.0
C979 C 0.81496 0.53917 0.67975 0.0
C980 C 0.80911 0.5425 0.7047 0.0
C981 C 0.82565 0.53055 0.63329 0.0
C982 C 0.80405 0.52421 0.64218 0.0
C983 C 0.79872 0.52918 0.66508 0.0
C984 C 0.78794 0.50994 0.62882 0.0
C985 C 0.83245 0.52513 0.60894 0.0
C986 C 0.77807 0.51803 0.60848 0.0
C987 C 0.76429 0.50362 0.5952 0.0
C988 C 0.76005 0.48094 0.60217 0.0
C989 C 0.76941 0.47318 0.62296 0.0
C990 C 0.78323 0.48756 0.63613 0.0
H991 H 0.85105 0.52774 0.60597 0.0
H992 H 0.82807 0.50714 0.60461 0.0
H993 H 0.82292 0.53647 0.59705 0.0
H994 H 0.78122 0.53538 0.60276 0.0
H995 H 0.75708 0.51023 0.57944 0.0
H996 H 0.60717 0.41467 0.21331 0.0
H997 H 0.63647 0.42021 0.18365 0.0
H998 H 0.63835 0.49243 0.19906 0.0
H999 H 0.60903 0.48718 0.22816 0.0
H1000 H 0.6304 0.48217 0.15297 0.0
H1001 H 0.70582 0.43525 0.18772 0.0
H1002 H 0.67896 0.42017 0.18637 0.0
H1003 H 0.68217 0.4439 0.20562 0.0
C1004 C 0.61413 0.43163 0.21056 0.0
C1005 C 0.60567 0.45054 0.22284 0.0
C1006 C 0.63088 0.43475 0.19369 0.0
C1007 C 0.63952 0.45672 0.18923 0.0
C1008 C 0.63178 0.47536 0.2022 0.0
H1009 H 0.74975 0.52205 0.12468 0.0
H1010 H 0.72392 0.50009 0.14908 0.0
C1011 C 0.61501 0.47233 0.21879 0.0
C1012 C 0.65534 0.46112 0.17003 0.0
H1013 H 0.71087 0.45519 0.15306 0.0
C1014 C 0.64793 0.47605 0.15275 0.0
C1015 C 0.67812 0.45306 0.16996 0.0
C1016 C 0.68693 0.4373 0.18843 0.0
C1017 C 0.66302 0.48425 0.13608 0.0
C1018 C 0.68603 0.47668 0.13628 0.0
C1019 C 0.69318 0.46083 0.15292 0.0
C1020 C 0.70335 0.48709 0.12105 0.0
C1021 C 0.65448 0.50206 0.11936 0.0
C1022 C 0.70076 0.48648 0.09716 0.0
C1023 C 0.71521 0.49943 0.08319 0.0
C1024 C 0.73277 0.51276 0.0929 0.0
C1025 C 0.73627 0.51208 0.11671 0.0
C1026 C 0.7216 0.49944 0.13067 0.0
H1027 H 0.63786 0.50954 0.12477 0.0
H1028 H 0.66707 0.51618 0.11749 0.0
H1029 H 0.65195 0.49401 0.10233 0.0
H1030 H 0.68713 0.47659 0.08937 0.0
H1031 H 0.71242 0.49927 0.06484 0.0
H1032 H 0.38195 0.91517 0.27551 0.0
H1033 H 0.35047 0.9238 0.30176 0.0
H1034 H 0.37233 0.99427 0.30498 0.0
H1035 H 0.40355 0.98601 0.27863 0.0
H1036 H 0.35258 0.94138 0.34633 0.0
H1037 H 0.30438 -0.00095 0.28858 0.0
H1038 H 0.32659 0.98013 0.27843 0.0
H1039 H 0.33389 0.00718 0.29131 0.0
C1040 C 0.38001 0.93253 0.28174 0.0
C1041 C 0.39521 0.94993 0.27493 0.0
C1042 C 0.36204 0.93739 0.29672 0.0
C1043 C 0.35893 0.95971 0.30495 0.0
C1044 C 0.3742 0.97703 0.29839 0.0
H1045 H 0.2964 0.01746 0.42244 0.0
H1046 H 0.32085 -0.00257 0.39512 0.0
C1047 C 0.39211 0.97223 0.28344 0.0
C1048 C 0.34014 0.96503 0.3209 0.0
H1049 H 0.29563 0.00182 0.32863 0.0
C1050 C 0.33988 0.95433 0.3424 0.0
C1051 C 0.32336 0.98158 0.31549 0.0
C1052 C 0.32188 0.99247 0.2921 0.0
C1053 C 0.32397 0.96073 0.35918 0.0
C1054 C 0.30833 0.97856 0.35435 0.0
C1055 C 0.30782 0.98833 0.3324 0.0
C1056 C 0.2932 0.98839 0.37205 0.0
C1057 C 0.32421 0.94848 0.38192 0.0
C1058 C 0.26961 0.99021 0.36799 0.0
C1059 C 0.25568 0.00202 0.38333 0.0
C1060 C 0.26512 0.01219 0.40303 0.0
C1061 C 0.28863 0.00973 0.40745 0.0
C1062 C 0.30259 -0.0019 0.39196 0.0
H1063 H 0.33123 0.93089 0.3802 0.0
H1064 H 0.33536 0.95799 0.39404 0.0
H1065 H 0.30677 0.94738 0.38938 0.0
H1066 H 0.26206 0.98291 0.35266 0.0
H1067 H 0.23757 0.00345 0.37958 0.0
H1068 H 0.22161 0.00019 0.92411 0.0
H1069 H 0.19255 0.01997 0.90119 0.0
H1070 H 0.20718 0.97558 0.844 0.0
H1071 H 0.23575 0.95541 0.86684 0.0
H1072 H 0.1944 0.04331 0.86061 0.0
H1073 H 0.13883 0.96702 0.85191 0.0
H1074 H 0.16244 0.96819 0.87183 0.0
H1075 H 0.16739 0.96161 0.84211 0.0
C1076 C 0.21867 0.9947 0.90662 0.0
C1077 C 0.23072 0.97602 0.89737 0.0
C1078 C 0.20207 0.006 0.89358 0.0
C1079 C 0.19735 -0.00116 0.87112 0.0
C1080 C 0.2101 0.98092 0.86153 0.0
H1081 H 0.1313 0.06644 0.75919 0.0
H1082 H 0.15752 0.05326 0.78896 0.0
C1083 C 0.2265 0.96949 0.87458 0.0
C1084 C 0.17901 0.00991 0.85761 0.0
H1085 H 0.13127 -0.00202 0.82614 0.0
C1086 C 0.18042 0.03349 0.85326 0.0
C1087 C 0.16051 -0.00284 0.84851 0.0
C1088 C 0.15703 0.97215 0.85403 0.0
C1089 C 0.16436 0.04448 0.83916 0.0
C1090 C 0.14682 0.03136 0.82873 0.0
C1091 C 0.14487 0.00799 0.83391 0.0
C1092 C 0.13082 0.04114 0.81163 0.0
C1093 C 0.16633 0.06999 0.83565 0.0
C1094 C 0.10711 0.03829 0.81424 0.0
C1095 C 0.09209 0.04538 0.79703 0.0
C1096 C 0.10054 0.05558 0.77694 0.0
C1097 C 0.12426 0.05887 0.77458 0.0
C1098 C 0.13927 0.05151 0.79168 0.0
H1099 H 0.17503 0.07834 0.8504 0.0
H1100 H 0.17676 0.07337 0.82015 0.0
H1101 H 0.14927 0.07801 0.83329 0.0
H1102 H 0.10023 0.0302 0.82945 0.0
H1103 H 0.0739 0.04266 0.79937 0.0
H1104 H 0.72704 0.88398 0.59005 0.0
H1105 H 0.70156 0.85075 0.58507 0.0
H1106 H 0.70021 0.86269 0.51218 0.0
H1107 H 0.72552 0.89526 0.51681 0.0
H1108 H 0.65712 0.85031 0.5656 0.0
H1109 H 0.71552 0.79471 0.51657 0.0
H1110 H 0.72561 0.81872 0.53331 0.0
H1111 H 0.71488 0.82299 0.50467 0.0
C1112 C 0.72147 0.87931 0.57297 0.0
C1113 C 0.72829 0.89227 0.55384 0.0
C1114 C 0.70693 0.8604 0.57017 0.0
C1115 C 0.69936 0.85409 0.54822 0.0
C1116 C 0.70626 0.86696 0.52921 0.0
H1117 H 0.58265 0.80039 0.48482 0.0
H1118 H 0.60998 0.82166 0.50843 0.0
C1119 C 0.72062 0.88574 0.53195 0.0
C1120 C 0.68324 0.83492 0.54464 0.0
H1121 H 0.67493 0.78943 0.50914 0.0
C1122 C 0.66109 0.8366 0.55372 0.0
C1123 C 0.68859 0.81677 0.52958 0.0
C1124 C 0.71254 0.81304 0.52069 0.0
C1125 C 0.64361 0.82169 0.54655 0.0
C1126 C 0.6484 0.80517 0.52946 0.0
C1127 C 0.67105 0.80233 0.52193 0.0
C1128 C 0.63018 0.79192 0.51767 0.0
C1129 C 0.62016 0.82415 0.55702 0.0
C1130 C 0.63259 0.76822 0.51464 0.0
C1131 C 0.61742 0.75622 0.50059 0.0
C1132 C 0.59938 0.76764 0.4895 0.0
C1133 C 0.59635 0.79117 0.49326 0.0
C1134 C 0.61183 0.80328 0.50698 0.0
H1135 H 0.62137 0.83041 0.57496 0.0
H1136 H 0.61022 0.83698 0.54714 0.0
H1137 H 0.61066 0.80768 0.55691 0.0
H1138 H 0.64662 0.75909 0.52263 0.0
H1139 H 0.61998 0.738 0.4982 0.0
H1140 H 0.85286 0.25602 0.96871 0.0
H1141 H 0.82775 0.23363 0.99353 0.0
H1142 H 0.8777 0.17927 0.99523 0.0
H1143 H 0.90316 0.20173 0.97091 0.0
H1144 H 0.80902 0.19288 0.98425 0.0
H1145 H 0.86232 0.18557 0.06226 0.0
H1146 H 0.86858 0.20581 0.03975 0.0
H1147 H 0.87756 0.17642 0.03726 0.0
C1148 C 0.85854 0.23933 0.97445 0.0
C1149 C 0.87995 0.23057 0.96781 0.0
C1150 C 0.84424 0.22664 0.98871 0.0
C1151 C 0.85109 0.20504 0.99657 0.0
C1152 C 0.8724 0.19622 0.9899 0.0
H1153 H 0.79196 0.08256 0.04152 0.0
H1154 H 0.81575 0.11456 0.02897 0.0
C1155 C 0.88681 0.20896 0.9758 0.0
C1156 C 0.83525 0.19086 0.01017 0.0
H1157 H 0.83215 0.15746 0.05798 0.0
C1158 C 0.81385 0.18551 0.00061 0.0
C1159 C 0.8416 0.18142 0.03157 0.0
C1160 C 0.86368 0.18781 0.04341 0.0
C1161 C 0.79917 0.16988 0.01125 0.0
C1162 C 0.80615 0.15946 0.0319 0.0
C1163 C 0.82704 0.16551 0.04204 0.0
C1164 C 0.79287 0.14061 0.04187 0.0
C1165 C 0.7768 0.16368 -0.00016 0.0
C1166 C 0.77244 0.14491 0.0536 0.0
C1167 C 0.7588 0.12669 0.06085 0.0
C1168 C 0.76543 0.10398 0.05629 0.0
C1169 C 0.78633 0.09984 0.04516 0.0
C1170 C 0.79999 0.11805 0.03808 0.0
H1171 H 0.77453 0.1724 0.98309 0.0
H1172 H 0.77587 0.14488 0.99711 0.0
H1173 H 0.76236 0.16854 0.01118 0.0
H1174 H 0.7668 0.16232 0.05658 0.0
H1175 H 0.74277 0.13041 0.06937 0.0
H1176 H 0.08121 0.70731 0.50418 0.0
H1177 H 0.10759 0.68041 0.48582 0.0
H1178 H 0.16483 0.71523 0.5172 0.0
H1179 H 0.1385 0.74132 0.5365 0.0
H1180 H 0.14122 0.68513 0.45615 0.0
H1181 H 0.17696 0.6513 0.53729 0.0
H1182 H 0.15238 0.6699 0.53662 0.0
H1183 H 0.18086 0.68162 0.53476 0.0
C1184 C 0.09943 0.70909 0.50721 0.0
C1185 C 0.10786 0.72604 0.52205 0.0
C1186 C 0.11447 0.6938 0.49669 0.0
C1187 C 0.13814 0.69549 0.50059 0.0
C1188 C 0.1466 0.71311 0.51459 0.0
H1189 H 0.23945 0.62103 0.41882 0.0
H1190 H 0.21417 0.65086 0.43408 0.0
C1191 C 0.13156 0.72804 0.52553 0.0
C1192 C 0.15393 0.67868 0.4902 0.0
H1193 H 0.19605 0.64046 0.50315 0.0
C1194 C 0.15314 0.67525 0.4664 0.0
C1195 C 0.16926 0.66562 0.50368 0.0
C1196 C 0.16977 0.6671 0.52951 0.0
C1197 C 0.16724 0.65904 0.4557 0.0
C1198 C 0.18312 0.64658 0.4691 0.0
C1199 C 0.18399 0.65017 0.49286 0.0
C1200 C 0.1982 0.62878 0.45926 0.0
C1201 C 0.16441 0.65496 0.43032 0.0
C1202 C 0.19811 0.60673 0.46878 0.0
C1203 C 0.21294 0.59001 0.4606 0.0
C1204 C 0.22791 0.59489 0.44246 0.0
C1205 C 0.22787 0.61684 0.43268 0.0
C1206 C 0.21333 0.63379 0.44126 0.0
H1207 H 0.14739 0.66078 0.42411 0.0
H1208 H 0.17765 0.66479 0.42091 0.0
H1209 H 0.1664 0.63655 0.42602 0.0
H1210 H 0.18658 0.60247 0.48266 0.0
H1211 H 0.21252 0.57316 0.46834 0.0
H1212 H 0.41684 0.30127 0.0149 0.0
H1213 H 0.38927 0.32438 0.99331 0.0
H1214 H 0.34585 0.26518 0.98495 0.0
H1215 H 0.37291 0.24216 0.00698 0.0
H1216 H 0.36952 0.3211 0.94955 0.0
H1217 H 0.30485 0.3104 0.01856 0.0
H1218 H 0.33439 0.30225 0.02222 0.0
H1219 H 0.31513 0.28414 0.00637 0.0
C1220 C 0.40149 0.29317 0.00832 0.0
C1221 C 0.39678 0.27006 0.01302 0.0
C1222 C 0.38582 0.30634 0.99593 0.0
C1223 C 0.36537 0.29653 0.98794 0.0
C1224 C 0.3613 0.27315 0.99144 0.0
H1225 H 0.26416 0.37604 0.90823 0.0
H1226 H 0.29168 0.3459 0.91838 0.0
C1227 C 0.37677 0.26006 0.00403 0.0
C1228 C 0.34761 0.31114 0.97744 0.0
H1229 H 0.29382 0.33187 0.98639 0.0
C1230 C 0.35288 0.32337 0.95745 0.0
C1231 C 0.32601 0.31408 0.98796 0.0
C1232 C 0.31974 0.3022 0.01006 0.0
C1233 C 0.33724 0.33895 0.94795 0.0
C1234 C 0.31578 0.34202 0.95864 0.0
C1235 C 0.31027 0.32927 0.9782 0.0
C1236 C 0.29977 0.36025 0.95161 0.0
C1237 C 0.3441 0.35274 0.92722 0.0
C1238 C 0.29514 0.378 0.96704 0.0
C1239 C 0.27944 0.39497 0.96146 0.0
C1240 C 0.268 0.39459 0.94024 0.0
C1241 C 0.27277 0.37684 0.92466 0.0
C1242 C 0.28853 0.35971 0.93036 0.0
H1243 H 0.36256 0.35076 0.92311 0.0
H1244 H 0.33396 0.34697 0.91219 0.0
H1245 H 0.34041 0.37118 0.93 0.0
H1246 H 0.30365 0.37867 0.98354 0.0
H1247 H 0.27625 0.40836 0.97389 0.0
H1248 H 0.45024 0.63358 0.76217 0.0
H1249 H 0.46851 0.66131 0.78769 0.0
H1250 H 0.5165 0.60971 0.80977 0.0
H1251 H 0.49875 0.58202 0.78393 0.0
H1252 H 0.47218 0.65963 0.83351 0.0
H1253 H 0.55868 0.66261 0.79496 0.0
H1254 H 0.53448 0.64981 0.78055 0.0
H1255 H 0.54997 0.63402 0.80202 0.0
C1256 C 0.46472 0.62814 0.77242 0.0
C1257 C 0.47304 0.6056 0.77107 0.0
C1258 C 0.47518 0.64402 0.7869 0.0
C1259 C 0.4941 0.63765 0.80027 0.0
C1260 C 0.50231 0.61513 0.79912 0.0
H1261 H 0.53862 0.69797 0.92626 0.0
H1262 H 0.524 0.6738 0.89546 0.0
C1263 C 0.492 0.59928 0.78451 0.0
C1264 C 0.50439 0.65417 0.81643 0.0
H1265 H 0.55508 0.67829 0.8328 0.0
C1266 C 0.49026 0.66389 0.83322 0.0
C1267 C 0.5279 0.65996 0.81576 0.0
C1268 C 0.54359 0.65124 0.7972 0.0
C1269 C 0.49916 0.67866 0.84988 0.0
C1270 C 0.52292 0.68333 0.85005 0.0
C1271 C 0.53693 0.67433 0.83278 0.0
C1272 C 0.53349 0.69719 0.86835 0.0
C1273 C 0.48304 0.68916 0.86711 0.0
C1274 C 0.5446 0.71781 0.86313 0.0
C1275 C 0.55323 0.7316 0.88069 0.0
C1276 C 0.55085 0.72489 0.9037 0.0
C1277 C 0.54052 0.70374 0.90873 0.0
C1278 C 0.53204 0.68996 0.89118 0.0
H1279 H 0.46511 0.68927 0.86073 0.0
H1280 H 0.48347 0.67894 0.88312 0.0
H1281 H 0.48813 0.707 0.87132 0.0
H1282 H 0.546 0.72354 0.84554 0.0
H1283 H 0.56112 0.74779 0.87629 0.0
H1284 H 0.95145 0.85863 0.22601 0.0
H1285 H 0.97548 0.83317 0.20347 0.0
H1286 H 0.03466 0.87452 0.21932 0.0
H1287 H 0.01055 0.90054 0.24166 0.0
H1288 H 0.03197 0.86466 0.17427 0.0
H1289 H 0.02072 0.78517 0.22403 0.0
H1290 H 0.9935 0.79735 0.21678 0.0
H1291 H 0.01285 0.81291 0.23517 0.0
C1292 C 0.96959 0.86229 0.22486 0.0
C1293 C 0.97908 0.88164 0.2356 0.0
C1294 C 0.98335 0.84757 0.21214 0.0
C1295 C 0.00692 0.85167 0.21018 0.0
C1296 C 0.01652 0.87095 0.22085 0.0
H1297 H 0.08003 0.74538 0.13316 0.0
H1298 H 0.0714 0.77261 0.16383 0.0
C1299 C 0.00272 0.88581 0.23352 0.0
C1300 C 0.02101 0.8366 0.19557 0.0
H1301 H 0.03108 0.78029 0.18406 0.0
C1302 C 0.0322 0.84624 0.17664 0.0
C1303 C 0.02178 0.81264 0.19899 0.0
C1304 C 0.01178 0.80147 0.22001 0.0
C1305 C 0.04265 0.83238 0.1601 0.0
C1306 C 0.04133 0.80831 0.16233 0.0
C1307 C 0.0317 0.79876 0.18215 0.0
C1308 C 0.04789 0.79276 0.14347 0.0
C1309 C 0.05455 0.84367 0.14016 0.0
C1310 C 0.03733 0.79495 0.12199 0.0
C1311 C 0.04226 0.77955 0.10446 0.0
C1312 C 0.05764 0.76143 0.10816 0.0
C1313 C 0.06813 0.75917 0.12975 0.0
C1314 C 0.06328 0.77472 0.14727 0.0
H1315 H 0.06126 0.86081 0.145 0.0
H1316 H 0.06896 0.83307 0.13375 0.0
H1317 H 0.04209 0.84613 0.126 0.0
H1318 H 0.02485 0.8083 0.11892 0.0
H1319 H 0.0337 0.78164 0.08812 0.0
H1320 H 0.49495 0.0793 0.71587 0.0
H1321 H 0.47468 0.10333 0.68811 0.0
H1322 H 0.5208 0.15921 0.70295 0.0
H1323 H 0.54031 0.1357 0.73145 0.0
H1324 H 0.47893 0.17421 0.70108 0.0
H1325 H 0.49412 0.11961 0.62486 0.0
H1326 H 0.47905 0.10503 0.64726 0.0
H1327 H 0.50804 0.11445 0.65194 0.0
C1328 C 0.50079 0.09669 0.71308 0.0
C1329 C 0.51925 0.10563 0.7257 0.0
C1330 C 0.48929 0.11035 0.69713 0.0
C1331 C 0.49649 0.13294 0.69311 0.0
C1332 C 0.51495 0.14183 0.70574 0.0
H1333 H 0.47075 0.21782 0.57623 0.0
H1334 H 0.48471 0.19081 0.60489 0.0
C1335 C 0.52611 0.12837 0.72199 0.0
C1336 C 0.48469 0.14766 0.67613 0.0
H1337 H 0.46962 0.15147 0.61976 0.0
C1338 C 0.47692 0.16925 0.68328 0.0
C1339 C 0.48224 0.14124 0.65287 0.0
C1340 C 0.4915 0.11892 0.6437 0.0
C1341 C 0.46724 0.18481 0.66778 0.0
C1342 C 0.46434 0.17821 0.64462 0.0
C1343 C 0.47168 0.15643 0.63756 0.0
C1344 C 0.45522 0.19413 0.62709 0.0
C1345 C 0.46119 0.20848 0.67624 0.0
C1346 C 0.43384 0.20477 0.62985 0.0
C1347 C 0.42605 0.22062 0.6137 0.0
C1348 C 0.43922 0.22554 0.5942 0.0
C1349 C 0.4602 0.21426 0.59106 0.0
C1350 C 0.46818 0.19882 0.60742 0.0
H1351 H 0.47037 0.21277 0.69237 0.0
H1352 H 0.46537 0.22172 0.66326 0.0
H1353 H 0.44256 0.20925 0.67982 0.0
H1354 H 0.42322 0.2009 0.64453 0.0
H1355 H 0.40969 0.22889 0.61638 0.0
H1356 H 0.9163 0.24291 0.3683 0.0
H1357 H 0.92876 0.26664 0.33611 0.0
H1358 H 0.97877 0.29946 0.37959 0.0
H1359 H 0.96614 0.27628 0.41192 0.0
H1360 H 0.95467 0.32998 0.35342 0.0
H1361 H 0.98787 0.25839 0.30019 0.0
H1362 H 0.9584 0.2558 0.30854 0.0
H1363 H 0.98049 0.25488 0.32998 0.0
C1364 C 0.92995 0.2552 0.37101 0.0
C1365 C 0.94026 0.25771 0.39266 0.0
C1366 C 0.9371 0.26864 0.35257 0.0
C1367 C 0.95488 0.28454 0.35544 0.0
C1368 C 0.96502 0.28724 0.37705 0.0
H1369 H 0.0472 0.34906 0.26352 0.0
H1370 H 0.02635 0.32448 0.29003 0.0
C1371 C 0.95779 0.27397 0.3955 0.0
C1372 C 0.96304 0.29857 0.33606 0.0
H1373 H 0.98987 0.29545 0.28429 0.0
C1374 C 0.96224 0.32247 0.33822 0.0
C1375 C 0.97304 0.28863 0.31638 0.0
C1376 C 0.97523 0.26303 0.31362 0.0
C1377 C 0.9717 0.33678 0.32147 0.0
C1378 C 0.98169 0.32685 0.30177 0.0
C1379 C 0.98201 0.30295 0.29935 0.0
C1380 C 0.99361 0.34089 0.28446 0.0
C1381 C 0.97182 0.36232 0.32552 0.0
C1382 C 0.98196 0.35793 0.27219 0.0
C1383 C 0.99388 0.37221 0.25718 0.0
C1384 C 0.01759 0.36946 0.25402 0.0
C1385 C 0.02898 0.35172 0.26564 0.0
C1386 C 0.01709 0.33761 0.28076 0.0
H1387 H 0.96821 0.36666 0.34369 0.0
H1388 H 0.9886 0.36988 0.32075 0.0
H1389 H 0.95841 0.37041 0.31476 0.0
H1390 H 0.96373 0.36037 0.27444 0.0
H1391 H 0.98457 0.38552 0.24823 0.0
H1392 H 0.2382 0.44708 0.01473 0.0
H1393 H 0.23432 0.43692 0.05535 0.0
H1394 H 0.16621 0.41142 0.04214 0.0
H1395 H 0.17013 0.42074 0.00193 0.0
H1396 H 0.20585 0.45316 0.08587 0.0
H1397 H 0.18976 0.36092 0.08117 0.0
H1398 H 0.2015 0.37659 0.05724 0.0
H1399 H 0.1709 0.37442 0.06115 0.0
C1400 C 0.22253 0.43903 0.0205 0.0
C1401 C 0.20447 0.43474 0.00508 0.0
C1402 C 0.22039 0.43316 0.04367 0.0
C1403 C 0.20022 0.42284 0.05171 0.0
C1404 C 0.18229 0.41855 0.03627 0.0
H1405 H 0.10891 0.44758 0.14878 0.0
H1406 H 0.14234 0.44883 0.12449 0.0
C1407 C 0.18445 0.4242 0.01323 0.0
C1408 C 0.19638 0.4187 0.07647 0.0
H1409 H 0.16739 0.38175 0.1109 0.0
C1410 C 0.19813 0.43728 0.09162 0.0
C1411 C 0.18726 0.39775 0.08448 0.0
C1412 C 0.18755 0.37626 0.07014 0.0
C1413 C 0.18811 0.43639 0.11342 0.0
C1414 C 0.17537 0.41676 0.11975 0.0
C1415 C 0.17648 0.39714 0.10589 0.0
C1416 C 0.15747 0.41765 0.13776 0.0
C1417 C 0.1903 0.45695 0.1289 0.0
C1418 C 0.15445 0.39953 0.15331 0.0
C1419 C 0.13478 0.39844 0.16697 0.0
C1420 C 0.11782 0.41543 0.16523 0.0
C1421 C 0.12155 0.43414 0.15057 0.0
C1422 C 0.14097 0.43508 0.13684 0.0
H1423 H 0.20768 0.46455 0.12743 0.0
H1424 H 0.17787 0.47025 0.12345 0.0
H1425 H 0.18709 0.45252 0.14711 0.0
H1426 H 0.16684 0.38578 0.15421 0.0
H1427 H 0.13248 0.38386 0.17819 0.0
H1428 H 0.33678 0.55802 0.48537 0.0
H1429 H 0.34887 0.56342 0.52488 0.0
H1430 H 0.28105 0.54601 0.5483 0.0
H1431 H 0.26888 0.53982 0.50856 0.0
H1432 H 0.33433 0.59218 0.55808 0.0
H1433 H 0.32031 0.50159 0.58419 0.0
H1434 H 0.31926 0.51055 0.55466 0.0
H1435 H 0.29564 0.51647 0.57342 0.0
C1436 C 0.32436 0.55533 0.49886 0.0
C1437 C 0.30192 0.54821 0.49381 0.0
C1438 C 0.3313 0.5585 0.52147 0.0
C1439 C 0.31597 0.55481 0.53956 0.0
C1440 C 0.2933 0.54846 0.53462 0.0
H1441 H 0.37672 0.59024 0.67393 0.0
H1442 H 0.34776 0.58879 0.64353 0.0
C1443 C 0.28636 0.54502 0.51191 0.0
C1444 C 0.32432 0.55713 0.56342 0.0
H1445 H 0.33723 0.52603 0.61119 0.0
C1446 C 0.33471 0.57784 0.56987 0.0
C1447 C 0.32478 0.53833 0.57869 0.0
C1448 C 0.31457 0.51541 0.57243 0.0
C1449 C 0.34678 0.57988 0.59056 0.0
C1450 C 0.34787 0.56085 0.60552 0.0
C1451 C 0.33628 0.54059 0.59969 0.0
C1452 C 0.3635 0.56049 0.62552 0.0
C1453 C 0.35955 0.60185 0.59541 0.0
C1454 C 0.3813 0.54439 0.62607 0.0
C1455 C 0.39759 0.54494 0.64351 0.0
C1456 C 0.39656 0.56174 0.66074 0.0
C1457 C 0.37817 0.5773 0.66072 0.0
C1458 C 0.36167 0.57656 0.64332 0.0
H1459 H 0.36055 0.61306 0.58007 0.0
H1460 H 0.35057 0.61146 0.6091 0.0
H1461 H 0.37724 0.59822 0.60138 0.0
H1462 H 0.38302 0.5318 0.61255 0.0
H1463 H 0.4114 0.53259 0.64304 0.0
H1464 H 0.62723 0.09529 0.80857 0.0
H1465 H 0.65961 0.09608 0.83567 0.0
H1466 H 0.62329 0.04986 0.88028 0.0
H1467 H 0.59107 0.04922 0.85372 0.0
H1468 H 0.65406 0.11019 0.8841 0.0
H1469 H 0.6895 0.02281 0.87538 0.0
H1470 H 0.67318 0.03658 0.85292 0.0
H1471 H 0.65878 0.0232 0.87662 0.0
C1472 C 0.62639 0.08505 0.824 0.0
C1473 C 0.60661 0.07229 0.82914 0.0
C1474 C 0.64483 0.08553 0.83942 0.0
C1475 C 0.6439 0.07281 0.8598 0.0
C1476 C 0.62448 0.05951 0.86448 0.0
H1477 H 0.66636 0.07107 0.99575 0.0
H1478 H 0.65774 0.07944 0.95578 0.0
C1479 C 0.60602 0.05931 0.84937 0.0
C1480 C 0.66188 0.07476 0.87756 0.0
H1481 H 0.69431 0.04099 0.91245 0.0
C1482 C 0.6635 0.0953 0.88992 0.0
C1483 C 0.67437 0.05541 0.88496 0.0
C1484 C 0.67408 0.0333 0.87164 0.0
C1485 C 0.67542 0.09627 0.9108 0.0
C1486 C 0.68579 0.07619 0.91944 0.0
C1487 C 0.68618 0.05635 0.90589 0.0
C1488 C 0.69238 0.07414 0.94384 0.0
C1489 C 0.67562 0.11837 0.92414 0.0
C1490 C 0.71479 0.0684 0.95042 0.0
C1491 C 0.71984 0.06371 0.97344 0.0
C1492 C 0.70237 0.06414 0.98999 0.0
C1493 C 0.68013 0.07046 0.98335 0.0
C1494 C 0.67522 0.07546 0.96055 0.0
H1495 H 0.67392 0.13338 0.91259 0.0
H1496 H 0.66088 0.11855 0.93612 0.0
H1497 H 0.6916 0.12015 0.93433 0.0
H1498 H 0.7282 0.06704 0.93769 0.0
H1499 H 0.7371 0.0588 0.97811 0.0
H1500 H 0.81933 0.92391 0.48317 0.0
H1501 H 0.82388 0.91415 0.44312 0.0
H1502 H 0.75225 0.92772 0.43103 0.0
H1503 H 0.74769 0.93857 0.47144 0.0
H1504 H 0.80541 0.88253 0.41538 0.0
H1505 H 0.7814 0.96983 0.38507 0.0
H1506 H 0.7856 0.96382 0.41505 0.0
H1507 H 0.7604 0.95361 0.4006 0.0
C1508 C 0.80443 0.92477 0.47213 0.0
C1509 C 0.78321 0.93239 0.48046 0.0
C1510 C 0.80704 0.91904 0.44917 0.0
C1511 C 0.78849 0.92048 0.43394 0.0
C1512 C 0.76693 0.92697 0.44235 0.0
H1513 H 0.86039 0.88792 0.30566 0.0
H1514 H 0.82577 0.88609 0.32938 0.0
C1515 C 0.76434 0.93306 0.46544 0.0
C1516 C 0.79291 0.91659 0.40923 0.0
H1517 H 0.80195 0.94672 0.36005 0.0
C1518 C 0.80418 0.89631 0.40298 0.0
C1519 C 0.79091 0.93449 0.39303 0.0
C1520 C 0.77902 0.95673 0.39865 0.0
C1521 C 0.81622 0.89462 0.38228 0.0
C1522 C 0.81611 0.91346 0.36702 0.0
C1523 C 0.80219 0.93244 0.37192 0.0
C1524 C 0.83414 0.91623 0.34934 0.0
C1525 C 0.83088 0.87373 0.37821 0.0
C1526 C 0.8495 0.93457 0.35162 0.0
C1527 C 0.86888 0.93592 0.33788 0.0
C1528 C 0.87358 0.91877 0.32167 0.0
C1529 C 0.85744 0.90118 0.31828 0.0
C1530 C 0.83772 0.90003 0.3319 0.0
H1531 H 0.83109 0.86201 0.39319 0.0
H1532 H 0.82413 0.86406 0.3633 0.0
H1533 H 0.84879 0.87882 0.3744 0.0
H1534 H 0.84715 0.94733 0.36489 0.0
H1535 H 0.88073 0.9499 0.34082 0.0
H1536 H 0.14302 0.08782 0.46719 0.0
H1537 H 0.11444 0.11783 0.46262 0.0
H1538 H 0.15551 0.14959 0.41018 0.0
H1539 H 0.18442 0.11938 0.41458 0.0
H1540 H 0.11825 0.16804 0.46466 0.0
H1541 H 0.09223 0.13316 0.37949 0.0
H1542 H 0.10902 0.11644 0.39934 0.0
H1543 H 0.12189 0.14003 0.38452 0.0
C1544 C 0.14614 0.10127 0.45481 0.0
C1545 C 0.16583 0.10105 0.44102 0.0
C1546 C 0.12985 0.11848 0.45232 0.0
C1547 C 0.13283 0.13575 0.43595 0.0
C1548 C 0.1529 0.13625 0.4228 0.0
H1549 H 0.01208 0.22767 0.43419 0.0
H1550 H 0.05251 0.21773 0.42821 0.0
C1551 C 0.16937 0.11904 0.42538 0.0
C1552 C 0.11383 0.1519 0.43183 0.0
H1553 H 0.06715 0.15879 0.39734 0.0
C1554 C 0.10737 0.16663 0.44965 0.0
C1555 C 0.09973 0.14982 0.41223 0.0
C1556 C 0.10588 0.134 0.39275 0.0
C1557 C 0.08629 0.17812 0.44914 0.0
C1558 C 0.07148 0.17474 0.43027 0.0
C1559 C 0.07869 0.16135 0.41169 0.0
C1560 C 0.0471 0.18125 0.43153 0.0
C1561 C 0.07915 0.19224 0.46956 0.0
C1562 C 0.03079 0.16398 0.43481 0.0
C1563 C 0.00789 0.16952 0.43831 0.0
C1564 C 0.00081 0.19251 0.43848 0.0
C1565 C 0.01705 0.20981 0.43424 0.0
C1566 C 0.04011 0.20421 0.43087 0.0
H1567 H 0.09224 0.19214 0.48339 0.0
H1568 H 0.07625 0.21021 0.46415 0.0
H1569 H 0.06279 0.18561 0.47661 0.0
H1570 H 0.03592 0.14616 0.43536 0.0
H1571 H 0.9958 0.15578 0.44128 0.0
H1572 H 0.31424 0.8667 0.89622 0.0
H1573 H 0.33938 0.8333 0.89335 0.0
H1574 H 0.36671 0.84823 0.96043 0.0
H1575 H 0.34146 0.88106 0.96366 0.0
H1576 H 0.38412 0.83623 0.89185 0.0
H1577 H 0.36322 0.78011 0.96425 0.0
H1578 H 0.34373 0.80202 0.95438 0.0
H1579 H 0.366 0.80876 0.9748 0.0
C1580 C 0.32522 0.86253 0.91058 0.0
C1581 C 0.32603 0.87671 0.93007 0.0
C1582 C 0.33952 0.84339 0.90893 0.0
C1583 C 0.3547 0.83801 0.9268 0.0
C1584 C 0.35471 0.85156 0.94667 0.0
H1585 H 0.48896 0.82293 0.94082 0.0
H1586 H 0.44955 0.82969 0.92952 0.0
C1587 C 0.34043 0.87059 0.94837 0.0
C1588 C 0.3731 0.82084 0.92358 0.0
H1589 H 0.40456 0.78246 0.95433 0.0
C1590 C 0.38817 0.82387 0.90511 0.0
C1591 C 0.37823 0.80422 0.94044 0.0
C1592 C 0.36172 0.79844 0.9594 0.0
C1593 C 0.40946 0.81287 0.90466 0.0
C1594 C 0.41594 0.79892 0.92334 0.0
C1595 C 0.39977 0.79359 0.94025 0.0
C1596 C 0.44029 0.79382 0.928 0.0
C1597 C 0.4255 0.81758 0.88499 0.0
C1598 C 0.44814 0.77134 0.93125 0.0
C1599 C 0.4709 0.76737 0.93785 0.0
C1600 C 0.48583 0.78589 0.94174 0.0
C1601 C 0.47787 0.80829 0.93814 0.0
C1602 C 0.45538 0.81219 0.9314 0.0
H1603 H 0.41579 0.82069 0.86891 0.0
H1604 H 0.4356 0.83324 0.88877 0.0
H1605 H 0.43753 0.80313 0.88223 0.0
H1606 H 0.43663 0.75697 0.92897 0.0
H1607 H 0.47658 0.74993 0.94051 0.0
H1608 H 0.50898 0.25951 0.5659 0.0
H1609 H 0.54881 0.26695 0.57732 0.0
H1610 H 0.53751 0.33947 0.56936 0.0
H1611 H 0.49806 0.33236 0.55835 0.0
H1612 H 0.58259 0.28783 0.55213 0.0
H1613 H 0.56847 0.33687 0.63138 0.0
H1614 H 0.54638 0.3193 0.61862 0.0
H1615 H 0.55097 0.34823 0.60887 0.0
C1616 C 0.51497 0.27704 0.56681 0.0
C1617 C 0.50033 0.29535 0.56116 0.0
C1618 C 0.53769 0.28124 0.57337 0.0
C1619 C 0.54596 0.30378 0.57466 0.0
C1620 C 0.53133 0.32198 0.56912 0.0
H1621 H 0.65543 0.37919 0.53747 0.0
H1622 H 0.62727 0.349 0.54185 0.0
C1623 C 0.50878 0.31784 0.56257 0.0
C1624 C 0.57028 0.30874 0.57993 0.0
H1625 H 0.60269 0.34728 0.60944 0.0
C1626 C 0.58718 0.30033 0.5651 0.0
C1627 C 0.57648 0.32446 0.5973 0.0
C1628 C 0.55961 0.3325 0.6151 0.0
C1629 C 0.60952 0.3092 0.56556 0.0
C1630 C 0.6148 0.32729 0.58083 0.0
C1631 C 0.59861 0.33375 0.59737 0.0
C1632 C 0.63505 0.34229 0.57752 0.0
C1633 C 0.62689 0.2998 0.54896 0.0
C1634 C 0.64897 0.34871 0.5961 0.0
C1635 C 0.66499 0.36642 0.59373 0.0
C1636 C 0.66715 0.3781 0.57277 0.0
C1637 C 0.65415 0.37067 0.5539 0.0
C1638 C 0.63818 0.35311 0.5563 0.0
H1639 H 0.62415 0.28117 0.54623 0.0
H1640 H 0.62475 0.30836 0.53213 0.0
H1641 H 0.64468 0.30259 0.55509 0.0
H1642 H 0.64674 0.34073 0.61269 0.0
H1643 H 0.67477 0.3717 0.6086 0.0
H1644 H 0.8085 0.62424 0.08842 0.0
H1645 H 0.83543 0.65607 0.09404 0.0
H1646 H 0.87608 0.63142 0.03757 0.0
H1647 H 0.84945 0.59988 0.03182 0.0
H1648 H 0.88118 0.65008 0.10502 0.0
H1649 H 0.8742 0.70002 0.02527 0.0
H1650 H 0.85204 0.68051 0.03458 0.0
H1651 H 0.87649 0.67007 0.01894 0.0
C1652 C 0.82294 0.6259 0.07693 0.0
C1653 C 0.82696 0.60947 0.05976 0.0
C1654 C 0.83828 0.64409 0.08016 0.0
C1655 C 0.85753 0.64631 0.06598 0.0
C1656 C 0.86104 0.63037 0.04836 0.0
H1657 H 0.99347 0.66186 0.0719 0.0
H1658 H 0.953 0.65486 0.07861 0.0
C1659 C 0.84593 0.61217 0.04526 0.0
C1660 C 0.87569 0.6633 0.07098 0.0
H1661 H 0.91227 0.69922 0.04315 0.0
C1662 C 0.88759 0.66143 0.09179 0.0
C1663 C 0.8838 0.6785 0.05398 0.0
C1664 C 0.87077 0.68258 0.03205 0.0
C1665 C 0.90877 0.67232 0.09494 0.0
C1666 C 0.91829 0.68507 0.07672 0.0
C1667 C 0.90513 0.68912 0.057 0.0
C1668 C 0.94303 0.69045 0.07589 0.0
C1669 C 0.92141 0.6689 0.11722 0.0
C1670 C 0.95092 0.71283 0.07201 0.0
C1671 C 0.97424 0.71691 0.06811 0.0
C1672 C 0.98982 0.69856 0.06754 0.0
C1673 C 0.98188 0.67633 0.07208 0.0
C1674 C 0.95876 0.67233 0.0762 0.0
H1675 H 0.90926 0.66666 0.13166 0.0
H1676 H 0.93194 0.65314 0.11606 0.0
H1677 H 0.9329 0.68358 0.12104 0.0
H1678 H 0.93898 0.727 0.07144 0.0
H1679 H 0.9799 0.73422 0.0646 0.0
H1680 H 0.46249 0.02735 0.22204 0.0
H1681 H 0.45484 0.06615 0.20863 0.0
H1682 H 0.39342 0.04245 0.17484 0.0
H1683 H 0.40176 0.00335 0.1872 0.0
H1684 H 0.41829 0.06327 0.14611 0.0
H1685 H 0.41467 0.11901 0.22219 0.0
H1686 H 0.44045 0.10246 0.2228 0.0
H1687 H 0.41307 0.08822 0.22434 0.0
C1688 C 0.44708 0.03054 0.21221 0.0
C1689 C 0.43284 0.01237 0.20542 0.0
C1690 C 0.44256 0.05281 0.20474 0.0
C1691 C 0.42337 0.05737 0.19094 0.0
C1692 C 0.40832 0.03939 0.18549 0.0
H1693 H 0.40257 0.18963 0.12072 0.0
H1694 H 0.39743 0.15901 0.1492 0.0
C1695 C 0.41312 0.01706 0.19249 0.0
C1696 C 0.4212 0.07975 0.17909 0.0
H1697 H 0.42648 0.1376 0.18649 0.0
C1698 C 0.41952 0.07948 0.1551 0.0
C1699 C 0.42261 0.10104 0.19067 0.0
C1700 C 0.42253 0.10268 0.21644 0.0
C1701 C 0.42055 0.09969 0.14234 0.0
C1702 C 0.42403 0.12072 0.15379 0.0
C1703 C 0.42429 0.12133 0.1778 0.0
C1704 C 0.42901 0.1417 0.14063 0.0
C1705 C 0.41858 0.09826 0.11658 0.0
C1706 C 0.44895 0.14257 0.12734 0.0
C1707 C 0.45175 0.1597 0.11104 0.0
C1708 C 0.43484 0.17648 0.10803 0.0
C1709 C 0.41586 0.17688 0.1228 0.0
C1710 C 0.4129 0.15944 0.139 0.0
H1711 H 0.40969 0.08235 0.11108 0.0
H1712 H 0.40916 0.11322 0.10958 0.0
H1713 H 0.43599 0.09814 0.109 0.0
H1714 H 0.46168 0.12915 0.12861 0.0
H1715 H 0.46664 0.15919 0.1 0.0
H1716 H 0.90746 0.48759 0.8117 0.0
H1717 H 0.90315 0.44665 0.81755 0.0
H1718 H 0.93789 0.43342 0.75376 0.0
H1719 H 0.94305 0.47468 0.74807 0.0
H1720 H 0.88449 0.4103 0.79479 0.0
H1721 H 0.97956 0.40225 0.79944 0.0
H1722 H 0.9657 0.42977 0.79833 0.0
H1723 H 0.96742 0.41234 0.77303 0.0
C1724 C 0.91399 0.47607 0.79871 0.0
C1725 C 0.9261 0.48442 0.77968 0.0
C1726 C 0.91138 0.45261 0.80203 0.0
C1727 C 0.92063 0.43695 0.78634 0.0
C1728 C 0.93111 0.4452 0.76636 0.0
H1729 H 0.90492 0.3007 0.85194 0.0
H1730 H 0.90529 0.32627 0.81847 0.0
C1731 C 0.93396 0.46878 0.76311 0.0
C1732 C 0.9212 0.41238 0.79266 0.0
H1733 H 0.95787 0.37234 0.81419 0.0
C1734 C 0.90049 0.40163 0.79847 0.0
C1735 C 0.94216 0.40112 0.79733 0.0
C1736 C 0.96502 0.4119 0.79186 0.0
C1737 C 0.90022 0.38108 0.81093 0.0
C1738 C 0.92124 0.37086 0.81725 0.0
C1739 C 0.94183 0.38032 0.80929 0.0
C1740 C 0.92253 0.35398 0.8361 0.0
C1741 C 0.87761 0.37164 0.81908 0.0
C1742 C 0.93268 0.36085 0.85675 0.0
C1743 C 0.93259 0.34642 0.87567 0.0
C1744 C 0.92229 0.32471 0.87444 0.0
C1745 C 0.91284 0.3174 0.85346 0.0
C1746 C 0.91295 0.33199 0.83438 0.0
H1747 H 0.86295 0.3827 0.81411 0.0
H1748 H 0.87485 0.35439 0.81162 0.0
H1749 H 0.87772 0.36986 0.83802 0.0
H1750 H 0.94016 0.37776 0.85846 0.0
H1751 H 0.94027 0.35254 0.89143 0.0
H1752 H 0.55128 0.53598 0.25475 0.0
H1753 H 0.55623 0.57649 0.26439 0.0
H1754 H 0.59122 0.55741 0.32666 0.0
H1755 H 0.58698 0.51724 0.31691 0.0
H1756 H 0.53664 0.59573 0.29959 0.0
H1757 H 0.62893 0.61123 0.30881 0.0
H1758 H 0.61791 0.58644 0.2939 0.0
H1759 H 0.62176 0.58596 0.32459 0.0
C1760 C 0.5606 0.54045 0.27017 0.0
C1761 C 0.5685 0.52334 0.28519 0.0
C1762 C 0.56343 0.56362 0.27564 0.0
C1763 C 0.57433 0.57008 0.29612 0.0
C1764 C 0.58331 0.55299 0.31046 0.0
H1765 H 0.5397 0.6511 0.40337 0.0
H1766 H 0.5426 0.62675 0.36978 0.0
C1767 C 0.5806 0.52992 0.30497 0.0
C1768 C 0.57322 0.59403 0.30458 0.0
H1769 H 0.60413 0.63271 0.33566 0.0
C1770 C 0.55154 0.60416 0.30683 0.0
C1771 C 0.59261 0.60547 0.31359 0.0
C1772 C 0.61661 0.59676 0.30982 0.0
C1773 C 0.54847 0.62401 0.31997 0.0
C1774 C 0.56747 0.63364 0.33154 0.0
C1775 C 0.58946 0.62503 0.32721 0.0
C1776 C 0.56441 0.6499 0.35077 0.0
C1777 C 0.5247 0.6338 0.32228 0.0
C1778 C 0.57602 0.67095 0.35146 0.0
C1779 C 0.57451 0.685 0.37089 0.0
C1780 C 0.56167 0.67795 0.39002 0.0
C1781 C 0.54979 0.65704 0.389 0.0
C1782 C 0.55123 0.64317 0.36966 0.0
H1783 H 0.51449 0.63068 0.3065 0.0
H1784 H 0.51578 0.6252 0.33668 0.0
H1785 H 0.52516 0.65249 0.32573 0.0
H1786 H 0.58649 0.67633 0.33714 0.0
H1787 H 0.58391 0.70099 0.37118 0.0
H1788 H 0.06214 0.97945 0.73815 0.0
H1789 H 0.06797 0.93867 0.72944 0.0
H1790 H 0.09014 0.95654 0.66129 0.0
H1791 H 0.08463 0.99686 0.66984 0.0
H1792 H 0.0441 0.91599 0.69598 0.0
H1793 H 0.13626 0.90797 0.67836 0.0
H1794 H 0.12457 0.93173 0.69437 0.0
H1795 H 0.12501 0.93231 0.66348 0.0
C1796 C 0.06884 0.97463 0.72154 0.0
C1797 C 0.07278 0.99127 0.70459 0.0
C1798 C 0.07212 0.95139 0.7166 0.0
C1799 C 0.07979 0.94462 0.69483 0.0
C1800 C 0.08474 0.96136 0.67837 0.0
H1801 H 0.04343 0.85327 0.59476 0.0
H1802 H 0.04518 0.87977 0.62694 0.0
C1803 C 0.08133 0.98442 0.6832 0.0
C1804 C 0.07983 0.92029 0.68779 0.0
H1805 H 0.11103 0.88323 0.65542 0.0
C1806 C 0.05891 0.90845 0.68772 0.0
C1807 C 0.09922 0.91019 0.67747 0.0
C1808 C 0.12257 0.92116 0.67867 0.0
C1809 C 0.05633 0.88793 0.67548 0.0
C1810 C 0.07502 0.87943 0.66267 0.0
C1811 C 0.09652 0.88998 0.66481 0.0
C1812 C 0.07211 0.86158 0.64485 0.0
C1813 C 0.03337 0.87611 0.67568 0.0
C1814 C 0.08688 0.84268 0.64399 0.0
C1815 C 0.0862 0.8277 0.62534 0.0
C1816 C 0.07077 0.83139 0.60717 0.0
C1817 C 0.05547 0.84989 0.60847 0.0
C1818 C 0.05628 0.86494 0.62703 0.0
H1819 H 0.0245 0.87891 0.69227 0.0
H1820 H 0.0224 0.88347 0.66201 0.0
H1821 H 0.03506 0.85742 0.6727 0.0
H1822 H 0.09934 0.83986 0.65746 0.0
H1823 H 0.09811 0.8135 0.62494 0.0
H1824 H 0.88807 0.54242 0.84364 0.0
H1825 H 0.85429 0.54612 0.86752 0.0
H1826 H 0.82505 0.59405 0.81951 0.0
H1827 H 0.85929 0.59064 0.79537 0.0
H1828 H 0.8248 0.61033 0.86333 0.0
H1829 H 0.78923 0.52319 0.86338 0.0
H1830 H 0.81944 0.52171 0.86842 0.0
H1831 H 0.80893 0.5329 0.8416 0.0
C1832 C 0.87435 0.55351 0.83791 0.0
C1833 C 0.87644 0.56636 0.81769 0.0
C1834 C 0.85489 0.55541 0.85147 0.0
C1835 C 0.83696 0.57004 0.84509 0.0
C1836 C 0.83861 0.58246 0.82458 0.0
H1837 H 0.74912 0.55767 0.96406 0.0
H1838 H 0.75453 0.56487 0.92315 0.0
C1839 C 0.85815 0.58049 0.81085 0.0
C1840 C 0.81812 0.57405 0.86152 0.0
H1841 H 0.78599 0.54429 0.89988 0.0
C1842 C 0.81566 0.59604 0.87089 0.0
C1843 C 0.80558 0.55565 0.87096 0.0
C1844 C 0.80575 0.53211 0.86033 0.0
C1845 C 0.80331 0.59948 0.8912 0.0
C1846 C 0.79375 0.58034 0.90256 0.0
C1847 C 0.79374 0.55896 0.89154 0.0
C1848 C 0.78767 0.58099 0.92721 0.0
C1849 C 0.8017 0.62336 0.90087 0.0
C1850 C 0.80416 0.58827 0.94317 0.0
C1851 C 0.80108 0.58429 0.96649 0.0
C1852 C 0.78163 0.57254 0.97436 0.0
C1853 C 0.7644 0.56659 0.95855 0.0
C1854 C 0.76744 0.57074 0.93515 0.0
H1855 H 0.80016 0.63612 0.88684 0.0
H1856 H 0.78685 0.62525 0.91256 0.0
H1857 H 0.81763 0.62737 0.91046 0.0
H1858 H 0.82021 0.59562 0.93753 0.0
H1859 H 0.81466 0.58921 0.97817 0.0
H1860 H 0.59957 0.4642 0.34727 0.0
H1861 H 0.63039 0.45873 0.37481 0.0
H1862 H 0.6588 0.4051 0.33279 0.0
H1863 H 0.6277 0.41048 0.30488 0.0
H1864 H 0.65155 0.39227 0.37835 0.0
H1865 H 0.69863 0.47409 0.37513 0.0
H1866 H 0.66837 0.47892 0.3767 0.0
H1867 H 0.6802 0.46456 0.3521 0.0
C1868 C 0.61255 0.45147 0.34365 0.0
C1869 C 0.61113 0.43768 0.32397 0.0
C1870 C 0.63031 0.44852 0.35932 0.0
C1871 C 0.64708 0.43175 0.35568 0.0
C1872 C 0.64614 0.41831 0.33575 0.0
H1873 H 0.73478 0.43274 0.47823 0.0
H1874 H 0.72718 0.42684 0.43724 0.0
C1875 C 0.6284 0.42142 0.31986 0.0
C1876 C 0.66373 0.42686 0.37419 0.0
H1877 H 0.69826 0.45469 0.41224 0.0
C1878 C 0.66235 0.40566 0.38541 0.0
C1879 C 0.67818 0.44412 0.38316 0.0
C1880 C 0.68163 0.46661 0.37097 0.0
C1881 C 0.67311 0.40218 0.40663 0.0
C1882 C 0.68524 0.42047 0.41692 0.0
C1883 C 0.68867 0.44076 0.40452 0.0
C1884 C 0.69096 0.42046 0.44164 0.0
C1885 C 0.67036 0.37938 0.4184 0.0
C1886 C 0.67317 0.41864 0.45765 0.0
C1887 C 0.67739 0.42216 0.48088 0.0
C1888 C 0.6995 0.42765 0.48864 0.0
C1889 C 0.71757 0.42847 0.47275 0.0
C1890 C 0.71327 0.42512 0.44936 0.0
H1891 H 0.66861 0.36532 0.40569 0.0
H1892 H 0.68511 0.37562 0.42982 0.0
H1893 H 0.65453 0.37964 0.42889 0.0
H1894 H 0.65574 0.41559 0.45207 0.0
H1895 H 0.66313 0.4213 0.49269 0.0
H1896 H 0.25947 0.92995 0.0214 0.0
H1897 H 0.26687 0.92313 0.06231 0.0
H1898 H 0.33942 0.92128 0.04891 0.0
H1899 H 0.3323 0.92785 0.00839 0.0
H1900 H 0.3229 0.88642 0.0799 0.0
H1901 H 0.29507 0.97477 0.10313 0.0
H1902 H 0.27574 0.95659 0.08736 0.0
H1903 H 0.30124 0.96704 0.07385 0.0
C1904 C 0.27697 0.92783 0.02718 0.0
C1905 C 0.29532 0.92976 0.01169 0.0
C1906 C 0.28115 0.924 0.05054 0.0
C1907 C 0.3037 0.92192 0.05862 0.0
C1908 C 0.32188 0.92284 0.04302 0.0
H1909 H 0.39793 0.95451 0.15198 0.0
H1910 H 0.36634 0.95073 0.12506 0.0
C1911 C 0.31777 0.92675 0.01985 0.0
C1912 C 0.3091 0.92037 0.08337 0.0
H1913 H 0.31721 0.95483 0.12989 0.0
C1914 C 0.32104 0.90105 0.0912 0.0
C1915 C 0.30661 0.93953 0.09796 0.0
C1916 C 0.29405 0.96076 0.09029 0.0
C1917 C 0.33231 0.90116 0.11247 0.0
C1918 C 0.33141 0.92108 0.12623 0.0
C1919 C 0.31775 0.93958 0.11929 0.0
C1920 C 0.34839 0.92497 0.14469 0.0
C1921 C 0.34684 0.88087 0.11909 0.0
C1922 C 0.34845 0.91216 0.16506 0.0
C1923 C 0.36664 0.91434 0.18067 0.0
C1924 C 0.38501 0.92917 0.17586 0.0
C1925 C 0.38418 0.94272 0.15601 0.0
C1926 C 0.36606 0.94068 0.14066 0.0
H1927 H 0.34662 0.86721 0.10584 0.0
H1928 H 0.36483 0.88637 0.12189 0.0
H1929 H 0.34046 0.87351 0.13539 0.0
H1930 H 0.33484 0.90006 0.16854 0.0
H1931 H 0.36684 0.90374 0.19587 0.0
H1932 H 0.17821 0.07603 0.52099 0.0
H1933 H 0.17504 0.08738 0.56071 0.0
H1934 H 0.2458 0.06943 0.57215 0.0
H1935 H 0.24889 0.05703 0.53212 0.0
H1936 H 0.22159 0.05137 0.60379 0.0
H1937 H 0.19259 0.14005 0.59907 0.0
H1938 H 0.17469 0.12432 0.57981 0.0
H1939 H 0.20515 0.12595 0.57458 0.0
C1940 C 0.19328 0.0748 0.53175 0.0
C1941 C 0.21376 0.06542 0.52339 0.0
C1942 C 0.19153 0.08166 0.55451 0.0
C1943 C 0.21034 0.07986 0.5694 0.0
C1944 C 0.23113 0.07124 0.56093 0.0
H1945 H 0.13598 0.10763 0.69427 0.0
H1946 H 0.17116 0.11158 0.67179 0.0
C1947 C 0.23283 0.06409 0.53809 0.0
C1948 C 0.2068 0.08387 0.59425 0.0
H1949 H 0.17269 0.11601 0.62878 0.0
C1950 C 0.2116 0.06592 0.60951 0.0
C1951 C 0.19476 0.10326 0.60235 0.0
C1952 C 0.19183 0.12455 0.58805 0.0
C1953 C 0.20169 0.06534 0.63136 0.0
C1954 C 0.18592 0.08263 0.6376 0.0
C1955 C 0.18406 0.10222 0.62379 0.0
C1956 C 0.16795 0.07859 0.65511 0.0
C1957 C 0.20716 0.04548 0.64691 0.0
C1958 C 0.15469 0.05858 0.65367 0.0
C1959 C 0.13483 0.05621 0.66657 0.0
C1960 C 0.12736 0.07405 0.68087 0.0
C1961 C 0.1412 0.09364 0.68329 0.0
C1962 C 0.16133 0.0959 0.67048 0.0
H1963 H 0.22562 0.0411 0.64575 0.0
H1964 H 0.20291 0.04926 0.66506 0.0
H1965 H 0.19738 0.03017 0.64126 0.0
H1966 H 0.15881 0.04527 0.64145 0.0
H1967 H 0.12469 0.04083 0.66432 0.0
H1968 H 0.9848 0.7684 0.57625 0.0
H1969 H 0.94418 0.7786 0.58143 0.0
H1970 H 0.9527 0.83565 0.53541 0.0
H1971 H 0.99277 0.82591 0.53031 0.0
H1972 H 0.92737 0.82545 0.59655 0.0
H1973 H 0.89535 0.79878 0.51131 0.0
H1974 H 0.92082 0.78676 0.52421 0.0
H1975 H 0.92199 0.81411 0.51012 0.0
C1976 C 0.9779 0.78301 0.56717 0.0
C1977 C 0.99201 0.79634 0.55289 0.0
C1978 C 0.95477 0.7888 0.57015 0.0
C1979 C 0.94546 0.80767 0.55853 0.0
C1980 C 0.9595 0.82082 0.54425 0.0
H1981 H 0.85445 0.91019 0.53909 0.0
H1982 H 0.88252 0.87944 0.54068 0.0
C1983 C 0.98249 0.81529 0.54149 0.0
C1984 C 0.92143 0.81487 0.56174 0.0
H1985 H 0.87458 0.82936 0.53 0.0
C1986 C 0.91539 0.82564 0.58234 0.0
C1987 C 0.90593 0.81504 0.54313 0.0
C1988 C 0.91123 0.80285 0.52099 0.0
C1989 C 0.89512 0.83848 0.58403 0.0
C1990 C 0.88066 0.84035 0.56468 0.0
C1991 C 0.88577 0.82794 0.54477 0.0
C1992 C 0.86263 0.85805 0.56339 0.0
C1993 C 0.89025 0.85158 0.60575 0.0
C1994 C 0.84198 0.85602 0.57546 0.0
C1995 C 0.82573 0.87365 0.57455 0.0
C1996 C 0.83005 0.89358 0.56168 0.0
C1997 C 0.85061 0.8952 0.54931 0.0
C1998 C 0.86667 0.87761 0.55012 0.0
H1999 H 0.9035 0.84868 0.6191 0.0
H2000 H 0.88936 0.8702 0.60198 0.0
H2001 H 0.87337 0.84632 0.6127 0.0
H2002 H 0.83855 0.84093 0.58568 0.0
H2003 H 0.81004 0.87186 0.58424 0.0
H2004 H 0.64611 0.10286 0.04179 0.0
H2005 H 0.62367 0.13779 0.04294 0.0
H2006 H 0.66518 0.16312 0.09872 0.0
H2007 H 0.68732 0.12749 0.09826 0.0
H2008 H 0.62292 0.16887 0.10879 0.0
H2009 H 0.6324 0.2013 0.0214 0.0
H2010 H 0.62428 0.17186 0.01909 0.0
H2011 H 0.65109 0.17939 0.03264 0.0
C2012 C 0.65071 0.11594 0.05414 0.0
C2013 C 0.66841 0.11235 0.07003 0.0
C2014 C 0.63803 0.13612 0.05457 0.0
C2015 C 0.6431 0.15343 0.0705 0.0
C2016 C 0.66111 0.15012 0.08611 0.0
H2017 H 0.52919 0.24641 0.04649 0.0
H2018 H 0.56973 0.23949 0.05502 0.0
C2019 C 0.67366 0.12973 0.08589 0.0
C2020 C 0.62759 0.17343 0.0724 0.0
H2021 H 0.5937 0.20669 0.0386 0.0
C2022 C 0.61703 0.17772 0.09356 0.0
C2023 C 0.62044 0.18589 0.05289 0.0
C2024 C 0.63293 0.18452 0.03034 0.0
C2025 C 0.5976 0.1917 0.095 0.0
C2026 C 0.58808 0.20081 0.07466 0.0
C2027 C 0.60048 0.19912 0.05415 0.0
C2028 C 0.56372 0.20782 0.07332 0.0
C2029 C 0.5868 0.19549 0.11814 0.0
C2030 C 0.54685 0.19255 0.08103 0.0
C2031 C 0.52385 0.19651 0.07635 0.0
C2032 C 0.51711 0.2156 0.06336 0.0
C2033 C 0.53385 0.23148 0.05643 0.0
C2034 C 0.557 0.22757 0.06134 0.0
H2035 H 0.60023 0.19744 0.13151 0.0
H2036 H 0.57569 0.2109 0.11833 0.0
H2037 H 0.57639 0.18028 0.12279 0.0
H2038 H 0.5515 0.17679 0.0896 0.0
H2039 H 0.51145 0.18394 0.08205 0.0
H2040 H 0.46577 0.73777 0.46234 0.0
H2041 H 0.42567 0.72661 0.45643 0.0
H2042 H 0.44677 0.67725 0.40571 0.0
H2043 H 0.4865 0.68853 0.4111 0.0
H2044 H 0.40502 0.69832 0.39503 0.0
H2045 H 0.40728 0.66497 0.48454 0.0
H2046 H 0.41245 0.69503 0.48048 0.0
H2047 H 0.43283 0.6745 0.47012 0.0
C2048 C 0.46177 0.72496 0.44952 0.0
C2049 C 0.47933 0.71368 0.43752 0.0
C2050 C 0.43888 0.71853 0.44626 0.0
C2051 C 0.43333 0.70077 0.43098 0.0
C2052 C 0.45067 0.69092 0.41766 0.0
H2053 H 0.35794 0.5832 0.42303 0.0
H2054 H 0.38306 0.61612 0.42765 0.0
C2055 C 0.47342 0.6973 0.42088 0.0
C2056 C 0.4103 0.69014 0.43059 0.0
H2057 H 0.3773 0.65283 0.46111 0.0
C2058 C 0.39854 0.68886 0.40962 0.0
C2059 C 0.40205 0.67767 0.44966 0.0
C2060 C 0.41428 0.6779 0.47247 0.0
C2061 C 0.37965 0.67421 0.4068 0.0
C2062 C 0.37234 0.66074 0.4255 0.0
C2063 C 0.38303 0.66328 0.44687 0.0
C2064 C 0.35642 0.64128 0.42241 0.0
C2065 C 0.36874 0.67189 0.38348 0.0
C2066 C 0.33305 0.64457 0.4179 0.0
C2067 C 0.31851 0.62566 0.41519 0.0
C2068 C 0.3272 0.60323 0.41694 0.0
C2069 C 0.35064 0.60017 0.42147 0.0
C2070 C 0.36505 0.61898 0.4242 0.0
H2071 H 0.37748 0.68251 0.37034 0.0
H2072 H 0.36912 0.65371 0.37788 0.0
H2073 H 0.35055 0.67723 0.38441 0.0
H2074 H 0.32607 0.6617 0.41667 0.0
H2075 H 0.30051 0.62859 0.41184 0.0
H2076 H 0.99422 0.30379 0.89235 0.0
H2077 H 0.03422 0.31395 0.88539 0.0
H2078 H 0.05277 0.28585 0.95126 0.0
H2079 H 0.01305 0.2744 0.95751 0.0
H2080 H 0.05385 0.3445 0.90866 0.0
H2081 H 0.10806 0.26776 0.91677 0.0
H2082 H 0.0774 0.26584 0.9133 0.0
H2083 H 0.08983 0.27013 0.94129 0.0
C2084 C 0.00703 0.29919 0.90497 0.0
C2085 C 0.00067 0.28846 0.92549 0.0
C2086 C 0.02986 0.30493 0.90099 0.0
C2087 C 0.04664 0.30057 0.91771 0.0
C2088 C 0.04039 0.28883 0.93777 0.0
H2089 H 0.14747 0.39473 0.95745 0.0
H2090 H 0.11754 0.36569 0.9543 0.0
C2091 C 0.01762 0.2825 0.94146 0.0
C2092 C 0.06938 0.3118 0.91604 0.0
H2093 H 0.12659 0.30426 0.92606 0.0
C2094 C 0.06975 0.33547 0.91192 0.0
C2095 C 0.09028 0.30017 0.92015 0.0
C2096 C 0.09137 0.27452 0.92286 0.0
C2097 C 0.0901 0.34799 0.91298 0.0
C2098 C 0.11061 0.33671 0.91904 0.0
C2099 C 0.11068 0.31288 0.92189 0.0
C2100 C 0.13154 0.35005 0.92379 0.0
C2101 C 0.08936 0.3734 0.90821 0.0
C2102 C 0.15 0.34986 0.90845 0.0
C2103 C 0.16735 0.36632 0.9104 0.0
C2104 C 0.16612 0.38318 0.92755 0.0
C2105 C 0.14861 0.38206 0.94393 0.0
C2106 C 0.13157 0.36549 0.94217 0.0
H2107 H 0.0741 0.37814 0.89787 0.0
H2108 H 0.08846 0.38283 0.92469 0.0
H2109 H 0.10497 0.37909 0.89899 0.0
H2110 H 0.1502 0.33801 0.89417 0.0
H2111 H 0.18069 0.3669 0.89755 0.0
H2112 H 0.59552 0.81404 0.88148 0.0
H2113 H 0.5969 0.8428 0.85091 0.0
H2114 H 0.5339 0.87217 0.87578 0.0
H2115 H 0.53187 0.84322 0.90546 0.0
H2116 H 0.53498 0.8726 0.8302 0.0
H2117 H 0.617 0.90712 0.86478 0.0
H2118 H 0.61753 0.87799 0.85497 0.0
H2119 H 0.6008 0.88552 0.87967 0.0
C2120 C 0.58182 0.82645 0.8802 0.0
C2121 C 0.56379 0.82655 0.89617 0.0
C2122 C 0.58271 0.84295 0.86281 0.0
C2123 C 0.56579 0.85998 0.8614 0.0
C2124 C 0.5472 0.85927 0.87655 0.0
H2125 H 0.56075 -0.00064 0.83867 0.0
H2126 H 0.5674 0.95965 0.84924 0.0
C2127 C 0.54614 0.84271 0.89365 0.0
C2128 C 0.56777 0.87967 0.84549 0.0
H2129 H 0.59837 0.92869 0.83683 0.0
C2130 C 0.549 0.88474 0.83131 0.0
C2131 C 0.58613 0.89545 0.84702 0.0
C2132 C 0.60646 0.89143 0.86252 0.0
C2133 C 0.54718 0.9059 0.82008 0.0
C2134 C 0.56508 0.92209 0.82245 0.0
C2135 C 0.58468 0.91625 0.83511 0.0
C2136 C 0.56241 0.94621 0.815 0.0
C2137 C 0.52535 0.91132 0.80731 0.0
C2138 C 0.55773 0.95199 0.79212 0.0
C2139 C 0.55345 0.97478 0.78608 0.0
C2140 C 0.55427 0.99217 0.80274 0.0
C2141 C 0.55992 0.9864 0.82541 0.0
C2142 C 0.56381 0.96367 0.83148 0.0
H2143 H 0.51158 0.89872 0.81097 0.0
H2144 H 0.51902 0.92865 0.81188 0.0
H2145 H 0.52872 0.91098 0.78862 0.0
H2146 H 0.55714 0.93889 0.77901 0.0
H2147 H 0.54947 0.97878 0.7684 0.0
H2148 H 0.10357 0.66919 0.12764 0.0
H2149 H 0.10602 0.63955 0.15725 0.0
H2150 H 0.03891 0.61514 0.13826 0.0
H2151 H 0.03598 0.6449 0.10935 0.0
H2152 H 0.04633 0.61237 0.18468 0.0
H2153 H 0.11919 0.57485 0.13576 0.0
H2154 H 0.12286 0.60336 0.1467 0.0
H2155 H 0.10224 0.598 0.12446 0.0
C2156 C 0.08917 0.65776 0.13007 0.0
C2157 C 0.06979 0.6591 0.11578 0.0
C2158 C 0.09065 0.64079 0.14695 0.0
C2159 C 0.07287 0.62482 0.14959 0.0
C2160 C 0.05288 0.62721 0.13646 0.0
H2161 H 0.05195 0.48831 0.15826 0.0
H2162 H 0.06052 0.52855 0.15243 0.0
C2163 C 0.05131 0.6442 0.1198 0.0
C2164 C 0.07558 0.60405 0.16391 0.0
H2165 H 0.10199 0.55197 0.16345 0.0
C2166 C 0.05886 0.59932 0.18053 0.0
C2167 C 0.09197 0.58708 0.15837 0.0
C2168 C 0.11003 0.59088 0.14028 0.0
C2169 C 0.05692 0.57746 0.19035 0.0
C2170 C 0.07232 0.56011 0.18358 0.0
C2171 C 0.09025 0.56541 0.16854 0.0
C2172 C 0.06758 0.53566 0.18813 0.0
C2173 C 0.0373 0.57253 0.20639 0.0
C2174 C 0.06873 0.52627 0.21023 0.0
C2175 C 0.06369 0.50306 0.2137 0.0
C2176 C 0.05748 0.48899 0.19509 0.0
C2177 C 0.05657 0.49857 0.17303 0.0
C2178 C 0.06156 0.5216 0.16962 0.0
H2179 H 0.02584 0.58754 0.20858 0.0
H2180 H 0.02703 0.55791 0.19984 0.0
H2181 H 0.04414 0.56765 0.22344 0.0
H2182 H 0.07359 0.53684 0.22469 0.0
H2183 H 0.06468 0.49614 0.23089 0.0
H2184 H 0.45378 0.48911 0.66827 0.0
H2185 H 0.44156 0.45054 0.65831 0.0
H2186 H 0.41659 0.44024 0.72699 0.0
H2187 H 0.42881 0.4792 0.7373 0.0
H2188 H 0.44487 0.4032 0.70763 0.0
H2189 H 0.37375 0.42912 0.65061 0.0
H2190 H 0.39966 0.44469 0.64503 0.0
H2191 H 0.3856 0.44787 0.67225 0.0
C2192 C 0.44575 0.47873 0.68136 0.0
C2193 C 0.4423 0.48727 0.7036 0.0
C2194 C 0.43863 0.45672 0.67557 0.0
C2195 C 0.42787 0.44274 0.69182 0.0
C2196 C 0.42471 0.45091 0.71418 0.0
H2197 H 0.38275 0.32021 0.6186 0.0
H2198 H 0.38092 0.34794 0.6501 0.0
C2199 C 0.43173 0.47312 0.72002 0.0
C2200 C 0.42063 0.41944 0.68506 0.0
H2201 H 0.39071 0.39216 0.64301 0.0
C2202 C 0.43258 0.4006 0.69393 0.0
C2203 C 0.40422 0.41604 0.66759 0.0
C2204 C 0.38988 0.43549 0.65847 0.0
C2205 C 0.43012 0.37876 0.68415 0.0
C2206 C 0.41565 0.37592 0.66489 0.0
C2207 C 0.40202 0.39433 0.65761 0.0
C2208 C 0.41717 0.35563 0.64971 0.0
C2209 C 0.44381 0.35918 0.69391 0.0
C2210 C 0.4382 0.35038 0.63941 0.0
C2211 C 0.43928 0.33469 0.62145 0.0
C2212 C 0.4193 0.32402 0.61326 0.0
C2213 C 0.39844 0.32814 0.62454 0.0
C2214 C 0.39736 0.34398 0.64253 0.0
H2215 H 0.44628 0.36131 0.71267 0.0
H2216 H 0.43536 0.34245 0.69065 0.0
H2217 H 0.46101 0.35897 0.68588 0.0
H2218 H 0.45362 0.35951 0.64422 0.0
H2219 H 0.45563 0.3318 0.61321 0.0
H2220 H 0.93009 0.00781 0.26025 0.0
H2221 H 0.9209 0.04814 0.26827 0.0
H2222 H 0.91979 0.03341 0.34065 0.0
H2223 H 0.92852 0.99358 0.33295 0.0
H2224 H 0.88298 0.06113 0.32514 0.0
H2225 H 0.9684 0.09299 0.29675 0.0
H2226 H 0.9512 0.07644 0.27719 0.0
H2227 H 0.9634 0.06295 0.30194 0.0
C2228 C 0.92773 0.01321 0.27784 0.0
C2229 C 0.93033 -0.00245 0.29598 0.0
C2230 C 0.92254 0.03622 0.28237 0.0
C2231 C 0.91985 0.04373 0.30506 0.0
C2232 C 0.92176 0.02795 0.32301 0.0
H2233 H 0.94937 0.13954 0.39932 0.0
H2234 H 0.94674 0.11265 0.36763 0.0
C2235 C 0.92692 0.00516 0.31856 0.0
C2236 C 0.91622 0.06807 0.31098 0.0
H2237 H 0.94679 0.11693 0.32044 0.0
C2238 C 0.89658 0.07369 0.32357 0.0
C2239 C 0.93404 0.08429 0.3088 0.0
C2240 C 0.95554 0.07902 0.29552 0.0
C2241 C 0.89527 0.09418 0.33604 0.0
C2242 C 0.91395 0.10961 0.33539 0.0
C2243 C 0.93257 0.10499 0.32092 0.0
C2244 C 0.91647 0.12798 0.35269 0.0
C2245 C 0.87491 0.09805 0.35147 0.0
C2246 C 0.9006 0.14591 0.35455 0.0
C2247 C 0.90187 0.16124 0.37296 0.0
C2248 C 0.91917 0.15896 0.38963 0.0
C2249 C 0.93569 0.1417 0.38695 0.0
C2250 C 0.9343 0.12636 0.36873 0.0
H2251 H 0.86339 0.08292 0.35216 0.0
H2252 H 0.88065 0.10209 0.36916 0.0
H2253 H 0.86485 0.11282 0.34504 0.0
H2254 H 0.88695 0.14771 0.34211 0.0
H2255 H 0.88906 0.17456 0.37435 0.0
H2256 H 0.02237 0.3379 0.18515 0.0
H2257 H 0.00282 0.31071 0.15955 0.0
H2258 H 0.03644 0.34134 0.10141 0.0
H2259 H 0.05571 0.36847 0.12664 0.0
H2260 H 0.97316 0.32684 0.12389 0.0
H2261 H 0.04175 0.27186 0.08899 0.0
H2262 H 0.04458 0.2871 0.11583 0.0
H2263 H 0.04959 0.30158 0.08909 0.0
C2264 C 0.02601 0.33837 0.16696 0.0
C2265 C 0.04048 0.3553 0.15782 0.0
C2266 C 0.01482 0.3229 0.15241 0.0
C2267 C 0.01843 0.32387 0.12866 0.0
C2268 C 0.03376 0.34002 0.11973 0.0
H2269 H 0.95169 0.32374 0.00614 0.0
H2270 H 0.96568 0.32835 0.04525 0.0
C2271 C 0.04463 0.35563 0.13414 0.0
C2272 C 0.00418 0.31041 0.11261 0.0
H2273 H 0.00886 0.27815 0.06417 0.0
C2274 C 0.98077 0.3156 0.11122 0.0
C2275 C 0.01408 0.29559 0.09627 0.0
C2276 C 0.03886 0.2885 0.09773 0.0
C2277 C 0.96753 0.30811 0.09261 0.0
C2278 C 0.97807 0.29529 0.07502 0.0
C2279 C 0.00088 0.28823 0.07758 0.0
C2280 C 0.96696 0.29204 0.05249 0.0
C2281 C 0.9427 0.31501 0.09127 0.0
C2282 C 0.96307 0.27006 0.04361 0.0
C2283 C 0.95498 0.26736 0.02119 0.0
C2284 C 0.95115 0.28662 0.00722 0.0
C2285 C 0.95458 0.30858 0.01642 0.0
C2286 C 0.96238 0.31125 0.03884 0.0
H2287 H 0.93549 0.31814 0.1086 0.0
H2288 H 0.94123 0.33114 0.08134 0.0
H2289 H 0.9323 0.30167 0.08254 0.0
H2290 H 0.96674 0.25504 0.05386 0.0
H2291 H 0.95256 0.25021 0.01455 0.0
H2292 H 0.50389 0.68228 0.51432 0.0
H2293 H 0.49324 0.67549 0.55405 0.0
H2294 H 0.53267 0.73427 0.57525 0.0
H2295 H 0.54347 0.74135 0.53522 0.0
H2296 H 0.54176 0.69246 0.59982 0.0
H2297 H 0.44923 0.71175 0.59637 0.0
H2298 H 0.45814 0.69425 0.57273 0.0
H2299 H 0.46938 0.72281 0.57564 0.0
C2300 C 0.5102 0.69391 0.52735 0.0
C2301 C 0.5245 0.71237 0.52164 0.0
C2302 C 0.50391 0.69013 0.55002 0.0
C2303 C 0.51183 0.70466 0.56745 0.0
C2304 C 0.52616 0.7231 0.56193 0.0
H2305 H 0.4551 0.64747 0.69417 0.0
H2306 H 0.47018 0.67918 0.67099 0.0
C2307 C 0.5323 0.72707 0.53911 0.0
C2308 C 0.50642 0.69899 0.59146 0.0
H2309 H 0.461 0.68306 0.62429 0.0
C2310 C 0.52416 0.69107 0.60557 0.0
C2311 C 0.48353 0.69766 0.59912 0.0
C2312 C 0.464 0.70732 0.58525 0.0
C2313 C 0.51934 0.67944 0.626 0.0
C2314 C 0.49627 0.67552 0.63214 0.0
C2315 C 0.47869 0.68582 0.6194 0.0
C2316 C 0.48988 0.65735 0.6485 0.0
C2317 C 0.53891 0.67015 0.64005 0.0
C2318 C 0.49601 0.63469 0.64348 0.0
C2319 C 0.48727 0.61669 0.65637 0.0
C2320 C 0.47217 0.62095 0.67456 0.0
C2321 C 0.46671 0.64371 0.68022 0.0
C2322 C 0.47533 0.66181 0.66708 0.0
H2323 H 0.5543 0.68122 0.63844 0.0
H2324 H 0.53424 0.66873 0.65843 0.0
H2325 H 0.54352 0.65287 0.63364 0.0
H2326 H 0.50677 0.63082 0.62888 0.0
H2327 H 0.49193 0.59935 0.65171 0.0
H2328 H 0.48838 0.18155 0.98431 0.0
H2329 H 0.50068 0.1757 0.94506 0.0
H2330 H 0.4715 0.24066 0.92562 0.0
H2331 H 0.45887 0.24677 0.96532 0.0
H2332 H 0.45983 0.2037 0.89617 0.0
H2333 H 0.55308 0.20722 0.91045 0.0
H2334 H 0.53963 0.18914 0.93129 0.0
H2335 H 0.53278 0.21921 0.93048 0.0
C2336 C 0.48463 0.19474 0.97183 0.0
C2337 C 0.47273 0.21471 0.97801 0.0
C2338 C 0.49186 0.19143 0.94939 0.0
C2339 C 0.48747 0.20799 0.93259 0.0
C2340 C 0.47533 0.22785 0.93848 0.0
H2341 H 0.55201 0.14935 0.81152 0.0
H2342 H 0.53912 0.18169 0.8349 0.0
C2343 C 0.46813 0.23128 0.96111 0.0
C2344 C 0.49453 0.20328 0.90877 0.0
H2345 H 0.54019 0.18189 0.87966 0.0
C2346 C 0.4775 0.19959 0.89222 0.0
C2347 C 0.51762 0.19858 0.90337 0.0
C2348 C 0.53684 0.20401 0.91979 0.0
C2349 C 0.48268 0.18877 0.87139 0.0
C2350 C 0.50531 0.1811 0.86742 0.0
C2351 C 0.52272 0.18733 0.88282 0.0
C2352 C 0.51063 0.16345 0.84999 0.0
C2353 C 0.46365 0.18468 0.8544 0.0
C2354 C 0.49876 0.14255 0.8505 0.0
C2355 C 0.50603 0.12414 0.83722 0.0
C2356 C 0.5256 0.12606 0.82337 0.0
C2357 C 0.53695 0.14727 0.82211 0.0
C2358 C 0.52957 0.1658 0.83539 0.0
H2359 H 0.45118 0.19903 0.85472 0.0
H2360 H 0.47029 0.18272 0.83669 0.0
H2361 H 0.45425 0.16887 0.85918 0.0
H2362 H 0.48455 0.14002 0.86212 0.0
H2363 H 0.49681 0.1081 0.83857 0.0
H2364 H 0.01564 0.77248 0.47728 0.0
H2365 H 0.00512 0.78139 0.438 0.0
H2366 H 0.06837 0.8187 0.42941 0.0
H2367 H 0.07842 0.8108 0.46936 0.0
H2368 H 0.03576 0.84414 0.41761 0.0
H2369 H 0.01893 0.76204 0.37496 0.0
H2370 H 0.0031 0.76244 0.40116 0.0
H2371 H 0.034 0.76356 0.40195 0.0
C2372 C 0.02756 0.78215 0.46688 0.0
C2373 C 0.04774 0.79116 0.47642 0.0
C2374 C 0.02166 0.787 0.44425 0.0
C2375 C 0.03612 0.80039 0.43048 0.0
C2376 C 0.05697 0.80825 0.43964 0.0
H2377 H 0.97705 0.85182 0.30035 0.0
H2378 H 0.00223 0.82902 0.32528 0.0
C2379 C 0.06266 0.80382 0.46247 0.0
C2380 C 0.02756 0.8093 0.40827 0.0
H2381 H 0.9948 0.7945 0.36202 0.0
C2382 C 0.02744 0.83313 0.40515 0.0
C2383 C 0.01698 0.79511 0.39162 0.0
C2384 C 0.01854 0.76936 0.39253 0.0
C2385 C 0.01533 0.84318 0.3871 0.0
C2386 C 0.00245 0.8291 0.3722 0.0
C2387 C 0.00421 0.80524 0.37392 0.0
C2388 C 0.98535 0.83921 0.35661 0.0
C2389 C 0.01555 0.86893 0.38477 0.0
C2390 C 0.96697 0.85142 0.366 0.0
C2391 C 0.9528 0.86443 0.35198 0.0
C2392 C 0.95656 0.8652 0.32826 0.0
C2393 C 0.97376 0.85141 0.3186 0.0
C2394 C 0.98818 0.8385 0.33277 0.0
H2395 H 0.03124 0.87648 0.39249 0.0
H2396 H 0.01455 0.8742 0.36652 0.0
H2397 H 0.00054 0.87615 0.39389 0.0
H2398 H 0.96433 0.8518 0.38437 0.0
H2399 H 0.93952 0.87472 0.35983 0.0
H2400 H 0.15287 0.98841 0.43155 0.0
H2401 H 0.12364 0.9703 0.40769 0.0
H2402 H 0.14144 0.01483 0.35158 0.0
H2403 H 0.17052 0.03332 0.37538 0.0
H2404 H 0.09546 0.0151 0.36192 0.0
H2405 H 0.12658 0.92582 0.35384 0.0
H2406 H 0.12543 0.9359 0.38288 0.0
H2407 H 0.14485 0.94908 0.36297 0.0
C2408 C 0.15081 0.99417 0.41403 0.0
C2409 C 0.16393 0.01246 0.40544 0.0
C2410 C 0.13421 0.98365 0.40036 0.0
C2411 C 0.13057 0.99104 0.37779 0.0
C2412 C 0.14408 0.0088 0.36893 0.0
H2413 H 0.01871 0.96402 0.28204 0.0
H2414 H 0.0556 0.97538 0.2983 0.0
C2415 C 0.16067 0.01936 0.38258 0.0
C2416 C 0.11117 0.98185 0.36425 0.0
H2417 H 0.08751 0.93255 0.34344 0.0
C2418 C 0.09386 -0.0029 0.3576 0.0
C2419 C 0.10908 0.95835 0.35882 0.0
C2420 C 0.12757 0.94135 0.3648 0.0
C2421 C 0.07413 0.9894 0.34627 0.0
C2422 C 0.07189 0.96585 0.34106 0.0
C2423 C 0.08934 0.9506 0.34742 0.0
C2424 C 0.05101 0.95672 0.32996 0.0
C2425 C 0.05547 0.00641 0.34077 0.0
C2426 C 0.03674 0.9416 0.34195 0.0
C2427 C 0.0157 0.93495 0.33267 0.0
C2428 C 0.00858 0.94334 0.31121 0.0
C2429 C 0.02352 0.95749 0.29872 0.0
C2430 C 0.04458 0.96406 0.308 0.0
H2431 H 0.05757 0.02264 0.35049 0.0
H2432 H 0.05602 0.01056 0.32223 0.0
H2433 H 0.03833 -0.00083 0.34466 0.0
H2434 H 0.04149 0.93562 0.35887 0.0
H2435 H 0.00474 0.92382 0.34266 0.0
H2436 H 0.46652 0.03434 0.75791 0.0
H2437 H 0.42737 0.02098 0.76552 0.0
H2438 H 0.43587 0.03742 0.83707 0.0
H2439 H 0.47465 0.05072 0.82968 0.0
H2440 H 0.41819 0.98457 0.79489 0.0
H2441 H 0.3716 0.06145 0.82382 0.0
H2442 H 0.39766 0.0631 0.80722 0.0
H2443 H 0.39886 0.05917 0.83781 0.0
C2444 C 0.45981 0.03558 0.77515 0.0
C2445 C 0.4737 0.04341 0.79324 0.0
C2446 C 0.43747 0.02795 0.77945 0.0
C2447 C 0.42861 0.02851 0.80179 0.0
C2448 C 0.44215 0.0373 0.81961 0.0
H2449 H 0.36127 0.94732 0.89244 0.0
H2450 H 0.38476 0.96574 0.86338 0.0
C2451 C 0.46443 0.04467 0.8154 0.0
C2452 C 0.40661 0.01727 0.80747 0.0
H2453 H 0.3589 0.02508 0.84016 0.0
C2454 C 0.40485 0.99353 0.80418 0.0
C2455 C 0.38904 0.02897 0.81929 0.0
C2456 C 0.38926 0.05463 0.82202 0.0
C2457 C 0.38716 0.98091 0.81438 0.0
C2458 C 0.37103 0.99233 0.82831 0.0
C2459 C 0.37147 0.01631 0.82969 0.0
C2460 C 0.35614 0.97961 0.84435 0.0
C2461 C 0.3866 0.95529 0.81122 0.0
C2462 C 0.3322 0.98145 0.84337 0.0
C2463 C 0.31861 0.97079 0.86002 0.0
C2464 C 0.32886 0.95857 0.87809 0.0
C2465 C 0.35283 0.95662 0.87878 0.0
C2466 C 0.36629 0.967 0.86207 0.0
H2467 H 0.39485 0.95018 0.79486 0.0
H2468 H 0.39618 0.94706 0.82543 0.0
H2469 H 0.36875 0.94871 0.81143 0.0
H2470 H 0.3241 0.99136 0.82994 0.0
H2471 H 0.30019 0.97271 0.85915 0.0
H2472 H 0.63264 0.45284 0.60568 0.0
H2473 H 0.60994 0.47539 0.63233 0.0
H2474 H 0.67153 0.49924 0.66551 0.0
H2475 H 0.69463 0.47626 0.63892 0.0
H2476 H 0.63498 0.48806 0.6963 0.0
H2477 H 0.60679 0.54559 0.62679 0.0
H2478 H 0.60221 0.51616 0.61927 0.0
H2479 H 0.63092 0.52651 0.62381 0.0
C2480 C 0.64143 0.46272 0.61872 0.0
C2481 C 0.66543 0.46298 0.62006 0.0
C2482 C 0.62843 0.47565 0.63389 0.0
C2483 C 0.63914 0.48935 0.65047 0.0
C2484 C 0.66303 0.4889 0.65265 0.0
H2485 H 0.53118 0.57715 0.70009 0.0
H2486 H 0.57125 0.56837 0.69171 0.0
C2487 C 0.67614 0.47576 0.6375 0.0
C2488 C 0.62495 0.50451 0.66482 0.0
H2489 H 0.58155 0.5428 0.65944 0.0
C2490 C 0.6236 0.50048 0.68846 0.0
C2491 C 0.61079 0.52128 0.6547 0.0
C2492 C 0.61293 0.52784 0.62979 0.0
C2493 C 0.60681 0.51127 0.70184 0.0
C2494 C 0.59066 0.52581 0.69105 0.0
C2495 C 0.5936 0.53143 0.66784 0.0
C2496 C 0.56894 0.53284 0.70214 0.0
C2497 C 0.60626 0.5065 0.72721 0.0
C2498 C 0.55454 0.51614 0.71181 0.0
C2499 C 0.53187 0.52135 0.7172 0.0
C2500 C 0.52304 0.54311 0.71227 0.0
C2501 C 0.53767 0.56019 0.70386 0.0
C2502 C 0.56053 0.55518 0.69913 0.0
H2503 H 0.62391 0.50452 0.73405 0.0
H2504 H 0.59752 0.52035 0.73684 0.0
H2505 H 0.59714 0.49011 0.73029 0.0
H2506 H 0.56022 0.49861 0.71364 0.0
H2507 H 0.52081 0.50785 0.72349 0.0
H2508 H 0.97337 0.45434 0.20813 0.0
H2509 H 0.93723 0.4673 0.19165 0.0
H2510 H 0.94832 0.42428 0.13264 0.0
H2511 H 0.98471 0.41143 0.1488 0.0
H2512 H 0.9419 0.46986 0.12216 0.0
H2513 H 0.87376 0.43976 0.18104 0.0
H2514 H 0.89695 0.45435 0.19506 0.0
H2515 H 0.90217 0.42757 0.18083 0.0
C2516 C 0.96792 0.44723 0.19187 0.0
C2517 C 0.98208 0.43208 0.17963 0.0
C2518 C 0.94715 0.45454 0.18256 0.0
C2519 C 0.94005 0.44662 0.16101 0.0
C2520 C 0.95351 0.43053 0.14934 0.0
H2521 H 0.83837 0.4915 0.06331 0.0
H2522 H 0.86672 0.4699 0.08507 0.0
C2523 C 0.97431 0.42325 0.15859 0.0
C2524 C 0.92034 0.45739 0.14933 0.0
H2525 H 0.8631 0.46835 0.15374 0.0
C2526 C 0.92462 0.46932 0.12893 0.0
C2527 C 0.89793 0.45689 0.15842 0.0
C2528 C 0.89231 0.44379 0.17994 0.0
C2529 C 0.90715 0.48106 0.1175 0.0
C2530 C 0.88472 0.48053 0.12651 0.0
C2531 C 0.88036 0.46866 0.14693 0.0
C2532 C 0.86568 0.49217 0.11465 0.0
C2533 C 0.91295 0.49438 0.09611 0.0
C2534 C 0.85513 0.51135 0.12451 0.0
C2535 C 0.83881 0.52378 0.11213 0.0
C2536 C 0.8329 0.51716 0.08971 0.0
C2537 C 0.84281 0.4973 0.08038 0.0
C2538 C 0.85899 0.48489 0.09278 0.0
H2539 H 0.93165 0.49751 0.09457 0.0
H2540 H 0.90736 0.48448 0.08086 0.0
H2541 H 0.90395 0.51112 0.09589 0.0
H2542 H 0.86008 0.51713 0.14145 0.0
H2543 H 0.83137 0.5389 0.11984 0.0
H2544 H 0.41594 0.15969 0.99517 0.0
H2545 H 0.39037 0.13028 0.98028 0.0
H2546 H 0.34057 0.14698 0.03211 0.0
H2547 H 0.3663 0.17638 0.04746 0.0
H2548 H 0.35089 0.1012 0.03047 0.0
H2549 H 0.33163 0.13248 0.94316 0.0
H2550 H 0.36179 0.13217 0.94897 0.0
H2551 H 0.34337 0.15078 0.9652 0.0
C2552 C 0.39943 0.15738 0.00327 0.0
C2553 C 0.39324 0.17031 0.02262 0.0
C2554 C 0.38472 0.14067 0.99457 0.0
C2555 C 0.36342 0.13667 0.00487 0.0
C2556 C 0.35687 0.14995 0.02381 0.0
H2557 H 0.27558 0.01639 0.98197 0.0
H2558 H 0.28795 0.05466 0.99377 0.0
C2559 C 0.3716 0.16672 0.03255 0.0
C2560 C 0.34924 0.11707 0.99723 0.0
H2561 H 0.32622 0.09202 0.94962 0.0
C2562 C 0.34505 0.09936 0.01292 0.0
C2563 C 0.34172 0.11473 0.97431 0.0
C2564 C 0.34466 0.13367 0.95701 0.0
C2565 C 0.3347 0.07882 0.00598 0.0
C2566 C 0.32806 0.07611 0.98283 0.0
C2567 C 0.33141 0.09416 0.96734 0.0
C2568 C 0.31928 0.05402 0.97407 0.0
C2569 C 0.33204 0.05973 0.0232 0.0
C2570 C 0.33241 0.04139 0.95846 0.0
C2571 C 0.3254 0.01958 0.95163 0.0
C2572 C 0.30506 0.01 0.96025 0.0
C2573 C 0.29144 0.02315 0.97515 0.0
C2574 C 0.29849 0.04499 0.98198 0.0
H2575 H 0.3418 0.06308 0.0392 0.0
H2576 H 0.31369 0.05789 0.02774 0.0
H2577 H 0.3379 0.04321 0.01584 0.0
H2578 H 0.34847 0.04814 0.95211 0.0
H2579 H 0.33622 0.01003 0.93999 0.0
H2580 H 0.89355 0.34474 0.98248 0.0
H2581 H 0.8637 0.37047 0.99591 0.0
H2582 H 0.81545 0.33941 0.94925 0.0
H2583 H 0.84548 0.31384 0.93523 0.0
H2584 H 0.81577 0.3843 0.94461 0.0
H2585 H 0.8088 0.36522 0.03664 0.0
H2586 H 0.83827 0.36953 0.02939 0.0
H2587 H 0.82271 0.34594 0.01687 0.0
C2588 C 0.87652 0.3431 0.97529 0.0
C2589 C 0.87195 0.32741 0.95761 0.0
C2590 C 0.85936 0.35766 0.9832 0.0
C2591 C 0.83721 0.35657 0.9739 0.0
C2592 C 0.83238 0.34038 0.9568 0.0
H2593 H 0.75502 0.47025 0.02948 0.0
H2594 H 0.76176 0.43076 0.01668 0.0
C2595 C 0.84959 0.32588 0.94875 0.0
C2596 C 0.8203 0.37441 0.97994 0.0
H2597 H 0.80091 0.40512 0.02562 0.0
C2598 C 0.81194 0.38845 0.96231 0.0
C2599 C 0.81478 0.37959 0.00295 0.0
C2600 C 0.82142 0.36406 0.02248 0.0
C2601 C 0.8003 0.4088 0.96724 0.0
C2602 C 0.79739 0.4154 0.99034 0.0
C2603 C 0.80356 0.40022 0.00789 0.0
C2604 C 0.79165 0.43921 0.99655 0.0
C2605 C 0.79229 0.42364 0.94767 0.0
C2606 C 0.80633 0.45687 0.98958 0.0
C2607 C 0.80265 0.47923 0.99687 0.0
C2608 C 0.78422 0.48443 0.0114 0.0
C2609 C 0.76928 0.46678 0.01816 0.0
C2610 C 0.77308 0.44426 0.0109 0.0
H2611 H 0.78801 0.41311 0.9324 0.0
H2612 H 0.77705 0.43391 0.95252 0.0
H2613 H 0.80626 0.43554 0.94275 0.0
H2614 H 0.82111 0.45324 0.979 0.0
H2615 H 0.81452 0.49238 0.99139 0.0
H2616 H 0.58098 0.65863 0.50372 0.0
H2617 H 0.60721 0.63002 0.51884 0.0
H2618 H 0.65735 0.64867 0.46799 0.0
H2619 H 0.63097 0.67728 0.45239 0.0
H2620 H 0.6478 0.60285 0.4686 0.0
H2621 H 0.66541 0.63266 0.55674 0.0
H2622 H 0.63531 0.63217 0.55066 0.0
H2623 H 0.65372 0.65123 0.53492 0.0
C2624 C 0.5977 0.65691 0.49589 0.0
C2625 C 0.6038 0.67008 0.47669 0.0
C2626 C 0.61278 0.6407 0.50475 0.0
C2627 C 0.63435 0.63748 0.49476 0.0
C2628 C 0.64083 0.65107 0.47605 0.0
H2629 H 0.71996 0.51588 0.51769 0.0
H2630 H 0.70909 0.5547 0.5064 0.0
C2631 C 0.62573 0.66735 0.46715 0.0
C2632 C 0.64874 0.61806 0.5022 0.0
H2633 H 0.67039 0.59206 0.54984 0.0
C2634 C 0.65325 0.60068 0.48624 0.0
C2635 C 0.65575 0.61533 0.52522 0.0
C2636 C 0.6525 0.63397 0.5428 0.0
C2637 C 0.66324 0.57996 0.49301 0.0
C2638 C 0.66915 0.57678 0.51629 0.0
C2639 C 0.6657 0.59458 0.53203 0.0
C2640 C 0.67702 0.55437 0.52486 0.0
C2641 C 0.66615 0.56116 0.4755 0.0
C2642 C 0.6629 0.54173 0.53958 0.0
C2643 C 0.66903 0.5196 0.54611 0.0
C2644 C 0.68943 0.50975 0.53801 0.0
C2645 C 0.70399 0.52286 0.524 0.0
C2646 C 0.69783 0.54502 0.51751 0.0
H2647 H 0.65712 0.56503 0.4592 0.0
H2648 H 0.68462 0.559 0.47165 0.0
H2649 H 0.65963 0.54464 0.48227 0.0
H2650 H 0.64678 0.54875 0.54546 0.0
H2651 H 0.65754 0.51007 0.55709 0.0
H2652 H 0.10715 0.84632 0.51028 0.0
H2653 H 0.13913 0.86924 0.49676 0.0
H2654 H 0.18649 0.82429 0.53128 0.0
H2655 H 0.1542 0.80098 0.54501 0.0
H2656 H 0.19175 0.87041 0.54267 0.0
H2657 H 0.18916 0.86116 0.44881 0.0
H2658 H 0.16088 0.86585 0.45974 0.0
H2659 H 0.17633 0.8404 0.46787 0.0
C2660 C 0.12437 0.84106 0.51475 0.0
C2661 C 0.12818 0.822 0.52888 0.0
C2662 C 0.14267 0.85402 0.50676 0.0
C2663 C 0.16521 0.84824 0.51269 0.0
C2664 C 0.16922 0.82882 0.52628 0.0
H2665 H 0.24471 0.96498 0.46109 0.0
H2666 H 0.24035 0.92438 0.47128 0.0
C2667 C 0.1508 0.81559 0.53412 0.0
C2668 C 0.18374 0.86456 0.50709 0.0
H2669 H 0.20037 0.89922 0.46323 0.0
C2670 C 0.19436 0.87624 0.52523 0.0
C2671 C 0.18756 0.87188 0.48434 0.0
C2672 C 0.17805 0.85895 0.46409 0.0
C2673 C 0.20629 0.89671 0.52138 0.0
C2674 C 0.2073 0.90571 0.49894 0.0
C2675 C 0.19923 0.89252 0.48052 0.0
C2676 C 0.21235 0.93016 0.49478 0.0
C2677 C 0.21632 0.90934 0.54157 0.0
C2678 C 0.198 0.94673 0.50455 0.0
C2679 C 0.20024 0.9697 0.49863 0.0
C2680 C 0.21693 0.97664 0.48279 0.0
C2681 C 0.23178 0.96013 0.47345 0.0
C2682 C 0.22934 0.93699 0.47925 0.0
H2683 H 0.22174 0.89721 0.55519 0.0
H2684 H 0.23126 0.91993 0.53643 0.0
H2685 H 0.2031 0.92079 0.54897 0.0
H2686 H 0.18439 0.94177 0.51612 0.0
H2687 H 0.18856 0.98197 0.50615 0.0
H2688 H 0.98925 0.58367 0.84165 0.0
H2689 H 0.00533 0.60928 0.87041 0.0
H2690 H 0.95654 0.66139 0.85168 0.0
H2691 H 0.93997 0.63564 0.82285 0.0
H2692 H 0.02439 0.65378 0.86651 0.0
H2693 H 0.94613 0.65213 0.92097 0.0
H2694 H 0.95061 0.63192 0.89803 0.0
H2695 H 0.94252 0.66087 0.89166 0.0
C2696 C 0.98188 0.60058 0.84355 0.0
C2697 C 0.96309 0.60749 0.83013 0.0
C2698 C 0.9912 0.61523 0.85995 0.0
C2699 C 0.98195 0.63709 0.86335 0.0
C2700 C 0.96369 0.64443 0.84953 0.0
H2701 H 0.01591 0.72176 0.9829 0.0
H2702 H 0.00151 0.71145 0.94488 0.0
C2703 C 0.95431 0.62973 0.83303 0.0
C2704 C 0.99107 0.65155 0.88209 0.0
H2705 H 0.97826 0.67124 0.9356 0.0
C2706 C 0.01425 0.65791 0.8815 0.0
C2707 C 0.97775 0.65695 0.90156 0.0
C2708 C 0.95291 0.65004 0.90332 0.0
C2709 C 0.02467 0.66883 0.90023 0.0
C2710 C 0.01164 0.67315 0.92014 0.0
C2711 C 0.9882 0.66787 0.92028 0.0
C2712 C 0.02233 0.68101 0.94179 0.0
C2713 C 0.04962 0.67529 0.89866 0.0
C2714 C 0.03893 0.66739 0.95256 0.0
C2715 C 0.04715 0.67316 0.97428 0.0
C2716 C 0.03881 0.69262 0.98574 0.0
C2717 C 0.02271 0.70666 0.97457 0.0
C2718 C 0.01445 0.70081 0.95285 0.0
H2719 H 0.05496 0.67782 0.88058 0.0
H2720 H 0.0533 0.69118 0.90845 0.0
H2721 H 0.06016 0.66125 0.90592 0.0
H2722 H 0.04489 0.65176 0.94456 0.0
H2723 H 0.05955 0.66197 0.98234 0.0
H2724 H 0.49378 0.42302 0.33179 0.0
H2725 H 0.47595 0.3991 0.36099 0.0
H2726 H 0.53056 0.34993 0.35459 0.0
H2727 H 0.5486 0.37375 0.32506 0.0
H2728 H 0.48342 0.3311 0.35998 0.0
H2729 H 0.50778 0.39616 0.42515 0.0
H2730 H 0.49235 0.40719 0.40091 0.0
H2731 H 0.52042 0.39528 0.39697 0.0
C2732 C 0.50193 0.40701 0.33638 0.0
C2733 C 0.52283 0.40046 0.32639 0.0
C2734 C 0.49168 0.39337 0.35305 0.0
C2735 C 0.50217 0.37301 0.36014 0.0
C2736 C 0.5223 0.36568 0.34933 0.0
H2737 H 0.47435 0.28102 0.47373 0.0
H2738 H 0.48723 0.29687 0.4372 0.0
C2739 C 0.53258 0.37931 0.33252 0.0
C2740 C 0.49299 0.3605 0.38009 0.0
H2741 H 0.48352 0.36621 0.43742 0.0
C2742 C 0.48349 0.33865 0.37696 0.0
C2743 C 0.49327 0.37045 0.40217 0.0
C2744 C 0.50417 0.39347 0.40665 0.0
C2745 C 0.47359 0.32672 0.39537 0.0
C2746 C 0.47357 0.33688 0.41737 0.0
C2747 C 0.48338 0.35858 0.42047 0.0
C2748 C 0.46369 0.32545 0.43768 0.0
C2749 C 0.46279 0.30365 0.39109 0.0
C2750 C 0.44612 0.33621 0.44998 0.0
C2751 C 0.43886 0.32735 0.47093 0.0
C2752 C 0.44916 0.30759 0.48005 0.0
C2753 C 0.46607 0.29627 0.46719 0.0
C2754 C 0.47336 0.30521 0.44623 0.0
H2755 H 0.4593 0.30079 0.37259 0.0
H2756 H 0.47462 0.29004 0.39704 0.0
H2757 H 0.44651 0.30191 0.40073 0.0
H2758 H 0.43849 0.3519 0.44367 0.0
H2759 H 0.42567 0.3364 0.48029 0.0
H2760 H 0.51627 0.75931 0.03037 0.0
H2761 H 0.50453 0.76737 0.06982 0.0
H2762 H 0.54217 0.8309 0.06819 0.0
H2763 H 0.5543 0.82291 0.02911 0.0
H2764 H 0.54545 0.80658 0.11058 0.0
H2765 H 0.45548 0.81696 0.07998 0.0
H2766 H 0.46936 0.79004 0.07459 0.0
H2767 H 0.47923 0.81542 0.06035 0.0
C2768 C 0.52225 0.77488 0.03851 0.0
C2769 C 0.53584 0.79071 0.02646 0.0
C2770 C 0.51552 0.77942 0.06102 0.0
C2771 C 0.52222 0.79986 0.0717 0.0
C2772 C 0.53681 0.81503 0.06018 0.0
H2773 H 0.49892 0.90266 0.16393 0.0
H2774 H 0.5147 0.87213 0.14039 0.0
C2775 C 0.54359 0.8105 0.03777 0.0
C2776 C 0.51252 0.80688 0.09393 0.0
H2777 H 0.46401 0.82966 0.11686 0.0
C2778 C 0.52754 0.81117 0.11221 0.0
C2779 C 0.4891 0.81265 0.096 0.0
C2780 C 0.47229 0.80869 0.07671 0.0
C2781 C 0.52003 0.82248 0.13199 0.0
C2782 C 0.49705 0.82994 0.13323 0.0
C2783 C 0.48164 0.82395 0.11578 0.0
C2784 C 0.48944 0.84689 0.15036 0.0
C2785 C 0.53694 0.82714 0.15097 0.0
C2786 C 0.46987 0.84289 0.16366 0.0
C2787 C 0.4606 0.86045 0.17698 0.0
C2788 C 0.47063 0.88236 0.17696 0.0
C2789 C 0.4907 0.88603 0.16423 0.0
C2790 C 0.49994 0.86849 0.15099 0.0
H2791 H 0.55038 0.8137 0.15158 0.0
H2792 H 0.54557 0.84376 0.14772 0.0
H2793 H 0.52836 0.82802 0.16791 0.0
H2794 H 0.46139 0.82639 0.16318 0.0
H2795 H 0.44519 0.85704 0.18669 0.0
H2796 H 0.91941 0.17679 0.52722 0.0
H2797 H 0.93113 0.16787 0.56647 0.0
H2798 H 0.99388 0.2056 0.55631 0.0
H2799 H 0.98175 0.21546 0.51766 0.0
H2800 H 0.96473 0.14238 0.57667 0.0
H2801 H 0.98118 0.22439 0.62005 0.0
H2802 H 0.96546 0.22282 0.59343 0.0
H2803 H 0.99634 0.22407 0.59343 0.0
C2804 C 0.93545 0.18362 0.5336 0.0
C2805 C 0.94973 0.19671 0.51937 0.0
C2806 C 0.94211 0.17858 0.55604 0.0
C2807 C 0.96327 0.18631 0.56455 0.0
C2808 C 0.97715 0.20005 0.55054 0.0
H2809 H 0.05965 0.11177 0.63824 0.0
H2810 H 0.03554 0.13396 0.61238 0.0
C2811 C 0.97031 0.20547 0.52828 0.0
C2812 C 0.97247 0.17719 0.58644 0.0
H2813 H 0.00449 0.19187 0.63326 0.0
C2814 C 0.97287 0.15333 0.5893 0.0
C2815 C 0.98285 0.19133 0.60325 0.0
C2816 C 0.98118 0.21708 0.60247 0.0
C2817 C 0.98477 0.14322 0.60747 0.0
C2818 C -0.00281 0.15728 0.62278 0.0
C2819 C 0.99539 0.18115 0.6211 0.0
C2820 C 0.01362 0.14717 0.63913 0.0
C2821 C 0.98462 0.11745 0.60964 0.0
C2822 C 0.01003 0.1484 0.66285 0.0
C2823 C 0.02402 0.13588 0.67779 0.0
C2824 C 0.04163 0.12198 0.66906 0.0
C2825 C 0.04605 0.12212 0.64542 0.0
C2826 C 0.03227 0.13473 0.63063 0.0
H2827 H 0.96923 0.10986 0.60139 0.0
H2828 H -5e-05 0.11036 0.60096 0.0
H2829 H 0.98509 0.11208 0.62788 0.0
H2830 H 0.99577 0.15807 0.66968 0.0
H2831 H 0.02021 0.13599 0.69595 0.0
H2832 H 0.82943 0.95442 0.6277 0.0
H2833 H 0.8608 0.9716 0.64966 0.0
H2834 H 0.86574 0.02613 0.60017 0.0
H2835 H 0.83459 0.00915 0.57808 0.0
H2836 H 0.90658 0.00111 0.60754 0.0
H2837 H 0.86785 0.03013 0.68945 0.0
H2838 H 0.86089 0.0014 0.68081 0.0
H2839 H 0.85109 0.0251 0.66389 0.0
C2840 C 0.83685 0.97033 0.62176 0.0
C2841 C 0.82969 0.98025 0.601 0.0
C2842 C 0.8547 0.98018 0.63439 0.0
C2843 C 0.86548 0.00017 0.62655 0.0
C2844 C 0.85759 0.01072 0.60649 0.0
H2845 H 0.99408 0.06784 0.65933 0.0
H2846 H 0.95656 0.05794 0.64358 0.0
C2847 C 0.83981 0.00092 0.59388 0.0
C2848 C 0.88666 0.00858 0.63761 0.0
H2849 H 0.90848 0.03057 0.68724 0.0
C2850 C 0.90699 0.00772 0.6249 0.0
C2851 C 0.88708 0.01696 0.66031 0.0
C2852 C 0.86556 0.01867 0.67443 0.0
C2853 C 0.9279 0.01469 0.6344 0.0
C2854 C 0.92836 0.02325 0.65707 0.0
C2855 C 0.90801 0.02411 0.66982 0.0
C2856 C 0.95001 0.03078 0.66792 0.0
C2857 C 0.94939 0.01215 0.62028 0.0
C2858 C 0.95828 0.01945 0.68741 0.0
C2859 C 0.97962 0.02519 0.6966 0.0
C2860 C 0.99308 0.04234 0.68637 0.0
C2861 C 0.98431 0.05428 0.66737 0.0
C2862 C 0.9629 0.04863 0.65832 0.0
H2863 H 0.94696 -3e-05 0.60585 0.0
H2864 H 0.95407 0.02903 0.61293 0.0
H2865 H 0.96391 0.0061 0.63098 0.0
H2866 H 0.94851 0.00569 0.69512 0.0
H2867 H 0.9858 0.01577 0.71133 0.0
H2868 H 0.64025 0.01944 0.09808 0.0
H2869 H 0.6169 0.00119 0.12726 0.0
H2870 H 0.66941 0.01354 0.17778 0.0
H2871 H 0.69324 0.03209 0.14841 0.0
H2872 H 0.63042 0.96199 0.15801 0.0
H2873 H 0.60727 0.04335 0.20244 0.0
H2874 H 0.61738 0.04377 0.17324 0.0
H2875 H 0.63676 0.03688 0.19603 0.0
C2876 C 0.64695 0.01835 0.11536 0.0
C2877 C 0.66853 0.02744 0.12097 0.0
C2878 C 0.63361 0.00778 0.13199 0.0
C2879 C 0.64144 0.00612 0.1546 0.0
C2880 C 0.6631 0.01479 0.16038 0.0
H2881 H 0.52709 0.96581 0.2446 0.0
H2882 H 0.56756 0.97385 0.23627 0.0
C2883 C 0.67664 0.02534 0.14361 0.0
C2884 C 0.62605 0.99589 0.17181 0.0
H2885 H 0.58327 0.01159 0.20822 0.0
C2886 C 0.62057 0.97262 0.16961 0.0
C2887 C 0.6134 0.0098 0.18702 0.0
C2888 C 0.61885 0.03487 0.18998 0.0
C2889 C 0.60139 0.96337 0.18063 0.0
C2890 C 0.58727 0.9779 0.19382 0.0
C2891 C 0.59411 0.00056 0.19796 0.0
C2892 C 0.56354 0.97132 0.19952 0.0
C2893 C 0.59551 0.93852 0.17682 0.0
C2894 C 0.54799 0.96752 0.1816 0.0
C2895 C 0.52502 0.96326 0.18622 0.0
C2896 C 0.51707 0.9627 0.20891 0.0
C2897 C 0.53273 0.96614 0.22694 0.0
C2898 C 0.55581 0.97068 0.22225 0.0
H2899 H 0.61113 0.92824 0.17335 0.0
H2900 H 0.58651 0.93118 0.19187 0.0
H2901 H 0.58408 0.93702 0.16168 0.0
H2902 H 0.55354 0.96842 0.16392 0.0
H2903 H 0.51345 0.96054 0.17195 0.0
H2904 H 0.48881 0.49774 0.31325 0.0
H2905 H 0.4483 0.50412 0.32056 0.0
H2906 H 0.43076 0.46675 0.25926 0.0
H2907 H 0.4716 0.4604 0.25154 0.0
H2908 H 0.40392 0.5087 0.26803 0.0
H2909 H 0.40769 0.4495 0.34187 0.0
H2910 H 0.42991 0.47071 0.34282 0.0
H2911 H 0.4294 0.45011 0.31989 0.0
C2912 C 0.47642 0.49101 0.30117 0.0
C2913 C 0.48339 0.47835 0.28195 0.0
C2914 C 0.45328 0.49468 0.30539 0.0
C2915 C 0.43665 0.48556 0.29064 0.0
C2916 C 0.44344 0.4738 0.27086 0.0
H2917 H 0.30883 0.48965 0.36434 0.0
H2918 H 0.33488 0.47483 0.33514 0.0
C2919 C 0.46672 0.4702 0.26652 0.0
C2920 C 0.41231 0.48748 0.297 0.0
H2921 H 0.37714 0.47697 0.34207 0.0
C2922 C 0.39775 0.5014 0.28395 0.0
C2923 C 0.40417 0.47735 0.31737 0.0
C2924 C 0.41853 0.46088 0.33117 0.0
C2925 C 0.37574 0.50701 0.29184 0.0
C2926 C 0.36855 0.4989 0.31353 0.0
C2927 C 0.38255 0.48344 0.32553 0.0
C2928 C 0.34825 0.50811 0.32568 0.0
C2929 C 0.36069 0.5219 0.27706 0.0
C2930 C 0.34616 0.53184 0.32924 0.0
C2931 C 0.3308 0.54033 0.34546 0.0
C2932 C 0.31786 0.52516 0.35881 0.0
C2933 C 0.31878 0.50161 0.35424 0.0
C2934 C 0.33363 0.49317 0.33757 0.0
H2935 H 0.36375 0.51838 0.25861 0.0
H2936 H 0.34225 0.51922 0.28079 0.0
H2937 H 0.36501 0.54015 0.28016 0.0
H2938 H 0.35764 0.54373 0.32087 0.0
H2939 H 0.33051 0.55856 0.34891 0.0
H2940 H 0.14783 0.49117 0.89681 0.0
H2941 H 0.12205 0.50486 0.86708 0.0
H2942 H 0.14908 0.4549 0.81992 0.0
H2943 H 0.17477 0.44058 0.84991 0.0
H2944 H 0.12834 0.5222 0.82298 0.0
H2945 H 0.08097 0.43921 0.8224 0.0
H2946 H 0.10177 0.44599 0.84423 0.0
H2947 H 0.11102 0.4384 0.81591 0.0
C2948 C 0.14844 0.4831 0.88011 0.0
C2949 C 0.16307 0.46447 0.87587 0.0
C2950 C 0.13378 0.49107 0.86307 0.0
C2951 C 0.13347 0.48071 0.84141 0.0
C2952 C 0.14882 0.46286 0.83667 0.0
H2953 H 0.02256 0.53795 0.75391 0.0
H2954 H 0.06138 0.5239 0.76221 0.0
C2955 C 0.16347 0.45473 0.85381 0.0
C2956 C 0.11562 0.48764 0.82482 0.0
H2957 H 0.06395 0.47018 0.80385 0.0
C2958 C 0.1145 0.51074 0.81823 0.0
C2959 C 0.09763 0.47257 0.81872 0.0
C2960 C 0.09769 0.44768 0.82572 0.0
C2961 C 0.09503 0.51955 0.80723 0.0
C2962 C 0.07646 0.50478 0.80259 0.0
C2963 C 0.07835 0.48136 0.80747 0.0
C2964 C 0.05354 0.51379 0.79696 0.0
C2965 C 0.09362 0.54486 0.80232 0.0
C2966 C 0.03651 0.51274 0.81378 0.0
C2967 C 0.01454 0.52063 0.80917 0.0
C2968 C 0.00906 0.52971 0.78756 0.0
C2969 C 0.02626 0.53104 0.77073 0.0
C2970 C 0.0484 0.52307 0.77541 0.0
H2971 H 0.10931 0.55416 0.80778 0.0
H2972 H 0.0911 0.54759 0.78368 0.0
H2973 H 0.07866 0.55236 0.81131 0.0
H2974 H 0.04025 0.50574 0.83056 0.0
H2975 H 0.00181 0.51946 0.82259 0.0
H2976 H 0.64452 0.80612 0.96271 0.0
H2977 H 0.67355 0.83188 0.97929 0.0
H2978 H 0.62016 0.87094 0.01197 0.0
H2979 H 0.59129 0.84576 0.99536 0.0
H2980 H 0.67136 0.88251 0.9708 0.0
H2981 H 0.6704 0.85957 0.0628 0.0
H2982 H 0.66231 0.83972 0.04039 0.0
H2983 H 0.64241 0.86109 0.05007 0.0
C2984 C 0.63908 0.82005 0.97369 0.0
C2985 C 0.61569 0.82413 0.97761 0.0
C2986 C 0.65563 0.83465 0.98313 0.0
C2987 C 0.64892 0.85304 0.99704 0.0
C2988 C 0.62564 0.8566 0.00155 0.0
H2989 H 0.66566 0.97881 0.0546 0.0
H2990 H 0.65885 0.93918 0.04358 0.0
C2991 C 0.60918 0.84234 0.99188 0.0
C2992 C 0.66552 0.8703 0.00503 0.0
H2993 H 0.68116 0.89847 0.05371 0.0
C2994 C 0.67425 0.88573 0.98888 0.0
C2995 C 0.66911 0.87428 0.02861 0.0
C2996 C 0.66075 0.85767 0.0465 0.0
C2997 C 0.68448 0.90635 0.9958 0.0
C2998 C 0.68641 0.91121 0.01949 0.0
C2999 C 0.67953 0.89474 0.03557 0.0
C3000 C 0.69202 0.93446 0.0278 0.0
C3001 C 0.69124 0.92356 0.97774 0.0
C3002 C 0.71314 0.94481 0.02298 0.0
C3003 C 0.71701 0.96766 0.02901 0.0
C3004 C 0.69988 0.98039 0.04017 0.0
C3005 C 0.67916 0.96959 0.04587 0.0
C3006 C 0.67527 0.94687 0.03969 0.0
H3007 H 0.68533 0.91847 0.96036 0.0
H3008 H 0.68403 0.94067 0.9818 0.0
H3009 H 0.71016 0.92513 0.97732 0.0
H3010 H 0.72645 0.93536 0.01421 0.0
H3011 H 0.73328 0.97541 0.02468 0.0
H3012 H 0.16638 0.51487 0.94828 0.0
H3013 H 0.15985 0.55439 0.95992 0.0
H3014 H 0.23256 0.56447 0.96813 0.0
H3015 H 0.23931 0.52468 0.95624 0.0
H3016 H 0.20549 0.57457 0.00744 0.0
H3017 H 0.17099 0.61769 0.93058 0.0
H3018 H 0.15826 0.59005 0.93486 0.0
H3019 H 0.18844 0.59217 0.92898 0.0
C3020 C 0.18103 0.52559 0.95217 0.0
C3021 C 0.20333 0.51667 0.95155 0.0
C3022 C 0.17729 0.54824 0.95858 0.0
C3023 C 0.19575 0.5624 0.96456 0.0
C3024 C 0.21814 0.55383 0.96328 0.0
H3025 H 0.14081 0.69107 0.02225 0.0
H3026 H 0.16979 0.66766 0.00264 0.0
C3027 C 0.22195 0.53115 0.95654 0.0
C3028 C 0.19093 0.58487 0.9751 0.0
H3029 H 0.15702 0.63171 0.96742 0.0
C3030 C 0.19557 0.58751 -0.00146 0.0
C3031 C 0.17822 0.60181 0.96342 0.0
C3032 C 0.17389 0.60042 0.938 0.0
C3033 C 0.18569 0.6054 0.01109 0.0
C3034 C 0.17088 0.62085 -0.00015 0.0
C3035 C 0.16824 0.61965 0.97601 0.0
C3036 C 0.15491 0.63535 0.01291 0.0
C3037 C 0.18981 0.60673 0.03656 0.0
C3038 C 0.13704 0.62482 0.02495 0.0
C3039 C 0.12043 0.63799 0.03579 0.0
C3040 C 0.12148 0.662 0.03495 0.0
C3041 C 0.1397 0.67258 0.02329 0.0
C3042 C 0.1562 0.6593 0.0121 0.0
H3043 H 0.20609 0.59819 0.04144 0.0
H3044 H 0.1903 0.62481 0.04244 0.0
H3045 H 0.17561 0.59794 0.04561 0.0
H3046 H 0.13563 0.60632 0.02545 0.0
H3047 H 0.10666 0.62934 0.04469 0.0
H3048 H 0.34711 0.29782 0.51965 0.0
H3049 H 0.3183 0.32088 0.49942 0.0
H3050 H 0.35377 0.38251 0.51946 0.0
H3051 H 0.38233 0.35988 0.53966 0.0
H3052 H 0.30403 0.38347 0.52393 0.0
H3053 H 0.33508 0.35487 0.43826 0.0
H3054 H 0.32721 0.33373 0.45929 0.0
H3055 H 0.35221 0.351 0.46372 0.0
C3056 C 0.34855 0.3163 0.51999 0.0
C3057 C 0.36708 0.32703 0.53114 0.0
C3058 C 0.33216 0.3294 0.50836 0.0
C3059 C 0.33407 0.35333 0.50785 0.0
C3060 C 0.35201 0.36404 0.51969 0.0
H3061 H 0.3245 0.47044 0.43684 0.0
H3062 H 0.32977 0.43174 0.45128 0.0
C3063 C 0.36838 0.35105 0.53116 0.0
C3064 C 0.3185 0.36769 0.49401 0.0
H3065 H 0.31223 0.38776 0.4395 0.0
C3066 C 0.30515 0.38406 0.5054 0.0
C3067 C 0.32016 0.36829 0.46987 0.0
C3068 C 0.33445 0.35113 0.45691 0.0
C3069 C 0.295 0.40225 0.49345 0.0
C3070 C 0.29814 0.40385 0.46948 0.0
C3071 C 0.30983 0.38637 0.45787 0.0
C3072 C 0.29373 0.42555 0.45721 0.0
C3073 C 0.28282 0.4207 0.50682 0.0
C3074 C 0.27159 0.4346 0.45496 0.0
C3075 C 0.2685 0.45691 0.44674 0.0
C3076 C 0.28755 0.47041 0.44075 0.0
C3077 C 0.3095 0.46063 0.4416 0.0
C3078 C 0.31254 0.43844 0.44973 0.0
H3079 H 0.2838 0.41787 0.52562 0.0
H3080 H 0.29032 0.43773 0.5029 0.0
H3081 H 0.26451 0.42109 0.50179 0.0
H3082 H 0.25684 0.42477 0.46039 0.0
H3083 H 0.25135 0.46392 0.44612 0.0
H3084 H 0.8397 0.19191 0.45702 0.0
H3085 H 0.80757 0.17003 0.47321 0.0
H3086 H 0.85537 0.12282 0.50387 0.0
H3087 H 0.88721 0.14431 0.48791 0.0
H3088 H 0.79925 0.12413 0.46242 0.0
H3089 H 0.80975 0.13335 0.55574 0.0
H3090 H 0.82182 0.15356 0.53562 0.0
H3091 H 0.83684 0.12753 0.54259 0.0
C3092 C 0.84328 0.17708 0.46757 0.0
C3093 C 0.86593 0.16966 0.47104 0.0
C3094 C 0.82495 0.16468 0.47682 0.0
C3095 C 0.82912 0.14507 0.49008 0.0
C3096 C 0.85176 0.13821 0.49417 0.0
H3097 H 0.80398 0.01318 0.49883 0.0
H3098 H 0.80764 0.05338 0.48872 0.0
C3099 C 0.86996 0.15035 0.48477 0.0
C3100 C 0.81035 0.12967 0.49723 0.0
H3101 H 0.79606 0.09565 0.54239 0.0
C3102 C 0.79783 0.11843 0.48004 0.0
C3103 C 0.80806 0.12253 0.52024 0.0
C3104 C 0.81967 0.1351 0.53961 0.0
C3105 C 0.78553 0.09839 0.4849 0.0
C3106 C 0.78607 0.08942 0.50738 0.0
C3107 C 0.796 0.10233 0.52506 0.0
C3108 C 0.78112 0.06501 0.51182 0.0
C3109 C 0.77356 0.08604 0.46562 0.0
C3110 C 0.7651 0.0582 0.52837 0.0
C3111 C 0.76292 0.03503 0.53421 0.0
C3112 C 0.77713 0.01853 0.52393 0.0
C3113 C 0.79284 0.02547 0.50713 0.0
C3114 C 0.79478 0.04843 0.50113 0.0
H3115 H 0.76747 0.09831 0.45241 0.0
H3116 H 0.7858 0.07417 0.45726 0.0
H3117 H 0.75877 0.07594 0.47198 0.0
H3118 H 0.75467 0.07083 0.53705 0.0
H3119 H 0.75075 0.03014 0.54731 0.0
loop_
_geom_bond_atom_site_label_1
_geom_bond_atom_site_label_2
_geom_bond_distance
_geom_bond_site_symmetry_2
_ccdc_geom_bond_type
Fe0 O2 1.918 . S
Fe0 O5 1.997 . S
Fe0 O6 2.002 . S
Fe0 O11 1.976 . S
Fe0 O14 1.996 . S
Fe1 O2 1.918 . S
Fe1 O9 1.997 . S
Fe1 O12 1.996 . S
Fe1 O16 1.976 . S
Fe1 O19 2.002 . S
O2 Fe0 1.918 . S
O2 Fe1 1.918 . S
O2 Fe3 1.918 . S
Fe3 O2 1.918 . S
Fe3 O4 2.002 . S
Fe3 O13 1.976 . S
Fe3 O17 1.996 . S
Fe3 O20 1.997 . S
O4 Fe3 2.002 . S
O4 C21 1.295 . S
O5 Fe0 1.997 . S
O5 C21 1.235 . S
O6 Fe0 2.002 . S
O6 C7 1.295 . S
C7 O6 1.295 . S
C7 O9 1.235 . S
C8 O13 1.287 1_655 S
C8 O14 1.255 1_655 S
O9 Fe1 1.997 . S
O9 C7 1.235 . S
C10 O16 1.287 . S
C10 O17 1.255 . S
O11 Fe0 1.976 . S
O11 C18 1.287 . S
O12 Fe1 1.996 . S
O12 C18 1.255 . S
O13 Fe3 1.976 . S
O13 C8 1.287 1_455 S
O14 Fe0 1.996 . S
O14 C8 1.255 1_455 S
C15 O19 1.295 . S
C15 O20 1.235 . S
O16 Fe1 1.976 . S
O16 C10 1.287 . S
O17 Fe3 1.996 . S
O17 C10 1.255 . S
C18 O11 1.287 . S
C18 O12 1.255 . S
O19 Fe1 2.002 . S
O19 C15 1.295 . S
O20 Fe3 1.997 . S
O20 C15 1.235 . S
C21 O4 1.295 . S
C21 O5 1.235 . S
Fe22 O24 1.918 . S
Fe22 O27 1.997 . S
Fe22 O28 2.002 . S
Fe22 O33 1.976 . S
Fe22 O36 1.996 . S
Fe23 O24 1.918 . S
Fe23 O31 1.997 . S
Fe23 O34 1.996 . S
Fe23 O38 1.976 . S
Fe23 O41 2.002 . S
O24 Fe22 1.918 . S
O24 Fe23 1.918 . S
O24 Fe25 1.918 . S
Fe25 O24 1.918 . S
Fe25 O26 2.002 . S
Fe25 O35 1.976 . S
Fe25 O39 1.996 . S
Fe25 O42 1.997 . S
O26 Fe25 2.002 . S
O26 C43 1.295 . S
O27 Fe22 1.997 . S
O27 C43 1.235 . S
O28 Fe22 2.002 . S
O28 C29 1.295 . S
C29 O28 1.295 . S
C29 O31 1.235 . S
C30 O35 1.287 . S
C30 O36 1.255 . S
O31 Fe23 1.997 . S
O31 C29 1.235 . S
C32 O38 1.287 . S
C32 O39 1.255 . S
O33 Fe22 1.976 . S
O33 C40 1.287 . S
O34 Fe23 1.996 . S
O34 C40 1.255 . S
O35 Fe25 1.976 . S
O35 C30 1.287 . S
O36 Fe22 1.996 . S
O36 C30 1.255 . S
C37 O41 1.295 . S
C37 O42 1.235 . S
O38 Fe23 1.976 . S
O38 C32 1.287 . S
O39 Fe25 1.996 . S
O39 C32 1.255 . S
C40 O33 1.287 . S
C40 O34 1.255 . S
O41 Fe23 2.002 . S
O41 C37 1.295 . S
O42 Fe25 1.997 . S
O42 C37 1.235 . S
C43 O26 1.295 . S
C43 O27 1.235 . S
Fe44 O46 1.918 . S
Fe44 O49 1.997 . S
Fe44 O50 2.002 . S
Fe44 O55 1.976 . S
Fe44 O58 1.996 . S
Fe45 O46 1.918 . S
Fe45 O53 1.997 . S
Fe45 O56 1.996 . S
Fe45 O60 1.976 . S
Fe45 O63 2.002 . S
O46 Fe44 1.918 . S
O46 Fe45 1.918 . S
O46 Fe47 1.918 . S
Fe47 O46 1.918 . S
Fe47 O48 2.002 . S
Fe47 O57 1.976 . S
Fe47 O61 1.996 . S
Fe47 O64 1.997 . S
O48 Fe47 2.002 . S
O48 C65 1.295 . S
O49 Fe44 1.997 . S
O49 C65 1.235 . S
O50 Fe44 2.002 . S
O50 C51 1.295 . S
C51 O50 1.295 . S
C51 O53 1.235 . S
C52 O57 1.287 . S
C52 O58 1.255 . S
O53 Fe45 1.997 . S
O53 C51 1.235 . S
C54 O60 1.287 . S
C54 O61 1.255 . S
O55 Fe44 1.976 . S
O55 C62 1.287 . S
O56 Fe45 1.996 . S
O56 C62 1.255 . S
O57 Fe47 1.976 . S
O57 C52 1.287 . S
O58 Fe44 1.996 . S
O58 C52 1.255 . S
C59 O63 1.295 . S
C59 O64 1.235 . S
O60 Fe45 1.976 . S
O60 C54 1.287 . S
O61 Fe47 1.996 . S
O61 C54 1.255 . S
C62 O55 1.287 . S
C62 O56 1.255 . S
O63 Fe45 2.002 . S
O63 C59 1.295 . S
O64 Fe47 1.997 . S
O64 C59 1.235 . S
C65 O48 1.295 . S
C65 O49 1.235 . S
Fe66 O68 1.918 . S
Fe66 O71 1.997 . S
Fe66 O72 2.002 . S
Fe66 O77 1.976 . S
Fe66 O80 1.996 . S
Fe67 O68 1.918 . S
Fe67 O75 1.997 . S
Fe67 O78 1.996 . S
Fe67 O82 1.976 . S
Fe67 O85 2.002 . S
O68 Fe66 1.918 . S
O68 Fe67 1.918 . S
O68 Fe69 1.918 . S
Fe69 O68 1.918 . S
Fe69 O70 2.002 . S
Fe69 O79 1.976 . S
Fe69 O83 1.996 . S
Fe69 O86 1.997 . S
O70 Fe69 2.002 . S
O70 C87 1.295 . S
O71 Fe66 1.997 . S
O71 C87 1.235 . S
O72 Fe66 2.002 . S
O72 C73 1.295 . S
C73 O72 1.295 . S
C73 O75 1.235 . S
C74 O79 1.287 . S
C74 O80 1.255 . S
O75 Fe67 1.997 . S
O75 C73 1.235 . S
C76 O82 1.287 . S
C76 O83 1.255 . S
O77 Fe66 1.976 . S
O77 C84 1.287 1_655 S
O78 Fe67 1.996 . S
O78 C84 1.255 1_655 S
O79 Fe69 1.976 . S
O79 C74 1.287 . S
O80 Fe66 1.996 . S
O80 C74 1.255 . S
C81 O85 1.295 . S
C81 O86 1.235 . S
O82 Fe67 1.976 . S
O82 C76 1.287 . S
O83 Fe69 1.996 . S
O83 C76 1.255 . S
C84 O77 1.287 1_455 S
C84 O78 1.255 1_455 S
O85 Fe67 2.002 . S
O85 C81 1.295 . S
O86 Fe69 1.997 . S
O86 C81 1.235 . S
C87 O70 1.295 . S
C87 O71 1.235 . S
Fe88 O90 1.918 . S
Fe88 O93 1.997 . S
Fe88 O94 2.002 . S
Fe88 O99 1.976 . S
Fe88 O102 1.996 . S
Fe89 O90 1.918 . S
Fe89 O97 1.997 . S
Fe89 O100 1.996 . S
Fe89 O104 1.976 . S
Fe89 O107 2.002 . S
O90 Fe88 1.918 . S
O90 Fe89 1.918 . S
O90 Fe91 1.918 . S
Fe91 O90 1.918 . S
Fe91 O92 2.002 . S
Fe91 O101 1.976 . S
Fe91 O105 1.996 . S
Fe91 O108 1.997 . S
O92 Fe91 2.002 . S
O92 C109 1.295 . S
O93 Fe88 1.997 . S
O93 C109 1.235 . S
O94 Fe88 2.002 . S
O94 C95 1.295 . S
C95 O94 1.295 . S
C95 O97 1.235 . S
C96 O101 1.287 . S
C96 O102 1.255 . S
O97 Fe89 1.997 . S
O97 C95 1.235 . S
C98 O104 1.287 1_565 S
C98 O105 1.255 1_565 S
O99 Fe88 1.976 . S
O99 C106 1.287 . S
O100 Fe89 1.996 . S
O100 C106 1.255 . S
O101 Fe91 1.976 . S
O101 C96 1.287 . S
O102 Fe88 1.996 . S
O102 C96 1.255 . S
C103 O107 1.295 . S
C103 O108 1.235 . S
O104 Fe89 1.976 . S
O104 C98 1.287 1_545 S
O105 Fe91 1.996 . S
O105 C98 1.255 1_545 S
C106 O99 1.287 . S
C106 O100 1.255 . S
O107 Fe89 2.002 . S
O107 C103 1.295 . S
O108 Fe91 1.997 . S
O108 C103 1.235 . S
C109 O92 1.295 . S
C109 O93 1.235 . S
Fe110 O112 1.918 . S
Fe110 O115 1.997 . S
Fe110 O116 2.002 . S
Fe110 O121 1.976 . S
Fe110 O124 1.996 . S
Fe111 O112 1.918 . S
Fe111 O119 1.997 . S
Fe111 O122 1.996 . S
Fe111 O126 1.976 . S
Fe111 O129 2.002 . S
O112 Fe110 1.918 . S
O112 Fe111 1.918 . S
O112 Fe113 1.918 . S
Fe113 O112 1.918 . S
Fe113 O114 2.002 . S
Fe113 O123 1.976 . S
Fe113 O127 1.996 . S
Fe113 O130 1.997 . S
O114 Fe113 2.002 . S
O114 C131 1.295 . S
O115 Fe110 1.997 . S
O115 C131 1.235 . S
O116 Fe110 2.002 . S
O116 C117 1.295 . S
C117 O116 1.295 . S
C117 O119 1.235 . S
C118 O123 1.287 . S
C118 O124 1.255 . S
O119 Fe111 1.997 . S
O119 C117 1.235 . S
C120 O126 1.287 . S
C120 O127 1.255 . S
O121 Fe110 1.976 . S
O121 C128 1.287 1_565 S
O122 Fe111 1.996 . S
O122 C128 1.255 1_565 S
O123 Fe113 1.976 . S
O123 C118 1.287 . S
O124 Fe110 1.996 . S
O124 C118 1.255 . S
C125 O129 1.295 . S
C125 O130 1.235 . S
O126 Fe111 1.976 . S
O126 C120 1.287 . S
O127 Fe113 1.996 . S
O127 C120 1.255 . S
C128 O121 1.287 1_545 S
C128 O122 1.255 1_545 S
O129 Fe111 2.002 . S
O129 C125 1.295 . S
O130 Fe113 1.997 . S
O130 C125 1.235 . S
C131 O114 1.295 . S
C131 O115 1.235 . S
Fe132 O134 1.918 . S
Fe132 O137 1.997 . S
Fe132 O138 2.002 . S
Fe132 O143 1.976 . S
Fe132 O146 1.996 . S
Fe133 O134 1.918 . S
Fe133 O141 1.997 . S
Fe133 O144 1.996 . S
Fe133 O148 1.976 . S
Fe133 O151 2.002 . S
O134 Fe132 1.918 . S
O134 Fe133 1.918 . S
O134 Fe135 1.918 . S
Fe135 O134 1.918 . S
Fe135 O136 2.002 . S
Fe135 O145 1.976 . S
Fe135 O149 1.996 . S
Fe135 O152 1.997 . S
O136 Fe135 2.002 . S
O136 C153 1.295 . S
O137 Fe132 1.997 . S
O137 C153 1.235 . S
O138 Fe132 2.002 . S
O138 C139 1.295 . S
C139 O138 1.295 . S
C139 O141 1.235 . S
C140 O145 1.287 . S
C140 O146 1.255 . S
O141 Fe133 1.997 . S
O141 C139 1.235 . S
C142 O148 1.287 . S
C142 O149 1.255 . S
O143 Fe132 1.976 . S
O143 C150 1.287 . S
O144 Fe133 1.996 . S
O144 C150 1.255 . S
O145 Fe135 1.976 . S
O145 C140 1.287 . S
O146 Fe132 1.996 . S
O146 C140 1.255 . S
C147 O151 1.295 . S
C147 O152 1.235 . S
O148 Fe133 1.976 . S
O148 C142 1.287 . S
O149 Fe135 1.996 . S
O149 C142 1.255 . S
C150 O143 1.287 . S
C150 O144 1.255 . S
O151 Fe133 2.002 . S
O151 C147 1.295 . S
O152 Fe135 1.997 . S
O152 C147 1.235 . S
C153 O136 1.295 . S
C153 O137 1.235 . S
Fe154 O156 1.918 . S
Fe154 O159 1.997 . S
Fe154 O160 2.002 . S
Fe154 O165 1.976 . S
Fe154 O168 1.996 . S
Fe155 O156 1.918 . S
Fe155 O163 1.997 . S
Fe155 O166 1.996 . S
Fe155 O170 1.976 . S
Fe155 O173 2.002 . S
O156 Fe154 1.918 . S
O156 Fe155 1.918 . S
O156 Fe157 1.918 . S
Fe157 O156 1.918 . S
Fe157 O158 2.002 . S
Fe157 O167 1.976 . S
Fe157 O171 1.996 . S
Fe157 O174 1.997 . S
O158 Fe157 2.002 . S
O158 C175 1.295 . S
O159 Fe154 1.997 . S
O159 C175 1.235 . S
O160 Fe154 2.002 . S
O160 C161 1.295 . S
C161 O160 1.295 . S
C161 O163 1.235 . S
C162 O167 1.287 . S
C162 O168 1.255 . S
O163 Fe155 1.997 . S
O163 C161 1.235 . S
C164 O170 1.287 . S
C164 O171 1.255 . S
O165 Fe154 1.976 . S
O165 C172 1.287 . S
O166 Fe155 1.996 . S
O166 C172 1.255 . S
O167 Fe157 1.976 . S
O167 C162 1.287 . S
O168 Fe154 1.996 . S
O168 C162 1.255 . S
C169 O173 1.295 . S
C169 O174 1.235 . S
O170 Fe155 1.976 . S
O170 C164 1.287 . S
O171 Fe157 1.996 . S
O171 C164 1.255 . S
C172 O165 1.287 . S
C172 O166 1.255 . S
O173 Fe155 2.002 . S
O173 C169 1.295 . S
O174 Fe157 1.997 . S
O174 C169 1.235 . S
C175 O158 1.295 . S
C175 O159 1.235 . S
Fe176 O178 1.918 . S
Fe176 O181 1.997 . S
Fe176 O182 2.002 . S
Fe176 O187 1.976 . S
Fe176 O190 1.996 . S
Fe177 O178 1.918 . S
Fe177 O185 1.997 . S
Fe177 O188 1.996 . S
Fe177 O192 1.976 . S
Fe177 O195 2.002 . S
O178 Fe176 1.918 . S
O178 Fe177 1.918 . S
O178 Fe179 1.918 . S
Fe179 O178 1.918 . S
Fe179 O180 2.002 . S
Fe179 O189 1.976 . S
Fe179 O193 1.996 . S
Fe179 O196 1.997 . S
O180 Fe179 2.002 . S
O180 C197 1.295 . S
O181 Fe176 1.997 . S
O181 C197 1.235 . S
O182 Fe176 2.002 . S
O182 C183 1.295 . S
C183 O182 1.295 . S
C183 O185 1.235 . S
C184 O189 1.287 . S
C184 O190 1.255 . S
O185 Fe177 1.997 . S
O185 C183 1.235 . S
C186 O192 1.287 1_556 S
C186 O193 1.255 1_556 S
O187 Fe176 1.976 . S
O187 C194 1.287 . S
O188 Fe177 1.996 . S
O188 C194 1.255 . S
O189 Fe179 1.976 . S
O189 C184 1.287 . S
O190 Fe176 1.996 . S
O190 C184 1.255 . S
C191 O195 1.295 . S
C191 O196 1.235 . S
O192 Fe177 1.976 . S
O192 C186 1.287 1_554 S
O193 Fe179 1.996 . S
O193 C186 1.255 1_554 S
C194 O187 1.287 . S
C194 O188 1.255 . S
O195 Fe177 2.002 . S
O195 C191 1.295 . S
O196 Fe179 1.997 . S
O196 C191 1.235 . S
C197 O180 1.295 . S
C197 O181 1.235 . S
Fe198 O200 1.918 . S
Fe198 O203 1.997 . S
Fe198 O204 2.002 . S
Fe198 O209 1.976 . S
Fe198 O212 1.996 . S
Fe199 O200 1.918 . S
Fe199 O207 1.997 . S
Fe199 O210 1.996 . S
Fe199 O214 1.976 . S
Fe199 O217 2.002 . S
O200 Fe198 1.918 . S
O200 Fe199 1.918 . S
O200 Fe201 1.918 . S
Fe201 O200 1.918 . S
Fe201 O202 2.002 . S
Fe201 O211 1.976 . S
Fe201 O215 1.996 . S
Fe201 O218 1.997 . S
O202 Fe201 2.002 . S
O202 C219 1.295 . S
O203 Fe198 1.997 . S
O203 C219 1.235 . S
O204 Fe198 2.002 . S
O204 C205 1.295 . S
C205 O204 1.295 . S
C205 O207 1.235 . S
C206 O211 1.287 1_554 S
C206 O212 1.255 1_554 S
O207 Fe199 1.997 . S
O207 C205 1.235 . S
C208 O214 1.287 . S
C208 O215 1.255 . S
O209 Fe198 1.976 . S
O209 C216 1.287 . S
O210 Fe199 1.996 . S
O210 C216 1.255 . S
O211 Fe201 1.976 . S
O211 C206 1.287 1_556 S
O212 Fe198 1.996 . S
O212 C206 1.255 1_556 S
C213 O217 1.295 . S
C213 O218 1.235 . S
O214 Fe199 1.976 . S
O214 C208 1.287 . S
O215 Fe201 1.996 . S
O215 C208 1.255 . S
C216 O209 1.287 . S
C216 O210 1.255 . S
O217 Fe199 2.002 . S
O217 C213 1.295 . S
O218 Fe201 1.997 . S
O218 C213 1.235 . S
C219 O202 1.295 . S
C219 O203 1.235 . S
Fe220 O222 1.918 . S
Fe220 O225 1.997 . S
Fe220 O226 2.002 . S
Fe220 O231 1.976 . S
Fe220 O234 1.996 . S
Fe221 O222 1.918 . S
Fe221 O229 1.997 . S
Fe221 O232 1.996 . S
Fe221 O236 1.976 . S
Fe221 O239 2.002 . S
O222 Fe220 1.918 . S
O222 Fe221 1.918 . S
O222 Fe223 1.918 . S
Fe223 O222 1.918 . S
Fe223 O224 2.002 . S
Fe223 O233 1.976 . S
Fe223 O237 1.996 . S
Fe223 O240 1.997 . S
O224 Fe223 2.002 . S
O224 C241 1.295 . S
O225 Fe220 1.997 . S
O225 C241 1.235 . S
O226 Fe220 2.002 . S
O226 C227 1.295 . S
C227 O226 1.295 . S
C227 O229 1.235 . S
C228 O233 1.287 . S
C228 O234 1.255 . S
O229 Fe221 1.997 . S
O229 C227 1.235 . S
C230 O236 1.287 . S
C230 O237 1.255 . S
O231 Fe220 1.976 . S
O231 C238 1.287 . S
O232 Fe221 1.996 . S
O232 C238 1.255 . S
O233 Fe223 1.976 . S
O233 C228 1.287 . S
O234 Fe220 1.996 . S
O234 C228 1.255 . S
C235 O239 1.295 . S
C235 O240 1.235 . S
O236 Fe221 1.976 . S
O236 C230 1.287 . S
O237 Fe223 1.996 . S
O237 C230 1.255 . S
C238 O231 1.287 . S
C238 O232 1.255 . S
O239 Fe221 2.002 . S
O239 C235 1.295 . S
O240 Fe223 1.997 . S
O240 C235 1.235 . S
C241 O224 1.295 . S
C241 O225 1.235 . S
Fe242 O244 1.918 . S
Fe242 O247 1.997 . S
Fe242 O248 2.002 . S
Fe242 O253 1.976 . S
Fe242 O256 1.996 . S
Fe243 O244 1.918 . S
Fe243 O251 1.997 . S
Fe243 O254 1.996 . S
Fe243 O258 1.976 . S
Fe243 O261 2.002 . S
O244 Fe242 1.918 . S
O244 Fe243 1.918 . S
O244 Fe245 1.918 . S
Fe245 O244 1.918 . S
Fe245 O246 2.002 . S
Fe245 O255 1.976 . S
Fe245 O259 1.996 . S
Fe245 O262 1.997 . S
O246 Fe245 2.002 . S
O246 C263 1.295 . S
O247 Fe242 1.997 . S
O247 C263 1.235 . S
O248 Fe242 2.002 . S
O248 C249 1.295 . S
C249 O248 1.295 . S
C249 O251 1.235 . S
C250 O255 1.287 . S
C250 O256 1.255 . S
O251 Fe243 1.997 . S
O251 C249 1.235 . S
C252 O258 1.287 . S
C252 O259 1.255 . S
O253 Fe242 1.976 . S
O253 C260 1.287 . S
O254 Fe243 1.996 . S
O254 C260 1.255 . S
O255 Fe245 1.976 . S
O255 C250 1.287 . S
O256 Fe242 1.996 . S
O256 C250 1.255 . S
C257 O261 1.295 . S
C257 O262 1.235 . S
O258 Fe243 1.976 . S
O258 C252 1.287 . S
O259 Fe245 1.996 . S
O259 C252 1.255 . S
C260 O253 1.287 . S
C260 O254 1.255 . S
O261 Fe243 2.002 . S
O261 C257 1.295 . S
O262 Fe245 1.997 . S
O262 C257 1.235 . S
C263 O246 1.295 . S
C263 O247 1.235 . S
Fe264 O266 1.918 . S
Fe264 O269 1.997 . S
Fe264 O270 2.002 . S
Fe264 O275 1.976 . S
Fe264 O278 1.996 . S
Fe265 O266 1.918 . S
Fe265 O273 1.997 . S
Fe265 O276 1.996 . S
Fe265 O280 1.976 . S
Fe265 O283 2.002 . S
O266 Fe264 1.918 . S
O266 Fe265 1.918 . S
O266 Fe267 1.918 . S
Fe267 O266 1.918 . S
Fe267 O268 2.002 . S
Fe267 O277 1.976 . S
Fe267 O281 1.996 . S
Fe267 O284 1.997 . S
O268 Fe267 2.002 . S
O268 C285 1.295 . S
O269 Fe264 1.997 . S
O269 C285 1.235 . S
O270 Fe264 2.002 . S
O270 C271 1.295 . S
C271 O270 1.295 . S
C271 O273 1.235 . S
C272 O277 1.287 . S
C272 O278 1.255 . S
O273 Fe265 1.997 . S
O273 C271 1.235 . S
C274 O280 1.287 1_455 S
C274 O281 1.255 1_455 S
O275 Fe264 1.976 . S
O275 C282 1.287 . S
O276 Fe265 1.996 . S
O276 C282 1.255 . S
O277 Fe267 1.976 . S
O277 C272 1.287 . S
O278 Fe264 1.996 . S
O278 C272 1.255 . S
C279 O283 1.295 . S
C279 O284 1.235 . S
O280 Fe265 1.976 . S
O280 C274 1.287 1_655 S
O281 Fe267 1.996 . S
O281 C274 1.255 1_655 S
C282 O275 1.287 . S
C282 O276 1.255 . S
O283 Fe265 2.002 . S
O283 C279 1.295 . S
O284 Fe267 1.997 . S
O284 C279 1.235 . S
C285 O268 1.295 . S
C285 O269 1.235 . S
Fe286 O288 1.918 . S
Fe286 O291 1.997 . S
Fe286 O292 2.002 . S
Fe286 O297 1.976 . S
Fe286 O300 1.996 . S
Fe287 O288 1.918 . S
Fe287 O295 1.997 . S
Fe287 O298 1.996 . S
Fe287 O302 1.976 . S
Fe287 O305 2.002 . S
O288 Fe286 1.918 . S
O288 Fe287 1.918 . S
O288 Fe289 1.918 . S
Fe289 O288 1.918 . S
Fe289 O290 2.002 . S
Fe289 O299 1.976 . S
Fe289 O303 1.996 . S
Fe289 O306 1.997 . S
O290 Fe289 2.002 . S
O290 C307 1.295 . S
O291 Fe286 1.997 . S
O291 C307 1.235 . S
O292 Fe286 2.002 . S
O292 C293 1.295 . S
C293 O292 1.295 . S
C293 O295 1.235 . S
C294 O299 1.287 . S
C294 O300 1.255 . S
O295 Fe287 1.997 . S
O295 C293 1.235 . S
C296 O302 1.287 . S
C296 O303 1.255 . S
O297 Fe286 1.976 . S
O297 C304 1.287 . S
O298 Fe287 1.996 . S
O298 C304 1.255 . S
O299 Fe289 1.976 . S
O299 C294 1.287 . S
O300 Fe286 1.996 . S
O300 C294 1.255 . S
C301 O305 1.295 . S
C301 O306 1.235 . S
O302 Fe287 1.976 . S
O302 C296 1.287 . S
O303 Fe289 1.996 . S
O303 C296 1.255 . S
C304 O297 1.287 . S
C304 O298 1.255 . S
O305 Fe287 2.002 . S
O305 C301 1.295 . S
O306 Fe289 1.997 . S
O306 C301 1.235 . S
C307 O290 1.295 . S
C307 O291 1.235 . S
Fe308 O310 1.918 . S
Fe308 O313 1.997 . S
Fe308 O314 2.002 . S
Fe308 O319 1.976 . S
Fe308 O322 1.996 . S
Fe309 O310 1.918 . S
Fe309 O317 1.997 . S
Fe309 O320 1.996 . S
Fe309 O324 1.976 . S
Fe309 O327 2.002 . S
O310 Fe308 1.918 . S
O310 Fe309 1.918 . S
O310 Fe311 1.918 . S
Fe311 O310 1.918 . S
Fe311 O312 2.002 . S
Fe311 O321 1.976 . S
Fe311 O325 1.996 . S
Fe311 O328 1.997 . S
O312 Fe311 2.002 . S
O312 C329 1.295 . S
O313 Fe308 1.997 . S
O313 C329 1.235 . S
O314 Fe308 2.002 . S
O314 C315 1.295 . S
C315 O314 1.295 . S
C315 O317 1.235 . S
C316 O321 1.287 . S
C316 O322 1.255 . S
O317 Fe309 1.997 . S
O317 C315 1.235 . S
C318 O324 1.287 . S
C318 O325 1.255 . S
O319 Fe308 1.976 . S
O319 C326 1.287 . S
O320 Fe309 1.996 . S
O320 C326 1.255 . S
O321 Fe311 1.976 . S
O321 C316 1.287 . S
O322 Fe308 1.996 . S
O322 C316 1.255 . S
C323 O327 1.295 . S
C323 O328 1.235 . S
O324 Fe309 1.976 . S
O324 C318 1.287 . S
O325 Fe311 1.996 . S
O325 C318 1.255 . S
C326 O319 1.287 . S
C326 O320 1.255 . S
O327 Fe309 2.002 . S
O327 C323 1.295 . S
O328 Fe311 1.997 . S
O328 C323 1.235 . S
C329 O312 1.295 . S
C329 O313 1.235 . S
Fe330 O332 1.918 . S
Fe330 O335 1.997 . S
Fe330 O336 2.002 . S
Fe330 O341 1.976 . S
Fe330 O344 1.996 . S
Fe331 O332 1.918 . S
Fe331 O339 1.997 . S
Fe331 O342 1.996 . S
Fe331 O346 1.976 . S
Fe331 O349 2.002 . S
O332 Fe330 1.918 . S
O332 Fe331 1.918 . S
O332 Fe333 1.918 . S
Fe333 O332 1.918 . S
Fe333 O334 2.002 . S
Fe333 O343 1.976 . S
Fe333 O347 1.996 . S
Fe333 O350 1.997 . S
O334 Fe333 2.002 . S
O334 C351 1.295 . S
O335 Fe330 1.997 . S
O335 C351 1.235 . S
O336 Fe330 2.002 . S
O336 C337 1.295 . S
C337 O336 1.295 . S
C337 O339 1.235 . S
C338 O343 1.287 . S
C338 O344 1.255 . S
O339 Fe331 1.997 . S
O339 C337 1.235 . S
C340 O346 1.287 1_655 S
C340 O347 1.255 1_655 S
O341 Fe330 1.976 . S
O341 C348 1.287 . S
O342 Fe331 1.996 . S
O342 C348 1.255 . S
O343 Fe333 1.976 . S
O343 C338 1.287 . S
O344 Fe330 1.996 . S
O344 C338 1.255 . S
C345 O349 1.295 . S
C345 O350 1.235 . S
O346 Fe331 1.976 . S
O346 C340 1.287 1_455 S
O347 Fe333 1.996 . S
O347 C340 1.255 1_455 S
C348 O341 1.287 . S
C348 O342 1.255 . S
O349 Fe331 2.002 . S
O349 C345 1.295 . S
O350 Fe333 1.997 . S
O350 C345 1.235 . S
C351 O334 1.295 . S
C351 O335 1.235 . S
Fe352 O354 1.918 . S
Fe352 O357 1.997 . S
Fe352 O358 2.002 . S
Fe352 O363 1.976 . S
Fe352 O366 1.996 . S
Fe353 O354 1.918 . S
Fe353 O361 1.997 . S
Fe353 O364 1.996 . S
Fe353 O368 1.976 . S
Fe353 O371 2.002 . S
O354 Fe352 1.918 . S
O354 Fe353 1.918 . S
O354 Fe355 1.918 . S
Fe355 O354 1.918 . S
Fe355 O356 2.002 . S
Fe355 O365 1.976 . S
Fe355 O369 1.996 . S
Fe355 O372 1.997 . S
O356 Fe355 2.002 . S
O356 C373 1.295 . S
O357 Fe352 1.997 . S
O357 C373 1.235 . S
O358 Fe352 2.002 . S
O358 C359 1.295 . S
C359 O358 1.295 . S
C359 O361 1.235 . S
C360 O365 1.287 . S
C360 O366 1.255 . S
O361 Fe353 1.997 . S
O361 C359 1.235 . S
C362 O368 1.287 1_545 S
C362 O369 1.255 1_545 S
O363 Fe352 1.976 . S
O363 C370 1.287 . S
O364 Fe353 1.996 . S
O364 C370 1.255 . S
O365 Fe355 1.976 . S
O365 C360 1.287 . S
O366 Fe352 1.996 . S
O366 C360 1.255 . S
C367 O371 1.295 . S
C367 O372 1.235 . S
O368 Fe353 1.976 . S
O368 C362 1.287 1_565 S
O369 Fe355 1.996 . S
O369 C362 1.255 1_565 S
C370 O363 1.287 . S
C370 O364 1.255 . S
O371 Fe353 2.002 . S
O371 C367 1.295 . S
O372 Fe355 1.997 . S
O372 C367 1.235 . S
C373 O356 1.295 . S
C373 O357 1.235 . S
Fe374 O376 1.918 . S
Fe374 O379 1.997 . S
Fe374 O380 2.002 . S
Fe374 O385 1.976 . S
Fe374 O388 1.996 . S
Fe375 O376 1.918 . S
Fe375 O383 1.997 . S
Fe375 O386 1.996 . S
Fe375 O390 1.976 . S
Fe375 O393 2.002 . S
O376 Fe374 1.918 . S
O376 Fe375 1.918 . S
O376 Fe377 1.918 . S
Fe377 O376 1.918 . S
Fe377 O378 2.002 . S
Fe377 O387 1.976 . S
Fe377 O391 1.996 . S
Fe377 O394 1.997 . S
O378 Fe377 2.002 . S
O378 C395 1.295 . S
O379 Fe374 1.997 . S
O379 C395 1.235 . S
O380 Fe374 2.002 . S
O380 C381 1.295 . S
C381 O380 1.295 . S
C381 O383 1.235 . S
C382 O387 1.287 1_565 S
C382 O388 1.255 1_565 S
O383 Fe375 1.997 . S
O383 C381 1.235 . S
C384 O390 1.287 . S
C384 O391 1.255 . S
O385 Fe374 1.976 . S
O385 C392 1.287 . S
O386 Fe375 1.996 . S
O386 C392 1.255 . S
O387 Fe377 1.976 . S
O387 C382 1.287 1_545 S
O388 Fe374 1.996 . S
O388 C382 1.255 1_545 S
C389 O393 1.295 . S
C389 O394 1.235 . S
O390 Fe375 1.976 . S
O390 C384 1.287 . S
O391 Fe377 1.996 . S
O391 C384 1.255 . S
C392 O385 1.287 . S
C392 O386 1.255 . S
O393 Fe375 2.002 . S
O393 C389 1.295 . S
O394 Fe377 1.997 . S
O394 C389 1.235 . S
C395 O378 1.295 . S
C395 O379 1.235 . S
Fe396 O398 1.918 . S
Fe396 O401 1.997 . S
Fe396 O402 2.002 . S
Fe396 O407 1.976 . S
Fe396 O410 1.996 . S
Fe397 O398 1.918 . S
Fe397 O405 1.997 . S
Fe397 O408 1.996 . S
Fe397 O412 1.976 . S
Fe397 O415 2.002 . S
O398 Fe396 1.918 . S
O398 Fe397 1.918 . S
O398 Fe399 1.918 . S
Fe399 O398 1.918 . S
Fe399 O400 2.002 . S
Fe399 O409 1.976 . S
Fe399 O413 1.996 . S
Fe399 O416 1.997 . S
O400 Fe399 2.002 . S
O400 C417 1.295 . S
O401 Fe396 1.997 . S
O401 C417 1.235 . S
O402 Fe396 2.002 . S
O402 C403 1.295 . S
C403 O402 1.295 . S
C403 O405 1.235 . S
C404 O409 1.287 . S
C404 O410 1.255 . S
O405 Fe397 1.997 . S
O405 C403 1.235 . S
C406 O412 1.287 . S
C406 O413 1.255 . S
O407 Fe396 1.976 . S
O407 C414 1.287 . S
O408 Fe397 1.996 . S
O408 C414 1.255 . S
O409 Fe399 1.976 . S
O409 C404 1.287 . S
O410 Fe396 1.996 . S
O410 C404 1.255 . S
C411 O415 1.295 . S
C411 O416 1.235 . S
O412 Fe397 1.976 . S
O412 C406 1.287 . S
O413 Fe399 1.996 . S
O413 C406 1.255 . S
C414 O407 1.287 . S
C414 O408 1.255 . S
O415 Fe397 2.002 . S
O415 C411 1.295 . S
O416 Fe399 1.997 . S
O416 C411 1.235 . S
C417 O400 1.295 . S
C417 O401 1.235 . S
Fe418 O420 1.918 . S
Fe418 O423 1.997 . S
Fe418 O424 2.002 . S
Fe418 O429 1.976 . S
Fe418 O432 1.996 . S
Fe419 O420 1.918 . S
Fe419 O427 1.997 . S
Fe419 O430 1.996 . S
Fe419 O434 1.976 . S
Fe419 O437 2.002 . S
O420 Fe418 1.918 . S
O420 Fe419 1.918 . S
O420 Fe421 1.918 . S
Fe421 O420 1.918 . S
Fe421 O422 2.002 . S
Fe421 O431 1.976 . S
Fe421 O435 1.996 . S
Fe421 O438 1.997 . S
O422 Fe421 2.002 . S
O422 C439 1.295 . S
O423 Fe418 1.997 . S
O423 C439 1.235 . S
O424 Fe418 2.002 . S
O424 C425 1.295 . S
C425 O424 1.295 . S
C425 O427 1.235 . S
C426 O431 1.287 . S
C426 O432 1.255 . S
O427 Fe419 1.997 . S
O427 C425 1.235 . S
C428 O434 1.287 . S
C428 O435 1.255 . S
O429 Fe418 1.976 . S
O429 C436 1.287 . S
O430 Fe419 1.996 . S
O430 C436 1.255 . S
O431 Fe421 1.976 . S
O431 C426 1.287 . S
O432 Fe418 1.996 . S
O432 C426 1.255 . S
C433 O437 1.295 . S
C433 O438 1.235 . S
O434 Fe419 1.976 . S
O434 C428 1.287 . S
O435 Fe421 1.996 . S
O435 C428 1.255 . S
C436 O429 1.287 . S
C436 O430 1.255 . S
O437 Fe419 2.002 . S
O437 C433 1.295 . S
O438 Fe421 1.997 . S
O438 C433 1.235 . S
C439 O422 1.295 . S
C439 O423 1.235 . S
Fe440 O442 1.918 . S
Fe440 O445 1.997 . S
Fe440 O446 2.002 . S
Fe440 O451 1.976 . S
Fe440 O454 1.996 . S
Fe441 O442 1.918 . S
Fe441 O449 1.997 . S
Fe441 O452 1.996 . S
Fe441 O456 1.976 . S
Fe441 O459 2.002 . S
O442 Fe440 1.918 . S
O442 Fe441 1.918 . S
O442 Fe443 1.918 . S
Fe443 O442 1.918 . S
Fe443 O444 2.002 . S
Fe443 O453 1.976 . S
Fe443 O457 1.996 . S
Fe443 O460 1.997 . S
O444 Fe443 2.002 . S
O444 C461 1.295 . S
O445 Fe440 1.997 . S
O445 C461 1.235 . S
O446 Fe440 2.002 . S
O446 C447 1.295 . S
C447 O446 1.295 . S
C447 O449 1.235 . S
C448 O453 1.287 . S
C448 O454 1.255 . S
O449 Fe441 1.997 . S
O449 C447 1.235 . S
C450 O456 1.287 1_554 S
C450 O457 1.255 1_554 S
O451 Fe440 1.976 . S
O451 C458 1.287 . S
O452 Fe441 1.996 . S
O452 C458 1.255 . S
O453 Fe443 1.976 . S
O453 C448 1.287 . S
O454 Fe440 1.996 . S
O454 C448 1.255 . S
C455 O459 1.295 . S
C455 O460 1.235 . S
O456 Fe441 1.976 . S
O456 C450 1.287 1_556 S
O457 Fe443 1.996 . S
O457 C450 1.255 1_556 S
C458 O451 1.287 . S
C458 O452 1.255 . S
O459 Fe441 2.002 . S
O459 C455 1.295 . S
O460 Fe443 1.997 . S
O460 C455 1.235 . S
C461 O444 1.295 . S
C461 O445 1.235 . S
Fe462 O464 1.918 . S
Fe462 O467 1.997 . S
Fe462 O468 2.002 . S
Fe462 O473 1.976 . S
Fe462 O476 1.996 . S
Fe463 O464 1.918 . S
Fe463 O471 1.997 . S
Fe463 O474 1.996 . S
Fe463 O478 1.976 . S
Fe463 O481 2.002 . S
O464 Fe462 1.918 . S
O464 Fe463 1.918 . S
O464 Fe465 1.918 . S
Fe465 O464 1.918 . S
Fe465 O466 2.002 . S
Fe465 O475 1.976 . S
Fe465 O479 1.996 . S
Fe465 O482 1.997 . S
O466 Fe465 2.002 . S
O466 C483 1.295 . S
O467 Fe462 1.997 . S
O467 C483 1.235 . S
O468 Fe462 2.002 . S
O468 C469 1.295 . S
C469 O468 1.295 . S
C469 O471 1.235 . S
C470 O475 1.287 1_556 S
C470 O476 1.255 1_556 S
O471 Fe463 1.997 . S
O471 C469 1.235 . S
C472 O478 1.287 . S
C472 O479 1.255 . S
O473 Fe462 1.976 . S
O473 C480 1.287 . S
O474 Fe463 1.996 . S
O474 C480 1.255 . S
O475 Fe465 1.976 . S
O475 C470 1.287 1_554 S
O476 Fe462 1.996 . S
O476 C470 1.255 1_554 S
C477 O481 1.295 . S
C477 O482 1.235 . S
O478 Fe463 1.976 . S
O478 C472 1.287 . S
O479 Fe465 1.996 . S
O479 C472 1.255 . S
C480 O473 1.287 . S
C480 O474 1.255 . S
O481 Fe463 2.002 . S
O481 C477 1.295 . S
O482 Fe465 1.997 . S
O482 C477 1.235 . S
C483 O466 1.295 . S
C483 O467 1.235 . S
Fe484 O486 1.918 . S
Fe484 O489 1.997 . S
Fe484 O490 2.002 . S
Fe484 O495 1.976 . S
Fe484 O498 1.996 . S
Fe485 O486 1.918 . S
Fe485 O493 1.997 . S
Fe485 O496 1.996 . S
Fe485 O500 1.976 . S
Fe485 O503 2.002 . S
O486 Fe484 1.918 . S
O486 Fe485 1.918 . S
O486 Fe487 1.918 . S
Fe487 O486 1.918 . S
Fe487 O488 2.002 . S
Fe487 O497 1.976 . S
Fe487 O501 1.996 . S
Fe487 O504 1.997 . S
O488 Fe487 2.002 . S
O488 C505 1.295 . S
O489 Fe484 1.997 . S
O489 C505 1.235 . S
O490 Fe484 2.002 . S
O490 C491 1.295 . S
C491 O490 1.295 . S
C491 O493 1.235 . S
C492 O497 1.287 . S
C492 O498 1.255 . S
O493 Fe485 1.997 . S
O493 C491 1.235 . S
C494 O500 1.287 . S
C494 O501 1.255 . S
O495 Fe484 1.976 . S
O495 C502 1.287 . S
O496 Fe485 1.996 . S
O496 C502 1.255 . S
O497 Fe487 1.976 . S
O497 C492 1.287 . S
O498 Fe484 1.996 . S
O498 C492 1.255 . S
C499 O503 1.295 . S
C499 O504 1.235 . S
O500 Fe485 1.976 . S
O500 C494 1.287 . S
O501 Fe487 1.996 . S
O501 C494 1.255 . S
C502 O495 1.287 . S
C502 O496 1.255 . S
O503 Fe485 2.002 . S
O503 C499 1.295 . S
O504 Fe487 1.997 . S
O504 C499 1.235 . S
C505 O488 1.295 . S
C505 O489 1.235 . S
Fe506 O508 1.918 . S
Fe506 O511 1.997 . S
Fe506 O512 2.002 . S
Fe506 O517 1.976 . S
Fe506 O520 1.996 . S
Fe507 O508 1.918 . S
Fe507 O515 1.997 . S
Fe507 O518 1.996 . S
Fe507 O522 1.976 . S
Fe507 O525 2.002 . S
O508 Fe506 1.918 . S
O508 Fe507 1.918 . S
O508 Fe509 1.918 . S
Fe509 O508 1.918 . S
Fe509 O510 2.002 . S
Fe509 O519 1.976 . S
Fe509 O523 1.996 . S
Fe509 O526 1.997 . S
O510 Fe509 2.002 . S
O510 C527 1.295 . S
O511 Fe506 1.997 . S
O511 C527 1.235 . S
O512 Fe506 2.002 . S
O512 C513 1.295 . S
C513 O512 1.295 . S
C513 O515 1.235 . S
C514 O519 1.287 . S
C514 O520 1.255 . S
O515 Fe507 1.997 . S
O515 C513 1.235 . S
C516 O522 1.287 . S
C516 O523 1.255 . S
O517 Fe506 1.976 . S
O517 C524 1.287 . S
O518 Fe507 1.996 . S
O518 C524 1.255 . S
O519 Fe509 1.976 . S
O519 C514 1.287 . S
O520 Fe506 1.996 . S
O520 C514 1.255 . S
C521 O525 1.295 . S
C521 O526 1.235 . S
O522 Fe507 1.976 . S
O522 C516 1.287 . S
O523 Fe509 1.996 . S
O523 C516 1.255 . S
C524 O517 1.287 . S
C524 O518 1.255 . S
O525 Fe507 2.002 . S
O525 C521 1.295 . S
O526 Fe509 1.997 . S
O526 C521 1.235 . S
C527 O510 1.295 . S
C527 O511 1.235 . S
H528 C536 0.929 . S
H529 C538 0.930 . S
H530 C540 0.930 . S
H531 C543 0.929 . S
H532 C546 0.930 . S
H533 C548 0.960 . S
H534 C548 0.960 . S
H535 C548 0.960 . S
C536 H528 0.929 . S
C536 C537 1.377 . S
C536 C538 1.384 . S
C537 C536 1.377 . S
C537 C543 1.390 . S
C538 H529 0.930 . S
C538 C536 1.384 . S
C538 C539 1.372 . S
C539 C538 1.372 . S
C539 C540 1.400 . S
C539 C544 1.490 . S
C540 H530 0.930 . S
C540 C539 1.400 . S
C540 C543 1.386 . S
H541 C557 0.930 . S
H542 C558 0.931 . S
C543 H531 0.929 . S
C543 C537 1.390 . S
C543 C540 1.386 . S
C544 C539 1.490 . S
C544 C546 1.395 . S
C544 C547 1.403 . S
H545 C551 0.930 . S
C546 H532 0.930 . S
C546 C544 1.395 . S
C546 C549 1.403 . S
C547 C544 1.403 . S
C547 C548 1.524 . S
C547 C551 1.400 . S
C548 H533 0.960 . S
C548 H534 0.960 . S
C548 H535 0.960 . S
C548 C547 1.524 . S
C549 C546 1.403 . S
C549 C550 1.392 . S
C549 C553 1.495 . S
C550 C549 1.392 . S
C550 C551 1.385 . S
C550 C552 1.478 . S
C551 H545 0.930 . S
C551 C547 1.400 . S
C551 C550 1.385 . S
C552 C550 1.478 . S
C552 C554 1.381 . S
C552 C558 1.383 . S
C553 C549 1.495 . S
C553 H559 0.959 . S
C553 H560 0.961 . S
C553 H561 0.960 . S
C554 C552 1.381 . S
C554 C555 1.394 . S
C554 H562 0.930 . S
C555 C554 1.394 . S
C555 C556 1.383 . S
C555 H563 0.929 . S
C556 C555 1.383 . S
C556 C557 1.377 . S
C557 H541 0.930 . S
C557 C556 1.377 . S
C557 C558 1.379 . S
C558 H542 0.931 . S
C558 C552 1.383 . S
C558 C557 1.379 . S
H559 C553 0.959 . S
H560 C553 0.961 . S
H561 C553 0.960 . S
H562 C554 0.930 . S
H563 C555 0.929 . S
H564 C572 0.929 . S
H565 C574 0.930 . S
H566 C576 0.930 . S
H567 C579 0.929 . S
H568 C582 0.930 . S
H569 C584 0.960 . S
H570 C584 0.960 . S
H571 C584 0.960 . S
C572 H564 0.929 . S
C572 C573 1.377 . S
C572 C574 1.384 . S
C573 C572 1.377 . S
C573 C579 1.390 . S
C574 H565 0.930 . S
C574 C572 1.384 . S
C574 C575 1.372 . S
C575 C574 1.372 . S
C575 C576 1.400 . S
C575 C580 1.490 . S
C576 H566 0.930 . S
C576 C575 1.400 . S
C576 C579 1.386 . S
H577 C593 0.930 . S
H578 C594 0.931 . S
C579 H567 0.929 . S
C579 C573 1.390 . S
C579 C576 1.386 . S
C580 C575 1.490 . S
C580 C582 1.395 . S
C580 C583 1.403 . S
H581 C587 0.930 . S
C582 H568 0.930 . S
C582 C580 1.395 . S
C582 C585 1.403 . S
C583 C580 1.403 . S
C583 C584 1.524 . S
C583 C587 1.400 . S
C584 H569 0.960 . S
C584 H570 0.960 . S
C584 H571 0.960 . S
C584 C583 1.524 . S
C585 C582 1.403 . S
C585 C586 1.392 . S
C585 C589 1.495 . S
C586 C585 1.392 . S
C586 C587 1.385 . S
C586 C588 1.478 . S
C587 H581 0.930 . S
C587 C583 1.400 . S
C587 C586 1.385 . S
C588 C586 1.478 . S
C588 C590 1.381 . S
C588 C594 1.383 . S
C589 C585 1.495 . S
C589 H595 0.959 . S
C589 H596 0.961 . S
C589 H597 0.960 . S
C590 C588 1.381 . S
C590 C591 1.394 . S
C590 H598 0.930 . S
C591 C590 1.394 . S
C591 C592 1.383 . S
C591 H599 0.929 . S
C592 C591 1.383 . S
C592 C593 1.377 . S
C593 H577 0.930 . S
C593 C592 1.377 . S
C593 C594 1.379 . S
C594 H578 0.931 . S
C594 C588 1.383 . S
C594 C593 1.379 . S
H595 C589 0.959 . S
H596 C589 0.961 . S
H597 C589 0.960 . S
H598 C590 0.930 . S
H599 C591 0.929 . S
H600 C608 0.929 . S
H601 C610 0.930 . S
H602 C612 0.930 . S
H603 C615 0.929 . S
H604 C618 0.930 . S
H605 C620 0.960 . S
H606 C620 0.960 . S
H607 C620 0.960 . S
C608 H600 0.929 . S
C608 C609 1.377 . S
C608 C610 1.384 . S
C609 C608 1.377 . S
C609 C615 1.390 . S
C610 H601 0.930 . S
C610 C608 1.384 . S
C610 C611 1.372 . S
C611 C610 1.372 . S
C611 C612 1.400 . S
C611 C616 1.490 . S
C612 H602 0.930 . S
C612 C611 1.400 . S
C612 C615 1.386 . S
H613 C629 0.930 . S
H614 C630 0.931 . S
C615 H603 0.929 . S
C615 C609 1.390 . S
C615 C612 1.386 . S
C616 C611 1.490 . S
C616 C618 1.395 . S
C616 C619 1.403 . S
H617 C623 0.930 . S
C618 H604 0.930 . S
C618 C616 1.395 . S
C618 C621 1.403 . S
C619 C616 1.403 . S
C619 C620 1.524 . S
C619 C623 1.400 . S
C620 H605 0.960 . S
C620 H606 0.960 . S
C620 H607 0.960 . S
C620 C619 1.524 . S
C621 C618 1.403 . S
C621 C622 1.392 . S
C621 C625 1.495 1_545 S
C622 C621 1.392 . S
C622 C623 1.385 . S
C622 C624 1.478 1_545 S
C623 H617 0.930 . S
C623 C619 1.400 . S
C623 C622 1.385 . S
C624 C622 1.478 1_565 S
C624 C626 1.381 1_565 S
C624 C630 1.383 . S
C625 C621 1.495 1_565 S
C625 H631 0.959 . S
C625 H632 0.961 . S
C625 H633 0.960 1_565 S
C626 C624 1.381 1_545 S
C626 C627 1.394 1_545 S
C626 H634 0.930 . S
C627 C626 1.394 1_565 S
C627 C628 1.383 . S
C627 H635 0.929 1_565 S
C628 C627 1.383 . S
C628 C629 1.377 . S
C629 H613 0.930 . S
C629 C628 1.377 . S
C629 C630 1.379 . S
C630 H614 0.931 . S
C630 C624 1.383 . S
C630 C629 1.379 . S
H631 C625 0.959 . S
H632 C625 0.961 . S
H633 C625 0.960 1_545 S
H634 C626 0.930 . S
H635 C627 0.929 1_545 S
H636 C644 0.929 . S
H637 C646 0.930 . S
H638 C648 0.930 . S
H639 C651 0.929 . S
H640 C654 0.930 . S
H641 C656 0.960 . S
H642 C656 0.960 . S
H643 C656 0.960 . S
C644 H636 0.929 . S
C644 C645 1.377 . S
C644 C646 1.384 . S
C645 C644 1.377 . S
C645 C651 1.390 . S
C646 H637 0.930 . S
C646 C644 1.384 . S
C646 C647 1.372 . S
C647 C646 1.372 . S
C647 C648 1.400 . S
C647 C652 1.490 . S
C648 H638 0.930 . S
C648 C647 1.400 . S
C648 C651 1.386 . S
H649 C665 0.930 . S
H650 C666 0.931 1_565 S
C651 H639 0.929 . S
C651 C645 1.390 . S
C651 C648 1.386 . S
C652 C647 1.490 . S
C652 C654 1.395 1_565 S
C652 C655 1.403 . S
H653 C659 0.930 . S
C654 H640 0.930 . S
C654 C652 1.395 1_545 S
C654 C657 1.403 . S
C655 C652 1.403 . S
C655 C656 1.524 . S
C655 C659 1.400 . S
C656 H641 0.960 . S
C656 H642 0.960 . S
C656 H643 0.960 . S
C656 C655 1.524 . S
C657 C654 1.403 . S
C657 C658 1.392 . S
C657 C661 1.495 . S
C658 C657 1.392 . S
C658 C659 1.385 1_545 S
C658 C660 1.478 . S
C659 H653 0.930 . S
C659 C655 1.400 . S
C659 C658 1.385 1_565 S
C660 C658 1.478 . S
C660 C662 1.381 . S
C660 C666 1.383 . S
C661 C657 1.495 . S
C661 H667 0.959 . S
C661 H668 0.961 . S
C661 H669 0.960 . S
C662 C660 1.381 . S
C662 C663 1.394 . S
C662 H670 0.930 . S
C663 C662 1.394 . S
C663 C664 1.383 . S
C663 H671 0.929 . S
C664 C663 1.383 . S
C664 C665 1.377 . S
C665 H649 0.930 . S
C665 C664 1.377 . S
C665 C666 1.379 . S
C666 H650 0.931 1_545 S
C666 C660 1.383 . S
C666 C665 1.379 . S
H667 C661 0.959 . S
H668 C661 0.961 . S
H669 C661 0.960 . S
H670 C662 0.930 . S
H671 C663 0.929 . S
H672 C680 0.929 . S
H673 C682 0.930 . S
H674 C684 0.930 . S
H675 C687 0.929 . S
H676 C690 0.930 . S
H677 C692 0.960 . S
H678 C692 0.960 . S
H679 C692 0.960 . S
C680 H672 0.929 . S
C680 C681 1.377 . S
C680 C682 1.384 . S
C681 C680 1.377 . S
C681 C687 1.390 . S
C682 H673 0.930 . S
C682 C680 1.384 . S
C682 C683 1.372 . S
C683 C682 1.372 . S
C683 C684 1.400 . S
C683 C688 1.490 . S
C684 H674 0.930 . S
C684 C683 1.400 . S
C684 C687 1.386 . S
H685 C701 0.930 . S
H686 C702 0.931 . S
C687 H675 0.929 . S
C687 C681 1.390 . S
C687 C684 1.386 . S
C688 C683 1.490 . S
C688 C690 1.395 . S
C688 C691 1.403 . S
H689 C695 0.930 . S
C690 H676 0.930 . S
C690 C688 1.395 . S
C690 C693 1.403 . S
C691 C688 1.403 . S
C691 C692 1.524 . S
C691 C695 1.400 . S
C692 H677 0.960 . S
C692 H678 0.960 . S
C692 H679 0.960 . S
C692 C691 1.524 . S
C693 C690 1.403 . S
C693 C694 1.392 . S
C693 C697 1.495 . S
C694 C693 1.392 . S
C694 C695 1.385 . S
C694 C696 1.478 . S
C695 H689 0.930 . S
C695 C691 1.400 . S
C695 C694 1.385 . S
C696 C694 1.478 . S
C696 C698 1.381 . S
C696 C702 1.383 . S
C697 C693 1.495 . S
C697 H703 0.959 . S
C697 H704 0.961 . S
C697 H705 0.960 . S
C698 C696 1.381 . S
C698 C699 1.394 . S
C698 H706 0.930 . S
C699 C698 1.394 . S
C699 C700 1.383 . S
C699 H707 0.929 . S
C700 C699 1.383 . S
C700 C701 1.377 . S
C701 H685 0.930 . S
C701 C700 1.377 . S
C701 C702 1.379 . S
C702 H686 0.931 . S
C702 C696 1.383 . S
C702 C701 1.379 . S
H703 C697 0.959 . S
H704 C697 0.961 . S
H705 C697 0.960 . S
H706 C698 0.930 . S
H707 C699 0.929 . S
H708 C716 0.929 . S
H709 C718 0.930 . S
H710 C720 0.930 . S
H711 C723 0.929 . S
H712 C726 0.930 . S
H713 C728 0.960 . S
H714 C728 0.960 . S
H715 C728 0.960 . S
C716 H708 0.929 . S
C716 C717 1.377 . S
C716 C718 1.384 . S
C717 C716 1.377 . S
C717 C723 1.390 . S
C718 H709 0.930 . S
C718 C716 1.384 . S
C718 C719 1.372 . S
C719 C718 1.372 . S
C719 C720 1.400 . S
C719 C724 1.490 . S
C720 H710 0.930 . S
C720 C719 1.400 . S
C720 C723 1.386 . S
H721 C737 0.930 . S
H722 C738 0.931 1_556 S
C723 H711 0.929 . S
C723 C717 1.390 . S
C723 C720 1.386 . S
C724 C719 1.490 . S
C724 C726 1.395 . S
C724 C727 1.403 . S
H725 C731 0.930 . S
C726 H712 0.930 . S
C726 C724 1.395 . S
C726 C729 1.403 . S
C727 C724 1.403 . S
C727 C728 1.524 1_556 S
C727 C731 1.400 1_556 S
C728 H713 0.960 . S
C728 H714 0.960 . S
C728 H715 0.960 . S
C728 C727 1.524 1_554 S
C729 C726 1.403 . S
C729 C730 1.392 . S
C729 C733 1.495 . S
C730 C729 1.392 . S
C730 C731 1.385 1_556 S
C730 C732 1.478 1_556 S
C731 H725 0.930 . S
C731 C727 1.400 1_554 S
C731 C730 1.385 1_554 S
C732 C730 1.478 1_554 S
C732 C734 1.381 . S
C732 C738 1.383 . S
C733 C729 1.495 . S
C733 H739 0.959 . S
C733 H740 0.961 . S
C733 H741 0.960 . S
C734 C732 1.381 . S
C734 C735 1.394 . S
C734 H742 0.930 . S
C735 C734 1.394 . S
C735 C736 1.383 . S
C735 H743 0.929 . S
C736 C735 1.383 . S
C736 C737 1.377 . S
C737 H721 0.930 . S
C737 C736 1.377 . S
C737 C738 1.379 . S
C738 H722 0.931 1_554 S
C738 C732 1.383 . S
C738 C737 1.379 . S
H739 C733 0.959 . S
H740 C733 0.961 . S
H741 C733 0.960 . S
H742 C734 0.930 . S
H743 C735 0.929 . S
H744 C752 0.929 . S
H745 C754 0.930 . S
H746 C756 0.930 . S
H747 C759 0.929 . S
H748 C762 0.930 . S
H749 C764 0.960 . S
H750 C764 0.960 . S
H751 C764 0.960 . S
C752 H744 0.929 . S
C752 C753 1.377 . S
C752 C754 1.384 . S
C753 C752 1.377 . S
C753 C759 1.390 . S
C754 H745 0.930 . S
C754 C752 1.384 . S
C754 C755 1.372 . S
C755 C754 1.372 . S
C755 C756 1.400 . S
C755 C760 1.490 . S
C756 H746 0.930 . S
C756 C755 1.400 . S
C756 C759 1.386 . S
H757 C773 0.930 . S
H758 C774 0.931 . S
C759 H747 0.929 . S
C759 C753 1.390 . S
C759 C756 1.386 . S
C760 C755 1.490 . S
C760 C762 1.395 . S
C760 C763 1.403 . S
H761 C767 0.930 . S
C762 H748 0.930 . S
C762 C760 1.395 . S
C762 C765 1.403 . S
C763 C760 1.403 . S
C763 C764 1.524 . S
C763 C767 1.400 . S
C764 H749 0.960 . S
C764 H750 0.960 . S
C764 H751 0.960 . S
C764 C763 1.524 . S
C765 C762 1.403 . S
C765 C766 1.392 . S
C765 C769 1.495 . S
C766 C765 1.392 . S
C766 C767 1.385 . S
C766 C768 1.478 . S
C767 H761 0.930 . S
C767 C763 1.400 . S
C767 C766 1.385 . S
C768 C766 1.478 . S
C768 C770 1.381 . S
C768 C774 1.383 . S
C769 C765 1.495 . S
C769 H775 0.959 . S
C769 H776 0.961 . S
C769 H777 0.960 . S
C770 C768 1.381 . S
C770 C771 1.394 . S
C770 H778 0.930 . S
C771 C770 1.394 . S
C771 C772 1.383 . S
C771 H779 0.929 . S
C772 C771 1.383 . S
C772 C773 1.377 . S
C773 H757 0.930 . S
C773 C772 1.377 . S
C773 C774 1.379 . S
C774 H758 0.931 . S
C774 C768 1.383 . S
C774 C773 1.379 . S
H775 C769 0.959 . S
H776 C769 0.961 . S
H777 C769 0.960 . S
H778 C770 0.930 . S
H779 C771 0.929 . S
H780 C788 0.929 . S
H781 C790 0.930 . S
H782 C792 0.930 . S
H783 C795 0.929 . S
H784 C798 0.930 . S
H785 C800 0.960 . S
H786 C800 0.960 . S
H787 C800 0.960 . S
C788 H780 0.929 . S
C788 C789 1.377 . S
C788 C790 1.384 . S
C789 C788 1.377 . S
C789 C795 1.390 . S
C790 H781 0.930 . S
C790 C788 1.384 . S
C790 C791 1.372 . S
C791 C790 1.372 . S
C791 C792 1.400 . S
C791 C796 1.490 . S
C792 H782 0.930 . S
C792 C791 1.400 . S
C792 C795 1.386 . S
H793 C809 0.930 . S
H794 C810 0.931 . S
C795 H783 0.929 . S
C795 C789 1.390 . S
C795 C792 1.386 . S
C796 C791 1.490 . S
C796 C798 1.395 . S
C796 C799 1.403 . S
H797 C803 0.930 . S
C798 H784 0.930 . S
C798 C796 1.395 . S
C798 C801 1.396 1_554 S
C799 C796 1.403 . S
C799 C800 1.524 . S
C799 C803 1.400 . S
C800 H785 0.960 . S
C800 H786 0.960 . S
C800 H787 0.960 . S
C800 C799 1.524 . S
C801 C798 1.396 1_556 S
C801 C802 1.391 1_556 S
C801 C805 1.505 . S
C802 C801 1.391 1_554 S
C802 C803 1.385 . S
C802 C804 1.478 1_554 S
C803 H797 0.930 . S
C803 C799 1.400 . S
C803 C802 1.385 . S
C804 C802 1.478 1_556 S
C804 C806 1.371 1_556 S
C804 C810 1.383 . S
C805 C801 1.505 . S
C805 H811 0.959 . S
C805 H812 0.961 . S
C805 H813 0.960 . S
C806 C804 1.371 1_554 S
C806 C807 1.385 1_554 S
C806 H814 0.950 . S
C807 C806 1.385 1_556 S
C807 C808 1.383 . S
C807 H815 0.929 . S
C808 C807 1.383 . S
C808 C809 1.377 . S
C809 H793 0.930 . S
C809 C808 1.377 . S
C809 C810 1.379 . S
C810 H794 0.931 . S
C810 C804 1.383 . S
C810 C809 1.379 . S
H811 C805 0.959 . S
H812 C805 0.961 . S
H813 C805 0.960 . S
H814 C806 0.950 . S
H815 C807 0.929 . S
H816 C824 0.929 . S
H817 C826 0.930 . S
H818 C828 0.930 . S
H819 C831 0.929 . S
H820 C834 0.930 . S
H821 C836 0.960 . S
H822 C836 0.960 . S
H823 C836 0.960 . S
C824 H816 0.929 . S
C824 C825 1.377 . S
C824 C826 1.384 . S
C825 C824 1.377 . S
C825 C831 1.390 . S
C826 H817 0.930 . S
C826 C824 1.384 . S
C826 C827 1.372 . S
C827 C826 1.372 . S
C827 C828 1.400 . S
C827 C832 1.490 . S
C828 H818 0.930 . S
C828 C827 1.400 . S
C828 C831 1.386 . S
H829 C845 0.930 . S
H830 C846 0.931 . S
C831 H819 0.929 . S
C831 C825 1.390 . S
C831 C828 1.386 . S
C832 C827 1.490 . S
C832 C834 1.395 . S
C832 C835 1.403 . S
H833 C839 0.930 . S
C834 H820 0.930 . S
C834 C832 1.395 . S
C834 C837 1.403 . S
C835 C832 1.403 . S
C835 C836 1.524 . S
C835 C839 1.400 . S
C836 H821 0.960 . S
C836 H822 0.960 . S
C836 H823 0.960 . S
C836 C835 1.524 . S
C837 C834 1.403 . S
C837 C838 1.392 . S
C837 C841 1.495 . S
C838 C837 1.392 . S
C838 C839 1.385 . S
C838 C840 1.478 . S
C839 H833 0.930 . S
C839 C835 1.400 . S
C839 C838 1.385 . S
C840 C838 1.478 . S
C840 C842 1.381 . S
C840 C846 1.383 . S
C841 C837 1.495 . S
C841 H847 0.959 . S
C841 H848 0.961 . S
C841 H849 0.960 . S
C842 C840 1.381 . S
C842 C843 1.394 . S
C842 H850 0.930 . S
C843 C842 1.394 . S
C843 C844 1.383 . S
C843 H851 0.929 . S
C844 C843 1.383 . S
C844 C845 1.377 . S
C845 H829 0.930 . S
C845 C844 1.377 . S
C845 C846 1.379 . S
C846 H830 0.931 . S
C846 C840 1.383 . S
C846 C845 1.379 . S
H847 C841 0.959 . S
H848 C841 0.961 . S
H849 C841 0.960 . S
H850 C842 0.930 . S
H851 C843 0.929 . S
H852 C860 0.929 . S
H853 C862 0.930 1_455 S
H854 C864 0.930 . S
H855 C867 0.929 . S
H856 C870 0.930 1_455 S
H857 C872 0.960 . S
H858 C872 0.960 . S
H859 C872 0.960 . S
C860 H852 0.929 . S
C860 C861 1.377 . S
C860 C862 1.384 . S
C861 C860 1.377 . S
C861 C867 1.390 . S
C862 H853 0.930 1_655 S
C862 C860 1.384 . S
C862 C863 1.372 . S
C863 C862 1.372 . S
C863 C864 1.400 . S
C863 C868 1.490 . S
C864 H854 0.930 . S
C864 C863 1.400 . S
C864 C867 1.386 . S
H865 C881 0.930 1_655 S
H866 C882 0.931 . S
C867 H855 0.929 . S
C867 C861 1.390 . S
C867 C864 1.386 . S
C868 C863 1.490 . S
C868 C870 1.395 . S
C868 C871 1.403 . S
H869 C875 0.930 . S
C870 H856 0.930 1_655 S
C870 C868 1.395 . S
C870 C873 1.403 1_655 S
C871 C868 1.403 . S
C871 C872 1.524 . S
C871 C875 1.400 . S
C872 H857 0.960 . S
C872 H858 0.960 . S
C872 H859 0.960 . S
C872 C871 1.524 . S
C873 C870 1.403 1_455 S
C873 C874 1.396 . S
C873 C877 1.495 . S
C874 C873 1.396 . S
C874 C875 1.376 1_455 S
C874 C876 1.483 . S
C875 H869 0.930 . S
C875 C871 1.400 . S
C875 C874 1.376 1_655 S
C876 C874 1.483 . S
C876 C878 1.381 . S
C876 C882 1.383 1_455 S
C877 C873 1.495 . S
C877 H883 0.959 . S
C877 H884 0.961 . S
C877 H885 0.960 . S
C878 C876 1.381 . S
C878 C879 1.394 . S
C878 H886 0.930 . S
C879 C878 1.394 . S
C879 C880 1.383 . S
C879 H887 0.929 . S
C880 C879 1.383 . S
C880 C881 1.377 . S
C881 H865 0.930 1_455 S
C881 C880 1.377 . S
C881 C882 1.379 1_455 S
C882 H866 0.931 . S
C882 C876 1.383 1_655 S
C882 C881 1.379 1_655 S
H883 C877 0.959 . S
H884 C877 0.961 . S
H885 C877 0.960 . S
H886 C878 0.930 . S
H887 C879 0.929 . S
H888 C896 0.929 . S
H889 C898 0.930 . S
H890 C900 0.930 . S
H891 C903 0.929 . S
H892 C906 0.930 . S
H893 C908 0.960 . S
H894 C908 0.960 . S
H895 C908 0.960 . S
C896 H888 0.929 . S
C896 C897 1.377 . S
C896 C898 1.384 . S
C897 C896 1.377 . S
C897 C903 1.390 . S
C898 H889 0.930 . S
C898 C896 1.384 . S
C898 C899 1.372 . S
C899 C898 1.372 . S
C899 C900 1.400 . S
C899 C904 1.490 . S
C900 H890 0.930 . S
C900 C899 1.400 . S
C900 C903 1.386 . S
H901 C917 0.930 . S
H902 C918 0.931 . S
C903 H891 0.929 . S
C903 C897 1.390 . S
C903 C900 1.386 . S
C904 C899 1.490 . S
C904 C906 1.395 . S
C904 C907 1.403 . S
H905 C911 0.930 . S
C906 H892 0.930 . S
C906 C904 1.395 . S
C906 C909 1.403 . S
C907 C904 1.403 . S
C907 C908 1.524 . S
C907 C911 1.400 . S
C908 H893 0.960 . S
C908 H894 0.960 . S
C908 H895 0.960 . S
C908 C907 1.524 . S
C909 C906 1.403 . S
C909 C910 1.392 . S
C909 C913 1.495 . S
C910 C909 1.392 . S
C910 C911 1.385 . S
C910 C912 1.478 . S
C911 H905 0.930 . S
C911 C907 1.400 . S
C911 C910 1.385 . S
C912 C910 1.478 . S
C912 C914 1.381 . S
C912 C918 1.383 . S
C913 C909 1.495 . S
C913 H919 0.959 . S
C913 H920 0.961 . S
C913 H921 0.960 . S
C914 C912 1.381 . S
C914 C915 1.394 . S
C914 H922 0.930 . S
C915 C914 1.394 . S
C915 C916 1.383 . S
C915 H923 0.929 . S
C916 C915 1.383 . S
C916 C917 1.377 . S
C917 H901 0.930 . S
C917 C916 1.377 . S
C917 C918 1.379 . S
C918 H902 0.931 . S
C918 C912 1.383 . S
C918 C917 1.379 . S
H919 C913 0.959 . S
H920 C913 0.961 . S
H921 C913 0.960 . S
H922 C914 0.930 . S
H923 C915 0.929 . S
H924 C932 0.929 . S
H925 C934 0.930 . S
H926 C936 0.930 . S
H927 C939 0.929 . S
H928 C942 0.930 . S
H929 C944 0.960 . S
H930 C944 0.960 . S
H931 C944 0.960 . S
C932 H924 0.929 . S
C932 C933 1.377 . S
C932 C934 1.384 . S
C933 C932 1.377 . S
C933 C939 1.390 . S
C934 H925 0.930 . S
C934 C932 1.384 . S
C934 C935 1.372 . S
C935 C934 1.372 . S
C935 C936 1.400 . S
C935 C940 1.490 . S
C936 H926 0.930 . S
C936 C935 1.400 . S
C936 C939 1.386 . S
H937 C953 0.930 . S
H938 C954 0.931 . S
C939 H927 0.929 . S
C939 C933 1.390 . S
C939 C936 1.386 . S
C940 C935 1.490 . S
C940 C942 1.395 . S
C940 C943 1.403 . S
H941 C947 0.930 . S
C942 H928 0.930 . S
C942 C940 1.395 . S
C942 C945 1.403 1_455 S
C943 C940 1.403 . S
C943 C944 1.524 . S
C943 C947 1.400 . S
C944 H929 0.960 . S
C944 H930 0.960 . S
C944 H931 0.960 . S
C944 C943 1.524 . S
C945 C942 1.403 1_655 S
C945 C946 1.392 1_655 S
C945 C949 1.495 . S
C946 C945 1.392 1_455 S
C946 C947 1.385 . S
C946 C948 1.478 1_455 S
C947 H941 0.930 . S
C947 C943 1.400 . S
C947 C946 1.385 . S
C948 C946 1.478 1_655 S
C948 C950 1.381 . S
C948 C954 1.383 . S
C949 C945 1.495 . S
C949 H955 0.959 . S
C949 H956 0.961 . S
C949 H957 0.960 . S
C950 C948 1.381 . S
C950 C951 1.394 . S
C950 H958 0.930 1_655 S
C951 C950 1.394 . S
C951 C952 1.383 . S
C951 H959 0.929 . S
C952 C951 1.383 . S
C952 C953 1.377 . S
C953 H937 0.930 . S
C953 C952 1.377 . S
C953 C954 1.379 . S
C954 H938 0.931 . S
C954 C948 1.383 . S
C954 C953 1.379 . S
H955 C949 0.959 . S
H956 C949 0.961 . S
H957 C949 0.960 . S
H958 C950 0.930 1_455 S
H959 C951 0.929 . S
H960 C968 0.929 . S
H961 C970 0.930 . S
H962 C972 0.930 . S
H963 C975 0.929 . S
H964 C978 0.930 . S
H965 C980 0.960 . S
H966 C980 0.960 . S
H967 C980 0.960 . S
C968 H960 0.929 . S
C968 C969 1.377 . S
C968 C970 1.384 . S
C969 C968 1.377 . S
C969 C975 1.390 . S
C970 H961 0.930 . S
C970 C968 1.384 . S
C970 C971 1.372 . S
C971 C970 1.372 . S
C971 C972 1.400 . S
C971 C976 1.490 . S
C972 H962 0.930 . S
C972 C971 1.400 . S
C972 C975 1.386 . S
H973 C989 0.930 . S
H974 C990 0.931 . S
C975 H963 0.929 . S
C975 C969 1.390 . S
C975 C972 1.386 . S
C976 C971 1.490 . S
C976 C978 1.395 . S
C976 C979 1.403 . S
H977 C983 0.930 . S
C978 H964 0.930 . S
C978 C976 1.395 . S
C978 C981 1.403 . S
C979 C976 1.403 . S
C979 C980 1.524 . S
C979 C983 1.400 . S
C980 H965 0.960 . S
C980 H966 0.960 . S
C980 H967 0.960 . S
C980 C979 1.524 . S
C981 C978 1.403 . S
C981 C982 1.392 . S
C981 C985 1.495 . S
C982 C981 1.392 . S
C982 C983 1.385 . S
C982 C984 1.478 . S
C983 H977 0.930 . S
C983 C979 1.400 . S
C983 C982 1.385 . S
C984 C982 1.478 . S
C984 C986 1.381 . S
C984 C990 1.383 . S
C985 C981 1.495 . S
C985 H991 0.959 . S
C985 H992 0.961 . S
C985 H993 0.960 . S
C986 C984 1.381 . S
C986 C987 1.394 . S
C986 H994 0.930 . S
C987 C986 1.394 . S
C987 C988 1.383 . S
C987 H995 0.929 . S
C988 C987 1.383 . S
C988 C989 1.377 . S
C989 H973 0.930 . S
C989 C988 1.377 . S
C989 C990 1.379 . S
C990 H974 0.931 . S
C990 C984 1.383 . S
C990 C989 1.379 . S
H991 C985 0.959 . S
H992 C985 0.961 . S
H993 C985 0.960 . S
H994 C986 0.930 . S
H995 C987 0.929 . S
H996 C1004 0.929 . S
H997 C1006 0.930 . S
H998 C1008 0.930 . S
H999 C1011 0.929 . S
H1000 C1014 0.930 . S
H1001 C1016 0.960 . S
H1002 C1016 0.960 . S
H1003 C1016 0.960 . S
C1004 H996 0.929 . S
C1004 C1005 1.377 . S
C1004 C1006 1.384 . S
C1005 C1004 1.377 . S
C1005 C1011 1.390 . S
C1006 H997 0.930 . S
C1006 C1004 1.384 . S
C1006 C1007 1.372 . S
C1007 C1006 1.372 . S
C1007 C1008 1.400 . S
C1007 C1012 1.490 . S
C1008 H998 0.930 . S
C1008 C1007 1.400 . S
C1008 C1011 1.386 . S
H1009 C1025 0.930 . S
H1010 C1026 0.931 . S
C1011 H999 0.929 . S
C1011 C1005 1.390 . S
C1011 C1008 1.386 . S
C1012 C1007 1.490 . S
C1012 C1014 1.395 . S
C1012 C1015 1.403 . S
H1013 C1019 0.930 . S
C1014 H1000 0.930 . S
C1014 C1012 1.395 . S
C1014 C1017 1.403 . S
C1015 C1012 1.403 . S
C1015 C1016 1.524 . S
C1015 C1019 1.400 . S
C1016 H1001 0.960 . S
C1016 H1002 0.960 . S
C1016 H1003 0.960 . S
C1016 C1015 1.524 . S
C1017 C1014 1.403 . S
C1017 C1018 1.392 . S
C1017 C1021 1.495 . S
C1018 C1017 1.392 . S
C1018 C1019 1.385 . S
C1018 C1020 1.478 . S
C1019 H1013 0.930 . S
C1019 C1015 1.400 . S
C1019 C1018 1.385 . S
C1020 C1018 1.478 . S
C1020 C1022 1.381 . S
C1020 C1026 1.383 . S
C1021 C1017 1.495 . S
C1021 H1027 0.959 . S
C1021 H1028 0.961 . S
C1021 H1029 0.960 . S
C1022 C1020 1.381 . S
C1022 C1023 1.394 . S
C1022 H1030 0.930 . S
C1023 C1022 1.394 . S
C1023 C1024 1.383 . S
C1023 H1031 0.929 . S
C1024 C1023 1.383 . S
C1024 C1025 1.377 . S
C1025 H1009 0.930 . S
C1025 C1024 1.377 . S
C1025 C1026 1.379 . S
C1026 H1010 0.931 . S
C1026 C1020 1.383 . S
C1026 C1025 1.379 . S
H1027 C1021 0.959 . S
H1028 C1021 0.961 . S
H1029 C1021 0.960 . S
H1030 C1022 0.930 . S
H1031 C1023 0.929 . S
H1032 C1040 0.929 . S
H1033 C1042 0.930 . S
H1034 C1044 0.930 . S
H1035 C1047 0.929 . S
H1036 C1050 0.930 . S
H1037 C1052 0.960 . S
H1038 C1052 0.960 . S
H1039 C1052 0.960 . S
C1040 H1032 0.929 . S
C1040 C1041 1.377 . S
C1040 C1042 1.384 . S
C1041 C1040 1.377 . S
C1041 C1047 1.390 . S
C1042 H1033 0.930 . S
C1042 C1040 1.384 . S
C1042 C1043 1.372 . S
C1043 C1042 1.372 . S
C1043 C1044 1.400 . S
C1043 C1048 1.490 . S
C1044 H1034 0.930 . S
C1044 C1043 1.400 . S
C1044 C1047 1.386 . S
H1045 C1061 0.930 . S
H1046 C1062 0.931 . S
C1047 H1035 0.929 . S
C1047 C1041 1.390 . S
C1047 C1044 1.386 . S
C1048 C1043 1.490 . S
C1048 C1050 1.395 . S
C1048 C1051 1.403 1_565 S
H1049 C1055 0.930 . S
C1050 H1036 0.930 . S
C1050 C1048 1.395 . S
C1050 C1053 1.403 . S
C1051 C1048 1.403 1_545 S
C1051 C1052 1.524 . S
C1051 C1055 1.400 . S
C1052 H1037 0.960 . S
C1052 H1038 0.960 . S
C1052 H1039 0.960 . S
C1052 C1051 1.524 . S
C1053 C1050 1.403 . S
C1053 C1054 1.392 . S
C1053 C1057 1.495 . S
C1054 C1053 1.392 . S
C1054 C1055 1.385 1_565 S
C1054 C1056 1.478 1_565 S
C1055 H1049 0.930 . S
C1055 C1051 1.400 . S
C1055 C1054 1.385 1_545 S
C1056 C1054 1.478 1_545 S
C1056 C1058 1.379 1_545 S
C1056 C1062 1.383 . S
C1057 C1053 1.495 . S
C1057 H1063 0.959 . S
C1057 H1064 0.961 . S
C1057 H1065 0.960 . S
C1058 C1056 1.379 1_565 S
C1058 C1059 1.385 1_565 S
C1058 H1066 0.943 . S
C1059 C1058 1.385 1_545 S
C1059 C1060 1.383 . S
C1059 H1067 0.929 . S
C1060 C1059 1.383 . S
C1060 C1061 1.377 . S
C1061 H1045 0.930 . S
C1061 C1060 1.377 . S
C1061 C1062 1.379 . S
C1062 H1046 0.931 . S
C1062 C1056 1.383 . S
C1062 C1061 1.379 . S
H1063 C1057 0.959 . S
H1064 C1057 0.961 . S
H1065 C1057 0.960 . S
H1066 C1058 0.943 . S
H1067 C1059 0.929 . S
H1068 C1076 0.929 . S
H1069 C1078 0.908 1_545 S
H1070 C1080 0.930 . S
H1071 C1083 0.929 . S
H1072 C1086 0.930 . S
H1073 C1088 0.960 . S
H1074 C1088 0.960 . S
H1075 C1088 0.960 . S
C1076 H1068 0.929 . S
C1076 C1077 1.377 . S
C1076 C1078 1.398 . S
C1077 C1076 1.377 . S
C1077 C1083 1.390 . S
C1078 H1069 0.908 1_565 S
C1078 C1076 1.398 . S
C1078 C1079 1.381 . S
C1079 C1078 1.381 . S
C1079 C1080 1.400 . S
C1079 C1084 1.490 1_565 S
C1080 H1070 0.930 . S
C1080 C1079 1.400 . S
C1080 C1083 1.386 . S
H1081 C1097 0.930 . S
H1082 C1098 0.931 . S
C1083 H1071 0.929 . S
C1083 C1077 1.390 . S
C1083 C1080 1.386 . S
C1084 C1079 1.490 1_545 S
C1084 C1086 1.395 . S
C1084 C1087 1.403 1_545 S
H1085 C1091 0.930 1_565 S
C1086 H1072 0.930 . S
C1086 C1084 1.395 . S
C1086 C1089 1.403 . S
C1087 C1084 1.403 1_565 S
C1087 C1088 1.524 . S
C1087 C1091 1.400 1_565 S
C1088 H1073 0.960 . S
C1088 H1074 0.960 . S
C1088 H1075 0.960 . S
C1088 C1087 1.524 . S
C1089 C1086 1.403 . S
C1089 C1090 1.392 . S
C1089 C1093 1.495 . S
C1090 C1089 1.392 . S
C1090 C1091 1.385 . S
C1090 C1092 1.478 . S
C1091 H1085 0.930 1_545 S
C1091 C1087 1.400 1_545 S
C1091 C1090 1.385 . S
C1092 C1090 1.478 . S
C1092 C1094 1.381 . S
C1092 C1098 1.383 . S
C1093 C1089 1.495 . S
C1093 H1099 0.959 . S
C1093 H1100 0.961 . S
C1093 H1101 0.960 . S
C1094 C1092 1.381 . S
C1094 C1095 1.394 . S
C1094 H1102 0.930 . S
C1095 C1094 1.394 . S
C1095 C1096 1.383 . S
C1095 H1103 0.929 . S
C1096 C1095 1.383 . S
C1096 C1097 1.377 . S
C1097 H1081 0.930 . S
C1097 C1096 1.377 . S
C1097 C1098 1.379 . S
C1098 H1082 0.931 . S
C1098 C1092 1.383 . S
C1098 C1097 1.379 . S
H1099 C1093 0.959 . S
H1100 C1093 0.961 . S
H1101 C1093 0.960 . S
H1102 C1094 0.930 . S
H1103 C1095 0.929 . S
H1104 C1112 0.929 . S
H1105 C1114 0.930 . S
H1106 C1116 0.930 . S
H1107 C1119 0.929 . S
H1108 C1122 0.930 . S
H1109 C1124 0.960 . S
H1110 C1124 0.960 . S
H1111 C1124 0.960 . S
C1112 H1104 0.929 . S
C1112 C1113 1.377 . S
C1112 C1114 1.384 . S
C1113 C1112 1.377 . S
C1113 C1119 1.390 . S
C1114 H1105 0.930 . S
C1114 C1112 1.384 . S
C1114 C1115 1.372 . S
C1115 C1114 1.372 . S
C1115 C1116 1.400 . S
C1115 C1120 1.490 . S
C1116 H1106 0.930 . S
C1116 C1115 1.400 . S
C1116 C1119 1.386 . S
H1117 C1133 0.930 . S
H1118 C1134 0.931 . S
C1119 H1107 0.929 . S
C1119 C1113 1.390 . S
C1119 C1116 1.386 . S
C1120 C1115 1.490 . S
C1120 C1122 1.395 . S
C1120 C1123 1.403 . S
H1121 C1127 0.930 . S
C1122 H1108 0.930 . S
C1122 C1120 1.395 . S
C1122 C1125 1.403 . S
C1123 C1120 1.403 . S
C1123 C1124 1.524 . S
C1123 C1127 1.400 . S
C1124 H1109 0.960 . S
C1124 H1110 0.960 . S
C1124 H1111 0.960 . S
C1124 C1123 1.524 . S
C1125 C1122 1.403 . S
C1125 C1126 1.392 . S
C1125 C1129 1.495 . S
C1126 C1125 1.392 . S
C1126 C1127 1.385 . S
C1126 C1128 1.478 . S
C1127 H1121 0.930 . S
C1127 C1123 1.400 . S
C1127 C1126 1.385 . S
C1128 C1126 1.478 . S
C1128 C1130 1.381 . S
C1128 C1134 1.383 . S
C1129 C1125 1.495 . S
C1129 H1135 0.959 . S
C1129 H1136 0.961 . S
C1129 H1137 0.960 . S
C1130 C1128 1.381 . S
C1130 C1131 1.394 . S
C1130 H1138 0.930 . S
C1131 C1130 1.394 . S
C1131 C1132 1.383 . S
C1131 H1139 0.929 . S
C1132 C1131 1.383 . S
C1132 C1133 1.377 . S
C1133 H1117 0.930 . S
C1133 C1132 1.377 . S
C1133 C1134 1.379 . S
C1134 H1118 0.931 . S
C1134 C1128 1.383 . S
C1134 C1133 1.379 . S
H1135 C1129 0.959 . S
H1136 C1129 0.961 . S
H1137 C1129 0.960 . S
H1138 C1130 0.930 . S
H1139 C1131 0.929 . S
H1140 C1148 0.929 . S
H1141 C1150 0.930 . S
H1142 C1152 0.928 1_554 S
H1143 C1155 0.929 . S
H1144 C1158 0.930 . S
H1145 C1160 0.960 . S
H1146 C1160 0.960 . S
H1147 C1160 0.960 . S
C1148 H1140 0.929 . S
C1148 C1149 1.377 . S
C1148 C1150 1.384 . S
C1149 C1148 1.377 . S
C1149 C1155 1.390 . S
C1150 H1141 0.930 . S
C1150 C1148 1.384 . S
C1150 C1151 1.372 . S
C1151 C1150 1.372 . S
C1151 C1152 1.400 . S
C1151 C1156 1.490 1_556 S
C1152 H1142 0.928 1_556 S
C1152 C1151 1.400 . S
C1152 C1155 1.386 . S
H1153 C1169 0.930 . S
H1154 C1170 0.931 . S
C1155 H1143 0.929 . S
C1155 C1149 1.390 . S
C1155 C1152 1.386 . S
C1156 C1151 1.490 1_554 S
C1156 C1158 1.395 1_554 S
C1156 C1159 1.403 . S
H1157 C1163 0.930 . S
C1158 H1144 0.930 . S
C1158 C1156 1.395 1_556 S
C1158 C1161 1.403 . S
C1159 C1156 1.403 . S
C1159 C1160 1.524 . S
C1159 C1163 1.400 . S
C1160 H1145 0.960 . S
C1160 H1146 0.960 . S
C1160 H1147 0.960 . S
C1160 C1159 1.524 . S
C1161 C1158 1.403 . S
C1161 C1162 1.392 1_556 S
C1161 C1165 1.495 . S
C1162 C1161 1.392 1_554 S
C1162 C1163 1.385 . S
C1162 C1164 1.478 . S
C1163 H1157 0.930 . S
C1163 C1159 1.400 . S
C1163 C1162 1.385 . S
C1164 C1162 1.478 . S
C1164 C1166 1.381 . S
C1164 C1170 1.383 . S
C1165 C1161 1.495 . S
C1165 H1171 0.959 . S
C1165 H1172 0.961 . S
C1165 H1173 0.960 . S
C1166 C1164 1.381 . S
C1166 C1167 1.394 . S
C1166 H1174 0.930 . S
C1167 C1166 1.394 . S
C1167 C1168 1.383 . S
C1167 H1175 0.929 . S
C1168 C1167 1.383 . S
C1168 C1169 1.377 . S
C1169 H1153 0.930 . S
C1169 C1168 1.377 . S
C1169 C1170 1.379 . S
C1170 H1154 0.931 . S
C1170 C1164 1.383 . S
C1170 C1169 1.379 . S
H1171 C1165 0.959 . S
H1172 C1165 0.961 . S
H1173 C1165 0.960 . S
H1174 C1166 0.930 . S
H1175 C1167 0.929 . S
H1176 C1184 0.929 . S
H1177 C1186 0.930 . S
H1178 C1188 0.930 . S
H1179 C1191 0.929 . S
H1180 C1194 0.930 . S
H1181 C1196 0.960 . S
H1182 C1196 0.960 . S
H1183 C1196 0.960 . S
C1184 H1176 0.929 . S
C1184 C1185 1.377 . S
C1184 C1186 1.384 . S
C1185 C1184 1.377 . S
C1185 C1191 1.390 . S
C1186 H1177 0.930 . S
C1186 C1184 1.384 . S
C1186 C1187 1.372 . S
C1187 C1186 1.372 . S
C1187 C1188 1.400 . S
C1187 C1192 1.490 . S
C1188 H1178 0.930 . S
C1188 C1187 1.400 . S
C1188 C1191 1.386 . S
H1189 C1205 0.930 . S
H1190 C1206 0.931 . S
C1191 H1179 0.929 . S
C1191 C1185 1.390 . S
C1191 C1188 1.386 . S
C1192 C1187 1.490 . S
C1192 C1194 1.395 . S
C1192 C1195 1.403 . S
H1193 C1199 0.930 . S
C1194 H1180 0.930 . S
C1194 C1192 1.395 . S
C1194 C1197 1.403 . S
C1195 C1192 1.403 . S
C1195 C1196 1.524 . S
C1195 C1199 1.400 . S
C1196 H1181 0.960 . S
C1196 H1182 0.960 . S
C1196 H1183 0.960 . S
C1196 C1195 1.524 . S
C1197 C1194 1.403 . S
C1197 C1198 1.392 . S
C1197 C1201 1.495 . S
C1198 C1197 1.392 . S
C1198 C1199 1.385 . S
C1198 C1200 1.478 . S
C1199 H1193 0.930 . S
C1199 C1195 1.400 . S
C1199 C1198 1.385 . S
C1200 C1198 1.478 . S
C1200 C1202 1.381 . S
C1200 C1206 1.383 . S
C1201 C1197 1.495 . S
C1201 H1207 0.959 . S
C1201 H1208 0.961 . S
C1201 H1209 0.960 . S
C1202 C1200 1.381 . S
C1202 C1203 1.394 . S
C1202 H1210 0.930 . S
C1203 C1202 1.394 . S
C1203 C1204 1.383 . S
C1203 H1211 0.929 . S
C1204 C1203 1.383 . S
C1204 C1205 1.377 . S
C1205 H1189 0.930 . S
C1205 C1204 1.377 . S
C1205 C1206 1.379 . S
C1206 H1190 0.931 . S
C1206 C1200 1.383 . S
C1206 C1205 1.379 . S
H1207 C1201 0.959 . S
H1208 C1201 0.961 . S
H1209 C1201 0.960 . S
H1210 C1202 0.930 . S
H1211 C1203 0.929 . S
H1212 C1220 0.929 . S
H1213 C1222 0.930 . S
H1214 C1224 0.930 . S
H1215 C1227 0.929 . S
H1216 C1230 0.930 . S
H1217 C1232 0.960 . S
H1218 C1232 0.960 . S
H1219 C1232 0.960 . S
C1220 H1212 0.929 . S
C1220 C1221 1.377 . S
C1220 C1222 1.384 . S
C1221 C1220 1.377 . S
C1221 C1227 1.390 . S
C1222 H1213 0.930 . S
C1222 C1220 1.384 . S
C1222 C1223 1.372 . S
C1223 C1222 1.372 . S
C1223 C1224 1.400 . S
C1223 C1228 1.490 1_554 S
C1224 H1214 0.930 . S
C1224 C1223 1.400 . S
C1224 C1227 1.386 . S
H1225 C1241 0.930 . S
H1226 C1242 0.931 . S
C1227 H1215 0.929 . S
C1227 C1221 1.390 . S
C1227 C1224 1.386 . S
C1228 C1223 1.490 1_556 S
C1228 C1230 1.395 . S
C1228 C1231 1.403 1_556 S
H1229 C1235 0.930 1_554 S
C1230 H1216 0.930 . S
C1230 C1228 1.395 . S
C1230 C1233 1.403 . S
C1231 C1228 1.403 1_554 S
C1231 C1232 1.524 . S
C1231 C1235 1.400 1_554 S
C1232 H1217 0.960 . S
C1232 H1218 0.960 . S
C1232 H1219 0.960 . S
C1232 C1231 1.524 . S
C1233 C1230 1.403 . S
C1233 C1234 1.392 . S
C1233 C1237 1.495 . S
C1234 C1233 1.392 . S
C1234 C1235 1.385 . S
C1234 C1236 1.478 . S
C1235 H1229 0.930 1_556 S
C1235 C1231 1.400 1_556 S
C1235 C1234 1.385 . S
C1236 C1234 1.478 . S
C1236 C1238 1.381 . S
C1236 C1242 1.383 . S
C1237 C1233 1.495 . S
C1237 H1243 0.959 . S
C1237 H1244 0.961 . S
C1237 H1245 0.960 . S
C1238 C1236 1.381 . S
C1238 C1239 1.394 . S
C1238 H1246 0.930 . S
C1239 C1238 1.394 . S
C1239 C1240 1.383 . S
C1239 H1247 0.929 . S
C1240 C1239 1.383 . S
C1240 C1241 1.377 . S
C1241 H1225 0.930 . S
C1241 C1240 1.377 . S
C1241 C1242 1.379 . S
C1242 H1226 0.931 . S
C1242 C1236 1.383 . S
C1242 C1241 1.379 . S
H1243 C1237 0.959 . S
H1244 C1237 0.961 . S
H1245 C1237 0.960 . S
H1246 C1238 0.930 . S
H1247 C1239 0.929 . S
H1248 C1256 0.929 . S
H1249 C1258 0.930 . S
H1250 C1260 0.930 . S
H1251 C1263 0.929 . S
H1252 C1266 0.930 . S
H1253 C1268 0.960 . S
H1254 C1268 0.960 . S
H1255 C1268 0.960 . S
C1256 H1248 0.929 . S
C1256 C1257 1.377 . S
C1256 C1258 1.384 . S
C1257 C1256 1.377 . S
C1257 C1263 1.390 . S
C1258 H1249 0.930 . S
C1258 C1256 1.384 . S
C1258 C1259 1.372 . S
C1259 C1258 1.372 . S
C1259 C1260 1.400 . S
C1259 C1264 1.490 . S
C1260 H1250 0.930 . S
C1260 C1259 1.400 . S
C1260 C1263 1.386 . S
H1261 C1277 0.930 . S
H1262 C1278 0.931 . S
C1263 H1251 0.929 . S
C1263 C1257 1.390 . S
C1263 C1260 1.386 . S
C1264 C1259 1.490 . S
C1264 C1266 1.395 . S
C1264 C1267 1.403 . S
H1265 C1271 0.930 . S
C1266 H1252 0.930 . S
C1266 C1264 1.395 . S
C1266 C1269 1.403 . S
C1267 C1264 1.403 . S
C1267 C1268 1.524 . S
C1267 C1271 1.400 . S
C1268 H1253 0.960 . S
C1268 H1254 0.960 . S
C1268 H1255 0.960 . S
C1268 C1267 1.524 . S
C1269 C1266 1.403 . S
C1269 C1270 1.392 . S
C1269 C1273 1.495 . S
C1270 C1269 1.392 . S
C1270 C1271 1.385 . S
C1270 C1272 1.478 . S
C1271 H1265 0.930 . S
C1271 C1267 1.400 . S
C1271 C1270 1.385 . S
C1272 C1270 1.478 . S
C1272 C1274 1.381 . S
C1272 C1278 1.383 . S
C1273 C1269 1.495 . S
C1273 H1279 0.959 . S
C1273 H1280 0.961 . S
C1273 H1281 0.960 . S
C1274 C1272 1.381 . S
C1274 C1275 1.394 . S
C1274 H1282 0.930 . S
C1275 C1274 1.394 . S
C1275 C1276 1.383 . S
C1275 H1283 0.929 . S
C1276 C1275 1.383 . S
C1276 C1277 1.377 . S
C1277 H1261 0.930 . S
C1277 C1276 1.377 . S
C1277 C1278 1.379 . S
C1278 H1262 0.931 . S
C1278 C1272 1.383 . S
C1278 C1277 1.379 . S
H1279 C1273 0.959 . S
H1280 C1273 0.961 . S
H1281 C1273 0.960 . S
H1282 C1274 0.930 . S
H1283 C1275 0.929 . S
H1284 C1292 0.929 . S
H1285 C1294 0.930 . S
H1286 C1296 0.930 . S
H1287 C1299 0.929 1_455 S
H1288 C1302 0.923 1_655 S
H1289 C1304 0.960 . S
H1290 C1304 0.960 1_655 S
H1291 C1304 0.960 . S
C1292 H1284 0.929 . S
C1292 C1293 1.377 . S
C1292 C1294 1.384 . S
C1293 C1292 1.377 . S
C1293 C1299 1.390 . S
C1294 H1285 0.930 . S
C1294 C1292 1.384 . S
C1294 C1295 1.372 . S
C1295 C1294 1.372 . S
C1295 C1296 1.400 1_655 S
C1295 C1300 1.490 1_655 S
C1296 H1286 0.930 . S
C1296 C1295 1.400 1_455 S
C1296 C1299 1.386 1_455 S
H1297 C1313 0.930 . S
H1298 C1314 0.931 . S
C1299 H1287 0.929 1_655 S
C1299 C1293 1.390 . S
C1299 C1296 1.386 1_655 S
C1300 C1295 1.490 1_455 S
C1300 C1302 1.395 . S
C1300 C1303 1.403 . S
H1301 C1307 0.930 . S
C1302 H1288 0.923 1_455 S
C1302 C1300 1.395 . S
C1302 C1305 1.403 . S
C1303 C1300 1.403 . S
C1303 C1304 1.524 . S
C1303 C1307 1.400 . S
C1304 H1289 0.960 . S
C1304 H1290 0.960 1_455 S
C1304 H1291 0.960 . S
C1304 C1303 1.524 . S
C1305 C1302 1.403 . S
C1305 C1306 1.392 . S
C1305 C1309 1.495 . S
C1306 C1305 1.392 . S
C1306 C1307 1.385 . S
C1306 C1308 1.478 . S
C1307 H1301 0.930 . S
C1307 C1303 1.400 . S
C1307 C1306 1.385 . S
C1308 C1306 1.478 . S
C1308 C1310 1.381 . S
C1308 C1314 1.383 . S
C1309 C1305 1.495 . S
C1309 H1315 0.959 . S
C1309 H1316 0.961 . S
C1309 H1317 0.960 . S
C1310 C1308 1.381 . S
C1310 C1311 1.394 . S
C1310 H1318 0.930 . S
C1311 C1310 1.394 . S
C1311 C1312 1.383 . S
C1311 H1319 0.929 . S
C1312 C1311 1.383 . S
C1312 C1313 1.377 . S
C1313 H1297 0.930 . S
C1313 C1312 1.377 . S
C1313 C1314 1.379 . S
C1314 H1298 0.931 . S
C1314 C1308 1.383 . S
C1314 C1313 1.379 . S
H1315 C1309 0.959 . S
H1316 C1309 0.961 . S
H1317 C1309 0.960 . S
H1318 C1310 0.930 . S
H1319 C1311 0.929 . S
H1320 C1328 0.929 . S
H1321 C1330 0.930 . S
H1322 C1332 0.930 . S
H1323 C1335 0.929 . S
H1324 C1338 0.930 . S
H1325 C1340 0.960 . S
H1326 C1340 0.960 . S
H1327 C1340 0.960 . S
C1328 H1320 0.929 . S
C1328 C1329 1.377 . S
C1328 C1330 1.384 . S
C1329 C1328 1.377 . S
C1329 C1335 1.390 . S
C1330 H1321 0.930 . S
C1330 C1328 1.384 . S
C1330 C1331 1.372 . S
C1331 C1330 1.372 . S
C1331 C1332 1.400 . S
C1331 C1336 1.490 . S
C1332 H1322 0.930 . S
C1332 C1331 1.400 . S
C1332 C1335 1.386 . S
H1333 C1349 0.930 . S
H1334 C1350 0.931 . S
C1335 H1323 0.929 . S
C1335 C1329 1.390 . S
C1335 C1332 1.386 . S
C1336 C1331 1.490 . S
C1336 C1338 1.395 . S
C1336 C1339 1.403 . S
H1337 C1343 0.930 . S
C1338 H1324 0.930 . S
C1338 C1336 1.395 . S
C1338 C1341 1.403 . S
C1339 C1336 1.403 . S
C1339 C1340 1.524 . S
C1339 C1343 1.400 . S
C1340 H1325 0.960 . S
C1340 H1326 0.960 . S
C1340 H1327 0.960 . S
C1340 C1339 1.524 . S
C1341 C1338 1.403 . S
C1341 C1342 1.392 . S
C1341 C1345 1.495 . S
C1342 C1341 1.392 . S
C1342 C1343 1.385 . S
C1342 C1344 1.478 . S
C1343 H1337 0.930 . S
C1343 C1339 1.400 . S
C1343 C1342 1.385 . S
C1344 C1342 1.478 . S
C1344 C1346 1.381 . S
C1344 C1350 1.383 . S
C1345 C1341 1.495 . S
C1345 H1351 0.959 . S
C1345 H1352 0.961 . S
C1345 H1353 0.960 . S
C1346 C1344 1.381 . S
C1346 C1347 1.394 . S
C1346 H1354 0.930 . S
C1347 C1346 1.394 . S
C1347 C1348 1.383 . S
C1347 H1355 0.929 . S
C1348 C1347 1.383 . S
C1348 C1349 1.377 . S
C1349 H1333 0.930 . S
C1349 C1348 1.377 . S
C1349 C1350 1.379 . S
C1350 H1334 0.931 . S
C1350 C1344 1.383 . S
C1350 C1349 1.379 . S
H1351 C1345 0.959 . S
H1352 C1345 0.961 . S
H1353 C1345 0.960 . S
H1354 C1346 0.930 . S
H1355 C1347 0.929 . S
H1356 C1364 0.929 . S
H1357 C1366 0.930 . S
H1358 C1368 0.930 . S
H1359 C1371 0.929 . S
H1360 C1374 0.930 . S
H1361 C1376 0.960 . S
H1362 C1376 0.960 . S
H1363 C1376 0.960 . S
C1364 H1356 0.929 . S
C1364 C1365 1.377 . S
C1364 C1366 1.384 . S
C1365 C1364 1.377 . S
C1365 C1371 1.390 . S
C1366 H1357 0.930 . S
C1366 C1364 1.384 . S
C1366 C1367 1.372 . S
C1367 C1366 1.372 . S
C1367 C1368 1.400 . S
C1367 C1372 1.490 . S
C1368 H1358 0.930 . S
C1368 C1367 1.400 . S
C1368 C1371 1.386 . S
H1369 C1385 0.930 . S
H1370 C1386 0.931 . S
C1371 H1359 0.929 . S
C1371 C1365 1.390 . S
C1371 C1368 1.386 . S
C1372 C1367 1.490 . S
C1372 C1374 1.395 . S
C1372 C1375 1.403 . S
H1373 C1379 0.930 . S
C1374 H1360 0.930 . S
C1374 C1372 1.395 . S
C1374 C1377 1.403 . S
C1375 C1372 1.403 . S
C1375 C1376 1.524 . S
C1375 C1379 1.400 . S
C1376 H1361 0.960 . S
C1376 H1362 0.960 . S
C1376 H1363 0.960 . S
C1376 C1375 1.524 . S
C1377 C1374 1.403 . S
C1377 C1378 1.392 . S
C1377 C1381 1.495 . S
C1378 C1377 1.392 . S
C1378 C1379 1.385 . S
C1378 C1380 1.478 1_655 S
C1379 H1373 0.930 . S
C1379 C1375 1.400 . S
C1379 C1378 1.385 . S
C1380 C1378 1.478 1_455 S
C1380 C1382 1.381 1_455 S
C1380 C1386 1.383 . S
C1381 C1377 1.495 . S
C1381 H1387 0.959 . S
C1381 H1388 0.961 1_655 S
C1381 H1389 0.960 . S
C1382 C1380 1.381 1_655 S
C1382 C1383 1.394 1_655 S
C1382 H1390 0.930 . S
C1383 C1382 1.394 1_455 S
C1383 C1384 1.383 . S
C1383 H1391 0.929 1_455 S
C1384 C1383 1.383 . S
C1384 C1385 1.377 . S
C1385 H1369 0.930 . S
C1385 C1384 1.377 . S
C1385 C1386 1.379 . S
C1386 H1370 0.931 . S
C1386 C1380 1.383 . S
C1386 C1385 1.379 . S
H1387 C1381 0.959 . S
H1388 C1381 0.961 1_455 S
H1389 C1381 0.960 . S
H1390 C1382 0.930 . S
H1391 C1383 0.929 1_655 S
H1392 C1400 0.929 . S
H1393 C1402 0.930 . S
H1394 C1404 0.930 . S
H1395 C1407 0.929 1_556 S
H1396 C1410 0.930 . S
H1397 C1412 0.960 . S
H1398 C1412 0.960 . S
H1399 C1412 0.960 . S
C1400 H1392 0.929 . S
C1400 C1401 1.377 . S
C1400 C1402 1.384 . S
C1401 C1400 1.377 . S
C1401 C1407 1.390 . S
C1402 H1393 0.930 . S
C1402 C1400 1.384 . S
C1402 C1403 1.372 . S
C1403 C1402 1.372 . S
C1403 C1404 1.400 . S
C1403 C1408 1.490 . S
C1404 H1394 0.930 . S
C1404 C1403 1.400 . S
C1404 C1407 1.386 . S
H1405 C1421 0.930 . S
H1406 C1422 0.931 . S
C1407 H1395 0.929 1_554 S
C1407 C1401 1.390 . S
C1407 C1404 1.386 . S
C1408 C1403 1.490 . S
C1408 C1410 1.395 . S
C1408 C1411 1.403 . S
H1409 C1415 0.930 . S
C1410 H1396 0.930 . S
C1410 C1408 1.395 . S
C1410 C1413 1.403 . S
C1411 C1408 1.403 . S
C1411 C1412 1.524 . S
C1411 C1415 1.400 . S
C1412 H1397 0.960 . S
C1412 H1398 0.960 . S
C1412 H1399 0.960 . S
C1412 C1411 1.524 . S
C1413 C1410 1.403 . S
C1413 C1414 1.392 . S
C1413 C1417 1.495 . S
C1414 C1413 1.392 . S
C1414 C1415 1.385 . S
C1414 C1416 1.478 . S
C1415 H1409 0.930 . S
C1415 C1411 1.400 . S
C1415 C1414 1.385 . S
C1416 C1414 1.478 . S
C1416 C1418 1.381 . S
C1416 C1422 1.383 . S
C1417 C1413 1.495 . S
C1417 H1423 0.959 . S
C1417 H1424 0.961 . S
C1417 H1425 0.960 . S
C1418 C1416 1.381 . S
C1418 C1419 1.394 . S
C1418 H1426 0.930 . S
C1419 C1418 1.394 . S
C1419 C1420 1.383 . S
C1419 H1427 0.929 . S
C1420 C1419 1.383 . S
C1420 C1421 1.377 . S
C1421 H1405 0.930 . S
C1421 C1420 1.377 . S
C1421 C1422 1.379 . S
C1422 H1406 0.931 . S
C1422 C1416 1.383 . S
C1422 C1421 1.379 . S
H1423 C1417 0.959 . S
H1424 C1417 0.961 . S
H1425 C1417 0.960 . S
H1426 C1418 0.930 . S
H1427 C1419 0.929 . S
H1428 C1436 0.929 . S
H1429 C1438 0.930 . S
H1430 C1440 0.930 . S
H1431 C1443 0.929 . S
H1432 C1446 0.930 . S
H1433 C1448 0.960 . S
H1434 C1448 0.960 . S
H1435 C1448 0.960 . S
C1436 H1428 0.929 . S
C1436 C1437 1.377 . S
C1436 C1438 1.384 . S
C1437 C1436 1.377 . S
C1437 C1443 1.390 . S
C1438 H1429 0.930 . S
C1438 C1436 1.384 . S
C1438 C1439 1.372 . S
C1439 C1438 1.372 . S
C1439 C1440 1.400 . S
C1439 C1444 1.490 . S
C1440 H1430 0.930 . S
C1440 C1439 1.400 . S
C1440 C1443 1.386 . S
H1441 C1457 0.930 . S
H1442 C1458 0.931 . S
C1443 H1431 0.929 . S
C1443 C1437 1.390 . S
C1443 C1440 1.386 . S
C1444 C1439 1.490 . S
C1444 C1446 1.395 . S
C1444 C1447 1.403 . S
H1445 C1451 0.930 . S
C1446 H1432 0.930 . S
C1446 C1444 1.395 . S
C1446 C1449 1.403 . S
C1447 C1444 1.403 . S
C1447 C1448 1.524 . S
C1447 C1451 1.400 . S
C1448 H1433 0.960 . S
C1448 H1434 0.960 . S
C1448 H1435 0.960 . S
C1448 C1447 1.524 . S
C1449 C1446 1.403 . S
C1449 C1450 1.392 . S
C1449 C1453 1.495 . S
C1450 C1449 1.392 . S
C1450 C1451 1.385 . S
C1450 C1452 1.478 . S
C1451 H1445 0.930 . S
C1451 C1447 1.400 . S
C1451 C1450 1.385 . S
C1452 C1450 1.478 . S
C1452 C1454 1.381 . S
C1452 C1458 1.383 . S
C1453 C1449 1.495 . S
C1453 H1459 0.959 . S
C1453 H1460 0.961 . S
C1453 H1461 0.960 . S
C1454 C1452 1.381 . S
C1454 C1455 1.394 . S
C1454 H1462 0.930 . S
C1455 C1454 1.394 . S
C1455 C1456 1.383 . S
C1455 H1463 0.929 . S
C1456 C1455 1.383 . S
C1456 C1457 1.377 . S
C1457 H1441 0.930 . S
C1457 C1456 1.377 . S
C1457 C1458 1.379 . S
C1458 H1442 0.931 . S
C1458 C1452 1.383 . S
C1458 C1457 1.379 . S
H1459 C1453 0.959 . S
H1460 C1453 0.961 . S
H1461 C1453 0.960 . S
H1462 C1454 0.930 . S
H1463 C1455 0.929 . S
H1464 C1472 0.929 . S
H1465 C1474 0.930 . S
H1466 C1476 0.930 . S
H1467 C1479 0.929 . S
H1468 C1482 0.930 . S
H1469 C1484 0.960 . S
H1470 C1484 0.960 . S
H1471 C1484 0.960 . S
C1472 H1464 0.929 . S
C1472 C1473 1.377 . S
C1472 C1474 1.384 . S
C1473 C1472 1.377 . S
C1473 C1479 1.390 . S
C1474 H1465 0.930 . S
C1474 C1472 1.384 . S
C1474 C1475 1.372 . S
C1475 C1474 1.372 . S
C1475 C1476 1.400 . S
C1475 C1480 1.490 . S
C1476 H1466 0.930 . S
C1476 C1475 1.400 . S
C1476 C1479 1.386 . S
H1477 C1493 0.930 1_554 S
H1478 C1494 0.931 . S
C1479 H1467 0.929 . S
C1479 C1473 1.390 . S
C1479 C1476 1.386 . S
C1480 C1475 1.490 . S
C1480 C1482 1.395 . S
C1480 C1483 1.403 . S
H1481 C1487 0.930 . S
C1482 H1468 0.930 . S
C1482 C1480 1.395 . S
C1482 C1485 1.403 . S
C1483 C1480 1.403 . S
C1483 C1484 1.524 . S
C1483 C1487 1.400 . S
C1484 H1469 0.960 . S
C1484 H1470 0.960 . S
C1484 H1471 0.960 . S
C1484 C1483 1.524 . S
C1485 C1482 1.403 . S
C1485 C1486 1.392 . S
C1485 C1489 1.495 . S
C1486 C1485 1.392 . S
C1486 C1487 1.385 . S
C1486 C1488 1.478 . S
C1487 H1481 0.930 . S
C1487 C1483 1.400 . S
C1487 C1486 1.385 . S
C1488 C1486 1.478 . S
C1488 C1490 1.381 . S
C1488 C1494 1.383 . S
C1489 C1485 1.495 . S
C1489 H1495 0.959 . S
C1489 H1496 0.961 . S
C1489 H1497 0.960 . S
C1490 C1488 1.381 . S
C1490 C1491 1.394 . S
C1490 H1498 0.930 . S
C1491 C1490 1.394 . S
C1491 C1492 1.383 . S
C1491 H1499 0.929 . S
C1492 C1491 1.383 . S
C1492 C1493 1.377 . S
C1493 H1477 0.930 1_556 S
C1493 C1492 1.377 . S
C1493 C1494 1.379 . S
C1494 H1478 0.931 . S
C1494 C1488 1.383 . S
C1494 C1493 1.379 . S
H1495 C1489 0.959 . S
H1496 C1489 0.961 . S
H1497 C1489 0.960 . S
H1498 C1490 0.930 . S
H1499 C1491 0.929 . S
H1500 C1508 0.929 . S
H1501 C1510 0.930 . S
H1502 C1512 0.930 . S
H1503 C1515 0.929 . S
H1504 C1518 0.930 . S
H1505 C1520 0.960 . S
H1506 C1520 0.960 . S
H1507 C1520 0.960 . S
C1508 H1500 0.929 . S
C1508 C1509 1.377 . S
C1508 C1510 1.384 . S
C1509 C1508 1.377 . S
C1509 C1515 1.390 . S
C1510 H1501 0.930 . S
C1510 C1508 1.384 . S
C1510 C1511 1.372 . S
C1511 C1510 1.372 . S
C1511 C1512 1.400 . S
C1511 C1516 1.490 . S
C1512 H1502 0.930 . S
C1512 C1511 1.400 . S
C1512 C1515 1.386 . S
H1513 C1529 0.930 . S
H1514 C1530 0.931 . S
C1515 H1503 0.929 . S
C1515 C1509 1.390 . S
C1515 C1512 1.386 . S
C1516 C1511 1.490 . S
C1516 C1518 1.395 . S
C1516 C1519 1.403 . S
H1517 C1523 0.930 . S
C1518 H1504 0.930 . S
C1518 C1516 1.395 . S
C1518 C1521 1.403 . S
C1519 C1516 1.403 . S
C1519 C1520 1.524 . S
C1519 C1523 1.400 . S
C1520 H1505 0.960 . S
C1520 H1506 0.960 . S
C1520 H1507 0.960 . S
C1520 C1519 1.524 . S
C1521 C1518 1.403 . S
C1521 C1522 1.392 . S
C1521 C1525 1.495 . S
C1522 C1521 1.392 . S
C1522 C1523 1.385 . S
C1522 C1524 1.478 . S
C1523 H1517 0.930 . S
C1523 C1519 1.400 . S
C1523 C1522 1.385 . S
C1524 C1522 1.478 . S
C1524 C1526 1.381 . S
C1524 C1530 1.383 . S
C1525 C1521 1.495 . S
C1525 H1531 0.959 . S
C1525 H1532 0.961 . S
C1525 H1533 0.960 . S
C1526 C1524 1.381 . S
C1526 C1527 1.394 . S
C1526 H1534 0.930 . S
C1527 C1526 1.394 . S
C1527 C1528 1.383 . S
C1527 H1535 0.929 . S
C1528 C1527 1.383 . S
C1528 C1529 1.377 . S
C1529 H1513 0.930 . S
C1529 C1528 1.377 . S
C1529 C1530 1.379 . S
C1530 H1514 0.931 . S
C1530 C1524 1.383 . S
C1530 C1529 1.379 . S
H1531 C1525 0.959 . S
H1532 C1525 0.961 . S
H1533 C1525 0.960 . S
H1534 C1526 0.930 . S
H1535 C1527 0.929 . S
H1536 C1544 0.929 . S
H1537 C1546 0.930 . S
H1538 C1548 0.930 . S
H1539 C1551 0.929 . S
H1540 C1554 0.930 . S
H1541 C1556 0.960 . S
H1542 C1556 0.960 . S
H1543 C1556 0.960 . S
C1544 H1536 0.929 . S
C1544 C1545 1.377 . S
C1544 C1546 1.384 . S
C1545 C1544 1.377 . S
C1545 C1551 1.390 . S
C1546 H1537 0.930 . S
C1546 C1544 1.384 . S
C1546 C1547 1.372 . S
C1547 C1546 1.372 . S
C1547 C1548 1.400 . S
C1547 C1552 1.490 . S
C1548 H1538 0.930 . S
C1548 C1547 1.400 . S
C1548 C1551 1.386 . S
H1549 C1565 0.930 . S
H1550 C1566 0.931 . S
C1551 H1539 0.929 . S
C1551 C1545 1.390 . S
C1551 C1548 1.386 . S
C1552 C1547 1.490 . S
C1552 C1554 1.395 . S
C1552 C1555 1.403 . S
H1553 C1559 0.930 . S
C1554 H1540 0.930 . S
C1554 C1552 1.395 . S
C1554 C1557 1.403 . S
C1555 C1552 1.403 . S
C1555 C1556 1.524 . S
C1555 C1559 1.400 . S
C1556 H1541 0.960 . S
C1556 H1542 0.960 . S
C1556 H1543 0.960 . S
C1556 C1555 1.524 . S
C1557 C1554 1.403 . S
C1557 C1558 1.392 . S
C1557 C1561 1.495 . S
C1558 C1557 1.392 . S
C1558 C1559 1.385 . S
C1558 C1560 1.478 . S
C1559 H1553 0.930 . S
C1559 C1555 1.400 . S
C1559 C1558 1.385 . S
C1560 C1558 1.478 . S
C1560 C1562 1.381 . S
C1560 C1566 1.383 . S
C1561 C1557 1.495 . S
C1561 H1567 0.959 . S
C1561 H1568 0.961 . S
C1561 H1569 0.960 . S
C1562 C1560 1.381 . S
C1562 C1563 1.394 . S
C1562 H1570 0.930 . S
C1563 C1562 1.394 . S
C1563 C1564 1.383 . S
C1563 H1571 0.929 1_455 S
C1564 C1563 1.383 . S
C1564 C1565 1.377 . S
C1565 H1549 0.930 . S
C1565 C1564 1.377 . S
C1565 C1566 1.379 . S
C1566 H1550 0.931 . S
C1566 C1560 1.383 . S
C1566 C1565 1.379 . S
H1567 C1561 0.959 . S
H1568 C1561 0.961 . S
H1569 C1561 0.960 . S
H1570 C1562 0.930 . S
H1571 C1563 0.929 1_655 S
H1572 C1580 0.929 . S
H1573 C1582 0.930 . S
H1574 C1584 0.930 . S
H1575 C1587 0.929 . S
H1576 C1590 0.930 . S
H1577 C1592 0.960 . S
H1578 C1592 0.960 . S
H1579 C1592 0.960 . S
C1580 H1572 0.929 . S
C1580 C1581 1.377 . S
C1580 C1582 1.384 . S
C1581 C1580 1.377 . S
C1581 C1587 1.390 . S
C1582 H1573 0.930 . S
C1582 C1580 1.384 . S
C1582 C1583 1.372 . S
C1583 C1582 1.372 . S
C1583 C1584 1.400 . S
C1583 C1588 1.490 . S
C1584 H1574 0.930 . S
C1584 C1583 1.400 . S
C1584 C1587 1.386 . S
H1585 C1601 0.930 . S
H1586 C1602 0.931 . S
C1587 H1575 0.929 . S
C1587 C1581 1.390 . S
C1587 C1584 1.386 . S
C1588 C1583 1.490 . S
C1588 C1590 1.395 . S
C1588 C1591 1.403 . S
H1589 C1595 0.930 . S
C1590 H1576 0.930 . S
C1590 C1588 1.395 . S
C1590 C1593 1.403 . S
C1591 C1588 1.403 . S
C1591 C1592 1.524 . S
C1591 C1595 1.400 . S
C1592 H1577 0.960 . S
C1592 H1578 0.960 . S
C1592 H1579 0.960 . S
C1592 C1591 1.524 . S
C1593 C1590 1.403 . S
C1593 C1594 1.392 . S
C1593 C1597 1.495 . S
C1594 C1593 1.392 . S
C1594 C1595 1.385 . S
C1594 C1596 1.478 . S
C1595 H1589 0.930 . S
C1595 C1591 1.400 . S
C1595 C1594 1.385 . S
C1596 C1594 1.478 . S
C1596 C1598 1.381 . S
C1596 C1602 1.383 . S
C1597 C1593 1.495 . S
C1597 H1603 0.959 . S
C1597 H1604 0.961 . S
C1597 H1605 0.960 . S
C1598 C1596 1.381 . S
C1598 C1599 1.394 . S
C1598 H1606 0.930 . S
C1599 C1598 1.394 . S
C1599 C1600 1.383 . S
C1599 H1607 0.929 . S
C1600 C1599 1.383 . S
C1600 C1601 1.377 . S
C1601 H1585 0.930 . S
C1601 C1600 1.377 . S
C1601 C1602 1.379 . S
C1602 H1586 0.931 . S
C1602 C1596 1.383 . S
C1602 C1601 1.379 . S
H1603 C1597 0.959 . S
H1604 C1597 0.961 . S
H1605 C1597 0.960 . S
H1606 C1598 0.930 . S
H1607 C1599 0.929 . S
H1608 C1616 0.929 . S
H1609 C1618 0.930 . S
H1610 C1620 0.930 . S
H1611 C1623 0.929 . S
H1612 C1626 0.930 . S
H1613 C1628 0.960 . S
H1614 C1628 0.960 . S
H1615 C1628 0.960 . S
C1616 H1608 0.929 . S
C1616 C1617 1.377 . S
C1616 C1618 1.384 . S
C1617 C1616 1.377 . S
C1617 C1623 1.390 . S
C1618 H1609 0.930 . S
C1618 C1616 1.384 . S
C1618 C1619 1.372 . S
C1619 C1618 1.372 . S
C1619 C1620 1.400 . S
C1619 C1624 1.490 . S
C1620 H1610 0.930 . S
C1620 C1619 1.400 . S
C1620 C1623 1.386 . S
H1621 C1637 0.930 . S
H1622 C1638 0.931 . S
C1623 H1611 0.929 . S
C1623 C1617 1.390 . S
C1623 C1620 1.386 . S
C1624 C1619 1.490 . S
C1624 C1626 1.395 . S
C1624 C1627 1.403 . S
H1625 C1631 0.930 . S
C1626 H1612 0.930 . S
C1626 C1624 1.395 . S
C1626 C1629 1.403 . S
C1627 C1624 1.403 . S
C1627 C1628 1.524 . S
C1627 C1631 1.400 . S
C1628 H1613 0.960 . S
C1628 H1614 0.960 . S
C1628 H1615 0.960 . S
C1628 C1627 1.524 . S
C1629 C1626 1.403 . S
C1629 C1630 1.392 . S
C1629 C1633 1.495 . S
C1630 C1629 1.392 . S
C1630 C1631 1.385 . S
C1630 C1632 1.478 . S
C1631 H1625 0.930 . S
C1631 C1627 1.400 . S
C1631 C1630 1.385 . S
C1632 C1630 1.478 . S
C1632 C1634 1.381 . S
C1632 C1638 1.383 . S
C1633 C1629 1.495 . S
C1633 H1639 0.959 . S
C1633 H1640 0.961 . S
C1633 H1641 0.960 . S
C1634 C1632 1.381 . S
C1634 C1635 1.394 . S
C1634 H1642 0.930 . S
C1635 C1634 1.394 . S
C1635 C1636 1.383 . S
C1635 H1643 0.929 . S
C1636 C1635 1.383 . S
C1636 C1637 1.377 . S
C1637 H1621 0.930 . S
C1637 C1636 1.377 . S
C1637 C1638 1.379 . S
C1638 H1622 0.931 . S
C1638 C1632 1.383 . S
C1638 C1637 1.379 . S
H1639 C1633 0.959 . S
H1640 C1633 0.961 . S
H1641 C1633 0.960 . S
H1642 C1634 0.930 . S
H1643 C1635 0.929 . S
H1644 C1652 0.929 . S
H1645 C1654 0.930 . S
H1646 C1656 0.930 . S
H1647 C1659 0.929 . S
H1648 C1662 0.930 . S
H1649 C1664 0.960 . S
H1650 C1664 0.960 . S
H1651 C1664 0.960 . S
C1652 H1644 0.929 . S
C1652 C1653 1.377 . S
C1652 C1654 1.384 . S
C1653 C1652 1.377 . S
C1653 C1659 1.390 . S
C1654 H1645 0.930 . S
C1654 C1652 1.384 . S
C1654 C1655 1.372 . S
C1655 C1654 1.372 . S
C1655 C1656 1.400 . S
C1655 C1660 1.490 . S
C1656 H1646 0.930 . S
C1656 C1655 1.400 . S
C1656 C1659 1.386 . S
H1657 C1673 0.930 . S
H1658 C1674 0.931 . S
C1659 H1647 0.929 . S
C1659 C1653 1.390 . S
C1659 C1656 1.386 . S
C1660 C1655 1.490 . S
C1660 C1662 1.395 . S
C1660 C1663 1.403 . S
H1661 C1667 0.930 . S
C1662 H1648 0.930 . S
C1662 C1660 1.395 . S
C1662 C1665 1.403 . S
C1663 C1660 1.403 . S
C1663 C1664 1.524 . S
C1663 C1667 1.400 . S
C1664 H1649 0.960 . S
C1664 H1650 0.960 . S
C1664 H1651 0.960 . S
C1664 C1663 1.524 . S
C1665 C1662 1.403 . S
C1665 C1666 1.392 . S
C1665 C1669 1.495 . S
C1666 C1665 1.392 . S
C1666 C1667 1.385 . S
C1666 C1668 1.478 . S
C1667 H1661 0.930 . S
C1667 C1663 1.400 . S
C1667 C1666 1.385 . S
C1668 C1666 1.478 . S
C1668 C1670 1.381 . S
C1668 C1674 1.383 . S
C1669 C1665 1.495 . S
C1669 H1675 0.959 . S
C1669 H1676 0.961 . S
C1669 H1677 0.960 . S
C1670 C1668 1.381 . S
C1670 C1671 1.394 . S
C1670 H1678 0.930 . S
C1671 C1670 1.394 . S
C1671 C1672 1.383 . S
C1671 H1679 0.929 . S
C1672 C1671 1.383 . S
C1672 C1673 1.377 . S
C1673 H1657 0.930 . S
C1673 C1672 1.377 . S
C1673 C1674 1.379 . S
C1674 H1658 0.931 . S
C1674 C1668 1.383 . S
C1674 C1673 1.379 . S
H1675 C1669 0.959 . S
H1676 C1669 0.961 . S
H1677 C1669 0.960 . S
H1678 C1670 0.930 . S
H1679 C1671 0.929 . S
H1680 C1688 0.941 . S
H1681 C1690 0.930 . S
H1682 C1692 0.930 . S
H1683 C1695 0.929 . S
H1684 C1698 0.930 . S
H1685 C1700 0.960 . S
H1686 C1700 0.960 . S
H1687 C1700 0.960 . S
C1688 H1680 0.941 . S
C1688 C1689 1.377 . S
C1688 C1690 1.384 . S
C1689 C1688 1.377 . S
C1689 C1695 1.390 . S
C1690 H1681 0.930 . S
C1690 C1688 1.384 . S
C1690 C1691 1.372 . S
C1691 C1690 1.372 . S
C1691 C1692 1.400 . S
C1691 C1696 1.490 . S
C1692 H1682 0.930 . S
C1692 C1691 1.400 . S
C1692 C1695 1.386 . S
H1693 C1709 0.930 . S
H1694 C1710 0.931 . S
C1695 H1683 0.929 . S
C1695 C1689 1.390 . S
C1695 C1692 1.386 . S
C1696 C1691 1.490 . S
C1696 C1698 1.395 . S
C1696 C1699 1.403 . S
H1697 C1703 0.930 . S
C1698 H1684 0.930 . S
C1698 C1696 1.395 . S
C1698 C1701 1.403 . S
C1699 C1696 1.403 . S
C1699 C1700 1.524 . S
C1699 C1703 1.400 . S
C1700 H1685 0.960 . S
C1700 H1686 0.960 . S
C1700 H1687 0.960 . S
C1700 C1699 1.524 . S
C1701 C1698 1.403 . S
C1701 C1702 1.392 . S
C1701 C1705 1.495 . S
C1702 C1701 1.392 . S
C1702 C1703 1.385 . S
C1702 C1704 1.478 . S
C1703 H1697 0.930 . S
C1703 C1699 1.400 . S
C1703 C1702 1.385 . S
C1704 C1702 1.478 . S
C1704 C1706 1.381 . S
C1704 C1710 1.383 . S
C1705 C1701 1.495 . S
C1705 H1711 0.959 . S
C1705 H1712 0.961 . S
C1705 H1713 0.960 . S
C1706 C1704 1.381 . S
C1706 C1707 1.394 . S
C1706 H1714 0.930 . S
C1707 C1706 1.394 . S
C1707 C1708 1.383 . S
C1707 H1715 0.929 . S
C1708 C1707 1.383 . S
C1708 C1709 1.377 . S
C1709 H1693 0.930 . S
C1709 C1708 1.377 . S
C1709 C1710 1.379 . S
C1710 H1694 0.931 . S
C1710 C1704 1.383 . S
C1710 C1709 1.379 . S
H1711 C1705 0.959 . S
H1712 C1705 0.961 . S
H1713 C1705 0.960 . S
H1714 C1706 0.930 . S
H1715 C1707 0.929 . S
H1716 C1724 0.929 . S
H1717 C1726 0.930 . S
H1718 C1728 0.930 . S
H1719 C1731 0.929 . S
H1720 C1734 0.930 . S
H1721 C1736 0.960 . S
H1722 C1736 0.960 . S
H1723 C1736 0.960 . S
C1724 H1716 0.929 . S
C1724 C1725 1.377 . S
C1724 C1726 1.384 . S
C1725 C1724 1.377 . S
C1725 C1731 1.390 . S
C1726 H1717 0.930 . S
C1726 C1724 1.384 . S
C1726 C1727 1.372 . S
C1727 C1726 1.372 . S
C1727 C1728 1.400 . S
C1727 C1732 1.490 . S
C1728 H1718 0.930 . S
C1728 C1727 1.400 . S
C1728 C1731 1.386 . S
H1729 C1745 0.930 . S
H1730 C1746 0.931 . S
C1731 H1719 0.929 . S
C1731 C1725 1.390 . S
C1731 C1728 1.386 . S
C1732 C1727 1.490 . S
C1732 C1734 1.395 . S
C1732 C1735 1.403 . S
H1733 C1739 0.930 . S
C1734 H1720 0.930 . S
C1734 C1732 1.395 . S
C1734 C1737 1.403 . S
C1735 C1732 1.403 . S
C1735 C1736 1.524 . S
C1735 C1739 1.400 . S
C1736 H1721 0.960 . S
C1736 H1722 0.960 . S
C1736 H1723 0.960 . S
C1736 C1735 1.524 . S
C1737 C1734 1.403 . S
C1737 C1738 1.392 . S
C1737 C1741 1.495 . S
C1738 C1737 1.392 . S
C1738 C1739 1.385 . S
C1738 C1740 1.478 . S
C1739 H1733 0.930 . S
C1739 C1735 1.400 . S
C1739 C1738 1.385 . S
C1740 C1738 1.478 . S
C1740 C1742 1.381 . S
C1740 C1746 1.383 . S
C1741 C1737 1.495 . S
C1741 H1747 0.959 . S
C1741 H1748 0.961 . S
C1741 H1749 0.960 . S
C1742 C1740 1.381 . S
C1742 C1743 1.394 . S
C1742 H1750 0.930 . S
C1743 C1742 1.394 . S
C1743 C1744 1.383 . S
C1743 H1751 0.929 . S
C1744 C1743 1.383 . S
C1744 C1745 1.377 . S
C1745 H1729 0.930 . S
C1745 C1744 1.377 . S
C1745 C1746 1.379 . S
C1746 H1730 0.931 . S
C1746 C1740 1.383 . S
C1746 C1745 1.379 . S
H1747 C1741 0.959 . S
H1748 C1741 0.961 . S
H1749 C1741 0.960 . S
H1750 C1742 0.930 . S
H1751 C1743 0.929 . S
H1752 C1760 0.929 . S
H1753 C1762 0.930 . S
H1754 C1764 0.930 . S
H1755 C1767 0.929 . S
H1756 C1770 0.930 . S
H1757 C1772 0.960 . S
H1758 C1772 0.960 . S
H1759 C1772 0.960 . S
C1760 H1752 0.929 . S
C1760 C1761 1.377 . S
C1760 C1762 1.384 . S
C1761 C1760 1.377 . S
C1761 C1767 1.390 . S
C1762 H1753 0.930 . S
C1762 C1760 1.384 . S
C1762 C1763 1.372 . S
C1763 C1762 1.372 . S
C1763 C1764 1.400 . S
C1763 C1768 1.490 . S
C1764 H1754 0.930 . S
C1764 C1763 1.400 . S
C1764 C1767 1.386 . S
H1765 C1781 0.930 . S
H1766 C1782 0.931 . S
C1767 H1755 0.929 . S
C1767 C1761 1.390 . S
C1767 C1764 1.386 . S
C1768 C1763 1.490 . S
C1768 C1770 1.395 . S
C1768 C1771 1.403 . S
H1769 C1775 0.930 . S
C1770 H1756 0.930 . S
C1770 C1768 1.395 . S
C1770 C1773 1.403 . S
C1771 C1768 1.403 . S
C1771 C1772 1.524 . S
C1771 C1775 1.400 . S
C1772 H1757 0.960 . S
C1772 H1758 0.960 . S
C1772 H1759 0.960 . S
C1772 C1771 1.524 . S
C1773 C1770 1.403 . S
C1773 C1774 1.392 . S
C1773 C1777 1.495 . S
C1774 C1773 1.392 . S
C1774 C1775 1.385 . S
C1774 C1776 1.478 . S
C1775 H1769 0.930 . S
C1775 C1771 1.400 . S
C1775 C1774 1.385 . S
C1776 C1774 1.478 . S
C1776 C1778 1.381 . S
C1776 C1782 1.383 . S
C1777 C1773 1.495 . S
C1777 H1783 0.959 . S
C1777 H1784 0.961 . S
C1777 H1785 0.960 . S
C1778 C1776 1.381 . S
C1778 C1779 1.394 . S
C1778 H1786 0.930 . S
C1779 C1778 1.394 . S
C1779 C1780 1.383 . S
C1779 H1787 0.929 . S
C1780 C1779 1.383 . S
C1780 C1781 1.377 . S
C1781 H1765 0.930 . S
C1781 C1780 1.377 . S
C1781 C1782 1.379 . S
C1782 H1766 0.931 . S
C1782 C1776 1.383 . S
C1782 C1781 1.379 . S
H1783 C1777 0.959 . S
H1784 C1777 0.961 . S
H1785 C1777 0.960 . S
H1786 C1778 0.930 . S
H1787 C1779 0.929 . S
H1788 C1796 0.929 . S
H1789 C1798 0.930 . S
H1790 C1800 0.930 . S
H1791 C1803 0.929 1_545 S
H1792 C1806 0.930 . S
H1793 C1808 0.960 . S
H1794 C1808 0.960 . S
H1795 C1808 0.960 . S
C1796 H1788 0.929 . S
C1796 C1797 1.377 . S
C1796 C1798 1.384 . S
C1797 C1796 1.377 . S
C1797 C1803 1.390 . S
C1798 H1789 0.930 . S
C1798 C1796 1.384 . S
C1798 C1799 1.372 . S
C1799 C1798 1.372 . S
C1799 C1800 1.400 . S
C1799 C1804 1.490 . S
C1800 H1790 0.930 . S
C1800 C1799 1.400 . S
C1800 C1803 1.386 . S
H1801 C1817 0.930 . S
H1802 C1818 0.931 . S
C1803 H1791 0.929 1_565 S
C1803 C1797 1.390 . S
C1803 C1800 1.386 . S
C1804 C1799 1.490 . S
C1804 C1806 1.395 . S
C1804 C1807 1.403 . S
H1805 C1811 0.930 . S
C1806 H1792 0.930 . S
C1806 C1804 1.395 . S
C1806 C1809 1.403 . S
C1807 C1804 1.403 . S
C1807 C1808 1.524 . S
C1807 C1811 1.400 . S
C1808 H1793 0.960 . S
C1808 H1794 0.960 . S
C1808 H1795 0.960 . S
C1808 C1807 1.524 . S
C1809 C1806 1.403 . S
C1809 C1810 1.392 . S
C1809 C1813 1.495 . S
C1810 C1809 1.392 . S
C1810 C1811 1.385 . S
C1810 C1812 1.478 . S
C1811 H1805 0.930 . S
C1811 C1807 1.400 . S
C1811 C1810 1.385 . S
C1812 C1810 1.478 . S
C1812 C1814 1.381 . S
C1812 C1818 1.383 . S
C1813 C1809 1.495 . S
C1813 H1819 0.959 . S
C1813 H1820 0.961 . S
C1813 H1821 0.960 . S
C1814 C1812 1.381 . S
C1814 C1815 1.394 . S
C1814 H1822 0.930 . S
C1815 C1814 1.394 . S
C1815 C1816 1.383 . S
C1815 H1823 0.929 . S
C1816 C1815 1.383 . S
C1816 C1817 1.377 . S
C1817 H1801 0.930 . S
C1817 C1816 1.377 . S
C1817 C1818 1.379 . S
C1818 H1802 0.931 . S
C1818 C1812 1.383 . S
C1818 C1817 1.379 . S
H1819 C1813 0.959 . S
H1820 C1813 0.961 . S
H1821 C1813 0.960 . S
H1822 C1814 0.930 . S
H1823 C1815 0.929 . S
H1824 C1832 0.929 . S
H1825 C1834 0.930 . S
H1826 C1836 0.930 . S
H1827 C1839 0.929 . S
H1828 C1842 0.930 . S
H1829 C1844 0.960 . S
H1830 C1844 0.960 . S
H1831 C1844 0.960 . S
C1832 H1824 0.929 . S
C1832 C1833 1.377 . S
C1832 C1834 1.384 . S
C1833 C1832 1.377 . S
C1833 C1839 1.390 . S
C1834 H1825 0.930 . S
C1834 C1832 1.384 . S
C1834 C1835 1.372 . S
C1835 C1834 1.372 . S
C1835 C1836 1.400 . S
C1835 C1840 1.490 . S
C1836 H1826 0.930 . S
C1836 C1835 1.400 . S
C1836 C1839 1.386 . S
H1837 C1853 0.930 . S
H1838 C1854 0.931 . S
C1839 H1827 0.929 . S
C1839 C1833 1.390 . S
C1839 C1836 1.386 . S
C1840 C1835 1.490 . S
C1840 C1842 1.395 . S
C1840 C1843 1.403 . S
H1841 C1847 0.930 . S
C1842 H1828 0.930 . S
C1842 C1840 1.395 . S
C1842 C1845 1.403 . S
C1843 C1840 1.403 . S
C1843 C1844 1.524 . S
C1843 C1847 1.400 . S
C1844 H1829 0.960 . S
C1844 H1830 0.960 . S
C1844 H1831 0.960 . S
C1844 C1843 1.524 . S
C1845 C1842 1.403 . S
C1845 C1846 1.392 . S
C1845 C1849 1.495 . S
C1846 C1845 1.392 . S
C1846 C1847 1.385 . S
C1846 C1848 1.478 . S
C1847 H1841 0.930 . S
C1847 C1843 1.400 . S
C1847 C1846 1.385 . S
C1848 C1846 1.478 . S
C1848 C1850 1.381 . S
C1848 C1854 1.383 . S
C1849 C1845 1.495 . S
C1849 H1855 0.959 . S
C1849 H1856 0.961 . S
C1849 H1857 0.960 . S
C1850 C1848 1.381 . S
C1850 C1851 1.394 . S
C1850 H1858 0.930 . S
C1851 C1850 1.394 . S
C1851 C1852 1.383 . S
C1851 H1859 0.929 1_556 S
C1852 C1851 1.383 . S
C1852 C1853 1.377 . S
C1853 H1837 0.930 . S
C1853 C1852 1.377 . S
C1853 C1854 1.379 . S
C1854 H1838 0.931 . S
C1854 C1848 1.383 . S
C1854 C1853 1.379 . S
H1855 C1849 0.959 . S
H1856 C1849 0.961 . S
H1857 C1849 0.960 . S
H1858 C1850 0.930 . S
H1859 C1851 0.929 1_554 S
H1860 C1868 0.929 . S
H1861 C1870 0.930 . S
H1862 C1872 0.930 . S
H1863 C1875 0.929 . S
H1864 C1878 0.930 . S
H1865 C1880 0.960 . S
H1866 C1880 0.960 . S
H1867 C1880 0.960 . S
C1868 H1860 0.929 . S
C1868 C1869 1.377 . S
C1868 C1870 1.384 . S
C1869 C1868 1.377 . S
C1869 C1875 1.390 . S
C1870 H1861 0.930 . S
C1870 C1868 1.384 . S
C1870 C1871 1.372 . S
C1871 C1870 1.372 . S
C1871 C1872 1.400 . S
C1871 C1876 1.490 . S
C1872 H1862 0.930 . S
C1872 C1871 1.400 . S
C1872 C1875 1.386 . S
H1873 C1889 0.930 . S
H1874 C1890 0.931 . S
C1875 H1863 0.929 . S
C1875 C1869 1.390 . S
C1875 C1872 1.386 . S
C1876 C1871 1.490 . S
C1876 C1878 1.395 . S
C1876 C1879 1.403 . S
H1877 C1883 0.930 . S
C1878 H1864 0.930 . S
C1878 C1876 1.395 . S
C1878 C1881 1.403 . S
C1879 C1876 1.403 . S
C1879 C1880 1.524 . S
C1879 C1883 1.400 . S
C1880 H1865 0.960 . S
C1880 H1866 0.960 . S
C1880 H1867 0.960 . S
C1880 C1879 1.524 . S
C1881 C1878 1.403 . S
C1881 C1882 1.392 . S
C1881 C1885 1.495 . S
C1882 C1881 1.392 . S
C1882 C1883 1.385 . S
C1882 C1884 1.478 . S
C1883 H1877 0.930 . S
C1883 C1879 1.400 . S
C1883 C1882 1.385 . S
C1884 C1882 1.478 . S
C1884 C1886 1.381 . S
C1884 C1890 1.383 . S
C1885 C1881 1.495 . S
C1885 H1891 0.959 . S
C1885 H1892 0.961 . S
C1885 H1893 0.960 . S
C1886 C1884 1.381 . S
C1886 C1887 1.394 . S
C1886 H1894 0.930 . S
C1887 C1886 1.394 . S
C1887 C1888 1.383 . S
C1887 H1895 0.929 . S
C1888 C1887 1.383 . S
C1888 C1889 1.377 . S
C1889 H1873 0.930 . S
C1889 C1888 1.377 . S
C1889 C1890 1.379 . S
C1890 H1874 0.931 . S
C1890 C1884 1.383 . S
C1890 C1889 1.379 . S
H1891 C1885 0.959 . S
H1892 C1885 0.961 . S
H1893 C1885 0.960 . S
H1894 C1886 0.930 . S
H1895 C1887 0.929 . S
H1896 C1904 0.929 . S
H1897 C1906 0.930 . S
H1898 C1908 0.930 . S
H1899 C1911 0.929 1_556 S
H1900 C1914 0.930 . S
H1901 C1916 0.960 . S
H1902 C1916 0.960 . S
H1903 C1916 0.960 . S
C1904 H1896 0.929 . S
C1904 C1905 1.377 . S
C1904 C1906 1.384 . S
C1905 C1904 1.377 . S
C1905 C1911 1.390 . S
C1906 H1897 0.930 . S
C1906 C1904 1.384 . S
C1906 C1907 1.372 . S
C1907 C1906 1.372 . S
C1907 C1908 1.400 . S
C1907 C1912 1.490 . S
C1908 H1898 0.930 . S
C1908 C1907 1.400 . S
C1908 C1911 1.386 . S
H1909 C1925 0.930 . S
H1910 C1926 0.931 . S
C1911 H1899 0.929 1_554 S
C1911 C1905 1.390 . S
C1911 C1908 1.386 . S
C1912 C1907 1.490 . S
C1912 C1914 1.395 . S
C1912 C1915 1.403 . S
H1913 C1919 0.930 . S
C1914 H1900 0.930 . S
C1914 C1912 1.395 . S
C1914 C1917 1.403 . S
C1915 C1912 1.403 . S
C1915 C1916 1.524 . S
C1915 C1919 1.400 . S
C1916 H1901 0.960 . S
C1916 H1902 0.960 . S
C1916 H1903 0.960 . S
C1916 C1915 1.524 . S
C1917 C1914 1.403 . S
C1917 C1918 1.392 . S
C1917 C1921 1.495 . S
C1918 C1917 1.392 . S
C1918 C1919 1.385 . S
C1918 C1920 1.478 . S
C1919 H1913 0.930 . S
C1919 C1915 1.400 . S
C1919 C1918 1.385 . S
C1920 C1918 1.478 . S
C1920 C1922 1.381 . S
C1920 C1926 1.383 . S
C1921 C1917 1.495 . S
C1921 H1927 0.959 . S
C1921 H1928 0.961 . S
C1921 H1929 0.960 . S
C1922 C1920 1.381 . S
C1922 C1923 1.394 . S
C1922 H1930 0.930 . S
C1923 C1922 1.394 . S
C1923 C1924 1.383 . S
C1923 H1931 0.929 . S
C1924 C1923 1.383 . S
C1924 C1925 1.377 . S
C1925 H1909 0.930 . S
C1925 C1924 1.377 . S
C1925 C1926 1.379 . S
C1926 H1910 0.931 . S
C1926 C1920 1.383 . S
C1926 C1925 1.379 . S
H1927 C1921 0.959 . S
H1928 C1921 0.961 . S
H1929 C1921 0.960 . S
H1930 C1922 0.930 . S
H1931 C1923 0.929 . S
H1932 C1940 0.929 . S
H1933 C1942 0.930 . S
H1934 C1944 0.930 . S
H1935 C1947 0.929 . S
H1936 C1950 0.930 . S
H1937 C1952 0.960 . S
H1938 C1952 0.960 . S
H1939 C1952 0.960 . S
C1940 H1932 0.929 . S
C1940 C1941 1.377 . S
C1940 C1942 1.384 . S
C1941 C1940 1.377 . S
C1941 C1947 1.390 . S
C1942 H1933 0.930 . S
C1942 C1940 1.384 . S
C1942 C1943 1.372 . S
C1943 C1942 1.372 . S
C1943 C1944 1.400 . S
C1943 C1948 1.490 . S
C1944 H1934 0.930 . S
C1944 C1943 1.400 . S
C1944 C1947 1.386 . S
H1945 C1961 0.930 . S
H1946 C1962 0.931 . S
C1947 H1935 0.929 . S
C1947 C1941 1.390 . S
C1947 C1944 1.386 . S
C1948 C1943 1.490 . S
C1948 C1950 1.395 . S
C1948 C1951 1.403 . S
H1949 C1955 0.930 . S
C1950 H1936 0.930 . S
C1950 C1948 1.395 . S
C1950 C1953 1.403 . S
C1951 C1948 1.403 . S
C1951 C1952 1.524 . S
C1951 C1955 1.400 . S
C1952 H1937 0.960 . S
C1952 H1938 0.960 . S
C1952 H1939 0.960 . S
C1952 C1951 1.524 . S
C1953 C1950 1.403 . S
C1953 C1954 1.392 . S
C1953 C1957 1.495 . S
C1954 C1953 1.392 . S
C1954 C1955 1.385 . S
C1954 C1956 1.478 . S
C1955 H1949 0.930 . S
C1955 C1951 1.400 . S
C1955 C1954 1.385 . S
C1956 C1954 1.478 . S
C1956 C1958 1.381 . S
C1956 C1962 1.383 . S
C1957 C1953 1.495 . S
C1957 H1963 0.959 . S
C1957 H1964 0.961 . S
C1957 H1965 0.960 . S
C1958 C1956 1.381 . S
C1958 C1959 1.394 . S
C1958 H1966 0.930 . S
C1959 C1958 1.394 . S
C1959 C1960 1.383 . S
C1959 H1967 0.929 . S
C1960 C1959 1.383 . S
C1960 C1961 1.377 . S
C1961 H1945 0.930 . S
C1961 C1960 1.377 . S
C1961 C1962 1.379 . S
C1962 H1946 0.931 . S
C1962 C1956 1.383 . S
C1962 C1961 1.379 . S
H1963 C1957 0.959 . S
H1964 C1957 0.961 . S
H1965 C1957 0.960 . S
H1966 C1958 0.930 . S
H1967 C1959 0.929 . S
H1968 C1976 0.929 . S
H1969 C1978 0.930 . S
H1970 C1980 0.930 . S
H1971 C1983 0.929 1_455 S
H1972 C1986 0.930 . S
H1973 C1988 0.960 . S
H1974 C1988 0.960 . S
H1975 C1988 0.960 . S
C1976 H1968 0.929 . S
C1976 C1977 1.377 . S
C1976 C1978 1.384 . S
C1977 C1976 1.377 . S
C1977 C1983 1.390 . S
C1978 H1969 0.930 . S
C1978 C1976 1.384 . S
C1978 C1979 1.372 . S
C1979 C1978 1.372 . S
C1979 C1980 1.400 . S
C1979 C1984 1.490 . S
C1980 H1970 0.930 . S
C1980 C1979 1.400 . S
C1980 C1983 1.386 . S
H1981 C1997 0.930 . S
H1982 C1998 0.931 . S
C1983 H1971 0.929 1_655 S
C1983 C1977 1.390 . S
C1983 C1980 1.386 . S
C1984 C1979 1.490 . S
C1984 C1986 1.395 . S
C1984 C1987 1.403 . S
H1985 C1991 0.930 . S
C1986 H1972 0.930 . S
C1986 C1984 1.395 . S
C1986 C1989 1.403 . S
C1987 C1984 1.403 . S
C1987 C1988 1.524 . S
C1987 C1991 1.400 . S
C1988 H1973 0.960 . S
C1988 H1974 0.960 . S
C1988 H1975 0.960 . S
C1988 C1987 1.524 . S
C1989 C1986 1.403 . S
C1989 C1990 1.392 . S
C1989 C1993 1.495 . S
C1990 C1989 1.392 . S
C1990 C1991 1.385 . S
C1990 C1992 1.478 . S
C1991 H1985 0.930 . S
C1991 C1987 1.400 . S
C1991 C1990 1.385 . S
C1992 C1990 1.478 . S
C1992 C1994 1.381 . S
C1992 C1998 1.383 . S
C1993 C1989 1.495 . S
C1993 H1999 0.959 . S
C1993 H2000 0.961 . S
C1993 H2001 0.960 . S
C1994 C1992 1.381 . S
C1994 C1995 1.394 . S
C1994 H2002 0.930 . S
C1995 C1994 1.394 . S
C1995 C1996 1.383 . S
C1995 H2003 0.929 . S
C1996 C1995 1.383 . S
C1996 C1997 1.377 . S
C1997 H1981 0.930 . S
C1997 C1996 1.377 . S
C1997 C1998 1.379 . S
C1998 H1982 0.931 . S
C1998 C1992 1.383 . S
C1998 C1997 1.379 . S
H1999 C1993 0.959 . S
H2000 C1993 0.961 . S
H2001 C1993 0.960 . S
H2002 C1994 0.930 . S
H2003 C1995 0.929 . S
H2004 C2012 0.929 . S
H2005 C2014 0.930 . S
H2006 C2016 0.930 . S
H2007 C2019 0.929 . S
H2008 C2022 0.930 . S
H2009 C2024 0.960 . S
H2010 C2024 0.960 . S
H2011 C2024 0.960 . S
C2012 H2004 0.929 . S
C2012 C2013 1.377 . S
C2012 C2014 1.384 . S
C2013 C2012 1.377 . S
C2013 C2019 1.390 . S
C2014 H2005 0.930 . S
C2014 C2012 1.384 . S
C2014 C2015 1.372 . S
C2015 C2014 1.372 . S
C2015 C2016 1.400 . S
C2015 C2020 1.490 . S
C2016 H2006 0.930 . S
C2016 C2015 1.400 . S
C2016 C2019 1.386 . S
H2017 C2033 0.930 . S
H2018 C2034 0.931 . S
C2019 H2007 0.929 . S
C2019 C2013 1.390 . S
C2019 C2016 1.386 . S
C2020 C2015 1.490 . S
C2020 C2022 1.395 . S
C2020 C2023 1.403 . S
H2021 C2027 0.930 . S
C2022 H2008 0.930 . S
C2022 C2020 1.395 . S
C2022 C2025 1.403 . S
C2023 C2020 1.403 . S
C2023 C2024 1.524 . S
C2023 C2027 1.400 . S
C2024 H2009 0.960 . S
C2024 H2010 0.960 . S
C2024 H2011 0.960 . S
C2024 C2023 1.524 . S
C2025 C2022 1.403 . S
C2025 C2026 1.392 . S
C2025 C2029 1.495 . S
C2026 C2025 1.392 . S
C2026 C2027 1.385 . S
C2026 C2028 1.478 . S
C2027 H2021 0.930 . S
C2027 C2023 1.400 . S
C2027 C2026 1.385 . S
C2028 C2026 1.478 . S
C2028 C2030 1.381 . S
C2028 C2034 1.383 . S
C2029 C2025 1.495 . S
C2029 H2035 0.959 . S
C2029 H2036 0.961 . S
C2029 H2037 0.960 . S
C2030 C2028 1.381 . S
C2030 C2031 1.394 . S
C2030 H2038 0.930 . S
C2031 C2030 1.394 . S
C2031 C2032 1.383 . S
C2031 H2039 0.929 . S
C2032 C2031 1.383 . S
C2032 C2033 1.377 . S
C2033 H2017 0.930 . S
C2033 C2032 1.377 . S
C2033 C2034 1.379 . S
C2034 H2018 0.931 . S
C2034 C2028 1.383 . S
C2034 C2033 1.379 . S
H2035 C2029 0.959 . S
H2036 C2029 0.961 . S
H2037 C2029 0.960 . S
H2038 C2030 0.930 . S
H2039 C2031 0.929 . S
H2040 C2048 0.929 . S
H2041 C2050 0.930 . S
H2042 C2052 0.930 . S
H2043 C2055 0.929 . S
H2044 C2058 0.930 . S
H2045 C2060 0.960 . S
H2046 C2060 0.960 . S
H2047 C2060 0.960 . S
C2048 H2040 0.929 . S
C2048 C2049 1.377 . S
C2048 C2050 1.384 . S
C2049 C2048 1.377 . S
C2049 C2055 1.390 . S
C2050 H2041 0.930 . S
C2050 C2048 1.384 . S
C2050 C2051 1.372 . S
C2051 C2050 1.372 . S
C2051 C2052 1.400 . S
C2051 C2056 1.490 . S
C2052 H2042 0.930 . S
C2052 C2051 1.400 . S
C2052 C2055 1.386 . S
H2053 C2069 0.930 . S
H2054 C2070 0.931 . S
C2055 H2043 0.929 . S
C2055 C2049 1.390 . S
C2055 C2052 1.386 . S
C2056 C2051 1.490 . S
C2056 C2058 1.395 . S
C2056 C2059 1.403 . S
H2057 C2063 0.930 . S
C2058 H2044 0.930 . S
C2058 C2056 1.395 . S
C2058 C2061 1.403 . S
C2059 C2056 1.403 . S
C2059 C2060 1.524 . S
C2059 C2063 1.400 . S
C2060 H2045 0.960 . S
C2060 H2046 0.960 . S
C2060 H2047 0.960 . S
C2060 C2059 1.524 . S
C2061 C2058 1.403 . S
C2061 C2062 1.392 . S
C2061 C2065 1.495 . S
C2062 C2061 1.392 . S
C2062 C2063 1.385 . S
C2062 C2064 1.478 . S
C2063 H2057 0.930 . S
C2063 C2059 1.400 . S
C2063 C2062 1.385 . S
C2064 C2062 1.478 . S
C2064 C2066 1.381 . S
C2064 C2070 1.383 . S
C2065 C2061 1.495 . S
C2065 H2071 0.959 . S
C2065 H2072 0.961 . S
C2065 H2073 0.960 . S
C2066 C2064 1.381 . S
C2066 C2067 1.394 . S
C2066 H2074 0.930 . S
C2067 C2066 1.394 . S
C2067 C2068 1.383 . S
C2067 H2075 0.929 . S
C2068 C2067 1.383 . S
C2068 C2069 1.377 . S
C2069 H2053 0.930 . S
C2069 C2068 1.377 . S
C2069 C2070 1.379 . S
C2070 H2054 0.931 . S
C2070 C2064 1.383 . S
C2070 C2069 1.379 . S
H2071 C2065 0.959 . S
H2072 C2065 0.961 . S
H2073 C2065 0.960 . S
H2074 C2066 0.930 . S
H2075 C2067 0.929 . S
H2076 C2084 0.929 . S
H2077 C2086 0.930 . S
H2078 C2088 0.930 . S
H2079 C2091 0.929 . S
H2080 C2094 0.930 . S
H2081 C2096 0.960 . S
H2082 C2096 0.960 . S
H2083 C2096 0.960 . S
C2084 H2076 0.929 . S
C2084 C2085 1.377 . S
C2084 C2086 1.384 . S
C2085 C2084 1.377 . S
C2085 C2091 1.390 . S
C2086 H2077 0.930 . S
C2086 C2084 1.384 . S
C2086 C2087 1.372 . S
C2087 C2086 1.372 . S
C2087 C2088 1.400 . S
C2087 C2092 1.490 . S
C2088 H2078 0.930 . S
C2088 C2087 1.400 . S
C2088 C2091 1.386 . S
H2089 C2105 0.930 . S
H2090 C2106 0.931 . S
C2091 H2079 0.929 . S
C2091 C2085 1.390 . S
C2091 C2088 1.386 . S
C2092 C2087 1.490 . S
C2092 C2094 1.395 . S
C2092 C2095 1.403 . S
H2093 C2099 0.930 . S
C2094 H2080 0.930 . S
C2094 C2092 1.395 . S
C2094 C2097 1.403 . S
C2095 C2092 1.403 . S
C2095 C2096 1.524 . S
C2095 C2099 1.400 . S
C2096 H2081 0.960 . S
C2096 H2082 0.960 . S
C2096 H2083 0.960 . S
C2096 C2095 1.524 . S
C2097 C2094 1.403 . S
C2097 C2098 1.392 . S
C2097 C2101 1.495 . S
C2098 C2097 1.392 . S
C2098 C2099 1.385 . S
C2098 C2100 1.478 . S
C2099 H2093 0.930 . S
C2099 C2095 1.400 . S
C2099 C2098 1.385 . S
C2100 C2098 1.478 . S
C2100 C2102 1.381 . S
C2100 C2106 1.383 . S
C2101 C2097 1.495 . S
C2101 H2107 0.959 . S
C2101 H2108 0.961 . S
C2101 H2109 0.960 . S
C2102 C2100 1.381 . S
C2102 C2103 1.394 . S
C2102 H2110 0.930 . S
C2103 C2102 1.394 . S
C2103 C2104 1.383 . S
C2103 H2111 0.929 . S
C2104 C2103 1.383 . S
C2104 C2105 1.377 . S
C2105 H2089 0.930 . S
C2105 C2104 1.377 . S
C2105 C2106 1.379 . S
C2106 H2090 0.931 . S
C2106 C2100 1.383 . S
C2106 C2105 1.379 . S
H2107 C2101 0.959 . S
H2108 C2101 0.961 . S
H2109 C2101 0.960 . S
H2110 C2102 0.930 . S
H2111 C2103 0.929 . S
H2112 C2120 0.929 . S
H2113 C2122 0.930 . S
H2114 C2124 0.930 . S
H2115 C2127 0.929 . S
H2116 C2130 0.930 . S
H2117 C2132 0.960 . S
H2118 C2132 0.960 . S
H2119 C2132 0.960 . S
C2120 H2112 0.929 . S
C2120 C2121 1.377 . S
C2120 C2122 1.384 . S
C2121 C2120 1.377 . S
C2121 C2127 1.390 . S
C2122 H2113 0.930 . S
C2122 C2120 1.384 . S
C2122 C2123 1.372 . S
C2123 C2122 1.372 . S
C2123 C2124 1.400 . S
C2123 C2128 1.490 . S
C2124 H2114 0.930 . S
C2124 C2123 1.400 . S
C2124 C2127 1.386 . S
H2125 C2141 0.930 1_545 S
H2126 C2142 0.931 . S
C2127 H2115 0.929 . S
C2127 C2121 1.390 . S
C2127 C2124 1.386 . S
C2128 C2123 1.490 . S
C2128 C2130 1.395 . S
C2128 C2131 1.403 . S
H2129 C2135 0.930 . S
C2130 H2116 0.930 . S
C2130 C2128 1.395 . S
C2130 C2133 1.403 . S
C2131 C2128 1.403 . S
C2131 C2132 1.524 . S
C2131 C2135 1.400 . S
C2132 H2117 0.960 . S
C2132 H2118 0.960 . S
C2132 H2119 0.960 . S
C2132 C2131 1.524 . S
C2133 C2130 1.403 . S
C2133 C2134 1.392 . S
C2133 C2137 1.495 . S
C2134 C2133 1.392 . S
C2134 C2135 1.385 . S
C2134 C2136 1.478 . S
C2135 H2129 0.930 . S
C2135 C2131 1.400 . S
C2135 C2134 1.385 . S
C2136 C2134 1.478 . S
C2136 C2138 1.381 . S
C2136 C2142 1.383 . S
C2137 C2133 1.495 . S
C2137 H2143 0.959 . S
C2137 H2144 0.961 . S
C2137 H2145 0.960 . S
C2138 C2136 1.381 . S
C2138 C2139 1.394 . S
C2138 H2146 0.930 . S
C2139 C2138 1.394 . S
C2139 C2140 1.383 . S
C2139 H2147 0.929 . S
C2140 C2139 1.383 . S
C2140 C2141 1.377 . S
C2141 H2125 0.930 1_565 S
C2141 C2140 1.377 . S
C2141 C2142 1.379 . S
C2142 H2126 0.931 . S
C2142 C2136 1.383 . S
C2142 C2141 1.379 . S
H2143 C2137 0.959 . S
H2144 C2137 0.961 . S
H2145 C2137 0.960 . S
H2146 C2138 0.930 . S
H2147 C2139 0.929 . S
H2148 C2156 0.929 . S
H2149 C2158 0.930 . S
H2150 C2160 0.930 . S
H2151 C2163 0.929 . S
H2152 C2166 0.930 . S
H2153 C2168 0.960 . S
H2154 C2168 0.960 . S
H2155 C2168 0.960 . S
C2156 H2148 0.929 . S
C2156 C2157 1.377 . S
C2156 C2158 1.384 . S
C2157 C2156 1.377 . S
C2157 C2163 1.390 . S
C2158 H2149 0.930 . S
C2158 C2156 1.384 . S
C2158 C2159 1.372 . S
C2159 C2158 1.372 . S
C2159 C2160 1.400 . S
C2159 C2164 1.490 . S
C2160 H2150 0.930 . S
C2160 C2159 1.400 . S
C2160 C2163 1.386 . S
H2161 C2177 0.930 . S
H2162 C2178 0.931 . S
C2163 H2151 0.929 . S
C2163 C2157 1.390 . S
C2163 C2160 1.386 . S
C2164 C2159 1.490 . S
C2164 C2166 1.395 . S
C2164 C2167 1.403 . S
H2165 C2171 0.930 . S
C2166 H2152 0.930 . S
C2166 C2164 1.395 . S
C2166 C2169 1.403 . S
C2167 C2164 1.403 . S
C2167 C2168 1.524 . S
C2167 C2171 1.400 . S
C2168 H2153 0.960 . S
C2168 H2154 0.960 . S
C2168 H2155 0.960 . S
C2168 C2167 1.524 . S
C2169 C2166 1.403 . S
C2169 C2170 1.392 . S
C2169 C2173 1.495 . S
C2170 C2169 1.392 . S
C2170 C2171 1.385 . S
C2170 C2172 1.478 . S
C2171 H2165 0.930 . S
C2171 C2167 1.400 . S
C2171 C2170 1.385 . S
C2172 C2170 1.478 . S
C2172 C2174 1.381 . S
C2172 C2178 1.383 . S
C2173 C2169 1.495 . S
C2173 H2179 0.959 . S
C2173 H2180 0.961 . S
C2173 H2181 0.960 . S
C2174 C2172 1.381 . S
C2174 C2175 1.394 . S
C2174 H2182 0.930 . S
C2175 C2174 1.394 . S
C2175 C2176 1.383 . S
C2175 H2183 0.929 . S
C2176 C2175 1.383 . S
C2176 C2177 1.377 . S
C2177 H2161 0.930 . S
C2177 C2176 1.377 . S
C2177 C2178 1.379 . S
C2178 H2162 0.931 . S
C2178 C2172 1.383 . S
C2178 C2177 1.379 . S
H2179 C2173 0.959 . S
H2180 C2173 0.961 . S
H2181 C2173 0.960 . S
H2182 C2174 0.930 . S
H2183 C2175 0.929 . S
H2184 C2192 0.929 . S
H2185 C2194 0.930 . S
H2186 C2196 0.930 . S
H2187 C2199 0.929 . S
H2188 C2202 0.930 . S
H2189 C2204 0.960 . S
H2190 C2204 0.960 . S
H2191 C2204 0.960 . S
C2192 H2184 0.929 . S
C2192 C2193 1.377 . S
C2192 C2194 1.384 . S
C2193 C2192 1.377 . S
C2193 C2199 1.390 . S
C2194 H2185 0.930 . S
C2194 C2192 1.384 . S
C2194 C2195 1.372 . S
C2195 C2194 1.372 . S
C2195 C2196 1.400 . S
C2195 C2200 1.490 . S
C2196 H2186 0.930 . S
C2196 C2195 1.400 . S
C2196 C2199 1.386 . S
H2197 C2213 0.930 . S
H2198 C2214 0.931 . S
C2199 H2187 0.929 . S
C2199 C2193 1.390 . S
C2199 C2196 1.386 . S
C2200 C2195 1.490 . S
C2200 C2202 1.395 . S
C2200 C2203 1.403 . S
H2201 C2207 0.930 . S
C2202 H2188 0.930 . S
C2202 C2200 1.395 . S
C2202 C2205 1.403 . S
C2203 C2200 1.403 . S
C2203 C2204 1.524 . S
C2203 C2207 1.400 . S
C2204 H2189 0.960 . S
C2204 H2190 0.960 . S
C2204 H2191 0.960 . S
C2204 C2203 1.524 . S
C2205 C2202 1.403 . S
C2205 C2206 1.392 . S
C2205 C2209 1.495 . S
C2206 C2205 1.392 . S
C2206 C2207 1.385 . S
C2206 C2208 1.478 . S
C2207 H2201 0.930 . S
C2207 C2203 1.400 . S
C2207 C2206 1.385 . S
C2208 C2206 1.478 . S
C2208 C2210 1.381 . S
C2208 C2214 1.383 . S
C2209 C2205 1.495 . S
C2209 H2215 0.959 . S
C2209 H2216 0.961 . S
C2209 H2217 0.960 . S
C2210 C2208 1.381 . S
C2210 C2211 1.394 . S
C2210 H2218 0.930 . S
C2211 C2210 1.394 . S
C2211 C2212 1.383 . S
C2211 H2219 0.929 . S
C2212 C2211 1.383 . S
C2212 C2213 1.377 . S
C2213 H2197 0.930 . S
C2213 C2212 1.377 . S
C2213 C2214 1.379 . S
C2214 H2198 0.931 . S
C2214 C2208 1.383 . S
C2214 C2213 1.379 . S
H2215 C2209 0.959 . S
H2216 C2209 0.961 . S
H2217 C2209 0.960 . S
H2218 C2210 0.930 . S
H2219 C2211 0.929 . S
H2220 C2228 0.929 . S
H2221 C2230 0.930 . S
H2222 C2232 0.930 . S
H2223 C2235 0.929 1_565 S
H2224 C2238 0.930 . S
H2225 C2240 0.960 . S
H2226 C2240 0.960 . S
H2227 C2240 0.960 . S
C2228 H2220 0.929 . S
C2228 C2229 1.377 . S
C2228 C2230 1.384 . S
C2229 C2228 1.377 . S
C2229 C2235 1.390 . S
C2230 H2221 0.930 . S
C2230 C2228 1.384 . S
C2230 C2231 1.372 . S
C2231 C2230 1.372 . S
C2231 C2232 1.400 . S
C2231 C2236 1.490 . S
C2232 H2222 0.930 . S
C2232 C2231 1.400 . S
C2232 C2235 1.386 . S
H2233 C2249 0.930 . S
H2234 C2250 0.931 . S
C2235 H2223 0.929 1_545 S
C2235 C2229 1.390 . S
C2235 C2232 1.386 . S
C2236 C2231 1.490 . S
C2236 C2238 1.395 . S
C2236 C2239 1.403 . S
H2237 C2243 0.930 . S
C2238 H2224 0.930 . S
C2238 C2236 1.395 . S
C2238 C2241 1.403 . S
C2239 C2236 1.403 . S
C2239 C2240 1.524 . S
C2239 C2243 1.400 . S
C2240 H2225 0.960 . S
C2240 H2226 0.960 . S
C2240 H2227 0.960 . S
C2240 C2239 1.524 . S
C2241 C2238 1.403 . S
C2241 C2242 1.392 . S
C2241 C2245 1.495 . S
C2242 C2241 1.392 . S
C2242 C2243 1.385 . S
C2242 C2244 1.478 . S
C2243 H2237 0.930 . S
C2243 C2239 1.400 . S
C2243 C2242 1.385 . S
C2244 C2242 1.478 . S
C2244 C2246 1.381 . S
C2244 C2250 1.383 . S
C2245 C2241 1.495 . S
C2245 H2251 0.959 . S
C2245 H2252 0.961 . S
C2245 H2253 0.960 . S
C2246 C2244 1.381 . S
C2246 C2247 1.394 . S
C2246 H2254 0.930 . S
C2247 C2246 1.394 . S
C2247 C2248 1.383 . S
C2247 H2255 0.929 . S
C2248 C2247 1.383 . S
C2248 C2249 1.377 . S
C2249 H2233 0.930 . S
C2249 C2248 1.377 . S
C2249 C2250 1.379 . S
C2250 H2234 0.931 . S
C2250 C2244 1.383 . S
C2250 C2249 1.379 . S
H2251 C2245 0.959 . S
H2252 C2245 0.961 . S
H2253 C2245 0.960 . S
H2254 C2246 0.930 . S
H2255 C2247 0.929 . S
H2256 C2264 0.929 . S
H2257 C2266 0.930 . S
H2258 C2268 0.930 1_655 S
H2259 C2271 0.929 . S
H2260 C2274 0.930 . S
H2261 C2276 0.960 . S
H2262 C2276 0.960 . S
H2263 C2276 0.960 . S
C2264 H2256 0.929 . S
C2264 C2265 1.377 . S
C2264 C2266 1.384 . S
C2265 C2264 1.377 . S
C2265 C2271 1.390 . S
C2266 H2257 0.930 . S
C2266 C2264 1.384 . S
C2266 C2267 1.372 . S
C2267 C2266 1.372 . S
C2267 C2268 1.400 . S
C2267 C2272 1.490 . S
C2268 H2258 0.930 1_455 S
C2268 C2267 1.400 . S
C2268 C2271 1.386 . S
H2269 C2285 0.930 . S
H2270 C2286 0.931 . S
C2271 H2259 0.929 . S
C2271 C2265 1.390 . S
C2271 C2268 1.386 . S
C2272 C2267 1.490 . S
C2272 C2274 1.395 1_455 S
C2272 C2275 1.403 . S
H2273 C2279 0.927 1_455 S
C2274 H2260 0.930 . S
C2274 C2272 1.395 1_655 S
C2274 C2277 1.403 . S
C2275 C2272 1.403 . S
C2275 C2276 1.524 . S
C2275 C2279 1.400 1_455 S
C2276 H2261 0.960 . S
C2276 H2262 0.960 . S
C2276 H2263 0.960 . S
C2276 C2275 1.524 . S
C2277 C2274 1.403 . S
C2277 C2278 1.392 . S
C2277 C2281 1.495 . S
C2278 C2277 1.392 . S
C2278 C2279 1.385 . S
C2278 C2280 1.478 . S
C2279 H2273 0.927 1_655 S
C2279 C2275 1.400 1_655 S
C2279 C2278 1.385 . S
C2280 C2278 1.478 . S
C2280 C2282 1.381 . S
C2280 C2286 1.383 . S
C2281 C2277 1.495 . S
C2281 H2287 0.959 . S
C2281 H2288 0.961 . S
C2281 H2289 0.960 . S
C2282 C2280 1.381 . S
C2282 C2283 1.394 . S
C2282 H2290 0.930 . S
C2283 C2282 1.394 . S
C2283 C2284 1.383 . S
C2283 H2291 0.929 . S
C2284 C2283 1.383 . S
C2284 C2285 1.377 . S
C2285 H2269 0.930 . S
C2285 C2284 1.377 . S
C2285 C2286 1.379 . S
C2286 H2270 0.931 . S
C2286 C2280 1.383 . S
C2286 C2285 1.379 . S
H2287 C2281 0.959 . S
H2288 C2281 0.961 . S
H2289 C2281 0.960 . S
H2290 C2282 0.930 . S
H2291 C2283 0.929 . S
H2292 C2300 0.929 . S
H2293 C2302 0.930 . S
H2294 C2304 0.930 . S
H2295 C2307 0.929 . S
H2296 C2310 0.930 . S
H2297 C2312 0.960 . S
H2298 C2312 0.960 . S
H2299 C2312 0.960 . S
C2300 H2292 0.929 . S
C2300 C2301 1.377 . S
C2300 C2302 1.384 . S
C2301 C2300 1.377 . S
C2301 C2307 1.390 . S
C2302 H2293 0.930 . S
C2302 C2300 1.384 . S
C2302 C2303 1.372 . S
C2303 C2302 1.372 . S
C2303 C2304 1.400 . S
C2303 C2308 1.490 . S
C2304 H2294 0.930 . S
C2304 C2303 1.400 . S
C2304 C2307 1.386 . S
H2305 C2321 0.930 . S
H2306 C2322 0.931 . S
C2307 H2295 0.929 . S
C2307 C2301 1.390 . S
C2307 C2304 1.386 . S
C2308 C2303 1.490 . S
C2308 C2310 1.395 . S
C2308 C2311 1.403 . S
H2309 C2315 0.930 . S
C2310 H2296 0.930 . S
C2310 C2308 1.395 . S
C2310 C2313 1.403 . S
C2311 C2308 1.403 . S
C2311 C2312 1.524 . S
C2311 C2315 1.400 . S
C2312 H2297 0.960 . S
C2312 H2298 0.960 . S
C2312 H2299 0.960 . S
C2312 C2311 1.524 . S
C2313 C2310 1.403 . S
C2313 C2314 1.392 . S
C2313 C2317 1.495 . S
C2314 C2313 1.392 . S
C2314 C2315 1.385 . S
C2314 C2316 1.478 . S
C2315 H2309 0.930 . S
C2315 C2311 1.400 . S
C2315 C2314 1.385 . S
C2316 C2314 1.478 . S
C2316 C2318 1.381 . S
C2316 C2322 1.383 . S
C2317 C2313 1.495 . S
C2317 H2323 0.959 . S
C2317 H2324 0.961 . S
C2317 H2325 0.960 . S
C2318 C2316 1.381 . S
C2318 C2319 1.394 . S
C2318 H2326 0.930 . S
C2319 C2318 1.394 . S
C2319 C2320 1.383 . S
C2319 H2327 0.929 . S
C2320 C2319 1.383 . S
C2320 C2321 1.377 . S
C2321 H2305 0.930 . S
C2321 C2320 1.377 . S
C2321 C2322 1.379 . S
C2322 H2306 0.931 . S
C2322 C2316 1.383 . S
C2322 C2321 1.379 . S
H2323 C2317 0.959 . S
H2324 C2317 0.961 . S
H2325 C2317 0.960 . S
H2326 C2318 0.930 . S
H2327 C2319 0.929 . S
H2328 C2336 0.929 . S
H2329 C2338 0.930 . S
H2330 C2340 0.930 . S
H2331 C2343 0.929 . S
H2332 C2346 0.930 . S
H2333 C2348 0.960 . S
H2334 C2348 0.960 . S
H2335 C2348 0.960 . S
C2336 H2328 0.929 . S
C2336 C2337 1.377 . S
C2336 C2338 1.384 . S
C2337 C2336 1.377 . S
C2337 C2343 1.390 . S
C2338 H2329 0.930 . S
C2338 C2336 1.384 . S
C2338 C2339 1.372 . S
C2339 C2338 1.372 . S
C2339 C2340 1.400 . S
C2339 C2344 1.490 . S
C2340 H2330 0.930 . S
C2340 C2339 1.400 . S
C2340 C2343 1.386 . S
H2341 C2357 0.930 . S
H2342 C2358 0.931 . S
C2343 H2331 0.929 . S
C2343 C2337 1.390 . S
C2343 C2340 1.386 . S
C2344 C2339 1.490 . S
C2344 C2346 1.395 . S
C2344 C2347 1.403 . S
H2345 C2351 0.930 . S
C2346 H2332 0.930 . S
C2346 C2344 1.395 . S
C2346 C2349 1.403 . S
C2347 C2344 1.403 . S
C2347 C2348 1.524 . S
C2347 C2351 1.400 . S
C2348 H2333 0.960 . S
C2348 H2334 0.960 . S
C2348 H2335 0.960 . S
C2348 C2347 1.524 . S
C2349 C2346 1.403 . S
C2349 C2350 1.392 . S
C2349 C2353 1.495 . S
C2350 C2349 1.392 . S
C2350 C2351 1.385 . S
C2350 C2352 1.478 . S
C2351 H2345 0.930 . S
C2351 C2347 1.400 . S
C2351 C2350 1.385 . S
C2352 C2350 1.478 . S
C2352 C2354 1.381 . S
C2352 C2358 1.383 . S
C2353 C2349 1.495 . S
C2353 H2359 0.959 . S
C2353 H2360 0.961 . S
C2353 H2361 0.960 . S
C2354 C2352 1.381 . S
C2354 C2355 1.394 . S
C2354 H2362 0.930 . S
C2355 C2354 1.394 . S
C2355 C2356 1.383 . S
C2355 H2363 0.929 . S
C2356 C2355 1.383 . S
C2356 C2357 1.377 . S
C2357 H2341 0.930 . S
C2357 C2356 1.377 . S
C2357 C2358 1.379 . S
C2358 H2342 0.931 . S
C2358 C2352 1.383 . S
C2358 C2357 1.379 . S
H2359 C2353 0.959 . S
H2360 C2353 0.961 . S
H2361 C2353 0.960 . S
H2362 C2354 0.930 . S
H2363 C2355 0.929 . S
H2364 C2372 0.929 . S
H2365 C2374 0.930 1_655 S
H2366 C2376 0.930 . S
H2367 C2379 0.929 . S
H2368 C2382 0.929 1_655 S
H2369 C2384 0.960 . S
H2370 C2384 0.960 . S
H2371 C2384 0.960 . S
C2372 H2364 0.929 . S
C2372 C2373 1.377 . S
C2372 C2374 1.384 . S
C2373 C2372 1.377 . S
C2373 C2379 1.390 . S
C2374 H2365 0.930 1_455 S
C2374 C2372 1.384 . S
C2374 C2375 1.372 . S
C2375 C2374 1.372 . S
C2375 C2376 1.400 . S
C2375 C2380 1.490 . S
C2376 H2366 0.930 . S
C2376 C2375 1.400 . S
C2376 C2379 1.386 . S
H2377 C2393 0.930 1_455 S
H2378 C2394 0.923 1_455 S
C2379 H2367 0.929 . S
C2379 C2373 1.390 . S
C2379 C2376 1.386 . S
C2380 C2375 1.490 . S
C2380 C2382 1.408 . S
C2380 C2383 1.403 . S
H2381 C2387 0.930 . S
C2382 H2368 0.929 1_455 S
C2382 C2380 1.408 . S
C2382 C2385 1.392 1_455 S
C2383 C2380 1.403 . S
C2383 C2384 1.524 . S
C2383 C2387 1.400 . S
C2384 H2369 0.960 . S
C2384 H2370 0.960 . S
C2384 H2371 0.960 . S
C2384 C2383 1.524 . S
C2385 C2382 1.392 1_655 S
C2385 C2386 1.392 . S
C2385 C2389 1.495 . S
C2386 C2385 1.392 . S
C2386 C2387 1.385 1_655 S
C2386 C2388 1.478 . S
C2387 H2381 0.930 . S
C2387 C2383 1.400 . S
C2387 C2386 1.385 1_455 S
C2388 C2386 1.478 . S
C2388 C2390 1.381 . S
C2388 C2394 1.388 . S
C2389 C2385 1.495 . S
C2389 H2395 0.959 . S
C2389 H2396 0.961 . S
C2389 H2397 0.960 . S
C2390 C2388 1.381 . S
C2390 C2391 1.394 . S
C2390 H2398 0.930 . S
C2391 C2390 1.394 . S
C2391 C2392 1.383 . S
C2391 H2399 0.929 . S
C2392 C2391 1.383 . S
C2392 C2393 1.377 . S
C2393 H2377 0.930 1_655 S
C2393 C2392 1.377 . S
C2393 C2394 1.382 . S
C2394 H2378 0.923 1_655 S
C2394 C2388 1.388 . S
C2394 C2393 1.382 . S
H2395 C2389 0.959 . S
H2396 C2389 0.961 . S
H2397 C2389 0.960 . S
H2398 C2390 0.930 . S
H2399 C2391 0.929 . S
H2400 C2408 0.929 . S
H2401 C2410 0.930 . S
H2402 C2412 0.930 . S
H2403 C2415 0.929 . S
H2404 C2418 0.930 . S
H2405 C2420 0.960 . S
H2406 C2420 0.960 . S
H2407 C2420 0.960 . S
C2408 H2400 0.929 . S
C2408 C2409 1.377 . S
C2408 C2410 1.384 . S
C2409 C2408 1.377 . S
C2409 C2415 1.390 . S
C2410 H2401 0.930 . S
C2410 C2408 1.384 . S
C2410 C2411 1.372 . S
C2411 C2410 1.372 . S
C2411 C2412 1.400 . S
C2411 C2416 1.490 . S
C2412 H2402 0.930 . S
C2412 C2411 1.400 . S
C2412 C2415 1.386 . S
H2413 C2429 0.930 . S
H2414 C2430 0.931 . S
C2415 H2403 0.929 . S
C2415 C2409 1.390 . S
C2415 C2412 1.386 . S
C2416 C2411 1.490 . S
C2416 C2418 1.395 . S
C2416 C2419 1.403 1_545 S
H2417 C2423 0.930 . S
C2418 H2404 0.930 . S
C2418 C2416 1.395 . S
C2418 C2421 1.403 . S
C2419 C2416 1.403 1_565 S
C2419 C2420 1.524 . S
C2419 C2423 1.400 . S
C2420 H2405 0.960 . S
C2420 H2406 0.960 . S
C2420 H2407 0.960 . S
C2420 C2419 1.524 . S
C2421 C2418 1.403 . S
C2421 C2422 1.392 1_545 S
C2421 C2425 1.495 . S
C2422 C2421 1.392 1_565 S
C2422 C2423 1.385 . S
C2422 C2424 1.478 . S
C2423 H2417 0.930 . S
C2423 C2419 1.400 . S
C2423 C2422 1.385 . S
C2424 C2422 1.478 . S
C2424 C2426 1.381 . S
C2424 C2430 1.383 . S
C2425 C2421 1.495 . S
C2425 H2431 0.959 . S
C2425 H2432 0.961 . S
C2425 H2433 0.960 . S
C2426 C2424 1.381 . S
C2426 C2427 1.394 . S
C2426 H2434 0.930 . S
C2427 C2426 1.394 . S
C2427 C2428 1.383 . S
C2427 H2435 0.929 . S
C2428 C2427 1.383 . S
C2428 C2429 1.377 . S
C2429 H2413 0.930 . S
C2429 C2428 1.377 . S
C2429 C2430 1.379 . S
C2430 H2414 0.931 . S
C2430 C2424 1.383 . S
C2430 C2429 1.379 . S
H2431 C2425 0.959 . S
H2432 C2425 0.961 . S
H2433 C2425 0.960 . S
H2434 C2426 0.930 . S
H2435 C2427 0.929 . S
H2436 C2444 0.929 . S
H2437 C2446 0.930 . S
H2438 C2448 0.930 . S
H2439 C2451 0.929 . S
H2440 C2454 0.930 . S
H2441 C2456 0.960 . S
H2442 C2456 0.960 . S
H2443 C2456 0.960 . S
C2444 H2436 0.929 . S
C2444 C2445 1.377 . S
C2444 C2446 1.384 . S
C2445 C2444 1.377 . S
C2445 C2451 1.390 . S
C2446 H2437 0.930 . S
C2446 C2444 1.384 . S
C2446 C2447 1.372 . S
C2447 C2446 1.372 . S
C2447 C2448 1.400 . S
C2447 C2452 1.490 . S
C2448 H2438 0.930 . S
C2448 C2447 1.400 . S
C2448 C2451 1.386 . S
H2449 C2465 0.930 . S
H2450 C2466 0.931 . S
C2451 H2439 0.929 . S
C2451 C2445 1.390 . S
C2451 C2448 1.386 . S
C2452 C2447 1.490 . S
C2452 C2454 1.395 1_545 S
C2452 C2455 1.403 . S
H2453 C2459 0.930 . S
C2454 H2440 0.930 . S
C2454 C2452 1.395 1_565 S
C2454 C2457 1.403 . S
C2455 C2452 1.403 . S
C2455 C2456 1.524 . S
C2455 C2459 1.400 . S
C2456 H2441 0.960 . S
C2456 H2442 0.960 . S
C2456 H2443 0.960 . S
C2456 C2455 1.524 . S
C2457 C2454 1.403 . S
C2457 C2458 1.392 . S
C2457 C2461 1.495 . S
C2458 C2457 1.392 . S
C2458 C2459 1.385 1_565 S
C2458 C2460 1.478 . S
C2459 H2453 0.930 . S
C2459 C2455 1.400 . S
C2459 C2458 1.385 1_545 S
C2460 C2458 1.478 . S
C2460 C2462 1.381 . S
C2460 C2466 1.383 . S
C2461 C2457 1.495 . S
C2461 H2467 0.959 . S
C2461 H2468 0.961 . S
C2461 H2469 0.960 . S
C2462 C2460 1.381 . S
C2462 C2463 1.394 . S
C2462 H2470 0.930 . S
C2463 C2462 1.394 . S
C2463 C2464 1.383 . S
C2463 H2471 0.929 . S
C2464 C2463 1.383 . S
C2464 C2465 1.377 . S
C2465 H2449 0.930 . S
C2465 C2464 1.377 . S
C2465 C2466 1.379 . S
C2466 H2450 0.931 . S
C2466 C2460 1.383 . S
C2466 C2465 1.379 . S
H2467 C2461 0.959 . S
H2468 C2461 0.961 . S
H2469 C2461 0.960 . S
H2470 C2462 0.930 . S
H2471 C2463 0.929 . S
H2472 C2480 0.929 . S
H2473 C2482 0.930 . S
H2474 C2484 0.930 . S
H2475 C2487 0.929 . S
H2476 C2490 0.930 . S
H2477 C2492 0.960 . S
H2478 C2492 0.960 . S
H2479 C2492 0.960 . S
C2480 H2472 0.929 . S
C2480 C2481 1.377 . S
C2480 C2482 1.384 . S
C2481 C2480 1.377 . S
C2481 C2487 1.390 . S
C2482 H2473 0.930 . S
C2482 C2480 1.384 . S
C2482 C2483 1.372 . S
C2483 C2482 1.372 . S
C2483 C2484 1.400 . S
C2483 C2488 1.490 . S
C2484 H2474 0.930 . S
C2484 C2483 1.400 . S
C2484 C2487 1.386 . S
H2485 C2501 0.930 . S
H2486 C2502 0.931 . S
C2487 H2475 0.929 . S
C2487 C2481 1.390 . S
C2487 C2484 1.386 . S
C2488 C2483 1.490 . S
C2488 C2490 1.395 . S
C2488 C2491 1.403 . S
H2489 C2495 0.930 . S
C2490 H2476 0.930 . S
C2490 C2488 1.395 . S
C2490 C2493 1.403 . S
C2491 C2488 1.403 . S
C2491 C2492 1.524 . S
C2491 C2495 1.400 . S
C2492 H2477 0.960 . S
C2492 H2478 0.960 . S
C2492 H2479 0.960 . S
C2492 C2491 1.524 . S
C2493 C2490 1.403 . S
C2493 C2494 1.392 . S
C2493 C2497 1.495 . S
C2494 C2493 1.392 . S
C2494 C2495 1.385 . S
C2494 C2496 1.478 . S
C2495 H2489 0.930 . S
C2495 C2491 1.400 . S
C2495 C2494 1.385 . S
C2496 C2494 1.478 . S
C2496 C2498 1.381 . S
C2496 C2502 1.383 . S
C2497 C2493 1.495 . S
C2497 H2503 0.959 . S
C2497 H2504 0.961 . S
C2497 H2505 0.960 . S
C2498 C2496 1.381 . S
C2498 C2499 1.394 . S
C2498 H2506 0.930 . S
C2499 C2498 1.394 . S
C2499 C2500 1.383 . S
C2499 H2507 0.929 . S
C2500 C2499 1.383 . S
C2500 C2501 1.377 . S
C2501 H2485 0.930 . S
C2501 C2500 1.377 . S
C2501 C2502 1.379 . S
C2502 H2486 0.931 . S
C2502 C2496 1.383 . S
C2502 C2501 1.379 . S
H2503 C2497 0.959 . S
H2504 C2497 0.961 . S
H2505 C2497 0.960 . S
H2506 C2498 0.930 . S
H2507 C2499 0.929 . S
H2508 C2516 0.929 . S
H2509 C2518 0.930 . S
H2510 C2520 0.930 . S
H2511 C2523 0.929 . S
H2512 C2526 0.930 . S
H2513 C2528 0.960 . S
H2514 C2528 0.960 . S
H2515 C2528 0.960 . S
C2516 H2508 0.929 . S
C2516 C2517 1.377 . S
C2516 C2518 1.384 . S
C2517 C2516 1.377 . S
C2517 C2523 1.390 . S
C2518 H2509 0.930 . S
C2518 C2516 1.384 . S
C2518 C2519 1.372 . S
C2519 C2518 1.372 . S
C2519 C2520 1.400 . S
C2519 C2524 1.490 . S
C2520 H2510 0.930 . S
C2520 C2519 1.400 . S
C2520 C2523 1.386 . S
H2521 C2537 0.930 . S
H2522 C2538 0.931 . S
C2523 H2511 0.929 . S
C2523 C2517 1.390 . S
C2523 C2520 1.386 . S
C2524 C2519 1.490 . S
C2524 C2526 1.395 . S
C2524 C2527 1.403 . S
H2525 C2531 0.930 . S
C2526 H2512 0.930 . S
C2526 C2524 1.395 . S
C2526 C2529 1.403 . S
C2527 C2524 1.403 . S
C2527 C2528 1.524 . S
C2527 C2531 1.400 . S
C2528 H2513 0.960 . S
C2528 H2514 0.960 . S
C2528 H2515 0.960 . S
C2528 C2527 1.524 . S
C2529 C2526 1.403 . S
C2529 C2530 1.392 . S
C2529 C2533 1.495 . S
C2530 C2529 1.392 . S
C2530 C2531 1.385 . S
C2530 C2532 1.478 . S
C2531 H2525 0.930 . S
C2531 C2527 1.400 . S
C2531 C2530 1.385 . S
C2532 C2530 1.478 . S
C2532 C2534 1.381 . S
C2532 C2538 1.383 . S
C2533 C2529 1.495 . S
C2533 H2539 0.959 . S
C2533 H2540 0.961 . S
C2533 H2541 0.960 . S
C2534 C2532 1.381 . S
C2534 C2535 1.394 . S
C2534 H2542 0.930 . S
C2535 C2534 1.394 . S
C2535 C2536 1.383 . S
C2535 H2543 0.929 . S
C2536 C2535 1.383 . S
C2536 C2537 1.377 . S
C2537 H2521 0.930 . S
C2537 C2536 1.377 . S
C2537 C2538 1.379 . S
C2538 H2522 0.931 . S
C2538 C2532 1.383 . S
C2538 C2537 1.379 . S
H2539 C2533 0.959 . S
H2540 C2533 0.961 . S
H2541 C2533 0.960 . S
H2542 C2534 0.930 . S
H2543 C2535 0.929 . S
H2544 C2552 0.929 . S
H2545 C2554 0.930 . S
H2546 C2556 0.930 1_556 S
H2547 C2559 0.929 . S
H2548 C2562 0.930 . S
H2549 C2564 0.960 . S
H2550 C2564 0.960 . S
H2551 C2564 0.960 . S
C2552 H2544 0.929 . S
C2552 C2553 1.377 . S
C2552 C2554 1.384 . S
C2553 C2552 1.377 . S
C2553 C2559 1.390 . S
C2554 H2545 0.930 . S
C2554 C2552 1.384 . S
C2554 C2555 1.372 . S
C2555 C2554 1.372 . S
C2555 C2556 1.400 . S
C2555 C2560 1.490 . S
C2556 H2546 0.930 1_554 S
C2556 C2555 1.400 . S
C2556 C2559 1.386 . S
H2557 C2573 0.930 . S
H2558 C2574 0.931 . S
C2559 H2547 0.929 . S
C2559 C2553 1.390 . S
C2559 C2556 1.386 . S
C2560 C2555 1.490 . S
C2560 C2562 1.395 . S
C2560 C2563 1.403 1_554 S
H2561 C2567 0.930 . S
C2562 H2548 0.930 . S
C2562 C2560 1.395 . S
C2562 C2565 1.403 . S
C2563 C2560 1.403 1_556 S
C2563 C2564 1.524 . S
C2563 C2567 1.400 . S
C2564 H2549 0.960 . S
C2564 H2550 0.960 . S
C2564 H2551 0.960 . S
C2564 C2563 1.524 . S
C2565 C2562 1.403 . S
C2565 C2566 1.392 1_554 S
C2565 C2569 1.495 . S
C2566 C2565 1.392 1_556 S
C2566 C2567 1.385 . S
C2566 C2568 1.478 . S
C2567 H2561 0.930 . S
C2567 C2563 1.400 . S
C2567 C2566 1.385 . S
C2568 C2566 1.478 . S
C2568 C2570 1.381 . S
C2568 C2574 1.383 . S
C2569 C2565 1.495 . S
C2569 H2575 0.959 . S
C2569 H2576 0.961 . S
C2569 H2577 0.960 . S
C2570 C2568 1.381 . S
C2570 C2571 1.394 . S
C2570 H2578 0.930 . S
C2571 C2570 1.394 . S
C2571 C2572 1.383 . S
C2571 H2579 0.957 . S
C2572 C2571 1.383 . S
C2572 C2573 1.377 . S
C2573 H2557 0.930 . S
C2573 C2572 1.377 . S
C2573 C2574 1.379 . S
C2574 H2558 0.931 . S
C2574 C2568 1.383 . S
C2574 C2573 1.379 . S
H2575 C2569 0.959 . S
H2576 C2569 0.961 . S
H2577 C2569 0.960 . S
H2578 C2570 0.930 . S
H2579 C2571 0.957 . S
H2580 C2588 0.929 . S
H2581 C2590 0.930 1_554 S
H2582 C2592 0.930 . S
H2583 C2595 0.929 . S
H2584 C2598 0.930 . S
H2585 C2600 0.960 . S
H2586 C2600 0.960 . S
H2587 C2600 0.960 . S
C2588 H2580 0.929 . S
C2588 C2589 1.377 . S
C2588 C2590 1.384 . S
C2589 C2588 1.377 . S
C2589 C2595 1.390 . S
C2590 H2581 0.930 1_556 S
C2590 C2588 1.384 . S
C2590 C2591 1.372 . S
C2591 C2590 1.372 . S
C2591 C2592 1.400 . S
C2591 C2596 1.490 . S
C2592 H2582 0.930 . S
C2592 C2591 1.400 . S
C2592 C2595 1.386 . S
H2593 C2609 0.930 . S
H2594 C2610 0.922 1_556 S
C2595 H2583 0.929 . S
C2595 C2589 1.390 . S
C2595 C2592 1.386 . S
C2596 C2591 1.490 . S
C2596 C2598 1.395 . S
C2596 C2599 1.403 1_556 S
H2597 C2603 0.930 . S
C2598 H2584 0.930 . S
C2598 C2596 1.395 . S
C2598 C2601 1.403 . S
C2599 C2596 1.403 1_554 S
C2599 C2600 1.524 . S
C2599 C2603 1.400 . S
C2600 H2585 0.960 . S
C2600 H2586 0.960 . S
C2600 H2587 0.960 . S
C2600 C2599 1.524 . S
C2601 C2598 1.403 . S
C2601 C2602 1.392 1_556 S
C2601 C2605 1.495 . S
C2602 C2601 1.392 1_554 S
C2602 C2603 1.385 . S
C2602 C2604 1.478 . S
C2603 H2597 0.930 . S
C2603 C2599 1.400 . S
C2603 C2602 1.385 . S
C2604 C2602 1.478 . S
C2604 C2606 1.381 . S
C2604 C2610 1.383 . S
C2605 C2601 1.495 . S
C2605 H2611 0.959 . S
C2605 H2612 0.961 . S
C2605 H2613 0.960 1_556 S
C2606 C2604 1.381 . S
C2606 C2607 1.394 . S
C2606 H2614 0.930 . S
C2607 C2606 1.394 . S
C2607 C2608 1.383 . S
C2607 H2615 0.929 . S
C2608 C2607 1.383 . S
C2608 C2609 1.377 . S
C2609 H2593 0.930 . S
C2609 C2608 1.377 . S
C2609 C2610 1.379 . S
C2610 H2594 0.922 1_554 S
C2610 C2604 1.383 . S
C2610 C2609 1.379 . S
H2611 C2605 0.959 . S
H2612 C2605 0.961 . S
H2613 C2605 0.960 1_554 S
H2614 C2606 0.930 . S
H2615 C2607 0.929 . S
H2616 C2624 0.929 . S
H2617 C2626 0.930 . S
H2618 C2628 0.930 . S
H2619 C2631 0.929 . S
H2620 C2634 0.930 . S
H2621 C2636 0.960 . S
H2622 C2636 0.960 . S
H2623 C2636 0.960 . S
C2624 H2616 0.929 . S
C2624 C2625 1.377 . S
C2624 C2626 1.384 . S
C2625 C2624 1.377 . S
C2625 C2631 1.390 . S
C2626 H2617 0.930 . S
C2626 C2624 1.384 . S
C2626 C2627 1.372 . S
C2627 C2626 1.372 . S
C2627 C2628 1.400 . S
C2627 C2632 1.490 . S
C2628 H2618 0.930 . S
C2628 C2627 1.400 . S
C2628 C2631 1.386 . S
H2629 C2645 0.930 . S
H2630 C2646 0.931 . S
C2631 H2619 0.929 . S
C2631 C2625 1.390 . S
C2631 C2628 1.386 . S
C2632 C2627 1.490 . S
C2632 C2634 1.395 . S
C2632 C2635 1.403 . S
H2633 C2639 0.930 . S
C2634 H2620 0.930 . S
C2634 C2632 1.395 . S
C2634 C2637 1.403 . S
C2635 C2632 1.403 . S
C2635 C2636 1.524 . S
C2635 C2639 1.400 . S
C2636 H2621 0.960 . S
C2636 H2622 0.960 . S
C2636 H2623 0.960 . S
C2636 C2635 1.524 . S
C2637 C2634 1.403 . S
C2637 C2638 1.392 . S
C2637 C2641 1.495 . S
C2638 C2637 1.392 . S
C2638 C2639 1.385 . S
C2638 C2640 1.478 . S
C2639 H2633 0.930 . S
C2639 C2635 1.400 . S
C2639 C2638 1.385 . S
C2640 C2638 1.478 . S
C2640 C2642 1.381 . S
C2640 C2646 1.383 . S
C2641 C2637 1.495 . S
C2641 H2647 0.959 . S
C2641 H2648 0.961 . S
C2641 H2649 0.960 . S
C2642 C2640 1.381 . S
C2642 C2643 1.394 . S
C2642 H2650 0.930 . S
C2643 C2642 1.394 . S
C2643 C2644 1.383 . S
C2643 H2651 0.929 . S
C2644 C2643 1.383 . S
C2644 C2645 1.377 . S
C2645 H2629 0.930 . S
C2645 C2644 1.377 . S
C2645 C2646 1.379 . S
C2646 H2630 0.931 . S
C2646 C2640 1.383 . S
C2646 C2645 1.379 . S
H2647 C2641 0.959 . S
H2648 C2641 0.961 . S
H2649 C2641 0.960 . S
H2650 C2642 0.930 . S
H2651 C2643 0.929 . S
H2652 C2660 0.929 . S
H2653 C2662 0.930 . S
H2654 C2664 0.930 . S
H2655 C2667 0.929 . S
H2656 C2670 0.930 . S
H2657 C2672 0.960 . S
H2658 C2672 0.960 . S
H2659 C2672 0.960 . S
C2660 H2652 0.929 . S
C2660 C2661 1.377 . S
C2660 C2662 1.384 . S
C2661 C2660 1.377 . S
C2661 C2667 1.390 . S
C2662 H2653 0.930 . S
C2662 C2660 1.384 . S
C2662 C2663 1.372 . S
C2663 C2662 1.372 . S
C2663 C2664 1.400 . S
C2663 C2668 1.490 . S
C2664 H2654 0.930 . S
C2664 C2663 1.400 . S
C2664 C2667 1.386 . S
H2665 C2681 0.930 . S
H2666 C2682 0.931 . S
C2667 H2655 0.929 . S
C2667 C2661 1.390 . S
C2667 C2664 1.386 . S
C2668 C2663 1.490 . S
C2668 C2670 1.395 . S
C2668 C2671 1.403 . S
H2669 C2675 0.930 . S
C2670 H2656 0.930 . S
C2670 C2668 1.395 . S
C2670 C2673 1.403 . S
C2671 C2668 1.403 . S
C2671 C2672 1.524 . S
C2671 C2675 1.400 . S
C2672 H2657 0.960 . S
C2672 H2658 0.960 . S
C2672 H2659 0.960 . S
C2672 C2671 1.524 . S
C2673 C2670 1.403 . S
C2673 C2674 1.392 . S
C2673 C2677 1.495 . S
C2674 C2673 1.392 . S
C2674 C2675 1.385 . S
C2674 C2676 1.478 . S
C2675 H2669 0.930 . S
C2675 C2671 1.400 . S
C2675 C2674 1.385 . S
C2676 C2674 1.478 . S
C2676 C2678 1.381 . S
C2676 C2682 1.383 . S
C2677 C2673 1.495 . S
C2677 H2683 0.959 . S
C2677 H2684 0.961 . S
C2677 H2685 0.960 . S
C2678 C2676 1.381 . S
C2678 C2679 1.394 . S
C2678 H2686 0.930 . S
C2679 C2678 1.394 . S
C2679 C2680 1.383 . S
C2679 H2687 0.929 . S
C2680 C2679 1.383 . S
C2680 C2681 1.377 . S
C2681 H2665 0.930 . S
C2681 C2680 1.377 . S
C2681 C2682 1.379 . S
C2682 H2666 0.931 . S
C2682 C2676 1.383 . S
C2682 C2681 1.379 . S
H2683 C2677 0.959 . S
H2684 C2677 0.961 . S
H2685 C2677 0.960 . S
H2686 C2678 0.930 . S
H2687 C2679 0.929 . S
H2688 C2696 0.929 . S
H2689 C2698 0.930 . S
H2690 C2700 0.930 . S
H2691 C2703 0.929 . S
H2692 C2706 0.930 . S
H2693 C2708 0.960 . S
H2694 C2708 0.960 . S
H2695 C2708 0.960 . S
C2696 H2688 0.929 . S
C2696 C2697 1.377 . S
C2696 C2698 1.384 . S
C2697 C2696 1.377 . S
C2697 C2703 1.390 . S
C2698 H2689 0.930 . S
C2698 C2696 1.384 . S
C2698 C2699 1.372 . S
C2699 C2698 1.372 . S
C2699 C2700 1.400 . S
C2699 C2704 1.490 . S
C2700 H2690 0.930 . S
C2700 C2699 1.400 . S
C2700 C2703 1.386 . S
H2701 C2717 0.930 . S
H2702 C2718 0.931 . S
C2703 H2691 0.929 . S
C2703 C2697 1.390 . S
C2703 C2700 1.386 . S
C2704 C2699 1.490 . S
C2704 C2706 1.395 1_655 S
C2704 C2707 1.403 . S
H2705 C2711 0.930 . S
C2706 H2692 0.930 . S
C2706 C2704 1.395 1_455 S
C2706 C2709 1.403 . S
C2707 C2704 1.403 . S
C2707 C2708 1.524 . S
C2707 C2711 1.400 . S
C2708 H2693 0.960 . S
C2708 H2694 0.960 . S
C2708 H2695 0.960 . S
C2708 C2707 1.524 . S
C2709 C2706 1.403 . S
C2709 C2710 1.392 . S
C2709 C2713 1.495 . S
C2710 C2709 1.392 . S
C2710 C2711 1.385 1_455 S
C2710 C2712 1.478 . S
C2711 H2705 0.930 . S
C2711 C2707 1.400 . S
C2711 C2710 1.385 1_655 S
C2712 C2710 1.478 . S
C2712 C2714 1.381 . S
C2712 C2718 1.383 . S
C2713 C2709 1.495 . S
C2713 H2719 0.959 . S
C2713 H2720 0.961 . S
C2713 H2721 0.960 . S
C2714 C2712 1.381 . S
C2714 C2715 1.394 . S
C2714 H2722 0.930 . S
C2715 C2714 1.394 . S
C2715 C2716 1.383 . S
C2715 H2723 0.929 . S
C2716 C2715 1.383 . S
C2716 C2717 1.377 . S
C2717 H2701 0.930 . S
C2717 C2716 1.377 . S
C2717 C2718 1.379 . S
C2718 H2702 0.931 . S
C2718 C2712 1.383 . S
C2718 C2717 1.379 . S
H2719 C2713 0.959 . S
H2720 C2713 0.961 . S
H2721 C2713 0.960 . S
H2722 C2714 0.930 . S
H2723 C2715 0.929 . S
H2724 C2732 0.929 . S
H2725 C2734 0.930 . S
H2726 C2736 0.930 . S
H2727 C2739 0.929 . S
H2728 C2742 0.930 . S
H2729 C2744 0.960 . S
H2730 C2744 0.960 . S
H2731 C2744 0.960 . S
C2732 H2724 0.929 . S
C2732 C2733 1.377 . S
C2732 C2734 1.384 . S
C2733 C2732 1.377 . S
C2733 C2739 1.390 . S
C2734 H2725 0.930 . S
C2734 C2732 1.384 . S
C2734 C2735 1.372 . S
C2735 C2734 1.372 . S
C2735 C2736 1.400 . S
C2735 C2740 1.490 . S
C2736 H2726 0.930 . S
C2736 C2735 1.400 . S
C2736 C2739 1.386 . S
H2737 C2753 0.930 . S
H2738 C2754 0.931 . S
C2739 H2727 0.929 . S
C2739 C2733 1.390 . S
C2739 C2736 1.386 . S
C2740 C2735 1.490 . S
C2740 C2742 1.395 . S
C2740 C2743 1.403 . S
H2741 C2747 0.930 . S
C2742 H2728 0.930 . S
C2742 C2740 1.395 . S
C2742 C2745 1.403 . S
C2743 C2740 1.403 . S
C2743 C2744 1.524 . S
C2743 C2747 1.400 . S
C2744 H2729 0.960 . S
C2744 H2730 0.960 . S
C2744 H2731 0.960 . S
C2744 C2743 1.524 . S
C2745 C2742 1.403 . S
C2745 C2746 1.392 . S
C2745 C2749 1.495 . S
C2746 C2745 1.392 . S
C2746 C2747 1.385 . S
C2746 C2748 1.478 . S
C2747 H2741 0.930 . S
C2747 C2743 1.400 . S
C2747 C2746 1.385 . S
C2748 C2746 1.478 . S
C2748 C2750 1.381 . S
C2748 C2754 1.383 . S
C2749 C2745 1.495 . S
C2749 H2755 0.959 . S
C2749 H2756 0.961 . S
C2749 H2757 0.960 . S
C2750 C2748 1.381 . S
C2750 C2751 1.394 . S
C2750 H2758 0.930 . S
C2751 C2750 1.394 . S
C2751 C2752 1.383 . S
C2751 H2759 0.929 . S
C2752 C2751 1.383 . S
C2752 C2753 1.377 . S
C2753 H2737 0.930 . S
C2753 C2752 1.377 . S
C2753 C2754 1.379 . S
C2754 H2738 0.931 . S
C2754 C2748 1.383 . S
C2754 C2753 1.379 . S
H2755 C2749 0.959 . S
H2756 C2749 0.961 . S
H2757 C2749 0.960 . S
H2758 C2750 0.930 . S
H2759 C2751 0.929 . S
H2760 C2768 0.929 . S
H2761 C2770 0.930 . S
H2762 C2772 0.930 . S
H2763 C2775 0.929 . S
H2764 C2778 0.930 . S
H2765 C2780 0.960 . S
H2766 C2780 0.960 . S
H2767 C2780 0.960 . S
C2768 H2760 0.929 . S
C2768 C2769 1.377 . S
C2768 C2770 1.384 . S
C2769 C2768 1.377 . S
C2769 C2775 1.390 . S
C2770 H2761 0.930 . S
C2770 C2768 1.384 . S
C2770 C2771 1.372 . S
C2771 C2770 1.372 . S
C2771 C2772 1.400 . S
C2771 C2776 1.490 . S
C2772 H2762 0.930 . S
C2772 C2771 1.400 . S
C2772 C2775 1.386 . S
H2773 C2789 0.930 . S
H2774 C2790 0.931 . S
C2775 H2763 0.929 . S
C2775 C2769 1.390 . S
C2775 C2772 1.386 . S
C2776 C2771 1.490 . S
C2776 C2778 1.395 . S
C2776 C2779 1.403 . S
H2777 C2783 0.930 . S
C2778 H2764 0.930 . S
C2778 C2776 1.395 . S
C2778 C2781 1.403 . S
C2779 C2776 1.403 . S
C2779 C2780 1.524 . S
C2779 C2783 1.400 . S
C2780 H2765 0.960 . S
C2780 H2766 0.960 . S
C2780 H2767 0.960 . S
C2780 C2779 1.524 . S
C2781 C2778 1.403 . S
C2781 C2782 1.392 . S
C2781 C2785 1.495 . S
C2782 C2781 1.392 . S
C2782 C2783 1.385 . S
C2782 C2784 1.478 . S
C2783 H2777 0.930 . S
C2783 C2779 1.400 . S
C2783 C2782 1.385 . S
C2784 C2782 1.478 . S
C2784 C2786 1.381 . S
C2784 C2790 1.383 . S
C2785 C2781 1.495 . S
C2785 H2791 0.959 . S
C2785 H2792 0.961 . S
C2785 H2793 0.960 . S
C2786 C2784 1.381 . S
C2786 C2787 1.394 . S
C2786 H2794 0.930 . S
C2787 C2786 1.394 . S
C2787 C2788 1.383 . S
C2787 H2795 0.929 . S
C2788 C2787 1.383 . S
C2788 C2789 1.377 . S
C2789 H2773 0.930 . S
C2789 C2788 1.377 . S
C2789 C2790 1.379 . S
C2790 H2774 0.931 . S
C2790 C2784 1.383 . S
C2790 C2789 1.379 . S
H2791 C2785 0.959 . S
H2792 C2785 0.961 . S
H2793 C2785 0.960 . S
H2794 C2786 0.930 . S
H2795 C2787 0.929 . S
H2796 C2804 0.929 . S
H2797 C2806 0.930 . S
H2798 C2808 0.905 1_455 S
H2799 C2811 0.929 . S
H2800 C2814 0.930 . S
H2801 C2816 0.960 . S
H2802 C2816 0.960 . S
H2803 C2816 0.960 . S
C2804 H2796 0.929 . S
C2804 C2805 1.377 . S
C2804 C2806 1.384 . S
C2805 C2804 1.377 . S
C2805 C2811 1.390 . S
C2806 H2797 0.930 . S
C2806 C2804 1.384 . S
C2806 C2807 1.372 . S
C2807 C2806 1.372 . S
C2807 C2808 1.400 . S
C2807 C2812 1.490 . S
C2808 H2798 0.905 1_655 S
C2808 C2807 1.400 . S
C2808 C2811 1.386 . S
H2809 C2825 0.930 . S
H2810 C2826 0.931 . S
C2811 H2799 0.929 . S
C2811 C2805 1.390 . S
C2811 C2808 1.386 . S
C2812 C2807 1.490 . S
C2812 C2814 1.395 . S
C2812 C2815 1.403 1_655 S
H2813 C2819 0.930 . S
C2814 H2800 0.930 . S
C2814 C2812 1.395 . S
C2814 C2817 1.403 . S
C2815 C2812 1.403 1_455 S
C2815 C2816 1.524 . S
C2815 C2819 1.400 . S
C2816 H2801 0.960 . S
C2816 H2802 0.960 . S
C2816 H2803 0.960 . S
C2816 C2815 1.524 . S
C2817 C2814 1.403 . S
C2817 C2818 1.360 1_655 S
C2817 C2821 1.495 . S
C2818 C2817 1.360 1_455 S
C2818 C2819 1.407 . S
C2818 C2820 1.490 . S
C2819 H2813 0.930 . S
C2819 C2815 1.400 . S
C2819 C2818 1.407 . S
C2820 C2818 1.490 . S
C2820 C2822 1.381 . S
C2820 C2826 1.383 . S
C2821 C2817 1.495 . S
C2821 H2827 0.959 . S
C2821 H2828 0.961 . S
C2821 H2829 0.960 . S
C2822 C2820 1.381 . S
C2822 C2823 1.394 . S
C2822 H2830 0.930 1_455 S
C2823 C2822 1.394 . S
C2823 C2824 1.383 . S
C2823 H2831 0.929 . S
C2824 C2823 1.383 . S
C2824 C2825 1.377 . S
C2825 H2809 0.930 . S
C2825 C2824 1.377 . S
C2825 C2826 1.379 . S
C2826 H2810 0.931 . S
C2826 C2820 1.383 . S
C2826 C2825 1.379 . S
H2827 C2821 0.959 . S
H2828 C2821 0.961 . S
H2829 C2821 0.960 . S
H2830 C2822 0.930 1_655 S
H2831 C2823 0.929 . S
H2832 C2840 0.929 . S
H2833 C2842 0.930 . S
H2834 C2844 0.930 1_545 S
H2835 C2847 0.929 . S
H2836 C2850 0.930 . S
H2837 C2852 0.960 . S
H2838 C2852 0.960 . S
H2839 C2852 0.960 1_545 S
C2840 H2832 0.929 . S
C2840 C2841 1.377 . S
C2840 C2842 1.384 . S
C2841 C2840 1.377 . S
C2841 C2847 1.390 . S
C2842 H2833 0.930 . S
C2842 C2840 1.384 . S
C2842 C2843 1.372 . S
C2843 C2842 1.372 . S
C2843 C2844 1.400 . S
C2843 C2848 1.490 . S
C2844 H2834 0.930 1_565 S
C2844 C2843 1.400 . S
C2844 C2847 1.386 . S
H2845 C2861 0.930 . S
H2846 C2862 0.931 . S
C2847 H2835 0.929 . S
C2847 C2841 1.390 . S
C2847 C2844 1.386 . S
C2848 C2843 1.490 . S
C2848 C2850 1.395 . S
C2848 C2851 1.403 . S
H2849 C2855 0.930 . S
C2850 H2836 0.930 . S
C2850 C2848 1.395 . S
C2850 C2853 1.403 1_565 S
C2851 C2848 1.403 . S
C2851 C2852 1.524 . S
C2851 C2855 1.400 1_565 S
C2852 H2837 0.960 . S
C2852 H2838 0.960 . S
C2852 H2839 0.960 1_565 S
C2852 C2851 1.524 . S
C2853 C2850 1.403 1_545 S
C2853 C2854 1.392 . S
C2853 C2857 1.495 . S
C2854 C2853 1.392 . S
C2854 C2855 1.385 . S
C2854 C2856 1.478 . S
C2855 H2849 0.930 . S
C2855 C2851 1.400 1_545 S
C2855 C2854 1.385 . S
C2856 C2854 1.478 . S
C2856 C2858 1.381 . S
C2856 C2862 1.383 . S
C2857 C2853 1.495 . S
C2857 H2863 0.959 . S
C2857 H2864 0.961 . S
C2857 H2865 0.960 . S
C2858 C2856 1.381 . S
C2858 C2859 1.394 . S
C2858 H2866 0.930 1_545 S
C2859 C2858 1.394 . S
C2859 C2860 1.383 . S
C2859 H2867 0.929 . S
C2860 C2859 1.383 . S
C2860 C2861 1.377 . S
C2861 H2845 0.930 . S
C2861 C2860 1.377 . S
C2861 C2862 1.379 . S
C2862 H2846 0.931 . S
C2862 C2856 1.383 . S
C2862 C2861 1.379 . S
H2863 C2857 0.959 . S
H2864 C2857 0.961 . S
H2865 C2857 0.960 . S
H2866 C2858 0.930 1_565 S
H2867 C2859 0.929 . S
H2868 C2876 0.929 . S
H2869 C2878 0.930 1_565 S
H2870 C2880 0.930 . S
H2871 C2883 0.929 . S
H2872 C2886 0.930 . S
H2873 C2888 0.960 . S
H2874 C2888 0.960 . S
H2875 C2888 0.960 . S
C2876 H2868 0.929 . S
C2876 C2877 1.377 . S
C2876 C2878 1.384 . S
C2877 C2876 1.377 . S
C2877 C2883 1.390 . S
C2878 H2869 0.930 1_545 S
C2878 C2876 1.384 . S
C2878 C2879 1.372 . S
C2879 C2878 1.372 . S
C2879 C2880 1.400 . S
C2879 C2884 1.490 . S
C2880 H2870 0.930 . S
C2880 C2879 1.400 . S
C2880 C2883 1.386 . S
H2881 C2897 0.930 . S
H2882 C2898 0.931 . S
C2883 H2871 0.929 . S
C2883 C2877 1.390 . S
C2883 C2880 1.386 . S
C2884 C2879 1.490 . S
C2884 C2886 1.395 1_545 S
C2884 C2887 1.403 . S
H2885 C2891 0.930 . S
C2886 H2872 0.930 . S
C2886 C2884 1.395 1_565 S
C2886 C2889 1.403 . S
C2887 C2884 1.403 . S
C2887 C2888 1.524 . S
C2887 C2891 1.400 . S
C2888 H2873 0.960 . S
C2888 H2874 0.960 . S
C2888 H2875 0.960 . S
C2888 C2887 1.524 . S
C2889 C2886 1.403 . S
C2889 C2890 1.392 . S
C2889 C2893 1.495 . S
C2890 C2889 1.392 . S
C2890 C2891 1.385 1_565 S
C2890 C2892 1.478 . S
C2891 H2885 0.930 . S
C2891 C2887 1.400 . S
C2891 C2890 1.385 1_545 S
C2892 C2890 1.478 . S
C2892 C2894 1.381 . S
C2892 C2898 1.383 . S
C2893 C2889 1.495 . S
C2893 H2899 0.959 . S
C2893 H2900 0.961 . S
C2893 H2901 0.960 . S
C2894 C2892 1.381 . S
C2894 C2895 1.394 . S
C2894 H2902 0.930 . S
C2895 C2894 1.394 . S
C2895 C2896 1.383 . S
C2895 H2903 0.929 . S
C2896 C2895 1.383 . S
C2896 C2897 1.377 . S
C2897 H2881 0.930 . S
C2897 C2896 1.377 . S
C2897 C2898 1.379 . S
C2898 H2882 0.931 . S
C2898 C2892 1.383 . S
C2898 C2897 1.379 . S
H2899 C2893 0.959 . S
H2900 C2893 0.961 . S
H2901 C2893 0.960 . S
H2902 C2894 0.930 . S
H2903 C2895 0.929 . S
H2904 C2912 0.929 . S
H2905 C2914 0.930 . S
H2906 C2916 0.930 . S
H2907 C2919 0.929 . S
H2908 C2922 0.930 . S
H2909 C2924 0.960 . S
H2910 C2924 0.960 . S
H2911 C2924 0.960 . S
C2912 H2904 0.929 . S
C2912 C2913 1.377 . S
C2912 C2914 1.384 . S
C2913 C2912 1.377 . S
C2913 C2919 1.390 . S
C2914 H2905 0.930 . S
C2914 C2912 1.384 . S
C2914 C2915 1.372 . S
C2915 C2914 1.372 . S
C2915 C2916 1.400 . S
C2915 C2920 1.490 . S
C2916 H2906 0.930 . S
C2916 C2915 1.400 . S
C2916 C2919 1.386 . S
H2917 C2933 0.930 . S
H2918 C2934 0.931 . S
C2919 H2907 0.929 . S
C2919 C2913 1.390 . S
C2919 C2916 1.386 . S
C2920 C2915 1.490 . S
C2920 C2922 1.395 . S
C2920 C2923 1.403 . S
H2921 C2927 0.930 . S
C2922 H2908 0.930 . S
C2922 C2920 1.395 . S
C2922 C2925 1.403 . S
C2923 C2920 1.403 . S
C2923 C2924 1.524 . S
C2923 C2927 1.400 . S
C2924 H2909 0.960 . S
C2924 H2910 0.960 . S
C2924 H2911 0.960 . S
C2924 C2923 1.524 . S
C2925 C2922 1.403 . S
C2925 C2926 1.392 . S
C2925 C2929 1.495 . S
C2926 C2925 1.392 . S
C2926 C2927 1.385 . S
C2926 C2928 1.478 . S
C2927 H2921 0.930 . S
C2927 C2923 1.400 . S
C2927 C2926 1.385 . S
C2928 C2926 1.478 . S
C2928 C2930 1.381 . S
C2928 C2934 1.383 . S
C2929 C2925 1.495 . S
C2929 H2935 0.959 . S
C2929 H2936 0.961 . S
C2929 H2937 0.960 . S
C2930 C2928 1.381 . S
C2930 C2931 1.394 . S
C2930 H2938 0.930 . S
C2931 C2930 1.394 . S
C2931 C2932 1.383 . S
C2931 H2939 0.929 . S
C2932 C2931 1.383 . S
C2932 C2933 1.377 . S
C2933 H2917 0.930 . S
C2933 C2932 1.377 . S
C2933 C2934 1.379 . S
C2934 H2918 0.931 . S
C2934 C2928 1.383 . S
C2934 C2933 1.379 . S
H2935 C2929 0.959 . S
H2936 C2929 0.961 . S
H2937 C2929 0.960 . S
H2938 C2930 0.930 . S
H2939 C2931 0.929 . S
H2940 C2948 0.929 . S
H2941 C2950 0.930 . S
H2942 C2952 0.930 . S
H2943 C2955 0.929 . S
H2944 C2958 0.930 . S
H2945 C2960 0.960 . S
H2946 C2960 0.960 . S
H2947 C2960 0.960 . S
C2948 H2940 0.929 . S
C2948 C2949 1.377 . S
C2948 C2950 1.384 . S
C2949 C2948 1.377 . S
C2949 C2955 1.390 . S
C2950 H2941 0.930 . S
C2950 C2948 1.384 . S
C2950 C2951 1.372 . S
C2951 C2950 1.372 . S
C2951 C2952 1.400 . S
C2951 C2956 1.490 . S
C2952 H2942 0.930 . S
C2952 C2951 1.400 . S
C2952 C2955 1.386 . S
H2953 C2969 0.930 . S
H2954 C2970 0.931 . S
C2955 H2943 0.929 . S
C2955 C2949 1.390 . S
C2955 C2952 1.386 . S
C2956 C2951 1.490 . S
C2956 C2958 1.395 . S
C2956 C2959 1.403 . S
H2957 C2963 0.930 . S
C2958 H2944 0.930 . S
C2958 C2956 1.395 . S
C2958 C2961 1.403 . S
C2959 C2956 1.403 . S
C2959 C2960 1.524 . S
C2959 C2963 1.400 . S
C2960 H2945 0.960 . S
C2960 H2946 0.960 . S
C2960 H2947 0.960 . S
C2960 C2959 1.524 . S
C2961 C2958 1.403 . S
C2961 C2962 1.392 . S
C2961 C2965 1.495 . S
C2962 C2961 1.392 . S
C2962 C2963 1.385 . S
C2962 C2964 1.478 . S
C2963 H2957 0.930 . S
C2963 C2959 1.400 . S
C2963 C2962 1.385 . S
C2964 C2962 1.478 . S
C2964 C2966 1.381 . S
C2964 C2970 1.383 . S
C2965 C2961 1.495 . S
C2965 H2971 0.959 . S
C2965 H2972 0.961 . S
C2965 H2973 0.960 . S
C2966 C2964 1.381 . S
C2966 C2967 1.394 . S
C2966 H2974 0.930 . S
C2967 C2966 1.394 . S
C2967 C2968 1.383 . S
C2967 H2975 0.929 . S
C2968 C2967 1.383 . S
C2968 C2969 1.377 . S
C2969 H2953 0.930 . S
C2969 C2968 1.377 . S
C2969 C2970 1.379 . S
C2970 H2954 0.931 . S
C2970 C2964 1.383 . S
C2970 C2969 1.379 . S
H2971 C2965 0.959 . S
H2972 C2965 0.961 . S
H2973 C2965 0.960 . S
H2974 C2966 0.930 . S
H2975 C2967 0.929 . S
H2976 C2984 0.929 . S
H2977 C2986 0.930 . S
H2978 C2988 0.930 . S
H2979 C2991 0.929 . S
H2980 C2994 0.930 . S
H2981 C2996 0.960 . S
H2982 C2996 0.960 . S
H2983 C2996 0.960 . S
C2984 H2976 0.929 . S
C2984 C2985 1.377 . S
C2984 C2986 1.384 . S
C2985 C2984 1.377 . S
C2985 C2991 1.390 . S
C2986 H2977 0.930 . S
C2986 C2984 1.384 . S
C2986 C2987 1.372 . S
C2987 C2986 1.372 . S
C2987 C2988 1.400 . S
C2987 C2992 1.490 . S
C2988 H2978 0.930 . S
C2988 C2987 1.400 . S
C2988 C2991 1.386 . S
H2989 C3005 0.930 . S
H2990 C3006 0.931 . S
C2991 H2979 0.929 . S
C2991 C2985 1.390 . S
C2991 C2988 1.386 . S
C2992 C2987 1.490 . S
C2992 C2994 1.395 . S
C2992 C2995 1.403 1_556 S
H2993 C2999 0.930 . S
C2994 H2980 0.930 . S
C2994 C2992 1.395 . S
C2994 C2997 1.403 . S
C2995 C2992 1.403 1_554 S
C2995 C2996 1.524 . S
C2995 C2999 1.400 . S
C2996 H2981 0.960 . S
C2996 H2982 0.960 . S
C2996 H2983 0.960 . S
C2996 C2995 1.524 . S
C2997 C2994 1.403 . S
C2997 C2998 1.392 1_556 S
C2997 C3001 1.495 . S
C2998 C2997 1.392 1_554 S
C2998 C2999 1.385 . S
C2998 C3000 1.478 . S
C2999 H2993 0.930 . S
C2999 C2995 1.400 . S
C2999 C2998 1.385 . S
C3000 C2998 1.478 . S
C3000 C3002 1.381 . S
C3000 C3006 1.383 . S
C3001 C2997 1.495 . S
C3001 H3007 0.959 . S
C3001 H3008 0.961 . S
C3001 H3009 0.960 . S
C3002 C3000 1.381 . S
C3002 C3003 1.394 . S
C3002 H3010 0.930 . S
C3003 C3002 1.394 . S
C3003 C3004 1.383 . S
C3003 H3011 0.929 . S
C3004 C3003 1.383 . S
C3004 C3005 1.377 . S
C3005 H2989 0.930 . S
C3005 C3004 1.377 . S
C3005 C3006 1.379 . S
C3006 H2990 0.931 . S
C3006 C3000 1.383 . S
C3006 C3005 1.379 . S
H3007 C3001 0.959 . S
H3008 C3001 0.961 . S
H3009 C3001 0.960 . S
H3010 C3002 0.930 . S
H3011 C3003 0.929 . S
H3012 C3020 0.929 . S
H3013 C3022 0.930 1_554 S
H3014 C3024 0.930 . S
H3015 C3027 0.929 . S
H3016 C3030 0.930 . S
H3017 C3032 0.960 . S
H3018 C3032 0.960 . S
H3019 C3032 0.960 . S
C3020 H3012 0.929 . S
C3020 C3021 1.377 . S
C3020 C3022 1.384 . S
C3021 C3020 1.377 . S
C3021 C3027 1.390 . S
C3022 H3013 0.930 1_556 S
C3022 C3020 1.384 . S
C3022 C3023 1.372 . S
C3023 C3022 1.372 . S
C3023 C3024 1.400 . S
C3023 C3028 1.490 . S
C3024 H3014 0.930 . S
C3024 C3023 1.400 . S
C3024 C3027 1.386 . S
H3025 C3041 0.930 . S
H3026 C3042 0.931 1_556 S
C3027 H3015 0.929 . S
C3027 C3021 1.390 . S
C3027 C3024 1.386 . S
C3028 C3023 1.490 . S
C3028 C3030 1.395 1_556 S
C3028 C3031 1.403 . S
H3029 C3035 0.930 . S
C3030 H3016 0.930 . S
C3030 C3028 1.395 1_554 S
C3030 C3033 1.403 . S
C3031 C3028 1.403 . S
C3031 C3032 1.524 . S
C3031 C3035 1.400 . S
C3032 H3017 0.960 . S
C3032 H3018 0.960 . S
C3032 H3019 0.960 . S
C3032 C3031 1.524 . S
C3033 C3030 1.403 . S
C3033 C3034 1.392 . S
C3033 C3037 1.495 . S
C3034 C3033 1.392 . S
C3034 C3035 1.385 1_554 S
C3034 C3036 1.478 . S
C3035 H3029 0.930 . S
C3035 C3031 1.400 . S
C3035 C3034 1.385 1_556 S
C3036 C3034 1.478 . S
C3036 C3038 1.381 . S
C3036 C3042 1.383 . S
C3037 C3033 1.495 . S
C3037 H3043 0.959 . S
C3037 H3044 0.961 . S
C3037 H3045 0.960 . S
C3038 C3036 1.381 . S
C3038 C3039 1.394 . S
C3038 H3046 0.930 . S
C3039 C3038 1.394 . S
C3039 C3040 1.383 . S
C3039 H3047 0.929 . S
C3040 C3039 1.383 . S
C3040 C3041 1.377 . S
C3041 H3025 0.930 . S
C3041 C3040 1.377 . S
C3041 C3042 1.379 . S
C3042 H3026 0.931 1_554 S
C3042 C3036 1.383 . S
C3042 C3041 1.379 . S
H3043 C3037 0.959 . S
H3044 C3037 0.961 . S
H3045 C3037 0.960 . S
H3046 C3038 0.930 . S
H3047 C3039 0.929 . S
H3048 C3056 0.929 . S
H3049 C3058 0.930 . S
H3050 C3060 0.930 . S
H3051 C3063 0.929 . S
H3052 C3066 0.930 . S
H3053 C3068 0.960 . S
H3054 C3068 0.960 . S
H3055 C3068 0.960 . S
C3056 H3048 0.929 . S
C3056 C3057 1.377 . S
C3056 C3058 1.384 . S
C3057 C3056 1.377 . S
C3057 C3063 1.390 . S
C3058 H3049 0.930 . S
C3058 C3056 1.384 . S
C3058 C3059 1.372 . S
C3059 C3058 1.372 . S
C3059 C3060 1.400 . S
C3059 C3064 1.490 . S
C3060 H3050 0.930 . S
C3060 C3059 1.400 . S
C3060 C3063 1.386 . S
H3061 C3077 0.930 . S
H3062 C3078 0.931 . S
C3063 H3051 0.929 . S
C3063 C3057 1.390 . S
C3063 C3060 1.386 . S
C3064 C3059 1.490 . S
C3064 C3066 1.395 . S
C3064 C3067 1.403 . S
H3065 C3071 0.930 . S
C3066 H3052 0.930 . S
C3066 C3064 1.395 . S
C3066 C3069 1.403 . S
C3067 C3064 1.403 . S
C3067 C3068 1.524 . S
C3067 C3071 1.400 . S
C3068 H3053 0.960 . S
C3068 H3054 0.960 . S
C3068 H3055 0.960 . S
C3068 C3067 1.524 . S
C3069 C3066 1.403 . S
C3069 C3070 1.392 . S
C3069 C3073 1.495 . S
C3070 C3069 1.392 . S
C3070 C3071 1.385 . S
C3070 C3072 1.478 . S
C3071 H3065 0.930 . S
C3071 C3067 1.400 . S
C3071 C3070 1.385 . S
C3072 C3070 1.478 . S
C3072 C3074 1.381 . S
C3072 C3078 1.383 . S
C3073 C3069 1.495 . S
C3073 H3079 0.959 . S
C3073 H3080 0.961 . S
C3073 H3081 0.960 . S
C3074 C3072 1.381 . S
C3074 C3075 1.394 . S
C3074 H3082 0.930 . S
C3075 C3074 1.394 . S
C3075 C3076 1.383 . S
C3075 H3083 0.929 . S
C3076 C3075 1.383 . S
C3076 C3077 1.377 . S
C3077 H3061 0.930 . S
C3077 C3076 1.377 . S
C3077 C3078 1.379 . S
C3078 H3062 0.931 . S
C3078 C3072 1.383 . S
C3078 C3077 1.379 . S
H3079 C3073 0.959 . S
H3080 C3073 0.961 . S
H3081 C3073 0.960 . S
H3082 C3074 0.930 . S
H3083 C3075 0.929 . S
H3084 C3092 0.929 . S
H3085 C3094 0.930 . S
H3086 C3096 0.930 . S
H3087 C3099 0.929 . S
H3088 C3102 0.930 . S
H3089 C3104 0.960 . S
H3090 C3104 0.960 . S
H3091 C3104 0.960 . S
C3092 H3084 0.929 . S
C3092 C3093 1.377 . S
C3092 C3094 1.384 . S
C3093 C3092 1.377 . S
C3093 C3099 1.390 . S
C3094 H3085 0.930 . S
C3094 C3092 1.384 . S
C3094 C3095 1.372 . S
C3095 C3094 1.372 . S
C3095 C3096 1.400 . S
C3095 C3100 1.490 . S
C3096 H3086 0.930 . S
C3096 C3095 1.400 . S
C3096 C3099 1.386 . S
H3097 C3113 0.930 . S
H3098 C3114 0.931 . S
C3099 H3087 0.929 . S
C3099 C3093 1.390 . S
C3099 C3096 1.386 . S
C3100 C3095 1.490 . S
C3100 C3102 1.395 . S
C3100 C3103 1.403 . S
H3101 C3107 0.930 . S
C3102 H3088 0.930 . S
C3102 C3100 1.395 . S
C3102 C3105 1.403 . S
C3103 C3100 1.403 . S
C3103 C3104 1.524 . S
C3103 C3107 1.400 . S
C3104 H3089 0.960 . S
C3104 H3090 0.960 . S
C3104 H3091 0.960 . S
C3104 C3103 1.524 . S
C3105 C3102 1.403 . S
C3105 C3106 1.392 . S
C3105 C3109 1.495 . S
C3106 C3105 1.392 . S
C3106 C3107 1.385 . S
C3106 C3108 1.478 . S
C3107 H3101 0.930 . S
C3107 C3103 1.400 . S
C3107 C3106 1.385 . S
C3108 C3106 1.478 . S
C3108 C3110 1.381 . S
C3108 C3114 1.383 . S
C3109 C3105 1.495 . S
C3109 H3115 0.959 . S
C3109 H3116 0.961 . S
C3109 H3117 0.960 . S
C3110 C3108 1.381 . S
C3110 C3111 1.394 . S
C3110 H3118 0.930 . S
C3111 C3110 1.394 . S
C3111 C3112 1.383 . S
C3111 H3119 0.929 . S
C3112 C3111 1.383 . S
C3112 C3113 1.377 . S
C3113 H3097 0.930 . S
C3113 C3112 1.377 . S
C3113 C3114 1.379 . S
C3114 H3098 0.931 . S
C3114 C3108 1.383 . S
C3114 C3113 1.379 . S
H3115 C3109 0.959 . S
H3116 C3109 0.961 . S
H3117 C3109 0.960 . S
H3118 C3110 0.930 . S
H3119 C3111 0.929 . S
C537 C7 1.077 . S
C556 C414 1.075 . S
C573 C426 1.080 . S
C592 C29 1.065 . S
C609 C65 1.075 . S
C628 C360 1.064 . S
C645 C81 1.077 . S
C664 C392 1.074 . S
C681 C494 1.077 . S
C700 C109 1.088 . S
C717 C125 1.071 . S
C736 C480 1.085 . S
C753 C514 1.080 . S
C772 C153 1.073 . S
C789 C175 1.076 . S
C808 C448 1.064 . S
C825 C197 1.077 . S
C844 C304 1.071 . S
C861 C205 1.076 . S
C880 C338 1.082 . S
C897 C316 1.079 . S
C916 C227 1.060 . S
C933 C257 1.076 . S
C952 C272 1.065 . S
C969 C285 1.077 . S
C988 C140 1.086 . S
C1005 C293 1.075 . S
C1024 C162 1.080 . S
C1041 C329 1.076 . S
C1060 C96 1.081 . S
C1077 C120 1.079 . S
C1096 C351 1.081 . S
C1113 C373 1.077 . S
C1132 C238 1.084 . S
C1149 C216 1.076 . S
C1168 C381 1.068 . S
C1185 C252 1.079 . S
C1204 C403 1.077 . S
C1221 C184 1.078 . S
C1240 C439 1.069 . S
C1257 C40 1.077 . S
C1276 C461 1.074 . S
C1293 C76 1.076 . S
C1312 C469 1.057 . S
C1329 C52 1.080 . S
C1348 C499 1.088 . S
C1365 C527 1.077 . S
C1384 C18 1.086 . S
C1401 C433 0.885 1_554 S
C1420 C15 0.903 . S
C1437 C417 0.870 . S
C1456 C37 0.855 . S
C1473 C51 0.885 . S
C1492 C395 0.910 1_556 S
C1509 C367 0.872 . S
C1528 C87 0.844 . S
C1545 C95 0.878 . S
C1564 C521 0.836 1_455 S
C1581 C131 0.884 . S
C1600 C455 0.911 . S
C1617 C491 0.886 . S
C1636 C139 0.881 . S
C1653 C161 0.878 . S
C1672 C483 0.914 1_655 S
C1689 C323 0.874 1_545 S
C1708 C183 0.841 . S
C1725 C279 0.873 . S
C1744 C213 0.844 . S
C1761 C307 0.883 . S
C1780 C235 0.910 . S
C1797 C345 0.886 1_565 S
C1816 C263 0.889 . S
C1833 C271 0.876 . S
C1852 C169 0.876 1_556 S
C1869 C301 0.872 . S
C1888 C147 0.916 . S
C1905 C117 0.878 1_554 S
C1924 C315 0.891 . S
C1941 C103 0.875 . S
C1960 C337 0.873 . S
C1977 C249 0.879 1_655 S
C1996 C359 0.886 . S
C2013 C389 0.876 . S
C2032 C191 0.875 . S
C2049 C241 0.883 . S
C2068 C411 0.866 . S
C2085 C219 0.886 1_455 S
C2104 C425 0.847 . S
C2121 C447 0.880 . S
C2140 C59 0.890 1_565 S
C2157 C477 0.872 . S
C2176 C21 0.916 . S
C2193 C43 0.877 . S
C2212 C505 0.864 . S
C2229 C73 0.880 1_545 S
C2248 C513 0.880 . S
C2265 C10 0.856 . S
C2284 C206 0.891 . S
C2301 C228 0.851 . S
C2320 C32 0.884 . S
C2337 C186 0.852 . S
C2356 C62 0.828 . S
C2373 C260 0.860 . S
C2392 C74 0.816 . S
C2409 C106 0.848 . S
C2428 C84 0.843 . S
C2445 C54 0.863 . S
C2464 C118 0.873 . S
C2481 C150 0.848 . S
C2500 C30 0.873 . S
C2517 C8 0.858 . S
C2536 C172 0.815 . S
C2553 C194 0.848 . S
C2572 C128 0.854 . S
C2589 C208 0.855 . S
C2608 C164 0.821 . S
C2625 C230 0.856 . S
C2644 C142 0.820 . S
C2661 C250 0.849 . S
C2680 C98 0.881 . S
C2697 C282 0.850 . S
C2716 C470 0.858 . S
C2733 C296 0.855 . S
C2752 C502 0.882 . S
C2769 C450 0.861 . S
C2788 C326 0.862 . S
C2805 C516 0.864 . S
C2824 C348 0.840 . S
C2841 C370 0.859 . S
C2860 C340 0.823 . S
C2877 C384 0.847 . S
C2896 C318 0.879 . S
C2913 C294 0.850 . S
C2932 C406 0.869 . S
C2949 C436 0.849 . S
C2968 C274 0.892 . S
C2985 C458 0.860 . S
C3004 C382 0.859 . S
C3021 C428 0.849 . S
C3040 C472 0.881 . S
C3057 C492 0.854 . S
C3076 C404 0.884 . S
C3093 C524 0.863 . S
C3112 C362 0.823 . S
