# Generated by pormake.
# Topology rho, (4)-cn, num edge types: 1
# Building blocks:
#     Node 0, Type 0, BuildingBlock: QUQFOY_clean_sbu_3, # of connection points: 4
#     Node 1, Type 0, BuildingBlock: QUQFOY_clean_sbu_3, # of connection points: 4
#     Node 2, Type 0, BuildingBlock: QUQFOY_clean_sbu_3, # of connection points: 4
#     Node 3, Type 0, BuildingBlock: QUQFOY_clean_sbu_3, # of connection points: 4
#     Node 4, Type 0, BuildingBlock: QUQFOY_clean_sbu_3, # of connection points: 4
#     Node 5, Type 0, BuildingBlock: QUQFOY_clean_sbu_3, # of connection points: 4
#     Node 6, Type 0, BuildingBlock: QUQFOY_clean_sbu_3, # of connection points: 4
#     Node 7, Type 0, BuildingBlock: QUQFOY_clean_sbu_3, # of connection points: 4
#     Node 8, Type 0, BuildingBlock: QUQFOY_clean_sbu_3, # of connection points: 4
#     Node 9, Type 0, BuildingBlock: QUQFOY_clean_sbu_3, # of connection points: 4
#     Node 10, Type 0, BuildingBlock: QUQFOY_clean_sbu_3, # of connection points: 4
#     Node 11, Type 0, BuildingBlock: QUQFOY_clean_sbu_3, # of connection points: 4
#     Node 12, Type 0, BuildingBlock: QUQFOY_clean_sbu_3, # of connection points: 4
#     Node 13, Type 0, BuildingBlock: QUQFOY_clean_sbu_3, # of connection points: 4
#     Node 14, Type 0, BuildingBlock: QUQFOY_clean_sbu_3, # of connection points: 4
#     Node 15, Type 0, BuildingBlock: QUQFOY_clean_sbu_3, # of connection points: 4
#     Node 16, Type 0, BuildingBlock: QUQFOY_clean_sbu_3, # of connection points: 4
#     Node 17, Type 0, BuildingBlock: QUQFOY_clean_sbu_3, # of connection points: 4
#     Node 18, Type 0, BuildingBlock: QUQFOY_clean_sbu_3, # of connection points: 4
#     Node 19, Type 0, BuildingBlock: QUQFOY_clean_sbu_3, # of connection points: 4
#     Node 20, Type 0, BuildingBlock: QUQFOY_clean_sbu_3, # of connection points: 4
#     Node 21, Type 0, BuildingBlock: QUQFOY_clean_sbu_3, # of connection points: 4
#     Node 22, Type 0, BuildingBlock: QUQFOY_clean_sbu_3, # of connection points: 4
#     Node 23, Type 0, BuildingBlock: QUQFOY_clean_sbu_3, # of connection points: 4
#     Node 24, Type 0, BuildingBlock: QUQFOY_clean_sbu_3, # of connection points: 4
#     Node 25, Type 0, BuildingBlock: QUQFOY_clean_sbu_3, # of connection points: 4
#     Node 26, Type 0, BuildingBlock: QUQFOY_clean_sbu_3, # of connection points: 4
#     Node 27, Type 0, BuildingBlock: QUQFOY_clean_sbu_3, # of connection points: 4
#     Node 28, Type 0, BuildingBlock: QUQFOY_clean_sbu_3, # of connection points: 4
#     Node 29, Type 0, BuildingBlock: QUQFOY_clean_sbu_3, # of connection points: 4
#     Node 30, Type 0, BuildingBlock: QUQFOY_clean_sbu_3, # of connection points: 4
#     Node 31, Type 0, BuildingBlock: QUQFOY_clean_sbu_3, # of connection points: 4
#     Node 32, Type 0, BuildingBlock: QUQFOY_clean_sbu_3, # of connection points: 4
#     Node 33, Type 0, BuildingBlock: QUQFOY_clean_sbu_3, # of connection points: 4
#     Node 34, Type 0, BuildingBlock: QUQFOY_clean_sbu_3, # of connection points: 4
#     Node 35, Type 0, BuildingBlock: QUQFOY_clean_sbu_3, # of connection points: 4
#     Node 36, Type 0, BuildingBlock: QUQFOY_clean_sbu_3, # of connection points: 4
#     Node 37, Type 0, BuildingBlock: QUQFOY_clean_sbu_3, # of connection points: 4
#     Node 38, Type 0, BuildingBlock: QUQFOY_clean_sbu_3, # of connection points: 4
#     Node 39, Type 0, BuildingBlock: QUQFOY_clean_sbu_3, # of connection points: 4
#     Node 40, Type 0, BuildingBlock: QUQFOY_clean_sbu_3, # of connection points: 4
#     Node 41, Type 0, BuildingBlock: QUQFOY_clean_sbu_3, # of connection points: 4
#     Node 42, Type 0, BuildingBlock: QUQFOY_clean_sbu_3, # of connection points: 4
#     Node 43, Type 0, BuildingBlock: QUQFOY_clean_sbu_3, # of connection points: 4
#     Node 44, Type 0, BuildingBlock: QUQFOY_clean_sbu_3, # of connection points: 4
#     Node 45, Type 0, BuildingBlock: QUQFOY_clean_sbu_3, # of connection points: 4
#     Node 46, Type 0, BuildingBlock: QUQFOY_clean_sbu_3, # of connection points: 4
#     Node 47, Type 0, BuildingBlock: QUQFOY_clean_sbu_3, # of connection points: 4
#     Edge 48, Type (0, 0), BuildingBlock: TEMPAE_clean_linker_10, # of connection points: 2
#     Edge 49, Type (0, 0), BuildingBlock: TEMPAE_clean_linker_10, # of connection points: 2
#     Edge 50, Type (0, 0), BuildingBlock: TEMPAE_clean_linker_10, # of connection points: 2
#     Edge 51, Type (0, 0), BuildingBlock: TEMPAE_clean_linker_10, # of connection points: 2
#     Edge 52, Type (0, 0), BuildingBlock: TEMPAE_clean_linker_10, # of connection points: 2
#     Edge 53, Type (0, 0), BuildingBlock: TEMPAE_clean_linker_10, # of connection points: 2
#     Edge 54, Type (0, 0), BuildingBlock: TEMPAE_clean_linker_10, # of connection points: 2
#     Edge 55, Type (0, 0), BuildingBlock: TEMPAE_clean_linker_10, # of connection points: 2
#     Edge 56, Type (0, 0), BuildingBlock: TEMPAE_clean_linker_10, # of connection points: 2
#     Edge 57, Type (0, 0), BuildingBlock: TEMPAE_clean_linker_10, # of connection points: 2
#     Edge 58, Type (0, 0), BuildingBlock: TEMPAE_clean_linker_10, # of connection points: 2
#     Edge 59, Type (0, 0), BuildingBlock: TEMPAE_clean_linker_10, # of connection points: 2
#     Edge 60, Type (0, 0), BuildingBlock: TEMPAE_clean_linker_10, # of connection points: 2
#     Edge 61, Type (0, 0), BuildingBlock: TEMPAE_clean_linker_10, # of connection points: 2
#     Edge 62, Type (0, 0), BuildingBlock: TEMPAE_clean_linker_10, # of connection points: 2
#     Edge 63, Type (0, 0), BuildingBlock: TEMPAE_clean_linker_10, # of connection points: 2
#     Edge 64, Type (0, 0), BuildingBlock: TEMPAE_clean_linker_10, # of connection points: 2
#     Edge 65, Type (0, 0), BuildingBlock: TEMPAE_clean_linker_10, # of connection points: 2
#     Edge 66, Type (0, 0), BuildingBlock: TEMPAE_clean_linker_10, # of connection points: 2
#     Edge 67, Type (0, 0), BuildingBlock: TEMPAE_clean_linker_10, # of connection points: 2
#     Edge 68, Type (0, 0), BuildingBlock: TEMPAE_clean_linker_10, # of connection points: 2
#     Edge 69, Type (0, 0), BuildingBlock: TEMPAE_clean_linker_10, # of connection points: 2
#     Edge 70, Type (0, 0), BuildingBlock: TEMPAE_clean_linker_10, # of connection points: 2
#     Edge 71, Type (0, 0), BuildingBlock: TEMPAE_clean_linker_10, # of connection points: 2
#     Edge 72, Type (0, 0), BuildingBlock: TEMPAE_clean_linker_10, # of connection points: 2
#     Edge 73, Type (0, 0), BuildingBlock: TEMPAE_clean_linker_10, # of connection points: 2
#     Edge 74, Type (0, 0), BuildingBlock: TEMPAE_clean_linker_10, # of connection points: 2
#     Edge 75, Type (0, 0), BuildingBlock: TEMPAE_clean_linker_10, # of connection points: 2
#     Edge 76, Type (0, 0), BuildingBlock: TEMPAE_clean_linker_10, # of connection points: 2
#     Edge 77, Type (0, 0), BuildingBlock: TEMPAE_clean_linker_10, # of connection points: 2
#     Edge 78, Type (0, 0), BuildingBlock: TEMPAE_clean_linker_10, # of connection points: 2
#     Edge 79, Type (0, 0), BuildingBlock: TEMPAE_clean_linker_10, # of connection points: 2
#     Edge 80, Type (0, 0), BuildingBlock: TEMPAE_clean_linker_10, # of connection points: 2
#     Edge 81, Type (0, 0), BuildingBlock: TEMPAE_clean_linker_10, # of connection points: 2
#     Edge 82, Type (0, 0), BuildingBlock: TEMPAE_clean_linker_10, # of connection points: 2
#     Edge 83, Type (0, 0), BuildingBlock: TEMPAE_clean_linker_10, # of connection points: 2
#     Edge 84, Type (0, 0), BuildingBlock: TEMPAE_clean_linker_10, # of connection points: 2
#     Edge 85, Type (0, 0), BuildingBlock: TEMPAE_clean_linker_10, # of connection points: 2
#     Edge 86, Type (0, 0), BuildingBlock: TEMPAE_clean_linker_10, # of connection points: 2
#     Edge 87, Type (0, 0), BuildingBlock: TEMPAE_clean_linker_10, # of connection points: 2
#     Edge 88, Type (0, 0), BuildingBlock: TEMPAE_clean_linker_10, # of connection points: 2
#     Edge 89, Type (0, 0), BuildingBlock: TEMPAE_clean_linker_10, # of connection points: 2
#     Edge 90, Type (0, 0), BuildingBlock: TEMPAE_clean_linker_10, # of connection points: 2
#     Edge 91, Type (0, 0), BuildingBlock: TEMPAE_clean_linker_10, # of connection points: 2
#     Edge 92, Type (0, 0), BuildingBlock: TEMPAE_clean_linker_10, # of connection points: 2
#     Edge 93, Type (0, 0), BuildingBlock: TEMPAE_clean_linker_10, # of connection points: 2
#     Edge 94, Type (0, 0), BuildingBlock: TEMPAE_clean_linker_10, # of connection points: 2
#     Edge 95, Type (0, 0), BuildingBlock: TEMPAE_clean_linker_10, # of connection points: 2
#     Edge 96, Type (0, 0), BuildingBlock: TEMPAE_clean_linker_10, # of connection points: 2
#     Edge 97, Type (0, 0), BuildingBlock: TEMPAE_clean_linker_10, # of connection points: 2
#     Edge 98, Type (0, 0), BuildingBlock: TEMPAE_clean_linker_10, # of connection points: 2
#     Edge 99, Type (0, 0), BuildingBlock: TEMPAE_clean_linker_10, # of connection points: 2
#     Edge 100, Type (0, 0), BuildingBlock: TEMPAE_clean_linker_10, # of connection points: 2
#     Edge 101, Type (0, 0), BuildingBlock: TEMPAE_clean_linker_10, # of connection points: 2
#     Edge 102, Type (0, 0), BuildingBlock: TEMPAE_clean_linker_10, # of connection points: 2
#     Edge 103, Type (0, 0), BuildingBlock: TEMPAE_clean_linker_10, # of connection points: 2
#     Edge 104, Type (0, 0), BuildingBlock: TEMPAE_clean_linker_10, # of connection points: 2
#     Edge 105, Type (0, 0), BuildingBlock: TEMPAE_clean_linker_10, # of connection points: 2
#     Edge 106, Type (0, 0), BuildingBlock: TEMPAE_clean_linker_10, # of connection points: 2
#     Edge 107, Type (0, 0), BuildingBlock: TEMPAE_clean_linker_10, # of connection points: 2
#     Edge 108, Type (0, 0), BuildingBlock: TEMPAE_clean_linker_10, # of connection points: 2
#     Edge 109, Type (0, 0), BuildingBlock: TEMPAE_clean_linker_10, # of connection points: 2
#     Edge 110, Type (0, 0), BuildingBlock: TEMPAE_clean_linker_10, # of connection points: 2
#     Edge 111, Type (0, 0), BuildingBlock: TEMPAE_clean_linker_10, # of connection points: 2
#     Edge 112, Type (0, 0), BuildingBlock: TEMPAE_clean_linker_10, # of connection points: 2
#     Edge 113, Type (0, 0), BuildingBlock: TEMPAE_clean_linker_10, # of connection points: 2
#     Edge 114, Type (0, 0), BuildingBlock: TEMPAE_clean_linker_10, # of connection points: 2
#     Edge 115, Type (0, 0), BuildingBlock: TEMPAE_clean_linker_10, # of connection points: 2
#     Edge 116, Type (0, 0), BuildingBlock: TEMPAE_clean_linker_10, # of connection points: 2
#     Edge 117, Type (0, 0), BuildingBlock: TEMPAE_clean_linker_10, # of connection points: 2
#     Edge 118, Type (0, 0), BuildingBlock: TEMPAE_clean_linker_10, # of connection points: 2
#     Edge 119, Type (0, 0), BuildingBlock: TEMPAE_clean_linker_10, # of connection points: 2
#     Edge 120, Type (0, 0), BuildingBlock: TEMPAE_clean_linker_10, # of connection points: 2
#     Edge 121, Type (0, 0), BuildingBlock: TEMPAE_clean_linker_10, # of connection points: 2
#     Edge 122, Type (0, 0), BuildingBlock: TEMPAE_clean_linker_10, # of connection points: 2
#     Edge 123, Type (0, 0), BuildingBlock: TEMPAE_clean_linker_10, # of connection points: 2
#     Edge 124, Type (0, 0), BuildingBlock: TEMPAE_clean_linker_10, # of connection points: 2
#     Edge 125, Type (0, 0), BuildingBlock: TEMPAE_clean_linker_10, # of connection points: 2
#     Edge 126, Type (0, 0), BuildingBlock: TEMPAE_clean_linker_10, # of connection points: 2
#     Edge 127, Type (0, 0), BuildingBlock: TEMPAE_clean_linker_10, # of connection points: 2
#     Edge 128, Type (0, 0), BuildingBlock: TEMPAE_clean_linker_10, # of connection points: 2
#     Edge 129, Type (0, 0), BuildingBlock: TEMPAE_clean_linker_10, # of connection points: 2
#     Edge 130, Type (0, 0), BuildingBlock: TEMPAE_clean_linker_10, # of connection points: 2
#     Edge 131, Type (0, 0), BuildingBlock: TEMPAE_clean_linker_10, # of connection points: 2
#     Edge 132, Type (0, 0), BuildingBlock: TEMPAE_clean_linker_10, # of connection points: 2
#     Edge 133, Type (0, 0), BuildingBlock: TEMPAE_clean_linker_10, # of connection points: 2
#     Edge 134, Type (0, 0), BuildingBlock: TEMPAE_clean_linker_10, # of connection points: 2
#     Edge 135, Type (0, 0), BuildingBlock: TEMPAE_clean_linker_10, # of connection points: 2
#     Edge 136, Type (0, 0), BuildingBlock: TEMPAE_clean_linker_10, # of connection points: 2
#     Edge 137, Type (0, 0), BuildingBlock: TEMPAE_clean_linker_10, # of connection points: 2
#     Edge 138, Type (0, 0), BuildingBlock: TEMPAE_clean_linker_10, # of connection points: 2
#     Edge 139, Type (0, 0), BuildingBlock: TEMPAE_clean_linker_10, # of connection points: 2
#     Edge 140, Type (0, 0), BuildingBlock: TEMPAE_clean_linker_10, # of connection points: 2
#     Edge 141, Type (0, 0), BuildingBlock: TEMPAE_clean_linker_10, # of connection points: 2
#     Edge 142, Type (0, 0), BuildingBlock: TEMPAE_clean_linker_10, # of connection points: 2
#     Edge 143, Type (0, 0), BuildingBlock: TEMPAE_clean_linker_10, # of connection points: 2
# Relax obj value: 0.073
# Max RMSD: 0.094
# Mean RMSD: 0.088
data_MOF--net-rho--node1-QUQFOY_clean_sbu_3--edge1-TEMPAE_clean_linker_10
_symmetry_space_group_name_H-M    P1
_symmetry_Int_Tables_number       1
_symmetry_cell_setting            triclinic
loop_
_symmetry_equiv_pos_as_xyz
'x, y, z'
_cell_length_a     73.571346
_cell_length_b     74.249638
_cell_length_c     74.256696
_cell_angle_alpha  90.168531
_cell_angle_beta   90.186693
_cell_angle_gamma 90.97942
loop_
_atom_site_label
_atom_site_type_symbol
_atom_site_fract_x
_atom_site_fract_y
_atom_site_fract_z
_atom_type_partial_charge
C0 C 0.12587 0.21647 0.35799 0.0
O1 O 0.11015 0.20915 0.35794 0.0
Cd2 Cd 0.0843 0.22358 0.37098 0.0
O3 O 0.12824 0.23259 0.36349 0.0
Cd4 Cd 0.11026 0.25802 0.37413 0.0
C5 C 0.10312 0.23495 0.41212 0.0
O6 O 0.08176 0.25271 0.35784 0.0
O7 O 0.08054 0.26969 0.38136 0.0
O8 O 0.12766 0.27783 0.35444 0.0
C9 C 0.07244 0.2629 0.36781 0.0
O10 O 0.09072 0.22625 0.40355 0.0
C11 C 0.12978 0.29027 0.36608 0.0
O12 O 0.11341 0.24634 0.40421 0.0
O13 O 0.12343 0.28737 0.3817 0.0
C14 C 0.79854 0.08963 0.38514 0.0
O15 O 0.802 0.07449 0.39218 0.0
Cd16 Cd 0.78004 0.05125 0.39933 0.0
O17 O 0.78226 0.09422 0.38189 0.0
Cd18 Cd 0.75148 0.08172 0.3867 0.0
C19 C 0.75729 0.07477 0.43157 0.0
O20 O 0.75753 0.0514 0.37642 0.0
O21 O 0.7312 0.0553 0.38829 0.0
O22 O 0.74027 0.0942 0.35879 0.0
C23 C 0.74217 0.04477 0.38065 0.0
O24 O 0.76635 0.06095 0.42729 0.0
C25 C 0.72772 0.10326 0.36596 0.0
O26 O 0.75168 0.08569 0.41964 0.0
O27 O 0.72681 0.10313 0.38305 0.0
C28 C 0.87382 0.79307 0.36426 0.0
O29 O 0.88825 0.7992 0.3716 0.0
Cd30 Cd 0.9105 0.77973 0.38469 0.0
O31 O 0.87032 0.77625 0.36409 0.0
Cd32 Cd 0.88415 0.74861 0.37516 0.0
C33 C 0.88494 0.76132 0.41843 0.0
O34 O 0.91545 0.75401 0.36573 0.0
O35 O 0.91116 0.73314 0.38558 0.0
O36 O 0.87522 0.73292 0.3481 0.0
C37 C 0.92177 0.7409 0.37453 0.0
O38 O 0.89906 0.77049 0.41416 0.0
C39 C 0.86638 0.72033 0.3558 0.0
O40 O 0.87542 0.75326 0.40643 0.0
O41 O 0.865 0.72125 0.37283 0.0
C42 C 0.1978 0.88554 0.38718 0.0
O43 O 0.19224 0.90091 0.39206 0.0
Cd44 Cd 0.21053 0.92698 0.39832 0.0
O45 O 0.21466 0.88255 0.3849 0.0
Cd46 Cd 0.24453 0.89854 0.38722 0.0
C47 C 0.23643 0.90675 0.43155 0.0
O48 O 0.23287 0.92627 0.37557 0.0
O49 O 0.26106 0.92736 0.38295 0.0
O50 O 0.25325 0.87946 0.36207 0.0
C51 C 0.24728 0.93563 0.37729 0.0
O52 O 0.22429 0.91767 0.42647 0.0
C53 C 0.26931 0.87696 0.36776 0.0
O54 O 0.24566 0.89774 0.42026 0.0
O55 O 0.27356 0.88386 0.3829 0.0
C56 C 0.1002 0.79573 0.61337 0.0
O57 O 0.08453 0.80137 0.60925 0.0
Cd58 Cd 0.06023 0.78259 0.59813 0.0
O59 O 0.10356 0.77893 0.61356 0.0
Cd60 Cd 0.08745 0.74945 0.60978 0.0
C61 C 0.08302 0.75836 0.56535 0.0
O62 O 0.0576 0.75876 0.61914 0.0
O63 O 0.05872 0.73221 0.60749 0.0
O64 O 0.09852 0.73659 0.63758 0.0
C65 C 0.04917 0.74451 0.61435 0.0
O66 O 0.0719 0.77059 0.56976 0.0
C67 C 0.10764 0.72427 0.63015 0.0
O68 O 0.09078 0.74876 0.57719 0.0
O69 O 0.10785 0.7239 0.61304 0.0
C70 C 0.29829 0.12384 0.62432 0.0
O71 O 0.3041 0.11841 0.60921 0.0
Cd72 Cd 0.28461 0.10981 0.58469 0.0
O73 O 0.28132 0.12535 0.62708 0.0
Cd74 Cd 0.25287 0.12021 0.61002 0.0
C75 C 0.26111 0.07622 0.60667 0.0
O76 O 0.26178 0.13195 0.58053 0.0
O77 O 0.23859 0.11382 0.58101 0.0
O78 O 0.24105 0.14727 0.62395 0.0
C79 C 0.24841 0.12483 0.57219 0.0
O80 O 0.27136 0.08073 0.59358 0.0
C81 C 0.22535 0.14061 0.62698 0.0
O82 O 0.25373 0.0881 0.6165 0.0
O83 O 0.22278 0.12411 0.62303 0.0
C84 C 0.8859 0.2094 0.60461 0.0
O85 O 0.90129 0.20428 0.599 0.0
Cd86 Cd 0.92796 0.22258 0.59376 0.0
O87 O 0.88268 0.22601 0.60725 0.0
Cd88 Cd 0.89906 0.25501 0.60271 0.0
C89 C 0.9098 0.24626 0.5589 0.0
O90 O 0.9268 0.24472 0.61666 0.0
O91 O 0.92812 0.27173 0.60666 0.0
O92 O 0.87882 0.26707 0.62569 0.0
C93 C 0.93621 0.2589 0.61426 0.0
O94 O 0.92249 0.2363 0.56462 0.0
C95 C 0.87697 0.28213 0.61787 0.0
O96 O 0.89838 0.25319 0.56965 0.0
O97 O 0.88479 0.2842 0.60279 0.0
C98 C 0.68621 0.88164 0.60957 0.0
O99 O 0.68272 0.88728 0.59383 0.0
Cd100 Cd 0.70536 0.89438 0.57174 0.0
O101 O 0.7024 0.87805 0.61438 0.0
Cd102 Cd 0.73311 0.87694 0.60097 0.0
C103 C 0.73372 0.92217 0.59728 0.0
O104 O 0.72362 0.86858 0.57096 0.0
O105 O 0.75185 0.87643 0.57338 0.0
O106 O 0.73786 0.84696 0.61239 0.0
C107 C 0.73896 0.87054 0.56352 0.0
O108 O 0.72287 0.91992 0.58401 0.0
C109 C 0.75275 0.85069 0.62036 0.0
O110 O 0.73889 0.90889 0.60672 0.0
O111 O 0.75797 0.86709 0.62043 0.0
C112 C 0.37949 0.11815 0.28319 0.0
O113 O 0.39566 0.1154 0.28838 0.0
Cd114 Cd 0.41852 0.10288 0.26973 0.0
O115 O 0.37471 0.11529 0.26691 0.0
Cd116 Cd 0.38982 0.10616 0.23867 0.0
C117 C 0.39511 0.06497 0.25544 0.0
O118 O 0.41896 0.12124 0.2435 0.0
O119 O 0.41909 0.09945 0.22442 0.0
O120 O 0.37268 0.12844 0.22195 0.0
C121 C 0.42755 0.11262 0.23165 0.0
O122 O 0.40912 0.07135 0.26353 0.0
C123 C 0.36946 0.11815 0.20858 0.0
O124 O 0.38461 0.07513 0.24662 0.0
O125 O 0.37498 0.10209 0.20966 0.0
C126 C 0.88628 0.37243 0.20258 0.0
O127 O 0.90172 0.37828 0.19733 0.0
Cd128 Cd 0.92697 0.38639 0.2164 0.0
O129 O 0.88287 0.37023 0.21927 0.0
Cd130 Cd 0.89744 0.37358 0.24922 0.0
C131 C 0.90523 0.41843 0.24216 0.0
O132 O 0.92673 0.36386 0.23898 0.0
O133 O 0.92532 0.37025 0.26712 0.0
O134 O 0.8786 0.34781 0.25809 0.0
C135 C 0.93502 0.36585 0.25383 0.0
O136 O 0.91675 0.41424 0.23014 0.0
C137 C 0.87475 0.35422 0.27347 0.0
O138 O 0.89614 0.40647 0.2507 0.0
O139 O 0.88085 0.3699 0.27718 0.0
C140 C 0.59593 0.87861 0.28277 0.0
O141 O 0.58005 0.88261 0.28794 0.0
Cd142 Cd 0.55681 0.89537 0.26957 0.0
O143 O 0.60083 0.88059 0.26642 0.0
Cd144 Cd 0.58703 0.88968 0.23738 0.0
C145 C 0.58054 0.93215 0.25262 0.0
O146 O 0.55779 0.8761 0.24423 0.0
O147 O 0.5587 0.89039 0.2192 0.0
O148 O 0.60611 0.86697 0.22347 0.0
C149 C 0.54949 0.88108 0.23025 0.0
O150 O 0.56722 0.92599 0.26181 0.0
C151 C 0.60942 0.87627 0.20948 0.0
O152 O 0.59063 0.92173 0.24359 0.0
O153 O 0.603 0.89202 0.20895 0.0
C154 C 0.11602 0.63057 0.19622 0.0
O155 O 0.10001 0.62627 0.19119 0.0
Cd156 Cd 0.07609 0.6168 0.21131 0.0
O157 O 0.12052 0.6299 0.21275 0.0
Cd158 Cd 0.10633 0.62104 0.24134 0.0
C159 C 0.09721 0.57917 0.22631 0.0
O160 O 0.07631 0.63476 0.23815 0.0
O161 O 0.07916 0.61444 0.25857 0.0
O162 O 0.12482 0.64401 0.25653 0.0
C163 C 0.06932 0.62617 0.25124 0.0
O164 O 0.08314 0.58566 0.21887 0.0
C165 C 0.12938 0.63394 0.26953 0.0
O166 O 0.10913 0.58936 0.23378 0.0
O167 O 0.12382 0.61767 0.269 0.0
C168 C 0.361 0.85923 0.71811 0.0
O169 O 0.37729 0.85826 0.71267 0.0
Cd170 Cd 0.40241 0.86877 0.73097 0.0
O171 O 0.35751 0.86371 0.73427 0.0
Cd172 Cd 0.37289 0.87021 0.76295 0.0
C173 C 0.38486 0.9097 0.74483 0.0
O174 O 0.40133 0.85408 0.75932 0.0
O175 O 0.4011 0.87534 0.77915 0.0
O176 O 0.3533 0.84771 0.77662 0.0
C177 C 0.4098 0.86291 0.77148 0.0
O178 O 0.39696 0.90095 0.73638 0.0
C179 C 0.34989 0.85686 0.79064 0.0
O180 O 0.37302 0.90168 0.75457 0.0
O181 O 0.35641 0.87281 0.79136 0.0
C182 C 0.09868 0.37637 0.77516 0.0
O183 O 0.08381 0.38058 0.78258 0.0
Cd184 Cd 0.06069 0.39723 0.76777 0.0
O185 O 0.10146 0.37936 0.75849 0.0
Cd186 Cd 0.08453 0.39 0.73172 0.0
C187 C 0.08596 0.4322 0.74902 0.0
O188 O 0.05448 0.38029 0.74119 0.0
O189 O 0.05533 0.39642 0.7171 0.0
O190 O 0.09347 0.364 0.71442 0.0
C191 C 0.04592 0.38757 0.7284 0.0
O192 O 0.07486 0.42657 0.76098 0.0
C193 C 0.10144 0.37287 0.70207 0.0
O194 O 0.09179 0.4217 0.73684 0.0
O195 O 0.10207 0.3899 0.70376 0.0
C196 C 0.61578 0.11409 0.7095 0.0
O197 O 0.59977 0.11284 0.70309 0.0
Cd198 Cd 0.57389 0.10327 0.72046 0.0
O199 O 0.61885 0.11205 0.72627 0.0
Cd200 Cd 0.60279 0.10798 0.75525 0.0
C201 C 0.59146 0.06562 0.74201 0.0
O202 O 0.57497 0.12242 0.74602 0.0
O203 O 0.57469 0.11108 0.77259 0.0
O204 O 0.62382 0.13117 0.76608 0.0
C205 C 0.56605 0.11888 0.76017 0.0
O206 O 0.58114 0.0727 0.73025 0.0
C207 C 0.62662 0.12381 0.78123 0.0
O208 O 0.60114 0.07529 0.75268 0.0
O209 O 0.61888 0.10865 0.78402 0.0
C210 C 0.8889 0.62177 0.78689 0.0
O211 O 0.90406 0.61663 0.79306 0.0
Cd212 Cd 0.92572 0.60039 0.77602 0.0
O213 O 0.88479 0.61986 0.77028 0.0
Cd214 Cd 0.89968 0.61013 0.74195 0.0
C215 C 0.89841 0.56707 0.75696 0.0
O216 O 0.92997 0.6195 0.75071 0.0
O217 O 0.92824 0.60533 0.72538 0.0
O218 O 0.88934 0.63656 0.72614 0.0
C219 C 0.93798 0.6136 0.73694 0.0
O220 O 0.91024 0.57171 0.76872 0.0
C221 C 0.88126 0.62788 0.71362 0.0
O222 O 0.89237 0.57834 0.74566 0.0
O223 O 0.88104 0.61081 0.71472 0.0
C224 C 0.18847 0.36836 0.10576 0.0
O225 O 0.18318 0.37603 0.09144 0.0
Cd226 Cd 0.20265 0.38408 0.06659 0.0
O227 O 0.20515 0.36468 0.1081 0.0
Cd228 Cd 0.23418 0.36864 0.09238 0.0
C229 C 0.22993 0.41411 0.08937 0.0
O230 O 0.22325 0.36002 0.06266 0.0
O231 O 0.25101 0.36997 0.06413 0.0
O232 O 0.2447 0.3398 0.10266 0.0
C233 C 0.23815 0.3633 0.05471 0.0
O234 O 0.21871 0.41129 0.07653 0.0
C235 C 0.25857 0.34599 0.11095 0.0
O236 O 0.23653 0.40111 0.09827 0.0
O237 O 0.26077 0.363 0.11134 0.0
C238 C 0.3033 0.59753 0.8811 0.0
O239 O 0.30862 0.58177 0.8847 0.0
Cd240 Cd 0.28874 0.55916 0.89695 0.0
O241 O 0.28651 0.60141 0.88173 0.0
Cd242 Cd 0.2566 0.58629 0.88601 0.0
C243 C 0.26643 0.58348 0.93006 0.0
O244 O 0.26395 0.55584 0.8766 0.0
O245 O 0.23836 0.55912 0.8904 0.0
O246 O 0.24513 0.59612 0.85726 0.0
C247 C 0.24925 0.5488 0.88236 0.0
O248 O 0.27814 0.57192 0.92537 0.0
C249 C 0.23188 0.60482 0.86356 0.0
O250 O 0.25653 0.59127 0.91844 0.0
O251 O 0.23057 0.60577 0.8806 0.0
C252 C 0.37512 0.28374 0.8669 0.0
O253 O 0.39048 0.29106 0.87032 0.0
Cd254 Cd 0.41502 0.27515 0.88447 0.0
O255 O 0.3722 0.26704 0.86968 0.0
Cd256 Cd 0.38871 0.24028 0.87925 0.0
C257 C 0.39261 0.25749 0.92122 0.0
O258 O 0.41849 0.24836 0.86728 0.0
O259 O 0.41729 0.22503 0.88463 0.0
O260 O 0.37631 0.22296 0.8544 0.0
C261 C 0.42659 0.23525 0.87445 0.0
O262 O 0.40521 0.26781 0.91523 0.0
C263 C 0.37001 0.21021 0.86403 0.0
O264 O 0.38361 0.24701 0.91078 0.0
O265 O 0.37141 0.21201 0.881 0.0
C266 C 0.68738 0.3986 0.88671 0.0
O267 O 0.6835 0.41297 0.89507 0.0
Cd268 Cd 0.70547 0.435 0.90562 0.0
O269 O 0.70383 0.39455 0.88365 0.0
Cd270 Cd 0.73453 0.40662 0.89 0.0
C271 C 0.72792 0.40752 0.93504 0.0
O272 O 0.72861 0.43809 0.88359 0.0
O273 O 0.75465 0.4324 0.89567 0.0
O274 O 0.74461 0.39823 0.86039 0.0
C275 C 0.744 0.44388 0.88902 0.0
O276 O 0.71868 0.4216 0.93225 0.0
C277 C 0.75746 0.38829 0.86558 0.0
O278 O 0.73407 0.39822 0.92202 0.0
O279 O 0.75924 0.38601 0.88245 0.0
C280 C 0.62593 0.71392 0.86772 0.0
O281 O 0.60974 0.70778 0.86788 0.0
Cd282 Cd 0.58577 0.72563 0.88007 0.0
O283 O 0.62947 0.73022 0.87195 0.0
Cd284 Cd 0.61386 0.75826 0.87931 0.0
C285 C 0.60638 0.74047 0.91969 0.0
O286 O 0.58495 0.75319 0.86378 0.0
O287 O 0.585 0.77255 0.88547 0.0
O288 O 0.63174 0.77218 0.85571 0.0
C289 C 0.57648 0.76507 0.87253 0.0
O290 O 0.59367 0.73146 0.91192 0.0
C291 C 0.6348 0.78683 0.86411 0.0
O292 O 0.61717 0.7506 0.91076 0.0
O293 O 0.62899 0.78785 0.88017 0.0
C294 C 0.78927 0.61196 0.12235 0.0
O295 O 0.79612 0.61125 0.10668 0.0
Cd296 Cd 0.77923 0.60458 0.08002 0.0
O297 O 0.7721 0.61108 0.12471 0.0
Cd298 Cd 0.74365 0.61031 0.10654 0.0
C299 C 0.75463 0.5676 0.09597 0.0
O300 O 0.75597 0.62621 0.08092 0.0
O301 O 0.72898 0.6153 0.07715 0.0
O302 O 0.73221 0.63361 0.12637 0.0
C303 C 0.74231 0.62411 0.07071 0.0
O304 O 0.7675 0.5742 0.08647 0.0
C305 C 0.71634 0.62671 0.12759 0.0
O306 O 0.7439 0.57765 0.10469 0.0
O307 O 0.7136 0.61157 0.11996 0.0
C308 C 0.38682 0.70015 0.11369 0.0
O309 O 0.40302 0.6948 0.11177 0.0
Cd310 Cd 0.4286 0.71239 0.10192 0.0
O311 O 0.38277 0.71666 0.11154 0.0
Cd312 Cd 0.39863 0.74598 0.10562 0.0
C313 C 0.40998 0.73143 0.06367 0.0
O314 O 0.42672 0.73822 0.12045 0.0
O315 O 0.42674 0.76437 0.10829 0.0
O316 O 0.37834 0.76039 0.12708 0.0
C317 C 0.43552 0.75247 0.11662 0.0
O318 O 0.42097 0.72047 0.07087 0.0
C319 C 0.3755 0.77396 0.1171 0.0
O320 O 0.40017 0.74171 0.07319 0.0
O321 O 0.3827 0.77395 0.10159 0.0
C322 C 0.60691 0.28104 0.11048 0.0
O323 O 0.59175 0.28708 0.10518 0.0
Cd324 Cd 0.56643 0.26957 0.09455 0.0
O325 O 0.61007 0.2642 0.1105 0.0
Cd326 Cd 0.59498 0.23498 0.10273 0.0
C327 C 0.58916 0.24881 0.05942 0.0
O328 O 0.56639 0.24476 0.11444 0.0
O329 O 0.566 0.21769 0.10427 0.0
O330 O 0.61434 0.22486 0.1271 0.0
C331 C 0.55724 0.2306 0.11097 0.0
O332 O 0.5777 0.26002 0.06538 0.0
C333 C 0.61684 0.20929 0.12057 0.0
O334 O 0.59764 0.23829 0.06993 0.0
O335 O 0.60967 0.20581 0.10534 0.0
C336 C 0.86827 0.69379 0.5994 0.0
O337 O 0.87586 0.68873 0.58493 0.0
Cd338 Cd 0.88485 0.7089 0.56104 0.0
O339 O 0.86539 0.71038 0.6024 0.0
Cd340 Cd 0.87064 0.73988 0.58833 0.0
C341 C 0.91619 0.73332 0.58556 0.0
O342 O 0.86099 0.73012 0.5583 0.0
O343 O 0.8709 0.75752 0.56065 0.0
O344 O 0.84388 0.74788 0.60574 0.0
C345 C 0.86435 0.7451 0.55075 0.0
O346 O 0.91293 0.72311 0.57207 0.0
C347 C 0.84957 0.76373 0.60937 0.0
O348 O 0.90332 0.74002 0.59469 0.0
O349 O 0.86521 0.76827 0.60362 0.0
C350 C 0.19555 0.89324 0.60796 0.0
O351 O 0.19108 0.90811 0.60092 0.0
Cd352 Cd 0.21117 0.93368 0.59636 0.0
O353 O 0.21199 0.89022 0.61226 0.0
Cd354 Cd 0.24166 0.90586 0.60942 0.0
C355 C 0.23802 0.91455 0.56469 0.0
O356 O 0.23099 0.93431 0.62173 0.0
O357 O 0.25902 0.93405 0.61359 0.0
O358 O 0.2509 0.88624 0.63402 0.0
C359 C 0.246 0.94276 0.62026 0.0
O360 O 0.22769 0.9275 0.5688 0.0
C361 C 0.26662 0.88353 0.62762 0.0
O362 O 0.24347 0.90355 0.57657 0.0
O363 O 0.2704 0.8908 0.61262 0.0
C364 C 0.11674 0.30335 0.59057 0.0
O365 O 0.10843 0.30724 0.57611 0.0
Cd366 Cd 0.09699 0.2854 0.5547 0.0
O367 O 0.11956 0.28702 0.59476 0.0
Cd368 Cd 0.11315 0.25649 0.58316 0.0
C369 C 0.06767 0.26351 0.58342 0.0
O370 O 0.11914 0.26263 0.55179 0.0
O371 O 0.10738 0.23641 0.55733 0.0
O372 O 0.14273 0.24603 0.59216 0.0
C373 C 0.1137 0.24745 0.54586 0.0
O374 O 0.07001 0.27285 0.56922 0.0
C375 C 0.13685 0.23402 0.6029 0.0
O376 O 0.0811 0.25702 0.59194 0.0
O377 O 0.11974 0.23271 0.60496 0.0
C378 C 0.79382 0.10966 0.61378 0.0
O379 O 0.80142 0.09456 0.61169 0.0
Cd380 Cd 0.78587 0.06781 0.60165 0.0
O381 O 0.77663 0.11109 0.61242 0.0
Cd382 Cd 0.7495 0.09114 0.60855 0.0
C383 C 0.76205 0.08513 0.56535 0.0
O384 O 0.76142 0.06364 0.62212 0.0
O385 O 0.73563 0.0613 0.60835 0.0
O386 O 0.73547 0.10743 0.63331 0.0
C387 C 0.74797 0.0538 0.6174 0.0
O388 O 0.77481 0.0755 0.57152 0.0
C389 C 0.72015 0.10872 0.62551 0.0
O390 O 0.75098 0.09288 0.57587 0.0
O391 O 0.71886 0.10265 0.60954 0.0
C392 C 0.89208 0.1888 0.38122 0.0
O393 O 0.90846 0.18482 0.38453 0.0
Cd394 Cd 0.93072 0.20702 0.39318 0.0
O395 O 0.88717 0.20516 0.38046 0.0
Cd396 Cd 0.90079 0.23588 0.38125 0.0
C397 C 0.90769 0.23118 0.42576 0.0
O398 O 0.93066 0.22875 0.36972 0.0
O399 O 0.9278 0.25561 0.38043 0.0
O400 O 0.88739 0.24311 0.35261 0.0
C401 C 0.93772 0.24415 0.37271 0.0
O402 O 0.91957 0.21968 0.42141 0.0
C403 C 0.87858 0.25657 0.35813 0.0
O404 O 0.89847 0.23931 0.41383 0.0
O405 O 0.8792 0.25998 0.3749 0.0
C406 C 0.68381 0.86336 0.38311 0.0
O407 O 0.67981 0.86925 0.39864 0.0
Cd408 Cd 0.70115 0.87777 0.42172 0.0
O409 O 0.70032 0.86167 0.37842 0.0
Cd410 Cd 0.73007 0.86874 0.39223 0.0
C411 C 0.72029 0.91243 0.39826 0.0
O412 O 0.72563 0.85703 0.42248 0.0
O413 O 0.7479 0.87597 0.41915 0.0
O414 O 0.74538 0.8429 0.37988 0.0
C415 C 0.73961 0.86475 0.42915 0.0
O416 O 0.71207 0.90759 0.41257 0.0
C417 C 0.75733 0.85202 0.37141 0.0
O418 O 0.72664 0.90084 0.38742 0.0
O419 O 0.75602 0.86904 0.37185 0.0
C420 C 0.10507 0.78542 0.38675 0.0
O421 O 0.08889 0.7904 0.38954 0.0
Cd422 Cd 0.06409 0.77056 0.39717 0.0
O423 O 0.10916 0.76882 0.38655 0.0
Cd424 Cd 0.09439 0.73878 0.3883 0.0
C425 C 0.08448 0.74665 0.43187 0.0
O426 O 0.06612 0.74762 0.3755 0.0
O427 O 0.06568 0.72081 0.38643 0.0
O428 O 0.10876 0.73087 0.36066 0.0
C429 C 0.0572 0.73326 0.37852 0.0
O430 O 0.07235 0.75725 0.42605 0.0
C431 C 0.11645 0.71685 0.36643 0.0
O432 O 0.09546 0.73888 0.42123 0.0
O433 O 0.11473 0.71322 0.38308 0.0
C434 C 0.29471 0.11445 0.38672 0.0
O435 O 0.30029 0.1069 0.40101 0.0
Cd436 Cd 0.28158 0.09905 0.42637 0.0
O437 O 0.27794 0.11771 0.38435 0.0
Cd438 Cd 0.24903 0.11252 0.40007 0.0
C439 C 0.25574 0.0674 0.40443 0.0
O440 O 0.26131 0.12371 0.42827 0.0
O441 O 0.2331 0.1157 0.42909 0.0
O442 O 0.23913 0.1372 0.38097 0.0
C443 C 0.24687 0.12207 0.43733 0.0
O444 O 0.26674 0.07084 0.4173 0.0
C445 C 0.22316 0.13077 0.37882 0.0
O446 O 0.2486 0.08001 0.39541 0.0
O447 O 0.21946 0.11579 0.38625 0.0
C448 C 0.58744 0.88722 0.70158 0.0
O449 O 0.57221 0.89444 0.69847 0.0
Cd450 Cd 0.54928 0.89976 0.72086 0.0
O451 O 0.59232 0.8833 0.71753 0.0
Cd452 Cd 0.58062 0.88717 0.74824 0.0
C453 C 0.57251 0.93213 0.7441 0.0
O454 O 0.55077 0.87496 0.74112 0.0
O455 O 0.55419 0.88429 0.76847 0.0
O456 O 0.59619 0.86051 0.75814 0.0
C457 C 0.54409 0.87678 0.75669 0.0
O458 O 0.55824 0.92798 0.73518 0.0
C459 C 0.60551 0.86838 0.77034 0.0
O460 O 0.58357 0.92011 0.74912 0.0
O461 O 0.60374 0.88528 0.77195 0.0
C462 C 0.12367 0.61604 0.78522 0.0
O463 O 0.10784 0.61208 0.79083 0.0
Cd464 Cd 0.08278 0.60398 0.77155 0.0
O465 O 0.12732 0.61567 0.76848 0.0
Cd466 Cd 0.11138 0.60867 0.73995 0.0
C467 C 0.10127 0.56638 0.75191 0.0
O468 O 0.08238 0.6232 0.74598 0.0
O469 O 0.08265 0.60359 0.72453 0.0
O470 O 0.12848 0.63384 0.72743 0.0
C471 C 0.07402 0.61547 0.73307 0.0
O472 O 0.0886 0.57355 0.76097 0.0
C473 C 0.13141 0.62648 0.71231 0.0
O474 O 0.11349 0.576 0.74422 0.0
O475 O 0.12607 0.61022 0.7104 0.0
C476 C 0.38085 0.09318 0.80664 0.0
O477 O 0.39079 0.08075 0.81274 0.0
Cd478 Cd 0.40481 0.05824 0.79409 0.0
O479 O 0.37875 0.09535 0.78978 0.0
Cd480 Cd 0.38983 0.0823 0.76162 0.0
C481 C 0.43499 0.08531 0.77189 0.0
O482 O 0.38359 0.05139 0.77048 0.0
O483 O 0.39596 0.05499 0.74433 0.0
O484 O 0.3618 0.09011 0.74645 0.0
C485 C 0.38921 0.0444 0.75598 0.0
O486 O 0.43264 0.07188 0.78229 0.0
C487 C 0.36934 0.10012 0.73472 0.0
O488 O 0.4216 0.09254 0.76399 0.0
O489 O 0.38648 0.10214 0.73571 0.0
C490 C 0.85791 0.3833 0.70122 0.0
O491 O 0.85867 0.3991 0.69478 0.0
Cd492 Cd 0.87259 0.42321 0.71211 0.0
O493 O 0.86177 0.3805 0.71767 0.0
Cd494 Cd 0.86899 0.39701 0.74551 0.0
C495 C 0.91035 0.40066 0.72812 0.0
O496 O 0.85781 0.42755 0.74021 0.0
O497 O 0.87977 0.42458 0.75931 0.0
O498 O 0.84284 0.38242 0.75919 0.0
C499 C 0.86849 0.43481 0.7517 0.0
O500 O 0.90365 0.41332 0.71875 0.0
C501 C 0.85087 0.37832 0.77373 0.0
O502 O 0.90041 0.39091 0.73834 0.0
O503 O 0.86768 0.38241 0.775 0.0
C504 C 0.61501 0.11658 0.29615 0.0
O505 O 0.60001 0.1111 0.30275 0.0
Cd506 Cd 0.57463 0.10039 0.28516 0.0
O507 O 0.61743 0.11696 0.27919 0.0
Cd508 Cd 0.60046 0.10995 0.2512 0.0
C509 C 0.59528 0.06589 0.26238 0.0
O510 O 0.57051 0.1203 0.2603 0.0
O511 O 0.57226 0.1063 0.23474 0.0
O512 O 0.6105 0.13772 0.23764 0.0
C513 C 0.56268 0.11473 0.24601 0.0
O514 O 0.58435 0.0712 0.27446 0.0
C515 C 0.61845 0.13064 0.22431 0.0
O516 O 0.60353 0.07704 0.2521 0.0
O517 O 0.61905 0.11355 0.22387 0.0
C518 C 0.88462 0.59417 0.21658 0.0
O519 O 0.89975 0.58862 0.21074 0.0
Cd520 Cd 0.92655 0.58524 0.22896 0.0
O521 O 0.88222 0.59732 0.23327 0.0
Cd522 Cd 0.89871 0.59513 0.26204 0.0
C523 C 0.91002 0.55135 0.25578 0.0
O524 O 0.92459 0.61027 0.24883 0.0
O525 O 0.92785 0.60414 0.27687 0.0
O526 O 0.87572 0.61675 0.27016 0.0
C527 C 0.93455 0.61096 0.2627 0.0
O528 O 0.92195 0.55675 0.24455 0.0
C529 C 0.87482 0.61204 0.28656 0.0
O530 O 0.89895 0.56223 0.26293 0.0
O531 O 0.88473 0.59909 0.29146 0.0
C532 C 0.36297 0.88134 0.19262 0.0
O533 O 0.36616 0.8968 0.18596 0.0
Cd534 Cd 0.38005 0.92067 0.20383 0.0
O535 O 0.36486 0.87852 0.2094 0.0
Cd536 Cd 0.37144 0.89432 0.2377 0.0
C537 C 0.41475 0.89659 0.22369 0.0
O538 O 0.36302 0.92504 0.2305 0.0
O539 O 0.37974 0.92136 0.25423 0.0
O540 O 0.34284 0.88538 0.25068 0.0
C541 C 0.37115 0.93195 0.24404 0.0
O542 O 0.40956 0.90912 0.21326 0.0
C543 C 0.34948 0.87701 0.26399 0.0
O544 O 0.40352 0.88778 0.23346 0.0
O545 O 0.36669 0.87579 0.26472 0.0
C546 C 0.12057 0.39803 0.29408 0.0
O547 O 0.1148 0.4127 0.30056 0.0
Cd548 Cd 0.09817 0.43385 0.2825 0.0
O549 O 0.11897 0.39442 0.27738 0.0
Cd550 Cd 0.10848 0.40801 0.24927 0.0
C551 C 0.06532 0.4055 0.26456 0.0
O552 O 0.11617 0.43922 0.25628 0.0
O553 O 0.0999 0.43463 0.23235 0.0
O554 O 0.13497 0.39851 0.23259 0.0
C555 C 0.10842 0.44564 0.24251 0.0
O556 O 0.069 0.41897 0.2747 0.0
C557 C 0.12597 0.3894 0.22099 0.0
O558 O 0.07749 0.39845 0.25483 0.0
O559 O 0.10884 0.38851 0.22294 0.0
C560 C 0.8032 0.62684 0.88853 0.0
O561 O 0.80845 0.62115 0.90374 0.0
Cd562 Cd 0.78833 0.61235 0.92759 0.0
O563 O 0.78637 0.62755 0.88468 0.0
Cd564 Cd 0.75779 0.619 0.89964 0.0
C565 C 0.76969 0.57611 0.90609 0.0
O566 O 0.76376 0.63316 0.92889 0.0
O567 O 0.74159 0.61387 0.92777 0.0
O568 O 0.74359 0.64248 0.8819 0.0
C569 C 0.75023 0.62585 0.93664 0.0
O570 O 0.778 0.58172 0.92015 0.0
C571 C 0.72936 0.63322 0.87833 0.0
O572 O 0.76278 0.58712 0.89502 0.0
O573 O 0.72865 0.6172 0.88421 0.0
C574 C 0.70129 0.37609 0.12192 0.0
O575 O 0.69326 0.3909 0.11974 0.0
Cd576 Cd 0.70765 0.41439 0.10286 0.0
O577 O 0.71798 0.37462 0.11782 0.0
Cd578 Cd 0.74345 0.39468 0.10863 0.0
C579 C 0.72725 0.39157 0.06711 0.0
O580 O 0.73455 0.42497 0.11774 0.0
O581 O 0.75338 0.4231 0.09553 0.0
O582 O 0.76122 0.39039 0.13555 0.0
C583 C 0.74522 0.4329 0.10682 0.0
O584 O 0.71495 0.40189 0.07307 0.0
C585 C 0.77446 0.38286 0.12785 0.0
O586 O 0.73971 0.38589 0.07745 0.0
O587 O 0.77318 0.38032 0.11096 0.0
C588 C 0.61981 0.79609 0.10509 0.0
O589 O 0.61534 0.80245 0.08989 0.0
Cd590 Cd 0.60209 0.78373 0.06655 0.0
O591 O 0.61905 0.77924 0.10811 0.0
Cd592 Cd 0.61287 0.75053 0.09259 0.0
C593 C 0.56869 0.76188 0.09128 0.0
O594 O 0.62197 0.75918 0.0625 0.0
O595 O 0.6074 0.73378 0.06445 0.0
O596 O 0.64098 0.73782 0.10295 0.0
C597 C 0.6156 0.74526 0.05465 0.0
O598 O 0.57291 0.77274 0.07863 0.0
C599 C 0.63365 0.72491 0.1116 0.0
O600 O 0.58073 0.75282 0.09939 0.0
O601 O 0.61639 0.72408 0.11188 0.0
C602 C 0.29783 0.59718 0.11082 0.0
O603 O 0.30319 0.58251 0.10395 0.0
Cd604 Cd 0.28441 0.55668 0.09627 0.0
O605 O 0.28103 0.59979 0.1137 0.0
Cd606 Cd 0.25212 0.58364 0.1079 0.0
C607 C 0.25994 0.57696 0.06323 0.0
O608 O 0.26132 0.55415 0.1184 0.0
O609 O 0.23477 0.55524 0.10616 0.0
O610 O 0.23769 0.59534 0.13472 0.0
C611 C 0.2468 0.54591 0.11381 0.0
O612 O 0.27043 0.56426 0.06772 0.0
C613 C 0.22549 0.60387 0.12634 0.0
O614 O 0.25284 0.58716 0.075 0.0
O615 O 0.22596 0.60344 0.10925 0.0
C616 C 0.37151 0.19411 0.10129 0.0
O617 O 0.37495 0.18838 0.08556 0.0
Cd618 Cd 0.38774 0.20797 0.06292 0.0
O619 O 0.3731 0.21074 0.10526 0.0
Cd620 Cd 0.37941 0.24038 0.09185 0.0
C621 C 0.42287 0.22749 0.08801 0.0
O622 O 0.36808 0.23296 0.06201 0.0
O623 O 0.38206 0.25857 0.06443 0.0
O624 O 0.35339 0.24962 0.10936 0.0
C625 C 0.37367 0.24729 0.05448 0.0
O626 O 0.41759 0.21751 0.07493 0.0
C627 C 0.36009 0.2649 0.11369 0.0
O628 O 0.41165 0.23656 0.0972 0.0
O629 O 0.37614 0.26855 0.10839 0.0
C630 C 0.19218 0.36695 0.87055 0.0
O631 O 0.18724 0.37208 0.88607 0.0
Cd632 Cd 0.20684 0.37898 0.91098 0.0
O633 O 0.20895 0.36555 0.86669 0.0
Cd634 Cd 0.23756 0.37241 0.88299 0.0
C635 C 0.22696 0.41537 0.89146 0.0
O636 O 0.23075 0.35764 0.91162 0.0
O637 O 0.25296 0.37684 0.91188 0.0
O638 O 0.25314 0.3491 0.86596 0.0
C639 C 0.24401 0.36472 0.92012 0.0
O640 O 0.21842 0.40942 0.90516 0.0
C641 C 0.26717 0.35883 0.86294 0.0
O642 O 0.23351 0.40465 0.87986 0.0
O643 O 0.2669 0.37501 0.86844 0.0
C644 C 0.60243 0.29292 0.8783 0.0
O645 O 0.58554 0.29523 0.88052 0.0
Cd646 Cd 0.565 0.27137 0.88888 0.0
O647 O 0.60913 0.27722 0.87891 0.0
Cd648 Cd 0.59816 0.24569 0.88179 0.0
C649 C 0.58839 0.25288 0.92487 0.0
O650 O 0.56842 0.24763 0.8678 0.0
O651 O 0.57179 0.22561 0.88627 0.0
O652 O 0.61279 0.23607 0.8546 0.0
C653 C 0.56199 0.23327 0.87459 0.0
O654 O 0.57439 0.26076 0.91877 0.0
C655 C 0.62168 0.22342 0.86168 0.0
O656 O 0.60065 0.24717 0.91434 0.0
O657 O 0.62061 0.22169 0.87867 0.0
C658 C 0.3995 0.69393 0.88226 0.0
O659 O 0.41541 0.69081 0.88808 0.0
Cd660 Cd 0.4388 0.71313 0.89405 0.0
O661 O 0.39406 0.70996 0.88003 0.0
Cd662 Cd 0.40553 0.74088 0.88518 0.0
C663 C 0.41745 0.73375 0.92903 0.0
O664 O 0.4346 0.73551 0.87174 0.0
O665 O 0.4316 0.76215 0.88273 0.0
O666 O 0.38836 0.75172 0.85983 0.0
C667 C 0.4415 0.75099 0.87455 0.0
O668 O 0.43128 0.72534 0.92343 0.0
C669 C 0.37938 0.76321 0.86866 0.0
O670 O 0.4054 0.73941 0.91816 0.0
O671 O 0.38204 0.76394 0.88556 0.0
C672 C 0.13949 0.38716 0.3198 0.0
C673 C 0.12662 0.38379 0.30623 0.0
C674 C 0.14474 0.37332 0.33152 0.0
C675 C 0.13609 0.35617 0.33011 0.0
C676 C 0.12295 0.35289 0.31643 0.0
C677 C 0.11872 0.36664 0.30442 0.0
C678 C 0.15926 0.37729 0.34543 0.0
C679 C 0.11289 0.33502 0.31474 0.0
C680 C 0.14844 0.31032 0.34639 0.0
C681 C 0.13621 0.3083 0.36067 0.0
C682 C 0.15072 0.32702 0.33785 0.0
C683 C 0.13976 0.34158 0.34317 0.0
C684 C 0.12894 0.34008 0.35883 0.0
C685 C 0.12755 0.32344 0.36762 0.0
C686 C 0.16343 0.32857 0.32201 0.0
C687 C 0.11708 0.35529 0.36498 0.0
H688 H 0.14561 0.40049 0.32109 0.0
H689 H 0.10862 0.36418 0.29398 0.0
H690 H 0.15285 0.38281 0.35772 0.0
H691 H 0.1668 0.36504 0.34921 0.0
H692 H 0.16911 0.38761 0.34044 0.0
H693 H 0.10222 0.33518 0.30412 0.0
H694 H 0.12256 0.32422 0.31141 0.0
H695 H 0.10635 0.33145 0.32772 0.0
H696 H 0.15543 0.29864 0.34125 0.0
H697 H 0.11816 0.32188 0.37876 0.0
H698 H 0.17031 0.342 0.32186 0.0
H699 H 0.15556 0.3271 0.30931 0.0
H700 H 0.17388 0.31795 0.3223 0.0
H701 H 0.12508 0.36805 0.36577 0.0
H702 H 0.11088 0.3526 0.37834 0.0
H703 H 0.106 0.35722 0.35502 0.0
C704 C 0.70168 0.12417 0.36204 0.0
C705 C 0.71325 0.11118 0.35489 0.0
C706 C 0.68599 0.1293 0.35266 0.0
C707 C 0.6815 0.12065 0.33618 0.0
C708 C 0.6937 0.10828 0.32847 0.0
C709 C 0.70959 0.10395 0.33779 0.0
C710 C 0.67375 0.14318 0.36087 0.0
C711 C 0.68928 0.09846 0.3111 0.0
C712 C 0.63265 0.11006 0.32383 0.0
C713 C 0.63058 0.12031 0.3082 0.0
C714 C 0.64891 0.11078 0.33368 0.0
C715 C 0.66317 0.12252 0.32807 0.0
C716 C 0.66049 0.13412 0.31324 0.0
C717 C 0.64433 0.13259 0.3032 0.0
C718 C 0.65134 0.09788 0.34917 0.0
C719 C 0.67503 0.14741 0.30738 0.0
H720 H 0.7046 0.12992 0.3752 0.0
H721 H 0.71848 0.09386 0.33223 0.0
H722 H 0.66847 0.15235 0.35038 0.0
H723 H 0.66191 0.13634 0.36725 0.0
H724 H 0.68094 0.15133 0.37134 0.0
H725 H 0.7006 0.08985 0.30654 0.0
H726 H 0.677 0.08979 0.31299 0.0
H727 H 0.68619 0.10819 0.30026 0.0
H728 H 0.62205 0.1005 0.32765 0.0
H729 H 0.64263 0.14068 0.29119 0.0
H730 H 0.65589 0.10524 0.36143 0.0
H731 H 0.66203 0.08807 0.34576 0.0
H732 H 0.63862 0.09028 0.35236 0.0
H733 H 0.68151 0.15406 0.31922 0.0
H734 H 0.66947 0.15791 0.29837 0.0
H735 H 0.68578 0.14022 0.29996 0.0
C736 C 0.84795 0.69174 0.35289 0.0
C737 C 0.86041 0.70422 0.34563 0.0
C738 C 0.84454 0.67512 0.3443 0.0
C739 C 0.85446 0.67073 0.32862 0.0
C740 C 0.86636 0.68371 0.32082 0.0
C741 C 0.86888 0.70041 0.32925 0.0
C742 C 0.83101 0.66212 0.35257 0.0
C743 C 0.87751 0.67958 0.30427 0.0
C744 C 0.87251 0.62536 0.31704 0.0
C745 C 0.86518 0.62316 0.29974 0.0
C746 C 0.86749 0.63994 0.32783 0.0
C747 C 0.85445 0.65213 0.32128 0.0
C748 C 0.84494 0.6482 0.30513 0.0
C749 C 0.85075 0.63395 0.29425 0.0
C750 C 0.87786 0.64354 0.34509 0.0
C751 C 0.82995 0.6601 0.29846 0.0
H752 H 0.8412 0.69476 0.36547 0.0
H753 H 0.8785 0.71003 0.32358 0.0
H754 H 0.82517 0.6526 0.34247 0.0
H755 H 0.83785 0.65423 0.3632 0.0
H756 H 0.81976 0.66949 0.35906 0.0
H757 H 0.88637 0.69112 0.30018 0.0
H758 H 0.88625 0.66783 0.30688 0.0
H759 H 0.86845 0.67605 0.2928 0.0
H760 H 0.88353 0.61688 0.32138 0.0
H761 H 0.84475 0.63195 0.28102 0.0
H762 H 0.86836 0.64656 0.3562 0.0
H763 H 0.88694 0.6555 0.34331 0.0
H764 H 0.8863 0.63195 0.3491 0.0
H765 H 0.82162 0.66499 0.30986 0.0
H766 H 0.82097 0.65287 0.28869 0.0
H767 H 0.83596 0.67203 0.2916 0.0
C768 C 0.34292 0.85759 0.29089 0.0
C769 C 0.33774 0.87124 0.27902 0.0
C770 C 0.33244 0.85357 0.30621 0.0
C771 C 0.31702 0.86406 0.31008 0.0
C772 C 0.31157 0.87756 0.29784 0.0
C773 C 0.32179 0.88069 0.2823 0.0
C774 C 0.33829 0.83853 0.31844 0.0
C775 C 0.29551 0.88944 0.30159 0.0
C776 C 0.2781 0.85719 0.3421 0.0
C777 C 0.28315 0.86921 0.35588 0.0
C778 C 0.29018 0.85332 0.32808 0.0
C779 C 0.30724 0.86239 0.32748 0.0
C780 C 0.31301 0.87315 0.34228 0.0
C781 C 0.30096 0.87617 0.3565 0.0
C782 C 0.28407 0.84079 0.31313 0.0
C783 C 0.33104 0.88317 0.34215 0.0
H784 H 0.35522 0.85018 0.28829 0.0
H785 H 0.31782 0.89134 0.2732 0.0
H786 H 0.34757 0.84406 0.32896 0.0
H787 H 0.3265 0.83199 0.32522 0.0
H788 H 0.3458 0.82814 0.31083 0.0
H789 H 0.29343 0.89962 0.29088 0.0
H790 H 0.28291 0.88113 0.30274 0.0
H791 H 0.29754 0.89661 0.3146 0.0
H792 H 0.26441 0.85153 0.34181 0.0
H793 H 0.30491 0.88541 0.3672 0.0
H794 H 0.29552 0.83247 0.30843 0.0
H795 H 0.27926 0.8488 0.30152 0.0
H796 H 0.27274 0.83175 0.31751 0.0
H797 H 0.34218 0.87393 0.33872 0.0
H798 H 0.33418 0.88963 0.35533 0.0
H799 H 0.33077 0.89381 0.33167 0.0
C800 C 0.12855 0.63441 0.68007 0.0
C801 C 0.13685 0.63762 0.6968 0.0
C802 C 0.12787 0.64805 0.66708 0.0
C803 C 0.13622 0.66499 0.67079 0.0
C804 C 0.14699 0.66723 0.68648 0.0
C805 C 0.14687 0.65362 0.69954 0.0
C806 C 0.11623 0.64507 0.65052 0.0
C807 C 0.15703 0.6847 0.69037 0.0
C808 C 0.13122 0.70068 0.63449 0.0
C809 C 0.11622 0.71011 0.64095 0.0
C810 C 0.1386 0.68646 0.64444 0.0
C811 C 0.13021 0.68112 0.66075 0.0
C812 C 0.11514 0.69077 0.66735 0.0
C813 C 0.10858 0.70535 0.65753 0.0
C814 C 0.15506 0.67701 0.63724 0.0
C815 C 0.10548 0.68535 0.68449 0.0
H816 H 0.12083 0.62201 0.6779 0.0
H817 H 0.15355 0.656 0.71239 0.0
H818 H 0.10344 0.65266 0.65197 0.0
H819 H 0.12327 0.65017 0.63835 0.0
H820 H 0.11266 0.63061 0.64845 0.0
H821 H 0.16787 0.68292 0.70063 0.0
H822 H 0.16321 0.69025 0.6779 0.0
H823 H 0.14735 0.69474 0.69558 0.0
H824 H 0.13719 0.70444 0.62168 0.0
H825 H 0.09689 0.71254 0.66247 0.0
H826 H 0.15061 0.6649 0.62951 0.0
H827 H 0.1641 0.67255 0.6483 0.0
H828 H 0.16301 0.68585 0.62802 0.0
H829 H 0.10072 0.67111 0.68353 0.0
H830 H 0.09357 0.69389 0.68736 0.0
H831 H 0.11498 0.68637 0.69609 0.0
C832 C 0.30624 0.13603 0.65479 0.0
C833 C 0.31104 0.12596 0.63958 0.0
C834 C 0.3167 0.13541 0.6706 0.0
C835 C 0.33192 0.12402 0.67129 0.0
C836 C 0.33747 0.11477 0.6556 0.0
C837 C 0.32708 0.11606 0.63984 0.0
C838 C 0.31079 0.146 0.68687 0.0
C839 C 0.35344 0.10224 0.65585 0.0
C840 C 0.3658 0.12238 0.70982 0.0
C841 C 0.35883 0.10782 0.71978 0.0
C842 C 0.3566 0.12861 0.69452 0.0
C843 C 0.34044 0.11966 0.68883 0.0
C844 C 0.33309 0.10531 0.69919 0.0
C845 C 0.34226 0.09975 0.71469 0.0
C846 C 0.36447 0.14434 0.68415 0.0
C847 C 0.31604 0.09519 0.69341 0.0
H848 H 0.29396 0.14389 0.65455 0.0
H849 H 0.33083 0.10823 0.62812 0.0
H850 H 0.30406 0.1368 0.69663 0.0
H851 H 0.3227 0.15233 0.69376 0.0
H852 H 0.30106 0.15668 0.68321 0.0
H853 H 0.35691 0.09729 0.64218 0.0
H854 H 0.36559 0.1091 0.66171 0.0
H855 H 0.35017 0.09045 0.66448 0.0
H856 H 0.37855 0.12875 0.71386 0.0
H857 H 0.33688 0.08845 0.72235 0.0
H858 H 0.3537 0.15405 0.68076 0.0
H859 H 0.37027 0.13948 0.67129 0.0
H860 H 0.3754 0.15151 0.69181 0.0
H861 H 0.30464 0.10463 0.69179 0.0
H862 H 0.31192 0.08462 0.70321 0.0
H863 H 0.31828 0.08869 0.68014 0.0
C864 C 0.87558 0.31476 0.62457 0.0
C865 C 0.86839 0.29738 0.62705 0.0
C866 C 0.87046 0.32897 0.63579 0.0
C867 C 0.85728 0.32581 0.64932 0.0
C868 C 0.84862 0.30869 0.65064 0.0
C869 C 0.85462 0.2945 0.63975 0.0
C870 C 0.88043 0.34686 0.63423 0.0
C871 C 0.83384 0.30508 0.66426 0.0
C872 C 0.8658 0.35239 0.69203 0.0
C873 C 0.8554 0.36773 0.68908 0.0
C874 C 0.86604 0.33839 0.67941 0.0
C875 C 0.855 0.33942 0.6638 0.0
C876 C 0.84343 0.35428 0.6614 0.0
C877 C 0.84411 0.36855 0.67389 0.0
C878 C 0.87902 0.32308 0.68227 0.0
C879 C 0.83085 0.35544 0.64538 0.0
H880 H 0.88629 0.31697 0.61478 0.0
H881 H 0.84889 0.28106 0.6415 0.0
H882 H 0.87066 0.35803 0.63338 0.0
H883 H 0.88888 0.34918 0.64646 0.0
H884 H 0.88943 0.34746 0.62226 0.0
H885 H 0.82589 0.29264 0.66095 0.0
H886 H 0.84 0.30338 0.67779 0.0
H887 H 0.82445 0.31659 0.66502 0.0
H888 H 0.87466 0.35183 0.70371 0.0
H889 H 0.83597 0.38038 0.6717 0.0
H890 H 0.88899 0.32274 0.67108 0.0
H891 H 0.87152 0.31001 0.68221 0.0
H892 H 0.88662 0.32433 0.69518 0.0
H893 H 0.83869 0.35971 0.63335 0.0
H894 H 0.81996 0.36537 0.64765 0.0
H895 H 0.82448 0.34211 0.64235 0.0
C896 C 0.67439 0.88598 0.6405 0.0
C897 C 0.67143 0.88019 0.62276 0.0
C898 C 0.66008 0.88622 0.65289 0.0
C899 C 0.64262 0.87987 0.64754 0.0
C900 C 0.63977 0.87328 0.62983 0.0
C901 C 0.65417 0.87387 0.6175 0.0
C902 C 0.66351 0.89386 0.6715 0.0
C903 C 0.62151 0.86579 0.62387 0.0
C904 C 0.61107 0.86911 0.6864 0.0
C905 C 0.60024 0.88443 0.68673 0.0
C906 C 0.62432 0.86698 0.67307 0.0
C907 C 0.62723 0.88086 0.66032 0.0
C908 C 0.61612 0.89625 0.66049 0.0
C909 C 0.6025 0.89769 0.67354 0.0
C910 C 0.63546 0.85008 0.67288 0.0
C911 C 0.6192 0.91159 0.64747 0.0
H912 H 0.68774 0.89103 0.64446 0.0
H913 H 0.65199 0.86929 0.60377 0.0
H914 H 0.65453 0.90549 0.67385 0.0
H915 H 0.66019 0.88362 0.68186 0.0
H916 H 0.67785 0.89841 0.67343 0.0
H917 H 0.62199 0.85977 0.61017 0.0
H918 H 0.61667 0.85535 0.63347 0.0
H919 H 0.61134 0.87665 0.62384 0.0
H920 H 0.60918 0.85883 0.69659 0.0
H921 H 0.5942 0.90961 0.67397 0.0
H922 H 0.64973 0.8534 0.67665 0.0
H923 H 0.63565 0.84419 0.65913 0.0
H924 H 0.63013 0.83977 0.68239 0.0
H925 H 0.63305 0.91743 0.64949 0.0
H926 H 0.60915 0.92245 0.64921 0.0
H927 H 0.61839 0.9066 0.6334 0.0
C928 C 0.34826 0.11506 0.29544 0.0
C929 C 0.36577 0.12265 0.29674 0.0
C930 C 0.33616 0.1161 0.30991 0.0
C931 C 0.34159 0.12541 0.32576 0.0
C932 C 0.35867 0.13444 0.32649 0.0
C933 C 0.37072 0.13267 0.31205 0.0
C934 C 0.3182 0.10599 0.30877 0.0
C935 C 0.36464 0.14504 0.34291 0.0
C936 C 0.30445 0.1326 0.36015 0.0
C937 C 0.30758 0.11839 0.37209 0.0
C938 C 0.31591 0.13561 0.34537 0.0
C939 C 0.33041 0.12375 0.34223 0.0
C940 C 0.33378 0.10955 0.35444 0.0
C941 C 0.32247 0.10722 0.3694 0.0
C942 C 0.31233 0.15124 0.33297 0.0
C943 C 0.34889 0.09638 0.35132 0.0
H944 H 0.34449 0.10721 0.28363 0.0
H945 H 0.38424 0.13868 0.31294 0.0
H946 H 0.31832 0.09446 0.31825 0.0
H947 H 0.30689 0.11479 0.3128 0.0
H948 H 0.3154 0.10071 0.295 0.0
H949 H 0.3768 0.15367 0.34016 0.0
H950 H 0.3535 0.15368 0.34775 0.0
H951 H 0.36804 0.13563 0.35395 0.0
H952 H 0.29299 0.14132 0.36234 0.0
H953 H 0.32479 0.09615 0.37856 0.0
H954 H 0.30778 0.14613 0.31962 0.0
H955 H 0.32501 0.15924 0.33082 0.0
H956 H 0.30174 0.16027 0.33834 0.0
H957 H 0.34678 0.08939 0.33823 0.0
H958 H 0.34964 0.08607 0.36211 0.0
H959 H 0.36216 0.10364 0.35064 0.0
C960 C 0.85667 0.28077 0.35002 0.0
C961 C 0.87084 0.26936 0.34521 0.0
C962 C 0.85144 0.29483 0.33856 0.0
C963 C 0.86137 0.29803 0.32253 0.0
C964 C 0.87516 0.28599 0.31733 0.0
C965 C 0.87938 0.27156 0.32853 0.0
C966 C 0.83594 0.3066 0.34418 0.0
C967 C 0.88656 0.28912 0.30067 0.0
C968 C 0.85466 0.32852 0.2829 0.0
C969 C 0.86662 0.34269 0.28748 0.0
C970 C 0.85053 0.31491 0.2954 0.0
C971 C 0.85948 0.31505 0.31231 0.0
C972 C 0.87014 0.33027 0.31753 0.0
C973 C 0.87326 0.34412 0.30512 0.0
C974 C 0.83782 0.29968 0.29 0.0
C975 C 0.87998 0.33099 0.33541 0.0
H976 H 0.84992 0.27895 0.36286 0.0
H977 H 0.8904 0.26279 0.32483 0.0
H978 H 0.84101 0.31695 0.35384 0.0
H979 H 0.82965 0.3135 0.33254 0.0
H980 H 0.82529 0.2985 0.35118 0.0
H981 H 0.89706 0.2787 0.29886 0.0
H982 H 0.8778 0.2891 0.2885 0.0
H983 H 0.89349 0.3025 0.3015 0.0
H984 H 0.84921 0.32762 0.26934 0.0
H985 H 0.88243 0.35517 0.30868 0.0
H986 H 0.8297 0.29496 0.3017 0.0
H987 H 0.84579 0.28816 0.28502 0.0
H988 H 0.82844 0.30381 0.27907 0.0
H989 H 0.87028 0.32872 0.34658 0.0
H990 H 0.88712 0.34412 0.33768 0.0
H991 H 0.89016 0.32014 0.33597 0.0
C992 C 0.65457 0.87278 0.36978 0.0
C993 C 0.66939 0.8612 0.36944 0.0
C994 C 0.64237 0.87339 0.35531 0.0
C995 C 0.6447 0.86167 0.34046 0.0
C996 C 0.65889 0.84903 0.34064 0.0
C997 C 0.67134 0.8492 0.35501 0.0
C998 C 0.6277 0.8874 0.35543 0.0
C999 C 0.66133 0.83583 0.32538 0.0
C1000 C 0.60365 0.86032 0.30965 0.0
C1001 C 0.60911 0.8724 0.29618 0.0
C1002 C 0.61564 0.85559 0.3235 0.0
C1003 C 0.63312 0.86379 0.32425 0.0
C1004 C 0.63885 0.87561 0.31034 0.0
C1005 C 0.62683 0.87951 0.29625 0.0
C1006 C 0.60935 0.84237 0.33768 0.0
C1007 C 0.6572 0.88503 0.31093 0.0
H1008 H 0.65316 0.8822 0.38085 0.0
H1009 H 0.68278 0.84018 0.35481 0.0
H1010 H 0.62987 0.8969 0.3441 0.0
H1011 H 0.61415 0.88091 0.35347 0.0
H1012 H 0.62751 0.89523 0.3682 0.0
H1013 H 0.67112 0.82515 0.32887 0.0
H1014 H 0.64811 0.82938 0.32168 0.0
H1015 H 0.66645 0.84305 0.31332 0.0
H1016 H 0.58995 0.8547 0.30941 0.0
H1017 H 0.63094 0.88893 0.28584 0.0
H1018 H 0.6068 0.84962 0.35048 0.0
H1019 H 0.62003 0.83234 0.34036 0.0
H1020 H 0.59663 0.83513 0.33363 0.0
H1021 H 0.65798 0.894 0.32291 0.0
H1022 H 0.65982 0.89327 0.29871 0.0
H1023 H 0.66817 0.87507 0.31227 0.0
C1024 C 0.14836 0.65736 0.28509 0.0
C1025 C 0.13746 0.64174 0.28599 0.0
C1026 C 0.15124 0.66807 0.30046 0.0
C1027 C 0.14209 0.66353 0.31659 0.0
C1028 C 0.13323 0.64653 0.31811 0.0
C1029 C 0.13127 0.63565 0.30275 0.0
C1030 C 0.16223 0.68532 0.29888 0.0
C1031 C 0.12363 0.64097 0.33519 0.0
C1032 C 0.13928 0.69342 0.35829 0.0
C1033 C 0.12452 0.70415 0.35364 0.0
C1034 C 0.14602 0.6807 0.34602 0.0
C1035 C 0.13709 0.67814 0.32923 0.0
C1036 C 0.12214 0.68904 0.32462 0.0
C1037 C 0.11639 0.70217 0.3367 0.0
C1038 C 0.16238 0.66996 0.35136 0.0
C1039 C 0.11167 0.68647 0.30719 0.0
H1040 H 0.15358 0.66183 0.27219 0.0
H1041 H 0.12306 0.62341 0.3035 0.0
H1042 H 0.15301 0.69666 0.29609 0.0
H1043 H 0.16959 0.68833 0.31165 0.0
H1044 H 0.17219 0.68456 0.2877 0.0
H1045 H 0.11891 0.62668 0.33474 0.0
H1046 H 0.13278 0.64286 0.34695 0.0
H1047 H 0.11164 0.64961 0.33727 0.0
H1048 H 0.14561 0.69503 0.37142 0.0
H1049 H 0.10483 0.71035 0.3332 0.0
H1050 H 0.16934 0.66395 0.33961 0.0
H1051 H 0.15804 0.65898 0.36057 0.0
H1052 H 0.17231 0.67861 0.35886 0.0
H1053 H 0.12051 0.68986 0.29558 0.0
H1054 H 0.09947 0.69505 0.30648 0.0
H1055 H 0.10718 0.6722 0.30567 0.0
C1056 C 0.33119 0.8692 0.70683 0.0
C1057 C 0.34595 0.85769 0.70507 0.0
C1058 C 0.31797 0.8702 0.69332 0.0
C1059 C 0.31918 0.85886 0.67802 0.0
C1060 C 0.33334 0.84623 0.67681 0.0
C1061 C 0.34687 0.8461 0.6902 0.0
C1062 C 0.30341 0.88424 0.69492 0.0
C1063 C 0.33458 0.83337 0.66111 0.0
C1064 C 0.27581 0.86121 0.65086 0.0
C1065 C 0.28062 0.87436 0.63818 0.0
C1066 C 0.28883 0.85452 0.66286 0.0
C1067 C 0.30672 0.86184 0.66262 0.0
C1068 C 0.31182 0.87438 0.64914 0.0
C1069 C 0.29875 0.88022 0.63685 0.0
C1070 C 0.28315 0.84047 0.67646 0.0
C1071 C 0.33061 0.8829 0.6487 0.0
H1072 H 0.33056 0.87827 0.71827 0.0
H1073 H 0.35825 0.83709 0.68895 0.0
H1074 H 0.30464 0.89394 0.68363 0.0
H1075 H 0.28973 0.87781 0.694 0.0
H1076 H 0.30433 0.89186 0.7078 0.0
H1077 H 0.34372 0.82199 0.66413 0.0
H1078 H 0.32094 0.82787 0.65744 0.0
H1079 H 0.34004 0.84061 0.64921 0.0
H1080 H 0.26181 0.8565 0.6517 0.0
H1081 H 0.30244 0.89044 0.62705 0.0
H1082 H 0.28102 0.84697 0.68973 0.0
H1083 H 0.29392 0.83032 0.67816 0.0
H1084 H 0.27029 0.83346 0.67245 0.0
H1085 H 0.33271 0.89135 0.66091 0.0
H1086 H 0.33272 0.8915 0.63665 0.0
H1087 H 0.34114 0.87241 0.64881 0.0
C1088 C 0.10141 0.34666 0.68127 0.0
C1089 C 0.10822 0.36381 0.68578 0.0
C1090 C 0.10589 0.33852 0.66491 0.0
C1091 C 0.11791 0.34756 0.65297 0.0
C1092 C 0.12563 0.36446 0.65787 0.0
C1093 C 0.12045 0.37256 0.67415 0.0
C1094 C 0.09713 0.32057 0.66009 0.0
C1095 C 0.13895 0.3742 0.64574 0.0
C1096 C 0.13346 0.31471 0.6177 0.0
C1097 C 0.12051 0.31749 0.60413 0.0
C1098 C 0.13415 0.32581 0.63301 0.0
C1099 C 0.12123 0.33957 0.63496 0.0
C1100 C 0.10922 0.3434 0.62058 0.0
C1101 C 0.10918 0.33242 0.6052 0.0
C1102 C 0.14764 0.32178 0.64775 0.0
C1103 C 0.09507 0.35781 0.62219 0.0
H1104 H 0.09189 0.33989 0.6902 0.0
H1105 H 0.12584 0.38579 0.67769 0.0
H1106 H 0.08896 0.32191 0.64759 0.0
H1107 H 0.10771 0.31046 0.65744 0.0
H1108 H 0.0881 0.31536 0.67092 0.0
H1109 H 0.14586 0.38567 0.65272 0.0
H1110 H 0.14939 0.36482 0.64076 0.0
H1111 H 0.13168 0.37948 0.63382 0.0
H1112 H 0.14243 0.30332 0.61678 0.0
H1113 H 0.09916 0.33462 0.59473 0.0
H1114 H 0.14069 0.31418 0.65866 0.0
H1115 H 0.15328 0.33442 0.6537 0.0
H1116 H 0.15902 0.31354 0.64271 0.0
H1117 H 0.08446 0.35334 0.63187 0.0
H1118 H 0.0884 0.36064 0.60908 0.0
H1119 H 0.10119 0.37051 0.62748 0.0
C1120 C 0.70561 0.12649 0.64997 0.0
C1121 C 0.70398 0.11446 0.63547 0.0
C1122 C 0.69078 0.12963 0.66133 0.0
C1123 C 0.6743 0.11988 0.6585 0.0
C1124 C 0.67238 0.10837 0.64336 0.0
C1125 C 0.68718 0.10607 0.63181 0.0
C1126 C 0.69306 0.14261 0.67688 0.0
C1127 C 0.65524 0.0973 0.64016 0.0
C1128 C 0.64679 0.10654 0.69947 0.0
C1129 C 0.63119 0.1168 0.69723 0.0
C1130 C 0.66104 0.10762 0.68705 0.0
C1131 C 0.65993 0.11984 0.67248 0.0
C1132 C 0.64457 0.13094 0.67071 0.0
C1133 C 0.63014 0.12899 0.68292 0.0
C1134 C 0.67691 0.09513 0.6891 0.0
C1135 C 0.64328 0.14464 0.6558 0.0
H1136 H 0.7186 0.13307 0.6527 0.0
H1137 H 0.68597 0.09665 0.62067 0.0
H1138 H 0.68089 0.15114 0.67822 0.0
H1139 H 0.69455 0.13498 0.6896 0.0
H1140 H 0.70525 0.15148 0.67524 0.0
H1141 H 0.65552 0.0899 0.62714 0.0
H1142 H 0.65354 0.08735 0.65119 0.0
H1143 H 0.64315 0.106 0.64029 0.0
H1144 H 0.64748 0.09703 0.7105 0.0
H1145 H 0.61808 0.13704 0.68135 0.0
H1146 H 0.68979 0.10302 0.69028 0.0
H1147 H 0.67799 0.08646 0.67696 0.0
H1148 H 0.67558 0.08632 0.70111 0.0
H1149 H 0.65598 0.15289 0.65513 0.0
H1150 H 0.6316 0.15375 0.65768 0.0
H1151 H 0.64165 0.13767 0.64266 0.0
C1152 C 0.87655 0.66631 0.61639 0.0
C1153 C 0.86485 0.68078 0.614 0.0
C1154 C 0.87619 0.65626 0.63234 0.0
C1155 C 0.86347 0.66054 0.64592 0.0
C1156 C 0.85043 0.67396 0.64275 0.0
C1157 C 0.85146 0.68415 0.62691 0.0
C1158 C 0.89052 0.64223 0.63531 0.0
C1159 C 0.83623 0.67843 0.65661 0.0
C1160 C 0.86261 0.6282 0.68539 0.0
C1161 C 0.87435 0.63712 0.69751 0.0
C1162 C 0.85799 0.63611 0.66887 0.0
C1163 C 0.86577 0.65303 0.66426 0.0
C1164 C 0.87706 0.66237 0.67678 0.0
C1165 C 0.88099 0.65439 0.69336 0.0
C1166 C 0.84539 0.62608 0.65612 0.0
C1167 C 0.88584 0.68035 0.67229 0.0
H1168 H 0.88694 0.66371 0.60644 0.0
H1169 H 0.84224 0.69522 0.62495 0.0
H1170 H 0.90026 0.64709 0.64576 0.0
H1171 H 0.88426 0.62951 0.64027 0.0
H1172 H 0.89822 0.63931 0.62283 0.0
H1173 H 0.82508 0.68646 0.65075 0.0
H1174 H 0.83033 0.66596 0.66259 0.0
H1175 H 0.84261 0.68638 0.66769 0.0
H1176 H 0.85735 0.61488 0.68864 0.0
H1177 H 0.89012 0.66131 0.70267 0.0
H1178 H 0.85331 0.6206 0.64473 0.0
H1179 H 0.83517 0.63529 0.6504 0.0
H1180 H 0.83818 0.61469 0.66286 0.0
H1181 H 0.89491 0.67883 0.66048 0.0
H1182 H 0.89398 0.68597 0.68368 0.0
H1183 H 0.87532 0.69021 0.6686 0.0
C1184 C 0.28443 0.33894 0.13164 0.0
C1185 C 0.27276 0.33389 0.11747 0.0
C1186 C 0.29931 0.32824 0.13625 0.0
C1187 C 0.30303 0.31276 0.12579 0.0
C1188 C 0.29091 0.3074 0.11182 0.0
C1189 C 0.27572 0.31783 0.10813 0.0
C1190 C 0.31131 0.33399 0.15182 0.0
C1191 C 0.29455 0.29127 0.09995 0.0
C1192 C 0.3498 0.2964 0.11501 0.0
C1193 C 0.34851 0.27878 0.12156 0.0
C1194 C 0.33566 0.30849 0.11777 0.0
C1195 C 0.32029 0.30293 0.12791 0.0
C1196 C 0.32025 0.28605 0.13671 0.0
C1197 C 0.33418 0.27391 0.13303 0.0
C1198 C 0.33623 0.32633 0.10807 0.0
C1199 C 0.30473 0.28021 0.14868 0.0
H1200 H 0.28205 0.35133 0.13896 0.0
H1201 H 0.26676 0.31399 0.09709 0.0
H1202 H 0.31788 0.32232 0.15831 0.0
H1203 H 0.32214 0.34329 0.14688 0.0
H1204 H 0.3034 0.34134 0.16214 0.0
H1205 H 0.28399 0.28927 0.08937 0.0
H1206 H 0.30795 0.29297 0.09328 0.0
H1207 H 0.29506 0.27887 0.10819 0.0
H1208 H 0.36094 0.30015 0.10617 0.0
H1209 H 0.33337 0.26034 0.13835 0.0
H1210 H 0.33299 0.33745 0.11745 0.0
H1211 H 0.3258 0.32623 0.09722 0.0
H1212 H 0.34972 0.32921 0.10193 0.0
H1213 H 0.3 0.29167 0.15697 0.0
H1214 H 0.30871 0.26905 0.15774 0.0
H1215 H 0.29313 0.27542 0.14027 0.0
C1216 C 0.38627 0.66434 0.89124 0.0
C1217 C 0.38663 0.67885 0.87927 0.0
C1218 C 0.37276 0.65087 0.88989 0.0
C1219 C 0.35977 0.65167 0.87581 0.0
C1220 C 0.3607 0.66581 0.86309 0.0
C1221 C 0.37394 0.67948 0.8652 0.0
C1222 C 0.37188 0.6363 0.90403 0.0
C1223 C 0.34749 0.66672 0.84754 0.0
C1224 C 0.33303 0.60815 0.86867 0.0
C1225 C 0.31689 0.61188 0.87779 0.0
C1226 C 0.34676 0.62137 0.86698 0.0
C1227 C 0.3445 0.63838 0.87525 0.0
C1228 C 0.32804 0.64229 0.88415 0.0
C1229 C 0.31428 0.62906 0.88503 0.0
C1230 C 0.36386 0.61698 0.85679 0.0
C1231 C 0.32531 0.6601 0.89359 0.0
H1232 H 0.39602 0.66399 0.90222 0.0
H1233 H 0.37435 0.69069 0.85587 0.0
H1234 H 0.3588 0.63704 0.91138 0.0
H1235 H 0.37236 0.62282 0.89761 0.0
H1236 H 0.38319 0.63749 0.91394 0.0
H1237 H 0.3514 0.67733 0.83769 0.0
H1238 H 0.34665 0.65356 0.84044 0.0
H1239 H 0.3337 0.66964 0.85264 0.0
H1240 H 0.33495 0.59486 0.86297 0.0
H1241 H 0.30183 0.63186 0.89223 0.0
H1242 H 0.37543 0.616 0.86633 0.0
H1243 H 0.36725 0.6279 0.84713 0.0
H1244 H 0.36253 0.60405 0.84929 0.0
H1245 H 0.33557 0.66181 0.90449 0.0
H1246 H 0.31155 0.66112 0.89958 0.0
H1247 H 0.32734 0.6714 0.88404 0.0
C1248 C 0.28361 0.33518 0.84584 0.0
C1249 C 0.28408 0.35085 0.85638 0.0
C1250 C 0.29944 0.32527 0.84309 0.0
C1251 C 0.31576 0.33078 0.85182 0.0
C1252 C 0.31658 0.34739 0.86121 0.0
C1253 C 0.30075 0.35742 0.86307 0.0
C1254 C 0.29836 0.30818 0.83208 0.0
C1255 C 0.33358 0.3536 0.87102 0.0
C1256 C 0.34383 0.29377 0.87199 0.0
C1257 C 0.35977 0.29501 0.86186 0.0
C1258 C 0.32937 0.30526 0.86866 0.0
C1259 C 0.3306 0.31773 0.85429 0.0
C1260 C 0.34636 0.31837 0.84338 0.0
C1261 C 0.36105 0.30728 0.84764 0.0
C1262 C 0.31308 0.30449 0.88102 0.0
C1263 C 0.34791 0.33091 0.82749 0.0
H1264 H 0.27075 0.33025 0.84043 0.0
H1265 H 0.30113 0.36956 0.87122 0.0
H1266 H 0.31077 0.30669 0.82378 0.0
H1267 H 0.2974 0.29639 0.84119 0.0
H1268 H 0.28625 0.30791 0.82309 0.0
H1269 H 0.33248 0.36757 0.87626 0.0
H1270 H 0.33612 0.34449 0.88256 0.0
H1271 H 0.34555 0.35299 0.86204 0.0
H1272 H 0.34302 0.2843 0.88307 0.0
H1273 H 0.37343 0.30806 0.83977 0.0
H1274 H 0.30063 0.30098 0.87322 0.0
H1275 H 0.31099 0.3179 0.88726 0.0
H1276 H 0.31462 0.29443 0.89194 0.0
H1277 H 0.33469 0.33205 0.82037 0.0
H1278 H 0.35829 0.3263 0.81775 0.0
H1279 H 0.35205 0.34455 0.83224 0.0
C1280 C 0.6085 0.3244 0.86793 0.0
C1281 C 0.61461 0.30873 0.87632 0.0
C1282 C 0.61961 0.33993 0.86716 0.0
C1283 C 0.63691 0.33988 0.87557 0.0
C1284 C 0.64321 0.32398 0.88382 0.0
C1285 C 0.63207 0.30849 0.88383 0.0
C1286 C 0.61274 0.35645 0.85769 0.0
C1287 C 0.66139 0.32351 0.89331 0.0
C1288 C 0.67472 0.374 0.86724 0.0
C1289 C 0.6729 0.38542 0.88216 0.0
C1290 C 0.66227 0.3598 0.86417 0.0
C1291 C 0.64812 0.35663 0.8767 0.0
C1292 C 0.64583 0.36857 0.89139 0.0
C1293 C 0.65811 0.38302 0.89378 0.0
C1294 C 0.66474 0.34774 0.84799 0.0
C1295 C 0.63119 0.36538 0.90529 0.0
H1296 H 0.59501 0.32451 0.862 0.0
H1297 H 0.63673 0.29641 0.89045 0.0
H1298 H 0.61032 0.36728 0.86766 0.0
H1299 H 0.6231 0.36161 0.84808 0.0
H1300 H 0.59988 0.35368 0.85023 0.0
H1301 H 0.66426 0.31005 0.89904 0.0
H1302 H 0.67245 0.3272 0.88384 0.0
H1303 H 0.66173 0.33357 0.90441 0.0
H1304 H 0.6861 0.37597 0.85817 0.0
H1305 H 0.65679 0.39178 0.9054 0.0
H1306 H 0.65154 0.34529 0.84105 0.0
H1307 H 0.66982 0.33448 0.85242 0.0
H1308 H 0.67457 0.35358 0.83821 0.0
H1309 H 0.6177 0.3639 0.89871 0.0
H1310 H 0.63058 0.37649 0.91532 0.0
H1311 H 0.63382 0.35263 0.91255 0.0
C1312 C 0.69601 0.63661 0.87624 0.0
C1313 C 0.71337 0.64158 0.87017 0.0
C1314 C 0.68098 0.64723 0.87231 0.0
C1315 C 0.68336 0.66276 0.8615 0.0
C1316 C 0.70046 0.66654 0.85356 0.0
C1317 C 0.71543 0.65612 0.85834 0.0
C1318 C 0.66308 0.64293 0.88138 0.0
C1319 C 0.70327 0.68242 0.84118 0.0
C1320 C 0.64007 0.68812 0.85156 0.0
C1321 C 0.64106 0.70164 0.86473 0.0
C1322 C 0.65428 0.67588 0.84954 0.0
C1323 C 0.66922 0.67674 0.86161 0.0
C1324 C 0.67023 0.6905 0.87485 0.0
C1325 C 0.6563 0.703 0.87597 0.0
C1326 C 0.6531 0.66189 0.83478 0.0
C1327 C 0.68564 0.69162 0.88835 0.0
H1328 H 0.69444 0.62535 0.88541 0.0
H1329 H 0.72886 0.65978 0.85343 0.0
H1330 H 0.66053 0.65316 0.89197 0.0
H1331 H 0.65171 0.64349 0.87159 0.0
H1332 H 0.66296 0.62941 0.88775 0.0
H1333 H 0.71589 0.68118 0.83314 0.0
H1334 H 0.69154 0.68377 0.83187 0.0
H1335 H 0.70435 0.69498 0.84928 0.0
H1336 H 0.62826 0.68719 0.84281 0.0
H1337 H 0.65692 0.7134 0.88626 0.0
H1338 H 0.64865 0.64879 0.84054 0.0
H1339 H 0.66657 0.65996 0.82844 0.0
H1340 H 0.64318 0.66565 0.82419 0.0
H1341 H 0.68641 0.67882 0.89597 0.0
H1342 H 0.68403 0.70284 0.89812 0.0
H1343 H 0.69877 0.6936 0.88129 0.0
C1344 C 0.63854 0.70023 0.13396 0.0
C1345 C 0.64479 0.7106 0.11943 0.0
C1346 C 0.64877 0.6858 0.14049 0.0
C1347 C 0.6651 0.68124 0.13167 0.0
C1348 C 0.67152 0.69192 0.11715 0.0
C1349 C 0.66146 0.70666 0.11147 0.0
C1350 C 0.64173 0.67527 0.15644 0.0
C1351 C 0.68866 0.68735 0.10702 0.0
C1352 C 0.70437 0.65267 0.14504 0.0
C1353 C 0.70108 0.63755 0.13409 0.0
C1354 C 0.69133 0.66615 0.14659 0.0
C1355 C 0.67511 0.6647 0.13636 0.0
C1356 C 0.67086 0.64846 0.12713 0.0
C1357 C 0.68385 0.6349 0.12635 0.0
C1358 C 0.69573 0.68275 0.15763 0.0
C1359 C 0.65367 0.64631 0.11612 0.0
H1360 H 0.62567 0.70337 0.14022 0.0
H1361 H 0.66624 0.71462 0.10016 0.0
H1362 H 0.63282 0.66406 0.1516 0.0
H1363 H 0.65295 0.66946 0.16444 0.0
H1364 H 0.63348 0.6839 0.16539 0.0
H1365 H 0.69139 0.69672 0.09567 0.0
H1366 H 0.70052 0.68787 0.11626 0.0
H1367 H 0.68755 0.67345 0.10155 0.0
H1368 H 0.71757 0.65456 0.15138 0.0
H1369 H 0.68118 0.62312 0.11802 0.0
H1370 H 0.68337 0.68771 0.16446 0.0
H1371 H 0.70085 0.69361 0.14865 0.0
H1372 H 0.70634 0.68009 0.16791 0.0
H1373 H 0.6417 0.65042 0.12407 0.0
H1374 H 0.65144 0.63221 0.11144 0.0
H1375 H 0.65451 0.65519 0.10414 0.0
C1376 C 0.35549 0.688 0.10857 0.0
C1377 C 0.37239 0.68663 0.11712 0.0
C1378 C 0.34273 0.67378 0.10929 0.0
C1379 C 0.34683 0.65811 0.11927 0.0
C1380 C 0.36336 0.65726 0.129 0.0
C1381 C 0.3761 0.67142 0.12755 0.0
C1382 C 0.32543 0.67501 0.0984 0.0
C1383 C 0.36794 0.64105 0.14026 0.0
C1384 C 0.30783 0.625 0.12738 0.0
C1385 C 0.31102 0.61202 0.11406 0.0
C1386 C 0.31971 0.63983 0.12968 0.0
C1387 C 0.33473 0.64196 0.11798 0.0
C1388 C 0.33806 0.6288 0.10459 0.0
C1389 C 0.32631 0.61384 0.10299 0.0
C1390 C 0.3161 0.65328 0.14446 0.0
C1391 C 0.35372 0.63079 0.09159 0.0
H1392 H 0.3527 0.69973 0.1004 0.0
H1393 H 0.38914 0.67046 0.13429 0.0
H1394 H 0.32561 0.66493 0.08734 0.0
H1395 H 0.31343 0.67184 0.10689 0.0
H1396 H 0.32371 0.68858 0.09242 0.0
H1397 H 0.38004 0.64359 0.14896 0.0
H1398 H 0.35627 0.63713 0.1489 0.0
H1399 H 0.3708 0.62945 0.13132 0.0
H1400 H 0.29604 0.62353 0.13601 0.0
H1401 H 0.32868 0.60391 0.09256 0.0
H1402 H 0.31285 0.66653 0.13852 0.0
H1403 H 0.32844 0.65526 0.15292 0.0
H1404 H 0.30463 0.64897 0.15324 0.0
H1405 H 0.35252 0.64359 0.08402 0.0
H1406 H 0.35423 0.61949 0.08179 0.0
H1407 H 0.36678 0.63144 0.09907 0.0
C1408 C 0.67469 0.36129 0.13682 0.0
C1409 C 0.69041 0.3599 0.12637 0.0
C1410 C 0.66215 0.3469 0.13783 0.0
C1411 C 0.66515 0.33114 0.12756 0.0
C1412 C 0.68169 0.32918 0.11812 0.0
C1413 C 0.69429 0.34354 0.11789 0.0
C1414 C 0.645 0.34918 0.14865 0.0
C1415 C 0.68525 0.31279 0.10665 0.0
C1416 C 0.63372 0.29003 0.12942 0.0
C1417 C 0.62147 0.2939 0.11553 0.0
C1418 C 0.64773 0.30231 0.13401 0.0
C1419 C 0.64984 0.31838 0.12396 0.0
C1420 C 0.63751 0.32221 0.10984 0.0
C1421 C 0.62329 0.31006 0.10603 0.0
C1422 C 0.66022 0.29814 0.14956 0.0
C1423 C 0.63956 0.33897 0.09846 0.0
H1424 H 0.67181 0.37389 0.14356 0.0
H1425 H 0.70643 0.34248 0.10974 0.0
H1426 H 0.6336 0.35241 0.13946 0.0
H1427 H 0.64132 0.33653 0.15578 0.0
H1428 H 0.64646 0.36024 0.15868 0.0
H1429 H 0.69965 0.31222 0.10228 0.0
H1430 H 0.68177 0.30024 0.114 0.0
H1431 H 0.67649 0.31318 0.09446 0.0
H1432 H 0.63217 0.27755 0.13684 0.0
H1433 H 0.61388 0.31294 0.09517 0.0
H1434 H 0.6604 0.30949 0.15932 0.0
H1435 H 0.67433 0.29661 0.14465 0.0
H1436 H 0.65605 0.28562 0.1567 0.0
H1437 H 0.63829 0.35115 0.10701 0.0
H1438 H 0.62922 0.33955 0.08755 0.0
H1439 H 0.65327 0.33949 0.09225 0.0
C1440 C 0.631 0.86576 0.7926 0.0
C1441 C 0.61615 0.85799 0.78339 0.0
C1442 C 0.6399 0.85629 0.80632 0.0
C1443 C 0.63313 0.83908 0.81143 0.0
C1444 C 0.61837 0.83109 0.80181 0.0
C1445 C 0.61035 0.8405 0.78767 0.0
C1446 C 0.65606 0.86506 0.81556 0.0
C1447 C 0.61034 0.81294 0.80699 0.0
C1448 C 0.65127 0.80113 0.83853 0.0
C1449 C 0.64079 0.80295 0.85414 0.0
C1450 C 0.6514 0.81463 0.82537 0.0
C1451 C 0.64009 0.82968 0.8276 0.0
C1452 C 0.63162 0.8327 0.84442 0.0
C1453 C 0.63235 0.81934 0.85768 0.0
C1454 C 0.66186 0.81177 0.8082 0.0
C1455 C 0.61968 0.84874 0.84748 0.0
H1456 H 0.63558 0.87928 0.78918 0.0
H1457 H 0.5988 0.83453 0.78062 0.0
H1458 H 0.65123 0.87424 0.82627 0.0
H1459 H 0.66517 0.85505 0.82176 0.0
H1460 H 0.66406 0.87335 0.80588 0.0
H1461 H 0.59833 0.80909 0.79864 0.0
H1462 H 0.62067 0.80235 0.80543 0.0
H1463 H 0.60614 0.81309 0.82133 0.0
H1464 H 0.65816 0.78859 0.83597 0.0
H1465 H 0.6244 0.82084 0.86985 0.0
H1466 H 0.6673 0.82477 0.80296 0.0
H1467 H 0.65268 0.80583 0.7978 0.0
H1468 H 0.67331 0.80242 0.8103 0.0
H1469 H 0.62676 0.8613 0.84324 0.0
H1470 H 0.61568 0.85012 0.86183 0.0
H1471 H 0.60715 0.84724 0.83921 0.0
C1472 C 0.20528 0.62451 0.8574 0.0
C1473 C 0.21741 0.61137 0.8516 0.0
C1474 C 0.19009 0.62891 0.84687 0.0
C1475 C 0.1867 0.61941 0.83061 0.0
C1476 C 0.19931 0.60662 0.82442 0.0
C1477 C 0.21468 0.603 0.83486 0.0
C1478 C 0.17733 0.64317 0.85348 0.0
C1479 C 0.19601 0.59586 0.80737 0.0
C1480 C 0.13885 0.60956 0.81433 0.0
C1481 C 0.13848 0.61934 0.79825 0.0
C1482 C 0.1542 0.61017 0.82554 0.0
C1483 C 0.16923 0.62134 0.82081 0.0
C1484 C 0.16828 0.6324 0.80536 0.0
C1485 C 0.15303 0.63098 0.79401 0.0
C1486 C 0.15485 0.59781 0.84164 0.0
C1487 C 0.18372 0.64502 0.80031 0.0
H1488 H 0.20747 0.6311 0.87029 0.0
H1489 H 0.22399 0.59276 0.83038 0.0
H1490 H 0.17335 0.65217 0.84229 0.0
H1491 H 0.16474 0.63668 0.85872 0.0
H1492 H 0.18353 0.65147 0.86444 0.0
H1493 H 0.20738 0.58671 0.80427 0.0
H1494 H 0.18335 0.58763 0.80875 0.0
H1495 H 0.19411 0.60501 0.79577 0.0
H1496 H 0.12761 0.6005 0.81755 0.0
H1497 H 0.15262 0.63871 0.78166 0.0
H1498 H 0.1587 0.60547 0.85394 0.0
H1499 H 0.16537 0.58749 0.83946 0.0
H1500 H 0.14162 0.5908 0.84406 0.0
H1501 H 0.18897 0.65232 0.81237 0.0
H1502 H 0.1795 0.65502 0.79008 0.0
H1503 H 0.19508 0.63718 0.79468 0.0
C1504 C 0.38457 0.11376 0.83275 0.0
C1505 C 0.37358 0.10685 0.81888 0.0
C1506 C 0.37999 0.12972 0.84162 0.0
C1507 C 0.36372 0.13852 0.83686 0.0
C1508 C 0.35158 0.1304 0.82432 0.0
C1509 C 0.35687 0.11483 0.81513 0.0
C1510 C 0.39347 0.13806 0.85471 0.0
C1511 C 0.33368 0.13885 0.81962 0.0
C1512 C 0.35592 0.17937 0.86625 0.0
C1513 C 0.36424 0.19291 0.85584 0.0
C1514 C 0.35407 0.16171 0.8596 0.0
C1515 C 0.36128 0.1575 0.84249 0.0
C1516 C 0.36846 0.17142 0.83147 0.0
C1517 C 0.36957 0.18901 0.83819 0.0
C1518 C 0.34547 0.14741 0.87137 0.0
C1519 C 0.37648 0.16752 0.81317 0.0
H1520 H 0.39751 0.10758 0.83558 0.0
H1521 H 0.34827 0.1093 0.80451 0.0
H1522 H 0.39934 0.15059 0.84883 0.0
H1523 H 0.38662 0.14182 0.86742 0.0
H1524 H 0.40476 0.12886 0.85796 0.0
H1525 H 0.32411 0.1289 0.81337 0.0
H1526 H 0.32723 0.14467 0.83176 0.0
H1527 H 0.33601 0.14993 0.80987 0.0
H1528 H 0.35157 0.1824 0.87984 0.0
H1529 H 0.37593 0.19944 0.83006 0.0
H1530 H 0.35627 0.13988 0.8784 0.0
H1531 H 0.33737 0.13761 0.8632 0.0
H1532 H 0.33653 0.1534 0.88174 0.0
H1533 H 0.38843 0.15871 0.81473 0.0
H1534 H 0.38091 0.17997 0.80606 0.0
H1535 H 0.36644 0.16023 0.80457 0.0
C1536 C 0.84429 0.37881 0.80644 0.0
C1537 C 0.84033 0.37187 0.7893 0.0
C1538 C 0.83151 0.37741 0.82036 0.0
C1539 C 0.81472 0.36833 0.81709 0.0
C1540 C 0.81183 0.35919 0.80055 0.0
C1541 C 0.82452 0.36142 0.78665 0.0
C1542 C 0.83509 0.38749 0.83773 0.0
C1543 C 0.79456 0.34851 0.79695 0.0
C1544 C 0.78184 0.36684 0.85657 0.0
C1545 C 0.7709 0.3816 0.85261 0.0
C1546 C 0.79565 0.36162 0.84468 0.0
C1547 C 0.799 0.37194 0.82898 0.0
C1548 C 0.78775 0.38669 0.82488 0.0
C1549 C 0.77366 0.3911 0.83657 0.0
C1550 C 0.80685 0.34541 0.8492 0.0
C1551 C 0.79103 0.39834 0.80849 0.0
H1552 H 0.85655 0.38689 0.80848 0.0
H1553 H 0.8216 0.35581 0.77343 0.0
H1554 H 0.82642 0.39957 0.83821 0.0
H1555 H 0.83152 0.37899 0.84948 0.0
H1556 H 0.84953 0.39195 0.83902 0.0
H1557 H 0.79615 0.33905 0.78546 0.0
H1558 H 0.79041 0.34075 0.80905 0.0
H1559 H 0.78344 0.35785 0.79363 0.0
H1560 H 0.77966 0.35944 0.86896 0.0
H1561 H 0.76531 0.40261 0.83355 0.0
H1562 H 0.81963 0.34989 0.85591 0.0
H1563 H 0.81053 0.33781 0.83688 0.0
H1564 H 0.7995 0.33617 0.85852 0.0
H1565 H 0.80507 0.40404 0.80883 0.0
H1566 H 0.78138 0.40966 0.80762 0.0
H1567 H 0.78965 0.39012 0.79606 0.0
C1568 C 0.61716 0.17777 0.13137 0.0
C1569 C 0.62493 0.19511 0.13168 0.0
C1570 C 0.62051 0.16565 0.14539 0.0
C1571 C 0.63237 0.17089 0.1596 0.0
C1572 C 0.64224 0.18736 0.15848 0.0
C1573 C 0.63805 0.19955 0.14473 0.0
C1574 C 0.60965 0.14823 0.14607 0.0
C1575 C 0.65594 0.19284 0.17271 0.0
C1576 C 0.61538 0.15803 0.20579 0.0
C1577 C 0.62425 0.1418 0.2089 0.0
C1578 C 0.61828 0.16774 0.18995 0.0
C1579 C 0.63098 0.16147 0.17717 0.0
C1580 C 0.64095 0.14572 0.18081 0.0
C1581 C 0.63713 0.13579 0.19649 0.0
C1582 C 0.60696 0.18421 0.18651 0.0
C1583 C 0.65518 0.13895 0.16799 0.0
H1584 H 0.60705 0.17433 0.12122 0.0
H1585 H 0.64431 0.21288 0.14476 0.0
H1586 H 0.61862 0.1368 0.14914 0.0
H1587 H 0.59943 0.14902 0.157 0.0
H1588 H 0.60241 0.14536 0.1332 0.0
H1589 H 0.66537 0.20357 0.16779 0.0
H1590 H 0.64875 0.19807 0.1847 0.0
H1591 H 0.66398 0.18109 0.17705 0.0
H1592 H 0.60531 0.16265 0.2153 0.0
H1593 H 0.64408 0.12326 0.19894 0.0
H1594 H 0.59911 0.18246 0.17381 0.0
H1595 H 0.61591 0.19626 0.18491 0.0
H1596 H 0.59726 0.18688 0.19759 0.0
H1597 H 0.64867 0.12966 0.15808 0.0
H1598 H 0.66575 0.13132 0.17528 0.0
H1599 H 0.66186 0.15014 0.16049 0.0
C1600 C 0.8572 0.61107 0.20731 0.0
C1601 C 0.86967 0.59743 0.20385 0.0
C1602 C 0.84331 0.61482 0.19498 0.0
C1603 C 0.84161 0.6043 0.17913 0.0
C1604 C 0.8539 0.5902 0.17581 0.0
C1605 C 0.86799 0.58712 0.1881 0.0
C1606 C 0.83075 0.63026 0.19868 0.0
C1607 C 0.85221 0.57841 0.15926 0.0
C1608 C 0.79712 0.60211 0.15333 0.0
C1609 C 0.80156 0.61216 0.13799 0.0
C1610 C 0.8099 0.59979 0.16715 0.0
C1611 C 0.82725 0.6082 0.16573 0.0
C1612 C 0.83134 0.61931 0.15078 0.0
C1613 C 0.81853 0.62092 0.13691 0.0
C1614 C 0.80521 0.58752 0.18269 0.0
C1615 C 0.84951 0.62893 0.14908 0.0
H1616 H 0.85861 0.61915 0.21944 0.0
H1617 H 0.87756 0.57648 0.18552 0.0
H1618 H 0.83192 0.64035 0.18773 0.0
H1619 H 0.81643 0.62538 0.19888 0.0
H1620 H 0.83385 0.63705 0.21172 0.0
H1621 H 0.86223 0.56738 0.15923 0.0
H1622 H 0.83833 0.57238 0.15841 0.0
H1623 H 0.85431 0.58665 0.14698 0.0
H1624 H 0.78404 0.59519 0.15405 0.0
H1625 H 0.82188 0.62879 0.12506 0.0
H1626 H 0.80798 0.5944 0.19571 0.0
H1627 H 0.81391 0.57546 0.18219 0.0
H1628 H 0.79074 0.58299 0.1824 0.0
H1629 H 0.85288 0.63629 0.16172 0.0
H1630 H 0.84974 0.63864 0.13773 0.0
H1631 H 0.86032 0.61895 0.14684 0.0
C1632 C 0.37332 0.80717 0.11869 0.0
C1633 C 0.36691 0.79023 0.1243 0.0
C1634 C 0.36904 0.82275 0.12836 0.0
C1635 C 0.35754 0.82135 0.14355 0.0
C1636 C 0.34923 0.80456 0.14784 0.0
C1637 C 0.35438 0.78905 0.13842 0.0
C1638 C 0.37844 0.8403 0.12349 0.0
C1639 C 0.33602 0.80277 0.16325 0.0
C1640 C 0.37108 0.85075 0.18311 0.0
C1641 C 0.36014 0.86576 0.18066 0.0
C1642 C 0.37016 0.83619 0.17117 0.0
C1643 C 0.35737 0.83629 0.15687 0.0
C1644 C 0.34559 0.85108 0.15487 0.0
C1645 C 0.34748 0.86595 0.16655 0.0
C1646 C 0.38344 0.82104 0.17349 0.0
C1647 C 0.33128 0.85144 0.14029 0.0
H1648 H 0.383 0.8081 0.10774 0.0
H1649 H 0.34919 0.77596 0.14257 0.0
H1650 H 0.36849 0.8513 0.12266 0.0
H1651 H 0.38844 0.844 0.13417 0.0
H1652 H 0.38574 0.83946 0.11045 0.0
H1653 H 0.32786 0.79007 0.16232 0.0
H1654 H 0.34359 0.80275 0.17618 0.0
H1655 H 0.32667 0.81435 0.16351 0.0
H1656 H 0.38099 0.85077 0.19396 0.0
H1657 H 0.33899 0.87761 0.16477 0.0
H1658 H 0.39149 0.81935 0.161 0.0
H1659 H 0.376 0.80818 0.17594 0.0
H1660 H 0.39301 0.82346 0.18489 0.0
H1661 H 0.33741 0.85664 0.12768 0.0
H1662 H 0.31997 0.86045 0.144 0.0
H1663 H 0.3256 0.83776 0.13752 0.0
C1664 C 0.16128 0.37771 0.12301 0.0
C1665 C 0.17586 0.366 0.12099 0.0
C1666 C 0.15176 0.37857 0.13929 0.0
C1667 C 0.15671 0.36713 0.15366 0.0
C1668 C 0.17018 0.35403 0.15103 0.0
C1669 C 0.1798 0.35378 0.13476 0.0
C1670 C 0.13758 0.39286 0.14163 0.0
C1671 C 0.17538 0.34117 0.16581 0.0
C1672 C 0.15193 0.38818 0.19974 0.0
C1673 C 0.1348 0.38167 0.20502 0.0
C1674 C 0.15945 0.38306 0.18326 0.0
C1675 C 0.14977 0.37078 0.172 0.0
C1676 C 0.133 0.36325 0.17779 0.0
C1677 C 0.12556 0.36898 0.19417 0.0
C1678 C 0.1773 0.39156 0.17748 0.0
C1679 C 0.1226 0.3497 0.16639 0.0
H1680 H 0.1582 0.38719 0.1124 0.0
H1681 H 0.19092 0.34453 0.13313 0.0
H1682 H 0.12501 0.38701 0.14759 0.0
H1683 H 0.1428 0.40338 0.15105 0.0
H1684 H 0.13403 0.39941 0.12868 0.0
H1685 H 0.18338 0.32974 0.16057 0.0
H1686 H 0.18375 0.34845 0.17604 0.0
H1687 H 0.1631 0.33575 0.1727 0.0
H1688 H 0.15908 0.39802 0.20808 0.0
H1689 H 0.11236 0.3638 0.19831 0.0
H1690 H 0.17521 0.39962 0.1651 0.0
H1691 H 0.18723 0.38098 0.1742 0.0
H1692 H 0.1833 0.4005 0.18803 0.0
H1693 H 0.11672 0.35653 0.15451 0.0
H1694 H 0.11135 0.3431 0.17398 0.0
H1695 H 0.13181 0.33917 0.16129 0.0
C1696 C 0.81346 0.64383 0.86137 0.0
C1697 C 0.81663 0.6306 0.87437 0.0
C1698 C 0.82524 0.64603 0.84669 0.0
C1699 C 0.83995 0.63417 0.84467 0.0
C1700 C 0.84342 0.62109 0.85804 0.0
C1701 C 0.83188 0.61971 0.87293 0.0
C1702 C 0.82162 0.66063 0.8331 0.0
C1703 C 0.8587 0.60788 0.85616 0.0
C1704 C 0.85757 0.62088 0.79892 0.0
C1705 C 0.87523 0.62812 0.79965 0.0
C1706 C 0.84546 0.62359 0.81315 0.0
C1707 C 0.85103 0.63433 0.82804 0.0
C1708 C 0.86826 0.64307 0.82794 0.0
C1709 C 0.88037 0.63951 0.8139 0.0
C1710 C 0.82738 0.61363 0.81295 0.0
C1711 C 0.87435 0.65526 0.84319 0.0
H1712 H 0.80168 0.65232 0.86261 0.0
H1713 H 0.83419 0.60937 0.88292 0.0
H1714 H 0.83441 0.66799 0.82971 0.0
H1715 H 0.81626 0.65451 0.82048 0.0
H1716 H 0.81157 0.67044 0.83811 0.0
H1717 H 0.85951 0.59854 0.86779 0.0
H1718 H 0.85673 0.59977 0.8437 0.0
H1719 H 0.8719 0.61518 0.85493 0.0
H1720 H 0.85372 0.61195 0.78791 0.0
H1721 H 0.89404 0.6452 0.8143 0.0
H1722 H 0.81617 0.62295 0.81595 0.0
H1723 H 0.82732 0.60317 0.82361 0.0
H1724 H 0.82456 0.60697 0.7998 0.0
H1725 H 0.86319 0.66425 0.84733 0.0
H1726 H 0.88638 0.66367 0.83943 0.0
H1727 H 0.87803 0.64701 0.85504 0.0
C1728 C 0.33172 0.83232 0.80493 0.0
C1729 C 0.34284 0.84772 0.80678 0.0
C1730 C 0.33118 0.81926 0.81852 0.0
C1731 C 0.34279 0.82137 0.83362 0.0
C1732 C 0.35153 0.83821 0.83684 0.0
C1733 C 0.3512 0.85141 0.82339 0.0
C1734 C 0.32024 0.80215 0.81556 0.0
C1735 C 0.36354 0.84127 0.8531 0.0
C1736 C 0.35387 0.78518 0.86799 0.0
C1737 C 0.36822 0.77655 0.85931 0.0
C1738 C 0.34449 0.79913 0.85942 0.0
C1739 C 0.35029 0.80505 0.84222 0.0
C1740 C 0.36461 0.79606 0.83336 0.0
C1741 C 0.37308 0.78169 0.84187 0.0
C1742 C 0.32884 0.80765 0.86915 0.0
C1743 C 0.37168 0.80209 0.81519 0.0
H1744 H 0.32481 0.82968 0.79224 0.0
H1745 H 0.35956 0.86349 0.82496 0.0
H1746 H 0.32896 0.79186 0.80924 0.0
H1747 H 0.31521 0.79668 0.82856 0.0
H1748 H 0.30849 0.80446 0.80646 0.0
H1749 H 0.36765 0.85566 0.85468 0.0
H1750 H 0.35646 0.83681 0.8655 0.0
H1751 H 0.37602 0.83318 0.85173 0.0
H1752 H 0.35002 0.78111 0.88148 0.0
H1753 H 0.38425 0.7751 0.8352 0.0
H1754 H 0.31972 0.81504 0.85994 0.0
H1755 H 0.33426 0.81718 0.87946 0.0
H1756 H 0.3207 0.79721 0.87635 0.0
H1757 H 0.36094 0.80028 0.80481 0.0
H1758 H 0.38374 0.79442 0.81084 0.0
H1759 H 0.37553 0.81661 0.81561 0.0
C1760 C 0.16348 0.37601 0.85598 0.0
C1761 C 0.1784 0.36457 0.85632 0.0
C1762 C 0.15105 0.37541 0.8417 0.0
C1763 C 0.15324 0.36258 0.82776 0.0
C1764 C 0.16783 0.3504 0.82845 0.0
C1765 C 0.18052 0.35181 0.84258 0.0
C1766 C 0.13596 0.38897 0.84123 0.0
C1767 C 0.17013 0.33611 0.81419 0.0
C1768 C 0.1098 0.35815 0.80088 0.0
C1769 C 0.11353 0.36979 0.78652 0.0
C1770 C 0.1233 0.35417 0.81356 0.0
C1771 C 0.14059 0.3627 0.81218 0.0
C1772 C 0.14468 0.37368 0.79711 0.0
C1773 C 0.13113 0.37684 0.78425 0.0
C1774 C 0.11868 0.3418 0.82903 0.0
C1775 C 0.16276 0.38346 0.79541 0.0
H1776 H 0.16197 0.38601 0.86651 0.0
H1777 H 0.19204 0.3429 0.84295 0.0
H1778 H 0.13687 0.39703 0.82869 0.0
H1779 H 0.12255 0.38194 0.84116 0.0
H1780 H 0.13648 0.39833 0.85293 0.0
H1781 H 0.18096 0.32648 0.81775 0.0
H1782 H 0.15717 0.32849 0.81214 0.0
H1783 H 0.1737 0.3425 0.80117 0.0
H1784 H 0.09618 0.35256 0.80248 0.0
H1785 H 0.13393 0.38594 0.77316 0.0
H1786 H 0.1164 0.3499 0.84137 0.0
H1787 H 0.13007 0.3326 0.83185 0.0
H1788 H 0.10619 0.33361 0.82629 0.0
H1789 H 0.16385 0.39403 0.80597 0.0
H1790 H 0.16443 0.38996 0.78205 0.0
H1791 H 0.17413 0.37409 0.79753 0.0
C1792 C 0.62761 0.13324 0.81316 0.0
C1793 C 0.63528 0.13413 0.79595 0.0
C1794 C 0.6309 0.14704 0.82571 0.0
C1795 C 0.64266 0.16159 0.82106 0.0
C1796 C 0.6528 0.16079 0.80494 0.0
C1797 C 0.64858 0.14732 0.79224 0.0
C1798 C 0.61996 0.1472 0.84288 0.0
C1799 C 0.66672 0.17518 0.80032 0.0
C1800 C 0.62297 0.20658 0.83302 0.0
C1801 C 0.63009 0.20959 0.85029 0.0
C1802 C 0.62759 0.19132 0.82312 0.0
C1803 C 0.64039 0.17918 0.83028 0.0
C1804 C 0.64897 0.18309 0.84699 0.0
C1805 C 0.64334 0.19806 0.85706 0.0
C1806 C 0.61765 0.18757 0.80559 0.0
C1807 C 0.66343 0.17121 0.85476 0.0
H1808 H 0.61746 0.12291 0.81608 0.0
H1809 H 0.65485 0.14775 0.77905 0.0
H1810 H 0.62901 0.14963 0.85462 0.0
H1811 H 0.61008 0.15832 0.8424 0.0
H1812 H 0.61234 0.13434 0.84501 0.0
H1813 H 0.6767 0.17018 0.79037 0.0
H1814 H 0.65983 0.18693 0.79436 0.0
H1815 H 0.67409 0.17986 0.81259 0.0
H1816 H 0.61269 0.21545 0.82776 0.0
H1817 H 0.64902 0.20048 0.87036 0.0
H1818 H 0.61045 0.17432 0.80626 0.0
H1819 H 0.62744 0.18698 0.79431 0.0
H1820 H 0.60751 0.19802 0.80239 0.0
H1821 H 0.65725 0.16218 0.86501 0.0
H1822 H 0.67404 0.17951 0.86169 0.0
H1823 H 0.67003 0.16284 0.84433 0.0
C1824 C 0.85674 0.35826 0.19315 0.0
C1825 C 0.87149 0.3698 0.18933 0.0
C1826 C 0.84145 0.35755 0.18182 0.0
C1827 C 0.84076 0.36906 0.16668 0.0
C1828 C 0.85602 0.38002 0.16226 0.0
C1829 C 0.87133 0.38008 0.17354 0.0
C1830 C 0.82565 0.34529 0.18665 0.0
C1831 C 0.85567 0.39276 0.14645 0.0
C1832 C 0.8032 0.36564 0.13152 0.0
C1833 C 0.79098 0.37836 0.13805 0.0
C1834 C 0.81926 0.36193 0.14101 0.0
C1835 C 0.82331 0.37159 0.15704 0.0
C1836 C 0.81092 0.38437 0.16368 0.0
C1837 C 0.7948 0.38741 0.15423 0.0
C1838 C 0.83193 0.34786 0.13385 0.0
C1839 C 0.81491 0.39523 0.18053 0.0
H1840 H 0.85695 0.35012 0.20524 0.0
H1841 H 0.8827 0.38905 0.17058 0.0
H1842 H 0.81444 0.35341 0.19218 0.0
H1843 H 0.82034 0.33818 0.17451 0.0
H1844 H 0.82947 0.33513 0.19688 0.0
H1845 H 0.86923 0.39901 0.14379 0.0
H1846 H 0.85096 0.38565 0.1341 0.0
H1847 H 0.84591 0.40366 0.1492 0.0
H1848 H 0.80018 0.35855 0.11905 0.0
H1849 H 0.78543 0.39734 0.15924 0.0
H1850 H 0.83499 0.33792 0.14452 0.0
H1851 H 0.84502 0.35429 0.12986 0.0
H1852 H 0.82613 0.34059 0.122 0.0
H1853 H 0.8167 0.38611 0.19218 0.0
H1854 H 0.80392 0.40478 0.18375 0.0
H1855 H 0.82781 0.40302 0.17888 0.0
C1856 C 0.61098 0.87272 0.17639 0.0
C1857 C 0.61759 0.86809 0.19343 0.0
C1858 C 0.61487 0.86216 0.16127 0.0
C1859 C 0.62622 0.84708 0.16322 0.0
C1860 C 0.63467 0.8437 0.18 0.0
C1861 C 0.62987 0.85399 0.19509 0.0
C1862 C 0.60524 0.86602 0.14375 0.0
C1863 C 0.6477 0.8284 0.18231 0.0
C1864 C 0.6122 0.80633 0.13563 0.0
C1865 C 0.62299 0.80838 0.1203 0.0
C1866 C 0.61337 0.81875 0.14978 0.0
C1867 C 0.62626 0.83312 0.14889 0.0
C1868 C 0.63796 0.83464 0.13382 0.0
C1869 C 0.63581 0.82248 0.11938 0.0
C1870 C 0.60019 0.81692 0.16528 0.0
C1871 C 0.65241 0.84925 0.1327 0.0
H1872 H 0.60145 0.88362 0.17512 0.0
H1873 H 0.63518 0.85058 0.20826 0.0
H1874 H 0.615 0.86627 0.13243 0.0
H1875 H 0.59509 0.85513 0.14093 0.0
H1876 H 0.59807 0.87907 0.14408 0.0
H1877 H 0.65601 0.83001 0.19475 0.0
H1878 H 0.63996 0.81549 0.18323 0.0
H1879 H 0.65691 0.82748 0.17054 0.0
H1880 H 0.60219 0.79545 0.13616 0.0
H1881 H 0.6442 0.82391 0.10748 0.0
H1882 H 0.59214 0.82937 0.16656 0.0
H1883 H 0.60771 0.81516 0.17809 0.0
H1884 H 0.59062 0.8053 0.16355 0.0
H1885 H 0.64623 0.86189 0.1279 0.0
H1886 H 0.66331 0.8456 0.12311 0.0
H1887 H 0.65863 0.85198 0.1461 0.0
C1888 C 0.14598 0.6436 0.1869 0.0
C1889 C 0.13043 0.63324 0.18271 0.0
C1890 C 0.16156 0.64278 0.1761 0.0
C1891 C 0.16171 0.63078 0.16126 0.0
C1892 C 0.14556 0.6214 0.15619 0.0
C1893 C 0.12998 0.62299 0.16686 0.0
C1894 C 0.17826 0.65363 0.18143 0.0
C1895 C 0.14522 0.60819 0.14068 0.0
C1896 C 0.20071 0.62645 0.12823 0.0
C1897 C 0.21044 0.61238 0.13603 0.0
C1898 C 0.18534 0.63341 0.1368 0.0
C1899 C 0.17925 0.62557 0.1531 0.0
C1900 C 0.18932 0.61162 0.16118 0.0
C1901 C 0.20498 0.60543 0.15269 0.0
C1902 C 0.17537 0.64877 0.12818 0.0
C1903 C 0.18309 0.6026 0.17837 0.0
H1904 H 0.14626 0.6517 0.19908 0.0
H1905 H 0.11799 0.6149 0.16364 0.0
H1906 H 0.18795 0.64482 0.18854 0.0
H1907 H 0.18525 0.65912 0.16937 0.0
H1908 H 0.17485 0.66495 0.19057 0.0
H1909 H 0.13119 0.60351 0.1373 0.0
H1910 H 0.15142 0.61429 0.12851 0.0
H1911 H 0.15336 0.59627 0.14429 0.0
H1912 H 0.20504 0.63191 0.11539 0.0
H1913 H 0.21244 0.59448 0.15867 0.0
H1914 H 0.17184 0.65904 0.13842 0.0
H1915 H 0.16247 0.64366 0.12214 0.0
H1916 H 0.18354 0.65535 0.11742 0.0
H1917 H 0.18207 0.61269 0.18934 0.0
H1918 H 0.19246 0.5919 0.18281 0.0
H1919 H 0.16936 0.59649 0.17638 0.0
C1920 C 0.35306 0.16898 0.11462 0.0
C1921 C 0.36763 0.18129 0.11577 0.0
C1922 C 0.3493 0.15712 0.12891 0.0
C1923 C 0.36085 0.15728 0.14421 0.0
C1924 C 0.37579 0.16957 0.14515 0.0
C1925 C 0.37875 0.18166 0.13105 0.0
C1926 C 0.33286 0.14472 0.12783 0.0
C1927 C 0.3888 0.16985 0.16096 0.0
C1928 C 0.3523 0.1411 0.19135 0.0
C1929 C 0.36256 0.1254 0.1915 0.0
C1930 C 0.34956 0.15057 0.17529 0.0
C1931 C 0.35793 0.14451 0.15928 0.0
C1932 C 0.36686 0.12778 0.15909 0.0
C1933 C 0.3688 0.11825 0.17521 0.0
C1934 C 0.33923 0.16795 0.17584 0.0
C1935 C 0.37634 0.121 0.14245 0.0
H1936 H 0.34441 0.16894 0.10277 0.0
H1937 H 0.39006 0.19121 0.13176 0.0
H1938 H 0.33695 0.13051 0.1294 0.0
H1939 H 0.32346 0.14777 0.13904 0.0
H1940 H 0.32541 0.14608 0.11488 0.0
H1941 H 0.4003 0.17953 0.15903 0.0
H1942 H 0.3815 0.17362 0.17342 0.0
H1943 H 0.39442 0.15623 0.16307 0.0
H1944 H 0.34724 0.14649 0.20393 0.0
H1945 H 0.37675 0.10608 0.1753 0.0
H1946 H 0.3309 0.16954 0.16348 0.0
H1947 H 0.349 0.17948 0.17655 0.0
H1948 H 0.33021 0.16859 0.18779 0.0
H1949 H 0.36779 0.12273 0.13028 0.0
H1950 H 0.37991 0.10657 0.14363 0.0
H1951 H 0.38908 0.12897 0.14043 0.0
C1952 C 0.83718 0.79442 0.61047 0.0
C1953 C 0.83749 0.777 0.61755 0.0
C1954 C 0.82335 0.80625 0.61515 0.0
C1955 C 0.81003 0.80075 0.62783 0.0
C1956 C 0.81145 0.78383 0.63642 0.0
C1957 C 0.82491 0.77189 0.63077 0.0
C1958 C 0.8221 0.82396 0.60527 0.0
C1959 C 0.79822 0.77791 0.65079 0.0
C1960 C 0.77919 0.83963 0.63827 0.0
C1961 C 0.76502 0.83625 0.626 0.0
C1962 C 0.79313 0.82713 0.64058 0.0
C1963 C 0.79327 0.81147 0.62965 0.0
C1964 C 0.77833 0.80749 0.61816 0.0
C1965 C 0.76418 0.81977 0.6168 0.0
C1966 C 0.80823 0.83127 0.65382 0.0
C1967 C 0.77807 0.79117 0.60593 0.0
H1968 H 0.8469 0.79829 0.60018 0.0
H1969 H 0.82533 0.75843 0.63639 0.0
H1970 H 0.80945 0.82407 0.59708 0.0
H1971 H 0.82144 0.83529 0.61497 0.0
H1972 H 0.83385 0.8264 0.59618 0.0
H1973 H 0.80406 0.7673 0.65948 0.0
H1974 H 0.79424 0.78944 0.65938 0.0
H1975 H 0.78572 0.77227 0.64439 0.0
H1976 H 0.77973 0.8523 0.64557 0.0
H1977 H 0.75325 0.81713 0.60727 0.0
H1978 H 0.81986 0.83766 0.64668 0.0
H1979 H 0.81312 0.81878 0.66028 0.0
H1980 H 0.80373 0.84073 0.66447 0.0
H1981 H 0.78947 0.79222 0.59621 0.0
H1982 H 0.76515 0.78977 0.59822 0.0
H1983 H 0.77998 0.77873 0.61385 0.0
C1984 C 0.86098 0.17643 0.38632 0.0
C1985 C 0.87839 0.17429 0.37917 0.0
C1986 C 0.84825 0.16218 0.38601 0.0
C1987 C 0.8529 0.14567 0.37778 0.0
C1988 C 0.87019 0.14374 0.36978 0.0
C1989 C 0.8829 0.158 0.37088 0.0
C1990 C 0.83013 0.16457 0.39515 0.0
C1991 C 0.87536 0.12655 0.36033 0.0
C1992 C 0.82782 0.10403 0.39439 0.0
C1993 C 0.8134 0.10274 0.38208 0.0
C1994 C 0.84098 0.11781 0.39296 0.0
C1995 C 0.83998 0.13015 0.37851 0.0
C1996 C 0.82597 0.1283 0.36548 0.0
C1997 C 0.81261 0.11479 0.36763 0.0
C1998 C 0.8554 0.11967 0.4074 0.0
C1999 C 0.82486 0.14084 0.34956 0.0
H2000 H 0.85758 0.189 0.39286 0.0
H2001 H 0.89635 0.15646 0.36522 0.0
H2002 H 0.81888 0.16197 0.38547 0.0
H2003 H 0.8286 0.15465 0.40622 0.0
H2004 H 0.82863 0.17832 0.40084 0.0
H2005 H 0.8886 0.12788 0.35327 0.0
H2006 H 0.87629 0.11546 0.37025 0.0
H2007 H 0.86473 0.12259 0.35037 0.0
H2008 H 0.8283 0.0948 0.40566 0.0
H2009 H 0.80149 0.11367 0.35805 0.0
H2010 H 0.85401 0.13279 0.41443 0.0
H2011 H 0.86913 0.11955 0.40131 0.0
H2012 H 0.85448 0.10873 0.41755 0.0
H2013 H 0.82143 0.15456 0.35424 0.0
H2014 H 0.81441 0.13632 0.33963 0.0
H2015 H 0.83822 0.14183 0.3427 0.0
C2016 C 0.77865 0.82658 0.3704 0.0
C2017 C 0.77348 0.84338 0.3638 0.0
C2018 C 0.79577 0.8197 0.3665 0.0
C2019 C 0.80775 0.82958 0.35519 0.0
C2020 C 0.80193 0.84575 0.34713 0.0
C2021 C 0.78494 0.85267 0.35182 0.0
C2022 C 0.80149 0.8025 0.37561 0.0
C2023 C 0.81396 0.85624 0.33434 0.0
C2024 C 0.85615 0.82085 0.36861 0.0
C2025 C 0.85957 0.80541 0.35839 0.0
C2026 C 0.83976 0.82997 0.36661 0.0
C2027 C 0.82687 0.82378 0.35368 0.0
C2028 C 0.83135 0.80963 0.34179 0.0
C2029 C 0.84754 0.80032 0.34455 0.0
C2030 C 0.83544 0.8449 0.37969 0.0
C2031 C 0.8184 0.80333 0.3272 0.0
H2032 H 0.76983 0.81937 0.37968 0.0
H2033 H 0.78088 0.8656 0.34655 0.0
H2034 H 0.80583 0.79251 0.36544 0.0
H2035 H 0.8133 0.80532 0.38459 0.0
H2036 H 0.79041 0.79633 0.38377 0.0
H2037 H 0.80588 0.86527 0.32564 0.0
H2038 H 0.82373 0.86471 0.34216 0.0
H2039 H 0.82189 0.84709 0.32565 0.0
H2040 H 0.86547 0.82477 0.37932 0.0
H2041 H 0.85035 0.78851 0.33646 0.0
H2042 H 0.8247 0.84017 0.38911 0.0
H2043 H 0.83015 0.85675 0.37246 0.0
H2044 H 0.84753 0.84924 0.38772 0.0
H2045 H 0.80764 0.79459 0.33317 0.0
H2046 H 0.82547 0.79544 0.31668 0.0
H2047 H 0.81166 0.81493 0.32077 0.0
C2048 C 0.13659 0.79669 0.39219 0.0
C2049 C 0.11949 0.79912 0.38433 0.0
C2050 C 0.14995 0.81034 0.39146 0.0
C2051 C 0.14625 0.82647 0.38212 0.0
C2052 C 0.12932 0.82854 0.37331 0.0
C2053 C 0.11597 0.81494 0.37483 0.0
C2054 C 0.16762 0.80789 0.40151 0.0
C2055 C 0.12513 0.84531 0.36273 0.0
C2056 C 0.16999 0.86942 0.39744 0.0
C2057 C 0.18452 0.87063 0.38537 0.0
C2058 C 0.15756 0.85497 0.39662 0.0
C2059 C 0.15939 0.84178 0.38297 0.0
C2060 C 0.17382 0.84317 0.37045 0.0
C2061 C 0.18647 0.85746 0.37201 0.0
C2062 C 0.14269 0.85365 0.41056 0.0
C2063 C 0.1758 0.82966 0.35538 0.0
H2064 H 0.13921 0.78445 0.39962 0.0
H2065 H 0.10277 0.81667 0.3686 0.0
H2066 H 0.17934 0.81026 0.39242 0.0
H2067 H 0.16871 0.81794 0.41257 0.0
H2068 H 0.1687 0.7942 0.40738 0.0
H2069 H 0.1123 0.84385 0.35489 0.0
H2070 H 0.12383 0.85691 0.37206 0.0
H2071 H 0.1364 0.84856 0.35333 0.0
H2072 H 0.16864 0.87954 0.4079 0.0
H2073 H 0.1977 0.85852 0.36264 0.0
H2074 H 0.14343 0.84057 0.41771 0.0
H2075 H 0.12918 0.85413 0.40393 0.0
H2076 H 0.14361 0.86469 0.42068 0.0
H2077 H 0.17804 0.81606 0.36101 0.0
H2078 H 0.18729 0.83314 0.34629 0.0
H2079 H 0.16308 0.82891 0.34731 0.0
C2080 C 0.21323 0.1535 0.35628 0.0
C2081 C 0.20892 0.14123 0.36997 0.0
C2082 C 0.20005 0.16523 0.34961 0.0
C2083 C 0.18257 0.16518 0.35752 0.0
C2084 C 0.17797 0.15217 0.37073 0.0
C2085 C 0.19113 0.1401 0.37653 0.0
C2086 C 0.20514 0.17825 0.33483 0.0
C2087 C 0.15963 0.15193 0.37987 0.0
C2088 C 0.15765 0.20846 0.36478 0.0
C2089 C 0.14185 0.20531 0.3546 0.0
C2090 C 0.1716 0.19591 0.36501 0.0
C2091 C 0.16999 0.18021 0.35422 0.0
C2092 C 0.15492 0.1779 0.34249 0.0
C2093 C 0.14075 0.19032 0.34313 0.0
C2094 C 0.18721 0.19871 0.37807 0.0
C2095 C 0.15323 0.16183 0.33008 0.0
H2096 H 0.22696 0.15417 0.35104 0.0
H2097 H 0.18784 0.13061 0.38715 0.0
H2098 H 0.19368 0.17989 0.32525 0.0
H2099 H 0.20838 0.19165 0.34075 0.0
H2100 H 0.21725 0.17372 0.32727 0.0
H2101 H 0.15805 0.14053 0.38942 0.0
H2102 H 0.15785 0.16471 0.38741 0.0
H2103 H 0.14858 0.15095 0.36972 0.0
H2104 H 0.15849 0.22003 0.37371 0.0
H2105 H 0.12861 0.18801 0.33508 0.0
H2106 H 0.20039 0.1976 0.37102 0.0
H2107 H 0.1867 0.18806 0.38853 0.0
H2108 H 0.18683 0.21204 0.38487 0.0
H2109 H 0.16662 0.15841 0.32427 0.0
H2110 H 0.14349 0.16429 0.31893 0.0
H2111 H 0.14822 0.14998 0.33778 0.0
C2112 C 0.21339 0.1691 0.63981 0.0
C2113 C 0.2101 0.15236 0.63156 0.0
C2114 C 0.20003 0.18236 0.63979 0.0
C2115 C 0.18339 0.17895 0.63068 0.0
C2116 C 0.1794 0.16147 0.62391 0.0
C2117 C 0.19276 0.14826 0.62471 0.0
C2118 C 0.20438 0.20054 0.64802 0.0
C2119 C 0.16193 0.15729 0.61391 0.0
C2120 C 0.14485 0.21227 0.62729 0.0
C2121 C 0.14933 0.22114 0.61122 0.0
C2122 C 0.15631 0.19911 0.63446 0.0
C2123 C 0.17209 0.19426 0.62485 0.0
C2124 C 0.17672 0.2034 0.60874 0.0
C2125 C 0.16545 0.21695 0.60233 0.0
C2126 C 0.15127 0.19018 0.65202 0.0
C2127 C 0.19322 0.19841 0.59782 0.0
H2128 H 0.22673 0.1722 0.64537 0.0
H2129 H 0.19017 0.1353 0.61835 0.0
H2130 H 0.20846 0.2101 0.63725 0.0
H2131 H 0.19228 0.20606 0.65484 0.0
H2132 H 0.21572 0.1998 0.65789 0.0
H2133 H 0.15993 0.14261 0.6115 0.0
H2134 H 0.15007 0.16234 0.62144 0.0
H2135 H 0.1622 0.16421 0.60067 0.0
H2136 H 0.13241 0.21561 0.63424 0.0
H2137 H 0.16886 0.22371 0.58983 0.0
H2138 H 0.1635 0.18799 0.66047 0.0
H2139 H 0.14488 0.17682 0.64925 0.0
H2140 H 0.14145 0.1983 0.65979 0.0
H2141 H 0.20573 0.20031 0.60601 0.0
H2142 H 0.19463 0.2066 0.58539 0.0
H2143 H 0.19231 0.18398 0.59391 0.0
C2144 C 0.8219 0.12496 0.62534 0.0
C2145 C 0.80531 0.12592 0.61614 0.0
C2146 C 0.83409 0.13967 0.6256 0.0
C2147 C 0.8298 0.15542 0.61588 0.0
C2148 C 0.81271 0.15672 0.6072 0.0
C2149 C 0.80052 0.142 0.60767 0.0
C2150 C 0.85194 0.138 0.6355 0.0
C2151 C 0.80783 0.1731 0.59632 0.0
C2152 C 0.85873 0.19797 0.62142 0.0
C2153 C 0.8714 0.19584 0.60756 0.0
C2154 C 0.84517 0.18481 0.62449 0.0
C2155 C 0.84398 0.16956 0.61304 0.0
C2156 C 0.85653 0.1676 0.59877 0.0
C2157 C 0.87027 0.18063 0.5964 0.0
C2158 C 0.83235 0.18704 0.64015 0.0
C2159 C 0.85541 0.15177 0.58595 0.0
H2160 H 0.82551 0.11255 0.63202 0.0
H2161 H 0.78772 0.14269 0.60044 0.0
H2162 H 0.86314 0.13669 0.62564 0.0
H2163 H 0.85482 0.15027 0.64366 0.0
H2164 H 0.85204 0.12607 0.64449 0.0
H2165 H 0.7934 0.17271 0.59185 0.0
H2166 H 0.8103 0.18559 0.60424 0.0
H2167 H 0.81662 0.17388 0.58422 0.0
H2168 H 0.85971 0.20971 0.63011 0.0
H2169 H 0.87998 0.1791 0.58556 0.0
H2170 H 0.83356 0.17543 0.64943 0.0
H2171 H 0.81809 0.18714 0.63528 0.0
H2172 H 0.83515 0.19965 0.64783 0.0
H2173 H 0.85764 0.13907 0.5934 0.0
H2174 H 0.86561 0.15279 0.57499 0.0
H2175 H 0.84165 0.15083 0.57981 0.0
C2176 C 0.18277 0.86734 0.62541 0.0
C2177 C 0.18163 0.87903 0.61068 0.0
C2178 C 0.16973 0.85357 0.62794 0.0
C2179 C 0.15568 0.85111 0.61506 0.0
C2180 C 0.15458 0.86283 0.60009 0.0
C2181 C 0.16741 0.87686 0.59826 0.0
C2182 C 0.17096 0.84171 0.64436 0.0
C2183 C 0.14008 0.86033 0.58581 0.0
C2184 C 0.13242 0.80551 0.6094 0.0
C2185 C 0.11508 0.80895 0.6162 0.0
C2186 C 0.14599 0.819 0.60939 0.0
C2187 C 0.14225 0.83608 0.61691 0.0
C2188 C 0.12513 0.8392 0.62487 0.0
C2189 C 0.1116 0.82568 0.62411 0.0
C2190 C 0.16391 0.81531 0.60034 0.0
C2191 C 0.12087 0.85704 0.63357 0.0
H2192 H 0.19373 0.86914 0.63508 0.0
H2193 H 0.16665 0.88582 0.58678 0.0
H2194 H 0.15795 0.84191 0.65187 0.0
H2195 H 0.17325 0.82757 0.64022 0.0
H2196 H 0.18215 0.84603 0.65358 0.0
H2197 H 0.14145 0.8703 0.57475 0.0
H2198 H 0.14082 0.84659 0.57995 0.0
H2199 H 0.12641 0.86161 0.59187 0.0
H2200 H 0.13503 0.79262 0.60311 0.0
H2201 H 0.09821 0.82827 0.62948 0.0
H2202 H 0.1754 0.81864 0.60953 0.0
H2203 H 0.16541 0.82403 0.58831 0.0
H2204 H 0.16502 0.80103 0.59603 0.0
H2205 H 0.13197 0.86124 0.6429 0.0
H2206 H 0.10788 0.85648 0.64116 0.0
H2207 H 0.11982 0.86757 0.62308 0.0
C2208 C 0.12208 0.2347 0.43989 0.0
C2209 C 0.10496 0.23279 0.43174 0.0
C2210 C 0.12388 0.23485 0.45868 0.0
C2211 C 0.1081 0.23365 0.4695 0.0
C2212 C 0.09083 0.23104 0.46132 0.0
C2213 C 0.0895 0.23039 0.44247 0.0
C2214 C 0.14257 0.23711 0.46693 0.0
C2215 C 0.07367 0.23012 0.47239 0.0
C2216 C 0.11244 0.22602 0.51989 0.0
C2217 C 0.11254 0.24376 0.52639 0.0
C2218 C 0.11122 0.22246 0.50134 0.0
C2219 C 0.10952 0.23698 0.48917 0.0
C2220 C 0.10936 0.2549 0.49574 0.0
C2221 C 0.11114 0.25808 0.51427 0.0
C2222 C 0.11194 0.20323 0.49475 0.0
C2223 C 0.10716 0.27073 0.48322 0.0
H2224 H 0.13406 0.23638 0.43155 0.0
H2225 H 0.07625 0.22903 0.43613 0.0
H2226 H 0.14401 0.25074 0.47297 0.0
H2227 H 0.14452 0.22718 0.47788 0.0
H2228 H 0.15352 0.23544 0.45682 0.0
H2229 H 0.06151 0.22662 0.4641 0.0
H2230 H 0.07493 0.22004 0.48328 0.0
H2231 H 0.07146 0.24338 0.4789 0.0
H2232 H 0.11361 0.21496 0.5293 0.0
H2233 H 0.11103 0.2718 0.51931 0.0
H2234 H 0.12346 0.20173 0.48528 0.0
H2235 H 0.09933 0.19967 0.48723 0.0
H2236 H 0.11358 0.19351 0.50596 0.0
H2237 H 0.11874 0.27146 0.4737 0.0
H2238 H 0.10649 0.28374 0.4906 0.0
H2239 H 0.09457 0.26895 0.47509 0.0
C2240 C 0.74271 0.08963 0.53802 0.0
C2241 C 0.75989 0.08686 0.54567 0.0
C2242 C 0.7403 0.08948 0.51925 0.0
C2243 C 0.75551 0.08689 0.50796 0.0
C2244 C 0.77302 0.08508 0.51564 0.0
C2245 C 0.77496 0.08487 0.53441 0.0
C2246 C 0.72139 0.09114 0.51155 0.0
C2247 C 0.78965 0.08266 0.50405 0.0
C2248 C 0.75203 0.06378 0.46267 0.0
C2249 C 0.75409 0.07831 0.45082 0.0
C2250 C 0.75127 0.06656 0.4813 0.0
C2251 C 0.75309 0.08427 0.48826 0.0
C2252 C 0.75437 0.09908 0.47632 0.0
C2253 C 0.75465 0.09592 0.45765 0.0
C2254 C 0.74943 0.05043 0.49356 0.0
C2255 C 0.75661 0.11811 0.48325 0.0
H2256 H 0.73102 0.09112 0.54672 0.0
H2257 H 0.7883 0.08296 0.54029 0.0
H2258 H 0.72123 0.10132 0.50065 0.0
H2259 H 0.71703 0.07807 0.50552 0.0
H2260 H 0.71134 0.09494 0.52197 0.0
H2261 H 0.80244 0.08334 0.51203 0.0
H2262 H 0.78883 0.06939 0.49717 0.0
H2263 H 0.79028 0.09316 0.49346 0.0
H2264 H 0.75139 0.05016 0.45736 0.0
H2265 H 0.75633 0.10714 0.44846 0.0
H2266 H 0.7387 0.05268 0.50375 0.0
H2267 H 0.76239 0.04847 0.50092 0.0
H2268 H 0.74606 0.03786 0.48601 0.0
H2269 H 0.74641 0.12093 0.49381 0.0
H2270 H 0.75527 0.12822 0.47234 0.0
H2271 H 0.77025 0.11982 0.48951 0.0
C2272 C 0.89361 0.76093 0.45086 0.0
C2273 C 0.88007 0.75937 0.4376 0.0
C2274 C 0.88951 0.75833 0.46908 0.0
C2275 C 0.87133 0.75454 0.47422 0.0
C2276 C 0.85751 0.75332 0.46094 0.0
C2277 C 0.86209 0.75551 0.44272 0.0
C2278 C 0.90469 0.75938 0.48281 0.0
C2279 C 0.83792 0.74976 0.46598 0.0
C2280 C 0.86571 0.73219 0.51975 0.0
C2281 C 0.86367 0.74718 0.53102 0.0
C2282 C 0.8676 0.73432 0.50108 0.0
C2283 C 0.86698 0.7518 0.49354 0.0
C2284 C 0.86379 0.76684 0.50478 0.0
C2285 C 0.86243 0.76438 0.52345 0.0
C2286 C 0.87134 0.718 0.48958 0.0
C2287 C 0.86257 0.78562 0.49718 0.0
H2288 H 0.90755 0.76373 0.44693 0.0
H2289 H 0.85158 0.75441 0.43249 0.0
H2290 H 0.90208 0.7703 0.49264 0.0
H2291 H 0.90527 0.74659 0.49046 0.0
H2292 H 0.91817 0.76197 0.47652 0.0
H2293 H 0.82873 0.74979 0.45409 0.0
H2294 H 0.83656 0.73652 0.47278 0.0
H2295 H 0.83336 0.76014 0.47567 0.0
H2296 H 0.86678 0.71889 0.52562 0.0
H2297 H 0.86069 0.77594 0.53215 0.0
H2298 H 0.88529 0.7191 0.48401 0.0
H2299 H 0.8618 0.71729 0.47801 0.0
H2300 H 0.87015 0.70524 0.49731 0.0
H2301 H 0.87613 0.79012 0.49228 0.0
H2302 H 0.85786 0.79548 0.50736 0.0
H2303 H 0.85312 0.78575 0.4855 0.0
C2304 C 0.25677 0.903 0.45829 0.0
C2305 C 0.23927 0.90439 0.451 0.0
C2306 C 0.25942 0.90306 0.47706 0.0
C2307 C 0.24416 0.90408 0.48858 0.0
C2308 C 0.22642 0.90433 0.48116 0.0
C2309 C 0.22422 0.90474 0.46247 0.0
C2310 C 0.27853 0.90307 0.4845 0.0
C2311 C 0.20974 0.90498 0.49296 0.0
C2312 C 0.24457 0.89441 0.53861 0.0
C2313 C 0.24278 0.91183 0.54563 0.0
C2314 C 0.24621 0.89161 0.51998 0.0
C2315 C 0.24645 0.90664 0.50828 0.0
C2316 C 0.24616 0.9243 0.51551 0.0
C2317 C 0.24407 0.92667 0.53409 0.0
C2318 C 0.24622 0.87259 0.51277 0.0
C2319 C 0.24683 0.94069 0.50352 0.0
H2320 H 0.26839 0.9028 0.44936 0.0
H2321 H 0.21067 0.90557 0.45677 0.0
H2322 H 0.28189 0.91656 0.49019 0.0
H2323 H 0.27972 0.89318 0.49559 0.0
H2324 H 0.28871 0.8999 0.47398 0.0
H2325 H 0.19695 0.90321 0.4851 0.0
H2326 H 0.21024 0.89433 0.50339 0.0
H2327 H 0.20934 0.91815 0.50003 0.0
H2328 H 0.24356 0.88292 0.54755 0.0
H2329 H 0.24296 0.94016 0.53956 0.0
H2330 H 0.25661 0.87111 0.50211 0.0
H2331 H 0.23279 0.86939 0.50661 0.0
H2332 H 0.24883 0.86259 0.52354 0.0
H2333 H 0.25778 0.93946 0.49337 0.0
H2334 H 0.24915 0.95332 0.51132 0.0
H2335 H 0.23377 0.94178 0.49612 0.0
C2336 C 0.0858 0.76932 0.53388 0.0
C2337 C 0.08646 0.75504 0.54611 0.0
C2338 C 0.08763 0.7663 0.51536 0.0
C2339 C 0.08961 0.74848 0.5089 0.0
C2340 C 0.09082 0.73404 0.52124 0.0
C2341 C 0.08947 0.73754 0.53978 0.0
C2342 C 0.08674 0.78212 0.50266 0.0
C2343 C 0.09253 0.71483 0.51484 0.0
C2344 C 0.07037 0.74331 0.46195 0.0
C2345 C 0.08611 0.74419 0.45144 0.0
C2346 C 0.07144 0.74339 0.48077 0.0
C2347 C 0.08866 0.74498 0.48923 0.0
C2348 C 0.10467 0.7451 0.47867 0.0
C2349 C 0.1032 0.74446 0.45981 0.0
C2350 C 0.05407 0.74272 0.49156 0.0
C2351 C 0.12324 0.74715 0.4872 0.0
H2352 H 0.08369 0.78289 0.5388 0.0
H2353 H 0.08989 0.72648 0.54926 0.0
H2354 H 0.0982 0.78181 0.49299 0.0
H2355 H 0.07395 0.7813 0.49471 0.0
H2356 H 0.08718 0.79523 0.50991 0.0
H2357 H 0.09513 0.70541 0.52612 0.0
H2358 H 0.07977 0.71052 0.50795 0.0
H2359 H 0.10368 0.71373 0.5049 0.0
H2360 H 0.05716 0.74294 0.45541 0.0
H2361 H 0.11536 0.74526 0.45162 0.0
H2362 H 0.0518 0.75604 0.49788 0.0
H2363 H 0.05508 0.7327 0.50255 0.0
H2364 H 0.04205 0.73921 0.48308 0.0
H2365 H 0.12487 0.76098 0.49276 0.0
H2366 H 0.13433 0.74486 0.47738 0.0
H2367 H 0.12475 0.73764 0.49857 0.0
C2368 C 0.2626 0.12199 0.46697 0.0
C2369 C 0.24679 0.12492 0.45693 0.0
C2370 C 0.26244 0.12311 0.4858 0.0
C2371 C 0.24621 0.12787 0.4947 0.0
C2372 C 0.23042 0.13167 0.48455 0.0
C2373 C 0.2308 0.12981 0.46574 0.0
C2374 C 0.2794 0.11843 0.49619 0.0
C2375 C 0.21306 0.13735 0.49356 0.0
C2376 C 0.24033 0.11133 0.54254 0.0
C2377 C 0.24675 0.12617 0.5525 0.0
C2378 C 0.23994 0.11178 0.52369 0.0
C2379 C 0.24554 0.12769 0.51467 0.0
C2380 C 0.25132 0.14299 0.52471 0.0
C2381 C 0.25218 0.14194 0.54357 0.0
C2382 C 0.2342 0.09501 0.51344 0.0
C2383 C 0.25681 0.16036 0.51555 0.0
H2384 H 0.27492 0.11807 0.46013 0.0
H2385 H 0.21862 0.13222 0.45791 0.0
H2386 H 0.28355 0.12976 0.50514 0.0
H2387 H 0.27659 0.10659 0.5049 0.0
H2388 H 0.29096 0.11526 0.48719 0.0
H2389 H 0.20263 0.14161 0.48367 0.0
H2390 H 0.20735 0.126 0.50154 0.0
H2391 H 0.21586 0.14865 0.50304 0.0
H2392 H 0.23627 0.09908 0.54946 0.0
H2393 H 0.25702 0.15345 0.55134 0.0
H2394 H 0.24554 0.09051 0.50478 0.0
H2395 H 0.22256 0.09792 0.50445 0.0
H2396 H 0.23021 0.08376 0.52252 0.0
H2397 H 0.26935 0.15836 0.5076 0.0
H2398 H 0.25936 0.17147 0.52534 0.0
H2399 H 0.24603 0.1645 0.50601 0.0
C2400 C 0.89051 0.24778 0.5313 0.0
C2401 C 0.90776 0.24859 0.53933 0.0
C2402 C 0.88865 0.24682 0.51249 0.0
C2403 C 0.90441 0.2472 0.50158 0.0
C2404 C 0.92177 0.24943 0.50966 0.0
C2405 C 0.92325 0.24979 0.52847 0.0
C2406 C 0.86995 0.24408 0.5044 0.0
C2407 C 0.93888 0.25041 0.4985 0.0
C2408 C 0.90658 0.22143 0.45768 0.0
C2409 C 0.90493 0.2352 0.44498 0.0
C2410 C 0.90542 0.22508 0.47614 0.0
C2411 C 0.90312 0.24305 0.48204 0.0
C2412 C 0.901 0.25697 0.46925 0.0
C2413 C 0.90167 0.25282 0.45079 0.0
C2414 C 0.90725 0.20976 0.48933 0.0
C2415 C 0.89897 0.27633 0.47504 0.0
H2416 H 0.87854 0.24673 0.53974 0.0
H2417 H 0.93658 0.2506 0.53472 0.0
H2418 H 0.86794 0.25322 0.49281 0.0
H2419 H 0.86857 0.23007 0.49926 0.0
H2420 H 0.85902 0.24636 0.51439 0.0
H2421 H 0.95093 0.25464 0.50662 0.0
H2422 H 0.94154 0.23699 0.49256 0.0
H2423 H 0.93725 0.26002 0.48721 0.0
H2424 H 0.90891 0.20776 0.45314 0.0
H2425 H 0.90051 0.26348 0.44093 0.0
H2426 H 0.89604 0.21 0.49929 0.0
H2427 H 0.92021 0.2113 0.49689 0.0
H2428 H 0.90708 0.1964 0.48254 0.0
H2429 H 0.88807 0.2775 0.48524 0.0
H2430 H 0.89581 0.28528 0.46353 0.0
H2431 H 0.9118 0.28119 0.48144 0.0
C2432 C 0.75021 0.8793 0.45761 0.0
C2433 C 0.74324 0.86406 0.44863 0.0
C2434 C 0.75135 0.87976 0.47645 0.0
C2435 C 0.74588 0.86439 0.48642 0.0
C2436 C 0.74003 0.84853 0.47732 0.0
C2437 C 0.73847 0.84866 0.4585 0.0
C2438 C 0.7572 0.89707 0.48567 0.0
C2439 C 0.73462 0.83171 0.48749 0.0
C2440 C 0.75758 0.86395 0.5363 0.0
C2441 C 0.74092 0.86867 0.5439 0.0
C2442 C 0.75936 0.86207 0.51757 0.0
C2443 C 0.74429 0.8656 0.50629 0.0
C2444 C 0.72751 0.87059 0.51396 0.0
C2445 C 0.72596 0.87178 0.5327 0.0
C2446 C 0.77728 0.8562 0.50985 0.0
C2447 C 0.71124 0.87494 0.50238 0.0
H2448 H 0.75381 0.89126 0.44997 0.0
H2449 H 0.73324 0.83682 0.4515 0.0
H2450 H 0.74546 0.90277 0.49295 0.0
H2451 H 0.76795 0.8945 0.49579 0.0
H2452 H 0.76238 0.9073 0.47599 0.0
H2453 H 0.73294 0.81986 0.47843 0.0
H2454 H 0.74496 0.82861 0.49789 0.0
H2455 H 0.72156 0.83387 0.49454 0.0
H2456 H 0.7691 0.86143 0.54503 0.0
H2457 H 0.71311 0.87558 0.53859 0.0
H2458 H 0.78291 0.86682 0.50089 0.0
H2459 H 0.77518 0.8439 0.50151 0.0
H2460 H 0.78746 0.85334 0.5205 0.0
H2461 H 0.71485 0.88587 0.49281 0.0
H2462 H 0.6994 0.87923 0.51048 0.0
H2463 H 0.70711 0.86297 0.49429 0.0
C2464 C 0.45799 0.09902 0.22837 0.0
C2465 C 0.44745 0.11438 0.23059 0.0
C2466 C 0.47695 0.10005 0.23009 0.0
C2467 C 0.48551 0.11695 0.23353 0.0
C2468 C 0.47496 0.13266 0.23474 0.0
C2469 C 0.45597 0.13113 0.23357 0.0
C2470 C 0.48772 0.08293 0.22914 0.0
C2471 C 0.48368 0.15098 0.23777 0.0
C2472 C 0.53104 0.11633 0.25754 0.0
C2473 C 0.54308 0.11683 0.24301 0.0
C2474 C 0.5122 0.11656 0.25465 0.0
C2475 C 0.50539 0.11793 0.23684 0.0
C2476 C 0.51758 0.11931 0.22219 0.0
C2477 C 0.53632 0.11841 0.22544 0.0
C2478 C 0.4996 0.1146 0.27056 0.0
C2479 C 0.51082 0.1214 0.2031 0.0
H2480 H 0.45137 0.08603 0.22626 0.0
H2481 H 0.44775 0.14301 0.23522 0.0
H2482 H 0.49843 0.08412 0.21872 0.0
H2483 H 0.49465 0.08067 0.24222 0.0
H2484 H 0.47902 0.07095 0.226 0.0
H2485 H 0.47376 0.16201 0.23641 0.0
H2486 H 0.4897 0.15166 0.25148 0.0
H2487 H 0.49488 0.15328 0.22803 0.0
H2488 H 0.53633 0.11497 0.27111 0.0
H2489 H 0.54571 0.11896 0.21422 0.0
H2490 H 0.4911 0.1022 0.26899 0.0
H2491 H 0.49026 0.12614 0.27118 0.0
H2492 H 0.5071 0.11384 0.28354 0.0
H2493 H 0.50342 0.10898 0.1988 0.0
H2494 H 0.52209 0.12402 0.19349 0.0
H2495 H 0.50111 0.13265 0.2023 0.0
C2496 C 0.92338 0.52105 0.25913 0.0
C2497 C 0.90801 0.53188 0.259 0.0
C2498 C 0.92163 0.50224 0.2592 0.0
C2499 C 0.90407 0.49415 0.2585 0.0
C2500 C 0.88848 0.50505 0.25933 0.0
C2501 C 0.89066 0.52386 0.25983 0.0
C2502 C 0.93858 0.49106 0.25888 0.0
C2503 C 0.86955 0.49695 0.25823 0.0
C2504 C 0.90374 0.45031 0.23254 0.0
C2505 C 0.90284 0.4376 0.24639 0.0
C2506 C 0.90313 0.46876 0.23631 0.0
C2507 C 0.90221 0.47463 0.25444 0.0
C2508 C 0.90083 0.46182 0.26849 0.0
C2509 C 0.90091 0.44337 0.26425 0.0
C2510 C 0.9041 0.48198 0.2209 0.0
C2511 C 0.90026 0.46759 0.28798 0.0
H2512 H 0.9368 0.5273 0.25865 0.0
H2513 H 0.87876 0.53228 0.25959 0.0
H2514 H 0.93742 0.47977 0.26858 0.0
H2515 H 0.9403 0.48513 0.24527 0.0
H2516 H 0.95097 0.4992 0.26218 0.0
H2517 H 0.85898 0.50693 0.26152 0.0
H2518 H 0.86703 0.49187 0.24436 0.0
H2519 H 0.86808 0.48532 0.26748 0.0
H2520 H 0.90507 0.44579 0.21871 0.0
H2521 H 0.90036 0.43348 0.27496 0.0
H2522 H 0.91725 0.48951 0.22139 0.0
H2523 H 0.89312 0.49197 0.22208 0.0
H2524 H 0.9029 0.47521 0.20757 0.0
H2525 H 0.91354 0.47383 0.29181 0.0
H2526 H 0.89744 0.45608 0.29714 0.0
H2527 H 0.88975 0.4779 0.29006 0.0
C2528 C 0.52087 0.88044 0.21217 0.0
C2529 C 0.52952 0.87988 0.22897 0.0
C2530 C 0.50185 0.88103 0.21093 0.0
C2531 C 0.4914 0.88173 0.22689 0.0
C2532 C 0.50009 0.88066 0.24388 0.0
C2533 C 0.51906 0.87944 0.2447 0.0
C2534 C 0.493 0.88156 0.19257 0.0
C2535 C 0.48948 0.8819 0.26121 0.0
C2536 C 0.44706 0.9067 0.22387 0.0
C2537 C 0.43424 0.89257 0.22461 0.0
C2538 C 0.4657 0.90332 0.22483 0.0
C2539 C 0.47164 0.88532 0.2259 0.0
C2540 C 0.45874 0.87095 0.22631 0.0
C2541 C 0.44011 0.87478 0.226 0.0
C2542 C 0.47901 0.91905 0.22492 0.0
C2543 C 0.46461 0.85158 0.22686 0.0
H2544 H 0.52899 0.88062 0.20001 0.0
H2545 H 0.52575 0.8791 0.25771 0.0
H2546 H 0.48147 0.87175 0.19184 0.0
H2547 H 0.48744 0.89513 0.19016 0.0
H2548 H 0.50275 0.8785 0.18162 0.0
H2549 H 0.49816 0.87983 0.27327 0.0
H2550 H 0.48327 0.89538 0.26223 0.0
H2551 H 0.47823 0.87177 0.26134 0.0
H2552 H 0.44246 0.92047 0.22294 0.0
H2553 H 0.43014 0.86387 0.22638 0.0
H2554 H 0.48804 0.91829 0.21303 0.0
H2555 H 0.48777 0.9185 0.23709 0.0
H2556 H 0.4721 0.93223 0.22473 0.0
H2557 H 0.47362 0.84875 0.21526 0.0
H2558 H 0.45288 0.84197 0.22646 0.0
H2559 H 0.47258 0.8491 0.23928 0.0
C2560 C 0.11672 0.55207 0.22727 0.0
C2561 C 0.09935 0.55951 0.22703 0.0
C2562 C 0.11891 0.53341 0.22872 0.0
C2563 C 0.10336 0.52207 0.23055 0.0
C2564 C 0.08579 0.52953 0.23022 0.0
C2565 C 0.08399 0.54818 0.22819 0.0
C2566 C 0.13783 0.52585 0.2285 0.0
C2567 C 0.06892 0.51791 0.23259 0.0
C2568 C 0.10564 0.47182 0.22185 0.0
C2569 C 0.1079 0.46518 0.23933 0.0
C2570 C 0.10469 0.49039 0.2187 0.0
C2571 C 0.10546 0.50247 0.23348 0.0
C2572 C 0.10774 0.49579 0.25117 0.0
C2573 C 0.1092 0.4772 0.25385 0.0
C2574 C 0.10279 0.49708 0.19962 0.0
C2575 C 0.10815 0.50824 0.2673 0.0
H2576 H 0.12859 0.56085 0.22623 0.0
H2577 H 0.07055 0.55396 0.22816 0.0
H2578 H 0.14092 0.51965 0.2417 0.0
H2579 H 0.13873 0.51509 0.21815 0.0
H2580 H 0.14837 0.53634 0.22565 0.0
H2581 H 0.05626 0.52583 0.23194 0.0
H2582 H 0.06827 0.50733 0.22203 0.0
H2583 H 0.06944 0.51097 0.24579 0.0
H2584 H 0.10478 0.46248 0.21061 0.0
H2585 H 0.11081 0.47203 0.2674 0.0
H2586 H 0.11365 0.50718 0.19666 0.0
H2587 H 0.08958 0.50388 0.19795 0.0
H2588 H 0.10353 0.486 0.18957 0.0
H2589 H 0.11945 0.51823 0.26599 0.0
H2590 H 0.10988 0.50086 0.28016 0.0
H2591 H 0.09533 0.51586 0.26794 0.0
C2592 C 0.43943 0.87831 0.77759 0.0
C2593 C 0.42979 0.86257 0.77276 0.0
C2594 C 0.4584 0.87926 0.77635 0.0
C2595 C 0.46799 0.8639 0.77069 0.0
C2596 C 0.45842 0.84759 0.76696 0.0
C2597 C 0.43934 0.84721 0.76772 0.0
C2598 C 0.46803 0.89705 0.77998 0.0
C2599 C 0.46826 0.83078 0.76147 0.0
C2600 C 0.51214 0.87343 0.74622 0.0
C2601 C 0.52486 0.87235 0.76022 0.0
C2602 C 0.4936 0.8704 0.74942 0.0
C2603 C 0.48775 0.86558 0.76693 0.0
C2604 C 0.50065 0.86369 0.78096 0.0
C2605 C 0.51909 0.86744 0.7775 0.0
C2606 C 0.48022 0.87307 0.73422 0.0
C2607 C 0.49496 0.858 0.79964 0.0
H2608 H 0.43208 0.89027 0.78138 0.0
H2609 H 0.43188 0.835 0.76411 0.0
H2610 H 0.47911 0.89532 0.78995 0.0
H2611 H 0.47436 0.90207 0.76736 0.0
H2612 H 0.45867 0.90746 0.78509 0.0
H2613 H 0.45919 0.81867 0.76166 0.0
H2614 H 0.47371 0.83243 0.74766 0.0
H2615 H 0.47998 0.82848 0.77058 0.0
H2616 H 0.51662 0.87733 0.73287 0.0
H2617 H 0.529 0.86643 0.78828 0.0
H2618 H 0.47071 0.88395 0.73779 0.0
H2619 H 0.47196 0.86062 0.73204 0.0
H2620 H 0.48704 0.87668 0.72137 0.0
H2621 H 0.48684 0.86875 0.80597 0.0
H2622 H 0.50681 0.85526 0.80846 0.0
H2623 H 0.48618 0.84571 0.79893 0.0
C2624 C 0.09553 0.46014 0.73272 0.0
C2625 C 0.09157 0.45137 0.74897 0.0
C2626 C 0.09903 0.47878 0.73232 0.0
C2627 C 0.09904 0.48872 0.74862 0.0
C2628 C 0.09613 0.47971 0.76517 0.0
C2629 C 0.09216 0.46117 0.76512 0.0
C2630 C 0.10164 0.48796 0.71438 0.0
C2631 C 0.09646 0.48977 0.78288 0.0
C2632 C 0.11734 0.53698 0.7497 0.0
C2633 C 0.10114 0.54662 0.74997 0.0
C2634 C 0.11696 0.51804 0.74913 0.0
C2635 C 0.1 0.50872 0.74828 0.0
C2636 C 0.08368 0.51851 0.74783 0.0
C2637 C 0.08445 0.53732 0.74895 0.0
C2638 C 0.1346 0.50801 0.75006 0.0
C2639 C 0.06533 0.50912 0.74646 0.0
H2640 H 0.09502 0.45258 0.72021 0.0
H2641 H 0.08934 0.45436 0.77773 0.0
H2642 H 0.08983 0.49662 0.71158 0.0
H2643 H 0.11393 0.49682 0.71466 0.0
H2644 H 0.10294 0.47815 0.70315 0.0
H2645 H 0.09624 0.48051 0.7946 0.0
H2646 H 0.10878 0.49856 0.78382 0.0
H2647 H 0.08446 0.49857 0.78373 0.0
H2648 H 0.13024 0.54421 0.75058 0.0
H2649 H 0.07192 0.54481 0.74894 0.0
H2650 H 0.13558 0.49846 0.7386 0.0
H2651 H 0.13499 0.49993 0.7626 0.0
H2652 H 0.14665 0.51724 0.74987 0.0
H2653 H 0.06507 0.49974 0.7348 0.0
H2654 H 0.05406 0.51877 0.74491 0.0
H2655 H 0.06281 0.50099 0.75874 0.0
C2656 C 0.45664 0.11074 0.76506 0.0
C2657 C 0.45358 0.09246 0.76891 0.0
C2658 C 0.47438 0.1177 0.76294 0.0
C2659 C 0.48929 0.10596 0.76423 0.0
C2660 C 0.4862 0.0874 0.76762 0.0
C2661 C 0.4684 0.08093 0.77016 0.0
C2662 C 0.47721 0.13762 0.7598 0.0
C2663 C 0.50171 0.07436 0.76869 0.0
C2664 C 0.53582 0.11677 0.74492 0.0
C2665 C 0.54604 0.11935 0.7607 0.0
C2666 C 0.51702 0.11333 0.74573 0.0
C2667 C 0.50827 0.11296 0.76269 0.0
C2668 C 0.51832 0.11713 0.7785 0.0
C2669 C 0.53715 0.12002 0.77733 0.0
C2670 C 0.50685 0.10865 0.72861 0.0
C2671 C 0.5094 0.11738 0.79678 0.0
H2672 H 0.44518 0.11969 0.7642 0.0
H2673 H 0.46605 0.06676 0.77296 0.0
H2674 H 0.4851 0.14361 0.77116 0.0
H2675 H 0.48525 0.13992 0.74739 0.0
H2676 H 0.46415 0.14482 0.75856 0.0
H2677 H 0.49689 0.06019 0.77028 0.0
H2678 H 0.51014 0.0753 0.75635 0.0
H2679 H 0.51062 0.07789 0.7803 0.0
H2680 H 0.54269 0.11619 0.73204 0.0
H2681 H 0.54504 0.12218 0.78953 0.0
H2682 H 0.49393 0.11607 0.72782 0.0
H2683 H 0.50335 0.09405 0.72857 0.0
H2684 H 0.51502 0.11171 0.7164 0.0
H2685 H 0.49658 0.12502 0.79629 0.0
H2686 H 0.51844 0.12348 0.80724 0.0
H2687 H 0.50589 0.1034 0.8009 0.0
C2688 C 0.88948 0.53841 0.7722 0.0
C2689 C 0.89175 0.54825 0.75628 0.0
C2690 C 0.88367 0.52033 0.77171 0.0
C2691 C 0.88074 0.51176 0.75486 0.0
C2692 C 0.88278 0.52173 0.73875 0.0
C2693 C 0.88797 0.53998 0.73968 0.0
C2694 C 0.88111 0.51028 0.78919 0.0
C2695 C 0.88037 0.51294 0.72052 0.0
C2696 C 0.88893 0.46159 0.7539 0.0
C2697 C 0.87121 0.45448 0.75263 0.0
C2698 C 0.89217 0.4802 0.75431 0.0
C2699 C 0.87727 0.492 0.75406 0.0
C2700 C 0.85929 0.48489 0.75304 0.0
C2701 C 0.85648 0.46613 0.75198 0.0
C2702 C 0.91156 0.48723 0.75481 0.0
C2703 C 0.84308 0.49707 0.75331 0.0
H2704 H 0.89218 0.54491 0.78506 0.0
H2705 H 0.8898 0.54761 0.72737 0.0
H2706 H 0.86779 0.50302 0.78922 0.0
H2707 H 0.89182 0.50004 0.79063 0.0
H2708 H 0.8818 0.5194 0.80107 0.0
H2709 H 0.88157 0.52278 0.70932 0.0
H2710 H 0.89084 0.50251 0.71868 0.0
H2711 H 0.8669 0.50605 0.71959 0.0
H2712 H 0.90035 0.45254 0.75414 0.0
H2713 H 0.84279 0.46056 0.75104 0.0
H2714 H 0.91405 0.49492 0.76743 0.0
H2715 H 0.914 0.4966 0.74342 0.0
H2716 H 0.92159 0.47624 0.75403 0.0
H2717 H 0.84345 0.50553 0.76566 0.0
H2718 H 0.82999 0.48939 0.75292 0.0
H2719 H 0.84356 0.50633 0.74162 0.0
C2720 C 0.22832 0.51753 0.11362 0.0
C2721 C 0.24542 0.52609 0.11379 0.0
C2722 C 0.22667 0.4988 0.11155 0.0
C2723 C 0.2425 0.48851 0.10905 0.0
C2724 C 0.25985 0.49703 0.10983 0.0
C2725 C 0.26111 0.51574 0.11243 0.0
C2726 C 0.20795 0.49013 0.11128 0.0
C2727 C 0.27701 0.48657 0.10684 0.0
C2728 C 0.23812 0.43755 0.11234 0.0
C2729 C 0.23468 0.43286 0.09434 0.0
C2730 C 0.24091 0.45563 0.11739 0.0
C2731 C 0.24074 0.46918 0.10401 0.0
C2732 C 0.23804 0.46438 0.08572 0.0
C2733 C 0.23478 0.44629 0.08114 0.0
C2734 C 0.24332 0.46031 0.13706 0.0
C2735 C 0.23822 0.47838 0.071 0.0
H2736 H 0.21619 0.52553 0.11482 0.0
H2737 H 0.27435 0.52237 0.11243 0.0
H2738 H 0.20472 0.48528 0.09747 0.0
H2739 H 0.20749 0.47827 0.12032 0.0
H2740 H 0.19726 0.49964 0.11548 0.0
H2741 H 0.28946 0.4949 0.10937 0.0
H2742 H 0.27729 0.4746 0.11572 0.0
H2743 H 0.27733 0.48163 0.09273 0.0
H2744 H 0.23788 0.42716 0.12258 0.0
H2745 H 0.23227 0.44264 0.06719 0.0
H2746 H 0.23175 0.46855 0.14162 0.0
H2747 H 0.25589 0.46853 0.1391 0.0
H2748 H 0.24403 0.44813 0.14568 0.0
H2749 H 0.22657 0.48751 0.07273 0.0
H2750 H 0.23735 0.47225 0.05735 0.0
H2751 H 0.25083 0.48676 0.07185 0.0
C2752 C 0.228 0.52239 0.88226 0.0
C2753 C 0.24584 0.52923 0.88165 0.0
C2754 C 0.22453 0.50378 0.88266 0.0
C2755 C 0.2393 0.49183 0.883 0.0
C2756 C 0.25736 0.49868 0.88216 0.0
C2757 C 0.26041 0.51734 0.88125 0.0
C2758 C 0.20509 0.49693 0.88306 0.0
C2759 C 0.27345 0.48634 0.8829 0.0
C2760 C 0.2307 0.44621 0.90436 0.0
C2761 C 0.22972 0.43494 0.88922 0.0
C2762 C 0.23402 0.46475 0.90251 0.0
C2763 C 0.23588 0.4722 0.88508 0.0
C2764 C 0.23455 0.46093 0.86972 0.0
C2765 C 0.23173 0.44235 0.87199 0.0
C2766 C 0.23577 0.47631 0.91922 0.0
C2767 C 0.236 0.4685 0.85091 0.0
H2768 H 0.21673 0.53162 0.88243 0.0
H2769 H 0.27422 0.52266 0.88092 0.0
H2770 H 0.2028 0.48674 0.87229 0.0
H2771 H 0.2023 0.49022 0.89611 0.0
H2772 H 0.19519 0.50792 0.88126 0.0
H2773 H 0.28661 0.4938 0.88171 0.0
H2774 H 0.27338 0.47888 0.89584 0.0
H2775 H 0.27253 0.4762 0.87193 0.0
H2776 H 0.22932 0.44046 0.9177 0.0
H2777 H 0.23084 0.43363 0.86027 0.0
H2778 H 0.22518 0.48676 0.9192 0.0
H2779 H 0.24917 0.48341 0.91935 0.0
H2780 H 0.23444 0.46832 0.93179 0.0
H2781 H 0.22565 0.47902 0.84892 0.0
H2782 H 0.23406 0.45797 0.84039 0.0
H2783 H 0.24952 0.47503 0.84901 0.0
C2784 C 0.4577 0.24847 0.87247 0.0
C2785 C 0.44632 0.2332 0.87274 0.0
C2786 C 0.47663 0.24679 0.87217 0.0
C2787 C 0.48424 0.2294 0.8714 0.0
C2788 C 0.47273 0.21394 0.87094 0.0
C2789 C 0.45384 0.21602 0.87201 0.0
C2790 C 0.48846 0.26359 0.87326 0.0
C2791 C 0.48035 0.19525 0.86941 0.0
C2792 C 0.53347 0.23063 0.85675 0.0
C2793 C 0.54243 0.22932 0.87333 0.0
C2794 C 0.51445 0.22935 0.85575 0.0
C2795 C 0.50428 0.22756 0.87181 0.0
C2796 C 0.51336 0.2257 0.88854 0.0
C2797 C 0.5324 0.22628 0.88904 0.0
C2798 C 0.50525 0.23068 0.83761 0.0
C2799 C 0.503 0.22435 0.90602 0.0
H2800 H 0.4518 0.26174 0.8732 0.0
H2801 H 0.44493 0.20424 0.87208 0.0
H2802 H 0.49751 0.26291 0.88522 0.0
H2803 H 0.49729 0.26458 0.86121 0.0
H2804 H 0.48036 0.27604 0.8742 0.0
H2805 H 0.46952 0.18478 0.86771 0.0
H2806 H 0.48976 0.19454 0.85779 0.0
H2807 H 0.48833 0.19209 0.88167 0.0
H2808 H 0.54133 0.23296 0.84463 0.0
H2809 H 0.5394 0.22553 0.90188 0.0
H2810 H 0.49862 0.24392 0.83639 0.0
H2811 H 0.49448 0.22011 0.8362 0.0
H2812 H 0.51503 0.22929 0.82634 0.0
H2813 H 0.49551 0.237 0.90833 0.0
H2814 H 0.51209 0.22206 0.91774 0.0
H2815 H 0.49278 0.21322 0.90537 0.0
C2816 C 0.76519 0.54998 0.88528 0.0
C2817 C 0.76742 0.55661 0.90286 0.0
C2818 C 0.76226 0.53154 0.88208 0.0
C2819 C 0.76104 0.51958 0.89684 0.0
C2820 C 0.76339 0.5262 0.91462 0.0
C2821 C 0.76679 0.54463 0.9174 0.0
C2822 C 0.7603 0.52488 0.86292 0.0
C2823 C 0.76179 0.5139 0.93072 0.0
C2824 C 0.73441 0.47584 0.89066 0.0
C2825 C 0.74839 0.46329 0.88987 0.0
C2826 C 0.73836 0.49425 0.89285 0.0
C2827 C 0.75672 0.50023 0.89379 0.0
C2828 C 0.77089 0.48765 0.89238 0.0
C2829 C 0.76654 0.46926 0.89068 0.0
C2830 C 0.72289 0.50724 0.89468 0.0
C2831 C 0.79062 0.4936 0.89287 0.0
H2832 H 0.76582 0.55922 0.87402 0.0
H2833 H 0.76837 0.54977 0.931 0.0
H2834 H 0.76998 0.51387 0.86036 0.0
H2835 H 0.74641 0.51923 0.86074 0.0
H2836 H 0.76277 0.53575 0.85293 0.0
H2837 H 0.76405 0.52118 0.94365 0.0
H2838 H 0.74807 0.50747 0.93097 0.0
H2839 H 0.7718 0.50295 0.92972 0.0
H2840 H 0.72038 0.47121 0.89017 0.0
H2841 H 0.77735 0.45953 0.88995 0.0
H2842 H 0.72388 0.51776 0.88415 0.0
H2843 H 0.72378 0.51417 0.90792 0.0
H2844 H 0.70938 0.50041 0.89356 0.0
H2845 H 0.79318 0.50414 0.88258 0.0
H2846 H 0.79996 0.48226 0.8904 0.0
H2847 H 0.79393 0.49963 0.90618 0.0
C2848 C 0.46748 0.77222 0.86872 0.0
C2849 C 0.46098 0.75462 0.87156 0.0
C2850 C 0.48618 0.77579 0.86685 0.0
C2851 C 0.49856 0.7615 0.86855 0.0
C2852 C 0.49198 0.74368 0.8712 0.0
C2853 C 0.47323 0.74042 0.87236 0.0
C2854 C 0.49271 0.79485 0.8634 0.0
C2855 C 0.50475 0.72813 0.87358 0.0
C2856 C 0.54796 0.76314 0.85434 0.0
C2857 C 0.55663 0.76661 0.87084 0.0
C2858 C 0.52892 0.76271 0.8531 0.0
C2859 C 0.51845 0.76514 0.86886 0.0
C2860 C 0.52719 0.76924 0.88542 0.0
C2861 C 0.5462 0.77021 0.88613 0.0
C2862 C 0.52004 0.75895 0.83509 0.0
C2863 C 0.51654 0.77143 0.90262 0.0
H2864 H 0.45795 0.78317 0.86795 0.0
H2865 H 0.4682 0.72682 0.87467 0.0
H2866 H 0.50012 0.80012 0.87538 0.0
H2867 H 0.50236 0.79516 0.85194 0.0
H2868 H 0.48131 0.804 0.86038 0.0
H2869 H 0.49739 0.71508 0.87543 0.0
H2870 H 0.51375 0.72698 0.86169 0.0
H2871 H 0.5136 0.7306 0.8855 0.0
H2872 H 0.55607 0.76051 0.84249 0.0
H2873 H 0.55291 0.77279 0.89893 0.0
H2874 H 0.50877 0.76841 0.8327 0.0
H2875 H 0.5141 0.74512 0.83499 0.0
H2876 H 0.52987 0.7601 0.82381 0.0
H2877 H 0.50589 0.78168 0.90089 0.0
H2878 H 0.52534 0.77548 0.91418 0.0
H2879 H 0.50955 0.75851 0.90598 0.0
C2880 C 0.7355 0.53969 0.0986 0.0
C2881 C 0.75273 0.54791 0.09757 0.0
C2882 C 0.73364 0.52091 0.10007 0.0
C2883 C 0.74941 0.51029 0.1012 0.0
C2884 C 0.76684 0.51862 0.10055 0.0
C2885 C 0.76828 0.53733 0.09842 0.0
C2886 C 0.71484 0.51241 0.10012 0.0
C2887 C 0.78396 0.50781 0.10226 0.0
C2888 C 0.7448 0.46334 0.12097 0.0
C2889 C 0.74601 0.45264 0.10549 0.0
C2890 C 0.74599 0.48219 0.11981 0.0
C2891 C 0.74775 0.49041 0.10269 0.0
C2892 C 0.74846 0.4796 0.08698 0.0
C2893 C 0.74791 0.46081 0.08861 0.0
C2894 C 0.74578 0.49327 0.13688 0.0
C2895 C 0.74976 0.48788 0.06847 0.0
H2896 H 0.72349 0.54792 0.09786 0.0
H2897 H 0.78161 0.54377 0.09784 0.0
H2898 H 0.71352 0.5026 0.08887 0.0
H2899 H 0.71261 0.50485 0.1128 0.0
H2900 H 0.704 0.52255 0.09875 0.0
H2901 H 0.79642 0.51648 0.10248 0.0
H2902 H 0.78354 0.49972 0.1148 0.0
H2903 H 0.78494 0.49824 0.09082 0.0
H2904 H 0.7434 0.45695 0.13401 0.0
H2905 H 0.74862 0.45248 0.07662 0.0
H2906 H 0.7343 0.50274 0.13658 0.0
H2907 H 0.75849 0.50149 0.13792 0.0
H2908 H 0.74453 0.48478 0.14912 0.0
H2909 H 0.73863 0.4976 0.06649 0.0
H2910 H 0.74896 0.4776 0.05758 0.0
H2911 H 0.76278 0.49549 0.06714 0.0
C2912 C 0.53567 0.76134 0.08387 0.0
C2913 C 0.54952 0.75997 0.09674 0.0
C2914 C 0.51737 0.75955 0.08882 0.0
C2915 C 0.51284 0.75695 0.10717 0.0
C2916 C 0.52679 0.75578 0.12026 0.0
C2917 C 0.54502 0.75702 0.11483 0.0
C2918 C 0.50288 0.76039 0.07439 0.0
C2919 C 0.52244 0.75358 0.13999 0.0
C2920 C 0.46452 0.77019 0.11749 0.0
C2921 C 0.45553 0.75341 0.11732 0.0
C2922 C 0.48343 0.77146 0.11542 0.0
C2923 C 0.49343 0.7556 0.1125 0.0
C2924 C 0.4845 0.73857 0.11308 0.0
C2925 C 0.46565 0.73767 0.11579 0.0
C2926 C 0.49257 0.78983 0.11549 0.0
C2927 C 0.49462 0.72138 0.10961 0.0
H2928 H 0.53919 0.76349 0.06986 0.0
H2929 H 0.55577 0.75614 0.1248 0.0
H2930 H 0.49406 0.74812 0.0749 0.0
H2931 H 0.49409 0.77213 0.07678 0.0
H2932 H 0.50874 0.76154 0.06066 0.0
H2933 H 0.53488 0.75307 0.14848 0.0
H2934 H 0.51405 0.76496 0.14463 0.0
H2935 H 0.51434 0.74104 0.14214 0.0
H2936 H 0.45669 0.78236 0.11883 0.0
H2937 H 0.45871 0.72468 0.11559 0.0
H2938 H 0.497 0.79331 0.10165 0.0
H2939 H 0.50489 0.7898 0.12416 0.0
H2940 H 0.48336 0.80049 0.12035 0.0
H2941 H 0.49942 0.72121 0.09546 0.0
H2942 H 0.48598 0.70919 0.1119 0.0
H2943 H 0.5068 0.72066 0.1184 0.0
C2944 C 0.52776 0.24655 0.10928 0.0
C2945 C 0.53721 0.2304 0.11091 0.0
C2946 C 0.50887 0.24643 0.10671 0.0
C2947 C 0.49921 0.22978 0.10629 0.0
C2948 C 0.50857 0.2135 0.10901 0.0
C2949 C 0.52753 0.21399 0.11103 0.0
C2950 C 0.49943 0.26403 0.10347 0.0
C2951 C 0.49864 0.19554 0.10918 0.0
C2952 C 0.44784 0.2309 0.11065 0.0
C2953 C 0.44234 0.22831 0.09272 0.0
C2954 C 0.46633 0.23115 0.11535 0.0
C2955 C 0.47956 0.2293 0.10171 0.0
C2956 C 0.47405 0.227 0.08354 0.0
C2957 C 0.45548 0.22626 0.07931 0.0
C2958 C 0.4717 0.23312 0.13491 0.0
C2959 C 0.48778 0.22543 0.06855 0.0
H2960 H 0.53523 0.25926 0.10914 0.0
H2961 H 0.53483 0.20151 0.11243 0.0
H2962 H 0.4938 0.26417 0.08959 0.0
H2963 H 0.48785 0.26548 0.11285 0.0
H2964 H 0.50874 0.27585 0.10515 0.0
H2965 H 0.50758 0.18441 0.11343 0.0
H2966 H 0.48682 0.19601 0.1184 0.0
H2967 H 0.49332 0.19242 0.09551 0.0
H2968 H 0.43766 0.23231 0.12106 0.0
H2969 H 0.45122 0.22438 0.06542 0.0
H2970 H 0.48036 0.24536 0.13681 0.0
H2971 H 0.47988 0.22142 0.13911 0.0
H2972 H 0.45972 0.23406 0.14391 0.0
H2973 H 0.49712 0.23733 0.06868 0.0
H2974 H 0.48124 0.22441 0.05507 0.0
H2975 H 0.49618 0.21335 0.07064 0.0
C2976 C 0.61532 0.7593 0.02429 0.0
C2977 C 0.61545 0.74372 0.03488 0.0
C2978 C 0.61407 0.75815 0.00548 0.0
C2979 C 0.61351 0.741 -0.00291 0.0
C2980 C 0.61419 0.72522 0.00771 0.0
C2981 C 0.61484 0.72677 0.02655 0.0
C2982 C 0.61287 0.77527 0.99464 0.0
C2983 C 0.61419 0.70673 -0.00081 0.0
C2984 C 0.59287 0.73781 0.95029 0.0
C2985 C 0.60832 0.73956 0.93942 0.0
C2986 C 0.59438 0.73814 0.96912 0.0
C2987 C 0.6118 0.73967 0.9772 0.0
C2988 C 0.6275 0.74075 0.96624 0.0
C2989 C 0.62554 0.741 0.94745 0.0
C2990 C 0.5773 0.73748 0.98034 0.0
C2991 C 0.64632 0.74183 0.97438 0.0
H2992 H 0.61562 0.77242 0.03075 0.0
H2993 H 0.61505 0.71474 0.03477 0.0
H2994 H 0.62431 0.77618 0.98499 0.0
H2995 H 0.60009 0.77514 0.98664 0.0
H2996 H 0.61318 0.78752 0.00328 0.0
H2997 H 0.61588 0.69588 0.0093 0.0
H2998 H 0.60123 0.70426 0.99184 0.0
H2999 H 0.62533 0.70589 0.9892 0.0
H3000 H 0.57954 0.73684 0.94405 0.0
H3001 H 0.6375 0.74218 0.93901 0.0
H3002 H 0.57641 0.74994 0.98856 0.0
H3003 H 0.57769 0.72598 0.98982 0.0
H3004 H 0.56481 0.73615 0.97196 0.0
H3005 H 0.64809 0.75466 0.98192 0.0
H3006 H 0.65714 0.7411 0.96401 0.0
H3007 H 0.64817 0.7307 0.98413 0.0
C3008 C 0.27879 0.58642 0.96108 0.0
C3009 C 0.26386 0.58705 0.94939 0.0
C3010 C 0.27644 0.58742 0.97976 0.0
C3011 C 0.25867 0.58854 0.98688 0.0
C3012 C 0.2436 0.59003 0.9751 0.0
C3013 C 0.24642 0.58949 0.9564 0.0
C3014 C 0.29292 0.58628 0.99186 0.0
C3015 C 0.22443 0.59092 0.98219 0.0
C3016 C 0.25581 0.56551 0.03206 0.0
C3017 C 0.25677 0.58016 0.04393 0.0
C3018 C 0.25509 0.56815 0.01342 0.0
C3019 C 0.25592 0.5859 0.0065 0.0
C3020 C 0.25609 0.60079 0.01847 0.0
C3021 C 0.25629 0.59773 0.03713 0.0
C3022 C 0.2544 0.5519 0.00113 0.0
C3023 C 0.2573 0.61988 0.0116 0.0
H3024 H 0.29231 0.58474 0.95562 0.0
H3025 H 0.23486 0.5899 0.94732 0.0
H3026 H 0.29255 0.59684 0.00245 0.0
H3027 H 0.29291 0.57303 -0.00128 0.0
H3028 H 0.30584 0.58781 0.98425 0.0
H3029 H 0.21455 0.59451 0.9715 0.0
H3030 H 0.22039 0.57759 0.98777 0.0
H3031 H 0.22356 0.60088 0.99329 0.0
H3032 H 0.25598 0.55192 0.03737 0.0
H3033 H 0.25713 0.60906 0.04636 0.0
H3034 H 0.26763 0.55061 0.99413 0.0
H3035 H 0.24377 0.55351 0.99065 0.0
H3036 H 0.25157 0.53923 0.0086 0.0
H3037 H 0.27105 0.62245 0.00596 0.0
H3038 H 0.25487 0.62991 0.02243 0.0
H3039 H 0.24735 0.62198 0.00058 0.0
C3040 C 0.37384 0.26639 0.02699 0.0
C3041 C 0.37373 0.24923 0.03477 0.0
C3042 C 0.37546 0.26849 0.00829 0.0
C3043 C 0.37768 0.25309 -0.00271 0.0
C3044 C 0.3773 0.2357 0.0051 0.0
C3045 C 0.37502 0.23398 0.02375 0.0
C3046 C 0.37519 0.28719 0.00037 0.0
C3047 C 0.38011 0.21899 0.99387 0.0
C3048 C 0.37079 0.25462 0.94667 0.0
C3049 C 0.38865 0.25728 0.94063 0.0
C3050 C 0.3669 0.25387 0.96514 0.0
C3051 C 0.38133 0.25514 0.97775 0.0
C3052 C 0.39941 0.25783 0.97169 0.0
C3053 C 0.40281 0.25918 0.95317 0.0
C3054 C 0.34741 0.25161 0.97114 0.0
C3055 C 0.41521 0.25876 0.98471 0.0
H3056 H 0.37274 0.27817 0.03555 0.0
H3057 H 0.37511 0.22071 0.02981 0.0
H3058 H 0.38877 0.29072 0.99483 0.0
H3059 H 0.36531 0.28769 0.98907 0.0
H3060 H 0.37155 0.29754 0.01051 0.0
H3061 H 0.37914 0.20647 0.00198 0.0
H3062 H 0.36987 0.21816 0.98289 0.0
H3063 H 0.39371 0.21967 0.98746 0.0
H3064 H 0.35983 0.25331 0.93693 0.0
H3065 H 0.41664 0.26109 0.94845 0.0
H3066 H 0.34399 0.26233 0.98094 0.0
H3067 H 0.34554 0.23851 0.97808 0.0
H3068 H 0.33769 0.25213 0.95967 0.0
H3069 H 0.41342 0.27002 0.99436 0.0
H3070 H 0.42845 0.2607 0.97777 0.0
H3071 H 0.41568 0.24615 0.99268 0.0
C3072 C 0.74481 0.38499 0.03922 0.0
C3073 C 0.72804 0.38783 0.04759 0.0
C3074 C 0.74627 0.38503 0.02038 0.0
C3075 C 0.73051 0.38766 0.00977 0.0
C3076 C 0.71333 0.38883 0.01818 0.0
C3077 C 0.71232 0.38911 0.03702 0.0
C3078 C 0.76485 0.38388 0.01194 0.0
C3079 C 0.69614 0.3912 0.00733 0.0
C3080 C 0.7328 0.41522 0.96718 0.0
C3081 C 0.73097 0.40197 0.95382 0.0
C3082 C 0.73365 0.41058 0.98539 0.0
C3083 C 0.73221 0.39222 0.99039 0.0
C3084 C 0.73104 0.3787 0.97692 0.0
C3085 C 0.73062 0.38375 0.95869 0.0
C3086 C 0.73535 0.42541 -0.00069 0.0
C3087 C 0.72923 0.35903 0.98177 0.0
H3088 H 0.75701 0.38398 0.04736 0.0
H3089 H 0.69929 0.39105 0.04347 0.0
H3090 H 0.7645 0.37494 -5e-05 0.0
H3091 H 0.76926 0.39748 0.00736 0.0
H3092 H 0.77514 0.37884 0.02158 0.0
H3093 H 0.68374 0.38907 0.01561 0.0
H3094 H 0.69591 0.40505 0.00178 0.0
H3095 H 0.69567 0.38168 -0.00421 0.0
H3096 H 0.73327 0.42931 0.96338 0.0
H3097 H 0.7291 0.37352 0.94832 0.0
H3098 H 0.74655 0.42256 0.00886 0.0
H3099 H 0.72261 0.42609 0.00722 0.0
H3100 H 0.73797 0.43881 0.99312 0.0
H3101 H 0.73945 0.35539 0.9921 0.0
H3102 H 0.73085 0.35012 0.96986 0.0
H3103 H 0.7156 0.3564 0.98766 0.0
C3104 C 0.60744 0.24981 0.9526 0.0
C3105 C 0.59023 0.2503 0.94447 0.0
C3106 C 0.6092 0.24844 0.97138 0.0
C3107 C 0.59338 0.24707 0.98212 0.0
C3108 C 0.57601 0.24676 0.97386 0.0
C3109 C 0.57464 0.24862 0.95514 0.0
C3110 C 0.62792 0.24924 0.97976 0.0
C3111 C 0.55881 0.24493 0.98482 0.0
C3112 C 0.59506 0.23193 0.03092 0.0
C3113 C 0.59246 0.2483 0.03989 0.0
C3114 C 0.59597 0.2313 0.01202 0.0
C3115 C 0.59473 0.24749 0.00207 0.0
C3116 C 0.59321 0.26415 0.01121 0.0
C3117 C 0.59184 0.26431 0.03 0.0
C3118 C 0.59723 0.21328 0.00271 0.0
C3119 C 0.59231 0.28175 0.00112 0.0
H3120 H 0.61951 0.25115 0.94434 0.0
H3121 H 0.56133 0.24873 0.94884 0.0
H3122 H 0.62948 0.26178 0.98781 0.0
H3123 H 0.62975 0.23777 0.9891 0.0
H3124 H 0.63886 0.24899 0.96949 0.0
H3125 H 0.54653 0.24317 0.97622 0.0
H3126 H 0.55969 0.23325 0.99405 0.0
H3127 H 0.55712 0.25714 0.99326 0.0
H3128 H 0.59546 0.21955 0.0386 0.0
H3129 H 0.59005 0.277 0.03699 0.0
H3130 H 0.60826 0.21354 0.99257 0.0
H3131 H 0.58433 0.21031 -0.00459 0.0
H3132 H 0.59974 0.20217 0.01235 0.0
H3133 H 0.60355 0.28279 0.99123 0.0
H3134 H 0.59313 0.29359 0.01029 0.0
H3135 H 0.57935 0.28231 0.99349 0.0
C3136 C 0.72736 0.63212 0.04176 0.0
C3137 C 0.74322 0.62827 0.05138 0.0
C3138 C 0.7278 0.63429 0.02301 0.0
C3139 C 0.74434 0.63182 0.01371 0.0
C3140 C 0.76049 0.62845 0.02348 0.0
C3141 C 0.75978 0.62703 0.04227 0.0
C3142 C 0.71045 0.63855 0.0131 0.0
C3143 C 0.77829 0.6252 0.01402 0.0
C3144 C 0.74173 0.61308 0.96633 0.0
C3145 C 0.74741 0.62795 0.95612 0.0
C3146 C 0.74053 0.61425 0.9851 0.0
C3147 C 0.74448 0.63088 0.99376 0.0
C3148 C 0.74943 0.64617 0.98341 0.0
C3149 C 0.7512 0.64443 0.96467 0.0
C3150 C 0.73572 0.5975 -0.00431 0.0
C3151 C 0.75309 0.66426 0.99216 0.0
H3152 H 0.71459 0.63323 0.04889 0.0
H3153 H 0.77202 0.62395 0.04973 0.0
H3154 H 0.71289 0.64949 0.00321 0.0
H3155 H 0.70564 0.6265 0.00549 0.0
H3156 H 0.69948 0.64267 0.02242 0.0
H3157 H 0.78976 0.62361 0.02363 0.0
H3158 H 0.77707 0.6128 0.00569 0.0
H3159 H 0.78162 0.63649 0.00481 0.0
H3160 H 0.73896 0.60029 0.9597 0.0
H3161 H 0.75548 0.65594 0.95669 0.0
H3162 H 0.72341 0.59976 0.00391 0.0
H3163 H 0.74695 0.59434 0.00512 0.0
H3164 H 0.73316 0.5856 0.98687 0.0
H3165 H 0.74167 0.6678 0.00116 0.0
H3166 H 0.75498 0.67515 0.98208 0.0
H3167 H 0.76552 0.66365 0.00061 0.0
C3168 C 0.43032 0.73851 0.95969 0.0
C3169 C 0.41507 0.73609 0.94857 0.0
C3170 C 0.42852 0.73919 0.97845 0.0
C3171 C 0.41111 0.7368 0.98624 0.0
C3172 C 0.39559 0.73476 0.97503 0.0
C3173 C 0.39774 0.7347 0.95625 0.0
C3174 C 0.44532 0.74192 0.98995 0.0
C3175 C 0.37688 0.73176 0.98286 0.0
C3176 C 0.41217 0.71735 0.0333 0.0
C3177 C 0.40904 0.73261 0.04389 0.0
C3178 C 0.41209 0.71841 0.01447 0.0
C3179 C 0.4094 0.73527 0.00608 0.0
C3180 C 0.40607 0.75071 0.01671 0.0
C3181 C 0.40566 0.74913 0.03553 0.0
C3182 C 0.41522 0.70155 0.00355 0.0
C3183 C 0.40363 0.76898 0.00826 0.0
H3184 H 0.4437 0.73974 0.9537 0.0
H3185 H 0.38597 0.73269 0.94761 0.0
H3186 H 0.44319 0.75285 -9e-05 0.0
H3187 H 0.44807 0.72945 -0.00239 0.0
H3188 H 0.45752 0.74536 0.98179 0.0
H3189 H 0.36611 0.73148 0.97233 0.0
H3190 H 0.37643 0.71875 0.99018 0.0
H3191 H 0.37376 0.74248 0.99275 0.0
H3192 H 0.41461 0.70454 0.03977 0.0
H3193 H 0.40338 0.76097 0.04374 0.0
H3194 H 0.42834 0.70278 -0.00371 0.0
H3195 H 0.40436 0.69979 0.99327 0.0
H3196 H 0.41554 0.68929 0.01208 0.0
H3197 H 0.41629 0.77308 0.00117 0.0
H3198 H 0.40039 0.77949 0.01837 0.0
H3199 H 0.39259 0.7684 -0.00194 0.0
C3200 C 0.22466 0.36406 0.02402 0.0
C3201 C 0.23982 0.36138 0.03507 0.0
C3202 C 0.22623 0.36354 0.00523 0.0
C3203 C 0.24325 0.35963 -0.00261 0.0
C3204 C 0.25843 0.35616 0.00854 0.0
C3205 C 0.2566 0.35742 0.0273 0.0
C3206 C 0.20987 0.36784 0.99378 0.0
C3207 C 0.27661 0.35137 0.00065 0.0
C3208 C 0.24058 0.34648 0.94806 0.0
C3209 C 0.24566 0.36269 0.93975 0.0
C3210 C 0.24067 0.34496 0.96689 0.0
C3211 C 0.24529 0.36023 0.97754 0.0
C3212 C 0.25075 0.37653 0.96915 0.0
C3213 C 0.25115 0.37747 0.95033 0.0
C3214 C 0.23538 0.3272 0.97539 0.0
C3215 C 0.25528 0.39325 0.98003 0.0
H3216 H 0.21171 0.36725 0.03007 0.0
H3217 H 0.26828 0.35518 0.03593 0.0
H3218 H 0.21289 0.37986 0.98538 0.0
H3219 H 0.20668 0.3565 0.98449 0.0
H3220 H 0.19762 0.37055 0.00201 0.0
H3221 H 0.28653 0.34741 0.01117 0.0
H3222 H 0.27494 0.34011 0.99089 0.0
H3223 H 0.28235 0.36305 0.99319 0.0
H3224 H 0.23643 0.33504 0.93982 0.0
H3225 H 0.25493 0.39007 0.94389 0.0
H3226 H 0.22212 0.32843 0.9823 0.0
H3227 H 0.24555 0.32343 0.98573 0.0
H3228 H 0.23421 0.31616 0.9653 0.0
H3229 H 0.24318 0.39733 0.98785 0.0
H3230 H 0.25967 0.40474 0.97143 0.0
H3231 H 0.26626 0.39048 0.98985 0.0
C3232 C 0.04527 0.63271 0.73446 0.0
C3233 C 0.05416 0.61649 0.73135 0.0
C3234 C 0.02623 0.63341 0.73387 0.0
C3235 C 0.01598 0.61736 0.73083 0.0
C3236 C 0.02497 0.60099 0.72751 0.0
C3237 C 0.04399 0.60083 0.7275 0.0
C3238 C 0.01708 0.65121 0.73685 0.0
C3239 C 0.01453 0.58348 0.72482 0.0
C3240 C 0.96873 0.61418 0.7507 0.0
C3241 C 0.95783 0.61504 0.73525 0.0
C3242 C 0.98771 0.61495 0.74942 0.0
C3243 C -0.00411 0.61733 0.73234 0.0
C3244 C 0.98489 0.61879 0.71675 0.0
C3245 C 0.96593 0.61726 0.71835 0.0
C3246 C -0.00101 0.61272 0.76628 0.0
C3247 C 0.99315 0.62192 0.69841 0.0
H3248 H 0.05322 0.64481 0.73734 0.0
H3249 H 0.0509 0.58824 0.72528 0.0
H3250 H 0.00685 0.65353 0.72612 0.0
H3251 H 0.00976 0.651 0.74988 0.0
H3252 H 0.02696 0.66269 0.73701 0.0
H3253 H 0.02361 0.57199 0.7221 0.0
H3254 H 0.00643 0.58038 0.73705 0.0
H3255 H 0.00484 0.58466 0.71344 0.0
H3256 H 0.9624 0.61234 0.76375 0.0
H3257 H 0.95741 0.6181 0.70645 0.0
H3258 H 0.0079 0.62474 0.76841 0.0
H3259 H 0.00794 0.60094 0.76479 0.0
H3260 H 0.99047 0.61075 0.77847 0.0
H3261 H 0.00251 0.6338 0.69885 0.0
H3262 H 0.98267 0.62415 0.68789 0.0
H3263 H 0.00131 0.61014 0.69444 0.0
C3264 C 0.36906 0.93911 0.74608 0.0
C3265 C 0.38516 0.92952 0.74409 0.0
C3266 C 0.36936 0.958 0.74653 0.0
C3267 C 0.38622 0.9674 0.74551 0.0
C3268 C 0.40249 0.95777 0.74321 0.0
C3269 C 0.40172 0.93891 0.74227 0.0
C3270 C 0.35169 0.96786 0.7485 0.0
C3271 C 0.42077 0.96731 0.74252 0.0
C3272 C 0.38769 0.01755 0.73573 0.0
C3273 C 0.38851 0.02478 0.75317 0.0
C3274 C 0.38664 -0.00114 0.733 0.0
C3275 C 0.38697 0.98722 0.74806 0.0
C3276 C 0.3881 0.99449 0.76568 0.0
C3277 C 0.38859 0.01321 0.76803 0.0
C3278 C 0.38498 0.99156 0.71405 0.0
C3279 C 0.38894 0.98249 0.78205 0.0
H3280 H 0.35622 0.93184 0.74733 0.0
H3281 H 0.4142 0.93148 0.74087 0.0
H3282 H 0.35129 0.97465 0.76181 0.0
H3283 H 0.35065 0.97846 0.73806 0.0
H3284 H 0.33966 0.95866 0.74735 0.0
H3285 H 0.43206 0.95789 0.74001 0.0
H3286 H 0.42086 0.97767 0.73179 0.0
H3287 H 0.42339 0.97439 0.75549 0.0
H3288 H 0.38749 0.02654 0.72425 0.0
H3289 H 0.38937 0.01882 0.78152 0.0
H3290 H 0.37249 0.98306 0.7128 0.0
H3291 H 0.39668 0.98287 0.71097 0.0
H3292 H 0.38445 0.00245 0.70384 0.0
H3293 H 0.3764 0.97403 0.78291 0.0
H3294 H 0.39043 0.99031 0.79476 0.0
H3295 H 0.40057 0.97325 0.78088 0.0
C3296 C 0.01668 0.38871 0.71148 0.0
C3297 C 0.02593 0.38763 0.72794 0.0
C3298 C -0.00236 0.38948 0.71096 0.0
C3299 C 0.98779 0.38985 0.7273 0.0
C3300 C -0.00288 0.38866 0.74395 0.0
C3301 C 0.0161 0.38726 0.74405 0.0
C3302 C 0.9881 0.39015 0.69294 0.0
C3303 C 0.98715 0.38957 0.76167 0.0
C3304 C 0.94205 0.41251 0.72639 0.0
C3305 C 0.93006 0.39772 0.72752 0.0
C3306 C 0.9609 0.41012 0.72647 0.0
C3307 C 0.96784 0.39246 0.72705 0.0
C3308 C 0.95575 0.37744 0.72774 0.0
C3309 C 0.93695 0.38027 0.72831 0.0
C3310 C 0.97336 0.4265 0.72629 0.0
C3311 C 0.96267 0.35841 0.7278 0.0
H3312 H 0.02433 0.38886 0.69903 0.0
H3313 H 0.02331 0.38657 0.75678 0.0
H3314 H 0.97717 0.37968 0.69227 0.0
H3315 H 0.98158 0.4034 0.69125 0.0
H3316 H -0.00242 0.38809 0.68153 0.0
H3317 H -0.00359 0.38822 0.77341 0.0
H3318 H 0.98009 0.40262 0.76276 0.0
H3319 H 0.97659 0.37875 0.76235 0.0
H3320 H 0.93667 0.42601 0.72596 0.0
H3321 H 0.9276 0.36884 0.72904 0.0
H3322 H 0.98213 0.42626 0.71417 0.0
H3323 H 0.98246 0.42636 0.73823 0.0
H3324 H 0.96575 0.43929 0.72634 0.0
H3325 H 0.97163 0.35627 0.71602 0.0
H3326 H 0.95145 0.34821 0.7274 0.0
H3327 H 0.97096 0.35614 0.74006 0.0
C3328 C 0.56272 0.96361 0.74934 0.0
C3329 C 0.57681 0.95131 0.74742 0.0
C3330 C 0.56642 0.98216 0.75039 0.0
C3331 C 0.5846 0.98854 0.74895 0.0
C3332 C 0.59894 0.97613 0.74767 0.0
C3333 C 0.59487 0.95759 0.74716 0.0
C3334 C 0.55079 0.99495 0.75225 0.0
C3335 C 0.61845 0.98244 0.74574 0.0
C3336 C 0.58827 0.03505 0.72846 0.0
C3337 C 0.59154 0.04584 0.74366 0.0
C3338 C 0.58689 0.01628 0.72992 0.0
C3339 C 0.58829 0.00817 0.7471 0.0
C3340 C 0.592 0.01897 0.76246 0.0
C3341 C 0.59382 0.03772 0.76051 0.0
C3342 C 0.5834 0.00517 0.71315 0.0
C3343 C 0.59318 0.01083 0.78102 0.0
H3344 H 0.54875 0.95873 0.74971 0.0
H3345 H 0.60577 0.94808 0.74555 0.0
H3346 H 0.55365 0.00491 0.76311 0.0
H3347 H 0.54907 0.00255 0.73954 0.0
H3348 H 0.53778 0.98779 0.7553 0.0
H3349 H 0.62812 0.97114 0.74662 0.0
H3350 H 0.62024 0.98912 0.73249 0.0
H3351 H 0.62201 0.99253 0.75627 0.0
H3352 H 0.58668 0.04133 0.71539 0.0
H3353 H 0.59622 0.04609 0.7723 0.0
H3354 H 0.56961 -0.00107 0.71375 0.0
H3355 H 0.59328 0.99409 0.71226 0.0
H3356 H 0.58438 0.01337 0.70069 0.0
H3357 H 0.57969 0.00513 0.78484 0.0
H3358 H 0.59745 0.02089 0.79137 0.0
H3359 H 0.60291 -0.00041 0.78113 0.0
C3360 C 0.96505 0.37262 0.23971 0.0
C3361 C 0.95497 0.36764 0.25493 0.0
C3362 C 0.98349 0.37753 0.24125 0.0
C3363 C 0.99208 0.37694 0.25833 0.0
C3364 C 0.98225 0.37071 0.2735 0.0
C3365 C 0.96372 0.36635 0.27165 0.0
C3366 C 0.99345 0.38436 0.22482 0.0
C3367 C 0.99109 0.36938 0.29181 0.0
C3368 C 0.0436 0.3799 0.25909 0.0
C3369 C 0.04662 0.39804 0.26373 0.0
C3370 C 0.0259 0.3727 0.2577 0.0
C3371 C 0.01093 0.38405 0.26055 0.0
C3372 C 0.01392 0.40236 0.26528 0.0
C3373 C 0.03176 0.40908 0.26705 0.0
C3374 C 0.02323 0.353 0.25312 0.0
C3375 C -0.00174 0.41495 0.26811 0.0
H3376 H 0.95831 0.37368 0.22677 0.0
H3377 H 0.95595 0.36236 0.28341 0.0
H3378 H -0.00281 0.39879 0.22674 0.0
H3379 H 0.00626 0.37694 0.22292 0.0
H3380 H 0.98513 0.38301 0.21236 0.0
H3381 H 0.9822 0.36232 0.30169 0.0
H3382 H 0.00412 0.36213 0.29084 0.0
H3383 H 0.99426 0.3831 0.29704 0.0
H3384 H 0.05509 0.37129 0.25668 0.0
H3385 H 0.03409 0.42313 0.27052 0.0
H3386 H 0.01595 0.35157 0.24008 0.0
H3387 H 0.01467 0.34632 0.2635 0.0
H3388 H 0.03632 0.34582 0.25217 0.0
H3389 H 0.98976 0.41541 0.25575 0.0
H3390 H 0.00292 0.42888 0.27147 0.0
H3391 H 0.98946 0.40993 0.27916 0.0
C3392 C 0.59765 0.03511 0.27498 0.0
C3393 C 0.59742 0.04637 0.25989 0.0
C3394 C 0.59703 0.01634 0.27304 0.0
C3395 C 0.59553 0.00871 0.25559 0.0
C3396 C 0.59601 0.02002 0.24026 0.0
C3397 C 0.59722 0.03879 0.2426 0.0
C3398 C 0.59712 0.00473 0.2897 0.0
C3399 C 0.59404 0.01241 0.22148 0.0
C3400 C 0.60225 0.95831 0.25069 0.0
C3401 C 0.58439 0.95172 0.25256 0.0
C3402 C 0.60614 0.97688 0.25146 0.0
C3403 C 0.59174 0.98908 0.25362 0.0
C3404 C 0.57361 0.98249 0.25488 0.0
C3405 C 0.57018 0.96386 0.25461 0.0
C3406 C 0.62567 0.98339 0.25056 0.0
C3407 C 0.55782 -0.00491 0.25678 0.0
H3408 H 0.59793 0.04103 0.28835 0.0
H3409 H 0.59686 0.04756 0.23096 0.0
H3410 H 0.58348 -0.00157 0.2916 0.0
H3411 H 0.60698 0.99368 0.28821 0.0
H3412 H 0.60064 0.0126 0.30201 0.0
H3413 H 0.5964 0.0228 0.21097 0.0
H3414 H 0.60369 0.00129 0.21934 0.0
H3415 H 0.58012 0.00668 0.2197 0.0
H3416 H 0.61327 0.9489 0.24921 0.0
H3417 H 0.55634 0.95878 0.25585 0.0
H3418 H 0.62948 0.99012 0.26342 0.0
H3419 H 0.62737 0.9935 0.23972 0.0
H3420 H 0.63522 0.97222 0.24811 0.0
H3421 H 0.55879 0.00233 0.26985 0.0
H3422 H 0.54448 0.98787 0.25613 0.0
H3423 H 0.55827 0.00539 0.24598 0.0
C3424 C 0.04088 0.61095 0.26148 0.0
C3425 C 0.04962 0.62646 0.25483 0.0
C3426 C 0.02197 0.61015 0.26346 0.0
C3427 C 0.01159 0.62544 0.25921 0.0
C3428 C 0.02042 0.64146 0.25332 0.0
C3429 C 0.03937 0.64168 0.25088 0.0
C3430 C 0.01306 0.59264 0.26931 0.0
C3431 C 0.00983 0.6582 0.24923 0.0
C3432 C 0.96304 0.61503 0.24517 0.0
C3433 C 0.95385 0.61649 0.26159 0.0
C3434 C 0.98178 0.61847 0.2441 0.0
C3435 C 0.99144 0.62404 0.25973 0.0
C3436 C 0.98202 0.62653 0.27613 0.0
C3437 C 0.96334 0.6224 0.27694 0.0
C3438 C 0.99139 0.61516 0.22648 0.0
C3439 C 0.99176 0.63301 0.29292 0.0
H3440 H 0.04876 0.5991 0.26443 0.0
H3441 H 0.04615 0.65372 0.24586 0.0
H3442 H 0.00468 0.59483 0.28149 0.0
H3443 H 0.00381 0.58757 0.25853 0.0
H3444 H 0.02313 0.58208 0.27233 0.0
H3445 H 0.01888 0.67008 0.24681 0.0
H3446 H 0.00128 0.65593 0.23708 0.0
H3447 H 0.00056 0.66131 0.26054 0.0
H3448 H 0.95572 0.61039 0.23329 0.0
H3449 H 0.95617 0.62371 0.28961 0.0
H3450 H 0.00113 0.60402 0.22813 0.0
H3451 H -0.00065 0.62729 0.22244 0.0
H3452 H 0.98179 0.61155 0.21542 0.0
H3453 H 0.00078 0.6223 0.29796 0.0
H3454 H 0.98215 0.63658 0.30381 0.0
H3455 H 0.00048 0.64495 0.28987 0.0
C3456 C 0.37308 0.03919 0.25539 0.0
C3457 C 0.39115 0.04547 0.2557 0.0
C3458 C 0.369 0.0207 0.25455 0.0
C3459 C 0.38334 0.0083 0.25338 0.0
C3460 C 0.40163 0.01459 0.25385 0.0
C3461 C 0.40532 0.03314 0.2553 0.0
C3462 C 0.34935 0.01446 0.25466 0.0
C3463 C 0.41727 0.00178 0.2522 0.0
C3464 C 0.37554 0.95881 0.26378 0.0
C3465 C 0.37287 0.95158 0.24651 0.0
C3466 C 0.37842 0.97736 0.26628 0.0
C3467 C 0.37922 0.98879 0.25108 0.0
C3468 C 0.37642 0.98154 0.2336 0.0
C3469 C 0.37299 0.96301 0.23155 0.0
C3470 C 0.38076 0.9847 0.28515 0.0
C3471 C 0.3776 0.99326 0.21704 0.0
H3472 H 0.36213 0.04876 0.25586 0.0
H3473 H 0.41929 0.03804 0.25538 0.0
H3474 H 0.34583 0.008 0.2416 0.0
H3475 H 0.34717 0.0042 0.26531 0.0
H3476 H 0.3399 0.02573 0.257 0.0
H3477 H 0.43069 0.00885 0.25288 0.0
H3478 H 0.41662 0.99161 0.2631 0.0
H3479 H 0.41627 0.9944 0.23921 0.0
H3480 H 0.37535 0.94993 0.27534 0.0
H3481 H 0.37112 0.95736 0.21818 0.0
H3482 H 0.37107 -0.00426 0.28753 0.0
H3483 H 0.39467 0.99048 0.28685 0.0
H3484 H 0.37857 0.97418 0.29556 0.0
H3485 H 0.36746 0.00412 0.21781 0.0
H3486 H 0.37522 0.98549 0.20443 0.0
H3487 H 0.39124 -0.00015 0.21635 0.0
C3488 C 0.76424 0.02461 0.61887 0.0
C3489 C 0.74794 0.03407 0.61931 0.0
C3490 C 0.76408 0.00574 0.61735 0.0
C3491 C 0.74722 -0.00374 0.61663 0.0
C3492 C 0.7308 0.00573 0.61851 0.0
C3493 C 0.73135 0.02456 0.61959 0.0
C3494 C 0.78186 -0.00386 0.61517 0.0
C3495 C 0.71255 -0.0039 0.61824 0.0
C3496 C 0.74041 0.95396 0.58886 0.0
C3497 C 0.73955 0.94066 0.60216 0.0
C3498 C 0.74405 0.97199 0.59336 0.0
C3499 C 0.74644 0.97688 0.61167 0.0
C3500 C 0.74631 0.9634 0.62511 0.0
C3501 C 0.74304 0.94535 0.62016 0.0
C3502 C 0.74448 0.98592 0.57856 0.0
C3503 C 0.74855 0.96814 0.64478 0.0
H3504 H 0.77708 0.03199 0.61857 0.0
H3505 H 0.71875 0.03191 0.62011 0.0
H3506 H 0.78221 0.98395 0.62375 0.0
H3507 H 0.78324 0.99164 0.60098 0.0
H3508 H 0.79372 0.00497 0.61859 0.0
H3509 H 0.70132 0.0051 0.62216 0.0
H3510 H 0.70972 0.99086 0.60448 0.0
H3511 H 0.71261 0.9844 0.6275 0.0
H3512 H 0.73794 0.95031 0.5749 0.0
H3513 H 0.7423 0.93507 0.63048 0.0
H3514 H 0.75683 0.99463 0.57983 0.0
H3515 H 0.73251 0.99472 0.57976 0.0
H3516 H 0.74431 0.97969 0.56494 0.0
H3517 H 0.76041 0.97736 0.64682 0.0
H3518 H 0.75033 0.95601 0.65328 0.0
H3519 H 0.73633 0.97531 0.64949 0.0
C3520 C 0.72071 0.01848 0.38071 0.0
C3521 C 0.73859 0.02521 0.3802 0.0
C3522 C 0.71715 -8e-05 0.38204 0.0
C3523 C 0.73186 0.98796 0.38336 0.0
C3524 C 0.74995 0.99467 0.38236 0.0
C3525 C 0.7531 0.01324 0.38056 0.0
C3526 C 0.69768 0.99318 0.38258 0.0
C3527 C 0.76599 0.98234 0.38408 0.0
C3528 C 0.7235 0.9443 0.40847 0.0
C3529 C 0.72278 0.93175 0.39435 0.0
C3530 C 0.72651 0.96264 0.40505 0.0
C3531 C 0.72838 0.9686 0.38704 0.0
C3532 C 0.72726 0.95604 0.37269 0.0
C3533 C 0.72471 0.93769 0.37654 0.0
C3534 C 0.72802 0.97561 0.42072 0.0
C3535 C 0.72874 0.96199 0.35332 0.0
H3536 H 0.70949 0.02775 0.3803 0.0
H3537 H 0.76695 0.01845 0.38028 0.0
H3538 H 0.69557 0.98203 0.37278 0.0
H3539 H 0.69458 0.98775 0.39615 0.0
H3540 H 0.68788 0.00399 0.37953 0.0
H3541 H 0.77917 0.9896 0.38221 0.0
H3542 H 0.76595 0.97605 0.39762 0.0
H3543 H 0.76496 0.9713 0.37403 0.0
H3544 H 0.72215 0.9397 0.42225 0.0
H3545 H 0.724 0.928 0.3656 0.0
H3546 H 0.71742 0.986 0.41963 0.0
H3547 H 0.74141 0.98271 0.42043 0.0
H3548 H 0.72653 0.96874 0.43391 0.0
H3549 H 0.71843 0.97233 0.35041 0.0
H3550 H 0.72679 0.95061 0.34372 0.0
H3551 H 0.74229 0.96829 0.35091 0.0
C3552 C 0.95095 0.73875 0.35791 0.0
C3553 C 0.94121 0.73674 0.37396 0.0
C3554 C 0.96973 0.73592 0.35747 0.0
C3555 C 0.97898 0.7317 0.37362 0.0
C3556 C 0.96909 0.72922 0.38978 0.0
C3557 C 0.95022 0.73147 0.38967 0.0
C3558 C 0.97976 0.73807 0.33988 0.0
C3559 C 0.97854 0.72529 0.40739 0.0
C3560 C 0.02795 0.71624 0.37389 0.0
C3561 C 0.0373 0.73264 0.37645 0.0
C3562 C 0.00891 0.71572 0.37234 0.0
C3563 C -0.00087 0.73189 0.37409 0.0
C3564 C 0.00858 0.74845 0.37676 0.0
C3565 C 0.02757 0.74865 0.37757 0.0
C3566 C -0.00073 0.69794 0.36886 0.0
C3567 C -0.00137 0.76593 0.3792 0.0
H3568 H 0.94387 0.74262 0.34573 0.0
H3569 H 0.94264 0.73 0.40209 0.0
H3570 H 0.98817 0.7506 0.34024 0.0
H3571 H 0.98908 0.72667 0.33777 0.0
H3572 H 0.97032 0.73879 0.3282 0.0
H3573 H 0.96876 0.7227 0.4185 0.0
H3574 H 0.98738 0.71344 0.40597 0.0
H3575 H 0.9874 0.73694 0.41121 0.0
H3576 H 0.03553 0.70389 0.3729 0.0
H3577 H 0.03478 0.76134 0.37964 0.0
H3578 H 0.99037 0.69899 0.35682 0.0
H3579 H 0.99041 0.69442 0.38042 0.0
H3580 H 0.00893 0.6868 0.36669 0.0
H3581 H 0.99044 0.76884 0.36703 0.0
H3582 H 0.00803 0.77753 0.38173 0.0
H3583 H 0.98908 0.76477 0.3907 0.0
C3584 C 0.2478 0.04406 0.38132 0.0
C3585 C 0.25212 0.04849 0.39922 0.0
C3586 C 0.246 0.02601 0.37583 0.0
C3587 C 0.24816 0.01216 0.38867 0.0
C3588 C 0.25179 0.0166 0.40691 0.0
C3589 C 0.25396 0.03472 0.41192 0.0
C3590 C 0.2425 0.02176 0.35622 0.0
C3591 C 0.25378 0.0022 0.42107 0.0
C3592 C 0.23077 0.96456 0.38013 0.0
C3593 C 0.24707 0.95548 0.37733 0.0
C3594 C 0.23079 0.9832 0.38322 0.0
C3595 C 0.24748 0.99297 0.38305 0.0
C3596 C 0.26381 0.98404 0.37897 0.0
C3597 C 0.26344 0.96534 0.37636 0.0
C3598 C 0.21315 0.99222 0.38779 0.0
C3599 C 0.28181 0.99409 0.37819 0.0
H3600 H 0.24652 0.05469 0.37144 0.0
H3601 H 0.25716 0.03813 0.42579 0.0
H3602 H 0.2543 0.0146 0.35055 0.0
H3603 H 0.23047 0.01266 0.35477 0.0
H3604 H 0.24021 0.03408 0.34812 0.0
H3605 H 0.25527 0.00794 0.43484 0.0
H3606 H 0.24177 0.99296 0.42084 0.0
H3607 H 0.2659 0.99402 0.41813 0.0
H3608 H 0.21808 0.95698 0.38088 0.0
H3609 H 0.27604 0.95834 0.37403 0.0
H3610 H 0.21134 0.00443 0.37946 0.0
H3611 H 0.21347 -0.00338 0.40209 0.0
H3612 H 0.20119 0.98309 0.38577 0.0
H3613 H 0.28068 0.00623 0.36961 0.0
H3614 H 0.29285 0.98558 0.37283 0.0
H3615 H 0.28574 -0.00128 0.39191 0.0
C3616 C 0.04214 0.26553 0.38216 0.0
C3617 C 0.05245 0.26294 0.36657 0.0
C3618 C 0.0232 0.26344 0.38182 0.0
C3619 C 0.01434 0.25919 0.36537 0.0
C3620 C 0.0246 0.25754 0.34937 0.0
C3621 C 0.04363 0.25915 0.35021 0.0
C3622 C 0.01278 0.26489 0.39926 0.0
C3623 C 0.01554 0.25358 0.33149 0.0
C3624 C 0.96951 0.23381 0.36964 0.0
C3625 C 0.9571 0.24789 0.36928 0.0
C3626 C 0.9882 0.23729 0.36796 0.0
C3627 C 0.99452 0.2552 0.36532 0.0
C3628 C 0.98194 0.26936 0.36404 0.0
C3629 C 0.96335 0.26557 0.36636 0.0
C3630 C 0.00123 0.22189 0.36986 0.0
C3631 C 0.98815 0.28854 0.36068 0.0
H3632 H 0.04894 0.26835 0.39486 0.0
H3633 H 0.05162 0.25727 0.33813 0.0
H3634 H 0.00195 0.27502 0.398 0.0
H3635 H 0.00604 0.25177 0.40232 0.0
H3636 H 0.02168 0.26873 0.41081 0.0
H3637 H 0.02518 0.25483 0.32007 0.0
H3638 H 0.00976 0.23969 0.33152 0.0
H3639 H 0.00412 0.26289 0.32925 0.0
H3640 H 0.96467 0.22016 0.372 0.0
H3641 H 0.95368 0.27643 0.3659 0.0
H3642 H 0.01007 0.22418 0.38182 0.0
H3643 H 0.01021 0.22119 0.35793 0.0
H3644 H 0.99407 0.20869 0.3714 0.0
H3645 H -0.00429 0.29377 0.37259 0.0
H3646 H 0.97657 0.29757 0.35798 0.0
H3647 H -0.00242 0.2891 0.34905 0.0
C3648 C 0.25366 0.05104 0.62787 0.0
C3649 C 0.25787 0.05692 0.61042 0.0
C3650 C 0.25128 0.03261 0.6316 0.0
C3651 C 0.25272 0.01991 0.61745 0.0
C3652 C 0.25656 0.02584 0.59974 0.0
C3653 C 0.2593 0.04426 0.59649 0.0
C3654 C 0.2476 0.02672 0.6507 0.0
C3655 C 0.25783 0.01274 0.58421 0.0
C3656 C 0.26436 0.97097 0.62448 0.0
C3657 C 0.24733 0.9625 0.62233 0.0
C3658 C 0.26615 0.9898 0.62408 0.0
C3659 C 0.25058 0.00032 0.62102 0.0
C3660 C 0.23324 0.99186 0.61962 0.0
C3661 C 0.2318 0.97302 0.6205 0.0
C3662 C 0.28482 -0.00165 0.62607 0.0
C3663 C 0.21637 0.00261 0.61603 0.0
H3664 H 0.25267 0.0608 0.63869 0.0
H3665 H 0.2624 0.04878 0.58296 0.0
H3666 H 0.23473 0.01877 0.65132 0.0
H3667 H 0.25863 0.01783 0.65538 0.0
H3668 H 0.24668 0.03831 0.66013 0.0
H3669 H 0.26004 0.01964 0.57113 0.0
H3670 H 0.26923 0.00342 0.58653 0.0
H3671 H 0.24519 0.00443 0.58326 0.0
H3672 H 0.27637 0.96284 0.62605 0.0
H3673 H 0.21861 0.9665 0.61875 0.0
H3674 H 0.28451 0.00967 0.63586 0.0
H3675 H 0.28925 0.00398 0.61295 0.0
H3676 H 0.29509 0.98854 0.63062 0.0
H3677 H 0.2154 0.01393 0.62573 0.0
H3678 H 0.20377 0.9942 0.61691 0.0
H3679 H 0.21715 0.00852 0.60234 0.0
C3680 C 0.96621 0.27497 0.61448 0.0
C3681 C 0.95625 0.25875 0.61512 0.0
C3682 C 0.9851 0.27503 0.61207 0.0
C3683 C 0.99411 0.25848 0.60986 0.0
C3684 C 0.98428 0.24204 0.61167 0.0
C3685 C 0.96544 0.24237 0.61448 0.0
C3686 C -0.00479 0.29284 0.61069 0.0
C3687 C 0.99334 0.22411 0.60918 0.0
C3688 C 0.03431 0.26103 0.57828 0.0
C3689 C 0.04903 0.2608 0.59028 0.0
C3690 C 0.01641 0.25967 0.58451 0.0
C3691 C 0.01314 0.25847 0.60326 0.0
C3692 C 0.02795 0.25794 0.61545 0.0
C3693 C 0.04579 0.25891 0.60878 0.0
C3694 C 0.00099 0.25988 0.57103 0.0
C3695 C 0.02494 0.257 0.63553 0.0
H3696 H 0.95914 0.28765 0.61518 0.0
H3697 H 0.95779 0.22978 0.615 0.0
H3698 H 0.00791 0.29263 0.61877 0.0
H3699 H -0.00091 0.29529 0.59647 0.0
H3700 H 0.98684 0.30426 0.61533 0.0
H3701 H 0.98441 0.21266 0.61334 0.0
H3702 H -0.00316 0.22231 0.59476 0.0
H3703 H 0.0062 0.22363 0.61699 0.0
H3704 H 0.03681 0.26233 0.56395 0.0
H3705 H 0.05717 0.25886 0.61809 0.0
H3706 H 0.99281 0.27214 0.57302 0.0
H3707 H 0.99181 0.24805 0.5731 0.0
H3708 H 0.00589 0.25969 0.55689 0.0
H3709 H 0.0182 0.26943 0.64016 0.0
H3710 H 0.03787 0.25558 0.64312 0.0
H3711 H 0.01577 0.24549 0.63888 0.0
C3712 C 0.0192 0.7595 0.61174 0.0
C3713 C 0.02916 0.74365 0.61326 0.0
C3714 C 0.00041 0.75882 0.60839 0.0
C3715 C 0.99138 0.74188 0.60699 0.0
C3716 C 0.00124 0.72586 0.60951 0.0
C3717 C 0.02008 0.72694 0.61237 0.0
C3718 C 0.99045 0.77617 0.60539 0.0
C3719 C 0.992 0.70756 0.60858 0.0
C3720 C 0.93979 0.73944 0.60918 0.0
C3721 C 0.93525 0.73676 0.59101 0.0
C3722 C 0.95803 0.74124 0.61464 0.0
C3723 C 0.97194 0.74081 0.60153 0.0
C3724 C 0.96736 0.73876 0.58309 0.0
C3725 C 0.94907 0.7365 0.57809 0.0
C3726 C 0.96244 0.74298 0.63444 0.0
C3727 C 0.98178 0.73868 0.56866 0.0
H3728 H 0.02621 0.77245 0.61232 0.0
H3729 H 0.02777 0.71468 0.61367 0.0
H3730 H 0.98562 0.77675 0.59123 0.0
H3731 H 0.97828 0.77674 0.61414 0.0
H3732 H -0.00082 0.78823 0.60811 0.0
H3733 H 0.0012 0.69659 0.6127 0.0
H3734 H 0.97983 0.70722 0.61737 0.0
H3735 H 0.9873 0.70485 0.5946 0.0
H3736 H 0.92911 0.73948 0.61921 0.0
H3737 H 0.94557 0.73457 0.56401 0.0
H3738 H 0.97089 0.75524 0.63696 0.0
H3739 H 0.9705 0.73127 0.63882 0.0
H3740 H 0.95002 0.74364 0.64288 0.0
H3741 H 0.99059 0.75091 0.56985 0.0
H3742 H 0.97586 0.73818 0.55488 0.0
H3743 H 0.9906 0.72684 0.57042 0.0
loop_
_geom_bond_atom_site_label_1
_geom_bond_atom_site_label_2
_geom_bond_distance
_geom_bond_site_symmetry_2
_ccdc_geom_bond_type
C0 O1 1.306 . S
C0 O3 1.160 . S
O1 C0 1.306 . S
O1 Cd2 2.228 . S
Cd2 O1 2.228 . S
Cd2 O6 2.273 . S
Cd2 O10 2.277 . S
O3 C0 1.160 . S
O3 Cd4 2.203 . S
Cd4 O3 2.203 . S
Cd4 O6 2.411 . S
Cd4 O7 2.333 . S
Cd4 O8 2.352 . S
Cd4 O12 2.277 . S
Cd4 O13 2.356 . S
C5 O10 1.209 . S
C5 O12 1.226 . S
O6 Cd2 2.273 . S
O6 Cd4 2.411 . S
O6 C9 1.320 . S
O7 Cd4 2.333 . S
O7 C9 1.214 . S
O8 Cd4 2.352 . S
O8 C11 1.258 . S
C9 O6 1.320 . S
C9 O7 1.214 . S
O10 Cd2 2.277 . S
O10 C5 1.209 . S
C11 O8 1.258 . S
C11 O13 1.282 . S
O12 Cd4 2.277 . S
O12 C5 1.226 . S
O13 Cd4 2.356 . S
O13 C11 1.282 . S
C14 O15 1.306 . S
C14 O17 1.160 . S
O15 C14 1.306 . S
O15 Cd16 2.228 . S
Cd16 O15 2.228 . S
Cd16 O20 2.273 . S
Cd16 O24 2.277 . S
O17 C14 1.160 . S
O17 Cd18 2.203 . S
Cd18 O17 2.203 . S
Cd18 O20 2.411 . S
Cd18 O21 2.333 . S
Cd18 O22 2.352 . S
Cd18 O26 2.277 . S
Cd18 O27 2.356 . S
C19 O24 1.209 . S
C19 O26 1.226 . S
O20 Cd16 2.273 . S
O20 Cd18 2.411 . S
O20 C23 1.320 . S
O21 Cd18 2.333 . S
O21 C23 1.214 . S
O22 Cd18 2.352 . S
O22 C25 1.258 . S
C23 O20 1.320 . S
C23 O21 1.214 . S
O24 Cd16 2.277 . S
O24 C19 1.209 . S
C25 O22 1.258 . S
C25 O27 1.282 . S
O26 Cd18 2.277 . S
O26 C19 1.226 . S
O27 Cd18 2.356 . S
O27 C25 1.282 . S
C28 O29 1.306 . S
C28 O31 1.160 . S
O29 C28 1.306 . S
O29 Cd30 2.228 . S
Cd30 O29 2.228 . S
Cd30 O34 2.273 . S
Cd30 O38 2.277 . S
O31 C28 1.160 . S
O31 Cd32 2.203 . S
Cd32 O31 2.203 . S
Cd32 O34 2.411 . S
Cd32 O35 2.333 . S
Cd32 O36 2.352 . S
Cd32 O40 2.277 . S
Cd32 O41 2.356 . S
C33 O38 1.209 . S
C33 O40 1.226 . S
O34 Cd30 2.273 . S
O34 Cd32 2.411 . S
O34 C37 1.320 . S
O35 Cd32 2.333 . S
O35 C37 1.214 . S
O36 Cd32 2.352 . S
O36 C39 1.258 . S
C37 O34 1.320 . S
C37 O35 1.214 . S
O38 Cd30 2.277 . S
O38 C33 1.209 . S
C39 O36 1.258 . S
C39 O41 1.282 . S
O40 Cd32 2.277 . S
O40 C33 1.226 . S
O41 Cd32 2.356 . S
O41 C39 1.282 . S
C42 O43 1.306 . S
C42 O45 1.160 . S
O43 C42 1.306 . S
O43 Cd44 2.228 . S
Cd44 O43 2.228 . S
Cd44 O48 2.273 . S
Cd44 O52 2.277 . S
O45 C42 1.160 . S
O45 Cd46 2.203 . S
Cd46 O45 2.203 . S
Cd46 O48 2.411 . S
Cd46 O49 2.333 . S
Cd46 O50 2.352 . S
Cd46 O54 2.277 . S
Cd46 O55 2.356 . S
C47 O52 1.209 . S
C47 O54 1.226 . S
O48 Cd44 2.273 . S
O48 Cd46 2.411 . S
O48 C51 1.320 . S
O49 Cd46 2.333 . S
O49 C51 1.214 . S
O50 Cd46 2.352 . S
O50 C53 1.258 . S
C51 O48 1.320 . S
C51 O49 1.214 . S
O52 Cd44 2.277 . S
O52 C47 1.209 . S
C53 O50 1.258 . S
C53 O55 1.282 . S
O54 Cd46 2.277 . S
O54 C47 1.226 . S
O55 Cd46 2.356 . S
O55 C53 1.282 . S
C56 O57 1.306 . S
C56 O59 1.160 . S
O57 C56 1.306 . S
O57 Cd58 2.228 . S
Cd58 O57 2.228 . S
Cd58 O62 2.273 . S
Cd58 O66 2.277 . S
O59 C56 1.160 . S
O59 Cd60 2.203 . S
Cd60 O59 2.203 . S
Cd60 O62 2.411 . S
Cd60 O63 2.333 . S
Cd60 O64 2.352 . S
Cd60 O68 2.277 . S
Cd60 O69 2.356 . S
C61 O66 1.209 . S
C61 O68 1.226 . S
O62 Cd58 2.273 . S
O62 Cd60 2.411 . S
O62 C65 1.320 . S
O63 Cd60 2.333 . S
O63 C65 1.214 . S
O64 Cd60 2.352 . S
O64 C67 1.258 . S
C65 O62 1.320 . S
C65 O63 1.214 . S
O66 Cd58 2.277 . S
O66 C61 1.209 . S
C67 O64 1.258 . S
C67 O69 1.282 . S
O68 Cd60 2.277 . S
O68 C61 1.226 . S
O69 Cd60 2.356 . S
O69 C67 1.282 . S
C70 O71 1.306 . S
C70 O73 1.160 . S
O71 C70 1.306 . S
O71 Cd72 2.228 . S
Cd72 O71 2.228 . S
Cd72 O76 2.273 . S
Cd72 O80 2.277 . S
O73 C70 1.160 . S
O73 Cd74 2.203 . S
Cd74 O73 2.203 . S
Cd74 O76 2.411 . S
Cd74 O77 2.333 . S
Cd74 O78 2.352 . S
Cd74 O82 2.277 . S
Cd74 O83 2.356 . S
C75 O80 1.209 . S
C75 O82 1.226 . S
O76 Cd72 2.273 . S
O76 Cd74 2.411 . S
O76 C79 1.320 . S
O77 Cd74 2.333 . S
O77 C79 1.214 . S
O78 Cd74 2.352 . S
O78 C81 1.258 . S
C79 O76 1.320 . S
C79 O77 1.214 . S
O80 Cd72 2.277 . S
O80 C75 1.209 . S
C81 O78 1.258 . S
C81 O83 1.282 . S
O82 Cd74 2.277 . S
O82 C75 1.226 . S
O83 Cd74 2.356 . S
O83 C81 1.282 . S
C84 O85 1.306 . S
C84 O87 1.160 . S
O85 C84 1.306 . S
O85 Cd86 2.228 . S
Cd86 O85 2.228 . S
Cd86 O90 2.273 . S
Cd86 O94 2.277 . S
O87 C84 1.160 . S
O87 Cd88 2.203 . S
Cd88 O87 2.203 . S
Cd88 O90 2.411 . S
Cd88 O91 2.333 . S
Cd88 O92 2.352 . S
Cd88 O96 2.277 . S
Cd88 O97 2.356 . S
C89 O94 1.209 . S
C89 O96 1.226 . S
O90 Cd86 2.273 . S
O90 Cd88 2.411 . S
O90 C93 1.320 . S
O91 Cd88 2.333 . S
O91 C93 1.214 . S
O92 Cd88 2.352 . S
O92 C95 1.258 . S
C93 O90 1.320 . S
C93 O91 1.214 . S
O94 Cd86 2.277 . S
O94 C89 1.209 . S
C95 O92 1.258 . S
C95 O97 1.282 . S
O96 Cd88 2.277 . S
O96 C89 1.226 . S
O97 Cd88 2.356 . S
O97 C95 1.282 . S
C98 O99 1.306 . S
C98 O101 1.160 . S
O99 C98 1.306 . S
O99 Cd100 2.228 . S
Cd100 O99 2.228 . S
Cd100 O104 2.273 . S
Cd100 O108 2.277 . S
O101 C98 1.160 . S
O101 Cd102 2.203 . S
Cd102 O101 2.203 . S
Cd102 O104 2.411 . S
Cd102 O105 2.333 . S
Cd102 O106 2.352 . S
Cd102 O110 2.277 . S
Cd102 O111 2.356 . S
C103 O108 1.209 . S
C103 O110 1.226 . S
O104 Cd100 2.273 . S
O104 Cd102 2.411 . S
O104 C107 1.320 . S
O105 Cd102 2.333 . S
O105 C107 1.214 . S
O106 Cd102 2.352 . S
O106 C109 1.258 . S
C107 O104 1.320 . S
C107 O105 1.214 . S
O108 Cd100 2.277 . S
O108 C103 1.209 . S
C109 O106 1.258 . S
C109 O111 1.282 . S
O110 Cd102 2.277 . S
O110 C103 1.226 . S
O111 Cd102 2.356 . S
O111 C109 1.282 . S
C112 O113 1.306 . S
C112 O115 1.160 . S
O113 C112 1.306 . S
O113 Cd114 2.228 . S
Cd114 O113 2.228 . S
Cd114 O118 2.273 . S
Cd114 O122 2.277 . S
O115 C112 1.160 . S
O115 Cd116 2.203 . S
Cd116 O115 2.203 . S
Cd116 O118 2.411 . S
Cd116 O119 2.333 . S
Cd116 O120 2.352 . S
Cd116 O124 2.277 . S
Cd116 O125 2.356 . S
C117 O122 1.209 . S
C117 O124 1.226 . S
O118 Cd114 2.273 . S
O118 Cd116 2.411 . S
O118 C121 1.320 . S
O119 Cd116 2.333 . S
O119 C121 1.214 . S
O120 Cd116 2.352 . S
O120 C123 1.258 . S
C121 O118 1.320 . S
C121 O119 1.214 . S
O122 Cd114 2.277 . S
O122 C117 1.209 . S
C123 O120 1.258 . S
C123 O125 1.282 . S
O124 Cd116 2.277 . S
O124 C117 1.226 . S
O125 Cd116 2.356 . S
O125 C123 1.282 . S
C126 O127 1.306 . S
C126 O129 1.160 . S
O127 C126 1.306 . S
O127 Cd128 2.228 . S
Cd128 O127 2.228 . S
Cd128 O132 2.273 . S
Cd128 O136 2.277 . S
O129 C126 1.160 . S
O129 Cd130 2.203 . S
Cd130 O129 2.203 . S
Cd130 O132 2.411 . S
Cd130 O133 2.333 . S
Cd130 O134 2.352 . S
Cd130 O138 2.277 . S
Cd130 O139 2.356 . S
C131 O136 1.209 . S
C131 O138 1.226 . S
O132 Cd128 2.273 . S
O132 Cd130 2.411 . S
O132 C135 1.320 . S
O133 Cd130 2.333 . S
O133 C135 1.214 . S
O134 Cd130 2.352 . S
O134 C137 1.258 . S
C135 O132 1.320 . S
C135 O133 1.214 . S
O136 Cd128 2.277 . S
O136 C131 1.209 . S
C137 O134 1.258 . S
C137 O139 1.282 . S
O138 Cd130 2.277 . S
O138 C131 1.226 . S
O139 Cd130 2.356 . S
O139 C137 1.282 . S
C140 O141 1.306 . S
C140 O143 1.160 . S
O141 C140 1.306 . S
O141 Cd142 2.228 . S
Cd142 O141 2.228 . S
Cd142 O146 2.273 . S
Cd142 O150 2.277 . S
O143 C140 1.160 . S
O143 Cd144 2.203 . S
Cd144 O143 2.203 . S
Cd144 O146 2.411 . S
Cd144 O147 2.333 . S
Cd144 O148 2.352 . S
Cd144 O152 2.277 . S
Cd144 O153 2.356 . S
C145 O150 1.209 . S
C145 O152 1.226 . S
O146 Cd142 2.273 . S
O146 Cd144 2.411 . S
O146 C149 1.320 . S
O147 Cd144 2.333 . S
O147 C149 1.214 . S
O148 Cd144 2.352 . S
O148 C151 1.258 . S
C149 O146 1.320 . S
C149 O147 1.214 . S
O150 Cd142 2.277 . S
O150 C145 1.209 . S
C151 O148 1.258 . S
C151 O153 1.282 . S
O152 Cd144 2.277 . S
O152 C145 1.226 . S
O153 Cd144 2.356 . S
O153 C151 1.282 . S
C154 O155 1.306 . S
C154 O157 1.160 . S
O155 C154 1.306 . S
O155 Cd156 2.228 . S
Cd156 O155 2.228 . S
Cd156 O160 2.273 . S
Cd156 O164 2.277 . S
O157 C154 1.160 . S
O157 Cd158 2.203 . S
Cd158 O157 2.203 . S
Cd158 O160 2.411 . S
Cd158 O161 2.333 . S
Cd158 O162 2.352 . S
Cd158 O166 2.277 . S
Cd158 O167 2.356 . S
C159 O164 1.209 . S
C159 O166 1.226 . S
O160 Cd156 2.273 . S
O160 Cd158 2.411 . S
O160 C163 1.320 . S
O161 Cd158 2.333 . S
O161 C163 1.214 . S
O162 Cd158 2.352 . S
O162 C165 1.258 . S
C163 O160 1.320 . S
C163 O161 1.214 . S
O164 Cd156 2.277 . S
O164 C159 1.209 . S
C165 O162 1.258 . S
C165 O167 1.282 . S
O166 Cd158 2.277 . S
O166 C159 1.226 . S
O167 Cd158 2.356 . S
O167 C165 1.282 . S
C168 O169 1.306 . S
C168 O171 1.160 . S
O169 C168 1.306 . S
O169 Cd170 2.228 . S
Cd170 O169 2.228 . S
Cd170 O174 2.273 . S
Cd170 O178 2.277 . S
O171 C168 1.160 . S
O171 Cd172 2.203 . S
Cd172 O171 2.203 . S
Cd172 O174 2.411 . S
Cd172 O175 2.333 . S
Cd172 O176 2.352 . S
Cd172 O180 2.277 . S
Cd172 O181 2.356 . S
C173 O178 1.209 . S
C173 O180 1.226 . S
O174 Cd170 2.273 . S
O174 Cd172 2.411 . S
O174 C177 1.320 . S
O175 Cd172 2.333 . S
O175 C177 1.214 . S
O176 Cd172 2.352 . S
O176 C179 1.258 . S
C177 O174 1.320 . S
C177 O175 1.214 . S
O178 Cd170 2.277 . S
O178 C173 1.209 . S
C179 O176 1.258 . S
C179 O181 1.282 . S
O180 Cd172 2.277 . S
O180 C173 1.226 . S
O181 Cd172 2.356 . S
O181 C179 1.282 . S
C182 O183 1.306 . S
C182 O185 1.160 . S
O183 C182 1.306 . S
O183 Cd184 2.228 . S
Cd184 O183 2.228 . S
Cd184 O188 2.273 . S
Cd184 O192 2.277 . S
O185 C182 1.160 . S
O185 Cd186 2.203 . S
Cd186 O185 2.203 . S
Cd186 O188 2.411 . S
Cd186 O189 2.333 . S
Cd186 O190 2.352 . S
Cd186 O194 2.277 . S
Cd186 O195 2.356 . S
C187 O192 1.209 . S
C187 O194 1.226 . S
O188 Cd184 2.273 . S
O188 Cd186 2.411 . S
O188 C191 1.320 . S
O189 Cd186 2.333 . S
O189 C191 1.214 . S
O190 Cd186 2.352 . S
O190 C193 1.258 . S
C191 O188 1.320 . S
C191 O189 1.214 . S
O192 Cd184 2.277 . S
O192 C187 1.209 . S
C193 O190 1.258 . S
C193 O195 1.282 . S
O194 Cd186 2.277 . S
O194 C187 1.226 . S
O195 Cd186 2.356 . S
O195 C193 1.282 . S
C196 O197 1.306 . S
C196 O199 1.160 . S
O197 C196 1.306 . S
O197 Cd198 2.228 . S
Cd198 O197 2.228 . S
Cd198 O202 2.273 . S
Cd198 O206 2.277 . S
O199 C196 1.160 . S
O199 Cd200 2.203 . S
Cd200 O199 2.203 . S
Cd200 O202 2.411 . S
Cd200 O203 2.333 . S
Cd200 O204 2.352 . S
Cd200 O208 2.277 . S
Cd200 O209 2.356 . S
C201 O206 1.209 . S
C201 O208 1.226 . S
O202 Cd198 2.273 . S
O202 Cd200 2.411 . S
O202 C205 1.320 . S
O203 Cd200 2.333 . S
O203 C205 1.214 . S
O204 Cd200 2.352 . S
O204 C207 1.258 . S
C205 O202 1.320 . S
C205 O203 1.214 . S
O206 Cd198 2.277 . S
O206 C201 1.209 . S
C207 O204 1.258 . S
C207 O209 1.282 . S
O208 Cd200 2.277 . S
O208 C201 1.226 . S
O209 Cd200 2.356 . S
O209 C207 1.282 . S
C210 O211 1.306 . S
C210 O213 1.160 . S
O211 C210 1.306 . S
O211 Cd212 2.228 . S
Cd212 O211 2.228 . S
Cd212 O216 2.273 . S
Cd212 O220 2.277 . S
O213 C210 1.160 . S
O213 Cd214 2.203 . S
Cd214 O213 2.203 . S
Cd214 O216 2.411 . S
Cd214 O217 2.333 . S
Cd214 O218 2.352 . S
Cd214 O222 2.277 . S
Cd214 O223 2.356 . S
C215 O220 1.209 . S
C215 O222 1.226 . S
O216 Cd212 2.273 . S
O216 Cd214 2.411 . S
O216 C219 1.320 . S
O217 Cd214 2.333 . S
O217 C219 1.214 . S
O218 Cd214 2.352 . S
O218 C221 1.258 . S
C219 O216 1.320 . S
C219 O217 1.214 . S
O220 Cd212 2.277 . S
O220 C215 1.209 . S
C221 O218 1.258 . S
C221 O223 1.282 . S
O222 Cd214 2.277 . S
O222 C215 1.226 . S
O223 Cd214 2.356 . S
O223 C221 1.282 . S
C224 O225 1.306 . S
C224 O227 1.160 . S
O225 C224 1.306 . S
O225 Cd226 2.228 . S
Cd226 O225 2.228 . S
Cd226 O230 2.273 . S
Cd226 O234 2.277 . S
O227 C224 1.160 . S
O227 Cd228 2.203 . S
Cd228 O227 2.203 . S
Cd228 O230 2.411 . S
Cd228 O231 2.333 . S
Cd228 O232 2.352 . S
Cd228 O236 2.277 . S
Cd228 O237 2.356 . S
C229 O234 1.209 . S
C229 O236 1.226 . S
O230 Cd226 2.273 . S
O230 Cd228 2.411 . S
O230 C233 1.320 . S
O231 Cd228 2.333 . S
O231 C233 1.214 . S
O232 Cd228 2.352 . S
O232 C235 1.258 . S
C233 O230 1.320 . S
C233 O231 1.214 . S
O234 Cd226 2.277 . S
O234 C229 1.209 . S
C235 O232 1.258 . S
C235 O237 1.282 . S
O236 Cd228 2.277 . S
O236 C229 1.226 . S
O237 Cd228 2.356 . S
O237 C235 1.282 . S
C238 O239 1.306 . S
C238 O241 1.160 . S
O239 C238 1.306 . S
O239 Cd240 2.228 . S
Cd240 O239 2.228 . S
Cd240 O244 2.273 . S
Cd240 O248 2.277 . S
O241 C238 1.160 . S
O241 Cd242 2.203 . S
Cd242 O241 2.203 . S
Cd242 O244 2.411 . S
Cd242 O245 2.333 . S
Cd242 O246 2.352 . S
Cd242 O250 2.277 . S
Cd242 O251 2.356 . S
C243 O248 1.209 . S
C243 O250 1.226 . S
O244 Cd240 2.273 . S
O244 Cd242 2.411 . S
O244 C247 1.320 . S
O245 Cd242 2.333 . S
O245 C247 1.214 . S
O246 Cd242 2.352 . S
O246 C249 1.258 . S
C247 O244 1.320 . S
C247 O245 1.214 . S
O248 Cd240 2.277 . S
O248 C243 1.209 . S
C249 O246 1.258 . S
C249 O251 1.282 . S
O250 Cd242 2.277 . S
O250 C243 1.226 . S
O251 Cd242 2.356 . S
O251 C249 1.282 . S
C252 O253 1.306 . S
C252 O255 1.160 . S
O253 C252 1.306 . S
O253 Cd254 2.228 . S
Cd254 O253 2.228 . S
Cd254 O258 2.273 . S
Cd254 O262 2.277 . S
O255 C252 1.160 . S
O255 Cd256 2.203 . S
Cd256 O255 2.203 . S
Cd256 O258 2.411 . S
Cd256 O259 2.333 . S
Cd256 O260 2.352 . S
Cd256 O264 2.277 . S
Cd256 O265 2.356 . S
C257 O262 1.209 . S
C257 O264 1.226 . S
O258 Cd254 2.273 . S
O258 Cd256 2.411 . S
O258 C261 1.320 . S
O259 Cd256 2.333 . S
O259 C261 1.214 . S
O260 Cd256 2.352 . S
O260 C263 1.258 . S
C261 O258 1.320 . S
C261 O259 1.214 . S
O262 Cd254 2.277 . S
O262 C257 1.209 . S
C263 O260 1.258 . S
C263 O265 1.282 . S
O264 Cd256 2.277 . S
O264 C257 1.226 . S
O265 Cd256 2.356 . S
O265 C263 1.282 . S
C266 O267 1.306 . S
C266 O269 1.160 . S
O267 C266 1.306 . S
O267 Cd268 2.228 . S
Cd268 O267 2.228 . S
Cd268 O272 2.273 . S
Cd268 O276 2.277 . S
O269 C266 1.160 . S
O269 Cd270 2.203 . S
Cd270 O269 2.203 . S
Cd270 O272 2.411 . S
Cd270 O273 2.333 . S
Cd270 O274 2.352 . S
Cd270 O278 2.277 . S
Cd270 O279 2.356 . S
C271 O276 1.209 . S
C271 O278 1.226 . S
O272 Cd268 2.273 . S
O272 Cd270 2.411 . S
O272 C275 1.320 . S
O273 Cd270 2.333 . S
O273 C275 1.214 . S
O274 Cd270 2.352 . S
O274 C277 1.258 . S
C275 O272 1.320 . S
C275 O273 1.214 . S
O276 Cd268 2.277 . S
O276 C271 1.209 . S
C277 O274 1.258 . S
C277 O279 1.282 . S
O278 Cd270 2.277 . S
O278 C271 1.226 . S
O279 Cd270 2.356 . S
O279 C277 1.282 . S
C280 O281 1.306 . S
C280 O283 1.160 . S
O281 C280 1.306 . S
O281 Cd282 2.228 . S
Cd282 O281 2.228 . S
Cd282 O286 2.273 . S
Cd282 O290 2.277 . S
O283 C280 1.160 . S
O283 Cd284 2.203 . S
Cd284 O283 2.203 . S
Cd284 O286 2.411 . S
Cd284 O287 2.333 . S
Cd284 O288 2.352 . S
Cd284 O292 2.277 . S
Cd284 O293 2.356 . S
C285 O290 1.209 . S
C285 O292 1.226 . S
O286 Cd282 2.273 . S
O286 Cd284 2.411 . S
O286 C289 1.320 . S
O287 Cd284 2.333 . S
O287 C289 1.214 . S
O288 Cd284 2.352 . S
O288 C291 1.258 . S
C289 O286 1.320 . S
C289 O287 1.214 . S
O290 Cd282 2.277 . S
O290 C285 1.209 . S
C291 O288 1.258 . S
C291 O293 1.282 . S
O292 Cd284 2.277 . S
O292 C285 1.226 . S
O293 Cd284 2.356 . S
O293 C291 1.282 . S
C294 O295 1.306 . S
C294 O297 1.160 . S
O295 C294 1.306 . S
O295 Cd296 2.228 . S
Cd296 O295 2.228 . S
Cd296 O300 2.273 . S
Cd296 O304 2.277 . S
O297 C294 1.160 . S
O297 Cd298 2.203 . S
Cd298 O297 2.203 . S
Cd298 O300 2.411 . S
Cd298 O301 2.333 . S
Cd298 O302 2.352 . S
Cd298 O306 2.277 . S
Cd298 O307 2.356 . S
C299 O304 1.209 . S
C299 O306 1.226 . S
O300 Cd296 2.273 . S
O300 Cd298 2.411 . S
O300 C303 1.320 . S
O301 Cd298 2.333 . S
O301 C303 1.214 . S
O302 Cd298 2.352 . S
O302 C305 1.258 . S
C303 O300 1.320 . S
C303 O301 1.214 . S
O304 Cd296 2.277 . S
O304 C299 1.209 . S
C305 O302 1.258 . S
C305 O307 1.282 . S
O306 Cd298 2.277 . S
O306 C299 1.226 . S
O307 Cd298 2.356 . S
O307 C305 1.282 . S
C308 O309 1.306 . S
C308 O311 1.160 . S
O309 C308 1.306 . S
O309 Cd310 2.228 . S
Cd310 O309 2.228 . S
Cd310 O314 2.273 . S
Cd310 O318 2.277 . S
O311 C308 1.160 . S
O311 Cd312 2.203 . S
Cd312 O311 2.203 . S
Cd312 O314 2.411 . S
Cd312 O315 2.333 . S
Cd312 O316 2.352 . S
Cd312 O320 2.277 . S
Cd312 O321 2.356 . S
C313 O318 1.209 . S
C313 O320 1.226 . S
O314 Cd310 2.273 . S
O314 Cd312 2.411 . S
O314 C317 1.320 . S
O315 Cd312 2.333 . S
O315 C317 1.214 . S
O316 Cd312 2.352 . S
O316 C319 1.258 . S
C317 O314 1.320 . S
C317 O315 1.214 . S
O318 Cd310 2.277 . S
O318 C313 1.209 . S
C319 O316 1.258 . S
C319 O321 1.282 . S
O320 Cd312 2.277 . S
O320 C313 1.226 . S
O321 Cd312 2.356 . S
O321 C319 1.282 . S
C322 O323 1.306 . S
C322 O325 1.160 . S
O323 C322 1.306 . S
O323 Cd324 2.228 . S
Cd324 O323 2.228 . S
Cd324 O328 2.273 . S
Cd324 O332 2.277 . S
O325 C322 1.160 . S
O325 Cd326 2.203 . S
Cd326 O325 2.203 . S
Cd326 O328 2.411 . S
Cd326 O329 2.333 . S
Cd326 O330 2.352 . S
Cd326 O334 2.277 . S
Cd326 O335 2.356 . S
C327 O332 1.209 . S
C327 O334 1.226 . S
O328 Cd324 2.273 . S
O328 Cd326 2.411 . S
O328 C331 1.320 . S
O329 Cd326 2.333 . S
O329 C331 1.214 . S
O330 Cd326 2.352 . S
O330 C333 1.258 . S
C331 O328 1.320 . S
C331 O329 1.214 . S
O332 Cd324 2.277 . S
O332 C327 1.209 . S
C333 O330 1.258 . S
C333 O335 1.282 . S
O334 Cd326 2.277 . S
O334 C327 1.226 . S
O335 Cd326 2.356 . S
O335 C333 1.282 . S
C336 O337 1.306 . S
C336 O339 1.160 . S
O337 C336 1.306 . S
O337 Cd338 2.228 . S
Cd338 O337 2.228 . S
Cd338 O342 2.273 . S
Cd338 O346 2.277 . S
O339 C336 1.160 . S
O339 Cd340 2.203 . S
Cd340 O339 2.203 . S
Cd340 O342 2.411 . S
Cd340 O343 2.333 . S
Cd340 O344 2.352 . S
Cd340 O348 2.277 . S
Cd340 O349 2.356 . S
C341 O346 1.209 . S
C341 O348 1.226 . S
O342 Cd338 2.273 . S
O342 Cd340 2.411 . S
O342 C345 1.320 . S
O343 Cd340 2.333 . S
O343 C345 1.214 . S
O344 Cd340 2.352 . S
O344 C347 1.258 . S
C345 O342 1.320 . S
C345 O343 1.214 . S
O346 Cd338 2.277 . S
O346 C341 1.209 . S
C347 O344 1.258 . S
C347 O349 1.282 . S
O348 Cd340 2.277 . S
O348 C341 1.226 . S
O349 Cd340 2.356 . S
O349 C347 1.282 . S
C350 O351 1.306 . S
C350 O353 1.160 . S
O351 C350 1.306 . S
O351 Cd352 2.228 . S
Cd352 O351 2.228 . S
Cd352 O356 2.273 . S
Cd352 O360 2.277 . S
O353 C350 1.160 . S
O353 Cd354 2.203 . S
Cd354 O353 2.203 . S
Cd354 O356 2.411 . S
Cd354 O357 2.333 . S
Cd354 O358 2.352 . S
Cd354 O362 2.277 . S
Cd354 O363 2.356 . S
C355 O360 1.209 . S
C355 O362 1.226 . S
O356 Cd352 2.273 . S
O356 Cd354 2.411 . S
O356 C359 1.320 . S
O357 Cd354 2.333 . S
O357 C359 1.214 . S
O358 Cd354 2.352 . S
O358 C361 1.258 . S
C359 O356 1.320 . S
C359 O357 1.214 . S
O360 Cd352 2.277 . S
O360 C355 1.209 . S
C361 O358 1.258 . S
C361 O363 1.282 . S
O362 Cd354 2.277 . S
O362 C355 1.226 . S
O363 Cd354 2.356 . S
O363 C361 1.282 . S
C364 O365 1.306 . S
C364 O367 1.160 . S
O365 C364 1.306 . S
O365 Cd366 2.228 . S
Cd366 O365 2.228 . S
Cd366 O370 2.273 . S
Cd366 O374 2.277 . S
O367 C364 1.160 . S
O367 Cd368 2.203 . S
Cd368 O367 2.203 . S
Cd368 O370 2.411 . S
Cd368 O371 2.333 . S
Cd368 O372 2.352 . S
Cd368 O376 2.277 . S
Cd368 O377 2.356 . S
C369 O374 1.209 . S
C369 O376 1.226 . S
O370 Cd366 2.273 . S
O370 Cd368 2.411 . S
O370 C373 1.320 . S
O371 Cd368 2.333 . S
O371 C373 1.214 . S
O372 Cd368 2.352 . S
O372 C375 1.258 . S
C373 O370 1.320 . S
C373 O371 1.214 . S
O374 Cd366 2.277 . S
O374 C369 1.209 . S
C375 O372 1.258 . S
C375 O377 1.282 . S
O376 Cd368 2.277 . S
O376 C369 1.226 . S
O377 Cd368 2.356 . S
O377 C375 1.282 . S
C378 O379 1.306 . S
C378 O381 1.160 . S
O379 C378 1.306 . S
O379 Cd380 2.228 . S
Cd380 O379 2.228 . S
Cd380 O384 2.273 . S
Cd380 O388 2.277 . S
O381 C378 1.160 . S
O381 Cd382 2.203 . S
Cd382 O381 2.203 . S
Cd382 O384 2.411 . S
Cd382 O385 2.333 . S
Cd382 O386 2.352 . S
Cd382 O390 2.277 . S
Cd382 O391 2.356 . S
C383 O388 1.209 . S
C383 O390 1.226 . S
O384 Cd380 2.273 . S
O384 Cd382 2.411 . S
O384 C387 1.320 . S
O385 Cd382 2.333 . S
O385 C387 1.214 . S
O386 Cd382 2.352 . S
O386 C389 1.258 . S
C387 O384 1.320 . S
C387 O385 1.214 . S
O388 Cd380 2.277 . S
O388 C383 1.209 . S
C389 O386 1.258 . S
C389 O391 1.282 . S
O390 Cd382 2.277 . S
O390 C383 1.226 . S
O391 Cd382 2.356 . S
O391 C389 1.282 . S
C392 O393 1.306 . S
C392 O395 1.160 . S
O393 C392 1.306 . S
O393 Cd394 2.228 . S
Cd394 O393 2.228 . S
Cd394 O398 2.273 . S
Cd394 O402 2.277 . S
O395 C392 1.160 . S
O395 Cd396 2.203 . S
Cd396 O395 2.203 . S
Cd396 O398 2.411 . S
Cd396 O399 2.333 . S
Cd396 O400 2.352 . S
Cd396 O404 2.277 . S
Cd396 O405 2.356 . S
C397 O402 1.209 . S
C397 O404 1.226 . S
O398 Cd394 2.273 . S
O398 Cd396 2.411 . S
O398 C401 1.320 . S
O399 Cd396 2.333 . S
O399 C401 1.214 . S
O400 Cd396 2.352 . S
O400 C403 1.258 . S
C401 O398 1.320 . S
C401 O399 1.214 . S
O402 Cd394 2.277 . S
O402 C397 1.209 . S
C403 O400 1.258 . S
C403 O405 1.282 . S
O404 Cd396 2.277 . S
O404 C397 1.226 . S
O405 Cd396 2.356 . S
O405 C403 1.282 . S
C406 O407 1.306 . S
C406 O409 1.160 . S
O407 C406 1.306 . S
O407 Cd408 2.228 . S
Cd408 O407 2.228 . S
Cd408 O412 2.273 . S
Cd408 O416 2.277 . S
O409 C406 1.160 . S
O409 Cd410 2.203 . S
Cd410 O409 2.203 . S
Cd410 O412 2.411 . S
Cd410 O413 2.333 . S
Cd410 O414 2.352 . S
Cd410 O418 2.277 . S
Cd410 O419 2.356 . S
C411 O416 1.209 . S
C411 O418 1.226 . S
O412 Cd408 2.273 . S
O412 Cd410 2.411 . S
O412 C415 1.320 . S
O413 Cd410 2.333 . S
O413 C415 1.214 . S
O414 Cd410 2.352 . S
O414 C417 1.258 . S
C415 O412 1.320 . S
C415 O413 1.214 . S
O416 Cd408 2.277 . S
O416 C411 1.209 . S
C417 O414 1.258 . S
C417 O419 1.282 . S
O418 Cd410 2.277 . S
O418 C411 1.226 . S
O419 Cd410 2.356 . S
O419 C417 1.282 . S
C420 O421 1.306 . S
C420 O423 1.160 . S
O421 C420 1.306 . S
O421 Cd422 2.228 . S
Cd422 O421 2.228 . S
Cd422 O426 2.273 . S
Cd422 O430 2.277 . S
O423 C420 1.160 . S
O423 Cd424 2.203 . S
Cd424 O423 2.203 . S
Cd424 O426 2.411 . S
Cd424 O427 2.333 . S
Cd424 O428 2.352 . S
Cd424 O432 2.277 . S
Cd424 O433 2.356 . S
C425 O430 1.209 . S
C425 O432 1.226 . S
O426 Cd422 2.273 . S
O426 Cd424 2.411 . S
O426 C429 1.320 . S
O427 Cd424 2.333 . S
O427 C429 1.214 . S
O428 Cd424 2.352 . S
O428 C431 1.258 . S
C429 O426 1.320 . S
C429 O427 1.214 . S
O430 Cd422 2.277 . S
O430 C425 1.209 . S
C431 O428 1.258 . S
C431 O433 1.282 . S
O432 Cd424 2.277 . S
O432 C425 1.226 . S
O433 Cd424 2.356 . S
O433 C431 1.282 . S
C434 O435 1.306 . S
C434 O437 1.160 . S
O435 C434 1.306 . S
O435 Cd436 2.228 . S
Cd436 O435 2.228 . S
Cd436 O440 2.273 . S
Cd436 O444 2.277 . S
O437 C434 1.160 . S
O437 Cd438 2.203 . S
Cd438 O437 2.203 . S
Cd438 O440 2.411 . S
Cd438 O441 2.333 . S
Cd438 O442 2.352 . S
Cd438 O446 2.277 . S
Cd438 O447 2.356 . S
C439 O444 1.209 . S
C439 O446 1.226 . S
O440 Cd436 2.273 . S
O440 Cd438 2.411 . S
O440 C443 1.320 . S
O441 Cd438 2.333 . S
O441 C443 1.214 . S
O442 Cd438 2.352 . S
O442 C445 1.258 . S
C443 O440 1.320 . S
C443 O441 1.214 . S
O444 Cd436 2.277 . S
O444 C439 1.209 . S
C445 O442 1.258 . S
C445 O447 1.282 . S
O446 Cd438 2.277 . S
O446 C439 1.226 . S
O447 Cd438 2.356 . S
O447 C445 1.282 . S
C448 O449 1.306 . S
C448 O451 1.160 . S
O449 C448 1.306 . S
O449 Cd450 2.228 . S
Cd450 O449 2.228 . S
Cd450 O454 2.273 . S
Cd450 O458 2.277 . S
O451 C448 1.160 . S
O451 Cd452 2.203 . S
Cd452 O451 2.203 . S
Cd452 O454 2.411 . S
Cd452 O455 2.333 . S
Cd452 O456 2.352 . S
Cd452 O460 2.277 . S
Cd452 O461 2.356 . S
C453 O458 1.209 . S
C453 O460 1.226 . S
O454 Cd450 2.273 . S
O454 Cd452 2.411 . S
O454 C457 1.320 . S
O455 Cd452 2.333 . S
O455 C457 1.214 . S
O456 Cd452 2.352 . S
O456 C459 1.258 . S
C457 O454 1.320 . S
C457 O455 1.214 . S
O458 Cd450 2.277 . S
O458 C453 1.209 . S
C459 O456 1.258 . S
C459 O461 1.282 . S
O460 Cd452 2.277 . S
O460 C453 1.226 . S
O461 Cd452 2.356 . S
O461 C459 1.282 . S
C462 O463 1.306 . S
C462 O465 1.160 . S
O463 C462 1.306 . S
O463 Cd464 2.228 . S
Cd464 O463 2.228 . S
Cd464 O468 2.273 . S
Cd464 O472 2.277 . S
O465 C462 1.160 . S
O465 Cd466 2.203 . S
Cd466 O465 2.203 . S
Cd466 O468 2.411 . S
Cd466 O469 2.333 . S
Cd466 O470 2.352 . S
Cd466 O474 2.277 . S
Cd466 O475 2.356 . S
C467 O472 1.209 . S
C467 O474 1.226 . S
O468 Cd464 2.273 . S
O468 Cd466 2.411 . S
O468 C471 1.320 . S
O469 Cd466 2.333 . S
O469 C471 1.214 . S
O470 Cd466 2.352 . S
O470 C473 1.258 . S
C471 O468 1.320 . S
C471 O469 1.214 . S
O472 Cd464 2.277 . S
O472 C467 1.209 . S
C473 O470 1.258 . S
C473 O475 1.282 . S
O474 Cd466 2.277 . S
O474 C467 1.226 . S
O475 Cd466 2.356 . S
O475 C473 1.282 . S
C476 O477 1.306 . S
C476 O479 1.160 . S
O477 C476 1.306 . S
O477 Cd478 2.228 . S
Cd478 O477 2.228 . S
Cd478 O482 2.273 . S
Cd478 O486 2.277 . S
O479 C476 1.160 . S
O479 Cd480 2.203 . S
Cd480 O479 2.203 . S
Cd480 O482 2.411 . S
Cd480 O483 2.333 . S
Cd480 O484 2.352 . S
Cd480 O488 2.277 . S
Cd480 O489 2.356 . S
C481 O486 1.209 . S
C481 O488 1.226 . S
O482 Cd478 2.273 . S
O482 Cd480 2.411 . S
O482 C485 1.320 . S
O483 Cd480 2.333 . S
O483 C485 1.214 . S
O484 Cd480 2.352 . S
O484 C487 1.258 . S
C485 O482 1.320 . S
C485 O483 1.214 . S
O486 Cd478 2.277 . S
O486 C481 1.209 . S
C487 O484 1.258 . S
C487 O489 1.282 . S
O488 Cd480 2.277 . S
O488 C481 1.226 . S
O489 Cd480 2.356 . S
O489 C487 1.282 . S
C490 O491 1.306 . S
C490 O493 1.160 . S
O491 C490 1.306 . S
O491 Cd492 2.228 . S
Cd492 O491 2.228 . S
Cd492 O496 2.273 . S
Cd492 O500 2.277 . S
O493 C490 1.160 . S
O493 Cd494 2.203 . S
Cd494 O493 2.203 . S
Cd494 O496 2.411 . S
Cd494 O497 2.333 . S
Cd494 O498 2.352 . S
Cd494 O502 2.277 . S
Cd494 O503 2.356 . S
C495 O500 1.209 . S
C495 O502 1.226 . S
O496 Cd492 2.273 . S
O496 Cd494 2.411 . S
O496 C499 1.320 . S
O497 Cd494 2.333 . S
O497 C499 1.214 . S
O498 Cd494 2.352 . S
O498 C501 1.258 . S
C499 O496 1.320 . S
C499 O497 1.214 . S
O500 Cd492 2.277 . S
O500 C495 1.209 . S
C501 O498 1.258 . S
C501 O503 1.282 . S
O502 Cd494 2.277 . S
O502 C495 1.226 . S
O503 Cd494 2.356 . S
O503 C501 1.282 . S
C504 O505 1.306 . S
C504 O507 1.160 . S
O505 C504 1.306 . S
O505 Cd506 2.228 . S
Cd506 O505 2.228 . S
Cd506 O510 2.273 . S
Cd506 O514 2.277 . S
O507 C504 1.160 . S
O507 Cd508 2.203 . S
Cd508 O507 2.203 . S
Cd508 O510 2.411 . S
Cd508 O511 2.333 . S
Cd508 O512 2.352 . S
Cd508 O516 2.277 . S
Cd508 O517 2.356 . S
C509 O514 1.209 . S
C509 O516 1.226 . S
O510 Cd506 2.273 . S
O510 Cd508 2.411 . S
O510 C513 1.320 . S
O511 Cd508 2.333 . S
O511 C513 1.214 . S
O512 Cd508 2.352 . S
O512 C515 1.258 . S
C513 O510 1.320 . S
C513 O511 1.214 . S
O514 Cd506 2.277 . S
O514 C509 1.209 . S
C515 O512 1.258 . S
C515 O517 1.282 . S
O516 Cd508 2.277 . S
O516 C509 1.226 . S
O517 Cd508 2.356 . S
O517 C515 1.282 . S
C518 O519 1.306 . S
C518 O521 1.160 . S
O519 C518 1.306 . S
O519 Cd520 2.228 . S
Cd520 O519 2.228 . S
Cd520 O524 2.273 . S
Cd520 O528 2.277 . S
O521 C518 1.160 . S
O521 Cd522 2.203 . S
Cd522 O521 2.203 . S
Cd522 O524 2.411 . S
Cd522 O525 2.333 . S
Cd522 O526 2.352 . S
Cd522 O530 2.277 . S
Cd522 O531 2.356 . S
C523 O528 1.209 . S
C523 O530 1.226 . S
O524 Cd520 2.273 . S
O524 Cd522 2.411 . S
O524 C527 1.320 . S
O525 Cd522 2.333 . S
O525 C527 1.214 . S
O526 Cd522 2.352 . S
O526 C529 1.258 . S
C527 O524 1.320 . S
C527 O525 1.214 . S
O528 Cd520 2.277 . S
O528 C523 1.209 . S
C529 O526 1.258 . S
C529 O531 1.282 . S
O530 Cd522 2.277 . S
O530 C523 1.226 . S
O531 Cd522 2.356 . S
O531 C529 1.282 . S
C532 O533 1.306 . S
C532 O535 1.160 . S
O533 C532 1.306 . S
O533 Cd534 2.228 . S
Cd534 O533 2.228 . S
Cd534 O538 2.273 . S
Cd534 O542 2.277 . S
O535 C532 1.160 . S
O535 Cd536 2.203 . S
Cd536 O535 2.203 . S
Cd536 O538 2.411 . S
Cd536 O539 2.333 . S
Cd536 O540 2.352 . S
Cd536 O544 2.277 . S
Cd536 O545 2.356 . S
C537 O542 1.209 . S
C537 O544 1.226 . S
O538 Cd534 2.273 . S
O538 Cd536 2.411 . S
O538 C541 1.320 . S
O539 Cd536 2.333 . S
O539 C541 1.214 . S
O540 Cd536 2.352 . S
O540 C543 1.258 . S
C541 O538 1.320 . S
C541 O539 1.214 . S
O542 Cd534 2.277 . S
O542 C537 1.209 . S
C543 O540 1.258 . S
C543 O545 1.282 . S
O544 Cd536 2.277 . S
O544 C537 1.226 . S
O545 Cd536 2.356 . S
O545 C543 1.282 . S
C546 O547 1.306 . S
C546 O549 1.160 . S
O547 C546 1.306 . S
O547 Cd548 2.228 . S
Cd548 O547 2.228 . S
Cd548 O552 2.273 . S
Cd548 O556 2.277 . S
O549 C546 1.160 . S
O549 Cd550 2.203 . S
Cd550 O549 2.203 . S
Cd550 O552 2.411 . S
Cd550 O553 2.333 . S
Cd550 O554 2.352 . S
Cd550 O558 2.277 . S
Cd550 O559 2.356 . S
C551 O556 1.209 . S
C551 O558 1.226 . S
O552 Cd548 2.273 . S
O552 Cd550 2.411 . S
O552 C555 1.320 . S
O553 Cd550 2.333 . S
O553 C555 1.214 . S
O554 Cd550 2.352 . S
O554 C557 1.258 . S
C555 O552 1.320 . S
C555 O553 1.214 . S
O556 Cd548 2.277 . S
O556 C551 1.209 . S
C557 O554 1.258 . S
C557 O559 1.282 . S
O558 Cd550 2.277 . S
O558 C551 1.226 . S
O559 Cd550 2.356 . S
O559 C557 1.282 . S
C560 O561 1.306 . S
C560 O563 1.160 . S
O561 C560 1.306 . S
O561 Cd562 2.228 . S
Cd562 O561 2.228 . S
Cd562 O566 2.273 . S
Cd562 O570 2.277 . S
O563 C560 1.160 . S
O563 Cd564 2.203 . S
Cd564 O563 2.203 . S
Cd564 O566 2.411 . S
Cd564 O567 2.333 . S
Cd564 O568 2.352 . S
Cd564 O572 2.277 . S
Cd564 O573 2.356 . S
C565 O570 1.209 . S
C565 O572 1.226 . S
O566 Cd562 2.273 . S
O566 Cd564 2.411 . S
O566 C569 1.320 . S
O567 Cd564 2.333 . S
O567 C569 1.214 . S
O568 Cd564 2.352 . S
O568 C571 1.258 . S
C569 O566 1.320 . S
C569 O567 1.214 . S
O570 Cd562 2.277 . S
O570 C565 1.209 . S
C571 O568 1.258 . S
C571 O573 1.282 . S
O572 Cd564 2.277 . S
O572 C565 1.226 . S
O573 Cd564 2.356 . S
O573 C571 1.282 . S
C574 O575 1.306 . S
C574 O577 1.160 . S
O575 C574 1.306 . S
O575 Cd576 2.228 . S
Cd576 O575 2.228 . S
Cd576 O580 2.273 . S
Cd576 O584 2.277 . S
O577 C574 1.160 . S
O577 Cd578 2.203 . S
Cd578 O577 2.203 . S
Cd578 O580 2.411 . S
Cd578 O581 2.333 . S
Cd578 O582 2.352 . S
Cd578 O586 2.277 . S
Cd578 O587 2.356 . S
C579 O584 1.209 . S
C579 O586 1.226 . S
O580 Cd576 2.273 . S
O580 Cd578 2.411 . S
O580 C583 1.320 . S
O581 Cd578 2.333 . S
O581 C583 1.214 . S
O582 Cd578 2.352 . S
O582 C585 1.258 . S
C583 O580 1.320 . S
C583 O581 1.214 . S
O584 Cd576 2.277 . S
O584 C579 1.209 . S
C585 O582 1.258 . S
C585 O587 1.282 . S
O586 Cd578 2.277 . S
O586 C579 1.226 . S
O587 Cd578 2.356 . S
O587 C585 1.282 . S
C588 O589 1.306 . S
C588 O591 1.160 . S
O589 C588 1.306 . S
O589 Cd590 2.228 . S
Cd590 O589 2.228 . S
Cd590 O594 2.273 . S
Cd590 O598 2.277 . S
O591 C588 1.160 . S
O591 Cd592 2.203 . S
Cd592 O591 2.203 . S
Cd592 O594 2.411 . S
Cd592 O595 2.333 . S
Cd592 O596 2.352 . S
Cd592 O600 2.277 . S
Cd592 O601 2.356 . S
C593 O598 1.209 . S
C593 O600 1.226 . S
O594 Cd590 2.273 . S
O594 Cd592 2.411 . S
O594 C597 1.320 . S
O595 Cd592 2.333 . S
O595 C597 1.214 . S
O596 Cd592 2.352 . S
O596 C599 1.258 . S
C597 O594 1.320 . S
C597 O595 1.214 . S
O598 Cd590 2.277 . S
O598 C593 1.209 . S
C599 O596 1.258 . S
C599 O601 1.282 . S
O600 Cd592 2.277 . S
O600 C593 1.226 . S
O601 Cd592 2.356 . S
O601 C599 1.282 . S
C602 O603 1.306 . S
C602 O605 1.160 . S
O603 C602 1.306 . S
O603 Cd604 2.228 . S
Cd604 O603 2.228 . S
Cd604 O608 2.273 . S
Cd604 O612 2.277 . S
O605 C602 1.160 . S
O605 Cd606 2.203 . S
Cd606 O605 2.203 . S
Cd606 O608 2.411 . S
Cd606 O609 2.333 . S
Cd606 O610 2.352 . S
Cd606 O614 2.277 . S
Cd606 O615 2.356 . S
C607 O612 1.209 . S
C607 O614 1.226 . S
O608 Cd604 2.273 . S
O608 Cd606 2.411 . S
O608 C611 1.320 . S
O609 Cd606 2.333 . S
O609 C611 1.214 . S
O610 Cd606 2.352 . S
O610 C613 1.258 . S
C611 O608 1.320 . S
C611 O609 1.214 . S
O612 Cd604 2.277 . S
O612 C607 1.209 . S
C613 O610 1.258 . S
C613 O615 1.282 . S
O614 Cd606 2.277 . S
O614 C607 1.226 . S
O615 Cd606 2.356 . S
O615 C613 1.282 . S
C616 O617 1.306 . S
C616 O619 1.160 . S
O617 C616 1.306 . S
O617 Cd618 2.228 . S
Cd618 O617 2.228 . S
Cd618 O622 2.273 . S
Cd618 O626 2.277 . S
O619 C616 1.160 . S
O619 Cd620 2.203 . S
Cd620 O619 2.203 . S
Cd620 O622 2.411 . S
Cd620 O623 2.333 . S
Cd620 O624 2.352 . S
Cd620 O628 2.277 . S
Cd620 O629 2.356 . S
C621 O626 1.209 . S
C621 O628 1.226 . S
O622 Cd618 2.273 . S
O622 Cd620 2.411 . S
O622 C625 1.320 . S
O623 Cd620 2.333 . S
O623 C625 1.214 . S
O624 Cd620 2.352 . S
O624 C627 1.258 . S
C625 O622 1.320 . S
C625 O623 1.214 . S
O626 Cd618 2.277 . S
O626 C621 1.209 . S
C627 O624 1.258 . S
C627 O629 1.282 . S
O628 Cd620 2.277 . S
O628 C621 1.226 . S
O629 Cd620 2.356 . S
O629 C627 1.282 . S
C630 O631 1.306 . S
C630 O633 1.160 . S
O631 C630 1.306 . S
O631 Cd632 2.228 . S
Cd632 O631 2.228 . S
Cd632 O636 2.273 . S
Cd632 O640 2.277 . S
O633 C630 1.160 . S
O633 Cd634 2.203 . S
Cd634 O633 2.203 . S
Cd634 O636 2.411 . S
Cd634 O637 2.333 . S
Cd634 O638 2.352 . S
Cd634 O642 2.277 . S
Cd634 O643 2.356 . S
C635 O640 1.209 . S
C635 O642 1.226 . S
O636 Cd632 2.273 . S
O636 Cd634 2.411 . S
O636 C639 1.320 . S
O637 Cd634 2.333 . S
O637 C639 1.214 . S
O638 Cd634 2.352 . S
O638 C641 1.258 . S
C639 O636 1.320 . S
C639 O637 1.214 . S
O640 Cd632 2.277 . S
O640 C635 1.209 . S
C641 O638 1.258 . S
C641 O643 1.282 . S
O642 Cd634 2.277 . S
O642 C635 1.226 . S
O643 Cd634 2.356 . S
O643 C641 1.282 . S
C644 O645 1.306 . S
C644 O647 1.160 . S
O645 C644 1.306 . S
O645 Cd646 2.228 . S
Cd646 O645 2.228 . S
Cd646 O650 2.273 . S
Cd646 O654 2.277 . S
O647 C644 1.160 . S
O647 Cd648 2.203 . S
Cd648 O647 2.203 . S
Cd648 O650 2.411 . S
Cd648 O651 2.333 . S
Cd648 O652 2.352 . S
Cd648 O656 2.277 . S
Cd648 O657 2.356 . S
C649 O654 1.209 . S
C649 O656 1.226 . S
O650 Cd646 2.273 . S
O650 Cd648 2.411 . S
O650 C653 1.320 . S
O651 Cd648 2.333 . S
O651 C653 1.214 . S
O652 Cd648 2.352 . S
O652 C655 1.258 . S
C653 O650 1.320 . S
C653 O651 1.214 . S
O654 Cd646 2.277 . S
O654 C649 1.209 . S
C655 O652 1.258 . S
C655 O657 1.282 . S
O656 Cd648 2.277 . S
O656 C649 1.226 . S
O657 Cd648 2.356 . S
O657 C655 1.282 . S
C658 O659 1.306 . S
C658 O661 1.160 . S
O659 C658 1.306 . S
O659 Cd660 2.228 . S
Cd660 O659 2.228 . S
Cd660 O664 2.273 . S
Cd660 O668 2.277 . S
O661 C658 1.160 . S
O661 Cd662 2.203 . S
Cd662 O661 2.203 . S
Cd662 O664 2.411 . S
Cd662 O665 2.333 . S
Cd662 O666 2.352 . S
Cd662 O670 2.277 . S
Cd662 O671 2.356 . S
C663 O668 1.209 . S
C663 O670 1.226 . S
O664 Cd660 2.273 . S
O664 Cd662 2.411 . S
O664 C667 1.320 . S
O665 Cd662 2.333 . S
O665 C667 1.214 . S
O666 Cd662 2.352 . S
O666 C669 1.258 . S
C667 O664 1.320 . S
C667 O665 1.214 . S
O668 Cd660 2.277 . S
O668 C663 1.209 . S
C669 O666 1.258 . S
C669 O671 1.282 . S
O670 Cd662 2.277 . S
O670 C663 1.226 . S
O671 Cd662 2.356 . S
O671 C669 1.282 . S
C672 C673 1.391 . S
C672 C674 1.394 . S
C672 H688 0.931 . S
C673 C672 1.391 . S
C673 C677 1.376 . S
C674 C672 1.394 . S
C674 C675 1.369 . S
C674 C678 1.531 . S
C675 C674 1.369 . S
C675 C676 1.410 . S
C675 C683 1.503 . S
C676 C675 1.410 . S
C676 C677 1.392 . S
C676 C679 1.511 . S
C677 C673 1.376 . S
C677 C676 1.392 . S
C677 H689 0.929 . S
C678 C674 1.531 . S
C678 H690 0.960 . S
C678 H691 0.962 . S
C678 H692 0.960 . S
C679 C676 1.511 . S
C679 H693 0.961 . S
C679 H694 0.961 . S
C679 H695 0.961 . S
C680 C681 1.370 . S
C680 C682 1.363 . S
C680 H696 0.931 . S
C681 C680 1.370 . S
C681 C685 1.408 . S
C682 C680 1.363 . S
C682 C683 1.370 . S
C682 C686 1.524 . S
C683 C675 1.503 . S
C683 C682 1.370 . S
C683 C684 1.403 . S
C684 C683 1.403 . S
C684 C685 1.404 . S
C684 C687 1.539 . S
C685 C681 1.408 . S
C685 C684 1.404 . S
C685 H697 0.930 . S
C686 C682 1.524 . S
C686 H698 0.956 . S
C686 H699 0.961 . S
C686 H700 0.961 . S
C687 C684 1.539 . S
C687 H701 0.958 . S
C687 H702 0.961 . S
C687 H703 0.960 . S
H688 C672 0.931 . S
H689 C677 0.929 . S
H690 C678 0.960 . S
H691 C678 0.962 . S
H692 C678 0.960 . S
H693 C679 0.961 . S
H694 C679 0.961 . S
H695 C679 0.961 . S
H696 C680 0.931 . S
H697 C685 0.930 . S
H698 C686 0.956 . S
H699 C686 0.961 . S
H700 C686 0.961 . S
H701 C687 0.958 . S
H702 C687 0.961 . S
H703 C687 0.960 . S
C704 C705 1.391 . S
C704 C706 1.394 . S
C704 H720 0.931 . S
C705 C704 1.391 . S
C705 C709 1.376 . S
C706 C704 1.394 . S
C706 C707 1.369 . S
C706 C710 1.531 . S
C707 C706 1.369 . S
C707 C708 1.410 . S
C707 C715 1.503 . S
C708 C707 1.410 . S
C708 C709 1.392 . S
C708 C711 1.511 . S
C709 C705 1.376 . S
C709 C708 1.392 . S
C709 H721 0.929 . S
C710 C706 1.531 . S
C710 H722 0.960 . S
C710 H723 0.962 . S
C710 H724 0.960 . S
C711 C708 1.511 . S
C711 H725 0.961 . S
C711 H726 0.961 . S
C711 H727 0.961 . S
C712 C713 1.370 . S
C712 C714 1.363 . S
C712 H728 0.931 . S
C713 C712 1.370 . S
C713 C717 1.408 . S
C714 C712 1.363 . S
C714 C715 1.370 . S
C714 C718 1.524 . S
C715 C707 1.503 . S
C715 C714 1.370 . S
C715 C716 1.403 . S
C716 C715 1.403 . S
C716 C717 1.404 . S
C716 C719 1.539 . S
C717 C713 1.408 . S
C717 C716 1.404 . S
C717 H729 0.930 . S
C718 C714 1.524 . S
C718 H730 0.956 . S
C718 H731 0.961 . S
C718 H732 0.961 . S
C719 C716 1.539 . S
C719 H733 0.958 . S
C719 H734 0.961 . S
C719 H735 0.960 . S
H720 C704 0.931 . S
H721 C709 0.929 . S
H722 C710 0.960 . S
H723 C710 0.962 . S
H724 C710 0.960 . S
H725 C711 0.961 . S
H726 C711 0.961 . S
H727 C711 0.961 . S
H728 C712 0.931 . S
H729 C717 0.930 . S
H730 C718 0.956 . S
H731 C718 0.961 . S
H732 C718 0.961 . S
H733 C719 0.958 . S
H734 C719 0.961 . S
H735 C719 0.960 . S
C736 C737 1.391 . S
C736 C738 1.394 . S
C736 H752 0.931 . S
C737 C736 1.391 . S
C737 C741 1.376 . S
C738 C736 1.394 . S
C738 C739 1.369 . S
C738 C742 1.531 . S
C739 C738 1.369 . S
C739 C740 1.410 . S
C739 C747 1.503 . S
C740 C739 1.410 . S
C740 C741 1.392 . S
C740 C743 1.511 . S
C741 C737 1.376 . S
C741 C740 1.392 . S
C741 H753 0.929 . S
C742 C738 1.531 . S
C742 H754 0.960 . S
C742 H755 0.962 . S
C742 H756 0.960 . S
C743 C740 1.511 . S
C743 H757 0.961 . S
C743 H758 0.961 . S
C743 H759 0.961 . S
C744 C745 1.370 . S
C744 C746 1.363 . S
C744 H760 0.931 . S
C745 C744 1.370 . S
C745 C749 1.408 . S
C746 C744 1.363 . S
C746 C747 1.370 . S
C746 C750 1.524 . S
C747 C739 1.503 . S
C747 C746 1.370 . S
C747 C748 1.403 . S
C748 C747 1.403 . S
C748 C749 1.404 . S
C748 C751 1.539 . S
C749 C745 1.408 . S
C749 C748 1.404 . S
C749 H761 0.930 . S
C750 C746 1.524 . S
C750 H762 0.956 . S
C750 H763 0.961 . S
C750 H764 0.961 . S
C751 C748 1.539 . S
C751 H765 0.958 . S
C751 H766 0.961 . S
C751 H767 0.960 . S
H752 C736 0.931 . S
H753 C741 0.929 . S
H754 C742 0.960 . S
H755 C742 0.962 . S
H756 C742 0.960 . S
H757 C743 0.961 . S
H758 C743 0.961 . S
H759 C743 0.961 . S
H760 C744 0.931 . S
H761 C749 0.930 . S
H762 C750 0.956 . S
H763 C750 0.961 . S
H764 C750 0.961 . S
H765 C751 0.958 . S
H766 C751 0.961 . S
H767 C751 0.960 . S
C768 C769 1.391 . S
C768 C770 1.394 . S
C768 H784 0.931 . S
C769 C768 1.391 . S
C769 C773 1.376 . S
C770 C768 1.394 . S
C770 C771 1.369 . S
C770 C774 1.531 . S
C771 C770 1.369 . S
C771 C772 1.410 . S
C771 C779 1.503 . S
C772 C771 1.410 . S
C772 C773 1.392 . S
C772 C775 1.511 . S
C773 C769 1.376 . S
C773 C772 1.392 . S
C773 H785 0.929 . S
C774 C770 1.531 . S
C774 H786 0.960 . S
C774 H787 0.962 . S
C774 H788 0.960 . S
C775 C772 1.511 . S
C775 H789 0.961 . S
C775 H790 0.961 . S
C775 H791 0.961 . S
C776 C777 1.370 . S
C776 C778 1.363 . S
C776 H792 0.931 . S
C777 C776 1.370 . S
C777 C781 1.408 . S
C778 C776 1.363 . S
C778 C779 1.370 . S
C778 C782 1.524 . S
C779 C771 1.503 . S
C779 C778 1.370 . S
C779 C780 1.403 . S
C780 C779 1.403 . S
C780 C781 1.404 . S
C780 C783 1.539 . S
C781 C777 1.408 . S
C781 C780 1.404 . S
C781 H793 0.930 . S
C782 C778 1.524 . S
C782 H794 0.956 . S
C782 H795 0.961 . S
C782 H796 0.961 . S
C783 C780 1.539 . S
C783 H797 0.958 . S
C783 H798 0.961 . S
C783 H799 0.960 . S
H784 C768 0.931 . S
H785 C773 0.929 . S
H786 C774 0.960 . S
H787 C774 0.962 . S
H788 C774 0.960 . S
H789 C775 0.961 . S
H790 C775 0.961 . S
H791 C775 0.961 . S
H792 C776 0.931 . S
H793 C781 0.930 . S
H794 C782 0.956 . S
H795 C782 0.961 . S
H796 C782 0.961 . S
H797 C783 0.958 . S
H798 C783 0.961 . S
H799 C783 0.960 . S
C800 C801 1.391 . S
C800 C802 1.394 . S
C800 H816 0.931 . S
C801 C800 1.391 . S
C801 C805 1.376 . S
C802 C800 1.394 . S
C802 C803 1.369 . S
C802 C806 1.531 . S
C803 C802 1.369 . S
C803 C804 1.410 . S
C803 C811 1.503 . S
C804 C803 1.410 . S
C804 C805 1.392 . S
C804 C807 1.511 . S
C805 C801 1.376 . S
C805 C804 1.392 . S
C805 H817 0.929 . S
C806 C802 1.531 . S
C806 H818 0.960 . S
C806 H819 0.962 . S
C806 H820 0.960 . S
C807 C804 1.511 . S
C807 H821 0.961 . S
C807 H822 0.961 . S
C807 H823 0.961 . S
C808 C809 1.370 . S
C808 C810 1.363 . S
C808 H824 0.931 . S
C809 C808 1.370 . S
C809 C813 1.408 . S
C810 C808 1.363 . S
C810 C811 1.370 . S
C810 C814 1.524 . S
C811 C803 1.503 . S
C811 C810 1.370 . S
C811 C812 1.403 . S
C812 C811 1.403 . S
C812 C813 1.404 . S
C812 C815 1.539 . S
C813 C809 1.408 . S
C813 C812 1.404 . S
C813 H825 0.930 . S
C814 C810 1.524 . S
C814 H826 0.956 . S
C814 H827 0.961 . S
C814 H828 0.961 . S
C815 C812 1.539 . S
C815 H829 0.958 . S
C815 H830 0.961 . S
C815 H831 0.960 . S
H816 C800 0.931 . S
H817 C805 0.929 . S
H818 C806 0.960 . S
H819 C806 0.962 . S
H820 C806 0.960 . S
H821 C807 0.961 . S
H822 C807 0.961 . S
H823 C807 0.961 . S
H824 C808 0.931 . S
H825 C813 0.930 . S
H826 C814 0.956 . S
H827 C814 0.961 . S
H828 C814 0.961 . S
H829 C815 0.958 . S
H830 C815 0.961 . S
H831 C815 0.960 . S
C832 C833 1.391 . S
C832 C834 1.394 . S
C832 H848 0.931 . S
C833 C832 1.391 . S
C833 C837 1.376 . S
C834 C832 1.394 . S
C834 C835 1.369 . S
C834 C838 1.531 . S
C835 C834 1.369 . S
C835 C836 1.410 . S
C835 C843 1.503 . S
C836 C835 1.410 . S
C836 C837 1.392 . S
C836 C839 1.511 . S
C837 C833 1.376 . S
C837 C836 1.392 . S
C837 H849 0.929 . S
C838 C834 1.531 . S
C838 H850 0.960 . S
C838 H851 0.962 . S
C838 H852 0.960 . S
C839 C836 1.511 . S
C839 H853 0.961 . S
C839 H854 0.961 . S
C839 H855 0.961 . S
C840 C841 1.370 . S
C840 C842 1.363 . S
C840 H856 0.931 . S
C841 C840 1.370 . S
C841 C845 1.408 . S
C842 C840 1.363 . S
C842 C843 1.370 . S
C842 C846 1.524 . S
C843 C835 1.503 . S
C843 C842 1.370 . S
C843 C844 1.403 . S
C844 C843 1.403 . S
C844 C845 1.404 . S
C844 C847 1.539 . S
C845 C841 1.408 . S
C845 C844 1.404 . S
C845 H857 0.930 . S
C846 C842 1.524 . S
C846 H858 0.956 . S
C846 H859 0.961 . S
C846 H860 0.961 . S
C847 C844 1.539 . S
C847 H861 0.958 . S
C847 H862 0.961 . S
C847 H863 0.960 . S
H848 C832 0.931 . S
H849 C837 0.929 . S
H850 C838 0.960 . S
H851 C838 0.962 . S
H852 C838 0.960 . S
H853 C839 0.961 . S
H854 C839 0.961 . S
H855 C839 0.961 . S
H856 C840 0.931 . S
H857 C845 0.930 . S
H858 C846 0.956 . S
H859 C846 0.961 . S
H860 C846 0.961 . S
H861 C847 0.958 . S
H862 C847 0.961 . S
H863 C847 0.960 . S
C864 C865 1.391 . S
C864 C866 1.394 . S
C864 H880 0.931 . S
C865 C864 1.391 . S
C865 C869 1.376 . S
C866 C864 1.394 . S
C866 C867 1.369 . S
C866 C870 1.531 . S
C867 C866 1.369 . S
C867 C868 1.410 . S
C867 C875 1.503 . S
C868 C867 1.410 . S
C868 C869 1.392 . S
C868 C871 1.511 . S
C869 C865 1.376 . S
C869 C868 1.392 . S
C869 H881 0.929 . S
C870 C866 1.531 . S
C870 H882 0.960 . S
C870 H883 0.962 . S
C870 H884 0.960 . S
C871 C868 1.511 . S
C871 H885 0.961 . S
C871 H886 0.961 . S
C871 H887 0.961 . S
C872 C873 1.370 . S
C872 C874 1.363 . S
C872 H888 0.931 . S
C873 C872 1.370 . S
C873 C877 1.408 . S
C874 C872 1.363 . S
C874 C875 1.370 . S
C874 C878 1.524 . S
C875 C867 1.503 . S
C875 C874 1.370 . S
C875 C876 1.403 . S
C876 C875 1.403 . S
C876 C877 1.404 . S
C876 C879 1.539 . S
C877 C873 1.408 . S
C877 C876 1.404 . S
C877 H889 0.930 . S
C878 C874 1.524 . S
C878 H890 0.956 . S
C878 H891 0.961 . S
C878 H892 0.961 . S
C879 C876 1.539 . S
C879 H893 0.958 . S
C879 H894 0.961 . S
C879 H895 0.960 . S
H880 C864 0.931 . S
H881 C869 0.929 . S
H882 C870 0.960 . S
H883 C870 0.962 . S
H884 C870 0.960 . S
H885 C871 0.961 . S
H886 C871 0.961 . S
H887 C871 0.961 . S
H888 C872 0.931 . S
H889 C877 0.930 . S
H890 C878 0.956 . S
H891 C878 0.961 . S
H892 C878 0.961 . S
H893 C879 0.958 . S
H894 C879 0.961 . S
H895 C879 0.960 . S
C896 C897 1.391 . S
C896 C898 1.394 . S
C896 H912 0.931 . S
C897 C896 1.391 . S
C897 C901 1.376 . S
C898 C896 1.394 . S
C898 C899 1.369 . S
C898 C902 1.531 . S
C899 C898 1.369 . S
C899 C900 1.410 . S
C899 C907 1.503 . S
C900 C899 1.410 . S
C900 C901 1.392 . S
C900 C903 1.511 . S
C901 C897 1.376 . S
C901 C900 1.392 . S
C901 H913 0.929 . S
C902 C898 1.531 . S
C902 H914 0.960 . S
C902 H915 0.962 . S
C902 H916 0.960 . S
C903 C900 1.511 . S
C903 H917 0.961 . S
C903 H918 0.961 . S
C903 H919 0.961 . S
C904 C905 1.370 . S
C904 C906 1.363 . S
C904 H920 0.931 . S
C905 C904 1.370 . S
C905 C909 1.408 . S
C906 C904 1.363 . S
C906 C907 1.370 . S
C906 C910 1.524 . S
C907 C899 1.503 . S
C907 C906 1.370 . S
C907 C908 1.403 . S
C908 C907 1.403 . S
C908 C909 1.404 . S
C908 C911 1.539 . S
C909 C905 1.408 . S
C909 C908 1.404 . S
C909 H921 0.930 . S
C910 C906 1.524 . S
C910 H922 0.956 . S
C910 H923 0.961 . S
C910 H924 0.961 . S
C911 C908 1.539 . S
C911 H925 0.958 . S
C911 H926 0.961 . S
C911 H927 0.960 . S
H912 C896 0.931 . S
H913 C901 0.929 . S
H914 C902 0.960 . S
H915 C902 0.962 . S
H916 C902 0.960 . S
H917 C903 0.961 . S
H918 C903 0.961 . S
H919 C903 0.961 . S
H920 C904 0.931 . S
H921 C909 0.930 . S
H922 C910 0.956 . S
H923 C910 0.961 . S
H924 C910 0.961 . S
H925 C911 0.958 . S
H926 C911 0.961 . S
H927 C911 0.960 . S
C928 C929 1.391 . S
C928 C930 1.394 . S
C928 H944 0.931 . S
C929 C928 1.391 . S
C929 C933 1.376 . S
C930 C928 1.394 . S
C930 C931 1.369 . S
C930 C934 1.531 . S
C931 C930 1.369 . S
C931 C932 1.410 . S
C931 C939 1.503 . S
C932 C931 1.410 . S
C932 C933 1.392 . S
C932 C935 1.511 . S
C933 C929 1.376 . S
C933 C932 1.392 . S
C933 H945 0.929 . S
C934 C930 1.531 . S
C934 H946 0.960 . S
C934 H947 0.962 . S
C934 H948 0.960 . S
C935 C932 1.511 . S
C935 H949 0.961 . S
C935 H950 0.961 . S
C935 H951 0.961 . S
C936 C937 1.370 . S
C936 C938 1.363 . S
C936 H952 0.931 . S
C937 C936 1.370 . S
C937 C941 1.408 . S
C938 C936 1.363 . S
C938 C939 1.370 . S
C938 C942 1.524 . S
C939 C931 1.503 . S
C939 C938 1.370 . S
C939 C940 1.403 . S
C940 C939 1.403 . S
C940 C941 1.404 . S
C940 C943 1.539 . S
C941 C937 1.408 . S
C941 C940 1.404 . S
C941 H953 0.930 . S
C942 C938 1.524 . S
C942 H954 0.956 . S
C942 H955 0.961 . S
C942 H956 0.961 . S
C943 C940 1.539 . S
C943 H957 0.958 . S
C943 H958 0.961 . S
C943 H959 0.960 . S
H944 C928 0.931 . S
H945 C933 0.929 . S
H946 C934 0.960 . S
H947 C934 0.962 . S
H948 C934 0.960 . S
H949 C935 0.961 . S
H950 C935 0.961 . S
H951 C935 0.961 . S
H952 C936 0.931 . S
H953 C941 0.930 . S
H954 C942 0.956 . S
H955 C942 0.961 . S
H956 C942 0.961 . S
H957 C943 0.958 . S
H958 C943 0.961 . S
H959 C943 0.960 . S
C960 C961 1.391 . S
C960 C962 1.394 . S
C960 H976 0.931 . S
C961 C960 1.391 . S
C961 C965 1.376 . S
C962 C960 1.394 . S
C962 C963 1.369 . S
C962 C966 1.531 . S
C963 C962 1.369 . S
C963 C964 1.410 . S
C963 C971 1.503 . S
C964 C963 1.410 . S
C964 C965 1.392 . S
C964 C967 1.511 . S
C965 C961 1.376 . S
C965 C964 1.392 . S
C965 H977 0.929 . S
C966 C962 1.531 . S
C966 H978 0.960 . S
C966 H979 0.962 . S
C966 H980 0.960 . S
C967 C964 1.511 . S
C967 H981 0.961 . S
C967 H982 0.961 . S
C967 H983 0.961 . S
C968 C969 1.370 . S
C968 C970 1.363 . S
C968 H984 0.931 . S
C969 C968 1.370 . S
C969 C973 1.408 . S
C970 C968 1.363 . S
C970 C971 1.370 . S
C970 C974 1.524 . S
C971 C963 1.503 . S
C971 C970 1.370 . S
C971 C972 1.403 . S
C972 C971 1.403 . S
C972 C973 1.404 . S
C972 C975 1.539 . S
C973 C969 1.408 . S
C973 C972 1.404 . S
C973 H985 0.930 . S
C974 C970 1.524 . S
C974 H986 0.956 . S
C974 H987 0.961 . S
C974 H988 0.961 . S
C975 C972 1.539 . S
C975 H989 0.958 . S
C975 H990 0.961 . S
C975 H991 0.960 . S
H976 C960 0.931 . S
H977 C965 0.929 . S
H978 C966 0.960 . S
H979 C966 0.962 . S
H980 C966 0.960 . S
H981 C967 0.961 . S
H982 C967 0.961 . S
H983 C967 0.961 . S
H984 C968 0.931 . S
H985 C973 0.930 . S
H986 C974 0.956 . S
H987 C974 0.961 . S
H988 C974 0.961 . S
H989 C975 0.958 . S
H990 C975 0.961 . S
H991 C975 0.960 . S
C992 C993 1.391 . S
C992 C994 1.394 . S
C992 H1008 0.931 . S
C993 C992 1.391 . S
C993 C997 1.376 . S
C994 C992 1.394 . S
C994 C995 1.369 . S
C994 C998 1.531 . S
C995 C994 1.369 . S
C995 C996 1.410 . S
C995 C1003 1.503 . S
C996 C995 1.410 . S
C996 C997 1.392 . S
C996 C999 1.511 . S
C997 C993 1.376 . S
C997 C996 1.392 . S
C997 H1009 0.929 . S
C998 C994 1.531 . S
C998 H1010 0.960 . S
C998 H1011 0.962 . S
C998 H1012 0.960 . S
C999 C996 1.511 . S
C999 H1013 0.961 . S
C999 H1014 0.961 . S
C999 H1015 0.961 . S
C1000 C1001 1.370 . S
C1000 C1002 1.363 . S
C1000 H1016 0.931 . S
C1001 C1000 1.370 . S
C1001 C1005 1.408 . S
C1002 C1000 1.363 . S
C1002 C1003 1.370 . S
C1002 C1006 1.524 . S
C1003 C995 1.503 . S
C1003 C1002 1.370 . S
C1003 C1004 1.403 . S
C1004 C1003 1.403 . S
C1004 C1005 1.404 . S
C1004 C1007 1.539 . S
C1005 C1001 1.408 . S
C1005 C1004 1.404 . S
C1005 H1017 0.930 . S
C1006 C1002 1.524 . S
C1006 H1018 0.956 . S
C1006 H1019 0.961 . S
C1006 H1020 0.961 . S
C1007 C1004 1.539 . S
C1007 H1021 0.958 . S
C1007 H1022 0.961 . S
C1007 H1023 0.960 . S
H1008 C992 0.931 . S
H1009 C997 0.929 . S
H1010 C998 0.960 . S
H1011 C998 0.962 . S
H1012 C998 0.960 . S
H1013 C999 0.961 . S
H1014 C999 0.961 . S
H1015 C999 0.961 . S
H1016 C1000 0.931 . S
H1017 C1005 0.930 . S
H1018 C1006 0.956 . S
H1019 C1006 0.961 . S
H1020 C1006 0.961 . S
H1021 C1007 0.958 . S
H1022 C1007 0.961 . S
H1023 C1007 0.960 . S
C1024 C1025 1.391 . S
C1024 C1026 1.394 . S
C1024 H1040 0.931 . S
C1025 C1024 1.391 . S
C1025 C1029 1.376 . S
C1026 C1024 1.394 . S
C1026 C1027 1.369 . S
C1026 C1030 1.531 . S
C1027 C1026 1.369 . S
C1027 C1028 1.410 . S
C1027 C1035 1.503 . S
C1028 C1027 1.410 . S
C1028 C1029 1.392 . S
C1028 C1031 1.511 . S
C1029 C1025 1.376 . S
C1029 C1028 1.392 . S
C1029 H1041 0.929 . S
C1030 C1026 1.531 . S
C1030 H1042 0.960 . S
C1030 H1043 0.962 . S
C1030 H1044 0.960 . S
C1031 C1028 1.511 . S
C1031 H1045 0.961 . S
C1031 H1046 0.961 . S
C1031 H1047 0.961 . S
C1032 C1033 1.370 . S
C1032 C1034 1.363 . S
C1032 H1048 0.931 . S
C1033 C1032 1.370 . S
C1033 C1037 1.408 . S
C1034 C1032 1.363 . S
C1034 C1035 1.370 . S
C1034 C1038 1.524 . S
C1035 C1027 1.503 . S
C1035 C1034 1.370 . S
C1035 C1036 1.403 . S
C1036 C1035 1.403 . S
C1036 C1037 1.404 . S
C1036 C1039 1.539 . S
C1037 C1033 1.408 . S
C1037 C1036 1.404 . S
C1037 H1049 0.930 . S
C1038 C1034 1.524 . S
C1038 H1050 0.956 . S
C1038 H1051 0.961 . S
C1038 H1052 0.961 . S
C1039 C1036 1.539 . S
C1039 H1053 0.958 . S
C1039 H1054 0.961 . S
C1039 H1055 0.960 . S
H1040 C1024 0.931 . S
H1041 C1029 0.929 . S
H1042 C1030 0.960 . S
H1043 C1030 0.962 . S
H1044 C1030 0.960 . S
H1045 C1031 0.961 . S
H1046 C1031 0.961 . S
H1047 C1031 0.961 . S
H1048 C1032 0.931 . S
H1049 C1037 0.930 . S
H1050 C1038 0.956 . S
H1051 C1038 0.961 . S
H1052 C1038 0.961 . S
H1053 C1039 0.958 . S
H1054 C1039 0.961 . S
H1055 C1039 0.960 . S
C1056 C1057 1.391 . S
C1056 C1058 1.394 . S
C1056 H1072 0.931 . S
C1057 C1056 1.391 . S
C1057 C1061 1.376 . S
C1058 C1056 1.394 . S
C1058 C1059 1.369 . S
C1058 C1062 1.531 . S
C1059 C1058 1.369 . S
C1059 C1060 1.410 . S
C1059 C1067 1.503 . S
C1060 C1059 1.410 . S
C1060 C1061 1.392 . S
C1060 C1063 1.511 . S
C1061 C1057 1.376 . S
C1061 C1060 1.392 . S
C1061 H1073 0.929 . S
C1062 C1058 1.531 . S
C1062 H1074 0.960 . S
C1062 H1075 0.962 . S
C1062 H1076 0.960 . S
C1063 C1060 1.511 . S
C1063 H1077 0.961 . S
C1063 H1078 0.961 . S
C1063 H1079 0.961 . S
C1064 C1065 1.370 . S
C1064 C1066 1.363 . S
C1064 H1080 0.931 . S
C1065 C1064 1.370 . S
C1065 C1069 1.408 . S
C1066 C1064 1.363 . S
C1066 C1067 1.370 . S
C1066 C1070 1.524 . S
C1067 C1059 1.503 . S
C1067 C1066 1.370 . S
C1067 C1068 1.403 . S
C1068 C1067 1.403 . S
C1068 C1069 1.404 . S
C1068 C1071 1.539 . S
C1069 C1065 1.408 . S
C1069 C1068 1.404 . S
C1069 H1081 0.930 . S
C1070 C1066 1.524 . S
C1070 H1082 0.956 . S
C1070 H1083 0.961 . S
C1070 H1084 0.961 . S
C1071 C1068 1.539 . S
C1071 H1085 0.958 . S
C1071 H1086 0.961 . S
C1071 H1087 0.960 . S
H1072 C1056 0.931 . S
H1073 C1061 0.929 . S
H1074 C1062 0.960 . S
H1075 C1062 0.962 . S
H1076 C1062 0.960 . S
H1077 C1063 0.961 . S
H1078 C1063 0.961 . S
H1079 C1063 0.961 . S
H1080 C1064 0.931 . S
H1081 C1069 0.930 . S
H1082 C1070 0.956 . S
H1083 C1070 0.961 . S
H1084 C1070 0.961 . S
H1085 C1071 0.958 . S
H1086 C1071 0.961 . S
H1087 C1071 0.960 . S
C1088 C1089 1.391 . S
C1088 C1090 1.394 . S
C1088 H1104 0.931 . S
C1089 C1088 1.391 . S
C1089 C1093 1.376 . S
C1090 C1088 1.394 . S
C1090 C1091 1.369 . S
C1090 C1094 1.531 . S
C1091 C1090 1.369 . S
C1091 C1092 1.410 . S
C1091 C1099 1.503 . S
C1092 C1091 1.410 . S
C1092 C1093 1.392 . S
C1092 C1095 1.511 . S
C1093 C1089 1.376 . S
C1093 C1092 1.392 . S
C1093 H1105 0.929 . S
C1094 C1090 1.531 . S
C1094 H1106 0.960 . S
C1094 H1107 0.962 . S
C1094 H1108 0.960 . S
C1095 C1092 1.511 . S
C1095 H1109 0.961 . S
C1095 H1110 0.961 . S
C1095 H1111 0.961 . S
C1096 C1097 1.370 . S
C1096 C1098 1.363 . S
C1096 H1112 0.931 . S
C1097 C1096 1.370 . S
C1097 C1101 1.408 . S
C1098 C1096 1.363 . S
C1098 C1099 1.370 . S
C1098 C1102 1.524 . S
C1099 C1091 1.503 . S
C1099 C1098 1.370 . S
C1099 C1100 1.403 . S
C1100 C1099 1.403 . S
C1100 C1101 1.404 . S
C1100 C1103 1.539 . S
C1101 C1097 1.408 . S
C1101 C1100 1.404 . S
C1101 H1113 0.930 . S
C1102 C1098 1.524 . S
C1102 H1114 0.956 . S
C1102 H1115 0.961 . S
C1102 H1116 0.961 . S
C1103 C1100 1.539 . S
C1103 H1117 0.958 . S
C1103 H1118 0.961 . S
C1103 H1119 0.960 . S
H1104 C1088 0.931 . S
H1105 C1093 0.929 . S
H1106 C1094 0.960 . S
H1107 C1094 0.962 . S
H1108 C1094 0.960 . S
H1109 C1095 0.961 . S
H1110 C1095 0.961 . S
H1111 C1095 0.961 . S
H1112 C1096 0.931 . S
H1113 C1101 0.930 . S
H1114 C1102 0.956 . S
H1115 C1102 0.961 . S
H1116 C1102 0.961 . S
H1117 C1103 0.958 . S
H1118 C1103 0.961 . S
H1119 C1103 0.960 . S
C1120 C1121 1.391 . S
C1120 C1122 1.394 . S
C1120 H1136 0.931 . S
C1121 C1120 1.391 . S
C1121 C1125 1.376 . S
C1122 C1120 1.394 . S
C1122 C1123 1.369 . S
C1122 C1126 1.531 . S
C1123 C1122 1.369 . S
C1123 C1124 1.410 . S
C1123 C1131 1.503 . S
C1124 C1123 1.410 . S
C1124 C1125 1.392 . S
C1124 C1127 1.511 . S
C1125 C1121 1.376 . S
C1125 C1124 1.392 . S
C1125 H1137 0.929 . S
C1126 C1122 1.531 . S
C1126 H1138 0.960 . S
C1126 H1139 0.962 . S
C1126 H1140 0.960 . S
C1127 C1124 1.511 . S
C1127 H1141 0.961 . S
C1127 H1142 0.961 . S
C1127 H1143 0.961 . S
C1128 C1129 1.370 . S
C1128 C1130 1.363 . S
C1128 H1144 0.931 . S
C1129 C1128 1.370 . S
C1129 C1133 1.408 . S
C1130 C1128 1.363 . S
C1130 C1131 1.370 . S
C1130 C1134 1.524 . S
C1131 C1123 1.503 . S
C1131 C1130 1.370 . S
C1131 C1132 1.403 . S
C1132 C1131 1.403 . S
C1132 C1133 1.404 . S
C1132 C1135 1.539 . S
C1133 C1129 1.408 . S
C1133 C1132 1.404 . S
C1133 H1145 0.930 . S
C1134 C1130 1.524 . S
C1134 H1146 0.956 . S
C1134 H1147 0.961 . S
C1134 H1148 0.961 . S
C1135 C1132 1.539 . S
C1135 H1149 0.958 . S
C1135 H1150 0.961 . S
C1135 H1151 0.960 . S
H1136 C1120 0.931 . S
H1137 C1125 0.929 . S
H1138 C1126 0.960 . S
H1139 C1126 0.962 . S
H1140 C1126 0.960 . S
H1141 C1127 0.961 . S
H1142 C1127 0.961 . S
H1143 C1127 0.961 . S
H1144 C1128 0.931 . S
H1145 C1133 0.930 . S
H1146 C1134 0.956 . S
H1147 C1134 0.961 . S
H1148 C1134 0.961 . S
H1149 C1135 0.958 . S
H1150 C1135 0.961 . S
H1151 C1135 0.960 . S
C1152 C1153 1.391 . S
C1152 C1154 1.394 . S
C1152 H1168 0.931 . S
C1153 C1152 1.391 . S
C1153 C1157 1.376 . S
C1154 C1152 1.394 . S
C1154 C1155 1.369 . S
C1154 C1158 1.531 . S
C1155 C1154 1.369 . S
C1155 C1156 1.410 . S
C1155 C1163 1.503 . S
C1156 C1155 1.410 . S
C1156 C1157 1.392 . S
C1156 C1159 1.511 . S
C1157 C1153 1.376 . S
C1157 C1156 1.392 . S
C1157 H1169 0.929 . S
C1158 C1154 1.531 . S
C1158 H1170 0.960 . S
C1158 H1171 0.962 . S
C1158 H1172 0.960 . S
C1159 C1156 1.511 . S
C1159 H1173 0.961 . S
C1159 H1174 0.961 . S
C1159 H1175 0.961 . S
C1160 C1161 1.370 . S
C1160 C1162 1.363 . S
C1160 H1176 0.931 . S
C1161 C1160 1.370 . S
C1161 C1165 1.408 . S
C1162 C1160 1.363 . S
C1162 C1163 1.370 . S
C1162 C1166 1.524 . S
C1163 C1155 1.503 . S
C1163 C1162 1.370 . S
C1163 C1164 1.403 . S
C1164 C1163 1.403 . S
C1164 C1165 1.404 . S
C1164 C1167 1.539 . S
C1165 C1161 1.408 . S
C1165 C1164 1.404 . S
C1165 H1177 0.930 . S
C1166 C1162 1.524 . S
C1166 H1178 0.956 . S
C1166 H1179 0.961 . S
C1166 H1180 0.961 . S
C1167 C1164 1.539 . S
C1167 H1181 0.958 . S
C1167 H1182 0.961 . S
C1167 H1183 0.960 . S
H1168 C1152 0.931 . S
H1169 C1157 0.929 . S
H1170 C1158 0.960 . S
H1171 C1158 0.962 . S
H1172 C1158 0.960 . S
H1173 C1159 0.961 . S
H1174 C1159 0.961 . S
H1175 C1159 0.961 . S
H1176 C1160 0.931 . S
H1177 C1165 0.930 . S
H1178 C1166 0.956 . S
H1179 C1166 0.961 . S
H1180 C1166 0.961 . S
H1181 C1167 0.958 . S
H1182 C1167 0.961 . S
H1183 C1167 0.960 . S
C1184 C1185 1.391 . S
C1184 C1186 1.394 . S
C1184 H1200 0.931 . S
C1185 C1184 1.391 . S
C1185 C1189 1.376 . S
C1186 C1184 1.394 . S
C1186 C1187 1.369 . S
C1186 C1190 1.531 . S
C1187 C1186 1.369 . S
C1187 C1188 1.410 . S
C1187 C1195 1.503 . S
C1188 C1187 1.410 . S
C1188 C1189 1.392 . S
C1188 C1191 1.511 . S
C1189 C1185 1.376 . S
C1189 C1188 1.392 . S
C1189 H1201 0.929 . S
C1190 C1186 1.531 . S
C1190 H1202 0.960 . S
C1190 H1203 0.962 . S
C1190 H1204 0.960 . S
C1191 C1188 1.511 . S
C1191 H1205 0.961 . S
C1191 H1206 0.961 . S
C1191 H1207 0.961 . S
C1192 C1193 1.370 . S
C1192 C1194 1.363 . S
C1192 H1208 0.931 . S
C1193 C1192 1.370 . S
C1193 C1197 1.408 . S
C1194 C1192 1.363 . S
C1194 C1195 1.370 . S
C1194 C1198 1.524 . S
C1195 C1187 1.503 . S
C1195 C1194 1.370 . S
C1195 C1196 1.403 . S
C1196 C1195 1.403 . S
C1196 C1197 1.404 . S
C1196 C1199 1.539 . S
C1197 C1193 1.408 . S
C1197 C1196 1.404 . S
C1197 H1209 0.930 . S
C1198 C1194 1.524 . S
C1198 H1210 0.956 . S
C1198 H1211 0.961 . S
C1198 H1212 0.961 . S
C1199 C1196 1.539 . S
C1199 H1213 0.958 . S
C1199 H1214 0.961 . S
C1199 H1215 0.960 . S
H1200 C1184 0.931 . S
H1201 C1189 0.929 . S
H1202 C1190 0.960 . S
H1203 C1190 0.962 . S
H1204 C1190 0.960 . S
H1205 C1191 0.961 . S
H1206 C1191 0.961 . S
H1207 C1191 0.961 . S
H1208 C1192 0.931 . S
H1209 C1197 0.930 . S
H1210 C1198 0.956 . S
H1211 C1198 0.961 . S
H1212 C1198 0.961 . S
H1213 C1199 0.958 . S
H1214 C1199 0.961 . S
H1215 C1199 0.960 . S
C1216 C1217 1.391 . S
C1216 C1218 1.394 . S
C1216 H1232 0.931 . S
C1217 C1216 1.391 . S
C1217 C1221 1.376 . S
C1218 C1216 1.394 . S
C1218 C1219 1.369 . S
C1218 C1222 1.531 . S
C1219 C1218 1.369 . S
C1219 C1220 1.410 . S
C1219 C1227 1.503 . S
C1220 C1219 1.410 . S
C1220 C1221 1.392 . S
C1220 C1223 1.511 . S
C1221 C1217 1.376 . S
C1221 C1220 1.392 . S
C1221 H1233 0.929 . S
C1222 C1218 1.531 . S
C1222 H1234 0.960 . S
C1222 H1235 0.962 . S
C1222 H1236 0.960 . S
C1223 C1220 1.511 . S
C1223 H1237 0.961 . S
C1223 H1238 0.961 . S
C1223 H1239 0.961 . S
C1224 C1225 1.370 . S
C1224 C1226 1.363 . S
C1224 H1240 0.931 . S
C1225 C1224 1.370 . S
C1225 C1229 1.408 . S
C1226 C1224 1.363 . S
C1226 C1227 1.370 . S
C1226 C1230 1.524 . S
C1227 C1219 1.503 . S
C1227 C1226 1.370 . S
C1227 C1228 1.403 . S
C1228 C1227 1.403 . S
C1228 C1229 1.404 . S
C1228 C1231 1.539 . S
C1229 C1225 1.408 . S
C1229 C1228 1.404 . S
C1229 H1241 0.930 . S
C1230 C1226 1.524 . S
C1230 H1242 0.956 . S
C1230 H1243 0.961 . S
C1230 H1244 0.961 . S
C1231 C1228 1.539 . S
C1231 H1245 0.958 . S
C1231 H1246 0.961 . S
C1231 H1247 0.960 . S
H1232 C1216 0.931 . S
H1233 C1221 0.929 . S
H1234 C1222 0.960 . S
H1235 C1222 0.962 . S
H1236 C1222 0.960 . S
H1237 C1223 0.961 . S
H1238 C1223 0.961 . S
H1239 C1223 0.961 . S
H1240 C1224 0.931 . S
H1241 C1229 0.930 . S
H1242 C1230 0.956 . S
H1243 C1230 0.961 . S
H1244 C1230 0.961 . S
H1245 C1231 0.958 . S
H1246 C1231 0.961 . S
H1247 C1231 0.960 . S
C1248 C1249 1.391 . S
C1248 C1250 1.394 . S
C1248 H1264 0.931 . S
C1249 C1248 1.391 . S
C1249 C1253 1.376 . S
C1250 C1248 1.394 . S
C1250 C1251 1.369 . S
C1250 C1254 1.531 . S
C1251 C1250 1.369 . S
C1251 C1252 1.410 . S
C1251 C1259 1.503 . S
C1252 C1251 1.410 . S
C1252 C1253 1.392 . S
C1252 C1255 1.511 . S
C1253 C1249 1.376 . S
C1253 C1252 1.392 . S
C1253 H1265 0.929 . S
C1254 C1250 1.531 . S
C1254 H1266 0.960 . S
C1254 H1267 0.962 . S
C1254 H1268 0.960 . S
C1255 C1252 1.511 . S
C1255 H1269 0.961 . S
C1255 H1270 0.961 . S
C1255 H1271 0.961 . S
C1256 C1257 1.370 . S
C1256 C1258 1.363 . S
C1256 H1272 0.931 . S
C1257 C1256 1.370 . S
C1257 C1261 1.408 . S
C1258 C1256 1.363 . S
C1258 C1259 1.370 . S
C1258 C1262 1.524 . S
C1259 C1251 1.503 . S
C1259 C1258 1.370 . S
C1259 C1260 1.403 . S
C1260 C1259 1.403 . S
C1260 C1261 1.404 . S
C1260 C1263 1.539 . S
C1261 C1257 1.408 . S
C1261 C1260 1.404 . S
C1261 H1273 0.930 . S
C1262 C1258 1.524 . S
C1262 H1274 0.956 . S
C1262 H1275 0.961 . S
C1262 H1276 0.961 . S
C1263 C1260 1.539 . S
C1263 H1277 0.958 . S
C1263 H1278 0.961 . S
C1263 H1279 0.960 . S
H1264 C1248 0.931 . S
H1265 C1253 0.929 . S
H1266 C1254 0.960 . S
H1267 C1254 0.962 . S
H1268 C1254 0.960 . S
H1269 C1255 0.961 . S
H1270 C1255 0.961 . S
H1271 C1255 0.961 . S
H1272 C1256 0.931 . S
H1273 C1261 0.930 . S
H1274 C1262 0.956 . S
H1275 C1262 0.961 . S
H1276 C1262 0.961 . S
H1277 C1263 0.958 . S
H1278 C1263 0.961 . S
H1279 C1263 0.960 . S
C1280 C1281 1.391 . S
C1280 C1282 1.394 . S
C1280 H1296 0.931 . S
C1281 C1280 1.391 . S
C1281 C1285 1.376 . S
C1282 C1280 1.394 . S
C1282 C1283 1.369 . S
C1282 C1286 1.531 . S
C1283 C1282 1.369 . S
C1283 C1284 1.410 . S
C1283 C1291 1.503 . S
C1284 C1283 1.410 . S
C1284 C1285 1.392 . S
C1284 C1287 1.511 . S
C1285 C1281 1.376 . S
C1285 C1284 1.392 . S
C1285 H1297 0.929 . S
C1286 C1282 1.531 . S
C1286 H1298 0.960 . S
C1286 H1299 0.962 . S
C1286 H1300 0.960 . S
C1287 C1284 1.511 . S
C1287 H1301 0.961 . S
C1287 H1302 0.961 . S
C1287 H1303 0.961 . S
C1288 C1289 1.370 . S
C1288 C1290 1.363 . S
C1288 H1304 0.931 . S
C1289 C1288 1.370 . S
C1289 C1293 1.408 . S
C1290 C1288 1.363 . S
C1290 C1291 1.370 . S
C1290 C1294 1.524 . S
C1291 C1283 1.503 . S
C1291 C1290 1.370 . S
C1291 C1292 1.403 . S
C1292 C1291 1.403 . S
C1292 C1293 1.404 . S
C1292 C1295 1.539 . S
C1293 C1289 1.408 . S
C1293 C1292 1.404 . S
C1293 H1305 0.930 . S
C1294 C1290 1.524 . S
C1294 H1306 0.956 . S
C1294 H1307 0.961 . S
C1294 H1308 0.961 . S
C1295 C1292 1.539 . S
C1295 H1309 0.958 . S
C1295 H1310 0.961 . S
C1295 H1311 0.960 . S
H1296 C1280 0.931 . S
H1297 C1285 0.929 . S
H1298 C1286 0.960 . S
H1299 C1286 0.962 . S
H1300 C1286 0.960 . S
H1301 C1287 0.961 . S
H1302 C1287 0.961 . S
H1303 C1287 0.961 . S
H1304 C1288 0.931 . S
H1305 C1293 0.930 . S
H1306 C1294 0.956 . S
H1307 C1294 0.961 . S
H1308 C1294 0.961 . S
H1309 C1295 0.958 . S
H1310 C1295 0.961 . S
H1311 C1295 0.960 . S
C1312 C1313 1.391 . S
C1312 C1314 1.394 . S
C1312 H1328 0.931 . S
C1313 C1312 1.391 . S
C1313 C1317 1.376 . S
C1314 C1312 1.394 . S
C1314 C1315 1.369 . S
C1314 C1318 1.531 . S
C1315 C1314 1.369 . S
C1315 C1316 1.410 . S
C1315 C1323 1.503 . S
C1316 C1315 1.410 . S
C1316 C1317 1.392 . S
C1316 C1319 1.511 . S
C1317 C1313 1.376 . S
C1317 C1316 1.392 . S
C1317 H1329 0.929 . S
C1318 C1314 1.531 . S
C1318 H1330 0.960 . S
C1318 H1331 0.962 . S
C1318 H1332 0.960 . S
C1319 C1316 1.511 . S
C1319 H1333 0.961 . S
C1319 H1334 0.961 . S
C1319 H1335 0.961 . S
C1320 C1321 1.370 . S
C1320 C1322 1.363 . S
C1320 H1336 0.931 . S
C1321 C1320 1.370 . S
C1321 C1325 1.408 . S
C1322 C1320 1.363 . S
C1322 C1323 1.370 . S
C1322 C1326 1.524 . S
C1323 C1315 1.503 . S
C1323 C1322 1.370 . S
C1323 C1324 1.403 . S
C1324 C1323 1.403 . S
C1324 C1325 1.404 . S
C1324 C1327 1.539 . S
C1325 C1321 1.408 . S
C1325 C1324 1.404 . S
C1325 H1337 0.930 . S
C1326 C1322 1.524 . S
C1326 H1338 0.956 . S
C1326 H1339 0.961 . S
C1326 H1340 0.961 . S
C1327 C1324 1.539 . S
C1327 H1341 0.958 . S
C1327 H1342 0.961 . S
C1327 H1343 0.960 . S
H1328 C1312 0.931 . S
H1329 C1317 0.929 . S
H1330 C1318 0.960 . S
H1331 C1318 0.962 . S
H1332 C1318 0.960 . S
H1333 C1319 0.961 . S
H1334 C1319 0.961 . S
H1335 C1319 0.961 . S
H1336 C1320 0.931 . S
H1337 C1325 0.930 . S
H1338 C1326 0.956 . S
H1339 C1326 0.961 . S
H1340 C1326 0.961 . S
H1341 C1327 0.958 . S
H1342 C1327 0.961 . S
H1343 C1327 0.960 . S
C1344 C1345 1.391 . S
C1344 C1346 1.394 . S
C1344 H1360 0.931 . S
C1345 C1344 1.391 . S
C1345 C1349 1.376 . S
C1346 C1344 1.394 . S
C1346 C1347 1.369 . S
C1346 C1350 1.531 . S
C1347 C1346 1.369 . S
C1347 C1348 1.410 . S
C1347 C1355 1.503 . S
C1348 C1347 1.410 . S
C1348 C1349 1.392 . S
C1348 C1351 1.511 . S
C1349 C1345 1.376 . S
C1349 C1348 1.392 . S
C1349 H1361 0.929 . S
C1350 C1346 1.531 . S
C1350 H1362 0.960 . S
C1350 H1363 0.962 . S
C1350 H1364 0.960 . S
C1351 C1348 1.511 . S
C1351 H1365 0.961 . S
C1351 H1366 0.961 . S
C1351 H1367 0.961 . S
C1352 C1353 1.370 . S
C1352 C1354 1.363 . S
C1352 H1368 0.931 . S
C1353 C1352 1.370 . S
C1353 C1357 1.408 . S
C1354 C1352 1.363 . S
C1354 C1355 1.370 . S
C1354 C1358 1.524 . S
C1355 C1347 1.503 . S
C1355 C1354 1.370 . S
C1355 C1356 1.403 . S
C1356 C1355 1.403 . S
C1356 C1357 1.404 . S
C1356 C1359 1.539 . S
C1357 C1353 1.408 . S
C1357 C1356 1.404 . S
C1357 H1369 0.930 . S
C1358 C1354 1.524 . S
C1358 H1370 0.956 . S
C1358 H1371 0.961 . S
C1358 H1372 0.961 . S
C1359 C1356 1.539 . S
C1359 H1373 0.958 . S
C1359 H1374 0.961 . S
C1359 H1375 0.960 . S
H1360 C1344 0.931 . S
H1361 C1349 0.929 . S
H1362 C1350 0.960 . S
H1363 C1350 0.962 . S
H1364 C1350 0.960 . S
H1365 C1351 0.961 . S
H1366 C1351 0.961 . S
H1367 C1351 0.961 . S
H1368 C1352 0.931 . S
H1369 C1357 0.930 . S
H1370 C1358 0.956 . S
H1371 C1358 0.961 . S
H1372 C1358 0.961 . S
H1373 C1359 0.958 . S
H1374 C1359 0.961 . S
H1375 C1359 0.960 . S
C1376 C1377 1.391 . S
C1376 C1378 1.394 . S
C1376 H1392 0.931 . S
C1377 C1376 1.391 . S
C1377 C1381 1.376 . S
C1378 C1376 1.394 . S
C1378 C1379 1.369 . S
C1378 C1382 1.531 . S
C1379 C1378 1.369 . S
C1379 C1380 1.410 . S
C1379 C1387 1.503 . S
C1380 C1379 1.410 . S
C1380 C1381 1.392 . S
C1380 C1383 1.511 . S
C1381 C1377 1.376 . S
C1381 C1380 1.392 . S
C1381 H1393 0.929 . S
C1382 C1378 1.531 . S
C1382 H1394 0.960 . S
C1382 H1395 0.962 . S
C1382 H1396 0.960 . S
C1383 C1380 1.511 . S
C1383 H1397 0.961 . S
C1383 H1398 0.961 . S
C1383 H1399 0.961 . S
C1384 C1385 1.370 . S
C1384 C1386 1.363 . S
C1384 H1400 0.931 . S
C1385 C1384 1.370 . S
C1385 C1389 1.408 . S
C1386 C1384 1.363 . S
C1386 C1387 1.370 . S
C1386 C1390 1.524 . S
C1387 C1379 1.503 . S
C1387 C1386 1.370 . S
C1387 C1388 1.403 . S
C1388 C1387 1.403 . S
C1388 C1389 1.404 . S
C1388 C1391 1.539 . S
C1389 C1385 1.408 . S
C1389 C1388 1.404 . S
C1389 H1401 0.930 . S
C1390 C1386 1.524 . S
C1390 H1402 0.956 . S
C1390 H1403 0.961 . S
C1390 H1404 0.961 . S
C1391 C1388 1.539 . S
C1391 H1405 0.958 . S
C1391 H1406 0.961 . S
C1391 H1407 0.960 . S
H1392 C1376 0.931 . S
H1393 C1381 0.929 . S
H1394 C1382 0.960 . S
H1395 C1382 0.962 . S
H1396 C1382 0.960 . S
H1397 C1383 0.961 . S
H1398 C1383 0.961 . S
H1399 C1383 0.961 . S
H1400 C1384 0.931 . S
H1401 C1389 0.930 . S
H1402 C1390 0.956 . S
H1403 C1390 0.961 . S
H1404 C1390 0.961 . S
H1405 C1391 0.958 . S
H1406 C1391 0.961 . S
H1407 C1391 0.960 . S
C1408 C1409 1.391 . S
C1408 C1410 1.394 . S
C1408 H1424 0.931 . S
C1409 C1408 1.391 . S
C1409 C1413 1.376 . S
C1410 C1408 1.394 . S
C1410 C1411 1.369 . S
C1410 C1414 1.531 . S
C1411 C1410 1.369 . S
C1411 C1412 1.410 . S
C1411 C1419 1.503 . S
C1412 C1411 1.410 . S
C1412 C1413 1.392 . S
C1412 C1415 1.511 . S
C1413 C1409 1.376 . S
C1413 C1412 1.392 . S
C1413 H1425 0.929 . S
C1414 C1410 1.531 . S
C1414 H1426 0.960 . S
C1414 H1427 0.962 . S
C1414 H1428 0.960 . S
C1415 C1412 1.511 . S
C1415 H1429 0.961 . S
C1415 H1430 0.961 . S
C1415 H1431 0.961 . S
C1416 C1417 1.370 . S
C1416 C1418 1.363 . S
C1416 H1432 0.931 . S
C1417 C1416 1.370 . S
C1417 C1421 1.408 . S
C1418 C1416 1.363 . S
C1418 C1419 1.370 . S
C1418 C1422 1.524 . S
C1419 C1411 1.503 . S
C1419 C1418 1.370 . S
C1419 C1420 1.403 . S
C1420 C1419 1.403 . S
C1420 C1421 1.404 . S
C1420 C1423 1.539 . S
C1421 C1417 1.408 . S
C1421 C1420 1.404 . S
C1421 H1433 0.930 . S
C1422 C1418 1.524 . S
C1422 H1434 0.956 . S
C1422 H1435 0.961 . S
C1422 H1436 0.961 . S
C1423 C1420 1.539 . S
C1423 H1437 0.958 . S
C1423 H1438 0.961 . S
C1423 H1439 0.960 . S
H1424 C1408 0.931 . S
H1425 C1413 0.929 . S
H1426 C1414 0.960 . S
H1427 C1414 0.962 . S
H1428 C1414 0.960 . S
H1429 C1415 0.961 . S
H1430 C1415 0.961 . S
H1431 C1415 0.961 . S
H1432 C1416 0.931 . S
H1433 C1421 0.930 . S
H1434 C1422 0.956 . S
H1435 C1422 0.961 . S
H1436 C1422 0.961 . S
H1437 C1423 0.958 . S
H1438 C1423 0.961 . S
H1439 C1423 0.960 . S
C1440 C1441 1.391 . S
C1440 C1442 1.394 . S
C1440 H1456 0.931 . S
C1441 C1440 1.391 . S
C1441 C1445 1.376 . S
C1442 C1440 1.394 . S
C1442 C1443 1.369 . S
C1442 C1446 1.531 . S
C1443 C1442 1.369 . S
C1443 C1444 1.410 . S
C1443 C1451 1.503 . S
C1444 C1443 1.410 . S
C1444 C1445 1.392 . S
C1444 C1447 1.511 . S
C1445 C1441 1.376 . S
C1445 C1444 1.392 . S
C1445 H1457 0.929 . S
C1446 C1442 1.531 . S
C1446 H1458 0.960 . S
C1446 H1459 0.962 . S
C1446 H1460 0.960 . S
C1447 C1444 1.511 . S
C1447 H1461 0.961 . S
C1447 H1462 0.961 . S
C1447 H1463 0.961 . S
C1448 C1449 1.370 . S
C1448 C1450 1.363 . S
C1448 H1464 0.931 . S
C1449 C1448 1.370 . S
C1449 C1453 1.408 . S
C1450 C1448 1.363 . S
C1450 C1451 1.370 . S
C1450 C1454 1.524 . S
C1451 C1443 1.503 . S
C1451 C1450 1.370 . S
C1451 C1452 1.403 . S
C1452 C1451 1.403 . S
C1452 C1453 1.404 . S
C1452 C1455 1.539 . S
C1453 C1449 1.408 . S
C1453 C1452 1.404 . S
C1453 H1465 0.930 . S
C1454 C1450 1.524 . S
C1454 H1466 0.956 . S
C1454 H1467 0.961 . S
C1454 H1468 0.961 . S
C1455 C1452 1.539 . S
C1455 H1469 0.958 . S
C1455 H1470 0.961 . S
C1455 H1471 0.960 . S
H1456 C1440 0.931 . S
H1457 C1445 0.929 . S
H1458 C1446 0.960 . S
H1459 C1446 0.962 . S
H1460 C1446 0.960 . S
H1461 C1447 0.961 . S
H1462 C1447 0.961 . S
H1463 C1447 0.961 . S
H1464 C1448 0.931 . S
H1465 C1453 0.930 . S
H1466 C1454 0.956 . S
H1467 C1454 0.961 . S
H1468 C1454 0.961 . S
H1469 C1455 0.958 . S
H1470 C1455 0.961 . S
H1471 C1455 0.960 . S
C1472 C1473 1.391 . S
C1472 C1474 1.394 . S
C1472 H1488 0.931 . S
C1473 C1472 1.391 . S
C1473 C1477 1.376 . S
C1474 C1472 1.394 . S
C1474 C1475 1.369 . S
C1474 C1478 1.531 . S
C1475 C1474 1.369 . S
C1475 C1476 1.410 . S
C1475 C1483 1.503 . S
C1476 C1475 1.410 . S
C1476 C1477 1.392 . S
C1476 C1479 1.511 . S
C1477 C1473 1.376 . S
C1477 C1476 1.392 . S
C1477 H1489 0.929 . S
C1478 C1474 1.531 . S
C1478 H1490 0.960 . S
C1478 H1491 0.962 . S
C1478 H1492 0.960 . S
C1479 C1476 1.511 . S
C1479 H1493 0.961 . S
C1479 H1494 0.961 . S
C1479 H1495 0.961 . S
C1480 C1481 1.370 . S
C1480 C1482 1.363 . S
C1480 H1496 0.931 . S
C1481 C1480 1.370 . S
C1481 C1485 1.408 . S
C1482 C1480 1.363 . S
C1482 C1483 1.370 . S
C1482 C1486 1.524 . S
C1483 C1475 1.503 . S
C1483 C1482 1.370 . S
C1483 C1484 1.403 . S
C1484 C1483 1.403 . S
C1484 C1485 1.404 . S
C1484 C1487 1.539 . S
C1485 C1481 1.408 . S
C1485 C1484 1.404 . S
C1485 H1497 0.930 . S
C1486 C1482 1.524 . S
C1486 H1498 0.956 . S
C1486 H1499 0.961 . S
C1486 H1500 0.961 . S
C1487 C1484 1.539 . S
C1487 H1501 0.958 . S
C1487 H1502 0.961 . S
C1487 H1503 0.960 . S
H1488 C1472 0.931 . S
H1489 C1477 0.929 . S
H1490 C1478 0.960 . S
H1491 C1478 0.962 . S
H1492 C1478 0.960 . S
H1493 C1479 0.961 . S
H1494 C1479 0.961 . S
H1495 C1479 0.961 . S
H1496 C1480 0.931 . S
H1497 C1485 0.930 . S
H1498 C1486 0.956 . S
H1499 C1486 0.961 . S
H1500 C1486 0.961 . S
H1501 C1487 0.958 . S
H1502 C1487 0.961 . S
H1503 C1487 0.960 . S
C1504 C1505 1.391 . S
C1504 C1506 1.394 . S
C1504 H1520 0.931 . S
C1505 C1504 1.391 . S
C1505 C1509 1.376 . S
C1506 C1504 1.394 . S
C1506 C1507 1.369 . S
C1506 C1510 1.531 . S
C1507 C1506 1.369 . S
C1507 C1508 1.410 . S
C1507 C1515 1.503 . S
C1508 C1507 1.410 . S
C1508 C1509 1.392 . S
C1508 C1511 1.511 . S
C1509 C1505 1.376 . S
C1509 C1508 1.392 . S
C1509 H1521 0.929 . S
C1510 C1506 1.531 . S
C1510 H1522 0.960 . S
C1510 H1523 0.962 . S
C1510 H1524 0.960 . S
C1511 C1508 1.511 . S
C1511 H1525 0.961 . S
C1511 H1526 0.961 . S
C1511 H1527 0.961 . S
C1512 C1513 1.370 . S
C1512 C1514 1.363 . S
C1512 H1528 0.931 . S
C1513 C1512 1.370 . S
C1513 C1517 1.408 . S
C1514 C1512 1.363 . S
C1514 C1515 1.370 . S
C1514 C1518 1.524 . S
C1515 C1507 1.503 . S
C1515 C1514 1.370 . S
C1515 C1516 1.403 . S
C1516 C1515 1.403 . S
C1516 C1517 1.404 . S
C1516 C1519 1.539 . S
C1517 C1513 1.408 . S
C1517 C1516 1.404 . S
C1517 H1529 0.930 . S
C1518 C1514 1.524 . S
C1518 H1530 0.956 . S
C1518 H1531 0.961 . S
C1518 H1532 0.961 . S
C1519 C1516 1.539 . S
C1519 H1533 0.958 . S
C1519 H1534 0.961 . S
C1519 H1535 0.960 . S
H1520 C1504 0.931 . S
H1521 C1509 0.929 . S
H1522 C1510 0.960 . S
H1523 C1510 0.962 . S
H1524 C1510 0.960 . S
H1525 C1511 0.961 . S
H1526 C1511 0.961 . S
H1527 C1511 0.961 . S
H1528 C1512 0.931 . S
H1529 C1517 0.930 . S
H1530 C1518 0.956 . S
H1531 C1518 0.961 . S
H1532 C1518 0.961 . S
H1533 C1519 0.958 . S
H1534 C1519 0.961 . S
H1535 C1519 0.960 . S
C1536 C1537 1.391 . S
C1536 C1538 1.394 . S
C1536 H1552 0.931 . S
C1537 C1536 1.391 . S
C1537 C1541 1.376 . S
C1538 C1536 1.394 . S
C1538 C1539 1.369 . S
C1538 C1542 1.531 . S
C1539 C1538 1.369 . S
C1539 C1540 1.410 . S
C1539 C1547 1.503 . S
C1540 C1539 1.410 . S
C1540 C1541 1.392 . S
C1540 C1543 1.511 . S
C1541 C1537 1.376 . S
C1541 C1540 1.392 . S
C1541 H1553 0.929 . S
C1542 C1538 1.531 . S
C1542 H1554 0.960 . S
C1542 H1555 0.962 . S
C1542 H1556 0.960 . S
C1543 C1540 1.511 . S
C1543 H1557 0.961 . S
C1543 H1558 0.961 . S
C1543 H1559 0.961 . S
C1544 C1545 1.370 . S
C1544 C1546 1.363 . S
C1544 H1560 0.931 . S
C1545 C1544 1.370 . S
C1545 C1549 1.408 . S
C1546 C1544 1.363 . S
C1546 C1547 1.370 . S
C1546 C1550 1.524 . S
C1547 C1539 1.503 . S
C1547 C1546 1.370 . S
C1547 C1548 1.403 . S
C1548 C1547 1.403 . S
C1548 C1549 1.404 . S
C1548 C1551 1.539 . S
C1549 C1545 1.408 . S
C1549 C1548 1.404 . S
C1549 H1561 0.930 . S
C1550 C1546 1.524 . S
C1550 H1562 0.956 . S
C1550 H1563 0.961 . S
C1550 H1564 0.961 . S
C1551 C1548 1.539 . S
C1551 H1565 0.958 . S
C1551 H1566 0.961 . S
C1551 H1567 0.960 . S
H1552 C1536 0.931 . S
H1553 C1541 0.929 . S
H1554 C1542 0.960 . S
H1555 C1542 0.962 . S
H1556 C1542 0.960 . S
H1557 C1543 0.961 . S
H1558 C1543 0.961 . S
H1559 C1543 0.961 . S
H1560 C1544 0.931 . S
H1561 C1549 0.930 . S
H1562 C1550 0.956 . S
H1563 C1550 0.961 . S
H1564 C1550 0.961 . S
H1565 C1551 0.958 . S
H1566 C1551 0.961 . S
H1567 C1551 0.960 . S
C1568 C1569 1.391 . S
C1568 C1570 1.394 . S
C1568 H1584 0.931 . S
C1569 C1568 1.391 . S
C1569 C1573 1.376 . S
C1570 C1568 1.394 . S
C1570 C1571 1.369 . S
C1570 C1574 1.531 . S
C1571 C1570 1.369 . S
C1571 C1572 1.410 . S
C1571 C1579 1.503 . S
C1572 C1571 1.410 . S
C1572 C1573 1.392 . S
C1572 C1575 1.511 . S
C1573 C1569 1.376 . S
C1573 C1572 1.392 . S
C1573 H1585 0.929 . S
C1574 C1570 1.531 . S
C1574 H1586 0.960 . S
C1574 H1587 0.962 . S
C1574 H1588 0.960 . S
C1575 C1572 1.511 . S
C1575 H1589 0.961 . S
C1575 H1590 0.961 . S
C1575 H1591 0.961 . S
C1576 C1577 1.370 . S
C1576 C1578 1.363 . S
C1576 H1592 0.931 . S
C1577 C1576 1.370 . S
C1577 C1581 1.408 . S
C1578 C1576 1.363 . S
C1578 C1579 1.370 . S
C1578 C1582 1.524 . S
C1579 C1571 1.503 . S
C1579 C1578 1.370 . S
C1579 C1580 1.403 . S
C1580 C1579 1.403 . S
C1580 C1581 1.404 . S
C1580 C1583 1.539 . S
C1581 C1577 1.408 . S
C1581 C1580 1.404 . S
C1581 H1593 0.930 . S
C1582 C1578 1.524 . S
C1582 H1594 0.956 . S
C1582 H1595 0.961 . S
C1582 H1596 0.961 . S
C1583 C1580 1.539 . S
C1583 H1597 0.958 . S
C1583 H1598 0.961 . S
C1583 H1599 0.960 . S
H1584 C1568 0.931 . S
H1585 C1573 0.929 . S
H1586 C1574 0.960 . S
H1587 C1574 0.962 . S
H1588 C1574 0.960 . S
H1589 C1575 0.961 . S
H1590 C1575 0.961 . S
H1591 C1575 0.961 . S
H1592 C1576 0.931 . S
H1593 C1581 0.930 . S
H1594 C1582 0.956 . S
H1595 C1582 0.961 . S
H1596 C1582 0.961 . S
H1597 C1583 0.958 . S
H1598 C1583 0.961 . S
H1599 C1583 0.960 . S
C1600 C1601 1.391 . S
C1600 C1602 1.394 . S
C1600 H1616 0.931 . S
C1601 C1600 1.391 . S
C1601 C1605 1.376 . S
C1602 C1600 1.394 . S
C1602 C1603 1.369 . S
C1602 C1606 1.531 . S
C1603 C1602 1.369 . S
C1603 C1604 1.410 . S
C1603 C1611 1.503 . S
C1604 C1603 1.410 . S
C1604 C1605 1.392 . S
C1604 C1607 1.511 . S
C1605 C1601 1.376 . S
C1605 C1604 1.392 . S
C1605 H1617 0.929 . S
C1606 C1602 1.531 . S
C1606 H1618 0.960 . S
C1606 H1619 0.962 . S
C1606 H1620 0.960 . S
C1607 C1604 1.511 . S
C1607 H1621 0.961 . S
C1607 H1622 0.961 . S
C1607 H1623 0.961 . S
C1608 C1609 1.370 . S
C1608 C1610 1.363 . S
C1608 H1624 0.931 . S
C1609 C1608 1.370 . S
C1609 C1613 1.408 . S
C1610 C1608 1.363 . S
C1610 C1611 1.370 . S
C1610 C1614 1.524 . S
C1611 C1603 1.503 . S
C1611 C1610 1.370 . S
C1611 C1612 1.403 . S
C1612 C1611 1.403 . S
C1612 C1613 1.404 . S
C1612 C1615 1.539 . S
C1613 C1609 1.408 . S
C1613 C1612 1.404 . S
C1613 H1625 0.930 . S
C1614 C1610 1.524 . S
C1614 H1626 0.956 . S
C1614 H1627 0.961 . S
C1614 H1628 0.961 . S
C1615 C1612 1.539 . S
C1615 H1629 0.958 . S
C1615 H1630 0.961 . S
C1615 H1631 0.960 . S
H1616 C1600 0.931 . S
H1617 C1605 0.929 . S
H1618 C1606 0.960 . S
H1619 C1606 0.962 . S
H1620 C1606 0.960 . S
H1621 C1607 0.961 . S
H1622 C1607 0.961 . S
H1623 C1607 0.961 . S
H1624 C1608 0.931 . S
H1625 C1613 0.930 . S
H1626 C1614 0.956 . S
H1627 C1614 0.961 . S
H1628 C1614 0.961 . S
H1629 C1615 0.958 . S
H1630 C1615 0.961 . S
H1631 C1615 0.960 . S
C1632 C1633 1.391 . S
C1632 C1634 1.394 . S
C1632 H1648 0.931 . S
C1633 C1632 1.391 . S
C1633 C1637 1.376 . S
C1634 C1632 1.394 . S
C1634 C1635 1.369 . S
C1634 C1638 1.531 . S
C1635 C1634 1.369 . S
C1635 C1636 1.410 . S
C1635 C1643 1.503 . S
C1636 C1635 1.410 . S
C1636 C1637 1.392 . S
C1636 C1639 1.511 . S
C1637 C1633 1.376 . S
C1637 C1636 1.392 . S
C1637 H1649 0.929 . S
C1638 C1634 1.531 . S
C1638 H1650 0.960 . S
C1638 H1651 0.962 . S
C1638 H1652 0.960 . S
C1639 C1636 1.511 . S
C1639 H1653 0.961 . S
C1639 H1654 0.961 . S
C1639 H1655 0.961 . S
C1640 C1641 1.370 . S
C1640 C1642 1.363 . S
C1640 H1656 0.931 . S
C1641 C1640 1.370 . S
C1641 C1645 1.408 . S
C1642 C1640 1.363 . S
C1642 C1643 1.370 . S
C1642 C1646 1.524 . S
C1643 C1635 1.503 . S
C1643 C1642 1.370 . S
C1643 C1644 1.403 . S
C1644 C1643 1.403 . S
C1644 C1645 1.404 . S
C1644 C1647 1.539 . S
C1645 C1641 1.408 . S
C1645 C1644 1.404 . S
C1645 H1657 0.930 . S
C1646 C1642 1.524 . S
C1646 H1658 0.956 . S
C1646 H1659 0.961 . S
C1646 H1660 0.961 . S
C1647 C1644 1.539 . S
C1647 H1661 0.958 . S
C1647 H1662 0.961 . S
C1647 H1663 0.960 . S
H1648 C1632 0.931 . S
H1649 C1637 0.929 . S
H1650 C1638 0.960 . S
H1651 C1638 0.962 . S
H1652 C1638 0.960 . S
H1653 C1639 0.961 . S
H1654 C1639 0.961 . S
H1655 C1639 0.961 . S
H1656 C1640 0.931 . S
H1657 C1645 0.930 . S
H1658 C1646 0.956 . S
H1659 C1646 0.961 . S
H1660 C1646 0.961 . S
H1661 C1647 0.958 . S
H1662 C1647 0.961 . S
H1663 C1647 0.960 . S
C1664 C1665 1.391 . S
C1664 C1666 1.394 . S
C1664 H1680 0.931 . S
C1665 C1664 1.391 . S
C1665 C1669 1.376 . S
C1666 C1664 1.394 . S
C1666 C1667 1.369 . S
C1666 C1670 1.531 . S
C1667 C1666 1.369 . S
C1667 C1668 1.410 . S
C1667 C1675 1.503 . S
C1668 C1667 1.410 . S
C1668 C1669 1.392 . S
C1668 C1671 1.511 . S
C1669 C1665 1.376 . S
C1669 C1668 1.392 . S
C1669 H1681 0.929 . S
C1670 C1666 1.531 . S
C1670 H1682 0.960 . S
C1670 H1683 0.962 . S
C1670 H1684 0.960 . S
C1671 C1668 1.511 . S
C1671 H1685 0.961 . S
C1671 H1686 0.961 . S
C1671 H1687 0.961 . S
C1672 C1673 1.370 . S
C1672 C1674 1.363 . S
C1672 H1688 0.931 . S
C1673 C1672 1.370 . S
C1673 C1677 1.408 . S
C1674 C1672 1.363 . S
C1674 C1675 1.370 . S
C1674 C1678 1.524 . S
C1675 C1667 1.503 . S
C1675 C1674 1.370 . S
C1675 C1676 1.403 . S
C1676 C1675 1.403 . S
C1676 C1677 1.404 . S
C1676 C1679 1.539 . S
C1677 C1673 1.408 . S
C1677 C1676 1.404 . S
C1677 H1689 0.930 . S
C1678 C1674 1.524 . S
C1678 H1690 0.956 . S
C1678 H1691 0.961 . S
C1678 H1692 0.961 . S
C1679 C1676 1.539 . S
C1679 H1693 0.958 . S
C1679 H1694 0.961 . S
C1679 H1695 0.960 . S
H1680 C1664 0.931 . S
H1681 C1669 0.929 . S
H1682 C1670 0.960 . S
H1683 C1670 0.962 . S
H1684 C1670 0.960 . S
H1685 C1671 0.961 . S
H1686 C1671 0.961 . S
H1687 C1671 0.961 . S
H1688 C1672 0.931 . S
H1689 C1677 0.930 . S
H1690 C1678 0.956 . S
H1691 C1678 0.961 . S
H1692 C1678 0.961 . S
H1693 C1679 0.958 . S
H1694 C1679 0.961 . S
H1695 C1679 0.960 . S
C1696 C1697 1.391 . S
C1696 C1698 1.394 . S
C1696 H1712 0.931 . S
C1697 C1696 1.391 . S
C1697 C1701 1.376 . S
C1698 C1696 1.394 . S
C1698 C1699 1.369 . S
C1698 C1702 1.531 . S
C1699 C1698 1.369 . S
C1699 C1700 1.410 . S
C1699 C1707 1.503 . S
C1700 C1699 1.410 . S
C1700 C1701 1.392 . S
C1700 C1703 1.511 . S
C1701 C1697 1.376 . S
C1701 C1700 1.392 . S
C1701 H1713 0.929 . S
C1702 C1698 1.531 . S
C1702 H1714 0.960 . S
C1702 H1715 0.962 . S
C1702 H1716 0.960 . S
C1703 C1700 1.511 . S
C1703 H1717 0.961 . S
C1703 H1718 0.961 . S
C1703 H1719 0.961 . S
C1704 C1705 1.370 . S
C1704 C1706 1.363 . S
C1704 H1720 0.931 . S
C1705 C1704 1.370 . S
C1705 C1709 1.408 . S
C1706 C1704 1.363 . S
C1706 C1707 1.370 . S
C1706 C1710 1.524 . S
C1707 C1699 1.503 . S
C1707 C1706 1.370 . S
C1707 C1708 1.403 . S
C1708 C1707 1.403 . S
C1708 C1709 1.404 . S
C1708 C1711 1.539 . S
C1709 C1705 1.408 . S
C1709 C1708 1.404 . S
C1709 H1721 0.930 . S
C1710 C1706 1.524 . S
C1710 H1722 0.956 . S
C1710 H1723 0.961 . S
C1710 H1724 0.961 . S
C1711 C1708 1.539 . S
C1711 H1725 0.958 . S
C1711 H1726 0.961 . S
C1711 H1727 0.960 . S
H1712 C1696 0.931 . S
H1713 C1701 0.929 . S
H1714 C1702 0.960 . S
H1715 C1702 0.962 . S
H1716 C1702 0.960 . S
H1717 C1703 0.961 . S
H1718 C1703 0.961 . S
H1719 C1703 0.961 . S
H1720 C1704 0.931 . S
H1721 C1709 0.930 . S
H1722 C1710 0.956 . S
H1723 C1710 0.961 . S
H1724 C1710 0.961 . S
H1725 C1711 0.958 . S
H1726 C1711 0.961 . S
H1727 C1711 0.960 . S
C1728 C1729 1.391 . S
C1728 C1730 1.394 . S
C1728 H1744 0.931 . S
C1729 C1728 1.391 . S
C1729 C1733 1.376 . S
C1730 C1728 1.394 . S
C1730 C1731 1.369 . S
C1730 C1734 1.531 . S
C1731 C1730 1.369 . S
C1731 C1732 1.410 . S
C1731 C1739 1.503 . S
C1732 C1731 1.410 . S
C1732 C1733 1.392 . S
C1732 C1735 1.511 . S
C1733 C1729 1.376 . S
C1733 C1732 1.392 . S
C1733 H1745 0.929 . S
C1734 C1730 1.531 . S
C1734 H1746 0.960 . S
C1734 H1747 0.962 . S
C1734 H1748 0.960 . S
C1735 C1732 1.511 . S
C1735 H1749 0.961 . S
C1735 H1750 0.961 . S
C1735 H1751 0.961 . S
C1736 C1737 1.370 . S
C1736 C1738 1.363 . S
C1736 H1752 0.931 . S
C1737 C1736 1.370 . S
C1737 C1741 1.408 . S
C1738 C1736 1.363 . S
C1738 C1739 1.370 . S
C1738 C1742 1.524 . S
C1739 C1731 1.503 . S
C1739 C1738 1.370 . S
C1739 C1740 1.403 . S
C1740 C1739 1.403 . S
C1740 C1741 1.404 . S
C1740 C1743 1.539 . S
C1741 C1737 1.408 . S
C1741 C1740 1.404 . S
C1741 H1753 0.930 . S
C1742 C1738 1.524 . S
C1742 H1754 0.956 . S
C1742 H1755 0.961 . S
C1742 H1756 0.961 . S
C1743 C1740 1.539 . S
C1743 H1757 0.958 . S
C1743 H1758 0.961 . S
C1743 H1759 0.960 . S
H1744 C1728 0.931 . S
H1745 C1733 0.929 . S
H1746 C1734 0.960 . S
H1747 C1734 0.962 . S
H1748 C1734 0.960 . S
H1749 C1735 0.961 . S
H1750 C1735 0.961 . S
H1751 C1735 0.961 . S
H1752 C1736 0.931 . S
H1753 C1741 0.930 . S
H1754 C1742 0.956 . S
H1755 C1742 0.961 . S
H1756 C1742 0.961 . S
H1757 C1743 0.958 . S
H1758 C1743 0.961 . S
H1759 C1743 0.960 . S
C1760 C1761 1.391 . S
C1760 C1762 1.394 . S
C1760 H1776 0.931 . S
C1761 C1760 1.391 . S
C1761 C1765 1.376 . S
C1762 C1760 1.394 . S
C1762 C1763 1.369 . S
C1762 C1766 1.531 . S
C1763 C1762 1.369 . S
C1763 C1764 1.410 . S
C1763 C1771 1.503 . S
C1764 C1763 1.410 . S
C1764 C1765 1.392 . S
C1764 C1767 1.511 . S
C1765 C1761 1.376 . S
C1765 C1764 1.392 . S
C1765 H1777 0.929 . S
C1766 C1762 1.531 . S
C1766 H1778 0.960 . S
C1766 H1779 0.962 . S
C1766 H1780 0.960 . S
C1767 C1764 1.511 . S
C1767 H1781 0.961 . S
C1767 H1782 0.961 . S
C1767 H1783 0.961 . S
C1768 C1769 1.370 . S
C1768 C1770 1.363 . S
C1768 H1784 0.931 . S
C1769 C1768 1.370 . S
C1769 C1773 1.408 . S
C1770 C1768 1.363 . S
C1770 C1771 1.370 . S
C1770 C1774 1.524 . S
C1771 C1763 1.503 . S
C1771 C1770 1.370 . S
C1771 C1772 1.403 . S
C1772 C1771 1.403 . S
C1772 C1773 1.404 . S
C1772 C1775 1.539 . S
C1773 C1769 1.408 . S
C1773 C1772 1.404 . S
C1773 H1785 0.930 . S
C1774 C1770 1.524 . S
C1774 H1786 0.956 . S
C1774 H1787 0.961 . S
C1774 H1788 0.961 . S
C1775 C1772 1.539 . S
C1775 H1789 0.958 . S
C1775 H1790 0.961 . S
C1775 H1791 0.960 . S
H1776 C1760 0.931 . S
H1777 C1765 0.929 . S
H1778 C1766 0.960 . S
H1779 C1766 0.962 . S
H1780 C1766 0.960 . S
H1781 C1767 0.961 . S
H1782 C1767 0.961 . S
H1783 C1767 0.961 . S
H1784 C1768 0.931 . S
H1785 C1773 0.930 . S
H1786 C1774 0.956 . S
H1787 C1774 0.961 . S
H1788 C1774 0.961 . S
H1789 C1775 0.958 . S
H1790 C1775 0.961 . S
H1791 C1775 0.960 . S
C1792 C1793 1.391 . S
C1792 C1794 1.394 . S
C1792 H1808 0.931 . S
C1793 C1792 1.391 . S
C1793 C1797 1.376 . S
C1794 C1792 1.394 . S
C1794 C1795 1.369 . S
C1794 C1798 1.531 . S
C1795 C1794 1.369 . S
C1795 C1796 1.410 . S
C1795 C1803 1.503 . S
C1796 C1795 1.410 . S
C1796 C1797 1.392 . S
C1796 C1799 1.511 . S
C1797 C1793 1.376 . S
C1797 C1796 1.392 . S
C1797 H1809 0.929 . S
C1798 C1794 1.531 . S
C1798 H1810 0.960 . S
C1798 H1811 0.962 . S
C1798 H1812 0.960 . S
C1799 C1796 1.511 . S
C1799 H1813 0.961 . S
C1799 H1814 0.961 . S
C1799 H1815 0.961 . S
C1800 C1801 1.370 . S
C1800 C1802 1.363 . S
C1800 H1816 0.931 . S
C1801 C1800 1.370 . S
C1801 C1805 1.408 . S
C1802 C1800 1.363 . S
C1802 C1803 1.370 . S
C1802 C1806 1.524 . S
C1803 C1795 1.503 . S
C1803 C1802 1.370 . S
C1803 C1804 1.403 . S
C1804 C1803 1.403 . S
C1804 C1805 1.404 . S
C1804 C1807 1.539 . S
C1805 C1801 1.408 . S
C1805 C1804 1.404 . S
C1805 H1817 0.930 . S
C1806 C1802 1.524 . S
C1806 H1818 0.956 . S
C1806 H1819 0.961 . S
C1806 H1820 0.961 . S
C1807 C1804 1.539 . S
C1807 H1821 0.958 . S
C1807 H1822 0.961 . S
C1807 H1823 0.960 . S
H1808 C1792 0.931 . S
H1809 C1797 0.929 . S
H1810 C1798 0.960 . S
H1811 C1798 0.962 . S
H1812 C1798 0.960 . S
H1813 C1799 0.961 . S
H1814 C1799 0.961 . S
H1815 C1799 0.961 . S
H1816 C1800 0.931 . S
H1817 C1805 0.930 . S
H1818 C1806 0.956 . S
H1819 C1806 0.961 . S
H1820 C1806 0.961 . S
H1821 C1807 0.958 . S
H1822 C1807 0.961 . S
H1823 C1807 0.960 . S
C1824 C1825 1.391 . S
C1824 C1826 1.394 . S
C1824 H1840 0.931 . S
C1825 C1824 1.391 . S
C1825 C1829 1.376 . S
C1826 C1824 1.394 . S
C1826 C1827 1.369 . S
C1826 C1830 1.531 . S
C1827 C1826 1.369 . S
C1827 C1828 1.410 . S
C1827 C1835 1.503 . S
C1828 C1827 1.410 . S
C1828 C1829 1.392 . S
C1828 C1831 1.511 . S
C1829 C1825 1.376 . S
C1829 C1828 1.392 . S
C1829 H1841 0.929 . S
C1830 C1826 1.531 . S
C1830 H1842 0.960 . S
C1830 H1843 0.962 . S
C1830 H1844 0.960 . S
C1831 C1828 1.511 . S
C1831 H1845 0.961 . S
C1831 H1846 0.961 . S
C1831 H1847 0.961 . S
C1832 C1833 1.370 . S
C1832 C1834 1.363 . S
C1832 H1848 0.931 . S
C1833 C1832 1.370 . S
C1833 C1837 1.408 . S
C1834 C1832 1.363 . S
C1834 C1835 1.370 . S
C1834 C1838 1.524 . S
C1835 C1827 1.503 . S
C1835 C1834 1.370 . S
C1835 C1836 1.403 . S
C1836 C1835 1.403 . S
C1836 C1837 1.404 . S
C1836 C1839 1.539 . S
C1837 C1833 1.408 . S
C1837 C1836 1.404 . S
C1837 H1849 0.930 . S
C1838 C1834 1.524 . S
C1838 H1850 0.956 . S
C1838 H1851 0.961 . S
C1838 H1852 0.961 . S
C1839 C1836 1.539 . S
C1839 H1853 0.958 . S
C1839 H1854 0.961 . S
C1839 H1855 0.960 . S
H1840 C1824 0.931 . S
H1841 C1829 0.929 . S
H1842 C1830 0.960 . S
H1843 C1830 0.962 . S
H1844 C1830 0.960 . S
H1845 C1831 0.961 . S
H1846 C1831 0.961 . S
H1847 C1831 0.961 . S
H1848 C1832 0.931 . S
H1849 C1837 0.930 . S
H1850 C1838 0.956 . S
H1851 C1838 0.961 . S
H1852 C1838 0.961 . S
H1853 C1839 0.958 . S
H1854 C1839 0.961 . S
H1855 C1839 0.960 . S
C1856 C1857 1.391 . S
C1856 C1858 1.394 . S
C1856 H1872 0.931 . S
C1857 C1856 1.391 . S
C1857 C1861 1.376 . S
C1858 C1856 1.394 . S
C1858 C1859 1.369 . S
C1858 C1862 1.531 . S
C1859 C1858 1.369 . S
C1859 C1860 1.410 . S
C1859 C1867 1.503 . S
C1860 C1859 1.410 . S
C1860 C1861 1.392 . S
C1860 C1863 1.511 . S
C1861 C1857 1.376 . S
C1861 C1860 1.392 . S
C1861 H1873 0.929 . S
C1862 C1858 1.531 . S
C1862 H1874 0.960 . S
C1862 H1875 0.962 . S
C1862 H1876 0.960 . S
C1863 C1860 1.511 . S
C1863 H1877 0.961 . S
C1863 H1878 0.961 . S
C1863 H1879 0.961 . S
C1864 C1865 1.370 . S
C1864 C1866 1.363 . S
C1864 H1880 0.931 . S
C1865 C1864 1.370 . S
C1865 C1869 1.408 . S
C1866 C1864 1.363 . S
C1866 C1867 1.370 . S
C1866 C1870 1.524 . S
C1867 C1859 1.503 . S
C1867 C1866 1.370 . S
C1867 C1868 1.403 . S
C1868 C1867 1.403 . S
C1868 C1869 1.404 . S
C1868 C1871 1.539 . S
C1869 C1865 1.408 . S
C1869 C1868 1.404 . S
C1869 H1881 0.930 . S
C1870 C1866 1.524 . S
C1870 H1882 0.956 . S
C1870 H1883 0.961 . S
C1870 H1884 0.961 . S
C1871 C1868 1.539 . S
C1871 H1885 0.958 . S
C1871 H1886 0.961 . S
C1871 H1887 0.960 . S
H1872 C1856 0.931 . S
H1873 C1861 0.929 . S
H1874 C1862 0.960 . S
H1875 C1862 0.962 . S
H1876 C1862 0.960 . S
H1877 C1863 0.961 . S
H1878 C1863 0.961 . S
H1879 C1863 0.961 . S
H1880 C1864 0.931 . S
H1881 C1869 0.930 . S
H1882 C1870 0.956 . S
H1883 C1870 0.961 . S
H1884 C1870 0.961 . S
H1885 C1871 0.958 . S
H1886 C1871 0.961 . S
H1887 C1871 0.960 . S
C1888 C1889 1.391 . S
C1888 C1890 1.394 . S
C1888 H1904 0.931 . S
C1889 C1888 1.391 . S
C1889 C1893 1.376 . S
C1890 C1888 1.394 . S
C1890 C1891 1.369 . S
C1890 C1894 1.531 . S
C1891 C1890 1.369 . S
C1891 C1892 1.410 . S
C1891 C1899 1.503 . S
C1892 C1891 1.410 . S
C1892 C1893 1.392 . S
C1892 C1895 1.511 . S
C1893 C1889 1.376 . S
C1893 C1892 1.392 . S
C1893 H1905 0.929 . S
C1894 C1890 1.531 . S
C1894 H1906 0.960 . S
C1894 H1907 0.962 . S
C1894 H1908 0.960 . S
C1895 C1892 1.511 . S
C1895 H1909 0.961 . S
C1895 H1910 0.961 . S
C1895 H1911 0.961 . S
C1896 C1897 1.370 . S
C1896 C1898 1.363 . S
C1896 H1912 0.931 . S
C1897 C1896 1.370 . S
C1897 C1901 1.408 . S
C1898 C1896 1.363 . S
C1898 C1899 1.370 . S
C1898 C1902 1.524 . S
C1899 C1891 1.503 . S
C1899 C1898 1.370 . S
C1899 C1900 1.403 . S
C1900 C1899 1.403 . S
C1900 C1901 1.404 . S
C1900 C1903 1.539 . S
C1901 C1897 1.408 . S
C1901 C1900 1.404 . S
C1901 H1913 0.930 . S
C1902 C1898 1.524 . S
C1902 H1914 0.956 . S
C1902 H1915 0.961 . S
C1902 H1916 0.961 . S
C1903 C1900 1.539 . S
C1903 H1917 0.958 . S
C1903 H1918 0.961 . S
C1903 H1919 0.960 . S
H1904 C1888 0.931 . S
H1905 C1893 0.929 . S
H1906 C1894 0.960 . S
H1907 C1894 0.962 . S
H1908 C1894 0.960 . S
H1909 C1895 0.961 . S
H1910 C1895 0.961 . S
H1911 C1895 0.961 . S
H1912 C1896 0.931 . S
H1913 C1901 0.930 . S
H1914 C1902 0.956 . S
H1915 C1902 0.961 . S
H1916 C1902 0.961 . S
H1917 C1903 0.958 . S
H1918 C1903 0.961 . S
H1919 C1903 0.960 . S
C1920 C1921 1.391 . S
C1920 C1922 1.394 . S
C1920 H1936 0.931 . S
C1921 C1920 1.391 . S
C1921 C1925 1.376 . S
C1922 C1920 1.394 . S
C1922 C1923 1.369 . S
C1922 C1926 1.531 . S
C1923 C1922 1.369 . S
C1923 C1924 1.410 . S
C1923 C1931 1.503 . S
C1924 C1923 1.410 . S
C1924 C1925 1.392 . S
C1924 C1927 1.511 . S
C1925 C1921 1.376 . S
C1925 C1924 1.392 . S
C1925 H1937 0.929 . S
C1926 C1922 1.531 . S
C1926 H1938 0.960 . S
C1926 H1939 0.962 . S
C1926 H1940 0.960 . S
C1927 C1924 1.511 . S
C1927 H1941 0.961 . S
C1927 H1942 0.961 . S
C1927 H1943 0.961 . S
C1928 C1929 1.370 . S
C1928 C1930 1.363 . S
C1928 H1944 0.931 . S
C1929 C1928 1.370 . S
C1929 C1933 1.408 . S
C1930 C1928 1.363 . S
C1930 C1931 1.370 . S
C1930 C1934 1.524 . S
C1931 C1923 1.503 . S
C1931 C1930 1.370 . S
C1931 C1932 1.403 . S
C1932 C1931 1.403 . S
C1932 C1933 1.404 . S
C1932 C1935 1.539 . S
C1933 C1929 1.408 . S
C1933 C1932 1.404 . S
C1933 H1945 0.930 . S
C1934 C1930 1.524 . S
C1934 H1946 0.956 . S
C1934 H1947 0.961 . S
C1934 H1948 0.961 . S
C1935 C1932 1.539 . S
C1935 H1949 0.958 . S
C1935 H1950 0.961 . S
C1935 H1951 0.960 . S
H1936 C1920 0.931 . S
H1937 C1925 0.929 . S
H1938 C1926 0.960 . S
H1939 C1926 0.962 . S
H1940 C1926 0.960 . S
H1941 C1927 0.961 . S
H1942 C1927 0.961 . S
H1943 C1927 0.961 . S
H1944 C1928 0.931 . S
H1945 C1933 0.930 . S
H1946 C1934 0.956 . S
H1947 C1934 0.961 . S
H1948 C1934 0.961 . S
H1949 C1935 0.958 . S
H1950 C1935 0.961 . S
H1951 C1935 0.960 . S
C1952 C1953 1.391 . S
C1952 C1954 1.394 . S
C1952 H1968 0.931 . S
C1953 C1952 1.391 . S
C1953 C1957 1.376 . S
C1954 C1952 1.394 . S
C1954 C1955 1.369 . S
C1954 C1958 1.531 . S
C1955 C1954 1.369 . S
C1955 C1956 1.410 . S
C1955 C1963 1.503 . S
C1956 C1955 1.410 . S
C1956 C1957 1.392 . S
C1956 C1959 1.511 . S
C1957 C1953 1.376 . S
C1957 C1956 1.392 . S
C1957 H1969 0.929 . S
C1958 C1954 1.531 . S
C1958 H1970 0.960 . S
C1958 H1971 0.962 . S
C1958 H1972 0.960 . S
C1959 C1956 1.511 . S
C1959 H1973 0.961 . S
C1959 H1974 0.961 . S
C1959 H1975 0.961 . S
C1960 C1961 1.370 . S
C1960 C1962 1.363 . S
C1960 H1976 0.931 . S
C1961 C1960 1.370 . S
C1961 C1965 1.408 . S
C1962 C1960 1.363 . S
C1962 C1963 1.370 . S
C1962 C1966 1.524 . S
C1963 C1955 1.503 . S
C1963 C1962 1.370 . S
C1963 C1964 1.403 . S
C1964 C1963 1.403 . S
C1964 C1965 1.404 . S
C1964 C1967 1.539 . S
C1965 C1961 1.408 . S
C1965 C1964 1.404 . S
C1965 H1977 0.930 . S
C1966 C1962 1.524 . S
C1966 H1978 0.956 . S
C1966 H1979 0.961 . S
C1966 H1980 0.961 . S
C1967 C1964 1.539 . S
C1967 H1981 0.958 . S
C1967 H1982 0.961 . S
C1967 H1983 0.960 . S
H1968 C1952 0.931 . S
H1969 C1957 0.929 . S
H1970 C1958 0.960 . S
H1971 C1958 0.962 . S
H1972 C1958 0.960 . S
H1973 C1959 0.961 . S
H1974 C1959 0.961 . S
H1975 C1959 0.961 . S
H1976 C1960 0.931 . S
H1977 C1965 0.930 . S
H1978 C1966 0.956 . S
H1979 C1966 0.961 . S
H1980 C1966 0.961 . S
H1981 C1967 0.958 . S
H1982 C1967 0.961 . S
H1983 C1967 0.960 . S
C1984 C1985 1.391 . S
C1984 C1986 1.394 . S
C1984 H2000 0.931 . S
C1985 C1984 1.391 . S
C1985 C1989 1.376 . S
C1986 C1984 1.394 . S
C1986 C1987 1.369 . S
C1986 C1990 1.531 . S
C1987 C1986 1.369 . S
C1987 C1988 1.410 . S
C1987 C1995 1.503 . S
C1988 C1987 1.410 . S
C1988 C1989 1.392 . S
C1988 C1991 1.511 . S
C1989 C1985 1.376 . S
C1989 C1988 1.392 . S
C1989 H2001 0.929 . S
C1990 C1986 1.531 . S
C1990 H2002 0.960 . S
C1990 H2003 0.962 . S
C1990 H2004 0.960 . S
C1991 C1988 1.511 . S
C1991 H2005 0.961 . S
C1991 H2006 0.961 . S
C1991 H2007 0.961 . S
C1992 C1993 1.370 . S
C1992 C1994 1.363 . S
C1992 H2008 0.931 . S
C1993 C1992 1.370 . S
C1993 C1997 1.408 . S
C1994 C1992 1.363 . S
C1994 C1995 1.370 . S
C1994 C1998 1.524 . S
C1995 C1987 1.503 . S
C1995 C1994 1.370 . S
C1995 C1996 1.403 . S
C1996 C1995 1.403 . S
C1996 C1997 1.404 . S
C1996 C1999 1.539 . S
C1997 C1993 1.408 . S
C1997 C1996 1.404 . S
C1997 H2009 0.930 . S
C1998 C1994 1.524 . S
C1998 H2010 0.956 . S
C1998 H2011 0.961 . S
C1998 H2012 0.961 . S
C1999 C1996 1.539 . S
C1999 H2013 0.958 . S
C1999 H2014 0.961 . S
C1999 H2015 0.960 . S
H2000 C1984 0.931 . S
H2001 C1989 0.929 . S
H2002 C1990 0.960 . S
H2003 C1990 0.962 . S
H2004 C1990 0.960 . S
H2005 C1991 0.961 . S
H2006 C1991 0.961 . S
H2007 C1991 0.961 . S
H2008 C1992 0.931 . S
H2009 C1997 0.930 . S
H2010 C1998 0.956 . S
H2011 C1998 0.961 . S
H2012 C1998 0.961 . S
H2013 C1999 0.958 . S
H2014 C1999 0.961 . S
H2015 C1999 0.960 . S
C2016 C2017 1.391 . S
C2016 C2018 1.394 . S
C2016 H2032 0.931 . S
C2017 C2016 1.391 . S
C2017 C2021 1.376 . S
C2018 C2016 1.394 . S
C2018 C2019 1.369 . S
C2018 C2022 1.531 . S
C2019 C2018 1.369 . S
C2019 C2020 1.410 . S
C2019 C2027 1.503 . S
C2020 C2019 1.410 . S
C2020 C2021 1.392 . S
C2020 C2023 1.511 . S
C2021 C2017 1.376 . S
C2021 C2020 1.392 . S
C2021 H2033 0.929 . S
C2022 C2018 1.531 . S
C2022 H2034 0.960 . S
C2022 H2035 0.962 . S
C2022 H2036 0.960 . S
C2023 C2020 1.511 . S
C2023 H2037 0.961 . S
C2023 H2038 0.961 . S
C2023 H2039 0.961 . S
C2024 C2025 1.370 . S
C2024 C2026 1.363 . S
C2024 H2040 0.931 . S
C2025 C2024 1.370 . S
C2025 C2029 1.408 . S
C2026 C2024 1.363 . S
C2026 C2027 1.370 . S
C2026 C2030 1.524 . S
C2027 C2019 1.503 . S
C2027 C2026 1.370 . S
C2027 C2028 1.403 . S
C2028 C2027 1.403 . S
C2028 C2029 1.404 . S
C2028 C2031 1.539 . S
C2029 C2025 1.408 . S
C2029 C2028 1.404 . S
C2029 H2041 0.930 . S
C2030 C2026 1.524 . S
C2030 H2042 0.956 . S
C2030 H2043 0.961 . S
C2030 H2044 0.961 . S
C2031 C2028 1.539 . S
C2031 H2045 0.958 . S
C2031 H2046 0.961 . S
C2031 H2047 0.960 . S
H2032 C2016 0.931 . S
H2033 C2021 0.929 . S
H2034 C2022 0.960 . S
H2035 C2022 0.962 . S
H2036 C2022 0.960 . S
H2037 C2023 0.961 . S
H2038 C2023 0.961 . S
H2039 C2023 0.961 . S
H2040 C2024 0.931 . S
H2041 C2029 0.930 . S
H2042 C2030 0.956 . S
H2043 C2030 0.961 . S
H2044 C2030 0.961 . S
H2045 C2031 0.958 . S
H2046 C2031 0.961 . S
H2047 C2031 0.960 . S
C2048 C2049 1.391 . S
C2048 C2050 1.394 . S
C2048 H2064 0.931 . S
C2049 C2048 1.391 . S
C2049 C2053 1.376 . S
C2050 C2048 1.394 . S
C2050 C2051 1.369 . S
C2050 C2054 1.531 . S
C2051 C2050 1.369 . S
C2051 C2052 1.410 . S
C2051 C2059 1.503 . S
C2052 C2051 1.410 . S
C2052 C2053 1.392 . S
C2052 C2055 1.511 . S
C2053 C2049 1.376 . S
C2053 C2052 1.392 . S
C2053 H2065 0.929 . S
C2054 C2050 1.531 . S
C2054 H2066 0.960 . S
C2054 H2067 0.962 . S
C2054 H2068 0.960 . S
C2055 C2052 1.511 . S
C2055 H2069 0.961 . S
C2055 H2070 0.961 . S
C2055 H2071 0.961 . S
C2056 C2057 1.370 . S
C2056 C2058 1.363 . S
C2056 H2072 0.931 . S
C2057 C2056 1.370 . S
C2057 C2061 1.408 . S
C2058 C2056 1.363 . S
C2058 C2059 1.370 . S
C2058 C2062 1.524 . S
C2059 C2051 1.503 . S
C2059 C2058 1.370 . S
C2059 C2060 1.403 . S
C2060 C2059 1.403 . S
C2060 C2061 1.404 . S
C2060 C2063 1.539 . S
C2061 C2057 1.408 . S
C2061 C2060 1.404 . S
C2061 H2073 0.930 . S
C2062 C2058 1.524 . S
C2062 H2074 0.956 . S
C2062 H2075 0.961 . S
C2062 H2076 0.961 . S
C2063 C2060 1.539 . S
C2063 H2077 0.958 . S
C2063 H2078 0.961 . S
C2063 H2079 0.960 . S
H2064 C2048 0.931 . S
H2065 C2053 0.929 . S
H2066 C2054 0.960 . S
H2067 C2054 0.962 . S
H2068 C2054 0.960 . S
H2069 C2055 0.961 . S
H2070 C2055 0.961 . S
H2071 C2055 0.961 . S
H2072 C2056 0.931 . S
H2073 C2061 0.930 . S
H2074 C2062 0.956 . S
H2075 C2062 0.961 . S
H2076 C2062 0.961 . S
H2077 C2063 0.958 . S
H2078 C2063 0.961 . S
H2079 C2063 0.960 . S
C2080 C2081 1.391 . S
C2080 C2082 1.394 . S
C2080 H2096 0.931 . S
C2081 C2080 1.391 . S
C2081 C2085 1.376 . S
C2082 C2080 1.394 . S
C2082 C2083 1.369 . S
C2082 C2086 1.531 . S
C2083 C2082 1.369 . S
C2083 C2084 1.410 . S
C2083 C2091 1.503 . S
C2084 C2083 1.410 . S
C2084 C2085 1.392 . S
C2084 C2087 1.511 . S
C2085 C2081 1.376 . S
C2085 C2084 1.392 . S
C2085 H2097 0.929 . S
C2086 C2082 1.531 . S
C2086 H2098 0.960 . S
C2086 H2099 0.962 . S
C2086 H2100 0.960 . S
C2087 C2084 1.511 . S
C2087 H2101 0.961 . S
C2087 H2102 0.961 . S
C2087 H2103 0.961 . S
C2088 C2089 1.370 . S
C2088 C2090 1.363 . S
C2088 H2104 0.931 . S
C2089 C2088 1.370 . S
C2089 C2093 1.408 . S
C2090 C2088 1.363 . S
C2090 C2091 1.370 . S
C2090 C2094 1.524 . S
C2091 C2083 1.503 . S
C2091 C2090 1.370 . S
C2091 C2092 1.403 . S
C2092 C2091 1.403 . S
C2092 C2093 1.404 . S
C2092 C2095 1.539 . S
C2093 C2089 1.408 . S
C2093 C2092 1.404 . S
C2093 H2105 0.930 . S
C2094 C2090 1.524 . S
C2094 H2106 0.956 . S
C2094 H2107 0.961 . S
C2094 H2108 0.961 . S
C2095 C2092 1.539 . S
C2095 H2109 0.958 . S
C2095 H2110 0.961 . S
C2095 H2111 0.960 . S
H2096 C2080 0.931 . S
H2097 C2085 0.929 . S
H2098 C2086 0.960 . S
H2099 C2086 0.962 . S
H2100 C2086 0.960 . S
H2101 C2087 0.961 . S
H2102 C2087 0.961 . S
H2103 C2087 0.961 . S
H2104 C2088 0.931 . S
H2105 C2093 0.930 . S
H2106 C2094 0.956 . S
H2107 C2094 0.961 . S
H2108 C2094 0.961 . S
H2109 C2095 0.958 . S
H2110 C2095 0.961 . S
H2111 C2095 0.960 . S
C2112 C2113 1.391 . S
C2112 C2114 1.394 . S
C2112 H2128 0.931 . S
C2113 C2112 1.391 . S
C2113 C2117 1.376 . S
C2114 C2112 1.394 . S
C2114 C2115 1.369 . S
C2114 C2118 1.531 . S
C2115 C2114 1.369 . S
C2115 C2116 1.410 . S
C2115 C2123 1.503 . S
C2116 C2115 1.410 . S
C2116 C2117 1.392 . S
C2116 C2119 1.511 . S
C2117 C2113 1.376 . S
C2117 C2116 1.392 . S
C2117 H2129 0.929 . S
C2118 C2114 1.531 . S
C2118 H2130 0.960 . S
C2118 H2131 0.962 . S
C2118 H2132 0.960 . S
C2119 C2116 1.511 . S
C2119 H2133 0.961 . S
C2119 H2134 0.961 . S
C2119 H2135 0.961 . S
C2120 C2121 1.370 . S
C2120 C2122 1.363 . S
C2120 H2136 0.931 . S
C2121 C2120 1.370 . S
C2121 C2125 1.408 . S
C2122 C2120 1.363 . S
C2122 C2123 1.370 . S
C2122 C2126 1.524 . S
C2123 C2115 1.503 . S
C2123 C2122 1.370 . S
C2123 C2124 1.403 . S
C2124 C2123 1.403 . S
C2124 C2125 1.404 . S
C2124 C2127 1.539 . S
C2125 C2121 1.408 . S
C2125 C2124 1.404 . S
C2125 H2137 0.930 . S
C2126 C2122 1.524 . S
C2126 H2138 0.956 . S
C2126 H2139 0.961 . S
C2126 H2140 0.961 . S
C2127 C2124 1.539 . S
C2127 H2141 0.958 . S
C2127 H2142 0.961 . S
C2127 H2143 0.960 . S
H2128 C2112 0.931 . S
H2129 C2117 0.929 . S
H2130 C2118 0.960 . S
H2131 C2118 0.962 . S
H2132 C2118 0.960 . S
H2133 C2119 0.961 . S
H2134 C2119 0.961 . S
H2135 C2119 0.961 . S
H2136 C2120 0.931 . S
H2137 C2125 0.930 . S
H2138 C2126 0.956 . S
H2139 C2126 0.961 . S
H2140 C2126 0.961 . S
H2141 C2127 0.958 . S
H2142 C2127 0.961 . S
H2143 C2127 0.960 . S
C2144 C2145 1.391 . S
C2144 C2146 1.394 . S
C2144 H2160 0.931 . S
C2145 C2144 1.391 . S
C2145 C2149 1.376 . S
C2146 C2144 1.394 . S
C2146 C2147 1.369 . S
C2146 C2150 1.531 . S
C2147 C2146 1.369 . S
C2147 C2148 1.410 . S
C2147 C2155 1.503 . S
C2148 C2147 1.410 . S
C2148 C2149 1.392 . S
C2148 C2151 1.511 . S
C2149 C2145 1.376 . S
C2149 C2148 1.392 . S
C2149 H2161 0.929 . S
C2150 C2146 1.531 . S
C2150 H2162 0.960 . S
C2150 H2163 0.962 . S
C2150 H2164 0.960 . S
C2151 C2148 1.511 . S
C2151 H2165 0.961 . S
C2151 H2166 0.961 . S
C2151 H2167 0.961 . S
C2152 C2153 1.370 . S
C2152 C2154 1.363 . S
C2152 H2168 0.931 . S
C2153 C2152 1.370 . S
C2153 C2157 1.408 . S
C2154 C2152 1.363 . S
C2154 C2155 1.370 . S
C2154 C2158 1.524 . S
C2155 C2147 1.503 . S
C2155 C2154 1.370 . S
C2155 C2156 1.403 . S
C2156 C2155 1.403 . S
C2156 C2157 1.404 . S
C2156 C2159 1.539 . S
C2157 C2153 1.408 . S
C2157 C2156 1.404 . S
C2157 H2169 0.930 . S
C2158 C2154 1.524 . S
C2158 H2170 0.956 . S
C2158 H2171 0.961 . S
C2158 H2172 0.961 . S
C2159 C2156 1.539 . S
C2159 H2173 0.958 . S
C2159 H2174 0.961 . S
C2159 H2175 0.960 . S
H2160 C2144 0.931 . S
H2161 C2149 0.929 . S
H2162 C2150 0.960 . S
H2163 C2150 0.962 . S
H2164 C2150 0.960 . S
H2165 C2151 0.961 . S
H2166 C2151 0.961 . S
H2167 C2151 0.961 . S
H2168 C2152 0.931 . S
H2169 C2157 0.930 . S
H2170 C2158 0.956 . S
H2171 C2158 0.961 . S
H2172 C2158 0.961 . S
H2173 C2159 0.958 . S
H2174 C2159 0.961 . S
H2175 C2159 0.960 . S
C2176 C2177 1.391 . S
C2176 C2178 1.394 . S
C2176 H2192 0.931 . S
C2177 C2176 1.391 . S
C2177 C2181 1.376 . S
C2178 C2176 1.394 . S
C2178 C2179 1.369 . S
C2178 C2182 1.531 . S
C2179 C2178 1.369 . S
C2179 C2180 1.410 . S
C2179 C2187 1.503 . S
C2180 C2179 1.410 . S
C2180 C2181 1.392 . S
C2180 C2183 1.511 . S
C2181 C2177 1.376 . S
C2181 C2180 1.392 . S
C2181 H2193 0.929 . S
C2182 C2178 1.531 . S
C2182 H2194 0.960 . S
C2182 H2195 0.962 . S
C2182 H2196 0.960 . S
C2183 C2180 1.511 . S
C2183 H2197 0.961 . S
C2183 H2198 0.961 . S
C2183 H2199 0.961 . S
C2184 C2185 1.370 . S
C2184 C2186 1.363 . S
C2184 H2200 0.931 . S
C2185 C2184 1.370 . S
C2185 C2189 1.408 . S
C2186 C2184 1.363 . S
C2186 C2187 1.370 . S
C2186 C2190 1.524 . S
C2187 C2179 1.503 . S
C2187 C2186 1.370 . S
C2187 C2188 1.403 . S
C2188 C2187 1.403 . S
C2188 C2189 1.404 . S
C2188 C2191 1.539 . S
C2189 C2185 1.408 . S
C2189 C2188 1.404 . S
C2189 H2201 0.930 . S
C2190 C2186 1.524 . S
C2190 H2202 0.956 . S
C2190 H2203 0.961 . S
C2190 H2204 0.961 . S
C2191 C2188 1.539 . S
C2191 H2205 0.958 . S
C2191 H2206 0.961 . S
C2191 H2207 0.960 . S
H2192 C2176 0.931 . S
H2193 C2181 0.929 . S
H2194 C2182 0.960 . S
H2195 C2182 0.962 . S
H2196 C2182 0.960 . S
H2197 C2183 0.961 . S
H2198 C2183 0.961 . S
H2199 C2183 0.961 . S
H2200 C2184 0.931 . S
H2201 C2189 0.930 . S
H2202 C2190 0.956 . S
H2203 C2190 0.961 . S
H2204 C2190 0.961 . S
H2205 C2191 0.958 . S
H2206 C2191 0.961 . S
H2207 C2191 0.960 . S
C2208 C2209 1.391 . S
C2208 C2210 1.394 . S
C2208 H2224 0.931 . S
C2209 C2208 1.391 . S
C2209 C2213 1.376 . S
C2210 C2208 1.394 . S
C2210 C2211 1.369 . S
C2210 C2214 1.531 . S
C2211 C2210 1.369 . S
C2211 C2212 1.410 . S
C2211 C2219 1.503 . S
C2212 C2211 1.410 . S
C2212 C2213 1.392 . S
C2212 C2215 1.511 . S
C2213 C2209 1.376 . S
C2213 C2212 1.392 . S
C2213 H2225 0.929 . S
C2214 C2210 1.531 . S
C2214 H2226 0.960 . S
C2214 H2227 0.962 . S
C2214 H2228 0.960 . S
C2215 C2212 1.511 . S
C2215 H2229 0.961 . S
C2215 H2230 0.961 . S
C2215 H2231 0.961 . S
C2216 C2217 1.370 . S
C2216 C2218 1.363 . S
C2216 H2232 0.931 . S
C2217 C2216 1.370 . S
C2217 C2221 1.408 . S
C2218 C2216 1.363 . S
C2218 C2219 1.370 . S
C2218 C2222 1.524 . S
C2219 C2211 1.503 . S
C2219 C2218 1.370 . S
C2219 C2220 1.403 . S
C2220 C2219 1.403 . S
C2220 C2221 1.404 . S
C2220 C2223 1.539 . S
C2221 C2217 1.408 . S
C2221 C2220 1.404 . S
C2221 H2233 0.930 . S
C2222 C2218 1.524 . S
C2222 H2234 0.956 . S
C2222 H2235 0.961 . S
C2222 H2236 0.961 . S
C2223 C2220 1.539 . S
C2223 H2237 0.958 . S
C2223 H2238 0.961 . S
C2223 H2239 0.960 . S
H2224 C2208 0.931 . S
H2225 C2213 0.929 . S
H2226 C2214 0.960 . S
H2227 C2214 0.962 . S
H2228 C2214 0.960 . S
H2229 C2215 0.961 . S
H2230 C2215 0.961 . S
H2231 C2215 0.961 . S
H2232 C2216 0.931 . S
H2233 C2221 0.930 . S
H2234 C2222 0.956 . S
H2235 C2222 0.961 . S
H2236 C2222 0.961 . S
H2237 C2223 0.958 . S
H2238 C2223 0.961 . S
H2239 C2223 0.960 . S
C2240 C2241 1.391 . S
C2240 C2242 1.394 . S
C2240 H2256 0.931 . S
C2241 C2240 1.391 . S
C2241 C2245 1.376 . S
C2242 C2240 1.394 . S
C2242 C2243 1.369 . S
C2242 C2246 1.531 . S
C2243 C2242 1.369 . S
C2243 C2244 1.410 . S
C2243 C2251 1.503 . S
C2244 C2243 1.410 . S
C2244 C2245 1.392 . S
C2244 C2247 1.511 . S
C2245 C2241 1.376 . S
C2245 C2244 1.392 . S
C2245 H2257 0.929 . S
C2246 C2242 1.531 . S
C2246 H2258 0.960 . S
C2246 H2259 0.962 . S
C2246 H2260 0.960 . S
C2247 C2244 1.511 . S
C2247 H2261 0.961 . S
C2247 H2262 0.961 . S
C2247 H2263 0.961 . S
C2248 C2249 1.370 . S
C2248 C2250 1.363 . S
C2248 H2264 0.931 . S
C2249 C2248 1.370 . S
C2249 C2253 1.408 . S
C2250 C2248 1.363 . S
C2250 C2251 1.370 . S
C2250 C2254 1.524 . S
C2251 C2243 1.503 . S
C2251 C2250 1.370 . S
C2251 C2252 1.403 . S
C2252 C2251 1.403 . S
C2252 C2253 1.404 . S
C2252 C2255 1.539 . S
C2253 C2249 1.408 . S
C2253 C2252 1.404 . S
C2253 H2265 0.930 . S
C2254 C2250 1.524 . S
C2254 H2266 0.956 . S
C2254 H2267 0.961 . S
C2254 H2268 0.961 . S
C2255 C2252 1.539 . S
C2255 H2269 0.958 . S
C2255 H2270 0.961 . S
C2255 H2271 0.960 . S
H2256 C2240 0.931 . S
H2257 C2245 0.929 . S
H2258 C2246 0.960 . S
H2259 C2246 0.962 . S
H2260 C2246 0.960 . S
H2261 C2247 0.961 . S
H2262 C2247 0.961 . S
H2263 C2247 0.961 . S
H2264 C2248 0.931 . S
H2265 C2253 0.930 . S
H2266 C2254 0.956 . S
H2267 C2254 0.961 . S
H2268 C2254 0.961 . S
H2269 C2255 0.958 . S
H2270 C2255 0.961 . S
H2271 C2255 0.960 . S
C2272 C2273 1.391 . S
C2272 C2274 1.394 . S
C2272 H2288 0.931 . S
C2273 C2272 1.391 . S
C2273 C2277 1.376 . S
C2274 C2272 1.394 . S
C2274 C2275 1.369 . S
C2274 C2278 1.531 . S
C2275 C2274 1.369 . S
C2275 C2276 1.410 . S
C2275 C2283 1.503 . S
C2276 C2275 1.410 . S
C2276 C2277 1.392 . S
C2276 C2279 1.511 . S
C2277 C2273 1.376 . S
C2277 C2276 1.392 . S
C2277 H2289 0.929 . S
C2278 C2274 1.531 . S
C2278 H2290 0.960 . S
C2278 H2291 0.962 . S
C2278 H2292 0.960 . S
C2279 C2276 1.511 . S
C2279 H2293 0.961 . S
C2279 H2294 0.961 . S
C2279 H2295 0.961 . S
C2280 C2281 1.370 . S
C2280 C2282 1.363 . S
C2280 H2296 0.931 . S
C2281 C2280 1.370 . S
C2281 C2285 1.408 . S
C2282 C2280 1.363 . S
C2282 C2283 1.370 . S
C2282 C2286 1.524 . S
C2283 C2275 1.503 . S
C2283 C2282 1.370 . S
C2283 C2284 1.403 . S
C2284 C2283 1.403 . S
C2284 C2285 1.404 . S
C2284 C2287 1.539 . S
C2285 C2281 1.408 . S
C2285 C2284 1.404 . S
C2285 H2297 0.930 . S
C2286 C2282 1.524 . S
C2286 H2298 0.956 . S
C2286 H2299 0.961 . S
C2286 H2300 0.961 . S
C2287 C2284 1.539 . S
C2287 H2301 0.958 . S
C2287 H2302 0.961 . S
C2287 H2303 0.960 . S
H2288 C2272 0.931 . S
H2289 C2277 0.929 . S
H2290 C2278 0.960 . S
H2291 C2278 0.962 . S
H2292 C2278 0.960 . S
H2293 C2279 0.961 . S
H2294 C2279 0.961 . S
H2295 C2279 0.961 . S
H2296 C2280 0.931 . S
H2297 C2285 0.930 . S
H2298 C2286 0.956 . S
H2299 C2286 0.961 . S
H2300 C2286 0.961 . S
H2301 C2287 0.958 . S
H2302 C2287 0.961 . S
H2303 C2287 0.960 . S
C2304 C2305 1.391 . S
C2304 C2306 1.394 . S
C2304 H2320 0.931 . S
C2305 C2304 1.391 . S
C2305 C2309 1.376 . S
C2306 C2304 1.394 . S
C2306 C2307 1.369 . S
C2306 C2310 1.531 . S
C2307 C2306 1.369 . S
C2307 C2308 1.410 . S
C2307 C2315 1.503 . S
C2308 C2307 1.410 . S
C2308 C2309 1.392 . S
C2308 C2311 1.511 . S
C2309 C2305 1.376 . S
C2309 C2308 1.392 . S
C2309 H2321 0.929 . S
C2310 C2306 1.531 . S
C2310 H2322 0.960 . S
C2310 H2323 0.962 . S
C2310 H2324 0.960 . S
C2311 C2308 1.511 . S
C2311 H2325 0.961 . S
C2311 H2326 0.961 . S
C2311 H2327 0.961 . S
C2312 C2313 1.370 . S
C2312 C2314 1.363 . S
C2312 H2328 0.931 . S
C2313 C2312 1.370 . S
C2313 C2317 1.408 . S
C2314 C2312 1.363 . S
C2314 C2315 1.370 . S
C2314 C2318 1.524 . S
C2315 C2307 1.503 . S
C2315 C2314 1.370 . S
C2315 C2316 1.403 . S
C2316 C2315 1.403 . S
C2316 C2317 1.404 . S
C2316 C2319 1.539 . S
C2317 C2313 1.408 . S
C2317 C2316 1.404 . S
C2317 H2329 0.930 . S
C2318 C2314 1.524 . S
C2318 H2330 0.956 . S
C2318 H2331 0.961 . S
C2318 H2332 0.961 . S
C2319 C2316 1.539 . S
C2319 H2333 0.958 . S
C2319 H2334 0.961 . S
C2319 H2335 0.960 . S
H2320 C2304 0.931 . S
H2321 C2309 0.929 . S
H2322 C2310 0.960 . S
H2323 C2310 0.962 . S
H2324 C2310 0.960 . S
H2325 C2311 0.961 . S
H2326 C2311 0.961 . S
H2327 C2311 0.961 . S
H2328 C2312 0.931 . S
H2329 C2317 0.930 . S
H2330 C2318 0.956 . S
H2331 C2318 0.961 . S
H2332 C2318 0.961 . S
H2333 C2319 0.958 . S
H2334 C2319 0.961 . S
H2335 C2319 0.960 . S
C2336 C2337 1.391 . S
C2336 C2338 1.394 . S
C2336 H2352 0.931 . S
C2337 C2336 1.391 . S
C2337 C2341 1.376 . S
C2338 C2336 1.394 . S
C2338 C2339 1.369 . S
C2338 C2342 1.531 . S
C2339 C2338 1.369 . S
C2339 C2340 1.410 . S
C2339 C2347 1.503 . S
C2340 C2339 1.410 . S
C2340 C2341 1.392 . S
C2340 C2343 1.511 . S
C2341 C2337 1.376 . S
C2341 C2340 1.392 . S
C2341 H2353 0.929 . S
C2342 C2338 1.531 . S
C2342 H2354 0.960 . S
C2342 H2355 0.962 . S
C2342 H2356 0.960 . S
C2343 C2340 1.511 . S
C2343 H2357 0.961 . S
C2343 H2358 0.961 . S
C2343 H2359 0.961 . S
C2344 C2345 1.370 . S
C2344 C2346 1.363 . S
C2344 H2360 0.931 . S
C2345 C2344 1.370 . S
C2345 C2349 1.408 . S
C2346 C2344 1.363 . S
C2346 C2347 1.370 . S
C2346 C2350 1.524 . S
C2347 C2339 1.503 . S
C2347 C2346 1.370 . S
C2347 C2348 1.403 . S
C2348 C2347 1.403 . S
C2348 C2349 1.404 . S
C2348 C2351 1.539 . S
C2349 C2345 1.408 . S
C2349 C2348 1.404 . S
C2349 H2361 0.930 . S
C2350 C2346 1.524 . S
C2350 H2362 0.956 . S
C2350 H2363 0.961 . S
C2350 H2364 0.961 . S
C2351 C2348 1.539 . S
C2351 H2365 0.958 . S
C2351 H2366 0.961 . S
C2351 H2367 0.960 . S
H2352 C2336 0.931 . S
H2353 C2341 0.929 . S
H2354 C2342 0.960 . S
H2355 C2342 0.962 . S
H2356 C2342 0.960 . S
H2357 C2343 0.961 . S
H2358 C2343 0.961 . S
H2359 C2343 0.961 . S
H2360 C2344 0.931 . S
H2361 C2349 0.930 . S
H2362 C2350 0.956 . S
H2363 C2350 0.961 . S
H2364 C2350 0.961 . S
H2365 C2351 0.958 . S
H2366 C2351 0.961 . S
H2367 C2351 0.960 . S
C2368 C2369 1.391 . S
C2368 C2370 1.394 . S
C2368 H2384 0.931 . S
C2369 C2368 1.391 . S
C2369 C2373 1.376 . S
C2370 C2368 1.394 . S
C2370 C2371 1.369 . S
C2370 C2374 1.531 . S
C2371 C2370 1.369 . S
C2371 C2372 1.410 . S
C2371 C2379 1.503 . S
C2372 C2371 1.410 . S
C2372 C2373 1.392 . S
C2372 C2375 1.511 . S
C2373 C2369 1.376 . S
C2373 C2372 1.392 . S
C2373 H2385 0.929 . S
C2374 C2370 1.531 . S
C2374 H2386 0.960 . S
C2374 H2387 0.962 . S
C2374 H2388 0.960 . S
C2375 C2372 1.511 . S
C2375 H2389 0.961 . S
C2375 H2390 0.961 . S
C2375 H2391 0.961 . S
C2376 C2377 1.370 . S
C2376 C2378 1.363 . S
C2376 H2392 0.931 . S
C2377 C2376 1.370 . S
C2377 C2381 1.408 . S
C2378 C2376 1.363 . S
C2378 C2379 1.370 . S
C2378 C2382 1.524 . S
C2379 C2371 1.503 . S
C2379 C2378 1.370 . S
C2379 C2380 1.403 . S
C2380 C2379 1.403 . S
C2380 C2381 1.404 . S
C2380 C2383 1.539 . S
C2381 C2377 1.408 . S
C2381 C2380 1.404 . S
C2381 H2393 0.930 . S
C2382 C2378 1.524 . S
C2382 H2394 0.956 . S
C2382 H2395 0.961 . S
C2382 H2396 0.961 . S
C2383 C2380 1.539 . S
C2383 H2397 0.958 . S
C2383 H2398 0.961 . S
C2383 H2399 0.960 . S
H2384 C2368 0.931 . S
H2385 C2373 0.929 . S
H2386 C2374 0.960 . S
H2387 C2374 0.962 . S
H2388 C2374 0.960 . S
H2389 C2375 0.961 . S
H2390 C2375 0.961 . S
H2391 C2375 0.961 . S
H2392 C2376 0.931 . S
H2393 C2381 0.930 . S
H2394 C2382 0.956 . S
H2395 C2382 0.961 . S
H2396 C2382 0.961 . S
H2397 C2383 0.958 . S
H2398 C2383 0.961 . S
H2399 C2383 0.960 . S
C2400 C2401 1.391 . S
C2400 C2402 1.394 . S
C2400 H2416 0.931 . S
C2401 C2400 1.391 . S
C2401 C2405 1.376 . S
C2402 C2400 1.394 . S
C2402 C2403 1.369 . S
C2402 C2406 1.531 . S
C2403 C2402 1.369 . S
C2403 C2404 1.410 . S
C2403 C2411 1.503 . S
C2404 C2403 1.410 . S
C2404 C2405 1.392 . S
C2404 C2407 1.511 . S
C2405 C2401 1.376 . S
C2405 C2404 1.392 . S
C2405 H2417 0.929 . S
C2406 C2402 1.531 . S
C2406 H2418 0.960 . S
C2406 H2419 0.962 . S
C2406 H2420 0.960 . S
C2407 C2404 1.511 . S
C2407 H2421 0.961 . S
C2407 H2422 0.961 . S
C2407 H2423 0.961 . S
C2408 C2409 1.370 . S
C2408 C2410 1.363 . S
C2408 H2424 0.931 . S
C2409 C2408 1.370 . S
C2409 C2413 1.408 . S
C2410 C2408 1.363 . S
C2410 C2411 1.370 . S
C2410 C2414 1.524 . S
C2411 C2403 1.503 . S
C2411 C2410 1.370 . S
C2411 C2412 1.403 . S
C2412 C2411 1.403 . S
C2412 C2413 1.404 . S
C2412 C2415 1.539 . S
C2413 C2409 1.408 . S
C2413 C2412 1.404 . S
C2413 H2425 0.930 . S
C2414 C2410 1.524 . S
C2414 H2426 0.956 . S
C2414 H2427 0.961 . S
C2414 H2428 0.961 . S
C2415 C2412 1.539 . S
C2415 H2429 0.958 . S
C2415 H2430 0.961 . S
C2415 H2431 0.960 . S
H2416 C2400 0.931 . S
H2417 C2405 0.929 . S
H2418 C2406 0.960 . S
H2419 C2406 0.962 . S
H2420 C2406 0.960 . S
H2421 C2407 0.961 . S
H2422 C2407 0.961 . S
H2423 C2407 0.961 . S
H2424 C2408 0.931 . S
H2425 C2413 0.930 . S
H2426 C2414 0.956 . S
H2427 C2414 0.961 . S
H2428 C2414 0.961 . S
H2429 C2415 0.958 . S
H2430 C2415 0.961 . S
H2431 C2415 0.960 . S
C2432 C2433 1.391 . S
C2432 C2434 1.394 . S
C2432 H2448 0.931 . S
C2433 C2432 1.391 . S
C2433 C2437 1.376 . S
C2434 C2432 1.394 . S
C2434 C2435 1.369 . S
C2434 C2438 1.531 . S
C2435 C2434 1.369 . S
C2435 C2436 1.410 . S
C2435 C2443 1.503 . S
C2436 C2435 1.410 . S
C2436 C2437 1.392 . S
C2436 C2439 1.511 . S
C2437 C2433 1.376 . S
C2437 C2436 1.392 . S
C2437 H2449 0.929 . S
C2438 C2434 1.531 . S
C2438 H2450 0.960 . S
C2438 H2451 0.962 . S
C2438 H2452 0.960 . S
C2439 C2436 1.511 . S
C2439 H2453 0.961 . S
C2439 H2454 0.961 . S
C2439 H2455 0.961 . S
C2440 C2441 1.370 . S
C2440 C2442 1.363 . S
C2440 H2456 0.931 . S
C2441 C2440 1.370 . S
C2441 C2445 1.408 . S
C2442 C2440 1.363 . S
C2442 C2443 1.370 . S
C2442 C2446 1.524 . S
C2443 C2435 1.503 . S
C2443 C2442 1.370 . S
C2443 C2444 1.403 . S
C2444 C2443 1.403 . S
C2444 C2445 1.404 . S
C2444 C2447 1.539 . S
C2445 C2441 1.408 . S
C2445 C2444 1.404 . S
C2445 H2457 0.930 . S
C2446 C2442 1.524 . S
C2446 H2458 0.956 . S
C2446 H2459 0.961 . S
C2446 H2460 0.961 . S
C2447 C2444 1.539 . S
C2447 H2461 0.958 . S
C2447 H2462 0.961 . S
C2447 H2463 0.960 . S
H2448 C2432 0.931 . S
H2449 C2437 0.929 . S
H2450 C2438 0.960 . S
H2451 C2438 0.962 . S
H2452 C2438 0.960 . S
H2453 C2439 0.961 . S
H2454 C2439 0.961 . S
H2455 C2439 0.961 . S
H2456 C2440 0.931 . S
H2457 C2445 0.930 . S
H2458 C2446 0.956 . S
H2459 C2446 0.961 . S
H2460 C2446 0.961 . S
H2461 C2447 0.958 . S
H2462 C2447 0.961 . S
H2463 C2447 0.960 . S
C2464 C2465 1.391 . S
C2464 C2466 1.394 . S
C2464 H2480 0.931 . S
C2465 C2464 1.391 . S
C2465 C2469 1.376 . S
C2466 C2464 1.394 . S
C2466 C2467 1.369 . S
C2466 C2470 1.531 . S
C2467 C2466 1.369 . S
C2467 C2468 1.410 . S
C2467 C2475 1.503 . S
C2468 C2467 1.410 . S
C2468 C2469 1.392 . S
C2468 C2471 1.511 . S
C2469 C2465 1.376 . S
C2469 C2468 1.392 . S
C2469 H2481 0.929 . S
C2470 C2466 1.531 . S
C2470 H2482 0.960 . S
C2470 H2483 0.962 . S
C2470 H2484 0.960 . S
C2471 C2468 1.511 . S
C2471 H2485 0.961 . S
C2471 H2486 0.961 . S
C2471 H2487 0.961 . S
C2472 C2473 1.370 . S
C2472 C2474 1.363 . S
C2472 H2488 0.931 . S
C2473 C2472 1.370 . S
C2473 C2477 1.408 . S
C2474 C2472 1.363 . S
C2474 C2475 1.370 . S
C2474 C2478 1.524 . S
C2475 C2467 1.503 . S
C2475 C2474 1.370 . S
C2475 C2476 1.403 . S
C2476 C2475 1.403 . S
C2476 C2477 1.404 . S
C2476 C2479 1.539 . S
C2477 C2473 1.408 . S
C2477 C2476 1.404 . S
C2477 H2489 0.930 . S
C2478 C2474 1.524 . S
C2478 H2490 0.956 . S
C2478 H2491 0.961 . S
C2478 H2492 0.961 . S
C2479 C2476 1.539 . S
C2479 H2493 0.958 . S
C2479 H2494 0.961 . S
C2479 H2495 0.960 . S
H2480 C2464 0.931 . S
H2481 C2469 0.929 . S
H2482 C2470 0.960 . S
H2483 C2470 0.962 . S
H2484 C2470 0.960 . S
H2485 C2471 0.961 . S
H2486 C2471 0.961 . S
H2487 C2471 0.961 . S
H2488 C2472 0.931 . S
H2489 C2477 0.930 . S
H2490 C2478 0.956 . S
H2491 C2478 0.961 . S
H2492 C2478 0.961 . S
H2493 C2479 0.958 . S
H2494 C2479 0.961 . S
H2495 C2479 0.960 . S
C2496 C2497 1.391 . S
C2496 C2498 1.394 . S
C2496 H2512 0.931 . S
C2497 C2496 1.391 . S
C2497 C2501 1.376 . S
C2498 C2496 1.394 . S
C2498 C2499 1.369 . S
C2498 C2502 1.531 . S
C2499 C2498 1.369 . S
C2499 C2500 1.410 . S
C2499 C2507 1.503 . S
C2500 C2499 1.410 . S
C2500 C2501 1.392 . S
C2500 C2503 1.511 . S
C2501 C2497 1.376 . S
C2501 C2500 1.392 . S
C2501 H2513 0.929 . S
C2502 C2498 1.531 . S
C2502 H2514 0.960 . S
C2502 H2515 0.962 . S
C2502 H2516 0.960 . S
C2503 C2500 1.511 . S
C2503 H2517 0.961 . S
C2503 H2518 0.961 . S
C2503 H2519 0.961 . S
C2504 C2505 1.370 . S
C2504 C2506 1.363 . S
C2504 H2520 0.931 . S
C2505 C2504 1.370 . S
C2505 C2509 1.408 . S
C2506 C2504 1.363 . S
C2506 C2507 1.370 . S
C2506 C2510 1.524 . S
C2507 C2499 1.503 . S
C2507 C2506 1.370 . S
C2507 C2508 1.403 . S
C2508 C2507 1.403 . S
C2508 C2509 1.404 . S
C2508 C2511 1.539 . S
C2509 C2505 1.408 . S
C2509 C2508 1.404 . S
C2509 H2521 0.930 . S
C2510 C2506 1.524 . S
C2510 H2522 0.956 . S
C2510 H2523 0.961 . S
C2510 H2524 0.961 . S
C2511 C2508 1.539 . S
C2511 H2525 0.958 . S
C2511 H2526 0.961 . S
C2511 H2527 0.960 . S
H2512 C2496 0.931 . S
H2513 C2501 0.929 . S
H2514 C2502 0.960 . S
H2515 C2502 0.962 . S
H2516 C2502 0.960 . S
H2517 C2503 0.961 . S
H2518 C2503 0.961 . S
H2519 C2503 0.961 . S
H2520 C2504 0.931 . S
H2521 C2509 0.930 . S
H2522 C2510 0.956 . S
H2523 C2510 0.961 . S
H2524 C2510 0.961 . S
H2525 C2511 0.958 . S
H2526 C2511 0.961 . S
H2527 C2511 0.960 . S
C2528 C2529 1.391 . S
C2528 C2530 1.394 . S
C2528 H2544 0.931 . S
C2529 C2528 1.391 . S
C2529 C2533 1.376 . S
C2530 C2528 1.394 . S
C2530 C2531 1.369 . S
C2530 C2534 1.531 . S
C2531 C2530 1.369 . S
C2531 C2532 1.410 . S
C2531 C2539 1.503 . S
C2532 C2531 1.410 . S
C2532 C2533 1.392 . S
C2532 C2535 1.511 . S
C2533 C2529 1.376 . S
C2533 C2532 1.392 . S
C2533 H2545 0.929 . S
C2534 C2530 1.531 . S
C2534 H2546 0.960 . S
C2534 H2547 0.962 . S
C2534 H2548 0.960 . S
C2535 C2532 1.511 . S
C2535 H2549 0.961 . S
C2535 H2550 0.961 . S
C2535 H2551 0.961 . S
C2536 C2537 1.370 . S
C2536 C2538 1.363 . S
C2536 H2552 0.931 . S
C2537 C2536 1.370 . S
C2537 C2541 1.408 . S
C2538 C2536 1.363 . S
C2538 C2539 1.370 . S
C2538 C2542 1.524 . S
C2539 C2531 1.503 . S
C2539 C2538 1.370 . S
C2539 C2540 1.403 . S
C2540 C2539 1.403 . S
C2540 C2541 1.404 . S
C2540 C2543 1.539 . S
C2541 C2537 1.408 . S
C2541 C2540 1.404 . S
C2541 H2553 0.930 . S
C2542 C2538 1.524 . S
C2542 H2554 0.956 . S
C2542 H2555 0.961 . S
C2542 H2556 0.961 . S
C2543 C2540 1.539 . S
C2543 H2557 0.958 . S
C2543 H2558 0.961 . S
C2543 H2559 0.960 . S
H2544 C2528 0.931 . S
H2545 C2533 0.929 . S
H2546 C2534 0.960 . S
H2547 C2534 0.962 . S
H2548 C2534 0.960 . S
H2549 C2535 0.961 . S
H2550 C2535 0.961 . S
H2551 C2535 0.961 . S
H2552 C2536 0.931 . S
H2553 C2541 0.930 . S
H2554 C2542 0.956 . S
H2555 C2542 0.961 . S
H2556 C2542 0.961 . S
H2557 C2543 0.958 . S
H2558 C2543 0.961 . S
H2559 C2543 0.960 . S
C2560 C2561 1.391 . S
C2560 C2562 1.394 . S
C2560 H2576 0.931 . S
C2561 C2560 1.391 . S
C2561 C2565 1.376 . S
C2562 C2560 1.394 . S
C2562 C2563 1.369 . S
C2562 C2566 1.531 . S
C2563 C2562 1.369 . S
C2563 C2564 1.410 . S
C2563 C2571 1.503 . S
C2564 C2563 1.410 . S
C2564 C2565 1.392 . S
C2564 C2567 1.511 . S
C2565 C2561 1.376 . S
C2565 C2564 1.392 . S
C2565 H2577 0.929 . S
C2566 C2562 1.531 . S
C2566 H2578 0.960 . S
C2566 H2579 0.962 . S
C2566 H2580 0.960 . S
C2567 C2564 1.511 . S
C2567 H2581 0.961 . S
C2567 H2582 0.961 . S
C2567 H2583 0.961 . S
C2568 C2569 1.370 . S
C2568 C2570 1.363 . S
C2568 H2584 0.931 . S
C2569 C2568 1.370 . S
C2569 C2573 1.408 . S
C2570 C2568 1.363 . S
C2570 C2571 1.370 . S
C2570 C2574 1.524 . S
C2571 C2563 1.503 . S
C2571 C2570 1.370 . S
C2571 C2572 1.403 . S
C2572 C2571 1.403 . S
C2572 C2573 1.404 . S
C2572 C2575 1.539 . S
C2573 C2569 1.408 . S
C2573 C2572 1.404 . S
C2573 H2585 0.930 . S
C2574 C2570 1.524 . S
C2574 H2586 0.956 . S
C2574 H2587 0.961 . S
C2574 H2588 0.961 . S
C2575 C2572 1.539 . S
C2575 H2589 0.958 . S
C2575 H2590 0.961 . S
C2575 H2591 0.960 . S
H2576 C2560 0.931 . S
H2577 C2565 0.929 . S
H2578 C2566 0.960 . S
H2579 C2566 0.962 . S
H2580 C2566 0.960 . S
H2581 C2567 0.961 . S
H2582 C2567 0.961 . S
H2583 C2567 0.961 . S
H2584 C2568 0.931 . S
H2585 C2573 0.930 . S
H2586 C2574 0.956 . S
H2587 C2574 0.961 . S
H2588 C2574 0.961 . S
H2589 C2575 0.958 . S
H2590 C2575 0.961 . S
H2591 C2575 0.960 . S
C2592 C2593 1.391 . S
C2592 C2594 1.394 . S
C2592 H2608 0.931 . S
C2593 C2592 1.391 . S
C2593 C2597 1.376 . S
C2594 C2592 1.394 . S
C2594 C2595 1.369 . S
C2594 C2598 1.531 . S
C2595 C2594 1.369 . S
C2595 C2596 1.410 . S
C2595 C2603 1.503 . S
C2596 C2595 1.410 . S
C2596 C2597 1.392 . S
C2596 C2599 1.511 . S
C2597 C2593 1.376 . S
C2597 C2596 1.392 . S
C2597 H2609 0.929 . S
C2598 C2594 1.531 . S
C2598 H2610 0.960 . S
C2598 H2611 0.962 . S
C2598 H2612 0.960 . S
C2599 C2596 1.511 . S
C2599 H2613 0.961 . S
C2599 H2614 0.961 . S
C2599 H2615 0.961 . S
C2600 C2601 1.370 . S
C2600 C2602 1.363 . S
C2600 H2616 0.931 . S
C2601 C2600 1.370 . S
C2601 C2605 1.408 . S
C2602 C2600 1.363 . S
C2602 C2603 1.370 . S
C2602 C2606 1.524 . S
C2603 C2595 1.503 . S
C2603 C2602 1.370 . S
C2603 C2604 1.403 . S
C2604 C2603 1.403 . S
C2604 C2605 1.404 . S
C2604 C2607 1.539 . S
C2605 C2601 1.408 . S
C2605 C2604 1.404 . S
C2605 H2617 0.930 . S
C2606 C2602 1.524 . S
C2606 H2618 0.956 . S
C2606 H2619 0.961 . S
C2606 H2620 0.961 . S
C2607 C2604 1.539 . S
C2607 H2621 0.958 . S
C2607 H2622 0.961 . S
C2607 H2623 0.960 . S
H2608 C2592 0.931 . S
H2609 C2597 0.929 . S
H2610 C2598 0.960 . S
H2611 C2598 0.962 . S
H2612 C2598 0.960 . S
H2613 C2599 0.961 . S
H2614 C2599 0.961 . S
H2615 C2599 0.961 . S
H2616 C2600 0.931 . S
H2617 C2605 0.930 . S
H2618 C2606 0.956 . S
H2619 C2606 0.961 . S
H2620 C2606 0.961 . S
H2621 C2607 0.958 . S
H2622 C2607 0.961 . S
H2623 C2607 0.960 . S
C2624 C2625 1.391 . S
C2624 C2626 1.394 . S
C2624 H2640 0.931 . S
C2625 C2624 1.391 . S
C2625 C2629 1.376 . S
C2626 C2624 1.394 . S
C2626 C2627 1.369 . S
C2626 C2630 1.531 . S
C2627 C2626 1.369 . S
C2627 C2628 1.410 . S
C2627 C2635 1.503 . S
C2628 C2627 1.410 . S
C2628 C2629 1.392 . S
C2628 C2631 1.511 . S
C2629 C2625 1.376 . S
C2629 C2628 1.392 . S
C2629 H2641 0.929 . S
C2630 C2626 1.531 . S
C2630 H2642 0.960 . S
C2630 H2643 0.962 . S
C2630 H2644 0.960 . S
C2631 C2628 1.511 . S
C2631 H2645 0.961 . S
C2631 H2646 0.961 . S
C2631 H2647 0.961 . S
C2632 C2633 1.370 . S
C2632 C2634 1.363 . S
C2632 H2648 0.931 . S
C2633 C2632 1.370 . S
C2633 C2637 1.408 . S
C2634 C2632 1.363 . S
C2634 C2635 1.370 . S
C2634 C2638 1.524 . S
C2635 C2627 1.503 . S
C2635 C2634 1.370 . S
C2635 C2636 1.403 . S
C2636 C2635 1.403 . S
C2636 C2637 1.404 . S
C2636 C2639 1.539 . S
C2637 C2633 1.408 . S
C2637 C2636 1.404 . S
C2637 H2649 0.930 . S
C2638 C2634 1.524 . S
C2638 H2650 0.956 . S
C2638 H2651 0.961 . S
C2638 H2652 0.961 . S
C2639 C2636 1.539 . S
C2639 H2653 0.958 . S
C2639 H2654 0.961 . S
C2639 H2655 0.960 . S
H2640 C2624 0.931 . S
H2641 C2629 0.929 . S
H2642 C2630 0.960 . S
H2643 C2630 0.962 . S
H2644 C2630 0.960 . S
H2645 C2631 0.961 . S
H2646 C2631 0.961 . S
H2647 C2631 0.961 . S
H2648 C2632 0.931 . S
H2649 C2637 0.930 . S
H2650 C2638 0.956 . S
H2651 C2638 0.961 . S
H2652 C2638 0.961 . S
H2653 C2639 0.958 . S
H2654 C2639 0.961 . S
H2655 C2639 0.960 . S
C2656 C2657 1.391 . S
C2656 C2658 1.394 . S
C2656 H2672 0.931 . S
C2657 C2656 1.391 . S
C2657 C2661 1.376 . S
C2658 C2656 1.394 . S
C2658 C2659 1.369 . S
C2658 C2662 1.531 . S
C2659 C2658 1.369 . S
C2659 C2660 1.410 . S
C2659 C2667 1.503 . S
C2660 C2659 1.410 . S
C2660 C2661 1.392 . S
C2660 C2663 1.511 . S
C2661 C2657 1.376 . S
C2661 C2660 1.392 . S
C2661 H2673 0.929 . S
C2662 C2658 1.531 . S
C2662 H2674 0.960 . S
C2662 H2675 0.962 . S
C2662 H2676 0.960 . S
C2663 C2660 1.511 . S
C2663 H2677 0.961 . S
C2663 H2678 0.961 . S
C2663 H2679 0.961 . S
C2664 C2665 1.370 . S
C2664 C2666 1.363 . S
C2664 H2680 0.931 . S
C2665 C2664 1.370 . S
C2665 C2669 1.408 . S
C2666 C2664 1.363 . S
C2666 C2667 1.370 . S
C2666 C2670 1.524 . S
C2667 C2659 1.503 . S
C2667 C2666 1.370 . S
C2667 C2668 1.403 . S
C2668 C2667 1.403 . S
C2668 C2669 1.404 . S
C2668 C2671 1.539 . S
C2669 C2665 1.408 . S
C2669 C2668 1.404 . S
C2669 H2681 0.930 . S
C2670 C2666 1.524 . S
C2670 H2682 0.956 . S
C2670 H2683 0.961 . S
C2670 H2684 0.961 . S
C2671 C2668 1.539 . S
C2671 H2685 0.958 . S
C2671 H2686 0.961 . S
C2671 H2687 0.960 . S
H2672 C2656 0.931 . S
H2673 C2661 0.929 . S
H2674 C2662 0.960 . S
H2675 C2662 0.962 . S
H2676 C2662 0.960 . S
H2677 C2663 0.961 . S
H2678 C2663 0.961 . S
H2679 C2663 0.961 . S
H2680 C2664 0.931 . S
H2681 C2669 0.930 . S
H2682 C2670 0.956 . S
H2683 C2670 0.961 . S
H2684 C2670 0.961 . S
H2685 C2671 0.958 . S
H2686 C2671 0.961 . S
H2687 C2671 0.960 . S
C2688 C2689 1.391 . S
C2688 C2690 1.394 . S
C2688 H2704 0.931 . S
C2689 C2688 1.391 . S
C2689 C2693 1.376 . S
C2690 C2688 1.394 . S
C2690 C2691 1.369 . S
C2690 C2694 1.531 . S
C2691 C2690 1.369 . S
C2691 C2692 1.410 . S
C2691 C2699 1.503 . S
C2692 C2691 1.410 . S
C2692 C2693 1.392 . S
C2692 C2695 1.511 . S
C2693 C2689 1.376 . S
C2693 C2692 1.392 . S
C2693 H2705 0.929 . S
C2694 C2690 1.531 . S
C2694 H2706 0.960 . S
C2694 H2707 0.962 . S
C2694 H2708 0.960 . S
C2695 C2692 1.511 . S
C2695 H2709 0.961 . S
C2695 H2710 0.961 . S
C2695 H2711 0.961 . S
C2696 C2697 1.370 . S
C2696 C2698 1.363 . S
C2696 H2712 0.931 . S
C2697 C2696 1.370 . S
C2697 C2701 1.408 . S
C2698 C2696 1.363 . S
C2698 C2699 1.370 . S
C2698 C2702 1.524 . S
C2699 C2691 1.503 . S
C2699 C2698 1.370 . S
C2699 C2700 1.403 . S
C2700 C2699 1.403 . S
C2700 C2701 1.404 . S
C2700 C2703 1.539 . S
C2701 C2697 1.408 . S
C2701 C2700 1.404 . S
C2701 H2713 0.930 . S
C2702 C2698 1.524 . S
C2702 H2714 0.956 . S
C2702 H2715 0.961 . S
C2702 H2716 0.961 . S
C2703 C2700 1.539 . S
C2703 H2717 0.958 . S
C2703 H2718 0.961 . S
C2703 H2719 0.960 . S
H2704 C2688 0.931 . S
H2705 C2693 0.929 . S
H2706 C2694 0.960 . S
H2707 C2694 0.962 . S
H2708 C2694 0.960 . S
H2709 C2695 0.961 . S
H2710 C2695 0.961 . S
H2711 C2695 0.961 . S
H2712 C2696 0.931 . S
H2713 C2701 0.930 . S
H2714 C2702 0.956 . S
H2715 C2702 0.961 . S
H2716 C2702 0.961 . S
H2717 C2703 0.958 . S
H2718 C2703 0.961 . S
H2719 C2703 0.960 . S
C2720 C2721 1.391 . S
C2720 C2722 1.394 . S
C2720 H2736 0.931 . S
C2721 C2720 1.391 . S
C2721 C2725 1.376 . S
C2722 C2720 1.394 . S
C2722 C2723 1.369 . S
C2722 C2726 1.531 . S
C2723 C2722 1.369 . S
C2723 C2724 1.410 . S
C2723 C2731 1.503 . S
C2724 C2723 1.410 . S
C2724 C2725 1.392 . S
C2724 C2727 1.511 . S
C2725 C2721 1.376 . S
C2725 C2724 1.392 . S
C2725 H2737 0.929 . S
C2726 C2722 1.531 . S
C2726 H2738 0.960 . S
C2726 H2739 0.962 . S
C2726 H2740 0.960 . S
C2727 C2724 1.511 . S
C2727 H2741 0.961 . S
C2727 H2742 0.961 . S
C2727 H2743 0.961 . S
C2728 C2729 1.370 . S
C2728 C2730 1.363 . S
C2728 H2744 0.931 . S
C2729 C2728 1.370 . S
C2729 C2733 1.408 . S
C2730 C2728 1.363 . S
C2730 C2731 1.370 . S
C2730 C2734 1.524 . S
C2731 C2723 1.503 . S
C2731 C2730 1.370 . S
C2731 C2732 1.403 . S
C2732 C2731 1.403 . S
C2732 C2733 1.404 . S
C2732 C2735 1.539 . S
C2733 C2729 1.408 . S
C2733 C2732 1.404 . S
C2733 H2745 0.930 . S
C2734 C2730 1.524 . S
C2734 H2746 0.956 . S
C2734 H2747 0.961 . S
C2734 H2748 0.961 . S
C2735 C2732 1.539 . S
C2735 H2749 0.958 . S
C2735 H2750 0.961 . S
C2735 H2751 0.960 . S
H2736 C2720 0.931 . S
H2737 C2725 0.929 . S
H2738 C2726 0.960 . S
H2739 C2726 0.962 . S
H2740 C2726 0.960 . S
H2741 C2727 0.961 . S
H2742 C2727 0.961 . S
H2743 C2727 0.961 . S
H2744 C2728 0.931 . S
H2745 C2733 0.930 . S
H2746 C2734 0.956 . S
H2747 C2734 0.961 . S
H2748 C2734 0.961 . S
H2749 C2735 0.958 . S
H2750 C2735 0.961 . S
H2751 C2735 0.960 . S
C2752 C2753 1.391 . S
C2752 C2754 1.394 . S
C2752 H2768 0.931 . S
C2753 C2752 1.391 . S
C2753 C2757 1.376 . S
C2754 C2752 1.394 . S
C2754 C2755 1.369 . S
C2754 C2758 1.531 . S
C2755 C2754 1.369 . S
C2755 C2756 1.410 . S
C2755 C2763 1.503 . S
C2756 C2755 1.410 . S
C2756 C2757 1.392 . S
C2756 C2759 1.511 . S
C2757 C2753 1.376 . S
C2757 C2756 1.392 . S
C2757 H2769 0.929 . S
C2758 C2754 1.531 . S
C2758 H2770 0.960 . S
C2758 H2771 0.962 . S
C2758 H2772 0.960 . S
C2759 C2756 1.511 . S
C2759 H2773 0.961 . S
C2759 H2774 0.961 . S
C2759 H2775 0.961 . S
C2760 C2761 1.370 . S
C2760 C2762 1.363 . S
C2760 H2776 0.931 . S
C2761 C2760 1.370 . S
C2761 C2765 1.408 . S
C2762 C2760 1.363 . S
C2762 C2763 1.370 . S
C2762 C2766 1.524 . S
C2763 C2755 1.503 . S
C2763 C2762 1.370 . S
C2763 C2764 1.403 . S
C2764 C2763 1.403 . S
C2764 C2765 1.404 . S
C2764 C2767 1.539 . S
C2765 C2761 1.408 . S
C2765 C2764 1.404 . S
C2765 H2777 0.930 . S
C2766 C2762 1.524 . S
C2766 H2778 0.956 . S
C2766 H2779 0.961 . S
C2766 H2780 0.961 . S
C2767 C2764 1.539 . S
C2767 H2781 0.958 . S
C2767 H2782 0.961 . S
C2767 H2783 0.960 . S
H2768 C2752 0.931 . S
H2769 C2757 0.929 . S
H2770 C2758 0.960 . S
H2771 C2758 0.962 . S
H2772 C2758 0.960 . S
H2773 C2759 0.961 . S
H2774 C2759 0.961 . S
H2775 C2759 0.961 . S
H2776 C2760 0.931 . S
H2777 C2765 0.930 . S
H2778 C2766 0.956 . S
H2779 C2766 0.961 . S
H2780 C2766 0.961 . S
H2781 C2767 0.958 . S
H2782 C2767 0.961 . S
H2783 C2767 0.960 . S
C2784 C2785 1.391 . S
C2784 C2786 1.394 . S
C2784 H2800 0.931 . S
C2785 C2784 1.391 . S
C2785 C2789 1.376 . S
C2786 C2784 1.394 . S
C2786 C2787 1.369 . S
C2786 C2790 1.531 . S
C2787 C2786 1.369 . S
C2787 C2788 1.410 . S
C2787 C2795 1.503 . S
C2788 C2787 1.410 . S
C2788 C2789 1.392 . S
C2788 C2791 1.511 . S
C2789 C2785 1.376 . S
C2789 C2788 1.392 . S
C2789 H2801 0.929 . S
C2790 C2786 1.531 . S
C2790 H2802 0.960 . S
C2790 H2803 0.962 . S
C2790 H2804 0.960 . S
C2791 C2788 1.511 . S
C2791 H2805 0.961 . S
C2791 H2806 0.961 . S
C2791 H2807 0.961 . S
C2792 C2793 1.370 . S
C2792 C2794 1.363 . S
C2792 H2808 0.931 . S
C2793 C2792 1.370 . S
C2793 C2797 1.408 . S
C2794 C2792 1.363 . S
C2794 C2795 1.370 . S
C2794 C2798 1.524 . S
C2795 C2787 1.503 . S
C2795 C2794 1.370 . S
C2795 C2796 1.403 . S
C2796 C2795 1.403 . S
C2796 C2797 1.404 . S
C2796 C2799 1.539 . S
C2797 C2793 1.408 . S
C2797 C2796 1.404 . S
C2797 H2809 0.930 . S
C2798 C2794 1.524 . S
C2798 H2810 0.956 . S
C2798 H2811 0.961 . S
C2798 H2812 0.961 . S
C2799 C2796 1.539 . S
C2799 H2813 0.958 . S
C2799 H2814 0.961 . S
C2799 H2815 0.960 . S
H2800 C2784 0.931 . S
H2801 C2789 0.929 . S
H2802 C2790 0.960 . S
H2803 C2790 0.962 . S
H2804 C2790 0.960 . S
H2805 C2791 0.961 . S
H2806 C2791 0.961 . S
H2807 C2791 0.961 . S
H2808 C2792 0.931 . S
H2809 C2797 0.930 . S
H2810 C2798 0.956 . S
H2811 C2798 0.961 . S
H2812 C2798 0.961 . S
H2813 C2799 0.958 . S
H2814 C2799 0.961 . S
H2815 C2799 0.960 . S
C2816 C2817 1.391 . S
C2816 C2818 1.394 . S
C2816 H2832 0.931 . S
C2817 C2816 1.391 . S
C2817 C2821 1.376 . S
C2818 C2816 1.394 . S
C2818 C2819 1.369 . S
C2818 C2822 1.531 . S
C2819 C2818 1.369 . S
C2819 C2820 1.410 . S
C2819 C2827 1.503 . S
C2820 C2819 1.410 . S
C2820 C2821 1.392 . S
C2820 C2823 1.511 . S
C2821 C2817 1.376 . S
C2821 C2820 1.392 . S
C2821 H2833 0.929 . S
C2822 C2818 1.531 . S
C2822 H2834 0.960 . S
C2822 H2835 0.962 . S
C2822 H2836 0.960 . S
C2823 C2820 1.511 . S
C2823 H2837 0.961 . S
C2823 H2838 0.961 . S
C2823 H2839 0.961 . S
C2824 C2825 1.370 . S
C2824 C2826 1.363 . S
C2824 H2840 0.931 . S
C2825 C2824 1.370 . S
C2825 C2829 1.408 . S
C2826 C2824 1.363 . S
C2826 C2827 1.370 . S
C2826 C2830 1.524 . S
C2827 C2819 1.503 . S
C2827 C2826 1.370 . S
C2827 C2828 1.403 . S
C2828 C2827 1.403 . S
C2828 C2829 1.404 . S
C2828 C2831 1.539 . S
C2829 C2825 1.408 . S
C2829 C2828 1.404 . S
C2829 H2841 0.930 . S
C2830 C2826 1.524 . S
C2830 H2842 0.956 . S
C2830 H2843 0.961 . S
C2830 H2844 0.961 . S
C2831 C2828 1.539 . S
C2831 H2845 0.958 . S
C2831 H2846 0.961 . S
C2831 H2847 0.960 . S
H2832 C2816 0.931 . S
H2833 C2821 0.929 . S
H2834 C2822 0.960 . S
H2835 C2822 0.962 . S
H2836 C2822 0.960 . S
H2837 C2823 0.961 . S
H2838 C2823 0.961 . S
H2839 C2823 0.961 . S
H2840 C2824 0.931 . S
H2841 C2829 0.930 . S
H2842 C2830 0.956 . S
H2843 C2830 0.961 . S
H2844 C2830 0.961 . S
H2845 C2831 0.958 . S
H2846 C2831 0.961 . S
H2847 C2831 0.960 . S
C2848 C2849 1.391 . S
C2848 C2850 1.394 . S
C2848 H2864 0.931 . S
C2849 C2848 1.391 . S
C2849 C2853 1.376 . S
C2850 C2848 1.394 . S
C2850 C2851 1.369 . S
C2850 C2854 1.531 . S
C2851 C2850 1.369 . S
C2851 C2852 1.410 . S
C2851 C2859 1.503 . S
C2852 C2851 1.410 . S
C2852 C2853 1.392 . S
C2852 C2855 1.511 . S
C2853 C2849 1.376 . S
C2853 C2852 1.392 . S
C2853 H2865 0.929 . S
C2854 C2850 1.531 . S
C2854 H2866 0.960 . S
C2854 H2867 0.962 . S
C2854 H2868 0.960 . S
C2855 C2852 1.511 . S
C2855 H2869 0.961 . S
C2855 H2870 0.961 . S
C2855 H2871 0.961 . S
C2856 C2857 1.370 . S
C2856 C2858 1.363 . S
C2856 H2872 0.931 . S
C2857 C2856 1.370 . S
C2857 C2861 1.408 . S
C2858 C2856 1.363 . S
C2858 C2859 1.370 . S
C2858 C2862 1.524 . S
C2859 C2851 1.503 . S
C2859 C2858 1.370 . S
C2859 C2860 1.403 . S
C2860 C2859 1.403 . S
C2860 C2861 1.404 . S
C2860 C2863 1.539 . S
C2861 C2857 1.408 . S
C2861 C2860 1.404 . S
C2861 H2873 0.930 . S
C2862 C2858 1.524 . S
C2862 H2874 0.956 . S
C2862 H2875 0.961 . S
C2862 H2876 0.961 . S
C2863 C2860 1.539 . S
C2863 H2877 0.958 . S
C2863 H2878 0.961 . S
C2863 H2879 0.960 . S
H2864 C2848 0.931 . S
H2865 C2853 0.929 . S
H2866 C2854 0.960 . S
H2867 C2854 0.962 . S
H2868 C2854 0.960 . S
H2869 C2855 0.961 . S
H2870 C2855 0.961 . S
H2871 C2855 0.961 . S
H2872 C2856 0.931 . S
H2873 C2861 0.930 . S
H2874 C2862 0.956 . S
H2875 C2862 0.961 . S
H2876 C2862 0.961 . S
H2877 C2863 0.958 . S
H2878 C2863 0.961 . S
H2879 C2863 0.960 . S
C2880 C2881 1.391 . S
C2880 C2882 1.394 . S
C2880 H2896 0.931 . S
C2881 C2880 1.391 . S
C2881 C2885 1.376 . S
C2882 C2880 1.394 . S
C2882 C2883 1.369 . S
C2882 C2886 1.531 . S
C2883 C2882 1.369 . S
C2883 C2884 1.410 . S
C2883 C2891 1.503 . S
C2884 C2883 1.410 . S
C2884 C2885 1.392 . S
C2884 C2887 1.511 . S
C2885 C2881 1.376 . S
C2885 C2884 1.392 . S
C2885 H2897 0.929 . S
C2886 C2882 1.531 . S
C2886 H2898 0.960 . S
C2886 H2899 0.962 . S
C2886 H2900 0.960 . S
C2887 C2884 1.511 . S
C2887 H2901 0.961 . S
C2887 H2902 0.961 . S
C2887 H2903 0.961 . S
C2888 C2889 1.370 . S
C2888 C2890 1.363 . S
C2888 H2904 0.931 . S
C2889 C2888 1.370 . S
C2889 C2893 1.408 . S
C2890 C2888 1.363 . S
C2890 C2891 1.370 . S
C2890 C2894 1.524 . S
C2891 C2883 1.503 . S
C2891 C2890 1.370 . S
C2891 C2892 1.403 . S
C2892 C2891 1.403 . S
C2892 C2893 1.404 . S
C2892 C2895 1.539 . S
C2893 C2889 1.408 . S
C2893 C2892 1.404 . S
C2893 H2905 0.930 . S
C2894 C2890 1.524 . S
C2894 H2906 0.956 . S
C2894 H2907 0.961 . S
C2894 H2908 0.961 . S
C2895 C2892 1.539 . S
C2895 H2909 0.958 . S
C2895 H2910 0.961 . S
C2895 H2911 0.960 . S
H2896 C2880 0.931 . S
H2897 C2885 0.929 . S
H2898 C2886 0.960 . S
H2899 C2886 0.962 . S
H2900 C2886 0.960 . S
H2901 C2887 0.961 . S
H2902 C2887 0.961 . S
H2903 C2887 0.961 . S
H2904 C2888 0.931 . S
H2905 C2893 0.930 . S
H2906 C2894 0.956 . S
H2907 C2894 0.961 . S
H2908 C2894 0.961 . S
H2909 C2895 0.958 . S
H2910 C2895 0.961 . S
H2911 C2895 0.960 . S
C2912 C2913 1.391 . S
C2912 C2914 1.394 . S
C2912 H2928 0.931 . S
C2913 C2912 1.391 . S
C2913 C2917 1.376 . S
C2914 C2912 1.394 . S
C2914 C2915 1.369 . S
C2914 C2918 1.531 . S
C2915 C2914 1.369 . S
C2915 C2916 1.410 . S
C2915 C2923 1.503 . S
C2916 C2915 1.410 . S
C2916 C2917 1.392 . S
C2916 C2919 1.511 . S
C2917 C2913 1.376 . S
C2917 C2916 1.392 . S
C2917 H2929 0.929 . S
C2918 C2914 1.531 . S
C2918 H2930 0.960 . S
C2918 H2931 0.962 . S
C2918 H2932 0.960 . S
C2919 C2916 1.511 . S
C2919 H2933 0.961 . S
C2919 H2934 0.961 . S
C2919 H2935 0.961 . S
C2920 C2921 1.370 . S
C2920 C2922 1.363 . S
C2920 H2936 0.931 . S
C2921 C2920 1.370 . S
C2921 C2925 1.408 . S
C2922 C2920 1.363 . S
C2922 C2923 1.370 . S
C2922 C2926 1.524 . S
C2923 C2915 1.503 . S
C2923 C2922 1.370 . S
C2923 C2924 1.403 . S
C2924 C2923 1.403 . S
C2924 C2925 1.404 . S
C2924 C2927 1.539 . S
C2925 C2921 1.408 . S
C2925 C2924 1.404 . S
C2925 H2937 0.930 . S
C2926 C2922 1.524 . S
C2926 H2938 0.956 . S
C2926 H2939 0.961 . S
C2926 H2940 0.961 . S
C2927 C2924 1.539 . S
C2927 H2941 0.958 . S
C2927 H2942 0.961 . S
C2927 H2943 0.960 . S
H2928 C2912 0.931 . S
H2929 C2917 0.929 . S
H2930 C2918 0.960 . S
H2931 C2918 0.962 . S
H2932 C2918 0.960 . S
H2933 C2919 0.961 . S
H2934 C2919 0.961 . S
H2935 C2919 0.961 . S
H2936 C2920 0.931 . S
H2937 C2925 0.930 . S
H2938 C2926 0.956 . S
H2939 C2926 0.961 . S
H2940 C2926 0.961 . S
H2941 C2927 0.958 . S
H2942 C2927 0.961 . S
H2943 C2927 0.960 . S
C2944 C2945 1.391 . S
C2944 C2946 1.394 . S
C2944 H2960 0.931 . S
C2945 C2944 1.391 . S
C2945 C2949 1.376 . S
C2946 C2944 1.394 . S
C2946 C2947 1.369 . S
C2946 C2950 1.531 . S
C2947 C2946 1.369 . S
C2947 C2948 1.410 . S
C2947 C2955 1.503 . S
C2948 C2947 1.410 . S
C2948 C2949 1.392 . S
C2948 C2951 1.511 . S
C2949 C2945 1.376 . S
C2949 C2948 1.392 . S
C2949 H2961 0.929 . S
C2950 C2946 1.531 . S
C2950 H2962 0.960 . S
C2950 H2963 0.962 . S
C2950 H2964 0.960 . S
C2951 C2948 1.511 . S
C2951 H2965 0.961 . S
C2951 H2966 0.961 . S
C2951 H2967 0.961 . S
C2952 C2953 1.370 . S
C2952 C2954 1.363 . S
C2952 H2968 0.931 . S
C2953 C2952 1.370 . S
C2953 C2957 1.408 . S
C2954 C2952 1.363 . S
C2954 C2955 1.370 . S
C2954 C2958 1.524 . S
C2955 C2947 1.503 . S
C2955 C2954 1.370 . S
C2955 C2956 1.403 . S
C2956 C2955 1.403 . S
C2956 C2957 1.404 . S
C2956 C2959 1.539 . S
C2957 C2953 1.408 . S
C2957 C2956 1.404 . S
C2957 H2969 0.930 . S
C2958 C2954 1.524 . S
C2958 H2970 0.956 . S
C2958 H2971 0.961 . S
C2958 H2972 0.961 . S
C2959 C2956 1.539 . S
C2959 H2973 0.958 . S
C2959 H2974 0.961 . S
C2959 H2975 0.960 . S
H2960 C2944 0.931 . S
H2961 C2949 0.929 . S
H2962 C2950 0.960 . S
H2963 C2950 0.962 . S
H2964 C2950 0.960 . S
H2965 C2951 0.961 . S
H2966 C2951 0.961 . S
H2967 C2951 0.961 . S
H2968 C2952 0.931 . S
H2969 C2957 0.930 . S
H2970 C2958 0.956 . S
H2971 C2958 0.961 . S
H2972 C2958 0.961 . S
H2973 C2959 0.958 . S
H2974 C2959 0.961 . S
H2975 C2959 0.960 . S
C2976 C2977 1.391 . S
C2976 C2978 1.394 . S
C2976 H2992 0.931 . S
C2977 C2976 1.391 . S
C2977 C2981 1.376 . S
C2978 C2976 1.394 . S
C2978 C2979 1.369 . S
C2978 C2982 1.531 . S
C2979 C2978 1.369 . S
C2979 C2980 1.410 . S
C2979 C2987 1.503 1_554 S
C2980 C2979 1.410 . S
C2980 C2981 1.392 . S
C2980 C2983 1.511 . S
C2981 C2977 1.376 . S
C2981 C2980 1.392 . S
C2981 H2993 0.929 . S
C2982 C2978 1.531 . S
C2982 H2994 0.960 . S
C2982 H2995 0.962 . S
C2982 H2996 0.960 . S
C2983 C2980 1.511 . S
C2983 H2997 0.961 . S
C2983 H2998 1.017 . S
C2983 H2999 0.961 . S
C2984 C2985 1.370 . S
C2984 C2986 1.363 . S
C2984 H3000 0.931 . S
C2985 C2984 1.370 . S
C2985 C2989 1.408 . S
C2986 C2984 1.363 . S
C2986 C2987 1.370 . S
C2986 C2990 1.524 . S
C2987 C2979 1.503 1_556 S
C2987 C2986 1.370 . S
C2987 C2988 1.403 . S
C2988 C2987 1.403 . S
C2988 C2989 1.404 . S
C2988 C2991 1.539 . S
C2989 C2985 1.408 . S
C2989 C2988 1.404 . S
C2989 H3001 0.930 . S
C2990 C2986 1.524 . S
C2990 H3002 0.956 1_556 S
C2990 H3003 0.961 1_556 S
C2990 H3004 0.961 . S
C2991 C2988 1.539 . S
C2991 H3005 0.958 . S
C2991 H3006 0.961 . S
C2991 H3007 0.960 1_556 S
H2992 C2976 0.931 . S
H2993 C2981 0.929 . S
H2994 C2982 0.960 . S
H2995 C2982 0.962 . S
H2996 C2982 0.960 . S
H2997 C2983 0.961 . S
H2998 C2983 1.017 . S
H2999 C2983 0.961 . S
H3000 C2984 0.931 . S
H3001 C2989 0.930 . S
H3002 C2990 0.956 1_554 S
H3003 C2990 0.961 1_554 S
H3004 C2990 0.961 . S
H3005 C2991 0.958 . S
H3006 C2991 0.961 . S
H3007 C2991 0.960 1_554 S
C3008 C3009 1.391 . S
C3008 C3010 1.394 . S
C3008 H3024 0.931 . S
C3009 C3008 1.391 . S
C3009 C3013 1.376 . S
C3010 C3008 1.394 . S
C3010 C3011 1.369 . S
C3010 C3014 1.531 . S
C3011 C3010 1.369 . S
C3011 C3012 1.410 . S
C3011 C3019 1.503 1_556 S
C3012 C3011 1.410 . S
C3012 C3013 1.392 . S
C3012 C3015 1.511 . S
C3013 C3009 1.376 . S
C3013 C3012 1.392 . S
C3013 H3025 0.929 . S
C3014 C3010 1.531 . S
C3014 H3026 0.960 1_556 S
C3014 H3027 0.962 . S
C3014 H3028 0.960 . S
C3015 C3012 1.511 . S
C3015 H3029 0.961 . S
C3015 H3030 0.961 1_556 S
C3015 H3031 0.961 . S
C3016 C3017 1.370 . S
C3016 C3018 1.363 . S
C3016 H3032 0.931 . S
C3017 C3016 1.370 . S
C3017 C3021 1.408 . S
C3018 C3016 1.363 . S
C3018 C3019 1.370 . S
C3018 C3022 1.524 . S
C3019 C3011 1.503 1_554 S
C3019 C3018 1.370 . S
C3019 C3020 1.403 . S
C3020 C3019 1.403 . S
C3020 C3021 1.404 . S
C3020 C3023 1.539 . S
C3021 C3017 1.408 . S
C3021 C3020 1.404 . S
C3021 H3033 0.930 . S
C3022 C3018 1.524 . S
C3022 H3034 0.956 . S
C3022 H3035 0.936 1_554 S
C3022 H3036 0.961 . S
C3023 C3020 1.539 . S
C3023 H3037 0.958 . S
C3023 H3038 0.961 . S
C3023 H3039 0.946 1_554 S
H3024 C3008 0.931 . S
H3025 C3013 0.929 . S
H3026 C3014 0.960 1_554 S
H3027 C3014 0.962 . S
H3028 C3014 0.960 . S
H3029 C3015 0.961 . S
H3030 C3015 0.961 1_554 S
H3031 C3015 0.961 . S
H3032 C3016 0.931 . S
H3033 C3021 0.930 . S
H3034 C3022 0.956 . S
H3035 C3022 0.936 1_556 S
H3036 C3022 0.961 . S
H3037 C3023 0.958 . S
H3038 C3023 0.961 . S
H3039 C3023 0.946 1_556 S
C3040 C3041 1.391 . S
C3040 C3042 1.394 . S
C3040 H3056 0.931 . S
C3041 C3040 1.391 . S
C3041 C3045 1.376 . S
C3042 C3040 1.394 . S
C3042 C3043 1.369 . S
C3042 C3046 1.531 . S
C3043 C3042 1.369 . S
C3043 C3044 1.410 . S
C3043 C3051 1.503 1_554 S
C3044 C3043 1.410 . S
C3044 C3045 1.392 . S
C3044 C3047 1.511 . S
C3045 C3041 1.376 . S
C3045 C3044 1.392 . S
C3045 H3057 0.929 . S
C3046 C3042 1.531 . S
C3046 H3058 0.960 1_554 S
C3046 H3059 0.962 . S
C3046 H3060 0.960 . S
C3047 C3044 1.511 . S
C3047 H3061 0.961 . S
C3047 H3062 0.961 1_554 S
C3047 H3063 0.961 . S
C3048 C3049 1.370 . S
C3048 C3050 1.363 . S
C3048 H3064 0.931 . S
C3049 C3048 1.370 . S
C3049 C3053 1.408 . S
C3050 C3048 1.363 . S
C3050 C3051 1.370 . S
C3050 C3054 1.524 . S
C3051 C3043 1.503 1_556 S
C3051 C3050 1.370 . S
C3051 C3052 1.403 . S
C3052 C3051 1.403 . S
C3052 C3053 1.404 . S
C3052 C3055 1.539 . S
C3053 C3049 1.408 . S
C3053 C3052 1.404 . S
C3053 H3065 0.930 . S
C3054 C3050 1.524 . S
C3054 H3066 0.966 . S
C3054 H3067 0.961 1_556 S
C3054 H3068 0.961 . S
C3055 C3052 1.539 . S
C3055 H3069 0.958 . S
C3055 H3070 0.961 . S
C3055 H3071 0.965 1_556 S
H3056 C3040 0.931 . S
H3057 C3045 0.929 . S
H3058 C3046 0.960 1_556 S
H3059 C3046 0.962 . S
H3060 C3046 0.960 . S
H3061 C3047 0.961 . S
H3062 C3047 0.961 1_556 S
H3063 C3047 0.961 . S
H3064 C3048 0.931 . S
H3065 C3053 0.930 . S
H3066 C3054 0.966 . S
H3067 C3054 0.961 1_554 S
H3068 C3054 0.961 . S
H3069 C3055 0.958 . S
H3070 C3055 0.961 . S
H3071 C3055 0.965 1_554 S
C3072 C3073 1.391 . S
C3072 C3074 1.394 . S
C3072 H3088 0.931 . S
C3073 C3072 1.391 . S
C3073 C3077 1.376 . S
C3074 C3072 1.394 . S
C3074 C3075 1.369 . S
C3074 C3078 1.531 . S
C3075 C3074 1.369 . S
C3075 C3076 1.410 . S
C3075 C3083 1.503 1_554 S
C3076 C3075 1.410 . S
C3076 C3077 1.392 . S
C3076 C3079 1.511 . S
C3077 C3073 1.376 . S
C3077 C3076 1.392 . S
C3077 H3089 0.929 . S
C3078 C3074 1.531 . S
C3078 H3090 0.960 1_554 S
C3078 H3091 0.962 . S
C3078 H3092 0.960 . S
C3079 C3076 1.511 . S
C3079 H3093 0.961 . S
C3079 H3094 0.938 1_554 S
C3079 H3095 0.961 . S
C3080 C3081 1.370 . S
C3080 C3082 1.363 . S
C3080 H3096 0.931 . S
C3081 C3080 1.370 . S
C3081 C3085 1.408 . S
C3082 C3080 1.363 . S
C3082 C3083 1.370 . S
C3082 C3086 1.524 . S
C3083 C3075 1.503 1_556 S
C3083 C3082 1.370 . S
C3083 C3084 1.403 . S
C3084 C3083 1.403 . S
C3084 C3085 1.404 . S
C3084 C3087 1.539 . S
C3085 C3081 1.408 . S
C3085 C3084 1.404 . S
C3085 H3097 0.930 . S
C3086 C3082 1.524 . S
C3086 H3098 0.957 1_556 S
C3086 H3099 0.961 1_556 S
C3086 H3100 0.961 . S
C3087 C3084 1.539 . S
C3087 H3101 0.958 . S
C3087 H3102 0.961 . S
C3087 H3103 0.931 1_556 S
H3088 C3072 0.931 . S
H3089 C3077 0.929 . S
H3090 C3078 0.960 1_556 S
H3091 C3078 0.962 . S
H3092 C3078 0.960 . S
H3093 C3079 0.961 . S
H3094 C3079 0.938 1_556 S
H3095 C3079 0.961 . S
H3096 C3080 0.931 . S
H3097 C3085 0.930 . S
H3098 C3086 0.957 1_554 S
H3099 C3086 0.961 1_554 S
H3100 C3086 0.961 . S
H3101 C3087 0.958 . S
H3102 C3087 0.961 . S
H3103 C3087 0.931 1_554 S
C3104 C3105 1.391 . S
C3104 C3106 1.394 . S
C3104 H3120 0.931 . S
C3105 C3104 1.391 . S
C3105 C3109 1.376 . S
C3106 C3104 1.394 . S
C3106 C3107 1.369 . S
C3106 C3110 1.531 . S
C3107 C3106 1.369 . S
C3107 C3108 1.410 . S
C3107 C3115 1.503 1_556 S
C3108 C3107 1.410 . S
C3108 C3109 1.392 . S
C3108 C3111 1.511 . S
C3109 C3105 1.376 . S
C3109 C3108 1.392 . S
C3109 H3121 0.929 . S
C3110 C3106 1.531 . S
C3110 H3122 0.960 1_556 S
C3110 H3123 0.962 . S
C3110 H3124 0.960 . S
C3111 C3108 1.511 . S
C3111 H3125 0.961 . S
C3111 H3126 0.961 1_556 S
C3111 H3127 0.961 . S
C3112 C3113 1.370 . S
C3112 C3114 1.363 . S
C3112 H3128 0.931 . S
C3113 C3112 1.370 . S
C3113 C3117 1.408 . S
C3114 C3112 1.363 . S
C3114 C3115 1.370 . S
C3114 C3118 1.524 . S
C3115 C3107 1.503 1_554 S
C3115 C3114 1.370 . S
C3115 C3116 1.403 . S
C3116 C3115 1.403 . S
C3116 C3117 1.404 . S
C3116 C3119 1.539 . S
C3117 C3113 1.408 . S
C3117 C3116 1.404 . S
C3117 H3129 0.930 . S
C3118 C3114 1.524 . S
C3118 H3130 0.984 . S
C3118 H3131 0.961 1_554 S
C3118 H3132 0.961 . S
C3119 C3116 1.539 . S
C3119 H3133 0.958 . S
C3119 H3134 0.961 . S
C3119 H3135 0.960 . S
H3120 C3104 0.931 . S
H3121 C3109 0.929 . S
H3122 C3110 0.960 1_554 S
H3123 C3110 0.962 . S
H3124 C3110 0.960 . S
H3125 C3111 0.961 . S
H3126 C3111 0.961 1_554 S
H3127 C3111 0.961 . S
H3128 C3112 0.931 . S
H3129 C3117 0.930 . S
H3130 C3118 0.984 . S
H3131 C3118 0.961 1_556 S
H3132 C3118 0.961 . S
H3133 C3119 0.958 . S
H3134 C3119 0.961 . S
H3135 C3119 0.960 . S
C3136 C3137 1.391 . S
C3136 C3138 1.394 . S
C3136 H3152 0.931 . S
C3137 C3136 1.391 . S
C3137 C3141 1.376 . S
C3138 C3136 1.394 . S
C3138 C3139 1.369 . S
C3138 C3142 1.531 . S
C3139 C3138 1.369 . S
C3139 C3140 1.410 . S
C3139 C3147 1.503 1_554 S
C3140 C3139 1.410 . S
C3140 C3141 1.392 . S
C3140 C3143 1.511 . S
C3141 C3137 1.376 . S
C3141 C3140 1.392 . S
C3141 H3153 0.929 . S
C3142 C3138 1.531 . S
C3142 H3154 0.930 1_554 S
C3142 H3155 0.962 . S
C3142 H3156 0.960 . S
C3143 C3140 1.511 . S
C3143 H3157 0.961 . S
C3143 H3158 0.961 1_554 S
C3143 H3159 0.961 . S
C3144 C3145 1.370 . S
C3144 C3146 1.363 . S
C3144 H3160 0.931 . S
C3145 C3144 1.370 . S
C3145 C3149 1.408 . S
C3146 C3144 1.363 . S
C3146 C3147 1.370 . S
C3146 C3150 1.524 . S
C3147 C3139 1.503 1_556 S
C3147 C3146 1.370 . S
C3147 C3148 1.403 . S
C3148 C3147 1.403 . S
C3148 C3149 1.404 . S
C3148 C3151 1.539 . S
C3149 C3145 1.408 . S
C3149 C3148 1.404 . S
C3149 H3161 0.930 . S
C3150 C3146 1.524 . S
C3150 H3162 0.969 . S
C3150 H3163 0.961 1_556 S
C3150 H3164 0.961 . S
C3151 C3148 1.539 . S
C3151 H3165 0.958 . S
C3151 H3166 0.961 . S
C3151 H3167 0.954 1_556 S
H3152 C3136 0.931 . S
H3153 C3141 0.929 . S
H3154 C3142 0.930 1_556 S
H3155 C3142 0.962 . S
H3156 C3142 0.960 . S
H3157 C3143 0.961 . S
H3158 C3143 0.961 1_556 S
H3159 C3143 0.961 . S
H3160 C3144 0.931 . S
H3161 C3149 0.930 . S
H3162 C3150 0.969 . S
H3163 C3150 0.961 1_554 S
H3164 C3150 0.961 . S
H3165 C3151 0.958 . S
H3166 C3151 0.961 . S
H3167 C3151 0.954 1_554 S
C3168 C3169 1.391 . S
C3168 C3170 1.394 . S
C3168 H3184 0.931 . S
C3169 C3168 1.391 . S
C3169 C3173 1.376 . S
C3170 C3168 1.394 . S
C3170 C3171 1.369 . S
C3170 C3174 1.531 . S
C3171 C3170 1.369 . S
C3171 C3172 1.410 . S
C3171 C3179 1.503 1_556 S
C3172 C3171 1.410 . S
C3172 C3173 1.392 . S
C3172 C3175 1.511 . S
C3173 C3169 1.376 . S
C3173 C3172 1.392 . S
C3173 H3185 0.929 . S
C3174 C3170 1.531 . S
C3174 H3186 0.960 1_556 S
C3174 H3187 0.962 . S
C3174 H3188 0.960 . S
C3175 C3172 1.511 . S
C3175 H3189 0.961 . S
C3175 H3190 0.961 1_556 S
C3175 H3191 0.961 . S
C3176 C3177 1.370 . S
C3176 C3178 1.363 . S
C3176 H3192 0.931 . S
C3177 C3176 1.370 . S
C3177 C3181 1.408 . S
C3178 C3176 1.363 . S
C3178 C3179 1.370 . S
C3178 C3182 1.524 . S
C3179 C3171 1.503 1_554 S
C3179 C3178 1.370 . S
C3179 C3180 1.403 . S
C3180 C3179 1.403 . S
C3180 C3181 1.404 . S
C3180 C3183 1.539 . S
C3181 C3177 1.408 . S
C3181 C3180 1.404 . S
C3181 H3193 0.930 . S
C3182 C3178 1.524 . S
C3182 H3194 0.956 . S
C3182 H3195 1.001 . S
C3182 H3196 0.961 . S
C3183 C3180 1.539 . S
C3183 H3197 0.958 . S
C3183 H3198 0.961 . S
C3183 H3199 1.018 . S
H3184 C3168 0.931 . S
H3185 C3173 0.929 . S
H3186 C3174 0.960 1_554 S
H3187 C3174 0.962 . S
H3188 C3174 0.960 . S
H3189 C3175 0.961 . S
H3190 C3175 0.961 1_554 S
H3191 C3175 0.961 . S
H3192 C3176 0.931 . S
H3193 C3181 0.930 . S
H3194 C3182 0.956 . S
H3195 C3182 1.001 . S
H3196 C3182 0.961 . S
H3197 C3183 0.958 . S
H3198 C3183 0.961 . S
H3199 C3183 1.018 . S
C3200 C3201 1.391 . S
C3200 C3202 1.394 . S
C3200 H3216 0.931 . S
C3201 C3200 1.391 . S
C3201 C3205 1.376 . S
C3202 C3200 1.394 . S
C3202 C3203 1.369 . S
C3202 C3206 1.531 . S
C3203 C3202 1.369 . S
C3203 C3204 1.410 . S
C3203 C3211 1.503 1_554 S
C3204 C3203 1.410 . S
C3204 C3205 1.392 . S
C3204 C3207 1.511 . S
C3205 C3201 1.376 . S
C3205 C3204 1.392 . S
C3205 H3217 0.929 . S
C3206 C3202 1.531 . S
C3206 H3218 0.960 1_554 S
C3206 H3219 0.962 . S
C3206 H3220 0.960 . S
C3207 C3204 1.511 . S
C3207 H3221 0.961 . S
C3207 H3222 0.961 1_554 S
C3207 H3223 0.961 . S
C3208 C3209 1.370 . S
C3208 C3210 1.363 . S
C3208 H3224 0.931 . S
C3209 C3208 1.370 . S
C3209 C3213 1.408 . S
C3210 C3208 1.363 . S
C3210 C3211 1.370 . S
C3210 C3214 1.524 . S
C3211 C3203 1.503 1_556 S
C3211 C3210 1.370 . S
C3211 C3212 1.403 . S
C3212 C3211 1.403 . S
C3212 C3213 1.404 . S
C3212 C3215 1.539 . S
C3213 C3209 1.408 . S
C3213 C3212 1.404 . S
C3213 H3225 0.930 . S
C3214 C3210 1.524 . S
C3214 H3226 0.956 . S
C3214 H3227 0.996 . S
C3214 H3228 0.961 . S
C3215 C3212 1.539 . S
C3215 H3229 0.958 . S
C3215 H3230 0.961 . S
C3215 H3231 0.960 . S
H3216 C3200 0.931 . S
H3217 C3205 0.929 . S
H3218 C3206 0.960 1_556 S
H3219 C3206 0.962 . S
H3220 C3206 0.960 . S
H3221 C3207 0.961 . S
H3222 C3207 0.961 1_556 S
H3223 C3207 0.961 . S
H3224 C3208 0.931 . S
H3225 C3213 0.930 . S
H3226 C3214 0.956 . S
H3227 C3214 0.996 . S
H3228 C3214 0.961 . S
H3229 C3215 0.958 . S
H3230 C3215 0.961 . S
H3231 C3215 0.960 . S
C3232 C3233 1.391 . S
C3232 C3234 1.394 . S
C3232 H3248 0.931 . S
C3233 C3232 1.391 . S
C3233 C3237 1.376 . S
C3234 C3232 1.394 . S
C3234 C3235 1.369 . S
C3234 C3238 1.531 . S
C3235 C3234 1.369 . S
C3235 C3236 1.410 . S
C3235 C3243 1.503 1_455 S
C3236 C3235 1.410 . S
C3236 C3237 1.392 . S
C3236 C3239 1.511 . S
C3237 C3233 1.376 . S
C3237 C3236 1.392 . S
C3237 H3249 0.929 . S
C3238 C3234 1.531 . S
C3238 H3250 0.928 1_455 S
C3238 H3251 0.962 . S
C3238 H3252 0.960 . S
C3239 C3236 1.511 . S
C3239 H3253 0.961 . S
C3239 H3254 0.961 1_455 S
C3239 H3255 0.961 . S
C3240 C3241 1.370 . S
C3240 C3242 1.363 . S
C3240 H3256 0.931 . S
C3241 C3240 1.370 . S
C3241 C3245 1.408 . S
C3242 C3240 1.363 . S
C3242 C3243 1.370 . S
C3242 C3246 1.524 . S
C3243 C3235 1.503 1_655 S
C3243 C3242 1.370 . S
C3243 C3244 1.403 . S
C3244 C3243 1.403 . S
C3244 C3245 1.404 . S
C3244 C3247 1.539 . S
C3245 C3241 1.408 . S
C3245 C3244 1.404 . S
C3245 H3257 0.930 . S
C3246 C3242 1.524 . S
C3246 H3258 0.969 . S
C3246 H3259 0.961 1_655 S
C3246 H3260 0.961 . S
C3247 C3244 1.539 . S
C3247 H3261 0.958 . S
C3247 H3262 0.961 . S
C3247 H3263 0.944 1_655 S
H3248 C3232 0.931 . S
H3249 C3237 0.929 . S
H3250 C3238 0.928 1_655 S
H3251 C3238 0.962 . S
H3252 C3238 0.960 . S
H3253 C3239 0.961 . S
H3254 C3239 0.961 1_655 S
H3255 C3239 0.961 . S
H3256 C3240 0.931 . S
H3257 C3245 0.930 . S
H3258 C3246 0.969 . S
H3259 C3246 0.961 1_455 S
H3260 C3246 0.961 . S
H3261 C3247 0.958 . S
H3262 C3247 0.961 . S
H3263 C3247 0.944 1_455 S
C3264 C3265 1.391 . S
C3264 C3266 1.394 . S
C3264 H3280 0.931 . S
C3265 C3264 1.391 . S
C3265 C3269 1.376 . S
C3266 C3264 1.394 . S
C3266 C3267 1.369 . S
C3266 C3270 1.531 . S
C3267 C3266 1.369 . S
C3267 C3268 1.410 . S
C3267 C3275 1.503 1_565 S
C3268 C3267 1.410 . S
C3268 C3269 1.392 . S
C3268 C3271 1.511 . S
C3269 C3265 1.376 . S
C3269 C3268 1.392 . S
C3269 H3281 0.929 . S
C3270 C3266 1.531 . S
C3270 H3282 0.960 1_565 S
C3270 H3283 0.962 . S
C3270 H3284 0.960 . S
C3271 C3268 1.511 . S
C3271 H3285 0.961 . S
C3271 H3286 0.961 1_565 S
C3271 H3287 0.961 . S
C3272 C3273 1.370 . S
C3272 C3274 1.363 . S
C3272 H3288 0.931 . S
C3273 C3272 1.370 . S
C3273 C3277 1.408 . S
C3274 C3272 1.363 . S
C3274 C3275 1.370 . S
C3274 C3278 1.524 . S
C3275 C3267 1.503 1_545 S
C3275 C3274 1.370 . S
C3275 C3276 1.403 . S
C3276 C3275 1.403 . S
C3276 C3277 1.404 . S
C3276 C3279 1.539 . S
C3277 C3273 1.408 . S
C3277 C3276 1.404 . S
C3277 H3289 0.930 . S
C3278 C3274 1.524 . S
C3278 H3290 0.956 . S
C3278 H3291 0.952 1_545 S
C3278 H3292 0.961 . S
C3279 C3276 1.539 . S
C3279 H3293 0.958 . S
C3279 H3294 0.961 . S
C3279 H3295 0.960 . S
H3280 C3264 0.931 . S
H3281 C3269 0.929 . S
H3282 C3270 0.960 1_545 S
H3283 C3270 0.962 . S
H3284 C3270 0.960 . S
H3285 C3271 0.961 . S
H3286 C3271 0.961 1_545 S
H3287 C3271 0.961 . S
H3288 C3272 0.931 . S
H3289 C3277 0.930 . S
H3290 C3278 0.956 . S
H3291 C3278 0.952 1_565 S
H3292 C3278 0.961 . S
H3293 C3279 0.958 . S
H3294 C3279 0.961 . S
H3295 C3279 0.960 . S
C3296 C3297 1.391 . S
C3296 C3298 1.394 . S
C3296 H3312 0.931 . S
C3297 C3296 1.391 . S
C3297 C3301 1.376 . S
C3298 C3296 1.394 . S
C3298 C3299 1.369 . S
C3298 C3302 1.531 . S
C3299 C3298 1.369 . S
C3299 C3300 1.410 . S
C3299 C3307 1.503 1_455 S
C3300 C3299 1.410 . S
C3300 C3301 1.392 . S
C3300 C3303 1.511 . S
C3301 C3297 1.376 . S
C3301 C3300 1.392 . S
C3301 H3313 0.929 . S
C3302 C3298 1.531 . S
C3302 H3314 0.960 . S
C3302 H3315 0.962 . S
C3302 H3316 0.960 . S
C3303 C3300 1.511 . S
C3303 H3317 0.961 . S
C3303 H3318 1.000 . S
C3303 H3319 0.961 . S
C3304 C3305 1.370 . S
C3304 C3306 1.363 . S
C3304 H3320 0.931 . S
C3305 C3304 1.370 . S
C3305 C3309 1.408 . S
C3306 C3304 1.363 . S
C3306 C3307 1.370 . S
C3306 C3310 1.524 . S
C3307 C3299 1.503 1_655 S
C3307 C3306 1.370 . S
C3307 C3308 1.403 . S
C3308 C3307 1.403 . S
C3308 C3309 1.404 . S
C3308 C3311 1.539 . S
C3309 C3305 1.408 . S
C3309 C3308 1.404 . S
C3309 H3321 0.930 . S
C3310 C3306 1.524 . S
C3310 H3322 0.956 1_655 S
C3310 H3323 0.961 1_655 S
C3310 H3324 0.961 . S
C3311 C3308 1.539 . S
C3311 H3325 0.958 . S
C3311 H3326 0.961 . S
C3311 H3327 0.960 1_655 S
H3312 C3296 0.931 . S
H3313 C3301 0.929 . S
H3314 C3302 0.960 . S
H3315 C3302 0.962 . S
H3316 C3302 0.960 . S
H3317 C3303 0.961 . S
H3318 C3303 1.000 . S
H3319 C3303 0.961 . S
H3320 C3304 0.931 . S
H3321 C3309 0.930 . S
H3322 C3310 0.956 1_455 S
H3323 C3310 0.961 1_455 S
H3324 C3310 0.961 . S
H3325 C3311 0.958 . S
H3326 C3311 0.961 . S
H3327 C3311 0.960 1_455 S
C3328 C3329 1.391 . S
C3328 C3330 1.394 . S
C3328 H3344 0.931 . S
C3329 C3328 1.391 . S
C3329 C3333 1.376 . S
C3330 C3328 1.394 . S
C3330 C3331 1.369 . S
C3330 C3334 1.531 . S
C3331 C3330 1.369 . S
C3331 C3332 1.410 . S
C3331 C3339 1.503 1_565 S
C3332 C3331 1.410 . S
C3332 C3333 1.392 . S
C3332 C3335 1.511 . S
C3333 C3329 1.376 . S
C3333 C3332 1.392 . S
C3333 H3345 0.929 . S
C3334 C3330 1.531 . S
C3334 H3346 0.960 1_565 S
C3334 H3347 0.962 . S
C3334 H3348 0.960 . S
C3335 C3332 1.511 . S
C3335 H3349 0.961 . S
C3335 H3350 0.961 1_565 S
C3335 H3351 0.961 . S
C3336 C3337 1.370 . S
C3336 C3338 1.363 . S
C3336 H3352 0.931 . S
C3337 C3336 1.370 . S
C3337 C3341 1.408 . S
C3338 C3336 1.363 . S
C3338 C3339 1.370 . S
C3338 C3342 1.524 . S
C3339 C3331 1.503 1_545 S
C3339 C3338 1.370 . S
C3339 C3340 1.403 . S
C3340 C3339 1.403 . S
C3340 C3341 1.404 . S
C3340 C3343 1.539 . S
C3341 C3337 1.408 . S
C3341 C3340 1.404 . S
C3341 H3353 0.930 . S
C3342 C3338 1.524 . S
C3342 H3354 0.956 . S
C3342 H3355 0.961 . S
C3342 H3356 0.961 . S
C3343 C3340 1.539 . S
C3343 H3357 0.958 . S
C3343 H3358 0.961 . S
C3343 H3359 0.960 . S
H3344 C3328 0.931 . S
H3345 C3333 0.929 . S
H3346 C3334 0.960 1_545 S
H3347 C3334 0.962 . S
H3348 C3334 0.960 . S
H3349 C3335 0.961 . S
H3350 C3335 0.961 1_545 S
H3351 C3335 0.961 . S
H3352 C3336 0.931 . S
H3353 C3341 0.930 . S
H3354 C3342 0.956 . S
H3355 C3342 0.961 . S
H3356 C3342 0.961 . S
H3357 C3343 0.958 . S
H3358 C3343 0.961 . S
H3359 C3343 0.960 . S
C3360 C3361 1.391 . S
C3360 C3362 1.394 . S
C3360 H3376 0.931 . S
C3361 C3360 1.391 . S
C3361 C3365 1.376 . S
C3362 C3360 1.394 . S
C3362 C3363 1.369 . S
C3362 C3366 1.531 . S
C3363 C3362 1.369 . S
C3363 C3364 1.410 . S
C3363 C3371 1.503 1_655 S
C3364 C3363 1.410 . S
C3364 C3365 1.392 . S
C3364 C3367 1.511 . S
C3365 C3361 1.376 . S
C3365 C3364 1.392 . S
C3365 H3377 0.929 . S
C3366 C3362 1.531 . S
C3366 H3378 1.000 . S
C3366 H3379 0.962 . S
C3366 H3380 0.960 . S
C3367 C3364 1.511 . S
C3367 H3381 0.961 . S
C3367 H3382 0.950 1_655 S
C3367 H3383 0.961 . S
C3368 C3369 1.370 . S
C3368 C3370 1.363 . S
C3368 H3384 0.931 . S
C3369 C3368 1.370 . S
C3369 C3373 1.408 . S
C3370 C3368 1.363 . S
C3370 C3371 1.370 . S
C3370 C3374 1.524 . S
C3371 C3363 1.503 1_455 S
C3371 C3370 1.370 . S
C3371 C3372 1.403 . S
C3372 C3371 1.403 . S
C3372 C3373 1.404 . S
C3372 C3375 1.539 . S
C3373 C3369 1.408 . S
C3373 C3372 1.404 . S
C3373 H3385 0.930 . S
C3374 C3370 1.524 . S
C3374 H3386 0.956 1_455 S
C3374 H3387 0.961 1_455 S
C3374 H3388 0.961 . S
C3375 C3372 1.539 . S
C3375 H3389 0.958 . S
C3375 H3390 0.961 . S
C3375 H3391 0.960 1_455 S
H3376 C3360 0.931 . S
H3377 C3365 0.929 . S
H3378 C3366 1.000 . S
H3379 C3366 0.962 . S
H3380 C3366 0.960 . S
H3381 C3367 0.961 . S
H3382 C3367 0.950 1_455 S
H3383 C3367 0.961 . S
H3384 C3368 0.931 . S
H3385 C3373 0.930 . S
H3386 C3374 0.956 1_655 S
H3387 C3374 0.961 1_655 S
H3388 C3374 0.961 . S
H3389 C3375 0.958 . S
H3390 C3375 0.961 . S
H3391 C3375 0.960 1_655 S
C3392 C3393 1.391 . S
C3392 C3394 1.394 . S
C3392 H3408 0.931 . S
C3393 C3392 1.391 . S
C3393 C3397 1.376 . S
C3394 C3392 1.394 . S
C3394 C3395 1.369 . S
C3394 C3398 1.531 . S
C3395 C3394 1.369 . S
C3395 C3396 1.410 . S
C3395 C3403 1.503 1_545 S
C3396 C3395 1.410 . S
C3396 C3397 1.392 . S
C3396 C3399 1.511 . S
C3397 C3393 1.376 . S
C3397 C3396 1.392 . S
C3397 H3409 0.929 . S
C3398 C3394 1.531 . S
C3398 H3410 0.960 1_545 S
C3398 H3411 0.962 . S
C3398 H3412 0.960 . S
C3399 C3396 1.511 . S
C3399 H3413 0.961 . S
C3399 H3414 0.961 1_545 S
C3399 H3415 0.961 . S
C3400 C3401 1.370 . S
C3400 C3402 1.363 . S
C3400 H3416 0.931 . S
C3401 C3400 1.370 . S
C3401 C3405 1.408 . S
C3402 C3400 1.363 . S
C3402 C3403 1.370 . S
C3402 C3406 1.524 . S
C3403 C3395 1.503 1_565 S
C3403 C3402 1.370 . S
C3403 C3404 1.403 . S
C3404 C3403 1.403 . S
C3404 C3405 1.404 . S
C3404 C3407 1.539 . S
C3405 C3401 1.408 . S
C3405 C3404 1.404 . S
C3405 H3417 0.930 . S
C3406 C3402 1.524 . S
C3406 H3418 0.973 . S
C3406 H3419 0.933 1_565 S
C3406 H3420 0.961 . S
C3407 C3404 1.539 . S
C3407 H3421 0.958 . S
C3407 H3422 0.961 . S
C3407 H3423 0.960 . S
H3408 C3392 0.931 . S
H3409 C3397 0.929 . S
H3410 C3398 0.960 1_565 S
H3411 C3398 0.962 . S
H3412 C3398 0.960 . S
H3413 C3399 0.961 . S
H3414 C3399 0.961 1_565 S
H3415 C3399 0.961 . S
H3416 C3400 0.931 . S
H3417 C3405 0.930 . S
H3418 C3406 0.973 . S
H3419 C3406 0.933 1_545 S
H3420 C3406 0.961 . S
H3421 C3407 0.958 . S
H3422 C3407 0.961 . S
H3423 C3407 0.960 . S
C3424 C3425 1.391 . S
C3424 C3426 1.394 . S
C3424 H3440 0.931 . S
C3425 C3424 1.391 . S
C3425 C3429 1.376 . S
C3426 C3424 1.394 . S
C3426 C3427 1.369 . S
C3426 C3430 1.531 . S
C3427 C3426 1.369 . S
C3427 C3428 1.410 . S
C3427 C3435 1.503 1_455 S
C3428 C3427 1.410 . S
C3428 C3429 1.392 . S
C3428 C3431 1.511 . S
C3429 C3425 1.376 . S
C3429 C3428 1.392 . S
C3429 H3441 0.929 . S
C3430 C3426 1.531 . S
C3430 H3442 0.960 1_455 S
C3430 H3443 0.962 . S
C3430 H3444 0.960 . S
C3431 C3428 1.511 . S
C3431 H3445 0.961 . S
C3431 H3446 0.961 1_455 S
C3431 H3447 0.961 . S
C3432 C3433 1.370 . S
C3432 C3434 1.363 . S
C3432 H3448 0.931 . S
C3433 C3432 1.370 . S
C3433 C3437 1.408 . S
C3434 C3432 1.363 . S
C3434 C3435 1.370 . S
C3434 C3438 1.524 . S
C3435 C3427 1.503 1_655 S
C3435 C3434 1.370 . S
C3435 C3436 1.403 . S
C3436 C3435 1.403 . S
C3436 C3437 1.404 . S
C3436 C3439 1.539 . S
C3437 C3433 1.408 . S
C3437 C3436 1.404 . S
C3437 H3449 0.930 . S
C3438 C3434 1.524 . S
C3438 H3450 0.956 . S
C3438 H3451 0.961 1_655 S
C3438 H3452 0.961 . S
C3439 C3436 1.539 . S
C3439 H3453 0.958 . S
C3439 H3454 0.961 . S
C3439 H3455 1.007 . S
H3440 C3424 0.931 . S
H3441 C3429 0.929 . S
H3442 C3430 0.960 1_655 S
H3443 C3430 0.962 . S
H3444 C3430 0.960 . S
H3445 C3431 0.961 . S
H3446 C3431 0.961 1_655 S
H3447 C3431 0.961 . S
H3448 C3432 0.931 . S
H3449 C3437 0.930 . S
H3450 C3438 0.956 . S
H3451 C3438 0.961 1_455 S
H3452 C3438 0.961 . S
H3453 C3439 0.958 . S
H3454 C3439 0.961 . S
H3455 C3439 1.007 . S
C3456 C3457 1.391 . S
C3456 C3458 1.394 . S
C3456 H3472 0.931 . S
C3457 C3456 1.391 . S
C3457 C3461 1.376 . S
C3458 C3456 1.394 . S
C3458 C3459 1.369 . S
C3458 C3462 1.531 . S
C3459 C3458 1.369 . S
C3459 C3460 1.410 . S
C3459 C3467 1.503 1_545 S
C3460 C3459 1.410 . S
C3460 C3461 1.392 . S
C3460 C3463 1.511 . S
C3461 C3457 1.376 . S
C3461 C3460 1.392 . S
C3461 H3473 0.929 . S
C3462 C3458 1.531 . S
C3462 H3474 0.960 1_545 S
C3462 H3475 0.962 . S
C3462 H3476 0.960 . S
C3463 C3460 1.511 . S
C3463 H3477 0.961 . S
C3463 H3478 0.961 1_545 S
C3463 H3479 0.961 . S
C3464 C3465 1.370 . S
C3464 C3466 1.363 . S
C3464 H3480 0.931 . S
C3465 C3464 1.370 . S
C3465 C3469 1.408 . S
C3466 C3464 1.363 . S
C3466 C3467 1.370 . S
C3466 C3470 1.524 . S
C3467 C3459 1.503 1_565 S
C3467 C3466 1.370 . S
C3467 C3468 1.403 . S
C3468 C3467 1.403 . S
C3468 C3469 1.404 . S
C3468 C3471 1.539 . S
C3469 C3465 1.408 . S
C3469 C3468 1.404 . S
C3469 H3481 0.930 . S
C3470 C3466 1.524 . S
C3470 H3482 0.956 . S
C3470 H3483 0.961 . S
C3470 H3484 0.961 . S
C3471 C3468 1.539 . S
C3471 H3485 0.958 . S
C3471 H3486 0.961 . S
C3471 H3487 0.960 . S
H3472 C3456 0.931 . S
H3473 C3461 0.929 . S
H3474 C3462 0.960 1_565 S
H3475 C3462 0.962 . S
H3476 C3462 0.960 . S
H3477 C3463 0.961 . S
H3478 C3463 0.961 1_565 S
H3479 C3463 0.961 . S
H3480 C3464 0.931 . S
H3481 C3469 0.930 . S
H3482 C3470 0.956 . S
H3483 C3470 0.961 . S
H3484 C3470 0.961 . S
H3485 C3471 0.958 . S
H3486 C3471 0.961 . S
H3487 C3471 0.960 . S
C3488 C3489 1.391 . S
C3488 C3490 1.394 . S
C3488 H3504 0.931 . S
C3489 C3488 1.391 . S
C3489 C3493 1.376 . S
C3490 C3488 1.394 . S
C3490 C3491 1.369 . S
C3490 C3494 1.531 . S
C3491 C3490 1.369 . S
C3491 C3492 1.410 . S
C3491 C3499 1.503 1_545 S
C3492 C3491 1.410 . S
C3492 C3493 1.392 . S
C3492 C3495 1.511 . S
C3493 C3489 1.376 . S
C3493 C3492 1.392 . S
C3493 H3505 0.929 . S
C3494 C3490 1.531 . S
C3494 H3506 0.960 . S
C3494 H3507 0.962 . S
C3494 H3508 0.960 . S
C3495 C3492 1.511 . S
C3495 H3509 0.961 . S
C3495 H3510 0.961 . S
C3495 H3511 0.961 . S
C3496 C3497 1.370 . S
C3496 C3498 1.363 . S
C3496 H3512 0.931 . S
C3497 C3496 1.370 . S
C3497 C3501 1.408 . S
C3498 C3496 1.363 . S
C3498 C3499 1.370 . S
C3498 C3502 1.524 . S
C3499 C3491 1.503 1_565 S
C3499 C3498 1.370 . S
C3499 C3500 1.403 . S
C3500 C3499 1.403 . S
C3500 C3501 1.404 . S
C3500 C3503 1.539 . S
C3501 C3497 1.408 . S
C3501 C3500 1.404 . S
C3501 H3513 0.930 . S
C3502 C3498 1.524 . S
C3502 H3514 0.956 1_565 S
C3502 H3515 0.961 1_565 S
C3502 H3516 0.961 . S
C3503 C3500 1.539 . S
C3503 H3517 0.958 . S
C3503 H3518 0.961 . S
C3503 H3519 0.960 1_565 S
H3504 C3488 0.931 . S
H3505 C3493 0.929 . S
H3506 C3494 0.960 . S
H3507 C3494 0.962 . S
H3508 C3494 0.960 . S
H3509 C3495 0.961 . S
H3510 C3495 0.961 . S
H3511 C3495 0.961 . S
H3512 C3496 0.931 . S
H3513 C3501 0.930 . S
H3514 C3502 0.956 1_545 S
H3515 C3502 0.961 1_545 S
H3516 C3502 0.961 . S
H3517 C3503 0.958 . S
H3518 C3503 0.961 . S
H3519 C3503 0.960 1_545 S
C3520 C3521 1.391 . S
C3520 C3522 1.394 . S
C3520 H3536 0.931 . S
C3521 C3520 1.391 . S
C3521 C3525 1.376 . S
C3522 C3520 1.394 . S
C3522 C3523 1.369 . S
C3522 C3526 1.531 . S
C3523 C3522 1.369 . S
C3523 C3524 1.410 . S
C3523 C3531 1.503 1_545 S
C3524 C3523 1.410 . S
C3524 C3525 1.392 . S
C3524 C3527 1.511 . S
C3525 C3521 1.376 . S
C3525 C3524 1.392 . S
C3525 H3537 0.929 . S
C3526 C3522 1.531 . S
C3526 H3538 0.943 1_545 S
C3526 H3539 0.962 . S
C3526 H3540 0.960 . S
C3527 C3524 1.511 . S
C3527 H3541 0.961 . S
C3527 H3542 0.953 1_545 S
C3527 H3543 0.961 . S
C3528 C3529 1.370 . S
C3528 C3530 1.363 . S
C3528 H3544 0.931 . S
C3529 C3528 1.370 . S
C3529 C3533 1.408 . S
C3530 C3528 1.363 . S
C3530 C3531 1.370 . S
C3530 C3534 1.524 . S
C3531 C3523 1.503 1_565 S
C3531 C3530 1.370 . S
C3531 C3532 1.403 . S
C3532 C3531 1.403 . S
C3532 C3533 1.404 . S
C3532 C3535 1.539 . S
C3533 C3529 1.408 . S
C3533 C3532 1.404 . S
C3533 H3545 0.930 . S
C3534 C3530 1.524 . S
C3534 H3546 0.933 1_565 S
C3534 H3547 0.961 1_565 S
C3534 H3548 0.961 . S
C3535 C3532 1.539 . S
C3535 H3549 0.958 . S
C3535 H3550 0.961 . S
C3535 H3551 0.960 1_565 S
H3536 C3520 0.931 . S
H3537 C3525 0.929 . S
H3538 C3526 0.943 1_565 S
H3539 C3526 0.962 . S
H3540 C3526 0.960 . S
H3541 C3527 0.961 . S
H3542 C3527 0.953 1_565 S
H3543 C3527 0.961 . S
H3544 C3528 0.931 . S
H3545 C3533 0.930 . S
H3546 C3534 0.933 1_545 S
H3547 C3534 0.961 1_545 S
H3548 C3534 0.961 . S
H3549 C3535 0.958 . S
H3550 C3535 0.961 . S
H3551 C3535 0.960 1_545 S
C3552 C3553 1.391 . S
C3552 C3554 1.394 . S
C3552 H3568 0.931 . S
C3553 C3552 1.391 . S
C3553 C3557 1.376 . S
C3554 C3552 1.394 . S
C3554 C3555 1.369 . S
C3554 C3558 1.531 . S
C3555 C3554 1.369 . S
C3555 C3556 1.410 . S
C3555 C3563 1.503 1_655 S
C3556 C3555 1.410 . S
C3556 C3557 1.392 . S
C3556 C3559 1.511 . S
C3557 C3553 1.376 . S
C3557 C3556 1.392 . S
C3557 H3569 0.929 . S
C3558 C3554 1.531 . S
C3558 H3570 0.957 1_655 S
C3558 H3571 0.962 . S
C3558 H3572 0.960 . S
C3559 C3556 1.511 . S
C3559 H3573 0.961 . S
C3559 H3574 0.961 1_655 S
C3559 H3575 0.961 . S
C3560 C3561 1.370 . S
C3560 C3562 1.363 . S
C3560 H3576 0.931 . S
C3561 C3560 1.370 . S
C3561 C3565 1.408 . S
C3562 C3560 1.363 . S
C3562 C3563 1.370 . S
C3562 C3566 1.524 . S
C3563 C3555 1.503 1_455 S
C3563 C3562 1.370 . S
C3563 C3564 1.403 . S
C3564 C3563 1.403 . S
C3564 C3565 1.404 . S
C3564 C3567 1.539 . S
C3565 C3561 1.408 . S
C3565 C3564 1.404 . S
C3565 H3577 0.930 . S
C3566 C3562 1.524 . S
C3566 H3578 0.959 1_455 S
C3566 H3579 0.961 1_455 S
C3566 H3580 0.961 . S
C3567 C3564 1.539 . S
C3567 H3581 0.958 . S
C3567 H3582 0.961 . S
C3567 H3583 0.905 1_455 S
H3568 C3552 0.931 . S
H3569 C3557 0.929 . S
H3570 C3558 0.957 1_455 S
H3571 C3558 0.962 . S
H3572 C3558 0.960 . S
H3573 C3559 0.961 . S
H3574 C3559 0.961 1_455 S
H3575 C3559 0.961 . S
H3576 C3560 0.931 . S
H3577 C3565 0.930 . S
H3578 C3566 0.959 1_655 S
H3579 C3566 0.961 1_655 S
H3580 C3566 0.961 . S
H3581 C3567 0.958 . S
H3582 C3567 0.961 . S
H3583 C3567 0.905 1_655 S
C3584 C3585 1.391 . S
C3584 C3586 1.394 . S
C3584 H3600 0.931 . S
C3585 C3584 1.391 . S
C3585 C3589 1.376 . S
C3586 C3584 1.394 . S
C3586 C3587 1.369 . S
C3586 C3590 1.531 . S
C3587 C3586 1.369 . S
C3587 C3588 1.410 . S
C3587 C3595 1.503 1_545 S
C3588 C3587 1.410 . S
C3588 C3589 1.392 . S
C3588 C3591 1.511 . S
C3589 C3585 1.376 . S
C3589 C3588 1.392 . S
C3589 H3601 0.929 . S
C3590 C3586 1.531 . S
C3590 H3602 0.960 1_545 S
C3590 H3603 0.962 . S
C3590 H3604 0.960 . S
C3591 C3588 1.511 . S
C3591 H3605 0.961 . S
C3591 H3606 0.961 1_545 S
C3591 H3607 0.961 . S
C3592 C3593 1.370 . S
C3592 C3594 1.363 . S
C3592 H3608 0.931 . S
C3593 C3592 1.370 . S
C3593 C3597 1.408 . S
C3594 C3592 1.363 . S
C3594 C3595 1.370 . S
C3594 C3598 1.524 . S
C3595 C3587 1.503 1_565 S
C3595 C3594 1.370 . S
C3595 C3596 1.403 . S
C3596 C3595 1.403 . S
C3596 C3597 1.404 . S
C3596 C3599 1.539 . S
C3597 C3593 1.408 . S
C3597 C3596 1.404 . S
C3597 H3609 0.930 . S
C3598 C3594 1.524 . S
C3598 H3610 0.956 . S
C3598 H3611 0.963 1_565 S
C3598 H3612 0.961 . S
C3599 C3596 1.539 . S
C3599 H3613 0.958 . S
C3599 H3614 0.961 . S
C3599 H3615 0.960 . S
H3600 C3584 0.931 . S
H3601 C3589 0.929 . S
H3602 C3590 0.960 1_565 S
H3603 C3590 0.962 . S
H3604 C3590 0.960 . S
H3605 C3591 0.961 . S
H3606 C3591 0.961 1_565 S
H3607 C3591 0.961 . S
H3608 C3592 0.931 . S
H3609 C3597 0.930 . S
H3610 C3598 0.956 . S
H3611 C3598 0.963 1_545 S
H3612 C3598 0.961 . S
H3613 C3599 0.958 . S
H3614 C3599 0.961 . S
H3615 C3599 0.960 . S
C3616 C3617 1.391 . S
C3616 C3618 1.394 . S
C3616 H3632 0.931 . S
C3617 C3616 1.391 . S
C3617 C3621 1.376 . S
C3618 C3616 1.394 . S
C3618 C3619 1.369 . S
C3618 C3622 1.531 . S
C3619 C3618 1.369 . S
C3619 C3620 1.410 . S
C3619 C3627 1.503 1_455 S
C3620 C3619 1.410 . S
C3620 C3621 1.392 . S
C3620 C3623 1.511 . S
C3621 C3617 1.376 . S
C3621 C3620 1.392 . S
C3621 H3633 0.929 . S
C3622 C3618 1.531 . S
C3622 H3634 0.960 1_455 S
C3622 H3635 0.962 . S
C3622 H3636 0.960 . S
C3623 C3620 1.511 . S
C3623 H3637 0.961 . S
C3623 H3638 0.961 1_455 S
C3623 H3639 0.961 . S
C3624 C3625 1.370 . S
C3624 C3626 1.363 . S
C3624 H3640 0.931 . S
C3625 C3624 1.370 . S
C3625 C3629 1.408 . S
C3626 C3624 1.363 . S
C3626 C3627 1.370 . S
C3626 C3630 1.524 . S
C3627 C3619 1.503 1_655 S
C3627 C3626 1.370 . S
C3627 C3628 1.403 . S
C3628 C3627 1.403 . S
C3628 C3629 1.404 . S
C3628 C3631 1.539 . S
C3629 C3625 1.408 . S
C3629 C3628 1.404 . S
C3629 H3641 0.930 . S
C3630 C3626 1.524 . S
C3630 H3642 0.982 . S
C3630 H3643 0.926 1_655 S
C3630 H3644 0.961 . S
C3631 C3628 1.539 . S
C3631 H3645 0.958 . S
C3631 H3646 0.961 . S
C3631 H3647 0.960 . S
H3632 C3616 0.931 . S
H3633 C3621 0.929 . S
H3634 C3622 0.960 1_655 S
H3635 C3622 0.962 . S
H3636 C3622 0.960 . S
H3637 C3623 0.961 . S
H3638 C3623 0.961 1_655 S
H3639 C3623 0.961 . S
H3640 C3624 0.931 . S
H3641 C3629 0.930 . S
H3642 C3630 0.982 . S
H3643 C3630 0.926 1_455 S
H3644 C3630 0.961 . S
H3645 C3631 0.958 . S
H3646 C3631 0.961 . S
H3647 C3631 0.960 . S
C3648 C3649 1.391 . S
C3648 C3650 1.394 . S
C3648 H3664 0.931 . S
C3649 C3648 1.391 . S
C3649 C3653 1.376 . S
C3650 C3648 1.394 . S
C3650 C3651 1.369 . S
C3650 C3654 1.531 . S
C3651 C3650 1.369 . S
C3651 C3652 1.410 . S
C3651 C3659 1.503 1_545 S
C3652 C3651 1.410 . S
C3652 C3653 1.392 . S
C3652 C3655 1.511 . S
C3653 C3649 1.376 . S
C3653 C3652 1.392 . S
C3653 H3665 0.929 . S
C3654 C3650 1.531 . S
C3654 H3666 0.960 1_545 S
C3654 H3667 0.962 . S
C3654 H3668 0.960 . S
C3655 C3652 1.511 . S
C3655 H3669 0.961 . S
C3655 H3670 0.961 1_545 S
C3655 H3671 0.961 . S
C3656 C3657 1.370 . S
C3656 C3658 1.363 . S
C3656 H3672 0.931 . S
C3657 C3656 1.370 . S
C3657 C3661 1.408 . S
C3658 C3656 1.363 . S
C3658 C3659 1.370 . S
C3658 C3662 1.524 . S
C3659 C3651 1.503 1_565 S
C3659 C3658 1.370 . S
C3659 C3660 1.403 . S
C3660 C3659 1.403 . S
C3660 C3661 1.404 . S
C3660 C3663 1.539 . S
C3661 C3657 1.408 . S
C3661 C3660 1.404 . S
C3661 H3673 0.930 . S
C3662 C3658 1.524 . S
C3662 H3674 0.956 . S
C3662 H3675 0.977 . S
C3662 H3676 0.961 . S
C3663 C3660 1.539 . S
C3663 H3677 0.958 . S
C3663 H3678 0.961 . S
C3663 H3679 0.960 . S
H3664 C3648 0.931 . S
H3665 C3653 0.929 . S
H3666 C3654 0.960 1_565 S
H3667 C3654 0.962 . S
H3668 C3654 0.960 . S
H3669 C3655 0.961 . S
H3670 C3655 0.961 1_565 S
H3671 C3655 0.961 . S
H3672 C3656 0.931 . S
H3673 C3661 0.930 . S
H3674 C3662 0.956 . S
H3675 C3662 0.977 . S
H3676 C3662 0.961 . S
H3677 C3663 0.958 . S
H3678 C3663 0.961 . S
H3679 C3663 0.960 . S
C3680 C3681 1.391 . S
C3680 C3682 1.394 . S
C3680 H3696 0.931 . S
C3681 C3680 1.391 . S
C3681 C3685 1.376 . S
C3682 C3680 1.394 . S
C3682 C3683 1.369 . S
C3682 C3686 1.531 . S
C3683 C3682 1.369 . S
C3683 C3684 1.410 . S
C3683 C3691 1.503 1_655 S
C3684 C3683 1.410 . S
C3684 C3685 1.392 . S
C3684 C3687 1.511 . S
C3685 C3681 1.376 . S
C3685 C3684 1.392 . S
C3685 H3697 0.929 . S
C3686 C3682 1.531 . S
C3686 H3698 0.939 1_655 S
C3686 H3699 0.962 . S
C3686 H3700 0.960 . S
C3687 C3684 1.511 . S
C3687 H3701 0.961 . S
C3687 H3702 0.964 . S
C3687 H3703 0.961 . S
C3688 C3689 1.370 . S
C3688 C3690 1.363 . S
C3688 H3704 0.931 . S
C3689 C3688 1.370 . S
C3689 C3693 1.408 . S
C3690 C3688 1.363 . S
C3690 C3691 1.370 . S
C3690 C3694 1.524 . S
C3691 C3683 1.503 1_455 S
C3691 C3690 1.370 . S
C3691 C3692 1.403 . S
C3692 C3691 1.403 . S
C3692 C3693 1.404 . S
C3692 C3695 1.539 . S
C3693 C3689 1.408 . S
C3693 C3692 1.404 . S
C3693 H3705 0.930 . S
C3694 C3690 1.524 . S
C3694 H3706 0.956 1_455 S
C3694 H3707 0.961 1_455 S
C3694 H3708 0.961 . S
C3695 C3692 1.539 . S
C3695 H3709 0.958 . S
C3695 H3710 0.961 . S
C3695 H3711 0.960 1_455 S
H3696 C3680 0.931 . S
H3697 C3685 0.929 . S
H3698 C3686 0.939 1_455 S
H3699 C3686 0.962 . S
H3700 C3686 0.960 . S
H3701 C3687 0.961 . S
H3702 C3687 0.964 . S
H3703 C3687 0.961 . S
H3704 C3688 0.931 . S
H3705 C3693 0.930 . S
H3706 C3694 0.956 1_655 S
H3707 C3694 0.961 1_655 S
H3708 C3694 0.961 . S
H3709 C3695 0.958 . S
H3710 C3695 0.961 . S
H3711 C3695 0.960 1_655 S
C3712 C3713 1.391 . S
C3712 C3714 1.394 . S
C3712 H3728 0.931 . S
C3713 C3712 1.391 . S
C3713 C3717 1.376 . S
C3714 C3712 1.394 . S
C3714 C3715 1.369 . S
C3714 C3718 1.531 . S
C3715 C3714 1.369 . S
C3715 C3716 1.410 . S
C3715 C3723 1.503 1_455 S
C3716 C3715 1.410 . S
C3716 C3717 1.392 . S
C3716 C3719 1.511 . S
C3717 C3713 1.376 . S
C3717 C3716 1.392 . S
C3717 H3729 0.929 . S
C3718 C3714 1.531 . S
C3718 H3730 0.962 . S
C3718 H3731 0.962 . S
C3718 H3732 0.960 . S
C3719 C3716 1.511 . S
C3719 H3733 0.961 . S
C3719 H3734 0.965 1_455 S
C3719 H3735 0.961 . S
C3720 C3721 1.370 . S
C3720 C3722 1.363 . S
C3720 H3736 0.931 . S
C3721 C3720 1.370 . S
C3721 C3725 1.408 . S
C3722 C3720 1.363 . S
C3722 C3723 1.370 . S
C3722 C3726 1.524 . S
C3723 C3715 1.503 1_655 S
C3723 C3722 1.370 . S
C3723 C3724 1.403 . S
C3724 C3723 1.403 . S
C3724 C3725 1.404 . S
C3724 C3727 1.539 . S
C3725 C3721 1.408 . S
C3725 C3724 1.404 . S
C3725 H3737 0.930 . S
C3726 C3722 1.524 . S
C3726 H3738 0.956 1_655 S
C3726 H3739 0.961 1_655 S
C3726 H3740 0.961 . S
C3727 C3724 1.539 . S
C3727 H3741 0.958 . S
C3727 H3742 0.961 . S
C3727 H3743 0.960 1_655 S
H3728 C3712 0.931 . S
H3729 C3717 0.929 . S
H3730 C3718 0.962 . S
H3731 C3718 0.962 . S
H3732 C3718 0.960 . S
H3733 C3719 0.961 . S
H3734 C3719 0.965 1_655 S
H3735 C3719 0.961 . S
H3736 C3720 0.931 . S
H3737 C3725 0.930 . S
H3738 C3726 0.956 1_455 S
H3739 C3726 0.961 1_455 S
H3740 C3726 0.961 . S
H3741 C3727 0.958 . S
H3742 C3727 0.961 . S
H3743 C3727 0.960 1_455 S
C673 C546 1.307 . S
C681 C11 1.331 . S
C705 C25 1.223 . S
C713 C504 1.212 . S
C737 C39 1.309 . S
C745 C529 1.303 . S
C769 C543 1.153 . S
C777 C53 1.161 . S
C801 C473 1.219 . S
C809 C67 1.224 . S
C833 C70 1.198 . S
C841 C487 1.213 . S
C865 C95 1.263 . S
C873 C490 1.266 . S
C897 C98 1.230 . S
C905 C448 1.243 . S
C929 C112 1.376 . S
C937 C434 1.389 . S
C961 C403 1.195 . S
C969 C137 1.208 . S
C993 C406 1.343 . S
C1001 C140 1.340 . S
C1025 C165 1.277 . S
C1033 C431 1.276 . S
C1057 C168 1.207 . S
C1065 C361 1.229 . S
C1089 C193 1.267 . S
C1097 C364 1.276 . S
C1121 C389 1.179 . S
C1129 C196 1.174 . S
C1153 C336 1.328 . S
C1161 C221 1.348 . S
C1185 C235 1.228 . S
C1193 C627 1.220 . S
C1217 C658 1.235 . S
C1225 C238 1.237 . S
C1249 C641 1.354 . S
C1257 C252 1.348 . S
C1281 C644 1.144 . S
C1289 C266 1.153 . S
C1313 C571 1.328 . S
C1321 C280 1.330 . S
C1345 C599 1.208 . S
C1353 C305 1.223 . S
C1377 C308 1.236 . S
C1385 C602 1.253 . S
C1409 C574 1.171 . S
C1417 C322 1.182 . S
C1441 C459 1.289 . S
C1449 C291 1.302 . S
C1473 C249 1.219 . S
C1481 C462 1.207 . S
C1505 C476 1.338 . S
C1513 C263 1.333 . S
C1537 C501 1.158 . S
C1545 C277 1.170 . S
C1569 C333 1.229 . S
C1577 C515 1.232 . S
C1601 C518 1.251 . S
C1609 C294 1.246 . S
C1633 C319 1.253 . S
C1641 C532 1.259 . S
C1665 C224 1.240 . S
C1673 C557 1.235 . S
C1697 C560 1.389 . S
C1705 C210 1.391 . S
C1729 C179 1.288 . S
C1737 C669 1.286 . S
C1761 C630 1.326 . S
C1769 C182 1.337 . S
C1793 C207 1.199 . S
C1801 C655 1.203 . S
C1825 C126 1.173 . S
C1833 C585 1.169 . S
C1857 C151 1.296 . S
C1865 C588 1.295 . S
C1889 C154 1.253 . S
C1897 C613 1.253 . S
C1921 C616 1.318 . S
C1929 C123 1.338 . S
C1953 C347 1.238 . S
C1961 C109 1.245 . S
C1985 C392 1.240 . S
C1993 C14 1.229 . S
C2017 C417 1.329 . S
C2025 C28 1.323 . S
C2049 C420 1.189 . S
C2057 C42 1.183 . S
C2081 C445 1.368 . S
C2089 C0 1.363 . S
C2113 C81 1.205 . S
C2121 C375 1.202 . S
C2145 C378 1.229 . S
C2153 C84 1.242 . S
C2177 C350 1.202 . S
C2185 C56 1.201 . S
C2209 C5 1.501 . S
C2217 C373 1.496 . S
C2241 C383 1.455 . S
C2249 C19 1.454 . S
C2273 C33 1.485 . S
C2281 C345 1.481 . S
C2305 C47 1.437 . S
C2313 C355 1.441 . S
C2337 C61 1.460 . S
C2345 C425 1.459 . S
C2369 C443 1.488 . S
C2377 C79 1.492 . S
C2401 C89 1.462 . S
C2409 C397 1.463 . S
C2433 C415 1.509 . S
C2441 C107 1.507 . S
C2465 C121 1.459 . S
C2473 C513 1.471 . S
C2497 C523 1.457 . S
C2505 C131 1.458 . S
C2529 C149 1.445 . S
C2537 C537 1.467 . S
C2561 C159 1.481 . S
C2569 C555 1.479 . S
C2593 C177 1.435 . S
C2601 C457 1.446 . S
C2625 C187 1.464 . S
C2633 C467 1.475 . S
C2657 C481 1.423 . S
C2665 C205 1.417 . S
C2689 C215 1.495 . S
C2697 C499 1.485 . S
C2721 C611 1.464 . S
C2729 C229 1.480 . S
C2753 C247 1.481 . S
C2761 C635 1.496 . S
C2785 C261 1.448 . S
C2793 C653 1.446 . S
C2817 C565 1.476 . S
C2825 C275 1.463 . S
C2849 C667 1.472 . S
C2857 C289 1.473 . S
C2881 C299 1.458 . S
C2889 C583 1.453 . S
C2913 C593 1.457 . S
C2921 C317 1.458 . S
C2945 C331 1.421 . S
C2953 C621 1.443 . S
C2977 C597 1.497 . S
C2985 C285 1.501 . S
C3009 C243 1.465 . S
C3017 C607 1.464 . S
C3041 C625 1.471 . S
C3049 C257 1.491 . S
C3073 C579 1.435 . S
C3081 C271 1.438 . S
C3105 C649 1.436 . S
C3113 C327 1.442 . S
C3137 C303 1.504 . S
C3145 C569 1.504 . S
C3169 C663 1.473 . S
C3177 C313 1.472 . S
C3201 C233 1.486 . S
C3209 C639 1.495 . S
C3233 C471 1.459 . S
C3241 C219 1.472 . S
C3265 C173 1.477 . S
C3273 C485 1.474 . S
C3297 C191 1.451 . S
C3305 C495 1.468 . S
C3329 C453 1.461 . S
C3337 C201 1.463 . S
C3361 C135 1.422 . S
C3369 C551 1.432 . S
C3393 C509 1.466 . S
C3401 C145 1.471 . S
C3425 C163 1.434 . S
C3433 C527 1.443 . S
C3457 C117 1.488 . S
C3465 C541 1.490 . S
C3489 C387 1.465 . S
C3497 C103 1.486 . S
C3521 C23 1.487 . S
C3529 C411 1.490 . S
C3553 C37 1.460 . S
C3561 C429 1.454 . S
C3585 C439 1.479 . S
C3593 C51 1.468 . S
C3617 C9 1.456 . S
C3625 C401 1.461 . S
C3649 C75 1.460 . S
C3657 C359 1.456 . S
C3681 C93 1.451 . S
C3689 C369 1.459 . S
C3713 C65 1.444 . S
C3721 C341 1.450 . S
