# Generated by pormake.
# Topology uka, (4)-cn, num edge types: 1
# Building blocks:
#     Node 0, Type 0, BuildingBlock: AZAVOO_clean_sbu_0, # of connection points: 4
#     Node 1, Type 0, BuildingBlock: AZAVOO_clean_sbu_0, # of connection points: 4
#     Node 2, Type 0, BuildingBlock: AZAVOO_clean_sbu_0, # of connection points: 4
#     Node 3, Type 0, BuildingBlock: AZAVOO_clean_sbu_0, # of connection points: 4
#     Node 4, Type 0, BuildingBlock: AZAVOO_clean_sbu_0, # of connection points: 4
#     Node 5, Type 0, BuildingBlock: AZAVOO_clean_sbu_0, # of connection points: 4
#     Node 6, Type 0, BuildingBlock: AZAVOO_clean_sbu_0, # of connection points: 4
#     Node 7, Type 0, BuildingBlock: AZAVOO_clean_sbu_0, # of connection points: 4
#     Node 8, Type 0, BuildingBlock: AZAVOO_clean_sbu_0, # of connection points: 4
#     Node 9, Type 0, BuildingBlock: AZAVOO_clean_sbu_0, # of connection points: 4
#     Node 10, Type 0, BuildingBlock: AZAVOO_clean_sbu_0, # of connection points: 4
#     Node 11, Type 0, BuildingBlock: AZAVOO_clean_sbu_0, # of connection points: 4
#     Node 12, Type 0, BuildingBlock: AZAVOO_clean_sbu_0, # of connection points: 4
#     Node 13, Type 0, BuildingBlock: AZAVOO_clean_sbu_0, # of connection points: 4
#     Node 14, Type 0, BuildingBlock: AZAVOO_clean_sbu_0, # of connection points: 4
#     Node 15, Type 0, BuildingBlock: AZAVOO_clean_sbu_0, # of connection points: 4
#     Node 16, Type 0, BuildingBlock: AZAVOO_clean_sbu_0, # of connection points: 4
#     Node 17, Type 0, BuildingBlock: AZAVOO_clean_sbu_0, # of connection points: 4
#     Node 18, Type 0, BuildingBlock: AZAVOO_clean_sbu_0, # of connection points: 4
#     Node 19, Type 0, BuildingBlock: AZAVOO_clean_sbu_0, # of connection points: 4
#     Node 20, Type 0, BuildingBlock: AZAVOO_clean_sbu_0, # of connection points: 4
#     Node 21, Type 0, BuildingBlock: AZAVOO_clean_sbu_0, # of connection points: 4
#     Node 22, Type 0, BuildingBlock: AZAVOO_clean_sbu_0, # of connection points: 4
#     Node 23, Type 0, BuildingBlock: AZAVOO_clean_sbu_0, # of connection points: 4
#     Node 24, Type 0, BuildingBlock: AZAVOO_clean_sbu_0, # of connection points: 4
#     Node 25, Type 0, BuildingBlock: AZAVOO_clean_sbu_0, # of connection points: 4
#     Node 26, Type 0, BuildingBlock: AZAVOO_clean_sbu_0, # of connection points: 4
#     Node 27, Type 0, BuildingBlock: AZAVOO_clean_sbu_0, # of connection points: 4
#     Node 28, Type 0, BuildingBlock: AZAVOO_clean_sbu_0, # of connection points: 4
#     Node 29, Type 0, BuildingBlock: AZAVOO_clean_sbu_0, # of connection points: 4
#     Node 30, Type 0, BuildingBlock: AZAVOO_clean_sbu_0, # of connection points: 4
#     Node 31, Type 0, BuildingBlock: AZAVOO_clean_sbu_0, # of connection points: 4
#     Edge 32, Type (0, 0), BuildingBlock: UVAHIK_clean_linker_0, # of connection points: 2
#     Edge 33, Type (0, 0), BuildingBlock: UVAHIK_clean_linker_0, # of connection points: 2
#     Edge 34, Type (0, 0), BuildingBlock: UVAHIK_clean_linker_0, # of connection points: 2
#     Edge 35, Type (0, 0), BuildingBlock: UVAHIK_clean_linker_0, # of connection points: 2
#     Edge 36, Type (0, 0), BuildingBlock: UVAHIK_clean_linker_0, # of connection points: 2
#     Edge 37, Type (0, 0), BuildingBlock: UVAHIK_clean_linker_0, # of connection points: 2
#     Edge 38, Type (0, 0), BuildingBlock: UVAHIK_clean_linker_0, # of connection points: 2
#     Edge 39, Type (0, 0), BuildingBlock: UVAHIK_clean_linker_0, # of connection points: 2
#     Edge 40, Type (0, 0), BuildingBlock: UVAHIK_clean_linker_0, # of connection points: 2
#     Edge 41, Type (0, 0), BuildingBlock: UVAHIK_clean_linker_0, # of connection points: 2
#     Edge 42, Type (0, 0), BuildingBlock: UVAHIK_clean_linker_0, # of connection points: 2
#     Edge 43, Type (0, 0), BuildingBlock: UVAHIK_clean_linker_0, # of connection points: 2
#     Edge 44, Type (0, 0), BuildingBlock: UVAHIK_clean_linker_0, # of connection points: 2
#     Edge 45, Type (0, 0), BuildingBlock: UVAHIK_clean_linker_0, # of connection points: 2
#     Edge 46, Type (0, 0), BuildingBlock: UVAHIK_clean_linker_0, # of connection points: 2
#     Edge 47, Type (0, 0), BuildingBlock: UVAHIK_clean_linker_0, # of connection points: 2
#     Edge 48, Type (0, 0), BuildingBlock: UVAHIK_clean_linker_0, # of connection points: 2
#     Edge 49, Type (0, 0), BuildingBlock: UVAHIK_clean_linker_0, # of connection points: 2
#     Edge 50, Type (0, 0), BuildingBlock: UVAHIK_clean_linker_0, # of connection points: 2
#     Edge 51, Type (0, 0), BuildingBlock: UVAHIK_clean_linker_0, # of connection points: 2
#     Edge 52, Type (0, 0), BuildingBlock: UVAHIK_clean_linker_0, # of connection points: 2
#     Edge 53, Type (0, 0), BuildingBlock: UVAHIK_clean_linker_0, # of connection points: 2
#     Edge 54, Type (0, 0), BuildingBlock: UVAHIK_clean_linker_0, # of connection points: 2
#     Edge 55, Type (0, 0), BuildingBlock: UVAHIK_clean_linker_0, # of connection points: 2
#     Edge 56, Type (0, 0), BuildingBlock: UVAHIK_clean_linker_0, # of connection points: 2
#     Edge 57, Type (0, 0), BuildingBlock: UVAHIK_clean_linker_0, # of connection points: 2
#     Edge 58, Type (0, 0), BuildingBlock: UVAHIK_clean_linker_0, # of connection points: 2
#     Edge 59, Type (0, 0), BuildingBlock: UVAHIK_clean_linker_0, # of connection points: 2
#     Edge 60, Type (0, 0), BuildingBlock: UVAHIK_clean_linker_0, # of connection points: 2
#     Edge 61, Type (0, 0), BuildingBlock: UVAHIK_clean_linker_0, # of connection points: 2
#     Edge 62, Type (0, 0), BuildingBlock: UVAHIK_clean_linker_0, # of connection points: 2
#     Edge 63, Type (0, 0), BuildingBlock: UVAHIK_clean_linker_0, # of connection points: 2
#     Edge 64, Type (0, 0), BuildingBlock: UVAHIK_clean_linker_0, # of connection points: 2
#     Edge 65, Type (0, 0), BuildingBlock: UVAHIK_clean_linker_0, # of connection points: 2
#     Edge 66, Type (0, 0), BuildingBlock: UVAHIK_clean_linker_0, # of connection points: 2
#     Edge 67, Type (0, 0), BuildingBlock: UVAHIK_clean_linker_0, # of connection points: 2
#     Edge 68, Type (0, 0), BuildingBlock: UVAHIK_clean_linker_0, # of connection points: 2
#     Edge 69, Type (0, 0), BuildingBlock: UVAHIK_clean_linker_0, # of connection points: 2
#     Edge 70, Type (0, 0), BuildingBlock: UVAHIK_clean_linker_0, # of connection points: 2
#     Edge 71, Type (0, 0), BuildingBlock: UVAHIK_clean_linker_0, # of connection points: 2
#     Edge 72, Type (0, 0), BuildingBlock: UVAHIK_clean_linker_0, # of connection points: 2
#     Edge 73, Type (0, 0), BuildingBlock: UVAHIK_clean_linker_0, # of connection points: 2
#     Edge 74, Type (0, 0), BuildingBlock: UVAHIK_clean_linker_0, # of connection points: 2
#     Edge 75, Type (0, 0), BuildingBlock: UVAHIK_clean_linker_0, # of connection points: 2
#     Edge 76, Type (0, 0), BuildingBlock: UVAHIK_clean_linker_0, # of connection points: 2
#     Edge 77, Type (0, 0), BuildingBlock: UVAHIK_clean_linker_0, # of connection points: 2
#     Edge 78, Type (0, 0), BuildingBlock: UVAHIK_clean_linker_0, # of connection points: 2
#     Edge 79, Type (0, 0), BuildingBlock: UVAHIK_clean_linker_0, # of connection points: 2
#     Edge 80, Type (0, 0), BuildingBlock: UVAHIK_clean_linker_0, # of connection points: 2
#     Edge 81, Type (0, 0), BuildingBlock: UVAHIK_clean_linker_0, # of connection points: 2
#     Edge 82, Type (0, 0), BuildingBlock: UVAHIK_clean_linker_0, # of connection points: 2
#     Edge 83, Type (0, 0), BuildingBlock: UVAHIK_clean_linker_0, # of connection points: 2
#     Edge 84, Type (0, 0), BuildingBlock: UVAHIK_clean_linker_0, # of connection points: 2
#     Edge 85, Type (0, 0), BuildingBlock: UVAHIK_clean_linker_0, # of connection points: 2
#     Edge 86, Type (0, 0), BuildingBlock: UVAHIK_clean_linker_0, # of connection points: 2
#     Edge 87, Type (0, 0), BuildingBlock: UVAHIK_clean_linker_0, # of connection points: 2
#     Edge 88, Type (0, 0), BuildingBlock: UVAHIK_clean_linker_0, # of connection points: 2
#     Edge 89, Type (0, 0), BuildingBlock: UVAHIK_clean_linker_0, # of connection points: 2
#     Edge 90, Type (0, 0), BuildingBlock: UVAHIK_clean_linker_0, # of connection points: 2
#     Edge 91, Type (0, 0), BuildingBlock: UVAHIK_clean_linker_0, # of connection points: 2
#     Edge 92, Type (0, 0), BuildingBlock: UVAHIK_clean_linker_0, # of connection points: 2
#     Edge 93, Type (0, 0), BuildingBlock: UVAHIK_clean_linker_0, # of connection points: 2
#     Edge 94, Type (0, 0), BuildingBlock: UVAHIK_clean_linker_0, # of connection points: 2
#     Edge 95, Type (0, 0), BuildingBlock: UVAHIK_clean_linker_0, # of connection points: 2
# Relax obj value: 0.276
# Max RMSD: 0.257
# Mean RMSD: 0.247
data_MOF--net-uka--node1-AZAVOO_clean_sbu_0--edge1-UVAHIK_clean_linker_0
_symmetry_space_group_name_H-M    P1
_symmetry_Int_Tables_number       1
_symmetry_cell_setting            triclinic
loop_
_symmetry_equiv_pos_as_xyz
'x, y, z'
_cell_length_a     77.512747
_cell_length_b     74.451743
_cell_length_c     53.951866
_cell_angle_alpha  90.093473
_cell_angle_beta   90.137013
_cell_angle_gamma 90.009256
loop_
_atom_site_label
_atom_site_type_symbol
_atom_site_fract_x
_atom_site_fract_y
_atom_site_fract_z
_atom_type_partial_charge
Mg0 Mg 0.11014 0.26162 0.24275 0.0
O1 O 0.09762 0.23473 0.25432 0.0
O2 O 0.06978 0.24088 0.26131 0.0
Mg3 Mg 0.06457 0.27059 0.25536 0.0
C4 C 0.0824 0.22988 0.26051 0.0
C5 C 0.14351 0.23877 0.24437 0.0
O6 O 0.13736 0.2357 0.26663 0.0
O7 O 0.09765 0.26091 0.20428 0.0
O8 O 0.0704 0.26765 0.214 0.0
O9 O 0.11584 0.26706 0.28251 0.0
O10 O 0.0919 0.27553 0.26353 0.0
C11 C 0.08206 0.26415 0.19802 0.0
C12 C 0.10059 0.27406 0.28381 0.0
O13 O 0.13441 0.2477 0.22911 0.0
Mg14 Mg 0.01676 0.85379 0.52209 0.0
O15 O -0.00073 0.85443 0.55651 0.0
O16 O 0.01543 0.86409 0.58828 0.0
Mg17 Mg 0.04295 0.86873 0.57484 0.0
C18 C 0.00104 0.85878 0.57932 0.0
C19 C -0.0026 0.83867 0.47945 0.0
O20 O 0.01349 0.83325 0.47768 0.0
O21 O 0.01557 0.88437 0.51969 0.0
O22 O 0.03306 0.892 0.55097 0.0
O23 O 0.02409 0.82574 0.53048 0.0
O24 O 0.0382 0.84932 0.54492 0.0
C25 C 0.02347 0.89621 0.53259 0.0
C26 C 0.03603 0.83215 0.54474 0.0
O27 O -0.00645 0.84958 0.49672 0.0
Mg28 Mg 0.37441 0.72676 0.74977 0.0
O29 O 0.38886 0.75259 0.76213 0.0
O30 O 0.41571 0.74354 0.77118 0.0
Mg31 Mg 0.41854 0.71342 0.76588 0.0
C32 C 0.40428 0.75584 0.76944 0.0
C33 C 0.34277 0.75208 0.74827 0.0
O34 O 0.34829 0.75487 0.77101 0.0
O35 O 0.38836 0.72613 0.71246 0.0
O36 O 0.41462 0.71698 0.72411 0.0
O37 O 0.36649 0.72199 0.7889 0.0
O38 O 0.39072 0.71189 0.77237 0.0
C39 C 0.40383 0.72155 0.70736 0.0
C40 C 0.38127 0.7142 0.79173 0.0
O41 O 0.35183 0.74244 0.73384 0.0
Mg42 Mg 0.46384 0.13683 0.02092 0.0
O43 O 0.47874 0.13748 0.05799 0.0
O44 O 0.46037 0.12885 0.08762 0.0
Mg45 Mg 0.43462 0.12156 0.06985 0.0
C46 C 0.47523 0.13426 0.08071 0.0
C47 C 0.48569 0.153 0.9819 0.0
O48 O 0.46973 0.15831 0.9782 0.0
O49 O 0.46668 0.10641 0.01984 0.0
O50 O 0.44788 0.09842 0.04917 0.0
O51 O 0.45469 0.16459 0.0274 0.0
O52 O 0.4406 0.14052 0.04004 0.0
C53 C 0.45885 0.0944 0.03241 0.0
C54 C 0.44208 0.15778 0.0399 0.0
O55 O 0.48859 0.14183 -0.00079 0.0
Mg56 Mg 0.11114 0.73165 0.25023 0.0
O57 O 0.10114 0.7593 0.23671 0.0
O58 O 0.07268 0.75583 0.23105 0.0
Mg59 Mg 0.06475 0.72699 0.23876 0.0
C60 C 0.08631 0.76546 0.23061 0.0
C61 C 0.14613 0.7515 0.24746 0.0
O62 O 0.13969 0.75522 0.22551 0.0
O63 O 0.09911 0.73492 0.28859 0.0
O64 O 0.07125 0.7304 0.27991 0.0
O65 O 0.11637 0.72408 0.21115 0.0
O66 O 0.09144 0.71952 0.23006 0.0
C67 C 0.08343 0.73327 0.29538 0.0
C68 C 0.10036 0.71925 0.20993 0.0
O69 O 0.13675 0.74325 0.26302 0.0
Mg70 Mg 0.46363 0.85359 0.46492 0.0
O71 O 0.48023 0.85315 0.42941 0.0
O72 O 0.46311 0.86249 0.39853 0.0
Mg73 Mg 0.43662 0.86967 0.41373 0.0
C74 C 0.47763 0.8568 0.40653 0.0
C75 C 0.48216 0.83747 0.50678 0.0
O76 O 0.46571 0.83327 0.50805 0.0
O77 O 0.46663 0.884 0.46699 0.0
O78 O 0.449 0.89243 0.43632 0.0
O79 O 0.45452 0.82597 0.45711 0.0
O80 O 0.44129 0.85028 0.44345 0.0
C81 C 0.4593 0.8962 0.45411 0.0
C82 C 0.44252 0.83301 0.44358 0.0
O83 O 0.48698 0.84802 0.48961 0.0
Mg84 Mg 0.36957 0.26271 0.73964 0.0
O85 O 0.38104 0.23535 0.72754 0.0
O86 O 0.40914 0.24045 0.72075 0.0
Mg87 Mg 0.41538 0.27 0.72656 0.0
C88 C 0.39612 0.22995 0.7214 0.0
C89 C 0.33575 0.24057 0.73913 0.0
O90 O 0.34181 0.23684 0.71698 0.0
O91 O 0.38241 0.26139 0.77777 0.0
O92 O 0.40986 0.26718 0.76804 0.0
O93 O 0.36326 0.26861 0.70031 0.0
O94 O 0.38815 0.27543 0.71818 0.0
C95 C 0.3981 0.26403 0.78399 0.0
C96 C 0.37891 0.27446 0.69832 0.0
O97 O 0.34498 0.24981 0.75391 0.0
Mg98 Mg 0.02071 0.13384 0.9748 0.0
O99 O 0.0044 0.1349 0.93899 0.0
O100 O 0.02155 0.12628 0.90788 0.0
Mg101 Mg 0.04802 0.11904 0.92332 0.0
C102 C 0.007 0.13172 0.91599 0.0
C103 C 0.00066 0.1493 0.01633 0.0
O104 O 0.01689 0.15396 0.0193 0.0
O105 O 0.0179 0.10335 0.97546 0.0
O106 O 0.03568 0.09574 0.94465 0.0
O107 O 0.02968 0.16167 0.96821 0.0
O108 O 0.0432 0.13769 0.95399 0.0
C109 C 0.02535 0.0915 0.9621 0.0
C110 C 0.04178 0.15494 0.95459 0.0
O111 O -0.00313 0.13877 -0.00144 0.0
Mg112 Mg 0.85676 0.7887 0.77818 0.0
O113 O 0.86459 0.77381 0.74247 0.0
O114 O 0.85928 0.79209 0.71042 0.0
Mg115 Mg 0.8471 0.81768 0.72517 0.0
C116 C 0.86476 0.77723 0.71924 0.0
C117 C 0.86715 0.76412 0.82096 0.0
O118 O 0.872 0.78011 0.8286 0.0
O119 O 0.82868 0.78264 0.76948 0.0
O120 O 0.82386 0.80047 0.73695 0.0
O121 O 0.88301 0.80009 0.77952 0.0
O122 O 0.86121 0.81308 0.75998 0.0
C123 C 0.8188 0.78864 0.75245 0.0
C124 C 0.87762 0.81207 0.76396 0.0
O125 O 0.85953 0.76276 0.80016 0.0
Mg126 Mg 0.00328 0.12689 0.50519 0.0
O127 O 0.01319 0.12977 0.46526 0.0
O128 O 0.99186 0.12229 0.43928 0.0
Mg129 Mg 0.96891 0.11305 0.46257 0.0
C130 C 0.00723 0.12776 0.44333 0.0
C131 C 0.03616 0.12391 0.53933 0.0
O132 O 0.02672 0.11156 0.55018 0.0
O133 O 0.00667 0.09658 0.50254 0.0
O134 O 0.98503 0.08933 0.47691 0.0
O135 O -0.00732 0.15458 0.50288 0.0
O136 O 0.97795 0.13007 0.49317 0.0
C137 C -0.00212 0.08494 0.49052 0.0
C138 C 0.97888 0.14733 0.49374 0.0
O139 O 0.03045 0.13149 0.51989 0.0
Mg140 Mg 0.62456 0.20319 0.27462 0.0
O141 O 0.61758 0.21691 0.23775 0.0
O142 O 0.6236 0.19774 0.20693 0.0
Mg143 Mg 0.6349 0.1724 0.22385 0.0
C144 C 0.61802 0.21286 0.21471 0.0
C145 C 0.62288 0.23086 0.31812 0.0
O146 O 0.62598 0.21611 0.3307 0.0
O147 O 0.65287 0.20853 0.26675 0.0
O148 O 0.6582 0.18941 0.23583 0.0
O149 O 0.59817 0.19217 0.2763 0.0
O150 O 0.6197 0.17834 0.25745 0.0
C151 C 0.66307 0.20172 0.25079 0.0
C152 C 0.60331 0.17951 0.26161 0.0
O153 O 0.62208 0.23003 0.29462 0.0
Mg154 Mg 0.48861 0.86435 0.00815 0.0
O155 O 0.47576 0.86104 0.96984 0.0
O156 O 0.49473 0.87008 0.94125 0.0
Mg157 Mg 0.51956 0.87856 0.96093 0.0
C158 C 0.47995 0.86393 0.94728 0.0
C159 C 0.46392 0.85655 0.05031 0.0
O160 O 0.4791 0.85769 0.06111 0.0
O161 O 0.48495 0.89466 0.0061 0.0
O162 O 0.50494 0.90225 0.97819 0.0
O163 O 0.4989 0.83672 0.00469 0.0
O164 O 0.51278 0.86102 0.99212 0.0
C165 C 0.49302 0.90647 0.99346 0.0
C166 C 0.51179 0.84376 0.99298 0.0
O167 O 0.46285 0.85989 0.02727 0.0
Mg168 Mg 0.85755 0.20648 0.72538 0.0
O169 O 0.86442 0.22116 0.76174 0.0
O170 O 0.85702 0.20309 0.79321 0.0
Mg171 Mg 0.84371 0.17842 0.77728 0.0
C172 C 0.86358 0.21761 0.78491 0.0
C173 C 0.86949 0.22999 0.68212 0.0
O174 O 0.87304 0.21366 0.67443 0.0
O175 O 0.82966 0.2143 0.73131 0.0
O176 O 0.82204 0.19705 0.76322 0.0
O177 O 0.88311 0.19343 0.72574 0.0
O178 O 0.86025 0.1821 0.74452 0.0
C179 C 0.81856 0.20911 0.74714 0.0
C180 C 0.87675 0.18179 0.74098 0.0
O181 O 0.86234 0.23198 0.70312 0.0
Mg182 Mg 0.48653 0.12603 0.48475 0.0
O183 O 0.47329 0.12945 0.52271 0.0
O184 O 0.49223 0.12122 0.55186 0.0
Mg185 Mg 0.51687 0.11161 0.53291 0.0
C186 C 0.47743 0.12717 0.54544 0.0
C187 C 0.46249 0.13404 0.44177 0.0
O188 O 0.47777 0.13242 0.43149 0.0
O189 O 0.48238 0.09579 0.48685 0.0
O190 O 0.50182 0.08812 0.51565 0.0
O191 O 0.49752 0.15352 0.48837 0.0
O192 O 0.51065 0.12888 0.50126 0.0
C193 C 0.49006 0.08397 0.50001 0.0
C194 C 0.51024 0.14614 0.50013 0.0
O195 O 0.46107 0.13097 0.46484 0.0
Mg196 Mg 0.62783 0.78431 0.21748 0.0
O197 O 0.62103 0.77082 0.25459 0.0
O198 O 0.62669 0.78974 0.28589 0.0
Mg199 Mg 0.63992 0.81402 0.26897 0.0
C200 C 0.62097 0.77479 0.27765 0.0
C201 C 0.61111 0.74781 0.20282 0.0
O202 O 0.60131 0.75267 0.22147 0.0
O203 O 0.65587 0.7773 0.22486 0.0
O204 O 0.6619 0.79521 0.25694 0.0
O205 O 0.60201 0.79672 0.21638 0.0
O206 O 0.62429 0.80921 0.23536 0.0
C207 C 0.66622 0.78298 0.24153 0.0
C208 C 0.60784 0.80895 0.23127 0.0
O209 O 0.62358 0.7579 0.19643 0.0
Mg210 Mg -0.0002 0.86069 0.98219 0.0
O211 O 0.01267 0.8573 0.02056 0.0
O212 O -0.00688 0.86513 0.049 0.0
Mg213 Mg 0.96846 0.87409 0.0294 0.0
C214 C 0.00813 0.85951 0.04314 0.0
C215 C 0.02465 0.85704 0.93918 0.0
O216 O 0.00992 0.86153 0.92876 0.0
O217 O 0.00329 0.89102 0.98501 0.0
O218 O 0.98321 0.89804 0.01311 0.0
O219 O 0.98928 0.83292 0.98479 0.0
O220 O 0.97556 0.85719 -0.00224 0.0
C221 C -0.00486 0.90257 -0.00196 0.0
C222 C 0.97624 0.83995 -0.00383 0.0
O223 O 0.02549 0.85657 0.96269 0.0
Mg224 Mg 0.60828 0.75986 0.74402 0.0
O225 O 0.59792 0.7322 0.75698 0.0
O226 O 0.56975 0.73628 0.7644 0.0
Mg227 Mg 0.56234 0.76545 0.75832 0.0
C228 C 0.58312 0.72629 0.7636 0.0
C229 C 0.6426 0.73891 0.74506 0.0
O230 O 0.63628 0.73502 0.76698 0.0
O231 O 0.59509 0.75761 0.70603 0.0
O232 O 0.56766 0.76239 0.71693 0.0
O233 O 0.61462 0.76671 0.78323 0.0
O234 O 0.58941 0.77214 0.76541 0.0
C235 C 0.57916 0.75955 0.70051 0.0
C236 C 0.59877 0.77193 0.78516 0.0
O237 O 0.63332 0.74776 0.72993 0.0
Mg238 Mg 0.516 0.35037 0.01679 0.0
O239 O 0.50052 0.35186 0.05319 0.0
O240 O 0.51911 0.35932 0.08333 0.0
Mg241 Mg 0.54562 0.36416 0.06633 0.0
C242 C 0.50396 0.35514 0.07595 0.0
C243 C 0.49488 0.33587 0.97623 0.0
O244 O 0.51098 0.33078 0.9732 0.0
O245 O 0.5155 0.38091 0.01446 0.0
O246 O 0.53434 0.3879 0.04442 0.0
O247 O 0.52294 0.32215 0.02512 0.0
O248 O 0.53863 0.34549 0.0367 0.0
C249 C 0.52399 0.39248 0.02706 0.0
C250 C 0.53588 0.32844 0.03755 0.0
O251 O 0.49148 0.34655 0.99397 0.0
Mg252 Mg 0.87484 0.22506 0.25026 0.0
O253 O 0.88537 0.25287 0.26215 0.0
O254 O 0.91355 0.24883 0.26969 0.0
Mg255 Mg 0.92075 0.21946 0.2645 0.0
C256 C 0.90021 0.25885 0.26856 0.0
C257 C 0.84066 0.24643 0.2499 0.0
O258 O 0.84682 0.25077 0.27182 0.0
O259 O 0.88792 0.22648 0.21236 0.0
O260 O 0.91543 0.22165 0.22287 0.0
O261 O 0.86843 0.21929 0.28954 0.0
O262 O 0.89364 0.21313 0.27234 0.0
C263 C 0.90374 0.22426 0.20657 0.0
C264 C 0.88422 0.21395 0.29198 0.0
O265 O 0.84995 0.23707 0.23541 0.0
Mg266 Mg 0.96852 0.63892 0.52262 0.0
O267 O 0.98495 0.63627 0.55806 0.0
O268 O 0.9672 0.62809 0.58871 0.0
Mg269 Mg 0.94018 0.62401 0.5728 0.0
C270 C 0.98216 0.63235 0.58077 0.0
C271 C 0.98876 0.65446 0.48202 0.0
O272 O 0.97261 0.65957 0.47973 0.0
O273 O 0.9687 0.60847 0.51849 0.0
O274 O 0.95063 0.60082 0.54895 0.0
O275 O 0.96215 0.66694 0.5329 0.0
O276 O 0.94651 0.64348 0.54397 0.0
C277 C 0.96045 0.59663 0.53084 0.0
C278 C 0.94949 0.66046 0.54565 0.0
O279 O -0.00752 0.64327 0.49899 0.0
Mg280 Mg 0.61166 0.2257 0.74732 0.0
O281 O 0.59744 0.25178 0.73588 0.0
O282 O 0.56985 0.24393 0.72967 0.0
Mg283 Mg 0.56646 0.214 0.73592 0.0
C284 C 0.58186 0.25565 0.73014 0.0
C285 C 0.64295 0.25165 0.74542 0.0
O286 O 0.63569 0.25521 0.72395 0.0
O287 O 0.59969 0.22587 0.78604 0.0
O288 O 0.57253 0.218 0.77708 0.0
O289 O 0.61709 0.22073 0.70753 0.0
O290 O 0.59391 0.21076 0.72695 0.0
C291 C 0.58429 0.22218 0.79266 0.0
C292 C 0.60217 0.21298 0.70647 0.0
O293 O 0.63528 0.24114 0.76031 0.0
Mg294 Mg 0.9686 0.35708 0.97365 0.0
O295 O 0.98165 0.35595 0.93535 0.0
O296 O 0.96214 0.36436 0.90702 0.0
Mg297 Mg 0.93736 0.37209 0.92701 0.0
C298 C 0.97722 0.35891 0.91289 0.0
C299 C 0.0033 0.33905 0.98736 0.0
O300 O -0.00193 0.32882 0.96895 0.0
O301 O 0.97162 0.38744 0.97366 0.0
O302 O 0.95171 0.39546 0.94579 0.0
O303 O 0.95891 0.3293 0.96875 0.0
O304 O 0.94454 0.35342 0.95678 0.0
C305 C 0.96345 0.39945 0.96151 0.0
C306 C 0.94585 0.33615 0.95716 0.0
O307 O -0.00558 0.35281 0.99305 0.0
Mg308 Mg 0.87436 0.76144 0.24069 0.0
O309 O 0.88816 0.73506 0.2296 0.0
O310 O 0.91577 0.74255 0.22297 0.0
Mg311 Mg 0.91953 0.77254 0.22837 0.0
C312 C 0.90366 0.73096 0.22382 0.0
C313 C 0.842 0.73696 0.2395 0.0
O314 O 0.8481 0.73411 0.21713 0.0
O315 O 0.88676 0.76179 0.27924 0.0
O316 O 0.91385 0.7694 0.26971 0.0
O317 O 0.86858 0.76593 0.20081 0.0
O318 O 0.89202 0.77592 0.21977 0.0
C319 C 0.90223 0.76555 0.28556 0.0
C320 C 0.88357 0.77353 0.19944 0.0
O321 O 0.85079 0.74642 0.25456 0.0
Mg322 Mg 0.51867 0.63388 0.47031 0.0
O323 O 0.5022 0.63287 0.43464 0.0
O324 O 0.51944 0.62244 0.40465 0.0
Mg325 Mg 0.54645 0.61778 0.42015 0.0
C326 C 0.50478 0.62804 0.41218 0.0
C327 C 0.49913 0.64906 0.51228 0.0
O328 O 0.51546 0.65347 0.5149 0.0
O329 O 0.517 0.60334 0.47352 0.0
O330 O 0.53549 0.59505 0.44391 0.0
O331 O 0.52672 0.66173 0.46167 0.0
O332 O 0.54085 0.63769 0.44896 0.0
C333 C 0.52522 0.59122 0.46161 0.0
C334 C 0.53902 0.6549 0.44854 0.0
O335 O 0.49499 0.63882 0.49434 0.0
Mg336 Mg 0.35679 0.29083 0.27151 0.0
O337 O 0.3647 0.27606 0.23573 0.0
O338 O 0.35945 0.29439 0.20367 0.0
Mg339 Mg 0.34591 0.31921 0.21839 0.0
C340 C 0.36512 0.27964 0.21255 0.0
C341 C 0.36806 0.26643 0.31437 0.0
O342 O 0.37265 0.28247 0.32215 0.0
O343 O 0.32891 0.28368 0.26315 0.0
O344 O 0.32347 0.3009 0.23024 0.0
O345 O 0.38263 0.30338 0.27287 0.0
O346 O 0.36047 0.31536 0.25306 0.0
C347 C 0.31885 0.28904 0.24596 0.0
C348 C 0.37687 0.31526 0.25745 0.0
O349 O 0.36042 0.26503 0.29359 0.0
Mg350 Mg 0.49834 0.6232 0.00549 0.0
O351 O 0.51068 0.62701 0.96705 0.0
O352 O 0.49112 0.61892 0.93865 0.0
Mg353 Mg 0.46698 0.60892 0.9586 0.0
C354 C 0.50604 0.6249 0.94448 0.0
C355 C 0.52511 0.62363 0.0472 0.0
O356 O 0.51218 0.61474 0.05703 0.0
O357 O 0.50272 0.59301 0.00259 0.0
O358 O 0.48269 0.58545 0.97453 0.0
O359 O 0.487 0.6506 0.00275 0.0
O360 O 0.47378 0.62579 0.99044 0.0
C361 C 0.49486 0.58125 0.98948 0.0
C362 C 0.47398 0.64303 0.99189 0.0
O363 O 0.52412 0.62816 0.02455 0.0
Mg364 Mg 0.1313 0.69944 0.76989 0.0
O365 O 0.1219 0.71353 0.73438 0.0
O366 O 0.12707 0.69585 0.70163 0.0
Mg367 Mg 0.14246 0.67201 0.71577 0.0
C368 C 0.12092 0.71017 0.71119 0.0
C369 C 0.11278 0.73384 0.78844 0.0
O370 O 0.1018 0.72787 0.77177 0.0
O371 O 0.15854 0.70827 0.76051 0.0
O372 O 0.1641 0.69162 0.72702 0.0
O373 O 0.1063 0.68529 0.77218 0.0
O374 O 0.12862 0.67476 0.75127 0.0
C375 C 0.16845 0.70363 0.74278 0.0
C376 C 0.11236 0.67382 0.7564 0.0
O377 O 0.12664 0.72512 0.79229 0.0
Mg378 Mg 0.98811 0.36669 0.50419 0.0
O379 O 0.97453 0.36247 0.4665 0.0
O380 O -0.00692 0.37084 0.43702 0.0
Mg381 Mg 0.01773 0.38114 0.45535 0.0
C382 C 0.97846 0.36462 0.44368 0.0
C383 C 0.96504 0.35828 0.54773 0.0
O384 O 0.98059 0.35972 0.55727 0.0
O385 O 0.98331 0.39678 0.50133 0.0
O386 O 0.00237 0.40454 0.47221 0.0
O387 O -0.0005 0.33937 0.50126 0.0
O388 O 0.0121 0.36399 0.48733 0.0
C389 C 0.99063 0.40861 0.48782 0.0
C390 C 0.01195 0.34673 0.48897 0.0
O391 O 0.96302 0.36156 0.52479 0.0
Mg392 Mg 0.35897 0.69751 0.21325 0.0
O393 O 0.36608 0.7126 0.24911 0.0
O394 O 0.362 0.69397 0.28113 0.0
Mg395 Mg 0.34987 0.66837 0.26621 0.0
C396 C 0.36676 0.70907 0.27228 0.0
C397 C 0.36871 0.72263 0.17058 0.0
O398 O 0.37373 0.70682 0.16248 0.0
O399 O 0.33082 0.70293 0.22158 0.0
O400 O 0.32637 0.6854 0.25449 0.0
O401 O 0.38545 0.68666 0.21222 0.0
O402 O 0.36387 0.6732 0.23147 0.0
C403 C 0.3211 0.697 0.23876 0.0
C404 C 0.38026 0.67442 0.22749 0.0
O405 O 0.36126 0.72359 0.19149 0.0
Mg406 Mg -0.00717 0.62936 0.98312 0.0
O407 O 0.98153 0.6314 0.02261 0.0
O408 O 0.0026 0.62391 0.04903 0.0
Mg409 Mg 0.02658 0.61626 0.027 0.0
C410 C 0.98716 0.62904 0.04468 0.0
C411 C 0.96615 0.63435 0.94268 0.0
O412 O 0.98081 0.63252 0.93075 0.0
O413 O 0.99071 0.59896 0.98461 0.0
O414 O 0.01202 0.59199 0.01087 0.0
O415 O 0.00174 0.65749 0.98668 0.0
O416 O 0.01747 0.63386 -0.00285 0.0
C417 C -0.00033 0.58741 -0.00354 0.0
C418 C 0.01541 0.65103 -0.00276 0.0
O419 O 0.96616 0.63252 0.96608 0.0
Mg420 Mg 0.12021 0.28429 0.71514 0.0
O421 O 0.11311 0.2709 0.75216 0.0
O422 O 0.11835 0.29043 0.78289 0.0
Mg423 Mg 0.13091 0.31506 0.76592 0.0
C424 C 0.11295 0.27524 0.7751 0.0
C425 C 0.12733 0.24921 0.68183 0.0
O426 O 0.14262 0.25626 0.67799 0.0
O427 O 0.14833 0.27828 0.7234 0.0
O428 O 0.15377 0.29709 0.7547 0.0
O429 O 0.0941 0.29603 0.71325 0.0
O430 O 0.11601 0.30946 0.7319 0.0
C431 C 0.1585 0.28471 0.73977 0.0
C432 C 0.0996 0.30871 0.72769 0.0
O433 O 0.11658 0.25739 0.69556 0.0
Mg434 Mg 0.49877 0.3611 0.48651 0.0
O435 O 0.50815 0.35765 0.52679 0.0
O436 O 0.48659 0.36583 0.55181 0.0
Mg437 Mg 0.46408 0.37555 0.52794 0.0
C438 C 0.50185 0.35987 0.54846 0.0
C439 C 0.52975 0.36109 0.45037 0.0
O440 O 0.51853 0.37072 0.43782 0.0
O441 O 0.50271 0.39134 0.48955 0.0
O442 O 0.48078 0.39898 0.51427 0.0
O443 O 0.48768 0.3336 0.48818 0.0
O444 O 0.47326 0.35831 0.49776 0.0
C445 C 0.49393 0.40314 0.50123 0.0
C446 C 0.47394 0.34104 0.49713 0.0
O447 O 0.52593 0.35613 0.4722 0.0
C448 C 0.03606 0.13541 0.42498 0.0
C449 C 0.01826 0.13252 0.42191 0.0
C450 C 0.04623 0.1409 0.40499 0.0
C451 C 0.04573 0.14687 0.33602 0.0
H452 H 0.07817 0.1851 0.35061 0.0
C453 C 0.09223 0.20345 0.28535 0.0
C454 C 0.07947 0.21177 0.2708 0.0
C455 C 0.08794 0.18899 0.30072 0.0
C456 C 0.06948 0.17415 0.34621 0.0
H457 H -0.00272 0.13276 0.39522 0.0
H458 H 0.01479 0.14287 0.36072 0.0
H459 H 0.06432 0.16925 0.38444 0.0
H460 H 0.05278 0.21039 0.25891 0.0
H461 H 0.04541 0.18501 0.28525 0.0
H462 H 0.05017 0.15273 0.29765 0.0
C463 C 0.02107 0.14047 0.37835 0.0
C464 C 0.06149 0.16502 0.36566 0.0
C465 C 0.01096 0.1348 0.39825 0.0
C466 C 0.06285 0.20427 0.27002 0.0
C467 C 0.05865 0.18968 0.28505 0.0
C468 C 0.05359 0.15615 0.31656 0.0
C469 C 0.03882 0.14382 0.3815 0.0
C470 C 0.04913 0.15161 0.36084 0.0
C471 C 0.07093 0.18245 0.30142 0.0
C472 C 0.0652 0.17021 0.32147 0.0
H473 H 0.04214 0.13359 0.4429 0.0
H474 H 0.05989 0.14304 0.40804 0.0
H475 H 0.0366 0.13633 0.33159 0.0
H476 H 0.10513 0.20901 0.28641 0.0
H477 H 0.09769 0.18356 0.31303 0.0
C478 C 0.05621 0.82707 0.58052 0.0
C479 C 0.04568 0.82014 0.56157 0.0
C480 C 0.06446 0.81555 0.59717 0.0
C481 C 0.06266 0.76859 0.62038 0.0
H482 H 0.10799 0.7799 0.64673 0.0
C483 C 0.10559 0.71756 0.67177 0.0
C484 C 0.11219 0.72317 0.6948 0.0
C485 C 0.09727 0.72976 0.65622 0.0
C486 C 0.09527 0.77669 0.63962 0.0
H487 H 0.03621 0.79564 0.54448 0.0
H488 H 0.05114 0.77558 0.57273 0.0
H489 H 0.09432 0.80039 0.61736 0.0
H490 H 0.11536 0.74594 0.71956 0.0
H491 H 0.10112 0.76741 0.6919 0.0
H492 H 0.064 0.74454 0.64204 0.0
C493 C 0.05251 0.78992 0.57546 0.0
C494 C 0.08739 0.78843 0.62288 0.0
C495 C 0.04405 0.80144 0.5591 0.0
C496 C 0.11038 0.74124 0.70193 0.0
C497 C 0.10233 0.75352 0.68612 0.0
C498 C 0.07067 0.75674 0.63677 0.0
C499 C 0.06261 0.79682 0.59496 0.0
C500 C 0.071 0.78449 0.61298 0.0
C501 C 0.09566 0.74784 0.6632 0.0
C502 C 0.08703 0.76068 0.64647 0.0
H503 H 0.05791 0.84137 0.58284 0.0
H504 H 0.07199 0.82138 0.61207 0.0
H505 H 0.04987 0.7653 0.61366 0.0
H506 H 0.10669 0.7037 0.66585 0.0
H507 H 0.0923 0.72511 0.63855 0.0
C508 C 0.46902 0.86714 0.90382 0.0
C509 C 0.46776 0.85902 0.92723 0.0
C510 C 0.45878 0.86121 0.88408 0.0
C511 C 0.42213 0.83025 0.86774 0.0
H512 H 0.44682 0.82657 0.80557 0.0
C513 C 0.3963 0.78548 0.78874 0.0
C514 C 0.40892 0.77382 0.77917 0.0
C515 C 0.40117 0.80053 0.80281 0.0
C516 C 0.43969 0.8275 0.82276 0.0
H517 H 0.45435 0.83875 0.94857 0.0
H518 H 0.43708 0.82783 0.91402 0.0
H519 H 0.45931 0.84352 0.83947 0.0
H520 H 0.43645 0.76966 0.775 0.0
H521 H 0.44485 0.79541 0.7995 0.0
H522 H 0.40321 0.81288 0.85155 0.0
C523 C 0.44555 0.83915 0.91089 0.0
C524 C 0.44677 0.83748 0.84222 0.0
C525 C 0.45556 0.84533 0.93075 0.0
C526 C 0.4264 0.77828 0.78227 0.0
C527 C 0.43123 0.79322 0.79622 0.0
C528 C 0.41517 0.82002 0.84836 0.0
C529 C 0.44728 0.84675 0.88711 0.0
C530 C 0.43836 0.83852 0.86529 0.0
C531 C 0.41871 0.80421 0.80743 0.0
C532 C 0.42418 0.81799 0.82592 0.0
H533 H 0.47814 0.87791 0.90063 0.0
H534 H 0.46019 0.86775 0.86628 0.0
H535 H 0.41503 0.83111 0.88496 0.0
H536 H 0.38272 0.78241 0.78666 0.0
H537 H 0.39119 0.80887 0.81084 0.0
C538 C 0.3721 0.24789 0.20094 0.0
C539 C 0.37221 0.26627 0.19516 0.0
C540 C 0.37802 0.23526 0.18373 0.0
C541 C 0.38822 0.23047 0.11657 0.0
H542 H 0.41364 0.18854 0.13857 0.0
C543 C 0.43312 0.18817 0.05458 0.0
C544 C 0.43121 0.16941 0.05566 0.0
C545 C 0.42395 0.19926 0.07071 0.0
C546 C 0.40638 0.2001 0.13224 0.0
H547 H 0.37917 0.28594 0.16733 0.0
H548 H 0.39015 0.26412 0.13785 0.0
H549 H 0.40209 0.20945 0.16918 0.0
H550 H 0.41739 0.14771 0.07366 0.0
H551 H 0.40189 0.16711 0.10251 0.0
H552 H 0.39334 0.22143 0.07957 0.0
C553 C 0.38488 0.25928 0.15517 0.0
C554 C 0.39971 0.21206 0.14973 0.0
C555 C 0.37871 0.27183 0.17216 0.0
C556 C 0.41948 0.16203 0.07267 0.0
C557 C 0.41055 0.17311 0.08914 0.0
C558 C 0.39515 0.21867 0.09912 0.0
C559 C 0.38441 0.24081 0.16057 0.0
C560 C 0.39071 0.22752 0.1421 0.0
C561 C 0.41286 0.19179 0.08843 0.0
C562 C 0.4044 0.20349 0.10682 0.0
H563 H 0.36704 0.24323 0.21849 0.0
H564 H 0.37727 0.22116 0.18844 0.0
H565 H 0.38099 0.24196 0.10999 0.0
H566 H 0.44195 0.19431 0.04157 0.0
H567 H 0.42597 0.21365 0.0699 0.0
C568 C 0.0974 0.7886 0.20124 0.0
C569 C 0.08489 0.78315 0.21847 0.0
C570 C 0.09362 0.80213 0.18405 0.0
C571 C 0.06177 0.83726 0.16651 0.0
H572 H 0.06615 0.8171 0.10052 0.0
C573 C 0.01489 0.85517 0.08817 0.0
C574 C 0.02043 0.85503 0.06337 0.0
C575 C 0.02606 0.85019 0.10728 0.0
C576 C 0.06515 0.82324 0.11866 0.0
H577 H 0.05944 0.78877 0.23303 0.0
H578 H 0.05303 0.81262 0.20359 0.0
H579 H 0.08094 0.80291 0.13511 0.0
H580 H 0.04235 0.8501 0.03937 0.0
H581 H 0.06197 0.84165 0.07285 0.0
H582 H 0.04559 0.85732 0.1502 0.0
C583 C 0.06566 0.80641 0.20307 0.0
C584 C 0.07367 0.81508 0.13854 0.0
C585 C 0.06931 0.79272 0.21993 0.0
C586 C 0.0376 0.85022 0.05824 0.0
C587 C 0.04885 0.84533 0.07744 0.0
C588 C 0.05338 0.84553 0.14659 0.0
C589 C 0.07742 0.81063 0.18417 0.0
C590 C 0.07158 0.82163 0.1628 0.0
C591 C 0.04315 0.84504 0.1022 0.0
C592 C 0.05442 0.83822 0.12255 0.0
H593 H 0.10947 0.78135 0.19957 0.0
H594 H 0.10298 0.80523 0.16979 0.0
H595 H 0.06007 0.8427 0.18498 0.0
H596 H 0.00175 0.85873 0.09288 0.0
H597 H 0.02106 0.8498 0.12599 0.0
C598 C 0.37909 0.71792 0.31326 0.0
C599 C 0.37318 0.7229 0.28963 0.0
C600 C 0.38491 0.73088 0.32996 0.0
C601 C 0.40052 0.77782 0.33353 0.0
H602 H 0.39263 0.77066 0.40382 0.0
C603 C 0.42113 0.82903 0.40895 0.0
C604 C 0.43187 0.82154 0.42724 0.0
C605 C 0.41216 0.81796 0.39243 0.0
C606 C 0.39487 0.77281 0.38423 0.0
H607 H 0.36863 0.74538 0.26498 0.0
H608 H 0.37832 0.76815 0.29446 0.0
H609 H 0.38019 0.74969 0.37396 0.0
H610 H 0.44092 0.79653 0.44333 0.0
H611 H 0.42493 0.77726 0.41485 0.0
H612 H 0.41507 0.80111 0.34405 0.0
C613 C 0.37883 0.75417 0.29989 0.0
C614 C 0.38788 0.76077 0.36712 0.0
C615 C 0.37322 0.74114 0.28302 0.0
C616 C 0.43286 0.80275 0.42934 0.0
C617 C 0.42366 0.7917 0.41314 0.0
C618 C 0.4073 0.79002 0.35066 0.0
C619 C 0.38472 0.74919 0.3236 0.0
C620 C 0.39093 0.76289 0.34158 0.0
C621 C 0.41345 0.79921 0.39432 0.0
C622 C 0.4048 0.7874 0.37615 0.0
H623 H 0.37941 0.70394 0.3188 0.0
H624 H 0.38976 0.72648 0.34778 0.0
H625 H 0.40332 0.77977 0.31407 0.0
H626 H 0.41982 0.8434 0.40704 0.0
H627 H 0.40422 0.82402 0.37816 0.0
C628 C 0.41455 0.20325 0.71322 0.0
C629 C 0.39847 0.21179 0.71094 0.0
C630 C 0.41871 0.18868 0.69808 0.0
C631 C 0.41082 0.17518 0.63523 0.0
H632 H 0.44001 0.13472 0.65207 0.0
C633 C 0.44776 0.13638 0.55941 0.0
C634 C 0.465 0.1322 0.56514 0.0
C635 C 0.43639 0.14202 0.578 0.0
C636 C 0.43192 0.146 0.64701 0.0
H637 H 0.37366 0.21102 0.6924 0.0
H638 H 0.38108 0.18562 0.6655 0.0
H639 H 0.42524 0.15124 0.6849 0.0
H640 H 0.48368 0.13037 0.59507 0.0
H641 H 0.46419 0.1407 0.62708 0.0
H642 H 0.41834 0.17089 0.59764 0.0
C643 C 0.39039 0.19017 0.67914 0.0
C644 C 0.42336 0.15534 0.66583 0.0
C645 C 0.3861 0.20458 0.69466 0.0
C646 C 0.47048 0.1334 0.58995 0.0
C647 C 0.4592 0.1392 0.60843 0.0
C648 C 0.41953 0.16599 0.61645 0.0
C649 C 0.40698 0.18255 0.68007 0.0
C650 C 0.41312 0.17035 0.66018 0.0
C651 C 0.44204 0.14378 0.60271 0.0
C652 C 0.43065 0.15163 0.62216 0.0
H653 H 0.42432 0.20857 0.72563 0.0
H654 H 0.43163 0.18317 0.69914 0.0
H655 H 0.4032 0.18685 0.63033 0.0
H656 H 0.44305 0.13544 0.54053 0.0
H657 H 0.42321 0.14518 0.57293 0.0
C658 C 0.10051 0.26819 0.81655 0.0
C659 C 0.10654 0.2622 0.79346 0.0
C660 C 0.09487 0.25594 0.83429 0.0
C661 C 0.08063 0.20866 0.84186 0.0
H662 H 0.08826 0.21932 0.91145 0.0
C663 C 0.06344 0.15932 0.92063 0.0
C664 C 0.05205 0.16665 0.93818 0.0
C665 C 0.07178 0.17041 0.90359 0.0
C666 C 0.08609 0.2162 0.89207 0.0
H667 H 0.11149 0.23869 0.77081 0.0
H668 H 0.10221 0.2172 0.80212 0.0
H669 H 0.09964 0.23955 0.87997 0.0
H670 H 0.04133 0.19149 0.9526 0.0
H671 H 0.05626 0.21085 0.9232 0.0
H672 H 0.06733 0.1851 0.85421 0.0
C673 C 0.1014 0.23139 0.80634 0.0
C674 C 0.09247 0.22783 0.87402 0.0
C675 C 0.10678 0.24369 0.78841 0.0
C676 C 0.0499 0.18539 0.93918 0.0
C677 C 0.05848 0.19649 0.92244 0.0
C678 C 0.07451 0.19689 0.85993 0.0
C679 C 0.0954 0.23737 0.82954 0.0
C680 C 0.08956 0.22438 0.84868 0.0
C681 C 0.0692 0.18905 0.9042 0.0
C682 C 0.07697 0.20072 0.88517 0.0
H683 H 0.1 0.2824 0.82087 0.0
H684 H 0.08993 0.2611 0.85166 0.0
H685 H 0.07791 0.20568 0.8226 0.0
H686 H 0.06573 0.14503 0.91969 0.0
H687 H 0.08017 0.16443 0.88983 0.0
C688 C 0.98637 0.8657 0.6195 0.0
C689 C 0.98615 0.85705 0.59629 0.0
C690 C 0.97299 0.86306 0.63639 0.0
C691 C 0.94201 0.82917 0.65448 0.0
H692 H 0.92159 0.86702 0.69434 0.0
C693 C 0.90691 0.81417 0.7452 0.0
C694 C 0.89003 0.82092 0.74715 0.0
C695 C 0.91789 0.82023 0.72656 0.0
C696 C 0.92714 0.85636 0.68323 0.0
H697 H 0.97143 0.8393 0.57234 0.0
H698 H 0.94816 0.83446 0.60214 0.0
H699 H 0.94144 0.87476 0.66061 0.0
H700 H 0.87187 0.84024 0.73219 0.0
H701 H 0.89132 0.85109 0.69971 0.0
H702 H 0.92812 0.81075 0.67739 0.0
C703 C 0.95871 0.84331 0.60713 0.0
C704 C 0.93851 0.86076 0.66405 0.0
C705 C 0.97199 0.84613 0.59007 0.0
C706 C 0.88474 0.83467 0.731 0.0
C707 C 0.89586 0.84092 0.71248 0.0
C708 C 0.93088 0.82477 0.67383 0.0
C709 C 0.95921 0.85156 0.63057 0.0
C710 C 0.94614 0.84718 0.64962 0.0
C711 C 0.91234 0.83334 0.70968 0.0
C712 C 0.92349 0.8383 0.68855 0.0
H713 H -0.00297 0.8743 0.62481 0.0
H714 H 0.97377 0.86948 0.65439 0.0
H715 H 0.94783 0.81843 0.64382 0.0
H716 H 0.91142 0.80358 0.75732 0.0
H717 H 0.93064 0.81437 0.725 0.0
C718 C 0.94902 0.15173 0.47797 0.0
C719 C 0.96595 0.15812 0.48048 0.0
C720 C 0.93733 0.16049 0.46244 0.0
C721 C 0.93169 0.20122 0.42233 0.0
H722 H 0.90408 0.16826 0.38307 0.0
C723 C 0.90865 0.21392 0.3222 0.0
C724 C 0.89134 0.21007 0.31668 0.0
C725 C 0.91542 0.20989 0.34552 0.0
C726 C 0.91151 0.17766 0.39414 0.0
H727 H 0.98386 0.17898 0.46964 0.0
H728 H 0.96385 0.19378 0.44155 0.0
H729 H 0.92014 0.15703 0.41846 0.0
H730 H 0.86738 0.19948 0.33122 0.0
H731 H 0.87946 0.19181 0.37189 0.0
H732 H 0.92384 0.22156 0.39652 0.0
C733 C 0.95926 0.1824 0.45211 0.0
C734 C 0.92067 0.17128 0.41457 0.0
C735 C 0.97081 0.17387 0.46813 0.0
C736 C 0.8808 0.20248 0.33503 0.0
C737 C 0.88767 0.19811 0.35821 0.0
C738 C 0.92276 0.20752 0.40156 0.0
C739 C 0.9425 0.17553 0.44853 0.0
C740 C 0.93114 0.1829 0.42871 0.0
C741 C 0.90507 0.2017 0.36355 0.0
C742 C 0.91284 0.19571 0.38711 0.0
H743 H 0.94493 0.13969 0.48756 0.0
H744 H 0.92441 0.1551 0.46077 0.0
H745 H 0.9393 0.21065 0.43304 0.0
H746 H 0.91694 0.22015 0.30864 0.0
H747 H 0.92891 0.21268 0.34921 0.0
C748 C 0.50625 0.13746 0.09364 0.0
C749 C 0.48865 0.13705 0.09988 0.0
C750 C 0.5188 0.13998 0.11203 0.0
C751 C 0.52507 0.16062 0.17237 0.0
H752 H 0.56433 0.12877 0.17969 0.0
C753 C 0.57275 0.17137 0.25204 0.0
C754 C 0.59039 0.16959 0.24657 0.0
C755 C 0.56023 0.16501 0.2356 0.0
C756 C 0.55356 0.13792 0.17775 0.0
H757 H 0.47043 0.13909 0.13025 0.0
H758 H 0.4923 0.1439 0.16212 0.0
H759 H 0.54309 0.12314 0.147 0.0
H760 H 0.60854 0.15806 0.22053 0.0
H761 H 0.58688 0.14788 0.19129 0.0
H762 H 0.53565 0.17589 0.2022 0.0
C763 C 0.49636 0.1421 0.14307 0.0
C764 C 0.5414 0.13465 0.15906 0.0
C765 C 0.48387 0.13928 0.12482 0.0
C766 C 0.59517 0.16011 0.22513 0.0
C767 C 0.58264 0.15404 0.2084 0.0
C768 C 0.53733 0.16407 0.19075 0.0
C769 C 0.51393 0.14247 0.13687 0.0
C770 C 0.52702 0.14594 0.1563 0.0
C771 C 0.56499 0.15694 0.21303 0.0
C772 C 0.55172 0.15273 0.19382 0.0
H773 H 0.51033 0.1357 0.0746 0.0
H774 H 0.53228 0.14033 0.1068 0.0
H775 H 0.5142 0.16965 0.17041 0.0
H776 H 0.56857 0.17829 0.26865 0.0
H777 H 0.54678 0.1669 0.24031 0.0
C778 C 0.51781 0.8155 0.96968 0.0
C779 C 0.52321 0.83259 0.97757 0.0
C780 C 0.52736 0.80605 0.95207 0.0
C781 C 0.569 0.80149 0.92134 0.0
H782 H 0.54202 0.79269 0.86196 0.0
C783 C 0.60049 0.7865 0.82664 0.0
C784 C 0.59131 0.77604 0.80948 0.0
C785 C 0.59296 0.79123 0.84924 0.0
C786 C 0.54974 0.79458 0.8785 0.0
H787 H 0.54338 0.85265 0.97469 0.0
H788 H 0.56027 0.83589 0.94417 0.0
H789 H 0.5279 0.80391 0.89896 0.0
H790 H 0.5678 0.76106 0.80302 0.0
H791 H 0.55493 0.76853 0.84272 0.0
H792 H 0.59085 0.79194 0.90108 0.0
C793 C 0.54859 0.82994 0.95148 0.0
C794 C 0.54162 0.80111 0.89967 0.0
C795 C 0.53888 0.83955 0.96878 0.0
C796 C 0.5749 0.76962 0.81566 0.0
C797 C 0.56754 0.77395 0.83844 0.0
C798 C 0.57713 0.79459 0.90026 0.0
C799 C 0.54261 0.81339 0.94245 0.0
C800 C 0.5512 0.80483 0.92113 0.0
C801 C 0.57627 0.78519 0.8553 0.0
C802 C 0.56763 0.7913 0.87843 0.0
H803 H 0.50576 0.80982 0.97613 0.0
H804 H 0.52256 0.79326 0.94536 0.0
H805 H 0.57661 0.80426 0.93778 0.0
H806 H 0.61323 0.79153 0.82221 0.0
H807 H 0.60004 0.80008 0.86154 0.0
C808 C 0.88382 0.16563 0.78064 0.0
C809 C 0.88864 0.17123 0.75678 0.0
C810 C 0.89616 0.15893 0.79718 0.0
C811 C 0.94325 0.16134 0.80794 0.0
H812 H 0.93388 0.12648 0.85952 0.0
C813 C -0.00356 0.13464 0.87233 0.0
C814 C -0.00713 0.13466 0.89788 0.0
C815 C 0.98336 0.13778 0.85507 0.0
C816 C 0.93661 0.13631 0.84528 0.0
H817 H 0.9099 0.17272 0.73085 0.0
H818 H 0.93123 0.16033 0.75921 0.0
H819 H 0.91175 0.13305 0.82843 0.0
H820 H 0.9726 0.13763 0.92526 0.0
H821 H 0.94965 0.143 0.89489 0.0
H822 H 0.96813 0.16445 0.82462 0.0
C823 C 0.91807 0.16179 0.76559 0.0
C824 C 0.92395 0.1401 0.82748 0.0
C825 C 0.9058 0.16873 0.74922 0.0
C826 C 0.9758 0.13759 0.90573 0.0
C827 C 0.96264 0.14055 0.88837 0.0
C828 C 0.95591 0.15742 0.82552 0.0
C829 C 0.91355 0.15745 0.7901 0.0
C830 C 0.92712 0.15269 0.80857 0.0
C831 C 0.96636 0.14085 0.86289 0.0
C832 C 0.95273 0.14489 0.84438 0.0
H833 H 0.87081 0.16734 0.78718 0.0
H834 H 0.89217 0.15583 0.81591 0.0
H835 H 0.94604 0.17147 0.79414 0.0
H836 H 0.00941 0.13242 0.86557 0.0
H837 H 0.98656 0.13776 0.83553 0.0
C838 C 0.60203 0.21363 0.66006 0.0
C839 C 0.59413 0.20851 0.6824 0.0
C840 C 0.5941 0.20987 0.63734 0.0
C841 C 0.55179 0.19923 0.60983 0.0
H842 H 0.57819 0.17679 0.55725 0.0
C843 C 0.51875 0.17501 0.52062 0.0
C844 C 0.52242 0.15699 0.51493 0.0
C845 C 0.52909 0.18443 0.53745 0.0
C846 C 0.57069 0.18317 0.57171 0.0
H847 H 0.572 0.19503 0.69839 0.0
H848 H 0.55818 0.18856 0.65887 0.0
H849 H 0.59288 0.18703 0.59484 0.0
H850 H 0.54048 0.13516 0.52083 0.0
H851 H 0.55835 0.15148 0.55033 0.0
H852 H 0.5295 0.19466 0.58731 0.0
C853 C 0.57033 0.19576 0.65891 0.0
C854 C 0.5791 0.18913 0.59312 0.0
C855 C 0.57828 0.19942 0.68157 0.0
C856 C 0.5372 0.14895 0.52513 0.0
C857 C 0.54756 0.15838 0.54183 0.0
C858 C 0.54339 0.19334 0.58841 0.0
C859 C 0.57811 0.20101 0.63658 0.0
C860 C 0.56964 0.19676 0.61266 0.0
C861 C 0.54333 0.17604 0.54871 0.0
C862 C 0.55269 0.18482 0.56941 0.0
H863 H 0.61425 0.22068 0.66011 0.0
H864 H 0.60036 0.21409 0.62039 0.0
H865 H 0.54422 0.2053 0.62447 0.0
H866 H 0.50749 0.18158 0.51292 0.0
H867 H 0.52566 0.19811 0.5422 0.0
C868 C 0.57795 0.81976 0.23958 0.0
C869 C 0.59545 0.81944 0.24638 0.0
C870 C 0.56552 0.82652 0.25579 0.0
C871 C 0.5593 0.85109 0.31572 0.0
H872 H 0.51735 0.82272 0.31735 0.0
C873 C 0.50894 0.85223 0.39598 0.0
C874 C 0.49167 0.85405 0.38834 0.0
C875 C 0.52201 0.84954 0.37847 0.0
C876 C 0.52895 0.83083 0.317 0.0
H877 H 0.61365 0.82753 0.27485 0.0
H878 H 0.59208 0.83848 0.30352 0.0
H879 H 0.53924 0.81611 0.28653 0.0
H880 H 0.47461 0.8545 0.35634 0.0
H881 H 0.49732 0.84951 0.32606 0.0
H882 H 0.549 0.86533 0.34703 0.0
C883 C 0.58789 0.8337 0.28552 0.0
C884 C 0.54148 0.82717 0.29919 0.0
C885 C 0.60035 0.82723 0.26906 0.0
C886 C 0.48777 0.85318 0.3629 0.0
C887 C 0.50075 0.85025 0.34552 0.0
C888 C 0.54682 0.85458 0.33383 0.0
C889 C 0.57025 0.83287 0.27943 0.0
C890 C 0.55679 0.83731 0.29816 0.0
C891 C 0.51798 0.84835 0.35311 0.0
C892 C 0.5315 0.84454 0.3345 0.0
H893 H 0.57373 0.81416 0.22204 0.0
H894 H 0.55213 0.82624 0.25004 0.0
H895 H 0.57083 0.8593 0.31539 0.0
H896 H 0.51237 0.85291 0.41543 0.0
H897 H 0.53521 0.84801 0.38477 0.0
C898 C 0.88348 0.77213 0.15303 0.0
C899 C 0.89147 0.77758 0.17523 0.0
C900 C 0.89137 0.77547 0.13021 0.0
C901 C 0.93371 0.78543 0.10263 0.0
H902 H 0.90756 0.80798 0.0498 0.0
C903 C 0.96757 0.81065 0.01514 0.0
C904 C 0.96388 0.82874 0.00997 0.0
C905 C 0.957 0.80087 0.03114 0.0
C906 C 0.91498 0.80155 0.06432 0.0
H907 H 0.91369 0.79128 0.19085 0.0
H908 H 0.92743 0.79698 0.15121 0.0
H909 H 0.89271 0.79781 0.08717 0.0
H910 H 0.94551 0.8503 0.01577 0.0
H911 H 0.92726 0.83338 0.04389 0.0
H912 H 0.95609 0.78994 0.0805 0.0
C913 C 0.91525 0.78983 0.15143 0.0
C914 C 0.90648 0.79563 0.0856 0.0
C915 C 0.90735 0.78661 0.17416 0.0
C916 C 0.94883 0.83647 0.01973 0.0
C917 C 0.93825 0.82669 0.03561 0.0
C918 C 0.94219 0.79128 0.08136 0.0
C919 C 0.90741 0.78421 0.12925 0.0
C920 C 0.91587 0.78805 0.10528 0.0
C921 C 0.9425 0.80896 0.04209 0.0
C922 C 0.933 0.7999 0.06232 0.0
H923 H 0.87123 0.76513 0.15327 0.0
H924 H 0.88505 0.771 0.11337 0.0
H925 H 0.94121 0.77938 0.11738 0.0
H926 H 0.97903 0.8043 0.00773 0.0
H927 H 0.96047 0.78715 0.03558 0.0
C928 C 0.51222 0.63086 0.89967 0.0
C929 C 0.51807 0.63003 0.92433 0.0
C930 C 0.52317 0.63661 0.88075 0.0
C931 C 0.56226 0.66394 0.87099 0.0
H932 H 0.55631 0.64761 0.8032 0.0
C933 C 0.56575 0.69901 0.77258 0.0
C934 C 0.58151 0.70822 0.77451 0.0
C935 C 0.56208 0.68466 0.78831 0.0
C936 C 0.55825 0.65217 0.82208 0.0
H937 H 0.5403 0.63395 0.94823 0.0
H938 H 0.55953 0.64366 0.91511 0.0
H939 H 0.54206 0.63154 0.83685 0.0
H940 H 0.60633 0.70881 0.79304 0.0
H941 H 0.5998 0.68376 0.82091 0.0
H942 H 0.57808 0.68484 0.8561 0.0
C943 C 0.54633 0.64021 0.91048 0.0
C944 C 0.54999 0.64307 0.84136 0.0
C945 C 0.53532 0.63458 0.92948 0.0
C946 C 0.59413 0.70184 0.79103 0.0
C947 C 0.59034 0.68764 0.80712 0.0
C948 C 0.57065 0.67291 0.85174 0.0
C949 C 0.54033 0.64154 0.88591 0.0
C950 C 0.55137 0.64925 0.86597 0.0
C951 C 0.574 0.6794 0.80656 0.0
C952 C 0.56826 0.6675 0.827 0.0
H953 H 0.49901 0.62752 0.89498 0.0
H954 H 0.51793 0.63777 0.8622 0.0
H955 H 0.56352 0.66924 0.8896 0.0
H956 H 0.55579 0.70369 0.76001 0.0
H957 H 0.54935 0.67868 0.7875 0.0
C958 C 0.61497 0.22334 0.17094 0.0
C959 C 0.61157 0.22592 0.19627 0.0
C960 C 0.60828 0.23511 0.1533 0.0
C961 C 0.58318 0.254 0.11956 0.0
H962 H 0.57905 0.30515 0.13176 0.0
C963 C 0.54012 0.29934 0.05958 0.0
C964 C 0.54592 0.31677 0.05427 0.0
C965 C 0.54912 0.28852 0.07626 0.0
C966 C 0.58029 0.29092 0.12794 0.0
H967 H 0.59869 0.24307 0.22299 0.0
H968 H 0.58662 0.2634 0.19211 0.0
H969 H 0.59356 0.28619 0.16213 0.0
H970 H 0.56598 0.33638 0.06165 0.0
H971 H 0.58189 0.31737 0.09053 0.0
H972 H 0.57027 0.25874 0.08517 0.0
C973 C 0.59475 0.25245 0.18592 0.0
C974 C 0.5884 0.28002 0.1455 0.0
C975 C 0.60159 0.24074 0.20362 0.0
C976 C 0.56109 0.32307 0.06561 0.0
C977 C 0.57016 0.31221 0.08222 0.0
C978 C 0.57517 0.26489 0.10197 0.0
C979 C 0.59787 0.24964 0.16053 0.0
C980 C 0.58983 0.26142 0.14158 0.0
C981 C 0.56421 0.29485 0.08785 0.0
C982 C 0.57348 0.28345 0.10605 0.0
H983 H 0.62279 0.21217 0.16466 0.0
H984 H 0.61123 0.23277 0.13395 0.0
H985 H 0.58386 0.23969 0.11607 0.0
H986 H 0.52841 0.29413 0.05122 0.0
H987 H 0.54403 0.27533 0.08047 0.0
C988 C 0.88917 0.28392 0.29488 0.0
C989 C 0.90186 0.27714 0.27883 0.0
C990 C 0.89286 0.29856 0.31033 0.0
C991 C 0.9244 0.33477 0.32378 0.0
H992 H 0.92028 0.31899 0.39196 0.0
C993 C 0.97128 0.3582 0.39928 0.0
C994 C 0.96599 0.35918 0.42415 0.0
C995 C 0.96001 0.35208 0.38091 0.0
C996 C 0.92119 0.32395 0.37316 0.0
H997 H 0.92761 0.28133 0.26448 0.0
H998 H 0.93387 0.30715 0.29082 0.0
H999 H 0.9056 0.30243 0.35927 0.0
H1000 H 0.94438 0.35517 0.44901 0.0
H1001 H 0.92454 0.34482 0.41679 0.0
H1002 H 0.94032 0.35606 0.33753 0.0
C1003 C 0.92117 0.30113 0.29174 0.0
C1004 C 0.91275 0.31442 0.35438 0.0
C1005 C 0.91761 0.28631 0.27669 0.0
C1006 C 0.94893 0.35442 0.43007 0.0
C1007 C 0.93757 0.34844 0.41159 0.0
C1008 C 0.93268 0.34446 0.34259 0.0
C1009 C 0.90916 0.30685 0.30955 0.0
C1010 C 0.91479 0.31934 0.32943 0.0
C1011 C 0.94305 0.34693 0.3868 0.0
C1012 C 0.93175 0.33874 0.36743 0.0
H1013 H 0.87697 0.27699 0.29704 0.0
H1014 H 0.88336 0.30279 0.32382 0.0
H1015 H 0.92606 0.33895 0.30471 0.0
H1016 H 0.98433 0.36167 0.394 0.0
H1017 H 0.96488 0.35077 0.3622 0.0
C1018 C 0.88197 0.74941 0.71038 0.0
C1019 C 0.87189 0.76382 0.70182 0.0
C1020 C 0.88953 0.73747 0.69358 0.0
C1021 C 0.89745 0.70918 0.65437 0.0
H1022 H 0.91631 0.72975 0.59425 0.0
C1023 C 0.92499 0.66556 0.57497 0.0
C1024 C 0.93999 0.67188 0.56332 0.0
C1025 C 0.91619 0.67638 0.59194 0.0
C1026 C 0.91124 0.7238 0.61103 0.0
H1027 H 0.86121 0.77653 0.669 0.0
H1028 H 0.87402 0.75555 0.63989 0.0
H1029 H 0.90208 0.7491 0.62414 0.0
H1030 H 0.95763 0.6944 0.5604 0.0
H1031 H 0.94252 0.7131 0.59026 0.0
H1032 H 0.90719 0.68393 0.64153 0.0
C1033 C 0.87651 0.75372 0.65949 0.0
C1034 C 0.90286 0.73486 0.62802 0.0
C1035 C 0.86909 0.76571 0.67621 0.0
C1036 C 0.94603 0.68919 0.56894 0.0
C1037 C 0.93732 0.69995 0.58599 0.0
C1038 C 0.90593 0.6981 0.63738 0.0
C1039 C 0.88705 0.73964 0.66792 0.0
C1040 C 0.89584 0.7277 0.64988 0.0
C1041 C 0.92227 0.6937 0.59764 0.0
C1042 C 0.91297 0.7053 0.61555 0.0
H1043 H 0.88441 0.74763 0.73 0.0
H1044 H 0.89772 0.72686 0.70067 0.0
H1045 H 0.89205 0.70321 0.67092 0.0
H1046 H 0.91994 0.65232 0.57083 0.0
H1047 H 0.90451 0.67126 0.60033 0.0
C1048 C 0.52914 0.34801 0.56787 0.0
C1049 C 0.51218 0.35451 0.57045 0.0
C1050 C 0.53824 0.34157 0.58846 0.0
C1051 C 0.52985 0.32034 0.64795 0.0
H1052 H 0.57851 0.32806 0.66096 0.0
C1053 C 0.56178 0.28145 0.72592 0.0
C1054 C 0.57766 0.2735 0.7201 0.0
C1055 C 0.55535 0.29554 0.71158 0.0
C1056 C 0.56493 0.3257 0.65753 0.0
H1057 H 0.49186 0.36007 0.59704 0.0
H1058 H 0.5077 0.34878 0.63274 0.0
H1059 H 0.56427 0.34449 0.62737 0.0
H1060 H 0.59985 0.27469 0.69591 0.0
H1061 H 0.58837 0.2988 0.67012 0.0
H1062 H 0.53043 0.30097 0.67689 0.0
C1063 C 0.51388 0.34854 0.61476 0.0
C1064 C 0.55679 0.33514 0.63832 0.0
C1065 C 0.50483 0.35506 0.59426 0.0
C1066 C 0.58764 0.28077 0.70091 0.0
C1067 C 0.58101 0.2946 0.68612 0.0
C1068 C 0.53797 0.3108 0.66687 0.0
C1069 C 0.53054 0.3414 0.61202 0.0
C1070 C 0.53918 0.33244 0.63325 0.0
C1071 C 0.5644 0.30157 0.69058 0.0
C1072 C 0.55566 0.31321 0.67187 0.0
H1073 H 0.53524 0.34746 0.54984 0.0
H1074 H 0.55102 0.33603 0.58576 0.0
H1075 H 0.51635 0.31769 0.64421 0.0
H1076 H 0.5539 0.2761 0.74074 0.0
H1077 H 0.5428 0.30099 0.71616 0.0
C1078 C 0.92162 0.33211 0.92675 0.0
C1079 C 0.93425 0.32458 0.94232 0.0
C1080 C 0.91204 0.32123 0.91073 0.0
C1081 C 0.8961 0.27622 0.89994 0.0
H1082 H 0.90193 0.28612 0.8299 0.0
C1083 C 0.87671 0.22456 0.82598 0.0
C1084 C 0.87058 0.2306 0.80296 0.0
C1085 C 0.88324 0.23669 0.84333 0.0
C1086 C 0.89982 0.28333 0.84934 0.0
H1087 H 0.94586 0.29957 0.95455 0.0
H1088 H 0.92868 0.28054 0.92705 0.0
H1089 H 0.91457 0.30631 0.86055 0.0
H1090 H 0.86624 0.25404 0.78006 0.0
H1091 H 0.87697 0.27542 0.81076 0.0
H1092 H 0.88104 0.25353 0.88905 0.0
C1093 C 0.92651 0.29492 0.92697 0.0
C1094 C 0.90714 0.29487 0.86686 0.0
C1095 C 0.93635 0.30582 0.94262 0.0
C1096 C 0.87103 0.24903 0.79762 0.0
C1097 C 0.87725 0.26125 0.8152 0.0
C1098 C 0.88847 0.26486 0.88246 0.0
C1099 C 0.91459 0.30259 0.91052 0.0
C1100 C 0.90556 0.29123 0.89224 0.0
C1101 C 0.88348 0.25522 0.83829 0.0
C1102 C 0.8905 0.26807 0.85691 0.0
H1103 H 0.91931 0.34641 0.92648 0.0
H1104 H 0.90274 0.32737 0.89834 0.0
H1105 H 0.89464 0.27327 0.91949 0.0
H1106 H 0.87672 0.21038 0.83047 0.0
H1107 H 0.88833 0.23144 0.86056 0.0
C1108 C 0.95917 0.64031 0.06256 0.0
C1109 C 0.97593 0.6335 0.06609 0.0
C1110 C 0.94942 0.64627 0.0828 0.0
C1111 C 0.95635 0.66594 0.14374 0.0
H1112 H 0.9072 0.65919 0.15315 0.0
C1113 C 0.92311 0.70459 0.22062 0.0
C1114 C 0.9076 0.71299 0.21398 0.0
C1115 C 0.92959 0.69045 0.20642 0.0
C1116 C 0.92091 0.66128 0.15074 0.0
H1117 H -0.00486 0.62669 0.09394 0.0
H1118 H 0.9782 0.63714 0.12897 0.0
H1119 H 0.92205 0.64306 0.11984 0.0
H1120 H 0.88607 0.71257 0.1884 0.0
H1121 H 0.89766 0.6884 0.16284 0.0
H1122 H 0.95535 0.68478 0.17337 0.0
C1123 C 0.97267 0.63803 0.11055 0.0
C1124 C 0.9294 0.65201 0.13169 0.0
C1125 C 0.98236 0.63201 0.09041 0.0
C1126 C 0.89798 0.70612 0.19405 0.0
C1127 C 0.90468 0.69225 0.17939 0.0
C1128 C 0.94789 0.67532 0.16249 0.0
C1129 C 0.95628 0.64563 0.10692 0.0
C1130 C 0.94719 0.65436 0.12792 0.0
C1131 C 0.921 0.68484 0.18471 0.0
C1132 C 0.93003 0.67326 0.16621 0.0
H1133 H 0.95377 0.64159 0.04411 0.0
H1134 H 0.93686 0.65217 0.07943 0.0
H1135 H 0.97 0.66832 0.14101 0.0
H1136 H 0.93073 0.70966 0.23599 0.0
H1137 H 0.94188 0.68465 0.21166 0.0
C1138 C 0.61278 0.74343 0.2894 0.0
C1139 C 0.61383 0.76175 0.29544 0.0
C1140 C 0.60611 0.73114 0.30641 0.0
C1141 C 0.59496 0.72642 0.37328 0.0
H1142 H 0.56705 0.68674 0.34938 0.0
C1143 C 0.54814 0.68524 0.43393 0.0
C1144 C 0.5495 0.66645 0.43219 0.0
C1145 C 0.55743 0.69628 0.41791 0.0
C1146 C 0.57496 0.69768 0.35624 0.0
H1147 H 0.60838 0.78166 0.32375 0.0
H1148 H 0.5961 0.76044 0.35294 0.0
H1149 H 0.58014 0.7073 0.31974 0.0
H1150 H 0.56217 0.6446 0.41275 0.0
H1151 H 0.5779 0.66395 0.3842 0.0
H1152 H 0.589 0.71712 0.40986 0.0
C1153 C 0.60099 0.75536 0.3355 0.0
C1154 C 0.58254 0.70942 0.3393 0.0
C1155 C 0.60793 0.76757 0.31868 0.0
C1156 C 0.5606 0.65896 0.41438 0.0
C1157 C 0.56963 0.67002 0.39805 0.0
C1158 C 0.58712 0.71486 0.39019 0.0
C1159 C 0.60006 0.73696 0.32965 0.0
C1160 C 0.59255 0.72402 0.34761 0.0
C1161 C 0.56805 0.68875 0.39963 0.0
C1162 C 0.57701 0.70046 0.38179 0.0
H1163 H 0.61734 0.73854 0.27166 0.0
H1164 H 0.60586 0.71706 0.30138 0.0
H1165 H 0.60289 0.73724 0.38038 0.0
H1166 H 0.5398 0.69144 0.44756 0.0
H1167 H 0.55597 0.71072 0.41939 0.0
C1168 C 0.47262 0.35533 0.08768 0.0
C1169 C 0.49005 0.35395 0.09462 0.0
C1170 C 0.4596 0.35441 0.10558 0.0
C1171 C 0.45263 0.35642 0.17421 0.0
H1172 H 0.41017 0.33145 0.15803 0.0
C1173 C 0.40703 0.32308 0.24512 0.0
C1174 C 0.38916 0.32546 0.24184 0.0
C1175 C 0.41871 0.33006 0.22798 0.0
C1176 C 0.42186 0.33869 0.16269 0.0
H1177 H 0.50748 0.3502 0.12569 0.0
H1178 H 0.48492 0.34781 0.15658 0.0
H1179 H 0.43175 0.33612 0.12594 0.0
H1180 H 0.36979 0.33866 0.21921 0.0
H1181 H 0.39018 0.35012 0.18867 0.0
H1182 H 0.44298 0.35797 0.21139 0.0
C1183 C 0.48119 0.35029 0.13755 0.0
C1184 C 0.43425 0.34143 0.14429 0.0
C1185 C 0.49418 0.3515 0.11975 0.0
C1186 C 0.38336 0.33602 0.22191 0.0
C1187 C 0.39503 0.3427 0.20447 0.0
C1188 C 0.44036 0.35339 0.19269 0.0
C1189 C 0.46371 0.3518 0.13077 0.0
C1190 C 0.44993 0.35011 0.14987 0.0
C1191 C 0.41277 0.3394 0.20706 0.0
C1192 C 0.42497 0.34432 0.18714 0.0
H1193 H 0.46904 0.35737 0.06847 0.0
H1194 H 0.44633 0.3559 0.09964 0.0
H1195 H 0.46431 0.36356 0.17914 0.0
H1196 H 0.41201 0.31517 0.26037 0.0
H1197 H 0.43234 0.32732 0.23039 0.0
C1198 C 0.4654 0.67003 0.96752 0.0
C1199 C 0.46097 0.65363 0.97849 0.0
C1200 C 0.45375 0.67874 0.95182 0.0
C1201 C 0.41571 0.668 0.9127 0.0
H1202 H 0.41784 0.71901 0.89871 0.0
C1203 C 0.37656 0.7021 0.83423 0.0
C1204 C 0.38768 0.70965 0.81658 0.0
C1205 C 0.38289 0.69706 0.85749 0.0
C1206 C 0.41701 0.70478 0.90267 0.0
H1207 H 0.44059 0.63407 0.9834 0.0
H1208 H 0.41986 0.64973 0.95725 0.0
H1209 H 0.43316 0.70703 0.93468 0.0
H1210 H 0.41369 0.71902 0.8098 0.0
H1211 H 0.42468 0.7105 0.85053 0.0
H1212 H 0.39949 0.6659 0.88064 0.0
C1213 C 0.43255 0.65555 0.95969 0.0
C1214 C 0.42589 0.69785 0.92309 0.0
C1215 C 0.44436 0.64663 0.97485 0.0
C1216 C 0.40498 0.71283 0.82285 0.0
C1217 C 0.4112 0.7082 0.84624 0.0
C1218 C 0.40655 0.675 0.89264 0.0
C1219 C 0.43728 0.67139 0.94724 0.0
C1220 C 0.42581 0.67927 0.92792 0.0
C1221 C 0.40028 0.70002 0.86358 0.0
C1222 C 0.40755 0.69333 0.88707 0.0
H1223 H 0.4782 0.67562 0.96993 0.0
H1224 H 0.45804 0.69074 0.94236 0.0
H1225 H 0.41552 0.6536 0.91539 0.0
H1226 H 0.36313 0.69963 0.82977 0.0
H1227 H 0.37429 0.69072 0.87063 0.0
C1228 C 0.10617 0.65284 0.72086 0.0
C1229 C 0.10029 0.66289 0.74125 0.0
C1230 C 0.09444 0.64556 0.70385 0.0
C1231 C 0.04939 0.63248 0.69375 0.0
H1232 H 0.0553 0.65143 0.62741 0.0
C1233 C -0.00672 0.63448 0.6242 0.0
C1234 C -0.00337 0.63296 0.59871 0.0
C1235 C 0.0068 0.6354 0.64126 0.0
C1236 C 0.05358 0.64563 0.64562 0.0
H1237 H 0.07741 0.67156 0.7611 0.0
H1238 H 0.05703 0.65836 0.73186 0.0
H1239 H 0.0776 0.65645 0.65852 0.0
H1240 H 0.01683 0.63076 0.57115 0.0
H1241 H 0.0405 0.63173 0.60101 0.0
H1242 H 0.02547 0.62154 0.68104 0.0
C1243 C 0.07072 0.65649 0.72875 0.0
C1244 C 0.06638 0.64857 0.66346 0.0
C1245 C 0.08242 0.66408 0.74546 0.0
C1246 C 0.01384 0.6321 0.59067 0.0
C1247 C 0.0274 0.63273 0.60781 0.0
C1248 C 0.03672 0.62925 0.67582 0.0
C1249 C 0.07662 0.64772 0.70735 0.0
C1250 C 0.06421 0.64238 0.68782 0.0
C1251 C 0.02407 0.63452 0.63335 0.0
C1252 C 0.03843 0.6362 0.65167 0.0
H1253 H 0.11978 0.6511 0.71744 0.0
H1254 H 0.09928 0.6386 0.68764 0.0
H1255 H 0.0475 0.62745 0.71239 0.0
H1256 H 0.98016 0.63534 0.631 0.0
H1257 H 0.00366 0.63722 0.66064 0.0
C1258 C 0.02079 0.31742 0.47016 0.0
C1259 C 0.02403 0.33575 0.47425 0.0
C1260 C 0.03095 0.30764 0.45358 0.0
C1261 C 0.04419 0.29673 0.40295 0.0
H1262 H 0.0932 0.30448 0.39324 0.0
C1263 C 0.07665 0.28722 0.30881 0.0
C1264 C 0.09288 0.27888 0.30791 0.0
C1265 C 0.06917 0.29157 0.3315 0.0
C1266 C 0.07956 0.30197 0.39591 0.0
H1267 H 0.04124 0.35786 0.46574 0.0
H1268 H 0.05876 0.34091 0.43657 0.0
H1269 H 0.0792 0.31616 0.43048 0.0
H1270 H 0.1141 0.2687 0.33012 0.0
H1271 H 0.10101 0.27648 0.36992 0.0
H1272 H 0.04445 0.28287 0.3682 0.0
C1273 C 0.04843 0.33404 0.44616 0.0
C1274 C 0.07153 0.30877 0.41711 0.0
C1275 C 0.03825 0.34382 0.46266 0.0
C1276 C 0.10157 0.27513 0.33022 0.0
C1277 C 0.09411 0.27959 0.35299 0.0
C1278 C 0.05219 0.28999 0.38176 0.0
C1279 C 0.04459 0.31599 0.44092 0.0
C1280 C 0.05368 0.30658 0.42054 0.0
C1281 C 0.07779 0.28778 0.35382 0.0
C1282 C 0.06986 0.29295 0.37772 0.0
H1283 H 0.00998 0.31079 0.47896 0.0
H1284 H 0.02784 0.29366 0.45015 0.0
H1285 H 0.03039 0.29495 0.40491 0.0
H1286 H 0.06974 0.29057 0.292 0.0
H1287 H 0.05675 0.29822 0.33156 0.0
C1288 C 0.49171 0.62 0.37122 0.0
C1289 C 0.49054 0.62924 0.3939 0.0
C1290 C 0.47893 0.62192 0.35316 0.0
C1291 C 0.4576 0.63816 0.31223 0.0
H1292 H 0.4093 0.64524 0.3279 0.0
C1293 C 0.4102 0.67066 0.2438 0.0
C1294 C 0.39288 0.66506 0.24354 0.0
C1295 C 0.42175 0.66379 0.26123 0.0
C1296 C 0.4227 0.64302 0.32314 0.0
H1297 H 0.47475 0.64738 0.41565 0.0
H1298 H 0.45264 0.65116 0.3838 0.0
H1299 H 0.42958 0.63754 0.36085 0.0
H1300 H 0.37443 0.64694 0.26036 0.0
H1301 H 0.3947 0.63477 0.29074 0.0
H1302 H 0.45075 0.64338 0.27454 0.0
C1303 C 0.46329 0.64214 0.38016 0.0
C1304 C 0.43437 0.63886 0.34211 0.0
C1305 C 0.47601 0.64005 0.39839 0.0
C1306 C 0.3876 0.65176 0.26034 0.0
C1307 C 0.39921 0.64483 0.2778 0.0
C1308 C 0.44594 0.6422 0.2933 0.0
C1309 C 0.46473 0.6333 0.35716 0.0
C1310 C 0.45202 0.63661 0.33693 0.0
C1311 C 0.41634 0.65103 0.27875 0.0
C1312 C 0.4284 0.64499 0.29855 0.0
H1313 H 0.50259 0.61134 0.3673 0.0
H1314 H 0.48028 0.61457 0.33594 0.0
H1315 H 0.47111 0.63675 0.30753 0.0
H1316 H 0.41472 0.68093 0.23119 0.0
H1317 H 0.43478 0.66906 0.26156 0.0
C1318 C 0.01981 0.67861 0.02275 0.0
C1319 C 0.02635 0.66246 0.0131 0.0
C1320 C 0.02884 0.68784 0.0412 0.0
C1321 C 0.07037 0.69379 0.07223 0.0
H1322 H 0.04333 0.69737 0.13241 0.0
C1323 C 0.10181 0.70575 0.16779 0.0
C1324 C 0.09239 0.71503 0.18589 0.0
C1325 C 0.09419 0.70143 0.14506 0.0
C1326 C 0.05103 0.69692 0.11571 0.0
H1327 H 0.04798 0.64401 0.01366 0.0
H1328 H 0.06396 0.66041 0.04564 0.0
H1329 H 0.02967 0.6873 0.0943 0.0
H1330 H 0.06815 0.72819 0.19399 0.0
H1331 H 0.05503 0.72133 0.15415 0.0
H1332 H 0.09171 0.70361 0.09345 0.0
C1333 C 0.05179 0.66579 0.03908 0.0
C1334 C 0.04317 0.69106 0.09389 0.0
C1335 C 0.04262 0.65638 0.02092 0.0
C1336 C 0.07549 0.72052 0.18064 0.0
C1337 C 0.06799 0.71657 0.15775 0.0
C1338 C 0.07819 0.69999 0.09399 0.0
C1339 C 0.04469 0.68124 0.04992 0.0
C1340 C 0.05282 0.68921 0.07209 0.0
C1341 C 0.07713 0.70671 0.13979 0.0
C1342 C 0.06867 0.70136 0.11612 0.0
H1343 H 0.00727 0.68359 0.0171 0.0
H1344 H 0.02318 0.69979 0.04928 0.0
H1345 H 0.07802 0.69249 0.05555 0.0
H1346 H 0.11491 0.70143 0.17146 0.0
H1347 H 0.10157 0.69358 0.13193 0.0
C1348 C 0.06925 0.31708 0.73802 0.0
C1349 C 0.087 0.31914 0.74254 0.0
C1350 C 0.05712 0.32404 0.75453 0.0
C1351 C 0.0519 0.35315 0.81081 0.0
H1352 H 0.01285 0.32165 0.82214 0.0
C1353 C 0.00767 0.35536 0.89785 0.0
C1354 C 0.98986 0.3558 0.89283 0.0
C1355 C 0.0195 0.35249 0.8787 0.0
C1356 C 0.02363 0.33063 0.81905 0.0
H1357 H 0.10576 0.3319 0.76667 0.0
H1358 H 0.08482 0.34302 0.79621 0.0
H1359 H 0.03335 0.31446 0.78961 0.0
H1360 H 0.97051 0.35344 0.86384 0.0
H1361 H 0.99117 0.34797 0.83063 0.0
H1362 H 0.04235 0.36881 0.84129 0.0
C1363 C 0.08016 0.33616 0.77981 0.0
C1364 C 0.03534 0.32663 0.80023 0.0
C1365 C 0.09228 0.32951 0.76296 0.0
C1366 C 0.98414 0.35324 0.86832 0.0
C1367 C -0.00406 0.35006 0.84931 0.0
C1368 C 0.04031 0.35697 0.82996 0.0
C1369 C 0.06242 0.33299 0.77625 0.0
C1370 C 0.04963 0.33784 0.79576 0.0
C1371 C 0.0137 0.34967 0.85431 0.0
C1372 C 0.02607 0.34575 0.83417 0.0
H1373 H 0.06467 0.3095 0.72217 0.0
H1374 H 0.04357 0.32192 0.75059 0.0
H1375 H 0.06257 0.36226 0.80777 0.0
H1376 H 0.01246 0.35735 0.91653 0.0
H1377 H 0.03315 0.35212 0.883 0.0
C1378 C 0.44407 0.33704 0.51295 0.0
C1379 C 0.4609 0.33041 0.51034 0.0
C1380 C 0.43235 0.32843 0.52852 0.0
C1381 C 0.42642 0.28768 0.5685 0.0
H1382 H 0.3993 0.32085 0.60792 0.0
C1383 C 0.4035 0.275 0.66857 0.0
C1384 C 0.38613 0.27866 0.67383 0.0
C1385 C 0.41034 0.27918 0.64539 0.0
C1386 C 0.4066 0.31141 0.59681 0.0
H1387 H 0.47858 0.30927 0.52104 0.0
H1388 H 0.45853 0.29472 0.54917 0.0
H1389 H 0.41535 0.33199 0.57255 0.0
H1390 H 0.36215 0.28913 0.65903 0.0
H1391 H 0.37436 0.2971 0.6186 0.0
H1392 H 0.41847 0.26738 0.59425 0.0
C1393 C 0.45403 0.30618 0.53867 0.0
C1394 C 0.41575 0.31773 0.57639 0.0
C1395 C 0.46561 0.31457 0.52262 0.0
C1396 C 0.37562 0.28627 0.6554 0.0
C1397 C 0.38256 0.29081 0.63237 0.0
C1398 C 0.41753 0.28144 0.58927 0.0
C1399 C 0.43739 0.31329 0.54235 0.0
C1400 C 0.42604 0.30602 0.56218 0.0
C1401 C 0.39999 0.28734 0.62725 0.0
C1402 C 0.40777 0.29333 0.60377 0.0
H1403 H 0.44011 0.34917 0.50344 0.0
H1404 H 0.41952 0.33401 0.53027 0.0
H1405 H 0.43388 0.27818 0.55774 0.0
H1406 H 0.41177 0.26876 0.6822 0.0
H1407 H 0.42385 0.27649 0.64186 0.0
C1408 C 0.2918 0.28358 0.22172 0.0
C1409 C 0.30154 0.28081 0.24339 0.0
C1410 C 0.27556 0.27573 0.21897 0.0
C1411 C 0.24659 0.24052 0.24447 0.0
H1412 H 0.21095 0.27064 0.21591 0.0
C1413 C 0.17328 0.2306 0.25845 0.0
C1414 C 0.16209 0.23606 0.23933 0.0
C1415 C 0.19114 0.23223 0.25571 0.0
C1416 C 0.22079 0.26188 0.22346 0.0
H1417 H 0.3019 0.26741 0.27907 0.0
H1418 H 0.27328 0.25414 0.27457 0.0
H1419 H 0.24033 0.28166 0.21816 0.0
H1420 H 0.16093 0.24554 0.20135 0.0
H1421 H 0.19207 0.24816 0.19651 0.0
H1422 H 0.22668 0.221 0.25057 0.0
C1423 C 0.27837 0.2621 0.25948 0.0
C1424 C 0.23768 0.26823 0.2248 0.0
C1425 C 0.29472 0.26984 0.26216 0.0
C1426 C 0.16917 0.24148 0.21658 0.0
C1427 C 0.18701 0.24308 0.21384 0.0
C1428 C 0.2296 0.23419 0.24325 0.0
C1429 C 0.26855 0.26505 0.2379 0.0
C1430 C 0.25078 0.25772 0.23551 0.0
C1431 C 0.19813 0.23928 0.23378 0.0
C1432 C 0.2165 0.24488 0.2329 0.0
H1433 H 0.29674 0.29172 0.20672 0.0
H1434 H 0.26852 0.27801 0.2019 0.0
H1435 H 0.25641 0.23198 0.25252 0.0
H1436 H 0.16826 0.22624 0.27616 0.0
H1437 H 0.19935 0.22919 0.27142 0.0
C1438 C 0.03127 0.9284 0.53951 0.0
C1439 C 0.02155 0.9155 0.52649 0.0
C1440 C 0.0294 0.94663 0.53441 0.0
C1441 C 0.01393 0.97861 0.48731 0.0
H1442 H 0.01235 0.01144 0.54318 0.0
C1443 C -0.0068 0.05279 0.47867 0.0
C1444 C 0.00221 0.06564 0.49281 0.0
C1445 C -0.0035 0.0345 0.48166 0.0
C1446 C 0.01302 0.00249 0.52737 0.0
H1447 H 0.00236 0.91172 0.4976 0.0
H1448 H -0.00106 0.94374 0.48888 0.0
H1449 H 0.01577 0.97939 0.55049 0.0
H1450 H 0.02212 0.06931 0.52072 0.0
H1451 H 0.02792 0.03731 0.52584 0.0
H1452 H 0.011 0.00179 0.46422 0.0
C1453 C 0.00815 0.93962 0.50289 0.0
C1454 C 0.01494 0.98411 0.53155 0.0
C1455 C 0.01004 0.92129 0.50797 0.0
C1456 C 0.01489 0.05978 0.5096 0.0
C1457 C 0.01815 0.04145 0.51264 0.0
C1458 C 0.01197 -0.00298 0.48313 0.0
C1459 C 0.01772 0.95248 0.51622 0.0
C1460 C 0.01545 0.97197 0.51158 0.0
C1461 C 0.00885 0.02862 0.49888 0.0
C1462 C 0.0115 0.00915 0.50313 0.0
H1463 H 0.04038 0.92446 0.55375 0.0
H1464 H 0.0372 0.95616 0.54468 0.0
H1465 H 0.0145 0.96962 0.47154 0.0
H1466 H 0.98337 0.0568 0.4655 0.0
H1467 H 0.98899 0.02495 0.47097 0.0
C1468 C 0.31296 0.76157 0.76018 0.0
C1469 C 0.32456 0.75583 0.74181 0.0
C1470 C 0.29517 0.76066 0.75608 0.0
C1471 C 0.2658 0.73224 0.72089 0.0
H1472 H 0.2302 0.76198 0.75016 0.0
C1473 C 0.19486 0.71049 0.71795 0.0
C1474 C 0.18537 0.71264 0.73993 0.0
C1475 C 0.21091 0.71871 0.7152 0.0
C1476 C 0.24001 0.7535 0.74199 0.0
H1477 H 0.32666 0.74675 0.70369 0.0
H1478 H 0.29564 0.74545 0.69644 0.0
H1479 H 0.26006 0.77264 0.74953 0.0
H1480 H 0.18517 0.72547 0.77605 0.0
H1481 H 0.21347 0.7394 0.77154 0.0
H1482 H 0.24612 0.7128 0.71422 0.0
C1483 C 0.30029 0.75014 0.71426 0.0
C1484 C 0.25708 0.75965 0.74153 0.0
C1485 C 0.31806 0.75099 0.71838 0.0
C1486 C 0.19217 0.72351 0.75891 0.0
C1487 C 0.20833 0.73163 0.75623 0.0
C1488 C 0.24883 0.72609 0.72143 0.0
C1489 C 0.28866 0.75408 0.73348 0.0
C1490 C 0.2702 0.74895 0.73126 0.0
C1491 C 0.21798 0.72916 0.73443 0.0
C1492 C 0.23575 0.73651 0.73229 0.0
H1493 H 0.31753 0.76551 0.77838 0.0
H1494 H 0.28658 0.7638 0.77128 0.0
H1495 H 0.27563 0.72346 0.71335 0.0
H1496 H 0.1899 0.70244 0.70279 0.0
H1497 H 0.21784 0.7168 0.69798 0.0
C1498 C 0.47447 0.0698 0.00966 0.0
C1499 C 0.46245 0.07516 0.02769 0.0
C1500 C 0.47773 0.05157 0.00548 0.0
C1501 C 0.47385 0.00719 0.03533 0.0
H1502 H 0.47792 0.98883 0.96831 0.0
C1503 C 0.47642 0.93129 0.01411 0.0
C1504 C 0.48875 0.92571 -0.00336 0.0
C1505 C 0.47289 0.94954 0.01747 0.0
C1506 C 0.47696 0.99379 0.98714 0.0
H1507 H 0.44435 0.06548 0.05532 0.0
H1508 H 0.44992 0.03388 0.04784 0.0
H1509 H 0.47287 0.02083 0.97501 0.0
H1510 H 0.50685 0.93502 0.96877 0.0
H1511 H 0.50078 0.96673 0.97481 0.0
H1512 H 0.47794 0.98019 0.04748 0.0
C1513 C 0.45701 0.04373 0.03719 0.0
C1514 C 0.47411 0.01211 0.99097 0.0
C1515 C 0.45375 0.06189 0.04136 0.0
C1516 C 0.49727 0.93879 0.9824 0.0
C1517 C 0.49372 0.957 0.98573 0.0
C1518 C 0.47669 0.98889 0.03151 0.0
C1519 C 0.46906 0.03835 0.01927 0.0
C1520 C 0.47248 0.01899 0.01511 0.0
C1521 C 0.48157 0.96258 0.00338 0.0
C1522 C 0.47826 0.98198 0.00738 0.0
H1523 H 0.48142 0.07966 -0.00117 0.0
H1524 H 0.48721 0.04782 0.99169 0.0
H1525 H 0.47292 0.01213 0.05417 0.0
H1526 H 0.46958 0.92158 0.02534 0.0
H1527 H 0.46331 0.95344 0.03101 0.0
C1528 C 0.17225 0.74616 0.27377 0.0
C1529 C 0.16495 0.75284 0.25176 0.0
C1530 C 0.19004 0.74352 0.27562 0.0
C1531 C 0.23231 0.75197 0.2456 0.0
H1532 H 0.24202 0.70327 0.26687 0.0
C1533 C 0.29654 0.71599 0.2234 0.0
C1534 C 0.30351 0.70452 0.24151 0.0
C1535 C 0.28018 0.72356 0.22656 0.0
C1536 C 0.23965 0.71701 0.26128 0.0
H1537 H 0.17076 0.76368 0.21541 0.0
H1538 H 0.20178 0.75897 0.21863 0.0
H1539 H 0.21296 0.71507 0.27059 0.0
H1540 H 0.29882 0.69225 0.27736 0.0
H1541 H 0.27053 0.70563 0.28299 0.0
H1542 H 0.25905 0.75377 0.23599 0.0
C1543 C 0.19376 0.75573 0.23442 0.0
C1544 C 0.22296 0.7238 0.26346 0.0
C1545 C 0.17595 0.75837 0.23255 0.0
C1546 C 0.29379 0.70085 0.26287 0.0
C1547 C 0.27752 0.70851 0.2661 0.0
C1548 C 0.24908 0.74519 0.24354 0.0
C1549 C 0.20088 0.74755 0.25555 0.0
C1550 C 0.21905 0.74128 0.25542 0.0
C1551 C 0.27048 0.71992 0.24796 0.0
C1552 C 0.2529 0.72755 0.25111 0.0
H1553 H 0.16416 0.74198 0.28906 0.0
H1554 H 0.19522 0.73755 0.29235 0.0
H1555 H 0.22968 0.76553 0.23938 0.0
H1556 H 0.30368 0.7191 0.20672 0.0
H1557 H 0.27505 0.73206 0.21203 0.0
C1558 C 0.45445 0.92881 0.44562 0.0
C1559 C 0.46263 0.91538 0.4597 0.0
C1560 C 0.45737 0.94692 0.45065 0.0
C1561 C 0.47207 0.97798 0.49936 0.0
H1562 H 0.4778 0.01081 0.44422 0.0
C1563 C 0.49371 0.05165 0.51164 0.0
C1564 C 0.48573 0.06473 0.4967 0.0
C1565 C 0.49044 0.03343 0.50784 0.0
C1566 C 0.476 0.00186 0.45981 0.0
H1567 H 0.48032 0.91055 0.49021 0.0
H1568 H 0.48554 0.94233 0.49887 0.0
H1569 H 0.47365 0.9789 0.43619 0.0
H1570 H 0.46771 0.06886 0.4664 0.0
H1571 H 0.4619 0.03698 0.45989 0.0
H1572 H 0.47448 0.00099 0.52297 0.0
C1573 C 0.47672 0.93874 0.48407 0.0
C1574 C 0.47367 0.98357 0.45521 0.0
C1575 C 0.4738 0.92054 0.47902 0.0
C1576 C 0.47412 0.05916 0.47819 0.0
C1577 C 0.47087 0.04089 0.47435 0.0
C1578 C 0.47443 -0.00371 0.50396 0.0
C1579 C 0.46856 0.9521 0.46986 0.0
C1580 C 0.4716 0.97144 0.47492 0.0
C1581 C 0.47913 0.02784 0.489 0.0
C1582 C 0.47636 0.00843 0.48421 0.0
H1583 H 0.44569 0.92539 0.43067 0.0
H1584 H 0.45067 0.95688 0.43964 0.0
H1585 H 0.47029 0.96899 0.51491 0.0
H1586 H 0.50272 0.05544 0.52611 0.0
H1587 H 0.49713 0.02371 0.51926 0.0
C1588 C 0.18298 0.2658 0.72401 0.0
C1589 C 0.17612 0.27725 0.74224 0.0
C1590 C 0.19967 0.25887 0.7265 0.0
C1591 C 0.24076 0.26815 0.75884 0.0
H1592 H 0.2531 0.2204 0.73618 0.0
C1593 C 0.31023 0.24406 0.76702 0.0
C1594 C 0.31723 0.23789 0.74456 0.0
C1595 C 0.29239 0.24533 0.77001 0.0
C1596 C 0.24981 0.23375 0.74261 0.0
H1597 H 0.18121 0.28987 0.77782 0.0
H1598 H 0.21004 0.27756 0.78236 0.0
H1599 H 0.22294 0.23006 0.73464 0.0
H1600 H 0.31097 0.22651 0.70858 0.0
H1601 H 0.27985 0.22886 0.71377 0.0
H1602 H 0.26753 0.272 0.76647 0.0
C1603 C 0.20275 0.27428 0.76582 0.0
C1604 C 0.23258 0.23932 0.74162 0.0
C1605 C 0.18617 0.28131 0.76323 0.0
C1606 C 0.306 0.23147 0.72605 0.0
C1607 C 0.28814 0.23275 0.72905 0.0
C1608 C 0.2579 0.26256 0.75996 0.0
C1609 C 0.2098 0.26314 0.74737 0.0
C1610 C 0.22789 0.25668 0.74949 0.0
C1611 C 0.28119 0.24043 0.75063 0.0
C1612 C 0.26266 0.24538 0.75164 0.0
H1613 H 0.17557 0.26238 0.70762 0.0
H1614 H 0.20477 0.25053 0.71179 0.0
H1615 H 0.23771 0.28173 0.76458 0.0
H1616 H 0.31852 0.24889 0.7818 0.0
H1617 H 0.28737 0.25095 0.78707 0.0
C1618 C 0.01072 0.06648 0.98532 0.0
C1619 C 0.02211 0.07217 0.96667 0.0
C1620 C 0.00785 0.04815 0.98932 0.0
C1621 C 0.01157 0.00407 0.95824 0.0
H1622 H 0.00972 0.98499 0.025 0.0
C1623 C 0.01106 0.92793 0.97761 0.0
C1624 C -0.00078 0.92191 0.99545 0.0
C1625 C 0.01423 0.94629 0.97465 0.0
C1626 C 0.01007 0.99015 0.00625 0.0
H1627 H 0.0395 0.06298 0.93775 0.0
H1628 H 0.0346 0.03127 0.94491 0.0
H1629 H 0.01393 0.01717 0.01877 0.0
H1630 H 0.98167 0.93052 0.0245 0.0
H1631 H 0.98713 0.9624 0.01917 0.0
H1632 H 0.00771 0.97709 0.9457 0.0
C1633 C 0.02769 0.04091 0.95619 0.0
C1634 C 0.01243 0.00857 0.0027 0.0
C1635 C 0.03057 0.05914 0.95221 0.0
C1636 C 0.99087 0.93464 0.01054 0.0
C1637 C -0.00593 0.95295 0.00762 0.0
C1638 C 0.00923 0.98567 0.96179 0.0
C1639 C 0.01627 0.03518 0.97472 0.0
C1640 C 0.01326 0.01572 0.97864 0.0
C1641 C 0.00567 0.95899 0.98952 0.0
C1642 C 0.00848 0.9785 0.98583 0.0
H1643 H 0.00399 0.07614 -0.00322 0.0
H1644 H -0.00115 0.04414 0.00361 0.0
H1645 H 0.01186 0.0092 0.93947 0.0
H1646 H 0.01775 0.91849 0.96573 0.0
H1647 H 0.02341 0.95054 0.96074 0.0
C1648 C 0.79141 0.78496 0.72837 0.0
C1649 C 0.80121 0.78111 0.74966 0.0
C1650 C 0.775 0.7776 0.72523 0.0
C1651 C 0.74575 0.74173 0.74789 0.0
H1652 H 0.71034 0.77324 0.72168 0.0
C1653 C 0.67233 0.73081 0.75935 0.0
C1654 C 0.66133 0.73699 0.74044 0.0
C1655 C 0.6902 0.73284 0.75731 0.0
C1656 C 0.72012 0.76412 0.72856 0.0
H1657 H 0.80143 0.76638 0.78433 0.0
H1658 H 0.77252 0.75392 0.77916 0.0
H1659 H 0.73976 0.78403 0.7252 0.0
H1660 H 0.66054 0.74838 0.70345 0.0
H1661 H 0.6917 0.75173 0.69983 0.0
H1662 H 0.72578 0.72201 0.75197 0.0
C1663 C 0.77771 0.76237 0.76465 0.0
C1664 C 0.73703 0.77033 0.73064 0.0
C1665 C 0.79422 0.76964 0.76772 0.0
C1666 C 0.66863 0.7437 0.71851 0.0
C1667 C 0.68648 0.74572 0.71648 0.0
C1668 C 0.72876 0.73552 0.74591 0.0
C1669 C 0.76788 0.76633 0.7434 0.0
C1670 C 0.75004 0.75928 0.74047 0.0
C1671 C 0.69739 0.74105 0.7363 0.0
C1672 C 0.71574 0.74671 0.73636 0.0
H1673 H 0.79646 0.79354 0.71391 0.0
H1674 H 0.76793 0.78068 0.70843 0.0
H1675 H 0.75552 0.73279 0.75522 0.0
H1676 H 0.66713 0.72545 0.77642 0.0
H1677 H 0.69824 0.72911 0.77292 0.0
C1678 C 0.69107 0.20407 0.22811 0.0
C1679 C 0.68086 0.20877 0.24863 0.0
C1680 C 0.70773 0.21088 0.2256 0.0
C1681 C 0.73742 0.24645 0.24833 0.0
H1682 H 0.77248 0.21324 0.22546 0.0
C1683 C 0.81092 0.25551 0.2628 0.0
C1684 C 0.82205 0.24865 0.24455 0.0
C1685 C 0.79305 0.2539 0.26013 0.0
C1686 C 0.76281 0.22281 0.23141 0.0
H1687 H 0.68017 0.22447 0.28253 0.0
H1688 H 0.70952 0.23596 0.2785 0.0
H1689 H 0.74271 0.2034 0.22792 0.0
H1690 H 0.82313 0.23644 0.20804 0.0
H1691 H 0.79196 0.23379 0.20331 0.0
H1692 H 0.75786 0.26567 0.25258 0.0
C1693 C 0.70447 0.22727 0.26409 0.0
C1694 C 0.74571 0.21715 0.23287 0.0
C1695 C 0.6877 0.22056 0.26652 0.0
C1696 C 0.81493 0.24163 0.2226 0.0
C1697 C 0.79707 0.24003 0.21994 0.0
C1698 C 0.75462 0.2521 0.24699 0.0
C1699 C 0.71471 0.22243 0.24365 0.0
C1700 C 0.7328 0.22885 0.24147 0.0
C1701 C 0.78599 0.24543 0.23914 0.0
C1702 C 0.7675 0.24028 0.23863 0.0
H1703 H 0.68615 0.19523 0.21378 0.0
H1704 H 0.71512 0.20714 0.20938 0.0
H1705 H 0.72776 0.25588 0.25471 0.0
H1706 H 0.81599 0.26111 0.27987 0.0
H1707 H 0.78485 0.25818 0.27525 0.0
C1708 C 0.67084 0.26515 0.73132 0.0
C1709 C 0.66133 0.25611 0.74963 0.0
C1710 C 0.68884 0.26576 0.73258 0.0
C1711 C 0.72682 0.25464 0.77254 0.0
H1712 H 0.74683 0.23917 0.71023 0.0
C1713 C 0.78966 0.21398 0.76674 0.0
C1714 C 0.80138 0.21782 0.74761 0.0
C1715 C 0.77361 0.22246 0.76757 0.0
C1716 C 0.74154 0.2438 0.72768 0.0
H1717 H 0.66317 0.24221 0.78486 0.0
H1718 H 0.69443 0.243 0.78684 0.0
H1719 H 0.71687 0.24876 0.71142 0.0
H1720 H 0.8054 0.23374 0.71444 0.0
H1721 H 0.77727 0.24841 0.71584 0.0
H1722 H 0.75139 0.24885 0.78891 0.0
C1723 C 0.68808 0.2497 0.77153 0.0
C1724 C 0.72436 0.24938 0.72837 0.0
C1725 C 0.6701 0.24915 0.77032 0.0
C1726 C 0.79667 0.23039 0.72937 0.0
C1727 C 0.78055 0.2388 0.73014 0.0
C1728 C 0.744 0.24897 0.77186 0.0
C1729 C 0.69769 0.25733 0.75215 0.0
C1730 C 0.71665 0.25443 0.75092 0.0
C1731 C 0.76886 0.23491 0.74925 0.0
C1732 C 0.75139 0.24305 0.74953 0.0
H1733 H 0.66446 0.27086 0.71528 0.0
H1734 H 0.69586 0.27211 0.71763 0.0
H1735 H 0.72136 0.25873 0.79013 0.0
H1736 H 0.79286 0.20442 0.78115 0.0
H1737 H 0.76476 0.21896 0.78231 0.0
C1738 C 0.81242 0.7277 0.22587 0.0
C1739 C 0.82362 0.73334 0.2449 0.0
C1740 C 0.79455 0.72859 0.22907 0.0
C1741 C 0.7645 0.75692 0.26274 0.0
H1742 H 0.72933 0.72657 0.2333 0.0
C1743 C 0.69329 0.77741 0.26555 0.0
C1744 C 0.68352 0.77474 0.24388 0.0
C1745 C 0.70958 0.76966 0.26808 0.0
C1746 C 0.73903 0.73523 0.24146 0.0
H1747 H 0.8249 0.74226 0.28317 0.0
H1748 H 0.79375 0.7436 0.2888 0.0
H1749 H 0.75931 0.71626 0.23455 0.0
H1750 H 0.68312 0.76158 0.20799 0.0
H1751 H 0.71188 0.74854 0.21204 0.0
H1752 H 0.74462 0.7762 0.26879 0.0
C1753 C 0.79878 0.73896 0.2712 0.0
C1754 C 0.75616 0.72928 0.24229 0.0
C1755 C 0.81662 0.7381 0.268 0.0
C1756 C 0.69034 0.76393 0.2249 0.0
C1757 C 0.70676 0.75632 0.22733 0.0
C1758 C 0.74749 0.7629 0.26178 0.0
C1759 C 0.78758 0.73507 0.25138 0.0
C1760 C 0.76909 0.74016 0.25276 0.0
C1761 C 0.71663 0.75923 0.24888 0.0
C1762 C 0.73454 0.75223 0.25094 0.0
H1763 H 0.81739 0.72382 0.2079 0.0
H1764 H 0.78627 0.7255 0.21344 0.0
H1765 H 0.77421 0.76583 0.27038 0.0
H1766 H 0.68832 0.78541 0.28073 0.0
H1767 H 0.71665 0.77189 0.28515 0.0
C1768 C 0.51026 0.4179 0.00351 0.0
C1769 C 0.52182 0.41188 0.02183 0.0
C1770 C 0.50814 0.43628 -0.00087 0.0
C1771 C 0.51403 0.48033 0.02926 0.0
H1772 H 0.51046 0.49896 0.96239 0.0
C1773 C 0.51192 0.55639 0.00929 0.0
C1774 C 0.49953 0.56205 0.99191 0.0
C1775 C 0.51561 0.53813 0.01218 0.0
C1776 C 0.51131 0.49393 0.98118 0.0
H1777 H 0.5404 0.42054 0.04963 0.0
H1778 H 0.53677 0.45241 0.04181 0.0
H1779 H 0.51461 0.4668 0.96884 0.0
H1780 H 0.48157 0.5529 0.96358 0.0
H1781 H 0.4879 0.52121 0.96883 0.0
H1782 H 0.51059 0.50739 0.04164 0.0
C1783 C 0.52917 0.44296 0.03109 0.0
C1784 C 0.51365 0.47552 0.98486 0.0
C1785 C 0.5313 0.42465 0.03546 0.0
C1786 C 0.49119 0.54906 0.97718 0.0
C1787 C 0.49489 0.53086 0.98005 0.0
C1788 C 0.51168 0.49872 0.02559 0.0
C1789 C 0.5175 0.449 0.013 0.0
C1790 C 0.51501 0.46853 0.00895 0.0
C1791 C 0.50703 0.52517 -0.00229 0.0
C1792 C 0.51024 0.50572 0.00151 0.0
H1793 H 0.50275 0.40844 0.99269 0.0
H1794 H 0.49893 0.44055 0.9852 0.0
H1795 H 0.51476 0.47531 0.04807 0.0
H1796 H 0.51863 0.56603 0.02089 0.0
H1797 H 0.52519 0.53416 0.02575 0.0
C1798 C -0.00617 0.44093 0.47591 0.0
C1799 C 0.98579 0.42776 0.49059 0.0
C1800 C 0.98995 0.45908 0.47912 0.0
C1801 C 0.97322 0.49067 0.52553 0.0
H1802 H 0.96952 0.5231 0.46956 0.0
C1803 C 0.95302 0.56433 0.53769 0.0
C1804 C 0.96242 0.57736 0.52454 0.0
C1805 C 0.95514 0.54611 0.53257 0.0
C1806 C 0.97068 0.51423 0.48537 0.0
H1807 H 0.96702 0.4234 0.51975 0.0
H1808 H 0.96015 0.45514 0.52518 0.0
H1809 H 0.97401 0.49105 0.46233 0.0
H1810 H 0.98122 0.58137 0.49532 0.0
H1811 H 0.98502 0.54941 0.48653 0.0
H1812 H 0.97001 0.5138 0.54858 0.0
C1813 C 0.96964 0.45137 0.51142 0.0
C1814 C 0.97323 0.49588 0.48124 0.0
C1815 C 0.97352 0.43318 0.50822 0.0
C1816 C 0.97378 0.5717 0.50581 0.0
C1817 C 0.9759 0.55341 0.50068 0.0
C1818 C 0.97067 0.50898 0.52965 0.0
C1819 C 0.97794 0.46453 0.49706 0.0
C1820 C 0.97457 0.48391 0.50129 0.0
C1821 C 0.96671 0.54042 0.5142 0.0
C1822 C 0.96939 0.52097 0.50963 0.0
H1823 H 0.00335 0.43728 0.46214 0.0
H1824 H -0.00327 0.46888 0.46796 0.0
H1825 H 0.97453 0.48186 0.54139 0.0
H1826 H 0.94405 0.56815 0.55212 0.0
H1827 H 0.94766 0.53645 0.54302 0.0
C1828 C 0.95853 0.432 0.95254 0.0
C1829 C 0.96761 0.41864 0.96558 0.0
C1830 C 0.96232 0.45011 0.95617 0.0
C1831 C 0.98213 0.4816 0.00044 0.0
H1832 H 0.9835 0.51331 0.94349 0.0
C1833 C 0.0053 0.55513 0.0067 0.0
C1834 C -0.00417 0.56805 0.99337 0.0
C1835 C 0.00193 0.53686 0.00359 0.0
C1836 C 0.98297 0.50465 0.9596 0.0
H1837 H 0.98784 0.41393 0.9927 0.0
H1838 H -0.00546 0.44567 -0.00115 0.0
H1839 H 0.9779 0.48138 0.9375 0.0
H1840 H 0.97526 0.57183 0.96648 0.0
H1841 H 0.96935 0.53988 0.96124 0.0
H1842 H 0.9872 0.50491 0.02254 0.0
C1843 C 0.98437 0.44205 0.98602 0.0
C1844 C 0.97979 0.48638 0.95617 0.0
C1845 C 0.98057 0.42387 0.98238 0.0
C1846 C 0.98284 0.56225 0.97699 0.0
C1847 C 0.9795 0.54394 0.97386 0.0
C1848 C 0.98533 0.49989 0.00388 0.0
C1849 C 0.97529 0.45535 0.97288 0.0
C1850 C 0.97924 0.47466 0.97656 0.0
C1851 C 0.98905 0.53106 0.98709 0.0
C1852 C 0.98571 0.51163 0.98349 0.0
H1853 H 0.94842 0.42851 0.93953 0.0
H1854 H 0.95491 0.46005 0.94605 0.0
H1855 H 0.98155 0.47294 0.01656 0.0
H1856 H 0.0154 0.55909 0.01946 0.0
H1857 H 0.00964 0.52724 0.01384 0.0
C1858 C 0.51205 0.42797 0.48353 0.0
C1859 C 0.49867 0.42236 0.49926 0.0
C1860 C 0.5158 0.44623 0.48087 0.0
C1861 C 0.50944 0.49074 0.51015 0.0
H1862 H 0.51658 0.50842 0.44342 0.0
C1863 C 0.51034 0.56656 0.48526 0.0
C1864 C 0.52278 0.57203 0.4679 0.0
C1865 C 0.50784 0.54829 0.49024 0.0
C1866 C 0.51481 0.50368 0.46221 0.0
H1867 H 0.47904 0.43158 0.52501 0.0
H1868 H 0.4855 0.4633 0.52015 0.0
H1869 H 0.51206 0.47646 0.45016 0.0
H1870 H 0.54269 0.56256 0.44277 0.0
H1871 H 0.53844 0.53097 0.45166 0.0
H1872 H 0.51211 0.51805 0.52214 0.0
C1873 C 0.49319 0.4536 0.51005 0.0
C1874 C 0.51225 0.48535 0.46606 0.0
C1875 C 0.48942 0.43539 0.51268 0.0
C1876 C 0.53286 0.55888 0.45606 0.0
C1877 C 0.53038 0.54071 0.46106 0.0
C1878 C 0.51201 0.5091 0.50629 0.0
C1879 C 0.50629 0.45924 0.49392 0.0
C1880 C 0.50954 0.47867 0.49006 0.0
C1881 C 0.51773 0.53518 0.47797 0.0
C1882 C 0.51476 0.51576 0.48227 0.0
H1883 H 0.51948 0.4183 0.473 0.0
H1884 H 0.52613 0.45017 0.46854 0.0
H1885 H 0.50754 0.48595 0.5289 0.0
H1886 H 0.50236 0.57634 0.49471 0.0
H1887 H 0.49791 0.54442 0.50327 0.0
C1888 C 0.02187 0.34287 0.02505 0.0
C1889 C 0.01724 0.33277 0.00404 0.0
C1890 C 0.03254 0.33547 0.04325 0.0
C1891 C 0.06113 0.29704 0.05938 0.0
H1892 H 0.04031 0.30315 0.12413 0.0
C1893 C 0.06004 0.26508 0.16444 0.0
C1894 C 0.07743 0.26633 0.1716 0.0
C1895 C 0.05469 0.27139 0.14139 0.0
C1896 C 0.04624 0.30121 0.10615 0.0
H1897 H 0.02143 0.30759 0.98463 0.0
H1898 H 0.03985 0.29462 0.01659 0.0
H1899 H 0.02865 0.31934 0.08893 0.0
H1900 H 0.10311 0.27364 0.15934 0.0
H1901 H 0.09365 0.28483 0.11883 0.0
H1902 H 0.07858 0.27855 0.07698 0.0
C1903 C 0.03529 0.30827 0.01896 0.0
C1904 C 0.03972 0.31073 0.08603 0.0
C1905 C 0.02463 0.31568 0.00069 0.0
C1906 C 0.08962 0.2725 0.15431 0.0
C1907 C 0.08421 0.27894 0.13115 0.0
C1908 C 0.06778 0.28755 0.07972 0.0
C1909 C 0.03878 0.31781 0.04088 0.0
C1910 C 0.04696 0.30868 0.06236 0.0
C1911 C 0.06657 0.2792 0.12501 0.0
C1912 C 0.06018 0.28935 0.10322 0.0
H1913 H 0.01659 0.35616 0.02804 0.0
H1914 H 0.03531 0.34331 0.05972 0.0
H1915 H 0.067 0.29523 0.04136 0.0
H1916 H 0.05039 0.26014 0.17722 0.0
H1917 H 0.04106 0.27101 0.13687 0.0
C1918 C 0.89546 0.77519 0.32897 0.0
C1919 C 0.90688 0.76725 0.31198 0.0
C1920 C 0.90135 0.78047 0.35247 0.0
C1921 C 0.93778 0.77585 0.39674 0.0
H1922 H 0.93176 0.82691 0.40825 0.0
C1923 C 0.9889 0.81747 0.44582 0.0
C1924 C 0.98406 0.83058 0.46322 0.0
C1925 C 0.97652 0.80865 0.43157 0.0
C1926 C 0.93328 0.81257 0.40566 0.0
H1927 H 0.93287 0.75729 0.30674 0.0
H1928 H 0.943 0.76604 0.34769 0.0
H1929 H 0.9144 0.81178 0.37659 0.0
H1930 H 0.96235 0.845 0.4789 0.0
H1931 H 0.94055 0.82962 0.45348 0.0
H1932 H 0.95719 0.77676 0.42495 0.0
C1933 C 0.92959 0.76835 0.34301 0.0
C1934 C 0.92331 0.80389 0.38758 0.0
C1935 C 0.92382 0.76341 0.31949 0.0
C1936 C 0.96649 0.83497 0.46562 0.0
C1937 C 0.95402 0.82617 0.45113 0.0
C1938 C 0.9477 0.7845 0.41477 0.0
C1939 C 0.91861 0.7775 0.35944 0.0
C1940 C 0.92599 0.78559 0.38227 0.0
C1941 C 0.95893 0.81272 0.43422 0.0
C1942 C 0.94608 0.80309 0.41868 0.0
H1943 H 0.88237 0.77842 0.32353 0.0
H1944 H 0.89262 0.78743 0.36484 0.0
H1945 H 0.93992 0.76168 0.3933 0.0
H1946 H 0.00231 0.81379 0.44335 0.0
H1947 H 0.98077 0.79868 0.41826 0.0
C1948 C 0.4268 0.72246 0.67535 0.0
C1949 C 0.40937 0.71989 0.68131 0.0
C1950 C 0.433 0.7178 0.65198 0.0
C1951 C 0.42567 0.68479 0.60408 0.0
H1952 H 0.46202 0.71108 0.57078 0.0
C1953 C 0.46827 0.65425 0.52528 0.0
C1954 C 0.48603 0.65737 0.52861 0.0
C1955 C 0.45614 0.66323 0.54007 0.0
C1956 C 0.45185 0.70358 0.57982 0.0
H1957 H 0.38452 0.71122 0.66721 0.0
H1958 H 0.3955 0.70269 0.62617 0.0
H1959 H 0.44512 0.72587 0.60295 0.0
H1960 H 0.50493 0.67208 0.55041 0.0
H1961 H 0.48398 0.68746 0.57601 0.0
H1962 H 0.43304 0.6622 0.58177 0.0
C1963 C 0.4043 0.70844 0.63964 0.0
C1964 C 0.44214 0.71208 0.59815 0.0
C1965 C 0.39801 0.71344 0.663 0.0
C1966 C 0.49138 0.6694 0.5472 0.0
C1967 C 0.47934 0.67838 0.56177 0.0
C1968 C 0.43544 0.67625 0.58573 0.0
C1969 C 0.42194 0.71022 0.63414 0.0
C1970 C 0.42941 0.70257 0.61113 0.0
C1971 C 0.46158 0.67559 0.55823 0.0
C1972 C 0.4491 0.68536 0.57414 0.0
H1973 H 0.43583 0.72742 0.68912 0.0
H1974 H 0.44668 0.71916 0.64841 0.0
H1975 H 0.416 0.6771 0.6139 0.0
H1976 H 0.46375 0.64508 0.51108 0.0
H1977 H 0.44253 0.66077 0.537 0.0
C1978 C 0.59118 0.21297 0.83618 0.0
C1979 C 0.57987 0.22108 0.81917 0.0
C1980 C 0.58535 0.20823 0.85987 0.0
C1981 C 0.54953 0.21459 0.90448 0.0
H1982 H 0.5531 0.16323 0.91542 0.0
C1983 C 0.49599 0.17506 0.95062 0.0
C1984 C 0.49984 0.16123 0.96744 0.0
C1985 C 0.50907 0.18366 0.93757 0.0
C1986 C 0.5523 0.17765 0.91304 0.0
H1987 H 0.55419 0.2319 0.814 0.0
H1988 H 0.54418 0.22414 0.8553 0.0
H1989 H 0.57116 0.17756 0.88407 0.0
H1990 H 0.52053 0.14545 0.98354 0.0
H1991 H 0.54356 0.16044 0.96018 0.0
H1992 H 0.53007 0.21457 0.93252 0.0
C1993 C 0.55746 0.22127 0.8505 0.0
C1994 C 0.56266 0.18587 0.89512 0.0
C1995 C 0.56315 0.22566 0.8268 0.0
C1996 C 0.51716 0.15605 0.97068 0.0
C1997 C 0.53032 0.16462 0.95737 0.0
C1998 C 0.53923 0.2064 0.92238 0.0
C1999 C 0.56827 0.21193 0.86698 0.0
C2000 C 0.5608 0.20428 0.88993 0.0
C2001 C 0.52638 0.17865 0.94086 0.0
C2002 C 0.53992 0.18772 0.92602 0.0
H2003 H 0.6041 0.20918 0.83063 0.0
H2004 H 0.59395 0.20108 0.87225 0.0
H2005 H 0.54802 0.22884 0.9011 0.0
H2006 H 0.48282 0.1794 0.94758 0.0
H2007 H 0.50555 0.19411 0.92455 0.0
C2008 C -0.00259 0.67685 0.45016 0.0
C2009 C 0.00224 0.66335 0.46697 0.0
C2010 C 0.00983 0.68648 0.43717 0.0
C2011 C 0.05346 0.68451 0.41295 0.0
H2012 H 0.04587 0.73559 0.4037 0.0
C2013 C 0.09068 0.72379 0.33867 0.0
C2014 C 0.07918 0.73202 0.32199 0.0
C2015 C 0.08495 0.7183 0.36208 0.0
C2016 C 0.04828 0.72138 0.40627 0.0
H2017 H 0.02399 0.64909 0.48289 0.0
H2018 H 0.04589 0.66588 0.45958 0.0
H2019 H 0.02858 0.71912 0.43379 0.0
H2020 H 0.05331 0.74252 0.31748 0.0
H2021 H 0.04344 0.73329 0.35822 0.0
H2022 H 0.07255 0.6866 0.38448 0.0
C2023 C 0.03238 0.66902 0.45678 0.0
C2024 C 0.03836 0.71194 0.42343 0.0
C2025 C 0.01986 0.6594 0.47004 0.0
C2026 C 0.06242 0.73615 0.32994 0.0
C2027 C 0.05679 0.73091 0.35336 0.0
C2028 C 0.0634 0.69397 0.39573 0.0
C2029 C 0.02745 0.68285 0.44049 0.0
C2030 C 0.04033 0.69328 0.42617 0.0
C2031 C 0.06776 0.72125 0.36928 0.0
C2032 C 0.06039 0.71236 0.39148 0.0
H2033 H 0.98397 0.68022 0.44721 0.0
H2034 H 0.00559 0.69674 0.42429 0.0
H2035 H 0.05525 0.67014 0.41465 0.0
H2036 H 0.10366 0.72037 0.33297 0.0
H2037 H 0.09372 0.71101 0.37406 0.0
C2038 C 0.55696 0.75577 0.6678 0.0
C2039 C 0.57369 0.76117 0.67441 0.0
C2040 C 0.54937 0.76206 0.64607 0.0
C2041 C 0.55484 0.78691 0.58753 0.0
H2042 H 0.51075 0.80723 0.60671 0.0
C2043 C 0.51228 0.8329 0.5237 0.0
C2044 C 0.49451 0.82906 0.52423 0.0
C2045 C 0.5236 0.82443 0.54035 0.0
C2046 C 0.52294 0.80151 0.60092 0.0
H2047 H 0.59626 0.77591 0.66238 0.0
H2048 H 0.58283 0.78714 0.62421 0.0
H2049 H 0.52772 0.79087 0.63694 0.0
H2050 H 0.47481 0.81298 0.54225 0.0
H2051 H 0.49434 0.79828 0.57069 0.0
H2052 H 0.54977 0.79759 0.55122 0.0
C2053 C 0.57566 0.77795 0.63583 0.0
C2054 C 0.53266 0.79208 0.61825 0.0
C2055 C 0.58336 0.77148 0.65761 0.0
C2056 C 0.48837 0.81647 0.54145 0.0
C2057 C 0.49959 0.80804 0.55789 0.0
C2058 C 0.54497 0.79633 0.56997 0.0
C2059 C 0.55827 0.77408 0.63064 0.0
C2060 C 0.54854 0.78437 0.61169 0.0
C2061 C 0.51729 0.81204 0.55779 0.0
C2062 C 0.52875 0.80342 0.57643 0.0
H2063 H 0.54929 0.7477 0.68034 0.0
H2064 H 0.53608 0.7585 0.64219 0.0
H2065 H 0.56712 0.78124 0.58208 0.0
H2066 H 0.51741 0.84247 0.51053 0.0
H2067 H 0.53718 0.82781 0.53989 0.0
C2068 C 0.39152 0.27335 0.8276 0.0
C2069 C 0.40286 0.26548 0.81042 0.0
C2070 C 0.39747 0.27838 0.85116 0.0
C2071 C 0.43394 0.27325 0.89525 0.0
H2072 H 0.42815 0.32427 0.90741 0.0
C2073 C 0.48568 0.31462 0.9431 0.0
C2074 C 0.48117 0.3277 0.96072 0.0
C2075 C 0.47304 0.3058 0.92934 0.0
C2076 C 0.4296 0.30993 0.90466 0.0
H2077 H 0.42878 0.25536 0.80498 0.0
H2078 H 0.43901 0.26371 0.84604 0.0
H2079 H 0.41062 0.3094 0.87571 0.0
H2080 H 0.45977 0.34204 0.97737 0.0
H2081 H 0.43748 0.32668 0.95273 0.0
H2082 H 0.45348 0.27392 0.92329 0.0
C2083 C 0.42561 0.26616 0.84143 0.0
C2084 C 0.41954 0.3014 0.88654 0.0
C2085 C 0.41978 0.26144 0.81784 0.0
C2086 C 0.46364 0.33203 0.96391 0.0
C2087 C 0.45091 0.32324 0.94987 0.0
C2088 C 0.44395 0.28175 0.91332 0.0
C2089 C 0.41471 0.27524 0.85803 0.0
C2090 C 0.42215 0.28314 0.88096 0.0
C2091 C 0.45551 0.30985 0.93269 0.0
C2092 C 0.44242 0.30033 0.91744 0.0
H2093 H 0.37843 0.27672 0.82227 0.0
H2094 H 0.38878 0.28529 0.86366 0.0
H2095 H 0.43604 0.2591 0.89161 0.0
H2096 H 0.49903 0.31096 0.94003 0.0
H2097 H 0.47704 0.29587 0.91581 0.0
C2098 C 0.92577 0.22649 0.17328 0.0
C2099 C 0.90876 0.22256 0.18028 0.0
C2100 C 0.93188 0.22145 0.15001 0.0
C2101 C 0.92595 0.18569 0.10532 0.0
H2102 H 0.96087 0.21221 0.06933 0.0
C2103 C 0.96959 0.15389 0.02868 0.0
C2104 C 0.98721 0.15779 0.0319 0.0
C2105 C 0.95709 0.16298 0.0427 0.0
C2106 C 0.95108 0.20464 0.07912 0.0
H2107 H 0.88446 0.21121 0.16792 0.0
H2108 H 0.89526 0.20215 0.12708 0.0
H2109 H 0.94338 0.22758 0.10033 0.0
H2110 H 0.00551 0.17405 0.05264 0.0
H2111 H 0.98391 0.18967 0.07686 0.0
H2112 H 0.93426 0.16254 0.08485 0.0
C2113 C 0.90382 0.20918 0.13968 0.0
C2114 C 0.94105 0.21346 0.0968 0.0
C2115 C 0.89761 0.2145 0.16294 0.0
C2116 C 0.99207 0.17074 0.04957 0.0
C2117 C 0.97966 0.17985 0.06332 0.0
C2118 C 0.93601 0.17684 0.08757 0.0
C2119 C 0.92117 0.21216 0.13328 0.0
C2120 C 0.92886 0.20392 0.1108 0.0
C2121 C 0.96204 0.17624 0.05992 0.0
C2122 C 0.94916 0.18609 0.07505 0.0
H2123 H 0.93463 0.23273 0.18626 0.0
H2124 H 0.94534 0.22381 0.14578 0.0
H2125 H 0.91673 0.17794 0.11593 0.0
H2126 H 0.96544 0.144 0.01519 0.0
H2127 H 0.94359 0.15988 0.03978 0.0
C2128 C 0.952 0.64646 0.90457 0.0
C2129 C 0.9508 0.64151 0.92962 0.0
C2130 C 0.93868 0.65597 0.89314 0.0
C2131 C 0.9073 0.67293 0.86981 0.0
H2132 H 0.88915 0.71143 0.91054 0.0
C2133 C 0.86727 0.73065 0.82718 0.0
C2134 C 0.87192 0.74794 0.83535 0.0
C2135 C 0.87309 0.7154 0.83985 0.0
C2136 C 0.89409 0.70077 0.89887 0.0
H2137 H 0.93406 0.6414 0.96178 0.0
H2138 H 0.91057 0.65765 0.94161 0.0
H2139 H 0.9064 0.68797 0.92954 0.0
H2140 H 0.88588 0.76275 0.86367 0.0
H2141 H 0.89629 0.73636 0.88528 0.0
H2142 H 0.89603 0.68649 0.83886 0.0
C2143 C 0.92204 0.65461 0.93099 0.0
C2144 C 0.90379 0.68711 0.90985 0.0
C2145 C 0.93546 0.64518 0.94251 0.0
C2146 C 0.88203 0.74965 0.85687 0.0
C2147 C 0.88789 0.73446 0.86942 0.0
C2148 C 0.89773 0.6867 0.85878 0.0
C2149 C 0.92373 0.66064 0.90639 0.0
C2150 C 0.91098 0.6733 0.89535 0.0
C2151 C 0.88371 0.71712 0.86091 0.0
C2152 C 0.89147 0.70109 0.87307 0.0
H2153 H 0.96361 0.6438 0.89406 0.0
H2154 H 0.9406 0.66052 0.8743 0.0
H2155 H 0.91234 0.66232 0.85813 0.0
H2156 H 0.85942 0.72888 0.81072 0.0
H2157 H 0.86944 0.70227 0.83296 0.0
C2158 C 0.10523 0.22574 0.67219 0.0
C2159 C 0.12208 0.23237 0.66922 0.0
C2160 C 0.09974 0.21054 0.65927 0.0
C2161 C 0.10898 0.18447 0.60283 0.0
H2162 H 0.07419 0.15312 0.63079 0.0
C2163 C 0.05933 0.14714 0.54315 0.0
C2164 C 0.05158 0.13134 0.55199 0.0
C2165 C 0.07179 0.15607 0.55726 0.0
C2166 C 0.08416 0.16143 0.62271 0.0
H2167 H 0.14657 0.2278 0.65091 0.0
H2168 H 0.13702 0.201 0.6285 0.0
H2169 H 0.08885 0.17466 0.65726 0.0
H2170 H 0.05196 0.11166 0.58156 0.0
H2171 H 0.07409 0.12698 0.60591 0.0
H2172 H 0.10431 0.17118 0.56826 0.0
C2173 C 0.12798 0.20779 0.64058 0.0
C2174 C 0.09239 0.17402 0.63787 0.0
C2175 C 0.13347 0.2231 0.6535 0.0
C2176 C 0.05752 0.12393 0.57437 0.0
C2177 C 0.07013 0.13279 0.58841 0.0
C2178 C 0.10085 0.17175 0.58768 0.0
C2179 C 0.11097 0.20144 0.64311 0.0
C2180 C 0.10444 0.18614 0.62794 0.0
C2181 C 0.07697 0.14932 0.58045 0.0
C2182 C 0.08789 0.1605 0.59723 0.0
H2183 H 0.09608 0.23253 0.68411 0.0
H2184 H 0.08646 0.2063 0.66135 0.0
H2185 H 0.11817 0.19359 0.5945 0.0
H2186 H 0.05511 0.15321 0.52594 0.0
H2187 H 0.07657 0.16883 0.55056 0.0
C2188 C 0.55487 0.33992 0.44935 0.0
C2189 C 0.54491 0.35324 0.43766 0.0
C2190 C 0.56713 0.33017 0.43596 0.0
C2191 C 0.57478 0.31558 0.372 0.0
H2192 H 0.61637 0.29484 0.39992 0.0
C2193 C 0.61411 0.26329 0.31774 0.0
C2194 C 0.61859 0.2478 0.33118 0.0
C2195 C 0.60829 0.27869 0.33 0.0
C2196 C 0.60478 0.30052 0.39188 0.0
H2197 H 0.54105 0.36779 0.40329 0.0
H2198 H 0.56264 0.35099 0.38007 0.0
H2199 H 0.6008 0.318 0.42294 0.0
H2200 H 0.62124 0.23666 0.36812 0.0
H2201 H 0.6109 0.26341 0.38945 0.0
H2202 H 0.5784 0.2978 0.34133 0.0
C2203 C 0.56067 0.34777 0.39943 0.0
C2204 C 0.59586 0.31378 0.40506 0.0
C2205 C 0.54836 0.35748 0.41279 0.0
C2206 C 0.61786 0.24834 0.3572 0.0
C2207 C 0.61203 0.26374 0.36945 0.0
C2208 C 0.58369 0.30237 0.35884 0.0
C2209 C 0.56976 0.33357 0.41062 0.0
C2210 C 0.58056 0.32122 0.39548 0.0
C2211 C 0.60682 0.27895 0.35597 0.0
C2212 C 0.5986 0.29442 0.36883 0.0
H2213 H 0.55259 0.33635 0.46852 0.0
H2214 H 0.5738 0.31927 0.44517 0.0
H2215 H 0.56288 0.32074 0.36422 0.0
H2216 H 0.61465 0.26339 0.29768 0.0
H2217 H 0.60463 0.29028 0.31909 0.0
C2218 C 0.45133 0.84267 0.08831 0.0
C2219 C 0.44917 0.84859 0.06379 0.0
C2220 C 0.43852 0.83258 0.09992 0.0
C2221 C 0.40789 0.81481 0.1241 0.0
H2222 H 0.38873 0.77732 0.08238 0.0
C2223 C 0.36864 0.75619 0.16558 0.0
C2224 C 0.37315 0.73909 0.1566 0.0
C2225 C 0.37422 0.7717 0.15335 0.0
C2226 C 0.39396 0.7877 0.09431 0.0
H2227 H 0.43128 0.84969 0.03285 0.0
H2228 H 0.40871 0.83235 0.05333 0.0
H2229 H 0.4054 0.80139 0.06372 0.0
H2230 H 0.38658 0.72488 0.12727 0.0
H2231 H 0.39654 0.75175 0.10635 0.0
H2232 H 0.39742 0.80043 0.15486 0.0
C2233 C 0.42053 0.83515 0.06337 0.0
C2234 C 0.40332 0.80169 0.08356 0.0
C2235 C 0.43341 0.84519 0.05169 0.0
C2236 C 0.38285 0.73783 0.1347 0.0
C2237 C 0.38846 0.75329 0.12256 0.0
C2238 C 0.39862 0.80075 0.13488 0.0
C2239 C 0.42314 0.82824 0.08736 0.0
C2240 C 0.41084 0.81515 0.09839 0.0
C2241 C 0.38445 0.77043 0.1319 0.0
C2242 C 0.39198 0.78673 0.12018 0.0
H2243 H 0.46328 0.84509 0.09822 0.0
H2244 H 0.44112 0.82735 0.11827 0.0
H2245 H 0.41322 0.82512 0.13605 0.0
H2246 H 0.36111 0.75762 0.18235 0.0
H2247 H 0.37071 0.78468 0.16088 0.0
C2248 C 0.95408 0.3449 0.5871 0.0
C2249 C 0.95091 0.35037 0.56259 0.0
C2250 C 0.94174 0.33514 0.60018 0.0
C2251 C 0.91184 0.31873 0.62786 0.0
H2252 H 0.89018 0.28055 0.59005 0.0
C2253 C 0.8715 0.26334 0.67546 0.0
C2254 C 0.87484 0.24575 0.66727 0.0
C2255 C 0.8776 0.27812 0.66206 0.0
C2256 C 0.89613 0.29112 0.60091 0.0
H2257 H 0.93182 0.35087 0.53315 0.0
H2258 H 0.91008 0.33408 0.55621 0.0
H2259 H 0.90678 0.30345 0.56865 0.0
H2260 H 0.88685 0.2299 0.63827 0.0
H2261 H 0.89773 0.25549 0.61531 0.0
H2262 H 0.90208 0.30574 0.66025 0.0
C2263 C 0.9223 0.33701 0.56511 0.0
C2264 C 0.90546 0.30444 0.58858 0.0
C2265 C 0.93471 0.34674 0.55194 0.0
C2266 C 0.88401 0.24326 0.64511 0.0
C2267 C 0.89015 0.25799 0.6318 0.0
C2268 C 0.90259 0.30534 0.6402 0.0
C2269 C 0.92584 0.33067 0.58916 0.0
C2270 C 0.91382 0.31815 0.60195 0.0
C2271 C 0.88719 0.27561 0.64021 0.0
C2272 C 0.89501 0.2911 0.62692 0.0
H2273 H 0.96641 0.3475 0.5959 0.0
H2274 H 0.94505 0.33033 0.61851 0.0
H2275 H 0.91786 0.32926 0.63871 0.0
H2276 H 0.86439 0.26572 0.69241 0.0
H2277 H 0.87491 0.2915 0.66892 0.0
C2278 C 0.36867 0.23294 0.3203 0.0
C2279 C 0.37294 0.25026 0.32875 0.0
C2280 C 0.37444 0.21773 0.33311 0.0
C2281 C 0.3939 0.20312 0.3931 0.0
H2282 H 0.41336 0.16473 0.35342 0.0
C2283 C 0.45063 0.14759 0.40297 0.0
C2284 C 0.44806 0.14211 0.4276 0.0
C2285 C 0.43813 0.1577 0.39062 0.0
C2286 C 0.40797 0.17532 0.36479 0.0
H2287 H 0.38623 0.26517 0.35762 0.0
H2288 H 0.39652 0.23883 0.37955 0.0
H2289 H 0.39784 0.18908 0.33319 0.0
H2290 H 0.42979 0.14186 0.45798 0.0
H2291 H 0.40777 0.15923 0.4362 0.0
H2292 H 0.40497 0.19002 0.42454 0.0
C2293 C 0.38847 0.23689 0.36333 0.0
C2294 C 0.39887 0.18919 0.35321 0.0
C2295 C 0.38268 0.25204 0.35061 0.0
C2296 C 0.43223 0.146 0.43907 0.0
C2297 C 0.41966 0.15607 0.42665 0.0
C2298 C 0.40309 0.18932 0.40466 0.0
C2299 C 0.38462 0.21953 0.35461 0.0
C2300 C 0.39214 0.20353 0.36716 0.0
C2301 C 0.42267 0.16249 0.40251 0.0
C2302 C 0.41066 0.1755 0.39059 0.0
H2303 H 0.36112 0.23111 0.30357 0.0
H2304 H 0.37106 0.20457 0.32604 0.0
H2305 H 0.3886 0.21376 0.40448 0.0
H2306 H 0.46265 0.14479 0.39353 0.0
H2307 H 0.44103 0.16254 0.37218 0.0
C2308 C 0.55113 0.64317 0.05383 0.0
C2309 C 0.5388 0.63117 0.06335 0.0
C2310 C 0.56204 0.65272 0.06982 0.0
C2311 C 0.56108 0.67078 0.13249 0.0
H2312 H 0.60899 0.68316 0.12107 0.0
C2313 C 0.59609 0.71832 0.19905 0.0
C2314 C 0.60668 0.73152 0.18846 0.0
C2315 C 0.59027 0.70381 0.18493 0.0
C2316 C 0.59557 0.67994 0.12441 0.0
H2317 H 0.52924 0.61872 0.09697 0.0
H2318 H 0.54826 0.63534 0.12474 0.0
H2319 H 0.59464 0.66141 0.09389 0.0
H2320 H 0.62004 0.73955 0.15504 0.0
H2321 H 0.60938 0.71454 0.13002 0.0
H2322 H 0.56156 0.68969 0.16216 0.0
C2323 C 0.54929 0.63758 0.10497 0.0
C2324 C 0.5874 0.66743 0.1089 0.0
C2325 C 0.53845 0.628 0.08902 0.0
C2326 C 0.61191 0.72955 0.1637 0.0
C2327 C 0.60585 0.71514 0.1494 0.0
C2328 C 0.56915 0.68335 0.14778 0.0
C2329 C 0.56078 0.65048 0.09561 0.0
C2330 C 0.57004 0.66278 0.11276 0.0
C2331 C 0.59462 0.70231 0.1597 0.0
C2332 C 0.58649 0.68817 0.14394 0.0
H2333 H 0.55179 0.64587 0.03413 0.0
H2334 H 0.57073 0.66261 0.06206 0.0
H2335 H 0.54758 0.66778 0.13561 0.0
H2336 H 0.59206 0.71933 0.21822 0.0
H2337 H 0.58205 0.69394 0.19371 0.0
C2338 C 0.09487 0.76119 0.79583 0.0
C2339 C 0.1085 0.74997 0.80324 0.0
C2340 C 0.08989 0.77574 0.81049 0.0
C2341 C 0.08889 0.7901 0.87487 0.0
H2342 H 0.07447 0.83565 0.84688 0.0
C2343 C 0.05376 0.84257 0.93479 0.0
C2344 C 0.03885 0.84981 0.9238 0.0
C2345 C 0.06587 0.83331 0.92041 0.0
C2346 C 0.0784 0.823 0.855 0.0
H2347 H 0.12795 0.74552 0.83154 0.0
H2348 H 0.11904 0.77091 0.85743 0.0
H2349 H 0.08904 0.81362 0.82072 0.0
H2350 H 0.02549 0.85393 0.88888 0.0
H2351 H 0.04628 0.83761 0.86403 0.0
H2352 H 0.07753 0.79899 0.90878 0.0
C2353 C 0.11225 0.76839 0.84021 0.0
C2354 C 0.08678 0.81041 0.84002 0.0
C2355 C 0.11737 0.75391 0.82535 0.0
C2356 C 0.0368 0.84848 0.89798 0.0
C2357 C 0.04884 0.8392 0.88365 0.0
C2358 C 0.08039 0.80263 0.88981 0.0
C2359 C 0.09833 0.77933 0.83303 0.0
C2360 C 0.09173 0.79366 0.84964 0.0
C2361 C 0.0633 0.83108 0.89475 0.0
C2362 C 0.07463 0.81905 0.8799 0.0
H2363 H 0.08782 0.75857 0.77884 0.0
H2364 H 0.079 0.7838 0.80461 0.0
H2365 H 0.0924 0.77724 0.88275 0.0
H2366 H 0.05579 0.84346 0.95462 0.0
H2367 H 0.07702 0.8275 0.9295 0.0
loop_
_geom_bond_atom_site_label_1
_geom_bond_atom_site_label_2
_geom_bond_distance
_geom_bond_site_symmetry_2
_ccdc_geom_bond_type
Mg0 O1 2.028 . S
Mg0 O7 1.986 . S
Mg0 O9 2.114 . S
Mg0 O10 2.251 . S
Mg0 O13 2.010 . S
O1 Mg0 2.028 . S
O1 C4 1.250 . S
O2 Mg3 2.028 . S
O2 C4 1.248 . S
Mg3 O2 2.028 . S
Mg3 O8 2.032 . S
Mg3 O10 2.079 . S
C4 O1 1.250 . S
C4 O2 1.248 . S
C5 O6 1.264 . S
C5 O13 1.249 . S
O6 C5 1.264 . S
O7 Mg0 1.986 . S
O7 C11 1.246 . S
O8 Mg3 2.032 . S
O8 C11 1.259 . S
O9 Mg0 2.114 . S
O9 C12 1.252 . S
O10 Mg0 2.251 . S
O10 Mg3 2.079 . S
O10 C12 1.273 . S
C11 O7 1.246 . S
C11 O8 1.259 . S
C12 O9 1.252 . S
C12 O10 1.273 . S
O13 Mg0 2.010 . S
O13 C5 1.249 . S
Mg14 O15 2.028 1_455 S
Mg14 O21 1.986 1_455 S
Mg14 O23 2.114 . S
Mg14 O24 2.251 . S
Mg14 O27 2.010 1_455 S
O15 Mg14 2.028 1_655 S
O15 C18 1.250 . S
O16 Mg17 2.028 1_655 S
O16 C18 1.248 . S
Mg17 O16 2.028 1_455 S
Mg17 O22 2.034 . S
Mg17 O24 2.079 . S
C18 O15 1.250 . S
C18 O16 1.248 . S
C19 O20 1.264 . S
C19 O27 1.249 . S
O20 C19 1.264 . S
O21 Mg14 1.986 1_655 S
O21 C25 1.246 . S
O22 Mg17 2.034 . S
O22 C25 1.258 1_455 S
O23 Mg14 2.114 . S
O23 C26 1.252 . S
O24 Mg14 2.251 . S
O24 Mg17 2.079 . S
O24 C26 1.273 . S
C25 O21 1.246 . S
C25 O22 1.258 1_655 S
C26 O23 1.252 . S
C26 O24 1.273 . S
O27 Mg14 2.010 1_655 S
O27 C19 1.249 . S
Mg28 O29 2.028 . S
Mg28 O35 1.986 . S
Mg28 O37 2.114 . S
Mg28 O38 2.251 . S
Mg28 O41 2.010 . S
O29 Mg28 2.028 . S
O29 C32 1.250 . S
O30 Mg31 2.028 . S
O30 C32 1.248 . S
Mg31 O30 2.028 . S
Mg31 O36 2.032 . S
Mg31 O38 2.079 . S
C32 O29 1.250 . S
C32 O30 1.248 . S
C33 O34 1.264 . S
C33 O41 1.249 . S
O34 C33 1.264 . S
O35 Mg28 1.986 . S
O35 C39 1.246 . S
O36 Mg31 2.032 . S
O36 C39 1.259 . S
O37 Mg28 2.114 . S
O37 C40 1.252 . S
O38 Mg28 2.251 . S
O38 Mg31 2.079 . S
O38 C40 1.273 . S
C39 O35 1.246 . S
C39 O36 1.259 . S
C40 O37 1.252 . S
C40 O38 1.273 . S
O41 Mg28 2.010 . S
O41 C33 1.249 . S
Mg42 O43 2.028 . S
Mg42 O49 1.986 . S
Mg42 O51 2.114 . S
Mg42 O52 2.251 . S
Mg42 O55 2.010 1_554 S
O43 Mg42 2.028 . S
O43 C46 1.250 . S
O44 Mg45 2.028 . S
O44 C46 1.248 . S
Mg45 O44 2.028 . S
Mg45 O50 2.032 . S
Mg45 O52 2.079 . S
C46 O43 1.250 . S
C46 O44 1.248 . S
C47 O48 1.264 . S
C47 O55 1.249 . S
O48 C47 1.264 . S
O49 Mg42 1.986 . S
O49 C53 1.246 . S
O50 Mg45 2.032 . S
O50 C53 1.259 . S
O51 Mg42 2.114 . S
O51 C54 1.252 . S
O52 Mg42 2.251 . S
O52 Mg45 2.079 . S
O52 C54 1.273 . S
C53 O49 1.246 . S
C53 O50 1.259 . S
C54 O51 1.252 . S
C54 O52 1.273 . S
O55 Mg42 2.010 1_556 S
O55 C47 1.249 . S
Mg56 O57 2.028 . S
Mg56 O63 1.986 . S
Mg56 O65 2.114 . S
Mg56 O66 2.251 . S
Mg56 O69 2.010 . S
O57 Mg56 2.028 . S
O57 C60 1.250 . S
O58 Mg59 2.028 . S
O58 C60 1.248 . S
Mg59 O58 2.028 . S
Mg59 O64 2.032 . S
Mg59 O66 2.079 . S
C60 O57 1.250 . S
C60 O58 1.248 . S
C61 O62 1.264 . S
C61 O69 1.249 . S
O62 C61 1.264 . S
O63 Mg56 1.986 . S
O63 C67 1.246 . S
O64 Mg59 2.032 . S
O64 C67 1.259 . S
O65 Mg56 2.114 . S
O65 C68 1.252 . S
O66 Mg56 2.251 . S
O66 Mg59 2.079 . S
O66 C68 1.273 . S
C67 O63 1.246 . S
C67 O64 1.259 . S
C68 O65 1.252 . S
C68 O66 1.273 . S
O69 Mg56 2.010 . S
O69 C61 1.249 . S
Mg70 O71 2.028 . S
Mg70 O77 1.986 . S
Mg70 O79 2.114 . S
Mg70 O80 2.251 . S
Mg70 O83 2.010 . S
O71 Mg70 2.028 . S
O71 C74 1.250 . S
O72 Mg73 2.028 . S
O72 C74 1.248 . S
Mg73 O72 2.028 . S
Mg73 O78 2.032 . S
Mg73 O80 2.079 . S
C74 O71 1.250 . S
C74 O72 1.248 . S
C75 O76 1.264 . S
C75 O83 1.249 . S
O76 C75 1.264 . S
O77 Mg70 1.986 . S
O77 C81 1.246 . S
O78 Mg73 2.032 . S
O78 C81 1.259 . S
O79 Mg70 2.114 . S
O79 C82 1.252 . S
O80 Mg70 2.251 . S
O80 Mg73 2.079 . S
O80 C82 1.273 . S
C81 O77 1.246 . S
C81 O78 1.259 . S
C82 O79 1.252 . S
C82 O80 1.273 . S
O83 Mg70 2.010 . S
O83 C75 1.249 . S
Mg84 O85 2.028 . S
Mg84 O91 1.986 . S
Mg84 O93 2.114 . S
Mg84 O94 2.251 . S
Mg84 O97 2.010 . S
O85 Mg84 2.028 . S
O85 C88 1.250 . S
O86 Mg87 2.028 . S
O86 C88 1.248 . S
Mg87 O86 2.028 . S
Mg87 O92 2.032 . S
Mg87 O94 2.079 . S
C88 O85 1.250 . S
C88 O86 1.248 . S
C89 O90 1.264 . S
C89 O97 1.249 . S
O90 C89 1.264 . S
O91 Mg84 1.986 . S
O91 C95 1.246 . S
O92 Mg87 2.032 . S
O92 C95 1.259 . S
O93 Mg84 2.114 . S
O93 C96 1.252 . S
O94 Mg84 2.251 . S
O94 Mg87 2.079 . S
O94 C96 1.273 . S
C95 O91 1.246 . S
C95 O92 1.259 . S
C96 O93 1.252 . S
C96 O94 1.273 . S
O97 Mg84 2.010 . S
O97 C89 1.249 . S
Mg98 O99 2.028 1_455 S
Mg98 O105 1.986 1_455 S
Mg98 O107 2.114 . S
Mg98 O108 2.251 . S
Mg98 O111 2.010 1_456 S
O99 Mg98 2.028 1_655 S
O99 C102 1.250 . S
O100 Mg101 2.028 1_655 S
O100 C102 1.248 . S
Mg101 O100 2.028 1_455 S
Mg101 O106 2.034 . S
Mg101 O108 2.079 . S
C102 O99 1.250 . S
C102 O100 1.248 . S
C103 O104 1.264 . S
C103 O111 1.249 . S
O104 C103 1.264 . S
O105 Mg98 1.986 1_655 S
O105 C109 1.246 . S
O106 Mg101 2.034 . S
O106 C109 1.258 1_455 S
O107 Mg98 2.114 . S
O107 C110 1.252 . S
O108 Mg98 2.251 . S
O108 Mg101 2.079 . S
O108 C110 1.273 . S
C109 O105 1.246 . S
C109 O106 1.258 1_655 S
C110 O107 1.252 . S
C110 O108 1.273 . S
O111 Mg98 2.010 1_654 S
O111 C103 1.249 . S
Mg112 O113 2.028 . S
Mg112 O119 1.986 . S
Mg112 O121 2.114 . S
Mg112 O122 2.251 . S
Mg112 O125 2.010 . S
O113 Mg112 2.028 . S
O113 C116 1.250 . S
O114 Mg115 2.028 . S
O114 C116 1.248 . S
Mg115 O114 2.028 . S
Mg115 O120 2.032 . S
Mg115 O122 2.079 . S
C116 O113 1.250 . S
C116 O114 1.248 . S
C117 O118 1.264 . S
C117 O125 1.249 . S
O118 C117 1.264 . S
O119 Mg112 1.986 . S
O119 C123 1.246 . S
O120 Mg115 2.032 . S
O120 C123 1.259 . S
O121 Mg112 2.114 . S
O121 C124 1.252 . S
O122 Mg112 2.251 . S
O122 Mg115 2.079 . S
O122 C124 1.273 . S
C123 O119 1.246 . S
C123 O120 1.259 . S
C124 O121 1.252 . S
C124 O122 1.273 . S
O125 Mg112 2.010 . S
O125 C117 1.249 . S
Mg126 O127 2.028 . S
Mg126 O133 1.986 . S
Mg126 O135 2.114 1_455 S
Mg126 O136 2.251 1_455 S
Mg126 O139 2.010 . S
O127 Mg126 2.028 . S
O127 C130 1.250 . S
O128 Mg129 2.028 . S
O128 C130 1.248 . S
Mg129 O128 2.028 . S
Mg129 O134 2.032 . S
Mg129 O136 2.079 1_455 S
C130 O127 1.250 . S
C130 O128 1.248 . S
C131 O132 1.264 . S
C131 O139 1.249 . S
O132 C131 1.264 . S
O133 Mg126 1.986 . S
O133 C137 1.246 . S
O134 Mg129 2.032 . S
O134 C137 1.259 . S
O135 Mg126 2.114 1_655 S
O135 C138 1.252 . S
O136 Mg126 2.251 1_655 S
O136 Mg129 2.079 1_655 S
O136 C138 1.273 . S
C137 O133 1.246 . S
C137 O134 1.259 . S
C138 O135 1.252 . S
C138 O136 1.273 . S
O139 Mg126 2.010 . S
O139 C131 1.249 . S
Mg140 O141 2.028 . S
Mg140 O147 1.986 . S
Mg140 O149 2.114 . S
Mg140 O150 2.251 . S
Mg140 O153 2.010 . S
O141 Mg140 2.028 . S
O141 C144 1.250 . S
O142 Mg143 2.028 . S
O142 C144 1.248 . S
Mg143 O142 2.028 . S
Mg143 O148 2.032 . S
Mg143 O150 2.079 . S
C144 O141 1.250 . S
C144 O142 1.248 . S
C145 O146 1.264 . S
C145 O153 1.249 . S
O146 C145 1.264 . S
O147 Mg140 1.986 . S
O147 C151 1.246 . S
O148 Mg143 2.032 . S
O148 C151 1.259 . S
O149 Mg140 2.114 . S
O149 C152 1.252 . S
O150 Mg140 2.251 . S
O150 Mg143 2.079 . S
O150 C152 1.273 . S
C151 O147 1.246 . S
C151 O148 1.259 . S
C152 O149 1.252 . S
C152 O150 1.273 . S
O153 Mg140 2.010 . S
O153 C145 1.249 . S
Mg154 O155 2.028 . S
Mg154 O161 1.986 . S
Mg154 O163 2.114 . S
Mg154 O164 2.251 . S
Mg154 O167 2.010 1_556 S
O155 Mg154 2.028 . S
O155 C158 1.250 . S
O156 Mg157 2.028 . S
O156 C158 1.248 . S
Mg157 O156 2.028 . S
Mg157 O162 2.032 . S
Mg157 O164 2.079 . S
C158 O155 1.250 . S
C158 O156 1.248 . S
C159 O160 1.264 . S
C159 O167 1.249 . S
O160 C159 1.264 . S
O161 Mg154 1.986 . S
O161 C165 1.246 . S
O162 Mg157 2.032 . S
O162 C165 1.259 . S
O163 Mg154 2.114 . S
O163 C166 1.252 . S
O164 Mg154 2.251 . S
O164 Mg157 2.079 . S
O164 C166 1.273 . S
C165 O161 1.246 . S
C165 O162 1.259 . S
C166 O163 1.252 . S
C166 O164 1.273 . S
O167 Mg154 2.010 1_554 S
O167 C159 1.249 . S
Mg168 O169 2.028 . S
Mg168 O175 1.986 . S
Mg168 O177 2.114 . S
Mg168 O178 2.251 . S
Mg168 O181 2.010 . S
O169 Mg168 2.028 . S
O169 C172 1.250 . S
O170 Mg171 2.028 . S
O170 C172 1.248 . S
Mg171 O170 2.028 . S
Mg171 O176 2.032 . S
Mg171 O178 2.079 . S
C172 O169 1.250 . S
C172 O170 1.248 . S
C173 O174 1.264 . S
C173 O181 1.249 . S
O174 C173 1.264 . S
O175 Mg168 1.986 . S
O175 C179 1.246 . S
O176 Mg171 2.032 . S
O176 C179 1.259 . S
O177 Mg168 2.114 . S
O177 C180 1.252 . S
O178 Mg168 2.251 . S
O178 Mg171 2.079 . S
O178 C180 1.273 . S
C179 O175 1.246 . S
C179 O176 1.259 . S
C180 O177 1.252 . S
C180 O178 1.273 . S
O181 Mg168 2.010 . S
O181 C173 1.249 . S
Mg182 O183 2.028 . S
Mg182 O189 1.986 . S
Mg182 O191 2.114 . S
Mg182 O192 2.251 . S
Mg182 O195 2.010 . S
O183 Mg182 2.028 . S
O183 C186 1.250 . S
O184 Mg185 2.028 . S
O184 C186 1.248 . S
Mg185 O184 2.028 . S
Mg185 O190 2.032 . S
Mg185 O192 2.079 . S
C186 O183 1.250 . S
C186 O184 1.248 . S
C187 O188 1.264 . S
C187 O195 1.249 . S
O188 C187 1.264 . S
O189 Mg182 1.986 . S
O189 C193 1.246 . S
O190 Mg185 2.032 . S
O190 C193 1.259 . S
O191 Mg182 2.114 . S
O191 C194 1.252 . S
O192 Mg182 2.251 . S
O192 Mg185 2.079 . S
O192 C194 1.273 . S
C193 O189 1.246 . S
C193 O190 1.259 . S
C194 O191 1.252 . S
C194 O192 1.273 . S
O195 Mg182 2.010 . S
O195 C187 1.249 . S
Mg196 O197 2.028 . S
Mg196 O203 1.986 . S
Mg196 O205 2.114 . S
Mg196 O206 2.251 . S
Mg196 O209 2.010 . S
O197 Mg196 2.028 . S
O197 C200 1.250 . S
O198 Mg199 2.028 . S
O198 C200 1.248 . S
Mg199 O198 2.028 . S
Mg199 O204 2.032 . S
Mg199 O206 2.079 . S
C200 O197 1.250 . S
C200 O198 1.248 . S
C201 O202 1.264 . S
C201 O209 1.249 . S
O202 C201 1.264 . S
O203 Mg196 1.986 . S
O203 C207 1.246 . S
O204 Mg199 2.032 . S
O204 C207 1.259 . S
O205 Mg196 2.114 . S
O205 C208 1.252 . S
O206 Mg196 2.251 . S
O206 Mg199 2.079 . S
O206 C208 1.273 . S
C207 O203 1.246 . S
C207 O204 1.259 . S
C208 O205 1.252 . S
C208 O206 1.273 . S
O209 Mg196 2.010 . S
O209 C201 1.249 . S
Mg210 O211 2.028 . S
Mg210 O217 1.986 . S
Mg210 O219 2.114 1_455 S
Mg210 O220 2.251 1_455 S
Mg210 O223 2.010 1_554 S
O211 Mg210 2.028 . S
O211 C214 1.250 . S
O212 Mg213 2.028 . S
O212 C214 1.248 . S
Mg213 O212 2.028 . S
Mg213 O218 2.032 . S
Mg213 O220 2.079 1_455 S
C214 O211 1.250 . S
C214 O212 1.248 . S
C215 O216 1.264 . S
C215 O223 1.249 . S
O216 C215 1.264 . S
O217 Mg210 1.986 . S
O217 C221 1.246 . S
O218 Mg213 2.032 . S
O218 C221 1.259 . S
O219 Mg210 2.114 1_655 S
O219 C222 1.252 . S
O220 Mg210 2.251 1_655 S
O220 Mg213 2.079 1_655 S
O220 C222 1.273 . S
C221 O217 1.246 . S
C221 O218 1.259 . S
C222 O219 1.252 . S
C222 O220 1.273 . S
O223 Mg210 2.010 1_556 S
O223 C215 1.249 . S
Mg224 O225 2.028 . S
Mg224 O231 1.986 . S
Mg224 O233 2.114 . S
Mg224 O234 2.251 . S
Mg224 O237 2.010 . S
O225 Mg224 2.028 . S
O225 C228 1.250 . S
O226 Mg227 2.028 . S
O226 C228 1.248 . S
Mg227 O226 2.028 . S
Mg227 O232 2.032 . S
Mg227 O234 2.079 . S
C228 O225 1.250 . S
C228 O226 1.248 . S
C229 O230 1.264 . S
C229 O237 1.249 . S
O230 C229 1.264 . S
O231 Mg224 1.986 . S
O231 C235 1.246 . S
O232 Mg227 2.032 . S
O232 C235 1.259 . S
O233 Mg224 2.114 . S
O233 C236 1.252 . S
O234 Mg224 2.251 . S
O234 Mg227 2.079 . S
O234 C236 1.273 . S
C235 O231 1.246 . S
C235 O232 1.259 . S
C236 O233 1.252 . S
C236 O234 1.273 . S
O237 Mg224 2.010 . S
O237 C229 1.249 . S
Mg238 O239 2.028 . S
Mg238 O245 1.986 . S
Mg238 O247 2.114 . S
Mg238 O248 2.251 . S
Mg238 O251 2.010 1_554 S
O239 Mg238 2.028 . S
O239 C242 1.250 . S
O240 Mg241 2.028 . S
O240 C242 1.248 . S
Mg241 O240 2.028 . S
Mg241 O246 2.032 . S
Mg241 O248 2.079 . S
C242 O239 1.250 . S
C242 O240 1.248 . S
C243 O244 1.264 . S
C243 O251 1.249 . S
O244 C243 1.264 . S
O245 Mg238 1.986 . S
O245 C249 1.246 . S
O246 Mg241 2.032 . S
O246 C249 1.259 . S
O247 Mg238 2.114 . S
O247 C250 1.252 . S
O248 Mg238 2.251 . S
O248 Mg241 2.079 . S
O248 C250 1.273 . S
C249 O245 1.246 . S
C249 O246 1.259 . S
C250 O247 1.252 . S
C250 O248 1.273 . S
O251 Mg238 2.010 1_556 S
O251 C243 1.249 . S
Mg252 O253 2.028 . S
Mg252 O259 1.986 . S
Mg252 O261 2.114 . S
Mg252 O262 2.251 . S
Mg252 O265 2.010 . S
O253 Mg252 2.028 . S
O253 C256 1.250 . S
O254 Mg255 2.028 . S
O254 C256 1.248 . S
Mg255 O254 2.028 . S
Mg255 O260 2.032 . S
Mg255 O262 2.079 . S
C256 O253 1.250 . S
C256 O254 1.248 . S
C257 O258 1.264 . S
C257 O265 1.249 . S
O258 C257 1.264 . S
O259 Mg252 1.986 . S
O259 C263 1.246 . S
O260 Mg255 2.032 . S
O260 C263 1.259 . S
O261 Mg252 2.114 . S
O261 C264 1.252 . S
O262 Mg252 2.251 . S
O262 Mg255 2.079 . S
O262 C264 1.273 . S
C263 O259 1.246 . S
C263 O260 1.259 . S
C264 O261 1.252 . S
C264 O262 1.273 . S
O265 Mg252 2.010 . S
O265 C257 1.249 . S
Mg266 O267 2.028 1_655 S
Mg266 O273 1.986 1_655 S
Mg266 O275 2.114 . S
Mg266 O276 2.251 . S
Mg266 O279 2.010 1_655 S
O267 Mg266 2.028 1_455 S
O267 C270 1.250 . S
O268 Mg269 2.028 1_455 S
O268 C270 1.248 . S
Mg269 O268 2.028 1_655 S
Mg269 O274 2.034 . S
Mg269 O276 2.079 . S
C270 O267 1.250 . S
C270 O268 1.248 . S
C271 O272 1.264 . S
C271 O279 1.249 . S
O272 C271 1.264 . S
O273 Mg266 1.986 1_455 S
O273 C277 1.246 . S
O274 Mg269 2.034 . S
O274 C277 1.258 1_655 S
O275 Mg266 2.114 . S
O275 C278 1.252 . S
O276 Mg266 2.251 . S
O276 Mg269 2.079 . S
O276 C278 1.273 . S
C277 O273 1.246 . S
C277 O274 1.258 1_455 S
C278 O275 1.252 . S
C278 O276 1.273 . S
O279 Mg266 2.010 1_455 S
O279 C271 1.249 . S
Mg280 O281 2.028 . S
Mg280 O287 1.986 . S
Mg280 O289 2.114 . S
Mg280 O290 2.251 . S
Mg280 O293 2.010 . S
O281 Mg280 2.028 . S
O281 C284 1.250 . S
O282 Mg283 2.028 . S
O282 C284 1.248 . S
Mg283 O282 2.028 . S
Mg283 O288 2.032 . S
Mg283 O290 2.079 . S
C284 O281 1.250 . S
C284 O282 1.248 . S
C285 O286 1.264 . S
C285 O293 1.249 . S
O286 C285 1.264 . S
O287 Mg280 1.986 . S
O287 C291 1.246 . S
O288 Mg283 2.032 . S
O288 C291 1.259 . S
O289 Mg280 2.114 . S
O289 C292 1.252 . S
O290 Mg280 2.251 . S
O290 Mg283 2.079 . S
O290 C292 1.273 . S
C291 O287 1.246 . S
C291 O288 1.259 . S
C292 O289 1.252 . S
C292 O290 1.273 . S
O293 Mg280 2.010 . S
O293 C285 1.249 . S
Mg294 O295 2.028 1_655 S
Mg294 O301 1.986 1_655 S
Mg294 O303 2.114 . S
Mg294 O304 2.251 . S
Mg294 O307 2.010 1_656 S
O295 Mg294 2.028 1_455 S
O295 C298 1.250 . S
O296 Mg297 2.028 1_455 S
O296 C298 1.248 . S
Mg297 O296 2.028 1_655 S
Mg297 O302 2.034 . S
Mg297 O304 2.079 . S
C298 O295 1.250 . S
C298 O296 1.248 . S
C299 O300 1.264 . S
C299 O307 1.249 . S
O300 C299 1.264 . S
O301 Mg294 1.986 1_455 S
O301 C305 1.246 . S
O302 Mg297 2.034 . S
O302 C305 1.258 1_655 S
O303 Mg294 2.114 . S
O303 C306 1.252 . S
O304 Mg294 2.251 . S
O304 Mg297 2.079 . S
O304 C306 1.273 . S
C305 O301 1.246 . S
C305 O302 1.258 1_455 S
C306 O303 1.252 . S
C306 O304 1.273 . S
O307 Mg294 2.010 1_454 S
O307 C299 1.249 . S
Mg308 O309 2.028 . S
Mg308 O315 1.986 . S
Mg308 O317 2.114 . S
Mg308 O318 2.251 . S
Mg308 O321 2.010 . S
O309 Mg308 2.028 . S
O309 C312 1.250 . S
O310 Mg311 2.028 . S
O310 C312 1.248 . S
Mg311 O310 2.028 . S
Mg311 O316 2.032 . S
Mg311 O318 2.079 . S
C312 O309 1.250 . S
C312 O310 1.248 . S
C313 O314 1.264 . S
C313 O321 1.249 . S
O314 C313 1.264 . S
O315 Mg308 1.986 . S
O315 C319 1.246 . S
O316 Mg311 2.032 . S
O316 C319 1.259 . S
O317 Mg308 2.114 . S
O317 C320 1.252 . S
O318 Mg308 2.251 . S
O318 Mg311 2.079 . S
O318 C320 1.273 . S
C319 O315 1.246 . S
C319 O316 1.259 . S
C320 O317 1.252 . S
C320 O318 1.273 . S
O321 Mg308 2.010 . S
O321 C313 1.249 . S
Mg322 O323 2.028 . S
Mg322 O329 1.986 . S
Mg322 O331 2.114 . S
Mg322 O332 2.251 . S
Mg322 O335 2.010 . S
O323 Mg322 2.028 . S
O323 C326 1.250 . S
O324 Mg325 2.028 . S
O324 C326 1.248 . S
Mg325 O324 2.028 . S
Mg325 O330 2.032 . S
Mg325 O332 2.079 . S
C326 O323 1.250 . S
C326 O324 1.248 . S
C327 O328 1.264 . S
C327 O335 1.249 . S
O328 C327 1.264 . S
O329 Mg322 1.986 . S
O329 C333 1.246 . S
O330 Mg325 2.032 . S
O330 C333 1.259 . S
O331 Mg322 2.114 . S
O331 C334 1.252 . S
O332 Mg322 2.251 . S
O332 Mg325 2.079 . S
O332 C334 1.273 . S
C333 O329 1.246 . S
C333 O330 1.259 . S
C334 O331 1.252 . S
C334 O332 1.273 . S
O335 Mg322 2.010 . S
O335 C327 1.249 . S
Mg336 O337 2.028 . S
Mg336 O343 1.986 . S
Mg336 O345 2.114 . S
Mg336 O346 2.251 . S
Mg336 O349 2.010 . S
O337 Mg336 2.028 . S
O337 C340 1.250 . S
O338 Mg339 2.028 . S
O338 C340 1.248 . S
Mg339 O338 2.028 . S
Mg339 O344 2.032 . S
Mg339 O346 2.079 . S
C340 O337 1.250 . S
C340 O338 1.248 . S
C341 O342 1.264 . S
C341 O349 1.249 . S
O342 C341 1.264 . S
O343 Mg336 1.986 . S
O343 C347 1.246 . S
O344 Mg339 2.032 . S
O344 C347 1.259 . S
O345 Mg336 2.114 . S
O345 C348 1.252 . S
O346 Mg336 2.251 . S
O346 Mg339 2.079 . S
O346 C348 1.273 . S
C347 O343 1.246 . S
C347 O344 1.259 . S
C348 O345 1.252 . S
C348 O346 1.273 . S
O349 Mg336 2.010 . S
O349 C341 1.249 . S
Mg350 O351 2.028 . S
Mg350 O357 1.986 . S
Mg350 O359 2.114 . S
Mg350 O360 2.251 . S
Mg350 O363 2.010 1_556 S
O351 Mg350 2.028 . S
O351 C354 1.250 . S
O352 Mg353 2.028 . S
O352 C354 1.248 . S
Mg353 O352 2.028 . S
Mg353 O358 2.032 . S
Mg353 O360 2.079 . S
C354 O351 1.250 . S
C354 O352 1.248 . S
C355 O356 1.264 . S
C355 O363 1.249 . S
O356 C355 1.264 . S
O357 Mg350 1.986 . S
O357 C361 1.246 . S
O358 Mg353 2.032 . S
O358 C361 1.259 . S
O359 Mg350 2.114 . S
O359 C362 1.252 . S
O360 Mg350 2.251 . S
O360 Mg353 2.079 . S
O360 C362 1.273 . S
C361 O357 1.246 . S
C361 O358 1.259 . S
C362 O359 1.252 . S
C362 O360 1.273 . S
O363 Mg350 2.010 1_554 S
O363 C355 1.249 . S
Mg364 O365 2.028 . S
Mg364 O371 1.986 . S
Mg364 O373 2.114 . S
Mg364 O374 2.251 . S
Mg364 O377 2.010 . S
O365 Mg364 2.028 . S
O365 C368 1.250 . S
O366 Mg367 2.028 . S
O366 C368 1.248 . S
Mg367 O366 2.028 . S
Mg367 O372 2.032 . S
Mg367 O374 2.079 . S
C368 O365 1.250 . S
C368 O366 1.248 . S
C369 O370 1.264 . S
C369 O377 1.249 . S
O370 C369 1.264 . S
O371 Mg364 1.986 . S
O371 C375 1.246 . S
O372 Mg367 2.032 . S
O372 C375 1.259 . S
O373 Mg364 2.114 . S
O373 C376 1.252 . S
O374 Mg364 2.251 . S
O374 Mg367 2.079 . S
O374 C376 1.273 . S
C375 O371 1.246 . S
C375 O372 1.259 . S
C376 O373 1.252 . S
C376 O374 1.273 . S
O377 Mg364 2.010 . S
O377 C369 1.249 . S
Mg378 O379 2.028 . S
Mg378 O385 1.986 . S
Mg378 O387 2.114 1_655 S
Mg378 O388 2.251 1_655 S
Mg378 O391 2.010 . S
O379 Mg378 2.028 . S
O379 C382 1.250 . S
O380 Mg381 2.028 . S
O380 C382 1.248 . S
Mg381 O380 2.028 . S
Mg381 O386 2.032 . S
Mg381 O388 2.079 1_655 S
C382 O379 1.250 . S
C382 O380 1.248 . S
C383 O384 1.264 . S
C383 O391 1.249 . S
O384 C383 1.264 . S
O385 Mg378 1.986 . S
O385 C389 1.246 . S
O386 Mg381 2.032 . S
O386 C389 1.259 . S
O387 Mg378 2.114 1_455 S
O387 C390 1.252 . S
O388 Mg378 2.251 1_455 S
O388 Mg381 2.079 1_455 S
O388 C390 1.273 . S
C389 O385 1.246 . S
C389 O386 1.259 . S
C390 O387 1.252 . S
C390 O388 1.273 . S
O391 Mg378 2.010 . S
O391 C383 1.249 . S
Mg392 O393 2.028 . S
Mg392 O399 1.986 . S
Mg392 O401 2.114 . S
Mg392 O402 2.251 . S
Mg392 O405 2.010 . S
O393 Mg392 2.028 . S
O393 C396 1.250 . S
O394 Mg395 2.028 . S
O394 C396 1.248 . S
Mg395 O394 2.028 . S
Mg395 O400 2.032 . S
Mg395 O402 2.079 . S
C396 O393 1.250 . S
C396 O394 1.248 . S
C397 O398 1.264 . S
C397 O405 1.249 . S
O398 C397 1.264 . S
O399 Mg392 1.986 . S
O399 C403 1.246 . S
O400 Mg395 2.032 . S
O400 C403 1.259 . S
O401 Mg392 2.114 . S
O401 C404 1.252 . S
O402 Mg392 2.251 . S
O402 Mg395 2.079 . S
O402 C404 1.273 . S
C403 O399 1.246 . S
C403 O400 1.259 . S
C404 O401 1.252 . S
C404 O402 1.273 . S
O405 Mg392 2.010 . S
O405 C397 1.249 . S
Mg406 O407 2.028 . S
Mg406 O413 1.986 . S
Mg406 O415 2.114 1_655 S
Mg406 O416 2.251 1_655 S
Mg406 O419 2.010 1_554 S
O407 Mg406 2.028 . S
O407 C410 1.250 . S
O408 Mg409 2.028 . S
O408 C410 1.248 . S
Mg409 O408 2.028 . S
Mg409 O414 2.032 . S
Mg409 O416 2.079 1_655 S
C410 O407 1.250 . S
C410 O408 1.248 . S
C411 O412 1.264 . S
C411 O419 1.249 . S
O412 C411 1.264 . S
O413 Mg406 1.986 . S
O413 C417 1.246 . S
O414 Mg409 2.032 . S
O414 C417 1.259 . S
O415 Mg406 2.114 1_455 S
O415 C418 1.252 . S
O416 Mg406 2.251 1_455 S
O416 Mg409 2.079 1_455 S
O416 C418 1.273 . S
C417 O413 1.246 . S
C417 O414 1.259 . S
C418 O415 1.252 . S
C418 O416 1.273 . S
O419 Mg406 2.010 1_556 S
O419 C411 1.249 . S
Mg420 O421 2.028 . S
Mg420 O427 1.986 . S
Mg420 O429 2.114 . S
Mg420 O430 2.251 . S
Mg420 O433 2.010 . S
O421 Mg420 2.028 . S
O421 C424 1.250 . S
O422 Mg423 2.028 . S
O422 C424 1.248 . S
Mg423 O422 2.028 . S
Mg423 O428 2.032 . S
Mg423 O430 2.079 . S
C424 O421 1.250 . S
C424 O422 1.248 . S
C425 O426 1.264 . S
C425 O433 1.249 . S
O426 C425 1.264 . S
O427 Mg420 1.986 . S
O427 C431 1.246 . S
O428 Mg423 2.032 . S
O428 C431 1.259 . S
O429 Mg420 2.114 . S
O429 C432 1.252 . S
O430 Mg420 2.251 . S
O430 Mg423 2.079 . S
O430 C432 1.273 . S
C431 O427 1.246 . S
C431 O428 1.259 . S
C432 O429 1.252 . S
C432 O430 1.273 . S
O433 Mg420 2.010 . S
O433 C425 1.249 . S
Mg434 O435 2.028 . S
Mg434 O441 1.986 . S
Mg434 O443 2.114 . S
Mg434 O444 2.251 . S
Mg434 O447 2.010 . S
O435 Mg434 2.028 . S
O435 C438 1.250 . S
O436 Mg437 2.028 . S
O436 C438 1.248 . S
Mg437 O436 2.028 . S
Mg437 O442 2.032 . S
Mg437 O444 2.079 . S
C438 O435 1.250 . S
C438 O436 1.248 . S
C439 O440 1.264 . S
C439 O447 1.249 . S
O440 C439 1.264 . S
O441 Mg434 1.986 . S
O441 C445 1.246 . S
O442 Mg437 2.032 . S
O442 C445 1.259 . S
O443 Mg434 2.114 . S
O443 C446 1.252 . S
O444 Mg434 2.251 . S
O444 Mg437 2.079 . S
O444 C446 1.273 . S
C445 O441 1.246 . S
C445 O442 1.259 . S
C446 O443 1.252 . S
C446 O444 1.273 . S
O447 Mg434 2.010 . S
O447 C439 1.249 . S
C448 C449 1.349 . S
C448 C450 1.327 . S
C448 H473 0.950 . S
C449 C448 1.349 . S
C449 C465 1.349 . S
C450 C448 1.327 . S
C450 C469 1.429 . S
C450 H474 0.950 . S
C451 C468 1.574 . S
C451 C470 1.368 . S
C451 H475 0.949 . S
H452 C456 0.949 . S
C453 C454 1.349 . S
C453 C455 1.327 . S
C453 H476 0.950 . S
C454 C453 1.349 . S
C454 C466 1.349 . S
C455 C453 1.327 . S
C455 C471 1.429 . S
C455 H477 0.950 . S
C456 H452 0.949 . S
C456 C464 1.574 . S
C456 C472 1.368 . S
H457 C465 0.950 . S
H458 C463 0.950 . S
H459 C464 0.949 . S
H460 C466 0.950 . S
H461 C467 0.950 . S
H462 C468 0.949 . S
C463 H458 0.950 . S
C463 C465 1.327 . S
C463 C469 1.429 . S
C464 C456 1.574 . S
C464 H459 0.949 . S
C464 C470 1.368 . S
C465 C449 1.349 . S
C465 H457 0.950 . S
C465 C463 1.327 . S
C466 C454 1.349 . S
C466 H460 0.950 . S
C466 C467 1.327 . S
C467 H461 0.950 . S
C467 C466 1.327 . S
C467 C471 1.429 . S
C468 C451 1.574 . S
C468 H462 0.949 . S
C468 C472 1.368 . S
C469 C450 1.429 . S
C469 C463 1.429 . S
C469 C470 1.523 . S
C470 C451 1.368 . S
C470 C464 1.368 . S
C470 C469 1.523 . S
C471 C455 1.429 . S
C471 C467 1.429 . S
C471 C472 1.523 . S
C472 C456 1.368 . S
C472 C468 1.368 . S
C472 C471 1.523 . S
H473 C448 0.950 . S
H474 C450 0.950 . S
H475 C451 0.949 . S
H476 C453 0.950 . S
H477 C455 0.950 . S
C478 C479 1.349 . S
C478 C480 1.327 . S
C478 H503 0.950 . S
C479 C478 1.349 . S
C479 C495 1.349 . S
C480 C478 1.327 . S
C480 C499 1.429 . S
C480 H504 0.950 . S
C481 C498 1.574 . S
C481 C500 1.368 . S
C481 H505 0.949 . S
H482 C486 0.949 . S
C483 C484 1.349 . S
C483 C485 1.327 . S
C483 H506 0.950 . S
C484 C483 1.349 . S
C484 C496 1.349 . S
C485 C483 1.327 . S
C485 C501 1.429 . S
C485 H507 0.950 . S
C486 H482 0.949 . S
C486 C494 1.574 . S
C486 C502 1.368 . S
H487 C495 0.950 . S
H488 C493 0.950 . S
H489 C494 0.949 . S
H490 C496 0.950 . S
H491 C497 0.950 . S
H492 C498 0.949 . S
C493 H488 0.950 . S
C493 C495 1.327 . S
C493 C499 1.429 . S
C494 C486 1.574 . S
C494 H489 0.949 . S
C494 C500 1.368 . S
C495 C479 1.349 . S
C495 H487 0.950 . S
C495 C493 1.327 . S
C496 C484 1.349 . S
C496 H490 0.950 . S
C496 C497 1.327 . S
C497 H491 0.950 . S
C497 C496 1.327 . S
C497 C501 1.429 . S
C498 C481 1.574 . S
C498 H492 0.949 . S
C498 C502 1.368 . S
C499 C480 1.429 . S
C499 C493 1.429 . S
C499 C500 1.523 . S
C500 C481 1.368 . S
C500 C494 1.368 . S
C500 C499 1.523 . S
C501 C485 1.429 . S
C501 C497 1.429 . S
C501 C502 1.523 . S
C502 C486 1.368 . S
C502 C498 1.368 . S
C502 C501 1.523 . S
H503 C478 0.950 . S
H504 C480 0.950 . S
H505 C481 0.949 . S
H506 C483 0.950 . S
H507 C485 0.950 . S
C508 C509 1.349 . S
C508 C510 1.327 . S
C508 H533 0.950 . S
C509 C508 1.349 . S
C509 C525 1.349 . S
C510 C508 1.327 . S
C510 C529 1.429 . S
C510 H534 0.950 . S
C511 C528 1.574 . S
C511 C530 1.368 . S
C511 H535 0.949 . S
H512 C516 0.949 . S
C513 C514 1.349 . S
C513 C515 1.327 . S
C513 H536 0.950 . S
C514 C513 1.349 . S
C514 C526 1.349 . S
C515 C513 1.327 . S
C515 C531 1.429 . S
C515 H537 0.950 . S
C516 H512 0.949 . S
C516 C524 1.574 . S
C516 C532 1.368 . S
H517 C525 0.950 . S
H518 C523 0.950 . S
H519 C524 0.949 . S
H520 C526 0.950 . S
H521 C527 0.950 . S
H522 C528 0.949 . S
C523 H518 0.950 . S
C523 C525 1.327 . S
C523 C529 1.429 . S
C524 C516 1.574 . S
C524 H519 0.949 . S
C524 C530 1.368 . S
C525 C509 1.349 . S
C525 H517 0.950 . S
C525 C523 1.327 . S
C526 C514 1.349 . S
C526 H520 0.950 . S
C526 C527 1.327 . S
C527 H521 0.950 . S
C527 C526 1.327 . S
C527 C531 1.429 . S
C528 C511 1.574 . S
C528 H522 0.949 . S
C528 C532 1.368 . S
C529 C510 1.429 . S
C529 C523 1.429 . S
C529 C530 1.523 . S
C530 C511 1.368 . S
C530 C524 1.368 . S
C530 C529 1.523 . S
C531 C515 1.429 . S
C531 C527 1.429 . S
C531 C532 1.523 . S
C532 C516 1.368 . S
C532 C528 1.368 . S
C532 C531 1.523 . S
H533 C508 0.950 . S
H534 C510 0.950 . S
H535 C511 0.949 . S
H536 C513 0.950 . S
H537 C515 0.950 . S
C538 C539 1.349 . S
C538 C540 1.327 . S
C538 H563 0.950 . S
C539 C538 1.349 . S
C539 C555 1.349 . S
C540 C538 1.327 . S
C540 C559 1.429 . S
C540 H564 0.950 . S
C541 C558 1.574 . S
C541 C560 1.368 . S
C541 H565 0.949 . S
H542 C546 0.949 . S
C543 C544 1.349 . S
C543 C545 1.327 . S
C543 H566 0.950 . S
C544 C543 1.349 . S
C544 C556 1.349 . S
C545 C543 1.327 . S
C545 C561 1.429 . S
C545 H567 0.950 . S
C546 H542 0.949 . S
C546 C554 1.574 . S
C546 C562 1.368 . S
H547 C555 0.950 . S
H548 C553 0.950 . S
H549 C554 0.949 . S
H550 C556 0.950 . S
H551 C557 0.950 . S
H552 C558 0.949 . S
C553 H548 0.950 . S
C553 C555 1.327 . S
C553 C559 1.429 . S
C554 C546 1.574 . S
C554 H549 0.949 . S
C554 C560 1.368 . S
C555 C539 1.349 . S
C555 H547 0.950 . S
C555 C553 1.327 . S
C556 C544 1.349 . S
C556 H550 0.950 . S
C556 C557 1.327 . S
C557 H551 0.950 . S
C557 C556 1.327 . S
C557 C561 1.429 . S
C558 C541 1.574 . S
C558 H552 0.949 . S
C558 C562 1.368 . S
C559 C540 1.429 . S
C559 C553 1.429 . S
C559 C560 1.523 . S
C560 C541 1.368 . S
C560 C554 1.368 . S
C560 C559 1.523 . S
C561 C545 1.429 . S
C561 C557 1.429 . S
C561 C562 1.523 . S
C562 C546 1.368 . S
C562 C558 1.368 . S
C562 C561 1.523 . S
H563 C538 0.950 . S
H564 C540 0.950 . S
H565 C541 0.949 . S
H566 C543 0.950 . S
H567 C545 0.950 . S
C568 C569 1.349 . S
C568 C570 1.327 . S
C568 H593 0.950 . S
C569 C568 1.349 . S
C569 C585 1.349 . S
C570 C568 1.327 . S
C570 C589 1.429 . S
C570 H594 0.950 . S
C571 C588 1.574 . S
C571 C590 1.368 . S
C571 H595 0.949 . S
H572 C576 0.949 . S
C573 C574 1.349 . S
C573 C575 1.327 . S
C573 H596 0.950 . S
C574 C573 1.349 . S
C574 C586 1.349 . S
C575 C573 1.327 . S
C575 C591 1.429 . S
C575 H597 0.950 . S
C576 H572 0.949 . S
C576 C584 1.574 . S
C576 C592 1.368 . S
H577 C585 0.950 . S
H578 C583 0.950 . S
H579 C584 0.949 . S
H580 C586 0.950 . S
H581 C587 0.950 . S
H582 C588 0.949 . S
C583 H578 0.950 . S
C583 C585 1.327 . S
C583 C589 1.429 . S
C584 C576 1.574 . S
C584 H579 0.949 . S
C584 C590 1.368 . S
C585 C569 1.349 . S
C585 H577 0.950 . S
C585 C583 1.327 . S
C586 C574 1.349 . S
C586 H580 0.950 . S
C586 C587 1.327 . S
C587 H581 0.950 . S
C587 C586 1.327 . S
C587 C591 1.429 . S
C588 C571 1.574 . S
C588 H582 0.949 . S
C588 C592 1.368 . S
C589 C570 1.429 . S
C589 C583 1.429 . S
C589 C590 1.523 . S
C590 C571 1.368 . S
C590 C584 1.368 . S
C590 C589 1.523 . S
C591 C575 1.429 . S
C591 C587 1.429 . S
C591 C592 1.523 . S
C592 C576 1.368 . S
C592 C588 1.368 . S
C592 C591 1.523 . S
H593 C568 0.950 . S
H594 C570 0.950 . S
H595 C571 0.949 . S
H596 C573 0.950 . S
H597 C575 0.950 . S
C598 C599 1.349 . S
C598 C600 1.327 . S
C598 H623 0.950 . S
C599 C598 1.349 . S
C599 C615 1.349 . S
C600 C598 1.327 . S
C600 C619 1.429 . S
C600 H624 0.950 . S
C601 C618 1.574 . S
C601 C620 1.368 . S
C601 H625 0.949 . S
H602 C606 0.949 . S
C603 C604 1.349 . S
C603 C605 1.327 . S
C603 H626 0.950 . S
C604 C603 1.349 . S
C604 C616 1.349 . S
C605 C603 1.327 . S
C605 C621 1.429 . S
C605 H627 0.950 . S
C606 H602 0.949 . S
C606 C614 1.574 . S
C606 C622 1.368 . S
H607 C615 0.950 . S
H608 C613 0.950 . S
H609 C614 0.949 . S
H610 C616 0.950 . S
H611 C617 0.950 . S
H612 C618 0.949 . S
C613 H608 0.950 . S
C613 C615 1.327 . S
C613 C619 1.429 . S
C614 C606 1.574 . S
C614 H609 0.949 . S
C614 C620 1.368 . S
C615 C599 1.349 . S
C615 H607 0.950 . S
C615 C613 1.327 . S
C616 C604 1.349 . S
C616 H610 0.950 . S
C616 C617 1.327 . S
C617 H611 0.950 . S
C617 C616 1.327 . S
C617 C621 1.429 . S
C618 C601 1.574 . S
C618 H612 0.949 . S
C618 C622 1.368 . S
C619 C600 1.429 . S
C619 C613 1.429 . S
C619 C620 1.523 . S
C620 C601 1.368 . S
C620 C614 1.368 . S
C620 C619 1.523 . S
C621 C605 1.429 . S
C621 C617 1.429 . S
C621 C622 1.523 . S
C622 C606 1.368 . S
C622 C618 1.368 . S
C622 C621 1.523 . S
H623 C598 0.950 . S
H624 C600 0.950 . S
H625 C601 0.949 . S
H626 C603 0.950 . S
H627 C605 0.950 . S
C628 C629 1.349 . S
C628 C630 1.327 . S
C628 H653 0.950 . S
C629 C628 1.349 . S
C629 C645 1.349 . S
C630 C628 1.327 . S
C630 C649 1.429 . S
C630 H654 0.950 . S
C631 C648 1.574 . S
C631 C650 1.368 . S
C631 H655 0.949 . S
H632 C636 0.949 . S
C633 C634 1.349 . S
C633 C635 1.327 . S
C633 H656 0.950 . S
C634 C633 1.349 . S
C634 C646 1.349 . S
C635 C633 1.327 . S
C635 C651 1.429 . S
C635 H657 0.950 . S
C636 H632 0.949 . S
C636 C644 1.574 . S
C636 C652 1.368 . S
H637 C645 0.950 . S
H638 C643 0.950 . S
H639 C644 0.949 . S
H640 C646 0.950 . S
H641 C647 0.950 . S
H642 C648 0.949 . S
C643 H638 0.950 . S
C643 C645 1.327 . S
C643 C649 1.429 . S
C644 C636 1.574 . S
C644 H639 0.949 . S
C644 C650 1.368 . S
C645 C629 1.349 . S
C645 H637 0.950 . S
C645 C643 1.327 . S
C646 C634 1.349 . S
C646 H640 0.950 . S
C646 C647 1.327 . S
C647 H641 0.950 . S
C647 C646 1.327 . S
C647 C651 1.429 . S
C648 C631 1.574 . S
C648 H642 0.949 . S
C648 C652 1.368 . S
C649 C630 1.429 . S
C649 C643 1.429 . S
C649 C650 1.523 . S
C650 C631 1.368 . S
C650 C644 1.368 . S
C650 C649 1.523 . S
C651 C635 1.429 . S
C651 C647 1.429 . S
C651 C652 1.523 . S
C652 C636 1.368 . S
C652 C648 1.368 . S
C652 C651 1.523 . S
H653 C628 0.950 . S
H654 C630 0.950 . S
H655 C631 0.949 . S
H656 C633 0.950 . S
H657 C635 0.950 . S
C658 C659 1.349 . S
C658 C660 1.327 . S
C658 H683 0.950 . S
C659 C658 1.349 . S
C659 C675 1.349 . S
C660 C658 1.327 . S
C660 C679 1.429 . S
C660 H684 0.950 . S
C661 C678 1.574 . S
C661 C680 1.368 . S
C661 H685 0.949 . S
H662 C666 0.949 . S
C663 C664 1.349 . S
C663 C665 1.327 . S
C663 H686 0.950 . S
C664 C663 1.349 . S
C664 C676 1.349 . S
C665 C663 1.327 . S
C665 C681 1.429 . S
C665 H687 0.950 . S
C666 H662 0.949 . S
C666 C674 1.574 . S
C666 C682 1.368 . S
H667 C675 0.950 . S
H668 C673 0.950 . S
H669 C674 0.949 . S
H670 C676 0.950 . S
H671 C677 0.950 . S
H672 C678 0.949 . S
C673 H668 0.950 . S
C673 C675 1.327 . S
C673 C679 1.429 . S
C674 C666 1.574 . S
C674 H669 0.949 . S
C674 C680 1.368 . S
C675 C659 1.349 . S
C675 H667 0.950 . S
C675 C673 1.327 . S
C676 C664 1.349 . S
C676 H670 0.950 . S
C676 C677 1.327 . S
C677 H671 0.950 . S
C677 C676 1.327 . S
C677 C681 1.429 . S
C678 C661 1.574 . S
C678 H672 0.949 . S
C678 C682 1.368 . S
C679 C660 1.429 . S
C679 C673 1.429 . S
C679 C680 1.523 . S
C680 C661 1.368 . S
C680 C674 1.368 . S
C680 C679 1.523 . S
C681 C665 1.429 . S
C681 C677 1.429 . S
C681 C682 1.523 . S
C682 C666 1.368 . S
C682 C678 1.368 . S
C682 C681 1.523 . S
H683 C658 0.950 . S
H684 C660 0.950 . S
H685 C661 0.949 . S
H686 C663 0.950 . S
H687 C665 0.950 . S
C688 C689 1.349 . S
C688 C690 1.327 . S
C688 H713 0.950 . S
C689 C688 1.349 . S
C689 C705 1.349 . S
C690 C688 1.327 . S
C690 C709 1.429 . S
C690 H714 0.950 . S
C691 C708 1.574 . S
C691 C710 1.368 . S
C691 H715 0.949 . S
H692 C696 0.949 . S
C693 C694 1.349 . S
C693 C695 1.327 . S
C693 H716 0.950 . S
C694 C693 1.349 . S
C694 C706 1.349 . S
C695 C693 1.327 . S
C695 C711 1.429 . S
C695 H717 0.950 . S
C696 H692 0.949 . S
C696 C704 1.574 . S
C696 C712 1.368 . S
H697 C705 0.950 . S
H698 C703 0.950 . S
H699 C704 0.949 . S
H700 C706 0.950 . S
H701 C707 0.950 . S
H702 C708 0.949 . S
C703 H698 0.950 . S
C703 C705 1.327 . S
C703 C709 1.429 . S
C704 C696 1.574 . S
C704 H699 0.949 . S
C704 C710 1.368 . S
C705 C689 1.349 . S
C705 H697 0.950 . S
C705 C703 1.327 . S
C706 C694 1.349 . S
C706 H700 0.950 . S
C706 C707 1.327 . S
C707 H701 0.950 . S
C707 C706 1.327 . S
C707 C711 1.429 . S
C708 C691 1.574 . S
C708 H702 0.949 . S
C708 C712 1.368 . S
C709 C690 1.429 . S
C709 C703 1.429 . S
C709 C710 1.523 . S
C710 C691 1.368 . S
C710 C704 1.368 . S
C710 C709 1.523 . S
C711 C695 1.429 . S
C711 C707 1.429 . S
C711 C712 1.523 . S
C712 C696 1.368 . S
C712 C708 1.368 . S
C712 C711 1.523 . S
H713 C688 0.950 . S
H714 C690 0.950 . S
H715 C691 0.949 . S
H716 C693 0.950 . S
H717 C695 0.950 . S
C718 C719 1.349 . S
C718 C720 1.327 . S
C718 H743 0.950 . S
C719 C718 1.349 . S
C719 C735 1.349 . S
C720 C718 1.327 . S
C720 C739 1.429 . S
C720 H744 0.950 . S
C721 C738 1.574 . S
C721 C740 1.368 . S
C721 H745 0.949 . S
H722 C726 0.949 . S
C723 C724 1.349 . S
C723 C725 1.327 . S
C723 H746 0.950 . S
C724 C723 1.349 . S
C724 C736 1.349 . S
C725 C723 1.327 . S
C725 C741 1.429 . S
C725 H747 0.950 . S
C726 H722 0.949 . S
C726 C734 1.574 . S
C726 C742 1.368 . S
H727 C735 0.950 . S
H728 C733 0.950 . S
H729 C734 0.949 . S
H730 C736 0.950 . S
H731 C737 0.950 . S
H732 C738 0.949 . S
C733 H728 0.950 . S
C733 C735 1.327 . S
C733 C739 1.429 . S
C734 C726 1.574 . S
C734 H729 0.949 . S
C734 C740 1.368 . S
C735 C719 1.349 . S
C735 H727 0.950 . S
C735 C733 1.327 . S
C736 C724 1.349 . S
C736 H730 0.950 . S
C736 C737 1.327 . S
C737 H731 0.950 . S
C737 C736 1.327 . S
C737 C741 1.429 . S
C738 C721 1.574 . S
C738 H732 0.949 . S
C738 C742 1.368 . S
C739 C720 1.429 . S
C739 C733 1.429 . S
C739 C740 1.523 . S
C740 C721 1.368 . S
C740 C734 1.368 . S
C740 C739 1.523 . S
C741 C725 1.429 . S
C741 C737 1.429 . S
C741 C742 1.523 . S
C742 C726 1.368 . S
C742 C738 1.368 . S
C742 C741 1.523 . S
H743 C718 0.950 . S
H744 C720 0.950 . S
H745 C721 0.949 . S
H746 C723 0.950 . S
H747 C725 0.950 . S
C748 C749 1.349 . S
C748 C750 1.327 . S
C748 H773 0.950 . S
C749 C748 1.349 . S
C749 C765 1.349 . S
C750 C748 1.327 . S
C750 C769 1.429 . S
C750 H774 0.950 . S
C751 C768 1.574 . S
C751 C770 1.368 . S
C751 H775 0.949 . S
H752 C756 0.949 . S
C753 C754 1.349 . S
C753 C755 1.327 . S
C753 H776 0.950 . S
C754 C753 1.349 . S
C754 C766 1.349 . S
C755 C753 1.327 . S
C755 C771 1.429 . S
C755 H777 0.950 . S
C756 H752 0.949 . S
C756 C764 1.574 . S
C756 C772 1.368 . S
H757 C765 0.950 . S
H758 C763 0.950 . S
H759 C764 0.949 . S
H760 C766 0.950 . S
H761 C767 0.950 . S
H762 C768 0.949 . S
C763 H758 0.950 . S
C763 C765 1.327 . S
C763 C769 1.429 . S
C764 C756 1.574 . S
C764 H759 0.949 . S
C764 C770 1.368 . S
C765 C749 1.349 . S
C765 H757 0.950 . S
C765 C763 1.327 . S
C766 C754 1.349 . S
C766 H760 0.950 . S
C766 C767 1.327 . S
C767 H761 0.950 . S
C767 C766 1.327 . S
C767 C771 1.429 . S
C768 C751 1.574 . S
C768 H762 0.949 . S
C768 C772 1.368 . S
C769 C750 1.429 . S
C769 C763 1.429 . S
C769 C770 1.523 . S
C770 C751 1.368 . S
C770 C764 1.368 . S
C770 C769 1.523 . S
C771 C755 1.429 . S
C771 C767 1.429 . S
C771 C772 1.523 . S
C772 C756 1.368 . S
C772 C768 1.368 . S
C772 C771 1.523 . S
H773 C748 0.950 . S
H774 C750 0.950 . S
H775 C751 0.949 . S
H776 C753 0.950 . S
H777 C755 0.950 . S
C778 C779 1.349 . S
C778 C780 1.327 . S
C778 H803 0.950 . S
C779 C778 1.349 . S
C779 C795 1.349 . S
C780 C778 1.327 . S
C780 C799 1.429 . S
C780 H804 0.950 . S
C781 C798 1.574 . S
C781 C800 1.368 . S
C781 H805 0.949 . S
H782 C786 0.949 . S
C783 C784 1.349 . S
C783 C785 1.327 . S
C783 H806 0.950 . S
C784 C783 1.349 . S
C784 C796 1.349 . S
C785 C783 1.327 . S
C785 C801 1.429 . S
C785 H807 0.950 . S
C786 H782 0.949 . S
C786 C794 1.574 . S
C786 C802 1.368 . S
H787 C795 0.950 . S
H788 C793 0.950 . S
H789 C794 0.949 . S
H790 C796 0.950 . S
H791 C797 0.950 . S
H792 C798 0.949 . S
C793 H788 0.950 . S
C793 C795 1.327 . S
C793 C799 1.429 . S
C794 C786 1.574 . S
C794 H789 0.949 . S
C794 C800 1.368 . S
C795 C779 1.349 . S
C795 H787 0.950 . S
C795 C793 1.327 . S
C796 C784 1.349 . S
C796 H790 0.950 . S
C796 C797 1.327 . S
C797 H791 0.950 . S
C797 C796 1.327 . S
C797 C801 1.429 . S
C798 C781 1.574 . S
C798 H792 0.949 . S
C798 C802 1.368 . S
C799 C780 1.429 . S
C799 C793 1.429 . S
C799 C800 1.523 . S
C800 C781 1.368 . S
C800 C794 1.368 . S
C800 C799 1.523 . S
C801 C785 1.429 . S
C801 C797 1.429 . S
C801 C802 1.523 . S
C802 C786 1.368 . S
C802 C798 1.368 . S
C802 C801 1.523 . S
H803 C778 0.950 . S
H804 C780 0.950 . S
H805 C781 0.949 . S
H806 C783 0.950 . S
H807 C785 0.950 . S
C808 C809 1.349 . S
C808 C810 1.327 . S
C808 H833 0.950 . S
C809 C808 1.349 . S
C809 C825 1.349 . S
C810 C808 1.327 . S
C810 C829 1.429 . S
C810 H834 0.950 . S
C811 C828 1.574 . S
C811 C830 1.368 . S
C811 H835 0.949 . S
H812 C816 0.949 . S
C813 C814 1.349 . S
C813 C815 1.327 . S
C813 H836 0.950 . S
C814 C813 1.349 . S
C814 C826 1.349 . S
C815 C813 1.327 . S
C815 C831 1.429 . S
C815 H837 0.950 . S
C816 H812 0.949 . S
C816 C824 1.574 . S
C816 C832 1.368 . S
H817 C825 0.950 . S
H818 C823 0.950 . S
H819 C824 0.949 . S
H820 C826 0.950 . S
H821 C827 0.950 . S
H822 C828 0.949 . S
C823 H818 0.950 . S
C823 C825 1.327 . S
C823 C829 1.429 . S
C824 C816 1.574 . S
C824 H819 0.949 . S
C824 C830 1.368 . S
C825 C809 1.349 . S
C825 H817 0.950 . S
C825 C823 1.327 . S
C826 C814 1.349 . S
C826 H820 0.950 . S
C826 C827 1.327 . S
C827 H821 0.950 . S
C827 C826 1.327 . S
C827 C831 1.429 . S
C828 C811 1.574 . S
C828 H822 0.949 . S
C828 C832 1.368 . S
C829 C810 1.429 . S
C829 C823 1.429 . S
C829 C830 1.523 . S
C830 C811 1.368 . S
C830 C824 1.368 . S
C830 C829 1.523 . S
C831 C815 1.429 . S
C831 C827 1.429 . S
C831 C832 1.523 . S
C832 C816 1.368 . S
C832 C828 1.368 . S
C832 C831 1.523 . S
H833 C808 0.950 . S
H834 C810 0.950 . S
H835 C811 0.949 . S
H836 C813 0.950 . S
H837 C815 0.950 . S
C838 C839 1.349 . S
C838 C840 1.327 . S
C838 H863 0.950 . S
C839 C838 1.349 . S
C839 C855 1.349 . S
C840 C838 1.327 . S
C840 C859 1.429 . S
C840 H864 0.950 . S
C841 C858 1.574 . S
C841 C860 1.368 . S
C841 H865 0.949 . S
H842 C846 0.949 . S
C843 C844 1.349 . S
C843 C845 1.327 . S
C843 H866 0.950 . S
C844 C843 1.349 . S
C844 C856 1.349 . S
C845 C843 1.327 . S
C845 C861 1.429 . S
C845 H867 0.950 . S
C846 H842 0.949 . S
C846 C854 1.574 . S
C846 C862 1.368 . S
H847 C855 0.950 . S
H848 C853 0.950 . S
H849 C854 0.949 . S
H850 C856 0.950 . S
H851 C857 0.950 . S
H852 C858 0.949 . S
C853 H848 0.950 . S
C853 C855 1.327 . S
C853 C859 1.429 . S
C854 C846 1.574 . S
C854 H849 0.949 . S
C854 C860 1.368 . S
C855 C839 1.349 . S
C855 H847 0.950 . S
C855 C853 1.327 . S
C856 C844 1.349 . S
C856 H850 0.950 . S
C856 C857 1.327 . S
C857 H851 0.950 . S
C857 C856 1.327 . S
C857 C861 1.429 . S
C858 C841 1.574 . S
C858 H852 0.949 . S
C858 C862 1.368 . S
C859 C840 1.429 . S
C859 C853 1.429 . S
C859 C860 1.523 . S
C860 C841 1.368 . S
C860 C854 1.368 . S
C860 C859 1.523 . S
C861 C845 1.429 . S
C861 C857 1.429 . S
C861 C862 1.523 . S
C862 C846 1.368 . S
C862 C858 1.368 . S
C862 C861 1.523 . S
H863 C838 0.950 . S
H864 C840 0.950 . S
H865 C841 0.949 . S
H866 C843 0.950 . S
H867 C845 0.950 . S
C868 C869 1.349 . S
C868 C870 1.327 . S
C868 H893 0.950 . S
C869 C868 1.349 . S
C869 C885 1.349 . S
C870 C868 1.327 . S
C870 C889 1.429 . S
C870 H894 0.950 . S
C871 C888 1.574 . S
C871 C890 1.368 . S
C871 H895 0.949 . S
H872 C876 0.949 . S
C873 C874 1.349 . S
C873 C875 1.327 . S
C873 H896 0.950 . S
C874 C873 1.349 . S
C874 C886 1.349 . S
C875 C873 1.327 . S
C875 C891 1.429 . S
C875 H897 0.950 . S
C876 H872 0.949 . S
C876 C884 1.574 . S
C876 C892 1.368 . S
H877 C885 0.950 . S
H878 C883 0.950 . S
H879 C884 0.949 . S
H880 C886 0.950 . S
H881 C887 0.950 . S
H882 C888 0.949 . S
C883 H878 0.950 . S
C883 C885 1.327 . S
C883 C889 1.429 . S
C884 C876 1.574 . S
C884 H879 0.949 . S
C884 C890 1.368 . S
C885 C869 1.349 . S
C885 H877 0.950 . S
C885 C883 1.327 . S
C886 C874 1.349 . S
C886 H880 0.950 . S
C886 C887 1.327 . S
C887 H881 0.950 . S
C887 C886 1.327 . S
C887 C891 1.429 . S
C888 C871 1.574 . S
C888 H882 0.949 . S
C888 C892 1.368 . S
C889 C870 1.429 . S
C889 C883 1.429 . S
C889 C890 1.523 . S
C890 C871 1.368 . S
C890 C884 1.368 . S
C890 C889 1.523 . S
C891 C875 1.429 . S
C891 C887 1.429 . S
C891 C892 1.523 . S
C892 C876 1.368 . S
C892 C888 1.368 . S
C892 C891 1.523 . S
H893 C868 0.950 . S
H894 C870 0.950 . S
H895 C871 0.949 . S
H896 C873 0.950 . S
H897 C875 0.950 . S
C898 C899 1.349 . S
C898 C900 1.327 . S
C898 H923 0.950 . S
C899 C898 1.349 . S
C899 C915 1.349 . S
C900 C898 1.327 . S
C900 C919 1.429 . S
C900 H924 0.950 . S
C901 C918 1.574 . S
C901 C920 1.368 . S
C901 H925 0.949 . S
H902 C906 0.949 . S
C903 C904 1.349 . S
C903 C905 1.327 . S
C903 H926 0.950 . S
C904 C903 1.349 . S
C904 C916 1.349 . S
C905 C903 1.327 . S
C905 C921 1.429 . S
C905 H927 0.950 . S
C906 H902 0.949 . S
C906 C914 1.574 . S
C906 C922 1.368 . S
H907 C915 0.950 . S
H908 C913 0.950 . S
H909 C914 0.949 . S
H910 C916 0.950 . S
H911 C917 0.950 . S
H912 C918 0.949 . S
C913 H908 0.950 . S
C913 C915 1.327 . S
C913 C919 1.429 . S
C914 C906 1.574 . S
C914 H909 0.949 . S
C914 C920 1.368 . S
C915 C899 1.349 . S
C915 H907 0.950 . S
C915 C913 1.327 . S
C916 C904 1.349 . S
C916 H910 0.950 . S
C916 C917 1.327 . S
C917 H911 0.950 . S
C917 C916 1.327 . S
C917 C921 1.429 . S
C918 C901 1.574 . S
C918 H912 0.949 . S
C918 C922 1.368 . S
C919 C900 1.429 . S
C919 C913 1.429 . S
C919 C920 1.523 . S
C920 C901 1.368 . S
C920 C914 1.368 . S
C920 C919 1.523 . S
C921 C905 1.429 . S
C921 C917 1.429 . S
C921 C922 1.523 . S
C922 C906 1.368 . S
C922 C918 1.368 . S
C922 C921 1.523 . S
H923 C898 0.950 . S
H924 C900 0.950 . S
H925 C901 0.949 . S
H926 C903 0.950 . S
H927 C905 0.950 . S
C928 C929 1.349 . S
C928 C930 1.327 . S
C928 H953 0.950 . S
C929 C928 1.349 . S
C929 C945 1.349 . S
C930 C928 1.327 . S
C930 C949 1.429 . S
C930 H954 0.950 . S
C931 C948 1.574 . S
C931 C950 1.368 . S
C931 H955 0.949 . S
H932 C936 0.949 . S
C933 C934 1.349 . S
C933 C935 1.327 . S
C933 H956 0.950 . S
C934 C933 1.349 . S
C934 C946 1.349 . S
C935 C933 1.327 . S
C935 C951 1.429 . S
C935 H957 0.950 . S
C936 H932 0.949 . S
C936 C944 1.574 . S
C936 C952 1.368 . S
H937 C945 0.950 . S
H938 C943 0.950 . S
H939 C944 0.949 . S
H940 C946 0.950 . S
H941 C947 0.950 . S
H942 C948 0.949 . S
C943 H938 0.950 . S
C943 C945 1.327 . S
C943 C949 1.429 . S
C944 C936 1.574 . S
C944 H939 0.949 . S
C944 C950 1.368 . S
C945 C929 1.349 . S
C945 H937 0.950 . S
C945 C943 1.327 . S
C946 C934 1.349 . S
C946 H940 0.950 . S
C946 C947 1.327 . S
C947 H941 0.950 . S
C947 C946 1.327 . S
C947 C951 1.429 . S
C948 C931 1.574 . S
C948 H942 0.949 . S
C948 C952 1.368 . S
C949 C930 1.429 . S
C949 C943 1.429 . S
C949 C950 1.523 . S
C950 C931 1.368 . S
C950 C944 1.368 . S
C950 C949 1.523 . S
C951 C935 1.429 . S
C951 C947 1.429 . S
C951 C952 1.523 . S
C952 C936 1.368 . S
C952 C948 1.368 . S
C952 C951 1.523 . S
H953 C928 0.950 . S
H954 C930 0.950 . S
H955 C931 0.949 . S
H956 C933 0.950 . S
H957 C935 0.950 . S
C958 C959 1.349 . S
C958 C960 1.327 . S
C958 H983 0.950 . S
C959 C958 1.349 . S
C959 C975 1.349 . S
C960 C958 1.327 . S
C960 C979 1.429 . S
C960 H984 0.950 . S
C961 C978 1.574 . S
C961 C980 1.368 . S
C961 H985 0.949 . S
H962 C966 0.949 . S
C963 C964 1.349 . S
C963 C965 1.327 . S
C963 H986 0.950 . S
C964 C963 1.349 . S
C964 C976 1.349 . S
C965 C963 1.327 . S
C965 C981 1.429 . S
C965 H987 0.950 . S
C966 H962 0.949 . S
C966 C974 1.574 . S
C966 C982 1.368 . S
H967 C975 0.950 . S
H968 C973 0.950 . S
H969 C974 0.949 . S
H970 C976 0.950 . S
H971 C977 0.950 . S
H972 C978 0.949 . S
C973 H968 0.950 . S
C973 C975 1.327 . S
C973 C979 1.429 . S
C974 C966 1.574 . S
C974 H969 0.949 . S
C974 C980 1.368 . S
C975 C959 1.349 . S
C975 H967 0.950 . S
C975 C973 1.327 . S
C976 C964 1.349 . S
C976 H970 0.950 . S
C976 C977 1.327 . S
C977 H971 0.950 . S
C977 C976 1.327 . S
C977 C981 1.429 . S
C978 C961 1.574 . S
C978 H972 0.949 . S
C978 C982 1.368 . S
C979 C960 1.429 . S
C979 C973 1.429 . S
C979 C980 1.523 . S
C980 C961 1.368 . S
C980 C974 1.368 . S
C980 C979 1.523 . S
C981 C965 1.429 . S
C981 C977 1.429 . S
C981 C982 1.523 . S
C982 C966 1.368 . S
C982 C978 1.368 . S
C982 C981 1.523 . S
H983 C958 0.950 . S
H984 C960 0.950 . S
H985 C961 0.949 . S
H986 C963 0.950 . S
H987 C965 0.950 . S
C988 C989 1.349 . S
C988 C990 1.327 . S
C988 H1013 0.950 . S
C989 C988 1.349 . S
C989 C1005 1.349 . S
C990 C988 1.327 . S
C990 C1009 1.429 . S
C990 H1014 0.950 . S
C991 C1008 1.574 . S
C991 C1010 1.368 . S
C991 H1015 0.949 . S
H992 C996 0.949 . S
C993 C994 1.349 . S
C993 C995 1.327 . S
C993 H1016 0.950 . S
C994 C993 1.349 . S
C994 C1006 1.349 . S
C995 C993 1.327 . S
C995 C1011 1.429 . S
C995 H1017 0.950 . S
C996 H992 0.949 . S
C996 C1004 1.574 . S
C996 C1012 1.368 . S
H997 C1005 0.950 . S
H998 C1003 0.950 . S
H999 C1004 0.949 . S
H1000 C1006 0.950 . S
H1001 C1007 0.950 . S
H1002 C1008 0.949 . S
C1003 H998 0.950 . S
C1003 C1005 1.327 . S
C1003 C1009 1.429 . S
C1004 C996 1.574 . S
C1004 H999 0.949 . S
C1004 C1010 1.368 . S
C1005 C989 1.349 . S
C1005 H997 0.950 . S
C1005 C1003 1.327 . S
C1006 C994 1.349 . S
C1006 H1000 0.950 . S
C1006 C1007 1.327 . S
C1007 H1001 0.950 . S
C1007 C1006 1.327 . S
C1007 C1011 1.429 . S
C1008 C991 1.574 . S
C1008 H1002 0.949 . S
C1008 C1012 1.368 . S
C1009 C990 1.429 . S
C1009 C1003 1.429 . S
C1009 C1010 1.523 . S
C1010 C991 1.368 . S
C1010 C1004 1.368 . S
C1010 C1009 1.523 . S
C1011 C995 1.429 . S
C1011 C1007 1.429 . S
C1011 C1012 1.523 . S
C1012 C996 1.368 . S
C1012 C1008 1.368 . S
C1012 C1011 1.523 . S
H1013 C988 0.950 . S
H1014 C990 0.950 . S
H1015 C991 0.949 . S
H1016 C993 0.950 . S
H1017 C995 0.950 . S
C1018 C1019 1.349 . S
C1018 C1020 1.327 . S
C1018 H1043 0.950 . S
C1019 C1018 1.349 . S
C1019 C1035 1.349 . S
C1020 C1018 1.327 . S
C1020 C1039 1.429 . S
C1020 H1044 0.950 . S
C1021 C1038 1.574 . S
C1021 C1040 1.368 . S
C1021 H1045 0.949 . S
H1022 C1026 0.949 . S
C1023 C1024 1.349 . S
C1023 C1025 1.327 . S
C1023 H1046 0.950 . S
C1024 C1023 1.349 . S
C1024 C1036 1.349 . S
C1025 C1023 1.327 . S
C1025 C1041 1.429 . S
C1025 H1047 0.950 . S
C1026 H1022 0.949 . S
C1026 C1034 1.574 . S
C1026 C1042 1.368 . S
H1027 C1035 0.950 . S
H1028 C1033 0.950 . S
H1029 C1034 0.949 . S
H1030 C1036 0.950 . S
H1031 C1037 0.950 . S
H1032 C1038 0.949 . S
C1033 H1028 0.950 . S
C1033 C1035 1.327 . S
C1033 C1039 1.429 . S
C1034 C1026 1.574 . S
C1034 H1029 0.949 . S
C1034 C1040 1.368 . S
C1035 C1019 1.349 . S
C1035 H1027 0.950 . S
C1035 C1033 1.327 . S
C1036 C1024 1.349 . S
C1036 H1030 0.950 . S
C1036 C1037 1.327 . S
C1037 H1031 0.950 . S
C1037 C1036 1.327 . S
C1037 C1041 1.429 . S
C1038 C1021 1.574 . S
C1038 H1032 0.949 . S
C1038 C1042 1.368 . S
C1039 C1020 1.429 . S
C1039 C1033 1.429 . S
C1039 C1040 1.523 . S
C1040 C1021 1.368 . S
C1040 C1034 1.368 . S
C1040 C1039 1.523 . S
C1041 C1025 1.429 . S
C1041 C1037 1.429 . S
C1041 C1042 1.523 . S
C1042 C1026 1.368 . S
C1042 C1038 1.368 . S
C1042 C1041 1.523 . S
H1043 C1018 0.950 . S
H1044 C1020 0.950 . S
H1045 C1021 0.949 . S
H1046 C1023 0.950 . S
H1047 C1025 0.950 . S
C1048 C1049 1.349 . S
C1048 C1050 1.327 . S
C1048 H1073 0.950 . S
C1049 C1048 1.349 . S
C1049 C1065 1.349 . S
C1050 C1048 1.327 . S
C1050 C1069 1.429 . S
C1050 H1074 0.950 . S
C1051 C1068 1.574 . S
C1051 C1070 1.368 . S
C1051 H1075 0.949 . S
H1052 C1056 0.949 . S
C1053 C1054 1.349 . S
C1053 C1055 1.327 . S
C1053 H1076 0.950 . S
C1054 C1053 1.349 . S
C1054 C1066 1.349 . S
C1055 C1053 1.327 . S
C1055 C1071 1.429 . S
C1055 H1077 0.950 . S
C1056 H1052 0.949 . S
C1056 C1064 1.574 . S
C1056 C1072 1.368 . S
H1057 C1065 0.950 . S
H1058 C1063 0.950 . S
H1059 C1064 0.949 . S
H1060 C1066 0.950 . S
H1061 C1067 0.950 . S
H1062 C1068 0.949 . S
C1063 H1058 0.950 . S
C1063 C1065 1.327 . S
C1063 C1069 1.429 . S
C1064 C1056 1.574 . S
C1064 H1059 0.949 . S
C1064 C1070 1.368 . S
C1065 C1049 1.349 . S
C1065 H1057 0.950 . S
C1065 C1063 1.327 . S
C1066 C1054 1.349 . S
C1066 H1060 0.950 . S
C1066 C1067 1.327 . S
C1067 H1061 0.950 . S
C1067 C1066 1.327 . S
C1067 C1071 1.429 . S
C1068 C1051 1.574 . S
C1068 H1062 0.949 . S
C1068 C1072 1.368 . S
C1069 C1050 1.429 . S
C1069 C1063 1.429 . S
C1069 C1070 1.523 . S
C1070 C1051 1.368 . S
C1070 C1064 1.368 . S
C1070 C1069 1.523 . S
C1071 C1055 1.429 . S
C1071 C1067 1.429 . S
C1071 C1072 1.523 . S
C1072 C1056 1.368 . S
C1072 C1068 1.368 . S
C1072 C1071 1.523 . S
H1073 C1048 0.950 . S
H1074 C1050 0.950 . S
H1075 C1051 0.949 . S
H1076 C1053 0.950 . S
H1077 C1055 0.950 . S
C1078 C1079 1.349 . S
C1078 C1080 1.327 . S
C1078 H1103 0.950 . S
C1079 C1078 1.349 . S
C1079 C1095 1.349 . S
C1080 C1078 1.327 . S
C1080 C1099 1.429 . S
C1080 H1104 0.950 . S
C1081 C1098 1.574 . S
C1081 C1100 1.368 . S
C1081 H1105 0.949 . S
H1082 C1086 0.949 . S
C1083 C1084 1.349 . S
C1083 C1085 1.327 . S
C1083 H1106 0.950 . S
C1084 C1083 1.349 . S
C1084 C1096 1.349 . S
C1085 C1083 1.327 . S
C1085 C1101 1.429 . S
C1085 H1107 0.950 . S
C1086 H1082 0.949 . S
C1086 C1094 1.574 . S
C1086 C1102 1.368 . S
H1087 C1095 0.950 . S
H1088 C1093 0.950 . S
H1089 C1094 0.949 . S
H1090 C1096 0.950 . S
H1091 C1097 0.950 . S
H1092 C1098 0.949 . S
C1093 H1088 0.950 . S
C1093 C1095 1.327 . S
C1093 C1099 1.429 . S
C1094 C1086 1.574 . S
C1094 H1089 0.949 . S
C1094 C1100 1.368 . S
C1095 C1079 1.349 . S
C1095 H1087 0.950 . S
C1095 C1093 1.327 . S
C1096 C1084 1.349 . S
C1096 H1090 0.950 . S
C1096 C1097 1.327 . S
C1097 H1091 0.950 . S
C1097 C1096 1.327 . S
C1097 C1101 1.429 . S
C1098 C1081 1.574 . S
C1098 H1092 0.949 . S
C1098 C1102 1.368 . S
C1099 C1080 1.429 . S
C1099 C1093 1.429 . S
C1099 C1100 1.523 . S
C1100 C1081 1.368 . S
C1100 C1094 1.368 . S
C1100 C1099 1.523 . S
C1101 C1085 1.429 . S
C1101 C1097 1.429 . S
C1101 C1102 1.523 . S
C1102 C1086 1.368 . S
C1102 C1098 1.368 . S
C1102 C1101 1.523 . S
H1103 C1078 0.950 . S
H1104 C1080 0.950 . S
H1105 C1081 0.949 . S
H1106 C1083 0.950 . S
H1107 C1085 0.950 . S
C1108 C1109 1.349 . S
C1108 C1110 1.327 . S
C1108 H1133 0.950 . S
C1109 C1108 1.349 . S
C1109 C1125 1.349 . S
C1110 C1108 1.327 . S
C1110 C1129 1.429 . S
C1110 H1134 0.950 . S
C1111 C1128 1.574 . S
C1111 C1130 1.368 . S
C1111 H1135 0.949 . S
H1112 C1116 0.949 . S
C1113 C1114 1.349 . S
C1113 C1115 1.327 . S
C1113 H1136 0.950 . S
C1114 C1113 1.349 . S
C1114 C1126 1.349 . S
C1115 C1113 1.327 . S
C1115 C1131 1.429 . S
C1115 H1137 0.950 . S
C1116 H1112 0.949 . S
C1116 C1124 1.574 . S
C1116 C1132 1.368 . S
H1117 C1125 0.950 . S
H1118 C1123 0.950 . S
H1119 C1124 0.949 . S
H1120 C1126 0.950 . S
H1121 C1127 0.950 . S
H1122 C1128 0.949 . S
C1123 H1118 0.950 . S
C1123 C1125 1.327 . S
C1123 C1129 1.429 . S
C1124 C1116 1.574 . S
C1124 H1119 0.949 . S
C1124 C1130 1.368 . S
C1125 C1109 1.349 . S
C1125 H1117 0.950 . S
C1125 C1123 1.327 . S
C1126 C1114 1.349 . S
C1126 H1120 0.950 . S
C1126 C1127 1.327 . S
C1127 H1121 0.950 . S
C1127 C1126 1.327 . S
C1127 C1131 1.429 . S
C1128 C1111 1.574 . S
C1128 H1122 0.949 . S
C1128 C1132 1.368 . S
C1129 C1110 1.429 . S
C1129 C1123 1.429 . S
C1129 C1130 1.523 . S
C1130 C1111 1.368 . S
C1130 C1124 1.368 . S
C1130 C1129 1.523 . S
C1131 C1115 1.429 . S
C1131 C1127 1.429 . S
C1131 C1132 1.523 . S
C1132 C1116 1.368 . S
C1132 C1128 1.368 . S
C1132 C1131 1.523 . S
H1133 C1108 0.950 . S
H1134 C1110 0.950 . S
H1135 C1111 0.949 . S
H1136 C1113 0.950 . S
H1137 C1115 0.950 . S
C1138 C1139 1.349 . S
C1138 C1140 1.327 . S
C1138 H1163 0.950 . S
C1139 C1138 1.349 . S
C1139 C1155 1.349 . S
C1140 C1138 1.327 . S
C1140 C1159 1.429 . S
C1140 H1164 0.950 . S
C1141 C1158 1.574 . S
C1141 C1160 1.368 . S
C1141 H1165 0.949 . S
H1142 C1146 0.949 . S
C1143 C1144 1.349 . S
C1143 C1145 1.327 . S
C1143 H1166 0.950 . S
C1144 C1143 1.349 . S
C1144 C1156 1.349 . S
C1145 C1143 1.327 . S
C1145 C1161 1.429 . S
C1145 H1167 0.950 . S
C1146 H1142 0.949 . S
C1146 C1154 1.574 . S
C1146 C1162 1.368 . S
H1147 C1155 0.950 . S
H1148 C1153 0.950 . S
H1149 C1154 0.949 . S
H1150 C1156 0.950 . S
H1151 C1157 0.950 . S
H1152 C1158 0.949 . S
C1153 H1148 0.950 . S
C1153 C1155 1.327 . S
C1153 C1159 1.429 . S
C1154 C1146 1.574 . S
C1154 H1149 0.949 . S
C1154 C1160 1.368 . S
C1155 C1139 1.349 . S
C1155 H1147 0.950 . S
C1155 C1153 1.327 . S
C1156 C1144 1.349 . S
C1156 H1150 0.950 . S
C1156 C1157 1.327 . S
C1157 H1151 0.950 . S
C1157 C1156 1.327 . S
C1157 C1161 1.429 . S
C1158 C1141 1.574 . S
C1158 H1152 0.949 . S
C1158 C1162 1.368 . S
C1159 C1140 1.429 . S
C1159 C1153 1.429 . S
C1159 C1160 1.523 . S
C1160 C1141 1.368 . S
C1160 C1154 1.368 . S
C1160 C1159 1.523 . S
C1161 C1145 1.429 . S
C1161 C1157 1.429 . S
C1161 C1162 1.523 . S
C1162 C1146 1.368 . S
C1162 C1158 1.368 . S
C1162 C1161 1.523 . S
H1163 C1138 0.950 . S
H1164 C1140 0.950 . S
H1165 C1141 0.949 . S
H1166 C1143 0.950 . S
H1167 C1145 0.950 . S
C1168 C1169 1.349 . S
C1168 C1170 1.327 . S
C1168 H1193 0.950 . S
C1169 C1168 1.349 . S
C1169 C1185 1.349 . S
C1170 C1168 1.327 . S
C1170 C1189 1.429 . S
C1170 H1194 0.950 . S
C1171 C1188 1.574 . S
C1171 C1190 1.368 . S
C1171 H1195 0.949 . S
H1172 C1176 0.949 . S
C1173 C1174 1.349 . S
C1173 C1175 1.327 . S
C1173 H1196 0.950 . S
C1174 C1173 1.349 . S
C1174 C1186 1.349 . S
C1175 C1173 1.327 . S
C1175 C1191 1.429 . S
C1175 H1197 0.950 . S
C1176 H1172 0.949 . S
C1176 C1184 1.574 . S
C1176 C1192 1.368 . S
H1177 C1185 0.950 . S
H1178 C1183 0.950 . S
H1179 C1184 0.949 . S
H1180 C1186 0.950 . S
H1181 C1187 0.950 . S
H1182 C1188 0.949 . S
C1183 H1178 0.950 . S
C1183 C1185 1.327 . S
C1183 C1189 1.429 . S
C1184 C1176 1.574 . S
C1184 H1179 0.949 . S
C1184 C1190 1.368 . S
C1185 C1169 1.349 . S
C1185 H1177 0.950 . S
C1185 C1183 1.327 . S
C1186 C1174 1.349 . S
C1186 H1180 0.950 . S
C1186 C1187 1.327 . S
C1187 H1181 0.950 . S
C1187 C1186 1.327 . S
C1187 C1191 1.429 . S
C1188 C1171 1.574 . S
C1188 H1182 0.949 . S
C1188 C1192 1.368 . S
C1189 C1170 1.429 . S
C1189 C1183 1.429 . S
C1189 C1190 1.523 . S
C1190 C1171 1.368 . S
C1190 C1184 1.368 . S
C1190 C1189 1.523 . S
C1191 C1175 1.429 . S
C1191 C1187 1.429 . S
C1191 C1192 1.523 . S
C1192 C1176 1.368 . S
C1192 C1188 1.368 . S
C1192 C1191 1.523 . S
H1193 C1168 0.950 . S
H1194 C1170 0.950 . S
H1195 C1171 0.949 . S
H1196 C1173 0.950 . S
H1197 C1175 0.950 . S
C1198 C1199 1.349 . S
C1198 C1200 1.327 . S
C1198 H1223 0.950 . S
C1199 C1198 1.349 . S
C1199 C1215 1.349 . S
C1200 C1198 1.327 . S
C1200 C1219 1.429 . S
C1200 H1224 0.950 . S
C1201 C1218 1.574 . S
C1201 C1220 1.368 . S
C1201 H1225 0.949 . S
H1202 C1206 0.949 . S
C1203 C1204 1.349 . S
C1203 C1205 1.327 . S
C1203 H1226 0.950 . S
C1204 C1203 1.349 . S
C1204 C1216 1.349 . S
C1205 C1203 1.327 . S
C1205 C1221 1.429 . S
C1205 H1227 0.950 . S
C1206 H1202 0.949 . S
C1206 C1214 1.574 . S
C1206 C1222 1.368 . S
H1207 C1215 0.950 . S
H1208 C1213 0.950 . S
H1209 C1214 0.949 . S
H1210 C1216 0.950 . S
H1211 C1217 0.950 . S
H1212 C1218 0.949 . S
C1213 H1208 0.950 . S
C1213 C1215 1.327 . S
C1213 C1219 1.429 . S
C1214 C1206 1.574 . S
C1214 H1209 0.949 . S
C1214 C1220 1.368 . S
C1215 C1199 1.349 . S
C1215 H1207 0.950 . S
C1215 C1213 1.327 . S
C1216 C1204 1.349 . S
C1216 H1210 0.950 . S
C1216 C1217 1.327 . S
C1217 H1211 0.950 . S
C1217 C1216 1.327 . S
C1217 C1221 1.429 . S
C1218 C1201 1.574 . S
C1218 H1212 0.949 . S
C1218 C1222 1.368 . S
C1219 C1200 1.429 . S
C1219 C1213 1.429 . S
C1219 C1220 1.523 . S
C1220 C1201 1.368 . S
C1220 C1214 1.368 . S
C1220 C1219 1.523 . S
C1221 C1205 1.429 . S
C1221 C1217 1.429 . S
C1221 C1222 1.523 . S
C1222 C1206 1.368 . S
C1222 C1218 1.368 . S
C1222 C1221 1.523 . S
H1223 C1198 0.950 . S
H1224 C1200 0.950 . S
H1225 C1201 0.949 . S
H1226 C1203 0.950 . S
H1227 C1205 0.950 . S
C1228 C1229 1.349 . S
C1228 C1230 1.327 . S
C1228 H1253 0.950 . S
C1229 C1228 1.349 . S
C1229 C1245 1.349 . S
C1230 C1228 1.327 . S
C1230 C1249 1.429 . S
C1230 H1254 0.950 . S
C1231 C1248 1.574 . S
C1231 C1250 1.368 . S
C1231 H1255 0.949 . S
H1232 C1236 0.949 . S
C1233 C1234 1.349 . S
C1233 C1235 1.327 . S
C1233 H1256 0.950 . S
C1234 C1233 1.349 . S
C1234 C1246 1.349 . S
C1235 C1233 1.327 . S
C1235 C1251 1.429 . S
C1235 H1257 0.950 . S
C1236 H1232 0.949 . S
C1236 C1244 1.574 . S
C1236 C1252 1.368 . S
H1237 C1245 0.950 . S
H1238 C1243 0.950 . S
H1239 C1244 0.949 . S
H1240 C1246 0.950 . S
H1241 C1247 0.950 . S
H1242 C1248 0.949 . S
C1243 H1238 0.950 . S
C1243 C1245 1.327 . S
C1243 C1249 1.429 . S
C1244 C1236 1.574 . S
C1244 H1239 0.949 . S
C1244 C1250 1.368 . S
C1245 C1229 1.349 . S
C1245 H1237 0.950 . S
C1245 C1243 1.327 . S
C1246 C1234 1.349 . S
C1246 H1240 0.950 . S
C1246 C1247 1.327 . S
C1247 H1241 0.950 . S
C1247 C1246 1.327 . S
C1247 C1251 1.429 . S
C1248 C1231 1.574 . S
C1248 H1242 0.949 . S
C1248 C1252 1.368 . S
C1249 C1230 1.429 . S
C1249 C1243 1.429 . S
C1249 C1250 1.523 . S
C1250 C1231 1.368 . S
C1250 C1244 1.368 . S
C1250 C1249 1.523 . S
C1251 C1235 1.429 . S
C1251 C1247 1.429 . S
C1251 C1252 1.523 . S
C1252 C1236 1.368 . S
C1252 C1248 1.368 . S
C1252 C1251 1.523 . S
H1253 C1228 0.950 . S
H1254 C1230 0.950 . S
H1255 C1231 0.949 . S
H1256 C1233 0.950 . S
H1257 C1235 0.950 . S
C1258 C1259 1.349 . S
C1258 C1260 1.327 . S
C1258 H1283 0.950 . S
C1259 C1258 1.349 . S
C1259 C1275 1.349 . S
C1260 C1258 1.327 . S
C1260 C1279 1.429 . S
C1260 H1284 0.950 . S
C1261 C1278 1.574 . S
C1261 C1280 1.368 . S
C1261 H1285 0.949 . S
H1262 C1266 0.949 . S
C1263 C1264 1.349 . S
C1263 C1265 1.327 . S
C1263 H1286 0.950 . S
C1264 C1263 1.349 . S
C1264 C1276 1.349 . S
C1265 C1263 1.327 . S
C1265 C1281 1.429 . S
C1265 H1287 0.950 . S
C1266 H1262 0.949 . S
C1266 C1274 1.574 . S
C1266 C1282 1.368 . S
H1267 C1275 0.963 . S
H1268 C1273 0.950 . S
H1269 C1274 0.949 . S
H1270 C1276 0.950 . S
H1271 C1277 0.950 . S
H1272 C1278 0.949 . S
C1273 H1268 0.950 . S
C1273 C1275 1.327 . S
C1273 C1279 1.429 . S
C1274 C1266 1.574 . S
C1274 H1269 0.949 . S
C1274 C1280 1.368 . S
C1275 C1259 1.349 . S
C1275 H1267 0.963 . S
C1275 C1273 1.327 . S
C1276 C1264 1.349 . S
C1276 H1270 0.950 . S
C1276 C1277 1.327 . S
C1277 H1271 0.950 . S
C1277 C1276 1.327 . S
C1277 C1281 1.429 . S
C1278 C1261 1.574 . S
C1278 H1272 0.949 . S
C1278 C1282 1.368 . S
C1279 C1260 1.429 . S
C1279 C1273 1.429 . S
C1279 C1280 1.523 . S
C1280 C1261 1.368 . S
C1280 C1274 1.368 . S
C1280 C1279 1.523 . S
C1281 C1265 1.429 . S
C1281 C1277 1.429 . S
C1281 C1282 1.523 . S
C1282 C1266 1.368 . S
C1282 C1278 1.368 . S
C1282 C1281 1.523 . S
H1283 C1258 0.950 . S
H1284 C1260 0.950 . S
H1285 C1261 0.949 . S
H1286 C1263 0.950 . S
H1287 C1265 0.950 . S
C1288 C1289 1.349 . S
C1288 C1290 1.327 . S
C1288 H1313 0.950 . S
C1289 C1288 1.349 . S
C1289 C1305 1.349 . S
C1290 C1288 1.327 . S
C1290 C1309 1.429 . S
C1290 H1314 0.950 . S
C1291 C1308 1.574 . S
C1291 C1310 1.368 . S
C1291 H1315 0.949 . S
H1292 C1296 0.949 . S
C1293 C1294 1.349 . S
C1293 C1295 1.327 . S
C1293 H1316 0.950 . S
C1294 C1293 1.349 . S
C1294 C1306 1.349 . S
C1295 C1293 1.327 . S
C1295 C1311 1.429 . S
C1295 H1317 0.950 . S
C1296 H1292 0.949 . S
C1296 C1304 1.574 . S
C1296 C1312 1.368 . S
H1297 C1305 0.950 . S
H1298 C1303 0.950 . S
H1299 C1304 0.949 . S
H1300 C1306 0.950 . S
H1301 C1307 0.950 . S
H1302 C1308 0.949 . S
C1303 H1298 0.950 . S
C1303 C1305 1.327 . S
C1303 C1309 1.429 . S
C1304 C1296 1.574 . S
C1304 H1299 0.949 . S
C1304 C1310 1.368 . S
C1305 C1289 1.349 . S
C1305 H1297 0.950 . S
C1305 C1303 1.327 . S
C1306 C1294 1.349 . S
C1306 H1300 0.950 . S
C1306 C1307 1.327 . S
C1307 H1301 0.950 . S
C1307 C1306 1.327 . S
C1307 C1311 1.429 . S
C1308 C1291 1.574 . S
C1308 H1302 0.949 . S
C1308 C1312 1.368 . S
C1309 C1290 1.429 . S
C1309 C1303 1.429 . S
C1309 C1310 1.523 . S
C1310 C1291 1.368 . S
C1310 C1304 1.368 . S
C1310 C1309 1.523 . S
C1311 C1295 1.429 . S
C1311 C1307 1.429 . S
C1311 C1312 1.523 . S
C1312 C1296 1.368 . S
C1312 C1308 1.368 . S
C1312 C1311 1.523 . S
H1313 C1288 0.950 . S
H1314 C1290 0.950 . S
H1315 C1291 0.949 . S
H1316 C1293 0.950 . S
H1317 C1295 0.950 . S
C1318 C1319 1.349 . S
C1318 C1320 1.327 . S
C1318 H1343 0.950 . S
C1319 C1318 1.349 . S
C1319 C1335 1.349 . S
C1320 C1318 1.327 . S
C1320 C1339 1.429 . S
C1320 H1344 0.950 . S
C1321 C1338 1.574 . S
C1321 C1340 1.368 . S
C1321 H1345 0.949 . S
H1322 C1326 0.949 . S
C1323 C1324 1.349 . S
C1323 C1325 1.327 . S
C1323 H1346 0.950 . S
C1324 C1323 1.349 . S
C1324 C1336 1.349 . S
C1325 C1323 1.327 . S
C1325 C1341 1.429 . S
C1325 H1347 0.950 . S
C1326 H1322 0.949 . S
C1326 C1334 1.574 . S
C1326 C1342 1.368 . S
H1327 C1335 0.950 . S
H1328 C1333 0.950 . S
H1329 C1334 0.949 . S
H1330 C1336 0.950 . S
H1331 C1337 0.950 . S
H1332 C1338 0.949 . S
C1333 H1328 0.950 . S
C1333 C1335 1.327 . S
C1333 C1339 1.429 . S
C1334 C1326 1.574 . S
C1334 H1329 0.949 . S
C1334 C1340 1.368 . S
C1335 C1319 1.349 . S
C1335 H1327 0.950 . S
C1335 C1333 1.327 . S
C1336 C1324 1.349 . S
C1336 H1330 0.950 . S
C1336 C1337 1.327 . S
C1337 H1331 0.950 . S
C1337 C1336 1.327 . S
C1337 C1341 1.429 . S
C1338 C1321 1.574 . S
C1338 H1332 0.949 . S
C1338 C1342 1.368 . S
C1339 C1320 1.429 . S
C1339 C1333 1.429 . S
C1339 C1340 1.523 . S
C1340 C1321 1.368 . S
C1340 C1334 1.368 . S
C1340 C1339 1.523 . S
C1341 C1325 1.429 . S
C1341 C1337 1.429 . S
C1341 C1342 1.523 . S
C1342 C1326 1.368 . S
C1342 C1338 1.368 . S
C1342 C1341 1.523 . S
H1343 C1318 0.950 . S
H1344 C1320 0.950 . S
H1345 C1321 0.949 . S
H1346 C1323 0.950 . S
H1347 C1325 0.950 . S
C1348 C1349 1.349 . S
C1348 C1350 1.327 . S
C1348 H1373 0.950 . S
C1349 C1348 1.349 . S
C1349 C1365 1.349 . S
C1350 C1348 1.327 . S
C1350 C1369 1.429 . S
C1350 H1374 0.950 . S
C1351 C1368 1.574 . S
C1351 C1370 1.368 . S
C1351 H1375 0.949 . S
H1352 C1356 0.949 . S
C1353 C1354 1.349 . S
C1353 C1355 1.327 . S
C1353 H1376 0.950 . S
C1354 C1353 1.349 . S
C1354 C1366 1.349 . S
C1355 C1353 1.327 . S
C1355 C1371 1.429 . S
C1355 H1377 0.950 . S
C1356 H1352 0.949 . S
C1356 C1364 1.574 . S
C1356 C1372 1.368 . S
H1357 C1365 0.950 . S
H1358 C1363 0.950 . S
H1359 C1364 0.949 . S
H1360 C1366 0.950 . S
H1361 C1367 0.950 . S
H1362 C1368 0.949 . S
C1363 H1358 0.950 . S
C1363 C1365 1.327 . S
C1363 C1369 1.429 . S
C1364 C1356 1.574 . S
C1364 H1359 0.949 . S
C1364 C1370 1.368 . S
C1365 C1349 1.349 . S
C1365 H1357 0.950 . S
C1365 C1363 1.327 . S
C1366 C1354 1.349 . S
C1366 H1360 0.950 . S
C1366 C1367 1.327 . S
C1367 H1361 0.950 . S
C1367 C1366 1.327 . S
C1367 C1371 1.429 . S
C1368 C1351 1.574 . S
C1368 H1362 0.949 . S
C1368 C1372 1.368 . S
C1369 C1350 1.429 . S
C1369 C1363 1.429 . S
C1369 C1370 1.523 . S
C1370 C1351 1.368 . S
C1370 C1364 1.368 . S
C1370 C1369 1.523 . S
C1371 C1355 1.429 . S
C1371 C1367 1.429 . S
C1371 C1372 1.523 . S
C1372 C1356 1.368 . S
C1372 C1368 1.368 . S
C1372 C1371 1.523 . S
H1373 C1348 0.950 . S
H1374 C1350 0.950 . S
H1375 C1351 0.949 . S
H1376 C1353 0.950 . S
H1377 C1355 0.950 . S
C1378 C1379 1.349 . S
C1378 C1380 1.327 . S
C1378 H1403 0.950 . S
C1379 C1378 1.349 . S
C1379 C1395 1.349 . S
C1380 C1378 1.327 . S
C1380 C1399 1.429 . S
C1380 H1404 0.950 . S
C1381 C1398 1.574 . S
C1381 C1400 1.368 . S
C1381 H1405 0.949 . S
H1382 C1386 0.949 . S
C1383 C1384 1.349 . S
C1383 C1385 1.327 . S
C1383 H1406 0.950 . S
C1384 C1383 1.349 . S
C1384 C1396 1.349 . S
C1385 C1383 1.327 . S
C1385 C1401 1.429 . S
C1385 H1407 0.950 . S
C1386 H1382 0.949 . S
C1386 C1394 1.574 . S
C1386 C1402 1.368 . S
H1387 C1395 0.950 . S
H1388 C1393 0.950 . S
H1389 C1394 0.949 . S
H1390 C1396 0.950 . S
H1391 C1397 0.950 . S
H1392 C1398 0.949 . S
C1393 H1388 0.950 . S
C1393 C1395 1.327 . S
C1393 C1399 1.429 . S
C1394 C1386 1.574 . S
C1394 H1389 0.949 . S
C1394 C1400 1.368 . S
C1395 C1379 1.349 . S
C1395 H1387 0.950 . S
C1395 C1393 1.327 . S
C1396 C1384 1.349 . S
C1396 H1390 0.950 . S
C1396 C1397 1.327 . S
C1397 H1391 0.950 . S
C1397 C1396 1.327 . S
C1397 C1401 1.429 . S
C1398 C1381 1.574 . S
C1398 H1392 0.949 . S
C1398 C1402 1.368 . S
C1399 C1380 1.429 . S
C1399 C1393 1.429 . S
C1399 C1400 1.523 . S
C1400 C1381 1.368 . S
C1400 C1394 1.368 . S
C1400 C1399 1.523 . S
C1401 C1385 1.429 . S
C1401 C1397 1.429 . S
C1401 C1402 1.523 . S
C1402 C1386 1.368 . S
C1402 C1398 1.368 . S
C1402 C1401 1.523 . S
H1403 C1378 0.950 . S
H1404 C1380 0.950 . S
H1405 C1381 0.949 . S
H1406 C1383 0.950 . S
H1407 C1385 0.950 . S
C1408 C1409 1.349 . S
C1408 C1410 1.327 . S
C1408 H1433 0.950 . S
C1409 C1408 1.349 . S
C1409 C1425 1.349 . S
C1410 C1408 1.327 . S
C1410 C1429 1.429 . S
C1410 H1434 0.950 . S
C1411 C1428 1.574 . S
C1411 C1430 1.368 . S
C1411 H1435 0.949 . S
H1412 C1416 0.949 . S
C1413 C1414 1.349 . S
C1413 C1415 1.327 . S
C1413 H1436 0.950 . S
C1414 C1413 1.349 . S
C1414 C1426 1.349 . S
C1415 C1413 1.327 . S
C1415 C1431 1.429 . S
C1415 H1437 0.950 . S
C1416 H1412 0.949 . S
C1416 C1424 1.574 . S
C1416 C1432 1.368 . S
H1417 C1425 0.950 . S
H1418 C1423 0.950 . S
H1419 C1424 0.949 . S
H1420 C1426 0.950 . S
H1421 C1427 0.950 . S
H1422 C1428 0.949 . S
C1423 H1418 0.950 . S
C1423 C1425 1.327 . S
C1423 C1429 1.429 . S
C1424 C1416 1.574 . S
C1424 H1419 0.949 . S
C1424 C1430 1.368 . S
C1425 C1409 1.349 . S
C1425 H1417 0.950 . S
C1425 C1423 1.327 . S
C1426 C1414 1.349 . S
C1426 H1420 0.950 . S
C1426 C1427 1.327 . S
C1427 H1421 0.950 . S
C1427 C1426 1.327 . S
C1427 C1431 1.429 . S
C1428 C1411 1.574 . S
C1428 H1422 0.949 . S
C1428 C1432 1.368 . S
C1429 C1410 1.429 . S
C1429 C1423 1.429 . S
C1429 C1430 1.523 . S
C1430 C1411 1.368 . S
C1430 C1424 1.368 . S
C1430 C1429 1.523 . S
C1431 C1415 1.429 . S
C1431 C1427 1.429 . S
C1431 C1432 1.523 . S
C1432 C1416 1.368 . S
C1432 C1428 1.368 . S
C1432 C1431 1.523 . S
H1433 C1408 0.950 . S
H1434 C1410 0.950 . S
H1435 C1411 0.949 . S
H1436 C1413 0.950 . S
H1437 C1415 0.950 . S
C1438 C1439 1.349 1_455 S
C1438 C1440 1.327 . S
C1438 H1463 0.950 . S
C1439 C1438 1.349 1_655 S
C1439 C1455 1.349 . S
C1440 C1438 1.327 . S
C1440 C1459 1.429 . S
C1440 H1464 0.950 . S
C1441 C1458 1.574 1_565 S
C1441 C1460 1.368 1_655 S
C1441 H1465 0.949 . S
H1442 C1446 0.949 . S
C1443 C1444 1.349 . S
C1443 C1445 1.327 . S
C1443 H1466 0.950 . S
C1444 C1443 1.349 . S
C1444 C1456 1.349 . S
C1445 C1443 1.327 . S
C1445 C1461 1.429 . S
C1445 H1467 0.950 1_455 S
C1446 H1442 0.949 . S
C1446 C1454 1.574 1_545 S
C1446 C1462 1.368 . S
H1447 C1455 0.950 . S
H1448 C1453 0.950 . S
H1449 C1454 0.949 . S
H1450 C1456 0.950 . S
H1451 C1457 0.950 . S
H1452 C1458 0.951 . S
C1453 H1448 0.950 . S
C1453 C1455 1.327 . S
C1453 C1459 1.429 1_655 S
C1454 C1446 1.574 1_565 S
C1454 H1449 0.949 . S
C1454 C1460 1.368 . S
C1455 C1439 1.349 . S
C1455 H1447 0.950 . S
C1455 C1453 1.327 . S
C1456 C1444 1.349 . S
C1456 H1450 0.950 . S
C1456 C1457 1.327 . S
C1457 H1451 0.950 . S
C1457 C1456 1.327 . S
C1457 C1461 1.429 . S
C1458 C1441 1.574 1_545 S
C1458 H1452 0.951 . S
C1458 C1462 1.365 1_655 S
C1459 C1440 1.429 . S
C1459 C1453 1.429 1_455 S
C1459 C1460 1.523 . S
C1460 C1441 1.368 1_455 S
C1460 C1454 1.368 . S
C1460 C1459 1.523 . S
C1461 C1445 1.429 . S
C1461 C1457 1.429 . S
C1461 C1462 1.523 . S
C1462 C1446 1.368 . S
C1462 C1458 1.365 1_455 S
C1462 C1461 1.523 . S
H1463 C1438 0.950 . S
H1464 C1440 0.950 . S
H1465 C1441 0.949 . S
H1466 C1443 0.950 . S
H1467 C1445 0.950 1_655 S
C1468 C1469 1.349 . S
C1468 C1470 1.327 . S
C1468 H1493 0.950 . S
C1469 C1468 1.349 . S
C1469 C1485 1.349 . S
C1470 C1468 1.327 . S
C1470 C1489 1.429 . S
C1470 H1494 0.950 . S
C1471 C1488 1.574 . S
C1471 C1490 1.368 . S
C1471 H1495 0.949 . S
H1472 C1476 0.949 . S
C1473 C1474 1.349 . S
C1473 C1475 1.327 . S
C1473 H1496 0.950 . S
C1474 C1473 1.349 . S
C1474 C1486 1.349 . S
C1475 C1473 1.327 . S
C1475 C1491 1.429 . S
C1475 H1497 0.950 . S
C1476 H1472 0.949 . S
C1476 C1484 1.574 . S
C1476 C1492 1.368 . S
H1477 C1485 0.950 . S
H1478 C1483 0.950 . S
H1479 C1484 0.949 . S
H1480 C1486 0.950 . S
H1481 C1487 0.950 . S
H1482 C1488 0.949 . S
C1483 H1478 0.950 . S
C1483 C1485 1.327 . S
C1483 C1489 1.429 . S
C1484 C1476 1.574 . S
C1484 H1479 0.949 . S
C1484 C1490 1.368 . S
C1485 C1469 1.349 . S
C1485 H1477 0.950 . S
C1485 C1483 1.327 . S
C1486 C1474 1.349 . S
C1486 H1480 0.950 . S
C1486 C1487 1.327 . S
C1487 H1481 0.950 . S
C1487 C1486 1.327 . S
C1487 C1491 1.429 . S
C1488 C1471 1.574 . S
C1488 H1482 0.949 . S
C1488 C1492 1.368 . S
C1489 C1470 1.429 . S
C1489 C1483 1.429 . S
C1489 C1490 1.523 . S
C1490 C1471 1.368 . S
C1490 C1484 1.368 . S
C1490 C1489 1.523 . S
C1491 C1475 1.429 . S
C1491 C1487 1.429 . S
C1491 C1492 1.523 . S
C1492 C1476 1.368 . S
C1492 C1488 1.368 . S
C1492 C1491 1.523 . S
H1493 C1468 0.950 . S
H1494 C1470 0.950 . S
H1495 C1471 0.949 . S
H1496 C1473 0.950 . S
H1497 C1475 0.950 . S
C1498 C1499 1.349 1_556 S
C1498 C1500 1.327 . S
C1498 H1523 0.950 . S
C1499 C1498 1.349 1_554 S
C1499 C1515 1.349 . S
C1500 C1498 1.327 . S
C1500 C1519 1.429 1_556 S
C1500 H1524 0.950 . S
C1501 C1518 1.574 1_545 S
C1501 C1520 1.368 . S
C1501 H1525 0.949 . S
H1502 C1506 0.949 . S
C1503 C1504 1.349 . S
C1503 C1505 1.327 1_556 S
C1503 H1526 0.950 1_556 S
C1504 C1503 1.349 . S
C1504 C1516 1.349 . S
C1505 C1503 1.327 1_554 S
C1505 C1521 1.429 1_554 S
C1505 H1527 0.950 . S
C1506 H1502 0.949 . S
C1506 C1514 1.574 1_565 S
C1506 C1522 1.368 . S
H1507 C1515 0.950 . S
H1508 C1513 0.950 . S
H1509 C1514 0.949 . S
H1510 C1516 0.950 . S
H1511 C1517 0.950 . S
H1512 C1518 0.949 . S
C1513 H1508 0.950 . S
C1513 C1515 1.327 . S
C1513 C1519 1.429 . S
C1514 C1506 1.574 1_545 S
C1514 H1509 0.949 . S
C1514 C1520 1.368 1_556 S
C1515 C1499 1.349 . S
C1515 H1507 0.950 . S
C1515 C1513 1.327 . S
C1516 C1504 1.349 . S
C1516 H1510 0.950 . S
C1516 C1517 1.327 . S
C1517 H1511 0.950 . S
C1517 C1516 1.327 . S
C1517 C1521 1.429 . S
C1518 C1501 1.574 1_565 S
C1518 H1512 0.949 . S
C1518 C1522 1.368 1_554 S
C1519 C1500 1.429 1_554 S
C1519 C1513 1.429 . S
C1519 C1520 1.523 . S
C1520 C1501 1.368 . S
C1520 C1514 1.368 1_554 S
C1520 C1519 1.523 . S
C1521 C1505 1.429 1_556 S
C1521 C1517 1.429 . S
C1521 C1522 1.523 . S
C1522 C1506 1.368 . S
C1522 C1518 1.368 1_556 S
C1522 C1521 1.523 . S
H1523 C1498 0.950 . S
H1524 C1500 0.950 . S
H1525 C1501 0.949 . S
H1526 C1503 0.950 1_554 S
H1527 C1505 0.950 . S
C1528 C1529 1.349 . S
C1528 C1530 1.327 . S
C1528 H1553 0.950 . S
C1529 C1528 1.349 . S
C1529 C1545 1.349 . S
C1530 C1528 1.327 . S
C1530 C1549 1.429 . S
C1530 H1554 0.950 . S
C1531 C1548 1.574 . S
C1531 C1550 1.368 . S
C1531 H1555 0.949 . S
H1532 C1536 0.949 . S
C1533 C1534 1.349 . S
C1533 C1535 1.327 . S
C1533 H1556 0.950 . S
C1534 C1533 1.349 . S
C1534 C1546 1.349 . S
C1535 C1533 1.327 . S
C1535 C1551 1.429 . S
C1535 H1557 0.950 . S
C1536 H1532 0.949 . S
C1536 C1544 1.574 . S
C1536 C1552 1.368 . S
H1537 C1545 0.950 . S
H1538 C1543 0.950 . S
H1539 C1544 0.949 . S
H1540 C1546 0.950 . S
H1541 C1547 0.950 . S
H1542 C1548 0.949 . S
C1543 H1538 0.950 . S
C1543 C1545 1.327 . S
C1543 C1549 1.429 . S
C1544 C1536 1.574 . S
C1544 H1539 0.949 . S
C1544 C1550 1.368 . S
C1545 C1529 1.349 . S
C1545 H1537 0.950 . S
C1545 C1543 1.327 . S
C1546 C1534 1.349 . S
C1546 H1540 0.950 . S
C1546 C1547 1.327 . S
C1547 H1541 0.950 . S
C1547 C1546 1.327 . S
C1547 C1551 1.429 . S
C1548 C1531 1.574 . S
C1548 H1542 0.949 . S
C1548 C1552 1.368 . S
C1549 C1530 1.429 . S
C1549 C1543 1.429 . S
C1549 C1550 1.523 . S
C1550 C1531 1.368 . S
C1550 C1544 1.368 . S
C1550 C1549 1.523 . S
C1551 C1535 1.429 . S
C1551 C1547 1.429 . S
C1551 C1552 1.523 . S
C1552 C1536 1.368 . S
C1552 C1548 1.368 . S
C1552 C1551 1.523 . S
H1553 C1528 0.950 . S
H1554 C1530 0.950 . S
H1555 C1531 0.949 . S
H1556 C1533 0.950 . S
H1557 C1535 0.950 . S
C1558 C1559 1.349 . S
C1558 C1560 1.327 . S
C1558 H1583 0.950 . S
C1559 C1558 1.349 . S
C1559 C1575 1.349 . S
C1560 C1558 1.327 . S
C1560 C1579 1.429 . S
C1560 H1584 0.950 . S
C1561 C1578 1.574 1_565 S
C1561 C1580 1.368 . S
C1561 H1585 0.949 . S
H1562 C1566 0.949 . S
C1563 C1564 1.349 . S
C1563 C1565 1.327 . S
C1563 H1586 0.950 . S
C1564 C1563 1.349 . S
C1564 C1576 1.349 . S
C1565 C1563 1.327 . S
C1565 C1581 1.429 . S
C1565 H1587 0.950 . S
C1566 H1562 0.949 . S
C1566 C1574 1.574 1_545 S
C1566 C1582 1.368 . S
H1567 C1575 0.950 . S
H1568 C1573 0.950 . S
H1569 C1574 0.949 . S
H1570 C1576 0.950 . S
H1571 C1577 0.950 . S
H1572 C1578 0.949 . S
C1573 H1568 0.950 . S
C1573 C1575 1.327 . S
C1573 C1579 1.429 . S
C1574 C1566 1.574 1_565 S
C1574 H1569 0.949 . S
C1574 C1580 1.368 . S
C1575 C1559 1.349 . S
C1575 H1567 0.950 . S
C1575 C1573 1.327 . S
C1576 C1564 1.349 . S
C1576 H1570 0.950 . S
C1576 C1577 1.327 . S
C1577 H1571 0.950 . S
C1577 C1576 1.327 . S
C1577 C1581 1.429 . S
C1578 C1561 1.574 1_545 S
C1578 H1572 0.949 . S
C1578 C1582 1.368 . S
C1579 C1560 1.429 . S
C1579 C1573 1.429 . S
C1579 C1580 1.523 . S
C1580 C1561 1.368 . S
C1580 C1574 1.368 . S
C1580 C1579 1.523 . S
C1581 C1565 1.429 . S
C1581 C1577 1.429 . S
C1581 C1582 1.523 . S
C1582 C1566 1.368 . S
C1582 C1578 1.368 . S
C1582 C1581 1.523 . S
H1583 C1558 0.950 . S
H1584 C1560 0.950 . S
H1585 C1561 0.949 . S
H1586 C1563 0.950 . S
H1587 C1565 0.950 . S
C1588 C1589 1.349 . S
C1588 C1590 1.327 . S
C1588 H1613 0.950 . S
C1589 C1588 1.349 . S
C1589 C1605 1.349 . S
C1590 C1588 1.327 . S
C1590 C1609 1.429 . S
C1590 H1614 0.950 . S
C1591 C1608 1.574 . S
C1591 C1610 1.368 . S
C1591 H1615 0.949 . S
H1592 C1596 0.949 . S
C1593 C1594 1.349 . S
C1593 C1595 1.327 . S
C1593 H1616 0.950 . S
C1594 C1593 1.349 . S
C1594 C1606 1.349 . S
C1595 C1593 1.327 . S
C1595 C1611 1.429 . S
C1595 H1617 0.950 . S
C1596 H1592 0.949 . S
C1596 C1604 1.574 . S
C1596 C1612 1.368 . S
H1597 C1605 0.950 . S
H1598 C1603 0.950 . S
H1599 C1604 0.949 . S
H1600 C1606 0.950 . S
H1601 C1607 0.950 . S
H1602 C1608 0.949 . S
C1603 H1598 0.950 . S
C1603 C1605 1.327 . S
C1603 C1609 1.429 . S
C1604 C1596 1.574 . S
C1604 H1599 0.949 . S
C1604 C1610 1.368 . S
C1605 C1589 1.349 . S
C1605 H1597 0.950 . S
C1605 C1603 1.327 . S
C1606 C1594 1.349 . S
C1606 H1600 0.950 . S
C1606 C1607 1.327 . S
C1607 H1601 0.950 . S
C1607 C1606 1.327 . S
C1607 C1611 1.429 . S
C1608 C1591 1.574 . S
C1608 H1602 0.949 . S
C1608 C1612 1.368 . S
C1609 C1590 1.429 . S
C1609 C1603 1.429 . S
C1609 C1610 1.523 . S
C1610 C1591 1.368 . S
C1610 C1604 1.368 . S
C1610 C1609 1.523 . S
C1611 C1595 1.429 . S
C1611 C1607 1.429 . S
C1611 C1612 1.523 . S
C1612 C1596 1.368 . S
C1612 C1608 1.368 . S
C1612 C1611 1.523 . S
H1613 C1588 0.950 . S
H1614 C1590 0.950 . S
H1615 C1591 0.949 . S
H1616 C1593 0.950 . S
H1617 C1595 0.950 . S
C1618 C1619 1.349 . S
C1618 C1620 1.327 1_556 S
C1618 H1643 0.950 1_556 S
C1619 C1618 1.349 . S
C1619 C1635 1.349 1_655 S
C1620 C1618 1.327 1_554 S
C1620 C1639 1.429 1_654 S
C1620 H1644 0.950 . S
C1621 C1638 1.574 1_545 S
C1621 C1640 1.368 . S
C1621 H1645 0.949 . S
H1622 C1626 0.949 . S
C1623 C1624 1.349 . S
C1623 C1625 1.327 . S
C1623 H1646 0.950 1_554 S
C1624 C1623 1.349 . S
C1624 C1636 1.349 . S
C1625 C1623 1.327 . S
C1625 C1641 1.429 . S
C1625 H1647 0.950 1_554 S
C1626 H1622 0.949 . S
C1626 C1634 1.574 1_565 S
C1626 C1642 1.368 1_655 S
H1627 C1635 0.950 . S
H1628 C1633 0.950 . S
H1629 C1634 0.949 . S
H1630 C1636 0.950 1_655 S
H1631 C1637 0.950 1_655 S
H1632 C1638 0.949 . S
C1633 H1628 0.950 . S
C1633 C1635 1.327 . S
C1633 C1639 1.429 . S
C1634 C1626 1.574 1_545 S
C1634 H1629 0.949 . S
C1634 C1640 1.368 1_654 S
C1635 C1619 1.349 1_455 S
C1635 H1627 0.950 . S
C1635 C1633 1.327 . S
C1636 C1624 1.349 . S
C1636 H1630 0.950 1_455 S
C1636 C1637 1.327 . S
C1637 H1631 0.950 1_455 S
C1637 C1636 1.327 . S
C1637 C1641 1.429 . S
C1638 C1621 1.574 1_565 S
C1638 H1632 0.949 . S
C1638 C1642 1.368 1_556 S
C1639 C1620 1.429 1_456 S
C1639 C1633 1.429 . S
C1639 C1640 1.523 . S
C1640 C1621 1.368 . S
C1640 C1634 1.368 1_456 S
C1640 C1639 1.523 . S
C1641 C1625 1.429 . S
C1641 C1637 1.429 . S
C1641 C1642 1.523 . S
C1642 C1626 1.368 1_455 S
C1642 C1638 1.368 1_554 S
C1642 C1641 1.523 . S
H1643 C1618 0.950 1_554 S
H1644 C1620 0.950 . S
H1645 C1621 0.949 . S
H1646 C1623 0.950 1_556 S
H1647 C1625 0.950 1_556 S
C1648 C1649 1.349 . S
C1648 C1650 1.327 . S
C1648 H1673 0.950 . S
C1649 C1648 1.349 . S
C1649 C1665 1.349 . S
C1650 C1648 1.327 . S
C1650 C1669 1.429 . S
C1650 H1674 0.950 . S
C1651 C1668 1.574 . S
C1651 C1670 1.368 . S
C1651 H1675 0.949 . S
H1652 C1656 0.949 . S
C1653 C1654 1.349 . S
C1653 C1655 1.327 . S
C1653 H1676 0.950 . S
C1654 C1653 1.349 . S
C1654 C1666 1.349 . S
C1655 C1653 1.327 . S
C1655 C1671 1.429 . S
C1655 H1677 0.950 . S
C1656 H1652 0.949 . S
C1656 C1664 1.574 . S
C1656 C1672 1.368 . S
H1657 C1665 0.950 . S
H1658 C1663 0.950 . S
H1659 C1664 0.949 . S
H1660 C1666 0.950 . S
H1661 C1667 0.950 . S
H1662 C1668 0.949 . S
C1663 H1658 0.950 . S
C1663 C1665 1.327 . S
C1663 C1669 1.429 . S
C1664 C1656 1.574 . S
C1664 H1659 0.949 . S
C1664 C1670 1.368 . S
C1665 C1649 1.349 . S
C1665 H1657 0.950 . S
C1665 C1663 1.327 . S
C1666 C1654 1.349 . S
C1666 H1660 0.950 . S
C1666 C1667 1.327 . S
C1667 H1661 0.950 . S
C1667 C1666 1.327 . S
C1667 C1671 1.429 . S
C1668 C1651 1.574 . S
C1668 H1662 0.949 . S
C1668 C1672 1.368 . S
C1669 C1650 1.429 . S
C1669 C1663 1.429 . S
C1669 C1670 1.523 . S
C1670 C1651 1.368 . S
C1670 C1664 1.368 . S
C1670 C1669 1.523 . S
C1671 C1655 1.429 . S
C1671 C1667 1.429 . S
C1671 C1672 1.523 . S
C1672 C1656 1.368 . S
C1672 C1668 1.368 . S
C1672 C1671 1.523 . S
H1673 C1648 0.950 . S
H1674 C1650 0.950 . S
H1675 C1651 0.949 . S
H1676 C1653 0.950 . S
H1677 C1655 0.950 . S
C1678 C1679 1.349 . S
C1678 C1680 1.327 . S
C1678 H1703 0.950 . S
C1679 C1678 1.349 . S
C1679 C1695 1.349 . S
C1680 C1678 1.327 . S
C1680 C1699 1.429 . S
C1680 H1704 0.950 . S
C1681 C1698 1.574 . S
C1681 C1700 1.368 . S
C1681 H1705 0.949 . S
H1682 C1686 0.949 . S
C1683 C1684 1.349 . S
C1683 C1685 1.327 . S
C1683 H1706 0.950 . S
C1684 C1683 1.349 . S
C1684 C1696 1.349 . S
C1685 C1683 1.327 . S
C1685 C1701 1.429 . S
C1685 H1707 0.950 . S
C1686 H1682 0.949 . S
C1686 C1694 1.574 . S
C1686 C1702 1.368 . S
H1687 C1695 0.950 . S
H1688 C1693 0.950 . S
H1689 C1694 0.949 . S
H1690 C1696 0.950 . S
H1691 C1697 0.950 . S
H1692 C1698 0.949 . S
C1693 H1688 0.950 . S
C1693 C1695 1.327 . S
C1693 C1699 1.429 . S
C1694 C1686 1.574 . S
C1694 H1689 0.949 . S
C1694 C1700 1.368 . S
C1695 C1679 1.349 . S
C1695 H1687 0.950 . S
C1695 C1693 1.327 . S
C1696 C1684 1.349 . S
C1696 H1690 0.950 . S
C1696 C1697 1.327 . S
C1697 H1691 0.950 . S
C1697 C1696 1.327 . S
C1697 C1701 1.429 . S
C1698 C1681 1.574 . S
C1698 H1692 0.949 . S
C1698 C1702 1.368 . S
C1699 C1680 1.429 . S
C1699 C1693 1.429 . S
C1699 C1700 1.523 . S
C1700 C1681 1.368 . S
C1700 C1694 1.368 . S
C1700 C1699 1.523 . S
C1701 C1685 1.429 . S
C1701 C1697 1.429 . S
C1701 C1702 1.523 . S
C1702 C1686 1.368 . S
C1702 C1698 1.368 . S
C1702 C1701 1.523 . S
H1703 C1678 0.950 . S
H1704 C1680 0.950 . S
H1705 C1681 0.949 . S
H1706 C1683 0.950 . S
H1707 C1685 0.950 . S
C1708 C1709 1.349 . S
C1708 C1710 1.327 . S
C1708 H1733 0.950 . S
C1709 C1708 1.349 . S
C1709 C1725 1.349 . S
C1710 C1708 1.327 . S
C1710 C1729 1.429 . S
C1710 H1734 0.950 . S
C1711 C1728 1.574 . S
C1711 C1730 1.368 . S
C1711 H1735 0.949 . S
H1712 C1716 0.949 . S
C1713 C1714 1.349 . S
C1713 C1715 1.327 . S
C1713 H1736 0.950 . S
C1714 C1713 1.349 . S
C1714 C1726 1.349 . S
C1715 C1713 1.327 . S
C1715 C1731 1.429 . S
C1715 H1737 0.950 . S
C1716 H1712 0.949 . S
C1716 C1724 1.574 . S
C1716 C1732 1.368 . S
H1717 C1725 0.950 . S
H1718 C1723 0.950 . S
H1719 C1724 0.949 . S
H1720 C1726 0.950 . S
H1721 C1727 0.950 . S
H1722 C1728 0.949 . S
C1723 H1718 0.950 . S
C1723 C1725 1.327 . S
C1723 C1729 1.429 . S
C1724 C1716 1.574 . S
C1724 H1719 0.949 . S
C1724 C1730 1.368 . S
C1725 C1709 1.349 . S
C1725 H1717 0.950 . S
C1725 C1723 1.327 . S
C1726 C1714 1.349 . S
C1726 H1720 0.950 . S
C1726 C1727 1.327 . S
C1727 H1721 0.950 . S
C1727 C1726 1.327 . S
C1727 C1731 1.429 . S
C1728 C1711 1.574 . S
C1728 H1722 0.949 . S
C1728 C1732 1.368 . S
C1729 C1710 1.429 . S
C1729 C1723 1.429 . S
C1729 C1730 1.523 . S
C1730 C1711 1.368 . S
C1730 C1724 1.368 . S
C1730 C1729 1.523 . S
C1731 C1715 1.429 . S
C1731 C1727 1.429 . S
C1731 C1732 1.523 . S
C1732 C1716 1.368 . S
C1732 C1728 1.368 . S
C1732 C1731 1.523 . S
H1733 C1708 0.950 . S
H1734 C1710 0.950 . S
H1735 C1711 0.949 . S
H1736 C1713 0.950 . S
H1737 C1715 0.950 . S
C1738 C1739 1.349 . S
C1738 C1740 1.327 . S
C1738 H1763 0.950 . S
C1739 C1738 1.349 . S
C1739 C1755 1.349 . S
C1740 C1738 1.327 . S
C1740 C1759 1.429 . S
C1740 H1764 0.950 . S
C1741 C1758 1.574 . S
C1741 C1760 1.368 . S
C1741 H1765 0.949 . S
H1742 C1746 0.949 . S
C1743 C1744 1.349 . S
C1743 C1745 1.327 . S
C1743 H1766 0.950 . S
C1744 C1743 1.349 . S
C1744 C1756 1.349 . S
C1745 C1743 1.327 . S
C1745 C1761 1.429 . S
C1745 H1767 0.950 . S
C1746 H1742 0.949 . S
C1746 C1754 1.574 . S
C1746 C1762 1.368 . S
H1747 C1755 0.950 . S
H1748 C1753 0.950 . S
H1749 C1754 0.949 . S
H1750 C1756 0.950 . S
H1751 C1757 0.950 . S
H1752 C1758 0.949 . S
C1753 H1748 0.950 . S
C1753 C1755 1.327 . S
C1753 C1759 1.429 . S
C1754 C1746 1.574 . S
C1754 H1749 0.949 . S
C1754 C1760 1.368 . S
C1755 C1739 1.349 . S
C1755 H1747 0.950 . S
C1755 C1753 1.327 . S
C1756 C1744 1.349 . S
C1756 H1750 0.950 . S
C1756 C1757 1.327 . S
C1757 H1751 0.950 . S
C1757 C1756 1.327 . S
C1757 C1761 1.429 . S
C1758 C1741 1.574 . S
C1758 H1752 0.949 . S
C1758 C1762 1.368 . S
C1759 C1740 1.429 . S
C1759 C1753 1.429 . S
C1759 C1760 1.523 . S
C1760 C1741 1.368 . S
C1760 C1754 1.368 . S
C1760 C1759 1.523 . S
C1761 C1745 1.429 . S
C1761 C1757 1.429 . S
C1761 C1762 1.523 . S
C1762 C1746 1.368 . S
C1762 C1758 1.368 . S
C1762 C1761 1.523 . S
H1763 C1738 0.950 . S
H1764 C1740 0.950 . S
H1765 C1741 0.949 . S
H1766 C1743 0.950 . S
H1767 C1745 0.950 . S
C1768 C1769 1.349 . S
C1768 C1770 1.327 1_554 S
C1768 H1793 0.950 1_554 S
C1769 C1768 1.349 . S
C1769 C1785 1.349 . S
C1770 C1768 1.327 1_556 S
C1770 C1789 1.429 1_556 S
C1770 H1794 0.950 . S
C1771 C1788 1.574 . S
C1771 C1790 1.368 . S
C1771 H1795 0.949 . S
H1772 C1776 0.949 . S
C1773 C1774 1.349 . S
C1773 C1775 1.327 . S
C1773 H1796 0.949 1_556 S
C1774 C1773 1.349 . S
C1774 C1786 1.349 . S
C1775 C1773 1.327 . S
C1775 C1791 1.429 . S
C1775 H1797 0.950 1_556 S
C1776 H1772 0.949 . S
C1776 C1784 1.574 . S
C1776 C1792 1.368 . S
H1777 C1785 0.950 . S
H1778 C1783 0.950 . S
H1779 C1784 0.949 . S
H1780 C1786 0.950 . S
H1781 C1787 0.950 . S
H1782 C1788 0.949 . S
C1783 H1778 0.950 . S
C1783 C1785 1.327 . S
C1783 C1789 1.429 . S
C1784 C1776 1.574 . S
C1784 H1779 0.949 . S
C1784 C1790 1.368 1_556 S
C1785 C1769 1.349 . S
C1785 H1777 0.950 . S
C1785 C1783 1.327 . S
C1786 C1774 1.349 . S
C1786 H1780 0.950 . S
C1786 C1787 1.327 . S
C1787 H1781 0.950 . S
C1787 C1786 1.327 . S
C1787 C1791 1.429 . S
C1788 C1771 1.574 . S
C1788 H1782 0.949 . S
C1788 C1792 1.368 1_554 S
C1789 C1770 1.429 1_554 S
C1789 C1783 1.429 . S
C1789 C1790 1.523 . S
C1790 C1771 1.368 . S
C1790 C1784 1.368 1_554 S
C1790 C1789 1.523 . S
C1791 C1775 1.429 . S
C1791 C1787 1.429 . S
C1791 C1792 1.523 . S
C1792 C1776 1.368 . S
C1792 C1788 1.368 1_556 S
C1792 C1791 1.523 . S
H1793 C1768 0.950 1_556 S
H1794 C1770 0.950 . S
H1795 C1771 0.949 . S
H1796 C1773 0.949 1_554 S
H1797 C1775 0.950 1_554 S
C1798 C1799 1.349 . S
C1798 C1800 1.327 . S
C1798 H1823 0.950 . S
C1799 C1798 1.349 . S
C1799 C1815 1.349 . S
C1800 C1798 1.327 . S
C1800 C1819 1.429 . S
C1800 H1824 0.950 . S
C1801 C1818 1.574 . S
C1801 C1820 1.368 1_455 S
C1801 H1825 0.949 . S
H1802 C1806 0.949 . S
C1803 C1804 1.349 . S
C1803 C1805 1.327 . S
C1803 H1826 0.950 . S
C1804 C1803 1.349 . S
C1804 C1816 1.349 1_455 S
C1805 C1803 1.327 . S
C1805 C1821 1.429 1_455 S
C1805 H1827 0.950 . S
C1806 H1802 0.949 . S
C1806 C1814 1.574 . S
C1806 C1822 1.368 . S
H1807 C1815 0.950 1_455 S
H1808 C1813 0.950 1_455 S
H1809 C1814 0.949 . S
H1810 C1816 0.950 . S
H1811 C1817 0.950 . S
H1812 C1818 0.949 . S
C1813 H1808 0.950 1_655 S
C1813 C1815 1.327 . S
C1813 C1819 1.429 . S
C1814 C1806 1.574 . S
C1814 H1809 0.949 . S
C1814 C1820 1.368 . S
C1815 C1799 1.349 . S
C1815 H1807 0.950 1_655 S
C1815 C1813 1.327 . S
C1816 C1804 1.349 1_655 S
C1816 H1810 0.950 . S
C1816 C1817 1.327 . S
C1817 H1811 0.950 . S
C1817 C1816 1.327 . S
C1817 C1821 1.429 . S
C1818 C1801 1.574 . S
C1818 H1812 0.949 . S
C1818 C1822 1.368 1_455 S
C1819 C1800 1.429 . S
C1819 C1813 1.429 . S
C1819 C1820 1.523 . S
C1820 C1801 1.368 1_655 S
C1820 C1814 1.368 . S
C1820 C1819 1.523 . S
C1821 C1805 1.429 1_655 S
C1821 C1817 1.429 . S
C1821 C1822 1.523 . S
C1822 C1806 1.368 . S
C1822 C1818 1.368 1_655 S
C1822 C1821 1.523 . S
H1823 C1798 0.950 . S
H1824 C1800 0.950 . S
H1825 C1801 0.949 . S
H1826 C1803 0.950 . S
H1827 C1805 0.950 . S
C1828 C1829 1.349 1_655 S
C1828 C1830 1.327 . S
C1828 H1853 0.950 . S
C1829 C1828 1.349 1_455 S
C1829 C1845 1.341 1_556 S
C1830 C1828 1.327 . S
C1830 C1849 1.429 . S
C1830 H1854 0.950 . S
C1831 C1848 1.583 . S
C1831 C1850 1.368 1_454 S
C1831 H1855 0.949 . S
H1832 C1836 0.949 . S
C1833 C1834 1.349 . S
C1833 C1835 1.327 . S
C1833 H1856 0.950 . S
C1834 C1833 1.349 . S
C1834 C1846 1.349 . S
C1835 C1833 1.327 . S
C1835 C1851 1.429 . S
C1835 H1857 0.950 1_655 S
C1836 H1832 0.949 . S
C1836 C1844 1.574 . S
C1836 C1852 1.368 1_556 S
H1837 C1845 0.956 . S
H1838 C1843 0.950 . S
H1839 C1844 0.949 . S
H1840 C1846 0.950 1_556 S
H1841 C1847 0.979 . S
H1842 C1848 0.978 . S
C1843 H1838 0.950 . S
C1843 C1845 1.329 . S
C1843 C1849 1.429 1_454 S
C1844 C1836 1.574 . S
C1844 H1839 0.949 . S
C1844 C1850 1.368 . S
C1845 C1829 1.341 1_554 S
C1845 H1837 0.956 . S
C1845 C1843 1.329 . S
C1846 C1834 1.349 . S
C1846 H1840 0.950 1_554 S
C1846 C1847 1.319 1_554 S
C1847 H1841 0.979 . S
C1847 C1846 1.319 1_556 S
C1847 C1851 1.409 1_556 S
C1848 C1831 1.583 . S
C1848 H1842 0.978 . S
C1848 C1852 1.332 1_455 S
C1849 C1830 1.429 . S
C1849 C1843 1.429 1_656 S
C1849 C1850 1.523 . S
C1850 C1831 1.368 1_656 S
C1850 C1844 1.368 . S
C1850 C1849 1.523 . S
C1851 C1835 1.429 . S
C1851 C1847 1.409 1_554 S
C1851 C1852 1.523 . S
C1852 C1836 1.368 1_554 S
C1852 C1848 1.332 1_655 S
C1852 C1851 1.523 . S
H1853 C1828 0.950 . S
H1854 C1830 0.950 . S
H1855 C1831 0.949 . S
H1856 C1833 0.950 . S
H1857 C1835 0.950 1_455 S
C1858 C1859 1.349 . S
C1858 C1860 1.327 . S
C1858 H1883 0.950 . S
C1859 C1858 1.349 . S
C1859 C1875 1.349 . S
C1860 C1858 1.327 . S
C1860 C1879 1.429 . S
C1860 H1884 0.950 . S
C1861 C1878 1.574 . S
C1861 C1880 1.368 . S
C1861 H1885 0.949 . S
H1862 C1866 0.949 . S
C1863 C1864 1.349 . S
C1863 C1865 1.327 . S
C1863 H1886 0.950 . S
C1864 C1863 1.349 . S
C1864 C1876 1.349 . S
C1865 C1863 1.327 . S
C1865 C1881 1.429 . S
C1865 H1887 0.950 . S
C1866 H1862 0.949 . S
C1866 C1874 1.574 . S
C1866 C1882 1.368 . S
H1867 C1875 0.950 . S
H1868 C1873 0.950 . S
H1869 C1874 0.949 . S
H1870 C1876 0.950 . S
H1871 C1877 0.950 . S
H1872 C1878 0.949 . S
C1873 H1868 0.950 . S
C1873 C1875 1.327 . S
C1873 C1879 1.429 . S
C1874 C1866 1.574 . S
C1874 H1869 0.949 . S
C1874 C1880 1.368 . S
C1875 C1859 1.349 . S
C1875 H1867 0.950 . S
C1875 C1873 1.327 . S
C1876 C1864 1.349 . S
C1876 H1870 0.950 . S
C1876 C1877 1.327 . S
C1877 H1871 0.950 . S
C1877 C1876 1.327 . S
C1877 C1881 1.429 . S
C1878 C1861 1.574 . S
C1878 H1872 0.949 . S
C1878 C1882 1.368 . S
C1879 C1860 1.429 . S
C1879 C1873 1.429 . S
C1879 C1880 1.523 . S
C1880 C1861 1.368 . S
C1880 C1874 1.368 . S
C1880 C1879 1.523 . S
C1881 C1865 1.429 . S
C1881 C1877 1.429 . S
C1881 C1882 1.523 . S
C1882 C1866 1.368 . S
C1882 C1878 1.368 . S
C1882 C1881 1.523 . S
H1883 C1858 0.950 . S
H1884 C1860 0.950 . S
H1885 C1861 0.949 . S
H1886 C1863 0.950 . S
H1887 C1865 0.950 . S
C1888 C1889 1.349 . S
C1888 C1890 1.327 . S
C1888 H1913 0.950 . S
C1889 C1888 1.349 . S
C1889 C1905 1.349 . S
C1890 C1888 1.327 . S
C1890 C1909 1.429 . S
C1890 H1914 0.950 . S
C1891 C1908 1.574 . S
C1891 C1910 1.368 . S
C1891 H1915 0.949 . S
H1892 C1896 0.949 . S
C1893 C1894 1.349 . S
C1893 C1895 1.327 . S
C1893 H1916 0.950 . S
C1894 C1893 1.349 . S
C1894 C1906 1.349 . S
C1895 C1893 1.327 . S
C1895 C1911 1.429 . S
C1895 H1917 0.950 . S
C1896 H1892 0.949 . S
C1896 C1904 1.574 . S
C1896 C1912 1.368 . S
H1897 C1905 0.950 . S
H1898 C1903 0.950 . S
H1899 C1904 0.949 . S
H1900 C1906 0.950 . S
H1901 C1907 0.950 . S
H1902 C1908 0.949 . S
C1903 H1898 0.950 . S
C1903 C1905 1.327 . S
C1903 C1909 1.429 . S
C1904 C1896 1.574 . S
C1904 H1899 0.949 . S
C1904 C1910 1.368 . S
C1905 C1889 1.349 . S
C1905 H1897 0.950 . S
C1905 C1903 1.327 . S
C1906 C1894 1.349 . S
C1906 H1900 0.950 . S
C1906 C1907 1.327 . S
C1907 H1901 0.950 . S
C1907 C1906 1.327 . S
C1907 C1911 1.429 . S
C1908 C1891 1.574 . S
C1908 H1902 0.949 . S
C1908 C1912 1.368 . S
C1909 C1890 1.429 . S
C1909 C1903 1.429 . S
C1909 C1910 1.523 . S
C1910 C1891 1.368 . S
C1910 C1904 1.368 . S
C1910 C1909 1.523 . S
C1911 C1895 1.429 . S
C1911 C1907 1.429 . S
C1911 C1912 1.523 . S
C1912 C1896 1.368 . S
C1912 C1908 1.368 . S
C1912 C1911 1.523 . S
H1913 C1888 0.950 . S
H1914 C1890 0.950 . S
H1915 C1891 0.949 . S
H1916 C1893 0.950 . S
H1917 C1895 0.950 . S
C1918 C1919 1.349 . S
C1918 C1920 1.327 . S
C1918 H1943 0.950 . S
C1919 C1918 1.349 . S
C1919 C1935 1.349 . S
C1920 C1918 1.327 . S
C1920 C1939 1.429 . S
C1920 H1944 0.950 . S
C1921 C1938 1.574 . S
C1921 C1940 1.368 . S
C1921 H1945 0.949 . S
H1922 C1926 0.949 . S
C1923 C1924 1.349 . S
C1923 C1925 1.327 . S
C1923 H1946 0.950 . S
C1924 C1923 1.349 . S
C1924 C1936 1.349 . S
C1925 C1923 1.327 . S
C1925 C1941 1.429 . S
C1925 H1947 0.950 . S
C1926 H1922 0.949 . S
C1926 C1934 1.574 . S
C1926 C1942 1.368 . S
H1927 C1935 0.950 . S
H1928 C1933 0.950 . S
H1929 C1934 0.949 . S
H1930 C1936 0.950 . S
H1931 C1937 0.950 . S
H1932 C1938 0.949 . S
C1933 H1928 0.950 . S
C1933 C1935 1.327 . S
C1933 C1939 1.429 . S
C1934 C1926 1.574 . S
C1934 H1929 0.949 . S
C1934 C1940 1.368 . S
C1935 C1919 1.349 . S
C1935 H1927 0.950 . S
C1935 C1933 1.327 . S
C1936 C1924 1.349 . S
C1936 H1930 0.950 . S
C1936 C1937 1.327 . S
C1937 H1931 0.950 . S
C1937 C1936 1.327 . S
C1937 C1941 1.429 . S
C1938 C1921 1.574 . S
C1938 H1932 0.949 . S
C1938 C1942 1.368 . S
C1939 C1920 1.429 . S
C1939 C1933 1.429 . S
C1939 C1940 1.523 . S
C1940 C1921 1.368 . S
C1940 C1934 1.368 . S
C1940 C1939 1.523 . S
C1941 C1925 1.429 . S
C1941 C1937 1.429 . S
C1941 C1942 1.523 . S
C1942 C1926 1.368 . S
C1942 C1938 1.368 . S
C1942 C1941 1.523 . S
H1943 C1918 0.950 . S
H1944 C1920 0.950 . S
H1945 C1921 0.949 . S
H1946 C1923 0.950 . S
H1947 C1925 0.950 . S
C1948 C1949 1.349 . S
C1948 C1950 1.327 . S
C1948 H1973 0.950 . S
C1949 C1948 1.349 . S
C1949 C1965 1.349 . S
C1950 C1948 1.327 . S
C1950 C1969 1.429 . S
C1950 H1974 0.950 . S
C1951 C1968 1.574 . S
C1951 C1970 1.368 . S
C1951 H1975 0.949 . S
H1952 C1956 0.949 . S
C1953 C1954 1.349 . S
C1953 C1955 1.327 . S
C1953 H1976 0.950 . S
C1954 C1953 1.349 . S
C1954 C1966 1.349 . S
C1955 C1953 1.327 . S
C1955 C1971 1.429 . S
C1955 H1977 0.950 . S
C1956 H1952 0.949 . S
C1956 C1964 1.574 . S
C1956 C1972 1.368 . S
H1957 C1965 0.950 . S
H1958 C1963 0.950 . S
H1959 C1964 0.949 . S
H1960 C1966 0.950 . S
H1961 C1967 0.950 . S
H1962 C1968 0.949 . S
C1963 H1958 0.950 . S
C1963 C1965 1.327 . S
C1963 C1969 1.429 . S
C1964 C1956 1.574 . S
C1964 H1959 0.949 . S
C1964 C1970 1.368 . S
C1965 C1949 1.349 . S
C1965 H1957 0.950 . S
C1965 C1963 1.327 . S
C1966 C1954 1.349 . S
C1966 H1960 0.950 . S
C1966 C1967 1.327 . S
C1967 H1961 0.950 . S
C1967 C1966 1.327 . S
C1967 C1971 1.429 . S
C1968 C1951 1.574 . S
C1968 H1962 0.949 . S
C1968 C1972 1.368 . S
C1969 C1950 1.429 . S
C1969 C1963 1.429 . S
C1969 C1970 1.523 . S
C1970 C1951 1.368 . S
C1970 C1964 1.368 . S
C1970 C1969 1.523 . S
C1971 C1955 1.429 . S
C1971 C1967 1.429 . S
C1971 C1972 1.523 . S
C1972 C1956 1.368 . S
C1972 C1968 1.368 . S
C1972 C1971 1.523 . S
H1973 C1948 0.950 . S
H1974 C1950 0.950 . S
H1975 C1951 0.949 . S
H1976 C1953 0.950 . S
H1977 C1955 0.950 . S
C1978 C1979 1.349 . S
C1978 C1980 1.327 . S
C1978 H2003 0.950 . S
C1979 C1978 1.349 . S
C1979 C1995 1.349 . S
C1980 C1978 1.327 . S
C1980 C1999 1.429 . S
C1980 H2004 0.950 . S
C1981 C1998 1.574 . S
C1981 C2000 1.368 . S
C1981 H2005 0.949 . S
H1982 C1986 0.949 . S
C1983 C1984 1.349 . S
C1983 C1985 1.327 . S
C1983 H2006 0.950 . S
C1984 C1983 1.349 . S
C1984 C1996 1.349 . S
C1985 C1983 1.327 . S
C1985 C2001 1.429 . S
C1985 H2007 0.950 . S
C1986 H1982 0.949 . S
C1986 C1994 1.574 . S
C1986 C2002 1.368 . S
H1987 C1995 0.950 . S
H1988 C1993 0.950 . S
H1989 C1994 0.949 . S
H1990 C1996 0.950 . S
H1991 C1997 0.950 . S
H1992 C1998 0.949 . S
C1993 H1988 0.950 . S
C1993 C1995 1.327 . S
C1993 C1999 1.429 . S
C1994 C1986 1.574 . S
C1994 H1989 0.949 . S
C1994 C2000 1.368 . S
C1995 C1979 1.349 . S
C1995 H1987 0.950 . S
C1995 C1993 1.327 . S
C1996 C1984 1.349 . S
C1996 H1990 0.950 . S
C1996 C1997 1.327 . S
C1997 H1991 0.950 . S
C1997 C1996 1.327 . S
C1997 C2001 1.429 . S
C1998 C1981 1.574 . S
C1998 H1992 0.949 . S
C1998 C2002 1.368 . S
C1999 C1980 1.429 . S
C1999 C1993 1.429 . S
C1999 C2000 1.523 . S
C2000 C1981 1.368 . S
C2000 C1994 1.368 . S
C2000 C1999 1.523 . S
C2001 C1985 1.429 . S
C2001 C1997 1.429 . S
C2001 C2002 1.523 . S
C2002 C1986 1.368 . S
C2002 C1998 1.368 . S
C2002 C2001 1.523 . S
H2003 C1978 0.950 . S
H2004 C1980 0.950 . S
H2005 C1981 0.949 . S
H2006 C1983 0.950 . S
H2007 C1985 0.950 . S
C2008 C2009 1.349 . S
C2008 C2010 1.327 . S
C2008 H2033 0.950 . S
C2009 C2008 1.349 . S
C2009 C2025 1.349 . S
C2010 C2008 1.327 . S
C2010 C2029 1.429 . S
C2010 H2034 0.950 . S
C2011 C2028 1.574 . S
C2011 C2030 1.368 . S
C2011 H2035 0.949 . S
H2012 C2016 0.949 . S
C2013 C2014 1.349 . S
C2013 C2015 1.327 . S
C2013 H2036 0.950 . S
C2014 C2013 1.349 . S
C2014 C2026 1.349 . S
C2015 C2013 1.327 . S
C2015 C2031 1.429 . S
C2015 H2037 0.950 . S
C2016 H2012 0.949 . S
C2016 C2024 1.574 . S
C2016 C2032 1.368 . S
H2017 C2025 0.950 . S
H2018 C2023 0.950 . S
H2019 C2024 0.949 . S
H2020 C2026 0.950 . S
H2021 C2027 0.950 . S
H2022 C2028 0.949 . S
C2023 H2018 0.950 . S
C2023 C2025 1.327 . S
C2023 C2029 1.429 . S
C2024 C2016 1.574 . S
C2024 H2019 0.949 . S
C2024 C2030 1.368 . S
C2025 C2009 1.349 . S
C2025 H2017 0.950 . S
C2025 C2023 1.327 . S
C2026 C2014 1.349 . S
C2026 H2020 0.950 . S
C2026 C2027 1.327 . S
C2027 H2021 0.950 . S
C2027 C2026 1.327 . S
C2027 C2031 1.429 . S
C2028 C2011 1.574 . S
C2028 H2022 0.949 . S
C2028 C2032 1.368 . S
C2029 C2010 1.429 . S
C2029 C2023 1.429 . S
C2029 C2030 1.523 . S
C2030 C2011 1.368 . S
C2030 C2024 1.368 . S
C2030 C2029 1.523 . S
C2031 C2015 1.429 . S
C2031 C2027 1.429 . S
C2031 C2032 1.523 . S
C2032 C2016 1.368 . S
C2032 C2028 1.368 . S
C2032 C2031 1.523 . S
H2033 C2008 0.950 . S
H2034 C2010 0.950 . S
H2035 C2011 0.949 . S
H2036 C2013 0.950 . S
H2037 C2015 0.950 . S
C2038 C2039 1.349 . S
C2038 C2040 1.327 . S
C2038 H2063 0.950 . S
C2039 C2038 1.349 . S
C2039 C2055 1.349 . S
C2040 C2038 1.327 . S
C2040 C2059 1.429 . S
C2040 H2064 0.950 . S
C2041 C2058 1.574 . S
C2041 C2060 1.368 . S
C2041 H2065 0.949 . S
H2042 C2046 0.949 . S
C2043 C2044 1.349 . S
C2043 C2045 1.327 . S
C2043 H2066 0.950 . S
C2044 C2043 1.349 . S
C2044 C2056 1.349 . S
C2045 C2043 1.327 . S
C2045 C2061 1.429 . S
C2045 H2067 0.950 . S
C2046 H2042 0.949 . S
C2046 C2054 1.574 . S
C2046 C2062 1.368 . S
H2047 C2055 0.950 . S
H2048 C2053 0.950 . S
H2049 C2054 0.949 . S
H2050 C2056 0.950 . S
H2051 C2057 0.950 . S
H2052 C2058 0.949 . S
C2053 H2048 0.950 . S
C2053 C2055 1.327 . S
C2053 C2059 1.429 . S
C2054 C2046 1.574 . S
C2054 H2049 0.949 . S
C2054 C2060 1.368 . S
C2055 C2039 1.349 . S
C2055 H2047 0.950 . S
C2055 C2053 1.327 . S
C2056 C2044 1.349 . S
C2056 H2050 0.950 . S
C2056 C2057 1.327 . S
C2057 H2051 0.950 . S
C2057 C2056 1.327 . S
C2057 C2061 1.429 . S
C2058 C2041 1.574 . S
C2058 H2052 0.949 . S
C2058 C2062 1.368 . S
C2059 C2040 1.429 . S
C2059 C2053 1.429 . S
C2059 C2060 1.523 . S
C2060 C2041 1.368 . S
C2060 C2054 1.368 . S
C2060 C2059 1.523 . S
C2061 C2045 1.429 . S
C2061 C2057 1.429 . S
C2061 C2062 1.523 . S
C2062 C2046 1.368 . S
C2062 C2058 1.368 . S
C2062 C2061 1.523 . S
H2063 C2038 0.950 . S
H2064 C2040 0.950 . S
H2065 C2041 0.949 . S
H2066 C2043 0.950 . S
H2067 C2045 0.950 . S
C2068 C2069 1.349 . S
C2068 C2070 1.327 . S
C2068 H2093 0.950 . S
C2069 C2068 1.349 . S
C2069 C2085 1.349 . S
C2070 C2068 1.327 . S
C2070 C2089 1.429 . S
C2070 H2094 0.950 . S
C2071 C2088 1.574 . S
C2071 C2090 1.368 . S
C2071 H2095 0.949 . S
H2072 C2076 0.949 . S
C2073 C2074 1.349 . S
C2073 C2075 1.327 . S
C2073 H2096 0.950 . S
C2074 C2073 1.349 . S
C2074 C2086 1.349 . S
C2075 C2073 1.327 . S
C2075 C2091 1.429 . S
C2075 H2097 0.950 . S
C2076 H2072 0.949 . S
C2076 C2084 1.574 . S
C2076 C2092 1.368 . S
H2077 C2085 0.950 . S
H2078 C2083 0.950 . S
H2079 C2084 0.949 . S
H2080 C2086 0.950 . S
H2081 C2087 0.950 . S
H2082 C2088 0.949 . S
C2083 H2078 0.950 . S
C2083 C2085 1.327 . S
C2083 C2089 1.429 . S
C2084 C2076 1.574 . S
C2084 H2079 0.949 . S
C2084 C2090 1.368 . S
C2085 C2069 1.349 . S
C2085 H2077 0.950 . S
C2085 C2083 1.327 . S
C2086 C2074 1.349 . S
C2086 H2080 0.950 . S
C2086 C2087 1.327 . S
C2087 H2081 0.950 . S
C2087 C2086 1.327 . S
C2087 C2091 1.429 . S
C2088 C2071 1.574 . S
C2088 H2082 0.949 . S
C2088 C2092 1.368 . S
C2089 C2070 1.429 . S
C2089 C2083 1.429 . S
C2089 C2090 1.523 . S
C2090 C2071 1.368 . S
C2090 C2084 1.368 . S
C2090 C2089 1.523 . S
C2091 C2075 1.429 . S
C2091 C2087 1.429 . S
C2091 C2092 1.523 . S
C2092 C2076 1.368 . S
C2092 C2088 1.368 . S
C2092 C2091 1.523 . S
H2093 C2068 0.950 . S
H2094 C2070 0.950 . S
H2095 C2071 0.949 . S
H2096 C2073 0.950 . S
H2097 C2075 0.950 . S
C2098 C2099 1.349 . S
C2098 C2100 1.327 . S
C2098 H2123 0.950 . S
C2099 C2098 1.349 . S
C2099 C2115 1.349 . S
C2100 C2098 1.327 . S
C2100 C2119 1.429 . S
C2100 H2124 0.950 . S
C2101 C2118 1.574 . S
C2101 C2120 1.368 . S
C2101 H2125 0.949 . S
H2102 C2106 0.949 . S
C2103 C2104 1.349 . S
C2103 C2105 1.327 . S
C2103 H2126 0.950 . S
C2104 C2103 1.349 . S
C2104 C2116 1.349 . S
C2105 C2103 1.327 . S
C2105 C2121 1.429 . S
C2105 H2127 0.950 . S
C2106 H2102 0.949 . S
C2106 C2114 1.574 . S
C2106 C2122 1.368 . S
H2107 C2115 0.950 . S
H2108 C2113 0.950 . S
H2109 C2114 0.949 . S
H2110 C2116 0.950 . S
H2111 C2117 0.950 . S
H2112 C2118 0.949 . S
C2113 H2108 0.950 . S
C2113 C2115 1.327 . S
C2113 C2119 1.429 . S
C2114 C2106 1.574 . S
C2114 H2109 0.949 . S
C2114 C2120 1.368 . S
C2115 C2099 1.349 . S
C2115 H2107 0.950 . S
C2115 C2113 1.327 . S
C2116 C2104 1.349 . S
C2116 H2110 0.950 . S
C2116 C2117 1.327 . S
C2117 H2111 0.950 . S
C2117 C2116 1.327 . S
C2117 C2121 1.429 . S
C2118 C2101 1.574 . S
C2118 H2112 0.949 . S
C2118 C2122 1.368 . S
C2119 C2100 1.429 . S
C2119 C2113 1.429 . S
C2119 C2120 1.523 . S
C2120 C2101 1.368 . S
C2120 C2114 1.368 . S
C2120 C2119 1.523 . S
C2121 C2105 1.429 . S
C2121 C2117 1.429 . S
C2121 C2122 1.523 . S
C2122 C2106 1.368 . S
C2122 C2118 1.368 . S
C2122 C2121 1.523 . S
H2123 C2098 0.950 . S
H2124 C2100 0.950 . S
H2125 C2101 0.949 . S
H2126 C2103 0.950 . S
H2127 C2105 0.950 . S
C2128 C2129 1.349 . S
C2128 C2130 1.327 . S
C2128 H2153 0.950 . S
C2129 C2128 1.349 . S
C2129 C2145 1.349 . S
C2130 C2128 1.327 . S
C2130 C2149 1.429 . S
C2130 H2154 0.950 . S
C2131 C2148 1.574 . S
C2131 C2150 1.368 . S
C2131 H2155 0.949 . S
H2132 C2136 0.949 . S
C2133 C2134 1.349 . S
C2133 C2135 1.327 . S
C2133 H2156 0.950 . S
C2134 C2133 1.349 . S
C2134 C2146 1.349 . S
C2135 C2133 1.327 . S
C2135 C2151 1.429 . S
C2135 H2157 0.950 . S
C2136 H2132 0.949 . S
C2136 C2144 1.574 . S
C2136 C2152 1.368 . S
H2137 C2145 0.950 . S
H2138 C2143 0.950 . S
H2139 C2144 0.949 . S
H2140 C2146 0.950 . S
H2141 C2147 0.950 . S
H2142 C2148 0.949 . S
C2143 H2138 0.950 . S
C2143 C2145 1.327 . S
C2143 C2149 1.429 . S
C2144 C2136 1.574 . S
C2144 H2139 0.949 . S
C2144 C2150 1.368 . S
C2145 C2129 1.349 . S
C2145 H2137 0.950 . S
C2145 C2143 1.327 . S
C2146 C2134 1.349 . S
C2146 H2140 0.950 . S
C2146 C2147 1.327 . S
C2147 H2141 0.950 . S
C2147 C2146 1.327 . S
C2147 C2151 1.429 . S
C2148 C2131 1.574 . S
C2148 H2142 0.949 . S
C2148 C2152 1.368 . S
C2149 C2130 1.429 . S
C2149 C2143 1.429 . S
C2149 C2150 1.523 . S
C2150 C2131 1.368 . S
C2150 C2144 1.368 . S
C2150 C2149 1.523 . S
C2151 C2135 1.429 . S
C2151 C2147 1.429 . S
C2151 C2152 1.523 . S
C2152 C2136 1.368 . S
C2152 C2148 1.368 . S
C2152 C2151 1.523 . S
H2153 C2128 0.950 . S
H2154 C2130 0.950 . S
H2155 C2131 0.949 . S
H2156 C2133 0.950 . S
H2157 C2135 0.950 . S
C2158 C2159 1.349 . S
C2158 C2160 1.327 . S
C2158 H2183 0.950 . S
C2159 C2158 1.349 . S
C2159 C2175 1.349 . S
C2160 C2158 1.327 . S
C2160 C2179 1.429 . S
C2160 H2184 0.950 . S
C2161 C2178 1.574 . S
C2161 C2180 1.368 . S
C2161 H2185 0.949 . S
H2162 C2166 0.949 . S
C2163 C2164 1.349 . S
C2163 C2165 1.327 . S
C2163 H2186 0.950 . S
C2164 C2163 1.349 . S
C2164 C2176 1.349 . S
C2165 C2163 1.327 . S
C2165 C2181 1.429 . S
C2165 H2187 0.950 . S
C2166 H2162 0.949 . S
C2166 C2174 1.574 . S
C2166 C2182 1.368 . S
H2167 C2175 0.950 . S
H2168 C2173 0.950 . S
H2169 C2174 0.949 . S
H2170 C2176 0.950 . S
H2171 C2177 0.950 . S
H2172 C2178 0.949 . S
C2173 H2168 0.950 . S
C2173 C2175 1.327 . S
C2173 C2179 1.429 . S
C2174 C2166 1.574 . S
C2174 H2169 0.949 . S
C2174 C2180 1.368 . S
C2175 C2159 1.349 . S
C2175 H2167 0.950 . S
C2175 C2173 1.327 . S
C2176 C2164 1.349 . S
C2176 H2170 0.950 . S
C2176 C2177 1.327 . S
C2177 H2171 0.950 . S
C2177 C2176 1.327 . S
C2177 C2181 1.429 . S
C2178 C2161 1.574 . S
C2178 H2172 0.949 . S
C2178 C2182 1.368 . S
C2179 C2160 1.429 . S
C2179 C2173 1.429 . S
C2179 C2180 1.523 . S
C2180 C2161 1.368 . S
C2180 C2174 1.368 . S
C2180 C2179 1.523 . S
C2181 C2165 1.429 . S
C2181 C2177 1.429 . S
C2181 C2182 1.523 . S
C2182 C2166 1.368 . S
C2182 C2178 1.368 . S
C2182 C2181 1.523 . S
H2183 C2158 0.950 . S
H2184 C2160 0.950 . S
H2185 C2161 0.949 . S
H2186 C2163 0.950 . S
H2187 C2165 0.950 . S
C2188 C2189 1.349 . S
C2188 C2190 1.327 . S
C2188 H2213 0.950 . S
C2189 C2188 1.349 . S
C2189 C2205 1.349 . S
C2190 C2188 1.327 . S
C2190 C2209 1.429 . S
C2190 H2214 0.950 . S
C2191 C2208 1.574 . S
C2191 C2210 1.368 . S
C2191 H2215 0.949 . S
H2192 C2196 0.949 . S
C2193 C2194 1.349 . S
C2193 C2195 1.327 . S
C2193 H2216 0.950 . S
C2194 C2193 1.349 . S
C2194 C2206 1.349 . S
C2195 C2193 1.327 . S
C2195 C2211 1.429 . S
C2195 H2217 0.950 . S
C2196 H2192 0.949 . S
C2196 C2204 1.574 . S
C2196 C2212 1.368 . S
H2197 C2205 0.950 . S
H2198 C2203 0.950 . S
H2199 C2204 0.949 . S
H2200 C2206 0.950 . S
H2201 C2207 0.950 . S
H2202 C2208 0.949 . S
C2203 H2198 0.950 . S
C2203 C2205 1.327 . S
C2203 C2209 1.429 . S
C2204 C2196 1.574 . S
C2204 H2199 0.949 . S
C2204 C2210 1.368 . S
C2205 C2189 1.349 . S
C2205 H2197 0.950 . S
C2205 C2203 1.327 . S
C2206 C2194 1.349 . S
C2206 H2200 0.950 . S
C2206 C2207 1.327 . S
C2207 H2201 0.950 . S
C2207 C2206 1.327 . S
C2207 C2211 1.429 . S
C2208 C2191 1.574 . S
C2208 H2202 0.949 . S
C2208 C2212 1.368 . S
C2209 C2190 1.429 . S
C2209 C2203 1.429 . S
C2209 C2210 1.523 . S
C2210 C2191 1.368 . S
C2210 C2204 1.368 . S
C2210 C2209 1.523 . S
C2211 C2195 1.429 . S
C2211 C2207 1.429 . S
C2211 C2212 1.523 . S
C2212 C2196 1.368 . S
C2212 C2208 1.368 . S
C2212 C2211 1.523 . S
H2213 C2188 0.950 . S
H2214 C2190 0.950 . S
H2215 C2191 0.949 . S
H2216 C2193 0.950 . S
H2217 C2195 0.950 . S
C2218 C2219 1.349 . S
C2218 C2220 1.327 . S
C2218 H2243 0.950 . S
C2219 C2218 1.349 . S
C2219 C2235 1.349 . S
C2220 C2218 1.327 . S
C2220 C2239 1.429 . S
C2220 H2244 0.950 . S
C2221 C2238 1.574 . S
C2221 C2240 1.368 . S
C2221 H2245 0.949 . S
H2222 C2226 0.949 . S
C2223 C2224 1.349 . S
C2223 C2225 1.327 . S
C2223 H2246 0.950 . S
C2224 C2223 1.349 . S
C2224 C2236 1.349 . S
C2225 C2223 1.327 . S
C2225 C2241 1.429 . S
C2225 H2247 0.950 . S
C2226 H2222 0.949 . S
C2226 C2234 1.574 . S
C2226 C2242 1.368 . S
H2227 C2235 0.950 . S
H2228 C2233 0.950 . S
H2229 C2234 0.949 . S
H2230 C2236 0.950 . S
H2231 C2237 0.950 . S
H2232 C2238 0.949 . S
C2233 H2228 0.950 . S
C2233 C2235 1.327 . S
C2233 C2239 1.429 . S
C2234 C2226 1.574 . S
C2234 H2229 0.949 . S
C2234 C2240 1.368 . S
C2235 C2219 1.349 . S
C2235 H2227 0.950 . S
C2235 C2233 1.327 . S
C2236 C2224 1.349 . S
C2236 H2230 0.950 . S
C2236 C2237 1.327 . S
C2237 H2231 0.950 . S
C2237 C2236 1.327 . S
C2237 C2241 1.429 . S
C2238 C2221 1.574 . S
C2238 H2232 0.949 . S
C2238 C2242 1.368 . S
C2239 C2220 1.429 . S
C2239 C2233 1.429 . S
C2239 C2240 1.523 . S
C2240 C2221 1.368 . S
C2240 C2234 1.368 . S
C2240 C2239 1.523 . S
C2241 C2225 1.429 . S
C2241 C2237 1.429 . S
C2241 C2242 1.523 . S
C2242 C2226 1.368 . S
C2242 C2238 1.368 . S
C2242 C2241 1.523 . S
H2243 C2218 0.950 . S
H2244 C2220 0.950 . S
H2245 C2221 0.949 . S
H2246 C2223 0.950 . S
H2247 C2225 0.950 . S
C2248 C2249 1.349 . S
C2248 C2250 1.327 . S
C2248 H2273 0.950 . S
C2249 C2248 1.349 . S
C2249 C2265 1.349 . S
C2250 C2248 1.327 . S
C2250 C2269 1.429 . S
C2250 H2274 0.950 . S
C2251 C2268 1.574 . S
C2251 C2270 1.368 . S
C2251 H2275 0.949 . S
H2252 C2256 0.949 . S
C2253 C2254 1.349 . S
C2253 C2255 1.327 . S
C2253 H2276 0.950 . S
C2254 C2253 1.349 . S
C2254 C2266 1.349 . S
C2255 C2253 1.327 . S
C2255 C2271 1.429 . S
C2255 H2277 0.950 . S
C2256 H2252 0.949 . S
C2256 C2264 1.574 . S
C2256 C2272 1.368 . S
H2257 C2265 0.950 . S
H2258 C2263 0.950 . S
H2259 C2264 0.949 . S
H2260 C2266 0.950 . S
H2261 C2267 0.950 . S
H2262 C2268 0.949 . S
C2263 H2258 0.950 . S
C2263 C2265 1.327 . S
C2263 C2269 1.429 . S
C2264 C2256 1.574 . S
C2264 H2259 0.949 . S
C2264 C2270 1.368 . S
C2265 C2249 1.349 . S
C2265 H2257 0.950 . S
C2265 C2263 1.327 . S
C2266 C2254 1.349 . S
C2266 H2260 0.950 . S
C2266 C2267 1.327 . S
C2267 H2261 0.950 . S
C2267 C2266 1.327 . S
C2267 C2271 1.429 . S
C2268 C2251 1.574 . S
C2268 H2262 0.949 . S
C2268 C2272 1.368 . S
C2269 C2250 1.429 . S
C2269 C2263 1.429 . S
C2269 C2270 1.523 . S
C2270 C2251 1.368 . S
C2270 C2264 1.368 . S
C2270 C2269 1.523 . S
C2271 C2255 1.429 . S
C2271 C2267 1.429 . S
C2271 C2272 1.523 . S
C2272 C2256 1.368 . S
C2272 C2268 1.368 . S
C2272 C2271 1.523 . S
H2273 C2248 0.950 . S
H2274 C2250 0.950 . S
H2275 C2251 0.949 . S
H2276 C2253 0.950 . S
H2277 C2255 0.950 . S
C2278 C2279 1.349 . S
C2278 C2280 1.327 . S
C2278 H2303 0.950 . S
C2279 C2278 1.349 . S
C2279 C2295 1.349 . S
C2280 C2278 1.327 . S
C2280 C2299 1.429 . S
C2280 H2304 0.950 . S
C2281 C2298 1.574 . S
C2281 C2300 1.368 . S
C2281 H2305 0.949 . S
H2282 C2286 0.949 . S
C2283 C2284 1.349 . S
C2283 C2285 1.327 . S
C2283 H2306 0.950 . S
C2284 C2283 1.349 . S
C2284 C2296 1.349 . S
C2285 C2283 1.327 . S
C2285 C2301 1.429 . S
C2285 H2307 0.950 . S
C2286 H2282 0.949 . S
C2286 C2294 1.574 . S
C2286 C2302 1.368 . S
H2287 C2295 0.950 . S
H2288 C2293 0.950 . S
H2289 C2294 0.949 . S
H2290 C2296 0.950 . S
H2291 C2297 0.950 . S
H2292 C2298 0.949 . S
C2293 H2288 0.950 . S
C2293 C2295 1.327 . S
C2293 C2299 1.429 . S
C2294 C2286 1.574 . S
C2294 H2289 0.949 . S
C2294 C2300 1.368 . S
C2295 C2279 1.349 . S
C2295 H2287 0.950 . S
C2295 C2293 1.327 . S
C2296 C2284 1.349 . S
C2296 H2290 0.950 . S
C2296 C2297 1.327 . S
C2297 H2291 0.950 . S
C2297 C2296 1.327 . S
C2297 C2301 1.429 . S
C2298 C2281 1.574 . S
C2298 H2292 0.949 . S
C2298 C2302 1.368 . S
C2299 C2280 1.429 . S
C2299 C2293 1.429 . S
C2299 C2300 1.523 . S
C2300 C2281 1.368 . S
C2300 C2294 1.368 . S
C2300 C2299 1.523 . S
C2301 C2285 1.429 . S
C2301 C2297 1.429 . S
C2301 C2302 1.523 . S
C2302 C2286 1.368 . S
C2302 C2298 1.368 . S
C2302 C2301 1.523 . S
H2303 C2278 0.950 . S
H2304 C2280 0.950 . S
H2305 C2281 0.949 . S
H2306 C2283 0.950 . S
H2307 C2285 0.950 . S
C2308 C2309 1.349 . S
C2308 C2310 1.327 . S
C2308 H2333 0.950 . S
C2309 C2308 1.349 . S
C2309 C2325 1.349 . S
C2310 C2308 1.327 . S
C2310 C2329 1.429 . S
C2310 H2334 0.950 . S
C2311 C2328 1.574 . S
C2311 C2330 1.368 . S
C2311 H2335 0.949 . S
H2312 C2316 0.949 . S
C2313 C2314 1.349 . S
C2313 C2315 1.327 . S
C2313 H2336 0.950 . S
C2314 C2313 1.349 . S
C2314 C2326 1.349 . S
C2315 C2313 1.327 . S
C2315 C2331 1.429 . S
C2315 H2337 0.950 . S
C2316 H2312 0.949 . S
C2316 C2324 1.574 . S
C2316 C2332 1.368 . S
H2317 C2325 0.950 . S
H2318 C2323 0.950 . S
H2319 C2324 0.949 . S
H2320 C2326 0.950 . S
H2321 C2327 0.950 . S
H2322 C2328 0.949 . S
C2323 H2318 0.950 . S
C2323 C2325 1.327 . S
C2323 C2329 1.429 . S
C2324 C2316 1.574 . S
C2324 H2319 0.949 . S
C2324 C2330 1.368 . S
C2325 C2309 1.349 . S
C2325 H2317 0.950 . S
C2325 C2323 1.327 . S
C2326 C2314 1.349 . S
C2326 H2320 0.950 . S
C2326 C2327 1.327 . S
C2327 H2321 0.950 . S
C2327 C2326 1.327 . S
C2327 C2331 1.429 . S
C2328 C2311 1.574 . S
C2328 H2322 0.949 . S
C2328 C2332 1.368 . S
C2329 C2310 1.429 . S
C2329 C2323 1.429 . S
C2329 C2330 1.523 . S
C2330 C2311 1.368 . S
C2330 C2324 1.368 . S
C2330 C2329 1.523 . S
C2331 C2315 1.429 . S
C2331 C2327 1.429 . S
C2331 C2332 1.523 . S
C2332 C2316 1.368 . S
C2332 C2328 1.368 . S
C2332 C2331 1.523 . S
H2333 C2308 0.950 . S
H2334 C2310 0.950 . S
H2335 C2311 0.949 . S
H2336 C2313 0.950 . S
H2337 C2315 0.950 . S
C2338 C2339 1.349 . S
C2338 C2340 1.327 . S
C2338 H2363 0.950 . S
C2339 C2338 1.349 . S
C2339 C2355 1.349 . S
C2340 C2338 1.327 . S
C2340 C2359 1.429 . S
C2340 H2364 0.950 . S
C2341 C2358 1.574 . S
C2341 C2360 1.368 . S
C2341 H2365 0.949 . S
H2342 C2346 0.949 . S
C2343 C2344 1.349 . S
C2343 C2345 1.327 . S
C2343 H2366 0.950 . S
C2344 C2343 1.349 . S
C2344 C2356 1.349 . S
C2345 C2343 1.327 . S
C2345 C2361 1.429 . S
C2345 H2367 0.950 . S
C2346 H2342 0.949 . S
C2346 C2354 1.574 . S
C2346 C2362 1.368 . S
H2347 C2355 0.950 . S
H2348 C2353 0.950 . S
H2349 C2354 0.949 . S
H2350 C2356 0.950 . S
H2351 C2357 0.950 . S
H2352 C2358 0.949 . S
C2353 H2348 0.950 . S
C2353 C2355 1.327 . S
C2353 C2359 1.429 . S
C2354 C2346 1.574 . S
C2354 H2349 0.949 . S
C2354 C2360 1.368 . S
C2355 C2339 1.349 . S
C2355 H2347 0.950 . S
C2355 C2353 1.327 . S
C2356 C2344 1.349 . S
C2356 H2350 0.950 . S
C2356 C2357 1.327 . S
C2357 H2351 0.950 . S
C2357 C2356 1.327 . S
C2357 C2361 1.429 . S
C2358 C2341 1.574 . S
C2358 H2352 0.949 . S
C2358 C2362 1.368 . S
C2359 C2340 1.429 . S
C2359 C2353 1.429 . S
C2359 C2360 1.523 . S
C2360 C2341 1.368 . S
C2360 C2354 1.368 . S
C2360 C2359 1.523 . S
C2361 C2345 1.429 . S
C2361 C2357 1.429 . S
C2361 C2362 1.523 . S
C2362 C2346 1.368 . S
C2362 C2358 1.368 . S
C2362 C2361 1.523 . S
H2363 C2338 0.950 . S
H2364 C2340 0.950 . S
H2365 C2341 0.949 . S
H2366 C2343 0.950 . S
H2367 C2345 0.950 . S
C449 C130 0.808 . S
C454 C4 0.799 . S
C479 C26 0.836 . S
C484 C368 0.829 . S
C509 C158 0.807 . S
C514 C32 0.799 . S
C539 C340 0.829 . S
C544 C54 0.836 . S
C569 C60 0.799 . S
C574 C214 0.808 . S
C599 C396 0.829 . S
C604 C82 0.836 . S
C629 C88 0.799 . S
C634 C186 0.808 . S
C659 C424 0.829 . S
C664 C110 0.836 . S
C689 C18 0.721 . S
C694 C124 0.719 . S
C719 C138 0.744 . S
C724 C264 0.744 . S
C749 C46 0.721 . S
C754 C152 0.720 . S
C779 C166 0.744 . S
C784 C236 0.744 . S
C809 C180 0.720 . S
C814 C102 0.721 . S
C839 C292 0.744 . S
C844 C194 0.744 . S
C869 C208 0.720 . S
C874 C74 0.721 . S
C899 C320 0.744 . S
C904 C222 0.744 . S
C929 C354 0.807 . S
C934 C228 0.799 . S
C959 C144 0.829 . S
C964 C250 0.836 . S
C989 C256 0.799 . S
C994 C382 0.808 . S
C1019 C116 0.829 . S
C1024 C278 0.836 . S
C1049 C438 0.808 . S
C1054 C284 0.799 . S
C1079 C306 0.836 . S
C1084 C172 0.829 . S
C1109 C410 0.808 . S
C1114 C312 0.799 . S
C1139 C200 0.829 . S
C1144 C334 0.836 . S
C1169 C242 0.721 . S
C1174 C348 0.720 . S
C1199 C362 0.744 . S
C1204 C40 0.744 . S
C1229 C376 0.719 . S
C1234 C270 0.721 . S
C1259 C390 0.744 . S
C1264 C12 0.744 . S
C1289 C326 0.721 . S
C1294 C404 0.720 . S
C1319 C418 0.744 . S
C1324 C68 0.744 . S
C1349 C432 0.720 . S
C1354 C298 0.721 . S
C1379 C446 0.744 . S
C1384 C96 0.744 . S
C1409 C347 1.127 . S
C1414 C5 0.951 . S
C1439 C25 1.159 . S
C1444 C137 1.158 . S
C1469 C33 0.951 . S
C1474 C375 1.127 . S
C1499 C53 1.159 . S
C1504 C165 1.158 . S
C1529 C61 0.951 . S
C1534 C403 1.127 . S
C1559 C81 1.159 . S
C1564 C193 1.158 . S
C1589 C431 1.127 . S
C1594 C89 0.951 . S
C1619 C109 1.159 . S
C1624 C221 1.158 . S
C1649 C123 1.127 . S
C1654 C229 0.951 . S
C1679 C151 1.127 . S
C1684 C257 0.951 . S
C1709 C285 0.951 . S
C1714 C179 1.127 . S
C1739 C313 0.951 . S
C1744 C207 1.127 . S
C1769 C249 1.159 . S
C1774 C361 1.158 . S
C1799 C389 1.158 . S
C1804 C277 1.159 . S
C1829 C305 1.159 . S
C1834 C417 1.158 . S
C1859 C445 1.158 . S
C1864 C333 1.159 . S
C1889 C299 1.319 . S
C1894 C11 1.390 . S
C1919 C319 1.390 . S
C1924 C19 1.319 . S
C1949 C39 1.390 . S
C1954 C327 1.319 . S
C1979 C291 1.390 . S
C1984 C47 1.319 . S
C2009 C271 1.319 . S
C2014 C67 1.390 . S
C2039 C235 1.390 . S
C2044 C75 1.319 . S
C2069 C95 1.390 . S
C2074 C243 1.319 . S
C2099 C263 1.390 . S
C2104 C103 1.319 . S
C2129 C411 1.242 . S
C2134 C117 1.256 . S
C2159 C425 1.256 . S
C2164 C131 1.242 . S
C2189 C439 1.242 . S
C2194 C145 1.256 . S
C2219 C159 1.242 . S
C2224 C397 1.256 . S
C2249 C383 1.242 . S
C2254 C173 1.256 . S
C2279 C341 1.256 . S
C2284 C187 1.242 . S
C2309 C355 1.242 . S
C2314 C201 1.256 . S
C2339 C369 1.256 . S
C2344 C215 1.242 . S
