# Generated by pormake.
# Topology rkf, (6)-cn, num edge types: 1
# Building blocks:
#     Node 0, Type 0, BuildingBlock: BETDAH_clean_sbu_0, # of connection points: 6
#     Node 1, Type 0, BuildingBlock: BETDAH_clean_sbu_0, # of connection points: 6
#     Node 2, Type 0, BuildingBlock: BETDAH_clean_sbu_0, # of connection points: 6
#     Node 3, Type 0, BuildingBlock: BETDAH_clean_sbu_0, # of connection points: 6
#     Node 4, Type 0, BuildingBlock: BETDAH_clean_sbu_0, # of connection points: 6
#     Node 5, Type 0, BuildingBlock: BETDAH_clean_sbu_0, # of connection points: 6
#     Edge 6, Type (0, 0), BuildingBlock: CIFDUS_clean_linker_0, # of connection points: 2
#     Edge 7, Type (0, 0), BuildingBlock: CIFDUS_clean_linker_0, # of connection points: 2
#     Edge 8, Type (0, 0), BuildingBlock: CIFDUS_clean_linker_0, # of connection points: 2
#     Edge 9, Type (0, 0), BuildingBlock: CIFDUS_clean_linker_0, # of connection points: 2
#     Edge 10, Type (0, 0), BuildingBlock: CIFDUS_clean_linker_0, # of connection points: 2
#     Edge 11, Type (0, 0), BuildingBlock: CIFDUS_clean_linker_0, # of connection points: 2
#     Edge 12, Type (0, 0), BuildingBlock: CIFDUS_clean_linker_0, # of connection points: 2
#     Edge 13, Type (0, 0), BuildingBlock: CIFDUS_clean_linker_0, # of connection points: 2
#     Edge 14, Type (0, 0), BuildingBlock: CIFDUS_clean_linker_0, # of connection points: 2
#     Edge 15, Type (0, 0), BuildingBlock: CIFDUS_clean_linker_0, # of connection points: 2
#     Edge 16, Type (0, 0), BuildingBlock: CIFDUS_clean_linker_0, # of connection points: 2
#     Edge 17, Type (0, 0), BuildingBlock: CIFDUS_clean_linker_0, # of connection points: 2
#     Edge 18, Type (0, 0), BuildingBlock: CIFDUS_clean_linker_0, # of connection points: 2
#     Edge 19, Type (0, 0), BuildingBlock: CIFDUS_clean_linker_0, # of connection points: 2
#     Edge 20, Type (0, 0), BuildingBlock: CIFDUS_clean_linker_0, # of connection points: 2
#     Edge 21, Type (0, 0), BuildingBlock: CIFDUS_clean_linker_0, # of connection points: 2
#     Edge 22, Type (0, 0), BuildingBlock: CIFDUS_clean_linker_0, # of connection points: 2
#     Edge 23, Type (0, 0), BuildingBlock: CIFDUS_clean_linker_0, # of connection points: 2
# Relax obj value: 0.830
# Max RMSD: 0.248
# Mean RMSD: 0.248
data_MOF--net-rkf--node1-BETDAH_clean_sbu_0--edge1-CIFDUS_clean_linker_0
_symmetry_space_group_name_H-M    P1
_symmetry_Int_Tables_number       1
_symmetry_cell_setting            triclinic
loop_
_symmetry_equiv_pos_as_xyz
'x, y, z'
_cell_length_a     22.519205
_cell_length_b     22.366503
_cell_length_c     38.767595
_cell_angle_alpha  91.250854
_cell_angle_beta   89.219228
_cell_angle_gamma 119.58612
loop_
_atom_site_label
_atom_site_type_symbol
_atom_site_fract_x
_atom_site_fract_y
_atom_site_fract_z
_atom_type_partial_charge
Ho0 Ho 0.25681 0.97375 0.19174 0.0
Ho1 Ho 0.33653 0.11488 1.16439 0.0
C2 C 0.31579 0.09607 0.24828 0.0
C3 C 0.21807 0.84756 0.20675 0.0
C4 C 0.22556 0.81467 0.23743 0.0
C5 C 0.27105 0.85504 0.26348 0.0
C6 C 0.26977 0.82651 0.29526 0.0
C7 C 0.22273 0.75694 0.30169 0.0
C8 C 0.18129 0.71533 0.27437 0.0
C9 C 0.18247 0.74418 0.24251 0.0
C10 C 0.18997 0.04491 0.19263 0.0
C11 C 0.23878 -0.00218 1.10902 0.0
C12 C 0.39979 0.24531 1.15153 0.0
C13 C 0.38591 0.30231 1.1479 0.0
C14 C 0.32596 0.29909 1.1609 0.0
C15 C 0.31144 0.35176 1.15403 0.0
C16 C 0.35731 0.40864 1.13448 0.0
C17 C 0.41886 0.41281 1.12314 0.0
C18 C 0.43284 0.36005 1.12972 0.0
C19 C 0.40657 0.0444 1.16491 0.0
O20 O 0.30022 0.03101 0.2427 0.0
O21 O 0.32253 0.13533 0.22158 0.0
O22 O 0.17943 0.87565 0.21103 0.0
O23 O 0.27456 0.88714 0.19 0.0
O24 O 0.18151 0.00138 0.21649 0.0
O25 O 0.22835 0.04404 1.16927 0.0
O26 O 0.27133 0.06474 1.11679 0.0
O27 O 0.23144 0.95296 1.1332 0.0
O28 O 0.37467 0.19731 1.12764 0.0
O29 O 0.39314 0.22055 1.18234 0.0
O30 O 0.40927 0.08407 1.14064 0.0
O31 O 0.36802 0.04575 0.18841 0.0
H32 H 0.30473 0.90963 0.25997 0.0
H33 H 0.30177 0.86076 0.3156 0.0
H34 H 0.14505 0.66149 0.27828 0.0
H35 H 0.14727 0.71225 0.22249 0.0
H36 H 0.28991 0.25527 1.17558 0.0
H37 H 0.26369 0.34715 1.16313 0.0
H38 H 0.45466 0.45501 1.10741 0.0
H39 H 0.47945 0.36332 1.11961 0.0
Ho40 Ho 0.38084 0.29756 0.51788 0.0
Ho41 Ho 0.30068 0.36651 0.49636 0.0
C42 C 0.30033 0.33624 0.57784 0.0
C43 C 0.47983 0.27299 0.52826 0.0
C44 C 0.50978 0.25744 0.55768 0.0
C45 C 0.53236 0.20941 0.55373 0.0
C46 C 0.55255 0.18742 0.58253 0.0
C47 C 0.55047 0.21344 0.61558 0.0
C48 C 0.5326 0.26538 0.6189 0.0
C49 C 0.51205 0.28688 0.59025 0.0
C50 C 0.24563 0.21716 0.51812 0.0
C51 C 0.34254 0.28868 0.43518 0.0
C52 C 0.22991 0.4208 0.47614 0.0
C53 C 0.1834 0.42863 0.4529 0.0
C54 C 0.11921 0.37314 0.44427 0.0
C55 C 0.07246 0.38444 0.42624 0.0
C56 C 0.08902 0.45136 0.41671 0.0
C57 C 0.15385 0.5065 0.42484 0.0
C58 C 0.20052 0.49516 0.44285 0.0
C59 C 0.42886 0.45017 0.5198 0.0
O60 O 0.35571 0.32988 0.57134 0.0
O61 O 0.26459 0.33985 0.55177 0.0
O62 O 0.41825 0.22522 0.5195 0.0
O63 O 0.4874 0.33495 0.52801 0.0
O64 O 0.28438 0.21228 0.54129 0.0
O65 O 0.28078 0.2614 0.49632 0.0
O66 O 0.31143 0.32486 0.44326 0.0
O67 O 0.37318 0.27255 0.45959 0.0
O68 O 0.29339 0.4434 0.46649 0.0
O69 O 0.20516 0.36646 0.49571 0.0
O70 O 0.37657 0.45586 0.52865 0.0
O71 O 0.4106 0.40036 0.49911 0.0
H72 H 0.53128 0.18655 0.52865 0.0
H73 H 0.56597 0.14731 0.57926 0.0
H74 H 0.52899 0.28555 0.64402 0.0
H75 H 0.49469 0.32397 0.59389 0.0
H76 H 0.10469 0.3214 0.45195 0.0
H77 H 0.02344 0.34067 0.41958 0.0
H78 H 0.168 0.55853 0.41787 0.0
H79 H 0.24946 0.53881 0.44981 0.0
Ho80 Ho 0.17643 0.39968 0.86043 0.0
Ho81 Ho 0.04723 0.27962 0.82974 0.0
C82 C 0.06191 0.29998 0.91472 0.0
C83 C 0.26644 0.52091 0.88059 0.0
C84 C 0.27087 0.55337 0.91465 0.0
C85 C 0.21129 0.54504 0.93117 0.0
C86 C 0.20932 0.55138 0.96702 0.0
C87 C 0.26652 0.56502 0.98691 0.0
C88 C 0.3286 0.58283 0.96982 0.0
C89 C 0.33068 0.57708 0.93395 0.0
C90 C 0.16985 0.27672 0.86234 0.0
C91 C 0.17451 0.35505 0.77662 0.0
C92 C 0.93613 0.16586 0.81655 0.0
C93 C 0.86859 0.14531 0.80206 0.0
C94 C 0.86211 0.16707 0.76939 0.0
C95 C 0.79782 0.14207 0.75476 0.0
C96 C 0.73841 0.09531 0.77261 0.0
C97 C 0.74498 0.07698 0.80624 0.0
C98 C 0.80959 0.10148 0.82073 0.0
C99 C 0.05217 0.40252 0.82989 0.0
O100 O 0.11154 0.36442 0.90998 0.0
O101 O 0.03851 0.25649 0.88779 0.0
O102 O 0.27645 0.46799 0.88131 0.0
O103 O 0.21437 0.50949 0.86125 0.0
O104 O 0.19975 0.32383 0.88627 0.0
O105 O 0.15079 0.30039 0.83862 0.0
O106 O 0.11438 0.29945 0.78226 0.0
O107 O 0.20524 0.40217 0.80203 0.0
O108 O 0.94929 0.19728 0.8465 0.0
O109 O -0.01159 0.19303 0.79552 0.0
O110 O 0.02298 0.35651 0.80577 0.0
O111 O 0.07171 0.37866 0.85329 0.0
H112 H 0.16434 0.52715 0.91692 0.0
H113 H 0.16119 0.53898 0.9793 0.0
H114 H 0.37385 0.59348 0.98411 0.0
H115 H 0.37714 0.58383 0.92175 0.0
H116 H 0.90674 0.20146 0.75454 0.0
H117 H 0.79539 0.15652 0.72857 0.0
H118 H 0.70043 0.04183 0.82089 0.0
H119 H 0.81358 0.08469 0.84618 0.0
Ho120 Ho 0.85331 0.19394 0.19352 0.0
Ho121 Ho 0.89395 0.08582 1.17325 0.0
C122 C 0.86089 0.10306 0.25519 0.0
C123 C 0.79358 0.2668 0.20038 0.0
C124 C 0.77393 0.29182 0.23139 0.0
C125 C 0.75599 0.25305 0.26153 0.0
C126 C 0.76361 0.28529 0.29362 0.0
C127 C 0.79015 0.35694 0.296 0.0
C128 C 0.79744 0.3932 0.26558 0.0
C129 C 0.78982 0.36083 0.2334 0.0
C130 C -0.01742 0.2298 0.20726 0.0
C131 C 0.91321 0.1888 1.11273 0.0
C132 C 0.94548 0.00472 1.17343 0.0
C133 C 0.93966 0.94393 1.15553 0.0
C134 C 0.89526 0.91434 1.12761 0.0
C135 C 0.8841 0.85187 1.11337 0.0
C136 C 0.9166 0.81759 1.12708 0.0
C137 C -0.03729 0.8487 1.15448 0.0
C138 C -0.02597 0.91147 1.16864 0.0
C139 C 0.76213 0.05007 1.16169 0.0
O140 O 0.83099 0.13888 0.24571 0.0
O141 O 0.8971 0.08934 0.23222 0.0
O142 O 0.8596 0.29324 0.19675 0.0
O143 O 0.76029 0.20032 0.19427 0.0
O144 O 0.94651 0.24605 0.22793 0.0
O145 O 0.94836 0.19754 1.18115 0.0
O146 O 0.92656 0.1403 1.12254 0.0
O147 O 0.88172 0.2123 1.1345 0.0
O148 O 0.89147 -0.00582 0.19106 0.0
O149 O -0.0277 0.06204 1.15631 0.0
O150 O 0.79622 0.03045 1.1416 0.0
O151 O 0.79812 0.08265 0.18709 0.0
H152 H 0.74344 0.19961 0.26064 0.0
H153 H 0.75728 0.25542 0.31637 0.0
H154 H 0.81656 0.44816 0.26661 0.0
H155 H 0.80353 0.39148 0.21035 0.0
H156 H 0.8683 0.93887 1.1173 0.0
H157 H 0.84989 0.8304 1.09157 0.0
H158 H -0.01132 0.82381 1.16548 0.0
H159 H 0.00829 0.93383 0.1904 0.0
Ho160 Ho 0.75373 0.897 0.532 0.0
Ho161 Ho 0.89229 0.91736 0.50844 0.0
C162 C 0.85203 0.89229 0.59122 0.0
C163 C 0.62467 0.85306 0.54055 0.0
C164 C 0.5802 0.8341 0.57107 0.0
C165 C 0.53158 0.85581 0.57397 0.0
C166 C 0.50484 0.85893 0.60629 0.0
C167 C 0.52716 0.84104 0.63605 0.0
C168 C 0.56861 0.81043 0.63215 0.0
C169 C 0.59532 0.80744 0.59993 0.0
C170 C 0.85808 0.02212 0.54447 0.0
C171 C 0.81388 0.9545 0.45226 0.0
C172 C 0.01635 0.9419 0.50027 0.0
C173 C 0.04346 0.89479 0.49481 0.0
C174 C 0.10768 0.91884 0.47955 0.0
C175 C 0.12714 0.87229 0.4666 0.0
C176 C 0.08234 0.80082 0.46852 0.0
C177 C 0.02049 0.77725 0.48668 0.0
C178 C 0.00108 0.82392 0.49961 0.0
C179 C 0.78554 0.78784 0.50109 0.0
O180 O 0.78695 0.87126 0.58318 0.0
O181 O 0.90054 0.92008 0.56721 0.0
O182 O 0.67083 0.91819 0.53969 0.0
O183 O 0.64944 0.81277 0.53184 0.0
O184 O 0.80746 -0.00813 0.56601 0.0
O185 O 0.84933 -0.01456 0.51791 0.0
O186 O 0.8749 0.9688 0.46337 0.0
O187 O 0.7591 0.92053 0.47286 0.0
O188 O -0.01063 0.94035 0.53049 0.0
O189 O -0.02144 0.94193 0.47504 0.0
O190 O 0.83645 0.81392 0.47985 0.0
O191 O 0.79696 0.82942 0.52539 0.0
H192 H 0.51914 0.87631 0.55186 0.0
H193 H 0.4723 0.88183 0.60842 0.0
H194 H 0.58728 0.79636 0.65441 0.0
H195 H 0.63277 0.79042 0.59827 0.0
H196 H 0.14074 0.97334 0.47545 0.0
H197 H 0.1747 0.89249 0.45236 0.0
H198 H -0.01489 0.72269 0.48881 0.0
H199 H 0.95106 0.80448 0.51131 0.0
Ho200 Ho 0.92659 0.75865 0.86356 0.0
Ho201 Ho 0.06599 0.87903 0.84292 0.0
C202 C 0.0414 0.84123 0.92494 0.0
C203 C 0.83252 0.63867 0.88223 0.0
C204 C 0.83005 0.59723 0.91154 0.0
C205 C 0.76721 0.54941 0.92567 0.0
C206 C 0.76372 0.52911 0.95987 0.0
C207 C 0.82261 0.55976 0.98085 0.0
C208 C 0.8865 0.59819 0.9643 0.0
C209 C 0.89001 0.61647 0.92993 0.0
C210 C 0.93606 0.88206 0.86627 0.0
C211 C 0.94554 0.82638 0.78654 0.0
C212 C 0.18839 0.97969 0.83667 0.0
C213 C 0.24271 -0.0056 0.81152 0.0
C214 C 0.22682 0.97362 0.77697 0.0
C215 C 0.27798 -0.01892 0.75397 0.0
C216 C 0.34589 0.00848 0.76519 0.0
C217 C 0.3613 0.02818 0.80005 0.0
C218 C 0.31003 0.02123 0.82302 0.0
C219 C 0.04072 0.75133 0.82401 0.0
O220 O -0.01768 0.78512 0.91647 0.0
O221 O 0.07743 0.88698 0.90115 0.0
O222 O 0.83305 0.69577 0.89125 0.0
O223 O 0.87767 0.64786 0.85818 0.0
O224 O 0.88061 0.82789 0.85577 0.0
O225 O -0.01967 0.86705 0.87451 0.0
O226 O 0.00214 0.88086 0.79831 0.0
O227 O 0.91346 0.76931 0.80537 0.0
O228 O 0.17257 0.92549 0.85501 0.0
O229 O 0.13466 -0.01739 0.82601 0.0
O230 O 0.07331 0.80443 0.80482 0.0
O231 O 0.02629 0.76957 0.85212 0.0
H232 H 0.72038 0.53253 0.91141 0.0
H233 H 0.71386 0.49518 0.9706 0.0
H234 H 0.93403 0.62179 0.97833 0.0
H235 H 0.93933 0.65192 0.91904 0.0
H236 H 0.17479 0.95122 0.76777 0.0
H237 H 0.26441 0.96696 0.72716 0.0
H238 H 0.41293 0.04913 0.80954 0.0
H239 H 0.32269 0.0358 0.84989 0.0
H240 H 0.07877 0.24357 1.16364 0.0
H241 H 0.02039 0.20672 0.27051 0.0
H242 H 0.08745 0.148 0.27674 0.0
H243 H 0.14048 0.08553 0.24754 0.0
H244 H 0.1873 0.11648 1.13878 0.0
H245 H 0.14524 0.1974 1.13708 0.0
C246 C 0.08303 0.22489 0.18862 0.0
C247 C 0.04378 0.22704 0.21629 0.0
C248 C 0.11691 0.18742 0.19111 0.0
C249 C 0.05001 0.20445 0.24879 0.0
C250 C 0.08705 0.16974 0.25209 0.0
C251 C 0.14143 0.11035 0.22365 0.0
C252 C 0.16528 0.09424 0.19319 0.0
C253 C 0.11657 0.15678 0.22274 0.0
C254 C 0.16802 0.12745 1.16242 0.0
C255 C 0.14451 0.17409 1.16143 0.0
H256 H 0.9366 0.11733 0.50095 0.0
H257 H 0.92894 0.05107 0.60505 0.0
H258 H 0.05432 0.10869 0.60666 0.0
H259 H 0.16322 0.1586 0.57366 0.0
H260 H 0.16545 0.21838 0.46823 0.0
H261 H 0.04427 0.18008 0.47126 0.0
C262 C -0.0372 0.118 0.52442 0.0
C263 C 0.9251 0.07941 0.55248 0.0
C264 C 0.03329 0.147 0.52419 0.0
C265 C 0.95808 0.08054 0.58308 0.0
C266 C 0.02933 0.11204 0.58367 0.0
C267 C 0.13674 0.16284 0.55149 0.0
C268 C 0.17224 0.18996 0.52067 0.0
C269 C 0.06698 0.14157 0.55354 0.0
C270 C 0.13848 0.19677 0.49213 0.0
C271 C 0.06954 0.17569 0.4939 0.0
H272 H -0.00025 0.97604 0.91468 0.0
H273 H 0.91758 0.94592 0.81201 0.0
H274 H -0.00748 0.0681 0.80039 0.0
H275 H 0.08928 0.17858 0.81773 0.0
H276 H 0.16844 0.21073 0.92129 0.0
H277 H 0.08972 0.08955 0.93384 0.0
C278 C -0.00356 -0.00274 0.8903 0.0
C279 C 0.95366 0.95341 0.86418 0.0
C280 C 0.04129 0.06609 0.88359 0.0
C281 C 0.94945 0.97979 0.83253 0.0
C282 C -0.0066 0.04896 0.82571 0.0
C283 C 0.08889 0.15919 0.84315 0.0
C284 C 0.13384 0.20298 0.86869 0.0
C285 C 0.04105 0.09162 0.85066 0.0
C286 C 0.13452 0.17736 0.90123 0.0
C287 C 0.08882 0.10878 0.90854 0.0
H288 H 0.23511 0.38011 1.10809 0.0
H289 H 0.43669 0.54854 1.13008 0.0
H290 H 0.41819 0.62149 1.0907 0.0
H291 H 0.356 0.62674 1.04034 0.0
H292 H 0.15831 0.45346 1.01587 0.0
H293 H 0.16231 0.39523 1.067 0.0
C294 C 0.27394 0.4336 1.10543 0.0
C295 C 0.33792 0.4583 1.12115 0.0
C296 C 0.2638 0.47448 1.08191 0.0
C297 C 0.38761 0.52786 1.11749 0.0
C298 C 0.37713 0.56955 1.09492 0.0
C299 C 0.31304 0.57704 1.04673 0.0
C300 C 0.25813 0.5439 1.02359 0.0
C301 C 0.3172 0.54183 1.07531 0.0
C302 C 0.20171 0.48046 1.03288 0.0
C303 C 0.20428 0.44635 1.06201 0.0
H304 H 0.9526 0.39575 0.42805 0.0
H305 H 0.1153 0.533 0.36078 0.0
H306 H 0.0321 0.53171 0.32083 0.0
H307 H 0.91586 0.46926 0.29898 0.0
H308 H 0.75245 0.32572 0.36397 0.0
H309 H 0.83313 0.35293 0.41119 0.0
C310 C -0.03029 0.4261 0.40485 0.0
C311 C 0.03975 0.46247 0.39677 0.0
C312 C 0.92152 0.42349 0.38147 0.0
C313 C 0.0616 0.50373 0.36737 0.0
C314 C 0.014 0.50278 0.3444 0.0
C315 C 0.89691 0.44611 0.3239 0.0
C316 C 0.82849 0.39382 0.32758 0.0
C317 C 0.94397 0.4597 0.35028 0.0
C318 C 0.80522 0.3649 0.36023 0.0
C319 C 0.85146 0.37998 0.38712 0.0
H320 H 0.64126 0.96013 0.7773 0.0
H321 H 0.68708 0.14665 0.72491 0.0
H322 H 0.60825 0.07937 0.67918 0.0
H323 H 0.54824 0.9694 0.64881 0.0
H324 H 0.50547 0.78296 0.70013 0.0
H325 H 0.55595 0.84871 0.75318 0.0
C326 C 0.63141 -0.01343 0.75697 0.0
C327 C 0.6725 0.05831 0.75376 0.0
C328 C 0.58539 0.94745 0.73075 0.0
C329 C 0.65824 0.09127 0.72727 0.0
C330 C 0.61244 0.0528 0.70122 0.0
C331 C 0.5468 0.94235 0.67197 0.0
C332 C 0.52544 0.87165 0.67017 0.0
C333 C 0.57889 -0.01916 0.70172 0.0
C334 C 0.52333 0.83769 0.70064 0.0
C335 C 0.55277 0.87539 0.73089 0.0
H336 H 0.79462 0.71131 1.10691 0.0
H337 H 0.00841 0.77282 1.11347 0.0
H338 H -0.01032 0.67493 1.07675 0.0
H339 H 0.91941 0.59156 1.03214 0.0
H340 H 0.71153 0.54888 1.01815 0.0
H341 H 0.71988 0.61457 1.0695 0.0
C342 C 0.83708 0.703 1.10052 0.0
C343 C 0.90319 0.7507 1.11179 0.0
C344 C 0.82694 0.64942 1.07775 0.0
C345 C 0.95708 0.73746 1.10473 0.0
C346 C 0.94647 0.68167 1.08352 0.0
C347 C 0.8757 0.5965 1.04003 0.0
C348 C 0.81697 0.56923 1.019 0.0
C349 C 0.88263 0.64038 1.068 0.0
C350 C 0.75894 0.57074 1.03225 0.0
C351 C 0.76372 0.60965 1.06172 0.0
H352 H 0.20186 0.80021 0.4558 0.0
H353 H -0.01158 0.69555 0.42839 0.0
H354 H 0.01336 0.65152 0.37567 0.0
H355 H 0.09805 0.67579 0.33049 0.0
H356 H 0.31266 0.78673 0.35536 0.0
H357 H 0.28495 0.79455 0.41577 0.0
C358 C 0.16062 0.76601 0.43877 0.0
C359 C 0.0939 0.75356 0.44542 0.0
C360 C 0.17573 0.74365 0.40745 0.0
C361 C 0.04052 0.70703 0.42383 0.0
C362 C 0.05482 0.68238 0.3933 0.0
C363 C 0.13898 0.69886 0.34921 0.0
C364 C 0.20746 0.73384 0.33807 0.0
C365 C 0.12275 0.70523 0.38363 0.0
C366 C 0.25946 0.76202 0.36305 0.0
C367 C 0.24366 0.76673 0.39762 0.0
H368 H 0.47163 0.12214 0.76284 0.0
H369 H 0.34381 0.92955 0.70957 0.0
H370 H 0.41305 0.97336 0.65756 0.0
H371 H 0.48651 0.07603 0.62442 0.0
H372 H 0.613 0.26903 0.67749 0.0
H373 H 0.56947 0.21411 0.73295 0.0
C374 C 0.46042 0.08854 0.7404 0.0
C375 C 0.40066 0.024 0.73945 0.0
C376 C 0.49944 0.11455 0.71041 0.0
C377 C 0.38785 -0.01926 0.71034 0.0
C378 C 0.42734 0.00572 0.6806 0.0
C379 C 0.50706 0.10553 0.64811 0.0
C380 C 0.55073 0.17704 0.64694 0.0
C381 C 0.47976 0.07431 0.6797 0.0
C382 C 0.57775 0.2142 0.67787 0.0
C383 C 0.55241 0.18297 0.70953 0.0
H384 H 0.4836 0.02683 1.116 0.0
H385 H 0.45941 0.03449 0.22625 0.0
H386 H 0.56684 0.03427 0.23491 0.0
H387 H 0.67253 0.04235 0.21089 0.0
H388 H 0.69445 0.02893 1.10082 0.0
H389 H 0.58282 0.02057 1.09218 0.0
C390 C 0.50136 0.02719 1.14192 0.0
C391 C 0.46404 0.03126 1.17045 0.0
C392 C 0.56297 0.0267 1.14665 0.0
C393 C 0.48717 0.03125 0.2039 0.0
C394 C 0.54883 0.03161 0.20884 0.0
C395 C 0.65238 0.03677 0.18504 0.0
C396 C 0.69174 0.03697 1.15645 0.0
C397 C 0.58792 0.03103 1.18039 0.0
C398 C 0.66498 0.02894 1.12314 0.0
C399 C 0.60134 0.02441 1.11824 0.0
H400 H 0.5338 0.49238 0.47394 0.0
H401 H 0.47885 0.53646 0.57447 0.0
H402 H 0.58858 0.64259 0.5787 0.0
H403 H 0.69454 0.72699 0.55186 0.0
H404 H 0.74704 0.69054 0.44919 0.0
H405 H 0.64418 0.57647 0.44772 0.0
C406 C 0.54676 0.52471 0.49699 0.0
C407 C 0.49894 0.50711 0.52395 0.0
C408 C 0.60886 0.58703 0.4986 0.0
C409 C 0.5153 0.54943 0.55351 0.0
C410 C 0.57773 0.61004 0.55586 0.0
C411 C 0.6835 0.69413 0.5291 0.0
C412 C 0.7273 0.71728 0.5004 0.0
C413 C 0.62393 0.63014 0.5282 0.0
C414 C 0.71342 0.67376 0.47143 0.0
C415 C 0.65473 0.60876 0.47062 0.0
H416 H 0.0481 0.48207 0.77921 0.0
H417 H 0.04561 0.46309 0.88976 0.0
H418 H 0.03727 0.56731 0.89747 0.0
H419 H 0.03309 0.66475 0.87297 0.0
H420 H 0.04646 0.69167 0.76285 0.0
H421 H 0.04772 0.58313 0.75453 0.0
C422 C 0.04552 0.50095 0.80489 0.0
C423 C 0.04729 0.46537 0.83388 0.0
C424 C 0.0426 0.56201 0.80913 0.0
C425 C 0.04471 0.49019 0.86711 0.0
C426 C 0.03971 0.54951 0.87154 0.0
C427 C 0.03584 0.64658 0.84714 0.0
C428 C 0.03921 0.68541 0.8185 0.0
C429 C 0.0389 0.5859 0.84276 0.0
C430 C 0.04374 0.66215 0.7852 0.0
C431 C 0.04452 0.60033 0.78049 0.0
H432 H 0.30949 0.21108 0.27279 0.0
H433 H 0.33914 0.04616 0.30791 0.0
H434 H 0.35267 0.09101 0.36717 0.0
H435 H 0.35562 0.1773 0.41033 0.0
H436 H 0.31844 0.33763 0.37558 0.0
H437 H 0.30877 0.295 0.31611 0.0
C438 C 0.31921 0.18489 0.2933 0.0
C439 C 0.32373 0.12493 0.28509 0.0
C440 C 0.32576 0.21055 0.32802 0.0
C441 C 0.33537 0.09205 0.31274 0.0
C442 C 0.34327 0.11796 0.34695 0.0
C443 C 0.34585 0.2034 0.3898 0.0
C444 C 0.33856 0.26176 0.39818 0.0
C445 C 0.33864 0.17729 0.35511 0.0
C446 C 0.32467 0.29319 0.37063 0.0
C447 C 0.31905 0.26861 0.33629 0.0
H448 H 0.36519 0.39511 0.64221 0.0
H449 H 0.16687 0.27192 0.59612 0.0
H450 H 0.11204 0.26455 0.65144 0.0
H451 H 0.11742 0.29421 0.7136 0.0
H452 H 0.3128 0.42782 0.76012 0.0
H453 H 0.36999 0.43072 0.70521 0.0
C454 C 0.31005 0.36601 0.6443 0.0
C455 C 0.27095 0.33225 0.61423 0.0
C456 C 0.27745 0.36464 0.6768 0.0
C457 C 0.19924 0.29697 0.61817 0.0
C458 C 0.16732 0.29318 0.65012 0.0
C459 C 0.1726 0.32432 0.71193 0.0
C460 C 0.21001 0.36069 0.7418 0.0
C461 C 0.20549 0.327 0.67971 0.0
C462 C 0.28173 0.39948 0.73813 0.0
C463 C 0.31479 0.40086 0.70646 0.0
H464 H 0.04758 0.36691 0.97492 0.0
H465 H 0.00933 0.16854 0.93673 0.0
H466 H -0.03729 0.11829 0.99255 0.0
H467 H 0.93106 0.12807 1.05319 0.0
H468 H 0.95681 0.32186 1.091 0.0
H469 H 0.0083 0.37486 1.03559 0.0
C470 C 0.02931 0.31272 0.97876 0.0
C471 C 0.03376 0.27238 0.9508 0.0
C472 C -0.00086 0.28248 1.01139 0.0
C473 C 0.00802 0.20184 0.95703 0.0
C474 C -0.01925 0.17259 0.9893 0.0
C475 C 0.94727 0.18187 1.04941 0.0
C476 C 0.9391 0.2202 1.07705 0.0
C477 C -0.02433 0.212 1.01679 0.0
C478 C -0.03898 0.29004 1.07074 0.0
C479 C -0.00885 0.32074 1.0388 0.0
H480 H 0.76255 0.06895 0.30944 0.0
H481 H 0.9552 0.07968 0.28537 0.0
H482 H 0.95837 0.03825 0.34211 0.0
H483 H 0.90743 -0.00425 0.39906 0.0
H484 H 0.7107 0.97346 0.42406 0.0
H485 H 0.70806 0.02064 0.36764 0.0
C486 C 0.80559 0.06295 0.31667 0.0
C487 C 0.85957 0.0798 0.29233 0.0
C488 C 0.80614 0.03565 0.34998 0.0
C489 C 0.91347 0.06924 0.30283 0.0
C490 C 0.91522 0.04471 0.33563 0.0
C491 C 0.8636 0.00095 0.39242 0.0
C492 C 0.80937 0.98055 0.41665 0.0
C493 C 0.86193 0.02728 0.35947 0.0
C494 C 0.75331 -0.01209 0.40653 0.0
C495 C 0.75196 0.01542 0.37401 0.0
H496 H 0.78089 0.80256 0.64637 0.0
H497 H -0.02233 0.97272 0.61937 0.0
H498 H 0.02214 0.96974 0.67563 0.0
H499 H 0.00861 0.91825 0.73315 0.0
H500 H 0.81614 0.74241 0.75992 0.0
H501 H 0.76833 0.74814 0.70442 0.0
C502 C 0.83332 0.83942 0.65282 0.0
C503 C 0.87494 0.88869 0.62784 0.0
C504 C 0.86035 0.83613 0.68574 0.0
C505 C 0.94331 0.9346 0.63734 0.0
C506 C -0.03065 0.93285 0.66987 0.0
C507 C 0.95609 0.88099 0.72705 0.0
C508 C 0.91662 0.82987 0.75154 0.0
C509 C 0.92883 0.88371 0.69437 0.0
C510 C 0.84864 0.78229 0.74219 0.0
C511 C 0.82091 0.78567 0.71015 0.0
H512 H 0.14307 0.96346 0.95167 0.0
H513 H 0.00143 0.75661 0.98249 0.0
H514 H 0.05007 0.78419 1.04094 0.0
H515 H 0.134 0.86858 1.08448 0.0
H516 H 0.27132 0.07564 1.05162 0.0
H517 H 0.22328 0.04626 0.99392 0.0
C518 C 0.12228 0.92388 0.97101 0.0
C519 C 0.06817 0.85745 0.96189 0.0
C520 C 0.15006 0.94037 1.00488 0.0
C521 C 0.04258 0.80806 0.98811 0.0
C522 C 0.07064 0.82397 1.02182 0.0
C523 C 0.15378 0.90724 1.06469 0.0
C524 C 0.20737 0.9748 1.07316 0.0
C525 C 0.12471 0.89008 1.03072 0.0
C526 C 0.23073 0.02355 1.04665 0.0
C527 C 0.20306 0.00673 1.01328 0.0
loop_
_geom_bond_atom_site_label_1
_geom_bond_atom_site_label_2
_geom_bond_distance
_geom_bond_site_symmetry_2
_ccdc_geom_bond_type
Ho0 C3 2.811 . S
Ho0 O20 2.322 . S
Ho0 O22 2.378 . S
Ho0 O23 2.524 . S
Ho0 O24 2.381 . S
Ho0 O25 2.669 . S
Ho0 O27 2.346 1_554 S
Ho0 O31 2.305 . S
Ho1 C12 2.811 . S
Ho1 O21 2.346 1_556 S
Ho1 O25 2.305 1_556 S
Ho1 O26 2.322 . S
Ho1 O28 2.378 . S
Ho1 O29 2.524 . S
Ho1 O30 2.381 . S
Ho1 O31 2.669 1_556 S
C2 O20 1.259 . S
C2 O21 1.268 . S
C3 Ho0 2.811 . S
C3 C4 1.488 . S
C3 O22 1.215 . S
C3 O23 1.289 . S
C4 C3 1.488 . S
C4 C5 1.348 . S
C4 C9 1.413 . S
C5 C4 1.348 . S
C5 C6 1.442 . S
C5 H32 0.930 . S
C6 C5 1.442 . S
C6 C7 1.381 . S
C6 H33 0.931 . S
C7 C6 1.381 . S
C7 C8 1.321 1_545 S
C8 C7 1.321 1_565 S
C8 C9 1.403 1_565 S
C8 H34 0.934 . S
C9 C4 1.413 . S
C9 C8 1.403 1_545 S
C9 H35 0.930 . S
C10 O24 1.275 . S
C10 O25 1.256 . S
C11 O26 1.259 . S
C11 O27 1.268 . S
C12 Ho1 2.811 . S
C12 C13 1.488 . S
C12 O28 1.215 . S
C12 O29 1.289 . S
C13 C12 1.488 . S
C13 C14 1.348 . S
C13 C18 1.413 . S
C14 C13 1.348 . S
C14 C15 1.442 . S
C14 H36 0.930 . S
C15 C14 1.442 . S
C15 C16 1.381 . S
C15 H37 0.931 . S
C16 C15 1.381 . S
C16 C17 1.321 . S
C17 C16 1.321 . S
C17 C18 1.403 . S
C17 H38 0.934 . S
C18 C13 1.413 . S
C18 C17 1.403 . S
C18 H39 0.930 . S
C19 O30 1.275 1_554 S
C19 O31 1.256 . S
O20 Ho0 2.322 . S
O20 C2 1.259 . S
O21 Ho1 2.346 1_554 S
O21 C2 1.268 . S
O22 Ho0 2.378 . S
O22 C3 1.215 . S
O23 Ho0 2.524 . S
O23 C3 1.289 . S
O24 Ho0 2.381 . S
O24 C10 1.275 . S
O25 Ho0 2.669 . S
O25 Ho1 2.305 1_554 S
O25 C10 1.256 . S
O26 Ho1 2.322 . S
O26 C11 1.259 . S
O27 Ho0 2.346 1_556 S
O27 C11 1.268 . S
O28 Ho1 2.378 . S
O28 C12 1.215 . S
O29 Ho1 2.524 . S
O29 C12 1.289 . S
O30 Ho1 2.381 . S
O30 C19 1.275 1_556 S
O31 Ho0 2.305 . S
O31 Ho1 2.669 1_554 S
O31 C19 1.256 . S
H32 C5 0.930 . S
H33 C6 0.931 . S
H34 C8 0.934 . S
H35 C9 0.930 . S
H36 C14 0.930 . S
H37 C15 0.931 . S
H38 C17 0.934 . S
H39 C18 0.930 . S
Ho40 C43 2.811 . S
Ho40 O60 2.322 . S
Ho40 O62 2.378 . S
Ho40 O63 2.524 . S
Ho40 O64 2.381 . S
Ho40 O65 2.669 . S
Ho40 O67 2.346 . S
Ho40 O71 2.305 . S
Ho41 C52 2.811 . S
Ho41 O61 2.346 . S
Ho41 O65 2.305 . S
Ho41 O66 2.322 . S
Ho41 O68 2.378 . S
Ho41 O69 2.524 . S
Ho41 O70 2.381 . S
Ho41 O71 2.669 . S
C42 O60 1.259 . S
C42 O61 1.268 . S
C43 Ho40 2.811 . S
C43 C44 1.488 . S
C43 O62 1.215 . S
C43 O63 1.289 . S
C44 C43 1.488 . S
C44 C45 1.348 . S
C44 C49 1.413 . S
C45 C44 1.348 . S
C45 C46 1.442 . S
C45 H72 0.930 . S
C46 C45 1.442 . S
C46 C47 1.381 . S
C46 H73 0.931 . S
C47 C46 1.381 . S
C47 C48 1.321 . S
C48 C47 1.321 . S
C48 C49 1.403 . S
C48 H74 0.934 . S
C49 C44 1.413 . S
C49 C48 1.403 . S
C49 H75 0.930 . S
C50 O64 1.275 . S
C50 O65 1.256 . S
C51 O66 1.259 . S
C51 O67 1.268 . S
C52 Ho41 2.811 . S
C52 C53 1.488 . S
C52 O68 1.215 . S
C52 O69 1.289 . S
C53 C52 1.488 . S
C53 C54 1.348 . S
C53 C58 1.413 . S
C54 C53 1.348 . S
C54 C55 1.442 . S
C54 H76 0.930 . S
C55 C54 1.442 . S
C55 C56 1.381 . S
C55 H77 0.931 . S
C56 C55 1.381 . S
C56 C57 1.321 . S
C57 C56 1.321 . S
C57 C58 1.403 . S
C57 H78 0.934 . S
C58 C53 1.413 . S
C58 C57 1.403 . S
C58 H79 0.930 . S
C59 O70 1.275 . S
C59 O71 1.256 . S
O60 Ho40 2.322 . S
O60 C42 1.259 . S
O61 Ho41 2.346 . S
O61 C42 1.268 . S
O62 Ho40 2.378 . S
O62 C43 1.215 . S
O63 Ho40 2.524 . S
O63 C43 1.289 . S
O64 Ho40 2.381 . S
O64 C50 1.275 . S
O65 Ho40 2.669 . S
O65 Ho41 2.305 . S
O65 C50 1.256 . S
O66 Ho41 2.322 . S
O66 C51 1.259 . S
O67 Ho40 2.346 . S
O67 C51 1.268 . S
O68 Ho41 2.378 . S
O68 C52 1.215 . S
O69 Ho41 2.524 . S
O69 C52 1.289 . S
O70 Ho41 2.381 . S
O70 C59 1.275 . S
O71 Ho40 2.305 . S
O71 Ho41 2.669 . S
O71 C59 1.256 . S
H72 C45 0.930 . S
H73 C46 0.931 . S
H74 C48 0.934 . S
H75 C49 0.930 . S
H76 C54 0.930 . S
H77 C55 0.931 . S
H78 C57 0.934 . S
H79 C58 0.930 . S
Ho80 C83 2.811 . S
Ho80 O100 2.322 1_455 S
Ho80 O102 2.378 . S
Ho80 O103 2.524 . S
Ho80 O104 2.381 . S
Ho80 O105 2.669 1_455 S
Ho80 O107 2.346 . S
Ho80 O111 2.305 . S
Ho81 C92 2.811 . S
Ho81 O101 2.346 . S
Ho81 O105 2.305 . S
Ho81 O106 2.322 1_655 S
Ho81 O108 2.378 . S
Ho81 O109 2.524 . S
Ho81 O110 2.381 . S
Ho81 O111 2.669 1_655 S
C82 O100 1.259 . S
C82 O101 1.268 . S
C83 Ho80 2.811 . S
C83 C84 1.488 . S
C83 O102 1.215 . S
C83 O103 1.289 . S
C84 C83 1.488 . S
C84 C85 1.348 . S
C84 C89 1.413 . S
C85 C84 1.348 . S
C85 C86 1.442 . S
C85 H112 0.930 . S
C86 C85 1.442 . S
C86 C87 1.381 . S
C86 H113 0.931 . S
C87 C86 1.381 . S
C87 C88 1.321 . S
C88 C87 1.321 . S
C88 C89 1.403 . S
C88 H114 0.934 . S
C89 C84 1.413 . S
C89 C88 1.403 . S
C89 H115 0.930 . S
C90 O104 1.275 . S
C90 O105 1.256 1_455 S
C91 O106 1.259 . S
C91 O107 1.268 . S
C92 Ho81 2.811 . S
C92 C93 1.488 . S
C92 O108 1.215 . S
C92 O109 1.289 . S
C93 C92 1.488 . S
C93 C94 1.348 . S
C93 C98 1.413 . S
C94 C93 1.348 . S
C94 C95 1.442 . S
C94 H116 0.930 . S
C95 C94 1.442 . S
C95 C96 1.381 . S
C95 H117 0.931 . S
C96 C95 1.381 . S
C96 C97 1.321 . S
C97 C96 1.321 . S
C97 C98 1.403 . S
C97 H118 0.934 . S
C98 C93 1.413 . S
C98 C97 1.403 . S
C98 H119 0.930 . S
C99 O110 1.275 . S
C99 O111 1.256 1_655 S
O100 Ho80 2.322 1_655 S
O100 C82 1.259 . S
O101 Ho81 2.346 . S
O101 C82 1.268 . S
O102 Ho80 2.378 . S
O102 C83 1.215 . S
O103 Ho80 2.524 . S
O103 C83 1.289 . S
O104 Ho80 2.381 . S
O104 C90 1.275 . S
O105 Ho80 2.669 1_655 S
O105 Ho81 2.305 . S
O105 C90 1.256 1_655 S
O106 Ho81 2.322 1_455 S
O106 C91 1.259 . S
O107 Ho80 2.346 . S
O107 C91 1.268 . S
O108 Ho81 2.378 . S
O108 C92 1.215 . S
O109 Ho81 2.524 . S
O109 C92 1.289 . S
O110 Ho81 2.381 . S
O110 C99 1.275 . S
O111 Ho80 2.305 . S
O111 Ho81 2.669 1_455 S
O111 C99 1.256 1_455 S
H112 C85 0.930 . S
H113 C86 0.931 . S
H114 C88 0.934 . S
H115 C89 0.930 . S
H116 C94 0.930 . S
H117 C95 0.931 . S
H118 C97 0.934 . S
H119 C98 0.930 . S
Ho120 C123 2.811 . S
Ho120 O140 2.322 1_545 S
Ho120 O142 2.378 . S
Ho120 O143 2.524 . S
Ho120 O144 2.381 . S
Ho120 O145 2.669 1_545 S
Ho120 O147 2.346 1_554 S
Ho120 O151 2.305 . S
Ho121 C132 2.811 . S
Ho121 O141 2.346 1_556 S
Ho121 O145 2.305 1_556 S
Ho121 O146 2.322 1_565 S
Ho121 O148 2.378 . S
Ho121 O149 2.524 . S
Ho121 O150 2.381 . S
Ho121 O151 2.669 1_566 S
C122 O140 1.259 . S
C122 O141 1.268 . S
C123 Ho120 2.811 . S
C123 C124 1.488 . S
C123 O142 1.215 . S
C123 O143 1.289 . S
C124 C123 1.488 . S
C124 C125 1.348 . S
C124 C129 1.413 . S
C125 C124 1.348 . S
C125 C126 1.442 . S
C125 H152 0.930 . S
C126 C125 1.442 . S
C126 C127 1.381 . S
C126 H153 0.931 . S
C127 C126 1.381 . S
C127 C128 1.321 . S
C128 C127 1.321 . S
C128 C129 1.403 . S
C128 H154 0.934 . S
C129 C124 1.413 . S
C129 C128 1.403 . S
C129 H155 0.930 . S
C130 O144 1.275 . S
C130 O145 1.256 1_545 S
C131 O146 1.259 . S
C131 O147 1.268 . S
C132 Ho121 2.811 . S
C132 C133 1.488 . S
C132 O148 1.215 . S
C132 O149 1.289 . S
C133 C132 1.488 . S
C133 C134 1.348 . S
C133 C138 1.413 . S
C134 C133 1.348 . S
C134 C135 1.442 . S
C134 H156 0.930 . S
C135 C134 1.442 . S
C135 C136 1.381 . S
C135 H157 0.931 . S
C136 C135 1.381 . S
C136 C137 1.321 . S
C137 C136 1.321 . S
C137 C138 1.403 . S
C137 H158 0.934 . S
C138 C133 1.413 . S
C138 C137 1.403 . S
C138 H159 0.930 . S
C139 O150 1.275 1_554 S
C139 O151 1.256 1_565 S
O140 Ho120 2.322 1_565 S
O140 C122 1.259 . S
O141 Ho121 2.346 1_554 S
O141 C122 1.268 . S
O142 Ho120 2.378 . S
O142 C123 1.215 . S
O143 Ho120 2.524 . S
O143 C123 1.289 . S
O144 Ho120 2.381 . S
O144 C130 1.275 . S
O145 Ho120 2.669 1_565 S
O145 Ho121 2.305 1_554 S
O145 C130 1.256 1_565 S
O146 Ho121 2.322 1_545 S
O146 C131 1.259 . S
O147 Ho120 2.346 1_556 S
O147 C131 1.268 . S
O148 Ho121 2.378 . S
O148 C132 1.215 . S
O149 Ho121 2.524 . S
O149 C132 1.289 . S
O150 Ho121 2.381 . S
O150 C139 1.275 1_556 S
O151 Ho120 2.305 . S
O151 Ho121 2.669 1_544 S
O151 C139 1.256 1_545 S
H152 C125 0.930 . S
H153 C126 0.931 . S
H154 C128 0.934 . S
H155 C129 0.930 . S
H156 C134 0.930 . S
H157 C135 0.931 . S
H158 C137 0.934 . S
H159 C138 0.930 . S
Ho160 C163 2.811 . S
Ho160 O180 2.322 . S
Ho160 O182 2.378 . S
Ho160 O183 2.524 . S
Ho160 O184 2.381 . S
Ho160 O185 2.669 . S
Ho160 O187 2.346 . S
Ho160 O191 2.305 . S
Ho161 C172 2.811 1_655 S
Ho161 O181 2.346 . S
Ho161 O185 2.305 . S
Ho161 O186 2.322 . S
Ho161 O188 2.378 . S
Ho161 O189 2.524 1_655 S
Ho161 O190 2.381 . S
Ho161 O191 2.669 . S
C162 O180 1.259 . S
C162 O181 1.268 . S
C163 Ho160 2.811 . S
C163 C164 1.488 . S
C163 O182 1.215 . S
C163 O183 1.289 . S
C164 C163 1.488 . S
C164 C165 1.348 . S
C164 C169 1.413 . S
C165 C164 1.348 . S
C165 C166 1.442 . S
C165 H192 0.930 . S
C166 C165 1.442 . S
C166 C167 1.381 . S
C166 H193 0.931 . S
C167 C166 1.381 . S
C167 C168 1.321 . S
C168 C167 1.321 . S
C168 C169 1.403 . S
C168 H194 0.934 . S
C169 C164 1.413 . S
C169 C168 1.403 . S
C169 H195 0.930 . S
C170 O184 1.275 1_455 S
C170 O185 1.256 1_455 S
C171 O186 1.259 . S
C171 O187 1.268 . S
C172 Ho161 2.811 1_455 S
C172 C173 1.488 . S
C172 O188 1.215 1_455 S
C172 O189 1.289 . S
C173 C172 1.488 . S
C173 C174 1.348 . S
C173 C178 1.413 1_455 S
C174 C173 1.348 . S
C174 C175 1.442 . S
C174 H196 0.930 . S
C175 C174 1.442 . S
C175 C176 1.381 . S
C175 H197 0.931 . S
C176 C175 1.381 . S
C176 C177 1.321 . S
C177 C176 1.321 . S
C177 C178 1.403 1_455 S
C177 H198 0.934 . S
C178 C173 1.413 1_655 S
C178 C177 1.403 1_655 S
C178 H199 0.930 . S
C179 O190 1.275 . S
C179 O191 1.256 . S
O180 Ho160 2.322 . S
O180 C162 1.259 . S
O181 Ho161 2.346 . S
O181 C162 1.268 . S
O182 Ho160 2.378 . S
O182 C163 1.215 . S
O183 Ho160 2.524 . S
O183 C163 1.289 . S
O184 Ho160 2.381 . S
O184 C170 1.275 1_655 S
O185 Ho160 2.669 . S
O185 Ho161 2.305 . S
O185 C170 1.256 1_655 S
O186 Ho161 2.322 . S
O186 C171 1.259 . S
O187 Ho160 2.346 . S
O187 C171 1.268 . S
O188 Ho161 2.378 . S
O188 C172 1.215 1_655 S
O189 Ho161 2.524 1_455 S
O189 C172 1.289 . S
O190 Ho161 2.381 . S
O190 C179 1.275 . S
O191 Ho160 2.305 . S
O191 Ho161 2.669 . S
O191 C179 1.256 . S
H192 C165 0.930 . S
H193 C166 0.931 . S
H194 C168 0.934 . S
H195 C169 0.930 . S
H196 C174 0.930 . S
H197 C175 0.931 . S
H198 C177 0.934 . S
H199 C178 0.930 . S
Ho200 C203 2.811 . S
Ho200 O220 2.322 . S
Ho200 O222 2.378 . S
Ho200 O223 2.524 . S
Ho200 O224 2.381 . S
Ho200 O225 2.669 . S
Ho200 O227 2.346 . S
Ho200 O231 2.305 . S
Ho201 C212 2.811 1_565 S
Ho201 O221 2.346 . S
Ho201 O225 2.305 . S
Ho201 O226 2.322 . S
Ho201 O228 2.378 . S
Ho201 O229 2.524 1_565 S
Ho201 O230 2.381 . S
Ho201 O231 2.669 . S
C202 O220 1.259 . S
C202 O221 1.268 . S
C203 Ho200 2.811 . S
C203 C204 1.488 . S
C203 O222 1.215 . S
C203 O223 1.289 . S
C204 C203 1.488 . S
C204 C205 1.348 . S
C204 C209 1.413 . S
C205 C204 1.348 . S
C205 C206 1.442 . S
C205 H232 0.930 . S
C206 C205 1.442 . S
C206 C207 1.381 . S
C206 H233 0.931 . S
C207 C206 1.381 . S
C207 C208 1.321 1_455 S
C208 C207 1.321 1_655 S
C208 C209 1.403 1_655 S
C208 H234 0.934 . S
C209 C204 1.413 . S
C209 C208 1.403 1_455 S
C209 H235 0.930 . S
C210 O224 1.275 1_545 S
C210 O225 1.256 1_545 S
C211 O226 1.259 . S
C211 O227 1.268 . S
C212 Ho201 2.811 1_545 S
C212 C213 1.488 . S
C212 O228 1.215 1_545 S
C212 O229 1.289 . S
C213 C212 1.488 . S
C213 C214 1.348 . S
C213 C218 1.413 1_545 S
C214 C213 1.348 . S
C214 C215 1.442 . S
C214 H236 0.930 . S
C215 C214 1.442 . S
C215 C216 1.381 . S
C215 H237 0.931 . S
C216 C215 1.381 . S
C216 C217 1.321 . S
C217 C216 1.321 . S
C217 C218 1.403 1_545 S
C217 H238 0.934 . S
C218 C213 1.413 1_565 S
C218 C217 1.403 1_565 S
C218 H239 0.930 . S
C219 O230 1.275 . S
C219 O231 1.256 . S
O220 Ho200 2.322 . S
O220 C202 1.259 . S
O221 Ho201 2.346 . S
O221 C202 1.268 . S
O222 Ho200 2.378 . S
O222 C203 1.215 . S
O223 Ho200 2.524 . S
O223 C203 1.289 . S
O224 Ho200 2.381 . S
O224 C210 1.275 1_565 S
O225 Ho200 2.669 . S
O225 Ho201 2.305 . S
O225 C210 1.256 1_565 S
O226 Ho201 2.322 . S
O226 C211 1.259 . S
O227 Ho200 2.346 . S
O227 C211 1.268 . S
O228 Ho201 2.378 . S
O228 C212 1.215 1_565 S
O229 Ho201 2.524 1_545 S
O229 C212 1.289 . S
O230 Ho201 2.381 . S
O230 C219 1.275 . S
O231 Ho200 2.305 . S
O231 Ho201 2.669 . S
O231 C219 1.256 . S
H232 C205 0.930 . S
H233 C206 0.931 . S
H234 C208 0.934 . S
H235 C209 0.930 . S
H236 C214 0.930 . S
H237 C215 0.931 . S
H238 C217 0.934 . S
H239 C218 0.930 . S
H240 C246 0.930 1_565 S
H241 C249 0.930 . S
H242 C250 0.930 . S
H243 C251 0.930 . S
H244 C254 0.930 . S
H245 C255 0.930 . S
C246 H240 0.930 1_545 S
C246 C247 1.355 1_455 S
C246 C248 1.415 . S
C247 C246 1.355 1_655 S
C247 C249 1.419 . S
C248 C246 1.415 . S
C248 C253 1.425 . S
C248 C255 1.409 . S
C249 H241 0.930 . S
C249 C247 1.419 . S
C249 C250 1.362 1_655 S
C250 H242 0.930 . S
C250 C249 1.362 1_455 S
C250 C253 1.409 . S
C251 H243 0.930 . S
C251 C252 1.355 . S
C251 C253 1.415 . S
C252 C251 1.355 . S
C252 C254 1.419 . S
C253 C248 1.425 . S
C253 C250 1.409 . S
C253 C251 1.415 . S
C254 H244 0.930 . S
C254 C252 1.419 . S
C254 C255 1.362 . S
C255 H245 0.930 . S
C255 C248 1.409 . S
C255 C254 1.362 . S
H256 C262 0.930 . S
H257 C265 0.930 1_655 S
H258 C266 0.930 1_655 S
H259 C267 0.930 . S
H260 C270 0.930 . S
H261 C271 0.930 . S
C262 H256 0.930 . S
C262 C263 1.355 1_545 S
C262 C264 1.415 . S
C263 C262 1.355 1_565 S
C263 C265 1.419 . S
C264 C262 1.415 . S
C264 C269 1.425 . S
C264 C271 1.409 . S
C265 H257 0.930 1_455 S
C265 C263 1.419 . S
C265 C266 1.362 1_565 S
C266 H258 0.930 1_455 S
C266 C265 1.362 1_545 S
C266 C269 1.409 . S
C267 H259 0.930 . S
C267 C268 1.355 . S
C267 C269 1.415 . S
C268 C267 1.355 . S
C268 C270 1.419 . S
C269 C264 1.425 . S
C269 C266 1.409 . S
C269 C267 1.415 . S
C270 H260 0.930 . S
C270 C268 1.419 . S
C270 C271 1.362 . S
C271 H261 0.930 . S
C271 C264 1.409 . S
C271 C270 1.362 . S
H272 C278 0.930 . S
H273 C281 0.930 . S
H274 C282 0.930 . S
H275 C283 0.930 . S
H276 C286 0.930 . S
H277 C287 0.930 . S
C278 H272 0.930 . S
C278 C279 1.355 . S
C278 C280 1.415 . S
C279 C278 1.355 . S
C279 C281 1.419 . S
C280 C278 1.415 . S
C280 C285 1.425 . S
C280 C287 1.409 . S
C281 H273 0.930 . S
C281 C279 1.419 . S
C281 C282 1.362 . S
C282 H274 0.930 . S
C282 C281 1.362 . S
C282 C285 1.409 . S
C283 H275 0.930 . S
C283 C284 1.355 . S
C283 C285 1.415 . S
C284 C283 1.355 . S
C284 C286 1.419 1_455 S
C285 C280 1.425 . S
C285 C282 1.409 . S
C285 C283 1.415 . S
C286 H276 0.930 . S
C286 C284 1.419 1_655 S
C286 C287 1.362 1_655 S
C287 H277 0.930 . S
C287 C280 1.409 . S
C287 C286 1.362 1_455 S
H288 C294 0.930 . S
H289 C297 0.930 . S
H290 C298 0.930 . S
H291 C299 0.930 . S
H292 C302 0.930 . S
H293 C303 0.930 . S
C294 H288 0.930 . S
C294 C295 1.355 . S
C294 C296 1.415 . S
C295 C294 1.355 . S
C295 C297 1.419 . S
C296 C294 1.415 . S
C296 C301 1.425 . S
C296 C303 1.409 . S
C297 H289 0.930 . S
C297 C295 1.419 . S
C297 C298 1.362 . S
C298 H290 0.930 . S
C298 C297 1.362 . S
C298 C301 1.409 . S
C299 H291 0.930 . S
C299 C300 1.355 . S
C299 C301 1.415 . S
C300 C299 1.355 . S
C300 C302 1.419 . S
C301 C296 1.425 . S
C301 C298 1.409 . S
C301 C299 1.415 . S
C302 H292 0.930 . S
C302 C300 1.419 . S
C302 C303 1.362 . S
C303 H293 0.930 . S
C303 C296 1.409 . S
C303 C302 1.362 . S
H304 C310 0.930 . S
H305 C313 0.930 . S
H306 C314 0.930 . S
H307 C315 0.930 . S
H308 C318 0.930 . S
H309 C319 0.930 . S
C310 H304 0.930 . S
C310 C311 1.355 . S
C310 C312 1.415 . S
C311 C310 1.355 . S
C311 C313 1.419 . S
C312 C310 1.415 . S
C312 C317 1.425 . S
C312 C319 1.409 1_455 S
C313 H305 0.930 . S
C313 C311 1.419 . S
C313 C314 1.362 . S
C314 H306 0.930 . S
C314 C313 1.362 . S
C314 C317 1.409 . S
C315 H307 0.930 . S
C315 C316 1.355 . S
C315 C317 1.415 1_655 S
C316 C315 1.355 . S
C316 C318 1.419 . S
C317 C312 1.425 . S
C317 C314 1.409 . S
C317 C315 1.415 1_455 S
C318 H308 0.930 . S
C318 C316 1.419 . S
C318 C319 1.362 . S
C319 H309 0.930 . S
C319 C312 1.409 1_655 S
C319 C318 1.362 . S
H320 C326 0.930 . S
H321 C329 0.930 . S
H322 C330 0.930 . S
H323 C331 0.930 . S
H324 C334 0.930 . S
H325 C335 0.930 1_545 S
C326 H320 0.930 . S
C326 C327 1.355 . S
C326 C328 1.415 . S
C327 C326 1.355 . S
C327 C329 1.419 . S
C328 C326 1.415 . S
C328 C333 1.425 . S
C328 C335 1.409 1_545 S
C329 H321 0.930 . S
C329 C327 1.419 . S
C329 C330 1.362 . S
C330 H322 0.930 . S
C330 C329 1.362 . S
C330 C333 1.409 . S
C331 H323 0.930 . S
C331 C332 1.355 . S
C331 C333 1.415 1_565 S
C332 C331 1.355 . S
C332 C334 1.419 . S
C333 C328 1.425 . S
C333 C330 1.409 . S
C333 C331 1.415 1_545 S
C334 H324 0.930 . S
C334 C332 1.419 . S
C334 C335 1.362 . S
C335 H325 0.930 1_565 S
C335 C328 1.409 1_565 S
C335 C334 1.362 . S
H336 C342 0.930 . S
H337 C345 0.930 . S
H338 C346 0.930 . S
H339 C347 0.930 . S
H340 C350 0.930 . S
H341 C351 0.930 . S
C342 H336 0.930 . S
C342 C343 1.355 . S
C342 C344 1.415 . S
C343 C342 1.355 . S
C343 C345 1.419 . S
C344 C342 1.415 . S
C344 C349 1.425 . S
C344 C351 1.409 . S
C345 H337 0.930 . S
C345 C343 1.419 . S
C345 C346 1.362 . S
C346 H338 0.930 . S
C346 C345 1.362 . S
C346 C349 1.409 . S
C347 H339 0.930 . S
C347 C348 1.355 . S
C347 C349 1.415 . S
C348 C347 1.355 . S
C348 C350 1.419 . S
C349 C344 1.425 . S
C349 C346 1.409 . S
C349 C347 1.415 . S
C350 H340 0.930 . S
C350 C348 1.419 . S
C350 C351 1.362 . S
C351 H341 0.930 . S
C351 C344 1.409 . S
C351 C350 1.362 . S
H352 C358 0.930 . S
H353 C361 0.930 . S
H354 C362 0.930 . S
H355 C363 0.930 1_545 S
H356 C366 0.930 . S
H357 C367 0.930 . S
C358 H352 0.930 . S
C358 C359 1.355 . S
C358 C360 1.415 . S
C359 C358 1.355 . S
C359 C361 1.419 . S
C360 C358 1.415 . S
C360 C365 1.425 . S
C360 C367 1.409 . S
C361 H353 0.930 . S
C361 C359 1.419 . S
C361 C362 1.362 . S
C362 H354 0.930 . S
C362 C361 1.362 . S
C362 C365 1.409 . S
C363 H355 0.930 1_565 S
C363 C364 1.355 . S
C363 C365 1.415 . S
C364 C363 1.355 . S
C364 C366 1.419 . S
C365 C360 1.425 . S
C365 C362 1.409 . S
C365 C363 1.415 . S
C366 H356 0.930 . S
C366 C364 1.419 . S
C366 C367 1.362 . S
C367 H357 0.930 . S
C367 C360 1.409 . S
C367 C366 1.362 . S
H368 C374 0.930 . S
H369 C377 0.930 . S
H370 C378 0.930 . S
H371 C379 0.930 . S
H372 C382 0.930 . S
H373 C383 0.930 . S
C374 H368 0.930 . S
C374 C375 1.355 . S
C374 C376 1.415 . S
C375 C374 1.355 . S
C375 C377 1.419 . S
C376 C374 1.415 . S
C376 C381 1.425 . S
C376 C383 1.409 . S
C377 H369 0.930 . S
C377 C375 1.419 . S
C377 C378 1.362 . S
C378 H370 0.930 . S
C378 C377 1.362 . S
C378 C381 1.409 . S
C379 H371 0.930 . S
C379 C380 1.355 . S
C379 C381 1.415 . S
C380 C379 1.355 . S
C380 C382 1.419 . S
C381 C376 1.425 . S
C381 C378 1.409 . S
C381 C379 1.415 . S
C382 H372 0.930 . S
C382 C380 1.419 . S
C382 C383 1.362 . S
C383 H373 0.930 . S
C383 C376 1.409 . S
C383 C382 1.362 . S
H384 C390 0.930 . S
H385 C393 0.930 . S
H386 C394 0.930 . S
H387 C395 0.930 1_565 S
H388 C398 0.930 . S
H389 C399 0.930 . S
C390 H384 0.930 . S
C390 C391 1.355 . S
C390 C392 1.415 . S
C391 C390 1.355 . S
C391 C393 1.419 . S
C392 C390 1.415 . S
C392 C397 1.425 . S
C392 C399 1.409 . S
C393 H385 0.930 . S
C393 C391 1.419 . S
C393 C394 1.362 . S
C394 H386 0.930 . S
C394 C393 1.362 . S
C394 C397 1.409 . S
C395 H387 0.930 1_545 S
C395 C396 1.355 . S
C395 C397 1.415 . S
C396 C395 1.355 . S
C396 C398 1.419 . S
C397 C392 1.425 . S
C397 C394 1.409 . S
C397 C395 1.415 . S
C398 H388 0.930 . S
C398 C396 1.419 . S
C398 C399 1.362 . S
C399 H389 0.930 . S
C399 C392 1.409 . S
C399 C398 1.362 . S
H400 C406 0.930 . S
H401 C409 0.930 . S
H402 C410 0.930 . S
H403 C411 0.930 . S
H404 C414 0.930 . S
H405 C415 0.930 . S
C406 H400 0.930 . S
C406 C407 1.355 . S
C406 C408 1.415 . S
C407 C406 1.355 . S
C407 C409 1.419 . S
C408 C406 1.415 . S
C408 C413 1.425 . S
C408 C415 1.409 . S
C409 H401 0.930 . S
C409 C407 1.419 . S
C409 C410 1.362 . S
C410 H402 0.930 . S
C410 C409 1.362 . S
C410 C413 1.409 . S
C411 H403 0.930 . S
C411 C412 1.355 . S
C411 C413 1.415 . S
C412 C411 1.355 . S
C412 C414 1.419 . S
C413 C408 1.425 . S
C413 C410 1.409 . S
C413 C411 1.415 . S
C414 H404 0.930 . S
C414 C412 1.419 . S
C414 C415 1.362 . S
C415 H405 0.930 . S
C415 C408 1.409 . S
C415 C414 1.362 . S
H416 C422 0.930 1_655 S
H417 C425 0.930 . S
H418 C426 0.930 . S
H419 C427 0.930 . S
H420 C430 0.930 . S
H421 C431 0.930 . S
C422 H416 0.930 1_455 S
C422 C423 1.355 . S
C422 C424 1.415 . S
C423 C422 1.355 . S
C423 C425 1.419 . S
C424 C422 1.415 . S
C424 C429 1.425 . S
C424 C431 1.409 . S
C425 H417 0.930 . S
C425 C423 1.419 . S
C425 C426 1.362 . S
C426 H418 0.930 . S
C426 C425 1.362 . S
C426 C429 1.409 . S
C427 H419 0.930 . S
C427 C428 1.355 . S
C427 C429 1.415 . S
C428 C427 1.355 . S
C428 C430 1.419 . S
C429 C424 1.425 . S
C429 C426 1.409 . S
C429 C427 1.415 . S
C430 H420 0.930 . S
C430 C428 1.419 . S
C430 C431 1.362 . S
C431 H421 0.930 . S
C431 C424 1.409 . S
C431 C430 1.362 . S
H432 C438 0.930 . S
H433 C441 0.930 . S
H434 C442 0.930 . S
H435 C443 0.930 . S
H436 C446 0.930 . S
H437 C447 0.930 . S
C438 H432 0.930 . S
C438 C439 1.355 . S
C438 C440 1.415 . S
C439 C438 1.355 . S
C439 C441 1.419 . S
C440 C438 1.415 . S
C440 C445 1.425 . S
C440 C447 1.409 . S
C441 H433 0.930 . S
C441 C439 1.419 . S
C441 C442 1.362 . S
C442 H434 0.930 . S
C442 C441 1.362 . S
C442 C445 1.409 . S
C443 H435 0.930 . S
C443 C444 1.355 . S
C443 C445 1.415 . S
C444 C443 1.355 . S
C444 C446 1.419 . S
C445 C440 1.425 . S
C445 C442 1.409 . S
C445 C443 1.415 . S
C446 H436 0.930 . S
C446 C444 1.419 . S
C446 C447 1.362 . S
C447 H437 0.930 . S
C447 C440 1.409 . S
C447 C446 1.362 . S
H448 C454 0.930 . S
H449 C457 0.930 . S
H450 C458 0.930 . S
H451 C459 0.930 . S
H452 C462 0.930 . S
H453 C463 0.930 . S
C454 H448 0.930 . S
C454 C455 1.355 . S
C454 C456 1.415 . S
C455 C454 1.355 . S
C455 C457 1.419 . S
C456 C454 1.415 . S
C456 C461 1.425 . S
C456 C463 1.409 . S
C457 H449 0.930 . S
C457 C455 1.419 . S
C457 C458 1.362 . S
C458 H450 0.930 . S
C458 C457 1.362 . S
C458 C461 1.409 . S
C459 H451 0.930 . S
C459 C460 1.355 . S
C459 C461 1.415 . S
C460 C459 1.355 . S
C460 C462 1.419 . S
C461 C456 1.425 . S
C461 C458 1.409 . S
C461 C459 1.415 . S
C462 H452 0.930 . S
C462 C460 1.419 . S
C462 C463 1.362 . S
C463 H453 0.930 . S
C463 C456 1.409 . S
C463 C462 1.362 . S
H464 C470 0.930 . S
H465 C473 0.930 1_455 S
H466 C474 0.930 1_455 S
H467 C475 0.930 . S
H468 C478 0.930 . S
H469 C479 0.930 . S
C470 H464 0.930 . S
C470 C471 1.355 . S
C470 C472 1.415 . S
C471 C470 1.355 . S
C471 C473 1.419 . S
C472 C470 1.415 . S
C472 C477 1.425 . S
C472 C479 1.409 . S
C473 H465 0.930 1_655 S
C473 C471 1.419 . S
C473 C474 1.362 . S
C474 H466 0.930 1_655 S
C474 C473 1.362 . S
C474 C477 1.409 . S
C475 H467 0.930 . S
C475 C476 1.355 . S
C475 C477 1.415 . S
C476 C475 1.355 . S
C476 C478 1.419 . S
C477 C472 1.425 . S
C477 C474 1.409 . S
C477 C475 1.415 . S
C478 H468 0.930 . S
C478 C476 1.419 . S
C478 C479 1.362 . S
C479 H469 0.930 . S
C479 C472 1.409 . S
C479 C478 1.362 . S
H480 C486 0.930 . S
H481 C489 0.930 . S
H482 C490 0.930 . S
H483 C491 0.930 . S
H484 C494 0.930 . S
H485 C495 0.930 1_545 S
C486 H480 0.930 . S
C486 C487 1.355 . S
C486 C488 1.415 . S
C487 C486 1.355 . S
C487 C489 1.419 . S
C488 C486 1.415 . S
C488 C493 1.425 . S
C488 C495 1.409 . S
C489 H481 0.930 . S
C489 C487 1.419 . S
C489 C490 1.362 . S
C490 H482 0.930 . S
C490 C489 1.362 . S
C490 C493 1.409 . S
C491 H483 0.930 . S
C491 C492 1.355 . S
C491 C493 1.415 . S
C492 C491 1.355 . S
C492 C494 1.419 . S
C493 C488 1.425 . S
C493 C490 1.409 . S
C493 C491 1.415 . S
C494 H484 0.930 . S
C494 C492 1.419 . S
C494 C495 1.362 . S
C495 H485 0.930 1_565 S
C495 C488 1.409 . S
C495 C494 1.362 . S
H496 C502 0.930 . S
H497 C505 0.930 . S
H498 C506 0.930 . S
H499 C507 0.930 . S
H500 C510 0.930 . S
H501 C511 0.931 1_655 S
C502 H496 0.930 . S
C502 C503 1.355 1_655 S
C502 C504 1.415 1_655 S
C503 C502 1.355 1_455 S
C503 C505 1.419 . S
C504 C502 1.415 1_455 S
C504 C509 1.425 . S
C504 C511 1.409 . S
C505 H497 0.930 . S
C505 C503 1.419 . S
C505 C506 1.362 . S
C506 H498 0.930 . S
C506 C505 1.362 . S
C506 C509 1.409 . S
C507 H499 0.930 . S
C507 C508 1.355 . S
C507 C509 1.415 . S
C508 C507 1.355 . S
C508 C510 1.419 . S
C509 C504 1.425 . S
C509 C506 1.409 . S
C509 C507 1.415 . S
C510 H500 0.930 . S
C510 C508 1.419 . S
C510 C511 1.362 . S
C511 H501 0.931 1_455 S
C511 C504 1.409 . S
C511 C510 1.362 . S
H512 C518 0.930 . S
H513 C521 0.930 . S
H514 C522 0.930 . S
H515 C523 0.930 . S
H516 C526 0.930 . S
H517 C527 0.930 . S
C518 H512 0.930 . S
C518 C519 1.355 . S
C518 C520 1.415 . S
C519 C518 1.355 . S
C519 C521 1.419 1_545 S
C520 C518 1.415 . S
C520 C525 1.425 . S
C520 C527 1.409 . S
C521 H513 0.930 . S
C521 C519 1.419 1_565 S
C521 C522 1.362 . S
C522 H514 0.930 . S
C522 C521 1.362 . S
C522 C525 1.409 1_565 S
C523 H515 0.930 . S
C523 C524 1.355 . S
C523 C525 1.415 . S
C524 C523 1.355 . S
C524 C526 1.419 . S
C525 C520 1.425 . S
C525 C522 1.409 1_545 S
C525 C523 1.415 . S
C526 H516 0.930 . S
C526 C524 1.419 . S
C526 C527 1.362 . S
C527 H517 0.930 . S
C527 C520 1.409 . S
C527 C526 1.362 . S
C247 C130 0.730 . S
C252 C10 0.756 . S
C263 C170 0.743 . S
C268 C50 0.797 . S
C279 C210 0.912 . S
C284 C90 0.855 . S
C295 C16 0.978 . S
C300 C87 0.947 . S
C311 C56 0.843 . S
C316 C127 0.959 . S
C327 C96 0.996 . S
C332 C167 1.017 . S
C343 C136 0.821 . S
C348 C207 0.830 1_655 S
C359 C176 0.804 . S
C364 C7 0.916 1_565 S
C375 C216 0.996 . S
C380 C47 1.017 . S
C391 C19 1.345 . S
C396 C139 1.368 1_545 S
C407 C59 1.424 . S
C412 C179 1.406 . S
C423 C99 1.359 1_455 S
C428 C219 1.350 . S
C439 C2 4.148 . S
C444 C51 4.202 . S
C455 C42 4.135 . S
C460 C91 4.201 . S
C471 C82 4.133 . S
C476 C131 4.192 . S
C487 C122 4.138 . S
C492 C171 4.202 . S
C503 C162 4.126 1_455 S
C508 C211 4.194 . S
C519 C202 4.150 1_545 S
C524 C11 4.200 . S
