# Generated by pormake.
# Topology umq, (4)-cn, num edge types: 1
# Building blocks:
#     Node 0, Type 0, BuildingBlock: CEKHIL_clean_sbu_0, # of connection points: 4
#     Node 1, Type 0, BuildingBlock: CEKHIL_clean_sbu_0, # of connection points: 4
#     Node 2, Type 0, BuildingBlock: CEKHIL_clean_sbu_0, # of connection points: 4
#     Node 3, Type 0, BuildingBlock: CEKHIL_clean_sbu_0, # of connection points: 4
#     Node 4, Type 0, BuildingBlock: CEKHIL_clean_sbu_0, # of connection points: 4
#     Node 5, Type 0, BuildingBlock: CEKHIL_clean_sbu_0, # of connection points: 4
#     Node 6, Type 0, BuildingBlock: CEKHIL_clean_sbu_0, # of connection points: 4
#     Node 7, Type 0, BuildingBlock: CEKHIL_clean_sbu_0, # of connection points: 4
#     Node 8, Type 0, BuildingBlock: CEKHIL_clean_sbu_0, # of connection points: 4
#     Node 9, Type 0, BuildingBlock: CEKHIL_clean_sbu_0, # of connection points: 4
#     Node 10, Type 0, BuildingBlock: CEKHIL_clean_sbu_0, # of connection points: 4
#     Node 11, Type 0, BuildingBlock: CEKHIL_clean_sbu_0, # of connection points: 4
#     Node 12, Type 0, BuildingBlock: CEKHIL_clean_sbu_0, # of connection points: 4
#     Node 13, Type 0, BuildingBlock: CEKHIL_clean_sbu_0, # of connection points: 4
#     Node 14, Type 0, BuildingBlock: CEKHIL_clean_sbu_0, # of connection points: 4
#     Node 15, Type 0, BuildingBlock: CEKHIL_clean_sbu_0, # of connection points: 4
#     Node 16, Type 0, BuildingBlock: CEKHIL_clean_sbu_0, # of connection points: 4
#     Node 17, Type 0, BuildingBlock: CEKHIL_clean_sbu_0, # of connection points: 4
#     Node 18, Type 0, BuildingBlock: CEKHIL_clean_sbu_0, # of connection points: 4
#     Node 19, Type 0, BuildingBlock: CEKHIL_clean_sbu_0, # of connection points: 4
#     Node 20, Type 0, BuildingBlock: CEKHIL_clean_sbu_0, # of connection points: 4
#     Node 21, Type 0, BuildingBlock: CEKHIL_clean_sbu_0, # of connection points: 4
#     Node 22, Type 0, BuildingBlock: CEKHIL_clean_sbu_0, # of connection points: 4
#     Node 23, Type 0, BuildingBlock: CEKHIL_clean_sbu_0, # of connection points: 4
#     Node 24, Type 0, BuildingBlock: CEKHIL_clean_sbu_0, # of connection points: 4
#     Node 25, Type 0, BuildingBlock: CEKHIL_clean_sbu_0, # of connection points: 4
#     Node 26, Type 0, BuildingBlock: CEKHIL_clean_sbu_0, # of connection points: 4
#     Node 27, Type 0, BuildingBlock: CEKHIL_clean_sbu_0, # of connection points: 4
#     Node 28, Type 0, BuildingBlock: CEKHIL_clean_sbu_0, # of connection points: 4
#     Node 29, Type 0, BuildingBlock: CEKHIL_clean_sbu_0, # of connection points: 4
#     Node 30, Type 0, BuildingBlock: CEKHIL_clean_sbu_0, # of connection points: 4
#     Node 31, Type 0, BuildingBlock: CEKHIL_clean_sbu_0, # of connection points: 4
#     Edge 32, Type (0, 0), BuildingBlock: CIFDUS_clean_linker_0, # of connection points: 2
#     Edge 33, Type (0, 0), BuildingBlock: CIFDUS_clean_linker_0, # of connection points: 2
#     Edge 34, Type (0, 0), BuildingBlock: CIFDUS_clean_linker_0, # of connection points: 2
#     Edge 35, Type (0, 0), BuildingBlock: CIFDUS_clean_linker_0, # of connection points: 2
#     Edge 36, Type (0, 0), BuildingBlock: CIFDUS_clean_linker_0, # of connection points: 2
#     Edge 37, Type (0, 0), BuildingBlock: CIFDUS_clean_linker_0, # of connection points: 2
#     Edge 38, Type (0, 0), BuildingBlock: CIFDUS_clean_linker_0, # of connection points: 2
#     Edge 39, Type (0, 0), BuildingBlock: CIFDUS_clean_linker_0, # of connection points: 2
#     Edge 40, Type (0, 0), BuildingBlock: CIFDUS_clean_linker_0, # of connection points: 2
#     Edge 41, Type (0, 0), BuildingBlock: CIFDUS_clean_linker_0, # of connection points: 2
#     Edge 42, Type (0, 0), BuildingBlock: CIFDUS_clean_linker_0, # of connection points: 2
#     Edge 43, Type (0, 0), BuildingBlock: CIFDUS_clean_linker_0, # of connection points: 2
#     Edge 44, Type (0, 0), BuildingBlock: CIFDUS_clean_linker_0, # of connection points: 2
#     Edge 45, Type (0, 0), BuildingBlock: CIFDUS_clean_linker_0, # of connection points: 2
#     Edge 46, Type (0, 0), BuildingBlock: CIFDUS_clean_linker_0, # of connection points: 2
#     Edge 47, Type (0, 0), BuildingBlock: CIFDUS_clean_linker_0, # of connection points: 2
#     Edge 48, Type (0, 0), BuildingBlock: CIFDUS_clean_linker_0, # of connection points: 2
#     Edge 49, Type (0, 0), BuildingBlock: CIFDUS_clean_linker_0, # of connection points: 2
#     Edge 50, Type (0, 0), BuildingBlock: CIFDUS_clean_linker_0, # of connection points: 2
#     Edge 51, Type (0, 0), BuildingBlock: CIFDUS_clean_linker_0, # of connection points: 2
#     Edge 52, Type (0, 0), BuildingBlock: CIFDUS_clean_linker_0, # of connection points: 2
#     Edge 53, Type (0, 0), BuildingBlock: CIFDUS_clean_linker_0, # of connection points: 2
#     Edge 54, Type (0, 0), BuildingBlock: CIFDUS_clean_linker_0, # of connection points: 2
#     Edge 55, Type (0, 0), BuildingBlock: CIFDUS_clean_linker_0, # of connection points: 2
#     Edge 56, Type (0, 0), BuildingBlock: CIFDUS_clean_linker_0, # of connection points: 2
#     Edge 57, Type (0, 0), BuildingBlock: CIFDUS_clean_linker_0, # of connection points: 2
#     Edge 58, Type (0, 0), BuildingBlock: CIFDUS_clean_linker_0, # of connection points: 2
#     Edge 59, Type (0, 0), BuildingBlock: CIFDUS_clean_linker_0, # of connection points: 2
#     Edge 60, Type (0, 0), BuildingBlock: CIFDUS_clean_linker_0, # of connection points: 2
#     Edge 61, Type (0, 0), BuildingBlock: CIFDUS_clean_linker_0, # of connection points: 2
#     Edge 62, Type (0, 0), BuildingBlock: CIFDUS_clean_linker_0, # of connection points: 2
#     Edge 63, Type (0, 0), BuildingBlock: CIFDUS_clean_linker_0, # of connection points: 2
#     Edge 64, Type (0, 0), BuildingBlock: CIFDUS_clean_linker_0, # of connection points: 2
#     Edge 65, Type (0, 0), BuildingBlock: CIFDUS_clean_linker_0, # of connection points: 2
#     Edge 66, Type (0, 0), BuildingBlock: CIFDUS_clean_linker_0, # of connection points: 2
#     Edge 67, Type (0, 0), BuildingBlock: CIFDUS_clean_linker_0, # of connection points: 2
#     Edge 68, Type (0, 0), BuildingBlock: CIFDUS_clean_linker_0, # of connection points: 2
#     Edge 69, Type (0, 0), BuildingBlock: CIFDUS_clean_linker_0, # of connection points: 2
#     Edge 70, Type (0, 0), BuildingBlock: CIFDUS_clean_linker_0, # of connection points: 2
#     Edge 71, Type (0, 0), BuildingBlock: CIFDUS_clean_linker_0, # of connection points: 2
#     Edge 72, Type (0, 0), BuildingBlock: CIFDUS_clean_linker_0, # of connection points: 2
#     Edge 73, Type (0, 0), BuildingBlock: CIFDUS_clean_linker_0, # of connection points: 2
#     Edge 74, Type (0, 0), BuildingBlock: CIFDUS_clean_linker_0, # of connection points: 2
#     Edge 75, Type (0, 0), BuildingBlock: CIFDUS_clean_linker_0, # of connection points: 2
#     Edge 76, Type (0, 0), BuildingBlock: CIFDUS_clean_linker_0, # of connection points: 2
#     Edge 77, Type (0, 0), BuildingBlock: CIFDUS_clean_linker_0, # of connection points: 2
#     Edge 78, Type (0, 0), BuildingBlock: CIFDUS_clean_linker_0, # of connection points: 2
#     Edge 79, Type (0, 0), BuildingBlock: CIFDUS_clean_linker_0, # of connection points: 2
#     Edge 80, Type (0, 0), BuildingBlock: CIFDUS_clean_linker_0, # of connection points: 2
#     Edge 81, Type (0, 0), BuildingBlock: CIFDUS_clean_linker_0, # of connection points: 2
#     Edge 82, Type (0, 0), BuildingBlock: CIFDUS_clean_linker_0, # of connection points: 2
#     Edge 83, Type (0, 0), BuildingBlock: CIFDUS_clean_linker_0, # of connection points: 2
#     Edge 84, Type (0, 0), BuildingBlock: CIFDUS_clean_linker_0, # of connection points: 2
#     Edge 85, Type (0, 0), BuildingBlock: CIFDUS_clean_linker_0, # of connection points: 2
#     Edge 86, Type (0, 0), BuildingBlock: CIFDUS_clean_linker_0, # of connection points: 2
#     Edge 87, Type (0, 0), BuildingBlock: CIFDUS_clean_linker_0, # of connection points: 2
#     Edge 88, Type (0, 0), BuildingBlock: CIFDUS_clean_linker_0, # of connection points: 2
#     Edge 89, Type (0, 0), BuildingBlock: CIFDUS_clean_linker_0, # of connection points: 2
#     Edge 90, Type (0, 0), BuildingBlock: CIFDUS_clean_linker_0, # of connection points: 2
#     Edge 91, Type (0, 0), BuildingBlock: CIFDUS_clean_linker_0, # of connection points: 2
#     Edge 92, Type (0, 0), BuildingBlock: CIFDUS_clean_linker_0, # of connection points: 2
#     Edge 93, Type (0, 0), BuildingBlock: CIFDUS_clean_linker_0, # of connection points: 2
#     Edge 94, Type (0, 0), BuildingBlock: CIFDUS_clean_linker_0, # of connection points: 2
#     Edge 95, Type (0, 0), BuildingBlock: CIFDUS_clean_linker_0, # of connection points: 2
# Relax obj value: 0.077
# Max RMSD: 0.062
# Mean RMSD: 0.062
data_MOF--net-umq--node1-CEKHIL_clean_sbu_0--edge1-CIFDUS_clean_linker_0
_symmetry_space_group_name_H-M    P1
_symmetry_Int_Tables_number       1
_symmetry_cell_setting            triclinic
loop_
_symmetry_equiv_pos_as_xyz
'x, y, z'
_cell_length_a     57.291928
_cell_length_b     57.280452
_cell_length_c     38.494507
_cell_angle_alpha  89.92769
_cell_angle_beta   89.954758
_cell_angle_gamma 90.032317
loop_
_atom_site_label
_atom_site_type_symbol
_atom_site_fract_x
_atom_site_fract_y
_atom_site_fract_z
_atom_type_partial_charge
Co0 Co 0.241 0.10147 0.16844 0.0
O1 O 0.2274 0.07176 0.18181 0.0
O2 O 0.25781 0.08764 0.20766 0.0
C3 C 0.2407 0.09401 0.11029 0.0
O4 O 0.26072 0.1313 0.16004 0.0
Co5 Co 0.2125 0.13515 0.12059 0.0
O6 O 0.24321 0.15077 0.11646 0.0
C7 C 0.20116 0.13275 0.19532 0.0
C8 C 0.24346 0.07005 0.2053 0.0
C9 C 0.26027 0.14803 0.13738 0.0
O10 O 0.21899 0.11931 0.20101 0.0
O11 O 0.1948 0.13895 0.16483 0.0
O12 O 0.25758 0.08603 0.12948 0.0
O13 O 0.22422 0.10411 0.12719 0.0
Co14 Co 0.91504 0.25119 0.16929 0.0
O15 O 0.94469 0.23873 0.18433 0.0
O16 O 0.92564 0.26674 0.21164 0.0
C17 C 0.92523 0.2548 0.11258 0.0
O18 O 0.88466 0.2694 0.15933 0.0
Co19 Co 0.88576 0.22269 0.11593 0.0
O20 O 0.86902 0.2528 0.11177 0.0
C21 C 0.88459 0.20876 0.18957 0.0
C22 C 0.94417 0.25362 0.20956 0.0
C23 C 0.86958 0.26911 0.1343 0.0
O24 O 0.89721 0.22674 0.19756 0.0
O25 O 0.87965 0.20331 0.1582 0.0
O26 O 0.93115 0.27083 0.13474 0.0
O27 O 0.91563 0.23654 0.126 0.0
Co28 Co 0.76683 0.91211 0.1673 0.0
O29 O 0.78594 0.93902 0.17834 0.0
O30 O 0.75621 0.92683 0.21012 0.0
C31 C 0.76176 0.92215 0.11069 0.0
O32 O 0.74236 0.88582 0.16378 0.0
Co33 Co 0.78129 0.87613 0.11073 0.0
O34 O 0.74823 0.86621 0.11397 0.0
C35 C 0.80403 0.87482 0.18018 0.0
C36 C 0.77245 0.94233 0.20492 0.0
C37 C 0.73592 0.87076 0.14071 0.0
O38 O 0.7898 0.89045 0.1923 0.0
O39 O 0.8042 0.86857 0.14824 0.0
O40 O 0.74844 0.93116 0.13446 0.0
O41 O 0.77804 0.90866 0.12197 0.0
Co42 Co 0.10068 0.76994 0.16525 0.0
O43 O 0.072 0.78596 0.17804 0.0
O44 O 0.08748 0.75687 0.20759 0.0
C45 C 0.09116 0.76542 0.1083 0.0
O46 O 0.1288 0.74783 0.15974 0.0
Co47 Co 0.13518 0.78922 0.10963 0.0
O48 O 0.14804 0.75709 0.11072 0.0
C49 C 0.1343 0.81033 0.17997 0.0
C50 C 0.07019 0.77135 0.20371 0.0
C51 C 0.14432 0.7434 0.13627 0.0
O52 O 0.1206 0.79397 0.19146 0.0
O53 O 0.14006 0.81224 0.14794 0.0
O54 O 0.08311 0.75091 0.13136 0.0
O55 O 0.10307 0.78256 0.12061 0.0
Co56 Co 0.24767 0.91419 0.33704 0.0
O57 O 0.23047 0.94239 0.32545 0.0
O58 O 0.25862 0.92748 0.29323 0.0
C59 C 0.2534 0.92428 0.39363 0.0
O60 O 0.2708 0.88672 0.34134 0.0
Co61 Co 0.23152 0.87954 0.39482 0.0
O62 O 0.26425 0.86852 0.3922 0.0
C63 C 0.2089 0.87803 0.32532 0.0
C64 C 0.24376 0.9443 0.29832 0.0
C65 C 0.27676 0.87205 0.36531 0.0
O66 O 0.22348 0.89325 0.31275 0.0
O67 O 0.20856 0.87221 0.35745 0.0
O68 O 0.26712 0.93259 0.36969 0.0
O69 O 0.23649 0.91165 0.38237 0.0
Co70 Co 0.09651 0.25393 0.34916 0.0
O71 O 0.06721 0.23973 0.33554 0.0
O72 O 0.08396 0.26913 0.30791 0.0
C73 C 0.08787 0.25615 0.40657 0.0
O74 O 0.12562 0.27446 0.35708 0.0
Co75 Co 0.1302 0.22867 0.40017 0.0
O76 O 0.14335 0.26053 0.40489 0.0
C77 C 0.12877 0.21352 0.32703 0.0
C78 C 0.06632 0.25492 0.3106 0.0
C79 C 0.1406 0.27641 0.38201 0.0
O80 O 0.11497 0.23074 0.31958 0.0
O81 O 0.13539 0.20893 0.35804 0.0
O82 O 0.08012 0.27197 0.38526 0.0
O83 O 0.09858 0.23892 0.39213 0.0
Co84 Co 0.76703 0.09665 0.33982 0.0
O85 O 0.78215 0.06812 0.32492 0.0
O86 O 0.75119 0.08336 0.29961 0.0
C87 C 0.76588 0.08718 0.39704 0.0
O88 O 0.74589 0.12515 0.34924 0.0
Co89 Co 0.79227 0.13022 0.39108 0.0
O90 O 0.76045 0.14326 0.39634 0.0
C91 C 0.80611 0.13017 0.31708 0.0
C92 C 0.76612 0.06626 0.30137 0.0
C93 C 0.7443 0.14035 0.37397 0.0
O94 O 0.78905 0.11617 0.30965 0.0
O95 O 0.81111 0.13619 0.34821 0.0
O96 O 0.75004 0.07931 0.376 0.0
O97 O 0.78266 0.09854 0.38242 0.0
Co98 Co 0.91781 0.77479 0.34253 0.0
O99 O 0.94448 0.79274 0.32689 0.0
O100 O 0.93068 0.76179 0.29965 0.0
C101 C 0.92961 0.77185 0.39862 0.0
O102 O 0.89123 0.75124 0.35234 0.0
Co103 Co 0.88504 0.79527 0.39972 0.0
O104 O 0.87448 0.76239 0.40261 0.0
C105 C 0.88192 0.8133 0.32786 0.0
C106 C 0.94652 0.77805 0.30156 0.0
C107 C 0.87744 0.74747 0.37841 0.0
O108 O 0.8956 0.79688 0.31671 0.0
O109 O 0.87756 0.81652 0.36012 0.0
O110 O 0.93769 0.75748 0.3755 0.0
O111 O 0.91664 0.7883 0.38656 0.0
Co112 Co 0.76509 0.91703 0.84594 0.0
O113 O 0.78095 0.94505 0.82989 0.0
O114 O 0.74796 0.93182 0.80808 0.0
C115 C 0.76835 0.92528 0.90347 0.0
O116 O 0.7427 0.88962 0.85642 0.0
Co117 Co 0.78956 0.88067 0.89438 0.0
O118 O 0.75719 0.86963 0.90191 0.0
C119 C 0.80142 0.88232 0.81945 0.0
C120 C 0.76394 0.94798 0.80809 0.0
C121 C 0.74073 0.87407 0.88063 0.0
O122 O 0.78459 0.89687 0.81311 0.0
O123 O 0.80695 0.87575 0.85014 0.0
O124 O 0.7515 0.93453 0.88549 0.0
O125 O 0.78291 0.91304 0.88586 0.0
Co126 Co 0.09873 0.77055 0.84188 0.0
O127 O 0.07167 0.78956 0.83105 0.0
O128 O 0.08052 0.75672 0.80425 0.0
C129 C 0.09373 0.77169 0.90052 0.0
O130 O 0.12459 0.74568 0.84606 0.0
Co131 Co 0.13967 0.78905 0.88794 0.0
O132 O 0.14911 0.75578 0.88917 0.0
C133 C 0.13453 0.80559 0.81526 0.0
C134 C 0.06619 0.77417 0.80775 0.0
C135 C 0.14182 0.74118 0.86668 0.0
O136 O 0.11871 0.78999 0.80878 0.0
O137 O 0.14303 0.80896 0.8456 0.0
O138 O 0.08213 0.75658 0.88215 0.0
O139 O 0.10646 0.78585 0.88288 0.0
Co140 Co 0.25321 0.09691 0.84619 0.0
O141 O 0.23815 0.06865 0.82959 0.0
O142 O 0.26939 0.08445 0.80574 0.0
C143 C 0.25369 0.08685 0.90333 0.0
O144 O 0.27449 0.12506 0.85664 0.0
Co145 Co 0.22828 0.1302 0.89842 0.0
O146 O 0.26025 0.14287 0.9042 0.0
C147 C 0.21484 0.1314 0.82431 0.0
C148 C 0.25435 0.06741 0.8061 0.0
C149 C 0.27631 0.13997 0.88164 0.0
O150 O 0.23161 0.11713 0.8165 0.0
O151 O 0.20985 0.13711 0.85558 0.0
O152 O 0.26966 0.07897 0.88242 0.0
O153 O 0.23722 0.09849 0.88854 0.0
Co154 Co 0.9167 0.25051 0.84739 0.0
O155 O 0.94534 0.2354 0.83233 0.0
O156 O 0.9316 0.26799 0.80987 0.0
C157 C 0.92437 0.24761 0.90515 0.0
O158 O 0.88855 0.27214 0.8569 0.0
Co159 Co 0.88047 0.22499 0.8949 0.0
O160 O 0.86818 0.25699 0.90157 0.0
C161 C 0.8832 0.21334 0.81998 0.0
C162 C 0.9482 0.25248 0.81059 0.0
C163 C 0.87246 0.27358 0.88039 0.0
O164 O 0.89746 0.2305 0.81406 0.0
O165 O 0.87642 0.20757 0.85049 0.0
O166 O 0.93333 0.26465 0.88721 0.0
O167 O 0.91273 0.23262 0.88742 0.0
Co168 Co 0.77394 0.09854 0.66162 0.0
O169 O 0.79193 0.07188 0.67722 0.0
O170 O 0.75816 0.08238 0.69982 0.0
C171 C 0.77708 0.09063 0.60401 0.0
O172 O 0.74977 0.12442 0.65147 0.0
Co173 Co 0.79616 0.13646 0.61326 0.0
O174 O 0.76311 0.14527 0.60594 0.0
C175 C 0.80835 0.13528 0.68798 0.0
C176 C 0.77545 0.06764 0.69944 0.0
C177 C 0.74692 0.13979 0.62719 0.0
O178 O 0.79228 0.11987 0.69424 0.0
O179 O 0.81349 0.14228 0.65733 0.0
O180 O 0.76119 0.0802 0.62251 0.0
O181 O 0.79113 0.10372 0.62124 0.0
Co182 Co 0.91511 0.77069 0.66273 0.0
O183 O 0.943 0.78589 0.68042 0.0
O184 O 0.92897 0.75267 0.70043 0.0
C185 C 0.92468 0.77487 0.60578 0.0
O186 O 0.88762 0.74888 0.65043 0.0
Co187 Co 0.88008 0.7964 0.61364 0.0
O188 O 0.86821 0.76443 0.60522 0.0
C189 C 0.88017 0.80681 0.6891 0.0
C190 C 0.94537 0.76838 0.70152 0.0
C191 C 0.87214 0.74758 0.62608 0.0
O192 O 0.89453 0.78982 0.69542 0.0
O193 O 0.87428 0.81296 0.65836 0.0
O194 O 0.93326 0.75757 0.62356 0.0
O195 O 0.91219 0.78929 0.62327 0.0
Co196 Co 0.24964 0.91654 0.66018 0.0
O197 O 0.23132 0.94399 0.6714 0.0
O198 O 0.26393 0.9341 0.69806 0.0
C199 C 0.24859 0.92185 0.60155 0.0
O200 O 0.2738 0.89003 0.65568 0.0
Co201 Co 0.22985 0.87635 0.61386 0.0
O202 O 0.26271 0.86563 0.61299 0.0
C203 C 0.21349 0.88173 0.6865 0.0
C204 C 0.2468 0.94884 0.69488 0.0
C205 C 0.27764 0.87254 0.63527 0.0
O206 O 0.22967 0.89693 0.69308 0.0
O207 O 0.20976 0.87353 0.65608 0.0
O208 O 0.26401 0.93299 0.61999 0.0
O209 O 0.23413 0.90944 0.61914 0.0
Co210 Co 0.10197 0.24697 0.67143 0.0
O211 O 0.07518 0.22861 0.68563 0.0
O212 O 0.08531 0.26196 0.70986 0.0
C213 C 0.09447 0.24491 0.61353 0.0
O214 O 0.12797 0.27139 0.66266 0.0
Co215 Co 0.1402 0.22554 0.62305 0.0
O216 O 0.14903 0.25871 0.61698 0.0
C217 C 0.13812 0.21169 0.69716 0.0
C218 C 0.07061 0.24464 0.70835 0.0
C219 C 0.14346 0.27461 0.63862 0.0
O220 O 0.12296 0.22791 0.70384 0.0
O221 O 0.14525 0.2071 0.6664 0.0
O222 O 0.08394 0.26047 0.63244 0.0
O223 O 0.10743 0.23056 0.63046 0.0
Co224 Co 0.75085 0.60127 0.66641 0.0
O225 O 0.73472 0.57244 0.67879 0.0
O226 O 0.76676 0.5852 0.70411 0.0
C227 C 0.74997 0.59553 0.60782 0.0
O228 O 0.77346 0.62901 0.66066 0.0
Co229 Co 0.7287 0.63994 0.61993 0.0
O230 O 0.76108 0.65207 0.61714 0.0
C231 C 0.71369 0.63499 0.69338 0.0
C232 C 0.75107 0.56887 0.70154 0.0
C233 C 0.77651 0.64617 0.63931 0.0
O234 O 0.73018 0.62005 0.69959 0.0
O235 O 0.70941 0.643 0.66298 0.0
O236 O 0.76595 0.58546 0.62655 0.0
O237 O 0.73463 0.60705 0.62515 0.0
Co238 Co 0.41544 0.74781 0.6646 0.0
O239 O 0.44348 0.73268 0.68151 0.0
O240 O 0.42671 0.7628 0.70687 0.0
C241 C 0.4274 0.75053 0.6085 0.0
O242 O 0.38727 0.76899 0.65347 0.0
Co243 Co 0.3847 0.72374 0.60818 0.0
O244 O 0.37154 0.75562 0.60376 0.0
C245 C 0.38271 0.70677 0.6806 0.0
C246 C 0.44415 0.74824 0.7059 0.0
C247 C 0.37335 0.77122 0.62723 0.0
O248 O 0.39477 0.72458 0.6912 0.0
O249 O 0.37899 0.70245 0.64846 0.0
O250 O 0.43414 0.76596 0.63105 0.0
O251 O 0.41565 0.73334 0.62117 0.0
Co252 Co 0.26951 0.4176 0.66937 0.0
O253 O 0.28882 0.44485 0.67792 0.0
O254 O 0.25638 0.4368 0.70645 0.0
C255 C 0.26937 0.42128 0.61046 0.0
O256 O 0.24438 0.39176 0.66744 0.0
Co257 Co 0.28712 0.37554 0.62508 0.0
O258 O 0.25369 0.36657 0.6248 0.0
C259 C 0.3049 0.3823 0.69676 0.0
C260 C 0.27374 0.45104 0.70131 0.0
C261 C 0.23942 0.37434 0.64742 0.0
O262 O 0.28943 0.39831 0.70286 0.0
O263 O 0.30775 0.37301 0.66681 0.0
O264 O 0.25484 0.43338 0.62913 0.0
O265 O 0.28396 0.40891 0.62789 0.0
Co266 Co 0.5987 0.25908 0.65883 0.0
O267 O 0.56981 0.27563 0.66814 0.0
O268 O 0.58312 0.24625 0.69961 0.0
C269 C 0.59229 0.25487 0.60087 0.0
O270 O 0.62675 0.23666 0.65662 0.0
Co271 Co 0.63651 0.27866 0.60881 0.0
O272 O 0.64855 0.24619 0.61015 0.0
C273 C 0.63276 0.29799 0.67989 0.0
C274 C 0.56666 0.26139 0.69394 0.0
C275 C 0.64339 0.23232 0.63491 0.0
O276 O 0.6173 0.28236 0.6879 0.0
O277 O 0.64111 0.30025 0.64919 0.0
O278 O 0.5828 0.24049 0.62289 0.0
O279 O 0.60374 0.2719 0.61461 0.0
Co280 Co 0.74399 0.41305 0.83596 0.0
O281 O 0.72522 0.44021 0.8244 0.0
O282 O 0.75837 0.43118 0.7986 0.0
C283 C 0.74249 0.41807 0.89467 0.0
O284 O 0.76884 0.3872 0.84122 0.0
Co285 Co 0.72454 0.37223 0.88128 0.0
O286 O 0.75781 0.36296 0.88426 0.0
C287 C 0.70913 0.37728 0.80812 0.0
C288 C 0.74099 0.44564 0.80158 0.0
C289 C 0.77296 0.37019 0.86247 0.0
O290 O 0.72494 0.39304 0.80225 0.0
O291 O 0.70523 0.36877 0.83835 0.0
O292 O 0.7576 0.42969 0.87627 0.0
O293 O 0.72824 0.40548 0.87696 0.0
Co294 Co 0.59804 0.74832 0.84321 0.0
O295 O 0.57098 0.72936 0.83236 0.0
O296 O 0.58141 0.76083 0.80303 0.0
C297 C 0.59084 0.75054 0.90115 0.0
O298 O 0.62425 0.77287 0.84729 0.0
Co299 Co 0.63675 0.73026 0.8931 0.0
O300 O 0.64676 0.7634 0.89305 0.0
C301 C 0.6346 0.71212 0.8212 0.0
C302 C 0.56652 0.74393 0.80744 0.0
C303 C 0.64069 0.7776 0.86918 0.0
O304 O 0.61864 0.72727 0.81335 0.0
O305 O 0.64253 0.70956 0.85206 0.0
O306 O 0.58037 0.76462 0.87977 0.0
O307 O 0.6037 0.73483 0.88673 0.0
Co308 Co 0.26727 0.60405 0.83874 0.0
O309 O 0.28375 0.57692 0.82112 0.0
O310 O 0.25285 0.59249 0.79621 0.0
C311 C 0.26514 0.59104 0.89446 0.0
O312 O 0.24464 0.63102 0.85037 0.0
Co313 Co 0.28861 0.63522 0.89709 0.0
O314 O 0.25587 0.64578 0.90182 0.0
C315 C 0.30427 0.64169 0.82415 0.0
C316 C 0.26811 0.57566 0.79688 0.0
C317 C 0.24101 0.64397 0.87734 0.0
O318 O 0.28938 0.62637 0.81282 0.0
O319 O 0.30721 0.64617 0.85642 0.0
O320 O 0.25006 0.58399 0.87162 0.0
O321 O 0.28167 0.60395 0.88237 0.0
Co322 Co 0.41838 0.26653 0.84552 0.0
O323 O 0.44663 0.28421 0.83719 0.0
O324 O 0.43507 0.25464 0.80492 0.0
C325 C 0.42415 0.26224 0.9036 0.0
O326 O 0.39107 0.24315 0.84729 0.0
Co327 Co 0.37961 0.28531 0.89488 0.0
O328 O 0.36886 0.2524 0.8935 0.0
C329 C 0.38366 0.30475 0.82394 0.0
C330 C 0.45092 0.27034 0.81137 0.0
C331 C 0.37455 0.23847 0.86911 0.0
O332 O 0.39931 0.28929 0.81611 0.0
O333 O 0.37521 0.30697 0.85456 0.0
O334 O 0.43453 0.24836 0.88184 0.0
O335 O 0.41244 0.27896 0.88954 0.0
Co336 Co 0.26346 0.42221 0.34517 0.0
O337 O 0.28195 0.44957 0.33404 0.0
O338 O 0.251 0.43825 0.3044 0.0
C339 C 0.26056 0.42939 0.4031 0.0
O340 O 0.23955 0.39542 0.34933 0.0
Co341 Co 0.28244 0.38418 0.39588 0.0
O342 O 0.24971 0.37299 0.39493 0.0
C343 C 0.30063 0.38643 0.32407 0.0
C344 C 0.26766 0.45344 0.30857 0.0
C345 C 0.23538 0.37867 0.37104 0.0
O346 O 0.28509 0.40191 0.31591 0.0
O347 O 0.30341 0.37881 0.35507 0.0
O348 O 0.24653 0.4397 0.38145 0.0
O349 O 0.27668 0.41697 0.38889 0.0
Co350 Co 0.59961 0.2635 0.33437 0.0
O351 O 0.57047 0.27929 0.32285 0.0
O352 O 0.5833 0.24741 0.29716 0.0
C353 C 0.59453 0.26443 0.39309 0.0
O354 O 0.62754 0.24111 0.33919 0.0
Co355 Co 0.63871 0.28561 0.38013 0.0
O356 O 0.65089 0.25324 0.38244 0.0
C357 C 0.63254 0.30122 0.30711 0.0
C358 C 0.56681 0.26285 0.30026 0.0
C359 C 0.64484 0.23795 0.36017 0.0
O360 O 0.61783 0.2845 0.30084 0.0
O361 O 0.64074 0.30532 0.33742 0.0
O362 O 0.5844 0.24828 0.37476 0.0
O363 O 0.60579 0.27977 0.37536 0.0
Co364 Co 0.75882 0.59857 0.34227 0.0
O365 O 0.74275 0.56968 0.33042 0.0
O366 O 0.77289 0.58402 0.30179 0.0
C367 C 0.76166 0.59123 0.40025 0.0
O368 O 0.7809 0.6268 0.3465 0.0
Co369 Co 0.73817 0.63545 0.39286 0.0
O370 O 0.77028 0.64847 0.39247 0.0
C371 C 0.71994 0.63237 0.32101 0.0
C372 C 0.7578 0.56724 0.30543 0.0
C373 C 0.78459 0.64357 0.36819 0.0
O374 O 0.73602 0.61745 0.31286 0.0
O375 O 0.71706 0.64006 0.35195 0.0
O376 O 0.77663 0.5822 0.37873 0.0
O377 O 0.74492 0.60277 0.38596 0.0
Co378 Co 0.41675 0.7478 0.34369 0.0
O379 O 0.44474 0.73183 0.32793 0.0
O380 O 0.43176 0.7649 0.30595 0.0
C381 C 0.42498 0.74449 0.40121 0.0
O382 O 0.38942 0.77027 0.35381 0.0
Co383 Co 0.38014 0.7236 0.39201 0.0
O384 O 0.3691 0.756 0.39916 0.0
C385 C 0.38167 0.71193 0.31698 0.0
C386 C 0.44788 0.7489 0.30624 0.0
C387 C 0.3737 0.77234 0.37771 0.0
O388 O 0.39657 0.72849 0.31076 0.0
O389 O 0.3749 0.70645 0.34761 0.0
O390 O 0.43425 0.76131 0.38316 0.0
O391 O 0.41261 0.72996 0.38373 0.0
Co392 Co 0.26678 0.60271 0.15884 0.0
O393 O 0.28128 0.5743 0.17608 0.0
O394 O 0.24857 0.58916 0.19658 0.0
C395 C 0.27036 0.59352 0.10168 0.0
O396 O 0.24566 0.63082 0.14724 0.0
Co397 Co 0.2931 0.63755 0.11011 0.0
O398 O 0.2614 0.65026 0.10214 0.0
C399 C 0.30392 0.63649 0.18542 0.0
C400 C 0.26385 0.57236 0.19743 0.0
C401 C 0.2446 0.64652 0.12316 0.0
O402 O 0.28658 0.6225 0.19163 0.0
O403 O 0.31006 0.64255 0.15474 0.0
O404 O 0.25297 0.58523 0.11959 0.0
O405 O 0.28523 0.60548 0.11917 0.0
Co406 Co 0.40969 0.26886 0.16967 0.0
O407 O 0.43765 0.28657 0.1802 0.0
O408 O 0.42732 0.2543 0.20748 0.0
C409 C 0.41465 0.26925 0.11092 0.0
O410 O 0.38232 0.24541 0.16523 0.0
Co411 Co 0.37038 0.29113 0.12402 0.0
O412 O 0.35765 0.25903 0.12447 0.0
C413 C 0.37663 0.30651 0.19669 0.0
C414 C 0.44244 0.2711 0.20371 0.0
C415 C 0.36407 0.24314 0.14566 0.0
O416 O 0.39086 0.28941 0.20287 0.0
O417 O 0.36884 0.31116 0.16631 0.0
O418 O 0.42551 0.2538 0.12967 0.0
O419 O 0.40306 0.28443 0.12835 0.0
Co420 Co 0.74751 0.41684 0.1604 0.0
O421 O 0.73013 0.44483 0.17213 0.0
O422 O 0.76071 0.43198 0.20127 0.0
C423 C 0.75064 0.42442 0.10247 0.0
O424 O 0.7705 0.38936 0.15596 0.0
Co425 Co 0.72717 0.37993 0.10923 0.0
O426 O 0.75894 0.3664 0.11188 0.0
C427 C 0.70915 0.38202 0.1811 0.0
C428 C 0.74473 0.44789 0.19746 0.0
C429 C 0.77365 0.37185 0.13536 0.0
O430 O 0.72517 0.39698 0.18947 0.0
O431 O 0.70606 0.37485 0.14995 0.0
O432 O 0.76503 0.434 0.1243 0.0
O433 O 0.73407 0.41247 0.11651 0.0
Co434 Co 0.60115 0.7407 0.16639 0.0
O435 O 0.57441 0.72225 0.18059 0.0
O436 O 0.58419 0.75592 0.2042 0.0
C437 C 0.59431 0.7382 0.1083 0.0
O438 O 0.62688 0.76527 0.15767 0.0
Co439 Co 0.64009 0.71938 0.11912 0.0
O440 O 0.64845 0.75266 0.11249 0.0
C441 C 0.63764 0.70626 0.1935 0.0
C442 C 0.56962 0.73851 0.20288 0.0
C443 C 0.64246 0.76857 0.13384 0.0
O444 O 0.62216 0.72228 0.19957 0.0
O445 O 0.64505 0.70145 0.16296 0.0
O446 O 0.58332 0.75367 0.1268 0.0
O447 O 0.60719 0.72406 0.12576 0.0
H448 H 0.32555 0.23427 0.1075 0.0
H449 H 0.36718 0.20439 0.18959 0.0
H450 H 0.33936 0.17172 0.19433 0.0
H451 H 0.30174 0.15236 0.17586 0.0
H452 H 0.26188 0.18497 0.09351 0.0
H453 H 0.29032 0.21562 0.08882 0.0
C454 C 0.32883 0.22069 0.12653 0.0
C455 C 0.34858 0.22206 0.14823 0.0
C456 C 0.3128 0.20228 0.12931 0.0
C457 C 0.3522 0.20396 0.17246 0.0
C458 C 0.3362 0.18526 0.17524 0.0
C459 C 0.29937 0.1661 0.15681 0.0
C460 C 0.27934 0.16598 0.13519 0.0
C461 C 0.31619 0.18431 0.15394 0.0
C462 C 0.27681 0.18416 0.1107 0.0
C463 C 0.29318 0.20194 0.10784 0.0
H464 H 0.86228 0.30928 0.17403 0.0
H465 H 0.8351 0.2708 0.0862 0.0
H466 H 0.80452 0.29916 0.07874 0.0
H467 H 0.78457 0.33409 0.09651 0.0
H468 H 0.80943 0.37394 0.18402 0.0
H469 H 0.8417 0.34614 0.19171 0.0
C470 C 0.8497 0.30716 0.15326 0.0
C471 C 0.8513 0.28765 0.13086 0.0
C472 C 0.83163 0.32386 0.14879 0.0
C473 C 0.83467 0.2854 0.10404 0.0
C474 C 0.81698 0.3017 0.09958 0.0
C475 C 0.797 0.33694 0.11732 0.0
C476 C 0.79436 0.3562 0.13965 0.0
C477 C 0.81522 0.32089 0.12176 0.0
C478 C 0.8109 0.35933 0.16632 0.0
C479 C 0.82937 0.34336 0.1708 0.0
H480 H 0.65819 0.79797 0.18567 0.0
H481 H 0.65534 0.78969 0.07435 0.0
H482 H 0.682 0.82237 0.06672 0.0
H483 H 0.70967 0.85007 0.09125 0.0
H484 H 0.71428 0.85874 0.20224 0.0
H485 H 0.68331 0.82957 0.2104 0.0
C486 C 0.66301 0.80373 0.1598 0.0
C487 C 0.65493 0.79123 0.13061 0.0
C488 C 0.67893 0.82245 0.15551 0.0
C489 C 0.66148 0.79882 0.09724 0.0
C490 C 0.67679 0.8175 0.09282 0.0
C491 C 0.70372 0.84583 0.11728 0.0
C492 C 0.71453 0.85639 0.14608 0.0
C493 C 0.68622 0.82891 0.12173 0.0
C494 C 0.7063 0.8509 0.17957 0.0
C495 C 0.68868 0.83408 0.18424 0.0
H496 H 0.21278 0.65961 0.17361 0.0
H497 H 0.22974 0.66863 0.0651 0.0
H498 H 0.19944 0.69804 0.05939 0.0
H499 H 0.17029 0.72341 0.08552 0.0
H500 H 0.15266 0.71582 0.19388 0.0
H501 H 0.18073 0.68366 0.19918 0.0
C502 C 0.20956 0.66777 0.14864 0.0
C503 C 0.22379 0.662 0.11992 0.0
C504 C 0.1921 0.68514 0.14551 0.0
C505 C 0.21935 0.67285 0.08777 0.0
C506 C 0.20198 0.68973 0.08442 0.0
C507 C 0.17243 0.71471 0.11036 0.0
C508 C 0.1595 0.72232 0.13935 0.0
C509 C 0.18864 0.69641 0.11323 0.0
C510 C 0.16236 0.71045 0.17111 0.0
C511 C 0.17851 0.69208 0.17417 0.0
H512 H 0.30047 0.84973 0.41623 0.0
H513 H 0.30109 0.86101 0.30547 0.0
H514 H 0.33306 0.83275 0.29939 0.0
H515 H 0.35842 0.80183 0.3255 0.0
H516 H 0.35603 0.79098 0.43643 0.0
H517 H 0.32745 0.82209 0.4424 0.0
C518 C 0.30765 0.84619 0.39068 0.0
C519 C 0.2981 0.85732 0.36131 0.0
C520 C 0.32577 0.82983 0.3874 0.0
C521 C 0.30801 0.85272 0.32856 0.0
C522 C 0.32625 0.83644 0.32507 0.0
C523 C 0.35195 0.80663 0.35099 0.0
C524 C 0.35927 0.79389 0.38046 0.0
C525 C 0.33497 0.82447 0.35427 0.0
C526 C 0.35057 0.80026 0.41328 0.0
C527 C 0.33416 0.81807 0.41675 0.0
H528 H 0.21466 0.35315 0.42132 0.0
H529 H 0.20826 0.37066 0.31282 0.0
H530 H 0.17694 0.34163 0.30651 0.0
H531 H 0.15369 0.30848 0.33133 0.0
H532 H 0.16185 0.29194 0.4402 0.0
H533 H 0.18998 0.32322 0.44664 0.0
C534 C 0.20633 0.35082 0.39626 0.0
C535 C 0.21404 0.36394 0.36753 0.0
C536 C 0.18867 0.33399 0.39278 0.0
C537 C 0.2027 0.36086 0.33544 0.0
C538 C 0.18487 0.34411 0.33178 0.0
C539 C 0.16143 0.31194 0.35649 0.0
C540 C 0.15581 0.29747 0.38508 0.0
C541 C 0.17804 0.33014 0.36016 0.0
C542 C 0.16603 0.30236 0.41753 0.0
C543 C 0.18215 0.32036 0.42136 0.0
H544 H 0.71196 0.15307 0.32367 0.0
H545 H 0.73 0.16332 0.43154 0.0
H546 H 0.70012 0.19301 0.43703 0.0
H547 H 0.67104 0.21844 0.41085 0.0
H548 H 0.65161 0.20919 0.30361 0.0
H549 H 0.67945 0.17678 0.29844 0.0
C550 C 0.70909 0.16157 0.34845 0.0
C551 C 0.72362 0.15609 0.37695 0.0
C552 C 0.69169 0.17902 0.35158 0.0
C553 C 0.7195 0.16733 0.40891 0.0
C554 C 0.70233 0.18438 0.41219 0.0
C555 C 0.67273 0.20926 0.38634 0.0
C556 C 0.65942 0.21647 0.35758 0.0
C557 C 0.68872 0.19077 0.38358 0.0
C558 C 0.66162 0.20405 0.32621 0.0
C559 C 0.67765 0.18557 0.3232 0.0
H560 H 0.80704 0.66747 0.41858 0.0
H561 H 0.80857 0.65477 0.30831 0.0
H562 H 0.83904 0.6846 0.3013 0.0
H563 H 0.86283 0.71712 0.32646 0.0
H564 H 0.8605 0.72826 0.43739 0.0
H565 H 0.83314 0.69629 0.44401 0.0
C566 C 0.81418 0.67103 0.393 0.0
C567 C 0.80531 0.65906 0.364 0.0
C568 C 0.83158 0.68815 0.38921 0.0
C569 C 0.81506 0.66369 0.33113 0.0
C570 C 0.83242 0.68087 0.32709 0.0
C571 C 0.85661 0.71228 0.35208 0.0
C572 C 0.86352 0.72551 0.38127 0.0
C573 C 0.8405 0.69364 0.35591 0.0
C574 C 0.85526 0.71882 0.41431 0.0
C575 C 0.83955 0.70044 0.41823 0.0
H576 H 0.70929 0.8606 0.82976 0.0
H577 H 0.72381 0.85469 0.93947 0.0
H578 H 0.69273 0.82616 0.9459 0.0
H579 H 0.66421 0.79994 0.92007 0.0
H580 H 0.64897 0.80428 0.81063 0.0
H581 H 0.6771 0.83643 0.80453 0.0
C582 C 0.70532 0.85337 0.85512 0.0
C583 C 0.71917 0.85964 0.884 0.0
C584 C 0.68739 0.83647 0.8587 0.0
C585 C 0.71376 0.85001 0.91668 0.0
C586 C 0.69593 0.83364 0.92045 0.0
C587 C 0.66681 0.80805 0.89487 0.0
C588 C 0.65466 0.79947 0.86579 0.0
C589 C 0.68311 0.82625 0.89155 0.0
C590 C 0.65805 0.8105 0.83349 0.0
C591 C 0.67428 0.82881 0.82997 0.0
H592 H 0.1642 0.71765 0.91741 0.0
H593 H 0.15042 0.71558 0.80747 0.0
H594 H 0.17864 0.6836 0.80075 0.0
H595 H 0.21057 0.65902 0.82583 0.0
H596 H 0.22298 0.66208 0.93644 0.0
H597 H 0.19204 0.69057 0.94303 0.0
C598 C 0.1671 0.70999 0.892 0.0
C599 C 0.15537 0.71916 0.86297 0.0
C600 C 0.18339 0.69184 0.88837 0.0
C601 C 0.15915 0.70882 0.83031 0.0
C602 C 0.17545 0.69064 0.82644 0.0
C603 C 0.20622 0.66564 0.8514 0.0
C604 C 0.21955 0.65862 0.88045 0.0
C605 C 0.18818 0.68238 0.8552 0.0
C606 C 0.21347 0.66738 0.91343 0.0
C607 C 0.19568 0.68373 0.91734 0.0
H608 H 0.35111 0.21602 0.91993 0.0
H609 H 0.36594 0.21222 0.81029 0.0
H610 H 0.33817 0.17973 0.80444 0.0
H611 H 0.30676 0.15473 0.83017 0.0
H612 H 0.29279 0.16008 0.94016 0.0
H613 H 0.32312 0.1894 0.94606 0.0
C614 C 0.34845 0.20801 0.89471 0.0
C615 C 0.3604 0.21678 0.86553 0.0
C616 C 0.33242 0.1896 0.89156 0.0
C617 C 0.35698 0.20585 0.83322 0.0
C618 C 0.34099 0.18734 0.82985 0.0
C619 C 0.31065 0.16206 0.85546 0.0
C620 C 0.29719 0.15535 0.88458 0.0
C621 C 0.32818 0.17937 0.85876 0.0
C622 C 0.30252 0.16509 0.91717 0.0
C623 C 0.31993 0.18191 0.92065 0.0
H624 H 0.85979 0.30512 0.82901 0.0
H625 H 0.85021 0.28916 0.93777 0.0
H626 H 0.82028 0.31899 0.94225 0.0
H627 H 0.794 0.34676 0.9147 0.0
H628 H 0.80219 0.36364 0.80625 0.0
H629 H 0.8355 0.33675 0.80239 0.0
C630 C 0.85144 0.30851 0.85378 0.0
C631 C 0.85712 0.29457 0.88289 0.0
C632 C 0.83378 0.32576 0.85623 0.0
C633 C 0.84604 0.29927 0.91478 0.0
C634 C 0.82886 0.31638 0.91744 0.0
C635 C 0.80321 0.34479 0.89023 0.0
C636 C 0.79539 0.35703 0.86073 0.0
C637 C 0.82211 0.32924 0.88819 0.0
C638 C 0.80781 0.35448 0.82941 0.0
C639 C 0.82679 0.33896 0.82715 0.0
H640 H 0.66697 0.20912 0.58495 0.0
H641 H 0.65385 0.20845 0.69519 0.0
H642 H 0.68321 0.17763 0.70276 0.0
H643 H 0.7158 0.1537 0.6782 0.0
H644 H 0.72801 0.15564 0.56756 0.0
H645 H 0.69579 0.18275 0.56006 0.0
C646 C 0.67033 0.20208 0.61065 0.0
C647 C 0.65842 0.21132 0.63949 0.0
C648 C 0.68725 0.18455 0.61476 0.0
C649 C 0.66276 0.20169 0.6725 0.0
C650 C 0.67967 0.18413 0.67685 0.0
C651 C 0.71104 0.1597 0.65244 0.0
C652 C 0.72456 0.15281 0.62353 0.0
C653 C 0.69247 0.17579 0.64823 0.0
C654 C 0.71817 0.16085 0.59032 0.0
C655 C 0.69972 0.17642 0.58595 0.0
H656 H 0.79503 0.67336 0.58869 0.0
H657 H 0.80619 0.65237 0.69497 0.0
H658 H 0.83831 0.68055 0.69992 0.0
H659 H 0.86103 0.71389 0.67513 0.0
H660 H 0.84878 0.73387 0.56846 0.0
H661 H 0.81961 0.70338 0.5627 0.0
C662 C 0.80457 0.67476 0.61293 0.0
C663 C 0.79795 0.66091 0.64152 0.0
C664 C 0.82287 0.69102 0.61561 0.0
C665 C 0.81084 0.66279 0.6725 0.0
C666 C 0.82917 0.67902 0.6754 0.0
C667 C 0.85224 0.7113 0.6505 0.0
C668 C 0.85698 0.72651 0.62244 0.0
C669 C 0.83506 0.69362 0.6473 0.0
C670 C 0.84535 0.72278 0.59071 0.0
C671 C 0.82859 0.70528 0.58731 0.0
H672 H 0.29862 0.84684 0.58552 0.0
H673 H 0.30503 0.86577 0.6934 0.0
H674 H 0.3366 0.83714 0.70057 0.0
H675 H 0.35996 0.80382 0.67687 0.0
H676 H 0.35225 0.78614 0.56836 0.0
H677 H 0.32387 0.81705 0.56098 0.0
C678 C 0.30707 0.84493 0.61059 0.0
C679 C 0.29927 0.8583 0.63893 0.0
C680 C 0.32494 0.82837 0.61454 0.0
C681 C 0.31069 0.85577 0.67107 0.0
C682 C 0.32865 0.83924 0.67523 0.0
C683 C 0.35227 0.80694 0.65157 0.0
C684 C 0.35807 0.79221 0.62343 0.0
C685 C 0.33558 0.82499 0.64729 0.0
C686 C 0.34794 0.79673 0.59076 0.0
C687 C 0.33166 0.81453 0.58637 0.0
H688 H 0.15833 0.30485 0.69035 0.0
H689 H 0.15839 0.29458 0.57928 0.0
H690 H 0.18613 0.32631 0.57205 0.0
H691 H 0.2141 0.35355 0.59719 0.0
H692 H 0.21525 0.36487 0.70776 0.0
H693 H 0.1833 0.33664 0.71523 0.0
C694 C 0.16401 0.30998 0.66457 0.0
C695 C 0.15647 0.29705 0.63543 0.0
C696 C 0.18047 0.3283 0.66049 0.0
C697 C 0.16411 0.30393 0.6022 0.0
C698 C 0.18005 0.3221 0.59798 0.0
C699 C 0.20709 0.35015 0.62291 0.0
C700 C 0.21721 0.36113 0.65188 0.0
C701 C 0.18895 0.33384 0.62695 0.0
C702 C 0.20775 0.35672 0.68498 0.0
C703 C 0.18958 0.34041 0.68926 0.0
H704 H 0.274 0.07669 0.06507 0.0
H705 H 0.20637 0.10995 0.0686 0.0
H706 H 0.20454 0.11026 0.00573 0.0
H707 H 0.22173 0.10167 0.94962 0.0
H708 H 0.28912 0.06848 0.94342 0.0
H709 H 0.29136 0.06743 0.00714 0.0
C710 C 0.25889 0.08394 0.052 0.0
C711 C 0.2404 0.09335 0.07172 0.0
C712 C 0.25784 0.08407 0.01528 0.0
C713 C 0.22093 0.10267 0.05431 0.0
C714 C 0.2198 0.10285 0.0182 0.0
C715 C 0.23696 0.09415 0.96209 0.0
C716 C 0.25523 0.0852 0.94175 0.0
C717 C 0.23812 0.09368 0.99846 0.0
C718 C 0.27476 0.07547 0.95848 0.0
C719 C 0.27606 0.07491 0.99492 0.0
H720 H 0.9382 0.28065 0.95318 0.0
H721 H 0.91179 0.21032 0.94345 0.0
H722 H 0.91012 0.20644 0.00611 0.0
H723 H 0.91503 0.22283 0.06369 0.0
H724 H 0.94107 0.29296 0.07592 0.0
H725 H 0.94405 0.29708 0.01257 0.0
C726 C 0.93226 0.26448 0.96488 0.0
C727 C 0.92506 0.24586 0.94354 0.0
C728 C 0.93117 0.26231 1.00143 0.0
C729 C 0.91732 0.22501 0.95912 0.0
C730 C 0.91634 0.22272 0.99505 0.0
C731 C 0.9214 0.23905 0.0526 0.0
C732 C 0.92775 0.25756 0.07448 0.0
C733 C 0.92301 0.24126 0.01642 0.0
C734 C 0.93605 0.27841 0.0596 0.0
C735 C 0.93775 0.28077 0.02338 0.0
H736 H 0.7358 0.93991 0.95223 0.0
H737 H 0.80537 0.91175 0.9411 0.0
H738 H 0.80919 0.90875 1.0035 0.0
H739 H 0.79293 0.91247 0.06105 0.0
H740 H 0.72403 0.94096 0.07562 0.0
H741 H 0.71983 0.94559 0.01233 0.0
C742 C 0.75181 0.93336 0.9636 0.0
C743 C 0.77017 0.92589 0.94186 0.0
C744 C 0.75402 0.93159 1.00012 0.0
C745 C 0.79084 0.91742 0.95702 0.0
C746 C 0.79312 0.91568 0.99282 0.0
C747 C 0.77694 0.91972 0.0505 0.0
C748 C 0.75875 0.92615 0.07293 0.0
C749 C 0.77478 0.92239 0.01454 0.0
C750 C 0.73829 0.93581 0.05881 0.0
C751 C 0.7359 0.93842 0.02264 0.0
H752 H 0.07457 0.741 0.94879 0.0
H753 H 0.1138 0.80518 0.93907 0.0
H754 H 0.1162 0.80852 1.0015 0.0
H755 H 0.10774 0.79388 0.05878 0.0
H756 H 0.06901 0.72995 0.07217 0.0
H757 H 0.0658 0.72592 0.00869 0.0
C758 C 0.08355 0.75568 0.96046 0.0
C759 C 0.09403 0.77275 0.93904 0.0
C760 C 0.08501 0.7576 0.99707 0.0
C761 C 0.10565 0.79167 0.95464 0.0
C762 C 0.10705 0.79369 0.99051 0.0
C763 C 0.09858 0.77897 0.048 0.0
C764 C 0.08868 0.76223 0.07022 0.0
C765 C 0.0969 0.7768 0.01191 0.0
C766 C 0.07683 0.74311 0.05561 0.0
C767 C 0.07499 0.74082 0.01931 0.0
H768 H 0.22522 0.90849 0.44374 0.0
H769 H 0.2895 0.94637 0.42903 0.0
H770 H 0.29407 0.94958 0.49254 0.0
H771 H 0.27934 0.94082 0.55286 0.0
H772 H 0.21466 0.90245 0.56327 0.0
H773 H 0.2109 0.90024 0.50099 0.0
C774 C 0.24035 0.91746 0.45418 0.0
C775 C 0.25703 0.92709 0.4316 0.0
C776 C 0.2428 0.91912 0.4902 0.0
C777 C 0.27638 0.93877 0.44585 0.0
C778 C 0.27898 0.94057 0.48216 0.0
C779 C 0.26446 0.93206 0.54137 0.0
C780 C 0.24738 0.92175 0.563 0.0
C781 C 0.26225 0.93073 0.50473 0.0
C782 C 0.2282 0.91045 0.5476 0.0
C783 C 0.22593 0.90916 0.51179 0.0
H784 H 0.07592 0.27711 0.56772 0.0
H785 H 0.11158 0.21076 0.57278 0.0
H786 H 0.11239 0.20855 0.50991 0.0
H787 H 0.10368 0.22514 0.4535 0.0
H788 H 0.06851 0.29146 0.44577 0.0
H789 H 0.06676 0.29396 0.50944 0.0
C790 C 0.08374 0.26216 0.55497 0.0
C791 C 0.0937 0.24415 0.57506 0.0
C792 C 0.0843 0.26098 0.5183 0.0
C793 C 0.10386 0.22493 0.55811 0.0
C794 C 0.10434 0.2236 0.52205 0.0
C795 C 0.0956 0.2402 0.46562 0.0
C796 C 0.08627 0.25809 0.4449 0.0
C797 C 0.09474 0.24151 0.50193 0.0
C798 C 0.07583 0.27742 0.46116 0.0
C799 C 0.07484 0.27885 0.49756 0.0
H800 H 0.74508 0.0727 0.55766 0.0
H801 H 0.81174 0.10768 0.56394 0.0
H802 H 0.81408 0.10942 0.50106 0.0
H803 H 0.7973 0.10195 0.44424 0.0
H804 H 0.73074 0.06728 0.43575 0.0
H805 H 0.72829 0.06445 0.49926 0.0
C806 C 0.76014 0.08053 0.54517 0.0
C807 C 0.77816 0.09008 0.56557 0.0
C808 C 0.7614 0.08164 0.50856 0.0
C809 C 0.79754 0.10027 0.54899 0.0
C810 C 0.79895 0.10131 0.51294 0.0
C811 C 0.78223 0.09374 0.4562 0.0
C812 C 0.76422 0.0849 0.4353 0.0
C813 C 0.78096 0.09221 0.4925 0.0
C814 C 0.74486 0.07425 0.45129 0.0
C815 C 0.74346 0.07263 0.48761 0.0
H816 H 0.94117 0.74336 0.55715 0.0
H817 H 0.91243 0.81266 0.56858 0.0
H818 H 0.91231 0.81783 0.50615 0.0
H819 H 0.91864 0.80269 0.4483 0.0
H820 H 0.94718 0.73377 0.43395 0.0
H821 H 0.94929 0.72852 0.49727 0.0
C822 C 0.9351 0.75961 0.54587 0.0
C823 C 0.92666 0.7775 0.56761 0.0
C824 C 0.93495 0.76256 0.50941 0.0
C825 C 0.91883 0.79848 0.55259 0.0
C826 C 0.91875 0.80153 0.51679 0.0
C827 C 0.92542 0.7865 0.45893 0.0
C828 C 0.93261 0.76862 0.43651 0.0
C829 C 0.92648 0.78364 0.49499 0.0
C830 C 0.94154 0.74784 0.45074 0.0
C831 C 0.94267 0.74482 0.48692 0.0
H832 H 0.78175 0.57655 0.56147 0.0
H833 H 0.71744 0.61574 0.56707 0.0
H834 H 0.71578 0.61793 0.50428 0.0
H835 H 0.73197 0.60898 0.44765 0.0
H836 H 0.79592 0.56977 0.43927 0.0
H837 H 0.79831 0.56733 0.50292 0.0
C838 C 0.76741 0.58551 0.54886 0.0
C839 C 0.74979 0.59599 0.56919 0.0
C840 C 0.76644 0.58675 0.51216 0.0
C841 C 0.73132 0.60755 0.55234 0.0
C842 C 0.73029 0.60884 0.51627 0.0
C843 C 0.74651 0.5999 0.45961 0.0
C844 C 0.76374 0.5896 0.43866 0.0
C845 C 0.7477 0.59855 0.49595 0.0
C846 C 0.7824 0.57788 0.45478 0.0
C847 C 0.78375 0.57648 0.4912 0.0
H848 H 0.44054 0.77679 0.44929 0.0
H849 H 0.412 0.70729 0.4393 0.0
H850 H 0.41102 0.70304 0.50191 0.0
H851 H 0.41677 0.71898 0.55946 0.0
H852 H 0.44483 0.78827 0.57222 0.0
H853 H 0.44763 0.79262 0.50883 0.0
C854 C 0.4343 0.7607 0.46093 0.0
C855 C 0.42624 0.74245 0.43953 0.0
C856 C 0.43361 0.75831 0.49747 0.0
C857 C 0.41816 0.72171 0.45501 0.0
C858 C 0.41758 0.7192 0.49091 0.0
C859 C 0.42357 0.73506 0.54849 0.0
C860 C 0.43047 0.7533 0.5705 0.0
C861 C 0.42501 0.73742 0.51235 0.0
C862 C 0.43939 0.77394 0.55579 0.0
C863 C 0.44095 0.77644 0.51955 0.0
H864 H 0.28634 0.4064 0.45051 0.0
H865 H 0.22899 0.45474 0.44191 0.0
H866 H 0.22605 0.4565 0.50556 0.0
H867 H 0.24063 0.4445 0.56412 0.0
H868 H 0.29816 0.3959 0.56989 0.0
H869 H 0.3 0.39403 0.50711 0.0
C870 C 0.2731 0.41731 0.46242 0.0
C871 C 0.25795 0.43045 0.44144 0.0
C872 C 0.27154 0.41819 0.49872 0.0
C873 C 0.24091 0.44445 0.45747 0.0
C874 C 0.23924 0.44546 0.49387 0.0
C875 C 0.25348 0.43348 0.55155 0.0
C876 C 0.26923 0.42039 0.5719 0.0
C877 C 0.25457 0.43245 0.51486 0.0
C878 C 0.28578 0.40618 0.55513 0.0
C879 C 0.28692 0.40508 0.51907 0.0
H880 H 0.61025 0.28364 0.55236 0.0
H881 H 0.57045 0.22017 0.5633 0.0
H882 H 0.56742 0.21706 0.4998 0.0
H883 H 0.57602 0.23302 0.44061 0.0
H884 H 0.61555 0.29707 0.43258 0.0
H885 H 0.61867 0.29919 0.49517 0.0
C886 C 0.60093 0.26905 0.54098 0.0
C887 C 0.59061 0.25218 0.56259 0.0
C888 C 0.59917 0.26748 0.50473 0.0
C889 C 0.57859 0.23342 0.54725 0.0
C890 C 0.57683 0.23166 0.51092 0.0
C891 C 0.58526 0.2474 0.45265 0.0
C892 C 0.59555 0.26481 0.43167 0.0
C893 C 0.587 0.24867 0.48928 0.0
C894 C 0.60749 0.28334 0.4478 0.0
C895 C 0.60932 0.28464 0.48376 0.0
H896 H 0.7721 0.43957 0.9417 0.0
H897 H 0.71128 0.39519 0.9347 0.0
H898 H 0.70882 0.39322 0.99746 0.0
H899 H 0.72323 0.40397 0.05445 0.0
H900 H 0.78384 0.44809 0.06417 0.0
H901 H 0.78705 0.45028 1.00059 0.0
C902 C 0.75835 0.4295 0.95399 0.0
C903 C 0.74192 0.41756 0.93329 0.0
C904 C 0.75694 0.42837 0.99068 0.0
C905 C 0.72422 0.40455 0.94973 0.0
C906 C 0.72274 0.40339 0.98578 0.0
C907 C 0.73721 0.41406 0.04279 0.0
C908 C 0.75325 0.42585 0.06411 0.0
C909 C 0.73892 0.41521 0.00648 0.0
C910 C 0.77123 0.43884 0.04838 0.0
C911 C 0.77306 0.4401 0.012 0.0
H912 H 0.57409 0.76907 0.06203 0.0
H913 H 0.61566 0.70628 0.0678 0.0
H914 H 0.61842 0.705 0.005 0.0
H915 H 0.60947 0.72128 0.94837 0.0
H916 H 0.56765 0.78357 0.94005 0.0
H917 H 0.56457 0.78547 1.00363 0.0
C918 C 0.58364 0.7551 0.04945 0.0
C919 C 0.59468 0.73784 0.06976 0.0
C920 C 0.5852 0.75436 0.01282 0.0
C921 C 0.60704 0.71987 0.05301 0.0
C922 C 0.60867 0.71907 0.01697 0.0
C923 C 0.59969 0.73534 0.96036 0.0
C924 C 0.58885 0.75227 0.93948 0.0
C925 C 0.5979 0.7362 0.99665 0.0
C926 C 0.57618 0.7703 0.95555 0.0
C927 C 0.57441 0.77137 0.99191 0.0
H928 H 0.23801 0.57836 0.05336 0.0
H929 H 0.30818 0.60507 0.06395 0.0
H930 H 0.3128 0.60564 1.0014 0.0
H931 H 0.2969 0.60037 0.94369 0.0
H932 H 0.22703 0.57398 0.9303 0.0
H933 H 0.22238 0.57126 0.99366 0.0
C934 C 0.25432 0.58408 0.04187 0.0
C935 C 0.27263 0.59182 0.06342 0.0
C936 C 0.25694 0.58451 0.00535 0.0
C937 C 0.29369 0.59921 0.04812 0.0
C938 C 0.29642 0.59954 0.01225 0.0
C939 C 0.28065 0.59392 0.95454 0.0
C940 C 0.26231 0.58752 0.93236 0.0
C941 C 0.27812 0.59254 0.99066 0.0
C942 C 0.24145 0.57901 0.94688 0.0
C943 C 0.23877 0.57753 0.9831 0.0
H944 H 0.40197 0.28852 0.95115 0.0
H945 H 0.44748 0.22893 0.94208 0.0
H946 H 0.44851 0.2252 0.00568 0.0
H947 H 0.43676 0.23976 0.06439 0.0
H948 H 0.39132 0.29981 0.0705 0.0
H949 H 0.38998 0.3023 0.00779 0.0
C950 C 0.4121 0.27462 0.96294 0.0
C951 C 0.42466 0.25907 0.94186 0.0
C952 C 0.41263 0.27266 0.99921 0.0
C953 C 0.43765 0.24117 0.95773 0.0
C954 C 0.43825 0.23905 0.99411 0.0
C955 C 0.42655 0.2533 0.0519 0.0
C956 C 0.41416 0.26954 0.07235 0.0
C957 C 0.42587 0.25481 0.01522 0.0
C958 C 0.40102 0.28701 0.05568 0.0
C959 C 0.40022 0.28853 0.01965 0.0
H960 H 0.23452 0.02519 0.18639 0.0
H961 H 0.257 0.06678 0.27337 0.0
H962 H 0.25826 0.03172 0.31008 0.0
H963 H 0.25235 0.98904 0.31766 0.0
H964 H 0.23413 0.94702 0.22904 0.0
H965 H 0.2318 0.98223 0.19272 0.0
C966 C 0.23972 0.02656 0.2134 0.0
C967 C 0.24542 0.04865 0.22725 0.0
C968 C 0.24112 1.00618 0.23401 0.0
C969 C 0.25252 0.05005 0.26209 0.0
C970 C 0.25318 0.02999 0.28309 0.0
C971 C 0.24789 0.98767 0.29036 0.0
C972 C 0.24314 0.96552 0.27605 0.0
C973 C 0.2474 1.00796 0.26941 0.0
C974 C 0.23778 0.96387 0.24059 0.0
C975 C 0.23643 0.98402 0.21988 0.0
H976 H 0.98982 0.25508 0.192 0.0
H977 H 0.94379 0.25698 0.28048 0.0
H978 H 0.9776 0.25699 0.31974 0.0
H979 H 0.02049 0.25508 0.3287 0.0
H980 H 0.06631 0.25773 0.23998 0.0
H981 H 0.0325 0.25737 0.20088 0.0
C982 C 0.98725 0.25565 0.21991 0.0
C983 C 0.96438 0.25582 0.23343 0.0
C984 C 1.00676 0.25638 0.24216 0.0
C985 C 0.96122 0.2569 0.26954 0.0
C986 C 0.98055 0.25679 0.29193 0.0
C987 C 0.02299 0.25567 0.30078 0.0
C988 C 0.04583 0.25615 0.28712 0.0
C989 C 1.00342 0.25631 0.27854 0.0
C990 C 0.0489 0.25732 0.251 0.0
C991 C 0.02958 0.25706 0.2287 0.0
H992 H 0.79942 0.03333 0.28891 0.0
H993 H 0.7275 0.05001 0.26725 0.0
H994 H 0.72254 0.01236 0.23807 0.0
H995 H 0.73862 0.97423 0.21904 0.0
H996 H 0.81138 0.95933 0.23607 0.0
H997 H 0.81601 0.99641 0.26709 0.0
C998 C 0.78269 0.02881 0.27758 0.0
C999 C 0.76385 0.04454 0.28033 0.0
C1000 C 0.78005 1.00721 0.26043 0.0
C1001 C 0.74235 0.03838 0.26532 0.0
C1002 C 0.73945 0.01674 0.24884 0.0
C1003 C 0.75537 0.97904 0.23 0.0
C1004 C 0.77453 0.96386 0.22608 0.0
C1005 C 0.75812 1.0009 0.24648 0.0
C1006 C 0.79634 0.97058 0.23931 0.0
C1007 C 0.799 0.99183 0.25684 0.0
H1008 H 0.0339 0.80242 0.20739 0.0
H1009 H 0.05706 0.73593 0.24716 0.0
H1010 H 0.02009 0.73106 0.27806 0.0
H1011 H 0.98093 0.74578 0.29442 0.0
H1012 H 0.95912 0.81359 0.25876 0.0
H1013 H 0.99538 0.81774 0.22536 0.0
C1014 C 0.03093 0.78693 0.22299 0.0
C1015 C 0.04839 0.7696 0.2249 0.0
C1016 C 0.00961 0.78433 0.2411 0.0
C1017 C 0.04413 0.74966 0.24534 0.0
C1018 C 0.02286 0.74677 0.26289 0.0
C1019 C 0.98401 0.76125 0.27879 0.0
C1020 C 0.96713 0.7791 0.27822 0.0
C1021 C 1.00539 0.76391 0.26085 0.0
C1022 C 0.97166 0.79944 0.25896 0.0
C1023 C 0.99248 0.80187 0.2401 0.0
H1024 H 0.79869 0.9786 0.79109 0.0
H1025 H 0.7252 0.96596 0.77612 0.0
H1026 H 0.72173 1.00254 0.7435 0.0
H1027 H 0.7397 0.03848 0.71886 0.0
H1028 H 0.8138 0.04902 0.72989 0.0
H1029 H 0.81687 0.01331 0.76448 0.0
C1030 C 0.78191 0.98379 0.78059 0.0
C1031 C 0.76223 0.96947 0.78618 0.0
C1032 C 0.78012 1.00471 0.7613 0.0
C1033 C 0.74068 0.97649 0.77212 0.0
C1034 C 0.73865 0.99753 0.75358 0.0
C1035 C 0.75644 0.03304 0.72919 0.0
C1036 C 0.77646 0.04661 0.72222 0.0
C1037 C 0.75823 0.01188 0.74808 0.0
C1038 C 0.79813 0.03901 0.73506 0.0
C1039 C 0.7999 0.01852 0.75478 0.0
H1040 H 0.97586 0.80229 0.72221 0.0
H1041 H 0.96313 0.72827 0.72968 0.0
H1042 H 0.99987 0.72315 0.76126 0.0
H1043 H 0.03622 0.73973 0.78638 0.0
H1044 H 0.04694 0.81417 0.78318 0.0
H1045 H 0.01075 0.81909 0.75027 0.0
C1046 C 0.98105 0.78505 0.73093 0.0
C1047 C 0.9667 0.76569 0.72344 0.0
C1048 C 1.00207 0.78228 0.74965 0.0
C1049 C 0.9737 0.74351 0.7352 0.0
C1050 C 0.99483 0.74055 0.75311 0.0
C1051 C 0.03067 0.75698 0.77823 0.0
C1052 C 0.04446 0.77654 0.78682 0.0
C1053 C 0.00928 0.75978 0.76032 0.0
C1054 C 0.03674 0.79884 0.77676 0.0
C1055 C 0.016 0.80166 0.75798 0.0
H1056 H 0.28141 0.9789 0.71506 0.0
H1057 H 0.20731 0.96707 0.72266 0.0
H1058 H 0.20294 1.00246 0.75765 0.0
H1059 H 0.22018 0.0369 0.78645 0.0
H1060 H 0.29365 0.05095 0.77421 0.0
H1061 H 0.29825 0.015 0.74055 0.0
C1062 C 0.26436 0.98406 0.72459 0.0
C1063 C 0.24474 0.97018 0.7167 0.0
C1064 C 0.26184 1.00501 0.74365 0.0
C1065 C 0.22267 0.97736 0.72853 0.0
C1066 C 0.22017 0.99763 0.74851 0.0
C1067 C 0.23717 0.03216 0.77623 0.0
C1068 C 0.25656 0.04663 0.783 0.0
C1069 C 0.2396 0.01164 0.75623 0.0
C1070 C 0.27841 0.04027 0.76928 0.0
C1071 C 0.28108 0.01959 0.75017 0.0
H1072 H 0.98041 0.21879 0.79582 0.0
H1073 H 0.96553 0.29167 0.77876 0.0
H1074 H 1.00274 0.2963 0.74812 0.0
H1075 H 0.03989 0.2795 0.72577 0.0
H1076 H 0.05277 0.20591 0.73882 0.0
H1077 H 0.01639 0.20176 0.77156 0.0
C1078 C 0.98525 0.23569 0.78529 0.0
C1079 C 0.97009 0.25486 0.78971 0.0
C1080 C 1.00657 0.23814 0.76718 0.0
C1081 C 0.97669 0.27656 0.77563 0.0
C1082 C 0.99809 0.27926 0.75824 0.0
C1083 C 0.03481 0.26265 0.73619 0.0
C1084 C 0.04925 0.2431 0.73035 0.0
C1085 C 0.01327 0.2602 0.75394 0.0
C1086 C 0.04211 0.22125 0.7432 0.0
C1087 C 0.02124 0.21885 0.76183 0.0
H1088 H 0.71615 0.53789 0.71754 0.0
H1089 H 0.78998 0.54952 0.73044 0.0
H1090 H 0.7938 0.51198 0.76021 0.0
H1091 H 0.77618 0.47546 0.78288 0.0
H1092 H 0.7018 0.46567 0.77514 0.0
H1093 H 0.69818 0.50246 0.7431 0.0
C1094 C 0.73305 0.53223 0.72698 0.0
C1095 C 0.75276 0.54658 0.7216 0.0
C1096 C 0.73505 0.51074 0.7449 0.0
C1097 C 0.77449 0.53899 0.73431 0.0
C1098 C 0.77672 0.5174 0.75124 0.0
C1099 C 0.75923 0.48133 0.7739 0.0
C1100 C 0.73932 0.46764 0.78096 0.0
C1101 C 0.75715 0.50305 0.75661 0.0
C1102 C 0.71741 0.47577 0.76988 0.0
C1103 C 0.71532 0.49686 0.75159 0.0
H1104 H 0.5337 0.77715 0.79323 0.0
H1105 H 0.55053 0.70483 0.77584 0.0
H1106 H 0.5141 0.69953 0.74349 0.0
H1107 H 0.47735 0.71546 0.72002 0.0
H1108 H 0.45863 0.78685 0.74177 0.0
H1109 H 0.49547 0.79244 0.77292 0.0
C1110 C 0.52942 0.76033 0.78201 0.0
C1111 C 0.54499 0.7415 0.78625 0.0
C1112 C 0.50791 0.75718 0.76464 0.0
C1113 C 0.53896 0.71962 0.77252 0.0
C1114 C 0.51808 0.71657 0.75416 0.0
C1115 C 0.48122 0.73219 0.73185 0.0
C1116 C 0.46517 0.75071 0.72848 0.0
C1117 C 0.50236 0.73519 0.75014 0.0
C1118 C 0.4705 0.77223 0.74414 0.0
C1119 C 0.4917 0.7755 0.76175 0.0
H1120 H 0.24012 0.48372 0.71462 0.0
H1121 H 0.31324 0.46925 0.72919 0.0
H1122 H 0.31827 0.50663 0.7591 0.0
H1123 H 0.30176 0.54337 0.782 0.0
H1124 H 0.22943 0.55958 0.76285 0.0
H1125 H 0.2243 0.52206 0.73346 0.0
C1126 C 0.25709 0.48875 0.72458 0.0
C1127 C 0.27621 0.47353 0.72029 0.0
C1128 C 0.26005 0.51078 0.74059 0.0
C1129 C 0.29823 0.48054 0.73248 0.0
C1130 C 0.30112 0.50196 0.74949 0.0
C1131 C 0.28493 0.53882 0.77104 0.0
C1132 C 0.26601 0.55437 0.77473 0.0
C1133 C 0.28217 0.51726 0.75372 0.0
C1134 C 0.24436 0.54813 0.76021 0.0
C1135 C 0.24136 0.52653 0.74361 0.0
H1136 H 0.46382 0.2478 0.75125 0.0
H1137 H 0.48948 0.2954 0.82916 0.0
H1138 H 0.52752 0.29647 0.80078 0.0
H1139 H 0.55406 0.28385 0.75359 0.0
H1140 H 0.52838 0.23718 0.67484 0.0
H1141 H 0.4901 0.23584 0.70336 0.0
C1142 C 0.4777 0.25847 0.76191 0.0
C1143 C 0.47363 0.27153 0.79234 0.0
C1144 C 0.49971 0.25914 0.74525 0.0
C1145 C 0.49193 0.28527 0.8057 0.0
C1146 C 0.51381 0.28585 0.78953 0.0
C1147 C 0.54006 0.27333 0.74291 0.0
C1148 C 0.54401 0.26041 0.71246 0.0
C1149 C 0.51799 0.27283 0.75933 0.0
C1150 C 0.52572 0.24706 0.69851 0.0
C1151 C 0.50383 0.24634 0.71476 0.0
H1152 H 0.29722 0.54148 0.21875 0.0
H1153 H 0.22343 0.55542 0.22564 0.0
H1154 H 0.21768 0.51917 0.25836 0.0
H1155 H 0.23369 0.4831 0.28513 0.0
H1156 H 0.30794 0.47136 0.28287 0.0
H1157 H 0.31344 0.50678 0.24815 0.0
C1158 C 0.27989 0.53664 0.22754 0.0
C1159 C 0.26078 0.5512 0.21962 0.0
C1160 C 0.27678 0.51594 0.247 0.0
C1161 C 0.23848 0.54468 0.2315 0.0
C1162 C 0.23516 0.52384 0.25007 0.0
C1163 C 0.25101 0.48824 0.27672 0.0
C1164 C 0.27036 0.47442 0.28609 0.0
C1165 C 0.25415 0.50923 0.25787 0.0
C1166 C 0.29277 0.4816 0.27578 0.0
C1167 C 0.29593 0.5019 0.25599 0.0
H1168 H 0.5346 0.29702 0.28659 0.0
H1169 H 0.54811 0.22377 0.27085 0.0
H1170 H 0.51029 0.21927 0.2422 0.0
H1171 H 0.47305 0.23622 0.22098 0.0
H1172 H 0.46141 0.31015 0.23167 0.0
H1173 H 0.49836 0.31429 0.26295 0.0
C1174 C 0.52929 0.28009 0.2768 0.0
C1175 C 0.54426 0.26076 0.281 0.0
C1176 C 0.50762 0.27771 0.25957 0.0
C1177 C 0.53709 0.23899 0.26786 0.0
C1178 C 0.51535 0.23637 0.25158 0.0
C1179 C 0.47854 0.25315 0.23052 0.0
C1180 C 0.4643 0.2728 0.22449 0.0
C1181 C 0.50039 0.25558 0.24733 0.0
C1182 C 0.47194 0.29474 0.23621 0.0
C1183 C 0.49313 0.29713 0.25403 0.0
H1184 H 0.72224 0.53721 0.28901 0.0
H1185 H 0.79593 0.54854 0.27377 0.0
H1186 H 0.79884 0.51192 0.24145 0.0
H1187 H 0.78044 0.4764 0.21712 0.0
H1188 H 0.70609 0.46725 0.22662 0.0
H1189 H 0.70339 0.50291 0.26156 0.0
C1190 C 0.7389 0.53167 0.2785 0.0
C1191 C 0.75886 0.54562 0.28395 0.0
C1192 C 0.74034 0.5108 0.25904 0.0
C1193 C 0.78027 0.53826 0.26984 0.0
C1194 C 0.78198 0.51722 0.25147 0.0
C1195 C 0.76371 0.48216 0.22714 0.0
C1196 C 0.74353 0.469 0.21983 0.0
C1197 C 0.76217 0.50328 0.24596 0.0
C1198 C 0.72188 0.47698 0.23217 0.0
C1199 C 0.72033 0.4974 0.25208 0.0
H1200 H 0.47881 0.7143 0.29007 0.0
H1201 H 0.46621 0.78781 0.27507 0.0
H1202 H 0.50337 0.79161 0.24408 0.0
H1203 H 0.53988 0.77395 0.22109 0.0
H1204 H 0.55052 0.69984 0.23202 0.0
H1205 H 0.5141 0.6964 0.26486 0.0
C1206 C 0.48413 0.73114 0.27989 0.0
C1207 C 0.46965 0.75075 0.28501 0.0
C1208 C 0.50541 0.73313 0.26156 0.0
C1209 C 0.47685 0.77239 0.27139 0.0
C1210 C 0.49822 0.7746 0.2538 0.0
C1211 C 0.53429 0.75712 0.23101 0.0
C1212 C 0.5481 0.73721 0.22457 0.0
C1213 C 0.51275 0.75512 0.24884 0.0
C1214 C 0.54033 0.71543 0.23683 0.0
C1215 C 0.51944 0.71345 0.25554 0.0
H1216 H 0.16425 0.16258 0.19137 0.0
H1217 H 0.20856 0.12769 0.26587 0.0
H1218 H 0.18918 0.14882 0.31307 0.0
H1219 H 0.16135 0.17881 0.33263 0.0
H1220 H 0.11825 0.21453 0.25739 0.0
H1221 H 0.1357 0.19135 0.21091 0.0
C1222 C 0.1697 0.15933 0.2179 0.0
C1223 C 0.18806 0.14349 0.22484 0.0
C1224 C 0.15881 0.17186 0.24477 0.0
C1225 C 0.19459 0.13968 0.25958 0.0
C1226 C 0.18354 0.15187 0.28659 0.0
C1227 C 0.15559 0.18151 0.30613 0.0
C1228 C 0.13846 0.19861 0.29868 0.0
C1229 C 0.1659 0.16827 0.2794 0.0
C1230 C 0.13138 0.20168 0.26404 0.0
C1231 C 0.14137 0.18839 0.2374 0.0
H1232 H 0.8531 0.17321 0.1824 0.0
H1233 H 0.89129 0.21185 0.26017 0.0
H1234 H 0.87121 0.19005 0.30593 0.0
H1235 H 0.84165 0.16158 0.32385 0.0
H1236 H 0.80253 0.12368 0.2463 0.0
H1237 H 0.82436 0.1437 0.20041 0.0
C1238 C 0.85726 0.17682 0.20932 0.0
C1239 C 0.87378 0.19433 0.21765 0.0
C1240 C 0.8454 0.16443 0.23556 0.0
C1241 C 0.87872 0.19861 0.25282 0.0
C1242 C 0.86719 0.18615 0.27906 0.0
C1243 C 0.83787 0.15748 0.29696 0.0
C1244 C 0.82026 0.14107 0.28874 0.0
C1245 C 0.8503 0.16925 0.27071 0.0
C1246 C 0.81586 0.13617 0.25358 0.0
C1247 C 0.82834 0.14767 0.22727 0.0
H1248 H 0.87533 0.8078 0.25751 0.0
H1249 H 0.85914 0.85389 0.34283 0.0
H1250 H 0.83409 0.87712 0.30544 0.0
H1251 H 0.81479 0.88356 0.24894 0.0
H1252 H 0.8314 0.83748 0.16366 0.0
H1253 H 0.85786 0.81557 0.2003 0.0
C1254 C 0.86659 0.82309 0.26782 0.0
C1255 C 0.86911 0.82878 0.30313 0.0
C1256 C 0.8519 0.8365 0.24614 0.0
C1257 C 0.85748 0.84876 0.31587 0.0
C1258 C 0.84303 0.86217 0.29448 0.0
C1259 C 0.82423 0.86879 0.23834 0.0
C1260 C 0.82078 0.86232 0.20347 0.0
C1261 C 0.83973 0.85601 0.25967 0.0
C1262 C 0.83346 0.84309 0.19033 0.0
C1263 C 0.84873 0.83039 0.21132 0.0
H1264 H 0.19822 0.88502 0.25575 0.0
H1265 H 0.18152 0.84106 0.34366 0.0
H1266 H 0.15588 0.81764 0.30805 0.0
H1267 H 0.13954 0.80752 0.25099 0.0
H1268 H 0.15542 0.85151 0.163 0.0
H1269 H 0.17931 0.87663 0.19935 0.0
C1270 C 0.18889 0.87043 0.26716 0.0
C1271 C 0.19219 0.865 0.30249 0.0
C1272 C 0.17377 0.85673 0.24641 0.0
C1273 C 0.17963 0.84594 0.31663 0.0
C1274 C 0.16481 0.83233 0.29623 0.0
C1275 C 0.14789 0.8228 0.23987 0.0
C1276 C 0.14573 0.82727 0.20412 0.0
C1277 C 0.16191 0.83732 0.26096 0.0
C1278 C 0.15686 0.84728 0.19034 0.0
C1279 C 0.17065 0.86177 0.21114 0.0
H1280 H 0.84802 0.84163 0.68357 0.0
H1281 H 0.88618 0.80137 0.75973 0.0
H1282 H 0.86563 0.82196 0.80632 0.0
H1283 H 0.83625 0.85021 0.82503 0.0
H1284 H 0.7974 0.8898 0.74888 0.0
H1285 H 0.81914 0.87042 0.70233 0.0
C1286 C 0.85205 0.83728 0.71032 0.0
C1287 C 0.86873 0.81979 0.718 0.0
C1288 C 0.84003 0.849 0.73687 0.0
C1289 C 0.8735 0.81463 0.75294 0.0
C1290 C 0.86172 0.8264 0.77958 0.0
C1291 C 0.83245 0.85479 0.7983 0.0
C1292 C 0.81501 0.87153 0.7906 0.0
C1293 C 0.84483 0.84345 0.77177 0.0
C1294 C 0.81059 0.87705 0.75568 0.0
C1295 C 0.82302 0.86594 0.72906 0.0
H1296 H 0.17701 0.85153 0.68015 0.0
H1297 H 0.21672 0.88954 0.75698 0.0
H1298 H 0.19441 0.87039 0.8032 0.0
H1299 H 0.16564 0.84129 0.82154 0.0
H1300 H 0.12688 0.8023 0.74474 0.0
H1301 H 0.14693 0.82378 0.69848 0.0
C1302 C 0.18084 0.85582 0.70696 0.0
C1303 C 0.19882 0.8719 0.71496 0.0
C1304 C 0.16819 0.84453 0.73333 0.0
C1305 C 0.20315 0.87725 0.74995 0.0
C1306 C 0.19041 0.86625 0.7764 0.0
C1307 C 0.16138 0.83744 0.79472 0.0
C1308 C 0.14482 0.8199 0.78675 0.0
C1309 C 0.1732 0.84959 0.76834 0.0
C1310 C 0.13951 0.81555 0.75174 0.0
C1311 C 0.15105 0.8278 0.72528 0.0
H1312 H 0.16891 0.17579 0.69051 0.0
H1313 H 0.13195 0.21581 0.76811 0.0
H1314 H 0.15174 0.19367 0.81396 0.0
H1315 H 0.18055 0.16419 0.83171 0.0
H1316 H 0.21798 0.12499 0.75364 0.0
H1317 H 0.19673 0.14577 0.70809 0.0
C1318 C 0.165 0.17979 0.71741 0.0
C1319 C 0.14892 0.1977 0.72569 0.0
C1320 C 0.17657 0.16717 0.74352 0.0
C1321 C 0.14418 0.20226 0.76084 0.0
C1322 C 0.15555 0.18961 0.78707 0.0
C1323 C 0.18407 0.16 0.80477 0.0
C1324 C 0.20104 0.14295 0.79628 0.0
C1325 C 0.17194 0.17219 0.77867 0.0
C1326 C 0.20516 0.13795 0.7611 0.0
C1327 C 0.19301 0.14987 0.735 0.0
H1328 H 0.85281 0.1769 0.82469 0.0
H1329 H 0.88979 0.21911 0.74946 0.0
H1330 H 0.87038 0.19794 0.70239 0.0
H1331 H 0.84203 0.16874 0.68297 0.0
H1332 H 0.80439 0.12725 0.75835 0.0
H1333 H 0.8252 0.14712 0.80529 0.0
C1334 C 0.85682 0.18156 0.79804 0.0
C1335 C 0.8728 0.19979 0.79078 0.0
C1336 C 0.84542 0.16953 0.77122 0.0
C1337 C 0.87764 0.20527 0.75595 0.0
C1338 C 0.86649 0.19319 0.72902 0.0
C1339 C 0.83831 0.16387 0.70962 0.0
C1340 C 0.82145 0.14645 0.71698 0.0
C1341 C 0.85019 0.17547 0.73642 0.0
C1342 C 0.81712 0.14053 0.7518 0.0
C1343 C 0.82903 0.15191 0.77866 0.0
H1344 H 0.67524 0.66261 0.68758 0.0
H1345 H 0.7198 0.63026 0.76424 0.0
H1346 H 0.69833 0.6504 0.81045 0.0
H1347 H 0.66866 0.67899 0.82853 0.0
H1348 H 0.62499 0.71194 0.75122 0.0
H1349 H 0.64458 0.68962 0.7057 0.0
C1350 C 0.68032 0.65976 0.71437 0.0
C1351 C 0.69939 0.64497 0.72224 0.0
C1352 C 0.66816 0.67164 0.74067 0.0
C1353 C 0.70531 0.64147 0.75727 0.0
C1354 C 0.69308 0.65309 0.78371 0.0
C1355 C 0.66325 0.68129 0.80177 0.0
C1356 C 0.64535 0.69741 0.79347 0.0
C1357 C 0.67474 0.66852 0.77563 0.0
C1358 C 0.63867 0.69986 0.75854 0.0
C1359 C 0.64991 0.68708 0.73244 0.0
H1360 H 0.32266 0.63032 0.75988 0.0
H1361 H 0.31791 0.68628 0.83446 0.0
H1362 H 0.34316 0.71061 0.79887 0.0
H1363 H 0.36645 0.71671 0.74593 0.0
H1364 H 0.37138 0.66111 0.67089 0.0
H1365 H 0.3469 0.63618 0.70716 0.0
C1366 C 0.32702 0.64788 0.7681 0.0
C1367 C 0.31831 0.65634 0.79985 0.0
C1368 C 0.34197 0.66193 0.74756 0.0
C1369 C 0.32441 0.67915 0.81025 0.0
C1370 C 0.33895 0.69317 0.78993 0.0
C1371 C 0.36252 0.69901 0.73784 0.0
C1372 C 0.37085 0.69089 0.70573 0.0
C1373 C 0.34798 0.68477 0.7586 0.0
C1374 C 0.36521 0.66793 0.69547 0.0
C1375 C 0.35106 0.65362 0.71614 0.0
H1376 H 0.35127 0.33945 0.83156 0.0
H1377 H 0.39296 0.30448 0.75384 0.0
H1378 H 0.37343 0.32689 0.70832 0.0
H1379 H 0.34288 0.35415 0.69037 0.0
H1380 H 0.30028 0.38846 0.76756 0.0
H1381 H 0.32216 0.36865 0.81364 0.0
C1382 C 0.35629 0.33676 0.80471 0.0
C1383 C 0.37354 0.31999 0.79629 0.0
C1384 C 0.34478 0.34953 0.77858 0.0
C1385 C 0.37978 0.31708 0.76125 0.0
C1386 C 0.36855 0.32989 0.73516 0.0
C1387 C 0.33834 0.35749 0.71726 0.0
C1388 C 0.31964 0.37267 0.72534 0.0
C1389 C 0.35075 0.34581 0.7435 0.0
C1390 C 0.31444 0.3769 0.76044 0.0
C1391 C 0.32692 0.36547 0.78681 0.0
H1392 H 0.6661 0.33195 0.6726 0.0
H1393 H 0.62196 0.29897 0.74944 0.0
H1394 H 0.64061 0.32201 0.795 0.0
H1395 H 0.67085 0.3494 0.81344 0.0
H1396 H 0.71588 0.38183 0.73735 0.0
H1397 H 0.69511 0.3612 0.69092 0.0
C1398 C 0.66035 0.32983 0.69925 0.0
C1399 C 0.64264 0.31345 0.70743 0.0
C1400 C 0.67135 0.34299 0.72546 0.0
C1401 C 0.63552 0.31124 0.74222 0.0
C1402 C 0.64623 0.32442 0.76835 0.0
C1403 C 0.67618 0.35215 0.78672 0.0
C1404 C 0.6952 0.36707 0.77908 0.0
C1405 C 0.66441 0.34001 0.76031 0.0
C1406 C 0.70143 0.3705 0.74413 0.0
C1407 C 0.6896 0.3586 0.71758 0.0
H1408 H 0.35021 0.34572 0.19086 0.0
H1409 H 0.38123 0.30016 0.26749 0.0
H1410 H 0.36148 0.32197 0.31369 0.0
H1411 H 0.33333 0.35205 0.33164 0.0
H1412 H 0.30144 0.39649 0.25427 0.0
H1413 H 0.32376 0.3768 0.20886 0.0
C1414 C 0.35286 0.34049 0.21764 0.0
C1415 C 0.3671 0.32103 0.22553 0.0
C1416 C 0.34115 0.3528 0.24389 0.0
C1417 C 0.3704 0.31493 0.26054 0.0
C1418 C 0.35901 0.32736 0.28695 0.0
C1419 C 0.33129 0.35762 0.3049 0.0
C1420 C 0.31546 0.37574 0.29651 0.0
C1421 C 0.34399 0.34603 0.27883 0.0
C1422 C 0.3133 0.38262 0.26162 0.0
C1423 C 0.32608 0.37134 0.2356 0.0
H1424 H 0.65941 0.3401 0.31364 0.0
H1425 H 0.62762 0.29587 0.23611 0.0
H1426 H 0.64744 0.31814 0.19032 0.0
H1427 H 0.67588 0.34819 0.17292 0.0
H1428 H 0.70862 0.3912 0.25119 0.0
H1429 H 0.68618 0.37114 0.29624 0.0
C1430 C 0.6566 0.33525 0.28675 0.0
C1431 C 0.6421 0.31603 0.2785 0.0
C1432 C 0.66837 0.34781 0.26074 0.0
C1433 C 0.63862 0.31045 0.24336 0.0
C1434 C 0.65007 0.32314 0.21718 0.0
C1435 C 0.67808 0.35339 0.19979 0.0
C1436 C 0.69419 0.37122 0.20852 0.0
C1437 C 0.66533 0.34156 0.22565 0.0
C1438 C 0.69654 0.37758 0.24357 0.0
C1439 C 0.6837 0.36608 0.26938 0.0
H1440 H 0.68589 0.66549 0.32848 0.0
H1441 H 0.7189 0.62164 0.25149 0.0
H1442 H 0.69509 0.63965 0.2062 0.0
H1443 H 0.66666 0.6689 0.18812 0.0
H1444 H 0.6342 0.71376 0.26426 0.0
H1445 H 0.65599 0.6939 0.31045 0.0
C1446 C 0.68787 0.65969 0.30185 0.0
C1447 C 0.70442 0.64221 0.29353 0.0
C1448 C 0.67426 0.6703 0.27582 0.0
C1449 C 0.7065 0.63503 0.25878 0.0
C1450 C 0.69286 0.64536 0.23283 0.0
C1451 C 0.66415 0.67442 0.2148 0.0
C1452 C 0.64884 0.69308 0.22252 0.0
C1453 C 0.67695 0.66319 0.24102 0.0
C1454 C 0.64581 0.69957 0.25741 0.0
C1455 C 0.65836 0.68825 0.28382 0.0
H1456 H 0.33969 0.66765 0.18038 0.0
H1457 H 0.29847 0.62985 0.25592 0.0
H1458 H 0.31973 0.6493 0.30283 0.0
H1459 H 0.3488 0.67774 0.32205 0.0
H1460 H 0.38933 0.71628 0.24652 0.0
H1461 H 0.36935 0.69549 0.19962 0.0
C1462 C 0.33528 0.66347 0.20705 0.0
C1463 C 0.31731 0.64723 0.21447 0.0
C1464 C 0.34739 0.67486 0.23381 0.0
C1465 C 0.31209 0.64221 0.24933 0.0
C1466 C 0.32425 0.65336 0.27617 0.0
C1467 C 0.35347 0.68166 0.29538 0.0
C1468 C 0.37064 0.69874 0.28796 0.0
C1469 C 0.34176 0.66984 0.26864 0.0
C1470 C 0.37626 0.70334 0.25311 0.0
C1471 C 0.3648 0.69146 0.22628 0.0
loop_
_geom_bond_atom_site_label_1
_geom_bond_atom_site_label_2
_geom_bond_distance
_geom_bond_site_symmetry_2
_ccdc_geom_bond_type
Co0 O1 2.216 . S
Co0 O2 2.091 . S
Co0 O4 2.004 . S
Co0 O10 2.021 . S
Co0 O12 2.137 . S
Co0 O13 2.244 . S
O1 Co0 2.216 . S
O1 C8 1.247 . S
O2 Co0 2.091 . S
O2 C8 1.261 . S
C3 O12 1.247 . S
C3 O13 1.272 . S
O4 Co0 2.004 . S
O4 C9 1.259 . S
Co5 O6 2.061 . S
Co5 O11 2.052 . S
Co5 O13 2.135 . S
O6 Co5 2.061 . S
O6 C9 1.235 . S
C7 O10 1.238 . S
C7 O11 1.241 . S
C8 O1 1.247 . S
C8 O2 1.261 . S
C9 O4 1.259 . S
C9 O6 1.235 . S
O10 Co0 2.021 . S
O10 C7 1.238 . S
O11 Co5 2.052 . S
O11 C7 1.241 . S
O12 Co0 2.137 . S
O12 C3 1.247 . S
O13 Co0 2.244 . S
O13 C3 1.272 . S
O13 Co5 2.135 . S
Co14 O15 2.216 . S
Co14 O16 2.091 . S
Co14 O18 2.004 . S
Co14 O24 2.021 . S
Co14 O26 2.137 . S
Co14 O27 2.244 . S
O15 Co14 2.216 . S
O15 C22 1.247 . S
O16 Co14 2.091 . S
O16 C22 1.261 . S
C17 O26 1.247 . S
C17 O27 1.272 . S
O18 Co14 2.004 . S
O18 C23 1.259 . S
Co19 O20 2.061 . S
Co19 O25 2.052 . S
Co19 O27 2.135 . S
O20 Co19 2.061 . S
O20 C23 1.235 . S
C21 O24 1.238 . S
C21 O25 1.241 . S
C22 O15 1.247 . S
C22 O16 1.261 . S
C23 O18 1.259 . S
C23 O20 1.235 . S
O24 Co14 2.021 . S
O24 C21 1.238 . S
O25 Co19 2.052 . S
O25 C21 1.241 . S
O26 Co14 2.137 . S
O26 C17 1.247 . S
O27 Co14 2.244 . S
O27 C17 1.272 . S
O27 Co19 2.135 . S
Co28 O29 2.216 . S
Co28 O30 2.091 . S
Co28 O32 2.004 . S
Co28 O38 2.021 . S
Co28 O40 2.137 . S
Co28 O41 2.244 . S
O29 Co28 2.216 . S
O29 C36 1.247 . S
O30 Co28 2.091 . S
O30 C36 1.261 . S
C31 O40 1.247 . S
C31 O41 1.272 . S
O32 Co28 2.004 . S
O32 C37 1.259 . S
Co33 O34 2.061 . S
Co33 O39 2.052 . S
Co33 O41 2.135 . S
O34 Co33 2.061 . S
O34 C37 1.235 . S
C35 O38 1.238 . S
C35 O39 1.241 . S
C36 O29 1.247 . S
C36 O30 1.261 . S
C37 O32 1.259 . S
C37 O34 1.235 . S
O38 Co28 2.021 . S
O38 C35 1.238 . S
O39 Co33 2.052 . S
O39 C35 1.241 . S
O40 Co28 2.137 . S
O40 C31 1.247 . S
O41 Co28 2.244 . S
O41 C31 1.272 . S
O41 Co33 2.135 . S
Co42 O43 2.216 . S
Co42 O44 2.091 . S
Co42 O46 2.004 . S
Co42 O52 2.021 . S
Co42 O54 2.137 . S
Co42 O55 2.244 . S
O43 Co42 2.216 . S
O43 C50 1.247 . S
O44 Co42 2.091 . S
O44 C50 1.261 . S
C45 O54 1.247 . S
C45 O55 1.272 . S
O46 Co42 2.004 . S
O46 C51 1.259 . S
Co47 O48 2.061 . S
Co47 O53 2.052 . S
Co47 O55 2.135 . S
O48 Co47 2.061 . S
O48 C51 1.235 . S
C49 O52 1.238 . S
C49 O53 1.241 . S
C50 O43 1.247 . S
C50 O44 1.261 . S
C51 O46 1.259 . S
C51 O48 1.235 . S
O52 Co42 2.021 . S
O52 C49 1.238 . S
O53 Co47 2.052 . S
O53 C49 1.241 . S
O54 Co42 2.137 . S
O54 C45 1.247 . S
O55 Co42 2.244 . S
O55 C45 1.272 . S
O55 Co47 2.135 . S
Co56 O57 2.216 . S
Co56 O58 2.091 . S
Co56 O60 2.004 . S
Co56 O66 2.021 . S
Co56 O68 2.137 . S
Co56 O69 2.244 . S
O57 Co56 2.216 . S
O57 C64 1.247 . S
O58 Co56 2.091 . S
O58 C64 1.261 . S
C59 O68 1.247 . S
C59 O69 1.272 . S
O60 Co56 2.004 . S
O60 C65 1.259 . S
Co61 O62 2.061 . S
Co61 O67 2.052 . S
Co61 O69 2.135 . S
O62 Co61 2.061 . S
O62 C65 1.235 . S
C63 O66 1.238 . S
C63 O67 1.241 . S
C64 O57 1.247 . S
C64 O58 1.261 . S
C65 O60 1.259 . S
C65 O62 1.235 . S
O66 Co56 2.021 . S
O66 C63 1.238 . S
O67 Co61 2.052 . S
O67 C63 1.241 . S
O68 Co56 2.137 . S
O68 C59 1.247 . S
O69 Co56 2.244 . S
O69 C59 1.272 . S
O69 Co61 2.135 . S
Co70 O71 2.216 . S
Co70 O72 2.091 . S
Co70 O74 2.004 . S
Co70 O80 2.021 . S
Co70 O82 2.137 . S
Co70 O83 2.244 . S
O71 Co70 2.216 . S
O71 C78 1.247 . S
O72 Co70 2.091 . S
O72 C78 1.261 . S
C73 O82 1.247 . S
C73 O83 1.272 . S
O74 Co70 2.004 . S
O74 C79 1.259 . S
Co75 O76 2.061 . S
Co75 O81 2.052 . S
Co75 O83 2.135 . S
O76 Co75 2.061 . S
O76 C79 1.235 . S
C77 O80 1.238 . S
C77 O81 1.241 . S
C78 O71 1.247 . S
C78 O72 1.261 . S
C79 O74 1.259 . S
C79 O76 1.235 . S
O80 Co70 2.021 . S
O80 C77 1.238 . S
O81 Co75 2.052 . S
O81 C77 1.241 . S
O82 Co70 2.137 . S
O82 C73 1.247 . S
O83 Co70 2.244 . S
O83 C73 1.272 . S
O83 Co75 2.135 . S
Co84 O85 2.216 . S
Co84 O86 2.091 . S
Co84 O88 2.004 . S
Co84 O94 2.021 . S
Co84 O96 2.137 . S
Co84 O97 2.244 . S
O85 Co84 2.216 . S
O85 C92 1.247 . S
O86 Co84 2.091 . S
O86 C92 1.261 . S
C87 O96 1.247 . S
C87 O97 1.272 . S
O88 Co84 2.004 . S
O88 C93 1.259 . S
Co89 O90 2.061 . S
Co89 O95 2.052 . S
Co89 O97 2.135 . S
O90 Co89 2.061 . S
O90 C93 1.235 . S
C91 O94 1.238 . S
C91 O95 1.241 . S
C92 O85 1.247 . S
C92 O86 1.261 . S
C93 O88 1.259 . S
C93 O90 1.235 . S
O94 Co84 2.021 . S
O94 C91 1.238 . S
O95 Co89 2.052 . S
O95 C91 1.241 . S
O96 Co84 2.137 . S
O96 C87 1.247 . S
O97 Co84 2.244 . S
O97 C87 1.272 . S
O97 Co89 2.135 . S
Co98 O99 2.216 . S
Co98 O100 2.091 . S
Co98 O102 2.004 . S
Co98 O108 2.021 . S
Co98 O110 2.137 . S
Co98 O111 2.244 . S
O99 Co98 2.216 . S
O99 C106 1.247 . S
O100 Co98 2.091 . S
O100 C106 1.261 . S
C101 O110 1.247 . S
C101 O111 1.272 . S
O102 Co98 2.004 . S
O102 C107 1.259 . S
Co103 O104 2.061 . S
Co103 O109 2.052 . S
Co103 O111 2.135 . S
O104 Co103 2.061 . S
O104 C107 1.235 . S
C105 O108 1.238 . S
C105 O109 1.241 . S
C106 O99 1.247 . S
C106 O100 1.261 . S
C107 O102 1.259 . S
C107 O104 1.235 . S
O108 Co98 2.021 . S
O108 C105 1.238 . S
O109 Co103 2.052 . S
O109 C105 1.241 . S
O110 Co98 2.137 . S
O110 C101 1.247 . S
O111 Co98 2.244 . S
O111 C101 1.272 . S
O111 Co103 2.135 . S
Co112 O113 2.216 . S
Co112 O114 2.091 . S
Co112 O116 2.004 . S
Co112 O122 2.021 . S
Co112 O124 2.137 . S
Co112 O125 2.244 . S
O113 Co112 2.216 . S
O113 C120 1.247 . S
O114 Co112 2.091 . S
O114 C120 1.261 . S
C115 O124 1.247 . S
C115 O125 1.272 . S
O116 Co112 2.004 . S
O116 C121 1.259 . S
Co117 O118 2.061 . S
Co117 O123 2.052 . S
Co117 O125 2.135 . S
O118 Co117 2.061 . S
O118 C121 1.235 . S
C119 O122 1.238 . S
C119 O123 1.241 . S
C120 O113 1.247 . S
C120 O114 1.261 . S
C121 O116 1.259 . S
C121 O118 1.235 . S
O122 Co112 2.021 . S
O122 C119 1.238 . S
O123 Co117 2.052 . S
O123 C119 1.241 . S
O124 Co112 2.137 . S
O124 C115 1.247 . S
O125 Co112 2.244 . S
O125 C115 1.272 . S
O125 Co117 2.135 . S
Co126 O127 2.216 . S
Co126 O128 2.091 . S
Co126 O130 2.004 . S
Co126 O136 2.021 . S
Co126 O138 2.137 . S
Co126 O139 2.244 . S
O127 Co126 2.216 . S
O127 C134 1.247 . S
O128 Co126 2.091 . S
O128 C134 1.261 . S
C129 O138 1.247 . S
C129 O139 1.272 . S
O130 Co126 2.004 . S
O130 C135 1.259 . S
Co131 O132 2.061 . S
Co131 O137 2.052 . S
Co131 O139 2.135 . S
O132 Co131 2.061 . S
O132 C135 1.235 . S
C133 O136 1.238 . S
C133 O137 1.241 . S
C134 O127 1.247 . S
C134 O128 1.261 . S
C135 O130 1.259 . S
C135 O132 1.235 . S
O136 Co126 2.021 . S
O136 C133 1.238 . S
O137 Co131 2.052 . S
O137 C133 1.241 . S
O138 Co126 2.137 . S
O138 C129 1.247 . S
O139 Co126 2.244 . S
O139 C129 1.272 . S
O139 Co131 2.135 . S
Co140 O141 2.216 . S
Co140 O142 2.091 . S
Co140 O144 2.004 . S
Co140 O150 2.021 . S
Co140 O152 2.137 . S
Co140 O153 2.244 . S
O141 Co140 2.216 . S
O141 C148 1.247 . S
O142 Co140 2.091 . S
O142 C148 1.261 . S
C143 O152 1.247 . S
C143 O153 1.272 . S
O144 Co140 2.004 . S
O144 C149 1.259 . S
Co145 O146 2.061 . S
Co145 O151 2.052 . S
Co145 O153 2.135 . S
O146 Co145 2.061 . S
O146 C149 1.235 . S
C147 O150 1.238 . S
C147 O151 1.241 . S
C148 O141 1.247 . S
C148 O142 1.261 . S
C149 O144 1.259 . S
C149 O146 1.235 . S
O150 Co140 2.021 . S
O150 C147 1.238 . S
O151 Co145 2.052 . S
O151 C147 1.241 . S
O152 Co140 2.137 . S
O152 C143 1.247 . S
O153 Co140 2.244 . S
O153 C143 1.272 . S
O153 Co145 2.135 . S
Co154 O155 2.216 . S
Co154 O156 2.091 . S
Co154 O158 2.004 . S
Co154 O164 2.021 . S
Co154 O166 2.137 . S
Co154 O167 2.244 . S
O155 Co154 2.216 . S
O155 C162 1.247 . S
O156 Co154 2.091 . S
O156 C162 1.261 . S
C157 O166 1.247 . S
C157 O167 1.272 . S
O158 Co154 2.004 . S
O158 C163 1.259 . S
Co159 O160 2.061 . S
Co159 O165 2.052 . S
Co159 O167 2.135 . S
O160 Co159 2.061 . S
O160 C163 1.235 . S
C161 O164 1.238 . S
C161 O165 1.241 . S
C162 O155 1.247 . S
C162 O156 1.261 . S
C163 O158 1.259 . S
C163 O160 1.235 . S
O164 Co154 2.021 . S
O164 C161 1.238 . S
O165 Co159 2.052 . S
O165 C161 1.241 . S
O166 Co154 2.137 . S
O166 C157 1.247 . S
O167 Co154 2.244 . S
O167 C157 1.272 . S
O167 Co159 2.135 . S
Co168 O169 2.216 . S
Co168 O170 2.091 . S
Co168 O172 2.004 . S
Co168 O178 2.021 . S
Co168 O180 2.137 . S
Co168 O181 2.244 . S
O169 Co168 2.216 . S
O169 C176 1.247 . S
O170 Co168 2.091 . S
O170 C176 1.261 . S
C171 O180 1.247 . S
C171 O181 1.272 . S
O172 Co168 2.004 . S
O172 C177 1.259 . S
Co173 O174 2.061 . S
Co173 O179 2.052 . S
Co173 O181 2.135 . S
O174 Co173 2.061 . S
O174 C177 1.235 . S
C175 O178 1.238 . S
C175 O179 1.241 . S
C176 O169 1.247 . S
C176 O170 1.261 . S
C177 O172 1.259 . S
C177 O174 1.235 . S
O178 Co168 2.021 . S
O178 C175 1.238 . S
O179 Co173 2.052 . S
O179 C175 1.241 . S
O180 Co168 2.137 . S
O180 C171 1.247 . S
O181 Co168 2.244 . S
O181 C171 1.272 . S
O181 Co173 2.135 . S
Co182 O183 2.216 . S
Co182 O184 2.091 . S
Co182 O186 2.004 . S
Co182 O192 2.021 . S
Co182 O194 2.137 . S
Co182 O195 2.244 . S
O183 Co182 2.216 . S
O183 C190 1.247 . S
O184 Co182 2.091 . S
O184 C190 1.261 . S
C185 O194 1.247 . S
C185 O195 1.272 . S
O186 Co182 2.004 . S
O186 C191 1.259 . S
Co187 O188 2.061 . S
Co187 O193 2.052 . S
Co187 O195 2.135 . S
O188 Co187 2.061 . S
O188 C191 1.235 . S
C189 O192 1.238 . S
C189 O193 1.241 . S
C190 O183 1.247 . S
C190 O184 1.261 . S
C191 O186 1.259 . S
C191 O188 1.235 . S
O192 Co182 2.021 . S
O192 C189 1.238 . S
O193 Co187 2.052 . S
O193 C189 1.241 . S
O194 Co182 2.137 . S
O194 C185 1.247 . S
O195 Co182 2.244 . S
O195 C185 1.272 . S
O195 Co187 2.135 . S
Co196 O197 2.216 . S
Co196 O198 2.091 . S
Co196 O200 2.004 . S
Co196 O206 2.021 . S
Co196 O208 2.137 . S
Co196 O209 2.244 . S
O197 Co196 2.216 . S
O197 C204 1.247 . S
O198 Co196 2.091 . S
O198 C204 1.261 . S
C199 O208 1.247 . S
C199 O209 1.272 . S
O200 Co196 2.004 . S
O200 C205 1.259 . S
Co201 O202 2.061 . S
Co201 O207 2.052 . S
Co201 O209 2.135 . S
O202 Co201 2.061 . S
O202 C205 1.235 . S
C203 O206 1.238 . S
C203 O207 1.241 . S
C204 O197 1.247 . S
C204 O198 1.261 . S
C205 O200 1.259 . S
C205 O202 1.235 . S
O206 Co196 2.021 . S
O206 C203 1.238 . S
O207 Co201 2.052 . S
O207 C203 1.241 . S
O208 Co196 2.137 . S
O208 C199 1.247 . S
O209 Co196 2.244 . S
O209 C199 1.272 . S
O209 Co201 2.135 . S
Co210 O211 2.216 . S
Co210 O212 2.091 . S
Co210 O214 2.004 . S
Co210 O220 2.021 . S
Co210 O222 2.137 . S
Co210 O223 2.244 . S
O211 Co210 2.216 . S
O211 C218 1.247 . S
O212 Co210 2.091 . S
O212 C218 1.261 . S
C213 O222 1.247 . S
C213 O223 1.272 . S
O214 Co210 2.004 . S
O214 C219 1.259 . S
Co215 O216 2.061 . S
Co215 O221 2.052 . S
Co215 O223 2.135 . S
O216 Co215 2.061 . S
O216 C219 1.235 . S
C217 O220 1.238 . S
C217 O221 1.241 . S
C218 O211 1.247 . S
C218 O212 1.261 . S
C219 O214 1.259 . S
C219 O216 1.235 . S
O220 Co210 2.021 . S
O220 C217 1.238 . S
O221 Co215 2.052 . S
O221 C217 1.241 . S
O222 Co210 2.137 . S
O222 C213 1.247 . S
O223 Co210 2.244 . S
O223 C213 1.272 . S
O223 Co215 2.135 . S
Co224 O225 2.216 . S
Co224 O226 2.091 . S
Co224 O228 2.004 . S
Co224 O234 2.021 . S
Co224 O236 2.137 . S
Co224 O237 2.244 . S
O225 Co224 2.216 . S
O225 C232 1.247 . S
O226 Co224 2.091 . S
O226 C232 1.261 . S
C227 O236 1.247 . S
C227 O237 1.272 . S
O228 Co224 2.004 . S
O228 C233 1.259 . S
Co229 O230 2.061 . S
Co229 O235 2.052 . S
Co229 O237 2.135 . S
O230 Co229 2.061 . S
O230 C233 1.235 . S
C231 O234 1.238 . S
C231 O235 1.241 . S
C232 O225 1.247 . S
C232 O226 1.261 . S
C233 O228 1.259 . S
C233 O230 1.235 . S
O234 Co224 2.021 . S
O234 C231 1.238 . S
O235 Co229 2.052 . S
O235 C231 1.241 . S
O236 Co224 2.137 . S
O236 C227 1.247 . S
O237 Co224 2.244 . S
O237 C227 1.272 . S
O237 Co229 2.135 . S
Co238 O239 2.216 . S
Co238 O240 2.091 . S
Co238 O242 2.004 . S
Co238 O248 2.021 . S
Co238 O250 2.137 . S
Co238 O251 2.244 . S
O239 Co238 2.216 . S
O239 C246 1.247 . S
O240 Co238 2.091 . S
O240 C246 1.261 . S
C241 O250 1.247 . S
C241 O251 1.272 . S
O242 Co238 2.004 . S
O242 C247 1.259 . S
Co243 O244 2.061 . S
Co243 O249 2.052 . S
Co243 O251 2.135 . S
O244 Co243 2.061 . S
O244 C247 1.235 . S
C245 O248 1.238 . S
C245 O249 1.241 . S
C246 O239 1.247 . S
C246 O240 1.261 . S
C247 O242 1.259 . S
C247 O244 1.235 . S
O248 Co238 2.021 . S
O248 C245 1.238 . S
O249 Co243 2.052 . S
O249 C245 1.241 . S
O250 Co238 2.137 . S
O250 C241 1.247 . S
O251 Co238 2.244 . S
O251 C241 1.272 . S
O251 Co243 2.135 . S
Co252 O253 2.216 . S
Co252 O254 2.091 . S
Co252 O256 2.004 . S
Co252 O262 2.021 . S
Co252 O264 2.137 . S
Co252 O265 2.244 . S
O253 Co252 2.216 . S
O253 C260 1.247 . S
O254 Co252 2.091 . S
O254 C260 1.261 . S
C255 O264 1.247 . S
C255 O265 1.272 . S
O256 Co252 2.004 . S
O256 C261 1.259 . S
Co257 O258 2.061 . S
Co257 O263 2.052 . S
Co257 O265 2.135 . S
O258 Co257 2.061 . S
O258 C261 1.235 . S
C259 O262 1.238 . S
C259 O263 1.241 . S
C260 O253 1.247 . S
C260 O254 1.261 . S
C261 O256 1.259 . S
C261 O258 1.235 . S
O262 Co252 2.021 . S
O262 C259 1.238 . S
O263 Co257 2.052 . S
O263 C259 1.241 . S
O264 Co252 2.137 . S
O264 C255 1.247 . S
O265 Co252 2.244 . S
O265 C255 1.272 . S
O265 Co257 2.135 . S
Co266 O267 2.216 . S
Co266 O268 2.091 . S
Co266 O270 2.004 . S
Co266 O276 2.021 . S
Co266 O278 2.137 . S
Co266 O279 2.244 . S
O267 Co266 2.216 . S
O267 C274 1.247 . S
O268 Co266 2.091 . S
O268 C274 1.261 . S
C269 O278 1.247 . S
C269 O279 1.272 . S
O270 Co266 2.004 . S
O270 C275 1.259 . S
Co271 O272 2.061 . S
Co271 O277 2.052 . S
Co271 O279 2.135 . S
O272 Co271 2.061 . S
O272 C275 1.235 . S
C273 O276 1.238 . S
C273 O277 1.241 . S
C274 O267 1.247 . S
C274 O268 1.261 . S
C275 O270 1.259 . S
C275 O272 1.235 . S
O276 Co266 2.021 . S
O276 C273 1.238 . S
O277 Co271 2.052 . S
O277 C273 1.241 . S
O278 Co266 2.137 . S
O278 C269 1.247 . S
O279 Co266 2.244 . S
O279 C269 1.272 . S
O279 Co271 2.135 . S
Co280 O281 2.216 . S
Co280 O282 2.091 . S
Co280 O284 2.004 . S
Co280 O290 2.021 . S
Co280 O292 2.137 . S
Co280 O293 2.244 . S
O281 Co280 2.216 . S
O281 C288 1.247 . S
O282 Co280 2.091 . S
O282 C288 1.261 . S
C283 O292 1.247 . S
C283 O293 1.272 . S
O284 Co280 2.004 . S
O284 C289 1.259 . S
Co285 O286 2.061 . S
Co285 O291 2.052 . S
Co285 O293 2.135 . S
O286 Co285 2.061 . S
O286 C289 1.235 . S
C287 O290 1.238 . S
C287 O291 1.241 . S
C288 O281 1.247 . S
C288 O282 1.261 . S
C289 O284 1.259 . S
C289 O286 1.235 . S
O290 Co280 2.021 . S
O290 C287 1.238 . S
O291 Co285 2.052 . S
O291 C287 1.241 . S
O292 Co280 2.137 . S
O292 C283 1.247 . S
O293 Co280 2.244 . S
O293 C283 1.272 . S
O293 Co285 2.135 . S
Co294 O295 2.216 . S
Co294 O296 2.091 . S
Co294 O298 2.004 . S
Co294 O304 2.021 . S
Co294 O306 2.137 . S
Co294 O307 2.244 . S
O295 Co294 2.216 . S
O295 C302 1.247 . S
O296 Co294 2.091 . S
O296 C302 1.261 . S
C297 O306 1.247 . S
C297 O307 1.272 . S
O298 Co294 2.004 . S
O298 C303 1.259 . S
Co299 O300 2.061 . S
Co299 O305 2.052 . S
Co299 O307 2.135 . S
O300 Co299 2.061 . S
O300 C303 1.235 . S
C301 O304 1.238 . S
C301 O305 1.241 . S
C302 O295 1.247 . S
C302 O296 1.261 . S
C303 O298 1.259 . S
C303 O300 1.235 . S
O304 Co294 2.021 . S
O304 C301 1.238 . S
O305 Co299 2.052 . S
O305 C301 1.241 . S
O306 Co294 2.137 . S
O306 C297 1.247 . S
O307 Co294 2.244 . S
O307 C297 1.272 . S
O307 Co299 2.135 . S
Co308 O309 2.216 . S
Co308 O310 2.091 . S
Co308 O312 2.004 . S
Co308 O318 2.021 . S
Co308 O320 2.137 . S
Co308 O321 2.244 . S
O309 Co308 2.216 . S
O309 C316 1.247 . S
O310 Co308 2.091 . S
O310 C316 1.261 . S
C311 O320 1.247 . S
C311 O321 1.272 . S
O312 Co308 2.004 . S
O312 C317 1.259 . S
Co313 O314 2.061 . S
Co313 O319 2.052 . S
Co313 O321 2.135 . S
O314 Co313 2.061 . S
O314 C317 1.235 . S
C315 O318 1.238 . S
C315 O319 1.241 . S
C316 O309 1.247 . S
C316 O310 1.261 . S
C317 O312 1.259 . S
C317 O314 1.235 . S
O318 Co308 2.021 . S
O318 C315 1.238 . S
O319 Co313 2.052 . S
O319 C315 1.241 . S
O320 Co308 2.137 . S
O320 C311 1.247 . S
O321 Co308 2.244 . S
O321 C311 1.272 . S
O321 Co313 2.135 . S
Co322 O323 2.216 . S
Co322 O324 2.091 . S
Co322 O326 2.004 . S
Co322 O332 2.021 . S
Co322 O334 2.137 . S
Co322 O335 2.244 . S
O323 Co322 2.216 . S
O323 C330 1.247 . S
O324 Co322 2.091 . S
O324 C330 1.261 . S
C325 O334 1.247 . S
C325 O335 1.272 . S
O326 Co322 2.004 . S
O326 C331 1.259 . S
Co327 O328 2.061 . S
Co327 O333 2.052 . S
Co327 O335 2.135 . S
O328 Co327 2.061 . S
O328 C331 1.235 . S
C329 O332 1.238 . S
C329 O333 1.241 . S
C330 O323 1.247 . S
C330 O324 1.261 . S
C331 O326 1.259 . S
C331 O328 1.235 . S
O332 Co322 2.021 . S
O332 C329 1.238 . S
O333 Co327 2.052 . S
O333 C329 1.241 . S
O334 Co322 2.137 . S
O334 C325 1.247 . S
O335 Co322 2.244 . S
O335 C325 1.272 . S
O335 Co327 2.135 . S
Co336 O337 2.216 . S
Co336 O338 2.091 . S
Co336 O340 2.004 . S
Co336 O346 2.021 . S
Co336 O348 2.137 . S
Co336 O349 2.244 . S
O337 Co336 2.216 . S
O337 C344 1.247 . S
O338 Co336 2.091 . S
O338 C344 1.261 . S
C339 O348 1.247 . S
C339 O349 1.272 . S
O340 Co336 2.004 . S
O340 C345 1.259 . S
Co341 O342 2.061 . S
Co341 O347 2.052 . S
Co341 O349 2.135 . S
O342 Co341 2.061 . S
O342 C345 1.235 . S
C343 O346 1.238 . S
C343 O347 1.241 . S
C344 O337 1.247 . S
C344 O338 1.261 . S
C345 O340 1.259 . S
C345 O342 1.235 . S
O346 Co336 2.021 . S
O346 C343 1.238 . S
O347 Co341 2.052 . S
O347 C343 1.241 . S
O348 Co336 2.137 . S
O348 C339 1.247 . S
O349 Co336 2.244 . S
O349 C339 1.272 . S
O349 Co341 2.135 . S
Co350 O351 2.216 . S
Co350 O352 2.091 . S
Co350 O354 2.004 . S
Co350 O360 2.021 . S
Co350 O362 2.137 . S
Co350 O363 2.244 . S
O351 Co350 2.216 . S
O351 C358 1.247 . S
O352 Co350 2.091 . S
O352 C358 1.261 . S
C353 O362 1.247 . S
C353 O363 1.272 . S
O354 Co350 2.004 . S
O354 C359 1.259 . S
Co355 O356 2.061 . S
Co355 O361 2.052 . S
Co355 O363 2.135 . S
O356 Co355 2.061 . S
O356 C359 1.235 . S
C357 O360 1.238 . S
C357 O361 1.241 . S
C358 O351 1.247 . S
C358 O352 1.261 . S
C359 O354 1.259 . S
C359 O356 1.235 . S
O360 Co350 2.021 . S
O360 C357 1.238 . S
O361 Co355 2.052 . S
O361 C357 1.241 . S
O362 Co350 2.137 . S
O362 C353 1.247 . S
O363 Co350 2.244 . S
O363 C353 1.272 . S
O363 Co355 2.135 . S
Co364 O365 2.216 . S
Co364 O366 2.091 . S
Co364 O368 2.004 . S
Co364 O374 2.021 . S
Co364 O376 2.137 . S
Co364 O377 2.244 . S
O365 Co364 2.216 . S
O365 C372 1.247 . S
O366 Co364 2.091 . S
O366 C372 1.261 . S
C367 O376 1.247 . S
C367 O377 1.272 . S
O368 Co364 2.004 . S
O368 C373 1.259 . S
Co369 O370 2.061 . S
Co369 O375 2.052 . S
Co369 O377 2.135 . S
O370 Co369 2.061 . S
O370 C373 1.235 . S
C371 O374 1.238 . S
C371 O375 1.241 . S
C372 O365 1.247 . S
C372 O366 1.261 . S
C373 O368 1.259 . S
C373 O370 1.235 . S
O374 Co364 2.021 . S
O374 C371 1.238 . S
O375 Co369 2.052 . S
O375 C371 1.241 . S
O376 Co364 2.137 . S
O376 C367 1.247 . S
O377 Co364 2.244 . S
O377 C367 1.272 . S
O377 Co369 2.135 . S
Co378 O379 2.216 . S
Co378 O380 2.091 . S
Co378 O382 2.004 . S
Co378 O388 2.021 . S
Co378 O390 2.137 . S
Co378 O391 2.244 . S
O379 Co378 2.216 . S
O379 C386 1.247 . S
O380 Co378 2.091 . S
O380 C386 1.261 . S
C381 O390 1.247 . S
C381 O391 1.272 . S
O382 Co378 2.004 . S
O382 C387 1.259 . S
Co383 O384 2.061 . S
Co383 O389 2.052 . S
Co383 O391 2.135 . S
O384 Co383 2.061 . S
O384 C387 1.235 . S
C385 O388 1.238 . S
C385 O389 1.241 . S
C386 O379 1.247 . S
C386 O380 1.261 . S
C387 O382 1.259 . S
C387 O384 1.235 . S
O388 Co378 2.021 . S
O388 C385 1.238 . S
O389 Co383 2.052 . S
O389 C385 1.241 . S
O390 Co378 2.137 . S
O390 C381 1.247 . S
O391 Co378 2.244 . S
O391 C381 1.272 . S
O391 Co383 2.135 . S
Co392 O393 2.216 . S
Co392 O394 2.091 . S
Co392 O396 2.004 . S
Co392 O402 2.021 . S
Co392 O404 2.137 . S
Co392 O405 2.244 . S
O393 Co392 2.216 . S
O393 C400 1.247 . S
O394 Co392 2.091 . S
O394 C400 1.261 . S
C395 O404 1.247 . S
C395 O405 1.272 . S
O396 Co392 2.004 . S
O396 C401 1.259 . S
Co397 O398 2.061 . S
Co397 O403 2.052 . S
Co397 O405 2.135 . S
O398 Co397 2.061 . S
O398 C401 1.235 . S
C399 O402 1.238 . S
C399 O403 1.241 . S
C400 O393 1.247 . S
C400 O394 1.261 . S
C401 O396 1.259 . S
C401 O398 1.235 . S
O402 Co392 2.021 . S
O402 C399 1.238 . S
O403 Co397 2.052 . S
O403 C399 1.241 . S
O404 Co392 2.137 . S
O404 C395 1.247 . S
O405 Co392 2.244 . S
O405 C395 1.272 . S
O405 Co397 2.135 . S
Co406 O407 2.216 . S
Co406 O408 2.091 . S
Co406 O410 2.004 . S
Co406 O416 2.021 . S
Co406 O418 2.137 . S
Co406 O419 2.244 . S
O407 Co406 2.216 . S
O407 C414 1.247 . S
O408 Co406 2.091 . S
O408 C414 1.261 . S
C409 O418 1.247 . S
C409 O419 1.272 . S
O410 Co406 2.004 . S
O410 C415 1.259 . S
Co411 O412 2.061 . S
Co411 O417 2.052 . S
Co411 O419 2.135 . S
O412 Co411 2.061 . S
O412 C415 1.235 . S
C413 O416 1.238 . S
C413 O417 1.241 . S
C414 O407 1.247 . S
C414 O408 1.261 . S
C415 O410 1.259 . S
C415 O412 1.235 . S
O416 Co406 2.021 . S
O416 C413 1.238 . S
O417 Co411 2.052 . S
O417 C413 1.241 . S
O418 Co406 2.137 . S
O418 C409 1.247 . S
O419 Co406 2.244 . S
O419 C409 1.272 . S
O419 Co411 2.135 . S
Co420 O421 2.216 . S
Co420 O422 2.091 . S
Co420 O424 2.004 . S
Co420 O430 2.021 . S
Co420 O432 2.137 . S
Co420 O433 2.244 . S
O421 Co420 2.216 . S
O421 C428 1.247 . S
O422 Co420 2.091 . S
O422 C428 1.261 . S
C423 O432 1.247 . S
C423 O433 1.272 . S
O424 Co420 2.004 . S
O424 C429 1.259 . S
Co425 O426 2.061 . S
Co425 O431 2.052 . S
Co425 O433 2.135 . S
O426 Co425 2.061 . S
O426 C429 1.235 . S
C427 O430 1.238 . S
C427 O431 1.241 . S
C428 O421 1.247 . S
C428 O422 1.261 . S
C429 O424 1.259 . S
C429 O426 1.235 . S
O430 Co420 2.021 . S
O430 C427 1.238 . S
O431 Co425 2.052 . S
O431 C427 1.241 . S
O432 Co420 2.137 . S
O432 C423 1.247 . S
O433 Co420 2.244 . S
O433 C423 1.272 . S
O433 Co425 2.135 . S
Co434 O435 2.216 . S
Co434 O436 2.091 . S
Co434 O438 2.004 . S
Co434 O444 2.021 . S
Co434 O446 2.137 . S
Co434 O447 2.244 . S
O435 Co434 2.216 . S
O435 C442 1.247 . S
O436 Co434 2.091 . S
O436 C442 1.261 . S
C437 O446 1.247 . S
C437 O447 1.272 . S
O438 Co434 2.004 . S
O438 C443 1.259 . S
Co439 O440 2.061 . S
Co439 O445 2.052 . S
Co439 O447 2.135 . S
O440 Co439 2.061 . S
O440 C443 1.235 . S
C441 O444 1.238 . S
C441 O445 1.241 . S
C442 O435 1.247 . S
C442 O436 1.261 . S
C443 O438 1.259 . S
C443 O440 1.235 . S
O444 Co434 2.021 . S
O444 C441 1.238 . S
O445 Co439 2.052 . S
O445 C441 1.241 . S
O446 Co434 2.137 . S
O446 C437 1.247 . S
O447 Co434 2.244 . S
O447 C437 1.272 . S
O447 Co439 2.135 . S
H448 C454 0.930 . S
H449 C457 0.930 . S
H450 C458 0.930 . S
H451 C459 0.930 . S
H452 C462 0.930 . S
H453 C463 0.930 . S
C454 H448 0.930 . S
C454 C455 1.355 . S
C454 C456 1.415 . S
C455 C454 1.355 . S
C455 C457 1.419 . S
C456 C454 1.415 . S
C456 C461 1.425 . S
C456 C463 1.409 . S
C457 H449 0.930 . S
C457 C455 1.419 . S
C457 C458 1.362 . S
C458 H450 0.930 . S
C458 C457 1.362 . S
C458 C461 1.409 . S
C459 H451 0.930 . S
C459 C460 1.355 . S
C459 C461 1.415 . S
C460 C459 1.355 . S
C460 C462 1.419 . S
C461 C456 1.425 . S
C461 C458 1.409 . S
C461 C459 1.415 . S
C462 H452 0.930 . S
C462 C460 1.419 . S
C462 C463 1.362 . S
C463 H453 0.930 . S
C463 C456 1.409 . S
C463 C462 1.362 . S
H464 C470 0.930 . S
H465 C473 0.930 . S
H466 C474 0.930 . S
H467 C475 0.930 . S
H468 C478 0.930 . S
H469 C479 0.930 . S
C470 H464 0.930 . S
C470 C471 1.355 . S
C470 C472 1.415 . S
C471 C470 1.355 . S
C471 C473 1.419 . S
C472 C470 1.415 . S
C472 C477 1.425 . S
C472 C479 1.409 . S
C473 H465 0.930 . S
C473 C471 1.419 . S
C473 C474 1.362 . S
C474 H466 0.930 . S
C474 C473 1.362 . S
C474 C477 1.409 . S
C475 H467 0.930 . S
C475 C476 1.355 . S
C475 C477 1.415 . S
C476 C475 1.355 . S
C476 C478 1.419 . S
C477 C472 1.425 . S
C477 C474 1.409 . S
C477 C475 1.415 . S
C478 H468 0.930 . S
C478 C476 1.419 . S
C478 C479 1.362 . S
C479 H469 0.930 . S
C479 C472 1.409 . S
C479 C478 1.362 . S
H480 C486 0.930 . S
H481 C489 0.930 . S
H482 C490 0.930 . S
H483 C491 0.930 . S
H484 C494 0.930 . S
H485 C495 0.930 . S
C486 H480 0.930 . S
C486 C487 1.355 . S
C486 C488 1.415 . S
C487 C486 1.355 . S
C487 C489 1.419 . S
C488 C486 1.415 . S
C488 C493 1.425 . S
C488 C495 1.409 . S
C489 H481 0.930 . S
C489 C487 1.419 . S
C489 C490 1.362 . S
C490 H482 0.930 . S
C490 C489 1.362 . S
C490 C493 1.409 . S
C491 H483 0.930 . S
C491 C492 1.355 . S
C491 C493 1.415 . S
C492 C491 1.355 . S
C492 C494 1.419 . S
C493 C488 1.425 . S
C493 C490 1.409 . S
C493 C491 1.415 . S
C494 H484 0.930 . S
C494 C492 1.419 . S
C494 C495 1.362 . S
C495 H485 0.930 . S
C495 C488 1.409 . S
C495 C494 1.362 . S
H496 C502 0.930 . S
H497 C505 0.930 . S
H498 C506 0.930 . S
H499 C507 0.930 . S
H500 C510 0.930 . S
H501 C511 0.930 . S
C502 H496 0.930 . S
C502 C503 1.355 . S
C502 C504 1.415 . S
C503 C502 1.355 . S
C503 C505 1.419 . S
C504 C502 1.415 . S
C504 C509 1.425 . S
C504 C511 1.409 . S
C505 H497 0.930 . S
C505 C503 1.419 . S
C505 C506 1.362 . S
C506 H498 0.930 . S
C506 C505 1.362 . S
C506 C509 1.409 . S
C507 H499 0.930 . S
C507 C508 1.355 . S
C507 C509 1.415 . S
C508 C507 1.355 . S
C508 C510 1.419 . S
C509 C504 1.425 . S
C509 C506 1.409 . S
C509 C507 1.415 . S
C510 H500 0.930 . S
C510 C508 1.419 . S
C510 C511 1.362 . S
C511 H501 0.930 . S
C511 C504 1.409 . S
C511 C510 1.362 . S
H512 C518 0.930 . S
H513 C521 0.930 . S
H514 C522 0.930 . S
H515 C523 0.930 . S
H516 C526 0.930 . S
H517 C527 0.930 . S
C518 H512 0.930 . S
C518 C519 1.355 . S
C518 C520 1.415 . S
C519 C518 1.355 . S
C519 C521 1.419 . S
C520 C518 1.415 . S
C520 C525 1.425 . S
C520 C527 1.409 . S
C521 H513 0.930 . S
C521 C519 1.419 . S
C521 C522 1.362 . S
C522 H514 0.930 . S
C522 C521 1.362 . S
C522 C525 1.409 . S
C523 H515 0.930 . S
C523 C524 1.355 . S
C523 C525 1.415 . S
C524 C523 1.355 . S
C524 C526 1.419 . S
C525 C520 1.425 . S
C525 C522 1.409 . S
C525 C523 1.415 . S
C526 H516 0.930 . S
C526 C524 1.419 . S
C526 C527 1.362 . S
C527 H517 0.930 . S
C527 C520 1.409 . S
C527 C526 1.362 . S
H528 C534 0.930 . S
H529 C537 0.930 . S
H530 C538 0.930 . S
H531 C539 0.930 . S
H532 C542 0.930 . S
H533 C543 0.930 . S
C534 H528 0.930 . S
C534 C535 1.355 . S
C534 C536 1.415 . S
C535 C534 1.355 . S
C535 C537 1.419 . S
C536 C534 1.415 . S
C536 C541 1.425 . S
C536 C543 1.409 . S
C537 H529 0.930 . S
C537 C535 1.419 . S
C537 C538 1.362 . S
C538 H530 0.930 . S
C538 C537 1.362 . S
C538 C541 1.409 . S
C539 H531 0.930 . S
C539 C540 1.355 . S
C539 C541 1.415 . S
C540 C539 1.355 . S
C540 C542 1.419 . S
C541 C536 1.425 . S
C541 C538 1.409 . S
C541 C539 1.415 . S
C542 H532 0.930 . S
C542 C540 1.419 . S
C542 C543 1.362 . S
C543 H533 0.930 . S
C543 C536 1.409 . S
C543 C542 1.362 . S
H544 C550 0.930 . S
H545 C553 0.930 . S
H546 C554 0.930 . S
H547 C555 0.930 . S
H548 C558 0.930 . S
H549 C559 0.930 . S
C550 H544 0.930 . S
C550 C551 1.355 . S
C550 C552 1.415 . S
C551 C550 1.355 . S
C551 C553 1.419 . S
C552 C550 1.415 . S
C552 C557 1.425 . S
C552 C559 1.409 . S
C553 H545 0.930 . S
C553 C551 1.419 . S
C553 C554 1.362 . S
C554 H546 0.930 . S
C554 C553 1.362 . S
C554 C557 1.409 . S
C555 H547 0.930 . S
C555 C556 1.355 . S
C555 C557 1.415 . S
C556 C555 1.355 . S
C556 C558 1.419 . S
C557 C552 1.425 . S
C557 C554 1.409 . S
C557 C555 1.415 . S
C558 H548 0.930 . S
C558 C556 1.419 . S
C558 C559 1.362 . S
C559 H549 0.930 . S
C559 C552 1.409 . S
C559 C558 1.362 . S
H560 C566 0.930 . S
H561 C569 0.930 . S
H562 C570 0.930 . S
H563 C571 0.930 . S
H564 C574 0.930 . S
H565 C575 0.930 . S
C566 H560 0.930 . S
C566 C567 1.355 . S
C566 C568 1.415 . S
C567 C566 1.355 . S
C567 C569 1.419 . S
C568 C566 1.415 . S
C568 C573 1.425 . S
C568 C575 1.409 . S
C569 H561 0.930 . S
C569 C567 1.419 . S
C569 C570 1.362 . S
C570 H562 0.930 . S
C570 C569 1.362 . S
C570 C573 1.409 . S
C571 H563 0.930 . S
C571 C572 1.355 . S
C571 C573 1.415 . S
C572 C571 1.355 . S
C572 C574 1.419 . S
C573 C568 1.425 . S
C573 C570 1.409 . S
C573 C571 1.415 . S
C574 H564 0.930 . S
C574 C572 1.419 . S
C574 C575 1.362 . S
C575 H565 0.930 . S
C575 C568 1.409 . S
C575 C574 1.362 . S
H576 C582 0.930 . S
H577 C585 0.930 . S
H578 C586 0.930 . S
H579 C587 0.930 . S
H580 C590 0.930 . S
H581 C591 0.930 . S
C582 H576 0.930 . S
C582 C583 1.355 . S
C582 C584 1.415 . S
C583 C582 1.355 . S
C583 C585 1.419 . S
C584 C582 1.415 . S
C584 C589 1.425 . S
C584 C591 1.409 . S
C585 H577 0.930 . S
C585 C583 1.419 . S
C585 C586 1.362 . S
C586 H578 0.930 . S
C586 C585 1.362 . S
C586 C589 1.409 . S
C587 H579 0.930 . S
C587 C588 1.355 . S
C587 C589 1.415 . S
C588 C587 1.355 . S
C588 C590 1.419 . S
C589 C584 1.425 . S
C589 C586 1.409 . S
C589 C587 1.415 . S
C590 H580 0.930 . S
C590 C588 1.419 . S
C590 C591 1.362 . S
C591 H581 0.930 . S
C591 C584 1.409 . S
C591 C590 1.362 . S
H592 C598 0.930 . S
H593 C601 0.930 . S
H594 C602 0.930 . S
H595 C603 0.930 . S
H596 C606 0.930 . S
H597 C607 0.930 . S
C598 H592 0.930 . S
C598 C599 1.355 . S
C598 C600 1.415 . S
C599 C598 1.355 . S
C599 C601 1.419 . S
C600 C598 1.415 . S
C600 C605 1.425 . S
C600 C607 1.409 . S
C601 H593 0.930 . S
C601 C599 1.419 . S
C601 C602 1.362 . S
C602 H594 0.930 . S
C602 C601 1.362 . S
C602 C605 1.409 . S
C603 H595 0.930 . S
C603 C604 1.355 . S
C603 C605 1.415 . S
C604 C603 1.355 . S
C604 C606 1.419 . S
C605 C600 1.425 . S
C605 C602 1.409 . S
C605 C603 1.415 . S
C606 H596 0.930 . S
C606 C604 1.419 . S
C606 C607 1.362 . S
C607 H597 0.930 . S
C607 C600 1.409 . S
C607 C606 1.362 . S
H608 C614 0.930 . S
H609 C617 0.930 . S
H610 C618 0.930 . S
H611 C619 0.930 . S
H612 C622 0.930 . S
H613 C623 0.930 . S
C614 H608 0.930 . S
C614 C615 1.355 . S
C614 C616 1.415 . S
C615 C614 1.355 . S
C615 C617 1.419 . S
C616 C614 1.415 . S
C616 C621 1.425 . S
C616 C623 1.409 . S
C617 H609 0.930 . S
C617 C615 1.419 . S
C617 C618 1.362 . S
C618 H610 0.930 . S
C618 C617 1.362 . S
C618 C621 1.409 . S
C619 H611 0.930 . S
C619 C620 1.355 . S
C619 C621 1.415 . S
C620 C619 1.355 . S
C620 C622 1.419 . S
C621 C616 1.425 . S
C621 C618 1.409 . S
C621 C619 1.415 . S
C622 H612 0.930 . S
C622 C620 1.419 . S
C622 C623 1.362 . S
C623 H613 0.930 . S
C623 C616 1.409 . S
C623 C622 1.362 . S
H624 C630 0.930 . S
H625 C633 0.930 . S
H626 C634 0.930 . S
H627 C635 0.930 . S
H628 C638 0.930 . S
H629 C639 0.930 . S
C630 H624 0.930 . S
C630 C631 1.355 . S
C630 C632 1.415 . S
C631 C630 1.355 . S
C631 C633 1.419 . S
C632 C630 1.415 . S
C632 C637 1.425 . S
C632 C639 1.409 . S
C633 H625 0.930 . S
C633 C631 1.419 . S
C633 C634 1.362 . S
C634 H626 0.930 . S
C634 C633 1.362 . S
C634 C637 1.409 . S
C635 H627 0.930 . S
C635 C636 1.355 . S
C635 C637 1.415 . S
C636 C635 1.355 . S
C636 C638 1.419 . S
C637 C632 1.425 . S
C637 C634 1.409 . S
C637 C635 1.415 . S
C638 H628 0.930 . S
C638 C636 1.419 . S
C638 C639 1.362 . S
C639 H629 0.930 . S
C639 C632 1.409 . S
C639 C638 1.362 . S
H640 C646 0.930 . S
H641 C649 0.930 . S
H642 C650 0.930 . S
H643 C651 0.930 . S
H644 C654 0.930 . S
H645 C655 0.930 . S
C646 H640 0.930 . S
C646 C647 1.355 . S
C646 C648 1.415 . S
C647 C646 1.355 . S
C647 C649 1.419 . S
C648 C646 1.415 . S
C648 C653 1.425 . S
C648 C655 1.409 . S
C649 H641 0.930 . S
C649 C647 1.419 . S
C649 C650 1.362 . S
C650 H642 0.930 . S
C650 C649 1.362 . S
C650 C653 1.409 . S
C651 H643 0.930 . S
C651 C652 1.355 . S
C651 C653 1.415 . S
C652 C651 1.355 . S
C652 C654 1.419 . S
C653 C648 1.425 . S
C653 C650 1.409 . S
C653 C651 1.415 . S
C654 H644 0.930 . S
C654 C652 1.419 . S
C654 C655 1.362 . S
C655 H645 0.930 . S
C655 C648 1.409 . S
C655 C654 1.362 . S
H656 C662 0.930 . S
H657 C665 0.930 . S
H658 C666 0.930 . S
H659 C667 0.930 . S
H660 C670 0.930 . S
H661 C671 0.930 . S
C662 H656 0.930 . S
C662 C663 1.355 . S
C662 C664 1.415 . S
C663 C662 1.355 . S
C663 C665 1.419 . S
C664 C662 1.415 . S
C664 C669 1.425 . S
C664 C671 1.409 . S
C665 H657 0.930 . S
C665 C663 1.419 . S
C665 C666 1.362 . S
C666 H658 0.930 . S
C666 C665 1.362 . S
C666 C669 1.409 . S
C667 H659 0.930 . S
C667 C668 1.355 . S
C667 C669 1.415 . S
C668 C667 1.355 . S
C668 C670 1.419 . S
C669 C664 1.425 . S
C669 C666 1.409 . S
C669 C667 1.415 . S
C670 H660 0.930 . S
C670 C668 1.419 . S
C670 C671 1.362 . S
C671 H661 0.930 . S
C671 C664 1.409 . S
C671 C670 1.362 . S
H672 C678 0.930 . S
H673 C681 0.930 . S
H674 C682 0.930 . S
H675 C683 0.930 . S
H676 C686 0.930 . S
H677 C687 0.930 . S
C678 H672 0.930 . S
C678 C679 1.355 . S
C678 C680 1.415 . S
C679 C678 1.355 . S
C679 C681 1.419 . S
C680 C678 1.415 . S
C680 C685 1.425 . S
C680 C687 1.409 . S
C681 H673 0.930 . S
C681 C679 1.419 . S
C681 C682 1.362 . S
C682 H674 0.930 . S
C682 C681 1.362 . S
C682 C685 1.409 . S
C683 H675 0.930 . S
C683 C684 1.355 . S
C683 C685 1.415 . S
C684 C683 1.355 . S
C684 C686 1.419 . S
C685 C680 1.425 . S
C685 C682 1.409 . S
C685 C683 1.415 . S
C686 H676 0.930 . S
C686 C684 1.419 . S
C686 C687 1.362 . S
C687 H677 0.930 . S
C687 C680 1.409 . S
C687 C686 1.362 . S
H688 C694 0.930 . S
H689 C697 0.930 . S
H690 C698 0.930 . S
H691 C699 0.930 . S
H692 C702 0.930 . S
H693 C703 0.930 . S
C694 H688 0.930 . S
C694 C695 1.355 . S
C694 C696 1.415 . S
C695 C694 1.355 . S
C695 C697 1.419 . S
C696 C694 1.415 . S
C696 C701 1.425 . S
C696 C703 1.409 . S
C697 H689 0.930 . S
C697 C695 1.419 . S
C697 C698 1.362 . S
C698 H690 0.930 . S
C698 C697 1.362 . S
C698 C701 1.409 . S
C699 H691 0.930 . S
C699 C700 1.355 . S
C699 C701 1.415 . S
C700 C699 1.355 . S
C700 C702 1.419 . S
C701 C696 1.425 . S
C701 C698 1.409 . S
C701 C699 1.415 . S
C702 H692 0.930 . S
C702 C700 1.419 . S
C702 C703 1.362 . S
C703 H693 0.930 . S
C703 C696 1.409 . S
C703 C702 1.362 . S
H704 C710 0.930 . S
H705 C713 0.930 . S
H706 C714 0.930 . S
H707 C715 0.930 . S
H708 C718 0.930 . S
H709 C719 0.930 . S
C710 H704 0.930 . S
C710 C711 1.355 . S
C710 C712 1.415 . S
C711 C710 1.355 . S
C711 C713 1.419 . S
C712 C710 1.415 . S
C712 C717 1.425 1_554 S
C712 C719 1.409 1_554 S
C713 H705 0.930 . S
C713 C711 1.419 . S
C713 C714 1.362 . S
C714 H706 0.930 . S
C714 C713 1.362 . S
C714 C717 1.409 1_554 S
C715 H707 0.930 . S
C715 C716 1.355 . S
C715 C717 1.415 . S
C716 C715 1.355 . S
C716 C718 1.419 . S
C717 C712 1.425 1_556 S
C717 C714 1.409 1_556 S
C717 C715 1.415 . S
C718 H708 0.930 . S
C718 C716 1.419 . S
C718 C719 1.362 . S
C719 H709 0.930 . S
C719 C712 1.409 1_556 S
C719 C718 1.362 . S
H720 C726 0.930 . S
H721 C729 0.930 . S
H722 C730 0.930 . S
H723 C731 0.930 . S
H724 C734 0.930 . S
H725 C735 0.930 . S
C726 H720 0.930 . S
C726 C727 1.355 . S
C726 C728 1.415 . S
C727 C726 1.355 . S
C727 C729 1.419 . S
C728 C726 1.415 . S
C728 C733 1.425 1_556 S
C728 C735 1.409 1_556 S
C729 H721 0.930 . S
C729 C727 1.419 . S
C729 C730 1.362 . S
C730 H722 0.930 . S
C730 C729 1.362 . S
C730 C733 1.409 1_556 S
C731 H723 0.930 . S
C731 C732 1.355 . S
C731 C733 1.415 . S
C732 C731 1.355 . S
C732 C734 1.419 . S
C733 C728 1.425 1_554 S
C733 C730 1.409 1_554 S
C733 C731 1.415 . S
C734 H724 0.930 . S
C734 C732 1.419 . S
C734 C735 1.362 . S
C735 H725 0.930 . S
C735 C728 1.409 1_554 S
C735 C734 1.362 . S
H736 C742 0.930 . S
H737 C745 0.930 . S
H738 C746 0.930 . S
H739 C747 0.930 . S
H740 C750 0.930 . S
H741 C751 0.930 . S
C742 H736 0.930 . S
C742 C743 1.355 . S
C742 C744 1.415 . S
C743 C742 1.355 . S
C743 C745 1.419 . S
C744 C742 1.415 . S
C744 C749 1.425 1_556 S
C744 C751 1.409 1_556 S
C745 H737 0.930 . S
C745 C743 1.419 . S
C745 C746 1.362 . S
C746 H738 0.930 . S
C746 C745 1.362 . S
C746 C749 1.409 1_556 S
C747 H739 0.930 . S
C747 C748 1.355 . S
C747 C749 1.415 . S
C748 C747 1.355 . S
C748 C750 1.419 . S
C749 C744 1.425 1_554 S
C749 C746 1.409 1_554 S
C749 C747 1.415 . S
C750 H740 0.930 . S
C750 C748 1.419 . S
C750 C751 1.362 . S
C751 H741 0.930 . S
C751 C744 1.409 1_554 S
C751 C750 1.362 . S
H752 C758 0.930 . S
H753 C761 0.930 . S
H754 C762 0.930 . S
H755 C763 0.930 . S
H756 C766 0.930 . S
H757 C767 0.930 . S
C758 H752 0.930 . S
C758 C759 1.355 . S
C758 C760 1.415 . S
C759 C758 1.355 . S
C759 C761 1.419 . S
C760 C758 1.415 . S
C760 C765 1.425 1_556 S
C760 C767 1.409 1_556 S
C761 H753 0.930 . S
C761 C759 1.419 . S
C761 C762 1.362 . S
C762 H754 0.930 . S
C762 C761 1.362 . S
C762 C765 1.409 1_556 S
C763 H755 0.930 . S
C763 C764 1.355 . S
C763 C765 1.415 . S
C764 C763 1.355 . S
C764 C766 1.419 . S
C765 C760 1.425 1_554 S
C765 C762 1.409 1_554 S
C765 C763 1.415 . S
C766 H756 0.930 . S
C766 C764 1.419 . S
C766 C767 1.362 . S
C767 H757 0.930 . S
C767 C760 1.409 1_554 S
C767 C766 1.362 . S
H768 C774 0.930 . S
H769 C777 0.930 . S
H770 C778 0.930 . S
H771 C779 0.930 . S
H772 C782 0.930 . S
H773 C783 0.930 . S
C774 H768 0.930 . S
C774 C775 1.355 . S
C774 C776 1.415 . S
C775 C774 1.355 . S
C775 C777 1.419 . S
C776 C774 1.415 . S
C776 C781 1.425 . S
C776 C783 1.409 . S
C777 H769 0.930 . S
C777 C775 1.419 . S
C777 C778 1.362 . S
C778 H770 0.930 . S
C778 C777 1.362 . S
C778 C781 1.409 . S
C779 H771 0.930 . S
C779 C780 1.355 . S
C779 C781 1.415 . S
C780 C779 1.355 . S
C780 C782 1.419 . S
C781 C776 1.425 . S
C781 C778 1.409 . S
C781 C779 1.415 . S
C782 H772 0.930 . S
C782 C780 1.419 . S
C782 C783 1.362 . S
C783 H773 0.930 . S
C783 C776 1.409 . S
C783 C782 1.362 . S
H784 C790 0.930 . S
H785 C793 0.930 . S
H786 C794 0.930 . S
H787 C795 0.930 . S
H788 C798 0.930 . S
H789 C799 0.930 . S
C790 H784 0.930 . S
C790 C791 1.355 . S
C790 C792 1.415 . S
C791 C790 1.355 . S
C791 C793 1.419 . S
C792 C790 1.415 . S
C792 C797 1.425 . S
C792 C799 1.409 . S
C793 H785 0.930 . S
C793 C791 1.419 . S
C793 C794 1.362 . S
C794 H786 0.930 . S
C794 C793 1.362 . S
C794 C797 1.409 . S
C795 H787 0.930 . S
C795 C796 1.355 . S
C795 C797 1.415 . S
C796 C795 1.355 . S
C796 C798 1.419 . S
C797 C792 1.425 . S
C797 C794 1.409 . S
C797 C795 1.415 . S
C798 H788 0.930 . S
C798 C796 1.419 . S
C798 C799 1.362 . S
C799 H789 0.930 . S
C799 C792 1.409 . S
C799 C798 1.362 . S
H800 C806 0.930 . S
H801 C809 0.930 . S
H802 C810 0.930 . S
H803 C811 0.930 . S
H804 C814 0.930 . S
H805 C815 0.930 . S
C806 H800 0.930 . S
C806 C807 1.355 . S
C806 C808 1.415 . S
C807 C806 1.355 . S
C807 C809 1.419 . S
C808 C806 1.415 . S
C808 C813 1.425 . S
C808 C815 1.409 . S
C809 H801 0.930 . S
C809 C807 1.419 . S
C809 C810 1.362 . S
C810 H802 0.930 . S
C810 C809 1.362 . S
C810 C813 1.409 . S
C811 H803 0.930 . S
C811 C812 1.355 . S
C811 C813 1.415 . S
C812 C811 1.355 . S
C812 C814 1.419 . S
C813 C808 1.425 . S
C813 C810 1.409 . S
C813 C811 1.415 . S
C814 H804 0.930 . S
C814 C812 1.419 . S
C814 C815 1.362 . S
C815 H805 0.930 . S
C815 C808 1.409 . S
C815 C814 1.362 . S
H816 C822 0.930 . S
H817 C825 0.930 . S
H818 C826 0.930 . S
H819 C827 0.930 . S
H820 C830 0.930 . S
H821 C831 0.930 . S
C822 H816 0.930 . S
C822 C823 1.355 . S
C822 C824 1.415 . S
C823 C822 1.355 . S
C823 C825 1.419 . S
C824 C822 1.415 . S
C824 C829 1.425 . S
C824 C831 1.409 . S
C825 H817 0.930 . S
C825 C823 1.419 . S
C825 C826 1.362 . S
C826 H818 0.930 . S
C826 C825 1.362 . S
C826 C829 1.409 . S
C827 H819 0.930 . S
C827 C828 1.355 . S
C827 C829 1.415 . S
C828 C827 1.355 . S
C828 C830 1.419 . S
C829 C824 1.425 . S
C829 C826 1.409 . S
C829 C827 1.415 . S
C830 H820 0.930 . S
C830 C828 1.419 . S
C830 C831 1.362 . S
C831 H821 0.930 . S
C831 C824 1.409 . S
C831 C830 1.362 . S
H832 C838 0.930 . S
H833 C841 0.930 . S
H834 C842 0.930 . S
H835 C843 0.930 . S
H836 C846 0.930 . S
H837 C847 0.930 . S
C838 H832 0.930 . S
C838 C839 1.355 . S
C838 C840 1.415 . S
C839 C838 1.355 . S
C839 C841 1.419 . S
C840 C838 1.415 . S
C840 C845 1.425 . S
C840 C847 1.409 . S
C841 H833 0.930 . S
C841 C839 1.419 . S
C841 C842 1.362 . S
C842 H834 0.930 . S
C842 C841 1.362 . S
C842 C845 1.409 . S
C843 H835 0.930 . S
C843 C844 1.355 . S
C843 C845 1.415 . S
C844 C843 1.355 . S
C844 C846 1.419 . S
C845 C840 1.425 . S
C845 C842 1.409 . S
C845 C843 1.415 . S
C846 H836 0.930 . S
C846 C844 1.419 . S
C846 C847 1.362 . S
C847 H837 0.930 . S
C847 C840 1.409 . S
C847 C846 1.362 . S
H848 C854 0.930 . S
H849 C857 0.930 . S
H850 C858 0.930 . S
H851 C859 0.930 . S
H852 C862 0.930 . S
H853 C863 0.930 . S
C854 H848 0.930 . S
C854 C855 1.355 . S
C854 C856 1.415 . S
C855 C854 1.355 . S
C855 C857 1.419 . S
C856 C854 1.415 . S
C856 C861 1.425 . S
C856 C863 1.409 . S
C857 H849 0.930 . S
C857 C855 1.419 . S
C857 C858 1.362 . S
C858 H850 0.930 . S
C858 C857 1.362 . S
C858 C861 1.409 . S
C859 H851 0.930 . S
C859 C860 1.355 . S
C859 C861 1.415 . S
C860 C859 1.355 . S
C860 C862 1.419 . S
C861 C856 1.425 . S
C861 C858 1.409 . S
C861 C859 1.415 . S
C862 H852 0.930 . S
C862 C860 1.419 . S
C862 C863 1.362 . S
C863 H853 0.930 . S
C863 C856 1.409 . S
C863 C862 1.362 . S
H864 C870 0.930 . S
H865 C873 0.930 . S
H866 C874 0.930 . S
H867 C875 0.930 . S
H868 C878 0.930 . S
H869 C879 0.930 . S
C870 H864 0.930 . S
C870 C871 1.355 . S
C870 C872 1.415 . S
C871 C870 1.355 . S
C871 C873 1.419 . S
C872 C870 1.415 . S
C872 C877 1.425 . S
C872 C879 1.409 . S
C873 H865 0.930 . S
C873 C871 1.419 . S
C873 C874 1.362 . S
C874 H866 0.930 . S
C874 C873 1.362 . S
C874 C877 1.409 . S
C875 H867 0.930 . S
C875 C876 1.355 . S
C875 C877 1.415 . S
C876 C875 1.355 . S
C876 C878 1.419 . S
C877 C872 1.425 . S
C877 C874 1.409 . S
C877 C875 1.415 . S
C878 H868 0.930 . S
C878 C876 1.419 . S
C878 C879 1.362 . S
C879 H869 0.930 . S
C879 C872 1.409 . S
C879 C878 1.362 . S
H880 C886 0.930 . S
H881 C889 0.930 . S
H882 C890 0.930 . S
H883 C891 0.930 . S
H884 C894 0.930 . S
H885 C895 0.930 . S
C886 H880 0.930 . S
C886 C887 1.355 . S
C886 C888 1.415 . S
C887 C886 1.355 . S
C887 C889 1.419 . S
C888 C886 1.415 . S
C888 C893 1.425 . S
C888 C895 1.409 . S
C889 H881 0.930 . S
C889 C887 1.419 . S
C889 C890 1.362 . S
C890 H882 0.930 . S
C890 C889 1.362 . S
C890 C893 1.409 . S
C891 H883 0.930 . S
C891 C892 1.355 . S
C891 C893 1.415 . S
C892 C891 1.355 . S
C892 C894 1.419 . S
C893 C888 1.425 . S
C893 C890 1.409 . S
C893 C891 1.415 . S
C894 H884 0.930 . S
C894 C892 1.419 . S
C894 C895 1.362 . S
C895 H885 0.930 . S
C895 C888 1.409 . S
C895 C894 1.362 . S
H896 C902 0.930 . S
H897 C905 0.930 . S
H898 C906 0.930 . S
H899 C907 0.930 . S
H900 C910 0.930 . S
H901 C911 0.930 . S
C902 H896 0.930 . S
C902 C903 1.355 . S
C902 C904 1.415 . S
C903 C902 1.355 . S
C903 C905 1.419 . S
C904 C902 1.415 . S
C904 C909 1.425 1_556 S
C904 C911 1.409 1_556 S
C905 H897 0.930 . S
C905 C903 1.419 . S
C905 C906 1.362 . S
C906 H898 0.930 . S
C906 C905 1.362 . S
C906 C909 1.409 1_556 S
C907 H899 0.930 . S
C907 C908 1.355 . S
C907 C909 1.415 . S
C908 C907 1.355 . S
C908 C910 1.419 . S
C909 C904 1.425 1_554 S
C909 C906 1.409 1_554 S
C909 C907 1.415 . S
C910 H900 0.930 . S
C910 C908 1.419 . S
C910 C911 1.362 . S
C911 H901 0.930 . S
C911 C904 1.409 1_554 S
C911 C910 1.362 . S
H912 C918 0.930 . S
H913 C921 0.930 . S
H914 C922 0.930 . S
H915 C923 0.930 . S
H916 C926 0.930 . S
H917 C927 0.930 . S
C918 H912 0.930 . S
C918 C919 1.355 . S
C918 C920 1.415 . S
C919 C918 1.355 . S
C919 C921 1.419 . S
C920 C918 1.415 . S
C920 C925 1.425 1_554 S
C920 C927 1.409 1_554 S
C921 H913 0.930 . S
C921 C919 1.419 . S
C921 C922 1.362 . S
C922 H914 0.930 . S
C922 C921 1.362 . S
C922 C925 1.409 1_554 S
C923 H915 0.930 . S
C923 C924 1.355 . S
C923 C925 1.415 . S
C924 C923 1.355 . S
C924 C926 1.419 . S
C925 C920 1.425 1_556 S
C925 C922 1.409 1_556 S
C925 C923 1.415 . S
C926 H916 0.930 . S
C926 C924 1.419 . S
C926 C927 1.362 . S
C927 H917 0.930 . S
C927 C920 1.409 1_556 S
C927 C926 1.362 . S
H928 C934 0.930 . S
H929 C937 0.930 . S
H930 C938 0.930 . S
H931 C939 0.930 . S
H932 C942 0.930 . S
H933 C943 0.930 . S
C934 H928 0.930 . S
C934 C935 1.355 . S
C934 C936 1.415 . S
C935 C934 1.355 . S
C935 C937 1.419 . S
C936 C934 1.415 . S
C936 C941 1.425 1_554 S
C936 C943 1.409 1_554 S
C937 H929 0.930 . S
C937 C935 1.419 . S
C937 C938 1.362 . S
C938 H930 0.930 . S
C938 C937 1.362 . S
C938 C941 1.409 1_554 S
C939 H931 0.930 . S
C939 C940 1.355 . S
C939 C941 1.415 . S
C940 C939 1.355 . S
C940 C942 1.419 . S
C941 C936 1.425 1_556 S
C941 C938 1.409 1_556 S
C941 C939 1.415 . S
C942 H932 0.930 . S
C942 C940 1.419 . S
C942 C943 1.362 . S
C943 H933 0.930 . S
C943 C936 1.409 1_556 S
C943 C942 1.362 . S
H944 C950 0.930 . S
H945 C953 0.930 . S
H946 C954 0.930 . S
H947 C955 0.930 . S
H948 C958 0.930 . S
H949 C959 0.930 . S
C950 H944 0.930 . S
C950 C951 1.355 . S
C950 C952 1.415 . S
C951 C950 1.355 . S
C951 C953 1.419 . S
C952 C950 1.415 . S
C952 C957 1.425 1_556 S
C952 C959 1.409 1_556 S
C953 H945 0.930 . S
C953 C951 1.419 . S
C953 C954 1.362 . S
C954 H946 0.930 . S
C954 C953 1.362 . S
C954 C957 1.409 1_556 S
C955 H947 0.930 . S
C955 C956 1.355 . S
C955 C957 1.415 . S
C956 C955 1.355 . S
C956 C958 1.419 . S
C957 C952 1.425 1_554 S
C957 C954 1.409 1_554 S
C957 C955 1.415 . S
C958 H948 0.930 . S
C958 C956 1.419 . S
C958 C959 1.362 . S
C959 H949 0.930 . S
C959 C952 1.409 1_554 S
C959 C958 1.362 . S
H960 C966 0.930 . S
H961 C969 0.930 . S
H962 C970 0.930 . S
H963 C971 0.930 . S
H964 C974 0.930 . S
H965 C975 0.930 . S
C966 H960 0.930 . S
C966 C967 1.355 . S
C966 C968 1.415 1_545 S
C967 C966 1.355 . S
C967 C969 1.419 . S
C968 C966 1.415 1_565 S
C968 C973 1.425 1_565 S
C968 C975 1.409 . S
C969 H961 0.930 . S
C969 C967 1.419 . S
C969 C970 1.362 . S
C970 H962 0.930 . S
C970 C969 1.362 . S
C970 C973 1.409 . S
C971 H963 0.930 . S
C971 C972 1.355 . S
C971 C973 1.415 1_565 S
C972 C971 1.355 . S
C972 C974 1.419 . S
C973 C968 1.425 1_545 S
C973 C970 1.409 . S
C973 C971 1.415 1_545 S
C974 H964 0.930 . S
C974 C972 1.419 . S
C974 C975 1.362 . S
C975 H965 0.930 . S
C975 C968 1.409 . S
C975 C974 1.362 . S
H976 C982 0.930 . S
H977 C985 0.930 . S
H978 C986 0.930 . S
H979 C987 0.930 . S
H980 C990 0.930 . S
H981 C991 0.930 . S
C982 H976 0.930 . S
C982 C983 1.355 . S
C982 C984 1.415 1_655 S
C983 C982 1.355 . S
C983 C985 1.419 . S
C984 C982 1.415 1_455 S
C984 C989 1.425 1_455 S
C984 C991 1.409 . S
C985 H977 0.930 . S
C985 C983 1.419 . S
C985 C986 1.362 . S
C986 H978 0.930 . S
C986 C985 1.362 . S
C986 C989 1.409 . S
C987 H979 0.930 . S
C987 C988 1.355 . S
C987 C989 1.415 1_455 S
C988 C987 1.355 . S
C988 C990 1.419 . S
C989 C984 1.425 1_655 S
C989 C986 1.409 . S
C989 C987 1.415 1_655 S
C990 H980 0.930 . S
C990 C988 1.419 . S
C990 C991 1.362 . S
C991 H981 0.930 . S
C991 C984 1.409 . S
C991 C990 1.362 . S
H992 C998 0.930 . S
H993 C1001 0.930 . S
H994 C1002 0.946 . S
H995 C1003 0.930 . S
H996 C1006 0.930 . S
H997 C1007 0.946 . S
C998 H992 0.930 . S
C998 C999 1.355 . S
C998 C1000 1.415 . S
C999 C998 1.355 . S
C999 C1001 1.419 . S
C1000 C998 1.415 . S
C1000 C1005 1.425 1_545 S
C1000 C1007 1.417 . S
C1001 H993 0.930 . S
C1001 C999 1.419 . S
C1001 C1002 1.340 1_545 S
C1002 H994 0.946 . S
C1002 C1001 1.340 1_565 S
C1002 C1005 1.417 . S
C1003 H995 0.930 . S
C1003 C1004 1.355 . S
C1003 C1005 1.415 . S
C1004 C1003 1.355 . S
C1004 C1006 1.419 . S
C1005 C1000 1.425 1_565 S
C1005 C1002 1.417 . S
C1005 C1003 1.415 . S
C1006 H996 0.930 . S
C1006 C1004 1.419 . S
C1006 C1007 1.340 1_565 S
C1007 H997 0.946 . S
C1007 C1000 1.417 . S
C1007 C1006 1.340 1_545 S
H1008 C1014 0.930 . S
H1009 C1017 0.930 . S
H1010 C1018 0.930 . S
H1011 C1019 0.930 . S
H1012 C1022 0.930 . S
H1013 C1023 0.930 . S
C1014 H1008 0.930 . S
C1014 C1015 1.355 . S
C1014 C1016 1.415 . S
C1015 C1014 1.355 . S
C1015 C1017 1.419 . S
C1016 C1014 1.415 . S
C1016 C1021 1.425 1_455 S
C1016 C1023 1.409 . S
C1017 H1009 0.930 . S
C1017 C1015 1.419 . S
C1017 C1018 1.362 1_455 S
C1018 H1010 0.930 . S
C1018 C1017 1.362 1_655 S
C1018 C1021 1.409 . S
C1019 H1011 0.930 . S
C1019 C1020 1.355 . S
C1019 C1021 1.415 . S
C1020 C1019 1.355 . S
C1020 C1022 1.419 . S
C1021 C1016 1.425 1_655 S
C1021 C1018 1.409 . S
C1021 C1019 1.415 . S
C1022 H1012 0.930 . S
C1022 C1020 1.419 . S
C1022 C1023 1.362 1_655 S
C1023 H1013 0.930 . S
C1023 C1016 1.409 . S
C1023 C1022 1.362 1_455 S
H1024 C1030 0.930 . S
H1025 C1033 0.930 . S
H1026 C1034 0.930 . S
H1027 C1035 0.930 . S
H1028 C1038 0.930 . S
H1029 C1039 0.930 . S
C1030 H1024 0.930 . S
C1030 C1031 1.355 . S
C1030 C1032 1.415 1_565 S
C1031 C1030 1.355 . S
C1031 C1033 1.419 . S
C1032 C1030 1.415 1_545 S
C1032 C1037 1.425 1_545 S
C1032 C1039 1.409 . S
C1033 H1025 0.930 . S
C1033 C1031 1.419 . S
C1033 C1034 1.362 . S
C1034 H1026 0.930 . S
C1034 C1033 1.362 . S
C1034 C1037 1.409 . S
C1035 H1027 0.930 . S
C1035 C1036 1.355 . S
C1035 C1037 1.415 1_545 S
C1036 C1035 1.355 . S
C1036 C1038 1.419 . S
C1037 C1032 1.425 1_565 S
C1037 C1034 1.409 . S
C1037 C1035 1.415 1_565 S
C1038 H1028 0.930 . S
C1038 C1036 1.419 . S
C1038 C1039 1.362 . S
C1039 H1029 0.930 . S
C1039 C1032 1.409 . S
C1039 C1038 1.362 . S
H1040 C1046 0.930 . S
H1041 C1049 0.930 . S
H1042 C1050 0.930 . S
H1043 C1051 0.930 . S
H1044 C1054 0.930 . S
H1045 C1055 0.930 . S
C1046 H1040 0.930 . S
C1046 C1047 1.355 . S
C1046 C1048 1.415 . S
C1047 C1046 1.355 . S
C1047 C1049 1.419 . S
C1048 C1046 1.415 . S
C1048 C1053 1.425 1_655 S
C1048 C1055 1.409 1_655 S
C1049 H1041 0.930 . S
C1049 C1047 1.419 . S
C1049 C1050 1.362 . S
C1050 H1042 0.930 . S
C1050 C1049 1.362 . S
C1050 C1053 1.409 1_655 S
C1051 H1043 0.930 . S
C1051 C1052 1.355 . S
C1051 C1053 1.415 . S
C1052 C1051 1.355 . S
C1052 C1054 1.419 . S
C1053 C1048 1.425 1_455 S
C1053 C1050 1.409 1_455 S
C1053 C1051 1.415 . S
C1054 H1044 0.930 . S
C1054 C1052 1.419 . S
C1054 C1055 1.362 . S
C1055 H1045 0.930 . S
C1055 C1048 1.409 1_455 S
C1055 C1054 1.362 . S
H1056 C1062 0.930 . S
H1057 C1065 0.930 . S
H1058 C1066 0.930 . S
H1059 C1067 0.930 . S
H1060 C1070 0.930 . S
H1061 C1071 0.930 . S
C1062 H1056 0.930 . S
C1062 C1063 1.355 . S
C1062 C1064 1.415 1_565 S
C1063 C1062 1.355 . S
C1063 C1065 1.419 . S
C1064 C1062 1.415 1_545 S
C1064 C1069 1.425 1_545 S
C1064 C1071 1.409 . S
C1065 H1057 0.930 . S
C1065 C1063 1.419 . S
C1065 C1066 1.362 . S
C1066 H1058 0.930 . S
C1066 C1065 1.362 . S
C1066 C1069 1.409 . S
C1067 H1059 0.930 . S
C1067 C1068 1.355 . S
C1067 C1069 1.415 1_545 S
C1068 C1067 1.355 . S
C1068 C1070 1.419 . S
C1069 C1064 1.425 1_565 S
C1069 C1066 1.409 . S
C1069 C1067 1.415 1_565 S
C1070 H1060 0.930 . S
C1070 C1068 1.419 . S
C1070 C1071 1.362 . S
C1071 H1061 0.930 . S
C1071 C1064 1.409 . S
C1071 C1070 1.362 . S
H1072 C1078 0.930 . S
H1073 C1081 0.930 . S
H1074 C1082 0.930 . S
H1075 C1083 0.930 . S
H1076 C1086 0.930 . S
H1077 C1087 0.930 . S
C1078 H1072 0.930 . S
C1078 C1079 1.355 . S
C1078 C1080 1.415 . S
C1079 C1078 1.355 . S
C1079 C1081 1.419 . S
C1080 C1078 1.415 . S
C1080 C1085 1.425 1_655 S
C1080 C1087 1.409 . S
C1081 H1073 0.930 . S
C1081 C1079 1.419 . S
C1081 C1082 1.362 1_655 S
C1082 H1074 0.930 . S
C1082 C1081 1.362 1_455 S
C1082 C1085 1.409 . S
C1083 H1075 0.930 . S
C1083 C1084 1.355 . S
C1083 C1085 1.415 . S
C1084 C1083 1.355 . S
C1084 C1086 1.419 . S
C1085 C1080 1.425 1_455 S
C1085 C1082 1.409 . S
C1085 C1083 1.415 . S
C1086 H1076 0.930 . S
C1086 C1084 1.419 . S
C1086 C1087 1.362 1_455 S
C1087 H1077 0.930 . S
C1087 C1080 1.409 . S
C1087 C1086 1.362 1_655 S
H1088 C1094 0.930 . S
H1089 C1097 0.930 . S
H1090 C1098 0.930 . S
H1091 C1099 0.930 . S
H1092 C1102 0.930 . S
H1093 C1103 0.930 . S
C1094 H1088 0.930 . S
C1094 C1095 1.355 . S
C1094 C1096 1.415 . S
C1095 C1094 1.355 . S
C1095 C1097 1.419 . S
C1096 C1094 1.415 . S
C1096 C1101 1.425 . S
C1096 C1103 1.409 . S
C1097 H1089 0.930 . S
C1097 C1095 1.419 . S
C1097 C1098 1.362 . S
C1098 H1090 0.930 . S
C1098 C1097 1.362 . S
C1098 C1101 1.409 . S
C1099 H1091 0.930 . S
C1099 C1100 1.355 . S
C1099 C1101 1.415 . S
C1100 C1099 1.355 . S
C1100 C1102 1.419 . S
C1101 C1096 1.425 . S
C1101 C1098 1.409 . S
C1101 C1099 1.415 . S
C1102 H1092 0.930 . S
C1102 C1100 1.419 . S
C1102 C1103 1.362 . S
C1103 H1093 0.930 . S
C1103 C1096 1.409 . S
C1103 C1102 1.362 . S
H1104 C1110 0.930 . S
H1105 C1113 0.930 . S
H1106 C1114 0.930 . S
H1107 C1115 0.930 . S
H1108 C1118 0.930 . S
H1109 C1119 0.930 . S
C1110 H1104 0.930 . S
C1110 C1111 1.355 . S
C1110 C1112 1.415 . S
C1111 C1110 1.355 . S
C1111 C1113 1.419 . S
C1112 C1110 1.415 . S
C1112 C1117 1.425 . S
C1112 C1119 1.409 . S
C1113 H1105 0.930 . S
C1113 C1111 1.419 . S
C1113 C1114 1.362 . S
C1114 H1106 0.930 . S
C1114 C1113 1.362 . S
C1114 C1117 1.409 . S
C1115 H1107 0.930 . S
C1115 C1116 1.355 . S
C1115 C1117 1.415 . S
C1116 C1115 1.355 . S
C1116 C1118 1.419 . S
C1117 C1112 1.425 . S
C1117 C1114 1.409 . S
C1117 C1115 1.415 . S
C1118 H1108 0.930 . S
C1118 C1116 1.419 . S
C1118 C1119 1.362 . S
C1119 H1109 0.930 . S
C1119 C1112 1.409 . S
C1119 C1118 1.362 . S
H1120 C1126 0.930 . S
H1121 C1129 0.930 . S
H1122 C1130 0.930 . S
H1123 C1131 0.930 . S
H1124 C1134 0.930 . S
H1125 C1135 0.930 . S
C1126 H1120 0.930 . S
C1126 C1127 1.355 . S
C1126 C1128 1.415 . S
C1127 C1126 1.355 . S
C1127 C1129 1.419 . S
C1128 C1126 1.415 . S
C1128 C1133 1.425 . S
C1128 C1135 1.409 . S
C1129 H1121 0.930 . S
C1129 C1127 1.419 . S
C1129 C1130 1.362 . S
C1130 H1122 0.930 . S
C1130 C1129 1.362 . S
C1130 C1133 1.409 . S
C1131 H1123 0.930 . S
C1131 C1132 1.355 . S
C1131 C1133 1.415 . S
C1132 C1131 1.355 . S
C1132 C1134 1.419 . S
C1133 C1128 1.425 . S
C1133 C1130 1.409 . S
C1133 C1131 1.415 . S
C1134 H1124 0.930 . S
C1134 C1132 1.419 . S
C1134 C1135 1.362 . S
C1135 H1125 0.930 . S
C1135 C1128 1.409 . S
C1135 C1134 1.362 . S
H1136 C1142 0.930 . S
H1137 C1145 0.930 . S
H1138 C1146 0.930 . S
H1139 C1147 0.930 . S
H1140 C1150 0.930 . S
H1141 C1151 0.930 . S
C1142 H1136 0.930 . S
C1142 C1143 1.355 . S
C1142 C1144 1.415 . S
C1143 C1142 1.355 . S
C1143 C1145 1.419 . S
C1144 C1142 1.415 . S
C1144 C1149 1.425 . S
C1144 C1151 1.409 . S
C1145 H1137 0.930 . S
C1145 C1143 1.419 . S
C1145 C1146 1.362 . S
C1146 H1138 0.930 . S
C1146 C1145 1.362 . S
C1146 C1149 1.409 . S
C1147 H1139 0.930 . S
C1147 C1148 1.355 . S
C1147 C1149 1.415 . S
C1148 C1147 1.355 . S
C1148 C1150 1.419 . S
C1149 C1144 1.425 . S
C1149 C1146 1.409 . S
C1149 C1147 1.415 . S
C1150 H1140 0.930 . S
C1150 C1148 1.419 . S
C1150 C1151 1.362 . S
C1151 H1141 0.930 . S
C1151 C1144 1.409 . S
C1151 C1150 1.362 . S
H1152 C1158 0.930 . S
H1153 C1161 0.930 . S
H1154 C1162 0.930 . S
H1155 C1163 0.930 . S
H1156 C1166 0.930 . S
H1157 C1167 0.930 . S
C1158 H1152 0.930 . S
C1158 C1159 1.355 . S
C1158 C1160 1.415 . S
C1159 C1158 1.355 . S
C1159 C1161 1.419 . S
C1160 C1158 1.415 . S
C1160 C1165 1.425 . S
C1160 C1167 1.409 . S
C1161 H1153 0.930 . S
C1161 C1159 1.419 . S
C1161 C1162 1.362 . S
C1162 H1154 0.930 . S
C1162 C1161 1.362 . S
C1162 C1165 1.409 . S
C1163 H1155 0.930 . S
C1163 C1164 1.355 . S
C1163 C1165 1.415 . S
C1164 C1163 1.355 . S
C1164 C1166 1.419 . S
C1165 C1160 1.425 . S
C1165 C1162 1.409 . S
C1165 C1163 1.415 . S
C1166 H1156 0.930 . S
C1166 C1164 1.419 . S
C1166 C1167 1.362 . S
C1167 H1157 0.930 . S
C1167 C1160 1.409 . S
C1167 C1166 1.362 . S
H1168 C1174 0.930 . S
H1169 C1177 0.930 . S
H1170 C1178 0.930 . S
H1171 C1179 0.930 . S
H1172 C1182 0.930 . S
H1173 C1183 0.930 . S
C1174 H1168 0.930 . S
C1174 C1175 1.355 . S
C1174 C1176 1.415 . S
C1175 C1174 1.355 . S
C1175 C1177 1.419 . S
C1176 C1174 1.415 . S
C1176 C1181 1.425 . S
C1176 C1183 1.409 . S
C1177 H1169 0.930 . S
C1177 C1175 1.419 . S
C1177 C1178 1.362 . S
C1178 H1170 0.930 . S
C1178 C1177 1.362 . S
C1178 C1181 1.409 . S
C1179 H1171 0.930 . S
C1179 C1180 1.355 . S
C1179 C1181 1.415 . S
C1180 C1179 1.355 . S
C1180 C1182 1.419 . S
C1181 C1176 1.425 . S
C1181 C1178 1.409 . S
C1181 C1179 1.415 . S
C1182 H1172 0.930 . S
C1182 C1180 1.419 . S
C1182 C1183 1.362 . S
C1183 H1173 0.930 . S
C1183 C1176 1.409 . S
C1183 C1182 1.362 . S
H1184 C1190 0.930 . S
H1185 C1193 0.930 . S
H1186 C1194 0.930 . S
H1187 C1195 0.930 . S
H1188 C1198 0.930 . S
H1189 C1199 0.930 . S
C1190 H1184 0.930 . S
C1190 C1191 1.355 . S
C1190 C1192 1.415 . S
C1191 C1190 1.355 . S
C1191 C1193 1.419 . S
C1192 C1190 1.415 . S
C1192 C1197 1.425 . S
C1192 C1199 1.409 . S
C1193 H1185 0.930 . S
C1193 C1191 1.419 . S
C1193 C1194 1.362 . S
C1194 H1186 0.930 . S
C1194 C1193 1.362 . S
C1194 C1197 1.409 . S
C1195 H1187 0.930 . S
C1195 C1196 1.355 . S
C1195 C1197 1.415 . S
C1196 C1195 1.355 . S
C1196 C1198 1.419 . S
C1197 C1192 1.425 . S
C1197 C1194 1.409 . S
C1197 C1195 1.415 . S
C1198 H1188 0.930 . S
C1198 C1196 1.419 . S
C1198 C1199 1.362 . S
C1199 H1189 0.930 . S
C1199 C1192 1.409 . S
C1199 C1198 1.362 . S
H1200 C1206 0.930 . S
H1201 C1209 0.930 . S
H1202 C1210 0.930 . S
H1203 C1211 0.930 . S
H1204 C1214 0.930 . S
H1205 C1215 0.930 . S
C1206 H1200 0.930 . S
C1206 C1207 1.355 . S
C1206 C1208 1.415 . S
C1207 C1206 1.355 . S
C1207 C1209 1.419 . S
C1208 C1206 1.415 . S
C1208 C1213 1.425 . S
C1208 C1215 1.409 . S
C1209 H1201 0.930 . S
C1209 C1207 1.419 . S
C1209 C1210 1.362 . S
C1210 H1202 0.930 . S
C1210 C1209 1.362 . S
C1210 C1213 1.409 . S
C1211 H1203 0.930 . S
C1211 C1212 1.355 . S
C1211 C1213 1.415 . S
C1212 C1211 1.355 . S
C1212 C1214 1.419 . S
C1213 C1208 1.425 . S
C1213 C1210 1.409 . S
C1213 C1211 1.415 . S
C1214 H1204 0.930 . S
C1214 C1212 1.419 . S
C1214 C1215 1.362 . S
C1215 H1205 0.930 . S
C1215 C1208 1.409 . S
C1215 C1214 1.362 . S
H1216 C1222 0.930 . S
H1217 C1225 0.930 . S
H1218 C1226 0.930 . S
H1219 C1227 0.930 . S
H1220 C1230 0.930 . S
H1221 C1231 0.930 . S
C1222 H1216 0.930 . S
C1222 C1223 1.355 . S
C1222 C1224 1.415 . S
C1223 C1222 1.355 . S
C1223 C1225 1.419 . S
C1224 C1222 1.415 . S
C1224 C1229 1.425 . S
C1224 C1231 1.409 . S
C1225 H1217 0.930 . S
C1225 C1223 1.419 . S
C1225 C1226 1.362 . S
C1226 H1218 0.930 . S
C1226 C1225 1.362 . S
C1226 C1229 1.409 . S
C1227 H1219 0.930 . S
C1227 C1228 1.355 . S
C1227 C1229 1.415 . S
C1228 C1227 1.355 . S
C1228 C1230 1.419 . S
C1229 C1224 1.425 . S
C1229 C1226 1.409 . S
C1229 C1227 1.415 . S
C1230 H1220 0.930 . S
C1230 C1228 1.419 . S
C1230 C1231 1.362 . S
C1231 H1221 0.930 . S
C1231 C1224 1.409 . S
C1231 C1230 1.362 . S
H1232 C1238 0.930 . S
H1233 C1241 0.930 . S
H1234 C1242 0.930 . S
H1235 C1243 0.930 . S
H1236 C1246 0.930 . S
H1237 C1247 0.930 . S
C1238 H1232 0.930 . S
C1238 C1239 1.355 . S
C1238 C1240 1.415 . S
C1239 C1238 1.355 . S
C1239 C1241 1.419 . S
C1240 C1238 1.415 . S
C1240 C1245 1.425 . S
C1240 C1247 1.409 . S
C1241 H1233 0.930 . S
C1241 C1239 1.419 . S
C1241 C1242 1.362 . S
C1242 H1234 0.930 . S
C1242 C1241 1.362 . S
C1242 C1245 1.409 . S
C1243 H1235 0.930 . S
C1243 C1244 1.355 . S
C1243 C1245 1.415 . S
C1244 C1243 1.355 . S
C1244 C1246 1.419 . S
C1245 C1240 1.425 . S
C1245 C1242 1.409 . S
C1245 C1243 1.415 . S
C1246 H1236 0.930 . S
C1246 C1244 1.419 . S
C1246 C1247 1.362 . S
C1247 H1237 0.930 . S
C1247 C1240 1.409 . S
C1247 C1246 1.362 . S
H1248 C1254 0.930 . S
H1249 C1257 0.930 . S
H1250 C1258 0.930 . S
H1251 C1259 0.930 . S
H1252 C1262 0.930 . S
H1253 C1263 0.930 . S
C1254 H1248 0.930 . S
C1254 C1255 1.355 . S
C1254 C1256 1.415 . S
C1255 C1254 1.355 . S
C1255 C1257 1.419 . S
C1256 C1254 1.415 . S
C1256 C1261 1.425 . S
C1256 C1263 1.409 . S
C1257 H1249 0.930 . S
C1257 C1255 1.419 . S
C1257 C1258 1.362 . S
C1258 H1250 0.930 . S
C1258 C1257 1.362 . S
C1258 C1261 1.409 . S
C1259 H1251 0.930 . S
C1259 C1260 1.355 . S
C1259 C1261 1.415 . S
C1260 C1259 1.355 . S
C1260 C1262 1.419 . S
C1261 C1256 1.425 . S
C1261 C1258 1.409 . S
C1261 C1259 1.415 . S
C1262 H1252 0.930 . S
C1262 C1260 1.419 . S
C1262 C1263 1.362 . S
C1263 H1253 0.930 . S
C1263 C1256 1.409 . S
C1263 C1262 1.362 . S
H1264 C1270 0.930 . S
H1265 C1273 0.930 . S
H1266 C1274 0.930 . S
H1267 C1275 0.930 . S
H1268 C1278 0.930 . S
H1269 C1279 0.930 . S
C1270 H1264 0.930 . S
C1270 C1271 1.355 . S
C1270 C1272 1.415 . S
C1271 C1270 1.355 . S
C1271 C1273 1.419 . S
C1272 C1270 1.415 . S
C1272 C1277 1.425 . S
C1272 C1279 1.409 . S
C1273 H1265 0.930 . S
C1273 C1271 1.419 . S
C1273 C1274 1.362 . S
C1274 H1266 0.930 . S
C1274 C1273 1.362 . S
C1274 C1277 1.409 . S
C1275 H1267 0.930 . S
C1275 C1276 1.355 . S
C1275 C1277 1.415 . S
C1276 C1275 1.355 . S
C1276 C1278 1.419 . S
C1277 C1272 1.425 . S
C1277 C1274 1.409 . S
C1277 C1275 1.415 . S
C1278 H1268 0.930 . S
C1278 C1276 1.419 . S
C1278 C1279 1.362 . S
C1279 H1269 0.930 . S
C1279 C1272 1.409 . S
C1279 C1278 1.362 . S
H1280 C1286 0.930 . S
H1281 C1289 0.930 . S
H1282 C1290 0.930 . S
H1283 C1291 0.930 . S
H1284 C1294 0.930 . S
H1285 C1295 0.930 . S
C1286 H1280 0.930 . S
C1286 C1287 1.355 . S
C1286 C1288 1.415 . S
C1287 C1286 1.355 . S
C1287 C1289 1.419 . S
C1288 C1286 1.415 . S
C1288 C1293 1.425 . S
C1288 C1295 1.409 . S
C1289 H1281 0.930 . S
C1289 C1287 1.419 . S
C1289 C1290 1.362 . S
C1290 H1282 0.930 . S
C1290 C1289 1.362 . S
C1290 C1293 1.409 . S
C1291 H1283 0.930 . S
C1291 C1292 1.355 . S
C1291 C1293 1.415 . S
C1292 C1291 1.355 . S
C1292 C1294 1.419 . S
C1293 C1288 1.425 . S
C1293 C1290 1.409 . S
C1293 C1291 1.415 . S
C1294 H1284 0.930 . S
C1294 C1292 1.419 . S
C1294 C1295 1.362 . S
C1295 H1285 0.930 . S
C1295 C1288 1.409 . S
C1295 C1294 1.362 . S
H1296 C1302 0.930 . S
H1297 C1305 0.930 . S
H1298 C1306 0.930 . S
H1299 C1307 0.930 . S
H1300 C1310 0.930 . S
H1301 C1311 0.930 . S
C1302 H1296 0.930 . S
C1302 C1303 1.355 . S
C1302 C1304 1.415 . S
C1303 C1302 1.355 . S
C1303 C1305 1.419 . S
C1304 C1302 1.415 . S
C1304 C1309 1.425 . S
C1304 C1311 1.409 . S
C1305 H1297 0.930 . S
C1305 C1303 1.419 . S
C1305 C1306 1.362 . S
C1306 H1298 0.930 . S
C1306 C1305 1.362 . S
C1306 C1309 1.409 . S
C1307 H1299 0.930 . S
C1307 C1308 1.355 . S
C1307 C1309 1.415 . S
C1308 C1307 1.355 . S
C1308 C1310 1.419 . S
C1309 C1304 1.425 . S
C1309 C1306 1.409 . S
C1309 C1307 1.415 . S
C1310 H1300 0.930 . S
C1310 C1308 1.419 . S
C1310 C1311 1.362 . S
C1311 H1301 0.930 . S
C1311 C1304 1.409 . S
C1311 C1310 1.362 . S
H1312 C1318 0.930 . S
H1313 C1321 0.930 . S
H1314 C1322 0.930 . S
H1315 C1323 0.930 . S
H1316 C1326 0.930 . S
H1317 C1327 0.930 . S
C1318 H1312 0.930 . S
C1318 C1319 1.355 . S
C1318 C1320 1.415 . S
C1319 C1318 1.355 . S
C1319 C1321 1.419 . S
C1320 C1318 1.415 . S
C1320 C1325 1.425 . S
C1320 C1327 1.409 . S
C1321 H1313 0.930 . S
C1321 C1319 1.419 . S
C1321 C1322 1.362 . S
C1322 H1314 0.930 . S
C1322 C1321 1.362 . S
C1322 C1325 1.409 . S
C1323 H1315 0.930 . S
C1323 C1324 1.355 . S
C1323 C1325 1.415 . S
C1324 C1323 1.355 . S
C1324 C1326 1.419 . S
C1325 C1320 1.425 . S
C1325 C1322 1.409 . S
C1325 C1323 1.415 . S
C1326 H1316 0.930 . S
C1326 C1324 1.419 . S
C1326 C1327 1.362 . S
C1327 H1317 0.930 . S
C1327 C1320 1.409 . S
C1327 C1326 1.362 . S
H1328 C1334 0.930 . S
H1329 C1337 0.930 . S
H1330 C1338 0.930 . S
H1331 C1339 0.930 . S
H1332 C1342 0.930 . S
H1333 C1343 0.930 . S
C1334 H1328 0.930 . S
C1334 C1335 1.355 . S
C1334 C1336 1.415 . S
C1335 C1334 1.355 . S
C1335 C1337 1.419 . S
C1336 C1334 1.415 . S
C1336 C1341 1.425 . S
C1336 C1343 1.409 . S
C1337 H1329 0.930 . S
C1337 C1335 1.419 . S
C1337 C1338 1.362 . S
C1338 H1330 0.930 . S
C1338 C1337 1.362 . S
C1338 C1341 1.409 . S
C1339 H1331 0.930 . S
C1339 C1340 1.355 . S
C1339 C1341 1.415 . S
C1340 C1339 1.355 . S
C1340 C1342 1.419 . S
C1341 C1336 1.425 . S
C1341 C1338 1.409 . S
C1341 C1339 1.415 . S
C1342 H1332 0.930 . S
C1342 C1340 1.419 . S
C1342 C1343 1.362 . S
C1343 H1333 0.930 . S
C1343 C1336 1.409 . S
C1343 C1342 1.362 . S
H1344 C1350 0.930 . S
H1345 C1353 0.930 . S
H1346 C1354 0.930 . S
H1347 C1355 0.930 . S
H1348 C1358 0.930 . S
H1349 C1359 0.930 . S
C1350 H1344 0.930 . S
C1350 C1351 1.355 . S
C1350 C1352 1.415 . S
C1351 C1350 1.355 . S
C1351 C1353 1.419 . S
C1352 C1350 1.415 . S
C1352 C1357 1.425 . S
C1352 C1359 1.409 . S
C1353 H1345 0.930 . S
C1353 C1351 1.419 . S
C1353 C1354 1.362 . S
C1354 H1346 0.930 . S
C1354 C1353 1.362 . S
C1354 C1357 1.409 . S
C1355 H1347 0.930 . S
C1355 C1356 1.355 . S
C1355 C1357 1.415 . S
C1356 C1355 1.355 . S
C1356 C1358 1.419 . S
C1357 C1352 1.425 . S
C1357 C1354 1.409 . S
C1357 C1355 1.415 . S
C1358 H1348 0.930 . S
C1358 C1356 1.419 . S
C1358 C1359 1.362 . S
C1359 H1349 0.930 . S
C1359 C1352 1.409 . S
C1359 C1358 1.362 . S
H1360 C1366 0.930 . S
H1361 C1369 0.930 . S
H1362 C1370 0.930 . S
H1363 C1371 0.930 . S
H1364 C1374 0.930 . S
H1365 C1375 0.930 . S
C1366 H1360 0.930 . S
C1366 C1367 1.355 . S
C1366 C1368 1.415 . S
C1367 C1366 1.355 . S
C1367 C1369 1.419 . S
C1368 C1366 1.415 . S
C1368 C1373 1.425 . S
C1368 C1375 1.409 . S
C1369 H1361 0.930 . S
C1369 C1367 1.419 . S
C1369 C1370 1.362 . S
C1370 H1362 0.930 . S
C1370 C1369 1.362 . S
C1370 C1373 1.409 . S
C1371 H1363 0.930 . S
C1371 C1372 1.355 . S
C1371 C1373 1.415 . S
C1372 C1371 1.355 . S
C1372 C1374 1.419 . S
C1373 C1368 1.425 . S
C1373 C1370 1.409 . S
C1373 C1371 1.415 . S
C1374 H1364 0.930 . S
C1374 C1372 1.419 . S
C1374 C1375 1.362 . S
C1375 H1365 0.930 . S
C1375 C1368 1.409 . S
C1375 C1374 1.362 . S
H1376 C1382 0.930 . S
H1377 C1385 0.930 . S
H1378 C1386 0.930 . S
H1379 C1387 0.930 . S
H1380 C1390 0.930 . S
H1381 C1391 0.930 . S
C1382 H1376 0.930 . S
C1382 C1383 1.355 . S
C1382 C1384 1.415 . S
C1383 C1382 1.355 . S
C1383 C1385 1.419 . S
C1384 C1382 1.415 . S
C1384 C1389 1.425 . S
C1384 C1391 1.409 . S
C1385 H1377 0.930 . S
C1385 C1383 1.419 . S
C1385 C1386 1.362 . S
C1386 H1378 0.930 . S
C1386 C1385 1.362 . S
C1386 C1389 1.409 . S
C1387 H1379 0.930 . S
C1387 C1388 1.355 . S
C1387 C1389 1.415 . S
C1388 C1387 1.355 . S
C1388 C1390 1.419 . S
C1389 C1384 1.425 . S
C1389 C1386 1.409 . S
C1389 C1387 1.415 . S
C1390 H1380 0.930 . S
C1390 C1388 1.419 . S
C1390 C1391 1.362 . S
C1391 H1381 0.930 . S
C1391 C1384 1.409 . S
C1391 C1390 1.362 . S
H1392 C1398 0.930 . S
H1393 C1401 0.930 . S
H1394 C1402 0.930 . S
H1395 C1403 0.930 . S
H1396 C1406 0.930 . S
H1397 C1407 0.930 . S
C1398 H1392 0.930 . S
C1398 C1399 1.355 . S
C1398 C1400 1.415 . S
C1399 C1398 1.355 . S
C1399 C1401 1.419 . S
C1400 C1398 1.415 . S
C1400 C1405 1.425 . S
C1400 C1407 1.409 . S
C1401 H1393 0.930 . S
C1401 C1399 1.419 . S
C1401 C1402 1.362 . S
C1402 H1394 0.930 . S
C1402 C1401 1.362 . S
C1402 C1405 1.409 . S
C1403 H1395 0.930 . S
C1403 C1404 1.355 . S
C1403 C1405 1.415 . S
C1404 C1403 1.355 . S
C1404 C1406 1.419 . S
C1405 C1400 1.425 . S
C1405 C1402 1.409 . S
C1405 C1403 1.415 . S
C1406 H1396 0.930 . S
C1406 C1404 1.419 . S
C1406 C1407 1.362 . S
C1407 H1397 0.930 . S
C1407 C1400 1.409 . S
C1407 C1406 1.362 . S
H1408 C1414 0.930 . S
H1409 C1417 0.930 . S
H1410 C1418 0.930 . S
H1411 C1419 0.930 . S
H1412 C1422 0.930 . S
H1413 C1423 0.930 . S
C1414 H1408 0.930 . S
C1414 C1415 1.355 . S
C1414 C1416 1.415 . S
C1415 C1414 1.355 . S
C1415 C1417 1.419 . S
C1416 C1414 1.415 . S
C1416 C1421 1.425 . S
C1416 C1423 1.409 . S
C1417 H1409 0.930 . S
C1417 C1415 1.419 . S
C1417 C1418 1.362 . S
C1418 H1410 0.930 . S
C1418 C1417 1.362 . S
C1418 C1421 1.409 . S
C1419 H1411 0.930 . S
C1419 C1420 1.355 . S
C1419 C1421 1.415 . S
C1420 C1419 1.355 . S
C1420 C1422 1.419 . S
C1421 C1416 1.425 . S
C1421 C1418 1.409 . S
C1421 C1419 1.415 . S
C1422 H1412 0.930 . S
C1422 C1420 1.419 . S
C1422 C1423 1.362 . S
C1423 H1413 0.930 . S
C1423 C1416 1.409 . S
C1423 C1422 1.362 . S
H1424 C1430 0.930 . S
H1425 C1433 0.930 . S
H1426 C1434 0.930 . S
H1427 C1435 0.930 . S
H1428 C1438 0.930 . S
H1429 C1439 0.930 . S
C1430 H1424 0.930 . S
C1430 C1431 1.355 . S
C1430 C1432 1.415 . S
C1431 C1430 1.355 . S
C1431 C1433 1.419 . S
C1432 C1430 1.415 . S
C1432 C1437 1.425 . S
C1432 C1439 1.409 . S
C1433 H1425 0.930 . S
C1433 C1431 1.419 . S
C1433 C1434 1.362 . S
C1434 H1426 0.930 . S
C1434 C1433 1.362 . S
C1434 C1437 1.409 . S
C1435 H1427 0.930 . S
C1435 C1436 1.355 . S
C1435 C1437 1.415 . S
C1436 C1435 1.355 . S
C1436 C1438 1.419 . S
C1437 C1432 1.425 . S
C1437 C1434 1.409 . S
C1437 C1435 1.415 . S
C1438 H1428 0.930 . S
C1438 C1436 1.419 . S
C1438 C1439 1.362 . S
C1439 H1429 0.930 . S
C1439 C1432 1.409 . S
C1439 C1438 1.362 . S
H1440 C1446 0.930 . S
H1441 C1449 0.930 . S
H1442 C1450 0.930 . S
H1443 C1451 0.930 . S
H1444 C1454 0.930 . S
H1445 C1455 0.930 . S
C1446 H1440 0.930 . S
C1446 C1447 1.355 . S
C1446 C1448 1.415 . S
C1447 C1446 1.355 . S
C1447 C1449 1.419 . S
C1448 C1446 1.415 . S
C1448 C1453 1.425 . S
C1448 C1455 1.409 . S
C1449 H1441 0.930 . S
C1449 C1447 1.419 . S
C1449 C1450 1.362 . S
C1450 H1442 0.930 . S
C1450 C1449 1.362 . S
C1450 C1453 1.409 . S
C1451 H1443 0.930 . S
C1451 C1452 1.355 . S
C1451 C1453 1.415 . S
C1452 C1451 1.355 . S
C1452 C1454 1.419 . S
C1453 C1448 1.425 . S
C1453 C1450 1.409 . S
C1453 C1451 1.415 . S
C1454 H1444 0.930 . S
C1454 C1452 1.419 . S
C1454 C1455 1.362 . S
C1455 H1445 0.930 . S
C1455 C1448 1.409 . S
C1455 C1454 1.362 . S
H1456 C1462 0.930 . S
H1457 C1465 0.930 . S
H1458 C1466 0.930 . S
H1459 C1467 0.930 . S
H1460 C1470 0.930 . S
H1461 C1471 0.930 . S
C1462 H1456 0.930 . S
C1462 C1463 1.355 . S
C1462 C1464 1.415 . S
C1463 C1462 1.355 . S
C1463 C1465 1.419 . S
C1464 C1462 1.415 . S
C1464 C1469 1.425 . S
C1464 C1471 1.409 . S
C1465 H1457 0.930 . S
C1465 C1463 1.419 . S
C1465 C1466 1.362 . S
C1466 H1458 0.930 . S
C1466 C1465 1.362 . S
C1466 C1469 1.409 . S
C1467 H1459 0.930 . S
C1467 C1468 1.355 . S
C1467 C1469 1.415 . S
C1468 C1467 1.355 . S
C1468 C1470 1.419 . S
C1469 C1464 1.425 . S
C1469 C1466 1.409 . S
C1469 C1467 1.415 . S
C1470 H1460 0.930 . S
C1470 C1468 1.419 . S
C1470 C1471 1.362 . S
C1471 H1461 0.930 . S
C1471 C1464 1.409 . S
C1471 C1470 1.362 . S
C455 C415 1.565 . S
C460 C9 1.527 . S
C471 C23 1.542 . S
C476 C429 1.551 . S
C487 C443 1.526 . S
C492 C37 1.566 . S
C503 C401 1.527 . S
C508 C51 1.565 . S
C519 C65 1.556 . S
C524 C387 1.536 . S
C535 C345 1.564 . S
C540 C79 1.528 . S
C551 C93 1.543 . S
C556 C359 1.550 . S
C567 C373 1.560 . S
C572 C107 1.533 . S
C583 C121 1.533 . S
C588 C303 1.559 . S
C599 C135 1.565 . S
C604 C317 1.527 . S
C615 C331 1.564 . S
C620 C149 1.528 . S
C631 C163 1.529 . S
C636 C289 1.563 . S
C647 C275 1.565 . S
C652 C177 1.527 . S
C663 C233 1.559 . S
C668 C191 1.534 . S
C679 C205 1.537 . S
C684 C247 1.556 . S
C695 C219 1.541 . S
C700 C261 1.551 . S
C711 C3 1.421 . S
C716 C143 1.406 . S
C727 C157 1.425 . S
C732 C17 1.402 . S
C743 C115 1.425 . S
C748 C31 1.402 . S
C759 C129 1.410 . S
C764 C45 1.417 . S
C775 C59 1.402 . S
C780 C199 1.425 . S
C791 C213 1.423 . S
C796 C73 1.403 . S
C807 C171 1.420 . S
C812 C87 1.407 . S
C823 C185 1.423 . S
C828 C101 1.403 . S
C839 C227 1.415 . S
C844 C367 1.411 . S
C855 C381 1.425 . S
C860 C241 1.402 . S
C871 C339 1.409 . S
C876 C255 1.417 . S
C887 C269 1.415 . S
C892 C353 1.412 . S
C903 C283 1.402 . S
C908 C423 1.425 . S
C919 C437 1.416 . S
C924 C297 1.411 . S
C935 C395 1.421 . S
C940 C311 1.406 . S
C951 C325 1.414 . S
C956 C409 1.413 . S
C967 C8 1.507 . S
C972 C64 1.507 . S
C983 C22 1.508 . S
C988 C78 1.505 . S
C999 C92 1.513 . S
C1004 C36 1.532 . S
C1015 C50 1.521 . S
C1020 C106 1.534 . S
C1031 C120 1.503 . S
C1036 C176 1.518 . S
C1047 C190 1.514 . S
C1052 C134 1.532 . S
C1063 C204 1.510 . S
C1068 C148 1.504 . S
C1079 C162 1.528 . S
C1084 C218 1.532 . S
C1095 C232 1.505 . S
C1100 C288 1.524 . S
C1111 C302 1.532 . S
C1116 C246 1.515 . S
C1127 C260 1.522 . S
C1132 C316 1.504 . S
C1143 C330 1.527 . S
C1148 C274 1.533 . S
C1159 C400 1.503 . S
C1164 C344 1.518 . S
C1175 C358 1.527 . S
C1180 C414 1.533 . S
C1191 C372 1.531 . S
C1196 C428 1.529 . S
C1207 C386 1.503 . S
C1212 C442 1.518 . S
C1223 C7 1.385 . S
C1228 C77 1.367 . S
C1239 C21 1.366 . S
C1244 C91 1.317 . S
C1255 C105 1.326 . S
C1260 C35 1.309 . S
C1271 C63 1.317 . S
C1276 C49 1.314 . S
C1287 C189 1.319 . S
C1292 C119 1.367 . S
C1303 C203 1.319 . S
C1308 C133 1.368 . S
C1319 C217 1.384 . S
C1324 C147 1.371 . S
C1335 C161 1.366 . S
C1340 C175 1.317 . S
C1351 C231 1.325 . S
C1356 C301 1.373 . S
C1367 C315 1.315 . S
C1372 C245 1.316 . S
C1383 C329 1.355 . S
C1388 C259 1.311 . S
C1399 C273 1.363 . S
C1404 C287 1.386 . S
C1415 C413 1.383 . S
C1420 C343 1.341 . S
C1431 C357 1.358 . S
C1436 C427 1.387 . S
C1447 C371 1.353 . S
C1452 C441 1.386 . S
C1463 C399 1.365 . S
C1468 C385 1.317 . S
