# Generated by pormake.
# Topology unn, (4)-cn, num edge types: 1
# Building blocks:
#     Node 0, Type 0, BuildingBlock: MUDLON_clean_sbu_0, # of connection points: 4
#     Node 1, Type 0, BuildingBlock: MUDLON_clean_sbu_0, # of connection points: 4
#     Node 2, Type 0, BuildingBlock: MUDLON_clean_sbu_0, # of connection points: 4
#     Node 3, Type 0, BuildingBlock: MUDLON_clean_sbu_0, # of connection points: 4
#     Node 4, Type 0, BuildingBlock: MUDLON_clean_sbu_0, # of connection points: 4
#     Node 5, Type 0, BuildingBlock: MUDLON_clean_sbu_0, # of connection points: 4
#     Node 6, Type 0, BuildingBlock: MUDLON_clean_sbu_0, # of connection points: 4
#     Node 7, Type 0, BuildingBlock: MUDLON_clean_sbu_0, # of connection points: 4
#     Node 8, Type 0, BuildingBlock: MUDLON_clean_sbu_0, # of connection points: 4
#     Node 9, Type 0, BuildingBlock: MUDLON_clean_sbu_0, # of connection points: 4
#     Node 10, Type 0, BuildingBlock: MUDLON_clean_sbu_0, # of connection points: 4
#     Node 11, Type 0, BuildingBlock: MUDLON_clean_sbu_0, # of connection points: 4
#     Node 12, Type 0, BuildingBlock: MUDLON_clean_sbu_0, # of connection points: 4
#     Node 13, Type 0, BuildingBlock: MUDLON_clean_sbu_0, # of connection points: 4
#     Node 14, Type 0, BuildingBlock: MUDLON_clean_sbu_0, # of connection points: 4
#     Node 15, Type 0, BuildingBlock: MUDLON_clean_sbu_0, # of connection points: 4
#     Node 16, Type 0, BuildingBlock: MUDLON_clean_sbu_0, # of connection points: 4
#     Node 17, Type 0, BuildingBlock: MUDLON_clean_sbu_0, # of connection points: 4
#     Edge 18, Type (0, 0), BuildingBlock: XIVTED_clean_linker_0, # of connection points: 2
#     Edge 19, Type (0, 0), BuildingBlock: XIVTED_clean_linker_0, # of connection points: 2
#     Edge 20, Type (0, 0), BuildingBlock: XIVTED_clean_linker_0, # of connection points: 2
#     Edge 21, Type (0, 0), BuildingBlock: XIVTED_clean_linker_0, # of connection points: 2
#     Edge 22, Type (0, 0), BuildingBlock: XIVTED_clean_linker_0, # of connection points: 2
#     Edge 23, Type (0, 0), BuildingBlock: XIVTED_clean_linker_0, # of connection points: 2
#     Edge 24, Type (0, 0), BuildingBlock: XIVTED_clean_linker_0, # of connection points: 2
#     Edge 25, Type (0, 0), BuildingBlock: XIVTED_clean_linker_0, # of connection points: 2
#     Edge 26, Type (0, 0), BuildingBlock: XIVTED_clean_linker_0, # of connection points: 2
#     Edge 27, Type (0, 0), BuildingBlock: XIVTED_clean_linker_0, # of connection points: 2
#     Edge 28, Type (0, 0), BuildingBlock: XIVTED_clean_linker_0, # of connection points: 2
#     Edge 29, Type (0, 0), BuildingBlock: XIVTED_clean_linker_0, # of connection points: 2
#     Edge 30, Type (0, 0), BuildingBlock: XIVTED_clean_linker_0, # of connection points: 2
#     Edge 31, Type (0, 0), BuildingBlock: XIVTED_clean_linker_0, # of connection points: 2
#     Edge 32, Type (0, 0), BuildingBlock: XIVTED_clean_linker_0, # of connection points: 2
#     Edge 33, Type (0, 0), BuildingBlock: XIVTED_clean_linker_0, # of connection points: 2
#     Edge 34, Type (0, 0), BuildingBlock: XIVTED_clean_linker_0, # of connection points: 2
#     Edge 35, Type (0, 0), BuildingBlock: XIVTED_clean_linker_0, # of connection points: 2
#     Edge 36, Type (0, 0), BuildingBlock: XIVTED_clean_linker_0, # of connection points: 2
#     Edge 37, Type (0, 0), BuildingBlock: XIVTED_clean_linker_0, # of connection points: 2
#     Edge 38, Type (0, 0), BuildingBlock: XIVTED_clean_linker_0, # of connection points: 2
#     Edge 39, Type (0, 0), BuildingBlock: XIVTED_clean_linker_0, # of connection points: 2
#     Edge 40, Type (0, 0), BuildingBlock: XIVTED_clean_linker_0, # of connection points: 2
#     Edge 41, Type (0, 0), BuildingBlock: XIVTED_clean_linker_0, # of connection points: 2
#     Edge 42, Type (0, 0), BuildingBlock: XIVTED_clean_linker_0, # of connection points: 2
#     Edge 43, Type (0, 0), BuildingBlock: XIVTED_clean_linker_0, # of connection points: 2
#     Edge 44, Type (0, 0), BuildingBlock: XIVTED_clean_linker_0, # of connection points: 2
#     Edge 45, Type (0, 0), BuildingBlock: XIVTED_clean_linker_0, # of connection points: 2
#     Edge 46, Type (0, 0), BuildingBlock: XIVTED_clean_linker_0, # of connection points: 2
#     Edge 47, Type (0, 0), BuildingBlock: XIVTED_clean_linker_0, # of connection points: 2
#     Edge 48, Type (0, 0), BuildingBlock: XIVTED_clean_linker_0, # of connection points: 2
#     Edge 49, Type (0, 0), BuildingBlock: XIVTED_clean_linker_0, # of connection points: 2
#     Edge 50, Type (0, 0), BuildingBlock: XIVTED_clean_linker_0, # of connection points: 2
#     Edge 51, Type (0, 0), BuildingBlock: XIVTED_clean_linker_0, # of connection points: 2
#     Edge 52, Type (0, 0), BuildingBlock: XIVTED_clean_linker_0, # of connection points: 2
#     Edge 53, Type (0, 0), BuildingBlock: XIVTED_clean_linker_0, # of connection points: 2
# Relax obj value: 0.098
# Max RMSD: 0.215
# Mean RMSD: 0.212
data_MOF--net-unn--node1-MUDLON_clean_sbu_0--edge1-XIVTED_clean_linker_0
_symmetry_space_group_name_H-M    P1
_symmetry_Int_Tables_number       1
_symmetry_cell_setting            triclinic
loop_
_symmetry_equiv_pos_as_xyz
'x, y, z'
_cell_length_a     48.112687
_cell_length_b     47.946297
_cell_length_c     42.113269
_cell_angle_alpha  90.29858
_cell_angle_beta   89.999571
_cell_angle_gamma 120.23006
loop_
_atom_site_label
_atom_site_type_symbol
_atom_site_fract_x
_atom_site_fract_y
_atom_site_fract_z
_atom_type_partial_charge
Mg0 Mg 0.98762 0.72788 0.249 0.0
C1 C 1.01321 0.74497 0.18504 0.0
O2 O 1.01449 0.77127 0.19611 0.0
C3 C 0.98076 0.70279 0.31216 0.0
O4 O 0.97936 0.72937 0.31501 0.0
C5 C 0.91509 0.69641 0.24582 0.0
O6 O 0.91803 0.67645 0.26486 0.0
O7 O 0.94038 0.72239 0.23764 0.0
O8 O 1.00344 0.72076 0.20325 0.0
O9 O 0.02883 0.77168 0.26948 0.0
C10 C 0.0522 0.76662 0.27396 0.0
O11 O 0.04876 0.73903 0.26402 0.0
O12 O 0.98212 0.69293 0.28444 0.0
Mg13 Mg 0.3524 0.2746 0.24041 0.0
C14 C 0.37939 0.28097 0.30318 0.0
O15 O 0.35714 0.25037 0.30052 0.0
C16 C 0.37964 0.30308 0.17615 0.0
O17 O 0.39784 0.29056 0.18227 0.0
C18 C 0.31445 0.2984 0.27064 0.0
O19 O 0.34299 0.32325 0.26453 0.0
O20 O 0.30866 0.27048 0.26162 0.0
O21 O 0.38595 0.29895 0.27898 0.0
O22 O 0.35606 0.23269 0.2245 0.0
C23 C 0.38296 0.23389 0.22845 0.0
O24 O 0.40537 0.25768 0.24538 0.0
O25 O 0.36057 0.30241 0.19744 0.0
Mg26 Mg 0.80522 0.08359 0.23873 0.0
C27 C 0.78916 0.09547 0.30063 0.0
O28 O 0.8183 0.09965 0.30243 0.0
C29 C 0.80148 0.07801 0.1684 0.0
O30 O 0.83174 0.1001 0.17292 0.0
C31 C 0.77793 0.02015 0.26673 0.0
O32 O 0.75417 0.0239 0.25664 0.0
O33 O 0.80667 0.04278 0.26121 0.0
O34 O 0.77581 0.09018 0.27348 0.0
O35 O 0.8473 0.13177 0.23 0.0
C36 C 0.83973 0.15325 0.22424 0.0
O37 O 0.80946 0.14535 0.22742 0.0
O38 O 0.78308 0.06631 0.19235 0.0
Mg39 Mg 0.99875 0.2746 0.74081 0.0
C40 C 0.92762 0.23502 0.72991 0.0
O41 O 0.9308 0.26088 0.74425 0.0
C42 C 0.06349 0.29931 0.7655 0.0
O43 O 0.06268 0.32362 0.75223 0.0
C44 C 0.9986 0.29977 0.67495 0.0
O45 O 0.96808 0.28794 0.68178 0.0
O46 O 1.01748 0.30006 0.69627 0.0
O47 O 0.95244 0.23204 0.72716 0.0
O48 O 0.98929 0.29984 0.77826 0.0
C49 C 1.00229 0.33015 0.78217 0.0
O50 O 1.02052 0.34969 0.75969 0.0
O51 O 0.03852 0.27129 0.76304 0.0
Mg52 Mg 0.79263 0.71517 0.73605 0.0
C53 C 0.76568 0.75049 0.76564 0.0
O54 O 0.74197 0.72321 0.7544 0.0
C55 C 0.82724 0.68268 0.71563 0.0
O56 O 0.79676 0.66011 0.71697 0.0
C57 C 0.78178 0.68543 0.79623 0.0
O58 O 0.81135 0.7101 0.79591 0.0
O59 O 0.7655 0.67807 0.77063 0.0
O60 O 0.79443 0.75665 0.76069 0.0
O61 O 0.77043 0.71233 0.69052 0.0
C62 C 0.78505 0.73923 0.67617 0.0
O63 O 0.80928 0.76382 0.6906 0.0
O64 O 0.83496 0.71131 0.72407 0.0
Mg65 Mg 0.33972 0.08874 0.7451 0.0
C66 C 0.31468 0.05265 0.68567 0.0
O67 O 0.28899 0.04962 0.69988 0.0
C68 C 0.36717 0.10164 0.80674 0.0
O69 O 0.34509 0.11012 0.80653 0.0
C70 C 0.37232 0.15183 0.71419 0.0
O71 O 0.38642 0.13605 0.70411 0.0
O72 O 0.34905 0.13767 0.73375 0.0
O73 O 0.34167 0.06797 0.69984 0.0
O74 O 0.29708 0.04987 0.76929 0.0
C75 C 0.30224 0.02646 0.77357 0.0
O76 O 0.32862 0.02904 0.76148 0.0
O77 O 0.37471 0.09408 0.78045 0.0
Mg78 Mg 0.66255 0.06118 0.57588 0.0
C79 C 0.67248 0.06402 0.50605 0.0
O80 O 0.65306 0.07569 0.5088 0.0
C81 C 0.65329 0.03594 0.63906 0.0
O82 O 0.65234 0.0628 0.6412 0.0
C83 C 0.59411 0.02759 0.5574 0.0
O84 O 0.60164 1.00482 0.55908 0.0
O85 O 0.61549 0.05632 0.56518 0.0
O86 O 0.6802 0.05437 0.53082 0.0
O87 O 0.70372 0.10412 0.59741 0.0
C88 C 0.72791 0.09993 0.59858 0.0
O89 O 0.72513 0.07382 0.58517 0.0
O90 O 0.65548 0.02597 0.61164 0.0
Mg91 Mg 1.0166 0.6001 0.58017 0.0
C92 C 0.97857 0.62561 0.60616 0.0
O93 O 1.00664 0.64997 0.5978 0.0
C94 C 0.04885 0.56175 0.56765 0.0
O95 O 0.07232 0.58863 0.57981 0.0
C96 C 0.04123 0.61461 0.6442 0.0
O97 O 1.0148 0.58628 0.64568 0.0
O98 O 0.0511 0.62733 0.6171 0.0
O99 O 0.97305 0.59706 0.60048 0.0
O100 O 1.02428 0.62667 0.53658 0.0
C101 C 1.01397 0.61 0.51122 0.0
O102 O 1.0014 0.57855 0.51272 0.0
O103 O 1.02059 0.55785 0.56702 0.0
Mg104 Mg 0.46096 0.41966 0.5768 0.0
C105 C 0.43217 0.36915 0.5248 0.0
O106 O 0.43331 0.35104 0.54747 0.0
C107 C 0.40219 0.39674 0.61603 0.0
O108 O 0.39674 0.36963 0.60261 0.0
C109 C 0.49899 0.49314 0.57158 0.0
O110 O 0.47545 0.48983 0.58993 0.0
O111 O 0.50076 0.46816 0.56453 0.0
O112 O 0.44057 0.39834 0.53094 0.0
O113 O 0.46899 0.38391 0.60187 0.0
C114 C 0.4625 0.37848 0.63137 0.0
O115 O 0.4588 0.39948 0.64826 0.0
O116 O 0.42623 0.42308 0.60683 0.0
Mg117 Mg 0.66388 0.60728 0.07707 0.0
C118 C 0.68079 0.60783 0.00936 0.0
O119 O 0.66121 0.57691 0.01431 0.0
C120 C 0.63537 0.63253 0.12428 0.0
O121 O 0.61065 0.60343 0.11962 0.0
C122 C 0.60216 0.58037 0.04455 0.0
O123 O 0.61866 0.61127 0.03775 0.0
O124 O 0.61483 0.56913 0.06347 0.0
O125 O 0.68699 0.62769 0.03213 0.0
O126 O 0.69942 0.60016 0.10322 0.0
C127 C 0.7017 0.60361 0.13333 0.0
O128 O 0.67833 0.6041 0.14896 0.0
O129 O 0.66024 0.64201 0.10716 0.0
Mg130 Mg 0.46577 0.0582 0.07084 0.0
C131 C 0.45245 0.11193 0.08451 0.0
O132 O 0.4342 0.098 0.0596 0.0
C133 C 0.4972 0.02103 0.0539 0.0
O134 O 0.46659 0.99926 0.05683 0.0
C135 C 0.45034 0.0331 0.13366 0.0
O136 O 0.47991 0.05774 0.13448 0.0
O137 O 0.4362 0.02417 0.10689 0.0
O138 O 0.47237 0.10313 0.09288 0.0
O139 O 0.44357 0.05203 0.02462 0.0
C140 C 0.41397 0.04054 0.01833 0.0
O141 O 0.39283 0.02969 0.04147 0.0
O142 O 0.50606 0.05039 0.06047 0.0
Mg143 Mg 1.02127 0.41945 0.07419 0.0
C144 C 1.01946 0.41621 0.00308 0.0
O145 O 1.01483 0.44059 0.00816 0.0
C146 C 0.06325 0.44175 0.13065 0.0
O147 O 0.04884 0.45881 0.13239 0.0
C148 C 0.05589 0.49063 0.06235 0.0
O149 O 0.0795 0.48461 0.06587 0.0
O150 O 1.02709 0.46773 0.06697 0.0
O151 O 1.0236 0.40222 0.02673 0.0
O152 O 0.97966 0.37951 0.09833 0.0
C153 C 0.98458 0.35587 0.10187 0.0
O154 O 1.01072 0.35833 0.08928 0.0
O155 O 0.05879 0.42436 0.10617 0.0
Mg156 Mg 0.33099 0.38807 0.90995 0.0
C157 C 0.34613 0.4036 0.84307 0.0
O158 O 0.33847 0.42479 0.85333 0.0
C159 C 0.35405 0.35429 0.95165 0.0
O160 O 0.38025 0.37311 0.93551 0.0
C161 C 0.26224 0.35154 0.89175 0.0
O162 O 0.27086 0.32955 0.89283 0.0
O163 O 0.28267 0.38032 0.90032 0.0
O164 O 0.34657 0.38381 0.86279 0.0
O165 O 0.36845 0.43233 0.93343 0.0
C166 C 0.39677 0.44688 0.92189 0.0
O167 O 0.40157 0.4383 0.89369 0.0
O168 O 0.32777 0.35247 0.94336 0.0
Mg169 Mg 0.67498 0.92848 0.91081 0.0
C170 C 0.72822 0.98326 0.95113 0.0
O171 O 0.7313 1.00212 0.92724 0.0
C172 C 0.67282 0.93938 0.8422 0.0
O173 O 0.65843 0.90777 0.84387 0.0
C174 C 0.63637 0.95463 0.93431 0.0
O175 O 0.66258 0.97836 0.92177 0.0
O176 O 0.63195 0.92609 0.93196 0.0
O177 O 0.70925 0.95303 0.94862 0.0
O178 O 0.67951 0.8867 0.89683 0.0
C179 C 0.70848 0.8949 0.88996 0.0
O180 O 0.73093 0.92519 0.89428 0.0
O181 O 0.68394 0.95598 0.86751 0.0
Mg182 Mg 0.12881 0.75472 0.91587 0.0
C183 C 0.07301 0.73674 0.95942 0.0
O184 O 0.0634 0.70855 0.94598 0.0
C185 C 0.1237 0.73994 0.84701 0.0
O186 O 0.1548 0.75953 0.85046 0.0
C187 C 0.11454 0.68851 0.93303 0.0
O188 O 0.09542 0.68357 0.90878 0.0
O189 O 0.13539 0.71761 0.94033 0.0
O190 O 0.09821 0.76134 0.9491 0.0
O191 O 0.16862 0.80312 0.90354 0.0
C192 C 0.15925 0.82263 0.89511 0.0
O193 O 0.12842 0.81286 0.89698 0.0
O194 O 0.10546 0.73392 0.87094 0.0
Mg195 Mg 0.32667 0.94779 0.41182 0.0
C196 C 0.25912 0.91486 0.39 0.0
O197 O 0.26825 0.94571 0.39067 0.0
C198 C 0.38871 0.97263 0.44204 0.0
O199 O 0.38631 0.99728 0.43211 0.0
C200 C 0.33928 0.95298 0.34256 0.0
O201 O 0.3192 0.9219 0.34581 0.0
O202 O 0.34694 0.97123 0.36693 0.0
O203 O 0.27902 0.90643 0.39951 0.0
O204 O 0.31939 0.97781 0.44546 0.0
C205 C 0.29931 0.96291 0.46747 0.0
O206 O 0.28167 0.93129 0.46587 0.0
O207 O 0.36538 0.94424 0.43605 0.0
Mg208 Mg 0.12718 0.38191 0.40795 0.0
C209 C 0.10975 0.43086 0.42663 0.0
O210 O 0.09006 0.41508 0.40309 0.0
C211 C 0.16041 0.34829 0.38545 0.0
O212 O 0.12958 0.32701 0.38293 0.0
C213 C 0.06822 0.34019 0.44749 0.0
O214 O 0.05572 0.35313 0.42914 0.0
O215 O 0.09585 0.34442 0.44079 0.0
O216 O 0.13204 0.4247 0.43305 0.0
O217 O 0.10851 0.38138 0.36086 0.0
C218 C 0.12675 0.40726 0.34588 0.0
O219 O 0.15257 0.42996 0.36028 0.0
O220 O 0.16858 0.37584 0.39757 0.0
Mg221 Mg 0.67415 0.74558 0.40672 0.0
C222 C 0.64899 0.71627 0.34452 0.0
O223 O 0.62483 0.71752 0.35759 0.0
C224 C 0.72322 0.77139 0.45863 0.0
O225 O 0.71707 0.79507 0.45624 0.0
C226 C 0.71156 0.81226 0.38276 0.0
O227 O 0.73096 0.80051 0.38039 0.0
O228 O 0.68385 0.7945 0.39509 0.0
O229 O 0.67464 0.72589 0.36056 0.0
O230 O 0.63006 0.70832 0.43005 0.0
C231 C 0.62827 0.70635 0.46026 0.0
O232 O 0.65012 0.73043 0.47733 0.0
O233 O 0.71084 0.74844 0.43851 0.0
H234 H 1.00309 0.69172 0.15091 0.0
H235 H 0.08557 0.7908 -0.00665 0.0
H236 H 0.04038 0.79422 0.1424 0.0
H237 H 0.02994 0.6867 -0.00384 0.0
H238 H 0.06934 0.79274 0.04792 0.0
H239 H 1.0141 0.68951 0.0945 0.0
C240 C 1.01372 0.71377 0.13722 0.0
C241 C 1.0209 0.74321 0.15139 0.0
C242 C 0.0604 0.76948 0.03647 0.0
C243 C 0.03338 0.74084 0.08688 0.0
C244 C 0.06957 0.76837 0.00527 0.0
C245 C 0.05925 0.73855 0.99021 0.0
C246 C 0.04107 0.74057 0.05285 0.0
C247 C 0.03852 0.71024 0.00682 0.0
C248 C 1.01979 0.71246 0.10499 0.0
C249 C 0.03445 0.77099 0.13247 0.0
N250 N 0.03042 0.71194 0.03737 0.0
N251 N 0.04036 0.76915 0.10123 0.0
H252 H 0.40558 0.35196 0.9761 0.0
H253 H 0.33517 0.31696 0.15202 0.0
H254 H 0.3091 0.32972 -0.00098 0.0
H255 H 0.41819 0.31012 0.12531 0.0
H256 H 0.32808 0.32675 0.09658 0.0
H257 H 0.41258 0.33978 0.03088 0.0
C258 C 0.3857 0.34407 0.99251 0.0
C259 C 0.35672 0.34193 0.98295 0.0
C260 C 0.34788 0.32316 0.10286 0.0
C261 C 0.36487 0.32868 0.04579 0.0
C262 C 0.35214 0.31786 0.13457 0.0
C263 C 0.37731 0.31267 0.14335 0.0
C264 C 0.36911 0.32359 0.07973 0.0
C265 C 0.39843 0.31395 0.11961 0.0
C266 C 0.38978 0.33726 0.0238 0.0
C267 C 0.33184 0.33166 0.00527 0.0
N268 N 0.39387 0.31931 0.08888 0.0
N269 N 0.33661 0.32576 0.03572 0.0
H270 H 0.8297 0.10623 0.11233 0.0
H271 H 0.71508 0.95161 0.00772 0.0
H272 H 0.74798 0.02118 0.15076 0.0
H273 H 0.77145 0.04641 0.96677 0.0
H274 H 0.73252 0.97526 0.06043 0.0
H275 H 0.81324 0.0835 0.0589 0.0
C276 C 0.80819 0.08283 0.10951 0.0
C277 C 0.79017 0.06551 0.13601 0.0
C278 C 0.74114 0.99087 0.03991 0.0
C279 C 0.77157 0.03927 0.07506 0.0
C280 C 0.73144 0.97739 0.00973 0.0
C281 C 0.74177 0.9971 0.9827 0.0
C282 C 0.76166 0.02427 0.04319 0.0
C283 C 0.76286 0.03034 0.98693 0.0
C284 C 0.79884 0.06993 0.07902 0.0
C285 C 0.76249 0.03538 0.13097 0.0
N286 N 0.77215 0.04291 0.01666 0.0
N287 N 0.75418 0.02307 0.10108 0.0
H288 H 0.72357 0.05537 0.49405 0.0
H289 H 0.72847 0.08716 0.30734 0.0
H290 H 0.65621 0.07644 0.44774 0.0
H291 H 0.80866 0.0954 0.36123 0.0
H292 H 0.69831 0.07753 0.35704 0.0
H293 H 0.75124 0.06283 0.44346 0.0
C294 C 0.71441 0.06126 0.47319 0.0
C295 C 0.68766 0.06546 0.47514 0.0
C296 C 0.72257 0.0816 0.35786 0.0
C297 C 0.7193 0.0742 0.41723 0.0
C298 C 0.73979 0.08717 0.32957 0.0
C299 C 0.77114 0.09216 0.33013 0.0
C300 C 0.73672 0.08062 0.38673 0.0
C301 C 0.78461 0.09178 0.3596 0.0
C302 C 0.73034 0.06573 0.44436 0.0
C303 C 0.67689 0.07317 0.44733 0.0
N304 N 0.76727 0.08592 0.38663 0.0
N305 N 0.69277 0.07733 0.41948 0.0
H306 H 1.02647 0.67172 0.50177 0.0
H307 H 0.98324 0.64682 0.31643 0.0
H308 H 0.99794 0.58217 0.45222 0.0
H309 H 0.98838 0.7246 0.37313 0.0
H310 H 0.99363 0.62463 0.3644 0.0
H311 H 1.01897 0.69413 0.45271 0.0
C312 C 1.01893 0.65687 0.48051 0.0
C313 C 1.01263 0.62497 0.48113 0.0
C314 C 0.99235 0.6465 0.36625 0.0
C315 C 1.0038 0.65038 0.42498 0.0
C316 C 0.98636 0.65911 0.33894 0.0
C317 C 0.98483 0.68753 0.34079 0.0
C318 C 0.99718 0.66266 0.39545 0.0
C319 C 0.9892 0.70256 0.37055 0.0
C320 C 1.01445 0.6696 0.45256 0.0
C321 C 1.00286 0.60683 0.45285 0.0
N322 N 0.9953 0.69002 0.39663 0.0
N323 N 0.99867 0.61976 0.42591 0.0
H324 H 0.43535 0.40222 0.47066 0.0
H325 H 0.37608 0.24833 0.35708 0.0
H326 H 0.41199 0.3078 0.50375 0.0
H327 H 0.4104 0.3446 0.32188 0.0
H328 H 0.38977 0.27002 0.41091 0.0
H329 H 0.42568 0.38168 0.4161 0.0
C330 C 0.42801 0.37713 0.46649 0.0
C331 C 0.42444 0.35668 0.49186 0.0
C332 C 0.3946 0.2865 0.39143 0.0
C333 C 0.41359 0.33312 0.42944 0.0
C334 C 0.38687 0.27413 0.36065 0.0
C335 C 0.39203 0.29468 0.33496 0.0
C336 C 0.40734 0.31968 0.39671 0.0
C337 C 0.40613 0.32791 0.34099 0.0
C338 C 0.42269 0.36548 0.43531 0.0
C339 C 0.41503 0.32444 0.48499 0.0
N340 N 0.41303 0.33936 0.37131 0.0
N341 N 0.40992 0.31367 0.45446 0.0
H342 H 0.97788 0.29583 0.83676 0.0
H343 H 1.02448 0.44806 0.94798 0.0
H344 H 1.02571 0.39323 0.80076 0.0
H345 H 1.01058 0.35759 0.98339 0.0
H346 H 1.01886 0.42744 0.89372 0.0
H347 H 0.98238 0.31705 0.89039 0.0
C348 C 0.98901 0.3217 0.84002 0.0
C349 C 1.00155 0.34281 0.81412 0.0
C350 C 1.01718 0.41218 0.91336 0.0
C351 C 1.00684 0.36719 0.87571 0.0
C352 C 1.02034 0.42387 0.94434 0.0
C353 C 1.01799 0.40448 0.97025 0.0
C354 C 1.01113 0.38068 0.90824 0.0
C355 C 1.0127 0.37339 0.96411 0.0
C356 C 0.99178 0.33377 0.87074 0.0
C357 C 1.01578 0.37608 0.81999 0.0
N358 N 1.0092 0.36236 0.93372 0.0
N359 N 1.01804 0.38727 0.8502 0.0
H360 H 0.73255 0.66635 -0.00614 0.0
H361 H 0.72138 0.63339 0.80739 0.0
H362 H 0.66247 0.57466 0.95311 0.0
H363 H 0.80809 0.70437 0.85508 0.0
H364 H 0.69628 0.61347 0.85947 0.0
H365 H 0.75728 0.68362 0.94155 0.0
C366 C 0.72231 0.64991 0.97389 0.0
C367 C 0.69552 0.61901 0.97783 0.0
C368 C 0.72088 0.63324 0.85837 0.0
C369 C 0.72355 0.6386 0.91798 0.0
C370 C 0.7352 0.64457 0.82873 0.0
C371 C 0.76684 0.6706 0.82688 0.0
C372 C 0.73822 0.64845 0.88616 0.0
C373 C 0.78365 0.68425 0.85529 0.0
C374 C 0.73651 0.65969 0.9441 0.0
C375 C 0.68325 0.59864 0.95113 0.0
N376 N 0.76904 0.67323 0.8837 0.0
N377 N 0.69728 0.60884 0.92226 0.0
H378 H 0.3597 0.04116 -7e-05 0.0
H379 H 0.41015 0.08064 0.81772 0.0
H380 H 0.44792 0.05072 0.96344 0.0
H381 H 0.34566 0.10489 0.86562 0.0
H382 H 0.42054 0.06286 0.86872 0.0
H383 H 0.34896 0.05588 0.94769 0.0
C384 C 0.37655 0.04586 0.98082 0.0
C385 C 0.40482 0.04491 0.98605 0.0
C386 C 0.40427 0.07227 0.86794 0.0
C387 C 0.39283 0.06197 0.92641 0.0
C388 C 0.39847 0.08255 0.83893 0.0
C389 C 0.37707 0.09434 0.83738 0.0
C390 C 0.38817 0.07335 0.89535 0.0
C391 C 0.3624 0.09605 0.8656 0.0
C392 C 0.37057 0.05456 0.95111 0.0
C393 C 0.42593 0.05142 0.96045 0.0
N394 N 0.36802 0.08544 0.89331 0.0
N395 N 0.41955 0.05974 0.93171 0.0
H396 H 0.26013 1.0089 0.65471 0.0
H397 H 0.34711 0.02159 0.4894 0.0
H398 H 0.36287 0.06768 0.64239 0.0
H399 H 0.25353 0.94188 0.51362 0.0
H400 H 0.35083 0.04478 0.54233 0.0
H401 H 0.2553 0.98938 0.6002 0.0
C402 C 0.28171 0.01767 0.64054 0.0
C403 C 0.31198 0.03984 0.65314 0.0
C404 C 0.32941 0.02235 0.5359 0.0
C405 C 0.30652 0.01789 0.59057 0.0
C406 C 0.32711 1.00928 0.50563 0.0
C407 C 0.29997 0.97972 0.49717 0.0
C408 C 0.30423 1.00595 0.55763 0.0
C409 C 0.27493 0.96464 0.51923 0.0
C410 C 0.2789 1.00651 0.60943 0.0
C411 C 0.3391 0.05039 0.63367 0.0
N412 N 0.27768 0.97789 0.54846 0.0
N413 N 0.33572 0.03941 0.60325 0.0
H414 H 0.05703 0.31419 0.65017 0.0
H415 H 1.01118 0.33077 0.47151 0.0
H416 H 0.96485 0.30195 0.62354 0.0
H417 H 0.09478 0.32446 0.49691 0.0
H418 H 0.9939 0.32103 0.52693 0.0
H419 H 0.07235 0.32089 0.59423 0.0
C420 C 0.04011 0.31324 0.63262 0.0
C421 C 1.00957 0.30747 0.64162 0.0
C422 C 1.01586 0.32146 0.5203 0.0
C423 C 1.02688 0.31478 0.57739 0.0
C424 C 1.02566 0.32684 0.48861 0.0
C425 C 0.05456 0.32858 0.47948 0.0
C426 C 0.03523 0.31807 0.54314 0.0
C427 C 0.07234 0.32335 0.50277 0.0
C428 C 0.04879 0.31679 0.60062 0.0
C429 C 0.98863 0.30633 0.61773 0.0
N430 N 0.06256 0.31868 0.53354 0.0
N431 N 0.99766 0.30992 0.58674 0.0
H432 H 0.7588 0.8179 0.50261 0.0
H433 H 0.74491 0.69212 0.63384 0.0
H434 H 0.71941 0.7165 0.48243 0.0
H435 H 0.8059 0.79533 0.64395 0.0
H436 H 0.73296 0.70006 0.57908 0.0
H437 H 0.77518 0.8099 0.55509 0.0
C438 C 0.75401 0.79404 0.50906 0.0
C439 C 0.73772 0.76785 0.48814 0.0
C440 C 0.74903 0.72091 0.59332 0.0
C441 C 0.75577 0.75834 0.5484 0.0
C442 C 0.75566 0.71641 0.6246 0.0
C443 C 0.77638 0.7431 0.64348 0.0
C444 C 0.76295 0.75233 0.58105 0.0
C445 C 0.78982 0.77404 0.63026 0.0
C446 C 0.76328 0.78945 0.53906 0.0
C447 C 0.73208 0.73742 0.49776 0.0
N448 N 0.78278 0.7778 0.59995 0.0
N449 N 0.74075 0.73341 0.52737 0.0
H450 H 0.35709 0.44854 0.7979 0.0
H451 H 0.36799 0.34468 0.65453 0.0
H452 H 0.34983 0.3558 0.8105 0.0
H453 H 0.40364 0.44707 0.6486 0.0
H454 H 0.35221 0.34553 0.70949 0.0
H455 H 0.36642 0.44577 0.74127 0.0
C456 C 0.35748 0.42758 0.78876 0.0
C457 C 0.35282 0.40241 0.80899 0.0
C458 C 0.36316 0.36773 0.69604 0.0
C459 C 0.36311 0.39897 0.74408 0.0
C460 C 0.37187 0.36723 0.66453 0.0
C461 C 0.38722 0.39591 0.64694 0.0
C462 C 0.36953 0.39702 0.70997 0.0
C463 C 0.39195 0.42444 0.66132 0.0
C464 C 0.3628 0.42604 0.75642 0.0
C465 C 0.35355 0.37584 0.7958 0.0
N466 N 0.38325 0.4243 0.69205 0.0
N467 N 0.3585 0.37477 0.76412 0.0
H468 H 0.65305 0.97865 0.645 0.0
H469 H 0.68867 1.00209 0.83193 0.0
H470 H 0.65964 0.05818 0.69975 0.0
H471 H 0.65751 0.91157 0.78324 0.0
H472 H 0.68465 0.0255 0.7819 0.0
H473 H 0.65999 0.95549 0.69413 0.0
C474 C 0.6558 0.99114 0.66731 0.0
C475 C 0.65563 0.02031 0.66828 0.0
C476 C 0.67879 1.00053 0.78216 0.0
C477 C 0.66404 0.99431 0.7243 0.0
C478 C 0.68126 0.98722 0.81067 0.0
C479 C 0.67324 0.95479 0.81178 0.0
C480 C 0.66844 0.98134 0.75453 0.0
C481 C 0.66372 0.93664 0.7835 0.0
C482 C 0.65981 0.97797 0.69529 0.0
C483 C 0.65944 0.03556 0.69783 0.0
N484 N 0.66154 0.95014 0.75602 0.0
N485 N 0.66361 0.02246 0.72459 0.0
H486 H 0.06376 0.6884 0.83496 0.0
H487 H 0.09613 0.67387 0.6511 0.0
H488 H 0.15452 0.75217 0.78984 0.0
H489 H 1.01892 0.59757 0.70454 0.0
H490 H 0.11636 0.70552 0.70026 0.0
H491 H 0.04454 0.65791 0.78532 0.0
C492 C 0.07955 0.69615 0.81454 0.0
C493 C 0.11082 0.7228 0.81655 0.0
C494 C 0.0951 0.68176 0.70116 0.0
C495 C 0.08905 0.68794 0.75975 0.0
C496 C 0.08361 0.66367 0.67316 0.0
C497 C 0.05581 0.63303 0.67372 0.0
C498 C 0.07843 0.66922 0.72973 0.0
C499 C 0.04046 0.62104 0.70295 0.0
C500 C 0.06865 0.67861 0.78628 0.0
C501 C 0.13028 0.73168 0.78936 0.0
N502 N 0.05185 0.63924 0.72971 0.0
N503 N 0.11908 0.71429 0.76205 0.0
H504 H 0.59509 0.68594 0.30752 0.0
H505 H 0.68886 0.68241 0.15225 0.0
H506 H 0.69741 0.72238 0.30552 0.0
H507 H 0.58608 0.62263 0.16366 0.0
H508 H 0.69232 0.70506 0.20522 0.0
H509 H 0.59149 0.66935 0.25203 0.0
C510 C 0.61682 0.69045 0.29541 0.0
C511 C 0.64659 0.70541 0.31122 0.0
C512 C 0.66899 0.68721 0.19597 0.0
C513 C 0.64264 0.6868 0.2476 0.0
C514 C 0.66693 0.67448 0.16562 0.0
C515 C 0.63712 0.65044 0.15358 0.0
C516 C 0.64103 0.67604 0.21428 0.0
C517 C 0.60956 0.64097 0.17209 0.0
C518 C 0.61472 0.68098 0.26374 0.0
C519 C 0.67394 0.71069 0.29432 0.0
N520 N 0.6122 0.65369 0.20159 0.0
N521 N 0.67132 0.70145 0.26336 0.0
H522 H 0.38976 0.98054 0.14248 0.0
H523 H 0.39099 1.01245 0.32929 0.0
H524 H 0.47172 0.05492 0.19352 0.0
H525 H 0.32181 0.92249 0.28489 0.0
H526 H 0.41744 0.03147 0.27795 0.0
H527 H 0.36135 0.96116 0.19319 0.0
C528 C 0.40182 0.99265 0.1643 0.0
C529 C 0.43317 0.01932 0.16376 0.0
C530 C 0.39643 1.00758 0.27945 0.0
C531 C 0.40077 0.99771 0.22154 0.0
C532 C 0.38122 0.9968 0.30871 0.0
C533 C 0.35427 0.9658 0.31139 0.0
C534 C 0.38441 0.98734 0.25262 0.0
C535 C 0.34267 0.94651 0.28392 0.0
C536 C 0.38561 0.98164 0.19317 0.0
C537 C 0.44763 0.0342 0.19273 0.0
N538 N 0.35781 0.95759 0.25565 0.0
N539 N 0.43127 0.02331 0.22036 0.0
H540 H 0.15031 0.46458 0.31534 0.0
H541 H 0.06744 0.38916 0.14847 0.0
H542 H 0.08685 0.36217 0.30191 0.0
H543 H 0.09241 0.48515 0.17868 0.0
H544 H 0.08478 0.38037 0.20046 0.0
H545 H 0.13876 0.47366 0.26116 0.0
C546 C 0.13399 0.44396 0.30095 0.0
C547 C 0.11936 0.41256 0.31318 0.0
C548 C 0.08677 0.40344 0.19548 0.0
C549 C 0.10645 0.42284 0.251 0.0
C550 C 0.07726 0.40862 0.16577 0.0
C551 C 0.07858 0.43797 0.15935 0.0
C552 C 0.09816 0.42799 0.21857 0.0
C553 C 0.09098 0.46218 0.18274 0.0
C554 C 0.12741 0.44921 0.27006 0.0
C555 C 0.0984 0.38678 0.29345 0.0
N556 N 0.10032 0.45667 0.21133 0.0
N557 N 0.09264 0.39247 0.2632 0.0
H558 H 0.23532 0.85096 0.3735 0.0
H559 H 0.07034 0.8271 0.29914 0.0
H560 H 0.21042 0.92574 0.37359 0.0
H561 H 0.10222 0.7579 0.28967 0.0
H562 H 0.11974 0.86258 0.32928 0.0
H563 H 0.18442 0.815 0.34622 0.0
C564 C 0.21907 0.85974 0.36807 0.0
C565 C 0.22731 0.89149 0.37582 0.0
C566 C 0.11584 0.83961 0.32054 0.0
C567 C 0.16894 0.85049 0.34435 0.0
C568 C 0.08765 0.81938 0.30329 0.0
C569 C 0.08203 0.78947 0.29167 0.0
C570 C 0.13847 0.82976 0.32639 0.0
C571 C 0.10538 0.78073 0.29797 0.0
C572 C 0.19004 0.83925 0.35233 0.0
C573 C 0.20524 0.90152 0.36799 0.0
N574 N 0.13237 0.80066 0.31483 0.0
N575 N 0.17721 0.88119 0.35269 0.0
H576 H 0.25124 0.25458 0.28685 0.0
H577 H 0.22575 0.38849 0.3773 0.0
H578 H 0.32423 0.35505 0.29592 0.0
H579 H 0.14941 0.29036 0.36174 0.0
H580 H 0.26313 0.37543 0.35068 0.0
H581 H 0.21414 0.26596 0.31688 0.0
C582 C 0.25948 0.27895 0.2951 0.0
C583 C 0.29091 0.30385 0.28865 0.0
C584 C 0.23821 0.3567 0.35321 0.0
C585 C 0.24872 0.31707 0.32318 0.0
C586 C 0.21689 0.36416 0.36856 0.0
C587 C 0.18432 0.34058 0.37173 0.0
C588 C 0.22698 0.3254 0.34096 0.0
C589 C 0.17425 0.30942 0.35977 0.0
C590 C 0.23832 0.28547 0.31226 0.0
C591 C 0.30024 0.33501 0.30008 0.0
N592 N 0.19541 0.30279 0.34489 0.0
N593 N 0.27935 0.34067 0.31669 0.0
H594 H 0.81861 0.99894 0.28862 0.0
H595 H 0.67515 0.84118 0.37235 0.0
H596 H 0.71903 0.97412 0.28781 0.0
H597 H 0.77126 0.85714 0.36151 0.0
H598 H 0.69227 0.89274 0.34576 0.0
H599 H 0.8032 0.9496 0.31919 0.0
C600 C 0.7936 0.98323 0.29484 0.0
C601 C 0.77014 0.99073 0.28537 0.0
C602 C 0.70967 0.88501 0.34933 0.0
C603 C 0.75232 0.93439 0.32058 0.0
C604 C 0.69989 0.85561 0.36466 0.0
C605 C 0.72169 0.84462 0.36911 0.0
C606 C 0.74155 0.90376 0.33844 0.0
C607 C 0.75349 0.86445 0.35849 0.0
C608 C 0.78478 0.95506 0.31229 0.0
C609 C 0.73805 0.9694 0.29428 0.0
N610 N 0.76241 0.89289 0.34365 0.0
N611 N 0.73017 0.94241 0.31128 0.0
H612 H 0.83108 0.20474 0.21461 0.0
H613 H 0.99303 0.30498 0.11462 0.0
H614 H 0.90071 0.17429 0.20072 0.0
H615 H 0.92754 0.33989 0.13304 0.0
H616 H 0.95954 0.25753 0.14641 0.0
H617 H 0.86618 0.2546 0.18618 0.0
C618 C 0.85392 0.20862 0.20584 0.0
C619 C 0.86286 0.18508 0.2101 0.0
C620 C 0.95239 0.27548 0.1436 0.0
C621 C 0.90321 0.24239 0.17704 0.0
C622 C 0.9715 0.30271 0.12528 0.0
C623 C 0.96314 0.32666 0.12092 0.0
C624 C 0.92437 0.27173 0.15785 0.0
C625 C 0.93495 0.32211 0.1356 0.0
C626 C 0.87394 0.23717 0.18951 0.0
C627 C 0.8928 0.19167 0.19816 0.0
N628 N 0.91655 0.29518 0.15334 0.0
N629 N 0.91174 0.21955 0.18204 0.0
H630 H 0.71184 0.6006 0.19684 0.0
H631 H 0.90277 0.71498 0.18819 0.0
H632 H 0.76252 0.63165 0.10788 0.0
H633 H 0.85538 0.65229 0.26752 0.0
H634 H 0.8508 0.69098 0.1603 0.0
H635 H 0.76356 0.62433 0.22475 0.0
C636 C 0.73383 0.61205 0.18312 0.0
C637 C 0.73274 0.61385 0.1499 0.0
C638 C 0.85181 0.68265 0.18389 0.0
C639 C 0.79219 0.64202 0.18188 0.0
C640 C 0.88139 0.6966 0.19997 0.0
C641 C 0.88346 0.68571 0.23031 0.0
C642 C 0.82398 0.65801 0.19844 0.0
C643 C 0.85496 0.66145 0.24419 0.0
C644 C 0.76336 0.62571 0.1991 0.0
C645 C 0.76213 0.6293 0.13344 0.0
N646 N 0.82647 0.64852 0.22824 0.0
N647 N 0.79061 0.64308 0.1496 0.0
H648 H 0.43348 0.22388 0.23833 0.0
H649 H 0.41038 0.13297 0.07241 0.0
H650 H 0.35291 0.1969 0.17554 0.0
H651 H 0.47654 0.13735 0.14418 0.0
H652 H 0.39253 0.16063 0.10843 0.0
H653 H 0.45174 0.19517 0.20366 0.0
C654 C 0.41939 0.2116 0.21743 0.0
C655 C 0.39153 0.2128 0.20991 0.0
C656 C 0.41102 0.15567 0.11635 0.0
C657 C 0.4128 0.18038 0.16969 0.0
C658 C 0.42147 0.14002 0.09567 0.0
C659 C 0.44507 0.13268 0.10518 0.0
C660 C 0.42428 0.1644 0.14694 0.0
C661 C 0.45841 0.14258 0.13571 0.0
C662 C 0.42993 0.19528 0.19761 0.0
C663 C 0.37436 0.19647 0.18246 0.0
N664 N 0.44781 0.15789 0.1555 0.0
N665 N 0.38543 0.18123 0.16324 0.0
H666 H 0.78423 0.09945 0.59799 0.0
H667 H 0.87094 0.23534 0.73244 0.0
H668 H 0.73988 0.14918 0.64113 0.0
H669 H 0.9144 0.1854 0.6879 0.0
H670 H 0.8226 0.20361 0.70036 0.0
H671 H 0.83181 0.1309 0.63073 0.0
C672 C 0.78451 0.11717 0.61425 0.0
C673 C 0.75782 0.12158 0.61673 0.0
C674 C 0.84261 0.19944 0.69768 0.0
C675 C 0.81271 0.1578 0.65482 0.0
C676 C 0.87027 0.21748 0.71612 0.0
C677 C 0.89696 0.21311 0.71296 0.0
C678 C 0.84142 0.17675 0.67571 0.0
C679 C 0.89449 0.18958 0.69132 0.0
C680 C 0.8118 0.13511 0.63306 0.0
C681 C 0.75986 0.14502 0.63826 0.0
N682 N 0.86733 0.17244 0.67348 0.0
N683 N 0.78677 0.16216 0.65655 0.0
H684 H 0.91724 0.5828 0.6281 0.0
H685 H 0.89102 0.72367 0.70054 0.0
H686 H 0.9874 0.68443 0.62306 0.0
H687 H 0.81732 0.62304 0.69962 0.0
H688 H 0.92781 0.70917 0.67488 0.0
H689 H 0.88093 0.59639 0.65655 0.0
C690 C 0.925 0.60789 0.63289 0.0
C691 C 0.95542 0.63244 0.62302 0.0
C692 C 0.9036 0.69024 0.68041 0.0
C693 C 0.91416 0.64822 0.65574 0.0
C694 C 0.88263 0.69854 0.69519 0.0
C695 C 0.85097 0.67461 0.7022 0.0
C696 C 0.89289 0.65776 0.67261 0.0
C697 C 0.84146 0.64239 0.69458 0.0
C698 C 0.90431 0.61567 0.64918 0.0
C699 C 0.96419 0.66459 0.63004 0.0
N700 N 0.86223 0.63494 0.68018 0.0
N701 N 0.94377 0.67148 0.6459 0.0
H702 H 0.35954 0.19865 0.73709 0.0
H703 H 0.46794 0.32875 0.60499 0.0
H704 H 0.41303 0.18167 0.66487 0.0
H705 H 0.43211 0.3535 0.68803 0.0
H706 H 0.44555 0.27384 0.62537 0.0
H707 H 0.38268 0.25445 0.71792 0.0
C708 C 0.37595 0.20653 0.71717 0.0
C709 C 0.38435 0.18535 0.70268 0.0
C710 C 0.44278 0.29135 0.63927 0.0
C711 C 0.41092 0.2491 0.68061 0.0
C712 C 0.45571 0.3228 0.62766 0.0
C713 C 0.45222 0.34601 0.64485 0.0
C714 C 0.42581 0.28274 0.66816 0.0
C715 C 0.43576 0.33662 0.67402 0.0
C716 C 0.38929 0.23842 0.70632 0.0
C717 C 0.40589 0.19703 0.67697 0.0
N718 N 0.42303 0.30576 0.68462 0.0
N719 N 0.41828 0.22791 0.6668 0.0
H720 H 0.31339 0.97829 0.79037 0.0
H721 H 0.14643 0.87051 0.88014 0.0
H722 H 0.24289 1.00809 0.80124 0.0
H723 H 0.22237 0.84762 0.87632 0.0
H724 H 0.18096 0.9209 0.85217 0.0
H725 H 0.28003 0.93068 0.82183 0.0
C726 C 0.29078 0.97487 0.79931 0.0
C727 C 0.28097 0.9974 0.79287 0.0
C728 C 0.19018 0.905 0.8576 0.0
C729 C 0.24226 0.94219 0.82942 0.0
C730 C 0.17048 0.87614 0.87364 0.0
C731 C 0.18142 0.85459 0.88061 0.0
C732 C 0.22113 0.91249 0.84816 0.0
C733 C 0.21286 0.8634 0.87157 0.0
C734 C 0.27173 0.94753 0.81747 0.0
C735 C 0.25144 0.99142 0.80545 0.0
N736 N 0.23147 0.89151 0.85568 0.0
N737 N 0.23306 0.96432 0.82302 0.0
H738 H 0.11585 0.35797 0.77863 0.0
H739 H 0.21176 0.29141 0.87775 0.0
H740 H 0.07681 0.25651 0.79702 0.0
H741 H 0.24118 0.39234 0.87127 0.0
H742 H 0.16267 0.27778 0.84831 0.0
H743 H 0.16223 0.37033 0.81143 0.0
C744 C 0.11701 0.33814 0.78946 0.0
C745 C 0.09221 0.30602 0.78483 0.0
C746 C 0.1797 0.30289 0.85352 0.0
C747 C 0.14589 0.32031 0.82293 0.0
C748 C 0.2078 0.31076 0.8704 0.0
C749 C 0.2308 0.34316 0.87702 0.0
C750 C 0.17453 0.32757 0.8428 0.0
C751 C 0.22419 0.36707 0.86686 0.0
C752 C 0.1436 0.34533 0.8084 0.0
C753 C 0.0953 0.28158 0.79978 0.0
N754 N 0.19685 0.35881 0.85008 0.0
N755 N 0.12169 0.28922 0.81806 0.0
H756 H 0.70619 0.74046 0.78019 0.0
H757 H 0.76867 0.90524 0.87753 0.0
H758 H 0.80694 0.8092 0.79478 0.0
H759 H 0.66836 0.83332 0.86666 0.0
H760 H 0.78324 0.87039 0.84833 0.0
H761 H 0.69236 0.77417 0.81195 0.0
C762 C 0.72554 0.76274 0.79002 0.0
C763 C 0.7579 0.77196 0.78463 0.0
C764 C 0.75805 0.8621 0.85244 0.0
C765 C 0.74193 0.81096 0.82146 0.0
C766 C 0.74963 0.88199 0.86919 0.0
C767 C 0.71714 0.87228 0.87458 0.0
C768 C 0.73387 0.83218 0.84072 0.0
C769 C 0.69368 0.84183 0.86319 0.0
C770 C 0.71751 0.78199 0.8083 0.0
C771 C 0.78171 0.80112 0.79819 0.0
N772 N 0.7025 0.82298 0.84668 0.0
N773 N 0.77324 0.8196 0.81593 0.0
H774 H 0.53417 0.5054 0.51657 0.0
H775 H 0.60888 0.69661 0.52232 0.0
H776 H 0.51115 0.55295 0.59057 0.0
H777 H 0.59824 0.645 0.43479 0.0
H778 H 0.5781 0.64494 0.54978 0.0
H779 H 0.56395 0.55716 0.48872 0.0
C780 C 0.53573 0.52676 0.5272 0.0
C781 C 0.52015 0.52477 0.55604 0.0
C782 C 0.58226 0.64491 0.52451 0.0
C783 C 0.55413 0.58409 0.52419 0.0
C784 C 0.59975 0.67441 0.50877 0.0
C785 C 0.60601 0.67524 0.47611 0.0
C786 C 0.57146 0.61585 0.50769 0.0
C787 C 0.59373 0.6456 0.45989 0.0
C788 C 0.55246 0.55623 0.51112 0.0
C789 C 0.52273 0.55328 0.56842 0.0
N790 N 0.57738 0.61716 0.47589 0.0
N791 N 0.53945 0.58169 0.55255 0.0
H792 H 0.57248 0.06906 0.54078 0.0
H793 H 0.40547 0.92922 0.46606 0.0
H794 H 0.54351 0.96802 0.54204 0.0
H795 H 0.43867 0.0311 0.46027 0.0
H796 H 0.45438 0.94224 0.49627 0.0
H797 H 0.52174 0.05502 0.51411 0.0
C798 C 0.55538 0.04393 0.53573 0.0
C799 C 0.56243 0.01976 0.54365 0.0
C800 C 0.45086 0.9617 0.48837 0.0
C801 C 0.50422 1.00341 0.51281 0.0
C802 C 0.42294 0.95424 0.4711 0.0
C803 C 0.41786 0.97903 0.46042 0.0
C804 C 0.47382 0.99416 0.49512 0.0
C805 C 0.44142 1.01108 0.4678 0.0
C806 C 0.52642 0.03589 0.52035 0.0
C807 C 0.53927 0.98755 0.53633 0.0
N808 N 0.46819 0.01765 0.48458 0.0
N809 N 0.51136 0.98036 0.5213 0.0
H810 H 0.06023 0.44263 0.42052 0.0
H811 H 0.10411 0.55877 0.57145 0.0
H812 H 0.14153 0.46534 0.4809 0.0
H813 H 1.01205 0.5145 0.52396 0.0
H814 H 0.1197 0.52694 0.53808 0.0
H815 H 0.0446 0.47204 0.45657 0.0
C816 C 0.07504 0.45401 0.44127 0.0
C817 C 0.10236 0.45143 0.44755 0.0
C818 C 0.09599 0.52396 0.53517 0.0
C819 C 0.08421 0.48532 0.48938 0.0
C820 C 0.087 0.54208 0.55425 0.0
C821 C 0.05667 0.53937 0.55053 0.0
C822 C 0.07471 0.50324 0.5118 0.0
C823 C 0.03558 0.51734 0.52782 0.0
C824 C 0.06588 0.47067 0.46203 0.0
C825 C 0.12037 0.46674 0.47499 0.0
N826 N 0.04512 0.50041 0.50915 0.0
N827 N 0.11102 0.48309 0.49487 0.0
H828 H 0.45362 0.497 0.90152 0.0
H829 H 0.55165 0.52001 0.06146 0.0
H830 H 0.40503 0.44611 0.98654 0.0
H831 H 0.58106 0.59404 0.99037 0.0
H832 H 0.49984 0.4883 0.03317 0.0
H833 H 0.50276 0.52915 0.93253 0.0
C834 C 0.4532 0.4929 0.92684 0.0
C835 C 0.42508 0.46915 0.94152 0.0
C836 C 0.51771 0.51157 0.02397 0.0
C837 C 0.48168 0.50523 0.97712 0.0
C838 C 0.5473 0.52953 0.03996 0.0
C839 C 0.57075 0.55977 0.02834 0.0
C840 C 0.51195 0.52368 -0.00412 0.0
C841 C 0.56373 0.57099 0.0004 0.0
C842 C 0.48129 0.51118 0.94453 0.0
C843 C 0.42606 0.4646 0.97439 0.0
N844 N 0.53523 0.55292 0.98511 0.0
N845 N 0.45401 0.48221 0.99106 0.0
H846 H 0.57901 0.91357 0.96506 0.0
H847 H 0.55941 0.06001 0.03312 0.0
H848 H 0.64477 1.01427 0.94587 0.0
H849 H 0.48561 0.95995 0.04176 0.0
H850 H 0.59316 0.04308 0.00515 0.0
H851 H 0.54588 0.92935 -0.00353 0.0
C852 C 0.58644 0.93889 0.96733 0.0
C853 C 0.6147 0.96253 0.95264 0.0
C854 C 0.56962 0.02479 0.0133 0.0
C855 C 0.57721 0.98083 0.98881 0.0
C856 C 0.55042 0.03449 0.02945 0.0
C857 C 0.51954 1.01144 0.03974 0.0
C858 C 0.558 0.99177 0.00743 0.0
C859 C 0.50918 0.97864 0.03415 0.0
C860 C 0.56758 0.94792 0.98531 0.0
C861 C 0.62318 0.99506 0.95658 0.0
N862 N 0.52826 0.96981 0.01834 0.0
N863 N 0.60465 1.00316 0.97423 0.0
H864 H 0.15024 0.68548 0.98339 0.0
H865 H 1.0148 0.50519 0.03065 0.0
H866 H 0.06217 0.62801 0.93081 0.0
H867 H 0.11357 0.54722 0.06099 0.0
H868 H 0.02943 0.55458 0.00099 0.0
H869 H 0.13537 0.63882 0.01816 0.0
C870 C 0.12792 0.66315 0.97906 0.0
C871 C 0.10762 0.66072 0.9539 0.0
C872 C 0.04785 0.55309 0.01438 0.0
C873 C 0.09012 0.60761 -0.00602 0.0
C874 C 0.03942 0.52499 0.03156 0.0
C875 C 0.06298 0.52195 0.04826 0.0
C876 C 0.08 0.57856 0.01415 0.0
C877 C 0.09463 0.54841 0.0483 0.0
C878 C 0.11941 0.63657 -0.00106 0.0
C879 C 0.07883 0.63113 0.94963 0.0
N880 N 0.10223 0.57553 0.03148 0.0
N881 N 0.07093 0.60596 0.96946 0.0
loop_
_geom_bond_atom_site_label_1
_geom_bond_atom_site_label_2
_geom_bond_distance
_geom_bond_site_symmetry_2
_ccdc_geom_bond_type
Mg0 O7 2.141 1_455 S
Mg0 O8 2.048 . S
Mg0 O9 2.048 . S
Mg0 O12 2.141 1_455 S
C1 O2 1.313 . S
C1 O8 1.195 . S
O2 C1 1.313 . S
C3 O4 1.245 . S
C3 O12 1.289 . S
O4 C3 1.245 . S
C5 O6 1.245 . S
C5 O7 1.289 . S
O6 C5 1.245 . S
O7 Mg0 2.141 1_655 S
O7 C5 1.289 . S
O8 Mg0 2.048 . S
O8 C1 1.195 . S
O9 Mg0 2.048 . S
O9 C10 1.195 . S
C10 O9 1.195 . S
C10 O11 1.313 . S
O11 C10 1.313 . S
O12 Mg0 2.141 1_655 S
O12 C3 1.289 . S
Mg13 O20 2.141 . S
Mg13 O21 2.048 . S
Mg13 O22 2.048 . S
Mg13 O25 2.141 . S
C14 O15 1.313 . S
C14 O21 1.195 . S
O15 C14 1.313 . S
C16 O17 1.245 . S
C16 O25 1.289 . S
O17 C16 1.245 . S
C18 O19 1.245 . S
C18 O20 1.289 . S
O19 C18 1.245 . S
O20 Mg13 2.141 . S
O20 C18 1.289 . S
O21 Mg13 2.048 . S
O21 C14 1.195 . S
O22 Mg13 2.048 . S
O22 C23 1.195 . S
C23 O22 1.195 . S
C23 O24 1.313 . S
O24 C23 1.313 . S
O25 Mg13 2.141 . S
O25 C16 1.289 . S
Mg26 O33 2.141 1_545 S
Mg26 O34 2.048 . S
Mg26 O35 2.048 . S
Mg26 O38 2.141 1_545 S
C27 O28 1.313 . S
C27 O34 1.195 . S
O28 C27 1.313 . S
C29 O30 1.245 . S
C29 O38 1.289 . S
O30 C29 1.245 . S
C31 O32 1.245 . S
C31 O33 1.289 . S
O32 C31 1.245 . S
O33 Mg26 2.141 1_565 S
O33 C31 1.289 . S
O34 Mg26 2.048 . S
O34 C27 1.195 . S
O35 Mg26 2.048 . S
O35 C36 1.195 . S
C36 O35 1.195 . S
C36 O37 1.313 . S
O37 C36 1.313 . S
O38 Mg26 2.141 1_565 S
O38 C29 1.289 . S
Mg39 O46 2.141 . S
Mg39 O47 2.048 1_455 S
Mg39 O48 2.046 1_455 S
Mg39 O51 2.141 . S
C40 O41 1.313 . S
C40 O47 1.195 . S
O41 C40 1.313 . S
C42 O43 1.245 . S
C42 O51 1.289 . S
O43 C42 1.245 . S
C44 O45 1.245 . S
C44 O46 1.289 . S
O45 C44 1.245 . S
O46 Mg39 2.141 . S
O46 C44 1.289 . S
O47 Mg39 2.048 1_655 S
O47 C40 1.195 . S
O48 Mg39 2.046 1_655 S
O48 C49 1.198 . S
C49 O48 1.198 . S
C49 O50 1.313 . S
O50 C49 1.313 . S
O51 Mg39 2.141 . S
O51 C42 1.289 . S
Mg52 O59 2.141 . S
Mg52 O60 2.048 . S
Mg52 O61 2.048 . S
Mg52 O64 2.141 . S
C53 O54 1.313 . S
C53 O60 1.195 . S
O54 C53 1.313 . S
C55 O56 1.245 . S
C55 O64 1.289 . S
O56 C55 1.245 . S
C57 O58 1.245 . S
C57 O59 1.289 . S
O58 C57 1.245 . S
O59 Mg52 2.141 . S
O59 C57 1.289 . S
O60 Mg52 2.048 . S
O60 C53 1.195 . S
O61 Mg52 2.048 . S
O61 C62 1.195 . S
C62 O61 1.195 . S
C62 O63 1.313 . S
O63 C62 1.313 . S
O64 Mg52 2.141 . S
O64 C55 1.289 . S
Mg65 O72 2.141 . S
Mg65 O73 2.048 1_545 S
Mg65 O74 2.048 1_545 S
Mg65 O77 2.141 . S
C66 O67 1.313 . S
C66 O73 1.195 . S
O67 C66 1.313 . S
C68 O69 1.245 . S
C68 O77 1.289 . S
O69 C68 1.245 . S
C70 O71 1.245 . S
C70 O72 1.289 . S
O71 C70 1.245 . S
O72 Mg65 2.141 . S
O72 C70 1.289 . S
O73 Mg65 2.048 1_565 S
O73 C66 1.195 . S
O74 Mg65 2.048 1_565 S
O74 C75 1.195 . S
C75 O74 1.195 . S
C75 O76 1.313 . S
O76 C75 1.313 . S
O77 Mg65 2.141 . S
O77 C68 1.289 . S
Mg78 O85 2.141 . S
Mg78 O86 2.048 . S
Mg78 O87 2.048 . S
Mg78 O90 2.141 . S
C79 O80 1.313 . S
C79 O86 1.195 . S
O80 C79 1.313 . S
C81 O82 1.245 . S
C81 O90 1.289 . S
O82 C81 1.245 . S
C83 O84 1.245 . S
C83 O85 1.289 . S
O84 C83 1.245 . S
O85 Mg78 2.141 . S
O85 C83 1.289 . S
O86 Mg78 2.048 . S
O86 C79 1.195 . S
O87 Mg78 2.048 . S
O87 C88 1.195 . S
C88 O87 1.195 . S
C88 O89 1.313 . S
O89 C88 1.313 . S
O90 Mg78 2.141 . S
O90 C81 1.289 . S
Mg91 O98 2.141 . S
Mg91 O99 2.048 . S
Mg91 O100 2.048 . S
Mg91 O103 2.141 . S
C92 O93 1.313 . S
C92 O99 1.195 . S
O93 C92 1.313 . S
C94 O95 1.245 . S
C94 O103 1.289 . S
O95 C94 1.245 . S
C96 O97 1.245 . S
C96 O98 1.289 . S
O97 C96 1.245 . S
O98 Mg91 2.141 . S
O98 C96 1.289 . S
O99 Mg91 2.048 . S
O99 C92 1.195 . S
O100 Mg91 2.048 . S
O100 C101 1.195 . S
C101 O100 1.195 . S
C101 O102 1.313 . S
O102 C101 1.313 . S
O103 Mg91 2.141 . S
O103 C94 1.289 . S
Mg104 O111 2.141 . S
Mg104 O112 2.048 . S
Mg104 O113 2.048 . S
Mg104 O116 2.141 . S
C105 O106 1.313 . S
C105 O112 1.195 . S
O106 C105 1.313 . S
C107 O108 1.245 . S
C107 O116 1.289 . S
O108 C107 1.245 . S
C109 O110 1.245 . S
C109 O111 1.289 . S
O110 C109 1.245 . S
O111 Mg104 2.141 . S
O111 C109 1.289 . S
O112 Mg104 2.048 . S
O112 C105 1.195 . S
O113 Mg104 2.048 . S
O113 C114 1.195 . S
C114 O113 1.195 . S
C114 O115 1.313 . S
O115 C114 1.313 . S
O116 Mg104 2.141 . S
O116 C107 1.289 . S
Mg117 O124 2.141 . S
Mg117 O125 2.048 . S
Mg117 O126 2.048 . S
Mg117 O129 2.141 . S
C118 O119 1.313 . S
C118 O125 1.195 . S
O119 C118 1.313 . S
C120 O121 1.245 . S
C120 O129 1.289 . S
O121 C120 1.245 . S
C122 O123 1.245 . S
C122 O124 1.289 . S
O123 C122 1.245 . S
O124 Mg117 2.141 . S
O124 C122 1.289 . S
O125 Mg117 2.048 . S
O125 C118 1.195 . S
O126 Mg117 2.048 . S
O126 C127 1.195 . S
C127 O126 1.195 . S
C127 O128 1.313 . S
O128 C127 1.313 . S
O129 Mg117 2.141 . S
O129 C120 1.289 . S
Mg130 O137 2.141 . S
Mg130 O138 2.048 . S
Mg130 O139 2.048 . S
Mg130 O142 2.141 . S
C131 O132 1.313 . S
C131 O138 1.195 . S
O132 C131 1.313 . S
C133 O134 1.245 . S
C133 O142 1.289 . S
O134 C133 1.245 . S
C135 O136 1.245 . S
C135 O137 1.289 . S
O136 C135 1.245 . S
O137 Mg130 2.141 . S
O137 C135 1.289 . S
O138 Mg130 2.048 . S
O138 C131 1.195 . S
O139 Mg130 2.048 . S
O139 C140 1.195 . S
C140 O139 1.195 . S
C140 O141 1.313 . S
O141 C140 1.313 . S
O142 Mg130 2.141 . S
O142 C133 1.289 . S
Mg143 O150 2.141 . S
Mg143 O151 2.048 . S
Mg143 O152 2.048 . S
Mg143 O155 2.141 . S
C144 O145 1.313 . S
C144 O151 1.195 . S
O145 C144 1.313 . S
C146 O147 1.245 . S
C146 O155 1.289 . S
O147 C146 1.245 . S
C148 O149 1.245 . S
C148 O150 1.289 . S
O149 C148 1.245 . S
O150 Mg143 2.141 . S
O150 C148 1.289 . S
O151 Mg143 2.048 . S
O151 C144 1.195 . S
O152 Mg143 2.048 . S
O152 C153 1.195 . S
C153 O152 1.195 . S
C153 O154 1.313 . S
O154 C153 1.313 . S
O155 Mg143 2.141 . S
O155 C146 1.289 . S
Mg156 O163 2.141 . S
Mg156 O164 2.048 . S
Mg156 O165 2.048 . S
Mg156 O168 2.141 . S
C157 O158 1.313 . S
C157 O164 1.195 . S
O158 C157 1.313 . S
C159 O160 1.245 . S
C159 O168 1.289 . S
O160 C159 1.245 . S
C161 O162 1.245 . S
C161 O163 1.289 . S
O162 C161 1.245 . S
O163 Mg156 2.141 . S
O163 C161 1.289 . S
O164 Mg156 2.048 . S
O164 C157 1.195 . S
O165 Mg156 2.048 . S
O165 C166 1.195 . S
C166 O165 1.195 . S
C166 O167 1.313 . S
O167 C166 1.313 . S
O168 Mg156 2.141 . S
O168 C159 1.289 . S
Mg169 O176 2.141 . S
Mg169 O177 2.048 . S
Mg169 O178 2.048 . S
Mg169 O181 2.141 . S
C170 O171 1.313 . S
C170 O177 1.195 . S
O171 C170 1.313 . S
C172 O173 1.245 . S
C172 O181 1.289 . S
O173 C172 1.245 . S
C174 O175 1.245 . S
C174 O176 1.289 . S
O175 C174 1.245 . S
O176 Mg169 2.141 . S
O176 C174 1.289 . S
O177 Mg169 2.048 . S
O177 C170 1.195 . S
O178 Mg169 2.048 . S
O178 C179 1.195 . S
C179 O178 1.195 . S
C179 O180 1.313 . S
O180 C179 1.313 . S
O181 Mg169 2.141 . S
O181 C172 1.289 . S
Mg182 O189 2.141 . S
Mg182 O190 2.048 . S
Mg182 O191 2.048 . S
Mg182 O194 2.141 . S
C183 O184 1.313 . S
C183 O190 1.195 . S
O184 C183 1.313 . S
C185 O186 1.245 . S
C185 O194 1.289 . S
O186 C185 1.245 . S
C187 O188 1.245 . S
C187 O189 1.289 . S
O188 C187 1.245 . S
O189 Mg182 2.141 . S
O189 C187 1.289 . S
O190 Mg182 2.048 . S
O190 C183 1.195 . S
O191 Mg182 2.048 . S
O191 C192 1.195 . S
C192 O191 1.195 . S
C192 O193 1.313 . S
O193 C192 1.313 . S
O194 Mg182 2.141 . S
O194 C185 1.289 . S
Mg195 O202 2.141 . S
Mg195 O203 2.048 . S
Mg195 O204 2.048 . S
Mg195 O207 2.141 . S
C196 O197 1.313 . S
C196 O203 1.195 . S
O197 C196 1.313 . S
C198 O199 1.245 . S
C198 O207 1.289 . S
O199 C198 1.245 . S
C200 O201 1.245 . S
C200 O202 1.289 . S
O201 C200 1.245 . S
O202 Mg195 2.141 . S
O202 C200 1.289 . S
O203 Mg195 2.048 . S
O203 C196 1.195 . S
O204 Mg195 2.048 . S
O204 C205 1.195 . S
C205 O204 1.195 . S
C205 O206 1.313 . S
O206 C205 1.313 . S
O207 Mg195 2.141 . S
O207 C198 1.289 . S
Mg208 O215 2.141 . S
Mg208 O216 2.048 . S
Mg208 O217 2.048 . S
Mg208 O220 2.141 . S
C209 O210 1.313 . S
C209 O216 1.195 . S
O210 C209 1.313 . S
C211 O212 1.245 . S
C211 O220 1.289 . S
O212 C211 1.245 . S
C213 O214 1.245 . S
C213 O215 1.289 . S
O214 C213 1.245 . S
O215 Mg208 2.141 . S
O215 C213 1.289 . S
O216 Mg208 2.048 . S
O216 C209 1.195 . S
O217 Mg208 2.048 . S
O217 C218 1.195 . S
C218 O217 1.195 . S
C218 O219 1.313 . S
O219 C218 1.313 . S
O220 Mg208 2.141 . S
O220 C211 1.289 . S
Mg221 O228 2.141 . S
Mg221 O229 2.048 . S
Mg221 O230 2.048 . S
Mg221 O233 2.141 . S
C222 O223 1.313 . S
C222 O229 1.195 . S
O223 C222 1.313 . S
C224 O225 1.245 . S
C224 O233 1.289 . S
O225 C224 1.245 . S
C226 O227 1.245 . S
C226 O228 1.289 . S
O227 C226 1.245 . S
O228 Mg221 2.141 . S
O228 C226 1.289 . S
O229 Mg221 2.048 . S
O229 C222 1.195 . S
O230 Mg221 2.048 . S
O230 C231 1.195 . S
C231 O230 1.195 . S
C231 O232 1.313 . S
O232 C231 1.313 . S
O233 Mg221 2.141 . S
O233 C224 1.289 . S
H234 C240 0.930 . S
H235 C244 0.930 . S
H236 C249 0.929 . S
H237 C247 0.929 . S
H238 C242 0.929 . S
H239 C248 0.929 . S
C240 H234 0.930 . S
C240 C241 1.367 . S
C240 C248 1.378 . S
C241 C240 1.367 . S
C241 C249 1.433 . S
C242 H238 0.929 . S
C242 C244 1.378 . S
C242 C246 1.350 . S
C243 C246 1.463 . S
C243 C248 1.350 . S
C243 N251 1.427 . S
C244 H235 0.930 . S
C244 C242 1.378 . S
C244 C245 1.367 . S
C245 C244 1.367 . S
C245 C247 1.433 . S
C246 C242 1.350 . S
C246 C243 1.463 . S
C246 N250 1.427 . S
C247 H237 0.929 . S
C247 C245 1.433 . S
C247 N250 1.384 . S
C248 H239 0.929 . S
C248 C240 1.378 . S
C248 C243 1.350 . S
C249 H236 0.929 . S
C249 C241 1.433 . S
C249 N251 1.384 . S
N250 C246 1.427 . S
N250 C247 1.384 . S
N251 C243 1.427 . S
N251 C249 1.384 . S
H252 C258 0.930 . S
H253 C262 0.930 . S
H254 C267 0.929 . S
H255 C265 0.929 . S
H256 C260 0.929 . S
H257 C266 0.929 . S
C258 H252 0.930 . S
C258 C259 1.367 . S
C258 C266 1.378 . S
C259 C258 1.367 . S
C259 C267 1.433 . S
C260 H256 0.929 . S
C260 C262 1.378 . S
C260 C264 1.350 . S
C261 C264 1.463 . S
C261 C266 1.350 . S
C261 N269 1.427 . S
C262 H253 0.930 . S
C262 C260 1.378 . S
C262 C263 1.367 . S
C263 C262 1.367 . S
C263 C265 1.433 . S
C264 C260 1.350 . S
C264 C261 1.463 . S
C264 N268 1.427 . S
C265 H255 0.929 . S
C265 C263 1.433 . S
C265 N268 1.384 . S
C266 H257 0.929 . S
C266 C258 1.378 . S
C266 C261 1.350 . S
C267 H254 0.929 . S
C267 C259 1.433 . S
C267 N269 1.384 . S
N268 C264 1.427 . S
N268 C265 1.384 . S
N269 C261 1.427 . S
N269 C267 1.384 . S
H270 C276 0.930 1_545 S
H271 C280 0.930 . S
H272 C285 0.929 . S
H273 C283 0.929 1_556 S
H274 C278 0.929 . S
H275 C284 0.929 . S
C276 H270 0.930 1_565 S
C276 C277 1.367 . S
C276 C284 1.378 . S
C277 C276 1.367 . S
C277 C285 1.433 . S
C278 H274 0.929 . S
C278 C280 1.378 . S
C278 C282 1.350 . S
C279 C282 1.463 . S
C279 C284 1.350 . S
C279 N287 1.427 . S
C280 H271 0.930 . S
C280 C278 1.378 . S
C280 C281 1.367 . S
C281 C280 1.367 . S
C281 C283 1.433 . S
C282 C278 1.350 . S
C282 C279 1.463 . S
C282 N286 1.427 . S
C283 H273 0.929 1_554 S
C283 C281 1.433 . S
C283 N286 1.384 . S
C284 H275 0.929 . S
C284 C276 1.378 . S
C284 C279 1.350 . S
C285 H272 0.929 . S
C285 C277 1.433 . S
C285 N287 1.384 . S
N286 C282 1.427 . S
N286 C283 1.384 . S
N287 C279 1.427 . S
N287 C285 1.384 . S
H288 C294 0.930 . S
H289 C298 0.930 . S
H290 C303 0.929 . S
H291 C301 0.929 . S
H292 C296 0.929 . S
H293 C302 0.929 . S
C294 H288 0.930 . S
C294 C295 1.367 . S
C294 C302 1.378 . S
C295 C294 1.367 . S
C295 C303 1.433 . S
C296 H292 0.929 . S
C296 C298 1.378 . S
C296 C300 1.350 . S
C297 C300 1.463 . S
C297 C302 1.350 . S
C297 N305 1.427 . S
C298 H289 0.930 . S
C298 C296 1.378 . S
C298 C299 1.367 . S
C299 C298 1.367 . S
C299 C301 1.433 . S
C300 C296 1.350 . S
C300 C297 1.463 . S
C300 N304 1.427 . S
C301 H291 0.929 . S
C301 C299 1.433 . S
C301 N304 1.384 . S
C302 H293 0.929 . S
C302 C294 1.378 . S
C302 C297 1.350 . S
C303 H290 0.929 . S
C303 C295 1.433 . S
C303 N305 1.384 . S
N304 C300 1.427 . S
N304 C301 1.384 . S
N305 C297 1.427 . S
N305 C303 1.384 . S
H306 C312 0.930 . S
H307 C316 0.930 . S
H308 C321 0.929 . S
H309 C319 0.929 1_455 S
H310 C314 0.929 . S
H311 C320 0.929 . S
C312 H306 0.930 . S
C312 C313 1.367 . S
C312 C320 1.378 . S
C313 C312 1.367 . S
C313 C321 1.433 . S
C314 H310 0.929 . S
C314 C316 1.378 . S
C314 C318 1.350 . S
C315 C318 1.463 . S
C315 C320 1.350 . S
C315 N323 1.427 . S
C316 H307 0.930 . S
C316 C314 1.378 . S
C316 C317 1.367 . S
C317 C316 1.367 . S
C317 C319 1.433 . S
C318 C314 1.350 . S
C318 C315 1.463 . S
C318 N322 1.427 . S
C319 H309 0.929 1_655 S
C319 C317 1.433 . S
C319 N322 1.384 . S
C320 H311 0.929 . S
C320 C312 1.378 . S
C320 C315 1.350 . S
C321 H308 0.929 . S
C321 C313 1.433 . S
C321 N323 1.384 . S
N322 C318 1.427 . S
N322 C319 1.384 . S
N323 C315 1.427 . S
N323 C321 1.384 . S
H324 C330 0.930 . S
H325 C334 0.930 . S
H326 C339 0.929 . S
H327 C337 0.929 . S
H328 C332 0.929 . S
H329 C338 0.929 . S
C330 H324 0.930 . S
C330 C331 1.367 . S
C330 C338 1.378 . S
C331 C330 1.367 . S
C331 C339 1.433 . S
C332 H328 0.929 . S
C332 C334 1.378 . S
C332 C336 1.350 . S
C333 C336 1.463 . S
C333 C338 1.350 . S
C333 N341 1.427 . S
C334 H325 0.930 . S
C334 C332 1.378 . S
C334 C335 1.367 . S
C335 C334 1.367 . S
C335 C337 1.433 . S
C336 C332 1.350 . S
C336 C333 1.463 . S
C336 N340 1.427 . S
C337 H327 0.929 . S
C337 C335 1.433 . S
C337 N340 1.384 . S
C338 H329 0.929 . S
C338 C330 1.378 . S
C338 C333 1.350 . S
C339 H326 0.929 . S
C339 C331 1.433 . S
C339 N341 1.384 . S
N340 C336 1.427 . S
N340 C337 1.384 . S
N341 C333 1.427 . S
N341 C339 1.384 . S
H342 C348 0.930 . S
H343 C352 0.930 . S
H344 C357 0.929 . S
H345 C355 0.929 1_554 S
H346 C350 0.929 . S
H347 C356 0.929 . S
C348 H342 0.930 . S
C348 C349 1.367 . S
C348 C356 1.378 . S
C349 C348 1.367 . S
C349 C357 1.433 . S
C350 H346 0.929 . S
C350 C352 1.378 . S
C350 C354 1.350 . S
C351 C354 1.463 . S
C351 C356 1.350 . S
C351 N359 1.427 . S
C352 H343 0.930 . S
C352 C350 1.378 . S
C352 C353 1.367 . S
C353 C352 1.367 . S
C353 C355 1.433 . S
C354 C350 1.350 . S
C354 C351 1.463 . S
C354 N358 1.427 . S
C355 H345 0.929 1_556 S
C355 C353 1.433 . S
C355 N358 1.384 . S
C356 H347 0.929 . S
C356 C348 1.378 . S
C356 C351 1.350 . S
C357 H344 0.929 . S
C357 C349 1.433 . S
C357 N359 1.384 . S
N358 C354 1.427 . S
N358 C355 1.384 . S
N359 C351 1.427 . S
N359 C357 1.384 . S
H360 C366 0.930 1_554 S
H361 C370 0.930 . S
H362 C375 0.929 . S
H363 C373 0.929 . S
H364 C368 0.929 . S
H365 C374 0.929 . S
C366 H360 0.930 1_556 S
C366 C367 1.367 . S
C366 C374 1.378 . S
C367 C366 1.367 . S
C367 C375 1.433 . S
C368 H364 0.929 . S
C368 C370 1.378 . S
C368 C372 1.350 . S
C369 C372 1.463 . S
C369 C374 1.350 . S
C369 N377 1.427 . S
C370 H361 0.930 . S
C370 C368 1.378 . S
C370 C371 1.367 . S
C371 C370 1.367 . S
C371 C373 1.433 . S
C372 C368 1.350 . S
C372 C369 1.463 . S
C372 N376 1.427 . S
C373 H363 0.929 . S
C373 C371 1.433 . S
C373 N376 1.384 . S
C374 H365 0.929 . S
C374 C366 1.378 . S
C374 C369 1.350 . S
C375 H362 0.929 . S
C375 C367 1.433 . S
C375 N377 1.384 . S
N376 C372 1.427 . S
N376 C373 1.384 . S
N377 C369 1.427 . S
N377 C375 1.384 . S
H378 C384 0.930 1_554 S
H379 C388 0.930 . S
H380 C393 0.929 . S
H381 C391 0.929 . S
H382 C386 0.929 . S
H383 C392 0.929 . S
C384 H378 0.930 1_556 S
C384 C385 1.367 . S
C384 C392 1.378 . S
C385 C384 1.367 . S
C385 C393 1.433 . S
C386 H382 0.929 . S
C386 C388 1.378 . S
C386 C390 1.350 . S
C387 C390 1.463 . S
C387 C392 1.350 . S
C387 N395 1.427 . S
C388 H379 0.930 . S
C388 C386 1.378 . S
C388 C389 1.367 . S
C389 C388 1.367 . S
C389 C391 1.433 . S
C390 C386 1.350 . S
C390 C387 1.463 . S
C390 N394 1.427 . S
C391 H381 0.929 . S
C391 C389 1.433 . S
C391 N394 1.384 . S
C392 H383 0.929 . S
C392 C384 1.378 . S
C392 C387 1.350 . S
C393 H380 0.929 . S
C393 C385 1.433 . S
C393 N395 1.384 . S
N394 C390 1.427 . S
N394 C391 1.384 . S
N395 C387 1.427 . S
N395 C393 1.384 . S
H396 C402 0.930 . S
H397 C406 0.930 . S
H398 C411 0.929 . S
H399 C409 0.929 . S
H400 C404 0.929 . S
H401 C410 0.929 . S
C402 H396 0.930 . S
C402 C403 1.367 . S
C402 C410 1.378 . S
C403 C402 1.367 . S
C403 C411 1.433 . S
C404 H400 0.929 . S
C404 C406 1.378 . S
C404 C408 1.350 . S
C405 C408 1.463 . S
C405 C410 1.350 . S
C405 N413 1.427 . S
C406 H397 0.930 . S
C406 C404 1.378 . S
C406 C407 1.367 . S
C407 C406 1.367 . S
C407 C409 1.433 . S
C408 C404 1.350 . S
C408 C405 1.463 . S
C408 N412 1.427 . S
C409 H399 0.929 . S
C409 C407 1.433 . S
C409 N412 1.384 . S
C410 H401 0.929 . S
C410 C402 1.378 . S
C410 C405 1.350 . S
C411 H398 0.929 . S
C411 C403 1.433 . S
C411 N413 1.384 . S
N412 C408 1.427 . S
N412 C409 1.384 . S
N413 C405 1.427 . S
N413 C411 1.384 . S
H414 C420 0.930 . S
H415 C424 0.930 . S
H416 C429 0.929 . S
H417 C427 0.929 . S
H418 C422 0.929 . S
H419 C428 0.929 . S
C420 H414 0.930 . S
C420 C421 1.367 . S
C420 C428 1.378 . S
C421 C420 1.367 . S
C421 C429 1.433 . S
C422 H418 0.929 . S
C422 C424 1.378 . S
C422 C426 1.350 . S
C423 C426 1.463 . S
C423 C428 1.350 . S
C423 N431 1.427 . S
C424 H415 0.930 . S
C424 C422 1.378 . S
C424 C425 1.367 . S
C425 C424 1.367 . S
C425 C427 1.433 . S
C426 C422 1.350 . S
C426 C423 1.463 . S
C426 N430 1.427 . S
C427 H417 0.929 . S
C427 C425 1.433 . S
C427 N430 1.384 . S
C428 H419 0.929 . S
C428 C420 1.378 . S
C428 C423 1.350 . S
C429 H416 0.929 . S
C429 C421 1.433 . S
C429 N431 1.384 . S
N430 C426 1.427 . S
N430 C427 1.384 . S
N431 C423 1.427 . S
N431 C429 1.384 . S
H432 C438 0.930 . S
H433 C442 0.930 . S
H434 C447 0.929 . S
H435 C445 0.929 . S
H436 C440 0.929 . S
H437 C446 0.929 . S
C438 H432 0.930 . S
C438 C439 1.367 . S
C438 C446 1.378 . S
C439 C438 1.367 . S
C439 C447 1.433 . S
C440 H436 0.929 . S
C440 C442 1.378 . S
C440 C444 1.350 . S
C441 C444 1.463 . S
C441 C446 1.350 . S
C441 N449 1.427 . S
C442 H433 0.930 . S
C442 C440 1.378 . S
C442 C443 1.367 . S
C443 C442 1.367 . S
C443 C445 1.433 . S
C444 C440 1.350 . S
C444 C441 1.463 . S
C444 N448 1.427 . S
C445 H435 0.929 . S
C445 C443 1.433 . S
C445 N448 1.384 . S
C446 H437 0.929 . S
C446 C438 1.378 . S
C446 C441 1.350 . S
C447 H434 0.929 . S
C447 C439 1.433 . S
C447 N449 1.384 . S
N448 C444 1.427 . S
N448 C445 1.384 . S
N449 C441 1.427 . S
N449 C447 1.384 . S
H450 C456 0.930 . S
H451 C460 0.930 . S
H452 C465 0.929 . S
H453 C463 0.929 . S
H454 C458 0.929 . S
H455 C464 0.929 . S
C456 H450 0.930 . S
C456 C457 1.367 . S
C456 C464 1.378 . S
C457 C456 1.367 . S
C457 C465 1.433 . S
C458 H454 0.929 . S
C458 C460 1.378 . S
C458 C462 1.350 . S
C459 C462 1.463 . S
C459 C464 1.350 . S
C459 N467 1.427 . S
C460 H451 0.930 . S
C460 C458 1.378 . S
C460 C461 1.367 . S
C461 C460 1.367 . S
C461 C463 1.433 . S
C462 C458 1.350 . S
C462 C459 1.463 . S
C462 N466 1.427 . S
C463 H453 0.929 . S
C463 C461 1.433 . S
C463 N466 1.384 . S
C464 H455 0.929 . S
C464 C456 1.378 . S
C464 C459 1.350 . S
C465 H452 0.929 . S
C465 C457 1.433 . S
C465 N467 1.384 . S
N466 C462 1.427 . S
N466 C463 1.384 . S
N467 C459 1.427 . S
N467 C465 1.384 . S
H468 C474 0.930 . S
H469 C478 0.930 . S
H470 C483 0.929 . S
H471 C481 0.929 . S
H472 C476 0.929 . S
H473 C482 0.929 1_565 S
C474 H468 0.930 . S
C474 C475 1.367 . S
C474 C482 1.378 . S
C475 C474 1.367 . S
C475 C483 1.433 . S
C476 H472 0.929 . S
C476 C478 1.378 1_545 S
C476 C480 1.350 1_545 S
C477 C480 1.462 1_545 S
C477 C482 1.350 . S
C477 N485 1.427 . S
C478 H469 0.930 . S
C478 C476 1.378 1_565 S
C478 C479 1.367 . S
C479 C478 1.367 . S
C479 C481 1.433 . S
C480 C476 1.350 1_565 S
C480 C477 1.462 1_565 S
C480 N484 1.428 . S
C481 H471 0.929 . S
C481 C479 1.433 . S
C481 N484 1.384 . S
C482 H473 0.929 1_545 S
C482 C474 1.378 . S
C482 C477 1.350 . S
C483 H470 0.929 . S
C483 C475 1.433 . S
C483 N485 1.384 . S
N484 C480 1.428 . S
N484 C481 1.384 . S
N485 C477 1.427 . S
N485 C483 1.384 . S
H486 C492 0.930 . S
H487 C496 0.930 . S
H488 C501 0.929 . S
H489 C499 0.929 . S
H490 C494 0.929 . S
H491 C500 0.929 . S
C492 H486 0.930 . S
C492 C493 1.367 . S
C492 C500 1.378 . S
C493 C492 1.367 . S
C493 C501 1.433 . S
C494 H490 0.929 . S
C494 C496 1.378 1_455 S
C494 C498 1.350 . S
C495 C498 1.463 . S
C495 C500 1.350 . S
C495 N503 1.427 . S
C496 H487 0.930 . S
C496 C494 1.378 1_655 S
C496 C497 1.367 . S
C497 C496 1.367 . S
C497 C499 1.433 . S
C498 C494 1.350 . S
C498 C495 1.463 . S
C498 N502 1.427 1_455 S
C499 H489 0.929 . S
C499 C497 1.433 . S
C499 N502 1.384 . S
C500 H491 0.929 . S
C500 C492 1.378 . S
C500 C495 1.350 . S
C501 H488 0.929 . S
C501 C493 1.433 . S
C501 N503 1.384 . S
N502 C498 1.427 1_655 S
N502 C499 1.384 . S
N503 C495 1.427 . S
N503 C501 1.384 . S
H504 C510 0.930 . S
H505 C514 0.930 . S
H506 C519 0.929 . S
H507 C517 0.929 . S
H508 C512 0.929 . S
H509 C518 0.929 . S
C510 H504 0.930 . S
C510 C511 1.367 . S
C510 C518 1.378 . S
C511 C510 1.367 . S
C511 C519 1.433 . S
C512 H508 0.929 . S
C512 C514 1.378 . S
C512 C516 1.350 . S
C513 C516 1.463 . S
C513 C518 1.350 . S
C513 N521 1.427 . S
C514 H505 0.930 . S
C514 C512 1.378 . S
C514 C515 1.367 . S
C515 C514 1.367 . S
C515 C517 1.433 . S
C516 C512 1.350 . S
C516 C513 1.463 . S
C516 N520 1.427 . S
C517 H507 0.929 . S
C517 C515 1.433 . S
C517 N520 1.384 . S
C518 H509 0.929 . S
C518 C510 1.378 . S
C518 C513 1.350 . S
C519 H506 0.929 . S
C519 C511 1.433 . S
C519 N521 1.384 . S
N520 C516 1.427 . S
N520 C517 1.384 . S
N521 C513 1.427 . S
N521 C519 1.384 . S
H522 C528 0.930 . S
H523 C532 0.930 . S
H524 C537 0.929 . S
H525 C535 0.929 . S
H526 C530 0.929 . S
H527 C536 0.929 . S
C528 H522 0.930 . S
C528 C529 1.367 . S
C528 C536 1.378 . S
C529 C528 1.367 . S
C529 C537 1.433 . S
C530 H526 0.929 . S
C530 C532 1.378 . S
C530 C534 1.350 . S
C531 C534 1.463 1_545 S
C531 C536 1.350 . S
C531 N539 1.427 . S
C532 H523 0.930 . S
C532 C530 1.378 . S
C532 C533 1.367 . S
C533 C532 1.367 . S
C533 C535 1.433 . S
C534 C530 1.350 . S
C534 C531 1.463 1_565 S
C534 N538 1.427 1_565 S
C535 H525 0.929 . S
C535 C533 1.433 . S
C535 N538 1.384 1_565 S
C536 H527 0.929 . S
C536 C528 1.378 . S
C536 C531 1.350 . S
C537 H524 0.929 . S
C537 C529 1.433 . S
C537 N539 1.384 . S
N538 C534 1.427 1_545 S
N538 C535 1.384 1_545 S
N539 C531 1.427 . S
N539 C537 1.384 . S
H540 C546 0.930 . S
H541 C550 0.930 . S
H542 C555 0.929 . S
H543 C553 0.929 . S
H544 C548 0.929 . S
H545 C554 0.929 . S
C546 H540 0.930 . S
C546 C547 1.367 . S
C546 C554 1.378 . S
C547 C546 1.367 . S
C547 C555 1.433 . S
C548 H544 0.929 . S
C548 C550 1.378 . S
C548 C552 1.350 1_655 S
C549 C552 1.463 . S
C549 C554 1.350 . S
C549 N557 1.427 . S
C550 H541 0.930 . S
C550 C548 1.378 . S
C550 C551 1.367 . S
C551 C550 1.367 . S
C551 C553 1.433 . S
C552 C548 1.350 1_455 S
C552 C549 1.463 . S
C552 N556 1.427 . S
C553 H543 0.929 . S
C553 C551 1.433 . S
C553 N556 1.384 1_655 S
C554 H545 0.929 . S
C554 C546 1.378 . S
C554 C549 1.350 . S
C555 H542 0.929 . S
C555 C547 1.433 . S
C555 N557 1.384 . S
N556 C552 1.427 . S
N556 C553 1.384 1_455 S
N557 C549 1.427 . S
N557 C555 1.384 . S
H558 C564 0.930 . S
H559 C568 0.930 . S
H560 C573 0.929 . S
H561 C571 0.929 . S
H562 C566 0.929 . S
H563 C572 0.929 . S
C564 H558 0.930 . S
C564 C565 1.367 . S
C564 C572 1.378 . S
C565 C564 1.367 . S
C565 C573 1.433 . S
C566 H562 0.929 . S
C566 C568 1.378 . S
C566 C570 1.350 . S
C567 C570 1.463 . S
C567 C572 1.350 . S
C567 N575 1.427 . S
C568 H559 0.930 . S
C568 C566 1.378 . S
C568 C569 1.367 . S
C569 C568 1.367 . S
C569 C571 1.433 . S
C570 C566 1.350 . S
C570 C567 1.463 . S
C570 N574 1.427 . S
C571 H561 0.929 . S
C571 C569 1.433 . S
C571 N574 1.384 . S
C572 H563 0.929 . S
C572 C564 1.378 . S
C572 C567 1.350 . S
C573 H560 0.929 . S
C573 C565 1.433 . S
C573 N575 1.384 . S
N574 C570 1.427 . S
N574 C571 1.384 . S
N575 C567 1.427 . S
N575 C573 1.384 . S
H576 C582 0.930 . S
H577 C586 0.930 . S
H578 C591 0.929 . S
H579 C589 0.929 . S
H580 C584 0.929 . S
H581 C590 0.929 . S
C582 H576 0.930 . S
C582 C583 1.367 . S
C582 C590 1.378 . S
C583 C582 1.367 . S
C583 C591 1.433 . S
C584 H580 0.929 . S
C584 C586 1.378 . S
C584 C588 1.350 . S
C585 C588 1.463 . S
C585 C590 1.350 . S
C585 N593 1.427 . S
C586 H577 0.930 . S
C586 C584 1.378 . S
C586 C587 1.367 . S
C587 C586 1.367 . S
C587 C589 1.433 . S
C588 C584 1.350 . S
C588 C585 1.463 . S
C588 N592 1.427 . S
C589 H579 0.929 . S
C589 C587 1.433 . S
C589 N592 1.384 . S
C590 H581 0.929 . S
C590 C582 1.378 . S
C590 C585 1.350 . S
C591 H578 0.929 . S
C591 C583 1.433 . S
C591 N593 1.384 . S
N592 C588 1.427 . S
N592 C589 1.384 . S
N593 C585 1.427 . S
N593 C591 1.384 . S
H594 C600 0.930 . S
H595 C604 0.930 . S
H596 C609 0.929 . S
H597 C607 0.929 . S
H598 C602 0.929 . S
H599 C608 0.929 . S
C600 H594 0.930 . S
C600 C601 1.367 . S
C600 C608 1.378 . S
C601 C600 1.367 . S
C601 C609 1.433 . S
C602 H598 0.929 . S
C602 C604 1.378 . S
C602 C606 1.350 . S
C603 C606 1.463 . S
C603 C608 1.350 . S
C603 N611 1.427 . S
C604 H595 0.930 . S
C604 C602 1.378 . S
C604 C605 1.367 . S
C605 C604 1.367 . S
C605 C607 1.433 . S
C606 C602 1.350 . S
C606 C603 1.463 . S
C606 N610 1.427 . S
C607 H597 0.929 . S
C607 C605 1.433 . S
C607 N610 1.384 . S
C608 H599 0.929 . S
C608 C600 1.378 . S
C608 C603 1.350 . S
C609 H596 0.929 . S
C609 C601 1.433 . S
C609 N611 1.384 . S
N610 C606 1.427 . S
N610 C607 1.384 . S
N611 C603 1.427 . S
N611 C609 1.384 . S
H612 C618 0.930 . S
H613 C622 0.930 . S
H614 C627 0.929 . S
H615 C625 0.929 . S
H616 C620 0.929 . S
H617 C626 0.929 . S
C618 H612 0.930 . S
C618 C619 1.367 . S
C618 C626 1.378 . S
C619 C618 1.367 . S
C619 C627 1.433 . S
C620 H616 0.929 . S
C620 C622 1.378 . S
C620 C624 1.350 . S
C621 C624 1.463 . S
C621 C626 1.350 . S
C621 N629 1.427 . S
C622 H613 0.930 . S
C622 C620 1.378 . S
C622 C623 1.367 . S
C623 C622 1.367 . S
C623 C625 1.433 . S
C624 C620 1.350 . S
C624 C621 1.463 . S
C624 N628 1.427 . S
C625 H615 0.929 . S
C625 C623 1.433 . S
C625 N628 1.384 . S
C626 H617 0.929 . S
C626 C618 1.378 . S
C626 C621 1.350 . S
C627 H614 0.929 . S
C627 C619 1.433 . S
C627 N629 1.384 . S
N628 C624 1.427 . S
N628 C625 1.384 . S
N629 C621 1.427 . S
N629 C627 1.384 . S
H630 C636 0.930 . S
H631 C640 0.930 . S
H632 C645 0.929 . S
H633 C643 0.929 . S
H634 C638 0.929 . S
H635 C644 0.929 . S
C636 H630 0.930 . S
C636 C637 1.367 . S
C636 C644 1.378 . S
C637 C636 1.367 . S
C637 C645 1.433 . S
C638 H634 0.929 . S
C638 C640 1.378 . S
C638 C642 1.350 . S
C639 C642 1.463 . S
C639 C644 1.350 . S
C639 N647 1.427 . S
C640 H631 0.930 . S
C640 C638 1.378 . S
C640 C641 1.367 . S
C641 C640 1.367 . S
C641 C643 1.433 . S
C642 C638 1.350 . S
C642 C639 1.463 . S
C642 N646 1.427 . S
C643 H633 0.929 . S
C643 C641 1.433 . S
C643 N646 1.384 . S
C644 H635 0.929 . S
C644 C636 1.378 . S
C644 C639 1.350 . S
C645 H632 0.929 . S
C645 C637 1.433 . S
C645 N647 1.384 . S
N646 C642 1.427 . S
N646 C643 1.384 . S
N647 C639 1.427 . S
N647 C645 1.384 . S
H648 C654 0.930 . S
H649 C658 0.930 . S
H650 C663 0.929 . S
H651 C661 0.929 . S
H652 C656 0.929 . S
H653 C662 0.929 . S
C654 H648 0.930 . S
C654 C655 1.367 . S
C654 C662 1.378 . S
C655 C654 1.367 . S
C655 C663 1.433 . S
C656 H652 0.929 . S
C656 C658 1.378 . S
C656 C660 1.350 . S
C657 C660 1.463 . S
C657 C662 1.350 . S
C657 N665 1.427 . S
C658 H649 0.930 . S
C658 C656 1.378 . S
C658 C659 1.367 . S
C659 C658 1.367 . S
C659 C661 1.433 . S
C660 C656 1.350 . S
C660 C657 1.463 . S
C660 N664 1.427 . S
C661 H651 0.929 . S
C661 C659 1.433 . S
C661 N664 1.384 . S
C662 H653 0.929 . S
C662 C654 1.378 . S
C662 C657 1.350 . S
C663 H650 0.929 . S
C663 C655 1.433 . S
C663 N665 1.384 . S
N664 C660 1.427 . S
N664 C661 1.384 . S
N665 C657 1.427 . S
N665 C663 1.384 . S
H666 C672 0.930 . S
H667 C676 0.930 . S
H668 C681 0.929 . S
H669 C679 0.929 . S
H670 C674 0.929 . S
H671 C680 0.929 . S
C672 H666 0.930 . S
C672 C673 1.367 . S
C672 C680 1.378 . S
C673 C672 1.367 . S
C673 C681 1.433 . S
C674 H670 0.929 . S
C674 C676 1.378 . S
C674 C678 1.350 . S
C675 C678 1.463 . S
C675 C680 1.350 . S
C675 N683 1.427 . S
C676 H667 0.930 . S
C676 C674 1.378 . S
C676 C677 1.367 . S
C677 C676 1.367 . S
C677 C679 1.433 . S
C678 C674 1.350 . S
C678 C675 1.463 . S
C678 N682 1.427 . S
C679 H669 0.929 . S
C679 C677 1.433 . S
C679 N682 1.384 . S
C680 H671 0.929 . S
C680 C672 1.378 . S
C680 C675 1.350 . S
C681 H668 0.929 . S
C681 C673 1.433 . S
C681 N683 1.384 . S
N682 C678 1.427 . S
N682 C679 1.384 . S
N683 C675 1.427 . S
N683 C681 1.384 . S
H684 C690 0.930 . S
H685 C694 0.930 . S
H686 C699 0.929 . S
H687 C697 0.929 . S
H688 C692 0.929 . S
H689 C698 0.929 . S
C690 H684 0.930 . S
C690 C691 1.367 . S
C690 C698 1.378 . S
C691 C690 1.367 . S
C691 C699 1.433 . S
C692 H688 0.929 . S
C692 C694 1.378 . S
C692 C696 1.350 . S
C693 C696 1.463 . S
C693 C698 1.350 . S
C693 N701 1.427 . S
C694 H685 0.930 . S
C694 C692 1.378 . S
C694 C695 1.367 . S
C695 C694 1.367 . S
C695 C697 1.433 . S
C696 C692 1.350 . S
C696 C693 1.463 . S
C696 N700 1.427 . S
C697 H687 0.929 . S
C697 C695 1.433 . S
C697 N700 1.384 . S
C698 H689 0.929 . S
C698 C690 1.378 . S
C698 C693 1.350 . S
C699 H686 0.929 . S
C699 C691 1.433 . S
C699 N701 1.384 . S
N700 C696 1.427 . S
N700 C697 1.384 . S
N701 C693 1.427 . S
N701 C699 1.384 . S
H702 C708 0.930 . S
H703 C712 0.930 . S
H704 C717 0.929 . S
H705 C715 0.929 . S
H706 C710 0.929 . S
H707 C716 0.929 . S
C708 H702 0.930 . S
C708 C709 1.367 . S
C708 C716 1.378 . S
C709 C708 1.367 . S
C709 C717 1.433 . S
C710 H706 0.929 . S
C710 C712 1.378 . S
C710 C714 1.350 . S
C711 C714 1.463 . S
C711 C716 1.350 . S
C711 N719 1.427 . S
C712 H703 0.930 . S
C712 C710 1.378 . S
C712 C713 1.367 . S
C713 C712 1.367 . S
C713 C715 1.433 . S
C714 C710 1.350 . S
C714 C711 1.463 . S
C714 N718 1.427 . S
C715 H705 0.929 . S
C715 C713 1.433 . S
C715 N718 1.384 . S
C716 H707 0.929 . S
C716 C708 1.378 . S
C716 C711 1.350 . S
C717 H704 0.929 . S
C717 C709 1.433 . S
C717 N719 1.384 . S
N718 C714 1.427 . S
N718 C715 1.384 . S
N719 C711 1.427 . S
N719 C717 1.384 . S
H720 C726 0.930 . S
H721 C730 0.930 . S
H722 C735 0.929 . S
H723 C733 0.929 . S
H724 C728 0.929 . S
H725 C734 0.929 . S
C726 H720 0.930 . S
C726 C727 1.367 . S
C726 C734 1.378 . S
C727 C726 1.367 . S
C727 C735 1.433 . S
C728 H724 0.929 . S
C728 C730 1.378 . S
C728 C732 1.350 . S
C729 C732 1.463 . S
C729 C734 1.350 . S
C729 N737 1.427 . S
C730 H721 0.930 . S
C730 C728 1.378 . S
C730 C731 1.367 . S
C731 C730 1.367 . S
C731 C733 1.433 . S
C732 C728 1.350 . S
C732 C729 1.463 . S
C732 N736 1.427 . S
C733 H723 0.929 . S
C733 C731 1.433 . S
C733 N736 1.384 . S
C734 H725 0.929 . S
C734 C726 1.378 . S
C734 C729 1.350 . S
C735 H722 0.929 . S
C735 C727 1.433 . S
C735 N737 1.384 . S
N736 C732 1.427 . S
N736 C733 1.384 . S
N737 C729 1.427 . S
N737 C735 1.384 . S
H738 C744 0.930 . S
H739 C748 0.930 . S
H740 C753 0.929 . S
H741 C751 0.929 . S
H742 C746 0.929 . S
H743 C752 0.929 . S
C744 H738 0.930 . S
C744 C745 1.367 . S
C744 C752 1.378 . S
C745 C744 1.367 . S
C745 C753 1.433 . S
C746 H742 0.929 . S
C746 C748 1.378 . S
C746 C750 1.350 . S
C747 C750 1.463 . S
C747 C752 1.350 . S
C747 N755 1.427 . S
C748 H739 0.930 . S
C748 C746 1.378 . S
C748 C749 1.367 . S
C749 C748 1.367 . S
C749 C751 1.433 . S
C750 C746 1.350 . S
C750 C747 1.463 . S
C750 N754 1.427 . S
C751 H741 0.929 . S
C751 C749 1.433 . S
C751 N754 1.384 . S
C752 H743 0.929 . S
C752 C744 1.378 . S
C752 C747 1.350 . S
C753 H740 0.929 . S
C753 C745 1.433 . S
C753 N755 1.384 . S
N754 C750 1.427 . S
N754 C751 1.384 . S
N755 C747 1.427 . S
N755 C753 1.384 . S
H756 C762 0.930 . S
H757 C766 0.930 . S
H758 C771 0.929 . S
H759 C769 0.929 . S
H760 C764 0.929 . S
H761 C770 0.929 . S
C762 H756 0.930 . S
C762 C763 1.367 . S
C762 C770 1.378 . S
C763 C762 1.367 . S
C763 C771 1.433 . S
C764 H760 0.929 . S
C764 C766 1.378 . S
C764 C768 1.350 . S
C765 C768 1.463 . S
C765 C770 1.350 . S
C765 N773 1.427 . S
C766 H757 0.930 . S
C766 C764 1.378 . S
C766 C767 1.367 . S
C767 C766 1.367 . S
C767 C769 1.433 . S
C768 C764 1.350 . S
C768 C765 1.463 . S
C768 N772 1.427 . S
C769 H759 0.929 . S
C769 C767 1.433 . S
C769 N772 1.384 . S
C770 H761 0.929 . S
C770 C762 1.378 . S
C770 C765 1.350 . S
C771 H758 0.929 . S
C771 C763 1.433 . S
C771 N773 1.384 . S
N772 C768 1.427 . S
N772 C769 1.384 . S
N773 C765 1.427 . S
N773 C771 1.384 . S
H774 C780 0.930 . S
H775 C784 0.930 . S
H776 C789 0.929 . S
H777 C787 0.929 . S
H778 C782 0.929 . S
H779 C788 0.929 . S
C780 H774 0.930 . S
C780 C781 1.367 . S
C780 C788 1.378 . S
C781 C780 1.367 . S
C781 C789 1.433 . S
C782 H778 0.929 . S
C782 C784 1.378 . S
C782 C786 1.350 . S
C783 C786 1.463 . S
C783 C788 1.350 . S
C783 N791 1.427 . S
C784 H775 0.930 . S
C784 C782 1.378 . S
C784 C785 1.367 . S
C785 C784 1.367 . S
C785 C787 1.433 . S
C786 C782 1.350 . S
C786 C783 1.463 . S
C786 N790 1.427 . S
C787 H777 0.929 . S
C787 C785 1.433 . S
C787 N790 1.384 . S
C788 H779 0.929 . S
C788 C780 1.378 . S
C788 C783 1.350 . S
C789 H776 0.929 . S
C789 C781 1.433 . S
C789 N791 1.384 . S
N790 C786 1.427 . S
N790 C787 1.384 . S
N791 C783 1.427 . S
N791 C789 1.384 . S
H792 C798 0.930 . S
H793 C802 0.930 . S
H794 C807 0.929 . S
H795 C805 0.929 . S
H796 C800 0.929 . S
H797 C806 0.929 . S
C798 H792 0.930 . S
C798 C799 1.367 . S
C798 C806 1.378 . S
C799 C798 1.367 . S
C799 C807 1.433 . S
C800 H796 0.929 . S
C800 C802 1.378 . S
C800 C804 1.350 1_565 S
C801 C804 1.463 . S
C801 C806 1.350 . S
C801 N809 1.427 . S
C802 H793 0.930 . S
C802 C800 1.378 . S
C802 C803 1.367 . S
C803 C802 1.367 . S
C803 C805 1.433 . S
C804 C800 1.350 1_545 S
C804 C801 1.463 . S
C804 N808 1.427 . S
C805 H795 0.929 . S
C805 C803 1.433 . S
C805 N808 1.384 1_565 S
C806 H797 0.929 . S
C806 C798 1.378 . S
C806 C801 1.350 . S
C807 H794 0.929 . S
C807 C799 1.433 . S
C807 N809 1.384 . S
N808 C804 1.427 . S
N808 C805 1.384 1_545 S
N809 C801 1.427 . S
N809 C807 1.384 . S
H810 C816 0.930 . S
H811 C820 0.930 . S
H812 C825 0.929 . S
H813 C823 0.929 . S
H814 C818 0.930 . S
H815 C824 0.929 . S
C816 H810 0.930 . S
C816 C817 1.367 . S
C816 C824 1.378 . S
C817 C816 1.367 . S
C817 C825 1.433 . S
C818 H814 0.930 . S
C818 C820 1.376 1_455 S
C818 C822 1.350 . S
C819 C822 1.463 . S
C819 C824 1.350 . S
C819 N827 1.427 . S
C820 H811 0.930 . S
C820 C818 1.376 1_655 S
C820 C821 1.367 . S
C821 C820 1.367 . S
C821 C823 1.433 . S
C822 C818 1.350 . S
C822 C819 1.463 . S
C822 N826 1.427 . S
C823 H813 0.929 . S
C823 C821 1.433 . S
C823 N826 1.384 1_655 S
C824 H815 0.929 . S
C824 C816 1.378 . S
C824 C819 1.350 . S
C825 H812 0.929 . S
C825 C817 1.433 . S
C825 N827 1.384 . S
N826 C822 1.427 . S
N826 C823 1.384 1_455 S
N827 C819 1.427 . S
N827 C825 1.384 . S
H828 C834 0.930 . S
H829 C838 0.930 . S
H830 C843 0.929 . S
H831 C841 0.929 . S
H832 C836 0.929 . S
H833 C842 0.929 . S
C834 H828 0.930 . S
C834 C835 1.367 . S
C834 C842 1.378 . S
C835 C834 1.367 . S
C835 C843 1.433 . S
C836 H832 0.929 . S
C836 C838 1.378 . S
C836 C840 1.350 . S
C837 C840 1.463 1_556 S
C837 C842 1.350 . S
C837 N845 1.427 . S
C838 H829 0.930 . S
C838 C836 1.378 . S
C838 C839 1.367 . S
C839 C838 1.367 . S
C839 C841 1.433 . S
C840 C836 1.350 . S
C840 C837 1.463 1_554 S
C840 N844 1.427 . S
C841 H831 0.929 . S
C841 C839 1.433 . S
C841 N844 1.384 . S
C842 H833 0.929 . S
C842 C834 1.378 . S
C842 C837 1.350 . S
C843 H830 0.929 . S
C843 C835 1.433 . S
C843 N845 1.384 . S
N844 C840 1.427 . S
N844 C841 1.384 . S
N845 C837 1.427 . S
N845 C843 1.384 . S
H846 C852 0.930 . S
H847 C856 0.930 . S
H848 C861 0.929 . S
H849 C859 0.929 . S
H850 C854 0.929 1_556 S
H851 C860 0.929 1_554 S
C852 H846 0.930 . S
C852 C853 1.367 . S
C852 C860 1.378 . S
C853 C852 1.367 . S
C853 C861 1.433 1_565 S
C854 H850 0.929 1_554 S
C854 C856 1.378 . S
C854 C858 1.350 . S
C855 C858 1.499 1_556 S
C855 C860 1.311 1_545 S
C855 N863 1.434 . S
C856 H847 0.930 . S
C856 C854 1.378 . S
C856 C857 1.367 . S
C857 C856 1.367 . S
C857 C859 1.433 . S
C858 C854 1.350 . S
C858 C855 1.499 1_554 S
C858 N862 1.427 . S
C859 H849 0.929 . S
C859 C857 1.433 . S
C859 N862 1.384 . S
C860 H851 0.929 1_556 S
C860 C852 1.378 . S
C860 C855 1.311 1_565 S
C861 H848 0.929 . S
C861 C853 1.433 1_545 S
C861 N863 1.384 . S
N862 C858 1.427 . S
N862 C859 1.384 . S
N863 C855 1.434 . S
N863 C861 1.384 . S
H864 C870 0.930 . S
H865 C874 0.930 . S
H866 C879 0.929 1_554 S
H867 C877 0.929 1_556 S
H868 C872 0.929 . S
H869 C878 0.929 . S
C870 H864 0.930 . S
C870 C871 1.367 . S
C870 C878 1.378 . S
C871 C870 1.367 . S
C871 C879 1.433 . S
C872 H868 0.929 . S
C872 C874 1.378 1_455 S
C872 C876 1.350 . S
C873 C876 1.463 1_556 S
C873 C878 1.350 . S
C873 N881 1.427 1_556 S
C874 H865 0.930 . S
C874 C872 1.378 1_655 S
C874 C875 1.367 . S
C875 C874 1.367 . S
C875 C877 1.433 . S
C876 C872 1.350 . S
C876 C873 1.463 1_554 S
C876 N880 1.427 1_454 S
C877 H867 0.929 1_554 S
C877 C875 1.433 . S
C877 N880 1.384 1_554 S
C878 H869 0.929 . S
C878 C870 1.378 . S
C878 C873 1.350 . S
C879 H866 0.929 1_556 S
C879 C871 1.433 . S
C879 N881 1.384 1_556 S
N880 C876 1.427 1_656 S
N880 C877 1.384 1_556 S
N881 C873 1.427 1_554 S
N881 C879 1.384 1_554 S
C241 C1 1.967 . S
C245 C183 1.975 1_554 S
C259 C159 1.842 1_554 S
C263 C16 1.846 . S
C277 C29 1.899 . S
C281 C170 1.923 1_554 S
C295 C79 1.972 . S
C299 C27 1.965 . S
C313 C101 2.030 . S
C317 C3 1.904 . S
C331 C105 1.970 . S
C335 C14 1.977 . S
C349 C49 1.978 . S
C353 C144 2.081 1_556 S
C367 C118 2.037 1_556 S
C371 C57 1.908 . S
C385 C140 1.922 1_556 S
C389 C68 2.046 . S
C403 C66 2.076 . S
C407 C205 1.968 . S
C421 C44 1.846 . S
C425 C213 1.839 . S
C439 C224 2.038 . S
C443 C62 1.912 . S
C457 C157 1.906 . S
C461 C107 1.875 . S
C475 C81 1.836 . S
C479 C172 1.839 . S
C493 C185 1.839 . S
C497 C96 1.976 . S
C511 C222 2.003 . S
C515 C120 2.014 . S
C529 C135 1.842 . S
C533 C200 1.846 . S
C547 C218 1.908 . S
C551 C146 2.021 . S
C565 C196 1.670 . S
C569 C10 1.670 . S
C583 C18 1.589 . S
C587 C211 1.589 . S
C601 C31 1.582 . S
C605 C226 1.594 . S
C619 C36 1.649 . S
C623 C153 1.662 . S
C637 C127 1.648 . S
C641 C5 1.632 . S
C655 C23 1.648 . S
C659 C131 1.649 . S
C673 C88 1.649 . S
C677 C40 1.649 . S
C691 C92 1.649 . S
C695 C55 1.629 . S
C709 C70 1.646 . S
C713 C114 1.636 . S
C727 C75 1.680 . S
C731 C192 1.666 . S
C745 C42 1.587 . S
C749 C161 1.588 . S
C763 C53 1.674 . S
C767 C179 1.674 . S
C781 C109 1.618 . S
C785 C231 1.633 . S
C799 C83 1.605 . S
C803 C198 1.604 . S
C817 C209 1.628 . S
C821 C94 1.634 . S
C835 C166 1.622 . S
C839 C122 1.633 . S
C853 C174 1.607 . S
C857 C133 1.608 . S
C871 C187 1.602 . S
C875 C148 1.618 . S
