# Generated by pormake.
# Topology wln, (5)-cn, num edge types: 1
# Building blocks:
#     Node 0, Type 0, BuildingBlock: BEQFEK_clean_sbu_0, # of connection points: 5
#     Node 1, Type 0, BuildingBlock: BEQFEK_clean_sbu_0, # of connection points: 5
#     Node 2, Type 0, BuildingBlock: BEQFEK_clean_sbu_0, # of connection points: 5
#     Node 3, Type 0, BuildingBlock: BEQFEK_clean_sbu_0, # of connection points: 5
#     Node 4, Type 0, BuildingBlock: BEQFEK_clean_sbu_0, # of connection points: 5
#     Node 5, Type 0, BuildingBlock: BEQFEK_clean_sbu_0, # of connection points: 5
#     Node 6, Type 0, BuildingBlock: BEQFEK_clean_sbu_0, # of connection points: 5
#     Node 7, Type 0, BuildingBlock: BEQFEK_clean_sbu_0, # of connection points: 5
#     Node 8, Type 0, BuildingBlock: BEQFEK_clean_sbu_0, # of connection points: 5
#     Node 9, Type 0, BuildingBlock: BEQFEK_clean_sbu_0, # of connection points: 5
#     Node 10, Type 0, BuildingBlock: BEQFEK_clean_sbu_0, # of connection points: 5
#     Node 11, Type 0, BuildingBlock: BEQFEK_clean_sbu_0, # of connection points: 5
#     Node 12, Type 0, BuildingBlock: BEQFEK_clean_sbu_0, # of connection points: 5
#     Node 13, Type 0, BuildingBlock: BEQFEK_clean_sbu_0, # of connection points: 5
#     Node 14, Type 0, BuildingBlock: BEQFEK_clean_sbu_0, # of connection points: 5
#     Node 15, Type 0, BuildingBlock: BEQFEK_clean_sbu_0, # of connection points: 5
#     Node 16, Type 0, BuildingBlock: BEQFEK_clean_sbu_0, # of connection points: 5
#     Node 17, Type 0, BuildingBlock: BEQFEK_clean_sbu_0, # of connection points: 5
#     Node 18, Type 0, BuildingBlock: BEQFEK_clean_sbu_0, # of connection points: 5
#     Node 19, Type 0, BuildingBlock: BEQFEK_clean_sbu_0, # of connection points: 5
#     Node 20, Type 0, BuildingBlock: BEQFEK_clean_sbu_0, # of connection points: 5
#     Node 21, Type 0, BuildingBlock: BEQFEK_clean_sbu_0, # of connection points: 5
#     Node 22, Type 0, BuildingBlock: BEQFEK_clean_sbu_0, # of connection points: 5
#     Node 23, Type 0, BuildingBlock: BEQFEK_clean_sbu_0, # of connection points: 5
#     Node 24, Type 0, BuildingBlock: BEQFEK_clean_sbu_0, # of connection points: 5
#     Node 25, Type 0, BuildingBlock: BEQFEK_clean_sbu_0, # of connection points: 5
#     Node 26, Type 0, BuildingBlock: BEQFEK_clean_sbu_0, # of connection points: 5
#     Node 27, Type 0, BuildingBlock: BEQFEK_clean_sbu_0, # of connection points: 5
#     Node 28, Type 0, BuildingBlock: BEQFEK_clean_sbu_0, # of connection points: 5
#     Node 29, Type 0, BuildingBlock: BEQFEK_clean_sbu_0, # of connection points: 5
#     Node 30, Type 0, BuildingBlock: BEQFEK_clean_sbu_0, # of connection points: 5
#     Node 31, Type 0, BuildingBlock: BEQFEK_clean_sbu_0, # of connection points: 5
#     Node 32, Type 0, BuildingBlock: BEQFEK_clean_sbu_0, # of connection points: 5
#     Node 33, Type 0, BuildingBlock: BEQFEK_clean_sbu_0, # of connection points: 5
#     Node 34, Type 0, BuildingBlock: BEQFEK_clean_sbu_0, # of connection points: 5
#     Node 35, Type 0, BuildingBlock: BEQFEK_clean_sbu_0, # of connection points: 5
#     Edge 36, Type (0, 0), BuildingBlock: XIVTED_clean_linker_0, # of connection points: 2
#     Edge 37, Type (0, 0), BuildingBlock: XIVTED_clean_linker_0, # of connection points: 2
#     Edge 38, Type (0, 0), BuildingBlock: XIVTED_clean_linker_0, # of connection points: 2
#     Edge 39, Type (0, 0), BuildingBlock: XIVTED_clean_linker_0, # of connection points: 2
#     Edge 40, Type (0, 0), BuildingBlock: XIVTED_clean_linker_0, # of connection points: 2
#     Edge 41, Type (0, 0), BuildingBlock: XIVTED_clean_linker_0, # of connection points: 2
#     Edge 42, Type (0, 0), BuildingBlock: XIVTED_clean_linker_0, # of connection points: 2
#     Edge 43, Type (0, 0), BuildingBlock: XIVTED_clean_linker_0, # of connection points: 2
#     Edge 44, Type (0, 0), BuildingBlock: XIVTED_clean_linker_0, # of connection points: 2
#     Edge 45, Type (0, 0), BuildingBlock: XIVTED_clean_linker_0, # of connection points: 2
#     Edge 46, Type (0, 0), BuildingBlock: XIVTED_clean_linker_0, # of connection points: 2
#     Edge 47, Type (0, 0), BuildingBlock: XIVTED_clean_linker_0, # of connection points: 2
#     Edge 48, Type (0, 0), BuildingBlock: XIVTED_clean_linker_0, # of connection points: 2
#     Edge 49, Type (0, 0), BuildingBlock: XIVTED_clean_linker_0, # of connection points: 2
#     Edge 50, Type (0, 0), BuildingBlock: XIVTED_clean_linker_0, # of connection points: 2
#     Edge 51, Type (0, 0), BuildingBlock: XIVTED_clean_linker_0, # of connection points: 2
#     Edge 52, Type (0, 0), BuildingBlock: XIVTED_clean_linker_0, # of connection points: 2
#     Edge 53, Type (0, 0), BuildingBlock: XIVTED_clean_linker_0, # of connection points: 2
#     Edge 54, Type (0, 0), BuildingBlock: XIVTED_clean_linker_0, # of connection points: 2
#     Edge 55, Type (0, 0), BuildingBlock: XIVTED_clean_linker_0, # of connection points: 2
#     Edge 56, Type (0, 0), BuildingBlock: XIVTED_clean_linker_0, # of connection points: 2
#     Edge 57, Type (0, 0), BuildingBlock: XIVTED_clean_linker_0, # of connection points: 2
#     Edge 58, Type (0, 0), BuildingBlock: XIVTED_clean_linker_0, # of connection points: 2
#     Edge 59, Type (0, 0), BuildingBlock: XIVTED_clean_linker_0, # of connection points: 2
#     Edge 60, Type (0, 0), BuildingBlock: XIVTED_clean_linker_0, # of connection points: 2
#     Edge 61, Type (0, 0), BuildingBlock: XIVTED_clean_linker_0, # of connection points: 2
#     Edge 62, Type (0, 0), BuildingBlock: XIVTED_clean_linker_0, # of connection points: 2
#     Edge 63, Type (0, 0), BuildingBlock: XIVTED_clean_linker_0, # of connection points: 2
#     Edge 64, Type (0, 0), BuildingBlock: XIVTED_clean_linker_0, # of connection points: 2
#     Edge 65, Type (0, 0), BuildingBlock: XIVTED_clean_linker_0, # of connection points: 2
#     Edge 66, Type (0, 0), BuildingBlock: XIVTED_clean_linker_0, # of connection points: 2
#     Edge 67, Type (0, 0), BuildingBlock: XIVTED_clean_linker_0, # of connection points: 2
#     Edge 68, Type (0, 0), BuildingBlock: XIVTED_clean_linker_0, # of connection points: 2
#     Edge 69, Type (0, 0), BuildingBlock: XIVTED_clean_linker_0, # of connection points: 2
#     Edge 70, Type (0, 0), BuildingBlock: XIVTED_clean_linker_0, # of connection points: 2
#     Edge 71, Type (0, 0), BuildingBlock: XIVTED_clean_linker_0, # of connection points: 2
#     Edge 72, Type (0, 0), BuildingBlock: XIVTED_clean_linker_0, # of connection points: 2
#     Edge 73, Type (0, 0), BuildingBlock: XIVTED_clean_linker_0, # of connection points: 2
#     Edge 74, Type (0, 0), BuildingBlock: XIVTED_clean_linker_0, # of connection points: 2
#     Edge 75, Type (0, 0), BuildingBlock: XIVTED_clean_linker_0, # of connection points: 2
#     Edge 76, Type (0, 0), BuildingBlock: XIVTED_clean_linker_0, # of connection points: 2
#     Edge 77, Type (0, 0), BuildingBlock: XIVTED_clean_linker_0, # of connection points: 2
#     Edge 78, Type (0, 0), BuildingBlock: XIVTED_clean_linker_0, # of connection points: 2
#     Edge 79, Type (0, 0), BuildingBlock: XIVTED_clean_linker_0, # of connection points: 2
#     Edge 80, Type (0, 0), BuildingBlock: XIVTED_clean_linker_0, # of connection points: 2
#     Edge 81, Type (0, 0), BuildingBlock: XIVTED_clean_linker_0, # of connection points: 2
#     Edge 82, Type (0, 0), BuildingBlock: XIVTED_clean_linker_0, # of connection points: 2
#     Edge 83, Type (0, 0), BuildingBlock: XIVTED_clean_linker_0, # of connection points: 2
#     Edge 84, Type (0, 0), BuildingBlock: XIVTED_clean_linker_0, # of connection points: 2
#     Edge 85, Type (0, 0), BuildingBlock: XIVTED_clean_linker_0, # of connection points: 2
#     Edge 86, Type (0, 0), BuildingBlock: XIVTED_clean_linker_0, # of connection points: 2
#     Edge 87, Type (0, 0), BuildingBlock: XIVTED_clean_linker_0, # of connection points: 2
#     Edge 88, Type (0, 0), BuildingBlock: XIVTED_clean_linker_0, # of connection points: 2
#     Edge 89, Type (0, 0), BuildingBlock: XIVTED_clean_linker_0, # of connection points: 2
#     Edge 90, Type (0, 0), BuildingBlock: XIVTED_clean_linker_0, # of connection points: 2
#     Edge 91, Type (0, 0), BuildingBlock: XIVTED_clean_linker_0, # of connection points: 2
#     Edge 92, Type (0, 0), BuildingBlock: XIVTED_clean_linker_0, # of connection points: 2
#     Edge 93, Type (0, 0), BuildingBlock: XIVTED_clean_linker_0, # of connection points: 2
#     Edge 94, Type (0, 0), BuildingBlock: XIVTED_clean_linker_0, # of connection points: 2
#     Edge 95, Type (0, 0), BuildingBlock: XIVTED_clean_linker_0, # of connection points: 2
#     Edge 96, Type (0, 0), BuildingBlock: XIVTED_clean_linker_0, # of connection points: 2
#     Edge 97, Type (0, 0), BuildingBlock: XIVTED_clean_linker_0, # of connection points: 2
#     Edge 98, Type (0, 0), BuildingBlock: XIVTED_clean_linker_0, # of connection points: 2
#     Edge 99, Type (0, 0), BuildingBlock: XIVTED_clean_linker_0, # of connection points: 2
#     Edge 100, Type (0, 0), BuildingBlock: XIVTED_clean_linker_0, # of connection points: 2
#     Edge 101, Type (0, 0), BuildingBlock: XIVTED_clean_linker_0, # of connection points: 2
#     Edge 102, Type (0, 0), BuildingBlock: XIVTED_clean_linker_0, # of connection points: 2
#     Edge 103, Type (0, 0), BuildingBlock: XIVTED_clean_linker_0, # of connection points: 2
#     Edge 104, Type (0, 0), BuildingBlock: XIVTED_clean_linker_0, # of connection points: 2
#     Edge 105, Type (0, 0), BuildingBlock: XIVTED_clean_linker_0, # of connection points: 2
#     Edge 106, Type (0, 0), BuildingBlock: XIVTED_clean_linker_0, # of connection points: 2
#     Edge 107, Type (0, 0), BuildingBlock: XIVTED_clean_linker_0, # of connection points: 2
#     Edge 108, Type (0, 0), BuildingBlock: XIVTED_clean_linker_0, # of connection points: 2
#     Edge 109, Type (0, 0), BuildingBlock: XIVTED_clean_linker_0, # of connection points: 2
#     Edge 110, Type (0, 0), BuildingBlock: XIVTED_clean_linker_0, # of connection points: 2
#     Edge 111, Type (0, 0), BuildingBlock: XIVTED_clean_linker_0, # of connection points: 2
#     Edge 112, Type (0, 0), BuildingBlock: XIVTED_clean_linker_0, # of connection points: 2
#     Edge 113, Type (0, 0), BuildingBlock: XIVTED_clean_linker_0, # of connection points: 2
#     Edge 114, Type (0, 0), BuildingBlock: XIVTED_clean_linker_0, # of connection points: 2
#     Edge 115, Type (0, 0), BuildingBlock: XIVTED_clean_linker_0, # of connection points: 2
#     Edge 116, Type (0, 0), BuildingBlock: XIVTED_clean_linker_0, # of connection points: 2
#     Edge 117, Type (0, 0), BuildingBlock: XIVTED_clean_linker_0, # of connection points: 2
#     Edge 118, Type (0, 0), BuildingBlock: XIVTED_clean_linker_0, # of connection points: 2
#     Edge 119, Type (0, 0), BuildingBlock: XIVTED_clean_linker_0, # of connection points: 2
#     Edge 120, Type (0, 0), BuildingBlock: XIVTED_clean_linker_0, # of connection points: 2
#     Edge 121, Type (0, 0), BuildingBlock: XIVTED_clean_linker_0, # of connection points: 2
#     Edge 122, Type (0, 0), BuildingBlock: XIVTED_clean_linker_0, # of connection points: 2
#     Edge 123, Type (0, 0), BuildingBlock: XIVTED_clean_linker_0, # of connection points: 2
#     Edge 124, Type (0, 0), BuildingBlock: XIVTED_clean_linker_0, # of connection points: 2
#     Edge 125, Type (0, 0), BuildingBlock: XIVTED_clean_linker_0, # of connection points: 2
# Relax obj value: 0.208
# Max RMSD: 0.183
# Mean RMSD: 0.183
data_MOF--net-wln--node1-BEQFEK_clean_sbu_0--edge1-XIVTED_clean_linker_0
_symmetry_space_group_name_H-M    P1
_symmetry_Int_Tables_number       1
_symmetry_cell_setting            triclinic
loop_
_symmetry_equiv_pos_as_xyz
'x, y, z'
_cell_length_a     125.0812
_cell_length_b     125.11341
_cell_length_c     18.656834
_cell_angle_alpha  89.966509
_cell_angle_beta   89.990936
_cell_angle_gamma 119.98177
loop_
_atom_site_label
_atom_site_type_symbol
_atom_site_fract_x
_atom_site_fract_y
_atom_site_fract_z
_atom_type_partial_charge
Co0 Co 0.13826 0.39944 0.93986 0.0
Co1 Co 0.1329 0.38659 0.08885 0.0
C2 C 0.15851 0.40016 0.02528 0.0
O3 O 0.15503 0.40361 0.97034 0.0
O4 O 0.15083 0.39343 0.07308 0.0
C5 C 0.14855 0.41121 0.80672 0.0
O6 O 0.15886 0.41263 0.8341 0.0
C7 C 0.13698 0.38826 0.2409 0.0
C8 C 0.12022 0.37206 0.28352 0.0
C9 C 0.13104 0.38255 0.30397 0.0
N10 N 0.12996 0.38153 0.18582 0.0
N11 N 0.12008 0.37171 0.21133 0.0
C12 C 0.14815 0.4008 0.23241 0.0
H13 H 0.14795 0.4049 0.18008 0.0
H14 H 0.14869 0.40707 0.27602 0.0
H15 H 0.15655 0.39993 0.23452 0.0
C16 C 0.12627 0.41213 0.00773 0.0
N17 N 0.13047 0.40411 0.00934 0.0
N18 N 0.12802 0.39862 0.07221 0.0
C19 C 0.12209 0.40295 0.1128 0.0
C20 C 0.1208 0.41167 0.07328 0.0
C21 C 0.12693 0.4195 0.94296 0.0
H22 H 0.12301 0.41324 0.89623 0.0
H23 H 0.13675 0.42616 0.93074 0.0
H24 H 0.12181 0.42452 0.95068 0.0
O25 O 0.1283 0.3815 0.92089 0.0
O26 O 0.12358 0.37203 0.02626 0.0
H27 H 0.11289 0.38903 0.19305 0.0
H28 H 0.11274 0.40312 0.21123 0.0
C29 C 0.11827 0.39923 0.18906 0.0
H30 H 0.12661 0.40266 0.22277 0.0
H31 H 0.11296 0.36514 0.1796 0.0
O32 O 0.13899 0.40695 0.84597 0.0
C33 C 0.12293 0.37167 0.95811 0.0
Co34 Co 0.59691 0.73813 0.93957 0.0
Co35 Co 0.60963 0.74558 0.08878 0.0
C36 C 0.5963 0.7578 0.02419 0.0
O37 O 0.59288 0.75089 0.96918 0.0
O38 O 0.6029 0.75674 0.07238 0.0
C39 C 0.58484 0.73636 0.80685 0.0
O40 O 0.58314 0.74506 0.83435 0.0
C41 C 0.60778 0.7479 0.24072 0.0
C42 C 0.624 0.74746 0.28384 0.0
C43 C 0.61344 0.74768 0.30398 0.0
N44 N 0.6146 0.74771 0.18586 0.0
N45 N 0.62444 0.74771 0.21167 0.0
C46 C 0.5952 0.74643 0.23181 0.0
H47 H 0.59122 0.74224 0.17912 0.0
H48 H 0.58887 0.74057 0.27495 0.0
H49 H 0.59597 0.75565 0.23451 0.0
C50 C 0.58408 0.71346 0.00785 0.0
N51 N 0.59207 0.72568 0.00947 0.0
N52 N 0.59755 0.72872 0.07231 0.0
C53 C 0.59328 0.71844 0.11279 0.0
C54 C 0.58459 0.70844 0.07331 0.0
C55 C 0.57679 0.70674 0.94297 0.0
H56 H 0.58315 0.70887 0.89685 0.0
H57 H 0.57032 0.71007 0.92932 0.0
H58 H 0.57155 0.69661 0.95133 0.0
O59 O 0.61487 0.74592 0.9209 0.0
O60 O 0.62421 0.75065 0.02661 0.0
H61 H 0.60734 0.7232 0.1921 0.0
H62 H 0.59335 0.70888 0.21044 0.0
C63 C 0.59713 0.71831 0.18869 0.0
H64 H 0.59367 0.72312 0.22311 0.0
H65 H 0.63109 0.74725 0.18015 0.0
O66 O 0.5894 0.73131 0.84581 0.0
C67 C 0.62465 0.75031 0.95851 0.0
Co68 Co 0.25836 0.8568 0.94295 0.0
Co69 Co 0.25057 0.86134 0.09234 0.0
C70 C 0.23779 0.83634 0.01849 0.0
O71 O 0.24502 0.83988 0.96476 0.0
O72 O 0.23898 0.84381 0.0683 0.0
C73 C 0.26353 0.84842 0.81001 0.0
O74 O 0.25663 0.83711 0.8341 0.0
C75 C 0.24898 0.85697 0.24486 0.0
C76 C 0.24964 0.87372 0.28818 0.0
C77 C 0.25014 0.86329 0.30808 0.0
N78 N 0.2484 0.86365 0.19025 0.0
N79 N 0.24848 0.8735 0.21642 0.0
C80 C 0.24861 0.84489 0.23542 0.0
H81 H 0.24224 0.83955 0.19159 0.0
H82 H 0.25793 0.8466 0.22083 0.0
H83 H 0.24541 0.83925 0.28498 0.0
C84 C 0.28249 0.86679 0.01498 0.0
N85 N 0.27038 0.86315 0.01522 0.0
N86 N 0.26729 0.86546 0.07827 0.0
C87 C 0.27744 0.87076 0.12019 0.0
C88 C 0.28731 0.87162 0.08171 0.0
C89 C 0.28929 0.86587 0.9515 0.0
H90 H 0.28997 0.87255 0.91003 0.0
H91 H 0.28403 0.85648 0.92816 0.0
H92 H 0.29871 0.86787 0.96623 0.0
O93 O 0.25117 0.86759 0.92744 0.0
O94 O 0.24641 0.87193 0.03369 0.0
H95 H 0.27238 0.8806 0.19427 0.0
H96 H 0.28775 0.88312 0.20696 0.0
C97 C 0.27812 0.87615 0.19283 0.0
H98 H 0.2747 0.86871 0.23354 0.0
H99 H 0.2485 0.88042 0.18507 0.0
O100 O 0.26595 0.85746 0.85061 0.0
C101 C 0.24699 0.87308 0.96581 0.0
Co102 Co 0.3999 0.1399 0.06268 0.0
Co103 Co 0.38757 0.13424 0.91249 0.0
C104 C 0.39962 0.15971 0.97827 0.0
O105 O 0.40308 0.15643 0.03403 0.0
O106 O 0.39349 0.15199 0.92926 0.0
C107 C 0.41253 0.15045 0.19431 0.0
O108 O 0.41451 0.16093 0.16651 0.0
C109 C 0.39048 0.13842 0.76124 0.0
C110 C 0.3742 0.12218 0.7152 0.0
C111 C 0.3851 0.13278 0.69706 0.0
N112 N 0.38315 0.13148 0.81478 0.0
N113 N 0.37331 0.12188 0.78724 0.0
C114 C 0.4031 0.14932 0.77253 0.0
H115 H 0.40657 0.1491 0.82689 0.0
H116 H 0.40967 0.14951 0.73187 0.0
H117 H 0.40263 0.15791 0.76729 0.0
C118 C 0.41434 0.12978 -0.00485 0.0
N119 N 0.40566 0.13313 0.9932 0.0
N120 N 0.40024 0.13036 0.93015 0.0
C121 C 0.40525 0.12501 0.89004 0.0
C122 C 0.41443 0.12462 0.92959 0.0
C123 C 0.42236 0.13155 0.05867 0.0
H124 H 0.42596 0.14098 0.08056 0.0
H125 H 0.43018 0.13014 0.0445 0.0
H126 H 0.41672 0.12487 0.10108 0.0
O127 O 0.38196 0.1289 0.07937 0.0
O128 O 0.37291 0.12411 0.97281 0.0
H129 H 0.4032 0.11219 0.80612 0.0
H130 H 0.40477 0.12656 0.77613 0.0
C131 C 0.40062 0.11931 0.81794 0.0
H132 H 0.39045 0.11496 0.81567 0.0
H133 H 0.36631 0.11486 0.81757 0.0
O134 O 0.40739 0.14073 0.15645 0.0
C135 C 0.37232 0.1232 0.04085 0.0
Co136 Co 0.85563 0.25869 0.05405 0.0
Co137 Co 0.86101 0.25158 0.90419 0.0
C138 C 0.83556 0.23869 0.97049 0.0
O139 O 0.83896 0.24554 0.02578 0.0
O140 O 0.84323 0.24004 0.92159 0.0
C141 C 0.84532 0.26097 0.186 0.0
O142 O 0.83479 0.25252 0.15847 0.0
C143 C 0.85682 0.2501 0.75282 0.0
C144 C 0.87301 0.24987 0.70734 0.0
C145 C 0.86247 0.25027 0.6888 0.0
N146 N 0.8637 0.2497 0.80663 0.0
N147 N 0.87326 0.24932 0.77941 0.0
C148 C 0.846 0.25199 0.76368 0.0
H149 H 0.84626 0.25576 0.81782 0.0
H150 H 0.8459 0.25836 0.72265 0.0
H151 H 0.83736 0.24297 0.75872 0.0
C152 C 0.86632 0.28322 0.98527 0.0
N153 N 0.86265 0.27112 0.98393 0.0
N154 N 0.86521 0.26825 0.92086 0.0
C155 C 0.87068 0.27852 0.88007 0.0
C156 C 0.8714 0.28826 0.91923 0.0
C157 C 0.86505 0.28978 0.04886 0.0
H158 H 0.85547 0.28455 0.0697 0.0
H159 H 0.86736 0.29933 0.03519 0.0
H160 H 0.87132 0.29007 0.09192 0.0
O161 O 0.8663 0.2514 0.07127 0.0
O162 O 0.87096 0.24688 0.96505 0.0
H163 H 0.88311 0.28901 0.79389 0.0
H164 H 0.86865 0.27609 0.76654 0.0
C165 C 0.87608 0.27936 0.80725 0.0
H166 H 0.88044 0.27354 0.80489 0.0
H167 H 0.88024 0.24931 0.80998 0.0
O168 O 0.855 0.26554 0.14765 0.0
C169 C 0.87186 0.24725 0.0331 0.0
Co170 Co 0.73666 0.59608 0.06238 0.0
Co171 Co 0.74482 0.60836 0.91222 0.0
C172 C 0.75646 0.59486 0.97988 0.0
O173 O 0.74954 0.59199 0.03491 0.0
O174 O 0.75566 0.60123 0.9291 0.0
C175 C 0.734 0.58418 0.19716 0.0
O176 O 0.74267 0.58206 0.17373 0.0
C177 C 0.74999 0.61028 0.75935 0.0
C178 C 0.74119 0.62081 0.72244 0.0
C179 C 0.74624 0.61381 0.69822 0.0
N180 N 0.74663 0.61434 0.8168 0.0
N181 N 0.74181 0.62104 0.79447 0.0
C182 C 0.75669 0.6032 0.76405 0.0
H183 H 0.76448 0.608 0.80194 0.0
H184 H 0.75038 0.5938 0.78512 0.0
H185 H 0.76049 0.60263 0.7114 0.0
C186 C 0.7122 0.58349 0.99194 0.0
N187 N 0.72447 0.59136 0.99131 0.0
N188 N 0.72794 0.59599 0.92662 0.0
C189 C 0.718 0.59078 0.88311 0.0
C190 C 0.70767 0.58288 0.9232 0.0
C191 C 0.705 0.57732 0.05821 0.0
H192 H 0.70824 0.58401 0.10315 0.0
H193 H 0.70664 0.56966 0.07301 0.0
H194 H 0.69497 0.57363 0.05048 0.0
O195 O 0.74442 0.61383 0.08228 0.0
O196 O 0.74984 0.62283 0.97601 0.0
H197 H 0.71893 0.60113 0.78982 0.0
H198 H 0.71027 0.58467 0.77713 0.0
C199 C 0.7185 0.5923 0.80339 0.0
H200 H 0.72675 0.59232 0.78204 0.0
H201 H 0.73802 0.62491 0.82839 0.0
O202 O 0.72932 0.58863 0.15464 0.0
C203 C 0.74918 0.62349 0.04378 0.0
Co204 Co 0.85637 0.59622 0.06224 0.0
Co205 Co 0.86089 0.6084 0.9116 0.0
C206 C 0.83559 0.59485 0.97893 0.0
O207 O 0.83943 0.59192 0.03452 0.0
O208 O 0.84297 0.60122 0.92903 0.0
C209 C 0.84634 0.58329 0.19397 0.0
O210 O 0.83563 0.58038 0.16545 0.0
C211 C 0.85681 0.60628 0.75923 0.0
C212 C 0.87325 0.62283 0.71674 0.0
C213 C 0.86275 0.61203 0.69619 0.0
N214 N 0.86356 0.61328 0.81433 0.0
N215 N 0.87323 0.6233 0.78884 0.0
C216 C 0.84596 0.59354 0.76789 0.0
H217 H 0.84606 0.58976 0.8215 0.0
H218 H 0.84597 0.58726 0.72602 0.0
H219 H 0.83733 0.59395 0.76261 0.0
C220 C 0.86848 0.58364 0.99409 0.0
N221 N 0.86396 0.59139 0.99204 0.0
N222 N 0.86617 0.59671 0.92872 0.0
C223 C 0.87231 0.59258 0.88841 0.0
C224 C 0.87396 0.58414 0.92846 0.0
C225 C 0.86825 0.5766 0.05951 0.0
H226 H 0.87259 0.58312 0.10476 0.0
H227 H 0.85852 0.5701 0.07456 0.0
H228 H 0.87321 0.57143 0.05106 0.0
O229 O 0.86634 0.61423 0.07927 0.0
O230 O 0.87019 0.62318 0.97247 0.0
H231 H 0.88109 0.60654 0.80787 0.0
H232 H 0.88213 0.5929 0.79104 0.0
C233 C 0.87616 0.59635 0.81223 0.0
H234 H 0.86785 0.59247 0.77793 0.0
H235 H 0.88014 0.63011 0.82062 0.0
O236 O 0.85605 0.58894 0.1562 0.0
C237 C 0.8713 0.62388 0.04039 0.0
Co238 Co 0.40073 0.25984 0.06159 0.0
Co239 Co 0.38797 0.25262 0.91224 0.0
C240 C 0.40036 0.23956 0.97851 0.0
O241 O 0.40395 0.2465 0.03342 0.0
O242 O 0.39405 0.24093 0.92962 0.0
C243 C 0.41312 0.26185 0.19389 0.0
O244 O 0.41505 0.25331 0.16624 0.0
C245 C 0.39029 0.25104 0.7602 0.0
C246 C 0.37383 0.25099 0.71685 0.0
C247 C 0.38468 0.25132 0.69687 0.0
N248 N 0.38317 0.25066 0.81493 0.0
N249 N 0.37321 0.25038 0.78895 0.0
C250 C 0.40298 0.2528 0.7696 0.0
H251 H 0.40659 0.25641 0.82385 0.0
H252 H 0.40941 0.25925 0.72868 0.0
H253 H 0.40253 0.24377 0.76322 0.0
C254 C 0.41473 0.28425 0.99124 0.0
N255 N 0.40616 0.27217 0.99076 0.0
N256 N 0.40062 0.26925 0.92803 0.0
C257 C 0.40546 0.27946 0.88669 0.0
C258 C 0.41462 0.2892 0.92502 0.0
C259 C 0.42269 0.29084 0.05426 0.0
H260 H 0.41685 0.2914 0.09727 0.0
H261 H 0.42688 0.2855 0.07555 0.0
H262 H 0.43005 0.3003 0.03975 0.0
O263 O 0.38285 0.2528 0.07966 0.0
O264 O 0.37347 0.24817 0.97406 0.0
H265 H 0.40338 0.28994 0.80095 0.0
H266 H 0.4048 0.27698 0.77312 0.0
C267 C 0.40074 0.28028 0.81429 0.0
H268 H 0.39056 0.27451 0.81267 0.0
H269 H 0.36633 0.25043 0.8204 0.0
O270 O 0.4083 0.26668 0.15521 0.0
C271 C 0.37308 0.24868 0.04211 0.0
Co272 Co 0.73694 0.1389 0.05097 0.0
Co273 Co 0.74451 0.13328 0.90289 0.0
C274 C 0.75665 0.15898 0.96655 0.0
O275 O 0.74974 0.15563 0.0216 0.0
O276 O 0.75557 0.15122 0.91899 0.0
C277 C 0.73503 0.14892 0.1842 0.0
O278 O 0.74386 0.15932 0.15744 0.0
C279 C 0.74616 0.13733 0.75122 0.0
C280 C 0.74691 0.12135 0.70685 0.0
C281 C 0.74627 0.13173 0.68754 0.0
N282 N 0.74663 0.13056 0.80556 0.0
N283 N 0.74732 0.12114 0.779 0.0
C284 C 0.74388 0.14791 0.76116 0.0
H285 H 0.73984 0.14749 0.81473 0.0
H286 H 0.73756 0.14786 0.71922 0.0
H287 H 0.75278 0.1567 0.75707 0.0
C288 C 0.71244 0.12741 0.98076 0.0
N289 N 0.72462 0.13137 0.98052 0.0
N290 N 0.72765 0.1284 0.91923 0.0
C291 C 0.71739 0.12213 0.87912 0.0
C292 C 0.70746 0.1214 0.91653 0.0
C293 C 0.7057 0.12875 0.04315 0.0
H294 H 0.70597 0.12316 0.08857 0.0
H295 H 0.71045 0.13854 0.06069 0.0
H296 H 0.69594 0.12567 0.02978 0.0
O297 O 0.74476 0.12873 0.07009 0.0
O298 O 0.74968 0.12393 0.96544 0.0
H299 H 0.72285 0.11254 0.80579 0.0
H300 H 0.70756 0.11006 0.7897 0.0
C301 C 0.71705 0.11694 0.80629 0.0
H302 H 0.72073 0.12451 0.76641 0.0
H303 H 0.74747 0.11427 0.81003 0.0
O304 O 0.72993 0.13942 0.14451 0.0
C305 C 0.74925 0.12329 0.03359 0.0
Co306 Co 0.59579 0.85654 0.93784 0.0
Co307 Co 0.6087 0.86245 0.08658 0.0
C308 C 0.59557 0.8367 0.02508 0.0
O309 O 0.59196 0.83991 0.9697 0.0
O310 O 0.6022 0.84456 0.07226 0.0
C311 C 0.5845 0.84602 0.80448 0.0
O312 O 0.58378 0.836 0.83163 0.0
C313 C 0.60723 0.8586 0.23869 0.0
C314 C 0.62323 0.8756 0.28056 0.0
C315 C 0.61292 0.86465 0.30146 0.0
N316 N 0.6138 0.86566 0.1833 0.0
N317 N 0.6235 0.87571 0.20834 0.0
C318 C 0.5948 0.84727 0.23086 0.0
H319 H 0.59058 0.84732 0.17867 0.0
H320 H 0.58851 0.84663 0.2747 0.0
H321 H 0.59587 0.83899 0.23316 0.0
C322 C 0.583 0.86863 0.00363 0.0
N323 N 0.59096 0.86436 0.00638 0.0
N324 N 0.59644 0.86696 0.06926 0.0
C325 C 0.59212 0.87302 0.10882 0.0
C326 C 0.58348 0.8743 0.0685 0.0
C327 C 0.57582 0.86802 0.93808 0.0
H328 H 0.58221 0.87188 0.89177 0.0
H329 H 0.56912 0.85822 0.92583 0.0
H330 H 0.57085 0.87322 0.94479 0.0
O331 O 0.61369 0.86675 0.91824 0.0
O332 O 0.62317 0.87187 0.0235 0.0
H333 H 0.60608 0.88285 0.18787 0.0
H334 H 0.59164 0.88228 0.20683 0.0
C335 C 0.59589 0.87708 0.1847 0.0
H336 H 0.59289 0.86886 0.21896 0.0
H337 H 0.62994 0.88288 0.17629 0.0
O338 O 0.58816 0.85548 0.844 0.0
C339 C 0.62351 0.87238 0.95531 0.0
Co340 Co 0.13793 0.73732 0.92324 0.0
Co341 Co 0.13266 0.74474 0.07275 0.0
C342 C 0.15817 0.7571 0.00733 0.0
O343 O 0.15469 0.75022 0.95217 0.0
O344 O 0.15053 0.75593 0.05595 0.0
C345 C 0.14825 0.7353 0.79076 0.0
O346 O 0.15875 0.74371 0.81872 0.0
C347 C 0.13666 0.74688 0.22516 0.0
C348 C 0.11994 0.74647 0.2673 0.0
C349 C 0.13063 0.74654 0.2881 0.0
N350 N 0.12979 0.74685 0.16988 0.0
N351 N 0.11994 0.74689 0.19515 0.0
C352 C 0.14774 0.74536 0.21679 0.0
H353 H 0.14772 0.74143 0.16351 0.0
H354 H 0.14798 0.73925 0.25916 0.0
H355 H 0.15621 0.75453 0.22137 0.0
C356 C 0.12616 0.71264 0.99172 0.0
N357 N 0.13042 0.72487 0.99341 0.0
N358 N 0.12794 0.7279 0.05621 0.0
C359 C 0.12188 0.71761 0.09653 0.0
C360 C 0.12057 0.70761 0.05703 0.0
C361 C 0.12671 0.70592 0.9268 0.0
H362 H 0.12229 0.70789 0.88107 0.0
H363 H 0.13651 0.7094 0.91226 0.0
H364 H 0.122 0.6958 0.93558 0.0
O365 O 0.12763 0.74497 0.90488 0.0
O366 O 0.12309 0.74975 0.01071 0.0
H367 H 0.11253 0.72242 0.17527 0.0
H368 H 0.11199 0.708 0.19353 0.0
C369 C 0.11776 0.71745 0.17216 0.0
H370 H 0.12596 0.72214 0.20714 0.0
H371 H 0.11292 0.74654 0.16323 0.0
O372 O 0.13859 0.7305 0.82935 0.0
C373 C 0.12224 0.74935 0.94264 0.0
Co374 Co 0.258 0.4014 0.93344 0.0
Co375 Co 0.25143 0.38853 0.08225 0.0
C376 C 0.2383 0.40124 0.02126 0.0
O377 O 0.24501 0.40492 0.96539 0.0
O378 O 0.23977 0.39473 0.06833 0.0
C379 C 0.25881 0.41281 0.80024 0.0
O380 O 0.24942 0.41343 0.82698 0.0
C381 C 0.24999 0.39079 0.23377 0.0
C382 C 0.25009 0.37444 0.27778 0.0
C383 C 0.25016 0.38518 0.29723 0.0
N384 N 0.24983 0.38374 0.17932 0.0
N385 N 0.2497 0.37386 0.20561 0.0
C386 C 0.25159 0.4034 0.22417 0.0
H387 H 0.25565 0.40723 0.17092 0.0
H388 H 0.25763 0.40977 0.26662 0.0
H389 H 0.24244 0.40276 0.22764 0.0
C390 C 0.28279 0.41504 -0.00066 0.0
N391 N 0.27067 0.40661 0.00172 0.0
N392 N 0.268 0.40107 0.06446 0.0
C393 C 0.2784 0.40579 0.10406 0.0
C394 C 0.28802 0.41485 0.06439 0.0
C395 C 0.28915 0.42294 0.93565 0.0
H396 H 0.28923 0.41702 0.89161 0.0
H397 H 0.28392 0.4274 0.9166 0.0
H398 H 0.29878 0.4301 0.94847 0.0
O399 O 0.25062 0.38349 0.91444 0.0
O400 O 0.24658 0.37405 0.01983 0.0
H401 H 0.28913 0.404 0.18934 0.0
H402 H 0.27593 0.40499 0.21765 0.0
C403 C 0.27941 0.40114 0.17625 0.0
H404 H 0.27382 0.39094 0.17773 0.0
H405 H 0.24986 0.36703 0.17439 0.0
O406 O 0.26454 0.40907 0.83976 0.0
C407 C 0.24666 0.3737 0.95163 0.0
Co408 Co 0.80516 0.73381 0.26277 0.0
Co409 Co 0.8012 0.72167 0.41324 0.0
C410 C 0.82627 0.73509 0.34453 0.0
O411 O 0.82213 0.73791 0.28966 0.0
O412 O 0.81915 0.72877 0.39571 0.0
C413 C 0.81436 0.74598 0.12832 0.0
O414 O 0.82524 0.7484 0.15195 0.0
C415 C 0.80456 0.71996 0.5662 0.0
C416 C 0.78525 0.70935 0.60338 0.0
C417 C 0.7973 0.71645 0.62742 0.0
N418 N 0.79712 0.71579 0.50887 0.0
N419 N 0.78562 0.70905 0.53137 0.0
C420 C 0.81833 0.72712 0.56128 0.0
H421 H 0.82136 0.72233 0.52359 0.0
H422 H 0.82133 0.73648 0.53984 0.0
H423 H 0.82274 0.72779 0.61392 0.0
C424 C 0.79342 0.74651 0.33325 0.0
N425 N 0.79777 0.7386 0.33392 0.0
N426 N 0.79668 0.73403 0.39873 0.0
C427 C 0.79203 0.73932 0.44228 0.0
C428 C 0.78961 0.74722 0.40209 0.0
C429 C 0.79236 0.75264 0.2669 0.0
H430 H 0.78882 0.7459 0.22221 0.0
H431 H 0.80166 0.76024 0.25164 0.0
H432 H 0.78609 0.75641 0.27476 0.0
O433 O 0.79515 0.71604 0.24349 0.0
O434 O 0.7917 0.70712 0.34997 0.0
H435 H 0.78275 0.72906 0.53609 0.0
H436 H 0.7905 0.74553 0.54819 0.0
C437 C 0.7911 0.7379 0.52206 0.0
H438 H 0.79938 0.73794 0.54315 0.0
H439 H 0.77795 0.7051 0.49756 0.0
O440 O 0.80518 0.74119 0.17046 0.0
C441 C 0.79031 0.70641 0.28224 0.0
Co442 Co 0.26201 0.07045 0.25931 0.0
Co443 Co 0.27442 0.07765 0.40946 0.0
C444 C 0.26236 0.09085 0.34094 0.0
O445 O 0.25889 0.08395 0.28585 0.0
O446 O 0.26846 0.08937 0.39066 0.0
C447 C 0.24924 0.06802 0.1278 0.0
O448 O 0.24703 0.07635 0.15569 0.0
C449 C 0.27175 0.07937 0.56088 0.0
C450 C 0.28807 0.07939 0.60642 0.0
C451 C 0.2772 0.07914 0.62495 0.0
N452 N 0.27899 0.07965 0.50709 0.0
N453 N 0.28887 0.07991 0.53436 0.0
C454 C 0.25911 0.07764 0.54999 0.0
H455 H 0.25957 0.08669 0.55558 0.0
H456 H 0.25562 0.07399 0.49563 0.0
H457 H 0.25257 0.07123 0.59067 0.0
C458 C 0.24774 0.04607 0.32993 0.0
N459 N 0.25634 0.05814 0.33048 0.0
N460 N 0.26177 0.06105 0.39353 0.0
C461 C 0.25682 0.05086 0.43501 0.0
C462 C 0.2477 0.04113 0.39644 0.0
C463 C 0.23994 0.03944 0.26645 0.0
H464 H 0.24591 0.03906 0.2237 0.0
H465 H 0.23562 0.04467 0.24502 0.0
H466 H 0.23267 0.02992 0.28051 0.0
O467 O 0.27994 0.07737 0.2425 0.0
O468 O 0.28903 0.08203 0.34896 0.0
H469 H 0.27155 0.05576 0.51017 0.0
H470 H 0.25862 0.04039 0.52182 0.0
C471 C 0.26136 0.05005 0.50795 0.0
H472 H 0.25729 0.05345 0.54842 0.0
H473 H 0.29581 0.07981 0.50383 0.0
O474 O 0.25448 0.06354 0.16582 0.0
C475 C 0.2896 0.08149 0.28102 0.0
Co476 Co 0.92563 0.19182 0.26805 0.0
Co477 Co 0.91823 0.19694 0.41783 0.0
C478 C 0.90596 0.17148 0.35244 0.0
O479 O 0.91285 0.17503 0.29729 0.0
O480 O 0.90705 0.17908 0.40108 0.0
C481 C 0.92767 0.1815 0.13577 0.0
O482 O 0.9192 0.17102 0.1637 0.0
C483 C 0.9159 0.19267 0.56977 0.0
C484 C 0.91649 0.20938 0.61319 0.0
C485 C 0.91621 0.19856 0.63313 0.0
N486 N 0.91613 0.19973 0.51504 0.0
N487 N 0.9162 0.20958 0.54104 0.0
C488 C 0.91727 0.18151 0.56061 0.0
H489 H 0.92142 0.1817 0.50777 0.0
H490 H 0.92314 0.18099 0.60351 0.0
H491 H 0.90802 0.1731 0.56351 0.0
C492 C 0.95032 0.20353 0.33587 0.0
N493 N 0.9381 0.19935 0.33778 0.0
N494 N 0.93509 0.20172 0.40095 0.0
C495 C 0.94538 0.20758 0.44142 0.0
C496 C 0.95537 0.20892 0.40152 0.0
C497 C 0.95701 0.20301 0.27066 0.0
H498 H 0.95477 0.20717 0.22466 0.0
H499 H 0.95374 0.19322 0.25714 0.0
H500 H 0.96715 0.20798 0.27856 0.0
O501 O 0.91784 0.20201 0.25008 0.0
O502 O 0.91311 0.20648 0.35621 0.0
H503 H 0.94069 0.21673 0.52217 0.0
H504 H 0.95494 0.21687 0.53978 0.0
C505 C 0.94552 0.21136 0.5178 0.0
H506 H 0.94064 0.203 0.55144 0.0
H507 H 0.91671 0.21673 0.50964 0.0
O508 O 0.93244 0.19117 0.17417 0.0
C509 C 0.91343 0.20733 0.28814 0.0
Co510 Co 0.06705 0.47368 0.39489 0.0
Co511 Co 0.05445 0.46813 0.2453 0.0
C512 C 0.06691 0.49361 0.3109 0.0
O513 O 0.07046 0.49029 0.36617 0.0
O514 O 0.06059 0.48589 0.26227 0.0
C515 C 0.07948 0.48404 0.52699 0.0
O516 O 0.08133 0.4945 0.49954 0.0
C517 C 0.05711 0.47226 0.09388 0.0
C518 C 0.0407 0.45606 0.0486 0.0
C519 C 0.05162 0.4666 0.02993 0.0
N520 N 0.04985 0.46538 0.14778 0.0
N521 N 0.03992 0.45581 0.12068 0.0
C522 C 0.06981 0.48309 0.10458 0.0
H523 H 0.07334 0.48285 0.15871 0.0
H524 H 0.07628 0.4832 0.06351 0.0
H525 H 0.06942 0.49172 0.09955 0.0
C526 C 0.08083 0.46288 0.32658 0.0
N527 N 0.07244 0.46662 0.32498 0.0
N528 N 0.06697 0.464 0.26204 0.0
C529 C 0.0717 0.45843 0.22158 0.0
C530 C 0.0807 0.45769 0.26084 0.0
C531 C 0.08861 0.46411 0.3903 0.0
H532 H 0.09295 0.47368 0.41125 0.0
H533 H 0.09587 0.46182 0.37672 0.0
H534 H 0.08262 0.45782 0.43323 0.0
O535 O 0.04912 0.46297 0.41246 0.0
O536 O 0.03984 0.45818 0.30655 0.0
H537 H 0.06961 0.44583 0.13615 0.0
H538 H 0.07108 0.46023 0.10796 0.0
C539 C 0.06701 0.45288 0.14923 0.0
H540 H 0.05683 0.44852 0.14749 0.0
H541 H 0.03294 0.44883 0.15134 0.0
O542 O 0.07458 0.47439 0.48849 0.0
C543 C 0.03939 0.45736 0.37464 0.0
Co544 Co 0.52274 0.59244 0.39228 0.0
Co545 Co 0.52841 0.58561 0.24239 0.0
C546 C 0.50285 0.57255 0.30715 0.0
O547 O 0.50615 0.57929 0.36289 0.0
O548 O 0.5106 0.574 0.25856 0.0
C549 C 0.51223 0.59444 0.52432 0.0
O550 O 0.50175 0.58594 0.49656 0.0
C551 C 0.52458 0.58433 0.09051 0.0
C552 C 0.54099 0.58433 0.04657 0.0
C553 C 0.53046 0.58467 0.02703 0.0
N554 N 0.53134 0.58389 0.14496 0.0
N555 N 0.54103 0.58365 0.11864 0.0
C556 C 0.51367 0.58608 0.10035 0.0
H557 H 0.51373 0.58975 0.15455 0.0
H558 H 0.51362 0.59249 0.05937 0.0
H559 H 0.50509 0.57704 0.09447 0.0
C560 C 0.53341 0.61707 0.32448 0.0
N561 N 0.52982 0.60498 0.32274 0.0
N562 N 0.53249 0.60222 0.25968 0.0
C563 C 0.53796 0.61255 0.21934 0.0
C564 C 0.53856 0.6222 0.25874 0.0
C565 C 0.53203 0.62352 0.38821 0.0
H566 H 0.5224 0.61827 0.40841 0.0
H567 H 0.53437 0.6331 0.37494 0.0
H568 H 0.5382 0.62374 0.43159 0.0
O569 O 0.53348 0.58524 0.40987 0.0
O570 O 0.53832 0.58091 0.30363 0.0
H571 H 0.55046 0.6232 0.13379 0.0
H572 H 0.5361 0.61025 0.10569 0.0
C573 C 0.54347 0.61352 0.14672 0.0
H574 H 0.54792 0.60778 0.14437 0.0
H575 H 0.54794 0.58364 0.14986 0.0
O576 O 0.52192 0.59914 0.48606 0.0
C577 C 0.53914 0.5812 0.3717 0.0
Co578 Co 0.40362 0.9291 0.39827 0.0
Co579 Co 0.41068 0.94178 0.24885 0.0
C580 C 0.42316 0.92859 0.31185 0.0
O581 O 0.41636 0.92512 0.36735 0.0
O582 O 0.42196 0.93517 0.26409 0.0
C583 C 0.40225 0.91725 0.53115 0.0
O584 O 0.41116 0.91589 0.5037 0.0
C585 C 0.41294 0.94001 0.09687 0.0
C586 C 0.41218 0.95608 0.05391 0.0
C587 C 0.41262 0.94563 0.03371 0.0
N588 N 0.41261 0.94674 0.1518 0.0
N589 N 0.41241 0.95648 0.12609 0.0
C590 C 0.41168 0.92751 0.1056 0.0
H591 H 0.40746 0.92344 0.15815 0.0
H592 H 0.40592 0.92118 0.06228 0.0
H593 H 0.42098 0.92845 0.10308 0.0
C594 C 0.37878 0.91624 0.33222 0.0
N595 N 0.39101 0.92423 0.32954 0.0
N596 N 0.39389 0.92964 0.26644 0.0
C597 C 0.38353 0.92528 0.22672 0.0
C598 C 0.37361 0.91663 0.26711 0.0
C599 C 0.37221 0.90905 0.39777 0.0
H600 H 0.37459 0.91545 0.44383 0.0
H601 H 0.37545 0.90247 0.41067 0.0
H602 H 0.36205 0.90394 0.39067 0.0
O603 O 0.41143 0.94706 0.41692 0.0
O604 O 0.41584 0.95636 0.31103 0.0
H605 H 0.38788 0.93915 0.14668 0.0
H606 H 0.37379 0.92489 0.12885 0.0
C607 C 0.38325 0.92896 0.15059 0.0
H608 H 0.38826 0.92569 0.11648 0.0
H609 H 0.41183 0.96305 0.1577 0.0
O610 O 0.39697 0.92157 0.49218 0.0
C611 C 0.41569 0.95682 0.37918 0.0
Co612 Co 0.52324 0.9302 0.38516 0.0
Co613 Co 0.52826 0.94253 0.23493 0.0
C614 C 0.50284 0.92948 0.30168 0.0
O615 O 0.50643 0.92626 0.35716 0.0
O616 O 0.5104 0.93585 0.25244 0.0
C617 C 0.51315 0.91735 0.51691 0.0
O618 O 0.5025 0.91484 0.48915 0.0
C619 C 0.52405 0.93964 0.08361 0.0
C620 C 0.53997 0.95626 0.03779 0.0
C621 C 0.52961 0.94517 0.01948 0.0
N622 N 0.53082 0.94705 0.13726 0.0
N623 N 0.54021 0.95709 0.10984 0.0
C624 C 0.51346 0.92682 0.09473 0.0
H625 H 0.51382 0.9234 0.14899 0.0
H626 H 0.51354 0.92041 0.05392 0.0
H627 H 0.50467 0.92692 0.08962 0.0
C628 C 0.53437 0.91675 0.31677 0.0
N629 N 0.53047 0.92501 0.3152 0.0
N630 N 0.5329 0.93039 0.25199 0.0
C631 C 0.53853 0.92573 0.21133 0.0
C632 C 0.53949 0.91687 0.25076 0.0
C633 C 0.53319 0.90896 0.38042 0.0
H634 H 0.53947 0.91496 0.42332 0.0
H635 H 0.52362 0.90456 0.40146 0.0
H636 H 0.53555 0.90175 0.36675 0.0
O637 O 0.53355 0.94819 0.40183 0.0
O638 O 0.53792 0.9573 0.29537 0.0
H639 H 0.54794 0.94045 0.13547 0.0
H640 H 0.55106 0.92794 0.12525 0.0
C641 C 0.54384 0.9303 0.13834 0.0
H642 H 0.53642 0.92593 0.09775 0.0
H643 H 0.54709 0.9642 0.14026 0.0
O644 O 0.52284 0.92284 0.47888 0.0
C645 C 0.53885 0.95789 0.3634 0.0
Co646 Co 0.06563 0.59251 0.3866 0.0
Co647 Co 0.05303 0.58519 0.23699 0.0
C648 C 0.06561 0.57237 0.30391 0.0
O649 O 0.06907 0.57929 0.35892 0.0
O650 O 0.05928 0.57366 0.25484 0.0
C651 C 0.07819 0.59481 0.5186 0.0
O652 O 0.08026 0.58635 0.49106 0.0
C653 C 0.05563 0.58352 0.08551 0.0
C654 C 0.0392 0.58333 0.0403 0.0
C655 C 0.05012 0.58369 0.02155 0.0
N656 N 0.04838 0.58318 0.13945 0.0
N657 N 0.03845 0.58282 0.11238 0.0
C658 C 0.06832 0.58539 0.09614 0.0
H659 H 0.07187 0.58915 0.15024 0.0
H660 H 0.07479 0.59175 0.05505 0.0
H661 H 0.06794 0.57636 0.09109 0.0
C662 C 0.07956 0.61691 0.31619 0.0
N663 N 0.07102 0.60483 0.31575 0.0
N664 N 0.06553 0.60187 0.25289 0.0
C665 C 0.07038 0.61207 0.2114 0.0
C666 C 0.0795 0.62183 0.2498 0.0
C667 C 0.08749 0.62354 0.37924 0.0
H668 H 0.09182 0.6183 0.40021 0.0
H669 H 0.09476 0.63305 0.3649 0.0
H670 H 0.08162 0.62396 0.42245 0.0
O671 O 0.04769 0.58529 0.4041 0.0
O672 O 0.03841 0.58057 0.2982 0.0
H673 H 0.06845 0.62246 0.12465 0.0
H674 H 0.06994 0.60949 0.09798 0.0
C675 C 0.0658 0.61281 0.13847 0.0
H676 H 0.05562 0.60703 0.13626 0.0
H677 H 0.03149 0.58285 0.14305 0.0
O678 O 0.07316 0.59944 0.48011 0.0
C679 C 0.03795 0.58106 0.36624 0.0
Co680 Co 0.40413 0.47281 0.38126 0.0
Co681 Co 0.41146 0.46749 0.23169 0.0
C682 C 0.4238 0.49302 0.29613 0.0
O683 O 0.41695 0.48953 0.35146 0.0
O684 O 0.42266 0.48538 0.24762 0.0
C685 C 0.40227 0.48317 0.51383 0.0
O686 O 0.41076 0.49364 0.48587 0.0
C687 C 0.41358 0.47137 0.07923 0.0
C688 C 0.413 0.45456 0.03754 0.0
C689 C 0.41319 0.46528 0.01646 0.0
N690 N 0.41349 0.4645 0.13468 0.0
N691 N 0.41342 0.45459 0.10968 0.0
C692 C 0.41219 0.48253 0.08729 0.0
H693 H 0.40819 0.48253 0.14035 0.0
H694 H 0.40618 0.48286 0.04461 0.0
H695 H 0.42142 0.49094 0.08308 0.0
C696 C 0.37944 0.4611 0.31373 0.0
N697 N 0.39165 0.46524 0.31171 0.0
N698 N 0.39461 0.46274 0.24876 0.0
C699 C 0.38429 0.45681 0.2086 0.0
C700 C 0.37434 0.45559 0.24842 0.0
C701 C 0.3728 0.46177 0.37881 0.0
H702 H 0.37494 0.45755 0.42493 0.0
H703 H 0.37621 0.47159 0.39219 0.0
H704 H 0.36266 0.45692 0.37086 0.0
O705 O 0.41186 0.4626 0.39963 0.0
O706 O 0.41661 0.45802 0.29387 0.0
H707 H 0.38898 0.44752 0.12875 0.0
H708 H 0.37462 0.44716 0.11128 0.0
C709 C 0.38407 0.45282 0.13261 0.0
H710 H 0.38882 0.46109 0.09811 0.0
H711 H 0.413 0.44756 0.1418 0.0
O712 O 0.39739 0.47353 0.47525 0.0
C713 C 0.41626 0.45723 0.36196 0.0
Co714 Co 0.2633 0.19148 0.26555 0.0
Co715 Co 0.27561 0.19575 0.41486 0.0
C716 C 0.26334 0.17088 0.33947 0.0
O717 O 0.25964 0.17451 0.2862 0.0
O718 O 0.26964 0.17827 0.3895 0.0
C719 C 0.24974 0.18331 0.13269 0.0
O720 O 0.24536 0.17199 0.15632 0.0
C721 C 0.27249 0.19097 0.56671 0.0
C722 C 0.28844 0.20759 0.61212 0.0
C723 C 0.27743 0.19714 0.63062 0.0
N724 N 0.27993 0.19776 0.51303 0.0
N725 N 0.28963 0.20752 0.54045 0.0
C726 C 0.26078 0.17895 0.5557 0.0
H727 H 0.26198 0.17362 0.51244 0.0
H728 H 0.25329 0.18076 0.53946 0.0
H729 H 0.25805 0.17324 0.60504 0.0
C730 C 0.24922 0.20143 0.33854 0.0
N731 N 0.25764 0.19773 0.33838 0.0
N732 N 0.26304 0.19994 0.4014 0.0
C733 C 0.25824 0.20524 0.44371 0.0
C734 C 0.24926 0.2062 0.40551 0.0
C735 C 0.24155 0.20066 0.27516 0.0
H736 H 0.23738 0.19131 0.2513 0.0
H737 H 0.23416 0.20269 0.29019 0.0
H738 H 0.24758 0.20739 0.23401 0.0
O739 O 0.28127 0.20227 0.2505 0.0
O740 O 0.2904 0.20644 0.35667 0.0
H741 H 0.26038 0.21757 0.53087 0.0
H742 H 0.25889 0.20308 0.55695 0.0
C743 C 0.26296 0.21055 0.51644 0.0
H744 H 0.27314 0.21492 0.51786 0.0
H745 H 0.29663 0.21452 0.51 0.0
O746 O 0.25641 0.19232 0.17349 0.0
C747 C 0.29095 0.2077 0.28885 0.0
Co748 Co 0.80708 0.07188 0.26942 0.0
Co749 Co 0.80135 0.07897 0.41848 0.0
C750 C 0.82694 0.09187 0.35384 0.0
O751 O 0.82369 0.08502 0.29858 0.0
O752 O 0.81916 0.09051 0.40199 0.0
C753 C 0.81741 0.07004 0.13682 0.0
O754 O 0.8278 0.07883 0.16386 0.0
C755 C 0.80541 0.0805 0.56996 0.0
C756 C 0.78918 0.08071 0.61493 0.0
C757 C 0.79973 0.08036 0.63382 0.0
N758 N 0.79854 0.08085 0.51591 0.0
N759 N 0.78895 0.0812 0.54282 0.0
C760 C 0.81625 0.07864 0.55955 0.0
H761 H 0.81601 0.07479 0.50565 0.0
H762 H 0.81638 0.07233 0.60097 0.0
H763 H 0.82488 0.08767 0.56422 0.0
C764 C 0.79627 0.04734 0.33839 0.0
N765 N 0.79991 0.05945 0.33943 0.0
N766 N 0.7972 0.06231 0.40207 0.0
C767 C 0.79166 0.05204 0.44286 0.0
C768 C 0.79104 0.04231 0.40416 0.0
C769 C 0.79768 0.04079 0.27528 0.0
H770 H 0.79147 0.04044 0.23174 0.0
H771 H 0.80729 0.04606 0.25492 0.0
H772 H 0.7954 0.03126 0.28932 0.0
O773 O 0.79644 0.07916 0.25126 0.0
O774 O 0.7915 0.08369 0.35662 0.0
H775 H 0.78173 0.05699 0.51697 0.0
H776 H 0.77912 0.04155 0.52862 0.0
C777 C 0.78614 0.05121 0.51528 0.0
H778 H 0.7935 0.05453 0.5564 0.0
H779 H 0.78197 0.08118 0.51204 0.0
O780 O 0.80782 0.06505 0.17588 0.0
C781 C 0.79079 0.08331 0.28848 0.0
Co782 Co 0.92526 0.73475 0.25403 0.0
Co783 Co 0.91801 0.72256 0.40463 0.0
C784 C 0.90579 0.73576 0.33859 0.0
O785 O 0.91251 0.73885 0.28279 0.0
O786 O 0.90697 0.72941 0.3879 0.0
C787 C 0.92764 0.74742 0.1222 0.0
O788 O 0.91942 0.74978 0.15036 0.0
C789 C 0.9159 0.72469 0.55655 0.0
C790 C 0.91626 0.70846 0.6003 0.0
C791 C 0.91614 0.71909 0.62 0.0
N792 N 0.91599 0.71778 0.50197 0.0
N793 N 0.91594 0.70794 0.52817 0.0
C794 C 0.91745 0.73729 0.5472 0.0
H795 H 0.92148 0.74115 0.49395 0.0
H796 H 0.9235 0.74367 0.58954 0.0
H797 H 0.90828 0.73662 0.55111 0.0
C798 C 0.95006 0.74762 0.32061 0.0
N799 N 0.93782 0.73973 0.32336 0.0
N800 N 0.93487 0.73447 0.38687 0.0
C801 C 0.94521 0.73882 0.42675 0.0
C802 C 0.95518 0.7473 0.38608 0.0
C803 C 0.9567 0.75461 0.25469 0.0
H804 H 0.95437 0.74806 0.20941 0.0
H805 H 0.95349 0.76115 0.24034 0.0
H806 H 0.96686 0.75973 0.26212 0.0
O807 O 0.91739 0.71675 0.23692 0.0
O808 O 0.91267 0.70779 0.34381 0.0
H809 H 0.94055 0.72506 0.50797 0.0
H810 H 0.95489 0.73912 0.52473 0.0
C811 C 0.94543 0.73525 0.5032 0.0
H812 H 0.94065 0.73882 0.53695 0.0
H813 H 0.91631 0.70122 0.4969 0.0
O814 O 0.93206 0.74212 0.16011 0.0
C815 C 0.91293 0.7071 0.27581 0.0
Co816 Co 0.47174 0.06679 0.60246 0.0
Co817 Co 0.46789 0.0546 0.75278 0.0
C818 C 0.49291 0.06802 0.68352 0.0
O819 O 0.48873 0.07086 0.62891 0.0
O820 O 0.48583 0.06169 0.73481 0.0
C821 C 0.4809 0.07896 0.46797 0.0
O822 O 0.49178 0.08142 0.49165 0.0
C823 C 0.47132 0.05288 0.90569 0.0
C824 C 0.45202 0.04219 0.94298 0.0
C825 C 0.46406 0.04932 0.96697 0.0
N826 N 0.46387 0.0487 0.8484 0.0
N827 N 0.45238 0.04191 0.87096 0.0
C828 C 0.48508 0.06013 0.90068 0.0
H829 H 0.48815 0.05537 0.86294 0.0
H830 H 0.48802 0.06947 0.87922 0.0
H831 H 0.48952 0.06083 0.95327 0.0
C832 C 0.46013 0.07954 0.67391 0.0
N833 N 0.46444 0.07159 0.67406 0.0
N834 N 0.46339 0.067 0.73876 0.0
C835 C 0.45881 0.07231 0.78274 0.0
C836 C 0.45639 0.08025 0.74297 0.0
C837 C 0.45905 0.08573 0.60785 0.0
H838 H 0.45551 0.07903 0.56295 0.0
H839 H 0.46835 0.09334 0.5927 0.0
H840 H 0.45277 0.08948 0.61608 0.0
O841 O 0.46169 0.04903 0.5832 0.0
O842 O 0.45834 0.04007 0.68947 0.0
H843 H 0.44967 0.06202 0.87674 0.0
H844 H 0.45738 0.07849 0.88895 0.0
C845 C 0.45798 0.07087 0.86252 0.0
H846 H 0.46631 0.07095 0.88315 0.0
H847 H 0.4447 0.03794 0.83719 0.0
O848 O 0.47172 0.07418 0.51016 0.0
C849 C 0.45688 0.03938 0.6218 0.0
Co850 Co 0.92957 0.40445 0.60325 0.0
Co851 Co 0.94229 0.41183 0.75256 0.0
C852 C 0.9293 0.42435 0.68736 0.0
O853 O 0.92581 0.41741 0.63248 0.0
O854 O 0.9358 0.42319 0.73581 0.0
C855 C 0.91749 0.40274 0.47059 0.0
O856 O 0.91583 0.41146 0.49814 0.0
C857 C 0.94049 0.41423 0.9045 0.0
C858 C 0.95658 0.41353 0.94761 0.0
C859 C 0.9461 0.41391 0.96776 0.0
N860 N 0.94726 0.41393 0.84963 0.0
N861 N 0.95702 0.41378 0.87544 0.0
C862 C 0.92798 0.41293 0.89558 0.0
H863 H 0.92398 0.40879 0.84281 0.0
H864 H 0.92161 0.40708 0.93861 0.0
H865 H 0.92888 0.4222 0.89847 0.0
C866 C 0.9166 0.37978 0.67145 0.0
N867 N 0.9246 0.39201 0.67327 0.0
N868 N 0.93006 0.39501 0.7362 0.0
C869 C 0.92573 0.38473 0.77659 0.0
C870 C 0.91706 0.37474 0.73691 0.0
C871 C 0.90943 0.37309 0.60621 0.0
H872 H 0.91586 0.37527 0.56044 0.0
H873 H 0.90295 0.3764 0.59215 0.0
H874 H 0.90421 0.36295 0.61433 0.0
O875 O 0.9475 0.412 0.58473 0.0
O876 O 0.95685 0.41673 0.69043 0.0
H877 H 0.93976 0.38927 0.85582 0.0
H878 H 0.9256 0.37512 0.87449 0.0
C879 C 0.92956 0.38455 0.8525 0.0
H880 H 0.92627 0.38952 0.88679 0.0
H881 H 0.96361 0.41321 0.84392 0.0
O882 O 0.92203 0.39766 0.5095 0.0
C883 C 0.95727 0.41632 0.62235 0.0
Co884 Co 0.59207 0.52476 0.5995 0.0
Co885 Co 0.58467 0.52945 0.74944 0.0
C886 C 0.57179 0.50435 0.67616 0.0
O887 O 0.57888 0.50783 0.62183 0.0
O888 O 0.57307 0.51188 0.72578 0.0
C889 C 0.59754 0.51652 0.46656 0.0
O890 O 0.59074 0.50517 0.49013 0.0
C891 C 0.58363 0.52498 0.90138 0.0
C892 C 0.58431 0.54162 0.94678 0.0
C893 C 0.58501 0.53124 0.96513 0.0
N894 N 0.58274 0.53166 0.84782 0.0
N895 N 0.58284 0.54143 0.87525 0.0
C896 C 0.58337 0.51299 0.89042 0.0
H897 H 0.57677 0.50758 0.84763 0.0
H898 H 0.59264 0.51482 0.87363 0.0
H899 H 0.5805 0.50733 0.93998 0.0
C900 C 0.61629 0.53448 0.66992 0.0
N901 N 0.60425 0.53111 0.67081 0.0
N902 N 0.60137 0.53361 0.7339 0.0
C903 C 0.61161 0.53885 0.77509 0.0
C904 C 0.62132 0.53942 0.73618 0.0
C905 C 0.62277 0.53296 0.6067 0.0
H906 H 0.62396 0.5398 0.56501 0.0
H907 H 0.61703 0.52361 0.58358 0.0
H908 H 0.63195 0.53431 0.62167 0.0
O909 O 0.58478 0.53551 0.58509 0.0
O910 O 0.5803 0.53998 0.69183 0.0
H911 H 0.60662 0.54871 0.84951 0.0
H912 H 0.62216 0.55163 0.85959 0.0
C913 C 0.61252 0.54445 0.84735 0.0
H914 H 0.60948 0.53717 0.88891 0.0
H915 H 0.58267 0.54835 0.84483 0.0
O916 O 0.59957 0.52548 0.50693 0.0
C917 C 0.58069 0.54104 0.62391 0.0
Co918 Co 0.7337 0.80693 0.72543 0.0
Co919 Co 0.72145 0.8022 0.57595 0.0
C920 C 0.73384 0.82735 0.6489 0.0
O921 O 0.73753 0.82388 0.70299 0.0
O922 O 0.7275 0.81978 0.59964 0.0
C923 C 0.74729 0.81512 0.85866 0.0
O924 O 0.75175 0.82648 0.8354 0.0
C925 C 0.72486 0.80664 0.42404 0.0
C926 C 0.70878 0.79013 0.37866 0.0
C927 C 0.71992 0.80043 0.36027 0.0
N928 N 0.71727 0.80002 0.47763 0.0
N929 N 0.70752 0.79031 0.45022 0.0
C930 C 0.73668 0.81855 0.43499 0.0
H931 H 0.73559 0.824 0.47795 0.0
H932 H 0.74405 0.81659 0.45153 0.0
H933 H 0.73952 0.82423 0.3855 0.0
C934 C 0.74796 0.79696 0.65467 0.0
N935 N 0.73939 0.80047 0.65396 0.0
N936 N 0.73393 0.79795 0.59111 0.0
C937 C 0.73877 0.79255 0.5499 0.0
C938 C 0.74789 0.7919 0.58854 0.0
C939 C 0.75597 0.79842 0.71768 0.0
H940 H 0.75963 0.80776 0.74096 0.0
H941 H 0.76376 0.79702 0.70242 0.0
H942 H 0.75032 0.79157 0.75935 0.0
O943 O 0.71567 0.7963 0.74028 0.0
O944 O 0.70659 0.79175 0.63395 0.0
H945 H 0.73626 0.77959 0.4659 0.0
H946 H 0.73818 0.79408 0.43605 0.0
C947 C 0.73394 0.78688 0.47799 0.0
H948 H 0.72378 0.78273 0.47634 0.0
H949 H 0.70039 0.78344 0.48066 0.0
O950 O 0.74049 0.80617 0.81789 0.0
C951 C 0.706 0.79076 0.70192 0.0
Co952 Co 0.191 0.92619 0.72939 0.0
Co953 Co 0.1962 0.91868 0.57994 0.0
C954 C 0.17073 0.90632 0.64596 0.0
O955 O 0.17424 0.91323 0.70098 0.0
O956 O 0.17835 0.90748 0.59718 0.0
C957 C 0.18074 0.92831 0.86186 0.0
O958 O 0.17021 0.91994 0.83391 0.0
C959 C 0.19216 0.9165 0.42754 0.0
C960 C 0.20884 0.91684 0.38536 0.0
C961 C 0.19818 0.91682 0.36457 0.0
N962 N 0.19902 0.9165 0.4828 0.0
N963 N 0.20884 0.91641 0.4575 0.0
C964 C 0.1811 0.91806 0.43596 0.0
H965 H 0.18112 0.92197 0.48932 0.0
H966 H 0.1809 0.9242 0.3937 0.0
H967 H 0.17261 0.9089 0.43121 0.0
C968 C 0.20254 0.95079 0.65994 0.0
N969 N 0.19841 0.93858 0.65881 0.0
N970 N 0.20091 0.93553 0.59615 0.0
C971 C 0.20688 0.94578 0.55546 0.0
C972 C 0.20808 0.95578 0.59447 0.0
C973 C 0.20185 0.95753 0.72438 0.0
H974 H 0.2064 0.95577 0.7703 0.0
H975 H 0.19203 0.95388 0.73901 0.0
H976 H 0.20637 0.96762 0.71494 0.0
O977 O 0.20134 0.91857 0.74768 0.0
O978 O 0.20581 0.91372 0.64192 0.0
H979 H 0.21614 0.94082 0.4768 0.0
H980 H 0.2169 0.95534 0.45867 0.0
C981 C 0.21101 0.94591 0.47988 0.0
H982 H 0.20282 0.94133 0.44476 0.0
H983 H 0.21585 0.91674 0.4894 0.0
O984 O 0.1904 0.93306 0.82325 0.0
C985 C 0.20671 0.91417 0.70996 0.0
Co986 Co 0.07089 0.26214 0.72573 0.0
Co987 Co 0.07815 0.27495 0.57662 0.0
C988 C 0.09072 0.26192 0.64124 0.0
O989 O 0.08384 0.25839 0.69646 0.0
O990 O 0.0895 0.26844 0.59313 0.0
C991 C 0.06889 0.24993 0.85841 0.0
O992 O 0.07759 0.24819 0.83132 0.0
C993 C 0.07963 0.27238 0.42515 0.0
C994 C 0.08018 0.28899 0.38018 0.0
C995 C 0.07962 0.278 0.3613 0.0
N996 N 0.08011 0.27966 0.4792 0.0
N997 N 0.08066 0.28969 0.4523 0.0
C998 C 0.07755 0.2596 0.43556 0.0
H999 H 0.07366 0.25604 0.48948 0.0
H1000 H 0.07118 0.25324 0.39416 0.0
H1001 H 0.0865 0.25983 0.43088 0.0
C1002 C 0.04631 0.24878 0.65701 0.0
N1003 N 0.05847 0.25707 0.65581 0.0
N1004 N 0.06141 0.26263 0.59312 0.0
C1005 C 0.05115 0.25807 0.55243 0.0
C1006 C 0.04133 0.24908 0.59126 0.0
C1007 C 0.03968 0.24088 0.72021 0.0
H1008 H 0.03935 0.24678 0.76349 0.0
H1009 H 0.04486 0.23647 0.74093 0.0
H1010 H 0.03013 0.23367 0.70613 0.0
O1011 O 0.07843 0.28008 0.74389 0.0
O1012 O 0.08305 0.28953 0.63842 0.0
H1013 H 0.05636 0.27303 0.47854 0.0
H1014 H 0.04081 0.26043 0.46698 0.0
C1015 C 0.05042 0.26287 0.48014 0.0
H1016 H 0.05361 0.25872 0.43884 0.0
H1017 H 0.08077 0.29671 0.48308 0.0
O1018 O 0.06399 0.25462 0.81934 0.0
C1019 C 0.0827 0.28989 0.70656 0.0
Co1020 Co 0.19079 0.264 0.72241 0.0
Co1021 Co 0.19621 0.27657 0.57262 0.0
C1022 C 0.17058 0.26318 0.63608 0.0
O1023 O 0.17405 0.25989 0.6918 0.0
O1024 O 0.17827 0.26972 0.58782 0.0
C1025 C 0.18037 0.25177 0.85502 0.0
O1026 O 0.16991 0.24983 0.82712 0.0
C1027 C 0.1924 0.27472 0.4202 0.0
C1028 C 0.20919 0.29095 0.37822 0.0
C1029 C 0.19847 0.28039 0.35736 0.0
N1030 N 0.19925 0.28152 0.47553 0.0
N1031 N 0.20916 0.29136 0.45036 0.0
C1032 C 0.18126 0.26215 0.42845 0.0
H1033 H 0.1813 0.25816 0.48145 0.0
H1034 H 0.18092 0.25583 0.38569 0.0
H1035 H 0.17283 0.26294 0.42453 0.0
C1036 C 0.20285 0.25123 0.65648 0.0
N1037 N 0.19857 0.25918 0.65368 0.0
N1038 N 0.20107 0.26458 0.59054 0.0
C1039 C 0.20713 0.26025 0.55095 0.0
C1040 C 0.20844 0.25164 0.59144 0.0
C1041 C 0.20223 0.24405 0.72206 0.0
H1042 H 0.2063 0.25046 0.768 0.0
H1043 H 0.19242 0.23751 0.73519 0.0
H1044 H 0.20725 0.2389 0.71488 0.0
O1045 O 0.20085 0.28194 0.74054 0.0
O1046 O 0.2055 0.29123 0.63461 0.0
H1047 H 0.21643 0.27413 0.4706 0.0
H1048 H 0.21673 0.26009 0.45366 0.0
C1049 C 0.21111 0.26394 0.47483 0.0
H1050 H 0.20283 0.26042 0.44043 0.0
H1051 H 0.21618 0.298 0.48236 0.0
O1052 O 0.19004 0.25657 0.8165 0.0
C1053 C 0.20621 0.29171 0.70273 0.0
Co1054 Co 0.73316 0.92644 0.72382 0.0
Co1055 Co 0.72046 0.91884 0.57444 0.0
C1056 C 0.73377 0.90669 0.64036 0.0
O1057 O 0.73714 0.91362 0.69526 0.0
O1058 O 0.72725 0.90775 0.59165 0.0
C1059 C 0.74543 0.92854 0.85635 0.0
O1060 O 0.74745 0.92005 0.8287 0.0
C1061 C 0.7224 0.91651 0.42249 0.0
C1062 C 0.70609 0.91677 0.37919 0.0
C1063 C 0.71672 0.91668 0.35916 0.0
N1064 N 0.71552 0.91662 0.47728 0.0
N1065 N 0.70563 0.91651 0.45136 0.0
C1066 C 0.73502 0.9181 0.43153 0.0
H1067 H 0.73436 0.90894 0.42818 0.0
H1068 H 0.73893 0.92222 0.4845 0.0
H1069 H 0.74135 0.92409 0.38877 0.0
C1070 C 0.74589 0.95106 0.65499 0.0
N1071 N 0.73797 0.93882 0.6535 0.0
N1072 N 0.73248 0.93573 0.59067 0.0
C1073 C 0.7367 0.94598 0.55005 0.0
C1074 C 0.74535 0.95603 0.58945 0.0
C1075 C 0.75312 0.95783 0.71993 0.0
H1076 H 0.74672 0.95569 0.76586 0.0
H1077 H 0.75962 0.95456 0.73397 0.0
H1078 H 0.75831 0.96796 0.71144 0.0
O1079 O 0.71521 0.91863 0.74209 0.0
O1080 O 0.70584 0.91368 0.63646 0.0
H1081 H 0.72261 0.94108 0.47075 0.0
H1082 H 0.73651 0.95548 0.45235 0.0
C1083 C 0.73281 0.94606 0.47415 0.0
H1084 H 0.73635 0.94132 0.43976 0.0
H1085 H 0.69893 0.9169 0.4828 0.0
O1086 O 0.74061 0.93335 0.81756 0.0
C1087 C 0.70541 0.91411 0.70453 0.0
Co1088 Co 0.07043 0.8066 0.71073 0.0
Co1089 Co 0.07821 0.80212 0.56121 0.0
C1090 C 0.09105 0.82707 0.63589 0.0
O1091 O 0.08379 0.82353 0.68952 0.0
O1092 O 0.08983 0.81961 0.586 0.0
C1093 C 0.06509 0.81483 0.8437 0.0
O1094 O 0.07204 0.82616 0.82018 0.0
C1095 C 0.07969 0.80679 0.40934 0.0
C1096 C 0.07892 0.79011 0.364 0.0
C1097 C 0.07837 0.80057 0.34551 0.0
N1098 N 0.08038 0.80001 0.463 0.0
N1099 N 0.08025 0.79022 0.43562 0.0
C1100 C 0.08004 0.81883 0.4203 0.0
H1101 H 0.08659 0.82416 0.46344 0.0
H1102 H 0.07077 0.81706 0.43665 0.0
H1103 H 0.08302 0.82452 0.37088 0.0
C1104 C 0.04631 0.79673 0.6387 0.0
N1105 N 0.05841 0.80033 0.63843 0.0
N1106 N 0.06149 0.79802 0.57535 0.0
C1107 C 0.05134 0.79275 0.53344 0.0
C1108 C 0.04149 0.79192 0.57195 0.0
C1109 C 0.03954 0.79767 0.70221 0.0
H1110 H 0.03881 0.79096 0.74359 0.0
H1111 H 0.04482 0.80705 0.72566 0.0
H1112 H 0.03014 0.79572 0.68747 0.0
O1113 O 0.07761 0.79578 0.72563 0.0
O1114 O 0.08233 0.79144 0.61922 0.0
H1115 H 0.05641 0.78296 0.45911 0.0
H1116 H 0.041 0.78035 0.44692 0.0
C1117 C 0.05063 0.78736 0.46078 0.0
H1118 H 0.05397 0.79479 0.42003 0.0
H1119 H 0.08027 0.78323 0.4661 0.0
O1120 O 0.0628 0.80584 0.80298 0.0
C1121 C 0.08176 0.79027 0.6871 0.0
Co1122 Co 0.92917 0.52372 0.60496 0.0
Co1123 Co 0.94183 0.52931 0.75441 0.0
C1124 C 0.92941 0.50382 0.6888 0.0
O1125 O 0.92585 0.50712 0.63353 0.0
O1126 O 0.93573 0.51154 0.73739 0.0
C1127 C 0.91679 0.51334 0.47279 0.0
O1128 O 0.91502 0.50291 0.5002 0.0
C1129 C 0.93926 0.52513 0.90588 0.0
C1130 C 0.9556 0.54142 0.95101 0.0
C1131 C 0.94474 0.53082 0.96979 0.0
N1132 N 0.94647 0.53205 0.85191 0.0
N1133 N 0.95636 0.54167 0.87892 0.0
C1134 C 0.9266 0.51423 0.89531 0.0
H1135 H 0.92303 0.51444 0.84126 0.0
H1136 H 0.92011 0.51406 0.93649 0.0
H1137 H 0.92708 0.50564 0.90026 0.0
C1138 C 0.91516 0.53421 0.67429 0.0
N1139 N 0.92372 0.53069 0.67522 0.0
N1140 N 0.92923 0.53334 0.73804 0.0
C1141 C 0.92437 0.53872 0.77904 0.0
C1142 C 0.91523 0.53929 0.74032 0.0
C1143 C 0.90722 0.53281 0.61108 0.0
H1144 H 0.91307 0.53909 0.56775 0.0
H1145 H 0.90295 0.52322 0.59043 0.0
H1146 H 0.8999 0.535 0.62513 0.0
O1147 O 0.94709 0.53452 0.58717 0.0
O1148 O 0.9564 0.53932 0.69298 0.0
H1149 H 0.92625 0.55112 0.86513 0.0
H1150 H 0.92491 0.53675 0.89256 0.0
C1151 C 0.92897 0.54417 0.85168 0.0
H1152 H 0.93915 0.54862 0.85369 0.0
H1153 H 0.96329 0.54869 0.84821 0.0
O1154 O 0.9216 0.52298 0.5114 0.0
C1155 C 0.95684 0.54017 0.62489 0.0
Co1156 Co 0.47303 0.40413 0.59082 0.0
Co1157 Co 0.46777 0.41162 0.74025 0.0
C1158 C 0.49323 0.42406 0.67445 0.0
O1159 O 0.48975 0.41712 0.61956 0.0
O1160 O 0.4856 0.42289 0.72317 0.0
C1161 C 0.48335 0.40222 0.4582 0.0
O1162 O 0.49382 0.41069 0.48616 0.0
C1163 C 0.47176 0.41394 0.89273 0.0
C1164 C 0.45492 0.4133 0.93444 0.0
C1165 C 0.46567 0.41354 0.95553 0.0
N1166 N 0.46486 0.41378 0.83727 0.0
N1167 N 0.45494 0.41369 0.86229 0.0
C1168 C 0.48296 0.41261 0.88468 0.0
H1169 H 0.49135 0.42184 0.8891 0.0
H1170 H 0.48301 0.40866 0.83155 0.0
H1171 H 0.48329 0.40658 0.92727 0.0
C1172 C 0.46139 0.37951 0.65987 0.0
N1173 N 0.46557 0.39173 0.66121 0.0
N1174 N 0.46312 0.39478 0.72403 0.0
C1175 C 0.45719 0.38453 0.76474 0.0
C1176 C 0.4559 0.37452 0.72545 0.0
C1177 C 0.46198 0.37277 0.59512 0.0
H1178 H 0.45769 0.37482 0.54903 0.0
H1179 H 0.47178 0.37616 0.58125 0.0
H1180 H 0.45716 0.36265 0.60379 0.0
O1181 O 0.4627 0.41174 0.57236 0.0
O1182 O 0.45818 0.41658 0.678 0.0
H1183 H 0.44788 0.38927 0.84417 0.0
H1184 H 0.44764 0.37501 0.86279 0.0
C1185 C 0.45323 0.38442 0.84072 0.0
H1186 H 0.46152 0.38927 0.87491 0.0
H1187 H 0.44787 0.4132 0.83019 0.0
O1188 O 0.4737 0.39732 0.49691 0.0
C1189 C 0.45732 0.41615 0.60994 0.0
Co1190 Co 0.59202 0.0682 0.58774 0.0
Co1191 Co 0.58465 0.05541 0.73693 0.0
C1192 C 0.57254 0.06896 0.67262 0.0
O1193 O 0.57926 0.07223 0.61676 0.0
O1194 O 0.57373 0.06246 0.72099 0.0
C1195 C 0.59436 0.08063 0.45509 0.0
O1196 O 0.58599 0.08284 0.48254 0.0
C1197 C 0.58333 0.05788 0.889 0.0
C1198 C 0.58247 0.04104 0.93247 0.0
C1199 C 0.5833 0.05211 0.95236 0.0
N1200 N 0.58264 0.05062 0.83431 0.0
N1201 N 0.58189 0.04044 0.86036 0.0
C1202 C 0.58572 0.07079 0.87956 0.0
H1203 H 0.58953 0.07435 0.82551 0.0
H1204 H 0.59226 0.07702 0.92078 0.0
H1205 H 0.5769 0.0708 0.88538 0.0
C1206 C 0.61667 0.08117 0.65649 0.0
N1207 N 0.60446 0.07309 0.65773 0.0
N1208 N 0.6015 0.06723 0.71952 0.0
C1209 C 0.61183 0.07119 0.75898 0.0
C1210 C 0.62173 0.0802 0.72058 0.0
C1211 C 0.62336 0.08903 0.59322 0.0
H1212 H 0.62289 0.083 0.54832 0.0
H1213 H 0.6187 0.09414 0.57539 0.0
H1214 H 0.63318 0.09563 0.60576 0.0
O1215 O 0.58416 0.05018 0.56959 0.0
O1216 O 0.5793 0.04079 0.67525 0.0
H1217 H 0.60638 0.05625 0.83322 0.0
H1218 H 0.62174 0.06899 0.8482 0.0
C1219 C 0.61224 0.06643 0.83202 0.0
H1220 H 0.6087 0.07045 0.87185 0.0
H1221 H 0.58158 0.0334 0.82896 0.0
O1222 O 0.59897 0.07561 0.49396 0.0
C1223 C 0.57966 0.04038 0.60717 0.0
H1224 H 0.13071 0.43668 0.06939 0.0
H1225 H 0.07894 0.4367 0.31453 0.0
H1226 H 0.09783 0.40304 0.12974 0.0
H1227 H 0.09778 0.46489 0.15481 0.0
H1228 H 0.08892 0.42552 0.2668 0.0
H1229 H 0.12143 0.44855 0.11666 0.0
C1230 C 0.12152 0.43182 0.09227 0.0
C1231 C 0.11505 0.41891 0.09672 0.0
C1232 C 0.09092 0.4342 0.24266 0.0
C1233 C 0.10464 0.43232 0.15219 0.0
C1234 C 0.08535 0.44059 0.27016 0.0
C1235 C 0.08767 0.45167 0.23843 0.0
C1236 C 0.099 0.43911 0.18403 0.0
C1237 C 0.09588 0.45636 0.18055 0.0
C1238 C 0.11629 0.43857 0.11939 0.0
C1239 C 0.10321 0.41301 0.12691 0.0
N1240 N 0.10133 0.45007 0.15519 0.0
N1241 N 0.09842 0.41976 0.15442 0.0
H1242 H 0.53038 0.63181 0.15651 0.0
H1243 H 0.5938 0.69439 0.12602 0.0
H1244 H 0.55995 0.64156 0.30703 0.0
H1245 H 0.55961 0.69298 0.07194 0.0
H1246 H 0.58206 0.67347 0.17525 0.0
H1247 H 0.54135 0.65301 0.1091 0.0
C1248 C 0.53911 0.63852 0.18003 0.0
C1249 C 0.54429 0.63514 0.23597 0.0
C1250 C 0.57714 0.67775 0.15264 0.0
C1251 C 0.55696 0.659 0.18102 0.0
C1252 C 0.5838 0.68963 0.12459 0.0
C1253 C 0.57761 0.69542 0.09633 0.0
C1254 C 0.5642 0.67152 0.1506 0.0
C1255 C 0.56468 0.68879 0.09364 0.0
C1256 C 0.54535 0.65052 0.15302 0.0
C1257 C 0.55567 0.64397 0.26434 0.0
N1258 N 0.55836 0.67713 0.12047 0.0
N1259 N 0.56173 0.65551 0.23594 0.0
H1260 H 0.30672 0.89257 0.02898 0.0
H1261 H 0.35814 0.89169 0.2723 0.0
H1262 H 0.2969 0.86433 0.18907 0.0
H1263 H 0.35946 0.92562 0.21273 0.0
H1264 H 0.33685 0.88011 0.22671 0.0
H1265 H 0.32783 0.90351 0.07713 0.0
C1266 C 0.30912 0.88863 0.07362 0.0
C1267 C 0.30023 0.87759 0.10524 0.0
C1268 C 0.34184 0.89009 0.22386 0.0
C1269 C 0.3241 0.88989 0.16008 0.0
C1270 C 0.3539 0.89667 0.25003 0.0
C1271 C 0.36053 0.90957 0.24519 0.0
C1272 C 0.33656 0.89651 0.19164 0.0
C1273 C 0.3547 0.91565 0.21582 0.0
C1274 C 0.32106 0.89488 0.10134 0.0
C1275 C 0.30362 0.87284 0.16343 0.0
N1276 N 0.34309 0.90905 0.18917 0.0
N1277 N 0.31536 0.879 0.18896 0.0
H1278 H 0.46358 0.10451 0.71694 0.0
H1279 H 0.41585 0.1059 0.99452 0.0
H1280 H 0.43623 0.07214 0.82875 0.0
H1281 H 0.42951 0.13061 0.81365 0.0
H1282 H 0.42667 0.09541 0.94972 0.0
H1283 H 0.45407 0.11611 0.76487 0.0
C1284 C 0.45554 0.09985 0.75115 0.0
C1285 C 0.45066 0.08738 0.76907 0.0
C1286 C 0.42736 0.10318 0.92016 0.0
C1287 C 0.44006 0.10058 0.82543 0.0
C1288 C 0.4213 0.1092 0.94594 0.0
C1289 C 0.42186 0.11907 0.90747 0.0
C1290 C 0.43414 0.10722 0.8561 0.0
C1291 C 0.4289 0.12298 0.84447 0.0
C1292 C 0.45019 0.10646 0.77876 0.0
C1293 C 0.44036 0.08179 0.81452 0.0
N1294 N 0.43481 0.11705 0.82061 0.0
N1295 N 0.43545 0.08845 0.84158 0.0
H1296 H 0.92642 0.36083 0.78983 0.0
H1297 H 0.86344 0.29774 0.81501 0.0
H1298 H 0.89213 0.35905 0.73403 0.0
H1299 H 0.8926 0.30773 0.96885 0.0
H1300 H 0.87433 0.31898 0.76817 0.0
H1301 H 0.9148 0.33981 0.83782 0.0
C1302 C 0.91643 0.35598 0.78778 0.0
C1303 C 0.91017 0.36168 0.75939 0.0
C1304 C 0.87826 0.31653 0.81263 0.0
C1305 C 0.89691 0.33767 0.81215 0.0
C1306 C 0.87207 0.3045 0.83928 0.0
C1307 C 0.87715 0.30118 0.89603 0.0
C1308 C 0.88973 0.3251 0.84185 0.0
C1309 C 0.8884 0.31008 0.92546 0.0
C1310 C 0.90984 0.34404 0.8151 0.0
C1311 C 0.89725 0.35493 0.75585 0.0
N1312 N 0.89441 0.32165 0.89744 0.0
N1313 N 0.891 0.34322 0.78194 0.0
H1314 H 0.69036 0.55866 0.94883 0.0
H1315 H 0.64156 0.5583 0.67309 0.0
H1316 H 0.69573 0.59136 0.8393 0.0
H1317 H 0.63021 0.53326 0.85247 0.0
H1318 H 0.66281 0.56861 0.71856 0.0
H1319 H 0.66919 0.54738 0.90155 0.0
C1320 C 0.68705 0.56347 0.91529 0.0
C1321 C 0.69476 0.57593 0.89775 0.0
C1322 C 0.65568 0.56081 0.7477 0.0
C1323 C 0.67088 0.56309 0.84215 0.0
C1324 C 0.64363 0.5549 0.72154 0.0
C1325 C 0.63426 0.54498 0.75932 0.0
C1326 C 0.65833 0.55662 0.81145 0.0
C1327 C 0.63727 0.54094 0.82218 0.0
C1328 C 0.67504 0.55703 0.88806 0.0
C1329 C 0.69013 0.5817 0.85317 0.0
N1330 N 0.6491 0.54676 0.84639 0.0
N1331 N 0.67852 0.57521 0.82644 0.0
H1332 H 0.89723 0.59373 0.87526 0.0
H1333 H 0.89773 0.53096 0.84428 0.0
H1334 H 0.86494 0.55925 0.93088 0.0
H1335 H 0.91676 0.5605 0.6924 0.0
H1336 H 0.8873 0.54165 0.89285 0.0
H1337 H 0.90672 0.58229 0.82578 0.0
C1338 C 0.89217 0.58373 0.87701 0.0
C1339 C 0.88023 0.57737 0.9057 0.0
C1340 C 0.89366 0.54571 0.84842 0.0
C1341 C 0.89108 0.56431 0.85116 0.0
C1342 C 0.89954 0.53963 0.82075 0.0
C1343 C 0.90793 0.54487 0.76407 0.0
C1344 C 0.89651 0.55724 0.82029 0.0
C1345 C 0.91021 0.55617 0.73568 0.0
C1346 C 0.89756 0.57724 0.84881 0.0
C1347 C 0.87416 0.56445 0.90881 0.0
N1348 N 0.90462 0.56208 0.76469 0.0
N1349 N 0.87966 0.5583 0.88181 0.0
H1350 H 0.46552 0.35914 0.7245 0.0
H1351 H 0.4133 0.30891 0.97422 0.0
H1352 H 0.43272 0.36046 0.77921 0.0
H1353 H 0.43183 0.29831 0.81935 0.0
H1354 H 0.42354 0.3298 0.9225 0.0
H1355 H 0.45598 0.33813 0.77457 0.0
C1356 C 0.45629 0.35495 0.7466 0.0
C1357 C 0.44993 0.36152 0.74889 0.0
C1358 C 0.42543 0.32291 0.90033 0.0
C1359 C 0.43922 0.33789 0.80755 0.0
C1360 C 0.41971 0.31111 0.93014 0.0
C1361 C 0.42186 0.30207 0.90091 0.0
C1362 C 0.43347 0.32565 0.84189 0.0
C1363 C 0.43006 0.30517 0.84323 0.0
C1364 C 0.4509 0.34306 0.77535 0.0
C1365 C 0.43801 0.35575 0.77803 0.0
N1366 N 0.43566 0.31677 0.81558 0.0
N1367 N 0.43309 0.34432 0.80725 0.0
H1368 H 0.69243 0.09701 0.89083 0.0
H1369 H 0.63629 0.10478 0.74681 0.0
H1370 H 0.69337 0.13189 0.88795 0.0
H1371 H 0.63645 0.07044 0.74615 0.0
H1372 H 0.65726 0.11513 0.79705 0.0
H1373 H 0.67165 0.08709 0.83967 0.0
C1374 C 0.68815 0.10252 0.87977 0.0
C1375 C 0.69451 0.11522 0.89303 0.0
C1376 C 0.65274 0.10534 0.7856 0.0
C1377 C 0.67087 0.10407 0.83419 0.0
C1378 C 0.64085 0.0995 0.75659 0.0
C1379 C 0.63475 0.08681 0.74295 0.0
C1380 C 0.65847 0.09838 0.80083 0.0
C1381 C 0.64091 0.08026 0.75652 0.0
C1382 C 0.67634 0.09691 0.85037 0.0
C1383 C 0.68866 0.12204 0.87834 0.0
N1384 N 0.65242 0.08611 0.78509 0.0
N1385 N 0.67716 0.11638 0.84927 0.0
H1386 H 0.5603 0.91814 0.30404 0.0
H1387 H 0.55858 0.8652 0.06313 0.0
H1388 H 0.53206 0.89994 0.1439 0.0
H1389 H 0.59279 0.89751 0.12218 0.0
H1390 H 0.54728 0.87525 0.10797 0.0
H1391 H 0.57101 0.90766 0.25668 0.0
C1392 C 0.55631 0.91179 0.25954 0.0
C1393 C 0.54534 0.90978 0.22766 0.0
C1394 C 0.55726 0.88011 0.11088 0.0
C1395 C 0.55737 0.89786 0.17378 0.0
C1396 C 0.56368 0.87443 0.08513 0.0
C1397 C 0.57658 0.88051 0.09003 0.0
C1398 C 0.56382 0.89181 0.14274 0.0
C1399 C 0.58281 0.89243 0.11905 0.0
C1400 C 0.56243 0.90592 0.23228 0.0
C1401 C 0.54052 0.90162 0.1697 0.0
N1402 N 0.57636 0.89764 0.14529 0.0
N1403 N 0.54654 0.89586 0.14465 0.0
H1404 H 0.09713 0.69375 0.10727 0.0
H1405 H 0.0973 0.63092 0.14754 0.0
H1406 H 0.12984 0.69193 0.05764 0.0
H1407 H 0.07763 0.64147 0.29442 0.0
H1408 H 0.10769 0.65195 0.09744 0.0
H1409 H 0.08768 0.67289 0.15768 0.0
C1410 C 0.10229 0.6889 0.10694 0.0
C1411 C 0.11433 0.69457 0.07976 0.0
C1412 C 0.1012 0.64967 0.14114 0.0
C1413 C 0.10354 0.67074 0.13547 0.0
C1414 C 0.09534 0.63777 0.16968 0.0
C1415 C 0.08678 0.63467 0.22539 0.0
C1416 C 0.09816 0.65832 0.16737 0.0
C1417 C 0.08431 0.64366 0.25195 0.0
C1418 C 0.09692 0.67706 0.13571 0.0
C1419 C 0.12054 0.68784 0.07854 0.0
N1420 N 0.08988 0.65509 0.22208 0.0
N1421 N 0.11506 0.67622 0.10612 0.0
H1422 H 0.35923 0.46549 0.25096 0.0
H1423 H 0.3071 0.41266 0.01257 0.0
H1424 H 0.35996 0.43244 0.19484 0.0
H1425 H 0.29809 0.43254 0.16686 0.0
H1426 H 0.32831 0.4228 0.05948 0.0
H1427 H 0.33803 0.45607 0.20434 0.0
C1428 C 0.35488 0.45623 0.22917 0.0
C1429 C 0.36132 0.44975 0.22567 0.0
C1430 C 0.32169 0.425 0.08261 0.0
C1431 C 0.33744 0.43916 0.17101 0.0
C1432 C 0.30971 0.41933 0.05555 0.0
C1433 C 0.30103 0.42191 0.08599 0.0
C1434 C 0.32498 0.43341 0.13953 0.0
C1435 C 0.30465 0.43045 0.14212 0.0
C1436 C 0.34287 0.45091 0.20241 0.0
C1437 C 0.35535 0.43781 0.19692 0.0
N1438 N 0.31643 0.43598 0.16709 0.0
N1439 N 0.34378 0.43294 0.16978 0.0
H1440 H 0.79675 0.77146 0.37557 0.0
H1441 H 0.74901 0.77294 0.65233 0.0
H1442 H 0.76934 0.73908 0.48705 0.0
H1443 H 0.76275 0.79767 0.47161 0.0
H1444 H 0.75965 0.7623 0.60703 0.0
H1445 H 0.78714 0.78302 0.42264 0.0
C1446 C 0.78867 0.76678 0.4095 0.0
C1447 C 0.78381 0.75432 0.42761 0.0
C1448 C 0.76039 0.7701 0.57755 0.0
C1449 C 0.77309 0.76748 0.48297 0.0
C1450 C 0.75442 0.7762 0.60362 0.0
C1451 C 0.75508 0.78614 0.56543 0.0
C1452 C 0.76717 0.77412 0.5135 0.0
C1453 C 0.76206 0.79 0.50223 0.0
C1454 C 0.78326 0.77338 0.43661 0.0
C1455 C 0.77346 0.74872 0.4727 0.0
N1456 N 0.76789 0.78399 0.47814 0.0
N1457 N 0.76849 0.75536 0.4993 0.0
H1458 H 0.22947 0.03175 0.4961 0.0
H1459 H 0.23148 0.96998 0.54443 0.0
H1460 H 0.2502 0.02176 0.35414 0.0
H1461 H 0.19827 0.97099 0.59162 0.0
H1462 H 0.2405 0.99068 0.49221 0.0
H1463 H 0.2194 0.01082 0.54733 0.0
C1464 C 0.23171 0.02503 0.47515 0.0
C1465 C 0.24047 0.02827 0.42054 0.0
C1466 C 0.23124 0.98636 0.51403 0.0
C1467 C 0.22948 0.00473 0.47998 0.0
C1468 C 0.22613 0.97462 0.54386 0.0
C1469 C 0.21407 0.96876 0.57089 0.0
C1470 C 0.22435 0.99241 0.51298 0.0
C1471 C 0.20759 0.97523 0.57087 0.0
C1472 C 0.22604 0.01318 0.50438 0.0
C1473 C 0.24333 0.01945 0.39565 0.0
N1474 N 0.21282 0.98676 0.54223 0.0
N1475 N 0.23794 0.00808 0.42619 0.0
H1476 H 0.02198 0.25069 0.64432 0.0
H1477 H 0.97059 0.19914 0.39703 0.0
H1478 H 0.03167 0.2322 0.48423 0.0
H1479 H 0.96962 0.23189 0.45774 0.0
H1480 H 0.99173 0.20847 0.44448 0.0
H1481 H 0.0009 0.24075 0.59556 0.0
C1482 C 0.01955 0.24437 0.59963 0.0
C1483 C 0.02839 0.24214 0.56811 0.0
C1484 C 0.98685 0.21358 0.44722 0.0
C1485 C 0.00458 0.23084 0.51255 0.0
C1486 C 0.97488 0.20832 0.41998 0.0
C1487 C 0.96837 0.21473 0.42457 0.0
C1488 C 0.99218 0.2252 0.48024 0.0
C1489 C 0.97426 0.22656 0.45482 0.0
C1490 C 0.00763 0.23881 0.57155 0.0
C1491 C 0.02498 0.23404 0.50981 0.0
N1492 N 0.98579 0.23137 0.48247 0.0
N1493 N 0.01327 0.22859 0.4839 0.0
H1494 H 0.19884 0.22669 0.59625 0.0
H1495 H 0.25104 0.22729 0.35341 0.0
H1496 H 0.2316 0.26054 0.53746 0.0
H1497 H 0.23239 0.19899 0.5129 0.0
H1498 H 0.24102 0.23836 0.40185 0.0
H1499 H 0.20847 0.21503 0.55075 0.0
C1500 C 0.20808 0.23164 0.57415 0.0
C1501 C 0.21441 0.24454 0.5695 0.0
C1502 C 0.23908 0.22969 0.42588 0.0
C1503 C 0.22523 0.23138 0.51608 0.0
C1504 C 0.24468 0.22337 0.39799 0.0
C1505 C 0.24241 0.21227 0.42934 0.0
C1506 C 0.23102 0.22472 0.4845 0.0
C1507 C 0.23426 0.20754 0.48747 0.0
C1508 C 0.21352 0.22501 0.54805 0.0
C1509 C 0.22633 0.25057 0.54037 0.0
N1510 N 0.22876 0.21377 0.51315 0.0
N1511 N 0.23131 0.24393 0.51378 0.0
H1512 H 0.73598 0.96993 0.53629 0.0
H1513 H 0.79909 0.03286 0.508 0.0
H1514 H 0.77028 0.97166 0.59127 0.0
H1515 H 0.76975 0.02286 0.35546 0.0
H1516 H 0.78818 0.01166 0.55547 0.0
H1517 H 0.74761 0.99089 0.48741 0.0
C1518 C 0.74598 0.97476 0.53796 0.0
C1519 C 0.75224 0.96905 0.56639 0.0
C1520 C 0.78422 0.0141 0.51114 0.0
C1521 C 0.76551 0.993 0.51263 0.0
C1522 C 0.79041 0.0261 0.48413 0.0
C1523 C 0.78529 0.0294 0.42757 0.0
C1524 C 0.77269 0.00554 0.48249 0.0
C1525 C 0.77399 0.02051 0.39868 0.0
C1526 C 0.75258 0.98666 0.51014 0.0
C1527 C 0.76516 0.97578 0.56944 0.0
N1528 N 0.76796 0.00897 0.42706 0.0
N1529 N 0.77142 0.98746 0.54287 0.0
H1530 H 0.97084 0.77221 0.37983 0.0
H1531 H 0.02196 0.7711 0.62514 0.0
H1532 H 0.96916 0.73819 0.44161 0.0
H1533 H 0.03201 0.79921 0.46394 0.0
H1534 H 0.00085 0.76025 0.57688 0.0
H1535 H 0.99213 0.78369 0.42555 0.0
C1536 C 0.975 0.76718 0.40263 0.0
C1537 C 0.96826 0.75429 0.40805 0.0
C1538 C 0.00767 0.76884 0.55245 0.0
C1539 C 0.99224 0.76725 0.46173 0.0
C1540 C 0.01961 0.77504 0.58023 0.0
C1541 C 0.02856 0.78601 0.54833 0.0
C1542 C 0.0047 0.77381 0.49335 0.0
C1543 C 0.02525 0.79076 0.4898 0.0
C1544 C 0.98706 0.77371 0.42886 0.0
C1545 C 0.974 0.74817 0.43807 0.0
N1546 N 0.01351 0.78465 0.46421 0.0
N1547 N 0.98561 0.75471 0.46475 0.0
H1548 H 0.17735 0.41267 0.92907 0.0
H1549 H 0.22284 0.39586 0.13622 0.0
H1550 H 0.16938 0.39461 0.13543 0.0
H1551 H 0.23037 0.41251 0.92586 0.0
H1552 H 0.2046 0.39808 0.144 0.0
H1553 H 0.19808 0.41542 0.93435 0.0
C1554 C 0.17999 0.4094 0.97585 0.0
C1555 C 0.17153 0.40323 0.03142 0.0
C1556 C 0.21029 0.40135 0.09637 0.0
C1557 C 0.19525 0.40632 0.03759 0.0
C1558 C 0.22073 0.40008 0.09185 0.0
C1559 C 0.22806 0.40384 0.02981 0.0
C1560 C 0.20711 0.40635 0.03832 0.0
C1561 C 0.22492 0.40938 0.97444 0.0
C1562 C 0.19183 0.41096 0.97876 0.0
C1563 C 0.17552 0.39928 0.09091 0.0
N1564 N 0.21461 0.41035 0.97969 0.0
N1565 N 0.18704 0.40079 0.09208 0.0
H1566 H 0.58437 0.76461 0.92652 0.0
H1567 H 0.60064 0.82622 0.13929 0.0
H1568 H 0.60142 0.77384 0.13572 0.0
H1569 H 0.58435 0.81776 0.92803 0.0
H1570 H 0.59833 0.80573 0.14532 0.0
H1571 H 0.58168 0.78263 0.93257 0.0
C1572 C 0.58743 0.77034 0.97406 0.0
C1573 C 0.59329 0.76779 0.03027 0.0
C1574 C 0.59515 0.8083 0.09787 0.0
C1575 C 0.59027 0.78846 0.03735 0.0
C1576 C 0.59646 0.82002 0.09438 0.0
C1577 C 0.59283 0.8238 0.03263 0.0
C1578 C 0.59025 0.80029 0.03903 0.0
C1579 C 0.58738 0.81529 0.97646 0.0
C1580 C 0.5859 0.78064 0.97742 0.0
C1581 C 0.59699 0.77551 0.09069 0.0
N1582 N 0.58638 0.80398 0.98068 0.0
N1583 N 0.59552 0.78554 0.09231 0.0
H1584 H 0.2219 0.82513 0.13014 0.0
H1585 H 0.17664 0.76481 0.90686 0.0
H1586 H 0.22989 0.81827 0.91531 0.0
H1587 H 0.16921 0.77253 0.12098 0.0
H1588 H 0.19723 0.78305 0.91343 0.0
H1589 H 0.20371 0.80468 0.13204 0.0
C1590 C 0.21989 0.81929 0.08345 0.0
C1591 C 0.22739 0.8235 0.02215 0.0
C1592 C 0.19113 0.78067 0.95918 0.0
C1593 C 0.20641 0.8 0.02383 0.0
C1594 C 0.17937 0.77025 0.95555 0.0
C1595 C 0.17111 0.76721 0.01313 0.0
C1596 C 0.19463 0.78811 0.02078 0.0
C1597 C 0.17519 0.77458 0.07492 0.0
C1598 C 0.20947 0.80758 0.08461 0.0
C1599 C 0.22433 0.81544 0.96356 0.0
N1600 N 0.18661 0.78472 0.07683 0.0
N1601 N 0.214 0.80412 0.96557 0.0
H1602 H 0.41151 0.23212 0.07769 0.0
H1603 H 0.39472 0.17036 0.86418 0.0
H1604 H 0.39482 0.22332 0.86749 0.0
H1605 H 0.4102 0.17833 0.0775 0.0
H1606 H 0.39708 0.19089 0.85882 0.0
H1607 H 0.41351 0.21369 0.0727 0.0
C1608 C 0.40838 0.22639 0.03018 0.0
C1609 C 0.40284 0.2292 0.9733 0.0
C1610 C 0.40005 0.18819 0.90662 0.0
C1611 C 0.40505 0.20805 0.96745 0.0
C1612 C 0.3987 0.17645 0.90976 0.0
C1613 C 0.40213 0.17254 0.97178 0.0
C1614 C 0.40481 0.19609 0.966 0.0
C1615 C 0.40735 0.18091 0.02881 0.0
C1616 C 0.4095 0.21585 0.02744 0.0
C1617 C 0.39902 0.22146 0.91298 0.0
N1618 N 0.40842 0.19225 0.02478 0.0
N1619 N 0.4001 0.21119 0.91193 0.0
H1620 H 0.77211 0.16988 0.85249 0.0
H1621 H 0.81693 0.23117 0.06964 0.0
H1622 H 0.76421 0.17761 0.06545 0.0
H1623 H 0.82477 0.22286 0.85797 0.0
H1624 H 0.79641 0.21289 0.06329 0.0
H1625 H 0.79016 0.1905 0.84778 0.0
C1626 C 0.7741 0.17595 0.89808 0.0
C1627 C 0.76672 0.17193 0.95988 0.0
C1628 C 0.80258 0.21513 0.01799 0.0
C1629 C 0.78745 0.19557 0.95495 0.0
C1630 C 0.81431 0.22558 0.02153 0.0
C1631 C 0.82267 0.22847 0.96465 0.0
C1632 C 0.7992 0.20751 0.9572 0.0
C1633 C 0.81871 0.22092 0.90352 0.0
C1634 C 0.78443 0.18774 0.89533 0.0
C1635 C 0.76969 0.18027 0.01693 0.0
N1636 N 0.80731 0.21074 0.90171 0.0
N1637 N 0.77991 0.19165 0.01338 0.0
H1638 H 0.76509 0.58651 0.08922 0.0
H1639 H 0.82338 0.5966 0.86208 0.0
H1640 H 0.77016 0.59548 0.86387 0.0
H1641 H 0.81801 0.58583 0.08499 0.0
H1642 H 0.80264 0.59373 0.85879 0.0
H1643 H 0.78306 0.58366 0.08597 0.0
C1644 C 0.76988 0.58774 0.03884 0.0
C1645 C 0.76625 0.59151 0.97696 0.0
C1646 C 0.80593 0.59186 0.9083 0.0
C1647 C 0.78684 0.58831 0.97301 0.0
C1648 C 0.81779 0.59352 0.91022 0.0
C1649 C 0.82251 0.59162 0.97417 0.0
C1650 C 0.79874 0.58841 0.97097 0.0
C1651 C 0.81479 0.58749 0.03463 0.0
C1652 C 0.78016 0.58614 0.03708 0.0
C1653 C 0.77277 0.59289 0.91322 0.0
N1654 N 0.80333 0.58618 0.03181 0.0
N1655 N 0.78281 0.59142 0.91307 0.0
H1656 H 0.84321 0.74387 0.235 0.0
H1657 H 0.89174 0.73343 0.45612 0.0
H1658 H 0.83939 0.73401 0.45905 0.0
H1659 H 0.897 0.74489 0.23441 0.0
H1660 H 0.87375 0.73606 0.46131 0.0
H1661 H 0.86406 0.74679 0.23672 0.0
C1662 C 0.84678 0.74245 0.2848 0.0
C1663 C 0.83941 0.73844 0.34673 0.0
C1664 C 0.87889 0.73813 0.41165 0.0
C1665 C 0.86323 0.74172 0.3489 0.0
C1666 C 0.88919 0.73662 0.40864 0.0
C1667 C 0.89581 0.73879 0.34446 0.0
C1668 C 0.87508 0.74172 0.34984 0.0
C1669 C 0.89212 0.74303 0.2849 0.0
C1670 C 0.85868 0.7441 0.28568 0.0
C1671 C 0.84458 0.73683 0.40968 0.0
N1672 N 0.8819 0.7442 0.28876 0.0
N1673 N 0.8561 0.73835 0.40896 0.0
H1674 H 0.25261 0.15277 0.23679 0.0
H1675 H 0.26639 0.106 0.45546 0.0
H1676 H 0.26835 0.15961 0.44936 0.0
H1677 H 0.25298 0.09952 0.23746 0.0
H1678 H 0.26452 0.12444 0.45881 0.0
H1679 H 0.25018 0.13211 0.24058 0.0
C1680 C 0.25544 0.14991 0.28448 0.0
C1681 C 0.2608 0.158 0.34258 0.0
C1682 C 0.2619 0.11896 0.41034 0.0
C1683 C 0.25805 0.1344 0.34718 0.0
C1684 C 0.26297 0.1084 0.40838 0.0
C1685 C 0.25999 0.10127 0.34575 0.0
C1686 C 0.2579 0.12249 0.34912 0.0
C1687 C 0.25546 0.10478 0.28673 0.0
C1688 C 0.25407 0.13812 0.28655 0.0
C1689 C 0.26427 0.15376 0.40303 0.0
N1690 N 0.25467 0.11522 0.28962 0.0
N1691 N 0.2629 0.1423 0.40353 0.0
H1692 H 0.89892 0.15294 0.25333 0.0
H1693 H 0.83764 0.10721 0.46846 0.0
H1694 H 0.89003 0.16041 0.4644 0.0
H1695 H 0.84559 0.09995 0.25449 0.0
H1696 H 0.85813 0.12542 0.47382 0.0
H1697 H 0.88083 0.13228 0.25887 0.0
C1698 C 0.89326 0.1502 0.30117 0.0
C1699 C 0.89592 0.1585 0.3581 0.0
C1700 C 0.85544 0.1198 0.42588 0.0
C1701 C 0.87517 0.13487 0.36459 0.0
C1702 C 0.84372 0.10938 0.42275 0.0
C1703 C 0.83981 0.10212 0.36051 0.0
C1704 C 0.86331 0.12304 0.36624 0.0
C1705 C 0.84817 0.10533 0.30334 0.0
C1706 C 0.88291 0.1384 0.30423 0.0
C1707 C 0.88827 0.1544 0.41885 0.0
N1708 N 0.85949 0.11563 0.3073 0.0
N1709 N 0.8782 0.14292 0.42019 0.0
H1710 H 0.07778 0.51224 0.40999 0.0
H1711 H 0.06111 0.55681 0.19063 0.0
H1712 H 0.06171 0.50426 0.19815 0.0
H1713 H 0.07624 0.56463 0.40479 0.0
H1714 H 0.0637 0.53876 0.18704 0.0
H1715 H 0.07973 0.53265 0.40348 0.0
C1716 C 0.07478 0.51481 0.36181 0.0
C1717 C 0.06943 0.50645 0.30491 0.0
C1718 C 0.06655 0.54447 0.23464 0.0
C1719 C 0.07158 0.52977 0.29729 0.0
C1720 C 0.06507 0.55479 0.23677 0.0
C1721 C 0.06831 0.56217 0.2985 0.0
C1722 C 0.07126 0.54145 0.29478 0.0
C1723 C 0.07352 0.55916 0.35628 0.0
C1724 C 0.07588 0.52646 0.35819 0.0
C1725 C 0.06576 0.51033 0.2437 0.0
N1726 N 0.07471 0.54895 0.35327 0.0
N1727 N 0.06681 0.52166 0.2418 0.0
H1728 H 0.48402 0.56489 0.405 0.0
H1729 H 0.43943 0.50414 0.18294 0.0
H1730 H 0.49227 0.55692 0.19354 0.0
H1731 H 0.43126 0.51145 0.39624 0.0
H1732 H 0.45753 0.52474 0.17991 0.0
H1733 H 0.46346 0.54669 0.3968 0.0
C1734 C 0.48148 0.5594 0.35657 0.0
C1735 C 0.48996 0.56235 0.30028 0.0
C1736 C 0.45172 0.52189 0.22716 0.0
C1737 C 0.46646 0.54149 0.2907 0.0
C1738 C 0.44136 0.51011 0.22894 0.0
C1739 C 0.43389 0.50598 0.29036 0.0
C1740 C 0.45469 0.52959 0.28736 0.0
C1741 C 0.4368 0.51419 0.34799 0.0
C1742 C 0.46974 0.54899 0.35196 0.0
C1743 C 0.48611 0.55492 0.23866 0.0
N1744 N 0.44705 0.52556 0.34538 0.0
N1745 N 0.47469 0.54478 0.23582 0.0
H1746 H 0.43061 0.91718 0.40933 0.0
H1747 H 0.4915 0.93344 0.18766 0.0
H1748 H 0.43879 0.93357 0.19824 0.0
H1749 H 0.48455 0.91878 0.40302 0.0
H1750 H 0.47079 0.93068 0.1843 0.0
H1751 H 0.44884 0.91485 0.40149 0.0
C1752 C 0.43614 0.92016 0.361 0.0
C1753 C 0.43325 0.92574 0.30476 0.0
C1754 C 0.47375 0.92797 0.2321 0.0
C1755 C 0.45415 0.92314 0.29562 0.0
C1756 C 0.48559 0.92954 0.23409 0.0
C1757 C 0.48985 0.92651 0.29614 0.0
C1758 C 0.46611 0.92338 0.2927 0.0
C1759 C 0.4817 0.92136 0.35427 0.0
C1760 C 0.44657 0.91884 0.35663 0.0
C1761 C 0.44073 0.92935 0.24329 0.0
N1762 N 0.47027 0.92008 0.35142 0.0
N1763 N 0.45089 0.92809 0.24068 0.0
H1764 H 0.50985 0.07712 0.57401 0.0
H1765 H 0.5586 0.06642 0.79102 0.0
H1766 H 0.50605 0.06666 0.79705 0.0
H1767 H 0.56366 0.07826 0.57001 0.0
H1768 H 0.54055 0.06897 0.79767 0.0
H1769 H 0.53072 0.08012 0.57482 0.0
C1770 C 0.51343 0.07558 0.62341 0.0
C1771 C 0.50606 0.07138 0.68529 0.0
C1772 C 0.54567 0.07113 0.74785 0.0
C1773 C 0.52992 0.07476 0.68642 0.0
C1774 C 0.55598 0.06967 0.74401 0.0
C1775 C 0.56256 0.07197 0.67956 0.0
C1776 C 0.5418 0.07481 0.68663 0.0
C1777 C 0.55881 0.07629 0.62066 0.0
C1778 C 0.52535 0.07728 0.62377 0.0
C1779 C 0.51124 0.06962 0.74773 0.0
N1780 N 0.54858 0.07742 0.62534 0.0
N1781 N 0.52278 0.0712 0.74649 0.0
H1782 H 0.93411 0.49306 0.80301 0.0
H1783 H 0.91794 0.43159 0.58828 0.0
H1784 H 0.91888 0.48525 0.58909 0.0
H1785 H 0.93447 0.4404 0.7989 0.0
H1786 H 0.91568 0.44987 0.59354 0.0
H1787 H 0.93177 0.47254 0.80815 0.0
C1788 C 0.93019 0.487 0.75724 0.0
C1789 C 0.92684 0.49096 0.69512 0.0
C1790 C 0.91969 0.44773 0.63885 0.0
C1791 C 0.92418 0.46742 0.70062 0.0
C1792 C 0.92097 0.43728 0.63596 0.0
C1793 C 0.92655 0.43453 0.69286 0.0
C1794 C 0.92403 0.4555 0.69903 0.0
C1795 C 0.93024 0.44221 0.75339 0.0
C1796 C 0.92885 0.47527 0.76026 0.0
C1797 C 0.92168 0.48263 0.63787 0.0
N1798 N 0.92901 0.45239 0.75459 0.0
N1799 N 0.92062 0.47129 0.64174 0.0
H1800 H 0.5116 0.43177 0.57332 0.0
H1801 H 0.55608 0.49333 0.78883 0.0
H1802 H 0.50423 0.43986 0.7867 0.0
H1803 H 0.56403 0.48595 0.57513 0.0
H1804 H 0.53823 0.47267 0.79337 0.0
H1805 H 0.53195 0.45034 0.5777 0.0
C1806 C 0.5143 0.43735 0.62143 0.0
C1807 C 0.50611 0.43432 0.67938 0.0
C1808 C 0.54391 0.47551 0.74561 0.0
C1809 C 0.52936 0.45562 0.68448 0.0
C1810 C 0.55413 0.48734 0.74293 0.0
C1811 C 0.56153 0.49146 0.68118 0.0
C1812 C 0.54095 0.4677 0.68594 0.0
C1813 C 0.55855 0.48321 0.62366 0.0
C1814 C 0.52592 0.44797 0.62379 0.0
C1815 C 0.51016 0.44189 0.74038 0.0
N1816 N 0.54841 0.47175 0.62717 0.0
N1817 N 0.52144 0.45223 0.74104 0.0
H1818 H 0.72981 0.89138 0.52662 0.0
H1819 H 0.74476 0.84584 0.74919 0.0
H1820 H 0.74411 0.89884 0.74267 0.0
H1821 H 0.7288 0.83824 0.53708 0.0
H1822 H 0.74719 0.86648 0.74266 0.0
H1823 H 0.73213 0.87319 0.52416 0.0
C1824 C 0.73355 0.88927 0.57338 0.0
C1825 C 0.73661 0.89657 0.63531 0.0
C1826 C 0.74326 0.86031 0.69736 0.0
C1827 C 0.73921 0.87565 0.63303 0.0
C1828 C 0.74188 0.84853 0.70102 0.0
C1829 C 0.73644 0.84023 0.64392 0.0
C1830 C 0.73918 0.8638 0.63618 0.0
C1831 C 0.73293 0.84426 0.58273 0.0
C1832 C 0.73487 0.87885 0.57195 0.0
C1833 C 0.74154 0.89343 0.69395 0.0
N1834 N 0.73428 0.85571 0.58074 0.0
N1835 N 0.74256 0.88311 0.69167 0.0
H1836 H 0.15233 0.89859 0.74696 0.0
H1837 H 0.10695 0.83824 0.52431 0.0
H1838 H 0.15962 0.89084 0.53257 0.0
H1839 H 0.09902 0.84514 0.73918 0.0
H1840 H 0.12517 0.85867 0.52232 0.0
H1841 H 0.13175 0.88033 0.74088 0.0
C1842 C 0.14957 0.89315 0.69832 0.0
C1843 C 0.15779 0.89618 0.64051 0.0
C1844 C 0.11941 0.85578 0.56979 0.0
C1845 C 0.13428 0.87526 0.63341 0.0
C1846 C 0.10898 0.84408 0.57099 0.0
C1847 C 0.10148 0.83989 0.63231 0.0
C1848 C 0.12249 0.86337 0.63053 0.0
C1849 C 0.10457 0.84795 0.69091 0.0
C1850 C 0.13783 0.8827 0.69497 0.0
C1851 C 0.15368 0.8888 0.57879 0.0
N1852 N 0.11492 0.85927 0.68884 0.0
N1853 N 0.14226 0.87864 0.57715 0.0
H1854 H 0.09815 0.25059 0.73939 0.0
H1855 H 0.15953 0.26744 0.52167 0.0
H1856 H 0.10649 0.26698 0.52825 0.0
H1857 H 0.15198 0.25202 0.73521 0.0
H1858 H 0.1388 0.2646 0.51686 0.0
H1859 H 0.11643 0.24834 0.73245 0.0
C1860 C 0.10373 0.2536 0.69125 0.0
C1861 C 0.10087 0.25915 0.63474 0.0
C1862 C 0.14162 0.26173 0.56455 0.0
C1863 C 0.12183 0.25664 0.62663 0.0
C1864 C 0.15348 0.26335 0.56735 0.0
C1865 C 0.15758 0.26012 0.62936 0.0
C1866 C 0.13381 0.25692 0.62432 0.0
C1867 C 0.14926 0.25474 0.68654 0.0
C1868 C 0.11418 0.25232 0.68738 0.0
C1869 C 0.10841 0.26279 0.57353 0.0
N1870 N 0.13782 0.25344 0.68294 0.0
N1871 N 0.1186 0.26158 0.57142 0.0
H1872 H 0.08331 0.29402 0.85095 0.0
H1873 H 0.11972 0.36753 0.81359 0.0
H1874 H 0.09342 0.31314 0.64775 0.0
H1875 H 0.11061 0.3484 0.0168 0.0
H1876 H 0.10918 0.34771 0.75214 0.0
H1877 H 0.09229 0.31382 0.91232 0.0
C1878 C 0.08737 0.30238 0.81909 0.0
C1879 C 0.08765 0.30189 0.7439 0.0
C1880 C 0.10945 0.34784 0.81016 0.0
C1881 C 0.09799 0.32466 0.81427 0.0
C1882 C 0.11547 0.35917 0.84544 0.0
C1883 C 0.11611 0.35966 0.92066 0.0
C1884 C 0.10402 0.33687 0.8502 0.0
C1885 C 0.11039 0.34849 0.95881 0.0
C1886 C 0.09251 0.3137 0.85432 0.0
C1887 C 0.09302 0.31305 0.70572 0.0
N1888 N 0.10462 0.33756 0.92314 0.0
N1889 N 0.09802 0.32398 0.74135 0.0
H1890 H 0.64774 0.7605 0.01866 0.0
H1891 H 0.68292 0.7784 0.64077 0.0
H1892 H 0.62908 0.75154 0.81411 0.0
H1893 H 0.70144 0.7867 0.84567 0.0
H1894 H 0.66307 0.76766 0.70303 0.0
H1895 H 0.66751 0.76936 0.95592 0.0
C1896 C 0.64778 0.76035 0.96062 0.0
C1897 C 0.63671 0.75531 0.9217 0.0
C1898 C 0.67149 0.77178 0.73429 0.0
C1899 C 0.65933 0.76547 0.84945 0.0
C1900 C 0.68283 0.77791 0.69875 0.0
C1901 C 0.69389 0.78353 0.73796 0.0
C1902 C 0.67119 0.77129 0.8096 0.0
C1903 C 0.69318 0.78257 0.81308 0.0
C1904 C 0.65908 0.76541 0.92478 0.0
C1905 C 0.63737 0.75536 0.84647 0.0
N1906 N 0.68204 0.77663 0.84636 0.0
N1907 N 0.64847 0.7604 0.81287 0.0
H1908 H 0.23647 0.88561 0.02711 0.0
H1909 H 0.21954 0.90392 0.64955 0.0
H1910 H 0.24671 0.87734 0.82215 0.0
H1911 H 0.21006 0.91306 0.85427 0.0
H1912 H 0.23038 0.89497 0.7121 0.0
H1913 H 0.22762 0.89661 0.96501 0.0
C1914 C 0.23693 0.88616 0.96915 0.0
C1915 C 0.24229 0.88047 0.92987 0.0
C1916 C 0.22597 0.89898 0.74332 0.0
C1917 C 0.23212 0.893 0.85841 0.0
C1918 C 0.21977 0.90409 0.70759 0.0
C1919 C 0.21381 0.9092 0.74661 0.0
C1920 C 0.2262 0.89894 0.81865 0.0
C1921 C 0.21447 0.90919 0.82183 0.0
C1922 C 0.23186 0.89243 0.93369 0.0
C1923 C 0.24263 0.88152 0.85478 0.0
N1924 N 0.22049 0.90409 0.85532 0.0
N1925 N 0.23757 0.8876 0.82158 0.0
H1926 H 0.29429 0.08184 0.13737 0.0
H1927 H 0.36764 0.11915 0.18465 0.0
H1928 H 0.31259 0.09196 0.34292 0.0
H1929 H 0.34936 0.11032 0.97896 0.0
H1930 H 0.34759 0.10788 0.24333 0.0
H1931 H 0.31436 0.09084 0.0787 0.0
C1932 C 0.30252 0.08589 0.17032 0.0
C1933 C 0.30173 0.0862 0.24534 0.0
C1934 C 0.34796 0.10836 0.18536 0.0
C1935 C 0.3248 0.09658 0.17812 0.0
C1936 C 0.35942 0.11479 0.15168 0.0
C1937 C 0.36021 0.11576 0.0766 0.0
C1938 C 0.33716 0.10284 0.14384 0.0
C1939 C 0.34921 0.10987 0.03692 0.0
C1940 C 0.314 0.09105 0.13664 0.0
C1941 C 0.31273 0.09154 0.285 0.0
N1942 N 0.33814 0.10371 0.07104 0.0
N1943 N 0.32381 0.09657 0.25088 0.0
H1944 H 0.88468 0.23704 0.97196 0.0
H1945 H 0.9028 0.21976 0.34914 0.0
H1946 H 0.87554 0.24637 0.17712 0.0
H1947 H 0.91233 0.2108 0.14401 0.0
H1948 H 0.89358 0.23039 0.28701 0.0
H1949 H 0.89569 0.22821 0.03402 0.0
C1950 C 0.88503 0.23729 0.02998 0.0
C1951 C 0.87911 0.24241 0.06929 0.0
C1952 C 0.89773 0.22614 0.25563 0.0
C1953 C 0.89168 0.23228 0.14073 0.0
C1954 C 0.903 0.22007 0.2911 0.0
C1955 C 0.9083 0.21432 0.25183 0.0
C1956 C 0.89773 0.22645 0.18031 0.0
C1957 C 0.90831 0.21505 0.17664 0.0
C1958 C 0.89132 0.23224 0.06542 0.0
C1959 C 0.87991 0.24249 0.14446 0.0
N1960 N 0.90307 0.22095 0.14341 0.0
N1961 N 0.88602 0.23746 0.17765 0.0
H1962 H 0.74996 0.62826 0.18744 0.0
H1963 H 0.78605 0.70157 0.13886 0.0
H1964 H 0.76013 0.64649 0.98156 0.0
H1965 H 0.77863 0.68342 0.34479 0.0
H1966 H 0.77532 0.68147 0.08071 0.0
H1967 H 0.75914 0.64834 0.24583 0.0
C1968 C 0.75408 0.63648 0.15436 0.0
C1969 C 0.75431 0.63566 0.0793 0.0
C1970 C 0.776 0.68187 0.13861 0.0
C1971 C 0.76487 0.65874 0.14624 0.0
C1972 C 0.78213 0.69336 0.17201 0.0
C1973 C 0.78331 0.69421 0.247 0.0
C1974 C 0.77098 0.6711 0.18031 0.0
C1975 C 0.77799 0.68323 0.2869 0.0
C1976 C 0.75934 0.64796 0.18789 0.0
C1977 C 0.75977 0.64666 0.0395 0.0
N1978 N 0.77209 0.67213 0.25303 0.0
N1979 N 0.76486 0.65774 0.07348 0.0
H1980 H 0.91162 0.70214 0.13211 0.0
H1981 H 0.87527 0.62886 0.18395 0.0
H1982 H 0.90225 0.6842 0.33893 0.0
H1983 H 0.88315 0.64679 0.97723 0.0
H1984 H 0.88608 0.64903 0.24138 0.0
H1985 H 0.90222 0.68197 0.07459 0.0
C1986 C 0.90762 0.69396 0.16556 0.0
C1987 C 0.90769 0.69489 0.24063 0.0
C1988 C 0.88548 0.64856 0.18346 0.0
C1989 C 0.89688 0.67171 0.17475 0.0
C1990 C 0.8793 0.63703 0.1505 0.0
C1991 C 0.87824 0.6361 0.07549 0.0
C1992 C 0.89065 0.65929 0.14128 0.0
C1993 C 0.8837 0.64704 0.03516 0.0
C1994 C 0.90225 0.68243 0.13255 0.0
C1995 C 0.90239 0.68395 0.28096 0.0
N1996 N 0.88964 0.65818 0.06859 0.0
N1997 N 0.89717 0.67282 0.24749 0.0
H1998 H 0.36881 0.248 0.18646 0.0
H1999 H 0.29538 0.21255 0.14555 0.0
H2000 H 0.34995 0.23865 0.98253 0.0
H2001 H 0.31409 0.21978 0.34946 0.0
H2002 H 0.31531 0.22361 0.08563 0.0
H2003 H 0.34893 0.23923 0.24716 0.0
C2004 C 0.3605 0.24416 0.1543 0.0
C2005 C 0.36108 0.244 0.0791 0.0
C2006 C 0.31507 0.22283 0.14349 0.0
C2007 C 0.33823 0.23391 0.14868 0.0
C2008 C 0.30367 0.21651 0.1779 0.0
C2009 C 0.30303 0.21514 0.25281 0.0
C2010 C 0.32596 0.22783 0.18407 0.0
C2011 C 0.31412 0.22055 0.29166 0.0
C2012 C 0.34914 0.23914 0.18914 0.0
C2013 C 0.34997 0.23893 0.04052 0.0
N2014 N 0.32513 0.22661 0.25679 0.0
N2015 N 0.339 0.23405 0.07577 0.0
H2016 H 0.78705 0.0836 0.14416 0.0
H2017 H 0.75003 0.12016 0.17845 0.0
H2018 H 0.77819 0.09402 0.34672 0.0
H2019 H 0.76008 0.11078 0.97628 0.0
H2020 H 0.75922 0.10959 0.24098 0.0
H2021 H 0.77613 0.09243 0.08225 0.0
C2022 C 0.78277 0.0877 0.17578 0.0
C2023 C 0.78361 0.08811 0.25094 0.0
C2024 C 0.75938 0.10981 0.18295 0.0
C2025 C 0.77107 0.0983 0.17991 0.0
C2026 C 0.75413 0.11585 0.14707 0.0
C2027 C 0.75432 0.11643 0.07182 0.0
C2028 C 0.76489 0.1043 0.14346 0.0
C2029 C 0.75974 0.11061 0.03427 0.0
C2030 C 0.77653 0.09275 0.14024 0.0
C2031 C 0.77782 0.09352 0.28878 0.0
N2032 N 0.76484 0.10483 0.0705 0.0
N2033 N 0.77184 0.09844 0.25283 0.0
H2034 H 0.70115 0.91368 0.84866 0.0
H2035 H 0.62766 0.87534 0.81065 0.0
H2036 H 0.68218 0.90273 0.64529 0.0
H2037 H 0.64672 0.88537 0.01392 0.0
H2038 H 0.64748 0.88624 0.74919 0.0
H2039 H 0.68128 0.90432 0.90966 0.0
C2040 C 0.69281 0.90935 0.81667 0.0
C2041 C 0.69336 0.90896 0.74157 0.0
C2042 C 0.64734 0.88609 0.80722 0.0
C2043 C 0.67051 0.89817 0.81151 0.0
C2044 C 0.63601 0.87986 0.84249 0.0
C2045 C 0.6355 0.87938 0.91774 0.0
C2046 C 0.65828 0.8919 0.84732 0.0
C2047 C 0.64665 0.88546 0.95591 0.0
C2048 C 0.68145 0.904 0.85169 0.0
C2049 C 0.68222 0.90324 0.70322 0.0
N2050 N 0.65758 0.89143 0.92026 0.0
N2051 N 0.67125 0.89803 0.73865 0.0
H2052 H 0.09237 0.77783 0.62564 0.0
H2053 H 0.10933 0.75951 0.00309 0.0
H2054 H 0.08198 0.78592 0.83067 0.0
H2055 H 0.11896 0.75054 0.79832 0.0
H2056 H 0.09843 0.7684 0.94057 0.0
H2057 H 0.10128 0.76688 0.68765 0.0
C2058 C 0.09189 0.77725 0.68359 0.0
C2059 C 0.08648 0.78288 0.72292 0.0
C2060 C 0.10289 0.76444 0.90934 0.0
C2061 C 0.09671 0.77041 0.79428 0.0
C2062 C 0.10912 0.75936 0.94504 0.0
C2063 C 0.11513 0.75432 0.906 0.0
C2064 C 0.10268 0.76451 0.834 0.0
C2065 C 0.1145 0.75436 0.83078 0.0
C2066 C 0.09699 0.77101 0.71899 0.0
C2067 C 0.08611 0.78179 0.79799 0.0
N2068 N 0.10845 0.75942 0.7973 0.0
N2069 N 0.09121 0.77575 0.83115 0.0
H2070 H 0.20999 0.29605 0.84677 0.0
H2071 H 0.24538 0.36951 0.80699 0.0
H2072 H 0.21815 0.3149 0.64285 0.0
H2073 H 0.23665 0.35054 0.01064 0.0
H2074 H 0.23639 0.34966 0.74591 0.0
H2075 H 0.22063 0.31595 0.90722 0.0
C2076 C 0.21405 0.30437 0.81455 0.0
C2077 C 0.21311 0.30378 0.73945 0.0
C2078 C 0.23647 0.34983 0.80394 0.0
C2079 C 0.22532 0.32666 0.80876 0.0
C2080 C 0.24162 0.36118 0.83899 0.0
C2081 C 0.24173 0.36171 0.91424 0.0
C2082 C 0.23138 0.3389 0.84426 0.0
C2083 C 0.23674 0.35059 0.95262 0.0
C2084 C 0.22013 0.31575 0.84925 0.0
C2085 C 0.21861 0.3149 0.70079 0.0
N2086 N 0.23173 0.33964 0.91719 0.0
N2087 N 0.22444 0.32588 0.73591 0.0
H2088 H 0.03505 0.4535 0.51874 0.0
H2089 H 0.96159 0.41694 0.47811 0.0
H2090 H 0.01624 0.4448 0.3147 0.0
H2091 H 0.98044 0.42694 0.68205 0.0
H2092 H 0.98149 0.4259 0.41755 0.0
H2093 H 0.01514 0.4426 0.57918 0.0
C2094 C 0.02674 0.44925 0.4865 0.0
C2095 C 0.02734 0.45014 0.41136 0.0
C2096 C 0.98128 0.4261 0.47555 0.0
C2097 C 0.00445 0.43764 0.48065 0.0
C2098 C 0.9699 0.42098 0.51031 0.0
C2099 C 0.96931 0.42124 0.58545 0.0
C2100 C 0.99219 0.43155 0.51605 0.0
C2101 C 0.98043 0.42656 0.62409 0.0
C2102 C 0.01536 0.44303 0.52119 0.0
C2103 C 0.01624 0.4444 0.37266 0.0
N2104 N 0.9914 0.43154 0.58892 0.0
N2105 N 0.00525 0.43844 0.40777 0.0
H2106 H 0.57006 0.55339 0.68625 0.0
H2107 H 0.5524 0.5715 0.31028 0.0
H2108 H 0.58017 0.5453 0.4804 0.0
H2109 H 0.54257 0.57999 0.51585 0.0
H2110 H 0.56358 0.56283 0.37194 0.0
H2111 H 0.56093 0.56421 0.62506 0.0
C2112 C 0.57044 0.55395 0.62828 0.0
C2113 C 0.57584 0.54835 0.58849 0.0
C2114 C 0.55902 0.56664 0.40354 0.0
C2115 C 0.56535 0.56068 0.51806 0.0
C2116 C 0.55263 0.5716 0.36832 0.0
C2117 C 0.54646 0.57643 0.40784 0.0
C2118 C 0.55924 0.56648 0.47886 0.0
C2119 C 0.54713 0.57633 0.48304 0.0
C2120 C 0.56521 0.56011 0.59335 0.0
C2121 C 0.57606 0.5494 0.51342 0.0
N2122 N 0.55334 0.57138 0.51603 0.0
N2123 N 0.57085 0.55538 0.48073 0.0
H2124 H 0.41739 0.96131 0.5236 0.0
H2125 H 0.45206 0.03466 0.47875 0.0
H2126 H 0.42572 0.97988 0.31875 0.0
H2127 H 0.44566 0.01632 0.68356 0.0
H2128 H 0.4413 0.01463 0.42002 0.0
H2129 H 0.42657 0.98128 0.5834 0.0
C2130 C 0.42111 0.96958 0.49107 0.0
C2131 C 0.42082 0.96889 0.41585 0.0
C2132 C 0.44221 0.01497 0.47782 0.0
C2133 C 0.43137 0.99184 0.48435 0.0
C2134 C 0.44835 0.02643 0.51155 0.0
C2135 C 0.44983 0.02721 0.58637 0.0
C2136 C 0.43748 0.00416 0.51899 0.0
C2137 C 0.44478 0.01618 0.6258 0.0
C2138 C 0.42636 0.98099 0.52539 0.0
C2139 C 0.42576 0.97994 0.37676 0.0
N2140 N 0.43886 0.00511 0.5916 0.0
N2141 N 0.43086 0.99095 0.41148 0.0
H2142 H 0.54282 0.96251 0.50716 0.0
H2143 H 0.5785 0.03593 0.46276 0.0
H2144 H 0.55081 0.98097 0.30201 0.0
H2145 H 0.56916 0.01728 0.66748 0.0
H2146 H 0.56942 0.01595 0.4029 0.0
H2147 H 0.55347 0.98253 0.56631 0.0
C2148 C 0.54686 0.97077 0.4744 0.0
C2149 C 0.54585 0.97003 0.39933 0.0
C2150 C 0.56938 0.01623 0.46091 0.0
C2151 C 0.55808 0.99305 0.46716 0.0
C2152 C 0.57458 0.02764 0.49525 0.0
C2153 C 0.57456 0.02831 0.57043 0.0
C2154 C 0.56412 0.00536 0.50189 0.0
C2155 C 0.56935 0.01724 0.60948 0.0
C2156 C 0.55294 0.98221 0.50836 0.0
C2157 C 0.55132 0.98108 0.35995 0.0
N2158 N 0.56432 0.00623 0.57475 0.0
N2159 N 0.55715 0.99213 0.39436 0.0
H2160 H 0.01483 0.5706 0.30606 0.0
H2161 H 0.97994 0.55321 0.68487 0.0
H2162 H 0.03356 0.58047 0.51035 0.0
H2163 H 0.96119 0.54374 0.48061 0.0
H2164 H -0.00032 0.56422 0.62181 0.0
H2165 H 0.99506 0.56167 0.369 0.0
C2166 C 0.0148 0.57096 0.36406 0.0
C2167 C 0.02589 0.57624 0.40287 0.0
C2168 C 0.99124 0.55977 0.59082 0.0
C2169 C 0.00328 0.566 0.47533 0.0
C2170 C 0.97996 0.55349 0.62684 0.0
C2171 C 0.96887 0.54747 0.58808 0.0
C2172 C 0.99145 0.56003 0.51548 0.0
C2173 C 0.96948 0.54818 0.51286 0.0
C2174 C 0.00351 0.56585 0.4 0.0
C2175 C 0.02526 0.57645 0.47805 0.0
N2176 N 0.98057 0.55429 0.4791 0.0
N2177 N 0.01416 0.57136 0.51174 0.0
H2178 H 0.41705 0.45367 0.5062 0.0
H2179 H 0.45371 0.41685 0.46568 0.0
H2180 H 0.42706 0.44485 0.30217 0.0
H2181 H 0.44494 0.42695 0.66961 0.0
H2182 H 0.44294 0.42599 0.40509 0.0
H2183 H 0.42617 0.44289 0.56671 0.0
C2184 C 0.42113 0.44944 0.47398 0.0
C2185 C 0.42133 0.45024 0.39881 0.0
C2186 C 0.44334 0.42618 0.46309 0.0
C2187 C 0.43183 0.43785 0.46818 0.0
C2188 C 0.44948 0.42094 0.49786 0.0
C2189 C 0.4503 0.42117 0.57302 0.0
C2190 C 0.43795 0.4317 0.50358 0.0
C2191 C 0.44459 0.42658 0.61164 0.0
C2192 C 0.42634 0.44327 0.50871 0.0
C2193 C 0.42672 0.44451 0.36015 0.0
N2194 N 0.4387 0.43167 0.57646 0.0
N2195 N 0.43179 0.4386 0.3953 0.0
H2196 H 0.15373 0.39411 0.36804 0.0
H2197 H 0.12795 0.40661 0.7311 0.0
H2198 H 0.11548 0.3828 0.40473 0.0
H2199 H 0.16558 0.41479 0.70346 0.0
H2200 H 0.12406 0.40098 0.60486 0.0
H2201 H 0.15887 0.40402 0.48576 0.0
C2202 C 0.14644 0.39377 0.40091 0.0
C2203 C 0.13419 0.38774 0.37676 0.0
C2204 C 0.13321 0.40415 0.6262 0.0
C2205 C 0.13994 0.39898 0.51113 0.0
C2206 C 0.13547 0.40746 0.69819 0.0
C2207 C 0.14704 0.41093 0.72823 0.0
C2208 C 0.14258 0.4043 0.58407 0.0
C2209 C 0.15647 0.412 0.68279 0.0
C2210 C 0.14936 0.39942 0.46798 0.0
C2211 C 0.12503 0.38732 0.42175 0.0
N2212 N 0.15398 0.40851 0.61313 0.0
N2213 N 0.12809 0.39289 0.48681 0.0
H2214 H 0.60157 0.75855 0.36772 0.0
H2215 H 0.58951 0.72042 0.73116 0.0
H2216 H 0.6133 0.73193 0.40475 0.0
H2217 H 0.581 0.74965 0.70363 0.0
H2218 H 0.59505 0.72215 0.60473 0.0
H2219 H 0.59161 0.75366 0.48539 0.0
C2220 C 0.60199 0.75163 0.40063 0.0
C2221 C 0.60816 0.74555 0.37661 0.0
C2222 C 0.59182 0.72808 0.62613 0.0
C2223 C 0.59687 0.73995 0.51093 0.0
C2224 C 0.58857 0.72704 0.69823 0.0
C2225 C 0.58504 0.73509 0.72835 0.0
C2226 C 0.59156 0.73724 0.58396 0.0
C2227 C 0.58384 0.74337 0.6829 0.0
C2228 C 0.59631 0.74885 0.46768 0.0
C2229 C 0.60868 0.73686 0.42167 0.0
N2230 N 0.58729 0.74437 0.61311 0.0
N2231 N 0.60307 0.73429 0.48671 0.0
H2232 H 0.24467 0.87001 0.43504 0.0
H2233 H 0.25825 0.83178 0.70044 0.0
H2234 H 0.26377 0.85228 0.3464 0.0
H2235 H 0.27267 0.87058 0.74252 0.0
H2236 H 0.25657 0.83569 0.5728 0.0
H2237 H 0.25056 0.86692 0.55518 0.0
C2238 C 0.2499 0.86529 0.44071 0.0
C2239 C 0.25324 0.86091 0.38055 0.0
C2240 C 0.26031 0.84331 0.61035 0.0
C2241 C 0.25987 0.85733 0.51696 0.0
C2242 C 0.26131 0.84112 0.68281 0.0
C2243 C 0.26537 0.85081 0.73236 0.0
C2244 C 0.26312 0.85516 0.5886 0.0
C2245 C 0.26929 0.86277 0.70654 0.0
C2246 C 0.25327 0.86359 0.50896 0.0
C2247 C 0.26026 0.85509 0.39102 0.0
N2248 N 0.26774 0.86455 0.63664 0.0
N2249 N 0.2632 0.85328 0.45823 0.0
H2250 H 0.4089 0.13015 0.26932 0.0
H2251 H 0.39762 0.15573 0.6364 0.0
H2252 H 0.41663 0.16761 0.2978 0.0
H2253 H 0.38524 0.11737 0.59506 0.0
H2254 H 0.4077 0.16104 0.51909 0.0
H2255 H 0.40409 0.12636 0.39659 0.0
C2256 C 0.40983 0.13766 0.30262 0.0
C2257 C 0.41289 0.14913 0.27264 0.0
C2258 C 0.40285 0.15147 0.53586 0.0
C2259 C 0.40721 0.14479 0.41795 0.0
C2260 C 0.39712 0.14845 0.60273 0.0
C2261 C 0.39069 0.13611 0.62529 0.0
C2262 C 0.40209 0.14207 0.49135 0.0
C2263 C 0.39006 0.12698 0.57923 0.0
C2264 C 0.407 0.13546 0.3752 0.0
C2265 C 0.41414 0.15857 0.3185 0.0
N2266 N 0.3957 0.13015 0.51435 0.0
N2267 N 0.41108 0.15613 0.38882 0.0
H2268 H 0.83959 0.24018 0.62749 0.0
H2269 H 0.86588 0.27713 0.26101 0.0
H2270 H 0.87812 0.26568 0.58701 0.0
H2271 H 0.82808 0.24814 0.28965 0.0
H2272 H 0.86961 0.27583 0.38805 0.0
H2273 H 0.83452 0.24516 0.51011 0.0
C2274 C 0.84697 0.24689 0.59398 0.0
C2275 C 0.85927 0.25261 0.61684 0.0
C2276 C 0.86045 0.26986 0.36675 0.0
C2277 C 0.85359 0.2583 0.4828 0.0
C2278 C 0.85829 0.27066 0.2943 0.0
C2279 C 0.84672 0.26253 0.26438 0.0
C2280 C 0.851 0.26087 0.40947 0.0
C2281 C 0.83719 0.25446 0.31026 0.0
C2282 C 0.84408 0.24972 0.52706 0.0
C2283 C 0.86852 0.26103 0.57098 0.0
N2284 N 0.83959 0.25369 0.38044 0.0
N2285 N 0.86548 0.26364 0.50605 0.0
H2286 H 0.72276 0.59545 0.26271 0.0
H2287 H 0.74083 0.59037 0.65981 0.0
H2288 H 0.74241 0.57597 0.3082 0.0
H2289 H 0.74571 0.62449 0.57225 0.0
H2290 H 0.73649 0.5815 0.53994 0.0
H2291 H 0.72514 0.60192 0.38761 0.0
C2292 C 0.72732 0.59227 0.29919 0.0
C2293 C 0.7326 0.58532 0.27472 0.0
C2294 C 0.73868 0.59097 0.54719 0.0
C2295 C 0.73526 0.5927 0.41725 0.0
C2296 C 0.74144 0.59618 0.61532 0.0
C2297 C 0.74432 0.60847 0.62564 0.0
C2298 C 0.73825 0.59791 0.48971 0.0
C2299 C 0.74384 0.6151 0.56637 0.0
C2300 C 0.72876 0.59608 0.37019 0.0
C2301 C 0.73834 0.58144 0.32474 0.0
N2302 N 0.74081 0.60971 0.50076 0.0
N2303 N 0.73959 0.58526 0.39396 0.0
H2304 H 0.87918 0.61268 0.59875 0.0
H2305 H 0.82853 0.57759 0.29614 0.0
H2306 H 0.84031 0.59918 0.62947 0.0
H2307 H 0.86725 0.58958 0.27094 0.0
H2308 H 0.83216 0.58304 0.42293 0.0
H2309 H 0.87468 0.60284 0.48109 0.0
C2310 C 0.86969 0.60767 0.58042 0.0
C2311 C 0.86009 0.60666 0.62372 0.0
C2312 C 0.83982 0.58431 0.38986 0.0
C2313 C 0.85483 0.59529 0.48972 0.0
C2314 C 0.83774 0.5811 0.31753 0.0
C2315 C 0.84766 0.58338 0.27256 0.0
C2316 C 0.85189 0.58985 0.41706 0.0
C2317 C 0.85937 0.58787 0.30337 0.0
C2318 C 0.86711 0.60195 0.51365 0.0
C2319 C 0.84796 0.6 0.59797 0.0
N2320 N 0.8612 0.59115 0.37349 0.0
N2321 N 0.84566 0.59459 0.53242 0.0
H2322 H 0.4181 0.24936 0.29716 0.0
H2323 H 0.38419 0.26691 0.59728 0.0
H2324 H 0.40756 0.27714 0.26969 0.0
H2325 H 0.39737 0.24138 0.63215 0.0
H2326 H 0.39393 0.27173 0.47914 0.0
H2327 H 0.41274 0.24797 0.42395 0.0
C2328 C 0.41492 0.25537 0.31803 0.0
C2329 C 0.41303 0.26319 0.27243 0.0
C2330 C 0.39478 0.26514 0.51277 0.0
C2331 C 0.40666 0.26147 0.417 0.0
C2332 C 0.38912 0.2623 0.57982 0.0
C2333 C 0.39007 0.25381 0.62441 0.0
C2334 C 0.4013 0.25931 0.48987 0.0
C2335 C 0.39661 0.24814 0.59971 0.0
C2336 C 0.41177 0.2545 0.39038 0.0
C2337 C 0.40897 0.27082 0.30261 0.0
N2338 N 0.40195 0.25096 0.53387 0.0
N2339 N 0.40572 0.26962 0.37278 0.0
H2340 H 0.71941 0.12799 0.25873 0.0
H2341 H 0.75605 0.15456 0.62591 0.0
H2342 H 0.74773 0.16603 0.28851 0.0
H2343 H 0.73131 0.1159 0.58492 0.0
H2344 H 0.75106 0.15947 0.50812 0.0
H2345 H 0.72101 0.12413 0.38528 0.0
C2346 C 0.7258 0.1356 0.29214 0.0
C2347 C 0.73364 0.1473 0.26264 0.0
C2348 C 0.74667 0.14992 0.52499 0.0
C2349 C 0.73563 0.14287 0.40722 0.0
C2350 C 0.74951 0.14712 0.59217 0.0
C2351 C 0.74399 0.13483 0.6151 0.0
C2352 C 0.73829 0.14033 0.4805 0.0
C2353 C 0.73579 0.1255 0.56889 0.0
C2354 C 0.72676 0.13336 0.36432 0.0
C2355 C 0.74162 0.15683 0.30874 0.0
N2356 N 0.73317 0.12845 0.50373 0.0
N2357 N 0.74255 0.15436 0.37861 0.0
H2358 H 0.60214 0.84197 0.36535 0.0
H2359 H 0.58827 0.8664 0.72924 0.0
H2360 H 0.61218 0.87986 0.4028 0.0
H2361 H 0.58168 0.82932 0.70095 0.0
H2362 H 0.5939 0.87055 0.60305 0.0
H2363 H 0.5923 0.83648 0.48325 0.0
C2364 C 0.60222 0.84911 0.39847 0.0
C2365 C 0.60786 0.86135 0.37446 0.0
C2366 C 0.59108 0.86146 0.62425 0.0
C2367 C 0.5967 0.8552 0.50903 0.0
C2368 C 0.58776 0.85904 0.6962 0.0
C2369 C 0.58475 0.84757 0.72604 0.0
C2370 C 0.59138 0.85234 0.58196 0.0
C2371 C 0.58411 0.83836 0.68045 0.0
C2372 C 0.59661 0.84599 0.46563 0.0
C2373 C 0.60796 0.87032 0.41973 0.0
N2374 N 0.5876 0.841 0.61083 0.0
N2375 N 0.60242 0.86706 0.4849 0.0
H2376 H 0.11453 0.73066 0.38654 0.0
H2377 H 0.16577 0.74793 0.68801 0.0
H2378 H 0.15314 0.75684 0.35448 0.0
H2379 H 0.1274 0.72023 0.71434 0.0
H2380 H 0.16187 0.74962 0.56149 0.0
H2381 H 0.11938 0.72574 0.50456 0.0
C2382 C 0.12403 0.73541 0.40464 0.0
C2383 C 0.13347 0.7441 0.36083 0.0
C2384 C 0.15434 0.74305 0.59474 0.0
C2385 C 0.13913 0.73847 0.49524 0.0
C2386 C 0.15658 0.74201 0.66693 0.0
C2387 C 0.14684 0.73411 0.71217 0.0
C2388 C 0.14227 0.73617 0.5679 0.0
C2389 C 0.13515 0.7266 0.68171 0.0
C2390 C 0.12682 0.73251 0.47162 0.0
C2391 C 0.14563 0.74993 0.38635 0.0
N2392 N 0.13316 0.72796 0.61172 0.0
N2393 N 0.14812 0.74703 0.45207 0.0
H2394 H 0.27583 0.40956 0.72597 0.0
H2395 H 0.2388 0.39673 0.35808 0.0
H2396 H 0.24513 0.41579 0.69594 0.0
H2397 H 0.26565 0.38548 0.40048 0.0
H2398 H 0.24302 0.40656 0.47586 0.0
H2399 H 0.2748 0.40434 0.59935 0.0
C2400 C 0.26902 0.41007 0.69248 0.0
C2401 C 0.26037 0.41285 0.7219 0.0
C2402 C 0.24803 0.402 0.45932 0.0
C2403 C 0.25904 0.40671 0.57734 0.0
C2404 C 0.24564 0.3964 0.39219 0.0
C2405 C 0.25197 0.3904 0.36971 0.0
C2406 C 0.2568 0.40154 0.50416 0.0
C2407 C 0.26053 0.38999 0.41626 0.0
C2408 C 0.26839 0.407 0.62029 0.0
C2409 C 0.25187 0.41353 0.67575 0.0
N2410 N 0.26273 0.39552 0.48139 0.0
N2411 N 0.2513 0.41029 0.60586 0.0
H2412 H 0.79193 0.73492 0.06208 0.0
H2413 H 0.81525 0.73995 0.66545 0.0
H2414 H 0.83109 0.75431 0.01768 0.0
H2415 H 0.78611 0.70582 0.75348 0.0
H2416 H 0.81972 0.74889 0.78518 0.0
H2417 H 0.78793 0.72855 0.93702 0.0
C2418 C 0.7997 0.7381 0.02581 0.0
C2419 C 0.8119 0.74497 0.05067 0.0
C2420 C 0.81247 0.7394 0.77804 0.0
C2421 C 0.80729 0.73771 0.90795 0.0
C2422 C 0.81007 0.73415 0.71002 0.0
C2423 C 0.8007 0.72184 0.69988 0.0
C2424 C 0.80511 0.73248 0.83557 0.0
C2425 C 0.7936 0.71522 0.75922 0.0
C2426 C 0.79737 0.73435 0.95472 0.0
C2427 C 0.82156 0.74889 0.00088 0.0
N2428 N 0.79592 0.72065 0.82469 0.0
N2429 N 0.81905 0.74511 0.93155 0.0
H2430 H 0.25368 0.05194 0.05211 0.0
H2431 H 0.26445 0.08924 0.68684 0.0
H2432 H 0.24482 0.08093 0.02468 0.0
H2433 H 0.27731 0.06358 0.72608 0.0
H2434 H 0.25437 0.08418 0.8042 0.0
H2435 H 0.25873 0.05336 0.92504 0.0
C2436 C 0.25256 0.05844 0.01908 0.0
C2437 C 0.24909 0.06653 0.04935 0.0
C2438 C 0.25933 0.0796 0.78697 0.0
C2439 C 0.25505 0.06832 0.90421 0.0
C2440 C 0.26506 0.08248 0.72005 0.0
C2441 C 0.27163 0.07675 0.69686 0.0
C2442 C 0.26022 0.07096 0.83088 0.0
C2443 C 0.27239 0.06825 0.74237 0.0
C2444 C 0.25553 0.0593 0.9466 0.0
C2445 C 0.24762 0.07463 0.00379 0.0
N2446 N 0.26674 0.0656 0.80727 0.0
N2447 N 0.25082 0.07547 0.93358 0.0
H2448 H 0.90535 0.17584 0.69718 0.0
H2449 H 0.94365 0.20203 0.05959 0.0
H2450 H 0.93211 0.21416 0.73322 0.0
H2451 H 0.91442 0.16429 0.03302 0.0
H2452 H 0.94194 0.20575 0.933 0.0
H2453 H 0.91033 0.17078 0.81465 0.0
C2454 C 0.91232 0.18317 0.72982 0.0
C2455 C 0.9184 0.19541 0.7056 0.0
C2456 C 0.93601 0.19661 0.95463 0.0
C2457 C 0.92411 0.18974 0.83967 0.0
C2458 C 0.93703 0.19445 0.02683 0.0
C2459 C 0.92897 0.1829 0.05725 0.0
C2460 C 0.92684 0.18717 0.91269 0.0
C2461 C 0.92071 0.17339 0.01203 0.0
C2462 C 0.91515 0.18028 0.79675 0.0
C2463 C 0.92716 0.20461 0.7503 0.0
N2464 N 0.91971 0.17579 0.94214 0.0
N2465 N 0.92977 0.20158 0.81523 0.0
H2466 H 0.07523 0.46352 0.60201 0.0
H2467 H 0.06427 0.4895 0.96864 0.0
H2468 H 0.08367 0.5012 0.63067 0.0
H2469 H 0.05144 0.45103 0.92794 0.0
H2470 H 0.07429 0.49465 0.85117 0.0
H2471 H 0.07015 0.45971 0.729 0.0
C2472 C 0.07626 0.47107 0.63529 0.0
C2473 C 0.07961 0.48262 0.60539 0.0
C2474 C 0.06935 0.48509 0.86809 0.0
C2475 C 0.07363 0.47826 0.75042 0.0
C2476 C 0.06365 0.48215 0.93506 0.0
C2477 C 0.05712 0.46984 0.95789 0.0
C2478 C 0.06846 0.47562 0.82374 0.0
C2479 C 0.05634 0.46063 0.91193 0.0
C2480 C 0.07327 0.46886 0.70771 0.0
C2481 C 0.08096 0.4921 0.65126 0.0
N2482 N 0.06197 0.46371 0.84696 0.0
N2483 N 0.07776 0.48965 0.7214 0.0
H2484 H 0.49478 0.58189 0.62762 0.0
H2485 H 0.54638 0.60037 0.92729 0.0
H2486 H 0.5329 0.61016 0.59991 0.0
H2487 H 0.50779 0.57455 0.96304 0.0
H2488 H 0.5413 0.60508 0.80932 0.0
H2489 H 0.49877 0.58077 0.75468 0.0
C2490 C 0.50392 0.58806 0.64849 0.0
C2491 C 0.51359 0.59594 0.60278 0.0
C2492 C 0.53391 0.59845 0.84312 0.0
C2493 C 0.51827 0.59453 0.74759 0.0
C2494 C 0.53684 0.59568 0.91005 0.0
C2495 C 0.52747 0.58712 0.95478 0.0
C2496 C 0.52155 0.59249 0.82049 0.0
C2497 C 0.51524 0.58135 0.93043 0.0
C2498 C 0.50622 0.58735 0.72099 0.0
C2499 C 0.52522 0.60378 0.63294 0.0
N2500 N 0.51263 0.5841 0.86468 0.0
N2501 N 0.52728 0.60273 0.70323 0.0
H2502 H 0.42403 0.9343 0.97026 0.0
H2503 H 0.38584 0.92127 0.60661 0.0
H2504 H 0.39673 0.94511 0.93265 0.0
H2505 H 0.41582 0.91388 0.63449 0.0
H2506 H 0.38736 0.92676 0.733 0.0
H2507 H 0.41942 0.92435 0.85269 0.0
C2508 C 0.41703 0.93452 0.93721 0.0
C2509 C 0.41067 0.94042 0.96104 0.0
C2510 C 0.39351 0.92379 0.71168 0.0
C2511 C 0.40537 0.92914 0.82686 0.0
C2512 C 0.39259 0.92056 0.63961 0.0
C2513 C 0.4009 0.91737 0.60961 0.0
C2514 C 0.40281 0.92383 0.75392 0.0
C2515 C 0.40934 0.91645 0.65513 0.0
C2516 C 0.4144 0.92885 0.87023 0.0
C2517 C 0.40187 0.94069 0.91586 0.0
N2518 N 0.41021 0.91987 0.72489 0.0
N2519 N 0.39945 0.9351 0.85087 0.0
H2520 H 0.53383 0.9222 0.59209 0.0
H2521 H 0.50677 0.93186 0.95827 0.0
H2522 H 0.49574 0.91242 0.62036 0.0
H2523 H 0.54548 0.94582 0.91789 0.0
H2524 H 0.50194 0.92179 0.84102 0.0
H2525 H 0.53743 0.92718 0.71921 0.0
C2526 C 0.52615 0.92086 0.62532 0.0
C2527 C 0.51453 0.91716 0.59529 0.0
C2528 C 0.51148 0.92699 0.85798 0.0
C2529 C 0.51864 0.92304 0.74046 0.0
C2530 C 0.51424 0.93272 0.92483 0.0
C2531 C 0.52653 0.93959 0.94766 0.0
C2532 C 0.52111 0.92819 0.81377 0.0
C2533 C 0.53588 0.94066 0.90187 0.0
C2534 C 0.52824 0.92379 0.69782 0.0
C2535 C 0.50489 0.91541 0.64108 0.0
N2536 N 0.53298 0.935 0.83702 0.0
N2537 N 0.50721 0.91857 0.7113 0.0
H2538 H 0.06292 0.57364 0.95971 0.0
H2539 H 0.07354 0.61079 0.59392 0.0
H2540 H 0.04984 0.59913 0.92007 0.0
H2541 H 0.08262 0.58197 0.6221 0.0
H2542 H 0.0684 0.60934 0.72086 0.0
H2543 H 0.07296 0.57869 0.84226 0.0
C2544 C 0.06225 0.58037 0.92638 0.0
C2545 C 0.05564 0.58605 0.94951 0.0
C2546 C 0.07166 0.60344 0.69949 0.0
C2547 C 0.067 0.59182 0.81536 0.0
C2548 C 0.07469 0.60432 0.62708 0.0
C2549 C 0.07826 0.59629 0.59704 0.0
C2550 C 0.07218 0.59446 0.74205 0.0
C2551 C 0.07974 0.58822 0.64278 0.0
C2552 C 0.06795 0.58323 0.85941 0.0
C2553 C 0.0548 0.59449 0.90383 0.0
N2554 N 0.0765 0.58737 0.7129 0.0
N2555 N 0.06043 0.59713 0.83887 0.0
H2556 H 0.39722 0.44927 0.91817 0.0
H2557 H 0.415 0.50063 0.61657 0.0
H2558 H 0.42374 0.48778 0.94978 0.0
H2559 H 0.38706 0.46236 0.59022 0.0
H2560 H 0.41662 0.49666 0.74305 0.0
H2561 H 0.3924 0.4542 0.80009 0.0
C2562 C 0.40206 0.45876 0.89995 0.0
C2563 C 0.41082 0.46815 0.94365 0.0
C2564 C 0.41001 0.48917 0.7098 0.0
C2565 C 0.40531 0.47391 0.80924 0.0
C2566 C 0.40901 0.49145 0.63764 0.0
C2567 C 0.40106 0.48175 0.59241 0.0
C2568 C 0.40305 0.47711 0.73662 0.0
C2569 C 0.39346 0.47008 0.62285 0.0
C2570 C 0.39923 0.4616 0.83295 0.0
C2571 C 0.41678 0.48031 0.918 0.0
N2572 N 0.39479 0.46804 0.69282 0.0
N2573 N 0.41393 0.48285 0.85228 0.0
H2574 H 0.26229 0.20563 0.066 0.0
H2575 H 0.2526 0.18622 0.6652 0.0
H2576 H 0.23866 0.16674 0.02253 0.0
H2577 H 0.28901 0.20371 0.75949 0.0
H2578 H 0.24363 0.1825 0.78503 0.0
H2579 H 0.26778 0.20906 0.93946 0.0
C2580 C 0.25799 0.19784 0.02975 0.0
C2581 C 0.25023 0.18579 0.05518 0.0
C2582 C 0.25356 0.18702 0.77889 0.0
C2583 C 0.25636 0.18982 0.91084 0.0
C2584 C 0.25874 0.18893 0.71071 0.0
C2585 C 0.27162 0.19469 0.70223 0.0
C2586 C 0.26135 0.19146 0.83832 0.0
C2587 C 0.27905 0.199 0.76357 0.0
C2588 C 0.2612 0.19985 0.95779 0.0
C2589 C 0.24482 0.17613 0.00527 0.0
N2590 N 0.2738 0.19735 0.82923 0.0
N2591 N 0.2481 0.17833 0.935 0.0
H2592 H 0.79681 0.05381 0.06225 0.0
H2593 H 0.82262 0.0907 0.69504 0.0
H2594 H 0.83448 0.08304 0.03268 0.0
H2595 H 0.78417 0.06502 0.73622 0.0
H2596 H 0.8278 0.0859 0.81259 0.0
H2597 H 0.79291 0.05511 0.93545 0.0
C2598 C 0.80434 0.06034 0.02882 0.0
C2599 C 0.81592 0.06852 0.05843 0.0
C2600 C 0.81824 0.08126 0.79579 0.0
C2601 C 0.81145 0.07017 0.91359 0.0
C2602 C 0.81529 0.08399 0.72875 0.0
C2603 C 0.80297 0.07816 0.706 0.0
C2604 C 0.80878 0.07268 0.8403 0.0
C2605 C 0.79377 0.06975 0.75216 0.0
C2606 C 0.80207 0.06113 0.9565 0.0
C2607 C 0.82536 0.07667 0.01234 0.0
N2608 N 0.79687 0.06724 0.81719 0.0
N2609 N 0.82286 0.07743 0.94231 0.0
H2610 H 0.94363 0.74291 0.04612 0.0
H2611 H 0.90547 0.73116 0.68358 0.0
H2612 H 0.91453 0.75162 0.01953 0.0
H2613 H 0.93197 0.71925 0.72018 0.0
H2614 H 0.91053 0.74124 0.80084 0.0
H2615 H 0.94198 0.7376 0.91941 0.0
C2616 C 0.93706 0.74394 0.01331 0.0
C2617 C 0.92901 0.74745 0.04373 0.0
C2618 C 0.91528 0.73648 0.78309 0.0
C2619 C 0.92693 0.74118 0.89909 0.0
C2620 C 0.9124 0.73073 0.71629 0.0
C2621 C 0.91839 0.72446 0.69232 0.0
C2622 C 0.92419 0.73589 0.82612 0.0
C2623 C 0.9271 0.72394 0.7371 0.0
C2624 C 0.93606 0.74082 0.94106 0.0
C2625 C 0.92081 0.7488 -0.0015 0.0
N2626 N 0.92976 0.7296 0.8019 0.0
N2627 N 0.91983 0.74546 0.92854 0.0
H2628 H 0.45846 0.06761 0.4017 0.0
H2629 H 0.48192 0.07286 0.00516 0.0
H2630 H 0.49762 0.08739 0.35734 0.0
H2631 H 0.45292 0.03862 0.093 0.0
H2632 H 0.48632 0.08179 0.12493 0.0
H2633 H 0.45453 0.06118 0.2767 0.0
C2634 C 0.46624 0.07087 0.36545 0.0
C2635 C 0.47844 0.07787 0.3903 0.0
C2636 C 0.47912 0.07228 0.11775 0.0
C2637 C 0.4739 0.07055 0.24763 0.0
C2638 C 0.47676 0.06704 0.04969 0.0
C2639 C 0.46745 0.0547 0.03948 0.0
C2640 C 0.47178 0.06532 0.17524 0.0
C2641 C 0.46037 0.04805 0.09879 0.0
C2642 C 0.46396 0.06708 0.29439 0.0
C2643 C 0.4881 0.08187 0.34053 0.0
N2644 N 0.46264 0.05346 0.16429 0.0
N2645 N 0.48563 0.07806 0.27124 0.0
H2646 H 0.92202 0.38671 0.39485 0.0
H2647 H 0.93443 0.42496 0.03166 0.0
H2648 H 0.91379 0.41613 0.36741 0.0
H2649 H 0.94576 0.39804 0.06837 0.0
H2650 H 0.92445 0.42013 0.1493 0.0
H2651 H 0.92755 0.3884 0.26843 0.0
C2652 C 0.92114 0.39336 0.36194 0.0
C2653 C 0.91769 0.40147 0.39208 0.0
C2654 C 0.92908 0.41524 0.13152 0.0
C2655 C 0.92421 0.40359 0.2477 0.0
C2656 C 0.93476 0.41799 0.06449 0.0
C2657 C 0.94082 0.41181 0.04038 0.0
C2658 C 0.92952 0.40627 0.17468 0.0
C2659 C 0.94123 0.40305 0.08534 0.0
C2660 C 0.92439 0.39439 0.28984 0.0
C2661 C 0.91656 0.4098 0.34666 0.0
N2662 N 0.93562 0.40052 0.15037 0.0
N2663 N 0.92001 0.41078 0.27687 0.0
H2664 H 0.59907 0.52046 -0.00114 0.0
H2665 H 0.60837 0.53895 0.40075 0.0
H2666 H 0.58 0.53771 0.09431 0.0
H2667 H 0.59185 0.49995 0.35608 0.0
H2668 H 0.6069 0.5427 0.27396 0.0
H2669 H 0.60419 0.51649 0.11853 0.0
C2670 C 0.59561 0.52308 0.04459 0.0
C2671 C 0.58845 0.52881 0.03652 0.0
C2672 C 0.60388 0.53338 0.29211 0.0
C2673 C 0.59534 0.52531 0.17234 0.0
C2674 C 0.60473 0.53119 0.3642 0.0
C2675 C 0.5999 0.51904 0.38932 0.0
C2676 C 0.59849 0.52343 0.24477 0.0
C2677 C 0.59549 0.50942 0.33906 0.0
C2678 C 0.5988 0.52103 0.11264 0.0
C2679 C 0.58528 0.53302 0.09809 0.0
N2680 N 0.59474 0.5118 0.26868 0.0
N2681 N 0.58879 0.53122 0.16365 0.0
H2682 H 0.74472 0.81093 0.32626 0.0
H2683 H 0.73537 0.79267 0.92416 0.0
H2684 H 0.7084 0.79415 0.23116 0.0
H2685 H 0.75821 0.8316 0.96945 0.0
H2686 H 0.73007 0.78892 0.05085 0.0
H2687 H 0.75377 0.81487 0.2065 0.0
C2688 C 0.73863 0.80841 0.2806 0.0
C2689 C 0.72575 0.80282 0.28881 0.0
C2690 C 0.73645 0.79821 0.03285 0.0
C2691 C 0.73609 0.80629 0.15283 0.0
C2692 C 0.73955 0.80041 0.96082 0.0
C2693 C 0.74701 0.81254 0.93591 0.0
C2694 C 0.74111 0.80815 0.08035 0.0
C2695 C 0.75227 0.82214 0.98631 0.0
C2696 C 0.74384 0.81044 0.21248 0.0
C2697 C 0.71836 0.79873 0.22727 0.0
N2698 N 0.7491 0.81976 0.05664 0.0
N2699 N 0.72364 0.80051 0.16164 0.0
H2700 H 0.21434 0.93266 0.26621 0.0
H2701 H 0.16319 0.91575 0.9646 0.0
H2702 H 0.17567 0.90666 0.29811 0.0
H2703 H 0.20163 0.94323 0.93834 0.0
H2704 H 0.16705 0.91401 0.09111 0.0
H2705 H 0.20956 0.93763 0.14819 0.0
C2706 C 0.20484 0.92796 0.24808 0.0
C2707 C 0.19536 0.9193 0.29185 0.0
C2708 C 0.1746 0.92054 0.05787 0.0
C2709 C 0.18979 0.925 0.15742 0.0
C2710 C 0.17238 0.92162 0.98569 0.0
C2711 C 0.18215 0.92947 0.94047 0.0
C2712 C 0.18668 0.92734 0.08474 0.0
C2713 C 0.19385 0.93691 0.97094 0.0
C2714 C 0.20209 0.93089 0.18109 0.0
C2715 C 0.18321 0.91354 0.26628 0.0
N2716 N 0.19583 0.93551 0.04094 0.0
N2717 N 0.18076 0.91647 0.20054 0.0
H2718 H 0.08964 0.26515 0.30008 0.0
H2719 H 0.05288 0.25464 0.9331 0.0
H2720 H 0.06445 0.27853 0.25889 0.0
H2721 H 0.08172 0.24562 0.96246 0.0
H2722 H 0.05427 0.25987 0.05985 0.0
H2723 H 0.08472 0.25518 0.18255 0.0
C2724 C 0.08301 0.2659 0.26636 0.0
C2725 C 0.07735 0.27256 0.28911 0.0
C2726 C 0.06019 0.2566 0.03876 0.0
C2727 C 0.07173 0.26129 0.15485 0.0
C2728 C 0.05934 0.25352 0.96647 0.0
C2729 C 0.06739 0.24994 0.93681 0.0
C2730 C 0.06915 0.2561 0.0816 0.0
C2731 C 0.07545 0.2485 0.98283 0.0
C2732 C 0.08022 0.26024 0.19935 0.0
C2733 C 0.06905 0.27352 0.24296 0.0
N2734 N 0.07627 0.25178 0.05284 0.0
N2735 N 0.06646 0.26792 0.17795 0.0
H2736 H 0.21442 0.28033 0.25882 0.0
H2737 H 0.16294 0.24711 0.95793 0.0
H2738 H 0.17595 0.26853 0.29119 0.0
H2739 H 0.20112 0.25709 0.93113 0.0
H2740 H 0.16695 0.25261 0.08448 0.0
H2741 H 0.2094 0.27056 0.14086 0.0
C2742 C 0.20492 0.27571 0.24078 0.0
C2743 C 0.19556 0.27514 0.28464 0.0
C2744 C 0.1744 0.25343 0.05111 0.0
C2745 C 0.18971 0.26386 0.1504 0.0
C2746 C 0.1721 0.2502 0.97892 0.0
C2747 C 0.18178 0.2519 0.93356 0.0
C2748 C 0.18646 0.25842 0.07781 0.0
C2749 C 0.19343 0.25584 0.96388 0.0
C2750 C 0.20203 0.27003 0.17386 0.0
C2751 C 0.18339 0.26899 0.25925 0.0
N2752 N 0.1955 0.25916 0.03388 0.0
N2753 N 0.18081 0.2636 0.1936 0.0
H2754 H 0.7289 0.90613 0.29532 0.0
H2755 H 0.74041 0.94421 0.93219 0.0
H2756 H 0.71663 0.93233 0.25855 0.0
H2757 H 0.74956 0.91542 0.95944 0.0
H2758 H 0.73485 0.94237 0.05862 0.0
H2759 H 0.73888 0.91118 0.17769 0.0
C2760 C 0.72837 0.91299 0.26249 0.0
C2761 C 0.72204 0.9189 0.28657 0.0
C2762 C 0.73822 0.93656 0.03717 0.0
C2763 C 0.73335 0.92469 0.15229 0.0
C2764 C 0.74148 0.93767 0.96506 0.0
C2765 C 0.74521 0.92977 0.93487 0.0
C2766 C 0.73866 0.92749 0.07927 0.0
C2767 C 0.74658 0.92159 0.98024 0.0
C2768 C 0.73406 0.91587 0.19546 0.0
C2769 C 0.72138 0.92752 0.2416 0.0
N2770 N 0.74311 0.92052 0.05004 0.0
N2771 N 0.727 0.93018 0.17659 0.0
H2772 H 0.05487 0.79246 0.91001 0.0
H2773 H 0.06451 0.81154 0.31124 0.0
H2774 H 0.07071 0.8314 0.95405 0.0
H2775 H 0.08332 0.79397 0.21654 0.0
H2776 H 0.05933 0.81538 0.19148 0.0
H2777 H 0.05669 0.78888 0.03663 0.0
C2778 C 0.05843 0.80023 0.9464 0.0
C2779 C 0.06295 0.81233 0.92112 0.0
C2780 C 0.06469 0.81081 0.19753 0.0
C2781 C 0.06478 0.80814 0.06552 0.0
C2782 C 0.06792 0.80883 0.26566 0.0
C2783 C 0.07501 0.80303 0.27399 0.0
C2784 C 0.06804 0.80639 0.138 0.0
C2785 C 0.0781 0.79871 0.21256 0.0
C2786 C 0.0595 0.79814 0.01839 0.0
C2787 C 0.0673 0.82198 0.97119 0.0
N2788 N 0.07454 0.80043 0.14694 0.0
N2789 N 0.06824 0.81969 0.04149 0.0
H2790 H 0.93221 0.50794 0.03138 0.0
H2791 H 0.92105 0.53387 0.39767 0.0
H2792 H 0.94481 0.54638 0.07159 0.0
H2793 H 0.91267 0.49621 0.36912 0.0
H2794 H 0.92617 0.53769 0.27073 0.0
H2795 H 0.92219 0.50278 0.14886 0.0
C2796 C 0.93278 0.51528 0.06485 0.0
C2797 C 0.93925 0.52758 0.04187 0.0
C2798 C 0.92306 0.52854 0.29203 0.0
C2799 C 0.92791 0.5218 0.17605 0.0
C2800 C 0.92005 0.52633 0.36443 0.0
C2801 C 0.9167 0.51477 0.39436 0.0
C2802 C 0.92273 0.51915 0.24937 0.0
C2803 C 0.91539 0.50531 0.34852 0.0
C2804 C 0.92709 0.51234 0.13184 0.0
C2805 C 0.93996 0.53678 0.08771 0.0
N2806 N 0.91861 0.50776 0.27841 0.0
N2807 N 0.93434 0.53369 0.15269 0.0
H2808 H 0.4496 0.39755 0.05367 0.0
H2809 H 0.50084 0.41497 0.35551 0.0
H2810 H 0.48815 0.42404 0.02246 0.0
H2811 H 0.4625 0.38718 0.38169 0.0
H2812 H 0.49692 0.41673 0.22912 0.0
H2813 H 0.45446 0.39266 0.17174 0.0
C2814 C 0.45909 0.40237 0.07197 0.0
C2815 C 0.46851 0.41114 0.02836 0.0
C2816 C 0.4894 0.41012 0.26231 0.0
C2817 C 0.47418 0.40555 0.16283 0.0
C2818 C 0.49166 0.40905 0.33442 0.0
C2819 C 0.48193 0.4011 0.37959 0.0
C2820 C 0.47734 0.40324 0.23546 0.0
C2821 C 0.47024 0.39358 0.34912 0.0
C2822 C 0.46189 0.3995 0.13899 0.0
C2823 C 0.48066 0.41707 0.05415 0.0
N2824 N 0.46823 0.39498 0.27918 0.0
N2825 N 0.48315 0.41419 0.11989 0.0
H2826 H 0.58233 0.08614 0.35149 0.0
H2827 H 0.59842 0.05091 0.05258 0.0
H2828 H 0.60924 0.07445 0.3797 0.0
H2829 H 0.57405 0.06546 0.01645 0.0
H2830 H 0.60343 0.06064 0.17071 0.0
H2831 H 0.58085 0.08073 0.22476 0.0
C2832 C 0.58813 0.08269 0.33079 0.0
C2833 C 0.59572 0.0805 0.37659 0.0
C2834 C 0.59706 0.06179 0.1368 0.0
C2835 C 0.59389 0.07408 0.23211 0.0
C2836 C 0.5941 0.05614 0.06977 0.0
C2837 C 0.58589 0.05748 0.02483 0.0
C2838 C 0.59161 0.0687 0.15931 0.0
C2839 C 0.5806 0.06439 0.04917 0.0
C2840 C 0.58721 0.07952 0.25848 0.0
C2841 C 0.60309 0.0761 0.34663 0.0
N2842 N 0.58352 0.06972 0.11499 0.0
N2843 N 0.60184 0.07284 0.27651 0.0
loop_
_geom_bond_atom_site_label_1
_geom_bond_atom_site_label_2
_geom_bond_distance
_geom_bond_site_symmetry_2
_ccdc_geom_bond_type
Co0 O3 1.970 . S
Co0 N17 1.989 . S
Co0 O25 1.967 . S
Co0 O32 1.920 . S
Co1 O4 1.966 . S
Co1 N10 2.022 . S
Co1 N18 1.993 . S
Co1 O26 1.941 . S
C2 O3 1.258 1_554 S
C2 O4 1.263 . S
O3 Co0 1.970 . S
O3 C2 1.258 1_556 S
O4 Co1 1.966 . S
O4 C2 1.263 . S
C5 O6 1.235 . S
C5 O32 1.289 . S
O6 C5 1.235 . S
C7 C9 1.400 . S
C7 N10 1.351 . S
C7 C12 1.501 . S
C8 C9 1.387 . S
C8 N11 1.341 . S
C9 C7 1.400 . S
C9 C8 1.387 . S
N10 Co1 2.022 . S
N10 C7 1.351 . S
N10 N11 1.365 . S
N11 C8 1.341 . S
N11 N10 1.365 . S
N11 H31 0.862 . S
C12 C7 1.501 . S
C12 H13 0.961 . S
C12 H14 0.961 . S
C12 H15 0.960 . S
H13 C12 0.961 . S
H14 C12 0.961 . S
H15 C12 0.960 . S
C16 N17 1.342 . S
C16 C20 1.401 1_556 S
C16 C21 1.499 . S
N17 Co0 1.989 . S
N17 C16 1.342 . S
N17 N18 1.388 1_556 S
N18 Co1 1.993 . S
N18 N17 1.388 1_554 S
N18 C19 1.346 . S
C19 N18 1.346 . S
C19 C20 1.396 . S
C19 C29 1.510 . S
C20 C16 1.401 1_554 S
C20 C19 1.396 . S
C21 C16 1.499 . S
C21 H22 0.959 . S
C21 H23 0.960 . S
C21 H24 0.961 . S
H22 C21 0.959 . S
H23 C21 0.960 . S
H24 C21 0.961 . S
O25 Co0 1.967 . S
O25 C33 1.258 . S
O26 Co1 1.941 . S
O26 C33 1.266 1_554 S
H27 C29 0.959 . S
H28 C29 0.961 . S
C29 C19 1.510 . S
C29 H27 0.959 . S
C29 H28 0.961 . S
C29 H30 0.960 . S
H30 C29 0.960 . S
H31 N11 0.862 . S
O32 Co0 1.920 . S
O32 C5 1.289 . S
C33 O25 1.258 . S
C33 O26 1.266 1_556 S
Co34 O37 1.970 . S
Co34 N51 1.989 . S
Co34 O59 1.967 . S
Co34 O66 1.920 . S
Co35 O38 1.966 . S
Co35 N44 2.022 . S
Co35 N52 1.993 . S
Co35 O60 1.941 . S
C36 O37 1.258 1_554 S
C36 O38 1.263 . S
O37 Co34 1.970 . S
O37 C36 1.258 1_556 S
O38 Co35 1.966 . S
O38 C36 1.263 . S
C39 O40 1.235 . S
C39 O66 1.289 . S
O40 C39 1.235 . S
C41 C43 1.400 . S
C41 N44 1.351 . S
C41 C46 1.501 . S
C42 C43 1.387 . S
C42 N45 1.341 . S
C43 C41 1.400 . S
C43 C42 1.387 . S
N44 Co35 2.022 . S
N44 C41 1.351 . S
N44 N45 1.365 . S
N45 C42 1.341 . S
N45 N44 1.365 . S
N45 H65 0.862 . S
C46 C41 1.501 . S
C46 H47 0.961 . S
C46 H48 0.961 . S
C46 H49 0.960 . S
H47 C46 0.961 . S
H48 C46 0.961 . S
H49 C46 0.960 . S
C50 N51 1.342 . S
C50 C54 1.401 1_556 S
C50 C55 1.499 . S
N51 Co34 1.989 . S
N51 C50 1.342 . S
N51 N52 1.388 1_556 S
N52 Co35 1.993 . S
N52 N51 1.388 1_554 S
N52 C53 1.346 . S
C53 N52 1.346 . S
C53 C54 1.396 . S
C53 C63 1.510 . S
C54 C50 1.401 1_554 S
C54 C53 1.396 . S
C55 C50 1.499 . S
C55 H56 0.959 . S
C55 H57 0.960 . S
C55 H58 0.961 . S
H56 C55 0.959 . S
H57 C55 0.960 . S
H58 C55 0.961 . S
O59 Co34 1.967 . S
O59 C67 1.258 . S
O60 Co35 1.941 . S
O60 C67 1.266 1_554 S
H61 C63 0.959 . S
H62 C63 0.961 . S
C63 C53 1.510 . S
C63 H61 0.959 . S
C63 H62 0.961 . S
C63 H64 0.960 . S
H64 C63 0.960 . S
H65 N45 0.862 . S
O66 Co34 1.920 . S
O66 C39 1.289 . S
C67 O59 1.258 . S
C67 O60 1.266 1_556 S
Co68 O71 1.970 . S
Co68 N85 1.989 . S
Co68 O93 1.967 . S
Co68 O100 1.920 . S
Co69 O72 1.966 . S
Co69 N78 2.022 . S
Co69 N86 1.993 . S
Co69 O94 1.941 . S
C70 O71 1.258 1_554 S
C70 O72 1.263 . S
O71 Co68 1.970 . S
O71 C70 1.258 1_556 S
O72 Co69 1.966 . S
O72 C70 1.263 . S
C73 O74 1.235 . S
C73 O100 1.289 . S
O74 C73 1.235 . S
C75 C77 1.400 . S
C75 N78 1.351 . S
C75 C80 1.501 . S
C76 C77 1.387 . S
C76 N79 1.341 . S
C77 C75 1.400 . S
C77 C76 1.387 . S
N78 Co69 2.022 . S
N78 C75 1.351 . S
N78 N79 1.365 . S
N79 C76 1.341 . S
N79 N78 1.365 . S
N79 H99 0.862 . S
C80 C75 1.501 . S
C80 H81 0.961 . S
C80 H82 0.961 . S
C80 H83 0.960 . S
H81 C80 0.961 . S
H82 C80 0.961 . S
H83 C80 0.960 . S
C84 N85 1.342 . S
C84 C88 1.401 1_556 S
C84 C89 1.499 . S
N85 Co68 1.989 . S
N85 C84 1.342 . S
N85 N86 1.388 1_556 S
N86 Co69 1.993 . S
N86 N85 1.388 1_554 S
N86 C87 1.346 . S
C87 N86 1.346 . S
C87 C88 1.396 . S
C87 C97 1.510 . S
C88 C84 1.401 1_554 S
C88 C87 1.396 . S
C89 C84 1.499 . S
C89 H90 0.959 . S
C89 H91 0.960 . S
C89 H92 0.961 . S
H90 C89 0.959 . S
H91 C89 0.960 . S
H92 C89 0.961 . S
O93 Co68 1.967 . S
O93 C101 1.258 . S
O94 Co69 1.941 . S
O94 C101 1.266 1_554 S
H95 C97 0.959 . S
H96 C97 0.961 . S
C97 C87 1.510 . S
C97 H95 0.959 . S
C97 H96 0.961 . S
C97 H98 0.960 . S
H98 C97 0.960 . S
H99 N79 0.862 . S
O100 Co68 1.920 . S
O100 C73 1.289 . S
C101 O93 1.258 . S
C101 O94 1.266 1_556 S
Co102 O105 1.970 . S
Co102 N119 1.989 . S
Co102 O127 1.967 . S
Co102 O134 1.920 . S
Co103 O106 1.966 . S
Co103 N112 2.022 . S
Co103 N120 1.993 . S
Co103 O128 1.941 . S
C104 O105 1.258 1_556 S
C104 O106 1.263 . S
O105 Co102 1.970 . S
O105 C104 1.258 1_554 S
O106 Co103 1.966 . S
O106 C104 1.263 . S
C107 O108 1.235 . S
C107 O134 1.289 . S
O108 C107 1.235 . S
C109 C111 1.400 . S
C109 N112 1.351 . S
C109 C114 1.501 . S
C110 C111 1.387 . S
C110 N113 1.341 . S
C111 C109 1.400 . S
C111 C110 1.387 . S
N112 Co103 2.022 . S
N112 C109 1.351 . S
N112 N113 1.365 . S
N113 C110 1.341 . S
N113 N112 1.365 . S
N113 H133 0.862 . S
C114 C109 1.501 . S
C114 H115 0.961 . S
C114 H116 0.961 . S
C114 H117 0.960 . S
H115 C114 0.961 . S
H116 C114 0.961 . S
H117 C114 0.960 . S
C118 N119 1.342 . S
C118 C122 1.401 1_554 S
C118 C123 1.499 . S
N119 Co102 1.989 . S
N119 C118 1.342 . S
N119 N120 1.388 1_554 S
N120 Co103 1.993 . S
N120 N119 1.388 1_556 S
N120 C121 1.346 . S
C121 N120 1.346 . S
C121 C122 1.396 . S
C121 C131 1.510 . S
C122 C118 1.401 1_556 S
C122 C121 1.396 . S
C123 C118 1.499 . S
C123 H124 0.959 . S
C123 H125 0.960 . S
C123 H126 0.961 . S
H124 C123 0.959 . S
H125 C123 0.960 . S
H126 C123 0.961 . S
O127 Co102 1.967 . S
O127 C135 1.258 . S
O128 Co103 1.941 . S
O128 C135 1.266 1_556 S
H129 C131 0.959 . S
H130 C131 0.961 . S
C131 C121 1.510 . S
C131 H129 0.959 . S
C131 H130 0.961 . S
C131 H132 0.960 . S
H132 C131 0.960 . S
H133 N113 0.862 . S
O134 Co102 1.920 . S
O134 C107 1.289 . S
C135 O127 1.258 . S
C135 O128 1.266 1_554 S
Co136 O139 1.970 . S
Co136 N153 1.989 . S
Co136 O161 1.967 . S
Co136 O168 1.920 . S
Co137 O140 1.966 . S
Co137 N146 2.022 . S
Co137 N154 1.993 . S
Co137 O162 1.941 . S
C138 O139 1.258 1_556 S
C138 O140 1.263 . S
O139 Co136 1.970 . S
O139 C138 1.258 1_554 S
O140 Co137 1.966 . S
O140 C138 1.263 . S
C141 O142 1.235 . S
C141 O168 1.289 . S
O142 C141 1.235 . S
C143 C145 1.400 . S
C143 N146 1.351 . S
C143 C148 1.501 . S
C144 C145 1.387 . S
C144 N147 1.341 . S
C145 C143 1.400 . S
C145 C144 1.387 . S
N146 Co137 2.022 . S
N146 C143 1.351 . S
N146 N147 1.365 . S
N147 C144 1.341 . S
N147 N146 1.365 . S
N147 H167 0.862 . S
C148 C143 1.501 . S
C148 H149 0.961 . S
C148 H150 0.961 . S
C148 H151 0.960 . S
H149 C148 0.961 . S
H150 C148 0.961 . S
H151 C148 0.960 . S
C152 N153 1.342 . S
C152 C156 1.401 1_554 S
C152 C157 1.499 . S
N153 Co136 1.989 . S
N153 C152 1.342 . S
N153 N154 1.388 1_554 S
N154 Co137 1.993 . S
N154 N153 1.388 1_556 S
N154 C155 1.346 . S
C155 N154 1.346 . S
C155 C156 1.396 . S
C155 C165 1.510 . S
C156 C152 1.401 1_556 S
C156 C155 1.396 . S
C157 C152 1.499 . S
C157 H158 0.959 . S
C157 H159 0.960 . S
C157 H160 0.961 . S
H158 C157 0.959 . S
H159 C157 0.960 . S
H160 C157 0.961 . S
O161 Co136 1.967 . S
O161 C169 1.258 . S
O162 Co137 1.941 . S
O162 C169 1.266 1_556 S
H163 C165 0.959 . S
H164 C165 0.961 . S
C165 C155 1.510 . S
C165 H163 0.959 . S
C165 H164 0.961 . S
C165 H166 0.960 . S
H166 C165 0.960 . S
H167 N147 0.862 . S
O168 Co136 1.920 . S
O168 C141 1.289 . S
C169 O161 1.258 . S
C169 O162 1.266 1_554 S
Co170 O173 1.970 . S
Co170 N187 1.989 . S
Co170 O195 1.967 . S
Co170 O202 1.920 . S
Co171 O174 1.966 . S
Co171 N180 2.022 . S
Co171 N188 1.993 . S
Co171 O196 1.941 . S
C172 O173 1.258 1_556 S
C172 O174 1.263 . S
O173 Co170 1.970 . S
O173 C172 1.258 1_554 S
O174 Co171 1.966 . S
O174 C172 1.263 . S
C175 O176 1.235 . S
C175 O202 1.289 . S
O176 C175 1.235 . S
C177 C179 1.400 . S
C177 N180 1.351 . S
C177 C182 1.501 . S
C178 C179 1.387 . S
C178 N181 1.341 . S
C179 C177 1.400 . S
C179 C178 1.387 . S
N180 Co171 2.022 . S
N180 C177 1.351 . S
N180 N181 1.365 . S
N181 C178 1.341 . S
N181 N180 1.365 . S
N181 H201 0.862 . S
C182 C177 1.501 . S
C182 H183 0.961 . S
C182 H184 0.961 . S
C182 H185 0.960 . S
H183 C182 0.961 . S
H184 C182 0.961 . S
H185 C182 0.960 . S
C186 N187 1.342 . S
C186 C190 1.401 1_554 S
C186 C191 1.499 . S
N187 Co170 1.989 . S
N187 C186 1.342 . S
N187 N188 1.388 1_554 S
N188 Co171 1.993 . S
N188 N187 1.388 1_556 S
N188 C189 1.346 . S
C189 N188 1.346 . S
C189 C190 1.396 . S
C189 C199 1.510 . S
C190 C186 1.401 1_556 S
C190 C189 1.396 . S
C191 C186 1.499 . S
C191 H192 0.959 . S
C191 H193 0.960 . S
C191 H194 0.961 . S
H192 C191 0.959 . S
H193 C191 0.960 . S
H194 C191 0.961 . S
O195 Co170 1.967 . S
O195 C203 1.258 . S
O196 Co171 1.941 . S
O196 C203 1.266 1_556 S
H197 C199 0.959 . S
H198 C199 0.961 . S
C199 C189 1.510 . S
C199 H197 0.959 . S
C199 H198 0.961 . S
C199 H200 0.960 . S
H200 C199 0.960 . S
H201 N181 0.862 . S
O202 Co170 1.920 . S
O202 C175 1.289 . S
C203 O195 1.258 . S
C203 O196 1.266 1_554 S
Co204 O207 1.970 . S
Co204 N221 1.989 . S
Co204 O229 1.967 . S
Co204 O236 1.920 . S
Co205 O208 1.966 . S
Co205 N214 2.022 . S
Co205 N222 1.993 . S
Co205 O230 1.941 . S
C206 O207 1.258 1_556 S
C206 O208 1.263 . S
O207 Co204 1.970 . S
O207 C206 1.258 1_554 S
O208 Co205 1.966 . S
O208 C206 1.263 . S
C209 O210 1.235 . S
C209 O236 1.289 . S
O210 C209 1.235 . S
C211 C213 1.400 . S
C211 N214 1.351 . S
C211 C216 1.501 . S
C212 C213 1.387 . S
C212 N215 1.341 . S
C213 C211 1.400 . S
C213 C212 1.387 . S
N214 Co205 2.022 . S
N214 C211 1.351 . S
N214 N215 1.365 . S
N215 C212 1.341 . S
N215 N214 1.365 . S
N215 H235 0.862 . S
C216 C211 1.501 . S
C216 H217 0.961 . S
C216 H218 0.961 . S
C216 H219 0.960 . S
H217 C216 0.961 . S
H218 C216 0.961 . S
H219 C216 0.960 . S
C220 N221 1.342 . S
C220 C224 1.401 1_554 S
C220 C225 1.499 . S
N221 Co204 1.989 . S
N221 C220 1.342 . S
N221 N222 1.388 1_554 S
N222 Co205 1.993 . S
N222 N221 1.388 1_556 S
N222 C223 1.346 . S
C223 N222 1.346 . S
C223 C224 1.396 . S
C223 C233 1.510 . S
C224 C220 1.401 1_556 S
C224 C223 1.396 . S
C225 C220 1.499 . S
C225 H226 0.959 . S
C225 H227 0.960 . S
C225 H228 0.961 . S
H226 C225 0.959 . S
H227 C225 0.960 . S
H228 C225 0.961 . S
O229 Co204 1.967 . S
O229 C237 1.258 . S
O230 Co205 1.941 . S
O230 C237 1.266 1_556 S
H231 C233 0.959 . S
H232 C233 0.961 . S
C233 C223 1.510 . S
C233 H231 0.959 . S
C233 H232 0.961 . S
C233 H234 0.960 . S
H234 C233 0.960 . S
H235 N215 0.862 . S
O236 Co204 1.920 . S
O236 C209 1.289 . S
C237 O229 1.258 . S
C237 O230 1.266 1_554 S
Co238 O241 1.970 . S
Co238 N255 1.989 . S
Co238 O263 1.967 . S
Co238 O270 1.920 . S
Co239 O242 1.966 . S
Co239 N248 2.022 . S
Co239 N256 1.993 . S
Co239 O264 1.941 . S
C240 O241 1.258 1_556 S
C240 O242 1.263 . S
O241 Co238 1.970 . S
O241 C240 1.258 1_554 S
O242 Co239 1.966 . S
O242 C240 1.263 . S
C243 O244 1.235 . S
C243 O270 1.289 . S
O244 C243 1.235 . S
C245 C247 1.400 . S
C245 N248 1.351 . S
C245 C250 1.501 . S
C246 C247 1.387 . S
C246 N249 1.341 . S
C247 C245 1.400 . S
C247 C246 1.387 . S
N248 Co239 2.022 . S
N248 C245 1.351 . S
N248 N249 1.365 . S
N249 C246 1.341 . S
N249 N248 1.365 . S
N249 H269 0.862 . S
C250 C245 1.501 . S
C250 H251 0.961 . S
C250 H252 0.961 . S
C250 H253 0.960 . S
H251 C250 0.961 . S
H252 C250 0.961 . S
H253 C250 0.960 . S
C254 N255 1.342 . S
C254 C258 1.401 1_554 S
C254 C259 1.499 . S
N255 Co238 1.989 . S
N255 C254 1.342 . S
N255 N256 1.388 1_554 S
N256 Co239 1.993 . S
N256 N255 1.388 1_556 S
N256 C257 1.346 . S
C257 N256 1.346 . S
C257 C258 1.396 . S
C257 C267 1.510 . S
C258 C254 1.401 1_556 S
C258 C257 1.396 . S
C259 C254 1.499 . S
C259 H260 0.959 . S
C259 H261 0.960 . S
C259 H262 0.961 . S
H260 C259 0.959 . S
H261 C259 0.960 . S
H262 C259 0.961 . S
O263 Co238 1.967 . S
O263 C271 1.258 . S
O264 Co239 1.941 . S
O264 C271 1.266 1_556 S
H265 C267 0.959 . S
H266 C267 0.961 . S
C267 C257 1.510 . S
C267 H265 0.959 . S
C267 H266 0.961 . S
C267 H268 0.960 . S
H268 C267 0.960 . S
H269 N249 0.862 . S
O270 Co238 1.920 . S
O270 C243 1.289 . S
C271 O263 1.258 . S
C271 O264 1.266 1_554 S
Co272 O275 1.970 . S
Co272 N289 1.989 . S
Co272 O297 1.967 . S
Co272 O304 1.920 . S
Co273 O276 1.966 . S
Co273 N282 2.022 . S
Co273 N290 1.993 . S
Co273 O298 1.941 . S
C274 O275 1.258 1_556 S
C274 O276 1.263 . S
O275 Co272 1.970 . S
O275 C274 1.258 1_554 S
O276 Co273 1.966 . S
O276 C274 1.263 . S
C277 O278 1.235 . S
C277 O304 1.289 . S
O278 C277 1.235 . S
C279 C281 1.400 . S
C279 N282 1.351 . S
C279 C284 1.501 . S
C280 C281 1.387 . S
C280 N283 1.341 . S
C281 C279 1.400 . S
C281 C280 1.387 . S
N282 Co273 2.022 . S
N282 C279 1.351 . S
N282 N283 1.365 . S
N283 C280 1.341 . S
N283 N282 1.365 . S
N283 H303 0.862 . S
C284 C279 1.501 . S
C284 H285 0.961 . S
C284 H286 0.961 . S
C284 H287 0.960 . S
H285 C284 0.961 . S
H286 C284 0.961 . S
H287 C284 0.960 . S
C288 N289 1.342 . S
C288 C292 1.401 1_554 S
C288 C293 1.499 . S
N289 Co272 1.989 . S
N289 C288 1.342 . S
N289 N290 1.388 1_554 S
N290 Co273 1.993 . S
N290 N289 1.388 1_556 S
N290 C291 1.346 . S
C291 N290 1.346 . S
C291 C292 1.396 . S
C291 C301 1.510 . S
C292 C288 1.401 1_556 S
C292 C291 1.396 . S
C293 C288 1.499 . S
C293 H294 0.959 . S
C293 H295 0.960 . S
C293 H296 0.961 . S
H294 C293 0.959 . S
H295 C293 0.960 . S
H296 C293 0.961 . S
O297 Co272 1.967 . S
O297 C305 1.258 . S
O298 Co273 1.941 . S
O298 C305 1.266 1_556 S
H299 C301 0.959 . S
H300 C301 0.961 . S
C301 C291 1.510 . S
C301 H299 0.959 . S
C301 H300 0.961 . S
C301 H302 0.960 . S
H302 C301 0.960 . S
H303 N283 0.862 . S
O304 Co272 1.920 . S
O304 C277 1.289 . S
C305 O297 1.258 . S
C305 O298 1.266 1_554 S
Co306 O309 1.970 . S
Co306 N323 1.989 . S
Co306 O331 1.967 . S
Co306 O338 1.920 . S
Co307 O310 1.966 . S
Co307 N316 2.022 . S
Co307 N324 1.993 . S
Co307 O332 1.941 . S
C308 O309 1.258 1_554 S
C308 O310 1.263 . S
O309 Co306 1.970 . S
O309 C308 1.258 1_556 S
O310 Co307 1.966 . S
O310 C308 1.263 . S
C311 O312 1.235 . S
C311 O338 1.289 . S
O312 C311 1.235 . S
C313 C315 1.400 . S
C313 N316 1.351 . S
C313 C318 1.501 . S
C314 C315 1.387 . S
C314 N317 1.341 . S
C315 C313 1.400 . S
C315 C314 1.387 . S
N316 Co307 2.022 . S
N316 C313 1.351 . S
N316 N317 1.365 . S
N317 C314 1.341 . S
N317 N316 1.365 . S
N317 H337 0.862 . S
C318 C313 1.501 . S
C318 H319 0.961 . S
C318 H320 0.961 . S
C318 H321 0.960 . S
H319 C318 0.961 . S
H320 C318 0.961 . S
H321 C318 0.960 . S
C322 N323 1.342 . S
C322 C326 1.401 1_556 S
C322 C327 1.499 . S
N323 Co306 1.989 . S
N323 C322 1.342 . S
N323 N324 1.388 1_556 S
N324 Co307 1.993 . S
N324 N323 1.388 1_554 S
N324 C325 1.346 . S
C325 N324 1.346 . S
C325 C326 1.396 . S
C325 C335 1.510 . S
C326 C322 1.401 1_554 S
C326 C325 1.396 . S
C327 C322 1.499 . S
C327 H328 0.959 . S
C327 H329 0.960 . S
C327 H330 0.961 . S
H328 C327 0.959 . S
H329 C327 0.960 . S
H330 C327 0.961 . S
O331 Co306 1.967 . S
O331 C339 1.258 . S
O332 Co307 1.941 . S
O332 C339 1.266 1_554 S
H333 C335 0.959 . S
H334 C335 0.961 . S
C335 C325 1.510 . S
C335 H333 0.959 . S
C335 H334 0.961 . S
C335 H336 0.960 . S
H336 C335 0.960 . S
H337 N317 0.862 . S
O338 Co306 1.920 . S
O338 C311 1.289 . S
C339 O331 1.258 . S
C339 O332 1.266 1_556 S
Co340 O343 1.970 . S
Co340 N357 1.989 . S
Co340 O365 1.967 . S
Co340 O372 1.920 . S
Co341 O344 1.966 . S
Co341 N350 2.022 . S
Co341 N358 1.993 . S
Co341 O366 1.941 . S
C342 O343 1.258 1_554 S
C342 O344 1.263 . S
O343 Co340 1.970 . S
O343 C342 1.258 1_556 S
O344 Co341 1.966 . S
O344 C342 1.263 . S
C345 O346 1.235 . S
C345 O372 1.289 . S
O346 C345 1.235 . S
C347 C349 1.400 . S
C347 N350 1.351 . S
C347 C352 1.501 . S
C348 C349 1.387 . S
C348 N351 1.341 . S
C349 C347 1.400 . S
C349 C348 1.387 . S
N350 Co341 2.022 . S
N350 C347 1.351 . S
N350 N351 1.365 . S
N351 C348 1.341 . S
N351 N350 1.365 . S
N351 H371 0.862 . S
C352 C347 1.501 . S
C352 H353 0.961 . S
C352 H354 0.961 . S
C352 H355 0.960 . S
H353 C352 0.961 . S
H354 C352 0.961 . S
H355 C352 0.960 . S
C356 N357 1.342 . S
C356 C360 1.401 1_556 S
C356 C361 1.499 . S
N357 Co340 1.989 . S
N357 C356 1.342 . S
N357 N358 1.388 1_556 S
N358 Co341 1.993 . S
N358 N357 1.388 1_554 S
N358 C359 1.346 . S
C359 N358 1.346 . S
C359 C360 1.396 . S
C359 C369 1.510 . S
C360 C356 1.401 1_554 S
C360 C359 1.396 . S
C361 C356 1.499 . S
C361 H362 0.959 . S
C361 H363 0.960 . S
C361 H364 0.961 . S
H362 C361 0.959 . S
H363 C361 0.960 . S
H364 C361 0.961 . S
O365 Co340 1.967 . S
O365 C373 1.258 . S
O366 Co341 1.941 . S
O366 C373 1.266 1_554 S
H367 C369 0.959 . S
H368 C369 0.961 . S
C369 C359 1.510 . S
C369 H367 0.959 . S
C369 H368 0.961 . S
C369 H370 0.960 . S
H370 C369 0.960 . S
H371 N351 0.862 . S
O372 Co340 1.920 . S
O372 C345 1.289 . S
C373 O365 1.258 . S
C373 O366 1.266 1_556 S
Co374 O377 1.970 . S
Co374 N391 1.989 . S
Co374 O399 1.967 . S
Co374 O406 1.920 . S
Co375 O378 1.966 . S
Co375 N384 2.022 . S
Co375 N392 1.993 . S
Co375 O400 1.941 . S
C376 O377 1.258 1_554 S
C376 O378 1.263 . S
O377 Co374 1.970 . S
O377 C376 1.258 1_556 S
O378 Co375 1.966 . S
O378 C376 1.263 . S
C379 O380 1.235 . S
C379 O406 1.289 . S
O380 C379 1.235 . S
C381 C383 1.400 . S
C381 N384 1.351 . S
C381 C386 1.501 . S
C382 C383 1.387 . S
C382 N385 1.341 . S
C383 C381 1.400 . S
C383 C382 1.387 . S
N384 Co375 2.022 . S
N384 C381 1.351 . S
N384 N385 1.365 . S
N385 C382 1.341 . S
N385 N384 1.365 . S
N385 H405 0.862 . S
C386 C381 1.501 . S
C386 H387 0.961 . S
C386 H388 0.961 . S
C386 H389 0.960 . S
H387 C386 0.961 . S
H388 C386 0.961 . S
H389 C386 0.960 . S
C390 N391 1.342 . S
C390 C394 1.401 1_556 S
C390 C395 1.499 . S
N391 Co374 1.989 . S
N391 C390 1.342 . S
N391 N392 1.388 1_556 S
N392 Co375 1.993 . S
N392 N391 1.388 1_554 S
N392 C393 1.346 . S
C393 N392 1.346 . S
C393 C394 1.396 . S
C393 C403 1.510 . S
C394 C390 1.401 1_554 S
C394 C393 1.396 . S
C395 C390 1.499 . S
C395 H396 0.959 . S
C395 H397 0.960 . S
C395 H398 0.961 . S
H396 C395 0.959 . S
H397 C395 0.960 . S
H398 C395 0.961 . S
O399 Co374 1.967 . S
O399 C407 1.258 . S
O400 Co375 1.941 . S
O400 C407 1.266 1_554 S
H401 C403 0.959 . S
H402 C403 0.961 . S
C403 C393 1.510 . S
C403 H401 0.959 . S
C403 H402 0.961 . S
C403 H404 0.960 . S
H404 C403 0.960 . S
H405 N385 0.862 . S
O406 Co374 1.920 . S
O406 C379 1.289 . S
C407 O399 1.258 . S
C407 O400 1.266 1_556 S
Co408 O411 1.970 . S
Co408 N425 1.989 . S
Co408 O433 1.967 . S
Co408 O440 1.920 . S
Co409 O412 1.966 . S
Co409 N418 2.022 . S
Co409 N426 1.993 . S
Co409 O434 1.941 . S
C410 O411 1.258 . S
C410 O412 1.263 . S
O411 Co408 1.970 . S
O411 C410 1.258 . S
O412 Co409 1.966 . S
O412 C410 1.263 . S
C413 O414 1.235 . S
C413 O440 1.289 . S
O414 C413 1.235 . S
C415 C417 1.400 . S
C415 N418 1.351 . S
C415 C420 1.501 . S
C416 C417 1.387 . S
C416 N419 1.341 . S
C417 C415 1.400 . S
C417 C416 1.387 . S
N418 Co409 2.022 . S
N418 C415 1.351 . S
N418 N419 1.365 . S
N419 C416 1.341 . S
N419 N418 1.365 . S
N419 H439 0.862 . S
C420 C415 1.501 . S
C420 H421 0.961 . S
C420 H422 0.961 . S
C420 H423 0.960 . S
H421 C420 0.961 . S
H422 C420 0.961 . S
H423 C420 0.960 . S
C424 N425 1.342 . S
C424 C428 1.401 . S
C424 C429 1.499 . S
N425 Co408 1.989 . S
N425 C424 1.342 . S
N425 N426 1.388 . S
N426 Co409 1.993 . S
N426 N425 1.388 . S
N426 C427 1.346 . S
C427 N426 1.346 . S
C427 C428 1.396 . S
C427 C437 1.510 . S
C428 C424 1.401 . S
C428 C427 1.396 . S
C429 C424 1.499 . S
C429 H430 0.959 . S
C429 H431 0.960 . S
C429 H432 0.961 . S
H430 C429 0.959 . S
H431 C429 0.960 . S
H432 C429 0.961 . S
O433 Co408 1.967 . S
O433 C441 1.258 . S
O434 Co409 1.941 . S
O434 C441 1.266 . S
H435 C437 0.959 . S
H436 C437 0.961 . S
C437 C427 1.510 . S
C437 H435 0.959 . S
C437 H436 0.961 . S
C437 H438 0.960 . S
H438 C437 0.960 . S
H439 N419 0.862 . S
O440 Co408 1.920 . S
O440 C413 1.289 . S
C441 O433 1.258 . S
C441 O434 1.266 . S
Co442 O445 1.970 . S
Co442 N459 1.989 . S
Co442 O467 1.967 . S
Co442 O474 1.920 . S
Co443 O446 1.966 . S
Co443 N452 2.022 . S
Co443 N460 1.993 . S
Co443 O468 1.941 . S
C444 O445 1.258 . S
C444 O446 1.263 . S
O445 Co442 1.970 . S
O445 C444 1.258 . S
O446 Co443 1.966 . S
O446 C444 1.263 . S
C447 O448 1.235 . S
C447 O474 1.289 . S
O448 C447 1.235 . S
C449 C451 1.400 . S
C449 N452 1.351 . S
C449 C454 1.501 . S
C450 C451 1.387 . S
C450 N453 1.341 . S
C451 C449 1.400 . S
C451 C450 1.387 . S
N452 Co443 2.022 . S
N452 C449 1.351 . S
N452 N453 1.365 . S
N453 C450 1.341 . S
N453 N452 1.365 . S
N453 H473 0.862 . S
C454 C449 1.501 . S
C454 H455 0.961 . S
C454 H456 0.961 . S
C454 H457 0.960 . S
H455 C454 0.961 . S
H456 C454 0.961 . S
H457 C454 0.960 . S
C458 N459 1.342 . S
C458 C462 1.401 . S
C458 C463 1.499 . S
N459 Co442 1.989 . S
N459 C458 1.342 . S
N459 N460 1.388 . S
N460 Co443 1.993 . S
N460 N459 1.388 . S
N460 C461 1.346 . S
C461 N460 1.346 . S
C461 C462 1.396 . S
C461 C471 1.510 . S
C462 C458 1.401 . S
C462 C461 1.396 . S
C463 C458 1.499 . S
C463 H464 0.959 . S
C463 H465 0.960 . S
C463 H466 0.961 . S
H464 C463 0.959 . S
H465 C463 0.960 . S
H466 C463 0.961 . S
O467 Co442 1.967 . S
O467 C475 1.258 . S
O468 Co443 1.941 . S
O468 C475 1.266 . S
H469 C471 0.959 . S
H470 C471 0.961 . S
C471 C461 1.510 . S
C471 H469 0.959 . S
C471 H470 0.961 . S
C471 H472 0.960 . S
H472 C471 0.960 . S
H473 N453 0.862 . S
O474 Co442 1.920 . S
O474 C447 1.289 . S
C475 O467 1.258 . S
C475 O468 1.266 . S
Co476 O479 1.970 . S
Co476 N493 1.989 . S
Co476 O501 1.967 . S
Co476 O508 1.920 . S
Co477 O480 1.966 . S
Co477 N486 2.022 . S
Co477 N494 1.993 . S
Co477 O502 1.941 . S
C478 O479 1.258 . S
C478 O480 1.263 . S
O479 Co476 1.970 . S
O479 C478 1.258 . S
O480 Co477 1.966 . S
O480 C478 1.263 . S
C481 O482 1.235 . S
C481 O508 1.289 . S
O482 C481 1.235 . S
C483 C485 1.400 . S
C483 N486 1.351 . S
C483 C488 1.501 . S
C484 C485 1.387 . S
C484 N487 1.341 . S
C485 C483 1.400 . S
C485 C484 1.387 . S
N486 Co477 2.022 . S
N486 C483 1.351 . S
N486 N487 1.365 . S
N487 C484 1.341 . S
N487 N486 1.365 . S
N487 H507 0.862 . S
C488 C483 1.501 . S
C488 H489 0.961 . S
C488 H490 0.961 . S
C488 H491 0.960 . S
H489 C488 0.961 . S
H490 C488 0.961 . S
H491 C488 0.960 . S
C492 N493 1.342 . S
C492 C496 1.401 . S
C492 C497 1.499 . S
N493 Co476 1.989 . S
N493 C492 1.342 . S
N493 N494 1.388 . S
N494 Co477 1.993 . S
N494 N493 1.388 . S
N494 C495 1.346 . S
C495 N494 1.346 . S
C495 C496 1.396 . S
C495 C505 1.510 . S
C496 C492 1.401 . S
C496 C495 1.396 . S
C497 C492 1.499 . S
C497 H498 0.959 . S
C497 H499 0.960 . S
C497 H500 0.961 . S
H498 C497 0.959 . S
H499 C497 0.960 . S
H500 C497 0.961 . S
O501 Co476 1.967 . S
O501 C509 1.258 . S
O502 Co477 1.941 . S
O502 C509 1.266 . S
H503 C505 0.959 . S
H504 C505 0.961 . S
C505 C495 1.510 . S
C505 H503 0.959 . S
C505 H504 0.961 . S
C505 H506 0.960 . S
H506 C505 0.960 . S
H507 N487 0.862 . S
O508 Co476 1.920 . S
O508 C481 1.289 . S
C509 O501 1.258 . S
C509 O502 1.266 . S
Co510 O513 1.970 . S
Co510 N527 1.989 . S
Co510 O535 1.967 . S
Co510 O542 1.920 . S
Co511 O514 1.966 . S
Co511 N520 2.022 . S
Co511 N528 1.993 . S
Co511 O536 1.941 . S
C512 O513 1.258 . S
C512 O514 1.263 . S
O513 Co510 1.970 . S
O513 C512 1.258 . S
O514 Co511 1.966 . S
O514 C512 1.263 . S
C515 O516 1.235 . S
C515 O542 1.289 . S
O516 C515 1.235 . S
C517 C519 1.400 . S
C517 N520 1.351 . S
C517 C522 1.501 . S
C518 C519 1.387 . S
C518 N521 1.341 . S
C519 C517 1.400 . S
C519 C518 1.387 . S
N520 Co511 2.022 . S
N520 C517 1.351 . S
N520 N521 1.365 . S
N521 C518 1.341 . S
N521 N520 1.365 . S
N521 H541 0.862 . S
C522 C517 1.501 . S
C522 H523 0.961 . S
C522 H524 0.961 . S
C522 H525 0.960 . S
H523 C522 0.961 . S
H524 C522 0.961 . S
H525 C522 0.960 . S
C526 N527 1.342 . S
C526 C530 1.401 . S
C526 C531 1.499 . S
N527 Co510 1.989 . S
N527 C526 1.342 . S
N527 N528 1.388 . S
N528 Co511 1.993 . S
N528 N527 1.388 . S
N528 C529 1.346 . S
C529 N528 1.346 . S
C529 C530 1.396 . S
C529 C539 1.510 . S
C530 C526 1.401 . S
C530 C529 1.396 . S
C531 C526 1.499 . S
C531 H532 0.959 . S
C531 H533 0.960 . S
C531 H534 0.961 . S
H532 C531 0.959 . S
H533 C531 0.960 . S
H534 C531 0.961 . S
O535 Co510 1.967 . S
O535 C543 1.258 . S
O536 Co511 1.941 . S
O536 C543 1.266 . S
H537 C539 0.959 . S
H538 C539 0.961 . S
C539 C529 1.510 . S
C539 H537 0.959 . S
C539 H538 0.961 . S
C539 H540 0.960 . S
H540 C539 0.960 . S
H541 N521 0.862 . S
O542 Co510 1.920 . S
O542 C515 1.289 . S
C543 O535 1.258 . S
C543 O536 1.266 . S
Co544 O547 1.970 . S
Co544 N561 1.989 . S
Co544 O569 1.967 . S
Co544 O576 1.920 . S
Co545 O548 1.966 . S
Co545 N554 2.022 . S
Co545 N562 1.993 . S
Co545 O570 1.941 . S
C546 O547 1.258 . S
C546 O548 1.263 . S
O547 Co544 1.970 . S
O547 C546 1.258 . S
O548 Co545 1.966 . S
O548 C546 1.263 . S
C549 O550 1.235 . S
C549 O576 1.289 . S
O550 C549 1.235 . S
C551 C553 1.400 . S
C551 N554 1.351 . S
C551 C556 1.501 . S
C552 C553 1.387 . S
C552 N555 1.341 . S
C553 C551 1.400 . S
C553 C552 1.387 . S
N554 Co545 2.022 . S
N554 C551 1.351 . S
N554 N555 1.365 . S
N555 C552 1.341 . S
N555 N554 1.365 . S
N555 H575 0.862 . S
C556 C551 1.501 . S
C556 H557 0.961 . S
C556 H558 0.961 . S
C556 H559 0.960 . S
H557 C556 0.961 . S
H558 C556 0.961 . S
H559 C556 0.960 . S
C560 N561 1.342 . S
C560 C564 1.401 . S
C560 C565 1.499 . S
N561 Co544 1.989 . S
N561 C560 1.342 . S
N561 N562 1.388 . S
N562 Co545 1.993 . S
N562 N561 1.388 . S
N562 C563 1.346 . S
C563 N562 1.346 . S
C563 C564 1.396 . S
C563 C573 1.510 . S
C564 C560 1.401 . S
C564 C563 1.396 . S
C565 C560 1.499 . S
C565 H566 0.959 . S
C565 H567 0.960 . S
C565 H568 0.961 . S
H566 C565 0.959 . S
H567 C565 0.960 . S
H568 C565 0.961 . S
O569 Co544 1.967 . S
O569 C577 1.258 . S
O570 Co545 1.941 . S
O570 C577 1.266 . S
H571 C573 0.959 . S
H572 C573 0.961 . S
C573 C563 1.510 . S
C573 H571 0.959 . S
C573 H572 0.961 . S
C573 H574 0.960 . S
H574 C573 0.960 . S
H575 N555 0.862 . S
O576 Co544 1.920 . S
O576 C549 1.289 . S
C577 O569 1.258 . S
C577 O570 1.266 . S
Co578 O581 1.970 . S
Co578 N595 1.989 . S
Co578 O603 1.967 . S
Co578 O610 1.920 . S
Co579 O582 1.966 . S
Co579 N588 2.022 . S
Co579 N596 1.993 . S
Co579 O604 1.941 . S
C580 O581 1.258 . S
C580 O582 1.263 . S
O581 Co578 1.970 . S
O581 C580 1.258 . S
O582 Co579 1.966 . S
O582 C580 1.263 . S
C583 O584 1.235 . S
C583 O610 1.289 . S
O584 C583 1.235 . S
C585 C587 1.400 . S
C585 N588 1.351 . S
C585 C590 1.501 . S
C586 C587 1.387 . S
C586 N589 1.341 . S
C587 C585 1.400 . S
C587 C586 1.387 . S
N588 Co579 2.022 . S
N588 C585 1.351 . S
N588 N589 1.365 . S
N589 C586 1.341 . S
N589 N588 1.365 . S
N589 H609 0.862 . S
C590 C585 1.501 . S
C590 H591 0.961 . S
C590 H592 0.961 . S
C590 H593 0.960 . S
H591 C590 0.961 . S
H592 C590 0.961 . S
H593 C590 0.960 . S
C594 N595 1.342 . S
C594 C598 1.401 . S
C594 C599 1.499 . S
N595 Co578 1.989 . S
N595 C594 1.342 . S
N595 N596 1.388 . S
N596 Co579 1.993 . S
N596 N595 1.388 . S
N596 C597 1.346 . S
C597 N596 1.346 . S
C597 C598 1.396 . S
C597 C607 1.510 . S
C598 C594 1.401 . S
C598 C597 1.396 . S
C599 C594 1.499 . S
C599 H600 0.959 . S
C599 H601 0.960 . S
C599 H602 0.961 . S
H600 C599 0.959 . S
H601 C599 0.960 . S
H602 C599 0.961 . S
O603 Co578 1.967 . S
O603 C611 1.258 . S
O604 Co579 1.941 . S
O604 C611 1.266 . S
H605 C607 0.959 . S
H606 C607 0.961 . S
C607 C597 1.510 . S
C607 H605 0.959 . S
C607 H606 0.961 . S
C607 H608 0.960 . S
H608 C607 0.960 . S
H609 N589 0.862 . S
O610 Co578 1.920 . S
O610 C583 1.289 . S
C611 O603 1.258 . S
C611 O604 1.266 . S
Co612 O615 1.970 . S
Co612 N629 1.989 . S
Co612 O637 1.967 . S
Co612 O644 1.920 . S
Co613 O616 1.966 . S
Co613 N622 2.022 . S
Co613 N630 1.993 . S
Co613 O638 1.941 . S
C614 O615 1.258 . S
C614 O616 1.263 . S
O615 Co612 1.970 . S
O615 C614 1.258 . S
O616 Co613 1.966 . S
O616 C614 1.263 . S
C617 O618 1.235 . S
C617 O644 1.289 . S
O618 C617 1.235 . S
C619 C621 1.400 . S
C619 N622 1.351 . S
C619 C624 1.501 . S
C620 C621 1.387 . S
C620 N623 1.341 . S
C621 C619 1.400 . S
C621 C620 1.387 . S
N622 Co613 2.022 . S
N622 C619 1.351 . S
N622 N623 1.365 . S
N623 C620 1.341 . S
N623 N622 1.365 . S
N623 H643 0.862 . S
C624 C619 1.501 . S
C624 H625 0.961 . S
C624 H626 0.961 . S
C624 H627 0.960 . S
H625 C624 0.961 . S
H626 C624 0.961 . S
H627 C624 0.960 . S
C628 N629 1.342 . S
C628 C632 1.401 . S
C628 C633 1.499 . S
N629 Co612 1.989 . S
N629 C628 1.342 . S
N629 N630 1.388 . S
N630 Co613 1.993 . S
N630 N629 1.388 . S
N630 C631 1.346 . S
C631 N630 1.346 . S
C631 C632 1.396 . S
C631 C641 1.510 . S
C632 C628 1.401 . S
C632 C631 1.396 . S
C633 C628 1.499 . S
C633 H634 0.959 . S
C633 H635 0.960 . S
C633 H636 0.961 . S
H634 C633 0.959 . S
H635 C633 0.960 . S
H636 C633 0.961 . S
O637 Co612 1.967 . S
O637 C645 1.258 . S
O638 Co613 1.941 . S
O638 C645 1.266 . S
H639 C641 0.959 . S
H640 C641 0.961 . S
C641 C631 1.510 . S
C641 H639 0.959 . S
C641 H640 0.961 . S
C641 H642 0.960 . S
H642 C641 0.960 . S
H643 N623 0.862 . S
O644 Co612 1.920 . S
O644 C617 1.289 . S
C645 O637 1.258 . S
C645 O638 1.266 . S
Co646 O649 1.970 . S
Co646 N663 1.989 . S
Co646 O671 1.967 . S
Co646 O678 1.920 . S
Co647 O650 1.966 . S
Co647 N656 2.022 . S
Co647 N664 1.993 . S
Co647 O672 1.941 . S
C648 O649 1.258 . S
C648 O650 1.263 . S
O649 Co646 1.970 . S
O649 C648 1.258 . S
O650 Co647 1.966 . S
O650 C648 1.263 . S
C651 O652 1.235 . S
C651 O678 1.289 . S
O652 C651 1.235 . S
C653 C655 1.400 . S
C653 N656 1.351 . S
C653 C658 1.501 . S
C654 C655 1.387 . S
C654 N657 1.341 . S
C655 C653 1.400 . S
C655 C654 1.387 . S
N656 Co647 2.022 . S
N656 C653 1.351 . S
N656 N657 1.365 . S
N657 C654 1.341 . S
N657 N656 1.365 . S
N657 H677 0.862 . S
C658 C653 1.501 . S
C658 H659 0.961 . S
C658 H660 0.961 . S
C658 H661 0.960 . S
H659 C658 0.961 . S
H660 C658 0.961 . S
H661 C658 0.960 . S
C662 N663 1.342 . S
C662 C666 1.401 . S
C662 C667 1.499 . S
N663 Co646 1.989 . S
N663 C662 1.342 . S
N663 N664 1.388 . S
N664 Co647 1.993 . S
N664 N663 1.388 . S
N664 C665 1.346 . S
C665 N664 1.346 . S
C665 C666 1.396 . S
C665 C675 1.510 . S
C666 C662 1.401 . S
C666 C665 1.396 . S
C667 C662 1.499 . S
C667 H668 0.959 . S
C667 H669 0.960 . S
C667 H670 0.961 . S
H668 C667 0.959 . S
H669 C667 0.960 . S
H670 C667 0.961 . S
O671 Co646 1.967 . S
O671 C679 1.258 . S
O672 Co647 1.941 . S
O672 C679 1.266 . S
H673 C675 0.959 . S
H674 C675 0.961 . S
C675 C665 1.510 . S
C675 H673 0.959 . S
C675 H674 0.961 . S
C675 H676 0.960 . S
H676 C675 0.960 . S
H677 N657 0.862 . S
O678 Co646 1.920 . S
O678 C651 1.289 . S
C679 O671 1.258 . S
C679 O672 1.266 . S
Co680 O683 1.970 . S
Co680 N697 1.989 . S
Co680 O705 1.967 . S
Co680 O712 1.920 . S
Co681 O684 1.966 . S
Co681 N690 2.022 . S
Co681 N698 1.993 . S
Co681 O706 1.941 . S
C682 O683 1.258 . S
C682 O684 1.263 . S
O683 Co680 1.970 . S
O683 C682 1.258 . S
O684 Co681 1.966 . S
O684 C682 1.263 . S
C685 O686 1.235 . S
C685 O712 1.289 . S
O686 C685 1.235 . S
C687 C689 1.400 . S
C687 N690 1.351 . S
C687 C692 1.501 . S
C688 C689 1.387 . S
C688 N691 1.341 . S
C689 C687 1.400 . S
C689 C688 1.387 . S
N690 Co681 2.022 . S
N690 C687 1.351 . S
N690 N691 1.365 . S
N691 C688 1.341 . S
N691 N690 1.365 . S
N691 H711 0.862 . S
C692 C687 1.501 . S
C692 H693 0.961 . S
C692 H694 0.961 . S
C692 H695 0.960 . S
H693 C692 0.961 . S
H694 C692 0.961 . S
H695 C692 0.960 . S
C696 N697 1.342 . S
C696 C700 1.401 . S
C696 C701 1.499 . S
N697 Co680 1.989 . S
N697 C696 1.342 . S
N697 N698 1.388 . S
N698 Co681 1.993 . S
N698 N697 1.388 . S
N698 C699 1.346 . S
C699 N698 1.346 . S
C699 C700 1.396 . S
C699 C709 1.510 . S
C700 C696 1.401 . S
C700 C699 1.396 . S
C701 C696 1.499 . S
C701 H702 0.959 . S
C701 H703 0.960 . S
C701 H704 0.961 . S
H702 C701 0.959 . S
H703 C701 0.960 . S
H704 C701 0.961 . S
O705 Co680 1.967 . S
O705 C713 1.258 . S
O706 Co681 1.941 . S
O706 C713 1.266 . S
H707 C709 0.959 . S
H708 C709 0.961 . S
C709 C699 1.510 . S
C709 H707 0.959 . S
C709 H708 0.961 . S
C709 H710 0.960 . S
H710 C709 0.960 . S
H711 N691 0.862 . S
O712 Co680 1.920 . S
O712 C685 1.289 . S
C713 O705 1.258 . S
C713 O706 1.266 . S
Co714 O717 1.970 . S
Co714 N731 1.989 . S
Co714 O739 1.967 . S
Co714 O746 1.920 . S
Co715 O718 1.966 . S
Co715 N724 2.022 . S
Co715 N732 1.993 . S
Co715 O740 1.941 . S
C716 O717 1.258 . S
C716 O718 1.263 . S
O717 Co714 1.970 . S
O717 C716 1.258 . S
O718 Co715 1.966 . S
O718 C716 1.263 . S
C719 O720 1.235 . S
C719 O746 1.289 . S
O720 C719 1.235 . S
C721 C723 1.400 . S
C721 N724 1.351 . S
C721 C726 1.501 . S
C722 C723 1.387 . S
C722 N725 1.341 . S
C723 C721 1.400 . S
C723 C722 1.387 . S
N724 Co715 2.022 . S
N724 C721 1.351 . S
N724 N725 1.365 . S
N725 C722 1.341 . S
N725 N724 1.365 . S
N725 H745 0.862 . S
C726 C721 1.501 . S
C726 H727 0.961 . S
C726 H728 0.961 . S
C726 H729 0.960 . S
H727 C726 0.961 . S
H728 C726 0.961 . S
H729 C726 0.960 . S
C730 N731 1.342 . S
C730 C734 1.401 . S
C730 C735 1.499 . S
N731 Co714 1.989 . S
N731 C730 1.342 . S
N731 N732 1.388 . S
N732 Co715 1.993 . S
N732 N731 1.388 . S
N732 C733 1.346 . S
C733 N732 1.346 . S
C733 C734 1.396 . S
C733 C743 1.510 . S
C734 C730 1.401 . S
C734 C733 1.396 . S
C735 C730 1.499 . S
C735 H736 0.959 . S
C735 H737 0.960 . S
C735 H738 0.961 . S
H736 C735 0.959 . S
H737 C735 0.960 . S
H738 C735 0.961 . S
O739 Co714 1.967 . S
O739 C747 1.258 . S
O740 Co715 1.941 . S
O740 C747 1.266 . S
H741 C743 0.959 . S
H742 C743 0.961 . S
C743 C733 1.510 . S
C743 H741 0.959 . S
C743 H742 0.961 . S
C743 H744 0.960 . S
H744 C743 0.960 . S
H745 N725 0.862 . S
O746 Co714 1.920 . S
O746 C719 1.289 . S
C747 O739 1.258 . S
C747 O740 1.266 . S
Co748 O751 1.970 . S
Co748 N765 1.989 . S
Co748 O773 1.967 . S
Co748 O780 1.920 . S
Co749 O752 1.966 . S
Co749 N758 2.022 . S
Co749 N766 1.993 . S
Co749 O774 1.941 . S
C750 O751 1.258 . S
C750 O752 1.263 . S
O751 Co748 1.970 . S
O751 C750 1.258 . S
O752 Co749 1.966 . S
O752 C750 1.263 . S
C753 O754 1.235 . S
C753 O780 1.289 . S
O754 C753 1.235 . S
C755 C757 1.400 . S
C755 N758 1.351 . S
C755 C760 1.501 . S
C756 C757 1.387 . S
C756 N759 1.341 . S
C757 C755 1.400 . S
C757 C756 1.387 . S
N758 Co749 2.022 . S
N758 C755 1.351 . S
N758 N759 1.365 . S
N759 C756 1.341 . S
N759 N758 1.365 . S
N759 H779 0.862 . S
C760 C755 1.501 . S
C760 H761 0.961 . S
C760 H762 0.961 . S
C760 H763 0.960 . S
H761 C760 0.961 . S
H762 C760 0.961 . S
H763 C760 0.960 . S
C764 N765 1.342 . S
C764 C768 1.401 . S
C764 C769 1.499 . S
N765 Co748 1.989 . S
N765 C764 1.342 . S
N765 N766 1.388 . S
N766 Co749 1.993 . S
N766 N765 1.388 . S
N766 C767 1.346 . S
C767 N766 1.346 . S
C767 C768 1.396 . S
C767 C777 1.510 . S
C768 C764 1.401 . S
C768 C767 1.396 . S
C769 C764 1.499 . S
C769 H770 0.959 . S
C769 H771 0.960 . S
C769 H772 0.961 . S
H770 C769 0.959 . S
H771 C769 0.960 . S
H772 C769 0.961 . S
O773 Co748 1.967 . S
O773 C781 1.258 . S
O774 Co749 1.941 . S
O774 C781 1.266 . S
H775 C777 0.959 . S
H776 C777 0.961 . S
C777 C767 1.510 . S
C777 H775 0.959 . S
C777 H776 0.961 . S
C777 H778 0.960 . S
H778 C777 0.960 . S
H779 N759 0.862 . S
O780 Co748 1.920 . S
O780 C753 1.289 . S
C781 O773 1.258 . S
C781 O774 1.266 . S
Co782 O785 1.970 . S
Co782 N799 1.989 . S
Co782 O807 1.967 . S
Co782 O814 1.920 . S
Co783 O786 1.966 . S
Co783 N792 2.022 . S
Co783 N800 1.993 . S
Co783 O808 1.941 . S
C784 O785 1.258 . S
C784 O786 1.263 . S
O785 Co782 1.970 . S
O785 C784 1.258 . S
O786 Co783 1.966 . S
O786 C784 1.263 . S
C787 O788 1.235 . S
C787 O814 1.289 . S
O788 C787 1.235 . S
C789 C791 1.400 . S
C789 N792 1.351 . S
C789 C794 1.501 . S
C790 C791 1.387 . S
C790 N793 1.341 . S
C791 C789 1.400 . S
C791 C790 1.387 . S
N792 Co783 2.022 . S
N792 C789 1.351 . S
N792 N793 1.365 . S
N793 C790 1.341 . S
N793 N792 1.365 . S
N793 H813 0.862 . S
C794 C789 1.501 . S
C794 H795 0.961 . S
C794 H796 0.961 . S
C794 H797 0.960 . S
H795 C794 0.961 . S
H796 C794 0.961 . S
H797 C794 0.960 . S
C798 N799 1.342 . S
C798 C802 1.401 . S
C798 C803 1.499 . S
N799 Co782 1.989 . S
N799 C798 1.342 . S
N799 N800 1.388 . S
N800 Co783 1.993 . S
N800 N799 1.388 . S
N800 C801 1.346 . S
C801 N800 1.346 . S
C801 C802 1.396 . S
C801 C811 1.510 . S
C802 C798 1.401 . S
C802 C801 1.396 . S
C803 C798 1.499 . S
C803 H804 0.959 . S
C803 H805 0.960 . S
C803 H806 0.961 . S
H804 C803 0.959 . S
H805 C803 0.960 . S
H806 C803 0.961 . S
O807 Co782 1.967 . S
O807 C815 1.258 . S
O808 Co783 1.941 . S
O808 C815 1.266 . S
H809 C811 0.959 . S
H810 C811 0.961 . S
C811 C801 1.510 . S
C811 H809 0.959 . S
C811 H810 0.961 . S
C811 H812 0.960 . S
H812 C811 0.960 . S
H813 N793 0.862 . S
O814 Co782 1.920 . S
O814 C787 1.289 . S
C815 O807 1.258 . S
C815 O808 1.266 . S
Co816 O819 1.970 . S
Co816 N833 1.989 . S
Co816 O841 1.967 . S
Co816 O848 1.920 . S
Co817 O820 1.966 . S
Co817 N826 2.022 . S
Co817 N834 1.993 . S
Co817 O842 1.941 . S
C818 O819 1.258 . S
C818 O820 1.263 . S
O819 Co816 1.970 . S
O819 C818 1.258 . S
O820 Co817 1.966 . S
O820 C818 1.263 . S
C821 O822 1.235 . S
C821 O848 1.289 . S
O822 C821 1.235 . S
C823 C825 1.400 . S
C823 N826 1.351 . S
C823 C828 1.501 . S
C824 C825 1.387 . S
C824 N827 1.341 . S
C825 C823 1.400 . S
C825 C824 1.387 . S
N826 Co817 2.022 . S
N826 C823 1.351 . S
N826 N827 1.365 . S
N827 C824 1.341 . S
N827 N826 1.365 . S
N827 H847 0.862 . S
C828 C823 1.501 . S
C828 H829 0.961 . S
C828 H830 0.961 . S
C828 H831 0.960 . S
H829 C828 0.961 . S
H830 C828 0.961 . S
H831 C828 0.960 . S
C832 N833 1.342 . S
C832 C836 1.401 . S
C832 C837 1.499 . S
N833 Co816 1.989 . S
N833 C832 1.342 . S
N833 N834 1.388 . S
N834 Co817 1.993 . S
N834 N833 1.388 . S
N834 C835 1.346 . S
C835 N834 1.346 . S
C835 C836 1.396 . S
C835 C845 1.510 . S
C836 C832 1.401 . S
C836 C835 1.396 . S
C837 C832 1.499 . S
C837 H838 0.959 . S
C837 H839 0.960 . S
C837 H840 0.961 . S
H838 C837 0.959 . S
H839 C837 0.960 . S
H840 C837 0.961 . S
O841 Co816 1.967 . S
O841 C849 1.258 . S
O842 Co817 1.941 . S
O842 C849 1.266 . S
H843 C845 0.959 . S
H844 C845 0.961 . S
C845 C835 1.510 . S
C845 H843 0.959 . S
C845 H844 0.961 . S
C845 H846 0.960 . S
H846 C845 0.960 . S
H847 N827 0.862 . S
O848 Co816 1.920 . S
O848 C821 1.289 . S
C849 O841 1.258 . S
C849 O842 1.266 . S
Co850 O853 1.970 . S
Co850 N867 1.989 . S
Co850 O875 1.967 . S
Co850 O882 1.920 . S
Co851 O854 1.966 . S
Co851 N860 2.022 . S
Co851 N868 1.993 . S
Co851 O876 1.941 . S
C852 O853 1.258 . S
C852 O854 1.263 . S
O853 Co850 1.970 . S
O853 C852 1.258 . S
O854 Co851 1.966 . S
O854 C852 1.263 . S
C855 O856 1.235 . S
C855 O882 1.289 . S
O856 C855 1.235 . S
C857 C859 1.400 . S
C857 N860 1.351 . S
C857 C862 1.501 . S
C858 C859 1.387 . S
C858 N861 1.341 . S
C859 C857 1.400 . S
C859 C858 1.387 . S
N860 Co851 2.022 . S
N860 C857 1.351 . S
N860 N861 1.365 . S
N861 C858 1.341 . S
N861 N860 1.365 . S
N861 H881 0.862 . S
C862 C857 1.501 . S
C862 H863 0.961 . S
C862 H864 0.961 . S
C862 H865 0.960 . S
H863 C862 0.961 . S
H864 C862 0.961 . S
H865 C862 0.960 . S
C866 N867 1.342 . S
C866 C870 1.401 . S
C866 C871 1.499 . S
N867 Co850 1.989 . S
N867 C866 1.342 . S
N867 N868 1.388 . S
N868 Co851 1.993 . S
N868 N867 1.388 . S
N868 C869 1.346 . S
C869 N868 1.346 . S
C869 C870 1.396 . S
C869 C879 1.510 . S
C870 C866 1.401 . S
C870 C869 1.396 . S
C871 C866 1.499 . S
C871 H872 0.959 . S
C871 H873 0.960 . S
C871 H874 0.961 . S
H872 C871 0.959 . S
H873 C871 0.960 . S
H874 C871 0.961 . S
O875 Co850 1.967 . S
O875 C883 1.258 . S
O876 Co851 1.941 . S
O876 C883 1.266 . S
H877 C879 0.959 . S
H878 C879 0.961 . S
C879 C869 1.510 . S
C879 H877 0.959 . S
C879 H878 0.961 . S
C879 H880 0.960 . S
H880 C879 0.960 . S
H881 N861 0.862 . S
O882 Co850 1.920 . S
O882 C855 1.289 . S
C883 O875 1.258 . S
C883 O876 1.266 . S
Co884 O887 1.970 . S
Co884 N901 1.989 . S
Co884 O909 1.967 . S
Co884 O916 1.920 . S
Co885 O888 1.966 . S
Co885 N894 2.022 . S
Co885 N902 1.993 . S
Co885 O910 1.941 . S
C886 O887 1.258 . S
C886 O888 1.263 . S
O887 Co884 1.970 . S
O887 C886 1.258 . S
O888 Co885 1.966 . S
O888 C886 1.263 . S
C889 O890 1.235 . S
C889 O916 1.289 . S
O890 C889 1.235 . S
C891 C893 1.400 . S
C891 N894 1.351 . S
C891 C896 1.501 . S
C892 C893 1.387 . S
C892 N895 1.341 . S
C893 C891 1.400 . S
C893 C892 1.387 . S
N894 Co885 2.022 . S
N894 C891 1.351 . S
N894 N895 1.365 . S
N895 C892 1.341 . S
N895 N894 1.365 . S
N895 H915 0.862 . S
C896 C891 1.501 . S
C896 H897 0.961 . S
C896 H898 0.961 . S
C896 H899 0.960 . S
H897 C896 0.961 . S
H898 C896 0.961 . S
H899 C896 0.960 . S
C900 N901 1.342 . S
C900 C904 1.401 . S
C900 C905 1.499 . S
N901 Co884 1.989 . S
N901 C900 1.342 . S
N901 N902 1.388 . S
N902 Co885 1.993 . S
N902 N901 1.388 . S
N902 C903 1.346 . S
C903 N902 1.346 . S
C903 C904 1.396 . S
C903 C913 1.510 . S
C904 C900 1.401 . S
C904 C903 1.396 . S
C905 C900 1.499 . S
C905 H906 0.959 . S
C905 H907 0.960 . S
C905 H908 0.961 . S
H906 C905 0.959 . S
H907 C905 0.960 . S
H908 C905 0.961 . S
O909 Co884 1.967 . S
O909 C917 1.258 . S
O910 Co885 1.941 . S
O910 C917 1.266 . S
H911 C913 0.959 . S
H912 C913 0.961 . S
C913 C903 1.510 . S
C913 H911 0.959 . S
C913 H912 0.961 . S
C913 H914 0.960 . S
H914 C913 0.960 . S
H915 N895 0.862 . S
O916 Co884 1.920 . S
O916 C889 1.289 . S
C917 O909 1.258 . S
C917 O910 1.266 . S
Co918 O921 1.970 . S
Co918 N935 1.989 . S
Co918 O943 1.967 . S
Co918 O950 1.920 . S
Co919 O922 1.966 . S
Co919 N928 2.022 . S
Co919 N936 1.993 . S
Co919 O944 1.941 . S
C920 O921 1.258 . S
C920 O922 1.263 . S
O921 Co918 1.970 . S
O921 C920 1.258 . S
O922 Co919 1.966 . S
O922 C920 1.263 . S
C923 O924 1.235 . S
C923 O950 1.289 . S
O924 C923 1.235 . S
C925 C927 1.400 . S
C925 N928 1.351 . S
C925 C930 1.501 . S
C926 C927 1.387 . S
C926 N929 1.341 . S
C927 C925 1.400 . S
C927 C926 1.387 . S
N928 Co919 2.022 . S
N928 C925 1.351 . S
N928 N929 1.365 . S
N929 C926 1.341 . S
N929 N928 1.365 . S
N929 H949 0.862 . S
C930 C925 1.501 . S
C930 H931 0.961 . S
C930 H932 0.961 . S
C930 H933 0.960 . S
H931 C930 0.961 . S
H932 C930 0.961 . S
H933 C930 0.960 . S
C934 N935 1.342 . S
C934 C938 1.401 . S
C934 C939 1.499 . S
N935 Co918 1.989 . S
N935 C934 1.342 . S
N935 N936 1.388 . S
N936 Co919 1.993 . S
N936 N935 1.388 . S
N936 C937 1.346 . S
C937 N936 1.346 . S
C937 C938 1.396 . S
C937 C947 1.510 . S
C938 C934 1.401 . S
C938 C937 1.396 . S
C939 C934 1.499 . S
C939 H940 0.959 . S
C939 H941 0.960 . S
C939 H942 0.961 . S
H940 C939 0.959 . S
H941 C939 0.960 . S
H942 C939 0.961 . S
O943 Co918 1.967 . S
O943 C951 1.258 . S
O944 Co919 1.941 . S
O944 C951 1.266 . S
H945 C947 0.959 . S
H946 C947 0.961 . S
C947 C937 1.510 . S
C947 H945 0.959 . S
C947 H946 0.961 . S
C947 H948 0.960 . S
H948 C947 0.960 . S
H949 N929 0.862 . S
O950 Co918 1.920 . S
O950 C923 1.289 . S
C951 O943 1.258 . S
C951 O944 1.266 . S
Co952 O955 1.970 . S
Co952 N969 1.989 . S
Co952 O977 1.967 . S
Co952 O984 1.920 . S
Co953 O956 1.966 . S
Co953 N962 2.022 . S
Co953 N970 1.993 . S
Co953 O978 1.941 . S
C954 O955 1.258 . S
C954 O956 1.263 . S
O955 Co952 1.970 . S
O955 C954 1.258 . S
O956 Co953 1.966 . S
O956 C954 1.263 . S
C957 O958 1.235 . S
C957 O984 1.289 . S
O958 C957 1.235 . S
C959 C961 1.400 . S
C959 N962 1.351 . S
C959 C964 1.501 . S
C960 C961 1.387 . S
C960 N963 1.341 . S
C961 C959 1.400 . S
C961 C960 1.387 . S
N962 Co953 2.022 . S
N962 C959 1.351 . S
N962 N963 1.365 . S
N963 C960 1.341 . S
N963 N962 1.365 . S
N963 H983 0.862 . S
C964 C959 1.501 . S
C964 H965 0.961 . S
C964 H966 0.961 . S
C964 H967 0.960 . S
H965 C964 0.961 . S
H966 C964 0.961 . S
H967 C964 0.960 . S
C968 N969 1.342 . S
C968 C972 1.401 . S
C968 C973 1.499 . S
N969 Co952 1.989 . S
N969 C968 1.342 . S
N969 N970 1.388 . S
N970 Co953 1.993 . S
N970 N969 1.388 . S
N970 C971 1.346 . S
C971 N970 1.346 . S
C971 C972 1.396 . S
C971 C981 1.510 . S
C972 C968 1.401 . S
C972 C971 1.396 . S
C973 C968 1.499 . S
C973 H974 0.959 . S
C973 H975 0.960 . S
C973 H976 0.961 . S
H974 C973 0.959 . S
H975 C973 0.960 . S
H976 C973 0.961 . S
O977 Co952 1.967 . S
O977 C985 1.258 . S
O978 Co953 1.941 . S
O978 C985 1.266 . S
H979 C981 0.959 . S
H980 C981 0.961 . S
C981 C971 1.510 . S
C981 H979 0.959 . S
C981 H980 0.961 . S
C981 H982 0.960 . S
H982 C981 0.960 . S
H983 N963 0.862 . S
O984 Co952 1.920 . S
O984 C957 1.289 . S
C985 O977 1.258 . S
C985 O978 1.266 . S
Co986 O989 1.970 . S
Co986 N1003 1.989 . S
Co986 O1011 1.967 . S
Co986 O1018 1.920 . S
Co987 O990 1.966 . S
Co987 N996 2.022 . S
Co987 N1004 1.993 . S
Co987 O1012 1.941 . S
C988 O989 1.258 . S
C988 O990 1.263 . S
O989 Co986 1.970 . S
O989 C988 1.258 . S
O990 Co987 1.966 . S
O990 C988 1.263 . S
C991 O992 1.235 . S
C991 O1018 1.289 . S
O992 C991 1.235 . S
C993 C995 1.400 . S
C993 N996 1.351 . S
C993 C998 1.501 . S
C994 C995 1.387 . S
C994 N997 1.341 . S
C995 C993 1.400 . S
C995 C994 1.387 . S
N996 Co987 2.022 . S
N996 C993 1.351 . S
N996 N997 1.365 . S
N997 C994 1.341 . S
N997 N996 1.365 . S
N997 H1017 0.862 . S
C998 C993 1.501 . S
C998 H999 0.961 . S
C998 H1000 0.961 . S
C998 H1001 0.960 . S
H999 C998 0.961 . S
H1000 C998 0.961 . S
H1001 C998 0.960 . S
C1002 N1003 1.342 . S
C1002 C1006 1.401 . S
C1002 C1007 1.499 . S
N1003 Co986 1.989 . S
N1003 C1002 1.342 . S
N1003 N1004 1.388 . S
N1004 Co987 1.993 . S
N1004 N1003 1.388 . S
N1004 C1005 1.346 . S
C1005 N1004 1.346 . S
C1005 C1006 1.396 . S
C1005 C1015 1.510 . S
C1006 C1002 1.401 . S
C1006 C1005 1.396 . S
C1007 C1002 1.499 . S
C1007 H1008 0.959 . S
C1007 H1009 0.960 . S
C1007 H1010 0.961 . S
H1008 C1007 0.959 . S
H1009 C1007 0.960 . S
H1010 C1007 0.961 . S
O1011 Co986 1.967 . S
O1011 C1019 1.258 . S
O1012 Co987 1.941 . S
O1012 C1019 1.266 . S
H1013 C1015 0.959 . S
H1014 C1015 0.961 . S
C1015 C1005 1.510 . S
C1015 H1013 0.959 . S
C1015 H1014 0.961 . S
C1015 H1016 0.960 . S
H1016 C1015 0.960 . S
H1017 N997 0.862 . S
O1018 Co986 1.920 . S
O1018 C991 1.289 . S
C1019 O1011 1.258 . S
C1019 O1012 1.266 . S
Co1020 O1023 1.970 . S
Co1020 N1037 1.989 . S
Co1020 O1045 1.967 . S
Co1020 O1052 1.920 . S
Co1021 O1024 1.966 . S
Co1021 N1030 2.022 . S
Co1021 N1038 1.993 . S
Co1021 O1046 1.941 . S
C1022 O1023 1.258 . S
C1022 O1024 1.263 . S
O1023 Co1020 1.970 . S
O1023 C1022 1.258 . S
O1024 Co1021 1.966 . S
O1024 C1022 1.263 . S
C1025 O1026 1.235 . S
C1025 O1052 1.289 . S
O1026 C1025 1.235 . S
C1027 C1029 1.400 . S
C1027 N1030 1.351 . S
C1027 C1032 1.501 . S
C1028 C1029 1.387 . S
C1028 N1031 1.341 . S
C1029 C1027 1.400 . S
C1029 C1028 1.387 . S
N1030 Co1021 2.022 . S
N1030 C1027 1.351 . S
N1030 N1031 1.365 . S
N1031 C1028 1.341 . S
N1031 N1030 1.365 . S
N1031 H1051 0.862 . S
C1032 C1027 1.501 . S
C1032 H1033 0.961 . S
C1032 H1034 0.961 . S
C1032 H1035 0.960 . S
H1033 C1032 0.961 . S
H1034 C1032 0.961 . S
H1035 C1032 0.960 . S
C1036 N1037 1.342 . S
C1036 C1040 1.401 . S
C1036 C1041 1.499 . S
N1037 Co1020 1.989 . S
N1037 C1036 1.342 . S
N1037 N1038 1.388 . S
N1038 Co1021 1.993 . S
N1038 N1037 1.388 . S
N1038 C1039 1.346 . S
C1039 N1038 1.346 . S
C1039 C1040 1.396 . S
C1039 C1049 1.510 . S
C1040 C1036 1.401 . S
C1040 C1039 1.396 . S
C1041 C1036 1.499 . S
C1041 H1042 0.959 . S
C1041 H1043 0.960 . S
C1041 H1044 0.961 . S
H1042 C1041 0.959 . S
H1043 C1041 0.960 . S
H1044 C1041 0.961 . S
O1045 Co1020 1.967 . S
O1045 C1053 1.258 . S
O1046 Co1021 1.941 . S
O1046 C1053 1.266 . S
H1047 C1049 0.959 . S
H1048 C1049 0.961 . S
C1049 C1039 1.510 . S
C1049 H1047 0.959 . S
C1049 H1048 0.961 . S
C1049 H1050 0.960 . S
H1050 C1049 0.960 . S
H1051 N1031 0.862 . S
O1052 Co1020 1.920 . S
O1052 C1025 1.289 . S
C1053 O1045 1.258 . S
C1053 O1046 1.266 . S
Co1054 O1057 1.970 . S
Co1054 N1071 1.989 . S
Co1054 O1079 1.967 . S
Co1054 O1086 1.920 . S
Co1055 O1058 1.966 . S
Co1055 N1064 2.022 . S
Co1055 N1072 1.993 . S
Co1055 O1080 1.941 . S
C1056 O1057 1.258 . S
C1056 O1058 1.263 . S
O1057 Co1054 1.970 . S
O1057 C1056 1.258 . S
O1058 Co1055 1.966 . S
O1058 C1056 1.263 . S
C1059 O1060 1.235 . S
C1059 O1086 1.289 . S
O1060 C1059 1.235 . S
C1061 C1063 1.400 . S
C1061 N1064 1.351 . S
C1061 C1066 1.501 . S
C1062 C1063 1.387 . S
C1062 N1065 1.341 . S
C1063 C1061 1.400 . S
C1063 C1062 1.387 . S
N1064 Co1055 2.022 . S
N1064 C1061 1.351 . S
N1064 N1065 1.365 . S
N1065 C1062 1.341 . S
N1065 N1064 1.365 . S
N1065 H1085 0.862 . S
C1066 C1061 1.501 . S
C1066 H1067 0.961 . S
C1066 H1068 0.961 . S
C1066 H1069 0.960 . S
H1067 C1066 0.961 . S
H1068 C1066 0.961 . S
H1069 C1066 0.960 . S
C1070 N1071 1.342 . S
C1070 C1074 1.401 . S
C1070 C1075 1.499 . S
N1071 Co1054 1.989 . S
N1071 C1070 1.342 . S
N1071 N1072 1.388 . S
N1072 Co1055 1.993 . S
N1072 N1071 1.388 . S
N1072 C1073 1.346 . S
C1073 N1072 1.346 . S
C1073 C1074 1.396 . S
C1073 C1083 1.510 . S
C1074 C1070 1.401 . S
C1074 C1073 1.396 . S
C1075 C1070 1.499 . S
C1075 H1076 0.959 . S
C1075 H1077 0.960 . S
C1075 H1078 0.961 . S
H1076 C1075 0.959 . S
H1077 C1075 0.960 . S
H1078 C1075 0.961 . S
O1079 Co1054 1.967 . S
O1079 C1087 1.258 . S
O1080 Co1055 1.941 . S
O1080 C1087 1.266 . S
H1081 C1083 0.959 . S
H1082 C1083 0.961 . S
C1083 C1073 1.510 . S
C1083 H1081 0.959 . S
C1083 H1082 0.961 . S
C1083 H1084 0.960 . S
H1084 C1083 0.960 . S
H1085 N1065 0.862 . S
O1086 Co1054 1.920 . S
O1086 C1059 1.289 . S
C1087 O1079 1.258 . S
C1087 O1080 1.266 . S
Co1088 O1091 1.970 . S
Co1088 N1105 1.989 . S
Co1088 O1113 1.967 . S
Co1088 O1120 1.920 . S
Co1089 O1092 1.966 . S
Co1089 N1098 2.022 . S
Co1089 N1106 1.993 . S
Co1089 O1114 1.941 . S
C1090 O1091 1.258 . S
C1090 O1092 1.263 . S
O1091 Co1088 1.970 . S
O1091 C1090 1.258 . S
O1092 Co1089 1.966 . S
O1092 C1090 1.263 . S
C1093 O1094 1.235 . S
C1093 O1120 1.289 . S
O1094 C1093 1.235 . S
C1095 C1097 1.400 . S
C1095 N1098 1.351 . S
C1095 C1100 1.501 . S
C1096 C1097 1.387 . S
C1096 N1099 1.341 . S
C1097 C1095 1.400 . S
C1097 C1096 1.387 . S
N1098 Co1089 2.022 . S
N1098 C1095 1.351 . S
N1098 N1099 1.365 . S
N1099 C1096 1.341 . S
N1099 N1098 1.365 . S
N1099 H1119 0.862 . S
C1100 C1095 1.501 . S
C1100 H1101 0.961 . S
C1100 H1102 0.961 . S
C1100 H1103 0.960 . S
H1101 C1100 0.961 . S
H1102 C1100 0.961 . S
H1103 C1100 0.960 . S
C1104 N1105 1.342 . S
C1104 C1108 1.401 . S
C1104 C1109 1.499 . S
N1105 Co1088 1.989 . S
N1105 C1104 1.342 . S
N1105 N1106 1.388 . S
N1106 Co1089 1.993 . S
N1106 N1105 1.388 . S
N1106 C1107 1.346 . S
C1107 N1106 1.346 . S
C1107 C1108 1.396 . S
C1107 C1117 1.510 . S
C1108 C1104 1.401 . S
C1108 C1107 1.396 . S
C1109 C1104 1.499 . S
C1109 H1110 0.959 . S
C1109 H1111 0.960 . S
C1109 H1112 0.961 . S
H1110 C1109 0.959 . S
H1111 C1109 0.960 . S
H1112 C1109 0.961 . S
O1113 Co1088 1.967 . S
O1113 C1121 1.258 . S
O1114 Co1089 1.941 . S
O1114 C1121 1.266 . S
H1115 C1117 0.959 . S
H1116 C1117 0.961 . S
C1117 C1107 1.510 . S
C1117 H1115 0.959 . S
C1117 H1116 0.961 . S
C1117 H1118 0.960 . S
H1118 C1117 0.960 . S
H1119 N1099 0.862 . S
O1120 Co1088 1.920 . S
O1120 C1093 1.289 . S
C1121 O1113 1.258 . S
C1121 O1114 1.266 . S
Co1122 O1125 1.970 . S
Co1122 N1139 1.989 . S
Co1122 O1147 1.967 . S
Co1122 O1154 1.920 . S
Co1123 O1126 1.966 . S
Co1123 N1132 2.022 . S
Co1123 N1140 1.993 . S
Co1123 O1148 1.941 . S
C1124 O1125 1.258 . S
C1124 O1126 1.263 . S
O1125 Co1122 1.970 . S
O1125 C1124 1.258 . S
O1126 Co1123 1.966 . S
O1126 C1124 1.263 . S
C1127 O1128 1.235 . S
C1127 O1154 1.289 . S
O1128 C1127 1.235 . S
C1129 C1131 1.400 . S
C1129 N1132 1.351 . S
C1129 C1134 1.501 . S
C1130 C1131 1.387 . S
C1130 N1133 1.341 . S
C1131 C1129 1.400 . S
C1131 C1130 1.387 . S
N1132 Co1123 2.022 . S
N1132 C1129 1.351 . S
N1132 N1133 1.365 . S
N1133 C1130 1.341 . S
N1133 N1132 1.365 . S
N1133 H1153 0.862 . S
C1134 C1129 1.501 . S
C1134 H1135 0.961 . S
C1134 H1136 0.961 . S
C1134 H1137 0.960 . S
H1135 C1134 0.961 . S
H1136 C1134 0.961 . S
H1137 C1134 0.960 . S
C1138 N1139 1.342 . S
C1138 C1142 1.401 . S
C1138 C1143 1.499 . S
N1139 Co1122 1.989 . S
N1139 C1138 1.342 . S
N1139 N1140 1.388 . S
N1140 Co1123 1.993 . S
N1140 N1139 1.388 . S
N1140 C1141 1.346 . S
C1141 N1140 1.346 . S
C1141 C1142 1.396 . S
C1141 C1151 1.510 . S
C1142 C1138 1.401 . S
C1142 C1141 1.396 . S
C1143 C1138 1.499 . S
C1143 H1144 0.959 . S
C1143 H1145 0.960 . S
C1143 H1146 0.961 . S
H1144 C1143 0.959 . S
H1145 C1143 0.960 . S
H1146 C1143 0.961 . S
O1147 Co1122 1.967 . S
O1147 C1155 1.258 . S
O1148 Co1123 1.941 . S
O1148 C1155 1.266 . S
H1149 C1151 0.959 . S
H1150 C1151 0.961 . S
C1151 C1141 1.510 . S
C1151 H1149 0.959 . S
C1151 H1150 0.961 . S
C1151 H1152 0.960 . S
H1152 C1151 0.960 . S
H1153 N1133 0.862 . S
O1154 Co1122 1.920 . S
O1154 C1127 1.289 . S
C1155 O1147 1.258 . S
C1155 O1148 1.266 . S
Co1156 O1159 1.970 . S
Co1156 N1173 1.989 . S
Co1156 O1181 1.967 . S
Co1156 O1188 1.920 . S
Co1157 O1160 1.966 . S
Co1157 N1166 2.022 . S
Co1157 N1174 1.993 . S
Co1157 O1182 1.941 . S
C1158 O1159 1.258 . S
C1158 O1160 1.263 . S
O1159 Co1156 1.970 . S
O1159 C1158 1.258 . S
O1160 Co1157 1.966 . S
O1160 C1158 1.263 . S
C1161 O1162 1.235 . S
C1161 O1188 1.289 . S
O1162 C1161 1.235 . S
C1163 C1165 1.400 . S
C1163 N1166 1.351 . S
C1163 C1168 1.501 . S
C1164 C1165 1.387 . S
C1164 N1167 1.341 . S
C1165 C1163 1.400 . S
C1165 C1164 1.387 . S
N1166 Co1157 2.022 . S
N1166 C1163 1.351 . S
N1166 N1167 1.365 . S
N1167 C1164 1.341 . S
N1167 N1166 1.365 . S
N1167 H1187 0.862 . S
C1168 C1163 1.501 . S
C1168 H1169 0.961 . S
C1168 H1170 0.961 . S
C1168 H1171 0.960 . S
H1169 C1168 0.961 . S
H1170 C1168 0.961 . S
H1171 C1168 0.960 . S
C1172 N1173 1.342 . S
C1172 C1176 1.401 . S
C1172 C1177 1.499 . S
N1173 Co1156 1.989 . S
N1173 C1172 1.342 . S
N1173 N1174 1.388 . S
N1174 Co1157 1.993 . S
N1174 N1173 1.388 . S
N1174 C1175 1.346 . S
C1175 N1174 1.346 . S
C1175 C1176 1.396 . S
C1175 C1185 1.510 . S
C1176 C1172 1.401 . S
C1176 C1175 1.396 . S
C1177 C1172 1.499 . S
C1177 H1178 0.959 . S
C1177 H1179 0.960 . S
C1177 H1180 0.961 . S
H1178 C1177 0.959 . S
H1179 C1177 0.960 . S
H1180 C1177 0.961 . S
O1181 Co1156 1.967 . S
O1181 C1189 1.258 . S
O1182 Co1157 1.941 . S
O1182 C1189 1.266 . S
H1183 C1185 0.959 . S
H1184 C1185 0.961 . S
C1185 C1175 1.510 . S
C1185 H1183 0.959 . S
C1185 H1184 0.961 . S
C1185 H1186 0.960 . S
H1186 C1185 0.960 . S
H1187 N1167 0.862 . S
O1188 Co1156 1.920 . S
O1188 C1161 1.289 . S
C1189 O1181 1.258 . S
C1189 O1182 1.266 . S
Co1190 O1193 1.970 . S
Co1190 N1207 1.989 . S
Co1190 O1215 1.967 . S
Co1190 O1222 1.920 . S
Co1191 O1194 1.966 . S
Co1191 N1200 2.022 . S
Co1191 N1208 1.993 . S
Co1191 O1216 1.941 . S
C1192 O1193 1.258 . S
C1192 O1194 1.263 . S
O1193 Co1190 1.970 . S
O1193 C1192 1.258 . S
O1194 Co1191 1.966 . S
O1194 C1192 1.263 . S
C1195 O1196 1.235 . S
C1195 O1222 1.289 . S
O1196 C1195 1.235 . S
C1197 C1199 1.400 . S
C1197 N1200 1.351 . S
C1197 C1202 1.501 . S
C1198 C1199 1.387 . S
C1198 N1201 1.341 . S
C1199 C1197 1.400 . S
C1199 C1198 1.387 . S
N1200 Co1191 2.022 . S
N1200 C1197 1.351 . S
N1200 N1201 1.365 . S
N1201 C1198 1.341 . S
N1201 N1200 1.365 . S
N1201 H1221 0.862 . S
C1202 C1197 1.501 . S
C1202 H1203 0.961 . S
C1202 H1204 0.961 . S
C1202 H1205 0.960 . S
H1203 C1202 0.961 . S
H1204 C1202 0.961 . S
H1205 C1202 0.960 . S
C1206 N1207 1.342 . S
C1206 C1210 1.401 . S
C1206 C1211 1.499 . S
N1207 Co1190 1.989 . S
N1207 C1206 1.342 . S
N1207 N1208 1.388 . S
N1208 Co1191 1.993 . S
N1208 N1207 1.388 . S
N1208 C1209 1.346 . S
C1209 N1208 1.346 . S
C1209 C1210 1.396 . S
C1209 C1219 1.510 . S
C1210 C1206 1.401 . S
C1210 C1209 1.396 . S
C1211 C1206 1.499 . S
C1211 H1212 0.959 . S
C1211 H1213 0.960 . S
C1211 H1214 0.961 . S
H1212 C1211 0.959 . S
H1213 C1211 0.960 . S
H1214 C1211 0.961 . S
O1215 Co1190 1.967 . S
O1215 C1223 1.258 . S
O1216 Co1191 1.941 . S
O1216 C1223 1.266 . S
H1217 C1219 0.959 . S
H1218 C1219 0.961 . S
C1219 C1209 1.510 . S
C1219 H1217 0.959 . S
C1219 H1218 0.961 . S
C1219 H1220 0.960 . S
H1220 C1219 0.960 . S
H1221 N1201 0.862 . S
O1222 Co1190 1.920 . S
O1222 C1195 1.289 . S
C1223 O1215 1.258 . S
C1223 O1216 1.266 . S
H1224 C1230 0.930 1_556 S
H1225 C1234 0.930 . S
H1226 C1239 0.929 . S
H1227 C1237 0.929 . S
H1228 C1232 0.929 . S
H1229 C1238 0.929 . S
C1230 H1224 0.930 1_554 S
C1230 C1231 1.367 . S
C1230 C1238 1.378 . S
C1231 C1230 1.367 . S
C1231 C1239 1.433 . S
C1232 H1228 0.929 . S
C1232 C1234 1.378 . S
C1232 C1236 1.350 . S
C1233 C1236 1.463 . S
C1233 C1238 1.350 . S
C1233 N1241 1.427 . S
C1234 H1225 0.930 . S
C1234 C1232 1.378 . S
C1234 C1235 1.367 . S
C1235 C1234 1.367 . S
C1235 C1237 1.433 . S
C1236 C1232 1.350 . S
C1236 C1233 1.463 . S
C1236 N1240 1.427 . S
C1237 H1227 0.929 . S
C1237 C1235 1.433 . S
C1237 N1240 1.384 . S
C1238 H1229 0.929 . S
C1238 C1230 1.378 . S
C1238 C1233 1.350 . S
C1239 H1226 0.929 . S
C1239 C1231 1.433 . S
C1239 N1241 1.384 . S
N1240 C1236 1.427 . S
N1240 C1237 1.384 . S
N1241 C1233 1.427 . S
N1241 C1239 1.384 . S
H1242 C1248 0.930 . S
H1243 C1252 0.930 . S
H1244 C1257 0.929 . S
H1245 C1255 0.929 1_556 S
H1246 C1250 0.929 . S
H1247 C1256 0.929 . S
C1248 H1242 0.930 . S
C1248 C1249 1.367 . S
C1248 C1256 1.378 . S
C1249 C1248 1.367 . S
C1249 C1257 1.433 . S
C1250 H1246 0.929 . S
C1250 C1252 1.378 . S
C1250 C1254 1.350 . S
C1251 C1254 1.463 . S
C1251 C1256 1.350 . S
C1251 N1259 1.427 . S
C1252 H1243 0.930 . S
C1252 C1250 1.378 . S
C1252 C1253 1.367 . S
C1253 C1252 1.367 . S
C1253 C1255 1.433 . S
C1254 C1250 1.350 . S
C1254 C1251 1.463 . S
C1254 N1258 1.427 . S
C1255 H1245 0.929 1_554 S
C1255 C1253 1.433 . S
C1255 N1258 1.384 . S
C1256 H1247 0.929 . S
C1256 C1248 1.378 . S
C1256 C1251 1.350 . S
C1257 H1244 0.929 . S
C1257 C1249 1.433 . S
C1257 N1259 1.384 . S
N1258 C1254 1.427 . S
N1258 C1255 1.384 . S
N1259 C1251 1.427 . S
N1259 C1257 1.384 . S
H1260 C1266 0.930 . S
H1261 C1270 0.930 . S
H1262 C1275 0.929 . S
H1263 C1273 0.929 . S
H1264 C1268 0.929 . S
H1265 C1274 0.929 . S
C1266 H1260 0.930 . S
C1266 C1267 1.367 . S
C1266 C1274 1.378 . S
C1267 C1266 1.367 . S
C1267 C1275 1.433 . S
C1268 H1264 0.929 . S
C1268 C1270 1.378 . S
C1268 C1272 1.350 . S
C1269 C1272 1.463 . S
C1269 C1274 1.350 . S
C1269 N1277 1.427 . S
C1270 H1261 0.930 . S
C1270 C1268 1.378 . S
C1270 C1271 1.367 . S
C1271 C1270 1.367 . S
C1271 C1273 1.433 . S
C1272 C1268 1.350 . S
C1272 C1269 1.463 . S
C1272 N1276 1.427 . S
C1273 H1263 0.929 . S
C1273 C1271 1.433 . S
C1273 N1276 1.384 . S
C1274 H1265 0.929 . S
C1274 C1266 1.378 . S
C1274 C1269 1.350 . S
C1275 H1262 0.929 . S
C1275 C1267 1.433 . S
C1275 N1277 1.384 . S
N1276 C1272 1.427 . S
N1276 C1273 1.384 . S
N1277 C1269 1.427 . S
N1277 C1275 1.384 . S
H1278 C1284 0.930 . S
H1279 C1288 0.930 1_554 S
H1280 C1293 0.929 . S
H1281 C1291 0.929 . S
H1282 C1286 0.929 . S
H1283 C1292 0.929 . S
C1284 H1278 0.930 . S
C1284 C1285 1.367 . S
C1284 C1292 1.378 . S
C1285 C1284 1.367 . S
C1285 C1293 1.433 . S
C1286 H1282 0.929 . S
C1286 C1288 1.378 . S
C1286 C1290 1.350 . S
C1287 C1290 1.463 . S
C1287 C1292 1.350 . S
C1287 N1295 1.427 . S
C1288 H1279 0.930 1_556 S
C1288 C1286 1.378 . S
C1288 C1289 1.367 . S
C1289 C1288 1.367 . S
C1289 C1291 1.433 . S
C1290 C1286 1.350 . S
C1290 C1287 1.463 . S
C1290 N1294 1.427 . S
C1291 H1281 0.929 . S
C1291 C1289 1.433 . S
C1291 N1294 1.384 . S
C1292 H1283 0.929 . S
C1292 C1284 1.378 . S
C1292 C1287 1.350 . S
C1293 H1280 0.929 . S
C1293 C1285 1.433 . S
C1293 N1295 1.384 . S
N1294 C1290 1.427 . S
N1294 C1291 1.384 . S
N1295 C1287 1.427 . S
N1295 C1293 1.384 . S
H1296 C1302 0.930 . S
H1297 C1306 0.930 . S
H1298 C1311 0.929 . S
H1299 C1309 0.929 1_554 S
H1300 C1304 0.929 . S
H1301 C1310 0.929 . S
C1302 H1296 0.930 . S
C1302 C1303 1.367 . S
C1302 C1310 1.378 . S
C1303 C1302 1.367 . S
C1303 C1311 1.433 . S
C1304 H1300 0.929 . S
C1304 C1306 1.378 . S
C1304 C1308 1.350 . S
C1305 C1308 1.463 . S
C1305 C1310 1.350 . S
C1305 N1313 1.427 . S
C1306 H1297 0.930 . S
C1306 C1304 1.378 . S
C1306 C1307 1.367 . S
C1307 C1306 1.367 . S
C1307 C1309 1.433 . S
C1308 C1304 1.350 . S
C1308 C1305 1.463 . S
C1308 N1312 1.427 . S
C1309 H1299 0.929 1_556 S
C1309 C1307 1.433 . S
C1309 N1312 1.384 . S
C1310 H1301 0.929 . S
C1310 C1302 1.378 . S
C1310 C1305 1.350 . S
C1311 H1298 0.929 . S
C1311 C1303 1.433 . S
C1311 N1313 1.384 . S
N1312 C1308 1.427 . S
N1312 C1309 1.384 . S
N1313 C1305 1.427 . S
N1313 C1311 1.384 . S
H1314 C1320 0.930 . S
H1315 C1324 0.930 . S
H1316 C1329 0.929 . S
H1317 C1327 0.929 . S
H1318 C1322 0.929 . S
H1319 C1328 0.929 . S
C1320 H1314 0.930 . S
C1320 C1321 1.367 . S
C1320 C1328 1.378 . S
C1321 C1320 1.367 . S
C1321 C1329 1.433 . S
C1322 H1318 0.929 . S
C1322 C1324 1.378 . S
C1322 C1326 1.350 . S
C1323 C1326 1.463 . S
C1323 C1328 1.350 . S
C1323 N1331 1.427 . S
C1324 H1315 0.930 . S
C1324 C1322 1.378 . S
C1324 C1325 1.367 . S
C1325 C1324 1.367 . S
C1325 C1327 1.433 . S
C1326 C1322 1.350 . S
C1326 C1323 1.463 . S
C1326 N1330 1.427 . S
C1327 H1317 0.929 . S
C1327 C1325 1.433 . S
C1327 N1330 1.384 . S
C1328 H1319 0.929 . S
C1328 C1320 1.378 . S
C1328 C1323 1.350 . S
C1329 H1316 0.929 . S
C1329 C1321 1.433 . S
C1329 N1331 1.384 . S
N1330 C1326 1.427 . S
N1330 C1327 1.384 . S
N1331 C1323 1.427 . S
N1331 C1329 1.384 . S
H1332 C1338 0.930 . S
H1333 C1342 0.930 . S
H1334 C1347 0.929 . S
H1335 C1345 0.929 . S
H1336 C1340 0.929 . S
H1337 C1346 0.929 . S
C1338 H1332 0.930 . S
C1338 C1339 1.367 . S
C1338 C1346 1.378 . S
C1339 C1338 1.367 . S
C1339 C1347 1.433 . S
C1340 H1336 0.929 . S
C1340 C1342 1.378 . S
C1340 C1344 1.350 . S
C1341 C1344 1.463 . S
C1341 C1346 1.350 . S
C1341 N1349 1.427 . S
C1342 H1333 0.930 . S
C1342 C1340 1.378 . S
C1342 C1343 1.367 . S
C1343 C1342 1.367 . S
C1343 C1345 1.433 . S
C1344 C1340 1.350 . S
C1344 C1341 1.463 . S
C1344 N1348 1.427 . S
C1345 H1335 0.929 . S
C1345 C1343 1.433 . S
C1345 N1348 1.384 . S
C1346 H1337 0.929 . S
C1346 C1338 1.378 . S
C1346 C1341 1.350 . S
C1347 H1334 0.929 . S
C1347 C1339 1.433 . S
C1347 N1349 1.384 . S
N1348 C1344 1.427 . S
N1348 C1345 1.384 . S
N1349 C1341 1.427 . S
N1349 C1347 1.384 . S
H1350 C1356 0.930 . S
H1351 C1360 0.930 . S
H1352 C1365 0.929 . S
H1353 C1363 0.929 . S
H1354 C1358 0.929 . S
H1355 C1364 0.929 . S
C1356 H1350 0.930 . S
C1356 C1357 1.367 . S
C1356 C1364 1.378 . S
C1357 C1356 1.367 . S
C1357 C1365 1.433 . S
C1358 H1354 0.929 . S
C1358 C1360 1.378 . S
C1358 C1362 1.350 . S
C1359 C1362 1.463 . S
C1359 C1364 1.350 . S
C1359 N1367 1.427 . S
C1360 H1351 0.930 . S
C1360 C1358 1.378 . S
C1360 C1361 1.367 . S
C1361 C1360 1.367 . S
C1361 C1363 1.433 . S
C1362 C1358 1.350 . S
C1362 C1359 1.463 . S
C1362 N1366 1.427 . S
C1363 H1353 0.929 . S
C1363 C1361 1.433 . S
C1363 N1366 1.384 . S
C1364 H1355 0.929 . S
C1364 C1356 1.378 . S
C1364 C1359 1.350 . S
C1365 H1352 0.929 . S
C1365 C1357 1.433 . S
C1365 N1367 1.384 . S
N1366 C1362 1.427 . S
N1366 C1363 1.384 . S
N1367 C1359 1.427 . S
N1367 C1365 1.384 . S
H1368 C1374 0.930 . S
H1369 C1378 0.930 . S
H1370 C1383 0.929 . S
H1371 C1381 0.929 . S
H1372 C1376 0.929 . S
H1373 C1382 0.929 . S
C1374 H1368 0.930 . S
C1374 C1375 1.367 . S
C1374 C1382 1.378 . S
C1375 C1374 1.367 . S
C1375 C1383 1.433 . S
C1376 H1372 0.929 . S
C1376 C1378 1.378 . S
C1376 C1380 1.350 . S
C1377 C1380 1.463 . S
C1377 C1382 1.350 . S
C1377 N1385 1.427 . S
C1378 H1369 0.930 . S
C1378 C1376 1.378 . S
C1378 C1379 1.367 . S
C1379 C1378 1.367 . S
C1379 C1381 1.433 . S
C1380 C1376 1.350 . S
C1380 C1377 1.463 . S
C1380 N1384 1.427 . S
C1381 H1371 0.929 . S
C1381 C1379 1.433 . S
C1381 N1384 1.384 . S
C1382 H1373 0.929 . S
C1382 C1374 1.378 . S
C1382 C1377 1.350 . S
C1383 H1370 0.929 . S
C1383 C1375 1.433 . S
C1383 N1385 1.384 . S
N1384 C1380 1.427 . S
N1384 C1381 1.384 . S
N1385 C1377 1.427 . S
N1385 C1383 1.384 . S
H1386 C1392 0.930 . S
H1387 C1396 0.930 . S
H1388 C1401 0.929 . S
H1389 C1399 0.929 . S
H1390 C1394 0.929 . S
H1391 C1400 0.929 . S
C1392 H1386 0.930 . S
C1392 C1393 1.367 . S
C1392 C1400 1.378 . S
C1393 C1392 1.367 . S
C1393 C1401 1.433 . S
C1394 H1390 0.929 . S
C1394 C1396 1.378 . S
C1394 C1398 1.350 . S
C1395 C1398 1.463 . S
C1395 C1400 1.350 . S
C1395 N1403 1.427 . S
C1396 H1387 0.930 . S
C1396 C1394 1.378 . S
C1396 C1397 1.367 . S
C1397 C1396 1.367 . S
C1397 C1399 1.433 . S
C1398 C1394 1.350 . S
C1398 C1395 1.463 . S
C1398 N1402 1.427 . S
C1399 H1389 0.929 . S
C1399 C1397 1.433 . S
C1399 N1402 1.384 . S
C1400 H1391 0.929 . S
C1400 C1392 1.378 . S
C1400 C1395 1.350 . S
C1401 H1388 0.929 . S
C1401 C1393 1.433 . S
C1401 N1403 1.384 . S
N1402 C1398 1.427 . S
N1402 C1399 1.384 . S
N1403 C1395 1.427 . S
N1403 C1401 1.384 . S
H1404 C1410 0.930 . S
H1405 C1414 0.930 . S
H1406 C1419 0.929 1_556 S
H1407 C1417 0.929 . S
H1408 C1412 0.929 . S
H1409 C1418 0.929 . S
C1410 H1404 0.930 . S
C1410 C1411 1.367 . S
C1410 C1418 1.378 . S
C1411 C1410 1.367 . S
C1411 C1419 1.433 . S
C1412 H1408 0.929 . S
C1412 C1414 1.378 . S
C1412 C1416 1.350 . S
C1413 C1416 1.463 . S
C1413 C1418 1.350 . S
C1413 N1421 1.427 . S
C1414 H1405 0.930 . S
C1414 C1412 1.378 . S
C1414 C1415 1.367 . S
C1415 C1414 1.367 . S
C1415 C1417 1.433 . S
C1416 C1412 1.350 . S
C1416 C1413 1.463 . S
C1416 N1420 1.427 . S
C1417 H1407 0.929 . S
C1417 C1415 1.433 . S
C1417 N1420 1.384 . S
C1418 H1409 0.929 . S
C1418 C1410 1.378 . S
C1418 C1413 1.350 . S
C1419 H1406 0.929 1_554 S
C1419 C1411 1.433 . S
C1419 N1421 1.384 . S
N1420 C1416 1.427 . S
N1420 C1417 1.384 . S
N1421 C1413 1.427 . S
N1421 C1419 1.384 . S
H1422 C1428 0.930 . S
H1423 C1432 0.930 . S
H1424 C1437 0.929 . S
H1425 C1435 0.929 . S
H1426 C1430 0.929 . S
H1427 C1436 0.929 . S
C1428 H1422 0.930 . S
C1428 C1429 1.367 . S
C1428 C1436 1.378 . S
C1429 C1428 1.367 . S
C1429 C1437 1.433 . S
C1430 H1426 0.929 . S
C1430 C1432 1.378 . S
C1430 C1434 1.350 . S
C1431 C1434 1.463 . S
C1431 C1436 1.350 . S
C1431 N1439 1.427 . S
C1432 H1423 0.930 . S
C1432 C1430 1.378 . S
C1432 C1433 1.367 . S
C1433 C1432 1.367 . S
C1433 C1435 1.433 . S
C1434 C1430 1.350 . S
C1434 C1431 1.463 . S
C1434 N1438 1.427 . S
C1435 H1425 0.929 . S
C1435 C1433 1.433 . S
C1435 N1438 1.384 . S
C1436 H1427 0.929 . S
C1436 C1428 1.378 . S
C1436 C1431 1.350 . S
C1437 H1424 0.929 . S
C1437 C1429 1.433 . S
C1437 N1439 1.384 . S
N1438 C1434 1.427 . S
N1438 C1435 1.384 . S
N1439 C1431 1.427 . S
N1439 C1437 1.384 . S
H1440 C1446 0.930 . S
H1441 C1450 0.930 . S
H1442 C1455 0.929 . S
H1443 C1453 0.929 . S
H1444 C1448 0.929 . S
H1445 C1454 0.929 . S
C1446 H1440 0.930 . S
C1446 C1447 1.367 . S
C1446 C1454 1.378 . S
C1447 C1446 1.367 . S
C1447 C1455 1.433 . S
C1448 H1444 0.929 . S
C1448 C1450 1.378 . S
C1448 C1452 1.350 . S
C1449 C1452 1.463 . S
C1449 C1454 1.350 . S
C1449 N1457 1.427 . S
C1450 H1441 0.930 . S
C1450 C1448 1.378 . S
C1450 C1451 1.367 . S
C1451 C1450 1.367 . S
C1451 C1453 1.433 . S
C1452 C1448 1.350 . S
C1452 C1449 1.463 . S
C1452 N1456 1.427 . S
C1453 H1443 0.929 . S
C1453 C1451 1.433 . S
C1453 N1456 1.384 . S
C1454 H1445 0.929 . S
C1454 C1446 1.378 . S
C1454 C1449 1.350 . S
C1455 H1442 0.929 . S
C1455 C1447 1.433 . S
C1455 N1457 1.384 . S
N1456 C1452 1.427 . S
N1456 C1453 1.384 . S
N1457 C1449 1.427 . S
N1457 C1455 1.384 . S
H1458 C1464 0.930 . S
H1459 C1468 0.930 . S
H1460 C1473 0.929 . S
H1461 C1471 0.929 . S
H1462 C1466 0.929 . S
H1463 C1472 0.929 . S
C1464 H1458 0.930 . S
C1464 C1465 1.367 . S
C1464 C1472 1.378 . S
C1465 C1464 1.367 . S
C1465 C1473 1.433 . S
C1466 H1462 0.929 . S
C1466 C1468 1.378 . S
C1466 C1470 1.350 . S
C1467 C1470 1.463 1_545 S
C1467 C1472 1.350 . S
C1467 N1475 1.427 . S
C1468 H1459 0.930 . S
C1468 C1466 1.378 . S
C1468 C1469 1.367 . S
C1469 C1468 1.367 . S
C1469 C1471 1.433 . S
C1470 C1466 1.350 . S
C1470 C1467 1.463 1_565 S
C1470 N1474 1.427 . S
C1471 H1461 0.929 . S
C1471 C1469 1.433 . S
C1471 N1474 1.384 . S
C1472 H1463 0.929 . S
C1472 C1464 1.378 . S
C1472 C1467 1.350 . S
C1473 H1460 0.929 . S
C1473 C1465 1.433 . S
C1473 N1475 1.384 . S
N1474 C1470 1.427 . S
N1474 C1471 1.384 . S
N1475 C1467 1.427 . S
N1475 C1473 1.384 . S
H1476 C1482 0.930 . S
H1477 C1486 0.930 . S
H1478 C1491 0.929 . S
H1479 C1489 0.929 . S
H1480 C1484 1.003 . S
H1481 C1490 1.004 . S
C1482 H1476 0.930 . S
C1482 C1483 1.367 . S
C1482 C1490 1.378 . S
C1483 C1482 1.367 . S
C1483 C1491 1.433 . S
C1484 H1480 1.003 . S
C1484 C1486 1.378 . S
C1484 C1488 1.350 . S
C1485 C1488 1.463 1_455 S
C1485 C1490 1.350 . S
C1485 N1493 1.427 . S
C1486 H1477 0.930 . S
C1486 C1484 1.378 . S
C1486 C1487 1.367 . S
C1487 C1486 1.367 . S
C1487 C1489 1.433 . S
C1488 C1484 1.350 . S
C1488 C1485 1.463 1_655 S
C1488 N1492 1.427 . S
C1489 H1479 0.929 . S
C1489 C1487 1.433 . S
C1489 N1492 1.384 . S
C1490 H1481 1.004 . S
C1490 C1482 1.378 . S
C1490 C1485 1.350 . S
C1491 H1478 0.929 . S
C1491 C1483 1.433 . S
C1491 N1493 1.384 . S
N1492 C1488 1.427 . S
N1492 C1489 1.384 . S
N1493 C1485 1.427 . S
N1493 C1491 1.384 . S
H1494 C1500 0.930 . S
H1495 C1504 0.930 . S
H1496 C1509 0.929 . S
H1497 C1507 0.929 . S
H1498 C1502 0.929 . S
H1499 C1508 0.929 . S
C1500 H1494 0.930 . S
C1500 C1501 1.367 . S
C1500 C1508 1.378 . S
C1501 C1500 1.367 . S
C1501 C1509 1.433 . S
C1502 H1498 0.929 . S
C1502 C1504 1.378 . S
C1502 C1506 1.350 . S
C1503 C1506 1.463 . S
C1503 C1508 1.350 . S
C1503 N1511 1.427 . S
C1504 H1495 0.930 . S
C1504 C1502 1.378 . S
C1504 C1505 1.367 . S
C1505 C1504 1.367 . S
C1505 C1507 1.433 . S
C1506 C1502 1.350 . S
C1506 C1503 1.463 . S
C1506 N1510 1.427 . S
C1507 H1497 0.929 . S
C1507 C1505 1.433 . S
C1507 N1510 1.384 . S
C1508 H1499 0.929 . S
C1508 C1500 1.378 . S
C1508 C1503 1.350 . S
C1509 H1496 0.929 . S
C1509 C1501 1.433 . S
C1509 N1511 1.384 . S
N1510 C1506 1.427 . S
N1510 C1507 1.384 . S
N1511 C1503 1.427 . S
N1511 C1509 1.384 . S
H1512 C1518 0.930 . S
H1513 C1522 0.930 . S
H1514 C1527 0.929 . S
H1515 C1525 0.929 . S
H1516 C1520 0.929 . S
H1517 C1526 0.929 . S
C1518 H1512 0.930 . S
C1518 C1519 1.367 . S
C1518 C1526 1.378 . S
C1519 C1518 1.367 . S
C1519 C1527 1.433 . S
C1520 H1516 0.929 . S
C1520 C1522 1.378 . S
C1520 C1524 1.350 . S
C1521 C1524 1.463 1_565 S
C1521 C1526 1.350 . S
C1521 N1529 1.427 . S
C1522 H1513 0.930 . S
C1522 C1520 1.378 . S
C1522 C1523 1.367 . S
C1523 C1522 1.367 . S
C1523 C1525 1.433 . S
C1524 C1520 1.350 . S
C1524 C1521 1.463 1_545 S
C1524 N1528 1.427 . S
C1525 H1515 0.929 . S
C1525 C1523 1.433 . S
C1525 N1528 1.384 . S
C1526 H1517 0.929 . S
C1526 C1518 1.378 . S
C1526 C1521 1.350 . S
C1527 H1514 0.929 . S
C1527 C1519 1.433 . S
C1527 N1529 1.384 . S
N1528 C1524 1.427 . S
N1528 C1525 1.384 . S
N1529 C1521 1.427 . S
N1529 C1527 1.384 . S
H1530 C1536 0.930 . S
H1531 C1540 0.930 . S
H1532 C1545 0.929 . S
H1533 C1543 0.929 . S
H1534 C1538 0.929 . S
H1535 C1544 0.929 . S
C1536 H1530 0.930 . S
C1536 C1537 1.367 . S
C1536 C1544 1.378 . S
C1537 C1536 1.367 . S
C1537 C1545 1.433 . S
C1538 H1534 0.929 . S
C1538 C1540 1.378 . S
C1538 C1542 1.350 . S
C1539 C1542 1.463 1_655 S
C1539 C1544 1.350 . S
C1539 N1547 1.427 . S
C1540 H1531 0.930 . S
C1540 C1538 1.378 . S
C1540 C1541 1.367 . S
C1541 C1540 1.367 . S
C1541 C1543 1.433 . S
C1542 C1538 1.350 . S
C1542 C1539 1.463 1_455 S
C1542 N1546 1.427 . S
C1543 H1533 0.929 . S
C1543 C1541 1.433 . S
C1543 N1546 1.384 . S
C1544 H1535 0.929 . S
C1544 C1536 1.378 . S
C1544 C1539 1.350 . S
C1545 H1532 0.929 . S
C1545 C1537 1.433 . S
C1545 N1547 1.384 . S
N1546 C1542 1.427 . S
N1546 C1543 1.384 . S
N1547 C1539 1.427 . S
N1547 C1545 1.384 . S
H1548 C1554 0.930 . S
H1549 C1558 0.930 . S
H1550 C1563 0.929 . S
H1551 C1561 0.929 . S
H1552 C1556 0.929 . S
H1553 C1562 0.929 . S
C1554 H1548 0.930 . S
C1554 C1555 1.367 1_556 S
C1554 C1562 1.378 . S
C1555 C1554 1.367 1_554 S
C1555 C1563 1.433 . S
C1556 H1552 0.929 . S
C1556 C1558 1.378 . S
C1556 C1560 1.350 . S
C1557 C1560 1.463 . S
C1557 C1562 1.350 1_554 S
C1557 N1565 1.427 . S
C1558 H1549 0.930 . S
C1558 C1556 1.378 . S
C1558 C1559 1.367 . S
C1559 C1558 1.367 . S
C1559 C1561 1.433 1_554 S
C1560 C1556 1.350 . S
C1560 C1557 1.463 . S
C1560 N1564 1.427 1_554 S
C1561 H1551 0.929 . S
C1561 C1559 1.433 1_556 S
C1561 N1564 1.384 . S
C1562 H1553 0.929 . S
C1562 C1554 1.378 . S
C1562 C1557 1.350 1_556 S
C1563 H1550 0.929 . S
C1563 C1555 1.433 . S
C1563 N1565 1.384 . S
N1564 C1560 1.427 1_556 S
N1564 C1561 1.384 . S
N1565 C1557 1.427 . S
N1565 C1563 1.384 . S
H1566 C1572 0.930 . S
H1567 C1576 0.930 . S
H1568 C1581 0.929 . S
H1569 C1579 0.929 . S
H1570 C1574 0.929 . S
H1571 C1580 0.929 . S
C1572 H1566 0.930 . S
C1572 C1573 1.367 1_556 S
C1572 C1580 1.378 . S
C1573 C1572 1.367 1_554 S
C1573 C1581 1.433 . S
C1574 H1570 0.929 . S
C1574 C1576 1.378 . S
C1574 C1578 1.350 . S
C1575 C1578 1.463 . S
C1575 C1580 1.350 1_554 S
C1575 N1583 1.427 . S
C1576 H1567 0.930 . S
C1576 C1574 1.378 . S
C1576 C1577 1.367 . S
C1577 C1576 1.367 . S
C1577 C1579 1.433 1_554 S
C1578 C1574 1.350 . S
C1578 C1575 1.463 . S
C1578 N1582 1.427 1_554 S
C1579 H1569 0.929 . S
C1579 C1577 1.433 1_556 S
C1579 N1582 1.384 . S
C1580 H1571 0.929 . S
C1580 C1572 1.378 . S
C1580 C1575 1.350 1_556 S
C1581 H1568 0.929 . S
C1581 C1573 1.433 . S
C1581 N1583 1.384 . S
N1582 C1578 1.427 1_556 S
N1582 C1579 1.384 . S
N1583 C1575 1.427 . S
N1583 C1581 1.384 . S
H1584 C1590 0.930 . S
H1585 C1594 0.930 . S
H1586 C1599 0.929 . S
H1587 C1597 0.929 . S
H1588 C1592 0.929 . S
H1589 C1598 0.929 . S
C1590 H1584 0.930 . S
C1590 C1591 1.367 . S
C1590 C1598 1.378 . S
C1591 C1590 1.367 . S
C1591 C1599 1.433 1_554 S
C1592 H1588 0.929 . S
C1592 C1594 1.378 . S
C1592 C1596 1.350 1_556 S
C1593 C1596 1.463 . S
C1593 C1598 1.350 . S
C1593 N1601 1.427 1_554 S
C1594 H1585 0.930 . S
C1594 C1592 1.378 . S
C1594 C1595 1.367 1_556 S
C1595 C1594 1.367 1_554 S
C1595 C1597 1.433 . S
C1596 C1592 1.350 1_554 S
C1596 C1593 1.463 . S
C1596 N1600 1.427 . S
C1597 H1587 0.929 . S
C1597 C1595 1.433 . S
C1597 N1600 1.384 . S
C1598 H1589 0.929 . S
C1598 C1590 1.378 . S
C1598 C1593 1.350 . S
C1599 H1586 0.929 . S
C1599 C1591 1.433 1_556 S
C1599 N1601 1.384 . S
N1600 C1596 1.427 . S
N1600 C1597 1.384 . S
N1601 C1593 1.427 1_556 S
N1601 C1599 1.384 . S
H1602 C1608 0.930 . S
H1603 C1612 0.930 . S
H1604 C1617 0.929 . S
H1605 C1615 0.929 . S
H1606 C1610 0.929 . S
H1607 C1616 0.929 . S
C1608 H1602 0.930 . S
C1608 C1609 1.367 1_554 S
C1608 C1616 1.378 . S
C1609 C1608 1.367 1_556 S
C1609 C1617 1.433 . S
C1610 H1606 0.929 . S
C1610 C1612 1.378 . S
C1610 C1614 1.350 . S
C1611 C1614 1.463 . S
C1611 C1616 1.350 1_556 S
C1611 N1619 1.427 . S
C1612 H1603 0.930 . S
C1612 C1610 1.378 . S
C1612 C1613 1.367 . S
C1613 C1612 1.367 . S
C1613 C1615 1.433 1_556 S
C1614 C1610 1.350 . S
C1614 C1611 1.463 . S
C1614 N1618 1.427 1_556 S
C1615 H1605 0.929 . S
C1615 C1613 1.433 1_554 S
C1615 N1618 1.384 . S
C1616 H1607 0.929 . S
C1616 C1608 1.378 . S
C1616 C1611 1.350 1_554 S
C1617 H1604 0.929 . S
C1617 C1609 1.433 . S
C1617 N1619 1.384 . S
N1618 C1614 1.427 1_554 S
N1618 C1615 1.384 . S
N1619 C1611 1.427 . S
N1619 C1617 1.384 . S
H1620 C1626 0.930 . S
H1621 C1630 0.930 . S
H1622 C1635 0.929 . S
H1623 C1633 0.929 . S
H1624 C1628 0.929 . S
H1625 C1634 0.929 . S
C1626 H1620 0.930 . S
C1626 C1627 1.367 . S
C1626 C1634 1.378 . S
C1627 C1626 1.367 . S
C1627 C1635 1.433 1_556 S
C1628 H1624 0.929 . S
C1628 C1630 1.378 . S
C1628 C1632 1.350 1_554 S
C1629 C1632 1.463 . S
C1629 C1634 1.350 . S
C1629 N1637 1.427 1_556 S
C1630 H1621 0.930 . S
C1630 C1628 1.378 . S
C1630 C1631 1.367 1_554 S
C1631 C1630 1.367 1_556 S
C1631 C1633 1.433 . S
C1632 C1628 1.350 1_556 S
C1632 C1629 1.463 . S
C1632 N1636 1.427 . S
C1633 H1623 0.929 . S
C1633 C1631 1.433 . S
C1633 N1636 1.384 . S
C1634 H1625 0.929 . S
C1634 C1626 1.378 . S
C1634 C1629 1.350 . S
C1635 H1622 0.929 . S
C1635 C1627 1.433 1_554 S
C1635 N1637 1.384 . S
N1636 C1632 1.427 . S
N1636 C1633 1.384 . S
N1637 C1629 1.427 1_554 S
N1637 C1635 1.384 . S
H1638 C1644 0.930 . S
H1639 C1648 0.930 . S
H1640 C1653 0.929 . S
H1641 C1651 0.929 . S
H1642 C1646 0.929 . S
H1643 C1652 0.929 . S
C1644 H1638 0.930 . S
C1644 C1645 1.367 1_554 S
C1644 C1652 1.378 . S
C1645 C1644 1.367 1_556 S
C1645 C1653 1.433 . S
C1646 H1642 0.929 . S
C1646 C1648 1.378 . S
C1646 C1650 1.350 . S
C1647 C1650 1.463 . S
C1647 C1652 1.350 1_556 S
C1647 N1655 1.427 . S
C1648 H1639 0.930 . S
C1648 C1646 1.378 . S
C1648 C1649 1.367 . S
C1649 C1648 1.367 . S
C1649 C1651 1.433 1_556 S
C1650 C1646 1.350 . S
C1650 C1647 1.463 . S
C1650 N1654 1.427 1_556 S
C1651 H1641 0.929 . S
C1651 C1649 1.433 1_554 S
C1651 N1654 1.384 . S
C1652 H1643 0.929 . S
C1652 C1644 1.378 . S
C1652 C1647 1.350 1_554 S
C1653 H1640 0.929 . S
C1653 C1645 1.433 . S
C1653 N1655 1.384 . S
N1654 C1650 1.427 1_554 S
N1654 C1651 1.384 . S
N1655 C1647 1.427 . S
N1655 C1653 1.384 . S
H1656 C1662 0.930 . S
H1657 C1666 0.930 . S
H1658 C1671 0.929 . S
H1659 C1669 0.929 . S
H1660 C1664 0.929 . S
H1661 C1670 0.929 . S
C1662 H1656 0.930 . S
C1662 C1663 1.367 . S
C1662 C1670 1.378 . S
C1663 C1662 1.367 . S
C1663 C1671 1.433 . S
C1664 H1660 0.929 . S
C1664 C1666 1.378 . S
C1664 C1668 1.350 . S
C1665 C1668 1.463 . S
C1665 C1670 1.350 . S
C1665 N1673 1.427 . S
C1666 H1657 0.930 . S
C1666 C1664 1.378 . S
C1666 C1667 1.367 . S
C1667 C1666 1.367 . S
C1667 C1669 1.433 . S
C1668 C1664 1.350 . S
C1668 C1665 1.463 . S
C1668 N1672 1.427 . S
C1669 H1659 0.929 . S
C1669 C1667 1.433 . S
C1669 N1672 1.384 . S
C1670 H1661 0.929 . S
C1670 C1662 1.378 . S
C1670 C1665 1.350 . S
C1671 H1658 0.929 . S
C1671 C1663 1.433 . S
C1671 N1673 1.384 . S
N1672 C1668 1.427 . S
N1672 C1669 1.384 . S
N1673 C1665 1.427 . S
N1673 C1671 1.384 . S
H1674 C1680 0.930 . S
H1675 C1684 0.930 . S
H1676 C1689 0.929 . S
H1677 C1687 0.929 . S
H1678 C1682 0.929 . S
H1679 C1688 0.929 . S
C1680 H1674 0.930 . S
C1680 C1681 1.367 . S
C1680 C1688 1.378 . S
C1681 C1680 1.367 . S
C1681 C1689 1.433 . S
C1682 H1678 0.929 . S
C1682 C1684 1.378 . S
C1682 C1686 1.350 . S
C1683 C1686 1.463 . S
C1683 C1688 1.350 . S
C1683 N1691 1.427 . S
C1684 H1675 0.930 . S
C1684 C1682 1.378 . S
C1684 C1685 1.367 . S
C1685 C1684 1.367 . S
C1685 C1687 1.433 . S
C1686 C1682 1.350 . S
C1686 C1683 1.463 . S
C1686 N1690 1.427 . S
C1687 H1677 0.929 . S
C1687 C1685 1.433 . S
C1687 N1690 1.384 . S
C1688 H1679 0.929 . S
C1688 C1680 1.378 . S
C1688 C1683 1.350 . S
C1689 H1676 0.929 . S
C1689 C1681 1.433 . S
C1689 N1691 1.384 . S
N1690 C1686 1.427 . S
N1690 C1687 1.384 . S
N1691 C1683 1.427 . S
N1691 C1689 1.384 . S
H1692 C1698 0.930 . S
H1693 C1702 0.930 . S
H1694 C1707 0.929 . S
H1695 C1705 0.929 . S
H1696 C1700 0.929 . S
H1697 C1706 0.929 . S
C1698 H1692 0.930 . S
C1698 C1699 1.367 . S
C1698 C1706 1.378 . S
C1699 C1698 1.367 . S
C1699 C1707 1.433 . S
C1700 H1696 0.929 . S
C1700 C1702 1.378 . S
C1700 C1704 1.350 . S
C1701 C1704 1.463 . S
C1701 C1706 1.350 . S
C1701 N1709 1.427 . S
C1702 H1693 0.930 . S
C1702 C1700 1.378 . S
C1702 C1703 1.367 . S
C1703 C1702 1.367 . S
C1703 C1705 1.433 . S
C1704 C1700 1.350 . S
C1704 C1701 1.463 . S
C1704 N1708 1.427 . S
C1705 H1695 0.929 . S
C1705 C1703 1.433 . S
C1705 N1708 1.384 . S
C1706 H1697 0.929 . S
C1706 C1698 1.378 . S
C1706 C1701 1.350 . S
C1707 H1694 0.929 . S
C1707 C1699 1.433 . S
C1707 N1709 1.384 . S
N1708 C1704 1.427 . S
N1708 C1705 1.384 . S
N1709 C1701 1.427 . S
N1709 C1707 1.384 . S
H1710 C1716 0.930 . S
H1711 C1720 0.930 . S
H1712 C1725 0.929 . S
H1713 C1723 0.929 . S
H1714 C1718 0.929 . S
H1715 C1724 0.929 . S
C1716 H1710 0.930 . S
C1716 C1717 1.367 . S
C1716 C1724 1.378 . S
C1717 C1716 1.367 . S
C1717 C1725 1.433 . S
C1718 H1714 0.929 . S
C1718 C1720 1.378 . S
C1718 C1722 1.350 . S
C1719 C1722 1.463 . S
C1719 C1724 1.350 . S
C1719 N1727 1.427 . S
C1720 H1711 0.930 . S
C1720 C1718 1.378 . S
C1720 C1721 1.367 . S
C1721 C1720 1.367 . S
C1721 C1723 1.433 . S
C1722 C1718 1.350 . S
C1722 C1719 1.463 . S
C1722 N1726 1.427 . S
C1723 H1713 0.929 . S
C1723 C1721 1.433 . S
C1723 N1726 1.384 . S
C1724 H1715 0.929 . S
C1724 C1716 1.378 . S
C1724 C1719 1.350 . S
C1725 H1712 0.929 . S
C1725 C1717 1.433 . S
C1725 N1727 1.384 . S
N1726 C1722 1.427 . S
N1726 C1723 1.384 . S
N1727 C1719 1.427 . S
N1727 C1725 1.384 . S
H1728 C1734 0.930 . S
H1729 C1738 0.930 . S
H1730 C1743 0.929 . S
H1731 C1741 0.929 . S
H1732 C1736 0.929 . S
H1733 C1742 0.929 . S
C1734 H1728 0.930 . S
C1734 C1735 1.367 . S
C1734 C1742 1.378 . S
C1735 C1734 1.367 . S
C1735 C1743 1.433 . S
C1736 H1732 0.929 . S
C1736 C1738 1.378 . S
C1736 C1740 1.350 . S
C1737 C1740 1.463 . S
C1737 C1742 1.350 . S
C1737 N1745 1.427 . S
C1738 H1729 0.930 . S
C1738 C1736 1.378 . S
C1738 C1739 1.367 . S
C1739 C1738 1.367 . S
C1739 C1741 1.433 . S
C1740 C1736 1.350 . S
C1740 C1737 1.463 . S
C1740 N1744 1.427 . S
C1741 H1731 0.929 . S
C1741 C1739 1.433 . S
C1741 N1744 1.384 . S
C1742 H1733 0.929 . S
C1742 C1734 1.378 . S
C1742 C1737 1.350 . S
C1743 H1730 0.929 . S
C1743 C1735 1.433 . S
C1743 N1745 1.384 . S
N1744 C1740 1.427 . S
N1744 C1741 1.384 . S
N1745 C1737 1.427 . S
N1745 C1743 1.384 . S
H1746 C1752 0.930 . S
H1747 C1756 0.930 . S
H1748 C1761 0.929 . S
H1749 C1759 0.929 . S
H1750 C1754 0.929 . S
H1751 C1760 0.929 . S
C1752 H1746 0.930 . S
C1752 C1753 1.367 . S
C1752 C1760 1.378 . S
C1753 C1752 1.367 . S
C1753 C1761 1.433 . S
C1754 H1750 0.929 . S
C1754 C1756 1.378 . S
C1754 C1758 1.350 . S
C1755 C1758 1.463 . S
C1755 C1760 1.350 . S
C1755 N1763 1.427 . S
C1756 H1747 0.930 . S
C1756 C1754 1.378 . S
C1756 C1757 1.367 . S
C1757 C1756 1.367 . S
C1757 C1759 1.433 . S
C1758 C1754 1.350 . S
C1758 C1755 1.463 . S
C1758 N1762 1.427 . S
C1759 H1749 0.929 . S
C1759 C1757 1.433 . S
C1759 N1762 1.384 . S
C1760 H1751 0.929 . S
C1760 C1752 1.378 . S
C1760 C1755 1.350 . S
C1761 H1748 0.929 . S
C1761 C1753 1.433 . S
C1761 N1763 1.384 . S
N1762 C1758 1.427 . S
N1762 C1759 1.384 . S
N1763 C1755 1.427 . S
N1763 C1761 1.384 . S
H1764 C1770 0.930 . S
H1765 C1774 0.930 . S
H1766 C1779 0.929 . S
H1767 C1777 0.929 . S
H1768 C1772 0.929 . S
H1769 C1778 0.929 . S
C1770 H1764 0.930 . S
C1770 C1771 1.367 . S
C1770 C1778 1.378 . S
C1771 C1770 1.367 . S
C1771 C1779 1.433 . S
C1772 H1768 0.929 . S
C1772 C1774 1.378 . S
C1772 C1776 1.350 . S
C1773 C1776 1.463 . S
C1773 C1778 1.350 . S
C1773 N1781 1.427 . S
C1774 H1765 0.930 . S
C1774 C1772 1.378 . S
C1774 C1775 1.367 . S
C1775 C1774 1.367 . S
C1775 C1777 1.433 . S
C1776 C1772 1.350 . S
C1776 C1773 1.463 . S
C1776 N1780 1.427 . S
C1777 H1767 0.929 . S
C1777 C1775 1.433 . S
C1777 N1780 1.384 . S
C1778 H1769 0.929 . S
C1778 C1770 1.378 . S
C1778 C1773 1.350 . S
C1779 H1766 0.929 . S
C1779 C1771 1.433 . S
C1779 N1781 1.384 . S
N1780 C1776 1.427 . S
N1780 C1777 1.384 . S
N1781 C1773 1.427 . S
N1781 C1779 1.384 . S
H1782 C1788 0.930 . S
H1783 C1792 0.930 . S
H1784 C1797 0.929 . S
H1785 C1795 0.929 . S
H1786 C1790 0.929 . S
H1787 C1796 0.929 . S
C1788 H1782 0.930 . S
C1788 C1789 1.367 . S
C1788 C1796 1.378 . S
C1789 C1788 1.367 . S
C1789 C1797 1.433 . S
C1790 H1786 0.929 . S
C1790 C1792 1.378 . S
C1790 C1794 1.350 . S
C1791 C1794 1.463 . S
C1791 C1796 1.350 . S
C1791 N1799 1.427 . S
C1792 H1783 0.930 . S
C1792 C1790 1.378 . S
C1792 C1793 1.367 . S
C1793 C1792 1.367 . S
C1793 C1795 1.433 . S
C1794 C1790 1.350 . S
C1794 C1791 1.463 . S
C1794 N1798 1.427 . S
C1795 H1785 0.929 . S
C1795 C1793 1.433 . S
C1795 N1798 1.384 . S
C1796 H1787 0.929 . S
C1796 C1788 1.378 . S
C1796 C1791 1.350 . S
C1797 H1784 0.929 . S
C1797 C1789 1.433 . S
C1797 N1799 1.384 . S
N1798 C1794 1.427 . S
N1798 C1795 1.384 . S
N1799 C1791 1.427 . S
N1799 C1797 1.384 . S
H1800 C1806 0.930 . S
H1801 C1810 0.930 . S
H1802 C1815 0.929 . S
H1803 C1813 0.929 . S
H1804 C1808 0.929 . S
H1805 C1814 0.929 . S
C1806 H1800 0.930 . S
C1806 C1807 1.367 . S
C1806 C1814 1.378 . S
C1807 C1806 1.367 . S
C1807 C1815 1.433 . S
C1808 H1804 0.929 . S
C1808 C1810 1.378 . S
C1808 C1812 1.350 . S
C1809 C1812 1.463 . S
C1809 C1814 1.350 . S
C1809 N1817 1.427 . S
C1810 H1801 0.930 . S
C1810 C1808 1.378 . S
C1810 C1811 1.367 . S
C1811 C1810 1.367 . S
C1811 C1813 1.433 . S
C1812 C1808 1.350 . S
C1812 C1809 1.463 . S
C1812 N1816 1.427 . S
C1813 H1803 0.929 . S
C1813 C1811 1.433 . S
C1813 N1816 1.384 . S
C1814 H1805 0.929 . S
C1814 C1806 1.378 . S
C1814 C1809 1.350 . S
C1815 H1802 0.929 . S
C1815 C1807 1.433 . S
C1815 N1817 1.384 . S
N1816 C1812 1.427 . S
N1816 C1813 1.384 . S
N1817 C1809 1.427 . S
N1817 C1815 1.384 . S
H1818 C1824 0.930 . S
H1819 C1828 0.930 . S
H1820 C1833 0.929 . S
H1821 C1831 0.929 . S
H1822 C1826 0.929 . S
H1823 C1832 0.929 . S
C1824 H1818 0.930 . S
C1824 C1825 1.367 . S
C1824 C1832 1.378 . S
C1825 C1824 1.367 . S
C1825 C1833 1.433 . S
C1826 H1822 0.929 . S
C1826 C1828 1.378 . S
C1826 C1830 1.350 . S
C1827 C1830 1.463 . S
C1827 C1832 1.350 . S
C1827 N1835 1.427 . S
C1828 H1819 0.930 . S
C1828 C1826 1.378 . S
C1828 C1829 1.367 . S
C1829 C1828 1.367 . S
C1829 C1831 1.433 . S
C1830 C1826 1.350 . S
C1830 C1827 1.463 . S
C1830 N1834 1.427 . S
C1831 H1821 0.929 . S
C1831 C1829 1.433 . S
C1831 N1834 1.384 . S
C1832 H1823 0.929 . S
C1832 C1824 1.378 . S
C1832 C1827 1.350 . S
C1833 H1820 0.929 . S
C1833 C1825 1.433 . S
C1833 N1835 1.384 . S
N1834 C1830 1.427 . S
N1834 C1831 1.384 . S
N1835 C1827 1.427 . S
N1835 C1833 1.384 . S
H1836 C1842 0.930 . S
H1837 C1846 0.930 . S
H1838 C1851 0.929 . S
H1839 C1849 0.929 . S
H1840 C1844 0.929 . S
H1841 C1850 0.929 . S
C1842 H1836 0.930 . S
C1842 C1843 1.367 . S
C1842 C1850 1.378 . S
C1843 C1842 1.367 . S
C1843 C1851 1.433 . S
C1844 H1840 0.929 . S
C1844 C1846 1.378 . S
C1844 C1848 1.350 . S
C1845 C1848 1.463 . S
C1845 C1850 1.350 . S
C1845 N1853 1.427 . S
C1846 H1837 0.930 . S
C1846 C1844 1.378 . S
C1846 C1847 1.367 . S
C1847 C1846 1.367 . S
C1847 C1849 1.433 . S
C1848 C1844 1.350 . S
C1848 C1845 1.463 . S
C1848 N1852 1.427 . S
C1849 H1839 0.929 . S
C1849 C1847 1.433 . S
C1849 N1852 1.384 . S
C1850 H1841 0.929 . S
C1850 C1842 1.378 . S
C1850 C1845 1.350 . S
C1851 H1838 0.929 . S
C1851 C1843 1.433 . S
C1851 N1853 1.384 . S
N1852 C1848 1.427 . S
N1852 C1849 1.384 . S
N1853 C1845 1.427 . S
N1853 C1851 1.384 . S
H1854 C1860 0.930 . S
H1855 C1864 0.930 . S
H1856 C1869 0.929 . S
H1857 C1867 0.929 . S
H1858 C1862 0.929 . S
H1859 C1868 0.929 . S
C1860 H1854 0.930 . S
C1860 C1861 1.367 . S
C1860 C1868 1.378 . S
C1861 C1860 1.367 . S
C1861 C1869 1.433 . S
C1862 H1858 0.929 . S
C1862 C1864 1.378 . S
C1862 C1866 1.350 . S
C1863 C1866 1.463 . S
C1863 C1868 1.350 . S
C1863 N1871 1.427 . S
C1864 H1855 0.930 . S
C1864 C1862 1.378 . S
C1864 C1865 1.367 . S
C1865 C1864 1.367 . S
C1865 C1867 1.433 . S
C1866 C1862 1.350 . S
C1866 C1863 1.463 . S
C1866 N1870 1.427 . S
C1867 H1857 0.929 . S
C1867 C1865 1.433 . S
C1867 N1870 1.384 . S
C1868 H1859 0.929 . S
C1868 C1860 1.378 . S
C1868 C1863 1.350 . S
C1869 H1856 0.929 . S
C1869 C1861 1.433 . S
C1869 N1871 1.384 . S
N1870 C1866 1.427 . S
N1870 C1867 1.384 . S
N1871 C1863 1.427 . S
N1871 C1869 1.384 . S
H1872 C1878 0.930 . S
H1873 C1882 0.930 . S
H1874 C1887 0.929 . S
H1875 C1885 0.929 . S
H1876 C1880 0.929 . S
H1877 C1886 0.929 . S
C1878 H1872 0.930 . S
C1878 C1879 1.367 . S
C1878 C1886 1.378 . S
C1879 C1878 1.367 . S
C1879 C1887 1.433 . S
C1880 H1876 0.929 . S
C1880 C1882 1.378 . S
C1880 C1884 1.350 . S
C1881 C1884 1.463 . S
C1881 C1886 1.350 . S
C1881 N1889 1.427 . S
C1882 H1873 0.930 . S
C1882 C1880 1.378 . S
C1882 C1883 1.367 . S
C1883 C1882 1.367 . S
C1883 C1885 1.433 . S
C1884 C1880 1.350 . S
C1884 C1881 1.463 . S
C1884 N1888 1.427 . S
C1885 H1875 0.929 . S
C1885 C1883 1.433 . S
C1885 N1888 1.384 . S
C1886 H1877 0.929 . S
C1886 C1878 1.378 . S
C1886 C1881 1.350 . S
C1887 H1874 0.929 . S
C1887 C1879 1.433 . S
C1887 N1889 1.384 . S
N1888 C1884 1.427 . S
N1888 C1885 1.384 . S
N1889 C1881 1.427 . S
N1889 C1887 1.384 . S
H1890 C1896 0.930 1_554 S
H1891 C1900 0.930 . S
H1892 C1905 0.929 . S
H1893 C1903 0.929 . S
H1894 C1898 0.929 . S
H1895 C1904 0.929 . S
C1896 H1890 0.930 1_556 S
C1896 C1897 1.367 . S
C1896 C1904 1.378 . S
C1897 C1896 1.367 . S
C1897 C1905 1.433 . S
C1898 H1894 0.929 . S
C1898 C1900 1.378 . S
C1898 C1902 1.350 . S
C1899 C1902 1.463 . S
C1899 C1904 1.350 . S
C1899 N1907 1.427 . S
C1900 H1891 0.930 . S
C1900 C1898 1.378 . S
C1900 C1901 1.367 . S
C1901 C1900 1.367 . S
C1901 C1903 1.433 . S
C1902 C1898 1.350 . S
C1902 C1899 1.463 . S
C1902 N1906 1.427 . S
C1903 H1893 0.929 . S
C1903 C1901 1.433 . S
C1903 N1906 1.384 . S
C1904 H1895 0.929 . S
C1904 C1896 1.378 . S
C1904 C1899 1.350 . S
C1905 H1892 0.929 . S
C1905 C1897 1.433 . S
C1905 N1907 1.384 . S
N1906 C1902 1.427 . S
N1906 C1903 1.384 . S
N1907 C1899 1.427 . S
N1907 C1905 1.384 . S
H1908 C1914 0.930 . S
H1909 C1918 0.930 . S
H1910 C1923 0.929 . S
H1911 C1921 0.929 . S
H1912 C1916 0.929 . S
H1913 C1922 0.929 . S
C1914 H1908 0.930 . S
C1914 C1915 1.367 . S
C1914 C1922 1.378 . S
C1915 C1914 1.367 . S
C1915 C1923 1.433 . S
C1916 H1912 0.929 . S
C1916 C1918 1.378 . S
C1916 C1920 1.350 . S
C1917 C1920 1.463 . S
C1917 C1922 1.350 . S
C1917 N1925 1.427 . S
C1918 H1909 0.930 . S
C1918 C1916 1.378 . S
C1918 C1919 1.367 . S
C1919 C1918 1.367 . S
C1919 C1921 1.433 . S
C1920 C1916 1.350 . S
C1920 C1917 1.463 . S
C1920 N1924 1.427 . S
C1921 H1911 0.929 . S
C1921 C1919 1.433 . S
C1921 N1924 1.384 . S
C1922 H1913 0.929 . S
C1922 C1914 1.378 . S
C1922 C1917 1.350 . S
C1923 H1910 0.929 . S
C1923 C1915 1.433 . S
C1923 N1925 1.384 . S
N1924 C1920 1.427 . S
N1924 C1921 1.384 . S
N1925 C1917 1.427 . S
N1925 C1923 1.384 . S
H1926 C1932 0.930 . S
H1927 C1936 0.930 . S
H1928 C1941 0.929 . S
H1929 C1939 0.929 . S
H1930 C1934 0.929 . S
H1931 C1940 0.929 . S
C1932 H1926 0.930 . S
C1932 C1933 1.367 . S
C1932 C1940 1.378 . S
C1933 C1932 1.367 . S
C1933 C1941 1.433 . S
C1934 H1930 0.929 . S
C1934 C1936 1.378 . S
C1934 C1938 1.350 . S
C1935 C1938 1.463 . S
C1935 C1940 1.350 . S
C1935 N1943 1.427 . S
C1936 H1927 0.930 . S
C1936 C1934 1.378 . S
C1936 C1937 1.367 . S
C1937 C1936 1.367 . S
C1937 C1939 1.433 . S
C1938 C1934 1.350 . S
C1938 C1935 1.463 . S
C1938 N1942 1.427 . S
C1939 H1929 0.929 . S
C1939 C1937 1.433 . S
C1939 N1942 1.384 . S
C1940 H1931 0.929 . S
C1940 C1932 1.378 . S
C1940 C1935 1.350 . S
C1941 H1928 0.929 . S
C1941 C1933 1.433 . S
C1941 N1943 1.384 . S
N1942 C1938 1.427 . S
N1942 C1939 1.384 . S
N1943 C1935 1.427 . S
N1943 C1941 1.384 . S
H1944 C1950 0.930 1_556 S
H1945 C1954 0.930 . S
H1946 C1959 0.929 . S
H1947 C1957 0.929 . S
H1948 C1952 0.929 . S
H1949 C1958 0.929 . S
C1950 H1944 0.930 1_554 S
C1950 C1951 1.367 . S
C1950 C1958 1.378 . S
C1951 C1950 1.367 . S
C1951 C1959 1.433 . S
C1952 H1948 0.929 . S
C1952 C1954 1.378 . S
C1952 C1956 1.350 . S
C1953 C1956 1.463 . S
C1953 C1958 1.350 . S
C1953 N1961 1.427 . S
C1954 H1945 0.930 . S
C1954 C1952 1.378 . S
C1954 C1955 1.367 . S
C1955 C1954 1.367 . S
C1955 C1957 1.433 . S
C1956 C1952 1.350 . S
C1956 C1953 1.463 . S
C1956 N1960 1.427 . S
C1957 H1947 0.929 . S
C1957 C1955 1.433 . S
C1957 N1960 1.384 . S
C1958 H1949 0.929 . S
C1958 C1950 1.378 . S
C1958 C1953 1.350 . S
C1959 H1946 0.929 . S
C1959 C1951 1.433 . S
C1959 N1961 1.384 . S
N1960 C1956 1.427 . S
N1960 C1957 1.384 . S
N1961 C1953 1.427 . S
N1961 C1959 1.384 . S
H1962 C1968 0.930 . S
H1963 C1972 0.930 . S
H1964 C1977 0.929 1_556 S
H1965 C1975 0.929 . S
H1966 C1970 0.929 . S
H1967 C1976 0.929 . S
C1968 H1962 0.930 . S
C1968 C1969 1.367 . S
C1968 C1976 1.378 . S
C1969 C1968 1.367 . S
C1969 C1977 1.433 . S
C1970 H1966 0.929 . S
C1970 C1972 1.378 . S
C1970 C1974 1.350 . S
C1971 C1974 1.463 . S
C1971 C1976 1.350 . S
C1971 N1979 1.427 . S
C1972 H1963 0.930 . S
C1972 C1970 1.378 . S
C1972 C1973 1.367 . S
C1973 C1972 1.367 . S
C1973 C1975 1.433 . S
C1974 C1970 1.350 . S
C1974 C1971 1.463 . S
C1974 N1978 1.427 . S
C1975 H1965 0.929 . S
C1975 C1973 1.433 . S
C1975 N1978 1.384 . S
C1976 H1967 0.929 . S
C1976 C1968 1.378 . S
C1976 C1971 1.350 . S
C1977 H1964 0.929 1_554 S
C1977 C1969 1.433 . S
C1977 N1979 1.384 . S
N1978 C1974 1.427 . S
N1978 C1975 1.384 . S
N1979 C1971 1.427 . S
N1979 C1977 1.384 . S
H1980 C1986 0.930 . S
H1981 C1990 0.930 . S
H1982 C1995 0.929 . S
H1983 C1993 0.929 . S
H1984 C1988 0.929 . S
H1985 C1994 0.929 . S
C1986 H1980 0.930 . S
C1986 C1987 1.367 . S
C1986 C1994 1.378 . S
C1987 C1986 1.367 . S
C1987 C1995 1.433 . S
C1988 H1984 0.929 . S
C1988 C1990 1.378 . S
C1988 C1992 1.350 . S
C1989 C1992 1.463 . S
C1989 C1994 1.350 . S
C1989 N1997 1.427 . S
C1990 H1981 0.930 . S
C1990 C1988 1.378 . S
C1990 C1991 1.367 . S
C1991 C1990 1.367 . S
C1991 C1993 1.433 . S
C1992 C1988 1.350 . S
C1992 C1989 1.463 . S
C1992 N1996 1.427 . S
C1993 H1983 0.929 . S
C1993 C1991 1.433 . S
C1993 N1996 1.384 . S
C1994 H1985 0.929 . S
C1994 C1986 1.378 . S
C1994 C1989 1.350 . S
C1995 H1982 0.929 . S
C1995 C1987 1.433 . S
C1995 N1997 1.384 . S
N1996 C1992 1.427 . S
N1996 C1993 1.384 . S
N1997 C1989 1.427 . S
N1997 C1995 1.384 . S
H1998 C2004 0.930 . S
H1999 C2008 0.930 . S
H2000 C2013 0.929 1_556 S
H2001 C2011 0.929 . S
H2002 C2006 0.929 . S
H2003 C2012 0.929 . S
C2004 H1998 0.930 . S
C2004 C2005 1.367 . S
C2004 C2012 1.378 . S
C2005 C2004 1.367 . S
C2005 C2013 1.433 . S
C2006 H2002 0.929 . S
C2006 C2008 1.378 . S
C2006 C2010 1.350 . S
C2007 C2010 1.463 . S
C2007 C2012 1.350 . S
C2007 N2015 1.427 . S
C2008 H1999 0.930 . S
C2008 C2006 1.378 . S
C2008 C2009 1.367 . S
C2009 C2008 1.367 . S
C2009 C2011 1.433 . S
C2010 C2006 1.350 . S
C2010 C2007 1.463 . S
C2010 N2014 1.427 . S
C2011 H2001 0.929 . S
C2011 C2009 1.433 . S
C2011 N2014 1.384 . S
C2012 H2003 0.929 . S
C2012 C2004 1.378 . S
C2012 C2007 1.350 . S
C2013 H2000 0.929 1_554 S
C2013 C2005 1.433 . S
C2013 N2015 1.384 . S
N2014 C2010 1.427 . S
N2014 C2011 1.384 . S
N2015 C2007 1.427 . S
N2015 C2013 1.384 . S
H2016 C2022 0.930 . S
H2017 C2026 0.930 . S
H2018 C2031 0.929 . S
H2019 C2029 0.929 . S
H2020 C2024 0.929 . S
H2021 C2030 0.929 . S
C2022 H2016 0.930 . S
C2022 C2023 1.367 . S
C2022 C2030 1.378 . S
C2023 C2022 1.367 . S
C2023 C2031 1.433 . S
C2024 H2020 0.929 . S
C2024 C2026 1.378 . S
C2024 C2028 1.350 . S
C2025 C2028 1.463 . S
C2025 C2030 1.350 . S
C2025 N2033 1.427 . S
C2026 H2017 0.930 . S
C2026 C2024 1.378 . S
C2026 C2027 1.367 . S
C2027 C2026 1.367 . S
C2027 C2029 1.433 . S
C2028 C2024 1.350 . S
C2028 C2025 1.463 . S
C2028 N2032 1.427 . S
C2029 H2019 0.929 . S
C2029 C2027 1.433 . S
C2029 N2032 1.384 . S
C2030 H2021 0.929 . S
C2030 C2022 1.378 . S
C2030 C2025 1.350 . S
C2031 H2018 0.929 . S
C2031 C2023 1.433 . S
C2031 N2033 1.384 . S
N2032 C2028 1.427 . S
N2032 C2029 1.384 . S
N2033 C2025 1.427 . S
N2033 C2031 1.384 . S
H2034 C2040 0.930 . S
H2035 C2044 0.930 . S
H2036 C2049 0.929 . S
H2037 C2047 0.929 . S
H2038 C2042 0.929 . S
H2039 C2048 0.929 . S
C2040 H2034 0.930 . S
C2040 C2041 1.367 . S
C2040 C2048 1.378 . S
C2041 C2040 1.367 . S
C2041 C2049 1.433 . S
C2042 H2038 0.929 . S
C2042 C2044 1.378 . S
C2042 C2046 1.350 . S
C2043 C2046 1.463 . S
C2043 C2048 1.350 . S
C2043 N2051 1.427 . S
C2044 H2035 0.930 . S
C2044 C2042 1.378 . S
C2044 C2045 1.367 . S
C2045 C2044 1.367 . S
C2045 C2047 1.433 . S
C2046 C2042 1.350 . S
C2046 C2043 1.463 . S
C2046 N2050 1.427 . S
C2047 H2037 0.929 . S
C2047 C2045 1.433 . S
C2047 N2050 1.384 . S
C2048 H2039 0.929 . S
C2048 C2040 1.378 . S
C2048 C2043 1.350 . S
C2049 H2036 0.929 . S
C2049 C2041 1.433 . S
C2049 N2051 1.384 . S
N2050 C2046 1.427 . S
N2050 C2047 1.384 . S
N2051 C2043 1.427 . S
N2051 C2049 1.384 . S
H2052 C2058 0.930 . S
H2053 C2062 0.930 1_554 S
H2054 C2067 0.929 . S
H2055 C2065 0.929 . S
H2056 C2060 0.929 . S
H2057 C2066 0.929 . S
C2058 H2052 0.930 . S
C2058 C2059 1.367 . S
C2058 C2066 1.378 . S
C2059 C2058 1.367 . S
C2059 C2067 1.433 . S
C2060 H2056 0.929 . S
C2060 C2062 1.378 . S
C2060 C2064 1.350 . S
C2061 C2064 1.463 . S
C2061 C2066 1.350 . S
C2061 N2069 1.427 . S
C2062 H2053 0.930 1_556 S
C2062 C2060 1.378 . S
C2062 C2063 1.367 . S
C2063 C2062 1.367 . S
C2063 C2065 1.433 . S
C2064 C2060 1.350 . S
C2064 C2061 1.463 . S
C2064 N2068 1.427 . S
C2065 H2055 0.929 . S
C2065 C2063 1.433 . S
C2065 N2068 1.384 . S
C2066 H2057 0.929 . S
C2066 C2058 1.378 . S
C2066 C2061 1.350 . S
C2067 H2054 0.929 . S
C2067 C2059 1.433 . S
C2067 N2069 1.384 . S
N2068 C2064 1.427 . S
N2068 C2065 1.384 . S
N2069 C2061 1.427 . S
N2069 C2067 1.384 . S
H2070 C2076 0.930 . S
H2071 C2080 0.930 . S
H2072 C2085 0.929 . S
H2073 C2083 0.929 1_554 S
H2074 C2078 0.929 . S
H2075 C2084 0.929 . S
C2076 H2070 0.930 . S
C2076 C2077 1.367 . S
C2076 C2084 1.378 . S
C2077 C2076 1.367 . S
C2077 C2085 1.433 . S
C2078 H2074 0.929 . S
C2078 C2080 1.378 . S
C2078 C2082 1.350 . S
C2079 C2082 1.463 . S
C2079 C2084 1.350 . S
C2079 N2087 1.427 . S
C2080 H2071 0.930 . S
C2080 C2078 1.378 . S
C2080 C2081 1.367 . S
C2081 C2080 1.367 . S
C2081 C2083 1.433 . S
C2082 C2078 1.350 . S
C2082 C2079 1.463 . S
C2082 N2086 1.427 . S
C2083 H2073 0.929 1_556 S
C2083 C2081 1.433 . S
C2083 N2086 1.384 . S
C2084 H2075 0.929 . S
C2084 C2076 1.378 . S
C2084 C2079 1.350 . S
C2085 H2072 0.929 . S
C2085 C2077 1.433 . S
C2085 N2087 1.384 . S
N2086 C2082 1.427 . S
N2086 C2083 1.384 . S
N2087 C2079 1.427 . S
N2087 C2085 1.384 . S
H2088 C2094 0.930 . S
H2089 C2098 0.930 . S
H2090 C2103 0.929 . S
H2091 C2101 0.929 . S
H2092 C2096 0.929 . S
H2093 C2102 0.929 . S
C2094 H2088 0.930 . S
C2094 C2095 1.367 . S
C2094 C2102 1.378 . S
C2095 C2094 1.367 . S
C2095 C2103 1.433 . S
C2096 H2092 0.929 . S
C2096 C2098 1.378 . S
C2096 C2100 1.350 . S
C2097 C2100 1.463 1_455 S
C2097 C2102 1.350 . S
C2097 N2105 1.427 . S
C2098 H2089 0.930 . S
C2098 C2096 1.378 . S
C2098 C2099 1.367 . S
C2099 C2098 1.367 . S
C2099 C2101 1.433 . S
C2100 C2096 1.350 . S
C2100 C2097 1.463 1_655 S
C2100 N2104 1.427 . S
C2101 H2091 0.929 . S
C2101 C2099 1.433 . S
C2101 N2104 1.384 . S
C2102 H2093 0.929 . S
C2102 C2094 1.378 . S
C2102 C2097 1.350 . S
C2103 H2090 0.929 . S
C2103 C2095 1.433 . S
C2103 N2105 1.384 . S
N2104 C2100 1.427 . S
N2104 C2101 1.384 . S
N2105 C2097 1.427 . S
N2105 C2103 1.384 . S
H2106 C2112 0.930 . S
H2107 C2116 0.930 . S
H2108 C2121 0.929 . S
H2109 C2119 0.929 . S
H2110 C2114 0.929 . S
H2111 C2120 0.929 . S
C2112 H2106 0.930 . S
C2112 C2113 1.367 . S
C2112 C2120 1.378 . S
C2113 C2112 1.367 . S
C2113 C2121 1.433 . S
C2114 H2110 0.929 . S
C2114 C2116 1.378 . S
C2114 C2118 1.350 . S
C2115 C2118 1.463 . S
C2115 C2120 1.350 . S
C2115 N2123 1.427 . S
C2116 H2107 0.930 . S
C2116 C2114 1.378 . S
C2116 C2117 1.367 . S
C2117 C2116 1.367 . S
C2117 C2119 1.433 . S
C2118 C2114 1.350 . S
C2118 C2115 1.463 . S
C2118 N2122 1.427 . S
C2119 H2109 0.929 . S
C2119 C2117 1.433 . S
C2119 N2122 1.384 . S
C2120 H2111 0.929 . S
C2120 C2112 1.378 . S
C2120 C2115 1.350 . S
C2121 H2108 0.929 . S
C2121 C2113 1.433 . S
C2121 N2123 1.384 . S
N2122 C2118 1.427 . S
N2122 C2119 1.384 . S
N2123 C2115 1.427 . S
N2123 C2121 1.384 . S
H2124 C2130 0.930 . S
H2125 C2134 0.930 . S
H2126 C2139 0.929 . S
H2127 C2137 0.929 . S
H2128 C2132 0.929 . S
H2129 C2138 0.929 . S
C2130 H2124 0.930 . S
C2130 C2131 1.367 . S
C2130 C2138 1.378 . S
C2131 C2130 1.367 . S
C2131 C2139 1.433 . S
C2132 H2128 0.929 . S
C2132 C2134 1.378 . S
C2132 C2136 1.350 . S
C2133 C2136 1.463 1_565 S
C2133 C2138 1.350 . S
C2133 N2141 1.427 . S
C2134 H2125 0.930 . S
C2134 C2132 1.378 . S
C2134 C2135 1.367 . S
C2135 C2134 1.367 . S
C2135 C2137 1.433 . S
C2136 C2132 1.350 . S
C2136 C2133 1.463 1_545 S
C2136 N2140 1.427 . S
C2137 H2127 0.929 . S
C2137 C2135 1.433 . S
C2137 N2140 1.384 . S
C2138 H2129 0.929 . S
C2138 C2130 1.378 . S
C2138 C2133 1.350 . S
C2139 H2126 0.929 . S
C2139 C2131 1.433 . S
C2139 N2141 1.384 . S
N2140 C2136 1.427 . S
N2140 C2137 1.384 . S
N2141 C2133 1.427 . S
N2141 C2139 1.384 . S
H2142 C2148 0.930 . S
H2143 C2152 0.930 . S
H2144 C2157 0.929 . S
H2145 C2155 0.929 . S
H2146 C2150 0.929 . S
H2147 C2156 0.929 . S
C2148 H2142 0.930 . S
C2148 C2149 1.367 . S
C2148 C2156 1.378 . S
C2149 C2148 1.367 . S
C2149 C2157 1.433 . S
C2150 H2146 0.929 . S
C2150 C2152 1.378 . S
C2150 C2154 1.350 . S
C2151 C2154 1.463 1_565 S
C2151 C2156 1.350 . S
C2151 N2159 1.427 . S
C2152 H2143 0.930 . S
C2152 C2150 1.378 . S
C2152 C2153 1.367 . S
C2153 C2152 1.367 . S
C2153 C2155 1.433 . S
C2154 C2150 1.350 . S
C2154 C2151 1.463 1_545 S
C2154 N2158 1.427 . S
C2155 H2145 0.929 . S
C2155 C2153 1.433 . S
C2155 N2158 1.384 . S
C2156 H2147 0.929 . S
C2156 C2148 1.378 . S
C2156 C2151 1.350 . S
C2157 H2144 0.929 . S
C2157 C2149 1.433 . S
C2157 N2159 1.384 . S
N2158 C2154 1.427 . S
N2158 C2155 1.384 . S
N2159 C2151 1.427 . S
N2159 C2157 1.384 . S
H2160 C2166 0.930 . S
H2161 C2170 0.930 . S
H2162 C2175 0.929 . S
H2163 C2173 0.929 . S
H2164 C2168 0.912 1_455 S
H2165 C2174 0.913 1_655 S
C2166 H2160 0.930 . S
C2166 C2167 1.367 . S
C2166 C2174 1.378 . S
C2167 C2166 1.367 . S
C2167 C2175 1.433 . S
C2168 H2164 0.912 1_655 S
C2168 C2170 1.378 . S
C2168 C2172 1.350 . S
C2169 C2172 1.463 1_455 S
C2169 C2174 1.350 . S
C2169 N2177 1.427 . S
C2170 H2161 0.930 . S
C2170 C2168 1.378 . S
C2170 C2171 1.367 . S
C2171 C2170 1.367 . S
C2171 C2173 1.433 . S
C2172 C2168 1.350 . S
C2172 C2169 1.463 1_655 S
C2172 N2176 1.427 . S
C2173 H2163 0.929 . S
C2173 C2171 1.433 . S
C2173 N2176 1.384 . S
C2174 H2165 0.913 1_455 S
C2174 C2166 1.378 . S
C2174 C2169 1.350 . S
C2175 H2162 0.929 . S
C2175 C2167 1.433 . S
C2175 N2177 1.384 . S
N2176 C2172 1.427 . S
N2176 C2173 1.384 . S
N2177 C2169 1.427 . S
N2177 C2175 1.384 . S
H2178 C2184 0.930 . S
H2179 C2188 0.930 . S
H2180 C2193 0.929 . S
H2181 C2191 0.929 . S
H2182 C2186 0.929 . S
H2183 C2192 0.929 . S
C2184 H2178 0.930 . S
C2184 C2185 1.367 . S
C2184 C2192 1.378 . S
C2185 C2184 1.367 . S
C2185 C2193 1.433 . S
C2186 H2182 0.929 . S
C2186 C2188 1.378 . S
C2186 C2190 1.350 . S
C2187 C2190 1.463 . S
C2187 C2192 1.350 . S
C2187 N2195 1.427 . S
C2188 H2179 0.930 . S
C2188 C2186 1.378 . S
C2188 C2189 1.367 . S
C2189 C2188 1.367 . S
C2189 C2191 1.433 . S
C2190 C2186 1.350 . S
C2190 C2187 1.463 . S
C2190 N2194 1.427 . S
C2191 H2181 0.929 . S
C2191 C2189 1.433 . S
C2191 N2194 1.384 . S
C2192 H2183 0.929 . S
C2192 C2184 1.378 . S
C2192 C2187 1.350 . S
C2193 H2180 0.929 . S
C2193 C2185 1.433 . S
C2193 N2195 1.384 . S
N2194 C2190 1.427 . S
N2194 C2191 1.384 . S
N2195 C2187 1.427 . S
N2195 C2193 1.384 . S
H2196 C2202 0.930 . S
H2197 C2206 0.930 . S
H2198 C2211 0.929 . S
H2199 C2209 0.929 . S
H2200 C2204 0.929 . S
H2201 C2210 0.929 . S
C2202 H2196 0.930 . S
C2202 C2203 1.367 . S
C2202 C2210 1.378 . S
C2203 C2202 1.367 . S
C2203 C2211 1.433 . S
C2204 H2200 0.929 . S
C2204 C2206 1.378 . S
C2204 C2208 1.350 . S
C2205 C2208 1.463 . S
C2205 C2210 1.350 . S
C2205 N2213 1.427 . S
C2206 H2197 0.930 . S
C2206 C2204 1.378 . S
C2206 C2207 1.367 . S
C2207 C2206 1.367 . S
C2207 C2209 1.433 . S
C2208 C2204 1.350 . S
C2208 C2205 1.463 . S
C2208 N2212 1.427 . S
C2209 H2199 0.929 . S
C2209 C2207 1.433 . S
C2209 N2212 1.384 . S
C2210 H2201 0.929 . S
C2210 C2202 1.378 . S
C2210 C2205 1.350 . S
C2211 H2198 0.929 . S
C2211 C2203 1.433 . S
C2211 N2213 1.384 . S
N2212 C2208 1.427 . S
N2212 C2209 1.384 . S
N2213 C2205 1.427 . S
N2213 C2211 1.384 . S
H2214 C2220 0.930 . S
H2215 C2224 0.930 . S
H2216 C2229 0.929 . S
H2217 C2227 0.929 . S
H2218 C2222 0.929 . S
H2219 C2228 0.929 . S
C2220 H2214 0.930 . S
C2220 C2221 1.367 . S
C2220 C2228 1.378 . S
C2221 C2220 1.367 . S
C2221 C2229 1.433 . S
C2222 H2218 0.929 . S
C2222 C2224 1.378 . S
C2222 C2226 1.350 . S
C2223 C2226 1.463 . S
C2223 C2228 1.350 . S
C2223 N2231 1.427 . S
C2224 H2215 0.930 . S
C2224 C2222 1.378 . S
C2224 C2225 1.367 . S
C2225 C2224 1.367 . S
C2225 C2227 1.433 . S
C2226 C2222 1.350 . S
C2226 C2223 1.463 . S
C2226 N2230 1.427 . S
C2227 H2217 0.929 . S
C2227 C2225 1.433 . S
C2227 N2230 1.384 . S
C2228 H2219 0.929 . S
C2228 C2220 1.378 . S
C2228 C2223 1.350 . S
C2229 H2216 0.929 . S
C2229 C2221 1.433 . S
C2229 N2231 1.384 . S
N2230 C2226 1.427 . S
N2230 C2227 1.384 . S
N2231 C2223 1.427 . S
N2231 C2229 1.384 . S
H2232 C2238 0.930 . S
H2233 C2242 0.930 . S
H2234 C2247 0.929 . S
H2235 C2245 0.929 . S
H2236 C2240 0.929 . S
H2237 C2246 0.929 . S
C2238 H2232 0.930 . S
C2238 C2239 1.367 . S
C2238 C2246 1.378 . S
C2239 C2238 1.367 . S
C2239 C2247 1.433 . S
C2240 H2236 0.929 . S
C2240 C2242 1.378 . S
C2240 C2244 1.350 . S
C2241 C2244 1.463 . S
C2241 C2246 1.350 . S
C2241 N2249 1.427 . S
C2242 H2233 0.930 . S
C2242 C2240 1.378 . S
C2242 C2243 1.367 . S
C2243 C2242 1.367 . S
C2243 C2245 1.433 . S
C2244 C2240 1.350 . S
C2244 C2241 1.463 . S
C2244 N2248 1.427 . S
C2245 H2235 0.929 . S
C2245 C2243 1.433 . S
C2245 N2248 1.384 . S
C2246 H2237 0.929 . S
C2246 C2238 1.378 . S
C2246 C2241 1.350 . S
C2247 H2234 0.929 . S
C2247 C2239 1.433 . S
C2247 N2249 1.384 . S
N2248 C2244 1.427 . S
N2248 C2245 1.384 . S
N2249 C2241 1.427 . S
N2249 C2247 1.384 . S
H2250 C2256 0.930 . S
H2251 C2260 0.930 . S
H2252 C2265 0.929 . S
H2253 C2263 0.929 . S
H2254 C2258 0.929 . S
H2255 C2264 0.929 . S
C2256 H2250 0.930 . S
C2256 C2257 1.367 . S
C2256 C2264 1.378 . S
C2257 C2256 1.367 . S
C2257 C2265 1.433 . S
C2258 H2254 0.929 . S
C2258 C2260 1.378 . S
C2258 C2262 1.350 . S
C2259 C2262 1.463 . S
C2259 C2264 1.350 . S
C2259 N2267 1.427 . S
C2260 H2251 0.930 . S
C2260 C2258 1.378 . S
C2260 C2261 1.367 . S
C2261 C2260 1.367 . S
C2261 C2263 1.433 . S
C2262 C2258 1.350 . S
C2262 C2259 1.463 . S
C2262 N2266 1.427 . S
C2263 H2253 0.929 . S
C2263 C2261 1.433 . S
C2263 N2266 1.384 . S
C2264 H2255 0.929 . S
C2264 C2256 1.378 . S
C2264 C2259 1.350 . S
C2265 H2252 0.929 . S
C2265 C2257 1.433 . S
C2265 N2267 1.384 . S
N2266 C2262 1.427 . S
N2266 C2263 1.384 . S
N2267 C2259 1.427 . S
N2267 C2265 1.384 . S
H2268 C2274 0.930 . S
H2269 C2278 0.930 . S
H2270 C2283 0.929 . S
H2271 C2281 0.929 . S
H2272 C2276 0.929 . S
H2273 C2282 0.929 . S
C2274 H2268 0.930 . S
C2274 C2275 1.367 . S
C2274 C2282 1.378 . S
C2275 C2274 1.367 . S
C2275 C2283 1.433 . S
C2276 H2272 0.929 . S
C2276 C2278 1.378 . S
C2276 C2280 1.350 . S
C2277 C2280 1.463 . S
C2277 C2282 1.350 . S
C2277 N2285 1.427 . S
C2278 H2269 0.930 . S
C2278 C2276 1.378 . S
C2278 C2279 1.367 . S
C2279 C2278 1.367 . S
C2279 C2281 1.433 . S
C2280 C2276 1.350 . S
C2280 C2277 1.463 . S
C2280 N2284 1.427 . S
C2281 H2271 0.929 . S
C2281 C2279 1.433 . S
C2281 N2284 1.384 . S
C2282 H2273 0.929 . S
C2282 C2274 1.378 . S
C2282 C2277 1.350 . S
C2283 H2270 0.929 . S
C2283 C2275 1.433 . S
C2283 N2285 1.384 . S
N2284 C2280 1.427 . S
N2284 C2281 1.384 . S
N2285 C2277 1.427 . S
N2285 C2283 1.384 . S
H2286 C2292 0.930 . S
H2287 C2296 0.930 . S
H2288 C2301 0.929 . S
H2289 C2299 0.929 . S
H2290 C2294 0.929 . S
H2291 C2300 0.929 . S
C2292 H2286 0.930 . S
C2292 C2293 1.367 . S
C2292 C2300 1.378 . S
C2293 C2292 1.367 . S
C2293 C2301 1.433 . S
C2294 H2290 0.929 . S
C2294 C2296 1.378 . S
C2294 C2298 1.350 . S
C2295 C2298 1.463 . S
C2295 C2300 1.350 . S
C2295 N2303 1.427 . S
C2296 H2287 0.930 . S
C2296 C2294 1.378 . S
C2296 C2297 1.367 . S
C2297 C2296 1.367 . S
C2297 C2299 1.433 . S
C2298 C2294 1.350 . S
C2298 C2295 1.463 . S
C2298 N2302 1.427 . S
C2299 H2289 0.929 . S
C2299 C2297 1.433 . S
C2299 N2302 1.384 . S
C2300 H2291 0.929 . S
C2300 C2292 1.378 . S
C2300 C2295 1.350 . S
C2301 H2288 0.929 . S
C2301 C2293 1.433 . S
C2301 N2303 1.384 . S
N2302 C2298 1.427 . S
N2302 C2299 1.384 . S
N2303 C2295 1.427 . S
N2303 C2301 1.384 . S
H2304 C2310 0.930 . S
H2305 C2314 0.930 . S
H2306 C2319 0.929 . S
H2307 C2317 0.929 . S
H2308 C2312 0.929 . S
H2309 C2318 0.929 . S
C2310 H2304 0.930 . S
C2310 C2311 1.367 . S
C2310 C2318 1.378 . S
C2311 C2310 1.367 . S
C2311 C2319 1.433 . S
C2312 H2308 0.929 . S
C2312 C2314 1.378 . S
C2312 C2316 1.350 . S
C2313 C2316 1.463 . S
C2313 C2318 1.350 . S
C2313 N2321 1.427 . S
C2314 H2305 0.930 . S
C2314 C2312 1.378 . S
C2314 C2315 1.367 . S
C2315 C2314 1.367 . S
C2315 C2317 1.433 . S
C2316 C2312 1.350 . S
C2316 C2313 1.463 . S
C2316 N2320 1.427 . S
C2317 H2307 0.929 . S
C2317 C2315 1.433 . S
C2317 N2320 1.384 . S
C2318 H2309 0.929 . S
C2318 C2310 1.378 . S
C2318 C2313 1.350 . S
C2319 H2306 0.929 . S
C2319 C2311 1.433 . S
C2319 N2321 1.384 . S
N2320 C2316 1.427 . S
N2320 C2317 1.384 . S
N2321 C2313 1.427 . S
N2321 C2319 1.384 . S
H2322 C2328 0.930 . S
H2323 C2332 0.930 . S
H2324 C2337 0.929 . S
H2325 C2335 0.929 . S
H2326 C2330 0.929 . S
H2327 C2336 0.929 . S
C2328 H2322 0.930 . S
C2328 C2329 1.367 . S
C2328 C2336 1.378 . S
C2329 C2328 1.367 . S
C2329 C2337 1.433 . S
C2330 H2326 0.929 . S
C2330 C2332 1.378 . S
C2330 C2334 1.350 . S
C2331 C2334 1.463 . S
C2331 C2336 1.350 . S
C2331 N2339 1.427 . S
C2332 H2323 0.930 . S
C2332 C2330 1.378 . S
C2332 C2333 1.367 . S
C2333 C2332 1.367 . S
C2333 C2335 1.433 . S
C2334 C2330 1.350 . S
C2334 C2331 1.463 . S
C2334 N2338 1.427 . S
C2335 H2325 0.929 . S
C2335 C2333 1.433 . S
C2335 N2338 1.384 . S
C2336 H2327 0.929 . S
C2336 C2328 1.378 . S
C2336 C2331 1.350 . S
C2337 H2324 0.929 . S
C2337 C2329 1.433 . S
C2337 N2339 1.384 . S
N2338 C2334 1.427 . S
N2338 C2335 1.384 . S
N2339 C2331 1.427 . S
N2339 C2337 1.384 . S
H2340 C2346 0.930 . S
H2341 C2350 0.930 . S
H2342 C2355 0.929 . S
H2343 C2353 0.929 . S
H2344 C2348 0.929 . S
H2345 C2354 0.929 . S
C2346 H2340 0.930 . S
C2346 C2347 1.367 . S
C2346 C2354 1.378 . S
C2347 C2346 1.367 . S
C2347 C2355 1.433 . S
C2348 H2344 0.929 . S
C2348 C2350 1.378 . S
C2348 C2352 1.350 . S
C2349 C2352 1.463 . S
C2349 C2354 1.350 . S
C2349 N2357 1.427 . S
C2350 H2341 0.930 . S
C2350 C2348 1.378 . S
C2350 C2351 1.367 . S
C2351 C2350 1.367 . S
C2351 C2353 1.433 . S
C2352 C2348 1.350 . S
C2352 C2349 1.463 . S
C2352 N2356 1.427 . S
C2353 H2343 0.929 . S
C2353 C2351 1.433 . S
C2353 N2356 1.384 . S
C2354 H2345 0.929 . S
C2354 C2346 1.378 . S
C2354 C2349 1.350 . S
C2355 H2342 0.929 . S
C2355 C2347 1.433 . S
C2355 N2357 1.384 . S
N2356 C2352 1.427 . S
N2356 C2353 1.384 . S
N2357 C2349 1.427 . S
N2357 C2355 1.384 . S
H2358 C2364 0.930 . S
H2359 C2368 0.930 . S
H2360 C2373 0.929 . S
H2361 C2371 0.929 . S
H2362 C2366 0.929 . S
H2363 C2372 0.929 . S
C2364 H2358 0.930 . S
C2364 C2365 1.367 . S
C2364 C2372 1.378 . S
C2365 C2364 1.367 . S
C2365 C2373 1.433 . S
C2366 H2362 0.929 . S
C2366 C2368 1.378 . S
C2366 C2370 1.350 . S
C2367 C2370 1.463 . S
C2367 C2372 1.350 . S
C2367 N2375 1.427 . S
C2368 H2359 0.930 . S
C2368 C2366 1.378 . S
C2368 C2369 1.367 . S
C2369 C2368 1.367 . S
C2369 C2371 1.433 . S
C2370 C2366 1.350 . S
C2370 C2367 1.463 . S
C2370 N2374 1.427 . S
C2371 H2361 0.929 . S
C2371 C2369 1.433 . S
C2371 N2374 1.384 . S
C2372 H2363 0.929 . S
C2372 C2364 1.378 . S
C2372 C2367 1.350 . S
C2373 H2360 0.929 . S
C2373 C2365 1.433 . S
C2373 N2375 1.384 . S
N2374 C2370 1.427 . S
N2374 C2371 1.384 . S
N2375 C2367 1.427 . S
N2375 C2373 1.384 . S
H2376 C2382 0.930 . S
H2377 C2386 0.930 . S
H2378 C2391 0.929 . S
H2379 C2389 0.929 . S
H2380 C2384 0.929 . S
H2381 C2390 0.929 . S
C2382 H2376 0.930 . S
C2382 C2383 1.367 . S
C2382 C2390 1.378 . S
C2383 C2382 1.367 . S
C2383 C2391 1.433 . S
C2384 H2380 0.929 . S
C2384 C2386 1.378 . S
C2384 C2388 1.350 . S
C2385 C2388 1.463 . S
C2385 C2390 1.350 . S
C2385 N2393 1.427 . S
C2386 H2377 0.930 . S
C2386 C2384 1.378 . S
C2386 C2387 1.367 . S
C2387 C2386 1.367 . S
C2387 C2389 1.433 . S
C2388 C2384 1.350 . S
C2388 C2385 1.463 . S
C2388 N2392 1.427 . S
C2389 H2379 0.929 . S
C2389 C2387 1.433 . S
C2389 N2392 1.384 . S
C2390 H2381 0.929 . S
C2390 C2382 1.378 . S
C2390 C2385 1.350 . S
C2391 H2378 0.929 . S
C2391 C2383 1.433 . S
C2391 N2393 1.384 . S
N2392 C2388 1.427 . S
N2392 C2389 1.384 . S
N2393 C2385 1.427 . S
N2393 C2391 1.384 . S
H2394 C2400 0.930 . S
H2395 C2404 0.930 . S
H2396 C2409 0.929 . S
H2397 C2407 0.929 . S
H2398 C2402 0.929 . S
H2399 C2408 0.929 . S
C2400 H2394 0.930 . S
C2400 C2401 1.367 . S
C2400 C2408 1.378 . S
C2401 C2400 1.367 . S
C2401 C2409 1.433 . S
C2402 H2398 0.929 . S
C2402 C2404 1.378 . S
C2402 C2406 1.350 . S
C2403 C2406 1.463 . S
C2403 C2408 1.350 . S
C2403 N2411 1.427 . S
C2404 H2395 0.930 . S
C2404 C2402 1.378 . S
C2404 C2405 1.367 . S
C2405 C2404 1.367 . S
C2405 C2407 1.433 . S
C2406 C2402 1.350 . S
C2406 C2403 1.463 . S
C2406 N2410 1.427 . S
C2407 H2397 0.929 . S
C2407 C2405 1.433 . S
C2407 N2410 1.384 . S
C2408 H2399 0.929 . S
C2408 C2400 1.378 . S
C2408 C2403 1.350 . S
C2409 H2396 0.929 . S
C2409 C2401 1.433 . S
C2409 N2411 1.384 . S
N2410 C2406 1.427 . S
N2410 C2407 1.384 . S
N2411 C2403 1.427 . S
N2411 C2409 1.384 . S
H2412 C2418 0.930 . S
H2413 C2422 0.930 . S
H2414 C2427 0.929 . S
H2415 C2425 0.929 . S
H2416 C2420 0.929 . S
H2417 C2426 0.929 . S
C2418 H2412 0.930 . S
C2418 C2419 1.367 . S
C2418 C2426 1.378 1_554 S
C2419 C2418 1.367 . S
C2419 C2427 1.433 . S
C2420 H2416 0.929 . S
C2420 C2422 1.378 . S
C2420 C2424 1.350 . S
C2421 C2424 1.463 . S
C2421 C2426 1.350 . S
C2421 N2429 1.427 . S
C2422 H2413 0.930 . S
C2422 C2420 1.378 . S
C2422 C2423 1.367 . S
C2423 C2422 1.367 . S
C2423 C2425 1.433 . S
C2424 C2420 1.350 . S
C2424 C2421 1.463 . S
C2424 N2428 1.427 . S
C2425 H2415 0.929 . S
C2425 C2423 1.433 . S
C2425 N2428 1.384 . S
C2426 H2417 0.929 . S
C2426 C2418 1.378 1_556 S
C2426 C2421 1.350 . S
C2427 H2414 0.929 . S
C2427 C2419 1.433 . S
C2427 N2429 1.384 1_554 S
N2428 C2424 1.427 . S
N2428 C2425 1.384 . S
N2429 C2421 1.427 . S
N2429 C2427 1.384 1_556 S
H2430 C2436 0.930 . S
H2431 C2440 0.930 . S
H2432 C2445 0.929 . S
H2433 C2443 0.929 . S
H2434 C2438 0.929 . S
H2435 C2444 0.929 . S
C2436 H2430 0.930 . S
C2436 C2437 1.367 . S
C2436 C2444 1.378 1_554 S
C2437 C2436 1.367 . S
C2437 C2445 1.433 . S
C2438 H2434 0.929 . S
C2438 C2440 1.378 . S
C2438 C2442 1.350 . S
C2439 C2442 1.463 . S
C2439 C2444 1.350 . S
C2439 N2447 1.427 . S
C2440 H2431 0.930 . S
C2440 C2438 1.378 . S
C2440 C2441 1.367 . S
C2441 C2440 1.367 . S
C2441 C2443 1.433 . S
C2442 C2438 1.350 . S
C2442 C2439 1.463 . S
C2442 N2446 1.427 . S
C2443 H2433 0.929 . S
C2443 C2441 1.433 . S
C2443 N2446 1.384 . S
C2444 H2435 0.929 . S
C2444 C2436 1.378 1_556 S
C2444 C2439 1.350 . S
C2445 H2432 0.929 . S
C2445 C2437 1.433 . S
C2445 N2447 1.384 1_554 S
N2446 C2442 1.427 . S
N2446 C2443 1.384 . S
N2447 C2439 1.427 . S
N2447 C2445 1.384 1_556 S
H2448 C2454 0.930 . S
H2449 C2458 0.930 . S
H2450 C2463 0.929 . S
H2451 C2461 0.929 . S
H2452 C2456 0.929 . S
H2453 C2462 0.929 . S
C2454 H2448 0.930 . S
C2454 C2455 1.367 . S
C2454 C2462 1.378 . S
C2455 C2454 1.367 . S
C2455 C2463 1.433 . S
C2456 H2452 0.929 . S
C2456 C2458 1.378 1_556 S
C2456 C2460 1.350 . S
C2457 C2460 1.463 . S
C2457 C2462 1.350 . S
C2457 N2465 1.427 . S
C2458 H2449 0.930 . S
C2458 C2456 1.378 1_554 S
C2458 C2459 1.367 . S
C2459 C2458 1.367 . S
C2459 C2461 1.433 . S
C2460 C2456 1.350 . S
C2460 C2457 1.463 . S
C2460 N2464 1.427 . S
C2461 H2451 0.929 . S
C2461 C2459 1.433 . S
C2461 N2464 1.384 1_554 S
C2462 H2453 0.929 . S
C2462 C2454 1.378 . S
C2462 C2457 1.350 . S
C2463 H2450 0.929 . S
C2463 C2455 1.433 . S
C2463 N2465 1.384 . S
N2464 C2460 1.427 . S
N2464 C2461 1.384 1_556 S
N2465 C2457 1.427 . S
N2465 C2463 1.384 . S
H2466 C2472 0.930 . S
H2467 C2476 0.930 . S
H2468 C2481 0.929 . S
H2469 C2479 0.929 . S
H2470 C2474 0.929 . S
H2471 C2480 0.929 . S
C2472 H2466 0.930 . S
C2472 C2473 1.367 . S
C2472 C2480 1.378 . S
C2473 C2472 1.367 . S
C2473 C2481 1.433 . S
C2474 H2470 0.929 . S
C2474 C2476 1.378 . S
C2474 C2478 1.350 . S
C2475 C2478 1.463 . S
C2475 C2480 1.350 . S
C2475 N2483 1.427 . S
C2476 H2467 0.930 . S
C2476 C2474 1.378 . S
C2476 C2477 1.367 . S
C2477 C2476 1.367 . S
C2477 C2479 1.433 . S
C2478 C2474 1.350 . S
C2478 C2475 1.463 . S
C2478 N2482 1.427 . S
C2479 H2469 0.929 . S
C2479 C2477 1.433 . S
C2479 N2482 1.384 . S
C2480 H2471 0.929 . S
C2480 C2472 1.378 . S
C2480 C2475 1.350 . S
C2481 H2468 0.929 . S
C2481 C2473 1.433 . S
C2481 N2483 1.384 . S
N2482 C2478 1.427 . S
N2482 C2479 1.384 . S
N2483 C2475 1.427 . S
N2483 C2481 1.384 . S
H2484 C2490 0.930 . S
H2485 C2494 0.930 . S
H2486 C2499 0.929 . S
H2487 C2497 0.929 . S
H2488 C2492 0.929 . S
H2489 C2498 0.929 . S
C2490 H2484 0.930 . S
C2490 C2491 1.367 . S
C2490 C2498 1.378 . S
C2491 C2490 1.367 . S
C2491 C2499 1.433 . S
C2492 H2488 0.929 . S
C2492 C2494 1.378 . S
C2492 C2496 1.350 . S
C2493 C2496 1.463 . S
C2493 C2498 1.350 . S
C2493 N2501 1.427 . S
C2494 H2485 0.930 . S
C2494 C2492 1.378 . S
C2494 C2495 1.367 . S
C2495 C2494 1.367 . S
C2495 C2497 1.433 . S
C2496 C2492 1.350 . S
C2496 C2493 1.463 . S
C2496 N2500 1.427 . S
C2497 H2487 0.929 . S
C2497 C2495 1.433 . S
C2497 N2500 1.384 . S
C2498 H2489 0.929 . S
C2498 C2490 1.378 . S
C2498 C2493 1.350 . S
C2499 H2486 0.929 . S
C2499 C2491 1.433 . S
C2499 N2501 1.384 . S
N2500 C2496 1.427 . S
N2500 C2497 1.384 . S
N2501 C2493 1.427 . S
N2501 C2499 1.384 . S
H2502 C2508 0.930 . S
H2503 C2512 0.930 . S
H2504 C2517 0.929 . S
H2505 C2515 0.929 . S
H2506 C2510 0.929 . S
H2507 C2516 0.929 . S
C2508 H2502 0.930 . S
C2508 C2509 1.367 . S
C2508 C2516 1.378 . S
C2509 C2508 1.367 . S
C2509 C2517 1.433 . S
C2510 H2506 0.929 . S
C2510 C2512 1.378 . S
C2510 C2514 1.350 . S
C2511 C2514 1.463 . S
C2511 C2516 1.350 . S
C2511 N2519 1.427 . S
C2512 H2503 0.930 . S
C2512 C2510 1.378 . S
C2512 C2513 1.367 . S
C2513 C2512 1.367 . S
C2513 C2515 1.433 . S
C2514 C2510 1.350 . S
C2514 C2511 1.463 . S
C2514 N2518 1.427 . S
C2515 H2505 0.929 . S
C2515 C2513 1.433 . S
C2515 N2518 1.384 . S
C2516 H2507 0.929 . S
C2516 C2508 1.378 . S
C2516 C2511 1.350 . S
C2517 H2504 0.929 . S
C2517 C2509 1.433 . S
C2517 N2519 1.384 . S
N2518 C2514 1.427 . S
N2518 C2515 1.384 . S
N2519 C2511 1.427 . S
N2519 C2517 1.384 . S
H2520 C2526 0.930 . S
H2521 C2530 0.930 . S
H2522 C2535 0.929 . S
H2523 C2533 0.929 . S
H2524 C2528 0.929 . S
H2525 C2534 0.929 . S
C2526 H2520 0.930 . S
C2526 C2527 1.367 . S
C2526 C2534 1.378 . S
C2527 C2526 1.367 . S
C2527 C2535 1.433 . S
C2528 H2524 0.929 . S
C2528 C2530 1.378 . S
C2528 C2532 1.350 . S
C2529 C2532 1.463 . S
C2529 C2534 1.350 . S
C2529 N2537 1.427 . S
C2530 H2521 0.930 . S
C2530 C2528 1.378 . S
C2530 C2531 1.367 . S
C2531 C2530 1.367 . S
C2531 C2533 1.433 . S
C2532 C2528 1.350 . S
C2532 C2529 1.463 . S
C2532 N2536 1.427 . S
C2533 H2523 0.929 . S
C2533 C2531 1.433 . S
C2533 N2536 1.384 . S
C2534 H2525 0.929 . S
C2534 C2526 1.378 . S
C2534 C2529 1.350 . S
C2535 H2522 0.929 . S
C2535 C2527 1.433 . S
C2535 N2537 1.384 . S
N2536 C2532 1.427 . S
N2536 C2533 1.384 . S
N2537 C2529 1.427 . S
N2537 C2535 1.384 . S
H2538 C2544 0.930 . S
H2539 C2548 0.930 . S
H2540 C2553 0.929 . S
H2541 C2551 0.929 . S
H2542 C2546 0.929 . S
H2543 C2552 0.929 . S
C2544 H2538 0.930 . S
C2544 C2545 1.367 . S
C2544 C2552 1.378 . S
C2545 C2544 1.367 . S
C2545 C2553 1.433 . S
C2546 H2542 0.929 . S
C2546 C2548 1.378 . S
C2546 C2550 1.350 . S
C2547 C2550 1.463 . S
C2547 C2552 1.350 . S
C2547 N2555 1.427 . S
C2548 H2539 0.930 . S
C2548 C2546 1.378 . S
C2548 C2549 1.367 . S
C2549 C2548 1.367 . S
C2549 C2551 1.433 . S
C2550 C2546 1.350 . S
C2550 C2547 1.463 . S
C2550 N2554 1.427 . S
C2551 H2541 0.929 . S
C2551 C2549 1.433 . S
C2551 N2554 1.384 . S
C2552 H2543 0.929 . S
C2552 C2544 1.378 . S
C2552 C2547 1.350 . S
C2553 H2540 0.929 . S
C2553 C2545 1.433 . S
C2553 N2555 1.384 . S
N2554 C2550 1.427 . S
N2554 C2551 1.384 . S
N2555 C2547 1.427 . S
N2555 C2553 1.384 . S
H2556 C2562 0.930 . S
H2557 C2566 0.930 . S
H2558 C2571 0.929 . S
H2559 C2569 0.929 . S
H2560 C2564 0.929 . S
H2561 C2570 0.929 . S
C2562 H2556 0.930 . S
C2562 C2563 1.367 . S
C2562 C2570 1.378 . S
C2563 C2562 1.367 . S
C2563 C2571 1.433 . S
C2564 H2560 0.929 . S
C2564 C2566 1.378 . S
C2564 C2568 1.350 . S
C2565 C2568 1.463 . S
C2565 C2570 1.350 . S
C2565 N2573 1.427 . S
C2566 H2557 0.930 . S
C2566 C2564 1.378 . S
C2566 C2567 1.367 . S
C2567 C2566 1.367 . S
C2567 C2569 1.433 . S
C2568 C2564 1.350 . S
C2568 C2565 1.463 . S
C2568 N2572 1.427 . S
C2569 H2559 0.929 . S
C2569 C2567 1.433 . S
C2569 N2572 1.384 . S
C2570 H2561 0.929 . S
C2570 C2562 1.378 . S
C2570 C2565 1.350 . S
C2571 H2558 0.929 . S
C2571 C2563 1.433 . S
C2571 N2573 1.384 . S
N2572 C2568 1.427 . S
N2572 C2569 1.384 . S
N2573 C2565 1.427 . S
N2573 C2571 1.384 . S
H2574 C2580 0.930 . S
H2575 C2584 0.930 . S
H2576 C2589 0.929 . S
H2577 C2587 0.929 . S
H2578 C2582 0.929 . S
H2579 C2588 0.929 . S
C2580 H2574 0.930 . S
C2580 C2581 1.367 . S
C2580 C2588 1.378 1_554 S
C2581 C2580 1.367 . S
C2581 C2589 1.433 . S
C2582 H2578 0.929 . S
C2582 C2584 1.378 . S
C2582 C2586 1.350 . S
C2583 C2586 1.463 . S
C2583 C2588 1.350 . S
C2583 N2591 1.427 . S
C2584 H2575 0.930 . S
C2584 C2582 1.378 . S
C2584 C2585 1.367 . S
C2585 C2584 1.367 . S
C2585 C2587 1.433 . S
C2586 C2582 1.350 . S
C2586 C2583 1.463 . S
C2586 N2590 1.427 . S
C2587 H2577 0.929 . S
C2587 C2585 1.433 . S
C2587 N2590 1.384 . S
C2588 H2579 0.929 . S
C2588 C2580 1.378 1_556 S
C2588 C2583 1.350 . S
C2589 H2576 0.929 . S
C2589 C2581 1.433 . S
C2589 N2591 1.384 1_554 S
N2590 C2586 1.427 . S
N2590 C2587 1.384 . S
N2591 C2583 1.427 . S
N2591 C2589 1.384 1_556 S
H2592 C2598 0.930 . S
H2593 C2602 0.930 . S
H2594 C2607 0.929 . S
H2595 C2605 0.929 . S
H2596 C2600 0.929 . S
H2597 C2606 0.929 . S
C2598 H2592 0.930 . S
C2598 C2599 1.367 . S
C2598 C2606 1.378 1_554 S
C2599 C2598 1.367 . S
C2599 C2607 1.433 . S
C2600 H2596 0.929 . S
C2600 C2602 1.378 . S
C2600 C2604 1.350 . S
C2601 C2604 1.463 . S
C2601 C2606 1.350 . S
C2601 N2609 1.427 . S
C2602 H2593 0.930 . S
C2602 C2600 1.378 . S
C2602 C2603 1.367 . S
C2603 C2602 1.367 . S
C2603 C2605 1.433 . S
C2604 C2600 1.350 . S
C2604 C2601 1.463 . S
C2604 N2608 1.427 . S
C2605 H2595 0.929 . S
C2605 C2603 1.433 . S
C2605 N2608 1.384 . S
C2606 H2597 0.929 . S
C2606 C2598 1.378 1_556 S
C2606 C2601 1.350 . S
C2607 H2594 0.929 . S
C2607 C2599 1.433 . S
C2607 N2609 1.384 1_554 S
N2608 C2604 1.427 . S
N2608 C2605 1.384 . S
N2609 C2601 1.427 . S
N2609 C2607 1.384 1_556 S
H2610 C2616 0.930 . S
H2611 C2620 0.930 . S
H2612 C2625 0.929 . S
H2613 C2623 0.929 . S
H2614 C2618 0.929 . S
H2615 C2624 0.929 . S
C2616 H2610 0.930 . S
C2616 C2617 1.367 . S
C2616 C2624 1.378 1_554 S
C2617 C2616 1.367 . S
C2617 C2625 1.433 . S
C2618 H2614 0.929 . S
C2618 C2620 1.378 . S
C2618 C2622 1.350 . S
C2619 C2622 1.463 . S
C2619 C2624 1.350 . S
C2619 N2627 1.427 . S
C2620 H2611 0.930 . S
C2620 C2618 1.378 . S
C2620 C2621 1.367 . S
C2621 C2620 1.367 . S
C2621 C2623 1.433 . S
C2622 C2618 1.350 . S
C2622 C2619 1.463 . S
C2622 N2626 1.427 . S
C2623 H2613 0.929 . S
C2623 C2621 1.433 . S
C2623 N2626 1.384 . S
C2624 H2615 0.929 . S
C2624 C2616 1.378 1_556 S
C2624 C2619 1.350 . S
C2625 H2612 0.929 . S
C2625 C2617 1.433 . S
C2625 N2627 1.384 1_554 S
N2626 C2622 1.427 . S
N2626 C2623 1.384 . S
N2627 C2619 1.427 . S
N2627 C2625 1.384 1_556 S
H2628 C2634 0.930 . S
H2629 C2638 0.930 . S
H2630 C2643 0.929 . S
H2631 C2641 0.929 . S
H2632 C2636 0.929 . S
H2633 C2642 0.929 . S
C2634 H2628 0.930 . S
C2634 C2635 1.367 . S
C2634 C2642 1.378 . S
C2635 C2634 1.367 . S
C2635 C2643 1.433 . S
C2636 H2632 0.929 . S
C2636 C2638 1.378 . S
C2636 C2640 1.350 . S
C2637 C2640 1.463 . S
C2637 C2642 1.350 . S
C2637 N2645 1.427 . S
C2638 H2629 0.930 . S
C2638 C2636 1.378 . S
C2638 C2639 1.367 . S
C2639 C2638 1.367 . S
C2639 C2641 1.433 . S
C2640 C2636 1.350 . S
C2640 C2637 1.463 . S
C2640 N2644 1.427 . S
C2641 H2631 0.929 . S
C2641 C2639 1.433 . S
C2641 N2644 1.384 . S
C2642 H2633 0.929 . S
C2642 C2634 1.378 . S
C2642 C2637 1.350 . S
C2643 H2630 0.929 . S
C2643 C2635 1.433 . S
C2643 N2645 1.384 . S
N2644 C2640 1.427 . S
N2644 C2641 1.384 . S
N2645 C2637 1.427 . S
N2645 C2643 1.384 . S
H2646 C2652 0.930 . S
H2647 C2656 0.930 . S
H2648 C2661 0.929 . S
H2649 C2659 0.929 . S
H2650 C2654 0.929 . S
H2651 C2660 0.929 . S
C2652 H2646 0.930 . S
C2652 C2653 1.367 . S
C2652 C2660 1.378 . S
C2653 C2652 1.367 . S
C2653 C2661 1.433 . S
C2654 H2650 0.929 . S
C2654 C2656 1.378 . S
C2654 C2658 1.350 . S
C2655 C2658 1.463 . S
C2655 C2660 1.350 . S
C2655 N2663 1.427 . S
C2656 H2647 0.930 . S
C2656 C2654 1.378 . S
C2656 C2657 1.367 . S
C2657 C2656 1.367 . S
C2657 C2659 1.433 . S
C2658 C2654 1.350 . S
C2658 C2655 1.463 . S
C2658 N2662 1.427 . S
C2659 H2649 0.929 . S
C2659 C2657 1.433 . S
C2659 N2662 1.384 . S
C2660 H2651 0.929 . S
C2660 C2652 1.378 . S
C2660 C2655 1.350 . S
C2661 H2648 0.929 . S
C2661 C2653 1.433 . S
C2661 N2663 1.384 . S
N2662 C2658 1.427 . S
N2662 C2659 1.384 . S
N2663 C2655 1.427 . S
N2663 C2661 1.384 . S
H2664 C2670 0.930 . S
H2665 C2674 0.930 . S
H2666 C2679 0.929 . S
H2667 C2677 0.929 . S
H2668 C2672 0.929 . S
H2669 C2678 0.929 . S
C2670 H2664 0.930 . S
C2670 C2671 1.367 . S
C2670 C2678 1.378 . S
C2671 C2670 1.367 . S
C2671 C2679 1.433 . S
C2672 H2668 0.929 . S
C2672 C2674 1.378 . S
C2672 C2676 1.350 . S
C2673 C2676 1.463 . S
C2673 C2678 1.350 . S
C2673 N2681 1.427 . S
C2674 H2665 0.930 . S
C2674 C2672 1.378 . S
C2674 C2675 1.367 . S
C2675 C2674 1.367 . S
C2675 C2677 1.433 . S
C2676 C2672 1.350 . S
C2676 C2673 1.463 . S
C2676 N2680 1.427 . S
C2677 H2667 0.929 . S
C2677 C2675 1.433 . S
C2677 N2680 1.384 . S
C2678 H2669 0.929 . S
C2678 C2670 1.378 . S
C2678 C2673 1.350 . S
C2679 H2666 0.929 . S
C2679 C2671 1.433 . S
C2679 N2681 1.384 . S
N2680 C2676 1.427 . S
N2680 C2677 1.384 . S
N2681 C2673 1.427 . S
N2681 C2679 1.384 . S
H2682 C2688 0.930 . S
H2683 C2692 0.930 . S
H2684 C2697 0.929 . S
H2685 C2695 0.929 . S
H2686 C2690 0.929 . S
H2687 C2696 0.929 . S
C2688 H2682 0.930 . S
C2688 C2689 1.367 . S
C2688 C2696 1.378 . S
C2689 C2688 1.367 . S
C2689 C2697 1.433 . S
C2690 H2686 0.929 . S
C2690 C2692 1.378 1_554 S
C2690 C2694 1.350 . S
C2691 C2694 1.463 . S
C2691 C2696 1.350 . S
C2691 N2699 1.427 . S
C2692 H2683 0.930 . S
C2692 C2690 1.378 1_556 S
C2692 C2693 1.367 . S
C2693 C2692 1.367 . S
C2693 C2695 1.433 . S
C2694 C2690 1.350 . S
C2694 C2691 1.463 . S
C2694 N2698 1.427 . S
C2695 H2685 0.929 . S
C2695 C2693 1.433 . S
C2695 N2698 1.384 1_556 S
C2696 H2687 0.929 . S
C2696 C2688 1.378 . S
C2696 C2691 1.350 . S
C2697 H2684 0.929 . S
C2697 C2689 1.433 . S
C2697 N2699 1.384 . S
N2698 C2694 1.427 . S
N2698 C2695 1.384 1_554 S
N2699 C2691 1.427 . S
N2699 C2697 1.384 . S
H2700 C2706 0.930 . S
H2701 C2710 0.930 . S
H2702 C2715 0.929 . S
H2703 C2713 0.929 . S
H2704 C2708 0.929 . S
H2705 C2714 0.929 . S
C2706 H2700 0.930 . S
C2706 C2707 1.367 . S
C2706 C2714 1.378 . S
C2707 C2706 1.367 . S
C2707 C2715 1.433 . S
C2708 H2704 0.929 . S
C2708 C2710 1.378 1_554 S
C2708 C2712 1.350 . S
C2709 C2712 1.463 . S
C2709 C2714 1.350 . S
C2709 N2717 1.427 . S
C2710 H2701 0.930 . S
C2710 C2708 1.378 1_556 S
C2710 C2711 1.367 . S
C2711 C2710 1.367 . S
C2711 C2713 1.433 . S
C2712 C2708 1.350 . S
C2712 C2709 1.463 . S
C2712 N2716 1.427 . S
C2713 H2703 0.929 . S
C2713 C2711 1.433 . S
C2713 N2716 1.384 1_556 S
C2714 H2705 0.929 . S
C2714 C2706 1.378 . S
C2714 C2709 1.350 . S
C2715 H2702 0.929 . S
C2715 C2707 1.433 . S
C2715 N2717 1.384 . S
N2716 C2712 1.427 . S
N2716 C2713 1.384 1_554 S
N2717 C2709 1.427 . S
N2717 C2715 1.384 . S
H2718 C2724 0.930 . S
H2719 C2728 0.930 . S
H2720 C2733 0.929 . S
H2721 C2731 0.929 . S
H2722 C2726 0.929 . S
H2723 C2732 0.929 . S
C2724 H2718 0.930 . S
C2724 C2725 1.367 . S
C2724 C2732 1.378 . S
C2725 C2724 1.367 . S
C2725 C2733 1.433 . S
C2726 H2722 0.929 . S
C2726 C2728 1.378 1_554 S
C2726 C2730 1.350 . S
C2727 C2730 1.463 . S
C2727 C2732 1.350 . S
C2727 N2735 1.427 . S
C2728 H2719 0.930 . S
C2728 C2726 1.378 1_556 S
C2728 C2729 1.367 . S
C2729 C2728 1.367 . S
C2729 C2731 1.433 . S
C2730 C2726 1.350 . S
C2730 C2727 1.463 . S
C2730 N2734 1.427 . S
C2731 H2721 0.929 . S
C2731 C2729 1.433 . S
C2731 N2734 1.384 1_556 S
C2732 H2723 0.929 . S
C2732 C2724 1.378 . S
C2732 C2727 1.350 . S
C2733 H2720 0.929 . S
C2733 C2725 1.433 . S
C2733 N2735 1.384 . S
N2734 C2730 1.427 . S
N2734 C2731 1.384 1_554 S
N2735 C2727 1.427 . S
N2735 C2733 1.384 . S
H2736 C2742 0.930 . S
H2737 C2746 0.930 . S
H2738 C2751 0.929 . S
H2739 C2749 0.929 . S
H2740 C2744 0.929 . S
H2741 C2750 0.929 . S
C2742 H2736 0.930 . S
C2742 C2743 1.367 . S
C2742 C2750 1.378 . S
C2743 C2742 1.367 . S
C2743 C2751 1.433 . S
C2744 H2740 0.929 . S
C2744 C2746 1.378 1_554 S
C2744 C2748 1.350 . S
C2745 C2748 1.463 . S
C2745 C2750 1.350 . S
C2745 N2753 1.427 . S
C2746 H2737 0.930 . S
C2746 C2744 1.378 1_556 S
C2746 C2747 1.367 . S
C2747 C2746 1.367 . S
C2747 C2749 1.433 . S
C2748 C2744 1.350 . S
C2748 C2745 1.463 . S
C2748 N2752 1.427 . S
C2749 H2739 0.929 . S
C2749 C2747 1.433 . S
C2749 N2752 1.384 1_556 S
C2750 H2741 0.929 . S
C2750 C2742 1.378 . S
C2750 C2745 1.350 . S
C2751 H2738 0.929 . S
C2751 C2743 1.433 . S
C2751 N2753 1.384 . S
N2752 C2748 1.427 . S
N2752 C2749 1.384 1_554 S
N2753 C2745 1.427 . S
N2753 C2751 1.384 . S
H2754 C2760 0.930 . S
H2755 C2764 0.930 . S
H2756 C2769 0.929 . S
H2757 C2767 0.929 . S
H2758 C2762 0.929 . S
H2759 C2768 0.929 . S
C2760 H2754 0.930 . S
C2760 C2761 1.367 . S
C2760 C2768 1.378 . S
C2761 C2760 1.367 . S
C2761 C2769 1.433 . S
C2762 H2758 0.929 . S
C2762 C2764 1.378 1_554 S
C2762 C2766 1.350 . S
C2763 C2766 1.463 . S
C2763 C2768 1.350 . S
C2763 N2771 1.427 . S
C2764 H2755 0.930 . S
C2764 C2762 1.378 1_556 S
C2764 C2765 1.367 . S
C2765 C2764 1.367 . S
C2765 C2767 1.433 . S
C2766 C2762 1.350 . S
C2766 C2763 1.463 . S
C2766 N2770 1.427 . S
C2767 H2757 0.929 . S
C2767 C2765 1.433 . S
C2767 N2770 1.384 1_556 S
C2768 H2759 0.929 . S
C2768 C2760 1.378 . S
C2768 C2763 1.350 . S
C2769 H2756 0.929 . S
C2769 C2761 1.433 . S
C2769 N2771 1.384 . S
N2770 C2766 1.427 . S
N2770 C2767 1.384 1_554 S
N2771 C2763 1.427 . S
N2771 C2769 1.384 . S
H2772 C2778 0.930 . S
H2773 C2782 0.930 . S
H2774 C2787 0.929 . S
H2775 C2785 0.929 . S
H2776 C2780 0.929 . S
H2777 C2786 0.929 . S
C2778 H2772 0.930 . S
C2778 C2779 1.367 . S
C2778 C2786 1.378 1_556 S
C2779 C2778 1.367 . S
C2779 C2787 1.433 . S
C2780 H2776 0.929 . S
C2780 C2782 1.378 . S
C2780 C2784 1.350 . S
C2781 C2784 1.463 . S
C2781 C2786 1.350 . S
C2781 N2789 1.427 . S
C2782 H2773 0.930 . S
C2782 C2780 1.378 . S
C2782 C2783 1.367 . S
C2783 C2782 1.367 . S
C2783 C2785 1.433 . S
C2784 C2780 1.350 . S
C2784 C2781 1.463 . S
C2784 N2788 1.427 . S
C2785 H2775 0.929 . S
C2785 C2783 1.433 . S
C2785 N2788 1.384 . S
C2786 H2777 0.929 . S
C2786 C2778 1.378 1_554 S
C2786 C2781 1.350 . S
C2787 H2774 0.929 . S
C2787 C2779 1.433 . S
C2787 N2789 1.384 1_556 S
N2788 C2784 1.427 . S
N2788 C2785 1.384 . S
N2789 C2781 1.427 . S
N2789 C2787 1.384 1_554 S
H2790 C2796 0.930 . S
H2791 C2800 0.930 . S
H2792 C2805 0.929 . S
H2793 C2803 0.929 . S
H2794 C2798 0.929 . S
H2795 C2804 0.929 . S
C2796 H2790 0.930 . S
C2796 C2797 1.367 . S
C2796 C2804 1.378 . S
C2797 C2796 1.367 . S
C2797 C2805 1.433 . S
C2798 H2794 0.929 . S
C2798 C2800 1.378 . S
C2798 C2802 1.350 . S
C2799 C2802 1.463 . S
C2799 C2804 1.350 . S
C2799 N2807 1.427 . S
C2800 H2791 0.930 . S
C2800 C2798 1.378 . S
C2800 C2801 1.367 . S
C2801 C2800 1.367 . S
C2801 C2803 1.433 . S
C2802 C2798 1.350 . S
C2802 C2799 1.463 . S
C2802 N2806 1.427 . S
C2803 H2793 0.929 . S
C2803 C2801 1.433 . S
C2803 N2806 1.384 . S
C2804 H2795 0.929 . S
C2804 C2796 1.378 . S
C2804 C2799 1.350 . S
C2805 H2792 0.929 . S
C2805 C2797 1.433 . S
C2805 N2807 1.384 . S
N2806 C2802 1.427 . S
N2806 C2803 1.384 . S
N2807 C2799 1.427 . S
N2807 C2805 1.384 . S
H2808 C2814 0.930 . S
H2809 C2818 0.930 . S
H2810 C2823 0.929 . S
H2811 C2821 0.929 . S
H2812 C2816 0.929 . S
H2813 C2822 0.929 . S
C2814 H2808 0.930 . S
C2814 C2815 1.367 . S
C2814 C2822 1.378 . S
C2815 C2814 1.367 . S
C2815 C2823 1.433 . S
C2816 H2812 0.929 . S
C2816 C2818 1.378 . S
C2816 C2820 1.350 . S
C2817 C2820 1.463 . S
C2817 C2822 1.350 . S
C2817 N2825 1.427 . S
C2818 H2809 0.930 . S
C2818 C2816 1.378 . S
C2818 C2819 1.367 . S
C2819 C2818 1.367 . S
C2819 C2821 1.433 . S
C2820 C2816 1.350 . S
C2820 C2817 1.463 . S
C2820 N2824 1.427 . S
C2821 H2811 0.929 . S
C2821 C2819 1.433 . S
C2821 N2824 1.384 . S
C2822 H2813 0.929 . S
C2822 C2814 1.378 . S
C2822 C2817 1.350 . S
C2823 H2810 0.929 . S
C2823 C2815 1.433 . S
C2823 N2825 1.384 . S
N2824 C2820 1.427 . S
N2824 C2821 1.384 . S
N2825 C2817 1.427 . S
N2825 C2823 1.384 . S
H2826 C2832 0.930 . S
H2827 C2836 0.930 . S
H2828 C2841 0.929 . S
H2829 C2839 0.929 . S
H2830 C2834 0.929 . S
H2831 C2840 0.929 . S
C2832 H2826 0.930 . S
C2832 C2833 1.367 . S
C2832 C2840 1.378 . S
C2833 C2832 1.367 . S
C2833 C2841 1.433 . S
C2834 H2830 0.929 . S
C2834 C2836 1.378 . S
C2834 C2838 1.350 . S
C2835 C2838 1.463 . S
C2835 C2840 1.350 . S
C2835 N2843 1.427 . S
C2836 H2827 0.930 . S
C2836 C2834 1.378 . S
C2836 C2837 1.367 . S
C2837 C2836 1.367 . S
C2837 C2839 1.433 . S
C2838 C2834 1.350 . S
C2838 C2835 1.463 . S
C2838 N2842 1.427 . S
C2839 H2829 0.929 . S
C2839 C2837 1.433 . S
C2839 N2842 1.384 . S
C2840 H2831 0.929 . S
C2840 C2832 1.378 . S
C2840 C2835 1.350 . S
C2841 H2828 0.929 . S
C2841 C2833 1.433 . S
C2841 N2843 1.384 . S
N2842 C2838 1.427 . S
N2842 C2839 1.384 . S
N2843 C2835 1.427 . S
N2843 C2841 1.384 . S
C1231 C20 1.606 . S
C1235 C530 1.606 . S
C1249 C564 1.599 . S
C1253 C54 1.600 . S
C1267 C88 1.606 . S
C1271 C598 1.605 . S
C1285 C836 1.606 . S
C1289 C122 1.606 . S
C1303 C870 1.599 . S
C1307 C156 1.599 . S
C1321 C190 1.606 . S
C1325 C904 1.607 . S
C1339 C224 1.599 . S
C1343 C1142 1.598 . S
C1357 C1176 1.606 . S
C1361 C258 1.607 . S
C1375 C292 1.604 . S
C1379 C1210 1.603 . S
C1393 C632 1.605 . S
C1397 C326 1.603 . S
C1411 C360 1.599 . S
C1415 C666 1.599 . S
C1429 C700 1.606 . S
C1433 C394 1.607 . S
C1447 C428 1.606 . S
C1451 C938 1.606 . S
C1465 C462 1.599 . S
C1469 C972 1.601 . S
C1483 C1006 1.607 . S
C1487 C496 1.606 . S
C1501 C1040 1.606 . S
C1505 C734 1.606 . S
C1519 C1074 1.601 . S
C1523 C768 1.600 . S
C1537 C802 1.604 . S
C1541 C1108 1.606 . S
C1555 C2 1.540 . S
C1559 C376 1.539 . S
C1573 C36 1.540 . S
C1577 C308 1.539 . S
C1591 C70 1.540 . S
C1595 C342 1.540 . S
C1609 C240 1.539 . S
C1613 C104 1.541 . S
C1627 C274 1.541 . S
C1631 C138 1.539 . S
C1645 C172 1.538 . S
C1649 C206 1.541 . S
C1663 C410 1.539 . S
C1667 C784 1.541 . S
C1681 C716 1.539 . S
C1685 C444 1.541 . S
C1699 C478 1.540 . S
C1703 C750 1.540 . S
C1717 C512 1.541 . S
C1721 C648 1.539 . S
C1735 C546 1.540 . S
C1739 C682 1.541 . S
C1753 C580 1.538 . S
C1757 C614 1.541 . S
C1771 C818 1.539 . S
C1775 C1192 1.541 . S
C1789 C1124 1.540 . S
C1793 C852 1.539 . S
C1807 C1158 1.539 . S
C1811 C886 1.541 . S
C1825 C1056 1.541 . S
C1829 C920 1.538 . S
C1843 C954 1.541 . S
C1847 C1090 1.539 . S
C1861 C988 1.539 . S
C1865 C1022 1.541 . S
C1879 C1019 1.529 . S
C1883 C33 1.532 . S
C1897 C67 1.536 . S
C1901 C951 1.534 . S
C1915 C101 1.534 . S
C1919 C985 1.532 . S
C1933 C475 1.532 . S
C1937 C135 1.529 . S
C1951 C169 1.536 . S
C1955 C509 1.536 . S
C1969 C203 1.527 . S
C1973 C441 1.527 . S
C1987 C815 1.528 . S
C1991 C237 1.530 . S
C2005 C271 1.527 . S
C2009 C747 1.529 . S
C2023 C781 1.529 . S
C2027 C305 1.532 . S
C2041 C1087 1.530 . S
C2045 C339 1.528 . S
C2059 C1121 1.536 . S
C2063 C373 1.535 . S
C2077 C1053 1.528 . S
C2081 C407 1.527 . S
C2095 C543 1.527 . S
C2099 C883 1.528 . S
C2113 C917 1.536 . S
C2117 C577 1.536 . S
C2131 C611 1.527 . S
C2135 C849 1.528 . S
C2149 C645 1.527 . S
C2153 C1223 1.526 . S
C2167 C679 1.533 . S
C2171 C1155 1.535 . S
C2185 C713 1.527 . S
C2189 C1189 1.528 . S
C2203 C9 1.089 . S
C2207 C5 1.099 . S
C2221 C43 1.088 . S
C2225 C39 1.099 . S
C2239 C77 1.077 . S
C2243 C73 1.099 . S
C2257 C107 1.096 . S
C2261 C111 1.091 . S
C2275 C145 1.087 . S
C2279 C141 1.099 . S
C2293 C175 1.089 . S
C2297 C179 1.086 . S
C2311 C213 1.083 . S
C2315 C209 1.089 . S
C2329 C243 1.091 . S
C2333 C247 1.077 . S
C2347 C277 1.098 . S
C2351 C281 1.090 . S
C2365 C315 1.083 . S
C2369 C311 1.100 . S
C2383 C349 1.074 . S
C2387 C345 1.095 . S
C2401 C379 1.100 . S
C2405 C383 1.081 . S
C2419 C413 1.091 . S
C2423 C417 1.090 . S
C2437 C447 1.100 . S
C2441 C451 1.081 . S
C2455 C485 1.089 . S
C2459 C481 1.099 . S
C2473 C515 1.098 . S
C2477 C519 1.089 1_556 S
C2491 C549 1.089 . S
C2495 C553 1.085 1_556 S
C2509 C587 1.085 1_556 S
C2513 C583 1.100 . S
C2527 C617 1.099 . S
C2531 C621 1.087 1_556 S
C2545 C655 1.091 1_556 S
C2549 C651 1.093 . S
C2563 C689 1.074 1_556 S
C2567 C685 1.094 . S
C2581 C719 1.092 . S
C2585 C723 1.090 . S
C2599 C753 1.096 . S
C2603 C757 1.091 . S
C2617 C787 1.100 . S
C2621 C791 1.087 . S
C2635 C821 1.090 . S
C2639 C825 1.089 1_554 S
C2653 C855 1.100 . S
C2657 C859 1.083 1_554 S
C2671 C893 1.089 1_554 S
C2675 C889 1.091 . S
C2689 C927 1.090 . S
C2693 C923 1.091 . S
C2707 C961 1.075 . S
C2711 C957 1.094 . S
C2725 C995 1.085 . S
C2729 C991 1.100 . S
C2743 C1029 1.075 . S
C2747 C1025 1.095 . S
C2761 C1063 1.081 . S
C2765 C1059 1.100 . S
C2779 C1093 1.091 . S
C2783 C1097 1.089 . S
C2797 C1131 1.090 1_554 S
C2801 C1127 1.098 . S
C2815 C1165 1.085 1_554 S
C2819 C1161 1.089 . S
C2833 C1195 1.089 . S
C2837 C1199 1.083 1_554 S
