# Generated by pormake.
# Topology snw, (6)-cn, num edge types: 1
# Building blocks:
#     Node 0, Type 0, BuildingBlock: MIDCAF_clean_sbu_0, # of connection points: 6
#     Node 1, Type 0, BuildingBlock: MIDCAF_clean_sbu_0, # of connection points: 6
#     Node 2, Type 0, BuildingBlock: MIDCAF_clean_sbu_0, # of connection points: 6
#     Node 3, Type 0, BuildingBlock: MIDCAF_clean_sbu_0, # of connection points: 6
#     Node 4, Type 0, BuildingBlock: MIDCAF_clean_sbu_0, # of connection points: 6
#     Node 5, Type 0, BuildingBlock: MIDCAF_clean_sbu_0, # of connection points: 6
#     Node 6, Type 0, BuildingBlock: MIDCAF_clean_sbu_0, # of connection points: 6
#     Node 7, Type 0, BuildingBlock: MIDCAF_clean_sbu_0, # of connection points: 6
#     Edge 8, Type (0, 0), BuildingBlock: XIVTED_clean_linker_0, # of connection points: 2
#     Edge 9, Type (0, 0), BuildingBlock: XIVTED_clean_linker_0, # of connection points: 2
#     Edge 10, Type (0, 0), BuildingBlock: XIVTED_clean_linker_0, # of connection points: 2
#     Edge 11, Type (0, 0), BuildingBlock: XIVTED_clean_linker_0, # of connection points: 2
#     Edge 12, Type (0, 0), BuildingBlock: XIVTED_clean_linker_0, # of connection points: 2
#     Edge 13, Type (0, 0), BuildingBlock: XIVTED_clean_linker_0, # of connection points: 2
#     Edge 14, Type (0, 0), BuildingBlock: XIVTED_clean_linker_0, # of connection points: 2
#     Edge 15, Type (0, 0), BuildingBlock: XIVTED_clean_linker_0, # of connection points: 2
#     Edge 16, Type (0, 0), BuildingBlock: XIVTED_clean_linker_0, # of connection points: 2
#     Edge 17, Type (0, 0), BuildingBlock: XIVTED_clean_linker_0, # of connection points: 2
#     Edge 18, Type (0, 0), BuildingBlock: XIVTED_clean_linker_0, # of connection points: 2
#     Edge 19, Type (0, 0), BuildingBlock: XIVTED_clean_linker_0, # of connection points: 2
#     Edge 20, Type (0, 0), BuildingBlock: XIVTED_clean_linker_0, # of connection points: 2
#     Edge 21, Type (0, 0), BuildingBlock: XIVTED_clean_linker_0, # of connection points: 2
#     Edge 22, Type (0, 0), BuildingBlock: XIVTED_clean_linker_0, # of connection points: 2
#     Edge 23, Type (0, 0), BuildingBlock: XIVTED_clean_linker_0, # of connection points: 2
#     Edge 24, Type (0, 0), BuildingBlock: XIVTED_clean_linker_0, # of connection points: 2
#     Edge 25, Type (0, 0), BuildingBlock: XIVTED_clean_linker_0, # of connection points: 2
#     Edge 26, Type (0, 0), BuildingBlock: XIVTED_clean_linker_0, # of connection points: 2
#     Edge 27, Type (0, 0), BuildingBlock: XIVTED_clean_linker_0, # of connection points: 2
#     Edge 28, Type (0, 0), BuildingBlock: XIVTED_clean_linker_0, # of connection points: 2
#     Edge 29, Type (0, 0), BuildingBlock: XIVTED_clean_linker_0, # of connection points: 2
#     Edge 30, Type (0, 0), BuildingBlock: XIVTED_clean_linker_0, # of connection points: 2
#     Edge 31, Type (0, 0), BuildingBlock: XIVTED_clean_linker_0, # of connection points: 2
# Relax obj value: 0.252
# Max RMSD: 0.249
# Mean RMSD: 0.249
data_MOF--net-snw--node1-MIDCAF_clean_sbu_0--edge1-XIVTED_clean_linker_0
_symmetry_space_group_name_H-M    P1
_symmetry_Int_Tables_number       1
_symmetry_cell_setting            triclinic
loop_
_symmetry_equiv_pos_as_xyz
'x, y, z'
_cell_length_a     18.782937
_cell_length_b     18.797321
_cell_length_c     79.811152
_cell_angle_alpha  90.478831
_cell_angle_beta   89.656189
_cell_angle_gamma 89.856315
loop_
_atom_site_label
_atom_site_type_symbol
_atom_site_fract_x
_atom_site_fract_y
_atom_site_fract_z
_atom_type_partial_charge
Zn0 Zn 1.00015 0.3848 0.05796 0.0
Zn1 Zn 0.04049 0.15065 0.03428 0.0
Zn2 Zn 0.01585 0.27581 0.04527 0.0
C3 C 0.90648 0.14635 0.04923 0.0
C4 C 0.15186 0.17192 0.05453 0.0
O5 O 0.01927 0.35833 0.02539 0.0
O6 O 0.05737 0.44265 0.04235 0.0
C7 C 0.87047 0.3363 0.06027 0.0
O8 O 0.92346 0.21126 0.05251 0.0
O9 O 0.94861 0.10665 0.04103 0.0
O10 O 0.1293 0.12268 0.04519 0.0
O11 O 0.11652 0.23066 0.05598 0.0
O12 O 0.89545 0.39678 0.05702 0.0
O13 O 0.91065 0.28096 0.05856 0.0
O14 O 0.10238 0.29846 0.06326 0.0
O15 O 0.04285 0.36998 0.0803 0.0
C16 C 0.09818 0.3342 0.07709 0.0
O17 O 0.01785 0.28743 0.01752 0.0
O18 O 0.04929 0.1771 0.01096 0.0
C19 C 0.04481 0.4213 0.02767 0.0
C20 C 0.03377 0.23934 0.00652 0.0
Zn21 Zn 0.14064 0.75562 0.30962 0.0
Zn22 Zn 0.88736 0.73497 0.29039 0.0
Zn23 Zn 0.01883 0.75175 0.29785 0.0
C24 C 0.89722 0.86793 0.3056 0.0
C25 C 0.9091 0.62169 0.30926 0.0
O26 O 0.0911 0.75263 0.27561 0.0
O27 O 0.19068 0.72693 0.28888 0.0
C28 C 0.08834 0.88472 0.31796 0.0
O29 O 0.96174 0.8463 0.30757 0.0
O30 O 0.85283 0.82959 0.29792 0.0
O31 O 0.85634 0.64888 0.30202 0.0
O32 O 0.97039 0.65259 0.30865 0.0
O33 O 0.14857 0.85582 0.31639 0.0
O34 O 0.03206 0.85206 0.31287 0.0
O35 O 0.04261 0.65569 0.31283 0.0
O36 O 0.13745 0.68461 0.32763 0.0
C37 C 0.0887 0.64107 0.32421 0.0
O38 O 0.01729 0.75294 0.26991 0.0
O39 O 0.9042 0.72345 0.2666 0.0
C40 C 0.15799 0.73683 0.27534 0.0
C41 C 0.96429 0.7374 0.26038 0.0
Zn42 Zn 0.48917 0.63739 0.56048 0.0
Zn43 Zn 0.47486 0.89451 0.56155 0.0
Zn44 Zn 0.48556 0.76704 0.55871 0.0
C45 C 0.57173 0.85891 0.58489 0.0
C46 C 0.34279 0.85812 0.56798 0.0
O47 O 0.49155 0.73144 0.53221 0.0
O48 O 0.45802 0.62105 0.5373 0.0
C49 C 0.61781 0.67237 0.57205 0.0
O50 O 0.57161 0.80353 0.57529 0.0
O51 O 0.52469 0.90625 0.58325 0.0
O52 O 0.37051 0.91227 0.56144 0.0
O53 O 0.37998 0.80071 0.56936 0.0
O54 O 0.59059 0.61858 0.5651 0.0
O55 O 0.58338 0.73182 0.57234 0.0
O56 O 0.38736 0.72769 0.57066 0.0
O57 O 0.41818 0.61943 0.57844 0.0
C58 C 0.37387 0.66988 0.57858 0.0
O59 O 0.49881 0.80865 0.53302 0.0
O60 O 0.52901 0.91705 0.54106 0.0
C61 C 0.47187 0.66959 0.52699 0.0
C62 C 0.52316 0.87088 0.52961 0.0
Zn63 Zn 0.62413 0.20148 0.8226 0.0
Zn64 Zn 0.37282 0.20047 0.81096 0.0
Zn65 Zn 0.50373 0.20759 0.81392 0.0
C66 C 0.39427 0.29749 0.83595 0.0
C67 C 0.40268 0.06762 0.81825 0.0
O68 O 0.56703 0.21505 0.79065 0.0
O69 O 0.65919 0.15899 0.80128 0.0
C70 C 0.58892 0.3355 0.83044 0.0
O71 O 0.45659 0.29372 0.82921 0.0
O72 O 0.34631 0.25431 0.83166 0.0
O73 O 0.35246 0.09657 0.81041 0.0
O74 O 0.45937 0.10332 0.82159 0.0
O75 O 0.64503 0.30367 0.82594 0.0
O76 O 0.52844 0.30416 0.82897 0.0
O77 O 0.52868 0.10834 0.82718 0.0
O78 O 0.62101 0.13895 0.84258 0.0
C79 C 0.57337 0.09451 0.83889 0.0
O80 O 0.48846 0.2216 0.78691 0.0
O81 O 0.37495 0.2512 0.78941 0.0
C82 C 0.62846 0.1853 0.78875 0.0
C83 C 0.43055 0.24548 0.78053 0.0
Zn84 Zn 0.97798 0.6303 0.91979 0.0
Zn85 Zn 0.99924 0.85752 0.88383 0.0
Zn86 Zn 0.99757 0.75239 0.90449 0.0
C87 C 0.86901 0.80357 0.87985 0.0
C88 C 0.11564 0.78021 0.87523 0.0
O89 O 1.00368 0.78235 0.93122 0.0
O90 O 0.973 0.67767 0.9415 0.0
C91 C 0.86511 0.63476 0.90017 0.0
O92 O 0.89625 0.76227 0.8909 0.0
O93 O 0.90468 0.85383 0.87377 0.0
O94 O 0.0787 0.8302 0.86947 0.0
O95 O 0.09546 0.74688 0.88849 0.0
O96 O 0.88869 0.59136 0.91073 0.0
O97 O 0.89888 0.69322 0.89724 0.0
O98 O 0.0881 0.68336 0.89778 0.0
O99 O 0.07036 0.58669 0.9129 0.0
C100 C 0.10791 0.6212 0.90262 0.0
O101 O 1.00392 0.84674 0.92119 0.0
O102 O 0.01662 0.92924 0.90176 0.0
C103 C 0.98893 0.74221 0.94373 0.0
C104 C 0.01327 0.91221 0.91703 0.0
Zn105 Zn 0.64866 0.73989 0.134 0.0
Zn106 Zn 0.39821 0.77695 0.14692 0.0
Zn107 Zn 0.5297 0.7583 0.14192 0.0
C108 C 0.40805 0.64111 0.13476 0.0
C109 C 0.43026 0.88602 0.12672 0.0
O110 O 0.59533 0.76676 0.16504 0.0
O111 O 0.69408 0.79648 0.15188 0.0
C112 C 0.60108 0.61078 0.12981 0.0
O113 O 0.47304 0.66195 0.13342 0.0
O114 O 0.36129 0.68171 0.14103 0.0
O115 O 0.37526 0.8592 0.13317 0.0
O116 O 0.4915 0.85605 0.12864 0.0
O117 O 0.6595 0.63495 0.13501 0.0
O118 O 0.54567 0.65149 0.12982 0.0
O119 O 0.56205 0.84112 0.12385 0.0
O120 O 0.64947 0.78248 0.11138 0.0
C121 C 0.60819 0.83542 0.11189 0.0
O122 O 0.51957 0.76953 0.16974 0.0
O123 O 0.40537 0.79827 0.1706 0.0
C124 C 0.66019 0.78916 0.16542 0.0
C125 C 0.46338 0.78821 0.17804 0.0
Zn126 Zn 0.49516 0.1265 0.39712 0.0
Zn127 Zn 0.50087 0.38232 0.39318 0.0
Zn128 Zn 0.50079 0.25547 0.39772 0.0
C129 C 0.39138 0.34131 0.37482 0.0
C130 C 0.63312 0.34841 0.384 0.0
O131 O 0.51024 0.22371 0.42421 0.0
O132 O 0.54567 0.11411 0.41849 0.0
C133 C 0.36275 0.15758 0.38918 0.0
O134 O 0.4035 0.28834 0.38452 0.0
O135 O 0.43611 0.39094 0.37367 0.0
O136 O 0.60315 0.40317 0.38994 0.0
O137 O 0.60004 0.28841 0.38417 0.0
O138 O 0.39124 0.10596 0.3966 0.0
O139 O 0.39816 0.21561 0.38722 0.0
O140 O 0.59057 0.21632 0.38224 0.0
O141 O 0.55012 0.109 0.37619 0.0
C142 C 0.59497 0.15774 0.37383 0.0
O143 O 0.50106 0.30122 0.42335 0.0
O144 O 0.46039 0.40592 0.41541 0.0
C145 C 0.53592 0.16371 0.42899 0.0
C146 C 0.47571 0.36323 0.42696 0.0
Zn147 Zn 0.11862 0.25166 0.64814 0.0
Zn148 Zn 0.86634 0.28396 0.66564 0.0
Zn149 Zn 0.99595 0.26188 0.65832 0.0
C150 C 0.87394 0.14764 0.65182 0.0
C151 C 0.8907 0.3926 0.64554 0.0
O152 O 0.06431 0.2633 0.68096 0.0
O153 O 0.16574 0.28929 0.66834 0.0
C154 C 0.06616 0.12288 0.64078 0.0
O155 O 0.93839 0.16794 0.64916 0.0
O156 O 0.8308 0.18774 0.6596 0.0
O157 O 0.83686 0.3666 0.65267 0.0
O158 O 0.95178 0.36137 0.64665 0.0
O159 O 0.12656 0.14852 0.64391 0.0
O160 O 0.00958 0.15974 0.64395 0.0
O161 O 0.02394 0.3537 0.6425 0.0
O162 O 0.11811 0.31479 0.62844 0.0
C163 C 0.07136 0.36194 0.63094 0.0
O164 O 0.99008 0.26309 0.68626 0.0
O165 O 0.88011 0.30343 0.68927 0.0
C166 C 0.13052 0.28095 0.68167 0.0
C167 C 0.93821 0.28463 0.69568 0.0
H168 H 0.9442 0.44683 0.00408 0.0
H169 H 0.1167 0.76287 0.95868 0.0
H170 H 0.14579 0.52225 0.02257 0.0
H171 H 0.8921 0.75751 0.96896 0.0
H172 H 0.13673 0.68198 -0.01796 0.0
H173 H 0.93158 0.55714 -0.0119 0.0
C174 C 0.98678 0.48561 0.00433 0.0
C175 C 0.04647 0.47531 0.01443 0.0
C176 C 0.08319 0.70052 -0.02043 0.0
C177 C 0.03152 0.60198 -0.00326 0.0
C178 C 0.07181 0.74858 0.96654 0.0
C179 C 1.00211 0.76233 0.96119 0.0
C180 C 0.0241 0.6691 -0.01262 0.0
C181 C 0.94654 0.74477 0.97221 0.0
C182 C 0.9788 0.54918 -0.00441 0.0
C183 C 0.09932 0.52817 0.01473 0.0
N184 N 0.95787 0.69497 -0.01585 0.0
N185 N 0.0909 0.58925 0.00593 0.0
H186 H 0.65877 0.69665 0.19151 0.0
H187 H 0.97688 0.8586 0.24236 0.0
H188 H 0.76145 0.8863 0.17349 0.0
H189 H 0.9421 0.63313 0.2377 0.0
H190 H 0.8995 0.87761 0.21812 0.0
H191 H 0.7546 0.68256 0.21201 0.0
C192 C 0.70012 0.73662 0.19228 0.0
C193 C 0.70214 0.79293 0.18093 0.0
C194 C 0.91084 0.82379 0.22207 0.0
C195 C 0.81262 0.77614 0.20386 0.0
C196 C 0.95662 0.81277 0.2356 0.0
C197 C 0.96525 0.74421 0.24211 0.0
C198 C 0.87354 0.76573 0.21528 0.0
C199 C 0.93654 0.68684 0.23307 0.0
C200 C 0.7556 0.72773 0.20368 0.0
C201 C 0.75796 0.8424 0.18216 0.0
N202 N 0.88972 0.69894 0.22051 0.0
N203 N 0.81114 0.83293 0.19341 0.0
H204 H 0.58666 0.64586 0.50698 0.0
H205 H 0.35805 0.4123 0.44273 0.0
H206 H 0.3578 0.63541 0.50826 0.0
H207 H 0.58437 0.38717 0.44865 0.0
H208 H 0.35661 0.49829 0.46585 0.0
H209 H 0.58763 0.56266 0.48309 0.0
C210 C 0.53653 0.62871 0.50167 0.0
C211 C 0.47196 0.64851 0.50928 0.0
C212 C 0.40649 0.47302 0.46238 0.0
C213 C 0.47256 0.55084 0.48269 0.0
C214 C 0.40702 0.42295 0.4494 0.0
C215 C 0.47112 0.39156 0.44411 0.0
C216 C 0.4709 0.49311 0.46988 0.0
C217 C 0.53363 0.40893 0.45271 0.0
C218 C 0.5371 0.57987 0.48834 0.0
C219 C 0.40852 0.62253 0.50245 0.0
N220 N 0.53219 0.45938 0.46506 0.0
N221 N 0.41038 0.57457 0.48963 0.0
H222 H 0.63153 0.29852 0.76754 0.0
H223 H 0.95654 0.16147 0.71263 0.0
H224 H 0.72897 0.09444 0.77644 0.0
H225 H 0.90482 0.38317 0.71926 0.0
H226 H 0.87931 0.1332 0.7365 0.0
H227 H 0.72823 0.32619 0.7479 0.0
C228 C 0.67205 0.25873 0.76496 0.0
C229 C 0.67213 0.19401 0.77351 0.0
C230 C 0.88668 0.18834 0.73308 0.0
C231 C 0.78402 0.22601 0.7516 0.0
C232 C 0.93235 0.20465 0.71974 0.0
C233 C 0.93607 0.27462 0.71386 0.0
C234 C 0.84485 0.2426 0.74038 0.0
C235 C 0.90277 0.32844 0.72337 0.0
C236 C 0.72812 0.2751 0.75407 0.0
C237 C 0.72693 0.14489 0.77 0.0
N238 N 0.8565 0.31117 0.7358 0.0
N239 N 0.78077 0.16189 0.75934 0.0
H240 H 0.42219 0.36787 0.76286 0.0
H241 H 0.12658 0.18732 0.70765 0.0
H242 H 0.40325 0.14029 0.75862 0.0
H243 H 0.22848 0.3792 0.69071 0.0
H244 H 0.21615 0.1779 0.72991 0.0
H245 H 0.34679 0.38062 0.73802 0.0
C246 C 0.40523 0.32059 0.75614 0.0
C247 C 0.42005 0.25292 0.7625 0.0
C248 C 0.21826 0.22241 0.72139 0.0
C249 C 0.3297 0.26704 0.73512 0.0
C250 C 0.16649 0.22849 0.70895 0.0
C251 C 0.17017 0.28432 0.69749 0.0
C252 C 0.2729 0.27327 0.72247 0.0
C253 C 0.22386 0.33558 0.69943 0.0
C254 C 0.36101 0.32785 0.74223 0.0
C255 C 0.39427 0.19327 0.75382 0.0
N256 N 0.27313 0.32899 0.71171 0.0
N257 N 0.34872 0.20167 0.74082 0.0
H258 H 0.48356 0.67729 0.19917 0.0
H259 H 0.15092 0.82987 0.24915 0.0
H260 H 0.42081 0.89754 0.19769 0.0
H261 H 0.26756 0.64867 0.26732 0.0
H262 H 0.24416 0.84781 0.22786 0.0
H263 H 0.40731 0.66138 0.22394 0.0
C264 C 0.45705 0.72326 0.20465 0.0
C265 C 0.45828 0.78879 0.19639 0.0
C266 C 0.24896 0.80379 0.23645 0.0
C267 C 0.36776 0.7701 0.22387 0.0
C268 C 0.19508 0.79278 0.24834 0.0
C269 C 0.20155 0.73759 0.2599 0.0
C270 C 0.30895 0.75865 0.23603 0.0
C271 C 0.26066 0.69178 0.25856 0.0
C272 C 0.41202 0.71377 0.2185 0.0
C273 C 0.42134 0.8462 0.20376 0.0
N274 N 0.31209 0.70325 0.24685 0.0
N275 N 0.3758 0.83509 0.21674 0.0
H276 H 0.43017 0.15978 0.45216 0.0
H277 H 0.64569 0.91691 0.51548 0.0
H278 H 0.65296 0.11411 0.44469 0.0
H279 H 0.42148 0.89157 0.50632 0.0
H280 H 0.65295 1.00014 0.49202 0.0
H281 H 0.42936 0.07986 0.47635 0.0
C282 C 0.47964 0.13561 0.45613 0.0
C283 C 0.54197 0.14407 0.44665 0.0
C284 C 0.6025 0.97514 0.4949 0.0
C285 C 0.54092 0.0509 0.47368 0.0
C286 C 0.59866 0.92672 0.50803 0.0
C287 C 0.53331 0.89611 0.51245 0.0
C288 C 0.53999 0.99468 0.48655 0.0
C289 C 0.47317 0.91264 0.50294 0.0
C290 C 0.47878 0.0887 0.46963 0.0
C291 C 0.60418 0.10962 0.4519 0.0
N292 N 0.47765 0.96183 0.49058 0.0
N293 N 0.60207 0.06407 0.46502 0.0
H294 H 0.13217 0.25641 -0.01819 0.0
H295 H 0.93848 0.92682 0.94653 0.0
H296 H 0.90826 0.22713 -0.00914 0.0
H297 H 0.09372 0.03157 0.91534 0.0
H298 H 0.93377 0.03356 0.96461 0.0
H299 H 0.12377 0.17967 0.95698 0.0
C300 C 0.08024 0.23764 -0.02205 0.0
C301 C 0.02106 0.24702 -0.01145 0.0
C302 C 0.96866 0.03299 0.95375 0.0
C303 C 0.01204 0.1557 0.96099 0.0
C304 C 0.97227 0.97178 0.94366 0.0
C305 C 0.01684 0.97041 0.92954 0.0
C306 C 0.01112 0.09228 0.94986 0.0
C307 C 0.05878 0.03058 0.92618 0.0
C308 C 0.07584 0.19219 0.96403 0.0
C309 C 0.95529 0.22065 -0.01694 0.0
N310 N 0.05551 0.08882 0.93635 0.0
N311 N 0.95302 0.17318 0.97013 0.0
H312 H 0.46861 0.90691 0.09405 0.0
H313 H 0.16958 0.19949 0.08777 0.0
H314 H 0.36658 0.00827 0.13644 0.0
H315 H 0.27418 0.10561 0.0448 0.0
H316 H 0.26375 0.1539 0.10562 0.0
H317 H 0.42229 1.00085 0.07594 0.0
C318 C 0.43896 0.95065 0.09962 0.0
C319 C 0.42136 0.95041 0.11668 0.0
C320 C 0.26748 0.1448 0.09223 0.0
C321 C 0.36581 0.05592 0.09613 0.0
C322 C 0.21423 0.17214 0.08201 0.0
C323 C 0.21505 0.15764 0.06479 0.0
C324 C 0.32063 0.10063 0.08522 0.0
C325 C 0.27191 0.11796 0.05807 0.0
C326 C 0.41174 0.00381 0.08928 0.0
C327 C 0.38095 0.00682 0.12328 0.0
N328 N 0.3219 0.08984 0.06833 0.0
N329 N 0.3536 0.05674 0.11296 0.0
H330 H 0.12922 0.01596 0.30796 0.0
H331 H 0.24852 0.08249 0.4005 0.0
H332 H 0.04839 0.90054 0.35032 0.0
H333 H 0.32342 0.20318 0.3583 0.0
H334 H 0.14873 0.04002 0.38365 0.0
H335 H 0.17094 0.10965 0.32694 0.0
C336 C 0.11725 0.01223 0.32122 0.0
C337 C 0.08489 0.95118 0.32764 0.0
C338 C 0.1857 0.07749 0.37819 0.0
C339 C 0.13574 0.05558 0.34951 0.0
C340 C 0.24261 0.10171 0.38782 0.0
C341 C 0.29403 0.14643 0.38076 0.0
C342 C 0.18141 0.09662 0.36123 0.0
C343 C 0.2842 0.16977 0.3643 0.0
C344 C 0.14175 0.06523 0.3321 0.0
C345 C 0.07227 0.94753 0.34492 0.0
N346 N 0.22986 0.14344 0.35497 0.0
N347 N 0.09911 0.99825 0.35531 0.0
H348 H 0.11235 0.99233 0.65017 0.0
H349 H 0.22781 0.93309 0.55724 0.0
H350 H 0.0243 0.10684 0.60864 0.0
H351 H 0.30143 0.80453 0.5981 0.0
H352 H 0.1274 0.9728 0.57455 0.0
H353 H 0.15368 0.89941 0.63078 0.0
C354 C 0.09883 0.99603 0.63702 0.0
C355 C 0.06436 0.05662 0.63095 0.0
C356 C 0.16417 0.93421 0.57962 0.0
C357 C 0.11459 0.95296 0.60858 0.0
C358 C 0.22142 0.91149 0.5697 0.0
C359 C 0.27291 0.86573 0.57631 0.0
C360 C 0.15973 0.91266 0.59642 0.0
C361 C 0.26237 0.83918 0.59249 0.0
C362 C 0.12298 0.94339 0.62591 0.0
C363 C 0.04962 0.06014 0.6138 0.0
N364 N 0.20788 0.86436 0.60215 0.0
N365 N 0.0762 0.00984 0.60315 0.0
H366 H 0.14299 0.74131 0.84317 0.0
H367 H 0.42807 0.02866 0.85019 0.0
H368 H 0.2452 0.79913 0.88941 0.0
H369 H 0.34782 0.94902 0.80323 0.0
H370 H 0.39262 0.91849 0.86366 0.0
H371 H 0.24722 0.78175 0.82767 0.0
C372 C 0.1891 0.75952 0.85007 0.0
C373 C 0.18547 0.76872 0.86747 0.0
C374 C 0.3845 0.92377 0.85031 0.0
C375 C 0.30255 0.81923 0.84992 0.0
C376 C 0.40538 0.98656 0.84259 0.0
C377 C 0.39174 0.99713 0.82558 0.0
C378 C 0.3465 0.87264 0.84108 0.0
C379 C 0.35908 0.94259 0.81643 0.0
C380 C 0.24841 0.78337 0.84123 0.0
C381 C 0.24608 0.79224 0.87592 0.0
N382 N 0.33639 0.88307 0.82436 0.0
N383 N 0.30146 0.81928 0.86702 0.0
H384 H 0.75382 0.80591 0.90048 0.0
H385 H 0.5605 0.96663 0.8233 0.0
H386 H 0.81601 0.78787 0.84859 0.0
H387 H 0.58785 0.06385 0.87193 0.0
H388 H 0.59196 0.85106 0.83521 0.0
H389 H 0.63447 0.84335 0.89174 0.0
C390 C 0.74106 0.80651 0.88726 0.0
C391 C 0.79444 0.79697 0.87515 0.0
C392 C 0.58801 0.8972 0.8434 0.0
C393 C 0.65997 0.83842 0.86521 0.0
C394 C 0.57092 0.96301 0.83661 0.0
C395 C 0.57423 0.02438 0.84664 0.0
C396 C 0.60941 0.89372 0.86019 0.0
C397 C 0.58702 0.01753 0.86377 0.0
C398 C 0.67317 0.82748 0.8823 0.0
C399 C 0.77614 0.79743 0.85822 0.0
N400 N 0.60552 0.95327 0.87 0.0
N401 N 0.7104 0.81938 0.85369 0.0
H402 H 0.77603 0.06058 0.66597 0.0
H403 H 0.7156 0.8474 0.58065 0.0
H404 H 0.90934 0.08253 0.62225 0.0
H405 H 0.55313 0.89749 0.61726 0.0
H406 H 0.80609 0.89421 0.6 0.0
H407 H 0.71477 0.96144 0.65233 0.0
C408 C 0.79359 0.04321 0.65364 0.0
C409 C 0.84766 0.07958 0.64513 0.0
C410 C 0.7508 0.8931 0.60393 0.0
C411 C 0.77759 0.96719 0.62944 0.0
C412 C 0.69948 0.86633 0.59296 0.0
C413 C 0.6273 0.86993 0.59741 0.0
C414 C 0.72916 0.92266 0.61937 0.0
C415 C 0.60844 0.89486 0.61339 0.0
C416 C 0.75879 0.98668 0.64589 0.0
C417 C 0.86889 0.05485 0.62928 0.0
N418 N 0.65905 0.92098 0.62376 0.0
N419 N 0.8329 1.0008 0.62176 0.0
H420 H 0.80359 0.96023 0.29196 0.0
H421 H 0.73863 0.16591 0.37843 0.0
H422 H 0.93144 0.9273 0.33584 0.0
H423 H 0.57857 0.1205 0.34143 0.0
H424 H 0.83009 0.11758 0.35915 0.0
H425 H 0.74312 0.05882 0.30629 0.0
C426 C 0.82016 0.97511 0.30449 0.0
C427 C 0.87238 0.93582 0.31282 0.0
C428 C 0.77517 0.12009 0.35513 0.0
C429 C 0.80306 0.0475 0.32931 0.0
C430 C 0.72333 0.14775 0.36605 0.0
C431 C 0.65153 0.14594 0.36144 0.0
C432 C 0.75439 0.09184 0.33956 0.0
C433 C 0.6336 0.12186 0.3454 0.0
C434 C 0.78579 0.03129 0.31263 0.0
C435 C 0.89238 0.95729 0.32896 0.0
N436 N 0.68468 0.09517 0.33506 0.0
N437 N 0.85671 0.01109 0.33686 0.0
H438 H 0.60007 0.97883 0.11738 0.0
H439 H 0.8242 0.04626 0.03408 0.0
H440 H 0.64355 0.8213 0.07908 0.0
H441 H 0.83851 0.17535 0.07873 0.0
H442 H 0.72335 0.98311 0.04647 0.0
H443 H 0.65072 0.07045 0.09908 0.0
C444 C 0.61824 0.96407 0.10492 0.0
C445 C 0.6192 0.89263 0.09976 0.0
C446 C 0.74737 0.02655 0.0534 0.0
C447 C 0.677 0.99602 0.079 0.0
C448 C 0.80496 0.06234 0.04637 0.0
C449 C 0.83926 0.11622 0.05546 0.0
C450 C 0.72469 0.0442 0.0697 0.0
C451 C 0.81221 0.13544 0.07123 0.0
C452 C 0.6474 0.0161 0.09455 0.0
C453 C 0.64317 0.87585 0.08356 0.0
N454 N 0.75705 0.09872 0.07801 0.0
N455 N 0.67205 0.92705 0.07382 0.0
H456 H 0.93296 0.41254 0.61318 0.0
H457 H 0.64884 0.72139 0.60343 0.0
H458 H 0.82117 0.514 0.65418 0.0
H459 H 0.73397 0.59563 0.56259 0.0
H460 H 0.74222 0.67506 0.62164 0.0
H461 H 0.89174 0.50668 0.59452 0.0
C462 C 0.90219 0.45632 0.61837 0.0
C463 C 0.88078 0.45615 0.63519 0.0
C464 C 0.74183 0.65918 0.60856 0.0
C465 C 0.83085 0.56202 0.61392 0.0
C466 C 0.6891 0.68647 0.59812 0.0
C467 C 0.68395 0.66223 0.58153 0.0
C468 C 0.78886 0.60674 0.60235 0.0
C469 C 0.73606 0.61513 0.57538 0.0
C470 C 0.87784 0.50955 0.6077 0.0
C471 C 0.83852 0.51243 0.64122 0.0
N472 N 0.78569 0.58799 0.58586 0.0
N473 N 0.81409 0.56264 0.63054 0.0
H474 H 0.84664 0.65749 0.86699 0.0
H475 H 0.53526 0.37568 0.86094 0.0
H476 H 0.74579 0.56261 0.90996 0.0
H477 H 0.66279 0.44902 0.81953 0.0
H478 H 0.58279 0.47273 0.87835 0.0
H479 H 0.75213 0.61115 0.84927 0.0
C480 C 0.80317 0.62878 0.87277 0.0
C481 C 0.80322 0.61476 0.88996 0.0
C482 C 0.59862 0.4689 0.8653 0.0
C483 C 0.69688 0.55788 0.86964 0.0
C484 C 0.57095 0.41409 0.85535 0.0
C485 C 0.59605 0.40448 0.83892 0.0
C486 C 0.65144 0.51364 0.85864 0.0
C487 C 0.6429 0.45466 0.83224 0.0
C488 C 0.74957 0.6016 0.86263 0.0
C489 C 0.74742 0.57451 0.89671 0.0
N490 N 0.66997 0.50649 0.8422 0.0
N491 N 0.69683 0.54657 0.88649 0.0
H492 H 0.55474 0.58301 0.09843 0.0
H493 H 0.84396 0.28761 0.0915 0.0
H494 H 0.6572 0.48572 0.14057 0.0
H495 H 0.74406 0.388 0.04941 0.0
H496 H 0.74495 0.32578 0.10935 0.0
H497 H 0.58956 0.48179 0.08091 0.0
C498 C 0.58102 0.53826 0.10421 0.0
C499 C 0.60189 0.54183 0.121 0.0
C500 C 0.74299 0.33722 0.09608 0.0
C501 C 0.64696 0.42831 0.10079 0.0
C502 C 0.79902 0.31414 0.08582 0.0
C503 C 0.80142 0.33387 0.06894 0.0
C504 C 0.6905 0.3823 0.08949 0.0
C505 C 0.74369 0.37154 0.06238 0.0
C506 C 0.60229 0.48097 0.09412 0.0
C507 C 0.63993 0.48455 0.12765 0.0
N508 N 0.69126 0.3959 0.07274 0.0
N509 N 0.6625 0.43074 0.11744 0.0
H510 H 0.84057 0.50032 0.30032 0.0
H511 H 0.74746 0.42533 0.3939 0.0
H512 H 0.94656 0.60185 0.34177 0.0
H513 H 0.66941 0.29683 0.35305 0.0
H514 H 0.84099 0.47106 0.3756 0.0
H515 H 0.79719 0.40809 0.31924 0.0
C516 C 0.85639 0.5018 0.31335 0.0
C517 C 0.89746 0.55817 0.31954 0.0
C518 C 0.80486 0.43132 0.37069 0.0
C519 C 0.8465 0.45444 0.34136 0.0
C520 C 0.75167 0.40501 0.38118 0.0
C521 C 0.70074 0.35763 0.3749 0.0
C522 C 0.80559 0.41174 0.35367 0.0
C523 C 0.7081 0.33299 0.35837 0.0
C524 C 0.8317 0.44923 0.32415 0.0
C525 C 0.91615 0.55837 0.33649 0.0
N526 N 0.75847 0.36173 0.34817 0.0
N527 N 0.88942 0.50802 0.34689 0.0
H528 H 0.25971 0.33634 0.38884 0.0
H529 H 0.09344 0.51366 0.30817 0.0
H530 H 0.36913 0.36385 0.34174 0.0
H531 H 0.09353 0.61007 0.35732 0.0
H532 H 0.14221 0.40404 0.3202 0.0
H533 H 0.14977 0.38125 0.37599 0.0
C534 C 0.25963 0.34919 0.37563 0.0
C535 C 0.32306 0.34828 0.36631 0.0
C536 C 0.12811 0.44811 0.32842 0.0
C537 C 0.19874 0.39682 0.35164 0.0
C538 C 0.10042 0.51037 0.3216 0.0
C539 C 0.09129 0.57066 0.33182 0.0
C540 C 0.14492 0.44662 0.34551 0.0
C541 C 0.10128 0.56457 0.3491 0.0
C542 C 0.19719 0.37434 0.36834 0.0
C543 C 0.32108 0.36525 0.34931 0.0
N544 N 0.1287 0.50373 0.35542 0.0
N545 N 0.25985 0.38975 0.34251 0.0
H546 H 0.09876 0.34882 0.11095 0.0
H547 H 0.43564 0.58223 0.10426 0.0
H548 H 0.23767 0.34249 0.06778 0.0
H549 H 0.32632 0.54446 0.15084 0.0
H550 H 0.38103 0.47549 0.09234 0.0
H551 H 0.19565 0.39762 0.12761 0.0
C552 C 0.15045 0.35616 0.10512 0.0
C553 C 0.1602 0.34337 0.08797 0.0
C554 C 0.37067 0.48897 0.10535 0.0
C555 C 0.27044 0.40141 0.10669 0.0
C556 C 0.40275 0.54935 0.11218 0.0
C557 C 0.38621 0.571 0.12854 0.0
C558 C 0.32011 0.45161 0.11488 0.0
C559 C 0.33997 0.52927 0.1381 0.0
C560 C 0.20583 0.38404 0.11461 0.0
C561 C 0.2281 0.35272 0.08098 0.0
N562 N 0.30761 0.47209 0.13105 0.0
N563 N 0.28033 0.38319 0.09027 0.0
H564 H 0.19676 0.52598 0.91744 0.0
H565 H 0.41692 0.44028 0.83392 0.0
H566 H 0.15811 0.63186 0.87071 0.0
H567 H 0.33232 0.27793 0.86619 0.0
H568 H 0.36599 0.53176 0.85282 0.0
H569 H 0.28983 0.45446 0.90355 0.0
C570 C 0.20957 0.53595 0.90442 0.0
C571 C 0.17126 0.58651 0.89527 0.0
C572 C 0.36042 0.47604 0.85591 0.0
C573 C 0.27747 0.50615 0.87955 0.0
C574 C 0.38934 0.4242 0.84523 0.0
C575 C 0.37751 0.35214 0.84853 0.0
C576 C 0.32131 0.45495 0.87006 0.0
C577 C 0.34152 0.33329 0.86323 0.0
C578 C 0.2626 0.49546 0.89657 0.0
C579 C 0.18914 0.59673 0.87841 0.0
N580 N 0.31422 0.38453 0.87347 0.0
N581 N 0.24084 0.55662 0.87102 0.0
H582 H 0.0889 0.37996 0.5975 0.0
H583 H 0.34908 0.65561 0.61181 0.0
H584 H 0.07029 0.49523 0.64422 0.0
H585 H 0.24496 0.65798 0.56389 0.0
H586 H 0.24051 0.60767 0.62449 0.0
H587 H 0.13397 0.48756 0.58413 0.0
C588 C 0.09231 0.42878 0.60477 0.0
C589 C 0.07735 0.42914 0.62195 0.0
C590 C 0.24039 0.62115 0.61132 0.0
C591 C 0.1309 0.5507 0.60705 0.0
C592 C 0.30233 0.64793 0.60411 0.0
C593 C 0.30527 0.65966 0.58686 0.0
C594 C 0.18288 0.603 0.60098 0.0
C595 C 0.24406 0.64896 0.57727 0.0
C596 C 0.11753 0.49017 0.59716 0.0
C597 C 0.08213 0.49328 0.63093 0.0
N598 N 0.1857 0.61876 0.58436 0.0
N599 N 0.1112 0.55122 0.6235 0.0
loop_
_geom_bond_atom_site_label_1
_geom_bond_atom_site_label_2
_geom_bond_distance
_geom_bond_site_symmetry_2
_ccdc_geom_bond_type
Zn0 O6 1.920 . S
Zn0 O12 1.898 1_455 S
Zn0 O15 1.905 . S
Zn1 O9 1.905 . S
Zn1 O10 1.898 1_655 S
Zn1 O18 1.920 . S
Zn2 O5 2.080 . S
Zn2 O8 2.114 1_455 S
Zn2 O11 2.120 . S
Zn2 O13 2.120 1_455 S
Zn2 O14 2.114 . S
Zn2 O17 2.080 1_455 S
C3 O8 1.166 . S
C3 O9 1.182 . S
C4 O10 1.167 . S
C4 O11 1.299 . S
O5 Zn2 2.080 . S
O5 C19 1.305 . S
O6 Zn0 1.920 . S
O6 C19 1.234 . S
C7 O12 1.167 . S
C7 O13 1.299 . S
O8 Zn2 2.114 1_655 S
O8 C3 1.166 . S
O9 Zn1 1.905 . S
O9 C3 1.182 . S
O10 Zn1 1.898 1_455 S
O10 C4 1.167 . S
O11 Zn2 2.120 . S
O11 C4 1.299 . S
O12 Zn0 1.898 1_655 S
O12 C7 1.167 . S
O13 Zn2 2.120 1_655 S
O13 C7 1.299 . S
O14 Zn2 2.114 . S
O14 C16 1.166 . S
O15 Zn0 1.905 . S
O15 C16 1.182 . S
C16 O14 1.166 . S
C16 O15 1.182 . S
O17 Zn2 2.080 1_655 S
O17 C20 1.305 . S
O18 Zn1 1.920 . S
O18 C20 1.234 . S
C19 O5 1.305 . S
C19 O6 1.234 . S
C20 O17 1.305 . S
C20 O18 1.234 . S
Zn21 O27 1.920 . S
Zn21 O33 1.898 . S
Zn21 O36 1.905 . S
Zn22 O30 1.905 . S
Zn22 O31 1.898 . S
Zn22 O39 1.920 . S
Zn23 O26 2.080 . S
Zn23 O29 2.114 1_455 S
Zn23 O32 2.120 1_455 S
Zn23 O34 2.120 . S
Zn23 O35 2.114 . S
Zn23 O38 2.080 1_455 S
C24 O29 1.166 . S
C24 O30 1.182 . S
C25 O31 1.167 . S
C25 O32 1.299 . S
O26 Zn23 2.080 . S
O26 C40 1.305 . S
O27 Zn21 1.920 . S
O27 C40 1.234 . S
C28 O33 1.167 . S
C28 O34 1.299 . S
O29 Zn23 2.114 1_655 S
O29 C24 1.166 . S
O30 Zn22 1.905 . S
O30 C24 1.182 . S
O31 Zn22 1.898 . S
O31 C25 1.167 . S
O32 Zn23 2.120 1_655 S
O32 C25 1.299 . S
O33 Zn21 1.898 . S
O33 C28 1.167 . S
O34 Zn23 2.120 . S
O34 C28 1.299 . S
O35 Zn23 2.114 . S
O35 C37 1.166 . S
O36 Zn21 1.905 . S
O36 C37 1.182 . S
C37 O35 1.166 . S
C37 O36 1.182 . S
O38 Zn23 2.080 1_655 S
O38 C41 1.305 . S
O39 Zn22 1.920 . S
O39 C41 1.234 . S
C40 O26 1.305 . S
C40 O27 1.234 . S
C41 O38 1.305 . S
C41 O39 1.234 . S
Zn42 O48 1.920 . S
Zn42 O54 1.898 . S
Zn42 O57 1.905 . S
Zn43 O51 1.905 . S
Zn43 O52 1.898 . S
Zn43 O60 1.920 . S
Zn44 O47 2.080 . S
Zn44 O50 2.114 . S
Zn44 O53 2.120 . S
Zn44 O55 2.120 . S
Zn44 O56 2.114 . S
Zn44 O59 2.080 . S
C45 O50 1.166 . S
C45 O51 1.182 . S
C46 O52 1.167 . S
C46 O53 1.299 . S
O47 Zn44 2.080 . S
O47 C61 1.305 . S
O48 Zn42 1.920 . S
O48 C61 1.234 . S
C49 O54 1.167 . S
C49 O55 1.299 . S
O50 Zn44 2.114 . S
O50 C45 1.166 . S
O51 Zn43 1.905 . S
O51 C45 1.182 . S
O52 Zn43 1.898 . S
O52 C46 1.167 . S
O53 Zn44 2.120 . S
O53 C46 1.299 . S
O54 Zn42 1.898 . S
O54 C49 1.167 . S
O55 Zn44 2.120 . S
O55 C49 1.299 . S
O56 Zn44 2.114 . S
O56 C58 1.166 . S
O57 Zn42 1.905 . S
O57 C58 1.182 . S
C58 O56 1.166 . S
C58 O57 1.182 . S
O59 Zn44 2.080 . S
O59 C62 1.305 . S
O60 Zn43 1.920 . S
O60 C62 1.234 . S
C61 O47 1.305 . S
C61 O48 1.234 . S
C62 O59 1.305 . S
C62 O60 1.234 . S
Zn63 O69 1.920 . S
Zn63 O75 1.898 . S
Zn63 O78 1.905 . S
Zn64 O72 1.905 . S
Zn64 O73 1.898 . S
Zn64 O81 1.920 . S
Zn65 O68 2.080 . S
Zn65 O71 2.114 . S
Zn65 O74 2.120 . S
Zn65 O76 2.120 . S
Zn65 O77 2.114 . S
Zn65 O80 2.080 . S
C66 O71 1.166 . S
C66 O72 1.182 . S
C67 O73 1.167 . S
C67 O74 1.299 . S
O68 Zn65 2.080 . S
O68 C82 1.305 . S
O69 Zn63 1.920 . S
O69 C82 1.234 . S
C70 O75 1.167 . S
C70 O76 1.299 . S
O71 Zn65 2.114 . S
O71 C66 1.166 . S
O72 Zn64 1.905 . S
O72 C66 1.182 . S
O73 Zn64 1.898 . S
O73 C67 1.167 . S
O74 Zn65 2.120 . S
O74 C67 1.299 . S
O75 Zn63 1.898 . S
O75 C70 1.167 . S
O76 Zn65 2.120 . S
O76 C70 1.299 . S
O77 Zn65 2.114 . S
O77 C79 1.166 . S
O78 Zn63 1.905 . S
O78 C79 1.182 . S
C79 O77 1.166 . S
C79 O78 1.182 . S
O80 Zn65 2.080 . S
O80 C83 1.305 . S
O81 Zn64 1.920 . S
O81 C83 1.234 . S
C82 O68 1.305 . S
C82 O69 1.234 . S
C83 O80 1.305 . S
C83 O81 1.234 . S
Zn84 O90 1.920 . S
Zn84 O96 1.898 1_455 S
Zn84 O99 1.905 . S
Zn85 O93 1.905 . S
Zn85 O94 1.898 1_655 S
Zn85 O102 1.920 . S
Zn86 O89 2.080 . S
Zn86 O92 2.114 1_455 S
Zn86 O95 2.120 . S
Zn86 O97 2.120 1_455 S
Zn86 O98 2.114 . S
Zn86 O101 2.080 1_455 S
C87 O92 1.166 . S
C87 O93 1.182 . S
C88 O94 1.167 . S
C88 O95 1.299 . S
O89 Zn86 2.080 . S
O89 C103 1.305 . S
O90 Zn84 1.920 . S
O90 C103 1.234 . S
C91 O96 1.167 . S
C91 O97 1.299 . S
O92 Zn86 2.114 1_655 S
O92 C87 1.166 . S
O93 Zn85 1.905 . S
O93 C87 1.182 . S
O94 Zn85 1.898 1_455 S
O94 C88 1.167 . S
O95 Zn86 2.120 . S
O95 C88 1.299 . S
O96 Zn84 1.898 1_655 S
O96 C91 1.167 . S
O97 Zn86 2.120 1_655 S
O97 C91 1.299 . S
O98 Zn86 2.114 . S
O98 C100 1.166 . S
O99 Zn84 1.905 . S
O99 C100 1.182 . S
C100 O98 1.166 . S
C100 O99 1.182 . S
O101 Zn86 2.080 1_655 S
O101 C104 1.305 . S
O102 Zn85 1.920 . S
O102 C104 1.234 . S
C103 O89 1.305 . S
C103 O90 1.234 . S
C104 O101 1.305 . S
C104 O102 1.234 . S
Zn105 O111 1.920 . S
Zn105 O117 1.898 . S
Zn105 O120 1.905 . S
Zn106 O114 1.905 . S
Zn106 O115 1.898 . S
Zn106 O123 1.920 . S
Zn107 O110 2.080 . S
Zn107 O113 2.114 . S
Zn107 O116 2.120 . S
Zn107 O118 2.120 . S
Zn107 O119 2.114 . S
Zn107 O122 2.080 . S
C108 O113 1.166 . S
C108 O114 1.182 . S
C109 O115 1.167 . S
C109 O116 1.299 . S
O110 Zn107 2.080 . S
O110 C124 1.305 . S
O111 Zn105 1.920 . S
O111 C124 1.234 . S
C112 O117 1.167 . S
C112 O118 1.299 . S
O113 Zn107 2.114 . S
O113 C108 1.166 . S
O114 Zn106 1.905 . S
O114 C108 1.182 . S
O115 Zn106 1.898 . S
O115 C109 1.167 . S
O116 Zn107 2.120 . S
O116 C109 1.299 . S
O117 Zn105 1.898 . S
O117 C112 1.167 . S
O118 Zn107 2.120 . S
O118 C112 1.299 . S
O119 Zn107 2.114 . S
O119 C121 1.166 . S
O120 Zn105 1.905 . S
O120 C121 1.182 . S
C121 O119 1.166 . S
C121 O120 1.182 . S
O122 Zn107 2.080 . S
O122 C125 1.305 . S
O123 Zn106 1.920 . S
O123 C125 1.234 . S
C124 O110 1.305 . S
C124 O111 1.234 . S
C125 O122 1.305 . S
C125 O123 1.234 . S
Zn126 O132 1.920 . S
Zn126 O138 1.898 . S
Zn126 O141 1.905 . S
Zn127 O135 1.905 . S
Zn127 O136 1.898 . S
Zn127 O144 1.920 . S
Zn128 O131 2.080 . S
Zn128 O134 2.114 . S
Zn128 O137 2.120 . S
Zn128 O139 2.120 . S
Zn128 O140 2.114 . S
Zn128 O143 2.080 . S
C129 O134 1.166 . S
C129 O135 1.182 . S
C130 O136 1.167 . S
C130 O137 1.299 . S
O131 Zn128 2.080 . S
O131 C145 1.305 . S
O132 Zn126 1.920 . S
O132 C145 1.234 . S
C133 O138 1.167 . S
C133 O139 1.299 . S
O134 Zn128 2.114 . S
O134 C129 1.166 . S
O135 Zn127 1.905 . S
O135 C129 1.182 . S
O136 Zn127 1.898 . S
O136 C130 1.167 . S
O137 Zn128 2.120 . S
O137 C130 1.299 . S
O138 Zn126 1.898 . S
O138 C133 1.167 . S
O139 Zn128 2.120 . S
O139 C133 1.299 . S
O140 Zn128 2.114 . S
O140 C142 1.166 . S
O141 Zn126 1.905 . S
O141 C142 1.182 . S
C142 O140 1.166 . S
C142 O141 1.182 . S
O143 Zn128 2.080 . S
O143 C146 1.305 . S
O144 Zn127 1.920 . S
O144 C146 1.234 . S
C145 O131 1.305 . S
C145 O132 1.234 . S
C146 O143 1.305 . S
C146 O144 1.234 . S
Zn147 O153 1.920 . S
Zn147 O159 1.898 . S
Zn147 O162 1.905 . S
Zn148 O156 1.905 . S
Zn148 O157 1.898 . S
Zn148 O165 1.920 . S
Zn149 O152 2.080 . S
Zn149 O155 2.114 1_455 S
Zn149 O158 2.120 1_455 S
Zn149 O160 2.120 . S
Zn149 O161 2.114 . S
Zn149 O164 2.080 1_455 S
C150 O155 1.166 . S
C150 O156 1.182 . S
C151 O157 1.167 . S
C151 O158 1.299 . S
O152 Zn149 2.080 . S
O152 C166 1.305 . S
O153 Zn147 1.920 . S
O153 C166 1.234 . S
C154 O159 1.167 . S
C154 O160 1.299 . S
O155 Zn149 2.114 1_655 S
O155 C150 1.166 . S
O156 Zn148 1.905 . S
O156 C150 1.182 . S
O157 Zn148 1.898 . S
O157 C151 1.167 . S
O158 Zn149 2.120 1_655 S
O158 C151 1.299 . S
O159 Zn147 1.898 . S
O159 C154 1.167 . S
O160 Zn149 2.120 . S
O160 C154 1.299 . S
O161 Zn149 2.114 . S
O161 C163 1.166 . S
O162 Zn147 1.905 . S
O162 C163 1.182 . S
C163 O161 1.166 . S
C163 O162 1.182 . S
O164 Zn149 2.080 1_655 S
O164 C167 1.305 . S
O165 Zn148 1.920 . S
O165 C167 1.234 . S
C166 O152 1.305 . S
C166 O153 1.234 . S
C167 O164 1.305 . S
C167 O165 1.234 . S
H168 C174 0.922 1_655 S
H169 C178 0.930 . S
H170 C183 0.929 . S
H171 C181 0.929 . S
H172 C176 0.929 1_554 S
H173 C182 0.921 1_656 S
C174 H168 0.922 1_455 S
C174 C175 1.375 . S
C174 C182 1.378 . S
C175 C174 1.375 . S
C175 C183 1.433 . S
C176 H172 0.929 1_556 S
C176 C178 1.378 . S
C176 C180 1.350 . S
C177 C180 1.463 1_554 S
C177 C182 1.358 . S
C177 N185 1.427 . S
C178 H169 0.930 . S
C178 C176 1.378 . S
C178 C179 1.367 . S
C179 C178 1.367 . S
C179 C181 1.434 1_455 S
C180 C176 1.350 . S
C180 C177 1.463 1_556 S
C180 N184 1.433 . S
C181 H171 0.929 . S
C181 C179 1.434 1_655 S
C181 N184 1.384 1_655 S
C182 H173 0.921 1_454 S
C182 C174 1.378 . S
C182 C177 1.358 . S
C183 H170 0.929 . S
C183 C175 1.433 . S
C183 N185 1.384 . S
N184 C180 1.433 . S
N184 C181 1.384 1_455 S
N185 C177 1.427 . S
N185 C183 1.384 . S
H186 C192 0.930 . S
H187 C196 0.930 . S
H188 C201 0.929 . S
H189 C199 0.929 . S
H190 C194 0.929 . S
H191 C200 0.929 . S
C192 H186 0.930 . S
C192 C193 1.367 . S
C192 C200 1.378 . S
C193 C192 1.367 . S
C193 C201 1.433 . S
C194 H190 0.929 . S
C194 C196 1.378 . S
C194 C198 1.350 . S
C195 C198 1.463 . S
C195 C200 1.350 . S
C195 N203 1.427 . S
C196 H187 0.930 . S
C196 C194 1.378 . S
C196 C197 1.367 . S
C197 C196 1.367 . S
C197 C199 1.433 . S
C198 C194 1.350 . S
C198 C195 1.463 . S
C198 N202 1.427 . S
C199 H189 0.929 . S
C199 C197 1.433 . S
C199 N202 1.384 . S
C200 H191 0.929 . S
C200 C192 1.378 . S
C200 C195 1.350 . S
C201 H188 0.929 . S
C201 C193 1.433 . S
C201 N203 1.384 . S
N202 C198 1.427 . S
N202 C199 1.384 . S
N203 C195 1.427 . S
N203 C201 1.384 . S
H204 C210 0.930 . S
H205 C214 0.930 . S
H206 C219 0.929 . S
H207 C217 0.929 . S
H208 C212 0.929 . S
H209 C218 0.929 . S
C210 H204 0.930 . S
C210 C211 1.367 . S
C210 C218 1.378 . S
C211 C210 1.367 . S
C211 C219 1.433 . S
C212 H208 0.929 . S
C212 C214 1.378 . S
C212 C216 1.350 . S
C213 C216 1.463 . S
C213 C218 1.350 . S
C213 N221 1.427 . S
C214 H205 0.930 . S
C214 C212 1.378 . S
C214 C215 1.367 . S
C215 C214 1.367 . S
C215 C217 1.433 . S
C216 C212 1.350 . S
C216 C213 1.463 . S
C216 N220 1.427 . S
C217 H207 0.929 . S
C217 C215 1.433 . S
C217 N220 1.384 . S
C218 H209 0.929 . S
C218 C210 1.378 . S
C218 C213 1.350 . S
C219 H206 0.929 . S
C219 C211 1.433 . S
C219 N221 1.384 . S
N220 C216 1.427 . S
N220 C217 1.384 . S
N221 C213 1.427 . S
N221 C219 1.384 . S
H222 C228 0.930 . S
H223 C232 0.930 . S
H224 C237 0.929 . S
H225 C235 0.929 . S
H226 C230 0.929 . S
H227 C236 0.929 . S
C228 H222 0.930 . S
C228 C229 1.367 . S
C228 C236 1.378 . S
C229 C228 1.367 . S
C229 C237 1.433 . S
C230 H226 0.929 . S
C230 C232 1.378 . S
C230 C234 1.350 . S
C231 C234 1.463 . S
C231 C236 1.350 . S
C231 N239 1.427 . S
C232 H223 0.930 . S
C232 C230 1.378 . S
C232 C233 1.367 . S
C233 C232 1.367 . S
C233 C235 1.433 . S
C234 C230 1.350 . S
C234 C231 1.463 . S
C234 N238 1.427 . S
C235 H225 0.929 . S
C235 C233 1.433 . S
C235 N238 1.384 . S
C236 H227 0.929 . S
C236 C228 1.378 . S
C236 C231 1.350 . S
C237 H224 0.929 . S
C237 C229 1.433 . S
C237 N239 1.384 . S
N238 C234 1.427 . S
N238 C235 1.384 . S
N239 C231 1.427 . S
N239 C237 1.384 . S
H240 C246 0.930 . S
H241 C250 0.930 . S
H242 C255 0.929 . S
H243 C253 0.929 . S
H244 C248 0.929 . S
H245 C254 0.929 . S
C246 H240 0.930 . S
C246 C247 1.367 . S
C246 C254 1.378 . S
C247 C246 1.367 . S
C247 C255 1.433 . S
C248 H244 0.929 . S
C248 C250 1.378 . S
C248 C252 1.350 . S
C249 C252 1.463 . S
C249 C254 1.350 . S
C249 N257 1.427 . S
C250 H241 0.930 . S
C250 C248 1.378 . S
C250 C251 1.367 . S
C251 C250 1.367 . S
C251 C253 1.433 . S
C252 C248 1.350 . S
C252 C249 1.463 . S
C252 N256 1.427 . S
C253 H243 0.929 . S
C253 C251 1.433 . S
C253 N256 1.384 . S
C254 H245 0.929 . S
C254 C246 1.378 . S
C254 C249 1.350 . S
C255 H242 0.929 . S
C255 C247 1.433 . S
C255 N257 1.384 . S
N256 C252 1.427 . S
N256 C253 1.384 . S
N257 C249 1.427 . S
N257 C255 1.384 . S
H258 C264 0.930 . S
H259 C268 0.930 . S
H260 C273 0.929 . S
H261 C271 0.929 . S
H262 C266 0.929 . S
H263 C272 0.929 . S
C264 H258 0.930 . S
C264 C265 1.367 . S
C264 C272 1.378 . S
C265 C264 1.367 . S
C265 C273 1.433 . S
C266 H262 0.929 . S
C266 C268 1.378 . S
C266 C270 1.350 . S
C267 C270 1.463 . S
C267 C272 1.350 . S
C267 N275 1.427 . S
C268 H259 0.930 . S
C268 C266 1.378 . S
C268 C269 1.367 . S
C269 C268 1.367 . S
C269 C271 1.433 . S
C270 C266 1.350 . S
C270 C267 1.463 . S
C270 N274 1.427 . S
C271 H261 0.929 . S
C271 C269 1.433 . S
C271 N274 1.384 . S
C272 H263 0.929 . S
C272 C264 1.378 . S
C272 C267 1.350 . S
C273 H260 0.929 . S
C273 C265 1.433 . S
C273 N275 1.384 . S
N274 C270 1.427 . S
N274 C271 1.384 . S
N275 C267 1.427 . S
N275 C273 1.384 . S
H276 C282 0.930 . S
H277 C286 0.930 . S
H278 C291 0.929 . S
H279 C289 0.929 . S
H280 C284 0.929 1_545 S
H281 C290 0.929 1_565 S
C282 H276 0.930 . S
C282 C283 1.367 . S
C282 C290 1.378 . S
C283 C282 1.367 . S
C283 C291 1.433 . S
C284 H280 0.929 1_565 S
C284 C286 1.378 . S
C284 C288 1.350 . S
C285 C288 1.463 1_545 S
C285 C290 1.350 . S
C285 N293 1.427 . S
C286 H277 0.930 . S
C286 C284 1.378 . S
C286 C287 1.367 . S
C287 C286 1.367 . S
C287 C289 1.433 . S
C288 C284 1.350 . S
C288 C285 1.463 1_565 S
C288 N292 1.427 . S
C289 H279 0.929 . S
C289 C287 1.433 . S
C289 N292 1.384 . S
C290 H281 0.929 1_545 S
C290 C282 1.378 . S
C290 C285 1.350 . S
C291 H278 0.929 . S
C291 C283 1.433 . S
C291 N293 1.384 . S
N292 C288 1.427 . S
N292 C289 1.384 . S
N293 C285 1.427 . S
N293 C291 1.384 . S
H294 C300 0.930 1_455 S
H295 C304 0.930 . S
H296 C309 0.929 . S
H297 C307 0.929 1_455 S
H298 C302 0.929 1_554 S
H299 C308 0.929 1_456 S
C300 H294 0.930 1_655 S
C300 C301 1.367 . S
C300 C308 1.378 . S
C301 C300 1.367 . S
C301 C309 1.433 . S
C302 H298 0.929 1_556 S
C302 C304 1.378 . S
C302 C306 1.350 . S
C303 C306 1.463 1_544 S
C303 C308 1.350 . S
C303 N311 1.427 . S
C304 H295 0.930 . S
C304 C302 1.378 . S
C304 C305 1.367 . S
C305 C304 1.367 . S
C305 C307 1.433 . S
C306 C302 1.350 . S
C306 C303 1.463 1_566 S
C306 N310 1.427 . S
C307 H297 0.929 1_655 S
C307 C305 1.433 . S
C307 N310 1.384 . S
C308 H299 0.929 1_654 S
C308 C300 1.378 . S
C308 C303 1.350 . S
C309 H296 0.929 . S
C309 C301 1.433 . S
C309 N311 1.384 . S
N310 C306 1.427 . S
N310 C307 1.384 . S
N311 C303 1.427 . S
N311 C309 1.384 . S
H312 C318 0.930 . S
H313 C322 0.930 . S
H314 C327 0.929 . S
H315 C325 0.929 . S
H316 C320 0.929 1_565 S
H317 C326 0.929 . S
C318 H312 0.930 . S
C318 C319 1.367 . S
C318 C326 1.378 1_565 S
C319 C318 1.367 . S
C319 C327 1.433 . S
C320 H316 0.929 1_545 S
C320 C322 1.378 . S
C320 C324 1.350 . S
C321 C324 1.463 . S
C321 C326 1.350 . S
C321 N329 1.427 1_545 S
C322 H313 0.930 . S
C322 C320 1.378 . S
C322 C323 1.367 . S
C323 C322 1.367 . S
C323 C325 1.433 . S
C324 C320 1.350 . S
C324 C321 1.463 . S
C324 N328 1.427 . S
C325 H315 0.929 . S
C325 C323 1.433 . S
C325 N328 1.384 . S
C326 H317 0.929 . S
C326 C318 1.378 1_545 S
C326 C321 1.350 . S
C327 H314 0.929 . S
C327 C319 1.433 . S
C327 N329 1.384 . S
N328 C324 1.427 . S
N328 C325 1.384 . S
N329 C321 1.427 1_565 S
N329 C327 1.384 . S
H330 C336 0.930 1_545 S
H331 C340 0.930 . S
H332 C345 0.929 . S
H333 C343 0.929 . S
H334 C338 0.929 1_565 S
H335 C344 0.929 . S
C336 H330 0.930 1_565 S
C336 C337 1.367 . S
C336 C344 1.378 1_565 S
C337 C336 1.367 . S
C337 C345 1.433 . S
C338 H334 0.929 1_545 S
C338 C340 1.378 . S
C338 C342 1.350 . S
C339 C342 1.463 . S
C339 C344 1.350 . S
C339 N347 1.427 1_545 S
C340 H331 0.930 . S
C340 C338 1.378 . S
C340 C341 1.367 . S
C341 C340 1.367 . S
C341 C343 1.433 . S
C342 C338 1.350 . S
C342 C339 1.463 . S
C342 N346 1.427 . S
C343 H333 0.929 . S
C343 C341 1.433 . S
C343 N346 1.384 . S
C344 H335 0.929 . S
C344 C336 1.378 1_545 S
C344 C339 1.350 . S
C345 H332 0.929 . S
C345 C337 1.433 . S
C345 N347 1.384 . S
N346 C342 1.427 . S
N346 C343 1.384 . S
N347 C339 1.427 1_565 S
N347 C345 1.384 . S
H348 C354 0.930 1_565 S
H349 C358 0.930 . S
H350 C363 0.929 . S
H351 C361 0.929 . S
H352 C356 0.929 1_545 S
H353 C362 0.929 . S
C354 H348 0.930 1_545 S
C354 C355 1.367 . S
C354 C362 1.378 1_545 S
C355 C354 1.367 . S
C355 C363 1.433 . S
C356 H352 0.929 1_565 S
C356 C358 1.378 . S
C356 C360 1.350 . S
C357 C360 1.463 . S
C357 C362 1.350 . S
C357 N365 1.427 1_565 S
C358 H349 0.930 . S
C358 C356 1.378 . S
C358 C359 1.367 . S
C359 C358 1.367 . S
C359 C361 1.433 . S
C360 C356 1.350 . S
C360 C357 1.463 . S
C360 N364 1.427 . S
C361 H351 0.929 . S
C361 C359 1.433 . S
C361 N364 1.384 . S
C362 H353 0.929 . S
C362 C354 1.378 1_565 S
C362 C357 1.350 . S
C363 H350 0.929 . S
C363 C355 1.433 . S
C363 N365 1.384 . S
N364 C360 1.427 . S
N364 C361 1.384 . S
N365 C357 1.427 1_545 S
N365 C363 1.384 . S
H366 C372 0.930 . S
H367 C376 0.930 . S
H368 C381 0.929 . S
H369 C379 0.929 1_565 S
H370 C374 0.929 . S
H371 C380 0.929 . S
C372 H366 0.930 . S
C372 C373 1.367 . S
C372 C380 1.378 . S
C373 C372 1.367 . S
C373 C381 1.433 . S
C374 H370 0.929 . S
C374 C376 1.378 . S
C374 C378 1.340 1_545 S
C375 C378 1.469 . S
C375 C380 1.350 . S
C375 N383 1.427 . S
C376 H367 0.930 . S
C376 C374 1.378 . S
C376 C377 1.367 . S
C377 C376 1.367 . S
C377 C379 1.433 . S
C378 C374 1.340 1_565 S
C378 C375 1.469 . S
C378 N382 1.432 . S
C379 H369 0.929 1_545 S
C379 C377 1.433 . S
C379 N382 1.384 1_545 S
C380 H371 0.929 . S
C380 C372 1.378 . S
C380 C375 1.350 . S
C381 H368 0.929 . S
C381 C373 1.433 . S
C381 N383 1.384 . S
N382 C378 1.432 . S
N382 C379 1.384 1_565 S
N383 C375 1.427 . S
N383 C381 1.384 . S
H384 C390 0.930 . S
H385 C394 0.930 . S
H386 C399 0.929 . S
H387 C397 0.929 . S
H388 C392 0.929 1_565 S
H389 C398 0.929 1_545 S
C390 H384 0.930 . S
C390 C391 1.367 . S
C390 C398 1.378 . S
C391 C390 1.367 . S
C391 C399 1.433 . S
C392 H388 0.929 1_545 S
C392 C394 1.378 . S
C392 C396 1.350 . S
C393 C396 1.463 1_565 S
C393 C398 1.350 . S
C393 N401 1.427 . S
C394 H385 0.930 . S
C394 C392 1.378 . S
C394 C395 1.367 . S
C395 C394 1.367 . S
C395 C397 1.433 . S
C396 C392 1.350 . S
C396 C393 1.463 1_545 S
C396 N400 1.427 . S
C397 H387 0.929 . S
C397 C395 1.433 . S
C397 N400 1.384 . S
C398 H389 0.929 1_565 S
C398 C390 1.378 . S
C398 C393 1.350 . S
C399 H386 0.929 . S
C399 C391 1.433 . S
C399 N401 1.384 . S
N400 C396 1.427 . S
N400 C397 1.384 . S
N401 C393 1.427 . S
N401 C399 1.384 . S
H402 C408 0.930 . S
H403 C412 0.930 . S
H404 C417 0.929 . S
H405 C415 0.929 . S
H406 C410 0.929 . S
H407 C416 0.929 . S
C408 H402 0.930 . S
C408 C409 1.367 . S
C408 C416 1.378 . S
C409 C408 1.367 . S
C409 C417 1.433 . S
C410 H406 0.929 . S
C410 C412 1.378 . S
C410 C414 1.350 . S
C411 C414 1.463 1_545 S
C411 C416 1.350 . S
C411 N419 1.427 . S
C412 H403 0.930 . S
C412 C410 1.378 . S
C412 C413 1.367 . S
C413 C412 1.367 . S
C413 C415 1.433 . S
C414 C410 1.350 . S
C414 C411 1.463 1_565 S
C414 N418 1.427 . S
C415 H405 0.929 . S
C415 C413 1.433 . S
C415 N418 1.384 . S
C416 H407 0.929 . S
C416 C408 1.378 . S
C416 C411 1.350 . S
C417 H404 0.929 . S
C417 C409 1.433 . S
C417 N419 1.384 . S
N418 C414 1.427 . S
N418 C415 1.384 . S
N419 C411 1.427 . S
N419 C417 1.384 . S
H420 C426 0.930 . S
H421 C430 0.930 . S
H422 C435 0.929 . S
H423 C433 0.929 . S
H424 C428 0.929 . S
H425 C434 0.929 . S
C426 H420 0.930 . S
C426 C427 1.367 . S
C426 C434 1.378 . S
C427 C426 1.367 . S
C427 C435 1.433 . S
C428 H424 0.929 . S
C428 C430 1.378 . S
C428 C432 1.350 . S
C429 C432 1.463 1_565 S
C429 C434 1.350 . S
C429 N437 1.427 . S
C430 H421 0.930 . S
C430 C428 1.378 . S
C430 C431 1.367 . S
C431 C430 1.367 . S
C431 C433 1.433 . S
C432 C428 1.350 . S
C432 C429 1.463 1_545 S
C432 N436 1.427 . S
C433 H423 0.929 . S
C433 C431 1.433 . S
C433 N436 1.384 . S
C434 H425 0.929 . S
C434 C426 1.378 . S
C434 C429 1.350 . S
C435 H422 0.929 . S
C435 C427 1.433 . S
C435 N437 1.384 . S
N436 C432 1.427 . S
N436 C433 1.384 . S
N437 C429 1.427 . S
N437 C435 1.384 . S
H438 C444 0.930 . S
H439 C448 0.930 . S
H440 C453 0.929 . S
H441 C451 0.929 . S
H442 C446 0.929 . S
H443 C452 0.929 . S
C444 H438 0.930 . S
C444 C445 1.367 . S
C444 C452 1.378 . S
C445 C444 1.367 . S
C445 C453 1.433 . S
C446 H442 0.929 . S
C446 C448 1.378 . S
C446 C450 1.350 . S
C447 C450 1.463 1_565 S
C447 C452 1.350 . S
C447 N455 1.427 . S
C448 H439 0.930 . S
C448 C446 1.378 . S
C448 C449 1.367 . S
C449 C448 1.367 . S
C449 C451 1.433 . S
C450 C446 1.350 . S
C450 C447 1.463 1_545 S
C450 N454 1.427 . S
C451 H441 0.929 . S
C451 C449 1.433 . S
C451 N454 1.384 . S
C452 H443 0.929 . S
C452 C444 1.378 . S
C452 C447 1.350 . S
C453 H440 0.929 . S
C453 C445 1.433 . S
C453 N455 1.384 . S
N454 C450 1.427 . S
N454 C451 1.384 . S
N455 C447 1.427 . S
N455 C453 1.384 . S
H456 C462 0.930 . S
H457 C466 0.930 . S
H458 C471 0.929 . S
H459 C469 0.929 . S
H460 C464 0.929 . S
H461 C470 0.929 . S
C462 H456 0.930 . S
C462 C463 1.367 . S
C462 C470 1.378 . S
C463 C462 1.367 . S
C463 C471 1.433 . S
C464 H460 0.929 . S
C464 C466 1.378 . S
C464 C468 1.350 . S
C465 C468 1.463 . S
C465 C470 1.350 . S
C465 N473 1.427 . S
C466 H457 0.930 . S
C466 C464 1.378 . S
C466 C467 1.367 . S
C467 C466 1.367 . S
C467 C469 1.433 . S
C468 C464 1.350 . S
C468 C465 1.463 . S
C468 N472 1.427 . S
C469 H459 0.929 . S
C469 C467 1.433 . S
C469 N472 1.384 . S
C470 H461 0.929 . S
C470 C462 1.378 . S
C470 C465 1.350 . S
C471 H458 0.929 . S
C471 C463 1.433 . S
C471 N473 1.384 . S
N472 C468 1.427 . S
N472 C469 1.384 . S
N473 C465 1.427 . S
N473 C471 1.384 . S
H474 C480 0.930 . S
H475 C484 0.930 . S
H476 C489 0.929 . S
H477 C487 0.929 . S
H478 C482 0.929 . S
H479 C488 0.929 . S
C480 H474 0.930 . S
C480 C481 1.367 . S
C480 C488 1.378 . S
C481 C480 1.367 . S
C481 C489 1.433 . S
C482 H478 0.929 . S
C482 C484 1.378 . S
C482 C486 1.350 . S
C483 C486 1.463 . S
C483 C488 1.350 . S
C483 N491 1.427 . S
C484 H475 0.930 . S
C484 C482 1.378 . S
C484 C485 1.367 . S
C485 C484 1.367 . S
C485 C487 1.433 . S
C486 C482 1.350 . S
C486 C483 1.463 . S
C486 N490 1.427 . S
C487 H477 0.929 . S
C487 C485 1.433 . S
C487 N490 1.384 . S
C488 H479 0.929 . S
C488 C480 1.378 . S
C488 C483 1.350 . S
C489 H476 0.929 . S
C489 C481 1.433 . S
C489 N491 1.384 . S
N490 C486 1.427 . S
N490 C487 1.384 . S
N491 C483 1.427 . S
N491 C489 1.384 . S
H492 C498 0.930 . S
H493 C502 0.930 . S
H494 C507 0.929 . S
H495 C505 0.929 . S
H496 C500 0.929 . S
H497 C506 0.929 . S
C498 H492 0.930 . S
C498 C499 1.367 . S
C498 C506 1.378 . S
C499 C498 1.367 . S
C499 C507 1.433 . S
C500 H496 0.929 . S
C500 C502 1.378 . S
C500 C504 1.350 . S
C501 C504 1.463 . S
C501 C506 1.350 . S
C501 N509 1.427 . S
C502 H493 0.930 . S
C502 C500 1.378 . S
C502 C503 1.367 . S
C503 C502 1.367 . S
C503 C505 1.433 . S
C504 C500 1.350 . S
C504 C501 1.463 . S
C504 N508 1.427 . S
C505 H495 0.929 . S
C505 C503 1.433 . S
C505 N508 1.384 . S
C506 H497 0.929 . S
C506 C498 1.378 . S
C506 C501 1.350 . S
C507 H494 0.929 . S
C507 C499 1.433 . S
C507 N509 1.384 . S
N508 C504 1.427 . S
N508 C505 1.384 . S
N509 C501 1.427 . S
N509 C507 1.384 . S
H510 C516 0.930 . S
H511 C520 0.930 . S
H512 C525 0.929 . S
H513 C523 0.929 . S
H514 C518 0.929 . S
H515 C524 0.929 . S
C516 H510 0.930 . S
C516 C517 1.367 . S
C516 C524 1.378 . S
C517 C516 1.367 . S
C517 C525 1.433 . S
C518 H514 0.929 . S
C518 C520 1.378 . S
C518 C522 1.350 . S
C519 C522 1.463 . S
C519 C524 1.350 . S
C519 N527 1.427 . S
C520 H511 0.930 . S
C520 C518 1.378 . S
C520 C521 1.367 . S
C521 C520 1.367 . S
C521 C523 1.433 . S
C522 C518 1.350 . S
C522 C519 1.463 . S
C522 N526 1.427 . S
C523 H513 0.929 . S
C523 C521 1.433 . S
C523 N526 1.384 . S
C524 H515 0.929 . S
C524 C516 1.378 . S
C524 C519 1.350 . S
C525 H512 0.929 . S
C525 C517 1.433 . S
C525 N527 1.384 . S
N526 C522 1.427 . S
N526 C523 1.384 . S
N527 C519 1.427 . S
N527 C525 1.384 . S
H528 C534 0.930 . S
H529 C538 0.930 . S
H530 C543 0.929 . S
H531 C541 0.929 . S
H532 C536 0.929 . S
H533 C542 0.929 . S
C534 H528 0.930 . S
C534 C535 1.367 . S
C534 C542 1.378 . S
C535 C534 1.367 . S
C535 C543 1.433 . S
C536 H532 0.929 . S
C536 C538 1.378 . S
C536 C540 1.350 . S
C537 C540 1.463 . S
C537 C542 1.350 . S
C537 N545 1.427 . S
C538 H529 0.930 . S
C538 C536 1.378 . S
C538 C539 1.367 . S
C539 C538 1.367 . S
C539 C541 1.433 . S
C540 C536 1.350 . S
C540 C537 1.463 . S
C540 N544 1.427 . S
C541 H531 0.929 . S
C541 C539 1.433 . S
C541 N544 1.384 . S
C542 H533 0.929 . S
C542 C534 1.378 . S
C542 C537 1.350 . S
C543 H530 0.929 . S
C543 C535 1.433 . S
C543 N545 1.384 . S
N544 C540 1.427 . S
N544 C541 1.384 . S
N545 C537 1.427 . S
N545 C543 1.384 . S
H546 C552 0.930 . S
H547 C556 0.930 . S
H548 C561 0.929 . S
H549 C559 0.929 . S
H550 C554 0.929 . S
H551 C560 0.929 . S
C552 H546 0.930 . S
C552 C553 1.367 . S
C552 C560 1.378 . S
C553 C552 1.367 . S
C553 C561 1.433 . S
C554 H550 0.929 . S
C554 C556 1.378 . S
C554 C558 1.350 . S
C555 C558 1.463 . S
C555 C560 1.350 . S
C555 N563 1.427 . S
C556 H547 0.930 . S
C556 C554 1.378 . S
C556 C557 1.367 . S
C557 C556 1.367 . S
C557 C559 1.433 . S
C558 C554 1.350 . S
C558 C555 1.463 . S
C558 N562 1.427 . S
C559 H549 0.929 . S
C559 C557 1.433 . S
C559 N562 1.384 . S
C560 H551 0.929 . S
C560 C552 1.378 . S
C560 C555 1.350 . S
C561 H548 0.929 . S
C561 C553 1.433 . S
C561 N563 1.384 . S
N562 C558 1.427 . S
N562 C559 1.384 . S
N563 C555 1.427 . S
N563 C561 1.384 . S
H564 C570 0.930 . S
H565 C574 0.930 . S
H566 C579 0.929 . S
H567 C577 0.929 . S
H568 C572 0.929 . S
H569 C578 0.929 . S
C570 H564 0.930 . S
C570 C571 1.367 . S
C570 C578 1.378 . S
C571 C570 1.367 . S
C571 C579 1.433 . S
C572 H568 0.929 . S
C572 C574 1.378 . S
C572 C576 1.350 . S
C573 C576 1.463 . S
C573 C578 1.350 . S
C573 N581 1.427 . S
C574 H565 0.930 . S
C574 C572 1.378 . S
C574 C575 1.367 . S
C575 C574 1.367 . S
C575 C577 1.433 . S
C576 C572 1.350 . S
C576 C573 1.463 . S
C576 N580 1.427 . S
C577 H567 0.929 . S
C577 C575 1.433 . S
C577 N580 1.384 . S
C578 H569 0.929 . S
C578 C570 1.378 . S
C578 C573 1.350 . S
C579 H566 0.929 . S
C579 C571 1.433 . S
C579 N581 1.384 . S
N580 C576 1.427 . S
N580 C577 1.384 . S
N581 C573 1.427 . S
N581 C579 1.384 . S
H582 C588 0.930 . S
H583 C592 0.930 . S
H584 C597 0.929 . S
H585 C595 0.929 . S
H586 C590 0.929 . S
H587 C596 0.929 . S
C588 H582 0.930 . S
C588 C589 1.367 . S
C588 C596 1.378 . S
C589 C588 1.367 . S
C589 C597 1.433 . S
C590 H586 0.929 . S
C590 C592 1.378 . S
C590 C594 1.350 . S
C591 C594 1.463 . S
C591 C596 1.350 . S
C591 N599 1.427 . S
C592 H583 0.930 . S
C592 C590 1.378 . S
C592 C593 1.367 . S
C593 C592 1.367 . S
C593 C595 1.433 . S
C594 C590 1.350 . S
C594 C591 1.463 . S
C594 N598 1.427 . S
C595 H585 0.929 . S
C595 C593 1.433 . S
C595 N598 1.384 . S
C596 H587 0.929 . S
C596 C588 1.378 . S
C596 C591 1.350 . S
C597 H584 0.929 . S
C597 C589 1.433 . S
C597 N599 1.384 . S
N598 C594 1.427 . S
N598 C595 1.384 . S
N599 C591 1.427 . S
N599 C597 1.384 . S
C175 C19 1.435 . S
C179 C103 1.440 . S
C193 C124 1.426 . S
C197 C41 1.434 . S
C211 C61 1.418 . S
C215 C146 1.422 . S
C229 C82 1.420 . S
C233 C167 1.426 . S
C247 C83 1.439 . S
C251 C166 1.432 . S
C265 C125 1.431 . S
C269 C40 1.424 . S
C283 C145 1.418 . S
C287 C62 1.423 . S
C301 C20 1.438 . S
C305 C104 1.441 . S
C319 C109 1.230 . S
C323 C4 1.201 . S
C337 C28 1.228 . S
C341 C133 1.206 . S
C355 C154 1.228 . S
C359 C46 1.205 . S
C373 C88 1.225 . S
C377 C67 1.206 . S
C391 C87 1.150 . S
C395 C79 1.168 . S
C409 C150 1.152 . S
C413 C45 1.163 . S
C427 C24 1.153 . S
C431 C142 1.161 . S
C445 C121 1.152 . S
C449 C3 1.163 . S
C463 C151 1.209 . S
C467 C49 1.224 . S
C481 C91 1.204 . S
C485 C70 1.228 . S
C499 C112 1.213 . S
C503 C7 1.220 . S
C517 C25 1.230 . S
C521 C130 1.206 . S
C535 C129 1.154 . S
C539 C37 1.158 . S
C553 C16 1.174 . S
C557 C108 1.177 . S
C571 C100 1.152 . S
C575 C66 1.161 . S
C589 C163 1.180 . S
C593 C58 1.168 . S
