# Generated by pormake.
# Topology soe, (5)-cn, num edge types: 1
# Building blocks:
#     Node 0, Type 0, BuildingBlock: XOMCOT_clean_sbu_1, # of connection points: 5
#     Node 1, Type 0, BuildingBlock: XOMCOT_clean_sbu_1, # of connection points: 5
#     Node 2, Type 0, BuildingBlock: XOMCOT_clean_sbu_1, # of connection points: 5
#     Node 3, Type 0, BuildingBlock: XOMCOT_clean_sbu_1, # of connection points: 5
#     Node 4, Type 0, BuildingBlock: XOMCOT_clean_sbu_1, # of connection points: 5
#     Node 5, Type 0, BuildingBlock: XOMCOT_clean_sbu_1, # of connection points: 5
#     Node 6, Type 0, BuildingBlock: XOMCOT_clean_sbu_1, # of connection points: 5
#     Node 7, Type 0, BuildingBlock: XOMCOT_clean_sbu_1, # of connection points: 5
#     Edge 8, Type (0, 0), BuildingBlock: XIVTED_clean_linker_0, # of connection points: 2
#     Edge 9, Type (0, 0), BuildingBlock: XIVTED_clean_linker_0, # of connection points: 2
#     Edge 10, Type (0, 0), BuildingBlock: XIVTED_clean_linker_0, # of connection points: 2
#     Edge 11, Type (0, 0), BuildingBlock: XIVTED_clean_linker_0, # of connection points: 2
#     Edge 12, Type (0, 0), BuildingBlock: XIVTED_clean_linker_0, # of connection points: 2
#     Edge 13, Type (0, 0), BuildingBlock: XIVTED_clean_linker_0, # of connection points: 2
#     Edge 14, Type (0, 0), BuildingBlock: XIVTED_clean_linker_0, # of connection points: 2
#     Edge 15, Type (0, 0), BuildingBlock: XIVTED_clean_linker_0, # of connection points: 2
#     Edge 16, Type (0, 0), BuildingBlock: XIVTED_clean_linker_0, # of connection points: 2
#     Edge 17, Type (0, 0), BuildingBlock: XIVTED_clean_linker_0, # of connection points: 2
#     Edge 18, Type (0, 0), BuildingBlock: XIVTED_clean_linker_0, # of connection points: 2
#     Edge 19, Type (0, 0), BuildingBlock: XIVTED_clean_linker_0, # of connection points: 2
#     Edge 20, Type (0, 0), BuildingBlock: XIVTED_clean_linker_0, # of connection points: 2
#     Edge 21, Type (0, 0), BuildingBlock: XIVTED_clean_linker_0, # of connection points: 2
#     Edge 22, Type (0, 0), BuildingBlock: XIVTED_clean_linker_0, # of connection points: 2
#     Edge 23, Type (0, 0), BuildingBlock: XIVTED_clean_linker_0, # of connection points: 2
#     Edge 24, Type (0, 0), BuildingBlock: XIVTED_clean_linker_0, # of connection points: 2
#     Edge 25, Type (0, 0), BuildingBlock: XIVTED_clean_linker_0, # of connection points: 2
#     Edge 26, Type (0, 0), BuildingBlock: XIVTED_clean_linker_0, # of connection points: 2
#     Edge 27, Type (0, 0), BuildingBlock: XIVTED_clean_linker_0, # of connection points: 2
# Relax obj value: 0.049
# Max RMSD: 0.083
# Mean RMSD: 0.083
data_MOF--net-soe--node1-XOMCOT_clean_sbu_1--edge1-XIVTED_clean_linker_0
_symmetry_space_group_name_H-M    P1
_symmetry_Int_Tables_number       1
_symmetry_cell_setting            triclinic
loop_
_symmetry_equiv_pos_as_xyz
'x, y, z'
_cell_length_a     55.743624
_cell_length_b     46.874513
_cell_length_c     17.633212
_cell_angle_alpha  90.021738
_cell_angle_beta   89.989677
_cell_angle_gamma 89.873551
loop_
_atom_site_label
_atom_site_type_symbol
_atom_site_fract_x
_atom_site_fract_y
_atom_site_fract_z
_atom_type_partial_charge
C0 C 0.14165 0.13287 0.07368 0.0
C1 C 0.14428 0.13549 0.99625 0.0
N2 N 0.12486 0.12398 0.96264 0.0
N3 N 0.12079 0.11955 0.0887 0.0
C4 C 0.11088 0.11467 0.02 0.0
H5 H 0.15436 0.13965 0.11635 0.0
Co6 Co 0.11009 0.10865 0.1843 0.0
C7 C 0.07983 0.05726 0.15171 0.0
O8 O 0.09038 0.04321 0.20696 0.0
N9 N 0.09887 0.09831 0.2823 0.0
C10 C 0.0729 0.09191 0.37687 0.0
C11 C 0.07559 0.09367 0.29969 0.0
C12 C 0.10981 0.10008 0.35084 0.0
N13 N 0.09444 0.09623 0.40937 0.0
O14 O 0.08751 0.13983 0.18368 0.0
H15 H 0.06105 0.09336 0.25913 0.0
H16 H 0.12819 0.10652 0.3585 0.0
O17 O 0.08624 0.08291 0.13724 0.0
C18 C 0.09495 0.1597 0.22723 0.0
O19 O 0.11527 0.15599 0.26366 0.0
N20 N 0.13451 0.08073 0.18631 0.0
C21 C 0.17839 0.05141 0.18342 0.0
C22 C 0.15942 0.04319 0.13566 0.0
C23 C 0.13765 0.05841 0.13724 0.0
C24 C 0.15318 0.08961 0.23011 0.0
C25 C 0.17493 0.07496 0.23105 0.0
H26 H 0.12403 0.0532 0.09606 0.0
H27 H 0.15185 0.10953 0.26047 0.0
H28 H 0.09407 0.10365 0.01174 0.0
H29 H 0.15935 0.14502 0.96708 0.0
H30 H 0.05611 0.08887 0.40647 0.0
H31 H 0.16157 0.02565 0.09624 0.0
H32 H 0.18941 0.08308 0.26582 0.0
C33 C 0.38511 0.88707 0.07649 0.0
C34 C 0.38206 0.88483 0.99917 0.0
N35 N 0.3997 0.89963 0.96465 0.0
N36 N 0.40452 0.90323 0.09081 0.0
C37 C 0.41312 0.91035 0.02174 0.0
H38 H 0.37359 0.8781 0.11966 0.0
Co39 Co 0.41481 0.91433 0.18662 0.0
C40 C 0.4451 0.96588 0.15566 0.0
O41 O 0.43462 0.97978 0.21137 0.0
N42 N 0.42553 0.92494 0.28484 0.0
C43 C 0.45074 0.93192 0.38121 0.0
C44 C 0.44874 0.9292 0.30391 0.0
C45 C 0.41392 0.92432 0.35239 0.0
N46 N 0.42882 0.92862 0.41172 0.0
O47 O 0.43768 0.88344 0.18673 0.0
H48 H 0.4636 0.92867 0.26453 0.0
H49 H 0.39518 0.9193 0.35903 0.0
O50 O 0.43861 0.94031 0.14047 0.0
C51 C 0.4306 0.86359 0.23091 0.0
O52 O 0.41044 0.86715 0.26832 0.0
N53 N 0.39011 0.94182 0.18781 0.0
C54 C 0.34603 0.97065 0.18586 0.0
C55 C 0.36515 0.97979 0.13992 0.0
C56 C 0.38705 0.96482 0.14098 0.0
C57 C 0.37126 0.93197 0.22928 0.0
C58 C 0.3494 0.94634 0.23073 0.0
H59 H 0.40089 0.97087 0.10138 0.0
H60 H 0.37273 0.91173 0.25811 0.0
H61 H 0.42889 0.92328 0.01333 0.0
H62 H 0.36755 0.87382 0.97095 0.0
H63 H 0.46728 0.93419 0.41279 0.0
H64 H 0.36306 0.99795 0.10254 0.0
H65 H 0.33482 0.9376 0.264 0.0
C66 C 0.14169 0.38784 0.43585 0.0
C67 C 0.14437 0.38512 0.51325 0.0
N68 N 0.12528 0.3974 0.54713 0.0
N69 N 0.12115 0.40199 0.42111 0.0
C70 C 0.11147 0.40728 0.48996 0.0
H71 H 0.15418 0.38057 0.39301 0.0
Co72 Co 0.11069 0.41338 0.32556 0.0
C73 C 0.08028 0.46486 0.3591 0.0
O74 O 0.09076 0.47911 0.30415 0.0
N75 N 0.09975 0.4242 0.22764 0.0
C76 C 0.07398 0.43095 0.13276 0.0
C77 C 0.07653 0.42913 0.20995 0.0
C78 C 0.1108 0.42232 0.15926 0.0
N79 N 0.09553 0.42634 0.1005 0.0
O80 O 0.08801 0.38243 0.32482 0.0
H81 H 0.06192 0.42953 0.25024 0.0
H82 H 0.12917 0.41564 0.15198 0.0
O83 O 0.08679 0.43915 0.3729 0.0
C84 C 0.09545 0.3626 0.28104 0.0
O85 O 0.11587 0.36618 0.24511 0.0
N86 N 0.13522 0.44105 0.32496 0.0
C87 C 0.1798 0.46842 0.33545 0.0
C88 C 0.16018 0.47765 0.37931 0.0
C89 C 0.13814 0.46325 0.37447 0.0
C90 C 0.15418 0.43182 0.28278 0.0
C91 C 0.17634 0.44545 0.28585 0.0
H92 H 0.12419 0.46877 0.4143 0.0
H93 H 0.15274 0.41225 0.25092 0.0
H94 H 0.09498 0.41901 0.49851 0.0
H95 H 0.15922 0.37498 0.54223 0.0
H96 H 0.05723 0.43418 0.10302 0.0
H97 H 0.16224 0.49467 0.42031 0.0
H98 H 0.19092 0.43727 0.25148 0.0
C99 C 0.38809 0.6422 0.4384 0.0
C100 C 0.38474 0.64403 0.51569 0.0
N101 N 0.39941 0.625 0.54976 0.0
N102 N 0.40479 0.62218 0.42369 0.0
C103 C 0.4114 0.61218 0.49244 0.0
H104 H 0.37861 0.65423 0.39544 0.0
Co105 Co 0.41412 0.61028 0.32765 0.0
C106 C 0.44505 0.55895 0.35822 0.0
O107 O 0.4344 0.54465 0.30367 0.0
N108 N 0.42372 0.59886 0.22926 0.0
C109 C 0.44763 0.59105 0.13006 0.0
C110 C 0.44666 0.59426 0.20741 0.0
C111 C 0.41123 0.5992 0.16338 0.0
N112 N 0.42533 0.59441 0.10239 0.0
O113 O 0.4371 0.64091 0.32367 0.0
H114 H 0.46202 0.59494 0.24477 0.0
H115 H 0.39243 0.60447 0.15914 0.0
O116 O 0.43837 0.58453 0.37285 0.0
C117 C 0.42991 0.66059 0.27898 0.0
O118 O 0.4095 0.65711 0.24295 0.0
N119 N 0.38929 0.58312 0.3303 0.0
C120 C 0.34461 0.55611 0.34176 0.0
C121 C 0.36472 0.54542 0.3808 0.0
C122 C 0.38685 0.55965 0.3757 0.0
C123 C 0.36982 0.59387 0.29335 0.0
C124 C 0.34757 0.58052 0.29699 0.0
H125 H 0.40135 0.55271 0.41175 0.0
H126 H 0.37124 0.61405 0.2641 0.0
H127 H 0.42465 0.59564 0.50037 0.0
H128 H 0.37202 0.65784 0.54406 0.0
H129 H 0.46373 0.58852 0.09635 0.0
H130 H 0.36307 0.52718 0.41808 0.0
H131 H 0.33263 0.58978 0.26631 0.0
C132 C 0.88604 0.88449 0.93955 0.0
C133 C 0.88271 0.88232 0.01677 0.0
N134 N 0.89842 0.89983 0.05167 0.0
N135 N 0.90373 0.90325 0.9256 0.0
C136 C 0.91099 0.91211 0.99482 0.0
H137 H 0.87584 0.87363 0.89613 0.0
Co138 Co 0.91329 0.91512 0.82966 0.0
C139 C 0.94396 0.96633 0.86085 0.0
O140 O 0.93313 0.98059 0.80651 0.0
N141 N 0.92317 0.92648 0.73127 0.0
C142 C 0.94759 0.93425 0.63334 0.0
C143 C 0.94621 0.93096 0.71058 0.0
C144 C 0.91103 0.92625 0.66466 0.0
N145 N 0.92546 0.93105 0.60441 0.0
O146 O 0.9362 0.88428 0.82598 0.0
H147 H 0.96139 0.93016 0.74869 0.0
H148 H 0.89226 0.92111 0.65933 0.0
O149 O 0.93749 0.94071 0.87542 0.0
C150 C 0.92899 0.86468 0.78119 0.0
O151 O 0.90861 0.86834 0.74506 0.0
N152 N 0.88854 0.94254 0.83209 0.0
C153 C 0.8439 0.96982 0.84499 0.0
C154 C 0.86393 0.97977 0.88557 0.0
C155 C 0.88603 0.96541 0.87966 0.0
C156 C 0.86915 0.93251 0.79347 0.0
C157 C 0.84693 0.94605 0.79776 0.0
H158 H 0.90042 0.97167 0.91694 0.0
H159 H 0.87053 0.91264 0.76274 0.0
H160 H 0.92512 0.92748 1.00343 0.0
H161 H 0.86929 0.86938 0.04456 0.0
H162 H 0.96388 0.93675 0.60055 0.0
H163 H 0.86223 0.99746 0.92475 0.0
H164 H 0.83205 0.93735 0.76584 0.0
C165 C 0.63747 0.14363 0.94776 0.0
C166 C 0.64072 0.14584 0.02501 0.0
N167 N 0.6247 0.12872 0.05985 0.0
N168 N 0.61951 0.12523 0.93375 0.0
C169 C 0.61202 0.11663 1.00295 0.0
H170 H 0.64788 0.15422 0.90438 0.0
Co171 Co 0.60982 0.11347 0.83781 0.0
C172 C 0.57921 0.06219 0.86891 0.0
O173 O 0.5899 0.04804 0.81405 0.0
N174 N 0.59978 0.10223 0.73949 0.0
C175 C 0.57519 0.09471 0.64187 0.0
C176 C 0.57669 0.09786 0.71912 0.0
C177 C 0.61183 0.10249 0.67269 0.0
N178 N 0.59729 0.09785 0.61262 0.0
O179 O 0.58694 0.14434 0.83474 0.0
H180 H 0.56158 0.09867 0.7575 0.0
H181 H 0.63061 0.10755 0.66713 0.0
O182 O 0.58572 0.08778 0.88371 0.0
C183 C 0.59434 0.16388 0.7901 0.0
O184 O 0.61478 0.16007 0.75438 0.0
N185 N 0.63458 0.08608 0.83948 0.0
C186 C 0.67926 0.05878 0.85044 0.0
C187 C 0.65933 0.04868 0.89133 0.0
C188 C 0.63722 0.06305 0.88641 0.0
C189 C 0.65387 0.09626 0.80065 0.0
C190 C 0.6761 0.08272 0.80399 0.0
H191 H 0.62291 0.05666 0.92386 0.0
H192 H 0.6524 0.11622 0.77042 0.0
H193 H 0.59763 0.10162 0.01153 0.0
H194 H 0.6543 0.15852 0.05287 0.0
H195 H 0.55885 0.09232 0.60932 0.0
H196 H 0.66114 0.03084 0.92993 0.0
H197 H 0.69089 0.09154 0.77189 0.0
C198 C 0.8925 0.6461 0.57095 0.0
C199 C 0.88945 0.64811 0.49352 0.0
N200 N 0.90086 0.62593 0.46052 0.0
N201 N 0.90575 0.6228 0.58671 0.0
C202 C 0.91046 0.61091 0.51847 0.0
H203 H 0.88576 0.66085 0.61311 0.0
Co204 Co 0.9154 0.61111 0.68275 0.0
C205 C 0.94645 0.56004 0.65156 0.0
O206 O 0.93625 0.54595 0.70733 0.0
N207 N 0.92557 0.59989 0.78099 0.0
C208 C 0.95045 0.59313 0.87821 0.0
C209 C 0.94879 0.59645 0.80109 0.0
C210 C 0.91354 0.59924 0.84782 0.0
N211 N 0.92826 0.59508 0.90781 0.0
O212 O 0.93823 0.64199 0.68538 0.0
H213 H 0.96383 0.59798 0.76256 0.0
H214 H 0.89457 0.60324 0.85335 0.0
O215 O 0.93954 0.58549 0.63653 0.0
C216 C 0.93132 0.66152 0.73103 0.0
O217 O 0.91132 0.65773 0.76913 0.0
N218 N 0.89073 0.58378 0.68172 0.0
C219 C 0.84658 0.55535 0.67907 0.0
C220 C 0.86609 0.54529 0.636 0.0
C221 C 0.88804 0.56003 0.63743 0.0
C222 C 0.8716 0.59439 0.72069 0.0
C223 C 0.84966 0.5803 0.7216 0.0
H224 H 0.90226 0.55305 0.60028 0.0
H225 H 0.87311 0.61479 0.74884 0.0
H226 H 0.92056 0.5914 0.51127 0.0
H227 H 0.88006 0.66499 0.46395 0.0
H228 H 0.96693 0.5914 0.91038 0.0
H229 H 0.86429 0.5265 0.60069 0.0
H230 H 0.83487 0.58964 0.75291 0.0
C231 C 0.64258 0.39215 0.57621 0.0
C232 C 0.64553 0.38953 0.49888 0.0
N233 N 0.62656 0.40179 0.46439 0.0
N234 N 0.62195 0.40619 0.5904 0.0
C235 C 0.6125 0.41155 0.52122 0.0
H236 H 0.65493 0.38487 0.61942 0.0
Co237 Co 0.61115 0.41727 0.68601 0.0
C238 C 0.58098 0.46879 0.65189 0.0
O239 O 0.59157 0.48306 0.7066 0.0
N240 N 0.59983 0.42779 0.7841 0.0
C241 C 0.5737 0.43476 0.87803 0.0
C242 C 0.57659 0.4331 0.80092 0.0
C243 C 0.6105 0.42546 0.85304 0.0
N244 N 0.59502 0.42965 0.91121 0.0
O245 O 0.58859 0.38621 0.68558 0.0
H246 H 0.56217 0.43389 0.76003 0.0
H247 H 0.62871 0.41836 0.86114 0.0
O248 O 0.58731 0.44299 0.63844 0.0
C249 C 0.5961 0.36634 0.72909 0.0
O250 O 0.61655 0.36991 0.76485 0.0
N251 N 0.63553 0.44514 0.68792 0.0
C252 C 0.67926 0.47453 0.68545 0.0
C253 C 0.66048 0.48234 0.63642 0.0
C254 C 0.63877 0.46711 0.63789 0.0
C255 C 0.65406 0.43661 0.73291 0.0
C256 C 0.67572 0.45134 0.73412 0.0
H257 H 0.62528 0.47201 0.59596 0.0
H258 H 0.65273 0.4169 0.76409 0.0
H259 H 0.596 0.42321 0.51227 0.0
H260 H 0.66052 0.37945 0.47039 0.0
H261 H 0.55686 0.43827 0.90706 0.0
H262 H 0.66273 0.49958 0.5962 0.0
H263 H 0.69009 0.44355 0.76996 0.0
H264 H 0.31763 0.98411 0.30685 0.0
H265 H 0.20465 0.03464 0.05849 0.0
H266 H 0.31961 0.98883 0.06269 0.0
H267 H 0.20701 0.03652 0.30294 0.0
H268 H 0.24584 0.0159 0.05718 0.0
H269 H 0.27668 1.00248 0.30504 0.0
C270 C 0.30946 0.98917 0.25276 0.0
C271 C 0.32208 0.98484 0.18482 0.0
C272 C 0.23729 0.02033 0.11106 0.0
C273 C 0.27488 1.00583 0.18215 0.0
C274 C 0.21369 0.03075 0.11187 0.0
C275 C 0.20235 0.03723 0.18096 0.0
C276 C 0.24958 0.01621 0.17985 0.0
C277 C 0.21509 0.03214 0.24833 0.0
C278 C 0.28603 0.99967 0.25172 0.0
C279 C 0.31062 0.99206 0.11645 0.0
N280 N 0.23794 0.02201 0.24603 0.0
N281 N 0.28761 1.00202 0.11679 0.0
H282 H 0.22313 0.44063 0.34074 0.0
H283 H 0.3014 0.58349 0.35851 0.0
H284 H 0.19223 0.52501 0.35173 0.0
H285 H 0.33229 0.49918 0.34452 0.0
H286 H 0.26147 0.56236 0.36286 0.0
H287 H 0.26308 0.46152 0.34853 0.0
C288 C 0.22471 0.46361 0.34441 0.0
C289 C 0.20418 0.4811 0.3444 0.0
C290 C 0.27694 0.54843 0.35904 0.0
C291 C 0.25017 0.50522 0.35444 0.0
C292 C 0.29981 0.56049 0.35612 0.0
C293 C 0.32032 0.54312 0.35 0.0
C294 C 0.27439 0.51868 0.35584 0.0
C295 C 0.31705 0.51342 0.34926 0.0
C296 C 0.2476 0.47551 0.34938 0.0
C297 C 0.20748 0.51068 0.35154 0.0
N298 N 0.29454 0.50217 0.35156 0.0
N299 N 0.23001 0.5218 0.35576 0.0
H300 H 0.72258 0.08606 0.86244 0.0
H301 H 0.80061 0.94245 0.85725 0.0
H302 H 0.69154 1.00183 0.85803 0.0
H303 H 0.83161 0.02671 0.85534 0.0
H304 H 0.76072 0.96375 0.86484 0.0
H305 H 0.76249 0.06471 0.86727 0.0
C306 C 0.72413 0.06303 0.8622 0.0
C307 C 0.70357 0.04573 0.85865 0.0
C308 C 0.77621 0.97763 0.86293 0.0
C309 C 0.7495 0.02106 0.86516 0.0
C310 C 0.79906 0.96548 0.8581 0.0
C311 C 0.8196 0.98281 0.85448 0.0
C312 C 0.7737 1.00742 0.86423 0.0
C313 C 0.81636 1.0125 0.85804 0.0
C314 C 0.74699 0.05085 0.86543 0.0
C315 C 0.70681 0.01602 0.86073 0.0
N316 N 0.79387 0.02384 0.86219 0.0
N317 N 0.72931 1.00464 0.86331 0.0
H318 H 0.82143 0.53466 0.55616 0.0
H319 H 0.70674 0.49126 0.80559 0.0
H320 H 0.81691 0.54452 0.79895 0.0
H321 H 0.70645 0.48949 0.56108 0.0
H322 H 0.7476 0.50973 0.80308 0.0
H323 H 0.7803 0.51589 0.55565 0.0
C324 C 0.81192 0.53254 0.60941 0.0
C325 C 0.82263 0.54127 0.6777 0.0
C326 C 0.73864 0.50548 0.74981 0.0
C327 C 0.77549 0.52019 0.67743 0.0
C328 C 0.71526 0.49492 0.75125 0.0
C329 C 0.70313 0.48877 0.68347 0.0
C330 C 0.75023 0.50981 0.68001 0.0
C331 C 0.71503 0.49418 0.61469 0.0
C332 C 0.78836 0.52211 0.609 0.0
C333 C 0.80931 0.53838 0.74487 0.0
N334 N 0.73799 0.50421 0.61469 0.0
N335 N 0.78653 0.52816 0.74299 0.0
H336 H 0.96235 0.02009 0.84283 0.0
H337 H 0.06177 1.00329 0.1688 0.0
H338 H 0.97105 0.94385 0.97725 0.0
H339 H 0.05266 0.07975 0.03549 0.0
H340 H 0.02886 0.98116 0.09894 0.0
H341 H 0.99533 0.04214 0.91246 0.0
C342 C 0.97115 1.00794 0.88707 0.0
C343 C 0.96382 0.97999 0.90401 0.0
C344 C 0.03405 1.00277 0.08483 0.0
C345 C 1.00185 1.00527 0.98429 0.0
C346 C 0.0529 0.01546 0.12473 0.0
C347 C 0.0601 0.0435 0.10817 0.0
C348 C 0.02216 0.01813 0.02765 0.0
C349 C 0.04783 0.05811 0.05032 0.0
C350 C 0.99005 0.02059 0.92685 0.0
C351 C 0.97601 0.96541 0.96207 0.0
N352 N 0.0295 0.04527 0.0123 0.0
N353 N 0.99439 0.9782 0.99998 0.0
H354 H 0.47154 0.94397 0.03709 0.0
H355 H 0.55274 0.08427 0.98726 0.0
H356 H 0.46354 0.01964 0.1744 0.0
H357 H 0.56061 1.00855 0.85009 0.0
H358 H 0.52011 0.06101 0.05657 0.0
H359 H 0.50407 0.96733 0.9677 0.0
C360 C 0.47655 0.9655 0.05264 0.0
C361 C 0.46469 0.9798 0.11184 0.0
C362 C 0.52898 0.04947 0.01131 0.0
C363 C 0.50212 1.00674 0.03251 0.0
C364 C 0.54766 0.06276 0.97169 0.0
C365 C 0.55952 0.0484 0.91258 0.0
C366 C 0.52201 0.02158 0.99182 0.0
C367 C 0.55206 0.02052 0.89513 0.0
C368 C 0.49519 0.97884 0.01298 0.0
C369 C 0.4721 1.00771 0.1293 0.0
N370 N 0.53384 1.00808 0.93441 0.0
N371 N 0.49029 0.0202 0.08998 0.0
H372 H 0.05402 0.44235 0.47708 0.0
H373 H 0.97161 0.5819 0.53041 0.0
H374 H 0.06154 0.51864 0.34227 0.0
H375 H 0.96601 0.5068 0.67079 0.0
H376 H 1.00413 0.55887 0.45957 0.0
H377 H 0.0215 0.46538 0.54772 0.0
C378 C 0.04891 0.46395 0.46234 0.0
C379 C 0.06065 0.47853 0.40353 0.0
C380 C 0.99579 0.54742 0.5059 0.0
C381 C 0.0232 0.50508 0.48422 0.0
C382 C 0.97718 0.56058 0.54641 0.0
C383 C 0.96601 0.54634 0.60692 0.0
C384 C 1.00334 0.51976 0.5258 0.0
C385 C 0.97404 0.51867 0.62472 0.0
C386 C 0.03027 0.4771 0.50272 0.0
C387 C 0.05309 0.5065 0.38708 0.0
N388 N 0.99215 0.50635 0.58449 0.0
N389 N 0.03489 0.5188 0.42703 0.0
H390 H 0.46377 0.5052 0.34081 0.0
H391 H 0.56283 0.52289 0.66744 0.0
H392 H 0.47182 0.58163 0.47489 0.0
H393 H 0.55387 0.4459 0.53627 0.0
H394 H 0.5299 0.54481 0.59689 0.0
H395 H 0.49676 0.48333 0.41116 0.0
C396 C 0.47243 0.51743 0.38511 0.0
C397 C 0.46492 0.54539 0.40175 0.0
C398 C 0.53512 0.52313 0.58341 0.0
C399 C 0.50296 0.5203 0.48283 0.0
C400 C 0.55399 0.51055 0.6237 0.0
C401 C 0.56123 0.48242 0.60795 0.0
C402 C 0.52327 0.50757 0.52661 0.0
C403 C 0.54899 0.46761 0.55048 0.0
C404 C 0.49133 0.50487 0.42531 0.0
C405 C 0.47694 0.56006 0.45992 0.0
N406 N 0.53066 0.48034 0.51204 0.0
N407 N 0.49532 0.54737 0.49821 0.0
H408 H 0.08165 0.12119 0.89228 0.0
H409 H 0.13771 0.09234 0.48109 0.0
H410 H 0.15784 0.11915 0.84953 0.0
H411 H 0.06249 0.10846 0.52207 0.0
H412 H 0.14556 0.09977 0.6161 0.0
H413 H 0.07437 0.11396 0.75718 0.0
C414 C 0.09687 0.11915 0.85452 0.0
C415 C 0.1204 0.12074 0.88247 0.0
C416 C 0.12735 0.10166 0.59533 0.0
C417 C 0.11219 0.11254 0.72714 0.0
C418 C 0.12284 0.0975 0.51807 0.0
C419 C 0.09937 0.09974 0.48942 0.0
C420 C 0.10826 0.10797 0.64463 0.0
C421 C 0.08082 0.10606 0.54092 0.0
C422 C 0.0927 0.11516 0.77721 0.0
C423 C 0.13941 0.11836 0.83047 0.0
N424 N 0.08568 0.10993 0.6157 0.0
N425 N 0.1349 0.11425 0.7554 0.0
H426 H 0.45053 0.95617 0.52773 0.0
H427 H 0.38107 0.8684 0.8481 0.0
H428 H 0.39489 0.89523 0.47783 0.0
H429 H 0.42583 0.9414 0.89543 0.0
H430 H 0.38686 0.87661 0.71267 0.0
H431 H 0.44284 0.9497 0.66321 0.0
C432 C 0.43665 0.94148 0.54536 0.0
C433 C 0.42334 0.92625 0.49139 0.0
C434 C 0.39537 0.89083 0.75285 0.0
C435 C 0.41445 0.91859 0.64643 0.0
C436 C 0.39201 0.88622 0.83044 0.0
C437 C 0.40301 0.90412 0.88411 0.0
C438 C 0.40994 0.91342 0.72836 0.0
C439 C 0.41727 0.92665 0.85696 0.0
C440 C 0.4322 0.93785 0.62266 0.0
C441 C 0.40539 0.90767 0.51736 0.0
N442 N 0.42036 0.93057 0.78123 0.0
N443 N 0.40158 0.90421 0.59301 0.0
H444 H 0.08222 0.40172 0.61786 0.0
H445 H 0.1389 0.42894 0.02877 0.0
H446 H 0.15845 0.40102 0.65997 0.0
H447 H 0.06347 0.41472 0.9878 0.0
H448 H 0.14665 0.42116 0.89374 0.0
H449 H 0.07519 0.40918 0.75298 0.0
C450 C 0.0975 0.40321 0.65549 0.0
C451 C 0.12097 0.40078 0.62735 0.0
C452 C 0.12841 0.41978 0.91455 0.0
C453 C 0.11305 0.40925 0.78276 0.0
C454 C 0.12396 0.42413 0.99182 0.0
C455 C 0.10045 0.42256 0.02049 0.0
C456 C 0.10923 0.41394 0.86529 0.0
C457 C 0.08183 0.41664 0.96901 0.0
C458 C 0.09348 0.40733 0.73283 0.0
C459 C 0.14006 0.40247 0.6792 0.0
N460 N 0.08663 0.41259 0.89427 0.0
N461 N 0.13569 0.40673 0.75433 0.0
H462 H 0.39205 0.62972 0.03999 0.0
H463 H 0.41951 0.57811 0.61673 0.0
H464 H 0.44445 0.5652 0.9847 0.0
H465 H 0.3841 0.65793 0.66826 0.0
H466 H 0.42422 0.56938 0.75168 0.0
H467 H 0.38395 0.63613 0.90446 0.0
C468 C 0.40159 0.61661 0.99937 0.0
C469 C 0.41896 0.59688 0.0235 0.0
C470 C 0.41541 0.5888 0.73334 0.0
C471 C 0.40994 0.60426 0.86859 0.0
C472 C 0.41281 0.59397 0.65589 0.0
C473 C 0.40159 0.61907 0.63004 0.0
C474 C 0.40656 0.60865 0.78594 0.0
C475 C 0.39275 0.63825 0.68479 0.0
C476 C 0.39712 0.62046 0.92206 0.0
C477 C 0.43108 0.5808 0.96835 0.0
N478 N 0.39545 0.63265 0.76002 0.0
N479 N 0.42634 0.58482 0.89352 0.0
H480 H 0.88149 0.86726 0.16842 0.0
H481 H 0.94551 0.96029 0.48862 0.0
H482 H 0.92084 0.94458 0.12118 0.0
H483 H 0.89229 0.89646 0.53891 0.0
H484 H 0.93777 0.95367 0.35318 0.0
H485 H 0.88616 0.87641 0.30379 0.0
C486 C 0.89099 0.88623 0.18599 0.0
C487 C 0.90086 0.90504 0.13229 0.0
C488 C 0.92763 0.94125 0.39379 0.0
C489 C 0.90653 0.91541 0.28816 0.0
C490 C 0.93211 0.94498 0.47103 0.0
C491 C 0.91953 0.92892 0.52504 0.0
C492 C 0.91066 0.921 0.3701 0.0
C493 C 0.9022 0.9095 0.49925 0.0
C494 C 0.89369 0.89139 0.26362 0.0
C495 C 0.91325 0.92909 0.15955 0.0
N496 N 0.89842 0.9059 0.42359 0.0
N497 N 0.9158 0.93346 0.23532 0.0
H498 H 0.57687 0.069 0.49673 0.0
H499 H 0.6419 0.16111 0.1766 0.0
H500 H 0.63063 0.13221 0.54708 0.0
H501 H 0.6016 0.08448 0.12933 0.0
H502 H 0.637 0.15215 0.31199 0.0
H503 H 0.58457 0.07565 0.36129 0.0
C504 C 0.59038 0.08419 0.47915 0.0
C505 C 0.60312 0.10005 0.53319 0.0
C506 C 0.62931 0.13729 0.27179 0.0
C507 C 0.61196 0.10798 0.37825 0.0
C508 C 0.63214 0.14234 0.19417 0.0
C509 C 0.62209 0.12366 0.14046 0.0
C510 C 0.61616 0.1135 0.29632 0.0
C511 C 0.60936 0.09987 0.16771 0.0
C512 C 0.59483 0.08793 0.40191 0.0
C513 C 0.62058 0.11931 0.50741 0.0
N514 N 0.6067 0.09558 0.24346 0.0
N515 N 0.62435 0.12291 0.43175 0.0
H516 H 0.87172 0.64393 0.34583 0.0
H517 H 0.95215 0.57004 0.02393 0.0
H518 H 0.93559 0.59447 0.39082 0.0
H519 H 0.89117 0.62371 0.97449 0.0
H520 H 0.94442 0.57612 0.15915 0.0
H521 H 0.87687 0.6346 0.21031 0.0
C522 C 0.88683 0.63116 0.32747 0.0
C523 C 0.90323 0.62003 0.38035 0.0
C524 C 0.93263 0.58648 0.11882 0.0
C525 C 0.90909 0.60901 0.22492 0.0
C526 C 0.93709 0.58306 0.04149 0.0
C527 C 0.92242 0.59652 0.98753 0.0
C528 C 0.91334 0.60357 0.14287 0.0
C529 C 0.90287 0.61274 0.0138 0.0
C530 C 0.88968 0.62571 0.24998 0.0
C531 C 0.92227 0.60324 0.35281 0.0
N532 N 0.899 0.61596 0.08957 0.0
N533 N 0.92468 0.59835 0.27724 0.0
H534 H 0.66016 0.4048 0.35264 0.0
H535 H 0.56232 0.41892 0.02282 0.0
H536 H 0.58378 0.40663 0.39178 0.0
H537 H 0.63815 0.43126 0.98477 0.0
H538 H 0.57023 0.41215 0.15694 0.0
H539 H 0.65284 0.41155 0.2169 0.0
C540 C 0.64185 0.40642 0.33273 0.0
C541 C 0.62255 0.40515 0.38393 0.0
C542 C 0.58516 0.4164 0.11935 0.0
C543 C 0.61405 0.4131 0.22849 0.0
C544 C 0.58065 0.42048 0.0423 0.0
C545 C 0.59956 0.42585 0.99148 0.0
C546 C 0.60879 0.41749 0.14655 0.0
C547 C 0.62298 0.42691 0.02114 0.0
C548 C 0.63769 0.41049 0.25524 0.0
C549 C 0.59921 0.40781 0.35477 0.0
N550 N 0.62692 0.42274 0.09658 0.0
N551 N 0.59564 0.41158 0.27916 0.0
H552 H 0.07542 0.19334 0.11562 0.0
H553 H 0.07513 0.32921 0.3916 0.0
H554 H 0.08797 0.18959 0.35651 0.0
H555 H 0.08904 0.33275 0.15142 0.0
H556 H 0.06512 0.2783 0.37851 0.0
H557 H 0.06569 0.24439 0.12818 0.0
C558 C 0.07527 0.20304 0.1714 0.0
C559 C 0.08265 0.18745 0.23506 0.0
C560 C 0.06974 0.29047 0.3284 0.0
C561 C 0.0718 0.2455 0.24988 0.0
C562 C 0.07523 0.31951 0.33582 0.0
C563 C 0.08307 0.33498 0.27257 0.0
C564 C 0.0719 0.27709 0.25716 0.0
C565 C 0.08326 0.32138 0.20164 0.0
C566 C 0.06994 0.23216 0.17853 0.0
C567 C 0.08253 0.20105 0.30599 0.0
N568 N 0.07803 0.29317 0.19591 0.0
N569 N 0.07747 0.22934 0.31144 0.0
H570 H 0.44978 0.83038 0.11773 0.0
H571 H 0.45073 0.69349 0.38968 0.0
H572 H 0.43804 0.83322 0.35914 0.0
H573 H 0.43599 0.6909 0.14991 0.0
H574 H 0.46083 0.74438 0.3777 0.0
H575 H 0.45949 0.77927 0.12846 0.0
C576 C 0.45011 0.82047 0.17322 0.0
C577 C 0.44297 0.83583 0.23759 0.0
C578 C 0.45601 0.73243 0.32741 0.0
C579 C 0.45379 0.7777 0.25031 0.0
C580 C 0.45046 0.70339 0.33418 0.0
C581 C 0.44236 0.68818 0.27078 0.0
C582 C 0.45365 0.74608 0.25665 0.0
C583 C 0.44198 0.70205 0.20025 0.0
C584 C 0.45543 0.79131 0.17931 0.0
C585 C 0.44331 0.82196 0.30811 0.0
N586 N 0.44727 0.73026 0.19516 0.0
N587 N 0.44835 0.79364 0.31255 0.0
H588 H 0.95016 0.83167 0.89123 0.0
H589 H 0.94976 0.6951 0.61776 0.0
H590 H 0.93483 0.8344 0.65183 0.0
H591 H 0.9389 0.69172 0.85952 0.0
H592 H 0.95892 0.74628 0.62886 0.0
H593 H 0.9606 0.78082 0.87857 0.0
C594 C 0.94982 0.82181 0.83566 0.0
C595 C 0.94147 0.83705 0.77257 0.0
C596 C 0.95518 0.73412 0.67969 0.0
C597 C 0.95315 0.77921 0.75766 0.0
C598 C 0.95019 0.70491 0.67339 0.0
C599 C 0.94345 0.68936 0.73778 0.0
C600 C 0.95362 0.7476 0.75092 0.0
C601 C 0.94387 0.70312 0.80848 0.0
C602 C 0.95556 0.7928 0.8285 0.0
C603 C 0.941 0.82323 0.70195 0.0
N604 N 0.94858 0.7315 0.81313 0.0
N605 N 0.9465 0.79505 0.69648 0.0
H606 H 0.57478 0.19821 0.90017 0.0
H607 H 0.57569 0.33258 0.6194 0.0
H608 H 0.58746 0.19298 0.65953 0.0
H609 H 0.58943 0.33717 0.85954 0.0
H610 H 0.56529 0.28184 0.6341 0.0
H611 H 0.56535 0.24926 0.88562 0.0
C612 C 0.5747 0.20758 0.84402 0.0
C613 C 0.58203 0.19157 0.781 0.0
C614 C 0.56996 0.29421 0.68383 0.0
C615 C 0.57156 0.24963 0.76393 0.0
C616 C 0.57568 0.32315 0.67548 0.0
C617 C 0.58358 0.33885 0.73828 0.0
C618 C 0.57193 0.28117 0.75554 0.0
C619 C 0.5836 0.32561 0.80965 0.0
C620 C 0.56955 0.2367 0.83575 0.0
C621 C 0.58203 0.20476 0.70955 0.0
N622 N 0.57814 0.29749 0.81628 0.0
N623 N 0.57716 0.23306 0.70301 0.0
loop_
_geom_bond_atom_site_label_1
_geom_bond_atom_site_label_2
_geom_bond_distance
_geom_bond_site_symmetry_2
_ccdc_geom_bond_type
C0 C1 1.351 . S
C0 N3 1.368 1_556 S
C0 H5 0.931 1_556 S
C1 C0 1.351 . S
C1 N2 1.373 . S
C1 H29 0.930 . S
N2 C1 1.373 . S
N2 C4 1.340 . S
N3 C0 1.368 1_554 S
N3 C4 1.321 1_554 S
N3 Co6 2.135 . S
C4 N2 1.340 . S
C4 N3 1.321 1_556 S
C4 H28 0.930 . S
H5 C0 0.931 1_554 S
Co6 N3 2.135 . S
Co6 N9 2.121 . S
Co6 O14 2.055 . S
Co6 O17 2.039 . S
Co6 N20 2.140 . S
C7 O8 1.227 . S
C7 O17 1.265 . S
O8 C7 1.227 . S
N9 Co6 2.121 . S
N9 C11 1.375 . S
N9 C12 1.313 . S
C10 C11 1.338 . S
C10 N13 1.377 . S
C10 H30 0.930 . S
C11 N9 1.375 . S
C11 C10 1.338 . S
C11 H15 0.931 . S
C12 N9 1.313 . S
C12 N13 1.344 . S
C12 H16 0.930 . S
N13 C10 1.377 . S
N13 C12 1.344 . S
O14 Co6 2.055 . S
O14 C18 1.253 . S
H15 C11 0.931 . S
H16 C12 0.930 . S
O17 Co6 2.039 . S
O17 C7 1.265 . S
C18 O14 1.253 . S
C18 O19 1.227 . S
O19 C18 1.227 . S
N20 Co6 2.140 . S
N20 C23 1.346 . S
N20 C24 1.345 . S
C21 C22 1.387 . S
C21 C25 1.391 . S
C22 C21 1.387 . S
C22 C23 1.369 . S
C22 H31 0.929 . S
C23 N20 1.346 . S
C23 C22 1.369 . S
C23 H26 0.928 . S
C24 N20 1.345 . S
C24 C25 1.371 . S
C24 H27 0.931 . S
C25 C21 1.391 . S
C25 C24 1.371 . S
C25 H32 0.930 . S
H26 C23 0.928 . S
H27 C24 0.931 . S
H28 C4 0.930 . S
H29 C1 0.930 . S
H30 C10 0.930 . S
H31 C22 0.929 . S
H32 C25 0.930 . S
C33 C34 1.351 . S
C33 N36 1.368 1_556 S
C33 H38 0.931 1_556 S
C34 C33 1.351 . S
C34 N35 1.373 . S
C34 H62 0.930 . S
N35 C34 1.373 . S
N35 C37 1.340 . S
N36 C33 1.368 1_554 S
N36 C37 1.321 1_554 S
N36 Co39 2.135 . S
C37 N35 1.340 . S
C37 N36 1.321 1_556 S
C37 H61 0.930 . S
H38 C33 0.931 1_554 S
Co39 N36 2.135 . S
Co39 N42 2.121 . S
Co39 O47 2.055 . S
Co39 O50 2.039 . S
Co39 N53 2.140 . S
C40 O41 1.227 . S
C40 O50 1.265 . S
O41 C40 1.227 . S
N42 Co39 2.121 . S
N42 C44 1.375 . S
N42 C45 1.313 . S
C43 C44 1.338 . S
C43 N46 1.377 . S
C43 H63 0.930 . S
C44 N42 1.375 . S
C44 C43 1.338 . S
C44 H48 0.931 . S
C45 N42 1.313 . S
C45 N46 1.344 . S
C45 H49 0.930 . S
N46 C43 1.377 . S
N46 C45 1.344 . S
O47 Co39 2.055 . S
O47 C51 1.253 . S
H48 C44 0.931 . S
H49 C45 0.930 . S
O50 Co39 2.039 . S
O50 C40 1.265 . S
C51 O47 1.253 . S
C51 O52 1.227 . S
O52 C51 1.227 . S
N53 Co39 2.140 . S
N53 C56 1.346 . S
N53 C57 1.345 . S
C54 C55 1.387 . S
C54 C58 1.391 . S
C55 C54 1.387 . S
C55 C56 1.369 . S
C55 H64 0.929 . S
C56 N53 1.346 . S
C56 C55 1.369 . S
C56 H59 0.928 . S
C57 N53 1.345 . S
C57 C58 1.371 . S
C57 H60 0.931 . S
C58 C54 1.391 . S
C58 C57 1.371 . S
C58 H65 0.930 . S
H59 C56 0.928 . S
H60 C57 0.931 . S
H61 C37 0.930 . S
H62 C34 0.930 . S
H63 C43 0.930 . S
H64 C55 0.929 . S
H65 C58 0.930 . S
C66 C67 1.351 . S
C66 N69 1.368 . S
C66 H71 0.931 . S
C67 C66 1.351 . S
C67 N68 1.373 . S
C67 H95 0.930 . S
N68 C67 1.373 . S
N68 C70 1.340 . S
N69 C66 1.368 . S
N69 C70 1.321 . S
N69 Co72 2.135 . S
C70 N68 1.340 . S
C70 N69 1.321 . S
C70 H94 0.930 . S
H71 C66 0.931 . S
Co72 N69 2.135 . S
Co72 N75 2.121 . S
Co72 O80 2.055 . S
Co72 O83 2.039 . S
Co72 N86 2.140 . S
C73 O74 1.227 . S
C73 O83 1.265 . S
O74 C73 1.227 . S
N75 Co72 2.121 . S
N75 C77 1.375 . S
N75 C78 1.313 . S
C76 C77 1.338 . S
C76 N79 1.377 . S
C76 H96 0.930 . S
C77 N75 1.375 . S
C77 C76 1.338 . S
C77 H81 0.931 . S
C78 N75 1.313 . S
C78 N79 1.344 . S
C78 H82 0.930 . S
N79 C76 1.377 . S
N79 C78 1.344 . S
O80 Co72 2.055 . S
O80 C84 1.253 . S
H81 C77 0.931 . S
H82 C78 0.930 . S
O83 Co72 2.039 . S
O83 C73 1.265 . S
C84 O80 1.253 . S
C84 O85 1.227 . S
O85 C84 1.227 . S
N86 Co72 2.140 . S
N86 C89 1.346 . S
N86 C90 1.345 . S
C87 C88 1.387 . S
C87 C91 1.391 . S
C88 C87 1.387 . S
C88 C89 1.369 . S
C88 H97 0.929 . S
C89 N86 1.346 . S
C89 C88 1.369 . S
C89 H92 0.928 . S
C90 N86 1.345 . S
C90 C91 1.371 . S
C90 H93 0.931 . S
C91 C87 1.391 . S
C91 C90 1.371 . S
C91 H98 0.930 . S
H92 C89 0.928 . S
H93 C90 0.931 . S
H94 C70 0.930 . S
H95 C67 0.930 . S
H96 C76 0.930 . S
H97 C88 0.929 . S
H98 C91 0.930 . S
C99 C100 1.351 . S
C99 N102 1.368 . S
C99 H104 0.931 . S
C100 C99 1.351 . S
C100 N101 1.373 . S
C100 H128 0.930 . S
N101 C100 1.373 . S
N101 C103 1.340 . S
N102 C99 1.368 . S
N102 C103 1.321 . S
N102 Co105 2.135 . S
C103 N101 1.340 . S
C103 N102 1.321 . S
C103 H127 0.930 . S
H104 C99 0.931 . S
Co105 N102 2.135 . S
Co105 N108 2.121 . S
Co105 O113 2.055 . S
Co105 O116 2.039 . S
Co105 N119 2.140 . S
C106 O107 1.227 . S
C106 O116 1.265 . S
O107 C106 1.227 . S
N108 Co105 2.121 . S
N108 C110 1.375 . S
N108 C111 1.313 . S
C109 C110 1.338 . S
C109 N112 1.377 . S
C109 H129 0.930 . S
C110 N108 1.375 . S
C110 C109 1.338 . S
C110 H114 0.931 . S
C111 N108 1.313 . S
C111 N112 1.344 . S
C111 H115 0.930 . S
N112 C109 1.377 . S
N112 C111 1.344 . S
O113 Co105 2.055 . S
O113 C117 1.253 . S
H114 C110 0.931 . S
H115 C111 0.930 . S
O116 Co105 2.039 . S
O116 C106 1.265 . S
C117 O113 1.253 . S
C117 O118 1.227 . S
O118 C117 1.227 . S
N119 Co105 2.140 . S
N119 C122 1.346 . S
N119 C123 1.345 . S
C120 C121 1.387 . S
C120 C124 1.391 . S
C121 C120 1.387 . S
C121 C122 1.369 . S
C121 H130 0.929 . S
C122 N119 1.346 . S
C122 C121 1.369 . S
C122 H125 0.928 . S
C123 N119 1.345 . S
C123 C124 1.371 . S
C123 H126 0.931 . S
C124 C120 1.391 . S
C124 C123 1.371 . S
C124 H131 0.930 . S
H125 C122 0.928 . S
H126 C123 0.931 . S
H127 C103 0.930 . S
H128 C100 0.930 . S
H129 C109 0.930 . S
H130 C121 0.929 . S
H131 C124 0.930 . S
C132 C133 1.351 . S
C132 N135 1.368 1_554 S
C132 H137 0.931 1_554 S
C133 C132 1.351 . S
C133 N134 1.373 . S
C133 H161 0.930 . S
N134 C133 1.373 . S
N134 C136 1.340 . S
N135 C132 1.368 1_556 S
N135 C136 1.321 1_556 S
N135 Co138 2.135 . S
C136 N134 1.340 . S
C136 N135 1.321 1_554 S
C136 H160 0.930 . S
H137 C132 0.931 1_556 S
Co138 N135 2.135 . S
Co138 N141 2.121 . S
Co138 O146 2.055 . S
Co138 O149 2.039 . S
Co138 N152 2.140 . S
C139 O140 1.227 . S
C139 O149 1.265 . S
O140 C139 1.227 . S
N141 Co138 2.121 . S
N141 C143 1.375 . S
N141 C144 1.313 . S
C142 C143 1.338 . S
C142 N145 1.377 . S
C142 H162 0.930 . S
C143 N141 1.375 . S
C143 C142 1.338 . S
C143 H147 0.931 . S
C144 N141 1.313 . S
C144 N145 1.344 . S
C144 H148 0.930 . S
N145 C142 1.377 . S
N145 C144 1.344 . S
O146 Co138 2.055 . S
O146 C150 1.253 . S
H147 C143 0.931 . S
H148 C144 0.930 . S
O149 Co138 2.039 . S
O149 C139 1.265 . S
C150 O146 1.253 . S
C150 O151 1.227 . S
O151 C150 1.227 . S
N152 Co138 2.140 . S
N152 C155 1.346 . S
N152 C156 1.345 . S
C153 C154 1.387 . S
C153 C157 1.391 . S
C154 C153 1.387 . S
C154 C155 1.369 . S
C154 H163 0.929 . S
C155 N152 1.346 . S
C155 C154 1.369 . S
C155 H158 0.928 . S
C156 N152 1.345 . S
C156 C157 1.371 . S
C156 H159 0.931 . S
C157 C153 1.391 . S
C157 C156 1.371 . S
C157 H164 0.930 . S
H158 C155 0.928 . S
H159 C156 0.931 . S
H160 C136 0.930 . S
H161 C133 0.930 . S
H162 C142 0.930 . S
H163 C154 0.929 . S
H164 C157 0.930 . S
C165 C166 1.351 . S
C165 N168 1.368 1_554 S
C165 H170 0.931 1_554 S
C166 C165 1.351 . S
C166 N167 1.373 . S
C166 H194 0.930 . S
N167 C166 1.373 . S
N167 C169 1.340 . S
N168 C165 1.368 1_556 S
N168 C169 1.321 1_556 S
N168 Co171 2.135 . S
C169 N167 1.340 . S
C169 N168 1.321 1_554 S
C169 H193 0.930 . S
H170 C165 0.931 1_556 S
Co171 N168 2.135 . S
Co171 N174 2.121 . S
Co171 O179 2.055 . S
Co171 O182 2.039 . S
Co171 N185 2.140 . S
C172 O173 1.227 . S
C172 O182 1.265 . S
O173 C172 1.227 . S
N174 Co171 2.121 . S
N174 C176 1.375 . S
N174 C177 1.313 . S
C175 C176 1.338 . S
C175 N178 1.377 . S
C175 H195 0.930 . S
C176 N174 1.375 . S
C176 C175 1.338 . S
C176 H180 0.931 . S
C177 N174 1.313 . S
C177 N178 1.344 . S
C177 H181 0.930 . S
N178 C175 1.377 . S
N178 C177 1.344 . S
O179 Co171 2.055 . S
O179 C183 1.253 . S
H180 C176 0.931 . S
H181 C177 0.930 . S
O182 Co171 2.039 . S
O182 C172 1.265 . S
C183 O179 1.253 . S
C183 O184 1.227 . S
O184 C183 1.227 . S
N185 Co171 2.140 . S
N185 C188 1.346 . S
N185 C189 1.345 . S
C186 C187 1.387 . S
C186 C190 1.391 . S
C187 C186 1.387 . S
C187 C188 1.369 . S
C187 H196 0.929 . S
C188 N185 1.346 . S
C188 C187 1.369 . S
C188 H191 0.928 . S
C189 N185 1.345 . S
C189 C190 1.371 . S
C189 H192 0.931 . S
C190 C186 1.391 . S
C190 C189 1.371 . S
C190 H197 0.930 . S
H191 C188 0.928 . S
H192 C189 0.931 . S
H193 C169 0.930 . S
H194 C166 0.930 . S
H195 C175 0.930 . S
H196 C187 0.929 . S
H197 C190 0.930 . S
C198 C199 1.351 . S
C198 N201 1.368 . S
C198 H203 0.931 . S
C199 C198 1.351 . S
C199 N200 1.373 . S
C199 H227 0.930 . S
N200 C199 1.373 . S
N200 C202 1.340 . S
N201 C198 1.368 . S
N201 C202 1.321 . S
N201 Co204 2.135 . S
C202 N200 1.340 . S
C202 N201 1.321 . S
C202 H226 0.930 . S
H203 C198 0.931 . S
Co204 N201 2.135 . S
Co204 N207 2.121 . S
Co204 O212 2.055 . S
Co204 O215 2.039 . S
Co204 N218 2.140 . S
C205 O206 1.227 . S
C205 O215 1.265 . S
O206 C205 1.227 . S
N207 Co204 2.121 . S
N207 C209 1.375 . S
N207 C210 1.313 . S
C208 C209 1.338 . S
C208 N211 1.377 . S
C208 H228 0.930 . S
C209 N207 1.375 . S
C209 C208 1.338 . S
C209 H213 0.931 . S
C210 N207 1.313 . S
C210 N211 1.344 . S
C210 H214 0.930 . S
N211 C208 1.377 . S
N211 C210 1.344 . S
O212 Co204 2.055 . S
O212 C216 1.253 . S
H213 C209 0.931 . S
H214 C210 0.930 . S
O215 Co204 2.039 . S
O215 C205 1.265 . S
C216 O212 1.253 . S
C216 O217 1.227 . S
O217 C216 1.227 . S
N218 Co204 2.140 . S
N218 C221 1.346 . S
N218 C222 1.345 . S
C219 C220 1.387 . S
C219 C223 1.391 . S
C220 C219 1.387 . S
C220 C221 1.369 . S
C220 H229 0.929 . S
C221 N218 1.346 . S
C221 C220 1.369 . S
C221 H224 0.928 . S
C222 N218 1.345 . S
C222 C223 1.371 . S
C222 H225 0.931 . S
C223 C219 1.391 . S
C223 C222 1.371 . S
C223 H230 0.930 . S
H224 C221 0.928 . S
H225 C222 0.931 . S
H226 C202 0.930 . S
H227 C199 0.930 . S
H228 C208 0.930 . S
H229 C220 0.929 . S
H230 C223 0.930 . S
C231 C232 1.351 . S
C231 N234 1.368 . S
C231 H236 0.931 . S
C232 C231 1.351 . S
C232 N233 1.373 . S
C232 H260 0.930 . S
N233 C232 1.373 . S
N233 C235 1.340 . S
N234 C231 1.368 . S
N234 C235 1.321 . S
N234 Co237 2.135 . S
C235 N233 1.340 . S
C235 N234 1.321 . S
C235 H259 0.930 . S
H236 C231 0.931 . S
Co237 N234 2.135 . S
Co237 N240 2.121 . S
Co237 O245 2.055 . S
Co237 O248 2.039 . S
Co237 N251 2.140 . S
C238 O239 1.227 . S
C238 O248 1.265 . S
O239 C238 1.227 . S
N240 Co237 2.121 . S
N240 C242 1.375 . S
N240 C243 1.313 . S
C241 C242 1.338 . S
C241 N244 1.377 . S
C241 H261 0.930 . S
C242 N240 1.375 . S
C242 C241 1.338 . S
C242 H246 0.931 . S
C243 N240 1.313 . S
C243 N244 1.344 . S
C243 H247 0.930 . S
N244 C241 1.377 . S
N244 C243 1.344 . S
O245 Co237 2.055 . S
O245 C249 1.253 . S
H246 C242 0.931 . S
H247 C243 0.930 . S
O248 Co237 2.039 . S
O248 C238 1.265 . S
C249 O245 1.253 . S
C249 O250 1.227 . S
O250 C249 1.227 . S
N251 Co237 2.140 . S
N251 C254 1.346 . S
N251 C255 1.345 . S
C252 C253 1.387 . S
C252 C256 1.391 . S
C253 C252 1.387 . S
C253 C254 1.369 . S
C253 H262 0.929 . S
C254 N251 1.346 . S
C254 C253 1.369 . S
C254 H257 0.928 . S
C255 N251 1.345 . S
C255 C256 1.371 . S
C255 H258 0.931 . S
C256 C252 1.391 . S
C256 C255 1.371 . S
C256 H263 0.930 . S
H257 C254 0.928 . S
H258 C255 0.931 . S
H259 C235 0.930 . S
H260 C232 0.930 . S
H261 C241 0.930 . S
H262 C253 0.929 . S
H263 C256 0.930 . S
H264 C270 0.930 . S
H265 C274 0.930 1_556 S
H266 C279 0.929 1_556 S
H267 C277 0.929 . S
H268 C272 0.929 1_556 S
H269 C278 0.929 . S
C270 H264 0.930 . S
C270 C271 1.367 . S
C270 C278 1.378 . S
C271 C270 1.367 . S
C271 C279 1.433 . S
C272 H268 0.929 1_554 S
C272 C274 1.378 . S
C272 C276 1.350 . S
C273 C276 1.463 1_565 S
C273 C278 1.350 . S
C273 N281 1.427 . S
C274 H265 0.930 1_554 S
C274 C272 1.378 . S
C274 C275 1.367 . S
C275 C274 1.367 . S
C275 C277 1.433 . S
C276 C272 1.350 . S
C276 C273 1.463 1_545 S
C276 N280 1.427 . S
C277 H267 0.929 . S
C277 C275 1.433 . S
C277 N280 1.384 . S
C278 H269 0.929 . S
C278 C270 1.378 . S
C278 C273 1.350 . S
C279 H266 0.929 1_554 S
C279 C271 1.433 . S
C279 N281 1.384 . S
N280 C276 1.427 . S
N280 C277 1.384 . S
N281 C273 1.427 . S
N281 C279 1.384 . S
H282 C288 0.930 . S
H283 C292 0.930 . S
H284 C297 0.929 . S
H285 C295 0.929 . S
H286 C290 0.929 . S
H287 C296 0.929 . S
C288 H282 0.930 . S
C288 C289 1.367 . S
C288 C296 1.378 . S
C289 C288 1.367 . S
C289 C297 1.433 . S
C290 H286 0.929 . S
C290 C292 1.378 . S
C290 C294 1.350 . S
C291 C294 1.463 . S
C291 C296 1.350 . S
C291 N299 1.427 . S
C292 H283 0.930 . S
C292 C290 1.378 . S
C292 C293 1.367 . S
C293 C292 1.367 . S
C293 C295 1.433 . S
C294 C290 1.350 . S
C294 C291 1.463 . S
C294 N298 1.427 . S
C295 H285 0.929 . S
C295 C293 1.433 . S
C295 N298 1.384 . S
C296 H287 0.929 . S
C296 C288 1.378 . S
C296 C291 1.350 . S
C297 H284 0.929 . S
C297 C289 1.433 . S
C297 N299 1.384 . S
N298 C294 1.427 . S
N298 C295 1.384 . S
N299 C291 1.427 . S
N299 C297 1.384 . S
H300 C306 0.930 . S
H301 C310 0.930 . S
H302 C315 0.929 1_565 S
H303 C313 0.929 1_545 S
H304 C308 0.929 . S
H305 C314 0.929 . S
C306 H300 0.930 . S
C306 C307 1.367 . S
C306 C314 1.378 . S
C307 C306 1.367 . S
C307 C315 1.433 . S
C308 H304 0.929 . S
C308 C310 1.378 . S
C308 C312 1.350 . S
C309 C312 1.463 1_545 S
C309 C314 1.350 . S
C309 N317 1.427 1_545 S
C310 H301 0.930 . S
C310 C308 1.378 . S
C310 C311 1.367 . S
C311 C310 1.367 . S
C311 C313 1.433 . S
C312 C308 1.350 . S
C312 C309 1.463 1_565 S
C312 N316 1.427 1_565 S
C313 H303 0.929 1_565 S
C313 C311 1.433 . S
C313 N316 1.384 1_565 S
C314 H305 0.929 . S
C314 C306 1.378 . S
C314 C309 1.350 . S
C315 H302 0.929 1_545 S
C315 C307 1.433 . S
C315 N317 1.384 1_545 S
N316 C312 1.427 1_545 S
N316 C313 1.384 1_545 S
N317 C309 1.427 1_565 S
N317 C315 1.384 1_565 S
H318 C324 0.930 . S
H319 C328 0.930 . S
H320 C333 0.929 . S
H321 C331 0.929 . S
H322 C326 0.929 . S
H323 C332 0.929 . S
C324 H318 0.930 . S
C324 C325 1.367 . S
C324 C332 1.378 . S
C325 C324 1.367 . S
C325 C333 1.433 . S
C326 H322 0.929 . S
C326 C328 1.378 . S
C326 C330 1.350 . S
C327 C330 1.463 . S
C327 C332 1.350 . S
C327 N335 1.427 . S
C328 H319 0.930 . S
C328 C326 1.378 . S
C328 C329 1.367 . S
C329 C328 1.367 . S
C329 C331 1.433 . S
C330 C326 1.350 . S
C330 C327 1.463 . S
C330 N334 1.427 . S
C331 H321 0.929 . S
C331 C329 1.433 . S
C331 N334 1.384 . S
C332 H323 0.929 . S
C332 C324 1.378 . S
C332 C327 1.350 . S
C333 H320 0.929 . S
C333 C325 1.433 . S
C333 N335 1.384 . S
N334 C330 1.427 . S
N334 C331 1.384 . S
N335 C327 1.427 . S
N335 C333 1.384 . S
H336 C342 0.930 . S
H337 C346 0.930 . S
H338 C351 0.929 . S
H339 C349 0.929 . S
H340 C344 0.929 . S
H341 C350 0.929 . S
C342 H336 0.930 . S
C342 C343 1.367 . S
C342 C350 1.378 1_565 S
C343 C342 1.367 . S
C343 C351 1.433 . S
C344 H340 0.929 . S
C344 C346 1.378 1_565 S
C344 C348 1.350 1_565 S
C345 C348 1.463 1_666 S
C345 C350 1.350 1_565 S
C345 N353 1.427 . S
C346 H337 0.930 . S
C346 C344 1.378 1_545 S
C346 C347 1.367 . S
C347 C346 1.367 . S
C347 C349 1.433 . S
C348 C344 1.350 1_545 S
C348 C345 1.463 1_444 S
C348 N352 1.427 . S
C349 H339 0.929 . S
C349 C347 1.433 . S
C349 N352 1.384 . S
C350 H341 0.929 . S
C350 C342 1.378 1_545 S
C350 C345 1.350 1_545 S
C351 H338 0.929 . S
C351 C343 1.433 . S
C351 N353 1.384 . S
N352 C348 1.427 . S
N352 C349 1.384 . S
N353 C345 1.427 . S
N353 C351 1.384 . S
H354 C360 0.930 . S
H355 C364 0.930 . S
H356 C369 0.929 . S
H357 C367 0.929 . S
H358 C362 0.929 . S
H359 C368 0.929 . S
C360 H354 0.930 . S
C360 C361 1.367 1_556 S
C360 C368 1.378 . S
C361 C360 1.367 1_554 S
C361 C369 1.433 . S
C362 H358 0.929 . S
C362 C364 1.378 . S
C362 C366 1.350 1_554 S
C363 C366 1.463 1_564 S
C363 C368 1.350 1_554 S
C363 N371 1.429 . S
C364 H355 0.930 . S
C364 C362 1.378 . S
C364 C365 1.367 1_554 S
C365 C364 1.367 1_556 S
C365 C367 1.433 . S
C366 C362 1.350 1_556 S
C366 C363 1.463 1_546 S
C366 N370 1.429 . S
C367 H357 0.929 . S
C367 C365 1.433 . S
C367 N370 1.387 . S
C368 H359 0.929 . S
C368 C360 1.378 . S
C368 C363 1.350 1_556 S
C369 H356 0.929 . S
C369 C361 1.433 . S
C369 N371 1.387 . S
N370 C366 1.429 . S
N370 C367 1.387 . S
N371 C363 1.429 . S
N371 C369 1.387 . S
H372 C378 0.930 . S
H373 C382 0.930 . S
H374 C387 0.929 . S
H375 C385 0.929 . S
H376 C380 0.929 1_455 S
H377 C386 0.929 1_655 S
C378 H372 0.930 . S
C378 C379 1.367 . S
C378 C386 1.378 . S
C379 C378 1.367 . S
C379 C387 1.433 . S
C380 H376 0.929 1_655 S
C380 C382 1.378 . S
C380 C384 1.350 . S
C381 C384 1.463 1_455 S
C381 C386 1.350 . S
C381 N389 1.427 . S
C382 H373 0.930 . S
C382 C380 1.378 . S
C382 C383 1.367 . S
C383 C382 1.367 . S
C383 C385 1.433 . S
C384 C380 1.350 . S
C384 C381 1.463 1_655 S
C384 N388 1.427 . S
C385 H375 0.929 . S
C385 C383 1.433 . S
C385 N388 1.384 . S
C386 H377 0.929 1_455 S
C386 C378 1.378 . S
C386 C381 1.350 . S
C387 H374 0.929 . S
C387 C379 1.433 . S
C387 N389 1.384 . S
N388 C384 1.427 . S
N388 C385 1.384 . S
N389 C381 1.427 . S
N389 C387 1.384 . S
H390 C396 0.930 . S
H391 C400 0.930 . S
H392 C405 0.929 . S
H393 C403 0.929 . S
H394 C398 0.929 . S
H395 C404 0.929 . S
C396 H390 0.930 . S
C396 C397 1.367 . S
C396 C404 1.378 . S
C397 C396 1.367 . S
C397 C405 1.433 . S
C398 H394 0.929 . S
C398 C400 1.378 . S
C398 C402 1.350 . S
C399 C402 1.463 . S
C399 C404 1.350 . S
C399 N407 1.427 . S
C400 H391 0.930 . S
C400 C398 1.378 . S
C400 C401 1.367 . S
C401 C400 1.367 . S
C401 C403 1.433 . S
C402 C398 1.350 . S
C402 C399 1.463 . S
C402 N406 1.427 . S
C403 H393 0.929 . S
C403 C401 1.433 . S
C403 N406 1.384 . S
C404 H395 0.929 . S
C404 C396 1.378 . S
C404 C399 1.350 . S
C405 H392 0.929 . S
C405 C397 1.433 . S
C405 N407 1.384 . S
N406 C402 1.427 . S
N406 C403 1.384 . S
N407 C399 1.427 . S
N407 C405 1.384 . S
H408 C414 0.930 . S
H409 C418 0.930 . S
H410 C423 0.929 . S
H411 C421 0.929 . S
H412 C416 0.929 . S
H413 C422 0.929 . S
C414 H408 0.930 . S
C414 C415 1.367 . S
C414 C422 1.378 . S
C415 C414 1.367 . S
C415 C423 1.433 . S
C416 H412 0.929 . S
C416 C418 1.378 . S
C416 C420 1.350 . S
C417 C420 1.463 . S
C417 C422 1.350 . S
C417 N425 1.427 . S
C418 H409 0.930 . S
C418 C416 1.378 . S
C418 C419 1.367 . S
C419 C418 1.367 . S
C419 C421 1.433 . S
C420 C416 1.350 . S
C420 C417 1.463 . S
C420 N424 1.427 . S
C421 H411 0.929 . S
C421 C419 1.433 . S
C421 N424 1.384 . S
C422 H413 0.929 . S
C422 C414 1.378 . S
C422 C417 1.350 . S
C423 H410 0.929 . S
C423 C415 1.433 . S
C423 N425 1.384 . S
N424 C420 1.427 . S
N424 C421 1.384 . S
N425 C417 1.427 . S
N425 C423 1.384 . S
H426 C432 0.930 . S
H427 C436 0.930 . S
H428 C441 0.929 . S
H429 C439 0.929 . S
H430 C434 0.929 . S
H431 C440 0.929 . S
C432 H426 0.930 . S
C432 C433 1.367 . S
C432 C440 1.378 . S
C433 C432 1.367 . S
C433 C441 1.433 . S
C434 H430 0.929 . S
C434 C436 1.378 . S
C434 C438 1.350 . S
C435 C438 1.463 . S
C435 C440 1.350 . S
C435 N443 1.427 . S
C436 H427 0.930 . S
C436 C434 1.378 . S
C436 C437 1.367 . S
C437 C436 1.367 . S
C437 C439 1.433 . S
C438 C434 1.350 . S
C438 C435 1.463 . S
C438 N442 1.427 . S
C439 H429 0.929 . S
C439 C437 1.433 . S
C439 N442 1.384 . S
C440 H431 0.929 . S
C440 C432 1.378 . S
C440 C435 1.350 . S
C441 H428 0.929 . S
C441 C433 1.433 . S
C441 N443 1.384 . S
N442 C438 1.427 . S
N442 C439 1.384 . S
N443 C435 1.427 . S
N443 C441 1.384 . S
H444 C450 0.930 . S
H445 C454 0.930 . S
H446 C459 0.929 . S
H447 C457 0.929 . S
H448 C452 0.929 . S
H449 C458 0.929 . S
C450 H444 0.930 . S
C450 C451 1.367 . S
C450 C458 1.378 . S
C451 C450 1.367 . S
C451 C459 1.433 . S
C452 H448 0.929 . S
C452 C454 1.378 1_556 S
C452 C456 1.350 . S
C453 C456 1.463 . S
C453 C458 1.350 . S
C453 N461 1.427 . S
C454 H445 0.930 . S
C454 C452 1.378 1_554 S
C454 C455 1.367 . S
C455 C454 1.367 . S
C455 C457 1.433 . S
C456 C452 1.350 . S
C456 C453 1.463 . S
C456 N460 1.427 . S
C457 H447 0.929 . S
C457 C455 1.433 . S
C457 N460 1.384 1_554 S
C458 H449 0.929 . S
C458 C450 1.378 . S
C458 C453 1.350 . S
C459 H446 0.929 . S
C459 C451 1.433 . S
C459 N461 1.384 . S
N460 C456 1.427 . S
N460 C457 1.384 1_556 S
N461 C453 1.427 . S
N461 C459 1.384 . S
H462 C468 0.930 . S
H463 C472 0.930 . S
H464 C477 0.929 . S
H465 C475 0.929 . S
H466 C470 0.929 . S
H467 C476 0.929 . S
C468 H462 0.930 . S
C468 C469 1.367 . S
C468 C476 1.378 1_554 S
C469 C468 1.367 . S
C469 C477 1.433 . S
C470 H466 0.929 . S
C470 C472 1.378 . S
C470 C474 1.350 . S
C471 C474 1.463 . S
C471 C476 1.350 . S
C471 N479 1.427 . S
C472 H463 0.930 . S
C472 C470 1.378 . S
C472 C473 1.367 . S
C473 C472 1.367 . S
C473 C475 1.433 . S
C474 C470 1.350 . S
C474 C471 1.463 . S
C474 N478 1.427 . S
C475 H465 0.929 . S
C475 C473 1.433 . S
C475 N478 1.384 . S
C476 H467 0.929 . S
C476 C468 1.378 1_556 S
C476 C471 1.350 . S
C477 H464 0.929 . S
C477 C469 1.433 . S
C477 N479 1.384 1_554 S
N478 C474 1.427 . S
N478 C475 1.384 . S
N479 C471 1.427 . S
N479 C477 1.384 1_556 S
H480 C486 0.930 . S
H481 C490 0.930 . S
H482 C495 0.929 . S
H483 C493 0.929 . S
H484 C488 0.929 . S
H485 C494 0.929 . S
C486 H480 0.930 . S
C486 C487 1.367 . S
C486 C494 1.378 . S
C487 C486 1.367 . S
C487 C495 1.433 . S
C488 H484 0.929 . S
C488 C490 1.378 . S
C488 C492 1.350 . S
C489 C492 1.463 . S
C489 C494 1.350 . S
C489 N497 1.427 . S
C490 H481 0.930 . S
C490 C488 1.378 . S
C490 C491 1.367 . S
C491 C490 1.367 . S
C491 C493 1.433 . S
C492 C488 1.350 . S
C492 C489 1.463 . S
C492 N496 1.427 . S
C493 H483 0.929 . S
C493 C491 1.433 . S
C493 N496 1.384 . S
C494 H485 0.929 . S
C494 C486 1.378 . S
C494 C489 1.350 . S
C495 H482 0.929 . S
C495 C487 1.433 . S
C495 N497 1.384 . S
N496 C492 1.427 . S
N496 C493 1.384 . S
N497 C489 1.427 . S
N497 C495 1.384 . S
H498 C504 0.930 . S
H499 C508 0.930 . S
H500 C513 0.929 . S
H501 C511 0.929 . S
H502 C506 0.929 . S
H503 C512 0.929 . S
C504 H498 0.930 . S
C504 C505 1.367 . S
C504 C512 1.378 . S
C505 C504 1.367 . S
C505 C513 1.433 . S
C506 H502 0.929 . S
C506 C508 1.378 . S
C506 C510 1.350 . S
C507 C510 1.463 . S
C507 C512 1.350 . S
C507 N515 1.427 . S
C508 H499 0.930 . S
C508 C506 1.378 . S
C508 C509 1.367 . S
C509 C508 1.367 . S
C509 C511 1.433 . S
C510 C506 1.350 . S
C510 C507 1.463 . S
C510 N514 1.427 . S
C511 H501 0.929 . S
C511 C509 1.433 . S
C511 N514 1.384 . S
C512 H503 0.929 . S
C512 C504 1.378 . S
C512 C507 1.350 . S
C513 H500 0.929 . S
C513 C505 1.433 . S
C513 N515 1.384 . S
N514 C510 1.427 . S
N514 C511 1.384 . S
N515 C507 1.427 . S
N515 C513 1.384 . S
H516 C522 0.930 . S
H517 C526 0.930 . S
H518 C531 0.929 . S
H519 C529 0.929 . S
H520 C524 0.929 . S
H521 C530 0.929 . S
C522 H516 0.930 . S
C522 C523 1.367 . S
C522 C530 1.378 . S
C523 C522 1.367 . S
C523 C531 1.433 . S
C524 H520 0.929 . S
C524 C526 1.378 1_554 S
C524 C528 1.350 . S
C525 C528 1.463 . S
C525 C530 1.350 . S
C525 N533 1.427 . S
C526 H517 0.930 . S
C526 C524 1.378 1_556 S
C526 C527 1.367 . S
C527 C526 1.367 . S
C527 C529 1.433 . S
C528 C524 1.350 . S
C528 C525 1.463 . S
C528 N532 1.427 . S
C529 H519 0.929 . S
C529 C527 1.433 . S
C529 N532 1.384 1_556 S
C530 H521 0.929 . S
C530 C522 1.378 . S
C530 C525 1.350 . S
C531 H518 0.929 . S
C531 C523 1.433 . S
C531 N533 1.384 . S
N532 C528 1.427 . S
N532 C529 1.384 1_554 S
N533 C525 1.427 . S
N533 C531 1.384 . S
H534 C540 0.930 . S
H535 C544 0.930 . S
H536 C549 0.929 . S
H537 C547 0.929 . S
H538 C542 0.929 . S
H539 C548 0.929 . S
C540 H534 0.930 . S
C540 C541 1.367 . S
C540 C548 1.378 . S
C541 C540 1.367 . S
C541 C549 1.433 . S
C542 H538 0.929 . S
C542 C544 1.378 1_554 S
C542 C546 1.350 . S
C543 C546 1.463 . S
C543 C548 1.350 . S
C543 N551 1.427 . S
C544 H535 0.930 . S
C544 C542 1.378 1_556 S
C544 C545 1.367 . S
C545 C544 1.367 . S
C545 C547 1.433 . S
C546 C542 1.350 . S
C546 C543 1.463 . S
C546 N550 1.427 . S
C547 H537 0.929 . S
C547 C545 1.433 . S
C547 N550 1.384 1_556 S
C548 H539 0.929 . S
C548 C540 1.378 . S
C548 C543 1.350 . S
C549 H536 0.929 . S
C549 C541 1.433 . S
C549 N551 1.384 . S
N550 C546 1.427 . S
N550 C547 1.384 1_554 S
N551 C543 1.427 . S
N551 C549 1.384 . S
H552 C558 0.930 . S
H553 C562 0.930 . S
H554 C567 0.929 . S
H555 C565 0.929 . S
H556 C560 0.929 . S
H557 C566 0.929 . S
C558 H552 0.930 . S
C558 C559 1.367 . S
C558 C566 1.378 . S
C559 C558 1.367 . S
C559 C567 1.433 . S
C560 H556 0.929 . S
C560 C562 1.378 . S
C560 C564 1.350 . S
C561 C564 1.463 . S
C561 C566 1.350 . S
C561 N569 1.427 . S
C562 H553 0.930 . S
C562 C560 1.378 . S
C562 C563 1.367 . S
C563 C562 1.367 . S
C563 C565 1.433 . S
C564 C560 1.350 . S
C564 C561 1.463 . S
C564 N568 1.427 . S
C565 H555 0.929 . S
C565 C563 1.433 . S
C565 N568 1.384 . S
C566 H557 0.929 . S
C566 C558 1.378 . S
C566 C561 1.350 . S
C567 H554 0.929 . S
C567 C559 1.433 . S
C567 N569 1.384 . S
N568 C564 1.427 . S
N568 C565 1.384 . S
N569 C561 1.427 . S
N569 C567 1.384 . S
H570 C576 0.930 . S
H571 C580 0.930 . S
H572 C585 0.929 . S
H573 C583 0.929 . S
H574 C578 0.929 . S
H575 C584 0.929 . S
C576 H570 0.930 . S
C576 C577 1.367 . S
C576 C584 1.378 . S
C577 C576 1.367 . S
C577 C585 1.433 . S
C578 H574 0.929 . S
C578 C580 1.378 . S
C578 C582 1.350 . S
C579 C582 1.463 . S
C579 C584 1.350 . S
C579 N587 1.427 . S
C580 H571 0.930 . S
C580 C578 1.378 . S
C580 C581 1.367 . S
C581 C580 1.367 . S
C581 C583 1.433 . S
C582 C578 1.350 . S
C582 C579 1.463 . S
C582 N586 1.427 . S
C583 H573 0.929 . S
C583 C581 1.433 . S
C583 N586 1.384 . S
C584 H575 0.929 . S
C584 C576 1.378 . S
C584 C579 1.350 . S
C585 H572 0.929 . S
C585 C577 1.433 . S
C585 N587 1.384 . S
N586 C582 1.427 . S
N586 C583 1.384 . S
N587 C579 1.427 . S
N587 C585 1.384 . S
H588 C594 0.930 . S
H589 C598 0.930 . S
H590 C603 0.929 . S
H591 C601 0.929 . S
H592 C596 0.929 . S
H593 C602 0.929 . S
C594 H588 0.930 . S
C594 C595 1.367 . S
C594 C602 1.378 . S
C595 C594 1.367 . S
C595 C603 1.433 . S
C596 H592 0.929 . S
C596 C598 1.378 . S
C596 C600 1.350 . S
C597 C600 1.463 . S
C597 C602 1.350 . S
C597 N605 1.427 . S
C598 H589 0.930 . S
C598 C596 1.378 . S
C598 C599 1.367 . S
C599 C598 1.367 . S
C599 C601 1.433 . S
C600 C596 1.350 . S
C600 C597 1.463 . S
C600 N604 1.427 . S
C601 H591 0.929 . S
C601 C599 1.433 . S
C601 N604 1.384 . S
C602 H593 0.929 . S
C602 C594 1.378 . S
C602 C597 1.350 . S
C603 H590 0.929 . S
C603 C595 1.433 . S
C603 N605 1.384 . S
N604 C600 1.427 . S
N604 C601 1.384 . S
N605 C597 1.427 . S
N605 C603 1.384 . S
H606 C612 0.930 . S
H607 C616 0.930 . S
H608 C621 0.929 . S
H609 C619 0.929 . S
H610 C614 0.929 . S
H611 C620 0.929 . S
C612 H606 0.930 . S
C612 C613 1.367 . S
C612 C620 1.378 . S
C613 C612 1.367 . S
C613 C621 1.433 . S
C614 H610 0.929 . S
C614 C616 1.378 . S
C614 C618 1.350 . S
C615 C618 1.463 . S
C615 C620 1.350 . S
C615 N623 1.427 . S
C616 H607 0.930 . S
C616 C614 1.378 . S
C616 C617 1.367 . S
C617 C616 1.367 . S
C617 C619 1.433 . S
C618 C614 1.350 . S
C618 C615 1.463 . S
C618 N622 1.427 . S
C619 H609 0.929 . S
C619 C617 1.433 . S
C619 N622 1.384 . S
C620 H611 0.929 . S
C620 C612 1.378 . S
C620 C615 1.350 . S
C621 H608 0.929 . S
C621 C613 1.433 . S
C621 N623 1.384 . S
N622 C618 1.427 . S
N622 C619 1.384 . S
N623 C615 1.427 . S
N623 C621 1.384 . S
C271 C54 1.509 . S
C275 C21 1.509 . S
C289 C87 1.508 . S
C293 C120 1.509 . S
C307 C186 1.508 . S
C311 C153 1.508 . S
C325 C219 1.509 . S
C329 C252 1.509 . S
C343 C139 1.509 . S
C347 C7 1.509 . S
C361 C40 1.508 . S
C365 C172 1.508 . S
C379 C73 1.515 . S
C383 C205 1.515 . S
C397 C106 1.506 . S
C401 C238 1.506 . S
C415 N2 1.325 . S
C419 N13 1.327 . S
C433 N46 1.323 . S
C437 N35 1.322 . S
C451 N68 1.325 . S
C455 N79 1.327 . S
C469 N112 1.330 . S
C473 N101 1.329 . S
C487 N134 1.322 . S
C491 N145 1.324 . S
C505 N178 1.323 . S
C509 N167 1.322 . S
C523 N200 1.326 . S
C527 N211 1.328 . S
C541 N233 1.328 . S
C545 N244 1.329 . S
C559 C18 1.531 . S
C563 C84 1.530 . S
C577 C51 1.531 . S
C581 C117 1.532 . S
C595 C150 1.533 . S
C599 C216 1.533 . S
C613 C183 1.532 . S
C617 C249 1.531 . S
