# Generated by pormake.
# Topology sxh, (6)-cn, num edge types: 1
# Building blocks:
#     Node 0, Type 0, BuildingBlock: OJICUG_clean_sbu_0, # of connection points: 6
#     Node 1, Type 0, BuildingBlock: OJICUG_clean_sbu_0, # of connection points: 6
#     Node 2, Type 0, BuildingBlock: OJICUG_clean_sbu_0, # of connection points: 6
#     Node 3, Type 0, BuildingBlock: OJICUG_clean_sbu_0, # of connection points: 6
#     Node 4, Type 0, BuildingBlock: OJICUG_clean_sbu_0, # of connection points: 6
#     Node 5, Type 0, BuildingBlock: OJICUG_clean_sbu_0, # of connection points: 6
#     Node 6, Type 0, BuildingBlock: OJICUG_clean_sbu_0, # of connection points: 6
#     Node 7, Type 0, BuildingBlock: OJICUG_clean_sbu_0, # of connection points: 6
#     Node 8, Type 0, BuildingBlock: OJICUG_clean_sbu_0, # of connection points: 6
#     Node 9, Type 0, BuildingBlock: OJICUG_clean_sbu_0, # of connection points: 6
#     Node 10, Type 0, BuildingBlock: OJICUG_clean_sbu_0, # of connection points: 6
#     Node 11, Type 0, BuildingBlock: OJICUG_clean_sbu_0, # of connection points: 6
#     Node 12, Type 0, BuildingBlock: OJICUG_clean_sbu_0, # of connection points: 6
#     Node 13, Type 0, BuildingBlock: OJICUG_clean_sbu_0, # of connection points: 6
#     Node 14, Type 0, BuildingBlock: OJICUG_clean_sbu_0, # of connection points: 6
#     Node 15, Type 0, BuildingBlock: OJICUG_clean_sbu_0, # of connection points: 6
#     Node 16, Type 0, BuildingBlock: OJICUG_clean_sbu_0, # of connection points: 6
#     Node 17, Type 0, BuildingBlock: OJICUG_clean_sbu_0, # of connection points: 6
#     Node 18, Type 0, BuildingBlock: OJICUG_clean_sbu_0, # of connection points: 6
#     Node 19, Type 0, BuildingBlock: OJICUG_clean_sbu_0, # of connection points: 6
#     Node 20, Type 0, BuildingBlock: OJICUG_clean_sbu_0, # of connection points: 6
#     Node 21, Type 0, BuildingBlock: OJICUG_clean_sbu_0, # of connection points: 6
#     Node 22, Type 0, BuildingBlock: OJICUG_clean_sbu_0, # of connection points: 6
#     Node 23, Type 0, BuildingBlock: OJICUG_clean_sbu_0, # of connection points: 6
#     Node 24, Type 0, BuildingBlock: OJICUG_clean_sbu_0, # of connection points: 6
#     Node 25, Type 0, BuildingBlock: OJICUG_clean_sbu_0, # of connection points: 6
#     Node 26, Type 0, BuildingBlock: OJICUG_clean_sbu_0, # of connection points: 6
#     Node 27, Type 0, BuildingBlock: OJICUG_clean_sbu_0, # of connection points: 6
#     Node 28, Type 0, BuildingBlock: OJICUG_clean_sbu_0, # of connection points: 6
#     Node 29, Type 0, BuildingBlock: OJICUG_clean_sbu_0, # of connection points: 6
#     Node 30, Type 0, BuildingBlock: OJICUG_clean_sbu_0, # of connection points: 6
#     Node 31, Type 0, BuildingBlock: OJICUG_clean_sbu_0, # of connection points: 6
#     Node 32, Type 0, BuildingBlock: OJICUG_clean_sbu_0, # of connection points: 6
#     Node 33, Type 0, BuildingBlock: OJICUG_clean_sbu_0, # of connection points: 6
#     Node 34, Type 0, BuildingBlock: OJICUG_clean_sbu_0, # of connection points: 6
#     Node 35, Type 0, BuildingBlock: OJICUG_clean_sbu_0, # of connection points: 6
#     Node 36, Type 0, BuildingBlock: OJICUG_clean_sbu_0, # of connection points: 6
#     Node 37, Type 0, BuildingBlock: OJICUG_clean_sbu_0, # of connection points: 6
#     Node 38, Type 0, BuildingBlock: OJICUG_clean_sbu_0, # of connection points: 6
#     Node 39, Type 0, BuildingBlock: OJICUG_clean_sbu_0, # of connection points: 6
#     Node 40, Type 0, BuildingBlock: OJICUG_clean_sbu_0, # of connection points: 6
#     Node 41, Type 0, BuildingBlock: OJICUG_clean_sbu_0, # of connection points: 6
#     Node 42, Type 0, BuildingBlock: OJICUG_clean_sbu_0, # of connection points: 6
#     Node 43, Type 0, BuildingBlock: OJICUG_clean_sbu_0, # of connection points: 6
#     Node 44, Type 0, BuildingBlock: OJICUG_clean_sbu_0, # of connection points: 6
#     Node 45, Type 0, BuildingBlock: OJICUG_clean_sbu_0, # of connection points: 6
#     Node 46, Type 0, BuildingBlock: OJICUG_clean_sbu_0, # of connection points: 6
#     Node 47, Type 0, BuildingBlock: OJICUG_clean_sbu_0, # of connection points: 6
#     Edge 48, Type (0, 0), BuildingBlock: KIFKEQ_clean_linker_1, # of connection points: 2
#     Edge 49, Type (0, 0), BuildingBlock: KIFKEQ_clean_linker_1, # of connection points: 2
#     Edge 50, Type (0, 0), BuildingBlock: KIFKEQ_clean_linker_1, # of connection points: 2
#     Edge 51, Type (0, 0), BuildingBlock: KIFKEQ_clean_linker_1, # of connection points: 2
#     Edge 52, Type (0, 0), BuildingBlock: KIFKEQ_clean_linker_1, # of connection points: 2
#     Edge 53, Type (0, 0), BuildingBlock: KIFKEQ_clean_linker_1, # of connection points: 2
#     Edge 54, Type (0, 0), BuildingBlock: KIFKEQ_clean_linker_1, # of connection points: 2
#     Edge 55, Type (0, 0), BuildingBlock: KIFKEQ_clean_linker_1, # of connection points: 2
#     Edge 56, Type (0, 0), BuildingBlock: KIFKEQ_clean_linker_1, # of connection points: 2
#     Edge 57, Type (0, 0), BuildingBlock: KIFKEQ_clean_linker_1, # of connection points: 2
#     Edge 58, Type (0, 0), BuildingBlock: KIFKEQ_clean_linker_1, # of connection points: 2
#     Edge 59, Type (0, 0), BuildingBlock: KIFKEQ_clean_linker_1, # of connection points: 2
#     Edge 60, Type (0, 0), BuildingBlock: KIFKEQ_clean_linker_1, # of connection points: 2
#     Edge 61, Type (0, 0), BuildingBlock: KIFKEQ_clean_linker_1, # of connection points: 2
#     Edge 62, Type (0, 0), BuildingBlock: KIFKEQ_clean_linker_1, # of connection points: 2
#     Edge 63, Type (0, 0), BuildingBlock: KIFKEQ_clean_linker_1, # of connection points: 2
#     Edge 64, Type (0, 0), BuildingBlock: KIFKEQ_clean_linker_1, # of connection points: 2
#     Edge 65, Type (0, 0), BuildingBlock: KIFKEQ_clean_linker_1, # of connection points: 2
#     Edge 66, Type (0, 0), BuildingBlock: KIFKEQ_clean_linker_1, # of connection points: 2
#     Edge 67, Type (0, 0), BuildingBlock: KIFKEQ_clean_linker_1, # of connection points: 2
#     Edge 68, Type (0, 0), BuildingBlock: KIFKEQ_clean_linker_1, # of connection points: 2
#     Edge 69, Type (0, 0), BuildingBlock: KIFKEQ_clean_linker_1, # of connection points: 2
#     Edge 70, Type (0, 0), BuildingBlock: KIFKEQ_clean_linker_1, # of connection points: 2
#     Edge 71, Type (0, 0), BuildingBlock: KIFKEQ_clean_linker_1, # of connection points: 2
#     Edge 72, Type (0, 0), BuildingBlock: KIFKEQ_clean_linker_1, # of connection points: 2
#     Edge 73, Type (0, 0), BuildingBlock: KIFKEQ_clean_linker_1, # of connection points: 2
#     Edge 74, Type (0, 0), BuildingBlock: KIFKEQ_clean_linker_1, # of connection points: 2
#     Edge 75, Type (0, 0), BuildingBlock: KIFKEQ_clean_linker_1, # of connection points: 2
#     Edge 76, Type (0, 0), BuildingBlock: KIFKEQ_clean_linker_1, # of connection points: 2
#     Edge 77, Type (0, 0), BuildingBlock: KIFKEQ_clean_linker_1, # of connection points: 2
#     Edge 78, Type (0, 0), BuildingBlock: KIFKEQ_clean_linker_1, # of connection points: 2
#     Edge 79, Type (0, 0), BuildingBlock: KIFKEQ_clean_linker_1, # of connection points: 2
#     Edge 80, Type (0, 0), BuildingBlock: KIFKEQ_clean_linker_1, # of connection points: 2
#     Edge 81, Type (0, 0), BuildingBlock: KIFKEQ_clean_linker_1, # of connection points: 2
#     Edge 82, Type (0, 0), BuildingBlock: KIFKEQ_clean_linker_1, # of connection points: 2
#     Edge 83, Type (0, 0), BuildingBlock: KIFKEQ_clean_linker_1, # of connection points: 2
#     Edge 84, Type (0, 0), BuildingBlock: KIFKEQ_clean_linker_1, # of connection points: 2
#     Edge 85, Type (0, 0), BuildingBlock: KIFKEQ_clean_linker_1, # of connection points: 2
#     Edge 86, Type (0, 0), BuildingBlock: KIFKEQ_clean_linker_1, # of connection points: 2
#     Edge 87, Type (0, 0), BuildingBlock: KIFKEQ_clean_linker_1, # of connection points: 2
#     Edge 88, Type (0, 0), BuildingBlock: KIFKEQ_clean_linker_1, # of connection points: 2
#     Edge 89, Type (0, 0), BuildingBlock: KIFKEQ_clean_linker_1, # of connection points: 2
#     Edge 90, Type (0, 0), BuildingBlock: KIFKEQ_clean_linker_1, # of connection points: 2
#     Edge 91, Type (0, 0), BuildingBlock: KIFKEQ_clean_linker_1, # of connection points: 2
#     Edge 92, Type (0, 0), BuildingBlock: KIFKEQ_clean_linker_1, # of connection points: 2
#     Edge 93, Type (0, 0), BuildingBlock: KIFKEQ_clean_linker_1, # of connection points: 2
#     Edge 94, Type (0, 0), BuildingBlock: KIFKEQ_clean_linker_1, # of connection points: 2
#     Edge 95, Type (0, 0), BuildingBlock: KIFKEQ_clean_linker_1, # of connection points: 2
#     Edge 96, Type (0, 0), BuildingBlock: KIFKEQ_clean_linker_1, # of connection points: 2
#     Edge 97, Type (0, 0), BuildingBlock: KIFKEQ_clean_linker_1, # of connection points: 2
#     Edge 98, Type (0, 0), BuildingBlock: KIFKEQ_clean_linker_1, # of connection points: 2
#     Edge 99, Type (0, 0), BuildingBlock: KIFKEQ_clean_linker_1, # of connection points: 2
#     Edge 100, Type (0, 0), BuildingBlock: KIFKEQ_clean_linker_1, # of connection points: 2
#     Edge 101, Type (0, 0), BuildingBlock: KIFKEQ_clean_linker_1, # of connection points: 2
#     Edge 102, Type (0, 0), BuildingBlock: KIFKEQ_clean_linker_1, # of connection points: 2
#     Edge 103, Type (0, 0), BuildingBlock: KIFKEQ_clean_linker_1, # of connection points: 2
#     Edge 104, Type (0, 0), BuildingBlock: KIFKEQ_clean_linker_1, # of connection points: 2
#     Edge 105, Type (0, 0), BuildingBlock: KIFKEQ_clean_linker_1, # of connection points: 2
#     Edge 106, Type (0, 0), BuildingBlock: KIFKEQ_clean_linker_1, # of connection points: 2
#     Edge 107, Type (0, 0), BuildingBlock: KIFKEQ_clean_linker_1, # of connection points: 2
#     Edge 108, Type (0, 0), BuildingBlock: KIFKEQ_clean_linker_1, # of connection points: 2
#     Edge 109, Type (0, 0), BuildingBlock: KIFKEQ_clean_linker_1, # of connection points: 2
#     Edge 110, Type (0, 0), BuildingBlock: KIFKEQ_clean_linker_1, # of connection points: 2
#     Edge 111, Type (0, 0), BuildingBlock: KIFKEQ_clean_linker_1, # of connection points: 2
#     Edge 112, Type (0, 0), BuildingBlock: KIFKEQ_clean_linker_1, # of connection points: 2
#     Edge 113, Type (0, 0), BuildingBlock: KIFKEQ_clean_linker_1, # of connection points: 2
#     Edge 114, Type (0, 0), BuildingBlock: KIFKEQ_clean_linker_1, # of connection points: 2
#     Edge 115, Type (0, 0), BuildingBlock: KIFKEQ_clean_linker_1, # of connection points: 2
#     Edge 116, Type (0, 0), BuildingBlock: KIFKEQ_clean_linker_1, # of connection points: 2
#     Edge 117, Type (0, 0), BuildingBlock: KIFKEQ_clean_linker_1, # of connection points: 2
#     Edge 118, Type (0, 0), BuildingBlock: KIFKEQ_clean_linker_1, # of connection points: 2
#     Edge 119, Type (0, 0), BuildingBlock: KIFKEQ_clean_linker_1, # of connection points: 2
#     Edge 120, Type (0, 0), BuildingBlock: KIFKEQ_clean_linker_1, # of connection points: 2
#     Edge 121, Type (0, 0), BuildingBlock: KIFKEQ_clean_linker_1, # of connection points: 2
#     Edge 122, Type (0, 0), BuildingBlock: KIFKEQ_clean_linker_1, # of connection points: 2
#     Edge 123, Type (0, 0), BuildingBlock: KIFKEQ_clean_linker_1, # of connection points: 2
#     Edge 124, Type (0, 0), BuildingBlock: KIFKEQ_clean_linker_1, # of connection points: 2
#     Edge 125, Type (0, 0), BuildingBlock: KIFKEQ_clean_linker_1, # of connection points: 2
#     Edge 126, Type (0, 0), BuildingBlock: KIFKEQ_clean_linker_1, # of connection points: 2
#     Edge 127, Type (0, 0), BuildingBlock: KIFKEQ_clean_linker_1, # of connection points: 2
#     Edge 128, Type (0, 0), BuildingBlock: KIFKEQ_clean_linker_1, # of connection points: 2
#     Edge 129, Type (0, 0), BuildingBlock: KIFKEQ_clean_linker_1, # of connection points: 2
#     Edge 130, Type (0, 0), BuildingBlock: KIFKEQ_clean_linker_1, # of connection points: 2
#     Edge 131, Type (0, 0), BuildingBlock: KIFKEQ_clean_linker_1, # of connection points: 2
#     Edge 132, Type (0, 0), BuildingBlock: KIFKEQ_clean_linker_1, # of connection points: 2
#     Edge 133, Type (0, 0), BuildingBlock: KIFKEQ_clean_linker_1, # of connection points: 2
#     Edge 134, Type (0, 0), BuildingBlock: KIFKEQ_clean_linker_1, # of connection points: 2
#     Edge 135, Type (0, 0), BuildingBlock: KIFKEQ_clean_linker_1, # of connection points: 2
#     Edge 136, Type (0, 0), BuildingBlock: KIFKEQ_clean_linker_1, # of connection points: 2
#     Edge 137, Type (0, 0), BuildingBlock: KIFKEQ_clean_linker_1, # of connection points: 2
#     Edge 138, Type (0, 0), BuildingBlock: KIFKEQ_clean_linker_1, # of connection points: 2
#     Edge 139, Type (0, 0), BuildingBlock: KIFKEQ_clean_linker_1, # of connection points: 2
#     Edge 140, Type (0, 0), BuildingBlock: KIFKEQ_clean_linker_1, # of connection points: 2
#     Edge 141, Type (0, 0), BuildingBlock: KIFKEQ_clean_linker_1, # of connection points: 2
#     Edge 142, Type (0, 0), BuildingBlock: KIFKEQ_clean_linker_1, # of connection points: 2
#     Edge 143, Type (0, 0), BuildingBlock: KIFKEQ_clean_linker_1, # of connection points: 2
#     Edge 144, Type (0, 0), BuildingBlock: KIFKEQ_clean_linker_1, # of connection points: 2
#     Edge 145, Type (0, 0), BuildingBlock: KIFKEQ_clean_linker_1, # of connection points: 2
#     Edge 146, Type (0, 0), BuildingBlock: KIFKEQ_clean_linker_1, # of connection points: 2
#     Edge 147, Type (0, 0), BuildingBlock: KIFKEQ_clean_linker_1, # of connection points: 2
#     Edge 148, Type (0, 0), BuildingBlock: KIFKEQ_clean_linker_1, # of connection points: 2
#     Edge 149, Type (0, 0), BuildingBlock: KIFKEQ_clean_linker_1, # of connection points: 2
#     Edge 150, Type (0, 0), BuildingBlock: KIFKEQ_clean_linker_1, # of connection points: 2
#     Edge 151, Type (0, 0), BuildingBlock: KIFKEQ_clean_linker_1, # of connection points: 2
#     Edge 152, Type (0, 0), BuildingBlock: KIFKEQ_clean_linker_1, # of connection points: 2
#     Edge 153, Type (0, 0), BuildingBlock: KIFKEQ_clean_linker_1, # of connection points: 2
#     Edge 154, Type (0, 0), BuildingBlock: KIFKEQ_clean_linker_1, # of connection points: 2
#     Edge 155, Type (0, 0), BuildingBlock: KIFKEQ_clean_linker_1, # of connection points: 2
#     Edge 156, Type (0, 0), BuildingBlock: KIFKEQ_clean_linker_1, # of connection points: 2
#     Edge 157, Type (0, 0), BuildingBlock: KIFKEQ_clean_linker_1, # of connection points: 2
#     Edge 158, Type (0, 0), BuildingBlock: KIFKEQ_clean_linker_1, # of connection points: 2
#     Edge 159, Type (0, 0), BuildingBlock: KIFKEQ_clean_linker_1, # of connection points: 2
#     Edge 160, Type (0, 0), BuildingBlock: KIFKEQ_clean_linker_1, # of connection points: 2
#     Edge 161, Type (0, 0), BuildingBlock: KIFKEQ_clean_linker_1, # of connection points: 2
#     Edge 162, Type (0, 0), BuildingBlock: KIFKEQ_clean_linker_1, # of connection points: 2
#     Edge 163, Type (0, 0), BuildingBlock: KIFKEQ_clean_linker_1, # of connection points: 2
#     Edge 164, Type (0, 0), BuildingBlock: KIFKEQ_clean_linker_1, # of connection points: 2
#     Edge 165, Type (0, 0), BuildingBlock: KIFKEQ_clean_linker_1, # of connection points: 2
#     Edge 166, Type (0, 0), BuildingBlock: KIFKEQ_clean_linker_1, # of connection points: 2
#     Edge 167, Type (0, 0), BuildingBlock: KIFKEQ_clean_linker_1, # of connection points: 2
#     Edge 168, Type (0, 0), BuildingBlock: KIFKEQ_clean_linker_1, # of connection points: 2
#     Edge 169, Type (0, 0), BuildingBlock: KIFKEQ_clean_linker_1, # of connection points: 2
#     Edge 170, Type (0, 0), BuildingBlock: KIFKEQ_clean_linker_1, # of connection points: 2
#     Edge 171, Type (0, 0), BuildingBlock: KIFKEQ_clean_linker_1, # of connection points: 2
#     Edge 172, Type (0, 0), BuildingBlock: KIFKEQ_clean_linker_1, # of connection points: 2
#     Edge 173, Type (0, 0), BuildingBlock: KIFKEQ_clean_linker_1, # of connection points: 2
#     Edge 174, Type (0, 0), BuildingBlock: KIFKEQ_clean_linker_1, # of connection points: 2
#     Edge 175, Type (0, 0), BuildingBlock: KIFKEQ_clean_linker_1, # of connection points: 2
#     Edge 176, Type (0, 0), BuildingBlock: KIFKEQ_clean_linker_1, # of connection points: 2
#     Edge 177, Type (0, 0), BuildingBlock: KIFKEQ_clean_linker_1, # of connection points: 2
#     Edge 178, Type (0, 0), BuildingBlock: KIFKEQ_clean_linker_1, # of connection points: 2
#     Edge 179, Type (0, 0), BuildingBlock: KIFKEQ_clean_linker_1, # of connection points: 2
#     Edge 180, Type (0, 0), BuildingBlock: KIFKEQ_clean_linker_1, # of connection points: 2
#     Edge 181, Type (0, 0), BuildingBlock: KIFKEQ_clean_linker_1, # of connection points: 2
#     Edge 182, Type (0, 0), BuildingBlock: KIFKEQ_clean_linker_1, # of connection points: 2
#     Edge 183, Type (0, 0), BuildingBlock: KIFKEQ_clean_linker_1, # of connection points: 2
#     Edge 184, Type (0, 0), BuildingBlock: KIFKEQ_clean_linker_1, # of connection points: 2
#     Edge 185, Type (0, 0), BuildingBlock: KIFKEQ_clean_linker_1, # of connection points: 2
#     Edge 186, Type (0, 0), BuildingBlock: KIFKEQ_clean_linker_1, # of connection points: 2
#     Edge 187, Type (0, 0), BuildingBlock: KIFKEQ_clean_linker_1, # of connection points: 2
#     Edge 188, Type (0, 0), BuildingBlock: KIFKEQ_clean_linker_1, # of connection points: 2
#     Edge 189, Type (0, 0), BuildingBlock: KIFKEQ_clean_linker_1, # of connection points: 2
#     Edge 190, Type (0, 0), BuildingBlock: KIFKEQ_clean_linker_1, # of connection points: 2
#     Edge 191, Type (0, 0), BuildingBlock: KIFKEQ_clean_linker_1, # of connection points: 2
# Relax obj value: 0.209
# Max RMSD: 0.267
# Mean RMSD: 0.267
data_MOF--net-sxh--node1-OJICUG_clean_sbu_0--edge1-KIFKEQ_clean_linker_1
_symmetry_space_group_name_H-M    P1
_symmetry_Int_Tables_number       1
_symmetry_cell_setting            triclinic
loop_
_symmetry_equiv_pos_as_xyz
'x, y, z'
_cell_length_a     57.127336
_cell_length_b     57.126139
_cell_length_c     57.118778
_cell_angle_alpha  90.008696
_cell_angle_beta   89.999314
_cell_angle_gamma 90.001174
loop_
_atom_site_label
_atom_site_type_symbol
_atom_site_fract_x
_atom_site_fract_y
_atom_site_fract_z
_atom_type_partial_charge
Sc0 Sc 0.09744 0.15986 0.30573 0.0
Sc1 Sc 0.0486 0.13524 0.2774 0.0
Sc2 Sc 0.08229 0.10136 0.31646 0.0
O3 O 0.07619 0.13207 0.29967 0.0
C4 C 0.13171 0.11735 0.29433 0.0
C5 C 0.084 0.16897 0.25158 0.0
C6 C 0.063 0.08287 0.26724 0.0
C7 C 0.04715 0.1817 0.30888 0.0
C8 C 0.09917 0.13625 0.3565 0.0
C9 C 0.02723 0.10787 0.32152 0.0
O10 O 0.12699 0.13915 0.2955 0.0
O11 O 0.06763 0.1539 0.2504 0.0
O12 O 0.07255 0.08079 0.28709 0.0
O13 O 0.06826 0.18101 0.31588 0.0
O14 O 0.09212 0.11647 0.3495 0.0
O15 O 0.02599 0.11883 0.30221 0.0
O16 O 0.10254 0.1531 0.34249 0.0
O17 O 0.03878 0.16768 0.2937 0.0
O18 O 0.04647 0.10034 0.33015 0.0
O19 O 0.09541 0.17279 0.27028 0.0
O20 O 0.11796 0.1014 0.30215 0.0
O21 O 0.0544 0.10201 0.25974 0.0
Sc22 Sc 0.89886 0.34197 0.30656 0.0
Sc23 Sc 0.95041 0.36263 0.27966 0.0
Sc24 Sc 0.91857 0.39935 0.31734 0.0
O25 O 0.92254 0.36799 0.30105 0.0
C26 C 0.86848 0.38707 0.29439 0.0
C27 C 0.91352 0.33069 0.25318 0.0
C28 C 0.9396 0.41536 0.26803 0.0
C29 C 0.94744 0.31656 0.31164 0.0
C30 C 0.89817 0.3662 0.35718 0.0
C31 C 0.97291 0.38998 0.32337 0.0
O32 O 0.8711 0.36493 0.29564 0.0
O33 O 0.93118 0.34423 0.25275 0.0
O34 O 0.93045 0.41862 0.2879 0.0
O35 O 0.92598 0.31836 0.31734 0.0
O36 O 0.90693 0.38529 0.3502 0.0
O37 O 0.97365 0.37858 0.30429 0.0
O38 O 0.89368 0.34952 0.34324 0.0
O39 O 0.9576 0.3303 0.29733 0.0
O40 O 0.954 0.39846 0.33179 0.0
O41 O 0.90064 0.32843 0.27119 0.0
O42 O 0.88349 0.40177 0.30226 0.0
O43 O 0.94653 0.39546 0.26079 0.0
Sc44 Sc 0.08052 0.90002 0.18564 0.0
Sc45 Sc 0.04791 0.86247 0.22195 0.0
Sc46 Sc 0.1004 0.84264 0.19624 0.0
O47 O 0.07631 0.86837 0.20141 0.0
C48 C 0.10077 0.86685 0.14569 0.0
C49 C 0.02631 0.89041 0.17836 0.0
C50 C 0.0525 0.81603 0.19079 0.0
C51 C 0.05822 0.91515 0.23466 0.0
C52 C 0.13067 0.88798 0.20833 0.0
C53 C 0.08532 0.8315 0.24929 0.0
O54 O 0.09286 0.88623 0.15292 0.0
O55 O 0.0252 0.8788 0.19725 0.0
O56 O 0.07422 0.81782 0.18647 0.0
O57 O 0.06784 0.91877 0.21507 0.0
O58 O 0.1279 0.86595 0.20633 0.0
O59 O 0.06669 0.84369 0.24887 0.0
O60 O 0.11549 0.90288 0.20123 0.0
O61 O 0.05128 0.89508 0.24145 0.0
O62 O 0.09917 0.83015 0.23192 0.0
O63 O 0.04536 0.89902 0.17042 0.0
O64 O 0.10467 0.84981 0.15939 0.0
O65 O 0.04107 0.83027 0.20357 0.0
Sc66 Sc 0.9172 0.59953 0.18382 0.0
Sc67 Sc 0.9518 0.63361 0.22135 0.0
Sc68 Sc 0.9015 0.65782 0.19493 0.0
O69 O 0.92342 0.63039 0.2002 0.0
C70 C 0.90021 0.63458 0.14394 0.0
C71 C 0.97193 0.60287 0.17889 0.0
C72 C 0.9522 0.67977 0.18996 0.0
C73 C 0.93672 0.58268 0.23372 0.0
C74 C 0.86784 0.61462 0.20617 0.0
C75 C 0.91642 0.66823 0.24784 0.0
O76 O 0.90578 0.61436 0.1511 0.0
O77 O 0.97344 0.61303 0.19861 0.0
O78 O 0.93019 0.6805 0.1866 0.0
O79 O 0.92859 0.57972 0.2133 0.0
O80 O 0.87183 0.63646 0.20383 0.0
O81 O 0.93486 0.65577 0.24714 0.0
O82 O 0.8822 0.59884 0.19929 0.0
O83 O 0.9438 0.60237 0.24141 0.0
O84 O 0.90216 0.66942 0.23082 0.0
O85 O 0.9524 0.59867 0.16887 0.0
O86 O 0.89809 0.65179 0.1578 0.0
O87 O 0.96248 0.66401 0.20193 0.0
Sc88 Sc 0.31005 0.10126 0.15927 0.0
Sc89 Sc 0.27992 0.05238 0.13658 0.0
Sc90 Sc 0.31873 0.08422 0.10101 0.0
O91 O 0.3028 0.07928 0.1323 0.0
C92 C 0.29745 0.13432 0.11616 0.0
C93 C 0.25652 0.08843 0.1716 0.0
C94 C 0.26816 0.06626 0.08477 0.0
C95 C 0.31312 0.05121 0.18213 0.0
C96 C 0.36004 0.10171 0.13399 0.0
C97 C 0.32147 0.02927 0.10628 0.0
O98 O 0.29923 0.13063 0.13813 0.0
O99 O 0.25432 0.07192 0.15682 0.0
O100 O 0.28854 0.0743 0.08171 0.0
O101 O 0.32018 0.07233 0.18094 0.0
O102 O 0.35241 0.09398 0.1147 0.0
O103 O 0.30243 0.02889 0.1178 0.0
O104 O 0.34656 0.10581 0.1511 0.0
O105 O 0.298 0.04245 0.16821 0.0
O106 O 0.33164 0.04822 0.10014 0.0
O107 O 0.27544 0.09982 0.17385 0.0
O108 O 0.30479 0.11988 0.10061 0.0
O109 O 0.26063 0.05913 0.10449 0.0
Sc110 Sc 0.68443 0.41825 0.10036 0.0
Sc111 Sc 0.72117 0.45231 0.1365 0.0
Sc112 Sc 0.69504 0.40098 0.15843 0.0
O113 O 0.70037 0.42382 0.13171 0.0
C114 C 0.6445 0.39933 0.13426 0.0
C115 C 0.67696 0.47287 0.10877 0.0
C116 C 0.6902 0.44975 0.18334 0.0
C117 C 0.73315 0.44002 0.08382 0.0
C118 C 0.70741 0.36875 0.1146 0.0
C119 C 0.74852 0.41617 0.16829 0.0
O120 O 0.65156 0.407 0.11473 0.0
O121 O 0.69556 0.47447 0.12082 0.0
O122 O 0.68434 0.42838 0.18152 0.0
O123 O 0.71395 0.42944 0.0809 0.0
O124 O 0.7059 0.37261 0.13651 0.0
O125 O 0.74874 0.43362 0.15445 0.0
O126 O 0.69963 0.38301 0.09913 0.0
O127 O 0.73952 0.44875 0.10331 0.0
O128 O 0.73053 0.40341 0.17124 0.0
O129 O 0.66963 0.45364 0.09996 0.0
O130 O 0.65837 0.3957 0.1512 0.0
O131 O 0.70429 0.45985 0.16933 0.0
Sc132 Sc 0.31767 0.91944 0.40168 0.0
Sc133 Sc 0.27877 0.95172 0.36661 0.0
Sc134 Sc 0.3083 0.90275 0.34348 0.0
O135 O 0.30148 0.92464 0.37059 0.0
C136 C 0.35846 0.90137 0.36836 0.0
C137 C 0.32078 0.97439 0.39658 0.0
C138 C 0.31198 0.95283 0.321 0.0
C139 C 0.26739 0.93774 0.41848 0.0
C140 C 0.29541 0.8697 0.38645 0.0
C141 C 0.25496 0.91657 0.33126 0.0
O142 O 0.3512 0.90959 0.38759 0.0
O143 O 0.30166 0.97494 0.3852 0.0
O144 O 0.31907 0.93171 0.32219 0.0
O145 O 0.28772 0.92949 0.42133 0.0
O146 O 0.29682 0.87354 0.36447 0.0
O147 O 0.25275 0.93254 0.3466 0.0
O148 O 0.30338 0.88385 0.40198 0.0
O149 O 0.25974 0.94502 0.39885 0.0
O150 O 0.27385 0.90518 0.3287 0.0
O151 O 0.33085 0.95535 0.40261 0.0
O152 O 0.34469 0.89712 0.35153 0.0
O153 O 0.29672 0.96154 0.33482 0.0
Sc154 Sc 0.69091 0.59664 0.34328 0.0
Sc155 Sc 0.72258 0.54951 0.3672 0.0
Sc156 Sc 0.68383 0.58215 0.4023 0.0
O157 O 0.69923 0.57609 0.37096 0.0
C158 C 0.70407 0.63178 0.38448 0.0
C159 C 0.74454 0.58448 0.33041 0.0
C160 C 0.73493 0.5656 0.41838 0.0
C161 C 0.68825 0.54589 0.3226 0.0
C162 C 0.64154 0.59755 0.36961 0.0
C163 C 0.68184 0.5269 0.39879 0.0
O164 O 0.70207 0.62673 0.36281 0.0
O165 O 0.7476 0.56904 0.34617 0.0
O166 O 0.71461 0.57381 0.42139 0.0
O167 O 0.68039 0.56672 0.32346 0.0
O168 O 0.64964 0.59038 0.38891 0.0
O169 O 0.7006 0.52627 0.38684 0.0
O170 O 0.65462 0.60152 0.35218 0.0
O171 O 0.70435 0.5382 0.33607 0.0
O172 O 0.67175 0.54595 0.40477 0.0
O173 O 0.72511 0.59488 0.32775 0.0
O174 O 0.69689 0.61824 0.40092 0.0
O175 O 0.74208 0.55741 0.39892 0.0
Sc176 Sc 0.10225 0.3195 0.08294 0.0
Sc177 Sc 0.13913 0.2818 0.05137 0.0
Sc178 Sc 0.1597 0.30928 0.10267 0.0
O179 O 0.1337 0.30339 0.07905 0.0
C180 C 0.13521 0.35982 0.10283 0.0
C181 C 0.11157 0.32521 0.02858 0.0
C182 C 0.18504 0.31405 0.05397 0.0
C183 C 0.08647 0.27001 0.06219 0.0
C184 C 0.11462 0.29666 0.13308 0.0
C185 C 0.17124 0.25582 0.08849 0.0
O186 O 0.11606 0.35253 0.09445 0.0
O187 O 0.12298 0.30614 0.02794 0.0
O188 O 0.18327 0.3199 0.0754 0.0
O189 O 0.08313 0.28996 0.07112 0.0
O190 O 0.13676 0.29834 0.13059 0.0
O191 O 0.15772 0.25518 0.07081 0.0
O192 O 0.0999 0.30439 0.11803 0.0
O193 O 0.10642 0.26274 0.05545 0.0
O194 O 0.1734 0.27395 0.10123 0.0
O195 O 0.10315 0.33378 0.04744 0.0
O196 O 0.15203 0.34605 0.10735 0.0
O197 O 0.17133 0.2996 0.04396 0.0
Sc198 Sc 0.15925 0.69457 0.40166 0.0
Sc199 Sc 0.13629 0.72274 0.45154 0.0
Sc200 Sc 0.10147 0.68335 0.41959 0.0
O201 O 0.13232 0.70038 0.42418 0.0
C202 C 0.11498 0.70546 0.3695 0.0
C203 C 0.16889 0.74868 0.41488 0.0
C204 C 0.0835 0.73263 0.43911 0.0
C205 C 0.18313 0.69172 0.45123 0.0
C206 C 0.13592 0.64355 0.4013 0.0
C207 C 0.10964 0.67873 0.47421 0.0
O208 O 0.13706 0.70431 0.37277 0.0
O209 O 0.15467 0.74954 0.43201 0.0
O210 O 0.08108 0.71245 0.43039 0.0
O211 O 0.18201 0.68509 0.42998 0.0
O212 O 0.11635 0.65056 0.4089 0.0
O213 O 0.12028 0.69825 0.47489 0.0
O214 O 0.15266 0.65757 0.39735 0.0
O215 O 0.16887 0.70623 0.46036 0.0
O216 O 0.10195 0.66962 0.45529 0.0
O217 O 0.172 0.73022 0.40284 0.0
O218 O 0.0999 0.69779 0.38424 0.0
O219 O 0.10304 0.74062 0.44627 0.0
Sc220 Sc 0.84299 0.80799 0.39888 0.0
Sc221 Sc 0.86262 0.7773 0.44846 0.0
Sc222 Sc 0.90054 0.81568 0.41877 0.0
O223 O 0.86879 0.8002 0.42201 0.0
C224 C 0.88734 0.79485 0.36788 0.0
C225 C 0.82985 0.75424 0.41095 0.0
C226 C 0.9156 0.76531 0.4376 0.0
C227 C 0.81738 0.81087 0.4471 0.0
C228 C 0.86904 0.85753 0.40009 0.0
C229 C 0.8902 0.81956 0.47328 0.0
O230 O 0.86522 0.7963 0.37079 0.0
O231 O 0.84503 0.75136 0.42701 0.0
O232 O 0.91914 0.78518 0.42861 0.0
O233 O 0.82047 0.8192 0.42667 0.0
O234 O 0.88743 0.84959 0.40944 0.0
O235 O 0.87782 0.80107 0.47306 0.0
O236 O 0.85229 0.84431 0.39404 0.0
O237 O 0.82982 0.79446 0.45574 0.0
O238 O 0.89994 0.82801 0.45499 0.0
O239 O 0.82737 0.77367 0.40042 0.0
O240 O 0.90228 0.80247 0.38282 0.0
O241 O 0.89568 0.75856 0.44497 0.0
Sc242 Sc 0.40058 0.68479 0.5817 0.0
Sc243 Sc 0.36393 0.7249 0.55283 0.0
Sc244 Sc 0.34317 0.69346 0.60139 0.0
O245 O 0.36931 0.70116 0.57867 0.0
C246 C 0.36822 0.64345 0.60011 0.0
C247 C 0.39053 0.68249 0.52711 0.0
C248 C 0.31838 0.69182 0.5527 0.0
C249 C 0.41696 0.73521 0.56398 0.0
C250 C 0.38754 0.70556 0.63274 0.0
C251 C 0.33097 0.74756 0.59024 0.0
O252 O 0.38683 0.65102 0.59087 0.0
O253 O 0.37912 0.70159 0.52779 0.0
O254 O 0.32099 0.68299 0.573 0.0
O255 O 0.41997 0.71485 0.57202 0.0
O256 O 0.36539 0.70444 0.62979 0.0
O257 O 0.34652 0.75064 0.5746 0.0
O258 O 0.40244 0.69782 0.61779 0.0
O259 O 0.39717 0.74296 0.55733 0.0
O260 O 0.32802 0.72792 0.6002 0.0
O261 O 0.39951 0.67295 0.54527 0.0
O262 O 0.35173 0.65703 0.606 0.0
O263 O 0.33104 0.70839 0.54472 0.0
Sc264 Sc 0.89884 0.84304 0.69224 0.0
Sc265 Sc 0.94913 0.8633 0.7213 0.0
Sc266 Sc 0.91849 0.90044 0.68278 0.0
O267 O 0.92214 0.869 0.69888 0.0
C268 C 0.89909 0.86781 0.64208 0.0
C269 C 0.94688 0.81705 0.6892 0.0
C270 C 0.97296 0.89015 0.67801 0.0
C271 C 0.91187 0.83145 0.74603 0.0
C272 C 0.86792 0.88764 0.70462 0.0
C273 C 0.93846 0.9165 0.73244 0.0
O274 O 0.89363 0.85134 0.65587 0.0
O275 O 0.95606 0.83009 0.70483 0.0
O276 O 0.95449 0.89973 0.66978 0.0
O277 O 0.90082 0.82864 0.72694 0.0
O278 O 0.88279 0.90247 0.69666 0.0
O279 O 0.94602 0.89673 0.73936 0.0
O280 O 0.87087 0.86553 0.70357 0.0
O281 O 0.92829 0.84634 0.74813 0.0
O282 O 0.92895 0.91968 0.71273 0.0
O283 O 0.92626 0.81995 0.68132 0.0
O284 O 0.90837 0.88656 0.64931 0.0
O285 O 0.97314 0.878 0.69665 0.0
Sc286 Sc 0.0973 0.65964 0.69322 0.0
Sc287 Sc 0.05023 0.63445 0.72395 0.0
Sc288 Sc 0.08407 0.60048 0.68517 0.0
O289 O 0.0772 0.63149 0.7009 0.0
C290 C 0.09954 0.63398 0.64356 0.0
C291 C 0.04616 0.67945 0.6902 0.0
C292 C 0.02886 0.60319 0.68228 0.0
C293 C 0.08423 0.6715 0.74685 0.0
C294 C 0.13302 0.61885 0.70644 0.0
C295 C 0.06686 0.58338 0.73573 0.0
O296 O 0.10279 0.65137 0.65689 0.0
O297 O 0.03857 0.66564 0.70605 0.0
O298 O 0.04816 0.5977 0.67239 0.0
O299 O 0.09478 0.67458 0.72756 0.0
O300 O 0.11987 0.60228 0.69887 0.0
O301 O 0.05836 0.60261 0.74309 0.0
O302 O 0.12765 0.64047 0.70458 0.0
O303 O 0.06905 0.65543 0.74957 0.0
O304 O 0.07541 0.58081 0.71548 0.0
O305 O 0.0671 0.67907 0.68256 0.0
O306 O 0.09279 0.61441 0.65133 0.0
O307 O 0.02772 0.61476 0.70127 0.0
Sc308 Sc 0.91896 0.10095 0.81644 0.0
Sc309 Sc 0.953 0.13642 0.77912 0.0
Sc310 Sc 0.90245 0.15924 0.80602 0.0
O311 O 0.92474 0.13214 0.80034 0.0
C312 C 0.86953 0.11592 0.79373 0.0
C313 C 0.93977 0.08401 0.76734 0.0
C314 C 0.91737 0.16952 0.75248 0.0
C315 C 0.97373 0.10832 0.8231 0.0
C316 C 0.90064 0.13501 0.85653 0.0
C317 C 0.95193 0.18269 0.81094 0.0
O318 O 0.88357 0.10029 0.80161 0.0
O319 O 0.94836 0.10344 0.7606 0.0
O320 O 0.90492 0.17252 0.77068 0.0
O321 O 0.95443 0.10012 0.83089 0.0
O322 O 0.89695 0.15191 0.84264 0.0
O323 O 0.96144 0.16876 0.79637 0.0
O324 O 0.90829 0.11547 0.84945 0.0
O325 O 0.97529 0.12003 0.80428 0.0
O326 O 0.93053 0.18146 0.81692 0.0
O327 O 0.92966 0.08125 0.78683 0.0
O328 O 0.8737 0.13781 0.79503 0.0
O329 O 0.93443 0.15519 0.75188 0.0
Sc330 Sc 0.08268 0.39969 0.81665 0.0
Sc331 Sc 0.05241 0.36275 0.77769 0.0
Sc332 Sc 0.10065 0.34156 0.80919 0.0
O333 O 0.0786 0.3681 0.80107 0.0
C334 C 0.1332 0.38476 0.79596 0.0
C335 C 0.0648 0.4153 0.76604 0.0
C336 C 0.08913 0.32867 0.75528 0.0
C337 C 0.02776 0.39098 0.81966 0.0
C338 C 0.10042 0.36781 0.85866 0.0
C339 C 0.05156 0.31791 0.81173 0.0
O340 O 0.11888 0.40037 0.80352 0.0
O341 O 0.05734 0.39555 0.75894 0.0
O342 O 0.09906 0.32576 0.77496 0.0
O343 O 0.04622 0.39991 0.8287 0.0
O344 O 0.10567 0.35082 0.84542 0.0
O345 O 0.04371 0.33032 0.79491 0.0
O346 O 0.09168 0.38652 0.85073 0.0
O347 O 0.02799 0.37894 0.80095 0.0
O348 O 0.07196 0.32033 0.82033 0.0
O349 O 0.07336 0.41855 0.78616 0.0
O350 O 0.12933 0.36281 0.79762 0.0
O351 O 0.07368 0.3444 0.75211 0.0
Sc352 Sc 0.69533 0.9032 0.84409 0.0
Sc353 Sc 0.7232 0.95413 0.8654 0.0
Sc354 Sc 0.68532 0.92236 0.90159 0.0
O355 O 0.70144 0.92647 0.8703 0.0
C356 C 0.64476 0.9034 0.86843 0.0
C357 C 0.69003 0.95294 0.82018 0.0
C358 C 0.68174 0.97693 0.89571 0.0
C359 C 0.74826 0.9174 0.83155 0.0
C360 C 0.70728 0.87194 0.88874 0.0
C361 C 0.73581 0.9415 0.91694 0.0
O362 O 0.65849 0.89908 0.85153 0.0
O363 O 0.70366 0.96327 0.83455 0.0
O364 O 0.67135 0.95793 0.9012 0.0
O365 O 0.73066 0.90385 0.83056 0.0
O366 O 0.69999 0.88707 0.90361 0.0
O367 O 0.74343 0.94752 0.89687 0.0
O368 O 0.70555 0.87469 0.86663 0.0
O369 O 0.74853 0.93567 0.84422 0.0
O370 O 0.71531 0.93386 0.92046 0.0
O371 O 0.68547 0.93112 0.82097 0.0
O372 O 0.6521 0.91134 0.88776 0.0
O373 O 0.70113 0.97738 0.88488 0.0
Sc374 Sc 0.31874 0.58045 0.90087 0.0
Sc375 Sc 0.27976 0.5511 0.86334 0.0
Sc376 Sc 0.31039 0.60068 0.84349 0.0
O377 O 0.30286 0.57743 0.86928 0.0
C378 C 0.29779 0.63143 0.88815 0.0
C379 C 0.26831 0.56195 0.91628 0.0
C380 C 0.25654 0.58894 0.8307 0.0
C381 C 0.32201 0.52594 0.89086 0.0
C382 C 0.36022 0.59939 0.86897 0.0
C383 C 0.31317 0.55225 0.81801 0.0
O384 O 0.30542 0.61634 0.90294 0.0
O385 O 0.26103 0.55527 0.8963 0.0
O386 O 0.27589 0.59961 0.82831 0.0
O387 O 0.33102 0.54424 0.90004 0.0
O388 O 0.34678 0.60527 0.85236 0.0
O389 O 0.29705 0.54347 0.83072 0.0
O390 O 0.35255 0.59004 0.8875 0.0
O391 O 0.30324 0.52631 0.87889 0.0
O392 O 0.32116 0.57288 0.82073 0.0
O393 O 0.28848 0.57031 0.91971 0.0
O394 O 0.29916 0.62873 0.866 0.0
O395 O 0.2539 0.57246 0.84545 0.0
Sc396 Sc 0.68368 0.08256 0.60072 0.0
Sc397 Sc 0.72086 0.04979 0.63754 0.0
Sc398 Sc 0.69065 0.09844 0.65949 0.0
O399 O 0.69853 0.07695 0.63244 0.0
C400 C 0.70515 0.1321 0.61759 0.0
C401 C 0.73371 0.06318 0.58525 0.0
C402 C 0.7442 0.08514 0.67212 0.0
C403 C 0.67843 0.02752 0.60833 0.0
C404 C 0.64163 0.10006 0.63264 0.0
C405 C 0.68681 0.0492 0.68236 0.0
O406 O 0.69738 0.11854 0.60141 0.0
O407 O 0.73966 0.05405 0.60467 0.0
O408 O 0.72469 0.09528 0.67537 0.0
O409 O 0.67084 0.04643 0.59902 0.0
O410 O 0.65475 0.10474 0.64989 0.0
O411 O 0.70368 0.04128 0.67007 0.0
O412 O 0.6496 0.0916 0.61382 0.0
O413 O 0.69649 0.02665 0.62128 0.0
O414 O 0.67839 0.06964 0.67989 0.0
O415 O 0.71439 0.07343 0.58206 0.0
O416 O 0.70328 0.12741 0.63935 0.0
O417 O 0.74716 0.07015 0.6559 0.0
Sc418 Sc 0.31036 0.4024 0.65933 0.0
Sc419 Sc 0.27966 0.45072 0.63724 0.0
Sc420 Sc 0.31839 0.41918 0.60095 0.0
O421 O 0.30268 0.42407 0.6324 0.0
C422 C 0.35999 0.4015 0.63341 0.0
C423 C 0.31327 0.45182 0.6824 0.0
C424 C 0.32234 0.47409 0.609 0.0
C425 C 0.25656 0.4149 0.67178 0.0
C426 C 0.29695 0.36927 0.61651 0.0
C427 C 0.26819 0.4377 0.58472 0.0
O428 O 0.34658 0.39692 0.65045 0.0
O429 O 0.29667 0.45969 0.6697 0.0
O430 O 0.33102 0.45535 0.60033 0.0
O431 O 0.27609 0.40473 0.67479 0.0
O432 O 0.30479 0.38324 0.60073 0.0
O433 O 0.26114 0.44563 0.60431 0.0
O434 O 0.29854 0.37347 0.63842 0.0
O435 O 0.25357 0.43015 0.6558 0.0
O436 O 0.28814 0.42869 0.58173 0.0
O437 O 0.32168 0.4313 0.6803 0.0
O438 O 0.35227 0.40981 0.61442 0.0
O439 O 0.30357 0.47449 0.62094 0.0
Sc440 Sc 0.90102 0.68642 0.91996 0.0
Sc441 Sc 0.8667 0.72382 0.95479 0.0
Sc442 Sc 0.84233 0.69625 0.90517 0.0
O443 O 0.87 0.70233 0.92659 0.0
C444 C 0.88461 0.70852 0.87087 0.0
C445 C 0.91776 0.73634 0.93946 0.0
C446 C 0.83147 0.74948 0.91978 0.0
C447 C 0.89782 0.68156 0.97488 0.0
C448 C 0.8668 0.64589 0.90291 0.0
C449 C 0.82112 0.69115 0.956 0.0
O450 O 0.90077 0.70152 0.88475 0.0
O451 O 0.8982 0.74371 0.94722 0.0
O452 O 0.82936 0.73169 0.90662 0.0
O453 O 0.90269 0.67189 0.95531 0.0
O454 O 0.84941 0.65948 0.90065 0.0
O455 O 0.83598 0.70482 0.96552 0.0
O456 O 0.88674 0.65332 0.90905 0.0
O457 O 0.88689 0.70084 0.97653 0.0
O458 O 0.82092 0.68644 0.93424 0.0
O459 O 0.92061 0.71617 0.93075 0.0
O460 O 0.86288 0.70629 0.87543 0.0
O461 O 0.84507 0.74975 0.93742 0.0
Sc462 Sc 0.9007 0.31728 0.58135 0.0
Sc463 Sc 0.86428 0.27811 0.55142 0.0
Sc464 Sc 0.84356 0.30773 0.60159 0.0
O465 O 0.86941 0.30094 0.57816 0.0
C466 C 0.88873 0.2962 0.63229 0.0
C467 C 0.9163 0.26658 0.56318 0.0
C468 C 0.83078 0.25439 0.58925 0.0
C469 C 0.89357 0.31948 0.52693 0.0
C470 C 0.86789 0.35821 0.60003 0.0
C471 C 0.81862 0.31078 0.55239 0.0
O472 O 0.90341 0.30308 0.61678 0.0
O473 O 0.89617 0.2584 0.55814 0.0
O474 O 0.82997 0.27268 0.60183 0.0
O475 O 0.89929 0.33046 0.54555 0.0
O476 O 0.85097 0.34462 0.60459 0.0
O477 O 0.83295 0.29703 0.54216 0.0
O478 O 0.88716 0.35067 0.59219 0.0
O479 O 0.88308 0.29986 0.52722 0.0
O480 O 0.81978 0.31639 0.57393 0.0
O481 O 0.91965 0.28739 0.56995 0.0
O482 O 0.8666 0.29824 0.62996 0.0
O483 O 0.84369 0.25298 0.57117 0.0
Sc484 Sc 0.10096 0.18545 0.58102 0.0
Sc485 Sc 0.1355 0.22507 0.54884 0.0
Sc486 Sc 0.15984 0.19309 0.59557 0.0
O487 O 0.13207 0.20134 0.57515 0.0
C488 C 0.11852 0.2054 0.63087 0.0
C489 C 0.08433 0.23663 0.56526 0.0
C490 C 0.17239 0.24687 0.58391 0.0
C491 C 0.10425 0.1843 0.52576 0.0
C492 C 0.13408 0.14344 0.59612 0.0
C493 C 0.18015 0.19093 0.54457 0.0
O494 O 0.10221 0.19809 0.61726 0.0
O495 O 0.10371 0.24423 0.5573 0.0
O496 O 0.17508 0.22736 0.59412 0.0
O497 O 0.09865 0.17376 0.54468 0.0
O498 O 0.15133 0.15671 0.60024 0.0
O499 O 0.16658 0.20704 0.53711 0.0
O500 O 0.11472 0.15132 0.58891 0.0
O501 O 0.11581 0.20332 0.52538 0.0
O502 O 0.17956 0.18299 0.5654 0.0
O503 O 0.08157 0.21609 0.57301 0.0
O504 O 0.14023 0.20381 0.62582 0.0
O505 O 0.15663 0.25001 0.56848 0.0
Sc506 Sc 0.60064 0.31717 0.41925 0.0
Sc507 Sc 0.63622 0.27822 0.45068 0.0
Sc508 Sc 0.6583 0.30734 0.40078 0.0
O509 O 0.63179 0.30079 0.42354 0.0
C510 C 0.61411 0.29592 0.36874 0.0
C511 C 0.58436 0.26667 0.43749 0.0
C512 C 0.67041 0.254 0.41385 0.0
C513 C 0.60646 0.31992 0.47399 0.0
C514 C 0.63415 0.35788 0.40131 0.0
C515 C 0.68211 0.31062 0.45049 0.0
O516 O 0.599 0.30298 0.38373 0.0
O517 O 0.60424 0.25874 0.44376 0.0
O518 O 0.67174 0.27228 0.40132 0.0
O519 O 0.60087 0.33048 0.4551 0.0
O520 O 0.65108 0.34417 0.39719 0.0
O521 O 0.66758 0.29688 0.46042 0.0
O522 O 0.61468 0.35051 0.40884 0.0
O523 O 0.61722 0.30046 0.47425 0.0
O524 O 0.68134 0.31625 0.42894 0.0
O525 O 0.58126 0.28727 0.42998 0.0
O526 O 0.63616 0.29769 0.37182 0.0
O527 O 0.65692 0.25266 0.43152 0.0
Sc528 Sc 0.60005 0.66152 0.80774 0.0
Sc529 Sc 0.55 0.63909 0.77962 0.0
Sc530 Sc 0.58373 0.6029 0.81644 0.0
O531 O 0.57799 0.63445 0.80109 0.0
C532 C 0.63332 0.61873 0.79462 0.0
C533 C 0.58598 0.67269 0.75418 0.0
C534 C 0.56363 0.58713 0.7667 0.0
C535 C 0.55038 0.68449 0.81262 0.0
C536 C 0.60126 0.63602 0.85762 0.0
C537 C 0.52885 0.6099 0.82263 0.0
O538 O 0.62903 0.64054 0.79659 0.0
O539 O 0.56894 0.65839 0.75311 0.0
O540 O 0.57351 0.58393 0.78623 0.0
O541 O 0.5717 0.68327 0.81885 0.0
O542 O 0.59387 0.61664 0.84991 0.0
O543 O 0.52747 0.62205 0.80407 0.0
O544 O 0.6051 0.65332 0.84427 0.0
O545 O 0.5412 0.67094 0.7975 0.0
O546 O 0.54809 0.60157 0.83044 0.0
O547 O 0.59809 0.67554 0.77263 0.0
O548 O 0.6193 0.60281 0.80195 0.0
O549 O 0.55495 0.60664 0.76037 0.0
Sc550 Sc 0.40267 0.84304 0.80682 0.0
Sc551 Sc 0.45305 0.86501 0.77901 0.0
Sc552 Sc 0.42049 0.90099 0.81705 0.0
O553 O 0.42533 0.86974 0.80079 0.0
C554 C 0.37048 0.88688 0.79468 0.0
C555 C 0.41683 0.83203 0.75319 0.0
C556 C 0.44058 0.91754 0.76749 0.0
C557 C 0.45189 0.81917 0.81145 0.0
C558 C 0.40161 0.86743 0.85734 0.0
C559 C 0.47532 0.89282 0.82246 0.0
O560 O 0.37428 0.86491 0.79581 0.0
O561 O 0.43384 0.84637 0.7522 0.0
O562 O 0.43116 0.92051 0.78729 0.0
O563 O 0.43061 0.82071 0.81778 0.0
O564 O 0.40999 0.88667 0.85027 0.0
O565 O 0.47613 0.88127 0.80349 0.0
O566 O 0.39726 0.85072 0.84341 0.0
O567 O 0.46129 0.8327 0.79642 0.0
O568 O 0.45632 0.90115 0.83089 0.0
O569 O 0.40469 0.82919 0.77162 0.0
O570 O 0.38483 0.90224 0.80262 0.0
O571 O 0.44842 0.89792 0.76042 0.0
Sc572 Sc 0.58402 0.40244 0.6832 0.0
Sc573 Sc 0.5507 0.3683 0.72171 0.0
Sc574 Sc 0.60082 0.34445 0.6945 0.0
O575 O 0.5786 0.37167 0.69995 0.0
C576 C 0.60207 0.36776 0.64349 0.0
C577 C 0.52933 0.39824 0.67917 0.0
C578 C 0.55026 0.32221 0.68977 0.0
C579 C 0.56497 0.41968 0.73313 0.0
C580 C 0.63367 0.38814 0.70577 0.0
C581 C 0.58618 0.33388 0.74775 0.0
O582 O 0.59503 0.38758 0.65041 0.0
O583 O 0.52833 0.38794 0.69884 0.0
O584 O 0.57207 0.32212 0.68511 0.0
O585 O 0.57287 0.42247 0.71261 0.0
O586 O 0.63015 0.36613 0.70429 0.0
O587 O 0.56836 0.34719 0.74773 0.0
O588 O 0.61914 0.40346 0.6982 0.0
O589 O 0.55824 0.40001 0.74114 0.0
O590 O 0.5996 0.3319 0.73014 0.0
O591 O 0.5486 0.40288 0.66886 0.0
O592 O 0.60527 0.35089 0.65754 0.0
O593 O 0.54053 0.33728 0.70306 0.0
Sc594 Sc 0.41853 0.10307 0.68547 0.0
Sc595 Sc 0.45299 0.13794 0.72302 0.0
Sc596 Sc 0.40272 0.16148 0.69626 0.0
O597 O 0.42469 0.1341 0.70176 0.0
C598 C 0.40052 0.13758 0.6456 0.0
C599 C 0.4733 0.11026 0.67859 0.0
C600 C 0.45234 0.18474 0.69196 0.0
C601 C 0.43955 0.08544 0.73421 0.0
C602 C 0.36932 0.11841 0.70838 0.0
C603 C 0.41745 0.17069 0.75005 0.0
O604 O 0.40773 0.11786 0.65263 0.0
O605 O 0.47504 0.12186 0.69748 0.0
O606 O 0.43102 0.18359 0.68569 0.0
O607 O 0.4292 0.08298 0.71481 0.0
O608 O 0.37368 0.14026 0.70698 0.0
O609 O 0.43441 0.15625 0.75053 0.0
O610 O 0.38322 0.10265 0.70052 0.0
O611 O 0.44839 0.10471 0.74104 0.0
O612 O 0.4052 0.17419 0.73181 0.0
O613 O 0.45394 0.10213 0.67088 0.0
O614 O 0.39727 0.15455 0.65953 0.0
O615 O 0.46163 0.17058 0.70644 0.0
Sc616 Sc 0.81078 0.60286 0.65832 0.0
Sc617 Sc 0.78158 0.55237 0.63859 0.0
Sc618 Sc 0.81954 0.58296 0.6008 0.0
O619 O 0.80388 0.57939 0.63255 0.0
C620 C 0.79807 0.63365 0.61363 0.0
C621 C 0.75729 0.58995 0.671 0.0
C622 C 0.76942 0.56321 0.5858 0.0
C623 C 0.81445 0.55483 0.68426 0.0
C624 C 0.86073 0.60217 0.63298 0.0
C625 C 0.82406 0.52838 0.61058 0.0
O626 O 0.79981 0.6306 0.63567 0.0
O627 O 0.75534 0.57281 0.65691 0.0
O628 O 0.78936 0.57206 0.58221 0.0
O629 O 0.82125 0.57585 0.68186 0.0
O630 O 0.85317 0.59343 0.61409 0.0
O631 O 0.80533 0.52838 0.62256 0.0
O632 O 0.84722 0.60723 0.64981 0.0
O633 O 0.79948 0.54488 0.67102 0.0
O634 O 0.83276 0.54692 0.60153 0.0
O635 O 0.7761 0.60164 0.67288 0.0
O636 O 0.80547 0.61872 0.59857 0.0
O637 O 0.76246 0.5563 0.60582 0.0
Sc638 Sc 0.18402 0.91943 0.60172 0.0
Sc639 Sc 0.22116 0.95242 0.63841 0.0
Sc640 Sc 0.19148 0.90345 0.66041 0.0
O641 O 0.19903 0.92508 0.63338 0.0
C642 C 0.14232 0.90151 0.6338 0.0
C643 C 0.17863 0.97444 0.60905 0.0
C644 C 0.187 0.95273 0.68316 0.0
C645 C 0.23403 0.93886 0.58619 0.0
C646 C 0.2058 0.86998 0.61839 0.0
C647 C 0.24485 0.91739 0.67321 0.0
O648 O 0.15007 0.91016 0.61497 0.0
O649 O 0.19676 0.9754 0.6219 0.0
O650 O 0.17903 0.93209 0.68084 0.0
O651 O 0.21464 0.92873 0.58302 0.0
O652 O 0.20422 0.87463 0.64017 0.0
O653 O 0.24762 0.93247 0.65705 0.0
O654 O 0.19785 0.88353 0.60232 0.0
O655 O 0.24008 0.94794 0.60562 0.0
O656 O 0.2255 0.90689 0.67631 0.0
O657 O 0.17098 0.95545 0.59996 0.0
O658 O 0.15562 0.89685 0.65091 0.0
O659 O 0.20368 0.96096 0.6708 0.0
Sc660 Sc 0.81843 0.42169 0.90056 0.0
Sc661 Sc 0.78072 0.45449 0.8654 0.0
Sc662 Sc 0.807 0.40322 0.84306 0.0
O663 O 0.80191 0.42635 0.86958 0.0
C664 C 0.85809 0.40308 0.86605 0.0
C665 C 0.82273 0.47603 0.89577 0.0
C666 C 0.8123 0.45325 0.81949 0.0
C667 C 0.76833 0.44136 0.91662 0.0
C668 C 0.79615 0.37162 0.88775 0.0
C669 C 0.75436 0.41796 0.83181 0.0
O670 O 0.85108 0.40968 0.88601 0.0
O671 O 0.80287 0.47692 0.88585 0.0
O672 O 0.81513 0.43113 0.81924 0.0
O673 O 0.78899 0.43401 0.91997 0.0
O674 O 0.79838 0.37429 0.8657 0.0
O675 O 0.75536 0.437 0.84329 0.0
O676 O 0.8029 0.38689 0.9027 0.0
O677 O 0.76035 0.44696 0.89655 0.0
O678 O 0.77104 0.40328 0.8316 0.0
O679 O 0.8333 0.45683 0.9 0.0
O680 O 0.84413 0.40005 0.84905 0.0
O681 O 0.80068 0.46422 0.83507 0.0
Sc682 Sc 0.19149 0.09896 0.84434 0.0
Sc683 Sc 0.22241 0.04998 0.86466 0.0
Sc684 Sc 0.1839 0.08017 0.90219 0.0
O685 O 0.19937 0.07638 0.8705 0.0
C686 C 0.20491 0.13079 0.88793 0.0
C687 C 0.24518 0.08693 0.83119 0.0
C688 C 0.23442 0.06178 0.91736 0.0
C689 C 0.18832 0.05038 0.8198 0.0
C690 C 0.14203 0.09857 0.87052 0.0
C691 C 0.18041 0.02537 0.89278 0.0
O692 O 0.20337 0.12716 0.86594 0.0
O693 O 0.24821 0.07122 0.84666 0.0
O694 O 0.21446 0.07061 0.92082 0.0
O695 O 0.18 0.07083 0.82266 0.0
O696 O 0.14983 0.08932 0.88904 0.0
O697 O 0.19893 0.02558 0.88047 0.0
O698 O 0.15536 0.10425 0.85375 0.0
O699 O 0.20501 0.042 0.83206 0.0
O700 O 0.1717 0.04377 0.90213 0.0
O701 O 0.22564 0.09717 0.82849 0.0
O702 O 0.19717 0.11635 0.90335 0.0
O703 O 0.24126 0.05427 0.89753 0.0
Sc704 Sc 0.60084 0.81683 0.58061 0.0
Sc705 Sc 0.63629 0.7777 0.54914 0.0
Sc706 Sc 0.65918 0.80876 0.59731 0.0
O707 O 0.6321 0.80095 0.57573 0.0
C708 C 0.6335 0.85849 0.59749 0.0
C709 C 0.6056 0.81868 0.52566 0.0
C710 C 0.68095 0.81203 0.54687 0.0
C711 C 0.58483 0.76574 0.56393 0.0
C712 C 0.6165 0.7962 0.63082 0.0
C713 C 0.67248 0.75539 0.58453 0.0
O714 O 0.61448 0.85074 0.5893 0.0
O715 O 0.61707 0.79961 0.52543 0.0
O716 O 0.67994 0.81941 0.56791 0.0
O717 O 0.58171 0.78628 0.57159 0.0
O718 O 0.63847 0.7975 0.62685 0.0
O719 O 0.65708 0.75255 0.5687 0.0
O720 O 0.6009 0.80378 0.61657 0.0
O721 O 0.6045 0.75821 0.55664 0.0
O722 O 0.67469 0.77456 0.59551 0.0
O723 O 0.59962 0.82907 0.54452 0.0
O724 O 0.65048 0.84512 0.60236 0.0
O725 O 0.66748 0.7962 0.53864 0.0
Sc726 Sc 0.65927 0.19734 0.90051 0.0
Sc727 Sc 0.63834 0.22451 0.95182 0.0
Sc728 Sc 0.60197 0.18631 0.92011 0.0
O729 O 0.63316 0.20286 0.92409 0.0
C730 C 0.61422 0.20901 0.86981 0.0
C731 C 0.66961 0.25107 0.91468 0.0
C732 C 0.58525 0.23531 0.94118 0.0
C733 C 0.68507 0.19336 0.94896 0.0
C734 C 0.63547 0.14654 0.9001 0.0
C735 C 0.61186 0.18049 0.97454 0.0
O736 O 0.63634 0.2078 0.87255 0.0
O737 O 0.65584 0.25163 0.93216 0.0
O738 O 0.58233 0.21553 0.93176 0.0
O739 O 0.68295 0.18706 0.9277 0.0
O740 O 0.61628 0.15352 0.90864 0.0
O741 O 0.62317 0.19961 0.97517 0.0
O742 O 0.65212 0.16053 0.89565 0.0
O743 O 0.67127 0.20774 0.95897 0.0
O744 O 0.6031 0.17207 0.95573 0.0
O745 O 0.67237 0.23285 0.90218 0.0
O746 O 0.59948 0.20125 0.88487 0.0
O747 O 0.60501 0.24268 0.94837 0.0
Sc748 Sc 0.34321 0.3065 0.90483 0.0
Sc749 Sc 0.3645 0.27576 0.95353 0.0
Sc750 Sc 0.4008 0.31554 0.92359 0.0
O751 O 0.36962 0.29911 0.92726 0.0
C752 C 0.38702 0.29418 0.87296 0.0
C753 C 0.33047 0.25278 0.91725 0.0
C754 C 0.41728 0.26512 0.94146 0.0
C755 C 0.31954 0.30956 0.954 0.0
C756 C 0.36828 0.35652 0.90479 0.0
C757 C 0.39188 0.31825 0.97836 0.0
O758 O 0.36492 0.2948 0.87636 0.0
O759 O 0.34637 0.24973 0.93253 0.0
O760 O 0.42022 0.28539 0.93311 0.0
O761 O 0.32189 0.3179 0.93346 0.0
O762 O 0.38686 0.34933 0.91442 0.0
O763 O 0.38034 0.29923 0.97803 0.0
O764 O 0.35199 0.34265 0.89906 0.0
O765 O 0.33191 0.29277 0.962 0.0
O766 O 0.40051 0.32762 0.95995 0.0
O767 O 0.32762 0.27231 0.90706 0.0
O768 O 0.40206 0.30242 0.88752 0.0
O769 O 0.39759 0.25753 0.94862 0.0
Sc770 Sc 0.90302 0.18434 0.08083 0.0
Sc771 Sc 0.86776 0.22368 0.04943 0.0
Sc772 Sc 0.84457 0.19223 0.0972 0.0
O773 O 0.87178 0.20021 0.07585 0.0
C774 C 0.87025 0.14251 0.09727 0.0
C775 C 0.89841 0.18282 0.02578 0.0
C776 C 0.82301 0.18951 0.04667 0.0
C777 C 0.91919 0.23549 0.06446 0.0
C778 C 0.88695 0.20484 0.13105 0.0
C779 C 0.83165 0.24579 0.08496 0.0
O780 O 0.88934 0.15033 0.08932 0.0
O781 O 0.88694 0.20188 0.02563 0.0
O782 O 0.82398 0.18184 0.0676 0.0
O783 O 0.92226 0.21493 0.07206 0.0
O784 O 0.86503 0.20329 0.12694 0.0
O785 O 0.84712 0.24871 0.06923 0.0
O786 O 0.90272 0.19741 0.11687 0.0
O787 O 0.89956 0.24303 0.0571 0.0
O788 O 0.82919 0.22649 0.09564 0.0
O789 O 0.90436 0.1723 0.0446 0.0
O790 O 0.8532 0.15584 0.10202 0.0
O791 O 0.83651 0.20544 0.0387 0.0
Sc792 Sc 0.40682 0.34314 0.19868 0.0
Sc793 Sc 0.45587 0.36863 0.2262 0.0
Sc794 Sc 0.42136 0.40158 0.18727 0.0
O795 O 0.42796 0.37111 0.20423 0.0
C796 C 0.40504 0.36606 0.1476 0.0
C797 C 0.45788 0.32214 0.19481 0.0
C798 C 0.47629 0.39861 0.18329 0.0
C799 C 0.42106 0.33363 0.25223 0.0
C800 C 0.37207 0.38553 0.20927 0.0
C801 C 0.43992 0.41994 0.23701 0.0
O802 O 0.40244 0.34918 0.16174 0.0
O803 O 0.46707 0.33738 0.20828 0.0
O804 O 0.45685 0.40307 0.17323 0.0
O805 O 0.40818 0.33099 0.23432 0.0
O806 O 0.38591 0.4015 0.20177 0.0
O807 O 0.44775 0.40066 0.24503 0.0
O808 O 0.37682 0.36375 0.20801 0.0
O809 O 0.43843 0.34754 0.25252 0.0
O810 O 0.43147 0.42217 0.21664 0.0
O811 O 0.43622 0.32177 0.18964 0.0
O812 O 0.4112 0.38621 0.15441 0.0
O813 O 0.47774 0.38828 0.20292 0.0
Sc814 Sc 0.60236 0.15791 0.19475 0.0
Sc815 Sc 0.55139 0.13567 0.22185 0.0
Sc816 Sc 0.58402 0.10025 0.1839 0.0
O817 O 0.57932 0.13135 0.2003 0.0
C818 C 0.60271 0.13418 0.14389 0.0
C819 C 0.55257 0.18179 0.18993 0.0
C820 C 0.52944 0.10567 0.17964 0.0
C821 C 0.58769 0.16933 0.24782 0.0
C822 C 0.63406 0.11348 0.20629 0.0
C823 C 0.56449 0.08398 0.23389 0.0
O824 O 0.60655 0.15108 0.15776 0.0
O825 O 0.54221 0.16695 0.20301 0.0
O826 O 0.54863 0.10029 0.16956 0.0
O827 O 0.60139 0.17074 0.23035 0.0
O828 O 0.61912 0.0985 0.19888 0.0
O829 O 0.55792 0.10385 0.2416 0.0
O830 O 0.63111 0.13556 0.20464 0.0
O831 O 0.56952 0.15649 0.24773 0.0
O832 O 0.57255 0.08083 0.2135 0.0
O833 O 0.57438 0.18111 0.18535 0.0
O834 O 0.59521 0.11461 0.15103 0.0
O835 O 0.52859 0.11647 0.19905 0.0
Sc836 Sc 0.41835 0.60357 0.31723 0.0
Sc837 Sc 0.45305 0.64028 0.28181 0.0
Sc838 Sc 0.4007 0.66164 0.30657 0.0
O839 O 0.42401 0.63515 0.30172 0.0
C840 C 0.36896 0.61747 0.2939 0.0
C841 C 0.441 0.58797 0.26852 0.0
C842 C 0.41697 0.6723 0.25376 0.0
C843 C 0.47283 0.61115 0.32556 0.0
C844 C 0.39895 0.63737 0.35709 0.0
C845 C 0.44931 0.68677 0.31297 0.0
O846 O 0.38344 0.60207 0.30135 0.0
O847 O 0.4493 0.60771 0.2623 0.0
O848 O 0.40294 0.67405 0.27095 0.0
O849 O 0.45336 0.60289 0.33282 0.0
O850 O 0.39568 0.65449 0.34332 0.0
O851 O 0.4605 0.67225 0.3003 0.0
O852 O 0.40631 0.61773 0.34994 0.0
O853 O 0.47472 0.6233 0.30706 0.0
O854 O 0.42748 0.6856 0.31691 0.0
O855 O 0.43049 0.58462 0.2877 0.0
O856 O 0.37253 0.63937 0.29588 0.0
O857 O 0.4353 0.65965 0.25445 0.0
Sc858 Sc 0.58218 0.90173 0.31669 0.0
Sc859 Sc 0.55077 0.86527 0.27865 0.0
Sc860 Sc 0.6013 0.8442 0.30734 0.0
O861 O 0.57815 0.87033 0.30075 0.0
C862 C 0.63257 0.88859 0.29484 0.0
C863 C 0.56355 0.91674 0.26588 0.0
C864 C 0.58717 0.83046 0.25468 0.0
C865 C 0.5276 0.89576 0.31991 0.0
C866 C 0.60148 0.86918 0.35747 0.0
C867 C 0.55167 0.82059 0.31261 0.0
O868 O 0.61758 0.90355 0.30227 0.0
O869 O 0.55758 0.89663 0.2583 0.0
O870 O 0.60006 0.82969 0.27274 0.0
O871 O 0.54652 0.90139 0.33036 0.0
O872 O 0.60597 0.85233 0.34379 0.0
O873 O 0.54149 0.83461 0.29852 0.0
O874 O 0.59298 0.88827 0.35016 0.0
O875 O 0.52732 0.88485 0.30053 0.0
O876 O 0.57338 0.82138 0.31765 0.0
O877 O 0.57096 0.92036 0.28645 0.0
O878 O 0.62969 0.86649 0.29646 0.0
O879 O 0.56946 0.84387 0.25332 0.0
Sc880 Sc 0.19185 0.4034 0.34189 0.0
Sc881 Sc 0.22239 0.4515 0.3654 0.0
Sc882 Sc 0.18408 0.41851 0.40072 0.0
O883 O 0.19953 0.42451 0.36936 0.0
C884 C 0.14225 0.40215 0.36781 0.0
C885 C 0.18866 0.45371 0.32022 0.0
C886 C 0.18122 0.47375 0.39665 0.0
C887 C 0.24541 0.41619 0.32957 0.0
C888 C 0.20512 0.36893 0.3836 0.0
C889 C 0.23475 0.43622 0.41686 0.0
O890 O 0.15552 0.39835 0.35048 0.0
O891 O 0.20426 0.46206 0.33389 0.0
O892 O 0.17143 0.4546 0.40285 0.0
O893 O 0.22625 0.40529 0.32687 0.0
O894 O 0.19781 0.38259 0.39987 0.0
O895 O 0.24181 0.44437 0.39736 0.0
O896 O 0.20305 0.3737 0.36189 0.0
O897 O 0.24789 0.43212 0.34493 0.0
O898 O 0.2146 0.4276 0.41987 0.0
O899 O 0.18126 0.43273 0.32135 0.0
O900 O 0.1501 0.40947 0.38717 0.0
O901 O 0.19991 0.47457 0.3846 0.0
Sc902 Sc 0.81759 0.08128 0.40144 0.0
Sc903 Sc 0.78046 0.04757 0.36552 0.0
Sc904 Sc 0.8082 0.09777 0.343 0.0
O905 O 0.80191 0.0756 0.37005 0.0
C906 C 0.79513 0.13074 0.38608 0.0
C907 C 0.76834 0.06052 0.41787 0.0
C908 C 0.75458 0.08349 0.33231 0.0
C909 C 0.82408 0.02652 0.39383 0.0
C910 C 0.85831 0.09938 0.36799 0.0
C911 C 0.81282 0.04831 0.31959 0.0
O912 O 0.80261 0.11669 0.40193 0.0
O913 O 0.76165 0.05218 0.39832 0.0
O914 O 0.773 0.09561 0.32931 0.0
O915 O 0.83197 0.04575 0.40214 0.0
O916 O 0.84478 0.10303 0.35079 0.0
O917 O 0.79785 0.03902 0.33326 0.0
O918 O 0.85082 0.09196 0.38745 0.0
O919 O 0.80529 0.02509 0.38205 0.0
O920 O 0.81916 0.06958 0.32101 0.0
O921 O 0.78786 0.07047 0.42084 0.0
O922 O 0.79711 0.12658 0.36425 0.0
O923 O 0.75361 0.06651 0.34669 0.0
Sc924 Sc 0.1829 0.58512 0.09989 0.0
Sc925 Sc 0.22139 0.55244 0.13534 0.0
Sc926 Sc 0.19092 0.60072 0.15855 0.0
O927 O 0.1985 0.5794 0.13124 0.0
C928 C 0.2041 0.63485 0.11646 0.0
C929 C 0.23352 0.56731 0.08369 0.0
C930 C 0.24448 0.58784 0.17099 0.0
C931 C 0.18006 0.52985 0.10455 0.0
C932 C 0.14113 0.60158 0.13286 0.0
C933 C 0.18785 0.55062 0.18068 0.0
O934 O 0.19665 0.62106 0.10035 0.0
O935 O 0.24066 0.55928 0.10323 0.0
O936 O 0.22535 0.59883 0.17357 0.0
O937 O 0.17024 0.54894 0.09817 0.0
O938 O 0.15449 0.60553 0.15009 0.0
O939 O 0.2034 0.54217 0.16702 0.0
O940 O 0.14894 0.59424 0.11349 0.0
O941 O 0.19882 0.5292 0.11649 0.0
O942 O 0.18041 0.57157 0.1794 0.0
O943 O 0.21336 0.57591 0.08071 0.0
O944 O 0.20212 0.63027 0.13823 0.0
O945 O 0.247 0.57193 0.15561 0.0
Sc946 Sc 0.80738 0.90284 0.15867 0.0
Sc947 Sc 0.78018 0.95347 0.13642 0.0
Sc948 Sc 0.8165 0.91922 0.10013 0.0
O949 O 0.80117 0.92512 0.13167 0.0
C950 C 0.85731 0.90103 0.13331 0.0
C951 C 0.81266 0.95215 0.18223 0.0
C952 C 0.82365 0.97405 0.10754 0.0
C953 C 0.75395 0.91777 0.16954 0.0
C954 C 0.79411 0.86977 0.11577 0.0
C955 C 0.76731 0.94035 0.08419 0.0
O956 O 0.84384 0.89723 0.15053 0.0
O957 O 0.79771 0.96164 0.16869 0.0
O958 O 0.83093 0.95476 0.09882 0.0
O959 O 0.77225 0.90546 0.17253 0.0
O960 O 0.80167 0.88376 0.09992 0.0
O961 O 0.76125 0.9494 0.10363 0.0
O962 O 0.79589 0.87406 0.13759 0.0
O963 O 0.75313 0.93475 0.15516 0.0
O964 O 0.78648 0.92976 0.08113 0.0
O965 O 0.81883 0.93085 0.18065 0.0
O966 O 0.84979 0.9087 0.11396 0.0
O967 O 0.80529 0.97565 0.11995 0.0
Sc968 Sc 0.40126 0.18426 0.42092 0.0
Sc969 Sc 0.36332 0.22395 0.44874 0.0
Sc970 Sc 0.34475 0.19339 0.39869 0.0
O971 O 0.36983 0.20062 0.42278 0.0
C972 C 0.39056 0.20543 0.36954 0.0
C973 C 0.4167 0.23466 0.43954 0.0
C974 C 0.33171 0.24722 0.41028 0.0
C975 C 0.38952 0.18166 0.47515 0.0
C976 C 0.36962 0.1432 0.40072 0.0
C977 C 0.31766 0.19097 0.44611 0.0
O978 O 0.40474 0.19745 0.38504 0.0
O979 O 0.39661 0.24232 0.44541 0.0
O980 O 0.32954 0.2279 0.39951 0.0
O981 O 0.39904 0.17221 0.45722 0.0
O982 O 0.35348 0.15694 0.39422 0.0
O983 O 0.33027 0.20694 0.45535 0.0
O984 O 0.38782 0.15057 0.41091 0.0
O985 O 0.37792 0.20062 0.47412 0.0
O986 O 0.32104 0.18281 0.42565 0.0
O987 O 0.42013 0.21434 0.43156 0.0
O988 O 0.36832 0.2045 0.37155 0.0
O989 O 0.34632 0.24989 0.42686 0.0
Sc990 Sc 0.40187 0.81875 0.082 0.0
Sc991 Sc 0.36578 0.77918 0.05193 0.0
Sc992 Sc 0.3442 0.81009 0.10078 0.0
O993 O 0.3706 0.80254 0.07829 0.0
C994 C 0.3881 0.79789 0.13273 0.0
C995 C 0.41764 0.76762 0.06503 0.0
C996 C 0.3306 0.75668 0.08849 0.0
C997 C 0.39566 0.82009 0.0272 0.0
C998 C 0.36944 0.86012 0.10026 0.0
C999 C 0.32111 0.81346 0.05096 0.0
O1000 O 0.4032 0.80551 0.11794 0.0
O1001 O 0.39769 0.75972 0.05895 0.0
O1002 O 0.32883 0.77573 0.09976 0.0
O1003 O 0.40172 0.83098 0.04577 0.0
O1004 O 0.35275 0.84649 0.10542 0.0
O1005 O 0.3345 0.79785 0.04219 0.0
O1006 O 0.3883 0.85262 0.09143 0.0
O1007 O 0.38457 0.8008 0.02757 0.0
O1008 O 0.32244 0.8205 0.07209 0.0
O1009 O 0.42091 0.78834 0.07211 0.0
O1010 O 0.36601 0.79915 0.12951 0.0
O1011 O 0.34527 0.75411 0.07194 0.0
Sc1012 Sc 0.60029 0.68367 0.08242 0.0
Sc1013 Sc 0.63771 0.72178 0.05158 0.0
Sc1014 Sc 0.65842 0.69101 0.10047 0.0
O1015 O 0.63202 0.69894 0.07817 0.0
C1016 C 0.61526 0.70457 0.13285 0.0
C1017 C 0.58502 0.73398 0.06372 0.0
C1018 C 0.67126 0.74479 0.08812 0.0
C1019 C 0.60953 0.67959 0.02754 0.0
C1020 C 0.632 0.64167 0.10034 0.0
C1021 C 0.68283 0.68802 0.05195 0.0
O1022 O 0.59962 0.69688 0.11862 0.0
O1023 O 0.60469 0.74044 0.05551 0.0
O1024 O 0.67428 0.72524 0.09829 0.0
O1025 O 0.5999 0.67138 0.04603 0.0
O1026 O 0.64895 0.65484 0.10589 0.0
O1027 O 0.67052 0.70474 0.04371 0.0
O1028 O 0.61343 0.64964 0.09136 0.0
O1029 O 0.62215 0.6979 0.02747 0.0
O1030 O 0.67987 0.67943 0.07225 0.0
O1031 O 0.58166 0.7143 0.07316 0.0
O1032 O 0.63718 0.70299 0.12888 0.0
O1033 O 0.65542 0.74778 0.07276 0.0
Sc1034 Sc 0.10237 0.815 0.92216 0.0
Sc1035 Sc 0.13842 0.77687 0.95454 0.0
Sc1036 Sc 0.16025 0.80484 0.90417 0.0
O1037 O 0.13362 0.79873 0.92689 0.0
C1038 C 0.11623 0.79289 0.87208 0.0
C1039 C 0.08575 0.76557 0.94232 0.0
C1040 C 0.17095 0.75107 0.91797 0.0
C1041 C 0.11093 0.82044 0.97683 0.0
C1042 C 0.13593 0.85536 0.90359 0.0
C1043 C 0.18456 0.80891 0.95325 0.0
O1044 O 0.10092 0.80066 0.88656 0.0
O1045 O 0.10536 0.75843 0.95012 0.0
O1046 O 0.17383 0.76954 0.90589 0.0
O1047 O 0.10245 0.82881 0.9579 0.0
O1048 O 0.15273 0.84154 0.89922 0.0
O1049 O 0.17094 0.79399 0.9627 0.0
O1050 O 0.11663 0.84814 0.91167 0.0
O1051 O 0.12244 0.80145 0.97767 0.0
O1052 O 0.18285 0.81541 0.93204 0.0
O1053 O 0.08285 0.78535 0.93288 0.0
O1054 O 0.13822 0.79415 0.87576 0.0
O1055 O 0.15674 0.75007 0.93508 0.0
H1056 H 1.00007 0.18529 0.30251 0.0
H1057 H 0.05838 0.21809 0.33807 0.0
H1058 H 0.97498 0.21741 0.3139 0.0
H1059 H 0.03286 0.25017 0.35001 0.0
H1060 H 0.93184 0.2764 0.33274 0.0
H1061 H 0.95549 0.24224 0.34296 0.0
H1062 H 0.01809 0.27992 0.32319 0.0
H1063 H 0.99478 0.31382 0.31348 0.0
C1064 C 0.00746 0.19917 0.3131 0.0
C1065 C 0.03141 0.1996 0.31865 0.0
C1066 C 0.99293 0.21739 0.32003 0.0
C1067 C 0.00205 0.23639 0.33265 0.0
C1068 C 0.0255 0.23582 0.34002 0.0
C1069 C 0.0401 0.21755 0.33306 0.0
C1070 C 0.9507 0.2775 0.33116 0.0
C1071 C 0.96144 0.29744 0.32161 0.0
C1072 C 0.9642 0.25802 0.33706 0.0
C1073 C 0.98855 0.25835 0.33357 0.0
C1074 C 0.99939 0.27914 0.32623 0.0
C1075 C 0.98595 0.29847 0.32027 0.0
H1076 H 0.99645 0.67725 0.17269 0.0
H1077 H 0.93983 0.72531 0.18664 0.0
H1078 H 0.02194 0.71004 0.16279 0.0
H1079 H 0.96539 0.75807 0.17855 0.0
H1080 H 0.06536 0.77079 0.19444 0.0
H1081 H 0.04131 0.73683 0.18589 0.0
H1082 H 0.98833 0.78209 0.15591 0.0
H1083 H 0.01194 0.81609 0.16637 0.0
C1084 C 0.9895 0.69489 0.17346 0.0
C1085 C 0.96644 0.69896 0.18078 0.0
C1086 C 0.00405 0.71365 0.1679 0.0
C1087 C 0.99595 0.73678 0.17033 0.0
C1088 C 0.9723 0.74059 0.17613 0.0
C1089 C 0.95761 0.72181 0.18104 0.0
C1090 C 0.04872 0.77329 0.18567 0.0
C1091 C 0.04006 0.7958 0.18151 0.0
C1092 C 0.03498 0.75385 0.1805 0.0
C1093 C 0.01259 0.75668 0.17055 0.0
C1094 C 0.0051 0.7793 0.16427 0.0
C1095 C 0.01857 0.79875 0.17014 0.0
H1096 H 0.30921 0.00386 0.18604 0.0
H1097 H 0.33703 0.06479 0.2214 0.0
H1098 H 0.31755 0.98017 0.22025 0.0
H1099 H 0.34573 0.04079 0.25566 0.0
H1100 H 0.33683 0.93945 0.28223 0.0
H1101 H 0.34614 0.96352 0.24819 0.0
H1102 H 0.31656 0.02389 0.28287 0.0
H1103 H 0.30761 1.00014 0.31689 0.0
C1104 C 0.31753 0.01211 0.20096 0.0
C1105 C 0.3219 0.03631 0.20127 0.0
C1106 C 0.32261 0.99845 0.22046 0.0
C1107 C 0.33211 0.00871 0.24067 0.0
C1108 C 0.33818 0.03253 0.24035 0.0
C1109 C 0.33319 0.04623 0.22075 0.0
C1110 C 0.33278 0.95797 0.28278 0.0
C1111 C 0.32096 0.9678 0.302 0.0
C1112 C 0.33813 0.97171 0.26331 0.0
C1113 C 0.33187 0.99547 0.26284 0.0
C1114 C 0.32178 0.00566 0.2828 0.0
C1115 C 0.31635 0.99195 0.30218 0.0
H1116 H 0.69597 0.49901 0.31818 0.0
H1117 H 0.65993 0.55716 0.28565 0.0
H1118 H 0.68725 0.47476 0.28445 0.0
H1119 H 0.6509 0.53259 0.25196 0.0
H1120 H 0.69031 0.49711 0.18824 0.0
H1121 H 0.68054 0.51931 0.22308 0.0
H1122 H 0.65859 0.45576 0.25775 0.0
H1123 H 0.6687 0.43329 0.22284 0.0
C1124 C 0.68576 0.50648 0.30406 0.0
C1125 C 0.67926 0.53019 0.30425 0.0
C1126 C 0.68047 0.49247 0.28486 0.0
C1127 C 0.66862 0.50193 0.26553 0.0
C1128 C 0.6603 0.52502 0.26659 0.0
C1129 C 0.66553 0.53905 0.28584 0.0
C1130 C 0.68309 0.48787 0.20315 0.0
C1131 C 0.68088 0.4634 0.20307 0.0
C1132 C 0.67714 0.50065 0.22299 0.0
C1133 C 0.66896 0.48918 0.24313 0.0
C1134 C 0.66506 0.46493 0.24246 0.0
C1135 C 0.67089 0.45212 0.22252 0.0
H1136 H 0.3157 0.30342 1.001 0.0
H1137 H 0.28353 0.33913 0.94246 0.0
H1138 H 0.28373 0.31536 0.026 0.0
H1139 H 0.25148 0.35155 0.9679 0.0
H1140 H 0.22533 0.33521 0.06921 0.0
H1141 H 0.25942 0.34509 0.0453 0.0
H1142 H 0.22135 0.32507 0.98303 0.0
H1143 H 0.18753 0.31565 0.00659 0.0
C1144 C 0.30197 0.31416 0.99354 0.0
C1145 C 0.30169 0.31966 0.96957 0.0
C1146 C 0.28384 0.3214 0.00803 0.0
C1147 C 0.26503 0.33424 0.99883 0.0
C1148 C 0.26571 0.34145 0.97532 0.0
C1149 C 0.28396 0.33424 0.96078 0.0
C1150 C 0.22412 0.33352 0.05037 0.0
C1151 C 0.2041 0.32396 0.0398 0.0
C1152 C 0.24356 0.33923 0.03671 0.0
C1153 C 0.24311 0.33554 0.01238 0.0
C1154 C 0.22223 0.32825 0.0017 0.0
C1155 C 0.20293 0.32247 0.01529 0.0
H1156 H 0.3151 0.69695 0.50562 0.0
H1157 H 0.27996 0.66583 0.56504 0.0
H1158 H 0.28222 0.68714 0.48084 0.0
H1159 H 0.24682 0.65571 0.53987 0.0
H1160 H 0.18574 0.69398 0.49869 0.0
H1161 H 0.21894 0.68426 0.52312 0.0
H1162 H 0.25605 0.65803 0.46262 0.0
H1163 H 0.22271 0.66815 0.43783 0.0
C1164 C 0.3005 0.68762 0.51331 0.0
C1165 C 0.29979 0.68273 0.5374 0.0
C1166 C 0.28179 0.68165 0.49899 0.0
C1167 C 0.26193 0.67078 0.50849 0.0
C1168 C 0.26192 0.66425 0.53221 0.0
C1169 C 0.2808 0.67011 0.54658 0.0
C1170 C 0.20082 0.68583 0.49057 0.0
C1171 C 0.20193 0.6825 0.46622 0.0
C1172 C 0.21971 0.67988 0.50468 0.0
C1173 C 0.24013 0.67058 0.4947 0.0
C1174 C 0.24054 0.66541 0.47065 0.0
C1175 C 0.22153 0.67129 0.45649 0.0
H1176 H 0.81339 0.80804 0.49432 0.0
H1177 H 0.7785 0.83502 0.43279 0.0
H1178 H 0.77968 0.81802 0.51797 0.0
H1179 H 0.74452 0.84528 0.45676 0.0
H1180 H 0.68373 0.80758 0.49949 0.0
H1181 H 0.71699 0.81683 0.47481 0.0
H1182 H 0.75255 0.84777 0.53398 0.0
H1183 H 0.71929 0.83813 0.55899 0.0
C1184 C 0.79865 0.8165 0.48592 0.0
C1185 C 0.7983 0.82021 0.46163 0.0
C1186 C 0.77945 0.82256 0.49956 0.0
C1187 C 0.75945 0.83232 0.48915 0.0
C1188 C 0.75972 0.83762 0.46513 0.0
C1189 C 0.7791 0.83172 0.45146 0.0
C1190 C 0.69846 0.8167 0.50721 0.0
C1191 C 0.69923 0.82146 0.53133 0.0
C1192 C 0.71738 0.82234 0.49296 0.0
C1193 C 0.73742 0.83278 0.50258 0.0
C1194 C 0.73736 0.83947 0.52624 0.0
C1195 C 0.71836 0.83389 0.54053 0.0
H1196 H 0.99416 0.81294 0.69011 0.0
H1197 H 0.93129 0.77681 0.66838 0.0
H1198 H 0.01715 0.77837 0.68139 0.0
H1199 H 0.95456 0.74199 0.65941 0.0
H1200 H 0.99916 0.68301 0.69787 0.0
H1201 H 0.97413 0.71605 0.68864 0.0
H1202 H 0.03134 0.7495 0.6522 0.0
H1203 H 0.05669 0.71654 0.66173 0.0
C1204 C 0.98531 0.79771 0.68306 0.0
C1205 C 0.96089 0.79733 0.68043 0.0
C1206 C 0.99854 0.77801 0.67774 0.0
C1207 C 0.98758 0.75749 0.66983 0.0
C1208 C 0.96335 0.7576 0.66563 0.0
C1209 C 0.95009 0.77747 0.67077 0.0
C1210 C 0.00636 0.69721 0.68756 0.0
C1211 C 0.0301 0.69749 0.68114 0.0
C1212 C 0.99189 0.716 0.68198 0.0
C1213 C 1.00091 0.7354 0.66992 0.0
C1214 C 0.02408 0.73481 0.66176 0.0
C1215 C 0.03857 0.71597 0.66728 0.0
H1216 H 0.93749 0.22173 0.8347 0.0
H1217 H 0.99942 0.1856 0.81029 0.0
H1218 H 0.96157 0.25527 0.84571 0.0
H1219 H 0.02317 0.21905 0.82085 0.0
H1220 H 0.00447 0.31445 0.80644 0.0
H1221 H 0.97986 0.28154 0.81669 0.0
H1222 H 0.03881 0.24738 0.84961 0.0
H1223 H 0.06378 0.28043 0.839 0.0
C1224 C 0.95624 0.22076 0.83209 0.0
C1225 C 0.9665 0.2014 0.82093 0.0
C1226 C 0.96999 0.23989 0.83848 0.0
C1227 C 0.99414 0.23982 0.83388 0.0
C1228 C 0.00463 0.21956 0.82477 0.0
C1229 C 0.99093 0.20053 0.81832 0.0
C1230 C 0.01216 0.30011 0.81618 0.0
C1231 C 0.03619 0.29963 0.82127 0.0
C1232 C 0.99794 0.28141 0.82242 0.0
C1233 C 0.00751 0.26185 0.83377 0.0
C1234 C 0.03111 0.26222 0.84066 0.0
C1235 C 0.04537 0.28106 0.83451 0.0
H1236 H 0.66615 0.93728 0.78166 0.0
H1237 H 0.69007 1.00043 0.81601 0.0
H1238 H 0.65471 0.9603 0.74758 0.0
H1239 H 0.67911 0.02313 0.78195 0.0
H1240 H 0.69212 0.00213 0.68654 0.0
H1241 H 0.68277 0.97824 0.72027 0.0
H1242 H 0.65001 0.03773 0.75365 0.0
H1243 H 0.6598 0.06198 0.71983 0.0
C1244 C 0.66859 0.95608 0.78213 0.0
C1245 C 0.67969 0.96697 0.8012 0.0
C1246 C 0.66196 0.96922 0.76266 0.0
C1247 C 0.66628 0.99341 0.76204 0.0
C1248 C 0.67539 0.00454 0.78197 0.0
C1249 C 0.68204 0.99144 0.80137 0.0
C1250 C 0.68259 0.01007 0.70089 0.0
C1251 C 0.67737 0.03408 0.70092 0.0
C1252 C 0.67688 0.99626 0.72008 0.0
C1253 C 0.66588 0.00623 0.73967 0.0
C1254 C 0.65874 0.02974 0.73882 0.0
C1255 C 0.66439 0.04358 0.71952 0.0
H1256 H 0.30812 0.499 0.68551 0.0
H1257 H 0.34 0.4398 0.72035 0.0
H1258 H 0.31801 0.52381 0.71843 0.0
H1259 H 0.35022 0.46497 0.75339 0.0
H1260 H 0.31116 0.50494 0.81476 0.0
H1261 H 0.32108 0.48101 0.78122 0.0
H1262 H 0.34709 0.54215 0.74501 0.0
H1263 H 0.33686 0.5664 0.77879 0.0
C1264 C 0.31764 0.49137 0.70003 0.0
C1265 C 0.32265 0.46731 0.7007 0.0
C1266 C 0.32366 0.50571 0.71874 0.0
C1267 C 0.33471 0.49623 0.73852 0.0
C1268 C 0.34151 0.4726 0.73838 0.0
C1269 C 0.33558 0.45823 0.71954 0.0
C1270 C 0.31934 0.51327 0.79981 0.0
C1271 C 0.32263 0.53762 0.79908 0.0
C1272 C 0.32539 0.49948 0.78073 0.0
C1273 C 0.33471 0.50978 0.76048 0.0
C1274 C 0.33975 0.53386 0.76041 0.0
C1275 C 0.33384 0.5477 0.77967 0.0
H1276 H 0.72101 0.66297 0.06624 0.0
H1277 H 0.68767 0.69221 0.00486 0.0
H1278 H 0.75554 0.65352 0.04285 0.0
H1279 H 0.72203 0.683 0.98175 0.0
H1280 H 0.81687 0.69426 0.00348 0.0
H1281 H 0.7831 0.68351 0.02684 0.0
H1282 H 0.74998 0.65368 0.96572 0.0
H1283 H 0.78368 0.66474 0.94207 0.0
C1284 C 0.72086 0.66692 0.04769 0.0
C1285 C 0.70198 0.6789 0.03745 0.0
C1286 C 0.74055 0.66145 0.03435 0.0
C1287 C 0.74146 0.6677 0.01061 0.0
C1288 C 0.72174 0.67779 0.99999 0.0
C1289 C 0.70219 0.68341 0.01331 0.0
C1290 C 0.80259 0.68505 0.99505 0.0
C1291 C 0.80259 0.68106 0.97079 0.0
C1292 C 0.78339 0.67856 0.00853 0.0
C1293 C 0.76388 0.668 0.99796 0.0
C1294 C 0.76476 0.66206 0.97415 0.0
C1295 C 0.784 0.6685 0.96065 0.0
H1296 H 0.7732 0.31 0.56505 0.0
H1297 H 0.81977 0.33068 0.50935 0.0
H1298 H 0.73972 0.31727 0.54005 0.0
H1299 H 0.78626 0.34017 0.48465 0.0
H1300 H 0.72759 0.31087 0.43803 0.0
H1301 H 0.76086 0.31825 0.46324 0.0
H1302 H 0.71378 0.33899 0.51904 0.0
H1303 H 0.6805 0.32941 0.49406 0.0
C1304 C 0.7761 0.31693 0.54762 0.0
C1305 C 0.7988 0.31942 0.5388 0.0
C1306 C 0.75692 0.32137 0.53328 0.0
C1307 C 0.76016 0.32901 0.51004 0.0
C1308 C 0.78305 0.33355 0.50212 0.0
C1309 C 0.80225 0.32831 0.51623 0.0
C1310 C 0.72451 0.31734 0.4556 0.0
C1311 C 0.70174 0.3192 0.4644 0.0
C1312 C 0.74357 0.32185 0.47007 0.0
C1313 C 0.74014 0.32894 0.49345 0.0
C1314 C 0.71714 0.33282 0.50144 0.0
C1315 C 0.69808 0.32752 0.48717 0.0
H1316 H 0.21691 0.16205 0.55502 0.0
H1317 H 0.18381 0.1988 0.49762 0.0
H1318 H 0.24986 0.15242 0.52969 0.0
H1319 H 0.21683 0.18944 0.47261 0.0
H1320 H 0.31318 0.19166 0.49333 0.0
H1321 H 0.2786 0.18226 0.51602 0.0
H1322 H 0.243 0.16009 0.45304 0.0
H1323 H 0.27787 0.1697 0.43007 0.0
C1324 C 0.21643 0.1677 0.53692 0.0
C1325 C 0.19812 0.1818 0.5285 0.0
C1326 C 0.23525 0.16209 0.52245 0.0
C1327 C 0.23596 0.17042 0.49935 0.0
C1328 C 0.21667 0.18266 0.49032 0.0
C1329 C 0.19791 0.18833 0.50478 0.0
C1330 C 0.29813 0.18443 0.48434 0.0
C1331 C 0.29795 0.18193 0.45991 0.0
C1332 C 0.27843 0.1787 0.49739 0.0
C1333 C 0.25813 0.17054 0.48622 0.0
C1334 C 0.25846 0.16647 0.46198 0.0
C1335 C 0.27834 0.172 0.44889 0.0
H1336 H 0.49928 0.81568 0.80943 0.0
H1337 H 0.4378 0.78142 0.83746 0.0
H1338 H 0.52304 0.78266 0.82098 0.0
H1339 H 0.46195 0.74829 0.8495 0.0
H1340 H 0.56401 0.72247 0.83852 0.0
H1341 H 0.53958 0.75561 0.8499 0.0
H1342 H 0.47887 0.72037 0.82162 0.0
H1343 H 0.50293 0.6873 0.81077 0.0
C1344 C 0.4909 0.80126 0.81846 0.0
C1345 C 0.46655 0.80074 0.82178 0.0
C1346 C 0.50463 0.7825 0.8255 0.0
C1347 C 0.49427 0.76282 0.83594 0.0
C1348 C 0.47027 0.7632 0.84124 0.0
C1349 C 0.45648 0.78207 0.83423 0.0
C1350 C 0.54536 0.72162 0.83524 0.0
C1351 C 0.53549 0.70273 0.82298 0.0
C1352 C 0.5314 0.7405 0.84187 0.0
C1353 C 0.50745 0.74068 0.83632 0.0
C1354 C 0.49725 0.72072 0.82625 0.0
C1355 C 0.51115 0.70192 0.81962 0.0
H1356 H 0.49965 0.18893 0.69547 0.0
H1357 H 0.4385 0.22288 0.66638 0.0
H1358 H 0.52329 0.22247 0.68508 0.0
H1359 H 0.46254 0.25644 0.65541 0.0
H1360 H 0.56427 0.28299 0.66596 0.0
H1361 H 0.54023 0.24907 0.65627 0.0
H1362 H 0.47906 0.28508 0.68248 0.0
H1363 H 0.50272 0.31898 0.69157 0.0
C1364 C 0.49131 0.2034 0.68648 0.0
C1365 C 0.46707 0.20361 0.68244 0.0
C1366 C 0.50498 0.22249 0.68015 0.0
C1367 C 0.49469 0.24216 0.66962 0.0
C1368 C 0.47081 0.24158 0.66378 0.0
C1369 C 0.45708 0.22242 0.67013 0.0
C1370 C 0.5456 0.28384 0.66915 0.0
C1371 C 0.5355 0.30335 0.68023 0.0
C1372 C 0.53187 0.26446 0.66355 0.0
C1373 C 0.50788 0.26433 0.66895 0.0
C1374 C 0.49747 0.28467 0.67797 0.0
C1375 C 0.51114 0.30401 0.68353 0.0
H1376 H 0.81311 0.56734 0.72969 0.0
H1377 H 0.83583 0.51265 0.68294 0.0
H1378 H 0.82088 0.54228 0.7631 0.0
H1379 H 0.8455 0.48784 0.71633 0.0
H1380 H 0.81329 0.44097 0.77382 0.0
H1381 H 0.82212 0.46624 0.74094 0.0
H1382 H 0.84345 0.52105 0.78886 0.0
H1383 H 0.83278 0.49602 0.82176 0.0
C1384 C 0.82056 0.55014 0.72674 0.0
C1385 C 0.82343 0.54151 0.70403 0.0
C1386 C 0.82529 0.53579 0.74585 0.0
C1387 C 0.83349 0.51277 0.74246 0.0
C1388 C 0.8385 0.50515 0.71957 0.0
C1389 C 0.83308 0.51929 0.70047 0.0
C1390 C 0.82027 0.45829 0.77722 0.0
C1391 C 0.82189 0.46688 0.8001 0.0
C1392 C 0.82559 0.47278 0.75838 0.0
C1393 C 0.83317 0.49593 0.76218 0.0
C1394 C 0.83695 0.5036 0.78528 0.0
C1395 C 0.83096 0.48931 0.8041 0.0
H1396 H 0.19039 1.00003 0.68669 0.0
H1397 H 0.16113 0.93925 0.7211 0.0
H1398 H 0.18045 0.02391 0.72035 0.0
H1399 H 0.15092 0.96341 0.75485 0.0
H1400 H 0.19221 0.00321 0.81534 0.0
H1401 H 0.18145 0.97965 0.78175 0.0
H1402 H 0.15117 0.04046 0.74846 0.0
H1403 H 0.16215 0.06432 0.78221 0.0
C1404 C 0.18141 0.99188 0.70127 0.0
C1405 C 0.17721 0.96767 0.70164 0.0
C1406 C 0.17536 0.00564 0.72039 0.0
C1407 C 0.16513 0.9954 0.74024 0.0
C1408 C 0.15898 0.97161 0.73976 0.0
C1409 C 0.1649 0.95783 0.72052 0.0
C1410 C 0.18292 0.01152 0.80105 0.0
C1411 C 0.17862 0.03571 0.80105 0.0
C1412 C 0.1764 0.99793 0.78197 0.0
C1413 C 0.1656 0.00832 0.7625 0.0
C1414 C 0.15961 0.03214 0.76326 0.0
C1415 C 0.16598 0.04575 0.78249 0.0
H1416 H 0.8197 0.19555 0.99951 0.0
H1417 H 0.78504 0.16264 0.05828 0.0
H1418 H 0.78617 0.18714 0.97496 0.0
H1419 H 0.75151 0.15378 0.03335 0.0
H1420 H 0.72428 0.17076 0.93308 0.0
H1421 H 0.75861 0.15978 0.9561 0.0
H1422 H 0.72387 0.18356 0.01899 0.0
H1423 H 0.68969 0.19411 0.99629 0.0
C1424 C 0.80511 0.18608 0.00708 0.0
C1425 C 0.80466 0.18044 0.03101 0.0
C1426 C 0.78603 0.18093 0.99288 0.0
C1427 C 0.76614 0.17007 0.00236 0.0
C1428 C 0.76656 0.16246 0.02574 0.0
C1429 C 0.78572 0.16757 0.03998 0.0
C1430 C 0.72385 0.17319 0.95188 0.0
C1431 C 0.70458 0.18387 0.96283 0.0
C1432 C 0.74344 0.16685 0.96502 0.0
C1433 C 0.74393 0.17097 0.98926 0.0
C1434 C 0.72394 0.17994 1.00037 0.0
C1435 C 0.70447 0.18636 0.98728 0.0
H1436 H 0.44517 0.28584 0.16623 0.0
H1437 H 0.50482 0.31632 0.20169 0.0
H1438 H 0.46896 0.25219 0.15533 0.0
H1439 H 0.52827 0.28257 0.19113 0.0
H1440 H 0.56874 0.22189 0.16926 0.0
H1441 H 0.54623 0.25722 0.1611 0.0
H1442 H 0.4829 0.22165 0.18226 0.0
H1443 H 0.50511 0.18637 0.18998 0.0
C1444 C 0.4634 0.28554 0.17144 0.0
C1445 C 0.47295 0.30344 0.1854 0.0
C1446 C 0.477 0.26632 0.16509 0.0
C1447 C 0.50033 0.2647 0.17258 0.0
C1448 C 0.51037 0.28344 0.18492 0.0
C1449 C 0.49681 0.30265 0.19125 0.0
C1450 C 0.54993 0.22144 0.17162 0.0
C1451 C 0.53876 0.20158 0.1809 0.0
C1452 C 0.53709 0.24166 0.16694 0.0
C1453 C 0.51293 0.24223 0.17135 0.0
C1454 C 0.5015 0.2217 0.17855 0.0
C1455 C 0.5143 0.20155 0.18329 0.0
H1456 H 0.50816 0.82402 0.33112 0.0
H1457 H 0.56377 0.77507 0.31644 0.0
H1458 H 0.4824 0.79173 0.34191 0.0
H1459 H 0.53784 0.7427 0.32523 0.0
H1460 H 0.49019 0.68552 0.33687 0.0
H1461 H 0.51462 0.71882 0.34757 0.0
H1462 H 0.4621 0.76562 0.31914 0.0
H1463 H 0.43726 0.73233 0.31042 0.0
C1464 C 0.51483 0.80626 0.33043 0.0
C1465 C 0.53763 0.80176 0.32263 0.0
C1466 C 0.50011 0.78778 0.33646 0.0
C1467 C 0.50775 0.76451 0.33389 0.0
C1468 C 0.53126 0.76029 0.32773 0.0
C1469 C 0.54616 0.77881 0.32243 0.0
C1470 C 0.48383 0.70304 0.33352 0.0
C1471 C 0.46223 0.7066 0.32252 0.0
C1472 C 0.49777 0.72211 0.33952 0.0
C1473 C 0.49068 0.74497 0.33372 0.0
C1474 C 0.46818 0.74841 0.32418 0.0
C1475 C 0.45396 0.72934 0.3189 0.0
H1476 H 0.16324 0.56434 0.21936 0.0
H1477 H 0.19257 0.50337 0.18527 0.0
H1478 H 0.15458 0.54079 0.25389 0.0
H1479 H 0.18406 0.48006 0.21979 0.0
H1480 H 0.16306 0.44039 0.28204 0.0
H1481 H 0.15398 0.4641 0.24775 0.0
H1482 H 0.18503 0.52438 0.28123 0.0
H1483 H 0.19397 0.50092 0.31555 0.0
C1484 C 0.1674 0.54585 0.21902 0.0
C1485 C 0.1791 0.53579 0.19984 0.0
C1486 C 0.16241 0.53242 0.23877 0.0
C1487 C 0.16884 0.50874 0.2395 0.0
C1488 C 0.17875 0.49827 0.2196 0.0
C1489 C 0.1839 0.51169 0.19995 0.0
C1490 C 0.1675 0.45883 0.28231 0.0
C1491 C 0.17976 0.46869 0.30125 0.0
C1492 C 0.16225 0.47234 0.2627 0.0
C1493 C 0.16899 0.49593 0.26184 0.0
C1494 C 0.17948 0.50625 0.28153 0.0
C1495 C 0.18487 0.49273 0.30106 0.0
H1496 H 0.83788 0.93749 0.22026 0.0
H1497 H 0.81081 0.99953 0.18627 0.0
H1498 H 0.84896 0.96104 0.25413 0.0
H1499 H 0.82137 0.02274 0.22009 0.0
H1500 H 0.80996 1.00097 0.31544 0.0
H1501 H 0.82049 0.97757 0.28175 0.0
H1502 H 0.84976 0.03869 0.24809 0.0
H1503 H 0.83872 0.06246 0.28182 0.0
C1504 C 0.83468 0.95618 0.21983 0.0
C1505 C 0.82276 0.96657 0.20099 0.0
C1506 C 0.8411 0.96962 0.23915 0.0
C1507 C 0.83574 0.9936 0.23983 0.0
C1508 C 0.82588 0.00432 0.22004 0.0
C1509 C 0.81944 0.99092 0.2008 0.0
C1510 C 0.81894 0.00941 0.30103 0.0
C1511 C 0.82276 0.03369 0.30089 0.0
C1512 C 0.82536 0.99589 0.28186 0.0
C1513 C 0.83571 0.0064 0.26221 0.0
C1514 C 0.84153 0.03027 0.26296 0.0
C1515 C 0.83512 0.04385 0.2822 0.0
H1516 H 0.2825 0.8385 0.06432 0.0
H1517 H 0.31809 0.8106 0.00355 0.0
H1518 H 0.2487 0.848 0.03999 0.0
H1519 H 0.28436 0.81964 0.97956 0.0
H1520 H 0.22219 0.83485 0.9388 0.0
H1521 H 0.25561 0.84691 0.96253 0.0
H1522 H 0.22236 0.81779 0.02395 0.0
H1523 H 0.18901 0.80617 1.00058 0.0
C1524 C 0.28331 0.83485 0.04573 0.0
C1525 C 0.30257 0.82309 0.03594 0.0
C1526 C 0.26402 0.84035 0.03183 0.0
C1527 C 0.26382 0.83424 0.00802 0.0
C1528 C 0.28403 0.82468 0.99785 0.0
C1529 C 0.30324 0.81913 0.01169 0.0
C1530 C 0.22185 0.83145 0.95745 0.0
C1531 C 0.20334 0.81892 0.96773 0.0
C1532 C 0.2409 0.83846 0.971 0.0
C1533 C 0.24162 0.83311 0.99498 0.0
C1534 C 0.22222 0.82236 0.00554 0.0
C1535 C 0.20327 0.81532 0.99204 0.0
H1536 H 0.01913 0.94097 0.23166 0.0
H1537 H 0.08714 0.93835 0.26409 0.0
H1538 H 0.01831 0.98336 0.23629 0.0
H1539 H 0.08605 0.98063 0.26997 0.0
H1540 H 0.09564 0.05436 0.24847 0.0
H1541 H 0.09138 0.01217 0.24385 0.0
H1542 H 0.01736 0.01824 0.25857 0.0
H1543 H 0.02171 0.06063 0.26193 0.0
C1544 C 0.03324 0.94938 0.24116 0.0
C1545 C 0.053 0.93643 0.24794 0.0
C1546 C 0.03297 0.97375 0.24349 0.0
C1547 C 0.05246 0.98558 0.2528 0.0
C1548 C 0.07109 0.97222 0.26194 0.0
C1549 C 0.07146 0.94789 0.25928 0.0
C1550 C 0.0783 0.04672 0.24947 0.0
C1551 C 0.05892 0.0607 0.25499 0.0
C1552 C 0.07591 0.02247 0.24755 0.0
C1553 C 0.05415 0.01162 0.2517 0.0
C1554 C 0.03439 0.0259 0.25534 0.0
C1555 C 0.03677 0.05025 0.25689 0.0
H1556 H 0.97763 0.55985 0.23787 0.0
H1557 H 0.90436 0.55581 0.25523 0.0
H1558 H 0.98114 0.5175 0.24206 0.0
H1559 H 0.90786 0.51361 0.26069 0.0
H1560 H 0.90956 0.43936 0.24051 0.0
H1561 H 0.91112 0.48164 0.23467 0.0
H1562 H 0.98049 0.48306 0.26496 0.0
H1563 H 0.97913 0.44067 0.26955 0.0
C1564 C 0.96262 0.54999 0.24399 0.0
C1565 C 0.94085 0.56103 0.24674 0.0
C1566 C 0.9645 0.52565 0.24603 0.0
C1567 C 0.94461 0.51199 0.25099 0.0
C1568 C 0.92336 0.52346 0.25601 0.0
C1569 C 0.92145 0.54771 0.25362 0.0
C1570 C 0.9256 0.44863 0.2446 0.0
C1571 C 0.94443 0.43681 0.25493 0.0
C1572 C 0.92629 0.47294 0.24197 0.0
C1573 C 0.94561 0.48592 0.25014 0.0
C1574 C 0.9653 0.47373 0.25851 0.0
C1575 C 0.9647 0.44937 0.26082 0.0
H1576 H 0.24592 0.09813 0.05778 0.0
H1577 H 0.26484 0.02527 0.06205 0.0
H1578 H 0.24076 0.09443 0.01557 0.0
H1579 H 0.2611 0.02161 0.01971 0.0
H1580 H 0.235 0.02224 0.94264 0.0
H1581 H 0.23929 0.02129 0.98504 0.0
H1582 H 0.26632 0.09201 0.98355 0.0
H1583 H 0.2606 0.09314 0.94126 0.0
C1584 C 0.24796 0.08107 0.04973 0.0
C1585 C 0.25517 0.06185 0.06313 0.0
C1586 C 0.24576 0.07905 0.02545 0.0
C1587 C 0.25136 0.05791 0.01401 0.0
C1588 C 0.25667 0.03817 0.02777 0.0
C1589 C 0.25845 0.04013 0.05212 0.0
C1590 C 0.24299 0.0371 0.95133 0.0
C1591 C 0.24793 0.0576 0.93872 0.0
C1592 C 0.24511 0.03674 0.97573 0.0
C1593 C 0.25242 0.05685 0.98792 0.0
C1594 C 0.25978 0.07648 0.97489 0.0
C1595 C 0.25726 0.07694 0.95055 0.0
H1596 H 0.76791 0.48138 0.94113 0.0
H1597 H 0.74241 0.41042 0.94132 0.0
H1598 H 0.76297 0.48351 0.98348 0.0
H1599 H 0.73632 0.41265 0.98356 0.0
H1600 H 0.75702 0.40868 0.05783 0.0
H1601 H 0.76265 0.41164 0.01563 0.0
H1602 H 0.73947 0.48367 0.0178 0.0
H1603 H 0.73501 0.48076 0.06021 0.0
C1604 C 0.75988 0.46673 0.95014 0.0
C1605 C 0.75505 0.44591 0.93803 0.0
C1606 C 0.75738 0.46779 0.97447 0.0
C1607 C 0.74994 0.448 0.98708 0.0
C1608 C 0.74287 0.42797 0.97452 0.0
C1609 C 0.74566 0.42685 0.95024 0.0
C1610 C 0.75441 0.42546 0.04937 0.0
C1611 C 0.74612 0.44464 0.06222 0.0
C1612 C 0.75692 0.42702 0.02511 0.0
C1613 C 0.75067 0.44766 0.01315 0.0
C1614 C 0.74436 0.46748 0.02635 0.0
C1615 C 0.74217 0.46598 0.05071 0.0
H1616 H 0.26564 0.97815 0.44234 0.0
H1617 H 0.24384 0.90602 0.44455 0.0
H1618 H 0.26181 0.98084 0.48474 0.0
H1619 H 0.2386 0.90879 0.48684 0.0
H1620 H 0.23574 0.97906 0.56187 0.0
H1621 H 0.23991 0.98104 0.51946 0.0
H1622 H 0.2643 0.90936 0.51884 0.0
H1623 H 0.25869 0.90725 0.56109 0.0
C1624 C 0.25862 0.9633 0.45183 0.0
C1625 C 0.25454 0.94202 0.44023 0.0
C1626 C 0.25677 0.96469 0.47622 0.0
C1627 C 0.25061 0.94482 0.48941 0.0
C1628 C 0.24425 0.92422 0.47739 0.0
C1629 C 0.24651 0.92276 0.45307 0.0
C1630 C 0.24311 0.96416 0.55271 0.0
C1631 C 0.24732 0.94314 0.56471 0.0
C1632 C 0.24515 0.96513 0.52832 0.0
C1633 C 0.25168 0.94511 0.51552 0.0
C1634 C 0.25833 0.92487 0.52796 0.0
C1635 C 0.25588 0.92381 0.55227 0.0
H1636 H 0.74064 0.52491 0.44121 0.0
H1637 H 0.75531 0.59875 0.44531 0.0
H1638 H 0.74462 0.52158 0.48355 0.0
H1639 H 0.76077 0.59546 0.48751 0.0
H1640 H 0.74165 0.59326 0.56198 0.0
H1641 H 0.73577 0.59179 0.51971 0.0
H1642 H 0.7663 0.5225 0.51815 0.0
H1643 H 0.77071 0.52372 0.56051 0.0
C1644 C 0.74618 0.54014 0.45109 0.0
C1645 C 0.74816 0.56198 0.44003 0.0
C1646 C 0.74808 0.53836 0.47545 0.0
C1647 C 0.75227 0.5584 0.48917 0.0
C1648 C 0.75663 0.5798 0.47768 0.0
C1649 C 0.75427 0.58162 0.4534 0.0
C1650 C 0.74574 0.57723 0.55268 0.0
C1651 C 0.75606 0.55839 0.56448 0.0
C1652 C 0.74312 0.57661 0.52835 0.0
C1653 C 0.75138 0.55735 0.51528 0.0
C1654 C 0.75975 0.53765 0.52747 0.0
C1655 C 0.76196 0.53816 0.55184 0.0
H1656 H 0.06257 0.24204 0.09196 0.0
H1657 H 0.06111 0.27198 0.02278 0.0
H1658 H 0.02028 0.23625 0.09044 0.0
H1659 H 0.01874 0.26755 0.0215 0.0
H1660 H 0.94197 0.24109 0.02375 0.0
H1661 H 0.98429 0.24527 0.02041 0.0
H1662 H 0.98816 0.26169 0.09425 0.0
H1663 H 0.94597 0.25614 0.09753 0.0
C1664 C 0.05326 0.24635 0.076 0.0
C1665 C 0.06505 0.2569 0.05727 0.0
C1666 C 0.02894 0.24377 0.07535 0.0
C1667 C 0.01591 0.25223 0.05617 0.0
C1668 C 0.02807 0.26085 0.03657 0.0
C1669 C 0.05243 0.26307 0.03711 0.0
C1670 C 0.95182 0.24673 0.03896 0.0
C1671 C 0.94076 0.24877 0.0608 0.0
C1672 C 0.97616 0.24876 0.03717 0.0
C1673 C 0.98983 0.25307 0.05721 0.0
C1674 C 0.97833 0.25747 0.07859 0.0
C1675 C 0.95408 0.25504 0.08041 0.0
H1676 H 0.05874 0.73293 0.4791 0.0
H1677 H 0.05777 0.75672 0.40757 0.0
H1678 H 0.01625 0.73649 0.48107 0.0
H1679 H 0.01539 0.76154 0.40963 0.0
H1680 H 0.94126 0.74093 0.40625 0.0
H1681 H 0.98349 0.73539 0.40908 0.0
H1682 H 0.9815 0.75879 0.48106 0.0
H1683 H 0.93912 0.76306 0.4783 0.0
C1684 C 0.04949 0.74029 0.46426 0.0
C1685 C 0.0615 0.74508 0.44336 0.0
C1686 C 0.02507 0.74198 0.46523 0.0
C1687 C 0.01221 0.74861 0.44528 0.0
C1688 C 0.02459 0.75557 0.42509 0.0
C1689 C 0.04895 0.75354 0.42406 0.0
C1690 C 0.94976 0.74355 0.42301 0.0
C1691 C 0.93694 0.75187 0.4422 0.0
C1692 C 0.97405 0.74111 0.42449 0.0
C1693 C 0.9861 0.74749 0.44506 0.0
C1694 C 0.97293 0.75376 0.46492 0.0
C1695 C 0.94855 0.75585 0.46349 0.0
H1696 H 0.56117 0.76229 0.52357 0.0
H1697 H 0.55883 0.74329 0.59649 0.0
H1698 H 0.51874 0.75917 0.52118 0.0
H1699 H 0.51647 0.73867 0.59405 0.0
H1700 H 0.44248 0.76024 0.59501 0.0
H1701 H 0.48488 0.76473 0.59279 0.0
H1702 H 0.48366 0.73841 0.52178 0.0
H1703 H 0.44122 0.7354 0.52384 0.0
C1704 C 0.55162 0.75596 0.5387 0.0
C1705 C 0.56322 0.75257 0.56009 0.0
C1706 C 0.52721 0.75454 0.53748 0.0
C1707 C 0.51398 0.74943 0.55762 0.0
C1708 C 0.52595 0.74356 0.57839 0.0
C1709 C 0.55031 0.74542 0.57967 0.0
C1710 C 0.45125 0.75678 0.57854 0.0
C1711 C 0.43863 0.74804 0.55942 0.0
C1712 C 0.47562 0.75858 0.57744 0.0
C1713 C 0.4879 0.75108 0.55738 0.0
C1714 C 0.47496 0.74432 0.53754 0.0
C1715 C 0.45054 0.74294 0.53855 0.0
H1716 H 0.90762 0.94205 0.75754 0.0
H1717 H 0.979 0.94039 0.73331 0.0
H1718 H 0.91051 0.98423 0.76349 0.0
H1719 H 0.98179 0.98275 0.73804 0.0
H1720 H 0.98002 0.05961 0.76577 0.0
H1721 H 0.98224 0.01719 0.76122 0.0
H1722 H 0.91037 0.01634 0.73746 0.0
H1723 H 0.90807 0.05856 0.74325 0.0
C1724 C 0.92426 0.95065 0.7545 0.0
C1725 C 0.94326 0.938 0.74553 0.0
C1726 C 0.92577 0.9749 0.75721 0.0
C1727 C 0.94613 0.98707 0.75043 0.0
C1728 C 0.96582 0.97406 0.74338 0.0
C1729 C 0.96438 0.94971 0.74101 0.0
C1730 C 0.96512 0.0504 0.75848 0.0
C1731 C 0.94402 0.0623 0.75439 0.0
C1732 C 0.96624 0.02602 0.75622 0.0
C1733 C 0.94625 0.01318 0.7497 0.0
C1734 C 0.92586 0.02553 0.74335 0.0
C1735 C 0.92469 0.04981 0.74595 0.0
H1736 H 0.09955 0.55638 0.75678 0.0
H1737 H 0.02627 0.56008 0.73949 0.0
H1738 H 0.09652 0.51405 0.76113 0.0
H1739 H 0.02327 0.51766 0.7422 0.0
H1740 H 0.09596 0.44006 0.74039 0.0
H1741 H 0.09432 0.48242 0.7355 0.0
H1742 H 0.02356 0.48249 0.7625 0.0
H1743 H 0.02498 0.44006 0.76576 0.0
C1744 C 0.08256 0.54815 0.75492 0.0
C1745 C 0.06302 0.56145 0.7484 0.0
C1746 C 0.08092 0.5238 0.75662 0.0
C1747 C 0.05983 0.5122 0.75113 0.0
C1748 C 0.03981 0.52582 0.74654 0.0
C1749 C 0.04139 0.55023 0.74535 0.0
C1750 C 0.07964 0.44909 0.74387 0.0
C1751 C 0.06042 0.43683 0.75289 0.0
C1752 C 0.07889 0.47346 0.74186 0.0
C1753 C 0.0591 0.48611 0.74948 0.0
C1754 C 0.03912 0.47351 0.75648 0.0
C1755 C 0.03976 0.44909 0.75801 0.0
H1756 H 0.76572 0.9812 0.06091 0.0
H1757 H 0.74328 0.90927 0.05794 0.0
H1758 H 0.76248 0.98413 0.01843 0.0
H1759 H 0.73875 0.9123 0.01562 0.0
H1760 H 0.76106 0.91048 0.94215 0.0
H1761 H 0.76602 0.91288 0.9845 0.0
H1762 H 0.74063 0.98419 0.98325 0.0
H1763 H 0.73693 0.9819 0.9408 0.0
C1764 C 0.75867 0.96648 0.05125 0.0
C1765 C 0.75435 0.94514 0.06263 0.0
C1766 C 0.75719 0.96799 0.02684 0.0
C1767 C 0.75116 0.94819 0.01347 0.0
C1768 C 0.74434 0.92764 0.02526 0.0
C1769 C 0.74618 0.92605 0.04957 0.0
C1770 C 0.75792 0.92705 0.95086 0.0
C1771 C 0.74915 0.94616 0.93828 0.0
C1772 C 0.76001 0.92826 0.9752 0.0
C1773 C 0.75284 0.94846 0.98743 0.0
C1774 C 0.74622 0.96833 0.9745 0.0
C1775 C 0.74447 0.96718 0.95011 0.0
H1776 H 0.23878 0.52621 0.06142 0.0
H1777 H 0.25403 0.59986 0.05617 0.0
H1778 H 0.2428 0.52218 0.01913 0.0
H1779 H 0.25949 0.59587 0.01404 0.0
H1780 H 0.24055 0.59251 0.93952 0.0
H1781 H 0.23449 0.59177 0.98179 0.0
H1782 H 0.26482 0.52245 0.98465 0.0
H1783 H 0.26948 0.52295 0.9423 0.0
C1784 C 0.24443 0.54124 0.05131 0.0
C1785 C 0.2466 0.56324 0.06202 0.0
C1786 C 0.24637 0.53905 0.02698 0.0
C1787 C 0.25074 0.55885 0.01295 0.0
C1788 C 0.25522 0.58039 0.02411 0.0
C1789 C 0.25286 0.58261 0.04835 0.0
C1790 C 0.24458 0.57664 0.94911 0.0
C1791 C 0.25492 0.55758 0.93768 0.0
C1792 C 0.24184 0.57643 0.97343 0.0
C1793 C 0.24997 0.55737 0.98686 0.0
C1794 C 0.25837 0.53745 0.97505 0.0
C1795 C 0.26072 0.53755 0.95068 0.0
H1796 H 0.7686 0.0207 0.44286 0.0
H1797 H 0.74233 0.09137 0.44255 0.0
H1798 H 0.76423 0.01905 0.48529 0.0
H1799 H 0.73662 0.08955 0.48482 0.0
H1800 H 0.75673 0.09494 0.55889 0.0
H1801 H 0.76257 0.09154 0.51676 0.0
H1802 H 0.74167 0.01884 0.51993 0.0
H1803 H 0.73718 0.02219 0.56227 0.0
C1804 C 0.76051 0.03536 0.45179 0.0
C1805 C 0.75535 0.05599 0.43948 0.0
C1806 C 0.75834 0.03459 0.47618 0.0
C1807 C 0.7508 0.05444 0.48865 0.0
C1808 C 0.74333 0.07421 0.47592 0.0
C1809 C 0.74587 0.07508 0.45161 0.0
C1810 C 0.7547 0.07796 0.55067 0.0
C1811 C 0.74702 0.05872 0.5638 0.0
C1812 C 0.75731 0.07612 0.52644 0.0
C1813 C 0.7517 0.05513 0.51475 0.0
C1814 C 0.74607 0.0353 0.52824 0.0
C1815 C 0.74385 0.03708 0.55259 0.0
H1816 H 0.26751 0.47755 0.55991 0.0
H1817 H 0.24315 0.40622 0.55976 0.0
H1818 H 0.26354 0.47922 0.5175 0.0
H1819 H 0.23765 0.40805 0.51747 0.0
H1820 H 0.2381 0.4767 0.44046 0.0
H1821 H 0.24203 0.47944 0.48283 0.0
H1822 H 0.26276 0.40663 0.48526 0.0
H1823 H 0.25729 0.40384 0.44302 0.0
C1824 C 0.25988 0.46271 0.55087 0.0
C1825 C 0.25515 0.44192 0.56307 0.0
C1826 C 0.25794 0.4635 0.52647 0.0
C1827 C 0.25099 0.44352 0.51383 0.0
C1828 C 0.24393 0.42352 0.52645 0.0
C1829 C 0.24631 0.42263 0.55079 0.0
C1830 C 0.24461 0.46165 0.45001 0.0
C1831 C 0.24788 0.44019 0.43851 0.0
C1832 C 0.24652 0.46307 0.4744 0.0
C1833 C 0.25199 0.44306 0.4877 0.0
C1834 C 0.25762 0.42221 0.47576 0.0
C1835 C 0.25526 0.42071 0.45145 0.0
H1836 H 0.06061 0.74004 0.91146 0.0
H1837 H 0.061 0.76599 0.98226 0.0
H1838 H 0.01819 0.7357 0.91317 0.0
H1839 H 0.01847 0.76301 0.9838 0.0
H1840 H 0.94062 0.73915 0.98043 0.0
H1841 H 0.98306 0.74196 0.98384 0.0
H1842 H 0.98718 0.76271 0.91113 0.0
H1843 H 0.94485 0.75853 0.90768 0.0
C1844 C 0.05165 0.74375 0.92777 0.0
C1845 C 0.06403 0.7528 0.94691 0.0
C1846 C 0.02727 0.74202 0.92856 0.0
C1847 C 0.01474 0.74988 0.94832 0.0
C1848 C 0.02741 0.75687 0.96826 0.0
C1849 C 0.05186 0.75822 0.96756 0.0
C1850 C 0.95058 0.74547 0.96556 0.0
C1851 C 0.93952 0.74909 0.94391 0.0
C1852 C 0.97497 0.7467 0.96737 0.0
C1853 C 0.98871 0.75178 0.94755 0.0
C1854 C 0.97728 0.75785 0.92655 0.0
C1855 C 0.95295 0.75622 0.92468 0.0
H1856 H 0.05717 0.25651 0.59854 0.0
H1857 H 0.06131 0.24195 0.52468 0.0
H1858 H 0.01481 0.26064 0.59549 0.0
H1859 H 0.0189 0.24448 0.5216 0.0
H1860 H 0.9413 0.26767 0.52363 0.0
H1861 H 0.98371 0.26459 0.52243 0.0
H1862 H 0.98319 0.23504 0.59217 0.0
H1863 H 0.94076 0.23967 0.59362 0.0
C1864 C 0.04902 0.25524 0.58145 0.0
C1865 C 0.06247 0.24953 0.56175 0.0
C1866 C 0.02467 0.25679 0.57977 0.0
C1867 C 0.01319 0.25201 0.55845 0.0
C1868 C 0.02694 0.24827 0.53833 0.0
C1869 C 0.05136 0.24721 0.53996 0.0
C1870 C 0.95023 0.25939 0.53819 0.0
C1871 C 0.93779 0.25347 0.55854 0.0
C1872 C 0.97465 0.25795 0.53769 0.0
C1873 C 0.98711 0.25028 0.5575 0.0
C1874 C 0.97432 0.2419 0.5769 0.0
C1875 C 0.94991 0.24377 0.57752 0.0
H1876 H 0.56116 0.26369 0.47824 0.0
H1877 H 0.55778 0.2441 0.40551 0.0
H1878 H 0.51874 0.26027 0.48134 0.0
H1879 H 0.51545 0.23943 0.40862 0.0
H1880 H 0.44138 0.26086 0.40882 0.0
H1881 H 0.48376 0.26585 0.41056 0.0
H1882 H 0.48385 0.23834 0.4811 0.0
H1883 H 0.44141 0.23458 0.47948 0.0
C1884 C 0.55141 0.25721 0.4633 0.0
C1885 C 0.56271 0.25364 0.44178 0.0
C1886 C 0.52701 0.25563 0.46493 0.0
C1887 C 0.5135 0.2503 0.44503 0.0
C1888 C 0.52518 0.24442 0.4241 0.0
C1889 C 0.54951 0.24634 0.42244 0.0
C1890 C 0.45039 0.25723 0.42511 0.0
C1891 C 0.43815 0.24789 0.4442 0.0
C1892 C 0.47476 0.25935 0.42593 0.0
C1893 C 0.48741 0.25168 0.44569 0.0
C1894 C 0.47483 0.24438 0.46556 0.0
C1895 C 0.45042 0.24258 0.46482 0.0
H1896 H 0.5952 0.56218 0.74191 0.0
H1897 H 0.52343 0.56283 0.76501 0.0
H1898 H 0.5931 0.51994 0.73619 0.0
H1899 H 0.52146 0.52044 0.76068 0.0
H1900 H 0.52455 0.44347 0.73446 0.0
H1901 H 0.52177 0.48586 0.73836 0.0
H1902 H 0.59362 0.48802 0.76219 0.0
H1903 H 0.5965 0.44574 0.75691 0.0
C1904 C 0.57865 0.55334 0.74473 0.0
C1905 C 0.55933 0.5657 0.75337 0.0
C1906 C 0.5776 0.52905 0.74219 0.0
C1907 C 0.55737 0.5166 0.74884 0.0
C1908 C 0.53735 0.52933 0.75545 0.0
C1909 C 0.53831 0.55371 0.75758 0.0
C1910 C 0.53933 0.45298 0.74162 0.0
C1911 C 0.56058 0.44142 0.74588 0.0
C1912 C 0.53789 0.47734 0.74352 0.0
C1913 C 0.55769 0.49053 0.74988 0.0
C1914 C 0.57826 0.47855 0.7564 0.0
C1915 C 0.57977 0.45425 0.75412 0.0
H1916 H 0.48074 0.942 0.76664 0.0
H1917 H 0.40929 0.94276 0.74259 0.0
H1918 H 0.48289 0.98442 0.76222 0.0
H1919 H 0.41155 0.985 0.73687 0.0
H1920 H 0.40804 0.05917 0.75765 0.0
H1921 H 0.41089 0.01693 0.76296 0.0
H1922 H 0.48286 0.01905 0.73957 0.0
H1923 H 0.48009 0.06149 0.73556 0.0
C1924 C 0.46597 0.95116 0.75903 0.0
C1925 C 0.44501 0.93917 0.75449 0.0
C1926 C 0.46704 0.97553 0.75683 0.0
C1927 C 0.44715 0.9883 0.74991 0.0
C1928 C 0.42696 0.97587 0.74307 0.0
C1929 C 0.42582 0.95158 0.74563 0.0
C1930 C 0.42478 0.05067 0.75491 0.0
C1931 C 0.44399 0.06354 0.74676 0.0
C1932 C 0.42628 0.02639 0.75724 0.0
C1933 C 0.44687 0.0144 0.75086 0.0
C1934 C 0.46671 0.0276 0.74459 0.0
C1935 C 0.46528 0.05198 0.74264 0.0
H1936 H 0.44354 0.24233 0.90943 0.0
H1937 H 0.4409 0.26246 0.98205 0.0
H1938 H 0.48592 0.23792 0.91208 0.0
H1939 H 0.48339 0.25928 0.98467 0.0
H1940 H 0.56118 0.23455 0.98155 0.0
H1941 H 0.51867 0.2376 0.98394 0.0
H1942 H 0.51704 0.26515 0.91344 0.0
H1943 H 0.55944 0.26086 0.91091 0.0
C1944 C 0.45199 0.24475 0.92625 0.0
C1945 C 0.439 0.25219 0.94567 0.0
C1946 C 0.47634 0.24296 0.92765 0.0
C1947 C 0.48823 0.24911 0.94837 0.0
C1948 C 0.47493 0.25448 0.96841 0.0
C1949 C 0.45051 0.25592 0.96705 0.0
C1950 C 0.55176 0.24239 0.96706 0.0
C1951 C 0.56354 0.24793 0.94622 0.0
C1952 C 0.52733 0.24378 0.96825 0.0
C1953 C 0.51428 0.25088 0.94861 0.0
C1954 C 0.52642 0.25877 0.92863 0.0
C1955 C 0.55079 0.25705 0.92737 0.0
H1956 H 0.40713 0.44719 0.25743 0.0
H1957 H 0.48058 0.44335 0.24086 0.0
H1958 H 0.41025 0.4895 0.26204 0.0
H1959 H 0.48372 0.48582 0.24414 0.0
H1960 H 0.48095 0.56325 0.27 0.0
H1961 H 0.48275 0.52082 0.26599 0.0
H1962 H 0.41334 0.52106 0.23577 0.0
H1963 H 0.41131 0.56336 0.24112 0.0
C1964 C 0.42416 0.45538 0.25578 0.0
C1965 C 0.44373 0.44205 0.24941 0.0
C1966 C 0.42587 0.4797 0.25767 0.0
C1967 C 0.44707 0.49126 0.25262 0.0
C1968 C 0.4671 0.47763 0.24812 0.0
C1969 C 0.46543 0.45322 0.24661 0.0
C1970 C 0.46661 0.55428 0.26139 0.0
C1971 C 0.44617 0.56654 0.25544 0.0
C1972 C 0.46746 0.52988 0.25943 0.0
C1973 C 0.44788 0.51734 0.2513 0.0
C1974 C 0.42843 0.53002 0.24295 0.0
C1975 C 0.42748 0.55434 0.24528 0.0
H1976 H 0.52394 0.0604 0.23523 0.0
H1977 H 0.59576 0.05802 0.25805 0.0
H1978 H 0.52127 0.01796 0.23853 0.0
H1979 H 0.59301 0.01566 0.26264 0.0
H1980 H 0.59495 0.94182 0.24095 0.0
H1981 H 0.5927 0.98416 0.23589 0.0
H1982 H 0.52107 0.98303 0.26037 0.0
H1983 H 0.52322 0.94062 0.26414 0.0
C1984 C 0.5387 0.05085 0.24239 0.0
C1985 C 0.5599 0.06242 0.24687 0.0
C1986 C 0.53733 0.02646 0.2439 0.0
C1987 C 0.55716 0.01323 0.2501 0.0
C1988 C 0.57763 0.02518 0.25696 0.0
C1989 C 0.57906 0.04952 0.25509 0.0
C1990 C 0.57837 0.95056 0.24387 0.0
C1991 C 0.55911 0.93801 0.25239 0.0
C1992 C 0.57723 0.9749 0.24172 0.0
C1993 C 0.55696 0.98718 0.24859 0.0
C1994 C 0.53699 0.97428 0.25499 0.0
C1995 C 0.53806 0.94989 0.25677 0.0
H1996 H 0.4412 0.76515 0.02455 0.0
H1997 H 0.44352 0.74401 0.09688 0.0
H1998 H 0.48356 0.76124 0.02181 0.0
H1999 H 0.48579 0.73868 0.09407 0.0
H2000 H 0.56067 0.73547 0.02357 0.0
H2001 H 0.51826 0.73946 0.02171 0.0
H2002 H 0.51781 0.76438 0.09322 0.0
H2003 H 0.56009 0.75896 0.09521 0.0
C2004 C 0.45071 0.75822 0.03945 0.0
C2005 C 0.43914 0.75439 0.06078 0.0
C2006 C 0.47507 0.75633 0.03803 0.0
C2007 C 0.4883 0.75037 0.05793 0.0
C2008 C 0.47632 0.74418 0.0786 0.0
C2009 C 0.452 0.74647 0.08009 0.0
C2010 C 0.55155 0.74294 0.03844 0.0
C2011 C 0.56361 0.74736 0.05938 0.0
C2012 C 0.52715 0.74486 0.03755 0.0
C2013 C 0.51441 0.75149 0.05757 0.0
C2014 C 0.52689 0.75835 0.07772 0.0
C2015 C 0.55122 0.75601 0.0787 0.0
H2016 H 0.05179 0.18623 0.22068 0.0
H2017 H 0.1251 0.18937 0.23834 0.0
H2018 H 0.05683 0.21871 0.19349 0.0
H2019 H 0.1307 0.22075 0.21014 0.0
H2020 H 0.13328 0.29104 0.17677 0.0
H2021 H 0.12483 0.25997 0.20465 0.0
H2022 H 0.07043 0.23394 0.15882 0.0
H2023 H 0.078 0.26603 0.13185 0.0
C2024 C 0.06916 0.19339 0.21817 0.0
C2025 C 0.08805 0.18519 0.23165 0.0
C2026 C 0.07211 0.21215 0.20257 0.0
C2027 C 0.09414 0.22294 0.1997 0.0
C2028 C 0.11326 0.21369 0.21231 0.0
C2029 C 0.11018 0.19533 0.22826 0.0
C2030 C 0.11908 0.27903 0.17303 0.0
C2031 C 0.1062 0.28116 0.1522 0.0
C2032 C 0.11447 0.26085 0.18881 0.0
C2033 C 0.09728 0.24379 0.18392 0.0
C2034 C 0.08368 0.24663 0.16351 0.0
C2035 C 0.08795 0.26518 0.14798 0.0
H2036 H 0.86496 0.21036 0.1733 0.0
H2037 H 0.92406 0.23473 0.13316 0.0
H2038 H 0.8721 0.24066 0.20241 0.0
H2039 H 0.93033 0.2661 0.16114 0.0
H2040 H 0.94647 0.31245 0.22381 0.0
H2041 H 0.94198 0.28037 0.19629 0.0
H2042 H 0.86744 0.27954 0.20979 0.0
H2043 H 0.87246 0.31055 0.23859 0.0
C2044 C 0.87969 0.22206 0.17087 0.0
C2045 C 0.89408 0.21993 0.15104 0.0
C2046 C 0.88357 0.23983 0.18735 0.0
C2047 C 0.90155 0.25648 0.18416 0.0
C2048 C 0.91647 0.25369 0.16466 0.0
C2049 C 0.91294 0.23554 0.14851 0.0
C2050 C 0.92906 0.30564 0.22062 0.0
C2051 C 0.90981 0.31417 0.23336 0.0
C2052 C 0.92643 0.2871 0.20474 0.0
C2053 C 0.90434 0.27683 0.20071 0.0
C2054 C 0.8849 0.28623 0.21276 0.0
C2055 C 0.88766 0.30438 0.22907 0.0
H2056 H 0.13555 0.71128 0.32671 0.0
H2057 H 0.07725 0.73464 0.36864 0.0
H2058 H 0.12748 0.74193 0.29823 0.0
H2059 H 0.06996 0.76625 0.34109 0.0
H2060 H 0.05244 0.81231 0.27816 0.0
H2061 H 0.0575 0.7801 0.30546 0.0
H2062 H 0.13219 0.7816 0.29306 0.0
H2063 H 0.12675 0.81287 0.26463 0.0
C2064 C 0.12077 0.72279 0.32964 0.0
C2065 C 0.10694 0.72038 0.34983 0.0
C2066 C 0.11637 0.74072 0.31353 0.0
C2067 C 0.09838 0.75716 0.31745 0.0
C2068 C 0.08386 0.75399 0.33716 0.0
C2069 C 0.08796 0.73571 0.35301 0.0
C2070 C 0.07 0.80602 0.28157 0.0
C2071 C 0.0892 0.81522 0.26921 0.0
C2072 C 0.07293 0.78741 0.29727 0.0
C2073 C 0.09524 0.77774 0.30141 0.0
C2074 C 0.1146 0.78788 0.28989 0.0
C2075 C 0.11158 0.80615 0.27382 0.0
H2076 H 0.94978 0.68757 0.27629 0.0
H2077 H 0.87532 0.6871 0.2636 0.0
H2078 H 0.945 0.71987 0.3037 0.0
H2079 H 0.87022 0.71848 0.29193 0.0
H2080 H 0.8671 0.78898 0.32495 0.0
H2081 H 0.87524 0.75828 0.29656 0.0
H2082 H 0.9325 0.73387 0.33965 0.0
H2083 H 0.92507 0.76549 0.36725 0.0
C2084 C 0.93227 0.69393 0.27986 0.0
C2085 C 0.91293 0.68471 0.26771 0.0
C2086 C 0.9295 0.71258 0.29561 0.0
C2087 C 0.90724 0.72231 0.29993 0.0
C2088 C 0.88777 0.71216 0.28861 0.0
C2089 C 0.89061 0.69384 0.27257 0.0
C2090 C 0.88183 0.77743 0.32799 0.0
C2091 C 0.89551 0.77982 0.34829 0.0
C2092 C 0.88628 0.75947 0.31191 0.0
C2093 C 0.9042 0.74298 0.31592 0.0
C2094 C 0.91864 0.74615 0.3357 0.0
C2095 C 0.91445 0.76444 0.35157 0.0
H2096 H 0.1674 0.14579 0.28063 0.0
H2097 H 0.14254 0.07464 0.27428 0.0
H2098 H 0.19627 0.13861 0.2507 0.0
H2099 H 0.17269 0.06695 0.24477 0.0
H2100 H 0.21168 0.07 0.17363 0.0
H2101 H 0.18273 0.07537 0.20483 0.0
H2102 H 0.23107 0.12055 0.24152 0.0
H2103 H 0.25906 0.11625 0.21025 0.0
C2104 C 0.16848 0.12834 0.27329 0.0
C2105 C 0.15252 0.11082 0.28001 0.0
C2106 C 0.18524 0.12416 0.25603 0.0
C2107 C 0.18694 0.10217 0.24506 0.0
C2108 C 0.1717 0.08423 0.25249 0.0
C2109 C 0.15466 0.0885 0.26976 0.0
C2110 C 0.21591 0.08137 0.1882 0.0
C2111 C 0.23767 0.09291 0.18913 0.0
C2112 C 0.19943 0.0842 0.20629 0.0
C2113 C 0.20442 0.09845 0.22584 0.0
C2114 C 0.22621 0.10986 0.22664 0.0
C2115 C 0.24241 0.10733 0.20855 0.0
H2116 H 0.77873 0.449 0.18554 0.0
H2117 H 0.76294 0.37519 0.18827 0.0
H2118 H 0.80631 0.44441 0.21771 0.0
H2119 H 0.79149 0.37016 0.21946 0.0
H2120 H 0.82476 0.36846 0.28973 0.0
H2121 H 0.79648 0.37662 0.25894 0.0
H2122 H 0.84174 0.43106 0.23205 0.0
H2123 H 0.86921 0.42372 0.26382 0.0
C2124 C 0.7817 0.43163 0.19255 0.0
C2125 C 0.76863 0.41245 0.18434 0.0
C2126 C 0.79753 0.42897 0.21112 0.0
C2127 C 0.801 0.40696 0.22172 0.0
C2128 C 0.78882 0.38757 0.21247 0.0
C2129 C 0.77267 0.39033 0.19426 0.0
C2130 C 0.82829 0.38262 0.27761 0.0
C2131 C 0.84912 0.39554 0.27932 0.0
C2132 C 0.81228 0.38705 0.25961 0.0
C2133 C 0.81694 0.40412 0.2424 0.0
C2134 C 0.8373 0.41786 0.24489 0.0
C2135 C 0.85308 0.41375 0.26324 0.0
H2136 H 0.20867 0.93127 0.33175 0.0
H2137 H 0.25949 0.89474 0.28928 0.0
H2138 H 0.17963 0.92674 0.30042 0.0
H2139 H 0.23143 0.89148 0.258 0.0
H2140 H 0.16995 0.86303 0.21793 0.0
H2141 H 0.19877 0.87055 0.24778 0.0
H2142 H 0.16714 0.93787 0.26179 0.0
H2143 H 0.13704 0.92957 0.23231 0.0
C2144 C 0.21364 0.92225 0.31583 0.0
C2145 C 0.23633 0.91296 0.31335 0.0
C2146 C 0.1971 0.91992 0.29771 0.0
C2147 C 0.203 0.90856 0.27657 0.0
C2148 C 0.22585 0.89974 0.27411 0.0
C2149 C 0.24208 0.90165 0.29222 0.0
C2150 C 0.16923 0.87965 0.22705 0.0
C2151 C 0.15107 0.89567 0.22261 0.0
C2152 C 0.18596 0.88405 0.24424 0.0
C2153 C 0.18545 0.90485 0.25743 0.0
C2154 C 0.16794 0.92149 0.25228 0.0
C2155 C 0.15091 0.91694 0.23506 0.0
H2156 H 0.78981 0.56707 0.32823 0.0
H2157 H 0.74105 0.6116 0.29131 0.0
H2158 H 0.81846 0.57284 0.29682 0.0
H2159 H 0.76882 0.61635 0.25989 0.0
H2160 H 0.83183 0.64269 0.22014 0.0
H2161 H 0.8033 0.63523 0.2504 0.0
H2162 H 0.82829 0.56412 0.2568 0.0
H2163 H 0.85797 0.57204 0.22692 0.0
C2164 C 0.7852 0.57814 0.31355 0.0
C2165 C 0.76313 0.58905 0.31259 0.0
C2166 C 0.80152 0.58121 0.29534 0.0
C2167 C 0.79609 0.59512 0.27566 0.0
C2168 C 0.774 0.60592 0.27484 0.0
C2169 C 0.75792 0.60311 0.29302 0.0
C2170 C 0.83113 0.6253 0.22765 0.0
C2171 C 0.84732 0.60799 0.22091 0.0
C2172 C 0.81459 0.62096 0.24511 0.0
C2173 C 0.81338 0.59905 0.2563 0.0
C2174 C 0.8289 0.58134 0.24891 0.0
C2175 C 0.84568 0.58575 0.23144 0.0
H2176 H 0.1917 0.24191 0.12964 0.0
H2177 H 0.18931 0.22594 0.05587 0.0
H2178 H 0.22276 0.21322 0.1349 0.0
H2179 H 0.22142 0.19851 0.06059 0.0
H2180 H 0.26718 0.13567 0.0793 0.0
H2181 H 0.23573 0.16351 0.07279 0.0
H2182 H 0.26165 0.20587 0.13001 0.0
H2183 H 0.29205 0.17694 0.13741 0.0
C2184 C 0.19777 0.23216 0.11454 0.0
C2185 C 0.18782 0.2361 0.09239 0.0
C2186 C 0.21594 0.21591 0.11743 0.0
C2187 C 0.22521 0.20355 0.09813 0.0
C2188 C 0.2148 0.20722 0.07605 0.0
C2189 C 0.19624 0.22305 0.07329 0.0
C2190 C 0.26646 0.15122 0.09014 0.0
C2191 C 0.28224 0.15412 0.10881 0.0
C2192 C 0.24827 0.16729 0.08647 0.0
C2193 C 0.24559 0.18706 0.10105 0.0
C2194 C 0.26239 0.19061 0.11882 0.0
C2195 C 0.28021 0.17422 0.12284 0.0
H2196 H 0.18913 0.76253 0.37369 0.0
H2197 H 0.18656 0.77903 0.44731 0.0
H2198 H 0.22013 0.79123 0.36824 0.0
H2199 H 0.21868 0.8065 0.44244 0.0
H2200 H 0.26521 0.86879 0.42339 0.0
H2201 H 0.23351 0.84124 0.43011 0.0
H2202 H 0.25896 0.79841 0.37302 0.0
H2203 H 0.28955 0.82706 0.3654 0.0
C2204 C 0.19514 0.77243 0.38871 0.0
C2205 C 0.18519 0.76862 0.41087 0.0
C2206 C 0.2133 0.78868 0.38572 0.0
C2207 C 0.22258 0.80116 0.40494 0.0
C2208 C 0.21208 0.79768 0.42704 0.0
C2209 C 0.19352 0.78185 0.42989 0.0
C2210 C 0.26431 0.8532 0.41262 0.0
C2211 C 0.28002 0.85008 0.39393 0.0
C2212 C 0.24598 0.8373 0.41641 0.0
C2213 C 0.24309 0.81749 0.40192 0.0
C2214 C 0.25983 0.81373 0.38413 0.0
C2215 C 0.27777 0.82995 0.37998 0.0
H2216 H 0.82689 0.70955 0.42953 0.0
H2217 H 0.79169 0.7571 0.38239 0.0
H2218 H 0.79509 0.68129 0.42443 0.0
H2219 H 0.75978 0.72974 0.37828 0.0
H2220 H 0.71835 0.66649 0.35496 0.0
H2221 H 0.74911 0.69479 0.36119 0.0
H2222 H 0.75504 0.6728 0.43335 0.0
H2223 H 0.7247 0.64332 0.42669 0.0
C2224 C 0.81252 0.71395 0.41798 0.0
C2225 C 0.81213 0.73561 0.40622 0.0
C2226 C 0.79406 0.69787 0.41531 0.0
C2227 C 0.77465 0.70313 0.40096 0.0
C2228 C 0.77448 0.72471 0.38913 0.0
C2229 C 0.79294 0.74055 0.39155 0.0
C2230 C 0.72586 0.66783 0.37232 0.0
C2231 C 0.71889 0.65248 0.3903 0.0
C2232 C 0.74361 0.68424 0.37594 0.0
C2233 C 0.75486 0.68616 0.39778 0.0
C2234 C 0.74716 0.67159 0.41616 0.0
C2235 C 0.72941 0.65494 0.41246 0.0
H2236 H 0.22697 0.8599 0.57606 0.0
H2237 H 0.21961 0.83439 0.64689 0.0
H2238 H 0.25727 0.83044 0.5688 0.0
H2239 H 0.25029 0.80619 0.64015 0.0
H2240 H 0.29217 0.74421 0.61774 0.0
H2241 H 0.26045 0.77171 0.62193 0.0
H2242 H 0.29725 0.82123 0.57814 0.0
H2243 H 0.3289 0.7928 0.57286 0.0
C2244 C 0.23145 0.84778 0.58993 0.0
C2245 C 0.22069 0.84953 0.61204 0.0
C2246 C 0.24916 0.83115 0.58592 0.0
C2247 C 0.25651 0.81594 0.60392 0.0
C2248 C 0.24505 0.81724 0.62567 0.0
C2249 C 0.22735 0.83359 0.6296 0.0
C2250 C 0.29379 0.76101 0.60912 0.0
C2251 C 0.31336 0.76623 0.59506 0.0
C2252 C 0.27545 0.77693 0.61159 0.0
C2253 C 0.27613 0.79888 0.60047 0.0
C2254 C 0.29587 0.80438 0.58671 0.0
C2255 C 0.31423 0.78821 0.58395 0.0
H2256 H 0.88341 0.79328 0.74416 0.0
H2257 H 0.93063 0.82971 0.79074 0.0
H2258 H 0.87935 0.76213 0.77226 0.0
H2259 H 0.92545 0.79866 0.81986 0.0
H2260 H 0.92701 0.7289 0.85952 0.0
H2261 H 0.93406 0.7587 0.82953 0.0
H2262 H 0.86196 0.75288 0.8073 0.0
H2263 H 0.8554 0.72262 0.83594 0.0
C2264 C 0.89258 0.79498 0.76067 0.0
C2265 C 0.90725 0.81427 0.76513 0.0
C2266 C 0.89018 0.77696 0.77694 0.0
C2267 C 0.90196 0.77773 0.79853 0.0
C2268 C 0.91635 0.79722 0.8033 0.0
C2269 C 0.91906 0.81523 0.78673 0.0
C2270 C 0.9129 0.73353 0.84774 0.0
C2271 C 0.89066 0.72318 0.85017 0.0
C2272 C 0.91681 0.75095 0.83081 0.0
C2273 C 0.89856 0.75847 0.81598 0.0
C2274 C 0.87663 0.74747 0.81801 0.0
C2275 C 0.87281 0.73002 0.83463 0.0
H2276 H 0.1088 0.71211 0.74313 0.0
H2277 H 0.06831 0.67184 0.79278 0.0
H2278 H 0.11346 0.74293 0.77153 0.0
H2279 H 0.07405 0.70274 0.82207 0.0
H2280 H 0.07354 0.77167 0.86386 0.0
H2281 H 0.06464 0.7425 0.83366 0.0
H2282 H 0.13425 0.75114 0.80532 0.0
H2283 H 0.1426 0.78064 0.83437 0.0
C2284 C 0.10119 0.70955 0.76031 0.0
C2285 C 0.08838 0.68917 0.76563 0.0
C2286 C 0.10394 0.72738 0.77674 0.0
C2287 C 0.09436 0.7254 0.79931 0.0
C2288 C 0.0815 0.70504 0.80479 0.0
C2289 C 0.07845 0.68716 0.7881 0.0
C2290 C 0.08665 0.7678 0.85072 0.0
C2291 C 0.10876 0.77868 0.85154 0.0
C2292 C 0.0817 0.75075 0.83365 0.0
C2293 C 0.09874 0.74424 0.81702 0.0
C2294 C 0.12048 0.75579 0.81747 0.0
C2295 C 0.12534 0.77279 0.83431 0.0
H2296 H 0.95009 0.18663 0.72196 0.0
H2297 H 0.87659 0.19044 0.73878 0.0
H2298 H 0.9456 0.21895 0.69453 0.0
H2299 H 0.8716 0.22174 0.71037 0.0
H2300 H 0.86993 0.29163 0.67607 0.0
H2301 H 0.87794 0.26093 0.7045 0.0
H2302 H 0.93238 0.2337 0.65944 0.0
H2303 H 0.92522 0.26536 0.63187 0.0
C2304 C 0.93279 0.19392 0.71926 0.0
C2305 C 0.91369 0.1859 0.73256 0.0
C2306 C 0.93018 0.21259 0.7035 0.0
C2307 C 0.90827 0.22352 0.70029 0.0
C2308 C 0.88895 0.21454 0.71279 0.0
C2309 C 0.89168 0.19623 0.72887 0.0
C2310 C 0.88406 0.27945 0.67261 0.0
C2311 C 0.89704 0.2811 0.65179 0.0
C2312 C 0.8884 0.26148 0.68872 0.0
C2313 C 0.90545 0.24419 0.68421 0.0
C2314 C 0.91921 0.24659 0.66384 0.0
C2315 C 0.91519 0.2649 0.64796 0.0
H2316 H 0.07593 0.22506 0.64254 0.0
H2317 H 0.14768 0.2198 0.66589 0.0
H2318 H 0.06852 0.25474 0.67252 0.0
H2319 H 0.14063 0.24986 0.69483 0.0
H2320 H 0.11778 0.29055 0.75801 0.0
H2321 H 0.12272 0.25923 0.73005 0.0
H2322 H 0.07695 0.29497 0.68159 0.0
H2323 H 0.0711 0.3262 0.71034 0.0
C2324 C 0.09001 0.22986 0.65431 0.0
C2325 C 0.1124 0.21985 0.65176 0.0
C2326 C 0.08587 0.24722 0.67125 0.0
C2327 C 0.104 0.25501 0.68607 0.0
C2328 C 0.12608 0.24427 0.68405 0.0
C2329 C 0.13016 0.22693 0.6673 0.0
C2330 C 0.10885 0.292 0.74135 0.0
C2331 C 0.0941 0.31115 0.73652 0.0
C2332 C 0.11176 0.2739 0.72518 0.0
C2333 C 0.10029 0.27439 0.7034 0.0
C2334 C 0.08581 0.29372 0.6983 0.0
C2335 C 0.08269 0.31185 0.71468 0.0
H2336 H 0.86791 0.92472 0.73471 0.0
H2337 H 0.82451 0.86828 0.70961 0.0
H2338 H 0.84027 0.93208 0.76629 0.0
H2339 H 0.79599 0.87645 0.7402 0.0
H2340 H 0.76197 0.87622 0.81107 0.0
H2341 H 0.79017 0.87089 0.77958 0.0
H2342 H 0.805 0.94514 0.78051 0.0
H2343 H 0.77788 0.95003 0.81292 0.0
C2344 C 0.85196 0.91448 0.7354 0.0
C2345 C 0.84836 0.89597 0.71958 0.0
C2346 C 0.83605 0.91861 0.75365 0.0
C2347 C 0.81588 0.9046 0.75633 0.0
C2348 C 0.81161 0.88714 0.73941 0.0
C2349 C 0.82776 0.8827 0.7215 0.0
C2350 C 0.77158 0.89131 0.8048 0.0
C2351 C 0.76772 0.9135 0.81466 0.0
C2352 C 0.78756 0.88837 0.78641 0.0
C2353 C 0.79976 0.90764 0.77692 0.0
C2354 C 0.79629 0.92975 0.78729 0.0
C2355 C 0.78067 0.93259 0.80601 0.0
H2356 H 0.25809 0.62021 0.79461 0.0
H2357 H 0.21246 0.56915 0.82675 0.0
H2358 H 0.23029 0.6256 0.76323 0.0
H2359 H 0.1838 0.57542 0.79552 0.0
H2360 H 0.14613 0.57605 0.72479 0.0
H2361 H 0.17568 0.56874 0.75489 0.0
H2362 H 0.19449 0.64201 0.75386 0.0
H2363 H 0.16606 0.64901 0.72335 0.0
C2364 C 0.24188 0.61041 0.7953 0.0
C2365 C 0.23762 0.59427 0.81345 0.0
C2366 C 0.22578 0.61358 0.77717 0.0
C2367 C 0.20463 0.60099 0.77664 0.0
C2368 C 0.20004 0.58518 0.79505 0.0
C2369 C 0.21635 0.58181 0.81319 0.0
C2370 C 0.15702 0.59046 0.73054 0.0
C2371 C 0.15366 0.61312 0.72142 0.0
C2372 C 0.17373 0.58635 0.74815 0.0
C2373 C 0.18747 0.60479 0.75712 0.0
C2374 C 0.18459 0.62722 0.74734 0.0
C2375 C 0.16811 0.63127 0.72974 0.0
H2376 H 0.74077 0.11055 0.7123 0.0
H2377 H 0.78991 0.06879 0.6727 0.0
H2378 H 0.76918 0.11516 0.74316 0.0
H2379 H 0.81916 0.07442 0.70361 0.0
H2380 H 0.86035 0.0733 0.77278 0.0
H2381 H 0.83011 0.06492 0.74352 0.0
H2382 H 0.80348 0.1353 0.7514 0.0
H2383 H 0.83261 0.14319 0.78097 0.0
C2384 C 0.75783 0.10264 0.7099 0.0
C2385 C 0.76301 0.08945 0.68972 0.0
C2386 C 0.77426 0.10536 0.72775 0.0
C2387 C 0.79665 0.09533 0.72597 0.0
C2388 C 0.80201 0.08218 0.70576 0.0
C2389 C 0.78534 0.0792 0.68787 0.0
C2390 C 0.84758 0.08672 0.76871 0.0
C2391 C 0.84891 0.1089 0.77939 0.0
C2392 C 0.83049 0.08206 0.75162 0.0
C2393 C 0.81434 0.09945 0.74487 0.0
C2394 C 0.81528 0.12128 0.75623 0.0
C2395 C 0.83215 0.12587 0.77327 0.0
H2396 H 0.14184 0.42717 0.77426 0.0
H2397 H 0.17027 0.35766 0.78315 0.0
H2398 H 0.17148 0.43526 0.74433 0.0
H2399 H 0.1987 0.36518 0.75285 0.0
H2400 H 0.26033 0.38908 0.71166 0.0
H2401 H 0.23255 0.38468 0.74306 0.0
H2402 H 0.18213 0.42594 0.70462 0.0
H2403 H 0.21086 0.43145 0.67319 0.0
C2404 C 0.15465 0.41378 0.77022 0.0
C2405 C 0.15366 0.39179 0.78133 0.0
C2406 C 0.17139 0.41826 0.7527 0.0
C2407 C 0.18754 0.40086 0.74589 0.0
C2408 C 0.18695 0.37924 0.75768 0.0
C2409 C 0.17046 0.37486 0.77516 0.0
C2410 C 0.2433 0.39713 0.7096 0.0
C2411 C 0.2379 0.41047 0.68957 0.0
C2412 C 0.2272 0.39452 0.72778 0.0
C2413 C 0.20486 0.40477 0.72652 0.0
C2414 C 0.19924 0.418 0.70642 0.0
C2415 C 0.21561 0.42091 0.68821 0.0
H2416 H 0.73703 0.87124 0.92616 0.0
H2417 H 0.71226 0.82864 0.86895 0.0
H2418 H 0.76794 0.84298 0.93397 0.0
H2419 H 0.74214 0.79954 0.87754 0.0
H2420 H 0.81209 0.76396 0.8785 0.0
H2421 H 0.78143 0.79292 0.87277 0.0
H2422 H 0.78134 0.80734 0.94713 0.0
H2423 H 0.81306 0.77934 0.95243 0.0
C2424 C 0.73766 0.85538 0.91578 0.0
C2425 C 0.72211 0.85219 0.89696 0.0
C2426 C 0.75552 0.8391 0.9202 0.0
C2427 C 0.75809 0.81895 0.90615 0.0
C2428 C 0.74146 0.81512 0.88829 0.0
C2429 C 0.72395 0.83163 0.88358 0.0
C2430 C 0.80577 0.77363 0.89355 0.0
C2431 C 0.81514 0.7694 0.91589 0.0
C2432 C 0.78784 0.79006 0.89037 0.0
C2433 C 0.77828 0.80237 0.90953 0.0
C2434 C 0.78819 0.79853 0.93182 0.0
C2435 C 0.80649 0.78243 0.93491 0.0
H2436 H 0.7938 0.25648 0.61929 0.0
H2437 H 0.82694 0.21034 0.56934 0.0
H2438 H 0.76193 0.22921 0.62368 0.0
H2439 H 0.79527 0.18199 0.57482 0.0
H2440 H 0.72494 0.14361 0.57486 0.0
H2441 H 0.75524 0.17304 0.56758 0.0
H2442 H 0.75149 0.19433 0.64012 0.0
H2443 H 0.72072 0.16634 0.64689 0.0
C2444 C 0.79465 0.2402 0.60962 0.0
C2445 C 0.81324 0.23564 0.59409 0.0
C2446 C 0.7762 0.22439 0.61219 0.0
C2447 C 0.77583 0.20314 0.59973 0.0
C2448 C 0.79465 0.19829 0.58448 0.0
C2449 C 0.81304 0.2144 0.58158 0.0
C2450 C 0.73013 0.15508 0.58904 0.0
C2451 C 0.72019 0.15255 0.61145 0.0
C2452 C 0.74786 0.17171 0.58498 0.0
C2453 C 0.75614 0.18612 0.60327 0.0
C2454 C 0.74553 0.184 0.6254 0.0
C2455 C 0.72777 0.16771 0.62934 0.0
H2456 H 0.17508 0.29215 0.56645 0.0
H2457 H 0.21094 0.24329 0.61174 0.0
H2458 H 0.20652 0.32068 0.57281 0.0
H2459 H 0.24236 0.2709 0.61707 0.0
H2460 H 0.28188 0.33353 0.64431 0.0
H2461 H 0.25147 0.30534 0.63622 0.0
H2462 H 0.2469 0.33029 0.56494 0.0
H2463 H 0.27696 0.35964 0.57349 0.0
C2464 C 0.18952 0.28749 0.57781 0.0
C2465 C 0.19017 0.26542 0.58876 0.0
C2466 C 0.20775 0.30374 0.58122 0.0
C2467 C 0.22712 0.29824 0.59553 0.0
C2468 C 0.22764 0.27614 0.60635 0.0
C2469 C 0.20946 0.26015 0.60319 0.0
C2470 C 0.27474 0.33289 0.62676 0.0
C2471 C 0.28206 0.34896 0.60958 0.0
C2472 C 0.25719 0.31655 0.62205 0.0
C2473 C 0.24649 0.31541 0.59989 0.0
C2474 C 0.25442 0.33084 0.58233 0.0
C2475 C 0.272 0.34742 0.58711 0.0
H2476 H 0.70879 0.25648 0.38578 0.0
H2477 H 0.67296 0.20942 0.43292 0.0
H2478 H 0.74044 0.22894 0.38192 0.0
H2479 H 0.70447 0.18075 0.42786 0.0
H2480 H 0.77421 0.14098 0.42862 0.0
H2481 H 0.74416 0.17067 0.43606 0.0
H2482 H 0.75061 0.19451 0.36451 0.0
H2483 H 0.78113 0.16631 0.35768 0.0
C2484 C 0.70731 0.23994 0.39493 0.0
C2485 C 0.688 0.23518 0.40948 0.0
C2486 C 0.72563 0.22397 0.39266 0.0
C2487 C 0.72517 0.20233 0.40439 0.0
C2488 C 0.7057 0.19732 0.41876 0.0
C2489 C 0.68742 0.21362 0.4214 0.0
C2490 C 0.76967 0.15308 0.41475 0.0
C2491 C 0.78028 0.15122 0.39258 0.0
C2492 C 0.75209 0.16985 0.41887 0.0
C2493 C 0.74465 0.18507 0.40088 0.0
C2494 C 0.75593 0.18357 0.37903 0.0
C2495 C 0.77354 0.16716 0.37504 0.0
H2496 H 0.63798 0.79078 0.67334 0.0
H2497 H 0.57892 0.76695 0.63279 0.0
H2498 H 0.62975 0.76118 0.70288 0.0
H2499 H 0.57159 0.73622 0.6612 0.0
H2500 H 0.55363 0.69125 0.72437 0.0
H2501 H 0.5591 0.72289 0.69645 0.0
H2502 H 0.63349 0.72237 0.71086 0.0
H2503 H 0.62746 0.69191 0.74002 0.0
C2504 C 0.62306 0.77932 0.67089 0.0
C2505 C 0.60898 0.7814 0.65084 0.0
C2506 C 0.61854 0.76197 0.68763 0.0
C2507 C 0.60023 0.74567 0.68446 0.0
C2508 C 0.58566 0.7484 0.6647 0.0
C2509 C 0.58983 0.76616 0.64829 0.0
C2510 C 0.57119 0.69772 0.72129 0.0
C2511 C 0.59013 0.689 0.73435 0.0
C2512 C 0.5744 0.71597 0.7052 0.0
C2513 C 0.59676 0.7257 0.7013 0.0
C2514 C 0.61585 0.7161 0.71372 0.0
C2515 C 0.61251 0.69828 0.73024 0.0
H2516 H 0.37593 0.81083 0.7401 0.0
H2517 H 0.44923 0.81481 0.72245 0.0
H2518 H 0.37068 0.77958 0.71166 0.0
H2519 H 0.44453 0.7825 0.69509 0.0
H2520 H 0.42419 0.73613 0.63261 0.0
H2521 H 0.43139 0.76769 0.66028 0.0
H2522 H 0.37659 0.74062 0.70503 0.0
H2523 H 0.3685 0.71012 0.67641 0.0
C2524 C 0.39093 0.80507 0.73002 0.0
C2525 C 0.41294 0.81547 0.73345 0.0
C2526 C 0.38805 0.78678 0.71391 0.0
C2527 C 0.40725 0.77786 0.70116 0.0
C2528 C 0.42918 0.78881 0.70421 0.0
C2529 C 0.43192 0.80748 0.71995 0.0
C2530 C 0.41409 0.73662 0.64866 0.0
C2531 C 0.39583 0.72053 0.65235 0.0
C2532 C 0.41814 0.75487 0.66461 0.0
C2533 C 0.40432 0.75728 0.68495 0.0
C2534 C 0.38713 0.74009 0.6893 0.0
C2535 C 0.38273 0.72221 0.67308 0.0
H2536 H 0.57773 0.23986 0.86975 0.0
H2537 H 0.63297 0.21269 0.82606 0.0
H2538 H 0.57064 0.27105 0.84153 0.0
H2539 H 0.62509 0.24288 0.79707 0.0
H2540 H 0.62691 0.31302 0.76197 0.0
H2541 H 0.63167 0.2821 0.79085 0.0
H2542 H 0.55751 0.28487 0.80588 0.0
H2543 H 0.55319 0.31675 0.77796 0.0
C2544 C 0.58775 0.24002 0.85364 0.0
C2545 C 0.60586 0.22375 0.8501 0.0
C2546 C 0.58379 0.25805 0.83742 0.0
C2547 C 0.59759 0.26003 0.81703 0.0
C2548 C 0.6146 0.24263 0.81284 0.0
C2549 C 0.61887 0.22496 0.82927 0.0
C2550 C 0.61172 0.30729 0.77176 0.0
C2551 C 0.58971 0.31748 0.76769 0.0
C2552 C 0.61433 0.28922 0.78813 0.0
C2553 C 0.5949 0.28038 0.80057 0.0
C2554 C 0.57299 0.29115 0.79695 0.0
C2555 C 0.57048 0.30955 0.78089 0.0
H2556 H 0.45007 0.18815 0.78038 0.0
H2557 H 0.37626 0.19001 0.76469 0.0
H2558 H 0.44501 0.21976 0.80854 0.0
H2559 H 0.3707 0.22049 0.79388 0.0
H2560 H 0.3673 0.28951 0.82968 0.0
H2561 H 0.37575 0.25962 0.80054 0.0
H2562 H 0.43204 0.23352 0.844 0.0
H2563 H 0.42442 0.26453 0.87222 0.0
C2564 C 0.43261 0.19485 0.7835 0.0
C2565 C 0.41356 0.18653 0.77031 0.0
C2566 C 0.42965 0.2131 0.79968 0.0
C2567 C 0.40746 0.22325 0.80344 0.0
C2568 C 0.38823 0.21392 0.79105 0.0
C2569 C 0.3913 0.19607 0.77452 0.0
C2570 C 0.38189 0.27776 0.83262 0.0
C2571 C 0.39529 0.27954 0.85315 0.0
C2572 C 0.38652 0.26024 0.81611 0.0
C2573 C 0.40425 0.24349 0.81997 0.0
C2574 C 0.41835 0.24601 0.8401 0.0
C2575 C 0.41405 0.26393 0.85634 0.0
H2576 H 0.66879 0.64729 0.78059 0.0
H2577 H 0.6439 0.57615 0.77412 0.0
H2578 H 0.69729 0.64031 0.75031 0.0
H2579 H 0.67377 0.56863 0.74429 0.0
H2580 H 0.71249 0.57152 0.67319 0.0
H2581 H 0.68365 0.57695 0.70445 0.0
H2582 H 0.73196 0.62258 0.74065 0.0
H2583 H 0.75979 0.61827 0.70926 0.0
C2584 C 0.66978 0.62987 0.77314 0.0
C2585 C 0.65391 0.6123 0.77993 0.0
C2586 C 0.68635 0.62581 0.75568 0.0
C2587 C 0.68798 0.60387 0.7446 0.0
C2588 C 0.67282 0.58588 0.75208 0.0
C2589 C 0.65595 0.59005 0.76953 0.0
C2590 C 0.71671 0.58303 0.68764 0.0
C2591 C 0.73841 0.59468 0.6884 0.0
C2592 C 0.70031 0.58589 0.70579 0.0
C2593 C 0.70533 0.60025 0.72524 0.0
C2594 C 0.72705 0.61181 0.72585 0.0
C2595 C 0.74317 0.60928 0.70768 0.0
H2596 H 0.29081 0.93314 0.67328 0.0
H2597 H 0.24111 0.89341 0.71421 0.0
H2598 H 0.32012 0.92783 0.70422 0.0
H2599 H 0.26956 0.88916 0.74508 0.0
H2600 H 0.33253 0.86054 0.78318 0.0
H2601 H 0.3033 0.86851 0.75375 0.0
H2602 H 0.33194 0.93782 0.74369 0.0
H2603 H 0.3623 0.92927 0.77281 0.0
C2604 C 0.28612 0.92326 0.68876 0.0
C2605 C 0.26363 0.91341 0.69094 0.0
C2606 C 0.30283 0.92046 0.70667 0.0
C2607 C 0.29736 0.90794 0.72724 0.0
C2608 C 0.27477 0.89842 0.72939 0.0
C2609 C 0.25831 0.90093 0.71152 0.0
C2610 C 0.33249 0.87767 0.77503 0.0
C2611 C 0.34985 0.89425 0.78051 0.0
C2612 C 0.31555 0.88231 0.75807 0.0
C2613 C 0.31512 0.90384 0.74612 0.0
C2614 C 0.33189 0.92091 0.75224 0.0
C2615 C 0.34905 0.91617 0.76927 0.0
H2616 H 0.738 0.37648 0.81412 0.0
H2617 H 0.72679 0.45112 0.81109 0.0
H2618 H 0.70956 0.3709 0.78289 0.0
H2619 H 0.69941 0.44583 0.77894 0.0
H2620 H 0.63557 0.42652 0.73417 0.0
H2621 H 0.66333 0.43394 0.76557 0.0
H2622 H 0.70441 0.37443 0.74305 0.0
H2623 H 0.67574 0.36632 0.71259 0.0
C2624 C 0.72935 0.39171 0.80684 0.0
C2625 C 0.73461 0.41422 0.81524 0.0
C2626 C 0.71325 0.38858 0.7886 0.0
C2627 C 0.70231 0.40792 0.77782 0.0
C2628 C 0.70714 0.43041 0.78676 0.0
C2629 C 0.72289 0.43348 0.80533 0.0
C2630 C 0.65084 0.41536 0.73559 0.0
C2631 C 0.65345 0.39585 0.7208 0.0
C2632 C 0.66682 0.41955 0.75375 0.0
C2633 C 0.68611 0.40458 0.75737 0.0
C2634 C 0.68945 0.38595 0.74151 0.0
C2635 C 0.67321 0.3815 0.72368 0.0
H2636 H 0.29052 0.06982 0.82935 0.0
H2637 H 0.24191 0.11448 0.79238 0.0
H2638 H 0.31939 0.07587 0.79821 0.0
H2639 H 0.26993 0.11952 0.76119 0.0
H2640 H 0.33333 0.14635 0.72242 0.0
H2641 H 0.30455 0.13859 0.75235 0.0
H2642 H 0.32936 0.06734 0.75809 0.0
H2643 H 0.3593 0.07558 0.72852 0.0
C2644 C 0.286 0.08099 0.81471 0.0
C2645 C 0.2639 0.09185 0.81365 0.0
C2646 C 0.30244 0.08421 0.79666 0.0
C2647 C 0.2971 0.09822 0.77705 0.0
C2648 C 0.275 0.10901 0.77612 0.0
C2649 C 0.25879 0.10604 0.79415 0.0
C2650 C 0.33254 0.12887 0.72973 0.0
C2651 C 0.34875 0.11161 0.72292 0.0
C2652 C 0.31586 0.12436 0.74698 0.0
C2653 C 0.31452 0.10232 0.75787 0.0
C2654 C 0.33007 0.08465 0.75041 0.0
C2655 C 0.34699 0.08924 0.73312 0.0
H2656 H 0.67351 0.70922 0.56942 0.0
H2657 H 0.71377 0.76063 0.60761 0.0
H2658 H 0.70548 0.68098 0.57424 0.0
H2659 H 0.74571 0.73334 0.6112 0.0
H2660 H 0.78736 0.67246 0.639 0.0
H2661 H 0.7569 0.70067 0.63153 0.0
H2662 H 0.74445 0.66966 0.56361 0.0
H2663 H 0.77454 0.64019 0.57182 0.0
C2664 C 0.68907 0.7145 0.57888 0.0
C2665 C 0.69075 0.73714 0.58848 0.0
C2666 C 0.70758 0.6984 0.58138 0.0
C2667 C 0.72832 0.70469 0.59325 0.0
C2668 C 0.72994 0.72745 0.60249 0.0
C2669 C 0.71145 0.74325 0.60038 0.0
C2670 C 0.77847 0.67178 0.62225 0.0
C2671 C 0.78354 0.65395 0.60603 0.0
C2672 C 0.7609 0.68815 0.61788 0.0
C2673 C 0.74794 0.68761 0.59694 0.0
C2674 C 0.75374 0.67047 0.58011 0.0
C2675 C 0.77134 0.65382 0.58461 0.0
H2676 H 0.79195 0.32804 0.86844 0.0
H2677 H 0.76481 0.37174 0.9237 0.0
H2678 H 0.76121 0.29947 0.8758 0.0
H2679 H 0.7331 0.34413 0.93015 0.0
H2680 H 0.6863 0.28174 0.9473 0.0
H2681 H 0.71854 0.30915 0.94307 0.0
H2682 H 0.72217 0.29311 0.86913 0.0
H2683 H 0.69091 0.26455 0.8739 0.0
C2684 C 0.77956 0.33135 0.88241 0.0
C2685 C 0.78097 0.35205 0.89561 0.0
C2686 C 0.76157 0.31518 0.88638 0.0
C2687 C 0.74406 0.31953 0.90323 0.0
C2688 C 0.74618 0.33982 0.91715 0.0
C2689 C 0.76452 0.35573 0.91354 0.0
C2690 C 0.69374 0.28437 0.93005 0.0
C2691 C 0.68596 0.27096 0.91092 0.0
C2692 C 0.71236 0.30014 0.92759 0.0
C2693 C 0.72348 0.30333 0.90579 0.0
C2694 C 0.71477 0.29073 0.8864 0.0
C2695 C 0.6965 0.27457 0.889 0.0
H2696 H 0.21688 0.16857 0.86156 0.0
H2697 H 0.22766 0.13832 0.93002 0.0
H2698 H 0.2475 0.19666 0.8689 0.0
H2699 H 0.25792 0.16768 0.93803 0.0
H2700 H 0.32915 0.20683 0.93308 0.0
H2701 H 0.29734 0.17844 0.92797 0.0
H2702 H 0.25818 0.22991 0.88871 0.0
H2703 H 0.28994 0.25731 0.89263 0.0
C2704 C 0.22535 0.16831 0.87853 0.0
C2705 C 0.21963 0.15109 0.89519 0.0
C2706 C 0.24302 0.18461 0.88282 0.0
C2707 C 0.25544 0.1846 0.90409 0.0
C2708 C 0.24905 0.16806 0.92128 0.0
C2709 C 0.23135 0.15148 0.91688 0.0
C2710 C 0.31388 0.21187 0.92304 0.0
C2711 C 0.31243 0.23433 0.91299 0.0
C2712 C 0.29545 0.1957 0.92037 0.0
C2713 C 0.27504 0.20171 0.90781 0.0
C2714 C 0.27369 0.22424 0.898 0.0
C2715 C 0.29209 0.24012 0.90033 0.0
H2716 H 0.83031 0.29151 0.06874 0.0
H2717 H 0.79141 0.24155 0.11014 0.0
H2718 H 0.79872 0.32007 0.07398 0.0
H2719 H 0.75982 0.2692 0.11427 0.0
H2720 H 0.71976 0.33147 0.1415 0.0
H2721 H 0.74996 0.30295 0.134 0.0
H2722 H 0.75912 0.3306 0.06415 0.0
H2723 H 0.72928 0.36035 0.07224 0.0
C2724 C 0.81514 0.28662 0.079 0.0
C2725 C 0.8137 0.26427 0.08928 0.0
C2726 C 0.79685 0.30289 0.08175 0.0
C2727 C 0.7766 0.29709 0.09463 0.0
C2728 C 0.77524 0.27467 0.10469 0.0
C2729 C 0.79352 0.25867 0.10226 0.0
C2730 C 0.72788 0.33136 0.12435 0.0
C2731 C 0.72197 0.34832 0.1075 0.0
C2732 C 0.74528 0.31482 0.11998 0.0
C2733 C 0.75722 0.31435 0.09845 0.0
C2734 C 0.75061 0.33062 0.08109 0.0
C2735 C 0.73318 0.34743 0.08556 0.0
H2736 H 0.38016 0.31337 0.26634 0.0
H2737 H 0.45396 0.31572 0.28215 0.0
H2738 H 0.37512 0.2815 0.29409 0.0
H2739 H 0.44932 0.2829 0.30906 0.0
H2740 H 0.42765 0.23551 0.37119 0.0
H2741 H 0.43561 0.26768 0.34431 0.0
H2742 H 0.38177 0.24179 0.29779 0.0
H2743 H 0.37305 0.21056 0.3254 0.0
C2744 C 0.39531 0.30716 0.27592 0.0
C2745 C 0.41743 0.31717 0.27207 0.0
C2746 C 0.39253 0.28855 0.29161 0.0
C2747 C 0.4119 0.27899 0.30355 0.0
C2748 C 0.43391 0.28969 0.30038 0.0
C2749 C 0.4366 0.30864 0.28496 0.0
C2750 C 0.41798 0.23636 0.35489 0.0
C2751 C 0.39973 0.22044 0.35041 0.0
C2752 C 0.42244 0.25496 0.33946 0.0
C2753 C 0.40898 0.25789 0.31898 0.0
C2754 C 0.39197 0.24079 0.31373 0.0
C2755 C 0.38722 0.22253 0.32935 0.0
H2756 H 0.62848 0.19012 0.26227 0.0
H2757 H 0.55448 0.18735 0.27716 0.0
H2758 H 0.63306 0.2215 0.29073 0.0
H2759 H 0.55862 0.21967 0.3045 0.0
H2760 H 0.57737 0.26544 0.36782 0.0
H2761 H 0.5709 0.23392 0.33995 0.0
H2762 H 0.62708 0.26076 0.29682 0.0
H2763 H 0.63437 0.29131 0.32562 0.0
C2764 C 0.61319 0.19615 0.27173 0.0
C2765 C 0.59116 0.18606 0.26751 0.0
C2766 C 0.6157 0.21449 0.28784 0.0
C2767 C 0.59616 0.22371 0.29983 0.0
C2768 C 0.57421 0.2131 0.29599 0.0
C2769 C 0.57181 0.19443 0.28024 0.0
C2770 C 0.58794 0.26493 0.35208 0.0
C2771 C 0.60634 0.28097 0.34892 0.0
C2772 C 0.58431 0.2467 0.33602 0.0
C2773 C 0.59872 0.24425 0.31611 0.0
C2774 C 0.61608 0.26137 0.31224 0.0
C2775 C 0.62003 0.27926 0.32855 0.0
H2776 H 0.36745 0.79213 0.17549 0.0
H2777 H 0.42595 0.76877 0.13385 0.0
H2778 H 0.37551 0.76162 0.20411 0.0
H2779 H 0.43328 0.73729 0.16161 0.0
H2780 H 0.45032 0.69136 0.22518 0.0
H2781 H 0.44554 0.72345 0.19756 0.0
H2782 H 0.37072 0.7219 0.20907 0.0
H2783 H 0.37584 0.69078 0.23768 0.0
C2784 C 0.38227 0.78064 0.17264 0.0
C2785 C 0.39614 0.78301 0.15248 0.0
C2786 C 0.38667 0.76279 0.18885 0.0
C2787 C 0.40472 0.74637 0.18507 0.0
C2788 C 0.41931 0.74952 0.1654 0.0
C2789 C 0.41519 0.76772 0.14944 0.0
C2790 C 0.4328 0.69763 0.22149 0.0
C2791 C 0.41345 0.68847 0.23366 0.0
C2792 C 0.43003 0.71616 0.20562 0.0
C2793 C 0.40775 0.72581 0.20118 0.0
C2794 C 0.38828 0.71567 0.21249 0.0
C2795 C 0.39112 0.69748 0.22867 0.0
H2796 H 0.61386 0.79125 0.25839 0.0
H2797 H 0.5687 0.82764 0.20986 0.0
H2798 H 0.61752 0.75915 0.23132 0.0
H2799 H 0.57359 0.79566 0.18167 0.0
H2800 H 0.57276 0.72598 0.14199 0.0
H2801 H 0.56497 0.75613 0.1715 0.0
H2802 H 0.63563 0.74832 0.1975 0.0
H2803 H 0.64273 0.7177 0.16944 0.0
C2804 C 0.60512 0.79274 0.24162 0.0
C2805 C 0.59122 0.81236 0.23628 0.0
C2806 C 0.60727 0.77415 0.22593 0.0
C2807 C 0.59608 0.77466 0.204 0.0
C2808 C 0.58227 0.79439 0.19846 0.0
C2809 C 0.57972 0.81293 0.21449 0.0
C2810 C 0.58632 0.73022 0.15455 0.0
C2811 C 0.60835 0.71924 0.15331 0.0
C2812 C 0.58202 0.74786 0.17121 0.0
C2813 C 0.59968 0.75498 0.18696 0.0
C2814 C 0.62134 0.74327 0.18613 0.0
C2815 C 0.6255 0.72561 0.1698 0.0
H2816 H 0.29037 0.43427 0.32807 0.0
H2817 H 0.24312 0.38831 0.29092 0.0
H2818 H 0.3198 0.42837 0.29744 0.0
H2819 H 0.2717 0.38337 0.26022 0.0
H2820 H 0.33641 0.35702 0.22312 0.0
H2821 H 0.30689 0.36472 0.25237 0.0
H2822 H 0.33012 0.43655 0.25731 0.0
H2823 H 0.36075 0.42845 0.22844 0.0
C2824 C 0.28626 0.42287 0.3135 0.0
C2825 C 0.26439 0.41158 0.31224 0.0
C2826 C 0.30302 0.41972 0.29574 0.0
C2827 C 0.29824 0.40535 0.27624 0.0
C2828 C 0.27634 0.39418 0.27509 0.0
C2829 C 0.25981 0.39708 0.29283 0.0
C2830 C 0.33512 0.3746 0.2301 0.0
C2831 C 0.35108 0.39209 0.2233 0.0
C2832 C 0.31801 0.37907 0.24695 0.0
C2833 C 0.31604 0.40127 0.25743 0.0
C2834 C 0.33133 0.41913 0.24994 0.0
C2835 C 0.34866 0.41459 0.23306 0.0
H2836 H 0.74089 0.12466 0.31218 0.0
H2837 H 0.72433 0.05104 0.31447 0.0
H2838 H 0.71235 0.13022 0.28107 0.0
H2839 H 0.6969 0.05607 0.28227 0.0
H2840 H 0.63422 0.07651 0.23644 0.0
H2841 H 0.66187 0.06915 0.26794 0.0
H2842 H 0.706 0.12495 0.24192 0.0
H2843 H 0.67737 0.1332 0.21147 0.0
C2844 C 0.73102 0.10967 0.30607 0.0
C2845 C 0.73477 0.08746 0.31593 0.0
C2846 C 0.71487 0.11273 0.28787 0.0
C2847 C 0.70242 0.09354 0.27853 0.0
C2848 C 0.70578 0.07141 0.28895 0.0
C2849 C 0.72156 0.06847 0.30754 0.0
C2850 C 0.65011 0.08684 0.23716 0.0
C2851 C 0.65362 0.1054 0.22138 0.0
C2852 C 0.66605 0.08268 0.25536 0.0
C2853 C 0.68621 0.09669 0.25803 0.0
C2854 C 0.69039 0.11425 0.24117 0.0
C2855 C 0.67417 0.11875 0.22333 0.0
H2856 H 0.2409 0.61305 0.21125 0.0
H2857 H 0.29012 0.57132 0.17176 0.0
H2858 H 0.26902 0.61717 0.24242 0.0
H2859 H 0.31917 0.57656 0.20292 0.0
H2860 H 0.36046 0.57512 0.27195 0.0
H2861 H 0.3304 0.56698 0.24241 0.0
H2862 H 0.3029 0.63686 0.25169 0.0
H2863 H 0.33169 0.6444 0.2816 0.0
C2864 C 0.25796 0.6051 0.20892 0.0
C2865 C 0.26322 0.59205 0.18869 0.0
C2866 C 0.27423 0.60753 0.22696 0.0
C2867 C 0.2966 0.5974 0.22531 0.0
C2868 C 0.30205 0.5844 0.20502 0.0
C2869 C 0.2855 0.58165 0.18697 0.0
C2870 C 0.34752 0.58845 0.26813 0.0
C2871 C 0.34851 0.61039 0.27932 0.0
C2872 C 0.33053 0.58394 0.25087 0.0
C2873 C 0.31417 0.60128 0.24441 0.0
C2874 C 0.31481 0.62285 0.25627 0.0
C2875 C 0.33152 0.62725 0.27351 0.0
H2876 H 0.74021 0.87681 0.19008 0.0
H2877 H 0.72354 0.95038 0.18686 0.0
H2878 H 0.71145 0.87155 0.22103 0.0
H2879 H 0.69584 0.94563 0.21888 0.0
H2880 H 0.63269 0.92524 0.26429 0.0
H2881 H 0.66062 0.93248 0.23297 0.0
H2882 H 0.70494 0.87737 0.26012 0.0
H2883 H 0.67608 0.86926 0.29039 0.0
C2884 C 0.73027 0.89186 0.19595 0.0
C2885 C 0.73407 0.91396 0.18588 0.0
C2886 C 0.71399 0.88897 0.21405 0.0
C2887 C 0.70143 0.90823 0.22308 0.0
C2888 C 0.70483 0.93025 0.21245 0.0
C2889 C 0.72075 0.93302 0.19397 0.0
C2890 C 0.64868 0.91506 0.26385 0.0
C2891 C 0.65219 0.89671 0.27988 0.0
C2892 C 0.66477 0.91914 0.24576 0.0
C2893 C 0.68506 0.90525 0.24347 0.0
C2894 C 0.68923 0.88795 0.26059 0.0
C2895 C 0.67288 0.88353 0.27831 0.0
H2896 H 0.32855 0.29191 0.42885 0.0
H2897 H 0.29378 0.24433 0.38142 0.0
H2898 H 0.29663 0.32002 0.42373 0.0
H2899 H 0.26172 0.27148 0.37735 0.0
H2900 H 0.21945 0.33407 0.35433 0.0
H2901 H 0.25047 0.30612 0.3605 0.0
H2902 H 0.25674 0.32865 0.43248 0.0
H2903 H 0.22616 0.3579 0.4258 0.0
C2904 C 0.31425 0.28748 0.41721 0.0
C2905 C 0.31403 0.26586 0.40538 0.0
C2906 C 0.29571 0.30347 0.41454 0.0
C2907 C 0.27635 0.29816 0.40015 0.0
C2908 C 0.27636 0.2766 0.38823 0.0
C2909 C 0.29492 0.26087 0.39062 0.0
C2910 C 0.2271 0.33294 0.37164 0.0
C2911 C 0.22014 0.34839 0.38954 0.0
C2912 C 0.24501 0.3167 0.37524 0.0
C2913 C 0.25643 0.315 0.397 0.0
C2914 C 0.24874 0.32967 0.41534 0.0
C2915 C 0.23084 0.34619 0.41164 0.0
H2916 H 0.29243 0.75979 0.11701 0.0
H2917 H 0.32711 0.71207 0.06966 0.0
H2918 H 0.26041 0.7326 0.1213 0.0
H2919 H 0.29521 0.68393 0.07499 0.0
H2920 H 0.22484 0.64555 0.074 0.0
H2921 H 0.25526 0.67486 0.06677 0.0
H2922 H 0.24956 0.69802 0.13859 0.0
H2923 H 0.21874 0.66996 0.14533 0.0
C2924 C 0.29354 0.74322 0.10784 0.0
C2925 C 0.31265 0.73819 0.0931 0.0
C2926 C 0.27502 0.72746 0.11038 0.0
C2927 C 0.27501 0.70582 0.09861 0.0
C2928 C 0.2943 0.70052 0.0841 0.0
C2929 C 0.31282 0.71654 0.08129 0.0
C2930 C 0.22962 0.65739 0.08801 0.0
C2931 C 0.21911 0.65535 0.11023 0.0
C2932 C 0.24742 0.67396 0.084 0.0
C2933 C 0.25521 0.68886 0.10211 0.0
C2934 C 0.24401 0.68727 0.124 0.0
C2935 C 0.22621 0.67097 0.12793 0.0
H2936 H 0.67205 0.79032 0.07149 0.0
H2937 H 0.71131 0.74146 0.11384 0.0
H2938 H 0.70322 0.81933 0.07644 0.0
H2939 H 0.74253 0.76965 0.11777 0.0
H2940 H 0.78193 0.83312 0.14366 0.0
H2941 H 0.75206 0.80406 0.1368 0.0
H2942 H 0.74275 0.82988 0.06629 0.0
H2943 H 0.77227 0.86012 0.07367 0.0
C2944 C 0.6872 0.78577 0.08193 0.0
C2945 C 0.68889 0.76357 0.09249 0.0
C2946 C 0.70527 0.8023 0.0845 0.0
C2947 C 0.72554 0.79696 0.09754 0.0
C2948 C 0.72711 0.77474 0.10801 0.0
C2949 C 0.70905 0.75844 0.1057 0.0
C2950 C 0.77384 0.8325 0.12651 0.0
C2951 C 0.77963 0.84908 0.10923 0.0
C2952 C 0.75663 0.81565 0.12252 0.0
C2953 C 0.74474 0.81451 0.10099 0.0
C2954 C 0.75121 0.83042 0.08324 0.0
C2955 C 0.76846 0.84752 0.08732 0.0
H2956 H 0.18816 0.72022 0.95021 0.0
H2957 H 0.19198 0.73809 0.87695 0.0
H2958 H 0.22053 0.69297 0.94539 0.0
H2959 H 0.22331 0.70976 0.87158 0.0
H2960 H 0.2931 0.6752 0.86947 0.0
H2961 H 0.2624 0.70357 0.87767 0.0
H2962 H 0.23534 0.65821 0.93196 0.0
H2963 H 0.26707 0.63077 0.92466 0.0
C2964 C 0.19546 0.71778 0.93288 0.0
C2965 C 0.18743 0.73132 0.91395 0.0
C2966 C 0.21416 0.70212 0.93007 0.0
C2967 C 0.22509 0.69919 0.90812 0.0
C2968 C 0.2161 0.71194 0.88896 0.0
C2969 C 0.19778 0.72797 0.8919 0.0
C2970 C 0.28097 0.67169 0.88361 0.0
C2971 C 0.28269 0.65085 0.89654 0.0
C2972 C 0.26299 0.68775 0.88806 0.0
C2973 C 0.24575 0.68314 0.90514 0.0
C2974 C 0.2482 0.66271 0.9188 0.0
C2975 C 0.26655 0.64691 0.9147 0.0
H2976 H 0.08524 0.10786 0.39283 0.0
H2977 H 0.11761 0.17469 0.37833 0.0
H2978 H 0.08407 0.1175 0.4345 0.0
H2979 H 0.11692 0.18399 0.41982 0.0
H2980 H 0.08863 0.20785 0.48802 0.0
H2981 H 0.08724 0.19434 0.4477 0.0
H2982 H 0.10709 0.12492 0.47023 0.0
H2983 H 0.10784 0.13856 0.51105 0.0
C2984 C 0.09247 0.12443 0.39852 0.0
C2985 C 0.10134 0.14059 0.38211 0.0
C2986 C 0.09179 0.12994 0.42245 0.0
C2987 C 0.09996 0.15171 0.43051 0.0
C2988 C 0.10984 0.16733 0.4142 0.0
C2989 C 0.11045 0.16189 0.39036 0.0
C2990 C 0.0922 0.18957 0.48442 0.0
C2991 C 0.0984 0.17426 0.50263 0.0
C2992 C 0.09171 0.18187 0.46127 0.0
C2993 C 0.09772 0.1587 0.45559 0.0
C2994 C 0.10244 0.14291 0.47398 0.0
C2995 C 0.10273 0.15064 0.49735 0.0
H2996 H 0.88968 0.36524 0.512 0.0
H2997 H 0.90738 0.2956 0.48871 0.0
H2998 H 0.88971 0.37873 0.47108 0.0
H2999 H 0.90792 0.30892 0.44837 0.0
H3000 H 0.87775 0.32887 0.37926 0.0
H3001 H 0.87781 0.32 0.42088 0.0
H3002 H 0.91314 0.38531 0.43508 0.0
H3003 H 0.91264 0.39453 0.39333 0.0
C3004 C 0.89419 0.35302 0.49822 0.0
C3005 C 0.89835 0.32936 0.50347 0.0
C3006 C 0.89408 0.36066 0.4748 0.0
C3007 C 0.8982 0.34474 0.45638 0.0
C3008 C 0.9039 0.32149 0.46199 0.0
C3009 C 0.90386 0.3139 0.48516 0.0
C3010 C 0.88528 0.34153 0.39121 0.0
C3011 C 0.89537 0.36232 0.3828 0.0
C3012 C 0.88551 0.33634 0.41511 0.0
C3013 C 0.89594 0.35172 0.43131 0.0
C3014 C 0.90498 0.37308 0.42311 0.0
C3015 C 0.9047 0.37832 0.39913 0.0
H3016 H 0.08442 0.89452 0.10993 0.0
H3017 H 0.12321 0.83094 0.12331 0.0
H3018 H 0.08676 0.88705 0.06781 0.0
H3019 H 0.12544 0.82358 0.08141 0.0
H3020 H 0.14642 0.82711 0.00676 0.0
H3021 H 0.14466 0.8413 0.04679 0.0
H3022 H 0.07124 0.85704 0.03807 0.0
H3023 H 0.07313 0.84281 0.99735 0.0
C3024 C 0.09367 0.87909 0.10393 0.0
C3025 C 0.10377 0.86338 0.12007 0.0
C3026 C 0.09479 0.87475 0.0798 0.0
C3027 C 0.10632 0.85479 0.07129 0.0
C3028 C 0.11667 0.83929 0.0874 0.0
C3029 C 0.11535 0.84348 0.11146 0.0
C3030 C 0.12995 0.83395 0.01323 0.0
C3031 C 0.10981 0.8336 0.99908 0.0
C3032 C 0.12893 0.84196 0.03621 0.0
C3033 C 0.10772 0.84978 0.04576 0.0
C3034 C 0.08784 0.85104 0.03116 0.0
C3035 C 0.08888 0.843 0.00789 0.0
H3036 H 0.88781 0.67512 0.1216 0.0
H3037 H 0.90915 0.60383 0.10788 0.0
H3038 H 0.88962 0.68362 0.07998 0.0
H3039 H 0.91133 0.61258 0.06604 0.0
H3040 H 0.88802 0.63689 0.98971 0.0
H3041 H 0.8883 0.62339 0.03059 0.0
H3042 H 0.92076 0.6884 0.05155 0.0
H3043 H 0.91991 0.70186 0.01113 0.0
C3044 C 0.89274 0.66117 0.10974 0.0
C3045 C 0.89847 0.63882 0.11826 0.0
C3046 C 0.89401 0.66612 0.08581 0.0
C3047 C 0.90112 0.64891 0.06967 0.0
C3048 C 0.90585 0.62624 0.07798 0.0
C3049 C 0.90458 0.62126 0.10201 0.0
C3050 C 0.8959 0.64785 0.00302 0.0
C3051 C 0.90398 0.67037 0.99734 0.0
C3052 C 0.8959 0.64025 0.02644 0.0
C3053 C 0.90399 0.65509 0.04444 0.0
C3054 C 0.91376 0.67681 0.03827 0.0
C3055 C 0.9136 0.6844 0.01507 0.0
H3056 H 0.49238 0.08707 0.20179 0.0
H3057 H 0.51465 0.11236 0.13421 0.0
H3058 H 0.45201 0.08606 0.18839 0.0
H3059 H 0.47372 0.11177 0.12068 0.0
H3060 H 0.39557 0.08871 0.10405 0.0
H3061 H 0.43755 0.08736 0.11249 0.0
H3062 H 0.42469 0.11808 0.18035 0.0
H3063 H 0.38299 0.11918 0.17218 0.0
C3064 C 0.48861 0.09199 0.18385 0.0
C3065 C 0.50658 0.09987 0.16906 0.0
C3066 C 0.46545 0.09167 0.17625 0.0
C3067 C 0.45955 0.09947 0.15369 0.0
C3068 C 0.47771 0.10577 0.13821 0.0
C3069 C 0.50113 0.10596 0.14586 0.0
C3070 C 0.40173 0.09546 0.12066 0.0
C3071 C 0.38577 0.10383 0.13753 0.0
C3072 C 0.42581 0.09467 0.12546 0.0
C3073 C 0.43441 0.10215 0.14726 0.0
C3074 C 0.41858 0.11159 0.1636 0.0
C3075 C 0.39462 0.1124 0.15883 0.0
H3076 H 0.51382 0.41811 0.20394 0.0
H3077 H 0.48996 0.39036 0.13788 0.0
H3078 H 0.55396 0.418 0.18976 0.0
H3079 H 0.53059 0.38982 0.12358 0.0
H3080 H 0.60848 0.41093 0.10443 0.0
H3081 H 0.56676 0.41315 0.11369 0.0
H3082 H 0.58073 0.38528 0.18254 0.0
H3083 H 0.62225 0.38333 0.17356 0.0
C3084 C 0.51718 0.41248 0.18613 0.0
C3085 C 0.49885 0.40422 0.172 0.0
C3086 C 0.5402 0.41211 0.17811 0.0
C3087 C 0.54555 0.40325 0.1558 0.0
C3088 C 0.52702 0.39664 0.14091 0.0
C3089 C 0.50377 0.39712 0.14898 0.0
C3090 C 0.60263 0.40495 0.12145 0.0
C3091 C 0.61886 0.39717 0.13834 0.0
C3092 C 0.57869 0.40625 0.12672 0.0
C3093 C 0.57049 0.39988 0.14901 0.0
C3094 C 0.58655 0.39092 0.1654 0.0
C3095 C 0.61039 0.3896 0.16016 0.0
H3096 H 0.39468 0.91657 0.39637 0.0
H3097 H 0.38053 0.88068 0.33127 0.0
H3098 H 0.43646 0.91714 0.38689 0.0
H3099 H 0.42204 0.88091 0.32213 0.0
H3100 H 0.48929 0.91026 0.29662 0.0
H3101 H 0.44916 0.91143 0.31056 0.0
H3102 H 0.47263 0.89316 0.38009 0.0
H3103 H 0.51335 0.89246 0.36597 0.0
C3104 C 0.40046 0.90844 0.38025 0.0
C3105 C 0.38411 0.8988 0.36447 0.0
C3106 C 0.42444 0.90878 0.37484 0.0
C3107 C 0.43256 0.89951 0.35354 0.0
C3108 C 0.41633 0.88879 0.33841 0.0
C3109 C 0.39248 0.88849 0.34375 0.0
C3110 C 0.48596 0.9069 0.31499 0.0
C3111 C 0.50442 0.90113 0.33018 0.0
C3112 C 0.46291 0.90731 0.32294 0.0
C3113 C 0.45757 0.90173 0.34629 0.0
C3114 C 0.47616 0.89744 0.36196 0.0
C3115 C 0.49946 0.89717 0.35395 0.0
H3116 H 0.61817 0.62126 0.33536 0.0
H3117 H 0.60657 0.57904 0.39707 0.0
H3118 H 0.57611 0.62376 0.32921 0.0
H3119 H 0.56416 0.58157 0.39073 0.0
H3120 H 0.49269 0.57139 0.34493 0.0
H3121 H 0.53339 0.56797 0.35906 0.0
H3122 H 0.54241 0.64251 0.35046 0.0
H3123 H 0.50246 0.64573 0.33632 0.0
C3124 C 0.60666 0.61262 0.34772 0.0
C3125 C 0.6158 0.60011 0.3668 0.0
C3126 C 0.58252 0.6141 0.34422 0.0
C3127 C 0.56682 0.60295 0.35957 0.0
C3128 C 0.57585 0.59029 0.37861 0.0
C3129 C 0.60011 0.58904 0.38231 0.0
C3130 C 0.50324 0.58703 0.34681 0.0
C3131 C 0.49455 0.60881 0.33943 0.0
C3132 C 0.5265 0.58511 0.35478 0.0
C3133 C 0.5412 0.60494 0.35538 0.0
C3134 C 0.53171 0.62686 0.34973 0.0
C3135 C 0.50877 0.62873 0.34181 0.0
H3136 H 0.13478 0.51463 0.11092 0.0
H3137 H 0.20287 0.49271 0.08682 0.0
H3138 H 0.12182 0.47354 0.11124 0.0
H3139 H 0.19004 0.45213 0.08663 0.0
H3140 H 0.17393 0.38279 0.11944 0.0
H3141 H 0.1822 0.42451 0.11785 0.0
H3142 H 0.11375 0.43728 0.08846 0.0
H3143 H 0.10521 0.39543 0.09041 0.0
C3144 C 0.14665 0.50112 0.10491 0.0
C3145 C 0.1698 0.50679 0.09883 0.0
C3146 C 0.13935 0.4776 0.10527 0.0
C3147 C 0.15511 0.45946 0.09956 0.0
C3148 C 0.17766 0.46551 0.09183 0.0
C3149 C 0.18493 0.48881 0.0916 0.0
C3150 C 0.16048 0.39444 0.1129 0.0
C3151 C 0.13896 0.38557 0.10491 0.0
C3152 C 0.16531 0.41841 0.11177 0.0
C3153 C 0.14882 0.43425 0.10254 0.0
C3154 C 0.12686 0.42561 0.09562 0.0
C3155 C 0.12199 0.40155 0.09675 0.0
H3156 H 0.20404 0.51033 0.41546 0.0
H3157 H 0.13609 0.48921 0.39028 0.0
H3158 H 0.19126 0.55093 0.41671 0.0
H3159 H 0.12321 0.53029 0.39093 0.0
H3160 H 0.10606 0.60757 0.41281 0.0
H3161 H 0.11483 0.56577 0.41422 0.0
H3162 H 0.18382 0.57948 0.38653 0.0
H3163 H 0.17533 0.62117 0.38555 0.0
C3164 C 0.18614 0.51441 0.41065 0.0
C3165 C 0.17102 0.49668 0.40283 0.0
C3166 C 0.17891 0.53771 0.41103 0.0
C3167 C 0.15642 0.544 0.40329 0.0
C3168 C 0.14068 0.52606 0.39695 0.0
C3169 C 0.14794 0.50253 0.39674 0.0
C3170 C 0.12303 0.60167 0.40677 0.0
C3171 C 0.14006 0.61789 0.39923 0.0
C3172 C 0.12802 0.57765 0.40758 0.0
C3173 C 0.15016 0.56926 0.40092 0.0
C3174 C 0.16678 0.58537 0.3924 0.0
C3175 C 0.16183 0.60932 0.39162 0.0
H3176 H 0.83619 0.88151 0.37478 0.0
H3177 H 0.89511 0.89203 0.42106 0.0
H3178 H 0.82963 0.92361 0.37371 0.0
H3179 H 0.88843 0.93433 0.41994 0.0
H3180 H 0.84262 0.00418 0.43256 0.0
H3181 H 0.85684 0.96344 0.43365 0.0
H3182 H 0.8497 0.95912 0.3585 0.0
H3183 H 0.83552 0.99924 0.35753 0.0
C3184 C 0.84789 0.89279 0.38454 0.0
C3185 C 0.86625 0.88331 0.39788 0.0
C3186 C 0.84418 0.91696 0.38389 0.0
C3187 C 0.85857 0.93232 0.39671 0.0
C3188 C 0.87701 0.92294 0.40998 0.0
C3189 C 0.88092 0.89871 0.41042 0.0
C3190 C 0.84482 0.99465 0.41632 0.0
C3191 C 0.83787 0.0047 0.395 0.0
C3192 C 0.85284 0.97136 0.41689 0.0
C3193 C 0.85391 0.95795 0.39617 0.0
C3194 C 0.84858 0.96877 0.37479 0.0
C3195 C 0.84063 0.9918 0.37423 0.0
H3196 H 0.39503 0.60795 0.58164 0.0
H3197 H 0.33331 0.62062 0.62355 0.0
H3198 H 0.38758 0.56578 0.58352 0.0
H3199 H 0.32589 0.57878 0.6252 0.0
H3200 H 0.32931 0.50391 0.64453 0.0
H3201 H 0.34346 0.54393 0.64292 0.0
H3202 H 0.35767 0.536 0.56907 0.0
H3203 H 0.34362 0.49522 0.57086 0.0
C3204 C 0.38002 0.60178 0.59143 0.0
C3205 C 0.36485 0.61775 0.60258 0.0
C3206 C 0.37567 0.57762 0.5923 0.0
C3207 C 0.35622 0.5689 0.60456 0.0
C3208 C 0.34124 0.58487 0.61588 0.0
C3209 C 0.34546 0.60892 0.61487 0.0
C3210 C 0.33576 0.51057 0.62797 0.0
C3211 C 0.33508 0.49659 0.60773 0.0
C3212 C 0.34376 0.53356 0.62704 0.0
C3213 C 0.35117 0.54335 0.60577 0.0
C3214 C 0.35201 0.52893 0.58572 0.0
C3215 C 0.34404 0.50563 0.5867 0.0
H3216 H 0.92751 0.84258 0.494 0.0
H3217 H 0.85475 0.82468 0.50372 0.0
H3218 H 0.92903 0.85723 0.53456 0.0
H3219 H 0.85606 0.83952 0.54347 0.0
H3220 H 0.8763 0.832 0.62008 0.0
H3221 H 0.87447 0.8238 0.57844 0.0
H3222 H 0.91388 0.88666 0.56394 0.0
H3223 H 0.91604 0.89483 0.60596 0.0
C3224 C 0.91179 0.84225 0.50461 0.0
C3225 C 0.89116 0.8321 0.49592 0.0
C3226 C 0.91261 0.85061 0.52777 0.0
C3227 C 0.89277 0.84904 0.54239 0.0
C3228 C 0.87182 0.84038 0.53295 0.0
C3229 C 0.87106 0.83195 0.51012 0.0
C3230 C 0.88442 0.84425 0.6081 0.0
C3231 C 0.89622 0.86414 0.61647 0.0
C3232 C 0.8833 0.83958 0.58415 0.0
C3233 C 0.89396 0.85464 0.56782 0.0
C3234 C 0.90563 0.87466 0.57608 0.0
C3235 C 0.90665 0.87943 0.60015 0.0
H3236 H 0.12032 0.67049 0.62078 0.0
H3237 H 0.08433 0.60515 0.60808 0.0
H3238 H 0.12255 0.67738 0.57887 0.0
H3239 H 0.08672 0.61213 0.56581 0.0
H3240 H 0.07247 0.65499 0.49438 0.0
H3241 H 0.07052 0.64105 0.53521 0.0
H3242 H 0.14304 0.66004 0.54495 0.0
H3243 H 0.14482 0.67402 0.50486 0.0
C3244 C 0.11305 0.65747 0.60906 0.0
C3245 C 0.10229 0.6372 0.61788 0.0
C3246 C 0.11439 0.66139 0.58498 0.0
C3247 C 0.1049 0.64523 0.569 0.0
C3248 C 0.0941 0.62493 0.5777 0.0
C3249 C 0.09295 0.62087 0.6019 0.0
C3250 C 0.08804 0.65562 0.50519 0.0
C3251 C 0.10868 0.66588 0.49665 0.0
C3252 C 0.08695 0.64771 0.52851 0.0
C3253 C 0.10651 0.64995 0.54342 0.0
C3254 C 0.12752 0.65862 0.53414 0.0
C3255 C 0.12856 0.66653 0.51113 0.0
H3256 H 0.88173 0.17303 0.87872 0.0
H3257 H 0.91497 0.10648 0.89257 0.0
H3258 H 0.88292 0.18221 0.92024 0.0
H3259 H 0.91662 0.116 0.93423 0.0
H3260 H 0.89441 0.13705 0.01128 0.0
H3261 H 0.89413 0.12334 0.97046 0.0
H3262 H 0.91347 0.19271 0.94733 0.0
H3263 H 0.91314 0.20628 0.98765 0.0
C3264 C 0.88915 0.16026 0.89061 0.0
C3265 C 0.89841 0.13909 0.88217 0.0
C3266 C 0.89004 0.16562 0.91446 0.0
C3267 C 0.90036 0.15007 0.93056 0.0
C3268 C 0.90858 0.12839 0.92234 0.0
C3269 C 0.90762 0.12295 0.89841 0.0
C3270 C 0.89918 0.14909 0.99743 0.0
C3271 C 0.90368 0.17272 0.00255 0.0
C3272 C 0.89888 0.14133 0.97407 0.0
C3273 C 0.90315 0.1571 0.95556 0.0
C3274 C 0.90933 0.18027 0.96103 0.0
C3275 C 0.90945 0.18799 0.98417 0.0
H3276 H 0.07338 0.34664 0.00782 0.0
H3277 H 0.14687 0.33203 0.99842 0.0
H3278 H 0.07107 0.36004 0.96685 0.0
H3279 H 0.14475 0.34551 0.95816 0.0
H3280 H 0.12385 0.33325 0.88202 0.0
H3281 H 0.12623 0.32696 0.92403 0.0
H3282 H 0.08527 0.38931 0.93611 0.0
H3283 H 0.08271 0.39565 0.89377 0.0
C3284 C 0.0891 0.34692 0.99723 0.0
C3285 C 0.11023 0.33806 0.00614 0.0
C3286 C 0.08782 0.35451 0.9738 0.0
C3287 C 0.10765 0.35333 0.95912 0.0
C3288 C 0.12904 0.34608 0.96877 0.0
C3289 C 0.13028 0.33849 0.99189 0.0
C3290 C 0.11548 0.34577 0.89355 0.0
C3291 C 0.1032 0.36503 0.88442 0.0
C3292 C 0.11692 0.34221 0.91769 0.0
C3293 C 0.10603 0.35771 0.93345 0.0
C3294 C 0.09375 0.37701 0.92443 0.0
C3295 C 0.09248 0.38072 0.90017 0.0
H3296 H 0.60894 0.92023 0.89588 0.0
H3297 H 0.62224 0.88114 0.83247 0.0
H3298 H 0.5668 0.918 0.88837 0.0
H3299 H 0.58035 0.87903 0.82506 0.0
H3300 H 0.50574 0.85767 0.82885 0.0
H3301 H 0.54586 0.85979 0.84268 0.0
H3302 H 0.5366 0.9331 0.85863 0.0
H3303 H 0.49576 0.93085 0.84473 0.0
C3304 C 0.60292 0.91096 0.88047 0.0
C3305 C 0.61907 0.9007 0.86486 0.0
C3306 C 0.57877 0.9099 0.8761 0.0
C3307 C 0.5702 0.89828 0.85619 0.0
C3308 C 0.58633 0.88786 0.84074 0.0
C3309 C 0.61041 0.88911 0.84496 0.0
C3310 C 0.51211 0.87421 0.83565 0.0
C3311 C 0.49771 0.89418 0.83546 0.0
C3312 C 0.53516 0.87543 0.84345 0.0
C3313 C 0.54461 0.89671 0.85124 0.0
C3314 C 0.5298 0.91644 0.85265 0.0
C3315 C 0.50645 0.91519 0.8448 0.0
H3316 H 0.39549 0.57929 0.89482 0.0
H3317 H 0.38327 0.62482 0.83564 0.0
H3318 H 0.43772 0.58141 0.88766 0.0
H3319 H 0.4252 0.62681 0.82857 0.0
H3320 H 0.5002 0.64535 0.83345 0.0
H3321 H 0.46028 0.64324 0.84798 0.0
H3322 H 0.46714 0.5684 0.85614 0.0
H3323 H 0.50774 0.57065 0.84163 0.0
C3324 C 0.40178 0.58995 0.88046 0.0
C3325 C 0.38593 0.60201 0.86587 0.0
C3326 C 0.42596 0.59096 0.87627 0.0
C3327 C 0.43481 0.60433 0.85763 0.0
C3328 C 0.41898 0.6166 0.84328 0.0
C3329 C 0.39489 0.6154 0.84729 0.0
C3330 C 0.49336 0.62847 0.83878 0.0
C3331 C 0.50693 0.60812 0.83624 0.0
C3332 C 0.47044 0.62726 0.84696 0.0
C3333 C 0.46037 0.60561 0.85271 0.0
C3334 C 0.47446 0.58534 0.85181 0.0
C3335 C 0.49766 0.58659 0.8436 0.0
H3336 H 0.61839 0.12516 0.66604 0.0
H3337 H 0.60659 0.08089 0.60582 0.0
H3338 H 0.57639 0.12734 0.67263 0.0
H3339 H 0.56428 0.08314 0.61252 0.0
H3340 H 0.49426 0.07141 0.65875 0.0
H3341 H 0.53477 0.06947 0.64397 0.0
H3342 H 0.54144 0.14423 0.65302 0.0
H3343 H 0.50159 0.14603 0.66783 0.0
C3344 C 0.60684 0.11607 0.65405 0.0
C3345 C 0.61592 0.10296 0.63534 0.0
C3346 C 0.58272 0.11738 0.65778 0.0
C3347 C 0.56699 0.10546 0.64303 0.0
C3348 C 0.57597 0.09242 0.62422 0.0
C3349 C 0.60019 0.09133 0.62029 0.0
C3350 C 0.50426 0.08741 0.65688 0.0
C3351 C 0.49497 0.10881 0.66459 0.0
C3352 C 0.52741 0.08634 0.64852 0.0
C3353 C 0.54142 0.10667 0.64781 0.0
C3354 C 0.53131 0.12822 0.65385 0.0
C3355 C 0.50844 0.12925 0.66218 0.0
H3356 H 0.38314 0.3837 0.67134 0.0
H3357 H 0.3954 0.41476 0.60341 0.0
H3358 H 0.42486 0.385 0.67942 0.0
H3359 H 0.43741 0.41624 0.61177 0.0
H3360 H 0.51474 0.39129 0.63369 0.0
H3361 H 0.47385 0.39164 0.62 0.0
H3362 H 0.4518 0.4177 0.68747 0.0
H3363 H 0.49213 0.41702 0.701 0.0
C3364 C 0.39471 0.39062 0.658 0.0
C3365 C 0.38575 0.39933 0.6368 0.0
C3366 C 0.41867 0.39154 0.66273 0.0
C3367 C 0.43442 0.4012 0.64644 0.0
C3368 C 0.42573 0.40877 0.6247 0.0
C3369 C 0.40163 0.4079 0.61995 0.0
C3370 C 0.50116 0.39774 0.64524 0.0
C3371 C 0.50652 0.40401 0.66842 0.0
C3372 C 0.47777 0.39779 0.6375 0.0
C3373 C 0.45953 0.40409 0.65289 0.0
C3374 C 0.46532 0.41208 0.67541 0.0
C3375 C 0.48846 0.41195 0.68308 0.0
H3376 H 0.89773 0.61015 0.91239 0.0
H3377 H 0.8273 0.62329 0.88804 0.0
H3378 H 0.88963 0.5681 0.91293 0.0
H3379 H 0.81947 0.58151 0.88823 0.0
H3380 H 0.80107 0.51197 0.91701 0.0
H3381 H 0.81386 0.55251 0.91882 0.0
H3382 H 0.88027 0.53298 0.88835 0.0
H3383 H 0.8674 0.49188 0.88705 0.0
C3384 C 0.88065 0.60411 0.90682 0.0
C3385 C 0.86309 0.62022 0.90038 0.0
C3386 C 0.87604 0.57998 0.90713 0.0
C3387 C 0.85377 0.57146 0.90108 0.0
C3388 C 0.83663 0.5875 0.89361 0.0
C3389 C 0.8412 0.61152 0.89331 0.0
C3390 C 0.81863 0.51624 0.91123 0.0
C3391 C 0.83324 0.49885 0.90187 0.0
C3392 C 0.82587 0.53952 0.91198 0.0
C3393 C 0.84784 0.54612 0.90312 0.0
C3394 C 0.8632 0.52847 0.89524 0.0
C3395 C 0.85594 0.50495 0.89463 0.0
H3396 H 0.82692 0.49648 0.64491 0.0
H3397 H 0.84824 0.50834 0.5734 0.0
H3398 H 0.84039 0.45639 0.64269 0.0
H3399 H 0.8615 0.46729 0.57092 0.0
H3400 H 0.89663 0.39381 0.58483 0.0
H3401 H 0.88947 0.43604 0.58695 0.0
H3402 H 0.82374 0.42288 0.62185 0.0
H3403 H 0.83087 0.38101 0.62001 0.0
C3404 C 0.83479 0.49054 0.62872 0.0
C3405 C 0.83628 0.50552 0.60924 0.0
C3406 C 0.84236 0.46745 0.62741 0.0
C3407 C 0.85147 0.45844 0.60648 0.0
C3408 C 0.85446 0.47374 0.5873 0.0
C3409 C 0.84694 0.4972 0.58869 0.0
C3410 C 0.88075 0.39995 0.59317 0.0
C3411 C 0.86441 0.38392 0.60245 0.0
C3412 C 0.87658 0.42414 0.59415 0.0
C3413 C 0.85612 0.43284 0.60466 0.0
C3414 C 0.83987 0.4168 0.61395 0.0
C3415 C 0.84394 0.39273 0.61285 0.0
H3416 H 0.1689 0.12047 0.61938 0.0
H3417 H 0.10677 0.10816 0.57798 0.0
H3418 H 0.17558 0.0785 0.62178 0.0
H3419 H 0.11361 0.06583 0.58045 0.0
H3420 H 0.15897 0.99468 0.56961 0.0
H3421 H 0.14494 0.03541 0.56645 0.0
H3422 H 0.15534 0.04456 0.64076 0.0
H3423 H 0.16929 0.00453 0.64381 0.0
C3424 C 0.15656 0.10882 0.61091 0.0
C3425 C 0.13721 0.11774 0.59863 0.0
C3426 C 0.16036 0.08473 0.61234 0.0
C3427 C 0.14504 0.06886 0.60139 0.0
C3428 C 0.12573 0.07766 0.58899 0.0
C3429 C 0.12174 0.10187 0.58778 0.0
C3430 C 0.15763 0.0053 0.58525 0.0
C3431 C 0.1655 0.99663 0.60687 0.0
C3432 C 0.14969 0.02857 0.58348 0.0
C3433 C 0.14955 0.04329 0.60331 0.0
C3434 C 0.15576 0.03386 0.6251 0.0
C3435 C 0.16366 0.01089 0.62684 0.0
H3436 H 0.60557 0.39365 0.41636 0.0
H3437 H 0.67199 0.38045 0.38259 0.0
H3438 H 0.61491 0.43538 0.41831 0.0
H3439 H 0.68101 0.42197 0.38417 0.0
H3440 H 0.70504 0.48907 0.41457 0.0
H3441 H 0.69136 0.44879 0.41536 0.0
H3442 H 0.62218 0.4718 0.39528 0.0
H3443 H 0.636 0.51259 0.39504 0.0
C3444 C 0.62198 0.39964 0.40899 0.0
C3445 C 0.63813 0.38356 0.39952 0.0
C3446 C 0.6273 0.42359 0.41013 0.0
C3447 C 0.64891 0.43197 0.40186 0.0
C3448 C 0.66448 0.41604 0.39133 0.0
C3449 C 0.65921 0.39219 0.39023 0.0
C3450 C 0.68676 0.48559 0.41087 0.0
C3451 C 0.67158 0.5039 0.40469 0.0
C3452 C 0.67898 0.46247 0.41102 0.0
C3453 C 0.65585 0.45697 0.40471 0.0
C3454 C 0.64014 0.47545 0.40013 0.0
C3455 C 0.64796 0.49879 0.40014 0.0
H3456 H 0.57142 0.65853 0.00606 0.0
H3457 H 0.64515 0.67281 0.99775 0.0
H3458 H 0.56973 0.64509 0.96504 0.0
H3459 H 0.64353 0.6595 0.95744 0.0
H3460 H 0.62325 0.67162 0.88089 0.0
H3461 H 0.6247 0.67844 0.92293 0.0
H3462 H 0.58555 0.61495 0.93497 0.0
H3463 H 0.58403 0.608 0.8927 0.0
C3464 C 0.58729 0.65824 0.99569 0.0
C3465 C 0.60831 0.66703 0.00492 0.0
C3466 C 0.58635 0.65064 0.97225 0.0
C3467 C 0.60643 0.65176 0.9579 0.0
C3468 C 0.62767 0.65898 0.96783 0.0
C3469 C 0.62859 0.66651 0.99097 0.0
C3470 C 0.61511 0.65897 0.89243 0.0
C3471 C 0.60369 0.63918 0.88334 0.0
C3472 C 0.61597 0.66285 0.91657 0.0
C3473 C 0.60528 0.64718 0.93228 0.0
C3474 C 0.59384 0.62737 0.92329 0.0
C3475 C 0.5932 0.62332 0.89909 0.0
H3476 H 0.40796 0.79564 0.98876 0.0
H3477 H 0.39389 0.86603 0.01227 0.0
H3478 H 0.40911 0.80904 0.94846 0.0
H3479 H 0.39448 0.87961 0.9714 0.0
H3480 H 0.41735 0.89495 0.89365 0.0
H3481 H 0.41766 0.88543 0.93536 0.0
H3482 H 0.38006 0.82148 0.92083 0.0
H3483 H 0.38022 0.83062 0.87929 0.0
C3484 C 0.40534 0.81411 0.98527 0.0
C3485 C 0.40069 0.82977 0.00366 0.0
C3486 C 0.40574 0.82176 0.96211 0.0
C3487 C 0.40123 0.84529 0.95655 0.0
C3488 C 0.39794 0.86133 0.97505 0.0
C3489 C 0.39772 0.85363 0.99845 0.0
C3490 C 0.40888 0.87898 0.89938 0.0
C3491 C 0.39895 0.86343 0.88298 0.0
C3492 C 0.40906 0.87356 0.92335 0.0
C3493 C 0.39931 0.85247 0.93147 0.0
C3494 C 0.38833 0.83757 0.91517 0.0
C3495 C 0.38824 0.84291 0.8913 0.0
H3496 H 0.61982 0.32895 0.62168 0.0
H3497 H 0.58925 0.39659 0.60708 0.0
H3498 H 0.61934 0.31981 0.58014 0.0
H3499 H 0.5883 0.38713 0.56537 0.0
H3500 H 0.6118 0.36553 0.48882 0.0
H3501 H 0.61149 0.37913 0.5297 0.0
H3502 H 0.58941 0.31035 0.5521 0.0
H3503 H 0.59031 0.29688 0.51178 0.0
C3504 C 0.61311 0.34196 0.60963 0.0
C3505 C 0.60442 0.36344 0.61787 0.0
C3506 C 0.61264 0.33663 0.58576 0.0
C3507 C 0.60331 0.35254 0.5694 0.0
C3508 C 0.59559 0.37447 0.57745 0.0
C3509 C 0.59614 0.37987 0.60141 0.0
C3510 C 0.60634 0.3536 0.50251 0.0
C3511 C 0.6012 0.33015 0.4972 0.0
C3512 C 0.60629 0.3613 0.52592 0.0
C3513 C 0.60103 0.34565 0.54428 0.0
C3514 C 0.5943 0.32269 0.53856 0.0
C3515 C 0.59453 0.31503 0.5154 0.0
H3516 H 0.35575 0.18271 0.50803 0.0
H3517 H 0.42496 0.15517 0.49517 0.0
H3518 H 0.3577 0.16971 0.54834 0.0
H3519 H 0.42709 0.14224 0.53628 0.0
H3520 H 0.41242 0.10815 0.60937 0.0
H3521 H 0.40971 0.11586 0.56733 0.0
H3522 H 0.37995 0.18378 0.58192 0.0
H3523 H 0.38237 0.17612 0.62369 0.0
C3524 C 0.37143 0.17374 0.51383 0.0
C3525 C 0.3904 0.17033 0.49849 0.0
C3526 C 0.37256 0.16637 0.53702 0.0
C3527 C 0.39274 0.15543 0.54571 0.0
C3528 C 0.41129 0.15069 0.53009 0.0
C3529 C 0.41011 0.15805 0.5066 0.0
C3530 C 0.40507 0.12465 0.60361 0.0
C3531 C 0.39745 0.14145 0.62002 0.0
C3532 C 0.40374 0.12911 0.5795 0.0
C3533 C 0.39456 0.15038 0.57124 0.0
C3534 C 0.38681 0.16706 0.58765 0.0
C3535 C 0.38825 0.16268 0.61167 0.0
H3536 H 0.99057 0.58702 0.70443 0.0
H3537 H 0.01559 0.60745 0.63615 0.0
H3538 H 0.95056 0.58683 0.68996 0.0
H3539 H 0.97505 0.60763 0.62152 0.0
H3540 H 0.89629 0.58629 0.60451 0.0
H3541 H 0.93802 0.58401 0.61394 0.0
H3542 H 0.92506 0.61985 0.6792 0.0
H3543 H 0.8836 0.62194 0.67007 0.0
C3544 C 0.98749 0.591 0.68613 0.0
C3545 C 0.00613 0.59734 0.67143 0.0
C3546 C 0.96454 0.59116 0.6779 0.0
C3547 C 0.95957 0.59788 0.65478 0.0
C3548 C 0.97835 0.6025 0.63947 0.0
C3549 C 0.00153 0.60223 0.64776 0.0
C3550 C 0.90239 0.59401 0.62072 0.0
C3551 C 0.88645 0.60407 0.63666 0.0
C3552 C 0.92632 0.59267 0.62609 0.0
C3553 C 0.93476 0.60127 0.64753 0.0
C3554 C 0.91902 0.61248 0.6628 0.0
C3555 C 0.89522 0.61385 0.65746 0.0
H3556 H 0.0033 0.85479 0.6719 0.0
H3557 H 0.99358 0.92797 0.65587 0.0
H3558 H 0.04335 0.8567 0.65783 0.0
H3559 H 0.03436 0.93006 0.64193 0.0
H3560 H 0.10688 0.91827 0.60583 0.0
H3561 H 0.06464 0.91545 0.61262 0.0
H3562 H 0.07764 0.87551 0.67546 0.0
H3563 H 0.11953 0.8781 0.66871 0.0
C3564 C 0.00972 0.87129 0.66508 0.0
C3565 C 0.99547 0.89134 0.66528 0.0
C3566 C 0.03272 0.87239 0.65712 0.0
C3567 C 0.04221 0.89363 0.64928 0.0
C3568 C 0.02751 0.91343 0.64792 0.0
C3569 C 0.00421 0.91227 0.65584 0.0
C3570 C 0.1007 0.90863 0.62094 0.0
C3571 C 0.11666 0.89829 0.63667 0.0
C3572 C 0.07651 0.90722 0.62491 0.0
C3573 C 0.06778 0.8952 0.6445 0.0
C3574 C 0.08375 0.88462 0.65999 0.0
C3575 C 0.10783 0.88618 0.65616 0.0
H3576 H 0.89455 0.41653 0.89456 0.0
H3577 H 0.87974 0.38408 0.82782 0.0
H3578 H 0.93657 0.41401 0.88639 0.0
H3579 H 0.92144 0.38178 0.81973 0.0
H3580 H 0.99515 0.35714 0.82155 0.0
H3581 H 0.95508 0.35976 0.83515 0.0
H3582 H 0.96733 0.43072 0.85816 0.0
H3583 H 0.00822 0.42796 0.84451 0.0
C3584 C 0.9002 0.40869 0.87825 0.0
C3585 C 0.88368 0.40032 0.86192 0.0
C3586 C 0.92428 0.40748 0.87351 0.0
C3587 C 0.93236 0.39763 0.85247 0.0
C3588 C 0.91583 0.38919 0.83626 0.0
C3589 C 0.89186 0.39056 0.84088 0.0
C3590 C 0.98944 0.37332 0.82967 0.0
C3591 C 0.00474 0.39252 0.83157 0.0
C3592 C 0.9664 0.37481 0.8374 0.0
C3593 C 0.95783 0.3956 0.84723 0.0
C3594 C 0.97344 0.41446 0.85056 0.0
C3595 C 0.99681 0.41292 0.8428 0.0
H3596 H 0.11902 0.12402 0.83721 0.0
H3597 H 0.1067 0.0787 0.89653 0.0
H3598 H 0.07714 0.12598 0.83004 0.0
H3599 H 0.06447 0.08081 0.88929 0.0
H3600 H 0.99476 0.06947 0.84296 0.0
H3601 H 0.0352 0.06758 0.85794 0.0
H3602 H 0.04189 0.14232 0.84875 0.0
H3603 H 0.00215 0.14406 0.83369 0.0
C3604 C 0.10738 0.11466 0.8489 0.0
C3605 C 0.11631 0.1013 0.86752 0.0
C3606 C 0.08331 0.11584 0.84483 0.0
C3607 C 0.06744 0.10361 0.85916 0.0
C3608 C 0.07626 0.09034 0.87789 0.0
C3609 C 0.10044 0.08933 0.88214 0.0
C3610 C 0.00477 0.08547 0.8448 0.0
C3611 C 0.9955 0.10685 0.83699 0.0
C3612 C 0.02788 0.08443 0.85329 0.0
C3613 C 0.04189 0.10476 0.85405 0.0
C3614 C 0.0318 0.12628 0.84786 0.0
C3615 C 0.00898 0.12729 0.83938 0.0
H3616 H 0.66846 0.99826 0.64359 0.0
H3617 H 0.65933 0.0065 0.56903 0.0
H3618 H 0.65447 0.95819 0.64119 0.0
H3619 H 0.64527 0.96573 0.56654 0.0
H3620 H 0.60683 0.89363 0.57831 0.0
H3621 H 0.6138 0.93591 0.58034 0.0
H3622 H 0.67453 0.9236 0.6236 0.0
H3623 H 0.66768 0.88162 0.62165 0.0
C3624 C 0.66307 0.99154 0.62667 0.0
C3625 C 0.66524 0.00535 0.60642 0.0
C3626 C 0.65517 0.96854 0.62531 0.0
C3627 C 0.64928 0.95865 0.60363 0.0
C3628 C 0.64976 0.97293 0.58349 0.0
C3629 C 0.65771 0.99622 0.58488 0.0
C3630 C 0.62153 0.89998 0.58847 0.0
C3631 C 0.63663 0.88419 0.59997 0.0
C3632 C 0.62561 0.92417 0.58942 0.0
C3633 C 0.64463 0.93307 0.60218 0.0
C3634 C 0.65953 0.9173 0.61385 0.0
C3635 C 0.65564 0.8932 0.61269 0.0
H3636 H 0.70462 0.01434 0.91279 0.0
H3637 H 0.63627 0.99192 0.88982 0.0
H3638 H 0.69143 0.05477 0.9135 0.0
H3639 H 0.62294 0.03289 0.89004 0.0
H3640 H 0.60614 0.1105 0.91275 0.0
H3641 H 0.61508 0.0687 0.9137 0.0
H3642 H 0.6826 0.08261 0.88271 0.0
H3643 H 0.67396 0.12427 0.88213 0.0
C3644 C 0.68658 0.0181 0.90827 0.0
C3645 C 0.67147 1.00003 0.9012 0.0
C3646 C 0.67909 0.0413 0.90838 0.0
C3647 C 0.65633 0.04718 0.90118 0.0
C3648 C 0.64063 0.02896 0.89559 0.0
C3649 C 0.64816 0.00551 0.89562 0.0
C3650 C 0.6228 0.10464 0.90586 0.0
C3651 C 0.63943 0.1209 0.89757 0.0
C3652 C 0.62788 0.08062 0.9064 0.0
C3653 C 0.64972 0.07232 0.89872 0.0
C3654 C 0.66583 0.08845 0.88935 0.0
C3655 C 0.66079 0.11239 0.88882 0.0
H3656 H 0.34632 0.50645 0.92803 0.0
H3657 H 0.32453 0.49347 0.85685 0.0
H3658 H 0.36024 0.46574 0.93091 0.0
H3659 H 0.33874 0.45358 0.85943 0.0
H3660 H 0.33182 0.37814 0.88271 0.0
H3661 H 0.32391 0.4197 0.87967 0.0
H3662 H 0.38814 0.43504 0.91648 0.0
H3663 H 0.39599 0.39302 0.91996 0.0
C3664 C 0.34496 0.49508 0.91292 0.0
C3665 C 0.33395 0.50297 0.89239 0.0
C3666 C 0.35292 0.47181 0.91452 0.0
C3667 C 0.35012 0.45624 0.89554 0.0
C3668 C 0.34055 0.46482 0.8746 0.0
C3669 C 0.33249 0.48776 0.8731 0.0
C3670 C 0.34443 0.39026 0.89003 0.0
C3671 C 0.36462 0.3821 0.90148 0.0
C3672 C 0.33992 0.4142 0.8882 0.0
C3673 C 0.35547 0.43078 0.8977 0.0
C3674 C 0.37575 0.42273 0.90909 0.0
C3675 C 0.38033 0.39865 0.91089 0.0
H3676 H 0.83638 0.11935 0.12182 0.0
H3677 H 0.89654 0.10735 0.07754 0.0
H3678 H 0.82943 0.07737 0.12368 0.0
H3679 H 0.88942 0.06506 0.07943 0.0
H3680 H 0.8427 0.99497 0.06819 0.0
H3681 H 0.85737 0.03553 0.06586 0.0
H3682 H 0.84961 0.04246 0.14073 0.0
H3683 H 0.83502 0.00256 0.14296 0.0
C3684 C 0.84825 0.10776 0.11262 0.0
C3685 C 0.8671 0.11678 0.09967 0.0
C3686 C 0.8443 0.08366 0.11374 0.0
C3687 C 0.85895 0.06788 0.10176 0.0
C3688 C 0.87782 0.0768 0.08876 0.0
C3689 C 0.88197 0.10099 0.08788 0.0
C3690 C 0.84483 0.00503 0.08412 0.0
C3691 C 0.83755 0.99579 0.1057 0.0
C3692 C 0.85312 0.02821 0.08282 0.0
C3693 C 0.85415 0.04231 0.10308 0.0
C3694 C 0.84852 0.03227 0.12477 0.0
C3695 C 0.84031 0.00936 0.12604 0.0
H3696 H 0.38782 0.3267 0.12658 0.0
H3697 H 0.41639 0.39496 0.1107 0.0
H3698 H 0.38515 0.31817 0.08503 0.0
H3699 H 0.41342 0.38634 0.06879 0.0
H3700 H 0.42783 0.34512 0.99703 0.0
H3701 H 0.43079 0.35907 0.03779 0.0
H3702 H 0.36166 0.33191 0.05188 0.0
H3703 H 0.35888 0.31795 0.01195 0.0
C3704 C 0.39336 0.34 0.11426 0.0
C3705 C 0.40215 0.3616 0.1221 0.0
C3706 C 0.39177 0.33512 0.09037 0.0
C3707 C 0.39896 0.35164 0.07357 0.0
C3708 C 0.40786 0.37323 0.08129 0.0
C3709 C 0.40933 0.37821 0.10531 0.0
C3710 C 0.41322 0.34251 0.00883 0.0
C3711 C 0.39336 0.33002 0.00145 0.0
C3712 C 0.41488 0.35046 0.03212 0.0
C3713 C 0.39664 0.34609 0.0482 0.0
C3714 C 0.37628 0.33497 0.04019 0.0
C3715 C 0.37469 0.32702 0.01723 0.0
H3716 H 0.64728 0.17532 0.00495 0.0
H3717 H 0.57466 0.157 0.99503 0.0
H3718 H 0.64562 0.16151 0.0451 0.0
H3719 H 0.57289 0.14311 0.03587 0.0
H3720 H 0.58698 0.10626 0.10801 0.0
H3721 H 0.58905 0.11388 0.06591 0.0
H3722 H 0.62575 0.1785 0.07963 0.0
H3723 H 0.62379 0.17097 0.12153 0.0
C3724 C 0.63097 0.168 0.01133 0.0
C3725 C 0.61099 0.1675 0.99695 0.0
C3726 C 0.63001 0.16021 0.0344 0.0
C3727 C 0.60901 0.15173 0.04385 0.0
C3728 C 0.58933 0.14964 0.02906 0.0
C3729 C 0.59032 0.15748 0.0057 0.0
C3730 C 0.59571 0.12199 0.10205 0.0
C3731 C 0.60538 0.13793 0.11824 0.0
C3732 C 0.59668 0.12642 0.07792 0.0
C3733 C 0.60761 0.14673 0.06941 0.0
C3734 C 0.61746 0.16251 0.08558 0.0
C3735 C 0.61629 0.15823 0.10965 0.0
H3736 H 0.41227 0.60832 0.39309 0.0
H3737 H 0.37969 0.6752 0.37924 0.0
H3738 H 0.41023 0.61608 0.43516 0.0
H3739 H 0.37792 0.68293 0.42104 0.0
H3740 H 0.35579 0.68162 0.49544 0.0
H3741 H 0.35697 0.6681 0.45526 0.0
H3742 H 0.42773 0.64352 0.46549 0.0
H3743 H 0.42636 0.65698 0.50649 0.0
C3744 C 0.40446 0.62456 0.39897 0.0
C3745 C 0.39598 0.64108 0.38269 0.0
C3746 C 0.40353 0.62907 0.42309 0.0
C3747 C 0.39388 0.65007 0.43147 0.0
C3748 C 0.38518 0.66641 0.4152 0.0
C3749 C 0.38624 0.662 0.39118 0.0
C3750 C 0.37159 0.67317 0.48925 0.0
C3751 C 0.39116 0.67074 0.504 0.0
C3752 C 0.37227 0.66549 0.46616 0.0
C3753 C 0.39261 0.65524 0.45699 0.0
C3754 C 0.4118 0.65143 0.47207 0.0
C3755 C 0.41106 0.65909 0.49549 0.0
H3756 H 0.58394 0.89591 0.39353 0.0
H3757 H 0.62431 0.83346 0.37953 0.0
H3758 H 0.58292 0.88584 0.43516 0.0
H3759 H 0.62363 0.82376 0.42091 0.0
H3760 H 0.5935 0.79525 0.48655 0.0
H3761 H 0.59272 0.80988 0.44666 0.0
H3762 H 0.60636 0.87985 0.47189 0.0
H3763 H 0.60667 0.86503 0.51234 0.0
C3764 C 0.59298 0.88029 0.39934 0.0
C3765 C 0.60398 0.86534 0.38308 0.0
C3766 C 0.59237 0.87454 0.42322 0.0
C3767 C 0.60273 0.85374 0.43128 0.0
C3768 C 0.61488 0.83958 0.41519 0.0
C3769 C 0.61544 0.84525 0.39144 0.0
C3770 C 0.59593 0.81384 0.48365 0.0
C3771 C 0.60032 0.82898 0.50252 0.0
C3772 C 0.59572 0.8222 0.46076 0.0
C3773 C 0.60016 0.84592 0.45602 0.0
C3774 C 0.60301 0.86145 0.47498 0.0
C3775 C 0.60306 0.85303 0.49811 0.0
H3776 H 0.99288 0.42788 0.34611 0.0
H3777 H 0.00365 0.35502 0.32936 0.0
H3778 H 0.03366 0.43043 0.36005 0.0
H3779 H 0.04371 0.35739 0.34335 0.0
H3780 H 0.11944 0.38006 0.33209 0.0
H3781 H 0.07753 0.3774 0.32538 0.0
H3782 H 0.06446 0.41541 0.38939 0.0
H3783 H 0.10675 0.41823 0.39619 0.0
C3784 C 0.00373 0.41233 0.34601 0.0
C3785 C 0.99527 0.39135 0.33637 0.0
C3786 C 0.02704 0.41376 0.35391 0.0
C3787 C 0.04204 0.39421 0.35229 0.0
C3788 C 0.03284 0.3729 0.34428 0.0
C3789 C 0.00983 0.37153 0.33638 0.0
C3790 C 0.10772 0.38773 0.34488 0.0
C3791 C 0.11655 0.39923 0.36475 0.0
C3792 C 0.08364 0.38613 0.34107 0.0
C3793 C 0.06763 0.3961 0.35693 0.0
C3794 C 0.07635 0.40764 0.37683 0.0
C3795 C 0.10057 0.40906 0.38079 0.0
H3796 H 0.99789 0.14362 0.32891 0.0
H3797 H 0.00636 0.07 0.34353 0.0
H3798 H 0.95786 0.1422 0.34314 0.0
H3799 H 0.96563 0.06846 0.35785 0.0
H3800 H 0.89381 0.08242 0.39565 0.0
H3801 H 0.93599 0.08422 0.38825 0.0
H3802 H 0.92302 0.12342 0.32497 0.0
H3803 H 0.88107 0.12169 0.33225 0.0
C3804 C 0.99122 0.12715 0.33557 0.0
C3805 C 0.00511 0.10685 0.33491 0.0
C3806 C 0.96823 0.12633 0.34359 0.0
C3807 C 0.9584 0.10513 0.35113 0.0
C3808 C 0.97276 0.08505 0.35209 0.0
C3809 C 0.99604 0.0859 0.344 0.0
C3810 C 0.89997 0.09167 0.38029 0.0
C3811 C 0.88399 0.10207 0.36461 0.0
C3812 C 0.92413 0.09247 0.37598 0.0
C3813 C 0.93284 0.104 0.35609 0.0
C3814 C 0.91689 0.11464 0.34063 0.0
C3815 C 0.8928 0.11361 0.34477 0.0
H3816 H 0.10576 0.58985 0.10212 0.0
H3817 H 0.11782 0.61671 0.17185 0.0
H3818 H 0.06373 0.58759 0.11038 0.0
H3819 H 0.07614 0.61461 0.17985 0.0
H3820 H 0.00872 0.58195 0.19946 0.0
H3821 H 0.04906 0.58154 0.18585 0.0
H3822 H 0.0273 0.61177 0.12007 0.0
H3823 H 0.98643 0.61183 0.1338 0.0
C3824 C 0.09948 0.59561 0.11906 0.0
C3825 C 0.11532 0.60326 0.13639 0.0
C3826 C 0.07538 0.59429 0.12376 0.0
C3827 C 0.06664 0.60045 0.14592 0.0
C3828 C 0.08235 0.60915 0.16278 0.0
C3829 C 0.1063 0.61054 0.15811 0.0
C3830 C 0.01244 0.58791 0.18183 0.0
C3831 C 0.99448 0.59692 0.16768 0.0
C3832 C 0.03559 0.58795 0.17414 0.0
C3833 C 0.04149 0.59722 0.15213 0.0
C3834 C 0.02331 0.6046 0.13716 0.0
C3835 C 0.99992 0.60447 0.14491 0.0
H3836 H 0.0061 0.9284 0.15592 0.0
H3837 H 0.99623 0.85516 0.17147 0.0
H3838 H 0.96531 0.93058 0.1419 0.0
H3839 H 0.95624 0.85716 0.15738 0.0
H3840 H 0.88017 0.87896 0.16911 0.0
H3841 H 0.92216 0.87679 0.17592 0.0
H3842 H 0.93492 0.91506 0.11203 0.0
H3843 H 0.89269 0.91735 0.10511 0.0
C3844 C 0.99549 0.91269 0.15567 0.0
C3845 C 0.0042 0.89167 0.16496 0.0
C3846 C 0.97217 0.91391 0.14775 0.0
C3847 C 0.95745 0.89412 0.14905 0.0
C3848 C 0.96692 0.87282 0.15667 0.0
C3849 C 0.98991 0.87164 0.16458 0.0
C3850 C 0.89185 0.88675 0.15637 0.0
C3851 C 0.88298 0.89817 0.13649 0.0
C3852 C 0.91596 0.88547 0.16024 0.0
C3853 C 0.93187 0.89569 0.14444 0.0
C3854 C 0.92309 0.90712 0.12454 0.0
C3855 C 0.8989 0.90821 0.12051 0.0
H3856 H 0.36706 0.98815 0.39414 0.0
H3857 H 0.2976 0.01297 0.41043 0.0
H3858 H 0.38147 0.0288 0.39459 0.0
H3859 H 0.3118 0.05302 0.41119 0.0
H3860 H 0.33358 0.12061 0.37872 0.0
H3861 H 0.32445 0.07909 0.37952 0.0
H3862 H 0.38752 0.06559 0.41888 0.0
H3863 H 0.39697 0.10736 0.41787 0.0
C3864 C 0.35507 0.00219 0.39848 0.0
C3865 C 0.33119 0.99747 0.40206 0.0
C3866 C 0.36325 0.02543 0.39859 0.0
C3867 C 0.34762 0.04418 0.40229 0.0
C3868 C 0.32416 0.0391 0.40756 0.0
C3869 C 0.31606 0.01611 0.40736 0.0
C3870 C 0.34571 0.10886 0.38733 0.0
C3871 C 0.3659 0.11749 0.39843 0.0
C3872 C 0.34038 0.08501 0.38794 0.0
C3873 C 0.35501 0.06907 0.39971 0.0
C3874 C 0.37587 0.07741 0.40973 0.0
C3875 C 0.38124 0.10138 0.40914 0.0
H3876 H 0.39698 0.89604 0.08352 0.0
H3877 H 0.33328 0.88258 0.12208 0.0
H3878 H 0.38766 0.93788 0.0829 0.0
H3879 H 0.3243 0.92411 0.12174 0.0
H3880 H 0.29784 0.99094 0.09244 0.0
H3881 H 0.31177 0.95082 0.09099 0.0
H3882 H 0.38177 0.97436 0.10719 0.0
H3883 H 0.36765 0.01509 0.10823 0.0
C3884 C 0.38121 0.90199 0.0922 0.0
C3885 C 0.36575 0.88581 0.10263 0.0
C3886 C 0.3759 0.92599 0.09183 0.0
C3887 C 0.35501 0.93429 0.10183 0.0
C3888 C 0.34024 0.91825 0.1133 0.0
C3889 C 0.34549 0.89438 0.11365 0.0
C3890 C 0.31631 0.98764 0.09529 0.0
C3891 C 0.33163 0.00611 0.10062 0.0
C3892 C 0.32426 0.9646 0.09469 0.0
C3893 C 0.34775 0.95928 0.09964 0.0
C3894 C 0.36353 0.97788 0.10342 0.0
C3895 C 0.35551 0.00118 0.10389 0.0
H3896 H 0.66493 0.6179 0.12569 0.0
H3897 H 0.60567 0.60699 0.07993 0.0
H3898 H 0.67133 0.5758 0.12732 0.0
H3899 H 0.6122 0.56466 0.0816 0.0
H3900 H 0.65814 0.49454 0.0698 0.0
H3901 H 0.6438 0.53522 0.06816 0.0
H3902 H 0.65103 0.54063 0.14322 0.0
H3903 H 0.66534 0.50057 0.14476 0.0
C3904 C 0.65312 0.60654 0.11615 0.0
C3905 C 0.63472 0.6159 0.1028 0.0
C3906 C 0.65674 0.58236 0.11713 0.0
C3907 C 0.6422 0.56688 0.10464 0.0
C3908 C 0.62373 0.57615 0.09133 0.0
C3909 C 0.61991 0.60039 0.09057 0.0
C3910 C 0.65592 0.50428 0.08592 0.0
C3911 C 0.66296 0.49456 0.10736 0.0
C3912 C 0.64784 0.52754 0.08502 0.0
C3913 C 0.64678 0.54125 0.10555 0.0
C3914 C 0.65215 0.53074 0.12707 0.0
C3915 C 0.66017 0.50774 0.12795 0.0
H3916 H 0.17636 0.99401 0.85799 0.0
H3917 H 0.15754 0.00481 0.93039 0.0
H3918 H 0.16311 0.95376 0.86019 0.0
H3919 H 0.14426 0.96378 0.93271 0.0
H3920 H 0.10791 0.89122 0.91927 0.0
H3921 H 0.11543 0.93333 0.91698 0.0
H3922 H 0.18003 0.9196 0.88027 0.0
H3923 H 0.17259 0.87773 0.88237 0.0
C3924 C 0.16916 0.98777 0.8744 0.0
C3925 C 0.16833 0.00246 0.89416 0.0
C3926 C 0.16166 0.96463 0.87566 0.0
C3927 C 0.15315 0.95539 0.89675 0.0
C3928 C 0.15082 0.97043 0.91622 0.0
C3929 C 0.15835 0.99387 0.91492 0.0
C3930 C 0.12362 0.89719 0.91049 0.0
C3931 C 0.13957 0.881 0.90083 0.0
C3932 C 0.12799 0.92133 0.9094 0.0
C3933 C 0.14826 0.92983 0.8984 0.0
C3934 C 0.16407 0.91366 0.88861 0.0
C3935 C 0.15983 0.8896 0.88985 0.0
loop_
_geom_bond_atom_site_label_1
_geom_bond_atom_site_label_2
_geom_bond_distance
_geom_bond_site_symmetry_2
_ccdc_geom_bond_type
Sc0 O3 2.025 . S
Sc0 O10 2.105 . S
Sc0 O13 2.105 . S
Sc0 O16 2.105 . S
Sc0 O19 2.105 . S
Sc1 O3 2.025 . S
Sc1 O11 2.105 . S
Sc1 O15 2.105 . S
Sc1 O17 2.105 . S
Sc1 O21 2.105 . S
Sc2 O3 2.025 . S
Sc2 O12 2.105 . S
Sc2 O14 2.105 . S
Sc2 O18 2.105 . S
Sc2 O20 2.105 . S
O3 Sc0 2.025 . S
O3 Sc1 2.025 . S
O3 Sc2 2.025 . S
C4 O10 1.268 . S
C4 O20 1.268 . S
C5 O11 1.268 . S
C5 O19 1.268 . S
C6 O12 1.268 . S
C6 O21 1.268 . S
C7 O13 1.268 . S
C7 O17 1.268 . S
C8 O14 1.268 . S
C8 O16 1.268 . S
C9 O15 1.268 . S
C9 O18 1.268 . S
O10 Sc0 2.105 . S
O10 C4 1.268 . S
O11 Sc1 2.105 . S
O11 C5 1.268 . S
O12 Sc2 2.105 . S
O12 C6 1.268 . S
O13 Sc0 2.105 . S
O13 C7 1.268 . S
O14 Sc2 2.105 . S
O14 C8 1.268 . S
O15 Sc1 2.105 . S
O15 C9 1.268 . S
O16 Sc0 2.105 . S
O16 C8 1.268 . S
O17 Sc1 2.105 . S
O17 C7 1.268 . S
O18 Sc2 2.105 . S
O18 C9 1.268 . S
O19 Sc0 2.105 . S
O19 C5 1.268 . S
O20 Sc2 2.105 . S
O20 C4 1.268 . S
O21 Sc1 2.105 . S
O21 C6 1.268 . S
Sc22 O25 2.025 . S
Sc22 O32 2.105 . S
Sc22 O35 2.105 . S
Sc22 O38 2.105 . S
Sc22 O41 2.105 . S
Sc23 O25 2.025 . S
Sc23 O33 2.105 . S
Sc23 O37 2.105 . S
Sc23 O39 2.105 . S
Sc23 O43 2.105 . S
Sc24 O25 2.025 . S
Sc24 O34 2.105 . S
Sc24 O36 2.105 . S
Sc24 O40 2.105 . S
Sc24 O42 2.105 . S
O25 Sc22 2.025 . S
O25 Sc23 2.025 . S
O25 Sc24 2.025 . S
C26 O32 1.268 . S
C26 O42 1.268 . S
C27 O33 1.268 . S
C27 O41 1.268 . S
C28 O34 1.268 . S
C28 O43 1.268 . S
C29 O35 1.268 . S
C29 O39 1.268 . S
C30 O36 1.268 . S
C30 O38 1.268 . S
C31 O37 1.268 . S
C31 O40 1.268 . S
O32 Sc22 2.105 . S
O32 C26 1.268 . S
O33 Sc23 2.105 . S
O33 C27 1.268 . S
O34 Sc24 2.105 . S
O34 C28 1.268 . S
O35 Sc22 2.105 . S
O35 C29 1.268 . S
O36 Sc24 2.105 . S
O36 C30 1.268 . S
O37 Sc23 2.105 . S
O37 C31 1.268 . S
O38 Sc22 2.105 . S
O38 C30 1.268 . S
O39 Sc23 2.105 . S
O39 C29 1.268 . S
O40 Sc24 2.105 . S
O40 C31 1.268 . S
O41 Sc22 2.105 . S
O41 C27 1.268 . S
O42 Sc24 2.105 . S
O42 C26 1.268 . S
O43 Sc23 2.105 . S
O43 C28 1.268 . S
Sc44 O47 2.025 . S
Sc44 O54 2.105 . S
Sc44 O57 2.105 . S
Sc44 O60 2.105 . S
Sc44 O63 2.105 . S
Sc45 O47 2.025 . S
Sc45 O55 2.105 . S
Sc45 O59 2.105 . S
Sc45 O61 2.105 . S
Sc45 O65 2.105 . S
Sc46 O47 2.025 . S
Sc46 O56 2.105 . S
Sc46 O58 2.105 . S
Sc46 O62 2.105 . S
Sc46 O64 2.105 . S
O47 Sc44 2.025 . S
O47 Sc45 2.025 . S
O47 Sc46 2.025 . S
C48 O54 1.268 . S
C48 O64 1.268 . S
C49 O55 1.268 . S
C49 O63 1.268 . S
C50 O56 1.268 . S
C50 O65 1.268 . S
C51 O57 1.268 . S
C51 O61 1.268 . S
C52 O58 1.268 . S
C52 O60 1.268 . S
C53 O59 1.268 . S
C53 O62 1.268 . S
O54 Sc44 2.105 . S
O54 C48 1.268 . S
O55 Sc45 2.105 . S
O55 C49 1.268 . S
O56 Sc46 2.105 . S
O56 C50 1.268 . S
O57 Sc44 2.105 . S
O57 C51 1.268 . S
O58 Sc46 2.105 . S
O58 C52 1.268 . S
O59 Sc45 2.105 . S
O59 C53 1.268 . S
O60 Sc44 2.105 . S
O60 C52 1.268 . S
O61 Sc45 2.105 . S
O61 C51 1.268 . S
O62 Sc46 2.105 . S
O62 C53 1.268 . S
O63 Sc44 2.105 . S
O63 C49 1.268 . S
O64 Sc46 2.105 . S
O64 C48 1.268 . S
O65 Sc45 2.105 . S
O65 C50 1.268 . S
Sc66 O69 2.025 . S
Sc66 O76 2.105 . S
Sc66 O79 2.105 . S
Sc66 O82 2.105 . S
Sc66 O85 2.105 . S
Sc67 O69 2.025 . S
Sc67 O77 2.105 . S
Sc67 O81 2.105 . S
Sc67 O83 2.105 . S
Sc67 O87 2.105 . S
Sc68 O69 2.025 . S
Sc68 O78 2.105 . S
Sc68 O80 2.105 . S
Sc68 O84 2.105 . S
Sc68 O86 2.105 . S
O69 Sc66 2.025 . S
O69 Sc67 2.025 . S
O69 Sc68 2.025 . S
C70 O76 1.268 . S
C70 O86 1.268 . S
C71 O77 1.268 . S
C71 O85 1.268 . S
C72 O78 1.268 . S
C72 O87 1.268 . S
C73 O79 1.268 . S
C73 O83 1.268 . S
C74 O80 1.268 . S
C74 O82 1.268 . S
C75 O81 1.268 . S
C75 O84 1.268 . S
O76 Sc66 2.105 . S
O76 C70 1.268 . S
O77 Sc67 2.105 . S
O77 C71 1.268 . S
O78 Sc68 2.105 . S
O78 C72 1.268 . S
O79 Sc66 2.105 . S
O79 C73 1.268 . S
O80 Sc68 2.105 . S
O80 C74 1.268 . S
O81 Sc67 2.105 . S
O81 C75 1.268 . S
O82 Sc66 2.105 . S
O82 C74 1.268 . S
O83 Sc67 2.105 . S
O83 C73 1.268 . S
O84 Sc68 2.105 . S
O84 C75 1.268 . S
O85 Sc66 2.105 . S
O85 C71 1.268 . S
O86 Sc68 2.105 . S
O86 C70 1.268 . S
O87 Sc67 2.105 . S
O87 C72 1.268 . S
Sc88 O91 2.025 . S
Sc88 O98 2.105 . S
Sc88 O101 2.105 . S
Sc88 O104 2.105 . S
Sc88 O107 2.105 . S
Sc89 O91 2.025 . S
Sc89 O99 2.105 . S
Sc89 O103 2.105 . S
Sc89 O105 2.105 . S
Sc89 O109 2.105 . S
Sc90 O91 2.025 . S
Sc90 O100 2.105 . S
Sc90 O102 2.105 . S
Sc90 O106 2.105 . S
Sc90 O108 2.105 . S
O91 Sc88 2.025 . S
O91 Sc89 2.025 . S
O91 Sc90 2.025 . S
C92 O98 1.268 . S
C92 O108 1.268 . S
C93 O99 1.268 . S
C93 O107 1.268 . S
C94 O100 1.268 . S
C94 O109 1.268 . S
C95 O101 1.268 . S
C95 O105 1.268 . S
C96 O102 1.268 . S
C96 O104 1.268 . S
C97 O103 1.268 . S
C97 O106 1.268 . S
O98 Sc88 2.105 . S
O98 C92 1.268 . S
O99 Sc89 2.105 . S
O99 C93 1.268 . S
O100 Sc90 2.105 . S
O100 C94 1.268 . S
O101 Sc88 2.105 . S
O101 C95 1.268 . S
O102 Sc90 2.105 . S
O102 C96 1.268 . S
O103 Sc89 2.105 . S
O103 C97 1.268 . S
O104 Sc88 2.105 . S
O104 C96 1.268 . S
O105 Sc89 2.105 . S
O105 C95 1.268 . S
O106 Sc90 2.105 . S
O106 C97 1.268 . S
O107 Sc88 2.105 . S
O107 C93 1.268 . S
O108 Sc90 2.105 . S
O108 C92 1.268 . S
O109 Sc89 2.105 . S
O109 C94 1.268 . S
Sc110 O113 2.025 . S
Sc110 O120 2.105 . S
Sc110 O123 2.105 . S
Sc110 O126 2.105 . S
Sc110 O129 2.105 . S
Sc111 O113 2.025 . S
Sc111 O121 2.105 . S
Sc111 O125 2.105 . S
Sc111 O127 2.105 . S
Sc111 O131 2.105 . S
Sc112 O113 2.025 . S
Sc112 O122 2.105 . S
Sc112 O124 2.105 . S
Sc112 O128 2.105 . S
Sc112 O130 2.105 . S
O113 Sc110 2.025 . S
O113 Sc111 2.025 . S
O113 Sc112 2.025 . S
C114 O120 1.268 . S
C114 O130 1.268 . S
C115 O121 1.268 . S
C115 O129 1.268 . S
C116 O122 1.268 . S
C116 O131 1.268 . S
C117 O123 1.268 . S
C117 O127 1.268 . S
C118 O124 1.268 . S
C118 O126 1.268 . S
C119 O125 1.268 . S
C119 O128 1.268 . S
O120 Sc110 2.105 . S
O120 C114 1.268 . S
O121 Sc111 2.105 . S
O121 C115 1.268 . S
O122 Sc112 2.105 . S
O122 C116 1.268 . S
O123 Sc110 2.105 . S
O123 C117 1.268 . S
O124 Sc112 2.105 . S
O124 C118 1.268 . S
O125 Sc111 2.105 . S
O125 C119 1.268 . S
O126 Sc110 2.105 . S
O126 C118 1.268 . S
O127 Sc111 2.105 . S
O127 C117 1.268 . S
O128 Sc112 2.105 . S
O128 C119 1.268 . S
O129 Sc110 2.105 . S
O129 C115 1.268 . S
O130 Sc112 2.105 . S
O130 C114 1.268 . S
O131 Sc111 2.105 . S
O131 C116 1.268 . S
Sc132 O135 2.025 . S
Sc132 O142 2.105 . S
Sc132 O145 2.105 . S
Sc132 O148 2.105 . S
Sc132 O151 2.105 . S
Sc133 O135 2.025 . S
Sc133 O143 2.105 . S
Sc133 O147 2.105 . S
Sc133 O149 2.105 . S
Sc133 O153 2.105 . S
Sc134 O135 2.025 . S
Sc134 O144 2.105 . S
Sc134 O146 2.105 . S
Sc134 O150 2.105 . S
Sc134 O152 2.105 . S
O135 Sc132 2.025 . S
O135 Sc133 2.025 . S
O135 Sc134 2.025 . S
C136 O142 1.268 . S
C136 O152 1.268 . S
C137 O143 1.268 . S
C137 O151 1.268 . S
C138 O144 1.268 . S
C138 O153 1.268 . S
C139 O145 1.268 . S
C139 O149 1.268 . S
C140 O146 1.268 . S
C140 O148 1.268 . S
C141 O147 1.268 . S
C141 O150 1.268 . S
O142 Sc132 2.105 . S
O142 C136 1.268 . S
O143 Sc133 2.105 . S
O143 C137 1.268 . S
O144 Sc134 2.105 . S
O144 C138 1.268 . S
O145 Sc132 2.105 . S
O145 C139 1.268 . S
O146 Sc134 2.105 . S
O146 C140 1.268 . S
O147 Sc133 2.105 . S
O147 C141 1.268 . S
O148 Sc132 2.105 . S
O148 C140 1.268 . S
O149 Sc133 2.105 . S
O149 C139 1.268 . S
O150 Sc134 2.105 . S
O150 C141 1.268 . S
O151 Sc132 2.105 . S
O151 C137 1.268 . S
O152 Sc134 2.105 . S
O152 C136 1.268 . S
O153 Sc133 2.105 . S
O153 C138 1.268 . S
Sc154 O157 2.025 . S
Sc154 O164 2.105 . S
Sc154 O167 2.105 . S
Sc154 O170 2.105 . S
Sc154 O173 2.105 . S
Sc155 O157 2.025 . S
Sc155 O165 2.105 . S
Sc155 O169 2.105 . S
Sc155 O171 2.105 . S
Sc155 O175 2.105 . S
Sc156 O157 2.025 . S
Sc156 O166 2.105 . S
Sc156 O168 2.105 . S
Sc156 O172 2.105 . S
Sc156 O174 2.105 . S
O157 Sc154 2.025 . S
O157 Sc155 2.025 . S
O157 Sc156 2.025 . S
C158 O164 1.268 . S
C158 O174 1.268 . S
C159 O165 1.268 . S
C159 O173 1.268 . S
C160 O166 1.268 . S
C160 O175 1.268 . S
C161 O167 1.268 . S
C161 O171 1.268 . S
C162 O168 1.268 . S
C162 O170 1.268 . S
C163 O169 1.268 . S
C163 O172 1.268 . S
O164 Sc154 2.105 . S
O164 C158 1.268 . S
O165 Sc155 2.105 . S
O165 C159 1.268 . S
O166 Sc156 2.105 . S
O166 C160 1.268 . S
O167 Sc154 2.105 . S
O167 C161 1.268 . S
O168 Sc156 2.105 . S
O168 C162 1.268 . S
O169 Sc155 2.105 . S
O169 C163 1.268 . S
O170 Sc154 2.105 . S
O170 C162 1.268 . S
O171 Sc155 2.105 . S
O171 C161 1.268 . S
O172 Sc156 2.105 . S
O172 C163 1.268 . S
O173 Sc154 2.105 . S
O173 C159 1.268 . S
O174 Sc156 2.105 . S
O174 C158 1.268 . S
O175 Sc155 2.105 . S
O175 C160 1.268 . S
Sc176 O179 2.025 . S
Sc176 O186 2.105 . S
Sc176 O189 2.105 . S
Sc176 O192 2.105 . S
Sc176 O195 2.105 . S
Sc177 O179 2.025 . S
Sc177 O187 2.105 . S
Sc177 O191 2.105 . S
Sc177 O193 2.105 . S
Sc177 O197 2.105 . S
Sc178 O179 2.025 . S
Sc178 O188 2.105 . S
Sc178 O190 2.105 . S
Sc178 O194 2.105 . S
Sc178 O196 2.105 . S
O179 Sc176 2.025 . S
O179 Sc177 2.025 . S
O179 Sc178 2.025 . S
C180 O186 1.268 . S
C180 O196 1.268 . S
C181 O187 1.268 . S
C181 O195 1.268 . S
C182 O188 1.268 . S
C182 O197 1.268 . S
C183 O189 1.268 . S
C183 O193 1.268 . S
C184 O190 1.268 . S
C184 O192 1.268 . S
C185 O191 1.268 . S
C185 O194 1.268 . S
O186 Sc176 2.105 . S
O186 C180 1.268 . S
O187 Sc177 2.105 . S
O187 C181 1.268 . S
O188 Sc178 2.105 . S
O188 C182 1.268 . S
O189 Sc176 2.105 . S
O189 C183 1.268 . S
O190 Sc178 2.105 . S
O190 C184 1.268 . S
O191 Sc177 2.105 . S
O191 C185 1.268 . S
O192 Sc176 2.105 . S
O192 C184 1.268 . S
O193 Sc177 2.105 . S
O193 C183 1.268 . S
O194 Sc178 2.105 . S
O194 C185 1.268 . S
O195 Sc176 2.105 . S
O195 C181 1.268 . S
O196 Sc178 2.105 . S
O196 C180 1.268 . S
O197 Sc177 2.105 . S
O197 C182 1.268 . S
Sc198 O201 2.025 . S
Sc198 O208 2.105 . S
Sc198 O211 2.105 . S
Sc198 O214 2.105 . S
Sc198 O217 2.105 . S
Sc199 O201 2.025 . S
Sc199 O209 2.105 . S
Sc199 O213 2.105 . S
Sc199 O215 2.105 . S
Sc199 O219 2.105 . S
Sc200 O201 2.025 . S
Sc200 O210 2.105 . S
Sc200 O212 2.105 . S
Sc200 O216 2.105 . S
Sc200 O218 2.105 . S
O201 Sc198 2.025 . S
O201 Sc199 2.025 . S
O201 Sc200 2.025 . S
C202 O208 1.268 . S
C202 O218 1.268 . S
C203 O209 1.268 . S
C203 O217 1.268 . S
C204 O210 1.268 . S
C204 O219 1.268 . S
C205 O211 1.268 . S
C205 O215 1.268 . S
C206 O212 1.268 . S
C206 O214 1.268 . S
C207 O213 1.268 . S
C207 O216 1.268 . S
O208 Sc198 2.105 . S
O208 C202 1.268 . S
O209 Sc199 2.105 . S
O209 C203 1.268 . S
O210 Sc200 2.105 . S
O210 C204 1.268 . S
O211 Sc198 2.105 . S
O211 C205 1.268 . S
O212 Sc200 2.105 . S
O212 C206 1.268 . S
O213 Sc199 2.105 . S
O213 C207 1.268 . S
O214 Sc198 2.105 . S
O214 C206 1.268 . S
O215 Sc199 2.105 . S
O215 C205 1.268 . S
O216 Sc200 2.105 . S
O216 C207 1.268 . S
O217 Sc198 2.105 . S
O217 C203 1.268 . S
O218 Sc200 2.105 . S
O218 C202 1.268 . S
O219 Sc199 2.105 . S
O219 C204 1.268 . S
Sc220 O223 2.025 . S
Sc220 O230 2.105 . S
Sc220 O233 2.105 . S
Sc220 O236 2.105 . S
Sc220 O239 2.105 . S
Sc221 O223 2.025 . S
Sc221 O231 2.105 . S
Sc221 O235 2.105 . S
Sc221 O237 2.105 . S
Sc221 O241 2.105 . S
Sc222 O223 2.025 . S
Sc222 O232 2.105 . S
Sc222 O234 2.105 . S
Sc222 O238 2.105 . S
Sc222 O240 2.105 . S
O223 Sc220 2.025 . S
O223 Sc221 2.025 . S
O223 Sc222 2.025 . S
C224 O230 1.268 . S
C224 O240 1.268 . S
C225 O231 1.268 . S
C225 O239 1.268 . S
C226 O232 1.268 . S
C226 O241 1.268 . S
C227 O233 1.268 . S
C227 O237 1.268 . S
C228 O234 1.268 . S
C228 O236 1.268 . S
C229 O235 1.268 . S
C229 O238 1.268 . S
O230 Sc220 2.105 . S
O230 C224 1.268 . S
O231 Sc221 2.105 . S
O231 C225 1.268 . S
O232 Sc222 2.105 . S
O232 C226 1.268 . S
O233 Sc220 2.105 . S
O233 C227 1.268 . S
O234 Sc222 2.105 . S
O234 C228 1.268 . S
O235 Sc221 2.105 . S
O235 C229 1.268 . S
O236 Sc220 2.105 . S
O236 C228 1.268 . S
O237 Sc221 2.105 . S
O237 C227 1.268 . S
O238 Sc222 2.105 . S
O238 C229 1.268 . S
O239 Sc220 2.105 . S
O239 C225 1.268 . S
O240 Sc222 2.105 . S
O240 C224 1.268 . S
O241 Sc221 2.105 . S
O241 C226 1.268 . S
Sc242 O245 2.025 . S
Sc242 O252 2.105 . S
Sc242 O255 2.105 . S
Sc242 O258 2.105 . S
Sc242 O261 2.105 . S
Sc243 O245 2.025 . S
Sc243 O253 2.105 . S
Sc243 O257 2.105 . S
Sc243 O259 2.105 . S
Sc243 O263 2.105 . S
Sc244 O245 2.025 . S
Sc244 O254 2.105 . S
Sc244 O256 2.105 . S
Sc244 O260 2.105 . S
Sc244 O262 2.105 . S
O245 Sc242 2.025 . S
O245 Sc243 2.025 . S
O245 Sc244 2.025 . S
C246 O252 1.268 . S
C246 O262 1.268 . S
C247 O253 1.268 . S
C247 O261 1.268 . S
C248 O254 1.268 . S
C248 O263 1.268 . S
C249 O255 1.268 . S
C249 O259 1.268 . S
C250 O256 1.268 . S
C250 O258 1.268 . S
C251 O257 1.268 . S
C251 O260 1.268 . S
O252 Sc242 2.105 . S
O252 C246 1.268 . S
O253 Sc243 2.105 . S
O253 C247 1.268 . S
O254 Sc244 2.105 . S
O254 C248 1.268 . S
O255 Sc242 2.105 . S
O255 C249 1.268 . S
O256 Sc244 2.105 . S
O256 C250 1.268 . S
O257 Sc243 2.105 . S
O257 C251 1.268 . S
O258 Sc242 2.105 . S
O258 C250 1.268 . S
O259 Sc243 2.105 . S
O259 C249 1.268 . S
O260 Sc244 2.105 . S
O260 C251 1.268 . S
O261 Sc242 2.105 . S
O261 C247 1.268 . S
O262 Sc244 2.105 . S
O262 C246 1.268 . S
O263 Sc243 2.105 . S
O263 C248 1.268 . S
Sc264 O267 2.025 . S
Sc264 O274 2.105 . S
Sc264 O277 2.105 . S
Sc264 O280 2.105 . S
Sc264 O283 2.105 . S
Sc265 O267 2.025 . S
Sc265 O275 2.105 . S
Sc265 O279 2.105 . S
Sc265 O281 2.105 . S
Sc265 O285 2.105 . S
Sc266 O267 2.025 . S
Sc266 O276 2.105 . S
Sc266 O278 2.105 . S
Sc266 O282 2.105 . S
Sc266 O284 2.105 . S
O267 Sc264 2.025 . S
O267 Sc265 2.025 . S
O267 Sc266 2.025 . S
C268 O274 1.268 . S
C268 O284 1.268 . S
C269 O275 1.268 . S
C269 O283 1.268 . S
C270 O276 1.268 . S
C270 O285 1.268 . S
C271 O277 1.268 . S
C271 O281 1.268 . S
C272 O278 1.268 . S
C272 O280 1.268 . S
C273 O279 1.268 . S
C273 O282 1.268 . S
O274 Sc264 2.105 . S
O274 C268 1.268 . S
O275 Sc265 2.105 . S
O275 C269 1.268 . S
O276 Sc266 2.105 . S
O276 C270 1.268 . S
O277 Sc264 2.105 . S
O277 C271 1.268 . S
O278 Sc266 2.105 . S
O278 C272 1.268 . S
O279 Sc265 2.105 . S
O279 C273 1.268 . S
O280 Sc264 2.105 . S
O280 C272 1.268 . S
O281 Sc265 2.105 . S
O281 C271 1.268 . S
O282 Sc266 2.105 . S
O282 C273 1.268 . S
O283 Sc264 2.105 . S
O283 C269 1.268 . S
O284 Sc266 2.105 . S
O284 C268 1.268 . S
O285 Sc265 2.105 . S
O285 C270 1.268 . S
Sc286 O289 2.025 . S
Sc286 O296 2.105 . S
Sc286 O299 2.105 . S
Sc286 O302 2.105 . S
Sc286 O305 2.105 . S
Sc287 O289 2.025 . S
Sc287 O297 2.105 . S
Sc287 O301 2.105 . S
Sc287 O303 2.105 . S
Sc287 O307 2.105 . S
Sc288 O289 2.025 . S
Sc288 O298 2.105 . S
Sc288 O300 2.105 . S
Sc288 O304 2.105 . S
Sc288 O306 2.105 . S
O289 Sc286 2.025 . S
O289 Sc287 2.025 . S
O289 Sc288 2.025 . S
C290 O296 1.268 . S
C290 O306 1.268 . S
C291 O297 1.268 . S
C291 O305 1.268 . S
C292 O298 1.268 . S
C292 O307 1.268 . S
C293 O299 1.268 . S
C293 O303 1.268 . S
C294 O300 1.268 . S
C294 O302 1.268 . S
C295 O301 1.268 . S
C295 O304 1.268 . S
O296 Sc286 2.105 . S
O296 C290 1.268 . S
O297 Sc287 2.105 . S
O297 C291 1.268 . S
O298 Sc288 2.105 . S
O298 C292 1.268 . S
O299 Sc286 2.105 . S
O299 C293 1.268 . S
O300 Sc288 2.105 . S
O300 C294 1.268 . S
O301 Sc287 2.105 . S
O301 C295 1.268 . S
O302 Sc286 2.105 . S
O302 C294 1.268 . S
O303 Sc287 2.105 . S
O303 C293 1.268 . S
O304 Sc288 2.105 . S
O304 C295 1.268 . S
O305 Sc286 2.105 . S
O305 C291 1.268 . S
O306 Sc288 2.105 . S
O306 C290 1.268 . S
O307 Sc287 2.105 . S
O307 C292 1.268 . S
Sc308 O311 2.025 . S
Sc308 O318 2.105 . S
Sc308 O321 2.105 . S
Sc308 O324 2.105 . S
Sc308 O327 2.105 . S
Sc309 O311 2.025 . S
Sc309 O319 2.105 . S
Sc309 O323 2.105 . S
Sc309 O325 2.105 . S
Sc309 O329 2.105 . S
Sc310 O311 2.025 . S
Sc310 O320 2.105 . S
Sc310 O322 2.105 . S
Sc310 O326 2.105 . S
Sc310 O328 2.105 . S
O311 Sc308 2.025 . S
O311 Sc309 2.025 . S
O311 Sc310 2.025 . S
C312 O318 1.268 . S
C312 O328 1.268 . S
C313 O319 1.268 . S
C313 O327 1.268 . S
C314 O320 1.268 . S
C314 O329 1.268 . S
C315 O321 1.268 . S
C315 O325 1.268 . S
C316 O322 1.268 . S
C316 O324 1.268 . S
C317 O323 1.268 . S
C317 O326 1.268 . S
O318 Sc308 2.105 . S
O318 C312 1.268 . S
O319 Sc309 2.105 . S
O319 C313 1.268 . S
O320 Sc310 2.105 . S
O320 C314 1.268 . S
O321 Sc308 2.105 . S
O321 C315 1.268 . S
O322 Sc310 2.105 . S
O322 C316 1.268 . S
O323 Sc309 2.105 . S
O323 C317 1.268 . S
O324 Sc308 2.105 . S
O324 C316 1.268 . S
O325 Sc309 2.105 . S
O325 C315 1.268 . S
O326 Sc310 2.105 . S
O326 C317 1.268 . S
O327 Sc308 2.105 . S
O327 C313 1.268 . S
O328 Sc310 2.105 . S
O328 C312 1.268 . S
O329 Sc309 2.105 . S
O329 C314 1.268 . S
Sc330 O333 2.025 . S
Sc330 O340 2.105 . S
Sc330 O343 2.105 . S
Sc330 O346 2.105 . S
Sc330 O349 2.105 . S
Sc331 O333 2.025 . S
Sc331 O341 2.105 . S
Sc331 O345 2.105 . S
Sc331 O347 2.105 . S
Sc331 O351 2.105 . S
Sc332 O333 2.025 . S
Sc332 O342 2.105 . S
Sc332 O344 2.105 . S
Sc332 O348 2.105 . S
Sc332 O350 2.105 . S
O333 Sc330 2.025 . S
O333 Sc331 2.025 . S
O333 Sc332 2.025 . S
C334 O340 1.268 . S
C334 O350 1.268 . S
C335 O341 1.268 . S
C335 O349 1.268 . S
C336 O342 1.268 . S
C336 O351 1.268 . S
C337 O343 1.268 . S
C337 O347 1.268 . S
C338 O344 1.268 . S
C338 O346 1.268 . S
C339 O345 1.268 . S
C339 O348 1.268 . S
O340 Sc330 2.105 . S
O340 C334 1.268 . S
O341 Sc331 2.105 . S
O341 C335 1.268 . S
O342 Sc332 2.105 . S
O342 C336 1.268 . S
O343 Sc330 2.105 . S
O343 C337 1.268 . S
O344 Sc332 2.105 . S
O344 C338 1.268 . S
O345 Sc331 2.105 . S
O345 C339 1.268 . S
O346 Sc330 2.105 . S
O346 C338 1.268 . S
O347 Sc331 2.105 . S
O347 C337 1.268 . S
O348 Sc332 2.105 . S
O348 C339 1.268 . S
O349 Sc330 2.105 . S
O349 C335 1.268 . S
O350 Sc332 2.105 . S
O350 C334 1.268 . S
O351 Sc331 2.105 . S
O351 C336 1.268 . S
Sc352 O355 2.025 . S
Sc352 O362 2.105 . S
Sc352 O365 2.105 . S
Sc352 O368 2.105 . S
Sc352 O371 2.105 . S
Sc353 O355 2.025 . S
Sc353 O363 2.105 . S
Sc353 O367 2.105 . S
Sc353 O369 2.105 . S
Sc353 O373 2.105 . S
Sc354 O355 2.025 . S
Sc354 O364 2.105 . S
Sc354 O366 2.105 . S
Sc354 O370 2.105 . S
Sc354 O372 2.105 . S
O355 Sc352 2.025 . S
O355 Sc353 2.025 . S
O355 Sc354 2.025 . S
C356 O362 1.268 . S
C356 O372 1.268 . S
C357 O363 1.268 . S
C357 O371 1.268 . S
C358 O364 1.268 . S
C358 O373 1.268 . S
C359 O365 1.268 . S
C359 O369 1.268 . S
C360 O366 1.268 . S
C360 O368 1.268 . S
C361 O367 1.268 . S
C361 O370 1.268 . S
O362 Sc352 2.105 . S
O362 C356 1.268 . S
O363 Sc353 2.105 . S
O363 C357 1.268 . S
O364 Sc354 2.105 . S
O364 C358 1.268 . S
O365 Sc352 2.105 . S
O365 C359 1.268 . S
O366 Sc354 2.105 . S
O366 C360 1.268 . S
O367 Sc353 2.105 . S
O367 C361 1.268 . S
O368 Sc352 2.105 . S
O368 C360 1.268 . S
O369 Sc353 2.105 . S
O369 C359 1.268 . S
O370 Sc354 2.105 . S
O370 C361 1.268 . S
O371 Sc352 2.105 . S
O371 C357 1.268 . S
O372 Sc354 2.105 . S
O372 C356 1.268 . S
O373 Sc353 2.105 . S
O373 C358 1.268 . S
Sc374 O377 2.025 . S
Sc374 O384 2.105 . S
Sc374 O387 2.105 . S
Sc374 O390 2.105 . S
Sc374 O393 2.105 . S
Sc375 O377 2.025 . S
Sc375 O385 2.105 . S
Sc375 O389 2.105 . S
Sc375 O391 2.105 . S
Sc375 O395 2.105 . S
Sc376 O377 2.025 . S
Sc376 O386 2.105 . S
Sc376 O388 2.105 . S
Sc376 O392 2.105 . S
Sc376 O394 2.105 . S
O377 Sc374 2.025 . S
O377 Sc375 2.025 . S
O377 Sc376 2.025 . S
C378 O384 1.268 . S
C378 O394 1.268 . S
C379 O385 1.268 . S
C379 O393 1.268 . S
C380 O386 1.268 . S
C380 O395 1.268 . S
C381 O387 1.268 . S
C381 O391 1.268 . S
C382 O388 1.268 . S
C382 O390 1.268 . S
C383 O389 1.268 . S
C383 O392 1.268 . S
O384 Sc374 2.105 . S
O384 C378 1.268 . S
O385 Sc375 2.105 . S
O385 C379 1.268 . S
O386 Sc376 2.105 . S
O386 C380 1.268 . S
O387 Sc374 2.105 . S
O387 C381 1.268 . S
O388 Sc376 2.105 . S
O388 C382 1.268 . S
O389 Sc375 2.105 . S
O389 C383 1.268 . S
O390 Sc374 2.105 . S
O390 C382 1.268 . S
O391 Sc375 2.105 . S
O391 C381 1.268 . S
O392 Sc376 2.105 . S
O392 C383 1.268 . S
O393 Sc374 2.105 . S
O393 C379 1.268 . S
O394 Sc376 2.105 . S
O394 C378 1.268 . S
O395 Sc375 2.105 . S
O395 C380 1.268 . S
Sc396 O399 2.025 . S
Sc396 O406 2.105 . S
Sc396 O409 2.105 . S
Sc396 O412 2.105 . S
Sc396 O415 2.105 . S
Sc397 O399 2.025 . S
Sc397 O407 2.105 . S
Sc397 O411 2.105 . S
Sc397 O413 2.105 . S
Sc397 O417 2.105 . S
Sc398 O399 2.025 . S
Sc398 O408 2.105 . S
Sc398 O410 2.105 . S
Sc398 O414 2.105 . S
Sc398 O416 2.105 . S
O399 Sc396 2.025 . S
O399 Sc397 2.025 . S
O399 Sc398 2.025 . S
C400 O406 1.268 . S
C400 O416 1.268 . S
C401 O407 1.268 . S
C401 O415 1.268 . S
C402 O408 1.268 . S
C402 O417 1.268 . S
C403 O409 1.268 . S
C403 O413 1.268 . S
C404 O410 1.268 . S
C404 O412 1.268 . S
C405 O411 1.268 . S
C405 O414 1.268 . S
O406 Sc396 2.105 . S
O406 C400 1.268 . S
O407 Sc397 2.105 . S
O407 C401 1.268 . S
O408 Sc398 2.105 . S
O408 C402 1.268 . S
O409 Sc396 2.105 . S
O409 C403 1.268 . S
O410 Sc398 2.105 . S
O410 C404 1.268 . S
O411 Sc397 2.105 . S
O411 C405 1.268 . S
O412 Sc396 2.105 . S
O412 C404 1.268 . S
O413 Sc397 2.105 . S
O413 C403 1.268 . S
O414 Sc398 2.105 . S
O414 C405 1.268 . S
O415 Sc396 2.105 . S
O415 C401 1.268 . S
O416 Sc398 2.105 . S
O416 C400 1.268 . S
O417 Sc397 2.105 . S
O417 C402 1.268 . S
Sc418 O421 2.025 . S
Sc418 O428 2.105 . S
Sc418 O431 2.105 . S
Sc418 O434 2.105 . S
Sc418 O437 2.105 . S
Sc419 O421 2.025 . S
Sc419 O429 2.105 . S
Sc419 O433 2.105 . S
Sc419 O435 2.105 . S
Sc419 O439 2.105 . S
Sc420 O421 2.025 . S
Sc420 O430 2.105 . S
Sc420 O432 2.105 . S
Sc420 O436 2.105 . S
Sc420 O438 2.105 . S
O421 Sc418 2.025 . S
O421 Sc419 2.025 . S
O421 Sc420 2.025 . S
C422 O428 1.268 . S
C422 O438 1.268 . S
C423 O429 1.268 . S
C423 O437 1.268 . S
C424 O430 1.268 . S
C424 O439 1.268 . S
C425 O431 1.268 . S
C425 O435 1.268 . S
C426 O432 1.268 . S
C426 O434 1.268 . S
C427 O433 1.268 . S
C427 O436 1.268 . S
O428 Sc418 2.105 . S
O428 C422 1.268 . S
O429 Sc419 2.105 . S
O429 C423 1.268 . S
O430 Sc420 2.105 . S
O430 C424 1.268 . S
O431 Sc418 2.105 . S
O431 C425 1.268 . S
O432 Sc420 2.105 . S
O432 C426 1.268 . S
O433 Sc419 2.105 . S
O433 C427 1.268 . S
O434 Sc418 2.105 . S
O434 C426 1.268 . S
O435 Sc419 2.105 . S
O435 C425 1.268 . S
O436 Sc420 2.105 . S
O436 C427 1.268 . S
O437 Sc418 2.105 . S
O437 C423 1.268 . S
O438 Sc420 2.105 . S
O438 C422 1.268 . S
O439 Sc419 2.105 . S
O439 C424 1.268 . S
Sc440 O443 2.025 . S
Sc440 O450 2.105 . S
Sc440 O453 2.105 . S
Sc440 O456 2.105 . S
Sc440 O459 2.105 . S
Sc441 O443 2.025 . S
Sc441 O451 2.105 . S
Sc441 O455 2.105 . S
Sc441 O457 2.105 . S
Sc441 O461 2.105 . S
Sc442 O443 2.025 . S
Sc442 O452 2.105 . S
Sc442 O454 2.105 . S
Sc442 O458 2.105 . S
Sc442 O460 2.105 . S
O443 Sc440 2.025 . S
O443 Sc441 2.025 . S
O443 Sc442 2.025 . S
C444 O450 1.268 . S
C444 O460 1.268 . S
C445 O451 1.268 . S
C445 O459 1.268 . S
C446 O452 1.268 . S
C446 O461 1.268 . S
C447 O453 1.268 . S
C447 O457 1.268 . S
C448 O454 1.268 . S
C448 O456 1.268 . S
C449 O455 1.268 . S
C449 O458 1.268 . S
O450 Sc440 2.105 . S
O450 C444 1.268 . S
O451 Sc441 2.105 . S
O451 C445 1.268 . S
O452 Sc442 2.105 . S
O452 C446 1.268 . S
O453 Sc440 2.105 . S
O453 C447 1.268 . S
O454 Sc442 2.105 . S
O454 C448 1.268 . S
O455 Sc441 2.105 . S
O455 C449 1.268 . S
O456 Sc440 2.105 . S
O456 C448 1.268 . S
O457 Sc441 2.105 . S
O457 C447 1.268 . S
O458 Sc442 2.105 . S
O458 C449 1.268 . S
O459 Sc440 2.105 . S
O459 C445 1.268 . S
O460 Sc442 2.105 . S
O460 C444 1.268 . S
O461 Sc441 2.105 . S
O461 C446 1.268 . S
Sc462 O465 2.025 . S
Sc462 O472 2.105 . S
Sc462 O475 2.105 . S
Sc462 O478 2.105 . S
Sc462 O481 2.105 . S
Sc463 O465 2.025 . S
Sc463 O473 2.105 . S
Sc463 O477 2.105 . S
Sc463 O479 2.105 . S
Sc463 O483 2.105 . S
Sc464 O465 2.025 . S
Sc464 O474 2.105 . S
Sc464 O476 2.105 . S
Sc464 O480 2.105 . S
Sc464 O482 2.105 . S
O465 Sc462 2.025 . S
O465 Sc463 2.025 . S
O465 Sc464 2.025 . S
C466 O472 1.268 . S
C466 O482 1.268 . S
C467 O473 1.268 . S
C467 O481 1.268 . S
C468 O474 1.268 . S
C468 O483 1.268 . S
C469 O475 1.268 . S
C469 O479 1.268 . S
C470 O476 1.268 . S
C470 O478 1.268 . S
C471 O477 1.268 . S
C471 O480 1.268 . S
O472 Sc462 2.105 . S
O472 C466 1.268 . S
O473 Sc463 2.105 . S
O473 C467 1.268 . S
O474 Sc464 2.105 . S
O474 C468 1.268 . S
O475 Sc462 2.105 . S
O475 C469 1.268 . S
O476 Sc464 2.105 . S
O476 C470 1.268 . S
O477 Sc463 2.105 . S
O477 C471 1.268 . S
O478 Sc462 2.105 . S
O478 C470 1.268 . S
O479 Sc463 2.105 . S
O479 C469 1.268 . S
O480 Sc464 2.105 . S
O480 C471 1.268 . S
O481 Sc462 2.105 . S
O481 C467 1.268 . S
O482 Sc464 2.105 . S
O482 C466 1.268 . S
O483 Sc463 2.105 . S
O483 C468 1.268 . S
Sc484 O487 2.025 . S
Sc484 O494 2.105 . S
Sc484 O497 2.105 . S
Sc484 O500 2.105 . S
Sc484 O503 2.105 . S
Sc485 O487 2.025 . S
Sc485 O495 2.105 . S
Sc485 O499 2.105 . S
Sc485 O501 2.105 . S
Sc485 O505 2.105 . S
Sc486 O487 2.025 . S
Sc486 O496 2.105 . S
Sc486 O498 2.105 . S
Sc486 O502 2.105 . S
Sc486 O504 2.105 . S
O487 Sc484 2.025 . S
O487 Sc485 2.025 . S
O487 Sc486 2.025 . S
C488 O494 1.268 . S
C488 O504 1.268 . S
C489 O495 1.268 . S
C489 O503 1.268 . S
C490 O496 1.268 . S
C490 O505 1.268 . S
C491 O497 1.268 . S
C491 O501 1.268 . S
C492 O498 1.268 . S
C492 O500 1.268 . S
C493 O499 1.268 . S
C493 O502 1.268 . S
O494 Sc484 2.105 . S
O494 C488 1.268 . S
O495 Sc485 2.105 . S
O495 C489 1.268 . S
O496 Sc486 2.105 . S
O496 C490 1.268 . S
O497 Sc484 2.105 . S
O497 C491 1.268 . S
O498 Sc486 2.105 . S
O498 C492 1.268 . S
O499 Sc485 2.105 . S
O499 C493 1.268 . S
O500 Sc484 2.105 . S
O500 C492 1.268 . S
O501 Sc485 2.105 . S
O501 C491 1.268 . S
O502 Sc486 2.105 . S
O502 C493 1.268 . S
O503 Sc484 2.105 . S
O503 C489 1.268 . S
O504 Sc486 2.105 . S
O504 C488 1.268 . S
O505 Sc485 2.105 . S
O505 C490 1.268 . S
Sc506 O509 2.025 . S
Sc506 O516 2.105 . S
Sc506 O519 2.105 . S
Sc506 O522 2.105 . S
Sc506 O525 2.105 . S
Sc507 O509 2.025 . S
Sc507 O517 2.105 . S
Sc507 O521 2.105 . S
Sc507 O523 2.105 . S
Sc507 O527 2.105 . S
Sc508 O509 2.025 . S
Sc508 O518 2.105 . S
Sc508 O520 2.105 . S
Sc508 O524 2.105 . S
Sc508 O526 2.105 . S
O509 Sc506 2.025 . S
O509 Sc507 2.025 . S
O509 Sc508 2.025 . S
C510 O516 1.268 . S
C510 O526 1.268 . S
C511 O517 1.268 . S
C511 O525 1.268 . S
C512 O518 1.268 . S
C512 O527 1.268 . S
C513 O519 1.268 . S
C513 O523 1.268 . S
C514 O520 1.268 . S
C514 O522 1.268 . S
C515 O521 1.268 . S
C515 O524 1.268 . S
O516 Sc506 2.105 . S
O516 C510 1.268 . S
O517 Sc507 2.105 . S
O517 C511 1.268 . S
O518 Sc508 2.105 . S
O518 C512 1.268 . S
O519 Sc506 2.105 . S
O519 C513 1.268 . S
O520 Sc508 2.105 . S
O520 C514 1.268 . S
O521 Sc507 2.105 . S
O521 C515 1.268 . S
O522 Sc506 2.105 . S
O522 C514 1.268 . S
O523 Sc507 2.105 . S
O523 C513 1.268 . S
O524 Sc508 2.105 . S
O524 C515 1.268 . S
O525 Sc506 2.105 . S
O525 C511 1.268 . S
O526 Sc508 2.105 . S
O526 C510 1.268 . S
O527 Sc507 2.105 . S
O527 C512 1.268 . S
Sc528 O531 2.025 . S
Sc528 O538 2.105 . S
Sc528 O541 2.105 . S
Sc528 O544 2.105 . S
Sc528 O547 2.105 . S
Sc529 O531 2.025 . S
Sc529 O539 2.105 . S
Sc529 O543 2.105 . S
Sc529 O545 2.105 . S
Sc529 O549 2.105 . S
Sc530 O531 2.025 . S
Sc530 O540 2.105 . S
Sc530 O542 2.105 . S
Sc530 O546 2.105 . S
Sc530 O548 2.105 . S
O531 Sc528 2.025 . S
O531 Sc529 2.025 . S
O531 Sc530 2.025 . S
C532 O538 1.268 . S
C532 O548 1.268 . S
C533 O539 1.268 . S
C533 O547 1.268 . S
C534 O540 1.268 . S
C534 O549 1.268 . S
C535 O541 1.268 . S
C535 O545 1.268 . S
C536 O542 1.268 . S
C536 O544 1.268 . S
C537 O543 1.268 . S
C537 O546 1.268 . S
O538 Sc528 2.105 . S
O538 C532 1.268 . S
O539 Sc529 2.105 . S
O539 C533 1.268 . S
O540 Sc530 2.105 . S
O540 C534 1.268 . S
O541 Sc528 2.105 . S
O541 C535 1.268 . S
O542 Sc530 2.105 . S
O542 C536 1.268 . S
O543 Sc529 2.105 . S
O543 C537 1.268 . S
O544 Sc528 2.105 . S
O544 C536 1.268 . S
O545 Sc529 2.105 . S
O545 C535 1.268 . S
O546 Sc530 2.105 . S
O546 C537 1.268 . S
O547 Sc528 2.105 . S
O547 C533 1.268 . S
O548 Sc530 2.105 . S
O548 C532 1.268 . S
O549 Sc529 2.105 . S
O549 C534 1.268 . S
Sc550 O553 2.025 . S
Sc550 O560 2.105 . S
Sc550 O563 2.105 . S
Sc550 O566 2.105 . S
Sc550 O569 2.105 . S
Sc551 O553 2.025 . S
Sc551 O561 2.105 . S
Sc551 O565 2.105 . S
Sc551 O567 2.105 . S
Sc551 O571 2.105 . S
Sc552 O553 2.025 . S
Sc552 O562 2.105 . S
Sc552 O564 2.105 . S
Sc552 O568 2.105 . S
Sc552 O570 2.105 . S
O553 Sc550 2.025 . S
O553 Sc551 2.025 . S
O553 Sc552 2.025 . S
C554 O560 1.268 . S
C554 O570 1.268 . S
C555 O561 1.268 . S
C555 O569 1.268 . S
C556 O562 1.268 . S
C556 O571 1.268 . S
C557 O563 1.268 . S
C557 O567 1.268 . S
C558 O564 1.268 . S
C558 O566 1.268 . S
C559 O565 1.268 . S
C559 O568 1.268 . S
O560 Sc550 2.105 . S
O560 C554 1.268 . S
O561 Sc551 2.105 . S
O561 C555 1.268 . S
O562 Sc552 2.105 . S
O562 C556 1.268 . S
O563 Sc550 2.105 . S
O563 C557 1.268 . S
O564 Sc552 2.105 . S
O564 C558 1.268 . S
O565 Sc551 2.105 . S
O565 C559 1.268 . S
O566 Sc550 2.105 . S
O566 C558 1.268 . S
O567 Sc551 2.105 . S
O567 C557 1.268 . S
O568 Sc552 2.105 . S
O568 C559 1.268 . S
O569 Sc550 2.105 . S
O569 C555 1.268 . S
O570 Sc552 2.105 . S
O570 C554 1.268 . S
O571 Sc551 2.105 . S
O571 C556 1.268 . S
Sc572 O575 2.025 . S
Sc572 O582 2.105 . S
Sc572 O585 2.105 . S
Sc572 O588 2.105 . S
Sc572 O591 2.105 . S
Sc573 O575 2.025 . S
Sc573 O583 2.105 . S
Sc573 O587 2.105 . S
Sc573 O589 2.105 . S
Sc573 O593 2.105 . S
Sc574 O575 2.025 . S
Sc574 O584 2.105 . S
Sc574 O586 2.105 . S
Sc574 O590 2.105 . S
Sc574 O592 2.105 . S
O575 Sc572 2.025 . S
O575 Sc573 2.025 . S
O575 Sc574 2.025 . S
C576 O582 1.268 . S
C576 O592 1.268 . S
C577 O583 1.268 . S
C577 O591 1.268 . S
C578 O584 1.268 . S
C578 O593 1.268 . S
C579 O585 1.268 . S
C579 O589 1.268 . S
C580 O586 1.268 . S
C580 O588 1.268 . S
C581 O587 1.268 . S
C581 O590 1.268 . S
O582 Sc572 2.105 . S
O582 C576 1.268 . S
O583 Sc573 2.105 . S
O583 C577 1.268 . S
O584 Sc574 2.105 . S
O584 C578 1.268 . S
O585 Sc572 2.105 . S
O585 C579 1.268 . S
O586 Sc574 2.105 . S
O586 C580 1.268 . S
O587 Sc573 2.105 . S
O587 C581 1.268 . S
O588 Sc572 2.105 . S
O588 C580 1.268 . S
O589 Sc573 2.105 . S
O589 C579 1.268 . S
O590 Sc574 2.105 . S
O590 C581 1.268 . S
O591 Sc572 2.105 . S
O591 C577 1.268 . S
O592 Sc574 2.105 . S
O592 C576 1.268 . S
O593 Sc573 2.105 . S
O593 C578 1.268 . S
Sc594 O597 2.025 . S
Sc594 O604 2.105 . S
Sc594 O607 2.105 . S
Sc594 O610 2.105 . S
Sc594 O613 2.105 . S
Sc595 O597 2.025 . S
Sc595 O605 2.105 . S
Sc595 O609 2.105 . S
Sc595 O611 2.105 . S
Sc595 O615 2.105 . S
Sc596 O597 2.025 . S
Sc596 O606 2.105 . S
Sc596 O608 2.105 . S
Sc596 O612 2.105 . S
Sc596 O614 2.105 . S
O597 Sc594 2.025 . S
O597 Sc595 2.025 . S
O597 Sc596 2.025 . S
C598 O604 1.268 . S
C598 O614 1.268 . S
C599 O605 1.268 . S
C599 O613 1.268 . S
C600 O606 1.268 . S
C600 O615 1.268 . S
C601 O607 1.268 . S
C601 O611 1.268 . S
C602 O608 1.268 . S
C602 O610 1.268 . S
C603 O609 1.268 . S
C603 O612 1.268 . S
O604 Sc594 2.105 . S
O604 C598 1.268 . S
O605 Sc595 2.105 . S
O605 C599 1.268 . S
O606 Sc596 2.105 . S
O606 C600 1.268 . S
O607 Sc594 2.105 . S
O607 C601 1.268 . S
O608 Sc596 2.105 . S
O608 C602 1.268 . S
O609 Sc595 2.105 . S
O609 C603 1.268 . S
O610 Sc594 2.105 . S
O610 C602 1.268 . S
O611 Sc595 2.105 . S
O611 C601 1.268 . S
O612 Sc596 2.105 . S
O612 C603 1.268 . S
O613 Sc594 2.105 . S
O613 C599 1.268 . S
O614 Sc596 2.105 . S
O614 C598 1.268 . S
O615 Sc595 2.105 . S
O615 C600 1.268 . S
Sc616 O619 2.025 . S
Sc616 O626 2.105 . S
Sc616 O629 2.105 . S
Sc616 O632 2.105 . S
Sc616 O635 2.105 . S
Sc617 O619 2.025 . S
Sc617 O627 2.105 . S
Sc617 O631 2.105 . S
Sc617 O633 2.105 . S
Sc617 O637 2.105 . S
Sc618 O619 2.025 . S
Sc618 O628 2.105 . S
Sc618 O630 2.105 . S
Sc618 O634 2.105 . S
Sc618 O636 2.105 . S
O619 Sc616 2.025 . S
O619 Sc617 2.025 . S
O619 Sc618 2.025 . S
C620 O626 1.268 . S
C620 O636 1.268 . S
C621 O627 1.268 . S
C621 O635 1.268 . S
C622 O628 1.268 . S
C622 O637 1.268 . S
C623 O629 1.268 . S
C623 O633 1.268 . S
C624 O630 1.268 . S
C624 O632 1.268 . S
C625 O631 1.268 . S
C625 O634 1.268 . S
O626 Sc616 2.105 . S
O626 C620 1.268 . S
O627 Sc617 2.105 . S
O627 C621 1.268 . S
O628 Sc618 2.105 . S
O628 C622 1.268 . S
O629 Sc616 2.105 . S
O629 C623 1.268 . S
O630 Sc618 2.105 . S
O630 C624 1.268 . S
O631 Sc617 2.105 . S
O631 C625 1.268 . S
O632 Sc616 2.105 . S
O632 C624 1.268 . S
O633 Sc617 2.105 . S
O633 C623 1.268 . S
O634 Sc618 2.105 . S
O634 C625 1.268 . S
O635 Sc616 2.105 . S
O635 C621 1.268 . S
O636 Sc618 2.105 . S
O636 C620 1.268 . S
O637 Sc617 2.105 . S
O637 C622 1.268 . S
Sc638 O641 2.025 . S
Sc638 O648 2.105 . S
Sc638 O651 2.105 . S
Sc638 O654 2.105 . S
Sc638 O657 2.105 . S
Sc639 O641 2.025 . S
Sc639 O649 2.105 . S
Sc639 O653 2.105 . S
Sc639 O655 2.105 . S
Sc639 O659 2.105 . S
Sc640 O641 2.025 . S
Sc640 O650 2.105 . S
Sc640 O652 2.105 . S
Sc640 O656 2.105 . S
Sc640 O658 2.105 . S
O641 Sc638 2.025 . S
O641 Sc639 2.025 . S
O641 Sc640 2.025 . S
C642 O648 1.268 . S
C642 O658 1.268 . S
C643 O649 1.268 . S
C643 O657 1.268 . S
C644 O650 1.268 . S
C644 O659 1.268 . S
C645 O651 1.268 . S
C645 O655 1.268 . S
C646 O652 1.268 . S
C646 O654 1.268 . S
C647 O653 1.268 . S
C647 O656 1.268 . S
O648 Sc638 2.105 . S
O648 C642 1.268 . S
O649 Sc639 2.105 . S
O649 C643 1.268 . S
O650 Sc640 2.105 . S
O650 C644 1.268 . S
O651 Sc638 2.105 . S
O651 C645 1.268 . S
O652 Sc640 2.105 . S
O652 C646 1.268 . S
O653 Sc639 2.105 . S
O653 C647 1.268 . S
O654 Sc638 2.105 . S
O654 C646 1.268 . S
O655 Sc639 2.105 . S
O655 C645 1.268 . S
O656 Sc640 2.105 . S
O656 C647 1.268 . S
O657 Sc638 2.105 . S
O657 C643 1.268 . S
O658 Sc640 2.105 . S
O658 C642 1.268 . S
O659 Sc639 2.105 . S
O659 C644 1.268 . S
Sc660 O663 2.025 . S
Sc660 O670 2.105 . S
Sc660 O673 2.105 . S
Sc660 O676 2.105 . S
Sc660 O679 2.105 . S
Sc661 O663 2.025 . S
Sc661 O671 2.105 . S
Sc661 O675 2.105 . S
Sc661 O677 2.105 . S
Sc661 O681 2.105 . S
Sc662 O663 2.025 . S
Sc662 O672 2.105 . S
Sc662 O674 2.105 . S
Sc662 O678 2.105 . S
Sc662 O680 2.105 . S
O663 Sc660 2.025 . S
O663 Sc661 2.025 . S
O663 Sc662 2.025 . S
C664 O670 1.268 . S
C664 O680 1.268 . S
C665 O671 1.268 . S
C665 O679 1.268 . S
C666 O672 1.268 . S
C666 O681 1.268 . S
C667 O673 1.268 . S
C667 O677 1.268 . S
C668 O674 1.268 . S
C668 O676 1.268 . S
C669 O675 1.268 . S
C669 O678 1.268 . S
O670 Sc660 2.105 . S
O670 C664 1.268 . S
O671 Sc661 2.105 . S
O671 C665 1.268 . S
O672 Sc662 2.105 . S
O672 C666 1.268 . S
O673 Sc660 2.105 . S
O673 C667 1.268 . S
O674 Sc662 2.105 . S
O674 C668 1.268 . S
O675 Sc661 2.105 . S
O675 C669 1.268 . S
O676 Sc660 2.105 . S
O676 C668 1.268 . S
O677 Sc661 2.105 . S
O677 C667 1.268 . S
O678 Sc662 2.105 . S
O678 C669 1.268 . S
O679 Sc660 2.105 . S
O679 C665 1.268 . S
O680 Sc662 2.105 . S
O680 C664 1.268 . S
O681 Sc661 2.105 . S
O681 C666 1.268 . S
Sc682 O685 2.025 . S
Sc682 O692 2.105 . S
Sc682 O695 2.105 . S
Sc682 O698 2.105 . S
Sc682 O701 2.105 . S
Sc683 O685 2.025 . S
Sc683 O693 2.105 . S
Sc683 O697 2.105 . S
Sc683 O699 2.105 . S
Sc683 O703 2.105 . S
Sc684 O685 2.025 . S
Sc684 O694 2.105 . S
Sc684 O696 2.105 . S
Sc684 O700 2.105 . S
Sc684 O702 2.105 . S
O685 Sc682 2.025 . S
O685 Sc683 2.025 . S
O685 Sc684 2.025 . S
C686 O692 1.268 . S
C686 O702 1.268 . S
C687 O693 1.268 . S
C687 O701 1.268 . S
C688 O694 1.268 . S
C688 O703 1.268 . S
C689 O695 1.268 . S
C689 O699 1.268 . S
C690 O696 1.268 . S
C690 O698 1.268 . S
C691 O697 1.268 . S
C691 O700 1.268 . S
O692 Sc682 2.105 . S
O692 C686 1.268 . S
O693 Sc683 2.105 . S
O693 C687 1.268 . S
O694 Sc684 2.105 . S
O694 C688 1.268 . S
O695 Sc682 2.105 . S
O695 C689 1.268 . S
O696 Sc684 2.105 . S
O696 C690 1.268 . S
O697 Sc683 2.105 . S
O697 C691 1.268 . S
O698 Sc682 2.105 . S
O698 C690 1.268 . S
O699 Sc683 2.105 . S
O699 C689 1.268 . S
O700 Sc684 2.105 . S
O700 C691 1.268 . S
O701 Sc682 2.105 . S
O701 C687 1.268 . S
O702 Sc684 2.105 . S
O702 C686 1.268 . S
O703 Sc683 2.105 . S
O703 C688 1.268 . S
Sc704 O707 2.025 . S
Sc704 O714 2.105 . S
Sc704 O717 2.105 . S
Sc704 O720 2.105 . S
Sc704 O723 2.105 . S
Sc705 O707 2.025 . S
Sc705 O715 2.105 . S
Sc705 O719 2.105 . S
Sc705 O721 2.105 . S
Sc705 O725 2.105 . S
Sc706 O707 2.025 . S
Sc706 O716 2.105 . S
Sc706 O718 2.105 . S
Sc706 O722 2.105 . S
Sc706 O724 2.105 . S
O707 Sc704 2.025 . S
O707 Sc705 2.025 . S
O707 Sc706 2.025 . S
C708 O714 1.268 . S
C708 O724 1.268 . S
C709 O715 1.268 . S
C709 O723 1.268 . S
C710 O716 1.268 . S
C710 O725 1.268 . S
C711 O717 1.268 . S
C711 O721 1.268 . S
C712 O718 1.268 . S
C712 O720 1.268 . S
C713 O719 1.268 . S
C713 O722 1.268 . S
O714 Sc704 2.105 . S
O714 C708 1.268 . S
O715 Sc705 2.105 . S
O715 C709 1.268 . S
O716 Sc706 2.105 . S
O716 C710 1.268 . S
O717 Sc704 2.105 . S
O717 C711 1.268 . S
O718 Sc706 2.105 . S
O718 C712 1.268 . S
O719 Sc705 2.105 . S
O719 C713 1.268 . S
O720 Sc704 2.105 . S
O720 C712 1.268 . S
O721 Sc705 2.105 . S
O721 C711 1.268 . S
O722 Sc706 2.105 . S
O722 C713 1.268 . S
O723 Sc704 2.105 . S
O723 C709 1.268 . S
O724 Sc706 2.105 . S
O724 C708 1.268 . S
O725 Sc705 2.105 . S
O725 C710 1.268 . S
Sc726 O729 2.025 . S
Sc726 O736 2.105 . S
Sc726 O739 2.105 . S
Sc726 O742 2.105 . S
Sc726 O745 2.105 . S
Sc727 O729 2.025 . S
Sc727 O737 2.105 . S
Sc727 O741 2.105 . S
Sc727 O743 2.105 . S
Sc727 O747 2.105 . S
Sc728 O729 2.025 . S
Sc728 O738 2.105 . S
Sc728 O740 2.105 . S
Sc728 O744 2.105 . S
Sc728 O746 2.105 . S
O729 Sc726 2.025 . S
O729 Sc727 2.025 . S
O729 Sc728 2.025 . S
C730 O736 1.268 . S
C730 O746 1.268 . S
C731 O737 1.268 . S
C731 O745 1.268 . S
C732 O738 1.268 . S
C732 O747 1.268 . S
C733 O739 1.268 . S
C733 O743 1.268 . S
C734 O740 1.268 . S
C734 O742 1.268 . S
C735 O741 1.268 . S
C735 O744 1.268 . S
O736 Sc726 2.105 . S
O736 C730 1.268 . S
O737 Sc727 2.105 . S
O737 C731 1.268 . S
O738 Sc728 2.105 . S
O738 C732 1.268 . S
O739 Sc726 2.105 . S
O739 C733 1.268 . S
O740 Sc728 2.105 . S
O740 C734 1.268 . S
O741 Sc727 2.105 . S
O741 C735 1.268 . S
O742 Sc726 2.105 . S
O742 C734 1.268 . S
O743 Sc727 2.105 . S
O743 C733 1.268 . S
O744 Sc728 2.105 . S
O744 C735 1.268 . S
O745 Sc726 2.105 . S
O745 C731 1.268 . S
O746 Sc728 2.105 . S
O746 C730 1.268 . S
O747 Sc727 2.105 . S
O747 C732 1.268 . S
Sc748 O751 2.025 . S
Sc748 O758 2.105 . S
Sc748 O761 2.105 . S
Sc748 O764 2.105 . S
Sc748 O767 2.105 . S
Sc749 O751 2.025 . S
Sc749 O759 2.105 . S
Sc749 O763 2.105 . S
Sc749 O765 2.105 . S
Sc749 O769 2.105 . S
Sc750 O751 2.025 . S
Sc750 O760 2.105 . S
Sc750 O762 2.105 . S
Sc750 O766 2.105 . S
Sc750 O768 2.105 . S
O751 Sc748 2.025 . S
O751 Sc749 2.025 . S
O751 Sc750 2.025 . S
C752 O758 1.268 . S
C752 O768 1.268 . S
C753 O759 1.268 . S
C753 O767 1.268 . S
C754 O760 1.268 . S
C754 O769 1.268 . S
C755 O761 1.268 . S
C755 O765 1.268 . S
C756 O762 1.268 . S
C756 O764 1.268 . S
C757 O763 1.268 . S
C757 O766 1.268 . S
O758 Sc748 2.105 . S
O758 C752 1.268 . S
O759 Sc749 2.105 . S
O759 C753 1.268 . S
O760 Sc750 2.105 . S
O760 C754 1.268 . S
O761 Sc748 2.105 . S
O761 C755 1.268 . S
O762 Sc750 2.105 . S
O762 C756 1.268 . S
O763 Sc749 2.105 . S
O763 C757 1.268 . S
O764 Sc748 2.105 . S
O764 C756 1.268 . S
O765 Sc749 2.105 . S
O765 C755 1.268 . S
O766 Sc750 2.105 . S
O766 C757 1.268 . S
O767 Sc748 2.105 . S
O767 C753 1.268 . S
O768 Sc750 2.105 . S
O768 C752 1.268 . S
O769 Sc749 2.105 . S
O769 C754 1.268 . S
Sc770 O773 2.025 . S
Sc770 O780 2.105 . S
Sc770 O783 2.105 . S
Sc770 O786 2.105 . S
Sc770 O789 2.105 . S
Sc771 O773 2.025 . S
Sc771 O781 2.105 . S
Sc771 O785 2.105 . S
Sc771 O787 2.105 . S
Sc771 O791 2.105 . S
Sc772 O773 2.025 . S
Sc772 O782 2.105 . S
Sc772 O784 2.105 . S
Sc772 O788 2.105 . S
Sc772 O790 2.105 . S
O773 Sc770 2.025 . S
O773 Sc771 2.025 . S
O773 Sc772 2.025 . S
C774 O780 1.268 . S
C774 O790 1.268 . S
C775 O781 1.268 . S
C775 O789 1.268 . S
C776 O782 1.268 . S
C776 O791 1.268 . S
C777 O783 1.268 . S
C777 O787 1.268 . S
C778 O784 1.268 . S
C778 O786 1.268 . S
C779 O785 1.268 . S
C779 O788 1.268 . S
O780 Sc770 2.105 . S
O780 C774 1.268 . S
O781 Sc771 2.105 . S
O781 C775 1.268 . S
O782 Sc772 2.105 . S
O782 C776 1.268 . S
O783 Sc770 2.105 . S
O783 C777 1.268 . S
O784 Sc772 2.105 . S
O784 C778 1.268 . S
O785 Sc771 2.105 . S
O785 C779 1.268 . S
O786 Sc770 2.105 . S
O786 C778 1.268 . S
O787 Sc771 2.105 . S
O787 C777 1.268 . S
O788 Sc772 2.105 . S
O788 C779 1.268 . S
O789 Sc770 2.105 . S
O789 C775 1.268 . S
O790 Sc772 2.105 . S
O790 C774 1.268 . S
O791 Sc771 2.105 . S
O791 C776 1.268 . S
Sc792 O795 2.025 . S
Sc792 O802 2.105 . S
Sc792 O805 2.105 . S
Sc792 O808 2.105 . S
Sc792 O811 2.105 . S
Sc793 O795 2.025 . S
Sc793 O803 2.105 . S
Sc793 O807 2.105 . S
Sc793 O809 2.105 . S
Sc793 O813 2.105 . S
Sc794 O795 2.025 . S
Sc794 O804 2.105 . S
Sc794 O806 2.105 . S
Sc794 O810 2.105 . S
Sc794 O812 2.105 . S
O795 Sc792 2.025 . S
O795 Sc793 2.025 . S
O795 Sc794 2.025 . S
C796 O802 1.268 . S
C796 O812 1.268 . S
C797 O803 1.268 . S
C797 O811 1.268 . S
C798 O804 1.268 . S
C798 O813 1.268 . S
C799 O805 1.268 . S
C799 O809 1.268 . S
C800 O806 1.268 . S
C800 O808 1.268 . S
C801 O807 1.268 . S
C801 O810 1.268 . S
O802 Sc792 2.105 . S
O802 C796 1.268 . S
O803 Sc793 2.105 . S
O803 C797 1.268 . S
O804 Sc794 2.105 . S
O804 C798 1.268 . S
O805 Sc792 2.105 . S
O805 C799 1.268 . S
O806 Sc794 2.105 . S
O806 C800 1.268 . S
O807 Sc793 2.105 . S
O807 C801 1.268 . S
O808 Sc792 2.105 . S
O808 C800 1.268 . S
O809 Sc793 2.105 . S
O809 C799 1.268 . S
O810 Sc794 2.105 . S
O810 C801 1.268 . S
O811 Sc792 2.105 . S
O811 C797 1.268 . S
O812 Sc794 2.105 . S
O812 C796 1.268 . S
O813 Sc793 2.105 . S
O813 C798 1.268 . S
Sc814 O817 2.025 . S
Sc814 O824 2.105 . S
Sc814 O827 2.105 . S
Sc814 O830 2.105 . S
Sc814 O833 2.105 . S
Sc815 O817 2.025 . S
Sc815 O825 2.105 . S
Sc815 O829 2.105 . S
Sc815 O831 2.105 . S
Sc815 O835 2.105 . S
Sc816 O817 2.025 . S
Sc816 O826 2.105 . S
Sc816 O828 2.105 . S
Sc816 O832 2.105 . S
Sc816 O834 2.105 . S
O817 Sc814 2.025 . S
O817 Sc815 2.025 . S
O817 Sc816 2.025 . S
C818 O824 1.268 . S
C818 O834 1.268 . S
C819 O825 1.268 . S
C819 O833 1.268 . S
C820 O826 1.268 . S
C820 O835 1.268 . S
C821 O827 1.268 . S
C821 O831 1.268 . S
C822 O828 1.268 . S
C822 O830 1.268 . S
C823 O829 1.268 . S
C823 O832 1.268 . S
O824 Sc814 2.105 . S
O824 C818 1.268 . S
O825 Sc815 2.105 . S
O825 C819 1.268 . S
O826 Sc816 2.105 . S
O826 C820 1.268 . S
O827 Sc814 2.105 . S
O827 C821 1.268 . S
O828 Sc816 2.105 . S
O828 C822 1.268 . S
O829 Sc815 2.105 . S
O829 C823 1.268 . S
O830 Sc814 2.105 . S
O830 C822 1.268 . S
O831 Sc815 2.105 . S
O831 C821 1.268 . S
O832 Sc816 2.105 . S
O832 C823 1.268 . S
O833 Sc814 2.105 . S
O833 C819 1.268 . S
O834 Sc816 2.105 . S
O834 C818 1.268 . S
O835 Sc815 2.105 . S
O835 C820 1.268 . S
Sc836 O839 2.025 . S
Sc836 O846 2.105 . S
Sc836 O849 2.105 . S
Sc836 O852 2.105 . S
Sc836 O855 2.105 . S
Sc837 O839 2.025 . S
Sc837 O847 2.105 . S
Sc837 O851 2.105 . S
Sc837 O853 2.105 . S
Sc837 O857 2.105 . S
Sc838 O839 2.025 . S
Sc838 O848 2.105 . S
Sc838 O850 2.105 . S
Sc838 O854 2.105 . S
Sc838 O856 2.105 . S
O839 Sc836 2.025 . S
O839 Sc837 2.025 . S
O839 Sc838 2.025 . S
C840 O846 1.268 . S
C840 O856 1.268 . S
C841 O847 1.268 . S
C841 O855 1.268 . S
C842 O848 1.268 . S
C842 O857 1.268 . S
C843 O849 1.268 . S
C843 O853 1.268 . S
C844 O850 1.268 . S
C844 O852 1.268 . S
C845 O851 1.268 . S
C845 O854 1.268 . S
O846 Sc836 2.105 . S
O846 C840 1.268 . S
O847 Sc837 2.105 . S
O847 C841 1.268 . S
O848 Sc838 2.105 . S
O848 C842 1.268 . S
O849 Sc836 2.105 . S
O849 C843 1.268 . S
O850 Sc838 2.105 . S
O850 C844 1.268 . S
O851 Sc837 2.105 . S
O851 C845 1.268 . S
O852 Sc836 2.105 . S
O852 C844 1.268 . S
O853 Sc837 2.105 . S
O853 C843 1.268 . S
O854 Sc838 2.105 . S
O854 C845 1.268 . S
O855 Sc836 2.105 . S
O855 C841 1.268 . S
O856 Sc838 2.105 . S
O856 C840 1.268 . S
O857 Sc837 2.105 . S
O857 C842 1.268 . S
Sc858 O861 2.025 . S
Sc858 O868 2.105 . S
Sc858 O871 2.105 . S
Sc858 O874 2.105 . S
Sc858 O877 2.105 . S
Sc859 O861 2.025 . S
Sc859 O869 2.105 . S
Sc859 O873 2.105 . S
Sc859 O875 2.105 . S
Sc859 O879 2.105 . S
Sc860 O861 2.025 . S
Sc860 O870 2.105 . S
Sc860 O872 2.105 . S
Sc860 O876 2.105 . S
Sc860 O878 2.105 . S
O861 Sc858 2.025 . S
O861 Sc859 2.025 . S
O861 Sc860 2.025 . S
C862 O868 1.268 . S
C862 O878 1.268 . S
C863 O869 1.268 . S
C863 O877 1.268 . S
C864 O870 1.268 . S
C864 O879 1.268 . S
C865 O871 1.268 . S
C865 O875 1.268 . S
C866 O872 1.268 . S
C866 O874 1.268 . S
C867 O873 1.268 . S
C867 O876 1.268 . S
O868 Sc858 2.105 . S
O868 C862 1.268 . S
O869 Sc859 2.105 . S
O869 C863 1.268 . S
O870 Sc860 2.105 . S
O870 C864 1.268 . S
O871 Sc858 2.105 . S
O871 C865 1.268 . S
O872 Sc860 2.105 . S
O872 C866 1.268 . S
O873 Sc859 2.105 . S
O873 C867 1.268 . S
O874 Sc858 2.105 . S
O874 C866 1.268 . S
O875 Sc859 2.105 . S
O875 C865 1.268 . S
O876 Sc860 2.105 . S
O876 C867 1.268 . S
O877 Sc858 2.105 . S
O877 C863 1.268 . S
O878 Sc860 2.105 . S
O878 C862 1.268 . S
O879 Sc859 2.105 . S
O879 C864 1.268 . S
Sc880 O883 2.025 . S
Sc880 O890 2.105 . S
Sc880 O893 2.105 . S
Sc880 O896 2.105 . S
Sc880 O899 2.105 . S
Sc881 O883 2.025 . S
Sc881 O891 2.105 . S
Sc881 O895 2.105 . S
Sc881 O897 2.105 . S
Sc881 O901 2.105 . S
Sc882 O883 2.025 . S
Sc882 O892 2.105 . S
Sc882 O894 2.105 . S
Sc882 O898 2.105 . S
Sc882 O900 2.105 . S
O883 Sc880 2.025 . S
O883 Sc881 2.025 . S
O883 Sc882 2.025 . S
C884 O890 1.268 . S
C884 O900 1.268 . S
C885 O891 1.268 . S
C885 O899 1.268 . S
C886 O892 1.268 . S
C886 O901 1.268 . S
C887 O893 1.268 . S
C887 O897 1.268 . S
C888 O894 1.268 . S
C888 O896 1.268 . S
C889 O895 1.268 . S
C889 O898 1.268 . S
O890 Sc880 2.105 . S
O890 C884 1.268 . S
O891 Sc881 2.105 . S
O891 C885 1.268 . S
O892 Sc882 2.105 . S
O892 C886 1.268 . S
O893 Sc880 2.105 . S
O893 C887 1.268 . S
O894 Sc882 2.105 . S
O894 C888 1.268 . S
O895 Sc881 2.105 . S
O895 C889 1.268 . S
O896 Sc880 2.105 . S
O896 C888 1.268 . S
O897 Sc881 2.105 . S
O897 C887 1.268 . S
O898 Sc882 2.105 . S
O898 C889 1.268 . S
O899 Sc880 2.105 . S
O899 C885 1.268 . S
O900 Sc882 2.105 . S
O900 C884 1.268 . S
O901 Sc881 2.105 . S
O901 C886 1.268 . S
Sc902 O905 2.025 . S
Sc902 O912 2.105 . S
Sc902 O915 2.105 . S
Sc902 O918 2.105 . S
Sc902 O921 2.105 . S
Sc903 O905 2.025 . S
Sc903 O913 2.105 . S
Sc903 O917 2.105 . S
Sc903 O919 2.105 . S
Sc903 O923 2.105 . S
Sc904 O905 2.025 . S
Sc904 O914 2.105 . S
Sc904 O916 2.105 . S
Sc904 O920 2.105 . S
Sc904 O922 2.105 . S
O905 Sc902 2.025 . S
O905 Sc903 2.025 . S
O905 Sc904 2.025 . S
C906 O912 1.268 . S
C906 O922 1.268 . S
C907 O913 1.268 . S
C907 O921 1.268 . S
C908 O914 1.268 . S
C908 O923 1.268 . S
C909 O915 1.268 . S
C909 O919 1.268 . S
C910 O916 1.268 . S
C910 O918 1.268 . S
C911 O917 1.268 . S
C911 O920 1.268 . S
O912 Sc902 2.105 . S
O912 C906 1.268 . S
O913 Sc903 2.105 . S
O913 C907 1.268 . S
O914 Sc904 2.105 . S
O914 C908 1.268 . S
O915 Sc902 2.105 . S
O915 C909 1.268 . S
O916 Sc904 2.105 . S
O916 C910 1.268 . S
O917 Sc903 2.105 . S
O917 C911 1.268 . S
O918 Sc902 2.105 . S
O918 C910 1.268 . S
O919 Sc903 2.105 . S
O919 C909 1.268 . S
O920 Sc904 2.105 . S
O920 C911 1.268 . S
O921 Sc902 2.105 . S
O921 C907 1.268 . S
O922 Sc904 2.105 . S
O922 C906 1.268 . S
O923 Sc903 2.105 . S
O923 C908 1.268 . S
Sc924 O927 2.025 . S
Sc924 O934 2.105 . S
Sc924 O937 2.105 . S
Sc924 O940 2.105 . S
Sc924 O943 2.105 . S
Sc925 O927 2.025 . S
Sc925 O935 2.105 . S
Sc925 O939 2.105 . S
Sc925 O941 2.105 . S
Sc925 O945 2.105 . S
Sc926 O927 2.025 . S
Sc926 O936 2.105 . S
Sc926 O938 2.105 . S
Sc926 O942 2.105 . S
Sc926 O944 2.105 . S
O927 Sc924 2.025 . S
O927 Sc925 2.025 . S
O927 Sc926 2.025 . S
C928 O934 1.268 . S
C928 O944 1.268 . S
C929 O935 1.268 . S
C929 O943 1.268 . S
C930 O936 1.268 . S
C930 O945 1.268 . S
C931 O937 1.268 . S
C931 O941 1.268 . S
C932 O938 1.268 . S
C932 O940 1.268 . S
C933 O939 1.268 . S
C933 O942 1.268 . S
O934 Sc924 2.105 . S
O934 C928 1.268 . S
O935 Sc925 2.105 . S
O935 C929 1.268 . S
O936 Sc926 2.105 . S
O936 C930 1.268 . S
O937 Sc924 2.105 . S
O937 C931 1.268 . S
O938 Sc926 2.105 . S
O938 C932 1.268 . S
O939 Sc925 2.105 . S
O939 C933 1.268 . S
O940 Sc924 2.105 . S
O940 C932 1.268 . S
O941 Sc925 2.105 . S
O941 C931 1.268 . S
O942 Sc926 2.105 . S
O942 C933 1.268 . S
O943 Sc924 2.105 . S
O943 C929 1.268 . S
O944 Sc926 2.105 . S
O944 C928 1.268 . S
O945 Sc925 2.105 . S
O945 C930 1.268 . S
Sc946 O949 2.025 . S
Sc946 O956 2.105 . S
Sc946 O959 2.105 . S
Sc946 O962 2.105 . S
Sc946 O965 2.105 . S
Sc947 O949 2.025 . S
Sc947 O957 2.105 . S
Sc947 O961 2.105 . S
Sc947 O963 2.105 . S
Sc947 O967 2.105 . S
Sc948 O949 2.025 . S
Sc948 O958 2.105 . S
Sc948 O960 2.105 . S
Sc948 O964 2.105 . S
Sc948 O966 2.105 . S
O949 Sc946 2.025 . S
O949 Sc947 2.025 . S
O949 Sc948 2.025 . S
C950 O956 1.268 . S
C950 O966 1.268 . S
C951 O957 1.268 . S
C951 O965 1.268 . S
C952 O958 1.268 . S
C952 O967 1.268 . S
C953 O959 1.268 . S
C953 O963 1.268 . S
C954 O960 1.268 . S
C954 O962 1.268 . S
C955 O961 1.268 . S
C955 O964 1.268 . S
O956 Sc946 2.105 . S
O956 C950 1.268 . S
O957 Sc947 2.105 . S
O957 C951 1.268 . S
O958 Sc948 2.105 . S
O958 C952 1.268 . S
O959 Sc946 2.105 . S
O959 C953 1.268 . S
O960 Sc948 2.105 . S
O960 C954 1.268 . S
O961 Sc947 2.105 . S
O961 C955 1.268 . S
O962 Sc946 2.105 . S
O962 C954 1.268 . S
O963 Sc947 2.105 . S
O963 C953 1.268 . S
O964 Sc948 2.105 . S
O964 C955 1.268 . S
O965 Sc946 2.105 . S
O965 C951 1.268 . S
O966 Sc948 2.105 . S
O966 C950 1.268 . S
O967 Sc947 2.105 . S
O967 C952 1.268 . S
Sc968 O971 2.025 . S
Sc968 O978 2.105 . S
Sc968 O981 2.105 . S
Sc968 O984 2.105 . S
Sc968 O987 2.105 . S
Sc969 O971 2.025 . S
Sc969 O979 2.105 . S
Sc969 O983 2.105 . S
Sc969 O985 2.105 . S
Sc969 O989 2.105 . S
Sc970 O971 2.025 . S
Sc970 O980 2.105 . S
Sc970 O982 2.105 . S
Sc970 O986 2.105 . S
Sc970 O988 2.105 . S
O971 Sc968 2.025 . S
O971 Sc969 2.025 . S
O971 Sc970 2.025 . S
C972 O978 1.268 . S
C972 O988 1.268 . S
C973 O979 1.268 . S
C973 O987 1.268 . S
C974 O980 1.268 . S
C974 O989 1.268 . S
C975 O981 1.268 . S
C975 O985 1.268 . S
C976 O982 1.268 . S
C976 O984 1.268 . S
C977 O983 1.268 . S
C977 O986 1.268 . S
O978 Sc968 2.105 . S
O978 C972 1.268 . S
O979 Sc969 2.105 . S
O979 C973 1.268 . S
O980 Sc970 2.105 . S
O980 C974 1.268 . S
O981 Sc968 2.105 . S
O981 C975 1.268 . S
O982 Sc970 2.105 . S
O982 C976 1.268 . S
O983 Sc969 2.105 . S
O983 C977 1.268 . S
O984 Sc968 2.105 . S
O984 C976 1.268 . S
O985 Sc969 2.105 . S
O985 C975 1.268 . S
O986 Sc970 2.105 . S
O986 C977 1.268 . S
O987 Sc968 2.105 . S
O987 C973 1.268 . S
O988 Sc970 2.105 . S
O988 C972 1.268 . S
O989 Sc969 2.105 . S
O989 C974 1.268 . S
Sc990 O993 2.025 . S
Sc990 O1000 2.105 . S
Sc990 O1003 2.105 . S
Sc990 O1006 2.105 . S
Sc990 O1009 2.105 . S
Sc991 O993 2.025 . S
Sc991 O1001 2.105 . S
Sc991 O1005 2.105 . S
Sc991 O1007 2.105 . S
Sc991 O1011 2.105 . S
Sc992 O993 2.025 . S
Sc992 O1002 2.105 . S
Sc992 O1004 2.105 . S
Sc992 O1008 2.105 . S
Sc992 O1010 2.105 . S
O993 Sc990 2.025 . S
O993 Sc991 2.025 . S
O993 Sc992 2.025 . S
C994 O1000 1.268 . S
C994 O1010 1.268 . S
C995 O1001 1.268 . S
C995 O1009 1.268 . S
C996 O1002 1.268 . S
C996 O1011 1.268 . S
C997 O1003 1.268 . S
C997 O1007 1.268 . S
C998 O1004 1.268 . S
C998 O1006 1.268 . S
C999 O1005 1.268 . S
C999 O1008 1.268 . S
O1000 Sc990 2.105 . S
O1000 C994 1.268 . S
O1001 Sc991 2.105 . S
O1001 C995 1.268 . S
O1002 Sc992 2.105 . S
O1002 C996 1.268 . S
O1003 Sc990 2.105 . S
O1003 C997 1.268 . S
O1004 Sc992 2.105 . S
O1004 C998 1.268 . S
O1005 Sc991 2.105 . S
O1005 C999 1.268 . S
O1006 Sc990 2.105 . S
O1006 C998 1.268 . S
O1007 Sc991 2.105 . S
O1007 C997 1.268 . S
O1008 Sc992 2.105 . S
O1008 C999 1.268 . S
O1009 Sc990 2.105 . S
O1009 C995 1.268 . S
O1010 Sc992 2.105 . S
O1010 C994 1.268 . S
O1011 Sc991 2.105 . S
O1011 C996 1.268 . S
Sc1012 O1015 2.025 . S
Sc1012 O1022 2.105 . S
Sc1012 O1025 2.105 . S
Sc1012 O1028 2.105 . S
Sc1012 O1031 2.105 . S
Sc1013 O1015 2.025 . S
Sc1013 O1023 2.105 . S
Sc1013 O1027 2.105 . S
Sc1013 O1029 2.105 . S
Sc1013 O1033 2.105 . S
Sc1014 O1015 2.025 . S
Sc1014 O1024 2.105 . S
Sc1014 O1026 2.105 . S
Sc1014 O1030 2.105 . S
Sc1014 O1032 2.105 . S
O1015 Sc1012 2.025 . S
O1015 Sc1013 2.025 . S
O1015 Sc1014 2.025 . S
C1016 O1022 1.268 . S
C1016 O1032 1.268 . S
C1017 O1023 1.268 . S
C1017 O1031 1.268 . S
C1018 O1024 1.268 . S
C1018 O1033 1.268 . S
C1019 O1025 1.268 . S
C1019 O1029 1.268 . S
C1020 O1026 1.268 . S
C1020 O1028 1.268 . S
C1021 O1027 1.268 . S
C1021 O1030 1.268 . S
O1022 Sc1012 2.105 . S
O1022 C1016 1.268 . S
O1023 Sc1013 2.105 . S
O1023 C1017 1.268 . S
O1024 Sc1014 2.105 . S
O1024 C1018 1.268 . S
O1025 Sc1012 2.105 . S
O1025 C1019 1.268 . S
O1026 Sc1014 2.105 . S
O1026 C1020 1.268 . S
O1027 Sc1013 2.105 . S
O1027 C1021 1.268 . S
O1028 Sc1012 2.105 . S
O1028 C1020 1.268 . S
O1029 Sc1013 2.105 . S
O1029 C1019 1.268 . S
O1030 Sc1014 2.105 . S
O1030 C1021 1.268 . S
O1031 Sc1012 2.105 . S
O1031 C1017 1.268 . S
O1032 Sc1014 2.105 . S
O1032 C1016 1.268 . S
O1033 Sc1013 2.105 . S
O1033 C1018 1.268 . S
Sc1034 O1037 2.025 . S
Sc1034 O1044 2.105 . S
Sc1034 O1047 2.105 . S
Sc1034 O1050 2.105 . S
Sc1034 O1053 2.105 . S
Sc1035 O1037 2.025 . S
Sc1035 O1045 2.105 . S
Sc1035 O1049 2.105 . S
Sc1035 O1051 2.105 . S
Sc1035 O1055 2.105 . S
Sc1036 O1037 2.025 . S
Sc1036 O1046 2.105 . S
Sc1036 O1048 2.105 . S
Sc1036 O1052 2.105 . S
Sc1036 O1054 2.105 . S
O1037 Sc1034 2.025 . S
O1037 Sc1035 2.025 . S
O1037 Sc1036 2.025 . S
C1038 O1044 1.268 . S
C1038 O1054 1.268 . S
C1039 O1045 1.268 . S
C1039 O1053 1.268 . S
C1040 O1046 1.268 . S
C1040 O1055 1.268 . S
C1041 O1047 1.268 . S
C1041 O1051 1.268 . S
C1042 O1048 1.268 . S
C1042 O1050 1.268 . S
C1043 O1049 1.268 . S
C1043 O1052 1.268 . S
O1044 Sc1034 2.105 . S
O1044 C1038 1.268 . S
O1045 Sc1035 2.105 . S
O1045 C1039 1.268 . S
O1046 Sc1036 2.105 . S
O1046 C1040 1.268 . S
O1047 Sc1034 2.105 . S
O1047 C1041 1.268 . S
O1048 Sc1036 2.105 . S
O1048 C1042 1.268 . S
O1049 Sc1035 2.105 . S
O1049 C1043 1.268 . S
O1050 Sc1034 2.105 . S
O1050 C1042 1.268 . S
O1051 Sc1035 2.105 . S
O1051 C1041 1.268 . S
O1052 Sc1036 2.105 . S
O1052 C1043 1.268 . S
O1053 Sc1034 2.105 . S
O1053 C1039 1.268 . S
O1054 Sc1036 2.105 . S
O1054 C1038 1.268 . S
O1055 Sc1035 2.105 . S
O1055 C1040 1.268 . S
H1056 C1064 0.950 . S
H1057 C1069 0.950 . S
H1058 C1066 0.950 . S
H1059 C1068 0.950 1_655 S
H1060 C1070 0.950 . S
H1061 C1072 0.950 . S
H1062 C1074 0.950 1_455 S
H1063 C1075 0.950 . S
C1064 H1056 0.950 . S
C1064 C1065 1.386 . S
C1064 C1066 1.391 . S
C1065 C1064 1.386 . S
C1065 C1069 1.393 . S
C1066 H1058 0.950 . S
C1066 C1064 1.391 . S
C1066 C1067 1.400 . S
C1067 C1066 1.400 . S
C1067 C1068 1.398 . S
C1067 C1073 1.491 1_455 S
C1068 H1059 0.950 1_455 S
C1068 C1067 1.398 . S
C1068 C1069 1.391 . S
C1069 H1057 0.950 . S
C1069 C1065 1.393 . S
C1069 C1068 1.391 . S
C1070 H1060 0.950 . S
C1070 C1071 1.386 . S
C1070 C1072 1.391 . S
C1071 C1070 1.386 . S
C1071 C1075 1.393 . S
C1072 H1061 0.950 . S
C1072 C1070 1.391 . S
C1072 C1073 1.400 . S
C1073 C1067 1.491 1_655 S
C1073 C1072 1.400 . S
C1073 C1074 1.398 . S
C1074 H1062 0.950 1_655 S
C1074 C1073 1.398 . S
C1074 C1075 1.391 . S
C1075 H1063 0.950 . S
C1075 C1071 1.393 . S
C1075 C1074 1.391 . S
H1076 C1084 0.950 . S
H1077 C1089 0.950 . S
H1078 C1086 0.950 . S
H1079 C1088 0.950 . S
H1080 C1090 0.950 . S
H1081 C1092 0.950 . S
H1082 C1094 0.950 . S
H1083 C1095 0.950 . S
C1084 H1076 0.950 . S
C1084 C1085 1.386 . S
C1084 C1086 1.391 . S
C1085 C1084 1.386 . S
C1085 C1089 1.393 . S
C1086 H1078 0.950 . S
C1086 C1084 1.391 . S
C1086 C1087 1.400 . S
C1087 C1086 1.400 . S
C1087 C1088 1.398 . S
C1087 C1093 1.491 1_655 S
C1088 H1079 0.950 . S
C1088 C1087 1.398 . S
C1088 C1089 1.391 . S
C1089 H1077 0.950 . S
C1089 C1085 1.393 . S
C1089 C1088 1.391 . S
C1090 H1080 0.950 . S
C1090 C1091 1.386 . S
C1090 C1092 1.391 . S
C1091 C1090 1.386 . S
C1091 C1095 1.393 . S
C1092 H1081 0.950 . S
C1092 C1090 1.391 . S
C1092 C1093 1.400 . S
C1093 C1087 1.491 1_455 S
C1093 C1092 1.400 . S
C1093 C1094 1.398 . S
C1094 H1082 0.950 . S
C1094 C1093 1.398 . S
C1094 C1095 1.391 . S
C1095 H1083 0.950 . S
C1095 C1091 1.393 . S
C1095 C1094 1.391 . S
H1096 C1104 0.950 . S
H1097 C1109 0.950 . S
H1098 C1106 0.950 . S
H1099 C1108 0.950 . S
H1100 C1110 0.950 . S
H1101 C1112 0.950 . S
H1102 C1114 0.950 . S
H1103 C1115 0.950 . S
C1104 H1096 0.950 . S
C1104 C1105 1.386 . S
C1104 C1106 1.391 . S
C1105 C1104 1.386 . S
C1105 C1109 1.393 . S
C1106 H1098 0.950 . S
C1106 C1104 1.391 . S
C1106 C1107 1.400 . S
C1107 C1106 1.400 . S
C1107 C1108 1.398 . S
C1107 C1113 1.491 1_545 S
C1108 H1099 0.950 . S
C1108 C1107 1.398 . S
C1108 C1109 1.391 . S
C1109 H1097 0.950 . S
C1109 C1105 1.393 . S
C1109 C1108 1.391 . S
C1110 H1100 0.950 . S
C1110 C1111 1.386 . S
C1110 C1112 1.391 . S
C1111 C1110 1.386 . S
C1111 C1115 1.393 . S
C1112 H1101 0.950 . S
C1112 C1110 1.391 . S
C1112 C1113 1.400 . S
C1113 C1107 1.491 1_565 S
C1113 C1112 1.400 . S
C1113 C1114 1.398 . S
C1114 H1102 0.950 . S
C1114 C1113 1.398 . S
C1114 C1115 1.391 . S
C1115 H1103 0.950 . S
C1115 C1111 1.393 . S
C1115 C1114 1.391 . S
H1116 C1124 0.950 . S
H1117 C1129 0.950 . S
H1118 C1126 0.950 . S
H1119 C1128 0.950 . S
H1120 C1130 0.950 . S
H1121 C1132 0.950 . S
H1122 C1134 0.950 . S
H1123 C1135 0.950 . S
C1124 H1116 0.950 . S
C1124 C1125 1.386 . S
C1124 C1126 1.391 . S
C1125 C1124 1.386 . S
C1125 C1129 1.393 . S
C1126 H1118 0.950 . S
C1126 C1124 1.391 . S
C1126 C1127 1.400 . S
C1127 C1126 1.400 . S
C1127 C1128 1.398 . S
C1127 C1133 1.491 . S
C1128 H1119 0.950 . S
C1128 C1127 1.398 . S
C1128 C1129 1.391 . S
C1129 H1117 0.950 . S
C1129 C1125 1.393 . S
C1129 C1128 1.391 . S
C1130 H1120 0.950 . S
C1130 C1131 1.386 . S
C1130 C1132 1.391 . S
C1131 C1130 1.386 . S
C1131 C1135 1.393 . S
C1132 H1121 0.950 . S
C1132 C1130 1.391 . S
C1132 C1133 1.400 . S
C1133 C1127 1.491 . S
C1133 C1132 1.400 . S
C1133 C1134 1.398 . S
C1134 H1122 0.950 . S
C1134 C1133 1.398 . S
C1134 C1135 1.391 . S
C1135 H1123 0.950 . S
C1135 C1131 1.393 . S
C1135 C1134 1.391 . S
H1136 C1144 0.950 . S
H1137 C1149 0.950 . S
H1138 C1146 0.950 . S
H1139 C1148 0.950 1_554 S
H1140 C1150 0.950 . S
H1141 C1152 0.950 . S
H1142 C1154 0.950 1_556 S
H1143 C1155 0.950 . S
C1144 H1136 0.950 . S
C1144 C1145 1.386 . S
C1144 C1146 1.391 . S
C1145 C1144 1.386 . S
C1145 C1149 1.393 . S
C1146 H1138 0.950 . S
C1146 C1144 1.391 . S
C1146 C1147 1.400 . S
C1147 C1146 1.400 . S
C1147 C1148 1.398 . S
C1147 C1153 1.491 1_556 S
C1148 H1139 0.950 1_556 S
C1148 C1147 1.398 . S
C1148 C1149 1.391 . S
C1149 H1137 0.950 . S
C1149 C1145 1.393 . S
C1149 C1148 1.391 . S
C1150 H1140 0.950 . S
C1150 C1151 1.386 . S
C1150 C1152 1.391 . S
C1151 C1150 1.386 . S
C1151 C1155 1.393 . S
C1152 H1141 0.950 . S
C1152 C1150 1.391 . S
C1152 C1153 1.400 . S
C1153 C1147 1.491 1_554 S
C1153 C1152 1.400 . S
C1153 C1154 1.398 . S
C1154 H1142 0.950 1_554 S
C1154 C1153 1.398 . S
C1154 C1155 1.391 . S
C1155 H1143 0.950 . S
C1155 C1151 1.393 . S
C1155 C1154 1.391 . S
H1156 C1164 0.950 . S
H1157 C1169 0.950 . S
H1158 C1166 0.950 . S
H1159 C1168 0.950 . S
H1160 C1170 0.950 . S
H1161 C1172 0.950 . S
H1162 C1174 0.950 . S
H1163 C1175 0.950 . S
C1164 H1156 0.950 . S
C1164 C1165 1.386 . S
C1164 C1166 1.391 . S
C1165 C1164 1.386 . S
C1165 C1169 1.393 . S
C1166 H1158 0.950 . S
C1166 C1164 1.391 . S
C1166 C1167 1.400 . S
C1167 C1166 1.400 . S
C1167 C1168 1.398 . S
C1167 C1173 1.491 . S
C1168 H1159 0.950 . S
C1168 C1167 1.398 . S
C1168 C1169 1.391 . S
C1169 H1157 0.950 . S
C1169 C1165 1.393 . S
C1169 C1168 1.391 . S
C1170 H1160 0.950 . S
C1170 C1171 1.386 . S
C1170 C1172 1.391 . S
C1171 C1170 1.386 . S
C1171 C1175 1.393 . S
C1172 H1161 0.950 . S
C1172 C1170 1.391 . S
C1172 C1173 1.400 . S
C1173 C1167 1.491 . S
C1173 C1172 1.400 . S
C1173 C1174 1.398 . S
C1174 H1162 0.950 . S
C1174 C1173 1.398 . S
C1174 C1175 1.391 . S
C1175 H1163 0.950 . S
C1175 C1171 1.393 . S
C1175 C1174 1.391 . S
H1176 C1184 0.950 . S
H1177 C1189 0.950 . S
H1178 C1186 0.950 . S
H1179 C1188 0.950 . S
H1180 C1190 0.950 . S
H1181 C1192 0.950 . S
H1182 C1194 0.950 . S
H1183 C1195 0.950 . S
C1184 H1176 0.950 . S
C1184 C1185 1.386 . S
C1184 C1186 1.391 . S
C1185 C1184 1.386 . S
C1185 C1189 1.393 . S
C1186 H1178 0.950 . S
C1186 C1184 1.391 . S
C1186 C1187 1.400 . S
C1187 C1186 1.400 . S
C1187 C1188 1.398 . S
C1187 C1193 1.491 . S
C1188 H1179 0.950 . S
C1188 C1187 1.398 . S
C1188 C1189 1.391 . S
C1189 H1177 0.950 . S
C1189 C1185 1.393 . S
C1189 C1188 1.391 . S
C1190 H1180 0.950 . S
C1190 C1191 1.386 . S
C1190 C1192 1.391 . S
C1191 C1190 1.386 . S
C1191 C1195 1.393 . S
C1192 H1181 0.950 . S
C1192 C1190 1.391 . S
C1192 C1193 1.400 . S
C1193 C1187 1.491 . S
C1193 C1192 1.400 . S
C1193 C1194 1.398 . S
C1194 H1182 0.950 . S
C1194 C1193 1.398 . S
C1194 C1195 1.391 . S
C1195 H1183 0.950 . S
C1195 C1191 1.393 . S
C1195 C1194 1.391 . S
H1196 C1204 0.950 . S
H1197 C1209 0.950 . S
H1198 C1206 0.942 1_455 S
H1199 C1208 0.950 . S
H1200 C1210 0.950 . S
H1201 C1212 0.942 1_655 S
H1202 C1214 0.950 . S
H1203 C1215 0.950 . S
C1204 H1196 0.950 . S
C1204 C1205 1.386 . S
C1204 C1206 1.391 . S
C1205 C1204 1.386 . S
C1205 C1209 1.393 . S
C1206 H1198 0.942 1_655 S
C1206 C1204 1.391 . S
C1206 C1207 1.400 . S
C1207 C1206 1.400 . S
C1207 C1208 1.398 . S
C1207 C1213 1.491 1_655 S
C1208 H1199 0.950 . S
C1208 C1207 1.398 . S
C1208 C1209 1.391 . S
C1209 H1197 0.950 . S
C1209 C1205 1.393 . S
C1209 C1208 1.391 . S
C1210 H1200 0.950 . S
C1210 C1211 1.386 . S
C1210 C1212 1.391 . S
C1211 C1210 1.386 . S
C1211 C1215 1.393 . S
C1212 H1201 0.942 1_455 S
C1212 C1210 1.391 . S
C1212 C1213 1.400 . S
C1213 C1207 1.491 1_455 S
C1213 C1212 1.400 . S
C1213 C1214 1.398 . S
C1214 H1202 0.950 . S
C1214 C1213 1.398 . S
C1214 C1215 1.391 . S
C1215 H1203 0.950 . S
C1215 C1211 1.393 . S
C1215 C1214 1.391 . S
H1216 C1224 0.950 . S
H1217 C1229 0.950 . S
H1218 C1226 0.950 . S
H1219 C1228 0.950 . S
H1220 C1230 0.950 . S
H1221 C1232 0.950 . S
H1222 C1234 0.950 . S
H1223 C1235 0.950 . S
C1224 H1216 0.950 . S
C1224 C1225 1.386 . S
C1224 C1226 1.391 . S
C1225 C1224 1.386 . S
C1225 C1229 1.393 . S
C1226 H1218 0.950 . S
C1226 C1224 1.391 . S
C1226 C1227 1.400 . S
C1227 C1226 1.400 . S
C1227 C1228 1.398 1_655 S
C1227 C1233 1.491 1_655 S
C1228 H1219 0.950 . S
C1228 C1227 1.398 1_455 S
C1228 C1229 1.391 1_455 S
C1229 H1217 0.950 . S
C1229 C1225 1.393 . S
C1229 C1228 1.391 1_655 S
C1230 H1220 0.950 . S
C1230 C1231 1.386 . S
C1230 C1232 1.391 . S
C1231 C1230 1.386 . S
C1231 C1235 1.393 . S
C1232 H1221 0.950 . S
C1232 C1230 1.391 . S
C1232 C1233 1.400 . S
C1233 C1227 1.491 1_455 S
C1233 C1232 1.400 . S
C1233 C1234 1.398 1_455 S
C1234 H1222 0.950 . S
C1234 C1233 1.398 1_655 S
C1234 C1235 1.391 1_655 S
C1235 H1223 0.950 . S
C1235 C1231 1.393 . S
C1235 C1234 1.391 1_455 S
H1236 C1244 0.950 . S
H1237 C1249 0.950 . S
H1238 C1246 0.950 . S
H1239 C1248 0.950 . S
H1240 C1250 0.950 . S
H1241 C1252 0.950 . S
H1242 C1254 0.950 . S
H1243 C1255 0.950 . S
C1244 H1236 0.950 . S
C1244 C1245 1.386 . S
C1244 C1246 1.391 . S
C1245 C1244 1.386 . S
C1245 C1249 1.393 . S
C1246 H1238 0.950 . S
C1246 C1244 1.391 . S
C1246 C1247 1.400 . S
C1247 C1246 1.400 . S
C1247 C1248 1.398 . S
C1247 C1253 1.491 1_565 S
C1248 H1239 0.950 . S
C1248 C1247 1.398 . S
C1248 C1249 1.391 . S
C1249 H1237 0.950 . S
C1249 C1245 1.393 . S
C1249 C1248 1.391 . S
C1250 H1240 0.950 . S
C1250 C1251 1.386 . S
C1250 C1252 1.391 . S
C1251 C1250 1.386 . S
C1251 C1255 1.393 . S
C1252 H1241 0.950 . S
C1252 C1250 1.391 . S
C1252 C1253 1.400 . S
C1253 C1247 1.491 1_545 S
C1253 C1252 1.400 . S
C1253 C1254 1.398 . S
C1254 H1242 0.950 . S
C1254 C1253 1.398 . S
C1254 C1255 1.391 . S
C1255 H1243 0.950 . S
C1255 C1251 1.393 . S
C1255 C1254 1.391 . S
H1256 C1264 0.950 . S
H1257 C1269 0.950 . S
H1258 C1266 0.950 . S
H1259 C1268 0.950 . S
H1260 C1270 0.950 . S
H1261 C1272 0.950 . S
H1262 C1274 0.950 . S
H1263 C1275 0.950 . S
C1264 H1256 0.950 . S
C1264 C1265 1.386 . S
C1264 C1266 1.391 . S
C1265 C1264 1.386 . S
C1265 C1269 1.393 . S
C1266 H1258 0.950 . S
C1266 C1264 1.391 . S
C1266 C1267 1.400 . S
C1267 C1266 1.400 . S
C1267 C1268 1.398 . S
C1267 C1273 1.491 . S
C1268 H1259 0.950 . S
C1268 C1267 1.398 . S
C1268 C1269 1.391 . S
C1269 H1257 0.950 . S
C1269 C1265 1.393 . S
C1269 C1268 1.391 . S
C1270 H1260 0.950 . S
C1270 C1271 1.386 . S
C1270 C1272 1.391 . S
C1271 C1270 1.386 . S
C1271 C1275 1.393 . S
C1272 H1261 0.950 . S
C1272 C1270 1.391 . S
C1272 C1273 1.400 . S
C1273 C1267 1.491 . S
C1273 C1272 1.400 . S
C1273 C1274 1.398 . S
C1274 H1262 0.950 . S
C1274 C1273 1.398 . S
C1274 C1275 1.391 . S
C1275 H1263 0.950 . S
C1275 C1271 1.393 . S
C1275 C1274 1.391 . S
H1276 C1284 0.950 . S
H1277 C1289 0.950 . S
H1278 C1286 0.950 . S
H1279 C1288 0.950 1_556 S
H1280 C1290 0.950 . S
H1281 C1292 0.950 . S
H1282 C1294 0.950 1_554 S
H1283 C1295 0.950 . S
C1284 H1276 0.950 . S
C1284 C1285 1.386 . S
C1284 C1286 1.391 . S
C1285 C1284 1.386 . S
C1285 C1289 1.393 . S
C1286 H1278 0.950 . S
C1286 C1284 1.391 . S
C1286 C1287 1.400 . S
C1287 C1286 1.400 . S
C1287 C1288 1.398 . S
C1287 C1293 1.491 1_554 S
C1288 H1279 0.950 1_554 S
C1288 C1287 1.398 . S
C1288 C1289 1.391 . S
C1289 H1277 0.950 . S
C1289 C1285 1.393 . S
C1289 C1288 1.391 . S
C1290 H1280 0.950 . S
C1290 C1291 1.386 . S
C1290 C1292 1.391 . S
C1291 C1290 1.386 . S
C1291 C1295 1.393 . S
C1292 H1281 0.950 . S
C1292 C1290 1.391 . S
C1292 C1293 1.400 . S
C1293 C1287 1.491 1_556 S
C1293 C1292 1.400 . S
C1293 C1294 1.398 . S
C1294 H1282 0.950 1_556 S
C1294 C1293 1.398 . S
C1294 C1295 1.391 . S
C1295 H1283 0.950 . S
C1295 C1291 1.393 . S
C1295 C1294 1.391 . S
H1296 C1304 0.950 . S
H1297 C1309 0.950 . S
H1298 C1306 0.950 . S
H1299 C1308 0.950 . S
H1300 C1310 0.950 . S
H1301 C1312 0.950 . S
H1302 C1314 0.950 . S
H1303 C1315 0.950 . S
C1304 H1296 0.950 . S
C1304 C1305 1.386 . S
C1304 C1306 1.391 . S
C1305 C1304 1.386 . S
C1305 C1309 1.393 . S
C1306 H1298 0.950 . S
C1306 C1304 1.391 . S
C1306 C1307 1.400 . S
C1307 C1306 1.400 . S
C1307 C1308 1.398 . S
C1307 C1313 1.491 . S
C1308 H1299 0.950 . S
C1308 C1307 1.398 . S
C1308 C1309 1.391 . S
C1309 H1297 0.950 . S
C1309 C1305 1.393 . S
C1309 C1308 1.391 . S
C1310 H1300 0.950 . S
C1310 C1311 1.386 . S
C1310 C1312 1.391 . S
C1311 C1310 1.386 . S
C1311 C1315 1.393 . S
C1312 H1301 0.950 . S
C1312 C1310 1.391 . S
C1312 C1313 1.400 . S
C1313 C1307 1.491 . S
C1313 C1312 1.400 . S
C1313 C1314 1.398 . S
C1314 H1302 0.950 . S
C1314 C1313 1.398 . S
C1314 C1315 1.391 . S
C1315 H1303 0.950 . S
C1315 C1311 1.393 . S
C1315 C1314 1.391 . S
H1316 C1324 0.950 . S
H1317 C1329 0.950 . S
H1318 C1326 0.950 . S
H1319 C1328 0.950 . S
H1320 C1330 0.950 . S
H1321 C1332 0.950 . S
H1322 C1334 0.950 . S
H1323 C1335 0.950 . S
C1324 H1316 0.950 . S
C1324 C1325 1.386 . S
C1324 C1326 1.391 . S
C1325 C1324 1.386 . S
C1325 C1329 1.393 . S
C1326 H1318 0.950 . S
C1326 C1324 1.391 . S
C1326 C1327 1.400 . S
C1327 C1326 1.400 . S
C1327 C1328 1.398 . S
C1327 C1333 1.491 . S
C1328 H1319 0.950 . S
C1328 C1327 1.398 . S
C1328 C1329 1.391 . S
C1329 H1317 0.950 . S
C1329 C1325 1.393 . S
C1329 C1328 1.391 . S
C1330 H1320 0.950 . S
C1330 C1331 1.386 . S
C1330 C1332 1.391 . S
C1331 C1330 1.386 . S
C1331 C1335 1.393 . S
C1332 H1321 0.950 . S
C1332 C1330 1.391 . S
C1332 C1333 1.400 . S
C1333 C1327 1.491 . S
C1333 C1332 1.400 . S
C1333 C1334 1.398 . S
C1334 H1322 0.950 . S
C1334 C1333 1.398 . S
C1334 C1335 1.391 . S
C1335 H1323 0.950 . S
C1335 C1331 1.393 . S
C1335 C1334 1.391 . S
H1336 C1344 0.950 . S
H1337 C1349 0.950 . S
H1338 C1346 0.950 . S
H1339 C1348 0.950 . S
H1340 C1350 0.950 . S
H1341 C1352 0.950 . S
H1342 C1354 0.950 . S
H1343 C1355 0.950 . S
C1344 H1336 0.950 . S
C1344 C1345 1.386 . S
C1344 C1346 1.391 . S
C1345 C1344 1.386 . S
C1345 C1349 1.393 . S
C1346 H1338 0.950 . S
C1346 C1344 1.391 . S
C1346 C1347 1.400 . S
C1347 C1346 1.400 . S
C1347 C1348 1.398 . S
C1347 C1353 1.491 . S
C1348 H1339 0.950 . S
C1348 C1347 1.398 . S
C1348 C1349 1.391 . S
C1349 H1337 0.950 . S
C1349 C1345 1.393 . S
C1349 C1348 1.391 . S
C1350 H1340 0.950 . S
C1350 C1351 1.386 . S
C1350 C1352 1.391 . S
C1351 C1350 1.386 . S
C1351 C1355 1.393 . S
C1352 H1341 0.950 . S
C1352 C1350 1.391 . S
C1352 C1353 1.400 . S
C1353 C1347 1.491 . S
C1353 C1352 1.400 . S
C1353 C1354 1.398 . S
C1354 H1342 0.950 . S
C1354 C1353 1.398 . S
C1354 C1355 1.391 . S
C1355 H1343 0.950 . S
C1355 C1351 1.393 . S
C1355 C1354 1.391 . S
H1356 C1364 0.950 . S
H1357 C1369 0.950 . S
H1358 C1366 0.950 . S
H1359 C1368 0.950 . S
H1360 C1370 0.950 . S
H1361 C1372 0.950 . S
H1362 C1374 0.950 . S
H1363 C1375 0.950 . S
C1364 H1356 0.950 . S
C1364 C1365 1.386 . S
C1364 C1366 1.391 . S
C1365 C1364 1.386 . S
C1365 C1369 1.393 . S
C1366 H1358 0.950 . S
C1366 C1364 1.391 . S
C1366 C1367 1.400 . S
C1367 C1366 1.400 . S
C1367 C1368 1.398 . S
C1367 C1373 1.491 . S
C1368 H1359 0.950 . S
C1368 C1367 1.398 . S
C1368 C1369 1.391 . S
C1369 H1357 0.950 . S
C1369 C1365 1.393 . S
C1369 C1368 1.391 . S
C1370 H1360 0.950 . S
C1370 C1371 1.386 . S
C1370 C1372 1.391 . S
C1371 C1370 1.386 . S
C1371 C1375 1.393 . S
C1372 H1361 0.950 . S
C1372 C1370 1.391 . S
C1372 C1373 1.400 . S
C1373 C1367 1.491 . S
C1373 C1372 1.400 . S
C1373 C1374 1.398 . S
C1374 H1362 0.950 . S
C1374 C1373 1.398 . S
C1374 C1375 1.391 . S
C1375 H1363 0.950 . S
C1375 C1371 1.393 . S
C1375 C1374 1.391 . S
H1376 C1384 0.950 . S
H1377 C1389 0.950 . S
H1378 C1386 0.950 . S
H1379 C1388 0.950 . S
H1380 C1390 0.950 . S
H1381 C1392 0.950 . S
H1382 C1394 0.950 . S
H1383 C1395 0.950 . S
C1384 H1376 0.950 . S
C1384 C1385 1.386 . S
C1384 C1386 1.391 . S
C1385 C1384 1.386 . S
C1385 C1389 1.393 . S
C1386 H1378 0.950 . S
C1386 C1384 1.391 . S
C1386 C1387 1.400 . S
C1387 C1386 1.400 . S
C1387 C1388 1.398 . S
C1387 C1393 1.491 . S
C1388 H1379 0.950 . S
C1388 C1387 1.398 . S
C1388 C1389 1.391 . S
C1389 H1377 0.950 . S
C1389 C1385 1.393 . S
C1389 C1388 1.391 . S
C1390 H1380 0.950 . S
C1390 C1391 1.386 . S
C1390 C1392 1.391 . S
C1391 C1390 1.386 . S
C1391 C1395 1.393 . S
C1392 H1381 0.950 . S
C1392 C1390 1.391 . S
C1392 C1393 1.400 . S
C1393 C1387 1.491 . S
C1393 C1392 1.400 . S
C1393 C1394 1.398 . S
C1394 H1382 0.950 . S
C1394 C1393 1.398 . S
C1394 C1395 1.391 . S
C1395 H1383 0.950 . S
C1395 C1391 1.393 . S
C1395 C1394 1.391 . S
H1396 C1404 0.950 . S
H1397 C1409 0.950 . S
H1398 C1406 0.950 . S
H1399 C1408 0.950 . S
H1400 C1410 0.950 . S
H1401 C1412 0.950 . S
H1402 C1414 0.950 . S
H1403 C1415 0.950 . S
C1404 H1396 0.950 . S
C1404 C1405 1.386 . S
C1404 C1406 1.391 . S
C1405 C1404 1.386 . S
C1405 C1409 1.393 . S
C1406 H1398 0.950 . S
C1406 C1404 1.391 . S
C1406 C1407 1.400 . S
C1407 C1406 1.400 . S
C1407 C1408 1.398 . S
C1407 C1413 1.491 1_565 S
C1408 H1399 0.950 . S
C1408 C1407 1.398 . S
C1408 C1409 1.391 . S
C1409 H1397 0.950 . S
C1409 C1405 1.393 . S
C1409 C1408 1.391 . S
C1410 H1400 0.950 . S
C1410 C1411 1.386 . S
C1410 C1412 1.391 . S
C1411 C1410 1.386 . S
C1411 C1415 1.393 . S
C1412 H1401 0.950 . S
C1412 C1410 1.391 . S
C1412 C1413 1.400 . S
C1413 C1407 1.491 1_545 S
C1413 C1412 1.400 . S
C1413 C1414 1.398 . S
C1414 H1402 0.950 . S
C1414 C1413 1.398 . S
C1414 C1415 1.391 . S
C1415 H1403 0.950 . S
C1415 C1411 1.393 . S
C1415 C1414 1.391 . S
H1416 C1424 0.950 . S
H1417 C1429 0.950 . S
H1418 C1426 0.950 . S
H1419 C1428 0.950 1_556 S
H1420 C1430 0.950 . S
H1421 C1432 0.950 . S
H1422 C1434 0.950 1_554 S
H1423 C1435 0.950 . S
C1424 H1416 0.950 . S
C1424 C1425 1.386 . S
C1424 C1426 1.391 . S
C1425 C1424 1.386 . S
C1425 C1429 1.393 . S
C1426 H1418 0.950 . S
C1426 C1424 1.391 . S
C1426 C1427 1.400 . S
C1427 C1426 1.400 . S
C1427 C1428 1.398 . S
C1427 C1433 1.491 1_554 S
C1428 H1419 0.950 1_554 S
C1428 C1427 1.398 . S
C1428 C1429 1.391 . S
C1429 H1417 0.950 . S
C1429 C1425 1.393 . S
C1429 C1428 1.391 . S
C1430 H1420 0.950 . S
C1430 C1431 1.386 . S
C1430 C1432 1.391 . S
C1431 C1430 1.386 . S
C1431 C1435 1.393 . S
C1432 H1421 0.950 . S
C1432 C1430 1.391 . S
C1432 C1433 1.400 . S
C1433 C1427 1.491 1_556 S
C1433 C1432 1.400 . S
C1433 C1434 1.398 . S
C1434 H1422 0.950 1_556 S
C1434 C1433 1.398 . S
C1434 C1435 1.391 . S
C1435 H1423 0.950 . S
C1435 C1431 1.393 . S
C1435 C1434 1.391 . S
H1436 C1444 0.950 . S
H1437 C1449 0.950 . S
H1438 C1446 0.950 . S
H1439 C1448 0.950 . S
H1440 C1450 0.950 . S
H1441 C1452 0.950 . S
H1442 C1454 0.950 . S
H1443 C1455 0.950 . S
C1444 H1436 0.950 . S
C1444 C1445 1.386 . S
C1444 C1446 1.391 . S
C1445 C1444 1.386 . S
C1445 C1449 1.393 . S
C1446 H1438 0.950 . S
C1446 C1444 1.391 . S
C1446 C1447 1.400 . S
C1447 C1446 1.400 . S
C1447 C1448 1.398 . S
C1447 C1453 1.491 . S
C1448 H1439 0.950 . S
C1448 C1447 1.398 . S
C1448 C1449 1.391 . S
C1449 H1437 0.950 . S
C1449 C1445 1.393 . S
C1449 C1448 1.391 . S
C1450 H1440 0.950 . S
C1450 C1451 1.386 . S
C1450 C1452 1.391 . S
C1451 C1450 1.386 . S
C1451 C1455 1.393 . S
C1452 H1441 0.950 . S
C1452 C1450 1.391 . S
C1452 C1453 1.400 . S
C1453 C1447 1.491 . S
C1453 C1452 1.400 . S
C1453 C1454 1.398 . S
C1454 H1442 0.950 . S
C1454 C1453 1.398 . S
C1454 C1455 1.391 . S
C1455 H1443 0.950 . S
C1455 C1451 1.393 . S
C1455 C1454 1.391 . S
H1456 C1464 0.950 . S
H1457 C1469 0.950 . S
H1458 C1466 0.950 . S
H1459 C1468 0.950 . S
H1460 C1470 0.950 . S
H1461 C1472 0.950 . S
H1462 C1474 0.950 . S
H1463 C1475 0.950 . S
C1464 H1456 0.950 . S
C1464 C1465 1.386 . S
C1464 C1466 1.391 . S
C1465 C1464 1.386 . S
C1465 C1469 1.393 . S
C1466 H1458 0.950 . S
C1466 C1464 1.391 . S
C1466 C1467 1.400 . S
C1467 C1466 1.400 . S
C1467 C1468 1.398 . S
C1467 C1473 1.491 . S
C1468 H1459 0.950 . S
C1468 C1467 1.398 . S
C1468 C1469 1.391 . S
C1469 H1457 0.950 . S
C1469 C1465 1.393 . S
C1469 C1468 1.391 . S
C1470 H1460 0.950 . S
C1470 C1471 1.386 . S
C1470 C1472 1.391 . S
C1471 C1470 1.386 . S
C1471 C1475 1.393 . S
C1472 H1461 0.950 . S
C1472 C1470 1.391 . S
C1472 C1473 1.400 . S
C1473 C1467 1.491 . S
C1473 C1472 1.400 . S
C1473 C1474 1.398 . S
C1474 H1462 0.950 . S
C1474 C1473 1.398 . S
C1474 C1475 1.391 . S
C1475 H1463 0.950 . S
C1475 C1471 1.393 . S
C1475 C1474 1.391 . S
H1476 C1484 0.950 . S
H1477 C1489 0.950 . S
H1478 C1486 0.950 . S
H1479 C1488 0.950 . S
H1480 C1490 0.950 . S
H1481 C1492 0.950 . S
H1482 C1494 0.950 . S
H1483 C1495 0.950 . S
C1484 H1476 0.950 . S
C1484 C1485 1.386 . S
C1484 C1486 1.391 . S
C1485 C1484 1.386 . S
C1485 C1489 1.393 . S
C1486 H1478 0.950 . S
C1486 C1484 1.391 . S
C1486 C1487 1.400 . S
C1487 C1486 1.400 . S
C1487 C1488 1.398 . S
C1487 C1493 1.491 . S
C1488 H1479 0.950 . S
C1488 C1487 1.398 . S
C1488 C1489 1.391 . S
C1489 H1477 0.950 . S
C1489 C1485 1.393 . S
C1489 C1488 1.391 . S
C1490 H1480 0.950 . S
C1490 C1491 1.386 . S
C1490 C1492 1.391 . S
C1491 C1490 1.386 . S
C1491 C1495 1.393 . S
C1492 H1481 0.950 . S
C1492 C1490 1.391 . S
C1492 C1493 1.400 . S
C1493 C1487 1.491 . S
C1493 C1492 1.400 . S
C1493 C1494 1.398 . S
C1494 H1482 0.950 . S
C1494 C1493 1.398 . S
C1494 C1495 1.391 . S
C1495 H1483 0.950 . S
C1495 C1491 1.393 . S
C1495 C1494 1.391 . S
H1496 C1504 0.950 . S
H1497 C1509 0.950 . S
H1498 C1506 0.950 1_545 S
H1499 C1508 0.950 . S
H1500 C1510 0.950 . S
H1501 C1512 0.950 1_565 S
H1502 C1514 0.950 . S
H1503 C1515 0.950 . S
C1504 H1496 0.950 . S
C1504 C1505 1.386 . S
C1504 C1506 1.391 . S
C1505 C1504 1.386 . S
C1505 C1509 1.393 . S
C1506 H1498 0.950 1_565 S
C1506 C1504 1.391 . S
C1506 C1507 1.400 . S
C1507 C1506 1.400 . S
C1507 C1508 1.398 . S
C1507 C1513 1.491 1_565 S
C1508 H1499 0.950 . S
C1508 C1507 1.398 . S
C1508 C1509 1.391 . S
C1509 H1497 0.950 . S
C1509 C1505 1.393 . S
C1509 C1508 1.391 . S
C1510 H1500 0.950 . S
C1510 C1511 1.386 . S
C1510 C1512 1.391 . S
C1511 C1510 1.386 . S
C1511 C1515 1.393 . S
C1512 H1501 0.950 1_545 S
C1512 C1510 1.391 . S
C1512 C1513 1.400 . S
C1513 C1507 1.491 1_545 S
C1513 C1512 1.400 . S
C1513 C1514 1.398 . S
C1514 H1502 0.950 . S
C1514 C1513 1.398 . S
C1514 C1515 1.391 . S
C1515 H1503 0.950 . S
C1515 C1511 1.393 . S
C1515 C1514 1.391 . S
H1516 C1524 0.950 . S
H1517 C1529 0.950 . S
H1518 C1526 0.950 . S
H1519 C1528 0.950 . S
H1520 C1530 0.950 . S
H1521 C1532 0.950 . S
H1522 C1534 0.950 . S
H1523 C1535 0.950 . S
C1524 H1516 0.950 . S
C1524 C1525 1.386 . S
C1524 C1526 1.391 . S
C1525 C1524 1.386 . S
C1525 C1529 1.393 . S
C1526 H1518 0.950 . S
C1526 C1524 1.391 . S
C1526 C1527 1.400 . S
C1527 C1526 1.400 . S
C1527 C1528 1.398 . S
C1527 C1533 1.491 1_554 S
C1528 H1519 0.950 . S
C1528 C1527 1.398 . S
C1528 C1529 1.391 . S
C1529 H1517 0.950 . S
C1529 C1525 1.393 . S
C1529 C1528 1.391 . S
C1530 H1520 0.950 . S
C1530 C1531 1.386 . S
C1530 C1532 1.391 . S
C1531 C1530 1.386 . S
C1531 C1535 1.393 . S
C1532 H1521 0.950 . S
C1532 C1530 1.391 . S
C1532 C1533 1.400 . S
C1533 C1527 1.491 1_556 S
C1533 C1532 1.400 . S
C1533 C1534 1.398 . S
C1534 H1522 0.950 . S
C1534 C1533 1.398 . S
C1534 C1535 1.391 . S
C1535 H1523 0.950 . S
C1535 C1531 1.393 . S
C1535 C1534 1.391 . S
H1536 C1544 0.950 . S
H1537 C1549 0.950 . S
H1538 C1546 0.950 . S
H1539 C1548 0.950 . S
H1540 C1550 0.950 . S
H1541 C1552 0.950 . S
H1542 C1554 0.950 . S
H1543 C1555 0.950 . S
C1544 H1536 0.950 . S
C1544 C1545 1.386 . S
C1544 C1546 1.391 . S
C1545 C1544 1.386 . S
C1545 C1549 1.393 . S
C1546 H1538 0.950 . S
C1546 C1544 1.391 . S
C1546 C1547 1.400 . S
C1547 C1546 1.400 . S
C1547 C1548 1.398 . S
C1547 C1553 1.491 1_565 S
C1548 H1539 0.950 . S
C1548 C1547 1.398 . S
C1548 C1549 1.391 . S
C1549 H1537 0.950 . S
C1549 C1545 1.393 . S
C1549 C1548 1.391 . S
C1550 H1540 0.950 . S
C1550 C1551 1.386 . S
C1550 C1552 1.391 . S
C1551 C1550 1.386 . S
C1551 C1555 1.393 . S
C1552 H1541 0.950 . S
C1552 C1550 1.391 . S
C1552 C1553 1.400 . S
C1553 C1547 1.491 1_545 S
C1553 C1552 1.400 . S
C1553 C1554 1.398 . S
C1554 H1542 0.950 . S
C1554 C1553 1.398 . S
C1554 C1555 1.391 . S
C1555 H1543 0.950 . S
C1555 C1551 1.393 . S
C1555 C1554 1.391 . S
H1556 C1564 0.950 . S
H1557 C1569 0.950 . S
H1558 C1566 0.950 . S
H1559 C1568 0.950 . S
H1560 C1570 0.950 . S
H1561 C1572 0.950 . S
H1562 C1574 0.950 . S
H1563 C1575 0.950 . S
C1564 H1556 0.950 . S
C1564 C1565 1.386 . S
C1564 C1566 1.391 . S
C1565 C1564 1.386 . S
C1565 C1569 1.393 . S
C1566 H1558 0.950 . S
C1566 C1564 1.391 . S
C1566 C1567 1.400 . S
C1567 C1566 1.400 . S
C1567 C1568 1.398 . S
C1567 C1573 1.491 . S
C1568 H1559 0.950 . S
C1568 C1567 1.398 . S
C1568 C1569 1.391 . S
C1569 H1557 0.950 . S
C1569 C1565 1.393 . S
C1569 C1568 1.391 . S
C1570 H1560 0.950 . S
C1570 C1571 1.386 . S
C1570 C1572 1.391 . S
C1571 C1570 1.386 . S
C1571 C1575 1.393 . S
C1572 H1561 0.950 . S
C1572 C1570 1.391 . S
C1572 C1573 1.400 . S
C1573 C1567 1.491 . S
C1573 C1572 1.400 . S
C1573 C1574 1.398 . S
C1574 H1562 0.950 . S
C1574 C1573 1.398 . S
C1574 C1575 1.391 . S
C1575 H1563 0.950 . S
C1575 C1571 1.393 . S
C1575 C1574 1.391 . S
H1576 C1584 0.950 . S
H1577 C1589 0.950 . S
H1578 C1586 0.950 . S
H1579 C1588 0.950 . S
H1580 C1590 0.950 . S
H1581 C1592 0.950 . S
H1582 C1594 0.950 . S
H1583 C1595 0.950 . S
C1584 H1576 0.950 . S
C1584 C1585 1.386 . S
C1584 C1586 1.391 . S
C1585 C1584 1.386 . S
C1585 C1589 1.393 . S
C1586 H1578 0.950 . S
C1586 C1584 1.391 . S
C1586 C1587 1.400 . S
C1587 C1586 1.400 . S
C1587 C1588 1.398 . S
C1587 C1593 1.491 1_554 S
C1588 H1579 0.950 . S
C1588 C1587 1.398 . S
C1588 C1589 1.391 . S
C1589 H1577 0.950 . S
C1589 C1585 1.393 . S
C1589 C1588 1.391 . S
C1590 H1580 0.950 . S
C1590 C1591 1.386 . S
C1590 C1592 1.391 . S
C1591 C1590 1.386 . S
C1591 C1595 1.393 . S
C1592 H1581 0.950 . S
C1592 C1590 1.391 . S
C1592 C1593 1.400 . S
C1593 C1587 1.491 1_556 S
C1593 C1592 1.400 . S
C1593 C1594 1.398 . S
C1594 H1582 0.950 . S
C1594 C1593 1.398 . S
C1594 C1595 1.391 . S
C1595 H1583 0.950 . S
C1595 C1591 1.393 . S
C1595 C1594 1.391 . S
H1596 C1604 0.950 . S
H1597 C1609 0.950 . S
H1598 C1606 0.950 . S
H1599 C1608 0.950 . S
H1600 C1610 0.950 . S
H1601 C1612 0.950 . S
H1602 C1614 0.950 . S
H1603 C1615 0.950 . S
C1604 H1596 0.950 . S
C1604 C1605 1.386 . S
C1604 C1606 1.391 . S
C1605 C1604 1.386 . S
C1605 C1609 1.393 . S
C1606 H1598 0.950 . S
C1606 C1604 1.391 . S
C1606 C1607 1.400 . S
C1607 C1606 1.400 . S
C1607 C1608 1.398 . S
C1607 C1613 1.491 1_556 S
C1608 H1599 0.950 . S
C1608 C1607 1.398 . S
C1608 C1609 1.391 . S
C1609 H1597 0.950 . S
C1609 C1605 1.393 . S
C1609 C1608 1.391 . S
C1610 H1600 0.950 . S
C1610 C1611 1.386 . S
C1610 C1612 1.391 . S
C1611 C1610 1.386 . S
C1611 C1615 1.393 . S
C1612 H1601 0.950 . S
C1612 C1610 1.391 . S
C1612 C1613 1.400 . S
C1613 C1607 1.491 1_554 S
C1613 C1612 1.400 . S
C1613 C1614 1.398 . S
C1614 H1602 0.950 . S
C1614 C1613 1.398 . S
C1614 C1615 1.391 . S
C1615 H1603 0.950 . S
C1615 C1611 1.393 . S
C1615 C1614 1.391 . S
H1616 C1624 0.950 . S
H1617 C1629 0.950 . S
H1618 C1626 0.950 . S
H1619 C1628 0.950 . S
H1620 C1630 0.950 . S
H1621 C1632 0.950 . S
H1622 C1634 0.950 . S
H1623 C1635 0.950 . S
C1624 H1616 0.950 . S
C1624 C1625 1.386 . S
C1624 C1626 1.391 . S
C1625 C1624 1.386 . S
C1625 C1629 1.393 . S
C1626 H1618 0.950 . S
C1626 C1624 1.391 . S
C1626 C1627 1.400 . S
C1627 C1626 1.400 . S
C1627 C1628 1.398 . S
C1627 C1633 1.491 . S
C1628 H1619 0.950 . S
C1628 C1627 1.398 . S
C1628 C1629 1.391 . S
C1629 H1617 0.950 . S
C1629 C1625 1.393 . S
C1629 C1628 1.391 . S
C1630 H1620 0.950 . S
C1630 C1631 1.386 . S
C1630 C1632 1.391 . S
C1631 C1630 1.386 . S
C1631 C1635 1.393 . S
C1632 H1621 0.950 . S
C1632 C1630 1.391 . S
C1632 C1633 1.400 . S
C1633 C1627 1.491 . S
C1633 C1632 1.400 . S
C1633 C1634 1.398 . S
C1634 H1622 0.950 . S
C1634 C1633 1.398 . S
C1634 C1635 1.391 . S
C1635 H1623 0.950 . S
C1635 C1631 1.393 . S
C1635 C1634 1.391 . S
H1636 C1644 0.950 . S
H1637 C1649 0.950 . S
H1638 C1646 0.950 . S
H1639 C1648 0.950 . S
H1640 C1650 0.950 . S
H1641 C1652 0.950 . S
H1642 C1654 0.950 . S
H1643 C1655 0.950 . S
C1644 H1636 0.950 . S
C1644 C1645 1.386 . S
C1644 C1646 1.391 . S
C1645 C1644 1.386 . S
C1645 C1649 1.393 . S
C1646 H1638 0.950 . S
C1646 C1644 1.391 . S
C1646 C1647 1.400 . S
C1647 C1646 1.400 . S
C1647 C1648 1.398 . S
C1647 C1653 1.491 . S
C1648 H1639 0.950 . S
C1648 C1647 1.398 . S
C1648 C1649 1.391 . S
C1649 H1637 0.950 . S
C1649 C1645 1.393 . S
C1649 C1648 1.391 . S
C1650 H1640 0.950 . S
C1650 C1651 1.386 . S
C1650 C1652 1.391 . S
C1651 C1650 1.386 . S
C1651 C1655 1.393 . S
C1652 H1641 0.950 . S
C1652 C1650 1.391 . S
C1652 C1653 1.400 . S
C1653 C1647 1.491 . S
C1653 C1652 1.400 . S
C1653 C1654 1.398 . S
C1654 H1642 0.950 . S
C1654 C1653 1.398 . S
C1654 C1655 1.391 . S
C1655 H1643 0.950 . S
C1655 C1651 1.393 . S
C1655 C1654 1.391 . S
H1656 C1664 0.950 . S
H1657 C1669 0.950 . S
H1658 C1666 0.950 . S
H1659 C1668 0.950 . S
H1660 C1670 0.950 . S
H1661 C1672 0.950 . S
H1662 C1674 0.950 . S
H1663 C1675 0.950 . S
C1664 H1656 0.950 . S
C1664 C1665 1.386 . S
C1664 C1666 1.391 . S
C1665 C1664 1.386 . S
C1665 C1669 1.393 . S
C1666 H1658 0.950 . S
C1666 C1664 1.391 . S
C1666 C1667 1.400 . S
C1667 C1666 1.400 . S
C1667 C1668 1.398 . S
C1667 C1673 1.491 1_455 S
C1668 H1659 0.950 . S
C1668 C1667 1.398 . S
C1668 C1669 1.391 . S
C1669 H1657 0.950 . S
C1669 C1665 1.393 . S
C1669 C1668 1.391 . S
C1670 H1660 0.950 . S
C1670 C1671 1.386 . S
C1670 C1672 1.391 . S
C1671 C1670 1.386 . S
C1671 C1675 1.393 . S
C1672 H1661 0.950 . S
C1672 C1670 1.391 . S
C1672 C1673 1.400 . S
C1673 C1667 1.491 1_655 S
C1673 C1672 1.400 . S
C1673 C1674 1.398 . S
C1674 H1662 0.950 . S
C1674 C1673 1.398 . S
C1674 C1675 1.391 . S
C1675 H1663 0.950 . S
C1675 C1671 1.393 . S
C1675 C1674 1.391 . S
H1676 C1684 0.950 . S
H1677 C1689 0.950 . S
H1678 C1686 0.950 . S
H1679 C1688 0.950 . S
H1680 C1690 0.950 . S
H1681 C1692 0.950 . S
H1682 C1694 0.950 . S
H1683 C1695 0.950 . S
C1684 H1676 0.950 . S
C1684 C1685 1.386 . S
C1684 C1686 1.391 . S
C1685 C1684 1.386 . S
C1685 C1689 1.393 . S
C1686 H1678 0.950 . S
C1686 C1684 1.391 . S
C1686 C1687 1.400 . S
C1687 C1686 1.400 . S
C1687 C1688 1.398 . S
C1687 C1693 1.491 1_455 S
C1688 H1679 0.950 . S
C1688 C1687 1.398 . S
C1688 C1689 1.391 . S
C1689 H1677 0.950 . S
C1689 C1685 1.393 . S
C1689 C1688 1.391 . S
C1690 H1680 0.950 . S
C1690 C1691 1.386 . S
C1690 C1692 1.391 . S
C1691 C1690 1.386 . S
C1691 C1695 1.393 . S
C1692 H1681 0.950 . S
C1692 C1690 1.391 . S
C1692 C1693 1.400 . S
C1693 C1687 1.491 1_655 S
C1693 C1692 1.400 . S
C1693 C1694 1.398 . S
C1694 H1682 0.950 . S
C1694 C1693 1.398 . S
C1694 C1695 1.391 . S
C1695 H1683 0.950 . S
C1695 C1691 1.393 . S
C1695 C1694 1.391 . S
H1696 C1704 0.950 . S
H1697 C1709 0.950 . S
H1698 C1706 0.950 . S
H1699 C1708 0.950 . S
H1700 C1710 0.950 . S
H1701 C1712 0.950 . S
H1702 C1714 0.950 . S
H1703 C1715 0.950 . S
C1704 H1696 0.950 . S
C1704 C1705 1.386 . S
C1704 C1706 1.391 . S
C1705 C1704 1.386 . S
C1705 C1709 1.393 . S
C1706 H1698 0.950 . S
C1706 C1704 1.391 . S
C1706 C1707 1.400 . S
C1707 C1706 1.400 . S
C1707 C1708 1.398 . S
C1707 C1713 1.491 . S
C1708 H1699 0.950 . S
C1708 C1707 1.398 . S
C1708 C1709 1.391 . S
C1709 H1697 0.950 . S
C1709 C1705 1.393 . S
C1709 C1708 1.391 . S
C1710 H1700 0.950 . S
C1710 C1711 1.386 . S
C1710 C1712 1.391 . S
C1711 C1710 1.386 . S
C1711 C1715 1.393 . S
C1712 H1701 0.950 . S
C1712 C1710 1.391 . S
C1712 C1713 1.400 . S
C1713 C1707 1.491 . S
C1713 C1712 1.400 . S
C1713 C1714 1.398 . S
C1714 H1702 0.950 . S
C1714 C1713 1.398 . S
C1714 C1715 1.391 . S
C1715 H1703 0.950 . S
C1715 C1711 1.393 . S
C1715 C1714 1.391 . S
H1716 C1724 0.950 . S
H1717 C1729 0.950 . S
H1718 C1726 0.950 . S
H1719 C1728 0.950 . S
H1720 C1730 0.950 . S
H1721 C1732 0.950 . S
H1722 C1734 0.950 . S
H1723 C1735 0.950 . S
C1724 H1716 0.950 . S
C1724 C1725 1.386 . S
C1724 C1726 1.391 . S
C1725 C1724 1.386 . S
C1725 C1729 1.393 . S
C1726 H1718 0.950 . S
C1726 C1724 1.391 . S
C1726 C1727 1.400 . S
C1727 C1726 1.400 . S
C1727 C1728 1.398 . S
C1727 C1733 1.491 1_565 S
C1728 H1719 0.950 . S
C1728 C1727 1.398 . S
C1728 C1729 1.391 . S
C1729 H1717 0.950 . S
C1729 C1725 1.393 . S
C1729 C1728 1.391 . S
C1730 H1720 0.950 . S
C1730 C1731 1.386 . S
C1730 C1732 1.391 . S
C1731 C1730 1.386 . S
C1731 C1735 1.393 . S
C1732 H1721 0.950 . S
C1732 C1730 1.391 . S
C1732 C1733 1.400 . S
C1733 C1727 1.491 1_545 S
C1733 C1732 1.400 . S
C1733 C1734 1.398 . S
C1734 H1722 0.950 . S
C1734 C1733 1.398 . S
C1734 C1735 1.391 . S
C1735 H1723 0.950 . S
C1735 C1731 1.393 . S
C1735 C1734 1.391 . S
H1736 C1744 0.950 . S
H1737 C1749 0.950 . S
H1738 C1746 0.950 . S
H1739 C1748 0.950 . S
H1740 C1750 0.950 . S
H1741 C1752 0.950 . S
H1742 C1754 0.950 . S
H1743 C1755 0.950 . S
C1744 H1736 0.950 . S
C1744 C1745 1.386 . S
C1744 C1746 1.391 . S
C1745 C1744 1.386 . S
C1745 C1749 1.393 . S
C1746 H1738 0.950 . S
C1746 C1744 1.391 . S
C1746 C1747 1.400 . S
C1747 C1746 1.400 . S
C1747 C1748 1.398 . S
C1747 C1753 1.491 . S
C1748 H1739 0.950 . S
C1748 C1747 1.398 . S
C1748 C1749 1.391 . S
C1749 H1737 0.950 . S
C1749 C1745 1.393 . S
C1749 C1748 1.391 . S
C1750 H1740 0.950 . S
C1750 C1751 1.386 . S
C1750 C1752 1.391 . S
C1751 C1750 1.386 . S
C1751 C1755 1.393 . S
C1752 H1741 0.950 . S
C1752 C1750 1.391 . S
C1752 C1753 1.400 . S
C1753 C1747 1.491 . S
C1753 C1752 1.400 . S
C1753 C1754 1.398 . S
C1754 H1742 0.950 . S
C1754 C1753 1.398 . S
C1754 C1755 1.391 . S
C1755 H1743 0.950 . S
C1755 C1751 1.393 . S
C1755 C1754 1.391 . S
H1756 C1764 0.950 . S
H1757 C1769 0.950 . S
H1758 C1766 0.950 . S
H1759 C1768 0.950 . S
H1760 C1770 0.950 . S
H1761 C1772 0.950 . S
H1762 C1774 0.950 . S
H1763 C1775 0.950 . S
C1764 H1756 0.950 . S
C1764 C1765 1.386 . S
C1764 C1766 1.391 . S
C1765 C1764 1.386 . S
C1765 C1769 1.393 . S
C1766 H1758 0.950 . S
C1766 C1764 1.391 . S
C1766 C1767 1.400 . S
C1767 C1766 1.400 . S
C1767 C1768 1.398 . S
C1767 C1773 1.491 1_554 S
C1768 H1759 0.950 . S
C1768 C1767 1.398 . S
C1768 C1769 1.391 . S
C1769 H1757 0.950 . S
C1769 C1765 1.393 . S
C1769 C1768 1.391 . S
C1770 H1760 0.950 . S
C1770 C1771 1.386 . S
C1770 C1772 1.391 . S
C1771 C1770 1.386 . S
C1771 C1775 1.393 . S
C1772 H1761 0.950 . S
C1772 C1770 1.391 . S
C1772 C1773 1.400 . S
C1773 C1767 1.491 1_556 S
C1773 C1772 1.400 . S
C1773 C1774 1.398 . S
C1774 H1762 0.950 . S
C1774 C1773 1.398 . S
C1774 C1775 1.391 . S
C1775 H1763 0.950 . S
C1775 C1771 1.393 . S
C1775 C1774 1.391 . S
H1776 C1784 0.950 . S
H1777 C1789 0.950 . S
H1778 C1786 0.950 . S
H1779 C1788 0.950 . S
H1780 C1790 0.950 . S
H1781 C1792 0.950 . S
H1782 C1794 0.950 . S
H1783 C1795 0.950 . S
C1784 H1776 0.950 . S
C1784 C1785 1.386 . S
C1784 C1786 1.391 . S
C1785 C1784 1.386 . S
C1785 C1789 1.393 . S
C1786 H1778 0.950 . S
C1786 C1784 1.391 . S
C1786 C1787 1.400 . S
C1787 C1786 1.400 . S
C1787 C1788 1.398 . S
C1787 C1793 1.491 1_554 S
C1788 H1779 0.950 . S
C1788 C1787 1.398 . S
C1788 C1789 1.391 . S
C1789 H1777 0.950 . S
C1789 C1785 1.393 . S
C1789 C1788 1.391 . S
C1790 H1780 0.950 . S
C1790 C1791 1.386 . S
C1790 C1792 1.391 . S
C1791 C1790 1.386 . S
C1791 C1795 1.393 . S
C1792 H1781 0.950 . S
C1792 C1790 1.391 . S
C1792 C1793 1.400 . S
C1793 C1787 1.491 1_556 S
C1793 C1792 1.400 . S
C1793 C1794 1.398 . S
C1794 H1782 0.950 . S
C1794 C1793 1.398 . S
C1794 C1795 1.391 . S
C1795 H1783 0.950 . S
C1795 C1791 1.393 . S
C1795 C1794 1.391 . S
H1796 C1804 0.950 . S
H1797 C1809 0.950 . S
H1798 C1806 0.950 . S
H1799 C1808 0.950 . S
H1800 C1810 0.950 . S
H1801 C1812 0.950 . S
H1802 C1814 0.950 . S
H1803 C1815 0.950 . S
C1804 H1796 0.950 . S
C1804 C1805 1.386 . S
C1804 C1806 1.391 . S
C1805 C1804 1.386 . S
C1805 C1809 1.393 . S
C1806 H1798 0.950 . S
C1806 C1804 1.391 . S
C1806 C1807 1.400 . S
C1807 C1806 1.400 . S
C1807 C1808 1.398 . S
C1807 C1813 1.491 . S
C1808 H1799 0.950 . S
C1808 C1807 1.398 . S
C1808 C1809 1.391 . S
C1809 H1797 0.950 . S
C1809 C1805 1.393 . S
C1809 C1808 1.391 . S
C1810 H1800 0.950 . S
C1810 C1811 1.386 . S
C1810 C1812 1.391 . S
C1811 C1810 1.386 . S
C1811 C1815 1.393 . S
C1812 H1801 0.950 . S
C1812 C1810 1.391 . S
C1812 C1813 1.400 . S
C1813 C1807 1.491 . S
C1813 C1812 1.400 . S
C1813 C1814 1.398 . S
C1814 H1802 0.950 . S
C1814 C1813 1.398 . S
C1814 C1815 1.391 . S
C1815 H1803 0.950 . S
C1815 C1811 1.393 . S
C1815 C1814 1.391 . S
H1816 C1824 0.950 . S
H1817 C1829 0.950 . S
H1818 C1826 0.950 . S
H1819 C1828 0.950 . S
H1820 C1830 0.950 . S
H1821 C1832 0.950 . S
H1822 C1834 0.950 . S
H1823 C1835 0.950 . S
C1824 H1816 0.950 . S
C1824 C1825 1.386 . S
C1824 C1826 1.391 . S
C1825 C1824 1.386 . S
C1825 C1829 1.393 . S
C1826 H1818 0.950 . S
C1826 C1824 1.391 . S
C1826 C1827 1.400 . S
C1827 C1826 1.400 . S
C1827 C1828 1.398 . S
C1827 C1833 1.491 . S
C1828 H1819 0.950 . S
C1828 C1827 1.398 . S
C1828 C1829 1.391 . S
C1829 H1817 0.950 . S
C1829 C1825 1.393 . S
C1829 C1828 1.391 . S
C1830 H1820 0.950 . S
C1830 C1831 1.386 . S
C1830 C1832 1.391 . S
C1831 C1830 1.386 . S
C1831 C1835 1.393 . S
C1832 H1821 0.950 . S
C1832 C1830 1.391 . S
C1832 C1833 1.400 . S
C1833 C1827 1.491 . S
C1833 C1832 1.400 . S
C1833 C1834 1.398 . S
C1834 H1822 0.950 . S
C1834 C1833 1.398 . S
C1834 C1835 1.391 . S
C1835 H1823 0.950 . S
C1835 C1831 1.393 . S
C1835 C1834 1.391 . S
H1836 C1844 0.950 . S
H1837 C1849 0.950 . S
H1838 C1846 0.950 . S
H1839 C1848 0.950 . S
H1840 C1850 0.950 . S
H1841 C1852 0.950 . S
H1842 C1854 0.950 . S
H1843 C1855 0.950 . S
C1844 H1836 0.950 . S
C1844 C1845 1.386 . S
C1844 C1846 1.391 . S
C1845 C1844 1.386 . S
C1845 C1849 1.393 . S
C1846 H1838 0.950 . S
C1846 C1844 1.391 . S
C1846 C1847 1.400 . S
C1847 C1846 1.400 . S
C1847 C1848 1.398 . S
C1847 C1853 1.491 1_455 S
C1848 H1839 0.950 . S
C1848 C1847 1.398 . S
C1848 C1849 1.391 . S
C1849 H1837 0.950 . S
C1849 C1845 1.393 . S
C1849 C1848 1.391 . S
C1850 H1840 0.950 . S
C1850 C1851 1.386 . S
C1850 C1852 1.391 . S
C1851 C1850 1.386 . S
C1851 C1855 1.393 . S
C1852 H1841 0.950 . S
C1852 C1850 1.391 . S
C1852 C1853 1.400 . S
C1853 C1847 1.491 1_655 S
C1853 C1852 1.400 . S
C1853 C1854 1.398 . S
C1854 H1842 0.950 . S
C1854 C1853 1.398 . S
C1854 C1855 1.391 . S
C1855 H1843 0.950 . S
C1855 C1851 1.393 . S
C1855 C1854 1.391 . S
H1856 C1864 0.950 . S
H1857 C1869 0.950 . S
H1858 C1866 0.950 . S
H1859 C1868 0.950 . S
H1860 C1870 0.950 . S
H1861 C1872 0.950 . S
H1862 C1874 0.950 . S
H1863 C1875 0.950 . S
C1864 H1856 0.950 . S
C1864 C1865 1.386 . S
C1864 C1866 1.391 . S
C1865 C1864 1.386 . S
C1865 C1869 1.393 . S
C1866 H1858 0.950 . S
C1866 C1864 1.391 . S
C1866 C1867 1.400 . S
C1867 C1866 1.400 . S
C1867 C1868 1.398 . S
C1867 C1873 1.491 1_455 S
C1868 H1859 0.950 . S
C1868 C1867 1.398 . S
C1868 C1869 1.391 . S
C1869 H1857 0.950 . S
C1869 C1865 1.393 . S
C1869 C1868 1.391 . S
C1870 H1860 0.950 . S
C1870 C1871 1.386 . S
C1870 C1872 1.391 . S
C1871 C1870 1.386 . S
C1871 C1875 1.393 . S
C1872 H1861 0.950 . S
C1872 C1870 1.391 . S
C1872 C1873 1.400 . S
C1873 C1867 1.491 1_655 S
C1873 C1872 1.400 . S
C1873 C1874 1.398 . S
C1874 H1862 0.950 . S
C1874 C1873 1.398 . S
C1874 C1875 1.391 . S
C1875 H1863 0.950 . S
C1875 C1871 1.393 . S
C1875 C1874 1.391 . S
H1876 C1884 0.950 . S
H1877 C1889 0.950 . S
H1878 C1886 0.950 . S
H1879 C1888 0.950 . S
H1880 C1890 0.950 . S
H1881 C1892 0.950 . S
H1882 C1894 0.950 . S
H1883 C1895 0.950 . S
C1884 H1876 0.950 . S
C1884 C1885 1.386 . S
C1884 C1886 1.391 . S
C1885 C1884 1.386 . S
C1885 C1889 1.393 . S
C1886 H1878 0.950 . S
C1886 C1884 1.391 . S
C1886 C1887 1.400 . S
C1887 C1886 1.400 . S
C1887 C1888 1.398 . S
C1887 C1893 1.491 . S
C1888 H1879 0.950 . S
C1888 C1887 1.398 . S
C1888 C1889 1.391 . S
C1889 H1877 0.950 . S
C1889 C1885 1.393 . S
C1889 C1888 1.391 . S
C1890 H1880 0.950 . S
C1890 C1891 1.386 . S
C1890 C1892 1.391 . S
C1891 C1890 1.386 . S
C1891 C1895 1.393 . S
C1892 H1881 0.950 . S
C1892 C1890 1.391 . S
C1892 C1893 1.400 . S
C1893 C1887 1.491 . S
C1893 C1892 1.400 . S
C1893 C1894 1.398 . S
C1894 H1882 0.950 . S
C1894 C1893 1.398 . S
C1894 C1895 1.391 . S
C1895 H1883 0.950 . S
C1895 C1891 1.393 . S
C1895 C1894 1.391 . S
H1896 C1904 0.950 . S
H1897 C1909 0.950 . S
H1898 C1906 0.950 . S
H1899 C1908 0.950 . S
H1900 C1910 0.950 . S
H1901 C1912 0.950 . S
H1902 C1914 0.950 . S
H1903 C1915 0.950 . S
C1904 H1896 0.950 . S
C1904 C1905 1.386 . S
C1904 C1906 1.391 . S
C1905 C1904 1.386 . S
C1905 C1909 1.393 . S
C1906 H1898 0.950 . S
C1906 C1904 1.391 . S
C1906 C1907 1.400 . S
C1907 C1906 1.400 . S
C1907 C1908 1.398 . S
C1907 C1913 1.491 . S
C1908 H1899 0.950 . S
C1908 C1907 1.398 . S
C1908 C1909 1.391 . S
C1909 H1897 0.950 . S
C1909 C1905 1.393 . S
C1909 C1908 1.391 . S
C1910 H1900 0.950 . S
C1910 C1911 1.386 . S
C1910 C1912 1.391 . S
C1911 C1910 1.386 . S
C1911 C1915 1.393 . S
C1912 H1901 0.950 . S
C1912 C1910 1.391 . S
C1912 C1913 1.400 . S
C1913 C1907 1.491 . S
C1913 C1912 1.400 . S
C1913 C1914 1.398 . S
C1914 H1902 0.950 . S
C1914 C1913 1.398 . S
C1914 C1915 1.391 . S
C1915 H1903 0.950 . S
C1915 C1911 1.393 . S
C1915 C1914 1.391 . S
H1916 C1924 0.950 . S
H1917 C1929 0.950 . S
H1918 C1926 0.950 . S
H1919 C1928 0.950 . S
H1920 C1930 0.950 . S
H1921 C1932 0.950 . S
H1922 C1934 0.950 . S
H1923 C1935 0.950 . S
C1924 H1916 0.950 . S
C1924 C1925 1.386 . S
C1924 C1926 1.391 . S
C1925 C1924 1.386 . S
C1925 C1929 1.393 . S
C1926 H1918 0.950 . S
C1926 C1924 1.391 . S
C1926 C1927 1.400 . S
C1927 C1926 1.400 . S
C1927 C1928 1.398 . S
C1927 C1933 1.491 1_565 S
C1928 H1919 0.950 . S
C1928 C1927 1.398 . S
C1928 C1929 1.391 . S
C1929 H1917 0.950 . S
C1929 C1925 1.393 . S
C1929 C1928 1.391 . S
C1930 H1920 0.950 . S
C1930 C1931 1.386 . S
C1930 C1932 1.391 . S
C1931 C1930 1.386 . S
C1931 C1935 1.393 . S
C1932 H1921 0.950 . S
C1932 C1930 1.391 . S
C1932 C1933 1.400 . S
C1933 C1927 1.491 1_545 S
C1933 C1932 1.400 . S
C1933 C1934 1.398 . S
C1934 H1922 0.950 . S
C1934 C1933 1.398 . S
C1934 C1935 1.391 . S
C1935 H1923 0.950 . S
C1935 C1931 1.393 . S
C1935 C1934 1.391 . S
H1936 C1944 0.950 . S
H1937 C1949 0.950 . S
H1938 C1946 0.950 . S
H1939 C1948 0.950 . S
H1940 C1950 0.950 . S
H1941 C1952 0.950 . S
H1942 C1954 0.950 . S
H1943 C1955 0.950 . S
C1944 H1936 0.950 . S
C1944 C1945 1.386 . S
C1944 C1946 1.391 . S
C1945 C1944 1.386 . S
C1945 C1949 1.393 . S
C1946 H1938 0.950 . S
C1946 C1944 1.391 . S
C1946 C1947 1.400 . S
C1947 C1946 1.400 . S
C1947 C1948 1.398 . S
C1947 C1953 1.491 . S
C1948 H1939 0.950 . S
C1948 C1947 1.398 . S
C1948 C1949 1.391 . S
C1949 H1937 0.950 . S
C1949 C1945 1.393 . S
C1949 C1948 1.391 . S
C1950 H1940 0.950 . S
C1950 C1951 1.386 . S
C1950 C1952 1.391 . S
C1951 C1950 1.386 . S
C1951 C1955 1.393 . S
C1952 H1941 0.950 . S
C1952 C1950 1.391 . S
C1952 C1953 1.400 . S
C1953 C1947 1.491 . S
C1953 C1952 1.400 . S
C1953 C1954 1.398 . S
C1954 H1942 0.950 . S
C1954 C1953 1.398 . S
C1954 C1955 1.391 . S
C1955 H1943 0.950 . S
C1955 C1951 1.393 . S
C1955 C1954 1.391 . S
H1956 C1964 0.950 . S
H1957 C1969 0.950 . S
H1958 C1966 0.950 . S
H1959 C1968 0.950 . S
H1960 C1970 0.950 . S
H1961 C1972 0.950 . S
H1962 C1974 0.950 . S
H1963 C1975 0.950 . S
C1964 H1956 0.950 . S
C1964 C1965 1.386 . S
C1964 C1966 1.391 . S
C1965 C1964 1.386 . S
C1965 C1969 1.393 . S
C1966 H1958 0.950 . S
C1966 C1964 1.391 . S
C1966 C1967 1.400 . S
C1967 C1966 1.400 . S
C1967 C1968 1.398 . S
C1967 C1973 1.491 . S
C1968 H1959 0.950 . S
C1968 C1967 1.398 . S
C1968 C1969 1.391 . S
C1969 H1957 0.950 . S
C1969 C1965 1.393 . S
C1969 C1968 1.391 . S
C1970 H1960 0.950 . S
C1970 C1971 1.386 . S
C1970 C1972 1.391 . S
C1971 C1970 1.386 . S
C1971 C1975 1.393 . S
C1972 H1961 0.950 . S
C1972 C1970 1.391 . S
C1972 C1973 1.400 . S
C1973 C1967 1.491 . S
C1973 C1972 1.400 . S
C1973 C1974 1.398 . S
C1974 H1962 0.950 . S
C1974 C1973 1.398 . S
C1974 C1975 1.391 . S
C1975 H1963 0.950 . S
C1975 C1971 1.393 . S
C1975 C1974 1.391 . S
H1976 C1984 0.950 . S
H1977 C1989 0.950 . S
H1978 C1986 0.950 . S
H1979 C1988 0.950 . S
H1980 C1990 0.950 . S
H1981 C1992 0.950 . S
H1982 C1994 0.950 . S
H1983 C1995 0.950 . S
C1984 H1976 0.950 . S
C1984 C1985 1.386 . S
C1984 C1986 1.391 . S
C1985 C1984 1.386 . S
C1985 C1989 1.393 . S
C1986 H1978 0.950 . S
C1986 C1984 1.391 . S
C1986 C1987 1.400 . S
C1987 C1986 1.400 . S
C1987 C1988 1.398 . S
C1987 C1993 1.491 1_545 S
C1988 H1979 0.950 . S
C1988 C1987 1.398 . S
C1988 C1989 1.391 . S
C1989 H1977 0.950 . S
C1989 C1985 1.393 . S
C1989 C1988 1.391 . S
C1990 H1980 0.950 . S
C1990 C1991 1.386 . S
C1990 C1992 1.391 . S
C1991 C1990 1.386 . S
C1991 C1995 1.393 . S
C1992 H1981 0.950 . S
C1992 C1990 1.391 . S
C1992 C1993 1.400 . S
C1993 C1987 1.491 1_565 S
C1993 C1992 1.400 . S
C1993 C1994 1.398 . S
C1994 H1982 0.950 . S
C1994 C1993 1.398 . S
C1994 C1995 1.391 . S
C1995 H1983 0.950 . S
C1995 C1991 1.393 . S
C1995 C1994 1.391 . S
H1996 C2004 0.950 . S
H1997 C2009 0.950 . S
H1998 C2006 0.950 . S
H1999 C2008 0.950 . S
H2000 C2010 0.950 . S
H2001 C2012 0.950 . S
H2002 C2014 0.950 . S
H2003 C2015 0.950 . S
C2004 H1996 0.950 . S
C2004 C2005 1.386 . S
C2004 C2006 1.391 . S
C2005 C2004 1.386 . S
C2005 C2009 1.393 . S
C2006 H1998 0.950 . S
C2006 C2004 1.391 . S
C2006 C2007 1.400 . S
C2007 C2006 1.400 . S
C2007 C2008 1.398 . S
C2007 C2013 1.491 . S
C2008 H1999 0.950 . S
C2008 C2007 1.398 . S
C2008 C2009 1.391 . S
C2009 H1997 0.950 . S
C2009 C2005 1.393 . S
C2009 C2008 1.391 . S
C2010 H2000 0.950 . S
C2010 C2011 1.386 . S
C2010 C2012 1.391 . S
C2011 C2010 1.386 . S
C2011 C2015 1.393 . S
C2012 H2001 0.950 . S
C2012 C2010 1.391 . S
C2012 C2013 1.400 . S
C2013 C2007 1.491 . S
C2013 C2012 1.400 . S
C2013 C2014 1.398 . S
C2014 H2002 0.950 . S
C2014 C2013 1.398 . S
C2014 C2015 1.391 . S
C2015 H2003 0.950 . S
C2015 C2011 1.393 . S
C2015 C2014 1.391 . S
H2016 C2024 0.950 . S
H2017 C2029 0.950 . S
H2018 C2026 0.950 . S
H2019 C2028 0.950 . S
H2020 C2030 0.950 . S
H2021 C2032 0.950 . S
H2022 C2034 0.950 . S
H2023 C2035 0.950 . S
C2024 H2016 0.950 . S
C2024 C2025 1.386 . S
C2024 C2026 1.391 . S
C2025 C2024 1.386 . S
C2025 C2029 1.393 . S
C2026 H2018 0.950 . S
C2026 C2024 1.391 . S
C2026 C2027 1.400 . S
C2027 C2026 1.400 . S
C2027 C2028 1.398 . S
C2027 C2033 1.491 . S
C2028 H2019 0.950 . S
C2028 C2027 1.398 . S
C2028 C2029 1.391 . S
C2029 H2017 0.950 . S
C2029 C2025 1.393 . S
C2029 C2028 1.391 . S
C2030 H2020 0.950 . S
C2030 C2031 1.386 . S
C2030 C2032 1.391 . S
C2031 C2030 1.386 . S
C2031 C2035 1.393 . S
C2032 H2021 0.950 . S
C2032 C2030 1.391 . S
C2032 C2033 1.400 . S
C2033 C2027 1.491 . S
C2033 C2032 1.400 . S
C2033 C2034 1.398 . S
C2034 H2022 0.950 . S
C2034 C2033 1.398 . S
C2034 C2035 1.391 . S
C2035 H2023 0.950 . S
C2035 C2031 1.393 . S
C2035 C2034 1.391 . S
H2036 C2044 0.950 . S
H2037 C2049 0.950 . S
H2038 C2046 0.950 . S
H2039 C2048 0.950 . S
H2040 C2050 0.950 . S
H2041 C2052 0.950 . S
H2042 C2054 0.950 . S
H2043 C2055 0.950 . S
C2044 H2036 0.950 . S
C2044 C2045 1.386 . S
C2044 C2046 1.391 . S
C2045 C2044 1.386 . S
C2045 C2049 1.393 . S
C2046 H2038 0.950 . S
C2046 C2044 1.391 . S
C2046 C2047 1.400 . S
C2047 C2046 1.400 . S
C2047 C2048 1.398 . S
C2047 C2053 1.491 . S
C2048 H2039 0.950 . S
C2048 C2047 1.398 . S
C2048 C2049 1.391 . S
C2049 H2037 0.950 . S
C2049 C2045 1.393 . S
C2049 C2048 1.391 . S
C2050 H2040 0.950 . S
C2050 C2051 1.386 . S
C2050 C2052 1.391 . S
C2051 C2050 1.386 . S
C2051 C2055 1.393 . S
C2052 H2041 0.950 . S
C2052 C2050 1.391 . S
C2052 C2053 1.400 . S
C2053 C2047 1.491 . S
C2053 C2052 1.400 . S
C2053 C2054 1.398 . S
C2054 H2042 0.950 . S
C2054 C2053 1.398 . S
C2054 C2055 1.391 . S
C2055 H2043 0.950 . S
C2055 C2051 1.393 . S
C2055 C2054 1.391 . S
H2056 C2064 0.950 . S
H2057 C2069 0.950 . S
H2058 C2066 0.950 . S
H2059 C2068 0.950 . S
H2060 C2070 0.950 . S
H2061 C2072 0.950 . S
H2062 C2074 0.950 . S
H2063 C2075 0.950 . S
C2064 H2056 0.950 . S
C2064 C2065 1.386 . S
C2064 C2066 1.391 . S
C2065 C2064 1.386 . S
C2065 C2069 1.393 . S
C2066 H2058 0.950 . S
C2066 C2064 1.391 . S
C2066 C2067 1.400 . S
C2067 C2066 1.400 . S
C2067 C2068 1.398 . S
C2067 C2073 1.491 . S
C2068 H2059 0.950 . S
C2068 C2067 1.398 . S
C2068 C2069 1.391 . S
C2069 H2057 0.950 . S
C2069 C2065 1.393 . S
C2069 C2068 1.391 . S
C2070 H2060 0.950 . S
C2070 C2071 1.386 . S
C2070 C2072 1.391 . S
C2071 C2070 1.386 . S
C2071 C2075 1.393 . S
C2072 H2061 0.950 . S
C2072 C2070 1.391 . S
C2072 C2073 1.400 . S
C2073 C2067 1.491 . S
C2073 C2072 1.400 . S
C2073 C2074 1.398 . S
C2074 H2062 0.950 . S
C2074 C2073 1.398 . S
C2074 C2075 1.391 . S
C2075 H2063 0.950 . S
C2075 C2071 1.393 . S
C2075 C2074 1.391 . S
H2076 C2084 0.950 . S
H2077 C2089 0.950 . S
H2078 C2086 0.950 . S
H2079 C2088 0.950 . S
H2080 C2090 0.950 . S
H2081 C2092 0.950 . S
H2082 C2094 0.950 . S
H2083 C2095 0.950 . S
C2084 H2076 0.950 . S
C2084 C2085 1.386 . S
C2084 C2086 1.391 . S
C2085 C2084 1.386 . S
C2085 C2089 1.393 . S
C2086 H2078 0.950 . S
C2086 C2084 1.391 . S
C2086 C2087 1.400 . S
C2087 C2086 1.400 . S
C2087 C2088 1.398 . S
C2087 C2093 1.491 . S
C2088 H2079 0.950 . S
C2088 C2087 1.398 . S
C2088 C2089 1.391 . S
C2089 H2077 0.950 . S
C2089 C2085 1.393 . S
C2089 C2088 1.391 . S
C2090 H2080 0.950 . S
C2090 C2091 1.386 . S
C2090 C2092 1.391 . S
C2091 C2090 1.386 . S
C2091 C2095 1.393 . S
C2092 H2081 0.950 . S
C2092 C2090 1.391 . S
C2092 C2093 1.400 . S
C2093 C2087 1.491 . S
C2093 C2092 1.400 . S
C2093 C2094 1.398 . S
C2094 H2082 0.950 . S
C2094 C2093 1.398 . S
C2094 C2095 1.391 . S
C2095 H2083 0.950 . S
C2095 C2091 1.393 . S
C2095 C2094 1.391 . S
H2096 C2104 0.950 . S
H2097 C2109 0.950 . S
H2098 C2106 0.950 . S
H2099 C2108 0.950 . S
H2100 C2110 0.950 . S
H2101 C2112 0.950 . S
H2102 C2114 0.950 . S
H2103 C2115 0.950 . S
C2104 H2096 0.950 . S
C2104 C2105 1.386 . S
C2104 C2106 1.391 . S
C2105 C2104 1.386 . S
C2105 C2109 1.393 . S
C2106 H2098 0.950 . S
C2106 C2104 1.391 . S
C2106 C2107 1.400 . S
C2107 C2106 1.400 . S
C2107 C2108 1.398 . S
C2107 C2113 1.491 . S
C2108 H2099 0.950 . S
C2108 C2107 1.398 . S
C2108 C2109 1.391 . S
C2109 H2097 0.950 . S
C2109 C2105 1.393 . S
C2109 C2108 1.391 . S
C2110 H2100 0.950 . S
C2110 C2111 1.386 . S
C2110 C2112 1.391 . S
C2111 C2110 1.386 . S
C2111 C2115 1.393 . S
C2112 H2101 0.950 . S
C2112 C2110 1.391 . S
C2112 C2113 1.400 . S
C2113 C2107 1.491 . S
C2113 C2112 1.400 . S
C2113 C2114 1.398 . S
C2114 H2102 0.950 . S
C2114 C2113 1.398 . S
C2114 C2115 1.391 . S
C2115 H2103 0.950 . S
C2115 C2111 1.393 . S
C2115 C2114 1.391 . S
H2116 C2124 0.950 . S
H2117 C2129 0.950 . S
H2118 C2126 0.950 . S
H2119 C2128 0.950 . S
H2120 C2130 0.950 . S
H2121 C2132 0.950 . S
H2122 C2134 0.950 . S
H2123 C2135 0.950 . S
C2124 H2116 0.950 . S
C2124 C2125 1.386 . S
C2124 C2126 1.391 . S
C2125 C2124 1.386 . S
C2125 C2129 1.393 . S
C2126 H2118 0.950 . S
C2126 C2124 1.391 . S
C2126 C2127 1.400 . S
C2127 C2126 1.400 . S
C2127 C2128 1.398 . S
C2127 C2133 1.491 . S
C2128 H2119 0.950 . S
C2128 C2127 1.398 . S
C2128 C2129 1.391 . S
C2129 H2117 0.950 . S
C2129 C2125 1.393 . S
C2129 C2128 1.391 . S
C2130 H2120 0.950 . S
C2130 C2131 1.386 . S
C2130 C2132 1.391 . S
C2131 C2130 1.386 . S
C2131 C2135 1.393 . S
C2132 H2121 0.950 . S
C2132 C2130 1.391 . S
C2132 C2133 1.400 . S
C2133 C2127 1.491 . S
C2133 C2132 1.400 . S
C2133 C2134 1.398 . S
C2134 H2122 0.950 . S
C2134 C2133 1.398 . S
C2134 C2135 1.391 . S
C2135 H2123 0.950 . S
C2135 C2131 1.393 . S
C2135 C2134 1.391 . S
H2136 C2144 0.950 . S
H2137 C2149 0.950 . S
H2138 C2146 0.950 . S
H2139 C2148 0.950 . S
H2140 C2150 0.950 . S
H2141 C2152 0.950 . S
H2142 C2154 0.950 . S
H2143 C2155 0.950 . S
C2144 H2136 0.950 . S
C2144 C2145 1.386 . S
C2144 C2146 1.391 . S
C2145 C2144 1.386 . S
C2145 C2149 1.393 . S
C2146 H2138 0.950 . S
C2146 C2144 1.391 . S
C2146 C2147 1.400 . S
C2147 C2146 1.400 . S
C2147 C2148 1.398 . S
C2147 C2153 1.491 . S
C2148 H2139 0.950 . S
C2148 C2147 1.398 . S
C2148 C2149 1.391 . S
C2149 H2137 0.950 . S
C2149 C2145 1.393 . S
C2149 C2148 1.391 . S
C2150 H2140 0.950 . S
C2150 C2151 1.386 . S
C2150 C2152 1.391 . S
C2151 C2150 1.386 . S
C2151 C2155 1.393 . S
C2152 H2141 0.950 . S
C2152 C2150 1.391 . S
C2152 C2153 1.400 . S
C2153 C2147 1.491 . S
C2153 C2152 1.400 . S
C2153 C2154 1.398 . S
C2154 H2142 0.950 . S
C2154 C2153 1.398 . S
C2154 C2155 1.391 . S
C2155 H2143 0.950 . S
C2155 C2151 1.393 . S
C2155 C2154 1.391 . S
H2156 C2164 0.950 . S
H2157 C2169 0.950 . S
H2158 C2166 0.950 . S
H2159 C2168 0.950 . S
H2160 C2170 0.950 . S
H2161 C2172 0.950 . S
H2162 C2174 0.950 . S
H2163 C2175 0.950 . S
C2164 H2156 0.950 . S
C2164 C2165 1.386 . S
C2164 C2166 1.391 . S
C2165 C2164 1.386 . S
C2165 C2169 1.393 . S
C2166 H2158 0.950 . S
C2166 C2164 1.391 . S
C2166 C2167 1.400 . S
C2167 C2166 1.400 . S
C2167 C2168 1.398 . S
C2167 C2173 1.491 . S
C2168 H2159 0.950 . S
C2168 C2167 1.398 . S
C2168 C2169 1.391 . S
C2169 H2157 0.950 . S
C2169 C2165 1.393 . S
C2169 C2168 1.391 . S
C2170 H2160 0.950 . S
C2170 C2171 1.386 . S
C2170 C2172 1.391 . S
C2171 C2170 1.386 . S
C2171 C2175 1.393 . S
C2172 H2161 0.950 . S
C2172 C2170 1.391 . S
C2172 C2173 1.400 . S
C2173 C2167 1.491 . S
C2173 C2172 1.400 . S
C2173 C2174 1.398 . S
C2174 H2162 0.950 . S
C2174 C2173 1.398 . S
C2174 C2175 1.391 . S
C2175 H2163 0.950 . S
C2175 C2171 1.393 . S
C2175 C2174 1.391 . S
H2176 C2184 0.950 . S
H2177 C2189 0.950 . S
H2178 C2186 0.950 . S
H2179 C2188 0.950 . S
H2180 C2190 0.950 . S
H2181 C2192 0.950 . S
H2182 C2194 0.950 . S
H2183 C2195 0.950 . S
C2184 H2176 0.950 . S
C2184 C2185 1.386 . S
C2184 C2186 1.391 . S
C2185 C2184 1.386 . S
C2185 C2189 1.393 . S
C2186 H2178 0.950 . S
C2186 C2184 1.391 . S
C2186 C2187 1.400 . S
C2187 C2186 1.400 . S
C2187 C2188 1.398 . S
C2187 C2193 1.491 . S
C2188 H2179 0.950 . S
C2188 C2187 1.398 . S
C2188 C2189 1.391 . S
C2189 H2177 0.950 . S
C2189 C2185 1.393 . S
C2189 C2188 1.391 . S
C2190 H2180 0.950 . S
C2190 C2191 1.386 . S
C2190 C2192 1.391 . S
C2191 C2190 1.386 . S
C2191 C2195 1.393 . S
C2192 H2181 0.950 . S
C2192 C2190 1.391 . S
C2192 C2193 1.400 . S
C2193 C2187 1.491 . S
C2193 C2192 1.400 . S
C2193 C2194 1.398 . S
C2194 H2182 0.950 . S
C2194 C2193 1.398 . S
C2194 C2195 1.391 . S
C2195 H2183 0.950 . S
C2195 C2191 1.393 . S
C2195 C2194 1.391 . S
H2196 C2204 0.950 . S
H2197 C2209 0.950 . S
H2198 C2206 0.950 . S
H2199 C2208 0.950 . S
H2200 C2210 0.950 . S
H2201 C2212 0.950 . S
H2202 C2214 0.950 . S
H2203 C2215 0.950 . S
C2204 H2196 0.950 . S
C2204 C2205 1.386 . S
C2204 C2206 1.391 . S
C2205 C2204 1.386 . S
C2205 C2209 1.393 . S
C2206 H2198 0.950 . S
C2206 C2204 1.391 . S
C2206 C2207 1.400 . S
C2207 C2206 1.400 . S
C2207 C2208 1.398 . S
C2207 C2213 1.491 . S
C2208 H2199 0.950 . S
C2208 C2207 1.398 . S
C2208 C2209 1.391 . S
C2209 H2197 0.950 . S
C2209 C2205 1.393 . S
C2209 C2208 1.391 . S
C2210 H2200 0.950 . S
C2210 C2211 1.386 . S
C2210 C2212 1.391 . S
C2211 C2210 1.386 . S
C2211 C2215 1.393 . S
C2212 H2201 0.950 . S
C2212 C2210 1.391 . S
C2212 C2213 1.400 . S
C2213 C2207 1.491 . S
C2213 C2212 1.400 . S
C2213 C2214 1.398 . S
C2214 H2202 0.950 . S
C2214 C2213 1.398 . S
C2214 C2215 1.391 . S
C2215 H2203 0.950 . S
C2215 C2211 1.393 . S
C2215 C2214 1.391 . S
H2216 C2224 0.950 . S
H2217 C2229 0.950 . S
H2218 C2226 0.950 . S
H2219 C2228 0.950 . S
H2220 C2230 0.950 . S
H2221 C2232 0.950 . S
H2222 C2234 0.950 . S
H2223 C2235 0.950 . S
C2224 H2216 0.950 . S
C2224 C2225 1.386 . S
C2224 C2226 1.391 . S
C2225 C2224 1.386 . S
C2225 C2229 1.393 . S
C2226 H2218 0.950 . S
C2226 C2224 1.391 . S
C2226 C2227 1.400 . S
C2227 C2226 1.400 . S
C2227 C2228 1.398 . S
C2227 C2233 1.491 . S
C2228 H2219 0.950 . S
C2228 C2227 1.398 . S
C2228 C2229 1.391 . S
C2229 H2217 0.950 . S
C2229 C2225 1.393 . S
C2229 C2228 1.391 . S
C2230 H2220 0.950 . S
C2230 C2231 1.386 . S
C2230 C2232 1.391 . S
C2231 C2230 1.386 . S
C2231 C2235 1.393 . S
C2232 H2221 0.950 . S
C2232 C2230 1.391 . S
C2232 C2233 1.400 . S
C2233 C2227 1.491 . S
C2233 C2232 1.400 . S
C2233 C2234 1.398 . S
C2234 H2222 0.950 . S
C2234 C2233 1.398 . S
C2234 C2235 1.391 . S
C2235 H2223 0.950 . S
C2235 C2231 1.393 . S
C2235 C2234 1.391 . S
H2236 C2244 0.950 . S
H2237 C2249 0.950 . S
H2238 C2246 0.950 . S
H2239 C2248 0.950 . S
H2240 C2250 0.950 . S
H2241 C2252 0.950 . S
H2242 C2254 0.950 . S
H2243 C2255 0.950 . S
C2244 H2236 0.950 . S
C2244 C2245 1.386 . S
C2244 C2246 1.391 . S
C2245 C2244 1.386 . S
C2245 C2249 1.393 . S
C2246 H2238 0.950 . S
C2246 C2244 1.391 . S
C2246 C2247 1.400 . S
C2247 C2246 1.400 . S
C2247 C2248 1.398 . S
C2247 C2253 1.491 . S
C2248 H2239 0.950 . S
C2248 C2247 1.398 . S
C2248 C2249 1.391 . S
C2249 H2237 0.950 . S
C2249 C2245 1.393 . S
C2249 C2248 1.391 . S
C2250 H2240 0.950 . S
C2250 C2251 1.386 . S
C2250 C2252 1.391 . S
C2251 C2250 1.386 . S
C2251 C2255 1.393 . S
C2252 H2241 0.950 . S
C2252 C2250 1.391 . S
C2252 C2253 1.400 . S
C2253 C2247 1.491 . S
C2253 C2252 1.400 . S
C2253 C2254 1.398 . S
C2254 H2242 0.950 . S
C2254 C2253 1.398 . S
C2254 C2255 1.391 . S
C2255 H2243 0.950 . S
C2255 C2251 1.393 . S
C2255 C2254 1.391 . S
H2256 C2264 0.950 . S
H2257 C2269 0.950 . S
H2258 C2266 0.950 . S
H2259 C2268 0.950 . S
H2260 C2270 0.950 . S
H2261 C2272 0.950 . S
H2262 C2274 0.950 . S
H2263 C2275 0.950 . S
C2264 H2256 0.950 . S
C2264 C2265 1.386 . S
C2264 C2266 1.391 . S
C2265 C2264 1.386 . S
C2265 C2269 1.393 . S
C2266 H2258 0.950 . S
C2266 C2264 1.391 . S
C2266 C2267 1.400 . S
C2267 C2266 1.400 . S
C2267 C2268 1.398 . S
C2267 C2273 1.491 . S
C2268 H2259 0.950 . S
C2268 C2267 1.398 . S
C2268 C2269 1.391 . S
C2269 H2257 0.950 . S
C2269 C2265 1.393 . S
C2269 C2268 1.391 . S
C2270 H2260 0.950 . S
C2270 C2271 1.386 . S
C2270 C2272 1.391 . S
C2271 C2270 1.386 . S
C2271 C2275 1.393 . S
C2272 H2261 0.950 . S
C2272 C2270 1.391 . S
C2272 C2273 1.400 . S
C2273 C2267 1.491 . S
C2273 C2272 1.400 . S
C2273 C2274 1.398 . S
C2274 H2262 0.950 . S
C2274 C2273 1.398 . S
C2274 C2275 1.391 . S
C2275 H2263 0.950 . S
C2275 C2271 1.393 . S
C2275 C2274 1.391 . S
H2276 C2284 0.950 . S
H2277 C2289 0.950 . S
H2278 C2286 0.950 . S
H2279 C2288 0.950 . S
H2280 C2290 0.950 . S
H2281 C2292 0.950 . S
H2282 C2294 0.950 . S
H2283 C2295 0.950 . S
C2284 H2276 0.950 . S
C2284 C2285 1.386 . S
C2284 C2286 1.391 . S
C2285 C2284 1.386 . S
C2285 C2289 1.393 . S
C2286 H2278 0.950 . S
C2286 C2284 1.391 . S
C2286 C2287 1.400 . S
C2287 C2286 1.400 . S
C2287 C2288 1.398 . S
C2287 C2293 1.491 . S
C2288 H2279 0.950 . S
C2288 C2287 1.398 . S
C2288 C2289 1.391 . S
C2289 H2277 0.950 . S
C2289 C2285 1.393 . S
C2289 C2288 1.391 . S
C2290 H2280 0.950 . S
C2290 C2291 1.386 . S
C2290 C2292 1.391 . S
C2291 C2290 1.386 . S
C2291 C2295 1.393 . S
C2292 H2281 0.950 . S
C2292 C2290 1.391 . S
C2292 C2293 1.400 . S
C2293 C2287 1.491 . S
C2293 C2292 1.400 . S
C2293 C2294 1.398 . S
C2294 H2282 0.950 . S
C2294 C2293 1.398 . S
C2294 C2295 1.391 . S
C2295 H2283 0.950 . S
C2295 C2291 1.393 . S
C2295 C2294 1.391 . S
H2296 C2304 0.950 . S
H2297 C2309 0.950 . S
H2298 C2306 0.950 . S
H2299 C2308 0.950 . S
H2300 C2310 0.950 . S
H2301 C2312 0.950 . S
H2302 C2314 0.950 . S
H2303 C2315 0.950 . S
C2304 H2296 0.950 . S
C2304 C2305 1.386 . S
C2304 C2306 1.391 . S
C2305 C2304 1.386 . S
C2305 C2309 1.393 . S
C2306 H2298 0.950 . S
C2306 C2304 1.391 . S
C2306 C2307 1.400 . S
C2307 C2306 1.400 . S
C2307 C2308 1.398 . S
C2307 C2313 1.491 . S
C2308 H2299 0.950 . S
C2308 C2307 1.398 . S
C2308 C2309 1.391 . S
C2309 H2297 0.950 . S
C2309 C2305 1.393 . S
C2309 C2308 1.391 . S
C2310 H2300 0.950 . S
C2310 C2311 1.386 . S
C2310 C2312 1.391 . S
C2311 C2310 1.386 . S
C2311 C2315 1.393 . S
C2312 H2301 0.950 . S
C2312 C2310 1.391 . S
C2312 C2313 1.400 . S
C2313 C2307 1.491 . S
C2313 C2312 1.400 . S
C2313 C2314 1.398 . S
C2314 H2302 0.950 . S
C2314 C2313 1.398 . S
C2314 C2315 1.391 . S
C2315 H2303 0.950 . S
C2315 C2311 1.393 . S
C2315 C2314 1.391 . S
H2316 C2324 0.950 . S
H2317 C2329 0.950 . S
H2318 C2326 0.950 . S
H2319 C2328 0.950 . S
H2320 C2330 0.950 . S
H2321 C2332 0.950 . S
H2322 C2334 0.950 . S
H2323 C2335 0.950 . S
C2324 H2316 0.950 . S
C2324 C2325 1.386 . S
C2324 C2326 1.391 . S
C2325 C2324 1.386 . S
C2325 C2329 1.393 . S
C2326 H2318 0.950 . S
C2326 C2324 1.391 . S
C2326 C2327 1.400 . S
C2327 C2326 1.400 . S
C2327 C2328 1.398 . S
C2327 C2333 1.491 . S
C2328 H2319 0.950 . S
C2328 C2327 1.398 . S
C2328 C2329 1.391 . S
C2329 H2317 0.950 . S
C2329 C2325 1.393 . S
C2329 C2328 1.391 . S
C2330 H2320 0.950 . S
C2330 C2331 1.386 . S
C2330 C2332 1.391 . S
C2331 C2330 1.386 . S
C2331 C2335 1.393 . S
C2332 H2321 0.950 . S
C2332 C2330 1.391 . S
C2332 C2333 1.400 . S
C2333 C2327 1.491 . S
C2333 C2332 1.400 . S
C2333 C2334 1.398 . S
C2334 H2322 0.950 . S
C2334 C2333 1.398 . S
C2334 C2335 1.391 . S
C2335 H2323 0.950 . S
C2335 C2331 1.393 . S
C2335 C2334 1.391 . S
H2336 C2344 0.950 . S
H2337 C2349 0.950 . S
H2338 C2346 0.950 . S
H2339 C2348 0.950 . S
H2340 C2350 0.950 . S
H2341 C2352 0.950 . S
H2342 C2354 0.950 . S
H2343 C2355 0.950 . S
C2344 H2336 0.950 . S
C2344 C2345 1.386 . S
C2344 C2346 1.391 . S
C2345 C2344 1.386 . S
C2345 C2349 1.393 . S
C2346 H2338 0.950 . S
C2346 C2344 1.391 . S
C2346 C2347 1.400 . S
C2347 C2346 1.400 . S
C2347 C2348 1.398 . S
C2347 C2353 1.491 . S
C2348 H2339 0.950 . S
C2348 C2347 1.398 . S
C2348 C2349 1.391 . S
C2349 H2337 0.950 . S
C2349 C2345 1.393 . S
C2349 C2348 1.391 . S
C2350 H2340 0.950 . S
C2350 C2351 1.386 . S
C2350 C2352 1.391 . S
C2351 C2350 1.386 . S
C2351 C2355 1.393 . S
C2352 H2341 0.950 . S
C2352 C2350 1.391 . S
C2352 C2353 1.400 . S
C2353 C2347 1.491 . S
C2353 C2352 1.400 . S
C2353 C2354 1.398 . S
C2354 H2342 0.950 . S
C2354 C2353 1.398 . S
C2354 C2355 1.391 . S
C2355 H2343 0.950 . S
C2355 C2351 1.393 . S
C2355 C2354 1.391 . S
H2356 C2364 0.950 . S
H2357 C2369 0.950 . S
H2358 C2366 0.950 . S
H2359 C2368 0.950 . S
H2360 C2370 0.950 . S
H2361 C2372 0.950 . S
H2362 C2374 0.950 . S
H2363 C2375 0.950 . S
C2364 H2356 0.950 . S
C2364 C2365 1.386 . S
C2364 C2366 1.391 . S
C2365 C2364 1.386 . S
C2365 C2369 1.393 . S
C2366 H2358 0.950 . S
C2366 C2364 1.391 . S
C2366 C2367 1.400 . S
C2367 C2366 1.400 . S
C2367 C2368 1.398 . S
C2367 C2373 1.491 . S
C2368 H2359 0.950 . S
C2368 C2367 1.398 . S
C2368 C2369 1.391 . S
C2369 H2357 0.950 . S
C2369 C2365 1.393 . S
C2369 C2368 1.391 . S
C2370 H2360 0.950 . S
C2370 C2371 1.386 . S
C2370 C2372 1.391 . S
C2371 C2370 1.386 . S
C2371 C2375 1.393 . S
C2372 H2361 0.950 . S
C2372 C2370 1.391 . S
C2372 C2373 1.400 . S
C2373 C2367 1.491 . S
C2373 C2372 1.400 . S
C2373 C2374 1.398 . S
C2374 H2362 0.950 . S
C2374 C2373 1.398 . S
C2374 C2375 1.391 . S
C2375 H2363 0.950 . S
C2375 C2371 1.393 . S
C2375 C2374 1.391 . S
H2376 C2384 0.950 . S
H2377 C2389 0.950 . S
H2378 C2386 0.950 . S
H2379 C2388 0.950 . S
H2380 C2390 0.950 . S
H2381 C2392 0.950 . S
H2382 C2394 0.950 . S
H2383 C2395 0.950 . S
C2384 H2376 0.950 . S
C2384 C2385 1.386 . S
C2384 C2386 1.391 . S
C2385 C2384 1.386 . S
C2385 C2389 1.393 . S
C2386 H2378 0.950 . S
C2386 C2384 1.391 . S
C2386 C2387 1.400 . S
C2387 C2386 1.400 . S
C2387 C2388 1.398 . S
C2387 C2393 1.491 . S
C2388 H2379 0.950 . S
C2388 C2387 1.398 . S
C2388 C2389 1.391 . S
C2389 H2377 0.950 . S
C2389 C2385 1.393 . S
C2389 C2388 1.391 . S
C2390 H2380 0.950 . S
C2390 C2391 1.386 . S
C2390 C2392 1.391 . S
C2391 C2390 1.386 . S
C2391 C2395 1.393 . S
C2392 H2381 0.950 . S
C2392 C2390 1.391 . S
C2392 C2393 1.400 . S
C2393 C2387 1.491 . S
C2393 C2392 1.400 . S
C2393 C2394 1.398 . S
C2394 H2382 0.950 . S
C2394 C2393 1.398 . S
C2394 C2395 1.391 . S
C2395 H2383 0.950 . S
C2395 C2391 1.393 . S
C2395 C2394 1.391 . S
H2396 C2404 0.950 . S
H2397 C2409 0.950 . S
H2398 C2406 0.950 . S
H2399 C2408 0.950 . S
H2400 C2410 0.950 . S
H2401 C2412 0.950 . S
H2402 C2414 0.950 . S
H2403 C2415 0.950 . S
C2404 H2396 0.950 . S
C2404 C2405 1.386 . S
C2404 C2406 1.391 . S
C2405 C2404 1.386 . S
C2405 C2409 1.393 . S
C2406 H2398 0.950 . S
C2406 C2404 1.391 . S
C2406 C2407 1.400 . S
C2407 C2406 1.400 . S
C2407 C2408 1.398 . S
C2407 C2413 1.491 . S
C2408 H2399 0.950 . S
C2408 C2407 1.398 . S
C2408 C2409 1.391 . S
C2409 H2397 0.950 . S
C2409 C2405 1.393 . S
C2409 C2408 1.391 . S
C2410 H2400 0.950 . S
C2410 C2411 1.386 . S
C2410 C2412 1.391 . S
C2411 C2410 1.386 . S
C2411 C2415 1.393 . S
C2412 H2401 0.950 . S
C2412 C2410 1.391 . S
C2412 C2413 1.400 . S
C2413 C2407 1.491 . S
C2413 C2412 1.400 . S
C2413 C2414 1.398 . S
C2414 H2402 0.950 . S
C2414 C2413 1.398 . S
C2414 C2415 1.391 . S
C2415 H2403 0.950 . S
C2415 C2411 1.393 . S
C2415 C2414 1.391 . S
H2416 C2424 0.950 . S
H2417 C2429 0.950 . S
H2418 C2426 0.950 . S
H2419 C2428 0.950 . S
H2420 C2430 0.950 . S
H2421 C2432 0.950 . S
H2422 C2434 0.950 . S
H2423 C2435 0.950 . S
C2424 H2416 0.950 . S
C2424 C2425 1.386 . S
C2424 C2426 1.391 . S
C2425 C2424 1.386 . S
C2425 C2429 1.393 . S
C2426 H2418 0.950 . S
C2426 C2424 1.391 . S
C2426 C2427 1.400 . S
C2427 C2426 1.400 . S
C2427 C2428 1.398 . S
C2427 C2433 1.491 . S
C2428 H2419 0.950 . S
C2428 C2427 1.398 . S
C2428 C2429 1.391 . S
C2429 H2417 0.950 . S
C2429 C2425 1.393 . S
C2429 C2428 1.391 . S
C2430 H2420 0.950 . S
C2430 C2431 1.386 . S
C2430 C2432 1.391 . S
C2431 C2430 1.386 . S
C2431 C2435 1.393 . S
C2432 H2421 0.950 . S
C2432 C2430 1.391 . S
C2432 C2433 1.400 . S
C2433 C2427 1.491 . S
C2433 C2432 1.400 . S
C2433 C2434 1.398 . S
C2434 H2422 0.950 . S
C2434 C2433 1.398 . S
C2434 C2435 1.391 . S
C2435 H2423 0.950 . S
C2435 C2431 1.393 . S
C2435 C2434 1.391 . S
H2436 C2444 0.950 . S
H2437 C2449 0.950 . S
H2438 C2446 0.950 . S
H2439 C2448 0.950 . S
H2440 C2450 0.950 . S
H2441 C2452 0.950 . S
H2442 C2454 0.950 . S
H2443 C2455 0.950 . S
C2444 H2436 0.950 . S
C2444 C2445 1.386 . S
C2444 C2446 1.391 . S
C2445 C2444 1.386 . S
C2445 C2449 1.393 . S
C2446 H2438 0.950 . S
C2446 C2444 1.391 . S
C2446 C2447 1.400 . S
C2447 C2446 1.400 . S
C2447 C2448 1.398 . S
C2447 C2453 1.491 . S
C2448 H2439 0.950 . S
C2448 C2447 1.398 . S
C2448 C2449 1.391 . S
C2449 H2437 0.950 . S
C2449 C2445 1.393 . S
C2449 C2448 1.391 . S
C2450 H2440 0.950 . S
C2450 C2451 1.386 . S
C2450 C2452 1.391 . S
C2451 C2450 1.386 . S
C2451 C2455 1.393 . S
C2452 H2441 0.950 . S
C2452 C2450 1.391 . S
C2452 C2453 1.400 . S
C2453 C2447 1.491 . S
C2453 C2452 1.400 . S
C2453 C2454 1.398 . S
C2454 H2442 0.950 . S
C2454 C2453 1.398 . S
C2454 C2455 1.391 . S
C2455 H2443 0.950 . S
C2455 C2451 1.393 . S
C2455 C2454 1.391 . S
H2456 C2464 0.950 . S
H2457 C2469 0.950 . S
H2458 C2466 0.950 . S
H2459 C2468 0.950 . S
H2460 C2470 0.950 . S
H2461 C2472 0.950 . S
H2462 C2474 0.950 . S
H2463 C2475 0.950 . S
C2464 H2456 0.950 . S
C2464 C2465 1.386 . S
C2464 C2466 1.391 . S
C2465 C2464 1.386 . S
C2465 C2469 1.393 . S
C2466 H2458 0.950 . S
C2466 C2464 1.391 . S
C2466 C2467 1.400 . S
C2467 C2466 1.400 . S
C2467 C2468 1.398 . S
C2467 C2473 1.491 . S
C2468 H2459 0.950 . S
C2468 C2467 1.398 . S
C2468 C2469 1.391 . S
C2469 H2457 0.950 . S
C2469 C2465 1.393 . S
C2469 C2468 1.391 . S
C2470 H2460 0.950 . S
C2470 C2471 1.386 . S
C2470 C2472 1.391 . S
C2471 C2470 1.386 . S
C2471 C2475 1.393 . S
C2472 H2461 0.950 . S
C2472 C2470 1.391 . S
C2472 C2473 1.400 . S
C2473 C2467 1.491 . S
C2473 C2472 1.400 . S
C2473 C2474 1.398 . S
C2474 H2462 0.950 . S
C2474 C2473 1.398 . S
C2474 C2475 1.391 . S
C2475 H2463 0.950 . S
C2475 C2471 1.393 . S
C2475 C2474 1.391 . S
H2476 C2484 0.950 . S
H2477 C2489 0.950 . S
H2478 C2486 0.950 . S
H2479 C2488 0.950 . S
H2480 C2490 0.950 . S
H2481 C2492 0.950 . S
H2482 C2494 0.950 . S
H2483 C2495 0.950 . S
C2484 H2476 0.950 . S
C2484 C2485 1.386 . S
C2484 C2486 1.391 . S
C2485 C2484 1.386 . S
C2485 C2489 1.393 . S
C2486 H2478 0.950 . S
C2486 C2484 1.391 . S
C2486 C2487 1.400 . S
C2487 C2486 1.400 . S
C2487 C2488 1.398 . S
C2487 C2493 1.491 . S
C2488 H2479 0.950 . S
C2488 C2487 1.398 . S
C2488 C2489 1.391 . S
C2489 H2477 0.950 . S
C2489 C2485 1.393 . S
C2489 C2488 1.391 . S
C2490 H2480 0.950 . S
C2490 C2491 1.386 . S
C2490 C2492 1.391 . S
C2491 C2490 1.386 . S
C2491 C2495 1.393 . S
C2492 H2481 0.950 . S
C2492 C2490 1.391 . S
C2492 C2493 1.400 . S
C2493 C2487 1.491 . S
C2493 C2492 1.400 . S
C2493 C2494 1.398 . S
C2494 H2482 0.950 . S
C2494 C2493 1.398 . S
C2494 C2495 1.391 . S
C2495 H2483 0.950 . S
C2495 C2491 1.393 . S
C2495 C2494 1.391 . S
H2496 C2504 0.950 . S
H2497 C2509 0.950 . S
H2498 C2506 0.950 . S
H2499 C2508 0.950 . S
H2500 C2510 0.950 . S
H2501 C2512 0.950 . S
H2502 C2514 0.950 . S
H2503 C2515 0.950 . S
C2504 H2496 0.950 . S
C2504 C2505 1.386 . S
C2504 C2506 1.391 . S
C2505 C2504 1.386 . S
C2505 C2509 1.393 . S
C2506 H2498 0.950 . S
C2506 C2504 1.391 . S
C2506 C2507 1.400 . S
C2507 C2506 1.400 . S
C2507 C2508 1.398 . S
C2507 C2513 1.491 . S
C2508 H2499 0.950 . S
C2508 C2507 1.398 . S
C2508 C2509 1.391 . S
C2509 H2497 0.950 . S
C2509 C2505 1.393 . S
C2509 C2508 1.391 . S
C2510 H2500 0.950 . S
C2510 C2511 1.386 . S
C2510 C2512 1.391 . S
C2511 C2510 1.386 . S
C2511 C2515 1.393 . S
C2512 H2501 0.950 . S
C2512 C2510 1.391 . S
C2512 C2513 1.400 . S
C2513 C2507 1.491 . S
C2513 C2512 1.400 . S
C2513 C2514 1.398 . S
C2514 H2502 0.950 . S
C2514 C2513 1.398 . S
C2514 C2515 1.391 . S
C2515 H2503 0.950 . S
C2515 C2511 1.393 . S
C2515 C2514 1.391 . S
H2516 C2524 0.950 . S
H2517 C2529 0.950 . S
H2518 C2526 0.950 . S
H2519 C2528 0.950 . S
H2520 C2530 0.950 . S
H2521 C2532 0.950 . S
H2522 C2534 0.950 . S
H2523 C2535 0.950 . S
C2524 H2516 0.950 . S
C2524 C2525 1.386 . S
C2524 C2526 1.391 . S
C2525 C2524 1.386 . S
C2525 C2529 1.393 . S
C2526 H2518 0.950 . S
C2526 C2524 1.391 . S
C2526 C2527 1.400 . S
C2527 C2526 1.400 . S
C2527 C2528 1.398 . S
C2527 C2533 1.491 . S
C2528 H2519 0.950 . S
C2528 C2527 1.398 . S
C2528 C2529 1.391 . S
C2529 H2517 0.950 . S
C2529 C2525 1.393 . S
C2529 C2528 1.391 . S
C2530 H2520 0.950 . S
C2530 C2531 1.386 . S
C2530 C2532 1.391 . S
C2531 C2530 1.386 . S
C2531 C2535 1.393 . S
C2532 H2521 0.950 . S
C2532 C2530 1.391 . S
C2532 C2533 1.400 . S
C2533 C2527 1.491 . S
C2533 C2532 1.400 . S
C2533 C2534 1.398 . S
C2534 H2522 0.950 . S
C2534 C2533 1.398 . S
C2534 C2535 1.391 . S
C2535 H2523 0.950 . S
C2535 C2531 1.393 . S
C2535 C2534 1.391 . S
H2536 C2544 0.950 . S
H2537 C2549 0.950 . S
H2538 C2546 0.950 . S
H2539 C2548 0.950 . S
H2540 C2550 0.950 . S
H2541 C2552 0.950 . S
H2542 C2554 0.950 . S
H2543 C2555 0.950 . S
C2544 H2536 0.950 . S
C2544 C2545 1.386 . S
C2544 C2546 1.391 . S
C2545 C2544 1.386 . S
C2545 C2549 1.393 . S
C2546 H2538 0.950 . S
C2546 C2544 1.391 . S
C2546 C2547 1.400 . S
C2547 C2546 1.400 . S
C2547 C2548 1.398 . S
C2547 C2553 1.491 . S
C2548 H2539 0.950 . S
C2548 C2547 1.398 . S
C2548 C2549 1.391 . S
C2549 H2537 0.950 . S
C2549 C2545 1.393 . S
C2549 C2548 1.391 . S
C2550 H2540 0.950 . S
C2550 C2551 1.386 . S
C2550 C2552 1.391 . S
C2551 C2550 1.386 . S
C2551 C2555 1.393 . S
C2552 H2541 0.950 . S
C2552 C2550 1.391 . S
C2552 C2553 1.400 . S
C2553 C2547 1.491 . S
C2553 C2552 1.400 . S
C2553 C2554 1.398 . S
C2554 H2542 0.950 . S
C2554 C2553 1.398 . S
C2554 C2555 1.391 . S
C2555 H2543 0.950 . S
C2555 C2551 1.393 . S
C2555 C2554 1.391 . S
H2556 C2564 0.950 . S
H2557 C2569 0.950 . S
H2558 C2566 0.950 . S
H2559 C2568 0.950 . S
H2560 C2570 0.950 . S
H2561 C2572 0.950 . S
H2562 C2574 0.950 . S
H2563 C2575 0.950 . S
C2564 H2556 0.950 . S
C2564 C2565 1.386 . S
C2564 C2566 1.391 . S
C2565 C2564 1.386 . S
C2565 C2569 1.393 . S
C2566 H2558 0.950 . S
C2566 C2564 1.391 . S
C2566 C2567 1.400 . S
C2567 C2566 1.400 . S
C2567 C2568 1.398 . S
C2567 C2573 1.491 . S
C2568 H2559 0.950 . S
C2568 C2567 1.398 . S
C2568 C2569 1.391 . S
C2569 H2557 0.950 . S
C2569 C2565 1.393 . S
C2569 C2568 1.391 . S
C2570 H2560 0.950 . S
C2570 C2571 1.386 . S
C2570 C2572 1.391 . S
C2571 C2570 1.386 . S
C2571 C2575 1.393 . S
C2572 H2561 0.950 . S
C2572 C2570 1.391 . S
C2572 C2573 1.400 . S
C2573 C2567 1.491 . S
C2573 C2572 1.400 . S
C2573 C2574 1.398 . S
C2574 H2562 0.950 . S
C2574 C2573 1.398 . S
C2574 C2575 1.391 . S
C2575 H2563 0.950 . S
C2575 C2571 1.393 . S
C2575 C2574 1.391 . S
H2576 C2584 0.950 . S
H2577 C2589 0.950 . S
H2578 C2586 0.950 . S
H2579 C2588 0.950 . S
H2580 C2590 0.950 . S
H2581 C2592 0.950 . S
H2582 C2594 0.950 . S
H2583 C2595 0.950 . S
C2584 H2576 0.950 . S
C2584 C2585 1.386 . S
C2584 C2586 1.391 . S
C2585 C2584 1.386 . S
C2585 C2589 1.393 . S
C2586 H2578 0.950 . S
C2586 C2584 1.391 . S
C2586 C2587 1.400 . S
C2587 C2586 1.400 . S
C2587 C2588 1.398 . S
C2587 C2593 1.491 . S
C2588 H2579 0.950 . S
C2588 C2587 1.398 . S
C2588 C2589 1.391 . S
C2589 H2577 0.950 . S
C2589 C2585 1.393 . S
C2589 C2588 1.391 . S
C2590 H2580 0.950 . S
C2590 C2591 1.386 . S
C2590 C2592 1.391 . S
C2591 C2590 1.386 . S
C2591 C2595 1.393 . S
C2592 H2581 0.950 . S
C2592 C2590 1.391 . S
C2592 C2593 1.400 . S
C2593 C2587 1.491 . S
C2593 C2592 1.400 . S
C2593 C2594 1.398 . S
C2594 H2582 0.950 . S
C2594 C2593 1.398 . S
C2594 C2595 1.391 . S
C2595 H2583 0.950 . S
C2595 C2591 1.393 . S
C2595 C2594 1.391 . S
H2596 C2604 0.950 . S
H2597 C2609 0.950 . S
H2598 C2606 0.950 . S
H2599 C2608 0.950 . S
H2600 C2610 0.950 . S
H2601 C2612 0.950 . S
H2602 C2614 0.950 . S
H2603 C2615 0.950 . S
C2604 H2596 0.950 . S
C2604 C2605 1.386 . S
C2604 C2606 1.391 . S
C2605 C2604 1.386 . S
C2605 C2609 1.393 . S
C2606 H2598 0.950 . S
C2606 C2604 1.391 . S
C2606 C2607 1.400 . S
C2607 C2606 1.400 . S
C2607 C2608 1.398 . S
C2607 C2613 1.491 . S
C2608 H2599 0.950 . S
C2608 C2607 1.398 . S
C2608 C2609 1.391 . S
C2609 H2597 0.950 . S
C2609 C2605 1.393 . S
C2609 C2608 1.391 . S
C2610 H2600 0.950 . S
C2610 C2611 1.386 . S
C2610 C2612 1.391 . S
C2611 C2610 1.386 . S
C2611 C2615 1.393 . S
C2612 H2601 0.950 . S
C2612 C2610 1.391 . S
C2612 C2613 1.400 . S
C2613 C2607 1.491 . S
C2613 C2612 1.400 . S
C2613 C2614 1.398 . S
C2614 H2602 0.950 . S
C2614 C2613 1.398 . S
C2614 C2615 1.391 . S
C2615 H2603 0.950 . S
C2615 C2611 1.393 . S
C2615 C2614 1.391 . S
H2616 C2624 0.950 . S
H2617 C2629 0.950 . S
H2618 C2626 0.950 . S
H2619 C2628 0.950 . S
H2620 C2630 0.950 . S
H2621 C2632 0.950 . S
H2622 C2634 0.950 . S
H2623 C2635 0.950 . S
C2624 H2616 0.950 . S
C2624 C2625 1.386 . S
C2624 C2626 1.391 . S
C2625 C2624 1.386 . S
C2625 C2629 1.393 . S
C2626 H2618 0.950 . S
C2626 C2624 1.391 . S
C2626 C2627 1.400 . S
C2627 C2626 1.400 . S
C2627 C2628 1.398 . S
C2627 C2633 1.491 . S
C2628 H2619 0.950 . S
C2628 C2627 1.398 . S
C2628 C2629 1.391 . S
C2629 H2617 0.950 . S
C2629 C2625 1.393 . S
C2629 C2628 1.391 . S
C2630 H2620 0.950 . S
C2630 C2631 1.386 . S
C2630 C2632 1.391 . S
C2631 C2630 1.386 . S
C2631 C2635 1.393 . S
C2632 H2621 0.950 . S
C2632 C2630 1.391 . S
C2632 C2633 1.400 . S
C2633 C2627 1.491 . S
C2633 C2632 1.400 . S
C2633 C2634 1.398 . S
C2634 H2622 0.950 . S
C2634 C2633 1.398 . S
C2634 C2635 1.391 . S
C2635 H2623 0.950 . S
C2635 C2631 1.393 . S
C2635 C2634 1.391 . S
H2636 C2644 0.950 . S
H2637 C2649 0.950 . S
H2638 C2646 0.950 . S
H2639 C2648 0.950 . S
H2640 C2650 0.950 . S
H2641 C2652 0.950 . S
H2642 C2654 0.950 . S
H2643 C2655 0.950 . S
C2644 H2636 0.950 . S
C2644 C2645 1.386 . S
C2644 C2646 1.391 . S
C2645 C2644 1.386 . S
C2645 C2649 1.393 . S
C2646 H2638 0.950 . S
C2646 C2644 1.391 . S
C2646 C2647 1.400 . S
C2647 C2646 1.400 . S
C2647 C2648 1.398 . S
C2647 C2653 1.491 . S
C2648 H2639 0.950 . S
C2648 C2647 1.398 . S
C2648 C2649 1.391 . S
C2649 H2637 0.950 . S
C2649 C2645 1.393 . S
C2649 C2648 1.391 . S
C2650 H2640 0.950 . S
C2650 C2651 1.386 . S
C2650 C2652 1.391 . S
C2651 C2650 1.386 . S
C2651 C2655 1.393 . S
C2652 H2641 0.950 . S
C2652 C2650 1.391 . S
C2652 C2653 1.400 . S
C2653 C2647 1.491 . S
C2653 C2652 1.400 . S
C2653 C2654 1.398 . S
C2654 H2642 0.950 . S
C2654 C2653 1.398 . S
C2654 C2655 1.391 . S
C2655 H2643 0.950 . S
C2655 C2651 1.393 . S
C2655 C2654 1.391 . S
H2656 C2664 0.950 . S
H2657 C2669 0.950 . S
H2658 C2666 0.950 . S
H2659 C2668 0.950 . S
H2660 C2670 0.950 . S
H2661 C2672 0.950 . S
H2662 C2674 0.950 . S
H2663 C2675 0.950 . S
C2664 H2656 0.950 . S
C2664 C2665 1.386 . S
C2664 C2666 1.391 . S
C2665 C2664 1.386 . S
C2665 C2669 1.393 . S
C2666 H2658 0.950 . S
C2666 C2664 1.391 . S
C2666 C2667 1.400 . S
C2667 C2666 1.400 . S
C2667 C2668 1.398 . S
C2667 C2673 1.491 . S
C2668 H2659 0.950 . S
C2668 C2667 1.398 . S
C2668 C2669 1.391 . S
C2669 H2657 0.950 . S
C2669 C2665 1.393 . S
C2669 C2668 1.391 . S
C2670 H2660 0.950 . S
C2670 C2671 1.386 . S
C2670 C2672 1.391 . S
C2671 C2670 1.386 . S
C2671 C2675 1.393 . S
C2672 H2661 0.950 . S
C2672 C2670 1.391 . S
C2672 C2673 1.400 . S
C2673 C2667 1.491 . S
C2673 C2672 1.400 . S
C2673 C2674 1.398 . S
C2674 H2662 0.950 . S
C2674 C2673 1.398 . S
C2674 C2675 1.391 . S
C2675 H2663 0.950 . S
C2675 C2671 1.393 . S
C2675 C2674 1.391 . S
H2676 C2684 0.950 . S
H2677 C2689 0.950 . S
H2678 C2686 0.950 . S
H2679 C2688 0.950 . S
H2680 C2690 0.950 . S
H2681 C2692 0.950 . S
H2682 C2694 0.950 . S
H2683 C2695 0.950 . S
C2684 H2676 0.950 . S
C2684 C2685 1.386 . S
C2684 C2686 1.391 . S
C2685 C2684 1.386 . S
C2685 C2689 1.393 . S
C2686 H2678 0.950 . S
C2686 C2684 1.391 . S
C2686 C2687 1.400 . S
C2687 C2686 1.400 . S
C2687 C2688 1.398 . S
C2687 C2693 1.491 . S
C2688 H2679 0.950 . S
C2688 C2687 1.398 . S
C2688 C2689 1.391 . S
C2689 H2677 0.950 . S
C2689 C2685 1.393 . S
C2689 C2688 1.391 . S
C2690 H2680 0.950 . S
C2690 C2691 1.386 . S
C2690 C2692 1.391 . S
C2691 C2690 1.386 . S
C2691 C2695 1.393 . S
C2692 H2681 0.950 . S
C2692 C2690 1.391 . S
C2692 C2693 1.400 . S
C2693 C2687 1.491 . S
C2693 C2692 1.400 . S
C2693 C2694 1.398 . S
C2694 H2682 0.950 . S
C2694 C2693 1.398 . S
C2694 C2695 1.391 . S
C2695 H2683 0.950 . S
C2695 C2691 1.393 . S
C2695 C2694 1.391 . S
H2696 C2704 0.950 . S
H2697 C2709 0.950 . S
H2698 C2706 0.950 . S
H2699 C2708 0.950 . S
H2700 C2710 0.950 . S
H2701 C2712 0.950 . S
H2702 C2714 0.950 . S
H2703 C2715 0.950 . S
C2704 H2696 0.950 . S
C2704 C2705 1.386 . S
C2704 C2706 1.391 . S
C2705 C2704 1.386 . S
C2705 C2709 1.393 . S
C2706 H2698 0.950 . S
C2706 C2704 1.391 . S
C2706 C2707 1.400 . S
C2707 C2706 1.400 . S
C2707 C2708 1.398 . S
C2707 C2713 1.491 . S
C2708 H2699 0.950 . S
C2708 C2707 1.398 . S
C2708 C2709 1.391 . S
C2709 H2697 0.950 . S
C2709 C2705 1.393 . S
C2709 C2708 1.391 . S
C2710 H2700 0.950 . S
C2710 C2711 1.386 . S
C2710 C2712 1.391 . S
C2711 C2710 1.386 . S
C2711 C2715 1.393 . S
C2712 H2701 0.950 . S
C2712 C2710 1.391 . S
C2712 C2713 1.400 . S
C2713 C2707 1.491 . S
C2713 C2712 1.400 . S
C2713 C2714 1.398 . S
C2714 H2702 0.950 . S
C2714 C2713 1.398 . S
C2714 C2715 1.391 . S
C2715 H2703 0.950 . S
C2715 C2711 1.393 . S
C2715 C2714 1.391 . S
H2716 C2724 0.950 . S
H2717 C2729 0.950 . S
H2718 C2726 0.950 . S
H2719 C2728 0.950 . S
H2720 C2730 0.950 . S
H2721 C2732 0.950 . S
H2722 C2734 0.950 . S
H2723 C2735 0.950 . S
C2724 H2716 0.950 . S
C2724 C2725 1.386 . S
C2724 C2726 1.391 . S
C2725 C2724 1.386 . S
C2725 C2729 1.393 . S
C2726 H2718 0.950 . S
C2726 C2724 1.391 . S
C2726 C2727 1.400 . S
C2727 C2726 1.400 . S
C2727 C2728 1.398 . S
C2727 C2733 1.491 . S
C2728 H2719 0.950 . S
C2728 C2727 1.398 . S
C2728 C2729 1.391 . S
C2729 H2717 0.950 . S
C2729 C2725 1.393 . S
C2729 C2728 1.391 . S
C2730 H2720 0.950 . S
C2730 C2731 1.386 . S
C2730 C2732 1.391 . S
C2731 C2730 1.386 . S
C2731 C2735 1.393 . S
C2732 H2721 0.950 . S
C2732 C2730 1.391 . S
C2732 C2733 1.400 . S
C2733 C2727 1.491 . S
C2733 C2732 1.400 . S
C2733 C2734 1.398 . S
C2734 H2722 0.950 . S
C2734 C2733 1.398 . S
C2734 C2735 1.391 . S
C2735 H2723 0.950 . S
C2735 C2731 1.393 . S
C2735 C2734 1.391 . S
H2736 C2744 0.950 . S
H2737 C2749 0.950 . S
H2738 C2746 0.950 . S
H2739 C2748 0.950 . S
H2740 C2750 0.950 . S
H2741 C2752 0.950 . S
H2742 C2754 0.950 . S
H2743 C2755 0.950 . S
C2744 H2736 0.950 . S
C2744 C2745 1.386 . S
C2744 C2746 1.391 . S
C2745 C2744 1.386 . S
C2745 C2749 1.393 . S
C2746 H2738 0.950 . S
C2746 C2744 1.391 . S
C2746 C2747 1.400 . S
C2747 C2746 1.400 . S
C2747 C2748 1.398 . S
C2747 C2753 1.491 . S
C2748 H2739 0.950 . S
C2748 C2747 1.398 . S
C2748 C2749 1.391 . S
C2749 H2737 0.950 . S
C2749 C2745 1.393 . S
C2749 C2748 1.391 . S
C2750 H2740 0.950 . S
C2750 C2751 1.386 . S
C2750 C2752 1.391 . S
C2751 C2750 1.386 . S
C2751 C2755 1.393 . S
C2752 H2741 0.950 . S
C2752 C2750 1.391 . S
C2752 C2753 1.400 . S
C2753 C2747 1.491 . S
C2753 C2752 1.400 . S
C2753 C2754 1.398 . S
C2754 H2742 0.950 . S
C2754 C2753 1.398 . S
C2754 C2755 1.391 . S
C2755 H2743 0.950 . S
C2755 C2751 1.393 . S
C2755 C2754 1.391 . S
H2756 C2764 0.950 . S
H2757 C2769 0.950 . S
H2758 C2766 0.950 . S
H2759 C2768 0.950 . S
H2760 C2770 0.950 . S
H2761 C2772 0.950 . S
H2762 C2774 0.950 . S
H2763 C2775 0.950 . S
C2764 H2756 0.950 . S
C2764 C2765 1.386 . S
C2764 C2766 1.391 . S
C2765 C2764 1.386 . S
C2765 C2769 1.393 . S
C2766 H2758 0.950 . S
C2766 C2764 1.391 . S
C2766 C2767 1.400 . S
C2767 C2766 1.400 . S
C2767 C2768 1.398 . S
C2767 C2773 1.491 . S
C2768 H2759 0.950 . S
C2768 C2767 1.398 . S
C2768 C2769 1.391 . S
C2769 H2757 0.950 . S
C2769 C2765 1.393 . S
C2769 C2768 1.391 . S
C2770 H2760 0.950 . S
C2770 C2771 1.386 . S
C2770 C2772 1.391 . S
C2771 C2770 1.386 . S
C2771 C2775 1.393 . S
C2772 H2761 0.950 . S
C2772 C2770 1.391 . S
C2772 C2773 1.400 . S
C2773 C2767 1.491 . S
C2773 C2772 1.400 . S
C2773 C2774 1.398 . S
C2774 H2762 0.950 . S
C2774 C2773 1.398 . S
C2774 C2775 1.391 . S
C2775 H2763 0.950 . S
C2775 C2771 1.393 . S
C2775 C2774 1.391 . S
H2776 C2784 0.950 . S
H2777 C2789 0.950 . S
H2778 C2786 0.950 . S
H2779 C2788 0.950 . S
H2780 C2790 0.950 . S
H2781 C2792 0.950 . S
H2782 C2794 0.950 . S
H2783 C2795 0.950 . S
C2784 H2776 0.950 . S
C2784 C2785 1.386 . S
C2784 C2786 1.391 . S
C2785 C2784 1.386 . S
C2785 C2789 1.393 . S
C2786 H2778 0.950 . S
C2786 C2784 1.391 . S
C2786 C2787 1.400 . S
C2787 C2786 1.400 . S
C2787 C2788 1.398 . S
C2787 C2793 1.491 . S
C2788 H2779 0.950 . S
C2788 C2787 1.398 . S
C2788 C2789 1.391 . S
C2789 H2777 0.950 . S
C2789 C2785 1.393 . S
C2789 C2788 1.391 . S
C2790 H2780 0.950 . S
C2790 C2791 1.386 . S
C2790 C2792 1.391 . S
C2791 C2790 1.386 . S
C2791 C2795 1.393 . S
C2792 H2781 0.950 . S
C2792 C2790 1.391 . S
C2792 C2793 1.400 . S
C2793 C2787 1.491 . S
C2793 C2792 1.400 . S
C2793 C2794 1.398 . S
C2794 H2782 0.950 . S
C2794 C2793 1.398 . S
C2794 C2795 1.391 . S
C2795 H2783 0.950 . S
C2795 C2791 1.393 . S
C2795 C2794 1.391 . S
H2796 C2804 0.950 . S
H2797 C2809 0.950 . S
H2798 C2806 0.950 . S
H2799 C2808 0.950 . S
H2800 C2810 0.950 . S
H2801 C2812 0.950 . S
H2802 C2814 0.950 . S
H2803 C2815 0.950 . S
C2804 H2796 0.950 . S
C2804 C2805 1.386 . S
C2804 C2806 1.391 . S
C2805 C2804 1.386 . S
C2805 C2809 1.393 . S
C2806 H2798 0.950 . S
C2806 C2804 1.391 . S
C2806 C2807 1.400 . S
C2807 C2806 1.400 . S
C2807 C2808 1.398 . S
C2807 C2813 1.491 . S
C2808 H2799 0.950 . S
C2808 C2807 1.398 . S
C2808 C2809 1.391 . S
C2809 H2797 0.950 . S
C2809 C2805 1.393 . S
C2809 C2808 1.391 . S
C2810 H2800 0.950 . S
C2810 C2811 1.386 . S
C2810 C2812 1.391 . S
C2811 C2810 1.386 . S
C2811 C2815 1.393 . S
C2812 H2801 0.950 . S
C2812 C2810 1.391 . S
C2812 C2813 1.400 . S
C2813 C2807 1.491 . S
C2813 C2812 1.400 . S
C2813 C2814 1.398 . S
C2814 H2802 0.950 . S
C2814 C2813 1.398 . S
C2814 C2815 1.391 . S
C2815 H2803 0.950 . S
C2815 C2811 1.393 . S
C2815 C2814 1.391 . S
H2816 C2824 0.950 . S
H2817 C2829 0.950 . S
H2818 C2826 0.950 . S
H2819 C2828 0.950 . S
H2820 C2830 0.950 . S
H2821 C2832 0.950 . S
H2822 C2834 0.950 . S
H2823 C2835 0.950 . S
C2824 H2816 0.950 . S
C2824 C2825 1.386 . S
C2824 C2826 1.391 . S
C2825 C2824 1.386 . S
C2825 C2829 1.393 . S
C2826 H2818 0.950 . S
C2826 C2824 1.391 . S
C2826 C2827 1.400 . S
C2827 C2826 1.400 . S
C2827 C2828 1.398 . S
C2827 C2833 1.491 . S
C2828 H2819 0.950 . S
C2828 C2827 1.398 . S
C2828 C2829 1.391 . S
C2829 H2817 0.950 . S
C2829 C2825 1.393 . S
C2829 C2828 1.391 . S
C2830 H2820 0.950 . S
C2830 C2831 1.386 . S
C2830 C2832 1.391 . S
C2831 C2830 1.386 . S
C2831 C2835 1.393 . S
C2832 H2821 0.950 . S
C2832 C2830 1.391 . S
C2832 C2833 1.400 . S
C2833 C2827 1.491 . S
C2833 C2832 1.400 . S
C2833 C2834 1.398 . S
C2834 H2822 0.950 . S
C2834 C2833 1.398 . S
C2834 C2835 1.391 . S
C2835 H2823 0.950 . S
C2835 C2831 1.393 . S
C2835 C2834 1.391 . S
H2836 C2844 0.950 . S
H2837 C2849 0.950 . S
H2838 C2846 0.950 . S
H2839 C2848 0.950 . S
H2840 C2850 0.950 . S
H2841 C2852 0.950 . S
H2842 C2854 0.950 . S
H2843 C2855 0.950 . S
C2844 H2836 0.950 . S
C2844 C2845 1.386 . S
C2844 C2846 1.391 . S
C2845 C2844 1.386 . S
C2845 C2849 1.393 . S
C2846 H2838 0.950 . S
C2846 C2844 1.391 . S
C2846 C2847 1.400 . S
C2847 C2846 1.400 . S
C2847 C2848 1.398 . S
C2847 C2853 1.491 . S
C2848 H2839 0.950 . S
C2848 C2847 1.398 . S
C2848 C2849 1.391 . S
C2849 H2837 0.950 . S
C2849 C2845 1.393 . S
C2849 C2848 1.391 . S
C2850 H2840 0.950 . S
C2850 C2851 1.386 . S
C2850 C2852 1.391 . S
C2851 C2850 1.386 . S
C2851 C2855 1.393 . S
C2852 H2841 0.950 . S
C2852 C2850 1.391 . S
C2852 C2853 1.400 . S
C2853 C2847 1.491 . S
C2853 C2852 1.400 . S
C2853 C2854 1.398 . S
C2854 H2842 0.950 . S
C2854 C2853 1.398 . S
C2854 C2855 1.391 . S
C2855 H2843 0.950 . S
C2855 C2851 1.393 . S
C2855 C2854 1.391 . S
H2856 C2864 0.950 . S
H2857 C2869 0.950 . S
H2858 C2866 0.950 . S
H2859 C2868 0.950 . S
H2860 C2870 0.950 . S
H2861 C2872 0.950 . S
H2862 C2874 0.950 . S
H2863 C2875 0.950 . S
C2864 H2856 0.950 . S
C2864 C2865 1.386 . S
C2864 C2866 1.391 . S
C2865 C2864 1.386 . S
C2865 C2869 1.393 . S
C2866 H2858 0.950 . S
C2866 C2864 1.391 . S
C2866 C2867 1.400 . S
C2867 C2866 1.400 . S
C2867 C2868 1.398 . S
C2867 C2873 1.491 . S
C2868 H2859 0.950 . S
C2868 C2867 1.398 . S
C2868 C2869 1.391 . S
C2869 H2857 0.950 . S
C2869 C2865 1.393 . S
C2869 C2868 1.391 . S
C2870 H2860 0.950 . S
C2870 C2871 1.386 . S
C2870 C2872 1.391 . S
C2871 C2870 1.386 . S
C2871 C2875 1.393 . S
C2872 H2861 0.950 . S
C2872 C2870 1.391 . S
C2872 C2873 1.400 . S
C2873 C2867 1.491 . S
C2873 C2872 1.400 . S
C2873 C2874 1.398 . S
C2874 H2862 0.950 . S
C2874 C2873 1.398 . S
C2874 C2875 1.391 . S
C2875 H2863 0.950 . S
C2875 C2871 1.393 . S
C2875 C2874 1.391 . S
H2876 C2884 0.950 . S
H2877 C2889 0.950 . S
H2878 C2886 0.950 . S
H2879 C2888 0.950 . S
H2880 C2890 0.950 . S
H2881 C2892 0.950 . S
H2882 C2894 0.950 . S
H2883 C2895 0.950 . S
C2884 H2876 0.950 . S
C2884 C2885 1.386 . S
C2884 C2886 1.391 . S
C2885 C2884 1.386 . S
C2885 C2889 1.393 . S
C2886 H2878 0.950 . S
C2886 C2884 1.391 . S
C2886 C2887 1.400 . S
C2887 C2886 1.400 . S
C2887 C2888 1.398 . S
C2887 C2893 1.491 . S
C2888 H2879 0.950 . S
C2888 C2887 1.398 . S
C2888 C2889 1.391 . S
C2889 H2877 0.950 . S
C2889 C2885 1.393 . S
C2889 C2888 1.391 . S
C2890 H2880 0.950 . S
C2890 C2891 1.386 . S
C2890 C2892 1.391 . S
C2891 C2890 1.386 . S
C2891 C2895 1.393 . S
C2892 H2881 0.950 . S
C2892 C2890 1.391 . S
C2892 C2893 1.400 . S
C2893 C2887 1.491 . S
C2893 C2892 1.400 . S
C2893 C2894 1.398 . S
C2894 H2882 0.950 . S
C2894 C2893 1.398 . S
C2894 C2895 1.391 . S
C2895 H2883 0.950 . S
C2895 C2891 1.393 . S
C2895 C2894 1.391 . S
H2896 C2904 0.950 . S
H2897 C2909 0.950 . S
H2898 C2906 0.950 . S
H2899 C2908 0.950 . S
H2900 C2910 0.950 . S
H2901 C2912 0.950 . S
H2902 C2914 0.950 . S
H2903 C2915 0.950 . S
C2904 H2896 0.950 . S
C2904 C2905 1.386 . S
C2904 C2906 1.391 . S
C2905 C2904 1.386 . S
C2905 C2909 1.393 . S
C2906 H2898 0.950 . S
C2906 C2904 1.391 . S
C2906 C2907 1.400 . S
C2907 C2906 1.400 . S
C2907 C2908 1.398 . S
C2907 C2913 1.491 . S
C2908 H2899 0.950 . S
C2908 C2907 1.398 . S
C2908 C2909 1.391 . S
C2909 H2897 0.950 . S
C2909 C2905 1.393 . S
C2909 C2908 1.391 . S
C2910 H2900 0.950 . S
C2910 C2911 1.386 . S
C2910 C2912 1.391 . S
C2911 C2910 1.386 . S
C2911 C2915 1.393 . S
C2912 H2901 0.950 . S
C2912 C2910 1.391 . S
C2912 C2913 1.400 . S
C2913 C2907 1.491 . S
C2913 C2912 1.400 . S
C2913 C2914 1.398 . S
C2914 H2902 0.950 . S
C2914 C2913 1.398 . S
C2914 C2915 1.391 . S
C2915 H2903 0.950 . S
C2915 C2911 1.393 . S
C2915 C2914 1.391 . S
H2916 C2924 0.950 . S
H2917 C2929 0.950 . S
H2918 C2926 0.950 . S
H2919 C2928 0.950 . S
H2920 C2930 0.950 . S
H2921 C2932 0.950 . S
H2922 C2934 0.950 . S
H2923 C2935 0.950 . S
C2924 H2916 0.950 . S
C2924 C2925 1.386 . S
C2924 C2926 1.391 . S
C2925 C2924 1.386 . S
C2925 C2929 1.393 . S
C2926 H2918 0.950 . S
C2926 C2924 1.391 . S
C2926 C2927 1.400 . S
C2927 C2926 1.400 . S
C2927 C2928 1.398 . S
C2927 C2933 1.491 . S
C2928 H2919 0.950 . S
C2928 C2927 1.398 . S
C2928 C2929 1.391 . S
C2929 H2917 0.950 . S
C2929 C2925 1.393 . S
C2929 C2928 1.391 . S
C2930 H2920 0.950 . S
C2930 C2931 1.386 . S
C2930 C2932 1.391 . S
C2931 C2930 1.386 . S
C2931 C2935 1.393 . S
C2932 H2921 0.950 . S
C2932 C2930 1.391 . S
C2932 C2933 1.400 . S
C2933 C2927 1.491 . S
C2933 C2932 1.400 . S
C2933 C2934 1.398 . S
C2934 H2922 0.950 . S
C2934 C2933 1.398 . S
C2934 C2935 1.391 . S
C2935 H2923 0.950 . S
C2935 C2931 1.393 . S
C2935 C2934 1.391 . S
H2936 C2944 0.950 . S
H2937 C2949 0.950 . S
H2938 C2946 0.950 . S
H2939 C2948 0.950 . S
H2940 C2950 0.950 . S
H2941 C2952 0.950 . S
H2942 C2954 0.950 . S
H2943 C2955 0.950 . S
C2944 H2936 0.950 . S
C2944 C2945 1.386 . S
C2944 C2946 1.391 . S
C2945 C2944 1.386 . S
C2945 C2949 1.393 . S
C2946 H2938 0.950 . S
C2946 C2944 1.391 . S
C2946 C2947 1.400 . S
C2947 C2946 1.400 . S
C2947 C2948 1.398 . S
C2947 C2953 1.491 . S
C2948 H2939 0.950 . S
C2948 C2947 1.398 . S
C2948 C2949 1.391 . S
C2949 H2937 0.950 . S
C2949 C2945 1.393 . S
C2949 C2948 1.391 . S
C2950 H2940 0.950 . S
C2950 C2951 1.386 . S
C2950 C2952 1.391 . S
C2951 C2950 1.386 . S
C2951 C2955 1.393 . S
C2952 H2941 0.950 . S
C2952 C2950 1.391 . S
C2952 C2953 1.400 . S
C2953 C2947 1.491 . S
C2953 C2952 1.400 . S
C2953 C2954 1.398 . S
C2954 H2942 0.950 . S
C2954 C2953 1.398 . S
C2954 C2955 1.391 . S
C2955 H2943 0.950 . S
C2955 C2951 1.393 . S
C2955 C2954 1.391 . S
H2956 C2964 0.950 . S
H2957 C2969 0.950 . S
H2958 C2966 0.950 . S
H2959 C2968 0.950 . S
H2960 C2970 0.950 . S
H2961 C2972 0.950 . S
H2962 C2974 0.950 . S
H2963 C2975 0.950 . S
C2964 H2956 0.950 . S
C2964 C2965 1.386 . S
C2964 C2966 1.391 . S
C2965 C2964 1.386 . S
C2965 C2969 1.393 . S
C2966 H2958 0.950 . S
C2966 C2964 1.391 . S
C2966 C2967 1.400 . S
C2967 C2966 1.400 . S
C2967 C2968 1.398 . S
C2967 C2973 1.491 . S
C2968 H2959 0.950 . S
C2968 C2967 1.398 . S
C2968 C2969 1.391 . S
C2969 H2957 0.950 . S
C2969 C2965 1.393 . S
C2969 C2968 1.391 . S
C2970 H2960 0.950 . S
C2970 C2971 1.386 . S
C2970 C2972 1.391 . S
C2971 C2970 1.386 . S
C2971 C2975 1.393 . S
C2972 H2961 0.950 . S
C2972 C2970 1.391 . S
C2972 C2973 1.400 . S
C2973 C2967 1.491 . S
C2973 C2972 1.400 . S
C2973 C2974 1.398 . S
C2974 H2962 0.950 . S
C2974 C2973 1.398 . S
C2974 C2975 1.391 . S
C2975 H2963 0.950 . S
C2975 C2971 1.393 . S
C2975 C2974 1.391 . S
H2976 C2984 0.950 . S
H2977 C2989 0.950 . S
H2978 C2986 0.950 . S
H2979 C2988 0.950 . S
H2980 C2990 0.950 . S
H2981 C2992 0.950 . S
H2982 C2994 0.950 . S
H2983 C2995 0.950 . S
C2984 H2976 0.950 . S
C2984 C2985 1.386 . S
C2984 C2986 1.391 . S
C2985 C2984 1.386 . S
C2985 C2989 1.393 . S
C2986 H2978 0.950 . S
C2986 C2984 1.391 . S
C2986 C2987 1.400 . S
C2987 C2986 1.400 . S
C2987 C2988 1.398 . S
C2987 C2993 1.491 . S
C2988 H2979 0.950 . S
C2988 C2987 1.398 . S
C2988 C2989 1.391 . S
C2989 H2977 0.950 . S
C2989 C2985 1.393 . S
C2989 C2988 1.391 . S
C2990 H2980 0.950 . S
C2990 C2991 1.386 . S
C2990 C2992 1.391 . S
C2991 C2990 1.386 . S
C2991 C2995 1.393 . S
C2992 H2981 0.950 . S
C2992 C2990 1.391 . S
C2992 C2993 1.400 . S
C2993 C2987 1.491 . S
C2993 C2992 1.400 . S
C2993 C2994 1.398 . S
C2994 H2982 0.950 . S
C2994 C2993 1.398 . S
C2994 C2995 1.391 . S
C2995 H2983 0.950 . S
C2995 C2991 1.393 . S
C2995 C2994 1.391 . S
H2996 C3004 0.950 . S
H2997 C3009 0.950 . S
H2998 C3006 0.950 . S
H2999 C3008 0.950 . S
H3000 C3010 0.950 . S
H3001 C3012 0.950 . S
H3002 C3014 0.950 . S
H3003 C3015 0.950 . S
C3004 H2996 0.950 . S
C3004 C3005 1.386 . S
C3004 C3006 1.391 . S
C3005 C3004 1.386 . S
C3005 C3009 1.393 . S
C3006 H2998 0.950 . S
C3006 C3004 1.391 . S
C3006 C3007 1.400 . S
C3007 C3006 1.400 . S
C3007 C3008 1.398 . S
C3007 C3013 1.491 . S
C3008 H2999 0.950 . S
C3008 C3007 1.398 . S
C3008 C3009 1.391 . S
C3009 H2997 0.950 . S
C3009 C3005 1.393 . S
C3009 C3008 1.391 . S
C3010 H3000 0.950 . S
C3010 C3011 1.386 . S
C3010 C3012 1.391 . S
C3011 C3010 1.386 . S
C3011 C3015 1.393 . S
C3012 H3001 0.950 . S
C3012 C3010 1.391 . S
C3012 C3013 1.400 . S
C3013 C3007 1.491 . S
C3013 C3012 1.400 . S
C3013 C3014 1.398 . S
C3014 H3002 0.950 . S
C3014 C3013 1.398 . S
C3014 C3015 1.391 . S
C3015 H3003 0.950 . S
C3015 C3011 1.393 . S
C3015 C3014 1.391 . S
H3016 C3024 0.950 . S
H3017 C3029 0.950 . S
H3018 C3026 0.950 . S
H3019 C3028 0.950 . S
H3020 C3030 0.950 . S
H3021 C3032 0.950 . S
H3022 C3034 0.950 . S
H3023 C3035 0.950 . S
C3024 H3016 0.950 . S
C3024 C3025 1.386 . S
C3024 C3026 1.391 . S
C3025 C3024 1.386 . S
C3025 C3029 1.393 . S
C3026 H3018 0.950 . S
C3026 C3024 1.391 . S
C3026 C3027 1.400 . S
C3027 C3026 1.400 . S
C3027 C3028 1.398 . S
C3027 C3033 1.491 . S
C3028 H3019 0.950 . S
C3028 C3027 1.398 . S
C3028 C3029 1.391 . S
C3029 H3017 0.950 . S
C3029 C3025 1.393 . S
C3029 C3028 1.391 . S
C3030 H3020 0.950 . S
C3030 C3031 1.386 . S
C3030 C3032 1.391 . S
C3031 C3030 1.386 . S
C3031 C3035 1.393 . S
C3032 H3021 0.950 . S
C3032 C3030 1.391 . S
C3032 C3033 1.400 . S
C3033 C3027 1.491 . S
C3033 C3032 1.400 . S
C3033 C3034 1.398 . S
C3034 H3022 0.950 . S
C3034 C3033 1.398 . S
C3034 C3035 1.391 . S
C3035 H3023 0.950 . S
C3035 C3031 1.393 . S
C3035 C3034 1.391 . S
H3036 C3044 0.950 . S
H3037 C3049 0.950 . S
H3038 C3046 0.950 . S
H3039 C3048 0.950 . S
H3040 C3050 0.950 . S
H3041 C3052 0.950 . S
H3042 C3054 0.950 . S
H3043 C3055 0.950 . S
C3044 H3036 0.950 . S
C3044 C3045 1.386 . S
C3044 C3046 1.391 . S
C3045 C3044 1.386 . S
C3045 C3049 1.393 . S
C3046 H3038 0.950 . S
C3046 C3044 1.391 . S
C3046 C3047 1.400 . S
C3047 C3046 1.400 . S
C3047 C3048 1.398 . S
C3047 C3053 1.491 . S
C3048 H3039 0.950 . S
C3048 C3047 1.398 . S
C3048 C3049 1.391 . S
C3049 H3037 0.950 . S
C3049 C3045 1.393 . S
C3049 C3048 1.391 . S
C3050 H3040 0.950 . S
C3050 C3051 1.386 . S
C3050 C3052 1.391 . S
C3051 C3050 1.386 . S
C3051 C3055 1.393 . S
C3052 H3041 0.950 . S
C3052 C3050 1.391 . S
C3052 C3053 1.400 . S
C3053 C3047 1.491 . S
C3053 C3052 1.400 . S
C3053 C3054 1.398 . S
C3054 H3042 0.950 . S
C3054 C3053 1.398 . S
C3054 C3055 1.391 . S
C3055 H3043 0.950 . S
C3055 C3051 1.393 . S
C3055 C3054 1.391 . S
H3056 C3064 0.950 . S
H3057 C3069 0.950 . S
H3058 C3066 0.950 . S
H3059 C3068 0.950 . S
H3060 C3070 0.950 . S
H3061 C3072 0.950 . S
H3062 C3074 0.950 . S
H3063 C3075 0.950 . S
C3064 H3056 0.950 . S
C3064 C3065 1.386 . S
C3064 C3066 1.391 . S
C3065 C3064 1.386 . S
C3065 C3069 1.393 . S
C3066 H3058 0.950 . S
C3066 C3064 1.391 . S
C3066 C3067 1.400 . S
C3067 C3066 1.400 . S
C3067 C3068 1.398 . S
C3067 C3073 1.491 . S
C3068 H3059 0.950 . S
C3068 C3067 1.398 . S
C3068 C3069 1.391 . S
C3069 H3057 0.950 . S
C3069 C3065 1.393 . S
C3069 C3068 1.391 . S
C3070 H3060 0.950 . S
C3070 C3071 1.386 . S
C3070 C3072 1.391 . S
C3071 C3070 1.386 . S
C3071 C3075 1.393 . S
C3072 H3061 0.950 . S
C3072 C3070 1.391 . S
C3072 C3073 1.400 . S
C3073 C3067 1.491 . S
C3073 C3072 1.400 . S
C3073 C3074 1.398 . S
C3074 H3062 0.950 . S
C3074 C3073 1.398 . S
C3074 C3075 1.391 . S
C3075 H3063 0.950 . S
C3075 C3071 1.393 . S
C3075 C3074 1.391 . S
H3076 C3084 0.950 . S
H3077 C3089 0.950 . S
H3078 C3086 0.950 . S
H3079 C3088 0.950 . S
H3080 C3090 0.950 . S
H3081 C3092 0.950 . S
H3082 C3094 0.950 . S
H3083 C3095 0.950 . S
C3084 H3076 0.950 . S
C3084 C3085 1.386 . S
C3084 C3086 1.391 . S
C3085 C3084 1.386 . S
C3085 C3089 1.393 . S
C3086 H3078 0.950 . S
C3086 C3084 1.391 . S
C3086 C3087 1.400 . S
C3087 C3086 1.400 . S
C3087 C3088 1.398 . S
C3087 C3093 1.491 . S
C3088 H3079 0.950 . S
C3088 C3087 1.398 . S
C3088 C3089 1.391 . S
C3089 H3077 0.950 . S
C3089 C3085 1.393 . S
C3089 C3088 1.391 . S
C3090 H3080 0.950 . S
C3090 C3091 1.386 . S
C3090 C3092 1.391 . S
C3091 C3090 1.386 . S
C3091 C3095 1.393 . S
C3092 H3081 0.950 . S
C3092 C3090 1.391 . S
C3092 C3093 1.400 . S
C3093 C3087 1.491 . S
C3093 C3092 1.400 . S
C3093 C3094 1.398 . S
C3094 H3082 0.950 . S
C3094 C3093 1.398 . S
C3094 C3095 1.391 . S
C3095 H3083 0.950 . S
C3095 C3091 1.393 . S
C3095 C3094 1.391 . S
H3096 C3104 0.950 . S
H3097 C3109 0.950 . S
H3098 C3106 0.950 . S
H3099 C3108 0.950 . S
H3100 C3110 0.950 . S
H3101 C3112 0.950 . S
H3102 C3114 0.950 . S
H3103 C3115 0.950 . S
C3104 H3096 0.950 . S
C3104 C3105 1.386 . S
C3104 C3106 1.391 . S
C3105 C3104 1.386 . S
C3105 C3109 1.393 . S
C3106 H3098 0.950 . S
C3106 C3104 1.391 . S
C3106 C3107 1.400 . S
C3107 C3106 1.400 . S
C3107 C3108 1.398 . S
C3107 C3113 1.491 . S
C3108 H3099 0.950 . S
C3108 C3107 1.398 . S
C3108 C3109 1.391 . S
C3109 H3097 0.950 . S
C3109 C3105 1.393 . S
C3109 C3108 1.391 . S
C3110 H3100 0.950 . S
C3110 C3111 1.386 . S
C3110 C3112 1.391 . S
C3111 C3110 1.386 . S
C3111 C3115 1.393 . S
C3112 H3101 0.950 . S
C3112 C3110 1.391 . S
C3112 C3113 1.400 . S
C3113 C3107 1.491 . S
C3113 C3112 1.400 . S
C3113 C3114 1.398 . S
C3114 H3102 0.950 . S
C3114 C3113 1.398 . S
C3114 C3115 1.391 . S
C3115 H3103 0.950 . S
C3115 C3111 1.393 . S
C3115 C3114 1.391 . S
H3116 C3124 0.950 . S
H3117 C3129 0.950 . S
H3118 C3126 0.950 . S
H3119 C3128 0.950 . S
H3120 C3130 0.950 . S
H3121 C3132 0.950 . S
H3122 C3134 0.950 . S
H3123 C3135 0.950 . S
C3124 H3116 0.950 . S
C3124 C3125 1.386 . S
C3124 C3126 1.391 . S
C3125 C3124 1.386 . S
C3125 C3129 1.393 . S
C3126 H3118 0.950 . S
C3126 C3124 1.391 . S
C3126 C3127 1.400 . S
C3127 C3126 1.400 . S
C3127 C3128 1.398 . S
C3127 C3133 1.491 . S
C3128 H3119 0.950 . S
C3128 C3127 1.398 . S
C3128 C3129 1.391 . S
C3129 H3117 0.950 . S
C3129 C3125 1.393 . S
C3129 C3128 1.391 . S
C3130 H3120 0.950 . S
C3130 C3131 1.386 . S
C3130 C3132 1.391 . S
C3131 C3130 1.386 . S
C3131 C3135 1.393 . S
C3132 H3121 0.950 . S
C3132 C3130 1.391 . S
C3132 C3133 1.400 . S
C3133 C3127 1.491 . S
C3133 C3132 1.400 . S
C3133 C3134 1.398 . S
C3134 H3122 0.950 . S
C3134 C3133 1.398 . S
C3134 C3135 1.391 . S
C3135 H3123 0.950 . S
C3135 C3131 1.393 . S
C3135 C3134 1.391 . S
H3136 C3144 0.950 . S
H3137 C3149 0.950 . S
H3138 C3146 0.950 . S
H3139 C3148 0.950 . S
H3140 C3150 0.950 . S
H3141 C3152 0.950 . S
H3142 C3154 0.950 . S
H3143 C3155 0.950 . S
C3144 H3136 0.950 . S
C3144 C3145 1.386 . S
C3144 C3146 1.391 . S
C3145 C3144 1.386 . S
C3145 C3149 1.393 . S
C3146 H3138 0.950 . S
C3146 C3144 1.391 . S
C3146 C3147 1.400 . S
C3147 C3146 1.400 . S
C3147 C3148 1.398 . S
C3147 C3153 1.491 . S
C3148 H3139 0.950 . S
C3148 C3147 1.398 . S
C3148 C3149 1.391 . S
C3149 H3137 0.950 . S
C3149 C3145 1.393 . S
C3149 C3148 1.391 . S
C3150 H3140 0.950 . S
C3150 C3151 1.386 . S
C3150 C3152 1.391 . S
C3151 C3150 1.386 . S
C3151 C3155 1.393 . S
C3152 H3141 0.950 . S
C3152 C3150 1.391 . S
C3152 C3153 1.400 . S
C3153 C3147 1.491 . S
C3153 C3152 1.400 . S
C3153 C3154 1.398 . S
C3154 H3142 0.950 . S
C3154 C3153 1.398 . S
C3154 C3155 1.391 . S
C3155 H3143 0.950 . S
C3155 C3151 1.393 . S
C3155 C3154 1.391 . S
H3156 C3164 0.950 . S
H3157 C3169 0.950 . S
H3158 C3166 0.950 . S
H3159 C3168 0.950 . S
H3160 C3170 0.950 . S
H3161 C3172 0.950 . S
H3162 C3174 0.950 . S
H3163 C3175 0.950 . S
C3164 H3156 0.950 . S
C3164 C3165 1.386 . S
C3164 C3166 1.391 . S
C3165 C3164 1.386 . S
C3165 C3169 1.393 . S
C3166 H3158 0.950 . S
C3166 C3164 1.391 . S
C3166 C3167 1.400 . S
C3167 C3166 1.400 . S
C3167 C3168 1.398 . S
C3167 C3173 1.491 . S
C3168 H3159 0.950 . S
C3168 C3167 1.398 . S
C3168 C3169 1.391 . S
C3169 H3157 0.950 . S
C3169 C3165 1.393 . S
C3169 C3168 1.391 . S
C3170 H3160 0.950 . S
C3170 C3171 1.386 . S
C3170 C3172 1.391 . S
C3171 C3170 1.386 . S
C3171 C3175 1.393 . S
C3172 H3161 0.950 . S
C3172 C3170 1.391 . S
C3172 C3173 1.400 . S
C3173 C3167 1.491 . S
C3173 C3172 1.400 . S
C3173 C3174 1.398 . S
C3174 H3162 0.950 . S
C3174 C3173 1.398 . S
C3174 C3175 1.391 . S
C3175 H3163 0.950 . S
C3175 C3171 1.393 . S
C3175 C3174 1.391 . S
H3176 C3184 0.950 . S
H3177 C3189 0.950 . S
H3178 C3186 0.950 . S
H3179 C3188 0.950 . S
H3180 C3190 0.950 . S
H3181 C3192 0.950 . S
H3182 C3194 0.950 . S
H3183 C3195 0.950 . S
C3184 H3176 0.950 . S
C3184 C3185 1.386 . S
C3184 C3186 1.391 . S
C3185 C3184 1.386 . S
C3185 C3189 1.393 . S
C3186 H3178 0.950 . S
C3186 C3184 1.391 . S
C3186 C3187 1.400 . S
C3187 C3186 1.400 . S
C3187 C3188 1.398 . S
C3187 C3193 1.491 . S
C3188 H3179 0.950 . S
C3188 C3187 1.398 . S
C3188 C3189 1.391 . S
C3189 H3177 0.950 . S
C3189 C3185 1.393 . S
C3189 C3188 1.391 . S
C3190 H3180 0.950 . S
C3190 C3191 1.386 . S
C3190 C3192 1.391 . S
C3191 C3190 1.386 . S
C3191 C3195 1.393 . S
C3192 H3181 0.950 . S
C3192 C3190 1.391 . S
C3192 C3193 1.400 . S
C3193 C3187 1.491 . S
C3193 C3192 1.400 . S
C3193 C3194 1.398 . S
C3194 H3182 0.950 . S
C3194 C3193 1.398 . S
C3194 C3195 1.391 . S
C3195 H3183 0.950 . S
C3195 C3191 1.393 . S
C3195 C3194 1.391 . S
H3196 C3204 0.950 . S
H3197 C3209 0.950 . S
H3198 C3206 0.950 . S
H3199 C3208 0.950 . S
H3200 C3210 0.950 . S
H3201 C3212 0.950 . S
H3202 C3214 0.950 . S
H3203 C3215 0.950 . S
C3204 H3196 0.950 . S
C3204 C3205 1.386 . S
C3204 C3206 1.391 . S
C3205 C3204 1.386 . S
C3205 C3209 1.393 . S
C3206 H3198 0.950 . S
C3206 C3204 1.391 . S
C3206 C3207 1.400 . S
C3207 C3206 1.400 . S
C3207 C3208 1.398 . S
C3207 C3213 1.491 . S
C3208 H3199 0.950 . S
C3208 C3207 1.398 . S
C3208 C3209 1.391 . S
C3209 H3197 0.950 . S
C3209 C3205 1.393 . S
C3209 C3208 1.391 . S
C3210 H3200 0.950 . S
C3210 C3211 1.386 . S
C3210 C3212 1.391 . S
C3211 C3210 1.386 . S
C3211 C3215 1.393 . S
C3212 H3201 0.950 . S
C3212 C3210 1.391 . S
C3212 C3213 1.400 . S
C3213 C3207 1.491 . S
C3213 C3212 1.400 . S
C3213 C3214 1.398 . S
C3214 H3202 0.950 . S
C3214 C3213 1.398 . S
C3214 C3215 1.391 . S
C3215 H3203 0.950 . S
C3215 C3211 1.393 . S
C3215 C3214 1.391 . S
H3216 C3224 0.950 . S
H3217 C3229 0.950 . S
H3218 C3226 0.950 . S
H3219 C3228 0.950 . S
H3220 C3230 0.950 . S
H3221 C3232 0.950 . S
H3222 C3234 0.950 . S
H3223 C3235 0.950 . S
C3224 H3216 0.950 . S
C3224 C3225 1.386 . S
C3224 C3226 1.391 . S
C3225 C3224 1.386 . S
C3225 C3229 1.393 . S
C3226 H3218 0.950 . S
C3226 C3224 1.391 . S
C3226 C3227 1.400 . S
C3227 C3226 1.400 . S
C3227 C3228 1.398 . S
C3227 C3233 1.491 . S
C3228 H3219 0.950 . S
C3228 C3227 1.398 . S
C3228 C3229 1.391 . S
C3229 H3217 0.950 . S
C3229 C3225 1.393 . S
C3229 C3228 1.391 . S
C3230 H3220 0.950 . S
C3230 C3231 1.386 . S
C3230 C3232 1.391 . S
C3231 C3230 1.386 . S
C3231 C3235 1.393 . S
C3232 H3221 0.950 . S
C3232 C3230 1.391 . S
C3232 C3233 1.400 . S
C3233 C3227 1.491 . S
C3233 C3232 1.400 . S
C3233 C3234 1.398 . S
C3234 H3222 0.950 . S
C3234 C3233 1.398 . S
C3234 C3235 1.391 . S
C3235 H3223 0.950 . S
C3235 C3231 1.393 . S
C3235 C3234 1.391 . S
H3236 C3244 0.950 . S
H3237 C3249 0.950 . S
H3238 C3246 0.950 . S
H3239 C3248 0.950 . S
H3240 C3250 0.950 . S
H3241 C3252 0.950 . S
H3242 C3254 0.950 . S
H3243 C3255 0.950 . S
C3244 H3236 0.950 . S
C3244 C3245 1.386 . S
C3244 C3246 1.391 . S
C3245 C3244 1.386 . S
C3245 C3249 1.393 . S
C3246 H3238 0.950 . S
C3246 C3244 1.391 . S
C3246 C3247 1.400 . S
C3247 C3246 1.400 . S
C3247 C3248 1.398 . S
C3247 C3253 1.491 . S
C3248 H3239 0.950 . S
C3248 C3247 1.398 . S
C3248 C3249 1.391 . S
C3249 H3237 0.950 . S
C3249 C3245 1.393 . S
C3249 C3248 1.391 . S
C3250 H3240 0.950 . S
C3250 C3251 1.386 . S
C3250 C3252 1.391 . S
C3251 C3250 1.386 . S
C3251 C3255 1.393 . S
C3252 H3241 0.950 . S
C3252 C3250 1.391 . S
C3252 C3253 1.400 . S
C3253 C3247 1.491 . S
C3253 C3252 1.400 . S
C3253 C3254 1.398 . S
C3254 H3242 0.950 . S
C3254 C3253 1.398 . S
C3254 C3255 1.391 . S
C3255 H3243 0.950 . S
C3255 C3251 1.393 . S
C3255 C3254 1.391 . S
H3256 C3264 0.950 . S
H3257 C3269 0.950 . S
H3258 C3266 0.950 . S
H3259 C3268 0.950 . S
H3260 C3270 0.950 . S
H3261 C3272 0.950 . S
H3262 C3274 0.950 . S
H3263 C3275 0.950 . S
C3264 H3256 0.950 . S
C3264 C3265 1.386 . S
C3264 C3266 1.391 . S
C3265 C3264 1.386 . S
C3265 C3269 1.393 . S
C3266 H3258 0.950 . S
C3266 C3264 1.391 . S
C3266 C3267 1.400 . S
C3267 C3266 1.400 . S
C3267 C3268 1.398 . S
C3267 C3273 1.491 . S
C3268 H3259 0.950 . S
C3268 C3267 1.398 . S
C3268 C3269 1.391 . S
C3269 H3257 0.950 . S
C3269 C3265 1.393 . S
C3269 C3268 1.391 . S
C3270 H3260 0.950 . S
C3270 C3271 1.386 . S
C3270 C3272 1.391 . S
C3271 C3270 1.386 . S
C3271 C3275 1.393 . S
C3272 H3261 0.950 . S
C3272 C3270 1.391 . S
C3272 C3273 1.400 . S
C3273 C3267 1.491 . S
C3273 C3272 1.400 . S
C3273 C3274 1.398 . S
C3274 H3262 0.950 . S
C3274 C3273 1.398 . S
C3274 C3275 1.391 . S
C3275 H3263 0.950 . S
C3275 C3271 1.393 . S
C3275 C3274 1.391 . S
H3276 C3284 0.950 . S
H3277 C3289 0.950 . S
H3278 C3286 0.950 . S
H3279 C3288 0.950 . S
H3280 C3290 0.950 . S
H3281 C3292 0.950 . S
H3282 C3294 0.950 . S
H3283 C3295 0.950 . S
C3284 H3276 0.950 . S
C3284 C3285 1.386 . S
C3284 C3286 1.391 . S
C3285 C3284 1.386 . S
C3285 C3289 1.393 . S
C3286 H3278 0.950 . S
C3286 C3284 1.391 . S
C3286 C3287 1.400 . S
C3287 C3286 1.400 . S
C3287 C3288 1.398 . S
C3287 C3293 1.491 . S
C3288 H3279 0.950 . S
C3288 C3287 1.398 . S
C3288 C3289 1.391 . S
C3289 H3277 0.950 . S
C3289 C3285 1.393 . S
C3289 C3288 1.391 . S
C3290 H3280 0.950 . S
C3290 C3291 1.386 . S
C3290 C3292 1.391 . S
C3291 C3290 1.386 . S
C3291 C3295 1.393 . S
C3292 H3281 0.950 . S
C3292 C3290 1.391 . S
C3292 C3293 1.400 . S
C3293 C3287 1.491 . S
C3293 C3292 1.400 . S
C3293 C3294 1.398 . S
C3294 H3282 0.950 . S
C3294 C3293 1.398 . S
C3294 C3295 1.391 . S
C3295 H3283 0.950 . S
C3295 C3291 1.393 . S
C3295 C3294 1.391 . S
H3296 C3304 0.950 . S
H3297 C3309 0.950 . S
H3298 C3306 0.950 . S
H3299 C3308 0.950 . S
H3300 C3310 0.950 . S
H3301 C3312 0.950 . S
H3302 C3314 0.950 . S
H3303 C3315 0.950 . S
C3304 H3296 0.950 . S
C3304 C3305 1.386 . S
C3304 C3306 1.391 . S
C3305 C3304 1.386 . S
C3305 C3309 1.393 . S
C3306 H3298 0.950 . S
C3306 C3304 1.391 . S
C3306 C3307 1.400 . S
C3307 C3306 1.400 . S
C3307 C3308 1.398 . S
C3307 C3313 1.491 . S
C3308 H3299 0.950 . S
C3308 C3307 1.398 . S
C3308 C3309 1.391 . S
C3309 H3297 0.950 . S
C3309 C3305 1.393 . S
C3309 C3308 1.391 . S
C3310 H3300 0.950 . S
C3310 C3311 1.386 . S
C3310 C3312 1.391 . S
C3311 C3310 1.386 . S
C3311 C3315 1.393 . S
C3312 H3301 0.950 . S
C3312 C3310 1.391 . S
C3312 C3313 1.400 . S
C3313 C3307 1.491 . S
C3313 C3312 1.400 . S
C3313 C3314 1.398 . S
C3314 H3302 0.950 . S
C3314 C3313 1.398 . S
C3314 C3315 1.391 . S
C3315 H3303 0.950 . S
C3315 C3311 1.393 . S
C3315 C3314 1.391 . S
H3316 C3324 0.950 . S
H3317 C3329 0.950 . S
H3318 C3326 0.950 . S
H3319 C3328 0.950 . S
H3320 C3330 0.950 . S
H3321 C3332 0.950 . S
H3322 C3334 0.950 . S
H3323 C3335 0.950 . S
C3324 H3316 0.950 . S
C3324 C3325 1.386 . S
C3324 C3326 1.391 . S
C3325 C3324 1.386 . S
C3325 C3329 1.393 . S
C3326 H3318 0.950 . S
C3326 C3324 1.391 . S
C3326 C3327 1.400 . S
C3327 C3326 1.400 . S
C3327 C3328 1.398 . S
C3327 C3333 1.491 . S
C3328 H3319 0.950 . S
C3328 C3327 1.398 . S
C3328 C3329 1.391 . S
C3329 H3317 0.950 . S
C3329 C3325 1.393 . S
C3329 C3328 1.391 . S
C3330 H3320 0.950 . S
C3330 C3331 1.386 . S
C3330 C3332 1.391 . S
C3331 C3330 1.386 . S
C3331 C3335 1.393 . S
C3332 H3321 0.950 . S
C3332 C3330 1.391 . S
C3332 C3333 1.400 . S
C3333 C3327 1.491 . S
C3333 C3332 1.400 . S
C3333 C3334 1.398 . S
C3334 H3322 0.950 . S
C3334 C3333 1.398 . S
C3334 C3335 1.391 . S
C3335 H3323 0.950 . S
C3335 C3331 1.393 . S
C3335 C3334 1.391 . S
H3336 C3344 0.950 . S
H3337 C3349 0.950 . S
H3338 C3346 0.950 . S
H3339 C3348 0.950 . S
H3340 C3350 0.950 . S
H3341 C3352 0.950 . S
H3342 C3354 0.950 . S
H3343 C3355 0.950 . S
C3344 H3336 0.950 . S
C3344 C3345 1.386 . S
C3344 C3346 1.391 . S
C3345 C3344 1.386 . S
C3345 C3349 1.393 . S
C3346 H3338 0.950 . S
C3346 C3344 1.391 . S
C3346 C3347 1.400 . S
C3347 C3346 1.400 . S
C3347 C3348 1.398 . S
C3347 C3353 1.491 . S
C3348 H3339 0.950 . S
C3348 C3347 1.398 . S
C3348 C3349 1.391 . S
C3349 H3337 0.950 . S
C3349 C3345 1.393 . S
C3349 C3348 1.391 . S
C3350 H3340 0.950 . S
C3350 C3351 1.386 . S
C3350 C3352 1.391 . S
C3351 C3350 1.386 . S
C3351 C3355 1.393 . S
C3352 H3341 0.950 . S
C3352 C3350 1.391 . S
C3352 C3353 1.400 . S
C3353 C3347 1.491 . S
C3353 C3352 1.400 . S
C3353 C3354 1.398 . S
C3354 H3342 0.950 . S
C3354 C3353 1.398 . S
C3354 C3355 1.391 . S
C3355 H3343 0.950 . S
C3355 C3351 1.393 . S
C3355 C3354 1.391 . S
H3356 C3364 0.950 . S
H3357 C3369 0.950 . S
H3358 C3366 0.950 . S
H3359 C3368 0.950 . S
H3360 C3370 0.950 . S
H3361 C3372 0.950 . S
H3362 C3374 0.950 . S
H3363 C3375 0.950 . S
C3364 H3356 0.950 . S
C3364 C3365 1.386 . S
C3364 C3366 1.391 . S
C3365 C3364 1.386 . S
C3365 C3369 1.393 . S
C3366 H3358 0.950 . S
C3366 C3364 1.391 . S
C3366 C3367 1.400 . S
C3367 C3366 1.400 . S
C3367 C3368 1.398 . S
C3367 C3373 1.491 . S
C3368 H3359 0.950 . S
C3368 C3367 1.398 . S
C3368 C3369 1.391 . S
C3369 H3357 0.950 . S
C3369 C3365 1.393 . S
C3369 C3368 1.391 . S
C3370 H3360 0.950 . S
C3370 C3371 1.386 . S
C3370 C3372 1.391 . S
C3371 C3370 1.386 . S
C3371 C3375 1.393 . S
C3372 H3361 0.950 . S
C3372 C3370 1.391 . S
C3372 C3373 1.400 . S
C3373 C3367 1.491 . S
C3373 C3372 1.400 . S
C3373 C3374 1.398 . S
C3374 H3362 0.950 . S
C3374 C3373 1.398 . S
C3374 C3375 1.391 . S
C3375 H3363 0.950 . S
C3375 C3371 1.393 . S
C3375 C3374 1.391 . S
H3376 C3384 0.950 . S
H3377 C3389 0.950 . S
H3378 C3386 0.950 . S
H3379 C3388 0.950 . S
H3380 C3390 0.950 . S
H3381 C3392 0.950 . S
H3382 C3394 0.950 . S
H3383 C3395 0.950 . S
C3384 H3376 0.950 . S
C3384 C3385 1.386 . S
C3384 C3386 1.391 . S
C3385 C3384 1.386 . S
C3385 C3389 1.393 . S
C3386 H3378 0.950 . S
C3386 C3384 1.391 . S
C3386 C3387 1.400 . S
C3387 C3386 1.400 . S
C3387 C3388 1.398 . S
C3387 C3393 1.491 . S
C3388 H3379 0.950 . S
C3388 C3387 1.398 . S
C3388 C3389 1.391 . S
C3389 H3377 0.950 . S
C3389 C3385 1.393 . S
C3389 C3388 1.391 . S
C3390 H3380 0.950 . S
C3390 C3391 1.386 . S
C3390 C3392 1.391 . S
C3391 C3390 1.386 . S
C3391 C3395 1.393 . S
C3392 H3381 0.950 . S
C3392 C3390 1.391 . S
C3392 C3393 1.400 . S
C3393 C3387 1.491 . S
C3393 C3392 1.400 . S
C3393 C3394 1.398 . S
C3394 H3382 0.950 . S
C3394 C3393 1.398 . S
C3394 C3395 1.391 . S
C3395 H3383 0.950 . S
C3395 C3391 1.393 . S
C3395 C3394 1.391 . S
H3396 C3404 0.950 . S
H3397 C3409 0.950 . S
H3398 C3406 0.950 . S
H3399 C3408 0.950 . S
H3400 C3410 0.950 . S
H3401 C3412 0.950 . S
H3402 C3414 0.950 . S
H3403 C3415 0.950 . S
C3404 H3396 0.950 . S
C3404 C3405 1.386 . S
C3404 C3406 1.391 . S
C3405 C3404 1.386 . S
C3405 C3409 1.393 . S
C3406 H3398 0.950 . S
C3406 C3404 1.391 . S
C3406 C3407 1.400 . S
C3407 C3406 1.400 . S
C3407 C3408 1.398 . S
C3407 C3413 1.491 . S
C3408 H3399 0.950 . S
C3408 C3407 1.398 . S
C3408 C3409 1.391 . S
C3409 H3397 0.950 . S
C3409 C3405 1.393 . S
C3409 C3408 1.391 . S
C3410 H3400 0.950 . S
C3410 C3411 1.386 . S
C3410 C3412 1.391 . S
C3411 C3410 1.386 . S
C3411 C3415 1.393 . S
C3412 H3401 0.950 . S
C3412 C3410 1.391 . S
C3412 C3413 1.400 . S
C3413 C3407 1.491 . S
C3413 C3412 1.400 . S
C3413 C3414 1.398 . S
C3414 H3402 0.950 . S
C3414 C3413 1.398 . S
C3414 C3415 1.391 . S
C3415 H3403 0.950 . S
C3415 C3411 1.393 . S
C3415 C3414 1.391 . S
H3416 C3424 0.950 . S
H3417 C3429 0.950 . S
H3418 C3426 0.950 . S
H3419 C3428 0.950 . S
H3420 C3430 0.950 . S
H3421 C3432 0.950 . S
H3422 C3434 0.950 . S
H3423 C3435 0.950 . S
C3424 H3416 0.950 . S
C3424 C3425 1.386 . S
C3424 C3426 1.391 . S
C3425 C3424 1.386 . S
C3425 C3429 1.393 . S
C3426 H3418 0.950 . S
C3426 C3424 1.391 . S
C3426 C3427 1.400 . S
C3427 C3426 1.400 . S
C3427 C3428 1.398 . S
C3427 C3433 1.491 . S
C3428 H3419 0.950 . S
C3428 C3427 1.398 . S
C3428 C3429 1.391 . S
C3429 H3417 0.950 . S
C3429 C3425 1.393 . S
C3429 C3428 1.391 . S
C3430 H3420 0.950 . S
C3430 C3431 1.386 . S
C3430 C3432 1.391 . S
C3431 C3430 1.386 . S
C3431 C3435 1.393 . S
C3432 H3421 0.950 . S
C3432 C3430 1.391 . S
C3432 C3433 1.400 . S
C3433 C3427 1.491 . S
C3433 C3432 1.400 . S
C3433 C3434 1.398 . S
C3434 H3422 0.950 . S
C3434 C3433 1.398 . S
C3434 C3435 1.391 . S
C3435 H3423 0.950 . S
C3435 C3431 1.393 . S
C3435 C3434 1.391 . S
H3436 C3444 0.950 . S
H3437 C3449 0.950 . S
H3438 C3446 0.950 . S
H3439 C3448 0.950 . S
H3440 C3450 0.950 . S
H3441 C3452 0.950 . S
H3442 C3454 0.950 . S
H3443 C3455 0.950 . S
C3444 H3436 0.950 . S
C3444 C3445 1.386 . S
C3444 C3446 1.391 . S
C3445 C3444 1.386 . S
C3445 C3449 1.393 . S
C3446 H3438 0.950 . S
C3446 C3444 1.391 . S
C3446 C3447 1.400 . S
C3447 C3446 1.400 . S
C3447 C3448 1.398 . S
C3447 C3453 1.491 . S
C3448 H3439 0.950 . S
C3448 C3447 1.398 . S
C3448 C3449 1.391 . S
C3449 H3437 0.950 . S
C3449 C3445 1.393 . S
C3449 C3448 1.391 . S
C3450 H3440 0.950 . S
C3450 C3451 1.386 . S
C3450 C3452 1.391 . S
C3451 C3450 1.386 . S
C3451 C3455 1.393 . S
C3452 H3441 0.950 . S
C3452 C3450 1.391 . S
C3452 C3453 1.400 . S
C3453 C3447 1.491 . S
C3453 C3452 1.400 . S
C3453 C3454 1.398 . S
C3454 H3442 0.950 . S
C3454 C3453 1.398 . S
C3454 C3455 1.391 . S
C3455 H3443 0.950 . S
C3455 C3451 1.393 . S
C3455 C3454 1.391 . S
H3456 C3464 0.950 . S
H3457 C3469 0.950 . S
H3458 C3466 0.950 . S
H3459 C3468 0.950 . S
H3460 C3470 0.950 . S
H3461 C3472 0.950 . S
H3462 C3474 0.950 . S
H3463 C3475 0.950 . S
C3464 H3456 0.950 . S
C3464 C3465 1.386 . S
C3464 C3466 1.391 . S
C3465 C3464 1.386 . S
C3465 C3469 1.393 . S
C3466 H3458 0.950 . S
C3466 C3464 1.391 . S
C3466 C3467 1.400 . S
C3467 C3466 1.400 . S
C3467 C3468 1.398 . S
C3467 C3473 1.491 . S
C3468 H3459 0.950 . S
C3468 C3467 1.398 . S
C3468 C3469 1.391 . S
C3469 H3457 0.950 . S
C3469 C3465 1.393 . S
C3469 C3468 1.391 . S
C3470 H3460 0.950 . S
C3470 C3471 1.386 . S
C3470 C3472 1.391 . S
C3471 C3470 1.386 . S
C3471 C3475 1.393 . S
C3472 H3461 0.950 . S
C3472 C3470 1.391 . S
C3472 C3473 1.400 . S
C3473 C3467 1.491 . S
C3473 C3472 1.400 . S
C3473 C3474 1.398 . S
C3474 H3462 0.950 . S
C3474 C3473 1.398 . S
C3474 C3475 1.391 . S
C3475 H3463 0.950 . S
C3475 C3471 1.393 . S
C3475 C3474 1.391 . S
H3476 C3484 0.950 . S
H3477 C3489 0.950 . S
H3478 C3486 0.950 . S
H3479 C3488 0.950 . S
H3480 C3490 0.950 . S
H3481 C3492 0.950 . S
H3482 C3494 0.950 . S
H3483 C3495 0.950 . S
C3484 H3476 0.950 . S
C3484 C3485 1.386 . S
C3484 C3486 1.391 . S
C3485 C3484 1.386 . S
C3485 C3489 1.393 . S
C3486 H3478 0.950 . S
C3486 C3484 1.391 . S
C3486 C3487 1.400 . S
C3487 C3486 1.400 . S
C3487 C3488 1.398 . S
C3487 C3493 1.491 . S
C3488 H3479 0.950 . S
C3488 C3487 1.398 . S
C3488 C3489 1.391 . S
C3489 H3477 0.950 . S
C3489 C3485 1.393 . S
C3489 C3488 1.391 . S
C3490 H3480 0.950 . S
C3490 C3491 1.386 . S
C3490 C3492 1.391 . S
C3491 C3490 1.386 . S
C3491 C3495 1.393 . S
C3492 H3481 0.950 . S
C3492 C3490 1.391 . S
C3492 C3493 1.400 . S
C3493 C3487 1.491 . S
C3493 C3492 1.400 . S
C3493 C3494 1.398 . S
C3494 H3482 0.950 . S
C3494 C3493 1.398 . S
C3494 C3495 1.391 . S
C3495 H3483 0.950 . S
C3495 C3491 1.393 . S
C3495 C3494 1.391 . S
H3496 C3504 0.950 . S
H3497 C3509 0.950 . S
H3498 C3506 0.950 . S
H3499 C3508 0.950 . S
H3500 C3510 0.950 . S
H3501 C3512 0.950 . S
H3502 C3514 0.950 . S
H3503 C3515 0.950 . S
C3504 H3496 0.950 . S
C3504 C3505 1.386 . S
C3504 C3506 1.391 . S
C3505 C3504 1.386 . S
C3505 C3509 1.393 . S
C3506 H3498 0.950 . S
C3506 C3504 1.391 . S
C3506 C3507 1.400 . S
C3507 C3506 1.400 . S
C3507 C3508 1.398 . S
C3507 C3513 1.491 . S
C3508 H3499 0.950 . S
C3508 C3507 1.398 . S
C3508 C3509 1.391 . S
C3509 H3497 0.950 . S
C3509 C3505 1.393 . S
C3509 C3508 1.391 . S
C3510 H3500 0.950 . S
C3510 C3511 1.386 . S
C3510 C3512 1.391 . S
C3511 C3510 1.386 . S
C3511 C3515 1.393 . S
C3512 H3501 0.950 . S
C3512 C3510 1.391 . S
C3512 C3513 1.400 . S
C3513 C3507 1.491 . S
C3513 C3512 1.400 . S
C3513 C3514 1.398 . S
C3514 H3502 0.950 . S
C3514 C3513 1.398 . S
C3514 C3515 1.391 . S
C3515 H3503 0.950 . S
C3515 C3511 1.393 . S
C3515 C3514 1.391 . S
H3516 C3524 0.950 . S
H3517 C3529 0.950 . S
H3518 C3526 0.950 . S
H3519 C3528 0.950 . S
H3520 C3530 0.950 . S
H3521 C3532 0.950 . S
H3522 C3534 0.950 . S
H3523 C3535 0.950 . S
C3524 H3516 0.950 . S
C3524 C3525 1.386 . S
C3524 C3526 1.391 . S
C3525 C3524 1.386 . S
C3525 C3529 1.393 . S
C3526 H3518 0.950 . S
C3526 C3524 1.391 . S
C3526 C3527 1.400 . S
C3527 C3526 1.400 . S
C3527 C3528 1.398 . S
C3527 C3533 1.491 . S
C3528 H3519 0.950 . S
C3528 C3527 1.398 . S
C3528 C3529 1.391 . S
C3529 H3517 0.950 . S
C3529 C3525 1.393 . S
C3529 C3528 1.391 . S
C3530 H3520 0.950 . S
C3530 C3531 1.386 . S
C3530 C3532 1.391 . S
C3531 C3530 1.386 . S
C3531 C3535 1.393 . S
C3532 H3521 0.950 . S
C3532 C3530 1.391 . S
C3532 C3533 1.400 . S
C3533 C3527 1.491 . S
C3533 C3532 1.400 . S
C3533 C3534 1.398 . S
C3534 H3522 0.950 . S
C3534 C3533 1.398 . S
C3534 C3535 1.391 . S
C3535 H3523 0.950 . S
C3535 C3531 1.393 . S
C3535 C3534 1.391 . S
H3536 C3544 0.950 . S
H3537 C3549 0.950 . S
H3538 C3546 0.950 . S
H3539 C3548 0.950 . S
H3540 C3550 0.950 . S
H3541 C3552 0.950 . S
H3542 C3554 0.950 . S
H3543 C3555 0.950 . S
C3544 H3536 0.950 . S
C3544 C3545 1.386 . S
C3544 C3546 1.391 . S
C3545 C3544 1.386 . S
C3545 C3549 1.393 . S
C3546 H3538 0.950 . S
C3546 C3544 1.391 . S
C3546 C3547 1.400 . S
C3547 C3546 1.400 . S
C3547 C3548 1.398 . S
C3547 C3553 1.491 . S
C3548 H3539 0.950 . S
C3548 C3547 1.398 . S
C3548 C3549 1.391 . S
C3549 H3537 0.950 . S
C3549 C3545 1.393 . S
C3549 C3548 1.391 . S
C3550 H3540 0.950 . S
C3550 C3551 1.386 . S
C3550 C3552 1.391 . S
C3551 C3550 1.386 . S
C3551 C3555 1.393 . S
C3552 H3541 0.950 . S
C3552 C3550 1.391 . S
C3552 C3553 1.400 . S
C3553 C3547 1.491 . S
C3553 C3552 1.400 . S
C3553 C3554 1.398 . S
C3554 H3542 0.950 . S
C3554 C3553 1.398 . S
C3554 C3555 1.391 . S
C3555 H3543 0.950 . S
C3555 C3551 1.393 . S
C3555 C3554 1.391 . S
H3556 C3564 0.950 . S
H3557 C3569 0.950 . S
H3558 C3566 0.950 . S
H3559 C3568 0.950 . S
H3560 C3570 0.950 . S
H3561 C3572 0.950 . S
H3562 C3574 0.950 . S
H3563 C3575 0.950 . S
C3564 H3556 0.950 . S
C3564 C3565 1.386 . S
C3564 C3566 1.391 . S
C3565 C3564 1.386 . S
C3565 C3569 1.393 . S
C3566 H3558 0.950 . S
C3566 C3564 1.391 . S
C3566 C3567 1.400 . S
C3567 C3566 1.400 . S
C3567 C3568 1.398 . S
C3567 C3573 1.491 . S
C3568 H3559 0.950 . S
C3568 C3567 1.398 . S
C3568 C3569 1.391 . S
C3569 H3557 0.950 . S
C3569 C3565 1.393 . S
C3569 C3568 1.391 . S
C3570 H3560 0.950 . S
C3570 C3571 1.386 . S
C3570 C3572 1.391 . S
C3571 C3570 1.386 . S
C3571 C3575 1.393 . S
C3572 H3561 0.950 . S
C3572 C3570 1.391 . S
C3572 C3573 1.400 . S
C3573 C3567 1.491 . S
C3573 C3572 1.400 . S
C3573 C3574 1.398 . S
C3574 H3562 0.950 . S
C3574 C3573 1.398 . S
C3574 C3575 1.391 . S
C3575 H3563 0.950 . S
C3575 C3571 1.393 . S
C3575 C3574 1.391 . S
H3576 C3584 0.950 . S
H3577 C3589 0.950 . S
H3578 C3586 0.950 . S
H3579 C3588 0.950 . S
H3580 C3590 0.950 . S
H3581 C3592 0.950 . S
H3582 C3594 0.950 . S
H3583 C3595 0.950 . S
C3584 H3576 0.950 . S
C3584 C3585 1.386 . S
C3584 C3586 1.391 . S
C3585 C3584 1.386 . S
C3585 C3589 1.393 . S
C3586 H3578 0.950 . S
C3586 C3584 1.391 . S
C3586 C3587 1.400 . S
C3587 C3586 1.400 . S
C3587 C3588 1.398 . S
C3587 C3593 1.491 . S
C3588 H3579 0.950 . S
C3588 C3587 1.398 . S
C3588 C3589 1.391 . S
C3589 H3577 0.950 . S
C3589 C3585 1.393 . S
C3589 C3588 1.391 . S
C3590 H3580 0.950 . S
C3590 C3591 1.386 . S
C3590 C3592 1.391 . S
C3591 C3590 1.386 . S
C3591 C3595 1.393 . S
C3592 H3581 0.950 . S
C3592 C3590 1.391 . S
C3592 C3593 1.400 . S
C3593 C3587 1.491 . S
C3593 C3592 1.400 . S
C3593 C3594 1.398 . S
C3594 H3582 0.950 . S
C3594 C3593 1.398 . S
C3594 C3595 1.391 . S
C3595 H3583 0.950 . S
C3595 C3591 1.393 . S
C3595 C3594 1.391 . S
H3596 C3604 0.950 . S
H3597 C3609 0.950 . S
H3598 C3606 0.950 . S
H3599 C3608 0.950 . S
H3600 C3610 0.950 . S
H3601 C3612 0.950 . S
H3602 C3614 0.950 . S
H3603 C3615 0.950 . S
C3604 H3596 0.950 . S
C3604 C3605 1.386 . S
C3604 C3606 1.391 . S
C3605 C3604 1.386 . S
C3605 C3609 1.393 . S
C3606 H3598 0.950 . S
C3606 C3604 1.391 . S
C3606 C3607 1.400 . S
C3607 C3606 1.400 . S
C3607 C3608 1.398 . S
C3607 C3613 1.491 . S
C3608 H3599 0.950 . S
C3608 C3607 1.398 . S
C3608 C3609 1.391 . S
C3609 H3597 0.950 . S
C3609 C3605 1.393 . S
C3609 C3608 1.391 . S
C3610 H3600 0.950 . S
C3610 C3611 1.386 . S
C3610 C3612 1.391 . S
C3611 C3610 1.386 . S
C3611 C3615 1.393 . S
C3612 H3601 0.950 . S
C3612 C3610 1.391 . S
C3612 C3613 1.400 . S
C3613 C3607 1.491 . S
C3613 C3612 1.400 . S
C3613 C3614 1.398 . S
C3614 H3602 0.950 . S
C3614 C3613 1.398 . S
C3614 C3615 1.391 . S
C3615 H3603 0.950 . S
C3615 C3611 1.393 . S
C3615 C3614 1.391 . S
H3616 C3624 0.950 . S
H3617 C3629 0.950 . S
H3618 C3626 0.950 . S
H3619 C3628 0.950 . S
H3620 C3630 0.950 . S
H3621 C3632 0.950 . S
H3622 C3634 0.950 . S
H3623 C3635 0.950 . S
C3624 H3616 0.950 . S
C3624 C3625 1.386 . S
C3624 C3626 1.391 . S
C3625 C3624 1.386 . S
C3625 C3629 1.393 . S
C3626 H3618 0.950 . S
C3626 C3624 1.391 . S
C3626 C3627 1.400 . S
C3627 C3626 1.400 . S
C3627 C3628 1.398 . S
C3627 C3633 1.491 . S
C3628 H3619 0.950 . S
C3628 C3627 1.398 . S
C3628 C3629 1.391 . S
C3629 H3617 0.950 . S
C3629 C3625 1.393 . S
C3629 C3628 1.391 . S
C3630 H3620 0.950 . S
C3630 C3631 1.386 . S
C3630 C3632 1.391 . S
C3631 C3630 1.386 . S
C3631 C3635 1.393 . S
C3632 H3621 0.950 . S
C3632 C3630 1.391 . S
C3632 C3633 1.400 . S
C3633 C3627 1.491 . S
C3633 C3632 1.400 . S
C3633 C3634 1.398 . S
C3634 H3622 0.950 . S
C3634 C3633 1.398 . S
C3634 C3635 1.391 . S
C3635 H3623 0.950 . S
C3635 C3631 1.393 . S
C3635 C3634 1.391 . S
H3636 C3644 0.950 . S
H3637 C3649 0.950 . S
H3638 C3646 0.950 . S
H3639 C3648 0.950 . S
H3640 C3650 0.950 . S
H3641 C3652 0.950 . S
H3642 C3654 0.950 . S
H3643 C3655 0.950 . S
C3644 H3636 0.950 . S
C3644 C3645 1.386 . S
C3644 C3646 1.391 . S
C3645 C3644 1.386 . S
C3645 C3649 1.393 . S
C3646 H3638 0.950 . S
C3646 C3644 1.391 . S
C3646 C3647 1.400 . S
C3647 C3646 1.400 . S
C3647 C3648 1.398 . S
C3647 C3653 1.491 . S
C3648 H3639 0.950 . S
C3648 C3647 1.398 . S
C3648 C3649 1.391 . S
C3649 H3637 0.950 . S
C3649 C3645 1.393 . S
C3649 C3648 1.391 . S
C3650 H3640 0.950 . S
C3650 C3651 1.386 . S
C3650 C3652 1.391 . S
C3651 C3650 1.386 . S
C3651 C3655 1.393 . S
C3652 H3641 0.950 . S
C3652 C3650 1.391 . S
C3652 C3653 1.400 . S
C3653 C3647 1.491 . S
C3653 C3652 1.400 . S
C3653 C3654 1.398 . S
C3654 H3642 0.950 . S
C3654 C3653 1.398 . S
C3654 C3655 1.391 . S
C3655 H3643 0.950 . S
C3655 C3651 1.393 . S
C3655 C3654 1.391 . S
H3656 C3664 0.950 . S
H3657 C3669 0.950 . S
H3658 C3666 0.950 . S
H3659 C3668 0.950 . S
H3660 C3670 0.950 . S
H3661 C3672 0.950 . S
H3662 C3674 0.950 . S
H3663 C3675 0.950 . S
C3664 H3656 0.950 . S
C3664 C3665 1.386 . S
C3664 C3666 1.391 . S
C3665 C3664 1.386 . S
C3665 C3669 1.393 . S
C3666 H3658 0.950 . S
C3666 C3664 1.391 . S
C3666 C3667 1.400 . S
C3667 C3666 1.400 . S
C3667 C3668 1.398 . S
C3667 C3673 1.491 . S
C3668 H3659 0.950 . S
C3668 C3667 1.398 . S
C3668 C3669 1.391 . S
C3669 H3657 0.950 . S
C3669 C3665 1.393 . S
C3669 C3668 1.391 . S
C3670 H3660 0.950 . S
C3670 C3671 1.386 . S
C3670 C3672 1.391 . S
C3671 C3670 1.386 . S
C3671 C3675 1.393 . S
C3672 H3661 0.950 . S
C3672 C3670 1.391 . S
C3672 C3673 1.400 . S
C3673 C3667 1.491 . S
C3673 C3672 1.400 . S
C3673 C3674 1.398 . S
C3674 H3662 0.950 . S
C3674 C3673 1.398 . S
C3674 C3675 1.391 . S
C3675 H3663 0.950 . S
C3675 C3671 1.393 . S
C3675 C3674 1.391 . S
H3676 C3684 0.950 . S
H3677 C3689 0.950 . S
H3678 C3686 0.950 . S
H3679 C3688 0.950 . S
H3680 C3690 0.950 . S
H3681 C3692 0.950 . S
H3682 C3694 0.950 . S
H3683 C3695 0.950 . S
C3684 H3676 0.950 . S
C3684 C3685 1.386 . S
C3684 C3686 1.391 . S
C3685 C3684 1.386 . S
C3685 C3689 1.393 . S
C3686 H3678 0.950 . S
C3686 C3684 1.391 . S
C3686 C3687 1.400 . S
C3687 C3686 1.400 . S
C3687 C3688 1.398 . S
C3687 C3693 1.491 . S
C3688 H3679 0.950 . S
C3688 C3687 1.398 . S
C3688 C3689 1.391 . S
C3689 H3677 0.950 . S
C3689 C3685 1.393 . S
C3689 C3688 1.391 . S
C3690 H3680 0.950 . S
C3690 C3691 1.386 . S
C3690 C3692 1.391 . S
C3691 C3690 1.386 . S
C3691 C3695 1.393 . S
C3692 H3681 0.950 . S
C3692 C3690 1.391 . S
C3692 C3693 1.400 . S
C3693 C3687 1.491 . S
C3693 C3692 1.400 . S
C3693 C3694 1.398 . S
C3694 H3682 0.950 . S
C3694 C3693 1.398 . S
C3694 C3695 1.391 . S
C3695 H3683 0.950 . S
C3695 C3691 1.393 . S
C3695 C3694 1.391 . S
H3696 C3704 0.950 . S
H3697 C3709 0.950 . S
H3698 C3706 0.950 . S
H3699 C3708 0.950 . S
H3700 C3710 0.950 . S
H3701 C3712 0.950 . S
H3702 C3714 0.950 . S
H3703 C3715 0.950 . S
C3704 H3696 0.950 . S
C3704 C3705 1.386 . S
C3704 C3706 1.391 . S
C3705 C3704 1.386 . S
C3705 C3709 1.393 . S
C3706 H3698 0.950 . S
C3706 C3704 1.391 . S
C3706 C3707 1.400 . S
C3707 C3706 1.400 . S
C3707 C3708 1.398 . S
C3707 C3713 1.491 . S
C3708 H3699 0.950 . S
C3708 C3707 1.398 . S
C3708 C3709 1.391 . S
C3709 H3697 0.950 . S
C3709 C3705 1.393 . S
C3709 C3708 1.391 . S
C3710 H3700 0.950 . S
C3710 C3711 1.386 . S
C3710 C3712 1.391 . S
C3711 C3710 1.386 . S
C3711 C3715 1.393 . S
C3712 H3701 0.950 . S
C3712 C3710 1.391 . S
C3712 C3713 1.400 . S
C3713 C3707 1.491 . S
C3713 C3712 1.400 . S
C3713 C3714 1.398 . S
C3714 H3702 0.950 . S
C3714 C3713 1.398 . S
C3714 C3715 1.391 . S
C3715 H3703 0.950 . S
C3715 C3711 1.393 . S
C3715 C3714 1.391 . S
H3716 C3724 0.950 . S
H3717 C3729 0.950 . S
H3718 C3726 0.950 . S
H3719 C3728 0.950 . S
H3720 C3730 0.950 . S
H3721 C3732 0.950 . S
H3722 C3734 0.950 . S
H3723 C3735 0.950 . S
C3724 H3716 0.950 . S
C3724 C3725 1.386 . S
C3724 C3726 1.391 . S
C3725 C3724 1.386 . S
C3725 C3729 1.393 . S
C3726 H3718 0.950 . S
C3726 C3724 1.391 . S
C3726 C3727 1.400 . S
C3727 C3726 1.400 . S
C3727 C3728 1.398 . S
C3727 C3733 1.491 . S
C3728 H3719 0.950 . S
C3728 C3727 1.398 . S
C3728 C3729 1.391 . S
C3729 H3717 0.950 . S
C3729 C3725 1.393 . S
C3729 C3728 1.391 . S
C3730 H3720 0.950 . S
C3730 C3731 1.386 . S
C3730 C3732 1.391 . S
C3731 C3730 1.386 . S
C3731 C3735 1.393 . S
C3732 H3721 0.950 . S
C3732 C3730 1.391 . S
C3732 C3733 1.400 . S
C3733 C3727 1.491 . S
C3733 C3732 1.400 . S
C3733 C3734 1.398 . S
C3734 H3722 0.950 . S
C3734 C3733 1.398 . S
C3734 C3735 1.391 . S
C3735 H3723 0.950 . S
C3735 C3731 1.393 . S
C3735 C3734 1.391 . S
H3736 C3744 0.950 . S
H3737 C3749 0.950 . S
H3738 C3746 0.950 . S
H3739 C3748 0.950 . S
H3740 C3750 0.950 . S
H3741 C3752 0.950 . S
H3742 C3754 0.950 . S
H3743 C3755 0.950 . S
C3744 H3736 0.950 . S
C3744 C3745 1.386 . S
C3744 C3746 1.391 . S
C3745 C3744 1.386 . S
C3745 C3749 1.393 . S
C3746 H3738 0.950 . S
C3746 C3744 1.391 . S
C3746 C3747 1.400 . S
C3747 C3746 1.400 . S
C3747 C3748 1.398 . S
C3747 C3753 1.491 . S
C3748 H3739 0.950 . S
C3748 C3747 1.398 . S
C3748 C3749 1.391 . S
C3749 H3737 0.950 . S
C3749 C3745 1.393 . S
C3749 C3748 1.391 . S
C3750 H3740 0.950 . S
C3750 C3751 1.386 . S
C3750 C3752 1.391 . S
C3751 C3750 1.386 . S
C3751 C3755 1.393 . S
C3752 H3741 0.950 . S
C3752 C3750 1.391 . S
C3752 C3753 1.400 . S
C3753 C3747 1.491 . S
C3753 C3752 1.400 . S
C3753 C3754 1.398 . S
C3754 H3742 0.950 . S
C3754 C3753 1.398 . S
C3754 C3755 1.391 . S
C3755 H3743 0.950 . S
C3755 C3751 1.393 . S
C3755 C3754 1.391 . S
H3756 C3764 0.950 . S
H3757 C3769 0.950 . S
H3758 C3766 0.950 . S
H3759 C3768 0.950 . S
H3760 C3770 0.950 . S
H3761 C3772 0.950 . S
H3762 C3774 0.950 . S
H3763 C3775 0.950 . S
C3764 H3756 0.950 . S
C3764 C3765 1.386 . S
C3764 C3766 1.391 . S
C3765 C3764 1.386 . S
C3765 C3769 1.393 . S
C3766 H3758 0.950 . S
C3766 C3764 1.391 . S
C3766 C3767 1.400 . S
C3767 C3766 1.400 . S
C3767 C3768 1.398 . S
C3767 C3773 1.491 . S
C3768 H3759 0.950 . S
C3768 C3767 1.398 . S
C3768 C3769 1.391 . S
C3769 H3757 0.950 . S
C3769 C3765 1.393 . S
C3769 C3768 1.391 . S
C3770 H3760 0.950 . S
C3770 C3771 1.386 . S
C3770 C3772 1.391 . S
C3771 C3770 1.386 . S
C3771 C3775 1.393 . S
C3772 H3761 0.950 . S
C3772 C3770 1.391 . S
C3772 C3773 1.400 . S
C3773 C3767 1.491 . S
C3773 C3772 1.400 . S
C3773 C3774 1.398 . S
C3774 H3762 0.950 . S
C3774 C3773 1.398 . S
C3774 C3775 1.391 . S
C3775 H3763 0.950 . S
C3775 C3771 1.393 . S
C3775 C3774 1.391 . S
H3776 C3784 0.950 . S
H3777 C3789 0.950 . S
H3778 C3786 0.950 . S
H3779 C3788 0.950 . S
H3780 C3790 0.950 . S
H3781 C3792 0.950 . S
H3782 C3794 0.950 . S
H3783 C3795 0.950 . S
C3784 H3776 0.950 . S
C3784 C3785 1.386 . S
C3784 C3786 1.391 . S
C3785 C3784 1.386 . S
C3785 C3789 1.393 . S
C3786 H3778 0.950 . S
C3786 C3784 1.391 . S
C3786 C3787 1.400 . S
C3787 C3786 1.400 . S
C3787 C3788 1.398 . S
C3787 C3793 1.491 . S
C3788 H3779 0.950 . S
C3788 C3787 1.398 . S
C3788 C3789 1.391 . S
C3789 H3777 0.950 . S
C3789 C3785 1.393 . S
C3789 C3788 1.391 . S
C3790 H3780 0.950 . S
C3790 C3791 1.386 . S
C3790 C3792 1.391 . S
C3791 C3790 1.386 . S
C3791 C3795 1.393 . S
C3792 H3781 0.950 . S
C3792 C3790 1.391 . S
C3792 C3793 1.400 . S
C3793 C3787 1.491 . S
C3793 C3792 1.400 . S
C3793 C3794 1.398 . S
C3794 H3782 0.950 . S
C3794 C3793 1.398 . S
C3794 C3795 1.391 . S
C3795 H3783 0.950 . S
C3795 C3791 1.393 . S
C3795 C3794 1.391 . S
H3796 C3804 0.950 . S
H3797 C3809 0.950 . S
H3798 C3806 0.950 . S
H3799 C3808 0.950 . S
H3800 C3810 0.950 . S
H3801 C3812 0.950 . S
H3802 C3814 0.950 . S
H3803 C3815 0.950 . S
C3804 H3796 0.950 . S
C3804 C3805 1.386 . S
C3804 C3806 1.391 . S
C3805 C3804 1.386 . S
C3805 C3809 1.393 . S
C3806 H3798 0.950 . S
C3806 C3804 1.391 . S
C3806 C3807 1.400 . S
C3807 C3806 1.400 . S
C3807 C3808 1.398 . S
C3807 C3813 1.491 . S
C3808 H3799 0.950 . S
C3808 C3807 1.398 . S
C3808 C3809 1.391 . S
C3809 H3797 0.950 . S
C3809 C3805 1.393 . S
C3809 C3808 1.391 . S
C3810 H3800 0.950 . S
C3810 C3811 1.386 . S
C3810 C3812 1.391 . S
C3811 C3810 1.386 . S
C3811 C3815 1.393 . S
C3812 H3801 0.950 . S
C3812 C3810 1.391 . S
C3812 C3813 1.400 . S
C3813 C3807 1.491 . S
C3813 C3812 1.400 . S
C3813 C3814 1.398 . S
C3814 H3802 0.950 . S
C3814 C3813 1.398 . S
C3814 C3815 1.391 . S
C3815 H3803 0.950 . S
C3815 C3811 1.393 . S
C3815 C3814 1.391 . S
H3816 C3824 0.950 . S
H3817 C3829 0.950 . S
H3818 C3826 0.950 . S
H3819 C3828 0.950 . S
H3820 C3830 0.950 . S
H3821 C3832 0.950 . S
H3822 C3834 0.950 . S
H3823 C3835 0.950 . S
C3824 H3816 0.950 . S
C3824 C3825 1.386 . S
C3824 C3826 1.391 . S
C3825 C3824 1.386 . S
C3825 C3829 1.393 . S
C3826 H3818 0.950 . S
C3826 C3824 1.391 . S
C3826 C3827 1.400 . S
C3827 C3826 1.400 . S
C3827 C3828 1.398 . S
C3827 C3833 1.491 . S
C3828 H3819 0.950 . S
C3828 C3827 1.398 . S
C3828 C3829 1.391 . S
C3829 H3817 0.950 . S
C3829 C3825 1.393 . S
C3829 C3828 1.391 . S
C3830 H3820 0.950 . S
C3830 C3831 1.386 . S
C3830 C3832 1.391 . S
C3831 C3830 1.386 . S
C3831 C3835 1.393 . S
C3832 H3821 0.950 . S
C3832 C3830 1.391 . S
C3832 C3833 1.400 . S
C3833 C3827 1.491 . S
C3833 C3832 1.400 . S
C3833 C3834 1.398 . S
C3834 H3822 0.950 . S
C3834 C3833 1.398 . S
C3834 C3835 1.391 . S
C3835 H3823 0.950 . S
C3835 C3831 1.393 . S
C3835 C3834 1.391 . S
H3836 C3844 0.950 . S
H3837 C3849 0.950 . S
H3838 C3846 0.950 . S
H3839 C3848 0.950 . S
H3840 C3850 0.950 . S
H3841 C3852 0.950 . S
H3842 C3854 0.950 . S
H3843 C3855 0.950 . S
C3844 H3836 0.950 . S
C3844 C3845 1.386 . S
C3844 C3846 1.391 . S
C3845 C3844 1.386 . S
C3845 C3849 1.393 . S
C3846 H3838 0.950 . S
C3846 C3844 1.391 . S
C3846 C3847 1.400 . S
C3847 C3846 1.400 . S
C3847 C3848 1.398 . S
C3847 C3853 1.491 . S
C3848 H3839 0.950 . S
C3848 C3847 1.398 . S
C3848 C3849 1.391 . S
C3849 H3837 0.950 . S
C3849 C3845 1.393 . S
C3849 C3848 1.391 . S
C3850 H3840 0.950 . S
C3850 C3851 1.386 . S
C3850 C3852 1.391 . S
C3851 C3850 1.386 . S
C3851 C3855 1.393 . S
C3852 H3841 0.950 . S
C3852 C3850 1.391 . S
C3852 C3853 1.400 . S
C3853 C3847 1.491 . S
C3853 C3852 1.400 . S
C3853 C3854 1.398 . S
C3854 H3842 0.950 . S
C3854 C3853 1.398 . S
C3854 C3855 1.391 . S
C3855 H3843 0.950 . S
C3855 C3851 1.393 . S
C3855 C3854 1.391 . S
H3856 C3864 0.950 . S
H3857 C3869 0.950 . S
H3858 C3866 0.950 . S
H3859 C3868 0.950 . S
H3860 C3870 0.950 . S
H3861 C3872 0.950 . S
H3862 C3874 0.950 . S
H3863 C3875 0.950 . S
C3864 H3856 0.950 . S
C3864 C3865 1.386 . S
C3864 C3866 1.391 . S
C3865 C3864 1.386 . S
C3865 C3869 1.393 . S
C3866 H3858 0.950 . S
C3866 C3864 1.391 . S
C3866 C3867 1.400 . S
C3867 C3866 1.400 . S
C3867 C3868 1.398 . S
C3867 C3873 1.491 . S
C3868 H3859 0.950 . S
C3868 C3867 1.398 . S
C3868 C3869 1.391 . S
C3869 H3857 0.950 . S
C3869 C3865 1.393 . S
C3869 C3868 1.391 . S
C3870 H3860 0.950 . S
C3870 C3871 1.386 . S
C3870 C3872 1.391 . S
C3871 C3870 1.386 . S
C3871 C3875 1.393 . S
C3872 H3861 0.950 . S
C3872 C3870 1.391 . S
C3872 C3873 1.400 . S
C3873 C3867 1.491 . S
C3873 C3872 1.400 . S
C3873 C3874 1.398 . S
C3874 H3862 0.950 . S
C3874 C3873 1.398 . S
C3874 C3875 1.391 . S
C3875 H3863 0.950 . S
C3875 C3871 1.393 . S
C3875 C3874 1.391 . S
H3876 C3884 0.950 . S
H3877 C3889 0.950 . S
H3878 C3886 0.950 . S
H3879 C3888 0.950 . S
H3880 C3890 0.950 . S
H3881 C3892 0.950 . S
H3882 C3894 0.950 . S
H3883 C3895 0.950 . S
C3884 H3876 0.950 . S
C3884 C3885 1.386 . S
C3884 C3886 1.391 . S
C3885 C3884 1.386 . S
C3885 C3889 1.393 . S
C3886 H3878 0.950 . S
C3886 C3884 1.391 . S
C3886 C3887 1.400 . S
C3887 C3886 1.400 . S
C3887 C3888 1.398 . S
C3887 C3893 1.491 . S
C3888 H3879 0.950 . S
C3888 C3887 1.398 . S
C3888 C3889 1.391 . S
C3889 H3877 0.950 . S
C3889 C3885 1.393 . S
C3889 C3888 1.391 . S
C3890 H3880 0.950 . S
C3890 C3891 1.386 . S
C3890 C3892 1.391 . S
C3891 C3890 1.386 . S
C3891 C3895 1.393 . S
C3892 H3881 0.950 . S
C3892 C3890 1.391 . S
C3892 C3893 1.400 . S
C3893 C3887 1.491 . S
C3893 C3892 1.400 . S
C3893 C3894 1.398 . S
C3894 H3882 0.950 . S
C3894 C3893 1.398 . S
C3894 C3895 1.391 . S
C3895 H3883 0.950 . S
C3895 C3891 1.393 . S
C3895 C3894 1.391 . S
H3896 C3904 0.950 . S
H3897 C3909 0.950 . S
H3898 C3906 0.950 . S
H3899 C3908 0.950 . S
H3900 C3910 0.950 . S
H3901 C3912 0.950 . S
H3902 C3914 0.950 . S
H3903 C3915 0.950 . S
C3904 H3896 0.950 . S
C3904 C3905 1.386 . S
C3904 C3906 1.391 . S
C3905 C3904 1.386 . S
C3905 C3909 1.393 . S
C3906 H3898 0.950 . S
C3906 C3904 1.391 . S
C3906 C3907 1.400 . S
C3907 C3906 1.400 . S
C3907 C3908 1.398 . S
C3907 C3913 1.491 . S
C3908 H3899 0.950 . S
C3908 C3907 1.398 . S
C3908 C3909 1.391 . S
C3909 H3897 0.950 . S
C3909 C3905 1.393 . S
C3909 C3908 1.391 . S
C3910 H3900 0.950 . S
C3910 C3911 1.386 . S
C3910 C3912 1.391 . S
C3911 C3910 1.386 . S
C3911 C3915 1.393 . S
C3912 H3901 0.950 . S
C3912 C3910 1.391 . S
C3912 C3913 1.400 . S
C3913 C3907 1.491 . S
C3913 C3912 1.400 . S
C3913 C3914 1.398 . S
C3914 H3902 0.950 . S
C3914 C3913 1.398 . S
C3914 C3915 1.391 . S
C3915 H3903 0.950 . S
C3915 C3911 1.393 . S
C3915 C3914 1.391 . S
H3916 C3924 0.950 . S
H3917 C3929 0.950 . S
H3918 C3926 0.950 . S
H3919 C3928 0.950 . S
H3920 C3930 0.950 . S
H3921 C3932 0.950 . S
H3922 C3934 0.950 . S
H3923 C3935 0.950 . S
C3924 H3916 0.950 . S
C3924 C3925 1.386 . S
C3924 C3926 1.391 . S
C3925 C3924 1.386 . S
C3925 C3929 1.393 . S
C3926 H3918 0.950 . S
C3926 C3924 1.391 . S
C3926 C3927 1.400 . S
C3927 C3926 1.400 . S
C3927 C3928 1.398 . S
C3927 C3933 1.491 . S
C3928 H3919 0.950 . S
C3928 C3927 1.398 . S
C3928 C3929 1.391 . S
C3929 H3917 0.950 . S
C3929 C3925 1.393 . S
C3929 C3928 1.391 . S
C3930 H3920 0.950 . S
C3930 C3931 1.386 . S
C3930 C3932 1.391 . S
C3931 C3930 1.386 . S
C3931 C3935 1.393 . S
C3932 H3921 0.950 . S
C3932 C3930 1.391 . S
C3932 C3933 1.400 . S
C3933 C3927 1.491 . S
C3933 C3932 1.400 . S
C3933 C3934 1.398 . S
C3934 H3922 0.950 . S
C3934 C3933 1.398 . S
C3934 C3935 1.391 . S
C3935 H3923 0.950 . S
C3935 C3931 1.393 . S
C3935 C3934 1.391 . S
C1065 C7 0.621 . S
C1071 C29 0.634 . S
C1085 C72 0.613 . S
C1091 C50 0.614 . S
C1105 C95 0.632 . S
C1111 C138 0.624 . S
C1125 C161 0.621 . S
C1131 C116 0.607 . S
C1145 C755 0.621 . S
C1151 C182 0.634 . S
C1165 C248 0.626 . S
C1171 C205 0.603 . S
C1185 C227 0.635 . S
C1191 C710 0.597 . S
C1205 C269 0.609 . S
C1211 C291 0.618 . S
C1225 C317 0.643 . S
C1231 C339 0.607 . S
C1245 C357 0.628 . S
C1251 C405 0.627 . S
C1265 C423 0.608 . S
C1271 C383 0.620 . S
C1285 C1021 0.635 . S
C1291 C449 0.620 . S
C1305 C471 0.641 . S
C1311 C515 0.610 . S
C1325 C493 0.605 . S
C1331 C977 0.644 . S
C1345 C557 0.640 . S
C1351 C535 0.612 . S
C1365 C600 0.629 . S
C1371 C578 0.627 . S
C1385 C623 0.608 . S
C1391 C666 0.643 . S
C1405 C644 0.613 . S
C1411 C689 0.614 . S
C1425 C776 0.620 . S
C1431 C733 0.634 . S
C1445 C797 0.615 . S
C1451 C819 0.612 . S
C1465 C867 0.597 . S
C1471 C845 0.645 . S
C1485 C933 0.643 . S
C1491 C885 0.596 . S
C1505 C951 0.612 . S
C1511 C911 0.641 . S
C1525 C999 0.620 . S
C1531 C1043 0.607 . S
C1545 C51 1.568 . S
C1551 C6 1.570 . S
C1565 C73 1.567 . S
C1571 C28 1.562 . S
C1585 C94 1.546 . S
C1591 C688 1.541 . S
C1605 C667 1.564 . S
C1611 C117 1.568 . S
C1625 C139 1.555 . S
C1631 C645 1.562 . S
C1645 C160 1.569 . S
C1651 C622 1.570 . S
C1665 C183 1.547 . S
C1671 C777 1.542 . S
C1685 C204 1.558 . S
C1691 C226 1.564 . S
C1705 C711 1.566 . S
C1711 C249 1.569 . S
C1725 C273 1.558 . S
C1731 C313 1.564 . S
C1745 C295 1.552 . S
C1751 C335 1.559 . S
C1765 C955 1.538 . S
C1771 C361 1.539 . S
C1785 C929 1.540 . S
C1791 C379 1.544 . S
C1805 C907 1.538 . S
C1811 C401 1.539 . S
C1825 C427 1.557 . S
C1831 C889 1.550 . S
C1845 C1039 1.569 . S
C1851 C445 1.566 . S
C1865 C489 1.557 . S
C1871 C467 1.563 . S
C1885 C511 1.540 . S
C1891 C973 1.545 . S
C1905 C534 1.538 . S
C1911 C579 1.540 . S
C1925 C556 1.563 . S
C1931 C601 1.557 . S
C1945 C754 1.540 . S
C1951 C732 1.545 . S
C1965 C801 1.558 . S
C1971 C841 1.564 . S
C1985 C823 1.538 . S
C1991 C863 1.540 . S
C2005 C995 1.559 . S
C2011 C1017 1.553 . S
C2025 C5 1.620 . S
C2031 C184 1.710 . S
C2045 C778 1.728 . S
C2051 C27 1.648 . S
C2065 C202 1.727 . S
C2071 C53 1.648 . S
C2085 C75 1.621 . S
C2091 C224 1.711 . S
C2105 C4 1.721 . S
C2111 C93 1.636 . S
C2125 C119 1.619 . S
C2131 C26 1.710 . S
C2145 C141 1.631 . S
C2151 C52 1.717 . S
C2165 C159 1.623 . S
C2171 C74 1.712 . S
C2185 C185 1.649 . S
C2191 C92 1.728 . S
C2205 C203 1.649 . S
C2211 C140 1.728 . S
C2225 C225 1.623 . S
C2231 C158 1.712 . S
C2245 C646 1.715 . S
C2251 C251 1.626 . S
C2265 C271 1.637 . S
C2271 C444 1.720 . S
C2285 C293 1.623 . S
C2291 C1038 1.713 . S
C2305 C314 1.646 . S
C2311 C466 1.726 . S
C2325 C488 1.720 . S
C2331 C336 1.636 . S
C2345 C272 1.728 . S
C2351 C359 1.649 . S
C2365 C380 1.622 . S
C2371 C294 1.712 . S
C2385 C402 1.635 . S
C2391 C312 1.719 . S
C2405 C334 1.719 . S
C2411 C425 1.634 . S
C2425 C360 1.727 . S
C2431 C446 1.648 . S
C2445 C468 1.633 . S
C2451 C400 1.718 . S
C2465 C490 1.630 . S
C2471 C426 1.717 . S
C2485 C512 1.631 . S
C2491 C906 1.717 . S
C2505 C712 1.726 . S
C2511 C533 1.645 . S
C2525 C555 1.647 . S
C2531 C250 1.727 . S
C2545 C730 1.710 . S
C2551 C581 1.619 . S
C2565 C603 1.618 . S
C2571 C752 1.709 . S
C2585 C532 1.725 . S
C2591 C621 1.644 . S
C2605 C647 1.625 . S
C2611 C554 1.713 . S
C2625 C669 1.647 . S
C2631 C580 1.727 . S
C2645 C687 1.628 . S
C2651 C602 1.716 . S
C2665 C713 1.630 . S
C2671 C620 1.716 . S
C2685 C668 1.727 . S
C2691 C731 1.648 . S
C2705 C686 1.723 . S
C2711 C753 1.640 . S
C2725 C779 1.629 . S
C2731 C118 1.715 . S
C2745 C799 1.618 . S
C2751 C972 1.710 . S
C2765 C821 1.622 . S
C2771 C510 1.711 . S
C2785 C994 1.709 . S
C2791 C842 1.617 . S
C2805 C864 1.634 . S
C2811 C1016 1.719 . S
C2825 C887 1.626 . S
C2831 C800 1.714 . S
C2845 C908 1.618 . S
C2851 C822 1.709 . S
C2865 C930 1.620 . S
C2871 C840 1.711 . S
C2885 C953 1.617 . S
C2891 C862 1.709 . S
C2905 C974 1.646 . S
C2911 C888 1.726 . S
C2925 C996 1.622 . S
C2931 C928 1.712 . S
C2945 C1018 1.642 . S
C2951 C954 1.724 . S
C2965 C1040 1.649 . S
C2971 C378 1.728 . S
C2985 C8 1.622 . S
C2991 C491 1.576 . S
C3005 C469 1.582 . S
C3011 C30 1.625 . S
C3025 C48 1.620 . S
C3031 C1041 1.565 1_554 S
C3045 C70 1.623 . S
C3051 C447 1.564 1_554 S
C3065 C820 1.566 . S
C3071 C96 1.625 . S
C3085 C798 1.569 . S
C3091 C114 1.627 . S
C3105 C136 1.628 . S
C3111 C865 1.587 . S
C3125 C162 1.631 . S
C3131 C843 1.589 . S
C3145 C931 1.576 . S
C3151 C180 1.622 . S
C3165 C886 1.564 . S
C3171 C206 1.624 . S
C3185 C228 1.632 . S
C3191 C909 1.589 1_565 S
C3205 C246 1.620 . S
C3211 C424 1.568 . S
C3225 C229 1.588 . S
C3231 C268 1.632 . S
C3245 C290 1.620 . S
C3251 C207 1.564 . S
C3265 C316 1.621 . S
C3271 C775 1.572 1_556 S
C3285 C181 1.582 1_556 S
C3291 C338 1.632 . S
C3305 C356 1.632 . S
C3311 C559 1.580 . S
C3325 C382 1.630 . S
C3331 C537 1.588 . S
C3345 C404 1.620 . S
C3351 C599 1.566 . S
C3365 C422 1.627 . S
C3371 C577 1.585 . S
C3385 C448 1.631 . S
C3391 C665 1.578 . S
C3405 C625 1.568 . S
C3411 C470 1.620 . S
C3425 C492 1.620 . S
C3431 C643 1.564 1_545 S
C3445 C514 1.632 . S
C3451 C163 1.579 . S
C3465 C1019 1.566 1_556 S
C3471 C536 1.625 . S
C3485 C997 1.578 1_556 S
C3491 C558 1.631 . S
C3505 C576 1.626 . S
C3511 C513 1.567 . S
C3525 C975 1.584 . S
C3531 C598 1.633 . S
C3545 C292 1.573 1_655 S
C3551 C624 1.629 . S
C3565 C270 1.585 1_455 S
C3571 C642 1.633 . S
C3585 C664 1.622 . S
C3591 C337 1.563 1_655 S
C3605 C690 1.633 . S
C3611 C315 1.587 1_455 S
C3625 C403 1.588 1_565 S
C3631 C708 1.632 . S
C3645 C358 1.578 1_545 S
C3651 C734 1.631 . S
C3665 C381 1.565 . S
C3671 C756 1.620 . S
C3685 C774 1.633 . S
C3691 C952 1.583 1_545 S
C3705 C796 1.620 . S
C3711 C757 1.569 1_554 S
C3725 C735 1.564 1_554 S
C3731 C818 1.621 . S
C3745 C844 1.633 . S
C3751 C247 1.587 . S
C3765 C866 1.632 . S
C3771 C709 1.581 . S
C3785 C31 1.580 1_455 S
C3791 C884 1.632 . S
C3805 C9 1.564 1_655 S
C3811 C910 1.621 . S
C3825 C932 1.627 . S
C3831 C71 1.569 1_455 S
C3845 C49 1.589 1_655 S
C3851 C950 1.630 . S
C3865 C137 1.574 1_545 S
C3871 C976 1.630 . S
C3885 C998 1.632 . S
C3891 C97 1.579 1_565 S
C3905 C1020 1.620 . S
C3911 C115 1.568 . S
C3925 C691 1.563 1_565 S
C3931 C1042 1.622 . S
