# Generated by pormake.
# Topology atn, (4)-cn, num edge types: 1
# Building blocks:
#     Node 0, Type 0, BuildingBlock: KUFVIS_clean_sbu_0, # of connection points: 4
#     Node 1, Type 0, BuildingBlock: KUFVIS_clean_sbu_0, # of connection points: 4
#     Node 2, Type 0, BuildingBlock: KUFVIS_clean_sbu_0, # of connection points: 4
#     Node 3, Type 0, BuildingBlock: KUFVIS_clean_sbu_0, # of connection points: 4
#     Node 4, Type 0, BuildingBlock: KUFVIS_clean_sbu_0, # of connection points: 4
#     Node 5, Type 0, BuildingBlock: KUFVIS_clean_sbu_0, # of connection points: 4
#     Node 6, Type 0, BuildingBlock: KUFVIS_clean_sbu_0, # of connection points: 4
#     Node 7, Type 0, BuildingBlock: KUFVIS_clean_sbu_0, # of connection points: 4
#     Node 8, Type 0, BuildingBlock: KUFVIS_clean_sbu_0, # of connection points: 4
#     Node 9, Type 0, BuildingBlock: KUFVIS_clean_sbu_0, # of connection points: 4
#     Node 10, Type 0, BuildingBlock: KUFVIS_clean_sbu_0, # of connection points: 4
#     Node 11, Type 0, BuildingBlock: KUFVIS_clean_sbu_0, # of connection points: 4
#     Node 12, Type 0, BuildingBlock: KUFVIS_clean_sbu_0, # of connection points: 4
#     Node 13, Type 0, BuildingBlock: KUFVIS_clean_sbu_0, # of connection points: 4
#     Node 14, Type 0, BuildingBlock: KUFVIS_clean_sbu_0, # of connection points: 4
#     Node 15, Type 0, BuildingBlock: KUFVIS_clean_sbu_0, # of connection points: 4
#     Edge 16, Type (0, 0), BuildingBlock: OJICUG_clean_linker_0, # of connection points: 2
#     Edge 17, Type (0, 0), BuildingBlock: OJICUG_clean_linker_0, # of connection points: 2
#     Edge 18, Type (0, 0), BuildingBlock: OJICUG_clean_linker_0, # of connection points: 2
#     Edge 19, Type (0, 0), BuildingBlock: OJICUG_clean_linker_0, # of connection points: 2
#     Edge 20, Type (0, 0), BuildingBlock: OJICUG_clean_linker_0, # of connection points: 2
#     Edge 21, Type (0, 0), BuildingBlock: OJICUG_clean_linker_0, # of connection points: 2
#     Edge 22, Type (0, 0), BuildingBlock: OJICUG_clean_linker_0, # of connection points: 2
#     Edge 23, Type (0, 0), BuildingBlock: OJICUG_clean_linker_0, # of connection points: 2
#     Edge 24, Type (0, 0), BuildingBlock: OJICUG_clean_linker_0, # of connection points: 2
#     Edge 25, Type (0, 0), BuildingBlock: OJICUG_clean_linker_0, # of connection points: 2
#     Edge 26, Type (0, 0), BuildingBlock: OJICUG_clean_linker_0, # of connection points: 2
#     Edge 27, Type (0, 0), BuildingBlock: OJICUG_clean_linker_0, # of connection points: 2
#     Edge 28, Type (0, 0), BuildingBlock: OJICUG_clean_linker_0, # of connection points: 2
#     Edge 29, Type (0, 0), BuildingBlock: OJICUG_clean_linker_0, # of connection points: 2
#     Edge 30, Type (0, 0), BuildingBlock: OJICUG_clean_linker_0, # of connection points: 2
#     Edge 31, Type (0, 0), BuildingBlock: OJICUG_clean_linker_0, # of connection points: 2
#     Edge 32, Type (0, 0), BuildingBlock: OJICUG_clean_linker_0, # of connection points: 2
#     Edge 33, Type (0, 0), BuildingBlock: OJICUG_clean_linker_0, # of connection points: 2
#     Edge 34, Type (0, 0), BuildingBlock: OJICUG_clean_linker_0, # of connection points: 2
#     Edge 35, Type (0, 0), BuildingBlock: OJICUG_clean_linker_0, # of connection points: 2
#     Edge 36, Type (0, 0), BuildingBlock: OJICUG_clean_linker_0, # of connection points: 2
#     Edge 37, Type (0, 0), BuildingBlock: OJICUG_clean_linker_0, # of connection points: 2
#     Edge 38, Type (0, 0), BuildingBlock: OJICUG_clean_linker_0, # of connection points: 2
#     Edge 39, Type (0, 0), BuildingBlock: OJICUG_clean_linker_0, # of connection points: 2
#     Edge 40, Type (0, 0), BuildingBlock: OJICUG_clean_linker_0, # of connection points: 2
#     Edge 41, Type (0, 0), BuildingBlock: OJICUG_clean_linker_0, # of connection points: 2
#     Edge 42, Type (0, 0), BuildingBlock: OJICUG_clean_linker_0, # of connection points: 2
#     Edge 43, Type (0, 0), BuildingBlock: OJICUG_clean_linker_0, # of connection points: 2
#     Edge 44, Type (0, 0), BuildingBlock: OJICUG_clean_linker_0, # of connection points: 2
#     Edge 45, Type (0, 0), BuildingBlock: OJICUG_clean_linker_0, # of connection points: 2
#     Edge 46, Type (0, 0), BuildingBlock: OJICUG_clean_linker_0, # of connection points: 2
#     Edge 47, Type (0, 0), BuildingBlock: OJICUG_clean_linker_0, # of connection points: 2
# Relax obj value: 0.056
# Max RMSD: 0.082
# Mean RMSD: 0.082
data_MOF--net-atn--node1-KUFVIS_clean_sbu_0--edge1-OJICUG_clean_linker_0
_symmetry_space_group_name_H-M    P1
_symmetry_Int_Tables_number       1
_symmetry_cell_setting            triclinic
loop_
_symmetry_equiv_pos_as_xyz
'x, y, z'
_cell_length_a     43.840141
_cell_length_b     43.69463
_cell_length_c     19.472131
_cell_angle_alpha  90.040761
_cell_angle_beta   90.037452
_cell_angle_gamma 90.121173
loop_
_atom_site_label
_atom_site_type_symbol
_atom_site_fract_x
_atom_site_fract_y
_atom_site_fract_z
_atom_type_partial_charge
Mn0 Mn 0.21826 0.38738 0.01128 0.0
Mn1 Mn 0.14247 0.39888 -0.00263 0.0
C2 C 0.1884 0.38734 0.11066 0.0
C3 C 0.25825 0.35166 0.0044 0.0
C4 C 0.18997 0.45046 0.99032 0.0
O5 O 0.20999 0.38212 0.90864 0.0
O6 O 0.15876 0.38237 0.91042 0.0
C7 C 0.12214 0.33452 0.98126 0.0
N8 N 0.11977 0.36219 0.01292 0.0
C9 C 0.07534 0.3459 0.07543 0.0
C10 C 0.07706 0.31728 0.04299 0.0
C11 C 0.10077 0.31147 -0.0038 0.0
C12 C 0.09768 0.36767 0.05953 0.0
H13 H 0.14018 0.33015 0.94493 0.0
C14 C 0.18414 0.37794 0.88023 0.0
O15 O 0.26325 0.38076 -0.00424 0.0
O16 O 0.23041 0.34368 0.01749 0.0
N17 N 0.12211 0.41442 0.07656 0.0
C18 C 0.12404 0.44301 0.10398 0.0
C19 C 0.10073 0.45352 0.14701 0.0
C20 C 0.07611 0.43419 0.16314 0.0
C21 C 0.07545 0.40426 0.13757 0.0
C22 C 0.09858 0.3956 0.09225 0.0
H23 H 0.14259 0.45813 0.09108 0.0
O24 O 0.2178 0.39067 0.11348 0.0
O25 O 0.17727 0.38287 0.04943 0.0
O26 O 0.21372 0.43446 0.00335 0.0
O27 O 0.16348 0.43857 0.98208 0.0
C28 C 0.05213 0.38311 0.15305 0.0
C29 C 0.05236 0.35373 0.12284 0.0
H30 H 0.06041 0.29958 0.05381 0.0
H31 H 0.10237 0.2894 0.97123 0.0
H32 H 0.10143 0.47674 0.1662 0.0
H33 H 0.05756 0.44271 0.19429 0.0
H34 H 0.034 0.38916 0.18826 0.0
H35 H 0.03457 0.33749 0.13578 0.0
Mn36 Mn 0.64333 0.21613 0.0135 0.0
Mn37 Mn 0.63202 0.13988 0.00423 0.0
C38 C 0.64253 0.18757 0.11492 0.0
C39 C 0.67864 0.25662 0.00593 0.0
C40 C 0.58093 0.18719 0.98983 0.0
O41 O 0.6499 0.20621 0.91192 0.0
O42 O 0.65021 0.15489 0.91797 0.0
C43 C 0.69621 0.11895 -0.00395 0.0
N44 N 0.66801 0.11716 0.02499 0.0
C45 C 0.68246 0.0733 0.09198 0.0
C46 C 0.71161 0.07444 0.06244 0.0
C47 C 0.71861 0.09757 0.01479 0.0
C48 C 0.66138 0.09567 0.07251 0.0
H49 H 0.70151 0.13657 0.95908 0.0
C50 C 0.65491 0.1799 0.88596 0.0
O51 O 0.64971 0.26106 -0.00491 0.0
O52 O 0.68672 0.22899 0.02145 0.0
N53 N 0.61485 0.12077 0.08338 0.0
C54 C 0.58581 0.12314 0.10744 0.0
C55 C 0.57408 0.10019 0.15011 0.0
C56 C 0.59264 0.0755 0.16946 0.0
C57 C 0.62304 0.07447 0.14764 0.0
C58 C 0.63296 0.09721 0.10235 0.0
H59 H 0.57126 0.14173 0.09207 0.0
O60 O 0.63893 0.21704 0.1155 0.0
O61 O 0.6475 0.17561 0.05471 0.0
O62 O 0.59662 0.21118 0.00324 0.0
O63 O 0.59295 0.16066 0.98336 0.0
C64 C 0.6435 0.05112 0.16669 0.0
C65 C 0.6734 0.05086 0.13982 0.0
H66 H 0.72881 0.05776 0.07614 0.0
H67 H 0.7411 0.09872 0.99206 0.0
H68 H 0.55057 0.10123 0.1668 0.0
H69 H 0.58318 0.0573 0.20055 0.0
H70 H 0.6365 0.03333 0.20207 0.0
H71 H 0.68909 0.03306 0.1555 0.0
Mn72 Mn 0.81152 0.64503 0.01525 0.0
Mn73 Mn 0.88754 0.63479 0.00284 0.0
C74 C 0.84097 0.64519 0.11538 0.0
C75 C 0.7708 0.67984 0.00865 0.0
C76 C 0.8408 0.58268 0.99233 0.0
O77 O 0.82026 0.65103 0.91297 0.0
O78 O 0.87148 0.65201 0.91634 0.0
C79 C 0.90733 0.6995 0.99083 0.0
N80 N 0.90986 0.6715 0.02089 0.0
C81 C 0.95388 0.68753 0.0854 0.0
C82 C 0.95203 0.71646 0.0545 0.0
C83 C 0.92845 0.72256 0.00754 0.0
C84 C 0.93181 0.66573 0.06772 0.0
H85 H 0.88931 0.70412 0.95456 0.0
C86 C 0.84616 0.6561 0.88552 0.0
O87 O 0.76648 0.65071 -0.00117 0.0
O88 O 0.79843 0.68837 0.02257 0.0
N89 N 0.90761 0.61869 0.08187 0.0
C90 C 0.9057 0.58987 0.10798 0.0
C91 C 0.92885 0.57915 0.15126 0.0
C92 C 0.95327 0.59848 0.16896 0.0
C93 C 0.95388 0.62861 0.14471 0.0
C94 C 0.93094 0.63751 0.09908 0.0
H95 H 0.88731 0.57475 0.0939 0.0
O96 O 0.81163 0.64121 0.11737 0.0
O97 O 0.85227 0.65006 0.05452 0.0
O98 O 0.81685 0.5982 0.00597 0.0
O99 O 0.86712 0.595 0.98481 0.0
C100 C 0.97696 0.64979 0.16188 0.0
C101 C 0.97667 0.67943 0.13309 0.0
H102 H 0.96847 0.73419 0.06674 0.0
H103 H 0.92672 0.74489 0.98386 0.0
H104 H 0.92817 0.55578 0.16953 0.0
H105 H 0.97165 0.58981 0.20044 0.0
H106 H 0.99494 0.64356 0.19737 0.0
H107 H 0.99425 0.69569 0.14738 0.0
Mn108 Mn 0.38642 0.81932 0.02318 0.0
Mn109 Mn 0.39754 0.89571 0.01567 0.0
C110 C 0.38699 0.84764 0.12515 0.0
C111 C 0.35154 0.7784 0.01524 0.0
C112 C 0.44899 0.84883 0.00184 0.0
O113 O 0.37944 0.82936 0.92184 0.0
O114 O 0.38045 0.88064 0.92812 0.0
C115 C 0.33318 0.91584 0.00389 0.0
N116 N 0.36104 0.91795 0.0345 0.0
C117 C 0.34538 0.96166 0.10067 0.0
C118 C 0.31659 0.96023 0.06936 0.0
C119 C 0.31036 0.937 0.02129 0.0
C120 C 0.36689 0.9395 0.08245 0.0
H121 H 0.32848 0.89817 0.96657 0.0
C122 C 0.37517 0.85578 0.89585 0.0
O123 O 0.38049 0.77434 0.00413 0.0
O124 O 0.34317 0.8059 0.03127 0.0
N125 N 0.41356 0.91493 0.09597 0.0
C126 C 0.44231 0.91281 0.12183 0.0
C127 C 0.45335 0.93591 0.16513 0.0
C128 C 0.43432 0.9604 0.18351 0.0
C129 C 0.40416 0.96111 0.15988 0.0
C130 C 0.39499 0.93829 0.11393 0.0
H131 H 0.45715 0.89429 0.10746 0.0
O132 O 0.39101 0.81821 0.12511 0.0
O133 O 0.3819 0.85975 0.06513 0.0
O134 O 0.43311 0.8247 0.01267 0.0
O135 O 0.43713 0.87548 -0.00296 0.0
C136 C 0.38325 0.98425 0.17774 0.0
C137 C 0.35366 0.98421 0.14906 0.0
H138 H 0.29907 0.97674 0.082 0.0
H139 H 0.28815 0.93562 -0.0028 0.0
H140 H 0.47669 0.93512 0.18305 0.0
H141 H 0.44323 0.97868 0.21524 0.0
H142 H 0.38967 1.00213 0.21355 0.0
H143 H 0.33763 1.00186 0.16379 0.0
Mn144 Mn 0.21908 0.64747 0.98276 0.0
Mn145 Mn 0.14321 0.63595 -0.00334 0.0
C146 C 0.18912 0.64762 0.88346 0.0
C147 C 0.25921 0.68327 0.98986 0.0
C148 C 0.19043 0.5843 0.00285 0.0
O149 O 0.21096 0.65252 0.08545 0.0
O150 O 0.15972 0.65204 0.08389 0.0
C151 C 0.12332 0.70028 0.01425 0.0
N152 N 0.12074 0.67276 0.98196 0.0
C153 C 0.07633 0.68943 0.91998 0.0
C154 C 0.07827 0.71789 0.95305 0.0
C155 C 0.10207 0.72344 -0.0001 0.0
C156 C 0.09854 0.66753 0.93535 0.0
H157 H 0.14142 0.70445 0.05064 0.0
C158 C 0.18515 0.65645 0.11405 0.0
O159 O 0.26414 0.65417 -0.00179 0.0
O160 O 0.23137 0.6912 0.97689 0.0
N161 N 0.12264 0.6208 0.91725 0.0
C162 C 0.12439 0.59234 0.88911 0.0
C163 C 0.10101 0.5821 0.84577 0.0
C164 C 0.07652 0.60157 0.83003 0.0
C165 C 0.07603 0.63135 0.85644 0.0
C166 C 0.09922 0.63974 0.90204 0.0
H167 H 0.14286 0.57713 0.90163 0.0
O168 O 0.2185 0.64435 0.88053 0.0
O169 O 0.17806 0.65203 0.94473 0.0
O170 O 0.2143 0.60033 0.99031 0.0
O171 O 0.16399 0.59619 0.01102 0.0
C172 C 0.05283 0.65263 0.84149 0.0
C173 C 0.05326 0.68186 0.87242 0.0
H174 H 0.06173 0.73567 0.94267 0.0
H175 H 0.10384 0.74539 0.02537 0.0
H176 H 0.10156 0.55896 0.82609 0.0
H177 H 0.05791 0.59326 0.79864 0.0
H178 H 0.03465 0.6468 0.80611 0.0
H179 H 0.03557 0.6982 0.85988 0.0
Mn180 Mn 0.38536 0.21621 0.97179 0.0
Mn181 Mn 0.39625 0.13991 0.98003 0.0
C182 C 0.38599 0.18781 0.86998 0.0
C183 C 0.35048 0.25691 0.9796 0.0
C184 C 0.44764 0.18707 -0.0052 0.0
O185 O 0.37846 0.20616 0.07322 0.0
O186 O 0.37843 0.15486 0.06674 0.0
C187 C 0.33198 0.11906 0.98925 0.0
N188 N 0.36004 0.1173 0.95964 0.0
C189 C 0.34513 0.07349 0.89267 0.0
C190 C 0.31611 0.07459 0.92288 0.0
C191 C 0.30942 0.09768 0.97086 0.0
C192 C 0.36638 0.09585 0.91184 0.0
H193 H 0.32692 0.13662 0.02654 0.0
C194 C 0.37357 0.17978 0.09899 0.0
O195 O 0.37942 0.26114 0.99071 0.0
O196 O 0.3421 0.22936 0.96366 0.0
N197 N 0.41303 0.12086 0.9004 0.0
C198 C 0.44199 0.12324 0.87579 0.0
C199 C 0.45341 0.10034 0.83259 0.0
C200 C 0.43463 0.0757 0.81335 0.0
C201 C 0.40432 0.07467 0.83581 0.0
C202 C 0.3947 0.09736 0.88151 0.0
H203 H 0.45669 0.14179 0.89108 0.0
O204 O 0.38991 0.21726 0.86984 0.0
O205 O 0.38086 0.17575 0.93003 0.0
O206 O 0.43202 0.21113 0.9823 0.0
O207 O 0.43554 0.16052 0.00048 0.0
C208 C 0.38367 0.05136 0.817 0.0
C209 C 0.35388 0.05108 0.84451 0.0
H210 H 0.29879 0.05791 0.90948 0.0
H211 H 0.28704 0.09879 -0.00587 0.0
H212 H 0.47685 0.10139 0.81539 0.0
H213 H 0.44385 0.05756 0.78179 0.0
H214 H 0.39044 0.03359 0.78135 0.0
H215 H 0.33806 0.03329 0.82906 0.0
Mn216 Mn 0.81226 0.38621 0.97465 0.0
Mn217 Mn 0.88821 0.39745 0.98636 0.0
C218 C 0.84141 0.38661 0.87432 0.0
C219 C 0.77196 0.35069 0.98179 0.0
C220 C 0.84106 0.44892 -0.00233 0.0
O221 O 0.82132 0.38032 0.07671 0.0
O222 O 0.87254 0.37983 0.07276 0.0
C223 C 0.90864 0.33299 -0.00265 0.0
N224 N 0.91083 0.3611 0.96764 0.0
C225 C 0.95488 0.34587 0.90259 0.0
C226 C 0.95339 0.31685 0.93313 0.0
C227 C 0.92996 0.31028 0.98018 0.0
C228 C 0.93262 0.36731 0.92071 0.0
H229 H 0.89075 0.32801 0.0337 0.0
C230 C 0.84732 0.37547 0.10383 0.0
O231 O 0.76734 0.37975 0.99162 0.0
O232 O 0.79962 0.3426 0.96746 0.0
N233 N 0.9079 0.41402 0.90729 0.0
C234 C 0.90562 0.44286 0.88147 0.0
C235 C 0.92856 0.45402 0.83813 0.0
C236 C 0.95317 0.43512 0.82014 0.0
C237 C 0.95416 0.40493 0.84403 0.0
C238 C 0.93139 0.39558 0.88969 0.0
H239 H 0.88709 0.45766 0.89581 0.0
O240 O 0.81202 0.39009 0.87258 0.0
O241 O 0.85292 0.38183 0.935 0.0
O242 O 0.81719 0.43313 0.98399 0.0
O243 O 0.86747 0.43688 0.00507 0.0
C244 C 0.97742 0.38414 0.82644 0.0
C245 C 0.97749 0.35442 0.85485 0.0
H246 H 0.96998 0.29939 0.92054 0.0
H247 H 0.92851 0.28787 0.00358 0.0
H248 H 0.92757 0.47739 0.82 0.0
H249 H 0.97141 0.44413 0.78866 0.0
H250 H 0.99526 0.39072 0.79091 0.0
H251 H 0.9952 0.33846 0.84022 0.0
Mn252 Mn 0.64271 0.8142 0.97737 0.0
Mn253 Mn 0.63622 0.89075 0.98731 0.0
C254 C 0.64261 0.84219 0.87433 0.0
C255 C 0.67711 0.77306 0.9847 0.0
C256 C 0.58233 0.8463 0.00392 0.0
O257 O 0.64989 0.82356 0.07916 0.0
O258 O 0.65458 0.87446 0.07243 0.0
C259 C 0.70243 0.90443 0.98795 0.0
N260 N 0.67403 0.90942 0.96193 0.0
C261 C 0.69304 0.94801 0.88502 0.0
C262 C 0.72244 0.94364 0.91164 0.0
C263 C 0.72719 0.92156 0.96295 0.0
C264 C 0.66943 0.92976 0.91092 0.0
H265 H 0.70616 0.88744 0.02727 0.0
C266 C 0.65715 0.84934 0.10495 0.0
O267 O 0.64814 0.76905 -0.00377 0.0
O268 O 0.68558 0.80047 0.96846 0.0
N269 N 0.6192 0.91227 0.91116 0.0
C270 C 0.58915 0.91506 0.89419 0.0
C271 C 0.58004 0.9379 0.84805 0.0
C272 C 0.60185 0.95776 0.81968 0.0
C273 C 0.6326 0.95457 0.83763 0.0
C274 C 0.64019 0.93205 0.88577 0.0
H275 H 0.57216 0.90023 0.91608 0.0
O276 O 0.63791 0.8129 0.87533 0.0
O277 O 0.6479 0.8542 0.93454 0.0
O278 O 0.5966 0.8216 0.98906 0.0
O279 O 0.59576 0.87234 0.01085 0.0
C280 C 0.65588 0.97348 0.81124 0.0
C281 C 0.68618 0.9699 0.83422 0.0
H282 H 0.74152 0.95706 0.89301 0.0
H283 H 0.74984 0.91787 0.98343 0.0
H284 H 0.55617 0.94042 0.83504 0.0
H285 H 0.59465 0.97569 0.785 0.0
H286 H 0.6507 0.99087 0.77339 0.0
H287 H 0.70394 0.98444 0.81336 0.0
Mn288 Mn 0.71906 0.88792 0.51523 0.0
Mn289 Mn 0.64285 0.89565 0.5056 0.0
C290 C 0.69116 0.88839 0.61825 0.0
C291 C 0.7595 0.85271 0.50744 0.0
C292 C 0.68797 0.94906 0.48928 0.0
O293 O 0.70954 0.88118 0.41333 0.0
O294 O 0.65875 0.87711 0.4203 0.0
C295 C 0.62828 0.82942 0.50462 0.0
N296 N 0.62378 0.85794 0.53096 0.0
C297 C 0.58533 0.83925 0.60838 0.0
C298 C 0.58921 0.80974 0.58146 0.0
C299 C 0.61097 0.80477 0.52972 0.0
C300 C 0.60377 0.86274 0.5824 0.0
H301 H 0.64503 0.82552 0.46496 0.0
C302 C 0.68372 0.87431 0.3876 0.0
O303 O 0.76396 0.88174 0.49624 0.0
O304 O 0.73204 0.84463 0.52355 0.0
N305 N 0.62174 0.91295 0.58201 0.0
C306 C 0.61917 0.94315 0.59868 0.0
C307 C 0.5966 0.95253 0.64506 0.0
C308 C 0.57671 0.93084 0.67378 0.0
C309 C 0.57961 0.89994 0.65602 0.0
C310 C 0.60192 0.89208 0.60774 0.0
H311 H 0.63401 0.96005 0.57645 0.0
O312 O 0.72045 0.89242 0.61746 0.0
O313 O 0.67914 0.88339 0.558 0.0
O314 O 0.71239 0.93436 0.50409 0.0
O315 O 0.66181 0.93598 0.48222 0.0
C316 C 0.56056 0.87679 0.68256 0.0
C317 C 0.56373 0.84636 0.65947 0.0
H318 H 0.57563 0.79076 0.60013 0.0
H319 H 0.61427 0.78203 0.50899 0.0
H320 H 0.59428 0.97652 0.65788 0.0
H321 H 0.55889 0.93825 0.70838 0.0
H322 H 0.54334 0.88218 0.72054 0.0
H323 H 0.54905 0.82871 0.6804 0.0
Mn324 Mn 0.14329 0.71549 0.52196 0.0
Mn325 Mn 0.13219 0.63918 0.5134 0.0
C326 C 0.14243 0.68711 0.62377 0.0
C327 C 0.17825 0.75629 0.51471 0.0
C328 C 0.08098 0.68625 0.49793 0.0
O329 O 0.15044 0.70543 0.42062 0.0
O330 O 0.15028 0.65413 0.42691 0.0
C331 C 0.1964 0.61835 0.50483 0.0
N332 N 0.16828 0.61663 0.53424 0.0
C333 C 0.18299 0.57302 0.60176 0.0
C334 C 0.21206 0.57411 0.57181 0.0
C335 C 0.21888 0.59707 0.52364 0.0
C336 C 0.16181 0.59529 0.58219 0.0
H337 H 0.20156 0.63581 0.46736 0.0
C338 C 0.15531 0.67905 0.39479 0.0
O339 O 0.14934 0.76042 0.50322 0.0
O340 O 0.18654 0.72877 0.53069 0.0
N341 N 0.11514 0.62015 0.59281 0.0
C342 C 0.08607 0.6224 0.6168 0.0
C343 C 0.07454 0.59957 0.66008 0.0
C344 C 0.09328 0.57509 0.67991 0.0
C345 C 0.12366 0.57414 0.6579 0.0
C346 C 0.13342 0.59678 0.61217 0.0
H347 H 0.07136 0.64078 0.60094 0.0
O348 O 0.13849 0.71655 0.62384 0.0
O349 O 0.14761 0.67504 0.56371 0.0
O350 O 0.09664 0.71031 0.51079 0.0
O351 O 0.093 0.6597 0.4924 0.0
C352 C 0.14425 0.55095 0.67718 0.0
C353 C 0.1741 0.5507 0.65003 0.0
H354 H 0.22932 0.55749 0.58553 0.0
H355 H 0.2413 0.59816 0.50053 0.0
H356 H 0.05105 0.60053 0.67692 0.0
H357 H 0.08399 0.557 0.7116 0.0
H358 H 0.13737 0.53323 0.71288 0.0
H359 H 0.18986 0.53299 0.6658 0.0
Mn360 Mn 0.31037 0.14721 0.51076 0.0
Mn361 Mn 0.38619 0.1359 0.49712 0.0
C362 C 0.3402 0.1474 0.61016 0.0
C363 C 0.27033 0.18285 0.50366 0.0
C364 C 0.33885 0.08418 0.49037 0.0
O365 O 0.31859 0.15232 0.40816 0.0
O366 O 0.36982 0.15218 0.41003 0.0
C367 C 0.40632 0.2003 0.48057 0.0
N368 N 0.40878 0.1727 0.51243 0.0
C369 C 0.45327 0.18921 0.57466 0.0
C370 C 0.45145 0.21775 0.542 0.0
C371 C 0.42767 0.22342 0.49526 0.0
C372 C 0.43094 0.16736 0.559 0.0
H373 H 0.38822 0.20456 0.44428 0.0
C374 C 0.34442 0.1565 0.37978 0.0
O375 O 0.26536 0.15374 0.49512 0.0
O376 O 0.29817 0.19088 0.51677 0.0
N377 N 0.40662 0.12061 0.57645 0.0
C378 C 0.40473 0.09211 0.60421 0.0
C379 C 0.42811 0.08172 0.64723 0.0
C380 C 0.45272 0.10112 0.66316 0.0
C381 C 0.45332 0.13099 0.63729 0.0
C382 C 0.43014 0.1395 0.59192 0.0
H383 H 0.38615 0.07696 0.59162 0.0
O384 O 0.31081 0.14405 0.61291 0.0
O385 O 0.35134 0.15187 0.54899 0.0
O386 O 0.31503 0.10014 0.50308 0.0
O387 O 0.36531 0.09613 0.48213 0.0
C388 C 0.47662 0.15222 0.65253 0.0
C389 C 0.47631 0.18152 0.62206 0.0
H390 H 0.46808 0.2355 0.55262 0.0
H391 H 0.42599 0.24543 0.47013 0.0
H392 H 0.42746 0.05853 0.66655 0.0
H393 H 0.4713 0.0927 0.69438 0.0
H394 H 0.4948 0.14628 0.68775 0.0
H395 H 0.49409 0.19782 0.63481 0.0
Mn396 Mn 0.88534 0.31569 0.51376 0.0
Mn397 Mn 0.89548 0.39206 0.50326 0.0
C398 C 0.88552 0.34465 0.61464 0.0
C399 C 0.85039 0.27486 0.50632 0.0
C400 C 0.94739 0.34549 0.49071 0.0
O401 O 0.87902 0.32498 0.41195 0.0
O402 O 0.8779 0.37633 0.41677 0.0
C403 C 0.83092 0.41166 0.49327 0.0
N404 N 0.85899 0.41419 0.5227 0.0
C405 C 0.84335 0.45796 0.58871 0.0
C406 C 0.81436 0.45614 0.55845 0.0
C407 C 0.80803 0.43267 0.51106 0.0
C408 C 0.86498 0.43599 0.56999 0.0
H409 H 0.82611 0.39373 0.4567 0.0
C410 C 0.87375 0.35107 0.38529 0.0
O411 O 0.87938 0.27057 0.49608 0.0
O412 O 0.84208 0.30248 0.52124 0.0
N413 N 0.91194 0.41184 0.58248 0.0
C414 C 0.94083 0.41 0.6077 0.0
C415 C 0.95177 0.43311 0.65114 0.0
C416 C 0.9326 0.45745 0.66983 0.0
C417 C 0.90241 0.45798 0.64649 0.0
C418 C 0.89326 0.43509 0.60069 0.0
H419 H 0.95585 0.39171 0.59277 0.0
O420 O 0.88948 0.31522 0.61577 0.0
O421 O 0.8805 0.35631 0.55417 0.0
O422 O 0.93201 0.32129 0.50407 0.0
O423 O 0.93502 0.37184 0.48383 0.0
C424 C 0.88139 0.48096 0.66472 0.0
C425 C 0.85168 0.48065 0.63671 0.0
H426 H 0.79675 0.47249 0.5715 0.0
H427 H 0.78564 0.43094 0.48789 0.0
H428 H 0.97515 0.43247 0.66888 0.0
H429 H 0.94142 0.47578 0.70153 0.0
H430 H 0.8878 0.49889 0.7004 0.0
H431 H 0.83555 0.49815 0.6518 0.0
Mn432 Mn 0.7164 0.14563 0.47444 0.0
Mn433 Mn 0.64034 0.13501 0.48671 0.0
C434 C 0.68691 0.14589 0.3746 0.0
C435 C 0.75702 0.18082 0.48157 0.0
C436 C 0.68688 0.08286 0.49461 0.0
O437 O 0.70793 0.15123 0.57671 0.0
O438 O 0.65669 0.15112 0.57417 0.0
C439 C 0.62135 0.19972 0.50266 0.0
N440 N 0.61836 0.17206 0.4712 0.0
C441 C 0.57421 0.18901 0.40866 0.0
C442 C 0.57648 0.21759 0.44115 0.0
C443 C 0.60037 0.22307 0.4878 0.0
C444 C 0.59615 0.16691 0.42457 0.0
H445 H 0.63961 0.20388 0.53861 0.0
C446 C 0.68205 0.15549 0.60473 0.0
O447 O 0.76148 0.15169 0.4907 0.0
O448 O 0.72935 0.18912 0.4679 0.0
N449 N 0.61993 0.12 0.40696 0.0
C450 C 0.62165 0.09159 0.37866 0.0
C451 C 0.59822 0.08141 0.33538 0.0
C452 C 0.57382 0.10097 0.31951 0.0
C453 C 0.57348 0.13079 0.34577 0.0
C454 C 0.59664 0.13907 0.39152 0.0
H455 H 0.64017 0.07641 0.3909 0.0
O456 O 0.71624 0.14211 0.37237 0.0
O457 O 0.67562 0.15062 0.43553 0.0
O458 O 0.71095 0.09869 0.48287 0.0
O459 O 0.66047 0.09492 0.50178 0.0
C460 C 0.55048 0.15224 0.33044 0.0
C461 C 0.55114 0.18154 0.36103 0.0
H462 H 0.56016 0.23553 0.43033 0.0
H463 H 0.60245 0.24514 0.51265 0.0
H464 H 0.5987 0.05826 0.31575 0.0
H465 H 0.55524 0.09274 0.28792 0.0
H466 H 0.53231 0.1465 0.29494 0.0
H467 H 0.53364 0.19803 0.34811 0.0
Mn468 Mn 0.88567 0.7164 0.47631 0.0
Mn469 Mn 0.89573 0.64002 0.48607 0.0
C470 C 0.88579 0.68757 0.37506 0.0
C471 C 0.85124 0.7575 0.48339 0.0
C472 C 0.94764 0.68671 0.49979 0.0
O473 O 0.87892 0.70682 0.57807 0.0
O474 O 0.87806 0.65548 0.57258 0.0
C475 C 0.83119 0.62002 0.49542 0.0
N476 N 0.85928 0.61773 0.46613 0.0
C477 C 0.84377 0.57399 0.39957 0.0
C478 C 0.81475 0.57558 0.42966 0.0
C479 C 0.80834 0.59891 0.47725 0.0
C480 C 0.86535 0.59606 0.41865 0.0
H481 H 0.82631 0.63785 0.53216 0.0
C482 C 0.87368 0.68061 0.60436 0.0
O483 O 0.88024 0.76149 0.49424 0.0
O484 O 0.84257 0.72996 0.46825 0.0
N485 N 0.91227 0.62051 0.40674 0.0
C486 C 0.94119 0.62257 0.38177 0.0
C487 C 0.95221 0.5996 0.33823 0.0
C488 C 0.93311 0.57519 0.31917 0.0
C489 C 0.90288 0.57443 0.34222 0.0
C490 C 0.89365 0.5972 0.38815 0.0
H491 H 0.95616 0.64092 0.39699 0.0
O492 O 0.89003 0.71698 0.37428 0.0
O493 O 0.88068 0.67582 0.43543 0.0
O494 O 0.93227 0.71085 0.48662 0.0
O495 O 0.93527 0.6603 0.5061 0.0
C496 C 0.88192 0.55137 0.32362 0.0
C497 C 0.85218 0.55145 0.3514 0.0
H498 H 0.79719 0.55914 0.41632 0.0
H499 H 0.78594 0.60044 0.5003 0.0
H500 H 0.97561 0.60041 0.3207 0.0
H501 H 0.942 0.55696 0.2874 0.0
H502 H 0.88839 0.53354 0.28782 0.0
H503 H 0.8361 0.53388 0.33602 0.0
Mn504 Mn 0.31061 0.88723 0.48412 0.0
Mn505 Mn 0.3864 0.89905 0.4982 0.0
C506 C 0.34052 0.88726 0.38484 0.0
C507 C 0.27061 0.85135 0.49098 0.0
C508 C 0.33895 0.95044 0.50484 0.0
O509 O 0.31883 0.88217 0.58681 0.0
O510 O 0.37007 0.88263 0.58513 0.0
C511 C 0.40668 0.83478 0.51463 0.0
N512 N 0.40906 0.86241 0.4828 0.0
C513 C 0.45353 0.84621 0.42048 0.0
C514 C 0.45175 0.81761 0.45294 0.0
C515 C 0.42803 0.81178 0.49974 0.0
C516 C 0.43118 0.86791 0.43623 0.0
H517 H 0.38867 0.83042 0.5511 0.0
C518 C 0.34468 0.87818 0.61529 0.0
O519 O 0.26561 0.88044 0.49951 0.0
O520 O 0.29846 0.84347 0.47803 0.0
N521 N 0.40683 0.91457 0.41908 0.0
C522 C 0.40503 0.94319 0.3919 0.0
C523 C 0.42853 0.95384 0.34951 0.0
C524 C 0.45314 0.93459 0.33347 0.0
C525 C 0.45363 0.9046 0.35862 0.0
C526 C 0.43036 0.89582 0.40355 0.0
H527 H 0.38646 0.95823 0.4046 0.0
O528 O 0.31112 0.89039 0.3819 0.0
O529 O 0.35162 0.88287 0.4461 0.0
O530 O 0.31519 0.93434 0.49184 0.0
O531 O 0.36542 0.93866 0.5133 0.0
C532 C 0.47694 0.88351 0.34325 0.0
C533 C 0.47659 0.85411 0.37327 0.0
H534 H 0.46839 0.79996 0.44221 0.0
H535 H 0.42641 0.78974 0.5248 0.0
H536 H 0.42797 0.97713 0.33082 0.0
H537 H 0.47182 0.94324 0.30284 0.0
H538 H 0.49517 0.88963 0.30831 0.0
H539 H 0.49438 0.83792 0.36044 0.0
Mn540 Mn 0.14314 0.31819 0.47176 0.0
Mn541 Mn 0.13198 0.39444 0.48053 0.0
C542 C 0.14244 0.34671 0.37012 0.0
C543 C 0.17807 0.27754 0.47919 0.0
C544 C 0.08073 0.3471 0.49478 0.0
O545 O 0.15009 0.32814 0.5733 0.0
O546 O 0.14971 0.37945 0.56732 0.0
C547 C 0.19626 0.41523 0.49038 0.0
N548 N 0.16821 0.41707 0.46066 0.0
C549 C 0.1833 0.46082 0.39385 0.0
C550 C 0.21228 0.45966 0.42426 0.0
C551 C 0.21889 0.43655 0.47221 0.0
C552 C 0.16197 0.43852 0.41285 0.0
H553 H 0.20128 0.39762 0.52754 0.0
C554 C 0.15476 0.35453 0.59937 0.0
O555 O 0.14913 0.27327 0.49029 0.0
O556 O 0.18641 0.30511 0.46348 0.0
N557 N 0.11529 0.41357 0.40091 0.0
C558 C 0.08634 0.41127 0.37611 0.0
C559 C 0.07505 0.43414 0.33272 0.0
C560 C 0.0939 0.45872 0.31364 0.0
C561 C 0.12418 0.45971 0.33643 0.0
C562 C 0.13369 0.43703 0.38223 0.0
H563 H 0.07155 0.3928 0.39141 0.0
O564 O 0.13854 0.31725 0.36976 0.0
O565 O 0.14752 0.35871 0.43031 0.0
O566 O 0.09649 0.32313 0.48237 0.0
O567 O 0.09267 0.37374 0.50041 0.0
C568 C 0.1449 0.48298 0.31781 0.0
C569 C 0.17465 0.48321 0.3456 0.0
H570 H 0.22966 0.47629 0.41099 0.0
H571 H 0.24126 0.43537 0.49558 0.0
H572 H 0.05163 0.43314 0.31526 0.0
H573 H 0.08478 0.47687 0.28196 0.0
H574 H 0.13821 0.50073 0.28207 0.0
H575 H 0.19053 0.50096 0.33027 0.0
C576 C 0.1644 0.53328 -0.00063 0.0
C577 C 0.19186 0.55 0.0017 0.0
H578 H 0.14234 0.49022 0.99 0.0
C579 C 0.21947 0.5335 -0.00118 0.0
H580 H 0.14252 0.54468 0.0016 0.0
C581 C 0.21936 0.50118 -0.00546 0.0
C582 C 0.19162 0.48476 0.99108 0.0
H583 H 0.2411 0.5455 0.0002 0.0
H584 H 0.2409 0.48911 -0.00627 0.0
C585 C 0.16429 0.50156 0.99267 0.0
C586 C 0.49842 0.16105 -0.00587 0.0
C587 C 0.48178 0.18854 -0.00396 0.0
H588 H 0.54142 0.13913 0.9865 0.0
C589 C 0.49822 0.21632 -0.00568 0.0
H590 H 0.48701 0.13906 -0.00458 0.0
C591 C 0.53043 0.21636 0.9915 0.0
C592 C 0.5468 0.18862 0.98842 0.0
H593 H 0.48626 0.23797 -0.00464 0.0
H594 H 0.54246 0.23803 0.99161 0.0
C595 C 0.53007 0.1611 0.98886 0.0
C596 C 0.8119 0.49952 -0.00376 0.0
C597 C 0.83959 0.48317 -0.00128 0.0
H598 H 0.79023 0.54378 0.99292 0.0
C599 C 0.86698 0.50002 -0.00223 0.0
H600 H 0.79033 0.48741 -0.00342 0.0
C601 C 0.86693 0.5318 0.99275 0.0
C602 C 0.83949 0.54842 0.99142 0.0
H603 H 0.8889 0.48867 -0.00034 0.0
H604 H 0.88881 0.54333 0.99112 0.0
C605 C 0.81185 0.53184 -0.00643 0.0
C606 C 0.53207 0.87353 0.01218 0.0
C607 C 0.54818 0.84582 0.00734 0.0
H608 H 0.48932 0.89636 0.00967 0.0
C609 C 0.53116 0.81852 0.00046 0.0
H610 H 0.54396 0.8951 0.01831 0.0
C611 C 0.49899 0.81913 -0.00169 0.0
C612 C 0.48312 0.84711 0.00109 0.0
H613 H 0.54266 0.79668 -0.00356 0.0
H614 H 0.48662 0.79774 -0.00618 0.0
C615 C 0.50033 0.87423 0.00742 0.0
C616 C 0.66111 0.03165 0.48699 0.0
C617 C 0.68831 0.0486 0.49388 0.0
H618 H 0.63986 0.98818 0.47483 0.0
C619 C 0.71603 0.03236 0.49627 0.0
H620 H 0.63917 0.04292 0.4851 0.0
C621 C 0.71629 1.00008 0.49347 0.0
C622 C 0.6889 0.98333 0.48618 0.0
H623 H 0.73746 0.04454 0.50119 0.0
H624 H 0.73792 0.98829 0.49741 0.0
C625 C 0.66148 0.99983 0.4814 0.0
C626 C 0.99836 0.71566 0.49976 0.0
C627 C 0.98178 0.68795 0.50155 0.0
H628 H 0.04268 0.73718 0.49772 0.0
C629 C 0.9983 0.66038 0.50056 0.0
H630 H 0.98649 0.73736 0.50012 0.0
C631 C 0.03001 0.66028 0.49636 0.0
C632 C 0.04685 0.68774 0.49576 0.0
H633 H 0.98676 0.63846 0.50186 0.0
H634 H 0.04131 0.63827 0.49485 0.0
C635 C 0.03057 0.71555 0.49778 0.0
C636 C 0.36474 0.03323 0.49438 0.0
C637 C 0.33734 0.04989 0.49174 0.0
H638 H 0.38668 0.99028 0.5049 0.0
C639 C 0.30967 0.03337 0.49487 0.0
H640 H 0.38666 0.04465 0.49195 0.0
C641 C 0.30969 1.00107 0.49971 0.0
C642 C 0.33737 0.98472 0.50361 0.0
H643 H 0.28808 0.04534 0.49327 0.0
H644 H 0.28811 0.98897 0.50065 0.0
C645 C 0.36476 1.00156 0.50183 0.0
C646 C 0.03045 0.31736 0.49473 0.0
C647 C 0.0466 0.34533 0.4963 0.0
H648 H 0.98647 0.29515 0.4923 0.0
C649 C 0.02965 0.37263 0.49467 0.0
H650 H 0.04265 0.29585 0.49559 0.0
C651 C 0.99796 0.37222 0.48992 0.0
C652 C 0.98155 0.3445 0.48944 0.0
H653 H 0.04085 0.39474 0.49582 0.0
H654 H 0.98634 0.39405 0.48783 0.0
C655 C 0.99824 0.31696 0.49224 0.0
C656 C 0.3137 0.33579 -0.00369 0.0
C657 C 0.28252 0.32808 -0.00196 0.0
H658 H 0.35988 0.31932 0.98996 0.0
C659 C 0.27423 0.29705 -0.00634 0.0
H660 H 0.32084 0.35949 -0.00033 0.0
C661 C 0.29636 0.27429 0.98735 0.0
C662 C 0.32754 0.28178 0.98607 0.0
H663 H 0.25046 0.29021 -0.0054 0.0
H664 H 0.28892 0.25068 0.98397 0.0
C665 C 0.33604 0.3128 0.9909 0.0
C666 C 0.75534 0.29616 0.99141 0.0
C667 C 0.74743 0.32728 0.98804 0.0
H668 H 0.74008 0.24988 0.00014 0.0
C669 C 0.71636 0.33524 0.99058 0.0
H670 H 0.77902 0.28913 0.98982 0.0
C671 C 0.69374 0.31243 -0.00423 0.0
C672 C 0.70186 0.28132 -0.00039 0.0
H673 H 0.70952 0.35902 0.98799 0.0
H674 H 0.66999 0.31915 -0.00265 0.0
C675 C 0.73294 0.27357 -0.00247 0.0
C676 C 0.71499 0.69461 0.00034 0.0
C677 C 0.74604 0.70289 0.00271 0.0
H678 H 0.66849 0.71031 -0.0063 0.0
C679 C 0.75378 0.73406 -0.00056 0.0
H680 H 0.7083 0.67076 0.00289 0.0
C681 C 0.73127 0.7564 -0.00654 0.0
C682 C 0.70022 0.74838 0.99138 0.0
H683 H 0.7774 0.74135 0.00093 0.0
H684 H 0.73836 0.78014 0.99088 0.0
C685 C 0.69222 0.71721 -0.00473 0.0
C686 C 0.31472 0.69935 -0.00196 0.0
C687 C 0.28353 0.70693 -0.00361 0.0
H688 H 0.36092 0.716 0.00443 0.0
C689 C 0.27526 0.73793 0.00102 0.0
H690 H 0.32184 0.67569 -0.00551 0.0
C691 C 0.29741 0.76077 0.00746 0.0
C692 C 0.32859 0.75342 0.00865 0.0
H693 H 0.2515 0.74468 0.00016 0.0
H694 H 0.28998 0.78434 0.01103 0.0
C695 C 0.33707 0.72242 0.00358 0.0
C696 C 0.79734 0.77525 0.49178 0.0
C697 C 0.82852 0.78259 0.48936 0.0
H698 H 0.75158 0.79136 0.49972 0.0
C699 C 0.83718 0.81363 0.49256 0.0
H700 H 0.78978 0.75165 0.48964 0.0
C701 C 0.81495 0.83677 0.4976 0.0
C702 C 0.78376 0.82917 0.50066 0.0
H703 H 0.86104 0.82003 0.49067 0.0
H704 H 0.82216 0.86047 0.49983 0.0
C705 C 0.77535 0.79813 0.49778 0.0
C706 C 0.25457 0.79669 0.50172 0.0
C707 C 0.24631 0.82769 0.49717 0.0
H708 H 0.23982 0.75028 0.51126 0.0
C709 C 0.21513 0.83528 0.49849 0.0
H710 H 0.27834 0.78994 0.5011 0.0
C711 C 0.19276 0.81223 0.50362 0.0
C712 C 0.20123 0.78123 0.5086 0.0
H713 H 0.20802 0.85895 0.49498 0.0
H714 H 0.16892 0.81866 0.50422 0.0
C715 C 0.23241 0.77386 0.50776 0.0
C716 C 0.25434 0.23743 0.49279 0.0
C717 C 0.24605 0.2064 0.49725 0.0
H718 H 0.23962 0.28379 0.48314 0.0
C719 C 0.21487 0.19868 0.49564 0.0
H720 H 0.2781 0.24427 0.49362 0.0
C721 C 0.19253 0.22166 0.49032 0.0
C722 C 0.20102 0.25268 0.48545 0.0
H723 H 0.20775 0.17499 0.49908 0.0
H724 H 0.16868 0.21513 0.48951 0.0
C725 C 0.2322 0.26018 0.48656 0.0
C726 C 0.83536 0.21895 0.49592 0.0
C727 C 0.82724 0.25007 0.49984 0.0
H728 H 0.81954 0.17237 0.48789 0.0
C729 C 0.79617 0.25782 0.49768 0.0
H730 H 0.85911 0.21224 0.49754 0.0
C731 C 0.77376 0.23526 0.49144 0.0
C732 C 0.78164 0.20413 0.48797 0.0
H733 H 0.789 0.2815 0.50033 0.0
H734 H 0.75011 0.24233 0.48983 0.0
C735 C 0.81272 0.19614 0.49055 0.0
C736 C 0.13703 0.35031 0.24292 0.0
C737 C 0.1489 0.36242 0.30431 0.0
H738 H 0.14256 0.34638 0.13436 0.0
C739 C 0.17204 0.38454 0.30014 0.0
H740 H 0.12032 0.33202 0.24422 0.0
C741 C 0.18234 0.39513 0.23651 0.0
C742 C 0.17138 0.38212 0.17525 0.0
H743 H 0.18418 0.39165 0.34554 0.0
H744 H 0.2008 0.41165 0.23541 0.0
C745 C 0.14898 0.35925 0.17938 0.0
C746 C 0.68138 0.13856 0.24858 0.0
C747 C 0.67025 0.15142 0.30973 0.0
H748 H 0.68386 0.14251 0.13975 0.0
C749 C 0.64812 0.17445 0.30544 0.0
H750 H 0.69968 0.12193 0.24987 0.0
C751 C 0.63652 0.18364 0.2418 0.0
C752 C 0.64858 0.17167 0.18058 0.0
H753 H 0.64167 0.18724 0.35047 0.0
H754 H 0.61999 0.20202 0.24037 0.0
C755 C 0.67151 0.14946 0.18492 0.0
C756 C 0.89141 0.68343 0.24805 0.0
C757 C 0.87935 0.67164 0.30945 0.0
H758 H 0.88613 0.68686 0.13944 0.0
C759 C 0.8562 0.64954 0.30534 0.0
H760 H 0.90807 0.70178 0.24922 0.0
C761 C 0.84626 0.63845 0.24176 0.0
C762 C 0.85751 0.65105 0.18041 0.0
H763 H 0.84381 0.64279 0.3506 0.0
H764 H 0.82787 0.62185 0.24069 0.0
C765 C 0.87971 0.67412 0.18452 0.0
C766 C 0.34682 0.89548 0.25923 0.0
C767 C 0.35764 0.88229 0.32033 0.0
H768 H 0.34529 0.89243 0.15009 0.0
C769 C 0.38004 0.85952 0.31601 0.0
H770 H 0.32838 0.91194 0.26046 0.0
C771 C 0.39214 0.85086 0.25245 0.0
C772 C 0.3804 0.86313 0.19117 0.0
H773 H 0.38637 0.84655 0.36087 0.0
H774 H 0.40884 0.83263 0.25099 0.0
C775 C 0.35729 0.88517 0.19549 0.0
C776 C 0.13739 0.68395 0.75108 0.0
C777 C 0.14906 0.67163 0.68977 0.0
H778 H 0.1433 0.68838 0.85948 0.0
C779 C 0.1722 0.64962 0.6941 0.0
H780 H 0.12067 0.70217 0.74963 0.0
C781 C 0.18273 0.63936 0.75782 0.0
C782 C 0.17197 0.65259 0.81893 0.0
H783 H 0.18421 0.64238 0.64872 0.0
H784 H 0.20118 0.62291 0.75902 0.0
C785 C 0.14957 0.67536 0.81463 0.0
C786 C 0.34624 0.13947 0.73587 0.0
C787 C 0.35722 0.15255 0.67479 0.0
H788 H 0.34431 0.14287 0.84488 0.0
C789 C 0.37962 0.17541 0.67918 0.0
H790 H 0.32779 0.12294 0.73455 0.0
C791 C 0.39154 0.18429 0.74284 0.0
C792 C 0.37961 0.17214 0.80405 0.0
H793 H 0.38606 0.1883 0.63428 0.0
H794 H 0.40824 0.20259 0.74437 0.0
C795 C 0.35649 0.15001 0.79962 0.0
C796 C 0.84644 0.39369 0.74804 0.0
C797 C 0.85787 0.38111 0.80921 0.0
H798 H 0.84373 0.38937 0.63922 0.0
C799 C 0.88019 0.35826 0.80488 0.0
H800 H 0.82797 0.41012 0.74937 0.0
C801 C 0.89176 0.34907 0.74127 0.0
C802 C 0.87943 0.36074 0.68005 0.0
H803 H 0.88677 0.34554 0.84986 0.0
H804 H 0.90847 0.33084 0.7399 0.0
C805 C 0.85625 0.3827 0.68436 0.0
C806 C 0.64083 0.88001 0.7761 0.0
C807 C 0.65459 0.85536 0.8097 0.0
H808 H 0.6457 0.91401 0.69851 0.0
C809 C 0.67945 0.84092 0.77779 0.0
H810 H 0.61981 0.88945 0.79433 0.0
C811 C 0.69033 0.85127 0.71443 0.0
C812 C 0.67746 0.87709 0.68286 0.0
H813 H 0.69021 0.82126 0.80145 0.0
H814 H 0.70919 0.83932 0.69052 0.0
C815 C 0.65389 0.89241 0.71679 0.0
C816 C 0.87397 0.69713 0.72734 0.0
C817 C 0.86231 0.67822 0.67543 0.0
H818 H 0.87795 0.70462 0.83562 0.0
C819 C 0.84187 0.65457 0.69303 0.0
H820 H 0.8898 0.71541 0.71517 0.0
C821 C 0.83444 0.64892 0.76161 0.0
C822 C 0.84799 0.66631 0.81373 0.0
H823 H 0.83246 0.63967 0.65395 0.0
H824 H 0.81982 0.62969 0.77408 0.0
C825 C 0.86722 0.6909 0.79611 0.0
C826 C 0.33757 0.88975 0.73872 0.0
C827 C 0.34641 0.8691 0.68766 0.0
H828 H 0.34026 0.90186 0.84475 0.0
C829 C 0.3622 0.84235 0.70609 0.0
H830 H 0.32585 0.91073 0.72534 0.0
C831 C 0.37015 0.83692 0.7746 0.0
C832 C 0.36321 0.85868 0.82519 0.0
H833 H 0.36942 0.82625 0.66712 0.0
H834 H 0.3832 0.81667 0.78725 0.0
C835 C 0.34615 0.88474 0.80683 0.0
C836 C 0.18459 0.3829 0.68823 0.0
C837 C 0.16661 0.35735 0.67013 0.0
H838 H 0.20523 0.40884 0.76961 0.0
C839 C 0.15827 0.33635 0.72121 0.0
H840 H 0.19152 0.39942 0.64989 0.0
C841 C 0.16576 0.34213 0.78987 0.0
C842 C 0.18245 0.36845 0.80802 0.0
H843 H 0.14445 0.31653 0.70875 0.0
H844 H 0.15752 0.32664 0.82905 0.0
C845 C 0.19272 0.38822 0.75655 0.0
C846 C 0.65571 0.19692 0.76343 0.0
C847 C 0.66625 0.17724 0.81497 0.0
H848 H 0.65254 0.20515 0.65534 0.0
C849 C 0.68554 0.15275 0.79705 0.0
H850 H 0.6408 0.21587 0.77585 0.0
C851 C 0.69286 0.14708 0.72845 0.0
C852 C 0.68039 0.16536 0.67669 0.0
H853 H 0.69411 0.13728 0.83588 0.0
H854 H 0.70655 0.12726 0.71562 0.0
C855 C 0.66237 0.19073 0.69463 0.0
C856 C 0.8764 0.33558 0.26218 0.0
C857 C 0.86282 0.3531 0.31398 0.0
H858 H 0.88218 0.32934 0.154 0.0
C859 C 0.84099 0.37531 0.29615 0.0
H860 H 0.89337 0.31847 0.27466 0.0
C861 C 0.83396 0.38098 0.22737 0.0
C862 C 0.84934 0.36512 0.17547 0.0
H863 H 0.83014 0.38909 0.33528 0.0
H864 H 0.81811 0.39912 0.21475 0.0
C865 C 0.87005 0.34188 0.19332 0.0
C866 C 0.69059 0.87292 0.19453 0.0
C867 C 0.66804 0.85132 0.17666 0.0
H868 H 0.71405 0.89645 0.27585 0.0
C869 C 0.65363 0.83461 0.22882 0.0
H870 H 0.70209 0.88611 0.15519 0.0
C871 C 0.65996 0.84111 0.29777 0.0
C872 C 0.68145 0.86376 0.31568 0.0
H873 H 0.63607 0.81802 0.21648 0.0
H874 H 0.6472 0.82919 0.33718 0.0
C875 C 0.69757 0.87877 0.26346 0.0
C876 C 0.18474 0.65046 0.30582 0.0
C877 C 0.16731 0.67628 0.32418 0.0
H878 H 0.20504 0.62452 0.22421 0.0
C879 C 0.15977 0.69775 0.27347 0.0
H880 H 0.19109 0.63359 0.34388 0.0
C881 C 0.16746 0.69221 0.20488 0.0
C882 C 0.18354 0.66564 0.18642 0.0
H883 H 0.14642 0.71781 0.28613 0.0
H884 H 0.15981 0.7081 0.16592 0.0
C885 C 0.19303 0.64534 0.23756 0.0
C886 C 0.36266 0.19226 0.28943 0.0
C887 C 0.34606 0.16592 0.30758 0.0
H888 H 0.38386 0.21786 0.20833 0.0
C889 C 0.33579 0.14609 0.25613 0.0
H890 H 0.37088 0.20781 0.32861 0.0
C891 C 0.34384 0.15139 0.18781 0.0
C892 C 0.36177 0.17696 0.16972 0.0
H893 H 0.32333 0.12546 0.26922 0.0
H894 H 0.3369 0.13484 0.14945 0.0
C895 C 0.37009 0.19801 0.22079 0.0
loop_
_geom_bond_atom_site_label_1
_geom_bond_atom_site_label_2
_geom_bond_distance
_geom_bond_site_symmetry_2
_ccdc_geom_bond_type
Mn0 O5 2.095 1_554 S
Mn0 O15 2.162 . S
Mn0 O16 2.297 . S
Mn0 O24 2.385 . S
Mn0 O25 2.209 . S
Mn0 O26 2.094 . S
Mn1 O6 2.121 1_554 S
Mn1 N8 2.257 . S
Mn1 N17 2.282 . S
Mn1 O25 2.215 . S
Mn1 O27 2.117 . S
C2 O24 1.234 . S
C2 O25 1.283 . S
C3 O15 1.281 . S
C3 O16 1.236 . S
C4 O26 1.240 . S
C4 O27 1.264 . S
O5 Mn0 2.095 1_556 S
O5 C14 1.250 . S
O6 Mn1 2.121 1_556 S
O6 C14 1.258 . S
C7 N8 1.320 1_556 S
C7 C11 1.457 1_556 S
C7 H13 0.938 . S
N8 Mn1 2.257 . S
N8 C7 1.320 1_554 S
N8 C12 1.362 . S
C9 C10 1.258 . S
C9 C12 1.431 . S
C9 C29 1.449 . S
C10 C9 1.258 . S
C10 C11 1.477 . S
C10 H30 0.931 . S
C11 C7 1.457 1_554 S
C11 C10 1.477 . S
C11 H31 0.930 1_554 S
C12 N8 1.362 . S
C12 C9 1.431 . S
C12 C22 1.476 . S
H13 C7 0.938 . S
C14 O5 1.250 . S
C14 O6 1.258 . S
O15 Mn0 2.162 . S
O15 C3 1.281 . S
O16 Mn0 2.297 . S
O16 C3 1.236 . S
N17 Mn1 2.282 . S
N17 C18 1.328 . S
N17 C22 1.318 . S
C18 N17 1.328 . S
C18 C19 1.457 . S
C18 H23 0.929 . S
C19 C18 1.457 . S
C19 C20 1.291 . S
C19 H32 0.931 . S
C20 C19 1.291 . S
C20 C21 1.373 . S
C20 H33 0.929 . S
C21 C20 1.373 . S
C21 C22 1.396 . S
C21 C28 1.403 . S
C22 C12 1.476 . S
C22 N17 1.318 . S
C22 C21 1.396 . S
H23 C18 0.929 . S
O24 Mn0 2.385 . S
O24 C2 1.234 . S
O25 Mn0 2.209 . S
O25 Mn1 2.215 . S
O25 C2 1.283 . S
O26 Mn0 2.094 . S
O26 C4 1.240 . S
O27 Mn1 2.117 . S
O27 C4 1.264 . S
C28 C21 1.403 . S
C28 C29 1.399 . S
C28 H34 0.929 . S
C29 C9 1.449 . S
C29 C28 1.399 . S
C29 H35 0.930 . S
H30 C10 0.931 . S
H31 C11 0.930 1_556 S
H32 C19 0.931 . S
H33 C20 0.929 . S
H34 C28 0.929 . S
H35 C29 0.930 . S
Mn36 O41 2.095 1_554 S
Mn36 O51 2.162 . S
Mn36 O52 2.297 . S
Mn36 O60 2.385 . S
Mn36 O61 2.209 . S
Mn36 O62 2.094 . S
Mn37 O42 2.121 1_554 S
Mn37 N44 2.257 . S
Mn37 N53 2.282 . S
Mn37 O61 2.215 . S
Mn37 O63 2.117 . S
C38 O60 1.234 . S
C38 O61 1.283 . S
C39 O51 1.281 . S
C39 O52 1.236 . S
C40 O62 1.240 . S
C40 O63 1.264 . S
O41 Mn36 2.095 1_556 S
O41 C50 1.250 . S
O42 Mn37 2.121 1_556 S
O42 C50 1.258 . S
C43 N44 1.320 1_556 S
C43 C47 1.457 1_556 S
C43 H49 0.938 . S
N44 Mn37 2.257 . S
N44 C43 1.320 1_554 S
N44 C48 1.362 . S
C45 C46 1.258 . S
C45 C48 1.431 . S
C45 C65 1.449 . S
C46 C45 1.258 . S
C46 C47 1.477 . S
C46 H66 0.931 . S
C47 C43 1.457 1_554 S
C47 C46 1.477 . S
C47 H67 0.930 1_554 S
C48 N44 1.362 . S
C48 C45 1.431 . S
C48 C58 1.476 . S
H49 C43 0.938 . S
C50 O41 1.250 . S
C50 O42 1.258 . S
O51 Mn36 2.162 . S
O51 C39 1.281 . S
O52 Mn36 2.297 . S
O52 C39 1.236 . S
N53 Mn37 2.282 . S
N53 C54 1.328 . S
N53 C58 1.318 . S
C54 N53 1.328 . S
C54 C55 1.457 . S
C54 H59 0.929 . S
C55 C54 1.457 . S
C55 C56 1.291 . S
C55 H68 0.931 . S
C56 C55 1.291 . S
C56 C57 1.373 . S
C56 H69 0.929 . S
C57 C56 1.373 . S
C57 C58 1.396 . S
C57 C64 1.403 . S
C58 C48 1.476 . S
C58 N53 1.318 . S
C58 C57 1.396 . S
H59 C54 0.929 . S
O60 Mn36 2.385 . S
O60 C38 1.234 . S
O61 Mn36 2.209 . S
O61 Mn37 2.215 . S
O61 C38 1.283 . S
O62 Mn36 2.094 . S
O62 C40 1.240 . S
O63 Mn37 2.117 . S
O63 C40 1.264 . S
C64 C57 1.403 . S
C64 C65 1.399 . S
C64 H70 0.929 . S
C65 C45 1.449 . S
C65 C64 1.399 . S
C65 H71 0.930 . S
H66 C46 0.931 . S
H67 C47 0.930 1_556 S
H68 C55 0.931 . S
H69 C56 0.929 . S
H70 C64 0.929 . S
H71 C65 0.930 . S
Mn72 O77 2.095 1_554 S
Mn72 O87 2.162 . S
Mn72 O88 2.297 . S
Mn72 O96 2.385 . S
Mn72 O97 2.209 . S
Mn72 O98 2.094 . S
Mn73 O78 2.121 1_554 S
Mn73 N80 2.257 . S
Mn73 N89 2.282 . S
Mn73 O97 2.215 . S
Mn73 O99 2.117 . S
C74 O96 1.234 . S
C74 O97 1.283 . S
C75 O87 1.281 . S
C75 O88 1.236 . S
C76 O98 1.240 . S
C76 O99 1.264 . S
O77 Mn72 2.095 1_556 S
O77 C86 1.250 . S
O78 Mn73 2.121 1_556 S
O78 C86 1.258 . S
C79 N80 1.320 1_556 S
C79 C83 1.457 1_556 S
C79 H85 0.938 . S
N80 Mn73 2.257 . S
N80 C79 1.320 1_554 S
N80 C84 1.362 . S
C81 C82 1.258 . S
C81 C84 1.431 . S
C81 C101 1.449 . S
C82 C81 1.258 . S
C82 C83 1.477 . S
C82 H102 0.931 . S
C83 C79 1.457 1_554 S
C83 C82 1.477 . S
C83 H103 0.930 1_554 S
C84 N80 1.362 . S
C84 C81 1.431 . S
C84 C94 1.476 . S
H85 C79 0.938 . S
C86 O77 1.250 . S
C86 O78 1.258 . S
O87 Mn72 2.162 . S
O87 C75 1.281 . S
O88 Mn72 2.297 . S
O88 C75 1.236 . S
N89 Mn73 2.282 . S
N89 C90 1.328 . S
N89 C94 1.318 . S
C90 N89 1.328 . S
C90 C91 1.457 . S
C90 H95 0.929 . S
C91 C90 1.457 . S
C91 C92 1.291 . S
C91 H104 0.931 . S
C92 C91 1.291 . S
C92 C93 1.373 . S
C92 H105 0.929 . S
C93 C92 1.373 . S
C93 C94 1.396 . S
C93 C100 1.403 . S
C94 C84 1.476 . S
C94 N89 1.318 . S
C94 C93 1.396 . S
H95 C90 0.929 . S
O96 Mn72 2.385 . S
O96 C74 1.234 . S
O97 Mn72 2.209 . S
O97 Mn73 2.215 . S
O97 C74 1.283 . S
O98 Mn72 2.094 . S
O98 C76 1.240 . S
O99 Mn73 2.117 . S
O99 C76 1.264 . S
C100 C93 1.403 . S
C100 C101 1.399 . S
C100 H106 0.929 . S
C101 C81 1.449 . S
C101 C100 1.399 . S
C101 H107 0.930 . S
H102 C82 0.931 . S
H103 C83 0.930 1_556 S
H104 C91 0.931 . S
H105 C92 0.929 . S
H106 C100 0.929 . S
H107 C101 0.930 . S
Mn108 O113 2.095 1_554 S
Mn108 O123 2.162 . S
Mn108 O124 2.297 . S
Mn108 O132 2.385 . S
Mn108 O133 2.209 . S
Mn108 O134 2.094 . S
Mn109 O114 2.121 1_554 S
Mn109 N116 2.257 . S
Mn109 N125 2.282 . S
Mn109 O133 2.215 . S
Mn109 O135 2.117 . S
C110 O132 1.234 . S
C110 O133 1.283 . S
C111 O123 1.281 . S
C111 O124 1.236 . S
C112 O134 1.240 . S
C112 O135 1.264 . S
O113 Mn108 2.095 1_556 S
O113 C122 1.250 . S
O114 Mn109 2.121 1_556 S
O114 C122 1.258 . S
C115 N116 1.320 1_556 S
C115 C119 1.457 1_556 S
C115 H121 0.938 . S
N116 Mn109 2.257 . S
N116 C115 1.320 1_554 S
N116 C120 1.362 . S
C117 C118 1.258 . S
C117 C120 1.431 . S
C117 C137 1.449 . S
C118 C117 1.258 . S
C118 C119 1.477 . S
C118 H138 0.931 . S
C119 C115 1.457 1_554 S
C119 C118 1.477 . S
C119 H139 0.930 1_554 S
C120 N116 1.362 . S
C120 C117 1.431 . S
C120 C130 1.476 . S
H121 C115 0.938 . S
C122 O113 1.250 . S
C122 O114 1.258 . S
O123 Mn108 2.162 . S
O123 C111 1.281 . S
O124 Mn108 2.297 . S
O124 C111 1.236 . S
N125 Mn109 2.282 . S
N125 C126 1.328 . S
N125 C130 1.318 . S
C126 N125 1.328 . S
C126 C127 1.457 . S
C126 H131 0.929 . S
C127 C126 1.457 . S
C127 C128 1.291 . S
C127 H140 0.931 . S
C128 C127 1.291 . S
C128 C129 1.373 . S
C128 H141 0.929 . S
C129 C128 1.373 . S
C129 C130 1.396 . S
C129 C136 1.403 . S
C130 C120 1.476 . S
C130 N125 1.318 . S
C130 C129 1.396 . S
H131 C126 0.929 . S
O132 Mn108 2.385 . S
O132 C110 1.234 . S
O133 Mn108 2.209 . S
O133 Mn109 2.215 . S
O133 C110 1.283 . S
O134 Mn108 2.094 . S
O134 C112 1.240 . S
O135 Mn109 2.117 . S
O135 C112 1.264 . S
C136 C129 1.403 . S
C136 C137 1.399 . S
C136 H142 0.929 . S
C137 C117 1.449 . S
C137 C136 1.399 . S
C137 H143 0.930 . S
H138 C118 0.931 . S
H139 C119 0.930 1_556 S
H140 C127 0.931 . S
H141 C128 0.929 . S
H142 C136 0.929 . S
H143 C137 0.930 . S
Mn144 O149 2.095 1_556 S
Mn144 O159 2.162 1_556 S
Mn144 O160 2.297 . S
Mn144 O168 2.385 . S
Mn144 O169 2.209 . S
Mn144 O170 2.094 . S
Mn145 O150 2.121 1_556 S
Mn145 N152 2.257 . S
Mn145 N161 2.282 . S
Mn145 O169 2.215 . S
Mn145 O171 2.117 . S
C146 O168 1.234 . S
C146 O169 1.283 . S
C147 O159 1.281 . S
C147 O160 1.235 1_554 S
C148 O170 1.240 . S
C148 O171 1.264 . S
O149 Mn144 2.095 1_554 S
O149 C158 1.250 . S
O150 Mn145 2.121 1_554 S
O150 C158 1.258 . S
C151 N152 1.326 1_554 S
C151 C155 1.460 1_554 S
C151 H157 0.929 . S
N152 Mn145 2.257 . S
N152 C151 1.326 1_556 S
N152 C156 1.362 . S
C153 C154 1.258 . S
C153 C156 1.431 . S
C153 C173 1.449 . S
C154 C153 1.258 . S
C154 C155 1.477 . S
C154 H174 0.931 . S
C155 C151 1.460 1_556 S
C155 C154 1.477 . S
C155 H175 0.930 1_556 S
C156 N152 1.362 . S
C156 C153 1.431 . S
C156 C166 1.476 . S
H157 C151 0.929 . S
C158 O149 1.250 . S
C158 O150 1.258 . S
O159 Mn144 2.162 1_554 S
O159 C147 1.281 . S
O160 Mn144 2.297 . S
O160 C147 1.235 1_556 S
N161 Mn145 2.282 . S
N161 C162 1.328 . S
N161 C166 1.318 . S
C162 N161 1.328 . S
C162 C163 1.457 . S
C162 H167 0.929 . S
C163 C162 1.457 . S
C163 C164 1.291 . S
C163 H176 0.931 . S
C164 C163 1.291 . S
C164 C165 1.373 . S
C164 H177 0.929 . S
C165 C164 1.373 . S
C165 C166 1.396 . S
C165 C172 1.403 . S
C166 C156 1.476 . S
C166 N161 1.318 . S
C166 C165 1.396 . S
H167 C162 0.929 . S
O168 Mn144 2.385 . S
O168 C146 1.234 . S
O169 Mn144 2.209 . S
O169 Mn145 2.215 . S
O169 C146 1.283 . S
O170 Mn144 2.094 . S
O170 C148 1.240 . S
O171 Mn145 2.117 . S
O171 C148 1.264 . S
C172 C165 1.403 . S
C172 C173 1.399 . S
C172 H178 0.929 . S
C173 C153 1.449 . S
C173 C172 1.399 . S
C173 H179 0.930 . S
H174 C154 0.931 . S
H175 C155 0.930 1_554 S
H176 C163 0.931 . S
H177 C164 0.929 . S
H178 C172 0.929 . S
H179 C173 0.930 . S
Mn180 O185 2.095 1_556 S
Mn180 O195 2.162 1_556 S
Mn180 O196 2.297 . S
Mn180 O204 2.385 . S
Mn180 O205 2.209 . S
Mn180 O206 2.094 . S
Mn181 O186 2.121 1_556 S
Mn181 N188 2.257 . S
Mn181 N197 2.282 . S
Mn181 O205 2.215 . S
Mn181 O207 2.117 . S
C182 O204 1.234 . S
C182 O205 1.283 . S
C183 O195 1.281 . S
C183 O196 1.235 1_554 S
C184 O206 1.240 . S
C184 O207 1.264 . S
O185 Mn180 2.095 1_554 S
O185 C194 1.250 . S
O186 Mn181 2.121 1_554 S
O186 C194 1.258 . S
C187 N188 1.326 1_554 S
C187 C191 1.460 1_554 S
C187 H193 0.929 . S
N188 Mn181 2.257 . S
N188 C187 1.326 1_556 S
N188 C192 1.362 . S
C189 C190 1.258 . S
C189 C192 1.431 . S
C189 C209 1.449 . S
C190 C189 1.258 . S
C190 C191 1.477 . S
C190 H210 0.931 . S
C191 C187 1.460 1_556 S
C191 C190 1.477 . S
C191 H211 0.930 1_556 S
C192 N188 1.362 . S
C192 C189 1.431 . S
C192 C202 1.476 . S
H193 C187 0.929 . S
C194 O185 1.250 . S
C194 O186 1.258 . S
O195 Mn180 2.162 1_554 S
O195 C183 1.281 . S
O196 Mn180 2.297 . S
O196 C183 1.235 1_556 S
N197 Mn181 2.282 . S
N197 C198 1.328 . S
N197 C202 1.318 . S
C198 N197 1.328 . S
C198 C199 1.457 . S
C198 H203 0.929 . S
C199 C198 1.457 . S
C199 C200 1.291 . S
C199 H212 0.931 . S
C200 C199 1.291 . S
C200 C201 1.373 . S
C200 H213 0.929 . S
C201 C200 1.373 . S
C201 C202 1.396 . S
C201 C208 1.403 . S
C202 C192 1.476 . S
C202 N197 1.318 . S
C202 C201 1.396 . S
H203 C198 0.929 . S
O204 Mn180 2.385 . S
O204 C182 1.234 . S
O205 Mn180 2.209 . S
O205 Mn181 2.215 . S
O205 C182 1.283 . S
O206 Mn180 2.094 . S
O206 C184 1.240 . S
O207 Mn181 2.117 . S
O207 C184 1.264 . S
C208 C201 1.403 . S
C208 C209 1.399 . S
C208 H214 0.929 . S
C209 C189 1.449 . S
C209 C208 1.399 . S
C209 H215 0.930 . S
H210 C190 0.931 . S
H211 C191 0.930 1_554 S
H212 C199 0.931 . S
H213 C200 0.929 . S
H214 C208 0.929 . S
H215 C209 0.930 . S
Mn216 O221 2.095 1_556 S
Mn216 O231 2.162 1_556 S
Mn216 O232 2.297 . S
Mn216 O240 2.385 . S
Mn216 O241 2.209 . S
Mn216 O242 2.094 . S
Mn217 O222 2.121 1_556 S
Mn217 N224 2.257 . S
Mn217 N233 2.282 . S
Mn217 O241 2.215 . S
Mn217 O243 2.117 . S
C218 O240 1.234 . S
C218 O241 1.283 . S
C219 O231 1.281 . S
C219 O232 1.235 1_554 S
C220 O242 1.240 . S
C220 O243 1.264 . S
O221 Mn216 2.095 1_554 S
O221 C230 1.250 . S
O222 Mn217 2.121 1_554 S
O222 C230 1.258 . S
C223 N224 1.326 1_554 S
C223 C227 1.460 1_554 S
C223 H229 0.929 . S
N224 Mn217 2.257 . S
N224 C223 1.326 1_556 S
N224 C228 1.362 . S
C225 C226 1.258 . S
C225 C228 1.431 . S
C225 C245 1.449 . S
C226 C225 1.258 . S
C226 C227 1.477 . S
C226 H246 0.931 . S
C227 C223 1.460 1_556 S
C227 C226 1.477 . S
C227 H247 0.930 1_556 S
C228 N224 1.362 . S
C228 C225 1.431 . S
C228 C238 1.476 . S
H229 C223 0.929 . S
C230 O221 1.250 . S
C230 O222 1.258 . S
O231 Mn216 2.162 1_554 S
O231 C219 1.281 . S
O232 Mn216 2.297 . S
O232 C219 1.235 1_556 S
N233 Mn217 2.282 . S
N233 C234 1.328 . S
N233 C238 1.318 . S
C234 N233 1.328 . S
C234 C235 1.457 . S
C234 H239 0.929 . S
C235 C234 1.457 . S
C235 C236 1.291 . S
C235 H248 0.931 . S
C236 C235 1.291 . S
C236 C237 1.373 . S
C236 H249 0.929 . S
C237 C236 1.373 . S
C237 C238 1.396 . S
C237 C244 1.403 . S
C238 C228 1.476 . S
C238 N233 1.318 . S
C238 C237 1.396 . S
H239 C234 0.929 . S
O240 Mn216 2.385 . S
O240 C218 1.234 . S
O241 Mn216 2.209 . S
O241 Mn217 2.215 . S
O241 C218 1.283 . S
O242 Mn216 2.094 . S
O242 C220 1.240 . S
O243 Mn217 2.117 . S
O243 C220 1.264 . S
C244 C237 1.403 . S
C244 C245 1.399 . S
C244 H250 0.929 . S
C245 C225 1.449 . S
C245 C244 1.399 . S
C245 H251 0.930 . S
H246 C226 0.931 . S
H247 C227 0.930 1_554 S
H248 C235 0.931 . S
H249 C236 0.929 . S
H250 C244 0.929 . S
H251 C245 0.930 . S
Mn252 O257 2.095 1_556 S
Mn252 O267 2.162 1_556 S
Mn252 O268 2.297 . S
Mn252 O276 2.385 . S
Mn252 O277 2.209 . S
Mn252 O278 2.094 . S
Mn253 O258 2.121 1_556 S
Mn253 N260 2.257 . S
Mn253 N269 2.282 . S
Mn253 O277 2.215 . S
Mn253 O279 2.117 . S
C254 O276 1.234 . S
C254 O277 1.283 . S
C255 O267 1.281 . S
C255 O268 1.235 1_554 S
C256 O278 1.240 . S
C256 O279 1.264 . S
O257 Mn252 2.095 1_554 S
O257 C266 1.250 . S
O258 Mn253 2.121 1_554 S
O258 C266 1.258 . S
C259 N260 1.326 1_554 S
C259 C263 1.460 1_554 S
C259 H265 0.929 . S
N260 Mn253 2.257 . S
N260 C259 1.326 1_556 S
N260 C264 1.362 . S
C261 C262 1.258 . S
C261 C264 1.431 . S
C261 C281 1.449 . S
C262 C261 1.258 . S
C262 C263 1.477 . S
C262 H282 0.931 . S
C263 C259 1.460 1_556 S
C263 C262 1.477 . S
C263 H283 0.930 1_556 S
C264 N260 1.362 . S
C264 C261 1.431 . S
C264 C274 1.476 . S
H265 C259 0.929 . S
C266 O257 1.250 . S
C266 O258 1.258 . S
O267 Mn252 2.162 1_554 S
O267 C255 1.281 . S
O268 Mn252 2.297 . S
O268 C255 1.235 1_556 S
N269 Mn253 2.282 . S
N269 C270 1.328 . S
N269 C274 1.318 . S
C270 N269 1.328 . S
C270 C271 1.457 . S
C270 H275 0.929 . S
C271 C270 1.457 . S
C271 C272 1.291 . S
C271 H284 0.931 . S
C272 C271 1.291 . S
C272 C273 1.373 . S
C272 H285 0.929 . S
C273 C272 1.373 . S
C273 C274 1.396 . S
C273 C280 1.403 . S
C274 C264 1.476 . S
C274 N269 1.318 . S
C274 C273 1.396 . S
H275 C270 0.929 . S
O276 Mn252 2.385 . S
O276 C254 1.234 . S
O277 Mn252 2.209 . S
O277 Mn253 2.215 . S
O277 C254 1.283 . S
O278 Mn252 2.094 . S
O278 C256 1.240 . S
O279 Mn253 2.117 . S
O279 C256 1.264 . S
C280 C273 1.403 . S
C280 C281 1.399 . S
C280 H286 0.929 . S
C281 C261 1.449 . S
C281 C280 1.399 . S
C281 H287 0.930 . S
H282 C262 0.931 . S
H283 C263 0.930 1_554 S
H284 C271 0.931 . S
H285 C272 0.929 . S
H286 C280 0.929 . S
H287 C281 0.930 . S
Mn288 O293 2.095 . S
Mn288 O303 2.162 . S
Mn288 O304 2.297 . S
Mn288 O312 2.385 . S
Mn288 O313 2.209 . S
Mn288 O314 2.094 . S
Mn289 O294 2.121 . S
Mn289 N296 2.257 . S
Mn289 N305 2.282 . S
Mn289 O313 2.215 . S
Mn289 O315 2.117 . S
C290 O312 1.234 . S
C290 O313 1.283 . S
C291 O303 1.281 . S
C291 O304 1.236 . S
C292 O314 1.240 . S
C292 O315 1.264 . S
O293 Mn288 2.095 . S
O293 C302 1.250 . S
O294 Mn289 2.121 . S
O294 C302 1.258 . S
C295 N296 1.326 . S
C295 C299 1.460 . S
C295 H301 0.929 . S
N296 Mn289 2.257 . S
N296 C295 1.326 . S
N296 C300 1.362 . S
C297 C298 1.258 . S
C297 C300 1.431 . S
C297 C317 1.449 . S
C298 C297 1.258 . S
C298 C299 1.477 . S
C298 H318 0.931 . S
C299 C295 1.460 . S
C299 C298 1.477 . S
C299 H319 0.930 . S
C300 N296 1.362 . S
C300 C297 1.431 . S
C300 C310 1.476 . S
H301 C295 0.929 . S
C302 O293 1.250 . S
C302 O294 1.258 . S
O303 Mn288 2.162 . S
O303 C291 1.281 . S
O304 Mn288 2.297 . S
O304 C291 1.236 . S
N305 Mn289 2.282 . S
N305 C306 1.328 . S
N305 C310 1.318 . S
C306 N305 1.328 . S
C306 C307 1.457 . S
C306 H311 0.929 . S
C307 C306 1.457 . S
C307 C308 1.291 . S
C307 H320 0.931 . S
C308 C307 1.291 . S
C308 C309 1.373 . S
C308 H321 0.929 . S
C309 C308 1.373 . S
C309 C310 1.396 . S
C309 C316 1.403 . S
C310 C300 1.476 . S
C310 N305 1.318 . S
C310 C309 1.396 . S
H311 C306 0.929 . S
O312 Mn288 2.385 . S
O312 C290 1.234 . S
O313 Mn288 2.209 . S
O313 Mn289 2.215 . S
O313 C290 1.283 . S
O314 Mn288 2.094 . S
O314 C292 1.240 . S
O315 Mn289 2.117 . S
O315 C292 1.264 . S
C316 C309 1.403 . S
C316 C317 1.399 . S
C316 H322 0.929 . S
C317 C297 1.449 . S
C317 C316 1.399 . S
C317 H323 0.930 . S
H318 C298 0.931 . S
H319 C299 0.930 . S
H320 C307 0.931 . S
H321 C308 0.929 . S
H322 C316 0.929 . S
H323 C317 0.930 . S
Mn324 O329 2.095 . S
Mn324 O339 2.162 . S
Mn324 O340 2.297 . S
Mn324 O348 2.385 . S
Mn324 O349 2.209 . S
Mn324 O350 2.094 . S
Mn325 O330 2.121 . S
Mn325 N332 2.257 . S
Mn325 N341 2.282 . S
Mn325 O349 2.215 . S
Mn325 O351 2.117 . S
C326 O348 1.234 . S
C326 O349 1.283 . S
C327 O339 1.281 . S
C327 O340 1.236 . S
C328 O350 1.240 . S
C328 O351 1.264 . S
O329 Mn324 2.095 . S
O329 C338 1.250 . S
O330 Mn325 2.121 . S
O330 C338 1.258 . S
C331 N332 1.326 . S
C331 C335 1.460 . S
C331 H337 0.929 . S
N332 Mn325 2.257 . S
N332 C331 1.326 . S
N332 C336 1.362 . S
C333 C334 1.258 . S
C333 C336 1.431 . S
C333 C353 1.449 . S
C334 C333 1.258 . S
C334 C335 1.477 . S
C334 H354 0.931 . S
C335 C331 1.460 . S
C335 C334 1.477 . S
C335 H355 0.930 . S
C336 N332 1.362 . S
C336 C333 1.431 . S
C336 C346 1.476 . S
H337 C331 0.929 . S
C338 O329 1.250 . S
C338 O330 1.258 . S
O339 Mn324 2.162 . S
O339 C327 1.281 . S
O340 Mn324 2.297 . S
O340 C327 1.236 . S
N341 Mn325 2.282 . S
N341 C342 1.328 . S
N341 C346 1.318 . S
C342 N341 1.328 . S
C342 C343 1.457 . S
C342 H347 0.929 . S
C343 C342 1.457 . S
C343 C344 1.291 . S
C343 H356 0.931 . S
C344 C343 1.291 . S
C344 C345 1.373 . S
C344 H357 0.929 . S
C345 C344 1.373 . S
C345 C346 1.396 . S
C345 C352 1.403 . S
C346 C336 1.476 . S
C346 N341 1.318 . S
C346 C345 1.396 . S
H347 C342 0.929 . S
O348 Mn324 2.385 . S
O348 C326 1.234 . S
O349 Mn324 2.209 . S
O349 Mn325 2.215 . S
O349 C326 1.283 . S
O350 Mn324 2.094 . S
O350 C328 1.240 . S
O351 Mn325 2.117 . S
O351 C328 1.264 . S
C352 C345 1.403 . S
C352 C353 1.399 . S
C352 H358 0.929 . S
C353 C333 1.449 . S
C353 C352 1.399 . S
C353 H359 0.930 . S
H354 C334 0.931 . S
H355 C335 0.930 . S
H356 C343 0.931 . S
H357 C344 0.929 . S
H358 C352 0.929 . S
H359 C353 0.930 . S
Mn360 O365 2.095 . S
Mn360 O375 2.162 . S
Mn360 O376 2.297 . S
Mn360 O384 2.385 . S
Mn360 O385 2.209 . S
Mn360 O386 2.094 . S
Mn361 O366 2.121 . S
Mn361 N368 2.257 . S
Mn361 N377 2.282 . S
Mn361 O385 2.215 . S
Mn361 O387 2.117 . S
C362 O384 1.234 . S
C362 O385 1.283 . S
C363 O375 1.281 . S
C363 O376 1.236 . S
C364 O386 1.240 . S
C364 O387 1.264 . S
O365 Mn360 2.095 . S
O365 C374 1.250 . S
O366 Mn361 2.121 . S
O366 C374 1.258 . S
C367 N368 1.326 . S
C367 C371 1.460 . S
C367 H373 0.929 . S
N368 Mn361 2.257 . S
N368 C367 1.326 . S
N368 C372 1.362 . S
C369 C370 1.258 . S
C369 C372 1.431 . S
C369 C389 1.449 . S
C370 C369 1.258 . S
C370 C371 1.477 . S
C370 H390 0.931 . S
C371 C367 1.460 . S
C371 C370 1.477 . S
C371 H391 0.930 . S
C372 N368 1.362 . S
C372 C369 1.431 . S
C372 C382 1.476 . S
H373 C367 0.929 . S
C374 O365 1.250 . S
C374 O366 1.258 . S
O375 Mn360 2.162 . S
O375 C363 1.281 . S
O376 Mn360 2.297 . S
O376 C363 1.236 . S
N377 Mn361 2.282 . S
N377 C378 1.328 . S
N377 C382 1.318 . S
C378 N377 1.328 . S
C378 C379 1.457 . S
C378 H383 0.929 . S
C379 C378 1.457 . S
C379 C380 1.291 . S
C379 H392 0.931 . S
C380 C379 1.291 . S
C380 C381 1.373 . S
C380 H393 0.929 . S
C381 C380 1.373 . S
C381 C382 1.396 . S
C381 C388 1.403 . S
C382 C372 1.476 . S
C382 N377 1.318 . S
C382 C381 1.396 . S
H383 C378 0.929 . S
O384 Mn360 2.385 . S
O384 C362 1.234 . S
O385 Mn360 2.209 . S
O385 Mn361 2.215 . S
O385 C362 1.283 . S
O386 Mn360 2.094 . S
O386 C364 1.240 . S
O387 Mn361 2.117 . S
O387 C364 1.264 . S
C388 C381 1.403 . S
C388 C389 1.399 . S
C388 H394 0.929 . S
C389 C369 1.449 . S
C389 C388 1.399 . S
C389 H395 0.930 . S
H390 C370 0.931 . S
H391 C371 0.930 . S
H392 C379 0.931 . S
H393 C380 0.929 . S
H394 C388 0.929 . S
H395 C389 0.930 . S
Mn396 O401 2.095 . S
Mn396 O411 2.162 . S
Mn396 O412 2.297 . S
Mn396 O420 2.385 . S
Mn396 O421 2.209 . S
Mn396 O422 2.094 . S
Mn397 O402 2.121 . S
Mn397 N404 2.257 . S
Mn397 N413 2.282 . S
Mn397 O421 2.215 . S
Mn397 O423 2.117 . S
C398 O420 1.234 . S
C398 O421 1.283 . S
C399 O411 1.281 . S
C399 O412 1.236 . S
C400 O422 1.240 . S
C400 O423 1.264 . S
O401 Mn396 2.095 . S
O401 C410 1.250 . S
O402 Mn397 2.121 . S
O402 C410 1.258 . S
C403 N404 1.326 . S
C403 C407 1.460 . S
C403 H409 0.929 . S
N404 Mn397 2.257 . S
N404 C403 1.326 . S
N404 C408 1.362 . S
C405 C406 1.258 . S
C405 C408 1.431 . S
C405 C425 1.449 . S
C406 C405 1.258 . S
C406 C407 1.477 . S
C406 H426 0.931 . S
C407 C403 1.460 . S
C407 C406 1.477 . S
C407 H427 0.930 . S
C408 N404 1.362 . S
C408 C405 1.431 . S
C408 C418 1.476 . S
H409 C403 0.929 . S
C410 O401 1.250 . S
C410 O402 1.258 . S
O411 Mn396 2.162 . S
O411 C399 1.281 . S
O412 Mn396 2.297 . S
O412 C399 1.236 . S
N413 Mn397 2.282 . S
N413 C414 1.328 . S
N413 C418 1.318 . S
C414 N413 1.328 . S
C414 C415 1.457 . S
C414 H419 0.929 . S
C415 C414 1.457 . S
C415 C416 1.291 . S
C415 H428 0.931 . S
C416 C415 1.291 . S
C416 C417 1.373 . S
C416 H429 0.929 . S
C417 C416 1.373 . S
C417 C418 1.396 . S
C417 C424 1.403 . S
C418 C408 1.476 . S
C418 N413 1.318 . S
C418 C417 1.396 . S
H419 C414 0.929 . S
O420 Mn396 2.385 . S
O420 C398 1.234 . S
O421 Mn396 2.209 . S
O421 Mn397 2.215 . S
O421 C398 1.283 . S
O422 Mn396 2.094 . S
O422 C400 1.240 . S
O423 Mn397 2.117 . S
O423 C400 1.264 . S
C424 C417 1.403 . S
C424 C425 1.399 . S
C424 H430 0.929 . S
C425 C405 1.449 . S
C425 C424 1.399 . S
C425 H431 0.930 . S
H426 C406 0.931 . S
H427 C407 0.930 . S
H428 C415 0.931 . S
H429 C416 0.929 . S
H430 C424 0.929 . S
H431 C425 0.930 . S
Mn432 O437 2.095 . S
Mn432 O447 2.162 . S
Mn432 O448 2.297 . S
Mn432 O456 2.385 . S
Mn432 O457 2.209 . S
Mn432 O458 2.094 . S
Mn433 O438 2.121 . S
Mn433 N440 2.257 . S
Mn433 N449 2.282 . S
Mn433 O457 2.215 . S
Mn433 O459 2.117 . S
C434 O456 1.234 . S
C434 O457 1.283 . S
C435 O447 1.281 . S
C435 O448 1.236 . S
C436 O458 1.240 . S
C436 O459 1.264 . S
O437 Mn432 2.095 . S
O437 C446 1.250 . S
O438 Mn433 2.121 . S
O438 C446 1.258 . S
C439 N440 1.326 . S
C439 C443 1.460 . S
C439 H445 0.929 . S
N440 Mn433 2.257 . S
N440 C439 1.326 . S
N440 C444 1.362 . S
C441 C442 1.258 . S
C441 C444 1.431 . S
C441 C461 1.449 . S
C442 C441 1.258 . S
C442 C443 1.477 . S
C442 H462 0.931 . S
C443 C439 1.460 . S
C443 C442 1.477 . S
C443 H463 0.930 . S
C444 N440 1.362 . S
C444 C441 1.431 . S
C444 C454 1.476 . S
H445 C439 0.929 . S
C446 O437 1.250 . S
C446 O438 1.258 . S
O447 Mn432 2.162 . S
O447 C435 1.281 . S
O448 Mn432 2.297 . S
O448 C435 1.236 . S
N449 Mn433 2.282 . S
N449 C450 1.328 . S
N449 C454 1.318 . S
C450 N449 1.328 . S
C450 C451 1.457 . S
C450 H455 0.929 . S
C451 C450 1.457 . S
C451 C452 1.291 . S
C451 H464 0.931 . S
C452 C451 1.291 . S
C452 C453 1.373 . S
C452 H465 0.929 . S
C453 C452 1.373 . S
C453 C454 1.396 . S
C453 C460 1.403 . S
C454 C444 1.476 . S
C454 N449 1.318 . S
C454 C453 1.396 . S
H455 C450 0.929 . S
O456 Mn432 2.385 . S
O456 C434 1.234 . S
O457 Mn432 2.209 . S
O457 Mn433 2.215 . S
O457 C434 1.283 . S
O458 Mn432 2.094 . S
O458 C436 1.240 . S
O459 Mn433 2.117 . S
O459 C436 1.264 . S
C460 C453 1.403 . S
C460 C461 1.399 . S
C460 H466 0.929 . S
C461 C441 1.449 . S
C461 C460 1.399 . S
C461 H467 0.930 . S
H462 C442 0.931 . S
H463 C443 0.930 . S
H464 C451 0.931 . S
H465 C452 0.929 . S
H466 C460 0.929 . S
H467 C461 0.930 . S
Mn468 O473 2.095 . S
Mn468 O483 2.162 . S
Mn468 O484 2.297 . S
Mn468 O492 2.385 . S
Mn468 O493 2.209 . S
Mn468 O494 2.094 . S
Mn469 O474 2.121 . S
Mn469 N476 2.257 . S
Mn469 N485 2.282 . S
Mn469 O493 2.215 . S
Mn469 O495 2.117 . S
C470 O492 1.234 . S
C470 O493 1.283 . S
C471 O483 1.281 . S
C471 O484 1.236 . S
C472 O494 1.240 . S
C472 O495 1.264 . S
O473 Mn468 2.095 . S
O473 C482 1.250 . S
O474 Mn469 2.121 . S
O474 C482 1.258 . S
C475 N476 1.326 . S
C475 C479 1.460 . S
C475 H481 0.929 . S
N476 Mn469 2.257 . S
N476 C475 1.326 . S
N476 C480 1.362 . S
C477 C478 1.258 . S
C477 C480 1.431 . S
C477 C497 1.449 . S
C478 C477 1.258 . S
C478 C479 1.477 . S
C478 H498 0.931 . S
C479 C475 1.460 . S
C479 C478 1.477 . S
C479 H499 0.930 . S
C480 N476 1.362 . S
C480 C477 1.431 . S
C480 C490 1.476 . S
H481 C475 0.929 . S
C482 O473 1.250 . S
C482 O474 1.258 . S
O483 Mn468 2.162 . S
O483 C471 1.281 . S
O484 Mn468 2.297 . S
O484 C471 1.236 . S
N485 Mn469 2.282 . S
N485 C486 1.328 . S
N485 C490 1.318 . S
C486 N485 1.328 . S
C486 C487 1.457 . S
C486 H491 0.929 . S
C487 C486 1.457 . S
C487 C488 1.291 . S
C487 H500 0.931 . S
C488 C487 1.291 . S
C488 C489 1.373 . S
C488 H501 0.929 . S
C489 C488 1.373 . S
C489 C490 1.396 . S
C489 C496 1.403 . S
C490 C480 1.476 . S
C490 N485 1.318 . S
C490 C489 1.396 . S
H491 C486 0.929 . S
O492 Mn468 2.385 . S
O492 C470 1.234 . S
O493 Mn468 2.209 . S
O493 Mn469 2.215 . S
O493 C470 1.283 . S
O494 Mn468 2.094 . S
O494 C472 1.240 . S
O495 Mn469 2.117 . S
O495 C472 1.264 . S
C496 C489 1.403 . S
C496 C497 1.399 . S
C496 H502 0.929 . S
C497 C477 1.449 . S
C497 C496 1.399 . S
C497 H503 0.930 . S
H498 C478 0.931 . S
H499 C479 0.930 . S
H500 C487 0.931 . S
H501 C488 0.929 . S
H502 C496 0.929 . S
H503 C497 0.930 . S
Mn504 O509 2.095 . S
Mn504 O519 2.162 . S
Mn504 O520 2.297 . S
Mn504 O528 2.385 . S
Mn504 O529 2.209 . S
Mn504 O530 2.094 . S
Mn505 O510 2.121 . S
Mn505 N512 2.257 . S
Mn505 N521 2.282 . S
Mn505 O529 2.215 . S
Mn505 O531 2.117 . S
C506 O528 1.234 . S
C506 O529 1.283 . S
C507 O519 1.281 . S
C507 O520 1.236 . S
C508 O530 1.240 . S
C508 O531 1.264 . S
O509 Mn504 2.095 . S
O509 C518 1.250 . S
O510 Mn505 2.121 . S
O510 C518 1.258 . S
C511 N512 1.326 . S
C511 C515 1.460 . S
C511 H517 0.929 . S
N512 Mn505 2.257 . S
N512 C511 1.326 . S
N512 C516 1.362 . S
C513 C514 1.258 . S
C513 C516 1.431 . S
C513 C533 1.449 . S
C514 C513 1.258 . S
C514 C515 1.477 . S
C514 H534 0.931 . S
C515 C511 1.460 . S
C515 C514 1.477 . S
C515 H535 0.930 . S
C516 N512 1.362 . S
C516 C513 1.431 . S
C516 C526 1.476 . S
H517 C511 0.929 . S
C518 O509 1.250 . S
C518 O510 1.258 . S
O519 Mn504 2.162 . S
O519 C507 1.281 . S
O520 Mn504 2.297 . S
O520 C507 1.236 . S
N521 Mn505 2.282 . S
N521 C522 1.328 . S
N521 C526 1.318 . S
C522 N521 1.328 . S
C522 C523 1.457 . S
C522 H527 0.929 . S
C523 C522 1.457 . S
C523 C524 1.291 . S
C523 H536 0.931 . S
C524 C523 1.291 . S
C524 C525 1.373 . S
C524 H537 0.929 . S
C525 C524 1.373 . S
C525 C526 1.396 . S
C525 C532 1.403 . S
C526 C516 1.476 . S
C526 N521 1.318 . S
C526 C525 1.396 . S
H527 C522 0.929 . S
O528 Mn504 2.385 . S
O528 C506 1.234 . S
O529 Mn504 2.209 . S
O529 Mn505 2.215 . S
O529 C506 1.283 . S
O530 Mn504 2.094 . S
O530 C508 1.240 . S
O531 Mn505 2.117 . S
O531 C508 1.264 . S
C532 C525 1.403 . S
C532 C533 1.399 . S
C532 H538 0.929 . S
C533 C513 1.449 . S
C533 C532 1.399 . S
C533 H539 0.930 . S
H534 C514 0.931 . S
H535 C515 0.930 . S
H536 C523 0.931 . S
H537 C524 0.929 . S
H538 C532 0.929 . S
H539 C533 0.930 . S
Mn540 O545 2.095 . S
Mn540 O555 2.162 . S
Mn540 O556 2.297 . S
Mn540 O564 2.385 . S
Mn540 O565 2.209 . S
Mn540 O566 2.094 . S
Mn541 O546 2.121 . S
Mn541 N548 2.257 . S
Mn541 N557 2.282 . S
Mn541 O565 2.215 . S
Mn541 O567 2.117 . S
C542 O564 1.234 . S
C542 O565 1.283 . S
C543 O555 1.281 . S
C543 O556 1.236 . S
C544 O566 1.240 . S
C544 O567 1.264 . S
O545 Mn540 2.095 . S
O545 C554 1.250 . S
O546 Mn541 2.121 . S
O546 C554 1.258 . S
C547 N548 1.326 . S
C547 C551 1.460 . S
C547 H553 0.929 . S
N548 Mn541 2.257 . S
N548 C547 1.326 . S
N548 C552 1.362 . S
C549 C550 1.258 . S
C549 C552 1.431 . S
C549 C569 1.449 . S
C550 C549 1.258 . S
C550 C551 1.477 . S
C550 H570 0.931 . S
C551 C547 1.460 . S
C551 C550 1.477 . S
C551 H571 0.930 . S
C552 N548 1.362 . S
C552 C549 1.431 . S
C552 C562 1.476 . S
H553 C547 0.929 . S
C554 O545 1.250 . S
C554 O546 1.258 . S
O555 Mn540 2.162 . S
O555 C543 1.281 . S
O556 Mn540 2.297 . S
O556 C543 1.236 . S
N557 Mn541 2.282 . S
N557 C558 1.328 . S
N557 C562 1.318 . S
C558 N557 1.328 . S
C558 C559 1.457 . S
C558 H563 0.929 . S
C559 C558 1.457 . S
C559 C560 1.291 . S
C559 H572 0.931 . S
C560 C559 1.291 . S
C560 C561 1.373 . S
C560 H573 0.929 . S
C561 C560 1.373 . S
C561 C562 1.396 . S
C561 C568 1.403 . S
C562 C552 1.476 . S
C562 N557 1.318 . S
C562 C561 1.396 . S
H563 C558 0.929 . S
O564 Mn540 2.385 . S
O564 C542 1.234 . S
O565 Mn540 2.209 . S
O565 Mn541 2.215 . S
O565 C542 1.283 . S
O566 Mn540 2.094 . S
O566 C544 1.240 . S
O567 Mn541 2.117 . S
O567 C544 1.264 . S
C568 C561 1.403 . S
C568 C569 1.399 . S
C568 H574 0.929 . S
C569 C549 1.449 . S
C569 C568 1.399 . S
C569 H575 0.930 . S
H570 C550 0.931 . S
H571 C551 0.930 . S
H572 C559 0.931 . S
H573 C560 0.929 . S
H574 C568 0.929 . S
H575 C569 0.930 . S
C576 C577 1.387 . S
C576 H580 0.950 . S
C576 C585 1.390 . S
C577 C576 1.387 . S
C577 C579 1.387 . S
H578 C585 0.950 . S
C579 C577 1.387 . S
C579 C581 1.390 . S
C579 H583 0.950 . S
H580 C576 0.950 . S
C581 C579 1.390 . S
C581 C582 1.387 . S
C581 H584 0.950 . S
C582 C581 1.387 . S
C582 C585 1.387 . S
H583 C579 0.950 . S
H584 C581 0.950 . S
C585 C576 1.390 . S
C585 H578 0.950 . S
C585 C582 1.387 . S
C586 C587 1.387 . S
C586 H590 0.950 . S
C586 C595 1.390 . S
C587 C586 1.387 . S
C587 C589 1.387 . S
H588 C595 0.950 . S
C589 C587 1.387 . S
C589 C591 1.390 . S
C589 H593 0.950 . S
H590 C586 0.950 . S
C591 C589 1.390 . S
C591 C592 1.387 . S
C591 H594 0.950 . S
C592 C591 1.387 . S
C592 C595 1.387 . S
H593 C589 0.950 . S
H594 C591 0.950 . S
C595 C586 1.390 . S
C595 H588 0.950 . S
C595 C592 1.387 . S
C596 C597 1.387 . S
C596 H600 0.950 . S
C596 C605 1.390 . S
C597 C596 1.387 . S
C597 C599 1.387 . S
H598 C605 0.950 . S
C599 C597 1.387 . S
C599 C601 1.390 . S
C599 H603 0.950 . S
H600 C596 0.950 . S
C601 C599 1.390 . S
C601 C602 1.387 . S
C601 H604 0.950 . S
C602 C601 1.387 . S
C602 C605 1.387 . S
H603 C599 0.950 . S
H604 C601 0.950 . S
C605 C596 1.390 . S
C605 H598 0.950 . S
C605 C602 1.387 . S
C606 C607 1.387 . S
C606 H610 0.950 . S
C606 C615 1.390 . S
C607 C606 1.387 . S
C607 C609 1.387 . S
H608 C615 0.950 . S
C609 C607 1.387 . S
C609 C611 1.390 . S
C609 H613 0.950 . S
H610 C606 0.950 . S
C611 C609 1.390 . S
C611 C612 1.387 . S
C611 H614 0.950 . S
C612 C611 1.387 . S
C612 C615 1.387 . S
H613 C609 0.950 . S
H614 C611 0.950 . S
C615 C606 1.390 . S
C615 H608 0.950 . S
C615 C612 1.387 . S
C616 C617 1.387 . S
C616 H620 0.950 . S
C616 C625 1.390 1_545 S
C617 C616 1.387 . S
C617 C619 1.387 . S
H618 C625 0.950 . S
C619 C617 1.387 . S
C619 C621 1.390 1_545 S
C619 H623 0.950 . S
H620 C616 0.950 . S
C621 C619 1.390 1_565 S
C621 C622 1.387 . S
C621 H624 0.950 . S
C622 C621 1.387 . S
C622 C625 1.387 . S
H623 C619 0.950 . S
H624 C621 0.950 . S
C625 C616 1.390 1_565 S
C625 H618 0.950 . S
C625 C622 1.387 . S
C626 C627 1.387 . S
C626 H630 0.950 . S
C626 C635 1.390 1_655 S
C627 C626 1.387 . S
C627 C629 1.387 . S
H628 C635 0.950 . S
C629 C627 1.387 . S
C629 C631 1.390 1_655 S
C629 H633 0.950 . S
H630 C626 0.950 . S
C631 C629 1.390 1_455 S
C631 C632 1.387 . S
C631 H634 0.950 . S
C632 C631 1.387 . S
C632 C635 1.387 . S
H633 C629 0.950 . S
H634 C631 0.950 . S
C635 C626 1.390 1_455 S
C635 H628 0.950 . S
C635 C632 1.387 . S
C636 C637 1.387 . S
C636 H640 0.950 . S
C636 C645 1.390 1_545 S
C637 C636 1.387 . S
C637 C639 1.387 . S
H638 C645 0.950 . S
C639 C637 1.387 . S
C639 C641 1.390 1_545 S
C639 H643 0.950 . S
H640 C636 0.950 . S
C641 C639 1.390 1_565 S
C641 C642 1.387 . S
C641 H644 0.950 . S
C642 C641 1.387 . S
C642 C645 1.387 . S
H643 C639 0.950 . S
H644 C641 0.950 . S
C645 C636 1.390 1_565 S
C645 H638 0.950 . S
C645 C642 1.387 . S
C646 C647 1.387 . S
C646 H650 0.950 . S
C646 C655 1.390 1_455 S
C647 C646 1.387 . S
C647 C649 1.387 . S
H648 C655 0.950 . S
C649 C647 1.387 . S
C649 C651 1.390 1_455 S
C649 H653 0.950 . S
H650 C646 0.950 . S
C651 C649 1.390 1_655 S
C651 C652 1.387 . S
C651 H654 0.950 . S
C652 C651 1.387 . S
C652 C655 1.387 . S
H653 C649 0.950 . S
H654 C651 0.950 . S
C655 C646 1.390 1_655 S
C655 H648 0.950 . S
C655 C652 1.387 . S
C656 C657 1.387 . S
C656 H660 0.950 . S
C656 C665 1.390 . S
C657 C656 1.387 . S
C657 C659 1.387 1_554 S
H658 C665 0.950 . S
C659 C657 1.387 1_556 S
C659 C661 1.390 . S
C659 H663 0.950 . S
H660 C656 0.950 . S
C661 C659 1.390 . S
C661 C662 1.395 . S
C661 H664 0.950 . S
C662 C661 1.395 . S
C662 C665 1.379 1_556 S
H663 C659 0.950 . S
H664 C661 0.950 . S
C665 C656 1.390 . S
C665 H658 0.950 . S
C665 C662 1.379 1_554 S
C666 C667 1.397 . S
C666 H670 0.950 . S
C666 C675 1.390 . S
C667 C666 1.397 . S
C667 C669 1.378 1_556 S
H668 C675 0.950 . S
C669 C667 1.378 1_554 S
C669 C671 1.390 . S
C669 H673 0.950 . S
H670 C666 0.950 . S
C671 C669 1.390 . S
C671 C672 1.387 . S
C671 H674 0.950 . S
C672 C671 1.387 . S
C672 C675 1.387 1_554 S
H673 C669 0.950 . S
H674 C671 0.950 . S
C675 C666 1.390 . S
C675 H668 0.950 . S
C675 C672 1.387 1_556 S
C676 C677 1.387 1_556 S
C676 H680 0.950 . S
C676 C685 1.390 . S
C677 C676 1.387 1_554 S
C677 C679 1.387 . S
H678 C685 0.950 . S
C679 C677 1.387 . S
C679 C681 1.390 . S
C679 H683 0.950 . S
H680 C676 0.950 . S
C681 C679 1.390 . S
C681 C682 1.380 1_554 S
C681 H684 0.950 . S
C682 C681 1.380 1_556 S
C682 C685 1.394 . S
H683 C679 0.950 . S
H684 C681 0.950 . S
C685 C676 1.390 . S
C685 H678 0.950 . S
C685 C682 1.394 . S
C686 C687 1.379 1_554 S
C686 H690 0.950 . S
C686 C695 1.390 . S
C687 C686 1.379 1_556 S
C687 C689 1.395 . S
H688 C695 0.950 . S
C689 C687 1.395 . S
C689 C691 1.390 . S
C689 H693 0.950 . S
H690 C686 0.950 . S
C691 C689 1.390 . S
C691 C692 1.387 1_556 S
C691 H694 0.950 . S
C692 C691 1.387 1_554 S
C692 C695 1.387 . S
H693 C689 0.950 . S
H694 C691 0.950 . S
C695 C686 1.390 . S
C695 H688 0.950 . S
C695 C692 1.387 . S
C696 C697 1.387 . S
C696 H700 0.950 . S
C696 C705 1.390 . S
C697 C696 1.387 . S
C697 C699 1.387 . S
H698 C705 0.950 . S
C699 C697 1.387 . S
C699 C701 1.390 . S
C699 H703 0.950 . S
H700 C696 0.950 . S
C701 C699 1.390 . S
C701 C702 1.387 . S
C701 H704 0.950 . S
C702 C701 1.387 . S
C702 C705 1.387 . S
H703 C699 0.950 . S
H704 C701 0.950 . S
C705 C696 1.390 . S
C705 H698 0.950 . S
C705 C702 1.387 . S
C706 C707 1.387 . S
C706 H710 0.950 . S
C706 C715 1.390 . S
C707 C706 1.387 . S
C707 C709 1.387 . S
H708 C715 0.950 . S
C709 C707 1.387 . S
C709 C711 1.390 . S
C709 H713 0.950 . S
H710 C706 0.950 . S
C711 C709 1.390 . S
C711 C712 1.387 . S
C711 H714 0.950 . S
C712 C711 1.387 . S
C712 C715 1.387 . S
H713 C709 0.950 . S
H714 C711 0.950 . S
C715 C706 1.390 . S
C715 H708 0.950 . S
C715 C712 1.387 . S
C716 C717 1.387 . S
C716 H720 0.950 . S
C716 C725 1.390 . S
C717 C716 1.387 . S
C717 C719 1.387 . S
H718 C725 0.950 . S
C719 C717 1.387 . S
C719 C721 1.390 . S
C719 H723 0.950 . S
H720 C716 0.950 . S
C721 C719 1.390 . S
C721 C722 1.387 . S
C721 H724 0.950 . S
C722 C721 1.387 . S
C722 C725 1.387 . S
H723 C719 0.950 . S
H724 C721 0.950 . S
C725 C716 1.390 . S
C725 H718 0.950 . S
C725 C722 1.387 . S
C726 C727 1.387 . S
C726 H730 0.950 . S
C726 C735 1.390 . S
C727 C726 1.387 . S
C727 C729 1.387 . S
H728 C735 0.950 . S
C729 C727 1.387 . S
C729 C731 1.390 . S
C729 H733 0.950 . S
H730 C726 0.950 . S
C731 C729 1.390 . S
C731 C732 1.387 . S
C731 H734 0.950 . S
C732 C731 1.387 . S
C732 C735 1.387 . S
H733 C729 0.950 . S
H734 C731 0.950 . S
C735 C726 1.390 . S
C735 H728 0.950 . S
C735 C732 1.387 . S
C736 C737 1.387 . S
C736 H740 0.950 . S
C736 C745 1.390 . S
C737 C736 1.387 . S
C737 C739 1.387 . S
H738 C745 0.950 . S
C739 C737 1.387 . S
C739 C741 1.390 . S
C739 H743 0.950 . S
H740 C736 0.950 . S
C741 C739 1.390 . S
C741 C742 1.387 . S
C741 H744 0.950 . S
C742 C741 1.387 . S
C742 C745 1.387 . S
H743 C739 0.950 . S
H744 C741 0.950 . S
C745 C736 1.390 . S
C745 H738 0.950 . S
C745 C742 1.387 . S
C746 C747 1.387 . S
C746 H750 0.950 . S
C746 C755 1.390 . S
C747 C746 1.387 . S
C747 C749 1.387 . S
H748 C755 0.950 . S
C749 C747 1.387 . S
C749 C751 1.390 . S
C749 H753 0.950 . S
H750 C746 0.950 . S
C751 C749 1.390 . S
C751 C752 1.387 . S
C751 H754 0.950 . S
C752 C751 1.387 . S
C752 C755 1.387 . S
H753 C749 0.950 . S
H754 C751 0.950 . S
C755 C746 1.390 . S
C755 H748 0.950 . S
C755 C752 1.387 . S
C756 C757 1.387 . S
C756 H760 0.950 . S
C756 C765 1.390 . S
C757 C756 1.387 . S
C757 C759 1.387 . S
H758 C765 0.950 . S
C759 C757 1.387 . S
C759 C761 1.390 . S
C759 H763 0.950 . S
H760 C756 0.950 . S
C761 C759 1.390 . S
C761 C762 1.387 . S
C761 H764 0.950 . S
C762 C761 1.387 . S
C762 C765 1.387 . S
H763 C759 0.950 . S
H764 C761 0.950 . S
C765 C756 1.390 . S
C765 H758 0.950 . S
C765 C762 1.387 . S
C766 C767 1.387 . S
C766 H770 0.950 . S
C766 C775 1.390 . S
C767 C766 1.387 . S
C767 C769 1.387 . S
H768 C775 0.950 . S
C769 C767 1.387 . S
C769 C771 1.390 . S
C769 H773 0.950 . S
H770 C766 0.950 . S
C771 C769 1.390 . S
C771 C772 1.387 . S
C771 H774 0.950 . S
C772 C771 1.387 . S
C772 C775 1.387 . S
H773 C769 0.950 . S
H774 C771 0.950 . S
C775 C766 1.390 . S
C775 H768 0.950 . S
C775 C772 1.387 . S
C776 C777 1.387 . S
C776 H780 0.950 . S
C776 C785 1.390 . S
C777 C776 1.387 . S
C777 C779 1.387 . S
H778 C785 0.950 . S
C779 C777 1.387 . S
C779 C781 1.390 . S
C779 H783 0.950 . S
H780 C776 0.950 . S
C781 C779 1.390 . S
C781 C782 1.387 . S
C781 H784 0.950 . S
C782 C781 1.387 . S
C782 C785 1.387 . S
H783 C779 0.950 . S
H784 C781 0.950 . S
C785 C776 1.390 . S
C785 H778 0.950 . S
C785 C782 1.387 . S
C786 C787 1.387 . S
C786 H790 0.950 . S
C786 C795 1.390 . S
C787 C786 1.387 . S
C787 C789 1.387 . S
H788 C795 0.950 . S
C789 C787 1.387 . S
C789 C791 1.390 . S
C789 H793 0.950 . S
H790 C786 0.950 . S
C791 C789 1.390 . S
C791 C792 1.387 . S
C791 H794 0.950 . S
C792 C791 1.387 . S
C792 C795 1.387 . S
H793 C789 0.950 . S
H794 C791 0.950 . S
C795 C786 1.390 . S
C795 H788 0.950 . S
C795 C792 1.387 . S
C796 C797 1.387 . S
C796 H800 0.950 . S
C796 C805 1.390 . S
C797 C796 1.387 . S
C797 C799 1.387 . S
H798 C805 0.950 . S
C799 C797 1.387 . S
C799 C801 1.390 . S
C799 H803 0.950 . S
H800 C796 0.950 . S
C801 C799 1.390 . S
C801 C802 1.387 . S
C801 H804 0.950 . S
C802 C801 1.387 . S
C802 C805 1.387 . S
H803 C799 0.950 . S
H804 C801 0.950 . S
C805 C796 1.390 . S
C805 H798 0.950 . S
C805 C802 1.387 . S
C806 C807 1.387 . S
C806 H810 0.950 . S
C806 C815 1.390 . S
C807 C806 1.387 . S
C807 C809 1.387 . S
H808 C815 0.950 . S
C809 C807 1.387 . S
C809 C811 1.390 . S
C809 H813 0.950 . S
H810 C806 0.950 . S
C811 C809 1.390 . S
C811 C812 1.387 . S
C811 H814 0.950 . S
C812 C811 1.387 . S
C812 C815 1.387 . S
H813 C809 0.950 . S
H814 C811 0.950 . S
C815 C806 1.390 . S
C815 H808 0.950 . S
C815 C812 1.387 . S
C816 C817 1.387 . S
C816 H820 0.950 . S
C816 C825 1.390 . S
C817 C816 1.387 . S
C817 C819 1.387 . S
H818 C825 0.950 . S
C819 C817 1.387 . S
C819 C821 1.390 . S
C819 H823 0.950 . S
H820 C816 0.950 . S
C821 C819 1.390 . S
C821 C822 1.387 . S
C821 H824 0.950 . S
C822 C821 1.387 . S
C822 C825 1.387 . S
H823 C819 0.950 . S
H824 C821 0.950 . S
C825 C816 1.390 . S
C825 H818 0.950 . S
C825 C822 1.387 . S
C826 C827 1.387 . S
C826 H830 0.950 . S
C826 C835 1.390 . S
C827 C826 1.387 . S
C827 C829 1.387 . S
H828 C835 0.950 . S
C829 C827 1.387 . S
C829 C831 1.390 . S
C829 H833 0.950 . S
H830 C826 0.950 . S
C831 C829 1.390 . S
C831 C832 1.387 . S
C831 H834 0.950 . S
C832 C831 1.387 . S
C832 C835 1.387 . S
H833 C829 0.950 . S
H834 C831 0.950 . S
C835 C826 1.390 . S
C835 H828 0.950 . S
C835 C832 1.387 . S
C836 C837 1.387 . S
C836 H840 0.950 . S
C836 C845 1.390 . S
C837 C836 1.387 . S
C837 C839 1.387 . S
H838 C845 0.950 . S
C839 C837 1.387 . S
C839 C841 1.390 . S
C839 H843 0.950 . S
H840 C836 0.950 . S
C841 C839 1.390 . S
C841 C842 1.387 . S
C841 H844 0.950 . S
C842 C841 1.387 . S
C842 C845 1.387 . S
H843 C839 0.950 . S
H844 C841 0.950 . S
C845 C836 1.390 . S
C845 H838 0.950 . S
C845 C842 1.387 . S
C846 C847 1.387 . S
C846 H850 0.950 . S
C846 C855 1.390 . S
C847 C846 1.387 . S
C847 C849 1.387 . S
H848 C855 0.950 . S
C849 C847 1.387 . S
C849 C851 1.390 . S
C849 H853 0.950 . S
H850 C846 0.950 . S
C851 C849 1.390 . S
C851 C852 1.387 . S
C851 H854 0.950 . S
C852 C851 1.387 . S
C852 C855 1.387 . S
H853 C849 0.950 . S
H854 C851 0.950 . S
C855 C846 1.390 . S
C855 H848 0.950 . S
C855 C852 1.387 . S
C856 C857 1.387 . S
C856 H860 0.950 . S
C856 C865 1.390 . S
C857 C856 1.387 . S
C857 C859 1.387 . S
H858 C865 0.950 . S
C859 C857 1.387 . S
C859 C861 1.390 . S
C859 H863 0.950 . S
H860 C856 0.950 . S
C861 C859 1.390 . S
C861 C862 1.387 . S
C861 H864 0.950 . S
C862 C861 1.387 . S
C862 C865 1.387 . S
H863 C859 0.950 . S
H864 C861 0.950 . S
C865 C856 1.390 . S
C865 H858 0.950 . S
C865 C862 1.387 . S
C866 C867 1.387 . S
C866 H870 0.950 . S
C866 C875 1.390 . S
C867 C866 1.387 . S
C867 C869 1.387 . S
H868 C875 0.950 . S
C869 C867 1.387 . S
C869 C871 1.390 . S
C869 H873 0.950 . S
H870 C866 0.950 . S
C871 C869 1.390 . S
C871 C872 1.387 . S
C871 H874 0.950 . S
C872 C871 1.387 . S
C872 C875 1.387 . S
H873 C869 0.950 . S
H874 C871 0.950 . S
C875 C866 1.390 . S
C875 H868 0.950 . S
C875 C872 1.387 . S
C876 C877 1.387 . S
C876 H880 0.950 . S
C876 C885 1.390 . S
C877 C876 1.387 . S
C877 C879 1.387 . S
H878 C885 0.950 . S
C879 C877 1.387 . S
C879 C881 1.390 . S
C879 H883 0.950 . S
H880 C876 0.950 . S
C881 C879 1.390 . S
C881 C882 1.387 . S
C881 H884 0.950 . S
C882 C881 1.387 . S
C882 C885 1.387 . S
H883 C879 0.950 . S
H884 C881 0.950 . S
C885 C876 1.390 . S
C885 H878 0.950 . S
C885 C882 1.387 . S
C886 C887 1.387 . S
C886 H890 0.950 . S
C886 C895 1.390 . S
C887 C886 1.387 . S
C887 C889 1.387 . S
H888 C895 0.950 . S
C889 C887 1.387 . S
C889 C891 1.390 . S
C889 H893 0.950 . S
H890 C886 0.950 . S
C891 C889 1.390 . S
C891 C892 1.387 . S
C891 H894 0.950 . S
C892 C891 1.387 . S
C892 C895 1.387 . S
H893 C889 0.950 . S
H894 C891 0.950 . S
C895 C886 1.390 . S
C895 H888 0.950 . S
C895 C892 1.387 . S
C577 C148 1.385 1_554 S
C582 C4 1.385 . S
C587 C184 1.384 1_554 S
C592 C40 1.385 . S
C597 C220 1.384 1_554 S
C602 C76 1.384 . S
C607 C256 1.385 1_554 S
C612 C112 1.385 . S
C617 C436 1.385 . S
C622 C292 1.385 . S
C627 C472 1.384 . S
C632 C328 1.384 . S
C637 C364 1.384 . S
C642 C508 1.384 . S
C647 C544 1.384 . S
C652 C400 1.384 . S
C657 C3 1.471 . S
C662 C183 1.470 1_556 S
C667 C219 1.471 1_556 S
C672 C39 1.470 . S
C677 C75 1.470 . S
C682 C255 1.470 1_556 S
C687 C147 1.470 1_556 S
C692 C111 1.470 . S
C697 C471 1.471 . S
C702 C291 1.470 . S
C707 C507 1.471 . S
C712 C327 1.470 . S
C717 C363 1.471 . S
C722 C543 1.470 . S
C727 C399 1.470 . S
C732 C435 1.470 . S
C737 C542 1.465 . S
C742 C2 1.466 . S
C747 C434 1.464 . S
C752 C38 1.465 . S
C757 C470 1.465 . S
C762 C74 1.466 . S
C767 C506 1.464 . S
C772 C110 1.465 . S
C777 C326 1.465 . S
C782 C146 1.466 . S
C787 C362 1.464 . S
C792 C182 1.465 . S
C797 C218 1.464 . S
C802 C398 1.465 . S
C807 C254 1.464 . S
C812 C290 1.464 . S
C817 C482 1.369 . S
C822 C86 1.371 . S
C827 C518 1.370 . S
C832 C122 1.371 . S
C837 C554 1.371 . S
C842 C14 1.369 . S
C847 C50 1.369 . S
C852 C446 1.371 . S
C857 C410 1.369 . S
C862 C230 1.371 . S
C867 C266 1.371 . S
C872 C302 1.369 . S
C877 C338 1.371 . S
C882 C158 1.370 . S
C887 C374 1.371 . S
C892 C194 1.370 . S
