# Generated by pormake.
# Topology wjh, (4)-cn, num edge types: 1
# Building blocks:
#     Node 0, Type 0, BuildingBlock: KUFVIS_clean_sbu_0, # of connection points: 4
#     Node 1, Type 0, BuildingBlock: KUFVIS_clean_sbu_0, # of connection points: 4
#     Node 2, Type 0, BuildingBlock: KUFVIS_clean_sbu_0, # of connection points: 4
#     Node 3, Type 0, BuildingBlock: KUFVIS_clean_sbu_0, # of connection points: 4
#     Node 4, Type 0, BuildingBlock: KUFVIS_clean_sbu_0, # of connection points: 4
#     Node 5, Type 0, BuildingBlock: KUFVIS_clean_sbu_0, # of connection points: 4
#     Node 6, Type 0, BuildingBlock: KUFVIS_clean_sbu_0, # of connection points: 4
#     Node 7, Type 0, BuildingBlock: KUFVIS_clean_sbu_0, # of connection points: 4
#     Node 8, Type 0, BuildingBlock: KUFVIS_clean_sbu_0, # of connection points: 4
#     Node 9, Type 0, BuildingBlock: KUFVIS_clean_sbu_0, # of connection points: 4
#     Node 10, Type 0, BuildingBlock: KUFVIS_clean_sbu_0, # of connection points: 4
#     Node 11, Type 0, BuildingBlock: KUFVIS_clean_sbu_0, # of connection points: 4
#     Edge 12, Type (0, 0), BuildingBlock: EYOCIG_clean_linker_4, # of connection points: 2
#     Edge 13, Type (0, 0), BuildingBlock: EYOCIG_clean_linker_4, # of connection points: 2
#     Edge 14, Type (0, 0), BuildingBlock: EYOCIG_clean_linker_4, # of connection points: 2
#     Edge 15, Type (0, 0), BuildingBlock: EYOCIG_clean_linker_4, # of connection points: 2
#     Edge 16, Type (0, 0), BuildingBlock: EYOCIG_clean_linker_4, # of connection points: 2
#     Edge 17, Type (0, 0), BuildingBlock: EYOCIG_clean_linker_4, # of connection points: 2
#     Edge 18, Type (0, 0), BuildingBlock: EYOCIG_clean_linker_4, # of connection points: 2
#     Edge 19, Type (0, 0), BuildingBlock: EYOCIG_clean_linker_4, # of connection points: 2
#     Edge 20, Type (0, 0), BuildingBlock: EYOCIG_clean_linker_4, # of connection points: 2
#     Edge 21, Type (0, 0), BuildingBlock: EYOCIG_clean_linker_4, # of connection points: 2
#     Edge 22, Type (0, 0), BuildingBlock: EYOCIG_clean_linker_4, # of connection points: 2
#     Edge 23, Type (0, 0), BuildingBlock: EYOCIG_clean_linker_4, # of connection points: 2
#     Edge 24, Type (0, 0), BuildingBlock: EYOCIG_clean_linker_4, # of connection points: 2
#     Edge 25, Type (0, 0), BuildingBlock: EYOCIG_clean_linker_4, # of connection points: 2
#     Edge 26, Type (0, 0), BuildingBlock: EYOCIG_clean_linker_4, # of connection points: 2
#     Edge 27, Type (0, 0), BuildingBlock: EYOCIG_clean_linker_4, # of connection points: 2
#     Edge 28, Type (0, 0), BuildingBlock: EYOCIG_clean_linker_4, # of connection points: 2
#     Edge 29, Type (0, 0), BuildingBlock: EYOCIG_clean_linker_4, # of connection points: 2
#     Edge 30, Type (0, 0), BuildingBlock: EYOCIG_clean_linker_4, # of connection points: 2
#     Edge 31, Type (0, 0), BuildingBlock: EYOCIG_clean_linker_4, # of connection points: 2
#     Edge 32, Type (0, 0), BuildingBlock: EYOCIG_clean_linker_4, # of connection points: 2
#     Edge 33, Type (0, 0), BuildingBlock: EYOCIG_clean_linker_4, # of connection points: 2
#     Edge 34, Type (0, 0), BuildingBlock: EYOCIG_clean_linker_4, # of connection points: 2
#     Edge 35, Type (0, 0), BuildingBlock: EYOCIG_clean_linker_4, # of connection points: 2
# Relax obj value: 0.089
# Max RMSD: 0.110
# Mean RMSD: 0.110
data_MOF--net-wjh--node1-KUFVIS_clean_sbu_0--edge1-EYOCIG_clean_linker_4
_symmetry_space_group_name_H-M    P1
_symmetry_Int_Tables_number       1
_symmetry_cell_setting            triclinic
loop_
_symmetry_equiv_pos_as_xyz
'x, y, z'
_cell_length_a     48.693484
_cell_length_b     48.690799
_cell_length_c     20.720675
_cell_angle_alpha  90.024906
_cell_angle_beta   90.019965
_cell_angle_gamma 119.99078
loop_
_atom_site_label
_atom_site_type_symbol
_atom_site_fract_x
_atom_site_fract_y
_atom_site_fract_z
_atom_type_partial_charge
Mn0 Mn 0.5339 0.15713 0.05991 0.0
Mn1 Mn 0.56888 0.11206 0.0505 0.0
C2 C 0.54763 0.14036 0.15208 0.0
C3 C 0.53643 0.20602 0.06964 0.0
C4 C 0.49832 0.08566 0.03426 0.0
O5 O 0.54923 0.16355 0.96593 0.0
O6 O 0.57272 0.13353 0.96686 0.0
C7 C 0.63557 0.16304 0.03324 0.0
N8 N 0.61321 0.13805 0.06779 0.0
C9 C 0.6525 0.14116 0.1426 0.0
C10 C 0.67594 0.1669 0.10775 0.0
C11 C 0.66742 0.1779 0.05289 0.0
C12 C 0.62114 0.12736 0.12082 0.0
H13 H 0.6292 0.17146 -0.00923 0.0
C14 C 0.56505 0.15216 0.93899 0.0
O15 O 0.51102 0.18131 0.04838 0.0
O16 O 0.5611 0.20312 0.07985 0.0
N17 N 0.5674 0.09019 0.12825 0.0
C18 C 0.54215 0.06431 0.15496 0.0
C19 C 0.54678 0.04994 0.20932 0.0
C20 C 0.57727 0.06226 0.23576 0.0
C21 C 0.60296 0.08865 0.20695 0.0
C22 C 0.59695 0.10183 0.15242 0.0
H23 H 0.51867 0.0545 0.13472 0.0
O24 O 0.52637 0.14889 0.15438 0.0
O25 O 0.56066 0.14226 0.09645 0.0
O26 O 0.49816 0.11163 0.04075 0.0
O27 O 0.52331 0.08341 0.03507 0.0
C28 C 0.6343 0.10225 0.22992 0.0
C29 C 0.65906 0.1285 0.19779 0.0
H30 H 0.70056 0.17832 0.12253 0.0
H31 H 0.68539 0.19769 0.02562 0.0
H32 H 0.52688 0.02924 0.23039 0.0
H33 H 0.58071 0.05115 0.27786 0.0
H34 H 0.63965 0.09264 0.27212 0.0
H35 H 0.68309 0.13867 0.21573 0.0
Mn36 Mn 0.38866 0.52802 0.22665 0.0
Mn37 Mn 0.4687 0.56302 0.21717 0.0
C38 C 0.41922 0.54189 0.31881 0.0
C39 C 0.34227 0.53052 0.23625 0.0
C40 C 0.42455 0.49244 0.20116 0.0
O41 O 0.39752 0.54326 0.13257 0.0
O42 O 0.45102 0.56681 0.13352 0.0
C43 C 0.4844 0.6297 0.19976 0.0
N44 N 0.48705 0.60736 0.23436 0.0
C45 C 0.5233 0.64669 0.30904 0.0
C46 C 0.52099 0.67012 0.27413 0.0
C47 C 0.50141 0.66157 0.21933 0.0
C48 C 0.50571 0.61531 0.28735 0.0
H49 H 0.46958 0.62331 0.15733 0.0
C50 C 0.42471 0.55909 0.10562 0.0
O51 O 0.3416 0.5051 0.21515 0.0
O52 O 0.36983 0.55522 0.24639 0.0
N53 N 0.48912 0.56157 0.29493 0.0
C54 C 0.48977 0.53633 0.32169 0.0
C55 C 0.50882 0.54098 0.376 0.0
C56 C 0.52701 0.57149 0.40235 0.0
C57 C 0.5263 0.59717 0.37349 0.0
C58 C 0.50706 0.59113 0.31902 0.0
H59 H 0.47608 0.51284 0.30152 0.0
O60 O 0.38944 0.52062 0.32119 0.0
O61 O 0.4303 0.55484 0.26311 0.0
O62 O 0.39842 0.49227 0.20772 0.0
O63 O 0.45177 0.51744 0.20184 0.0
C64 C 0.54408 0.62853 0.39636 0.0
C65 C 0.54257 0.65328 0.36418 0.0
H66 H 0.53422 0.69475 0.28884 0.0
H67 H 0.49959 0.67953 0.19201 0.0
H68 H 0.50964 0.52109 0.3971 0.0
H69 H 0.54161 0.57496 0.44442 0.0
H70 H 0.55909 0.63391 0.43852 0.0
H71 H 0.55647 0.67733 0.38205 0.0
Mn72 Mn 0.87253 0.3826 0.39323 0.0
Mn73 Mn 0.91764 0.46263 0.38379 0.0
C74 C 0.88929 0.41314 0.48539 0.0
C75 C 0.8236 0.33629 0.40279 0.0
C76 C 0.944 0.41841 0.36785 0.0
O77 O 0.86615 0.39147 0.29916 0.0
O78 O 0.89619 0.44497 0.3001 0.0
C79 C 0.86671 0.47839 0.36618 0.0
N80 N 0.89168 0.48101 0.40087 0.0
C81 C 0.88859 0.51727 0.47551 0.0
C82 C 0.86287 0.51498 0.44051 0.0
C83 C 0.85187 0.49542 0.38568 0.0
C84 C 0.90237 0.49966 0.45388 0.0
H85 H 0.85829 0.46358 0.32373 0.0
C86 C 0.87756 0.41867 0.27221 0.0
O87 O 0.84831 0.33554 0.38171 0.0
O88 O 0.82653 0.36387 0.41294 0.0
N89 N 0.93951 0.48305 0.46158 0.0
C90 C 0.96539 0.48369 0.4884 0.0
C91 C 0.97977 0.50273 0.54274 0.0
C92 C 0.96745 0.52093 0.56905 0.0
C93 C 0.94107 0.52023 0.54012 0.0
C94 C 0.92788 0.501 0.48562 0.0
H95 H 0.97519 0.46999 0.46826 0.0
O96 O 0.88072 0.38334 0.48775 0.0
O97 O 0.88742 0.42425 0.4297 0.0
O98 O 0.91802 0.39229 0.37432 0.0
O99 O 0.94626 0.44565 0.36858 0.0
C100 C 0.92749 0.53802 0.56294 0.0
C101 C 0.90125 0.53653 0.53068 0.0
H102 H 0.85148 0.52822 0.45517 0.0
H103 H 0.8321 0.49362 0.3583 0.0
H104 H 1.00047 0.50354 0.56389 0.0
H105 H 0.97857 0.53552 0.61114 0.0
H106 H 0.93711 0.55301 0.60512 0.0
H107 H 0.89111 0.55043 0.5485 0.0
Mn108 Mn 0.50189 0.86674 0.55989 0.0
Mn109 Mn 0.46686 0.91177 0.5503 0.0
C110 C 0.48799 0.88342 0.65199 0.0
C111 C 0.4994 0.81786 0.56952 0.0
C112 C 0.53744 0.93822 0.53457 0.0
O113 O 0.48667 0.86037 0.46575 0.0
O114 O 0.46312 0.89033 0.46663 0.0
C115 C 0.4002 0.86076 0.5326 0.0
N116 N 0.42252 0.88575 0.5673 0.0
C117 C 0.38315 0.8826 0.64186 0.0
C118 C 0.35975 0.85686 0.60685 0.0
C119 C 0.36834 0.84587 0.55206 0.0
C120 C 0.41453 0.89642 0.62028 0.0
H121 H 0.40662 0.85235 0.49018 0.0
C122 C 0.47085 0.87174 0.43875 0.0
O123 O 0.52482 0.84261 0.54849 0.0
O124 O 0.4747 0.82072 0.57955 0.0
N125 N 0.46826 0.93362 0.62807 0.0
C126 C 0.49346 0.95953 0.6549 0.0
C127 C 0.48876 0.97391 0.70917 0.0
C128 C 0.45825 0.96156 0.73543 0.0
C129 C 0.43261 0.93514 0.7065 0.0
C130 C 0.43868 0.92196 0.65205 0.0
H131 H 0.51696 0.96936 0.6348 0.0
O132 O 0.50927 0.87492 0.65445 0.0
O133 O 0.47505 0.88156 0.59625 0.0
O134 O 0.53763 0.91226 0.54108 0.0
O135 O 0.51244 0.94044 0.53518 0.0
C136 C 0.40123 0.92152 0.72926 0.0
C137 C 0.37652 0.89525 0.69699 0.0
H138 H 0.33512 0.84543 0.62147 0.0
H139 H 0.3504 0.82608 0.52467 0.0
H140 H 0.50863 0.99465 0.73031 0.0
H141 H 0.45475 0.97268 0.77747 0.0
H142 H 0.39583 0.93113 0.7714 0.0
H143 H 0.35247 0.88507 0.71477 0.0
Mn144 Mn 0.64699 0.49573 0.72682 0.0
Mn145 Mn 0.56696 0.46076 0.71709 0.0
C146 C 0.61643 0.48179 0.81886 0.0
C147 C 0.69333 0.49315 0.7363 0.0
C148 C 0.61111 0.53136 0.70166 0.0
O149 O 0.63815 0.48063 0.63263 0.0
O150 O 0.58465 0.45706 0.63343 0.0
C151 C 0.55127 0.3941 0.69921 0.0
N152 N 0.54861 0.41641 0.73397 0.0
C153 C 0.51236 0.377 0.8084 0.0
C154 C 0.51469 0.35361 0.77333 0.0
C155 C 0.53426 0.36221 0.71857 0.0
C156 C 0.52995 0.40839 0.78693 0.0
H157 H 0.56609 0.40053 0.65681 0.0
C158 C 0.61097 0.46482 0.60559 0.0
O159 O 0.69405 0.51862 0.71545 0.0
O160 O 0.66576 0.46846 0.74627 0.0
N161 N 0.5465 0.46213 0.79485 0.0
C162 C 0.54579 0.48732 0.82171 0.0
C163 C 0.5267 0.4826 0.87592 0.0
C164 C 0.50854 0.45208 0.90211 0.0
C165 C 0.50931 0.42644 0.87315 0.0
C166 C 0.52857 0.43253 0.81874 0.0
H167 H 0.55946 0.51083 0.80165 0.0
O168 O 0.64621 0.50302 0.8214 0.0
O169 O 0.60534 0.4689 0.76308 0.0
O170 O 0.63725 0.53153 0.70822 0.0
O171 O 0.58389 0.50636 0.7021 0.0
C172 C 0.49154 0.39505 0.89582 0.0
C173 C 0.49308 0.37035 0.8635 0.0
H174 H 0.50147 0.32896 0.78787 0.0
H175 H 0.5361 0.34428 0.69113 0.0
H176 H 0.52581 0.50246 0.89706 0.0
H177 H 0.4939 0.44856 0.94412 0.0
H178 H 0.47651 0.38963 0.93792 0.0
H179 H 0.47919 0.34628 0.8812 0.0
Mn180 Mn 0.16296 0.64104 0.89336 0.0
Mn181 Mn 0.11784 0.561 0.88392 0.0
C182 C 0.14626 0.61056 0.98553 0.0
C183 C 0.21188 0.68738 0.90295 0.0
C184 C 0.09147 0.60521 0.86796 0.0
O185 O 0.16928 0.63209 0.79929 0.0
O186 O 0.13926 0.5786 0.80025 0.0
C187 C 0.16878 0.54524 0.86644 0.0
N188 N 0.14382 0.54263 0.90107 0.0
C189 C 0.14696 0.50646 0.97579 0.0
C190 C 0.17267 0.50874 0.94086 0.0
C191 C 0.18365 0.52825 0.88601 0.0
C192 C 0.13315 0.52403 0.9541 0.0
H193 H 0.17719 0.56002 0.82398 0.0
C194 C 0.15787 0.60488 0.77234 0.0
O195 O 0.18715 0.6881 0.88185 0.0
O196 O 0.20898 0.65981 0.9131 0.0
N197 N 0.09601 0.54064 0.9617 0.0
C198 C 0.07012 0.54 -0.01154 0.0
C199 C 0.05576 0.52099 0.04277 0.0
C200 C 0.06809 0.50283 0.06914 0.0
C201 C 0.09447 0.50352 0.04028 0.0
C202 C 0.10764 0.52271 -0.01421 0.0
H203 H 0.06031 0.55367 0.96827 0.0
O204 O 0.15481 0.64035 -0.0121 0.0
O205 O 0.14809 0.59942 0.92985 0.0
O206 O 0.11745 0.63133 0.87444 0.0
O207 O 0.08921 0.57797 0.86866 0.0
C208 C 0.10808 0.48577 0.06317 0.0
C209 C 0.13432 0.48726 0.03098 0.0
H210 H 0.18409 0.49553 0.95557 0.0
H211 H 0.20342 0.53005 0.85868 0.0
H212 H 0.03505 0.52018 0.06386 0.0
H213 H 0.05698 0.48826 0.11122 0.0
H214 H 0.09848 0.47081 0.10535 0.0
H215 H 0.14449 0.47338 0.04885 0.0
Mn216 Mn 0.87251 0.49564 0.85256 0.0
Mn217 Mn 0.9177 0.46079 0.86217 0.0
C218 C 0.88925 0.48182 0.76047 0.0
C219 C 0.82358 0.49302 0.84292 0.0
C220 C 0.94399 0.53136 0.87799 0.0
O221 O 0.86618 0.48044 0.94663 0.0
O222 O 0.89625 0.45701 0.94581 0.0
C223 C 0.86683 0.39408 0.87979 0.0
N224 N 0.89177 0.41643 0.84511 0.0
C225 C 0.88872 0.37708 0.77054 0.0
C226 C 0.86304 0.35365 0.80552 0.0
C227 C 0.85203 0.3622 0.86032 0.0
C228 C 0.90246 0.40846 0.79213 0.0
H229 H 0.85841 0.40048 0.92222 0.0
C230 C 0.87761 0.46468 0.97364 0.0
O231 O 0.84829 0.51848 0.864 0.0
O232 O 0.8265 0.46835 0.83281 0.0
N233 N 0.93955 0.46222 0.78443 0.0
C234 C 0.96541 0.48746 0.75762 0.0
C235 C 0.9798 0.48279 0.70334 0.0
C236 C 0.9675 0.45228 0.67705 0.0
C237 C 0.94115 0.4266 0.70595 0.0
C238 C 0.92795 0.43264 0.76041 0.0
H239 H 0.97519 0.51096 0.77775 0.0
O240 O 0.88067 0.50304 0.75804 0.0
O241 O 0.88742 0.46888 0.81617 0.0
O242 O 0.91799 0.53146 0.87147 0.0
O243 O 0.94628 0.5064 0.87736 0.0
C244 C 0.9276 0.39522 0.68316 0.0
C245 C 0.90139 0.37048 0.71541 0.0
H246 H 0.85166 0.32901 0.79089 0.0
H247 H 0.83228 0.34424 0.88769 0.0
H248 H 1.00048 0.50269 0.68221 0.0
H249 H 0.97863 0.4488 0.63499 0.0
H250 H 0.93722 0.38984 0.64102 0.0
H251 H 0.89127 0.34642 0.69761 0.0
Mn252 Mn 0.38859 0.8666 0.01906 0.0
Mn253 Mn 0.46864 0.91168 0.02846 0.0
C254 C 0.41906 0.88321 0.92688 0.0
C255 C 0.34223 0.81768 0.00962 0.0
C256 C 0.42447 0.93811 0.0442 0.0
O257 O 0.39754 0.86034 0.11318 0.0
O258 O 0.45103 0.89032 0.11218 0.0
C259 C 0.48438 0.86074 0.04621 0.0
N260 N 0.48699 0.88568 0.01146 0.0
C261 C 0.5232 0.8825 0.9369 0.0
C262 C 0.52093 0.85682 0.97196 0.0
C263 C 0.50139 0.84587 0.02678 0.0
C264 C 0.50561 0.8963 0.95845 0.0
H265 H 0.4696 0.85237 0.08866 0.0
C266 C 0.42475 0.87175 0.14012 0.0
O267 O 0.34154 0.84244 0.03061 0.0
O268 O 0.36978 0.82055 -0.0005 0.0
N269 N 0.48902 0.93346 0.95065 0.0
C270 C 0.48968 0.95934 0.92381 0.0
C271 C 0.50872 0.97368 0.86952 0.0
C272 C 0.52688 0.96132 0.84325 0.0
C273 C 0.52616 0.93494 0.87219 0.0
C274 C 0.50694 0.9218 0.92667 0.0
H275 H 0.47602 0.96918 0.94393 0.0
O276 O 0.38928 0.87466 0.9245 0.0
O277 O 0.43021 0.88141 0.98258 0.0
O278 O 0.39834 0.91213 0.03778 0.0
O279 O 0.4517 0.94034 0.04358 0.0
C280 C 0.54393 0.92132 0.84944 0.0
C281 C 0.54243 0.89511 0.88175 0.0
H282 H 0.53416 0.8454 0.95736 0.0
H283 H 0.4996 0.82613 0.05422 0.0
H284 H 0.50956 0.99439 0.84838 0.0
H285 H 0.54147 0.97241 0.80118 0.0
H286 H 0.55891 0.93091 0.80729 0.0
H287 H 0.55633 0.88494 0.86398 0.0
Mn288 Mn 0.53385 0.38262 0.18595 0.0
Mn289 Mn 0.56887 0.46268 0.19516 0.0
C290 C 0.54767 0.41304 0.09371 0.0
C291 C 0.53638 0.33625 0.17663 0.0
C292 C 0.49829 0.41857 0.21103 0.0
O293 O 0.5491 0.39161 0.28002 0.0
O294 O 0.57266 0.44511 0.27891 0.0
C295 C 0.63555 0.47839 0.21285 0.0
N296 N 0.6132 0.48099 0.17809 0.0
C297 C 0.65254 0.51714 0.10344 0.0
C298 C 0.67596 0.51488 0.1385 0.0
C299 C 0.66741 0.49538 0.19337 0.0
C300 C 0.62116 0.49958 0.12504 0.0
H301 H 0.62916 0.46363 0.25533 0.0
C302 C 0.56494 0.41883 0.3069 0.0
O303 O 0.51095 0.33558 0.19761 0.0
O304 O 0.56106 0.36379 0.16645 0.0
N305 N 0.56743 0.48302 0.11729 0.0
C306 C 0.54221 0.48368 0.09046 0.0
C307 C 0.54687 0.50269 0.03612 0.0
C308 C 0.57737 0.52082 0.0098 0.0
C309 C 0.60303 0.5201 0.03874 0.0
C310 C 0.59699 0.50091 0.09325 0.0
H311 H 0.51872 0.47004 0.11061 0.0
O312 O 0.52641 0.38325 0.09139 0.0
O313 O 0.56065 0.42421 0.14938 0.0
O314 O 0.4981 0.39242 0.20465 0.0
O315 O 0.52329 0.44579 0.21034 0.0
C316 C 0.6344 0.53784 0.01593 0.0
C317 C 0.65913 0.53635 0.04824 0.0
H318 H 0.7006 0.52809 0.12387 0.0
H319 H 0.68537 0.4936 0.22081 0.0
H320 H 0.52699 0.50354 0.015 0.0
H321 H 0.58084 0.53539 0.9677 0.0
H322 H 0.63978 0.55281 0.97375 0.0
H323 H 0.68318 0.55023 0.03044 0.0
Mn324 Mn 0.16302 0.52785 0.35249 0.0
Mn325 Mn 0.11794 0.56283 0.36214 0.0
C326 C 0.14634 0.54176 0.2604 0.0
C327 C 0.21192 0.53039 0.34295 0.0
C328 C 0.09153 0.49224 0.3777 0.0
O329 O 0.16934 0.54302 0.44666 0.0
O330 O 0.13935 0.56654 0.44582 0.0
C331 C 0.16892 0.62948 0.37998 0.0
N332 N 0.14394 0.60718 0.34524 0.0
C333 C 0.14708 0.64658 0.27078 0.0
C334 C 0.17281 0.66997 0.30583 0.0
C335 C 0.1838 0.66136 0.36059 0.0
C336 C 0.13328 0.61519 0.29228 0.0
H337 H 0.17733 0.62305 0.42237 0.0
C338 C 0.15794 0.55881 0.4737 0.0
O339 O 0.18718 0.50495 0.36388 0.0
O340 O 0.20904 0.55509 0.33293 0.0
N341 N 0.0961 0.56146 0.28437 0.0
C342 C 0.0702 0.53626 0.2575 0.0
C343 C 0.05582 0.54098 0.20326 0.0
C344 C 0.06817 0.5715 0.17707 0.0
C345 C 0.09457 0.59714 0.20604 0.0
C346 C 0.10775 0.59105 0.26047 0.0
H347 H 0.06037 0.51275 0.27756 0.0
O348 O 0.15488 0.52052 0.25791 0.0
O349 O 0.14818 0.55468 0.31617 0.0
O350 O 0.1175 0.49208 0.37119 0.0
O351 O 0.08929 0.51723 0.37716 0.0
C352 C 0.10819 0.62853 0.18335 0.0
C353 C 0.13444 0.65323 0.21567 0.0
H354 H 0.18424 0.69461 0.29126 0.0
H355 H 0.20359 0.67929 0.38801 0.0
H356 H 0.03509 0.52112 0.18209 0.0
H357 H 0.05705 0.57502 0.13504 0.0
H358 H 0.09857 0.63394 0.14124 0.0
H359 H 0.14461 0.67729 0.19795 0.0
Mn360 Mn 0.64699 0.15724 0.51923 0.0
Mn361 Mn 0.56697 0.11212 0.52889 0.0
C362 C 0.61639 0.14049 0.42716 0.0
C363 C 0.69332 0.20615 0.50962 0.0
C364 C 0.6112 0.08577 0.54458 0.0
O365 O 0.63817 0.1636 0.61335 0.0
O366 O 0.58468 0.13358 0.61254 0.0
C367 C 0.55116 0.16302 0.54664 0.0
N368 N 0.54855 0.13806 0.51191 0.0
C369 C 0.51221 0.1411 0.43743 0.0
C370 C 0.51449 0.1668 0.47247 0.0
C371 C 0.53409 0.17783 0.52724 0.0
C372 C 0.52986 0.12735 0.45895 0.0
H373 H 0.566 0.17145 0.58906 0.0
C374 C 0.611 0.15221 0.64038 0.0
O375 O 0.69405 0.18143 0.53063 0.0
O376 O 0.66574 0.20325 0.49957 0.0
N377 N 0.5465 0.09024 0.45113 0.0
C378 C 0.54587 0.06437 0.42426 0.0
C379 C 0.5268 0.04997 0.36997 0.0
C380 C 0.50857 0.06227 0.34375 0.0
C381 C 0.50926 0.08863 0.37273 0.0
C382 C 0.52852 0.10184 0.42718 0.0
H383 H 0.5596 0.05458 0.44434 0.0
O384 O 0.64618 0.14905 0.42469 0.0
O385 O 0.60532 0.14236 0.48289 0.0
O386 O 0.63731 0.11174 0.53804 0.0
O387 O 0.58396 0.0835 0.544 0.0
C388 C 0.49144 0.10219 0.35 0.0
C389 C 0.49292 0.12842 0.38231 0.0
H390 H 0.50122 0.17818 0.45789 0.0
H391 H 0.53589 0.19759 0.55466 0.0
H392 H 0.526 0.02928 0.34878 0.0
H393 H 0.49396 0.05114 0.30169 0.0
H394 H 0.47641 0.09256 0.30787 0.0
H395 H 0.47898 0.13854 0.36457 0.0
Mn396 Mn 0.50186 0.64122 0.68614 0.0
Mn397 Mn 0.46677 0.56116 0.69543 0.0
C398 C 0.48801 0.61071 0.59391 0.0
C399 C 0.4994 0.68764 0.67661 0.0
C400 C 0.53735 0.60523 0.71155 0.0
O401 O 0.48658 0.63232 0.78019 0.0
O402 O 0.46299 0.57882 0.77913 0.0
C403 C 0.40012 0.54556 0.71283 0.0
N404 N 0.42245 0.54288 0.67822 0.0
C405 C 0.3831 0.50671 0.60347 0.0
C406 C 0.35969 0.50905 0.63839 0.0
C407 C 0.36826 0.5286 0.69324 0.0
C408 C 0.41447 0.52425 0.62518 0.0
H409 H 0.40652 0.56037 0.75529 0.0
C410 C 0.47072 0.60512 0.80708 0.0
O411 O 0.5248 0.68828 0.69774 0.0
O412 O 0.4747 0.66009 0.66641 0.0
N413 N 0.4682 0.54075 0.61763 0.0
C414 C 0.49341 0.54006 0.59086 0.0
C415 C 0.48874 0.52103 0.53651 0.0
C416 C 0.45824 0.50289 0.51013 0.0
C417 C 0.43258 0.50364 0.53899 0.0
C418 C 0.43863 0.52286 0.59351 0.0
H419 H 0.51691 0.55372 0.61106 0.0
O420 O 0.5093 0.64048 0.59161 0.0
O421 O 0.47502 0.5996 0.64957 0.0
O422 O 0.53756 0.63139 0.70508 0.0
O423 O 0.51234 0.57802 0.71078 0.0
C424 C 0.40121 0.48591 0.51609 0.0
C425 C 0.37649 0.48746 0.54829 0.0
H426 H 0.33506 0.49586 0.62366 0.0
H427 H 0.35031 0.53045 0.72056 0.0
H428 H 0.50861 0.52018 0.51541 0.0
H429 H 0.45476 0.4883 0.46802 0.0
H430 H 0.39583 0.47092 0.47391 0.0
H431 H 0.35245 0.4736 0.5304 0.0
C432 C 0.57042 0.13198 0.26052 0.0
C433 C 0.56026 0.13575 0.21058 0.0
C434 C 0.58506 0.13201 0.31886 0.0
C435 C 0.59905 0.13583 0.36876 0.0
C436 C 0.45049 0.56483 0.42716 0.0
C437 C 0.43651 0.5546 0.37726 0.0
C438 C 0.46513 0.57949 0.48548 0.0
C439 C 0.47534 0.59345 0.53541 0.0
C440 C 0.89772 0.459 0.65213 0.0
C441 C 0.89391 0.46917 0.70204 0.0
C442 C 0.89772 0.44439 0.59378 0.0
C443 C 0.89393 0.43042 0.54385 0.0
C444 C 0.46499 0.89169 0.76026 0.0
C445 C 0.47524 0.88796 0.71039 0.0
C446 C 0.4503 0.89163 0.81854 0.0
C447 C 0.43633 0.88784 0.86843 0.0
C448 C 0.57049 0.44419 0.98532 0.0
C449 C 0.56031 0.43025 0.03523 0.0
C450 C 0.58512 0.45883 0.92705 0.0
C451 C 0.59911 0.46906 0.8772 0.0
C452 C 0.13795 0.56471 0.15217 0.0
C453 C 0.14173 0.55448 0.20202 0.0
C454 C 0.13793 0.57935 0.09389 0.0
C455 C 0.14168 0.59331 0.044 0.0
C456 C 0.53613 0.28448 0.1361 0.0
C457 C 0.53576 0.30781 0.15491 0.0
C458 C 0.53615 0.25747 0.11047 0.0
C459 C 0.5358 0.2338 0.09153 0.0
C460 C 0.29049 0.53022 0.27685 0.0
C461 C 0.31384 0.52989 0.25803 0.0
C462 C 0.26345 0.53018 0.30239 0.0
C463 C 0.23975 0.5298 0.3212 0.0
C464 C 0.74503 0.25763 0.46896 0.0
C465 C 0.7217 0.23395 0.4878 0.0
C466 C 0.77207 0.28461 0.44339 0.0
C467 C 0.79577 0.3079 0.42456 0.0
C468 C 0.49971 0.76642 0.61031 0.0
C469 C 0.50005 0.79009 0.5914 0.0
C470 C 0.49972 0.73941 0.63595 0.0
C471 C 0.50007 0.71608 0.65482 0.0
C472 C 0.74504 0.49328 0.77678 0.0
C473 C 0.72173 0.49369 0.75801 0.0
C474 C 0.77206 0.49323 0.8023 0.0
C475 C 0.79574 0.49358 0.82112 0.0
C476 C 0.26341 0.73912 0.94357 0.0
C477 C 0.23971 0.7158 0.92473 0.0
C478 C 0.29045 0.76616 0.96911 0.0
C479 C 0.3138 0.78986 -0.01211 0.0
C480 C 0.60058 0.16416 0.75913 0.0
C481 C 0.6086 0.16068 0.7059 0.0
C482 C 0.58753 0.16414 0.82035 0.0
C483 C 0.576 0.16065 0.87353 0.0
C484 C 0.44828 0.59461 0.92576 0.0
C485 C 0.45981 0.60266 0.87258 0.0
C486 C 0.4352 0.58153 -0.01306 0.0
C487 C 0.42715 0.57 0.04013 0.0
C488 C 0.86565 0.44224 0.09231 0.0
C489 C 0.86913 0.45375 0.03911 0.0
C490 C 0.86564 0.42916 0.1535 0.0
C491 C 0.8691 0.42111 0.2067 0.0
C492 C 0.44843 0.85985 0.32 0.0
C493 C 0.45995 0.86329 0.37321 0.0
C494 C 0.43533 0.85986 0.25881 0.0
C495 C 0.42725 0.86332 0.20562 0.0
C496 C 0.6005 0.44248 0.4868 0.0
C497 C 0.60855 0.45396 0.54004 0.0
C498 C 0.58741 0.42941 0.42559 0.0
C499 C 0.57588 0.42134 0.3724 0.0
C500 C 0.16982 0.5812 0.59248 0.0
C501 C 0.16638 0.56969 0.53925 0.0
C502 C 0.16979 0.59429 0.65367 0.0
C503 C 0.16633 0.60237 0.70686 0.0
C504 C 0.44867 0.02859 0.03633 0.0
C505 C 0.46879 0.05624 0.03487 0.0
C506 C 0.43194 0.9952 0.04169 0.0
C507 C 0.42438 0.96754 0.04333 0.0
C508 C 0.44869 0.42608 0.20864 0.0
C509 C 0.46878 0.41851 0.21023 0.0
C510 C 0.43201 0.4428 0.20331 0.0
C511 C 0.42447 0.46292 0.20184 0.0
C512 C 0.03447 0.44257 0.37533 0.0
C513 C 0.06211 0.4627 0.37688 0.0
C514 C 1.00107 0.42584 0.37002 0.0
C515 C 0.97342 0.41829 0.36853 0.0
C516 C 0.58708 0.9953 0.53689 0.0
C517 C 0.56696 0.96765 0.53535 0.0
C518 C 0.60379 0.0287 0.54223 0.0
C519 C 0.61133 0.05635 0.54379 0.0
C520 C 0.60364 0.58099 0.70415 0.0
C521 C 0.61119 0.56088 0.70255 0.0
C522 C 0.58695 0.5977 0.70946 0.0
C523 C 0.56685 0.60527 0.71092 0.0
C524 C 0.03441 0.59778 0.87026 0.0
C525 C 0.06206 0.60533 0.86871 0.0
C526 C 1.00102 0.58106 0.87564 0.0
C527 C 0.97338 0.56091 0.8772 0.0
loop_
_geom_bond_atom_site_label_1
_geom_bond_atom_site_label_2
_geom_bond_distance
_geom_bond_site_symmetry_2
_ccdc_geom_bond_type
Mn0 O5 2.095 1_554 S
Mn0 O15 2.162 . S
Mn0 O16 2.297 . S
Mn0 O24 2.385 . S
Mn0 O25 2.209 . S
Mn0 O26 2.094 . S
Mn1 O6 2.121 1_554 S
Mn1 N8 2.257 . S
Mn1 N17 2.282 . S
Mn1 O25 2.215 . S
Mn1 O27 2.117 . S
C2 O24 1.234 . S
C2 O25 1.283 . S
C3 O15 1.281 . S
C3 O16 1.236 . S
C4 O26 1.240 . S
C4 O27 1.264 . S
O5 Mn0 2.095 1_556 S
O5 C14 1.250 . S
O6 Mn1 2.121 1_556 S
O6 C14 1.258 . S
C7 N8 1.326 . S
C7 C11 1.460 . S
C7 H13 0.929 . S
N8 Mn1 2.257 . S
N8 C7 1.326 . S
N8 C12 1.362 . S
C9 C10 1.258 . S
C9 C12 1.431 . S
C9 C29 1.449 . S
C10 C9 1.258 . S
C10 C11 1.477 . S
C10 H30 0.931 . S
C11 C7 1.460 . S
C11 C10 1.477 . S
C11 H31 0.930 . S
C12 N8 1.362 . S
C12 C9 1.431 . S
C12 C22 1.476 . S
H13 C7 0.929 . S
C14 O5 1.250 . S
C14 O6 1.258 . S
O15 Mn0 2.162 . S
O15 C3 1.281 . S
O16 Mn0 2.297 . S
O16 C3 1.236 . S
N17 Mn1 2.282 . S
N17 C18 1.328 . S
N17 C22 1.318 . S
C18 N17 1.328 . S
C18 C19 1.457 . S
C18 H23 0.929 . S
C19 C18 1.457 . S
C19 C20 1.291 . S
C19 H32 0.931 . S
C20 C19 1.291 . S
C20 C21 1.373 . S
C20 H33 0.929 . S
C21 C20 1.373 . S
C21 C22 1.396 . S
C21 C28 1.403 . S
C22 C12 1.476 . S
C22 N17 1.318 . S
C22 C21 1.396 . S
H23 C18 0.929 . S
O24 Mn0 2.385 . S
O24 C2 1.234 . S
O25 Mn0 2.209 . S
O25 Mn1 2.215 . S
O25 C2 1.283 . S
O26 Mn0 2.094 . S
O26 C4 1.240 . S
O27 Mn1 2.117 . S
O27 C4 1.264 . S
C28 C21 1.403 . S
C28 C29 1.399 . S
C28 H34 0.929 . S
C29 C9 1.449 . S
C29 C28 1.399 . S
C29 H35 0.930 . S
H30 C10 0.931 . S
H31 C11 0.930 . S
H32 C19 0.931 . S
H33 C20 0.929 . S
H34 C28 0.929 . S
H35 C29 0.930 . S
Mn36 O41 2.095 . S
Mn36 O51 2.162 . S
Mn36 O52 2.297 . S
Mn36 O60 2.385 . S
Mn36 O61 2.209 . S
Mn36 O62 2.094 . S
Mn37 O42 2.121 . S
Mn37 N44 2.257 . S
Mn37 N53 2.282 . S
Mn37 O61 2.215 . S
Mn37 O63 2.117 . S
C38 O60 1.234 . S
C38 O61 1.283 . S
C39 O51 1.281 . S
C39 O52 1.236 . S
C40 O62 1.240 . S
C40 O63 1.264 . S
O41 Mn36 2.095 . S
O41 C50 1.250 . S
O42 Mn37 2.121 . S
O42 C50 1.258 . S
C43 N44 1.326 . S
C43 C47 1.460 . S
C43 H49 0.929 . S
N44 Mn37 2.257 . S
N44 C43 1.326 . S
N44 C48 1.362 . S
C45 C46 1.258 . S
C45 C48 1.431 . S
C45 C65 1.449 . S
C46 C45 1.258 . S
C46 C47 1.477 . S
C46 H66 0.931 . S
C47 C43 1.460 . S
C47 C46 1.477 . S
C47 H67 0.930 . S
C48 N44 1.362 . S
C48 C45 1.431 . S
C48 C58 1.476 . S
H49 C43 0.929 . S
C50 O41 1.250 . S
C50 O42 1.258 . S
O51 Mn36 2.162 . S
O51 C39 1.281 . S
O52 Mn36 2.297 . S
O52 C39 1.236 . S
N53 Mn37 2.282 . S
N53 C54 1.328 . S
N53 C58 1.318 . S
C54 N53 1.328 . S
C54 C55 1.457 . S
C54 H59 0.929 . S
C55 C54 1.457 . S
C55 C56 1.291 . S
C55 H68 0.931 . S
C56 C55 1.291 . S
C56 C57 1.373 . S
C56 H69 0.929 . S
C57 C56 1.373 . S
C57 C58 1.396 . S
C57 C64 1.403 . S
C58 C48 1.476 . S
C58 N53 1.318 . S
C58 C57 1.396 . S
H59 C54 0.929 . S
O60 Mn36 2.385 . S
O60 C38 1.234 . S
O61 Mn36 2.209 . S
O61 Mn37 2.215 . S
O61 C38 1.283 . S
O62 Mn36 2.094 . S
O62 C40 1.240 . S
O63 Mn37 2.117 . S
O63 C40 1.264 . S
C64 C57 1.403 . S
C64 C65 1.399 . S
C64 H70 0.929 . S
C65 C45 1.449 . S
C65 C64 1.399 . S
C65 H71 0.930 . S
H66 C46 0.931 . S
H67 C47 0.930 . S
H68 C55 0.931 . S
H69 C56 0.929 . S
H70 C64 0.929 . S
H71 C65 0.930 . S
Mn72 O77 2.095 . S
Mn72 O87 2.162 . S
Mn72 O88 2.297 . S
Mn72 O96 2.385 . S
Mn72 O97 2.209 . S
Mn72 O98 2.094 . S
Mn73 O78 2.121 . S
Mn73 N80 2.257 . S
Mn73 N89 2.282 . S
Mn73 O97 2.215 . S
Mn73 O99 2.117 . S
C74 O96 1.234 . S
C74 O97 1.283 . S
C75 O87 1.281 . S
C75 O88 1.236 . S
C76 O98 1.240 . S
C76 O99 1.264 . S
O77 Mn72 2.095 . S
O77 C86 1.250 . S
O78 Mn73 2.121 . S
O78 C86 1.258 . S
C79 N80 1.326 . S
C79 C83 1.460 . S
C79 H85 0.929 . S
N80 Mn73 2.257 . S
N80 C79 1.326 . S
N80 C84 1.362 . S
C81 C82 1.258 . S
C81 C84 1.431 . S
C81 C101 1.449 . S
C82 C81 1.258 . S
C82 C83 1.477 . S
C82 H102 0.931 . S
C83 C79 1.460 . S
C83 C82 1.477 . S
C83 H103 0.930 . S
C84 N80 1.362 . S
C84 C81 1.431 . S
C84 C94 1.476 . S
H85 C79 0.929 . S
C86 O77 1.250 . S
C86 O78 1.258 . S
O87 Mn72 2.162 . S
O87 C75 1.281 . S
O88 Mn72 2.297 . S
O88 C75 1.236 . S
N89 Mn73 2.282 . S
N89 C90 1.328 . S
N89 C94 1.318 . S
C90 N89 1.328 . S
C90 C91 1.457 . S
C90 H95 0.929 . S
C91 C90 1.457 . S
C91 C92 1.291 . S
C91 H104 0.931 . S
C92 C91 1.291 . S
C92 C93 1.373 . S
C92 H105 0.929 . S
C93 C92 1.373 . S
C93 C94 1.396 . S
C93 C100 1.403 . S
C94 C84 1.476 . S
C94 N89 1.318 . S
C94 C93 1.396 . S
H95 C90 0.929 . S
O96 Mn72 2.385 . S
O96 C74 1.234 . S
O97 Mn72 2.209 . S
O97 Mn73 2.215 . S
O97 C74 1.283 . S
O98 Mn72 2.094 . S
O98 C76 1.240 . S
O99 Mn73 2.117 . S
O99 C76 1.264 . S
C100 C93 1.403 . S
C100 C101 1.399 . S
C100 H106 0.929 . S
C101 C81 1.449 . S
C101 C100 1.399 . S
C101 H107 0.930 . S
H102 C82 0.931 . S
H103 C83 0.930 . S
H104 C91 0.931 . S
H105 C92 0.929 . S
H106 C100 0.929 . S
H107 C101 0.930 . S
Mn108 O113 2.095 . S
Mn108 O123 2.162 . S
Mn108 O124 2.297 . S
Mn108 O132 2.385 . S
Mn108 O133 2.209 . S
Mn108 O134 2.094 . S
Mn109 O114 2.121 . S
Mn109 N116 2.257 . S
Mn109 N125 2.282 . S
Mn109 O133 2.215 . S
Mn109 O135 2.117 . S
C110 O132 1.234 . S
C110 O133 1.283 . S
C111 O123 1.281 . S
C111 O124 1.236 . S
C112 O134 1.240 . S
C112 O135 1.264 . S
O113 Mn108 2.095 . S
O113 C122 1.250 . S
O114 Mn109 2.121 . S
O114 C122 1.258 . S
C115 N116 1.326 . S
C115 C119 1.460 . S
C115 H121 0.929 . S
N116 Mn109 2.257 . S
N116 C115 1.326 . S
N116 C120 1.362 . S
C117 C118 1.258 . S
C117 C120 1.431 . S
C117 C137 1.449 . S
C118 C117 1.258 . S
C118 C119 1.477 . S
C118 H138 0.931 . S
C119 C115 1.460 . S
C119 C118 1.477 . S
C119 H139 0.930 . S
C120 N116 1.362 . S
C120 C117 1.431 . S
C120 C130 1.476 . S
H121 C115 0.929 . S
C122 O113 1.250 . S
C122 O114 1.258 . S
O123 Mn108 2.162 . S
O123 C111 1.281 . S
O124 Mn108 2.297 . S
O124 C111 1.236 . S
N125 Mn109 2.282 . S
N125 C126 1.328 . S
N125 C130 1.318 . S
C126 N125 1.328 . S
C126 C127 1.457 . S
C126 H131 0.929 . S
C127 C126 1.457 . S
C127 C128 1.291 . S
C127 H140 0.931 . S
C128 C127 1.291 . S
C128 C129 1.373 . S
C128 H141 0.929 . S
C129 C128 1.373 . S
C129 C130 1.396 . S
C129 C136 1.403 . S
C130 C120 1.476 . S
C130 N125 1.318 . S
C130 C129 1.396 . S
H131 C126 0.929 . S
O132 Mn108 2.385 . S
O132 C110 1.234 . S
O133 Mn108 2.209 . S
O133 Mn109 2.215 . S
O133 C110 1.283 . S
O134 Mn108 2.094 . S
O134 C112 1.240 . S
O135 Mn109 2.117 . S
O135 C112 1.264 . S
C136 C129 1.403 . S
C136 C137 1.399 . S
C136 H142 0.929 . S
C137 C117 1.449 . S
C137 C136 1.399 . S
C137 H143 0.930 . S
H138 C118 0.931 . S
H139 C119 0.930 . S
H140 C127 0.931 . S
H141 C128 0.929 . S
H142 C136 0.929 . S
H143 C137 0.930 . S
Mn144 O149 2.095 . S
Mn144 O159 2.162 . S
Mn144 O160 2.297 . S
Mn144 O168 2.385 . S
Mn144 O169 2.209 . S
Mn144 O170 2.094 . S
Mn145 O150 2.121 . S
Mn145 N152 2.257 . S
Mn145 N161 2.282 . S
Mn145 O169 2.215 . S
Mn145 O171 2.117 . S
C146 O168 1.234 . S
C146 O169 1.283 . S
C147 O159 1.281 . S
C147 O160 1.236 . S
C148 O170 1.240 . S
C148 O171 1.264 . S
O149 Mn144 2.095 . S
O149 C158 1.250 . S
O150 Mn145 2.121 . S
O150 C158 1.258 . S
C151 N152 1.326 . S
C151 C155 1.460 . S
C151 H157 0.929 . S
N152 Mn145 2.257 . S
N152 C151 1.326 . S
N152 C156 1.362 . S
C153 C154 1.258 . S
C153 C156 1.431 . S
C153 C173 1.449 . S
C154 C153 1.258 . S
C154 C155 1.477 . S
C154 H174 0.931 . S
C155 C151 1.460 . S
C155 C154 1.477 . S
C155 H175 0.930 . S
C156 N152 1.362 . S
C156 C153 1.431 . S
C156 C166 1.476 . S
H157 C151 0.929 . S
C158 O149 1.250 . S
C158 O150 1.258 . S
O159 Mn144 2.162 . S
O159 C147 1.281 . S
O160 Mn144 2.297 . S
O160 C147 1.236 . S
N161 Mn145 2.282 . S
N161 C162 1.328 . S
N161 C166 1.318 . S
C162 N161 1.328 . S
C162 C163 1.457 . S
C162 H167 0.929 . S
C163 C162 1.457 . S
C163 C164 1.291 . S
C163 H176 0.931 . S
C164 C163 1.291 . S
C164 C165 1.373 . S
C164 H177 0.929 . S
C165 C164 1.373 . S
C165 C166 1.396 . S
C165 C172 1.403 . S
C166 C156 1.476 . S
C166 N161 1.318 . S
C166 C165 1.396 . S
H167 C162 0.929 . S
O168 Mn144 2.385 . S
O168 C146 1.234 . S
O169 Mn144 2.209 . S
O169 Mn145 2.215 . S
O169 C146 1.283 . S
O170 Mn144 2.094 . S
O170 C148 1.240 . S
O171 Mn145 2.117 . S
O171 C148 1.264 . S
C172 C165 1.403 . S
C172 C173 1.399 . S
C172 H178 0.929 . S
C173 C153 1.449 . S
C173 C172 1.399 . S
C173 H179 0.930 . S
H174 C154 0.931 . S
H175 C155 0.930 . S
H176 C163 0.931 . S
H177 C164 0.929 . S
H178 C172 0.929 . S
H179 C173 0.930 . S
Mn180 O185 2.095 . S
Mn180 O195 2.162 . S
Mn180 O196 2.297 . S
Mn180 O204 2.385 1_556 S
Mn180 O205 2.209 . S
Mn180 O206 2.094 . S
Mn181 O186 2.121 . S
Mn181 N188 2.257 . S
Mn181 N197 2.282 . S
Mn181 O205 2.215 . S
Mn181 O207 2.117 . S
C182 O204 1.234 . S
C182 O205 1.283 1_554 S
C183 O195 1.281 . S
C183 O196 1.236 . S
C184 O206 1.240 . S
C184 O207 1.264 . S
O185 Mn180 2.095 . S
O185 C194 1.250 . S
O186 Mn181 2.121 . S
O186 C194 1.258 . S
C187 N188 1.326 . S
C187 C191 1.460 . S
C187 H193 0.929 . S
N188 Mn181 2.257 . S
N188 C187 1.326 . S
N188 C192 1.362 . S
C189 C190 1.258 . S
C189 C192 1.431 . S
C189 C209 1.449 1_556 S
C190 C189 1.258 . S
C190 C191 1.477 . S
C190 H210 0.931 . S
C191 C187 1.460 . S
C191 C190 1.477 . S
C191 H211 0.930 . S
C192 N188 1.362 . S
C192 C189 1.431 . S
C192 C202 1.476 1_556 S
H193 C187 0.929 . S
C194 O185 1.250 . S
C194 O186 1.258 . S
O195 Mn180 2.162 . S
O195 C183 1.281 . S
O196 Mn180 2.297 . S
O196 C183 1.236 . S
N197 Mn181 2.282 . S
N197 C198 1.328 1_556 S
N197 C202 1.318 1_556 S
C198 N197 1.328 1_554 S
C198 C199 1.457 . S
C198 H203 0.929 . S
C199 C198 1.457 . S
C199 C200 1.291 . S
C199 H212 0.931 . S
C200 C199 1.291 . S
C200 C201 1.373 . S
C200 H213 0.929 . S
C201 C200 1.373 . S
C201 C202 1.396 . S
C201 C208 1.403 . S
C202 C192 1.476 1_554 S
C202 N197 1.318 1_554 S
C202 C201 1.396 . S
H203 C198 0.929 . S
O204 Mn180 2.385 1_554 S
O204 C182 1.234 . S
O205 Mn180 2.209 . S
O205 Mn181 2.215 . S
O205 C182 1.283 1_556 S
O206 Mn180 2.094 . S
O206 C184 1.240 . S
O207 Mn181 2.117 . S
O207 C184 1.264 . S
C208 C201 1.403 . S
C208 C209 1.399 . S
C208 H214 0.929 . S
C209 C189 1.449 1_554 S
C209 C208 1.399 . S
C209 H215 0.930 . S
H210 C190 0.931 . S
H211 C191 0.930 . S
H212 C199 0.931 . S
H213 C200 0.929 . S
H214 C208 0.929 . S
H215 C209 0.930 . S
Mn216 O221 2.095 . S
Mn216 O231 2.162 . S
Mn216 O232 2.297 . S
Mn216 O240 2.385 . S
Mn216 O241 2.209 . S
Mn216 O242 2.094 . S
Mn217 O222 2.121 . S
Mn217 N224 2.257 . S
Mn217 N233 2.282 . S
Mn217 O241 2.215 . S
Mn217 O243 2.117 . S
C218 O240 1.234 . S
C218 O241 1.283 . S
C219 O231 1.281 . S
C219 O232 1.236 . S
C220 O242 1.240 . S
C220 O243 1.264 . S
O221 Mn216 2.095 . S
O221 C230 1.250 . S
O222 Mn217 2.121 . S
O222 C230 1.258 . S
C223 N224 1.326 . S
C223 C227 1.460 . S
C223 H229 0.929 . S
N224 Mn217 2.257 . S
N224 C223 1.326 . S
N224 C228 1.362 . S
C225 C226 1.258 . S
C225 C228 1.431 . S
C225 C245 1.449 . S
C226 C225 1.258 . S
C226 C227 1.477 . S
C226 H246 0.931 . S
C227 C223 1.460 . S
C227 C226 1.477 . S
C227 H247 0.930 . S
C228 N224 1.362 . S
C228 C225 1.431 . S
C228 C238 1.476 . S
H229 C223 0.929 . S
C230 O221 1.250 . S
C230 O222 1.258 . S
O231 Mn216 2.162 . S
O231 C219 1.281 . S
O232 Mn216 2.297 . S
O232 C219 1.236 . S
N233 Mn217 2.282 . S
N233 C234 1.328 . S
N233 C238 1.318 . S
C234 N233 1.328 . S
C234 C235 1.457 . S
C234 H239 0.929 . S
C235 C234 1.457 . S
C235 C236 1.291 . S
C235 H248 0.931 . S
C236 C235 1.291 . S
C236 C237 1.373 . S
C236 H249 0.929 . S
C237 C236 1.373 . S
C237 C238 1.396 . S
C237 C244 1.403 . S
C238 C228 1.476 . S
C238 N233 1.318 . S
C238 C237 1.396 . S
H239 C234 0.929 . S
O240 Mn216 2.385 . S
O240 C218 1.234 . S
O241 Mn216 2.209 . S
O241 Mn217 2.215 . S
O241 C218 1.283 . S
O242 Mn216 2.094 . S
O242 C220 1.240 . S
O243 Mn217 2.117 . S
O243 C220 1.264 . S
C244 C237 1.403 . S
C244 C245 1.399 . S
C244 H250 0.929 . S
C245 C225 1.449 . S
C245 C244 1.399 . S
C245 H251 0.930 . S
H246 C226 0.931 . S
H247 C227 0.930 . S
H248 C235 0.931 . S
H249 C236 0.929 . S
H250 C244 0.929 . S
H251 C245 0.930 . S
Mn252 O257 2.095 . S
Mn252 O267 2.162 . S
Mn252 O268 2.297 . S
Mn252 O276 2.385 1_554 S
Mn252 O277 2.209 1_554 S
Mn252 O278 2.094 . S
Mn253 O258 2.121 . S
Mn253 N260 2.257 . S
Mn253 N269 2.282 1_554 S
Mn253 O277 2.215 1_554 S
Mn253 O279 2.117 . S
C254 O276 1.234 . S
C254 O277 1.283 . S
C255 O267 1.281 . S
C255 O268 1.236 . S
C256 O278 1.240 . S
C256 O279 1.264 . S
O257 Mn252 2.095 . S
O257 C266 1.250 . S
O258 Mn253 2.121 . S
O258 C266 1.258 . S
C259 N260 1.326 . S
C259 C263 1.460 . S
C259 H265 0.929 . S
N260 Mn253 2.257 . S
N260 C259 1.326 . S
N260 C264 1.362 1_554 S
C261 C262 1.258 . S
C261 C264 1.431 . S
C261 C281 1.449 . S
C262 C261 1.258 . S
C262 C263 1.477 1_556 S
C262 H282 0.931 . S
C263 C259 1.460 . S
C263 C262 1.477 1_554 S
C263 H283 0.930 . S
C264 N260 1.362 1_556 S
C264 C261 1.431 . S
C264 C274 1.476 . S
H265 C259 0.929 . S
C266 O257 1.250 . S
C266 O258 1.258 . S
O267 Mn252 2.162 . S
O267 C255 1.281 . S
O268 Mn252 2.297 . S
O268 C255 1.236 . S
N269 Mn253 2.282 1_556 S
N269 C270 1.328 . S
N269 C274 1.318 . S
C270 N269 1.328 . S
C270 C271 1.457 . S
C270 H275 0.929 . S
C271 C270 1.457 . S
C271 C272 1.291 . S
C271 H284 0.931 . S
C272 C271 1.291 . S
C272 C273 1.373 . S
C272 H285 0.929 . S
C273 C272 1.373 . S
C273 C274 1.396 . S
C273 C280 1.403 . S
C274 C264 1.476 . S
C274 N269 1.318 . S
C274 C273 1.396 . S
H275 C270 0.929 . S
O276 Mn252 2.385 1_556 S
O276 C254 1.234 . S
O277 Mn252 2.209 1_556 S
O277 Mn253 2.215 1_556 S
O277 C254 1.283 . S
O278 Mn252 2.094 . S
O278 C256 1.240 . S
O279 Mn253 2.117 . S
O279 C256 1.264 . S
C280 C273 1.403 . S
C280 C281 1.399 . S
C280 H286 0.929 . S
C281 C261 1.449 . S
C281 C280 1.399 . S
C281 H287 0.930 . S
H282 C262 0.931 . S
H283 C263 0.930 . S
H284 C271 0.931 . S
H285 C272 0.929 . S
H286 C280 0.929 . S
H287 C281 0.930 . S
Mn288 O293 2.095 . S
Mn288 O303 2.162 . S
Mn288 O304 2.297 . S
Mn288 O312 2.385 . S
Mn288 O313 2.209 . S
Mn288 O314 2.094 . S
Mn289 O294 2.121 . S
Mn289 N296 2.257 . S
Mn289 N305 2.282 . S
Mn289 O313 2.215 . S
Mn289 O315 2.117 . S
C290 O312 1.234 . S
C290 O313 1.283 . S
C291 O303 1.281 . S
C291 O304 1.236 . S
C292 O314 1.240 . S
C292 O315 1.264 . S
O293 Mn288 2.095 . S
O293 C302 1.250 . S
O294 Mn289 2.121 . S
O294 C302 1.258 . S
C295 N296 1.326 . S
C295 C299 1.460 . S
C295 H301 0.929 . S
N296 Mn289 2.257 . S
N296 C295 1.326 . S
N296 C300 1.362 . S
C297 C298 1.258 . S
C297 C300 1.431 . S
C297 C317 1.449 . S
C298 C297 1.258 . S
C298 C299 1.477 . S
C298 H318 0.931 . S
C299 C295 1.460 . S
C299 C298 1.477 . S
C299 H319 0.930 . S
C300 N296 1.362 . S
C300 C297 1.431 . S
C300 C310 1.476 . S
H301 C295 0.929 . S
C302 O293 1.250 . S
C302 O294 1.258 . S
O303 Mn288 2.162 . S
O303 C291 1.281 . S
O304 Mn288 2.297 . S
O304 C291 1.236 . S
N305 Mn289 2.282 . S
N305 C306 1.328 . S
N305 C310 1.318 . S
C306 N305 1.328 . S
C306 C307 1.457 . S
C306 H311 0.929 . S
C307 C306 1.457 . S
C307 C308 1.291 1_554 S
C307 H320 0.931 1_554 S
C308 C307 1.291 1_556 S
C308 C309 1.373 1_556 S
C308 H321 0.929 . S
C309 C308 1.373 1_554 S
C309 C310 1.396 . S
C309 C316 1.403 . S
C310 C300 1.476 . S
C310 N305 1.318 . S
C310 C309 1.396 . S
H311 C306 0.929 . S
O312 Mn288 2.385 . S
O312 C290 1.234 . S
O313 Mn288 2.209 . S
O313 Mn289 2.215 . S
O313 C290 1.283 . S
O314 Mn288 2.094 . S
O314 C292 1.240 . S
O315 Mn289 2.117 . S
O315 C292 1.264 . S
C316 C309 1.403 . S
C316 C317 1.399 . S
C316 H322 0.929 1_554 S
C317 C297 1.449 . S
C317 C316 1.399 . S
C317 H323 0.930 . S
H318 C298 0.931 . S
H319 C299 0.930 . S
H320 C307 0.931 1_556 S
H321 C308 0.929 . S
H322 C316 0.929 1_556 S
H323 C317 0.930 . S
Mn324 O329 2.095 . S
Mn324 O339 2.162 . S
Mn324 O340 2.297 . S
Mn324 O348 2.385 . S
Mn324 O349 2.209 . S
Mn324 O350 2.094 . S
Mn325 O330 2.121 . S
Mn325 N332 2.257 . S
Mn325 N341 2.282 . S
Mn325 O349 2.215 . S
Mn325 O351 2.117 . S
C326 O348 1.234 . S
C326 O349 1.283 . S
C327 O339 1.281 . S
C327 O340 1.236 . S
C328 O350 1.240 . S
C328 O351 1.264 . S
O329 Mn324 2.095 . S
O329 C338 1.250 . S
O330 Mn325 2.121 . S
O330 C338 1.258 . S
C331 N332 1.326 . S
C331 C335 1.460 . S
C331 H337 0.929 . S
N332 Mn325 2.257 . S
N332 C331 1.326 . S
N332 C336 1.362 . S
C333 C334 1.258 . S
C333 C336 1.431 . S
C333 C353 1.449 . S
C334 C333 1.258 . S
C334 C335 1.477 . S
C334 H354 0.931 . S
C335 C331 1.460 . S
C335 C334 1.477 . S
C335 H355 0.930 . S
C336 N332 1.362 . S
C336 C333 1.431 . S
C336 C346 1.476 . S
H337 C331 0.929 . S
C338 O329 1.250 . S
C338 O330 1.258 . S
O339 Mn324 2.162 . S
O339 C327 1.281 . S
O340 Mn324 2.297 . S
O340 C327 1.236 . S
N341 Mn325 2.282 . S
N341 C342 1.328 . S
N341 C346 1.318 . S
C342 N341 1.328 . S
C342 C343 1.457 . S
C342 H347 0.929 . S
C343 C342 1.457 . S
C343 C344 1.291 . S
C343 H356 0.931 . S
C344 C343 1.291 . S
C344 C345 1.373 . S
C344 H357 0.929 . S
C345 C344 1.373 . S
C345 C346 1.396 . S
C345 C352 1.403 . S
C346 C336 1.476 . S
C346 N341 1.318 . S
C346 C345 1.396 . S
H347 C342 0.929 . S
O348 Mn324 2.385 . S
O348 C326 1.234 . S
O349 Mn324 2.209 . S
O349 Mn325 2.215 . S
O349 C326 1.283 . S
O350 Mn324 2.094 . S
O350 C328 1.240 . S
O351 Mn325 2.117 . S
O351 C328 1.264 . S
C352 C345 1.403 . S
C352 C353 1.399 . S
C352 H358 0.929 . S
C353 C333 1.449 . S
C353 C352 1.399 . S
C353 H359 0.930 . S
H354 C334 0.931 . S
H355 C335 0.930 . S
H356 C343 0.931 . S
H357 C344 0.929 . S
H358 C352 0.929 . S
H359 C353 0.930 . S
Mn360 O365 2.095 . S
Mn360 O375 2.162 . S
Mn360 O376 2.297 . S
Mn360 O384 2.385 . S
Mn360 O385 2.209 . S
Mn360 O386 2.094 . S
Mn361 O366 2.121 . S
Mn361 N368 2.257 . S
Mn361 N377 2.282 . S
Mn361 O385 2.215 . S
Mn361 O387 2.117 . S
C362 O384 1.234 . S
C362 O385 1.283 . S
C363 O375 1.281 . S
C363 O376 1.236 . S
C364 O386 1.240 . S
C364 O387 1.264 . S
O365 Mn360 2.095 . S
O365 C374 1.250 . S
O366 Mn361 2.121 . S
O366 C374 1.258 . S
C367 N368 1.326 . S
C367 C371 1.460 . S
C367 H373 0.929 . S
N368 Mn361 2.257 . S
N368 C367 1.326 . S
N368 C372 1.362 . S
C369 C370 1.258 . S
C369 C372 1.431 . S
C369 C389 1.449 . S
C370 C369 1.258 . S
C370 C371 1.477 . S
C370 H390 0.931 . S
C371 C367 1.460 . S
C371 C370 1.477 . S
C371 H391 0.930 . S
C372 N368 1.362 . S
C372 C369 1.431 . S
C372 C382 1.476 . S
H373 C367 0.929 . S
C374 O365 1.250 . S
C374 O366 1.258 . S
O375 Mn360 2.162 . S
O375 C363 1.281 . S
O376 Mn360 2.297 . S
O376 C363 1.236 . S
N377 Mn361 2.282 . S
N377 C378 1.328 . S
N377 C382 1.318 . S
C378 N377 1.328 . S
C378 C379 1.457 . S
C378 H383 0.929 . S
C379 C378 1.457 . S
C379 C380 1.291 . S
C379 H392 0.931 . S
C380 C379 1.291 . S
C380 C381 1.373 . S
C380 H393 0.929 . S
C381 C380 1.373 . S
C381 C382 1.396 . S
C381 C388 1.403 . S
C382 C372 1.476 . S
C382 N377 1.318 . S
C382 C381 1.396 . S
H383 C378 0.929 . S
O384 Mn360 2.385 . S
O384 C362 1.234 . S
O385 Mn360 2.209 . S
O385 Mn361 2.215 . S
O385 C362 1.283 . S
O386 Mn360 2.094 . S
O386 C364 1.240 . S
O387 Mn361 2.117 . S
O387 C364 1.264 . S
C388 C381 1.403 . S
C388 C389 1.399 . S
C388 H394 0.929 . S
C389 C369 1.449 . S
C389 C388 1.399 . S
C389 H395 0.930 . S
H390 C370 0.931 . S
H391 C371 0.930 . S
H392 C379 0.931 . S
H393 C380 0.929 . S
H394 C388 0.929 . S
H395 C389 0.930 . S
Mn396 O401 2.095 . S
Mn396 O411 2.162 . S
Mn396 O412 2.297 . S
Mn396 O420 2.385 . S
Mn396 O421 2.209 . S
Mn396 O422 2.094 . S
Mn397 O402 2.121 . S
Mn397 N404 2.257 . S
Mn397 N413 2.282 . S
Mn397 O421 2.215 . S
Mn397 O423 2.117 . S
C398 O420 1.234 . S
C398 O421 1.283 . S
C399 O411 1.281 . S
C399 O412 1.236 . S
C400 O422 1.240 . S
C400 O423 1.264 . S
O401 Mn396 2.095 . S
O401 C410 1.250 . S
O402 Mn397 2.121 . S
O402 C410 1.258 . S
C403 N404 1.326 . S
C403 C407 1.460 . S
C403 H409 0.929 . S
N404 Mn397 2.257 . S
N404 C403 1.326 . S
N404 C408 1.362 . S
C405 C406 1.258 . S
C405 C408 1.431 . S
C405 C425 1.449 . S
C406 C405 1.258 . S
C406 C407 1.477 . S
C406 H426 0.931 . S
C407 C403 1.460 . S
C407 C406 1.477 . S
C407 H427 0.930 . S
C408 N404 1.362 . S
C408 C405 1.431 . S
C408 C418 1.476 . S
H409 C403 0.929 . S
C410 O401 1.250 . S
C410 O402 1.258 . S
O411 Mn396 2.162 . S
O411 C399 1.281 . S
O412 Mn396 2.297 . S
O412 C399 1.236 . S
N413 Mn397 2.282 . S
N413 C414 1.328 . S
N413 C418 1.318 . S
C414 N413 1.328 . S
C414 C415 1.457 . S
C414 H419 0.929 . S
C415 C414 1.457 . S
C415 C416 1.291 . S
C415 H428 0.931 . S
C416 C415 1.291 . S
C416 C417 1.373 . S
C416 H429 0.929 . S
C417 C416 1.373 . S
C417 C418 1.396 . S
C417 C424 1.403 . S
C418 C408 1.476 . S
C418 N413 1.318 . S
C418 C417 1.396 . S
H419 C414 0.929 . S
O420 Mn396 2.385 . S
O420 C398 1.234 . S
O421 Mn396 2.209 . S
O421 Mn397 2.215 . S
O421 C398 1.283 . S
O422 Mn396 2.094 . S
O422 C400 1.240 . S
O423 Mn397 2.117 . S
O423 C400 1.264 . S
C424 C417 1.403 . S
C424 C425 1.399 . S
C424 H430 0.929 . S
C425 C405 1.449 . S
C425 C424 1.399 . S
C425 H431 0.930 . S
H426 C406 0.931 . S
H427 C407 0.930 . S
H428 C415 0.931 . S
H429 C416 0.929 . S
H430 C424 0.929 . S
H431 C425 0.930 . S
C432 C433 1.170 . S
C432 C434 1.380 . S
C433 C432 1.170 . S
C434 C432 1.380 . S
C434 C435 1.170 . S
C435 C434 1.170 . S
C436 C437 1.170 . S
C436 C438 1.380 . S
C437 C436 1.170 . S
C438 C436 1.380 . S
C438 C439 1.170 . S
C439 C438 1.170 . S
C440 C441 1.170 . S
C440 C442 1.380 . S
C441 C440 1.170 . S
C442 C440 1.380 . S
C442 C443 1.170 . S
C443 C442 1.170 . S
C444 C445 1.170 . S
C444 C446 1.380 . S
C445 C444 1.170 . S
C446 C444 1.380 . S
C446 C447 1.170 . S
C447 C446 1.170 . S
C448 C449 1.159 1_556 S
C448 C450 1.391 . S
C449 C448 1.159 1_554 S
C450 C448 1.391 . S
C450 C451 1.170 . S
C451 C450 1.170 . S
C452 C453 1.170 . S
C452 C454 1.380 . S
C453 C452 1.170 . S
C454 C452 1.380 . S
C454 C455 1.170 . S
C455 C454 1.170 . S
C456 C457 1.170 . S
C456 C458 1.380 . S
C457 C456 1.170 . S
C458 C456 1.380 . S
C458 C459 1.170 . S
C459 C458 1.170 . S
C460 C461 1.170 . S
C460 C462 1.380 . S
C461 C460 1.170 . S
C462 C460 1.380 . S
C462 C463 1.170 . S
C463 C462 1.170 . S
C464 C465 1.170 . S
C464 C466 1.380 . S
C465 C464 1.170 . S
C466 C464 1.380 . S
C466 C467 1.170 . S
C467 C466 1.170 . S
C468 C469 1.170 . S
C468 C470 1.380 . S
C469 C468 1.170 . S
C470 C468 1.380 . S
C470 C471 1.170 . S
C471 C470 1.170 . S
C472 C473 1.170 . S
C472 C474 1.380 . S
C473 C472 1.170 . S
C474 C472 1.380 . S
C474 C475 1.170 . S
C475 C474 1.170 . S
C476 C477 1.170 . S
C476 C478 1.380 . S
C477 C476 1.170 . S
C478 C476 1.380 . S
C478 C479 1.170 1_556 S
C479 C478 1.170 1_554 S
C480 C481 1.170 . S
C480 C482 1.380 . S
C481 C480 1.170 . S
C482 C480 1.380 . S
C482 C483 1.170 . S
C483 C482 1.170 . S
C484 C485 1.170 . S
C484 C486 1.380 1_556 S
C485 C484 1.170 . S
C486 C484 1.380 1_554 S
C486 C487 1.170 . S
C487 C486 1.170 . S
C488 C489 1.170 . S
C488 C490 1.380 . S
C489 C488 1.170 . S
C490 C488 1.380 . S
C490 C491 1.170 . S
C491 C490 1.170 . S
C492 C493 1.170 . S
C492 C494 1.380 . S
C493 C492 1.170 . S
C494 C492 1.380 . S
C494 C495 1.170 . S
C495 C494 1.170 . S
C496 C497 1.170 . S
C496 C498 1.380 . S
C497 C496 1.170 . S
C498 C496 1.380 . S
C498 C499 1.170 . S
C499 C498 1.170 . S
C500 C501 1.170 . S
C500 C502 1.380 . S
C501 C500 1.170 . S
C502 C500 1.380 . S
C502 C503 1.170 . S
C503 C502 1.170 . S
C504 C505 1.170 . S
C504 C506 1.380 1_545 S
C505 C504 1.170 . S
C506 C504 1.380 1_565 S
C506 C507 1.170 . S
C507 C506 1.170 . S
C508 C509 1.170 . S
C508 C510 1.380 . S
C509 C508 1.170 . S
C510 C508 1.380 . S
C510 C511 1.170 . S
C511 C510 1.170 . S
C512 C513 1.170 . S
C512 C514 1.380 1_455 S
C513 C512 1.170 . S
C514 C512 1.380 1_655 S
C514 C515 1.170 . S
C515 C514 1.170 . S
C516 C517 1.170 . S
C516 C518 1.380 1_565 S
C517 C516 1.170 . S
C518 C516 1.380 1_545 S
C518 C519 1.170 . S
C519 C518 1.170 . S
C520 C521 1.170 . S
C520 C522 1.380 . S
C521 C520 1.170 . S
C522 C520 1.380 . S
C522 C523 1.170 . S
C523 C522 1.170 . S
C524 C525 1.170 . S
C524 C526 1.380 1_455 S
C525 C524 1.170 . S
C526 C524 1.380 1_655 S
C526 C527 1.170 . S
C527 C526 1.170 . S
C433 C2 1.263 . S
C435 C362 1.287 . S
C437 C38 1.286 . S
C439 C398 1.262 . S
C441 C218 1.284 . S
C443 C74 1.263 . S
C445 C110 1.287 . S
C447 C254 1.263 . S
C449 C290 1.271 . S
C451 C146 1.282 . S
C453 C326 1.286 . S
C455 C182 1.266 . S
C457 C291 1.365 . S
C459 C3 1.349 . S
C461 C39 1.358 . S
C463 C327 1.357 . S
C465 C363 1.360 . S
C467 C75 1.355 . S
C469 C111 1.349 . S
C471 C399 1.367 . S
C473 C147 1.356 . S
C475 C219 1.358 . S
C477 C183 1.357 . S
C479 C255 1.357 . S
C481 C374 1.483 . S
C483 C14 1.468 . S
C485 C410 1.477 . S
C487 C50 1.439 . S
C489 C230 1.461 1_554 S
C491 C86 1.486 . S
C493 C122 1.447 . S
C495 C266 1.447 . S
C497 C158 1.474 . S
C499 C302 1.437 . S
C501 C338 1.445 . S
C503 C194 1.450 . S
C505 C4 1.352 . S
C507 C256 1.356 . S
C509 C292 1.359 . S
C511 C40 1.354 . S
C513 C328 1.370 . S
C515 C76 1.371 . S
C517 C112 1.363 . S
C519 C364 1.367 . S
C521 C148 1.344 . S
C523 C400 1.341 . S
C525 C184 1.367 . S
C527 C220 1.369 . S
