# Generated by pormake.
# Topology kag, (6)-cn, num edge types: 1
# Building blocks:
#     Node 0, Type 0, BuildingBlock: BETGAK_clean_sbu_0, # of connection points: 6
#     Node 1, Type 0, BuildingBlock: BETGAK_clean_sbu_0, # of connection points: 6
#     Node 2, Type 0, BuildingBlock: BETGAK_clean_sbu_0, # of connection points: 6
#     Edge 3, Type (0, 0), BuildingBlock: CIFDUS_clean_linker_0, # of connection points: 2
#     Edge 4, Type (0, 0), BuildingBlock: CIFDUS_clean_linker_0, # of connection points: 2
#     Edge 5, Type (0, 0), BuildingBlock: CIFDUS_clean_linker_0, # of connection points: 2
#     Edge 6, Type (0, 0), BuildingBlock: CIFDUS_clean_linker_0, # of connection points: 2
#     Edge 7, Type (0, 0), BuildingBlock: CIFDUS_clean_linker_0, # of connection points: 2
#     Edge 8, Type (0, 0), BuildingBlock: CIFDUS_clean_linker_0, # of connection points: 2
#     Edge 9, Type (0, 0), BuildingBlock: CIFDUS_clean_linker_0, # of connection points: 2
#     Edge 10, Type (0, 0), BuildingBlock: CIFDUS_clean_linker_0, # of connection points: 2
#     Edge 11, Type (0, 0), BuildingBlock: CIFDUS_clean_linker_0, # of connection points: 2
# Relax obj value: 0.095
# Max RMSD: 0.211
# Mean RMSD: 0.111
data_MOF--net-kag--node1-BETGAK_clean_sbu_0--edge1-CIFDUS_clean_linker_0
_symmetry_space_group_name_H-M    P1
_symmetry_Int_Tables_number       1
_symmetry_cell_setting            triclinic
loop_
_symmetry_equiv_pos_as_xyz
'x, y, z'
_cell_length_a     27.762298
_cell_length_b     38.347639
_cell_length_c     12.68639
_cell_angle_alpha  95.413629
_cell_angle_beta   90.23721
_cell_angle_gamma 95.045383
loop_
_atom_site_label
_atom_site_type_symbol
_atom_site_fract_x
_atom_site_fract_y
_atom_site_fract_z
_atom_type_partial_charge
La0 La 0.07165 0.48196 0.02595 0.0
La1 La 0.07621 0.55499 0.01812 0.0
C2 C 1.05191 0.41912 0.06411 0.0
C3 C 1.01061 0.39238 0.04459 0.0
C4 C 1.01406 0.36458 0.96562 0.0
C5 C 0.9771 0.33757 0.95071 0.0
C6 C 0.93624 0.33745 1.01571 0.0
C7 C 0.93169 0.36603 0.09171 0.0
C8 C 0.96863 0.3933 0.10616 0.0
C9 C 0.08464 0.50066 0.83026 0.0
C10 C 0.97105 0.5167 1.00845 0.0
C11 C 0.09505 0.61794 0.97681 0.0
C12 C 0.13423 0.6467 0.99261 0.0
C13 C 0.12458 0.67803 0.05169 0.0
C14 C 0.15917 0.70684 0.06183 0.0
C15 C 0.20416 0.70521 1.01193 0.0
C16 C 0.21455 0.67339 0.95561 0.0
C17 C 0.17985 0.64436 0.94591 0.0
C18 C 1.06293 0.53662 0.21361 0.0
C19 C 0.17609 0.51758 0.04073 0.0
O20 O 0.07518 0.42832 0.9805 0.0
O21 O 1.046 0.44612 0.13234 0.0
O22 O 0.10606 0.47658 0.87151 0.0
O23 O 1.05584 0.51338 0.89775 0.0
O24 O 0.99357 0.4896 0.03393 0.0
O25 O 0.99728 0.54542 0.98421 0.0
O26 O 0.07289 0.60889 0.06178 0.0
O27 O 0.1022 0.59064 0.9108 0.0
O28 O 1.04207 0.561 0.17257 0.0
O29 O 0.09175 0.52377 0.14635 0.0
O30 O 0.15548 0.54553 1.01278 0.0
O31 O 0.14812 0.49027 0.06694 0.0
H32 H 1.0459 0.36328 0.91677 0.0
H33 H 0.98116 0.3162 0.8901 0.0
H34 H 0.9007 0.36653 0.14323 0.0
H35 H 0.96482 0.41451 0.16741 0.0
H36 H 0.08976 0.68049 0.08868 0.0
H37 H 0.15033 0.73063 0.1078 0.0
H38 H 0.24879 0.67129 0.91598 0.0
H39 H 0.1884 0.62047 0.90005 0.0
La40 La 0.61637 0.03035 1.01313 0.0
La41 La 0.51496 1.02043 0.0353 0.0
C42 C 0.70176 0.05051 0.96673 0.0
C43 C 0.73132 0.0844 0.97456 0.0
C44 C 0.77385 0.08824 0.03591 0.0
C45 C 0.80271 0.11999 0.04512 0.0
C46 C 0.78992 0.14843 0.99192 0.0
C47 C 0.74674 0.1448 0.93206 0.0
C48 C 0.7176 0.11305 0.92355 0.0
C49 C 0.59034 1.01803 0.20887 0.0
C50 C 0.55711 0.09813 0.05681 0.0
C51 C 0.43061 0.9973 0.08152 0.0
C52 C 0.40294 0.96233 0.06523 0.0
C53 C 0.366 0.95642 0.98811 0.0
C54 C 0.33902 0.92385 0.97219 0.0
C55 C 0.34779 0.89644 0.03409 0.0
C56 C 0.38553 0.90206 0.10979 0.0
C57 C 0.41283 0.93466 0.12522 0.0
C58 C 0.54078 0.03247 0.83964 0.0
C59 C 0.57548 0.95299 0.99029 0.0
O60 O 0.6897 0.03861 0.0568 0.0
O61 O 0.66581 0.04619 0.89847 0.0
O62 O 0.62568 1.00488 0.15773 0.0
O63 O 0.57059 0.03797 0.1506 0.0
O64 O 0.59646 0.08501 1.01741 0.0
O65 O 0.52057 0.07677 0.08573 0.0
O66 O 0.44095 1.01285 0.9962 0.0
O67 O 0.46719 1.00074 0.14807 0.0
O68 O 0.50507 0.04538 0.89019 0.0
O69 O 0.56067 1.01264 0.89812 0.0
O70 O 0.53528 0.9656 0.02674 0.0
O71 O 0.612 0.97455 0.96396 0.0
H72 H 0.78481 0.0666 0.07681 0.0
H73 H 0.83522 0.12219 0.09369 0.0
H74 H 0.73607 0.16616 0.88962 0.0
H75 H 0.68469 0.1109 0.87636 0.0
H76 H 0.35775 0.97712 0.94019 0.0
H77 H 0.31095 0.92026 0.91163 0.0
H78 H 0.39307 0.88167 0.15942 0.0
H79 H 0.44123 0.93823 0.18503 0.0
La80 La 0.58111 0.5666 0.02663 0.0
La81 La 0.56887 0.4877 1.0085 0.0
C82 C 0.57714 0.631 1.0055 0.0
C83 C 0.57516 0.66914 0.99374 0.0
C84 C 0.60579 0.69461 0.0546 0.0
C85 C 0.60147 0.73064 0.04968 0.0
C86 C 0.56591 0.74214 0.98492 0.0
C87 C 0.53572 0.7166 0.92298 0.0
C88 C 0.54048 0.68058 0.92684 0.0
C89 C 0.58367 0.53855 0.20921 0.0
C90 C 0.47247 0.52715 0.0201 0.0
C91 C 0.56984 0.42239 0.02429 0.0
C92 C 0.57113 0.38349 0.02836 0.0
C93 C 0.584 0.36231 0.93796 0.0
C94 C 0.58561 0.32588 0.93976 0.0
C95 C 0.57412 0.30916 0.03186 0.0
C96 C 0.56034 0.33023 0.12204 0.0
C97 C 0.55914 0.36693 0.12049 0.0
C98 C 0.56396 0.51636 0.8278 0.0
C99 C 0.67693 0.52924 1.00871 0.0
O100 O 0.59904 0.61955 0.08519 0.0
O101 O 0.55856 0.60598 0.93571 0.0
O102 O 0.60838 0.5672 0.18849 0.0
O103 O 0.55643 0.5278 0.13107 0.0
O104 O 0.50144 0.55633 1.01302 0.0
O105 O 0.49104 0.49657 0.02854 0.0
O106 O 0.57437 0.43677 0.93513 0.0
O107 O 0.56527 0.44517 0.10673 0.0
O108 O 0.53794 0.48835 0.85016 0.0
O109 O 0.59268 0.52646 0.90398 0.0
O110 O 0.64974 0.5003 0.03143 0.0
O111 O 0.65569 0.55739 0.98644 0.0
H112 H 0.63275 0.6867 0.1073 0.0
H113 H 0.62508 0.7495 0.09906 0.0
H114 H 0.50826 0.72449 0.8715 0.0
H115 H 0.51617 0.66166 0.87935 0.0
H116 H 0.59315 0.37391 0.86525 0.0
H117 H 0.59567 0.31069 0.86817 0.0
H118 H 0.55149 0.31846 0.19461 0.0
H119 H 0.54882 0.38233 0.19145 0.0
H120 H 1.02549 0.53639 0.70931 0.0
H121 H 0.14906 0.47556 0.6891 0.0
H122 H 0.15343 0.48009 0.49876 0.0
H123 H 0.12199 0.50097 0.3346 0.0
H124 H 0.99849 0.56186 0.35463 0.0
H125 H 0.99409 0.55736 0.54504 0.0
C126 C 1.05344 0.52426 0.66328 0.0
C127 C 0.08682 0.50558 0.71435 0.0
C128 C 1.05566 0.52674 0.55232 0.0
C129 C 0.1227 0.48999 0.65259 0.0
C130 C 0.12526 0.49252 0.54314 0.0
C131 C 0.09404 0.51312 0.38062 0.0
C132 C 1.06069 0.53178 0.32951 0.0
C133 C 0.09183 0.51067 0.49156 0.0
C134 C 1.02483 0.54742 0.39122 0.0
C135 C 1.02225 0.5449 0.50069 0.0
H136 H 0.53705 0.0582 0.35038 0.0
H137 H 0.63034 0.9738 0.33153 0.0
H138 H 0.62522 0.9709 0.52259 0.0
H139 H 0.59448 0.99242 0.69838 0.0
H140 H 0.50118 0.07683 0.71702 0.0
H141 H 0.50649 0.07979 0.52607 0.0
C142 C 0.55604 0.03909 0.38806 0.0
C143 C 0.58405 1.01626 0.32575 0.0
C144 C 0.55327 0.03767 0.4994 0.0
C145 C 0.60856 0.99179 0.37682 0.0
C146 C 0.60574 0.99011 0.48666 0.0
C147 C 0.57553 1.01155 0.66067 0.0
C148 C 0.54739 0.03432 0.72288 0.0
C149 C 0.57839 1.013 0.54933 0.0
C150 C 0.523 0.05884 0.67179 0.0
C151 C 0.52593 0.06056 0.56202 0.0
H152 H 0.5196 0.48491 0.64789 0.0
H153 H 0.62535 0.56925 0.76272 0.0
H154 H 0.64186 0.58274 0.58095 0.0
H155 H 0.62703 0.57006 0.3894 0.0
H156 H 0.521 0.486 0.27399 0.0
H157 H 0.5043 0.47248 0.45584 0.0
C158 C 0.54605 0.50637 0.63306 0.0
C159 C 0.57125 0.52608 0.71854 0.0
C160 C 0.55566 0.51373 0.52827 0.0
C161 C 0.60548 0.55375 0.69823 0.0
C162 C 0.61504 0.56137 0.59433 0.0
C163 C 0.6004 0.54867 0.40404 0.0
C164 C 0.57541 0.52894 0.31838 0.0
C165 C 0.59061 0.54139 0.50874 0.0
C166 C 0.54092 0.50141 0.33855 0.0
C167 C 0.5312 0.49381 0.44253 0.0
H168 H 0.25272 0.569 1.0129 0.0
H169 H 0.224 0.45973 0.06683 0.0
H170 H 0.31006 0.45243 0.0641 0.0
H171 H 0.39558 0.47634 0.04681 0.0
H172 H 0.425 0.58579 0.9962 0.0
H173 H 0.33877 0.5932 0.99784 0.0
C174 C 0.26516 0.5436 0.02439 0.0
C175 C 0.23063 0.51511 0.04055 0.0
C176 C 0.3159 0.53932 0.02343 0.0
C177 C 0.24863 0.48249 0.05494 0.0
C178 C 0.29842 0.47811 0.05317 0.0
C179 C 0.38333 0.50185 0.036 0.0
C180 C 0.41804 0.53031 0.02119 0.0
C181 C 0.33271 0.50624 0.03754 0.0
C182 C 0.40022 0.56309 1.00775 0.0
C183 C 0.35035 0.56749 1.00864 0.0
H184 H 0.76604 0.21641 1.00987 0.0
H185 H 0.88793 0.15357 0.97993 0.0
H186 H 0.94319 0.20653 0.98633 0.0
H187 H 0.95729 0.27009 1.00059 0.0
H188 H 0.83695 0.3342 0.02295 0.0
H189 H 0.78046 0.28116 0.01915 0.0
C190 C 0.80466 0.21435 1.00381 0.0
C191 C 0.82283 0.18107 0.99532 0.0
C192 C 0.83642 0.24501 1.00603 0.0
C193 C 0.87301 0.17884 0.98871 0.0
C194 C 0.90467 0.20909 0.9915 0.0
C195 C 0.91865 0.27252 1.00282 0.0
C196 C 0.90125 0.30592 1.01072 0.0
C197 C 0.88677 0.2422 1.00003 0.0
C198 C 0.85117 0.30869 1.01696 0.0
C199 C 0.81894 0.27842 1.0145 0.0
H200 H 0.50453 0.89854 0.99813 0.0
H201 H 0.65882 0.92046 0.96875 0.0
H202 H 0.66954 0.85796 0.96582 0.0
H203 H 0.63563 0.79667 0.97297 0.0
H204 H 0.48134 0.77404 0.99594 0.0
H205 H 0.47023 0.83673 0.99915 0.0
C206 C 0.54048 0.88964 0.99064 0.0
C207 C 0.58076 0.91442 0.98354 0.0
C208 C 0.54649 0.85332 0.98773 0.0
C209 C 0.62703 0.90219 0.9736 0.0
C210 C 0.6333 0.86633 0.97229 0.0
C211 C 0.59958 0.80546 0.97895 0.0
C212 C 0.55943 0.78051 0.98435 0.0
C213 C 0.59337 0.84162 0.97961 0.0
C214 C 0.51291 0.79249 0.9907 0.0
C215 C 0.50652 0.82843 0.99303 0.0
H216 H 0.9067 0.56739 0.9783 0.0
H217 H 0.90909 0.45879 0.03905 0.0
H218 H 0.82101 0.45238 0.04496 0.0
H219 H 0.74098 0.47741 0.0349 0.0
H220 H 0.73938 0.58615 0.97427 0.0
H221 H 0.82714 0.59217 0.96695 0.0
C222 C 0.88813 0.54223 0.99243 0.0
C223 C 0.91581 0.51371 1.00801 0.0
C224 C 0.83644 0.53854 0.99631 0.0
C225 C 0.88989 0.48148 0.02665 0.0
C226 C 0.83893 0.47769 0.03021 0.0
C227 C 0.75966 0.50246 0.02006 0.0
C228 C 0.73215 0.53119 1.0052 0.0
C229 C 0.81144 0.50601 1.01557 0.0
C230 C 0.75829 0.56328 0.986 0.0
C231 C 0.80913 0.56689 0.98172 0.0
H232 H 0.18285 0.77172 0.99079 0.0
H233 H 0.30322 0.71074 0.03754 0.0
H234 H 0.35884 0.76426 0.04501 0.0
H235 H 0.37263 0.82887 0.04227 0.0
H236 H 0.2501 0.88889 1.00432 0.0
H237 H 0.19614 0.83521 0.98959 0.0
C238 C 0.22118 0.77008 1.00396 0.0
C239 C 0.23869 0.73728 1.01479 0.0
C240 C 0.25266 0.80084 1.00942 0.0
C241 C 0.28872 0.73563 0.02859 0.0
C242 C 0.32051 0.76625 0.03341 0.0
C243 C 0.3341 0.83022 0.03143 0.0
C244 C 0.31567 0.86303 0.02369 0.0
C245 C 0.3028 0.79909 0.02465 0.0
C246 C 0.26561 0.8641 1.0084 0.0
C247 C 0.23453 0.83339 1.00083 0.0
H248 H 0.51199 0.25923 0.11821 0.0
H249 H 0.64593 0.27096 0.94857 0.0
H250 H 0.65289 0.20788 0.94322 0.0
H251 H 0.62072 0.1488 0.9832 0.0
H252 H 0.48619 0.13599 0.14997 0.0
H253 H 0.48003 0.19951 0.16028 0.0
C254 C 0.54289 0.24805 0.08077 0.0
C255 C 0.57821 0.27023 0.03327 0.0
C256 C 0.54661 0.21127 0.07716 0.0
C257 C 0.61773 0.25484 0.98441 0.0
C258 C 0.6219 0.21861 0.98167 0.0
C259 C 0.59007 0.15979 0.02234 0.0
C260 C 0.55402 0.13723 0.06589 0.0
C261 C 0.58647 0.19647 0.02711 0.0
C262 C 0.51456 0.15238 0.11561 0.0
C263 C 0.51099 0.18887 0.12154 0.0
loop_
_geom_bond_atom_site_label_1
_geom_bond_atom_site_label_2
_geom_bond_distance
_geom_bond_site_symmetry_2
_ccdc_geom_bond_type
La0 C2 2.928 . S
La0 O20 2.521 . S
La0 O21 2.628 1_556 S
La0 O22 2.554 . S
La0 O23 2.757 1_655 S
La0 O24 2.470 . S
La0 O29 2.482 1_556 S
La0 O31 2.503 1_655 S
La1 C11 2.928 . S
La1 O23 2.482 1_554 S
La1 O25 2.503 1_455 S
La1 O26 2.521 . S
La1 O27 2.628 1_554 S
La1 O28 2.554 . S
La1 O29 2.757 1_455 S
La1 O30 2.470 . S
C2 La0 2.928 . S
C2 C3 1.503 . S
C2 O20 1.261 . S
C2 O21 1.243 1_556 S
C3 C2 1.503 . S
C3 C4 1.394 . S
C3 C8 1.373 1_556 S
C4 C3 1.394 . S
C4 C5 1.380 . S
C4 H32 0.930 . S
C5 C4 1.380 . S
C5 C6 1.376 . S
C5 H33 0.930 . S
C6 C5 1.376 . S
C6 C7 1.370 1_556 S
C7 C6 1.370 1_554 S
C7 C8 1.396 . S
C7 H34 0.929 . S
C8 C3 1.373 1_554 S
C8 C7 1.396 . S
C8 H35 0.929 . S
C9 O22 1.240 1_455 S
C9 O23 1.289 . S
C10 O24 1.258 . S
C10 O25 1.256 1_556 S
C11 La1 2.928 . S
C11 C12 1.503 . S
C11 O26 1.261 . S
C11 O27 1.243 1_554 S
C12 C11 1.503 . S
C12 C13 1.394 . S
C12 C17 1.373 1_554 S
C13 C12 1.394 . S
C13 C14 1.380 . S
C13 H36 0.930 . S
C14 C13 1.380 . S
C14 C15 1.376 . S
C14 H37 0.930 . S
C15 C14 1.376 . S
C15 C16 1.370 1_554 S
C16 C15 1.370 1_556 S
C16 C17 1.396 . S
C16 H38 0.929 . S
C17 C12 1.373 1_556 S
C17 C16 1.396 . S
C17 H39 0.929 . S
C18 O28 1.240 . S
C18 O29 1.289 1_455 S
C19 O30 1.258 . S
C19 O31 1.256 1_554 S
O20 La0 2.521 . S
O20 C2 1.261 . S
O21 La0 2.628 1_554 S
O21 C2 1.243 1_554 S
O22 La0 2.554 . S
O22 C9 1.240 1_655 S
O23 La0 2.757 1_455 S
O23 La1 2.482 1_556 S
O23 C9 1.289 . S
O24 La0 2.470 . S
O24 C10 1.258 . S
O25 La1 2.503 1_655 S
O25 C10 1.256 1_554 S
O26 La1 2.521 . S
O26 C11 1.261 . S
O27 La1 2.628 1_556 S
O27 C11 1.243 1_556 S
O28 La1 2.554 . S
O28 C18 1.240 . S
O29 La0 2.482 1_554 S
O29 La1 2.757 1_655 S
O29 C18 1.289 1_655 S
O30 La1 2.470 . S
O30 C19 1.258 . S
O31 La0 2.503 1_455 S
O31 C19 1.256 1_556 S
H32 C4 0.930 . S
H33 C5 0.930 . S
H34 C7 0.929 . S
H35 C8 0.929 . S
H36 C13 0.930 . S
H37 C14 0.930 . S
H38 C16 0.929 . S
H39 C17 0.929 . S
La40 C42 2.928 1_554 S
La40 O60 2.521 . S
La40 O61 2.628 1_554 S
La40 O62 2.554 . S
La40 O63 2.757 1_545 S
La40 O64 2.470 . S
La40 O69 2.482 1_554 S
La40 O71 2.503 1_544 S
La41 C51 2.928 1_556 S
La41 O63 2.482 1_556 S
La41 O65 2.503 1_566 S
La41 O66 2.521 . S
La41 O67 2.628 1_556 S
La41 O68 2.554 . S
La41 O69 2.757 1_565 S
La41 O70 2.470 . S
C42 La40 2.928 1_556 S
C42 C43 1.503 . S
C42 O60 1.261 1_556 S
C42 O61 1.243 . S
C43 C42 1.503 . S
C43 C44 1.394 1_556 S
C43 C48 1.373 . S
C44 C43 1.394 1_554 S
C44 C45 1.380 . S
C44 H72 0.930 . S
C45 C44 1.380 . S
C45 C46 1.376 1_554 S
C45 H73 0.930 . S
C46 C45 1.376 1_556 S
C46 C47 1.370 . S
C47 C46 1.370 . S
C47 C48 1.396 . S
C47 H74 0.929 . S
C48 C43 1.373 . S
C48 C47 1.396 . S
C48 H75 0.929 . S
C49 O62 1.240 . S
C49 O63 1.289 1_545 S
C50 O64 1.258 . S
C50 O65 1.256 . S
C51 La41 2.928 1_554 S
C51 C52 1.503 . S
C51 O66 1.261 1_554 S
C51 O67 1.243 . S
C52 C51 1.503 . S
C52 C53 1.394 1_554 S
C52 C57 1.373 . S
C53 C52 1.394 1_556 S
C53 C54 1.380 . S
C53 H76 0.930 . S
C54 C53 1.380 . S
C54 C55 1.376 1_556 S
C54 H77 0.930 . S
C55 C54 1.376 1_554 S
C55 C56 1.370 . S
C56 C55 1.370 . S
C56 C57 1.396 . S
C56 H78 0.929 . S
C57 C52 1.373 . S
C57 C56 1.396 . S
C57 H79 0.929 . S
C58 O68 1.240 . S
C58 O69 1.289 1_565 S
C59 O70 1.258 . S
C59 O71 1.256 . S
O60 La40 2.521 . S
O60 C42 1.261 1_554 S
O61 La40 2.628 1_556 S
O61 C42 1.243 . S
O62 La40 2.554 . S
O62 C49 1.240 . S
O63 La40 2.757 1_565 S
O63 La41 2.482 1_554 S
O63 C49 1.289 1_565 S
O64 La40 2.470 . S
O64 C50 1.258 . S
O65 La41 2.503 1_544 S
O65 C50 1.256 . S
O66 La41 2.521 . S
O66 C51 1.261 1_556 S
O67 La41 2.628 1_554 S
O67 C51 1.243 . S
O68 La41 2.554 . S
O68 C58 1.240 . S
O69 La40 2.482 1_556 S
O69 La41 2.757 1_545 S
O69 C58 1.289 1_545 S
O70 La41 2.470 . S
O70 C59 1.258 . S
O71 La40 2.503 1_566 S
O71 C59 1.256 . S
H72 C44 0.930 . S
H73 C45 0.930 . S
H74 C47 0.929 . S
H75 C48 0.929 . S
H76 C53 0.930 . S
H77 C54 0.930 . S
H78 C56 0.929 . S
H79 C57 0.929 . S
La80 C82 2.928 . S
La80 O100 2.521 . S
La80 O101 2.628 1_554 S
La80 O102 2.554 . S
La80 O103 2.757 . S
La80 O104 2.470 . S
La80 O109 2.482 1_554 S
La80 O111 2.503 . S
La81 C91 2.928 . S
La81 O103 2.482 1_556 S
La81 O105 2.503 . S
La81 O106 2.521 . S
La81 O107 2.628 1_556 S
La81 O108 2.554 . S
La81 O109 2.757 . S
La81 O110 2.470 . S
C82 La80 2.928 . S
C82 C83 1.503 . S
C82 O100 1.261 . S
C82 O101 1.243 1_554 S
C83 C82 1.503 . S
C83 C84 1.394 . S
C83 C88 1.373 1_554 S
C84 C83 1.394 . S
C84 C85 1.380 . S
C84 H112 0.930 . S
C85 C84 1.380 . S
C85 C86 1.379 . S
C85 H113 0.930 . S
C86 C85 1.379 . S
C86 C87 1.368 1_554 S
C87 C86 1.368 1_556 S
C87 C88 1.396 . S
C87 H114 0.929 . S
C88 C83 1.373 1_556 S
C88 C87 1.396 . S
C88 H115 0.929 . S
C89 O102 1.240 . S
C89 O103 1.289 . S
C90 O104 1.258 . S
C90 O105 1.256 1_554 S
C91 La81 2.928 . S
C91 C92 1.503 . S
C91 O106 1.261 . S
C91 O107 1.243 1_556 S
C92 C91 1.503 . S
C92 C93 1.394 . S
C92 C97 1.373 1_556 S
C93 C92 1.394 . S
C93 C94 1.380 . S
C93 H116 0.930 . S
C94 C93 1.380 . S
C94 C95 1.376 1_556 S
C94 H117 0.930 . S
C95 C94 1.376 1_554 S
C95 C96 1.370 . S
C96 C95 1.370 . S
C96 C97 1.396 . S
C96 H118 0.929 . S
C97 C92 1.373 1_554 S
C97 C96 1.396 . S
C97 H119 0.929 . S
C98 O108 1.240 . S
C98 O109 1.289 . S
C99 O110 1.258 . S
C99 O111 1.256 1_556 S
O100 La80 2.521 . S
O100 C82 1.261 . S
O101 La80 2.628 1_556 S
O101 C82 1.243 1_556 S
O102 La80 2.554 . S
O102 C89 1.240 . S
O103 La80 2.757 . S
O103 La81 2.482 1_554 S
O103 C89 1.289 . S
O104 La80 2.470 . S
O104 C90 1.258 . S
O105 La81 2.503 . S
O105 C90 1.256 1_556 S
O106 La81 2.521 . S
O106 C91 1.261 . S
O107 La81 2.628 1_554 S
O107 C91 1.243 1_554 S
O108 La81 2.554 . S
O108 C98 1.240 . S
O109 La80 2.482 1_556 S
O109 La81 2.757 . S
O109 C98 1.289 . S
O110 La81 2.470 . S
O110 C99 1.258 . S
O111 La80 2.503 . S
O111 C99 1.256 1_554 S
H112 C84 0.930 . S
H113 C85 0.930 . S
H114 C87 0.929 . S
H115 C88 0.929 . S
H116 C93 0.930 . S
H117 C94 0.930 . S
H118 C96 0.929 . S
H119 C97 0.929 . S
H120 C126 0.930 . S
H121 C129 0.930 . S
H122 C130 0.930 . S
H123 C131 0.930 . S
H124 C134 0.930 . S
H125 C135 0.930 . S
C126 H120 0.930 . S
C126 C127 1.355 1_655 S
C126 C128 1.415 . S
C127 C126 1.355 1_455 S
C127 C129 1.419 . S
C128 C126 1.415 . S
C128 C133 1.425 1_655 S
C128 C135 1.409 . S
C129 H121 0.930 . S
C129 C127 1.419 . S
C129 C130 1.362 . S
C130 H122 0.930 . S
C130 C129 1.362 . S
C130 C133 1.409 . S
C131 H123 0.930 . S
C131 C132 1.355 1_455 S
C131 C133 1.415 . S
C132 C131 1.355 1_655 S
C132 C134 1.419 . S
C133 C128 1.425 1_455 S
C133 C130 1.409 . S
C133 C131 1.415 . S
C134 H124 0.930 . S
C134 C132 1.419 . S
C134 C135 1.362 . S
C135 H125 0.930 . S
C135 C128 1.409 . S
C135 C134 1.362 . S
H136 C142 0.930 . S
H137 C145 0.930 . S
H138 C146 0.930 . S
H139 C147 0.930 . S
H140 C150 0.930 . S
H141 C151 0.930 . S
C142 H136 0.930 . S
C142 C143 1.355 1_545 S
C142 C144 1.415 . S
C143 C142 1.355 1_565 S
C143 C145 1.419 . S
C144 C142 1.415 . S
C144 C149 1.425 1_545 S
C144 C151 1.409 . S
C145 H137 0.930 . S
C145 C143 1.419 . S
C145 C146 1.362 . S
C146 H138 0.930 . S
C146 C145 1.362 . S
C146 C149 1.409 . S
C147 H139 0.930 . S
C147 C148 1.355 1_565 S
C147 C149 1.415 . S
C148 C147 1.355 1_545 S
C148 C150 1.419 . S
C149 C144 1.425 1_565 S
C149 C146 1.409 . S
C149 C147 1.415 . S
C150 H140 0.930 . S
C150 C148 1.419 . S
C150 C151 1.362 . S
C151 H141 0.930 . S
C151 C144 1.409 . S
C151 C150 1.362 . S
H152 C158 0.930 . S
H153 C161 0.930 . S
H154 C162 0.930 . S
H155 C163 0.930 . S
H156 C166 0.930 . S
H157 C167 0.930 . S
C158 H152 0.930 . S
C158 C159 1.355 . S
C158 C160 1.415 . S
C159 C158 1.355 . S
C159 C161 1.419 . S
C160 C158 1.415 . S
C160 C165 1.425 . S
C160 C167 1.409 . S
C161 H153 0.930 . S
C161 C159 1.419 . S
C161 C162 1.362 . S
C162 H154 0.930 . S
C162 C161 1.362 . S
C162 C165 1.409 . S
C163 H155 0.930 . S
C163 C164 1.355 . S
C163 C165 1.415 . S
C164 C163 1.355 . S
C164 C166 1.419 . S
C165 C160 1.425 . S
C165 C162 1.409 . S
C165 C163 1.415 . S
C166 H156 0.930 . S
C166 C164 1.419 . S
C166 C167 1.362 . S
C167 H157 0.930 . S
C167 C160 1.409 . S
C167 C166 1.362 . S
H168 C174 0.930 . S
H169 C177 0.930 . S
H170 C178 0.930 . S
H171 C179 0.930 . S
H172 C182 0.930 . S
H173 C183 0.930 . S
C174 H168 0.930 . S
C174 C175 1.355 1_554 S
C174 C176 1.415 . S
C175 C174 1.355 1_556 S
C175 C177 1.419 . S
C176 C174 1.415 . S
C176 C181 1.425 1_554 S
C176 C183 1.409 . S
C177 H169 0.930 . S
C177 C175 1.419 . S
C177 C178 1.362 . S
C178 H170 0.930 . S
C178 C177 1.362 . S
C178 C181 1.409 . S
C179 H171 0.930 . S
C179 C180 1.355 1_556 S
C179 C181 1.415 . S
C180 C179 1.355 1_554 S
C180 C182 1.419 . S
C181 C176 1.425 1_556 S
C181 C178 1.409 . S
C181 C179 1.415 . S
C182 H172 0.930 . S
C182 C180 1.419 . S
C182 C183 1.362 . S
C183 H173 0.930 . S
C183 C176 1.409 . S
C183 C182 1.362 . S
H184 C190 0.930 . S
H185 C193 0.930 . S
H186 C194 0.930 . S
H187 C195 0.930 . S
H188 C198 0.930 . S
H189 C199 0.930 . S
C190 H184 0.930 . S
C190 C191 1.355 . S
C190 C192 1.415 . S
C191 C190 1.355 . S
C191 C193 1.419 1_556 S
C192 C190 1.415 . S
C192 C197 1.425 1_556 S
C192 C199 1.409 . S
C193 H185 0.930 . S
C193 C191 1.419 1_554 S
C193 C194 1.362 . S
C194 H186 0.930 . S
C194 C193 1.362 . S
C194 C197 1.409 . S
C195 H187 0.930 . S
C195 C196 1.355 . S
C195 C197 1.415 . S
C196 C195 1.355 . S
C196 C198 1.419 1_554 S
C197 C192 1.425 1_554 S
C197 C194 1.409 . S
C197 C195 1.415 . S
C198 H188 0.930 . S
C198 C196 1.419 1_556 S
C198 C199 1.362 . S
C199 H189 0.930 . S
C199 C192 1.409 . S
C199 C198 1.362 . S
H200 C206 0.930 . S
H201 C209 0.930 . S
H202 C210 0.930 . S
H203 C211 0.930 . S
H204 C214 0.930 . S
H205 C215 0.930 . S
C206 H200 0.930 . S
C206 C207 1.355 1_556 S
C206 C208 1.415 . S
C207 C206 1.355 1_554 S
C207 C209 1.419 . S
C208 C206 1.415 . S
C208 C213 1.425 1_556 S
C208 C215 1.409 . S
C209 H201 0.930 . S
C209 C207 1.419 . S
C209 C210 1.362 . S
C210 H202 0.930 . S
C210 C209 1.362 . S
C210 C213 1.409 . S
C211 H203 0.930 . S
C211 C212 1.355 1_554 S
C211 C213 1.415 . S
C212 C211 1.355 1_556 S
C212 C214 1.419 . S
C213 C208 1.425 1_554 S
C213 C210 1.409 . S
C213 C211 1.415 . S
C214 H204 0.930 . S
C214 C212 1.419 . S
C214 C215 1.362 . S
C215 H205 0.930 . S
C215 C208 1.409 . S
C215 C214 1.362 . S
H216 C222 0.930 . S
H217 C225 0.930 . S
H218 C226 0.930 . S
H219 C227 0.930 . S
H220 C230 0.930 . S
H221 C231 0.930 . S
C222 H216 0.930 . S
C222 C223 1.355 1_556 S
C222 C224 1.415 . S
C223 C222 1.355 1_554 S
C223 C225 1.419 . S
C224 C222 1.415 . S
C224 C229 1.425 1_556 S
C224 C231 1.409 . S
C225 H217 0.930 . S
C225 C223 1.419 . S
C225 C226 1.362 . S
C226 H218 0.930 . S
C226 C225 1.362 . S
C226 C229 1.409 . S
C227 H219 0.930 . S
C227 C228 1.355 1_554 S
C227 C229 1.415 . S
C228 C227 1.355 1_556 S
C228 C230 1.419 . S
C229 C224 1.425 1_554 S
C229 C226 1.409 . S
C229 C227 1.415 . S
C230 H220 0.930 . S
C230 C228 1.419 . S
C230 C231 1.362 . S
C231 H221 0.930 . S
C231 C224 1.409 . S
C231 C230 1.362 . S
H232 C238 0.930 . S
H233 C241 0.930 . S
H234 C242 0.930 . S
H235 C243 0.930 . S
H236 C246 0.930 . S
H237 C247 0.930 . S
C238 H232 0.930 . S
C238 C239 1.355 1_556 S
C238 C240 1.415 . S
C239 C238 1.355 1_554 S
C239 C241 1.419 . S
C240 C238 1.415 . S
C240 C245 1.425 1_556 S
C240 C247 1.409 . S
C241 H233 0.930 . S
C241 C239 1.419 . S
C241 C242 1.362 . S
C242 H234 0.930 . S
C242 C241 1.362 . S
C242 C245 1.409 . S
C243 H235 0.930 . S
C243 C244 1.355 . S
C243 C245 1.415 . S
C244 C243 1.355 . S
C244 C246 1.419 1_554 S
C245 C240 1.425 1_554 S
C245 C242 1.409 . S
C245 C243 1.415 . S
C246 H236 0.930 . S
C246 C244 1.419 1_556 S
C246 C247 1.362 . S
C247 H237 0.930 . S
C247 C240 1.409 . S
C247 C246 1.362 . S
H248 C254 0.930 . S
H249 C257 0.930 . S
H250 C258 0.930 . S
H251 C259 0.930 . S
H252 C262 0.930 . S
H253 C263 0.930 . S
C254 H248 0.930 . S
C254 C255 1.355 1_554 S
C254 C256 1.415 . S
C255 C254 1.355 1_556 S
C255 C257 1.419 . S
C256 C254 1.415 . S
C256 C261 1.425 1_554 S
C256 C263 1.409 . S
C257 H249 0.930 . S
C257 C255 1.419 . S
C257 C258 1.362 . S
C258 H250 0.930 . S
C258 C257 1.362 . S
C258 C261 1.409 . S
C259 H251 0.930 . S
C259 C260 1.355 1_556 S
C259 C261 1.415 . S
C260 C259 1.355 1_554 S
C260 C262 1.419 . S
C261 C256 1.425 1_556 S
C261 C258 1.409 . S
C261 C259 1.415 . S
C262 H252 0.930 . S
C262 C260 1.419 . S
C262 C263 1.362 . S
C263 H253 0.930 . S
C263 C256 1.409 . S
C263 C262 1.362 . S
C127 C9 1.439 . S
C132 C18 1.439 1_655 S
C143 C49 1.428 1_565 S
C148 C58 1.428 1_545 S
C159 C98 1.465 . S
C164 C89 1.465 . S
C175 C19 2.633 1_556 S
C180 C90 2.541 . S
C191 C46 0.922 . S
C196 C6 0.921 1_554 S
C207 C59 2.131 1_554 S
C212 C86 2.056 1_556 S
C223 C10 2.632 1_554 S
C228 C99 2.539 . S
C239 C15 0.921 . S
C244 C55 0.922 . S
C255 C95 2.055 1_556 S
C260 C50 2.108 . S
