# Generated by pormake.
# Topology som, (6)-cn, num edge types: 1
# Building blocks:
#     Node 0, Type 0, BuildingBlock: BETFAJ_clean_sbu_0, # of connection points: 6
#     Node 1, Type 0, BuildingBlock: BETFAJ_clean_sbu_0, # of connection points: 6
#     Node 2, Type 0, BuildingBlock: BETFAJ_clean_sbu_0, # of connection points: 6
#     Node 3, Type 0, BuildingBlock: BETFAJ_clean_sbu_0, # of connection points: 6
#     Node 4, Type 0, BuildingBlock: BETFAJ_clean_sbu_0, # of connection points: 6
#     Node 5, Type 0, BuildingBlock: BETFAJ_clean_sbu_0, # of connection points: 6
#     Node 6, Type 0, BuildingBlock: BETFAJ_clean_sbu_0, # of connection points: 6
#     Node 7, Type 0, BuildingBlock: BETFAJ_clean_sbu_0, # of connection points: 6
#     Node 8, Type 0, BuildingBlock: BETFAJ_clean_sbu_0, # of connection points: 6
#     Node 9, Type 0, BuildingBlock: BETFAJ_clean_sbu_0, # of connection points: 6
#     Node 10, Type 0, BuildingBlock: BETFAJ_clean_sbu_0, # of connection points: 6
#     Node 11, Type 0, BuildingBlock: BETFAJ_clean_sbu_0, # of connection points: 6
#     Node 12, Type 0, BuildingBlock: BETFAJ_clean_sbu_0, # of connection points: 6
#     Node 13, Type 0, BuildingBlock: BETFAJ_clean_sbu_0, # of connection points: 6
#     Node 14, Type 0, BuildingBlock: BETFAJ_clean_sbu_0, # of connection points: 6
#     Node 15, Type 0, BuildingBlock: BETFAJ_clean_sbu_0, # of connection points: 6
#     Node 16, Type 0, BuildingBlock: BETFAJ_clean_sbu_0, # of connection points: 6
#     Node 17, Type 0, BuildingBlock: BETFAJ_clean_sbu_0, # of connection points: 6
#     Node 18, Type 0, BuildingBlock: BETFAJ_clean_sbu_0, # of connection points: 6
#     Node 19, Type 0, BuildingBlock: BETFAJ_clean_sbu_0, # of connection points: 6
#     Node 20, Type 0, BuildingBlock: BETFAJ_clean_sbu_0, # of connection points: 6
#     Node 21, Type 0, BuildingBlock: BETFAJ_clean_sbu_0, # of connection points: 6
#     Node 22, Type 0, BuildingBlock: BETFAJ_clean_sbu_0, # of connection points: 6
#     Node 23, Type 0, BuildingBlock: BETFAJ_clean_sbu_0, # of connection points: 6
#     Node 24, Type 0, BuildingBlock: BETFAJ_clean_sbu_0, # of connection points: 6
#     Node 25, Type 0, BuildingBlock: BETFAJ_clean_sbu_0, # of connection points: 6
#     Node 26, Type 0, BuildingBlock: BETFAJ_clean_sbu_0, # of connection points: 6
#     Node 27, Type 0, BuildingBlock: BETFAJ_clean_sbu_0, # of connection points: 6
#     Node 28, Type 0, BuildingBlock: BETFAJ_clean_sbu_0, # of connection points: 6
#     Node 29, Type 0, BuildingBlock: BETFAJ_clean_sbu_0, # of connection points: 6
#     Node 30, Type 0, BuildingBlock: BETFAJ_clean_sbu_0, # of connection points: 6
#     Node 31, Type 0, BuildingBlock: BETFAJ_clean_sbu_0, # of connection points: 6
#     Edge 32, Type (0, 0), BuildingBlock: XIVTED_clean_linker_0, # of connection points: 2
#     Edge 33, Type (0, 0), BuildingBlock: XIVTED_clean_linker_0, # of connection points: 2
#     Edge 34, Type (0, 0), BuildingBlock: XIVTED_clean_linker_0, # of connection points: 2
#     Edge 35, Type (0, 0), BuildingBlock: XIVTED_clean_linker_0, # of connection points: 2
#     Edge 36, Type (0, 0), BuildingBlock: XIVTED_clean_linker_0, # of connection points: 2
#     Edge 37, Type (0, 0), BuildingBlock: XIVTED_clean_linker_0, # of connection points: 2
#     Edge 38, Type (0, 0), BuildingBlock: XIVTED_clean_linker_0, # of connection points: 2
#     Edge 39, Type (0, 0), BuildingBlock: XIVTED_clean_linker_0, # of connection points: 2
#     Edge 40, Type (0, 0), BuildingBlock: XIVTED_clean_linker_0, # of connection points: 2
#     Edge 41, Type (0, 0), BuildingBlock: XIVTED_clean_linker_0, # of connection points: 2
#     Edge 42, Type (0, 0), BuildingBlock: XIVTED_clean_linker_0, # of connection points: 2
#     Edge 43, Type (0, 0), BuildingBlock: XIVTED_clean_linker_0, # of connection points: 2
#     Edge 44, Type (0, 0), BuildingBlock: XIVTED_clean_linker_0, # of connection points: 2
#     Edge 45, Type (0, 0), BuildingBlock: XIVTED_clean_linker_0, # of connection points: 2
#     Edge 46, Type (0, 0), BuildingBlock: XIVTED_clean_linker_0, # of connection points: 2
#     Edge 47, Type (0, 0), BuildingBlock: XIVTED_clean_linker_0, # of connection points: 2
#     Edge 48, Type (0, 0), BuildingBlock: XIVTED_clean_linker_0, # of connection points: 2
#     Edge 49, Type (0, 0), BuildingBlock: XIVTED_clean_linker_0, # of connection points: 2
#     Edge 50, Type (0, 0), BuildingBlock: XIVTED_clean_linker_0, # of connection points: 2
#     Edge 51, Type (0, 0), BuildingBlock: XIVTED_clean_linker_0, # of connection points: 2
#     Edge 52, Type (0, 0), BuildingBlock: XIVTED_clean_linker_0, # of connection points: 2
#     Edge 53, Type (0, 0), BuildingBlock: XIVTED_clean_linker_0, # of connection points: 2
#     Edge 54, Type (0, 0), BuildingBlock: XIVTED_clean_linker_0, # of connection points: 2
#     Edge 55, Type (0, 0), BuildingBlock: XIVTED_clean_linker_0, # of connection points: 2
#     Edge 56, Type (0, 0), BuildingBlock: XIVTED_clean_linker_0, # of connection points: 2
#     Edge 57, Type (0, 0), BuildingBlock: XIVTED_clean_linker_0, # of connection points: 2
#     Edge 58, Type (0, 0), BuildingBlock: XIVTED_clean_linker_0, # of connection points: 2
#     Edge 59, Type (0, 0), BuildingBlock: XIVTED_clean_linker_0, # of connection points: 2
#     Edge 60, Type (0, 0), BuildingBlock: XIVTED_clean_linker_0, # of connection points: 2
#     Edge 61, Type (0, 0), BuildingBlock: XIVTED_clean_linker_0, # of connection points: 2
#     Edge 62, Type (0, 0), BuildingBlock: XIVTED_clean_linker_0, # of connection points: 2
#     Edge 63, Type (0, 0), BuildingBlock: XIVTED_clean_linker_0, # of connection points: 2
#     Edge 64, Type (0, 0), BuildingBlock: XIVTED_clean_linker_0, # of connection points: 2
#     Edge 65, Type (0, 0), BuildingBlock: XIVTED_clean_linker_0, # of connection points: 2
#     Edge 66, Type (0, 0), BuildingBlock: XIVTED_clean_linker_0, # of connection points: 2
#     Edge 67, Type (0, 0), BuildingBlock: XIVTED_clean_linker_0, # of connection points: 2
#     Edge 68, Type (0, 0), BuildingBlock: XIVTED_clean_linker_0, # of connection points: 2
#     Edge 69, Type (0, 0), BuildingBlock: XIVTED_clean_linker_0, # of connection points: 2
#     Edge 70, Type (0, 0), BuildingBlock: XIVTED_clean_linker_0, # of connection points: 2
#     Edge 71, Type (0, 0), BuildingBlock: XIVTED_clean_linker_0, # of connection points: 2
#     Edge 72, Type (0, 0), BuildingBlock: XIVTED_clean_linker_0, # of connection points: 2
#     Edge 73, Type (0, 0), BuildingBlock: XIVTED_clean_linker_0, # of connection points: 2
#     Edge 74, Type (0, 0), BuildingBlock: XIVTED_clean_linker_0, # of connection points: 2
#     Edge 75, Type (0, 0), BuildingBlock: XIVTED_clean_linker_0, # of connection points: 2
#     Edge 76, Type (0, 0), BuildingBlock: XIVTED_clean_linker_0, # of connection points: 2
#     Edge 77, Type (0, 0), BuildingBlock: XIVTED_clean_linker_0, # of connection points: 2
#     Edge 78, Type (0, 0), BuildingBlock: XIVTED_clean_linker_0, # of connection points: 2
#     Edge 79, Type (0, 0), BuildingBlock: XIVTED_clean_linker_0, # of connection points: 2
#     Edge 80, Type (0, 0), BuildingBlock: XIVTED_clean_linker_0, # of connection points: 2
#     Edge 81, Type (0, 0), BuildingBlock: XIVTED_clean_linker_0, # of connection points: 2
#     Edge 82, Type (0, 0), BuildingBlock: XIVTED_clean_linker_0, # of connection points: 2
#     Edge 83, Type (0, 0), BuildingBlock: XIVTED_clean_linker_0, # of connection points: 2
#     Edge 84, Type (0, 0), BuildingBlock: XIVTED_clean_linker_0, # of connection points: 2
#     Edge 85, Type (0, 0), BuildingBlock: XIVTED_clean_linker_0, # of connection points: 2
#     Edge 86, Type (0, 0), BuildingBlock: XIVTED_clean_linker_0, # of connection points: 2
#     Edge 87, Type (0, 0), BuildingBlock: XIVTED_clean_linker_0, # of connection points: 2
#     Edge 88, Type (0, 0), BuildingBlock: XIVTED_clean_linker_0, # of connection points: 2
#     Edge 89, Type (0, 0), BuildingBlock: XIVTED_clean_linker_0, # of connection points: 2
#     Edge 90, Type (0, 0), BuildingBlock: XIVTED_clean_linker_0, # of connection points: 2
#     Edge 91, Type (0, 0), BuildingBlock: XIVTED_clean_linker_0, # of connection points: 2
#     Edge 92, Type (0, 0), BuildingBlock: XIVTED_clean_linker_0, # of connection points: 2
#     Edge 93, Type (0, 0), BuildingBlock: XIVTED_clean_linker_0, # of connection points: 2
#     Edge 94, Type (0, 0), BuildingBlock: XIVTED_clean_linker_0, # of connection points: 2
#     Edge 95, Type (0, 0), BuildingBlock: XIVTED_clean_linker_0, # of connection points: 2
#     Edge 96, Type (0, 0), BuildingBlock: XIVTED_clean_linker_0, # of connection points: 2
#     Edge 97, Type (0, 0), BuildingBlock: XIVTED_clean_linker_0, # of connection points: 2
#     Edge 98, Type (0, 0), BuildingBlock: XIVTED_clean_linker_0, # of connection points: 2
#     Edge 99, Type (0, 0), BuildingBlock: XIVTED_clean_linker_0, # of connection points: 2
#     Edge 100, Type (0, 0), BuildingBlock: XIVTED_clean_linker_0, # of connection points: 2
#     Edge 101, Type (0, 0), BuildingBlock: XIVTED_clean_linker_0, # of connection points: 2
#     Edge 102, Type (0, 0), BuildingBlock: XIVTED_clean_linker_0, # of connection points: 2
#     Edge 103, Type (0, 0), BuildingBlock: XIVTED_clean_linker_0, # of connection points: 2
#     Edge 104, Type (0, 0), BuildingBlock: XIVTED_clean_linker_0, # of connection points: 2
#     Edge 105, Type (0, 0), BuildingBlock: XIVTED_clean_linker_0, # of connection points: 2
#     Edge 106, Type (0, 0), BuildingBlock: XIVTED_clean_linker_0, # of connection points: 2
#     Edge 107, Type (0, 0), BuildingBlock: XIVTED_clean_linker_0, # of connection points: 2
#     Edge 108, Type (0, 0), BuildingBlock: XIVTED_clean_linker_0, # of connection points: 2
#     Edge 109, Type (0, 0), BuildingBlock: XIVTED_clean_linker_0, # of connection points: 2
#     Edge 110, Type (0, 0), BuildingBlock: XIVTED_clean_linker_0, # of connection points: 2
#     Edge 111, Type (0, 0), BuildingBlock: XIVTED_clean_linker_0, # of connection points: 2
#     Edge 112, Type (0, 0), BuildingBlock: XIVTED_clean_linker_0, # of connection points: 2
#     Edge 113, Type (0, 0), BuildingBlock: XIVTED_clean_linker_0, # of connection points: 2
#     Edge 114, Type (0, 0), BuildingBlock: XIVTED_clean_linker_0, # of connection points: 2
#     Edge 115, Type (0, 0), BuildingBlock: XIVTED_clean_linker_0, # of connection points: 2
#     Edge 116, Type (0, 0), BuildingBlock: XIVTED_clean_linker_0, # of connection points: 2
#     Edge 117, Type (0, 0), BuildingBlock: XIVTED_clean_linker_0, # of connection points: 2
#     Edge 118, Type (0, 0), BuildingBlock: XIVTED_clean_linker_0, # of connection points: 2
#     Edge 119, Type (0, 0), BuildingBlock: XIVTED_clean_linker_0, # of connection points: 2
#     Edge 120, Type (0, 0), BuildingBlock: XIVTED_clean_linker_0, # of connection points: 2
#     Edge 121, Type (0, 0), BuildingBlock: XIVTED_clean_linker_0, # of connection points: 2
#     Edge 122, Type (0, 0), BuildingBlock: XIVTED_clean_linker_0, # of connection points: 2
#     Edge 123, Type (0, 0), BuildingBlock: XIVTED_clean_linker_0, # of connection points: 2
#     Edge 124, Type (0, 0), BuildingBlock: XIVTED_clean_linker_0, # of connection points: 2
#     Edge 125, Type (0, 0), BuildingBlock: XIVTED_clean_linker_0, # of connection points: 2
#     Edge 126, Type (0, 0), BuildingBlock: XIVTED_clean_linker_0, # of connection points: 2
#     Edge 127, Type (0, 0), BuildingBlock: XIVTED_clean_linker_0, # of connection points: 2
# Relax obj value: 0.063
# Max RMSD: 0.128
# Mean RMSD: 0.128
data_MOF--net-som--node1-BETFAJ_clean_sbu_0--edge1-XIVTED_clean_linker_0
_symmetry_space_group_name_H-M    P1
_symmetry_Int_Tables_number       1
_symmetry_cell_setting            triclinic
loop_
_symmetry_equiv_pos_as_xyz
'x, y, z'
_cell_length_a     26.133529
_cell_length_b     56.542875
_cell_length_c     111.77975
_cell_angle_alpha  89.972395
_cell_angle_beta   90.009752
_cell_angle_gamma 90.07538
loop_
_atom_site_label
_atom_site_type_symbol
_atom_site_fract_x
_atom_site_fract_y
_atom_site_fract_z
_atom_type_partial_charge
Sm0 Sm 0.98536 0.49506 0.08223 0.0
Sm1 Sm 0.09692 0.47079 0.08404 0.0
C2 C 0.89009 0.50781 0.07721 0.0
C3 C 0.836 0.50055 0.07858 0.0
C4 C 0.80344 0.50173 0.06862 0.0
C5 C 0.75133 0.4965 0.06973 0.0
C6 C 0.73047 0.49002 0.08086 0.0
C7 C 0.76341 0.48843 0.09081 0.0
C8 C 0.81568 0.49359 0.08968 0.0
C9 C 0.03479 0.4959 0.1041 0.0
C10 C 0.994 0.43753 0.08684 0.0
C11 C 0.18637 0.45832 0.09319 0.0
C12 C 0.2419 0.4615 0.09151 0.0
C13 C 0.27424 0.45963 0.10146 0.0
C14 C 0.32705 0.46282 0.10025 0.0
C15 C 0.34874 0.46799 0.08902 0.0
C16 C 0.31608 0.4698 0.07902 0.0
C17 C 0.26309 0.46666 0.08027 0.0
C18 C 0.06917 0.47518 0.06025 0.0
C19 C 0.08247 0.52748 0.07726 0.0
O20 O 0.9185 0.49541 0.06989 0.0
O21 O 0.9147 0.5148 0.08679 0.0
O22 O 0.03339 0.47894 0.09683 0.0
O23 O 1.00753 0.51351 0.10015 0.0
O24 O 0.96501 0.45611 0.08456 0.0
O25 O 0.04463 0.43861 0.08765 0.0
O26 O 0.16081 0.47697 0.09674 0.0
O27 O 0.16171 0.44554 0.08526 0.0
O28 O 0.04374 0.48145 0.0693 0.0
O29 O 0.11184 0.4656 0.06375 0.0
O30 O 0.11125 0.51132 0.08266 0.0
O31 O 0.03488 0.52337 0.07401 0.0
H32 H 0.81819 0.50717 0.05998 0.0
H33 H 0.72712 0.49819 0.06191 0.0
H34 H 0.74879 0.4832 0.09948 0.0
H35 H 0.83997 0.49241 0.0975 0.0
H36 H 0.25859 0.45568 0.11022 0.0
H37 H 0.35095 0.46095 0.10811 0.0
H38 H 0.33136 0.47403 0.07028 0.0
H39 H 0.23869 0.46836 0.07248 0.0
Sm40 Sm 0.304 0.72596 0.08264 0.0
Sm41 Sm 0.19342 0.75033 0.08404 0.0
C42 C 0.39944 0.71272 0.07822 0.0
C43 C 0.45361 0.7195 0.08022 0.0
C44 C 0.47814 0.73604 0.07275 0.0
C45 C 0.53056 0.74055 0.07396 0.0
C46 C 0.55975 0.72857 0.08263 0.0
C47 C 0.53487 0.71246 0.09027 0.0
C48 C 0.48254 0.70791 0.08904 0.0
C49 C 0.25317 0.72445 0.10431 0.0
C50 C 0.29617 0.78344 0.08727 0.0
C51 C 0.10327 0.76274 0.09275 0.0
C52 C 0.04775 0.75915 0.0908 0.0
C53 C 1.01951 0.74611 0.09922 0.0
C54 C 0.96684 0.74292 0.09783 0.0
C55 C 0.94097 0.75287 0.08802 0.0
C56 C 0.96916 0.76605 0.07961 0.0
C57 C 0.02204 0.76913 0.08097 0.0
C58 C 0.22207 0.74598 0.06028 0.0
C59 C 0.2073 0.69381 0.07714 0.0
O60 O 0.37227 0.72563 0.07085 0.0
O61 O 0.37316 0.70522 0.08745 0.0
O62 O 0.25531 0.74179 0.09725 0.0
O63 O 0.28022 0.70693 0.10023 0.0
O64 O 0.3251 0.76478 0.08515 0.0
O65 O 0.24551 0.78244 0.08783 0.0
O66 O 0.12914 0.74438 0.09659 0.0
O67 O 0.12872 0.7757 0.08502 0.0
O68 O 0.24712 0.73969 0.06939 0.0
O69 O 0.17919 0.75545 0.06369 0.0
O70 O 0.17856 0.70988 0.0826 0.0
O71 O 0.2549 0.69803 0.07396 0.0
H72 H 0.45718 0.7451 0.06576 0.0
H73 H 0.54849 0.75285 0.06783 0.0
H74 H 0.55592 0.70318 0.09716 0.0
H75 H 0.46493 0.69493 0.09487 0.0
H76 H 0.03818 0.73849 0.10698 0.0
H77 H 0.94619 0.733 0.10457 0.0
H78 H 0.95042 0.77379 0.0719 0.0
H79 H 0.04263 0.77938 0.07434 0.0
Sm80 Sm 0.98747 0.72444 0.20099 0.0
Sm81 Sm 0.09847 0.7493 0.19964 0.0
C82 C 0.89208 0.71129 0.20571 0.0
C83 C 0.83795 0.71848 0.20421 0.0
C84 C 0.80666 0.72053 0.21436 0.0
C85 C 0.75446 0.72552 0.21321 0.0
C86 C 0.73218 0.72847 0.20185 0.0
C87 C 0.76382 0.72686 0.19168 0.0
C88 C 0.81613 0.72195 0.19284 0.0
C89 C 0.0376 0.72423 0.17922 0.0
C90 C 0.99526 0.78225 0.19694 0.0
C91 C 0.18832 0.76227 0.19086 0.0
C92 C 0.24378 0.75887 0.19265 0.0
C93 C 0.27567 0.75759 0.18259 0.0
C94 C 0.32838 0.75427 0.1839 0.0
C95 C 0.35047 0.75215 0.19533 0.0
C96 C 0.31831 0.75346 0.20543 0.0
C97 C 0.26541 0.75671 0.2041 0.0
C98 C 0.06994 0.74388 0.22335 0.0
C99 C 0.08512 0.69227 0.20586 0.0
O100 O 0.9201 0.7236 0.21318 0.0
O101 O 0.91731 0.70445 0.1962 0.0
O102 O 0.03583 0.74111 0.18656 0.0
O103 O 1.01024 0.70652 0.18303 0.0
O104 O 0.96654 0.7634 0.19891 0.0
O105 O 0.04594 0.78144 0.19625 0.0
O106 O 0.16268 0.7439 0.18694 0.0
O107 O 0.16331 0.77468 0.19888 0.0
O108 O 0.04503 0.73783 0.21418 0.0
O109 O 0.11254 0.75381 0.22003 0.0
O110 O 0.11371 0.70885 0.20073 0.0
O111 O 0.03719 0.6959 0.20899 0.0
H112 H 0.82243 0.71776 0.22322 0.0
H113 H 0.73126 0.72635 0.22123 0.0
H114 H 0.74812 0.72934 0.1828 0.0
H115 H 0.83924 0.72054 0.18483 0.0
H116 H 0.25974 0.75922 0.17367 0.0
H117 H 0.35192 0.75368 0.17593 0.0
H118 H 0.33391 0.75162 0.21436 0.0
H119 H 0.24147 0.75745 0.212 0.0
Sm120 Sm 0.30664 0.49399 0.19972 0.0
Sm121 Sm 0.19576 0.46903 0.1983 0.0
C122 C 0.40162 0.50788 0.20438 0.0
C123 C 0.45596 0.50193 0.20242 0.0
C124 C 0.47289 0.47843 0.20157 0.0
C125 C 0.52517 0.47347 0.20021 0.0
C126 C 0.56144 0.49192 0.19967 0.0
C127 C 0.54394 0.51541 0.20043 0.0
C128 C 0.49185 0.52032 0.20178 0.0
C129 C 0.25555 0.49537 0.17809 0.0
C130 C 0.29914 0.43636 0.19502 0.0
C131 C 0.10513 0.45614 0.18993 0.0
C132 C 0.0499 0.45977 0.19216 0.0
C133 C 0.02998 0.48232 0.19463 0.0
C134 C 0.97711 0.48563 0.19581 0.0
C135 C 0.94305 0.46645 0.19463 0.0
C136 C 0.96333 0.44381 0.19246 0.0
C137 C 1.01617 0.44054 0.19121 0.0
C138 C 0.22498 0.47361 0.22201 0.0
C139 C 0.20874 0.52566 0.20513 0.0
O140 O 0.37509 0.49404 0.21146 0.0
O141 O 0.37552 0.51538 0.19514 0.0
O142 O 0.25771 0.47804 0.18516 0.0
O143 O 0.28306 0.51285 0.18209 0.0
O144 O 0.32794 0.45517 0.19706 0.0
O145 O 0.24842 0.43714 0.19451 0.0
O146 O 0.131 0.47434 0.18586 0.0
O147 O 0.13071 0.44348 0.19774 0.0
O148 O 0.24964 0.48003 0.21287 0.0
O149 O 0.18239 0.46375 0.21865 0.0
O150 O 0.18025 0.50936 0.19975 0.0
O151 O 0.25661 0.52182 0.20826 0.0
H152 H 0.44582 0.46395 0.20203 0.0
H153 H 0.5371 0.45519 0.19952 0.0
H154 H 0.57061 0.53007 0.20025 0.0
H155 H 0.47961 0.53857 0.20249 0.0
H156 H 0.05515 0.49746 0.19548 0.0
H157 H 0.9629 0.50324 0.19766 0.0
H158 H 0.93826 0.42869 0.19139 0.0
H159 H 0.03066 0.42301 0.18927 0.0
Sm160 Sm 0.94935 0.5014 0.95031 0.0
Sm161 Sm 0.05349 0.4777 0.95091 0.0
C162 C 0.8545 0.51459 0.94499 0.0
C163 C 0.79975 0.50842 0.94639 0.0
C164 C 0.76992 0.50473 0.93612 0.0
C165 C 0.71723 0.50083 0.93704 0.0
C166 C 0.69296 0.50065 0.94827 0.0
C167 C 0.72311 0.50385 0.95859 0.0
C168 C 0.77594 0.50773 0.95767 0.0
C169 C 0.99122 0.4996 0.97293 0.0
C170 C 0.95939 0.44339 0.95434 0.0
C171 C 0.14908 0.46361 0.95467 0.0
C172 C 0.2034 0.47098 0.9537 0.0
C173 C 0.23201 0.47477 0.96417 0.0
C174 C 0.28445 0.4796 0.96357 0.0
C175 C 0.30974 0.48062 0.95247 0.0
C176 C 0.28084 0.47732 0.94197 0.0
C177 C 0.2283 0.47251 0.94257 0.0
C178 C 1.00577 0.47922 0.92877 0.0
C179 C 0.04842 0.53489 0.94764 0.0
O180 O 0.88218 0.50103 0.93807 0.0
O181 O 0.87952 0.52228 0.95435 0.0
O182 O 0.99333 0.48316 0.96528 0.0
O183 O 0.96425 0.51717 0.96893 0.0
O184 O 0.93059 0.46101 0.95036 0.0
O185 O 1.00738 0.44666 0.95738 0.0
O186 O 0.12108 0.47393 0.96284 0.0
O187 O 0.12378 0.45923 0.94481 0.0
O188 O 1.00861 0.4959 0.9362 0.0
O189 O 0.03016 0.46083 0.93274 0.0
O190 O 0.07442 0.5168 0.95183 0.0
O191 O 0.99965 0.53294 0.94468 0.0
H192 H 0.78729 0.50525 0.92732 0.0
H193 H 0.69547 0.49803 0.92891 0.0
H194 H 0.7057 0.50405 0.96738 0.0
H195 H 0.79785 0.51063 0.96576 0.0
H196 H 0.21398 0.47355 0.97288 0.0
H197 H 0.30523 0.48242 0.97183 0.0
H198 H 0.29908 0.4777 0.93327 0.0
H199 H 0.20754 0.46948 0.93433 0.0
Sm200 Sm 0.83963 0.21981 0.9495 0.0
Sm201 Sm 0.73504 0.24289 0.9502 0.0
C202 C 0.93464 0.20675 0.94426 0.0
C203 C 0.98923 0.21322 0.94533 0.0
C204 C 1.02105 0.21048 0.93533 0.0
C205 C 0.07362 0.21475 0.93618 0.0
C206 C 0.09567 0.22185 0.94709 0.0
C207 C 0.06346 0.22503 0.95707 0.0
C208 C 1.01072 0.22078 0.9562 0.0
C209 C 0.79767 0.22128 0.97215 0.0
C210 C 0.82859 0.27767 0.95355 0.0
C211 C 0.63969 0.25688 0.95432 0.0
C212 C 0.58526 0.25003 0.95334 0.0
C213 C 0.55312 0.25346 0.96323 0.0
C214 C 0.50066 0.24888 0.96241 0.0
C215 C 0.47902 0.24082 0.95163 0.0
C216 C 0.51151 0.23694 0.94177 0.0
C217 C 0.56415 0.24147 0.94262 0.0
C218 C 0.78232 0.24213 0.92804 0.0
C219 C 0.74171 0.18563 0.94671 0.0
O220 O 0.90632 0.2195 0.93709 0.0
O221 O 0.91048 0.20004 0.95393 0.0
O222 O 0.7956 0.2378 0.96454 0.0
O223 O 0.82389 0.2036 0.96801 0.0
O224 O 0.85774 0.26022 0.94954 0.0
O225 O 0.78075 0.27412 0.95664 0.0
O226 O 0.66752 0.24578 0.96226 0.0
O227 O 0.66465 0.26167 0.94446 0.0
O228 O 0.78026 0.22526 0.93538 0.0
O229 O 0.75717 0.26022 0.93209 0.0
O230 O 0.71463 0.20361 0.95065 0.0
O231 O 0.79067 0.18783 0.94401 0.0
H232 H 1.00533 0.20453 0.92687 0.0
H233 H 0.09718 0.21181 0.92835 0.0
H234 H 0.079 0.23079 0.96556 0.0
H235 H 0.98695 0.22312 0.96404 0.0
H236 H 0.56849 0.2602 0.97157 0.0
H237 H 0.47683 0.25236 0.97014 0.0
H238 H 0.49624 0.23045 0.93338 0.0
H239 H 0.58811 0.23857 0.93485 0.0
Sm240 Sm 0.94716 0.21995 0.83263 0.0
Sm241 Sm 0.05159 0.24353 0.83207 0.0
C242 C 0.85206 0.2067 0.83776 0.0
C243 C 0.79747 0.21315 0.83656 0.0
C244 C 0.76629 0.21266 0.84677 0.0
C245 C 0.71376 0.21697 0.84589 0.0
C246 C 0.69105 0.22182 0.83474 0.0
C247 C 0.72258 0.22272 0.82453 0.0
C248 C 0.77528 0.21845 0.82542 0.0
C249 C 0.98924 0.22214 0.81001 0.0
C250 C 0.95758 0.27792 0.82885 0.0
C251 C 0.14701 0.25769 0.82806 0.0
C252 C 0.20146 0.2508 0.82909 0.0
C253 C 0.23269 0.25196 0.8189 0.0
C254 C 0.28517 0.2474 0.81969 0.0
C255 C 0.30777 0.24167 0.83074 0.0
C256 C 0.27621 0.24007 0.84093 0.0
C257 C 0.22358 0.24455 0.84011 0.0
C258 C 1.00415 0.24201 0.85422 0.0
C259 C 0.04559 0.18627 0.83552 0.0
O260 O 0.88014 0.21957 0.84493 0.0
O261 O 0.87665 0.19981 0.82819 0.0
O262 O 0.99108 0.23845 0.81773 0.0
O263 O 0.96312 0.20428 0.81402 0.0
O264 O 0.92878 0.26028 0.83283 0.0
O265 O 1.00545 0.27466 0.82573 0.0
O266 O 0.11925 0.24665 0.82007 0.0
O267 O 0.1218 0.26248 0.83788 0.0
O268 O 1.0065 0.22538 0.84676 0.0
O269 O 0.02914 0.26031 0.85031 0.0
O270 O 0.07225 0.20432 0.83145 0.0
O271 O 0.99666 0.1883 0.83827 0.0
H272 H 0.78248 0.20846 0.85544 0.0
H273 H 0.69072 0.21581 0.85392 0.0
H274 H 0.70653 0.22671 0.81583 0.0
H275 H 0.79845 0.21901 0.8174 0.0
H276 H 0.21664 0.25692 0.81032 0.0
H277 H 0.30827 0.2491 0.8117 0.0
H278 H 0.29222 0.23539 0.84955 0.0
H279 H 0.20046 0.24347 0.84813 0.0
Sm280 Sm 0.83561 0.50097 0.83383 0.0
Sm281 Sm 0.73096 0.47751 0.83362 0.0
C282 C 0.93075 0.51451 0.83872 0.0
C283 C 0.98536 0.50809 0.83774 0.0
C284 C 1.01731 0.51175 0.84765 0.0
C285 C 0.06986 0.50744 0.84686 0.0
C286 C 0.09177 0.49937 0.83612 0.0
C287 C 0.05943 0.4953 0.82624 0.0
C288 C 1.0067 0.49959 0.82704 0.0
C289 C 0.792 0.49885 0.81135 0.0
C290 C 0.82487 0.44302 0.83011 0.0
C291 C 0.63551 0.46313 0.82986 0.0
C292 C 0.58113 0.47012 0.83064 0.0
C293 C 0.54895 0.46562 0.82086 0.0
C294 C 0.49653 0.47034 0.82154 0.0
C295 C 0.47498 0.47963 0.83207 0.0
C296 C 0.50753 0.48458 0.84181 0.0
C297 C 0.56012 0.47992 0.84109 0.0
C298 C 0.77999 0.47858 0.85556 0.0
C299 C 0.73743 0.53482 0.83682 0.0
O300 O 0.90261 0.50221 0.84613 0.0
O301 O 0.9064 0.5205 0.82896 0.0
O302 O 0.79061 0.48255 0.81909 0.0
O303 O 0.81843 0.5167 0.81527 0.0
O304 O 0.85418 0.46066 0.83389 0.0
O305 O 0.77667 0.44628 0.82727 0.0
O306 O 0.66345 0.47335 0.82164 0.0
O307 O 0.66041 0.45938 0.83984 0.0
O308 O 0.77728 0.49539 0.84819 0.0
O309 O 0.75454 0.46041 0.85166 0.0
O310 O 0.71032 0.5167 0.833 0.0
O311 O 0.78658 0.53284 0.83936 0.0
H312 H 1.0017 0.51843 0.85597 0.0
H313 H 0.09351 0.5111 0.8546 0.0
H314 H 0.07486 0.48878 0.81788 0.0
H315 H 0.98281 0.49653 0.81927 0.0
H316 H 0.56424 0.45794 0.81273 0.0
H317 H 0.47266 0.46603 0.81393 0.0
H318 H 0.49233 0.49203 0.84999 0.0
H319 H 0.58412 0.48366 0.84877 0.0
Sm320 Sm 0.98986 -0.00537 0.58449 0.0
Sm321 Sm 0.09351 0.9709 0.58413 0.0
C322 C 0.89433 0.00956 0.58147 0.0
C323 C 0.83979 0.00344 0.58314 0.0
C324 C 0.82048 0.98087 0.58043 0.0
C325 C 0.7678 0.97632 0.58117 0.0
C326 C 0.73343 -0.00576 0.58465 0.0
C327 C 0.75329 0.01663 0.5876 0.0
C328 C 0.80581 0.02115 0.58685 0.0
C329 C 0.04031 -0.00689 0.60625 0.0
C330 C 0.99508 0.93728 0.58763 0.0
C331 C 0.18901 0.95692 0.58822 0.0
C332 C 0.24364 0.96287 0.58652 0.0
C333 C 0.26314 -0.01449 0.58901 0.0
C334 C 0.31589 -0.01009 0.58831 0.0
C335 C 0.35014 0.97178 0.58506 0.0
C336 C 0.33013 0.94931 0.58231 0.0
C337 C 0.27755 0.94493 0.58305 0.0
C338 C 0.04749 0.97294 0.5619 0.0
C339 C 0.08406 0.0288 0.58019 0.0
O340 O 0.92002 -0.00209 0.57333 0.0
O341 O 0.92138 0.01428 0.59101 0.0
O342 O 0.03689 0.97638 0.59885 0.0
O343 O 1.01524 0.01144 0.60246 0.0
O344 O 0.96807 0.9555 0.58393 0.0
O345 O 0.0444 0.9392 0.59003 0.0
O346 O 0.16249 0.96981 0.59569 0.0
O347 O 0.16279 0.95045 0.57881 0.0
O348 O 0.04765 -0.0106 0.56955 0.0
O349 O 0.07351 0.95497 0.56579 0.0
O350 O 0.11326 0.01117 0.58398 0.0
O351 O 0.03559 0.02553 0.57758 0.0
H352 H 0.84594 0.96687 0.57757 0.0
H353 H 0.754 0.95878 0.57899 0.0
H354 H 0.72809 0.03096 0.59015 0.0
H355 H 0.81982 0.03874 0.5889 0.0
H356 H 0.23779 -0.00029 0.59168 0.0
H357 H 0.32985 0.00749 0.59033 0.0
H358 H 0.35526 0.93484 0.57993 0.0
H359 H 0.26342 0.92729 0.58117 0.0
Sm360 Sm 0.3053 0.22824 0.58256 0.0
Sm361 Sm 0.19393 0.25288 0.58409 0.0
C362 C 0.40054 0.21528 0.57766 0.0
C363 C 0.45463 0.22266 0.57903 0.0
C364 C 0.48595 0.22393 0.56885 0.0
C365 C 0.5381 0.22915 0.56991 0.0
C366 C 0.56028 0.23311 0.5812 0.0
C367 C 0.52861 0.23226 0.59139 0.0
C368 C 0.47633 0.22713 0.59032 0.0
C369 C 0.25601 0.22835 0.60443 0.0
C370 C 0.29705 0.28601 0.58659 0.0
C371 C 0.10432 0.26581 0.59297 0.0
C372 C 0.0488 0.26243 0.59129 0.0
C373 C 1.01708 0.2618 0.60139 0.0
C374 C 0.96434 0.25842 0.60019 0.0
C375 C 0.94204 0.25558 0.58881 0.0
C376 C 0.97402 0.25627 0.57867 0.0
C377 C 0.02697 0.25959 0.5799 0.0
C378 C 0.22174 0.24714 0.56036 0.0
C379 C 0.20774 0.19571 0.57837 0.0
O380 O 0.37213 0.22741 0.57021 0.0
O381 O 0.37577 0.20849 0.58726 0.0
O382 O 0.25737 0.24505 0.59698 0.0
O383 O 0.28341 0.21064 0.60068 0.0
O384 O 0.32586 0.26729 0.58447 0.0
O385 O 0.24645 0.28504 0.58745 0.0
O386 O 0.12993 0.24742 0.59684 0.0
O387 O 0.12916 0.27821 0.5849 0.0
O388 O 0.24691 0.24129 0.56951 0.0
O389 O 0.17918 0.25701 0.5637 0.0
O390 O 0.17942 0.21237 0.58349 0.0
O391 O 0.25527 0.19941 0.57493 0.0
H392 H 0.47023 0.22039 0.56006 0.0
H393 H 0.56135 0.22938 0.56189 0.0
H394 H 0.54425 0.23553 0.60021 0.0
H395 H 0.45315 0.22635 0.59834 0.0
H396 H 0.03319 0.26394 0.61026 0.0
H397 H 0.94093 0.25832 0.60818 0.0
H398 H 0.95826 0.25388 0.56979 0.0
H399 H 0.05081 0.25983 0.57197 0.0
Sm400 Sm 0.97714 0.22569 0.69888 0.0
Sm401 Sm 0.08056 0.24963 0.69923 0.0
C402 C 0.88128 0.21112 0.70184 0.0
C403 C 0.827 0.21854 0.70077 0.0
C404 C 0.80152 0.22892 0.71052 0.0
C405 C 0.74903 0.23366 0.70996 0.0
C406 C 0.72065 0.22804 0.69965 0.0
C407 C 0.74637 0.2181 0.68981 0.0
C408 C 0.79884 0.21332 0.69038 0.0
C409 C 0.0282 0.22657 0.67722 0.0
C410 C 0.98247 0.28314 0.69579 0.0
C411 C 0.17627 0.26331 0.69509 0.0
C412 C 0.23072 0.25633 0.69637 0.0
C413 C 0.25717 0.24673 0.68656 0.0
C414 C 0.30976 0.24237 0.68723 0.0
C415 C 0.33735 0.24766 0.6977 0.0
C416 C 0.31067 0.25682 0.7076 0.0
C417 C 0.25803 0.26118 0.70693 0.0
C418 C 0.03447 0.24765 0.72144 0.0
C419 C 0.07137 0.19167 0.70312 0.0
O420 O 0.9088 0.22054 0.71039 0.0
O421 O 0.90729 0.20781 0.69198 0.0
O422 O 0.02443 0.24358 0.68445 0.0
O423 O 1.00319 0.20829 0.68114 0.0
O424 O 0.95541 0.26484 0.69941 0.0
O425 O 0.03183 0.28136 0.69347 0.0
O426 O 0.1484 0.2518 0.68731 0.0
O427 O 0.15081 0.269 0.70475 0.0
O428 O 0.0348 0.23114 0.71382 0.0
O429 O 0.06016 0.26573 0.71751 0.0
O430 O 0.10048 0.20948 0.69949 0.0
O431 O 0.02262 0.19456 0.70552 0.0
H432 H 0.82186 0.23296 0.71872 0.0
H433 H 0.7306 0.2416 0.71764 0.0
H434 H 0.72564 0.21325 0.68178 0.0
H435 H 0.81705 0.20496 0.68278 0.0
H436 H 0.23743 0.24303 0.67824 0.0
H437 H 0.32888 0.235 0.67949 0.0
H438 H 0.33075 0.26138 0.71576 0.0
H439 H 0.23906 0.26891 0.7146 0.0
Sm440 Sm 0.30766 -0.00566 0.70249 0.0
Sm441 Sm 0.20412 0.9702 0.70183 0.0
C442 C 0.40322 0.00843 0.70646 0.0
C443 C 0.45763 0.00122 0.70531 0.0
C444 C 0.48535 -0.00543 0.71555 0.0
C445 C 0.53783 -0.01013 0.71486 0.0
C446 C 0.56409 -0.00814 0.70391 0.0
C447 C 0.53612 -0.00191 0.69362 0.0
C448 C 0.48357 0.00277 0.69431 0.0
C449 C 0.26053 -0.00668 0.68033 0.0
C450 C 0.30299 0.93704 0.6988 0.0
C451 C 0.10886 0.9568 0.69692 0.0
C452 C 0.05421 0.96332 0.69833 0.0
C453 C 0.02562 0.96977 0.68821 0.0
C454 C 0.97298 0.9739 0.68907 0.0
C455 C 0.94745 0.97154 0.70009 0.0
C456 C 0.97631 0.96553 0.71029 0.0
C457 C 0.02905 0.96141 0.70942 0.0
C458 C 0.24663 0.97218 0.72444 0.0
C459 C 0.21279 0.02819 0.70583 0.0
O460 O 0.37527 -0.00249 0.71447 0.0
O461 O 0.37778 0.01346 0.69671 0.0
O462 O 0.26288 0.97638 0.68764 0.0
O463 O 0.28526 0.01153 0.68441 0.0
O464 O 0.32909 0.95517 0.70297 0.0
O465 O 0.25409 0.93888 0.69599 0.0
O466 O 0.13667 0.96971 0.68969 0.0
O467 O 0.13413 0.94968 0.70636 0.0
O468 O 0.24742 -0.0113 0.71683 0.0
O469 O 0.22139 0.95414 0.72032 0.0
O470 O 0.18462 0.01038 0.70183 0.0
O471 O 0.26091 0.02529 0.70888 0.0
H472 H 0.46663 -0.00658 0.72418 0.0
H473 H 0.55788 0.98479 0.72294 0.0
H474 H 0.5551 9e-05 0.68507 0.0
H475 H 0.46362 0.00813 0.68626 0.0
H476 H 0.04385 0.9712 0.67953 0.0
H477 H 0.95225 0.97886 0.68107 0.0
H478 H 0.95791 0.96329 0.71889 0.0
H479 H 0.0498 0.95626 0.71739 0.0
Sm480 Sm 0.95411 -0.00055 0.45089 0.0
Sm481 Sm 0.0582 0.97567 0.4513 0.0
C482 C 0.85895 0.01279 0.44593 0.0
C483 C 0.80439 0.00602 0.44702 0.0
C484 C 0.77476 0.00389 0.4366 0.0
C485 C 0.7222 -0.00059 0.4373 0.0
C486 C 0.69788 -0.00294 0.44846 0.0
C487 C 0.7278 -0.00121 0.45891 0.0
C488 C 0.7805 0.00321 0.4582 0.0
C489 C 0.99687 -0.00274 0.47343 0.0
C490 C 0.96384 0.94143 0.45458 0.0
C491 C 0.15364 0.96144 0.45513 0.0
C492 C 0.20807 0.96855 0.45409 0.0
C493 C 0.23791 0.97035 0.4645 0.0
C494 C 0.29036 0.97507 0.46379 0.0
C495 C 0.31442 0.97797 0.45263 0.0
C496 C 0.28433 0.97657 0.4422 0.0
C497 C 0.23172 0.97193 0.44292 0.0
C498 C 1.01021 0.9773 0.42924 0.0
C499 C 0.05293 0.03302 0.44807 0.0
O500 O 0.88727 0.00053 0.43855 0.0
O501 O 0.8835 0.01919 0.45561 0.0
O502 O 0.99818 0.98089 0.46573 0.0
O503 O 0.97093 0.01518 0.46944 0.0
O504 O 0.93523 0.95912 0.45062 0.0
O505 O 1.01176 0.94464 0.4577 0.0
O506 O 0.12593 0.97214 0.46323 0.0
O507 O 0.12821 0.95685 0.44531 0.0
O508 O 1.01304 -0.00606 0.43669 0.0
O509 O 0.03492 0.95893 0.43312 0.0
O510 O 0.07942 0.01481 0.45198 0.0
O511 O 1.00385 0.03119 0.4454 0.0
H512 H 0.79213 0.00621 0.42787 0.0
H513 H 0.70038 -0.00148 0.42907 0.0
H514 H 0.71048 -0.00324 0.46765 0.0
H515 H 0.80229 0.00475 0.4664 0.0
H516 H 0.22081 0.96756 0.47322 0.0
H517 H 0.31236 0.97571 0.472 0.0
H518 H 0.30146 0.979 0.43346 0.0
H519 H 0.20986 0.97062 0.43471 0.0
Sm520 Sm 0.84694 0.71756 0.45123 0.0
Sm521 Sm 0.74132 0.73961 0.4527 0.0
C522 C 0.94104 0.70474 0.44506 0.0
C523 C 0.99591 0.70996 0.44668 0.0
C524 C 0.02924 0.70625 0.43705 0.0
C525 C 0.08191 0.70958 0.43841 0.0
C526 C 0.1025 0.71669 0.44947 0.0
C527 C 0.06877 0.72091 0.45907 0.0
C528 C 1.01592 0.71756 0.45769 0.0
C529 C 0.81018 0.72089 0.47434 0.0
C530 C 0.83367 0.7756 0.45418 0.0
C531 C 0.64568 0.75298 0.45707 0.0
C532 C 0.59155 0.74536 0.45674 0.0
C533 C 0.56058 0.74948 0.46677 0.0
C534 C 0.50813 0.7446 0.4664 0.0
C535 C 0.48533 0.73557 0.45595 0.0
C536 C 0.51678 0.73082 0.446 0.0
C537 C 0.56936 0.73566 0.44639 0.0
C538 C 0.78409 0.73736 0.43002 0.0
C539 C 0.75086 0.68264 0.45088 0.0
O540 O 0.91392 0.71998 0.43896 0.0
O541 O 0.91622 0.69565 0.45413 0.0
O542 O 0.8051 0.73647 0.46633 0.0
O543 O 0.838 0.70351 0.47048 0.0
O544 O 0.86294 0.75808 0.45029 0.0
O545 O 0.78657 0.77194 0.45784 0.0
O546 O 0.67532 0.74353 0.46519 0.0
O547 O 0.66896 0.7565 0.44687 0.0
O548 O 0.78436 0.72109 0.43771 0.0
O549 O 0.75903 0.75549 0.43402 0.0
O550 O 0.7254 0.70033 0.4556 0.0
O551 O 0.79681 0.68556 0.44623 0.0
H552 H 1.01452 0.70046 0.42846 0.0
H553 H 0.10652 0.7066 0.43076 0.0
H554 H 0.0833 0.72625 0.46773 0.0
H555 H 0.99085 0.72055 0.46525 0.0
H556 H 0.57684 0.75695 0.47485 0.0
H557 H 0.48538 0.74808 0.4743 0.0
H558 H 0.50056 0.72406 0.43777 0.0
H559 H 0.59232 0.73233 0.43851 0.0
Sm560 Sm 0.94747 0.71677 0.33302 0.0
Sm561 Sm 0.05066 0.7411 0.33346 0.0
C562 C 0.85188 0.70294 0.33725 0.0
C563 C 0.79736 0.70987 0.33594 0.0
C564 C 0.77198 0.72183 0.34523 0.0
C565 C 0.7194 0.7263 0.34455 0.0
C566 C 0.69073 0.71877 0.3346 0.0
C567 C 0.71629 0.70716 0.32522 0.0
C568 C 0.76891 0.70271 0.32589 0.0
C569 C 0.99272 0.71939 0.31076 0.0
C570 C 0.95625 0.77489 0.32957 0.0
C571 C 0.14645 0.75598 0.33071 0.0
C572 C 0.20081 0.74873 0.33192 0.0
C573 C 0.22544 0.73582 0.32284 0.0
C574 C 0.278 0.73121 0.32348 0.0
C575 C 0.30732 0.73948 0.33318 0.0
C576 C 0.28238 0.75193 0.34238 0.0
C577 C 0.22987 0.75657 0.34173 0.0
C578 C 0.99997 0.73892 0.35519 0.0
C579 C 0.0467 0.68374 0.33612 0.0
O580 O 0.87978 0.71457 0.34499 0.0
O581 O 0.87734 0.69714 0.32762 0.0
O582 O 0.99305 0.7357 0.31851 0.0
O583 O 0.96631 0.70139 0.31451 0.0
O584 O 0.92756 0.75696 0.33325 0.0
O585 O 1.0047 0.77205 0.32687 0.0
O586 O 0.11941 0.74646 0.32211 0.0
O587 O 0.12 0.75927 0.3405 0.0
O588 O 1.00417 0.72231 0.34775 0.0
O589 O 0.02422 0.75755 0.35143 0.0
O590 O 0.07292 0.70222 0.33244 0.0
O591 O 0.99734 0.68512 0.33855 0.0
H592 H 0.79248 0.72725 0.3532 0.0
H593 H 0.70093 0.73498 0.35203 0.0
H594 H 0.69558 0.70137 0.31735 0.0
H595 H 0.78706 0.69323 0.31862 0.0
H596 H 0.20444 0.72977 0.31507 0.0
H597 H 0.29592 0.72184 0.31615 0.0
H598 H 0.30352 0.75828 0.35007 0.0
H599 H 0.21221 0.76676 0.34882 0.0
Sm600 Sm 0.84054 -0.00095 0.33472 0.0
Sm601 Sm 0.7359 0.9756 0.33413 0.0
C602 C 0.93566 0.0122 0.33988 0.0
C603 C 0.99018 0.00566 0.33871 0.0
C604 C 0.02147 0.00643 0.3489 0.0
C605 C 0.07399 0.00209 0.34802 0.0
C606 C 0.09654 -0.00309 0.3369 0.0
C607 C 0.06489 -0.0043 0.32671 0.0
C608 C 1.01221 0.0 0.3276 0.0
C609 C 0.79835 -0.00292 0.3121 0.0
C610 C 0.82989 0.94112 0.33083 0.0
C611 C 0.6405 0.9615 0.33008 0.0
C612 C 0.58607 0.96838 0.33111 0.0
C613 C 0.55471 0.96697 0.32094 0.0
C614 C 0.50223 0.97149 0.32175 0.0
C615 C 0.47977 0.97745 0.33278 0.0
C616 C 0.51146 0.97931 0.34293 0.0
C617 C 0.5641 0.97486 0.3421 0.0
C618 C 0.78348 0.97673 0.35625 0.0
C619 C 0.7424 0.03294 0.3375 0.0
O620 O 0.90744 -0.00059 0.34706 0.0
O621 O 0.91121 0.01905 0.33027 0.0
O622 O 0.79642 0.98072 0.3198 0.0
O623 O 0.82469 0.01486 0.31612 0.0
O624 O 0.85891 0.95872 0.33476 0.0
O625 O 0.7819 0.94443 0.32779 0.0
O626 O 0.66829 0.97258 0.32211 0.0
O627 O 0.66565 0.95667 0.33991 0.0
O628 O 0.78127 -0.00649 0.34886 0.0
O629 O 0.7582 0.95857 0.35229 0.0
O630 O 0.71538 0.01485 0.33361 0.0
O631 O 0.79141 0.03092 0.34017 0.0
H632 H 1.00539 0.01091 0.35754 0.0
H633 H 0.09714 0.00349 0.35602 0.0
H634 H 0.08083 -0.00856 0.31804 0.0
H635 H 0.98894 -0.0008 0.3196 0.0
H636 H 0.57067 0.96183 0.31238 0.0
H637 H 0.47901 0.96959 0.31378 0.0
H638 H 0.49556 0.98416 0.35153 0.0
H639 H 0.58734 0.97614 0.3501 0.0
Sm640 Sm 0.48475 0.49574 0.58244 0.0
Sm641 Sm 0.58863 0.4717 0.58246 0.0
C642 C 0.38929 0.51038 0.57898 0.0
C643 C 0.3348 0.50336 0.57967 0.0
C644 C 0.30269 0.50825 0.56992 0.0
C645 C 0.25021 0.50352 0.57054 0.0
C646 C 0.22848 0.49384 0.58097 0.0
C647 C 0.26094 0.48852 0.59067 0.0
C648 C 0.31359 0.4932 0.59003 0.0
C649 C 0.53486 0.49492 0.60425 0.0
C650 C 0.48964 0.43837 0.58578 0.0
C651 C 0.6838 0.45779 0.58702 0.0
C652 C 0.73845 0.46439 0.58615 0.0
C653 C 0.77038 0.46022 0.59602 0.0
C654 C 0.82296 0.46465 0.59531 0.0
C655 C 0.84496 0.47334 0.58469 0.0
C656 C 0.81265 0.47792 0.57486 0.0
C657 C 0.7599 0.47351 0.57559 0.0
C658 C 0.54284 0.47305 0.56021 0.0
C659 C 0.5796 0.52965 0.57826 0.0
O660 O 0.4171 0.50069 0.57058 0.0
O661 O 0.41435 0.51347 0.58899 0.0
O662 O 0.53146 0.47793 0.597 0.0
O663 O 0.50994 0.51317 0.60028 0.0
O664 O 0.46301 0.45662 0.58197 0.0
O665 O 0.53897 0.4401 0.58822 0.0
O666 O 0.65567 0.46933 0.59472 0.0
O667 O 0.65935 0.45267 0.57714 0.0
O668 O 0.54311 0.48977 0.56772 0.0
O669 O 0.56875 0.45515 0.56424 0.0
O670 O 0.60855 0.51192 0.58205 0.0
O671 O 0.53092 0.52668 0.57577 0.0
H672 H 0.3181 0.51623 0.56187 0.0
H673 H 0.22644 0.50813 0.56296 0.0
H674 H 0.24564 0.48077 0.59878 0.0
H675 H 0.33749 0.48916 0.59767 0.0
H676 H 0.75474 0.45306 0.60423 0.0
H677 H 0.84655 0.4606 0.60301 0.0
H678 H 0.82811 0.48491 0.5666 0.0
H679 H 0.73608 0.47697 0.56785 0.0
Sm680 Sm 0.81378 0.7263 0.58405 0.0
Sm681 Sm 0.70274 0.75099 0.58534 0.0
C682 C 0.90919 0.71324 0.57944 0.0
C683 C 0.96326 0.72065 0.58091 0.0
C684 C 0.99256 0.72614 0.57075 0.0
C685 C 0.04476 0.73128 0.57178 0.0
C686 C 0.06903 0.73086 0.58301 0.0
C687 C 0.03944 0.72578 0.59321 0.0
C688 C 0.98717 0.72072 0.59218 0.0
C689 C 0.76285 0.72548 0.6057 0.0
C690 C 0.80565 0.78402 0.58832 0.0
C691 C 0.61283 0.76372 0.59408 0.0
C692 C 0.55736 0.76017 0.59234 0.0
C693 C 0.52664 0.75584 0.60239 0.0
C694 C 0.47398 0.75232 0.60115 0.0
C695 C 0.45075 0.75311 0.5898 0.0
C696 C 0.48164 0.75753 0.57971 0.0
C697 C 0.53453 0.76095 0.58097 0.0
C698 C 0.73194 0.74588 0.56166 0.0
C699 C 0.71626 0.69413 0.57896 0.0
O700 O 0.88106 0.72525 0.57188 0.0
O701 O 0.88394 0.70652 0.58898 0.0
O702 O 0.76496 0.74256 0.59848 0.0
O703 O 0.79023 0.70787 0.60182 0.0
O704 O 0.83457 0.7653 0.58626 0.0
O705 O 0.75501 0.78305 0.58897 0.0
O706 O 0.63858 0.74543 0.59801 0.0
O707 O 0.6378 0.77624 0.58607 0.0
O708 O 0.75655 0.7398 0.57086 0.0
O709 O 0.68921 0.7557 0.56492 0.0
O710 O 0.6876 0.7106 0.58412 0.0
O711 O 0.76427 0.69782 0.57591 0.0
H712 H 0.9753 0.72595 0.56193 0.0
H713 H 0.06642 0.73483 0.56371 0.0
H714 H 0.05675 0.72561 0.60202 0.0
H715 H 0.96578 0.71652 0.60021 0.0
H716 H 0.54346 0.75521 0.61125 0.0
H717 H 0.45134 0.7493 0.60912 0.0
H718 H 0.46507 0.758 0.57084 0.0
H719 H 0.55748 0.76411 0.57306 0.0
Sm720 Sm 0.48693 0.72756 0.7007 0.0
Sm721 Sm 0.59835 0.75207 0.69934 0.0
C722 C 0.39142 0.71447 0.70529 0.0
C723 C 0.33743 0.72225 0.70433 0.0
C724 C 0.30825 0.7249 0.71479 0.0
C725 C 0.25609 0.73029 0.71414 0.0
C726 C 0.23169 0.73304 0.70301 0.0
C727 C 0.26126 0.73089 0.69253 0.0
C728 C 0.31352 0.72554 0.69318 0.0
C729 C 0.53771 0.7269 0.67901 0.0
C730 C 0.49566 0.78521 0.69655 0.0
C731 C 0.68819 0.76506 0.69058 0.0
C732 C 0.74371 0.76231 0.69247 0.0
C733 C 0.77597 0.76128 0.68247 0.0
C734 C 0.82884 0.75882 0.68389 0.0
C735 C 0.85071 0.75736 0.69538 0.0
C736 C 0.8181 0.75823 0.70541 0.0
C737 C 0.76506 0.76066 0.70397 0.0
C738 C 0.56959 0.7469 0.72305 0.0
C739 C 0.5838 0.69508 0.70543 0.0
O740 O 0.4205 0.72535 0.7131 0.0
O741 O 0.41567 0.7089 0.69543 0.0
O742 O 0.53577 0.7439 0.68627 0.0
O743 O 0.51039 0.70923 0.68288 0.0
O744 O 0.46663 0.76658 0.69876 0.0
O745 O 0.54623 0.78416 0.69572 0.0
O746 O 0.66337 0.74625 0.68692 0.0
O747 O 0.66252 0.77774 0.69837 0.0
O748 O 0.54461 0.7409 0.71388 0.0
O749 O 0.61241 0.75663 0.71973 0.0
O750 O 0.61261 0.71156 0.70028 0.0
O751 O 0.53612 0.69891 0.70867 0.0
H752 H 0.32563 0.72238 0.72349 0.0
H753 H 0.23483 0.7322 0.7224 0.0
H754 H 0.24374 0.73262 0.6838 0.0
H755 H 0.33484 0.72351 0.68494 0.0
H756 H 0.76019 0.76234 0.67352 0.0
H757 H 0.85251 0.75777 0.67596 0.0
H758 H 0.83359 0.75736 0.71438 0.0
H759 H 0.74082 0.76132 0.71182 0.0
Sm760 Sm 0.80282 0.49397 0.70054 0.0
Sm761 Sm 0.69846 0.47102 0.70043 0.0
C762 C 0.89852 0.50793 0.70424 0.0
C763 C 0.95284 0.50093 0.70306 0.0
C764 C 0.98262 0.49826 0.71343 0.0
C765 C 0.03508 0.49378 0.71262 0.0
C766 C 0.05914 0.49202 0.7014 0.0
C767 C 0.0291 0.49424 0.69101 0.0
C768 C 0.9765 0.49865 0.69182 0.0
C769 C 0.75424 0.49285 0.67854 0.0
C770 C 0.79572 0.43667 0.69733 0.0
C771 C 0.603 0.45797 0.69564 0.0
C772 C 0.5486 0.46468 0.6969 0.0
C773 C 0.51884 0.46755 0.68655 0.0
C774 C 0.46633 0.47187 0.68739 0.0
C775 C 0.44224 0.47331 0.69861 0.0
C776 C 0.47229 0.47089 0.70899 0.0
C777 C 0.52495 0.46662 0.70816 0.0
C778 C 0.74231 0.47299 0.7229 0.0
C779 C 0.70991 0.52889 0.7043 0.0
O780 O 0.87108 0.49693 0.71231 0.0
O781 O 0.87279 0.51285 0.69451 0.0
O782 O 0.75641 0.4761 0.68595 0.0
O783 O 0.77977 0.51099 0.68243 0.0
O784 O 0.82324 0.4547 0.70109 0.0
O785 O 0.74659 0.43891 0.69483 0.0
O786 O 0.63102 0.47048 0.68829 0.0
O787 O 0.62791 0.45123 0.70521 0.0
O788 O 0.74353 0.48931 0.71518 0.0
O789 O 0.7158 0.45517 0.71898 0.0
O790 O 0.6802 0.51144 0.70047 0.0
O791 O 0.75801 0.52529 0.7071 0.0
H792 H 0.9655 0.50021 0.7222 0.0
H793 H 0.05708 0.49249 0.7208 0.0
H794 H 0.04631 0.49269 0.68223 0.0
H795 H 0.95465 0.50067 0.68365 0.0
H796 H 0.53605 0.46589 0.67777 0.0
H797 H 0.44434 0.47333 0.67921 0.0
H798 H 0.45507 0.47219 0.71778 0.0
H799 H 0.54687 0.46448 0.71631 0.0
Sm800 Sm 0.44733 0.5008 0.44891 0.0
Sm801 Sm 0.5522 0.47844 0.45058 0.0
C802 C 0.35305 0.51358 0.44279 0.0
C803 C 0.29827 0.50775 0.44413 0.0
C804 C 0.26558 0.51116 0.43434 0.0
C805 C 0.21296 0.50724 0.43543 0.0
C806 C 0.19173 0.49981 0.44638 0.0
C807 C 0.22481 0.49602 0.45616 0.0
C808 C 0.27761 0.49993 0.45504 0.0
C809 C 0.4842 0.49825 0.47203 0.0
C810 C 0.45953 0.44285 0.45245 0.0
C811 C 0.64784 0.46503 0.455 0.0
C812 C 0.70213 0.47222 0.45409 0.0
C813 C 0.73464 0.46825 0.46387 0.0
C814 C 0.78711 0.47289 0.463 0.0
C815 C 0.80834 0.48153 0.45229 0.0
C816 C 0.77541 0.48604 0.44257 0.0
C817 C 0.72282 0.48146 0.44347 0.0
C818 C 0.5099 0.48049 0.42783 0.0
C819 C 0.54349 0.53555 0.44852 0.0
O820 O 0.38106 0.49923 0.43638 0.0
O821 O 0.37717 0.52193 0.45214 0.0
O822 O 0.48855 0.48217 0.46425 0.0
O823 O 0.45783 0.51586 0.46787 0.0
O824 O 0.43076 0.46028 0.44826 0.0
O825 O 0.50646 0.44658 0.4562 0.0
O826 O 0.61928 0.47591 0.46286 0.0
O827 O 0.62347 0.46015 0.44509 0.0
O828 O 0.50993 0.49688 0.43545 0.0
O829 O 0.53435 0.46229 0.43196 0.0
O830 O 0.56883 0.51773 0.45318 0.0
O831 O 0.49738 0.53283 0.44393 0.0
H832 H 0.28071 0.51729 0.42586 0.0
H833 H 0.18875 0.51066 0.42776 0.0
H834 H 0.20992 0.49 0.46467 0.0
H835 H 0.30214 0.49707 0.46272 0.0
H836 H 0.7196 0.461 0.47213 0.0
H837 H 0.81126 0.46894 0.47062 0.0
H838 H 0.79032 0.49301 0.43425 0.0
H839 H 0.69857 0.48477 0.43579 0.0
Sm840 Sm 0.34742 0.21766 0.45095 0.0
Sm841 Sm 0.24355 0.24145 0.45121 0.0
C842 C 0.44264 0.2043 0.4461 0.0
C843 C 0.49726 0.21083 0.4476 0.0
C844 C 0.52455 0.22042 0.4379 0.0
C845 C 0.57721 0.22451 0.43875 0.0
C846 C 0.60405 0.21895 0.44929 0.0
C847 C 0.57655 0.20978 0.45908 0.0
C848 C 0.52381 0.2057 0.45823 0.0
C849 C 0.30466 0.22008 0.47348 0.0
C850 C 0.33789 0.27569 0.45443 0.0
C851 C 0.14796 0.25572 0.45477 0.0
C852 C 0.09365 0.24837 0.45357 0.0
C853 C 0.06782 0.23785 0.46324 0.0
C854 C 1.01537 0.23304 0.46257 0.0
C855 C 0.98734 0.23873 0.45222 0.0
C856 C 1.01339 0.24884 0.44245 0.0
C857 C 0.06584 0.25369 0.44314 0.0
C858 C 0.29174 0.23976 0.42917 0.0
C859 C 0.24856 0.18414 0.44812 0.0
O860 O 0.41495 0.21722 0.43887 0.0
O861 O 0.4172 0.1971 0.4555 0.0
O862 O 0.30313 0.23634 0.46572 0.0
O863 O 0.33138 0.20231 0.46964 0.0
O864 O 0.36647 0.25793 0.45056 0.0
O865 O 0.28995 0.27254 0.45756 0.0
O866 O 0.17563 0.24529 0.46298 0.0
O867 O 0.17375 0.26023 0.445 0.0
O868 O 0.28887 0.22308 0.43662 0.0
O869 O 0.26704 0.25812 0.43305 0.0
O870 O 0.22219 0.20234 0.45206 0.0
O871 O 0.29757 0.18598 0.4454 0.0
H872 H 0.50535 0.22434 0.42955 0.0
H873 H 0.59696 0.23191 0.4311 0.0
H874 H 0.59602 0.20501 0.46728 0.0
H875 H 0.50416 0.198 0.46583 0.0
H876 H 0.0879 0.23375 0.47146 0.0
H877 H 0.9967 0.22498 0.4702 0.0
H878 H 0.99293 0.25376 0.4344 0.0
H879 H 0.08429 0.26214 0.43558 0.0
Sm880 Sm 0.45506 0.21948 0.33324 0.0
Sm881 Sm 0.55925 0.24291 0.33291 0.0
C882 C 0.35994 0.2061 0.33822 0.0
C883 C 0.30525 0.21245 0.33699 0.0
C884 C 0.27622 0.21654 0.34735 0.0
C885 C 0.2235 0.22039 0.34661 0.0
C886 C 0.19838 0.22012 0.33548 0.0
C887 C 0.2277 0.21657 0.32507 0.0
C888 C 0.28056 0.21274 0.32581 0.0
C889 C 0.49763 0.2219 0.31067 0.0
C890 C 0.46538 0.2775 0.32968 0.0
C891 C 0.65482 0.25704 0.3291 0.0
C892 C 0.70916 0.24969 0.32991 0.0
C893 C 0.73689 0.24533 0.31938 0.0
C894 C 0.78939 0.24065 0.31982 0.0
C895 C 0.8156 0.24037 0.33081 0.0
C896 C 0.78758 0.24421 0.34139 0.0
C897 C 0.73499 0.24887 0.34095 0.0
C898 C 0.51134 0.24148 0.35498 0.0
C899 C 0.55311 0.18561 0.33607 0.0
O900 O 0.38786 0.21893 0.34545 0.0
O901 O 0.38483 0.19923 0.32868 0.0
O902 O 0.49928 0.23813 0.31844 0.0
O903 O 0.47145 0.20399 0.3146 0.0
O904 O 0.43625 0.25977 0.33341 0.0
O905 O 0.51353 0.27433 0.32677 0.0
O906 O 0.62649 0.24695 0.3209 0.0
O907 O 0.62989 0.26112 0.33904 0.0
O908 O 0.51375 0.22476 0.34756 0.0
O909 O 0.53642 0.25974 0.35106 0.0
O910 O 0.57994 0.2037 0.33212 0.0
O911 O 0.50418 0.18768 0.3388 0.0
H912 H 0.29422 0.2163 0.35608 0.0
H913 H 0.20236 0.22346 0.3548 0.0
H914 H 0.20959 0.21602 0.31636 0.0
H915 H 0.30179 0.2095 0.31766 0.0
H916 H 0.71816 0.24603 0.31074 0.0
H917 H 0.80951 0.23742 0.31151 0.0
H918 H 0.80656 0.24441 0.35 0.0
H919 H 0.71493 0.25238 0.34923 0.0
Sm920 Sm 0.34791 0.50179 0.33164 0.0
Sm921 Sm 0.24422 0.47749 0.33125 0.0
C922 C 0.44311 0.51518 0.33662 0.0
C923 C 0.49774 0.50868 0.33511 0.0
C924 C 0.52575 0.50046 0.345 0.0
C925 C 0.57834 0.49624 0.34409 0.0
C926 C 0.6044 0.50028 0.33326 0.0
C927 C 0.57618 0.50816 0.3233 0.0
C928 C 0.52349 0.51234 0.32421 0.0
C929 C 0.30536 0.49952 0.30909 0.0
C930 C 0.33896 0.44373 0.32783 0.0
C931 C 0.14863 0.46307 0.32764 0.0
C932 C 0.09415 0.47003 0.32902 0.0
C933 C 0.06667 0.47877 0.31914 0.0
C934 C 1.01411 0.48318 0.31999 0.0
C935 C 0.98753 0.4788 0.33071 0.0
C936 C 1.01524 0.47047 0.34066 0.0
C937 C 0.06785 0.46609 0.33981 0.0
C938 C 0.29217 0.47946 0.35334 0.0
C939 C 0.24839 0.53476 0.33453 0.0
O940 O 0.41537 0.50207 0.34377 0.0
O941 O 0.41771 0.52257 0.32725 0.0
O942 O 0.3039 0.48314 0.31679 0.0
O943 O 0.33191 0.51732 0.31301 0.0
O944 O 0.36724 0.46154 0.33181 0.0
O945 O 0.29096 0.44672 0.32473 0.0
O946 O 0.17583 0.47415 0.31955 0.0
O947 O 0.17485 0.45806 0.33728 0.0
O948 O 0.28909 0.49605 0.34586 0.0
O949 O 0.26783 0.46095 0.34946 0.0
O950 O 0.2225 0.5165 0.33046 0.0
O951 O 0.29741 0.53315 0.3373 0.0
H952 H 0.50718 0.49782 0.35357 0.0
H953 H 0.59886 0.4905 0.35199 0.0
H954 H 0.59486 0.5112 0.31479 0.0
H955 H 0.50321 0.5188 0.31642 0.0
H956 H 0.08554 0.48164 0.31064 0.0
H957 H 0.994 0.48926 0.3121 0.0
H958 H 0.9962 0.46718 0.3491 0.0
H959 H 0.08763 0.45917 0.34757 0.0
Sm960 Sm 0.48303 -0.00658 0.08512 0.0
Sm961 Sm 0.58721 0.96968 0.08545 0.0
C962 C 0.38767 0.00785 0.08133 0.0
C963 C 0.33316 0.0009 0.08214 0.0
C964 C 0.30126 0.00469 0.07223 0.0
C965 C 0.24875 8e-05 0.07293 0.0
C966 C 0.22678 -0.00837 0.0836 0.0
C967 C 0.25903 -0.0126 0.09347 0.0
C968 C 0.3117 -0.00805 0.09275 0.0
C969 C 0.53075 -0.00863 0.1072 0.0
C970 C 0.48834 0.93595 0.08792 0.0
C971 C 0.6822 0.95605 0.0904 0.0
C972 C 0.73684 0.96258 0.08938 0.0
C973 C 0.76869 0.95955 0.09936 0.0
C974 C 0.82125 0.96396 0.09856 0.0
C975 C 0.84329 0.97148 0.08772 0.0
C976 C 0.81106 0.97492 0.07776 0.0
C977 C 0.75833 0.97054 0.07858 0.0
C978 C 0.54437 0.97222 0.06292 0.0
C979 C 0.57754 0.02784 0.08198 0.0
O980 O 0.41554 -0.00243 0.07312 0.0
O981 O 0.41265 0.01167 0.09129 0.0
O982 O 0.52827 0.97488 0.09966 0.0
O983 O 0.50595 0.00977 0.1034 0.0
O984 O 0.46191 0.95426 0.08411 0.0
O985 O 0.53733 0.93778 0.09071 0.0
O986 O 0.65406 0.96831 0.0978 0.0
O987 O 0.65779 0.95001 0.08064 0.0
O988 O 0.54326 -0.0115 0.07067 0.0
O989 O 0.5701 0.9542 0.06687 0.0
O990 O 0.6064 0.00999 0.08568 0.0
O991 O 0.52929 0.02482 0.07909 0.0
H992 H 0.31685 0.01174 0.06398 0.0
H993 H 0.22514 0.00384 0.0652 0.0
H994 H 0.24354 0.9806 0.10178 0.0
H995 H 0.33541 -0.01122 0.10053 0.0
H996 H 0.753 0.9533 0.10776 0.0
H997 H 0.8448 0.9608 0.10637 0.0
H998 H 0.82656 0.98101 0.06932 0.0
H999 H 0.73457 0.97311 0.07075 0.0
Sm1000 Sm 0.81126 0.22639 0.08277 0.0
Sm1001 Sm 0.7077 0.25045 0.08309 0.0
C1002 C 0.90668 0.21192 0.07906 0.0
C1003 C 0.96118 0.21909 0.07971 0.0
C1004 C 0.99178 0.21704 0.06945 0.0
C1005 C 0.04431 0.22174 0.06994 0.0
C1006 C 0.0677 0.22851 0.08076 0.0
C1007 C 0.03671 0.23111 0.09099 0.0
C1008 C 0.98403 0.22644 0.09047 0.0
C1009 C 0.76347 0.22836 0.10486 0.0
C1010 C 0.80694 0.28378 0.08572 0.0
C1011 C 0.61268 0.26434 0.08787 0.0
C1012 C 0.55791 0.25796 0.08681 0.0
C1013 C 0.5267 0.25943 0.09699 0.0
C1014 C 0.47402 0.25534 0.09619 0.0
C1015 C 0.45113 0.24972 0.08515 0.0
C1016 C 0.48271 0.24772 0.07499 0.0
C1017 C 0.53555 0.25182 0.0758 0.0
C1018 C 0.75076 0.24805 0.06058 0.0
C1019 C 0.71646 0.19225 0.07972 0.0
O1020 O 0.87844 0.22168 0.07075 0.0
O1021 O 0.8819 0.20847 0.08908 0.0
O1022 O 0.76627 0.24495 0.09736 0.0
O1023 O 0.78786 0.20989 0.10099 0.0
O1024 O 0.83289 0.26547 0.08175 0.0
O1025 O 0.75801 0.28206 0.08855 0.0
O1026 O 0.64056 0.2521 0.09535 0.0
O1027 O 0.63744 0.27027 0.07815 0.0
O1028 O 0.75137 0.23162 0.06826 0.0
O1029 O 0.72557 0.26615 0.0646 0.0
O1030 O 0.68808 0.21021 0.08345 0.0
O1031 O 0.76467 0.19508 0.07675 0.0
H1032 H 0.97515 0.21137 0.06104 0.0
H1033 H 0.06663 0.21997 0.06183 0.0
H1034 H 0.05335 0.23608 0.09949 0.0
H1035 H 0.96149 0.22814 0.09856 0.0
H1036 H 0.54303 0.26414 0.10558 0.0
H1037 H 0.45119 0.25662 0.10425 0.0
H1038 H 0.46644 0.24362 0.06632 0.0
H1039 H 0.55866 0.25059 0.06778 0.0
Sm1040 Sm 0.48812 0.22678 0.1999 0.0
Sm1041 Sm 0.59194 0.25089 0.19988 0.0
C1042 C 0.39256 0.21228 0.20346 0.0
C1043 C 0.33814 0.21952 0.20274 0.0
C1044 C 0.30802 0.21896 0.21313 0.0
C1045 C 0.25555 0.22373 0.21261 0.0
C1046 C 0.23178 0.22905 0.20164 0.0
C1047 C 0.26219 0.23004 0.19125 0.0
C1048 C 0.31481 0.22535 0.19179 0.0
C1049 C 0.53734 0.22818 0.17801 0.0
C1050 C 0.49303 0.28432 0.1969 0.0
C1051 C 0.68729 0.26466 0.19534 0.0
C1052 C 0.74184 0.25784 0.19629 0.0
C1053 C 0.77207 0.25772 0.18591 0.0
C1054 C 0.82458 0.25317 0.18656 0.0
C1055 C 0.84829 0.24868 0.19763 0.0
C1056 C 0.81776 0.2484 0.20802 0.0
C1057 C 0.76508 0.25292 0.20736 0.0
C1058 C 0.54747 0.24831 0.22226 0.0
C1059 C 0.58302 0.19269 0.20336 0.0
O1060 O 0.42067 0.22195 0.21183 0.0
O1061 O 0.41759 0.20887 0.19347 0.0
O1062 O 0.53438 0.245 0.18538 0.0
O1063 O 0.51213 0.20991 0.18188 0.0
O1064 O 0.46652 0.26593 0.20063 0.0
O1065 O 0.54229 0.28266 0.19438 0.0
O1066 O 0.65904 0.2531 0.18765 0.0
O1067 O 0.66265 0.27014 0.20513 0.0
O1068 O 0.54728 0.23201 0.21452 0.0
O1069 O 0.57306 0.26646 0.21838 0.0
O1070 O 0.61177 0.21068 0.19977 0.0
O1071 O 0.53445 0.19544 0.20603 0.0
H1072 H 0.3249 0.21428 0.22167 0.0
H1073 H 0.23332 0.2225 0.22076 0.0
H1074 H 0.24531 0.23438 0.18268 0.0
H1075 H 0.33694 0.22593 0.18361 0.0
H1076 H 0.75518 0.26167 0.17729 0.0
H1077 H 0.84685 0.25386 0.1784 0.0
H1078 H 0.83457 0.24471 0.21667 0.0
H1079 H 0.74278 0.25285 0.21553 0.0
Sm1080 Sm 0.81211 -0.00616 0.20117 0.0
Sm1081 Sm 0.70859 0.96931 0.20123 0.0
C1082 C 0.90752 0.00885 0.20448 0.0
C1083 C 0.96211 0.00284 0.20267 0.0
C1084 C 0.98242 0.98081 0.20606 0.0
C1085 C 0.0351 0.97645 0.20508 0.0
C1086 C 0.06852 -0.00603 0.20065 0.0
C1087 C 0.04771 0.01579 0.19706 0.0
C1088 C 0.99521 0.02015 0.19808 0.0
C1089 C 0.76265 -0.00788 0.1793 0.0
C1090 C 0.80809 0.93621 0.19814 0.0
C1091 C 0.61313 0.95526 0.19691 0.0
C1092 C 0.5585 0.96213 0.19762 0.0
C1093 C 0.52795 0.96028 0.18734 0.0
C1094 C 0.47536 0.96479 0.18785 0.0
C1095 C 0.45186 0.9712 0.1987 0.0
C1096 C 0.48274 0.97346 0.20898 0.0
C1097 C 0.53549 0.969 0.20845 0.0
C1098 C 0.75363 0.97181 0.22354 0.0
C1099 C 0.71682 0.0274 0.20479 0.0
O1100 O 0.88171 -0.00321 0.21246 0.0
O1101 O 0.88043 0.01415 0.19501 0.0
O1102 O 0.76595 0.97539 0.18671 0.0
O1103 O 0.78774 0.01046 0.1831 0.0
O1104 O 0.83462 0.95479 0.20161 0.0
O1105 O 0.75855 0.93757 0.19586 0.0
O1106 O 0.64162 0.96603 0.18898 0.0
O1107 O 0.63754 0.95076 0.20687 0.0
O1108 O 0.75334 -0.01175 0.21586 0.0
O1109 O 0.72847 0.95358 0.21961 0.0
O1110 O 0.68869 0.00948 0.20089 0.0
O1111 O 0.76504 0.02458 0.20779 0.0
H1112 H 0.95776 0.96709 0.20961 0.0
H1113 H 0.04965 0.95933 0.20778 0.0
H1114 H 0.0722 0.02982 0.19377 0.0
H1115 H 0.98054 0.03733 0.19549 0.0
H1116 H 0.54466 0.95482 0.17891 0.0
H1117 H 0.45288 0.96255 0.17979 0.0
H1118 H 0.46613 0.97868 0.21745 0.0
H1119 H 0.55804 0.97062 0.21653 0.0
Sm1120 Sm 0.45498 -0.00104 0.95215 0.0
Sm1121 Sm 0.55847 0.97532 0.95169 0.0
C1122 C 0.35925 0.0127 0.94821 0.0
C1123 C 0.30473 0.00622 0.94976 0.0
C1124 C 0.2834 -0.01374 0.94415 0.0
C1125 C 0.23065 0.98196 0.94474 0.0
C1126 C 0.19809 -0.00249 0.95096 0.0
C1127 C 0.21982 0.01711 0.95682 0.0
C1128 C 0.27246 0.02143 0.95619 0.0
C1129 C 0.50145 -0.0026 0.97431 0.0
C1130 C 0.4648 0.94114 0.95631 0.0
C1131 C 0.65425 0.96058 0.95435 0.0
C1132 C 0.70853 0.9674 0.95283 0.0
C1133 C 0.72889 -0.01209 0.95812 0.0
C1134 C 0.78148 -0.00737 0.95749 0.0
C1135 C 0.81472 0.97701 0.95152 0.0
C1136 C 0.79387 0.95686 0.94596 0.0
C1137 C 0.74143 0.9521 0.94664 0.0
C1138 C 0.50666 0.97619 0.93009 0.0
C1139 C 0.55308 0.03257 0.94837 0.0
O1140 O 0.38639 0.00067 0.94049 0.0
O1141 O 0.3852 0.0187 0.95774 0.0
O1142 O 0.50139 0.9808 0.96674 0.0
O1143 O 0.47555 0.01534 0.97034 0.0
O1144 O 0.43544 0.95868 0.95249 0.0
O1145 O 0.51337 0.94445 0.95879 0.0
O1146 O 0.62805 0.97096 0.96283 0.0
O1147 O 0.62735 0.95668 0.94469 0.0
O1148 O 0.5109 -0.00684 0.93731 0.0
O1149 O 0.53147 0.95787 0.93399 0.0
O1150 O 0.58022 0.01445 0.95213 0.0
O1151 O 0.5037 0.03059 0.94608 0.0
H1152 H 0.30722 0.97418 0.9391 0.0
H1153 H 0.21532 0.96653 0.94026 0.0
H1154 H 0.19593 0.02962 0.96157 0.0
H1155 H 0.28781 0.03708 0.96049 0.0
H1156 H 0.70442 8e-05 0.96293 0.0
H1157 H 0.79615 0.00847 0.96173 0.0
H1158 H 0.81831 0.9443 0.94141 0.0
H1159 H 0.72671 0.93609 0.94257 0.0
Sm1160 Sm 0.34738 0.71892 0.94994 0.0
Sm1161 Sm 0.236 0.74342 0.95143 0.0
C1162 C 0.43715 0.70589 0.94116 0.0
C1163 C 0.49254 0.70866 0.94322 0.0
C1164 C 0.52636 0.70501 0.93368 0.0
C1165 C 0.5791 0.70779 0.93528 0.0
C1166 C 0.59923 0.7143 0.94649 0.0
C1167 C 0.565 0.71801 0.95605 0.0
C1168 C 0.51211 0.71524 0.95443 0.0
C1169 C 0.3187 0.72364 0.97369 0.0
C1170 C 0.3333 0.77578 0.95627 0.0
C1171 C 0.14068 0.75665 0.95609 0.0
C1172 C 0.08658 0.74911 0.9552 0.0
C1173 C 0.05467 0.75175 0.96519 0.0
C1174 C 1.00248 0.74644 0.96445 0.0
C1175 C 0.98083 0.73844 0.95365 0.0
C1176 C 1.01321 0.73526 0.9437 0.0
C1177 C 0.06556 0.74053 0.94447 0.0
C1178 C 0.28673 0.74439 0.92972 0.0
C1179 C 0.2442 0.68595 0.94695 0.0
O1180 O 0.41257 0.7248 0.93756 0.0
O1181 O 0.41131 0.69318 0.94892 0.0
O1182 O 0.29369 0.72977 0.96454 0.0
O1183 O 0.36159 0.71413 0.97031 0.0
O1184 O 0.362 0.75938 0.95105 0.0
O1185 O 0.28551 0.77196 0.95945 0.0
O1186 O 0.16958 0.74559 0.96385 0.0
O1187 O 0.16477 0.76205 0.94618 0.0
O1188 O 0.28468 0.7273 0.93693 0.0
O1189 O 0.25947 0.76199 0.93366 0.0
O1190 O 0.21539 0.70452 0.94933 0.0
O1191 O 0.2948 0.68697 0.9461 0.0
H1192 H 0.5119 0.70013 0.92494 0.0
H1193 H 0.60403 0.7052 0.92766 0.0
H1194 H 0.5791 0.72282 0.96483 0.0
H1195 H 0.48655 0.71823 0.96191 0.0
H1196 H 0.07003 0.75828 0.97357 0.0
H1197 H 0.97907 0.74867 0.97236 0.0
H1198 H 0.9979 0.72932 0.93522 0.0
H1199 H 0.08931 0.7383 0.93661 0.0
Sm1200 Sm 0.44796 0.72022 0.83282 0.0
Sm1201 Sm 0.55202 0.74434 0.83296 0.0
C1202 C 0.35249 0.70641 0.83719 0.0
C1203 C 0.29788 0.71226 0.83538 0.0
C1204 C 0.27855 0.73506 0.83751 0.0
C1205 C 0.22583 0.73944 0.83672 0.0
C1206 C 0.19142 0.72113 0.83377 0.0
C1207 C 0.21126 0.6985 0.83138 0.0
C1208 C 0.26382 0.69414 0.8322 0.0
C1209 C 0.49307 0.72231 0.81049 0.0
C1210 C 0.45719 0.77805 0.82883 0.0
C1211 C 0.64742 0.75936 0.82969 0.0
C1212 C 0.70198 0.75332 0.83135 0.0
C1213 C 0.72104 0.73059 0.82895 0.0
C1214 C 0.77369 0.72604 0.82971 0.0
C1215 C 0.8083 0.74411 0.83291 0.0
C1216 C 0.7887 0.76669 0.83554 0.0
C1217 C 0.7362 0.77121 0.83475 0.0
C1218 C 0.5016 0.74325 0.85473 0.0
C1219 C 0.54681 0.68705 0.83652 0.0
O1220 O 0.37911 0.71983 0.84442 0.0
O1221 O 0.37866 0.69927 0.82791 0.0
O1222 O 0.49379 0.73868 0.81819 0.0
O1223 O 0.46603 0.70457 0.81429 0.0
O1224 O 0.42845 0.76034 0.83272 0.0
O1225 O 0.50556 0.77502 0.82605 0.0
O1226 O 0.62152 0.74746 0.82167 0.0
O1227 O 0.62061 0.76431 0.83924 0.0
O1228 O 0.50507 0.72634 0.84744 0.0
O1229 O 0.52699 0.76146 0.85087 0.0
O1230 O 0.57381 0.70524 0.83273 0.0
O1231 O 0.49741 0.68884 0.83883 0.0
H1232 H 0.304 0.7494 0.83995 0.0
H1233 H 0.21202 0.75715 0.83846 0.0
H1234 H 0.18602 0.6839 0.82923 0.0
H1235 H 0.2778 0.67638 0.83061 0.0
H1236 H 0.69539 0.71645 0.82632 0.0
H1237 H 0.78729 0.70836 0.82778 0.0
H1238 H 0.81407 0.78113 0.83786 0.0
H1239 H 0.72239 0.78891 0.83657 0.0
Sm1240 Sm 0.33706 0.00141 0.83526 0.0
Sm1241 Sm 0.23288 0.97746 0.83487 0.0
C1242 C 0.43225 0.01474 0.84025 0.0
C1243 C 0.4868 0.00812 0.83908 0.0
C1244 C 0.51724 0.00704 0.84941 0.0
C1245 C 0.56979 0.00269 0.84859 0.0
C1246 C 0.59328 -0.00059 0.83738 0.0
C1247 C 0.56251 7e-05 0.82704 0.0
C1248 C 0.50981 0.00437 0.82787 0.0
C1249 C 0.29368 -0.00029 0.81277 0.0
C1250 C 0.32752 0.94353 0.83103 0.0
C1251 C 0.13737 0.96319 0.83106 0.0
C1252 C 0.08292 0.97013 0.83217 0.0
C1253 C 0.05229 0.97081 0.82186 0.0
C1254 C 0.99981 0.97537 0.82268 0.0
C1255 C 0.97656 0.97923 0.83385 0.0
C1256 C 1.00749 0.97897 0.84417 0.0
C1257 C 0.06011 0.97449 0.84335 0.0
C1258 C 0.28148 0.97852 0.85686 0.0
C1259 C 0.23839 0.03482 0.83835 0.0
O1260 O 0.4041 0.00217 0.84756 0.0
O1261 O 0.40758 0.02139 0.83064 0.0
O1262 O 0.29251 0.98317 0.82039 0.0
O1263 O 0.3198 0.01755 0.81682 0.0
O1264 O 0.35637 0.96119 0.83497 0.0
O1265 O 0.27918 0.94661 0.82825 0.0
O1266 O 0.16489 0.97415 0.82299 0.0
O1267 O 0.16295 0.95845 0.84083 0.0
O1268 O 0.27853 -0.00463 0.84953 0.0
O1269 O 0.25651 0.96026 0.8529 0.0
O1270 O 0.21161 0.01661 0.83451 0.0
O1271 O 0.28759 0.03305 0.84088 0.0
H1272 H 0.5005 0.01007 0.85814 0.0
H1273 H 0.59226 0.00262 0.85673 0.0
H1274 H 0.57916 -0.0027 0.81828 0.0
H1275 H 0.48732 0.00506 0.81974 0.0
H1276 H 0.06878 0.96728 0.81315 0.0
H1277 H 0.97719 0.97511 0.81456 0.0
H1278 H 0.99099 0.98218 0.85291 0.0
H1279 H 0.08267 0.97409 0.85147 0.0
H1280 H 0.8921 0.43054 0.09066 0.0
H1281 H 0.90988 0.2907 0.08426 0.0
H1282 H 0.03482 0.39274 0.08702 0.0
H1283 H 0.76835 0.32784 0.09093 0.0
H1284 H 0.95638 0.32769 0.08619 0.0
H1285 H 0.84683 0.39307 0.09185 0.0
C1286 C 0.91407 0.41434 0.09016 0.0
C1287 C 0.96741 0.41478 0.08859 0.0
C1288 C 0.91521 0.32779 0.08729 0.0
C1289 C 0.91542 0.37172 0.08993 0.0
C1290 C 0.88845 0.30666 0.08614 0.0
C1291 C 0.83493 0.30621 0.08731 0.0
C1292 C 0.88837 0.34874 0.08956 0.0
C1293 C 0.80952 0.32741 0.08989 0.0
C1294 C 0.88806 0.39292 0.09087 0.0
C1295 C 0.99371 0.39322 0.08817 0.0
N1296 N 0.83649 0.34789 0.09085 0.0
N1297 N 0.96733 0.37251 0.08873 0.0
H1298 H 0.52814 0.89191 0.09266 0.0
H1299 H 0.25466 0.82803 0.08857 0.0
H1300 H 0.38556 0.92857 0.08653 0.0
H1301 H 0.39863 0.79065 0.0902 0.0
H1302 H 0.30141 0.8654 0.09025 0.0
H1303 H 0.48046 0.85468 0.09412 0.0
C1304 C 0.48692 0.89215 0.09168 0.0
C1305 C 0.46092 0.91332 0.08935 0.0
C1306 C 0.32266 0.84897 0.09029 0.0
C1307 C 0.40624 0.87099 0.09104 0.0
C1308 C 0.29596 0.82765 0.08936 0.0
C1309 C 0.32273 0.8062 0.08911 0.0
C1310 C 0.37639 0.84877 0.09101 0.0
C1311 C 0.37632 0.80677 0.09021 0.0
C1312 C 0.45971 0.87093 0.0925 0.0
C1313 C 0.40738 0.91264 0.08819 0.0
N1314 N 0.40136 0.8277 0.09106 0.0
N1315 N 0.38189 0.89183 0.08901 0.0
H1316 H 0.91126 0.9294 0.19897 0.0
H1317 H 0.8928 0.78917 0.19384 0.0
H1318 H 0.76897 0.89182 0.19376 0.0
H1319 H 0.03582 0.82719 0.19661 0.0
H1320 H 0.84739 0.82659 0.19284 0.0
H1321 H 0.95749 0.89233 0.19726 0.0
C1322 C 0.8896 0.91334 0.19745 0.0
C1323 C 0.83595 0.91371 0.19661 0.0
C1324 C 0.8887 0.82679 0.1936 0.0
C1325 C 0.8891 0.87105 0.19463 0.0
C1326 C 0.91481 0.8054 0.1942 0.0
C1327 C 0.96834 0.80502 0.19543 0.0
C1328 C 0.91613 0.84806 0.19431 0.0
C1329 C 0.9946 0.82664 0.1957 0.0
C1330 C 0.9162 0.89215 0.19644 0.0
C1331 C 0.81025 0.89234 0.19451 0.0
N1332 N 0.96815 0.84732 0.19524 0.0
N1333 N 0.83709 0.87182 0.19367 0.0
H1334 H 0.25825 0.39154 0.19487 0.0
H1335 H 0.53236 0.32827 0.19153 0.0
H1336 H 0.40134 0.42929 0.19149 0.0
H1337 H 0.39021 0.29161 0.19842 0.0
H1338 H 0.48431 0.36524 0.18946 0.0
H1339 H 0.30541 0.35423 0.19394 0.0
C1340 C 0.29945 0.392 0.19383 0.0
C1341 C 0.32587 0.41358 0.19341 0.0
C1342 C 0.46374 0.34905 0.19138 0.0
C1343 C 0.38008 0.37105 0.1924 0.0
C1344 C 0.49116 0.32797 0.19257 0.0
C1345 C 0.46541 0.30686 0.19525 0.0
C1346 C 0.41027 0.34893 0.19286 0.0
C1347 C 0.41188 0.30748 0.19646 0.0
C1348 C 0.3264 0.37072 0.19335 0.0
C1349 C 0.37935 0.4131 0.19204 0.0
N1350 N 0.38618 0.32815 0.19529 0.0
N1351 N 0.40467 0.3922 0.19165 0.0
H1352 H 1.00983 0.57878 0.94204 0.0
H1353 H 0.28486 0.64118 0.94599 0.0
H1354 H 0.15123 0.54174 0.94906 0.0
H1355 H 0.142 0.67928 0.94352 0.0
H1356 H 0.23724 0.60401 0.94441 0.0
H1357 H 0.05866 0.61561 0.93998 0.0
C1358 C 0.05102 0.57838 0.9431 0.0
C1359 C 0.07636 0.55726 0.94587 0.0
C1360 C 0.21644 0.62056 0.94415 0.0
C1361 C 0.1323 0.59905 0.94348 0.0
C1362 C 0.24364 0.64174 0.94502 0.0
C1363 C 0.21737 0.66332 0.94506 0.0
C1364 C 0.16275 0.62105 0.94327 0.0
C1365 C 0.16387 0.66304 0.94372 0.0
C1366 C 0.07888 0.59935 0.94192 0.0
C1367 C 0.12989 0.55767 0.94708 0.0
N1368 N 0.13833 0.64224 0.94296 0.0
N1369 N 0.156 0.57823 0.94592 0.0
H1370 H 0.78377 0.14162 0.94337 0.0
H1371 H 0.5115 0.07629 0.94396 0.0
H1372 H 0.63898 0.1779 0.94639 0.0
H1373 H 0.65599 0.04026 0.94836 0.0
H1374 H 0.55797 0.11368 0.94179 0.0
H1375 H 0.73749 0.10398 0.94209 0.0
C1376 C 0.74235 0.14168 0.94368 0.0
C1377 C 0.71523 0.16284 0.94514 0.0
C1378 C 0.5794 0.09753 0.94318 0.0
C1379 C 0.66223 0.12009 0.94366 0.0
C1380 C 0.5529 0.07622 0.94441 0.0
C1381 C 0.57984 0.05521 0.94647 0.0
C1382 C 0.63311 0.09771 0.94396 0.0
C1383 C 0.63355 0.05609 0.94692 0.0
C1384 C 0.71597 0.12024 0.94298 0.0
C1385 C 0.66152 0.16196 0.94544 0.0
N1386 N 0.65839 0.077 0.94572 0.0
N1387 N 0.63681 0.14093 0.94476 0.0
H1388 H 1.00515 0.14252 0.84057 0.0
H1389 H 0.27927 0.07922 0.84118 0.0
H1390 H 0.14853 0.17913 0.83517 0.0
H1391 H 0.13548 0.04166 0.83915 0.0
H1392 H 0.23187 0.11653 0.8422 0.0
H1393 H 0.05268 0.10554 0.84316 0.0
C1394 C 0.04651 0.14279 0.83997 0.0
C1395 C 0.07284 0.16383 0.8375 0.0
C1396 C 0.21081 0.10006 0.8416 0.0
C1397 C 0.12727 0.12187 0.84052 0.0
C1398 C 0.23784 0.07882 0.84105 0.0
C1399 C 0.2113 0.0574 0.83991 0.0
C1400 C 0.15704 0.09975 0.84109 0.0
C1401 C 0.15756 0.05782 0.83983 0.0
C1402 C 0.07361 0.12174 0.84145 0.0
C1403 C 0.12653 0.16326 0.83689 0.0
N1404 N 0.13221 0.07867 0.84035 0.0
N1405 N 0.15194 0.1426 0.83835 0.0
H1406 H 0.50566 0.643 0.84039 0.0
H1407 H 0.77891 0.57889 0.84052 0.0
H1408 H 0.64979 0.6799 0.83697 0.0
H1409 H 0.63459 0.54214 0.83713 0.0
H1410 H 0.7321 0.61626 0.84223 0.0
H1411 H 0.55262 0.60573 0.84224 0.0
C1412 C 0.54708 0.64328 0.8401 0.0
C1413 C 0.5738 0.6645 0.83837 0.0
C1414 C 0.7108 0.59996 0.84116 0.0
C1415 C 0.6276 0.62215 0.8405 0.0
C1416 C 0.73748 0.57867 0.8402 0.0
C1417 C 0.71066 0.55746 0.83852 0.0
C1418 C 0.65706 0.5999 0.84051 0.0
C1419 C 0.65693 0.55813 0.83824 0.0
C1420 C 0.57386 0.62204 0.84114 0.0
C1421 C 0.62754 0.6639 0.83812 0.0
N1422 N 0.63193 0.57901 0.83917 0.0
N1423 N 0.65265 0.64305 0.83912 0.0
H1424 H 0.03614 0.89344 0.59222 0.0
H1425 H 0.76362 0.82846 0.5897 0.0
H1426 H 0.89226 0.92952 0.58695 0.0
H1427 H 0.90833 0.79162 0.5907 0.0
H1428 H 0.8098 0.866 0.59107 0.0
H1429 H 0.98937 0.85603 0.59399 0.0
C1430 C 0.99481 0.89352 0.59149 0.0
C1431 C 0.96816 0.91458 0.58931 0.0
C1432 C 0.83135 0.84966 0.59104 0.0
C1433 C 0.91453 0.87202 0.59134 0.0
C1434 C 0.80498 0.82824 0.59029 0.0
C1435 C 0.83209 0.80687 0.58995 0.0
C1436 C 0.88513 0.84967 0.5915 0.0
C1437 C 0.88575 0.80765 0.59078 0.0
C1438 C 0.96813 0.87219 0.59249 0.0
C1439 C 0.91454 0.91369 0.58849 0.0
N1440 N 0.91048 0.8287 0.59146 0.0
N1441 N 0.88955 0.89277 0.58947 0.0
H1442 H 0.2557 0.33064 0.58781 0.0
H1443 H 0.52963 0.39437 0.59049 0.0
H1444 H 0.39971 0.29324 0.58907 0.0
H1445 H 0.38668 0.43114 0.58504 0.0
H1446 H 0.48193 0.35722 0.59231 0.0
H1447 H 0.30261 0.36803 0.58917 0.0
C1448 C 0.29704 0.33027 0.58844 0.0
C1449 C 0.32377 0.3088 0.58818 0.0
C1450 C 0.4611 0.37348 0.59076 0.0
C1451 C 0.3776 0.35138 0.58973 0.0
C1452 C 0.48831 0.39465 0.58973 0.0
C1453 C 0.4622 0.41582 0.58748 0.0
C1454 C 0.40751 0.37358 0.58957 0.0
C1455 C 0.40856 0.4152 0.58663 0.0
C1456 C 0.32383 0.35159 0.5892 0.0
C1457 C 0.37742 0.30937 0.58908 0.0
N1458 N 0.38305 0.39443 0.58763 0.0
N1459 N 0.40254 0.3303 0.58976 0.0
H1460 H 0.02443 0.32715 0.69235 0.0
H1461 H 0.75306 0.39293 0.69333 0.0
H1462 H 0.87959 0.29088 0.69581 0.0
H1463 H 0.89839 0.42862 0.69724 0.0
H1464 H 0.79877 0.35533 0.69134 0.0
H1465 H 0.9784 0.36476 0.69117 0.0
C1466 C 0.98303 0.32708 0.69278 0.0
C1467 C 0.95587 0.30591 0.69431 0.0
C1468 C 0.82053 0.37145 0.69259 0.0
C1469 C 0.90309 0.3487 0.69296 0.0
C1470 C 0.79448 0.39288 0.69371 0.0
C1471 C 0.8219 0.41387 0.69558 0.0
C1472 C 0.87426 0.37113 0.69326 0.0
C1473 C 0.87558 0.41282 0.69596 0.0
C1474 C 0.95678 0.34852 0.69214 0.0
C1475 C 0.90218 0.30681 0.69478 0.0
N1476 N 0.89997 0.39181 0.69484 0.0
N1477 N 0.87757 0.32786 0.69415 0.0
H1478 H 0.53729 0.82986 0.69611 0.0
H1479 H 0.26383 0.89349 0.69278 0.0
H1480 H 0.39349 0.79244 0.69332 0.0
H1481 H 0.4057 0.92975 0.70048 0.0
H1482 H 0.31185 0.85661 0.69045 0.0
H1483 H 0.49055 0.86728 0.69507 0.0
C1484 C 0.49604 0.8295 0.69518 0.0
C1485 C 0.46926 0.80802 0.69496 0.0
C1486 C 0.33237 0.8727 0.69261 0.0
C1487 C 0.41565 0.85061 0.69379 0.0
C1488 C 0.30498 0.89372 0.69394 0.0
C1489 C 0.33068 0.91465 0.69695 0.0
C1490 C 0.38573 0.87273 0.69426 0.0
C1491 C 0.38412 0.91398 0.69829 0.0
C1492 C 0.46935 0.85084 0.69462 0.0
C1493 C 0.41575 0.80859 0.69371 0.0
N1494 N 0.40981 0.89335 0.69698 0.0
N1495 N 0.39072 0.82953 0.69324 0.0
H1496 H 1.01296 0.07734 0.44435 0.0
H1497 H 0.28834 0.13989 0.44409 0.0
H1498 H 0.15598 0.03969 0.44777 0.0
H1499 H 0.14551 0.17742 0.44817 0.0
H1500 H 0.24013 0.10285 0.44233 0.0
H1501 H 0.0611 0.11441 0.44263 0.0
C1502 C 0.05437 0.07686 0.44467 0.0
C1503 C 0.08045 0.0555 0.44636 0.0
C1504 C 0.21947 0.11926 0.44356 0.0
C1505 C 0.13556 0.09757 0.44436 0.0
C1506 C 0.24696 0.14035 0.44455 0.0
C1507 C 0.22097 0.16168 0.44643 0.0
C1508 C 0.16577 0.11964 0.44438 0.0
C1509 C 0.16724 0.16133 0.4469 0.0
C1510 C 0.08181 0.09798 0.44371 0.0
C1511 C 0.1342 0.05582 0.44665 0.0
N1512 N 0.14145 0.14063 0.44592 0.0
N1513 N 0.15995 0.07653 0.44571 0.0
H1514 H 0.70179 0.66186 0.46919 0.0
H1515 H 0.55268 0.56762 0.43023 0.0
H1516 H 0.73969 0.65233 0.43197 0.0
H1517 H 0.59335 0.55496 0.46707 0.0
H1518 H 0.60683 0.60347 0.43044 0.0
H1519 H 0.64833 0.62641 0.46839 0.0
C1520 C 0.69925 0.65202 0.46089 0.0
C1521 C 0.72538 0.65963 0.45067 0.0
C1522 C 0.60344 0.59282 0.43845 0.0
C1523 C 0.66322 0.61981 0.44957 0.0
C1524 C 0.57223 0.57269 0.43839 0.0
C1525 C 0.56872 0.55864 0.44867 0.0
C1526 C 0.62988 0.59889 0.44896 0.0
C1527 C 0.59524 0.56549 0.45898 0.0
C1528 C 0.6687 0.63195 0.46043 0.0
C1529 C 0.7206 0.64661 0.44006 0.0
N1530 N 0.62454 0.58523 0.45889 0.0
N1531 N 0.68939 0.62733 0.43973 0.0
H1532 H 0.28634 0.57919 0.33922 0.0
H1533 H 1.00822 0.63884 0.33908 0.0
H1534 H 0.14516 0.54048 0.33442 0.0
H1535 H 0.14985 0.67814 0.33704 0.0
H1536 H 0.05786 0.60218 0.3405 0.0
H1537 H 0.23649 0.61561 0.3415 0.0
C1538 C 0.24499 0.57834 0.3387 0.0
C1539 C 0.21995 0.55688 0.33647 0.0
C1540 C 0.07793 0.61889 0.33979 0.0
C1541 C 0.16289 0.59818 0.33911 0.0
C1542 C 0.04962 0.63976 0.33901 0.0
C1543 C 0.0749 0.66147 0.33777 0.0
C1544 C 0.1317 0.6199 0.33941 0.0
C1545 C 0.12868 0.66173 0.33779 0.0
C1546 C 0.21657 0.59907 0.33999 0.0
C1547 C 0.16621 0.5567 0.33595 0.0
N1548 N 0.15526 0.64125 0.33854 0.0
N1549 N 0.13952 0.57705 0.33721 0.0
H1550 H 0.78421 0.07705 0.34076 0.0
H1551 H 0.51172 0.14183 0.34057 0.0
H1552 H 0.6396 0.0404 0.33784 0.0
H1553 H 0.65592 0.17802 0.33568 0.0
H1554 H 0.55835 0.1045 0.34263 0.0
H1555 H 0.73772 0.11458 0.34203 0.0
C1556 C 0.74278 0.07689 0.34047 0.0
C1557 C 0.71577 0.05566 0.33904 0.0
C1558 C 0.57967 0.12067 0.34115 0.0
C1559 C 0.66254 0.09827 0.34051 0.0
C1560 C 0.55309 0.14194 0.33998 0.0
C1561 C 0.57991 0.16298 0.33781 0.0
C1562 C 0.63333 0.12058 0.34022 0.0
C1563 C 0.63357 0.16216 0.33719 0.0
C1564 C 0.71629 0.09826 0.34116 0.0
C1565 C 0.66206 0.0564 0.33876 0.0
N1566 N 0.6585 0.1413 0.33835 0.0
N1567 N 0.63722 0.07737 0.33944 0.0
H1568 H 0.08039 0.45823 0.11492 0.0
H1569 H 0.22832 0.53402 0.16466 0.0
H1570 H 0.0616 0.53366 0.11834 0.0
H1571 H 0.20896 0.4584 0.1667 0.0
H1572 H 0.17377 0.53463 0.14675 0.0
H1573 H 0.13393 0.45826 0.13287 0.0
C1574 C 0.08748 0.47482 0.11948 0.0
C1575 C 0.06641 0.49598 0.11514 0.0
C1576 C 0.18143 0.51791 0.15112 0.0
C1577 C 0.12814 0.49618 0.13572 0.0
C1578 C 0.21271 0.51754 0.16131 0.0
C1579 C 0.22319 0.49612 0.16717 0.0
C1580 C 0.16103 0.49665 0.14665 0.0
C1581 C 0.20183 0.47531 0.16247 0.0
C1582 C 0.11801 0.47482 0.12975 0.0
C1583 C 0.07693 0.51694 0.12141 0.0
N1584 N 0.17202 0.47608 0.15248 0.0
N1585 N 0.10727 0.51655 0.13134 0.0
H1586 H 0.22678 0.68599 0.11799 0.0
H1587 H 0.08385 0.76199 0.16842 0.0
H1588 H 0.20765 0.76158 0.11582 0.0
H1589 H 0.06325 0.68668 0.16482 0.0
H1590 H 0.13624 0.76197 0.15024 0.0
H1591 H 0.17388 0.6856 0.13617 0.0
C1592 C 0.21157 0.70251 0.12136 0.0
C1593 C 0.22165 0.72385 0.11538 0.0
C1594 C 0.12018 0.74545 0.15339 0.0
C1595 C 0.16138 0.72358 0.13623 0.0
C1596 C 0.09034 0.74544 0.16379 0.0
C1597 C 0.06903 0.72431 0.16813 0.0
C1598 C 0.12941 0.72411 0.14731 0.0
C1599 C 0.07877 0.70338 0.16177 0.0
C1600 C 0.18123 0.70226 0.13171 0.0
C1601 C 0.20082 0.74472 0.12013 0.0
N1602 N 0.10842 0.70378 0.15172 0.0
N1603 N 0.17194 0.74407 0.13027 0.0
H1604 H 0.80741 0.44084 0.86946 0.0
H1605 H 0.96036 0.51743 0.91809 0.0
H1606 H 0.82683 0.51633 0.86646 0.0
H1607 H 0.9772 0.44192 0.91462 0.0
H1608 H 0.90523 0.51755 0.90031 0.0
H1609 H 0.8629 0.44098 0.88716 0.0
C1610 C 0.82317 0.45747 0.87257 0.0
C1611 C 0.81242 0.47861 0.86648 0.0
C1612 C 0.92113 0.50096 0.90341 0.0
C1613 C 0.87595 0.47894 0.88678 0.0
C1614 C 0.95257 0.50089 0.91356 0.0
C1615 C 0.97357 0.47964 0.91782 0.0
C1616 C 0.90999 0.47959 0.89752 0.0
C1617 C 0.96205 0.45871 0.91161 0.0
C1618 C 0.85505 0.45753 0.88264 0.0
C1619 C 0.83412 0.49963 0.87088 0.0
N1620 N 0.93088 0.45919 0.90184 0.0
N1621 N 0.86464 0.49928 0.88077 0.0
H1622 H 0.95851 0.2038 0.86487 0.0
H1623 H 0.8089 0.28002 0.91411 0.0
H1624 H 0.97683 0.27923 0.86854 0.0
H1625 H 0.82837 0.20453 0.91693 0.0
H1626 H 0.86339 0.28004 0.89625 0.0
H1627 H 0.90424 0.2036 0.88279 0.0
C1628 C 0.95122 0.22032 0.86948 0.0
C1629 C 0.97239 0.24156 0.86524 0.0
C1630 C 0.85574 0.26346 0.90076 0.0
C1631 C 0.9098 0.24151 0.88569 0.0
C1632 C 0.82444 0.26343 0.91093 0.0
C1633 C 0.81401 0.24224 0.91701 0.0
C1634 C 0.87636 0.2421 0.89652 0.0
C1635 C 0.83541 0.22127 0.91251 0.0
C1636 C 0.92028 0.22019 0.87971 0.0
C1637 C 0.96153 0.26244 0.87153 0.0
N1638 N 0.86535 0.22171 0.90253 0.0
N1639 N 0.93082 0.26192 0.88138 0.0
H1640 H 0.08628 0.95485 0.61679 0.0
H1641 H 0.23417 0.03111 0.66637 0.0
H1642 H 0.06752 0.0302 0.62064 0.0
H1643 H 0.21488 0.95558 0.66916 0.0
H1644 H 0.1803 0.03103 0.64842 0.0
H1645 H 0.14018 0.95459 0.63479 0.0
C1646 C 0.09343 0.97133 0.62144 0.0
C1647 C 0.07221 -0.00743 0.61724 0.0
C1648 C 0.18784 0.01446 0.65294 0.0
C1649 C 0.13434 -0.00754 0.63777 0.0
C1650 C 0.21879 0.01448 0.66317 0.0
C1651 C 0.2291 -0.00669 0.66926 0.0
C1652 C 0.16745 -0.00695 0.64866 0.0
C1653 C 0.20791 0.9723 0.66473 0.0
C1654 C 0.12414 0.97117 0.63172 0.0
C1655 C 0.08288 0.01341 0.6236 0.0
N1656 N 0.1783 0.97268 0.65468 0.0
N1657 N 0.11335 0.01286 0.63349 0.0
H1658 H 0.20924 0.26603 0.61507 0.0
H1659 H 0.05727 0.18876 0.66356 0.0
H1660 H 0.22817 0.19061 0.61848 0.0
H1661 H 0.07457 0.2644 0.66631 0.0
H1662 H 0.1134 0.18899 0.64598 0.0
H1663 H 0.15375 0.26574 0.63275 0.0
C1664 C 0.2018 0.2494 0.61957 0.0
C1665 C 0.22343 0.22831 0.61531 0.0
C1666 C 0.10494 0.20554 0.65042 0.0
C1667 C 0.15954 0.2278 0.63553 0.0
C1668 C 0.07271 0.20543 0.66043 0.0
C1669 C 0.06115 0.2266 0.6664 0.0
C1670 C 0.12535 0.22701 0.64623 0.0
C1671 C 0.08246 0.24767 0.66198 0.0
C1672 C 0.17016 0.24925 0.62967 0.0
C1673 C 0.21244 0.20728 0.62149 0.0
N1674 N 0.11331 0.24736 0.65214 0.0
N1675 N 0.18106 0.20753 0.63123 0.0
H1676 H 0.96464 0.01552 0.41862 0.0
H1677 H 0.81062 0.93896 0.37017 0.0
H1678 H 0.98129 0.93999 0.41514 0.0
H1679 H 0.83032 0.01444 0.36714 0.0
H1680 H 0.86628 0.93908 0.38783 0.0
H1681 H 0.90906 0.01563 0.40091 0.0
C1682 C 0.95671 -0.00103 0.4141 0.0
C1683 C 0.97778 0.97772 0.41833 0.0
C1684 C 0.85843 0.95563 0.38332 0.0
C1685 C 0.91372 0.97767 0.39813 0.0
C1686 C 0.82645 0.95559 0.37326 0.0
C1687 C 0.81577 0.97673 0.36718 0.0
C1688 C 0.87948 0.97702 0.38744 0.0
C1689 C 0.83756 -0.00226 0.37156 0.0
C1690 C 0.92502 -0.00096 0.40399 0.0
C1691 C 0.96609 0.95679 0.41215 0.0
N1692 N 0.86819 -0.00263 0.38143 0.0
N1693 N 0.93468 0.95727 0.40242 0.0
H1694 H 0.95683 0.70003 0.36594 0.0
H1695 H 0.8057 0.77484 0.41545 0.0
H1696 H 0.9707 0.77567 0.36953 0.0
H1697 H 0.83248 0.69997 0.4191 0.0
H1698 H 0.85818 0.77504 0.39729 0.0
H1699 H 0.90383 0.69917 0.3841 0.0
C1700 C 0.94877 0.71645 0.37056 0.0
C1701 C 0.96839 0.73795 0.36624 0.0
C1702 C 0.85258 0.75855 0.40205 0.0
C1703 C 0.90729 0.73713 0.38695 0.0
C1704 C 0.82241 0.7584 0.41239 0.0
C1705 C 0.81462 0.73735 0.4188 0.0
C1706 C 0.87475 0.73742 0.39794 0.0
C1707 C 0.83748 0.71659 0.41443 0.0
C1708 C 0.91861 0.71593 0.38093 0.0
C1709 C 0.95661 0.75869 0.37257 0.0
N1710 N 0.86631 0.71712 0.40425 0.0
N1711 N 0.92669 0.75778 0.38254 0.0
H1712 H 0.56285 0.53254 0.6182 0.0
H1713 H 0.70722 0.45499 0.66783 0.0
H1714 H 0.57931 0.45689 0.6154 0.0
H1715 H 0.72886 0.53024 0.66413 0.0
H1716 H 0.6537 0.45524 0.64978 0.0
H1717 H 0.61667 0.53203 0.63617 0.0
C1718 C 0.57762 0.5158 0.6214 0.0
C1719 C 0.56652 0.49472 0.6153 0.0
C1720 C 0.6703 0.47169 0.65289 0.0
C1721 C 0.62807 0.49398 0.63593 0.0
C1722 C 0.70081 0.47156 0.6632 0.0
C1723 C 0.72272 0.49262 0.66747 0.0
C1724 C 0.661 0.49309 0.64686 0.0
C1725 C 0.71296 0.51358 0.66112 0.0
C1726 C 0.60853 0.51553 0.63164 0.0
C1727 C 0.58692 0.47356 0.61983 0.0
N1728 N 0.68267 0.51331 0.65119 0.0
N1729 N 0.61647 0.4737 0.62989 0.0
H1730 H 0.73451 0.68721 0.61932 0.0
H1731 H 0.58485 0.76438 0.66823 0.0
H1732 H 0.71679 0.76284 0.61684 0.0
H1733 H 0.5653 0.68893 0.66507 0.0
H1734 H 0.63974 0.76391 0.65048 0.0
H1735 H 0.67919 0.68716 0.63711 0.0
C1736 C 0.71913 0.70381 0.62255 0.0
C1737 C 0.73026 0.72506 0.61659 0.0
C1738 C 0.62337 0.74744 0.65363 0.0
C1739 C 0.66719 0.72517 0.63697 0.0
C1740 C 0.59206 0.7477 0.66378 0.0
C1741 C 0.57035 0.72666 0.66812 0.0
C1742 C 0.63362 0.72595 0.64779 0.0
C1743 C 0.58109 0.70556 0.662 0.0
C1744 C 0.6874 0.70376 0.63267 0.0
C1745 C 0.70916 0.74604 0.62114 0.0
N1746 N 0.61214 0.70571 0.65218 0.0
N1747 N 0.67888 0.74558 0.63106 0.0
H1748 H 0.33619 0.51808 0.36403 0.0
H1749 H 0.48663 0.44283 0.41351 0.0
H1750 H 0.32043 0.44253 0.36773 0.0
H1751 H 0.46267 0.51797 0.41677 0.0
H1752 H 0.43342 0.44265 0.39546 0.0
H1753 H 0.38966 0.51872 0.3821 0.0
C1754 C 0.34389 0.50163 0.36866 0.0
C1755 C 0.32365 0.48022 0.3644 0.0
C1756 C 0.43981 0.4592 0.40011 0.0
C1757 C 0.38531 0.48078 0.385 0.0
C1758 C 0.47039 0.45933 0.41039 0.0
C1759 C 0.47917 0.48045 0.41665 0.0
C1760 C 0.41823 0.48041 0.39593 0.0
C1761 C 0.45691 0.50129 0.41221 0.0
C1762 C 0.37436 0.50202 0.37898 0.0
C1763 C 0.33501 0.45944 0.37074 0.0
N1764 N 0.42766 0.50077 0.4021 0.0
N1765 N 0.36525 0.46022 0.38066 0.0
H1766 H 0.33747 0.20162 0.41843 0.0
H1767 H 0.48532 0.27889 0.36921 0.0
H1768 H 0.31884 0.27705 0.4149 0.0
H1769 H 0.46544 0.20348 0.36591 0.0
H1770 H 0.43162 0.27838 0.38718 0.0
H1771 H 0.39124 0.20169 0.4004 0.0
C1772 C 0.3446 0.21818 0.41384 0.0
C1773 C 0.32346 0.23935 0.41814 0.0
C1774 C 0.43899 0.26193 0.38254 0.0
C1775 C 0.38543 0.23961 0.39759 0.0
C1776 C 0.46984 0.2622 0.3723 0.0
C1777 C 0.47993 0.24119 0.36606 0.0
C1778 C 0.41848 0.24044 0.38669 0.0
C1779 C 0.45863 0.22008 0.37046 0.0
C1780 C 0.37524 0.21821 0.40355 0.0
C1781 C 0.33412 0.26031 0.41187 0.0
N1782 N 0.42912 0.22022 0.38052 0.0
N1783 N 0.3645 0.25993 0.40197 0.0
H1784 H 0.73305 0.02983 0.16566 0.0
H1785 H 0.57717 0.95313 0.11762 0.0
H1786 H 0.7158 0.9542 0.16854 0.0
H1787 H 0.5596 0.02856 0.12138 0.0
H1788 H 0.63372 0.95299 0.13516 0.0
H1789 H 0.67585 0.0296 0.14828 0.0
C1790 C 0.71741 0.01315 0.16259 0.0
C1791 C 0.72925 -0.00801 0.16855 0.0
C1792 C 0.61733 0.96956 0.13218 0.0
C1793 C 0.66374 -0.00842 0.14861 0.0
C1794 C 0.58508 0.96965 0.12217 0.0
C1795 C 0.56352 -0.00911 0.11806 0.0
C1796 C 0.62868 -0.0091 0.13806 0.0
C1797 C 0.57519 0.01178 0.12427 0.0
C1798 C 0.68455 0.01304 0.1527 0.0
C1799 C 0.70766 0.97091 0.16421 0.0
N1800 N 0.60715 0.01128 0.13391 0.0
N1801 N 0.67614 0.97122 0.15449 0.0
H1802 H 0.71807 0.26672 0.11542 0.0
H1803 H 0.56517 0.19044 0.1642 0.0
H1804 H 0.73501 0.19125 0.11916 0.0
H1805 H 0.58421 0.26597 0.16708 0.0
H1806 H 0.62081 0.19054 0.14655 0.0
H1807 H 0.66299 0.26702 0.13322 0.0
C1808 C 0.71032 0.25022 0.12001 0.0
C1809 C 0.73132 0.22893 0.11582 0.0
C1810 C 0.61285 0.20711 0.15103 0.0
C1811 C 0.66781 0.22909 0.13613 0.0
C1812 C 0.58089 0.20708 0.16108 0.0
C1813 C 0.56997 0.22824 0.16712 0.0
C1814 C 0.6337 0.22851 0.14686 0.0
C1815 C 0.59163 0.24925 0.1627 0.0
C1816 C 0.67891 0.25041 0.13018 0.0
C1817 C 0.71985 0.20807 0.1221 0.0
N1818 N 0.62225 0.24888 0.15282 0.0
N1819 N 0.68872 0.20866 0.13188 0.0
H1820 H 0.32775 0.01646 0.86763 0.0
H1821 H 0.47779 0.93864 0.91621 0.0
H1822 H 0.30901 0.94097 0.87092 0.0
H1823 H 0.46101 0.01424 0.91925 0.0
H1824 H 0.42242 0.93921 0.89851 0.0
H1825 H 0.38268 0.01614 0.88544 0.0
C1826 C 0.33509 -0.00018 0.87213 0.0
C1827 C 0.31364 0.97871 0.86781 0.0
C1828 C 0.43082 0.95569 0.90304 0.0
C1829 C 0.37691 0.97817 0.88814 0.0
C1830 C 0.46261 0.95538 0.91312 0.0
C1831 C 0.47408 0.97643 0.91921 0.0
C1832 C 0.41075 0.97725 0.89889 0.0
C1833 C 0.45315 -0.0024 0.91483 0.0
C1834 C 0.3664 -0.00034 0.8823 0.0
C1835 C 0.32455 0.95767 0.87397 0.0
N1836 N 0.4227 -0.00251 0.90492 0.0
N1837 N 0.35558 0.95791 0.88377 0.0
H1838 H 0.4559 0.70524 0.86566 0.0
H1839 H 0.31223 0.78231 0.91561 0.0
H1840 H 0.47529 0.78068 0.86896 0.0
H1841 H 0.33259 0.7069 0.91858 0.0
H1842 H 0.36473 0.7821 0.89738 0.0
H1843 H 0.40354 0.70542 0.88391 0.0
C1844 C 0.44918 0.72183 0.87024 0.0
C1845 C 0.47019 0.74296 0.86582 0.0
C1846 C 0.35773 0.7656 0.90202 0.0
C1847 C 0.40981 0.74336 0.88664 0.0
C1848 C 0.32763 0.76571 0.9124 0.0
C1849 C 0.31803 0.7446 0.91862 0.0
C1850 C 0.37786 0.74416 0.89771 0.0
C1851 C 0.33908 0.72359 0.91407 0.0
C1852 C 0.41936 0.72193 0.88066 0.0
C1853 C 0.46008 0.76396 0.87209 0.0
N1854 N 0.36775 0.72388 0.90389 0.0
N1855 N 0.43048 0.76366 0.88213 0.0
H1856 H 0.26285 0.65482 0.07126 0.0
H1857 H 0.02699 0.56653 0.07145 0.0
H1858 H 0.10875 0.67736 0.07939 0.0
H1859 H 0.18113 0.5439 0.07949 0.0
H1860 H 0.0569 0.60718 0.07022 0.0
H1861 H 0.23303 0.61411 0.07013 0.0
C1862 C 0.22256 0.65129 0.07269 0.0
C1863 C 0.18813 0.66955 0.07547 0.0
C1864 C 0.08414 0.59329 0.0722 0.0
C1865 C 0.15415 0.62294 0.07416 0.0
C1866 C 0.06731 0.57003 0.07285 0.0
C1867 C 0.10171 0.55175 0.07563 0.0
C1868 C 0.13583 0.59833 0.0742 0.0
C1869 C 0.15335 0.55746 0.07738 0.0
C1870 C 0.20579 0.628 0.07211 0.0
C1871 C 0.13655 0.66382 0.07727 0.0
N1872 N 0.16894 0.58034 0.07662 0.0
N1873 N 0.12102 0.64092 0.07657 0.0
H1874 H 0.18453 0.677 0.2038 0.0
H1875 H 0.10943 0.54102 0.20308 0.0
H1876 H 0.03098 0.65238 0.21103 0.0
H1877 H 0.26275 0.56528 0.21085 0.0
H1878 H 0.07949 0.58199 0.20445 0.0
H1879 H 0.21449 0.63598 0.20484 0.0
C1880 C 0.15726 0.66304 0.20568 0.0
C1881 C 0.10526 0.66811 0.20731 0.0
C1882 C 0.11959 0.57821 0.20595 0.0
C1883 C 0.13894 0.62139 0.20834 0.0
C1884 C 0.13665 0.55489 0.20515 0.0
C1885 C 0.18859 0.54974 0.20683 0.0
C1886 C 0.15493 0.59642 0.20824 0.0
C1887 C 0.22229 0.5684 0.20951 0.0
C1888 C 0.17433 0.63969 0.20629 0.0
C1889 C 0.07149 0.64934 0.20973 0.0
N1890 N 0.20496 0.59094 0.21001 0.0
N1891 N 0.08884 0.62678 0.21006 0.0
H1892 H 0.77328 0.31767 0.95716 0.0
H1893 H 1.01354 0.40328 0.95865 0.0
H1894 H 0.92798 0.29316 0.95152 0.0
H1895 H 0.86021 0.42807 0.95142 0.0
H1896 H 0.98212 0.36288 0.9588 0.0
H1897 H 0.80441 0.35814 0.95777 0.0
C1898 C 0.81395 0.32076 0.95611 0.0
C1899 C 0.84824 0.30198 0.95431 0.0
C1900 C 0.95537 0.37715 0.95719 0.0
C1901 C 0.88381 0.34837 0.95498 0.0
C1902 C 0.97309 0.40028 0.95716 0.0
C1903 C 0.9393 0.41913 0.95502 0.0
C1904 C 0.90341 0.37277 0.95517 0.0
C1905 C 0.88749 0.41407 0.9531 0.0
C1906 C 0.83152 0.34392 0.9564 0.0
C1907 C 0.90032 0.30712 0.95292 0.0
N1908 N 0.87101 0.39127 0.95325 0.0
N1909 N 0.91663 0.32993 0.95333 0.0
H1910 H 0.76999 0.40277 0.82674 0.0
H1911 H 1.01141 0.31816 0.82446 0.0
H1912 H 0.92469 0.42805 0.83173 0.0
H1913 H 0.85853 0.29292 0.83196 0.0
H1914 H 0.97961 0.3585 0.82439 0.0
H1915 H 0.80177 0.36249 0.82596 0.0
C1916 C 0.81079 0.39989 0.82761 0.0
C1917 C 0.8449 0.41882 0.82929 0.0
C1918 C 0.95306 0.34414 0.82604 0.0
C1919 C 0.88122 0.37264 0.82841 0.0
C1920 C 0.97099 0.32106 0.82602 0.0
C1921 C 0.93743 0.30212 0.82822 0.0
C1922 C 0.90113 0.34834 0.82816 0.0
C1923 C 0.88564 0.30701 0.83024 0.0
C1924 C 0.82875 0.37684 0.82723 0.0
C1925 C 0.89718 0.41395 0.83043 0.0
N1926 N 0.86897 0.32974 0.83014 0.0
N1927 N 0.91386 0.39123 0.82994 0.0
H1928 H 0.18426 0.0438 0.58142 0.0
H1929 H 0.10919 0.18022 0.58158 0.0
H1930 H 0.02956 0.06896 0.57653 0.0
H1931 H 0.26168 0.15575 0.57325 0.0
H1932 H 0.07961 0.13915 0.58143 0.0
H1933 H 0.21461 0.08486 0.58016 0.0
C1934 C 0.15682 0.05788 0.58004 0.0
C1935 C 0.10443 0.05297 0.57906 0.0
C1936 C 0.11947 0.14287 0.57955 0.0
C1937 C 0.1385 0.09962 0.57774 0.0
C1938 C 0.13631 0.16627 0.57964 0.0
C1939 C 0.18787 0.17141 0.57742 0.0
C1940 C 0.15464 0.12457 0.57739 0.0
C1941 C 0.22147 0.15263 0.57497 0.0
C1942 C 0.17408 0.08123 0.5793 0.0
C1943 C 0.07038 0.07187 0.57729 0.0
N1944 N 0.20435 0.13 0.57512 0.0
N1945 N 0.08799 0.09435 0.57676 0.0
H1946 H 1.01834 0.15092 0.70674 0.0
H1947 H 0.2644 0.06904 0.71041 0.0
H1948 H 0.17205 0.17778 0.70224 0.0
H1949 H 0.11309 0.04208 0.70273 0.0
H1950 H 0.23037 0.10905 0.71038 0.0
H1951 H 0.05227 0.11106 0.70818 0.0
C1952 C 0.05935 0.14848 0.70611 0.0
C1953 C 0.09254 0.16773 0.70436 0.0
C1954 C 0.20466 0.09437 0.70873 0.0
C1955 C 0.13137 0.12204 0.706 0.0
C1956 C 0.22388 0.07149 0.7088 0.0
C1957 C 0.19143 0.05218 0.70654 0.0
C1958 C 0.15257 0.09797 0.70649 0.0
C1959 C 0.13941 0.05647 0.70448 0.0
C1960 C 0.07857 0.12567 0.70688 0.0
C1961 C 0.14519 0.16343 0.70356 0.0
N1962 N 0.1215 0.07899 0.70451 0.0
N1963 N 0.16309 0.14095 0.70441 0.0
H1964 H 0.77736 0.81567 0.45647 0.0
H1965 H 1.01737 0.90128 0.45917 0.0
H1966 H 0.93284 0.79119 0.45218 0.0
H1967 H 0.865 0.9262 0.45102 0.0
H1968 H 0.98587 0.86091 0.45905 0.0
H1969 H 0.80817 0.85626 0.45674 0.0
C1970 C 0.8181 0.81882 0.45563 0.0
C1971 C 0.85277 0.80002 0.45437 0.0
C1972 C 0.95933 0.87519 0.45728 0.0
C1973 C 0.88797 0.84647 0.45466 0.0
C1974 C 0.97711 0.89831 0.45742 0.0
C1975 C 0.94363 0.91718 0.45511 0.0
C1976 C 0.90762 0.87085 0.45492 0.0
C1977 C 0.89203 0.91217 0.45285 0.0
C1978 C 0.8355 0.84202 0.45572 0.0
C1979 C 0.90492 0.80517 0.45318 0.0
N1980 N 0.87548 0.88938 0.45284 0.0
N1981 N 0.92105 0.828 0.45343 0.0
H1982 H 0.8566 0.78936 0.33242 0.0
H1983 H 0.92961 0.92632 0.33275 0.0
H1984 H 1.00933 0.81543 0.3255 0.0
H1985 H 0.77536 0.9008 0.32735 0.0
H1986 H 0.96006 0.88536 0.33202 0.0
H1987 H 0.8257 0.83028 0.33241 0.0
C1988 C 0.88348 0.80362 0.33084 0.0
C1989 C 0.93548 0.799 0.32895 0.0
C1990 C 0.91959 0.88885 0.33094 0.0
C1991 C 0.90083 0.84553 0.32906 0.0
C1992 C 0.90228 0.91215 0.33138 0.0
C1993 C 0.85004 0.91693 0.33006 0.0
C1994 C 0.8842 0.87036 0.32934 0.0
C1995 C 0.81609 0.89795 0.32833 0.0
C1996 C 0.86592 0.82691 0.33083 0.0
C1997 C 0.96882 0.81813 0.32696 0.0
N1998 N 0.83375 0.87547 0.32808 0.0
N1999 N 0.95096 0.84056 0.32715 0.0
H2000 H 0.52646 0.57007 0.57403 0.0
H2001 H 0.7697 0.6543 0.57329 0.0
H2002 H 0.67999 0.54414 0.57984 0.0
H2003 H 0.61691 0.67902 0.58114 0.0
H2004 H 0.73717 0.614 0.57214 0.0
H2005 H 0.55955 0.61015 0.57307 0.0
C2006 C 0.56729 0.57275 0.57503 0.0
C2007 C 0.60061 0.55369 0.57707 0.0
C2008 C 0.71083 0.62827 0.57407 0.0
C2009 C 0.63846 0.59968 0.57597 0.0
C2010 C 0.72917 0.65132 0.57467 0.0
C2011 C 0.69588 0.67008 0.57736 0.0
C2012 C 0.65878 0.62397 0.57604 0.0
C2013 C 0.6439 0.66508 0.57909 0.0
C2014 C 0.586 0.5957 0.57453 0.0
C2015 C 0.65301 0.55833 0.57831 0.0
N2016 N 0.62688 0.64244 0.57839 0.0
N2017 N 0.67044 0.58097 0.57774 0.0
H2018 H 0.76635 0.56868 0.70746 0.0
H2019 H 0.52939 0.65571 0.71153 0.0
H2020 H 0.61026 0.54464 0.70336 0.0
H2021 H 0.68162 0.6789 0.70192 0.0
H2022 H 0.55943 0.61502 0.71186 0.0
H2023 H 0.73616 0.60914 0.70865 0.0
C2024 C 0.72556 0.57187 0.70687 0.0
C2025 C 0.69063 0.55322 0.70531 0.0
C2026 C 0.5862 0.62904 0.70972 0.0
C2027 C 0.65609 0.59967 0.70667 0.0
C2028 C 0.56931 0.65232 0.7096 0.0
C2029 C 0.60314 0.67078 0.70665 0.0
C2030 C 0.63737 0.62418 0.70701 0.0
C2031 C 0.65427 0.66522 0.70419 0.0
C2032 C 0.70851 0.59504 0.7075 0.0
C2033 C 0.6384 0.55851 0.70454 0.0
N2034 N 0.6699 0.64234 0.70444 0.0
N2035 N 0.62258 0.58137 0.70526 0.0
H2036 H 0.36037 0.42733 0.45022 0.0
H2037 H 0.43676 0.29075 0.45085 0.0
H2038 H 0.51543 0.40286 0.45532 0.0
H2039 H 0.28409 0.31601 0.45838 0.0
H2040 H 0.46652 0.33188 0.45026 0.0
H2041 H 0.33108 0.38612 0.45081 0.0
C2042 C 0.38813 0.41333 0.45147 0.0
C2043 C 0.44022 0.41847 0.45282 0.0
C2044 C 0.42657 0.32828 0.4521 0.0
C2045 C 0.40739 0.37164 0.45339 0.0
C2046 C 0.40966 0.30488 0.45244 0.0
C2047 C 0.35803 0.29997 0.4547 0.0
C2048 C 0.39135 0.34673 0.45387 0.0
C2049 C 0.32436 0.31894 0.45666 0.0
C2050 C 0.37148 0.38989 0.45184 0.0
C2051 C 0.47476 0.3997 0.45437 0.0
N2052 N 0.34157 0.34149 0.45613 0.0
N2053 N 0.45774 0.3771 0.45458 0.0
H2054 H 0.36532 0.29217 0.33104 0.0
H2055 H 0.43806 0.42919 0.33139 0.0
H2056 H 0.52005 0.31795 0.32685 0.0
H2057 H 0.28626 0.40323 0.32334 0.0
H2058 H 0.46883 0.38828 0.33163 0.0
H2059 H 0.33473 0.33312 0.33021 0.0
C2060 C 0.39273 0.30639 0.32992 0.0
C2061 C 0.44515 0.30168 0.32895 0.0
C2062 C 0.42885 0.39166 0.32974 0.0
C2063 C 0.41081 0.34823 0.32812 0.0
C2064 C 0.41136 0.41495 0.32961 0.0
C2065 C 0.35966 0.4196 0.32732 0.0
C2066 C 0.39416 0.37305 0.32773 0.0
C2067 C 0.32655 0.4005 0.3251 0.0
C2068 C 0.37534 0.32968 0.32942 0.0
C2069 C 0.47919 0.32074 0.32754 0.0
N2070 N 0.34432 0.37804 0.32544 0.0
N2071 N 0.46143 0.34319 0.32722 0.0
H2072 H 0.52391 0.06852 0.07893 0.0
H2073 H 0.76874 0.15145 0.07568 0.0
H2074 H 0.67796 0.04223 0.08335 0.0
H2075 H 0.61683 0.17797 0.08292 0.0
H2076 H 0.73541 0.11132 0.07597 0.0
H2077 H 0.55714 0.10859 0.07796 0.0
C2078 C 0.56486 0.07113 0.07965 0.0
C2079 C 0.59835 0.05196 0.0812 0.0
C2080 C 0.70939 0.12591 0.07749 0.0
C2081 C 0.6364 0.09793 0.0801 0.0
C2082 C 0.72822 0.14888 0.07726 0.0
C2083 C 0.6954 0.16813 0.07928 0.0
C2084 C 0.65729 0.12212 0.07965 0.0
C2085 C 0.64342 0.16364 0.08133 0.0
C2086 C 0.58367 0.09408 0.07915 0.0
C2087 C 0.65088 0.05651 0.08216 0.0
N2088 N 0.62588 0.14102 0.08144 0.0
N2089 N 0.6684 0.07911 0.08155 0.0
H2090 H 0.68371 0.17893 0.20192 0.0
H2091 H 0.61685 0.0412 0.20191 0.0
H2092 H 0.5304 0.15167 0.2065 0.0
H2093 H 0.76859 0.06842 0.20882 0.0
H2094 H 0.58438 0.08181 0.20193 0.0
H2095 H 0.71626 0.13831 0.20275 0.0
C2096 C 0.657 0.16446 0.20313 0.0
C2097 C 0.60438 0.16867 0.20418 0.0
C2098 C 0.62473 0.0788 0.20351 0.0
C2099 C 0.64102 0.12243 0.20502 0.0
C2100 C 0.64321 0.05566 0.20349 0.0
C2101 C 0.69539 0.05143 0.20539 0.0
C2102 C 0.65886 0.09772 0.20529 0.0
C2103 C 0.72798 0.07083 0.20737 0.0
C2104 C 0.67553 0.14134 0.20363 0.0
C2105 C 0.57135 0.14928 0.20572 0.0
N2106 N 0.70922 0.09314 0.20719 0.0
N2107 N 0.5902 0.127 0.20603 0.0
H2108 H 0.27905 0.81533 0.96197 0.0
H2109 H 0.51928 0.90115 0.96062 0.0
H2110 H 0.43213 0.79149 0.95373 0.0
H2111 H 0.36489 0.92593 0.95474 0.0
H2112 H 0.48757 0.86086 0.96165 0.0
H2113 H 0.31036 0.85582 0.96289 0.0
C2114 C 0.31941 0.81854 0.96046 0.0
C2115 C 0.35313 0.79996 0.95773 0.0
C2116 C 0.46064 0.87511 0.96016 0.0
C2117 C 0.38882 0.84632 0.95878 0.0
C2118 C 0.47855 0.89818 0.95962 0.0
C2119 C 0.44457 0.91698 0.95755 0.0
C2120 C 0.40832 0.87073 0.95874 0.0
C2121 C 0.39234 0.91195 0.95631 0.0
C2122 C 0.33704 0.84171 0.96092 0.0
C2123 C 0.40484 0.80527 0.95582 0.0
N2124 N 0.3757 0.8892 0.95693 0.0
N2125 N 0.42118 0.82804 0.95639 0.0
H2126 H 0.35747 0.79224 0.83145 0.0
H2127 H 0.42781 0.92928 0.83256 0.0
H2128 H 0.50998 0.81867 0.82462 0.0
H2129 H 0.27416 0.90309 0.82704 0.0
H2130 H 0.45941 0.88855 0.83129 0.0
H2131 H 0.32604 0.833 0.8314 0.0
C2132 C 0.3842 0.80656 0.82987 0.0
C2133 C 0.4363 0.8021 0.82804 0.0
C2134 C 0.41882 0.89186 0.83029 0.0
C2135 C 0.401 0.8485 0.82811 0.0
C2136 C 0.40085 0.91503 0.83104 0.0
C2137 C 0.34842 0.91954 0.82989 0.0
C2138 C 0.3839 0.87324 0.82853 0.0
C2139 C 0.315 0.90045 0.82793 0.0
C2140 C 0.36632 0.82977 0.82983 0.0
C2141 C 0.46941 0.82129 0.82604 0.0
N2142 N 0.33329 0.87811 0.82739 0.0
N2143 N 0.45124 0.84369 0.82622 0.0
H2144 H 0.66596 0.46664 0.0654 0.0
H2145 H 0.41385 0.4912 0.10435 0.0
H2146 H 0.66671 0.50372 0.09914 0.0
H2147 H 0.41256 0.45282 0.07098 0.0
H2148 H 0.50641 0.49585 0.10256 0.0
H2149 H 0.57339 0.46136 0.06724 0.0
C2150 C 0.6467 0.47372 0.07319 0.0
C2151 C 0.67437 0.4857 0.08212 0.0
C2152 C 0.48596 0.4864 0.09562 0.0
C2153 C 0.56808 0.47959 0.08431 0.0
C2154 C 0.43301 0.48362 0.09666 0.0
C2155 C 0.40515 0.47149 0.08783 0.0
C2156 C 0.51161 0.47699 0.08566 0.0
C2157 C 0.4322 0.46251 0.07796 0.0
C2158 C 0.5938 0.47061 0.07426 0.0
C2159 C 0.64726 0.49414 0.09209 0.0
N2160 N 0.48383 0.46539 0.07716 0.0
N2161 N 0.59574 0.49099 0.0929 0.0
H2162 H 0.63386 0.69522 0.08673 0.0
H2163 H 0.86895 0.78574 0.08138 0.0
H2164 H 0.61472 0.76992 0.08012 0.0
H2165 H 0.88479 0.71254 0.09166 0.0
H2166 H 0.77627 0.78006 0.07984 0.0
H2167 H 0.72613 0.70113 0.08784 0.0
C2168 C 0.64895 0.71293 0.08561 0.0
C2169 C 0.61619 0.73212 0.0834 0.0
C2170 C 0.80004 0.76524 0.08243 0.0
C2171 C 0.72244 0.73895 0.08445 0.0
C2172 C 0.853 0.76843 0.08323 0.0
C2173 C 0.88475 0.7496 0.08669 0.0
C2174 C 0.77861 0.74302 0.08503 0.0
C2175 C 0.86181 0.72765 0.08912 0.0
C2176 C 0.7018 0.71626 0.08616 0.0
C2177 C 0.63837 0.75455 0.08174 0.0
N2178 N 0.81026 0.72497 0.08824 0.0
N2179 N 0.69005 0.75734 0.0823 0.0
H2180 H 0.66646 0.70928 0.18531 0.0
H2181 H 0.41575 0.772 0.21186 0.0
H2182 H 0.66934 0.75639 0.21566 0.0
H2183 H 0.4139 0.72425 0.18176 0.0
H2184 H 0.50836 0.76649 0.2135 0.0
H2185 H 0.5741 0.71505 0.18375 0.0
C2186 C 0.6478 0.72102 0.19159 0.0
C2187 C 0.67596 0.7324 0.20062 0.0
C2188 C 0.48769 0.7572 0.20654 0.0
C2189 C 0.56962 0.73885 0.19898 0.0
C2190 C 0.43469 0.76023 0.20564 0.0
C2191 C 0.40679 0.74862 0.19664 0.0
C2192 C 0.51318 0.74241 0.19839 0.0
C2193 C 0.43375 0.73385 0.18873 0.0
C2194 C 0.59489 0.72417 0.19075 0.0
C2195 C 0.64927 0.74704 0.20864 0.0
N2196 N 0.48527 0.73119 0.18979 0.0
N2197 N 0.59771 0.74985 0.20762 0.0
H2198 H 0.88664 0.50261 0.18495 0.0
H2199 H 0.61741 0.45632 0.21027 0.0
H2200 H 0.87051 0.43867 0.20571 0.0
H2201 H 0.63348 0.51608 0.18651 0.0
H2202 H 0.70969 0.44958 0.20889 0.0
H2203 H 0.7941 0.50827 0.18592 0.0
C2204 C 0.8637 0.48983 0.1898 0.0
C2205 C 0.8866 0.47017 0.19529 0.0
C2206 C 0.69298 0.46413 0.20396 0.0
C2207 C 0.78007 0.47643 0.19633 0.0
C2208 C 0.64015 0.46791 0.20467 0.0
C2209 C 0.61735 0.48688 0.19854 0.0
C2210 C 0.7235 0.47944 0.19707 0.0
C2211 C 0.64921 0.50149 0.19158 0.0
C2212 C 0.81072 0.49299 0.19027 0.0
C2213 C 0.85459 0.45398 0.20125 0.0
N2214 N 0.70048 0.4975 0.19107 0.0
N2215 N 0.80308 0.45751 0.20164 0.0
H2216 H 0.63779 0.47528 0.9649 0.0
H2217 H 0.36479 0.50717 0.9363 0.0
H2218 H 0.61871 0.51943 0.9337 0.0
H2219 H 0.38386 0.4624 0.96727 0.0
H2220 H 0.45763 0.51213 0.9353 0.0
H2221 H 0.54483 0.47095 0.96614 0.0
C2222 C 0.61413 0.48416 0.95833 0.0
C2223 C 0.63635 0.49769 0.94916 0.0
C2224 C 0.4415 0.50126 0.94233 0.0
C2225 C 0.52959 0.49263 0.95047 0.0
C2226 C 0.38842 0.49832 0.94287 0.0
C2227 C 0.36622 0.48434 0.95189 0.0
C2228 C 0.47288 0.49013 0.95085 0.0
C2229 C 0.399 0.47361 0.96026 0.0
C2230 C 0.56098 0.48157 0.95902 0.0
C2231 C 0.60353 0.50851 0.94082 0.0
N2232 N 0.45053 0.47669 0.95953 0.0
N2233 N 0.55196 0.50575 0.94168 0.0
H2234 H 0.41586 0.25238 0.93287 0.0
H2235 H 0.15914 0.20912 0.96562 0.0
H2236 H 0.41327 0.2214 0.96816 0.0
H2237 H 0.1614 0.24197 0.93076 0.0
H2238 H 0.25208 0.21345 0.96672 0.0
H2239 H 0.32294 0.24789 0.93175 0.0
C2240 C 0.39587 0.24442 0.94035 0.0
C2241 C 0.42262 0.23727 0.95063 0.0
C2242 C 0.23225 0.21975 0.95883 0.0
C2243 C 0.31579 0.23237 0.94948 0.0
C2244 C 0.17904 0.21745 0.95824 0.0
C2245 C 0.15216 0.22519 0.94808 0.0
C2246 C 0.25906 0.22988 0.94921 0.0
C2247 C 0.1804 0.23545 0.9387 0.0
C2248 C 0.34268 0.24204 0.93974 0.0
C2249 C 0.39432 0.22745 0.96011 0.0
N2250 N 0.23217 0.23747 0.9395 0.0
N2251 N 0.34258 0.22531 0.95931 0.0
H2252 H 0.62582 0.2056 0.81726 0.0
H2253 H 0.37286 0.257 0.84843 0.0
H2254 H 0.62708 0.24563 0.85013 0.0
H2255 H 0.37175 0.21862 0.81507 0.0
H2256 H 0.46572 0.25234 0.84939 0.0
H2257 H 0.53293 0.21022 0.81627 0.0
C2258 C 0.60671 0.21555 0.82422 0.0
C2259 C 0.63456 0.22523 0.83379 0.0
C2260 C 0.44519 0.2449 0.84186 0.0
C2261 C 0.52772 0.2303 0.8328 0.0
C2262 C 0.39202 0.24739 0.84135 0.0
C2263 C 0.36423 0.23818 0.83165 0.0
C2264 C 0.47104 0.23305 0.83262 0.0
C2265 C 0.3915 0.22627 0.82265 0.0
C2266 C 0.55352 0.21803 0.82369 0.0
C2267 C 0.60731 0.23758 0.84265 0.0
N2268 N 0.44326 0.22406 0.82335 0.0
N2269 N 0.55555 0.23974 0.84194 0.0
H2270 H 0.15531 0.51025 0.81728 0.0
H2271 H 0.41174 0.47025 0.85113 0.0
H2272 H 0.15739 0.48077 0.85291 0.0
H2273 H 0.40937 0.49722 0.81501 0.0
H2274 H 0.31887 0.47493 0.85211 0.0
H2275 H 0.24822 0.50574 0.81629 0.0
C2276 C 0.17516 0.50262 0.82486 0.0
C2277 C 0.14824 0.49589 0.8352 0.0
C2278 C 0.33864 0.47986 0.84397 0.0
C2279 C 0.2551 0.49101 0.83418 0.0
C2280 C 0.39181 0.47737 0.84344 0.0
C2281 C 0.41861 0.48334 0.83296 0.0
C2282 C 0.31182 0.48845 0.83398 0.0
C2283 C 0.39038 0.4921 0.82322 0.0
C2284 C 0.22836 0.50022 0.82432 0.0
C2285 C 0.17642 0.48651 0.84481 0.0
N2286 N 0.33865 0.49438 0.82396 0.0
N2287 N 0.22816 0.48438 0.84407 0.0
H2288 H 0.40823 -0.0025 0.60093 0.0
H2289 H 0.67528 0.96876 0.56867 0.0
H2290 H 0.42114 0.95531 0.56891 0.0
H2291 H 0.66251 0.01015 0.60097 0.0
H2292 H 0.58247 0.96336 0.5687 0.0
H2293 H 0.50108 0.00279 0.60093 0.0
C2294 C 0.43046 -0.01048 0.59383 0.0
C2295 C 0.40658 0.97593 0.5849 0.0
C2296 C 0.59996 0.9736 0.5758 0.0
C2297 C 0.51341 0.98165 0.58495 0.0
C2298 C 0.65311 0.97654 0.57584 0.0
C2299 C 0.67702 -0.01004 0.58483 0.0
C2300 C 0.57021 0.98412 0.58481 0.0
C2301 C 0.64589 -6e-05 0.59376 0.0
C2302 C 0.48362 -0.0076 0.59389 0.0
C2303 C 0.43775 0.96569 0.57606 0.0
N2304 N 0.59425 -0.00316 0.59352 0.0
N2305 N 0.4894 0.96875 0.57631 0.0
H2306 H 0.62273 0.26018 0.56684 0.0
H2307 H 0.879 0.22843 0.6029 0.0
H2308 H 0.62624 0.21546 0.59813 0.0
H2309 H 0.87636 0.27428 0.57203 0.0
H2310 H 0.78648 0.2235 0.60122 0.0
H2311 H 0.71538 0.26551 0.5685 0.0
C2312 C 0.64295 0.25143 0.57405 0.0
C2313 C 0.61645 0.23732 0.58235 0.0
C2314 C 0.80606 0.23465 0.5948 0.0
C2315 C 0.7228 0.24346 0.58433 0.0
C2316 C 0.85897 0.23758 0.59579 0.0
C2317 C 0.88571 0.2519 0.58762 0.0
C2318 C 0.77929 0.24612 0.58557 0.0
C2319 C 0.85758 0.26289 0.57846 0.0
C2320 C 0.69588 0.25456 0.57501 0.0
C2321 C 0.64476 0.22673 0.5916 0.0
N2322 N 0.80599 0.25982 0.5777 0.0
N2323 N 0.69627 0.22996 0.59232 0.0
H2324 H 0.6618 0.24441 0.68101 0.0
H2325 H 0.39614 0.23112 0.71634 0.0
H2326 H 0.65054 0.21983 0.71748 0.0
H2327 H 0.40789 0.25702 0.68011 0.0
H2328 H 0.48921 0.22691 0.71695 0.0
H2329 H 0.56882 0.24899 0.68049 0.0
C2330 C 0.63981 0.23992 0.6889 0.0
C2331 C 0.6642 0.23172 0.6993 0.0
C2332 C 0.47142 0.23349 0.70886 0.0
C2333 C 0.55747 0.23705 0.69879 0.0
C2334 C 0.41824 0.236 0.70852 0.0
C2335 C 0.39394 0.24441 0.69815 0.0
C2336 C 0.50076 0.23946 0.69876 0.0
C2337 C 0.4247 0.25012 0.68824 0.0
C2338 C 0.58668 0.24264 0.68862 0.0
C2339 C 0.63362 0.22651 0.70931 0.0
N2340 N 0.47638 0.24757 0.6888 0.0
N2341 N 0.58195 0.22921 0.70879 0.0
H2342 H 0.89134 -0.00714 0.71793 0.0
H2343 H 0.62014 0.96989 0.68628 0.0
H2344 H 0.87403 0.95726 0.68402 0.0
H2345 H 0.63731 0.00562 0.72016 0.0
H2346 H 0.71299 0.96503 0.68532 0.0
H2347 H 0.7984 -0.0027 0.71903 0.0
C2348 C 0.86808 -0.01412 0.71073 0.0
C2349 C 0.89082 0.9747 0.70085 0.0
C2350 C 0.69645 0.9739 0.69298 0.0
C2351 C 0.78403 0.97993 0.70201 0.0
C2352 C 0.64336 0.97679 0.6935 0.0
C2353 C 0.6206 -0.01181 0.70332 0.0
C2354 C 0.72731 0.98249 0.70232 0.0
C2355 C 0.65286 -0.00358 0.71249 0.0
C2356 C 0.81493 -0.01146 0.71134 0.0
C2357 C 0.85849 0.96633 0.69172 0.0
N2358 N 0.70442 -0.00655 0.71176 0.0
N2359 N 0.8069 0.9691 0.69253 0.0
H2360 H 0.63675 0.96921 0.4342 0.0
H2361 H 0.37549 0.00558 0.46701 0.0
H2362 H 0.62979 0.01702 0.46425 0.0
H2363 H 0.38238 0.95855 0.43666 0.0
H2364 H 0.46851 0.0099 0.46618 0.0
H2365 H 0.54374 0.96502 0.435 0.0
C2366 C 0.61571 0.97889 0.44096 0.0
C2367 C 0.64136 -0.00647 0.44916 0.0
C2368 C 0.44969 -0.00133 0.45969 0.0
C2369 C 0.53448 -0.01133 0.45017 0.0
C2370 C 0.39653 -0.00389 0.46018 0.0
C2371 C 0.37087 0.98164 0.4519 0.0
C2372 C 0.47772 -0.01338 0.45087 0.0
C2373 C 0.40028 0.97012 0.44314 0.0
C2374 C 0.56253 0.97641 0.44143 0.0
C2375 C 0.61191 0.00531 0.45783 0.0
N2376 N 0.45202 0.9728 0.44288 0.0
N2377 N 0.56016 0.00266 0.45809 0.0
H2378 H 0.43219 0.69934 0.44511 0.0
H2379 H 0.15541 0.75102 0.46182 0.0
H2380 H 0.40925 0.76356 0.46527 0.0
H2381 H 0.17855 0.68826 0.44054 0.0
H2382 H 0.24823 0.75511 0.46383 0.0
H2383 H 0.3394 0.69445 0.44377 0.0
C2384 C 0.40773 0.71246 0.44923 0.0
C2385 C 0.42883 0.7319 0.45531 0.0
C2386 C 0.23299 0.74044 0.45872 0.0
C2387 C 0.3222 0.72627 0.4539 0.0
C2388 C 0.17993 0.73801 0.45763 0.0
C2389 C 0.15894 0.71932 0.45095 0.0
C2390 C 0.26552 0.72402 0.45313 0.0
C2391 C 0.19284 0.70318 0.44561 0.0
C2392 C 0.35467 0.70958 0.44851 0.0
C2393 C 0.39496 0.74811 0.46063 0.0
N2394 N 0.2443 0.70591 0.44681 0.0
N2395 N 0.34349 0.74495 0.45978 0.0
H2396 H 0.3624 0.70027 0.3263 0.0
H2397 H 0.63542 0.75756 0.34187 0.0
H2398 H 0.38165 0.77059 0.34065 0.0
H2399 H 0.6168 0.68804 0.32653 0.0
H2400 H 0.54251 0.76245 0.34169 0.0
H2401 H 0.45534 0.69535 0.3264 0.0
C2402 C 0.38608 0.71472 0.32944 0.0
C2403 C 0.36389 0.73588 0.33349 0.0
C2404 C 0.55873 0.74614 0.33834 0.0
C2405 C 0.47067 0.73027 0.33371 0.0
C2406 C 0.61185 0.74328 0.33849 0.0
C2407 C 0.63419 0.72235 0.3342 0.0
C2408 C 0.52742 0.72791 0.33391 0.0
C2409 C 0.60151 0.70462 0.32977 0.0
C2410 C 0.43922 0.71185 0.32955 0.0
C2411 C 0.39675 0.75382 0.33762 0.0
N2412 N 0.54991 0.70778 0.32976 0.0
N2413 N 0.44833 0.75061 0.33761 0.0
H2414 H 0.16141 0.01276 0.31926 0.0
H2415 H 0.41504 0.96239 0.35059 0.0
H2416 H 0.1608 0.97355 0.3524 0.0
H2417 H 0.41549 0.00012 0.31702 0.0
H2418 H 0.32216 0.96694 0.35158 0.0
H2419 H 0.25431 0.00823 0.31825 0.0
C2420 C 0.18068 0.003 0.32627 0.0
C2421 C 0.15301 -0.00647 0.33594 0.0
C2422 C 0.34255 0.97427 0.344 0.0
C2423 C 0.25984 -0.01143 0.33491 0.0
C2424 C 0.39573 0.97183 0.34348 0.0
C2425 C 0.42333 0.98089 0.33371 0.0
C2426 C 0.31652 -0.01411 0.33471 0.0
C2427 C 0.39588 -0.00742 0.32465 0.0
C2428 C 0.23386 0.00058 0.32573 0.0
C2429 C 0.18043 0.98143 0.34486 0.0
N2430 N 0.34412 -0.00526 0.32538 0.0
N2431 N 0.23219 0.97932 0.34413 0.0
H2432 H 0.16504 0.50224 0.60012 0.0
H2433 H 0.90864 0.46373 0.5657 0.0
H2434 H 0.1628 0.47708 0.56368 0.0
H2435 H 0.91063 0.49098 0.60176 0.0
H2436 H 1.00155 0.46847 0.56478 0.0
H2437 H 0.07216 0.4974 0.60102 0.0
C2438 C 0.14515 0.49549 0.59233 0.0
C2439 C 0.17202 0.49007 0.5818 0.0
C2440 C 0.98166 0.47345 0.57289 0.0
C2441 C 0.06516 0.48477 0.58273 0.0
C2442 C 0.92845 0.47092 0.5734 0.0
C2443 C 0.90148 0.47695 0.58383 0.0
C2444 C 1.0084 0.48209 0.58289 0.0
C2445 C 0.92966 0.48577 0.59358 0.0
C2446 C 0.09196 0.4929 0.59283 0.0
C2447 C 0.1438 0.48177 0.57194 0.0
N2448 N 0.98142 0.48805 0.59287 0.0
N2449 N 0.09205 0.47939 0.57265 0.0
H2450 H 0.39057 0.72065 0.60143 0.0
H2451 H 0.12847 0.76346 0.57109 0.0
H2452 H 0.38262 0.77691 0.5754 0.0
H2453 H 0.13809 0.7072 0.5971 0.0
H2454 H 0.22126 0.76869 0.57244 0.0
H2455 H 0.29806 0.71555 0.59988 0.0
C2456 C 0.36936 0.73202 0.59542 0.0
C2457 C 0.39454 0.74933 0.58858 0.0
C2458 C 0.20306 0.75522 0.57786 0.0
C2459 C 0.28821 0.74344 0.58669 0.0
C2460 C 0.15006 0.75216 0.57706 0.0
C2461 C 0.12527 0.73487 0.584 0.0
C2462 C 0.23169 0.74085 0.58563 0.0
C2463 C 0.15529 0.72098 0.59171 0.0
C2464 C 0.31647 0.72902 0.5945 0.0
C2465 C 0.36499 0.76321 0.58076 0.0
N2466 N 0.20679 0.72425 0.59229 0.0
N2467 N 0.31343 0.76001 0.58006 0.0
H2468 H 0.92698 0.77902 0.68244 0.0
H2469 H 0.15566 0.71372 0.71692 0.0
H2470 H 0.90373 0.73005 0.71157 0.0
H2471 H 0.17895 0.76205 0.6875 0.0
H2472 H 0.06363 0.72047 0.7155 0.0
H2473 H 1.01928 0.77368 0.68443 0.0
C2474 C 0.94119 0.76706 0.68923 0.0
C2475 C 0.90724 0.75488 0.69681 0.0
C2476 C 0.08884 0.72964 0.70937 0.0
C2477 C 1.01341 0.74887 0.69923 0.0
C2478 C 0.14156 0.72593 0.71022 0.0
C2479 C 0.17542 0.73736 0.70233 0.0
C2480 C 0.06947 0.74491 0.70055 0.0
C2481 C 0.15448 0.75261 0.69369 0.0
C2482 C 0.99403 0.76412 0.69041 0.0
C2483 C 0.92824 0.74 0.7056 0.0
N2484 N 0.10297 0.75592 0.69303 0.0
N2485 N 0.97985 0.73737 0.70654 0.0
H2486 H 0.12644 0.51354 0.686 0.0
H2487 H 0.37493 0.45151 0.71393 0.0
H2488 H 0.12077 0.4634 0.71509 0.0
H2489 H 0.38056 0.50212 0.68504 0.0
H2490 H 0.28197 0.45585 0.7146 0.0
H2491 H 0.21938 0.50918 0.68534 0.0
C2492 C 0.14465 0.50143 0.69218 0.0
C2493 C 0.11559 0.4888 0.70061 0.0
C2494 C 0.30353 0.46605 0.70813 0.0
C2495 C 0.22237 0.48398 0.70002 0.0
C2496 C 0.35672 0.46372 0.7078 0.0
C2497 C 0.38577 0.47648 0.69942 0.0
C2498 C 0.27898 0.48127 0.70002 0.0
C2499 C 0.35978 0.4917 0.69156 0.0
C2500 C 0.19783 0.49909 0.69186 0.0
C2501 C 0.14157 0.4737 0.70853 0.0
N2502 N 0.30796 0.49366 0.69205 0.0
N2503 N 0.19339 0.47172 0.70804 0.0
H2504 H 0.8701 0.471 0.43314 0.0
H2505 H 0.12996 0.51174 0.46538 0.0
H2506 H 0.87563 0.4996 0.46891 0.0
H2507 H 0.12427 0.48074 0.43012 0.0
H2508 H 0.03704 0.50756 0.46686 0.0
H2509 H 0.96292 0.47535 0.43173 0.0
C2510 C 0.89071 0.47841 0.44067 0.0
C2511 C 0.86478 0.48496 0.45116 0.0
C2512 C 0.05612 0.50164 0.4588 0.0
C2513 C 0.97161 0.48968 0.44966 0.0
C2514 C 0.10932 0.50386 0.45798 0.0
C2515 C 0.13524 0.49661 0.4476 0.0
C2516 C 0.02837 0.49208 0.44917 0.0
C2517 C 0.10606 0.4869 0.43823 0.0
C2518 C 0.94387 0.48071 0.43988 0.0
C2519 C 0.89391 0.49405 0.46069 0.0
N2520 N 0.05434 0.48495 0.43924 0.0
N2521 N 0.94564 0.49614 0.45971 0.0
H2522 H 0.92923 0.22253 0.43341 0.0
H2523 H 0.66215 0.23493 0.46819 0.0
H2524 H 0.91653 0.24647 0.46994 0.0
H2525 H 0.67541 0.20972 0.43187 0.0
H2526 H 0.75522 0.23907 0.46906 0.0
H2527 H 0.83631 0.21776 0.43268 0.0
C2528 C 0.90694 0.22684 0.44127 0.0
C2529 C 0.93092 0.23493 0.45175 0.0
C2530 C 0.73776 0.23265 0.46089 0.0
C2531 C 0.82423 0.22936 0.45101 0.0
C2532 C 0.68457 0.23018 0.46041 0.0
C2533 C 0.66068 0.22201 0.44993 0.0
C2534 C 0.76752 0.22689 0.45084 0.0
C2535 C 0.69189 0.21644 0.44008 0.0
C2536 C 0.85384 0.22401 0.44087 0.0
C2537 C 0.89994 0.23989 0.46172 0.0
N2538 N 0.74355 0.21897 0.44078 0.0
N2539 N 0.84831 0.23709 0.46109 0.0
H2540 H 0.12565 0.20149 0.35051 0.0
H2541 H 0.88809 0.25815 0.31545 0.0
H2542 H 0.14153 0.24471 0.31888 0.0
H2543 H 0.8724 0.21496 0.34709 0.0
H2544 H 0.9807 0.25287 0.31636 0.0
H2545 H 0.03296 0.20615 0.34935 0.0
C2546 C 0.10974 0.21211 0.34336 0.0
C2547 C 0.1417 0.22283 0.33481 0.0
C2548 C 0.95703 0.24451 0.3231 0.0
C2549 C 0.03507 0.22796 0.33334 0.0
C2550 C 0.90401 0.24737 0.32254 0.0
C2551 C 0.87214 0.23693 0.33119 0.0
C2552 C 0.97868 0.23112 0.33239 0.0
C2553 C 0.89533 0.22357 0.3403 0.0
C2554 C 0.05667 0.21463 0.34266 0.0
C2555 C 0.11854 0.23595 0.32561 0.0
N2556 N 0.94708 0.22105 0.34065 0.0
N2557 N 0.06673 0.23817 0.32514 0.0
H2558 H 0.91662 0.45063 0.34199 0.0
H2559 H 0.67497 0.52816 0.32166 0.0
H2560 H 0.92898 0.51425 0.32082 0.0
H2561 H 0.66316 0.46506 0.34324 0.0
H2562 H 0.76777 0.52306 0.32099 0.0
H2563 H 0.82388 0.45573 0.34259 0.0
C2564 C 0.89996 0.46581 0.33755 0.0
C2565 C 0.93093 0.48206 0.33137 0.0
C2566 C 0.7449 0.5103 0.32586 0.0
C2567 C 0.8242 0.48782 0.33187 0.0
C2568 C 0.69177 0.5131 0.32618 0.0
C2569 C 0.66096 0.497 0.33251 0.0
C2570 C 0.76768 0.49123 0.33191 0.0
C2571 C 0.68526 0.47809 0.33836 0.0
C2572 C 0.84685 0.46861 0.33782 0.0
C2573 C 0.90676 0.50111 0.32559 0.0
N2574 N 0.73704 0.47574 0.33792 0.0
N2575 N 0.85496 0.50345 0.32598 0.0
H2576 H 0.90712 0.9598 0.06906 0.0
H2577 H 0.16312 0.00232 0.1024 0.0
H2578 H 0.90875 -0.00891 0.10428 0.0
H2579 H 0.16127 0.97297 0.06677 0.0
H2580 H 0.07024 -0.0024 0.1034 0.0
H2581 H 1.00001 0.96451 0.06804 0.0
C2582 C 0.92686 0.96786 0.07654 0.0
C2583 C 0.8998 0.97504 0.08678 0.0
C2584 C 0.09012 -0.00785 0.09536 0.0
C2585 C 1.00668 0.98017 0.08572 0.0
C2586 C 0.14331 -0.00533 0.09482 0.0
C2587 C 0.1703 -0.01197 0.08449 0.0
C2588 C 0.06343 0.98287 0.08551 0.0
C2589 C 0.14218 0.97862 0.07487 0.0
C2590 C 0.98005 0.97038 0.07598 0.0
C2591 C 0.92787 0.98498 0.09627 0.0
N2592 N 0.09042 0.97632 0.07562 0.0
N2593 N 0.97962 -0.01277 0.09551 0.0
H2594 H 0.12133 0.26226 0.09341 0.0
H2595 H 0.3974 0.2171 0.07181 0.0
H2596 H 0.1436 0.20308 0.0696 0.0
H2597 H 0.37534 0.275 0.09642 0.0
H2598 H 0.30454 0.21226 0.07054 0.0
H2599 H 0.21413 0.26745 0.09448 0.0
C2600 C 0.14562 0.25029 0.08844 0.0
C2601 C 0.12429 0.23221 0.08139 0.0
C2602 C 0.32001 0.22601 0.07623 0.0
C2603 C 0.23101 0.23822 0.08249 0.0
C2604 C 0.37312 0.22888 0.07691 0.0
C2605 C 0.39451 0.24646 0.08426 0.0
C2606 C 0.28776 0.24085 0.08292 0.0
C2607 C 0.36085 0.26096 0.09077 0.0
C2608 C 0.19871 0.25335 0.089 0.0
C2609 C 0.158 0.21749 0.07501 0.0
N2610 N 0.30933 0.25785 0.08994 0.0
N2611 N 0.2095 0.22081 0.07572 0.0
H2612 H 0.91006 0.22381 0.18219 0.0
H2613 H 0.17002 0.25311 0.21742 0.0
H2614 H 0.91575 0.26526 0.21458 0.0
H2615 H 0.16437 0.21323 0.18453 0.0
H2616 H 0.077 0.25746 0.21664 0.0
H2617 H 1.003 0.21949 0.18301 0.0
C2618 C 0.9308 0.23207 0.18947 0.0
C2619 C 0.90479 0.24498 0.19832 0.0
C2620 C 0.09609 0.24779 0.20958 0.0
C2621 C 1.01165 0.23993 0.19935 0.0
C2622 C 0.14927 0.24521 0.21004 0.0
C2623 C 0.17529 0.23275 0.20103 0.0
C2624 C 0.06842 0.23778 0.20006 0.0
C2625 C 0.14621 0.22323 0.1916 0.0
C2626 C 0.98395 0.22951 0.18995 0.0
C2627 C 0.93389 0.25491 0.20764 0.0
N2628 N 0.09447 0.22589 0.19139 0.0
N2629 N 0.98564 0.25223 0.20789 0.0
H2630 H 0.38503 0.95771 0.21648 0.0
H2631 H 0.13572 0.00743 0.18297 0.0
H2632 H 0.38919 -0.00707 0.18224 0.0
H2633 H 0.13043 0.97132 0.21697 0.0
H2634 H 0.22851 0.00228 0.1826 0.0
H2635 H 0.29214 0.96288 0.21697 0.0
C2636 C 0.36657 0.96671 0.2091 0.0
C2637 C 0.39528 0.97489 0.1993 0.0
C2638 C 0.2071 -0.00457 0.19014 0.0
C2639 C 0.2884 0.9806 0.19974 0.0
C2640 C 0.15402 -0.00154 0.19039 0.0
C2641 C 0.12496 -0.01012 0.20004 0.0
C2642 C 0.23172 0.98377 0.19963 0.0
C2643 C 0.15099 0.97803 0.20928 0.0
C2644 C 0.31337 0.9695 0.20935 0.0
C2645 C 0.36881 -0.01395 0.18992 0.0
N2646 N 0.20277 0.97541 0.20886 0.0
N2647 N 0.31705 -0.01142 0.19037 0.0
H2648 H 0.8758 -0.00746 0.96991 0.0
H2649 H 0.13655 0.98326 0.93239 0.0
H2650 H 0.88243 0.97061 0.93297 0.0
H2651 H 0.1304 0.00372 0.96955 0.0
H2652 H 0.04359 0.97861 0.93242 0.0
H2653 H 0.96871 -0.00243 0.96983 0.0
C2654 C 0.89668 -0.011 0.96174 0.0
C2655 C 0.87108 0.98113 0.95143 0.0
C2656 C 0.06255 0.98407 0.94058 0.0
C2657 C 0.97788 -0.01343 0.95133 0.0
C2658 C 0.11576 -0.01344 0.9406 0.0
C2659 C 0.14156 -0.00614 0.95099 0.0
C2660 C 0.03464 -0.01112 0.95104 0.0
C2661 C 0.11224 -0.00168 0.96129 0.0
C2662 C 0.94986 -0.00829 0.96173 0.0
C2663 C 0.90048 0.97643 0.94117 0.0
N2664 N 0.06047 -0.00423 0.96105 0.0
N2665 N 0.95219 0.97921 0.94139 0.0
H2666 H 0.93048 0.70293 0.94151 0.0
H2667 H 0.65002 0.74823 0.95957 0.0
H2668 H 0.90246 0.76409 0.96365 0.0
H2669 H 0.67732 0.68758 0.93703 0.0
H2670 H 0.7424 0.75357 0.96163 0.0
H2671 H 0.83808 0.69666 0.93996 0.0
C2672 C 0.905 0.7151 0.94601 0.0
C2673 C 0.92458 0.73406 0.95273 0.0
C2674 C 0.72821 0.73907 0.95624 0.0
C2675 C 0.81839 0.72682 0.95109 0.0
C2676 C 0.67534 0.7359 0.95512 0.0
C2677 C 0.65557 0.71744 0.94809 0.0
C2678 C 0.76186 0.72367 0.9503 0.0
C2679 C 0.69059 0.70228 0.9424 0.0
C2680 C 0.85216 0.71142 0.94518 0.0
C2681 C 0.88942 0.74902 0.95851 0.0
N2682 N 0.74187 0.70574 0.94362 0.0
N2683 N 0.83822 0.74509 0.95754 0.0
H2684 H 0.13355 0.74793 0.84919 0.0
H2685 H 0.86618 0.71758 0.81734 0.0
H2686 H 0.12022 0.70368 0.81789 0.0
H2687 H 0.87944 0.76092 0.84897 0.0
H2688 H 0.95893 0.71203 0.81748 0.0
H2689 H 0.04078 0.75335 0.84907 0.0
C2690 C 0.11125 0.73952 0.84222 0.0
C2691 C 0.135 0.72532 0.83353 0.0
C2692 C 0.94156 0.72273 0.82441 0.0
C2693 C 0.02822 0.73119 0.83345 0.0
C2694 C 0.88844 0.72577 0.82439 0.0
C2695 C 0.86468 0.73977 0.83316 0.0
C2696 C 0.97144 0.73375 0.83326 0.0
C2697 C 0.89594 0.75024 0.84193 0.0
C2698 C 0.05812 0.74247 0.84222 0.0
C2699 C 0.10372 0.71454 0.82486 0.0
N2700 N 0.94754 0.74704 0.84175 0.0
N2701 N 0.0521 0.71769 0.82505 0.0
H2702 H 0.65976 0.0181 0.82082 0.0
H2703 H 0.91024 0.96113 0.85061 0.0
H2704 H 0.65607 0.97325 0.85206 0.0
H2705 H 0.91378 0.00503 0.81902 0.0
H2706 H 0.81739 0.96591 0.85147 0.0
H2707 H 0.75263 0.01341 0.81996 0.0
C2708 C 0.67834 0.00709 0.82744 0.0
C2709 C 0.6498 -0.00395 0.83652 0.0
C2710 C 0.83845 0.97454 0.84436 0.0
C2711 C 0.75664 -0.00912 0.8357 0.0
C2712 C 0.89162 0.97197 0.84391 0.0
C2713 C 0.92009 0.9827 0.83473 0.0
C2714 C 0.8133 -0.01201 0.83557 0.0
C2715 C 0.89349 -0.00382 0.82618 0.0
C2716 C 0.73152 0.00456 0.827 0.0
C2717 C 0.67638 0.98235 0.84498 0.0
N2718 N 0.84172 -0.00157 0.82682 0.0
N2719 N 0.72816 0.98017 0.84436 0.0
H2720 H 0.11269 0.45363 0.04119 0.0
H2721 H 0.96287 0.52795 0.9916 0.0
H2722 H 0.99381 0.50326 0.05029 0.0
H2723 H 0.04544 0.46387 0.98365 0.0
H2724 H 0.9791 0.52161 1.01296 0.0
H2725 H 0.09337 0.4593 0.02001 0.0
C2726 C 0.08227 0.46568 0.03872 0.0
C2727 C 0.05471 0.47796 0.04751 0.0
C2728 C 0.99361 0.50893 1.00655 0.0
C2729 C 0.03277 0.4848 0.02319 0.0
C2730 C 0.98463 0.51258 0.99435 0.0
C2731 C 1.00286 0.49639 0.98582 0.0
C2732 C 0.02166 0.48909 1.01028 0.0
C2733 C 0.03069 0.47678 0.98991 0.0
C2734 C 0.07123 0.46888 0.02661 0.0
C2735 C 1.01575 0.49335 0.04379 0.0
N2736 N 0.03941 0.47374 1.00183 0.0
N2737 N 1.00618 0.49648 0.03188 0.0
H2738 H 0.37078 0.70882 0.99332 0.0
H2739 H 0.16979 0.76077 0.04065 0.0
H2740 H 0.23345 0.74579 0.98307 0.0
H2741 H 0.30765 0.72418 0.05089 0.0
H2742 H 0.19239 0.75547 0.01962 0.0
H2743 H 0.34827 0.71421 1.01434 0.0
C2744 C 0.3357 0.71805 0.9955 0.0
C2745 C 0.30379 0.72679 0.9864 0.0
C2746 C 0.21784 0.74862 0.02643 0.0
C2747 C 0.27775 0.73311 1.01058 0.0
C2748 C 0.20499 0.75164 0.03847 0.0
C2749 C 0.23699 0.74295 0.04756 0.0
C2750 C 0.26313 0.73675 0.02338 0.0
C2751 C 0.28201 0.73125 0.04418 0.0
C2752 C 0.3229 0.72113 1.00753 0.0
C2753 C 0.25895 0.73864 0.98978 0.0
N2754 N 0.29372 0.72847 0.03237 0.0
N2755 N 0.24727 0.74146 1.00159 0.0
H2756 H 0.047 0.75574 0.30057 0.0
H2757 H 0.99393 0.71546 0.2328 0.0
H2758 H 0.96592 0.69162 0.29171 0.0
H2759 H 0.11257 0.76469 0.24278 0.0
H2760 H 0.97461 0.7094 0.25417 0.0
H2761 H 0.06385 0.76213 0.27921 0.0
C2762 C 0.03288 0.74299 0.29414 0.0
C2763 C 1.00517 0.7231 0.29794 0.0
C2764 C 1.00477 0.72157 0.25166 0.0
C2765 C 0.02358 0.73044 0.27345 0.0
C2766 C 1.01556 0.72511 0.23948 0.0
C2767 C 0.05488 0.74059 0.23603 0.0
C2768 C 0.03308 0.73386 0.2604 0.0
C2769 C 0.082 0.75255 0.24504 0.0
C2770 C 0.04245 0.74663 0.28194 0.0
C2771 C 0.98764 0.70716 0.28919 0.0
N2772 N 0.07053 0.749 0.25677 0.0
N2773 N 0.99686 0.71123 0.27737 0.0
H2774 H 0.18313 0.45184 0.24123 0.0
H2775 H 0.33243 0.52786 0.29027 0.0
H2776 H 0.3 0.50233 0.23171 0.0
H2777 H 0.25181 0.46331 0.29858 0.0
H2778 H 0.31577 0.52114 0.26897 0.0
H2779 H 0.20314 0.45787 0.26234 0.0
C2780 C 0.21327 0.46415 0.24359 0.0
C2781 C 0.24003 0.47658 0.2347 0.0
C2782 C 0.30178 0.50844 0.27544 0.0
C2783 C 0.26274 0.48383 0.25896 0.0
C2784 C 0.311 0.51231 0.28762 0.0
C2785 C 0.29345 0.4961 0.29623 0.0
C2786 C 0.27417 0.48836 0.27183 0.0
C2787 C 0.26604 0.47625 0.29226 0.0
C2788 C 0.22469 0.46756 0.25566 0.0
C2789 C 0.27865 0.49231 0.23829 0.0
N2790 N 0.25708 0.473 0.28036 0.0
N2791 N 0.28861 0.49565 0.25016 0.0
H2792 H 0.81177 0.18922 0.99014 0.0
H2793 H 0.73887 0.28011 0.04255 0.0
H2794 H 0.76242 0.26087 0.98376 0.0
H2795 H 0.7843 0.20795 0.04906 0.0
H2796 H 0.74882 0.27354 0.02106 0.0
H2797 H 0.80193 0.19562 1.01167 0.0
C2798 C 0.79856 0.20628 0.99327 0.0
C2799 C 0.788 0.22455 0.98513 0.0
C2800 C 0.75676 0.25913 0.02716 0.0
C2801 C 0.77699 0.23209 1.00984 0.0
C2802 C 0.75125 0.26289 0.03946 0.0
C2803 C 0.76065 0.24452 0.04762 0.0
C2804 C 0.77185 0.2368 0.02293 0.0
C2805 C 0.77664 0.2226 0.04308 0.0
C2806 C 0.79309 0.20994 1.00558 0.0
C2807 C 0.771 0.24628 0.98971 0.0
N2808 N 0.78159 0.21933 0.03105 0.0
N2809 N 0.7662 0.24946 1.00174 0.0
H2810 H 0.02588 0.26194 0.79881 0.0
H2811 H 0.99848 0.20769 0.73261 0.0
H2812 H 0.97372 0.19094 0.79169 0.0
H2813 H 0.04767 0.27914 0.73973 0.0
H2814 H 0.98852 0.20124 0.75418 0.0
H2815 H 0.03526 0.26843 0.77723 0.0
C2816 C 1.01672 0.24767 0.79271 0.0
C2817 C 0.99889 0.22588 0.79706 0.0
C2818 C 1.00134 0.21836 0.75104 0.0
C2819 C 1.00914 0.23321 0.77231 0.0
C2820 C 1.00682 0.22207 0.73871 0.0
C2821 C 0.02404 0.24396 0.73436 0.0
C2822 C 1.0132 0.23668 0.7591 0.0
C2823 C 0.03437 0.26196 0.74268 0.0
C2824 C 0.02187 0.2514 0.78038 0.0
C2825 C 0.98752 0.20803 0.78873 0.0
N2826 N 0.02898 0.2579 0.75462 0.0
N2827 N 0.9927 0.2121 0.77679 0.0
H2828 H 0.75356 0.45922 0.80034 0.0
H2829 H 0.78078 0.5126 0.73392 0.0
H2830 H 0.80737 0.52984 0.79291 0.0
H2831 H 0.72689 0.44198 0.74134 0.0
H2832 H 0.79163 0.51915 0.75546 0.0
H2833 H 0.74272 0.45265 0.7788 0.0
C2834 C 0.76278 0.47339 0.79418 0.0
C2835 C 0.78149 0.49509 0.79843 0.0
C2836 C 0.77755 0.50219 0.75239 0.0
C2837 C 0.76958 0.48767 0.77373 0.0
C2838 C 0.77154 0.49842 0.74008 0.0
C2839 C 0.75279 0.47673 0.73582 0.0
C2840 C 0.76473 0.48413 0.76053 0.0
C2841 C 0.74138 0.459 0.74422 0.0
C2842 C 0.75677 0.46962 0.78187 0.0
C2843 C 0.79289 0.51282 0.79003 0.0
N2844 N 0.74738 0.4631 0.75615 0.0
N2845 N 0.7869 0.5087 0.77811 0.0
H2846 H 1.01106 0.0128 0.55073 0.0
H2847 H 0.03373 0.95757 0.48464 0.0
H2848 H 0.05964 0.94129 0.54367 0.0
H2849 H 0.98287 0.02874 0.49167 0.0
H2850 H 0.04451 0.9514 0.50622 0.0
H2851 H 0.99979 0.01896 0.52916 0.0
C2852 C 1.01901 -0.00165 0.54465 0.0
C2853 C 0.03644 0.97652 0.54901 0.0
C2854 C 0.0311 0.9684 0.50305 0.0
C2855 C 0.02407 0.98347 0.52429 0.0
C2856 C 0.02514 0.97194 0.49072 0.0
C2857 C 1.00727 -0.00632 0.48635 0.0
C2858 C 1.01914 -0.01326 0.51108 0.0
C2859 C 0.99667 0.01168 0.49465 0.0
C2860 C 1.01277 0.00189 0.53233 0.0
C2861 C 0.04623 0.95843 0.54071 0.0
N2862 N 1.00263 0.0078 0.50659 0.0
N2863 N 0.04009 0.96232 0.52878 0.0
H2864 H 0.33188 0.19222 0.49246 0.0
H2865 H 0.17874 0.26781 0.54095 0.0
H2866 H 0.24983 0.25608 0.48376 0.0
H2867 H 0.29757 0.21873 0.55086 0.0
H2868 H 0.19921 0.26144 0.51989 0.0
H2869 H 0.31424 0.19911 0.51371 0.0
C2870 C 0.30993 0.20765 0.49501 0.0
C2871 C 0.29227 0.22362 0.48631 0.0
C2872 C 0.22107 0.25212 0.52664 0.0
C2873 C 0.27183 0.23154 0.51064 0.0
C2874 C 0.20937 0.25572 0.53869 0.0
C2875 C 0.23661 0.24382 0.54768 0.0
C2876 C 0.25987 0.23619 0.52348 0.0
C2877 C 0.27585 0.22836 0.5442 0.0
C2878 C 0.30014 0.21162 0.50716 0.0
C2879 C 0.26418 0.24332 0.49016 0.0
N2880 N 0.28609 0.22484 0.53236 0.0
N2881 N 0.25465 0.24667 0.50202 0.0
H2882 H 0.30676 0.03168 0.7947 0.0
H2883 H 0.23343 0.94022 0.74252 0.0
H2884 H 0.25859 0.95988 0.80132 0.0
H2885 H 0.28091 0.01212 0.73592 0.0
H2886 H 0.24319 0.94694 0.76402 0.0
H2887 H 0.29667 0.025 0.77321 0.0
C2888 C 0.29373 0.01453 0.79163 0.0
C2889 C 0.28362 -0.00371 0.79982 0.0
C2890 C 0.25162 0.96126 0.75789 0.0
C2891 C 0.27232 -0.01158 0.77516 0.0
C2892 C 0.24622 0.95741 0.7456 0.0
C2893 C 0.25627 0.97566 0.73741 0.0
C2894 C 0.2672 0.98357 0.76208 0.0
C2895 C 0.27273 -0.00244 0.74191 0.0
C2896 C 0.28814 0.0107 0.77934 0.0
C2897 C 0.26683 0.97444 0.79532 0.0
N2898 N 0.27753 0.00091 0.75393 0.0
N2899 N 0.26188 0.97109 0.7833 0.0
H2900 H 0.75276 0.75618 0.4844 0.0
H2901 H 0.8092 0.71805 0.55238 0.0
H2902 H 0.84157 0.69455 0.49355 0.0
H2903 H 0.68873 0.76594 0.54209 0.0
H2904 H 0.82925 0.71193 0.53107 0.0
H2905 H 0.7358 0.76268 0.50572 0.0
C2906 C 0.76863 0.744 0.4909 0.0
C2907 C 0.7985 0.72477 0.48719 0.0
C2908 C 0.79853 0.72382 0.5335 0.0
C2909 C 0.77978 0.73223 0.51164 0.0
C2910 C 0.78731 0.7274 0.54565 0.0
C2911 C 0.74729 0.74253 0.549 0.0
C2912 C 0.76989 0.73569 0.52467 0.0
C2913 C 0.71985 0.75408 0.53991 0.0
C2914 C 0.75896 0.74771 0.50307 0.0
C2915 C 0.81819 0.70956 0.49601 0.0
N2916 N 0.73171 0.75048 0.52821 0.0
N2917 N 0.8087 0.71366 0.50782 0.0
H2918 H 0.78864 0.01196 0.23471 0.0
H2919 H 0.7616 0.95737 0.30087 0.0
H2920 H 0.74085 0.94029 0.24182 0.0
H2921 H 0.81374 0.02842 0.29383 0.0
H2922 H 0.7522 0.95102 0.27929 0.0
H2923 H 0.79832 0.0184 0.2563 0.0
C2924 C 0.78053 -0.00246 0.24081 0.0
C2925 C 0.7638 0.97557 0.23646 0.0
C2926 C 0.76558 0.96803 0.28245 0.0
C2927 C 0.77432 0.98285 0.2612 0.0
C2928 C 0.77075 0.97168 0.29478 0.0
C2929 C 0.7886 -0.00656 0.29916 0.0
C2930 C 0.77831 -0.01373 0.27441 0.0
C2931 C 0.79993 0.01135 0.29085 0.0
C2932 C 0.78586 0.00124 0.25314 0.0
C2933 C 0.75377 0.95752 0.24478 0.0
N2934 N 0.79473 0.00736 0.2789 0.0
N2935 N 0.75899 0.96157 0.25672 0.0
H2936 H 0.554 0.4407 0.54227 0.0
H2937 H 0.46824 0.52984 0.4901 0.0
H2938 H 0.50521 0.51238 0.54875 0.0
H2939 H 0.52247 0.45905 0.48351 0.0
H2940 H 0.48052 0.52364 0.51157 0.0
H2941 H 0.54039 0.4467 0.52083 0.0
C2942 C 0.54011 0.45768 0.53918 0.0
C2943 C 0.53087 0.47609 0.54732 0.0
C2944 C 0.48984 0.50945 0.50545 0.0
C2945 C 0.51543 0.48316 0.5227 0.0
C2946 C 0.48292 0.513 0.49317 0.0
C2947 C 0.49424 0.49491 0.48499 0.0
C2948 C 0.50819 0.48762 0.50964 0.0
C2949 C 0.51323 0.47347 0.48949 0.0
C2950 C 0.5325 0.46112 0.52692 0.0
C2951 C 0.51287 0.49771 0.5428 0.0
N2952 N 0.51947 0.4704 0.5015 0.0
N2953 N 0.50589 0.50066 0.53081 0.0
H2954 H 0.54816 0.75833 0.80028 0.0
H2955 H 0.49351 0.71852 0.73252 0.0
H2956 H 0.46551 0.69463 0.79144 0.0
H2957 H 0.61257 0.76754 0.74248 0.0
H2958 H 0.47445 0.71235 0.75389 0.0
H2959 H 0.56487 0.7647 0.77892 0.0
C2960 C 0.53368 0.74566 0.79385 0.0
C2961 C 0.50555 0.7259 0.79766 0.0
C2962 C 0.50464 0.7245 0.75137 0.0
C2963 C 0.52381 0.73322 0.77316 0.0
C2964 C 0.51527 0.72811 0.73919 0.0
C2965 C 0.55463 0.74356 0.73574 0.0
C2966 C 0.53316 0.73669 0.76011 0.0
C2967 C 0.58195 0.75542 0.74475 0.0
C2968 C 0.54317 0.74929 0.78166 0.0
C2969 C 0.48756 0.71006 0.78891 0.0
N2970 N 0.57064 0.75181 0.75648 0.0
N2971 N 0.49671 0.71413 0.77709 0.0
H2972 H 0.53545 0.26168 0.29967 0.0
H2973 H 0.51048 0.2083 0.23323 0.0
H2974 H 0.48247 0.19095 0.29221 0.0
H2975 H 0.56102 0.2794 0.24071 0.0
H2976 H 0.49946 0.20161 0.25476 0.0
H2977 H 0.54621 0.26835 0.27814 0.0
C2978 C 0.52638 0.24751 0.2935 0.0
C2979 C 0.50793 0.22575 0.29775 0.0
C2980 C 0.51282 0.21871 0.2517 0.0
C2981 C 0.51979 0.23327 0.27305 0.0
C2982 C 0.51894 0.22255 0.2394 0.0
C2983 C 0.5368 0.24442 0.23516 0.0
C2984 C 0.52469 0.23687 0.25985 0.0
C2985 C 0.54723 0.26225 0.24357 0.0
C2986 C 0.53234 0.25134 0.2812 0.0
C2987 C 0.49673 0.20802 0.28934 0.0
N2988 N 0.54119 0.25806 0.25549 0.0
N2989 N 0.5027 0.21218 0.27742 0.0
H2990 H 0.50975 0.01238 0.05168 0.0
H2991 H 0.53689 0.95755 0.98561 0.0
H2992 H 0.55829 0.94085 0.04466 0.0
H2993 H 0.48835 0.02913 0.9925 0.0
H2994 H 0.5462 0.95128 1.0072 0.0
H2995 H 0.50101 0.01887 0.03007 0.0
C2996 C 0.51823 -0.002 0.0456 0.0
C2997 C 0.53488 0.97606 0.04998 0.0
C2998 C 0.53368 0.96839 1.004 0.0
C2999 C 0.5254 0.98338 0.02522 0.0
C3000 C 0.52858 0.972 0.99166 0.0
C3001 C 0.5117 -0.00613 0.98724 0.0
C3002 C 0.5218 -0.01321 1.01201 0.0
C3003 C 0.50139 0.01196 0.99551 0.0
C3004 C 0.51345 0.00173 0.03326 0.0
C3005 C 0.54542 0.95806 0.04168 0.0
N3006 N 0.50642 0.008 1.00747 0.0
N3007 N 0.54066 0.96213 0.02973 0.0
loop_
_geom_bond_atom_site_label_1
_geom_bond_atom_site_label_2
_geom_bond_distance
_geom_bond_site_symmetry_2
_ccdc_geom_bond_type
Sm0 C2 2.846 . S
Sm0 O20 2.543 . S
Sm0 O21 2.450 . S
Sm0 O22 2.681 1_655 S
Sm0 O23 2.464 . S
Sm0 O24 2.396 . S
Sm0 O28 2.386 1_655 S
Sm0 O31 2.408 1_655 S
Sm1 C11 2.846 . S
Sm1 O22 2.386 . S
Sm1 O25 2.408 . S
Sm1 O26 2.543 . S
Sm1 O27 2.450 . S
Sm1 O28 2.681 . S
Sm1 O29 2.464 . S
Sm1 O30 2.396 . S
C2 Sm0 2.846 . S
C2 C3 1.506 . S
C2 O20 1.261 . S
C2 O21 1.242 . S
C3 C2 1.506 . S
C3 C4 1.358 . S
C3 C8 1.382 . S
C4 C3 1.358 . S
C4 C5 1.385 . S
C4 H32 0.930 . S
C5 C4 1.385 . S
C5 C6 1.395 . S
C5 H33 0.929 . S
C6 C5 1.395 . S
C6 C7 1.335 . S
C7 C6 1.335 . S
C7 C8 1.398 . S
C7 H34 0.930 . S
C8 C3 1.382 . S
C8 C7 1.398 . S
C8 H35 0.929 . S
C9 O22 1.271 . S
C9 O23 1.251 1_455 S
C10 O24 1.252 . S
C10 O25 1.272 1_655 S
C11 Sm1 2.846 . S
C11 C12 1.506 . S
C11 O26 1.261 . S
C11 O27 1.242 . S
C12 C11 1.506 . S
C12 C13 1.358 . S
C12 C17 1.382 . S
C13 C12 1.358 . S
C13 C14 1.385 . S
C13 H36 0.930 . S
C14 C13 1.385 . S
C14 C15 1.395 . S
C14 H37 0.929 . S
C15 C14 1.395 . S
C15 C16 1.335 . S
C16 C15 1.335 . S
C16 C17 1.398 . S
C16 H38 0.930 . S
C17 C12 1.382 . S
C17 C16 1.398 . S
C17 H39 0.929 . S
C18 O28 1.271 . S
C18 O29 1.251 . S
C19 O30 1.252 . S
C19 O31 1.272 . S
O20 Sm0 2.543 . S
O20 C2 1.261 . S
O21 Sm0 2.450 . S
O21 C2 1.242 . S
O22 Sm0 2.681 1_455 S
O22 Sm1 2.386 . S
O22 C9 1.271 . S
O23 Sm0 2.464 . S
O23 C9 1.251 1_655 S
O24 Sm0 2.396 . S
O24 C10 1.252 . S
O25 Sm1 2.408 . S
O25 C10 1.272 1_455 S
O26 Sm1 2.543 . S
O26 C11 1.261 . S
O27 Sm1 2.450 . S
O27 C11 1.242 . S
O28 Sm0 2.386 1_455 S
O28 Sm1 2.681 . S
O28 C18 1.271 . S
O29 Sm1 2.464 . S
O29 C18 1.251 . S
O30 Sm1 2.396 . S
O30 C19 1.252 . S
O31 Sm0 2.408 1_455 S
O31 C19 1.272 . S
H32 C4 0.930 . S
H33 C5 0.929 . S
H34 C7 0.930 . S
H35 C8 0.929 . S
H36 C13 0.930 . S
H37 C14 0.929 . S
H38 C16 0.930 . S
H39 C17 0.929 . S
Sm40 C42 2.846 . S
Sm40 O60 2.543 . S
Sm40 O61 2.450 . S
Sm40 O62 2.681 . S
Sm40 O63 2.464 . S
Sm40 O64 2.396 . S
Sm40 O68 2.386 . S
Sm40 O71 2.408 . S
Sm41 C51 2.846 . S
Sm41 O62 2.386 . S
Sm41 O65 2.408 . S
Sm41 O66 2.543 . S
Sm41 O67 2.450 . S
Sm41 O68 2.681 . S
Sm41 O69 2.464 . S
Sm41 O70 2.396 . S
C42 Sm40 2.846 . S
C42 C43 1.506 . S
C42 O60 1.261 . S
C42 O61 1.242 . S
C43 C42 1.506 . S
C43 C44 1.358 . S
C43 C48 1.382 . S
C44 C43 1.358 . S
C44 C45 1.385 . S
C44 H72 0.930 . S
C45 C44 1.385 . S
C45 C46 1.395 . S
C45 H73 0.929 . S
C46 C45 1.395 . S
C46 C47 1.335 . S
C47 C46 1.335 . S
C47 C48 1.398 . S
C47 H74 0.930 . S
C48 C43 1.382 . S
C48 C47 1.398 . S
C48 H75 0.929 . S
C49 O62 1.271 . S
C49 O63 1.251 . S
C50 O64 1.252 . S
C50 O65 1.272 . S
C51 Sm41 2.846 . S
C51 C52 1.506 . S
C51 O66 1.261 . S
C51 O67 1.242 . S
C52 C51 1.506 . S
C52 C53 1.358 1_455 S
C52 C57 1.382 1_455 S
C53 C52 1.358 1_655 S
C53 C54 1.385 . S
C53 H76 0.930 . S
C54 C53 1.385 . S
C54 C55 1.395 . S
C54 H77 0.929 . S
C55 C54 1.395 . S
C55 C56 1.335 . S
C56 C55 1.335 . S
C56 C57 1.398 . S
C56 H78 0.930 . S
C57 C52 1.382 1_655 S
C57 C56 1.398 . S
C57 H79 0.929 . S
C58 O68 1.271 . S
C58 O69 1.251 . S
C59 O70 1.252 . S
C59 O71 1.272 . S
O60 Sm40 2.543 . S
O60 C42 1.261 . S
O61 Sm40 2.450 . S
O61 C42 1.242 . S
O62 Sm40 2.681 . S
O62 Sm41 2.386 . S
O62 C49 1.271 . S
O63 Sm40 2.464 . S
O63 C49 1.251 . S
O64 Sm40 2.396 . S
O64 C50 1.252 . S
O65 Sm41 2.408 . S
O65 C50 1.272 . S
O66 Sm41 2.543 . S
O66 C51 1.261 . S
O67 Sm41 2.450 . S
O67 C51 1.242 . S
O68 Sm40 2.386 . S
O68 Sm41 2.681 . S
O68 C58 1.271 . S
O69 Sm41 2.464 . S
O69 C58 1.251 . S
O70 Sm41 2.396 . S
O70 C59 1.252 . S
O71 Sm40 2.408 . S
O71 C59 1.272 . S
H72 C44 0.930 . S
H73 C45 0.929 . S
H74 C47 0.930 . S
H75 C48 0.929 . S
H76 C53 0.930 . S
H77 C54 0.929 . S
H78 C56 0.930 . S
H79 C57 0.929 . S
Sm80 C82 2.846 . S
Sm80 O100 2.543 . S
Sm80 O101 2.450 . S
Sm80 O102 2.681 1_655 S
Sm80 O103 2.464 . S
Sm80 O104 2.396 . S
Sm80 O108 2.386 1_655 S
Sm80 O111 2.408 1_655 S
Sm81 C91 2.846 . S
Sm81 O102 2.386 . S
Sm81 O105 2.408 . S
Sm81 O106 2.543 . S
Sm81 O107 2.450 . S
Sm81 O108 2.681 . S
Sm81 O109 2.464 . S
Sm81 O110 2.396 . S
C82 Sm80 2.846 . S
C82 C83 1.506 . S
C82 O100 1.261 . S
C82 O101 1.242 . S
C83 C82 1.506 . S
C83 C84 1.358 . S
C83 C88 1.382 . S
C84 C83 1.358 . S
C84 C85 1.385 . S
C84 H112 0.930 . S
C85 C84 1.385 . S
C85 C86 1.395 . S
C85 H113 0.929 . S
C86 C85 1.395 . S
C86 C87 1.335 . S
C87 C86 1.335 . S
C87 C88 1.398 . S
C87 H114 0.930 . S
C88 C83 1.382 . S
C88 C87 1.398 . S
C88 H115 0.929 . S
C89 O102 1.271 . S
C89 O103 1.251 1_455 S
C90 O104 1.252 . S
C90 O105 1.272 1_655 S
C91 Sm81 2.846 . S
C91 C92 1.506 . S
C91 O106 1.261 . S
C91 O107 1.242 . S
C92 C91 1.506 . S
C92 C93 1.358 . S
C92 C97 1.382 . S
C93 C92 1.358 . S
C93 C94 1.385 . S
C93 H116 0.930 . S
C94 C93 1.385 . S
C94 C95 1.395 . S
C94 H117 0.929 . S
C95 C94 1.395 . S
C95 C96 1.335 . S
C96 C95 1.335 . S
C96 C97 1.398 . S
C96 H118 0.930 . S
C97 C92 1.382 . S
C97 C96 1.398 . S
C97 H119 0.929 . S
C98 O108 1.271 . S
C98 O109 1.251 . S
C99 O110 1.252 . S
C99 O111 1.272 . S
O100 Sm80 2.543 . S
O100 C82 1.261 . S
O101 Sm80 2.450 . S
O101 C82 1.242 . S
O102 Sm80 2.681 1_455 S
O102 Sm81 2.386 . S
O102 C89 1.271 . S
O103 Sm80 2.464 . S
O103 C89 1.251 1_655 S
O104 Sm80 2.396 . S
O104 C90 1.252 . S
O105 Sm81 2.408 . S
O105 C90 1.272 1_455 S
O106 Sm81 2.543 . S
O106 C91 1.261 . S
O107 Sm81 2.450 . S
O107 C91 1.242 . S
O108 Sm80 2.386 1_455 S
O108 Sm81 2.681 . S
O108 C98 1.271 . S
O109 Sm81 2.464 . S
O109 C98 1.251 . S
O110 Sm81 2.396 . S
O110 C99 1.252 . S
O111 Sm80 2.408 1_455 S
O111 C99 1.272 . S
H112 C84 0.930 . S
H113 C85 0.929 . S
H114 C87 0.930 . S
H115 C88 0.929 . S
H116 C93 0.930 . S
H117 C94 0.929 . S
H118 C96 0.930 . S
H119 C97 0.929 . S
Sm120 C122 2.846 . S
Sm120 O140 2.543 . S
Sm120 O141 2.450 . S
Sm120 O142 2.681 . S
Sm120 O143 2.464 . S
Sm120 O144 2.396 . S
Sm120 O148 2.386 . S
Sm120 O151 2.408 . S
Sm121 C131 2.846 . S
Sm121 O142 2.386 . S
Sm121 O145 2.408 . S
Sm121 O146 2.543 . S
Sm121 O147 2.450 . S
Sm121 O148 2.681 . S
Sm121 O149 2.464 . S
Sm121 O150 2.396 . S
C122 Sm120 2.846 . S
C122 C123 1.506 . S
C122 O140 1.261 . S
C122 O141 1.242 . S
C123 C122 1.506 . S
C123 C124 1.358 . S
C123 C128 1.382 . S
C124 C123 1.358 . S
C124 C125 1.385 . S
C124 H152 0.930 . S
C125 C124 1.385 . S
C125 C126 1.395 . S
C125 H153 0.929 . S
C126 C125 1.395 . S
C126 C127 1.335 . S
C127 C126 1.335 . S
C127 C128 1.398 . S
C127 H154 0.930 . S
C128 C123 1.382 . S
C128 C127 1.398 . S
C128 H155 0.929 . S
C129 O142 1.271 . S
C129 O143 1.251 . S
C130 O144 1.252 . S
C130 O145 1.272 . S
C131 Sm121 2.846 . S
C131 C132 1.506 . S
C131 O146 1.261 . S
C131 O147 1.242 . S
C132 C131 1.506 . S
C132 C133 1.358 1_455 S
C132 C137 1.382 1_455 S
C133 C132 1.358 1_655 S
C133 C134 1.385 . S
C133 H156 0.930 . S
C134 C133 1.385 . S
C134 C135 1.395 . S
C134 H157 0.929 . S
C135 C134 1.395 . S
C135 C136 1.335 . S
C136 C135 1.335 . S
C136 C137 1.398 . S
C136 H158 0.930 . S
C137 C132 1.382 1_655 S
C137 C136 1.398 . S
C137 H159 0.929 . S
C138 O148 1.271 . S
C138 O149 1.251 . S
C139 O150 1.252 . S
C139 O151 1.272 . S
O140 Sm120 2.543 . S
O140 C122 1.261 . S
O141 Sm120 2.450 . S
O141 C122 1.242 . S
O142 Sm120 2.681 . S
O142 Sm121 2.386 . S
O142 C129 1.271 . S
O143 Sm120 2.464 . S
O143 C129 1.251 . S
O144 Sm120 2.396 . S
O144 C130 1.252 . S
O145 Sm121 2.408 . S
O145 C130 1.272 . S
O146 Sm121 2.543 . S
O146 C131 1.261 . S
O147 Sm121 2.450 . S
O147 C131 1.242 . S
O148 Sm120 2.386 . S
O148 Sm121 2.681 . S
O148 C138 1.271 . S
O149 Sm121 2.464 . S
O149 C138 1.251 . S
O150 Sm121 2.396 . S
O150 C139 1.252 . S
O151 Sm120 2.408 . S
O151 C139 1.272 . S
H152 C124 0.930 . S
H153 C125 0.929 . S
H154 C127 0.930 . S
H155 C128 0.929 . S
H156 C133 0.930 . S
H157 C134 0.929 . S
H158 C136 0.930 . S
H159 C137 0.929 . S
Sm160 C162 2.846 . S
Sm160 O180 2.543 . S
Sm160 O181 2.450 . S
Sm160 O182 2.681 . S
Sm160 O183 2.464 . S
Sm160 O184 2.396 . S
Sm160 O188 2.386 . S
Sm160 O191 2.408 . S
Sm161 C171 2.846 . S
Sm161 O182 2.386 1_455 S
Sm161 O185 2.408 1_455 S
Sm161 O186 2.543 . S
Sm161 O187 2.450 . S
Sm161 O188 2.681 1_455 S
Sm161 O189 2.464 . S
Sm161 O190 2.396 . S
C162 Sm160 2.846 . S
C162 C163 1.506 . S
C162 O180 1.261 . S
C162 O181 1.242 . S
C163 C162 1.506 . S
C163 C164 1.358 . S
C163 C168 1.382 . S
C164 C163 1.358 . S
C164 C165 1.385 . S
C164 H192 0.930 . S
C165 C164 1.385 . S
C165 C166 1.395 . S
C165 H193 0.929 . S
C166 C165 1.395 . S
C166 C167 1.335 . S
C167 C166 1.335 . S
C167 C168 1.398 . S
C167 H194 0.930 . S
C168 C163 1.382 . S
C168 C167 1.398 . S
C168 H195 0.929 . S
C169 O182 1.271 . S
C169 O183 1.251 . S
C170 O184 1.252 . S
C170 O185 1.272 . S
C171 Sm161 2.846 . S
C171 C172 1.506 . S
C171 O186 1.261 . S
C171 O187 1.242 . S
C172 C171 1.506 . S
C172 C173 1.358 . S
C172 C177 1.382 . S
C173 C172 1.358 . S
C173 C174 1.385 . S
C173 H196 0.930 . S
C174 C173 1.385 . S
C174 C175 1.395 . S
C174 H197 0.929 . S
C175 C174 1.395 . S
C175 C176 1.335 . S
C176 C175 1.335 . S
C176 C177 1.398 . S
C176 H198 0.930 . S
C177 C172 1.382 . S
C177 C176 1.398 . S
C177 H199 0.929 . S
C178 O188 1.271 . S
C178 O189 1.251 1_655 S
C179 O190 1.252 . S
C179 O191 1.272 1_455 S
O180 Sm160 2.543 . S
O180 C162 1.261 . S
O181 Sm160 2.450 . S
O181 C162 1.242 . S
O182 Sm160 2.681 . S
O182 Sm161 2.386 1_655 S
O182 C169 1.271 . S
O183 Sm160 2.464 . S
O183 C169 1.251 . S
O184 Sm160 2.396 . S
O184 C170 1.252 . S
O185 Sm161 2.408 1_655 S
O185 C170 1.272 . S
O186 Sm161 2.543 . S
O186 C171 1.261 . S
O187 Sm161 2.450 . S
O187 C171 1.242 . S
O188 Sm160 2.386 . S
O188 Sm161 2.681 1_655 S
O188 C178 1.271 . S
O189 Sm161 2.464 . S
O189 C178 1.251 1_455 S
O190 Sm161 2.396 . S
O190 C179 1.252 . S
O191 Sm160 2.408 . S
O191 C179 1.272 1_655 S
H192 C164 0.930 . S
H193 C165 0.929 . S
H194 C167 0.930 . S
H195 C168 0.929 . S
H196 C173 0.930 . S
H197 C174 0.929 . S
H198 C176 0.930 . S
H199 C177 0.929 . S
Sm200 C202 2.846 . S
Sm200 O220 2.543 . S
Sm200 O221 2.450 . S
Sm200 O222 2.681 . S
Sm200 O223 2.464 . S
Sm200 O224 2.396 . S
Sm200 O228 2.386 . S
Sm200 O231 2.408 . S
Sm201 C211 2.846 . S
Sm201 O222 2.386 . S
Sm201 O225 2.408 . S
Sm201 O226 2.543 . S
Sm201 O227 2.450 . S
Sm201 O228 2.681 . S
Sm201 O229 2.464 . S
Sm201 O230 2.396 . S
C202 Sm200 2.846 . S
C202 C203 1.506 . S
C202 O220 1.261 . S
C202 O221 1.242 . S
C203 C202 1.506 . S
C203 C204 1.358 1_655 S
C203 C208 1.382 1_655 S
C204 C203 1.358 1_455 S
C204 C205 1.385 . S
C204 H232 0.930 . S
C205 C204 1.385 . S
C205 C206 1.395 . S
C205 H233 0.929 . S
C206 C205 1.395 . S
C206 C207 1.335 . S
C207 C206 1.335 . S
C207 C208 1.398 . S
C207 H234 0.930 . S
C208 C203 1.382 1_455 S
C208 C207 1.398 . S
C208 H235 0.929 . S
C209 O222 1.271 . S
C209 O223 1.251 . S
C210 O224 1.252 . S
C210 O225 1.272 . S
C211 Sm201 2.846 . S
C211 C212 1.506 . S
C211 O226 1.261 . S
C211 O227 1.242 . S
C212 C211 1.506 . S
C212 C213 1.358 . S
C212 C217 1.382 . S
C213 C212 1.358 . S
C213 C214 1.385 . S
C213 H236 0.930 . S
C214 C213 1.385 . S
C214 C215 1.395 . S
C214 H237 0.929 . S
C215 C214 1.395 . S
C215 C216 1.335 . S
C216 C215 1.335 . S
C216 C217 1.398 . S
C216 H238 0.930 . S
C217 C212 1.382 . S
C217 C216 1.398 . S
C217 H239 0.929 . S
C218 O228 1.271 . S
C218 O229 1.251 . S
C219 O230 1.252 . S
C219 O231 1.272 . S
O220 Sm200 2.543 . S
O220 C202 1.261 . S
O221 Sm200 2.450 . S
O221 C202 1.242 . S
O222 Sm200 2.681 . S
O222 Sm201 2.386 . S
O222 C209 1.271 . S
O223 Sm200 2.464 . S
O223 C209 1.251 . S
O224 Sm200 2.396 . S
O224 C210 1.252 . S
O225 Sm201 2.408 . S
O225 C210 1.272 . S
O226 Sm201 2.543 . S
O226 C211 1.261 . S
O227 Sm201 2.450 . S
O227 C211 1.242 . S
O228 Sm200 2.386 . S
O228 Sm201 2.681 . S
O228 C218 1.271 . S
O229 Sm201 2.464 . S
O229 C218 1.251 . S
O230 Sm201 2.396 . S
O230 C219 1.252 . S
O231 Sm200 2.408 . S
O231 C219 1.272 . S
H232 C204 0.930 . S
H233 C205 0.929 . S
H234 C207 0.930 . S
H235 C208 0.929 . S
H236 C213 0.930 . S
H237 C214 0.929 . S
H238 C216 0.930 . S
H239 C217 0.929 . S
Sm240 C242 2.846 . S
Sm240 O260 2.543 . S
Sm240 O261 2.450 . S
Sm240 O262 2.681 . S
Sm240 O263 2.464 . S
Sm240 O264 2.396 . S
Sm240 O268 2.386 . S
Sm240 O271 2.408 . S
Sm241 C251 2.846 . S
Sm241 O262 2.386 1_455 S
Sm241 O265 2.408 1_455 S
Sm241 O266 2.543 . S
Sm241 O267 2.450 . S
Sm241 O268 2.681 1_455 S
Sm241 O269 2.464 . S
Sm241 O270 2.396 . S
C242 Sm240 2.846 . S
C242 C243 1.506 . S
C242 O260 1.261 . S
C242 O261 1.242 . S
C243 C242 1.506 . S
C243 C244 1.358 . S
C243 C248 1.382 . S
C244 C243 1.358 . S
C244 C245 1.385 . S
C244 H272 0.930 . S
C245 C244 1.385 . S
C245 C246 1.395 . S
C245 H273 0.929 . S
C246 C245 1.395 . S
C246 C247 1.335 . S
C247 C246 1.335 . S
C247 C248 1.398 . S
C247 H274 0.930 . S
C248 C243 1.382 . S
C248 C247 1.398 . S
C248 H275 0.929 . S
C249 O262 1.271 . S
C249 O263 1.251 . S
C250 O264 1.252 . S
C250 O265 1.272 . S
C251 Sm241 2.846 . S
C251 C252 1.506 . S
C251 O266 1.261 . S
C251 O267 1.242 . S
C252 C251 1.506 . S
C252 C253 1.358 . S
C252 C257 1.382 . S
C253 C252 1.358 . S
C253 C254 1.385 . S
C253 H276 0.930 . S
C254 C253 1.385 . S
C254 C255 1.395 . S
C254 H277 0.929 . S
C255 C254 1.395 . S
C255 C256 1.335 . S
C256 C255 1.335 . S
C256 C257 1.398 . S
C256 H278 0.930 . S
C257 C252 1.382 . S
C257 C256 1.398 . S
C257 H279 0.929 . S
C258 O268 1.271 . S
C258 O269 1.251 1_655 S
C259 O270 1.252 . S
C259 O271 1.272 1_455 S
O260 Sm240 2.543 . S
O260 C242 1.261 . S
O261 Sm240 2.450 . S
O261 C242 1.242 . S
O262 Sm240 2.681 . S
O262 Sm241 2.386 1_655 S
O262 C249 1.271 . S
O263 Sm240 2.464 . S
O263 C249 1.251 . S
O264 Sm240 2.396 . S
O264 C250 1.252 . S
O265 Sm241 2.408 1_655 S
O265 C250 1.272 . S
O266 Sm241 2.543 . S
O266 C251 1.261 . S
O267 Sm241 2.450 . S
O267 C251 1.242 . S
O268 Sm240 2.386 . S
O268 Sm241 2.681 1_655 S
O268 C258 1.271 . S
O269 Sm241 2.464 . S
O269 C258 1.251 1_455 S
O270 Sm241 2.396 . S
O270 C259 1.252 . S
O271 Sm240 2.408 . S
O271 C259 1.272 1_655 S
H272 C244 0.930 . S
H273 C245 0.929 . S
H274 C247 0.930 . S
H275 C248 0.929 . S
H276 C253 0.930 . S
H277 C254 0.929 . S
H278 C256 0.930 . S
H279 C257 0.929 . S
Sm280 C282 2.846 . S
Sm280 O300 2.543 . S
Sm280 O301 2.450 . S
Sm280 O302 2.681 . S
Sm280 O303 2.464 . S
Sm280 O304 2.396 . S
Sm280 O308 2.386 . S
Sm280 O311 2.408 . S
Sm281 C291 2.846 . S
Sm281 O302 2.386 . S
Sm281 O305 2.408 . S
Sm281 O306 2.543 . S
Sm281 O307 2.450 . S
Sm281 O308 2.681 . S
Sm281 O309 2.464 . S
Sm281 O310 2.396 . S
C282 Sm280 2.846 . S
C282 C283 1.506 . S
C282 O300 1.261 . S
C282 O301 1.242 . S
C283 C282 1.506 . S
C283 C284 1.358 1_655 S
C283 C288 1.382 1_655 S
C284 C283 1.358 1_455 S
C284 C285 1.385 . S
C284 H312 0.930 . S
C285 C284 1.385 . S
C285 C286 1.395 . S
C285 H313 0.929 . S
C286 C285 1.395 . S
C286 C287 1.335 . S
C287 C286 1.335 . S
C287 C288 1.398 . S
C287 H314 0.930 . S
C288 C283 1.382 1_455 S
C288 C287 1.398 . S
C288 H315 0.929 . S
C289 O302 1.271 . S
C289 O303 1.251 . S
C290 O304 1.252 . S
C290 O305 1.272 . S
C291 Sm281 2.846 . S
C291 C292 1.506 . S
C291 O306 1.261 . S
C291 O307 1.242 . S
C292 C291 1.506 . S
C292 C293 1.358 . S
C292 C297 1.382 . S
C293 C292 1.358 . S
C293 C294 1.385 . S
C293 H316 0.930 . S
C294 C293 1.385 . S
C294 C295 1.395 . S
C294 H317 0.929 . S
C295 C294 1.395 . S
C295 C296 1.335 . S
C296 C295 1.335 . S
C296 C297 1.398 . S
C296 H318 0.930 . S
C297 C292 1.382 . S
C297 C296 1.398 . S
C297 H319 0.929 . S
C298 O308 1.271 . S
C298 O309 1.251 . S
C299 O310 1.252 . S
C299 O311 1.272 . S
O300 Sm280 2.543 . S
O300 C282 1.261 . S
O301 Sm280 2.450 . S
O301 C282 1.242 . S
O302 Sm280 2.681 . S
O302 Sm281 2.386 . S
O302 C289 1.271 . S
O303 Sm280 2.464 . S
O303 C289 1.251 . S
O304 Sm280 2.396 . S
O304 C290 1.252 . S
O305 Sm281 2.408 . S
O305 C290 1.272 . S
O306 Sm281 2.543 . S
O306 C291 1.261 . S
O307 Sm281 2.450 . S
O307 C291 1.242 . S
O308 Sm280 2.386 . S
O308 Sm281 2.681 . S
O308 C298 1.271 . S
O309 Sm281 2.464 . S
O309 C298 1.251 . S
O310 Sm281 2.396 . S
O310 C299 1.252 . S
O311 Sm280 2.408 . S
O311 C299 1.272 . S
H312 C284 0.930 . S
H313 C285 0.929 . S
H314 C287 0.930 . S
H315 C288 0.929 . S
H316 C293 0.930 . S
H317 C294 0.929 . S
H318 C296 0.930 . S
H319 C297 0.929 . S
Sm320 C322 2.838 1_545 S
Sm320 O340 2.543 1_545 S
Sm320 O341 2.450 . S
Sm320 O342 2.681 1_645 S
Sm320 O343 2.464 . S
Sm320 O344 2.396 1_545 S
Sm320 O348 2.386 1_645 S
Sm320 O351 2.408 1_655 S
Sm321 C331 2.846 . S
Sm321 O342 2.386 . S
Sm321 O345 2.408 . S
Sm321 O346 2.543 . S
Sm321 O347 2.450 . S
Sm321 O348 2.681 . S
Sm321 O349 2.464 . S
Sm321 O350 2.396 1_565 S
C322 Sm320 2.838 1_565 S
C322 C323 1.515 . S
C322 O340 1.266 . S
C322 O341 1.230 1_565 S
C323 C322 1.515 . S
C323 C324 1.358 . S
C323 C328 1.382 . S
C324 C323 1.358 . S
C324 C325 1.385 . S
C324 H352 0.930 . S
C325 C324 1.385 . S
C325 C326 1.395 . S
C325 H353 0.929 . S
C326 C325 1.395 . S
C326 C327 1.335 . S
C327 C326 1.335 . S
C327 C328 1.398 . S
C327 H354 0.930 . S
C328 C323 1.382 . S
C328 C327 1.398 . S
C328 H355 0.929 1_565 S
C329 O342 1.271 . S
C329 O343 1.251 1_465 S
C330 O344 1.252 . S
C330 O345 1.272 1_655 S
C331 Sm321 2.846 . S
C331 C332 1.506 . S
C331 O346 1.261 . S
C331 O347 1.242 . S
C332 C331 1.506 . S
C332 C333 1.358 1_565 S
C332 C337 1.382 . S
C333 C332 1.358 1_545 S
C333 C334 1.385 . S
C333 H356 0.930 . S
C334 C333 1.385 . S
C334 C335 1.395 . S
C334 H357 0.929 . S
C335 C334 1.395 . S
C335 C336 1.335 1_545 S
C336 C335 1.335 1_565 S
C336 C337 1.398 . S
C336 H358 0.930 . S
C337 C332 1.382 . S
C337 C336 1.398 . S
C337 H359 0.929 . S
C338 O348 1.271 . S
C338 O349 1.251 . S
C339 O350 1.252 . S
C339 O351 1.272 . S
O340 Sm320 2.543 1_565 S
O340 C322 1.266 . S
O341 Sm320 2.450 . S
O341 C322 1.230 1_545 S
O342 Sm320 2.681 1_465 S
O342 Sm321 2.386 . S
O342 C329 1.271 . S
O343 Sm320 2.464 . S
O343 C329 1.251 1_645 S
O344 Sm320 2.396 1_565 S
O344 C330 1.252 . S
O345 Sm321 2.408 . S
O345 C330 1.272 1_455 S
O346 Sm321 2.543 . S
O346 C331 1.261 . S
O347 Sm321 2.450 . S
O347 C331 1.242 . S
O348 Sm320 2.386 1_465 S
O348 Sm321 2.681 . S
O348 C338 1.271 . S
O349 Sm321 2.464 . S
O349 C338 1.251 . S
O350 Sm321 2.396 1_545 S
O350 C339 1.252 . S
O351 Sm320 2.408 1_455 S
O351 C339 1.272 . S
H352 C324 0.930 . S
H353 C325 0.929 . S
H354 C327 0.930 . S
H355 C328 0.929 1_545 S
H356 C333 0.930 . S
H357 C334 0.929 . S
H358 C336 0.930 . S
H359 C337 0.929 . S
Sm360 C362 2.846 . S
Sm360 O380 2.543 . S
Sm360 O381 2.450 . S
Sm360 O382 2.681 . S
Sm360 O383 2.464 . S
Sm360 O384 2.396 . S
Sm360 O388 2.386 . S
Sm360 O391 2.408 . S
Sm361 C371 2.846 . S
Sm361 O382 2.386 . S
Sm361 O385 2.408 . S
Sm361 O386 2.543 . S
Sm361 O387 2.450 . S
Sm361 O388 2.681 . S
Sm361 O389 2.464 . S
Sm361 O390 2.396 . S
C362 Sm360 2.846 . S
C362 C363 1.506 . S
C362 O380 1.261 . S
C362 O381 1.242 . S
C363 C362 1.506 . S
C363 C364 1.358 . S
C363 C368 1.382 . S
C364 C363 1.358 . S
C364 C365 1.385 . S
C364 H392 0.930 . S
C365 C364 1.385 . S
C365 C366 1.395 . S
C365 H393 0.929 . S
C366 C365 1.395 . S
C366 C367 1.335 . S
C367 C366 1.335 . S
C367 C368 1.398 . S
C367 H394 0.930 . S
C368 C363 1.382 . S
C368 C367 1.398 . S
C368 H395 0.929 . S
C369 O382 1.271 . S
C369 O383 1.251 . S
C370 O384 1.252 . S
C370 O385 1.272 . S
C371 Sm361 2.846 . S
C371 C372 1.506 . S
C371 O386 1.261 . S
C371 O387 1.242 . S
C372 C371 1.506 . S
C372 C373 1.358 1_455 S
C372 C377 1.382 1_455 S
C373 C372 1.358 1_655 S
C373 C374 1.385 . S
C373 H396 0.930 . S
C374 C373 1.385 . S
C374 C375 1.395 . S
C374 H397 0.929 . S
C375 C374 1.395 . S
C375 C376 1.335 . S
C376 C375 1.335 . S
C376 C377 1.398 . S
C376 H398 0.930 . S
C377 C372 1.382 1_655 S
C377 C376 1.398 . S
C377 H399 0.929 . S
C378 O388 1.271 . S
C378 O389 1.251 . S
C379 O390 1.252 . S
C379 O391 1.272 . S
O380 Sm360 2.543 . S
O380 C362 1.261 . S
O381 Sm360 2.450 . S
O381 C362 1.242 . S
O382 Sm360 2.681 . S
O382 Sm361 2.386 . S
O382 C369 1.271 . S
O383 Sm360 2.464 . S
O383 C369 1.251 . S
O384 Sm360 2.396 . S
O384 C370 1.252 . S
O385 Sm361 2.408 . S
O385 C370 1.272 . S
O386 Sm361 2.543 . S
O386 C371 1.261 . S
O387 Sm361 2.450 . S
O387 C371 1.242 . S
O388 Sm360 2.386 . S
O388 Sm361 2.681 . S
O388 C378 1.271 . S
O389 Sm361 2.464 . S
O389 C378 1.251 . S
O390 Sm361 2.396 . S
O390 C379 1.252 . S
O391 Sm360 2.408 . S
O391 C379 1.272 . S
H392 C364 0.930 . S
H393 C365 0.929 . S
H394 C367 0.930 . S
H395 C368 0.929 . S
H396 C373 0.930 . S
H397 C374 0.929 . S
H398 C376 0.930 . S
H399 C377 0.929 . S
Sm400 C402 2.846 . S
Sm400 O420 2.543 . S
Sm400 O421 2.450 . S
Sm400 O422 2.681 1_655 S
Sm400 O423 2.464 . S
Sm400 O424 2.396 . S
Sm400 O428 2.386 1_655 S
Sm400 O431 2.408 1_655 S
Sm401 C411 2.846 . S
Sm401 O422 2.386 . S
Sm401 O425 2.408 . S
Sm401 O426 2.543 . S
Sm401 O427 2.450 . S
Sm401 O428 2.681 . S
Sm401 O429 2.464 . S
Sm401 O430 2.396 . S
C402 Sm400 2.846 . S
C402 C403 1.506 . S
C402 O420 1.261 . S
C402 O421 1.242 . S
C403 C402 1.506 . S
C403 C404 1.358 . S
C403 C408 1.382 . S
C404 C403 1.358 . S
C404 C405 1.385 . S
C404 H432 0.930 . S
C405 C404 1.385 . S
C405 C406 1.395 . S
C405 H433 0.929 . S
C406 C405 1.395 . S
C406 C407 1.335 . S
C407 C406 1.335 . S
C407 C408 1.398 . S
C407 H434 0.930 . S
C408 C403 1.382 . S
C408 C407 1.398 . S
C408 H435 0.929 . S
C409 O422 1.271 . S
C409 O423 1.251 1_455 S
C410 O424 1.252 . S
C410 O425 1.272 1_655 S
C411 Sm401 2.846 . S
C411 C412 1.506 . S
C411 O426 1.261 . S
C411 O427 1.242 . S
C412 C411 1.506 . S
C412 C413 1.358 . S
C412 C417 1.382 . S
C413 C412 1.358 . S
C413 C414 1.385 . S
C413 H436 0.930 . S
C414 C413 1.385 . S
C414 C415 1.395 . S
C414 H437 0.929 . S
C415 C414 1.395 . S
C415 C416 1.335 . S
C416 C415 1.335 . S
C416 C417 1.398 . S
C416 H438 0.930 . S
C417 C412 1.382 . S
C417 C416 1.398 . S
C417 H439 0.929 . S
C418 O428 1.271 . S
C418 O429 1.251 . S
C419 O430 1.252 . S
C419 O431 1.272 . S
O420 Sm400 2.543 . S
O420 C402 1.261 . S
O421 Sm400 2.450 . S
O421 C402 1.242 . S
O422 Sm400 2.681 1_455 S
O422 Sm401 2.386 . S
O422 C409 1.271 . S
O423 Sm400 2.464 . S
O423 C409 1.251 1_655 S
O424 Sm400 2.396 . S
O424 C410 1.252 . S
O425 Sm401 2.408 . S
O425 C410 1.272 1_455 S
O426 Sm401 2.543 . S
O426 C411 1.261 . S
O427 Sm401 2.450 . S
O427 C411 1.242 . S
O428 Sm400 2.386 1_455 S
O428 Sm401 2.681 . S
O428 C418 1.271 . S
O429 Sm401 2.464 . S
O429 C418 1.251 . S
O430 Sm401 2.396 . S
O430 C419 1.252 . S
O431 Sm400 2.408 1_455 S
O431 C419 1.272 . S
H432 C404 0.930 . S
H433 C405 0.929 . S
H434 C407 0.930 . S
H435 C408 0.929 . S
H436 C413 0.930 . S
H437 C414 0.929 . S
H438 C416 0.930 . S
H439 C417 0.929 . S
Sm440 C442 2.838 1_545 S
Sm440 O460 2.543 1_545 S
Sm440 O461 2.450 . S
Sm440 O462 2.681 1_545 S
Sm440 O463 2.464 . S
Sm440 O464 2.396 1_545 S
Sm440 O468 2.386 1_545 S
Sm440 O471 2.408 . S
Sm441 C451 2.846 . S
Sm441 O462 2.386 . S
Sm441 O465 2.408 . S
Sm441 O466 2.543 . S
Sm441 O467 2.450 . S
Sm441 O468 2.681 . S
Sm441 O469 2.464 . S
Sm441 O470 2.396 1_565 S
C442 Sm440 2.838 1_565 S
C442 C443 1.515 . S
C442 O460 1.266 . S
C442 O461 1.230 1_565 S
C443 C442 1.515 . S
C443 C444 1.358 . S
C443 C448 1.382 . S
C444 C443 1.358 . S
C444 C445 1.385 . S
C444 H472 0.930 . S
C445 C444 1.385 . S
C445 C446 1.395 . S
C445 H473 0.929 . S
C446 C445 1.395 . S
C446 C447 1.335 . S
C447 C446 1.335 . S
C447 C448 1.398 . S
C447 H474 0.930 . S
C448 C443 1.382 . S
C448 C447 1.398 . S
C448 H475 0.929 1_565 S
C449 O462 1.271 . S
C449 O463 1.251 1_565 S
C450 O464 1.252 . S
C450 O465 1.272 . S
C451 Sm441 2.846 . S
C451 C452 1.506 . S
C451 O466 1.261 . S
C451 O467 1.242 . S
C452 C451 1.506 . S
C452 C453 1.358 1_465 S
C452 C457 1.382 1_455 S
C453 C452 1.358 1_645 S
C453 C454 1.385 . S
C453 H476 0.930 . S
C454 C453 1.385 . S
C454 C455 1.395 . S
C454 H477 0.929 . S
C455 C454 1.395 . S
C455 C456 1.335 1_545 S
C456 C455 1.335 1_565 S
C456 C457 1.398 . S
C456 H478 0.930 . S
C457 C452 1.382 1_655 S
C457 C456 1.398 . S
C457 H479 0.929 . S
C458 O468 1.271 . S
C458 O469 1.251 . S
C459 O470 1.252 . S
C459 O471 1.272 . S
O460 Sm440 2.543 1_565 S
O460 C442 1.266 . S
O461 Sm440 2.450 . S
O461 C442 1.230 1_545 S
O462 Sm440 2.681 1_565 S
O462 Sm441 2.386 . S
O462 C449 1.271 . S
O463 Sm440 2.464 . S
O463 C449 1.251 1_545 S
O464 Sm440 2.396 1_565 S
O464 C450 1.252 . S
O465 Sm441 2.408 . S
O465 C450 1.272 . S
O466 Sm441 2.543 . S
O466 C451 1.261 . S
O467 Sm441 2.450 . S
O467 C451 1.242 . S
O468 Sm440 2.386 1_565 S
O468 Sm441 2.681 . S
O468 C458 1.271 . S
O469 Sm441 2.464 . S
O469 C458 1.251 . S
O470 Sm441 2.396 1_545 S
O470 C459 1.252 . S
O471 Sm440 2.408 . S
O471 C459 1.272 . S
H472 C444 0.930 . S
H473 C445 0.929 . S
H474 C447 0.930 . S
H475 C448 0.929 1_545 S
H476 C453 0.930 . S
H477 C454 0.929 . S
H478 C456 0.930 . S
H479 C457 0.929 . S
Sm480 C482 2.846 . S
Sm480 O500 2.543 . S
Sm480 O501 2.450 . S
Sm480 O502 2.681 . S
Sm480 O503 2.464 . S
Sm480 O504 2.396 1_545 S
Sm480 O508 2.386 . S
Sm480 O511 2.408 . S
Sm481 C491 2.838 1_565 S
Sm481 O502 2.386 1_465 S
Sm481 O505 2.408 1_455 S
Sm481 O506 2.543 1_565 S
Sm481 O507 2.450 . S
Sm481 O508 2.681 1_465 S
Sm481 O509 2.464 . S
Sm481 O510 2.396 1_565 S
C482 Sm480 2.846 . S
C482 C483 1.506 . S
C482 O500 1.261 . S
C482 O501 1.242 . S
C483 C482 1.506 . S
C483 C484 1.358 1_545 S
C483 C488 1.382 . S
C484 C483 1.358 1_565 S
C484 C485 1.385 . S
C484 H512 0.930 . S
C485 C484 1.385 . S
C485 C486 1.395 . S
C485 H513 0.929 . S
C486 C485 1.395 . S
C486 C487 1.335 1_565 S
C487 C486 1.335 1_545 S
C487 C488 1.398 . S
C487 H514 0.930 . S
C488 C483 1.382 . S
C488 C487 1.398 . S
C488 H515 0.929 . S
C489 O502 1.271 . S
C489 O503 1.251 . S
C490 O504 1.252 . S
C490 O505 1.272 . S
C491 Sm481 2.838 1_545 S
C491 C492 1.515 . S
C491 O506 1.266 . S
C491 O507 1.230 1_545 S
C492 C491 1.515 . S
C492 C493 1.358 . S
C492 C497 1.382 . S
C493 C492 1.358 . S
C493 C494 1.385 . S
C493 H516 0.930 . S
C494 C493 1.385 . S
C494 C495 1.395 . S
C494 H517 0.929 . S
C495 C494 1.395 . S
C495 C496 1.335 . S
C496 C495 1.335 . S
C496 C497 1.398 . S
C496 H518 0.930 . S
C497 C492 1.382 . S
C497 C496 1.398 . S
C497 H519 0.929 1_545 S
C498 O508 1.271 . S
C498 O509 1.251 1_645 S
C499 O510 1.252 . S
C499 O511 1.272 1_455 S
O500 Sm480 2.543 . S
O500 C482 1.261 . S
O501 Sm480 2.450 . S
O501 C482 1.242 . S
O502 Sm480 2.681 . S
O502 Sm481 2.386 1_645 S
O502 C489 1.271 . S
O503 Sm480 2.464 . S
O503 C489 1.251 . S
O504 Sm480 2.396 1_565 S
O504 C490 1.252 . S
O505 Sm481 2.408 1_655 S
O505 C490 1.272 . S
O506 Sm481 2.543 1_545 S
O506 C491 1.266 . S
O507 Sm481 2.450 . S
O507 C491 1.230 1_565 S
O508 Sm480 2.386 . S
O508 Sm481 2.681 1_645 S
O508 C498 1.271 . S
O509 Sm481 2.464 . S
O509 C498 1.251 1_465 S
O510 Sm481 2.396 1_545 S
O510 C499 1.252 . S
O511 Sm480 2.408 . S
O511 C499 1.272 1_655 S
H512 C484 0.930 . S
H513 C485 0.929 . S
H514 C487 0.930 . S
H515 C488 0.929 . S
H516 C493 0.930 . S
H517 C494 0.929 . S
H518 C496 0.930 . S
H519 C497 0.929 1_565 S
Sm520 C522 2.846 . S
Sm520 O540 2.543 . S
Sm520 O541 2.450 . S
Sm520 O542 2.681 . S
Sm520 O543 2.464 . S
Sm520 O544 2.396 . S
Sm520 O548 2.386 . S
Sm520 O551 2.408 . S
Sm521 C531 2.846 . S
Sm521 O542 2.386 . S
Sm521 O545 2.408 . S
Sm521 O546 2.543 . S
Sm521 O547 2.450 . S
Sm521 O548 2.681 . S
Sm521 O549 2.464 . S
Sm521 O550 2.396 . S
C522 Sm520 2.846 . S
C522 C523 1.506 . S
C522 O540 1.261 . S
C522 O541 1.242 . S
C523 C522 1.506 . S
C523 C524 1.358 1_655 S
C523 C528 1.382 1_655 S
C524 C523 1.358 1_455 S
C524 C525 1.385 . S
C524 H552 0.930 . S
C525 C524 1.385 . S
C525 C526 1.395 . S
C525 H553 0.929 . S
C526 C525 1.395 . S
C526 C527 1.335 . S
C527 C526 1.335 . S
C527 C528 1.398 . S
C527 H554 0.930 . S
C528 C523 1.382 1_455 S
C528 C527 1.398 . S
C528 H555 0.929 . S
C529 O542 1.271 . S
C529 O543 1.251 . S
C530 O544 1.252 . S
C530 O545 1.272 . S
C531 Sm521 2.846 . S
C531 C532 1.506 . S
C531 O546 1.261 . S
C531 O547 1.242 . S
C532 C531 1.506 . S
C532 C533 1.358 . S
C532 C537 1.382 . S
C533 C532 1.358 . S
C533 C534 1.385 . S
C533 H556 0.930 . S
C534 C533 1.385 . S
C534 C535 1.395 . S
C534 H557 0.929 . S
C535 C534 1.395 . S
C535 C536 1.335 . S
C536 C535 1.335 . S
C536 C537 1.398 . S
C536 H558 0.930 . S
C537 C532 1.382 . S
C537 C536 1.398 . S
C537 H559 0.929 . S
C538 O548 1.271 . S
C538 O549 1.251 . S
C539 O550 1.252 . S
C539 O551 1.272 . S
O540 Sm520 2.543 . S
O540 C522 1.261 . S
O541 Sm520 2.450 . S
O541 C522 1.242 . S
O542 Sm520 2.681 . S
O542 Sm521 2.386 . S
O542 C529 1.271 . S
O543 Sm520 2.464 . S
O543 C529 1.251 . S
O544 Sm520 2.396 . S
O544 C530 1.252 . S
O545 Sm521 2.408 . S
O545 C530 1.272 . S
O546 Sm521 2.543 . S
O546 C531 1.261 . S
O547 Sm521 2.450 . S
O547 C531 1.242 . S
O548 Sm520 2.386 . S
O548 Sm521 2.681 . S
O548 C538 1.271 . S
O549 Sm521 2.464 . S
O549 C538 1.251 . S
O550 Sm521 2.396 . S
O550 C539 1.252 . S
O551 Sm520 2.408 . S
O551 C539 1.272 . S
H552 C524 0.930 . S
H553 C525 0.929 . S
H554 C527 0.930 . S
H555 C528 0.929 . S
H556 C533 0.930 . S
H557 C534 0.929 . S
H558 C536 0.930 . S
H559 C537 0.929 . S
Sm560 C562 2.846 . S
Sm560 O580 2.543 . S
Sm560 O581 2.450 . S
Sm560 O582 2.681 . S
Sm560 O583 2.464 . S
Sm560 O584 2.396 . S
Sm560 O588 2.386 . S
Sm560 O591 2.408 . S
Sm561 C571 2.846 . S
Sm561 O582 2.386 1_455 S
Sm561 O585 2.408 1_455 S
Sm561 O586 2.543 . S
Sm561 O587 2.450 . S
Sm561 O588 2.681 1_455 S
Sm561 O589 2.464 . S
Sm561 O590 2.396 . S
C562 Sm560 2.846 . S
C562 C563 1.506 . S
C562 O580 1.261 . S
C562 O581 1.242 . S
C563 C562 1.506 . S
C563 C564 1.358 . S
C563 C568 1.382 . S
C564 C563 1.358 . S
C564 C565 1.385 . S
C564 H592 0.930 . S
C565 C564 1.385 . S
C565 C566 1.395 . S
C565 H593 0.929 . S
C566 C565 1.395 . S
C566 C567 1.335 . S
C567 C566 1.335 . S
C567 C568 1.398 . S
C567 H594 0.930 . S
C568 C563 1.382 . S
C568 C567 1.398 . S
C568 H595 0.929 . S
C569 O582 1.271 . S
C569 O583 1.251 . S
C570 O584 1.252 . S
C570 O585 1.272 . S
C571 Sm561 2.846 . S
C571 C572 1.506 . S
C571 O586 1.261 . S
C571 O587 1.242 . S
C572 C571 1.506 . S
C572 C573 1.358 . S
C572 C577 1.382 . S
C573 C572 1.358 . S
C573 C574 1.385 . S
C573 H596 0.930 . S
C574 C573 1.385 . S
C574 C575 1.395 . S
C574 H597 0.929 . S
C575 C574 1.395 . S
C575 C576 1.335 . S
C576 C575 1.335 . S
C576 C577 1.398 . S
C576 H598 0.930 . S
C577 C572 1.382 . S
C577 C576 1.398 . S
C577 H599 0.929 . S
C578 O588 1.271 . S
C578 O589 1.251 1_655 S
C579 O590 1.252 . S
C579 O591 1.272 1_455 S
O580 Sm560 2.543 . S
O580 C562 1.261 . S
O581 Sm560 2.450 . S
O581 C562 1.242 . S
O582 Sm560 2.681 . S
O582 Sm561 2.386 1_655 S
O582 C569 1.271 . S
O583 Sm560 2.464 . S
O583 C569 1.251 . S
O584 Sm560 2.396 . S
O584 C570 1.252 . S
O585 Sm561 2.408 1_655 S
O585 C570 1.272 . S
O586 Sm561 2.543 . S
O586 C571 1.261 . S
O587 Sm561 2.450 . S
O587 C571 1.242 . S
O588 Sm560 2.386 . S
O588 Sm561 2.681 1_655 S
O588 C578 1.271 . S
O589 Sm561 2.464 . S
O589 C578 1.251 1_455 S
O590 Sm561 2.396 . S
O590 C579 1.252 . S
O591 Sm560 2.408 . S
O591 C579 1.272 1_655 S
H592 C564 0.930 . S
H593 C565 0.929 . S
H594 C567 0.930 . S
H595 C568 0.929 . S
H596 C573 0.930 . S
H597 C574 0.929 . S
H598 C576 0.930 . S
H599 C577 0.929 . S
Sm600 C602 2.846 . S
Sm600 O620 2.543 . S
Sm600 O621 2.450 . S
Sm600 O622 2.681 . S
Sm600 O623 2.464 . S
Sm600 O624 2.396 1_545 S
Sm600 O628 2.386 . S
Sm600 O631 2.408 . S
Sm601 C611 2.838 1_565 S
Sm601 O622 2.386 1_565 S
Sm601 O625 2.408 . S
Sm601 O626 2.543 1_565 S
Sm601 O627 2.450 . S
Sm601 O628 2.681 1_565 S
Sm601 O629 2.464 . S
Sm601 O630 2.396 1_565 S
C602 Sm600 2.846 . S
C602 C603 1.506 . S
C602 O620 1.261 . S
C602 O621 1.242 . S
C603 C602 1.506 . S
C603 C604 1.358 1_645 S
C603 C608 1.382 1_655 S
C604 C603 1.358 1_465 S
C604 C605 1.385 . S
C604 H632 0.930 . S
C605 C604 1.385 . S
C605 C606 1.395 . S
C605 H633 0.929 . S
C606 C605 1.395 . S
C606 C607 1.335 1_565 S
C607 C606 1.335 1_545 S
C607 C608 1.398 . S
C607 H634 0.930 . S
C608 C603 1.382 1_455 S
C608 C607 1.398 . S
C608 H635 0.929 . S
C609 O622 1.271 . S
C609 O623 1.251 . S
C610 O624 1.252 . S
C610 O625 1.272 . S
C611 Sm601 2.838 1_545 S
C611 C612 1.515 . S
C611 O626 1.266 . S
C611 O627 1.230 1_545 S
C612 C611 1.515 . S
C612 C613 1.358 . S
C612 C617 1.382 . S
C613 C612 1.358 . S
C613 C614 1.385 . S
C613 H636 0.930 . S
C614 C613 1.385 . S
C614 C615 1.395 . S
C614 H637 0.929 . S
C615 C614 1.395 . S
C615 C616 1.335 . S
C616 C615 1.335 . S
C616 C617 1.398 . S
C616 H638 0.930 . S
C617 C612 1.382 . S
C617 C616 1.398 . S
C617 H639 0.929 1_545 S
C618 O628 1.271 . S
C618 O629 1.251 1_545 S
C619 O630 1.252 . S
C619 O631 1.272 . S
O620 Sm600 2.543 . S
O620 C602 1.261 . S
O621 Sm600 2.450 . S
O621 C602 1.242 . S
O622 Sm600 2.681 . S
O622 Sm601 2.386 1_545 S
O622 C609 1.271 . S
O623 Sm600 2.464 . S
O623 C609 1.251 . S
O624 Sm600 2.396 1_565 S
O624 C610 1.252 . S
O625 Sm601 2.408 . S
O625 C610 1.272 . S
O626 Sm601 2.543 1_545 S
O626 C611 1.266 . S
O627 Sm601 2.450 . S
O627 C611 1.230 1_565 S
O628 Sm600 2.386 . S
O628 Sm601 2.681 1_545 S
O628 C618 1.271 . S
O629 Sm601 2.464 . S
O629 C618 1.251 1_565 S
O630 Sm601 2.396 1_545 S
O630 C619 1.252 . S
O631 Sm600 2.408 . S
O631 C619 1.272 . S
H632 C604 0.930 . S
H633 C605 0.929 . S
H634 C607 0.930 . S
H635 C608 0.929 . S
H636 C613 0.930 . S
H637 C614 0.929 . S
H638 C616 0.930 . S
H639 C617 0.929 1_565 S
Sm640 C642 2.846 . S
Sm640 O660 2.543 . S
Sm640 O661 2.450 . S
Sm640 O662 2.681 . S
Sm640 O663 2.464 . S
Sm640 O664 2.396 . S
Sm640 O668 2.386 . S
Sm640 O671 2.408 . S
Sm641 C651 2.846 . S
Sm641 O662 2.386 . S
Sm641 O665 2.408 . S
Sm641 O666 2.543 . S
Sm641 O667 2.450 . S
Sm641 O668 2.681 . S
Sm641 O669 2.464 . S
Sm641 O670 2.396 . S
C642 Sm640 2.846 . S
C642 C643 1.506 . S
C642 O660 1.261 . S
C642 O661 1.242 . S
C643 C642 1.506 . S
C643 C644 1.358 . S
C643 C648 1.382 . S
C644 C643 1.358 . S
C644 C645 1.385 . S
C644 H672 0.930 . S
C645 C644 1.385 . S
C645 C646 1.395 . S
C645 H673 0.929 . S
C646 C645 1.395 . S
C646 C647 1.335 . S
C647 C646 1.335 . S
C647 C648 1.398 . S
C647 H674 0.930 . S
C648 C643 1.382 . S
C648 C647 1.398 . S
C648 H675 0.929 . S
C649 O662 1.271 . S
C649 O663 1.251 . S
C650 O664 1.252 . S
C650 O665 1.272 . S
C651 Sm641 2.846 . S
C651 C652 1.506 . S
C651 O666 1.261 . S
C651 O667 1.242 . S
C652 C651 1.506 . S
C652 C653 1.358 . S
C652 C657 1.382 . S
C653 C652 1.358 . S
C653 C654 1.385 . S
C653 H676 0.930 . S
C654 C653 1.385 . S
C654 C655 1.395 . S
C654 H677 0.929 . S
C655 C654 1.395 . S
C655 C656 1.335 . S
C656 C655 1.335 . S
C656 C657 1.398 . S
C656 H678 0.930 . S
C657 C652 1.382 . S
C657 C656 1.398 . S
C657 H679 0.929 . S
C658 O668 1.271 . S
C658 O669 1.251 . S
C659 O670 1.252 . S
C659 O671 1.272 . S
O660 Sm640 2.543 . S
O660 C642 1.261 . S
O661 Sm640 2.450 . S
O661 C642 1.242 . S
O662 Sm640 2.681 . S
O662 Sm641 2.386 . S
O662 C649 1.271 . S
O663 Sm640 2.464 . S
O663 C649 1.251 . S
O664 Sm640 2.396 . S
O664 C650 1.252 . S
O665 Sm641 2.408 . S
O665 C650 1.272 . S
O666 Sm641 2.543 . S
O666 C651 1.261 . S
O667 Sm641 2.450 . S
O667 C651 1.242 . S
O668 Sm640 2.386 . S
O668 Sm641 2.681 . S
O668 C658 1.271 . S
O669 Sm641 2.464 . S
O669 C658 1.251 . S
O670 Sm641 2.396 . S
O670 C659 1.252 . S
O671 Sm640 2.408 . S
O671 C659 1.272 . S
H672 C644 0.930 . S
H673 C645 0.929 . S
H674 C647 0.930 . S
H675 C648 0.929 . S
H676 C653 0.930 . S
H677 C654 0.929 . S
H678 C656 0.930 . S
H679 C657 0.929 . S
Sm680 C682 2.846 . S
Sm680 O700 2.543 . S
Sm680 O701 2.450 . S
Sm680 O702 2.681 . S
Sm680 O703 2.464 . S
Sm680 O704 2.396 . S
Sm680 O708 2.386 . S
Sm680 O711 2.408 . S
Sm681 C691 2.846 . S
Sm681 O702 2.386 . S
Sm681 O705 2.408 . S
Sm681 O706 2.543 . S
Sm681 O707 2.450 . S
Sm681 O708 2.681 . S
Sm681 O709 2.464 . S
Sm681 O710 2.396 . S
C682 Sm680 2.846 . S
C682 C683 1.506 . S
C682 O700 1.261 . S
C682 O701 1.242 . S
C683 C682 1.506 . S
C683 C684 1.358 . S
C683 C688 1.382 . S
C684 C683 1.358 . S
C684 C685 1.385 1_655 S
C684 H712 0.930 . S
C685 C684 1.385 1_455 S
C685 C686 1.395 . S
C685 H713 0.929 . S
C686 C685 1.395 . S
C686 C687 1.335 . S
C687 C686 1.335 . S
C687 C688 1.398 1_455 S
C687 H714 0.930 . S
C688 C683 1.382 . S
C688 C687 1.398 1_655 S
C688 H715 0.929 . S
C689 O702 1.271 . S
C689 O703 1.251 . S
C690 O704 1.252 . S
C690 O705 1.272 . S
C691 Sm681 2.846 . S
C691 C692 1.506 . S
C691 O706 1.261 . S
C691 O707 1.242 . S
C692 C691 1.506 . S
C692 C693 1.358 . S
C692 C697 1.382 . S
C693 C692 1.358 . S
C693 C694 1.385 . S
C693 H716 0.930 . S
C694 C693 1.385 . S
C694 C695 1.395 . S
C694 H717 0.929 . S
C695 C694 1.395 . S
C695 C696 1.335 . S
C696 C695 1.335 . S
C696 C697 1.398 . S
C696 H718 0.930 . S
C697 C692 1.382 . S
C697 C696 1.398 . S
C697 H719 0.929 . S
C698 O708 1.271 . S
C698 O709 1.251 . S
C699 O710 1.252 . S
C699 O711 1.272 . S
O700 Sm680 2.543 . S
O700 C682 1.261 . S
O701 Sm680 2.450 . S
O701 C682 1.242 . S
O702 Sm680 2.681 . S
O702 Sm681 2.386 . S
O702 C689 1.271 . S
O703 Sm680 2.464 . S
O703 C689 1.251 . S
O704 Sm680 2.396 . S
O704 C690 1.252 . S
O705 Sm681 2.408 . S
O705 C690 1.272 . S
O706 Sm681 2.543 . S
O706 C691 1.261 . S
O707 Sm681 2.450 . S
O707 C691 1.242 . S
O708 Sm680 2.386 . S
O708 Sm681 2.681 . S
O708 C698 1.271 . S
O709 Sm681 2.464 . S
O709 C698 1.251 . S
O710 Sm681 2.396 . S
O710 C699 1.252 . S
O711 Sm680 2.408 . S
O711 C699 1.272 . S
H712 C684 0.930 . S
H713 C685 0.929 . S
H714 C687 0.930 . S
H715 C688 0.929 . S
H716 C693 0.930 . S
H717 C694 0.929 . S
H718 C696 0.930 . S
H719 C697 0.929 . S
Sm720 C722 2.846 . S
Sm720 O740 2.543 . S
Sm720 O741 2.450 . S
Sm720 O742 2.681 . S
Sm720 O743 2.464 . S
Sm720 O744 2.396 . S
Sm720 O748 2.386 . S
Sm720 O751 2.408 . S
Sm721 C731 2.846 . S
Sm721 O742 2.386 . S
Sm721 O745 2.408 . S
Sm721 O746 2.543 . S
Sm721 O747 2.450 . S
Sm721 O748 2.681 . S
Sm721 O749 2.464 . S
Sm721 O750 2.396 . S
C722 Sm720 2.846 . S
C722 C723 1.506 . S
C722 O740 1.261 . S
C722 O741 1.242 . S
C723 C722 1.506 . S
C723 C724 1.358 . S
C723 C728 1.382 . S
C724 C723 1.358 . S
C724 C725 1.385 . S
C724 H752 0.930 . S
C725 C724 1.385 . S
C725 C726 1.395 . S
C725 H753 0.929 . S
C726 C725 1.395 . S
C726 C727 1.335 . S
C727 C726 1.335 . S
C727 C728 1.398 . S
C727 H754 0.930 . S
C728 C723 1.382 . S
C728 C727 1.398 . S
C728 H755 0.929 . S
C729 O742 1.271 . S
C729 O743 1.251 . S
C730 O744 1.252 . S
C730 O745 1.272 . S
C731 Sm721 2.846 . S
C731 C732 1.506 . S
C731 O746 1.261 . S
C731 O747 1.242 . S
C732 C731 1.506 . S
C732 C733 1.358 . S
C732 C737 1.382 . S
C733 C732 1.358 . S
C733 C734 1.385 . S
C733 H756 0.930 . S
C734 C733 1.385 . S
C734 C735 1.395 . S
C734 H757 0.929 . S
C735 C734 1.395 . S
C735 C736 1.335 . S
C736 C735 1.335 . S
C736 C737 1.398 . S
C736 H758 0.930 . S
C737 C732 1.382 . S
C737 C736 1.398 . S
C737 H759 0.929 . S
C738 O748 1.271 . S
C738 O749 1.251 . S
C739 O750 1.252 . S
C739 O751 1.272 . S
O740 Sm720 2.543 . S
O740 C722 1.261 . S
O741 Sm720 2.450 . S
O741 C722 1.242 . S
O742 Sm720 2.681 . S
O742 Sm721 2.386 . S
O742 C729 1.271 . S
O743 Sm720 2.464 . S
O743 C729 1.251 . S
O744 Sm720 2.396 . S
O744 C730 1.252 . S
O745 Sm721 2.408 . S
O745 C730 1.272 . S
O746 Sm721 2.543 . S
O746 C731 1.261 . S
O747 Sm721 2.450 . S
O747 C731 1.242 . S
O748 Sm720 2.386 . S
O748 Sm721 2.681 . S
O748 C738 1.271 . S
O749 Sm721 2.464 . S
O749 C738 1.251 . S
O750 Sm721 2.396 . S
O750 C739 1.252 . S
O751 Sm720 2.408 . S
O751 C739 1.272 . S
H752 C724 0.930 . S
H753 C725 0.929 . S
H754 C727 0.930 . S
H755 C728 0.929 . S
H756 C733 0.930 . S
H757 C734 0.929 . S
H758 C736 0.930 . S
H759 C737 0.929 . S
Sm760 C762 2.846 . S
Sm760 O780 2.543 . S
Sm760 O781 2.450 . S
Sm760 O782 2.681 . S
Sm760 O783 2.464 . S
Sm760 O784 2.396 . S
Sm760 O788 2.386 . S
Sm760 O791 2.408 . S
Sm761 C771 2.846 . S
Sm761 O782 2.386 . S
Sm761 O785 2.408 . S
Sm761 O786 2.543 . S
Sm761 O787 2.450 . S
Sm761 O788 2.681 . S
Sm761 O789 2.464 . S
Sm761 O790 2.396 . S
C762 Sm760 2.846 . S
C762 C763 1.506 . S
C762 O780 1.261 . S
C762 O781 1.242 . S
C763 C762 1.506 . S
C763 C764 1.358 . S
C763 C768 1.382 . S
C764 C763 1.358 . S
C764 C765 1.385 1_655 S
C764 H792 0.930 . S
C765 C764 1.385 1_455 S
C765 C766 1.395 . S
C765 H793 0.929 . S
C766 C765 1.395 . S
C766 C767 1.335 . S
C767 C766 1.335 . S
C767 C768 1.398 1_455 S
C767 H794 0.930 . S
C768 C763 1.382 . S
C768 C767 1.398 1_655 S
C768 H795 0.929 . S
C769 O782 1.271 . S
C769 O783 1.251 . S
C770 O784 1.252 . S
C770 O785 1.272 . S
C771 Sm761 2.846 . S
C771 C772 1.506 . S
C771 O786 1.261 . S
C771 O787 1.242 . S
C772 C771 1.506 . S
C772 C773 1.358 . S
C772 C777 1.382 . S
C773 C772 1.358 . S
C773 C774 1.385 . S
C773 H796 0.930 . S
C774 C773 1.385 . S
C774 C775 1.395 . S
C774 H797 0.929 . S
C775 C774 1.395 . S
C775 C776 1.335 . S
C776 C775 1.335 . S
C776 C777 1.398 . S
C776 H798 0.930 . S
C777 C772 1.382 . S
C777 C776 1.398 . S
C777 H799 0.929 . S
C778 O788 1.271 . S
C778 O789 1.251 . S
C779 O790 1.252 . S
C779 O791 1.272 . S
O780 Sm760 2.543 . S
O780 C762 1.261 . S
O781 Sm760 2.450 . S
O781 C762 1.242 . S
O782 Sm760 2.681 . S
O782 Sm761 2.386 . S
O782 C769 1.271 . S
O783 Sm760 2.464 . S
O783 C769 1.251 . S
O784 Sm760 2.396 . S
O784 C770 1.252 . S
O785 Sm761 2.408 . S
O785 C770 1.272 . S
O786 Sm761 2.543 . S
O786 C771 1.261 . S
O787 Sm761 2.450 . S
O787 C771 1.242 . S
O788 Sm760 2.386 . S
O788 Sm761 2.681 . S
O788 C778 1.271 . S
O789 Sm761 2.464 . S
O789 C778 1.251 . S
O790 Sm761 2.396 . S
O790 C779 1.252 . S
O791 Sm760 2.408 . S
O791 C779 1.272 . S
H792 C764 0.930 . S
H793 C765 0.929 . S
H794 C767 0.930 . S
H795 C768 0.929 . S
H796 C773 0.930 . S
H797 C774 0.929 . S
H798 C776 0.930 . S
H799 C777 0.929 . S
Sm800 C802 2.846 . S
Sm800 O820 2.543 . S
Sm800 O821 2.450 . S
Sm800 O822 2.681 . S
Sm800 O823 2.464 . S
Sm800 O824 2.396 . S
Sm800 O828 2.386 . S
Sm800 O831 2.408 . S
Sm801 C811 2.846 . S
Sm801 O822 2.386 . S
Sm801 O825 2.408 . S
Sm801 O826 2.543 . S
Sm801 O827 2.450 . S
Sm801 O828 2.681 . S
Sm801 O829 2.464 . S
Sm801 O830 2.396 . S
C802 Sm800 2.846 . S
C802 C803 1.506 . S
C802 O820 1.261 . S
C802 O821 1.242 . S
C803 C802 1.506 . S
C803 C804 1.358 . S
C803 C808 1.382 . S
C804 C803 1.358 . S
C804 C805 1.385 . S
C804 H832 0.930 . S
C805 C804 1.385 . S
C805 C806 1.395 . S
C805 H833 0.929 . S
C806 C805 1.395 . S
C806 C807 1.335 . S
C807 C806 1.335 . S
C807 C808 1.398 . S
C807 H834 0.930 . S
C808 C803 1.382 . S
C808 C807 1.398 . S
C808 H835 0.929 . S
C809 O822 1.271 . S
C809 O823 1.251 . S
C810 O824 1.252 . S
C810 O825 1.272 . S
C811 Sm801 2.846 . S
C811 C812 1.506 . S
C811 O826 1.261 . S
C811 O827 1.242 . S
C812 C811 1.506 . S
C812 C813 1.358 . S
C812 C817 1.382 . S
C813 C812 1.358 . S
C813 C814 1.385 . S
C813 H836 0.930 . S
C814 C813 1.385 . S
C814 C815 1.395 . S
C814 H837 0.929 . S
C815 C814 1.395 . S
C815 C816 1.335 . S
C816 C815 1.335 . S
C816 C817 1.398 . S
C816 H838 0.930 . S
C817 C812 1.382 . S
C817 C816 1.398 . S
C817 H839 0.929 . S
C818 O828 1.271 . S
C818 O829 1.251 . S
C819 O830 1.252 . S
C819 O831 1.272 . S
O820 Sm800 2.543 . S
O820 C802 1.261 . S
O821 Sm800 2.450 . S
O821 C802 1.242 . S
O822 Sm800 2.681 . S
O822 Sm801 2.386 . S
O822 C809 1.271 . S
O823 Sm800 2.464 . S
O823 C809 1.251 . S
O824 Sm800 2.396 . S
O824 C810 1.252 . S
O825 Sm801 2.408 . S
O825 C810 1.272 . S
O826 Sm801 2.543 . S
O826 C811 1.261 . S
O827 Sm801 2.450 . S
O827 C811 1.242 . S
O828 Sm800 2.386 . S
O828 Sm801 2.681 . S
O828 C818 1.271 . S
O829 Sm801 2.464 . S
O829 C818 1.251 . S
O830 Sm801 2.396 . S
O830 C819 1.252 . S
O831 Sm800 2.408 . S
O831 C819 1.272 . S
H832 C804 0.930 . S
H833 C805 0.929 . S
H834 C807 0.930 . S
H835 C808 0.929 . S
H836 C813 0.930 . S
H837 C814 0.929 . S
H838 C816 0.930 . S
H839 C817 0.929 . S
Sm840 C842 2.846 . S
Sm840 O860 2.543 . S
Sm840 O861 2.450 . S
Sm840 O862 2.681 . S
Sm840 O863 2.464 . S
Sm840 O864 2.396 . S
Sm840 O868 2.386 . S
Sm840 O871 2.408 . S
Sm841 C851 2.846 . S
Sm841 O862 2.386 . S
Sm841 O865 2.408 . S
Sm841 O866 2.543 . S
Sm841 O867 2.450 . S
Sm841 O868 2.681 . S
Sm841 O869 2.464 . S
Sm841 O870 2.396 . S
C842 Sm840 2.846 . S
C842 C843 1.506 . S
C842 O860 1.261 . S
C842 O861 1.242 . S
C843 C842 1.506 . S
C843 C844 1.358 . S
C843 C848 1.382 . S
C844 C843 1.358 . S
C844 C845 1.385 . S
C844 H872 0.930 . S
C845 C844 1.385 . S
C845 C846 1.395 . S
C845 H873 0.929 . S
C846 C845 1.395 . S
C846 C847 1.335 . S
C847 C846 1.335 . S
C847 C848 1.398 . S
C847 H874 0.930 . S
C848 C843 1.382 . S
C848 C847 1.398 . S
C848 H875 0.929 . S
C849 O862 1.271 . S
C849 O863 1.251 . S
C850 O864 1.252 . S
C850 O865 1.272 . S
C851 Sm841 2.846 . S
C851 C852 1.506 . S
C851 O866 1.261 . S
C851 O867 1.242 . S
C852 C851 1.506 . S
C852 C853 1.358 . S
C852 C857 1.382 . S
C853 C852 1.358 . S
C853 C854 1.385 1_455 S
C853 H876 0.930 . S
C854 C853 1.385 1_655 S
C854 C855 1.395 . S
C854 H877 0.929 . S
C855 C854 1.395 . S
C855 C856 1.335 . S
C856 C855 1.335 . S
C856 C857 1.398 1_655 S
C856 H878 0.930 . S
C857 C852 1.382 . S
C857 C856 1.398 1_455 S
C857 H879 0.929 . S
C858 O868 1.271 . S
C858 O869 1.251 . S
C859 O870 1.252 . S
C859 O871 1.272 . S
O860 Sm840 2.543 . S
O860 C842 1.261 . S
O861 Sm840 2.450 . S
O861 C842 1.242 . S
O862 Sm840 2.681 . S
O862 Sm841 2.386 . S
O862 C849 1.271 . S
O863 Sm840 2.464 . S
O863 C849 1.251 . S
O864 Sm840 2.396 . S
O864 C850 1.252 . S
O865 Sm841 2.408 . S
O865 C850 1.272 . S
O866 Sm841 2.543 . S
O866 C851 1.261 . S
O867 Sm841 2.450 . S
O867 C851 1.242 . S
O868 Sm840 2.386 . S
O868 Sm841 2.681 . S
O868 C858 1.271 . S
O869 Sm841 2.464 . S
O869 C858 1.251 . S
O870 Sm841 2.396 . S
O870 C859 1.252 . S
O871 Sm840 2.408 . S
O871 C859 1.272 . S
H872 C844 0.930 . S
H873 C845 0.929 . S
H874 C847 0.930 . S
H875 C848 0.929 . S
H876 C853 0.930 . S
H877 C854 0.929 . S
H878 C856 0.930 . S
H879 C857 0.929 . S
Sm880 C882 2.846 . S
Sm880 O900 2.543 . S
Sm880 O901 2.450 . S
Sm880 O902 2.681 . S
Sm880 O903 2.464 . S
Sm880 O904 2.396 . S
Sm880 O908 2.386 . S
Sm880 O911 2.408 . S
Sm881 C891 2.846 . S
Sm881 O902 2.386 . S
Sm881 O905 2.408 . S
Sm881 O906 2.543 . S
Sm881 O907 2.450 . S
Sm881 O908 2.681 . S
Sm881 O909 2.464 . S
Sm881 O910 2.396 . S
C882 Sm880 2.846 . S
C882 C883 1.506 . S
C882 O900 1.261 . S
C882 O901 1.242 . S
C883 C882 1.506 . S
C883 C884 1.358 . S
C883 C888 1.382 . S
C884 C883 1.358 . S
C884 C885 1.385 . S
C884 H912 0.930 . S
C885 C884 1.385 . S
C885 C886 1.395 . S
C885 H913 0.929 . S
C886 C885 1.395 . S
C886 C887 1.335 . S
C887 C886 1.335 . S
C887 C888 1.398 . S
C887 H914 0.930 . S
C888 C883 1.382 . S
C888 C887 1.398 . S
C888 H915 0.929 . S
C889 O902 1.271 . S
C889 O903 1.251 . S
C890 O904 1.252 . S
C890 O905 1.272 . S
C891 Sm881 2.846 . S
C891 C892 1.506 . S
C891 O906 1.261 . S
C891 O907 1.242 . S
C892 C891 1.506 . S
C892 C893 1.358 . S
C892 C897 1.382 . S
C893 C892 1.358 . S
C893 C894 1.385 . S
C893 H916 0.930 . S
C894 C893 1.385 . S
C894 C895 1.395 . S
C894 H917 0.929 . S
C895 C894 1.395 . S
C895 C896 1.335 . S
C896 C895 1.335 . S
C896 C897 1.398 . S
C896 H918 0.930 . S
C897 C892 1.382 . S
C897 C896 1.398 . S
C897 H919 0.929 . S
C898 O908 1.271 . S
C898 O909 1.251 . S
C899 O910 1.252 . S
C899 O911 1.272 . S
O900 Sm880 2.543 . S
O900 C882 1.261 . S
O901 Sm880 2.450 . S
O901 C882 1.242 . S
O902 Sm880 2.681 . S
O902 Sm881 2.386 . S
O902 C889 1.271 . S
O903 Sm880 2.464 . S
O903 C889 1.251 . S
O904 Sm880 2.396 . S
O904 C890 1.252 . S
O905 Sm881 2.408 . S
O905 C890 1.272 . S
O906 Sm881 2.543 . S
O906 C891 1.261 . S
O907 Sm881 2.450 . S
O907 C891 1.242 . S
O908 Sm880 2.386 . S
O908 Sm881 2.681 . S
O908 C898 1.271 . S
O909 Sm881 2.464 . S
O909 C898 1.251 . S
O910 Sm881 2.396 . S
O910 C899 1.252 . S
O911 Sm880 2.408 . S
O911 C899 1.272 . S
H912 C884 0.930 . S
H913 C885 0.929 . S
H914 C887 0.930 . S
H915 C888 0.929 . S
H916 C893 0.930 . S
H917 C894 0.929 . S
H918 C896 0.930 . S
H919 C897 0.929 . S
Sm920 C922 2.846 . S
Sm920 O940 2.543 . S
Sm920 O941 2.450 . S
Sm920 O942 2.681 . S
Sm920 O943 2.464 . S
Sm920 O944 2.396 . S
Sm920 O948 2.386 . S
Sm920 O951 2.408 . S
Sm921 C931 2.846 . S
Sm921 O942 2.386 . S
Sm921 O945 2.408 . S
Sm921 O946 2.543 . S
Sm921 O947 2.450 . S
Sm921 O948 2.681 . S
Sm921 O949 2.464 . S
Sm921 O950 2.396 . S
C922 Sm920 2.846 . S
C922 C923 1.506 . S
C922 O940 1.261 . S
C922 O941 1.242 . S
C923 C922 1.506 . S
C923 C924 1.358 . S
C923 C928 1.382 . S
C924 C923 1.358 . S
C924 C925 1.385 . S
C924 H952 0.930 . S
C925 C924 1.385 . S
C925 C926 1.395 . S
C925 H953 0.929 . S
C926 C925 1.395 . S
C926 C927 1.335 . S
C927 C926 1.335 . S
C927 C928 1.398 . S
C927 H954 0.930 . S
C928 C923 1.382 . S
C928 C927 1.398 . S
C928 H955 0.929 . S
C929 O942 1.271 . S
C929 O943 1.251 . S
C930 O944 1.252 . S
C930 O945 1.272 . S
C931 Sm921 2.846 . S
C931 C932 1.506 . S
C931 O946 1.261 . S
C931 O947 1.242 . S
C932 C931 1.506 . S
C932 C933 1.358 . S
C932 C937 1.382 . S
C933 C932 1.358 . S
C933 C934 1.385 1_455 S
C933 H956 0.930 . S
C934 C933 1.385 1_655 S
C934 C935 1.395 . S
C934 H957 0.929 . S
C935 C934 1.395 . S
C935 C936 1.335 . S
C936 C935 1.335 . S
C936 C937 1.398 1_655 S
C936 H958 0.930 . S
C937 C932 1.382 . S
C937 C936 1.398 1_455 S
C937 H959 0.929 . S
C938 O948 1.271 . S
C938 O949 1.251 . S
C939 O950 1.252 . S
C939 O951 1.272 . S
O940 Sm920 2.543 . S
O940 C922 1.261 . S
O941 Sm920 2.450 . S
O941 C922 1.242 . S
O942 Sm920 2.681 . S
O942 Sm921 2.386 . S
O942 C929 1.271 . S
O943 Sm920 2.464 . S
O943 C929 1.251 . S
O944 Sm920 2.396 . S
O944 C930 1.252 . S
O945 Sm921 2.408 . S
O945 C930 1.272 . S
O946 Sm921 2.543 . S
O946 C931 1.261 . S
O947 Sm921 2.450 . S
O947 C931 1.242 . S
O948 Sm920 2.386 . S
O948 Sm921 2.681 . S
O948 C938 1.271 . S
O949 Sm921 2.464 . S
O949 C938 1.251 . S
O950 Sm921 2.396 . S
O950 C939 1.252 . S
O951 Sm920 2.408 . S
O951 C939 1.272 . S
H952 C924 0.930 . S
H953 C925 0.929 . S
H954 C927 0.930 . S
H955 C928 0.929 . S
H956 C933 0.930 . S
H957 C934 0.929 . S
H958 C936 0.930 . S
H959 C937 0.929 . S
Sm960 C962 2.838 1_545 S
Sm960 O980 2.543 1_545 S
Sm960 O981 2.450 . S
Sm960 O982 2.681 1_545 S
Sm960 O983 2.464 . S
Sm960 O984 2.396 1_545 S
Sm960 O988 2.386 1_545 S
Sm960 O991 2.408 . S
Sm961 C971 2.846 . S
Sm961 O982 2.386 . S
Sm961 O985 2.408 . S
Sm961 O986 2.543 . S
Sm961 O987 2.450 . S
Sm961 O988 2.681 . S
Sm961 O989 2.464 . S
Sm961 O990 2.396 1_565 S
C962 Sm960 2.838 1_565 S
C962 C963 1.515 . S
C962 O980 1.266 . S
C962 O981 1.230 1_565 S
C963 C962 1.515 . S
C963 C964 1.358 . S
C963 C968 1.382 . S
C964 C963 1.358 . S
C964 C965 1.385 . S
C964 H992 0.930 . S
C965 C964 1.385 . S
C965 C966 1.395 . S
C965 H993 0.929 . S
C966 C965 1.395 . S
C966 C967 1.335 . S
C967 C966 1.335 . S
C967 C968 1.398 . S
C967 H994 0.930 . S
C968 C963 1.382 . S
C968 C967 1.398 . S
C968 H995 0.929 1_565 S
C969 O982 1.271 . S
C969 O983 1.251 1_565 S
C970 O984 1.252 . S
C970 O985 1.272 . S
C971 Sm961 2.846 . S
C971 C972 1.506 . S
C971 O986 1.261 . S
C971 O987 1.242 . S
C972 C971 1.506 . S
C972 C973 1.358 1_565 S
C972 C977 1.382 . S
C973 C972 1.358 1_545 S
C973 C974 1.385 . S
C973 H996 0.930 . S
C974 C973 1.385 . S
C974 C975 1.395 . S
C974 H997 0.929 . S
C975 C974 1.395 . S
C975 C976 1.335 1_545 S
C976 C975 1.335 1_565 S
C976 C977 1.398 . S
C976 H998 0.930 . S
C977 C972 1.382 . S
C977 C976 1.398 . S
C977 H999 0.929 . S
C978 O988 1.271 . S
C978 O989 1.251 . S
C979 O990 1.252 . S
C979 O991 1.272 . S
O980 Sm960 2.543 1_565 S
O980 C962 1.266 . S
O981 Sm960 2.450 . S
O981 C962 1.230 1_545 S
O982 Sm960 2.681 1_565 S
O982 Sm961 2.386 . S
O982 C969 1.271 . S
O983 Sm960 2.464 . S
O983 C969 1.251 1_545 S
O984 Sm960 2.396 1_565 S
O984 C970 1.252 . S
O985 Sm961 2.408 . S
O985 C970 1.272 . S
O986 Sm961 2.543 . S
O986 C971 1.261 . S
O987 Sm961 2.450 . S
O987 C971 1.242 . S
O988 Sm960 2.386 1_565 S
O988 Sm961 2.681 . S
O988 C978 1.271 . S
O989 Sm961 2.464 . S
O989 C978 1.251 . S
O990 Sm961 2.396 1_545 S
O990 C979 1.252 . S
O991 Sm960 2.408 . S
O991 C979 1.272 . S
H992 C964 0.930 . S
H993 C965 0.929 . S
H994 C967 0.930 . S
H995 C968 0.929 1_545 S
H996 C973 0.930 . S
H997 C974 0.929 . S
H998 C976 0.930 . S
H999 C977 0.929 . S
Sm1000 C1002 2.846 . S
Sm1000 O1020 2.543 . S
Sm1000 O1021 2.450 . S
Sm1000 O1022 2.681 . S
Sm1000 O1023 2.464 . S
Sm1000 O1024 2.396 . S
Sm1000 O1028 2.386 . S
Sm1000 O1031 2.408 . S
Sm1001 C1011 2.846 . S
Sm1001 O1022 2.386 . S
Sm1001 O1025 2.408 . S
Sm1001 O1026 2.543 . S
Sm1001 O1027 2.450 . S
Sm1001 O1028 2.681 . S
Sm1001 O1029 2.464 . S
Sm1001 O1030 2.396 . S
C1002 Sm1000 2.846 . S
C1002 C1003 1.506 . S
C1002 O1020 1.261 . S
C1002 O1021 1.242 . S
C1003 C1002 1.506 . S
C1003 C1004 1.358 . S
C1003 C1008 1.382 . S
C1004 C1003 1.358 . S
C1004 C1005 1.385 1_655 S
C1004 H1032 0.930 . S
C1005 C1004 1.385 1_455 S
C1005 C1006 1.395 . S
C1005 H1033 0.929 . S
C1006 C1005 1.395 . S
C1006 C1007 1.335 . S
C1007 C1006 1.335 . S
C1007 C1008 1.398 1_455 S
C1007 H1034 0.930 . S
C1008 C1003 1.382 . S
C1008 C1007 1.398 1_655 S
C1008 H1035 0.929 . S
C1009 O1022 1.271 . S
C1009 O1023 1.251 . S
C1010 O1024 1.252 . S
C1010 O1025 1.272 . S
C1011 Sm1001 2.846 . S
C1011 C1012 1.506 . S
C1011 O1026 1.261 . S
C1011 O1027 1.242 . S
C1012 C1011 1.506 . S
C1012 C1013 1.358 . S
C1012 C1017 1.382 . S
C1013 C1012 1.358 . S
C1013 C1014 1.385 . S
C1013 H1036 0.930 . S
C1014 C1013 1.385 . S
C1014 C1015 1.395 . S
C1014 H1037 0.929 . S
C1015 C1014 1.395 . S
C1015 C1016 1.335 . S
C1016 C1015 1.335 . S
C1016 C1017 1.398 . S
C1016 H1038 0.930 . S
C1017 C1012 1.382 . S
C1017 C1016 1.398 . S
C1017 H1039 0.929 . S
C1018 O1028 1.271 . S
C1018 O1029 1.251 . S
C1019 O1030 1.252 . S
C1019 O1031 1.272 . S
O1020 Sm1000 2.543 . S
O1020 C1002 1.261 . S
O1021 Sm1000 2.450 . S
O1021 C1002 1.242 . S
O1022 Sm1000 2.681 . S
O1022 Sm1001 2.386 . S
O1022 C1009 1.271 . S
O1023 Sm1000 2.464 . S
O1023 C1009 1.251 . S
O1024 Sm1000 2.396 . S
O1024 C1010 1.252 . S
O1025 Sm1001 2.408 . S
O1025 C1010 1.272 . S
O1026 Sm1001 2.543 . S
O1026 C1011 1.261 . S
O1027 Sm1001 2.450 . S
O1027 C1011 1.242 . S
O1028 Sm1000 2.386 . S
O1028 Sm1001 2.681 . S
O1028 C1018 1.271 . S
O1029 Sm1001 2.464 . S
O1029 C1018 1.251 . S
O1030 Sm1001 2.396 . S
O1030 C1019 1.252 . S
O1031 Sm1000 2.408 . S
O1031 C1019 1.272 . S
H1032 C1004 0.930 . S
H1033 C1005 0.929 . S
H1034 C1007 0.930 . S
H1035 C1008 0.929 . S
H1036 C1013 0.930 . S
H1037 C1014 0.929 . S
H1038 C1016 0.930 . S
H1039 C1017 0.929 . S
Sm1040 C1042 2.846 . S
Sm1040 O1060 2.543 . S
Sm1040 O1061 2.450 . S
Sm1040 O1062 2.681 . S
Sm1040 O1063 2.464 . S
Sm1040 O1064 2.396 . S
Sm1040 O1068 2.386 . S
Sm1040 O1071 2.408 . S
Sm1041 C1051 2.846 . S
Sm1041 O1062 2.386 . S
Sm1041 O1065 2.408 . S
Sm1041 O1066 2.543 . S
Sm1041 O1067 2.450 . S
Sm1041 O1068 2.681 . S
Sm1041 O1069 2.464 . S
Sm1041 O1070 2.396 . S
C1042 Sm1040 2.846 . S
C1042 C1043 1.506 . S
C1042 O1060 1.261 . S
C1042 O1061 1.242 . S
C1043 C1042 1.506 . S
C1043 C1044 1.358 . S
C1043 C1048 1.382 . S
C1044 C1043 1.358 . S
C1044 C1045 1.385 . S
C1044 H1072 0.930 . S
C1045 C1044 1.385 . S
C1045 C1046 1.395 . S
C1045 H1073 0.929 . S
C1046 C1045 1.395 . S
C1046 C1047 1.335 . S
C1047 C1046 1.335 . S
C1047 C1048 1.398 . S
C1047 H1074 0.930 . S
C1048 C1043 1.382 . S
C1048 C1047 1.398 . S
C1048 H1075 0.929 . S
C1049 O1062 1.271 . S
C1049 O1063 1.251 . S
C1050 O1064 1.252 . S
C1050 O1065 1.272 . S
C1051 Sm1041 2.846 . S
C1051 C1052 1.506 . S
C1051 O1066 1.261 . S
C1051 O1067 1.242 . S
C1052 C1051 1.506 . S
C1052 C1053 1.358 . S
C1052 C1057 1.382 . S
C1053 C1052 1.358 . S
C1053 C1054 1.385 . S
C1053 H1076 0.930 . S
C1054 C1053 1.385 . S
C1054 C1055 1.395 . S
C1054 H1077 0.929 . S
C1055 C1054 1.395 . S
C1055 C1056 1.335 . S
C1056 C1055 1.335 . S
C1056 C1057 1.398 . S
C1056 H1078 0.930 . S
C1057 C1052 1.382 . S
C1057 C1056 1.398 . S
C1057 H1079 0.929 . S
C1058 O1068 1.271 . S
C1058 O1069 1.251 . S
C1059 O1070 1.252 . S
C1059 O1071 1.272 . S
O1060 Sm1040 2.543 . S
O1060 C1042 1.261 . S
O1061 Sm1040 2.450 . S
O1061 C1042 1.242 . S
O1062 Sm1040 2.681 . S
O1062 Sm1041 2.386 . S
O1062 C1049 1.271 . S
O1063 Sm1040 2.464 . S
O1063 C1049 1.251 . S
O1064 Sm1040 2.396 . S
O1064 C1050 1.252 . S
O1065 Sm1041 2.408 . S
O1065 C1050 1.272 . S
O1066 Sm1041 2.543 . S
O1066 C1051 1.261 . S
O1067 Sm1041 2.450 . S
O1067 C1051 1.242 . S
O1068 Sm1040 2.386 . S
O1068 Sm1041 2.681 . S
O1068 C1058 1.271 . S
O1069 Sm1041 2.464 . S
O1069 C1058 1.251 . S
O1070 Sm1041 2.396 . S
O1070 C1059 1.252 . S
O1071 Sm1040 2.408 . S
O1071 C1059 1.272 . S
H1072 C1044 0.930 . S
H1073 C1045 0.929 . S
H1074 C1047 0.930 . S
H1075 C1048 0.929 . S
H1076 C1053 0.930 . S
H1077 C1054 0.929 . S
H1078 C1056 0.930 . S
H1079 C1057 0.929 . S
Sm1080 C1082 2.838 1_545 S
Sm1080 O1100 2.543 1_545 S
Sm1080 O1101 2.450 . S
Sm1080 O1102 2.681 1_545 S
Sm1080 O1103 2.464 . S
Sm1080 O1104 2.396 1_545 S
Sm1080 O1108 2.386 1_545 S
Sm1080 O1111 2.408 . S
Sm1081 C1091 2.846 . S
Sm1081 O1102 2.386 . S
Sm1081 O1105 2.408 . S
Sm1081 O1106 2.543 . S
Sm1081 O1107 2.450 . S
Sm1081 O1108 2.681 . S
Sm1081 O1109 2.464 . S
Sm1081 O1110 2.396 1_565 S
C1082 Sm1080 2.838 1_565 S
C1082 C1083 1.515 . S
C1082 O1100 1.266 . S
C1082 O1101 1.230 1_565 S
C1083 C1082 1.515 . S
C1083 C1084 1.358 . S
C1083 C1088 1.382 . S
C1084 C1083 1.358 . S
C1084 C1085 1.385 1_655 S
C1084 H1112 0.930 . S
C1085 C1084 1.385 1_455 S
C1085 C1086 1.395 . S
C1085 H1113 0.929 . S
C1086 C1085 1.395 . S
C1086 C1087 1.335 . S
C1087 C1086 1.335 . S
C1087 C1088 1.398 1_455 S
C1087 H1114 0.930 . S
C1088 C1083 1.382 . S
C1088 C1087 1.398 1_655 S
C1088 H1115 0.929 1_565 S
C1089 O1102 1.271 . S
C1089 O1103 1.251 1_565 S
C1090 O1104 1.252 . S
C1090 O1105 1.272 . S
C1091 Sm1081 2.846 . S
C1091 C1092 1.506 . S
C1091 O1106 1.261 . S
C1091 O1107 1.242 . S
C1092 C1091 1.506 . S
C1092 C1093 1.358 1_565 S
C1092 C1097 1.382 . S
C1093 C1092 1.358 1_545 S
C1093 C1094 1.385 . S
C1093 H1116 0.930 . S
C1094 C1093 1.385 . S
C1094 C1095 1.395 . S
C1094 H1117 0.929 . S
C1095 C1094 1.395 . S
C1095 C1096 1.335 1_545 S
C1096 C1095 1.335 1_565 S
C1096 C1097 1.398 . S
C1096 H1118 0.930 . S
C1097 C1092 1.382 . S
C1097 C1096 1.398 . S
C1097 H1119 0.929 . S
C1098 O1108 1.271 . S
C1098 O1109 1.251 . S
C1099 O1110 1.252 . S
C1099 O1111 1.272 . S
O1100 Sm1080 2.543 1_565 S
O1100 C1082 1.266 . S
O1101 Sm1080 2.450 . S
O1101 C1082 1.230 1_545 S
O1102 Sm1080 2.681 1_565 S
O1102 Sm1081 2.386 . S
O1102 C1089 1.271 . S
O1103 Sm1080 2.464 . S
O1103 C1089 1.251 1_545 S
O1104 Sm1080 2.396 1_565 S
O1104 C1090 1.252 . S
O1105 Sm1081 2.408 . S
O1105 C1090 1.272 . S
O1106 Sm1081 2.543 . S
O1106 C1091 1.261 . S
O1107 Sm1081 2.450 . S
O1107 C1091 1.242 . S
O1108 Sm1080 2.386 1_565 S
O1108 Sm1081 2.681 . S
O1108 C1098 1.271 . S
O1109 Sm1081 2.464 . S
O1109 C1098 1.251 . S
O1110 Sm1081 2.396 1_545 S
O1110 C1099 1.252 . S
O1111 Sm1080 2.408 . S
O1111 C1099 1.272 . S
H1112 C1084 0.930 . S
H1113 C1085 0.929 . S
H1114 C1087 0.930 . S
H1115 C1088 0.929 1_545 S
H1116 C1093 0.930 . S
H1117 C1094 0.929 . S
H1118 C1096 0.930 . S
H1119 C1097 0.929 . S
Sm1120 C1122 2.846 . S
Sm1120 O1140 2.543 . S
Sm1120 O1141 2.450 . S
Sm1120 O1142 2.681 . S
Sm1120 O1143 2.464 . S
Sm1120 O1144 2.396 1_545 S
Sm1120 O1148 2.386 . S
Sm1120 O1151 2.408 . S
Sm1121 C1131 2.838 1_565 S
Sm1121 O1142 2.386 1_565 S
Sm1121 O1145 2.408 . S
Sm1121 O1146 2.543 1_565 S
Sm1121 O1147 2.450 . S
Sm1121 O1148 2.681 1_565 S
Sm1121 O1149 2.464 . S
Sm1121 O1150 2.396 1_565 S
C1122 Sm1120 2.846 . S
C1122 C1123 1.506 . S
C1122 O1140 1.261 . S
C1122 O1141 1.242 . S
C1123 C1122 1.506 . S
C1123 C1124 1.358 1_545 S
C1123 C1128 1.382 . S
C1124 C1123 1.358 1_565 S
C1124 C1125 1.385 . S
C1124 H1152 0.930 . S
C1125 C1124 1.385 . S
C1125 C1126 1.395 . S
C1125 H1153 0.929 . S
C1126 C1125 1.395 . S
C1126 C1127 1.335 1_565 S
C1127 C1126 1.335 1_545 S
C1127 C1128 1.398 . S
C1127 H1154 0.930 . S
C1128 C1123 1.382 . S
C1128 C1127 1.398 . S
C1128 H1155 0.929 . S
C1129 O1142 1.271 . S
C1129 O1143 1.251 . S
C1130 O1144 1.252 . S
C1130 O1145 1.272 . S
C1131 Sm1121 2.838 1_545 S
C1131 C1132 1.515 . S
C1131 O1146 1.266 . S
C1131 O1147 1.230 1_545 S
C1132 C1131 1.515 . S
C1132 C1133 1.358 . S
C1132 C1137 1.382 . S
C1133 C1132 1.358 . S
C1133 C1134 1.385 . S
C1133 H1156 0.930 . S
C1134 C1133 1.385 . S
C1134 C1135 1.395 . S
C1134 H1157 0.929 . S
C1135 C1134 1.395 . S
C1135 C1136 1.335 . S
C1136 C1135 1.335 . S
C1136 C1137 1.398 . S
C1136 H1158 0.930 . S
C1137 C1132 1.382 . S
C1137 C1136 1.398 . S
C1137 H1159 0.929 1_545 S
C1138 O1148 1.271 . S
C1138 O1149 1.251 1_545 S
C1139 O1150 1.252 . S
C1139 O1151 1.272 . S
O1140 Sm1120 2.543 . S
O1140 C1122 1.261 . S
O1141 Sm1120 2.450 . S
O1141 C1122 1.242 . S
O1142 Sm1120 2.681 . S
O1142 Sm1121 2.386 1_545 S
O1142 C1129 1.271 . S
O1143 Sm1120 2.464 . S
O1143 C1129 1.251 . S
O1144 Sm1120 2.396 1_565 S
O1144 C1130 1.252 . S
O1145 Sm1121 2.408 . S
O1145 C1130 1.272 . S
O1146 Sm1121 2.543 1_545 S
O1146 C1131 1.266 . S
O1147 Sm1121 2.450 . S
O1147 C1131 1.230 1_565 S
O1148 Sm1120 2.386 . S
O1148 Sm1121 2.681 1_545 S
O1148 C1138 1.271 . S
O1149 Sm1121 2.464 . S
O1149 C1138 1.251 1_565 S
O1150 Sm1121 2.396 1_545 S
O1150 C1139 1.252 . S
O1151 Sm1120 2.408 . S
O1151 C1139 1.272 . S
H1152 C1124 0.930 . S
H1153 C1125 0.929 . S
H1154 C1127 0.930 . S
H1155 C1128 0.929 . S
H1156 C1133 0.930 . S
H1157 C1134 0.929 . S
H1158 C1136 0.930 . S
H1159 C1137 0.929 1_565 S
Sm1160 C1162 2.846 . S
Sm1160 O1180 2.543 . S
Sm1160 O1181 2.450 . S
Sm1160 O1182 2.681 . S
Sm1160 O1183 2.464 . S
Sm1160 O1184 2.396 . S
Sm1160 O1188 2.386 . S
Sm1160 O1191 2.408 . S
Sm1161 C1171 2.846 . S
Sm1161 O1182 2.386 . S
Sm1161 O1185 2.408 . S
Sm1161 O1186 2.543 . S
Sm1161 O1187 2.450 . S
Sm1161 O1188 2.681 . S
Sm1161 O1189 2.464 . S
Sm1161 O1190 2.396 . S
C1162 Sm1160 2.846 . S
C1162 C1163 1.506 . S
C1162 O1180 1.261 . S
C1162 O1181 1.242 . S
C1163 C1162 1.506 . S
C1163 C1164 1.358 . S
C1163 C1168 1.382 . S
C1164 C1163 1.358 . S
C1164 C1165 1.385 . S
C1164 H1192 0.930 . S
C1165 C1164 1.385 . S
C1165 C1166 1.395 . S
C1165 H1193 0.929 . S
C1166 C1165 1.395 . S
C1166 C1167 1.335 . S
C1167 C1166 1.335 . S
C1167 C1168 1.398 . S
C1167 H1194 0.930 . S
C1168 C1163 1.382 . S
C1168 C1167 1.398 . S
C1168 H1195 0.929 . S
C1169 O1182 1.271 . S
C1169 O1183 1.251 . S
C1170 O1184 1.252 . S
C1170 O1185 1.272 . S
C1171 Sm1161 2.846 . S
C1171 C1172 1.506 . S
C1171 O1186 1.261 . S
C1171 O1187 1.242 . S
C1172 C1171 1.506 . S
C1172 C1173 1.358 . S
C1172 C1177 1.382 . S
C1173 C1172 1.358 . S
C1173 C1174 1.385 1_455 S
C1173 H1196 0.930 . S
C1174 C1173 1.385 1_655 S
C1174 C1175 1.395 . S
C1174 H1197 0.929 . S
C1175 C1174 1.395 . S
C1175 C1176 1.335 . S
C1176 C1175 1.335 . S
C1176 C1177 1.398 1_655 S
C1176 H1198 0.930 . S
C1177 C1172 1.382 . S
C1177 C1176 1.398 1_455 S
C1177 H1199 0.929 . S
C1178 O1188 1.271 . S
C1178 O1189 1.251 . S
C1179 O1190 1.252 . S
C1179 O1191 1.272 . S
O1180 Sm1160 2.543 . S
O1180 C1162 1.261 . S
O1181 Sm1160 2.450 . S
O1181 C1162 1.242 . S
O1182 Sm1160 2.681 . S
O1182 Sm1161 2.386 . S
O1182 C1169 1.271 . S
O1183 Sm1160 2.464 . S
O1183 C1169 1.251 . S
O1184 Sm1160 2.396 . S
O1184 C1170 1.252 . S
O1185 Sm1161 2.408 . S
O1185 C1170 1.272 . S
O1186 Sm1161 2.543 . S
O1186 C1171 1.261 . S
O1187 Sm1161 2.450 . S
O1187 C1171 1.242 . S
O1188 Sm1160 2.386 . S
O1188 Sm1161 2.681 . S
O1188 C1178 1.271 . S
O1189 Sm1161 2.464 . S
O1189 C1178 1.251 . S
O1190 Sm1161 2.396 . S
O1190 C1179 1.252 . S
O1191 Sm1160 2.408 . S
O1191 C1179 1.272 . S
H1192 C1164 0.930 . S
H1193 C1165 0.929 . S
H1194 C1167 0.930 . S
H1195 C1168 0.929 . S
H1196 C1173 0.930 . S
H1197 C1174 0.929 . S
H1198 C1176 0.930 . S
H1199 C1177 0.929 . S
Sm1200 C1202 2.846 . S
Sm1200 O1220 2.543 . S
Sm1200 O1221 2.450 . S
Sm1200 O1222 2.681 . S
Sm1200 O1223 2.464 . S
Sm1200 O1224 2.396 . S
Sm1200 O1228 2.386 . S
Sm1200 O1231 2.408 . S
Sm1201 C1211 2.846 . S
Sm1201 O1222 2.386 . S
Sm1201 O1225 2.408 . S
Sm1201 O1226 2.543 . S
Sm1201 O1227 2.450 . S
Sm1201 O1228 2.681 . S
Sm1201 O1229 2.464 . S
Sm1201 O1230 2.396 . S
C1202 Sm1200 2.846 . S
C1202 C1203 1.506 . S
C1202 O1220 1.261 . S
C1202 O1221 1.242 . S
C1203 C1202 1.506 . S
C1203 C1204 1.358 . S
C1203 C1208 1.382 . S
C1204 C1203 1.358 . S
C1204 C1205 1.385 . S
C1204 H1232 0.930 . S
C1205 C1204 1.385 . S
C1205 C1206 1.395 . S
C1205 H1233 0.929 . S
C1206 C1205 1.395 . S
C1206 C1207 1.335 . S
C1207 C1206 1.335 . S
C1207 C1208 1.398 . S
C1207 H1234 0.930 . S
C1208 C1203 1.382 . S
C1208 C1207 1.398 . S
C1208 H1235 0.929 . S
C1209 O1222 1.271 . S
C1209 O1223 1.251 . S
C1210 O1224 1.252 . S
C1210 O1225 1.272 . S
C1211 Sm1201 2.846 . S
C1211 C1212 1.506 . S
C1211 O1226 1.261 . S
C1211 O1227 1.242 . S
C1212 C1211 1.506 . S
C1212 C1213 1.358 . S
C1212 C1217 1.382 . S
C1213 C1212 1.358 . S
C1213 C1214 1.385 . S
C1213 H1236 0.930 . S
C1214 C1213 1.385 . S
C1214 C1215 1.395 . S
C1214 H1237 0.929 . S
C1215 C1214 1.395 . S
C1215 C1216 1.335 . S
C1216 C1215 1.335 . S
C1216 C1217 1.398 . S
C1216 H1238 0.930 . S
C1217 C1212 1.382 . S
C1217 C1216 1.398 . S
C1217 H1239 0.929 . S
C1218 O1228 1.271 . S
C1218 O1229 1.251 . S
C1219 O1230 1.252 . S
C1219 O1231 1.272 . S
O1220 Sm1200 2.543 . S
O1220 C1202 1.261 . S
O1221 Sm1200 2.450 . S
O1221 C1202 1.242 . S
O1222 Sm1200 2.681 . S
O1222 Sm1201 2.386 . S
O1222 C1209 1.271 . S
O1223 Sm1200 2.464 . S
O1223 C1209 1.251 . S
O1224 Sm1200 2.396 . S
O1224 C1210 1.252 . S
O1225 Sm1201 2.408 . S
O1225 C1210 1.272 . S
O1226 Sm1201 2.543 . S
O1226 C1211 1.261 . S
O1227 Sm1201 2.450 . S
O1227 C1211 1.242 . S
O1228 Sm1200 2.386 . S
O1228 Sm1201 2.681 . S
O1228 C1218 1.271 . S
O1229 Sm1201 2.464 . S
O1229 C1218 1.251 . S
O1230 Sm1201 2.396 . S
O1230 C1219 1.252 . S
O1231 Sm1200 2.408 . S
O1231 C1219 1.272 . S
H1232 C1204 0.930 . S
H1233 C1205 0.929 . S
H1234 C1207 0.930 . S
H1235 C1208 0.929 . S
H1236 C1213 0.930 . S
H1237 C1214 0.929 . S
H1238 C1216 0.930 . S
H1239 C1217 0.929 . S
Sm1240 C1242 2.846 . S
Sm1240 O1260 2.543 . S
Sm1240 O1261 2.450 . S
Sm1240 O1262 2.681 . S
Sm1240 O1263 2.464 . S
Sm1240 O1264 2.396 1_545 S
Sm1240 O1268 2.386 . S
Sm1240 O1271 2.408 . S
Sm1241 C1251 2.838 1_565 S
Sm1241 O1262 2.386 1_565 S
Sm1241 O1265 2.408 . S
Sm1241 O1266 2.543 1_565 S
Sm1241 O1267 2.450 . S
Sm1241 O1268 2.681 1_565 S
Sm1241 O1269 2.464 . S
Sm1241 O1270 2.396 1_565 S
C1242 Sm1240 2.846 . S
C1242 C1243 1.506 . S
C1242 O1260 1.261 . S
C1242 O1261 1.242 . S
C1243 C1242 1.506 . S
C1243 C1244 1.358 1_545 S
C1243 C1248 1.382 . S
C1244 C1243 1.358 1_565 S
C1244 C1245 1.385 . S
C1244 H1272 0.930 . S
C1245 C1244 1.385 . S
C1245 C1246 1.395 . S
C1245 H1273 0.929 . S
C1246 C1245 1.395 . S
C1246 C1247 1.335 1_565 S
C1247 C1246 1.335 1_545 S
C1247 C1248 1.398 . S
C1247 H1274 0.930 . S
C1248 C1243 1.382 . S
C1248 C1247 1.398 . S
C1248 H1275 0.929 . S
C1249 O1262 1.271 . S
C1249 O1263 1.251 . S
C1250 O1264 1.252 . S
C1250 O1265 1.272 . S
C1251 Sm1241 2.838 1_545 S
C1251 C1252 1.515 . S
C1251 O1266 1.266 . S
C1251 O1267 1.230 1_545 S
C1252 C1251 1.515 . S
C1252 C1253 1.358 . S
C1252 C1257 1.382 . S
C1253 C1252 1.358 . S
C1253 C1254 1.385 1_455 S
C1253 H1276 0.930 . S
C1254 C1253 1.385 1_655 S
C1254 C1255 1.395 . S
C1254 H1277 0.929 . S
C1255 C1254 1.395 . S
C1255 C1256 1.335 . S
C1256 C1255 1.335 . S
C1256 C1257 1.398 1_655 S
C1256 H1278 0.930 . S
C1257 C1252 1.382 . S
C1257 C1256 1.398 1_455 S
C1257 H1279 0.929 1_545 S
C1258 O1268 1.271 . S
C1258 O1269 1.251 1_545 S
C1259 O1270 1.252 . S
C1259 O1271 1.272 . S
O1260 Sm1240 2.543 . S
O1260 C1242 1.261 . S
O1261 Sm1240 2.450 . S
O1261 C1242 1.242 . S
O1262 Sm1240 2.681 . S
O1262 Sm1241 2.386 1_545 S
O1262 C1249 1.271 . S
O1263 Sm1240 2.464 . S
O1263 C1249 1.251 . S
O1264 Sm1240 2.396 1_565 S
O1264 C1250 1.252 . S
O1265 Sm1241 2.408 . S
O1265 C1250 1.272 . S
O1266 Sm1241 2.543 1_545 S
O1266 C1251 1.266 . S
O1267 Sm1241 2.450 . S
O1267 C1251 1.230 1_565 S
O1268 Sm1240 2.386 . S
O1268 Sm1241 2.681 1_545 S
O1268 C1258 1.271 . S
O1269 Sm1241 2.464 . S
O1269 C1258 1.251 1_565 S
O1270 Sm1241 2.396 1_545 S
O1270 C1259 1.252 . S
O1271 Sm1240 2.408 . S
O1271 C1259 1.272 . S
H1272 C1244 0.930 . S
H1273 C1245 0.929 . S
H1274 C1247 0.930 . S
H1275 C1248 0.929 . S
H1276 C1253 0.930 . S
H1277 C1254 0.929 . S
H1278 C1256 0.930 . S
H1279 C1257 0.929 1_565 S
H1280 C1286 0.930 . S
H1281 C1290 0.930 . S
H1282 C1295 0.929 . S
H1283 C1293 0.929 . S
H1284 C1288 0.929 . S
H1285 C1294 0.929 . S
C1286 H1280 0.930 . S
C1286 C1287 1.367 . S
C1286 C1294 1.378 . S
C1287 C1286 1.367 . S
C1287 C1295 1.433 . S
C1288 H1284 0.929 . S
C1288 C1290 1.378 . S
C1288 C1292 1.350 . S
C1289 C1292 1.463 . S
C1289 C1294 1.350 . S
C1289 N1297 1.427 . S
C1290 H1281 0.930 . S
C1290 C1288 1.378 . S
C1290 C1291 1.367 . S
C1291 C1290 1.367 . S
C1291 C1293 1.433 . S
C1292 C1288 1.350 . S
C1292 C1289 1.463 . S
C1292 N1296 1.427 . S
C1293 H1283 0.929 . S
C1293 C1291 1.433 . S
C1293 N1296 1.384 . S
C1294 H1285 0.929 . S
C1294 C1286 1.378 . S
C1294 C1289 1.350 . S
C1295 H1282 0.929 . S
C1295 C1287 1.433 . S
C1295 N1297 1.384 . S
N1296 C1292 1.427 . S
N1296 C1293 1.384 . S
N1297 C1289 1.427 . S
N1297 C1295 1.384 . S
H1298 C1304 0.930 . S
H1299 C1308 0.930 . S
H1300 C1313 0.929 . S
H1301 C1311 0.929 . S
H1302 C1306 0.929 . S
H1303 C1312 0.929 . S
C1304 H1298 0.930 . S
C1304 C1305 1.367 . S
C1304 C1312 1.378 . S
C1305 C1304 1.367 . S
C1305 C1313 1.433 . S
C1306 H1302 0.929 . S
C1306 C1308 1.378 . S
C1306 C1310 1.350 . S
C1307 C1310 1.463 . S
C1307 C1312 1.350 . S
C1307 N1315 1.427 . S
C1308 H1299 0.930 . S
C1308 C1306 1.378 . S
C1308 C1309 1.367 . S
C1309 C1308 1.367 . S
C1309 C1311 1.433 . S
C1310 C1306 1.350 . S
C1310 C1307 1.463 . S
C1310 N1314 1.427 . S
C1311 H1301 0.929 . S
C1311 C1309 1.433 . S
C1311 N1314 1.384 . S
C1312 H1303 0.929 . S
C1312 C1304 1.378 . S
C1312 C1307 1.350 . S
C1313 H1300 0.929 . S
C1313 C1305 1.433 . S
C1313 N1315 1.384 . S
N1314 C1310 1.427 . S
N1314 C1311 1.384 . S
N1315 C1307 1.427 . S
N1315 C1313 1.384 . S
H1316 C1322 0.930 . S
H1317 C1326 0.930 . S
H1318 C1331 0.929 . S
H1319 C1329 0.929 . S
H1320 C1324 0.929 . S
H1321 C1330 0.929 . S
C1322 H1316 0.930 . S
C1322 C1323 1.367 . S
C1322 C1330 1.378 . S
C1323 C1322 1.367 . S
C1323 C1331 1.433 . S
C1324 H1320 0.929 . S
C1324 C1326 1.378 . S
C1324 C1328 1.350 . S
C1325 C1328 1.463 . S
C1325 C1330 1.350 . S
C1325 N1333 1.427 . S
C1326 H1317 0.930 . S
C1326 C1324 1.378 . S
C1326 C1327 1.367 . S
C1327 C1326 1.367 . S
C1327 C1329 1.433 . S
C1328 C1324 1.350 . S
C1328 C1325 1.463 . S
C1328 N1332 1.427 . S
C1329 H1319 0.929 . S
C1329 C1327 1.433 . S
C1329 N1332 1.384 . S
C1330 H1321 0.929 . S
C1330 C1322 1.378 . S
C1330 C1325 1.350 . S
C1331 H1318 0.929 . S
C1331 C1323 1.433 . S
C1331 N1333 1.384 . S
N1332 C1328 1.427 . S
N1332 C1329 1.384 . S
N1333 C1325 1.427 . S
N1333 C1331 1.384 . S
H1334 C1340 0.930 . S
H1335 C1344 0.930 . S
H1336 C1349 0.929 . S
H1337 C1347 0.929 . S
H1338 C1342 0.929 . S
H1339 C1348 0.929 . S
C1340 H1334 0.930 . S
C1340 C1341 1.367 . S
C1340 C1348 1.378 . S
C1341 C1340 1.367 . S
C1341 C1349 1.433 . S
C1342 H1338 0.929 . S
C1342 C1344 1.378 . S
C1342 C1346 1.350 . S
C1343 C1346 1.463 . S
C1343 C1348 1.350 . S
C1343 N1351 1.427 . S
C1344 H1335 0.930 . S
C1344 C1342 1.378 . S
C1344 C1345 1.367 . S
C1345 C1344 1.367 . S
C1345 C1347 1.433 . S
C1346 C1342 1.350 . S
C1346 C1343 1.463 . S
C1346 N1350 1.427 . S
C1347 H1337 0.929 . S
C1347 C1345 1.433 . S
C1347 N1350 1.384 . S
C1348 H1339 0.929 . S
C1348 C1340 1.378 . S
C1348 C1343 1.350 . S
C1349 H1336 0.929 . S
C1349 C1341 1.433 . S
C1349 N1351 1.384 . S
N1350 C1346 1.427 . S
N1350 C1347 1.384 . S
N1351 C1343 1.427 . S
N1351 C1349 1.384 . S
H1352 C1358 0.930 . S
H1353 C1362 0.930 . S
H1354 C1367 0.929 . S
H1355 C1365 0.929 . S
H1356 C1360 0.929 . S
H1357 C1366 0.929 . S
C1358 H1352 0.930 . S
C1358 C1359 1.367 . S
C1358 C1366 1.378 . S
C1359 C1358 1.367 . S
C1359 C1367 1.433 . S
C1360 H1356 0.929 . S
C1360 C1362 1.378 . S
C1360 C1364 1.350 . S
C1361 C1364 1.463 . S
C1361 C1366 1.350 . S
C1361 N1369 1.427 . S
C1362 H1353 0.930 . S
C1362 C1360 1.378 . S
C1362 C1363 1.367 . S
C1363 C1362 1.367 . S
C1363 C1365 1.433 . S
C1364 C1360 1.350 . S
C1364 C1361 1.463 . S
C1364 N1368 1.427 . S
C1365 H1355 0.929 . S
C1365 C1363 1.433 . S
C1365 N1368 1.384 . S
C1366 H1357 0.929 . S
C1366 C1358 1.378 . S
C1366 C1361 1.350 . S
C1367 H1354 0.929 . S
C1367 C1359 1.433 . S
C1367 N1369 1.384 . S
N1368 C1364 1.427 . S
N1368 C1365 1.384 . S
N1369 C1361 1.427 . S
N1369 C1367 1.384 . S
H1370 C1376 0.930 . S
H1371 C1380 0.930 . S
H1372 C1385 0.929 . S
H1373 C1383 0.929 . S
H1374 C1378 0.929 . S
H1375 C1384 0.929 . S
C1376 H1370 0.930 . S
C1376 C1377 1.367 . S
C1376 C1384 1.378 . S
C1377 C1376 1.367 . S
C1377 C1385 1.433 . S
C1378 H1374 0.929 . S
C1378 C1380 1.378 . S
C1378 C1382 1.350 . S
C1379 C1382 1.463 . S
C1379 C1384 1.350 . S
C1379 N1387 1.427 . S
C1380 H1371 0.930 . S
C1380 C1378 1.378 . S
C1380 C1381 1.367 . S
C1381 C1380 1.367 . S
C1381 C1383 1.433 . S
C1382 C1378 1.350 . S
C1382 C1379 1.463 . S
C1382 N1386 1.427 . S
C1383 H1373 0.929 . S
C1383 C1381 1.433 . S
C1383 N1386 1.384 . S
C1384 H1375 0.929 . S
C1384 C1376 1.378 . S
C1384 C1379 1.350 . S
C1385 H1372 0.929 . S
C1385 C1377 1.433 . S
C1385 N1387 1.384 . S
N1386 C1382 1.427 . S
N1386 C1383 1.384 . S
N1387 C1379 1.427 . S
N1387 C1385 1.384 . S
H1388 C1394 0.930 . S
H1389 C1398 0.930 . S
H1390 C1403 0.929 . S
H1391 C1401 0.929 . S
H1392 C1396 0.929 . S
H1393 C1402 0.929 . S
C1394 H1388 0.930 . S
C1394 C1395 1.367 . S
C1394 C1402 1.378 . S
C1395 C1394 1.367 . S
C1395 C1403 1.433 . S
C1396 H1392 0.929 . S
C1396 C1398 1.378 . S
C1396 C1400 1.350 . S
C1397 C1400 1.463 . S
C1397 C1402 1.350 . S
C1397 N1405 1.427 . S
C1398 H1389 0.930 . S
C1398 C1396 1.378 . S
C1398 C1399 1.367 . S
C1399 C1398 1.367 . S
C1399 C1401 1.433 . S
C1400 C1396 1.350 . S
C1400 C1397 1.463 . S
C1400 N1404 1.427 . S
C1401 H1391 0.929 . S
C1401 C1399 1.433 . S
C1401 N1404 1.384 . S
C1402 H1393 0.929 . S
C1402 C1394 1.378 . S
C1402 C1397 1.350 . S
C1403 H1390 0.929 . S
C1403 C1395 1.433 . S
C1403 N1405 1.384 . S
N1404 C1400 1.427 . S
N1404 C1401 1.384 . S
N1405 C1397 1.427 . S
N1405 C1403 1.384 . S
H1406 C1412 0.930 . S
H1407 C1416 0.930 . S
H1408 C1421 0.929 . S
H1409 C1419 0.929 . S
H1410 C1414 0.929 . S
H1411 C1420 0.929 . S
C1412 H1406 0.930 . S
C1412 C1413 1.367 . S
C1412 C1420 1.378 . S
C1413 C1412 1.367 . S
C1413 C1421 1.433 . S
C1414 H1410 0.929 . S
C1414 C1416 1.378 . S
C1414 C1418 1.350 . S
C1415 C1418 1.463 . S
C1415 C1420 1.350 . S
C1415 N1423 1.427 . S
C1416 H1407 0.930 . S
C1416 C1414 1.378 . S
C1416 C1417 1.367 . S
C1417 C1416 1.367 . S
C1417 C1419 1.433 . S
C1418 C1414 1.350 . S
C1418 C1415 1.463 . S
C1418 N1422 1.427 . S
C1419 H1409 0.929 . S
C1419 C1417 1.433 . S
C1419 N1422 1.384 . S
C1420 H1411 0.929 . S
C1420 C1412 1.378 . S
C1420 C1415 1.350 . S
C1421 H1408 0.929 . S
C1421 C1413 1.433 . S
C1421 N1423 1.384 . S
N1422 C1418 1.427 . S
N1422 C1419 1.384 . S
N1423 C1415 1.427 . S
N1423 C1421 1.384 . S
H1424 C1430 0.930 . S
H1425 C1434 0.930 . S
H1426 C1439 0.929 . S
H1427 C1437 0.929 . S
H1428 C1432 0.929 . S
H1429 C1438 0.929 . S
C1430 H1424 0.930 . S
C1430 C1431 1.367 . S
C1430 C1438 1.378 . S
C1431 C1430 1.367 . S
C1431 C1439 1.433 . S
C1432 H1428 0.929 . S
C1432 C1434 1.378 . S
C1432 C1436 1.350 . S
C1433 C1436 1.463 . S
C1433 C1438 1.350 . S
C1433 N1441 1.427 . S
C1434 H1425 0.930 . S
C1434 C1432 1.378 . S
C1434 C1435 1.367 . S
C1435 C1434 1.367 . S
C1435 C1437 1.433 . S
C1436 C1432 1.350 . S
C1436 C1433 1.463 . S
C1436 N1440 1.427 . S
C1437 H1427 0.929 . S
C1437 C1435 1.433 . S
C1437 N1440 1.384 . S
C1438 H1429 0.929 . S
C1438 C1430 1.378 . S
C1438 C1433 1.350 . S
C1439 H1426 0.929 . S
C1439 C1431 1.433 . S
C1439 N1441 1.384 . S
N1440 C1436 1.427 . S
N1440 C1437 1.384 . S
N1441 C1433 1.427 . S
N1441 C1439 1.384 . S
H1442 C1448 0.930 . S
H1443 C1452 0.930 . S
H1444 C1457 0.929 . S
H1445 C1455 0.929 . S
H1446 C1450 0.929 . S
H1447 C1456 0.929 . S
C1448 H1442 0.930 . S
C1448 C1449 1.367 . S
C1448 C1456 1.378 . S
C1449 C1448 1.367 . S
C1449 C1457 1.433 . S
C1450 H1446 0.929 . S
C1450 C1452 1.378 . S
C1450 C1454 1.350 . S
C1451 C1454 1.463 . S
C1451 C1456 1.350 . S
C1451 N1459 1.427 . S
C1452 H1443 0.930 . S
C1452 C1450 1.378 . S
C1452 C1453 1.367 . S
C1453 C1452 1.367 . S
C1453 C1455 1.433 . S
C1454 C1450 1.350 . S
C1454 C1451 1.463 . S
C1454 N1458 1.427 . S
C1455 H1445 0.929 . S
C1455 C1453 1.433 . S
C1455 N1458 1.384 . S
C1456 H1447 0.929 . S
C1456 C1448 1.378 . S
C1456 C1451 1.350 . S
C1457 H1444 0.929 . S
C1457 C1449 1.433 . S
C1457 N1459 1.384 . S
N1458 C1454 1.427 . S
N1458 C1455 1.384 . S
N1459 C1451 1.427 . S
N1459 C1457 1.384 . S
H1460 C1466 0.930 . S
H1461 C1470 0.930 . S
H1462 C1475 0.929 . S
H1463 C1473 0.929 . S
H1464 C1468 0.929 . S
H1465 C1474 0.929 . S
C1466 H1460 0.930 . S
C1466 C1467 1.367 . S
C1466 C1474 1.378 . S
C1467 C1466 1.367 . S
C1467 C1475 1.433 . S
C1468 H1464 0.929 . S
C1468 C1470 1.378 . S
C1468 C1472 1.350 . S
C1469 C1472 1.463 . S
C1469 C1474 1.350 . S
C1469 N1477 1.427 . S
C1470 H1461 0.930 . S
C1470 C1468 1.378 . S
C1470 C1471 1.367 . S
C1471 C1470 1.367 . S
C1471 C1473 1.433 . S
C1472 C1468 1.350 . S
C1472 C1469 1.463 . S
C1472 N1476 1.427 . S
C1473 H1463 0.929 . S
C1473 C1471 1.433 . S
C1473 N1476 1.384 . S
C1474 H1465 0.929 . S
C1474 C1466 1.378 . S
C1474 C1469 1.350 . S
C1475 H1462 0.929 . S
C1475 C1467 1.433 . S
C1475 N1477 1.384 . S
N1476 C1472 1.427 . S
N1476 C1473 1.384 . S
N1477 C1469 1.427 . S
N1477 C1475 1.384 . S
H1478 C1484 0.930 . S
H1479 C1488 0.930 . S
H1480 C1493 0.929 . S
H1481 C1491 0.929 . S
H1482 C1486 0.929 . S
H1483 C1492 0.929 . S
C1484 H1478 0.930 . S
C1484 C1485 1.367 . S
C1484 C1492 1.378 . S
C1485 C1484 1.367 . S
C1485 C1493 1.433 . S
C1486 H1482 0.929 . S
C1486 C1488 1.378 . S
C1486 C1490 1.350 . S
C1487 C1490 1.463 . S
C1487 C1492 1.350 . S
C1487 N1495 1.427 . S
C1488 H1479 0.930 . S
C1488 C1486 1.378 . S
C1488 C1489 1.367 . S
C1489 C1488 1.367 . S
C1489 C1491 1.433 . S
C1490 C1486 1.350 . S
C1490 C1487 1.463 . S
C1490 N1494 1.427 . S
C1491 H1481 0.929 . S
C1491 C1489 1.433 . S
C1491 N1494 1.384 . S
C1492 H1483 0.929 . S
C1492 C1484 1.378 . S
C1492 C1487 1.350 . S
C1493 H1480 0.929 . S
C1493 C1485 1.433 . S
C1493 N1495 1.384 . S
N1494 C1490 1.427 . S
N1494 C1491 1.384 . S
N1495 C1487 1.427 . S
N1495 C1493 1.384 . S
H1496 C1502 0.930 . S
H1497 C1506 0.930 . S
H1498 C1511 0.929 . S
H1499 C1509 0.929 . S
H1500 C1504 0.929 . S
H1501 C1510 0.929 . S
C1502 H1496 0.930 . S
C1502 C1503 1.367 . S
C1502 C1510 1.378 . S
C1503 C1502 1.367 . S
C1503 C1511 1.433 . S
C1504 H1500 0.929 . S
C1504 C1506 1.378 . S
C1504 C1508 1.350 . S
C1505 C1508 1.463 . S
C1505 C1510 1.350 . S
C1505 N1513 1.427 . S
C1506 H1497 0.930 . S
C1506 C1504 1.378 . S
C1506 C1507 1.367 . S
C1507 C1506 1.367 . S
C1507 C1509 1.433 . S
C1508 C1504 1.350 . S
C1508 C1505 1.463 . S
C1508 N1512 1.427 . S
C1509 H1499 0.929 . S
C1509 C1507 1.433 . S
C1509 N1512 1.384 . S
C1510 H1501 0.929 . S
C1510 C1502 1.378 . S
C1510 C1505 1.350 . S
C1511 H1498 0.929 . S
C1511 C1503 1.433 . S
C1511 N1513 1.384 . S
N1512 C1508 1.427 . S
N1512 C1509 1.384 . S
N1513 C1505 1.427 . S
N1513 C1511 1.384 . S
H1514 C1520 0.930 . S
H1515 C1524 0.930 . S
H1516 C1529 0.929 . S
H1517 C1527 0.929 . S
H1518 C1522 0.929 . S
H1519 C1528 0.929 . S
C1520 H1514 0.930 . S
C1520 C1521 1.367 . S
C1520 C1528 1.378 . S
C1521 C1520 1.367 . S
C1521 C1529 1.433 . S
C1522 H1518 0.929 . S
C1522 C1524 1.378 . S
C1522 C1526 1.350 . S
C1523 C1526 1.463 . S
C1523 C1528 1.350 . S
C1523 N1531 1.427 . S
C1524 H1515 0.930 . S
C1524 C1522 1.378 . S
C1524 C1525 1.367 . S
C1525 C1524 1.367 . S
C1525 C1527 1.433 . S
C1526 C1522 1.350 . S
C1526 C1523 1.463 . S
C1526 N1530 1.427 . S
C1527 H1517 0.929 . S
C1527 C1525 1.433 . S
C1527 N1530 1.384 . S
C1528 H1519 0.929 . S
C1528 C1520 1.378 . S
C1528 C1523 1.350 . S
C1529 H1516 0.929 . S
C1529 C1521 1.433 . S
C1529 N1531 1.384 . S
N1530 C1526 1.427 . S
N1530 C1527 1.384 . S
N1531 C1523 1.427 . S
N1531 C1529 1.384 . S
H1532 C1538 0.930 . S
H1533 C1542 0.930 . S
H1534 C1547 0.929 . S
H1535 C1545 0.929 . S
H1536 C1540 0.929 . S
H1537 C1546 0.929 . S
C1538 H1532 0.930 . S
C1538 C1539 1.367 . S
C1538 C1546 1.378 . S
C1539 C1538 1.367 . S
C1539 C1547 1.433 . S
C1540 H1536 0.929 . S
C1540 C1542 1.378 . S
C1540 C1544 1.350 . S
C1541 C1544 1.463 . S
C1541 C1546 1.350 . S
C1541 N1549 1.427 . S
C1542 H1533 0.930 . S
C1542 C1540 1.378 . S
C1542 C1543 1.367 . S
C1543 C1542 1.367 . S
C1543 C1545 1.433 . S
C1544 C1540 1.350 . S
C1544 C1541 1.463 . S
C1544 N1548 1.427 . S
C1545 H1535 0.929 . S
C1545 C1543 1.433 . S
C1545 N1548 1.384 . S
C1546 H1537 0.929 . S
C1546 C1538 1.378 . S
C1546 C1541 1.350 . S
C1547 H1534 0.929 . S
C1547 C1539 1.433 . S
C1547 N1549 1.384 . S
N1548 C1544 1.427 . S
N1548 C1545 1.384 . S
N1549 C1541 1.427 . S
N1549 C1547 1.384 . S
H1550 C1556 0.930 . S
H1551 C1560 0.930 . S
H1552 C1565 0.929 . S
H1553 C1563 0.929 . S
H1554 C1558 0.929 . S
H1555 C1564 0.929 . S
C1556 H1550 0.930 . S
C1556 C1557 1.367 . S
C1556 C1564 1.378 . S
C1557 C1556 1.367 . S
C1557 C1565 1.433 . S
C1558 H1554 0.929 . S
C1558 C1560 1.378 . S
C1558 C1562 1.350 . S
C1559 C1562 1.463 . S
C1559 C1564 1.350 . S
C1559 N1567 1.427 . S
C1560 H1551 0.930 . S
C1560 C1558 1.378 . S
C1560 C1561 1.367 . S
C1561 C1560 1.367 . S
C1561 C1563 1.433 . S
C1562 C1558 1.350 . S
C1562 C1559 1.463 . S
C1562 N1566 1.427 . S
C1563 H1553 0.929 . S
C1563 C1561 1.433 . S
C1563 N1566 1.384 . S
C1564 H1555 0.929 . S
C1564 C1556 1.378 . S
C1564 C1559 1.350 . S
C1565 H1552 0.929 . S
C1565 C1557 1.433 . S
C1565 N1567 1.384 . S
N1566 C1562 1.427 . S
N1566 C1563 1.384 . S
N1567 C1559 1.427 . S
N1567 C1565 1.384 . S
H1568 C1574 0.930 . S
H1569 C1578 0.930 . S
H1570 C1583 0.929 . S
H1571 C1581 0.929 . S
H1572 C1576 0.929 . S
H1573 C1582 0.929 . S
C1574 H1568 0.930 . S
C1574 C1575 1.367 . S
C1574 C1582 1.378 . S
C1575 C1574 1.367 . S
C1575 C1583 1.433 . S
C1576 H1572 0.929 . S
C1576 C1578 1.378 . S
C1576 C1580 1.350 . S
C1577 C1580 1.463 . S
C1577 C1582 1.350 . S
C1577 N1585 1.427 . S
C1578 H1569 0.930 . S
C1578 C1576 1.378 . S
C1578 C1579 1.367 . S
C1579 C1578 1.367 . S
C1579 C1581 1.433 . S
C1580 C1576 1.350 . S
C1580 C1577 1.463 . S
C1580 N1584 1.427 . S
C1581 H1571 0.929 . S
C1581 C1579 1.433 . S
C1581 N1584 1.384 . S
C1582 H1573 0.929 . S
C1582 C1574 1.378 . S
C1582 C1577 1.350 . S
C1583 H1570 0.929 . S
C1583 C1575 1.433 . S
C1583 N1585 1.384 . S
N1584 C1580 1.427 . S
N1584 C1581 1.384 . S
N1585 C1577 1.427 . S
N1585 C1583 1.384 . S
H1586 C1592 0.930 . S
H1587 C1596 0.930 . S
H1588 C1601 0.929 . S
H1589 C1599 0.929 . S
H1590 C1594 0.929 . S
H1591 C1600 0.929 . S
C1592 H1586 0.930 . S
C1592 C1593 1.367 . S
C1592 C1600 1.378 . S
C1593 C1592 1.367 . S
C1593 C1601 1.433 . S
C1594 H1590 0.929 . S
C1594 C1596 1.378 . S
C1594 C1598 1.350 . S
C1595 C1598 1.463 . S
C1595 C1600 1.350 . S
C1595 N1603 1.427 . S
C1596 H1587 0.930 . S
C1596 C1594 1.378 . S
C1596 C1597 1.367 . S
C1597 C1596 1.367 . S
C1597 C1599 1.433 . S
C1598 C1594 1.350 . S
C1598 C1595 1.463 . S
C1598 N1602 1.427 . S
C1599 H1589 0.929 . S
C1599 C1597 1.433 . S
C1599 N1602 1.384 . S
C1600 H1591 0.929 . S
C1600 C1592 1.378 . S
C1600 C1595 1.350 . S
C1601 H1588 0.929 . S
C1601 C1593 1.433 . S
C1601 N1603 1.384 . S
N1602 C1598 1.427 . S
N1602 C1599 1.384 . S
N1603 C1595 1.427 . S
N1603 C1601 1.384 . S
H1604 C1610 0.930 . S
H1605 C1614 0.930 . S
H1606 C1619 0.929 . S
H1607 C1617 0.929 . S
H1608 C1612 0.929 . S
H1609 C1618 0.929 . S
C1610 H1604 0.930 . S
C1610 C1611 1.367 . S
C1610 C1618 1.378 . S
C1611 C1610 1.367 . S
C1611 C1619 1.433 . S
C1612 H1608 0.929 . S
C1612 C1614 1.378 . S
C1612 C1616 1.350 . S
C1613 C1616 1.463 . S
C1613 C1618 1.350 . S
C1613 N1621 1.427 . S
C1614 H1605 0.930 . S
C1614 C1612 1.378 . S
C1614 C1615 1.367 . S
C1615 C1614 1.367 . S
C1615 C1617 1.433 . S
C1616 C1612 1.350 . S
C1616 C1613 1.463 . S
C1616 N1620 1.427 . S
C1617 H1607 0.929 . S
C1617 C1615 1.433 . S
C1617 N1620 1.384 . S
C1618 H1609 0.929 . S
C1618 C1610 1.378 . S
C1618 C1613 1.350 . S
C1619 H1606 0.929 . S
C1619 C1611 1.433 . S
C1619 N1621 1.384 . S
N1620 C1616 1.427 . S
N1620 C1617 1.384 . S
N1621 C1613 1.427 . S
N1621 C1619 1.384 . S
H1622 C1628 0.930 . S
H1623 C1632 0.930 . S
H1624 C1637 0.929 . S
H1625 C1635 0.929 . S
H1626 C1630 0.929 . S
H1627 C1636 0.929 . S
C1628 H1622 0.930 . S
C1628 C1629 1.367 . S
C1628 C1636 1.378 . S
C1629 C1628 1.367 . S
C1629 C1637 1.433 . S
C1630 H1626 0.929 . S
C1630 C1632 1.378 . S
C1630 C1634 1.350 . S
C1631 C1634 1.463 . S
C1631 C1636 1.350 . S
C1631 N1639 1.427 . S
C1632 H1623 0.930 . S
C1632 C1630 1.378 . S
C1632 C1633 1.367 . S
C1633 C1632 1.367 . S
C1633 C1635 1.433 . S
C1634 C1630 1.350 . S
C1634 C1631 1.463 . S
C1634 N1638 1.427 . S
C1635 H1625 0.929 . S
C1635 C1633 1.433 . S
C1635 N1638 1.384 . S
C1636 H1627 0.929 . S
C1636 C1628 1.378 . S
C1636 C1631 1.350 . S
C1637 H1624 0.929 . S
C1637 C1629 1.433 . S
C1637 N1639 1.384 . S
N1638 C1634 1.427 . S
N1638 C1635 1.384 . S
N1639 C1631 1.427 . S
N1639 C1637 1.384 . S
H1640 C1646 0.930 . S
H1641 C1650 0.930 . S
H1642 C1655 0.929 . S
H1643 C1653 0.929 . S
H1644 C1648 0.929 . S
H1645 C1654 0.929 . S
C1646 H1640 0.930 . S
C1646 C1647 1.367 . S
C1646 C1654 1.378 . S
C1647 C1646 1.367 . S
C1647 C1655 1.433 1_565 S
C1648 H1644 0.929 . S
C1648 C1650 1.378 . S
C1648 C1652 1.350 1_545 S
C1649 C1652 1.463 . S
C1649 C1654 1.350 . S
C1649 N1657 1.427 1_565 S
C1650 H1641 0.930 . S
C1650 C1648 1.378 . S
C1650 C1651 1.367 1_545 S
C1651 C1650 1.367 1_565 S
C1651 C1653 1.433 . S
C1652 C1648 1.350 1_565 S
C1652 C1649 1.463 . S
C1652 N1656 1.427 . S
C1653 H1643 0.929 . S
C1653 C1651 1.433 . S
C1653 N1656 1.384 . S
C1654 H1645 0.929 . S
C1654 C1646 1.378 . S
C1654 C1649 1.350 . S
C1655 H1642 0.929 . S
C1655 C1647 1.433 1_545 S
C1655 N1657 1.384 . S
N1656 C1652 1.427 . S
N1656 C1653 1.384 . S
N1657 C1649 1.427 1_545 S
N1657 C1655 1.384 . S
H1658 C1664 0.930 . S
H1659 C1668 0.930 . S
H1660 C1673 0.929 . S
H1661 C1671 0.929 . S
H1662 C1666 0.929 . S
H1663 C1672 0.929 . S
C1664 H1658 0.930 . S
C1664 C1665 1.367 . S
C1664 C1672 1.378 . S
C1665 C1664 1.367 . S
C1665 C1673 1.433 . S
C1666 H1662 0.929 . S
C1666 C1668 1.378 . S
C1666 C1670 1.350 . S
C1667 C1670 1.463 . S
C1667 C1672 1.350 . S
C1667 N1675 1.427 . S
C1668 H1659 0.930 . S
C1668 C1666 1.378 . S
C1668 C1669 1.367 . S
C1669 C1668 1.367 . S
C1669 C1671 1.433 . S
C1670 C1666 1.350 . S
C1670 C1667 1.463 . S
C1670 N1674 1.427 . S
C1671 H1661 0.929 . S
C1671 C1669 1.433 . S
C1671 N1674 1.384 . S
C1672 H1663 0.929 . S
C1672 C1664 1.378 . S
C1672 C1667 1.350 . S
C1673 H1660 0.929 . S
C1673 C1665 1.433 . S
C1673 N1675 1.384 . S
N1674 C1670 1.427 . S
N1674 C1671 1.384 . S
N1675 C1667 1.427 . S
N1675 C1673 1.384 . S
H1676 C1682 0.930 . S
H1677 C1686 0.930 . S
H1678 C1691 0.929 . S
H1679 C1689 0.929 . S
H1680 C1684 0.929 . S
H1681 C1690 0.929 . S
C1682 H1676 0.930 . S
C1682 C1683 1.367 . S
C1682 C1690 1.378 . S
C1683 C1682 1.367 . S
C1683 C1691 1.433 1_545 S
C1684 H1680 0.929 . S
C1684 C1686 1.378 . S
C1684 C1688 1.350 1_565 S
C1685 C1688 1.463 . S
C1685 C1690 1.350 . S
C1685 N1693 1.427 1_545 S
C1686 H1677 0.930 . S
C1686 C1684 1.378 . S
C1686 C1687 1.367 1_565 S
C1687 C1686 1.367 1_545 S
C1687 C1689 1.433 . S
C1688 C1684 1.350 1_545 S
C1688 C1685 1.463 . S
C1688 N1692 1.427 . S
C1689 H1679 0.929 . S
C1689 C1687 1.433 . S
C1689 N1692 1.384 . S
C1690 H1681 0.929 . S
C1690 C1682 1.378 . S
C1690 C1685 1.350 . S
C1691 H1678 0.929 . S
C1691 C1683 1.433 1_565 S
C1691 N1693 1.384 . S
N1692 C1688 1.427 . S
N1692 C1689 1.384 . S
N1693 C1685 1.427 1_565 S
N1693 C1691 1.384 . S
H1694 C1700 0.930 . S
H1695 C1704 0.930 . S
H1696 C1709 0.929 . S
H1697 C1707 0.929 . S
H1698 C1702 0.929 . S
H1699 C1708 0.929 . S
C1700 H1694 0.930 . S
C1700 C1701 1.367 . S
C1700 C1708 1.378 . S
C1701 C1700 1.367 . S
C1701 C1709 1.433 . S
C1702 H1698 0.929 . S
C1702 C1704 1.378 . S
C1702 C1706 1.350 . S
C1703 C1706 1.463 . S
C1703 C1708 1.350 . S
C1703 N1711 1.427 . S
C1704 H1695 0.930 . S
C1704 C1702 1.378 . S
C1704 C1705 1.367 . S
C1705 C1704 1.367 . S
C1705 C1707 1.433 . S
C1706 C1702 1.350 . S
C1706 C1703 1.463 . S
C1706 N1710 1.427 . S
C1707 H1697 0.929 . S
C1707 C1705 1.433 . S
C1707 N1710 1.384 . S
C1708 H1699 0.929 . S
C1708 C1700 1.378 . S
C1708 C1703 1.350 . S
C1709 H1696 0.929 . S
C1709 C1701 1.433 . S
C1709 N1711 1.384 . S
N1710 C1706 1.427 . S
N1710 C1707 1.384 . S
N1711 C1703 1.427 . S
N1711 C1709 1.384 . S
H1712 C1718 0.930 . S
H1713 C1722 0.930 . S
H1714 C1727 0.929 . S
H1715 C1725 0.929 . S
H1716 C1720 0.929 . S
H1717 C1726 0.929 . S
C1718 H1712 0.930 . S
C1718 C1719 1.367 . S
C1718 C1726 1.378 . S
C1719 C1718 1.367 . S
C1719 C1727 1.433 . S
C1720 H1716 0.929 . S
C1720 C1722 1.378 . S
C1720 C1724 1.350 . S
C1721 C1724 1.463 . S
C1721 C1726 1.350 . S
C1721 N1729 1.427 . S
C1722 H1713 0.930 . S
C1722 C1720 1.378 . S
C1722 C1723 1.367 . S
C1723 C1722 1.367 . S
C1723 C1725 1.433 . S
C1724 C1720 1.350 . S
C1724 C1721 1.463 . S
C1724 N1728 1.427 . S
C1725 H1715 0.929 . S
C1725 C1723 1.433 . S
C1725 N1728 1.384 . S
C1726 H1717 0.929 . S
C1726 C1718 1.378 . S
C1726 C1721 1.350 . S
C1727 H1714 0.929 . S
C1727 C1719 1.433 . S
C1727 N1729 1.384 . S
N1728 C1724 1.427 . S
N1728 C1725 1.384 . S
N1729 C1721 1.427 . S
N1729 C1727 1.384 . S
H1730 C1736 0.930 . S
H1731 C1740 0.930 . S
H1732 C1745 0.929 . S
H1733 C1743 0.929 . S
H1734 C1738 0.929 . S
H1735 C1744 0.929 . S
C1736 H1730 0.930 . S
C1736 C1737 1.367 . S
C1736 C1744 1.378 . S
C1737 C1736 1.367 . S
C1737 C1745 1.433 . S
C1738 H1734 0.929 . S
C1738 C1740 1.378 . S
C1738 C1742 1.350 . S
C1739 C1742 1.463 . S
C1739 C1744 1.350 . S
C1739 N1747 1.427 . S
C1740 H1731 0.930 . S
C1740 C1738 1.378 . S
C1740 C1741 1.367 . S
C1741 C1740 1.367 . S
C1741 C1743 1.433 . S
C1742 C1738 1.350 . S
C1742 C1739 1.463 . S
C1742 N1746 1.427 . S
C1743 H1733 0.929 . S
C1743 C1741 1.433 . S
C1743 N1746 1.384 . S
C1744 H1735 0.929 . S
C1744 C1736 1.378 . S
C1744 C1739 1.350 . S
C1745 H1732 0.929 . S
C1745 C1737 1.433 . S
C1745 N1747 1.384 . S
N1746 C1742 1.427 . S
N1746 C1743 1.384 . S
N1747 C1739 1.427 . S
N1747 C1745 1.384 . S
H1748 C1754 0.930 . S
H1749 C1758 0.930 . S
H1750 C1763 0.929 . S
H1751 C1761 0.929 . S
H1752 C1756 0.929 . S
H1753 C1762 0.929 . S
C1754 H1748 0.930 . S
C1754 C1755 1.367 . S
C1754 C1762 1.378 . S
C1755 C1754 1.367 . S
C1755 C1763 1.433 . S
C1756 H1752 0.929 . S
C1756 C1758 1.378 . S
C1756 C1760 1.350 . S
C1757 C1760 1.463 . S
C1757 C1762 1.350 . S
C1757 N1765 1.427 . S
C1758 H1749 0.930 . S
C1758 C1756 1.378 . S
C1758 C1759 1.367 . S
C1759 C1758 1.367 . S
C1759 C1761 1.433 . S
C1760 C1756 1.350 . S
C1760 C1757 1.463 . S
C1760 N1764 1.427 . S
C1761 H1751 0.929 . S
C1761 C1759 1.433 . S
C1761 N1764 1.384 . S
C1762 H1753 0.929 . S
C1762 C1754 1.378 . S
C1762 C1757 1.350 . S
C1763 H1750 0.929 . S
C1763 C1755 1.433 . S
C1763 N1765 1.384 . S
N1764 C1760 1.427 . S
N1764 C1761 1.384 . S
N1765 C1757 1.427 . S
N1765 C1763 1.384 . S
H1766 C1772 0.930 . S
H1767 C1776 0.930 . S
H1768 C1781 0.929 . S
H1769 C1779 0.929 . S
H1770 C1774 0.929 . S
H1771 C1780 0.929 . S
C1772 H1766 0.930 . S
C1772 C1773 1.367 . S
C1772 C1780 1.378 . S
C1773 C1772 1.367 . S
C1773 C1781 1.433 . S
C1774 H1770 0.929 . S
C1774 C1776 1.378 . S
C1774 C1778 1.350 . S
C1775 C1778 1.463 . S
C1775 C1780 1.350 . S
C1775 N1783 1.427 . S
C1776 H1767 0.930 . S
C1776 C1774 1.378 . S
C1776 C1777 1.367 . S
C1777 C1776 1.367 . S
C1777 C1779 1.433 . S
C1778 C1774 1.350 . S
C1778 C1775 1.463 . S
C1778 N1782 1.427 . S
C1779 H1769 0.929 . S
C1779 C1777 1.433 . S
C1779 N1782 1.384 . S
C1780 H1771 0.929 . S
C1780 C1772 1.378 . S
C1780 C1775 1.350 . S
C1781 H1768 0.929 . S
C1781 C1773 1.433 . S
C1781 N1783 1.384 . S
N1782 C1778 1.427 . S
N1782 C1779 1.384 . S
N1783 C1775 1.427 . S
N1783 C1781 1.384 . S
H1784 C1790 0.930 . S
H1785 C1794 0.930 . S
H1786 C1799 0.929 . S
H1787 C1797 0.929 . S
H1788 C1792 0.929 . S
H1789 C1798 0.929 . S
C1790 H1784 0.930 . S
C1790 C1791 1.367 . S
C1790 C1798 1.378 . S
C1791 C1790 1.367 . S
C1791 C1799 1.433 . S
C1792 H1788 0.929 . S
C1792 C1794 1.378 . S
C1792 C1796 1.350 . S
C1793 C1796 1.463 . S
C1793 C1798 1.350 . S
C1793 N1801 1.427 . S
C1794 H1785 0.930 . S
C1794 C1792 1.378 . S
C1794 C1795 1.367 . S
C1795 C1794 1.367 . S
C1795 C1797 1.433 . S
C1796 C1792 1.350 . S
C1796 C1793 1.463 . S
C1796 N1800 1.427 . S
C1797 H1787 0.929 . S
C1797 C1795 1.433 . S
C1797 N1800 1.384 . S
C1798 H1789 0.929 . S
C1798 C1790 1.378 . S
C1798 C1793 1.350 . S
C1799 H1786 0.929 . S
C1799 C1791 1.433 . S
C1799 N1801 1.384 . S
N1800 C1796 1.427 . S
N1800 C1797 1.384 . S
N1801 C1793 1.427 . S
N1801 C1799 1.384 . S
H1802 C1808 0.930 . S
H1803 C1812 0.930 . S
H1804 C1817 0.929 . S
H1805 C1815 0.929 . S
H1806 C1810 0.929 . S
H1807 C1816 0.929 . S
C1808 H1802 0.930 . S
C1808 C1809 1.367 . S
C1808 C1816 1.378 . S
C1809 C1808 1.367 . S
C1809 C1817 1.433 . S
C1810 H1806 0.929 . S
C1810 C1812 1.378 . S
C1810 C1814 1.350 . S
C1811 C1814 1.463 . S
C1811 C1816 1.350 . S
C1811 N1819 1.427 . S
C1812 H1803 0.930 . S
C1812 C1810 1.378 . S
C1812 C1813 1.367 . S
C1813 C1812 1.367 . S
C1813 C1815 1.433 . S
C1814 C1810 1.350 . S
C1814 C1811 1.463 . S
C1814 N1818 1.427 . S
C1815 H1805 0.929 . S
C1815 C1813 1.433 . S
C1815 N1818 1.384 . S
C1816 H1807 0.929 . S
C1816 C1808 1.378 . S
C1816 C1811 1.350 . S
C1817 H1804 0.929 . S
C1817 C1809 1.433 . S
C1817 N1819 1.384 . S
N1818 C1814 1.427 . S
N1818 C1815 1.384 . S
N1819 C1811 1.427 . S
N1819 C1817 1.384 . S
H1820 C1826 0.930 . S
H1821 C1830 0.930 . S
H1822 C1835 0.929 . S
H1823 C1833 0.929 . S
H1824 C1828 0.929 . S
H1825 C1834 0.929 . S
C1826 H1820 0.930 . S
C1826 C1827 1.367 . S
C1826 C1834 1.378 . S
C1827 C1826 1.367 . S
C1827 C1835 1.433 1_545 S
C1828 H1824 0.929 . S
C1828 C1830 1.378 . S
C1828 C1832 1.350 1_565 S
C1829 C1832 1.463 . S
C1829 C1834 1.350 . S
C1829 N1837 1.427 1_545 S
C1830 H1821 0.930 . S
C1830 C1828 1.378 . S
C1830 C1831 1.367 1_565 S
C1831 C1830 1.367 1_545 S
C1831 C1833 1.433 . S
C1832 C1828 1.350 1_545 S
C1832 C1829 1.463 . S
C1832 N1836 1.427 . S
C1833 H1823 0.929 . S
C1833 C1831 1.433 . S
C1833 N1836 1.384 . S
C1834 H1825 0.929 . S
C1834 C1826 1.378 . S
C1834 C1829 1.350 . S
C1835 H1822 0.929 . S
C1835 C1827 1.433 1_565 S
C1835 N1837 1.384 . S
N1836 C1832 1.427 . S
N1836 C1833 1.384 . S
N1837 C1829 1.427 1_565 S
N1837 C1835 1.384 . S
H1838 C1844 0.930 . S
H1839 C1848 0.930 . S
H1840 C1853 0.929 . S
H1841 C1851 0.929 . S
H1842 C1846 0.929 . S
H1843 C1852 0.929 . S
C1844 H1838 0.930 . S
C1844 C1845 1.367 . S
C1844 C1852 1.378 . S
C1845 C1844 1.367 . S
C1845 C1853 1.433 . S
C1846 H1842 0.929 . S
C1846 C1848 1.378 . S
C1846 C1850 1.350 . S
C1847 C1850 1.463 . S
C1847 C1852 1.350 . S
C1847 N1855 1.427 . S
C1848 H1839 0.930 . S
C1848 C1846 1.378 . S
C1848 C1849 1.367 . S
C1849 C1848 1.367 . S
C1849 C1851 1.433 . S
C1850 C1846 1.350 . S
C1850 C1847 1.463 . S
C1850 N1854 1.427 . S
C1851 H1841 0.929 . S
C1851 C1849 1.433 . S
C1851 N1854 1.384 . S
C1852 H1843 0.929 . S
C1852 C1844 1.378 . S
C1852 C1847 1.350 . S
C1853 H1840 0.929 . S
C1853 C1845 1.433 . S
C1853 N1855 1.384 . S
N1854 C1850 1.427 . S
N1854 C1851 1.384 . S
N1855 C1847 1.427 . S
N1855 C1853 1.384 . S
H1856 C1862 0.930 . S
H1857 C1866 0.930 . S
H1858 C1871 0.929 . S
H1859 C1869 0.929 . S
H1860 C1864 0.929 . S
H1861 C1870 0.929 . S
C1862 H1856 0.930 . S
C1862 C1863 1.367 . S
C1862 C1870 1.378 . S
C1863 C1862 1.367 . S
C1863 C1871 1.433 . S
C1864 H1860 0.929 . S
C1864 C1866 1.378 . S
C1864 C1868 1.350 . S
C1865 C1868 1.463 . S
C1865 C1870 1.350 . S
C1865 N1873 1.427 . S
C1866 H1857 0.930 . S
C1866 C1864 1.378 . S
C1866 C1867 1.367 . S
C1867 C1866 1.367 . S
C1867 C1869 1.433 . S
C1868 C1864 1.350 . S
C1868 C1865 1.463 . S
C1868 N1872 1.427 . S
C1869 H1859 0.929 . S
C1869 C1867 1.433 . S
C1869 N1872 1.384 . S
C1870 H1861 0.929 . S
C1870 C1862 1.378 . S
C1870 C1865 1.350 . S
C1871 H1858 0.929 . S
C1871 C1863 1.433 . S
C1871 N1873 1.384 . S
N1872 C1868 1.427 . S
N1872 C1869 1.384 . S
N1873 C1865 1.427 . S
N1873 C1871 1.384 . S
H1874 C1880 0.930 . S
H1875 C1884 0.930 . S
H1876 C1889 0.929 . S
H1877 C1887 0.929 . S
H1878 C1882 0.929 . S
H1879 C1888 0.929 . S
C1880 H1874 0.930 . S
C1880 C1881 1.367 . S
C1880 C1888 1.378 . S
C1881 C1880 1.367 . S
C1881 C1889 1.433 . S
C1882 H1878 0.929 . S
C1882 C1884 1.378 . S
C1882 C1886 1.350 . S
C1883 C1886 1.463 . S
C1883 C1888 1.350 . S
C1883 N1891 1.427 . S
C1884 H1875 0.930 . S
C1884 C1882 1.378 . S
C1884 C1885 1.367 . S
C1885 C1884 1.367 . S
C1885 C1887 1.433 . S
C1886 C1882 1.350 . S
C1886 C1883 1.463 . S
C1886 N1890 1.427 . S
C1887 H1877 0.929 . S
C1887 C1885 1.433 . S
C1887 N1890 1.384 . S
C1888 H1879 0.929 . S
C1888 C1880 1.378 . S
C1888 C1883 1.350 . S
C1889 H1876 0.929 . S
C1889 C1881 1.433 . S
C1889 N1891 1.384 . S
N1890 C1886 1.427 . S
N1890 C1887 1.384 . S
N1891 C1883 1.427 . S
N1891 C1889 1.384 . S
H1892 C1898 0.930 . S
H1893 C1902 0.930 . S
H1894 C1907 0.929 . S
H1895 C1905 0.929 . S
H1896 C1900 0.929 . S
H1897 C1906 0.929 . S
C1898 H1892 0.930 . S
C1898 C1899 1.367 . S
C1898 C1906 1.378 . S
C1899 C1898 1.367 . S
C1899 C1907 1.433 . S
C1900 H1896 0.929 . S
C1900 C1902 1.378 . S
C1900 C1904 1.350 . S
C1901 C1904 1.463 . S
C1901 C1906 1.350 . S
C1901 N1909 1.427 . S
C1902 H1893 0.930 . S
C1902 C1900 1.378 . S
C1902 C1903 1.367 . S
C1903 C1902 1.367 . S
C1903 C1905 1.433 . S
C1904 C1900 1.350 . S
C1904 C1901 1.463 . S
C1904 N1908 1.427 . S
C1905 H1895 0.929 . S
C1905 C1903 1.433 . S
C1905 N1908 1.384 . S
C1906 H1897 0.929 . S
C1906 C1898 1.378 . S
C1906 C1901 1.350 . S
C1907 H1894 0.929 . S
C1907 C1899 1.433 . S
C1907 N1909 1.384 . S
N1908 C1904 1.427 . S
N1908 C1905 1.384 . S
N1909 C1901 1.427 . S
N1909 C1907 1.384 . S
H1910 C1916 0.930 . S
H1911 C1920 0.930 . S
H1912 C1925 0.929 . S
H1913 C1923 0.929 . S
H1914 C1918 0.929 . S
H1915 C1924 0.929 . S
C1916 H1910 0.930 . S
C1916 C1917 1.367 . S
C1916 C1924 1.378 . S
C1917 C1916 1.367 . S
C1917 C1925 1.433 . S
C1918 H1914 0.929 . S
C1918 C1920 1.378 . S
C1918 C1922 1.350 . S
C1919 C1922 1.463 . S
C1919 C1924 1.350 . S
C1919 N1927 1.427 . S
C1920 H1911 0.930 . S
C1920 C1918 1.378 . S
C1920 C1921 1.367 . S
C1921 C1920 1.367 . S
C1921 C1923 1.433 . S
C1922 C1918 1.350 . S
C1922 C1919 1.463 . S
C1922 N1926 1.427 . S
C1923 H1913 0.929 . S
C1923 C1921 1.433 . S
C1923 N1926 1.384 . S
C1924 H1915 0.929 . S
C1924 C1916 1.378 . S
C1924 C1919 1.350 . S
C1925 H1912 0.929 . S
C1925 C1917 1.433 . S
C1925 N1927 1.384 . S
N1926 C1922 1.427 . S
N1926 C1923 1.384 . S
N1927 C1919 1.427 . S
N1927 C1925 1.384 . S
H1928 C1934 0.930 . S
H1929 C1938 0.930 . S
H1930 C1943 0.929 . S
H1931 C1941 0.929 . S
H1932 C1936 0.929 . S
H1933 C1942 0.929 . S
C1934 H1928 0.930 . S
C1934 C1935 1.367 . S
C1934 C1942 1.378 . S
C1935 C1934 1.367 . S
C1935 C1943 1.433 . S
C1936 H1932 0.929 . S
C1936 C1938 1.378 . S
C1936 C1940 1.350 . S
C1937 C1940 1.463 . S
C1937 C1942 1.350 . S
C1937 N1945 1.427 . S
C1938 H1929 0.930 . S
C1938 C1936 1.378 . S
C1938 C1939 1.367 . S
C1939 C1938 1.367 . S
C1939 C1941 1.433 . S
C1940 C1936 1.350 . S
C1940 C1937 1.463 . S
C1940 N1944 1.427 . S
C1941 H1931 0.929 . S
C1941 C1939 1.433 . S
C1941 N1944 1.384 . S
C1942 H1933 0.929 . S
C1942 C1934 1.378 . S
C1942 C1937 1.350 . S
C1943 H1930 0.929 . S
C1943 C1935 1.433 . S
C1943 N1945 1.384 . S
N1944 C1940 1.427 . S
N1944 C1941 1.384 . S
N1945 C1937 1.427 . S
N1945 C1943 1.384 . S
H1946 C1952 0.930 . S
H1947 C1956 0.930 . S
H1948 C1961 0.929 . S
H1949 C1959 0.929 . S
H1950 C1954 0.929 . S
H1951 C1960 0.929 . S
C1952 H1946 0.930 . S
C1952 C1953 1.367 . S
C1952 C1960 1.378 . S
C1953 C1952 1.367 . S
C1953 C1961 1.433 . S
C1954 H1950 0.929 . S
C1954 C1956 1.378 . S
C1954 C1958 1.350 . S
C1955 C1958 1.463 . S
C1955 C1960 1.350 . S
C1955 N1963 1.427 . S
C1956 H1947 0.930 . S
C1956 C1954 1.378 . S
C1956 C1957 1.367 . S
C1957 C1956 1.367 . S
C1957 C1959 1.433 . S
C1958 C1954 1.350 . S
C1958 C1955 1.463 . S
C1958 N1962 1.427 . S
C1959 H1949 0.929 . S
C1959 C1957 1.433 . S
C1959 N1962 1.384 . S
C1960 H1951 0.929 . S
C1960 C1952 1.378 . S
C1960 C1955 1.350 . S
C1961 H1948 0.929 . S
C1961 C1953 1.433 . S
C1961 N1963 1.384 . S
N1962 C1958 1.427 . S
N1962 C1959 1.384 . S
N1963 C1955 1.427 . S
N1963 C1961 1.384 . S
H1964 C1970 0.930 . S
H1965 C1974 0.930 . S
H1966 C1979 0.929 . S
H1967 C1977 0.929 . S
H1968 C1972 0.929 . S
H1969 C1978 0.929 . S
C1970 H1964 0.930 . S
C1970 C1971 1.367 . S
C1970 C1978 1.378 . S
C1971 C1970 1.367 . S
C1971 C1979 1.433 . S
C1972 H1968 0.929 . S
C1972 C1974 1.378 . S
C1972 C1976 1.350 . S
C1973 C1976 1.463 . S
C1973 C1978 1.350 . S
C1973 N1981 1.427 . S
C1974 H1965 0.930 . S
C1974 C1972 1.378 . S
C1974 C1975 1.367 . S
C1975 C1974 1.367 . S
C1975 C1977 1.433 . S
C1976 C1972 1.350 . S
C1976 C1973 1.463 . S
C1976 N1980 1.427 . S
C1977 H1967 0.929 . S
C1977 C1975 1.433 . S
C1977 N1980 1.384 . S
C1978 H1969 0.929 . S
C1978 C1970 1.378 . S
C1978 C1973 1.350 . S
C1979 H1966 0.929 . S
C1979 C1971 1.433 . S
C1979 N1981 1.384 . S
N1980 C1976 1.427 . S
N1980 C1977 1.384 . S
N1981 C1973 1.427 . S
N1981 C1979 1.384 . S
H1982 C1988 0.930 . S
H1983 C1992 0.930 . S
H1984 C1997 0.929 . S
H1985 C1995 0.929 . S
H1986 C1990 0.929 . S
H1987 C1996 0.929 . S
C1988 H1982 0.930 . S
C1988 C1989 1.367 . S
C1988 C1996 1.378 . S
C1989 C1988 1.367 . S
C1989 C1997 1.433 . S
C1990 H1986 0.929 . S
C1990 C1992 1.378 . S
C1990 C1994 1.350 . S
C1991 C1994 1.463 . S
C1991 C1996 1.350 . S
C1991 N1999 1.427 . S
C1992 H1983 0.930 . S
C1992 C1990 1.378 . S
C1992 C1993 1.367 . S
C1993 C1992 1.367 . S
C1993 C1995 1.433 . S
C1994 C1990 1.350 . S
C1994 C1991 1.463 . S
C1994 N1998 1.427 . S
C1995 H1985 0.929 . S
C1995 C1993 1.433 . S
C1995 N1998 1.384 . S
C1996 H1987 0.929 . S
C1996 C1988 1.378 . S
C1996 C1991 1.350 . S
C1997 H1984 0.929 . S
C1997 C1989 1.433 . S
C1997 N1999 1.384 . S
N1998 C1994 1.427 . S
N1998 C1995 1.384 . S
N1999 C1991 1.427 . S
N1999 C1997 1.384 . S
H2000 C2006 0.930 . S
H2001 C2010 0.930 . S
H2002 C2015 0.929 . S
H2003 C2013 0.929 . S
H2004 C2008 0.929 . S
H2005 C2014 0.929 . S
C2006 H2000 0.930 . S
C2006 C2007 1.367 . S
C2006 C2014 1.378 . S
C2007 C2006 1.367 . S
C2007 C2015 1.433 . S
C2008 H2004 0.929 . S
C2008 C2010 1.378 . S
C2008 C2012 1.350 . S
C2009 C2012 1.463 . S
C2009 C2014 1.350 . S
C2009 N2017 1.427 . S
C2010 H2001 0.930 . S
C2010 C2008 1.378 . S
C2010 C2011 1.367 . S
C2011 C2010 1.367 . S
C2011 C2013 1.433 . S
C2012 C2008 1.350 . S
C2012 C2009 1.463 . S
C2012 N2016 1.427 . S
C2013 H2003 0.929 . S
C2013 C2011 1.433 . S
C2013 N2016 1.384 . S
C2014 H2005 0.929 . S
C2014 C2006 1.378 . S
C2014 C2009 1.350 . S
C2015 H2002 0.929 . S
C2015 C2007 1.433 . S
C2015 N2017 1.384 . S
N2016 C2012 1.427 . S
N2016 C2013 1.384 . S
N2017 C2009 1.427 . S
N2017 C2015 1.384 . S
H2018 C2024 0.930 . S
H2019 C2028 0.930 . S
H2020 C2033 0.929 . S
H2021 C2031 0.929 . S
H2022 C2026 0.929 . S
H2023 C2032 0.929 . S
C2024 H2018 0.930 . S
C2024 C2025 1.367 . S
C2024 C2032 1.378 . S
C2025 C2024 1.367 . S
C2025 C2033 1.433 . S
C2026 H2022 0.929 . S
C2026 C2028 1.378 . S
C2026 C2030 1.350 . S
C2027 C2030 1.463 . S
C2027 C2032 1.350 . S
C2027 N2035 1.427 . S
C2028 H2019 0.930 . S
C2028 C2026 1.378 . S
C2028 C2029 1.367 . S
C2029 C2028 1.367 . S
C2029 C2031 1.433 . S
C2030 C2026 1.350 . S
C2030 C2027 1.463 . S
C2030 N2034 1.427 . S
C2031 H2021 0.929 . S
C2031 C2029 1.433 . S
C2031 N2034 1.384 . S
C2032 H2023 0.929 . S
C2032 C2024 1.378 . S
C2032 C2027 1.350 . S
C2033 H2020 0.929 . S
C2033 C2025 1.433 . S
C2033 N2035 1.384 . S
N2034 C2030 1.427 . S
N2034 C2031 1.384 . S
N2035 C2027 1.427 . S
N2035 C2033 1.384 . S
H2036 C2042 0.930 . S
H2037 C2046 0.930 . S
H2038 C2051 0.929 . S
H2039 C2049 0.929 . S
H2040 C2044 0.929 . S
H2041 C2050 0.929 . S
C2042 H2036 0.930 . S
C2042 C2043 1.367 . S
C2042 C2050 1.378 . S
C2043 C2042 1.367 . S
C2043 C2051 1.433 . S
C2044 H2040 0.929 . S
C2044 C2046 1.378 . S
C2044 C2048 1.350 . S
C2045 C2048 1.463 . S
C2045 C2050 1.350 . S
C2045 N2053 1.427 . S
C2046 H2037 0.930 . S
C2046 C2044 1.378 . S
C2046 C2047 1.367 . S
C2047 C2046 1.367 . S
C2047 C2049 1.433 . S
C2048 C2044 1.350 . S
C2048 C2045 1.463 . S
C2048 N2052 1.427 . S
C2049 H2039 0.929 . S
C2049 C2047 1.433 . S
C2049 N2052 1.384 . S
C2050 H2041 0.929 . S
C2050 C2042 1.378 . S
C2050 C2045 1.350 . S
C2051 H2038 0.929 . S
C2051 C2043 1.433 . S
C2051 N2053 1.384 . S
N2052 C2048 1.427 . S
N2052 C2049 1.384 . S
N2053 C2045 1.427 . S
N2053 C2051 1.384 . S
H2054 C2060 0.930 . S
H2055 C2064 0.930 . S
H2056 C2069 0.929 . S
H2057 C2067 0.929 . S
H2058 C2062 0.929 . S
H2059 C2068 0.929 . S
C2060 H2054 0.930 . S
C2060 C2061 1.367 . S
C2060 C2068 1.378 . S
C2061 C2060 1.367 . S
C2061 C2069 1.433 . S
C2062 H2058 0.929 . S
C2062 C2064 1.378 . S
C2062 C2066 1.350 . S
C2063 C2066 1.463 . S
C2063 C2068 1.350 . S
C2063 N2071 1.427 . S
C2064 H2055 0.930 . S
C2064 C2062 1.378 . S
C2064 C2065 1.367 . S
C2065 C2064 1.367 . S
C2065 C2067 1.433 . S
C2066 C2062 1.350 . S
C2066 C2063 1.463 . S
C2066 N2070 1.427 . S
C2067 H2057 0.929 . S
C2067 C2065 1.433 . S
C2067 N2070 1.384 . S
C2068 H2059 0.929 . S
C2068 C2060 1.378 . S
C2068 C2063 1.350 . S
C2069 H2056 0.929 . S
C2069 C2061 1.433 . S
C2069 N2071 1.384 . S
N2070 C2066 1.427 . S
N2070 C2067 1.384 . S
N2071 C2063 1.427 . S
N2071 C2069 1.384 . S
H2072 C2078 0.930 . S
H2073 C2082 0.930 . S
H2074 C2087 0.929 . S
H2075 C2085 0.929 . S
H2076 C2080 0.929 . S
H2077 C2086 0.929 . S
C2078 H2072 0.930 . S
C2078 C2079 1.367 . S
C2078 C2086 1.378 . S
C2079 C2078 1.367 . S
C2079 C2087 1.433 . S
C2080 H2076 0.929 . S
C2080 C2082 1.378 . S
C2080 C2084 1.350 . S
C2081 C2084 1.463 . S
C2081 C2086 1.350 . S
C2081 N2089 1.427 . S
C2082 H2073 0.930 . S
C2082 C2080 1.378 . S
C2082 C2083 1.367 . S
C2083 C2082 1.367 . S
C2083 C2085 1.433 . S
C2084 C2080 1.350 . S
C2084 C2081 1.463 . S
C2084 N2088 1.427 . S
C2085 H2075 0.929 . S
C2085 C2083 1.433 . S
C2085 N2088 1.384 . S
C2086 H2077 0.929 . S
C2086 C2078 1.378 . S
C2086 C2081 1.350 . S
C2087 H2074 0.929 . S
C2087 C2079 1.433 . S
C2087 N2089 1.384 . S
N2088 C2084 1.427 . S
N2088 C2085 1.384 . S
N2089 C2081 1.427 . S
N2089 C2087 1.384 . S
H2090 C2096 0.930 . S
H2091 C2100 0.930 . S
H2092 C2105 0.929 . S
H2093 C2103 0.929 . S
H2094 C2098 0.929 . S
H2095 C2104 0.929 . S
C2096 H2090 0.930 . S
C2096 C2097 1.367 . S
C2096 C2104 1.378 . S
C2097 C2096 1.367 . S
C2097 C2105 1.433 . S
C2098 H2094 0.929 . S
C2098 C2100 1.378 . S
C2098 C2102 1.350 . S
C2099 C2102 1.463 . S
C2099 C2104 1.350 . S
C2099 N2107 1.427 . S
C2100 H2091 0.930 . S
C2100 C2098 1.378 . S
C2100 C2101 1.367 . S
C2101 C2100 1.367 . S
C2101 C2103 1.433 . S
C2102 C2098 1.350 . S
C2102 C2099 1.463 . S
C2102 N2106 1.427 . S
C2103 H2093 0.929 . S
C2103 C2101 1.433 . S
C2103 N2106 1.384 . S
C2104 H2095 0.929 . S
C2104 C2096 1.378 . S
C2104 C2099 1.350 . S
C2105 H2092 0.929 . S
C2105 C2097 1.433 . S
C2105 N2107 1.384 . S
N2106 C2102 1.427 . S
N2106 C2103 1.384 . S
N2107 C2099 1.427 . S
N2107 C2105 1.384 . S
H2108 C2114 0.930 . S
H2109 C2118 0.930 . S
H2110 C2123 0.929 . S
H2111 C2121 0.929 . S
H2112 C2116 0.929 . S
H2113 C2122 0.929 . S
C2114 H2108 0.930 . S
C2114 C2115 1.367 . S
C2114 C2122 1.378 . S
C2115 C2114 1.367 . S
C2115 C2123 1.433 . S
C2116 H2112 0.929 . S
C2116 C2118 1.378 . S
C2116 C2120 1.350 . S
C2117 C2120 1.463 . S
C2117 C2122 1.350 . S
C2117 N2125 1.427 . S
C2118 H2109 0.930 . S
C2118 C2116 1.378 . S
C2118 C2119 1.367 . S
C2119 C2118 1.367 . S
C2119 C2121 1.433 . S
C2120 C2116 1.350 . S
C2120 C2117 1.463 . S
C2120 N2124 1.427 . S
C2121 H2111 0.929 . S
C2121 C2119 1.433 . S
C2121 N2124 1.384 . S
C2122 H2113 0.929 . S
C2122 C2114 1.378 . S
C2122 C2117 1.350 . S
C2123 H2110 0.929 . S
C2123 C2115 1.433 . S
C2123 N2125 1.384 . S
N2124 C2120 1.427 . S
N2124 C2121 1.384 . S
N2125 C2117 1.427 . S
N2125 C2123 1.384 . S
H2126 C2132 0.930 . S
H2127 C2136 0.930 . S
H2128 C2141 0.929 . S
H2129 C2139 0.929 . S
H2130 C2134 0.929 . S
H2131 C2140 0.929 . S
C2132 H2126 0.930 . S
C2132 C2133 1.367 . S
C2132 C2140 1.378 . S
C2133 C2132 1.367 . S
C2133 C2141 1.433 . S
C2134 H2130 0.929 . S
C2134 C2136 1.378 . S
C2134 C2138 1.350 . S
C2135 C2138 1.463 . S
C2135 C2140 1.350 . S
C2135 N2143 1.427 . S
C2136 H2127 0.930 . S
C2136 C2134 1.378 . S
C2136 C2137 1.367 . S
C2137 C2136 1.367 . S
C2137 C2139 1.433 . S
C2138 C2134 1.350 . S
C2138 C2135 1.463 . S
C2138 N2142 1.427 . S
C2139 H2129 0.929 . S
C2139 C2137 1.433 . S
C2139 N2142 1.384 . S
C2140 H2131 0.929 . S
C2140 C2132 1.378 . S
C2140 C2135 1.350 . S
C2141 H2128 0.929 . S
C2141 C2133 1.433 . S
C2141 N2143 1.384 . S
N2142 C2138 1.427 . S
N2142 C2139 1.384 . S
N2143 C2135 1.427 . S
N2143 C2141 1.384 . S
H2144 C2150 0.930 . S
H2145 C2154 0.930 . S
H2146 C2159 0.929 . S
H2147 C2157 0.929 . S
H2148 C2152 0.929 . S
H2149 C2158 0.929 . S
C2150 H2144 0.930 . S
C2150 C2151 1.367 . S
C2150 C2158 1.378 . S
C2151 C2150 1.367 . S
C2151 C2159 1.433 . S
C2152 H2148 0.929 . S
C2152 C2154 1.378 . S
C2152 C2156 1.350 . S
C2153 C2156 1.463 . S
C2153 C2158 1.350 . S
C2153 N2161 1.427 . S
C2154 H2145 0.930 . S
C2154 C2152 1.378 . S
C2154 C2155 1.367 . S
C2155 C2154 1.367 . S
C2155 C2157 1.433 . S
C2156 C2152 1.350 . S
C2156 C2153 1.463 . S
C2156 N2160 1.427 . S
C2157 H2147 0.929 . S
C2157 C2155 1.433 . S
C2157 N2160 1.384 . S
C2158 H2149 0.929 . S
C2158 C2150 1.378 . S
C2158 C2153 1.350 . S
C2159 H2146 0.929 . S
C2159 C2151 1.433 . S
C2159 N2161 1.384 . S
N2160 C2156 1.427 . S
N2160 C2157 1.384 . S
N2161 C2153 1.427 . S
N2161 C2159 1.384 . S
H2162 C2168 0.930 . S
H2163 C2172 0.930 . S
H2164 C2177 0.929 . S
H2165 C2175 0.929 . S
H2166 C2170 0.929 . S
H2167 C2176 0.929 . S
C2168 H2162 0.930 . S
C2168 C2169 1.367 . S
C2168 C2176 1.378 . S
C2169 C2168 1.367 . S
C2169 C2177 1.433 . S
C2170 H2166 0.929 . S
C2170 C2172 1.378 . S
C2170 C2174 1.350 . S
C2171 C2174 1.463 . S
C2171 C2176 1.350 . S
C2171 N2179 1.427 . S
C2172 H2163 0.930 . S
C2172 C2170 1.378 . S
C2172 C2173 1.367 . S
C2173 C2172 1.367 . S
C2173 C2175 1.433 . S
C2174 C2170 1.350 . S
C2174 C2171 1.463 . S
C2174 N2178 1.427 . S
C2175 H2165 0.929 . S
C2175 C2173 1.433 . S
C2175 N2178 1.384 . S
C2176 H2167 0.929 . S
C2176 C2168 1.378 . S
C2176 C2171 1.350 . S
C2177 H2164 0.929 . S
C2177 C2169 1.433 . S
C2177 N2179 1.384 . S
N2178 C2174 1.427 . S
N2178 C2175 1.384 . S
N2179 C2171 1.427 . S
N2179 C2177 1.384 . S
H2180 C2186 0.930 . S
H2181 C2190 0.930 . S
H2182 C2195 0.929 . S
H2183 C2193 0.929 . S
H2184 C2188 0.929 . S
H2185 C2194 0.929 . S
C2186 H2180 0.930 . S
C2186 C2187 1.367 . S
C2186 C2194 1.378 . S
C2187 C2186 1.367 . S
C2187 C2195 1.433 . S
C2188 H2184 0.929 . S
C2188 C2190 1.378 . S
C2188 C2192 1.350 . S
C2189 C2192 1.463 . S
C2189 C2194 1.350 . S
C2189 N2197 1.427 . S
C2190 H2181 0.930 . S
C2190 C2188 1.378 . S
C2190 C2191 1.367 . S
C2191 C2190 1.367 . S
C2191 C2193 1.433 . S
C2192 C2188 1.350 . S
C2192 C2189 1.463 . S
C2192 N2196 1.427 . S
C2193 H2183 0.929 . S
C2193 C2191 1.433 . S
C2193 N2196 1.384 . S
C2194 H2185 0.929 . S
C2194 C2186 1.378 . S
C2194 C2189 1.350 . S
C2195 H2182 0.929 . S
C2195 C2187 1.433 . S
C2195 N2197 1.384 . S
N2196 C2192 1.427 . S
N2196 C2193 1.384 . S
N2197 C2189 1.427 . S
N2197 C2195 1.384 . S
H2198 C2204 0.930 . S
H2199 C2208 0.930 . S
H2200 C2213 0.929 . S
H2201 C2211 0.929 . S
H2202 C2206 0.929 . S
H2203 C2212 0.929 . S
C2204 H2198 0.930 . S
C2204 C2205 1.367 . S
C2204 C2212 1.378 . S
C2205 C2204 1.367 . S
C2205 C2213 1.433 . S
C2206 H2202 0.929 . S
C2206 C2208 1.378 . S
C2206 C2210 1.350 . S
C2207 C2210 1.463 . S
C2207 C2212 1.350 . S
C2207 N2215 1.427 . S
C2208 H2199 0.930 . S
C2208 C2206 1.378 . S
C2208 C2209 1.367 . S
C2209 C2208 1.367 . S
C2209 C2211 1.433 . S
C2210 C2206 1.350 . S
C2210 C2207 1.463 . S
C2210 N2214 1.427 . S
C2211 H2201 0.929 . S
C2211 C2209 1.433 . S
C2211 N2214 1.384 . S
C2212 H2203 0.929 . S
C2212 C2204 1.378 . S
C2212 C2207 1.350 . S
C2213 H2200 0.929 . S
C2213 C2205 1.433 . S
C2213 N2215 1.384 . S
N2214 C2210 1.427 . S
N2214 C2211 1.384 . S
N2215 C2207 1.427 . S
N2215 C2213 1.384 . S
H2216 C2222 0.930 . S
H2217 C2226 0.930 . S
H2218 C2231 0.929 . S
H2219 C2229 0.929 . S
H2220 C2224 0.929 . S
H2221 C2230 0.929 . S
C2222 H2216 0.930 . S
C2222 C2223 1.367 . S
C2222 C2230 1.378 . S
C2223 C2222 1.367 . S
C2223 C2231 1.433 . S
C2224 H2220 0.929 . S
C2224 C2226 1.378 . S
C2224 C2228 1.350 . S
C2225 C2228 1.463 . S
C2225 C2230 1.350 . S
C2225 N2233 1.427 . S
C2226 H2217 0.930 . S
C2226 C2224 1.378 . S
C2226 C2227 1.367 . S
C2227 C2226 1.367 . S
C2227 C2229 1.433 . S
C2228 C2224 1.350 . S
C2228 C2225 1.463 . S
C2228 N2232 1.427 . S
C2229 H2219 0.929 . S
C2229 C2227 1.433 . S
C2229 N2232 1.384 . S
C2230 H2221 0.929 . S
C2230 C2222 1.378 . S
C2230 C2225 1.350 . S
C2231 H2218 0.929 . S
C2231 C2223 1.433 . S
C2231 N2233 1.384 . S
N2232 C2228 1.427 . S
N2232 C2229 1.384 . S
N2233 C2225 1.427 . S
N2233 C2231 1.384 . S
H2234 C2240 0.930 . S
H2235 C2244 0.930 . S
H2236 C2249 0.929 . S
H2237 C2247 0.929 . S
H2238 C2242 0.929 . S
H2239 C2248 0.929 . S
C2240 H2234 0.930 . S
C2240 C2241 1.367 . S
C2240 C2248 1.378 . S
C2241 C2240 1.367 . S
C2241 C2249 1.433 . S
C2242 H2238 0.929 . S
C2242 C2244 1.378 . S
C2242 C2246 1.350 . S
C2243 C2246 1.463 . S
C2243 C2248 1.350 . S
C2243 N2251 1.427 . S
C2244 H2235 0.930 . S
C2244 C2242 1.378 . S
C2244 C2245 1.367 . S
C2245 C2244 1.367 . S
C2245 C2247 1.433 . S
C2246 C2242 1.350 . S
C2246 C2243 1.463 . S
C2246 N2250 1.427 . S
C2247 H2237 0.929 . S
C2247 C2245 1.433 . S
C2247 N2250 1.384 . S
C2248 H2239 0.929 . S
C2248 C2240 1.378 . S
C2248 C2243 1.350 . S
C2249 H2236 0.929 . S
C2249 C2241 1.433 . S
C2249 N2251 1.384 . S
N2250 C2246 1.427 . S
N2250 C2247 1.384 . S
N2251 C2243 1.427 . S
N2251 C2249 1.384 . S
H2252 C2258 0.930 . S
H2253 C2262 0.930 . S
H2254 C2267 0.929 . S
H2255 C2265 0.929 . S
H2256 C2260 0.929 . S
H2257 C2266 0.929 . S
C2258 H2252 0.930 . S
C2258 C2259 1.367 . S
C2258 C2266 1.378 . S
C2259 C2258 1.367 . S
C2259 C2267 1.433 . S
C2260 H2256 0.929 . S
C2260 C2262 1.378 . S
C2260 C2264 1.350 . S
C2261 C2264 1.463 . S
C2261 C2266 1.350 . S
C2261 N2269 1.427 . S
C2262 H2253 0.930 . S
C2262 C2260 1.378 . S
C2262 C2263 1.367 . S
C2263 C2262 1.367 . S
C2263 C2265 1.433 . S
C2264 C2260 1.350 . S
C2264 C2261 1.463 . S
C2264 N2268 1.427 . S
C2265 H2255 0.929 . S
C2265 C2263 1.433 . S
C2265 N2268 1.384 . S
C2266 H2257 0.929 . S
C2266 C2258 1.378 . S
C2266 C2261 1.350 . S
C2267 H2254 0.929 . S
C2267 C2259 1.433 . S
C2267 N2269 1.384 . S
N2268 C2264 1.427 . S
N2268 C2265 1.384 . S
N2269 C2261 1.427 . S
N2269 C2267 1.384 . S
H2270 C2276 0.930 . S
H2271 C2280 0.930 . S
H2272 C2285 0.929 . S
H2273 C2283 0.929 . S
H2274 C2278 0.929 . S
H2275 C2284 0.929 . S
C2276 H2270 0.930 . S
C2276 C2277 1.367 . S
C2276 C2284 1.378 . S
C2277 C2276 1.367 . S
C2277 C2285 1.433 . S
C2278 H2274 0.929 . S
C2278 C2280 1.378 . S
C2278 C2282 1.350 . S
C2279 C2282 1.463 . S
C2279 C2284 1.350 . S
C2279 N2287 1.427 . S
C2280 H2271 0.930 . S
C2280 C2278 1.378 . S
C2280 C2281 1.367 . S
C2281 C2280 1.367 . S
C2281 C2283 1.433 . S
C2282 C2278 1.350 . S
C2282 C2279 1.463 . S
C2282 N2286 1.427 . S
C2283 H2273 0.929 . S
C2283 C2281 1.433 . S
C2283 N2286 1.384 . S
C2284 H2275 0.929 . S
C2284 C2276 1.378 . S
C2284 C2279 1.350 . S
C2285 H2272 0.929 . S
C2285 C2277 1.433 . S
C2285 N2287 1.384 . S
N2286 C2282 1.427 . S
N2286 C2283 1.384 . S
N2287 C2279 1.427 . S
N2287 C2285 1.384 . S
H2288 C2294 0.930 . S
H2289 C2298 0.930 . S
H2290 C2303 0.929 . S
H2291 C2301 0.929 . S
H2292 C2296 0.929 . S
H2293 C2302 0.929 . S
C2294 H2288 0.930 . S
C2294 C2295 1.367 . S
C2294 C2302 1.378 . S
C2295 C2294 1.367 . S
C2295 C2303 1.433 1_545 S
C2296 H2292 0.929 . S
C2296 C2298 1.378 . S
C2296 C2300 1.350 . S
C2297 C2300 1.463 . S
C2297 C2302 1.350 1_565 S
C2297 N2305 1.427 . S
C2298 H2289 0.930 . S
C2298 C2296 1.378 . S
C2298 C2299 1.367 . S
C2299 C2298 1.367 . S
C2299 C2301 1.433 . S
C2300 C2296 1.350 . S
C2300 C2297 1.463 . S
C2300 N2304 1.427 . S
C2301 H2291 0.929 . S
C2301 C2299 1.433 . S
C2301 N2304 1.384 . S
C2302 H2293 0.929 . S
C2302 C2294 1.378 . S
C2302 C2297 1.350 1_545 S
C2303 H2290 0.929 . S
C2303 C2295 1.433 1_565 S
C2303 N2305 1.384 . S
N2304 C2300 1.427 . S
N2304 C2301 1.384 . S
N2305 C2297 1.427 . S
N2305 C2303 1.384 . S
H2306 C2312 0.930 . S
H2307 C2316 0.930 . S
H2308 C2321 0.929 . S
H2309 C2319 0.929 . S
H2310 C2314 0.929 . S
H2311 C2320 0.929 . S
C2312 H2306 0.930 . S
C2312 C2313 1.367 . S
C2312 C2320 1.378 . S
C2313 C2312 1.367 . S
C2313 C2321 1.433 . S
C2314 H2310 0.929 . S
C2314 C2316 1.378 . S
C2314 C2318 1.350 . S
C2315 C2318 1.463 . S
C2315 C2320 1.350 . S
C2315 N2323 1.427 . S
C2316 H2307 0.930 . S
C2316 C2314 1.378 . S
C2316 C2317 1.367 . S
C2317 C2316 1.367 . S
C2317 C2319 1.433 . S
C2318 C2314 1.350 . S
C2318 C2315 1.463 . S
C2318 N2322 1.427 . S
C2319 H2309 0.929 . S
C2319 C2317 1.433 . S
C2319 N2322 1.384 . S
C2320 H2311 0.929 . S
C2320 C2312 1.378 . S
C2320 C2315 1.350 . S
C2321 H2308 0.929 . S
C2321 C2313 1.433 . S
C2321 N2323 1.384 . S
N2322 C2318 1.427 . S
N2322 C2319 1.384 . S
N2323 C2315 1.427 . S
N2323 C2321 1.384 . S
H2324 C2330 0.930 . S
H2325 C2334 0.930 . S
H2326 C2339 0.929 . S
H2327 C2337 0.929 . S
H2328 C2332 0.929 . S
H2329 C2338 0.929 . S
C2330 H2324 0.930 . S
C2330 C2331 1.367 . S
C2330 C2338 1.378 . S
C2331 C2330 1.367 . S
C2331 C2339 1.433 . S
C2332 H2328 0.929 . S
C2332 C2334 1.378 . S
C2332 C2336 1.350 . S
C2333 C2336 1.463 . S
C2333 C2338 1.350 . S
C2333 N2341 1.427 . S
C2334 H2325 0.930 . S
C2334 C2332 1.378 . S
C2334 C2335 1.367 . S
C2335 C2334 1.367 . S
C2335 C2337 1.433 . S
C2336 C2332 1.350 . S
C2336 C2333 1.463 . S
C2336 N2340 1.427 . S
C2337 H2327 0.929 . S
C2337 C2335 1.433 . S
C2337 N2340 1.384 . S
C2338 H2329 0.929 . S
C2338 C2330 1.378 . S
C2338 C2333 1.350 . S
C2339 H2326 0.929 . S
C2339 C2331 1.433 . S
C2339 N2341 1.384 . S
N2340 C2336 1.427 . S
N2340 C2337 1.384 . S
N2341 C2333 1.427 . S
N2341 C2339 1.384 . S
H2342 C2348 0.930 . S
H2343 C2352 0.930 . S
H2344 C2357 0.929 . S
H2345 C2355 0.929 . S
H2346 C2350 0.929 . S
H2347 C2356 0.929 . S
C2348 H2342 0.930 . S
C2348 C2349 1.367 . S
C2348 C2356 1.378 1_545 S
C2349 C2348 1.367 . S
C2349 C2357 1.433 . S
C2350 H2346 0.929 . S
C2350 C2352 1.378 . S
C2350 C2354 1.350 . S
C2351 C2354 1.463 . S
C2351 C2356 1.350 . S
C2351 N2359 1.427 . S
C2352 H2343 0.930 . S
C2352 C2350 1.378 . S
C2352 C2353 1.367 . S
C2353 C2352 1.367 . S
C2353 C2355 1.433 . S
C2354 C2350 1.350 . S
C2354 C2351 1.463 . S
C2354 N2358 1.427 . S
C2355 H2345 0.929 . S
C2355 C2353 1.433 . S
C2355 N2358 1.384 . S
C2356 H2347 0.929 . S
C2356 C2348 1.378 1_565 S
C2356 C2351 1.350 . S
C2357 H2344 0.929 . S
C2357 C2349 1.433 . S
C2357 N2359 1.384 1_545 S
N2358 C2354 1.427 . S
N2358 C2355 1.384 . S
N2359 C2351 1.427 . S
N2359 C2357 1.384 1_565 S
H2360 C2366 0.930 . S
H2361 C2370 0.930 . S
H2362 C2375 0.929 . S
H2363 C2373 0.929 . S
H2364 C2368 0.929 . S
H2365 C2374 0.929 . S
C2366 H2360 0.930 . S
C2366 C2367 1.367 . S
C2366 C2374 1.378 . S
C2367 C2366 1.367 . S
C2367 C2375 1.433 1_565 S
C2368 H2364 0.929 . S
C2368 C2370 1.378 . S
C2368 C2372 1.350 . S
C2369 C2372 1.463 . S
C2369 C2374 1.350 1_545 S
C2369 N2377 1.427 . S
C2370 H2361 0.930 . S
C2370 C2368 1.378 . S
C2370 C2371 1.367 . S
C2371 C2370 1.367 . S
C2371 C2373 1.433 1_545 S
C2372 C2368 1.350 . S
C2372 C2369 1.463 . S
C2372 N2376 1.427 1_545 S
C2373 H2363 0.929 . S
C2373 C2371 1.433 1_565 S
C2373 N2376 1.384 . S
C2374 H2365 0.929 . S
C2374 C2366 1.378 . S
C2374 C2369 1.350 1_565 S
C2375 H2362 0.929 . S
C2375 C2367 1.433 1_545 S
C2375 N2377 1.384 . S
N2376 C2372 1.427 1_565 S
N2376 C2373 1.384 . S
N2377 C2369 1.427 . S
N2377 C2375 1.384 . S
H2378 C2384 0.930 . S
H2379 C2388 0.930 . S
H2380 C2393 0.929 . S
H2381 C2391 0.929 . S
H2382 C2386 0.929 . S
H2383 C2392 0.929 . S
C2384 H2378 0.930 . S
C2384 C2385 1.367 . S
C2384 C2392 1.378 . S
C2385 C2384 1.367 . S
C2385 C2393 1.433 . S
C2386 H2382 0.929 . S
C2386 C2388 1.378 . S
C2386 C2390 1.350 . S
C2387 C2390 1.463 . S
C2387 C2392 1.350 . S
C2387 N2395 1.427 . S
C2388 H2379 0.930 . S
C2388 C2386 1.378 . S
C2388 C2389 1.367 . S
C2389 C2388 1.367 . S
C2389 C2391 1.433 . S
C2390 C2386 1.350 . S
C2390 C2387 1.463 . S
C2390 N2394 1.427 . S
C2391 H2381 0.929 . S
C2391 C2389 1.433 . S
C2391 N2394 1.384 . S
C2392 H2383 0.929 . S
C2392 C2384 1.378 . S
C2392 C2387 1.350 . S
C2393 H2380 0.929 . S
C2393 C2385 1.433 . S
C2393 N2395 1.384 . S
N2394 C2390 1.427 . S
N2394 C2391 1.384 . S
N2395 C2387 1.427 . S
N2395 C2393 1.384 . S
H2396 C2402 0.930 . S
H2397 C2406 0.930 . S
H2398 C2411 0.929 . S
H2399 C2409 0.929 . S
H2400 C2404 0.929 . S
H2401 C2410 0.929 . S
C2402 H2396 0.930 . S
C2402 C2403 1.367 . S
C2402 C2410 1.378 . S
C2403 C2402 1.367 . S
C2403 C2411 1.433 . S
C2404 H2400 0.929 . S
C2404 C2406 1.378 . S
C2404 C2408 1.350 . S
C2405 C2408 1.463 . S
C2405 C2410 1.350 . S
C2405 N2413 1.427 . S
C2406 H2397 0.930 . S
C2406 C2404 1.378 . S
C2406 C2407 1.367 . S
C2407 C2406 1.367 . S
C2407 C2409 1.433 . S
C2408 C2404 1.350 . S
C2408 C2405 1.463 . S
C2408 N2412 1.427 . S
C2409 H2399 0.929 . S
C2409 C2407 1.433 . S
C2409 N2412 1.384 . S
C2410 H2401 0.929 . S
C2410 C2402 1.378 . S
C2410 C2405 1.350 . S
C2411 H2398 0.929 . S
C2411 C2403 1.433 . S
C2411 N2413 1.384 . S
N2412 C2408 1.427 . S
N2412 C2409 1.384 . S
N2413 C2405 1.427 . S
N2413 C2411 1.384 . S
H2414 C2420 0.930 . S
H2415 C2424 0.930 1_565 S
H2416 C2429 0.929 . S
H2417 C2427 0.929 . S
H2418 C2422 0.929 . S
H2419 C2428 0.929 . S
C2420 H2414 0.930 . S
C2420 C2421 1.367 1_545 S
C2420 C2428 1.378 . S
C2421 C2420 1.367 1_565 S
C2421 C2429 1.433 . S
C2422 H2418 0.929 . S
C2422 C2424 1.378 1_565 S
C2422 C2426 1.350 1_565 S
C2423 C2426 1.463 . S
C2423 C2428 1.350 . S
C2423 N2431 1.427 1_545 S
C2424 H2415 0.930 1_545 S
C2424 C2422 1.378 1_545 S
C2424 C2425 1.367 . S
C2425 C2424 1.367 . S
C2425 C2427 1.433 . S
C2426 C2422 1.350 1_545 S
C2426 C2423 1.463 . S
C2426 N2430 1.427 . S
C2427 H2417 0.929 . S
C2427 C2425 1.433 . S
C2427 N2430 1.384 . S
C2428 H2419 0.929 . S
C2428 C2420 1.378 . S
C2428 C2423 1.350 . S
C2429 H2416 0.929 . S
C2429 C2421 1.433 . S
C2429 N2431 1.384 . S
N2430 C2426 1.427 . S
N2430 C2427 1.384 . S
N2431 C2423 1.427 1_565 S
N2431 C2429 1.384 . S
H2432 C2438 0.930 . S
H2433 C2442 0.930 . S
H2434 C2447 0.929 . S
H2435 C2445 0.929 . S
H2436 C2440 0.927 . S
H2437 C2446 0.929 . S
C2438 H2432 0.930 . S
C2438 C2439 1.367 . S
C2438 C2446 1.378 . S
C2439 C2438 1.367 . S
C2439 C2447 1.433 . S
C2440 H2436 0.927 . S
C2440 C2442 1.378 . S
C2440 C2444 1.350 1_655 S
C2441 C2444 1.463 . S
C2441 C2446 1.350 . S
C2441 N2449 1.427 . S
C2442 H2433 0.930 . S
C2442 C2440 1.378 . S
C2442 C2443 1.367 . S
C2443 C2442 1.367 . S
C2443 C2445 1.433 . S
C2444 C2440 1.350 1_455 S
C2444 C2441 1.463 . S
C2444 N2448 1.427 1_455 S
C2445 H2435 0.929 . S
C2445 C2443 1.433 . S
C2445 N2448 1.384 . S
C2446 H2437 0.929 . S
C2446 C2438 1.378 . S
C2446 C2441 1.350 . S
C2447 H2434 0.929 . S
C2447 C2439 1.433 . S
C2447 N2449 1.384 . S
N2448 C2444 1.427 1_655 S
N2448 C2445 1.384 . S
N2449 C2441 1.427 . S
N2449 C2447 1.384 . S
H2450 C2456 0.930 . S
H2451 C2460 0.930 . S
H2452 C2465 0.929 . S
H2453 C2463 0.929 . S
H2454 C2458 0.929 . S
H2455 C2464 0.929 . S
C2456 H2450 0.930 . S
C2456 C2457 1.367 . S
C2456 C2464 1.378 . S
C2457 C2456 1.367 . S
C2457 C2465 1.433 . S
C2458 H2454 0.929 . S
C2458 C2460 1.378 . S
C2458 C2462 1.350 . S
C2459 C2462 1.463 . S
C2459 C2464 1.350 . S
C2459 N2467 1.427 . S
C2460 H2451 0.930 . S
C2460 C2458 1.378 . S
C2460 C2461 1.367 . S
C2461 C2460 1.367 . S
C2461 C2463 1.433 . S
C2462 C2458 1.350 . S
C2462 C2459 1.463 . S
C2462 N2466 1.427 . S
C2463 H2453 0.929 . S
C2463 C2461 1.433 . S
C2463 N2466 1.384 . S
C2464 H2455 0.929 . S
C2464 C2456 1.378 . S
C2464 C2459 1.350 . S
C2465 H2452 0.929 . S
C2465 C2457 1.433 . S
C2465 N2467 1.384 . S
N2466 C2462 1.427 . S
N2466 C2463 1.384 . S
N2467 C2459 1.427 . S
N2467 C2465 1.384 . S
H2468 C2474 0.930 . S
H2469 C2478 0.930 . S
H2470 C2483 0.929 . S
H2471 C2481 0.929 . S
H2472 C2476 0.929 . S
H2473 C2482 0.929 . S
C2474 H2468 0.930 . S
C2474 C2475 1.367 . S
C2474 C2482 1.378 . S
C2475 C2474 1.367 . S
C2475 C2483 1.433 . S
C2476 H2472 0.929 . S
C2476 C2478 1.378 . S
C2476 C2480 1.350 . S
C2477 C2480 1.463 . S
C2477 C2482 1.350 1_455 S
C2477 N2485 1.427 1_455 S
C2478 H2469 0.930 . S
C2478 C2476 1.378 . S
C2478 C2479 1.367 . S
C2479 C2478 1.367 . S
C2479 C2481 1.433 . S
C2480 C2476 1.350 . S
C2480 C2477 1.463 . S
C2480 N2484 1.427 . S
C2481 H2471 0.929 . S
C2481 C2479 1.433 . S
C2481 N2484 1.384 . S
C2482 H2473 0.929 . S
C2482 C2474 1.378 . S
C2482 C2477 1.350 1_655 S
C2483 H2470 0.929 . S
C2483 C2475 1.433 . S
C2483 N2485 1.384 . S
N2484 C2480 1.427 . S
N2484 C2481 1.384 . S
N2485 C2477 1.427 1_655 S
N2485 C2483 1.384 . S
H2486 C2492 0.930 . S
H2487 C2496 0.930 . S
H2488 C2501 0.929 . S
H2489 C2499 0.929 . S
H2490 C2494 0.929 . S
H2491 C2500 0.929 . S
C2492 H2486 0.930 . S
C2492 C2493 1.367 . S
C2492 C2500 1.378 . S
C2493 C2492 1.367 . S
C2493 C2501 1.433 . S
C2494 H2490 0.929 . S
C2494 C2496 1.378 . S
C2494 C2498 1.350 . S
C2495 C2498 1.463 . S
C2495 C2500 1.350 . S
C2495 N2503 1.427 . S
C2496 H2487 0.930 . S
C2496 C2494 1.378 . S
C2496 C2497 1.367 . S
C2497 C2496 1.367 . S
C2497 C2499 1.433 . S
C2498 C2494 1.350 . S
C2498 C2495 1.463 . S
C2498 N2502 1.427 . S
C2499 H2489 0.929 . S
C2499 C2497 1.433 . S
C2499 N2502 1.384 . S
C2500 H2491 0.929 . S
C2500 C2492 1.378 . S
C2500 C2495 1.350 . S
C2501 H2488 0.929 . S
C2501 C2493 1.433 . S
C2501 N2503 1.384 . S
N2502 C2498 1.427 . S
N2502 C2499 1.384 . S
N2503 C2495 1.427 . S
N2503 C2501 1.384 . S
H2504 C2510 0.930 . S
H2505 C2514 0.930 . S
H2506 C2519 0.929 . S
H2507 C2517 0.929 . S
H2508 C2512 0.929 1_655 S
H2509 C2518 0.929 . S
C2510 H2504 0.930 . S
C2510 C2511 1.367 . S
C2510 C2518 1.378 . S
C2511 C2510 1.367 . S
C2511 C2519 1.433 . S
C2512 H2508 0.929 1_455 S
C2512 C2514 1.378 . S
C2512 C2516 1.350 1_455 S
C2513 C2516 1.463 . S
C2513 C2518 1.350 . S
C2513 N2521 1.427 . S
C2514 H2505 0.930 . S
C2514 C2512 1.378 . S
C2514 C2515 1.367 . S
C2515 C2514 1.367 . S
C2515 C2517 1.433 . S
C2516 C2512 1.350 1_655 S
C2516 C2513 1.463 . S
C2516 N2520 1.427 1_655 S
C2517 H2507 0.929 . S
C2517 C2515 1.433 . S
C2517 N2520 1.384 . S
C2518 H2509 0.929 . S
C2518 C2510 1.378 . S
C2518 C2513 1.350 . S
C2519 H2506 0.929 . S
C2519 C2511 1.433 . S
C2519 N2521 1.384 . S
N2520 C2516 1.427 1_455 S
N2520 C2517 1.384 . S
N2521 C2513 1.427 . S
N2521 C2519 1.384 . S
H2522 C2528 0.930 . S
H2523 C2532 0.930 . S
H2524 C2537 0.929 . S
H2525 C2535 0.929 . S
H2526 C2530 0.929 . S
H2527 C2536 0.929 . S
C2528 H2522 0.930 . S
C2528 C2529 1.367 . S
C2528 C2536 1.378 . S
C2529 C2528 1.367 . S
C2529 C2537 1.433 . S
C2530 H2526 0.929 . S
C2530 C2532 1.378 . S
C2530 C2534 1.350 . S
C2531 C2534 1.463 . S
C2531 C2536 1.350 . S
C2531 N2539 1.427 . S
C2532 H2523 0.930 . S
C2532 C2530 1.378 . S
C2532 C2533 1.367 . S
C2533 C2532 1.367 . S
C2533 C2535 1.433 . S
C2534 C2530 1.350 . S
C2534 C2531 1.463 . S
C2534 N2538 1.427 . S
C2535 H2525 0.929 . S
C2535 C2533 1.433 . S
C2535 N2538 1.384 . S
C2536 H2527 0.929 . S
C2536 C2528 1.378 . S
C2536 C2531 1.350 . S
C2537 H2524 0.929 . S
C2537 C2529 1.433 . S
C2537 N2539 1.384 . S
N2538 C2534 1.427 . S
N2538 C2535 1.384 . S
N2539 C2531 1.427 . S
N2539 C2537 1.384 . S
H2540 C2546 0.930 . S
H2541 C2550 0.930 . S
H2542 C2555 0.929 . S
H2543 C2553 0.929 . S
H2544 C2548 0.929 . S
H2545 C2554 0.929 . S
C2546 H2540 0.930 . S
C2546 C2547 1.367 . S
C2546 C2554 1.378 . S
C2547 C2546 1.367 . S
C2547 C2555 1.433 . S
C2548 H2544 0.929 . S
C2548 C2550 1.378 . S
C2548 C2552 1.350 . S
C2549 C2552 1.463 . S
C2549 C2554 1.350 1_655 S
C2549 N2557 1.427 1_655 S
C2550 H2541 0.930 . S
C2550 C2548 1.378 . S
C2550 C2551 1.367 . S
C2551 C2550 1.367 . S
C2551 C2553 1.433 . S
C2552 C2548 1.350 . S
C2552 C2549 1.463 . S
C2552 N2556 1.427 . S
C2553 H2543 0.929 . S
C2553 C2551 1.433 . S
C2553 N2556 1.384 . S
C2554 H2545 0.929 . S
C2554 C2546 1.378 . S
C2554 C2549 1.350 1_455 S
C2555 H2542 0.929 . S
C2555 C2547 1.433 . S
C2555 N2557 1.384 . S
N2556 C2552 1.427 . S
N2556 C2553 1.384 . S
N2557 C2549 1.427 1_455 S
N2557 C2555 1.384 . S
H2558 C2564 0.930 . S
H2559 C2568 0.930 . S
H2560 C2573 0.929 . S
H2561 C2571 0.929 . S
H2562 C2566 0.929 . S
H2563 C2572 0.929 . S
C2564 H2558 0.930 . S
C2564 C2565 1.367 . S
C2564 C2572 1.378 . S
C2565 C2564 1.367 . S
C2565 C2573 1.433 . S
C2566 H2562 0.929 . S
C2566 C2568 1.378 . S
C2566 C2570 1.350 . S
C2567 C2570 1.463 . S
C2567 C2572 1.350 . S
C2567 N2575 1.427 . S
C2568 H2559 0.930 . S
C2568 C2566 1.378 . S
C2568 C2569 1.367 . S
C2569 C2568 1.367 . S
C2569 C2571 1.433 . S
C2570 C2566 1.350 . S
C2570 C2567 1.463 . S
C2570 N2574 1.427 . S
C2571 H2561 0.929 . S
C2571 C2569 1.433 . S
C2571 N2574 1.384 . S
C2572 H2563 0.929 . S
C2572 C2564 1.378 . S
C2572 C2567 1.350 . S
C2573 H2560 0.929 . S
C2573 C2565 1.433 . S
C2573 N2575 1.384 . S
N2574 C2570 1.427 . S
N2574 C2571 1.384 . S
N2575 C2567 1.427 . S
N2575 C2573 1.384 . S
H2576 C2582 0.930 . S
H2577 C2586 0.930 . S
H2578 C2591 0.929 . S
H2579 C2589 0.929 . S
H2580 C2584 0.929 . S
H2581 C2590 0.929 . S
C2582 H2576 0.930 . S
C2582 C2583 1.367 1_565 S
C2582 C2590 1.378 . S
C2583 C2582 1.367 1_545 S
C2583 C2591 1.433 . S
C2584 H2580 0.929 . S
C2584 C2586 1.378 . S
C2584 C2588 1.350 1_545 S
C2585 C2588 1.463 . S
C2585 C2590 1.350 1_455 S
C2585 N2593 1.427 1_465 S
C2586 H2577 0.930 . S
C2586 C2584 1.378 . S
C2586 C2587 1.368 1_545 S
C2587 C2586 1.368 1_565 S
C2587 C2589 1.433 . S
C2588 C2584 1.350 1_565 S
C2588 C2585 1.463 . S
C2588 N2592 1.427 . S
C2589 H2579 0.929 . S
C2589 C2587 1.433 . S
C2589 N2592 1.384 . S
C2590 H2581 0.929 . S
C2590 C2582 1.378 . S
C2590 C2585 1.350 1_655 S
C2591 H2578 0.929 . S
C2591 C2583 1.433 . S
C2591 N2593 1.384 . S
N2592 C2588 1.427 . S
N2592 C2589 1.384 . S
N2593 C2585 1.427 1_645 S
N2593 C2591 1.384 . S
H2594 C2600 0.930 . S
H2595 C2604 0.930 . S
H2596 C2609 0.929 . S
H2597 C2607 0.929 . S
H2598 C2602 0.929 . S
H2599 C2608 0.929 . S
C2600 H2594 0.930 . S
C2600 C2601 1.367 . S
C2600 C2608 1.378 . S
C2601 C2600 1.367 . S
C2601 C2609 1.433 . S
C2602 H2598 0.929 . S
C2602 C2604 1.378 . S
C2602 C2606 1.350 . S
C2603 C2606 1.463 . S
C2603 C2608 1.350 . S
C2603 N2611 1.427 . S
C2604 H2595 0.930 . S
C2604 C2602 1.378 . S
C2604 C2605 1.367 . S
C2605 C2604 1.367 . S
C2605 C2607 1.433 . S
C2606 C2602 1.350 . S
C2606 C2603 1.463 . S
C2606 N2610 1.427 . S
C2607 H2597 0.929 . S
C2607 C2605 1.433 . S
C2607 N2610 1.384 . S
C2608 H2599 0.929 . S
C2608 C2600 1.378 . S
C2608 C2603 1.350 . S
C2609 H2596 0.929 . S
C2609 C2601 1.433 . S
C2609 N2611 1.384 . S
N2610 C2606 1.427 . S
N2610 C2607 1.384 . S
N2611 C2603 1.427 . S
N2611 C2609 1.384 . S
H2612 C2618 0.930 . S
H2613 C2622 0.930 . S
H2614 C2627 0.929 . S
H2615 C2625 0.929 . S
H2616 C2620 0.929 . S
H2617 C2626 0.929 . S
C2618 H2612 0.930 . S
C2618 C2619 1.367 . S
C2618 C2626 1.378 . S
C2619 C2618 1.367 . S
C2619 C2627 1.433 . S
C2620 H2616 0.929 . S
C2620 C2622 1.378 . S
C2620 C2624 1.350 . S
C2621 C2624 1.463 . S
C2621 C2626 1.350 1_455 S
C2621 N2629 1.427 1_455 S
C2622 H2613 0.930 . S
C2622 C2620 1.378 . S
C2622 C2623 1.367 . S
C2623 C2622 1.367 . S
C2623 C2625 1.433 . S
C2624 C2620 1.350 . S
C2624 C2621 1.463 . S
C2624 N2628 1.427 . S
C2625 H2615 0.929 . S
C2625 C2623 1.433 . S
C2625 N2628 1.384 . S
C2626 H2617 0.929 . S
C2626 C2618 1.378 . S
C2626 C2621 1.350 1_655 S
C2627 H2614 0.929 . S
C2627 C2619 1.433 . S
C2627 N2629 1.384 . S
N2628 C2624 1.427 . S
N2628 C2625 1.384 . S
N2629 C2621 1.427 1_655 S
N2629 C2627 1.384 . S
H2630 C2636 0.930 . S
H2631 C2640 0.930 . S
H2632 C2645 0.929 . S
H2633 C2643 0.929 . S
H2634 C2638 0.929 1_545 S
H2635 C2644 0.929 . S
C2636 H2630 0.930 . S
C2636 C2637 1.367 1_565 S
C2636 C2644 1.378 . S
C2637 C2636 1.367 1_545 S
C2637 C2645 1.433 . S
C2638 H2634 0.929 1_565 S
C2638 C2640 1.378 . S
C2638 C2642 1.350 . S
C2639 C2642 1.463 . S
C2639 C2644 1.350 . S
C2639 N2647 1.427 1_565 S
C2640 H2631 0.930 . S
C2640 C2638 1.378 . S
C2640 C2641 1.367 . S
C2641 C2640 1.367 . S
C2641 C2643 1.433 . S
C2642 C2638 1.350 . S
C2642 C2639 1.463 . S
C2642 N2646 1.427 . S
C2643 H2633 0.929 . S
C2643 C2641 1.433 . S
C2643 N2646 1.384 . S
C2644 H2635 0.929 . S
C2644 C2636 1.378 . S
C2644 C2639 1.350 . S
C2645 H2632 0.929 . S
C2645 C2637 1.433 . S
C2645 N2647 1.384 . S
N2646 C2642 1.427 . S
N2646 C2643 1.384 . S
N2647 C2639 1.427 1_545 S
N2647 C2645 1.384 . S
H2648 C2654 0.930 . S
H2649 C2658 0.930 . S
H2650 C2663 0.929 . S
H2651 C2661 0.929 . S
H2652 C2656 0.929 . S
H2653 C2662 0.929 1_565 S
C2654 H2648 0.930 . S
C2654 C2655 1.367 . S
C2654 C2662 1.378 . S
C2655 C2654 1.367 . S
C2655 C2663 1.433 . S
C2656 H2652 0.929 . S
C2656 C2658 1.378 . S
C2656 C2660 1.350 1_455 S
C2657 C2660 1.463 . S
C2657 C2662 1.350 . S
C2657 N2665 1.427 . S
C2658 H2649 0.930 . S
C2658 C2656 1.378 . S
C2658 C2659 1.367 1_545 S
C2659 C2658 1.367 1_565 S
C2659 C2661 1.433 . S
C2660 C2656 1.350 1_655 S
C2660 C2657 1.463 . S
C2660 N2664 1.427 1_645 S
C2661 H2651 0.929 . S
C2661 C2659 1.433 . S
C2661 N2664 1.384 . S
C2662 H2653 0.929 1_545 S
C2662 C2654 1.378 . S
C2662 C2657 1.350 . S
C2663 H2650 0.929 . S
C2663 C2655 1.433 . S
C2663 N2665 1.384 . S
N2664 C2660 1.427 1_465 S
N2664 C2661 1.384 . S
N2665 C2657 1.427 . S
N2665 C2663 1.384 . S
H2666 C2672 0.930 . S
H2667 C2676 0.930 . S
H2668 C2681 0.929 . S
H2669 C2679 0.929 . S
H2670 C2674 0.929 . S
H2671 C2680 0.929 . S
C2672 H2666 0.930 . S
C2672 C2673 1.367 . S
C2672 C2680 1.378 . S
C2673 C2672 1.367 . S
C2673 C2681 1.433 . S
C2674 H2670 0.929 . S
C2674 C2676 1.378 . S
C2674 C2678 1.350 . S
C2675 C2678 1.463 . S
C2675 C2680 1.350 . S
C2675 N2683 1.427 . S
C2676 H2667 0.930 . S
C2676 C2674 1.378 . S
C2676 C2677 1.367 . S
C2677 C2676 1.367 . S
C2677 C2679 1.433 . S
C2678 C2674 1.350 . S
C2678 C2675 1.463 . S
C2678 N2682 1.427 . S
C2679 H2669 0.929 . S
C2679 C2677 1.433 . S
C2679 N2682 1.384 . S
C2680 H2671 0.929 . S
C2680 C2672 1.378 . S
C2680 C2675 1.350 . S
C2681 H2668 0.929 . S
C2681 C2673 1.433 . S
C2681 N2683 1.384 . S
N2682 C2678 1.427 . S
N2682 C2679 1.384 . S
N2683 C2675 1.427 . S
N2683 C2681 1.384 . S
H2684 C2690 0.930 . S
H2685 C2694 0.930 . S
H2686 C2699 0.929 . S
H2687 C2697 0.929 . S
H2688 C2692 0.929 . S
H2689 C2698 0.929 . S
C2690 H2684 0.930 . S
C2690 C2691 1.367 . S
C2690 C2698 1.378 . S
C2691 C2690 1.367 . S
C2691 C2699 1.433 . S
C2692 H2688 0.929 . S
C2692 C2694 1.378 . S
C2692 C2696 1.350 . S
C2693 C2696 1.463 . S
C2693 C2698 1.350 1_655 S
C2693 N2701 1.427 1_655 S
C2694 H2685 0.930 . S
C2694 C2692 1.378 . S
C2694 C2695 1.367 . S
C2695 C2694 1.367 . S
C2695 C2697 1.433 . S
C2696 C2692 1.350 . S
C2696 C2693 1.463 . S
C2696 N2700 1.427 . S
C2697 H2687 0.929 . S
C2697 C2695 1.433 . S
C2697 N2700 1.384 . S
C2698 H2689 0.929 . S
C2698 C2690 1.378 . S
C2698 C2693 1.350 1_455 S
C2699 H2686 0.929 . S
C2699 C2691 1.433 . S
C2699 N2701 1.384 . S
N2700 C2696 1.427 . S
N2700 C2697 1.384 . S
N2701 C2693 1.427 1_455 S
N2701 C2699 1.384 . S
H2702 C2708 0.930 . S
H2703 C2712 0.931 . S
H2704 C2717 0.929 . S
H2705 C2715 0.929 . S
H2706 C2710 0.929 . S
H2707 C2716 0.929 . S
C2708 H2702 0.930 . S
C2708 C2709 1.367 1_545 S
C2708 C2716 1.378 . S
C2709 C2708 1.367 1_565 S
C2709 C2717 1.433 . S
C2710 H2706 0.929 . S
C2710 C2712 1.378 . S
C2710 C2714 1.350 1_565 S
C2711 C2714 1.463 . S
C2711 C2716 1.350 . S
C2711 N2719 1.427 1_545 S
C2712 H2703 0.931 . S
C2712 C2710 1.378 . S
C2712 C2713 1.365 1_565 S
C2713 C2712 1.365 1_545 S
C2713 C2715 1.433 . S
C2714 C2710 1.350 1_545 S
C2714 C2711 1.463 . S
C2714 N2718 1.427 . S
C2715 H2705 0.929 . S
C2715 C2713 1.433 . S
C2715 N2718 1.384 . S
C2716 H2707 0.929 . S
C2716 C2708 1.378 . S
C2716 C2711 1.350 . S
C2717 H2704 0.929 . S
C2717 C2709 1.433 . S
C2717 N2719 1.384 . S
N2718 C2714 1.427 . S
N2718 C2715 1.384 . S
N2719 C2711 1.427 1_565 S
N2719 C2717 1.384 . S
H2720 C2726 0.930 . S
H2721 C2730 0.930 . S
H2722 C2735 0.929 . S
H2723 C2733 0.929 . S
H2724 C2728 0.929 . S
H2725 C2734 0.929 . S
C2726 H2720 0.930 . S
C2726 C2727 1.367 1_655 S
C2726 C2734 1.378 . S
C2727 C2726 1.367 1_455 S
C2727 C2735 1.433 . S
C2728 H2724 0.929 . S
C2728 C2730 1.378 . S
C2728 C2732 1.350 1_455 S
C2729 C2732 1.463 1_454 S
C2729 C2734 1.350 1_455 S
C2729 N2737 1.427 . S
C2730 H2721 0.930 . S
C2730 C2728 1.378 . S
C2730 C2731 1.367 1_455 S
C2731 C2730 1.367 1_655 S
C2731 C2733 1.433 . S
C2732 C2728 1.350 1_655 S
C2732 C2729 1.463 1_656 S
C2732 N2736 1.427 . S
C2733 H2723 0.929 . S
C2733 C2731 1.433 . S
C2733 N2736 1.384 . S
C2734 H2725 0.929 . S
C2734 C2726 1.378 . S
C2734 C2729 1.350 1_655 S
C2735 H2722 0.929 . S
C2735 C2727 1.433 . S
C2735 N2737 1.384 . S
N2736 C2732 1.427 . S
N2736 C2733 1.384 . S
N2737 C2729 1.427 . S
N2737 C2735 1.384 . S
H2738 C2744 0.930 . S
H2739 C2748 0.930 . S
H2740 C2753 0.929 . S
H2741 C2751 0.929 . S
H2742 C2746 0.929 . S
H2743 C2752 0.929 . S
C2744 H2738 0.930 . S
C2744 C2745 1.367 . S
C2744 C2752 1.378 . S
C2745 C2744 1.367 . S
C2745 C2753 1.433 . S
C2746 H2742 0.929 . S
C2746 C2748 1.378 . S
C2746 C2750 1.350 . S
C2747 C2750 1.463 1_556 S
C2747 C2752 1.350 . S
C2747 N2755 1.427 . S
C2748 H2739 0.930 . S
C2748 C2746 1.378 . S
C2748 C2749 1.367 . S
C2749 C2748 1.367 . S
C2749 C2751 1.433 . S
C2750 C2746 1.350 . S
C2750 C2747 1.463 1_554 S
C2750 N2754 1.427 . S
C2751 H2741 0.929 . S
C2751 C2749 1.433 . S
C2751 N2754 1.384 . S
C2752 H2743 0.929 . S
C2752 C2744 1.378 . S
C2752 C2747 1.350 . S
C2753 H2740 0.929 . S
C2753 C2745 1.433 . S
C2753 N2755 1.384 . S
N2754 C2750 1.427 . S
N2754 C2751 1.384 . S
N2755 C2747 1.427 . S
N2755 C2753 1.384 . S
H2756 C2762 0.930 . S
H2757 C2766 0.930 . S
H2758 C2771 0.929 . S
H2759 C2769 0.929 . S
H2760 C2764 0.929 . S
H2761 C2770 0.929 . S
C2762 H2756 0.930 . S
C2762 C2763 1.367 1_455 S
C2762 C2770 1.378 . S
C2763 C2762 1.367 1_655 S
C2763 C2771 1.433 . S
C2764 H2760 0.929 . S
C2764 C2766 1.378 . S
C2764 C2768 1.350 1_655 S
C2765 C2768 1.463 1_655 S
C2765 C2770 1.350 1_655 S
C2765 N2773 1.427 . S
C2766 H2757 0.930 . S
C2766 C2764 1.378 . S
C2766 C2767 1.367 1_655 S
C2767 C2766 1.367 1_455 S
C2767 C2769 1.433 . S
C2768 C2764 1.350 1_455 S
C2768 C2765 1.463 1_455 S
C2768 N2772 1.427 . S
C2769 H2759 0.929 . S
C2769 C2767 1.433 . S
C2769 N2772 1.384 . S
C2770 H2761 0.929 . S
C2770 C2762 1.378 . S
C2770 C2765 1.350 1_455 S
C2771 H2758 0.929 . S
C2771 C2763 1.433 . S
C2771 N2773 1.384 . S
N2772 C2768 1.427 . S
N2772 C2769 1.384 . S
N2773 C2765 1.427 . S
N2773 C2771 1.384 . S
H2774 C2780 0.930 . S
H2775 C2784 0.930 . S
H2776 C2789 0.929 . S
H2777 C2787 0.929 . S
H2778 C2782 0.929 . S
H2779 C2788 0.929 . S
C2780 H2774 0.930 . S
C2780 C2781 1.367 . S
C2780 C2788 1.378 . S
C2781 C2780 1.367 . S
C2781 C2789 1.433 . S
C2782 H2778 0.929 . S
C2782 C2784 1.378 . S
C2782 C2786 1.350 . S
C2783 C2786 1.463 . S
C2783 C2788 1.350 . S
C2783 N2791 1.427 . S
C2784 H2775 0.930 . S
C2784 C2782 1.378 . S
C2784 C2785 1.367 . S
C2785 C2784 1.367 . S
C2785 C2787 1.433 . S
C2786 C2782 1.350 . S
C2786 C2783 1.463 . S
C2786 N2790 1.427 . S
C2787 H2777 0.929 . S
C2787 C2785 1.433 . S
C2787 N2790 1.384 . S
C2788 H2779 0.929 . S
C2788 C2780 1.378 . S
C2788 C2783 1.350 . S
C2789 H2776 0.929 . S
C2789 C2781 1.433 . S
C2789 N2791 1.384 . S
N2790 C2786 1.427 . S
N2790 C2787 1.384 . S
N2791 C2783 1.427 . S
N2791 C2789 1.384 . S
H2792 C2798 0.930 . S
H2793 C2802 0.930 . S
H2794 C2807 0.929 . S
H2795 C2805 0.929 . S
H2796 C2800 0.929 . S
H2797 C2806 0.929 . S
C2798 H2792 0.930 . S
C2798 C2799 1.367 . S
C2798 C2806 1.378 . S
C2799 C2798 1.367 . S
C2799 C2807 1.433 . S
C2800 H2796 0.929 . S
C2800 C2802 1.378 . S
C2800 C2804 1.350 . S
C2801 C2804 1.463 1_556 S
C2801 C2806 1.350 . S
C2801 N2809 1.427 . S
C2802 H2793 0.930 . S
C2802 C2800 1.378 . S
C2802 C2803 1.367 . S
C2803 C2802 1.367 . S
C2803 C2805 1.433 . S
C2804 C2800 1.350 . S
C2804 C2801 1.463 1_554 S
C2804 N2808 1.427 . S
C2805 H2795 0.929 . S
C2805 C2803 1.433 . S
C2805 N2808 1.384 . S
C2806 H2797 0.929 . S
C2806 C2798 1.378 . S
C2806 C2801 1.350 . S
C2807 H2794 0.929 . S
C2807 C2799 1.433 . S
C2807 N2809 1.384 . S
N2808 C2804 1.427 . S
N2808 C2805 1.384 . S
N2809 C2801 1.427 . S
N2809 C2807 1.384 . S
H2810 C2816 0.930 . S
H2811 C2820 0.930 . S
H2812 C2825 0.929 . S
H2813 C2823 0.929 . S
H2814 C2818 0.929 . S
H2815 C2824 0.929 . S
C2816 H2810 0.930 . S
C2816 C2817 1.367 . S
C2816 C2824 1.378 . S
C2817 C2816 1.367 . S
C2817 C2825 1.433 1_655 S
C2818 H2814 0.929 . S
C2818 C2820 1.378 . S
C2818 C2822 1.350 . S
C2819 C2822 1.463 1_655 S
C2819 C2824 1.350 . S
C2819 N2827 1.427 1_655 S
C2820 H2811 0.930 . S
C2820 C2818 1.378 . S
C2820 C2821 1.367 . S
C2821 C2820 1.367 . S
C2821 C2823 1.433 1_455 S
C2822 C2818 1.350 . S
C2822 C2819 1.463 1_455 S
C2822 N2826 1.427 1_455 S
C2823 H2813 0.929 . S
C2823 C2821 1.433 1_655 S
C2823 N2826 1.384 . S
C2824 H2815 0.929 . S
C2824 C2816 1.378 . S
C2824 C2819 1.350 . S
C2825 H2812 0.929 . S
C2825 C2817 1.433 1_455 S
C2825 N2827 1.384 . S
N2826 C2822 1.427 1_655 S
N2826 C2823 1.384 . S
N2827 C2819 1.427 1_455 S
N2827 C2825 1.384 . S
H2828 C2834 0.930 . S
H2829 C2838 0.930 . S
H2830 C2843 0.929 . S
H2831 C2841 0.929 . S
H2832 C2836 0.929 . S
H2833 C2842 0.929 . S
C2834 H2828 0.930 . S
C2834 C2835 1.367 . S
C2834 C2842 1.378 . S
C2835 C2834 1.367 . S
C2835 C2843 1.433 . S
C2836 H2832 0.929 . S
C2836 C2838 1.378 . S
C2836 C2840 1.350 . S
C2837 C2840 1.463 . S
C2837 C2842 1.350 . S
C2837 N2845 1.427 . S
C2838 H2829 0.930 . S
C2838 C2836 1.378 . S
C2838 C2839 1.367 . S
C2839 C2838 1.367 . S
C2839 C2841 1.433 . S
C2840 C2836 1.350 . S
C2840 C2837 1.463 . S
C2840 N2844 1.427 . S
C2841 H2831 0.929 . S
C2841 C2839 1.433 . S
C2841 N2844 1.384 . S
C2842 H2833 0.929 . S
C2842 C2834 1.378 . S
C2842 C2837 1.350 . S
C2843 H2830 0.929 . S
C2843 C2835 1.433 . S
C2843 N2845 1.384 . S
N2844 C2840 1.427 . S
N2844 C2841 1.384 . S
N2845 C2837 1.427 . S
N2845 C2843 1.384 . S
H2846 C2852 0.930 . S
H2847 C2856 0.930 . S
H2848 C2861 0.929 . S
H2849 C2859 0.929 . S
H2850 C2854 0.929 . S
H2851 C2860 0.929 . S
C2852 H2846 0.930 . S
C2852 C2853 1.367 1_545 S
C2852 C2860 1.378 . S
C2853 C2852 1.367 1_565 S
C2853 C2861 1.433 1_455 S
C2854 H2850 0.929 . S
C2854 C2856 1.378 . S
C2854 C2858 1.353 1_565 S
C2855 C2858 1.463 1_465 S
C2855 C2860 1.353 1_565 S
C2855 N2863 1.424 1_455 S
C2856 H2847 0.930 . S
C2856 C2854 1.378 . S
C2856 C2857 1.367 1_565 S
C2857 C2856 1.367 1_545 S
C2857 C2859 1.433 1_655 S
C2858 C2854 1.353 1_545 S
C2858 C2855 1.463 1_645 S
C2858 N2862 1.424 1_655 S
C2859 H2849 0.929 . S
C2859 C2857 1.433 1_455 S
C2859 N2862 1.384 . S
C2860 H2851 0.929 . S
C2860 C2852 1.378 . S
C2860 C2855 1.353 1_545 S
C2861 H2848 0.929 . S
C2861 C2853 1.433 1_655 S
C2861 N2863 1.384 . S
N2862 C2858 1.424 1_455 S
N2862 C2859 1.384 . S
N2863 C2855 1.424 1_655 S
N2863 C2861 1.384 . S
H2864 C2870 0.930 . S
H2865 C2874 0.930 . S
H2866 C2879 0.929 . S
H2867 C2877 0.929 . S
H2868 C2872 0.929 . S
H2869 C2878 0.929 . S
C2870 H2864 0.930 . S
C2870 C2871 1.367 . S
C2870 C2878 1.378 . S
C2871 C2870 1.367 . S
C2871 C2879 1.433 . S
C2872 H2868 0.929 . S
C2872 C2874 1.378 . S
C2872 C2876 1.350 . S
C2873 C2876 1.463 . S
C2873 C2878 1.350 . S
C2873 N2881 1.427 . S
C2874 H2865 0.930 . S
C2874 C2872 1.378 . S
C2874 C2875 1.367 . S
C2875 C2874 1.367 . S
C2875 C2877 1.433 . S
C2876 C2872 1.350 . S
C2876 C2873 1.463 . S
C2876 N2880 1.427 . S
C2877 H2867 0.929 . S
C2877 C2875 1.433 . S
C2877 N2880 1.384 . S
C2878 H2869 0.929 . S
C2878 C2870 1.378 . S
C2878 C2873 1.350 . S
C2879 H2866 0.929 . S
C2879 C2871 1.433 . S
C2879 N2881 1.384 . S
N2880 C2876 1.427 . S
N2880 C2877 1.384 . S
N2881 C2873 1.427 . S
N2881 C2879 1.384 . S
H2882 C2888 0.930 . S
H2883 C2892 0.930 . S
H2884 C2897 0.929 . S
H2885 C2895 0.929 . S
H2886 C2890 0.929 . S
H2887 C2896 0.929 . S
C2888 H2882 0.930 . S
C2888 C2889 1.367 . S
C2888 C2896 1.378 . S
C2889 C2888 1.367 . S
C2889 C2897 1.433 1_545 S
C2890 H2886 0.929 . S
C2890 C2892 1.378 . S
C2890 C2894 1.350 . S
C2891 C2894 1.463 1_545 S
C2891 C2896 1.350 . S
C2891 N2899 1.427 1_545 S
C2892 H2883 0.930 . S
C2892 C2890 1.378 . S
C2892 C2893 1.367 . S
C2893 C2892 1.367 . S
C2893 C2895 1.433 1_565 S
C2894 C2890 1.350 . S
C2894 C2891 1.463 1_565 S
C2894 N2898 1.427 1_565 S
C2895 H2885 0.929 . S
C2895 C2893 1.433 1_545 S
C2895 N2898 1.384 . S
C2896 H2887 0.929 . S
C2896 C2888 1.378 . S
C2896 C2891 1.350 . S
C2897 H2884 0.929 . S
C2897 C2889 1.433 1_565 S
C2897 N2899 1.384 . S
N2898 C2894 1.427 1_545 S
N2898 C2895 1.384 . S
N2899 C2891 1.427 1_565 S
N2899 C2897 1.384 . S
H2900 C2906 0.930 . S
H2901 C2910 0.930 . S
H2902 C2915 0.929 . S
H2903 C2913 0.929 . S
H2904 C2908 0.929 . S
H2905 C2914 0.929 . S
C2906 H2900 0.930 . S
C2906 C2907 1.367 . S
C2906 C2914 1.378 . S
C2907 C2906 1.367 . S
C2907 C2915 1.433 . S
C2908 H2904 0.929 . S
C2908 C2910 1.378 . S
C2908 C2912 1.350 . S
C2909 C2912 1.463 . S
C2909 C2914 1.350 . S
C2909 N2917 1.427 . S
C2910 H2901 0.930 . S
C2910 C2908 1.378 . S
C2910 C2911 1.367 . S
C2911 C2910 1.367 . S
C2911 C2913 1.433 . S
C2912 C2908 1.350 . S
C2912 C2909 1.463 . S
C2912 N2916 1.427 . S
C2913 H2903 0.929 . S
C2913 C2911 1.433 . S
C2913 N2916 1.384 . S
C2914 H2905 0.929 . S
C2914 C2906 1.378 . S
C2914 C2909 1.350 . S
C2915 H2902 0.929 . S
C2915 C2907 1.433 . S
C2915 N2917 1.384 . S
N2916 C2912 1.427 . S
N2916 C2913 1.384 . S
N2917 C2909 1.427 . S
N2917 C2915 1.384 . S
H2918 C2924 0.930 . S
H2919 C2928 0.930 . S
H2920 C2933 0.929 . S
H2921 C2931 0.929 . S
H2922 C2926 0.929 . S
H2923 C2932 0.929 . S
C2924 H2918 0.930 . S
C2924 C2925 1.367 1_545 S
C2924 C2932 1.378 . S
C2925 C2924 1.367 1_565 S
C2925 C2933 1.433 . S
C2926 H2922 0.929 . S
C2926 C2928 1.378 . S
C2926 C2930 1.353 1_565 S
C2927 C2930 1.463 1_565 S
C2927 C2932 1.353 1_565 S
C2927 N2935 1.424 . S
C2928 H2919 0.930 . S
C2928 C2926 1.378 . S
C2928 C2929 1.367 1_565 S
C2929 C2928 1.367 1_545 S
C2929 C2931 1.433 . S
C2930 C2926 1.353 1_545 S
C2930 C2927 1.463 1_545 S
C2930 N2934 1.424 . S
C2931 H2921 0.929 . S
C2931 C2929 1.433 . S
C2931 N2934 1.384 . S
C2932 H2923 0.929 . S
C2932 C2924 1.378 . S
C2932 C2927 1.353 1_545 S
C2933 H2920 0.929 . S
C2933 C2925 1.433 . S
C2933 N2935 1.384 . S
N2934 C2930 1.424 . S
N2934 C2931 1.384 . S
N2935 C2927 1.424 . S
N2935 C2933 1.384 . S
H2936 C2942 0.930 . S
H2937 C2946 0.930 . S
H2938 C2951 0.929 . S
H2939 C2949 0.929 . S
H2940 C2944 0.929 . S
H2941 C2950 0.929 . S
C2942 H2936 0.930 . S
C2942 C2943 1.367 . S
C2942 C2950 1.378 . S
C2943 C2942 1.367 . S
C2943 C2951 1.433 . S
C2944 H2940 0.929 . S
C2944 C2946 1.378 . S
C2944 C2948 1.350 . S
C2945 C2948 1.463 . S
C2945 C2950 1.350 . S
C2945 N2953 1.427 . S
C2946 H2937 0.930 . S
C2946 C2944 1.378 . S
C2946 C2947 1.367 . S
C2947 C2946 1.367 . S
C2947 C2949 1.433 . S
C2948 C2944 1.350 . S
C2948 C2945 1.463 . S
C2948 N2952 1.427 . S
C2949 H2939 0.929 . S
C2949 C2947 1.433 . S
C2949 N2952 1.384 . S
C2950 H2941 0.929 . S
C2950 C2942 1.378 . S
C2950 C2945 1.350 . S
C2951 H2938 0.929 . S
C2951 C2943 1.433 . S
C2951 N2953 1.384 . S
N2952 C2948 1.427 . S
N2952 C2949 1.384 . S
N2953 C2945 1.427 . S
N2953 C2951 1.384 . S
H2954 C2960 0.930 . S
H2955 C2964 0.930 . S
H2956 C2969 0.929 . S
H2957 C2967 0.929 . S
H2958 C2962 0.929 . S
H2959 C2968 0.929 . S
C2960 H2954 0.930 . S
C2960 C2961 1.367 . S
C2960 C2968 1.378 . S
C2961 C2960 1.367 . S
C2961 C2969 1.433 . S
C2962 H2958 0.929 . S
C2962 C2964 1.378 . S
C2962 C2966 1.350 . S
C2963 C2966 1.463 . S
C2963 C2968 1.350 . S
C2963 N2971 1.427 . S
C2964 H2955 0.930 . S
C2964 C2962 1.378 . S
C2964 C2965 1.367 . S
C2965 C2964 1.367 . S
C2965 C2967 1.433 . S
C2966 C2962 1.350 . S
C2966 C2963 1.463 . S
C2966 N2970 1.427 . S
C2967 H2957 0.929 . S
C2967 C2965 1.433 . S
C2967 N2970 1.384 . S
C2968 H2959 0.929 . S
C2968 C2960 1.378 . S
C2968 C2963 1.350 . S
C2969 H2956 0.929 . S
C2969 C2961 1.433 . S
C2969 N2971 1.384 . S
N2970 C2966 1.427 . S
N2970 C2967 1.384 . S
N2971 C2963 1.427 . S
N2971 C2969 1.384 . S
H2972 C2978 0.930 . S
H2973 C2982 0.930 . S
H2974 C2987 0.929 . S
H2975 C2985 0.929 . S
H2976 C2980 0.929 . S
H2977 C2986 0.929 . S
C2978 H2972 0.930 . S
C2978 C2979 1.367 . S
C2978 C2986 1.378 . S
C2979 C2978 1.367 . S
C2979 C2987 1.433 . S
C2980 H2976 0.929 . S
C2980 C2982 1.378 . S
C2980 C2984 1.350 . S
C2981 C2984 1.463 . S
C2981 C2986 1.350 . S
C2981 N2989 1.427 . S
C2982 H2973 0.930 . S
C2982 C2980 1.378 . S
C2982 C2983 1.367 . S
C2983 C2982 1.367 . S
C2983 C2985 1.433 . S
C2984 C2980 1.350 . S
C2984 C2981 1.463 . S
C2984 N2988 1.427 . S
C2985 H2975 0.929 . S
C2985 C2983 1.433 . S
C2985 N2988 1.384 . S
C2986 H2977 0.929 . S
C2986 C2978 1.378 . S
C2986 C2981 1.350 . S
C2987 H2974 0.929 . S
C2987 C2979 1.433 . S
C2987 N2989 1.384 . S
N2988 C2984 1.427 . S
N2988 C2985 1.384 . S
N2989 C2981 1.427 . S
N2989 C2987 1.384 . S
H2990 C2996 0.930 . S
H2991 C3000 0.930 . S
H2992 C3005 0.929 . S
H2993 C3003 0.929 . S
H2994 C2998 0.929 . S
H2995 C3004 0.929 . S
C2996 H2990 0.930 . S
C2996 C2997 1.367 1_545 S
C2996 C3004 1.378 . S
C2997 C2996 1.367 1_565 S
C2997 C3005 1.433 . S
C2998 H2994 0.929 . S
C2998 C3000 1.378 . S
C2998 C3002 1.352 1_565 S
C2999 C3002 1.463 1_564 S
C2999 C3004 1.352 1_565 S
C2999 N3007 1.425 . S
C3000 H2991 0.930 . S
C3000 C2998 1.378 . S
C3000 C3001 1.367 1_565 S
C3001 C3000 1.367 1_545 S
C3001 C3003 1.433 . S
C3002 C2998 1.352 1_545 S
C3002 C2999 1.463 1_546 S
C3002 N3006 1.425 . S
C3003 H2993 0.929 . S
C3003 C3001 1.433 . S
C3003 N3006 1.384 . S
C3004 H2995 0.929 . S
C3004 C2996 1.378 . S
C3004 C2999 1.352 1_545 S
C3005 H2992 0.929 . S
C3005 C2997 1.433 . S
C3005 N3007 1.384 . S
N3006 C3002 1.425 . S
N3006 C3003 1.384 . S
N3007 C2999 1.425 . S
N3007 C3005 1.384 . S
C1287 C10 1.628 . S
C1291 C1010 1.633 . S
C1305 C970 1.628 . S
C1309 C50 1.630 . S
C1323 C1090 1.628 . S
C1327 C90 1.632 . S
C1341 C130 1.632 . S
C1345 C1050 1.627 . S
C1359 C179 1.627 . S
C1363 C1179 1.632 . S
C1377 C219 1.628 . S
C1381 C1139 1.632 . S
C1395 C259 1.627 . S
C1399 C1259 1.631 . S
C1413 C1219 1.631 . S
C1417 C299 1.628 . S
C1431 C330 1.630 . S
C1435 C690 1.628 . S
C1449 C370 1.632 . S
C1453 C650 1.627 . S
C1467 C410 1.632 . S
C1471 C770 1.627 . S
C1485 C730 1.632 . S
C1489 C450 1.627 . S
C1503 C499 1.632 . S
C1507 C859 1.629 . S
C1521 C539 1.632 . S
C1525 C819 1.628 . S
C1539 C939 1.627 . S
C1543 C579 1.632 . S
C1557 C619 1.632 . S
C1561 C899 1.627 . S
C1575 C9 1.616 . S
C1579 C129 1.613 . S
C1593 C49 1.612 . S
C1597 C89 1.618 . S
C1611 C298 1.616 . S
C1615 C178 1.619 . S
C1629 C258 1.618 . S
C1633 C218 1.612 . S
C1647 C329 1.619 . S
C1651 C449 1.612 . S
C1665 C369 1.617 . S
C1669 C409 1.613 . S
C1683 C498 1.618 . S
C1687 C618 1.612 . S
C1701 C578 1.617 . S
C1705 C538 1.613 . S
C1719 C649 1.613 . S
C1723 C769 1.619 . S
C1737 C689 1.612 . S
C1741 C729 1.617 . S
C1755 C938 1.620 . S
C1759 C818 1.613 . S
C1773 C858 1.619 . S
C1777 C898 1.612 . S
C1791 C1089 1.617 . S
C1795 C969 1.618 . S
C1809 C1009 1.619 . S
C1813 C1049 1.616 . S
C1827 C1258 1.619 . S
C1831 C1138 1.615 . S
C1845 C1218 1.618 . S
C1849 C1178 1.613 . S
C1863 C59 1.509 . S
C1867 C19 1.513 . S
C1881 C99 1.521 . S
C1885 C139 1.517 . S
C1899 C210 1.512 . S
C1903 C170 1.508 . S
C1917 C290 1.511 . S
C1921 C250 1.508 . S
C1935 C339 1.521 . S
C1939 C379 1.516 . S
C1953 C419 1.510 . S
C1957 C459 1.516 . S
C1971 C530 1.512 . S
C1975 C490 1.508 . S
C1989 C570 1.513 . S
C1993 C610 1.518 . S
C2007 C659 1.509 . S
C2011 C699 1.514 . S
C2025 C779 1.511 . S
C2029 C739 1.517 . S
C2043 C810 1.516 . S
C2047 C850 1.521 . S
C2061 C890 1.515 . S
C2065 C930 1.520 . S
C2079 C979 1.509 . S
C2083 C1019 1.513 . S
C2097 C1059 1.522 . S
C2101 C1099 1.518 . S
C2115 C1170 1.511 . S
C2119 C1130 1.508 . S
C2133 C1210 1.520 . S
C2137 C1250 1.522 . S
C2151 C6 1.675 . S
C2155 C15 1.675 . S
C2169 C46 1.669 . S
C2173 C55 1.669 . S
C2187 C86 1.669 . S
C2191 C95 1.669 . S
C2205 C135 1.672 . S
C2209 C126 1.672 . S
C2223 C166 1.676 . S
C2227 C175 1.676 . S
C2241 C215 1.673 . S
C2245 C206 1.673 . S
C2259 C246 1.670 . S
C2263 C255 1.670 . S
C2277 C286 1.672 . S
C2281 C295 1.672 . S
C2295 C335 1.672 . S
C2299 C326 1.672 . S
C2313 C366 1.676 . S
C2317 C375 1.676 . S
C2331 C406 1.678 . S
C2335 C415 1.678 . S
C2349 C455 1.675 . S
C2353 C446 1.675 . S
C2367 C486 1.676 . S
C2371 C495 1.676 . S
C2385 C535 1.678 . S
C2389 C526 1.678 . S
C2403 C575 1.675 . S
C2407 C566 1.675 . S
C2421 C606 1.673 . S
C2425 C615 1.673 . S
C2439 C646 1.673 . S
C2443 C655 1.673 . S
C2457 C695 1.677 . S
C2461 C686 1.677 . S
C2475 C735 1.670 . S
C2479 C726 1.670 . S
C2493 C766 1.670 . S
C2497 C775 1.670 . S
C2511 C815 1.673 . S
C2515 C806 1.673 . S
C2529 C855 1.676 . S
C2533 C846 1.676 . S
C2547 C886 1.669 . S
C2551 C895 1.669 . S
C2565 C935 1.669 . S
C2569 C926 1.669 . S
C2583 C975 1.672 . S
C2587 C966 1.672 . S
C2601 C1006 1.677 . S
C2605 C1015 1.677 . S
C2619 C1055 1.674 . S
C2623 C1046 1.674 . S
C2637 C1095 1.674 . S
C2641 C1086 1.674 . S
C2655 C1135 1.670 . S
C2659 C1126 1.670 . S
C2673 C1175 1.678 . S
C2677 C1166 1.678 . S
C2691 C1206 1.671 . S
C2695 C1215 1.671 . S
C2709 C1246 1.672 . S
C2713 C1255 1.672 . S
C2727 C18 1.482 . S
C2731 C169 1.482 . S
C2745 C1169 1.473 . S
C2749 C58 1.473 . S
C2763 C569 1.487 . S
C2767 C98 1.487 . S
C2781 C138 1.475 . S
C2785 C929 1.475 . S
C2799 C209 1.480 . S
C2803 C1018 1.480 . S
C2817 C249 1.478 . S
C2821 C418 1.478 . S
C2835 C289 1.484 . S
C2839 C778 1.484 . S
C2853 C338 1.482 . S
C2857 C489 1.482 . S
C2871 C849 1.482 . S
C2875 C378 1.482 . S
C2889 C1249 1.480 . S
C2893 C458 1.480 . S
C2907 C529 1.486 . S
C2911 C698 1.486 . S
C2925 C1098 1.483 . S
C2929 C609 1.483 . S
C2943 C658 1.482 . S
C2947 C809 1.482 . S
C2961 C1209 1.486 . S
C2965 C738 1.486 . S
C2979 C889 1.486 . S
C2983 C1058 1.486 . S
C2997 C978 1.485 . S
C3001 C1129 1.485 . S
