# Generated by pormake.
# Topology unp, (4)-cn, num edge types: 1
# Building blocks:
#     Node 0, Type 0, BuildingBlock: QUQFOY_clean_sbu_3, # of connection points: 4
#     Node 1, Type 0, BuildingBlock: QUQFOY_clean_sbu_3, # of connection points: 4
#     Node 2, Type 0, BuildingBlock: QUQFOY_clean_sbu_3, # of connection points: 4
#     Node 3, Type 0, BuildingBlock: QUQFOY_clean_sbu_3, # of connection points: 4
#     Node 4, Type 0, BuildingBlock: QUQFOY_clean_sbu_3, # of connection points: 4
#     Node 5, Type 0, BuildingBlock: QUQFOY_clean_sbu_3, # of connection points: 4
#     Node 6, Type 0, BuildingBlock: QUQFOY_clean_sbu_3, # of connection points: 4
#     Node 7, Type 0, BuildingBlock: QUQFOY_clean_sbu_3, # of connection points: 4
#     Node 8, Type 0, BuildingBlock: QUQFOY_clean_sbu_3, # of connection points: 4
#     Node 9, Type 0, BuildingBlock: QUQFOY_clean_sbu_3, # of connection points: 4
#     Node 10, Type 0, BuildingBlock: QUQFOY_clean_sbu_3, # of connection points: 4
#     Node 11, Type 0, BuildingBlock: QUQFOY_clean_sbu_3, # of connection points: 4
#     Node 12, Type 0, BuildingBlock: QUQFOY_clean_sbu_3, # of connection points: 4
#     Node 13, Type 0, BuildingBlock: QUQFOY_clean_sbu_3, # of connection points: 4
#     Node 14, Type 0, BuildingBlock: QUQFOY_clean_sbu_3, # of connection points: 4
#     Node 15, Type 0, BuildingBlock: QUQFOY_clean_sbu_3, # of connection points: 4
#     Node 16, Type 0, BuildingBlock: QUQFOY_clean_sbu_3, # of connection points: 4
#     Node 17, Type 0, BuildingBlock: QUQFOY_clean_sbu_3, # of connection points: 4
#     Edge 18, Type (0, 0), BuildingBlock: UVAHIK_clean_linker_0, # of connection points: 2
#     Edge 19, Type (0, 0), BuildingBlock: UVAHIK_clean_linker_0, # of connection points: 2
#     Edge 20, Type (0, 0), BuildingBlock: UVAHIK_clean_linker_0, # of connection points: 2
#     Edge 21, Type (0, 0), BuildingBlock: UVAHIK_clean_linker_0, # of connection points: 2
#     Edge 22, Type (0, 0), BuildingBlock: UVAHIK_clean_linker_0, # of connection points: 2
#     Edge 23, Type (0, 0), BuildingBlock: UVAHIK_clean_linker_0, # of connection points: 2
#     Edge 24, Type (0, 0), BuildingBlock: UVAHIK_clean_linker_0, # of connection points: 2
#     Edge 25, Type (0, 0), BuildingBlock: UVAHIK_clean_linker_0, # of connection points: 2
#     Edge 26, Type (0, 0), BuildingBlock: UVAHIK_clean_linker_0, # of connection points: 2
#     Edge 27, Type (0, 0), BuildingBlock: UVAHIK_clean_linker_0, # of connection points: 2
#     Edge 28, Type (0, 0), BuildingBlock: UVAHIK_clean_linker_0, # of connection points: 2
#     Edge 29, Type (0, 0), BuildingBlock: UVAHIK_clean_linker_0, # of connection points: 2
#     Edge 30, Type (0, 0), BuildingBlock: UVAHIK_clean_linker_0, # of connection points: 2
#     Edge 31, Type (0, 0), BuildingBlock: UVAHIK_clean_linker_0, # of connection points: 2
#     Edge 32, Type (0, 0), BuildingBlock: UVAHIK_clean_linker_0, # of connection points: 2
#     Edge 33, Type (0, 0), BuildingBlock: UVAHIK_clean_linker_0, # of connection points: 2
#     Edge 34, Type (0, 0), BuildingBlock: UVAHIK_clean_linker_0, # of connection points: 2
#     Edge 35, Type (0, 0), BuildingBlock: UVAHIK_clean_linker_0, # of connection points: 2
#     Edge 36, Type (0, 0), BuildingBlock: UVAHIK_clean_linker_0, # of connection points: 2
#     Edge 37, Type (0, 0), BuildingBlock: UVAHIK_clean_linker_0, # of connection points: 2
#     Edge 38, Type (0, 0), BuildingBlock: UVAHIK_clean_linker_0, # of connection points: 2
#     Edge 39, Type (0, 0), BuildingBlock: UVAHIK_clean_linker_0, # of connection points: 2
#     Edge 40, Type (0, 0), BuildingBlock: UVAHIK_clean_linker_0, # of connection points: 2
#     Edge 41, Type (0, 0), BuildingBlock: UVAHIK_clean_linker_0, # of connection points: 2
#     Edge 42, Type (0, 0), BuildingBlock: UVAHIK_clean_linker_0, # of connection points: 2
#     Edge 43, Type (0, 0), BuildingBlock: UVAHIK_clean_linker_0, # of connection points: 2
#     Edge 44, Type (0, 0), BuildingBlock: UVAHIK_clean_linker_0, # of connection points: 2
#     Edge 45, Type (0, 0), BuildingBlock: UVAHIK_clean_linker_0, # of connection points: 2
#     Edge 46, Type (0, 0), BuildingBlock: UVAHIK_clean_linker_0, # of connection points: 2
#     Edge 47, Type (0, 0), BuildingBlock: UVAHIK_clean_linker_0, # of connection points: 2
#     Edge 48, Type (0, 0), BuildingBlock: UVAHIK_clean_linker_0, # of connection points: 2
#     Edge 49, Type (0, 0), BuildingBlock: UVAHIK_clean_linker_0, # of connection points: 2
#     Edge 50, Type (0, 0), BuildingBlock: UVAHIK_clean_linker_0, # of connection points: 2
#     Edge 51, Type (0, 0), BuildingBlock: UVAHIK_clean_linker_0, # of connection points: 2
#     Edge 52, Type (0, 0), BuildingBlock: UVAHIK_clean_linker_0, # of connection points: 2
#     Edge 53, Type (0, 0), BuildingBlock: UVAHIK_clean_linker_0, # of connection points: 2
# Relax obj value: 0.411
# Max RMSD: 0.182
# Mean RMSD: 0.182
data_MOF--net-unp--node1-QUQFOY_clean_sbu_3--edge1-UVAHIK_clean_linker_0
_symmetry_space_group_name_H-M    P1
_symmetry_Int_Tables_number       1
_symmetry_cell_setting            triclinic
loop_
_symmetry_equiv_pos_as_xyz
'x, y, z'
_cell_length_a     67.677472
_cell_length_b     67.289286
_cell_length_c     73.96311
_cell_angle_alpha  90.137294
_cell_angle_beta   89.628499
_cell_angle_gamma 120.07848
loop_
_atom_site_label
_atom_site_type_symbol
_atom_site_fract_x
_atom_site_fract_y
_atom_site_fract_z
_atom_type_partial_charge
C0 C 0.09144 0.08392 0.12228 0.0
O1 O 0.08261 0.08029 0.10662 0.0
Cd2 Cd 0.08412 0.10827 0.08688 0.0
O3 O 0.104 0.10413 0.12862 0.0
Cd4 Cd 0.12186 0.14612 0.12122 0.0
C5 C 0.07281 0.13659 0.12322 0.0
O6 O 0.12236 0.13529 0.09065 0.0
O7 O 0.13286 0.17101 0.09315 0.0
O8 O 0.15432 0.14423 0.13088 0.0
C9 C 0.12903 0.15427 0.08294 0.0
O10 O 0.0768 0.12667 0.11047 0.0
C11 C 0.16454 0.1638 0.1383 0.0
O12 O 0.08901 0.14896 0.1339 0.0
O13 O 0.15413 0.17515 0.13891 0.0
C14 C 0.83343 0.00694 0.12898 0.0
O15 O 0.82973 0.01736 0.1165 0.0
Cd16 Cd 0.81046 -0.01499 0.09699 0.0
O17 O 0.81936 -0.0143 0.13124 0.0
Cd18 Cd 0.77895 -0.03182 0.11981 0.0
C19 C 0.79406 0.93268 0.11927 0.0
O20 O 0.77633 -0.01739 0.09023 0.0
O21 O 0.75977 0.94591 0.09176 0.0
O22 O 0.7786 0.0004 0.13135 0.0
C23 C 0.76397 0.96358 0.08265 0.0
O24 O 0.80603 0.94801 0.10754 0.0
C25 C 0.7589 -0.01029 0.13852 0.0
O26 O 0.77952 0.9346 0.12897 0.0
O27 O 0.74864 -0.03221 0.1387 0.0
C28 C 0.91554 0.81744 0.12764 0.0
O29 O 0.9079 0.80979 0.1121 0.0
Cd30 Cd 0.94063 0.82285 0.09338 0.0
O31 O 0.93509 0.82074 0.13204 0.0
Cd32 Cd -0.04682 0.79895 0.1189 0.0
C33 C -0.01117 0.85118 0.12184 0.0
O34 O 0.94062 0.78907 0.08841 0.0
O35 O -0.0242 0.79855 0.09204 0.0
O36 O 0.92005 0.76612 0.12896 0.0
C37 C -0.04113 0.79171 0.08152 0.0
O38 O -0.02471 0.85086 0.10977 0.0
C39 C 0.93017 0.75707 0.13687 0.0
O40 O -0.01421 0.83285 0.12924 0.0
O41 O -0.04805 0.76841 0.13728 0.0
C42 C 0.06348 0.11273 0.84823 0.0
O43 O 0.0602 0.10229 0.8632 0.0
Cd44 Cd 0.08876 0.10415 0.88265 0.0
O45 O 0.08343 0.12639 0.84216 0.0
Cd46 Cd 0.12362 0.14162 0.85128 0.0
C47 C 0.1135 0.08765 0.84901 0.0
O48 O 0.1149 0.14335 0.88146 0.0
O49 O 0.14955 0.15095 0.87823 0.0
O50 O 0.12397 0.17518 0.84171 0.0
C51 C 0.1337 0.1488 0.88875 0.0
O52 O 0.10329 0.08458 0.86415 0.0
C53 C 0.14289 0.18397 0.83335 0.0
O54 O 0.1214 0.10642 0.84026 0.0
O55 O 0.15296 0.17228 0.83249 0.0
C56 C 0.79544 0.93239 0.84097 0.0
O57 O 0.78621 0.92314 0.85583 0.0
Cd58 Cd 0.80028 0.95494 0.87565 0.0
O59 O 0.79954 0.95266 0.83767 0.0
Cd60 Cd 0.77895 -0.02848 0.85165 0.0
C61 C 0.83117 0.0057 0.84939 0.0
O62 O 0.7671 0.95551 0.88148 0.0
O63 O 0.78045 -0.00805 0.88011 0.0
O64 O 0.74637 0.94258 0.83642 0.0
C65 C 0.7715 -0.02623 0.88959 0.0
O66 O 0.82978 -0.00961 0.86032 0.0
C67 C 0.73828 0.95539 0.83238 0.0
O68 O 0.81344 0.00463 0.8427 0.0
O69 O 0.74992 -0.02343 0.83654 0.0
C70 C -0.02613 0.85495 0.84409 0.0
O71 O -0.04056 0.8555 0.85485 0.0
Cd72 Cd 0.93892 0.82639 0.8773 0.0
O73 O -0.0253 0.83666 0.8417 0.0
Cd74 Cd 0.94802 0.79652 0.84981 0.0
C75 C 0.90121 0.79832 0.84916 0.0
O76 O -0.03878 0.80875 0.88004 0.0
O77 O 0.93467 0.77338 0.87797 0.0
O78 O -0.02197 0.79443 0.83393 0.0
C79 C -0.05089 0.78963 0.88775 0.0
O80 O 0.90403 0.79529 0.86561 0.0
C81 C -0.03343 0.77287 0.83175 0.0
O82 O 0.91579 0.79936 0.83774 0.0
O83 O 0.94582 0.76246 0.83683 0.0
C84 C 0.75816 0.41794 0.45592 0.0
O85 O 0.74965 0.41405 0.44013 0.0
Cd86 Cd 0.75241 0.44195 0.41986 0.0
O87 O 0.77054 0.4383 0.46214 0.0
Cd88 Cd 0.78787 0.48051 0.45422 0.0
C89 C 0.73945 0.46963 0.45574 0.0
O90 O 0.79101 0.4678 0.4244 0.0
O91 O 0.79788 0.50253 0.42519 0.0
O92 O 0.81903 0.4814 0.47067 0.0
C93 C 0.79682 0.48612 0.41595 0.0
O94 O 0.74521 0.46076 0.4433 0.0
C95 C 0.83015 0.50305 0.4724 0.0
O96 O 0.7551 0.48433 0.46573 0.0
O97 O 0.82069 0.5141 0.46688 0.0
C98 C 0.50303 0.33982 0.45668 0.0
O99 O 0.50415 0.34338 0.43983 0.0
Cd100 Cd 0.47794 0.312 0.42238 0.0
O101 O 0.48527 0.32326 0.46382 0.0
Cd102 Cd 0.44509 0.3022 0.4527 0.0
C103 C 0.45906 0.26401 0.45168 0.0
O104 O 0.44604 0.31609 0.42277 0.0
O105 O 0.42257 0.27996 0.42574 0.0
O106 O 0.44534 0.33502 0.46358 0.0
C107 C 0.43044 0.29781 0.41592 0.0
O108 O 0.46975 0.27641 0.43803 0.0
C109 C 0.42611 0.3248 0.4715 0.0
O110 O 0.44732 0.26932 0.462 0.0
O111 O 0.41558 0.30287 0.47186 0.0
C112 C 0.58211 0.14943 0.46405 0.0
O113 O 0.57155 0.13528 0.45161 0.0
Cd114 Cd 0.60474 0.14919 0.43288 0.0
O115 O 0.60318 0.15627 0.46607 0.0
Cd116 Cd 0.62067 0.1336 0.4528 0.0
C117 C 0.65619 0.18376 0.45562 0.0
O118 O 0.60551 0.11709 0.4231 0.0
O119 O 0.64193 0.13833 0.42373 0.0
O120 O 0.59148 0.10097 0.46851 0.0
C121 C 0.62429 0.12443 0.41494 0.0
O122 O 0.64078 0.18196 0.4448 0.0
C123 C 0.60385 0.09226 0.47206 0.0
O124 O 0.65478 0.16607 0.46295 0.0
O125 O 0.62491 0.10374 0.46773 0.0
C126 C 0.73112 0.44877 0.18183 0.0
O127 O 0.72852 0.44062 0.19766 0.0
Cd128 Cd 0.75891 0.44402 0.21526 0.0
O129 O 0.7508 0.46067 0.1747 0.0
Cd130 Cd 0.79075 0.4752 0.18426 0.0
C131 C 0.77996 0.42242 0.18274 0.0
O132 O 0.78507 0.48371 0.21422 0.0
O133 O 0.81391 0.47879 0.21158 0.0
O134 O 0.79455 0.50823 0.16942 0.0
C135 C 0.80255 0.48508 0.22136 0.0
O136 O 0.77116 0.42106 0.19828 0.0
C137 C 0.81529 0.51639 0.16496 0.0
O138 O 0.78744 0.44036 0.17308 0.0
O139 O 0.82464 0.50456 0.16863 0.0
C140 C 0.47351 0.27265 0.18073 0.0
O141 O 0.4833 0.27925 0.19592 0.0
Cd142 Cd 0.48021 0.30491 0.21579 0.0
O143 O 0.46011 0.27918 0.17472 0.0
Cd144 Cd 0.44577 0.3048 0.18478 0.0
C145 C 0.49952 0.34756 0.18336 0.0
O146 O 0.44081 0.29059 0.21461 0.0
O147 O 0.43915 0.32149 0.21289 0.0
O148 O 0.41304 0.27555 0.1693 0.0
C149 C 0.43738 0.30514 0.22259 0.0
O150 O 0.50157 0.34017 0.19866 0.0
C151 C 0.40456 0.28811 0.16567 0.0
O152 O 0.48126 0.33706 0.17421 0.0
O153 O 0.41597 0.30917 0.1701 0.0
C154 C 0.64828 0.1903 0.18074 0.0
O155 O 0.64151 0.19323 0.19602 0.0
Cd156 Cd 0.61559 0.16349 0.21505 0.0
O157 O 0.64182 0.1704 0.1744 0.0
Cd158 Cd 0.61631 0.13036 0.18396 0.0
C159 C 0.57348 0.1407 0.18274 0.0
O160 O 0.63083 0.13892 0.2137 0.0
O161 O 0.5991 0.10722 0.21195 0.0
O162 O 0.64559 0.12726 0.16788 0.0
C163 C 0.61605 0.1209 0.22148 0.0
O164 O 0.58047 0.14971 0.19822 0.0
C165 C 0.6335 0.10588 0.16507 0.0
O166 O 0.5843 0.13339 0.17333 0.0
O167 O 0.61269 0.09598 0.16999 0.0
C168 C 0.42766 0.75045 0.78872 0.0
O169 O 0.41857 0.74742 0.77326 0.0
Cd170 Cd 0.42171 0.7769 0.75425 0.0
O171 O 0.44071 0.77038 0.79509 0.0
Cd172 Cd 0.45675 0.81058 0.78545 0.0
C173 C 0.40346 0.80034 0.78764 0.0
O174 O 0.46109 0.80208 0.75544 0.0
O175 O 0.46359 0.83505 0.75793 0.0
O176 O 0.4898 0.81077 0.79552 0.0
C177 C 0.46525 0.82055 0.74796 0.0
O178 O 0.40114 0.79081 0.7723 0.0
C179 C 0.49891 0.83011 0.80331 0.0
O180 O 0.4218 0.80804 0.79668 0.0
O181 O 0.48762 0.8406 0.80376 0.0
C182 C 0.17242 0.66761 0.78713 0.0
O183 O 0.1749 0.66155 0.77142 0.0
Cd184 Cd 0.14457 0.63353 0.7538 0.0
O185 O 0.15279 0.66031 0.79415 0.0
Cd186 Cd 0.11286 0.63578 0.78463 0.0
C187 C 0.12254 0.59277 0.78775 0.0
O188 O 0.11802 0.64625 0.75352 0.0
O189 O 0.08713 0.61433 0.75903 0.0
O190 O 0.11134 0.66867 0.79267 0.0
C191 C 0.09914 0.6303 0.74792 0.0
O192 O 0.13151 0.59933 0.77215 0.0
C193 C 0.09285 0.65863 0.8016 0.0
O194 O 0.11537 0.60399 0.79681 0.0
O195 O 0.08358 0.63699 0.80382 0.0
C196 C 0.25413 0.49371 0.7893 0.0
O197 O 0.26176 0.50493 0.77469 0.0
Cd198 Cd 0.28788 0.50327 0.75425 0.0
O199 O 0.25995 0.47944 0.7947 0.0
Cd200 Cd 0.28582 0.46564 0.78451 0.0
C201 C 0.32924 0.51956 0.78685 0.0
O202 O 0.27422 0.4638 0.75423 0.0
O203 O 0.30115 0.45598 0.75707 0.0
O204 O 0.2559 0.4324 0.79888 0.0
C205 C 0.28747 0.45817 0.74677 0.0
O206 O 0.32237 0.52286 0.77178 0.0
C207 C 0.26843 0.42439 0.80382 0.0
O208 O 0.31825 0.50071 0.79544 0.0
O209 O 0.2897 0.43624 0.80042 0.0
C210 C 0.40288 0.79092 0.50724 0.0
O211 O 0.40624 0.80466 0.52001 0.0
Cd212 Cd 0.42587 0.79172 0.53899 0.0
O213 O 0.41711 0.78407 0.50488 0.0
Cd214 Cd 0.45736 0.8078 0.51689 0.0
C215 C 0.44425 0.75775 0.51605 0.0
O216 O 0.45908 0.82415 0.54671 0.0
O217 O 0.47617 0.80468 0.54527 0.0
O218 O 0.45732 0.84042 0.50558 0.0
C219 C 0.4714 0.81771 0.55446 0.0
O220 O 0.43175 0.76026 0.52778 0.0
C221 C 0.47708 0.84986 0.4985 0.0
O222 O 0.45865 0.77477 0.50672 0.0
O223 O 0.48764 0.83858 0.49852 0.0
C224 C 0.13087 0.60045 0.50898 0.0
O225 O 0.12534 0.5935 0.52507 0.0
Cd226 Cd 0.13547 0.62414 0.54545 0.0
O227 O 0.13252 0.61934 0.50407 0.0
Cd228 Cd 0.11219 0.63863 0.51737 0.0
C229 C 0.16547 0.67442 0.51843 0.0
O230 O 0.10179 0.62424 0.54741 0.0
O231 O 0.11082 0.65962 0.54508 0.0
O232 O 0.07949 0.60594 0.50673 0.0
C233 C 0.10448 0.64214 0.55512 0.0
O234 O 0.16345 0.66034 0.53082 0.0
C235 C 0.07051 0.61634 0.49914 0.0
O236 O 0.14838 0.67125 0.5091 0.0
O237 O 0.08191 0.63828 0.49895 0.0
C238 C 0.32291 0.51818 0.50956 0.0
O239 O 0.33131 0.51483 0.5236 0.0
Cd240 Cd 0.29968 0.49757 0.54361 0.0
O241 O 0.30267 0.50318 0.50521 0.0
Cd242 Cd 0.2821 0.46206 0.51614 0.0
C243 C 0.24932 0.48243 0.51854 0.0
O244 O 0.29595 0.4619 0.54616 0.0
O245 O 0.25968 0.44025 0.54319 0.0
O246 O 0.31146 0.45915 0.50087 0.0
C247 C 0.27709 0.44757 0.55321 0.0
O248 O 0.26424 0.49365 0.53062 0.0
C249 C 0.29887 0.43851 0.49587 0.0
O250 O 0.25074 0.46757 0.50878 0.0
O251 O 0.2775 0.42903 0.49904 0.0
C252 C 0.36644 0.28471 0.16701 0.0
C253 C 0.38091 0.27756 0.15949 0.0
C254 C 0.3429 0.27144 0.16471 0.0
C255 C 0.29819 0.22725 0.13675 0.0
H256 H 0.26119 0.2134 0.18028 0.0
C257 C 0.20177 0.1653 0.13583 0.0
C258 C 0.18851 0.17377 0.1437 0.0
C259 C 0.22519 0.17631 0.13875 0.0
C260 C 0.27133 0.21726 0.16803 0.0
H261 H 0.38265 0.25194 0.14285 0.0
H262 H 0.34138 0.22912 0.13818 0.0
H263 H 0.30274 0.237 0.18223 0.0
H264 H 0.18895 0.19959 0.16151 0.0
H265 H 0.23014 0.21876 0.16696 0.0
H266 H 0.26684 0.20778 0.12249 0.0
C267 C 0.34819 0.24474 0.14608 0.0
C268 C 0.29502 0.23076 0.16913 0.0
C269 C 0.37172 0.25778 0.14868 0.0
C270 C 0.19887 0.1928 0.15527 0.0
C271 C 0.22234 0.20366 0.15842 0.0
C272 C 0.27451 0.2138 0.13564 0.0
C273 C 0.33357 0.25108 0.15457 0.0
C274 C 0.30859 0.23612 0.15345 0.0
C275 C 0.23576 0.19584 0.14979 0.0
C276 C 0.26086 0.2089 0.15125 0.0
H277 H 0.37316 0.29971 0.17565 0.0
H278 H 0.33193 0.27679 0.17121 0.0
H279 H 0.30831 0.23123 0.12448 0.0
H280 H 0.19426 0.15074 0.12673 0.0
H281 H 0.23511 0.16982 0.13208 0.0
C282 C 0.73172 -0.00346 0.15725 0.0
C283 C 0.74727 0.00255 0.14286 0.0
C284 C 0.72045 0.00895 0.16019 0.0
C285 C 0.70184 0.04359 0.13521 0.0
H286 H 0.69462 0.06421 0.18248 0.0
C287 C 0.66081 0.10016 0.14626 0.0
C288 C 0.64458 0.09276 0.16025 0.0
C289 C 0.67425 0.08997 0.14394 0.0
C290 C 0.69644 0.05841 0.16922 0.0
H291 H 0.76302 0.02566 0.12011 0.0
H292 H 0.74325 0.04686 0.12506 0.0
H293 H 0.71631 0.04421 0.17942 0.0
H294 H 0.62984 0.06967 0.18303 0.0
H295 H 0.65343 0.05198 0.17913 0.0
H296 H 0.68191 0.05761 0.125 0.0
C297 C 0.73989 0.03294 0.13421 0.0
C298 C 0.70874 0.04695 0.1675 0.0
C299 C 0.75135 0.02092 0.1315 0.0
C300 C 0.64182 0.0751 0.17182 0.0
C301 C 0.65559 0.06532 0.1698 0.0
C302 C 0.68958 0.05504 0.13693 0.0
C303 C 0.72422 0.02701 0.14847 0.0
C304 C 0.71137 0.03927 0.1505 0.0
C305 C 0.67203 0.07277 0.15594 0.0
C306 C 0.68651 0.06227 0.15397 0.0
H307 H 0.72837 -0.0176 0.16614 0.0
H308 H 0.70834 0.00406 0.17127 0.0
H309 H 0.70346 0.03767 0.12195 0.0
H310 H 0.66339 0.1141 0.13743 0.0
H311 H 0.68686 0.09603 0.13317 0.0
C312 C 0.81721 0.55002 0.14978 0.0
C313 C 0.82845 0.5401 0.15859 0.0
C314 C 0.8281 0.5737 0.14739 0.0
C315 C 0.87156 0.62634 0.16843 0.0
H316 H 0.86988 0.6551 0.12355 0.0
C317 C 0.92728 0.72311 0.15296 0.0
C318 C 0.91693 0.73327 0.14323 0.0
C319 C 0.91523 0.69956 0.15646 0.0
C320 C 0.87019 0.64726 0.13624 0.0
H321 H 0.85994 0.54669 0.1713 0.0
H322 H 0.8791 0.58828 0.16704 0.0
H323 H 0.85196 0.61343 0.12512 0.0
H324 H 0.88559 0.72717 0.1303 0.0
H325 H 0.86477 0.68625 0.13638 0.0
H326 H 0.88986 0.66025 0.17952 0.0
C327 C 0.86189 0.57772 0.16203 0.0
C328 C 0.86004 0.62349 0.1371 0.0
C329 C 0.8511 0.55398 0.1642 0.0
C330 C 0.89405 0.71982 0.13786 0.0
C331 C 0.88214 0.69636 0.1412 0.0
C332 C 0.8817 0.65016 0.16758 0.0
C333 C 0.85026 0.58776 0.15399 0.0
C334 C 0.86084 0.61288 0.15313 0.0
C335 C 0.89282 0.68595 0.1501 0.0
C336 C 0.8812 0.66078 0.15144 0.0
H337 H 0.79965 0.53957 0.14547 0.0
H338 H 0.81878 0.58109 0.14119 0.0
H339 H 0.87195 0.61844 0.18106 0.0
H340 H 0.94487 0.73316 0.15727 0.0
H341 H 0.92382 0.69184 0.16333 0.0
C342 C 0.2671 0.38701 0.80566 0.0
C343 C 0.25793 0.40087 0.81063 0.0
C344 C 0.25439 0.36334 0.80827 0.0
C345 C 0.20641 0.31765 0.83308 0.0
H346 H 0.20023 0.28087 0.79067 0.0
C347 C 0.14408 0.22134 0.83221 0.0
C348 C 0.15357 0.2078 0.82694 0.0
C349 C 0.1557 0.2448 0.82884 0.0
C350 C 0.20196 0.29096 0.80261 0.0
H351 H 0.22929 0.4015 0.8233 0.0
H352 H 0.20729 0.36009 0.82839 0.0
H353 H 0.22416 0.32267 0.78918 0.0
H354 H 0.18182 0.20779 0.81297 0.0
H355 H 0.20219 0.24911 0.80688 0.0
H356 H 0.18438 0.28604 0.84658 0.0
C357 C 0.22411 0.36744 0.82228 0.0
C358 C 0.21565 0.31477 0.8018 0.0
C359 C 0.23666 0.39105 0.8194 0.0
C360 C 0.17422 0.21789 0.81723 0.0
C361 C 0.18579 0.24145 0.81371 0.0
C362 C 0.19277 0.29387 0.83392 0.0
C363 C 0.23256 0.35336 0.81615 0.0
C364 C 0.21812 0.32824 0.81708 0.0
C365 C 0.17693 0.25515 0.82002 0.0
C366 C 0.19054 0.28034 0.81871 0.0
H367 H 0.28338 0.39422 0.79867 0.0
H368 H 0.26131 0.35276 0.80364 0.0
H369 H 0.20815 0.32773 0.84504 0.0
H370 H 0.12815 0.21405 0.8397 0.0
H371 H 0.14837 0.25497 0.8336 0.0
C372 C 0.70529 0.92442 0.81608 0.0
C373 C 0.71477 0.94497 0.82594 0.0
C374 C 0.68177 0.91153 0.81351 0.0
C375 C 0.62883 0.90024 0.83551 0.0
H376 H 0.60082 0.87332 0.78958 0.0
C377 C 0.53262 0.8606 0.82008 0.0
C378 C 0.52267 0.84066 0.80945 0.0
C379 C 0.55602 0.87187 0.82368 0.0
C380 C 0.60844 0.88048 0.80255 0.0
H381 H 0.70755 -0.03129 0.84035 0.0
H382 H 0.6663 0.94613 0.83588 0.0
H383 H 0.64225 0.89684 0.79146 0.0
H384 H 0.52904 0.81628 0.79492 0.0
H385 H 0.56963 0.83601 0.80105 0.0
H386 H 0.59494 0.88389 0.84656 0.0
C387 C 0.67705 0.94001 0.83015 0.0
C388 C 0.6321 0.89397 0.80359 0.0
C389 C 0.70061 0.95308 0.83245 0.0
C390 C 0.53621 0.83162 0.80318 0.0
C391 C 0.55949 0.84298 0.80657 0.0
C392 C 0.60514 0.88672 0.83447 0.0
C393 C 0.66743 0.91889 0.82105 0.0
C394 C 0.64245 0.90417 0.82002 0.0
C395 C 0.5697 0.86348 0.81645 0.0
C396 C 0.59476 0.8769 0.81795 0.0
H397 H 0.71596 0.91782 0.81105 0.0
H398 H 0.67473 0.89529 0.80644 0.0
H399 H 0.63652 0.90754 0.84843 0.0
H400 H 0.5225 0.86781 0.82514 0.0
H401 H 0.56357 0.8877 0.83135 0.0
C402 C 0.06594 0.66474 0.82118 0.0
C403 C 0.08159 0.67155 0.80678 0.0
C404 C 0.05459 0.6769 0.82481 0.0
C405 C 0.03553 0.7117 0.80119 0.0
H406 H 0.02817 0.73111 0.84892 0.0
C407 C -0.00567 0.76767 0.81312 0.0
C408 C -0.02177 0.76025 0.82719 0.0
C409 C 0.00781 0.75756 0.81071 0.0
C410 C 0.03 0.72563 0.83554 0.0
H411 H 0.09779 0.69617 0.78496 0.0
H412 H 0.07789 0.71696 0.79116 0.0
H413 H 0.0501 0.71144 0.84524 0.0
H414 H -0.03619 0.73729 0.85009 0.0
H415 H -0.01257 0.71968 0.84601 0.0
H416 H 0.01533 0.72561 0.79144 0.0
C417 C 0.07445 0.7025 0.79971 0.0
C418 C 0.04246 0.71438 0.83348 0.0
C419 C 0.08596 0.69069 0.79628 0.0
C420 C -0.02428 0.74273 0.83883 0.0
C421 C -0.01051 0.733 0.83669 0.0
C422 C 0.02308 0.72289 0.80324 0.0
C423 C 0.05847 0.69556 0.81382 0.0
C424 C 0.04523 0.70728 0.81628 0.0
C425 C 0.00571 0.74037 0.82267 0.0
C426 C 0.02005 0.72978 0.82044 0.0
H427 H 0.06242 0.65005 0.82945 0.0
H428 H 0.04227 0.67128 0.83579 0.0
H429 H 0.03724 0.70615 0.7878 0.0
H430 H -0.00331 0.78147 0.80422 0.0
H431 H 0.02028 0.76358 0.79983 0.0
C432 C 0.86891 0.53752 0.47205 0.0
C433 C 0.85425 0.51485 0.47775 0.0
C434 C 0.89245 0.54738 0.47387 0.0
C435 C 0.93702 0.54355 0.49843 0.0
H436 H -0.02563 0.57581 0.45665 0.0
C437 C 0.03346 0.57994 0.49825 0.0
C438 C 0.04673 0.60306 0.49295 0.0
C439 C 0.01015 0.56776 0.49495 0.0
C440 C -0.03587 0.56698 0.46843 0.0
H441 H 0.85247 0.48507 0.49063 0.0
H442 H 0.89376 0.50261 0.49424 0.0
H443 H 0.93281 0.55729 0.45479 0.0
H444 H 0.04628 0.63117 0.47912 0.0
H445 H 0.00519 0.60961 0.47307 0.0
H446 H -0.03173 0.55343 0.51216 0.0
C447 C 0.88701 0.51261 0.48821 0.0
C448 C 0.94043 0.55642 0.46739 0.0
C449 C 0.86344 0.50262 0.48618 0.0
C450 C 0.03642 0.61341 0.48339 0.0
C451 C 0.01299 0.60106 0.47989 0.0
C452 C -0.03929 0.55412 0.49948 0.0
C453 C 0.90172 0.53485 0.48162 0.0
C454 C 0.9267 0.54492 0.48247 0.0
C455 C -0.00041 0.57833 0.48612 0.0
C456 C -0.02552 0.56614 0.48455 0.0
H457 H 0.8623 0.54725 0.46534 0.0
H458 H 0.90344 0.5647 0.46895 0.0
H459 H 0.92681 0.5349 0.51026 0.0
H460 H 0.04087 0.57144 0.50569 0.0
H461 H 0.00028 0.55018 0.49967 0.0
C462 C 0.3303 0.43634 0.4804 0.0
C463 C 0.3096 0.42533 0.49003 0.0
C464 C 0.3436 0.42596 0.47867 0.0
C465 C 0.35523 0.38515 0.50204 0.0
H466 H 0.3829 0.38313 0.45653 0.0
C467 C 0.39573 0.32842 0.48824 0.0
C468 C 0.41557 0.33819 0.47754 0.0
C469 C 0.38435 0.34062 0.49153 0.0
C470 C 0.37555 0.38386 0.4694 0.0
H471 H 0.28631 0.39492 0.50523 0.0
H472 H 0.30958 0.37666 0.50219 0.0
H473 H 0.35923 0.40094 0.45775 0.0
H474 H 0.43967 0.36867 0.46253 0.0
H475 H 0.41977 0.38961 0.46814 0.0
H476 H 0.37153 0.36792 0.51365 0.0
C477 C 0.31544 0.39324 0.49591 0.0
C478 C 0.36197 0.39399 0.47006 0.0
C479 C 0.30194 0.40344 0.49735 0.0
C480 C 0.42442 0.36065 0.4709 0.0
C481 C 0.41295 0.37264 0.47397 0.0
C482 C 0.36885 0.37501 0.50139 0.0
C483 C 0.33657 0.40462 0.48686 0.0
C484 C 0.35149 0.39448 0.48633 0.0
C485 C 0.39252 0.36252 0.4839 0.0
C486 C 0.37897 0.37413 0.48502 0.0
H487 H 0.33665 0.45341 0.4749 0.0
H488 H 0.35987 0.43512 0.47168 0.0
H489 H 0.34769 0.38577 0.51484 0.0
H490 H 0.38865 0.31118 0.49356 0.0
H491 H 0.36858 0.33247 0.49925 0.0
C492 C 0.60025 0.05385 0.47014 0.0
C493 C 0.59306 0.06824 0.47787 0.0
C494 C 0.58698 0.0301 0.47214 0.0
C495 C 0.54305 -0.01533 0.50007 0.0
H496 H 0.52985 0.94763 0.45667 0.0
C497 C 0.48044 0.88807 0.50112 0.0
C498 C 0.48813 0.87416 0.49315 0.0
C499 C 0.49212 0.91165 0.49826 0.0
C500 C 0.53358 0.95777 0.46889 0.0
H501 H 0.56714 0.0695 0.49435 0.0
H502 H 0.54435 0.02786 0.49853 0.0
H503 H 0.55313 -0.01052 0.45459 0.0
H504 H 0.51344 0.87378 0.47533 0.0
H505 H 0.53384 0.91541 0.46994 0.0
H506 H 0.52375 0.95308 0.51443 0.0
C507 C 0.56004 0.03493 0.49074 0.0
C508 C 0.54686 -0.01836 0.46772 0.0
C509 C 0.57309 0.05867 0.48843 0.0
C510 C 0.50723 0.88417 0.48162 0.0
C511 C 0.51879 0.90789 0.47852 0.0
C512 C 0.52984 0.96083 0.50125 0.0
C513 C 0.56656 0.02043 0.48217 0.0
C514 C 0.55189 -0.00475 0.48333 0.0
C515 C 0.51163 0.92187 0.48721 0.0
C516 C 0.5251 0.94715 0.48569 0.0
H517 H 0.61536 0.06084 0.46163 0.0
H518 H 0.59246 0.01926 0.46556 0.0
H519 H 0.54681 -0.00521 0.5123 0.0
H520 H 0.46588 0.88088 0.51023 0.0
H521 H 0.48608 0.92196 0.50497 0.0
C522 C 0.03994 0.12647 0.14419 0.0
C523 C 0.04879 0.12946 0.1266 0.0
C524 C 0.01633 0.1132 0.14706 0.0
C525 C -0.0352 0.06754 0.12388 0.0
H526 H 0.93243 0.07888 0.16222 0.0
C527 C 0.86917 0.00659 0.13485 0.0
C528 C 0.85642 0.01772 0.1365 0.0
C529 C 0.89285 0.01901 0.13682 0.0
C530 C 0.94123 0.07552 0.15142 0.0
H531 H 0.04018 0.12271 0.09818 0.0
H532 H -0.00057 0.1006 0.10308 0.0
H533 H -0.02685 0.10502 0.15809 0.0
H534 H 0.85768 0.04974 0.14271 0.0
H535 H 0.89892 0.07143 0.14655 0.0
H536 H 0.93266 0.03893 0.11644 0.0
C537 C 0.01037 0.10758 0.11475 0.0
C538 C -0.03537 0.09037 0.14918 0.0
C539 C 0.03375 0.12064 0.11192 0.0
C540 C 0.86729 0.04087 0.14155 0.0
C541 C 0.89089 0.05323 0.14373 0.0
C542 C 0.94136 0.05291 0.12595 0.0
C543 C 0.00139 0.10292 0.13238 0.0
C544 C -0.02334 0.08673 0.13526 0.0
C545 C 0.90404 0.04267 0.14066 0.0
C546 C 0.92926 0.05685 0.13966 0.0
H547 H 0.05122 0.13285 0.15572 0.0
H548 H 0.00997 0.10996 0.16083 0.0
H549 H -0.02644 0.06383 0.11325 0.0
H550 H 0.8611 -0.0112 0.1306 0.0
H551 H 0.90247 0.01032 0.13458 0.0
C552 C 0.80715 0.90651 0.10811 0.0
C553 C 0.79926 0.91429 0.12251 0.0
C554 C 0.8173 0.8933 0.11142 0.0
C555 C 0.83066 0.86287 0.14715 0.0
H556 H 0.8844 0.8823 0.11705 0.0
C557 C 0.88182 0.81585 0.14201 0.0
C558 C 0.90498 0.82867 0.13734 0.0
C559 C 0.86914 0.82678 0.14461 0.0
C560 C 0.86973 0.87701 0.12584 0.0
H561 H 0.79401 0.91304 0.15148 0.0
H562 H 0.81253 0.89057 0.15744 0.0
H563 H 0.85969 0.89795 0.11162 0.0
H564 H 0.93371 0.86283 0.13304 0.0
H565 H 0.91165 0.88212 0.13772 0.0
H566 H 0.84129 0.84235 0.16166 0.0
C567 C 0.81058 0.89428 0.14354 0.0
C568 C 0.85519 0.88558 0.12244 0.0
C569 C 0.79997 0.90715 0.14017 0.0
C570 C 0.9159 0.8527 0.13698 0.0
C571 C 0.90318 0.86365 0.13935 0.0
C572 C 0.84537 0.85442 0.15067 0.0
C573 C 0.82028 0.88812 0.12925 0.0
C574 C 0.83533 0.87844 0.13291 0.0
C575 C 0.87943 0.85066 0.14222 0.0
C576 C 0.865 0.8613 0.13997 0.0
H577 H 0.80646 0.91156 0.09433 0.0
H578 H 0.82378 0.88809 0.10003 0.0
H579 H 0.81549 0.85696 0.15544 0.0
H580 H 0.87313 0.79725 0.14213 0.0
H581 H 0.8509 0.81628 0.1468 0.0
C582 C 0.10383 0.05578 0.1262 0.0
C583 C 0.0896 0.06417 0.13181 0.0
C584 C 0.09798 0.03328 0.13014 0.0
C585 C 0.05955 -0.01951 0.15503 0.0
H586 H 0.05473 0.95163 0.10855 0.0
C587 C 0.00096 0.88374 0.14258 0.0
C588 C 0.00639 0.87342 0.12846 0.0
C589 C 0.01503 0.90704 0.14619 0.0
C590 C 0.0565 0.95931 0.12176 0.0
H591 H 0.05928 0.0569 0.14697 0.0
H592 H 0.04905 0.01728 0.15421 0.0
H593 H 0.07306 -0.007 0.11042 0.0
H594 H 0.03093 0.87826 0.10762 0.0
H595 H 0.05646 0.9188 0.11451 0.0
H596 H 0.04286 0.94671 0.16638 0.0
C597 C 0.06477 0.0281 0.14688 0.0
C598 C 0.06692 -0.01692 0.12279 0.0
C599 C 0.07059 0.05067 0.1428 0.0
C600 C 0.02671 0.88606 0.11871 0.0
C601 C 0.04105 0.90928 0.12251 0.0
C602 C 0.04941 0.95661 0.15407 0.0
C603 C 0.07778 0.01892 0.13971 0.0
C604 C 0.06842 -0.00612 0.13938 0.0
C605 C 0.03487 0.92029 0.13577 0.0
C606 C 0.04756 0.94571 0.13736 0.0
H607 H 0.11839 0.06597 0.11746 0.0
H608 H 0.10833 0.02658 0.12459 0.0
H609 H 0.06041 -0.0115 0.16795 0.0
H610 H -0.01495 0.87414 0.15001 0.0
H611 H 0.0095 0.91487 0.15631 0.0
C612 C -0.01261 0.8916 0.82741 0.0
C613 C -0.0077 0.87672 0.83708 0.0
C614 C 0.00464 0.91414 0.82397 0.0
C615 C 0.05389 0.95783 0.84673 0.0
H616 H 0.06799 -0.0069 0.80237 0.0
C617 C 0.11723 0.05306 0.84923 0.0
C618 C 0.11067 0.06701 0.84012 0.0
C619 C 0.10701 0.02978 0.84506 0.0
C620 C 0.06418 -0.01647 0.81489 0.0
H621 H 0.0187 0.87294 0.85025 0.0
H622 H 0.04875 0.91262 0.84475 0.0
H623 H 0.04088 0.95175 0.80189 0.0
H624 H 0.08956 0.06837 0.81889 0.0
H625 H 0.07094 0.02759 0.81202 0.0
H626 H 0.07567 -0.01069 0.86012 0.0
C627 C 0.03181 0.9068 0.8395 0.0
C628 C 0.04875 0.95989 0.81456 0.0
C629 C 0.01473 0.88416 0.84253 0.0
C630 C 0.09523 0.05793 0.82576 0.0
C631 C 0.08447 0.03448 0.82193 0.0
C632 C 0.06893 -0.0186 0.84714 0.0
C633 C 0.02674 0.92213 0.83065 0.0
C634 C 0.04362 0.94689 0.83048 0.0
C635 C 0.08941 0.01993 0.83219 0.0
C636 C 0.07443 -0.00541 0.83122 0.0
H637 H -0.02991 0.88605 0.8232 0.0
H638 H 0.00035 0.92572 0.81717 0.0
H639 H 0.04971 0.94825 0.85929 0.0
H640 H 0.12892 0.05978 0.86051 0.0
H641 H 0.11179 0.01924 0.85282 0.0
C642 C 0.02972 0.08885 0.82947 0.0
C643 C 0.0435 0.1096 0.83846 0.0
C644 C 0.00733 0.08254 0.82499 0.0
C645 C -0.03698 0.08923 0.84578 0.0
H646 H 0.92632 0.05489 0.80481 0.0
C647 C 0.8657 0.04436 0.85098 0.0
C648 C 0.8537 0.02277 0.84283 0.0
C649 C 0.88877 0.05885 0.84685 0.0
C650 C 0.93623 0.06424 0.81647 0.0
H651 H 0.04602 0.14094 0.84862 0.0
H652 H 0.00674 0.12994 0.84082 0.0
H653 H -0.03222 0.0733 0.80293 0.0
H654 H 0.85533 -0.00068 0.82371 0.0
H655 H 0.8956 0.0239 0.81693 0.0
H656 H 0.93198 0.07885 0.86 0.0
C657 C 0.01313 0.11856 0.8372 0.0
C658 C -0.03999 0.07497 0.81526 0.0
C659 C 0.03556 0.12493 0.84153 0.0
C660 C 0.86449 0.0161 0.83 0.0
C661 C 0.88757 0.03035 0.82605 0.0
C662 C 0.93933 0.07811 0.84715 0.0
C663 C -0.00149 0.09681 0.82976 0.0
C664 C -0.02642 0.08749 0.82994 0.0
C665 C 0.90024 0.05169 0.8348 0.0
C666 C 0.92553 0.06529 0.83258 0.0
H667 H 0.03569 0.07681 0.82717 0.0
H668 H -0.0036 0.06566 0.81931 0.0
H669 H -0.02693 0.09826 0.8575 0.0
H670 H 0.85752 0.04959 0.86105 0.0
H671 H 0.89769 0.07535 0.85353 0.0
C672 C 0.89318 0.82894 0.85802 0.0
C673 C 0.89038 0.81211 0.8455 0.0
C674 C 0.8847 0.84353 0.85461 0.0
C675 C 0.85087 0.85582 0.81926 0.0
H676 H 0.85756 0.89991 0.85591 0.0
C677 C 0.79695 0.90029 0.82612 0.0
C678 C 0.80834 0.9232 0.83188 0.0
C679 C 0.80899 0.88864 0.82376 0.0
C680 C 0.85587 0.88791 0.84539 0.0
H681 H 0.87693 0.79747 0.81937 0.0
H682 H 0.86102 0.82177 0.81343 0.0
H683 H 0.87364 0.87623 0.86098 0.0
H684 H 0.84108 0.95244 0.83885 0.0
H685 H 0.86217 0.93199 0.83498 0.0
H686 H 0.83202 0.86798 0.80424 0.0
C687 C 0.86992 0.8245 0.82602 0.0
C688 C 0.86513 0.87381 0.84826 0.0
C689 C 0.87897 0.81016 0.82935 0.0
C690 C 0.83212 0.9349 0.83394 0.0
C691 C 0.84408 0.92314 0.83198 0.0
C692 C 0.84137 0.86983 0.81656 0.0
C693 C 0.87257 0.84164 0.83861 0.0
C694 C 0.86287 0.85727 0.83528 0.0
C695 C 0.83243 0.89966 0.8276 0.0
C696 C 0.84384 0.88599 0.82958 0.0
H697 H 0.90259 0.83137 0.87041 0.0
H698 H 0.88819 0.85619 0.86487 0.0
H699 H 0.84833 0.84389 0.80858 0.0
H700 H 0.77853 0.89094 0.82483 0.0
H701 H 0.79962 0.87052 0.82049 0.0
C702 C 0.70347 0.43373 0.46022 0.0
C703 C 0.71541 0.45777 0.46112 0.0
C704 C 0.68027 0.42137 0.46374 0.0
C705 C 0.63147 0.42579 0.48236 0.0
H706 H 0.59743 0.37011 0.4542 0.0
C707 C 0.53477 0.37688 0.4671 0.0
C708 C 0.5239 0.35286 0.46705 0.0
C709 C 0.55782 0.38989 0.4715 0.0
C710 C 0.60678 0.38541 0.46239 0.0
H711 H 0.71293 0.48797 0.4668 0.0
H712 H 0.67148 0.46627 0.47218 0.0
H713 H 0.63824 0.3935 0.44983 0.0
H714 H 0.52754 0.32331 0.47262 0.0
H715 H 0.56819 0.3461 0.47993 0.0
H716 H 0.59918 0.41814 0.49381 0.0
C717 C 0.68027 0.45692 0.4692 0.0
C718 C 0.63023 0.39886 0.45993 0.0
C719 C 0.7039 0.46939 0.46607 0.0
C720 C 0.53565 0.34187 0.47289 0.0
C721 C 0.55884 0.35486 0.47692 0.0
C722 C 0.60779 0.41253 0.48448 0.0
C723 C 0.66816 0.43273 0.46778 0.0
C724 C 0.64298 0.4191 0.47005 0.0
C725 C 0.57026 0.37891 0.47544 0.0
C726 C 0.59536 0.39214 0.47463 0.0
H727 H 0.71214 0.42436 0.4567 0.0
H728 H 0.67187 0.40282 0.46318 0.0
H729 H 0.64071 0.44113 0.49047 0.0
H730 H 0.5259 0.38554 0.46242 0.0
H731 H 0.56634 0.4084 0.47016 0.0
C732 C 0.46723 0.24168 0.47424 0.0
C733 C 0.46305 0.24514 0.4563 0.0
C734 C 0.47794 0.22896 0.4779 0.0
C735 C 0.51756 0.21537 0.45402 0.0
H736 H 0.5127 0.1809 0.49733 0.0
C737 C 0.58182 0.1858 0.46628 0.0
C738 C 0.57205 0.16264 0.4712 0.0
C739 C 0.56908 0.19685 0.46769 0.0
C740 C 0.51421 0.19042 0.48513 0.0
H741 H 0.46368 0.23571 0.42839 0.0
H742 H 0.48117 0.21257 0.43476 0.0
H743 H 0.48553 0.19413 0.4924 0.0
H744 H 0.54228 0.13318 0.48247 0.0
H745 H 0.52007 0.15248 0.48538 0.0
H746 H 0.54542 0.21088 0.44625 0.0
C747 C 0.47738 0.22053 0.44597 0.0
C748 C 0.49873 0.19813 0.48237 0.0
C749 C 0.46712 0.23354 0.44232 0.0
C750 C 0.55014 0.15117 0.47884 0.0
C751 C 0.53747 0.16227 0.48046 0.0
C752 C 0.5328 0.20748 0.45667 0.0
C753 C 0.48425 0.21934 0.46363 0.0
C754 C 0.50012 0.21051 0.46669 0.0
C755 C 0.54641 0.18488 0.47411 0.0
C756 C 0.53129 0.19484 0.47222 0.0
H757 H 0.46419 0.2505 0.48524 0.0
H758 H 0.48283 0.22823 0.49168 0.0
H759 H 0.51959 0.22543 0.44202 0.0
H760 H 0.59854 0.19477 0.45993 0.0
H761 H 0.57661 0.21438 0.46291 0.0
C762 C 0.77065 0.39003 0.46094 0.0
C763 C 0.75598 0.39822 0.46577 0.0
C764 C 0.76452 0.36736 0.4646 0.0
C765 C 0.72428 0.31386 0.48803 0.0
H766 H 0.7237 0.28584 0.44201 0.0
C767 C 0.66728 0.2171 0.47526 0.0
C768 C 0.67325 0.20665 0.4616 0.0
C769 C 0.68099 0.2405 0.47868 0.0
C770 C 0.72425 0.29324 0.45514 0.0
H771 H 0.72436 0.3902 0.4792 0.0
H772 H 0.71374 0.35041 0.48612 0.0
H773 H 0.74186 0.32717 0.4442 0.0
H774 H 0.69834 0.21151 0.44126 0.0
H775 H 0.72329 0.25229 0.44784 0.0
H776 H 0.70681 0.27997 0.49906 0.0
C777 C 0.73001 0.3615 0.47958 0.0
C778 C 0.73458 0.31703 0.45634 0.0
C779 C 0.73608 0.38421 0.47574 0.0
C780 C 0.69369 0.2194 0.45201 0.0
C781 C 0.70769 0.24279 0.45562 0.0
C782 C 0.71432 0.29 0.48694 0.0
C783 C 0.74362 0.35261 0.47316 0.0
C784 C 0.73448 0.32755 0.47273 0.0
C785 C 0.7011 0.25384 0.46857 0.0
C786 C 0.71384 0.27932 0.47039 0.0
H787 H 0.78584 0.40053 0.45291 0.0
H788 H 0.77534 0.36092 0.45963 0.0
H789 H 0.72396 0.32162 0.5008 0.0
H790 H 0.65131 0.20742 0.48259 0.0
H791 H 0.67501 0.24823 0.48852 0.0
C792 C 0.65896 0.22337 0.1606 0.0
C793 C 0.6655 0.21051 0.17129 0.0
C794 C 0.67488 0.24611 0.1563 0.0
C795 C 0.72057 0.29189 0.17989 0.0
H796 H 0.73544 0.32798 0.13593 0.0
C797 C 0.78215 0.38701 0.18401 0.0
C798 C 0.77601 0.40105 0.1746 0.0
C799 C 0.77208 0.36383 0.17968 0.0
C800 C 0.73135 0.31813 0.14833 0.0
H801 H 0.69341 0.20992 0.18484 0.0
H802 H 0.72134 0.24969 0.17733 0.0
H803 H 0.71028 0.28621 0.13457 0.0
H804 H 0.75572 0.40279 0.15282 0.0
H805 H 0.73714 0.36203 0.14579 0.0
H806 H 0.74009 0.3233 0.19397 0.0
C807 C 0.70412 0.24233 0.17217 0.0
C808 C 0.71707 0.29431 0.14749 0.0
C809 C 0.68829 0.21966 0.17637 0.0
C810 C 0.76098 0.39218 0.15997 0.0
C811 C 0.7503 0.36881 0.156 0.0
C812 C 0.73441 0.31555 0.18079 0.0
C813 C 0.69723 0.25601 0.16294 0.0
C814 C 0.71202 0.28107 0.16325 0.0
C815 C 0.75499 0.35421 0.16639 0.0
C816 C 0.74038 0.32896 0.165 0.0
H817 H 0.64126 0.21645 0.15682 0.0
H818 H 0.66925 0.25646 0.14924 0.0
H819 H 0.71619 0.28203 0.19232 0.0
H820 H 0.79362 0.39364 0.19543 0.0
H821 H 0.77665 0.35318 0.18754 0.0
C822 C 0.70142 0.45879 0.17677 0.0
C823 C 0.71086 0.4451 0.17227 0.0
C824 C 0.67884 0.45153 0.17242 0.0
C825 C 0.62738 0.41033 0.14823 0.0
H826 H 0.59803 0.40822 0.19396 0.0
C827 C 0.52967 0.35739 0.1607 0.0
C828 C 0.52064 0.36465 0.17466 0.0
C829 C 0.55299 0.36974 0.15676 0.0
C830 C 0.60586 0.40919 0.18093 0.0
H831 H 0.70543 0.41428 0.15866 0.0
H832 H 0.66556 0.40142 0.15094 0.0
H833 H 0.63907 0.42559 0.19255 0.0
H834 H 0.52788 0.3912 0.19432 0.0
H835 H 0.56821 0.41406 0.18635 0.0
H836 H 0.59399 0.39388 0.13658 0.0
C837 C 0.67562 0.41781 0.15763 0.0
C838 C 0.62942 0.41903 0.18019 0.0
C839 C 0.69831 0.42511 0.16201 0.0
C840 C 0.53457 0.38553 0.18336 0.0
C841 C 0.55772 0.39828 0.17903 0.0
C842 C 0.60364 0.40073 0.14889 0.0
C843 C 0.66544 0.4304 0.16369 0.0
C844 C 0.64042 0.41996 0.16382 0.0
C845 C 0.56746 0.38979 0.1665 0.0
C846 C 0.59265 0.40034 0.16525 0.0
H847 H 0.71091 0.47414 0.18485 0.0
H848 H 0.67134 0.46159 0.17705 0.0
H849 H 0.63556 0.41056 0.13553 0.0
H850 H 0.5192 0.34095 0.15417 0.0
H851 H 0.55983 0.36255 0.14715 0.0
C852 C 0.49787 0.26366 0.16156 0.0
C853 C 0.47712 0.25614 0.17071 0.0
C854 C 0.50505 0.24804 0.15729 0.0
C855 C 0.50096 0.19881 0.17898 0.0
H856 H 0.53 0.19098 0.13638 0.0
C857 C 0.5357 0.13792 0.18249 0.0
C858 C 0.5568 0.14518 0.17412 0.0
C859 C 0.52309 0.14846 0.17819 0.0
C860 C 0.52209 0.19309 0.14844 0.0
H861 H 0.44676 0.22683 0.18149 0.0
H862 H 0.45922 0.19939 0.17401 0.0
H863 H 0.5135 0.21603 0.13505 0.0
H864 H 0.58118 0.16827 0.15437 0.0
H865 H 0.55996 0.1876 0.14752 0.0
H866 H 0.51068 0.1775 0.19289 0.0
C867 C 0.46988 0.21719 0.17005 0.0
C868 C 0.51256 0.2073 0.14759 0.0
C869 C 0.46267 0.23276 0.17417 0.0
C870 C 0.56456 0.16205 0.16061 0.0
C871 C 0.5524 0.17318 0.15676 0.0
C872 C 0.51082 0.18505 0.17995 0.0
C873 C 0.49161 0.22493 0.16244 0.0
C874 C 0.50157 0.20988 0.16279 0.0
C875 C 0.53195 0.16715 0.16606 0.0
C876 C 0.52118 0.18164 0.16463 0.0
H877 H 0.50929 0.28179 0.15906 0.0
H878 H 0.5219 0.25437 0.15149 0.0
H879 H 0.49329 0.20123 0.19108 0.0
H880 H 0.52964 0.12512 0.19313 0.0
H881 H 0.50703 0.14279 0.18516 0.0
C882 C 0.20477 0.67791 0.80782 0.0
C883 C 0.19269 0.68473 0.79653 0.0
C884 C 0.22728 0.69371 0.81256 0.0
C885 C 0.27416 0.74023 0.78967 0.0
H886 H 0.30847 0.75365 0.83417 0.0
C887 C 0.3686 0.80322 0.78722 0.0
C888 C 0.38253 0.79677 0.79635 0.0
C889 C 0.34542 0.79268 0.79138 0.0
C890 C 0.29911 0.74998 0.82163 0.0
H891 H 0.19311 0.71315 0.78261 0.0
H892 H 0.23233 0.74086 0.79099 0.0
H893 H 0.26685 0.72826 0.83478 0.0
H894 H 0.38393 0.77543 0.81758 0.0
H895 H 0.3432 0.75625 0.82442 0.0
H896 H 0.30589 0.76053 0.7762 0.0
C897 C 0.22466 0.72346 0.79611 0.0
C898 C 0.27536 0.73554 0.82203 0.0
C899 C 0.2023 0.70773 0.79138 0.0
C900 C 0.37347 0.78102 0.81068 0.0
C901 C 0.3501 0.76994 0.81451 0.0
C902 C 0.29771 0.75428 0.78922 0.0
C903 C 0.23771 0.71626 0.80586 0.0
C904 C 0.26273 0.73103 0.80607 0.0
C905 C 0.33565 0.77486 0.80425 0.0
C906 C 0.31048 0.75979 0.80522 0.0
H907 H 0.19746 0.66009 0.81179 0.0
H908 H 0.23706 0.68782 0.82009 0.0
H909 H 0.26485 0.73629 0.77706 0.0
H910 H 0.37529 0.81514 0.77597 0.0
H911 H 0.33489 0.79743 0.78362 0.0
C912 C 0.2445 0.51747 0.80869 0.0
C913 C 0.2374 0.49681 0.79944 0.0
C914 C 0.22865 0.52418 0.81321 0.0
C915 C 0.17932 0.51936 0.79192 0.0
H916 H 0.17175 0.54864 0.83448 0.0
C917 C 0.11908 0.55454 0.78855 0.0
C918 C 0.12649 0.57586 0.79672 0.0
C919 C 0.12937 0.54174 0.79294 0.0
C920 C 0.17377 0.54065 0.82243 0.0
H921 H 0.20858 0.46602 0.78883 0.0
H922 H 0.18072 0.47771 0.7967 0.0
H923 H 0.19672 0.53214 0.83566 0.0
H924 H 0.14946 0.60034 0.8163 0.0
H925 H 0.16837 0.57875 0.82332 0.0
H926 H 0.15805 0.52909 0.77813 0.0
C927 C 0.19839 0.48867 0.80054 0.0
C928 C 0.18793 0.5311 0.8232 0.0
C929 C 0.2142 0.4819 0.79618 0.0
C930 C 0.14316 0.58357 0.81021 0.0
C931 C 0.15405 0.57119 0.81415 0.0
C932 C 0.16561 0.52924 0.79102 0.0
C933 C 0.20572 0.51037 0.80821 0.0
C934 C 0.19046 0.52005 0.80802 0.0
C935 C 0.14795 0.55059 0.80496 0.0
C936 C 0.1623 0.5397 0.80634 0.0
H937 H 0.26248 0.5292 0.8111 0.0
H938 H 0.23467 0.541 0.81908 0.0
H939 H 0.18171 0.51167 0.77981 0.0
H940 H 0.10641 0.54853 0.77794 0.0
H941 H 0.12364 0.52554 0.78608 0.0
C942 C 0.40511 0.71755 0.80906 0.0
C943 C 0.42463 0.73035 0.79837 0.0
C944 C 0.39842 0.6949 0.8136 0.0
C945 C 0.39965 0.64899 0.79066 0.0
H946 H 0.37681 0.61324 0.83469 0.0
C947 C 0.36734 0.55409 0.78725 0.0
C948 C 0.34656 0.54001 0.79603 0.0
C949 C 0.38015 0.57723 0.79176 0.0
C950 C 0.38305 0.623 0.82229 0.0
H951 H 0.45355 0.73101 0.78518 0.0
H952 H 0.44197 0.69143 0.79313 0.0
H953 H 0.393 0.65501 0.8357 0.0
H954 H 0.32325 0.53818 0.81699 0.0
H955 H 0.34505 0.57885 0.82441 0.0
H956 H 0.38871 0.61747 0.77689 0.0
C957 C 0.43186 0.69872 0.79805 0.0
C958 C 0.39234 0.64683 0.82291 0.0
C959 C 0.43854 0.72129 0.7936 0.0
C960 C 0.3396 0.54877 0.81038 0.0
C961 C 0.35205 0.57211 0.81454 0.0
C962 C 0.39013 0.62533 0.78997 0.0
C963 C 0.41114 0.68503 0.80722 0.0
C964 C 0.40112 0.65995 0.80714 0.0
C965 C 0.37185 0.58679 0.8046 0.0
C966 C 0.38214 0.61205 0.80581 0.0
H967 H 0.39416 0.72442 0.81265 0.0
H968 H 0.38236 0.68457 0.82064 0.0
H969 H 0.40555 0.65872 0.77819 0.0
H970 H 0.37276 0.5476 0.77598 0.0
H971 H 0.39574 0.58794 0.78426 0.0
C972 C 0.43254 0.7187 0.52687 0.0
C973 C 0.43979 0.7344 0.5125 0.0
C974 C 0.4219 0.69526 0.52346 0.0
C975 C 0.40751 0.649 0.49169 0.0
H976 H 0.34774 0.62296 0.51429 0.0
C977 C 0.3425 0.55149 0.48814 0.0
C978 C 0.33169 0.54222 0.50472 0.0
C979 C 0.35439 0.5754 0.48566 0.0
C980 C 0.36439 0.62979 0.50799 0.0
H981 H 0.44379 0.73834 0.48341 0.0
H982 H 0.42489 0.69689 0.47739 0.0
H983 H 0.37495 0.66351 0.51779 0.0
H984 H 0.32355 0.54979 0.53125 0.0
H985 H 0.3446 0.59085 0.5274 0.0
H986 H 0.39745 0.61493 0.48282 0.0
C987 C 0.42758 0.70287 0.49126 0.0
C988 C 0.37993 0.65306 0.50997 0.0
C989 C 0.4384 0.72649 0.4947 0.0
C990 C 0.33179 0.55673 0.51833 0.0
C991 C 0.34373 0.58033 0.516 0.0
C992 C 0.39206 0.62542 0.49005 0.0
C993 C 0.41823 0.68715 0.50561 0.0
C994 C 0.40178 0.66275 0.50221 0.0
C995 C 0.35562 0.5901 0.4998 0.0
C996 C 0.37053 0.61545 0.49864 0.0
H997 H 0.43369 0.72448 0.54072 0.0
H998 H 0.41514 0.68339 0.53473 0.0
H999 H 0.42424 0.65627 0.48544 0.0
H1000 H 0.34261 0.54044 0.47752 0.0
H1001 H 0.36309 0.58235 0.47292 0.0
C1002 C 0.2039 0.70364 0.52858 0.0
C1003 C 0.18851 0.69332 0.51433 0.0
C1004 C 0.22717 0.7171 0.52509 0.0
C1005 C 0.27145 0.74344 0.48894 0.0
H1006 H 0.3054 0.72808 0.52269 0.0
C1007 C 0.36965 0.79102 0.49371 0.0
C1008 C 0.38 0.77862 0.4995 0.0
C1009 C 0.346 0.78006 0.49175 0.0
C1010 C 0.29615 0.73224 0.51294 0.0
H1011 H 0.18482 0.69041 0.48524 0.0
H1012 H 0.2258 0.71344 0.47903 0.0
H1013 H 0.26492 0.71271 0.52739 0.0
H1014 H 0.37438 0.74505 0.50683 0.0
H1015 H 0.33297 0.72573 0.50338 0.0
H1016 H 0.30288 0.76253 0.47426 0.0
C1017 C 0.21991 0.71144 0.49291 0.0
C1018 C 0.27297 0.72384 0.51586 0.0
C1019 C 0.19646 0.69828 0.49643 0.0
C1020 C 0.36671 0.75482 0.502 0.0
C1021 C 0.34302 0.74388 0.5003 0.0
C1022 C 0.29472 0.75176 0.48594 0.0
C1023 C 0.23556 0.72 0.50728 0.0
C1024 C 0.26036 0.72952 0.50403 0.0
C1025 C 0.33236 0.75661 0.49592 0.0
C1026 C 0.30732 0.74631 0.49797 0.0
H1027 H 0.19804 0.70025 0.5425 0.0
H1028 H 0.23868 0.72416 0.53643 0.0
H1029 H 0.26224 0.74814 0.47958 0.0
H1030 H 0.37969 0.80946 0.49189 0.0
H1031 H 0.33834 0.79036 0.48842 0.0
C1032 C 0.22493 0.49786 0.52944 0.0
C1033 C 0.23142 0.48832 0.51534 0.0
C1034 C 0.21133 0.50752 0.52601 0.0
C1035 C 0.17734 0.51639 0.49061 0.0
H1036 H 0.19724 0.57259 0.51773 0.0
C1037 C 0.12895 0.56641 0.49477 0.0
C1038 C 0.14157 0.58995 0.49852 0.0
C1039 C 0.14009 0.55391 0.49215 0.0
C1040 C 0.19178 0.55721 0.50973 0.0
H1041 H 0.22737 0.47967 0.48687 0.0
H1042 H 0.20431 0.49743 0.48061 0.0
H1043 H 0.21423 0.54919 0.52378 0.0
H1044 H 0.17545 0.61951 0.50089 0.0
H1045 H 0.19508 0.59784 0.49607 0.0
H1046 H 0.15533 0.52508 0.47619 0.0
C1047 C 0.20941 0.49719 0.49441 0.0
C1048 C 0.20114 0.54341 0.51353 0.0
C1049 C 0.22268 0.48706 0.49796 0.0
C1050 C 0.16546 0.60138 0.49768 0.0
C1051 C 0.17662 0.58888 0.49525 0.0
C1052 C 0.16811 0.5304 0.48666 0.0
C1053 C 0.2044 0.50839 0.50829 0.0
C1054 C 0.1939 0.52269 0.50418 0.0
C1055 C 0.16399 0.56481 0.49357 0.0
C1056 C 0.17519 0.55092 0.49624 0.0
H1057 H 0.23106 0.49861 0.54307 0.0
H1058 H 0.20704 0.51511 0.53718 0.0
H1059 H 0.17125 0.5005 0.4832 0.0
H1060 H 0.11047 0.55733 0.49557 0.0
H1061 H 0.12985 0.53543 0.49084 0.0
C1062 C 0.14163 0.17597 0.05355 0.0
C1063 C 0.12908 0.15529 0.06307 0.0
C1064 C 0.14265 0.17581 0.0346 0.0
C1065 C 0.11428 0.13653 -0.00482 0.0
H1066 H 0.16854 0.18124 0.96958 0.0
C1067 C 0.11462 0.13917 0.91855 0.0
C1068 C 0.13503 0.14853 0.90858 0.0
C1069 C 0.11488 0.13979 0.93725 0.0
C1070 C 0.15345 0.16825 0.9765 0.0
H1071 H 0.10756 0.11834 0.06027 0.0
H1072 H 0.1097 0.1179 0.0281 0.0
H1073 H 0.16682 0.1833 0.00227 0.0
H1074 H 0.17184 0.1652 0.91037 0.0
H1075 H 0.17244 0.16537 0.94348 0.0
H1076 H 0.10184 0.1198 0.9701 0.0
C1077 C 0.11836 0.13445 0.03472 0.0
C1078 C 0.15222 0.16981 -0.00469 0.0
C1079 C 0.11728 0.13465 0.05342 0.0
C1080 C 0.15586 0.15786 0.91778 0.0
C1081 C 0.15614 0.15817 0.93675 0.0
C1082 C 0.11596 0.1343 0.97666 0.0
C1083 C 0.1311 0.15495 0.02495 0.0
C1084 C 0.1325 0.15405 0.00489 0.0
C1085 C 0.13558 0.14932 0.94675 0.0
C1086 C 0.13527 0.15046 0.96689 0.0
H1087 H 0.15106 0.19209 0.06071 0.0
H1088 H 0.15248 0.19201 0.02759 0.0
H1089 H 0.0985 0.12432 0.0018 0.0
H1090 H 0.0982 0.13164 0.91191 0.0
H1091 H 0.09864 0.13335 0.9441 0.0
C1092 C 0.76754 0.95456 0.91906 0.0
C1093 C 0.77169 -0.02569 0.90947 0.0
C1094 C 0.76889 0.95489 0.93781 0.0
C1095 C 0.76288 -0.01571 0.97692 0.0
H1096 H 0.78695 0.951 0.00283 0.0
C1097 C 0.76543 -0.01656 0.05421 0.0
C1098 C 0.76112 0.96315 0.06294 0.0
C1099 C 0.76764 -0.01466 0.03552 0.0
C1100 C 0.77993 0.96012 -0.00424 0.0
H1101 H 0.78086 0.01001 0.91193 0.0
H1102 H 0.78293 0.01054 0.945 0.0
H1103 H 0.79139 0.95505 0.97003 0.0
H1104 H 0.75492 0.92856 0.05898 0.0
H1105 H 0.75781 0.9315 0.02596 0.0
H1106 H 0.75096 -0.01102 0.00242 0.0
C1107 C 0.77858 -0.00521 0.93788 0.0
C1108 C 0.7826 0.96257 0.97702 0.0
C1109 C 0.77735 -0.0055 0.91902 0.0
C1110 C 0.75796 0.9443 0.05255 0.0
C1111 C 0.76003 0.94615 0.03371 0.0
C1112 C 0.76014 -0.01823 -0.00441 0.0
C1113 C 0.77429 -0.02506 0.94744 0.0
C1114 C 0.77382 -0.02557 0.96741 0.0
C1115 C 0.76526 0.96685 0.02505 0.0
C1116 C 0.76841 -0.03052 0.0052 0.0
H1117 H 0.76338 0.93876 0.9121 0.0
H1118 H 0.76516 0.93924 0.94477 0.0
H1119 H 0.75563 -0.00679 0.96987 0.0
H1120 H 0.76811 -0.00169 0.06189 0.0
H1121 H 0.77202 0.00163 0.02935 0.0
C1122 C 0.93912 0.76743 0.91679 0.0
C1123 C 0.94812 0.78841 0.90757 0.0
C1124 C 0.93897 0.76703 0.93572 0.0
C1125 C 0.94821 0.80511 0.9757 0.0
H1126 H -0.0414 0.7605 0.00028 0.0
C1127 C -0.04814 0.80509 0.05278 0.0
C1128 C -0.03852 0.79377 0.06183 0.0
C1129 C -0.04947 0.80457 0.03409 0.0
C1130 C -0.04369 0.77354 -0.00627 0.0
H1131 H -0.03693 0.82525 0.9107 0.0
H1132 H -0.03623 0.82479 0.94314 0.0
H1133 H -0.04549 0.75867 0.96782 0.0
H1134 H -0.02135 0.77421 0.05867 0.0
H1135 H -0.02211 0.77445 0.02564 0.0
H1136 H -0.04721 0.82185 0.00077 0.0
C1137 C -0.04363 0.80847 0.93619 0.0
C1138 C -0.04672 0.77204 0.975 0.0
C1139 C -0.04362 0.80882 0.91745 0.0
C1140 C -0.02882 0.78309 0.05186 0.0
C1141 C -0.02974 0.7829 0.03292 0.0
C1142 C -0.0476 0.80732 -0.00583 0.0
C1143 C 0.94785 0.78764 0.94566 0.0
C1144 C -0.05072 0.78789 0.96572 0.0
C1145 C -0.04066 0.79316 0.02372 0.0
C1146 C -0.04372 0.79145 0.00364 0.0
H1147 H 0.93254 0.75145 0.90941 0.0
H1148 H 0.93192 0.75061 0.9425 0.0
H1149 H 0.94449 0.81728 0.96926 0.0
H1150 H 0.94452 0.81373 0.06023 0.0
H1151 H 0.94155 0.81237 0.02811 0.0
C1152 C 0.81461 0.47664 0.25095 0.0
C1153 C 0.80495 0.48735 0.24106 0.0
C1154 C 0.81351 0.47626 0.26985 0.0
C1155 C 0.79722 0.50177 0.30885 0.0
H1156 H 0.80248 0.45517 0.33523 0.0
C1157 C 0.8025 0.50591 0.38623 0.0
C1158 C 0.79712 0.4861 0.39608 0.0
C1159 C 0.80268 0.50545 0.36736 0.0
C1160 C 0.80032 0.46803 0.32825 0.0
H1161 H 0.78705 0.50641 0.24289 0.0
H1162 H 0.78374 0.50461 0.27518 0.0
H1163 H 0.80289 0.45462 0.30284 0.0
H1164 H 0.78712 0.45006 0.39406 0.0
H1165 H 0.78564 0.44869 0.36161 0.0
H1166 H 0.7916 0.51337 0.33397 0.0
C1167 C 0.79307 0.49722 0.26898 0.0
C1168 C 0.80128 0.46812 0.30939 0.0
C1169 C 0.79469 0.49806 0.25026 0.0
C1170 C 0.79148 0.46572 0.3868 0.0
C1171 C 0.79094 0.46504 0.36801 0.0
C1172 C 0.79494 0.50088 0.32758 0.0
C1173 C 0.80238 0.48627 0.27919 0.0
C1174 C 0.80031 0.48536 0.29935 0.0
C1175 C 0.79679 0.48495 0.3579 0.0
C1176 C 0.79717 0.48448 0.33769 0.0
H1177 H 0.82233 0.46793 0.2441 0.0
H1178 H 0.82136 0.46802 0.27697 0.0
H1179 H 0.79684 0.51576 0.30205 0.0
H1180 H 0.80687 0.52183 0.39306 0.0
H1181 H 0.8079 0.52143 0.36039 0.0
C1182 C 0.43927 0.32484 0.25189 0.0
C1183 C 0.43763 0.30596 0.24248 0.0
C1184 C 0.44062 0.32561 0.27075 0.0
C1185 C 0.45036 0.29733 0.31043 0.0
H1186 H 0.41398 0.31871 0.33538 0.0
C1187 C 0.42579 0.27839 0.38609 0.0
C1188 C 0.42756 0.29687 0.39625 0.0
C1189 C 0.42794 0.28008 0.36724 0.0
C1190 C 0.42442 0.31288 0.32865 0.0
H1191 H 0.43634 0.27321 0.24533 0.0
H1192 H 0.43785 0.27417 0.278 0.0
H1193 H 0.41803 0.32234 0.30281 0.0
H1194 H 0.43238 0.33116 0.39493 0.0
H1195 H 0.43588 0.33405 0.36222 0.0
H1196 H 0.4563 0.28745 0.33644 0.0
C1197 C 0.43867 0.28867 0.27098 0.0
C1198 C 0.42686 0.3151 0.30995 0.0
C1199 C 0.43747 0.28797 0.25221 0.0
C1200 C 0.43067 0.31659 0.38732 0.0
C1201 C 0.4327 0.31824 0.3686 0.0
C1202 C 0.44782 0.29501 0.3292 0.0
C1203 C 0.44013 0.30741 0.28051 0.0
C1204 C 0.43959 0.30709 0.30056 0.0
C1205 C 0.43168 0.30017 0.35835 0.0
C1206 C 0.43462 0.30257 0.33847 0.0
H1207 H 0.43971 0.33907 0.2447 0.0
H1208 H 0.44206 0.34048 0.27768 0.0
H1209 H 0.46067 0.29137 0.30366 0.0
H1210 H 0.4239 0.2632 0.39274 0.0
H1211 H 0.4269 0.2658 0.35965 0.0
C1212 C 0.64385 0.13611 0.38475 0.0
C1213 C 0.62442 0.12189 0.39519 0.0
C1214 C 0.64235 0.13617 0.36589 0.0
C1215 C 0.60449 0.10229 0.3279 0.0
H1216 H 0.63981 0.15927 0.30152 0.0
C1217 C 0.59538 0.10653 0.25094 0.0
C1218 C 0.61577 0.11985 0.24131 0.0
C1219 C 0.59516 0.1078 0.26979 0.0
C1220 C 0.62992 0.14319 0.30869 0.0
H1221 H 0.58848 0.09604 0.39415 0.0
H1222 H 0.58566 0.0967 0.3617 0.0
H1223 H 0.64276 0.15916 0.33429 0.0
H1224 H 0.6519 0.14462 0.24363 0.0
H1225 H 0.65175 0.14605 0.27639 0.0
H1226 H 0.5917 0.08629 0.30241 0.0
C1227 C 0.6022 0.10748 0.36777 0.0
C1228 C 0.6317 0.1431 0.32748 0.0
C1229 C 0.60379 0.10717 0.38647 0.0
C1230 C 0.63593 0.13413 0.25077 0.0
C1231 C 0.63577 0.13521 0.26954 0.0
C1232 C 0.60265 0.1024 0.30918 0.0
C1233 C 0.62137 0.12211 0.35722 0.0
C1234 C 0.61924 0.12256 0.33729 0.0
C1235 C 0.61539 0.12216 0.27929 0.0
C1236 C 0.61564 0.12273 0.29931 0.0
H1237 H 0.65995 0.14775 0.39114 0.0
H1238 H 0.65758 0.14736 0.35816 0.0
H1239 H 0.59482 0.08606 0.3349 0.0
H1240 H 0.57954 0.09566 0.24393 0.0
H1241 H 0.5791 0.09774 0.27689 0.0
C1242 C 0.47974 0.80618 0.58448 0.0
C1243 C 0.47373 0.81988 0.57425 0.0
C1244 C 0.47795 0.80583 0.60337 0.0
C1245 C 0.47343 0.83918 0.64151 0.0
H1246 H 0.45093 0.78219 0.668 0.0
C1247 C 0.45937 0.83528 0.71858 0.0
C1248 C 0.46623 0.82182 0.72814 0.0
C1249 C 0.45806 0.83402 0.69971 0.0
C1250 C 0.45737 0.79827 0.66079 0.0
H1251 H 0.46163 0.84427 0.5757 0.0
H1252 H 0.45799 0.84319 0.60819 0.0
H1253 H 0.4543 0.78215 0.63515 0.0
H1254 H 0.47747 0.79687 0.72567 0.0
H1255 H 0.47616 0.79543 0.69295 0.0
H1256 H 0.47677 0.8554 0.667 0.0
C1257 C 0.46453 0.83308 0.60189 0.0
C1258 C 0.45937 0.79825 0.64198 0.0
C1259 C 0.46657 0.83364 0.5832 0.0
C1260 C 0.47211 0.80745 0.7186 0.0
C1261 C 0.47104 0.80636 0.69984 0.0
C1262 C 0.47143 0.83921 0.66024 0.0
C1263 C 0.47007 0.81913 0.61223 0.0
C1264 C 0.46767 0.81878 0.63217 0.0
C1265 C 0.46388 0.81951 0.69016 0.0
C1266 C 0.46372 0.81885 0.67014 0.0
H1267 H 0.48507 0.79522 0.57791 0.0
H1268 H 0.48261 0.7951 0.611 0.0
H1269 H 0.48012 0.85536 0.63441 0.0
H1270 H 0.45438 0.8462 0.72568 0.0
H1271 H 0.45221 0.84418 0.69264 0.0
C1272 C 0.10917 0.6274 0.5845 0.0
C1273 C 0.10605 0.64367 0.57498 0.0
C1274 C 0.11032 0.62794 0.60326 0.0
C1275 C 0.08967 0.6452 0.64216 0.0
H1276 H 0.13055 0.63138 0.66872 0.0
C1277 C 0.08916 0.64276 0.7199 0.0
C1278 C 0.09502 0.62799 0.72851 0.0
C1279 C 0.09059 0.64497 0.70114 0.0
C1280 C 0.11872 0.63486 0.66153 0.0
H1281 H 0.10257 0.67383 0.57754 0.0
H1282 H 0.10408 0.67453 0.61075 0.0
H1283 H 0.13499 0.63688 0.63613 0.0
H1284 H 0.10703 0.60393 0.72475 0.0
H1285 H 0.10856 0.60678 0.69178 0.0
H1286 H 0.07271 0.64224 0.66721 0.0
C1287 C 0.1056 0.66134 0.60352 0.0
C1288 C 0.12146 0.63827 0.64286 0.0
C1289 C 0.10474 0.66097 0.58459 0.0
C1290 C 0.10176 0.6149 0.7182 0.0
C1291 C 0.1031 0.61697 0.69938 0.0
C1292 C 0.08671 0.64147 0.66076 0.0
C1293 C 0.10815 0.64464 0.613 0.0
C1294 C 0.10686 0.64333 0.63298 0.0
C1295 C 0.09801 0.63244 0.69061 0.0
C1296 C 0.10112 0.63616 0.67072 0.0
H1297 H 0.11063 0.61404 0.57747 0.0
H1298 H 0.11209 0.61473 0.61014 0.0
H1299 H 0.0779 0.64866 0.63485 0.0
H1300 H 0.08453 0.65345 0.72777 0.0
H1301 H 0.08693 0.65736 0.69504 0.0
C1302 C 0.26933 0.42769 0.583 0.0
C1303 C 0.27493 0.44737 0.57287 0.0
C1304 C 0.27086 0.42906 0.60187 0.0
C1305 C 0.27422 0.46546 0.64053 0.0
H1306 H 0.30407 0.43643 0.66409 0.0
C1307 C 0.2856 0.47431 0.71728 0.0
C1308 C 0.28987 0.45907 0.72702 0.0
C1309 C 0.28649 0.47473 0.69851 0.0
C1310 C 0.29528 0.44443 0.65813 0.0
H1311 H 0.28544 0.4835 0.57407 0.0
H1312 H 0.28827 0.48601 0.60676 0.0
H1313 H 0.29751 0.43179 0.63206 0.0
H1314 H 0.29904 0.4327 0.72502 0.0
H1315 H 0.29843 0.43148 0.69241 0.0
H1316 H 0.27065 0.47732 0.66595 0.0
C1317 C 0.28261 0.46951 0.60042 0.0
C1318 C 0.29161 0.44173 0.63951 0.0
C1319 C 0.28112 0.46812 0.58169 0.0
C1320 C 0.29553 0.44451 0.71771 0.0
C1321 C 0.29534 0.44409 0.69879 0.0
C1322 C 0.27733 0.46773 0.65915 0.0
C1323 C 0.27791 0.45012 0.61071 0.0
C1324 C 0.28106 0.45223 0.63054 0.0
C1325 C 0.29032 0.45891 0.68874 0.0
C1326 C 0.28794 0.45725 0.66847 0.0
H1327 H 0.26465 0.41158 0.57634 0.0
H1328 H 0.26682 0.41377 0.60952 0.0
H1329 H 0.26591 0.4737 0.634 0.0
H1330 H 0.28158 0.48607 0.72415 0.0
H1331 H 0.28388 0.48755 0.69201 0.0
loop_
_geom_bond_atom_site_label_1
_geom_bond_atom_site_label_2
_geom_bond_distance
_geom_bond_site_symmetry_2
_ccdc_geom_bond_type
C0 O1 1.306 . S
C0 O3 1.160 . S
O1 C0 1.306 . S
O1 Cd2 2.228 . S
Cd2 O1 2.228 . S
Cd2 O6 2.273 . S
Cd2 O10 2.277 . S
O3 C0 1.160 . S
O3 Cd4 2.203 . S
Cd4 O3 2.203 . S
Cd4 O6 2.411 . S
Cd4 O7 2.333 . S
Cd4 O8 2.352 . S
Cd4 O12 2.277 . S
Cd4 O13 2.356 . S
C5 O10 1.209 . S
C5 O12 1.226 . S
O6 Cd2 2.273 . S
O6 Cd4 2.411 . S
O6 C9 1.320 . S
O7 Cd4 2.333 . S
O7 C9 1.214 . S
O8 Cd4 2.352 . S
O8 C11 1.258 . S
C9 O6 1.320 . S
C9 O7 1.214 . S
O10 Cd2 2.277 . S
O10 C5 1.209 . S
C11 O8 1.258 . S
C11 O13 1.282 . S
O12 Cd4 2.277 . S
O12 C5 1.226 . S
O13 Cd4 2.356 . S
O13 C11 1.282 . S
C14 O15 1.306 . S
C14 O17 1.160 . S
O15 C14 1.306 . S
O15 Cd16 2.228 . S
Cd16 O15 2.228 . S
Cd16 O20 2.273 . S
Cd16 O24 2.277 1_545 S
O17 C14 1.160 . S
O17 Cd18 2.203 . S
Cd18 O17 2.203 . S
Cd18 O20 2.411 . S
Cd18 O21 2.333 1_545 S
Cd18 O22 2.352 . S
Cd18 O26 2.277 1_545 S
Cd18 O27 2.356 . S
C19 O24 1.209 . S
C19 O26 1.226 . S
O20 Cd16 2.273 . S
O20 Cd18 2.411 . S
O20 C23 1.320 1_545 S
O21 Cd18 2.333 1_565 S
O21 C23 1.214 . S
O22 Cd18 2.352 . S
O22 C25 1.258 . S
C23 O20 1.320 1_565 S
C23 O21 1.214 . S
O24 Cd16 2.277 1_565 S
O24 C19 1.209 . S
C25 O22 1.258 . S
C25 O27 1.282 . S
O26 Cd18 2.277 1_565 S
O26 C19 1.226 . S
O27 Cd18 2.356 . S
O27 C25 1.282 . S
C28 O29 1.306 . S
C28 O31 1.160 . S
O29 C28 1.306 . S
O29 Cd30 2.228 . S
Cd30 O29 2.228 . S
Cd30 O34 2.273 . S
Cd30 O38 2.277 1_655 S
O31 C28 1.160 . S
O31 Cd32 2.188 1_655 S
Cd32 O31 2.188 1_455 S
Cd32 O34 2.406 1_455 S
Cd32 O35 2.344 . S
Cd32 O36 2.346 1_455 S
Cd32 O40 2.287 . S
Cd32 O41 2.365 . S
C33 O38 1.209 . S
C33 O40 1.226 . S
O34 Cd30 2.273 . S
O34 Cd32 2.406 1_655 S
O34 C37 1.320 1_655 S
O35 Cd32 2.344 . S
O35 C37 1.214 . S
O36 Cd32 2.346 1_655 S
O36 C39 1.258 . S
C37 O34 1.320 1_455 S
C37 O35 1.214 . S
O38 Cd30 2.277 1_455 S
O38 C33 1.209 . S
C39 O36 1.258 . S
C39 O41 1.282 1_655 S
O40 Cd32 2.287 . S
O40 C33 1.226 . S
O41 Cd32 2.365 . S
O41 C39 1.282 1_455 S
C42 O43 1.306 . S
C42 O45 1.160 . S
O43 C42 1.306 . S
O43 Cd44 2.228 . S
Cd44 O43 2.228 . S
Cd44 O48 2.273 . S
Cd44 O52 2.277 . S
O45 C42 1.160 . S
O45 Cd46 2.203 . S
Cd46 O45 2.203 . S
Cd46 O48 2.411 . S
Cd46 O49 2.333 . S
Cd46 O50 2.352 . S
Cd46 O54 2.277 . S
Cd46 O55 2.356 . S
C47 O52 1.209 . S
C47 O54 1.226 . S
O48 Cd44 2.273 . S
O48 Cd46 2.411 . S
O48 C51 1.320 . S
O49 Cd46 2.333 . S
O49 C51 1.214 . S
O50 Cd46 2.352 . S
O50 C53 1.258 . S
C51 O48 1.320 . S
C51 O49 1.214 . S
O52 Cd44 2.277 . S
O52 C47 1.209 . S
C53 O50 1.258 . S
C53 O55 1.282 . S
O54 Cd46 2.277 . S
O54 C47 1.226 . S
O55 Cd46 2.356 . S
O55 C53 1.282 . S
C56 O57 1.306 . S
C56 O59 1.160 . S
O57 C56 1.306 . S
O57 Cd58 2.228 . S
Cd58 O57 2.228 . S
Cd58 O62 2.273 . S
Cd58 O66 2.277 1_565 S
O59 C56 1.160 . S
O59 Cd60 2.190 1_565 S
Cd60 O59 2.190 1_545 S
Cd60 O62 2.407 1_545 S
Cd60 O63 2.342 . S
Cd60 O64 2.347 1_545 S
Cd60 O68 2.285 . S
Cd60 O69 2.364 . S
C61 O66 1.209 . S
C61 O68 1.226 . S
O62 Cd58 2.273 . S
O62 Cd60 2.407 1_565 S
O62 C65 1.320 1_565 S
O63 Cd60 2.342 . S
O63 C65 1.214 . S
O64 Cd60 2.347 1_565 S
O64 C67 1.258 . S
C65 O62 1.320 1_545 S
C65 O63 1.214 . S
O66 Cd58 2.277 1_545 S
O66 C61 1.209 . S
C67 O64 1.258 . S
C67 O69 1.282 1_565 S
O68 Cd60 2.285 . S
O68 C61 1.226 . S
O69 Cd60 2.364 . S
O69 C67 1.282 1_545 S
C70 O71 1.306 . S
C70 O73 1.160 . S
O71 C70 1.306 . S
O71 Cd72 2.228 . S
Cd72 O71 2.228 . S
Cd72 O76 2.273 . S
Cd72 O80 2.277 1_455 S
O73 C70 1.160 . S
O73 Cd74 2.203 . S
Cd74 O73 2.203 . S
Cd74 O76 2.411 . S
Cd74 O77 2.333 1_455 S
Cd74 O78 2.352 . S
Cd74 O82 2.277 1_455 S
Cd74 O83 2.356 . S
C75 O80 1.209 . S
C75 O82 1.226 . S
O76 Cd72 2.273 . S
O76 Cd74 2.411 . S
O76 C79 1.320 1_455 S
O77 Cd74 2.333 1_655 S
O77 C79 1.214 . S
O78 Cd74 2.352 . S
O78 C81 1.258 . S
C79 O76 1.320 1_655 S
C79 O77 1.214 . S
O80 Cd72 2.277 1_655 S
O80 C75 1.209 . S
C81 O78 1.258 . S
C81 O83 1.282 . S
O82 Cd74 2.277 1_655 S
O82 C75 1.226 . S
O83 Cd74 2.356 . S
O83 C81 1.282 . S
C84 O85 1.306 . S
C84 O87 1.160 . S
O85 C84 1.306 . S
O85 Cd86 2.228 . S
Cd86 O85 2.228 . S
Cd86 O90 2.273 . S
Cd86 O94 2.277 . S
O87 C84 1.160 . S
O87 Cd88 2.203 . S
Cd88 O87 2.203 . S
Cd88 O90 2.411 . S
Cd88 O91 2.333 . S
Cd88 O92 2.352 . S
Cd88 O96 2.277 . S
Cd88 O97 2.356 . S
C89 O94 1.209 . S
C89 O96 1.226 . S
O90 Cd86 2.273 . S
O90 Cd88 2.411 . S
O90 C93 1.320 . S
O91 Cd88 2.333 . S
O91 C93 1.214 . S
O92 Cd88 2.352 . S
O92 C95 1.258 . S
C93 O90 1.320 . S
C93 O91 1.214 . S
O94 Cd86 2.277 . S
O94 C89 1.209 . S
C95 O92 1.258 . S
C95 O97 1.282 . S
O96 Cd88 2.277 . S
O96 C89 1.226 . S
O97 Cd88 2.356 . S
O97 C95 1.282 . S
C98 O99 1.306 . S
C98 O101 1.160 . S
O99 C98 1.306 . S
O99 Cd100 2.228 . S
Cd100 O99 2.228 . S
Cd100 O104 2.273 . S
Cd100 O108 2.277 . S
O101 C98 1.160 . S
O101 Cd102 2.203 . S
Cd102 O101 2.203 . S
Cd102 O104 2.411 . S
Cd102 O105 2.333 . S
Cd102 O106 2.352 . S
Cd102 O110 2.277 . S
Cd102 O111 2.356 . S
C103 O108 1.209 . S
C103 O110 1.226 . S
O104 Cd100 2.273 . S
O104 Cd102 2.411 . S
O104 C107 1.320 . S
O105 Cd102 2.333 . S
O105 C107 1.214 . S
O106 Cd102 2.352 . S
O106 C109 1.258 . S
C107 O104 1.320 . S
C107 O105 1.214 . S
O108 Cd100 2.277 . S
O108 C103 1.209 . S
C109 O106 1.258 . S
C109 O111 1.282 . S
O110 Cd102 2.277 . S
O110 C103 1.226 . S
O111 Cd102 2.356 . S
O111 C109 1.282 . S
C112 O113 1.306 . S
C112 O115 1.160 . S
O113 C112 1.306 . S
O113 Cd114 2.228 . S
Cd114 O113 2.228 . S
Cd114 O118 2.273 . S
Cd114 O122 2.277 . S
O115 C112 1.160 . S
O115 Cd116 2.203 . S
Cd116 O115 2.203 . S
Cd116 O118 2.411 . S
Cd116 O119 2.333 . S
Cd116 O120 2.352 . S
Cd116 O124 2.277 . S
Cd116 O125 2.356 . S
C117 O122 1.209 . S
C117 O124 1.226 . S
O118 Cd114 2.273 . S
O118 Cd116 2.411 . S
O118 C121 1.320 . S
O119 Cd116 2.333 . S
O119 C121 1.214 . S
O120 Cd116 2.352 . S
O120 C123 1.258 . S
C121 O118 1.320 . S
C121 O119 1.214 . S
O122 Cd114 2.277 . S
O122 C117 1.209 . S
C123 O120 1.258 . S
C123 O125 1.282 . S
O124 Cd116 2.277 . S
O124 C117 1.226 . S
O125 Cd116 2.356 . S
O125 C123 1.282 . S
C126 O127 1.306 . S
C126 O129 1.160 . S
O127 C126 1.306 . S
O127 Cd128 2.228 . S
Cd128 O127 2.228 . S
Cd128 O132 2.273 . S
Cd128 O136 2.277 . S
O129 C126 1.160 . S
O129 Cd130 2.203 . S
Cd130 O129 2.203 . S
Cd130 O132 2.411 . S
Cd130 O133 2.333 . S
Cd130 O134 2.352 . S
Cd130 O138 2.277 . S
Cd130 O139 2.356 . S
C131 O136 1.209 . S
C131 O138 1.226 . S
O132 Cd128 2.273 . S
O132 Cd130 2.411 . S
O132 C135 1.320 . S
O133 Cd130 2.333 . S
O133 C135 1.214 . S
O134 Cd130 2.352 . S
O134 C137 1.258 . S
C135 O132 1.320 . S
C135 O133 1.214 . S
O136 Cd128 2.277 . S
O136 C131 1.209 . S
C137 O134 1.258 . S
C137 O139 1.282 . S
O138 Cd130 2.277 . S
O138 C131 1.226 . S
O139 Cd130 2.356 . S
O139 C137 1.282 . S
C140 O141 1.306 . S
C140 O143 1.160 . S
O141 C140 1.306 . S
O141 Cd142 2.228 . S
Cd142 O141 2.228 . S
Cd142 O146 2.273 . S
Cd142 O150 2.277 . S
O143 C140 1.160 . S
O143 Cd144 2.203 . S
Cd144 O143 2.203 . S
Cd144 O146 2.411 . S
Cd144 O147 2.333 . S
Cd144 O148 2.352 . S
Cd144 O152 2.277 . S
Cd144 O153 2.356 . S
C145 O150 1.209 . S
C145 O152 1.226 . S
O146 Cd142 2.273 . S
O146 Cd144 2.411 . S
O146 C149 1.320 . S
O147 Cd144 2.333 . S
O147 C149 1.214 . S
O148 Cd144 2.352 . S
O148 C151 1.258 . S
C149 O146 1.320 . S
C149 O147 1.214 . S
O150 Cd142 2.277 . S
O150 C145 1.209 . S
C151 O148 1.258 . S
C151 O153 1.282 . S
O152 Cd144 2.277 . S
O152 C145 1.226 . S
O153 Cd144 2.356 . S
O153 C151 1.282 . S
C154 O155 1.306 . S
C154 O157 1.160 . S
O155 C154 1.306 . S
O155 Cd156 2.228 . S
Cd156 O155 2.228 . S
Cd156 O160 2.273 . S
Cd156 O164 2.277 . S
O157 C154 1.160 . S
O157 Cd158 2.203 . S
Cd158 O157 2.203 . S
Cd158 O160 2.411 . S
Cd158 O161 2.333 . S
Cd158 O162 2.352 . S
Cd158 O166 2.277 . S
Cd158 O167 2.356 . S
C159 O164 1.209 . S
C159 O166 1.226 . S
O160 Cd156 2.273 . S
O160 Cd158 2.411 . S
O160 C163 1.320 . S
O161 Cd158 2.333 . S
O161 C163 1.214 . S
O162 Cd158 2.352 . S
O162 C165 1.258 . S
C163 O160 1.320 . S
C163 O161 1.214 . S
O164 Cd156 2.277 . S
O164 C159 1.209 . S
C165 O162 1.258 . S
C165 O167 1.282 . S
O166 Cd158 2.277 . S
O166 C159 1.226 . S
O167 Cd158 2.356 . S
O167 C165 1.282 . S
C168 O169 1.306 . S
C168 O171 1.160 . S
O169 C168 1.306 . S
O169 Cd170 2.228 . S
Cd170 O169 2.228 . S
Cd170 O174 2.273 . S
Cd170 O178 2.277 . S
O171 C168 1.160 . S
O171 Cd172 2.203 . S
Cd172 O171 2.203 . S
Cd172 O174 2.411 . S
Cd172 O175 2.333 . S
Cd172 O176 2.352 . S
Cd172 O180 2.277 . S
Cd172 O181 2.356 . S
C173 O178 1.209 . S
C173 O180 1.226 . S
O174 Cd170 2.273 . S
O174 Cd172 2.411 . S
O174 C177 1.320 . S
O175 Cd172 2.333 . S
O175 C177 1.214 . S
O176 Cd172 2.352 . S
O176 C179 1.258 . S
C177 O174 1.320 . S
C177 O175 1.214 . S
O178 Cd170 2.277 . S
O178 C173 1.209 . S
C179 O176 1.258 . S
C179 O181 1.282 . S
O180 Cd172 2.277 . S
O180 C173 1.226 . S
O181 Cd172 2.356 . S
O181 C179 1.282 . S
C182 O183 1.306 . S
C182 O185 1.160 . S
O183 C182 1.306 . S
O183 Cd184 2.228 . S
Cd184 O183 2.228 . S
Cd184 O188 2.273 . S
Cd184 O192 2.277 . S
O185 C182 1.160 . S
O185 Cd186 2.203 . S
Cd186 O185 2.203 . S
Cd186 O188 2.411 . S
Cd186 O189 2.333 . S
Cd186 O190 2.352 . S
Cd186 O194 2.277 . S
Cd186 O195 2.356 . S
C187 O192 1.209 . S
C187 O194 1.226 . S
O188 Cd184 2.273 . S
O188 Cd186 2.411 . S
O188 C191 1.320 . S
O189 Cd186 2.333 . S
O189 C191 1.214 . S
O190 Cd186 2.352 . S
O190 C193 1.258 . S
C191 O188 1.320 . S
C191 O189 1.214 . S
O192 Cd184 2.277 . S
O192 C187 1.209 . S
C193 O190 1.258 . S
C193 O195 1.282 . S
O194 Cd186 2.277 . S
O194 C187 1.226 . S
O195 Cd186 2.356 . S
O195 C193 1.282 . S
C196 O197 1.306 . S
C196 O199 1.160 . S
O197 C196 1.306 . S
O197 Cd198 2.228 . S
Cd198 O197 2.228 . S
Cd198 O202 2.273 . S
Cd198 O206 2.277 . S
O199 C196 1.160 . S
O199 Cd200 2.203 . S
Cd200 O199 2.203 . S
Cd200 O202 2.411 . S
Cd200 O203 2.333 . S
Cd200 O204 2.352 . S
Cd200 O208 2.277 . S
Cd200 O209 2.356 . S
C201 O206 1.209 . S
C201 O208 1.226 . S
O202 Cd198 2.273 . S
O202 Cd200 2.411 . S
O202 C205 1.320 . S
O203 Cd200 2.333 . S
O203 C205 1.214 . S
O204 Cd200 2.352 . S
O204 C207 1.258 . S
C205 O202 1.320 . S
C205 O203 1.214 . S
O206 Cd198 2.277 . S
O206 C201 1.209 . S
C207 O204 1.258 . S
C207 O209 1.282 . S
O208 Cd200 2.277 . S
O208 C201 1.226 . S
O209 Cd200 2.356 . S
O209 C207 1.282 . S
C210 O211 1.306 . S
C210 O213 1.160 . S
O211 C210 1.306 . S
O211 Cd212 2.228 . S
Cd212 O211 2.228 . S
Cd212 O216 2.273 . S
Cd212 O220 2.277 . S
O213 C210 1.160 . S
O213 Cd214 2.203 . S
Cd214 O213 2.203 . S
Cd214 O216 2.411 . S
Cd214 O217 2.333 . S
Cd214 O218 2.352 . S
Cd214 O222 2.277 . S
Cd214 O223 2.356 . S
C215 O220 1.209 . S
C215 O222 1.226 . S
O216 Cd212 2.273 . S
O216 Cd214 2.411 . S
O216 C219 1.320 . S
O217 Cd214 2.333 . S
O217 C219 1.214 . S
O218 Cd214 2.352 . S
O218 C221 1.258 . S
C219 O216 1.320 . S
C219 O217 1.214 . S
O220 Cd212 2.277 . S
O220 C215 1.209 . S
C221 O218 1.258 . S
C221 O223 1.282 . S
O222 Cd214 2.277 . S
O222 C215 1.226 . S
O223 Cd214 2.356 . S
O223 C221 1.282 . S
C224 O225 1.306 . S
C224 O227 1.160 . S
O225 C224 1.306 . S
O225 Cd226 2.228 . S
Cd226 O225 2.228 . S
Cd226 O230 2.273 . S
Cd226 O234 2.277 . S
O227 C224 1.160 . S
O227 Cd228 2.203 . S
Cd228 O227 2.203 . S
Cd228 O230 2.411 . S
Cd228 O231 2.333 . S
Cd228 O232 2.352 . S
Cd228 O236 2.277 . S
Cd228 O237 2.356 . S
C229 O234 1.209 . S
C229 O236 1.226 . S
O230 Cd226 2.273 . S
O230 Cd228 2.411 . S
O230 C233 1.320 . S
O231 Cd228 2.333 . S
O231 C233 1.214 . S
O232 Cd228 2.352 . S
O232 C235 1.258 . S
C233 O230 1.320 . S
C233 O231 1.214 . S
O234 Cd226 2.277 . S
O234 C229 1.209 . S
C235 O232 1.258 . S
C235 O237 1.282 . S
O236 Cd228 2.277 . S
O236 C229 1.226 . S
O237 Cd228 2.356 . S
O237 C235 1.282 . S
C238 O239 1.306 . S
C238 O241 1.160 . S
O239 C238 1.306 . S
O239 Cd240 2.228 . S
Cd240 O239 2.228 . S
Cd240 O244 2.273 . S
Cd240 O248 2.277 . S
O241 C238 1.160 . S
O241 Cd242 2.203 . S
Cd242 O241 2.203 . S
Cd242 O244 2.411 . S
Cd242 O245 2.333 . S
Cd242 O246 2.352 . S
Cd242 O250 2.277 . S
Cd242 O251 2.356 . S
C243 O248 1.209 . S
C243 O250 1.226 . S
O244 Cd240 2.273 . S
O244 Cd242 2.411 . S
O244 C247 1.320 . S
O245 Cd242 2.333 . S
O245 C247 1.214 . S
O246 Cd242 2.352 . S
O246 C249 1.258 . S
C247 O244 1.320 . S
C247 O245 1.214 . S
O248 Cd240 2.277 . S
O248 C243 1.209 . S
C249 O246 1.258 . S
C249 O251 1.282 . S
O250 Cd242 2.277 . S
O250 C243 1.226 . S
O251 Cd242 2.356 . S
O251 C249 1.282 . S
C252 C253 1.349 . S
C252 C254 1.327 . S
C252 H277 0.950 . S
C253 C252 1.349 . S
C253 C269 1.349 . S
C254 C252 1.327 . S
C254 C273 1.429 . S
C254 H278 0.950 . S
C255 C272 1.574 . S
C255 C274 1.368 . S
C255 H279 0.949 . S
H256 C260 0.949 . S
C257 C258 1.349 . S
C257 C259 1.327 . S
C257 H280 0.950 . S
C258 C257 1.349 . S
C258 C270 1.349 . S
C259 C257 1.327 . S
C259 C275 1.429 . S
C259 H281 0.950 . S
C260 H256 0.949 . S
C260 C268 1.574 . S
C260 C276 1.368 . S
H261 C269 0.950 . S
H262 C267 0.950 . S
H263 C268 0.949 . S
H264 C270 0.950 . S
H265 C271 0.950 . S
H266 C272 0.949 . S
C267 H262 0.950 . S
C267 C269 1.327 . S
C267 C273 1.429 . S
C268 C260 1.574 . S
C268 H263 0.949 . S
C268 C274 1.368 . S
C269 C253 1.349 . S
C269 H261 0.950 . S
C269 C267 1.327 . S
C270 C258 1.349 . S
C270 H264 0.950 . S
C270 C271 1.327 . S
C271 H265 0.950 . S
C271 C270 1.327 . S
C271 C275 1.429 . S
C272 C255 1.574 . S
C272 H266 0.949 . S
C272 C276 1.368 . S
C273 C254 1.429 . S
C273 C267 1.429 . S
C273 C274 1.523 . S
C274 C255 1.368 . S
C274 C268 1.368 . S
C274 C273 1.523 . S
C275 C259 1.429 . S
C275 C271 1.429 . S
C275 C276 1.523 . S
C276 C260 1.368 . S
C276 C272 1.368 . S
C276 C275 1.523 . S
H277 C252 0.950 . S
H278 C254 0.950 . S
H279 C255 0.949 . S
H280 C257 0.950 . S
H281 C259 0.950 . S
C282 C283 1.349 . S
C282 C284 1.327 . S
C282 H307 0.950 . S
C283 C282 1.349 . S
C283 C299 1.349 . S
C284 C282 1.327 . S
C284 C303 1.429 . S
C284 H308 0.950 . S
C285 C302 1.574 . S
C285 C304 1.368 . S
C285 H309 0.949 . S
H286 C290 0.949 . S
C287 C288 1.349 . S
C287 C289 1.327 . S
C287 H310 0.950 . S
C288 C287 1.349 . S
C288 C300 1.349 . S
C289 C287 1.327 . S
C289 C305 1.429 . S
C289 H311 0.950 . S
C290 H286 0.949 . S
C290 C298 1.574 . S
C290 C306 1.368 . S
H291 C299 0.950 . S
H292 C297 0.950 . S
H293 C298 0.949 . S
H294 C300 0.950 . S
H295 C301 0.950 . S
H296 C302 0.949 . S
C297 H292 0.950 . S
C297 C299 1.327 . S
C297 C303 1.429 . S
C298 C290 1.574 . S
C298 H293 0.949 . S
C298 C304 1.368 . S
C299 C283 1.349 . S
C299 H291 0.950 . S
C299 C297 1.327 . S
C300 C288 1.349 . S
C300 H294 0.950 . S
C300 C301 1.327 . S
C301 H295 0.950 . S
C301 C300 1.327 . S
C301 C305 1.429 . S
C302 C285 1.574 . S
C302 H296 0.949 . S
C302 C306 1.368 . S
C303 C284 1.429 . S
C303 C297 1.429 . S
C303 C304 1.523 . S
C304 C285 1.368 . S
C304 C298 1.368 . S
C304 C303 1.523 . S
C305 C289 1.429 . S
C305 C301 1.429 . S
C305 C306 1.523 . S
C306 C290 1.368 . S
C306 C302 1.368 . S
C306 C305 1.523 . S
H307 C282 0.950 . S
H308 C284 0.950 . S
H309 C285 0.949 . S
H310 C287 0.950 . S
H311 C289 0.950 . S
C312 C313 1.349 . S
C312 C314 1.327 . S
C312 H337 0.950 . S
C313 C312 1.349 . S
C313 C329 1.349 . S
C314 C312 1.327 . S
C314 C333 1.429 . S
C314 H338 0.950 . S
C315 C332 1.574 . S
C315 C334 1.368 . S
C315 H339 0.949 . S
H316 C320 0.949 . S
C317 C318 1.349 . S
C317 C319 1.327 . S
C317 H340 0.950 . S
C318 C317 1.349 . S
C318 C330 1.349 . S
C319 C317 1.327 . S
C319 C335 1.429 . S
C319 H341 0.950 . S
C320 H316 0.949 . S
C320 C328 1.574 . S
C320 C336 1.368 . S
H321 C329 0.950 . S
H322 C327 0.950 . S
H323 C328 0.949 . S
H324 C330 0.950 . S
H325 C331 0.950 . S
H326 C332 0.949 . S
C327 H322 0.950 . S
C327 C329 1.327 . S
C327 C333 1.429 . S
C328 C320 1.574 . S
C328 H323 0.949 . S
C328 C334 1.368 . S
C329 C313 1.349 . S
C329 H321 0.950 . S
C329 C327 1.327 . S
C330 C318 1.349 . S
C330 H324 0.950 . S
C330 C331 1.327 . S
C331 H325 0.950 . S
C331 C330 1.327 . S
C331 C335 1.429 . S
C332 C315 1.574 . S
C332 H326 0.949 . S
C332 C336 1.368 . S
C333 C314 1.429 . S
C333 C327 1.429 . S
C333 C334 1.523 . S
C334 C315 1.368 . S
C334 C328 1.368 . S
C334 C333 1.523 . S
C335 C319 1.429 . S
C335 C331 1.429 . S
C335 C336 1.523 . S
C336 C320 1.368 . S
C336 C332 1.368 . S
C336 C335 1.523 . S
H337 C312 0.950 . S
H338 C314 0.950 . S
H339 C315 0.949 . S
H340 C317 0.950 . S
H341 C319 0.950 . S
C342 C343 1.349 . S
C342 C344 1.327 . S
C342 H367 0.950 . S
C343 C342 1.349 . S
C343 C359 1.349 . S
C344 C342 1.327 . S
C344 C363 1.429 . S
C344 H368 0.950 . S
C345 C362 1.574 . S
C345 C364 1.368 . S
C345 H369 0.949 . S
H346 C350 0.949 . S
C347 C348 1.349 . S
C347 C349 1.327 . S
C347 H370 0.950 . S
C348 C347 1.349 . S
C348 C360 1.349 . S
C349 C347 1.327 . S
C349 C365 1.429 . S
C349 H371 0.950 . S
C350 H346 0.949 . S
C350 C358 1.574 . S
C350 C366 1.368 . S
H351 C359 0.950 . S
H352 C357 0.950 . S
H353 C358 0.949 . S
H354 C360 0.950 . S
H355 C361 0.950 . S
H356 C362 0.949 . S
C357 H352 0.950 . S
C357 C359 1.327 . S
C357 C363 1.429 . S
C358 C350 1.574 . S
C358 H353 0.949 . S
C358 C364 1.368 . S
C359 C343 1.349 . S
C359 H351 0.950 . S
C359 C357 1.327 . S
C360 C348 1.349 . S
C360 H354 0.950 . S
C360 C361 1.327 . S
C361 H355 0.950 . S
C361 C360 1.327 . S
C361 C365 1.429 . S
C362 C345 1.574 . S
C362 H356 0.949 . S
C362 C366 1.368 . S
C363 C344 1.429 . S
C363 C357 1.429 . S
C363 C364 1.523 . S
C364 C345 1.368 . S
C364 C358 1.368 . S
C364 C363 1.523 . S
C365 C349 1.429 . S
C365 C361 1.429 . S
C365 C366 1.523 . S
C366 C350 1.368 . S
C366 C362 1.368 . S
C366 C365 1.523 . S
H367 C342 0.950 . S
H368 C344 0.950 . S
H369 C345 0.949 . S
H370 C347 0.950 . S
H371 C349 0.950 . S
C372 C373 1.349 . S
C372 C374 1.327 . S
C372 H397 0.950 . S
C373 C372 1.349 . S
C373 C389 1.349 . S
C374 C372 1.327 . S
C374 C393 1.429 . S
C374 H398 0.950 . S
C375 C392 1.574 . S
C375 C394 1.368 . S
C375 H399 0.949 . S
H376 C380 0.949 . S
C377 C378 1.349 . S
C377 C379 1.327 . S
C377 H400 0.950 . S
C378 C377 1.349 . S
C378 C390 1.349 . S
C379 C377 1.327 . S
C379 C395 1.429 . S
C379 H401 0.950 . S
C380 H376 0.949 . S
C380 C388 1.574 . S
C380 C396 1.368 . S
H381 C389 0.950 . S
H382 C387 0.950 . S
H383 C388 0.949 . S
H384 C390 0.950 . S
H385 C391 0.950 . S
H386 C392 0.949 . S
C387 H382 0.950 . S
C387 C389 1.327 . S
C387 C393 1.429 . S
C388 C380 1.574 . S
C388 H383 0.949 . S
C388 C394 1.368 . S
C389 C373 1.349 . S
C389 H381 0.950 . S
C389 C387 1.327 . S
C390 C378 1.349 . S
C390 H384 0.950 . S
C390 C391 1.327 . S
C391 H385 0.950 . S
C391 C390 1.327 . S
C391 C395 1.429 . S
C392 C375 1.574 . S
C392 H386 0.949 . S
C392 C396 1.368 . S
C393 C374 1.429 . S
C393 C387 1.429 . S
C393 C394 1.523 . S
C394 C375 1.368 . S
C394 C388 1.368 . S
C394 C393 1.523 . S
C395 C379 1.429 . S
C395 C391 1.429 . S
C395 C396 1.523 . S
C396 C380 1.368 . S
C396 C392 1.368 . S
C396 C395 1.523 . S
H397 C372 0.950 . S
H398 C374 0.950 . S
H399 C375 0.949 . S
H400 C377 0.950 . S
H401 C379 0.950 . S
C402 C403 1.349 . S
C402 C404 1.327 . S
C402 H427 0.950 . S
C403 C402 1.349 . S
C403 C419 1.349 . S
C404 C402 1.327 . S
C404 C423 1.429 . S
C404 H428 0.950 . S
C405 C422 1.574 . S
C405 C424 1.368 . S
C405 H429 0.949 . S
H406 C410 0.949 . S
C407 C408 1.349 . S
C407 C409 1.327 . S
C407 H430 0.950 . S
C408 C407 1.349 . S
C408 C420 1.349 . S
C409 C407 1.327 . S
C409 C425 1.429 . S
C409 H431 0.950 . S
C410 H406 0.949 . S
C410 C418 1.574 . S
C410 C426 1.368 . S
H411 C419 0.950 . S
H412 C417 0.950 . S
H413 C418 0.949 . S
H414 C420 0.950 . S
H415 C421 0.950 . S
H416 C422 0.949 . S
C417 H412 0.950 . S
C417 C419 1.327 . S
C417 C423 1.429 . S
C418 C410 1.574 . S
C418 H413 0.949 . S
C418 C424 1.368 . S
C419 C403 1.349 . S
C419 H411 0.950 . S
C419 C417 1.327 . S
C420 C408 1.349 . S
C420 H414 0.950 . S
C420 C421 1.327 . S
C421 H415 0.950 . S
C421 C420 1.327 . S
C421 C425 1.429 . S
C422 C405 1.574 . S
C422 H416 0.949 . S
C422 C426 1.368 . S
C423 C404 1.429 . S
C423 C417 1.429 . S
C423 C424 1.523 . S
C424 C405 1.368 . S
C424 C418 1.368 . S
C424 C423 1.523 . S
C425 C409 1.429 . S
C425 C421 1.429 . S
C425 C426 1.523 . S
C426 C410 1.368 . S
C426 C422 1.368 . S
C426 C425 1.523 . S
H427 C402 0.950 . S
H428 C404 0.950 . S
H429 C405 0.949 . S
H430 C407 0.950 . S
H431 C409 0.950 . S
C432 C433 1.349 . S
C432 C434 1.327 . S
C432 H457 0.950 . S
C433 C432 1.349 . S
C433 C449 1.349 . S
C434 C432 1.327 . S
C434 C453 1.429 . S
C434 H458 0.950 . S
C435 C452 1.574 1_655 S
C435 C454 1.368 . S
C435 H459 0.949 . S
H436 C440 0.949 . S
C437 C438 1.349 . S
C437 C439 1.327 . S
C437 H460 0.950 . S
C438 C437 1.349 . S
C438 C450 1.349 . S
C439 C437 1.327 . S
C439 C455 1.429 . S
C439 H461 0.950 . S
C440 H436 0.949 . S
C440 C448 1.574 1_455 S
C440 C456 1.368 . S
H441 C449 0.950 . S
H442 C447 0.950 . S
H443 C448 0.949 . S
H444 C450 0.950 . S
H445 C451 0.950 . S
H446 C452 0.949 . S
C447 H442 0.950 . S
C447 C449 1.327 . S
C447 C453 1.429 . S
C448 C440 1.574 1_655 S
C448 H443 0.949 . S
C448 C454 1.368 . S
C449 C433 1.349 . S
C449 H441 0.950 . S
C449 C447 1.327 . S
C450 C438 1.349 . S
C450 H444 0.950 . S
C450 C451 1.327 . S
C451 H445 0.950 . S
C451 C450 1.327 . S
C451 C455 1.429 . S
C452 C435 1.574 1_455 S
C452 H446 0.949 . S
C452 C456 1.368 . S
C453 C434 1.429 . S
C453 C447 1.429 . S
C453 C454 1.523 . S
C454 C435 1.368 . S
C454 C448 1.368 . S
C454 C453 1.523 . S
C455 C439 1.429 . S
C455 C451 1.429 . S
C455 C456 1.523 . S
C456 C440 1.368 . S
C456 C452 1.368 . S
C456 C455 1.523 . S
H457 C432 0.950 . S
H458 C434 0.950 . S
H459 C435 0.949 . S
H460 C437 0.950 . S
H461 C439 0.950 . S
C462 C463 1.349 . S
C462 C464 1.327 . S
C462 H487 0.950 . S
C463 C462 1.349 . S
C463 C479 1.349 . S
C464 C462 1.327 . S
C464 C483 1.429 . S
C464 H488 0.950 . S
C465 C482 1.574 . S
C465 C484 1.368 . S
C465 H489 0.949 . S
H466 C470 0.949 . S
C467 C468 1.349 . S
C467 C469 1.327 . S
C467 H490 0.950 . S
C468 C467 1.349 . S
C468 C480 1.349 . S
C469 C467 1.327 . S
C469 C485 1.429 . S
C469 H491 0.950 . S
C470 H466 0.949 . S
C470 C478 1.574 . S
C470 C486 1.368 . S
H471 C479 0.950 . S
H472 C477 0.950 . S
H473 C478 0.949 . S
H474 C480 0.950 . S
H475 C481 0.950 . S
H476 C482 0.949 . S
C477 H472 0.950 . S
C477 C479 1.327 . S
C477 C483 1.429 . S
C478 C470 1.574 . S
C478 H473 0.949 . S
C478 C484 1.368 . S
C479 C463 1.349 . S
C479 H471 0.950 . S
C479 C477 1.327 . S
C480 C468 1.349 . S
C480 H474 0.950 . S
C480 C481 1.327 . S
C481 H475 0.950 . S
C481 C480 1.327 . S
C481 C485 1.429 . S
C482 C465 1.574 . S
C482 H476 0.949 . S
C482 C486 1.368 . S
C483 C464 1.429 . S
C483 C477 1.429 . S
C483 C484 1.523 . S
C484 C465 1.368 . S
C484 C478 1.368 . S
C484 C483 1.523 . S
C485 C469 1.429 . S
C485 C481 1.429 . S
C485 C486 1.523 . S
C486 C470 1.368 . S
C486 C482 1.368 . S
C486 C485 1.523 . S
H487 C462 0.950 . S
H488 C464 0.950 . S
H489 C465 0.949 . S
H490 C467 0.950 . S
H491 C469 0.950 . S
C492 C493 1.349 . S
C492 C494 1.327 . S
C492 H517 0.950 . S
C493 C492 1.349 . S
C493 C509 1.349 . S
C494 C492 1.327 . S
C494 C513 1.429 . S
C494 H518 0.950 . S
C495 C512 1.574 1_545 S
C495 C514 1.368 . S
C495 H519 0.949 . S
H496 C500 0.949 . S
C497 C498 1.349 . S
C497 C499 1.327 . S
C497 H520 0.950 . S
C498 C497 1.349 . S
C498 C510 1.349 . S
C499 C497 1.327 . S
C499 C515 1.429 . S
C499 H521 0.950 . S
C500 H496 0.949 . S
C500 C508 1.574 1_565 S
C500 C516 1.368 . S
H501 C509 0.950 . S
H502 C507 0.950 . S
H503 C508 0.949 . S
H504 C510 0.950 . S
H505 C511 0.950 . S
H506 C512 0.949 . S
C507 H502 0.950 . S
C507 C509 1.327 . S
C507 C513 1.429 . S
C508 C500 1.574 1_545 S
C508 H503 0.949 . S
C508 C514 1.368 . S
C509 C493 1.349 . S
C509 H501 0.950 . S
C509 C507 1.327 . S
C510 C498 1.349 . S
C510 H504 0.950 . S
C510 C511 1.327 . S
C511 H505 0.950 . S
C511 C510 1.327 . S
C511 C515 1.429 . S
C512 C495 1.574 1_565 S
C512 H506 0.949 . S
C512 C516 1.368 . S
C513 C494 1.429 . S
C513 C507 1.429 . S
C513 C514 1.523 . S
C514 C495 1.368 . S
C514 C508 1.368 . S
C514 C513 1.523 . S
C515 C499 1.429 . S
C515 C511 1.429 . S
C515 C516 1.523 . S
C516 C500 1.368 . S
C516 C512 1.368 . S
C516 C515 1.523 . S
H517 C492 0.950 . S
H518 C494 0.950 . S
H519 C495 0.949 . S
H520 C497 0.950 . S
H521 C499 0.950 . S
C522 C523 1.349 . S
C522 C524 1.327 . S
C522 H547 0.950 . S
C523 C522 1.349 . S
C523 C539 1.349 . S
C524 C522 1.327 . S
C524 C543 1.429 . S
C524 H548 0.950 . S
C525 C542 1.574 1_455 S
C525 C544 1.368 . S
C525 H549 0.949 . S
H526 C530 0.949 . S
C527 C528 1.349 . S
C527 C529 1.327 . S
C527 H550 0.950 . S
C528 C527 1.349 . S
C528 C540 1.349 . S
C529 C527 1.327 . S
C529 C545 1.429 . S
C529 H551 0.950 . S
C530 H526 0.949 . S
C530 C538 1.574 1_655 S
C530 C546 1.368 . S
H531 C539 0.950 . S
H532 C537 0.950 . S
H533 C538 0.949 . S
H534 C540 0.950 . S
H535 C541 0.950 . S
H536 C542 0.949 . S
C537 H532 0.950 . S
C537 C539 1.327 . S
C537 C543 1.429 . S
C538 C530 1.574 1_455 S
C538 H533 0.949 . S
C538 C544 1.368 . S
C539 C523 1.349 . S
C539 H531 0.950 . S
C539 C537 1.327 . S
C540 C528 1.349 . S
C540 H534 0.950 . S
C540 C541 1.327 . S
C541 H535 0.950 . S
C541 C540 1.327 . S
C541 C545 1.429 . S
C542 C525 1.574 1_655 S
C542 H536 0.949 . S
C542 C546 1.368 . S
C543 C524 1.429 . S
C543 C537 1.429 . S
C543 C544 1.523 . S
C544 C525 1.368 . S
C544 C538 1.368 . S
C544 C543 1.523 . S
C545 C529 1.429 . S
C545 C541 1.429 . S
C545 C546 1.523 . S
C546 C530 1.368 . S
C546 C542 1.368 . S
C546 C545 1.523 . S
H547 C522 0.950 . S
H548 C524 0.950 . S
H549 C525 0.949 . S
H550 C527 0.950 . S
H551 C529 0.950 . S
C552 C553 1.349 . S
C552 C554 1.327 . S
C552 H577 0.950 . S
C553 C552 1.349 . S
C553 C569 1.349 . S
C554 C552 1.327 . S
C554 C573 1.429 . S
C554 H578 0.950 . S
C555 C572 1.574 . S
C555 C574 1.368 . S
C555 H579 0.949 . S
H556 C560 0.949 . S
C557 C558 1.349 . S
C557 C559 1.327 . S
C557 H580 0.950 . S
C558 C557 1.349 . S
C558 C570 1.349 . S
C559 C557 1.327 . S
C559 C575 1.429 . S
C559 H581 0.950 . S
C560 H556 0.949 . S
C560 C568 1.574 . S
C560 C576 1.368 . S
H561 C569 0.950 . S
H562 C567 0.950 . S
H563 C568 0.949 . S
H564 C570 0.950 . S
H565 C571 0.950 . S
H566 C572 0.949 . S
C567 H562 0.950 . S
C567 C569 1.327 . S
C567 C573 1.429 . S
C568 C560 1.574 . S
C568 H563 0.949 . S
C568 C574 1.368 . S
C569 C553 1.349 . S
C569 H561 0.950 . S
C569 C567 1.327 . S
C570 C558 1.349 . S
C570 H564 0.950 . S
C570 C571 1.327 . S
C571 H565 0.950 . S
C571 C570 1.327 . S
C571 C575 1.429 . S
C572 C555 1.574 . S
C572 H566 0.949 . S
C572 C576 1.368 . S
C573 C554 1.429 . S
C573 C567 1.429 . S
C573 C574 1.523 . S
C574 C555 1.368 . S
C574 C568 1.368 . S
C574 C573 1.523 . S
C575 C559 1.429 . S
C575 C571 1.429 . S
C575 C576 1.523 . S
C576 C560 1.368 . S
C576 C572 1.368 . S
C576 C575 1.523 . S
H577 C552 0.950 . S
H578 C554 0.950 . S
H579 C555 0.949 . S
H580 C557 0.950 . S
H581 C559 0.950 . S
C582 C583 1.349 . S
C582 C584 1.327 . S
C582 H607 0.950 . S
C583 C582 1.349 . S
C583 C599 1.349 . S
C584 C582 1.327 . S
C584 C603 1.429 . S
C584 H608 0.950 . S
C585 C602 1.574 1_545 S
C585 C604 1.368 . S
C585 H609 0.949 . S
H586 C590 0.949 . S
C587 C588 1.349 . S
C587 C589 1.327 . S
C587 H610 0.950 . S
C588 C587 1.349 . S
C588 C600 1.349 . S
C589 C587 1.327 . S
C589 C605 1.429 . S
C589 H611 0.950 . S
C590 H586 0.949 . S
C590 C598 1.574 1_565 S
C590 C606 1.368 . S
H591 C599 0.950 . S
H592 C597 0.950 . S
H593 C598 0.949 . S
H594 C600 0.950 . S
H595 C601 0.950 . S
H596 C602 0.949 . S
C597 H592 0.950 . S
C597 C599 1.327 . S
C597 C603 1.429 . S
C598 C590 1.574 1_545 S
C598 H593 0.949 . S
C598 C604 1.368 . S
C599 C583 1.349 . S
C599 H591 0.950 . S
C599 C597 1.327 . S
C600 C588 1.349 . S
C600 H594 0.950 . S
C600 C601 1.327 . S
C601 H595 0.950 . S
C601 C600 1.327 . S
C601 C605 1.429 . S
C602 C585 1.574 1_565 S
C602 H596 0.949 . S
C602 C606 1.368 . S
C603 C584 1.429 . S
C603 C597 1.429 . S
C603 C604 1.523 . S
C604 C585 1.368 . S
C604 C598 1.368 . S
C604 C603 1.523 . S
C605 C589 1.429 . S
C605 C601 1.429 . S
C605 C606 1.523 . S
C606 C590 1.368 . S
C606 C602 1.368 . S
C606 C605 1.523 . S
H607 C582 0.950 . S
H608 C584 0.950 . S
H609 C585 0.949 . S
H610 C587 0.950 . S
H611 C589 0.950 . S
C612 C613 1.349 . S
C612 C614 1.327 . S
C612 H637 0.950 . S
C613 C612 1.349 . S
C613 C629 1.349 . S
C614 C612 1.327 . S
C614 C633 1.429 . S
C614 H638 0.950 . S
C615 C632 1.574 1_565 S
C615 C634 1.368 . S
C615 H639 0.949 . S
H616 C620 0.949 . S
C617 C618 1.349 . S
C617 C619 1.327 . S
C617 H640 0.950 . S
C618 C617 1.349 . S
C618 C630 1.349 . S
C619 C617 1.327 . S
C619 C635 1.429 . S
C619 H641 0.950 . S
C620 H616 0.949 . S
C620 C628 1.574 1_545 S
C620 C636 1.368 . S
H621 C629 0.950 . S
H622 C627 0.950 . S
H623 C628 0.949 . S
H624 C630 0.950 . S
H625 C631 0.950 . S
H626 C632 0.949 . S
C627 H622 0.950 . S
C627 C629 1.327 . S
C627 C633 1.429 . S
C628 C620 1.574 1_565 S
C628 H623 0.949 . S
C628 C634 1.368 . S
C629 C613 1.349 . S
C629 H621 0.950 . S
C629 C627 1.327 . S
C630 C618 1.349 . S
C630 H624 0.950 . S
C630 C631 1.327 . S
C631 H625 0.950 . S
C631 C630 1.327 . S
C631 C635 1.429 . S
C632 C615 1.574 1_545 S
C632 H626 0.949 . S
C632 C636 1.368 . S
C633 C614 1.429 . S
C633 C627 1.429 . S
C633 C634 1.523 . S
C634 C615 1.368 . S
C634 C628 1.368 . S
C634 C633 1.523 . S
C635 C619 1.429 . S
C635 C631 1.429 . S
C635 C636 1.523 . S
C636 C620 1.368 . S
C636 C632 1.368 . S
C636 C635 1.523 . S
H637 C612 0.950 . S
H638 C614 0.950 . S
H639 C615 0.949 . S
H640 C617 0.950 . S
H641 C619 0.950 . S
C642 C643 1.349 . S
C642 C644 1.327 . S
C642 H667 0.950 . S
C643 C642 1.349 . S
C643 C659 1.349 . S
C644 C642 1.327 . S
C644 C663 1.429 . S
C644 H668 0.950 . S
C645 C662 1.574 1_455 S
C645 C664 1.368 . S
C645 H669 0.949 . S
H646 C650 0.949 . S
C647 C648 1.349 . S
C647 C649 1.327 . S
C647 H670 0.950 . S
C648 C647 1.349 . S
C648 C660 1.349 . S
C649 C647 1.327 . S
C649 C665 1.429 . S
C649 H671 0.950 . S
C650 H646 0.949 . S
C650 C658 1.574 1_655 S
C650 C666 1.368 . S
H651 C659 0.950 . S
H652 C657 0.950 . S
H653 C658 0.949 . S
H654 C660 0.950 . S
H655 C661 0.950 . S
H656 C662 0.949 . S
C657 H652 0.950 . S
C657 C659 1.327 . S
C657 C663 1.429 . S
C658 C650 1.574 1_455 S
C658 H653 0.949 . S
C658 C664 1.368 . S
C659 C643 1.349 . S
C659 H651 0.950 . S
C659 C657 1.327 . S
C660 C648 1.349 . S
C660 H654 0.950 . S
C660 C661 1.327 . S
C661 H655 0.950 . S
C661 C660 1.327 . S
C661 C665 1.429 . S
C662 C645 1.574 1_655 S
C662 H656 0.949 . S
C662 C666 1.368 . S
C663 C644 1.429 . S
C663 C657 1.429 . S
C663 C664 1.523 . S
C664 C645 1.368 . S
C664 C658 1.368 . S
C664 C663 1.523 . S
C665 C649 1.429 . S
C665 C661 1.429 . S
C665 C666 1.523 . S
C666 C650 1.368 . S
C666 C662 1.368 . S
C666 C665 1.523 . S
H667 C642 0.950 . S
H668 C644 0.950 . S
H669 C645 0.949 . S
H670 C647 0.950 . S
H671 C649 0.950 . S
C672 C673 1.349 . S
C672 C674 1.327 . S
C672 H697 0.950 . S
C673 C672 1.349 . S
C673 C689 1.349 . S
C674 C672 1.327 . S
C674 C693 1.429 . S
C674 H698 0.950 . S
C675 C692 1.574 . S
C675 C694 1.368 . S
C675 H699 0.949 . S
H676 C680 0.949 . S
C677 C678 1.349 . S
C677 C679 1.327 . S
C677 H700 0.950 . S
C678 C677 1.349 . S
C678 C690 1.349 . S
C679 C677 1.327 . S
C679 C695 1.429 . S
C679 H701 0.950 . S
C680 H676 0.949 . S
C680 C688 1.574 . S
C680 C696 1.368 . S
H681 C689 0.950 . S
H682 C687 0.950 . S
H683 C688 0.949 . S
H684 C690 0.950 . S
H685 C691 0.950 . S
H686 C692 0.949 . S
C687 H682 0.950 . S
C687 C689 1.327 . S
C687 C693 1.429 . S
C688 C680 1.574 . S
C688 H683 0.949 . S
C688 C694 1.368 . S
C689 C673 1.349 . S
C689 H681 0.950 . S
C689 C687 1.327 . S
C690 C678 1.349 . S
C690 H684 0.950 . S
C690 C691 1.327 . S
C691 H685 0.950 . S
C691 C690 1.327 . S
C691 C695 1.429 . S
C692 C675 1.574 . S
C692 H686 0.949 . S
C692 C696 1.368 . S
C693 C674 1.429 . S
C693 C687 1.429 . S
C693 C694 1.523 . S
C694 C675 1.368 . S
C694 C688 1.368 . S
C694 C693 1.523 . S
C695 C679 1.429 . S
C695 C691 1.429 . S
C695 C696 1.523 . S
C696 C680 1.368 . S
C696 C692 1.368 . S
C696 C695 1.523 . S
H697 C672 0.950 . S
H698 C674 0.950 . S
H699 C675 0.949 . S
H700 C677 0.950 . S
H701 C679 0.950 . S
C702 C703 1.349 . S
C702 C704 1.327 . S
C702 H727 0.950 . S
C703 C702 1.349 . S
C703 C719 1.349 . S
C704 C702 1.327 . S
C704 C723 1.429 . S
C704 H728 0.950 . S
C705 C722 1.574 . S
C705 C724 1.368 . S
C705 H729 0.949 . S
H706 C710 0.949 . S
C707 C708 1.349 . S
C707 C709 1.327 . S
C707 H730 0.950 . S
C708 C707 1.349 . S
C708 C720 1.349 . S
C709 C707 1.327 . S
C709 C725 1.429 . S
C709 H731 0.950 . S
C710 H706 0.949 . S
C710 C718 1.574 . S
C710 C726 1.368 . S
H711 C719 0.950 . S
H712 C717 0.950 . S
H713 C718 0.949 . S
H714 C720 0.950 . S
H715 C721 0.950 . S
H716 C722 0.949 . S
C717 H712 0.950 . S
C717 C719 1.327 . S
C717 C723 1.429 . S
C718 C710 1.574 . S
C718 H713 0.949 . S
C718 C724 1.368 . S
C719 C703 1.349 . S
C719 H711 0.950 . S
C719 C717 1.327 . S
C720 C708 1.349 . S
C720 H714 0.950 . S
C720 C721 1.327 . S
C721 H715 0.950 . S
C721 C720 1.327 . S
C721 C725 1.429 . S
C722 C705 1.574 . S
C722 H716 0.949 . S
C722 C726 1.368 . S
C723 C704 1.429 . S
C723 C717 1.429 . S
C723 C724 1.523 . S
C724 C705 1.368 . S
C724 C718 1.368 . S
C724 C723 1.523 . S
C725 C709 1.429 . S
C725 C721 1.429 . S
C725 C726 1.523 . S
C726 C710 1.368 . S
C726 C722 1.368 . S
C726 C725 1.523 . S
H727 C702 0.950 . S
H728 C704 0.950 . S
H729 C705 0.949 . S
H730 C707 0.950 . S
H731 C709 0.950 . S
C732 C733 1.349 . S
C732 C734 1.327 . S
C732 H757 0.950 . S
C733 C732 1.349 . S
C733 C749 1.349 . S
C734 C732 1.327 . S
C734 C753 1.429 . S
C734 H758 0.950 . S
C735 C752 1.574 . S
C735 C754 1.368 . S
C735 H759 0.949 . S
H736 C740 0.949 . S
C737 C738 1.349 . S
C737 C739 1.327 . S
C737 H760 0.950 . S
C738 C737 1.349 . S
C738 C750 1.349 . S
C739 C737 1.327 . S
C739 C755 1.429 . S
C739 H761 0.950 . S
C740 H736 0.949 . S
C740 C748 1.574 . S
C740 C756 1.368 . S
H741 C749 0.950 . S
H742 C747 0.950 . S
H743 C748 0.949 . S
H744 C750 0.950 . S
H745 C751 0.950 . S
H746 C752 0.949 . S
C747 H742 0.950 . S
C747 C749 1.327 . S
C747 C753 1.429 . S
C748 C740 1.574 . S
C748 H743 0.949 . S
C748 C754 1.368 . S
C749 C733 1.349 . S
C749 H741 0.950 . S
C749 C747 1.327 . S
C750 C738 1.349 . S
C750 H744 0.950 . S
C750 C751 1.327 . S
C751 H745 0.950 . S
C751 C750 1.327 . S
C751 C755 1.429 . S
C752 C735 1.574 . S
C752 H746 0.949 . S
C752 C756 1.368 . S
C753 C734 1.429 . S
C753 C747 1.429 . S
C753 C754 1.523 . S
C754 C735 1.368 . S
C754 C748 1.368 . S
C754 C753 1.523 . S
C755 C739 1.429 . S
C755 C751 1.429 . S
C755 C756 1.523 . S
C756 C740 1.368 . S
C756 C752 1.368 . S
C756 C755 1.523 . S
H757 C732 0.950 . S
H758 C734 0.950 . S
H759 C735 0.949 . S
H760 C737 0.950 . S
H761 C739 0.950 . S
C762 C763 1.349 . S
C762 C764 1.327 . S
C762 H787 0.950 . S
C763 C762 1.349 . S
C763 C779 1.349 . S
C764 C762 1.327 . S
C764 C783 1.429 . S
C764 H788 0.950 . S
C765 C782 1.574 . S
C765 C784 1.368 . S
C765 H789 0.949 . S
H766 C770 0.949 . S
C767 C768 1.349 . S
C767 C769 1.327 . S
C767 H790 0.950 . S
C768 C767 1.349 . S
C768 C780 1.349 . S
C769 C767 1.327 . S
C769 C785 1.429 . S
C769 H791 0.950 . S
C770 H766 0.949 . S
C770 C778 1.574 . S
C770 C786 1.368 . S
H771 C779 0.950 . S
H772 C777 0.950 . S
H773 C778 0.949 . S
H774 C780 0.950 . S
H775 C781 0.950 . S
H776 C782 0.949 . S
C777 H772 0.950 . S
C777 C779 1.327 . S
C777 C783 1.429 . S
C778 C770 1.574 . S
C778 H773 0.949 . S
C778 C784 1.368 . S
C779 C763 1.349 . S
C779 H771 0.950 . S
C779 C777 1.327 . S
C780 C768 1.349 . S
C780 H774 0.950 . S
C780 C781 1.327 . S
C781 H775 0.950 . S
C781 C780 1.327 . S
C781 C785 1.429 . S
C782 C765 1.574 . S
C782 H776 0.949 . S
C782 C786 1.368 . S
C783 C764 1.429 . S
C783 C777 1.429 . S
C783 C784 1.523 . S
C784 C765 1.368 . S
C784 C778 1.368 . S
C784 C783 1.523 . S
C785 C769 1.429 . S
C785 C781 1.429 . S
C785 C786 1.523 . S
C786 C770 1.368 . S
C786 C782 1.368 . S
C786 C785 1.523 . S
H787 C762 0.950 . S
H788 C764 0.950 . S
H789 C765 0.949 . S
H790 C767 0.950 . S
H791 C769 0.950 . S
C792 C793 1.349 . S
C792 C794 1.327 . S
C792 H817 0.950 . S
C793 C792 1.349 . S
C793 C809 1.349 . S
C794 C792 1.327 . S
C794 C813 1.429 . S
C794 H818 0.950 . S
C795 C812 1.574 . S
C795 C814 1.368 . S
C795 H819 0.949 . S
H796 C800 0.949 . S
C797 C798 1.349 . S
C797 C799 1.327 . S
C797 H820 0.950 . S
C798 C797 1.349 . S
C798 C810 1.349 . S
C799 C797 1.327 . S
C799 C815 1.429 . S
C799 H821 0.950 . S
C800 H796 0.949 . S
C800 C808 1.574 . S
C800 C816 1.368 . S
H801 C809 0.950 . S
H802 C807 0.950 . S
H803 C808 0.949 . S
H804 C810 0.950 . S
H805 C811 0.950 . S
H806 C812 0.949 . S
C807 H802 0.950 . S
C807 C809 1.327 . S
C807 C813 1.429 . S
C808 C800 1.574 . S
C808 H803 0.949 . S
C808 C814 1.368 . S
C809 C793 1.349 . S
C809 H801 0.950 . S
C809 C807 1.327 . S
C810 C798 1.349 . S
C810 H804 0.950 . S
C810 C811 1.327 . S
C811 H805 0.950 . S
C811 C810 1.327 . S
C811 C815 1.429 . S
C812 C795 1.574 . S
C812 H806 0.949 . S
C812 C816 1.368 . S
C813 C794 1.429 . S
C813 C807 1.429 . S
C813 C814 1.523 . S
C814 C795 1.368 . S
C814 C808 1.368 . S
C814 C813 1.523 . S
C815 C799 1.429 . S
C815 C811 1.429 . S
C815 C816 1.523 . S
C816 C800 1.368 . S
C816 C812 1.368 . S
C816 C815 1.523 . S
H817 C792 0.950 . S
H818 C794 0.950 . S
H819 C795 0.949 . S
H820 C797 0.950 . S
H821 C799 0.950 . S
C822 C823 1.349 . S
C822 C824 1.327 . S
C822 H847 0.950 . S
C823 C822 1.349 . S
C823 C839 1.349 . S
C824 C822 1.327 . S
C824 C843 1.429 . S
C824 H848 0.950 . S
C825 C842 1.574 . S
C825 C844 1.368 . S
C825 H849 0.949 . S
H826 C830 0.949 . S
C827 C828 1.349 . S
C827 C829 1.327 . S
C827 H850 0.950 . S
C828 C827 1.349 . S
C828 C840 1.349 . S
C829 C827 1.327 . S
C829 C845 1.429 . S
C829 H851 0.950 . S
C830 H826 0.949 . S
C830 C838 1.574 . S
C830 C846 1.368 . S
H831 C839 0.950 . S
H832 C837 0.950 . S
H833 C838 0.949 . S
H834 C840 0.950 . S
H835 C841 0.950 . S
H836 C842 0.949 . S
C837 H832 0.950 . S
C837 C839 1.327 . S
C837 C843 1.429 . S
C838 C830 1.574 . S
C838 H833 0.949 . S
C838 C844 1.368 . S
C839 C823 1.349 . S
C839 H831 0.950 . S
C839 C837 1.327 . S
C840 C828 1.349 . S
C840 H834 0.950 . S
C840 C841 1.327 . S
C841 H835 0.950 . S
C841 C840 1.327 . S
C841 C845 1.429 . S
C842 C825 1.574 . S
C842 H836 0.949 . S
C842 C846 1.368 . S
C843 C824 1.429 . S
C843 C837 1.429 . S
C843 C844 1.523 . S
C844 C825 1.368 . S
C844 C838 1.368 . S
C844 C843 1.523 . S
C845 C829 1.429 . S
C845 C841 1.429 . S
C845 C846 1.523 . S
C846 C830 1.368 . S
C846 C842 1.368 . S
C846 C845 1.523 . S
H847 C822 0.950 . S
H848 C824 0.950 . S
H849 C825 0.949 . S
H850 C827 0.950 . S
H851 C829 0.950 . S
C852 C853 1.349 . S
C852 C854 1.327 . S
C852 H877 0.950 . S
C853 C852 1.349 . S
C853 C869 1.349 . S
C854 C852 1.327 . S
C854 C873 1.429 . S
C854 H878 0.950 . S
C855 C872 1.574 . S
C855 C874 1.368 . S
C855 H879 0.949 . S
H856 C860 0.949 . S
C857 C858 1.349 . S
C857 C859 1.327 . S
C857 H880 0.950 . S
C858 C857 1.349 . S
C858 C870 1.349 . S
C859 C857 1.327 . S
C859 C875 1.429 . S
C859 H881 0.950 . S
C860 H856 0.949 . S
C860 C868 1.574 . S
C860 C876 1.368 . S
H861 C869 0.950 . S
H862 C867 0.950 . S
H863 C868 0.949 . S
H864 C870 0.950 . S
H865 C871 0.950 . S
H866 C872 0.949 . S
C867 H862 0.950 . S
C867 C869 1.327 . S
C867 C873 1.429 . S
C868 C860 1.574 . S
C868 H863 0.949 . S
C868 C874 1.368 . S
C869 C853 1.349 . S
C869 H861 0.950 . S
C869 C867 1.327 . S
C870 C858 1.349 . S
C870 H864 0.950 . S
C870 C871 1.327 . S
C871 H865 0.950 . S
C871 C870 1.327 . S
C871 C875 1.429 . S
C872 C855 1.574 . S
C872 H866 0.949 . S
C872 C876 1.368 . S
C873 C854 1.429 . S
C873 C867 1.429 . S
C873 C874 1.523 . S
C874 C855 1.368 . S
C874 C868 1.368 . S
C874 C873 1.523 . S
C875 C859 1.429 . S
C875 C871 1.429 . S
C875 C876 1.523 . S
C876 C860 1.368 . S
C876 C872 1.368 . S
C876 C875 1.523 . S
H877 C852 0.950 . S
H878 C854 0.950 . S
H879 C855 0.949 . S
H880 C857 0.950 . S
H881 C859 0.950 . S
C882 C883 1.349 . S
C882 C884 1.327 . S
C882 H907 0.950 . S
C883 C882 1.349 . S
C883 C899 1.349 . S
C884 C882 1.327 . S
C884 C903 1.429 . S
C884 H908 0.950 . S
C885 C902 1.574 . S
C885 C904 1.368 . S
C885 H909 0.949 . S
H886 C890 0.949 . S
C887 C888 1.349 . S
C887 C889 1.327 . S
C887 H910 0.950 . S
C888 C887 1.349 . S
C888 C900 1.349 . S
C889 C887 1.327 . S
C889 C905 1.429 . S
C889 H911 0.950 . S
C890 H886 0.949 . S
C890 C898 1.574 . S
C890 C906 1.368 . S
H891 C899 0.950 . S
H892 C897 0.950 . S
H893 C898 0.949 . S
H894 C900 0.950 . S
H895 C901 0.950 . S
H896 C902 0.949 . S
C897 H892 0.950 . S
C897 C899 1.327 . S
C897 C903 1.429 . S
C898 C890 1.574 . S
C898 H893 0.949 . S
C898 C904 1.368 . S
C899 C883 1.349 . S
C899 H891 0.950 . S
C899 C897 1.327 . S
C900 C888 1.349 . S
C900 H894 0.950 . S
C900 C901 1.327 . S
C901 H895 0.950 . S
C901 C900 1.327 . S
C901 C905 1.429 . S
C902 C885 1.574 . S
C902 H896 0.949 . S
C902 C906 1.368 . S
C903 C884 1.429 . S
C903 C897 1.429 . S
C903 C904 1.523 . S
C904 C885 1.368 . S
C904 C898 1.368 . S
C904 C903 1.523 . S
C905 C889 1.429 . S
C905 C901 1.429 . S
C905 C906 1.523 . S
C906 C890 1.368 . S
C906 C902 1.368 . S
C906 C905 1.523 . S
H907 C882 0.950 . S
H908 C884 0.950 . S
H909 C885 0.949 . S
H910 C887 0.950 . S
H911 C889 0.950 . S
C912 C913 1.349 . S
C912 C914 1.327 . S
C912 H937 0.950 . S
C913 C912 1.349 . S
C913 C929 1.349 . S
C914 C912 1.327 . S
C914 C933 1.429 . S
C914 H938 0.950 . S
C915 C932 1.574 . S
C915 C934 1.368 . S
C915 H939 0.949 . S
H916 C920 0.949 . S
C917 C918 1.349 . S
C917 C919 1.327 . S
C917 H940 0.950 . S
C918 C917 1.349 . S
C918 C930 1.349 . S
C919 C917 1.327 . S
C919 C935 1.429 . S
C919 H941 0.950 . S
C920 H916 0.949 . S
C920 C928 1.574 . S
C920 C936 1.368 . S
H921 C929 0.950 . S
H922 C927 0.950 . S
H923 C928 0.949 . S
H924 C930 0.950 . S
H925 C931 0.950 . S
H926 C932 0.949 . S
C927 H922 0.950 . S
C927 C929 1.327 . S
C927 C933 1.429 . S
C928 C920 1.574 . S
C928 H923 0.949 . S
C928 C934 1.368 . S
C929 C913 1.349 . S
C929 H921 0.950 . S
C929 C927 1.327 . S
C930 C918 1.349 . S
C930 H924 0.950 . S
C930 C931 1.327 . S
C931 H925 0.950 . S
C931 C930 1.327 . S
C931 C935 1.429 . S
C932 C915 1.574 . S
C932 H926 0.949 . S
C932 C936 1.368 . S
C933 C914 1.429 . S
C933 C927 1.429 . S
C933 C934 1.523 . S
C934 C915 1.368 . S
C934 C928 1.368 . S
C934 C933 1.523 . S
C935 C919 1.429 . S
C935 C931 1.429 . S
C935 C936 1.523 . S
C936 C920 1.368 . S
C936 C932 1.368 . S
C936 C935 1.523 . S
H937 C912 0.950 . S
H938 C914 0.950 . S
H939 C915 0.949 . S
H940 C917 0.950 . S
H941 C919 0.950 . S
C942 C943 1.349 . S
C942 C944 1.327 . S
C942 H967 0.950 . S
C943 C942 1.349 . S
C943 C959 1.349 . S
C944 C942 1.327 . S
C944 C963 1.429 . S
C944 H968 0.950 . S
C945 C962 1.574 . S
C945 C964 1.368 . S
C945 H969 0.949 . S
H946 C950 0.949 . S
C947 C948 1.349 . S
C947 C949 1.327 . S
C947 H970 0.950 . S
C948 C947 1.349 . S
C948 C960 1.349 . S
C949 C947 1.327 . S
C949 C965 1.429 . S
C949 H971 0.950 . S
C950 H946 0.949 . S
C950 C958 1.574 . S
C950 C966 1.368 . S
H951 C959 0.950 . S
H952 C957 0.950 . S
H953 C958 0.949 . S
H954 C960 0.950 . S
H955 C961 0.950 . S
H956 C962 0.949 . S
C957 H952 0.950 . S
C957 C959 1.327 . S
C957 C963 1.429 . S
C958 C950 1.574 . S
C958 H953 0.949 . S
C958 C964 1.368 . S
C959 C943 1.349 . S
C959 H951 0.950 . S
C959 C957 1.327 . S
C960 C948 1.349 . S
C960 H954 0.950 . S
C960 C961 1.327 . S
C961 H955 0.950 . S
C961 C960 1.327 . S
C961 C965 1.429 . S
C962 C945 1.574 . S
C962 H956 0.949 . S
C962 C966 1.368 . S
C963 C944 1.429 . S
C963 C957 1.429 . S
C963 C964 1.523 . S
C964 C945 1.368 . S
C964 C958 1.368 . S
C964 C963 1.523 . S
C965 C949 1.429 . S
C965 C961 1.429 . S
C965 C966 1.523 . S
C966 C950 1.368 . S
C966 C962 1.368 . S
C966 C965 1.523 . S
H967 C942 0.950 . S
H968 C944 0.950 . S
H969 C945 0.949 . S
H970 C947 0.950 . S
H971 C949 0.950 . S
C972 C973 1.349 . S
C972 C974 1.327 . S
C972 H997 0.950 . S
C973 C972 1.349 . S
C973 C989 1.349 . S
C974 C972 1.327 . S
C974 C993 1.429 . S
C974 H998 0.950 . S
C975 C992 1.574 . S
C975 C994 1.368 . S
C975 H999 0.949 . S
H976 C980 0.949 . S
C977 C978 1.349 . S
C977 C979 1.327 . S
C977 H1000 0.950 . S
C978 C977 1.349 . S
C978 C990 1.349 . S
C979 C977 1.327 . S
C979 C995 1.429 . S
C979 H1001 0.950 . S
C980 H976 0.949 . S
C980 C988 1.574 . S
C980 C996 1.368 . S
H981 C989 0.950 . S
H982 C987 0.950 . S
H983 C988 0.949 . S
H984 C990 0.950 . S
H985 C991 0.950 . S
H986 C992 0.949 . S
C987 H982 0.950 . S
C987 C989 1.327 . S
C987 C993 1.429 . S
C988 C980 1.574 . S
C988 H983 0.949 . S
C988 C994 1.368 . S
C989 C973 1.349 . S
C989 H981 0.950 . S
C989 C987 1.327 . S
C990 C978 1.349 . S
C990 H984 0.950 . S
C990 C991 1.327 . S
C991 H985 0.950 . S
C991 C990 1.327 . S
C991 C995 1.429 . S
C992 C975 1.574 . S
C992 H986 0.949 . S
C992 C996 1.368 . S
C993 C974 1.429 . S
C993 C987 1.429 . S
C993 C994 1.523 . S
C994 C975 1.368 . S
C994 C988 1.368 . S
C994 C993 1.523 . S
C995 C979 1.429 . S
C995 C991 1.429 . S
C995 C996 1.523 . S
C996 C980 1.368 . S
C996 C992 1.368 . S
C996 C995 1.523 . S
H997 C972 0.950 . S
H998 C974 0.950 . S
H999 C975 0.949 . S
H1000 C977 0.950 . S
H1001 C979 0.950 . S
C1002 C1003 1.349 . S
C1002 C1004 1.327 . S
C1002 H1027 0.950 . S
C1003 C1002 1.349 . S
C1003 C1019 1.349 . S
C1004 C1002 1.327 . S
C1004 C1023 1.429 . S
C1004 H1028 0.950 . S
C1005 C1022 1.574 . S
C1005 C1024 1.368 . S
C1005 H1029 0.949 . S
H1006 C1010 0.949 . S
C1007 C1008 1.349 . S
C1007 C1009 1.327 . S
C1007 H1030 0.950 . S
C1008 C1007 1.349 . S
C1008 C1020 1.349 . S
C1009 C1007 1.327 . S
C1009 C1025 1.429 . S
C1009 H1031 0.950 . S
C1010 H1006 0.949 . S
C1010 C1018 1.574 . S
C1010 C1026 1.368 . S
H1011 C1019 0.950 . S
H1012 C1017 0.950 . S
H1013 C1018 0.949 . S
H1014 C1020 0.950 . S
H1015 C1021 0.950 . S
H1016 C1022 0.949 . S
C1017 H1012 0.950 . S
C1017 C1019 1.327 . S
C1017 C1023 1.429 . S
C1018 C1010 1.574 . S
C1018 H1013 0.949 . S
C1018 C1024 1.368 . S
C1019 C1003 1.349 . S
C1019 H1011 0.950 . S
C1019 C1017 1.327 . S
C1020 C1008 1.349 . S
C1020 H1014 0.950 . S
C1020 C1021 1.327 . S
C1021 H1015 0.950 . S
C1021 C1020 1.327 . S
C1021 C1025 1.429 . S
C1022 C1005 1.574 . S
C1022 H1016 0.949 . S
C1022 C1026 1.368 . S
C1023 C1004 1.429 . S
C1023 C1017 1.429 . S
C1023 C1024 1.523 . S
C1024 C1005 1.368 . S
C1024 C1018 1.368 . S
C1024 C1023 1.523 . S
C1025 C1009 1.429 . S
C1025 C1021 1.429 . S
C1025 C1026 1.523 . S
C1026 C1010 1.368 . S
C1026 C1022 1.368 . S
C1026 C1025 1.523 . S
H1027 C1002 0.950 . S
H1028 C1004 0.950 . S
H1029 C1005 0.949 . S
H1030 C1007 0.950 . S
H1031 C1009 0.950 . S
C1032 C1033 1.349 . S
C1032 C1034 1.327 . S
C1032 H1057 0.950 . S
C1033 C1032 1.349 . S
C1033 C1049 1.349 . S
C1034 C1032 1.327 . S
C1034 C1053 1.429 . S
C1034 H1058 0.950 . S
C1035 C1052 1.574 . S
C1035 C1054 1.368 . S
C1035 H1059 0.949 . S
H1036 C1040 0.949 . S
C1037 C1038 1.349 . S
C1037 C1039 1.327 . S
C1037 H1060 0.950 . S
C1038 C1037 1.349 . S
C1038 C1050 1.349 . S
C1039 C1037 1.327 . S
C1039 C1055 1.429 . S
C1039 H1061 0.950 . S
C1040 H1036 0.949 . S
C1040 C1048 1.574 . S
C1040 C1056 1.368 . S
H1041 C1049 0.950 . S
H1042 C1047 0.950 . S
H1043 C1048 0.949 . S
H1044 C1050 0.950 . S
H1045 C1051 0.950 . S
H1046 C1052 0.949 . S
C1047 H1042 0.950 . S
C1047 C1049 1.327 . S
C1047 C1053 1.429 . S
C1048 C1040 1.574 . S
C1048 H1043 0.949 . S
C1048 C1054 1.368 . S
C1049 C1033 1.349 . S
C1049 H1041 0.950 . S
C1049 C1047 1.327 . S
C1050 C1038 1.349 . S
C1050 H1044 0.950 . S
C1050 C1051 1.327 . S
C1051 H1045 0.950 . S
C1051 C1050 1.327 . S
C1051 C1055 1.429 . S
C1052 C1035 1.574 . S
C1052 H1046 0.949 . S
C1052 C1056 1.368 . S
C1053 C1034 1.429 . S
C1053 C1047 1.429 . S
C1053 C1054 1.523 . S
C1054 C1035 1.368 . S
C1054 C1048 1.368 . S
C1054 C1053 1.523 . S
C1055 C1039 1.429 . S
C1055 C1051 1.429 . S
C1055 C1056 1.523 . S
C1056 C1040 1.368 . S
C1056 C1052 1.368 . S
C1056 C1055 1.523 . S
H1057 C1032 0.950 . S
H1058 C1034 0.950 . S
H1059 C1035 0.949 . S
H1060 C1037 0.950 . S
H1061 C1039 0.950 . S
C1062 C1063 1.349 . S
C1062 C1064 1.327 . S
C1062 H1087 0.950 . S
C1063 C1062 1.349 . S
C1063 C1079 1.349 . S
C1064 C1062 1.327 . S
C1064 C1083 1.429 . S
C1064 H1088 0.950 . S
C1065 C1082 1.574 1_554 S
C1065 C1084 1.368 . S
C1065 H1089 0.949 . S
H1066 C1070 0.949 . S
C1067 C1068 1.349 . S
C1067 C1069 1.327 . S
C1067 H1090 0.950 . S
C1068 C1067 1.349 . S
C1068 C1080 1.349 . S
C1069 C1067 1.327 . S
C1069 C1085 1.429 . S
C1069 H1091 0.950 . S
C1070 H1066 0.949 . S
C1070 C1078 1.574 1_556 S
C1070 C1086 1.368 . S
H1071 C1079 0.950 . S
H1072 C1077 0.950 . S
H1073 C1078 0.949 . S
H1074 C1080 0.950 . S
H1075 C1081 0.950 . S
H1076 C1082 0.949 . S
C1077 H1072 0.950 . S
C1077 C1079 1.327 . S
C1077 C1083 1.429 . S
C1078 C1070 1.574 1_554 S
C1078 H1073 0.949 . S
C1078 C1084 1.368 . S
C1079 C1063 1.349 . S
C1079 H1071 0.950 . S
C1079 C1077 1.327 . S
C1080 C1068 1.349 . S
C1080 H1074 0.950 . S
C1080 C1081 1.327 . S
C1081 H1075 0.950 . S
C1081 C1080 1.327 . S
C1081 C1085 1.429 . S
C1082 C1065 1.574 1_556 S
C1082 H1076 0.949 . S
C1082 C1086 1.368 . S
C1083 C1064 1.429 . S
C1083 C1077 1.429 . S
C1083 C1084 1.523 . S
C1084 C1065 1.368 . S
C1084 C1078 1.368 . S
C1084 C1083 1.523 . S
C1085 C1069 1.429 . S
C1085 C1081 1.429 . S
C1085 C1086 1.523 . S
C1086 C1070 1.368 . S
C1086 C1082 1.368 . S
C1086 C1085 1.523 . S
H1087 C1062 0.950 . S
H1088 C1064 0.950 . S
H1089 C1065 0.949 . S
H1090 C1067 0.950 . S
H1091 C1069 0.950 . S
C1092 C1093 1.349 1_565 S
C1092 C1094 1.327 . S
C1092 H1117 0.950 . S
C1093 C1092 1.349 1_545 S
C1093 C1109 1.349 . S
C1094 C1092 1.327 . S
C1094 C1113 1.429 1_565 S
C1094 H1118 0.950 . S
C1095 C1112 1.574 1_556 S
C1095 C1114 1.368 . S
C1095 H1119 0.949 . S
H1096 C1100 0.949 . S
C1097 C1098 1.349 1_545 S
C1097 C1099 1.327 . S
C1097 H1120 0.950 . S
C1098 C1097 1.349 1_565 S
C1098 C1110 1.349 . S
C1099 C1097 1.327 . S
C1099 C1115 1.435 . S
C1099 H1121 0.950 . S
C1100 H1096 0.949 . S
C1100 C1108 1.574 1_554 S
C1100 C1116 1.368 1_565 S
H1101 C1109 0.950 . S
H1102 C1107 0.950 . S
H1103 C1108 0.949 . S
H1104 C1110 0.950 . S
H1105 C1111 0.950 . S
H1106 C1112 0.949 . S
C1107 H1102 0.950 . S
C1107 C1109 1.327 . S
C1107 C1113 1.429 . S
C1108 C1100 1.574 1_556 S
C1108 H1103 0.949 . S
C1108 C1114 1.368 1_565 S
C1109 C1093 1.349 . S
C1109 H1101 0.950 . S
C1109 C1107 1.327 . S
C1110 C1098 1.349 . S
C1110 H1104 0.950 . S
C1110 C1111 1.327 . S
C1111 H1105 0.950 . S
C1111 C1110 1.327 . S
C1111 C1115 1.422 1_565 S
C1112 C1095 1.574 1_554 S
C1112 H1106 0.949 . S
C1112 C1116 1.368 . S
C1113 C1094 1.429 1_545 S
C1113 C1107 1.429 . S
C1113 C1114 1.523 . S
C1114 C1095 1.368 . S
C1114 C1108 1.368 1_545 S
C1114 C1113 1.523 . S
C1115 C1099 1.435 . S
C1115 C1111 1.422 1_545 S
C1115 C1116 1.523 . S
C1116 C1100 1.368 1_545 S
C1116 C1112 1.368 . S
C1116 C1115 1.523 . S
H1117 C1092 0.950 . S
H1118 C1094 0.950 . S
H1119 C1095 0.949 . S
H1120 C1097 0.950 . S
H1121 C1099 0.950 . S
C1122 C1123 1.352 1_455 S
C1122 C1124 1.327 . S
C1122 H1147 0.926 . S
C1123 C1122 1.352 1_655 S
C1123 C1139 1.349 . S
C1124 C1122 1.327 . S
C1124 C1143 1.433 . S
C1124 H1148 0.950 . S
C1125 C1142 1.574 1_556 S
C1125 C1144 1.375 . S
C1125 H1149 0.943 1_455 S
H1126 C1130 0.949 . S
C1127 C1128 1.349 . S
C1127 C1129 1.327 . S
C1127 H1150 0.950 . S
C1128 C1127 1.349 . S
C1128 C1140 1.349 . S
C1129 C1127 1.327 . S
C1129 C1145 1.429 . S
C1129 H1151 0.950 . S
C1130 H1126 0.949 . S
C1130 C1138 1.574 1_554 S
C1130 C1146 1.368 . S
H1131 C1139 0.950 . S
H1132 C1137 0.950 . S
H1133 C1138 0.949 . S
H1134 C1140 0.950 . S
H1135 C1141 0.950 . S
H1136 C1142 0.949 . S
C1137 H1132 0.950 . S
C1137 C1139 1.327 . S
C1137 C1143 1.423 1_655 S
C1138 C1130 1.574 1_556 S
C1138 H1133 0.949 . S
C1138 C1144 1.368 . S
C1139 C1123 1.349 . S
C1139 H1131 0.950 . S
C1139 C1137 1.327 . S
C1140 C1128 1.349 . S
C1140 H1134 0.950 . S
C1140 C1141 1.327 . S
C1141 H1135 0.950 . S
C1141 C1140 1.327 . S
C1141 C1145 1.429 . S
C1142 C1125 1.574 1_554 S
C1142 H1136 0.949 . S
C1142 C1146 1.368 . S
C1143 C1124 1.433 . S
C1143 C1137 1.423 1_455 S
C1143 C1144 1.523 . S
C1144 C1125 1.375 . S
C1144 C1138 1.368 . S
C1144 C1143 1.523 . S
C1145 C1129 1.429 . S
C1145 C1141 1.429 . S
C1145 C1146 1.523 . S
C1146 C1130 1.368 . S
C1146 C1142 1.368 . S
C1146 C1145 1.523 . S
H1147 C1122 0.926 . S
H1148 C1124 0.950 . S
H1149 C1125 0.943 1_655 S
H1150 C1127 0.950 . S
H1151 C1129 0.950 . S
C1152 C1153 1.349 . S
C1152 C1154 1.327 . S
C1152 H1177 0.950 . S
C1153 C1152 1.349 . S
C1153 C1169 1.349 . S
C1154 C1152 1.327 . S
C1154 C1173 1.429 . S
C1154 H1178 0.950 . S
C1155 C1172 1.574 . S
C1155 C1174 1.368 . S
C1155 H1179 0.949 . S
H1156 C1160 0.949 . S
C1157 C1158 1.349 . S
C1157 C1159 1.327 . S
C1157 H1180 0.950 . S
C1158 C1157 1.349 . S
C1158 C1170 1.349 . S
C1159 C1157 1.327 . S
C1159 C1175 1.429 . S
C1159 H1181 0.950 . S
C1160 H1156 0.949 . S
C1160 C1168 1.574 . S
C1160 C1176 1.368 . S
H1161 C1169 0.950 . S
H1162 C1167 0.950 . S
H1163 C1168 0.949 . S
H1164 C1170 0.950 . S
H1165 C1171 0.950 . S
H1166 C1172 0.949 . S
C1167 H1162 0.950 . S
C1167 C1169 1.327 . S
C1167 C1173 1.429 . S
C1168 C1160 1.574 . S
C1168 H1163 0.949 . S
C1168 C1174 1.368 . S
C1169 C1153 1.349 . S
C1169 H1161 0.950 . S
C1169 C1167 1.327 . S
C1170 C1158 1.349 . S
C1170 H1164 0.950 . S
C1170 C1171 1.327 . S
C1171 H1165 0.950 . S
C1171 C1170 1.327 . S
C1171 C1175 1.429 . S
C1172 C1155 1.574 . S
C1172 H1166 0.949 . S
C1172 C1176 1.368 . S
C1173 C1154 1.429 . S
C1173 C1167 1.429 . S
C1173 C1174 1.523 . S
C1174 C1155 1.368 . S
C1174 C1168 1.368 . S
C1174 C1173 1.523 . S
C1175 C1159 1.429 . S
C1175 C1171 1.429 . S
C1175 C1176 1.523 . S
C1176 C1160 1.368 . S
C1176 C1172 1.368 . S
C1176 C1175 1.523 . S
H1177 C1152 0.950 . S
H1178 C1154 0.950 . S
H1179 C1155 0.949 . S
H1180 C1157 0.950 . S
H1181 C1159 0.950 . S
C1182 C1183 1.349 . S
C1182 C1184 1.327 . S
C1182 H1207 0.950 . S
C1183 C1182 1.349 . S
C1183 C1199 1.349 . S
C1184 C1182 1.327 . S
C1184 C1203 1.429 . S
C1184 H1208 0.950 . S
C1185 C1202 1.574 . S
C1185 C1204 1.368 . S
C1185 H1209 0.949 . S
H1186 C1190 0.949 . S
C1187 C1188 1.349 . S
C1187 C1189 1.327 . S
C1187 H1210 0.950 . S
C1188 C1187 1.349 . S
C1188 C1200 1.349 . S
C1189 C1187 1.327 . S
C1189 C1205 1.429 . S
C1189 H1211 0.950 . S
C1190 H1186 0.949 . S
C1190 C1198 1.574 . S
C1190 C1206 1.368 . S
H1191 C1199 0.950 . S
H1192 C1197 0.950 . S
H1193 C1198 0.949 . S
H1194 C1200 0.950 . S
H1195 C1201 0.950 . S
H1196 C1202 0.949 . S
C1197 H1192 0.950 . S
C1197 C1199 1.327 . S
C1197 C1203 1.429 . S
C1198 C1190 1.574 . S
C1198 H1193 0.949 . S
C1198 C1204 1.368 . S
C1199 C1183 1.349 . S
C1199 H1191 0.950 . S
C1199 C1197 1.327 . S
C1200 C1188 1.349 . S
C1200 H1194 0.950 . S
C1200 C1201 1.327 . S
C1201 H1195 0.950 . S
C1201 C1200 1.327 . S
C1201 C1205 1.429 . S
C1202 C1185 1.574 . S
C1202 H1196 0.949 . S
C1202 C1206 1.368 . S
C1203 C1184 1.429 . S
C1203 C1197 1.429 . S
C1203 C1204 1.523 . S
C1204 C1185 1.368 . S
C1204 C1198 1.368 . S
C1204 C1203 1.523 . S
C1205 C1189 1.429 . S
C1205 C1201 1.429 . S
C1205 C1206 1.523 . S
C1206 C1190 1.368 . S
C1206 C1202 1.368 . S
C1206 C1205 1.523 . S
H1207 C1182 0.950 . S
H1208 C1184 0.950 . S
H1209 C1185 0.949 . S
H1210 C1187 0.950 . S
H1211 C1189 0.950 . S
C1212 C1213 1.349 . S
C1212 C1214 1.327 . S
C1212 H1237 0.950 . S
C1213 C1212 1.349 . S
C1213 C1229 1.349 . S
C1214 C1212 1.327 . S
C1214 C1233 1.429 . S
C1214 H1238 0.950 . S
C1215 C1232 1.574 . S
C1215 C1234 1.368 . S
C1215 H1239 0.949 . S
H1216 C1220 0.949 . S
C1217 C1218 1.349 . S
C1217 C1219 1.327 . S
C1217 H1240 0.950 . S
C1218 C1217 1.349 . S
C1218 C1230 1.349 . S
C1219 C1217 1.327 . S
C1219 C1235 1.429 . S
C1219 H1241 0.950 . S
C1220 H1216 0.949 . S
C1220 C1228 1.574 . S
C1220 C1236 1.368 . S
H1221 C1229 0.950 . S
H1222 C1227 0.950 . S
H1223 C1228 0.949 . S
H1224 C1230 0.950 . S
H1225 C1231 0.950 . S
H1226 C1232 0.949 . S
C1227 H1222 0.950 . S
C1227 C1229 1.327 . S
C1227 C1233 1.429 . S
C1228 C1220 1.574 . S
C1228 H1223 0.949 . S
C1228 C1234 1.368 . S
C1229 C1213 1.349 . S
C1229 H1221 0.950 . S
C1229 C1227 1.327 . S
C1230 C1218 1.349 . S
C1230 H1224 0.950 . S
C1230 C1231 1.327 . S
C1231 H1225 0.950 . S
C1231 C1230 1.327 . S
C1231 C1235 1.429 . S
C1232 C1215 1.574 . S
C1232 H1226 0.949 . S
C1232 C1236 1.368 . S
C1233 C1214 1.429 . S
C1233 C1227 1.429 . S
C1233 C1234 1.523 . S
C1234 C1215 1.368 . S
C1234 C1228 1.368 . S
C1234 C1233 1.523 . S
C1235 C1219 1.429 . S
C1235 C1231 1.429 . S
C1235 C1236 1.523 . S
C1236 C1220 1.368 . S
C1236 C1232 1.368 . S
C1236 C1235 1.523 . S
H1237 C1212 0.950 . S
H1238 C1214 0.950 . S
H1239 C1215 0.949 . S
H1240 C1217 0.950 . S
H1241 C1219 0.950 . S
C1242 C1243 1.349 . S
C1242 C1244 1.327 . S
C1242 H1267 0.950 . S
C1243 C1242 1.349 . S
C1243 C1259 1.349 . S
C1244 C1242 1.327 . S
C1244 C1263 1.429 . S
C1244 H1268 0.950 . S
C1245 C1262 1.574 . S
C1245 C1264 1.368 . S
C1245 H1269 0.949 . S
H1246 C1250 0.949 . S
C1247 C1248 1.349 . S
C1247 C1249 1.327 . S
C1247 H1270 0.950 . S
C1248 C1247 1.349 . S
C1248 C1260 1.349 . S
C1249 C1247 1.327 . S
C1249 C1265 1.429 . S
C1249 H1271 0.950 . S
C1250 H1246 0.949 . S
C1250 C1258 1.574 . S
C1250 C1266 1.368 . S
H1251 C1259 0.950 . S
H1252 C1257 0.950 . S
H1253 C1258 0.949 . S
H1254 C1260 0.950 . S
H1255 C1261 0.950 . S
H1256 C1262 0.949 . S
C1257 H1252 0.950 . S
C1257 C1259 1.327 . S
C1257 C1263 1.429 . S
C1258 C1250 1.574 . S
C1258 H1253 0.949 . S
C1258 C1264 1.368 . S
C1259 C1243 1.349 . S
C1259 H1251 0.950 . S
C1259 C1257 1.327 . S
C1260 C1248 1.349 . S
C1260 H1254 0.950 . S
C1260 C1261 1.327 . S
C1261 H1255 0.950 . S
C1261 C1260 1.327 . S
C1261 C1265 1.429 . S
C1262 C1245 1.574 . S
C1262 H1256 0.949 . S
C1262 C1266 1.368 . S
C1263 C1244 1.429 . S
C1263 C1257 1.429 . S
C1263 C1264 1.523 . S
C1264 C1245 1.368 . S
C1264 C1258 1.368 . S
C1264 C1263 1.523 . S
C1265 C1249 1.429 . S
C1265 C1261 1.429 . S
C1265 C1266 1.523 . S
C1266 C1250 1.368 . S
C1266 C1262 1.368 . S
C1266 C1265 1.523 . S
H1267 C1242 0.950 . S
H1268 C1244 0.950 . S
H1269 C1245 0.949 . S
H1270 C1247 0.950 . S
H1271 C1249 0.950 . S
C1272 C1273 1.349 . S
C1272 C1274 1.327 . S
C1272 H1297 0.950 . S
C1273 C1272 1.349 . S
C1273 C1289 1.349 . S
C1274 C1272 1.327 . S
C1274 C1293 1.429 . S
C1274 H1298 0.950 . S
C1275 C1292 1.574 . S
C1275 C1294 1.368 . S
C1275 H1299 0.949 . S
H1276 C1280 0.949 . S
C1277 C1278 1.349 . S
C1277 C1279 1.327 . S
C1277 H1300 0.950 . S
C1278 C1277 1.349 . S
C1278 C1290 1.349 . S
C1279 C1277 1.327 . S
C1279 C1295 1.429 . S
C1279 H1301 0.950 . S
C1280 H1276 0.949 . S
C1280 C1288 1.574 . S
C1280 C1296 1.368 . S
H1281 C1289 0.950 . S
H1282 C1287 0.950 . S
H1283 C1288 0.949 . S
H1284 C1290 0.950 . S
H1285 C1291 0.950 . S
H1286 C1292 0.949 . S
C1287 H1282 0.950 . S
C1287 C1289 1.327 . S
C1287 C1293 1.429 . S
C1288 C1280 1.574 . S
C1288 H1283 0.949 . S
C1288 C1294 1.368 . S
C1289 C1273 1.349 . S
C1289 H1281 0.950 . S
C1289 C1287 1.327 . S
C1290 C1278 1.349 . S
C1290 H1284 0.950 . S
C1290 C1291 1.327 . S
C1291 H1285 0.950 . S
C1291 C1290 1.327 . S
C1291 C1295 1.429 . S
C1292 C1275 1.574 . S
C1292 H1286 0.949 . S
C1292 C1296 1.368 . S
C1293 C1274 1.429 . S
C1293 C1287 1.429 . S
C1293 C1294 1.523 . S
C1294 C1275 1.368 . S
C1294 C1288 1.368 . S
C1294 C1293 1.523 . S
C1295 C1279 1.429 . S
C1295 C1291 1.429 . S
C1295 C1296 1.523 . S
C1296 C1280 1.368 . S
C1296 C1292 1.368 . S
C1296 C1295 1.523 . S
H1297 C1272 0.950 . S
H1298 C1274 0.950 . S
H1299 C1275 0.949 . S
H1300 C1277 0.950 . S
H1301 C1279 0.950 . S
C1302 C1303 1.349 . S
C1302 C1304 1.327 . S
C1302 H1327 0.950 . S
C1303 C1302 1.349 . S
C1303 C1319 1.349 . S
C1304 C1302 1.327 . S
C1304 C1323 1.429 . S
C1304 H1328 0.950 . S
C1305 C1322 1.574 . S
C1305 C1324 1.368 . S
C1305 H1329 0.949 . S
H1306 C1310 0.949 . S
C1307 C1308 1.349 . S
C1307 C1309 1.327 . S
C1307 H1330 0.950 . S
C1308 C1307 1.349 . S
C1308 C1320 1.349 . S
C1309 C1307 1.327 . S
C1309 C1325 1.429 . S
C1309 H1331 0.950 . S
C1310 H1306 0.949 . S
C1310 C1318 1.574 . S
C1310 C1326 1.368 . S
H1311 C1319 0.950 . S
H1312 C1317 0.950 . S
H1313 C1318 0.949 . S
H1314 C1320 0.950 . S
H1315 C1321 0.950 . S
H1316 C1322 0.949 . S
C1317 H1312 0.950 . S
C1317 C1319 1.327 . S
C1317 C1323 1.429 . S
C1318 C1310 1.574 . S
C1318 H1313 0.949 . S
C1318 C1324 1.368 . S
C1319 C1303 1.349 . S
C1319 H1311 0.950 . S
C1319 C1317 1.327 . S
C1320 C1308 1.349 . S
C1320 H1314 0.950 . S
C1320 C1321 1.327 . S
C1321 H1315 0.950 . S
C1321 C1320 1.327 . S
C1321 C1325 1.429 . S
C1322 C1305 1.574 . S
C1322 H1316 0.949 . S
C1322 C1326 1.368 . S
C1323 C1304 1.429 . S
C1323 C1317 1.429 . S
C1323 C1324 1.523 . S
C1324 C1305 1.368 . S
C1324 C1318 1.368 . S
C1324 C1323 1.523 . S
C1325 C1309 1.429 . S
C1325 C1321 1.429 . S
C1325 C1326 1.523 . S
C1326 C1310 1.368 . S
C1326 C1322 1.368 . S
C1326 C1325 1.523 . S
H1327 C1302 0.950 . S
H1328 C1304 0.950 . S
H1329 C1305 0.949 . S
H1330 C1307 0.950 . S
H1331 C1309 0.950 . S
C253 C151 0.999 . S
C258 C11 0.999 . S
C283 C25 0.999 . S
C288 C165 0.999 . S
C313 C137 0.999 . S
C318 C39 0.999 . S
C343 C207 0.999 . S
C348 C53 0.999 . S
C373 C67 0.999 . S
C378 C179 0.999 . S
C403 C193 0.999 . S
C408 C81 0.999 . S
C433 C95 0.998 . S
C438 C235 0.998 . S
C463 C249 0.999 . S
C468 C109 0.999 . S
C493 C123 0.998 . S
C498 C221 0.998 . S
C523 C5 0.825 . S
C528 C14 0.824 . S
C553 C19 0.825 . S
C558 C28 0.823 . S
C583 C0 0.823 . S
C588 C33 0.825 . S
C613 C70 0.824 . S
C618 C47 0.825 . S
C643 C42 0.823 . S
C648 C61 0.825 . S
C673 C75 0.825 . S
C678 C56 0.823 . S
C703 C89 0.825 . S
C708 C98 0.824 . S
C733 C103 0.825 . S
C738 C112 0.823 . S
C763 C84 0.823 . S
C768 C117 0.825 . S
C793 C154 0.824 . S
C798 C131 0.825 . S
C823 C126 0.823 . S
C828 C145 0.825 . S
C853 C140 0.823 . S
C858 C159 0.825 . S
C883 C182 0.824 . S
C888 C173 0.825 . S
C913 C196 0.823 . S
C918 C187 0.825 . S
C943 C168 0.823 . S
C948 C201 0.825 . S
C973 C215 0.825 . S
C978 C238 0.824 . S
C1003 C229 0.825 . S
C1008 C210 0.823 . S
C1033 C243 0.825 . S
C1038 C224 0.823 . S
C1063 C9 1.665 . S
C1068 C51 1.665 . S
C1093 C65 1.665 . S
C1098 C23 1.665 . S
C1123 C79 1.665 . S
C1128 C37 1.665 . S
C1153 C135 1.665 . S
C1158 C93 1.665 . S
C1183 C149 1.665 . S
C1188 C107 1.665 . S
C1213 C121 1.665 . S
C1218 C163 1.665 . S
C1243 C219 1.665 . S
C1248 C177 1.665 . S
C1273 C233 1.665 . S
C1278 C191 1.665 . S
C1303 C247 1.665 . S
C1308 C205 1.665 . S
