# Generated by pormake.
# Topology ukj, (4)-cn, num edge types: 1
# Building blocks:
#     Node 0, Type 0, BuildingBlock: CEKHIL_clean_sbu_0, # of connection points: 4
#     Node 1, Type 0, BuildingBlock: CEKHIL_clean_sbu_0, # of connection points: 4
#     Node 2, Type 0, BuildingBlock: CEKHIL_clean_sbu_0, # of connection points: 4
#     Node 3, Type 0, BuildingBlock: CEKHIL_clean_sbu_0, # of connection points: 4
#     Node 4, Type 0, BuildingBlock: CEKHIL_clean_sbu_0, # of connection points: 4
#     Node 5, Type 0, BuildingBlock: CEKHIL_clean_sbu_0, # of connection points: 4
#     Node 6, Type 0, BuildingBlock: CEKHIL_clean_sbu_0, # of connection points: 4
#     Node 7, Type 0, BuildingBlock: CEKHIL_clean_sbu_0, # of connection points: 4
#     Node 8, Type 0, BuildingBlock: CEKHIL_clean_sbu_0, # of connection points: 4
#     Node 9, Type 0, BuildingBlock: CEKHIL_clean_sbu_0, # of connection points: 4
#     Node 10, Type 0, BuildingBlock: CEKHIL_clean_sbu_0, # of connection points: 4
#     Node 11, Type 0, BuildingBlock: CEKHIL_clean_sbu_0, # of connection points: 4
#     Node 12, Type 0, BuildingBlock: CEKHIL_clean_sbu_0, # of connection points: 4
#     Node 13, Type 0, BuildingBlock: CEKHIL_clean_sbu_0, # of connection points: 4
#     Node 14, Type 0, BuildingBlock: CEKHIL_clean_sbu_0, # of connection points: 4
#     Node 15, Type 0, BuildingBlock: CEKHIL_clean_sbu_0, # of connection points: 4
#     Node 16, Type 0, BuildingBlock: CEKHIL_clean_sbu_0, # of connection points: 4
#     Node 17, Type 0, BuildingBlock: CEKHIL_clean_sbu_0, # of connection points: 4
#     Node 18, Type 0, BuildingBlock: CEKHIL_clean_sbu_0, # of connection points: 4
#     Node 19, Type 0, BuildingBlock: CEKHIL_clean_sbu_0, # of connection points: 4
#     Node 20, Type 0, BuildingBlock: CEKHIL_clean_sbu_0, # of connection points: 4
#     Node 21, Type 0, BuildingBlock: CEKHIL_clean_sbu_0, # of connection points: 4
#     Node 22, Type 0, BuildingBlock: CEKHIL_clean_sbu_0, # of connection points: 4
#     Node 23, Type 0, BuildingBlock: CEKHIL_clean_sbu_0, # of connection points: 4
#     Node 24, Type 0, BuildingBlock: CEKHIL_clean_sbu_0, # of connection points: 4
#     Node 25, Type 0, BuildingBlock: CEKHIL_clean_sbu_0, # of connection points: 4
#     Node 26, Type 0, BuildingBlock: CEKHIL_clean_sbu_0, # of connection points: 4
#     Node 27, Type 0, BuildingBlock: CEKHIL_clean_sbu_0, # of connection points: 4
#     Node 28, Type 0, BuildingBlock: CEKHIL_clean_sbu_0, # of connection points: 4
#     Node 29, Type 0, BuildingBlock: CEKHIL_clean_sbu_0, # of connection points: 4
#     Node 30, Type 0, BuildingBlock: CEKHIL_clean_sbu_0, # of connection points: 4
#     Node 31, Type 0, BuildingBlock: CEKHIL_clean_sbu_0, # of connection points: 4
#     Edge 32, Type (0, 0), BuildingBlock: KIFKEQ_clean_linker_1, # of connection points: 2
#     Edge 33, Type (0, 0), BuildingBlock: KIFKEQ_clean_linker_1, # of connection points: 2
#     Edge 34, Type (0, 0), BuildingBlock: KIFKEQ_clean_linker_1, # of connection points: 2
#     Edge 35, Type (0, 0), BuildingBlock: KIFKEQ_clean_linker_1, # of connection points: 2
#     Edge 36, Type (0, 0), BuildingBlock: KIFKEQ_clean_linker_1, # of connection points: 2
#     Edge 37, Type (0, 0), BuildingBlock: KIFKEQ_clean_linker_1, # of connection points: 2
#     Edge 38, Type (0, 0), BuildingBlock: KIFKEQ_clean_linker_1, # of connection points: 2
#     Edge 39, Type (0, 0), BuildingBlock: KIFKEQ_clean_linker_1, # of connection points: 2
#     Edge 40, Type (0, 0), BuildingBlock: KIFKEQ_clean_linker_1, # of connection points: 2
#     Edge 41, Type (0, 0), BuildingBlock: KIFKEQ_clean_linker_1, # of connection points: 2
#     Edge 42, Type (0, 0), BuildingBlock: KIFKEQ_clean_linker_1, # of connection points: 2
#     Edge 43, Type (0, 0), BuildingBlock: KIFKEQ_clean_linker_1, # of connection points: 2
#     Edge 44, Type (0, 0), BuildingBlock: KIFKEQ_clean_linker_1, # of connection points: 2
#     Edge 45, Type (0, 0), BuildingBlock: KIFKEQ_clean_linker_1, # of connection points: 2
#     Edge 46, Type (0, 0), BuildingBlock: KIFKEQ_clean_linker_1, # of connection points: 2
#     Edge 47, Type (0, 0), BuildingBlock: KIFKEQ_clean_linker_1, # of connection points: 2
#     Edge 48, Type (0, 0), BuildingBlock: KIFKEQ_clean_linker_1, # of connection points: 2
#     Edge 49, Type (0, 0), BuildingBlock: KIFKEQ_clean_linker_1, # of connection points: 2
#     Edge 50, Type (0, 0), BuildingBlock: KIFKEQ_clean_linker_1, # of connection points: 2
#     Edge 51, Type (0, 0), BuildingBlock: KIFKEQ_clean_linker_1, # of connection points: 2
#     Edge 52, Type (0, 0), BuildingBlock: KIFKEQ_clean_linker_1, # of connection points: 2
#     Edge 53, Type (0, 0), BuildingBlock: KIFKEQ_clean_linker_1, # of connection points: 2
#     Edge 54, Type (0, 0), BuildingBlock: KIFKEQ_clean_linker_1, # of connection points: 2
#     Edge 55, Type (0, 0), BuildingBlock: KIFKEQ_clean_linker_1, # of connection points: 2
#     Edge 56, Type (0, 0), BuildingBlock: KIFKEQ_clean_linker_1, # of connection points: 2
#     Edge 57, Type (0, 0), BuildingBlock: KIFKEQ_clean_linker_1, # of connection points: 2
#     Edge 58, Type (0, 0), BuildingBlock: KIFKEQ_clean_linker_1, # of connection points: 2
#     Edge 59, Type (0, 0), BuildingBlock: KIFKEQ_clean_linker_1, # of connection points: 2
#     Edge 60, Type (0, 0), BuildingBlock: KIFKEQ_clean_linker_1, # of connection points: 2
#     Edge 61, Type (0, 0), BuildingBlock: KIFKEQ_clean_linker_1, # of connection points: 2
#     Edge 62, Type (0, 0), BuildingBlock: KIFKEQ_clean_linker_1, # of connection points: 2
#     Edge 63, Type (0, 0), BuildingBlock: KIFKEQ_clean_linker_1, # of connection points: 2
#     Edge 64, Type (0, 0), BuildingBlock: KIFKEQ_clean_linker_1, # of connection points: 2
#     Edge 65, Type (0, 0), BuildingBlock: KIFKEQ_clean_linker_1, # of connection points: 2
#     Edge 66, Type (0, 0), BuildingBlock: KIFKEQ_clean_linker_1, # of connection points: 2
#     Edge 67, Type (0, 0), BuildingBlock: KIFKEQ_clean_linker_1, # of connection points: 2
#     Edge 68, Type (0, 0), BuildingBlock: KIFKEQ_clean_linker_1, # of connection points: 2
#     Edge 69, Type (0, 0), BuildingBlock: KIFKEQ_clean_linker_1, # of connection points: 2
#     Edge 70, Type (0, 0), BuildingBlock: KIFKEQ_clean_linker_1, # of connection points: 2
#     Edge 71, Type (0, 0), BuildingBlock: KIFKEQ_clean_linker_1, # of connection points: 2
#     Edge 72, Type (0, 0), BuildingBlock: KIFKEQ_clean_linker_1, # of connection points: 2
#     Edge 73, Type (0, 0), BuildingBlock: KIFKEQ_clean_linker_1, # of connection points: 2
#     Edge 74, Type (0, 0), BuildingBlock: KIFKEQ_clean_linker_1, # of connection points: 2
#     Edge 75, Type (0, 0), BuildingBlock: KIFKEQ_clean_linker_1, # of connection points: 2
#     Edge 76, Type (0, 0), BuildingBlock: KIFKEQ_clean_linker_1, # of connection points: 2
#     Edge 77, Type (0, 0), BuildingBlock: KIFKEQ_clean_linker_1, # of connection points: 2
#     Edge 78, Type (0, 0), BuildingBlock: KIFKEQ_clean_linker_1, # of connection points: 2
#     Edge 79, Type (0, 0), BuildingBlock: KIFKEQ_clean_linker_1, # of connection points: 2
#     Edge 80, Type (0, 0), BuildingBlock: KIFKEQ_clean_linker_1, # of connection points: 2
#     Edge 81, Type (0, 0), BuildingBlock: KIFKEQ_clean_linker_1, # of connection points: 2
#     Edge 82, Type (0, 0), BuildingBlock: KIFKEQ_clean_linker_1, # of connection points: 2
#     Edge 83, Type (0, 0), BuildingBlock: KIFKEQ_clean_linker_1, # of connection points: 2
#     Edge 84, Type (0, 0), BuildingBlock: KIFKEQ_clean_linker_1, # of connection points: 2
#     Edge 85, Type (0, 0), BuildingBlock: KIFKEQ_clean_linker_1, # of connection points: 2
#     Edge 86, Type (0, 0), BuildingBlock: KIFKEQ_clean_linker_1, # of connection points: 2
#     Edge 87, Type (0, 0), BuildingBlock: KIFKEQ_clean_linker_1, # of connection points: 2
#     Edge 88, Type (0, 0), BuildingBlock: KIFKEQ_clean_linker_1, # of connection points: 2
#     Edge 89, Type (0, 0), BuildingBlock: KIFKEQ_clean_linker_1, # of connection points: 2
#     Edge 90, Type (0, 0), BuildingBlock: KIFKEQ_clean_linker_1, # of connection points: 2
#     Edge 91, Type (0, 0), BuildingBlock: KIFKEQ_clean_linker_1, # of connection points: 2
#     Edge 92, Type (0, 0), BuildingBlock: KIFKEQ_clean_linker_1, # of connection points: 2
#     Edge 93, Type (0, 0), BuildingBlock: KIFKEQ_clean_linker_1, # of connection points: 2
#     Edge 94, Type (0, 0), BuildingBlock: KIFKEQ_clean_linker_1, # of connection points: 2
#     Edge 95, Type (0, 0), BuildingBlock: KIFKEQ_clean_linker_1, # of connection points: 2
# Relax obj value: 0.080
# Max RMSD: 0.174
# Mean RMSD: 0.173
data_MOF--net-ukj--node1-CEKHIL_clean_sbu_0--edge1-KIFKEQ_clean_linker_1
_symmetry_space_group_name_H-M    P1
_symmetry_Int_Tables_number       1
_symmetry_cell_setting            triclinic
loop_
_symmetry_equiv_pos_as_xyz
'x, y, z'
_cell_length_a     31.525815
_cell_length_b     64.784827
_cell_length_c     57.017026
_cell_angle_alpha  89.993776
_cell_angle_beta   89.982088
_cell_angle_gamma 90.01592
loop_
_atom_site_label
_atom_site_type_symbol
_atom_site_fract_x
_atom_site_fract_y
_atom_site_fract_z
_atom_type_partial_charge
Co0 Co 0.13169 0.34527 0.24497 0.0
O1 O 0.07517 0.33464 0.24554 0.0
O2 O 0.13031 0.31698 0.23276 0.0
C3 C 0.12975 0.35697 0.28182 0.0
O4 O 0.19524 0.35259 0.24314 0.0
Co5 Co 0.14015 0.39264 0.24925 0.0
O6 O 0.19988 0.38547 0.25588 0.0
C7 C 0.11934 0.37481 0.20346 0.0
C8 C 0.08983 0.31742 0.2376 0.0
C9 C 0.21707 0.36849 0.2498 0.0
O10 O 0.12237 0.35682 0.21278 0.0
O11 O 0.12294 0.39153 0.21527 0.0
O12 O 0.13882 0.33787 0.27745 0.0
O13 O 0.11779 0.36799 0.26402 0.0
Co14 Co 0.11629 0.91095 0.24624 0.0
O15 O 0.17002 0.92447 0.24376 0.0
O16 O 0.1089 0.93904 0.23443 0.0
C17 C 0.12574 0.89945 0.28289 0.0
O18 O 0.05489 0.90035 0.24764 0.0
Co19 Co 0.12046 0.86333 0.25057 0.0
O20 O 0.05951 0.86678 0.25785 0.0
C21 C 0.1281 0.88209 0.20404 0.0
C22 C 0.14993 0.94071 0.23682 0.0
C23 C 0.03776 0.88294 0.25356 0.0
O24 O 0.12217 0.89983 0.21355 0.0
O25 O 0.13176 0.8654 0.21588 0.0
O26 O 0.1127 0.91807 0.27895 0.0
O27 O 0.13798 0.8892 0.26456 0.0
Co28 Co 0.14276 0.90918 0.98579 0.0
O29 O 0.08791 0.92167 0.98372 0.0
O30 O 0.14442 0.9373 -0.00177 0.0
C31 C 0.14413 0.89735 0.94891 0.0
O32 O 0.20472 0.89983 0.98961 0.0
Co33 Co 0.14352 0.8616 0.98206 0.0
O34 O 0.20562 0.86571 0.98151 0.0
C35 C 0.12204 0.88039 0.02712 0.0
C36 C 0.10425 0.93812 -0.00725 0.0
C37 C 0.22451 0.88252 0.98662 0.0
O38 O 0.12871 0.89809 0.0177 0.0
O39 O 0.1236 0.86349 0.01553 0.0
O40 O 0.15472 0.91621 0.95364 0.0
O41 O 0.12788 0.88696 0.96616 0.0
Co42 Co 0.12421 0.34088 0.9864 0.0
O43 O 0.17864 0.32846 0.99089 0.0
O44 O 0.11791 0.31318 -0.0005 0.0
C45 C 0.13623 0.35115 0.94951 0.0
O46 O 0.06221 0.35023 0.98303 0.0
Co47 Co 0.12459 0.38839 0.97942 0.0
O48 O 0.06479 0.38326 0.97055 0.0
C49 C 0.13035 0.37168 0.02706 0.0
C50 C 0.15919 0.31213 -0.00185 0.0
C51 C 0.0441 0.36689 0.97548 0.0
O52 O 0.12642 0.35343 0.01851 0.0
O53 O 0.13373 0.38791 0.01438 0.0
O54 O 0.12415 0.33246 0.95397 0.0
O55 O 0.14567 0.36232 0.96763 0.0
Co56 Co 0.86624 0.66058 0.73837 0.0
O57 O 0.9206 0.67353 0.74123 0.0
O58 O 0.85996 0.68912 0.74909 0.0
C59 C 0.87804 0.64808 0.70242 0.0
O60 O 0.8042 0.65063 0.73648 0.0
Co61 Co 0.8679 0.61268 0.73523 0.0
O62 O 0.80702 0.61657 0.72823 0.0
C63 C 0.87592 0.63251 0.78127 0.0
C64 C 0.90117 0.69025 0.74721 0.0
C65 C 0.78613 0.63317 0.73161 0.0
O66 O 0.87014 0.65014 0.77144 0.0
O67 O 0.87953 0.61563 0.76975 0.0
O68 O 0.86523 0.66688 0.70529 0.0
O69 O 0.88781 0.6381 0.72133 0.0
Co70 Co 0.8911 0.08738 0.7379 0.0
O71 O 0.83759 0.07405 0.74259 0.0
O72 O 0.89945 0.0592 0.74936 0.0
C73 C 0.8762 0.09864 0.70161 0.0
O74 O 0.95241 0.0978 0.734 0.0
Co75 Co 0.8873 0.13499 0.73295 0.0
O76 O 0.9472 0.13127 0.72346 0.0
C77 C 0.88467 0.11666 0.77998 0.0
C78 C 0.85819 0.05766 0.7485 0.0
C79 C 0.96916 0.11508 0.72724 0.0
O80 O 0.88968 0.09875 0.77068 0.0
O81 O 0.87954 0.13316 0.76794 0.0
O82 O 0.89001 0.08009 0.70512 0.0
O83 O 0.86715 0.10907 0.72036 0.0
Co84 Co 0.87312 0.09241 -0.00259 0.0
O85 O 0.92801 0.08049 0.00147 0.0
O86 O 0.87419 0.06414 0.98514 0.0
C87 C 0.86814 0.10444 0.03419 0.0
O88 O 0.81121 0.1012 -0.00829 0.0
Co89 Co 0.87042 0.13994 0.00064 0.0
O90 O 0.80853 0.13531 -0.00022 0.0
C91 C 0.8965 0.12108 0.95637 0.0
C92 C 0.91358 0.06373 -0.00777 0.0
C93 C 0.79061 0.11836 -0.00576 0.0
O94 O 0.88992 0.10338 0.96584 0.0
O95 O 0.89299 0.13805 0.96769 0.0
O96 O 0.85829 0.08551 0.02927 0.0
O97 O 0.88543 0.11485 0.01726 0.0
Co98 Co 0.89471 0.65925 -0.00024 0.0
O99 O 0.84047 0.67235 0.00133 0.0
O100 O 0.89825 0.68751 0.98775 0.0
C101 C 0.8934 0.647 0.03647 0.0
O102 O 0.95632 0.64908 -0.00344 0.0
Co103 Co 0.89275 0.61161 0.00298 0.0
O104 O 0.95498 0.61498 0.00468 0.0
C105 C 0.87316 0.63116 0.95807 0.0
C106 C 0.85789 0.6887 -0.0073 0.0
C107 C 0.97509 0.63153 -0.00017 0.0
O108 O 0.8813 0.64866 0.9676 0.0
O109 O 0.87302 0.61419 0.96955 0.0
O110 O 0.90558 0.66574 0.03221 0.0
O111 O 0.87762 0.63705 0.01878 0.0
Co112 Co 0.13365 0.84326 0.74274 0.0
O113 O 0.07769 0.83218 0.74557 0.0
O114 O 0.13074 0.81546 0.72908 0.0
C115 C 0.1381 0.85351 0.78027 0.0
O116 O 0.19642 0.85138 0.73808 0.0
Co117 Co 0.13921 0.89071 0.7495 0.0
O118 O 0.20067 0.88509 0.74812 0.0
C119 C 0.11431 0.87442 0.70355 0.0
C120 C 0.09109 0.8155 0.73573 0.0
C121 C 0.21778 0.86822 0.74157 0.0
O122 O 0.11865 0.85604 0.71171 0.0
O123 O 0.11897 0.89064 0.71609 0.0
O124 O 0.14682 0.83467 0.77439 0.0
O125 O 0.12229 0.86489 0.76377 0.0
Co126 Co 0.12411 0.40869 0.74475 0.0
O127 O 0.17834 0.42203 0.74378 0.0
O128 O 0.11864 0.43655 0.73196 0.0
C129 C 0.13043 0.39794 0.78193 0.0
O130 O 0.06207 0.39858 0.74425 0.0
Co131 Co 0.12385 0.36128 0.75119 0.0
O132 O 0.06274 0.36567 0.75707 0.0
C133 C 0.13948 0.37852 0.70431 0.0
C134 C 0.15934 0.43818 0.73569 0.0
C135 C 0.04281 0.3819 0.75089 0.0
O136 O 0.13414 0.39675 0.71272 0.0
O137 O 0.13864 0.36217 0.71691 0.0
O138 O 0.11722 0.41641 0.77721 0.0
O139 O 0.14347 0.38719 0.76417 0.0
Co140 Co 0.13884 0.40963 0.48818 0.0
O141 O 0.08394 0.42223 0.48983 0.0
O142 O 0.14321 0.43731 0.50147 0.0
C143 C 0.13226 0.39942 0.45092 0.0
O144 O 0.20135 0.40031 0.48804 0.0
Co145 Co 0.1417 0.36227 0.4809 0.0
O146 O 0.2019 0.36787 0.47372 0.0
C147 C 0.12666 0.37872 0.52823 0.0
C148 C 0.10237 0.43851 0.49802 0.0
C149 C 0.22116 0.38413 0.48038 0.0
O150 O 0.13038 0.3971 0.52002 0.0
O151 O 0.12835 0.36251 0.51542 0.0
O152 O 0.14421 0.41803 0.45587 0.0
O153 O 0.12047 0.38811 0.46851 0.0
Co154 Co 0.12438 0.84094 0.48767 0.0
O155 O 0.18108 0.8305 0.48816 0.0
O156 O 0.12576 0.81297 0.50088 0.0
C157 C 0.1278 0.85147 0.45024 0.0
O158 O 0.06062 0.84816 0.48852 0.0
Co159 Co 0.1149 0.8881 0.48039 0.0
O160 O 0.05581 0.88016 0.47313 0.0
C161 C 0.13254 0.87216 0.52776 0.0
C162 C 0.1664 0.8134 0.49643 0.0
C163 C 0.03872 0.86353 0.48044 0.0
O164 O 0.13226 0.85368 0.51952 0.0
O165 O 0.12807 0.88822 0.5149 0.0
O166 O 0.11845 0.83253 0.45531 0.0
O167 O 0.13885 0.86298 0.46779 0.0
Co168 Co 0.86461 0.16198 0.23934 0.0
O169 O 0.91872 0.17527 0.23751 0.0
O170 O 0.86108 0.19006 0.25182 0.0
C171 C 0.86458 0.15041 0.20229 0.0
O172 O 0.80316 0.15166 0.2429 0.0
Co173 Co 0.86693 0.11446 0.23519 0.0
O174 O 0.80461 0.11757 0.23469 0.0
C175 C 0.88759 0.13328 0.28036 0.0
C176 C 0.90122 0.19148 0.24643 0.0
C177 C 0.78453 0.13404 0.23981 0.0
O178 O 0.87918 0.15092 0.2712 0.0
O179 O 0.88737 0.11649 0.26855 0.0
O180 O 0.85258 0.16903 0.20719 0.0
O181 O 0.88115 0.14014 0.21954 0.0
Co182 Co 0.88376 0.59151 0.242 0.0
O183 O 0.82842 0.57931 0.24275 0.0
O184 O 0.88632 0.56405 0.25605 0.0
C185 C 0.88042 0.60119 0.20436 0.0
O186 O 0.94648 0.60045 0.24296 0.0
Co187 Co 0.88823 0.63871 0.23379 0.0
O188 O 0.94856 0.63248 0.22753 0.0
C189 C 0.87045 0.62318 0.28123 0.0
C190 C 0.8457 0.56309 0.25179 0.0
C191 C 0.96706 0.61629 0.23504 0.0
O192 O 0.87362 0.60464 0.27339 0.0
O193 O 0.87348 0.63916 0.26813 0.0
O194 O 0.89133 0.58257 0.21001 0.0
O195 O 0.86741 0.61276 0.22146 0.0
Co196 Co 0.87585 0.5931 0.49702 0.0
O197 O 0.9322 0.58231 0.49647 0.0
O198 O 0.87638 0.56521 0.48363 0.0
C199 C 0.87948 0.60342 0.53442 0.0
O200 O 0.81229 0.60072 0.49631 0.0
Co201 Co 0.86828 0.64035 0.50411 0.0
O202 O 0.80875 0.63302 0.51095 0.0
C203 C 0.88671 0.62431 0.45704 0.0
C204 C 0.91701 0.56536 0.4881 0.0
C205 C 0.79098 0.61641 0.50408 0.0
O206 O 0.88438 0.60588 0.46527 0.0
O207 O 0.88311 0.64047 0.4698 0.0
O208 O 0.86978 0.58454 0.52928 0.0
O209 O 0.89081 0.61499 0.51698 0.0
Co210 Co 0.89459 0.16202 0.49982 0.0
O211 O 0.84047 0.1751 0.49686 0.0
O212 O 0.90131 0.19038 0.48859 0.0
C213 C 0.88296 0.15008 0.53618 0.0
O214 O 0.95641 0.15185 0.50173 0.0
Co215 Co 0.89214 0.11442 0.50363 0.0
O216 O 0.9529 0.1181 0.51122 0.0
C217 C 0.88494 0.13354 0.45722 0.0
C218 C 0.86011 0.19162 0.49043 0.0
C219 C 0.97416 0.1345 0.50734 0.0
O220 O 0.89032 0.15125 0.4669 0.0
O221 O 0.88136 0.11675 0.46891 0.0
O222 O 0.89643 0.16871 0.53275 0.0
O223 O 0.87238 0.13994 0.51747 0.0
Co224 Co 0.63815 0.34376 0.7466 0.0
O225 O 0.58201 0.33273 0.74704 0.0
O226 O 0.63738 0.31554 0.73387 0.0
C227 C 0.63606 0.35499 0.78371 0.0
O228 O 0.70138 0.35193 0.74484 0.0
Co229 Co 0.64238 0.3913 0.75179 0.0
O230 O 0.70329 0.38529 0.7562 0.0
C231 C 0.62362 0.37377 0.70566 0.0
C232 C 0.59681 0.31576 0.73859 0.0
C233 C 0.72194 0.36858 0.75039 0.0
O234 O 0.62814 0.3557 0.71462 0.0
O235 O 0.62542 0.39035 0.71781 0.0
O236 O 0.64608 0.33605 0.77903 0.0
O237 O 0.62309 0.36589 0.76607 0.0
Co238 Co 0.62166 0.90732 0.74279 0.0
O239 O 0.67879 0.91723 0.74347 0.0
O240 O 0.62527 0.93499 0.72893 0.0
C241 C 0.6208 0.89743 0.78045 0.0
O242 O 0.55779 0.90058 0.74051 0.0
Co243 Co 0.61045 0.86033 0.75041 0.0
O244 O 0.55133 0.86888 0.75655 0.0
C245 C 0.63203 0.87554 0.70334 0.0
C246 C 0.66554 0.93422 0.73425 0.0
C247 C 0.53508 0.88548 0.74861 0.0
O248 O 0.63177 0.89405 0.71144 0.0
O249 O 0.62588 0.8596 0.71617 0.0
O250 O 0.61316 0.91639 0.77469 0.0
O251 O 0.63337 0.88551 0.76356 0.0
Co252 Co 0.6368 0.90567 0.48717 0.0
O253 O 0.5811 0.91715 0.48531 0.0
O254 O 0.63585 0.93381 0.50005 0.0
C255 C 0.63739 0.89472 0.44979 0.0
O256 O 0.69961 0.89713 0.49056 0.0
Co257 Co 0.64059 0.85813 0.48119 0.0
O258 O 0.70224 0.86337 0.48065 0.0
C259 C 0.61874 0.87528 0.52727 0.0
C260 C 0.59579 0.93398 0.49419 0.0
C261 C 0.72031 0.88017 0.48667 0.0
O262 O 0.6236 0.89354 0.51883 0.0
O263 O 0.62179 0.85891 0.51484 0.0
O264 O 0.6478 0.91351 0.45498 0.0
O265 O 0.62276 0.8838 0.467 0.0
Co266 Co 0.62351 0.34223 0.48906 0.0
O267 O 0.67992 0.33161 0.48954 0.0
O268 O 0.62462 0.31446 0.50294 0.0
C269 C 0.62518 0.35226 0.45151 0.0
O270 O 0.5603 0.3503 0.49007 0.0
Co271 Co 0.62064 0.3898 0.48219 0.0
O272 O 0.55935 0.38384 0.47913 0.0
C273 C 0.63483 0.37339 0.52921 0.0
C274 C 0.6653 0.31482 0.49855 0.0
C275 C 0.54035 0.36721 0.48495 0.0
O276 O 0.6316 0.35514 0.52064 0.0
O277 O 0.63464 0.38975 0.51665 0.0
O278 O 0.61648 0.33334 0.45701 0.0
O279 O 0.63814 0.36379 0.46864 0.0
Co280 Co 0.3698 0.65668 0.23765 0.0
O281 O 0.42556 0.66785 0.23465 0.0
O282 O 0.37235 0.68462 0.25094 0.0
C283 C 0.36572 0.64608 0.20028 0.0
O284 O 0.30716 0.64846 0.24237 0.0
Co285 Co 0.36456 0.60919 0.23133 0.0
O286 O 0.30311 0.61495 0.23158 0.0
C287 C 0.38985 0.62589 0.27703 0.0
C288 C 0.41197 0.68462 0.24422 0.0
C289 C 0.28582 0.63172 0.23834 0.0
O290 O 0.38508 0.64421 0.2688 0.0
O291 O 0.38525 0.60958 0.26463 0.0
O292 O 0.35651 0.66492 0.2059 0.0
O293 O 0.38158 0.63491 0.21694 0.0
Co294 Co 0.38111 0.09308 0.23907 0.0
O295 O 0.32442 0.08272 0.23808 0.0
O296 O 0.37826 0.0656 0.25331 0.0
C297 C 0.38283 0.10266 0.20132 0.0
O298 O 0.4447 0.10026 0.24164 0.0
Co299 Co 0.39084 0.14004 0.2315 0.0
O300 O 0.45022 0.13191 0.22546 0.0
C301 C 0.36819 0.12493 0.27831 0.0
C302 C 0.33809 0.066 0.24774 0.0
C303 C 0.46697 0.11544 0.23342 0.0
O304 O 0.36962 0.10646 0.2702 0.0
O305 O 0.37436 0.14094 0.26559 0.0
O306 O 0.39073 0.08379 0.20739 0.0
O307 O 0.36931 0.11466 0.21794 0.0
Co308 Co 0.37439 0.08976 0.49505 0.0
O309 O 0.42882 0.07692 0.49189 0.0
O310 O 0.36839 0.06192 0.48223 0.0
C311 C 0.38464 0.1002 0.53211 0.0
O312 O 0.31214 0.09944 0.49713 0.0
Co313 Co 0.37429 0.13716 0.502 0.0
O314 O 0.31446 0.13213 0.51062 0.0
C315 C 0.38394 0.12042 0.45437 0.0
C316 C 0.4095 0.06061 0.48451 0.0
C317 C 0.29379 0.11595 0.505 0.0
O318 O 0.37988 0.10209 0.46278 0.0
O319 O 0.38482 0.13662 0.46722 0.0
O320 O 0.37181 0.08164 0.52761 0.0
O321 O 0.3953 0.11119 0.51405 0.0
Co322 Co 0.39008 0.65832 0.49364 0.0
O323 O 0.33553 0.67126 0.49199 0.0
O324 O 0.39521 0.68624 0.4809 0.0
C325 C 0.38255 0.64768 0.53078 0.0
O326 O 0.45233 0.64847 0.49386 0.0
Co327 Co 0.38974 0.61076 0.50016 0.0
O328 O 0.45117 0.61496 0.50468 0.0
C329 C 0.37709 0.62803 0.453 0.0
C330 C 0.35433 0.68758 0.48419 0.0
C331 C 0.47127 0.63136 0.49926 0.0
O332 O 0.38187 0.64627 0.46148 0.0
O333 O 0.37692 0.61171 0.46565 0.0
O334 O 0.39523 0.66624 0.52617 0.0
O335 O 0.37055 0.63676 0.51295 0.0
Co336 Co 0.6382 0.83847 0.24464 0.0
O337 O 0.58325 0.82632 0.24099 0.0
O338 O 0.64326 0.81059 0.23194 0.0
C339 C 0.62854 0.84916 0.28159 0.0
O340 O 0.70052 0.84749 0.24721 0.0
Co341 Co 0.63915 0.88603 0.2508 0.0
O342 O 0.69875 0.88051 0.25975 0.0
C343 C 0.63248 0.86883 0.20343 0.0
C344 C 0.60204 0.80976 0.23388 0.0
C345 C 0.71903 0.86405 0.25475 0.0
O346 O 0.63528 0.85066 0.21232 0.0
O347 O 0.63023 0.88527 0.21583 0.0
O348 O 0.63947 0.83032 0.27709 0.0
O349 O 0.61821 0.86025 0.26352 0.0
Co350 Co 0.61882 0.40768 0.24624 0.0
O351 O 0.67379 0.41953 0.25005 0.0
O352 O 0.61981 0.43615 0.23438 0.0
C353 C 0.6148 0.39557 0.28295 0.0
O354 O 0.55677 0.39877 0.24099 0.0
Co355 Co 0.61672 0.36008 0.24954 0.0
O356 O 0.55487 0.36487 0.25014 0.0
C357 C 0.6425 0.37906 0.20529 0.0
C358 C 0.65929 0.43646 0.24133 0.0
C359 C 0.53642 0.38163 0.24441 0.0
O360 O 0.63519 0.39677 0.21457 0.0
O361 O 0.63961 0.36212 0.21672 0.0
O362 O 0.60458 0.41447 0.27819 0.0
O363 O 0.63179 0.38526 0.26588 0.0
Co364 Co 0.64666 0.41321 0.98776 0.0
O365 O 0.59285 0.42638 -0.00825 0.0
O366 O 0.65426 0.44107 0.0002 0.0
C367 C 0.63482 0.40259 0.951 0.0
O368 O 0.70815 0.40294 0.98479 0.0
Co369 Co 0.64311 0.36562 0.98175 0.0
O370 O 0.70354 0.36963 0.9735 0.0
C371 C 0.63788 0.38316 0.02902 0.0
C372 C 0.61308 0.44261 -0.00141 0.0
C373 C 0.72524 0.38578 0.97797 0.0
O374 O 0.64322 0.4012 0.02013 0.0
O375 O 0.63348 0.36682 0.01663 0.0
O376 O 0.64781 0.42117 0.95523 0.0
O377 O 0.62423 0.39181 0.96925 0.0
Co378 Co 0.6268 0.84289 0.98619 0.0
O379 O 0.68224 0.83138 0.98267 0.0
O380 O 0.62852 0.81477 -0.00121 0.0
C381 C 0.6218 0.85464 0.94936 0.0
O382 O 0.56447 0.85114 0.99132 0.0
Co383 Co 0.62237 0.89045 0.98242 0.0
O384 O 0.56066 0.88522 0.98312 0.0
C385 C 0.64778 0.87215 0.0271 0.0
C386 C 0.66809 0.8146 -0.00798 0.0
C387 C 0.54332 0.8681 0.98857 0.0
O388 O 0.64231 0.85431 0.01775 0.0
O389 O 0.64396 0.889 0.01558 0.0
O390 O 0.61293 0.8356 0.95432 0.0
O391 O 0.63853 0.86531 0.96624 0.0
Co392 Co 0.36784 0.16233 0.73482 0.0
O393 O 0.42242 0.17486 0.73849 0.0
O394 O 0.36196 0.19065 0.7463 0.0
C395 C 0.37974 0.15052 0.69845 0.0
O396 O 0.3057 0.1528 0.73202 0.0
Co397 Co 0.36833 0.11467 0.7305 0.0
O398 O 0.30871 0.11937 0.72105 0.0
C399 C 0.37451 0.13334 0.77722 0.0
C400 C 0.40325 0.19154 0.74484 0.0
C401 C 0.2878 0.13584 0.72515 0.0
O402 O 0.37038 0.15121 0.76769 0.0
O403 O 0.37771 0.11663 0.76536 0.0
O404 O 0.36748 0.16933 0.70196 0.0
O405 O 0.38938 0.14014 0.71714 0.0
Co406 Co 0.38185 0.59424 0.73694 0.0
O407 O 0.32559 0.58331 0.73854 0.0
O408 O 0.38246 0.56612 0.74969 0.0
C409 C 0.37557 0.60519 0.69986 0.0
O410 O 0.44542 0.6019 0.73632 0.0
Co411 Co 0.38878 0.64165 0.73066 0.0
O412 O 0.44786 0.63452 0.72252 0.0
C413 C 0.37384 0.6248 0.7778 0.0
C414 C 0.34155 0.56622 0.7461 0.0
C415 C 0.46613 0.61778 0.72851 0.0
O416 O 0.37574 0.60648 0.76918 0.0
O417 O 0.37623 0.64114 0.76524 0.0
O418 O 0.38544 0.58622 0.70438 0.0
O419 O 0.36548 0.61647 0.71777 0.0
Co420 Co 0.37997 0.59414 -0.00617 0.0
O421 O 0.43688 0.58404 -0.00574 0.0
O422 O 0.38273 0.5664 0.98018 0.0
C423 C 0.37933 0.60429 0.03133 0.0
O424 O 0.31617 0.60107 -0.0079 0.0
Co425 Co 0.37039 0.64132 0.00081 0.0
O426 O 0.3113 0.63305 0.00754 0.0
C427 C 0.3912 0.62559 0.95398 0.0
C428 C 0.42309 0.56704 0.98529 0.0
C429 C 0.29425 0.61638 0.00031 0.0
O430 O 0.38975 0.60716 0.96229 0.0
O431 O 0.3861 0.64172 0.96664 0.0
O432 O 0.37186 0.58526 0.02578 0.0
O433 O 0.39222 0.61605 0.01436 0.0
Co434 Co 0.38873 0.15774 -0.0041 0.0
O435 O 0.33339 0.16915 6e-05 0.0
O436 O 0.38695 0.18632 0.98459 0.0
C437 C 0.39381 0.14494 0.03232 0.0
O438 O 0.45096 0.1495 0.99024 0.0
Co439 Co 0.39257 0.11017 -0.00216 0.0
O440 O 0.45435 0.11521 -0.00283 0.0
C441 C 0.36658 0.12981 0.95401 0.0
C442 C 0.34743 0.18626 0.99149 0.0
C443 C 0.47191 0.1324 -0.00771 0.0
O444 O 0.37274 0.14736 0.96391 0.0
O445 O 0.37005 0.11266 0.96496 0.0
O446 O 0.40306 0.16404 0.02795 0.0
O447 O 0.37678 0.13479 0.01512 0.0
H448 H 0.11403 0.40922 0.17504 0.0
H449 H 0.11638 0.34248 0.17309 0.0
H450 H 0.11363 0.40999 0.13212 0.0
H451 H 0.11796 0.3433 0.13089 0.0
H452 H 0.08488 0.34726 0.056 0.0
H453 H 0.07647 0.35 0.09805 0.0
H454 H 0.15869 0.40345 0.0987 0.0
H455 H 0.16515 0.40129 0.05589 0.0
C456 C 0.11419 0.39475 0.16553 0.0
C457 C 0.11512 0.3758 0.17759 0.0
C458 C 0.1144 0.3952 0.14094 0.0
C459 C 0.1157 0.37672 0.12798 0.0
C460 C 0.11602 0.35786 0.14016 0.0
C461 C 0.11539 0.3574 0.16453 0.0
C462 C 0.10134 0.35958 0.06508 0.0
C463 C 0.12641 0.37382 0.05273 0.0
C464 C 0.09655 0.36115 0.08926 0.0
C465 C 0.11754 0.37671 0.10191 0.0
C466 C 0.14186 0.39134 0.0895 0.0
C467 C 0.14594 0.39001 0.06505 0.0
H468 H 0.12387 0.91297 0.05723 0.0
H469 H 0.10976 0.84657 0.0558 0.0
H470 H 0.12528 0.91234 0.09946 0.0
H471 H 0.10906 0.84607 0.0987 0.0
H472 H 0.0907 0.90952 0.17475 0.0
H473 H 0.08376 0.90773 0.1326 0.0
H474 H 0.15473 0.85062 0.13197 0.0
H475 H 0.15972 0.85191 0.17482 0.0
C476 C 0.12017 0.8982 0.06591 0.0
C477 C 0.11676 0.87979 0.05297 0.0
C478 C 0.12075 0.89786 0.0903 0.0
C479 C 0.11721 0.87915 0.10263 0.0
C480 C 0.1125 0.86073 0.08978 0.0
C481 C 0.11239 0.86104 0.06519 0.0
C482 C 0.10513 0.89661 0.16569 0.0
C483 C 0.12635 0.881 0.17814 0.0
C484 C 0.10118 0.89559 0.14141 0.0
C485 C 0.11912 0.87917 0.12873 0.0
C486 C 0.14012 0.8634 0.14117 0.0
C487 C 0.14341 0.86423 0.16568 0.0
H488 H 0.90427 0.60163 0.81042 0.0
H489 H 0.84335 0.66139 0.81069 0.0
H490 H 0.90017 0.60063 0.85324 0.0
H491 H 0.83745 0.65998 0.85295 0.0
H492 H 0.88065 0.66359 0.92804 0.0
H493 H 0.88109 0.66302 0.88579 0.0
H494 H 0.85362 0.59764 0.88654 0.0
H495 H 0.85512 0.59799 0.92943 0.0
C496 C 0.88991 0.6145 0.8196 0.0
C497 C 0.87476 0.63172 0.80718 0.0
C498 C 0.88714 0.61384 0.8441 0.0
C499 C 0.86867 0.63028 0.8566 0.0
C500 C 0.8528 0.64726 0.84402 0.0
C501 C 0.85616 0.64806 0.8197 0.0
C502 C 0.87427 0.64905 0.91935 0.0
C503 C 0.86789 0.63081 0.93225 0.0
C504 C 0.87432 0.64876 0.89497 0.0
C505 C 0.86731 0.6303 0.88266 0.0
C506 C 0.85974 0.61208 0.89547 0.0
C507 C 0.86015 0.61232 0.92005 0.0
H508 H 0.90337 0.08814 0.92694 0.0
H509 H 0.9042 0.15489 0.92726 0.0
H510 H 0.90225 0.08815 0.88469 0.0
H511 H 0.90531 0.15489 0.8844 0.0
H512 H 0.85144 0.14608 0.80948 0.0
H513 H 0.85967 0.14819 0.85207 0.0
H514 H 0.93965 0.09397 0.85051 0.0
H515 H 0.92934 0.09127 0.80853 0.0
C516 C 0.90429 0.10289 0.91801 0.0
C517 C 0.90354 0.12153 0.93064 0.0
C518 C 0.90393 0.10289 0.89359 0.0
C519 C 0.90351 0.12153 0.88096 0.0
C520 C 0.9048 0.14023 0.89353 0.0
C521 C 0.90471 0.14024 0.91812 0.0
C522 C 0.8705 0.13458 0.81836 0.0
C523 C 0.889 0.11828 0.80574 0.0
C524 C 0.87567 0.1359 0.84273 0.0
C525 C 0.90011 0.12115 0.85488 0.0
C526 C 0.91965 0.10528 0.84198 0.0
C527 C 0.91376 0.10373 0.81782 0.0
H528 H 0.08533 0.84553 0.67271 0.0
H529 H 0.1331 0.90798 0.67623 0.0
H530 H 0.08987 0.84655 0.63016 0.0
H531 H 0.13875 0.9088 0.63355 0.0
H532 H 0.11104 0.9063 0.55363 0.0
H533 H 0.10225 0.90832 0.59609 0.0
H534 H 0.14773 0.84568 0.60271 0.0
H535 H 0.15549 0.84345 0.5604 0.0
C536 C 0.09633 0.85958 0.66438 0.0
C537 C 0.10917 0.87661 0.67788 0.0
C538 C 0.09938 0.86009 0.63999 0.0
C539 C 0.1157 0.87757 0.62848 0.0
C540 C 0.12607 0.89509 0.64186 0.0
C541 C 0.12271 0.89464 0.66633 0.0
C542 C 0.11975 0.89306 0.56418 0.0
C543 C 0.13367 0.87465 0.55358 0.0
C544 C 0.11461 0.89422 0.58853 0.0
C545 C 0.12345 0.87703 0.60276 0.0
C546 C 0.13941 0.85901 0.59221 0.0
C547 C 0.1443 0.85781 0.56794 0.0
H548 H 0.0995 0.40735 0.55972 0.0
H549 H 0.14859 0.34522 0.55497 0.0
H550 H 0.10412 0.40576 0.6022 0.0
H551 H 0.15456 0.34385 0.59767 0.0
H552 H 0.1222 0.34458 0.67729 0.0
H553 H 0.11696 0.34321 0.6346 0.0
H554 H 0.15971 0.40651 0.63054 0.0
H555 H 0.16357 0.40807 0.67305 0.0
C556 C 0.11111 0.39329 0.56778 0.0
C557 C 0.12394 0.37646 0.55399 0.0
C558 C 0.11416 0.39245 0.59214 0.0
C559 C 0.13064 0.37485 0.60334 0.0
C560 C 0.14168 0.35763 0.58961 0.0
C561 C 0.13821 0.3584 0.56515 0.0
C562 C 0.13107 0.35809 0.66723 0.0
C563 C 0.14289 0.3765 0.67855 0.0
C564 C 0.12803 0.35731 0.64276 0.0
C565 C 0.13706 0.37488 0.62916 0.0
C566 C 0.15123 0.39289 0.6405 0.0
C567 C 0.15385 0.39373 0.66488 0.0
H568 H 0.90117 0.0993 0.30854 0.0
H569 H 0.88647 0.16565 0.31081 0.0
H570 H 0.90321 0.09844 0.3514 0.0
H571 H 0.88653 0.16466 0.35307 0.0
H572 H 0.92256 0.16113 0.42817 0.0
H573 H 0.92901 0.15973 0.38592 0.0
H574 H 0.85788 0.10266 0.38493 0.0
H575 H 0.85333 0.10357 0.42778 0.0
C576 C 0.8987 0.11369 0.31811 0.0
C577 C 0.89367 0.13253 0.30614 0.0
C578 C 0.89938 0.11317 0.34268 0.0
C579 C 0.8949 0.13147 0.35577 0.0
C580 C 0.89083 0.15028 0.3437 0.0
C581 C 0.89055 0.15082 0.3193 0.0
C582 C 0.90803 0.1483 0.41899 0.0
C583 C 0.88685 0.13261 0.43132 0.0
C584 C 0.91171 0.14751 0.39467 0.0
C585 C 0.89353 0.13122 0.38188 0.0
C586 C 0.87267 0.11533 0.39421 0.0
C587 C 0.86965 0.11594 0.41873 0.0
H588 H 0.84412 0.59479 0.31328 0.0
H589 H 0.89075 0.65733 0.30738 0.0
H590 H 0.84961 0.59687 0.3557 0.0
H591 H 0.89723 0.65922 0.35005 0.0
H592 H 0.86575 0.65802 0.4303 0.0
H593 H 0.85935 0.65937 0.38761 0.0
H594 H 0.90804 0.59717 0.38298 0.0
H595 H 0.91344 0.59562 0.42543 0.0
C596 C 0.85524 0.60906 0.32106 0.0
C597 C 0.86734 0.62583 0.30694 0.0
C598 C 0.85878 0.61019 0.34538 0.0
C599 C 0.87484 0.62804 0.35622 0.0
C600 C 0.88479 0.64525 0.34223 0.0
C601 C 0.88098 0.64417 0.31779 0.0
C602 C 0.87573 0.64477 0.42011 0.0
C603 C 0.88964 0.62662 0.43127 0.0
C604 C 0.87199 0.64554 0.39566 0.0
C605 C 0.88227 0.62821 0.38195 0.0
C606 C 0.8986 0.61056 0.39308 0.0
C607 C 0.90207 0.60974 0.41743 0.0
H608 H 0.59091 0.34846 0.55798 0.0
H609 H 0.67035 0.40278 0.55834 0.0
H610 H 0.58319 0.35056 0.60004 0.0
H611 H 0.66461 0.40428 0.60131 0.0
H612 H 0.6179 0.4086 0.67794 0.0
H613 H 0.6188 0.41009 0.63503 0.0
H614 H 0.62566 0.34348 0.63245 0.0
H615 H 0.6228 0.34193 0.67461 0.0
C616 C 0.60749 0.36068 0.56718 0.0
C617 C 0.63213 0.37517 0.55495 0.0
C618 C 0.60305 0.36188 0.59137 0.0
C619 C 0.624 0.37732 0.60419 0.0
C620 C 0.64792 0.39222 0.59195 0.0
C621 C 0.65161 0.39127 0.56743 0.0
C622 C 0.61887 0.39429 0.66813 0.0
C623 C 0.62006 0.37514 0.67979 0.0
C624 C 0.61988 0.39517 0.64356 0.0
C625 C 0.6222 0.37692 0.63025 0.0
C626 C 0.62296 0.35786 0.64202 0.0
C627 C 0.62153 0.35698 0.66636 0.0
H628 H 0.66217 0.90336 0.67158 0.0
H629 H 0.60744 0.84235 0.67675 0.0
H630 H 0.65662 0.9018 0.62913 0.0
H631 H 0.60085 0.84102 0.63411 0.0
H632 H 0.63305 0.84103 0.55436 0.0
H633 H 0.63838 0.83963 0.59701 0.0
H634 H 0.59991 0.90354 0.60109 0.0
H635 H 0.59572 0.90512 0.55856 0.0
C636 C 0.64925 0.88953 0.66364 0.0
C637 C 0.635 0.87304 0.67759 0.0
C638 C 0.64564 0.88872 0.63929 0.0
C639 C 0.62736 0.87148 0.62823 0.0
C640 C 0.61507 0.85453 0.64207 0.0
C641 C 0.61896 0.85527 0.66651 0.0
C642 C 0.62501 0.85468 0.56438 0.0
C643 C 0.61436 0.87326 0.55303 0.0
C644 C 0.62814 0.85388 0.58885 0.0
C645 C 0.62046 0.87159 0.60244 0.0
C646 C 0.6073 0.88978 0.59111 0.0
C647 C 0.60447 0.89063 0.56672 0.0
H648 H 0.42126 0.6546 0.30734 0.0
H649 H 0.37012 0.59276 0.30471 0.0
H650 H 0.41864 0.65373 0.34995 0.0
H651 H 0.36603 0.59215 0.34739 0.0
H652 H 0.3949 0.59374 0.42669 0.0
H653 H 0.40269 0.59186 0.38418 0.0
H654 H 0.36372 0.65563 0.3785 0.0
H655 H 0.35737 0.6577 0.4209 0.0
C656 C 0.40987 0.64073 0.31588 0.0
C657 C 0.39565 0.62381 0.30265 0.0
C658 C 0.4079 0.64031 0.34032 0.0
C659 C 0.39114 0.62306 0.35211 0.0
C660 C 0.37918 0.60566 0.33891 0.0
C661 C 0.38161 0.606 0.31442 0.0
C662 C 0.38747 0.60727 0.41632 0.0
C663 C 0.37576 0.62591 0.42718 0.0
C664 C 0.39202 0.6062 0.39194 0.0
C665 C 0.3846 0.6237 0.37793 0.0
C666 C 0.37097 0.64203 0.38878 0.0
C667 C 0.36685 0.64316 0.4131 0.0
H668 H 0.39611 0.0904 0.42147 0.0
H669 H 0.37171 0.15576 0.42863 0.0
H670 H 0.38938 0.09338 0.3792 0.0
H671 H 0.36381 0.15862 0.38616 0.0
H672 H 0.39617 0.15665 0.30612 0.0
H673 H 0.40066 0.1568 0.34891 0.0
H674 H 0.33402 0.09853 0.35118 0.0
H675 H 0.33077 0.09809 0.3086 0.0
C676 C 0.38938 0.10544 0.41403 0.0
C677 C 0.38425 0.12281 0.42851 0.0
C678 C 0.3851 0.10711 0.38976 0.0
C679 C 0.37521 0.12617 0.37928 0.0
C680 C 0.37151 0.14372 0.39364 0.0
C681 C 0.37607 0.14207 0.418 0.0
C682 C 0.38175 0.1441 0.31582 0.0
C683 C 0.3635 0.12725 0.30399 0.0
C684 C 0.3844 0.14416 0.34035 0.0
C685 C 0.36855 0.12745 0.35347 0.0
C686 C 0.34775 0.11133 0.34161 0.0
C687 C 0.34549 0.11118 0.31719 0.0
H688 H 0.67662 0.84331 0.17507 0.0
H689 H 0.60056 0.89872 0.17394 0.0
H690 H 0.68743 0.84588 0.13318 0.0
H691 H 0.60914 0.90068 0.13127 0.0
H692 H 0.65223 0.83954 0.05708 0.0
H693 H 0.64972 0.84003 0.09925 0.0
H694 H 0.655 0.90673 0.09869 0.0
H695 H 0.65521 0.90627 0.0558 0.0
C696 C 0.66148 0.85588 0.16573 0.0
C697 C 0.63702 0.8706 0.17772 0.0
C698 C 0.66764 0.85735 0.14162 0.0
C699 C 0.64862 0.8733 0.12863 0.0
C700 C 0.62463 0.88829 0.14069 0.0
C701 C 0.61926 0.88707 0.16507 0.0
C702 C 0.65336 0.85438 0.06579 0.0
C703 C 0.65372 0.87288 0.0529 0.0
C704 C 0.65218 0.85466 0.09018 0.0
C705 C 0.65213 0.87343 0.10256 0.0
C706 C 0.65428 0.89199 0.08975 0.0
C707 C 0.65494 0.89172 0.06516 0.0
H708 H 0.60268 0.35374 0.0579 0.0
H709 H 0.68245 0.40796 0.0581 0.0
H710 H 0.60898 0.35157 0.10065 0.0
H711 H 0.69072 0.40519 0.10018 0.0
H712 H 0.64963 0.41183 0.17566 0.0
H713 H 0.65023 0.41152 0.13341 0.0
H714 H 0.65382 0.3448 0.13374 0.0
H715 H 0.65115 0.34508 0.17658 0.0
C716 C 0.62173 0.36508 0.06707 0.0
C717 C 0.64126 0.38127 0.05476 0.0
C718 C 0.62576 0.36373 0.0915 0.0
C719 C 0.65004 0.37834 0.10396 0.0
C720 C 0.67077 0.39402 0.09135 0.0
C721 C 0.66604 0.3956 0.06716 0.0
C722 C 0.65101 0.39702 0.16687 0.0
C723 C 0.65005 0.37846 0.17963 0.0
C724 C 0.65163 0.39685 0.14248 0.0
C725 C 0.65198 0.37812 0.13003 0.0
C726 C 0.65284 0.3595 0.14275 0.0
C727 C 0.65183 0.35967 0.16732 0.0
H728 H 0.4036 0.1027 0.80649 0.0
H729 H 0.33726 0.16103 0.80636 0.0
H730 H 0.39725 0.10117 0.8492 0.0
H731 H 0.32884 0.15903 0.84849 0.0
H732 H 0.36748 0.16292 0.92457 0.0
H733 H 0.36844 0.16291 0.88231 0.0
H734 H 0.35138 0.09668 0.88195 0.0
H735 H 0.3526 0.09656 0.9248 0.0
C736 C 0.38752 0.11512 0.81557 0.0
C737 C 0.37163 0.13214 0.80309 0.0
C738 C 0.38343 0.11416 0.84003 0.0
C739 C 0.36272 0.13004 0.85243 0.0
C740 C 0.34597 0.14676 0.83973 0.0
C741 C 0.35075 0.1479 0.81547 0.0
C742 C 0.36341 0.14831 0.91562 0.0
C743 C 0.36014 0.12971 0.92822 0.0
C744 C 0.36375 0.14832 0.8912 0.0
C745 C 0.36008 0.12979 0.87854 0.0
C746 C 0.35506 0.11122 0.89109 0.0
C747 C 0.35525 0.11117 0.91568 0.0
H748 H 0.35278 0.5952 0.80978 0.0
H749 H 0.39276 0.65885 0.80444 0.0
H750 H 0.35903 0.59699 0.85218 0.0
H751 H 0.40014 0.66047 0.84703 0.0
H752 H 0.36864 0.65882 0.92691 0.0
H753 H 0.36278 0.65987 0.88422 0.0
H754 H 0.41565 0.59844 0.88017 0.0
H755 H 0.42039 0.59717 0.92267 0.0
C756 C 0.36275 0.60962 0.81766 0.0
C757 C 0.37252 0.62684 0.80367 0.0
C758 C 0.36673 0.6106 0.84199 0.0
C759 C 0.38095 0.62875 0.853 0.0
C760 C 0.38905 0.64626 0.83912 0.0
C761 C 0.38477 0.64533 0.8147 0.0
C762 C 0.37968 0.64569 0.91686 0.0
C763 C 0.3946 0.62783 0.9282 0.0
C764 C 0.37625 0.64628 0.89238 0.0
C765 C 0.38792 0.62908 0.87879 0.0
C766 C 0.40518 0.61173 0.89013 0.0
C767 C 0.4083 0.61108 0.91451 0.0
H768 H 0.9853 0.19435 0.25485 0.0
H769 H 0.87465 0.2315 0.24095 0.0
H770 H 0.03031 0.22469 0.25177 0.0
H771 H 0.9198 0.26195 0.2366 0.0
H772 H 0.00789 0.31573 0.2517 0.0
H773 H 0.96227 0.28601 0.25522 0.0
H774 H 0.06017 0.24769 0.22477 0.0
H775 H 0.10724 0.27772 0.22244 0.0
C776 C 0.97059 0.20914 0.2513 0.0
C777 C 0.92644 0.21063 0.24832 0.0
C778 C 0.99651 0.22652 0.24914 0.0
C779 C 0.97908 0.24586 0.24351 0.0
C780 C 0.93456 0.24742 0.24119 0.0
C781 C 0.90849 0.23 0.24377 0.0
C782 C 0.01984 0.30102 0.24556 0.0
C783 C 0.06146 0.29914 0.23682 0.0
C784 C 0.99331 0.28388 0.24747 0.0
C785 C 0.00722 0.26428 0.24039 0.0
C786 C 0.04849 0.26245 0.23089 0.0
C787 C 0.07543 0.27968 0.22927 0.0
H788 H 0.23113 0.94553 0.22279 0.0
H789 H 0.12294 0.97967 0.24801 0.0
H790 H 0.27569 0.97592 0.22724 0.0
H791 H 0.16785 0.01008 0.25354 0.0
H792 H 0.25351 0.06575 0.23947 0.0
H793 H 0.20688 0.03635 0.23554 0.0
H794 H 0.30904 0.99587 0.25658 0.0
H795 H 0.35675 0.02562 0.25943 0.0
C796 C 0.21679 0.95971 0.229 0.0
C797 C 0.17351 0.96033 0.23485 0.0
C798 C 0.24251 0.97705 0.23198 0.0
C799 C 0.2258 0.99543 0.24126 0.0
C800 C 0.18194 0.99627 0.24622 0.0
C801 C 0.156 0.97891 0.2429 0.0
C802 C 0.26613 0.05061 0.24349 0.0
C803 C 0.3091 0.04803 0.24957 0.0
C804 C 0.2391 0.03368 0.24135 0.0
C805 C 0.25406 0.0136 0.24543 0.0
C806 C 0.29659 0.01107 0.25271 0.0
C807 C 0.32388 0.02812 0.25469 0.0
H808 H 0.01872 0.93954 -0.00396 0.0
H809 H 0.12928 0.97878 -0.00614 0.0
H810 H 0.97287 0.96964 -0.00466 0.0
H811 H 0.0833 0.00916 -0.00783 0.0
H812 H 0.99048 0.05949 0.01269 0.0
H813 H 0.03624 0.02964 0.01373 0.0
H814 H 0.94691 0.99606 0.97067 0.0
H815 H 0.89965 0.02612 0.9705 0.0
C816 C 0.03324 0.95469 -0.00453 0.0
C817 C 0.07764 0.95682 -0.0049 0.0
C818 C 0.00686 0.97198 -0.00524 0.0
C819 C 0.02411 0.99193 -0.00663 0.0
C820 C 0.06872 0.99407 -0.00652 0.0
C821 C 0.09521 0.97669 -0.0055 0.0
C822 C 0.98043 0.0458 0.00331 0.0
C823 C 0.94125 0.04522 0.99147 0.0
C824 C 0.00705 0.02864 0.0038 0.0
C825 C 0.99564 0.01035 -0.00777 0.0
C826 C 0.95657 0.00978 0.9801 0.0
C827 C 0.92953 0.02702 0.97982 0.0
H828 H 0.26601 0.18794 0.00652 0.0
H829 H 0.36484 0.22614 0.97695 0.0
H830 H 0.22019 0.21765 0.01018 0.0
H831 H 0.31776 0.25616 0.97978 0.0
H832 H 0.24201 0.30911 0.01008 0.0
H833 H 0.28715 0.27872 0.00808 0.0
H834 H 0.17819 0.24159 0.98961 0.0
H835 H 0.13279 0.27209 -0.00755 0.0
C836 C 0.27788 0.2027 0.00047 0.0
C837 C 0.31931 0.20464 0.99146 0.0
C838 C 0.25127 0.21979 0.00247 0.0
C839 C 0.26505 0.2394 -0.00465 0.0
C840 C 0.30626 0.24134 0.98584 0.0
C841 C 0.33317 0.22413 0.98397 0.0
C842 C 0.22757 0.29435 0.00606 0.0
C843 C 0.18382 0.29294 0.00152 0.0
C844 C 0.2536 0.27697 0.00455 0.0
C845 C 0.23667 0.2577 -0.00178 0.0
C846 C 0.19245 0.25613 -0.00533 0.0
C847 C 0.16626 0.27356 -0.00358 0.0
H848 H 0.9837 0.6943 0.7593 0.0
H849 H 0.87506 0.72967 0.73703 0.0
H850 H 0.02885 0.72448 0.75485 0.0
H851 H 0.92051 0.75991 0.73159 0.0
H852 H 0.00734 0.81485 0.74623 0.0
H853 H 0.96084 0.78542 0.7501 0.0
H854 H 0.06145 0.74537 0.72596 0.0
H855 H 0.10914 0.77517 0.72308 0.0
C856 C 0.96939 0.70868 0.75368 0.0
C857 C 0.92575 0.70968 0.7487 0.0
C858 C 0.99545 0.72592 0.75074 0.0
C859 C 0.97874 0.74465 0.74241 0.0
C860 C 0.93464 0.74584 0.7382 0.0
C861 C 0.90839 0.72856 0.74145 0.0
C862 C 0.0197 0.7998 0.74154 0.0
C863 C 0.06224 0.79738 0.73448 0.0
C864 C 0.9927 0.78285 0.74364 0.0
C865 C 0.00717 0.76286 0.73856 0.0
C866 C 0.04933 0.76047 0.73053 0.0
C867 C 0.07662 0.77756 0.72857 0.0
H868 H 0.64765 0.97529 0.72566 0.0
H869 H 0.75072 0.93337 0.74038 0.0
H870 H 0.69657 0.00448 0.72966 0.0
H871 H 0.79869 0.96217 0.74539 0.0
H872 H 0.88346 0.01908 0.73467 0.0
H873 H 0.83736 0.9892 0.72846 0.0
H874 H 0.73278 0.02252 0.75967 0.0
H875 H 0.77849 0.05243 0.76489 0.0
C876 C 0.68074 0.97229 0.72945 0.0
C877 C 0.69512 0.95202 0.73279 0.0
C878 C 0.70876 0.98901 0.73211 0.0
C879 C 0.75168 0.98578 0.73827 0.0
C880 C 0.76618 0.96539 0.74051 0.0
C881 C 0.7384 0.9488 0.73773 0.0
C882 C 0.85094 0.01973 0.74076 0.0
C883 C 0.83464 0.038 0.7504 0.0
C884 C 0.82428 0.00268 0.73704 0.0
C885 C 0.78087 0.0035 0.74312 0.0
C886 C 0.76551 0.02145 0.75405 0.0
C887 C 0.79195 0.03849 0.75748 0.0
H888 H 0.74652 0.81086 0.97308 0.0
H889 H 0.65359 0.77684 0.01318 0.0
H890 H 0.79254 0.78105 0.97235 0.0
H891 H 0.70096 0.74685 0.01332 0.0
H892 H 0.7728 0.69065 0.98769 0.0
H893 H 0.72755 0.72093 0.98821 0.0
H894 H 0.83844 0.75989 -0.00587 0.0
H895 H 0.88396 0.72928 -0.00732 0.0
C896 C 0.73605 0.79704 0.98207 0.0
C897 C 0.69619 0.79625 -0.00681 0.0
C898 C 0.7628 0.7799 0.98176 0.0
C899 C 0.75076 0.76143 -0.00723 0.0
C900 C 0.7111 0.76071 0.0043 0.0
C901 C 0.68398 0.77791 0.00441 0.0
C902 C 0.7876 0.70572 0.98883 0.0
C903 C 0.83199 0.70761 0.99009 0.0
C904 C 0.76153 0.72311 0.98944 0.0
C905 C 0.77905 0.74294 0.9916 0.0
C906 C 0.82368 0.74489 -0.00773 0.0
C907 C 0.84991 0.72739 0.99138 0.0
H908 H 0.25785 0.56414 0.73571 0.0
H909 H 0.36272 0.52616 0.75832 0.0
H910 H 0.21373 0.53398 0.73157 0.0
H911 H 0.31725 0.49559 0.75552 0.0
H912 H 0.24233 0.44265 0.72464 0.0
H913 H 0.28584 0.47349 0.72832 0.0
H914 H 0.17481 0.50824 0.74907 0.0
H915 H 0.13115 0.47745 0.744 0.0
C916 C 0.27136 0.54931 0.74031 0.0
C917 C 0.31407 0.54761 0.74728 0.0
C918 C 0.2457 0.53189 0.73805 0.0
C919 C 0.2616 0.51214 0.74305 0.0
C920 C 0.30397 0.51047 0.75097 0.0
C921 C 0.33001 0.52801 0.75291 0.0
C922 C 0.22715 0.45704 0.72947 0.0
C923 C 0.18329 0.45773 0.73379 0.0
C924 C 0.25225 0.47469 0.73201 0.0
C925 C 0.2343 0.49346 0.73941 0.0
C926 C 0.18998 0.49422 0.74306 0.0
C927 C 0.16472 0.47659 0.74007 0.0
H928 H 0.89724 0.52536 0.47487 0.0
H929 H 1.00032 0.56363 0.49936 0.0
H930 H 0.94341 0.49503 0.47759 0.0
H931 H 0.04504 0.53371 0.5034 0.0
H932 H 0.12955 0.47805 0.49056 0.0
H933 H 0.08511 0.50856 0.48558 0.0
H934 H 0.97458 0.47277 0.50488 0.0
H935 H 0.01893 0.4422 0.5085 0.0
C936 C 0.9297 0.52732 0.48066 0.0
C937 C 0.94493 0.54693 0.48686 0.0
C938 C 0.95612 0.50992 0.48256 0.0
C939 C 0.99815 0.51175 0.49097 0.0
C940 C 0.01335 0.53152 0.49653 0.0
C941 C 0.98734 0.5488 0.49432 0.0
C942 C 0.0959 0.47689 0.49421 0.0
C943 C 0.07774 0.45783 0.50006 0.0
C944 C 0.07021 0.49436 0.49126 0.0
C945 C 0.02584 0.49323 0.49453 0.0
C946 C 0.00824 0.47425 0.50151 0.0
C947 C 0.03379 0.45676 0.50401 0.0
H948 H 0.38098 0.72695 0.49355 0.0
H949 H 0.27164 0.69158 0.47238 0.0
H950 H 0.336 0.75723 0.49915 0.0
H951 H 0.22685 0.72192 0.47668 0.0
H952 H 0.14718 0.77294 0.50797 0.0
H953 H 0.1942 0.74297 0.50468 0.0
H954 H 0.29615 0.78298 0.48206 0.0
H955 H 0.25044 0.81254 0.48664 0.0
C956 C 0.34756 0.72587 0.48932 0.0
C957 C 0.32988 0.70698 0.48237 0.0
C958 C 0.32154 0.7432 0.49264 0.0
C959 C 0.27734 0.7421 0.48871 0.0
C960 C 0.26031 0.72334 0.4806 0.0
C961 C 0.28616 0.706 0.4777 0.0
C962 C 0.17987 0.77527 0.50277 0.0
C963 C 0.19487 0.79515 0.49757 0.0
C964 C 0.2068 0.75808 0.50053 0.0
C965 C 0.24917 0.76039 0.49279 0.0
C966 C 0.26418 0.78041 0.48834 0.0
C967 C 0.23761 0.79748 0.49086 0.0
H968 H 0.87222 0.52297 0.24821 0.0
H969 H 0.76098 0.56051 0.25914 0.0
H970 H 0.82728 0.4925 0.24398 0.0
H971 H 0.71603 0.53009 0.25607 0.0
H972 H 0.64211 0.47602 0.22535 0.0
H973 H 0.68823 0.50639 0.22868 0.0
H974 H 0.78355 0.46902 0.26287 0.0
H975 H 0.73906 0.43904 0.25851 0.0
C976 C 0.83825 0.52457 0.25044 0.0
C977 C 0.82014 0.54406 0.25411 0.0
C978 C 0.8123 0.50713 0.24791 0.0
C979 C 0.76769 0.50876 0.24938 0.0
C980 C 0.74998 0.52822 0.25416 0.0
C981 C 0.77584 0.54564 0.25631 0.0
C982 C 0.67314 0.47436 0.23327 0.0
C983 C 0.68678 0.45508 0.24157 0.0
C984 C 0.6995 0.49177 0.23544 0.0
C985 C 0.73983 0.49028 0.24616 0.0
C986 C 0.75329 0.47088 0.25415 0.0
C987 C 0.72737 0.45359 0.25176 0.0
H988 H 0.64622 0.27387 0.50782 0.0
H989 H 0.75067 0.31531 0.49412 0.0
H990 H 0.69527 0.24455 0.50585 0.0
H991 H 0.79861 0.28645 0.4909 0.0
H992 H 0.88357 0.2306 0.50372 0.0
H993 H 0.83643 0.26021 0.50883 0.0
H994 H 0.73352 0.22541 0.47794 0.0
H995 H 0.78022 0.19572 0.47403 0.0
C996 C 0.67958 0.27674 0.50465 0.0
C997 C 0.69435 0.29692 0.50103 0.0
C998 C 0.70771 0.25995 0.50316 0.0
C999 C 0.75109 0.263 0.49784 0.0
C1000 C 0.7658 0.28332 0.49523 0.0
C1001 C 0.73798 0.29997 0.49695 0.0
C1002 C 0.85116 0.22955 0.49753 0.0
C1003 C 0.83564 0.21097 0.4883 0.0
C1004 C 0.82389 0.24646 0.50059 0.0
C1005 C 0.78067 0.24522 0.49416 0.0
C1006 C 0.76605 0.22686 0.4838 0.0
C1007 C 0.79306 0.20993 0.48111 0.0
H1008 H 0.48476 0.19481 0.75914 0.0
H1009 H 0.37932 0.23116 0.73437 0.0
H1010 H 0.53123 0.22466 0.75613 0.0
H1011 H 0.42614 0.26101 0.73024 0.0
H1012 H 0.51227 0.31535 0.74664 0.0
H1013 H 0.46516 0.28616 0.74948 0.0
H1014 H 0.56739 0.24555 0.72884 0.0
H1015 H 0.61577 0.27518 0.72716 0.0
C1016 C 0.47143 0.20934 0.75329 0.0
C1017 C 0.4283 0.21073 0.74722 0.0
C1018 C 0.49828 0.2264 0.75116 0.0
C1019 C 0.48291 0.24529 0.74253 0.0
C1020 C 0.43926 0.24683 0.73717 0.0
C1021 C 0.4122 0.22977 0.73965 0.0
C1022 C 0.52494 0.30024 0.74252 0.0
C1023 C 0.56809 0.29763 0.7368 0.0
C1024 C 0.49755 0.2834 0.74401 0.0
C1025 C 0.51216 0.26333 0.73955 0.0
C1026 C 0.55506 0.26073 0.7329 0.0
C1027 C 0.58279 0.27771 0.73162 0.0
H1028 H 0.38257 0.02104 0.49268 0.0
H1029 H 0.4922 0.05671 0.47253 0.0
H1030 H 0.42735 0.99055 0.49725 0.0
H1031 H 0.53679 0.02622 0.47598 0.0
H1032 H 0.6153 0.97419 0.50688 0.0
H1033 H 0.56874 0.0044 0.50393 0.0
H1034 H 0.46735 0.96533 0.4787 0.0
H1035 H 0.51255 0.93553 0.48275 0.0
C1036 C 0.416 0.02217 0.48848 0.0
C1037 C 0.43382 0.0412 0.48213 0.0
C1038 C 0.44189 0.00472 0.49122 0.0
C1039 C 0.4861 0.00586 0.48733 0.0
C1040 C 0.50329 0.02477 0.47982 0.0
C1041 C 0.47756 0.04221 0.47744 0.0
C1042 C 0.58285 0.97212 0.50111 0.0
C1043 C 0.56783 0.95243 0.49506 0.0
C1044 C 0.5562 0.98944 0.49911 0.0
C1045 C 0.51411 0.98745 0.49085 0.0
C1046 C 0.49912 0.96762 0.48542 0.0
C1047 C 0.52541 0.95043 0.48763 0.0
H1048 H 0.51895 0.80652 0.22245 0.0
H1049 H 0.62784 0.77 0.24181 0.0
H1050 H 0.47346 0.77635 0.22618 0.0
H1051 H 0.58217 0.73984 0.24661 0.0
H1052 H 0.49483 0.6856 0.23194 0.0
H1053 H 0.54092 0.71509 0.22782 0.0
H1054 H 0.44173 0.75469 0.25461 0.0
H1055 H 0.39425 0.7248 0.25768 0.0
C1056 C 0.53323 0.7919 0.22724 0.0
C1057 C 0.57702 0.79055 0.23164 0.0
C1058 C 0.507 0.77466 0.22978 0.0
C1059 C 0.52375 0.75563 0.23713 0.0
C1060 C 0.56798 0.75414 0.24072 0.0
C1061 C 0.59436 0.77139 0.23784 0.0
C1062 C 0.48266 0.70055 0.23715 0.0
C1063 C 0.44058 0.70282 0.24506 0.0
C1064 C 0.50945 0.71755 0.2349 0.0
C1065 C 0.4953 0.73742 0.24074 0.0
C1066 C 0.45358 0.73967 0.24948 0.0
C1067 C 0.42643 0.72254 0.25155 0.0
H1068 H 0.53256 0.44746 0.01392 0.0
H1069 H 0.63917 0.48143 0.9864 0.0
H1070 H 0.48736 0.47761 0.00916 0.0
H1071 H 0.59363 0.51151 0.98052 0.0
H1072 H 0.50794 0.56725 -0.00739 0.0
H1073 H 0.55491 0.53813 -0.0024 0.0
H1074 H 0.45243 0.49667 0.9797 0.0
H1075 H 0.40438 0.52618 0.97583 0.0
C1076 C 0.54645 0.46157 0.00719 0.0
C1077 C 0.58947 0.4622 0.00076 0.0
C1078 C 0.52034 0.47876 0.00402 0.0
C1079 C 0.53637 0.49697 -0.00605 0.0
C1080 C 0.58003 0.49785 0.98847 0.0
C1081 C 0.60636 0.48068 -0.00801 0.0
C1082 C 0.4953 0.55195 0.9895 0.0
C1083 C 0.45217 0.54906 0.98397 0.0
C1084 C 0.52253 0.53516 -0.00774 0.0
C1085 C 0.50766 0.5149 0.98935 0.0
C1086 C 0.46489 0.51202 0.98266 0.0
C1087 C 0.43738 0.52893 0.98008 0.0
H1088 H 0.14433 0.36075 0.43313 0.0
H1089 H 0.11406 0.42344 0.41381 0.0
H1090 H 0.14451 0.35097 0.39178 0.0
H1091 H 0.11102 0.41362 0.3728 0.0
H1092 H 0.15038 0.39494 0.29928 0.0
H1093 H 0.15172 0.40498 0.34062 0.0
H1094 H 0.10204 0.34493 0.35967 0.0
H1095 H 0.10389 0.3347 0.31881 0.0
C1096 C 0.13695 0.37229 0.41999 0.0
C1097 C 0.12931 0.39277 0.42645 0.0
C1098 C 0.13681 0.36675 0.39631 0.0
C1099 C 0.12781 0.38153 0.37881 0.0
C1100 C 0.11914 0.40193 0.3856 0.0
C1101 C 0.12043 0.40752 0.40913 0.0
C1102 C 0.1397 0.38406 0.31245 0.0
C1103 C 0.12727 0.36411 0.3061 0.0
C1104 C 0.14024 0.38975 0.3361 0.0
C1105 C 0.1272 0.37571 0.35363 0.0
C1106 C 0.11346 0.35597 0.34688 0.0
C1107 C 0.11407 0.35016 0.32343 0.0
H1108 H 0.15542 0.86197 0.29858 0.0
H1109 H 0.09807 0.91908 0.32168 0.0
H1110 H 0.15816 0.85015 0.33947 0.0
H1111 H 0.10017 0.90727 0.3619 0.0
H1112 H 0.15037 0.88947 0.43349 0.0
H1113 H 0.15263 0.90037 0.39245 0.0
H1114 H 0.10806 0.84018 0.37098 0.0
H1115 H 0.10652 0.82921 0.41175 0.0
C1116 C 0.14335 0.8719 0.31232 0.0
C1117 C 0.12678 0.89143 0.307 0.0
C1118 C 0.14481 0.86518 0.33565 0.0
C1119 C 0.12978 0.87793 0.35385 0.0
C1120 C 0.11284 0.89731 0.34834 0.0
C1121 C 0.11136 0.90398 0.32522 0.0
C1122 C 0.14108 0.87863 0.41997 0.0
C1123 C 0.12818 0.85857 0.42576 0.0
C1124 C 0.14232 0.88483 0.39653 0.0
C1125 C 0.13062 0.87106 0.37855 0.0
C1126 C 0.11788 0.85099 0.38442 0.0
C1127 C 0.11662 0.84481 0.40779 0.0
H1128 H 0.16478 0.83048 0.81708 0.0
H1129 H 0.12031 0.89152 0.79883 0.0
H1130 H 0.16804 0.84039 0.85818 0.0
H1131 H 0.1234 0.90142 0.84022 0.0
H1132 H 0.17833 0.91726 0.91179 0.0
H1133 H 0.17859 0.9066 0.871 0.0
H1134 H 0.11653 0.84955 0.89007 0.0
H1135 H 0.11643 0.86024 0.93134 0.0
C1136 C 0.1558 0.84606 0.82185 0.0
C1137 C 0.14216 0.86026 0.80479 0.0
C1138 C 0.15741 0.85164 0.84541 0.0
C1139 C 0.14571 0.87158 0.85236 0.0
C1140 C 0.13282 0.88595 0.83526 0.0
C1141 C 0.13097 0.88031 0.81163 0.0
C1142 C 0.16487 0.90238 0.90738 0.0
C1143 C 0.14701 0.88961 0.92471 0.0
C1144 C 0.16482 0.89637 0.88397 0.0
C1145 C 0.14711 0.87742 0.87738 0.0
C1146 C 0.13047 0.86427 0.89476 0.0
C1147 C 0.13035 0.87035 0.91831 0.0
H1148 H 0.10301 0.41821 0.82057 0.0
H1149 H 0.16382 0.36171 0.79831 0.0
H1150 H 0.10809 0.4073 0.86121 0.0
H1151 H 0.1697 0.35091 0.8393 0.0
H1152 H 0.11951 0.3289 0.91057 0.0
H1153 H 0.12086 0.34025 0.87013 0.0
H1154 H 0.16016 0.40107 0.89245 0.0
H1155 H 0.15796 0.38971 0.93346 0.0
C1156 C 0.11765 0.40346 0.82439 0.0
C1157 C 0.13293 0.39074 0.80631 0.0
C1158 C 0.12093 0.39734 0.84771 0.0
C1159 C 0.13956 0.37836 0.85343 0.0
C1160 C 0.15492 0.36559 0.83534 0.0
C1161 C 0.15158 0.37173 0.81193 0.0
C1162 C 0.12861 0.3447 0.90693 0.0
C1163 C 0.13854 0.35848 0.92516 0.0
C1164 C 0.12973 0.35113 0.8837 0.0
C1165 C 0.14084 0.37148 0.87812 0.0
C1166 C 0.1512 0.38529 0.89632 0.0
C1167 C 0.15009 0.37882 0.91972 0.0
H1168 H 0.85778 0.60981 0.6859 0.0
H1169 H 0.91109 0.66856 0.66592 0.0
H1170 H 0.85833 0.59893 0.64484 0.0
H1171 H 0.91474 0.65744 0.62532 0.0
H1172 H 0.86964 0.64228 0.55211 0.0
H1173 H 0.87073 0.65227 0.59339 0.0
H1174 H 0.89859 0.58907 0.61275 0.0
H1175 H 0.89452 0.5791 0.57182 0.0
C1176 C 0.87065 0.6201 0.67273 0.0
C1177 C 0.88421 0.63995 0.67879 0.0
C1178 C 0.87111 0.61395 0.64923 0.0
C1179 C 0.88613 0.62742 0.63163 0.0
C1180 C 0.90171 0.64689 0.63818 0.0
C1181 C 0.90017 0.65318 0.66146 0.0
C1182 C 0.87596 0.63065 0.56531 0.0
C1183 C 0.88182 0.61 0.55895 0.0
C1184 C 0.87691 0.63631 0.58894 0.0
C1185 C 0.88488 0.62146 0.60651 0.0
C1186 C 0.89147 0.60085 0.59987 0.0
C1187 C 0.88946 0.59515 0.57638 0.0
H1188 H 0.85136 0.13731 0.68729 0.0
H1189 H 0.88965 0.07736 0.66161 0.0
H1190 H 0.84639 0.14971 0.64674 0.0
H1191 H 0.88572 0.08973 0.62165 0.0
H1192 H 0.84766 0.11339 0.55034 0.0
H1193 H 0.83861 0.10137 0.59079 0.0
H1194 H 0.898 0.15721 0.61618 0.0
H1195 H 0.90609 0.16928 0.57624 0.0
C1196 C 0.8585 0.12682 0.67303 0.0
C1197 C 0.87117 0.10647 0.67757 0.0
C1198 C 0.85577 0.13387 0.64988 0.0
C1199 C 0.86566 0.12065 0.63103 0.0
C1200 C 0.87722 0.10019 0.63571 0.0
C1201 C 0.87992 0.09318 0.65869 0.0
C1202 C 0.8586 0.12303 0.56463 0.0
C1203 C 0.87771 0.14217 0.56018 0.0
C1204 C 0.85342 0.11621 0.58773 0.0
C1205 C 0.86739 0.12844 0.60666 0.0
C1206 C 0.88612 0.14764 0.60206 0.0
C1207 C 0.89119 0.15442 0.57911 0.0
H1208 H 0.8359 0.17143 0.16452 0.0
H1209 H 0.88969 0.11276 0.18504 0.0
H1210 H 0.83598 0.16063 0.12377 0.0
H1211 H 0.88984 0.10192 0.14382 0.0
H1212 H 0.83751 0.08343 0.07157 0.0
H1213 H 0.83624 0.09421 0.11236 0.0
H1214 H 0.89032 0.15302 0.09285 0.0
H1215 H 0.89156 0.14222 0.05165 0.0
C1216 C 0.84771 0.15617 0.16033 0.0
C1217 C 0.86298 0.14291 0.17795 0.0
C1218 C 0.848 0.15009 0.13694 0.0
C1219 C 0.86326 0.13057 0.13066 0.0
C1220 C 0.87777 0.11707 0.14828 0.0
C1221 C 0.87776 0.12324 0.17179 0.0
C1222 C 0.84902 0.09872 0.0759 0.0
C1223 C 0.86483 0.112 0.05845 0.0
C1224 C 0.84856 0.10478 0.09931 0.0
C1225 C 0.86359 0.12431 0.10575 0.0
C1226 C 0.87846 0.13786 0.08827 0.0
C1227 C 0.87919 0.13172 0.06476 0.0
H1228 H 0.86087 0.61043 0.05272 0.0
H1229 H 0.92595 0.66589 0.07472 0.0
H1230 H 0.85654 0.59928 0.09372 0.0
H1231 H 0.92196 0.65473 0.11529 0.0
H1232 H 0.86293 0.63952 0.18655 0.0
H1233 H 0.86573 0.65 0.14532 0.0
H1234 H 0.90491 0.58842 0.12586 0.0
H1235 H 0.90168 0.57793 0.16672 0.0
C1236 C 0.87452 0.6201 0.06625 0.0
C1237 C 0.89348 0.63904 0.0606 0.0
C1238 C 0.87206 0.61376 0.08965 0.0
C1239 C 0.88845 0.62631 0.10764 0.0
C1240 C 0.90827 0.64498 0.10183 0.0
C1241 C 0.91083 0.65126 0.07856 0.0
C1242 C 0.87205 0.62828 0.17342 0.0
C1243 C 0.8821 0.60797 0.17979 0.0
C1244 C 0.87379 0.63425 0.14989 0.0
C1245 C 0.88545 0.61996 0.13245 0.0
C1246 C 0.89528 0.59965 0.13889 0.0
C1247 C 0.89371 0.59373 0.16233 0.0
H1248 H 0.61036 0.36432 0.93516 0.0
H1249 H 0.65518 0.42405 0.91206 0.0
H1250 H 0.60817 0.35276 0.89418 0.0
H1251 H 0.65378 0.41251 0.87174 0.0
H1252 H 0.60728 0.39208 0.80018 0.0
H1253 H 0.60333 0.40304 0.84116 0.0
H1254 H 0.65997 0.34535 0.86281 0.0
H1255 H 0.66319 0.3343 0.82213 0.0
C1256 C 0.61967 0.37491 0.92139 0.0
C1257 C 0.63286 0.39503 0.92675 0.0
C1258 C 0.61857 0.36833 0.89802 0.0
C1259 C 0.63056 0.38183 0.87982 0.0
C1260 C 0.64359 0.40191 0.88533 0.0
C1261 C 0.6447 0.40843 0.9085 0.0
C1262 C 0.61894 0.38183 0.81373 0.0
C1263 C 0.63555 0.36241 0.80804 0.0
C1264 C 0.61668 0.38805 0.83713 0.0
C1265 C 0.63111 0.37495 0.85514 0.0
C1266 C 0.64789 0.35559 0.84935 0.0
C1267 C 0.65012 0.34938 0.82602 0.0
H1268 H 0.58472 0.8346 0.91318 0.0
H1269 H 0.64833 0.8916 0.93102 0.0
H1270 H 0.58228 0.84497 0.87227 0.0
H1271 H 0.64618 0.90194 0.8897 0.0
H1272 H 0.59685 0.9209 0.81742 0.0
H1273 H 0.59441 0.91119 0.85856 0.0
H1274 H 0.63531 0.84956 0.8405 0.0
H1275 H 0.63738 0.85925 0.799 0.0
C1276 C 0.59805 0.84942 0.90836 0.0
C1277 C 0.61707 0.86226 0.92522 0.0
C1278 C 0.59686 0.85526 0.88489 0.0
C1279 C 0.61452 0.87409 0.8778 0.0
C1280 C 0.63222 0.88733 0.89477 0.0
C1281 C 0.63351 0.88144 0.91835 0.0
C1282 C 0.60519 0.90523 0.82217 0.0
C1283 C 0.6175 0.89081 0.80505 0.0
C1284 C 0.60403 0.89976 0.84576 0.0
C1285 C 0.61495 0.87971 0.8527 0.0
C1286 C 0.62647 0.86512 0.83555 0.0
C1287 C 0.62779 0.87064 0.81187 0.0
H1288 H 0.60824 0.85804 0.43247 0.0
H1289 H 0.66566 0.91585 0.4118 0.0
H1290 H 0.60396 0.84782 0.3913 0.0
H1291 H 0.66204 0.90551 0.37082 0.0
H1292 H 0.60781 0.88775 0.29832 0.0
H1293 H 0.60914 0.89898 0.33946 0.0
H1294 H 0.6535 0.83857 0.36022 0.0
H1295 H 0.65145 0.82737 0.31981 0.0
C1296 C 0.62025 0.86845 0.41916 0.0
C1297 C 0.63729 0.88768 0.42529 0.0
C1298 C 0.6178 0.86264 0.39563 0.0
C1299 C 0.63246 0.87596 0.37788 0.0
C1300 C 0.64983 0.89511 0.38409 0.0
C1301 C 0.65228 0.9009 0.40757 0.0
C1302 C 0.61766 0.87695 0.31176 0.0
C1303 C 0.62925 0.85671 0.30591 0.0
C1304 C 0.6186 0.88335 0.33522 0.0
C1305 C 0.63106 0.86954 0.35302 0.0
C1306 C 0.64293 0.84941 0.34698 0.0
C1307 C 0.642 0.84307 0.32374 0.0
H1308 H 0.64225 0.39057 0.43319 0.0
H1309 H 0.60053 0.32913 0.41456 0.0
H1310 H 0.63849 0.40062 0.39176 0.0
H1311 H 0.59647 0.33916 0.37366 0.0
H1312 H 0.64452 0.35898 0.30053 0.0
H1313 H 0.64676 0.34875 0.34186 0.0
H1314 H 0.58256 0.40519 0.36107 0.0
H1315 H 0.58052 0.41544 0.3201 0.0
C1316 C 0.63217 0.37931 0.42031 0.0
C1317 C 0.62188 0.35911 0.42703 0.0
C1318 C 0.6299 0.38502 0.39669 0.0
C1319 C 0.61747 0.37056 0.37958 0.0
C1320 C 0.60681 0.35048 0.38644 0.0
C1321 C 0.6089 0.34483 0.4099 0.0
C1322 C 0.63057 0.36904 0.3136 0.0
C1323 C 0.61262 0.38801 0.30719 0.0
C1324 C 0.63186 0.36324 0.33718 0.0
C1325 C 0.61529 0.37636 0.3546 0.0
C1326 C 0.59631 0.39502 0.34804 0.0
C1327 C 0.59488 0.40076 0.32456 0.0
H1328 H 0.3904 0.609 0.18189 0.0
H1329 H 0.33532 0.66789 0.16338 0.0
H1330 H 0.39174 0.59938 0.14044 0.0
H1331 H 0.33626 0.65821 0.12216 0.0
H1332 H 0.39729 0.64229 0.05017 0.0
H1333 H 0.39129 0.65226 0.09153 0.0
H1334 H 0.34191 0.59178 0.10819 0.0
H1335 H 0.34835 0.5818 0.06737 0.0
C1336 C 0.37818 0.61975 0.16901 0.0
C1337 C 0.363 0.63918 0.17578 0.0
C1338 C 0.37887 0.61428 0.14533 0.0
C1339 C 0.36443 0.62817 0.12813 0.0
C1340 C 0.34825 0.64738 0.13502 0.0
C1341 C 0.34745 0.65281 0.15863 0.0
C1342 C 0.38501 0.63124 0.06272 0.0
C1343 C 0.3737 0.61126 0.05565 0.0
C1344 C 0.38142 0.63692 0.08629 0.0
C1345 C 0.36652 0.62267 0.10303 0.0
C1346 C 0.35424 0.60292 0.09575 0.0
C1347 C 0.35776 0.59727 0.07233 0.0
H1348 H 0.36992 0.14101 0.1822 0.0
H1349 H 0.40537 0.0784 0.16476 0.0
H1350 H 0.37493 0.15038 0.14065 0.0
H1351 H 0.41062 0.08777 0.12363 0.0
H1352 H 0.36276 0.10857 0.05009 0.0
H1353 H 0.36149 0.09823 0.09144 0.0
H1354 H 0.43104 0.15335 0.10992 0.0
H1355 H 0.43216 0.16367 0.06897 0.0
C1356 C 0.37891 0.12933 0.16954 0.0
C1357 C 0.38708 0.10901 0.17666 0.0
C1358 C 0.38193 0.13466 0.14584 0.0
C1359 C 0.39295 0.11972 0.12896 0.0
C1360 C 0.40147 0.09949 0.1362 0.0
C1361 C 0.3987 0.09421 0.1598 0.0
C1362 C 0.37818 0.11828 0.06299 0.0
C1363 C 0.39716 0.13698 0.0564 0.0
C1364 C 0.37745 0.11242 0.0866 0.0
C1365 C 0.39561 0.1252 0.10386 0.0
C1366 C 0.41599 0.14345 0.09705 0.0
C1367 C 0.41685 0.14925 0.07357 0.0
H1368 H 0.35868 0.17054 0.6586 0.0
H1369 H 0.40817 0.11247 0.68402 0.0
H1370 H 0.36364 0.15826 0.61863 0.0
H1371 H 0.41399 0.10018 0.64345 0.0
H1372 H 0.36314 0.07898 0.57125 0.0
H1373 H 0.36564 0.09067 0.61166 0.0
H1374 H 0.41556 0.14945 0.58873 0.0
H1375 H 0.41215 0.13783 0.54793 0.0
C1376 C 0.37093 0.15514 0.65563 0.0
C1377 C 0.38306 0.14242 0.67443 0.0
C1378 C 0.37414 0.1482 0.63265 0.0
C1379 C 0.38959 0.12836 0.62788 0.0
C1380 C 0.40177 0.11555 0.64667 0.0
C1381 C 0.39853 0.12254 0.66983 0.0
C1382 C 0.37478 0.0944 0.57479 0.0
C1383 C 0.38724 0.10759 0.55645 0.0
C1384 C 0.37658 0.10099 0.59799 0.0
C1385 C 0.3909 0.12092 0.60337 0.0
C1386 C 0.404 0.13404 0.58504 0.0
C1387 C 0.40214 0.12743 0.56174 0.0
H1388 H 0.39391 0.64342 0.68235 0.0
H1389 H 0.35137 0.58251 0.66277 0.0
H1390 H 0.39557 0.65337 0.64104 0.0
H1391 H 0.34976 0.59265 0.62184 0.0
H1392 H 0.3945 0.60902 0.54865 0.0
H1393 H 0.39261 0.59914 0.58999 0.0
H1394 H 0.35583 0.66147 0.60846 0.0
H1395 H 0.36097 0.6714 0.56754 0.0
C1396 C 0.38409 0.63236 0.66917 0.0
C1397 C 0.37274 0.61225 0.67553 0.0
C1398 C 0.3848 0.63801 0.64551 0.0
C1399 C 0.37299 0.62377 0.62794 0.0
C1400 C 0.36021 0.60386 0.63467 0.0
C1401 C 0.36067 0.5981 0.65816 0.0
C1402 C 0.38591 0.62045 0.56168 0.0
C1403 C 0.37806 0.6409 0.55513 0.0
C1404 C 0.38458 0.61486 0.58535 0.0
C1405 C 0.37418 0.62954 0.60272 0.0
C1406 C 0.36507 0.64986 0.5958 0.0
C1407 C 0.36757 0.65552 0.57231 0.0
H1408 H 0.27052 0.34476 0.22254 0.0
H1409 H 0.27019 0.39272 0.27517 0.0
H1410 H 0.34742 0.34891 0.21818 0.0
H1411 H 0.34635 0.3966 0.27115 0.0
H1412 H 0.47716 0.41319 0.24483 0.0
H1413 H 0.39969 0.40953 0.24453 0.0
H1414 H 0.41291 0.34337 0.23847 0.0
H1415 H 0.48921 0.347 0.23807 0.0
C1416 C 0.2869 0.35589 0.23345 0.0
C1417 C 0.26416 0.36841 0.24914 0.0
C1418 C 0.33093 0.35839 0.23088 0.0
C1419 C 0.3531 0.37338 0.24404 0.0
C1420 C 0.33034 0.38535 0.26023 0.0
C1421 C 0.28661 0.38292 0.26273 0.0
C1422 C 0.46341 0.39794 0.24308 0.0
C1423 C 0.48953 0.38043 0.24179 0.0
C1424 C 0.41905 0.39578 0.24311 0.0
C1425 C 0.39995 0.37608 0.24173 0.0
C1426 C 0.42623 0.35876 0.23939 0.0
C1427 C 0.47024 0.36089 0.23941 0.0
H1428 H 0.76578 0.89392 0.27627 0.0
H1429 H 0.77898 0.83741 0.23659 0.0
H1430 H 0.84204 0.89869 0.27566 0.0
H1431 H 0.85603 0.84234 0.23598 0.0
H1432 H 0.99318 0.84768 0.26232 0.0
H1433 H 0.91717 0.84266 0.26287 0.0
H1434 H 0.89857 0.90722 0.24715 0.0
H1435 H 0.97558 0.91247 0.24672 0.0
C1436 C 0.78493 0.88242 0.26744 0.0
C1437 C 0.76602 0.86527 0.25635 0.0
C1438 C 0.82875 0.88531 0.26696 0.0
C1439 C 0.85509 0.8711 0.25551 0.0
C1440 C 0.83653 0.85357 0.24501 0.0
C1441 C 0.79241 0.85069 0.24541 0.0
C1442 C 0.97318 0.86095 0.259 0.0
C1443 C 0.99082 0.88058 0.2545 0.0
C1444 C 0.9294 0.85794 0.25914 0.0
C1445 C 0.90178 0.87446 0.25492 0.0
C1446 C 0.91911 0.89417 0.25062 0.0
C1447 C 0.96321 0.8972 0.25032 0.0
H1448 H 0.26942 0.84883 -9e-05 0.0
H1449 H 0.28507 0.91276 0.98028 0.0
H1450 H 0.34565 0.84477 0.00264 0.0
H1451 H 0.36217 0.90853 0.98217 0.0
H1452 H 0.49732 0.89988 0.00581 0.0
H1453 H 0.42077 0.90356 0.00727 0.0
H1454 H 0.4069 0.84195 0.97912 0.0
H1455 H 0.48417 0.83807 0.97854 0.0
C1456 C 0.28926 0.86207 -0.00394 0.0
C1457 C 0.27114 0.88113 0.98971 0.0
C1458 C 0.33314 0.85965 -0.00253 0.0
C1459 C 0.36038 0.87619 -0.00763 0.0
C1460 C 0.34225 0.89546 0.98649 0.0
C1461 C 0.29806 0.89794 0.98534 0.0
C1462 C 0.4779 0.88701 0.00015 0.0
C1463 C 0.49675 0.86869 -0.00804 0.0
C1464 C 0.43391 0.88922 0.00077 0.0
C1465 C 0.40737 0.87323 -0.00703 0.0
C1466 C 0.42624 0.85457 0.98548 0.0
C1467 C 0.47052 0.85227 0.98513 0.0
H1468 H 0.98362 0.33947 0.99161 0.0
H1469 H 0.99771 0.39801 0.95598 0.0
H1470 H 0.90659 0.34444 -0.00784 0.0
H1471 H 0.92147 0.40282 0.95657 0.0
H1472 H 0.78748 0.41496 0.98653 0.0
H1473 H 0.8645 0.40978 0.98556 0.0
H1474 H 0.84585 0.34633 0.96485 0.0
H1475 H 0.76981 0.35129 0.96584 0.0
C1476 C 0.97042 0.35323 0.98368 0.0
C1477 C 0.99708 0.36833 0.97387 0.0
C1478 C 0.9263 0.35613 0.98403 0.0
C1479 C 0.90797 0.37419 0.97467 0.0
C1480 C 0.93457 0.38897 0.96438 0.0
C1481 C 0.9784 0.38606 0.9639 0.0
C1482 C 0.79984 0.39996 0.98166 0.0
C1483 C 0.77218 0.38362 0.9763 0.0
C1484 C 0.84394 0.39698 0.98107 0.0
C1485 C 0.86126 0.37756 0.97529 0.0
C1486 C 0.83362 0.36135 0.96975 0.0
C1487 C 0.78982 0.36434 0.97016 0.0
H1488 H 0.72492 0.66375 0.73479 0.0
H1489 H 0.74005 0.59773 0.72729 0.0
H1490 H 0.64767 0.65921 0.73439 0.0
H1491 H 0.66387 0.59339 0.72677 0.0
H1492 H 0.52347 0.59191 0.75063 0.0
H1493 H 0.60084 0.59599 0.75219 0.0
H1494 H 0.59233 0.64872 0.70613 0.0
H1495 H 0.516 0.64474 0.70451 0.0
C1496 C 0.71198 0.64835 0.733 0.0
C1497 C 0.73901 0.63121 0.73095 0.0
C1498 C 0.66772 0.64572 0.73273 0.0
C1499 C 0.64959 0.62587 0.73062 0.0
C1500 C 0.67664 0.60881 0.72874 0.0
C1501 C 0.72056 0.61143 0.72882 0.0
C1502 C 0.53822 0.60417 0.74061 0.0
C1503 C 0.51333 0.61802 0.72759 0.0
C1504 C 0.58251 0.6066 0.74158 0.0
C1505 C 0.6027 0.62294 0.72958 0.0
C1506 C 0.57783 0.63632 0.71605 0.0
C1507 C 0.53392 0.63387 0.715 0.0
H1508 H 0.01284 0.14927 0.71305 0.0
H1509 H 0.03223 0.08655 0.73676 0.0
H1510 H 0.08879 0.15477 0.71206 0.0
H1511 H 0.10908 0.09225 0.7357 0.0
H1512 H 0.24248 0.1039 0.70665 0.0
H1513 H 0.16641 0.09866 0.70683 0.0
H1514 H 0.14918 0.15811 0.73965 0.0
H1515 H 0.22618 0.1635 0.73956 0.0
C1516 C 0.03322 0.13654 0.71802 0.0
C1517 C 0.01606 0.11739 0.72506 0.0
C1518 C 0.07695 0.13984 0.7176 0.0
C1519 C 0.10504 0.12407 0.724 0.0
C1520 C 0.08821 0.10473 0.73056 0.0
C1521 C 0.04417 0.10143 0.73115 0.0
C1522 C 0.22272 0.116 0.71389 0.0
C1523 C 0.24078 0.13415 0.72324 0.0
C1524 C 0.17895 0.11284 0.71412 0.0
C1525 C 0.1517 0.12779 0.72352 0.0
C1526 C 0.16938 0.14628 0.73222 0.0
C1527 C 0.21349 0.14941 0.73213 0.0
H1528 H 0.51766 0.10044 0.97518 0.0
H1529 H 0.53144 0.16247 0.00173 0.0
H1530 H 0.59415 0.09671 0.97333 0.0
H1531 H 0.6087 0.15856 0.00064 0.0
H1532 H 0.74571 0.15147 0.97929 0.0
H1533 H 0.66941 0.15539 0.97642 0.0
H1534 H 0.65321 0.09203 -0.00152 0.0
H1535 H 0.73036 0.08796 0.00062 0.0
C1536 C 0.53717 0.11335 0.98061 0.0
C1537 C 0.51848 0.13174 0.98875 0.0
C1538 C 0.58115 0.11112 0.97973 0.0
C1539 C 0.60786 0.12716 0.98716 0.0
C1540 C 0.58919 0.14589 -0.00543 0.0
C1541 C 0.54491 0.1482 -0.00478 0.0
C1542 C 0.72591 0.13828 0.9834 0.0
C1543 C 0.74413 0.1194 0.99036 0.0
C1544 C 0.68202 0.14062 0.98192 0.0
C1545 C 0.65486 0.12418 0.98753 0.0
C1546 C 0.67308 0.10503 -0.00619 0.0
C1547 C 0.7173 0.10263 -0.00493 0.0
H1548 H 0.23904 0.5936 0.97283 0.0
H1549 H 0.24269 0.63898 0.02831 0.0
H1550 H 0.16168 0.59776 0.97046 0.0
H1551 H 0.16643 0.64303 0.02599 0.0
H1552 H 0.03612 0.66219 0.00044 0.0
H1553 H 0.11331 0.65761 -0.00071 0.0
H1554 H 0.09669 0.59166 -0.00681 0.0
H1555 H 0.0204 0.59615 -0.00604 0.0
C1556 C 0.22337 0.60417 0.98472 0.0
C1557 C 0.24713 0.61604 0.0006 0.0
C1558 C 0.17914 0.60668 0.98329 0.0
C1559 C 0.15797 0.62109 -0.00228 0.0
C1560 C 0.18173 0.63228 0.01415 0.0
C1561 C 0.22554 0.62977 0.0156 0.0
C1562 C 0.04899 0.64677 -0.00137 0.0
C1563 C 0.02194 0.62958 -0.00241 0.0
C1564 C 0.09318 0.6441 -0.00189 0.0
C1565 C 0.11119 0.62421 -0.00369 0.0
C1566 C 0.08404 0.60717 -0.00559 0.0
C1567 C 0.04013 0.6098 -0.0049 0.0
H1568 H 0.48049 0.86644 0.77817 0.0
H1569 H 0.48354 0.90406 0.7157 0.0
H1570 H 0.40487 0.86096 0.77316 0.0
H1571 H 0.4072 0.8983 0.71038 0.0
H1572 H 0.26282 0.90119 0.72661 0.0
H1573 H 0.33905 0.90604 0.72708 0.0
H1574 H 0.35545 0.84252 0.74832 0.0
H1575 H 0.27813 0.83781 0.74841 0.0
C1576 C 0.46483 0.87371 0.76341 0.0
C1577 C 0.48807 0.88573 0.74733 0.0
C1578 C 0.42149 0.87029 0.76035 0.0
C1579 C 0.39994 0.87875 0.74108 0.0
C1580 C 0.42277 0.8915 0.72544 0.0
C1581 C 0.46643 0.89499 0.72856 0.0
C1582 C 0.28265 0.88812 0.73114 0.0
C1583 C 0.26435 0.86915 0.73781 0.0
C1584 C 0.32652 0.89091 0.73123 0.0
C1585 C 0.35356 0.87481 0.73805 0.0
C1586 C 0.33546 0.8554 0.74342 0.0
C1587 C 0.29123 0.85257 0.74321 0.0
H1588 H 0.77148 0.40248 0.75725 0.0
H1589 H 0.78017 0.33737 0.74112 0.0
H1590 H 0.8476 0.40543 0.75609 0.0
H1591 H 0.85779 0.34056 0.73963 0.0
H1592 H 0.9936 0.35073 0.7682 0.0
H1593 H 0.91725 0.3468 0.76624 0.0
H1594 H 0.90768 0.40513 0.72994 0.0
H1595 H 0.98475 0.40929 0.73217 0.0
C1596 C 0.78953 0.38868 0.75336 0.0
C1597 C 0.76922 0.36957 0.7494 0.0
C1598 C 0.83353 0.39051 0.75246 0.0
C1599 C 0.85901 0.37333 0.74761 0.0
C1600 C 0.83905 0.35413 0.74356 0.0
C1601 C 0.79457 0.35228 0.74436 0.0
C1602 C 0.97544 0.36282 0.75976 0.0
C1603 C 0.99562 0.38043 0.7504 0.0
C1604 C 0.93148 0.3604 0.75846 0.0
C1605 C 0.90618 0.37552 0.7478 0.0
C1606 C 0.92618 0.39321 0.73846 0.0
C1607 C 0.97038 0.39565 0.73976 0.0
H1608 H 0.27744 0.40727 0.5064 0.0
H1609 H 0.27148 0.3578 0.4557 0.0
H1610 H 0.35401 0.40194 0.51001 0.0
H1611 H 0.34754 0.35274 0.45899 0.0
H1612 H 0.48 0.33593 0.48515 0.0
H1613 H 0.40249 0.34014 0.48533 0.0
H1614 H 0.41781 0.40636 0.48794 0.0
H1615 H 0.49378 0.40226 0.48837 0.0
C1616 C 0.2925 0.39552 0.49577 0.0
C1617 C 0.26824 0.38302 0.48078 0.0
C1618 C 0.33637 0.39235 0.49789 0.0
C1619 C 0.35698 0.3767 0.48497 0.0
C1620 C 0.33273 0.36456 0.46964 0.0
C1621 C 0.28906 0.36767 0.46757 0.0
C1622 C 0.46666 0.35131 0.486 0.0
C1623 C 0.49329 0.36869 0.48645 0.0
C1624 C 0.42231 0.35378 0.48595 0.0
C1625 C 0.40382 0.37364 0.48657 0.0
C1626 C 0.43064 0.39085 0.48773 0.0
C1627 C 0.47452 0.38843 0.48769 0.0
H1628 H 0.98553 0.84337 0.51128 0.0
H1629 H 0.98547 0.88458 0.45177 0.0
H1630 H 0.90902 0.84879 0.51589 0.0
H1631 H 0.90957 0.88971 0.45604 0.0
H1632 H 0.78071 0.91089 0.48123 0.0
H1633 H 0.85809 0.90639 0.48115 0.0
H1634 H 0.84216 0.84178 0.49776 0.0
H1635 H 0.76599 0.84637 0.49843 0.0
C1636 C 0.96907 0.8532 0.49889 0.0
C1637 C 0.99162 0.86351 0.48117 0.0
C1638 C 0.92527 0.85646 0.5016 0.0
C1639 C 0.9031 0.87003 0.48658 0.0
C1640 C 0.9256 0.87966 0.46837 0.0
C1641 C 0.96913 0.87647 0.46573 0.0
C1642 C 0.79391 0.89588 0.48528 0.0
C1643 C 0.76713 0.87898 0.48952 0.0
C1644 C 0.8382 0.89319 0.485 0.0
C1645 C 0.85648 0.8736 0.48917 0.0
C1646 C 0.82952 0.85707 0.4946 0.0
C1647 C 0.78562 0.85971 0.49476 0.0
H1648 H 0.52001 0.09535 0.26453 0.0
H1649 H 0.52032 0.13601 0.2045 0.0
H1650 H 0.59676 0.10066 0.26891 0.0
H1651 H 0.59612 0.14117 0.20874 0.0
H1652 H 0.7226 0.16394 0.23532 0.0
H1653 H 0.64557 0.15857 0.23527 0.0
H1654 H 0.66444 0.09373 0.24946 0.0
H1655 H 0.74059 0.09909 0.24991 0.0
C1656 C 0.53652 0.10506 0.25204 0.0
C1657 C 0.51402 0.11531 0.23426 0.0
C1658 C 0.58038 0.10826 0.25463 0.0
C1659 C 0.60244 0.12175 0.23948 0.0
C1660 C 0.58004 0.13121 0.22116 0.0
C1661 C 0.53657 0.12803 0.21858 0.0
C1662 C 0.7102 0.14865 0.23877 0.0
C1663 C 0.7378 0.13195 0.24229 0.0
C1664 C 0.66613 0.14549 0.23856 0.0
C1665 C 0.64883 0.12562 0.24209 0.0
C1666 C 0.6765 0.1092 0.24677 0.0
C1667 C 0.7203 0.11231 0.24681 0.0
H1668 H 0.02143 0.59486 0.264 0.0
H1669 H 0.01912 0.64031 0.2086 0.0
H1670 H 0.09795 0.60012 0.26828 0.0
H1671 H 0.0951 0.64522 0.21245 0.0
H1672 H 0.22658 0.66329 0.23646 0.0
H1673 H 0.14905 0.65956 0.2376 0.0
H1674 H 0.16299 0.5939 0.24844 0.0
H1675 H 0.23922 0.59768 0.24804 0.0
C1676 C 0.03732 0.60568 0.25249 0.0
C1677 C 0.01412 0.61712 0.23598 0.0
C1678 C 0.08116 0.60882 0.25499 0.0
C1679 C 0.10277 0.62335 0.24091 0.0
C1680 C 0.07954 0.63435 0.22404 0.0
C1681 C 0.03592 0.63131 0.22164 0.0
C1682 C 0.21292 0.64818 0.2395 0.0
C1683 C 0.23913 0.6308 0.24183 0.0
C1684 C 0.16854 0.64596 0.23993 0.0
C1685 C 0.14963 0.62634 0.24286 0.0
C1686 C 0.17611 0.60924 0.24633 0.0
C1687 C 0.22007 0.61143 0.24585 0.0
H1688 H 0.73556 0.59173 0.47896 0.0
H1689 H 0.7393 0.64214 0.52856 0.0
H1690 H 0.65839 0.59592 0.47578 0.0
H1691 H 0.66315 0.6462 0.52542 0.0
H1692 H 0.5319 0.6623 0.49734 0.0
H1693 H 0.60926 0.65801 0.49735 0.0
H1694 H 0.59389 0.5918 0.4992 0.0
H1695 H 0.51766 0.59594 0.49889 0.0
C1696 C 0.71999 0.60346 0.4894 0.0
C1697 C 0.74379 0.61661 0.50391 0.0
C1698 C 0.67582 0.60597 0.4875 0.0
C1699 C 0.65466 0.62167 0.50006 0.0
C1700 C 0.67843 0.63435 0.51502 0.0
C1701 C 0.72222 0.63183 0.51696 0.0
C1702 C 0.5451 0.64687 0.49762 0.0
C1703 C 0.51836 0.62955 0.4984 0.0
C1704 C 0.58939 0.64438 0.49772 0.0
C1705 C 0.6078 0.62451 0.49835 0.0
C1706 C 0.58097 0.60728 0.49848 0.0
C1707 C 0.53702 0.60975 0.49856 0.0
H1708 H 0.03573 0.16398 0.49837 0.0
H1709 H 0.01983 0.09987 0.51765 0.0
H1710 H 0.11278 0.15892 0.49757 0.0
H1711 H 0.09592 0.09501 0.51689 0.0
H1712 H 0.23278 0.08872 0.48869 0.0
H1713 H 0.15563 0.0936 0.48898 0.0
H1714 H 0.17143 0.15173 0.52495 0.0
H1715 H 0.24759 0.14702 0.52469 0.0
C1716 C 0.04848 0.1489 0.50258 0.0
C1717 C 0.02126 0.13241 0.50807 0.0
C1718 C 0.09264 0.14598 0.50212 0.0
C1719 C 0.11052 0.12647 0.50699 0.0
C1720 C 0.08331 0.11011 0.51264 0.0
C1721 C 0.03947 0.11303 0.51326 0.0
C1722 C 0.21975 0.10243 0.49682 0.0
C1723 C 0.24668 0.11745 0.50655 0.0
C1724 C 0.17554 0.10527 0.49697 0.0
C1725 C 0.15737 0.12322 0.50676 0.0
C1726 C 0.18429 0.13797 0.51682 0.0
C1727 C 0.22815 0.13511 0.5168 0.0
loop_
_geom_bond_atom_site_label_1
_geom_bond_atom_site_label_2
_geom_bond_distance
_geom_bond_site_symmetry_2
_ccdc_geom_bond_type
Co0 O1 2.216 . S
Co0 O2 2.091 . S
Co0 O4 2.004 . S
Co0 O10 2.021 . S
Co0 O12 2.137 . S
Co0 O13 2.244 . S
O1 Co0 2.216 . S
O1 C8 1.247 . S
O2 Co0 2.091 . S
O2 C8 1.261 . S
C3 O12 1.247 . S
C3 O13 1.272 . S
O4 Co0 2.004 . S
O4 C9 1.259 . S
Co5 O6 2.061 . S
Co5 O11 2.052 . S
Co5 O13 2.135 . S
O6 Co5 2.061 . S
O6 C9 1.235 . S
C7 O10 1.238 . S
C7 O11 1.241 . S
C8 O1 1.247 . S
C8 O2 1.261 . S
C9 O4 1.259 . S
C9 O6 1.235 . S
O10 Co0 2.021 . S
O10 C7 1.238 . S
O11 Co5 2.052 . S
O11 C7 1.241 . S
O12 Co0 2.137 . S
O12 C3 1.247 . S
O13 Co0 2.244 . S
O13 C3 1.272 . S
O13 Co5 2.135 . S
Co14 O15 2.216 . S
Co14 O16 2.091 . S
Co14 O18 2.004 . S
Co14 O24 2.021 . S
Co14 O26 2.137 . S
Co14 O27 2.244 . S
O15 Co14 2.216 . S
O15 C22 1.247 . S
O16 Co14 2.091 . S
O16 C22 1.261 . S
C17 O26 1.247 . S
C17 O27 1.272 . S
O18 Co14 2.004 . S
O18 C23 1.259 . S
Co19 O20 2.061 . S
Co19 O25 2.052 . S
Co19 O27 2.135 . S
O20 Co19 2.061 . S
O20 C23 1.235 . S
C21 O24 1.238 . S
C21 O25 1.241 . S
C22 O15 1.247 . S
C22 O16 1.261 . S
C23 O18 1.259 . S
C23 O20 1.235 . S
O24 Co14 2.021 . S
O24 C21 1.238 . S
O25 Co19 2.052 . S
O25 C21 1.241 . S
O26 Co14 2.137 . S
O26 C17 1.247 . S
O27 Co14 2.244 . S
O27 C17 1.272 . S
O27 Co19 2.135 . S
Co28 O29 2.216 . S
Co28 O30 2.091 . S
Co28 O32 2.004 . S
Co28 O38 2.021 1_556 S
Co28 O40 2.137 . S
Co28 O41 2.244 . S
O29 Co28 2.216 . S
O29 C36 1.247 . S
O30 Co28 2.091 . S
O30 C36 1.261 . S
C31 O40 1.247 . S
C31 O41 1.272 . S
O32 Co28 2.004 . S
O32 C37 1.263 . S
Co33 O34 2.061 . S
Co33 O39 2.052 . S
Co33 O41 2.135 1_554 S
O34 Co33 2.061 . S
O34 C37 1.232 1_554 S
C35 O38 1.238 . S
C35 O39 1.241 . S
C36 O29 1.247 . S
C36 O30 1.261 . S
C37 O32 1.263 . S
C37 O34 1.232 1_556 S
O38 Co28 2.021 1_554 S
O38 C35 1.238 . S
O39 Co33 2.052 . S
O39 C35 1.241 . S
O40 Co28 2.137 . S
O40 C31 1.247 . S
O41 Co28 2.244 . S
O41 C31 1.272 . S
O41 Co33 2.135 1_556 S
Co42 O43 2.216 . S
Co42 O44 2.091 . S
Co42 O46 2.004 . S
Co42 O52 2.021 1_556 S
Co42 O54 2.137 . S
Co42 O55 2.244 . S
O43 Co42 2.216 . S
O43 C50 1.247 . S
O44 Co42 2.091 . S
O44 C50 1.261 . S
C45 O54 1.247 . S
C45 O55 1.272 . S
O46 Co42 2.004 . S
O46 C51 1.263 . S
Co47 O48 2.061 . S
Co47 O53 2.052 . S
Co47 O55 2.135 1_554 S
O48 Co47 2.061 . S
O48 C51 1.232 1_554 S
C49 O52 1.238 . S
C49 O53 1.241 . S
C50 O43 1.247 . S
C50 O44 1.261 . S
C51 O46 1.263 . S
C51 O48 1.232 1_556 S
O52 Co42 2.021 1_554 S
O52 C49 1.238 . S
O53 Co47 2.052 . S
O53 C49 1.241 . S
O54 Co42 2.137 . S
O54 C45 1.247 . S
O55 Co42 2.244 . S
O55 C45 1.272 . S
O55 Co47 2.135 1_556 S
Co56 O57 2.216 . S
Co56 O58 2.091 . S
Co56 O60 2.004 . S
Co56 O66 2.021 . S
Co56 O68 2.137 . S
Co56 O69 2.244 . S
O57 Co56 2.216 . S
O57 C64 1.247 . S
O58 Co56 2.091 . S
O58 C64 1.261 . S
C59 O68 1.247 . S
C59 O69 1.272 . S
O60 Co56 2.004 . S
O60 C65 1.259 . S
Co61 O62 2.061 . S
Co61 O67 2.052 . S
Co61 O69 2.135 . S
O62 Co61 2.061 . S
O62 C65 1.235 . S
C63 O66 1.238 . S
C63 O67 1.241 . S
C64 O57 1.247 . S
C64 O58 1.261 . S
C65 O60 1.259 . S
C65 O62 1.235 . S
O66 Co56 2.021 . S
O66 C63 1.238 . S
O67 Co61 2.052 . S
O67 C63 1.241 . S
O68 Co56 2.137 . S
O68 C59 1.247 . S
O69 Co56 2.244 . S
O69 C59 1.272 . S
O69 Co61 2.135 . S
Co70 O71 2.216 . S
Co70 O72 2.091 . S
Co70 O74 2.004 . S
Co70 O80 2.021 . S
Co70 O82 2.137 . S
Co70 O83 2.244 . S
O71 Co70 2.216 . S
O71 C78 1.247 . S
O72 Co70 2.091 . S
O72 C78 1.261 . S
C73 O82 1.247 . S
C73 O83 1.272 . S
O74 Co70 2.004 . S
O74 C79 1.259 . S
Co75 O76 2.061 . S
Co75 O81 2.052 . S
Co75 O83 2.135 . S
O76 Co75 2.061 . S
O76 C79 1.235 . S
C77 O80 1.238 . S
C77 O81 1.241 . S
C78 O71 1.247 . S
C78 O72 1.261 . S
C79 O74 1.259 . S
C79 O76 1.235 . S
O80 Co70 2.021 . S
O80 C77 1.238 . S
O81 Co75 2.052 . S
O81 C77 1.241 . S
O82 Co70 2.137 . S
O82 C73 1.247 . S
O83 Co70 2.244 . S
O83 C73 1.272 . S
O83 Co75 2.135 . S
Co84 O85 2.216 . S
Co84 O86 2.091 . S
Co84 O88 2.004 . S
Co84 O94 2.021 1_554 S
Co84 O96 2.137 . S
Co84 O97 2.244 . S
O85 Co84 2.216 . S
O85 C92 1.247 . S
O86 Co84 2.091 . S
O86 C92 1.261 . S
C87 O96 1.247 . S
C87 O97 1.272 . S
O88 Co84 2.004 . S
O88 C93 1.263 . S
Co89 O90 2.061 . S
Co89 O95 2.052 . S
Co89 O97 2.135 1_556 S
O90 Co89 2.061 . S
O90 C93 1.232 1_556 S
C91 O94 1.238 . S
C91 O95 1.241 . S
C92 O85 1.247 . S
C92 O86 1.261 . S
C93 O88 1.263 . S
C93 O90 1.232 1_554 S
O94 Co84 2.021 1_556 S
O94 C91 1.238 . S
O95 Co89 2.052 . S
O95 C91 1.241 . S
O96 Co84 2.137 . S
O96 C87 1.247 . S
O97 Co84 2.244 . S
O97 C87 1.272 . S
O97 Co89 2.135 1_554 S
Co98 O99 2.216 . S
Co98 O100 2.091 . S
Co98 O102 2.004 . S
Co98 O108 2.021 1_554 S
Co98 O110 2.137 . S
Co98 O111 2.244 . S
O99 Co98 2.216 . S
O99 C106 1.247 . S
O100 Co98 2.091 . S
O100 C106 1.261 . S
C101 O110 1.247 . S
C101 O111 1.272 . S
O102 Co98 2.004 . S
O102 C107 1.263 . S
Co103 O104 2.061 . S
Co103 O109 2.052 . S
Co103 O111 2.135 1_556 S
O104 Co103 2.061 . S
O104 C107 1.232 1_556 S
C105 O108 1.238 . S
C105 O109 1.241 . S
C106 O99 1.247 . S
C106 O100 1.261 . S
C107 O102 1.263 . S
C107 O104 1.232 1_554 S
O108 Co98 2.021 1_556 S
O108 C105 1.238 . S
O109 Co103 2.052 . S
O109 C105 1.241 . S
O110 Co98 2.137 . S
O110 C101 1.247 . S
O111 Co98 2.244 . S
O111 C101 1.272 . S
O111 Co103 2.135 1_554 S
Co112 O113 2.216 . S
Co112 O114 2.091 . S
Co112 O116 2.004 . S
Co112 O122 2.021 . S
Co112 O124 2.137 . S
Co112 O125 2.244 . S
O113 Co112 2.216 . S
O113 C120 1.247 . S
O114 Co112 2.091 . S
O114 C120 1.261 . S
C115 O124 1.247 . S
C115 O125 1.272 . S
O116 Co112 2.004 . S
O116 C121 1.259 . S
Co117 O118 2.061 . S
Co117 O123 2.052 . S
Co117 O125 2.135 . S
O118 Co117 2.061 . S
O118 C121 1.235 . S
C119 O122 1.238 . S
C119 O123 1.241 . S
C120 O113 1.247 . S
C120 O114 1.261 . S
C121 O116 1.259 . S
C121 O118 1.235 . S
O122 Co112 2.021 . S
O122 C119 1.238 . S
O123 Co117 2.052 . S
O123 C119 1.241 . S
O124 Co112 2.137 . S
O124 C115 1.247 . S
O125 Co112 2.244 . S
O125 C115 1.272 . S
O125 Co117 2.135 . S
Co126 O127 2.216 . S
Co126 O128 2.091 . S
Co126 O130 2.004 . S
Co126 O136 2.021 . S
Co126 O138 2.137 . S
Co126 O139 2.244 . S
O127 Co126 2.216 . S
O127 C134 1.247 . S
O128 Co126 2.091 . S
O128 C134 1.261 . S
C129 O138 1.247 . S
C129 O139 1.272 . S
O130 Co126 2.004 . S
O130 C135 1.259 . S
Co131 O132 2.061 . S
Co131 O137 2.052 . S
Co131 O139 2.135 . S
O132 Co131 2.061 . S
O132 C135 1.235 . S
C133 O136 1.238 . S
C133 O137 1.241 . S
C134 O127 1.247 . S
C134 O128 1.261 . S
C135 O130 1.259 . S
C135 O132 1.235 . S
O136 Co126 2.021 . S
O136 C133 1.238 . S
O137 Co131 2.052 . S
O137 C133 1.241 . S
O138 Co126 2.137 . S
O138 C129 1.247 . S
O139 Co126 2.244 . S
O139 C129 1.272 . S
O139 Co131 2.135 . S
Co140 O141 2.216 . S
Co140 O142 2.091 . S
Co140 O144 2.004 . S
Co140 O150 2.021 . S
Co140 O152 2.137 . S
Co140 O153 2.244 . S
O141 Co140 2.216 . S
O141 C148 1.247 . S
O142 Co140 2.091 . S
O142 C148 1.261 . S
C143 O152 1.247 . S
C143 O153 1.272 . S
O144 Co140 2.004 . S
O144 C149 1.259 . S
Co145 O146 2.061 . S
Co145 O151 2.052 . S
Co145 O153 2.135 . S
O146 Co145 2.061 . S
O146 C149 1.235 . S
C147 O150 1.238 . S
C147 O151 1.241 . S
C148 O141 1.247 . S
C148 O142 1.261 . S
C149 O144 1.259 . S
C149 O146 1.235 . S
O150 Co140 2.021 . S
O150 C147 1.238 . S
O151 Co145 2.052 . S
O151 C147 1.241 . S
O152 Co140 2.137 . S
O152 C143 1.247 . S
O153 Co140 2.244 . S
O153 C143 1.272 . S
O153 Co145 2.135 . S
Co154 O155 2.216 . S
Co154 O156 2.091 . S
Co154 O158 2.004 . S
Co154 O164 2.021 . S
Co154 O166 2.137 . S
Co154 O167 2.244 . S
O155 Co154 2.216 . S
O155 C162 1.247 . S
O156 Co154 2.091 . S
O156 C162 1.261 . S
C157 O166 1.247 . S
C157 O167 1.272 . S
O158 Co154 2.004 . S
O158 C163 1.259 . S
Co159 O160 2.061 . S
Co159 O165 2.052 . S
Co159 O167 2.135 . S
O160 Co159 2.061 . S
O160 C163 1.235 . S
C161 O164 1.238 . S
C161 O165 1.241 . S
C162 O155 1.247 . S
C162 O156 1.261 . S
C163 O158 1.259 . S
C163 O160 1.235 . S
O164 Co154 2.021 . S
O164 C161 1.238 . S
O165 Co159 2.052 . S
O165 C161 1.241 . S
O166 Co154 2.137 . S
O166 C157 1.247 . S
O167 Co154 2.244 . S
O167 C157 1.272 . S
O167 Co159 2.135 . S
Co168 O169 2.216 . S
Co168 O170 2.091 . S
Co168 O172 2.004 . S
Co168 O178 2.021 . S
Co168 O180 2.137 . S
Co168 O181 2.244 . S
O169 Co168 2.216 . S
O169 C176 1.247 . S
O170 Co168 2.091 . S
O170 C176 1.261 . S
C171 O180 1.247 . S
C171 O181 1.272 . S
O172 Co168 2.004 . S
O172 C177 1.259 . S
Co173 O174 2.061 . S
Co173 O179 2.052 . S
Co173 O181 2.135 . S
O174 Co173 2.061 . S
O174 C177 1.235 . S
C175 O178 1.238 . S
C175 O179 1.241 . S
C176 O169 1.247 . S
C176 O170 1.261 . S
C177 O172 1.259 . S
C177 O174 1.235 . S
O178 Co168 2.021 . S
O178 C175 1.238 . S
O179 Co173 2.052 . S
O179 C175 1.241 . S
O180 Co168 2.137 . S
O180 C171 1.247 . S
O181 Co168 2.244 . S
O181 C171 1.272 . S
O181 Co173 2.135 . S
Co182 O183 2.216 . S
Co182 O184 2.091 . S
Co182 O186 2.004 . S
Co182 O192 2.021 . S
Co182 O194 2.137 . S
Co182 O195 2.244 . S
O183 Co182 2.216 . S
O183 C190 1.247 . S
O184 Co182 2.091 . S
O184 C190 1.261 . S
C185 O194 1.247 . S
C185 O195 1.272 . S
O186 Co182 2.004 . S
O186 C191 1.259 . S
Co187 O188 2.061 . S
Co187 O193 2.052 . S
Co187 O195 2.135 . S
O188 Co187 2.061 . S
O188 C191 1.235 . S
C189 O192 1.238 . S
C189 O193 1.241 . S
C190 O183 1.247 . S
C190 O184 1.261 . S
C191 O186 1.259 . S
C191 O188 1.235 . S
O192 Co182 2.021 . S
O192 C189 1.238 . S
O193 Co187 2.052 . S
O193 C189 1.241 . S
O194 Co182 2.137 . S
O194 C185 1.247 . S
O195 Co182 2.244 . S
O195 C185 1.272 . S
O195 Co187 2.135 . S
Co196 O197 2.216 . S
Co196 O198 2.091 . S
Co196 O200 2.004 . S
Co196 O206 2.021 . S
Co196 O208 2.137 . S
Co196 O209 2.244 . S
O197 Co196 2.216 . S
O197 C204 1.247 . S
O198 Co196 2.091 . S
O198 C204 1.261 . S
C199 O208 1.247 . S
C199 O209 1.272 . S
O200 Co196 2.004 . S
O200 C205 1.259 . S
Co201 O202 2.061 . S
Co201 O207 2.052 . S
Co201 O209 2.135 . S
O202 Co201 2.061 . S
O202 C205 1.235 . S
C203 O206 1.238 . S
C203 O207 1.241 . S
C204 O197 1.247 . S
C204 O198 1.261 . S
C205 O200 1.259 . S
C205 O202 1.235 . S
O206 Co196 2.021 . S
O206 C203 1.238 . S
O207 Co201 2.052 . S
O207 C203 1.241 . S
O208 Co196 2.137 . S
O208 C199 1.247 . S
O209 Co196 2.244 . S
O209 C199 1.272 . S
O209 Co201 2.135 . S
Co210 O211 2.216 . S
Co210 O212 2.091 . S
Co210 O214 2.004 . S
Co210 O220 2.021 . S
Co210 O222 2.137 . S
Co210 O223 2.244 . S
O211 Co210 2.216 . S
O211 C218 1.247 . S
O212 Co210 2.091 . S
O212 C218 1.261 . S
C213 O222 1.247 . S
C213 O223 1.272 . S
O214 Co210 2.004 . S
O214 C219 1.259 . S
Co215 O216 2.061 . S
Co215 O221 2.052 . S
Co215 O223 2.135 . S
O216 Co215 2.061 . S
O216 C219 1.235 . S
C217 O220 1.238 . S
C217 O221 1.241 . S
C218 O211 1.247 . S
C218 O212 1.261 . S
C219 O214 1.259 . S
C219 O216 1.235 . S
O220 Co210 2.021 . S
O220 C217 1.238 . S
O221 Co215 2.052 . S
O221 C217 1.241 . S
O222 Co210 2.137 . S
O222 C213 1.247 . S
O223 Co210 2.244 . S
O223 C213 1.272 . S
O223 Co215 2.135 . S
Co224 O225 2.216 . S
Co224 O226 2.091 . S
Co224 O228 2.004 . S
Co224 O234 2.021 . S
Co224 O236 2.137 . S
Co224 O237 2.244 . S
O225 Co224 2.216 . S
O225 C232 1.247 . S
O226 Co224 2.091 . S
O226 C232 1.261 . S
C227 O236 1.247 . S
C227 O237 1.272 . S
O228 Co224 2.004 . S
O228 C233 1.259 . S
Co229 O230 2.061 . S
Co229 O235 2.052 . S
Co229 O237 2.135 . S
O230 Co229 2.061 . S
O230 C233 1.235 . S
C231 O234 1.238 . S
C231 O235 1.241 . S
C232 O225 1.247 . S
C232 O226 1.261 . S
C233 O228 1.259 . S
C233 O230 1.235 . S
O234 Co224 2.021 . S
O234 C231 1.238 . S
O235 Co229 2.052 . S
O235 C231 1.241 . S
O236 Co224 2.137 . S
O236 C227 1.247 . S
O237 Co224 2.244 . S
O237 C227 1.272 . S
O237 Co229 2.135 . S
Co238 O239 2.216 . S
Co238 O240 2.091 . S
Co238 O242 2.004 . S
Co238 O248 2.021 . S
Co238 O250 2.137 . S
Co238 O251 2.244 . S
O239 Co238 2.216 . S
O239 C246 1.247 . S
O240 Co238 2.091 . S
O240 C246 1.261 . S
C241 O250 1.247 . S
C241 O251 1.272 . S
O242 Co238 2.004 . S
O242 C247 1.259 . S
Co243 O244 2.061 . S
Co243 O249 2.052 . S
Co243 O251 2.135 . S
O244 Co243 2.061 . S
O244 C247 1.235 . S
C245 O248 1.238 . S
C245 O249 1.241 . S
C246 O239 1.247 . S
C246 O240 1.261 . S
C247 O242 1.259 . S
C247 O244 1.235 . S
O248 Co238 2.021 . S
O248 C245 1.238 . S
O249 Co243 2.052 . S
O249 C245 1.241 . S
O250 Co238 2.137 . S
O250 C241 1.247 . S
O251 Co238 2.244 . S
O251 C241 1.272 . S
O251 Co243 2.135 . S
Co252 O253 2.216 . S
Co252 O254 2.091 . S
Co252 O256 2.004 . S
Co252 O262 2.021 . S
Co252 O264 2.137 . S
Co252 O265 2.244 . S
O253 Co252 2.216 . S
O253 C260 1.247 . S
O254 Co252 2.091 . S
O254 C260 1.261 . S
C255 O264 1.247 . S
C255 O265 1.272 . S
O256 Co252 2.004 . S
O256 C261 1.259 . S
Co257 O258 2.061 . S
Co257 O263 2.052 . S
Co257 O265 2.135 . S
O258 Co257 2.061 . S
O258 C261 1.235 . S
C259 O262 1.238 . S
C259 O263 1.241 . S
C260 O253 1.247 . S
C260 O254 1.261 . S
C261 O256 1.259 . S
C261 O258 1.235 . S
O262 Co252 2.021 . S
O262 C259 1.238 . S
O263 Co257 2.052 . S
O263 C259 1.241 . S
O264 Co252 2.137 . S
O264 C255 1.247 . S
O265 Co252 2.244 . S
O265 C255 1.272 . S
O265 Co257 2.135 . S
Co266 O267 2.216 . S
Co266 O268 2.091 . S
Co266 O270 2.004 . S
Co266 O276 2.021 . S
Co266 O278 2.137 . S
Co266 O279 2.244 . S
O267 Co266 2.216 . S
O267 C274 1.247 . S
O268 Co266 2.091 . S
O268 C274 1.261 . S
C269 O278 1.247 . S
C269 O279 1.272 . S
O270 Co266 2.004 . S
O270 C275 1.259 . S
Co271 O272 2.061 . S
Co271 O277 2.052 . S
Co271 O279 2.135 . S
O272 Co271 2.061 . S
O272 C275 1.235 . S
C273 O276 1.238 . S
C273 O277 1.241 . S
C274 O267 1.247 . S
C274 O268 1.261 . S
C275 O270 1.259 . S
C275 O272 1.235 . S
O276 Co266 2.021 . S
O276 C273 1.238 . S
O277 Co271 2.052 . S
O277 C273 1.241 . S
O278 Co266 2.137 . S
O278 C269 1.247 . S
O279 Co266 2.244 . S
O279 C269 1.272 . S
O279 Co271 2.135 . S
Co280 O281 2.216 . S
Co280 O282 2.091 . S
Co280 O284 2.004 . S
Co280 O290 2.021 . S
Co280 O292 2.137 . S
Co280 O293 2.244 . S
O281 Co280 2.216 . S
O281 C288 1.247 . S
O282 Co280 2.091 . S
O282 C288 1.261 . S
C283 O292 1.247 . S
C283 O293 1.272 . S
O284 Co280 2.004 . S
O284 C289 1.259 . S
Co285 O286 2.061 . S
Co285 O291 2.052 . S
Co285 O293 2.135 . S
O286 Co285 2.061 . S
O286 C289 1.235 . S
C287 O290 1.238 . S
C287 O291 1.241 . S
C288 O281 1.247 . S
C288 O282 1.261 . S
C289 O284 1.259 . S
C289 O286 1.235 . S
O290 Co280 2.021 . S
O290 C287 1.238 . S
O291 Co285 2.052 . S
O291 C287 1.241 . S
O292 Co280 2.137 . S
O292 C283 1.247 . S
O293 Co280 2.244 . S
O293 C283 1.272 . S
O293 Co285 2.135 . S
Co294 O295 2.216 . S
Co294 O296 2.091 . S
Co294 O298 2.004 . S
Co294 O304 2.021 . S
Co294 O306 2.137 . S
Co294 O307 2.244 . S
O295 Co294 2.216 . S
O295 C302 1.247 . S
O296 Co294 2.091 . S
O296 C302 1.261 . S
C297 O306 1.247 . S
C297 O307 1.272 . S
O298 Co294 2.004 . S
O298 C303 1.259 . S
Co299 O300 2.061 . S
Co299 O305 2.052 . S
Co299 O307 2.135 . S
O300 Co299 2.061 . S
O300 C303 1.235 . S
C301 O304 1.238 . S
C301 O305 1.241 . S
C302 O295 1.247 . S
C302 O296 1.261 . S
C303 O298 1.259 . S
C303 O300 1.235 . S
O304 Co294 2.021 . S
O304 C301 1.238 . S
O305 Co299 2.052 . S
O305 C301 1.241 . S
O306 Co294 2.137 . S
O306 C297 1.247 . S
O307 Co294 2.244 . S
O307 C297 1.272 . S
O307 Co299 2.135 . S
Co308 O309 2.216 . S
Co308 O310 2.091 . S
Co308 O312 2.004 . S
Co308 O318 2.021 . S
Co308 O320 2.137 . S
Co308 O321 2.244 . S
O309 Co308 2.216 . S
O309 C316 1.247 . S
O310 Co308 2.091 . S
O310 C316 1.261 . S
C311 O320 1.247 . S
C311 O321 1.272 . S
O312 Co308 2.004 . S
O312 C317 1.259 . S
Co313 O314 2.061 . S
Co313 O319 2.052 . S
Co313 O321 2.135 . S
O314 Co313 2.061 . S
O314 C317 1.235 . S
C315 O318 1.238 . S
C315 O319 1.241 . S
C316 O309 1.247 . S
C316 O310 1.261 . S
C317 O312 1.259 . S
C317 O314 1.235 . S
O318 Co308 2.021 . S
O318 C315 1.238 . S
O319 Co313 2.052 . S
O319 C315 1.241 . S
O320 Co308 2.137 . S
O320 C311 1.247 . S
O321 Co308 2.244 . S
O321 C311 1.272 . S
O321 Co313 2.135 . S
Co322 O323 2.216 . S
Co322 O324 2.091 . S
Co322 O326 2.004 . S
Co322 O332 2.021 . S
Co322 O334 2.137 . S
Co322 O335 2.244 . S
O323 Co322 2.216 . S
O323 C330 1.247 . S
O324 Co322 2.091 . S
O324 C330 1.261 . S
C325 O334 1.247 . S
C325 O335 1.272 . S
O326 Co322 2.004 . S
O326 C331 1.259 . S
Co327 O328 2.061 . S
Co327 O333 2.052 . S
Co327 O335 2.135 . S
O328 Co327 2.061 . S
O328 C331 1.235 . S
C329 O332 1.238 . S
C329 O333 1.241 . S
C330 O323 1.247 . S
C330 O324 1.261 . S
C331 O326 1.259 . S
C331 O328 1.235 . S
O332 Co322 2.021 . S
O332 C329 1.238 . S
O333 Co327 2.052 . S
O333 C329 1.241 . S
O334 Co322 2.137 . S
O334 C325 1.247 . S
O335 Co322 2.244 . S
O335 C325 1.272 . S
O335 Co327 2.135 . S
Co336 O337 2.216 . S
Co336 O338 2.091 . S
Co336 O340 2.004 . S
Co336 O346 2.021 . S
Co336 O348 2.137 . S
Co336 O349 2.244 . S
O337 Co336 2.216 . S
O337 C344 1.247 . S
O338 Co336 2.091 . S
O338 C344 1.261 . S
C339 O348 1.247 . S
C339 O349 1.272 . S
O340 Co336 2.004 . S
O340 C345 1.259 . S
Co341 O342 2.061 . S
Co341 O347 2.052 . S
Co341 O349 2.135 . S
O342 Co341 2.061 . S
O342 C345 1.235 . S
C343 O346 1.238 . S
C343 O347 1.241 . S
C344 O337 1.247 . S
C344 O338 1.261 . S
C345 O340 1.259 . S
C345 O342 1.235 . S
O346 Co336 2.021 . S
O346 C343 1.238 . S
O347 Co341 2.052 . S
O347 C343 1.241 . S
O348 Co336 2.137 . S
O348 C339 1.247 . S
O349 Co336 2.244 . S
O349 C339 1.272 . S
O349 Co341 2.135 . S
Co350 O351 2.216 . S
Co350 O352 2.091 . S
Co350 O354 2.004 . S
Co350 O360 2.021 . S
Co350 O362 2.137 . S
Co350 O363 2.244 . S
O351 Co350 2.216 . S
O351 C358 1.247 . S
O352 Co350 2.091 . S
O352 C358 1.261 . S
C353 O362 1.247 . S
C353 O363 1.272 . S
O354 Co350 2.004 . S
O354 C359 1.259 . S
Co355 O356 2.061 . S
Co355 O361 2.052 . S
Co355 O363 2.135 . S
O356 Co355 2.061 . S
O356 C359 1.235 . S
C357 O360 1.238 . S
C357 O361 1.241 . S
C358 O351 1.247 . S
C358 O352 1.261 . S
C359 O354 1.259 . S
C359 O356 1.235 . S
O360 Co350 2.021 . S
O360 C357 1.238 . S
O361 Co355 2.052 . S
O361 C357 1.241 . S
O362 Co350 2.137 . S
O362 C353 1.247 . S
O363 Co350 2.244 . S
O363 C353 1.272 . S
O363 Co355 2.135 . S
Co364 O365 2.216 . S
Co364 O366 2.091 . S
Co364 O368 2.004 . S
Co364 O374 2.021 1_556 S
Co364 O376 2.137 . S
Co364 O377 2.244 . S
O365 Co364 2.216 . S
O365 C372 1.247 . S
O366 Co364 2.091 . S
O366 C372 1.261 . S
C367 O376 1.247 . S
C367 O377 1.272 . S
O368 Co364 2.004 . S
O368 C373 1.263 . S
Co369 O370 2.061 . S
Co369 O375 2.052 . S
Co369 O377 2.135 1_554 S
O370 Co369 2.061 . S
O370 C373 1.232 1_554 S
C371 O374 1.238 . S
C371 O375 1.241 . S
C372 O365 1.247 . S
C372 O366 1.261 . S
C373 O368 1.263 . S
C373 O370 1.232 1_556 S
O374 Co364 2.021 1_554 S
O374 C371 1.238 . S
O375 Co369 2.052 . S
O375 C371 1.241 . S
O376 Co364 2.137 . S
O376 C367 1.247 . S
O377 Co364 2.244 . S
O377 C367 1.272 . S
O377 Co369 2.135 1_556 S
Co378 O379 2.216 . S
Co378 O380 2.091 . S
Co378 O382 2.004 . S
Co378 O388 2.021 1_556 S
Co378 O390 2.137 . S
Co378 O391 2.244 . S
O379 Co378 2.216 . S
O379 C386 1.247 . S
O380 Co378 2.091 . S
O380 C386 1.261 . S
C381 O390 1.247 . S
C381 O391 1.272 . S
O382 Co378 2.004 . S
O382 C387 1.263 . S
Co383 O384 2.061 . S
Co383 O389 2.052 . S
Co383 O391 2.135 1_554 S
O384 Co383 2.061 . S
O384 C387 1.232 1_554 S
C385 O388 1.238 . S
C385 O389 1.241 . S
C386 O379 1.247 . S
C386 O380 1.261 . S
C387 O382 1.263 . S
C387 O384 1.232 1_556 S
O388 Co378 2.021 1_554 S
O388 C385 1.238 . S
O389 Co383 2.052 . S
O389 C385 1.241 . S
O390 Co378 2.137 . S
O390 C381 1.247 . S
O391 Co378 2.244 . S
O391 C381 1.272 . S
O391 Co383 2.135 1_556 S
Co392 O393 2.216 . S
Co392 O394 2.091 . S
Co392 O396 2.004 . S
Co392 O402 2.021 . S
Co392 O404 2.137 . S
Co392 O405 2.244 . S
O393 Co392 2.216 . S
O393 C400 1.247 . S
O394 Co392 2.091 . S
O394 C400 1.261 . S
C395 O404 1.247 . S
C395 O405 1.272 . S
O396 Co392 2.004 . S
O396 C401 1.259 . S
Co397 O398 2.061 . S
Co397 O403 2.052 . S
Co397 O405 2.135 . S
O398 Co397 2.061 . S
O398 C401 1.235 . S
C399 O402 1.238 . S
C399 O403 1.241 . S
C400 O393 1.247 . S
C400 O394 1.261 . S
C401 O396 1.259 . S
C401 O398 1.235 . S
O402 Co392 2.021 . S
O402 C399 1.238 . S
O403 Co397 2.052 . S
O403 C399 1.241 . S
O404 Co392 2.137 . S
O404 C395 1.247 . S
O405 Co392 2.244 . S
O405 C395 1.272 . S
O405 Co397 2.135 . S
Co406 O407 2.216 . S
Co406 O408 2.091 . S
Co406 O410 2.004 . S
Co406 O416 2.021 . S
Co406 O418 2.137 . S
Co406 O419 2.244 . S
O407 Co406 2.216 . S
O407 C414 1.247 . S
O408 Co406 2.091 . S
O408 C414 1.261 . S
C409 O418 1.247 . S
C409 O419 1.272 . S
O410 Co406 2.004 . S
O410 C415 1.259 . S
Co411 O412 2.061 . S
Co411 O417 2.052 . S
Co411 O419 2.135 . S
O412 Co411 2.061 . S
O412 C415 1.235 . S
C413 O416 1.238 . S
C413 O417 1.241 . S
C414 O407 1.247 . S
C414 O408 1.261 . S
C415 O410 1.259 . S
C415 O412 1.235 . S
O416 Co406 2.021 . S
O416 C413 1.238 . S
O417 Co411 2.052 . S
O417 C413 1.241 . S
O418 Co406 2.137 . S
O418 C409 1.247 . S
O419 Co406 2.244 . S
O419 C409 1.272 . S
O419 Co411 2.135 . S
Co420 O421 2.216 . S
Co420 O422 2.091 . S
Co420 O424 2.004 . S
Co420 O430 2.021 1_554 S
Co420 O432 2.137 . S
Co420 O433 2.244 . S
O421 Co420 2.216 . S
O421 C428 1.247 . S
O422 Co420 2.091 . S
O422 C428 1.261 . S
C423 O432 1.247 . S
C423 O433 1.272 . S
O424 Co420 2.004 . S
O424 C429 1.263 . S
Co425 O426 2.061 . S
Co425 O431 2.052 . S
Co425 O433 2.135 1_556 S
O426 Co425 2.061 . S
O426 C429 1.232 1_556 S
C427 O430 1.238 . S
C427 O431 1.241 . S
C428 O421 1.247 . S
C428 O422 1.261 . S
C429 O424 1.263 . S
C429 O426 1.232 1_554 S
O430 Co420 2.021 1_556 S
O430 C427 1.238 . S
O431 Co425 2.052 . S
O431 C427 1.241 . S
O432 Co420 2.137 . S
O432 C423 1.247 . S
O433 Co420 2.244 . S
O433 C423 1.272 . S
O433 Co425 2.135 1_554 S
Co434 O435 2.216 . S
Co434 O436 2.091 . S
Co434 O438 2.004 . S
Co434 O444 2.021 1_554 S
Co434 O446 2.137 . S
Co434 O447 2.244 . S
O435 Co434 2.216 . S
O435 C442 1.247 . S
O436 Co434 2.091 . S
O436 C442 1.261 . S
C437 O446 1.247 . S
C437 O447 1.272 . S
O438 Co434 2.004 . S
O438 C443 1.263 . S
Co439 O440 2.061 . S
Co439 O445 2.052 . S
Co439 O447 2.135 1_556 S
O440 Co439 2.061 . S
O440 C443 1.232 1_556 S
C441 O444 1.238 . S
C441 O445 1.241 . S
C442 O435 1.247 . S
C442 O436 1.261 . S
C443 O438 1.263 . S
C443 O440 1.232 1_554 S
O444 Co434 2.021 1_556 S
O444 C441 1.238 . S
O445 Co439 2.052 . S
O445 C441 1.241 . S
O446 Co434 2.137 . S
O446 C437 1.247 . S
O447 Co434 2.244 . S
O447 C437 1.272 . S
O447 Co439 2.135 1_554 S
H448 C456 0.950 . S
H449 C461 0.950 . S
H450 C458 0.950 . S
H451 C460 0.950 . S
H452 C462 0.950 . S
H453 C464 0.950 . S
H454 C466 0.950 . S
H455 C467 0.950 . S
C456 H448 0.950 . S
C456 C457 1.386 . S
C456 C458 1.391 . S
C457 C456 1.386 . S
C457 C461 1.393 . S
C458 H450 0.950 . S
C458 C456 1.391 . S
C458 C459 1.400 . S
C459 C458 1.400 . S
C459 C460 1.398 . S
C459 C465 1.491 . S
C460 H451 0.950 . S
C460 C459 1.398 . S
C460 C461 1.391 . S
C461 H449 0.950 . S
C461 C457 1.393 . S
C461 C460 1.391 . S
C462 H452 0.950 . S
C462 C463 1.386 . S
C462 C464 1.391 . S
C463 C462 1.386 . S
C463 C467 1.393 . S
C464 H453 0.950 . S
C464 C462 1.391 . S
C464 C465 1.400 . S
C465 C459 1.491 . S
C465 C464 1.400 . S
C465 C466 1.398 . S
C466 H454 0.950 . S
C466 C465 1.398 . S
C466 C467 1.391 . S
C467 H455 0.950 . S
C467 C463 1.393 . S
C467 C466 1.391 . S
H468 C476 0.950 . S
H469 C481 0.950 . S
H470 C478 0.950 . S
H471 C480 0.950 . S
H472 C482 0.950 . S
H473 C484 0.950 . S
H474 C486 0.950 . S
H475 C487 0.950 . S
C476 H468 0.950 . S
C476 C477 1.386 . S
C476 C478 1.391 . S
C477 C476 1.386 . S
C477 C481 1.393 . S
C478 H470 0.950 . S
C478 C476 1.391 . S
C478 C479 1.400 . S
C479 C478 1.400 . S
C479 C480 1.398 . S
C479 C485 1.491 . S
C480 H471 0.950 . S
C480 C479 1.398 . S
C480 C481 1.391 . S
C481 H469 0.950 . S
C481 C477 1.393 . S
C481 C480 1.391 . S
C482 H472 0.950 . S
C482 C483 1.386 . S
C482 C484 1.391 . S
C483 C482 1.386 . S
C483 C487 1.393 . S
C484 H473 0.950 . S
C484 C482 1.391 . S
C484 C485 1.400 . S
C485 C479 1.491 . S
C485 C484 1.400 . S
C485 C486 1.398 . S
C486 H474 0.950 . S
C486 C485 1.398 . S
C486 C487 1.391 . S
C487 H475 0.950 . S
C487 C483 1.393 . S
C487 C486 1.391 . S
H488 C496 0.950 . S
H489 C501 0.950 . S
H490 C498 0.950 . S
H491 C500 0.950 . S
H492 C502 0.950 . S
H493 C504 0.950 . S
H494 C506 0.950 . S
H495 C507 0.950 . S
C496 H488 0.950 . S
C496 C497 1.386 . S
C496 C498 1.391 . S
C497 C496 1.386 . S
C497 C501 1.393 . S
C498 H490 0.950 . S
C498 C496 1.391 . S
C498 C499 1.400 . S
C499 C498 1.400 . S
C499 C500 1.398 . S
C499 C505 1.491 . S
C500 H491 0.950 . S
C500 C499 1.398 . S
C500 C501 1.391 . S
C501 H489 0.950 . S
C501 C497 1.393 . S
C501 C500 1.391 . S
C502 H492 0.950 . S
C502 C503 1.386 . S
C502 C504 1.391 . S
C503 C502 1.386 . S
C503 C507 1.393 . S
C504 H493 0.950 . S
C504 C502 1.391 . S
C504 C505 1.400 . S
C505 C499 1.491 . S
C505 C504 1.400 . S
C505 C506 1.398 . S
C506 H494 0.950 . S
C506 C505 1.398 . S
C506 C507 1.391 . S
C507 H495 0.950 . S
C507 C503 1.393 . S
C507 C506 1.391 . S
H508 C516 0.950 . S
H509 C521 0.950 . S
H510 C518 0.950 . S
H511 C520 0.950 . S
H512 C522 0.950 . S
H513 C524 0.950 . S
H514 C526 0.950 . S
H515 C527 0.950 . S
C516 H508 0.950 . S
C516 C517 1.386 . S
C516 C518 1.391 . S
C517 C516 1.386 . S
C517 C521 1.393 . S
C518 H510 0.950 . S
C518 C516 1.391 . S
C518 C519 1.400 . S
C519 C518 1.400 . S
C519 C520 1.398 . S
C519 C525 1.491 . S
C520 H511 0.950 . S
C520 C519 1.398 . S
C520 C521 1.391 . S
C521 H509 0.950 . S
C521 C517 1.393 . S
C521 C520 1.391 . S
C522 H512 0.950 . S
C522 C523 1.386 . S
C522 C524 1.391 . S
C523 C522 1.386 . S
C523 C527 1.393 . S
C524 H513 0.950 . S
C524 C522 1.391 . S
C524 C525 1.400 . S
C525 C519 1.491 . S
C525 C524 1.400 . S
C525 C526 1.398 . S
C526 H514 0.950 . S
C526 C525 1.398 . S
C526 C527 1.391 . S
C527 H515 0.950 . S
C527 C523 1.393 . S
C527 C526 1.391 . S
H528 C536 0.950 . S
H529 C541 0.950 . S
H530 C538 0.950 . S
H531 C540 0.950 . S
H532 C542 0.950 . S
H533 C544 0.950 . S
H534 C546 0.950 . S
H535 C547 0.950 . S
C536 H528 0.950 . S
C536 C537 1.386 . S
C536 C538 1.391 . S
C537 C536 1.386 . S
C537 C541 1.393 . S
C538 H530 0.950 . S
C538 C536 1.391 . S
C538 C539 1.400 . S
C539 C538 1.400 . S
C539 C540 1.398 . S
C539 C545 1.491 . S
C540 H531 0.950 . S
C540 C539 1.398 . S
C540 C541 1.391 . S
C541 H529 0.950 . S
C541 C537 1.393 . S
C541 C540 1.391 . S
C542 H532 0.950 . S
C542 C543 1.386 . S
C542 C544 1.391 . S
C543 C542 1.386 . S
C543 C547 1.393 . S
C544 H533 0.950 . S
C544 C542 1.391 . S
C544 C545 1.400 . S
C545 C539 1.491 . S
C545 C544 1.400 . S
C545 C546 1.398 . S
C546 H534 0.950 . S
C546 C545 1.398 . S
C546 C547 1.391 . S
C547 H535 0.950 . S
C547 C543 1.393 . S
C547 C546 1.391 . S
H548 C556 0.950 . S
H549 C561 0.950 . S
H550 C558 0.950 . S
H551 C560 0.950 . S
H552 C562 0.950 . S
H553 C564 0.950 . S
H554 C566 0.950 . S
H555 C567 0.950 . S
C556 H548 0.950 . S
C556 C557 1.386 . S
C556 C558 1.391 . S
C557 C556 1.386 . S
C557 C561 1.393 . S
C558 H550 0.950 . S
C558 C556 1.391 . S
C558 C559 1.400 . S
C559 C558 1.400 . S
C559 C560 1.398 . S
C559 C565 1.491 . S
C560 H551 0.950 . S
C560 C559 1.398 . S
C560 C561 1.391 . S
C561 H549 0.950 . S
C561 C557 1.393 . S
C561 C560 1.391 . S
C562 H552 0.950 . S
C562 C563 1.386 . S
C562 C564 1.391 . S
C563 C562 1.386 . S
C563 C567 1.393 . S
C564 H553 0.950 . S
C564 C562 1.391 . S
C564 C565 1.400 . S
C565 C559 1.491 . S
C565 C564 1.400 . S
C565 C566 1.398 . S
C566 H554 0.950 . S
C566 C565 1.398 . S
C566 C567 1.391 . S
C567 H555 0.950 . S
C567 C563 1.393 . S
C567 C566 1.391 . S
H568 C576 0.950 . S
H569 C581 0.950 . S
H570 C578 0.950 . S
H571 C580 0.950 . S
H572 C582 0.950 . S
H573 C584 0.950 . S
H574 C586 0.950 . S
H575 C587 0.950 . S
C576 H568 0.950 . S
C576 C577 1.386 . S
C576 C578 1.391 . S
C577 C576 1.386 . S
C577 C581 1.393 . S
C578 H570 0.950 . S
C578 C576 1.391 . S
C578 C579 1.400 . S
C579 C578 1.400 . S
C579 C580 1.398 . S
C579 C585 1.491 . S
C580 H571 0.950 . S
C580 C579 1.398 . S
C580 C581 1.391 . S
C581 H569 0.950 . S
C581 C577 1.393 . S
C581 C580 1.391 . S
C582 H572 0.950 . S
C582 C583 1.386 . S
C582 C584 1.391 . S
C583 C582 1.386 . S
C583 C587 1.393 . S
C584 H573 0.950 . S
C584 C582 1.391 . S
C584 C585 1.400 . S
C585 C579 1.491 . S
C585 C584 1.400 . S
C585 C586 1.398 . S
C586 H574 0.950 . S
C586 C585 1.398 . S
C586 C587 1.391 . S
C587 H575 0.950 . S
C587 C583 1.393 . S
C587 C586 1.391 . S
H588 C596 0.950 . S
H589 C601 0.950 . S
H590 C598 0.950 . S
H591 C600 0.950 . S
H592 C602 0.950 . S
H593 C604 0.950 . S
H594 C606 0.950 . S
H595 C607 0.950 . S
C596 H588 0.950 . S
C596 C597 1.386 . S
C596 C598 1.391 . S
C597 C596 1.386 . S
C597 C601 1.393 . S
C598 H590 0.950 . S
C598 C596 1.391 . S
C598 C599 1.400 . S
C599 C598 1.400 . S
C599 C600 1.398 . S
C599 C605 1.491 . S
C600 H591 0.950 . S
C600 C599 1.398 . S
C600 C601 1.391 . S
C601 H589 0.950 . S
C601 C597 1.393 . S
C601 C600 1.391 . S
C602 H592 0.950 . S
C602 C603 1.386 . S
C602 C604 1.391 . S
C603 C602 1.386 . S
C603 C607 1.393 . S
C604 H593 0.950 . S
C604 C602 1.391 . S
C604 C605 1.400 . S
C605 C599 1.491 . S
C605 C604 1.400 . S
C605 C606 1.398 . S
C606 H594 0.950 . S
C606 C605 1.398 . S
C606 C607 1.391 . S
C607 H595 0.950 . S
C607 C603 1.393 . S
C607 C606 1.391 . S
H608 C616 0.950 . S
H609 C621 0.950 . S
H610 C618 0.950 . S
H611 C620 0.950 . S
H612 C622 0.950 . S
H613 C624 0.950 . S
H614 C626 0.950 . S
H615 C627 0.950 . S
C616 H608 0.950 . S
C616 C617 1.386 . S
C616 C618 1.391 . S
C617 C616 1.386 . S
C617 C621 1.393 . S
C618 H610 0.950 . S
C618 C616 1.391 . S
C618 C619 1.400 . S
C619 C618 1.400 . S
C619 C620 1.398 . S
C619 C625 1.491 . S
C620 H611 0.950 . S
C620 C619 1.398 . S
C620 C621 1.391 . S
C621 H609 0.950 . S
C621 C617 1.393 . S
C621 C620 1.391 . S
C622 H612 0.950 . S
C622 C623 1.386 . S
C622 C624 1.391 . S
C623 C622 1.386 . S
C623 C627 1.393 . S
C624 H613 0.950 . S
C624 C622 1.391 . S
C624 C625 1.400 . S
C625 C619 1.491 . S
C625 C624 1.400 . S
C625 C626 1.398 . S
C626 H614 0.950 . S
C626 C625 1.398 . S
C626 C627 1.391 . S
C627 H615 0.950 . S
C627 C623 1.393 . S
C627 C626 1.391 . S
H628 C636 0.950 . S
H629 C641 0.950 . S
H630 C638 0.950 . S
H631 C640 0.950 . S
H632 C642 0.950 . S
H633 C644 0.950 . S
H634 C646 0.950 . S
H635 C647 0.950 . S
C636 H628 0.950 . S
C636 C637 1.386 . S
C636 C638 1.391 . S
C637 C636 1.386 . S
C637 C641 1.393 . S
C638 H630 0.950 . S
C638 C636 1.391 . S
C638 C639 1.400 . S
C639 C638 1.400 . S
C639 C640 1.398 . S
C639 C645 1.491 . S
C640 H631 0.950 . S
C640 C639 1.398 . S
C640 C641 1.391 . S
C641 H629 0.950 . S
C641 C637 1.393 . S
C641 C640 1.391 . S
C642 H632 0.950 . S
C642 C643 1.386 . S
C642 C644 1.391 . S
C643 C642 1.386 . S
C643 C647 1.393 . S
C644 H633 0.950 . S
C644 C642 1.391 . S
C644 C645 1.400 . S
C645 C639 1.491 . S
C645 C644 1.400 . S
C645 C646 1.398 . S
C646 H634 0.950 . S
C646 C645 1.398 . S
C646 C647 1.391 . S
C647 H635 0.950 . S
C647 C643 1.393 . S
C647 C646 1.391 . S
H648 C656 0.950 . S
H649 C661 0.950 . S
H650 C658 0.950 . S
H651 C660 0.950 . S
H652 C662 0.950 . S
H653 C664 0.950 . S
H654 C666 0.950 . S
H655 C667 0.950 . S
C656 H648 0.950 . S
C656 C657 1.386 . S
C656 C658 1.391 . S
C657 C656 1.386 . S
C657 C661 1.393 . S
C658 H650 0.950 . S
C658 C656 1.391 . S
C658 C659 1.400 . S
C659 C658 1.400 . S
C659 C660 1.398 . S
C659 C665 1.491 . S
C660 H651 0.950 . S
C660 C659 1.398 . S
C660 C661 1.391 . S
C661 H649 0.950 . S
C661 C657 1.393 . S
C661 C660 1.391 . S
C662 H652 0.950 . S
C662 C663 1.386 . S
C662 C664 1.391 . S
C663 C662 1.386 . S
C663 C667 1.393 . S
C664 H653 0.950 . S
C664 C662 1.391 . S
C664 C665 1.400 . S
C665 C659 1.491 . S
C665 C664 1.400 . S
C665 C666 1.398 . S
C666 H654 0.950 . S
C666 C665 1.398 . S
C666 C667 1.391 . S
C667 H655 0.950 . S
C667 C663 1.393 . S
C667 C666 1.391 . S
H668 C676 0.950 . S
H669 C681 0.950 . S
H670 C678 0.950 . S
H671 C680 0.950 . S
H672 C682 0.950 . S
H673 C684 0.950 . S
H674 C686 0.950 . S
H675 C687 0.950 . S
C676 H668 0.950 . S
C676 C677 1.386 . S
C676 C678 1.391 . S
C677 C676 1.386 . S
C677 C681 1.393 . S
C678 H670 0.950 . S
C678 C676 1.391 . S
C678 C679 1.400 . S
C679 C678 1.400 . S
C679 C680 1.398 . S
C679 C685 1.491 . S
C680 H671 0.950 . S
C680 C679 1.398 . S
C680 C681 1.391 . S
C681 H669 0.950 . S
C681 C677 1.393 . S
C681 C680 1.391 . S
C682 H672 0.950 . S
C682 C683 1.386 . S
C682 C684 1.391 . S
C683 C682 1.386 . S
C683 C687 1.393 . S
C684 H673 0.950 . S
C684 C682 1.391 . S
C684 C685 1.400 . S
C685 C679 1.491 . S
C685 C684 1.400 . S
C685 C686 1.398 . S
C686 H674 0.950 . S
C686 C685 1.398 . S
C686 C687 1.391 . S
C687 H675 0.950 . S
C687 C683 1.393 . S
C687 C686 1.391 . S
H688 C696 0.950 . S
H689 C701 0.950 . S
H690 C698 0.950 . S
H691 C700 0.950 . S
H692 C702 0.950 . S
H693 C704 0.950 . S
H694 C706 0.950 . S
H695 C707 0.950 . S
C696 H688 0.950 . S
C696 C697 1.386 . S
C696 C698 1.391 . S
C697 C696 1.386 . S
C697 C701 1.393 . S
C698 H690 0.950 . S
C698 C696 1.391 . S
C698 C699 1.400 . S
C699 C698 1.400 . S
C699 C700 1.398 . S
C699 C705 1.491 . S
C700 H691 0.950 . S
C700 C699 1.398 . S
C700 C701 1.391 . S
C701 H689 0.950 . S
C701 C697 1.393 . S
C701 C700 1.391 . S
C702 H692 0.950 . S
C702 C703 1.386 . S
C702 C704 1.391 . S
C703 C702 1.386 . S
C703 C707 1.393 . S
C704 H693 0.950 . S
C704 C702 1.391 . S
C704 C705 1.400 . S
C705 C699 1.491 . S
C705 C704 1.400 . S
C705 C706 1.398 . S
C706 H694 0.950 . S
C706 C705 1.398 . S
C706 C707 1.391 . S
C707 H695 0.950 . S
C707 C703 1.393 . S
C707 C706 1.391 . S
H708 C716 0.950 . S
H709 C721 0.950 . S
H710 C718 0.950 . S
H711 C720 0.950 . S
H712 C722 0.950 . S
H713 C724 0.950 . S
H714 C726 0.950 . S
H715 C727 0.950 . S
C716 H708 0.950 . S
C716 C717 1.386 . S
C716 C718 1.391 . S
C717 C716 1.386 . S
C717 C721 1.393 . S
C718 H710 0.950 . S
C718 C716 1.391 . S
C718 C719 1.400 . S
C719 C718 1.400 . S
C719 C720 1.398 . S
C719 C725 1.491 . S
C720 H711 0.950 . S
C720 C719 1.398 . S
C720 C721 1.391 . S
C721 H709 0.950 . S
C721 C717 1.393 . S
C721 C720 1.391 . S
C722 H712 0.950 . S
C722 C723 1.386 . S
C722 C724 1.391 . S
C723 C722 1.386 . S
C723 C727 1.393 . S
C724 H713 0.950 . S
C724 C722 1.391 . S
C724 C725 1.400 . S
C725 C719 1.491 . S
C725 C724 1.400 . S
C725 C726 1.398 . S
C726 H714 0.950 . S
C726 C725 1.398 . S
C726 C727 1.391 . S
C727 H715 0.950 . S
C727 C723 1.393 . S
C727 C726 1.391 . S
H728 C736 0.950 . S
H729 C741 0.950 . S
H730 C738 0.950 . S
H731 C740 0.950 . S
H732 C742 0.950 . S
H733 C744 0.950 . S
H734 C746 0.950 . S
H735 C747 0.950 . S
C736 H728 0.950 . S
C736 C737 1.386 . S
C736 C738 1.391 . S
C737 C736 1.386 . S
C737 C741 1.393 . S
C738 H730 0.950 . S
C738 C736 1.391 . S
C738 C739 1.400 . S
C739 C738 1.400 . S
C739 C740 1.398 . S
C739 C745 1.491 . S
C740 H731 0.950 . S
C740 C739 1.398 . S
C740 C741 1.391 . S
C741 H729 0.950 . S
C741 C737 1.393 . S
C741 C740 1.391 . S
C742 H732 0.950 . S
C742 C743 1.386 . S
C742 C744 1.391 . S
C743 C742 1.386 . S
C743 C747 1.393 . S
C744 H733 0.950 . S
C744 C742 1.391 . S
C744 C745 1.400 . S
C745 C739 1.491 . S
C745 C744 1.400 . S
C745 C746 1.398 . S
C746 H734 0.950 . S
C746 C745 1.398 . S
C746 C747 1.391 . S
C747 H735 0.950 . S
C747 C743 1.393 . S
C747 C746 1.391 . S
H748 C756 0.950 . S
H749 C761 0.950 . S
H750 C758 0.950 . S
H751 C760 0.950 . S
H752 C762 0.950 . S
H753 C764 0.950 . S
H754 C766 0.950 . S
H755 C767 0.950 . S
C756 H748 0.950 . S
C756 C757 1.386 . S
C756 C758 1.391 . S
C757 C756 1.386 . S
C757 C761 1.393 . S
C758 H750 0.950 . S
C758 C756 1.391 . S
C758 C759 1.400 . S
C759 C758 1.400 . S
C759 C760 1.398 . S
C759 C765 1.491 . S
C760 H751 0.950 . S
C760 C759 1.398 . S
C760 C761 1.391 . S
C761 H749 0.950 . S
C761 C757 1.393 . S
C761 C760 1.391 . S
C762 H752 0.950 . S
C762 C763 1.386 . S
C762 C764 1.391 . S
C763 C762 1.386 . S
C763 C767 1.393 . S
C764 H753 0.950 . S
C764 C762 1.391 . S
C764 C765 1.400 . S
C765 C759 1.491 . S
C765 C764 1.400 . S
C765 C766 1.398 . S
C766 H754 0.950 . S
C766 C765 1.398 . S
C766 C767 1.391 . S
C767 H755 0.950 . S
C767 C763 1.393 . S
C767 C766 1.391 . S
H768 C776 0.950 . S
H769 C781 0.950 . S
H770 C778 0.933 1_455 S
H771 C780 0.950 . S
H772 C782 0.950 . S
H773 C784 0.935 1_655 S
H774 C786 0.950 . S
H775 C787 0.950 . S
C776 H768 0.950 . S
C776 C777 1.386 . S
C776 C778 1.402 . S
C777 C776 1.386 . S
C777 C781 1.393 . S
C778 H770 0.933 1_655 S
C778 C776 1.402 . S
C778 C779 1.406 . S
C779 C778 1.406 . S
C779 C780 1.398 . S
C779 C785 1.491 1_655 S
C780 H771 0.950 . S
C780 C779 1.398 . S
C780 C781 1.391 . S
C781 H769 0.950 . S
C781 C777 1.393 . S
C781 C780 1.391 . S
C782 H772 0.950 . S
C782 C783 1.386 . S
C782 C784 1.401 . S
C783 C782 1.386 . S
C783 C787 1.393 . S
C784 H773 0.935 1_455 S
C784 C782 1.401 . S
C784 C785 1.405 . S
C785 C779 1.491 1_455 S
C785 C784 1.405 . S
C785 C786 1.398 . S
C786 H774 0.950 . S
C786 C785 1.398 . S
C786 C787 1.391 . S
C787 H775 0.950 . S
C787 C783 1.393 . S
C787 C786 1.391 . S
H788 C796 0.950 . S
H789 C801 0.950 . S
H790 C798 0.950 . S
H791 C800 0.950 . S
H792 C802 0.950 . S
H793 C804 0.950 . S
H794 C806 0.950 . S
H795 C807 0.950 . S
C796 H788 0.950 . S
C796 C797 1.386 . S
C796 C798 1.391 . S
C797 C796 1.386 . S
C797 C801 1.393 . S
C798 H790 0.950 . S
C798 C796 1.391 . S
C798 C799 1.400 . S
C799 C798 1.400 . S
C799 C800 1.398 . S
C799 C805 1.491 1_565 S
C800 H791 0.950 . S
C800 C799 1.398 . S
C800 C801 1.391 . S
C801 H789 0.950 . S
C801 C797 1.393 . S
C801 C800 1.391 . S
C802 H792 0.950 . S
C802 C803 1.386 . S
C802 C804 1.391 . S
C803 C802 1.386 . S
C803 C807 1.393 . S
C804 H793 0.950 . S
C804 C802 1.391 . S
C804 C805 1.400 . S
C805 C799 1.491 1_545 S
C805 C804 1.400 . S
C805 C806 1.398 . S
C806 H794 0.950 . S
C806 C805 1.398 . S
C806 C807 1.391 . S
C807 H795 0.950 . S
C807 C803 1.393 . S
C807 C806 1.391 . S
H808 C816 0.950 . S
H809 C821 0.950 . S
H810 C818 0.950 1_655 S
H811 C820 0.950 . S
H812 C822 0.950 . S
H813 C824 0.950 1_455 S
H814 C826 0.950 . S
H815 C827 0.950 . S
C816 H808 0.950 . S
C816 C817 1.386 . S
C816 C818 1.391 . S
C817 C816 1.386 . S
C817 C821 1.393 1_556 S
C818 H810 0.950 1_455 S
C818 C816 1.391 . S
C818 C819 1.407 . S
C819 C818 1.407 . S
C819 C820 1.392 1_556 S
C819 C825 1.490 1_466 S
C820 H811 0.950 . S
C820 C819 1.392 1_554 S
C820 C821 1.391 . S
C821 H809 0.950 . S
C821 C817 1.393 1_554 S
C821 C820 1.391 . S
C822 H812 0.950 . S
C822 C823 1.386 . S
C822 C824 1.391 . S
C823 C822 1.386 . S
C823 C827 1.393 1_554 S
C824 H813 0.950 1_655 S
C824 C822 1.391 . S
C824 C825 1.399 . S
C825 C819 1.490 1_644 S
C825 C824 1.399 . S
C825 C826 1.399 1_554 S
C826 H814 0.950 . S
C826 C825 1.399 1_556 S
C826 C827 1.391 . S
C827 H815 0.950 . S
C827 C823 1.393 1_556 S
C827 C826 1.391 . S
H828 C836 0.950 . S
H829 C841 0.953 . S
H830 C838 0.950 . S
H831 C840 0.949 . S
H832 C842 0.950 . S
H833 C844 0.950 . S
H834 C846 0.949 . S
H835 C847 0.952 . S
C836 H828 0.950 . S
C836 C837 1.386 . S
C836 C838 1.391 . S
C837 C836 1.386 . S
C837 C841 1.393 . S
C838 H830 0.950 . S
C838 C836 1.391 . S
C838 C839 1.400 . S
C839 C838 1.400 . S
C839 C840 1.399 . S
C839 C845 1.488 1_554 S
C840 H831 0.949 . S
C840 C839 1.399 . S
C840 C841 1.393 . S
C841 H829 0.953 . S
C841 C837 1.393 . S
C841 C840 1.393 . S
C842 H832 0.950 . S
C842 C843 1.386 . S
C842 C844 1.391 . S
C843 C842 1.386 . S
C843 C847 1.393 . S
C844 H833 0.950 . S
C844 C842 1.391 . S
C844 C845 1.404 . S
C845 C839 1.488 1_556 S
C845 C844 1.404 . S
C845 C846 1.398 . S
C846 H834 0.949 . S
C846 C845 1.398 . S
C846 C847 1.392 . S
C847 H835 0.952 . S
C847 C843 1.393 . S
C847 C846 1.392 . S
H848 C856 0.950 . S
H849 C861 0.950 . S
H850 C858 0.950 1_455 S
H851 C860 0.950 . S
H852 C862 0.950 . S
H853 C864 0.950 1_655 S
H854 C866 0.950 . S
H855 C867 0.950 . S
C856 H848 0.950 . S
C856 C857 1.386 . S
C856 C858 1.391 . S
C857 C856 1.386 . S
C857 C861 1.393 . S
C858 H850 0.950 1_655 S
C858 C856 1.391 . S
C858 C859 1.400 . S
C859 C858 1.400 . S
C859 C860 1.398 . S
C859 C865 1.491 1_655 S
C860 H851 0.950 . S
C860 C859 1.398 . S
C860 C861 1.391 . S
C861 H849 0.950 . S
C861 C857 1.393 . S
C861 C860 1.391 . S
C862 H852 0.950 . S
C862 C863 1.386 . S
C862 C864 1.391 . S
C863 C862 1.386 . S
C863 C867 1.393 . S
C864 H853 0.950 1_455 S
C864 C862 1.391 . S
C864 C865 1.400 . S
C865 C859 1.491 1_455 S
C865 C864 1.400 . S
C865 C866 1.398 . S
C866 H854 0.950 . S
C866 C865 1.398 . S
C866 C867 1.391 . S
C867 H855 0.950 . S
C867 C863 1.393 . S
C867 C866 1.391 . S
H868 C876 0.950 . S
H869 C881 0.950 . S
H870 C878 0.950 . S
H871 C880 0.950 . S
H872 C882 0.950 . S
H873 C884 0.950 . S
H874 C886 0.950 . S
H875 C887 0.950 . S
C876 H868 0.950 . S
C876 C877 1.386 . S
C876 C878 1.391 . S
C877 C876 1.386 . S
C877 C881 1.393 . S
C878 H870 0.950 . S
C878 C876 1.391 . S
C878 C879 1.400 . S
C879 C878 1.400 . S
C879 C880 1.398 . S
C879 C885 1.491 1_565 S
C880 H871 0.950 . S
C880 C879 1.398 . S
C880 C881 1.391 . S
C881 H869 0.950 . S
C881 C877 1.393 . S
C881 C880 1.391 . S
C882 H872 0.950 . S
C882 C883 1.386 . S
C882 C884 1.391 . S
C883 C882 1.386 . S
C883 C887 1.393 . S
C884 H873 0.950 . S
C884 C882 1.391 . S
C884 C885 1.400 . S
C885 C879 1.491 1_545 S
C885 C884 1.400 . S
C885 C886 1.398 . S
C886 H874 0.950 . S
C886 C885 1.398 . S
C886 C887 1.391 . S
C887 H875 0.950 . S
C887 C883 1.393 . S
C887 C886 1.391 . S
H888 C896 0.950 . S
H889 C901 0.950 . S
H890 C898 0.950 . S
H891 C900 0.950 . S
H892 C902 0.950 . S
H893 C904 0.950 . S
H894 C906 0.950 . S
H895 C907 0.950 . S
C896 H888 0.950 . S
C896 C897 1.386 . S
C896 C898 1.391 . S
C897 C896 1.386 . S
C897 C901 1.393 1_556 S
C898 H890 0.950 . S
C898 C896 1.391 . S
C898 C899 1.423 . S
C899 C898 1.423 . S
C899 C900 1.377 1_556 S
C899 C905 1.490 1_556 S
C900 H891 0.950 . S
C900 C899 1.377 1_554 S
C900 C901 1.391 . S
C901 H889 0.950 . S
C901 C897 1.393 1_554 S
C901 C900 1.391 . S
C902 H892 0.950 . S
C902 C903 1.386 . S
C902 C904 1.391 . S
C903 C902 1.386 . S
C903 C907 1.393 1_554 S
C904 H893 0.950 . S
C904 C902 1.391 . S
C904 C905 1.413 . S
C905 C899 1.490 1_554 S
C905 C904 1.413 . S
C905 C906 1.386 1_554 S
C906 H894 0.950 . S
C906 C905 1.386 1_556 S
C906 C907 1.391 . S
C907 H895 0.950 . S
C907 C903 1.393 1_556 S
C907 C906 1.391 . S
H908 C916 0.950 . S
H909 C921 0.950 . S
H910 C918 0.950 . S
H911 C920 0.950 . S
H912 C922 0.950 . S
H913 C924 0.950 . S
H914 C926 0.950 . S
H915 C927 0.950 . S
C916 H908 0.950 . S
C916 C917 1.386 . S
C916 C918 1.391 . S
C917 C916 1.386 . S
C917 C921 1.393 . S
C918 H910 0.950 . S
C918 C916 1.391 . S
C918 C919 1.400 . S
C919 C918 1.400 . S
C919 C920 1.398 . S
C919 C925 1.491 . S
C920 H911 0.950 . S
C920 C919 1.398 . S
C920 C921 1.391 . S
C921 H909 0.950 . S
C921 C917 1.393 . S
C921 C920 1.391 . S
C922 H912 0.950 . S
C922 C923 1.386 . S
C922 C924 1.391 . S
C923 C922 1.386 . S
C923 C927 1.393 . S
C924 H913 0.950 . S
C924 C922 1.391 . S
C924 C925 1.400 . S
C925 C919 1.491 . S
C925 C924 1.400 . S
C925 C926 1.398 . S
C926 H914 0.950 . S
C926 C925 1.398 . S
C926 C927 1.391 . S
C927 H915 0.950 . S
C927 C923 1.393 . S
C927 C926 1.391 . S
H928 C936 0.950 . S
H929 C941 0.950 . S
H930 C938 0.950 . S
H931 C940 0.950 1_455 S
H932 C942 0.950 . S
H933 C944 0.950 . S
H934 C946 0.950 1_655 S
H935 C947 0.950 . S
C936 H928 0.950 . S
C936 C937 1.386 . S
C936 C938 1.391 . S
C937 C936 1.386 . S
C937 C941 1.393 . S
C938 H930 0.950 . S
C938 C936 1.391 . S
C938 C939 1.400 . S
C939 C938 1.400 . S
C939 C940 1.398 . S
C939 C945 1.491 1_655 S
C940 H931 0.950 1_655 S
C940 C939 1.398 . S
C940 C941 1.391 . S
C941 H929 0.950 . S
C941 C937 1.393 . S
C941 C940 1.391 . S
C942 H932 0.950 . S
C942 C943 1.386 . S
C942 C944 1.391 . S
C943 C942 1.386 . S
C943 C947 1.393 . S
C944 H933 0.950 . S
C944 C942 1.391 . S
C944 C945 1.400 . S
C945 C939 1.491 1_455 S
C945 C944 1.400 . S
C945 C946 1.398 . S
C946 H934 0.950 1_455 S
C946 C945 1.398 . S
C946 C947 1.391 . S
C947 H935 0.950 . S
C947 C943 1.393 . S
C947 C946 1.391 . S
H948 C956 0.950 . S
H949 C961 0.950 . S
H950 C958 0.950 . S
H951 C960 0.950 . S
H952 C962 0.950 . S
H953 C964 0.950 . S
H954 C966 0.950 . S
H955 C967 0.950 . S
C956 H948 0.950 . S
C956 C957 1.386 . S
C956 C958 1.391 . S
C957 C956 1.386 . S
C957 C961 1.393 . S
C958 H950 0.950 . S
C958 C956 1.391 . S
C958 C959 1.400 . S
C959 C958 1.400 . S
C959 C960 1.398 . S
C959 C965 1.491 . S
C960 H951 0.950 . S
C960 C959 1.398 . S
C960 C961 1.391 . S
C961 H949 0.950 . S
C961 C957 1.393 . S
C961 C960 1.391 . S
C962 H952 0.950 . S
C962 C963 1.386 . S
C962 C964 1.391 . S
C963 C962 1.386 . S
C963 C967 1.393 . S
C964 H953 0.950 . S
C964 C962 1.391 . S
C964 C965 1.400 . S
C965 C959 1.491 . S
C965 C964 1.400 . S
C965 C966 1.398 . S
C966 H954 0.950 . S
C966 C965 1.398 . S
C966 C967 1.391 . S
C967 H955 0.950 . S
C967 C963 1.393 . S
C967 C966 1.391 . S
H968 C976 0.950 . S
H969 C981 0.950 . S
H970 C978 0.950 . S
H971 C980 0.950 . S
H972 C982 0.950 . S
H973 C984 0.950 . S
H974 C986 0.950 . S
H975 C987 0.950 . S
C976 H968 0.950 . S
C976 C977 1.386 . S
C976 C978 1.391 . S
C977 C976 1.386 . S
C977 C981 1.393 . S
C978 H970 0.950 . S
C978 C976 1.391 . S
C978 C979 1.400 . S
C979 C978 1.400 . S
C979 C980 1.398 . S
C979 C985 1.491 . S
C980 H971 0.950 . S
C980 C979 1.398 . S
C980 C981 1.391 . S
C981 H969 0.950 . S
C981 C977 1.393 . S
C981 C980 1.391 . S
C982 H972 0.950 . S
C982 C983 1.386 . S
C982 C984 1.391 . S
C983 C982 1.386 . S
C983 C987 1.393 . S
C984 H973 0.950 . S
C984 C982 1.391 . S
C984 C985 1.400 . S
C985 C979 1.491 . S
C985 C984 1.400 . S
C985 C986 1.398 . S
C986 H974 0.950 . S
C986 C985 1.398 . S
C986 C987 1.391 . S
C987 H975 0.950 . S
C987 C983 1.393 . S
C987 C986 1.391 . S
H988 C996 0.950 . S
H989 C1001 0.950 . S
H990 C998 0.950 . S
H991 C1000 0.950 . S
H992 C1002 0.950 . S
H993 C1004 0.950 . S
H994 C1006 0.950 . S
H995 C1007 0.950 . S
C996 H988 0.950 . S
C996 C997 1.386 . S
C996 C998 1.391 . S
C997 C996 1.386 . S
C997 C1001 1.393 . S
C998 H990 0.950 . S
C998 C996 1.391 . S
C998 C999 1.400 . S
C999 C998 1.400 . S
C999 C1000 1.398 . S
C999 C1005 1.491 . S
C1000 H991 0.950 . S
C1000 C999 1.398 . S
C1000 C1001 1.391 . S
C1001 H989 0.950 . S
C1001 C997 1.393 . S
C1001 C1000 1.391 . S
C1002 H992 0.950 . S
C1002 C1003 1.386 . S
C1002 C1004 1.391 . S
C1003 C1002 1.386 . S
C1003 C1007 1.393 . S
C1004 H993 0.950 . S
C1004 C1002 1.391 . S
C1004 C1005 1.400 . S
C1005 C999 1.491 . S
C1005 C1004 1.400 . S
C1005 C1006 1.398 . S
C1006 H994 0.950 . S
C1006 C1005 1.398 . S
C1006 C1007 1.391 . S
C1007 H995 0.950 . S
C1007 C1003 1.393 . S
C1007 C1006 1.391 . S
H1008 C1016 0.950 . S
H1009 C1021 0.950 . S
H1010 C1018 0.950 . S
H1011 C1020 0.950 . S
H1012 C1022 0.950 . S
H1013 C1024 0.950 . S
H1014 C1026 0.950 . S
H1015 C1027 0.950 . S
C1016 H1008 0.950 . S
C1016 C1017 1.386 . S
C1016 C1018 1.391 . S
C1017 C1016 1.386 . S
C1017 C1021 1.393 . S
C1018 H1010 0.950 . S
C1018 C1016 1.391 . S
C1018 C1019 1.400 . S
C1019 C1018 1.400 . S
C1019 C1020 1.398 . S
C1019 C1025 1.491 . S
C1020 H1011 0.950 . S
C1020 C1019 1.398 . S
C1020 C1021 1.391 . S
C1021 H1009 0.950 . S
C1021 C1017 1.393 . S
C1021 C1020 1.391 . S
C1022 H1012 0.950 . S
C1022 C1023 1.386 . S
C1022 C1024 1.391 . S
C1023 C1022 1.386 . S
C1023 C1027 1.393 . S
C1024 H1013 0.950 . S
C1024 C1022 1.391 . S
C1024 C1025 1.400 . S
C1025 C1019 1.491 . S
C1025 C1024 1.400 . S
C1025 C1026 1.398 . S
C1026 H1014 0.950 . S
C1026 C1025 1.398 . S
C1026 C1027 1.391 . S
C1027 H1015 0.950 . S
C1027 C1023 1.393 . S
C1027 C1026 1.391 . S
H1028 C1036 0.950 . S
H1029 C1041 0.950 . S
H1030 C1038 0.950 1_565 S
H1031 C1040 0.950 . S
H1032 C1042 0.950 . S
H1033 C1044 0.950 1_545 S
H1034 C1046 0.950 . S
H1035 C1047 0.950 . S
C1036 H1028 0.950 . S
C1036 C1037 1.386 . S
C1036 C1038 1.391 . S
C1037 C1036 1.386 . S
C1037 C1041 1.393 . S
C1038 H1030 0.950 1_545 S
C1038 C1036 1.391 . S
C1038 C1039 1.400 . S
C1039 C1038 1.400 . S
C1039 C1040 1.398 . S
C1039 C1045 1.491 1_545 S
C1040 H1031 0.950 . S
C1040 C1039 1.398 . S
C1040 C1041 1.391 . S
C1041 H1029 0.950 . S
C1041 C1037 1.393 . S
C1041 C1040 1.391 . S
C1042 H1032 0.950 . S
C1042 C1043 1.386 . S
C1042 C1044 1.391 . S
C1043 C1042 1.386 . S
C1043 C1047 1.393 . S
C1044 H1033 0.950 1_565 S
C1044 C1042 1.391 . S
C1044 C1045 1.400 . S
C1045 C1039 1.491 1_565 S
C1045 C1044 1.400 . S
C1045 C1046 1.398 . S
C1046 H1034 0.950 . S
C1046 C1045 1.398 . S
C1046 C1047 1.391 . S
C1047 H1035 0.950 . S
C1047 C1043 1.393 . S
C1047 C1046 1.391 . S
H1048 C1056 0.950 . S
H1049 C1061 0.950 . S
H1050 C1058 0.950 . S
H1051 C1060 0.950 . S
H1052 C1062 0.950 . S
H1053 C1064 0.950 . S
H1054 C1066 0.950 . S
H1055 C1067 0.950 . S
C1056 H1048 0.950 . S
C1056 C1057 1.386 . S
C1056 C1058 1.391 . S
C1057 C1056 1.386 . S
C1057 C1061 1.393 . S
C1058 H1050 0.950 . S
C1058 C1056 1.391 . S
C1058 C1059 1.400 . S
C1059 C1058 1.400 . S
C1059 C1060 1.398 . S
C1059 C1065 1.491 . S
C1060 H1051 0.950 . S
C1060 C1059 1.398 . S
C1060 C1061 1.391 . S
C1061 H1049 0.950 . S
C1061 C1057 1.393 . S
C1061 C1060 1.391 . S
C1062 H1052 0.950 . S
C1062 C1063 1.386 . S
C1062 C1064 1.391 . S
C1063 C1062 1.386 . S
C1063 C1067 1.393 . S
C1064 H1053 0.950 . S
C1064 C1062 1.391 . S
C1064 C1065 1.400 . S
C1065 C1059 1.491 . S
C1065 C1064 1.400 . S
C1065 C1066 1.398 . S
C1066 H1054 0.950 . S
C1066 C1065 1.398 . S
C1066 C1067 1.391 . S
C1067 H1055 0.950 . S
C1067 C1063 1.393 . S
C1067 C1066 1.391 . S
H1068 C1076 0.950 . S
H1069 C1081 0.950 . S
H1070 C1078 0.950 . S
H1071 C1080 0.950 . S
H1072 C1082 0.950 . S
H1073 C1084 0.950 . S
H1074 C1086 0.950 . S
H1075 C1087 0.950 . S
C1076 H1068 0.950 . S
C1076 C1077 1.386 1_554 S
C1076 C1078 1.391 . S
C1077 C1076 1.386 1_556 S
C1077 C1081 1.393 . S
C1078 H1070 0.950 . S
C1078 C1076 1.391 . S
C1078 C1079 1.381 1_554 S
C1079 C1078 1.381 1_556 S
C1079 C1080 1.419 . S
C1079 C1085 1.490 1_556 S
C1080 H1071 0.950 . S
C1080 C1079 1.419 . S
C1080 C1081 1.391 . S
C1081 H1069 0.950 . S
C1081 C1077 1.393 . S
C1081 C1080 1.391 . S
C1082 H1072 0.950 . S
C1082 C1083 1.386 1_556 S
C1082 C1084 1.391 . S
C1083 C1082 1.386 1_554 S
C1083 C1087 1.393 . S
C1084 H1073 0.950 . S
C1084 C1082 1.391 . S
C1084 C1085 1.390 1_556 S
C1085 C1079 1.490 1_554 S
C1085 C1084 1.390 1_554 S
C1085 C1086 1.409 . S
C1086 H1074 0.950 . S
C1086 C1085 1.409 . S
C1086 C1087 1.391 . S
C1087 H1075 0.950 . S
C1087 C1083 1.393 . S
C1087 C1086 1.391 . S
H1088 C1096 0.950 . S
H1089 C1101 0.950 . S
H1090 C1098 0.950 . S
H1091 C1100 0.950 . S
H1092 C1102 0.950 . S
H1093 C1104 0.950 . S
H1094 C1106 0.950 . S
H1095 C1107 0.950 . S
C1096 H1088 0.950 . S
C1096 C1097 1.386 . S
C1096 C1098 1.391 . S
C1097 C1096 1.386 . S
C1097 C1101 1.393 . S
C1098 H1090 0.950 . S
C1098 C1096 1.391 . S
C1098 C1099 1.400 . S
C1099 C1098 1.400 . S
C1099 C1100 1.398 . S
C1099 C1105 1.491 . S
C1100 H1091 0.950 . S
C1100 C1099 1.398 . S
C1100 C1101 1.391 . S
C1101 H1089 0.950 . S
C1101 C1097 1.393 . S
C1101 C1100 1.391 . S
C1102 H1092 0.950 . S
C1102 C1103 1.386 . S
C1102 C1104 1.391 . S
C1103 C1102 1.386 . S
C1103 C1107 1.393 . S
C1104 H1093 0.950 . S
C1104 C1102 1.391 . S
C1104 C1105 1.400 . S
C1105 C1099 1.491 . S
C1105 C1104 1.400 . S
C1105 C1106 1.398 . S
C1106 H1094 0.950 . S
C1106 C1105 1.398 . S
C1106 C1107 1.391 . S
C1107 H1095 0.950 . S
C1107 C1103 1.393 . S
C1107 C1106 1.391 . S
H1108 C1116 0.950 . S
H1109 C1121 0.950 . S
H1110 C1118 0.950 . S
H1111 C1120 0.950 . S
H1112 C1122 0.950 . S
H1113 C1124 0.950 . S
H1114 C1126 0.950 . S
H1115 C1127 0.950 . S
C1116 H1108 0.950 . S
C1116 C1117 1.386 . S
C1116 C1118 1.391 . S
C1117 C1116 1.386 . S
C1117 C1121 1.393 . S
C1118 H1110 0.950 . S
C1118 C1116 1.391 . S
C1118 C1119 1.400 . S
C1119 C1118 1.400 . S
C1119 C1120 1.398 . S
C1119 C1125 1.491 . S
C1120 H1111 0.950 . S
C1120 C1119 1.398 . S
C1120 C1121 1.391 . S
C1121 H1109 0.950 . S
C1121 C1117 1.393 . S
C1121 C1120 1.391 . S
C1122 H1112 0.950 . S
C1122 C1123 1.386 . S
C1122 C1124 1.391 . S
C1123 C1122 1.386 . S
C1123 C1127 1.393 . S
C1124 H1113 0.950 . S
C1124 C1122 1.391 . S
C1124 C1125 1.400 . S
C1125 C1119 1.491 . S
C1125 C1124 1.400 . S
C1125 C1126 1.398 . S
C1126 H1114 0.950 . S
C1126 C1125 1.398 . S
C1126 C1127 1.391 . S
C1127 H1115 0.950 . S
C1127 C1123 1.393 . S
C1127 C1126 1.391 . S
H1128 C1136 0.950 . S
H1129 C1141 0.950 . S
H1130 C1138 0.950 . S
H1131 C1140 0.950 . S
H1132 C1142 0.950 . S
H1133 C1144 0.950 . S
H1134 C1146 0.950 . S
H1135 C1147 0.950 . S
C1136 H1128 0.950 . S
C1136 C1137 1.386 . S
C1136 C1138 1.391 . S
C1137 C1136 1.386 . S
C1137 C1141 1.393 . S
C1138 H1130 0.950 . S
C1138 C1136 1.391 . S
C1138 C1139 1.400 . S
C1139 C1138 1.400 . S
C1139 C1140 1.398 . S
C1139 C1145 1.491 . S
C1140 H1131 0.950 . S
C1140 C1139 1.398 . S
C1140 C1141 1.391 . S
C1141 H1129 0.950 . S
C1141 C1137 1.393 . S
C1141 C1140 1.391 . S
C1142 H1132 0.950 . S
C1142 C1143 1.386 . S
C1142 C1144 1.391 . S
C1143 C1142 1.386 . S
C1143 C1147 1.393 . S
C1144 H1133 0.950 . S
C1144 C1142 1.391 . S
C1144 C1145 1.400 . S
C1145 C1139 1.491 . S
C1145 C1144 1.400 . S
C1145 C1146 1.398 . S
C1146 H1134 0.950 . S
C1146 C1145 1.398 . S
C1146 C1147 1.391 . S
C1147 H1135 0.950 . S
C1147 C1143 1.393 . S
C1147 C1146 1.391 . S
H1148 C1156 0.950 . S
H1149 C1161 0.950 . S
H1150 C1158 0.950 . S
H1151 C1160 0.950 . S
H1152 C1162 0.950 . S
H1153 C1164 0.950 . S
H1154 C1166 0.950 . S
H1155 C1167 0.950 . S
C1156 H1148 0.950 . S
C1156 C1157 1.386 . S
C1156 C1158 1.391 . S
C1157 C1156 1.386 . S
C1157 C1161 1.393 . S
C1158 H1150 0.950 . S
C1158 C1156 1.391 . S
C1158 C1159 1.400 . S
C1159 C1158 1.400 . S
C1159 C1160 1.398 . S
C1159 C1165 1.491 . S
C1160 H1151 0.950 . S
C1160 C1159 1.398 . S
C1160 C1161 1.391 . S
C1161 H1149 0.950 . S
C1161 C1157 1.393 . S
C1161 C1160 1.391 . S
C1162 H1152 0.950 . S
C1162 C1163 1.386 . S
C1162 C1164 1.391 . S
C1163 C1162 1.386 . S
C1163 C1167 1.393 . S
C1164 H1153 0.950 . S
C1164 C1162 1.391 . S
C1164 C1165 1.400 . S
C1165 C1159 1.491 . S
C1165 C1164 1.400 . S
C1165 C1166 1.398 . S
C1166 H1154 0.950 . S
C1166 C1165 1.398 . S
C1166 C1167 1.391 . S
C1167 H1155 0.950 . S
C1167 C1163 1.393 . S
C1167 C1166 1.391 . S
H1168 C1176 0.950 . S
H1169 C1181 0.950 . S
H1170 C1178 0.950 . S
H1171 C1180 0.950 . S
H1172 C1182 0.950 . S
H1173 C1184 0.950 . S
H1174 C1186 0.950 . S
H1175 C1187 0.950 . S
C1176 H1168 0.950 . S
C1176 C1177 1.386 . S
C1176 C1178 1.391 . S
C1177 C1176 1.386 . S
C1177 C1181 1.393 . S
C1178 H1170 0.950 . S
C1178 C1176 1.391 . S
C1178 C1179 1.400 . S
C1179 C1178 1.400 . S
C1179 C1180 1.398 . S
C1179 C1185 1.491 . S
C1180 H1171 0.950 . S
C1180 C1179 1.398 . S
C1180 C1181 1.391 . S
C1181 H1169 0.950 . S
C1181 C1177 1.393 . S
C1181 C1180 1.391 . S
C1182 H1172 0.950 . S
C1182 C1183 1.386 . S
C1182 C1184 1.391 . S
C1183 C1182 1.386 . S
C1183 C1187 1.393 . S
C1184 H1173 0.950 . S
C1184 C1182 1.391 . S
C1184 C1185 1.400 . S
C1185 C1179 1.491 . S
C1185 C1184 1.400 . S
C1185 C1186 1.398 . S
C1186 H1174 0.950 . S
C1186 C1185 1.398 . S
C1186 C1187 1.391 . S
C1187 H1175 0.950 . S
C1187 C1183 1.393 . S
C1187 C1186 1.391 . S
H1188 C1196 0.950 . S
H1189 C1201 0.950 . S
H1190 C1198 0.950 . S
H1191 C1200 0.950 . S
H1192 C1202 0.950 . S
H1193 C1204 0.950 . S
H1194 C1206 0.950 . S
H1195 C1207 0.950 . S
C1196 H1188 0.950 . S
C1196 C1197 1.386 . S
C1196 C1198 1.391 . S
C1197 C1196 1.386 . S
C1197 C1201 1.393 . S
C1198 H1190 0.950 . S
C1198 C1196 1.391 . S
C1198 C1199 1.400 . S
C1199 C1198 1.400 . S
C1199 C1200 1.398 . S
C1199 C1205 1.491 . S
C1200 H1191 0.950 . S
C1200 C1199 1.398 . S
C1200 C1201 1.391 . S
C1201 H1189 0.950 . S
C1201 C1197 1.393 . S
C1201 C1200 1.391 . S
C1202 H1192 0.950 . S
C1202 C1203 1.386 . S
C1202 C1204 1.391 . S
C1203 C1202 1.386 . S
C1203 C1207 1.393 . S
C1204 H1193 0.950 . S
C1204 C1202 1.391 . S
C1204 C1205 1.400 . S
C1205 C1199 1.491 . S
C1205 C1204 1.400 . S
C1205 C1206 1.398 . S
C1206 H1194 0.950 . S
C1206 C1205 1.398 . S
C1206 C1207 1.391 . S
C1207 H1195 0.950 . S
C1207 C1203 1.393 . S
C1207 C1206 1.391 . S
H1208 C1216 0.950 . S
H1209 C1221 0.950 . S
H1210 C1218 0.950 . S
H1211 C1220 0.950 . S
H1212 C1222 0.950 . S
H1213 C1224 0.950 . S
H1214 C1226 0.950 . S
H1215 C1227 0.950 . S
C1216 H1208 0.950 . S
C1216 C1217 1.386 . S
C1216 C1218 1.391 . S
C1217 C1216 1.386 . S
C1217 C1221 1.393 . S
C1218 H1210 0.950 . S
C1218 C1216 1.391 . S
C1218 C1219 1.400 . S
C1219 C1218 1.400 . S
C1219 C1220 1.398 . S
C1219 C1225 1.491 . S
C1220 H1211 0.950 . S
C1220 C1219 1.398 . S
C1220 C1221 1.391 . S
C1221 H1209 0.950 . S
C1221 C1217 1.393 . S
C1221 C1220 1.391 . S
C1222 H1212 0.950 . S
C1222 C1223 1.386 . S
C1222 C1224 1.391 . S
C1223 C1222 1.386 . S
C1223 C1227 1.393 . S
C1224 H1213 0.950 . S
C1224 C1222 1.391 . S
C1224 C1225 1.400 . S
C1225 C1219 1.491 . S
C1225 C1224 1.400 . S
C1225 C1226 1.398 . S
C1226 H1214 0.950 . S
C1226 C1225 1.398 . S
C1226 C1227 1.391 . S
C1227 H1215 0.950 . S
C1227 C1223 1.393 . S
C1227 C1226 1.391 . S
H1228 C1236 0.950 . S
H1229 C1241 0.950 . S
H1230 C1238 0.950 . S
H1231 C1240 0.950 . S
H1232 C1242 0.950 . S
H1233 C1244 0.950 . S
H1234 C1246 0.950 . S
H1235 C1247 0.950 . S
C1236 H1228 0.950 . S
C1236 C1237 1.386 . S
C1236 C1238 1.391 . S
C1237 C1236 1.386 . S
C1237 C1241 1.393 . S
C1238 H1230 0.950 . S
C1238 C1236 1.391 . S
C1238 C1239 1.400 . S
C1239 C1238 1.400 . S
C1239 C1240 1.398 . S
C1239 C1245 1.491 . S
C1240 H1231 0.950 . S
C1240 C1239 1.398 . S
C1240 C1241 1.391 . S
C1241 H1229 0.950 . S
C1241 C1237 1.393 . S
C1241 C1240 1.391 . S
C1242 H1232 0.950 . S
C1242 C1243 1.386 . S
C1242 C1244 1.391 . S
C1243 C1242 1.386 . S
C1243 C1247 1.393 . S
C1244 H1233 0.950 . S
C1244 C1242 1.391 . S
C1244 C1245 1.400 . S
C1245 C1239 1.491 . S
C1245 C1244 1.400 . S
C1245 C1246 1.398 . S
C1246 H1234 0.950 . S
C1246 C1245 1.398 . S
C1246 C1247 1.391 . S
C1247 H1235 0.950 . S
C1247 C1243 1.393 . S
C1247 C1246 1.391 . S
H1248 C1256 0.950 . S
H1249 C1261 0.950 . S
H1250 C1258 0.950 . S
H1251 C1260 0.950 . S
H1252 C1262 0.950 . S
H1253 C1264 0.950 . S
H1254 C1266 0.950 . S
H1255 C1267 0.950 . S
C1256 H1248 0.950 . S
C1256 C1257 1.386 . S
C1256 C1258 1.391 . S
C1257 C1256 1.386 . S
C1257 C1261 1.393 . S
C1258 H1250 0.950 . S
C1258 C1256 1.391 . S
C1258 C1259 1.400 . S
C1259 C1258 1.400 . S
C1259 C1260 1.398 . S
C1259 C1265 1.491 . S
C1260 H1251 0.950 . S
C1260 C1259 1.398 . S
C1260 C1261 1.391 . S
C1261 H1249 0.950 . S
C1261 C1257 1.393 . S
C1261 C1260 1.391 . S
C1262 H1252 0.950 . S
C1262 C1263 1.386 . S
C1262 C1264 1.391 . S
C1263 C1262 1.386 . S
C1263 C1267 1.393 . S
C1264 H1253 0.950 . S
C1264 C1262 1.391 . S
C1264 C1265 1.400 . S
C1265 C1259 1.491 . S
C1265 C1264 1.400 . S
C1265 C1266 1.398 . S
C1266 H1254 0.950 . S
C1266 C1265 1.398 . S
C1266 C1267 1.391 . S
C1267 H1255 0.950 . S
C1267 C1263 1.393 . S
C1267 C1266 1.391 . S
H1268 C1276 0.950 . S
H1269 C1281 0.950 . S
H1270 C1278 0.950 . S
H1271 C1280 0.950 . S
H1272 C1282 0.950 . S
H1273 C1284 0.950 . S
H1274 C1286 0.950 . S
H1275 C1287 0.950 . S
C1276 H1268 0.950 . S
C1276 C1277 1.386 . S
C1276 C1278 1.391 . S
C1277 C1276 1.386 . S
C1277 C1281 1.393 . S
C1278 H1270 0.950 . S
C1278 C1276 1.391 . S
C1278 C1279 1.400 . S
C1279 C1278 1.400 . S
C1279 C1280 1.398 . S
C1279 C1285 1.491 . S
C1280 H1271 0.950 . S
C1280 C1279 1.398 . S
C1280 C1281 1.391 . S
C1281 H1269 0.950 . S
C1281 C1277 1.393 . S
C1281 C1280 1.391 . S
C1282 H1272 0.950 . S
C1282 C1283 1.386 . S
C1282 C1284 1.391 . S
C1283 C1282 1.386 . S
C1283 C1287 1.393 . S
C1284 H1273 0.950 . S
C1284 C1282 1.391 . S
C1284 C1285 1.400 . S
C1285 C1279 1.491 . S
C1285 C1284 1.400 . S
C1285 C1286 1.398 . S
C1286 H1274 0.950 . S
C1286 C1285 1.398 . S
C1286 C1287 1.391 . S
C1287 H1275 0.950 . S
C1287 C1283 1.393 . S
C1287 C1286 1.391 . S
H1288 C1296 0.950 . S
H1289 C1301 0.950 . S
H1290 C1298 0.950 . S
H1291 C1300 0.950 . S
H1292 C1302 0.950 . S
H1293 C1304 0.950 . S
H1294 C1306 0.950 . S
H1295 C1307 0.950 . S
C1296 H1288 0.950 . S
C1296 C1297 1.386 . S
C1296 C1298 1.391 . S
C1297 C1296 1.386 . S
C1297 C1301 1.393 . S
C1298 H1290 0.950 . S
C1298 C1296 1.391 . S
C1298 C1299 1.400 . S
C1299 C1298 1.400 . S
C1299 C1300 1.398 . S
C1299 C1305 1.491 . S
C1300 H1291 0.950 . S
C1300 C1299 1.398 . S
C1300 C1301 1.391 . S
C1301 H1289 0.950 . S
C1301 C1297 1.393 . S
C1301 C1300 1.391 . S
C1302 H1292 0.950 . S
C1302 C1303 1.386 . S
C1302 C1304 1.391 . S
C1303 C1302 1.386 . S
C1303 C1307 1.393 . S
C1304 H1293 0.950 . S
C1304 C1302 1.391 . S
C1304 C1305 1.400 . S
C1305 C1299 1.491 . S
C1305 C1304 1.400 . S
C1305 C1306 1.398 . S
C1306 H1294 0.950 . S
C1306 C1305 1.398 . S
C1306 C1307 1.391 . S
C1307 H1295 0.950 . S
C1307 C1303 1.393 . S
C1307 C1306 1.391 . S
H1308 C1316 0.950 . S
H1309 C1321 0.950 . S
H1310 C1318 0.950 . S
H1311 C1320 0.950 . S
H1312 C1322 0.950 . S
H1313 C1324 0.950 . S
H1314 C1326 0.950 . S
H1315 C1327 0.950 . S
C1316 H1308 0.950 . S
C1316 C1317 1.386 . S
C1316 C1318 1.391 . S
C1317 C1316 1.386 . S
C1317 C1321 1.393 . S
C1318 H1310 0.950 . S
C1318 C1316 1.391 . S
C1318 C1319 1.400 . S
C1319 C1318 1.400 . S
C1319 C1320 1.398 . S
C1319 C1325 1.491 . S
C1320 H1311 0.950 . S
C1320 C1319 1.398 . S
C1320 C1321 1.391 . S
C1321 H1309 0.950 . S
C1321 C1317 1.393 . S
C1321 C1320 1.391 . S
C1322 H1312 0.950 . S
C1322 C1323 1.386 . S
C1322 C1324 1.391 . S
C1323 C1322 1.386 . S
C1323 C1327 1.393 . S
C1324 H1313 0.950 . S
C1324 C1322 1.391 . S
C1324 C1325 1.400 . S
C1325 C1319 1.491 . S
C1325 C1324 1.400 . S
C1325 C1326 1.398 . S
C1326 H1314 0.950 . S
C1326 C1325 1.398 . S
C1326 C1327 1.391 . S
C1327 H1315 0.950 . S
C1327 C1323 1.393 . S
C1327 C1326 1.391 . S
H1328 C1336 0.950 . S
H1329 C1341 0.950 . S
H1330 C1338 0.950 . S
H1331 C1340 0.950 . S
H1332 C1342 0.950 . S
H1333 C1344 0.950 . S
H1334 C1346 0.950 . S
H1335 C1347 0.950 . S
C1336 H1328 0.950 . S
C1336 C1337 1.386 . S
C1336 C1338 1.391 . S
C1337 C1336 1.386 . S
C1337 C1341 1.393 . S
C1338 H1330 0.950 . S
C1338 C1336 1.391 . S
C1338 C1339 1.400 . S
C1339 C1338 1.400 . S
C1339 C1340 1.398 . S
C1339 C1345 1.491 . S
C1340 H1331 0.950 . S
C1340 C1339 1.398 . S
C1340 C1341 1.391 . S
C1341 H1329 0.950 . S
C1341 C1337 1.393 . S
C1341 C1340 1.391 . S
C1342 H1332 0.950 . S
C1342 C1343 1.386 . S
C1342 C1344 1.391 . S
C1343 C1342 1.386 . S
C1343 C1347 1.393 . S
C1344 H1333 0.950 . S
C1344 C1342 1.391 . S
C1344 C1345 1.400 . S
C1345 C1339 1.491 . S
C1345 C1344 1.400 . S
C1345 C1346 1.398 . S
C1346 H1334 0.950 . S
C1346 C1345 1.398 . S
C1346 C1347 1.391 . S
C1347 H1335 0.950 . S
C1347 C1343 1.393 . S
C1347 C1346 1.391 . S
H1348 C1356 0.950 . S
H1349 C1361 0.950 . S
H1350 C1358 0.950 . S
H1351 C1360 0.950 . S
H1352 C1362 0.950 . S
H1353 C1364 0.950 . S
H1354 C1366 0.950 . S
H1355 C1367 0.950 . S
C1356 H1348 0.950 . S
C1356 C1357 1.386 . S
C1356 C1358 1.391 . S
C1357 C1356 1.386 . S
C1357 C1361 1.393 . S
C1358 H1350 0.950 . S
C1358 C1356 1.391 . S
C1358 C1359 1.400 . S
C1359 C1358 1.400 . S
C1359 C1360 1.398 . S
C1359 C1365 1.491 . S
C1360 H1351 0.950 . S
C1360 C1359 1.398 . S
C1360 C1361 1.391 . S
C1361 H1349 0.950 . S
C1361 C1357 1.393 . S
C1361 C1360 1.391 . S
C1362 H1352 0.950 . S
C1362 C1363 1.386 . S
C1362 C1364 1.391 . S
C1363 C1362 1.386 . S
C1363 C1367 1.393 . S
C1364 H1353 0.950 . S
C1364 C1362 1.391 . S
C1364 C1365 1.400 . S
C1365 C1359 1.491 . S
C1365 C1364 1.400 . S
C1365 C1366 1.398 . S
C1366 H1354 0.950 . S
C1366 C1365 1.398 . S
C1366 C1367 1.391 . S
C1367 H1355 0.950 . S
C1367 C1363 1.393 . S
C1367 C1366 1.391 . S
H1368 C1376 0.950 . S
H1369 C1381 0.950 . S
H1370 C1378 0.950 . S
H1371 C1380 0.950 . S
H1372 C1382 0.950 . S
H1373 C1384 0.950 . S
H1374 C1386 0.950 . S
H1375 C1387 0.950 . S
C1376 H1368 0.950 . S
C1376 C1377 1.386 . S
C1376 C1378 1.391 . S
C1377 C1376 1.386 . S
C1377 C1381 1.393 . S
C1378 H1370 0.950 . S
C1378 C1376 1.391 . S
C1378 C1379 1.400 . S
C1379 C1378 1.400 . S
C1379 C1380 1.398 . S
C1379 C1385 1.491 . S
C1380 H1371 0.950 . S
C1380 C1379 1.398 . S
C1380 C1381 1.391 . S
C1381 H1369 0.950 . S
C1381 C1377 1.393 . S
C1381 C1380 1.391 . S
C1382 H1372 0.950 . S
C1382 C1383 1.386 . S
C1382 C1384 1.391 . S
C1383 C1382 1.386 . S
C1383 C1387 1.393 . S
C1384 H1373 0.950 . S
C1384 C1382 1.391 . S
C1384 C1385 1.400 . S
C1385 C1379 1.491 . S
C1385 C1384 1.400 . S
C1385 C1386 1.398 . S
C1386 H1374 0.950 . S
C1386 C1385 1.398 . S
C1386 C1387 1.391 . S
C1387 H1375 0.950 . S
C1387 C1383 1.393 . S
C1387 C1386 1.391 . S
H1388 C1396 0.950 . S
H1389 C1401 0.950 . S
H1390 C1398 0.950 . S
H1391 C1400 0.950 . S
H1392 C1402 0.950 . S
H1393 C1404 0.950 . S
H1394 C1406 0.950 . S
H1395 C1407 0.950 . S
C1396 H1388 0.950 . S
C1396 C1397 1.386 . S
C1396 C1398 1.391 . S
C1397 C1396 1.386 . S
C1397 C1401 1.393 . S
C1398 H1390 0.950 . S
C1398 C1396 1.391 . S
C1398 C1399 1.400 . S
C1399 C1398 1.400 . S
C1399 C1400 1.398 . S
C1399 C1405 1.491 . S
C1400 H1391 0.950 . S
C1400 C1399 1.398 . S
C1400 C1401 1.391 . S
C1401 H1389 0.950 . S
C1401 C1397 1.393 . S
C1401 C1400 1.391 . S
C1402 H1392 0.950 . S
C1402 C1403 1.386 . S
C1402 C1404 1.391 . S
C1403 C1402 1.386 . S
C1403 C1407 1.393 . S
C1404 H1393 0.950 . S
C1404 C1402 1.391 . S
C1404 C1405 1.400 . S
C1405 C1399 1.491 . S
C1405 C1404 1.400 . S
C1405 C1406 1.398 . S
C1406 H1394 0.950 . S
C1406 C1405 1.398 . S
C1406 C1407 1.391 . S
C1407 H1395 0.950 . S
C1407 C1403 1.393 . S
C1407 C1406 1.391 . S
H1408 C1416 0.950 . S
H1409 C1421 0.950 . S
H1410 C1418 0.950 . S
H1411 C1420 0.950 . S
H1412 C1422 0.950 . S
H1413 C1424 0.950 . S
H1414 C1426 0.950 . S
H1415 C1427 0.950 . S
C1416 H1408 0.950 . S
C1416 C1417 1.386 . S
C1416 C1418 1.391 . S
C1417 C1416 1.386 . S
C1417 C1421 1.393 . S
C1418 H1410 0.950 . S
C1418 C1416 1.391 . S
C1418 C1419 1.400 . S
C1419 C1418 1.400 . S
C1419 C1420 1.398 . S
C1419 C1425 1.491 . S
C1420 H1411 0.950 . S
C1420 C1419 1.398 . S
C1420 C1421 1.391 . S
C1421 H1409 0.950 . S
C1421 C1417 1.393 . S
C1421 C1420 1.391 . S
C1422 H1412 0.950 . S
C1422 C1423 1.386 . S
C1422 C1424 1.391 . S
C1423 C1422 1.386 . S
C1423 C1427 1.393 . S
C1424 H1413 0.950 . S
C1424 C1422 1.391 . S
C1424 C1425 1.400 . S
C1425 C1419 1.491 . S
C1425 C1424 1.400 . S
C1425 C1426 1.398 . S
C1426 H1414 0.950 . S
C1426 C1425 1.398 . S
C1426 C1427 1.391 . S
C1427 H1415 0.950 . S
C1427 C1423 1.393 . S
C1427 C1426 1.391 . S
H1428 C1436 0.950 . S
H1429 C1441 0.950 . S
H1430 C1438 0.950 . S
H1431 C1440 0.950 . S
H1432 C1442 0.950 . S
H1433 C1444 0.950 . S
H1434 C1446 0.950 . S
H1435 C1447 0.950 . S
C1436 H1428 0.950 . S
C1436 C1437 1.386 . S
C1436 C1438 1.391 . S
C1437 C1436 1.386 . S
C1437 C1441 1.393 . S
C1438 H1430 0.950 . S
C1438 C1436 1.391 . S
C1438 C1439 1.400 . S
C1439 C1438 1.400 . S
C1439 C1440 1.398 . S
C1439 C1445 1.491 . S
C1440 H1431 0.950 . S
C1440 C1439 1.398 . S
C1440 C1441 1.391 . S
C1441 H1429 0.950 . S
C1441 C1437 1.393 . S
C1441 C1440 1.391 . S
C1442 H1432 0.950 . S
C1442 C1443 1.386 . S
C1442 C1444 1.391 . S
C1443 C1442 1.386 . S
C1443 C1447 1.393 . S
C1444 H1433 0.950 . S
C1444 C1442 1.391 . S
C1444 C1445 1.400 . S
C1445 C1439 1.491 . S
C1445 C1444 1.400 . S
C1445 C1446 1.398 . S
C1446 H1434 0.950 . S
C1446 C1445 1.398 . S
C1446 C1447 1.391 . S
C1447 H1435 0.950 . S
C1447 C1443 1.393 . S
C1447 C1446 1.391 . S
H1448 C1456 0.950 . S
H1449 C1461 0.950 . S
H1450 C1458 0.950 . S
H1451 C1460 0.950 . S
H1452 C1462 0.950 . S
H1453 C1464 0.950 . S
H1454 C1466 0.950 . S
H1455 C1467 0.950 . S
C1456 H1448 0.950 . S
C1456 C1457 1.397 . S
C1456 C1458 1.391 . S
C1457 C1456 1.397 . S
C1457 C1461 1.383 1_556 S
C1458 H1450 0.950 . S
C1458 C1456 1.391 . S
C1458 C1459 1.406 . S
C1459 C1458 1.406 . S
C1459 C1460 1.394 1_556 S
C1459 C1465 1.490 1_556 S
C1460 H1451 0.950 . S
C1460 C1459 1.394 1_554 S
C1460 C1461 1.391 . S
C1461 H1449 0.950 . S
C1461 C1457 1.383 1_554 S
C1461 C1460 1.391 . S
C1462 H1452 0.950 . S
C1462 C1463 1.396 . S
C1462 C1464 1.391 . S
C1463 C1462 1.396 . S
C1463 C1467 1.384 1_554 S
C1464 H1453 0.950 . S
C1464 C1462 1.391 . S
C1464 C1465 1.404 . S
C1465 C1459 1.490 1_554 S
C1465 C1464 1.404 . S
C1465 C1466 1.395 1_554 S
C1466 H1454 0.950 . S
C1466 C1465 1.395 1_556 S
C1466 C1467 1.391 . S
C1467 H1455 0.950 . S
C1467 C1463 1.384 1_556 S
C1467 C1466 1.391 . S
H1468 C1476 0.950 . S
H1469 C1481 0.950 . S
H1470 C1478 0.950 . S
H1471 C1480 0.950 . S
H1472 C1482 0.950 . S
H1473 C1484 0.950 . S
H1474 C1486 0.950 . S
H1475 C1487 0.950 . S
C1476 H1468 0.950 . S
C1476 C1477 1.400 . S
C1476 C1478 1.391 . S
C1477 C1476 1.400 . S
C1477 C1481 1.379 1_554 S
C1478 H1470 0.950 . S
C1478 C1476 1.391 . S
C1478 C1479 1.406 . S
C1479 C1478 1.406 . S
C1479 C1480 1.393 1_554 S
C1479 C1485 1.490 1_554 S
C1480 H1471 0.950 . S
C1480 C1479 1.393 1_556 S
C1480 C1481 1.391 . S
C1481 H1469 0.950 . S
C1481 C1477 1.379 1_556 S
C1481 C1480 1.391 . S
C1482 H1472 0.950 . S
C1482 C1483 1.402 . S
C1482 C1484 1.391 . S
C1483 C1482 1.402 . S
C1483 C1487 1.377 1_556 S
C1484 H1473 0.950 . S
C1484 C1482 1.391 . S
C1484 C1485 1.408 . S
C1485 C1479 1.490 1_556 S
C1485 C1484 1.408 . S
C1485 C1486 1.391 1_556 S
C1486 H1474 0.950 . S
C1486 C1485 1.391 1_554 S
C1486 C1487 1.391 . S
C1487 H1475 0.950 . S
C1487 C1483 1.377 1_554 S
C1487 C1486 1.391 . S
H1488 C1496 0.950 . S
H1489 C1501 0.950 . S
H1490 C1498 0.950 . S
H1491 C1500 0.950 . S
H1492 C1502 0.950 . S
H1493 C1504 0.950 . S
H1494 C1506 0.950 . S
H1495 C1507 0.950 . S
C1496 H1488 0.950 . S
C1496 C1497 1.386 . S
C1496 C1498 1.391 . S
C1497 C1496 1.386 . S
C1497 C1501 1.393 . S
C1498 H1490 0.950 . S
C1498 C1496 1.391 . S
C1498 C1499 1.400 . S
C1499 C1498 1.400 . S
C1499 C1500 1.398 . S
C1499 C1505 1.491 . S
C1500 H1491 0.950 . S
C1500 C1499 1.398 . S
C1500 C1501 1.391 . S
C1501 H1489 0.950 . S
C1501 C1497 1.393 . S
C1501 C1500 1.391 . S
C1502 H1492 0.950 . S
C1502 C1503 1.386 . S
C1502 C1504 1.391 . S
C1503 C1502 1.386 . S
C1503 C1507 1.393 . S
C1504 H1493 0.950 . S
C1504 C1502 1.391 . S
C1504 C1505 1.400 . S
C1505 C1499 1.491 . S
C1505 C1504 1.400 . S
C1505 C1506 1.398 . S
C1506 H1494 0.950 . S
C1506 C1505 1.398 . S
C1506 C1507 1.391 . S
C1507 H1495 0.950 . S
C1507 C1503 1.393 . S
C1507 C1506 1.391 . S
H1508 C1516 0.950 . S
H1509 C1521 0.950 . S
H1510 C1518 0.950 . S
H1511 C1520 0.950 . S
H1512 C1522 0.950 . S
H1513 C1524 0.950 . S
H1514 C1526 0.950 . S
H1515 C1527 0.950 . S
C1516 H1508 0.950 . S
C1516 C1517 1.386 . S
C1516 C1518 1.391 . S
C1517 C1516 1.386 . S
C1517 C1521 1.393 . S
C1518 H1510 0.950 . S
C1518 C1516 1.391 . S
C1518 C1519 1.400 . S
C1519 C1518 1.400 . S
C1519 C1520 1.398 . S
C1519 C1525 1.491 . S
C1520 H1511 0.950 . S
C1520 C1519 1.398 . S
C1520 C1521 1.391 . S
C1521 H1509 0.950 . S
C1521 C1517 1.393 . S
C1521 C1520 1.391 . S
C1522 H1512 0.950 . S
C1522 C1523 1.386 . S
C1522 C1524 1.391 . S
C1523 C1522 1.386 . S
C1523 C1527 1.393 . S
C1524 H1513 0.950 . S
C1524 C1522 1.391 . S
C1524 C1525 1.400 . S
C1525 C1519 1.491 . S
C1525 C1524 1.400 . S
C1525 C1526 1.398 . S
C1526 H1514 0.950 . S
C1526 C1525 1.398 . S
C1526 C1527 1.391 . S
C1527 H1515 0.950 . S
C1527 C1523 1.393 . S
C1527 C1526 1.391 . S
H1528 C1536 0.950 . S
H1529 C1541 0.950 . S
H1530 C1538 0.950 . S
H1531 C1540 0.950 . S
H1532 C1542 0.950 . S
H1533 C1544 0.950 . S
H1534 C1546 0.950 . S
H1535 C1547 0.950 . S
C1536 H1528 0.950 . S
C1536 C1537 1.390 . S
C1536 C1538 1.391 . S
C1537 C1536 1.390 . S
C1537 C1541 1.390 1_556 S
C1538 H1530 0.950 . S
C1538 C1536 1.391 . S
C1538 C1539 1.402 . S
C1539 C1538 1.402 . S
C1539 C1540 1.397 1_556 S
C1539 C1545 1.490 1_556 S
C1540 H1531 0.950 . S
C1540 C1539 1.397 1_554 S
C1540 C1541 1.391 . S
C1541 H1529 0.950 . S
C1541 C1537 1.390 1_554 S
C1541 C1540 1.391 . S
C1542 H1532 0.950 . S
C1542 C1543 1.391 . S
C1542 C1544 1.391 . S
C1543 C1542 1.391 . S
C1543 C1547 1.389 1_554 S
C1544 H1533 0.950 . S
C1544 C1542 1.391 . S
C1544 C1545 1.403 . S
C1545 C1539 1.490 1_554 S
C1545 C1544 1.403 . S
C1545 C1546 1.397 1_554 S
C1546 H1534 0.950 . S
C1546 C1545 1.397 1_556 S
C1546 C1547 1.391 . S
C1547 H1535 0.950 . S
C1547 C1543 1.389 1_556 S
C1547 C1546 1.391 . S
H1548 C1556 0.950 . S
H1549 C1561 0.950 . S
H1550 C1558 0.950 . S
H1551 C1560 0.950 . S
H1552 C1562 0.950 . S
H1553 C1564 0.950 . S
H1554 C1566 0.950 . S
H1555 C1567 0.950 . S
C1556 H1548 0.950 . S
C1556 C1557 1.366 1_556 S
C1556 C1558 1.391 . S
C1557 C1556 1.366 1_554 S
C1557 C1561 1.414 . S
C1558 H1550 0.950 . S
C1558 C1556 1.391 . S
C1558 C1559 1.391 1_556 S
C1559 C1558 1.391 1_554 S
C1559 C1560 1.408 . S
C1559 C1565 1.490 1_554 S
C1560 H1551 0.950 . S
C1560 C1559 1.408 . S
C1560 C1561 1.391 . S
C1561 H1549 0.950 . S
C1561 C1557 1.414 . S
C1561 C1560 1.391 . S
C1562 H1552 0.950 . S
C1562 C1563 1.368 1_554 S
C1562 C1564 1.391 . S
C1563 C1562 1.368 1_556 S
C1563 C1567 1.411 . S
C1564 H1553 0.950 . S
C1564 C1562 1.391 . S
C1564 C1565 1.393 1_554 S
C1565 C1559 1.490 1_556 S
C1565 C1564 1.393 1_556 S
C1565 C1566 1.406 . S
C1566 H1554 0.950 . S
C1566 C1565 1.406 . S
C1566 C1567 1.391 . S
C1567 H1555 0.950 . S
C1567 C1563 1.411 . S
C1567 C1566 1.391 . S
H1568 C1576 0.950 . S
H1569 C1581 0.950 . S
H1570 C1578 0.950 . S
H1571 C1580 0.950 . S
H1572 C1582 0.950 . S
H1573 C1584 0.950 . S
H1574 C1586 0.950 . S
H1575 C1587 0.950 . S
C1576 H1568 0.950 . S
C1576 C1577 1.386 . S
C1576 C1578 1.391 . S
C1577 C1576 1.386 . S
C1577 C1581 1.393 . S
C1578 H1570 0.950 . S
C1578 C1576 1.391 . S
C1578 C1579 1.400 . S
C1579 C1578 1.400 . S
C1579 C1580 1.398 . S
C1579 C1585 1.491 . S
C1580 H1571 0.950 . S
C1580 C1579 1.398 . S
C1580 C1581 1.391 . S
C1581 H1569 0.950 . S
C1581 C1577 1.393 . S
C1581 C1580 1.391 . S
C1582 H1572 0.950 . S
C1582 C1583 1.386 . S
C1582 C1584 1.391 . S
C1583 C1582 1.386 . S
C1583 C1587 1.393 . S
C1584 H1573 0.950 . S
C1584 C1582 1.391 . S
C1584 C1585 1.400 . S
C1585 C1579 1.491 . S
C1585 C1584 1.400 . S
C1585 C1586 1.398 . S
C1586 H1574 0.950 . S
C1586 C1585 1.398 . S
C1586 C1587 1.391 . S
C1587 H1575 0.950 . S
C1587 C1583 1.393 . S
C1587 C1586 1.391 . S
H1588 C1596 0.950 . S
H1589 C1601 0.950 . S
H1590 C1598 0.950 . S
H1591 C1600 0.950 . S
H1592 C1602 0.950 . S
H1593 C1604 0.950 . S
H1594 C1606 0.950 . S
H1595 C1607 0.950 . S
C1596 H1588 0.950 . S
C1596 C1597 1.386 . S
C1596 C1598 1.391 . S
C1597 C1596 1.386 . S
C1597 C1601 1.393 . S
C1598 H1590 0.950 . S
C1598 C1596 1.391 . S
C1598 C1599 1.400 . S
C1599 C1598 1.400 . S
C1599 C1600 1.398 . S
C1599 C1605 1.491 . S
C1600 H1591 0.950 . S
C1600 C1599 1.398 . S
C1600 C1601 1.391 . S
C1601 H1589 0.950 . S
C1601 C1597 1.393 . S
C1601 C1600 1.391 . S
C1602 H1592 0.950 . S
C1602 C1603 1.386 . S
C1602 C1604 1.391 . S
C1603 C1602 1.386 . S
C1603 C1607 1.393 . S
C1604 H1593 0.950 . S
C1604 C1602 1.391 . S
C1604 C1605 1.400 . S
C1605 C1599 1.491 . S
C1605 C1604 1.400 . S
C1605 C1606 1.398 . S
C1606 H1594 0.950 . S
C1606 C1605 1.398 . S
C1606 C1607 1.391 . S
C1607 H1595 0.950 . S
C1607 C1603 1.393 . S
C1607 C1606 1.391 . S
H1608 C1616 0.950 . S
H1609 C1621 0.950 . S
H1610 C1618 0.950 . S
H1611 C1620 0.950 . S
H1612 C1622 0.950 . S
H1613 C1624 0.950 . S
H1614 C1626 0.950 . S
H1615 C1627 0.950 . S
C1616 H1608 0.950 . S
C1616 C1617 1.386 . S
C1616 C1618 1.391 . S
C1617 C1616 1.386 . S
C1617 C1621 1.393 . S
C1618 H1610 0.950 . S
C1618 C1616 1.391 . S
C1618 C1619 1.400 . S
C1619 C1618 1.400 . S
C1619 C1620 1.398 . S
C1619 C1625 1.491 . S
C1620 H1611 0.950 . S
C1620 C1619 1.398 . S
C1620 C1621 1.391 . S
C1621 H1609 0.950 . S
C1621 C1617 1.393 . S
C1621 C1620 1.391 . S
C1622 H1612 0.950 . S
C1622 C1623 1.386 . S
C1622 C1624 1.391 . S
C1623 C1622 1.386 . S
C1623 C1627 1.393 . S
C1624 H1613 0.950 . S
C1624 C1622 1.391 . S
C1624 C1625 1.400 . S
C1625 C1619 1.491 . S
C1625 C1624 1.400 . S
C1625 C1626 1.398 . S
C1626 H1614 0.950 . S
C1626 C1625 1.398 . S
C1626 C1627 1.391 . S
C1627 H1615 0.950 . S
C1627 C1623 1.393 . S
C1627 C1626 1.391 . S
H1628 C1636 0.950 . S
H1629 C1641 0.950 . S
H1630 C1638 0.950 . S
H1631 C1640 0.950 . S
H1632 C1642 0.950 . S
H1633 C1644 0.950 . S
H1634 C1646 0.950 . S
H1635 C1647 0.950 . S
C1636 H1628 0.950 . S
C1636 C1637 1.386 . S
C1636 C1638 1.391 . S
C1637 C1636 1.386 . S
C1637 C1641 1.393 . S
C1638 H1630 0.950 . S
C1638 C1636 1.391 . S
C1638 C1639 1.400 . S
C1639 C1638 1.400 . S
C1639 C1640 1.398 . S
C1639 C1645 1.491 . S
C1640 H1631 0.950 . S
C1640 C1639 1.398 . S
C1640 C1641 1.391 . S
C1641 H1629 0.950 . S
C1641 C1637 1.393 . S
C1641 C1640 1.391 . S
C1642 H1632 0.950 . S
C1642 C1643 1.386 . S
C1642 C1644 1.391 . S
C1643 C1642 1.386 . S
C1643 C1647 1.393 . S
C1644 H1633 0.950 . S
C1644 C1642 1.391 . S
C1644 C1645 1.400 . S
C1645 C1639 1.491 . S
C1645 C1644 1.400 . S
C1645 C1646 1.398 . S
C1646 H1634 0.950 . S
C1646 C1645 1.398 . S
C1646 C1647 1.391 . S
C1647 H1635 0.950 . S
C1647 C1643 1.393 . S
C1647 C1646 1.391 . S
H1648 C1656 0.950 . S
H1649 C1661 0.950 . S
H1650 C1658 0.950 . S
H1651 C1660 0.950 . S
H1652 C1662 0.950 . S
H1653 C1664 0.950 . S
H1654 C1666 0.950 . S
H1655 C1667 0.950 . S
C1656 H1648 0.950 . S
C1656 C1657 1.386 . S
C1656 C1658 1.391 . S
C1657 C1656 1.386 . S
C1657 C1661 1.393 . S
C1658 H1650 0.950 . S
C1658 C1656 1.391 . S
C1658 C1659 1.400 . S
C1659 C1658 1.400 . S
C1659 C1660 1.398 . S
C1659 C1665 1.491 . S
C1660 H1651 0.950 . S
C1660 C1659 1.398 . S
C1660 C1661 1.391 . S
C1661 H1649 0.950 . S
C1661 C1657 1.393 . S
C1661 C1660 1.391 . S
C1662 H1652 0.950 . S
C1662 C1663 1.386 . S
C1662 C1664 1.391 . S
C1663 C1662 1.386 . S
C1663 C1667 1.393 . S
C1664 H1653 0.950 . S
C1664 C1662 1.391 . S
C1664 C1665 1.400 . S
C1665 C1659 1.491 . S
C1665 C1664 1.400 . S
C1665 C1666 1.398 . S
C1666 H1654 0.950 . S
C1666 C1665 1.398 . S
C1666 C1667 1.391 . S
C1667 H1655 0.950 . S
C1667 C1663 1.393 . S
C1667 C1666 1.391 . S
H1668 C1676 0.950 . S
H1669 C1681 0.950 . S
H1670 C1678 0.950 . S
H1671 C1680 0.950 . S
H1672 C1682 0.950 . S
H1673 C1684 0.950 . S
H1674 C1686 0.950 . S
H1675 C1687 0.950 . S
C1676 H1668 0.950 . S
C1676 C1677 1.386 . S
C1676 C1678 1.391 . S
C1677 C1676 1.386 . S
C1677 C1681 1.393 . S
C1678 H1670 0.950 . S
C1678 C1676 1.391 . S
C1678 C1679 1.400 . S
C1679 C1678 1.400 . S
C1679 C1680 1.398 . S
C1679 C1685 1.491 . S
C1680 H1671 0.950 . S
C1680 C1679 1.398 . S
C1680 C1681 1.391 . S
C1681 H1669 0.950 . S
C1681 C1677 1.393 . S
C1681 C1680 1.391 . S
C1682 H1672 0.950 . S
C1682 C1683 1.386 . S
C1682 C1684 1.391 . S
C1683 C1682 1.386 . S
C1683 C1687 1.393 . S
C1684 H1673 0.950 . S
C1684 C1682 1.391 . S
C1684 C1685 1.400 . S
C1685 C1679 1.491 . S
C1685 C1684 1.400 . S
C1685 C1686 1.398 . S
C1686 H1674 0.950 . S
C1686 C1685 1.398 . S
C1686 C1687 1.391 . S
C1687 H1675 0.950 . S
C1687 C1683 1.393 . S
C1687 C1686 1.391 . S
H1688 C1696 0.950 . S
H1689 C1701 0.950 . S
H1690 C1698 0.950 . S
H1691 C1700 0.950 . S
H1692 C1702 0.950 . S
H1693 C1704 0.950 . S
H1694 C1706 0.950 . S
H1695 C1707 0.950 . S
C1696 H1688 0.950 . S
C1696 C1697 1.386 . S
C1696 C1698 1.391 . S
C1697 C1696 1.386 . S
C1697 C1701 1.393 . S
C1698 H1690 0.950 . S
C1698 C1696 1.391 . S
C1698 C1699 1.400 . S
C1699 C1698 1.400 . S
C1699 C1700 1.398 . S
C1699 C1705 1.491 . S
C1700 H1691 0.950 . S
C1700 C1699 1.398 . S
C1700 C1701 1.391 . S
C1701 H1689 0.950 . S
C1701 C1697 1.393 . S
C1701 C1700 1.391 . S
C1702 H1692 0.950 . S
C1702 C1703 1.386 . S
C1702 C1704 1.391 . S
C1703 C1702 1.386 . S
C1703 C1707 1.393 . S
C1704 H1693 0.950 . S
C1704 C1702 1.391 . S
C1704 C1705 1.400 . S
C1705 C1699 1.491 . S
C1705 C1704 1.400 . S
C1705 C1706 1.398 . S
C1706 H1694 0.950 . S
C1706 C1705 1.398 . S
C1706 C1707 1.391 . S
C1707 H1695 0.950 . S
C1707 C1703 1.393 . S
C1707 C1706 1.391 . S
H1708 C1716 0.950 . S
H1709 C1721 0.950 . S
H1710 C1718 0.950 . S
H1711 C1720 0.950 . S
H1712 C1722 0.950 . S
H1713 C1724 0.950 . S
H1714 C1726 0.950 . S
H1715 C1727 0.950 . S
C1716 H1708 0.950 . S
C1716 C1717 1.386 . S
C1716 C1718 1.391 . S
C1717 C1716 1.386 . S
C1717 C1721 1.393 . S
C1718 H1710 0.950 . S
C1718 C1716 1.391 . S
C1718 C1719 1.400 . S
C1719 C1718 1.400 . S
C1719 C1720 1.398 . S
C1719 C1725 1.491 . S
C1720 H1711 0.950 . S
C1720 C1719 1.398 . S
C1720 C1721 1.391 . S
C1721 H1709 0.950 . S
C1721 C1717 1.393 . S
C1721 C1720 1.391 . S
C1722 H1712 0.950 . S
C1722 C1723 1.386 . S
C1722 C1724 1.391 . S
C1723 C1722 1.386 . S
C1723 C1727 1.393 . S
C1724 H1713 0.950 . S
C1724 C1722 1.391 . S
C1724 C1725 1.400 . S
C1725 C1719 1.491 . S
C1725 C1724 1.400 . S
C1725 C1726 1.398 . S
C1726 H1714 0.950 . S
C1726 C1725 1.398 . S
C1726 C1727 1.391 . S
C1727 H1715 0.950 . S
C1727 C1723 1.393 . S
C1727 C1726 1.391 . S
C457 C7 1.137 . S
C463 C49 1.139 . S
C477 C35 1.146 . S
C483 C21 1.147 . S
C497 C63 1.150 . S
C503 C105 1.159 . S
C517 C91 1.129 . S
C523 C77 1.132 . S
C537 C119 1.132 . S
C543 C161 1.135 . S
C557 C147 1.135 . S
C563 C133 1.136 . S
C577 C175 1.136 . S
C583 C217 1.137 . S
C597 C189 1.107 . S
C603 C203 1.110 . S
C617 C273 1.130 . S
C623 C231 1.126 . S
C637 C245 1.132 . S
C643 C259 1.128 . S
C657 C287 1.108 . S
C663 C329 1.111 . S
C677 C315 1.119 . S
C683 C301 1.123 . S
C697 C343 1.145 . S
C703 C385 1.146 . S
C717 C371 1.133 . S
C723 C357 1.143 . S
C737 C399 1.155 . S
C743 C441 1.161 . S
C757 C413 1.132 . S
C763 C427 1.135 . S
C777 C176 1.525 . S
C783 C8 1.525 . S
C797 C22 1.524 . S
C803 C302 1.524 . S
C817 C36 1.514 . S
C823 C92 1.515 . S
C837 C442 1.514 . S
C843 C50 1.514 . S
C857 C64 1.526 . S
C863 C120 1.526 . S
C877 C246 1.526 . S
C883 C78 1.526 . S
C897 C386 1.515 . S
C903 C106 1.515 . S
C917 C414 1.525 . S
C923 C134 1.525 . S
C937 C204 1.516 . S
C943 C148 1.516 . S
C957 C330 1.514 . S
C963 C162 1.514 . S
C977 C190 1.526 . S
C983 C358 1.526 . S
C997 C274 1.516 . S
C1003 C218 1.516 . S
C1017 C400 1.525 . S
C1023 C232 1.525 . S
C1037 C316 1.515 . S
C1043 C260 1.515 . S
C1057 C344 1.524 . S
C1063 C288 1.524 . S
C1077 C372 1.513 . S
C1083 C428 1.513 . S
C1097 C143 1.376 . S
C1103 C3 1.363 . S
C1117 C17 1.367 . S
C1123 C157 1.360 . S
C1137 C115 1.340 . S
C1143 C31 1.344 . S
C1157 C129 1.368 . S
C1163 C45 1.366 . S
C1177 C59 1.363 . S
C1183 C199 1.376 . S
C1197 C73 1.359 . S
C1203 C213 1.363 . S
C1217 C171 1.370 . S
C1223 C87 1.365 . S
C1237 C101 1.369 . S
C1243 C185 1.365 . S
C1257 C367 1.354 . S
C1263 C227 1.337 . S
C1277 C381 1.369 . S
C1283 C241 1.365 . S
C1297 C255 1.373 . S
C1303 C339 1.361 . S
C1317 C269 1.373 . S
C1323 C353 1.361 . S
C1337 C283 1.341 . S
C1343 C423 1.337 . S
C1357 C297 1.341 . S
C1363 C437 1.336 . S
C1377 C395 1.367 . S
C1383 C311 1.360 . S
C1397 C409 1.369 . S
C1403 C325 1.383 . S
C1417 C9 1.455 . S
C1423 C359 1.453 . S
C1437 C345 1.464 . S
C1443 C23 1.465 1_655 S
C1457 C37 1.448 . S
C1463 C387 1.448 1_554 S
C1477 C51 1.440 1_654 S
C1483 C373 1.440 . S
C1497 C65 1.453 . S
C1503 C415 1.455 . S
C1517 C79 1.463 1_455 S
C1523 C401 1.462 . S
C1537 C443 1.447 1_556 S
C1543 C93 1.447 . S
C1557 C429 1.449 . S
C1563 C107 1.449 1_456 S
C1577 C247 1.463 . S
C1583 C121 1.464 . S
C1597 C233 1.454 . S
C1603 C135 1.455 1_655 S
C1617 C149 1.440 . S
C1623 C275 1.439 . S
C1637 C163 1.438 1_655 S
C1643 C261 1.438 . S
C1657 C303 1.463 . S
C1663 C177 1.464 . S
C1677 C191 1.463 1_455 S
C1683 C289 1.464 . S
C1697 C205 1.448 . S
C1703 C331 1.450 . S
C1717 C219 1.439 1_455 S
C1723 C317 1.440 . S
