# Generated by pormake.
# Topology bva, (3)-cn, num edge types: 1
# Building blocks:
#     Node 0, Type 0, BuildingBlock: OLANEW_clean_sbu_2, # of connection points: 3
#     Node 1, Type 0, BuildingBlock: OLANEW_clean_sbu_2, # of connection points: 3
#     Node 2, Type 0, BuildingBlock: OLANEW_clean_sbu_2, # of connection points: 3
#     Node 3, Type 0, BuildingBlock: OLANEW_clean_sbu_2, # of connection points: 3
#     Node 4, Type 0, BuildingBlock: OLANEW_clean_sbu_2, # of connection points: 3
#     Node 5, Type 0, BuildingBlock: OLANEW_clean_sbu_2, # of connection points: 3
#     Node 6, Type 0, BuildingBlock: OLANEW_clean_sbu_2, # of connection points: 3
#     Node 7, Type 0, BuildingBlock: OLANEW_clean_sbu_2, # of connection points: 3
#     Node 8, Type 0, BuildingBlock: OLANEW_clean_sbu_2, # of connection points: 3
#     Node 9, Type 0, BuildingBlock: OLANEW_clean_sbu_2, # of connection points: 3
#     Node 10, Type 0, BuildingBlock: OLANEW_clean_sbu_2, # of connection points: 3
#     Node 11, Type 0, BuildingBlock: OLANEW_clean_sbu_2, # of connection points: 3
#     Node 12, Type 0, BuildingBlock: OLANEW_clean_sbu_2, # of connection points: 3
#     Node 13, Type 0, BuildingBlock: OLANEW_clean_sbu_2, # of connection points: 3
#     Node 14, Type 0, BuildingBlock: OLANEW_clean_sbu_2, # of connection points: 3
#     Node 15, Type 0, BuildingBlock: OLANEW_clean_sbu_2, # of connection points: 3
#     Node 16, Type 0, BuildingBlock: OLANEW_clean_sbu_2, # of connection points: 3
#     Node 17, Type 0, BuildingBlock: OLANEW_clean_sbu_2, # of connection points: 3
#     Node 18, Type 0, BuildingBlock: OLANEW_clean_sbu_2, # of connection points: 3
#     Node 19, Type 0, BuildingBlock: OLANEW_clean_sbu_2, # of connection points: 3
#     Node 20, Type 0, BuildingBlock: OLANEW_clean_sbu_2, # of connection points: 3
#     Node 21, Type 0, BuildingBlock: OLANEW_clean_sbu_2, # of connection points: 3
#     Node 22, Type 0, BuildingBlock: OLANEW_clean_sbu_2, # of connection points: 3
#     Node 23, Type 0, BuildingBlock: OLANEW_clean_sbu_2, # of connection points: 3
#     Node 24, Type 0, BuildingBlock: OLANEW_clean_sbu_2, # of connection points: 3
#     Node 25, Type 0, BuildingBlock: OLANEW_clean_sbu_2, # of connection points: 3
#     Node 26, Type 0, BuildingBlock: OLANEW_clean_sbu_2, # of connection points: 3
#     Node 27, Type 0, BuildingBlock: OLANEW_clean_sbu_2, # of connection points: 3
#     Node 28, Type 0, BuildingBlock: OLANEW_clean_sbu_2, # of connection points: 3
#     Node 29, Type 0, BuildingBlock: OLANEW_clean_sbu_2, # of connection points: 3
#     Node 30, Type 0, BuildingBlock: OLANEW_clean_sbu_2, # of connection points: 3
#     Node 31, Type 0, BuildingBlock: OLANEW_clean_sbu_2, # of connection points: 3
#     Node 32, Type 0, BuildingBlock: OLANEW_clean_sbu_2, # of connection points: 3
#     Node 33, Type 0, BuildingBlock: OLANEW_clean_sbu_2, # of connection points: 3
#     Node 34, Type 0, BuildingBlock: OLANEW_clean_sbu_2, # of connection points: 3
#     Node 35, Type 0, BuildingBlock: OLANEW_clean_sbu_2, # of connection points: 3
#     Node 36, Type 0, BuildingBlock: OLANEW_clean_sbu_2, # of connection points: 3
#     Node 37, Type 0, BuildingBlock: OLANEW_clean_sbu_2, # of connection points: 3
#     Node 38, Type 0, BuildingBlock: OLANEW_clean_sbu_2, # of connection points: 3
#     Node 39, Type 0, BuildingBlock: OLANEW_clean_sbu_2, # of connection points: 3
#     Node 40, Type 0, BuildingBlock: OLANEW_clean_sbu_2, # of connection points: 3
#     Node 41, Type 0, BuildingBlock: OLANEW_clean_sbu_2, # of connection points: 3
#     Node 42, Type 0, BuildingBlock: OLANEW_clean_sbu_2, # of connection points: 3
#     Node 43, Type 0, BuildingBlock: OLANEW_clean_sbu_2, # of connection points: 3
#     Node 44, Type 0, BuildingBlock: OLANEW_clean_sbu_2, # of connection points: 3
#     Node 45, Type 0, BuildingBlock: OLANEW_clean_sbu_2, # of connection points: 3
#     Node 46, Type 0, BuildingBlock: OLANEW_clean_sbu_2, # of connection points: 3
#     Node 47, Type 0, BuildingBlock: OLANEW_clean_sbu_2, # of connection points: 3
#     Edge 48, Type (0, 0), BuildingBlock: KIFKEQ_clean_linker_1, # of connection points: 2
#     Edge 49, Type (0, 0), BuildingBlock: KIFKEQ_clean_linker_1, # of connection points: 2
#     Edge 50, Type (0, 0), BuildingBlock: KIFKEQ_clean_linker_1, # of connection points: 2
#     Edge 51, Type (0, 0), BuildingBlock: KIFKEQ_clean_linker_1, # of connection points: 2
#     Edge 52, Type (0, 0), BuildingBlock: KIFKEQ_clean_linker_1, # of connection points: 2
#     Edge 53, Type (0, 0), BuildingBlock: KIFKEQ_clean_linker_1, # of connection points: 2
#     Edge 54, Type (0, 0), BuildingBlock: KIFKEQ_clean_linker_1, # of connection points: 2
#     Edge 55, Type (0, 0), BuildingBlock: KIFKEQ_clean_linker_1, # of connection points: 2
#     Edge 56, Type (0, 0), BuildingBlock: KIFKEQ_clean_linker_1, # of connection points: 2
#     Edge 57, Type (0, 0), BuildingBlock: KIFKEQ_clean_linker_1, # of connection points: 2
#     Edge 58, Type (0, 0), BuildingBlock: KIFKEQ_clean_linker_1, # of connection points: 2
#     Edge 59, Type (0, 0), BuildingBlock: KIFKEQ_clean_linker_1, # of connection points: 2
#     Edge 60, Type (0, 0), BuildingBlock: KIFKEQ_clean_linker_1, # of connection points: 2
#     Edge 61, Type (0, 0), BuildingBlock: KIFKEQ_clean_linker_1, # of connection points: 2
#     Edge 62, Type (0, 0), BuildingBlock: KIFKEQ_clean_linker_1, # of connection points: 2
#     Edge 63, Type (0, 0), BuildingBlock: KIFKEQ_clean_linker_1, # of connection points: 2
#     Edge 64, Type (0, 0), BuildingBlock: KIFKEQ_clean_linker_1, # of connection points: 2
#     Edge 65, Type (0, 0), BuildingBlock: KIFKEQ_clean_linker_1, # of connection points: 2
#     Edge 66, Type (0, 0), BuildingBlock: KIFKEQ_clean_linker_1, # of connection points: 2
#     Edge 67, Type (0, 0), BuildingBlock: KIFKEQ_clean_linker_1, # of connection points: 2
#     Edge 68, Type (0, 0), BuildingBlock: KIFKEQ_clean_linker_1, # of connection points: 2
#     Edge 69, Type (0, 0), BuildingBlock: KIFKEQ_clean_linker_1, # of connection points: 2
#     Edge 70, Type (0, 0), BuildingBlock: KIFKEQ_clean_linker_1, # of connection points: 2
#     Edge 71, Type (0, 0), BuildingBlock: KIFKEQ_clean_linker_1, # of connection points: 2
#     Edge 72, Type (0, 0), BuildingBlock: KIFKEQ_clean_linker_1, # of connection points: 2
#     Edge 73, Type (0, 0), BuildingBlock: KIFKEQ_clean_linker_1, # of connection points: 2
#     Edge 74, Type (0, 0), BuildingBlock: KIFKEQ_clean_linker_1, # of connection points: 2
#     Edge 75, Type (0, 0), BuildingBlock: KIFKEQ_clean_linker_1, # of connection points: 2
#     Edge 76, Type (0, 0), BuildingBlock: KIFKEQ_clean_linker_1, # of connection points: 2
#     Edge 77, Type (0, 0), BuildingBlock: KIFKEQ_clean_linker_1, # of connection points: 2
#     Edge 78, Type (0, 0), BuildingBlock: KIFKEQ_clean_linker_1, # of connection points: 2
#     Edge 79, Type (0, 0), BuildingBlock: KIFKEQ_clean_linker_1, # of connection points: 2
#     Edge 80, Type (0, 0), BuildingBlock: KIFKEQ_clean_linker_1, # of connection points: 2
#     Edge 81, Type (0, 0), BuildingBlock: KIFKEQ_clean_linker_1, # of connection points: 2
#     Edge 82, Type (0, 0), BuildingBlock: KIFKEQ_clean_linker_1, # of connection points: 2
#     Edge 83, Type (0, 0), BuildingBlock: KIFKEQ_clean_linker_1, # of connection points: 2
#     Edge 84, Type (0, 0), BuildingBlock: KIFKEQ_clean_linker_1, # of connection points: 2
#     Edge 85, Type (0, 0), BuildingBlock: KIFKEQ_clean_linker_1, # of connection points: 2
#     Edge 86, Type (0, 0), BuildingBlock: KIFKEQ_clean_linker_1, # of connection points: 2
#     Edge 87, Type (0, 0), BuildingBlock: KIFKEQ_clean_linker_1, # of connection points: 2
#     Edge 88, Type (0, 0), BuildingBlock: KIFKEQ_clean_linker_1, # of connection points: 2
#     Edge 89, Type (0, 0), BuildingBlock: KIFKEQ_clean_linker_1, # of connection points: 2
#     Edge 90, Type (0, 0), BuildingBlock: KIFKEQ_clean_linker_1, # of connection points: 2
#     Edge 91, Type (0, 0), BuildingBlock: KIFKEQ_clean_linker_1, # of connection points: 2
#     Edge 92, Type (0, 0), BuildingBlock: KIFKEQ_clean_linker_1, # of connection points: 2
#     Edge 93, Type (0, 0), BuildingBlock: KIFKEQ_clean_linker_1, # of connection points: 2
#     Edge 94, Type (0, 0), BuildingBlock: KIFKEQ_clean_linker_1, # of connection points: 2
#     Edge 95, Type (0, 0), BuildingBlock: KIFKEQ_clean_linker_1, # of connection points: 2
#     Edge 96, Type (0, 0), BuildingBlock: KIFKEQ_clean_linker_1, # of connection points: 2
#     Edge 97, Type (0, 0), BuildingBlock: KIFKEQ_clean_linker_1, # of connection points: 2
#     Edge 98, Type (0, 0), BuildingBlock: KIFKEQ_clean_linker_1, # of connection points: 2
#     Edge 99, Type (0, 0), BuildingBlock: KIFKEQ_clean_linker_1, # of connection points: 2
#     Edge 100, Type (0, 0), BuildingBlock: KIFKEQ_clean_linker_1, # of connection points: 2
#     Edge 101, Type (0, 0), BuildingBlock: KIFKEQ_clean_linker_1, # of connection points: 2
#     Edge 102, Type (0, 0), BuildingBlock: KIFKEQ_clean_linker_1, # of connection points: 2
#     Edge 103, Type (0, 0), BuildingBlock: KIFKEQ_clean_linker_1, # of connection points: 2
#     Edge 104, Type (0, 0), BuildingBlock: KIFKEQ_clean_linker_1, # of connection points: 2
#     Edge 105, Type (0, 0), BuildingBlock: KIFKEQ_clean_linker_1, # of connection points: 2
#     Edge 106, Type (0, 0), BuildingBlock: KIFKEQ_clean_linker_1, # of connection points: 2
#     Edge 107, Type (0, 0), BuildingBlock: KIFKEQ_clean_linker_1, # of connection points: 2
#     Edge 108, Type (0, 0), BuildingBlock: KIFKEQ_clean_linker_1, # of connection points: 2
#     Edge 109, Type (0, 0), BuildingBlock: KIFKEQ_clean_linker_1, # of connection points: 2
#     Edge 110, Type (0, 0), BuildingBlock: KIFKEQ_clean_linker_1, # of connection points: 2
#     Edge 111, Type (0, 0), BuildingBlock: KIFKEQ_clean_linker_1, # of connection points: 2
#     Edge 112, Type (0, 0), BuildingBlock: KIFKEQ_clean_linker_1, # of connection points: 2
#     Edge 113, Type (0, 0), BuildingBlock: KIFKEQ_clean_linker_1, # of connection points: 2
#     Edge 114, Type (0, 0), BuildingBlock: KIFKEQ_clean_linker_1, # of connection points: 2
#     Edge 115, Type (0, 0), BuildingBlock: KIFKEQ_clean_linker_1, # of connection points: 2
#     Edge 116, Type (0, 0), BuildingBlock: KIFKEQ_clean_linker_1, # of connection points: 2
#     Edge 117, Type (0, 0), BuildingBlock: KIFKEQ_clean_linker_1, # of connection points: 2
#     Edge 118, Type (0, 0), BuildingBlock: KIFKEQ_clean_linker_1, # of connection points: 2
#     Edge 119, Type (0, 0), BuildingBlock: KIFKEQ_clean_linker_1, # of connection points: 2
# Relax obj value: 0.051
# Max RMSD: 0.071
# Mean RMSD: 0.037
data_MOF--net-bva--node1-OLANEW_clean_sbu_2--edge1-KIFKEQ_clean_linker_1
_symmetry_space_group_name_H-M    P1
_symmetry_Int_Tables_number       1
_symmetry_cell_setting            triclinic
loop_
_symmetry_equiv_pos_as_xyz
'x, y, z'
_cell_length_a     62.324847
_cell_length_b     63.29561
_cell_length_c     63.208987
_cell_angle_alpha  104.05822
_cell_angle_beta   90.0051
_cell_angle_gamma 90.00332
loop_
_atom_site_label
_atom_site_type_symbol
_atom_site_fract_x
_atom_site_fract_y
_atom_site_fract_z
_atom_type_partial_charge
O0 O 0.22189 0.24772 0.5088 0.0
Cd1 Cd 0.22749 0.20893 0.49251 0.0
O2 O 0.19181 0.24421 0.52578 0.0
Cd3 Cd 0.18868 0.21027 0.50772 0.0
O4 O 0.17613 0.18532 0.48035 0.0
C5 C 0.17855 0.18862 0.46144 0.0
O6 O 0.18937 0.20585 0.45945 0.0
C7 C 0.20685 0.25618 0.5217 0.0
C8 C 0.26873 0.20343 0.47485 0.0
O9 O 0.2525 0.20565 0.46312 0.0
O10 O 0.26539 0.20326 0.49481 0.0
O11 O 0.25895 0.47031 0.7563 0.0
Cd12 Cd 0.29559 0.47152 0.77026 0.0
O13 O 0.26546 0.48592 0.72942 0.0
Cd14 Cd 0.29823 0.49543 0.73993 0.0
O15 O 0.3251 0.51822 0.74802 0.0
C16 C 0.32408 0.53489 0.74019 0.0
O17 O 0.30761 0.53689 0.72784 0.0
C18 C 0.25251 0.47654 0.73972 0.0
C19 C 0.29935 0.44002 0.79427 0.0
O20 O 0.29417 0.45968 0.80354 0.0
O21 O 0.30326 0.43539 0.77375 0.0
O22 O 0.76215 0.94175 0.57439 0.0
Cd23 Cd 0.77077 0.97951 0.57517 0.0
O24 O 0.72976 0.94472 0.56169 0.0
Cd25 Cd 0.6986 0.93075 0.5498 0.0
O26 O 0.66916 0.91313 0.53785 0.0
C27 C 0.66643 0.8938 0.53985 0.0
O28 O 0.68143 0.88477 0.54932 0.0
C29 C 0.74442 0.93307 0.5671 0.0
C30 C 0.80148 0.97823 0.54279 0.0
O31 O 0.80708 0.97925 0.56253 0.0
O32 O 0.78139 0.97863 0.53857 0.0
O33 O 0.63183 0.4943 0.77539 0.0
Cd34 Cd 0.59423 0.50417 0.77284 0.0
O35 O 0.62789 0.46547 0.78881 0.0
Cd36 Cd 0.59303 0.46247 0.78593 0.0
O37 O 0.56563 0.44033 0.78318 0.0
C38 C 0.56358 0.43029 0.79821 0.0
O39 O 0.5769 0.4349 0.81482 0.0
C40 C 0.63995 0.47911 0.78277 0.0
C41 C 0.59195 0.54941 0.78777 0.0
O42 O 0.58714 0.53701 0.80036 0.0
O43 O 0.59708 0.54045 0.768 0.0
O44 O 0.21429 0.74523 0.48841 0.0
Cd45 Cd 0.21786 0.78445 0.50376 0.0
O46 O 0.184 0.74648 0.47094 0.0
Cd47 Cd 0.1796 0.78037 0.48866 0.0
O48 O 0.17017 0.80446 0.51818 0.0
C49 C 0.17353 0.79911 0.53602 0.0
O50 O 0.183 0.78042 0.53541 0.0
C51 C 0.19971 0.73559 0.47553 0.0
C52 C 0.26027 0.79338 0.51699 0.0
O53 O 0.24604 0.78957 0.53023 0.0
O54 O 0.25432 0.79348 0.4976 0.0
O55 O 0.63792 0.52745 0.24001 0.0
Cd56 Cd 0.59945 0.51995 0.23849 0.0
O57 O 0.63509 0.56294 0.24454 0.0
Cd58 Cd 0.60021 0.56508 0.24732 0.0
O59 O 0.57102 0.58478 0.2525 0.0
C60 C 0.5681 0.59737 0.23986 0.0
O61 O 0.58186 0.59673 0.22396 0.0
C62 C 0.64666 0.54597 0.24199 0.0
C63 C 0.59358 0.47858 0.21104 0.0
O64 O 0.59363 0.49562 0.20347 0.0
O65 O 0.59565 0.48117 0.23169 0.0
O66 O 0.76129 0.05337 0.4429 0.0
Cd67 Cd 0.77046 0.01591 0.4429 0.0
O68 O 0.73166 0.05134 0.46108 0.0
Cd69 Cd 0.70186 0.06522 0.47695 0.0
O70 O 0.67309 0.08248 0.49159 0.0
C71 C 0.66861 0.1009 0.48802 0.0
O72 O 0.6814 0.10906 0.47551 0.0
C73 C 0.74468 0.06248 0.45269 0.0
C74 C 0.80349 0.01784 0.47307 0.0
O75 O 0.8076 0.01623 0.45287 0.0
O76 O 0.78378 0.01779 0.47883 0.0
O77 O 0.25681 0.54583 0.25566 0.0
Cd78 Cd 0.29335 0.54707 0.24207 0.0
O79 O 0.2616 0.52076 0.27404 0.0
Cd80 Cd 0.29441 0.51231 0.26292 0.0
O81 O 0.32054 0.48883 0.25327 0.0
C82 C 0.32057 0.47295 0.26233 0.0
O83 O 0.30572 0.47227 0.27691 0.0
C84 C 0.24954 0.53446 0.2681 0.0
C85 C 0.29536 0.58162 0.22178 0.0
O86 O 0.29116 0.56222 0.21081 0.0
O87 O 0.29922 0.58455 0.2422 0.0
O88 O 0.46653 0.30383 0.24035 0.0
Cd89 Cd 0.4494 0.30937 0.20731 0.0
O90 O 0.4785 0.2711 0.22455 0.0
Cd91 Cd 0.45987 0.26702 0.19462 0.0
O92 O 0.43813 0.24123 0.17791 0.0
C93 C 0.44179 0.22311 0.18257 0.0
O94 O 0.45801 0.22182 0.19549 0.0
C95 C 0.47733 0.28702 0.24122 0.0
C96 C 0.42172 0.34511 0.21733 0.0
O97 O 0.41503 0.32586 0.21687 0.0
O98 O 0.44151 0.34746 0.21286 0.0
O99 O 0.49711 0.76221 0.59273 0.0
Cd100 Cd 0.49001 0.78386 0.56628 0.0
O101 O 0.46677 0.74397 0.58707 0.0
Cd102 Cd 0.45384 0.76056 0.56338 0.0
O103 O 0.4261 0.77237 0.54856 0.0
C104 C 0.4141 0.78633 0.56092 0.0
O105 O 0.4198 0.79402 0.58136 0.0
C106 C 0.48462 0.74791 0.59697 0.0
C107 C 0.52105 0.81647 0.57183 0.0
O108 O 0.5235 0.79839 0.5576 0.0
O109 O 0.50364 0.81936 0.58296 0.0
O110 O 0.4145 0.82824 0.28411 0.0
Cd111 Cd 0.40796 0.833 0.24751 0.0
O112 O 0.4284 0.79627 0.26959 0.0
Cd113 Cd 0.44284 0.76449 0.26844 0.0
O114 O 0.4592 0.73305 0.26164 0.0
C115 C 0.46848 0.72623 0.27661 0.0
O116 O 0.46792 0.73826 0.29672 0.0
C117 C 0.42371 0.81106 0.28651 0.0
C118 C 0.44226 0.85546 0.23496 0.0
O119 O 0.42605 0.86564 0.24503 0.0
O120 O 0.4421 0.8346 0.23051 0.0
O121 O 0.48971 0.20705 0.60374 0.0
Cd122 Cd 0.49703 0.20524 0.56533 0.0
O123 O 0.46552 0.1815 0.5935 0.0
Cd124 Cd 0.43914 0.16023 0.59831 0.0
O125 O 0.4138 0.13822 0.60368 0.0
C126 C 0.39427 0.14415 0.6045 0.0
O127 O 0.38958 0.16366 0.60207 0.0
C128 C 0.47557 0.19463 0.60872 0.0
C129 C 0.53459 0.18251 0.5503 0.0
O130 O 0.5349 0.20312 0.55854 0.0
O131 O 0.51652 0.17264 0.54931 0.0
O132 O 0.47753 0.69273 0.74245 0.0
Cd133 Cd 0.4651 0.68847 0.77788 0.0
O134 O 0.48995 0.72586 0.75553 0.0
Cd135 Cd 0.47566 0.73046 0.78782 0.0
O136 O 0.45479 0.75472 0.80839 0.0
C137 C 0.45762 0.77388 0.80596 0.0
O138 O 0.47298 0.77714 0.79285 0.0
C139 C 0.48728 0.70945 0.73956 0.0
C140 C 0.43472 0.65517 0.7725 0.0
O141 O 0.42905 0.67495 0.77406 0.0
O142 O 0.45478 0.65115 0.77371 0.0
O143 O 0.47759 0.79671 0.44497 0.0
Cd144 Cd 0.48629 0.79653 0.48271 0.0
O145 O 0.45142 0.81995 0.45623 0.0
Cd146 Cd 0.42351 0.83883 0.45023 0.0
O147 O 0.39757 0.85706 0.43944 0.0
C148 C 0.39005 0.8505 0.42026 0.0
O149 O 0.39779 0.8326 0.40746 0.0
C150 C 0.46244 0.80845 0.44069 0.0
C151 C 0.52554 0.81681 0.49575 0.0
O152 O 0.52456 0.79638 0.48672 0.0
O153 O 0.50795 0.82762 0.49868 0.0
O154 O 0.43525 0.18421 0.77062 0.0
Cd155 Cd 0.43035 0.17996 0.80775 0.0
O156 O 0.44987 0.21638 0.78263 0.0
Cd157 Cd 0.46431 0.24747 0.78071 0.0
O158 O 0.4817 0.27807 0.78364 0.0
C159 C 0.47374 0.29415 0.7776 0.0
O160 O 0.45443 0.29238 0.769 0.0
C161 C 0.44415 0.20092 0.76669 0.0
C162 C 0.45924 0.14892 0.81533 0.0
O163 O 0.44064 0.14334 0.80722 0.0
O164 O 0.46401 0.16923 0.82024 0.0
O165 O 0.50556 0.22594 0.38077 0.0
Cd166 Cd 0.50246 0.20297 0.40658 0.0
O167 O 0.47462 0.24256 0.38937 0.0
Cd168 Cd 0.46366 0.2242 0.41244 0.0
O169 O 0.43441 0.21392 0.42621 0.0
C170 C 0.4174 0.22063 0.41885 0.0
O171 O 0.41923 0.23235 0.4044 0.0
C172 C 0.49183 0.23998 0.37826 0.0
C173 C 0.5331 0.16992 0.39619 0.0
O174 O 0.51419 0.16721 0.388 0.0
O175 O 0.53737 0.18811 0.40963 0.0
O176 O 0.07922 0.5197 0.27435 0.0
Cd177 Cd 0.04468 0.50111 0.27124 0.0
O178 O 0.08562 0.50765 0.30334 0.0
Cd179 Cd 0.10419 0.4989 0.32937 0.0
O180 O 0.11797 0.49018 0.35786 0.0
C181 C 0.13397 0.50035 0.36793 0.0
O182 O 0.14261 0.51626 0.3608 0.0
C183 C 0.09205 0.51773 0.28938 0.0
C184 C 0.04772 0.46436 0.23653 0.0
O185 O 0.03973 0.48218 0.23381 0.0
O186 O 0.05368 0.46375 0.25577 0.0
O187 O 0.0847 0.48477 0.73804 0.0
Cd188 Cd 0.04902 0.49986 0.74791 0.0
O189 O 0.08484 0.49796 0.70899 0.0
Cd190 Cd 0.09938 0.5041 0.67954 0.0
O191 O 0.11278 0.51022 0.64965 0.0
C192 C 0.12922 0.49995 0.64069 0.0
O193 O 0.13826 0.48553 0.6497 0.0
C194 C 0.09449 0.4881 0.72152 0.0
C195 C 0.05379 0.53797 0.78084 0.0
O196 O 0.05111 0.51951 0.78543 0.0
O197 O 0.05367 0.53848 0.76069 0.0
O198 O 0.77102 0.76199 0.52226 0.0
Cd199 Cd 0.78187 0.72408 0.50886 0.0
O200 O 0.73936 0.75951 0.50649 0.0
Cd201 Cd 0.74561 0.72651 0.48705 0.0
O202 O 0.75119 0.69936 0.45873 0.0
C203 C 0.77017 0.69456 0.45186 0.0
O204 O 0.78633 0.70548 0.46262 0.0
C205 C 0.75328 0.77066 0.51915 0.0
C206 C 0.81226 0.71591 0.53822 0.0
O207 O 0.818 0.72221 0.52127 0.0
O208 O 0.79222 0.71272 0.54081 0.0
O209 O 0.81083 0.46572 0.80557 0.0
Cd210 Cd 0.84772 0.4529 0.8058 0.0
O211 O 0.80924 0.44609 0.77194 0.0
Cd212 Cd 0.79301 0.42934 0.74182 0.0
O213 O 0.77906 0.40961 0.71179 0.0
C214 C 0.78222 0.41437 0.69363 0.0
O215 O 0.79375 0.43164 0.69317 0.0
C216 C 0.80004 0.45852 0.78827 0.0
C217 C 0.84853 0.41865 0.82637 0.0
O218 O 0.85326 0.43808 0.83685 0.0
O219 O 0.84386 0.41536 0.80609 0.0
O220 O 0.20734 0.42819 0.54961 0.0
Cd221 Cd 0.20245 0.46609 0.54862 0.0
O222 O 0.17882 0.43032 0.57031 0.0
Cd223 Cd 0.15555 0.41781 0.59013 0.0
O224 O 0.13258 0.40533 0.61016 0.0
C225 C 0.13413 0.41035 0.63083 0.0
O226 O 0.14975 0.42328 0.64008 0.0
C227 C 0.1941 0.41911 0.55987 0.0
C228 C 0.18798 0.46894 0.50766 0.0
O229 O 0.20808 0.46907 0.51197 0.0
O230 O 0.17473 0.46746 0.52275 0.0
O231 O 0.80741 0.55204 0.18845 0.0
Cd232 Cd 0.84196 0.5597 0.17373 0.0
O233 O 0.81712 0.57091 0.22086 0.0
Cd234 Cd 0.81342 0.58514 0.25588 0.0
O235 O 0.80914 0.60283 0.28986 0.0
C236 C 0.79438 0.59775 0.3016 0.0
O237 O 0.7816 0.58136 0.29313 0.0
C238 C 0.80291 0.55994 0.20841 0.0
C239 C 0.83734 0.59389 0.15332 0.0
O240 O 0.83508 0.57405 0.14259 0.0
O241 O 0.84209 0.59752 0.17361 0.0
O242 O 0.76575 0.23421 0.48274 0.0
Cd243 Cd 0.77542 0.27273 0.49264 0.0
O244 O 0.73463 0.23728 0.4996 0.0
Cd245 Cd 0.74038 0.27149 0.51544 0.0
O246 O 0.74791 0.30074 0.54079 0.0
C247 C 0.7348 0.30675 0.5565 0.0
O248 O 0.71688 0.29578 0.55634 0.0
C249 C 0.74852 0.22557 0.4874 0.0
C250 C 0.80459 0.27952 0.46151 0.0
O251 O 0.81107 0.27494 0.47912 0.0
O252 O 0.78435 0.28155 0.45897 0.0
O253 O 0.20726 0.56522 0.4567 0.0
Cd254 Cd 0.20404 0.52772 0.45956 0.0
O255 O 0.18097 0.56009 0.4329 0.0
Cd256 Cd 0.15991 0.57047 0.40966 0.0
O257 O 0.14116 0.58274 0.38601 0.0
C258 C 0.14555 0.60148 0.38322 0.0
O259 O 0.16118 0.61274 0.39463 0.0
C260 C 0.19477 0.57266 0.44437 0.0
C261 C 0.18791 0.52567 0.50015 0.0
O262 O 0.20818 0.52622 0.49685 0.0
O263 O 0.1753 0.52623 0.48428 0.0
O264 O 0.05873 0.86167 0.7244 0.0
Cd265 Cd 0.07988 0.89094 0.71557 0.0
O266 O 0.03207 0.87126 0.70628 0.0
Cd267 Cd 0.99934 0.87195 0.69401 0.0
O268 O 0.96937 0.88164 0.68118 0.0
C269 C 0.95152 0.87247 0.68282 0.0
O270 O 0.95087 0.85623 0.69239 0.0
C271 C 0.03959 0.85867 0.71738 0.0
C272 C 0.10275 0.87583 0.67693 0.0
O273 O 0.11111 0.87575 0.69544 0.0
O274 O 0.08362 0.88323 0.67673 0.0
O275 O 0.64869 0.29099 0.05969 0.0
Cd276 Cd 0.61537 0.28975 0.07987 0.0
O277 O 0.66116 0.26179 0.06859 0.0
Cd278 Cd 0.63343 0.25425 0.08646 0.0
O279 O 0.62173 0.22727 0.09913 0.0
C280 C 0.63629 0.21787 0.10755 0.0
O281 O 0.65579 0.22599 0.10914 0.0
C282 C 0.66357 0.2771 0.05899 0.0
C283 C 0.60689 0.32961 0.10909 0.0
O284 O 0.61831 0.31504 0.11473 0.0
O285 O 0.5994 0.32528 0.08962 0.0
O286 O 0.98988 0.11104 0.59642 0.0
Cd287 Cd 0.99216 0.07455 0.57229 0.0
O288 O 0.97596 0.09904 0.62327 0.0
Cd289 Cd 0.96607 0.06847 0.60124 0.0
O290 O 0.94171 0.0507 0.57911 0.0
C291 C 0.92289 0.05852 0.58255 0.0
O292 O 0.91982 0.07548 0.59899 0.0
C293 C 0.98404 0.11449 0.61625 0.0
C294 C 0.02939 0.05541 0.58369 0.0
O295 O 0.02984 0.06665 0.56934 0.0
O296 O 0.01121 0.05264 0.59211 0.0
O297 O 0.23673 0.7302 0.10384 0.0
Cd298 Cd 0.26362 0.74145 0.13266 0.0
O299 O 0.26081 0.71979 0.07797 0.0
Cd300 Cd 0.28596 0.73692 0.09949 0.0
O301 O 0.29943 0.7684 0.1163 0.0
C302 C 0.31518 0.77643 0.10815 0.0
O303 O 0.32433 0.76475 0.0904 0.0
C304 C 0.2413 0.72131 0.08405 0.0
C305 C 0.27323 0.70768 0.1525 0.0
O306 O 0.25871 0.72178 0.16027 0.0
O307 O 0.28329 0.7096 0.13538 0.0
O308 O 0.04049 0.12769 0.28921 0.0
Cd309 Cd 0.05858 0.09763 0.30001 0.0
O310 O 0.01021 0.11741 0.30109 0.0
Cd311 Cd 0.97554 0.11648 0.30632 0.0
O312 O 0.94324 0.10512 0.31135 0.0
C313 C 0.93556 0.08931 0.29696 0.0
O314 O 0.94697 0.08107 0.27941 0.0
C315 C 0.02045 0.13053 0.29242 0.0
C316 C 0.08676 0.11276 0.33469 0.0
O317 O 0.09316 0.10948 0.31488 0.0
O318 O 0.06705 0.10879 0.33807 0.0
O319 O 0.25463 0.29813 0.92581 0.0
Cd320 Cd 0.28486 0.29055 0.90035 0.0
O321 O 0.2445 0.26379 0.91823 0.0
Cd322 Cd 0.26997 0.25006 0.89525 0.0
O323 O 0.2868 0.22068 0.87784 0.0
C324 C 0.27656 0.20718 0.86313 0.0
O325 O 0.25715 0.21231 0.85796 0.0
C326 C 0.24178 0.28347 0.92868 0.0
C327 C 0.28977 0.32271 0.87728 0.0
O328 O 0.27825 0.30578 0.86972 0.0
O329 O 0.29897 0.32444 0.89576 0.0
O330 O 0.99542 0.89528 0.3948 0.0
Cd331 Cd 0.99399 0.93153 0.41946 0.0
O332 O 0.9645 0.89749 0.37867 0.0
Cd333 Cd 0.95434 0.92701 0.40225 0.0
O334 O 0.93144 0.94455 0.42635 0.0
C335 C 0.91237 0.9372 0.42414 0.0
O336 O 0.90801 0.92068 0.40761 0.0
C337 C 0.98173 0.88721 0.38014 0.0
C338 C 0.03273 0.95235 0.41538 0.0
O339 O 0.0305 0.94103 0.42953 0.0
O340 O 0.01645 0.95432 0.40362 0.0
O341 O 0.66022 0.75063 0.89896 0.0
Cd342 Cd 0.63014 0.75149 0.87424 0.0
O343 O 0.64348 0.772 0.92672 0.0
Cd344 Cd 0.6201 0.78266 0.90569 0.0
O345 O 0.60662 0.80314 0.88566 0.0
C346 C 0.60258 0.82295 0.89477 0.0
O347 O 0.6057 0.82993 0.91588 0.0
C348 C 0.65928 0.75971 0.91925 0.0
C349 C 0.61713 0.70918 0.85405 0.0
O350 O 0.6108 0.71852 0.87334 0.0
O351 O 0.62942 0.71989 0.84416 0.0
O352 O 0.59952 0.95599 0.75119 0.0
Cd353 Cd 0.57034 0.96068 0.77784 0.0
O354 O 0.6206 0.97957 0.7729 0.0
Cd355 Cd 0.59468 0.99209 0.79575 0.0
O356 O 0.5693 0.01573 0.80795 0.0
C357 C 0.57348 0.03526 0.80745 0.0
O358 O 0.59255 0.03972 0.80079 0.0
C359 C 0.61763 0.96544 0.75504 0.0
C360 C 0.57443 0.9312 0.80411 0.0
O361 O 0.58322 0.95006 0.80949 0.0
O362 O 0.56356 0.92633 0.78638 0.0
O363 O 0.73688 0.9885 0.30082 0.0
Cd364 Cd 0.7618 0.99224 0.33135 0.0
O365 O 0.71761 0.01464 0.32097 0.0
Cd366 Cd 0.69269 0.03969 0.32904 0.0
O367 O 0.66748 0.06383 0.33999 0.0
C368 C 0.64891 0.05771 0.34432 0.0
O369 O 0.64521 0.03681 0.34183 0.0
C370 C 0.72058 0.00088 0.30284 0.0
C371 C 0.79904 0.01402 0.3242 0.0
O372 O 0.7977 0.99321 0.31808 0.0
O373 O 0.78279 0.02454 0.33382 0.0
O374 O 0.30756 0.93564 0.82385 0.0
Cd375 Cd 0.3185 0.92716 0.85807 0.0
O376 O 0.31669 0.9697 0.8371 0.0
Cd377 Cd 0.31782 0.00452 0.83804 0.0
O378 O 0.31665 0.03975 0.84188 0.0
C379 C 0.31243 0.04802 0.82592 0.0
O380 O 0.30899 0.03504 0.80659 0.0
C381 C 0.3091 0.95496 0.8215 0.0
C382 C 0.34906 0.89404 0.85165 0.0
O383 O 0.32895 0.88965 0.85071 0.0
O384 O 0.35468 0.9141 0.85564 0.0
O385 O 0.25701 0.97288 0.31841 0.0
Cd386 Cd 0.24335 0.95969 0.34917 0.0
O387 O 0.23997 0.00423 0.32787 0.0
Cd388 Cd 0.221 0.9951 0.35335 0.0
O389 O 0.19271 0.98751 0.37062 0.0
C390 C 0.17716 0.0009 0.37361 0.0
O391 O 0.17913 0.01898 0.36705 0.0
C392 C 0.25297 0.99159 0.3153 0.0
C393 C 0.27465 0.93595 0.3651 0.0
O394 O 0.27309 0.95663 0.37237 0.0
O395 O 0.26135 0.92647 0.35036 0.0
O396 O 0.63623 0.01777 0.16023 0.0
Cd397 Cd 0.61503 0.0223 0.12917 0.0
O398 O 0.61076 0.99707 0.16768 0.0
Cd399 Cd 0.59257 0.97519 0.18292 0.0
O400 O 0.56649 0.95646 0.19246 0.0
C401 C 0.56945 0.93842 0.19748 0.0
O402 O 0.58904 0.93072 0.19739 0.0
C403 C 0.62893 0.00617 0.17241 0.0
C404 C 0.61762 0.06506 0.12512 0.0
O405 O 0.60247 0.05916 0.13614 0.0
O406 O 0.63134 0.05068 0.11588 0.0
O407 O 0.26019 0.00229 0.67538 0.0
Cd408 Cd 0.24768 0.01525 0.64412 0.0
O409 O 0.22802 0.99423 0.68547 0.0
Cd410 Cd 0.21046 0.00353 0.65918 0.0
O411 O 0.18312 0.01083 0.64043 0.0
C412 C 0.16556 0.01517 0.65081 0.0
O413 O 0.1652 0.01525 0.67162 0.0
C414 C 0.24821 0.99523 0.68844 0.0
C415 C 0.27807 0.04338 0.63341 0.0
O416 O 0.26288 0.05062 0.6469 0.0
O417 O 0.27871 0.02286 0.62477 0.0
O418 O 0.30243 0.05189 0.17728 0.0
Cd419 Cd 0.31153 0.06063 0.14269 0.0
O420 O 0.3173 0.01975 0.16585 0.0
Cd421 Cd 0.32397 0.98607 0.16707 0.0
O422 O 0.32715 0.95102 0.16379 0.0
C423 C 0.33177 0.93903 0.14513 0.0
O424 O 0.33486 0.94822 0.12884 0.0
C425 C 0.30731 0.03346 0.18061 0.0
C426 C 0.33976 0.09572 0.1478 0.0
O427 O 0.31942 0.09874 0.14902 0.0
O428 O 0.34672 0.07611 0.14423 0.0
O429 O 0.7508 0.95212 0.64423 0.0
Cd430 Cd 0.77883 0.94819 0.61661 0.0
O431 O 0.72712 0.94016 0.61849 0.0
Cd432 Cd 0.69557 0.92815 0.60586 0.0
O433 O 0.66352 0.91499 0.59723 0.0
C434 C 0.6524 0.90903 0.61161 0.0
O435 O 0.66049 0.91117 0.63121 0.0
C436 C 0.73153 0.9471 0.63865 0.0
C437 C 0.81625 0.93127 0.63014 0.0
O438 O 0.81306 0.95187 0.63422 0.0
O439 O 0.80176 0.91865 0.61953 0.0
O440 O 0.77854 0.75428 0.04156 0.0
Cd441 Cd 0.80958 0.75554 0.06553 0.0
O442 O 0.79999 0.74244 0.0138 0.0
Cd443 Cd 0.80924 0.73448 0.97938 0.0
O444 O 0.82503 0.72879 0.94764 0.0
C445 C 0.83956 0.7143 0.94304 0.0
O446 O 0.84413 0.70291 0.95728 0.0
C447 C 0.78132 0.74819 0.02106 0.0
C448 C 0.8136 0.71934 0.0831 0.0
O449 O 0.80289 0.73613 0.09301 0.0
O450 O 0.82215 0.71956 0.06471 0.0
O451 O 0.79665 0.27041 0.94964 0.0
Cd452 Cd 0.83019 0.26692 0.92907 0.0
O453 O 0.81737 0.27733 0.97837 0.0
Cd454 Cd 0.82657 0.28615 0.01282 0.0
O455 O 0.84233 0.29212 0.04457 0.0
C456 C 0.83857 0.2801 0.05759 0.0
O457 O 0.82447 0.26429 0.05201 0.0
C458 C 0.79857 0.27484 0.97026 0.0
C459 C 0.83494 0.29931 0.90649 0.0
O460 O 0.82762 0.28048 0.89693 0.0
O461 O 0.83995 0.30281 0.92671 0.0
O462 O 0.99961 0.27944 0.71461 0.0
Cd463 Cd 0.00594 0.31572 0.7381 0.0
O464 O 0.0186 0.26323 0.73541 0.0
Cd465 Cd 0.02631 0.29259 0.76035 0.0
O466 O 0.03714 0.30986 0.7927 0.0
C467 C 0.02383 0.3191 0.80725 0.0
O468 O 0.00343 0.31948 0.8021 0.0
C469 C 0.00728 0.26214 0.71845 0.0
C470 C 0.03317 0.33948 0.71758 0.0
O471 O 0.0128 0.33972 0.71488 0.0
O472 O 0.04066 0.32817 0.7302 0.0
O473 O 0.12915 0.70756 0.95431 0.0
Cd474 Cd 0.10069 0.71094 0.92868 0.0
O475 O 0.10786 0.68809 0.96962 0.0
Cd476 Cd 0.09816 0.66977 0.99329 0.0
O477 O 0.08675 0.66199 0.02313 0.0
C478 C 0.06745 0.66677 0.02883 0.0
O479 O 0.05516 0.67518 0.0161 0.0
C480 C 0.12583 0.69755 0.96917 0.0
C481 C 0.09108 0.67257 0.89776 0.0
O482 O 0.10551 0.68569 0.8941 0.0
O483 O 0.08144 0.67745 0.91622 0.0
O484 O 0.96974 0.72064 0.76238 0.0
Cd485 Cd 0.95333 0.68742 0.76821 0.0
O486 O 0.94685 0.71917 0.73587 0.0
Cd487 Cd 0.93205 0.72714 0.70741 0.0
O488 O 0.9117 0.72823 0.67959 0.0
C489 C 0.91674 0.71768 0.66045 0.0
O490 O 0.9348 0.70666 0.65747 0.0
C491 C 0.96253 0.72864 0.74721 0.0
C492 C 0.92844 0.6945 0.80595 0.0
O493 O 0.94853 0.6903 0.80638 0.0
O494 O 0.92014 0.69554 0.78767 0.0
O495 O 0.1176 0.30489 0.05134 0.0
Cd496 Cd 0.08289 0.30526 0.06949 0.0
O497 O 0.1012 0.32194 0.02981 0.0
Cd498 Cd 0.09647 0.33335 0.00015 0.0
O499 O 0.08735 0.33939 0.96884 0.0
C500 C 0.06799 0.33575 0.96274 0.0
O501 O 0.05447 0.32906 0.97568 0.0
C502 C 0.11814 0.3131 0.03489 0.0
C503 C 0.07681 0.33974 0.10586 0.0
O504 O 0.08366 0.32124 0.10793 0.0
O505 O 0.07321 0.34201 0.08657 0.0
O506 O 0.02206 0.72727 0.28235 0.0
Cd507 Cd 0.03337 0.69239 0.25893 0.0
O508 O 0.00907 0.73994 0.2555 0.0
Cd509 Cd 0.019 0.71196 0.22982 0.0
O510 O 0.03089 0.69491 0.19777 0.0
C511 C 0.01799 0.68547 0.18289 0.0
O512 O 0.99746 0.68495 0.18748 0.0
C513 C 0.01273 0.74234 0.27574 0.0
C514 C 0.05822 0.66971 0.28278 0.0
O515 O 0.06689 0.68265 0.27251 0.0
O516 O 0.03781 0.66726 0.28152 0.0
O517 O 0.96615 0.27046 0.23922 0.0
Cd518 Cd 0.95255 0.30425 0.23196 0.0
O519 O 0.94068 0.27314 0.26352 0.0
Cd520 Cd 0.92315 0.26571 0.29078 0.0
O521 O 0.9024 0.26514 0.31844 0.0
C522 C 0.90704 0.27669 0.3373 0.0
O523 O 0.92472 0.28836 0.33989 0.0
C524 C 0.95682 0.26295 0.25371 0.0
C525 C 0.9275 0.29766 0.19435 0.0
O526 O 0.94783 0.30049 0.19364 0.0
O527 O 0.91904 0.29774 0.21285 0.0
H528 H 0.07747 0.12305 0.37824 0.0
H529 H 0.1295 0.12197 0.33281 0.0
H530 H 0.10124 0.13918 0.40843 0.0
H531 H 0.15342 0.13766 0.36309 0.0
H532 H 0.17904 0.19276 0.41947 0.0
H533 H 0.15804 0.17248 0.38878 0.0
H534 H 0.13217 0.13248 0.42917 0.0
H535 H 0.15287 0.15315 0.46012 0.0
C536 C 0.09404 0.12604 0.37471 0.0
C537 C 0.10155 0.12136 0.35311 0.0
C538 C 0.10773 0.13514 0.39205 0.0
C539 C 0.12925 0.13976 0.38819 0.0
C540 C 0.13687 0.13459 0.3666 0.0
C541 C 0.12317 0.12551 0.34926 0.0
C542 C 0.16904 0.17951 0.42179 0.0
C543 C 0.16751 0.1747 0.44231 0.0
C544 C 0.15707 0.16778 0.40413 0.0
C545 C 0.14331 0.15092 0.40653 0.0
C546 C 0.14235 0.1456 0.42686 0.0
C547 C 0.15433 0.15736 0.44456 0.0
H548 H 0.31093 0.36161 0.89015 0.0
H549 H 0.27428 0.32249 0.83676 0.0
H550 H 0.31473 0.38988 0.87013 0.0
H551 H 0.2779 0.35085 0.81689 0.0
H552 H 0.29322 0.44498 0.83806 0.0
H553 H 0.29186 0.41654 0.85807 0.0
H554 H 0.30542 0.36803 0.79863 0.0
H555 H 0.30656 0.39641 0.77855 0.0
C556 C 0.30369 0.35903 0.87415 0.0
C557 C 0.29228 0.3398 0.86507 0.0
C558 C 0.30579 0.37528 0.86273 0.0
C559 C 0.29663 0.3726 0.84192 0.0
C560 C 0.28538 0.35329 0.83277 0.0
C561 C 0.28319 0.3371 0.84423 0.0
C562 C 0.29605 0.42827 0.82928 0.0
C563 C 0.29993 0.42296 0.80669 0.0
C564 C 0.29537 0.41198 0.84077 0.0
C565 C 0.29844 0.39002 0.82992 0.0
C566 C 0.3027 0.38477 0.8074 0.0
C567 C 0.30349 0.40106 0.79593 0.0
H568 H 0.91568 0.97107 0.46049 0.0
H569 H 0.87122 0.92288 0.42509 0.0
H570 H 0.88863 0.98358 0.48862 0.0
H571 H 0.8445 0.93497 0.45338 0.0
H572 H 0.79432 0.97108 0.499 0.0
H573 H 0.82077 0.96387 0.4698 0.0
H574 H 0.87168 0.97111 0.51747 0.0
H575 H 0.84521 0.97887 0.5467 0.0
C576 C 0.90012 0.96321 0.45867 0.0
C577 C 0.89565 0.94591 0.44059 0.0
C578 C 0.88464 0.97032 0.47486 0.0
C579 C 0.86438 0.96027 0.47336 0.0
C580 C 0.85979 0.94332 0.45498 0.0
C581 C 0.87521 0.93627 0.43879 0.0
C582 C 0.81116 0.97127 0.50326 0.0
C583 C 0.81765 0.97539 0.52517 0.0
C584 C 0.82634 0.96697 0.4865 0.0
C585 C 0.84837 0.96664 0.49124 0.0
C586 C 0.85487 0.97139 0.5132 0.0
C587 C 0.83968 0.97568 0.52998 0.0
H588 H 0.57129 0.57444 0.82325 0.0
H589 H 0.615 0.57828 0.77138 0.0
H590 H 0.57466 0.61358 0.83823 0.0
H591 H 0.61964 0.617 0.78699 0.0
H592 H 0.61527 0.68945 0.81062 0.0
H593 H 0.60623 0.65171 0.79371 0.0
H594 H 0.59762 0.63957 0.85768 0.0
H595 H 0.60521 0.67764 0.8743 0.0
C596 C 0.58166 0.58369 0.81509 0.0
C597 C 0.59286 0.57333 0.79615 0.0
C598 C 0.58379 0.60614 0.82378 0.0
C599 C 0.5976 0.61867 0.81403 0.0
C600 C 0.60853 0.60818 0.79483 0.0
C601 C 0.60599 0.58586 0.78589 0.0
C602 C 0.61125 0.67869 0.82099 0.0
C603 C 0.61097 0.68645 0.84376 0.0
C604 C 0.60621 0.65695 0.81133 0.0
C605 C 0.60132 0.64229 0.82423 0.0
C606 C 0.60086 0.65028 0.84707 0.0
C607 C 0.60539 0.67213 0.85668 0.0
H608 H 0.14401 0.86077 0.67216 0.0
H609 H 0.0883 0.87103 0.63519 0.0
H610 H 0.16289 0.84461 0.63833 0.0
H611 H 0.10698 0.85438 0.6014 0.0
H612 H 0.15166 0.83782 0.54317 0.0
H613 H 0.13617 0.85855 0.57743 0.0
H614 H 0.16098 0.81128 0.61027 0.0
H615 H 0.17685 0.79093 0.5763 0.0
C616 C 0.1358 0.85962 0.65681 0.0
C617 C 0.11461 0.86707 0.65637 0.0
C618 C 0.1466 0.85026 0.63742 0.0
C619 C 0.13642 0.84808 0.61714 0.0
C620 C 0.1154 0.85604 0.61671 0.0
C621 C 0.10463 0.86545 0.6361 0.0
C622 C 0.15399 0.83199 0.55776 0.0
C623 C 0.16541 0.81266 0.55697 0.0
C624 C 0.14499 0.8438 0.57736 0.0
C625 C 0.14724 0.83653 0.59659 0.0
C626 C 0.15916 0.81752 0.59586 0.0
C627 C 0.16815 0.80575 0.57631 0.0
H628 H 0.58143 0.3628 0.10287 0.0
H629 H 0.62321 0.34467 0.1501 0.0
H630 H 0.57564 0.3983 0.12784 0.0
H631 H 0.61792 0.38032 0.17477 0.0
H632 H 0.59351 0.46774 0.16647 0.0
H633 H 0.59508 0.43145 0.14222 0.0
H634 H 0.59221 0.40314 0.19787 0.0
H635 H 0.59126 0.4395 0.22217 0.0
C636 C 0.58939 0.36639 0.11858 0.0
C637 C 0.60283 0.35093 0.12447 0.0
C638 C 0.58616 0.38679 0.13285 0.0
C639 C 0.59635 0.39223 0.15332 0.0
C640 C 0.60955 0.37661 0.15929 0.0
C641 C 0.61271 0.35619 0.14507 0.0
C642 C 0.59302 0.45377 0.17353 0.0
C643 C 0.5924 0.45652 0.19626 0.0
C644 C 0.59381 0.43293 0.1596 0.0
C645 C 0.59391 0.41433 0.16807 0.0
C646 C 0.59256 0.4171 0.1908 0.0
C647 C 0.59186 0.43795 0.20474 0.0
H648 H 0.92342 0.02395 0.54664 0.0
H649 H 0.88182 0.07363 0.58446 0.0
H650 H 0.8943 0.01149 0.52081 0.0
H651 H 0.85304 0.06159 0.55844 0.0
H652 H 0.79962 0.02561 0.51733 0.0
H653 H 0.82818 0.03262 0.54442 0.0
H654 H 0.87535 0.02449 0.49297 0.0
H655 H 0.8468 0.01678 0.46584 0.0
C656 C 0.90806 0.03215 0.54949 0.0
C657 C 0.90499 0.04985 0.56755 0.0
C658 C 0.8914 0.02508 0.53461 0.0
C659 C 0.87134 0.03558 0.53746 0.0
C660 C 0.86816 0.05292 0.55586 0.0
C661 C 0.88476 0.05993 0.57073 0.0
C662 C 0.81609 0.02517 0.51178 0.0
C663 C 0.82093 0.0208 0.48943 0.0
C664 C 0.83246 0.02933 0.52732 0.0
C665 C 0.85406 0.02931 0.52089 0.0
C666 C 0.85892 0.0244 0.4985 0.0
C667 C 0.84253 0.02017 0.48294 0.0
H668 H 0.29855 0.62496 0.24165 0.0
H669 H 0.29038 0.58043 0.17849 0.0
H670 H 0.29473 0.65573 0.22499 0.0
H671 H 0.28645 0.61124 0.16189 0.0
H672 H 0.29959 0.67268 0.13738 0.0
H673 H 0.3068 0.64246 0.15416 0.0
H674 H 0.26486 0.6715 0.20771 0.0
H675 H 0.25772 0.70173 0.19106 0.0
C676 C 0.29611 0.62173 0.2242 0.0
C677 C 0.29469 0.60024 0.21141 0.0
C678 C 0.29379 0.63936 0.21468 0.0
C679 C 0.29017 0.63591 0.19215 0.0
C680 C 0.28939 0.61443 0.17927 0.0
C681 C 0.29155 0.59678 0.1888 0.0
C682 C 0.29198 0.67266 0.15278 0.0
C683 C 0.27805 0.6896 0.16287 0.0
C684 C 0.29604 0.6553 0.16232 0.0
C685 C 0.28642 0.65461 0.18226 0.0
C686 C 0.27272 0.67169 0.19247 0.0
C687 C 0.26852 0.68895 0.18286 0.0
H688 H 0.33015 0.13921 0.1582 0.0
H689 H 0.38341 0.09429 0.14383 0.0
H690 H 0.35512 0.16978 0.16461 0.0
H691 H 0.40831 0.12482 0.14971 0.0
H692 H 0.44585 0.18286 0.19037 0.0
H693 H 0.42134 0.15226 0.18032 0.0
H694 H 0.38071 0.18939 0.14732 0.0
H695 H 0.40515 0.22041 0.15786 0.0
C696 C 0.34717 0.13586 0.15621 0.0
C697 C 0.3548 0.11431 0.15068 0.0
C698 C 0.36148 0.15339 0.15973 0.0
C699 C 0.38373 0.14977 0.15775 0.0
C700 C 0.39129 0.1282 0.15171 0.0
C701 C 0.377 0.11068 0.14826 0.0
C702 C 0.43177 0.18452 0.18085 0.0
C703 C 0.42743 0.20413 0.17498 0.0
C704 C 0.41776 0.16687 0.17496 0.0
C705 C 0.39905 0.16833 0.16299 0.0
C706 C 0.39487 0.18782 0.15676 0.0
C707 C 0.40893 0.20554 0.16267 0.0
H708 H 0.62669 0.89054 0.63719 0.0
H709 H 0.62999 0.90417 0.57354 0.0
H710 H 0.59324 0.87063 0.62687 0.0
H711 H 0.59656 0.884 0.56323 0.0
H712 H 0.55778 0.81726 0.54839 0.0
H713 H 0.5881 0.84219 0.55813 0.0
H714 H 0.55411 0.87758 0.61522 0.0
H715 H 0.52372 0.85266 0.60565 0.0
C716 C 0.62024 0.8894 0.62104 0.0
C717 C 0.63125 0.89853 0.60599 0.0
C718 C 0.60105 0.87808 0.61518 0.0
C719 C 0.59255 0.87556 0.59414 0.0
C720 C 0.60309 0.88533 0.57936 0.0
C721 C 0.62219 0.89682 0.58527 0.0
C722 C 0.55663 0.83053 0.56285 0.0
C723 C 0.53839 0.83293 0.5763 0.0
C724 C 0.57392 0.84487 0.56832 0.0
C725 C 0.57337 0.86179 0.58736 0.0
C726 C 0.55493 0.86458 0.60049 0.0
C727 C 0.53754 0.85037 0.59494 0.0
H728 H 0.52696 0.94867 0.19647 0.0
H729 H 0.56989 0.9003 0.21072 0.0
H730 H 0.49634 0.92835 0.20491 0.0
H731 H 0.53919 0.88022 0.21971 0.0
H732 H 0.47821 0.83862 0.21217 0.0
H733 H 0.50891 0.8585 0.20286 0.0
H734 H 0.47916 0.91931 0.23565 0.0
H735 H 0.44828 0.89949 0.24447 0.0
C736 C 0.52989 0.93376 0.20153 0.0
C737 C 0.5509 0.92613 0.20294 0.0
C738 C 0.51231 0.92216 0.20649 0.0
C739 C 0.51529 0.90268 0.21305 0.0
C740 C 0.53631 0.89502 0.21444 0.0
C741 C 0.55392 0.90661 0.20942 0.0
C742 C 0.4782 0.85624 0.21733 0.0
C743 C 0.46078 0.86748 0.22902 0.0
C744 C 0.49587 0.86762 0.21212 0.0
C745 C 0.49652 0.8905 0.21852 0.0
C746 C 0.47906 0.90171 0.23018 0.0
C747 C 0.46139 0.89034 0.23534 0.0
H748 H 0.31248 0.03284 0.60603 0.0
H749 H 0.28118 0.08747 0.6494 0.0
H750 H 0.34022 0.05714 0.59841 0.0
H751 H 0.30912 0.11168 0.64207 0.0
H752 H 0.35104 0.15177 0.60702 0.0
H753 H 0.32271 0.12737 0.61315 0.0
H754 H 0.37019 0.07868 0.61687 0.0
H755 H 0.3985 0.1029 0.61034 0.0
C756 C 0.31151 0.05003 0.61394 0.0
C757 C 0.29461 0.05821 0.62833 0.0
C758 C 0.32749 0.06393 0.60967 0.0
C759 C 0.32693 0.08635 0.61967 0.0
C760 C 0.3099 0.09455 0.63389 0.0
C761 C 0.29394 0.08064 0.63818 0.0
C762 C 0.35545 0.13585 0.60911 0.0
C763 C 0.37705 0.1293 0.60819 0.0
C764 C 0.3392 0.1219 0.61274 0.0
C765 C 0.34418 0.10108 0.61551 0.0
C766 C 0.36578 0.0945 0.61451 0.0
C767 C 0.38203 0.10845 0.6109 0.0
H768 H 0.45934 0.81591 0.80254 0.0
H769 H 0.42232 0.77258 0.83163 0.0
H770 H 0.43351 0.84479 0.81574 0.0
H771 H 0.3966 0.80183 0.8454 0.0
H772 H 0.34229 0.85007 0.83909 0.0
H773 H 0.36918 0.82129 0.83061 0.0
H774 H 0.41947 0.86945 0.84767 0.0
H775 H 0.3926 0.89825 0.85557 0.0
C776 C 0.44583 0.81262 0.81203 0.0
C777 C 0.44284 0.79188 0.81591 0.0
C778 C 0.43106 0.82927 0.81974 0.0
C779 C 0.41293 0.82565 0.83161 0.0
C780 C 0.41024 0.80507 0.83605 0.0
C781 C 0.42505 0.78835 0.82829 0.0
C782 C 0.35909 0.85451 0.84115 0.0
C783 C 0.36531 0.87647 0.84781 0.0
C784 C 0.37451 0.83798 0.83644 0.0
C785 C 0.39651 0.84305 0.83837 0.0
C786 C 0.40268 0.86499 0.84566 0.0
C787 C 0.38727 0.88151 0.85027 0.0
H788 H 0.37356 0.84322 0.37906 0.0
H789 H 0.36802 0.88604 0.44345 0.0
H790 H 0.34588 0.86394 0.3658 0.0
H791 H 0.33992 0.90642 0.43033 0.0
H792 H 0.30679 0.95169 0.39411 0.0
H793 H 0.33468 0.9311 0.40727 0.0
H794 H 0.30798 0.87115 0.36838 0.0
H795 H 0.28045 0.8918 0.35478 0.0
C796 C 0.36633 0.85696 0.39043 0.0
C797 C 0.373 0.86296 0.41232 0.0
C798 C 0.35036 0.86879 0.38285 0.0
C799 C 0.34061 0.88685 0.397 0.0
C800 C 0.34727 0.8928 0.41891 0.0
C801 C 0.36331 0.88103 0.42647 0.0
C802 C 0.30686 0.93411 0.38837 0.0
C803 C 0.2914 0.92339 0.37337 0.0
C804 C 0.32279 0.92229 0.39602 0.0
C805 C 0.3236 0.89945 0.38891 0.0
C806 C 0.30805 0.88874 0.37396 0.0
C807 C 0.29217 0.90057 0.36626 0.0
H808 H 0.5772 0.07767 0.80559 0.0
H809 H 0.53188 0.0316 0.82035 0.0
H810 H 0.54918 0.10506 0.81034 0.0
H811 H 0.50382 0.05934 0.82572 0.0
H812 H 0.45556 0.10463 0.80216 0.0
H813 H 0.48297 0.0775 0.80325 0.0
H814 H 0.52609 0.1285 0.836 0.0
H815 H 0.49887 0.15569 0.83433 0.0
C816 C 0.56131 0.07346 0.81016 0.0
C817 C 0.55676 0.05238 0.81243 0.0
C818 C 0.54524 0.08926 0.81305 0.0
C819 C 0.52419 0.08442 0.81837 0.0
C820 C 0.51978 0.06352 0.82132 0.0
C821 C 0.53589 0.04766 0.81837 0.0
C822 C 0.47082 0.11004 0.80978 0.0
C823 C 0.4751 0.13233 0.81797 0.0
C824 C 0.48651 0.09446 0.81054 0.0
C825 C 0.50681 0.1008 0.81959 0.0
C826 C 0.51077 0.12306 0.82856 0.0
C827 C 0.49512 0.13865 0.8277 0.0
H828 H 0.57477 0.17128 0.40997 0.0
H829 H 0.52909 0.13 0.36771 0.0
H830 H 0.60257 0.14385 0.39811 0.0
H831 H 0.55699 0.10275 0.35559 0.0
H832 H 0.60754 0.05004 0.35483 0.0
H833 H 0.57948 0.07675 0.36837 0.0
H834 H 0.62339 0.12871 0.36521 0.0
H835 H 0.65156 0.10207 0.35204 0.0
C836 C 0.57064 0.15634 0.39819 0.0
C837 C 0.54972 0.15285 0.38976 0.0
C838 C 0.58661 0.14068 0.39129 0.0
C839 C 0.58203 0.12116 0.37582 0.0
C840 C 0.561 0.11751 0.36768 0.0
C841 C 0.54503 0.13318 0.37456 0.0
C842 C 0.61123 0.06716 0.35704 0.0
C843 C 0.6318 0.07391 0.35235 0.0
C844 C 0.5951 0.08246 0.3647 0.0
C845 C 0.5992 0.10486 0.36789 0.0
C846 C 0.61979 0.1116 0.36322 0.0
C847 C 0.6359 0.0963 0.35553 0.0
H848 H 0.03022 0.45749 0.1958 0.0
H849 H 0.07247 0.42846 0.23496 0.0
H850 H 0.03661 0.42699 0.16457 0.0
H851 H 0.0797 0.39846 0.20355 0.0
H852 H 0.07377 0.33757 0.14837 0.0
H853 H 0.06553 0.36701 0.18003 0.0
H854 H 0.0631 0.41232 0.13871 0.0
H855 H 0.07035 0.38264 0.10699 0.0
C856 C 0.04092 0.4446 0.19771 0.0
C857 C 0.05083 0.44537 0.21783 0.0
C858 C 0.04475 0.42718 0.17975 0.0
C859 C 0.05882 0.41025 0.1814 0.0
C860 C 0.06852 0.41097 0.20167 0.0
C861 C 0.06446 0.42825 0.2197 0.0
C862 C 0.07149 0.35384 0.14609 0.0
C863 C 0.07268 0.35779 0.12519 0.0
C864 C 0.06686 0.37077 0.16427 0.0
C865 C 0.06359 0.39212 0.16202 0.0
C866 C 0.06506 0.39605 0.14108 0.0
C867 C 0.06941 0.37906 0.12287 0.0
H868 H 0.05605 0.5419 0.82484 0.0
H869 H 0.0607 0.57925 0.77616 0.0
H870 H 0.06482 0.57435 0.85322 0.0
H871 H 0.06907 0.61178 0.80459 0.0
H872 H 0.10844 0.65815 0.85711 0.0
H873 H 0.09864 0.62579 0.82914 0.0
H874 H 0.0507 0.60982 0.87214 0.0
H875 H 0.06078 0.64201 0.9003 0.0
C876 C 0.05874 0.55707 0.82021 0.0
C877 C 0.05775 0.55796 0.79822 0.0
C878 C 0.06368 0.5757 0.8365 0.0
C879 C 0.06775 0.59564 0.83116 0.0
C880 C 0.06636 0.5966 0.80921 0.0
C881 C 0.06141 0.57798 0.79293 0.0
C882 C 0.09584 0.64772 0.86064 0.0
C883 C 0.0854 0.65266 0.88095 0.0
C884 C 0.09011 0.62925 0.84453 0.0
C885 C 0.07381 0.61527 0.84836 0.0
C886 C 0.06347 0.62013 0.86874 0.0
C887 C 0.06919 0.63863 0.88485 0.0
H888 H 0.80448 0.70628 0.57736 0.0
H889 H 0.85584 0.72086 0.53719 0.0
H890 H 0.83012 0.70584 0.60637 0.0
H891 H 0.88145 0.72061 0.56636 0.0
H892 H 0.92323 0.69826 0.61727 0.0
H893 H 0.89825 0.6962 0.58705 0.0
H894 H 0.85188 0.73357 0.63164 0.0
H895 H 0.87667 0.73548 0.66183 0.0
C896 C 0.82126 0.70923 0.57464 0.0
C897 C 0.82811 0.7137 0.55499 0.0
C898 C 0.83592 0.70913 0.59133 0.0
C899 C 0.85777 0.71339 0.58872 0.0
C900 C 0.86474 0.71714 0.5688 0.0
C901 C 0.85005 0.71735 0.55213 0.0
C902 C 0.90772 0.70606 0.62062 0.0
C903 C 0.90194 0.71701 0.64197 0.0
C904 C 0.89345 0.70494 0.60329 0.0
C905 C 0.87306 0.71461 0.60699 0.0
C906 C 0.86735 0.72566 0.62832 0.0
C907 C 0.88163 0.72689 0.6456 0.0
H908 H 0.83857 0.34305 0.92359 0.0
H909 H 0.83721 0.2944 0.86246 0.0
H910 H 0.84213 0.37154 0.90402 0.0
H911 H 0.84201 0.3227 0.84278 0.0
H912 H 0.82784 0.37977 0.81302 0.0
H913 H 0.82465 0.35103 0.83232 0.0
H914 H 0.86523 0.38782 0.8838 0.0
H915 H 0.86732 0.41706 0.86496 0.0
C916 C 0.83929 0.33844 0.90594 0.0
C917 C 0.83754 0.31652 0.89455 0.0
C918 C 0.84151 0.35477 0.89468 0.0
C919 C 0.84244 0.34953 0.87173 0.0
C920 C 0.84094 0.32749 0.8604 0.0
C921 C 0.83833 0.3112 0.87167 0.0
C922 C 0.83613 0.38165 0.82843 0.0
C923 C 0.84777 0.40067 0.83752 0.0
C924 C 0.83442 0.36509 0.83948 0.0
C925 C 0.84465 0.367 0.85972 0.0
C926 C 0.85672 0.3859 0.86852 0.0
C927 C 0.85809 0.40263 0.85764 0.0
H928 H 0.09928 0.38454 0.61686 0.0
H929 H 0.13424 0.41576 0.67517 0.0
H930 H 0.07467 0.36872 0.6387 0.0
H931 H 0.10943 0.39998 0.69702 0.0
H932 H 0.07666 0.3445 0.72204 0.0
H933 H 0.10066 0.36289 0.70176 0.0
H934 H 0.04642 0.38005 0.66681 0.0
H935 H 0.02242 0.36156 0.68694 0.0
C936 C 0.10167 0.38812 0.63435 0.0
C937 C 0.11879 0.40133 0.64425 0.0
C938 C 0.08747 0.37915 0.64687 0.0
C939 C 0.09012 0.38309 0.66957 0.0
C940 C 0.10713 0.39646 0.67953 0.0
C941 C 0.12127 0.40556 0.66701 0.0
C942 C 0.06984 0.35228 0.71011 0.0
C943 C 0.04764 0.35149 0.70605 0.0
C944 C 0.08358 0.36292 0.69859 0.0
C945 C 0.07543 0.37286 0.68266 0.0
C946 C 0.0532 0.37233 0.67882 0.0
C947 C 0.03945 0.36182 0.69043 0.0
H948 H 0.82772 0.59143 0.11055 0.0
H949 H 0.83965 0.63754 0.17207 0.0
H950 H 0.8215 0.62147 0.09334 0.0
H951 H 0.83376 0.66753 0.15477 0.0
H952 H 0.7987 0.71477 0.12242 0.0
H953 H 0.80433 0.68425 0.13903 0.0
H954 H 0.84097 0.65096 0.08278 0.0
H955 H 0.83508 0.68134 0.06599 0.0
C956 C 0.82913 0.60797 0.12038 0.0
C957 C 0.83417 0.61209 0.14269 0.0
C958 C 0.82566 0.62518 0.11049 0.0
C959 C 0.82708 0.64689 0.12269 0.0
C960 C 0.83224 0.65099 0.14498 0.0
C961 C 0.83576 0.6338 0.15486 0.0
C962 C 0.80789 0.70091 0.11354 0.0
C963 C 0.81646 0.7005 0.09288 0.0
C964 C 0.81123 0.68348 0.12314 0.0
C965 C 0.82318 0.66522 0.11227 0.0
C966 C 0.83152 0.66469 0.09149 0.0
C967 C 0.82823 0.68215 0.08191 0.0
H968 H 0.86788 0.25712 0.33675 0.0
H969 H 0.91291 0.29837 0.37996 0.0
H970 H 0.8434 0.25912 0.36723 0.0
H971 H 0.88825 0.30053 0.41041 0.0
H972 H 0.84837 0.27676 0.46229 0.0
H973 H 0.87333 0.2767 0.43252 0.0
H974 H 0.82042 0.28614 0.39164 0.0
H975 H 0.79543 0.28596 0.42127 0.0
C976 C 0.87256 0.26663 0.35274 0.0
C977 C 0.89236 0.27758 0.35591 0.0
C978 C 0.85845 0.2679 0.37017 0.0
C979 C 0.86385 0.28007 0.3912 0.0
C980 C 0.88371 0.29089 0.39443 0.0
C981 C 0.8978 0.28971 0.37696 0.0
C982 C 0.84208 0.27899 0.44701 0.0
C983 C 0.81991 0.28127 0.44412 0.0
C984 C 0.85639 0.27904 0.42998 0.0
C985 C 0.84882 0.28126 0.40969 0.0
C986 C 0.8267 0.28406 0.40698 0.0
C987 C 0.81241 0.28411 0.42402 0.0
H988 H 0.11394 0.58166 0.35521 0.0
H989 H 0.1491 0.64204 0.37579 0.0
H990 H 0.0933 0.59711 0.32978 0.0
H991 H 0.12824 0.65756 0.35071 0.0
H992 H 0.10167 0.6718 0.28877 0.0
H993 H 0.1231 0.65432 0.31194 0.0
H994 H 0.06586 0.6249 0.33063 0.0
H995 H 0.04445 0.64205 0.30715 0.0
C996 C 0.11723 0.59824 0.35436 0.0
C997 C 0.13314 0.61064 0.36757 0.0
C998 C 0.10534 0.60712 0.33985 0.0
C999 C 0.10911 0.62858 0.33822 0.0
C1000 C 0.12513 0.64088 0.35133 0.0
C1001 C 0.13701 0.63202 0.36582 0.0
C1002 C 0.09366 0.66151 0.29773 0.0
C1003 C 0.07134 0.65837 0.29616 0.0
C1004 C 0.10594 0.65159 0.3111 0.0
C1005 C 0.09618 0.63829 0.32322 0.0
C1006 C 0.0739 0.63485 0.32134 0.0
C1007 C 0.06161 0.64478 0.30797 0.0
H1008 H 0.37892 0.23504 0.40764 0.0
H1009 H 0.40711 0.19555 0.44732 0.0
H1010 H 0.34351 0.22847 0.42061 0.0
H1011 H 0.37135 0.18843 0.45995 0.0
H1012 H 0.30664 0.20501 0.49699 0.0
H1013 H 0.34278 0.20714 0.4829 0.0
H1014 H 0.31681 0.20095 0.41828 0.0
H1015 H 0.28067 0.1995 0.4325 0.0
C1016 C 0.37755 0.22476 0.419 0.0
C1017 C 0.39587 0.21586 0.42648 0.0
C1018 C 0.35717 0.22084 0.42632 0.0
C1019 C 0.35452 0.2078 0.44124 0.0
C1020 C 0.37283 0.19871 0.44861 0.0
C1021 C 0.39331 0.20271 0.44131 0.0
C1022 C 0.30867 0.20389 0.47973 0.0
C1023 C 0.29077 0.20232 0.4659 0.0
C1024 C 0.32942 0.20499 0.47163 0.0
C1025 C 0.33272 0.20444 0.44949 0.0
C1026 C 0.31484 0.2019 0.43551 0.0
C1027 C 0.29411 0.20094 0.44363 0.0
H1028 H 0.35926 0.53726 0.7668 0.0
H1029 H 0.32652 0.57156 0.72492 0.0
H1030 H 0.38597 0.56634 0.77559 0.0
H1031 H 0.35335 0.60026 0.73331 0.0
H1032 H 0.39115 0.65878 0.77029 0.0
H1033 H 0.36468 0.6296 0.76331 0.0
H1034 H 0.41535 0.58218 0.75917 0.0
H1035 H 0.44183 0.61145 0.76664 0.0
C1036 C 0.35782 0.55093 0.75938 0.0
C1037 C 0.34072 0.55211 0.74521 0.0
C1038 C 0.37318 0.56755 0.76435 0.0
C1039 C 0.37175 0.5857 0.75524 0.0
C1040 C 0.35474 0.58672 0.74092 0.0
C1041 C 0.33942 0.57016 0.73599 0.0
C1042 C 0.39665 0.64214 0.76799 0.0
C1043 C 0.41861 0.63744 0.76895 0.0
C1044 C 0.38148 0.62539 0.76385 0.0
C1045 C 0.38789 0.60353 0.76053 0.0
C1046 C 0.40984 0.59885 0.76186 0.0
C1047 C 0.42503 0.61563 0.76602 0.0
H1048 H 0.65528 0.85268 0.54233 0.0
H1049 H 0.63199 0.90802 0.52033 0.0
H1050 H 0.6215 0.83376 0.53141 0.0
H1051 H 0.59837 0.88896 0.50911 0.0
H1052 H 0.53266 0.85945 0.5164 0.0
H1053 H 0.56701 0.87751 0.52641 0.0
H1054 H 0.60002 0.81692 0.49955 0.0
H1055 H 0.56563 0.79873 0.48991 0.0
C1056 C 0.64305 0.86073 0.53498 0.0
C1057 C 0.64633 0.88188 0.53223 0.0
C1058 C 0.62371 0.84983 0.52861 0.0
C1059 C 0.60721 0.85986 0.51943 0.0
C1060 C 0.61064 0.88088 0.5164 0.0
C1061 C 0.62998 0.89176 0.52272 0.0
C1062 C 0.54723 0.84997 0.51261 0.0
C1063 C 0.5464 0.82767 0.50224 0.0
C1064 C 0.56694 0.86037 0.5182 0.0
C1065 C 0.58627 0.84871 0.51355 0.0
C1066 C 0.58542 0.82634 0.50346 0.0
C1067 C 0.56571 0.81594 0.49786 0.0
H1068 H 0.55547 0.40616 0.82767 0.0
H1069 H 0.53681 0.41312 0.76385 0.0
H1070 H 0.53264 0.37417 0.82302 0.0
H1071 H 0.51421 0.38077 0.75906 0.0
H1072 H 0.46174 0.33174 0.76653 0.0
H1073 H 0.48188 0.36578 0.7722 0.0
H1074 H 0.53372 0.33697 0.8009 0.0
H1075 H 0.51355 0.3032 0.7956 0.0
C1076 C 0.54641 0.40094 0.81268 0.0
C1077 C 0.5481 0.41212 0.79607 0.0
C1078 C 0.53343 0.38249 0.80996 0.0
C1079 C 0.52181 0.37475 0.79056 0.0
C1080 C 0.52286 0.38638 0.77425 0.0
C1081 C 0.53587 0.40488 0.77697 0.0
C1082 C 0.47743 0.33269 0.77406 0.0
C1083 C 0.486 0.31474 0.78065 0.0
C1084 C 0.489 0.35217 0.77723 0.0
C1085 C 0.50935 0.35414 0.78712 0.0
C1086 C 0.51793 0.33614 0.79359 0.0
C1087 C 0.50641 0.3167 0.7904 0.0
H1088 H 0.3839 0.81383 0.58397 0.0
H1089 H 0.39582 0.77062 0.52078 0.0
H1090 H 0.34714 0.81907 0.57309 0.0
H1091 H 0.35896 0.77558 0.51007 0.0
H1092 H 0.29458 0.79912 0.49192 0.0
H1093 H 0.33247 0.80105 0.502 0.0
H1094 H 0.31541 0.79587 0.5668 0.0
H1095 H 0.27761 0.79431 0.55687 0.0
C1096 C 0.37876 0.80562 0.56768 0.0
C1097 C 0.39274 0.79163 0.55332 0.0
C1098 C 0.35765 0.80853 0.5615 0.0
C1099 C 0.35005 0.79756 0.54081 0.0
C1100 C 0.36434 0.78441 0.52607 0.0
C1101 C 0.38546 0.78147 0.53226 0.0
C1102 C 0.29891 0.79865 0.50839 0.0
C1103 C 0.28308 0.79644 0.52356 0.0
C1104 C 0.32063 0.79965 0.51413 0.0
C1105 C 0.32698 0.79853 0.53517 0.0
C1106 C 0.31108 0.79705 0.55053 0.0
C1107 C 0.28939 0.796 0.54479 0.0
H1108 H 0.55818 0.62661 0.21599 0.0
H1109 H 0.53924 0.60597 0.27362 0.0
H1110 H 0.53236 0.65624 0.22478 0.0
H1111 H 0.51302 0.6355 0.2822 0.0
H1112 H 0.49197 0.70797 0.30416 0.0
H1113 H 0.514 0.67519 0.2947 0.0
H1114 H 0.49435 0.66467 0.22739 0.0
H1115 H 0.47266 0.69765 0.23674 0.0
C1116 C 0.54831 0.62821 0.2304 0.0
C1117 C 0.55088 0.61398 0.24417 0.0
C1118 C 0.53339 0.64515 0.23537 0.0
C1119 C 0.52067 0.6483 0.25424 0.0
C1120 C 0.52279 0.63369 0.2677 0.0
C1121 C 0.53771 0.61669 0.2627 0.0
C1122 C 0.49223 0.69859 0.28736 0.0
C1123 C 0.48069 0.70553 0.27118 0.0
C1124 C 0.50475 0.67971 0.28196 0.0
C1125 C 0.50601 0.66735 0.26026 0.0
C1126 C 0.49399 0.67399 0.2442 0.0
C1127 C 0.48148 0.69286 0.24959 0.0
H1128 H 0.63815 0.08815 0.51356 0.0
H1129 H 0.65509 0.14093 0.48434 0.0
H1130 H 0.6061 0.10798 0.52927 0.0
H1131 H 0.62285 0.16055 0.49974 0.0
H1132 H 0.57503 0.199 0.54929 0.0
H1133 H 0.60759 0.17933 0.53488 0.0
H1134 H 0.57154 0.1193 0.51746 0.0
H1135 H 0.53905 0.13889 0.53219 0.0
C1136 C 0.63503 0.10396 0.51045 0.0
C1137 C 0.64918 0.11294 0.49767 0.0
C1138 C 0.61659 0.11527 0.51936 0.0
C1139 C 0.6119 0.13583 0.51574 0.0
C1140 C 0.62613 0.14486 0.50306 0.0
C1141 C 0.64454 0.13354 0.49412 0.0
C1142 C 0.57406 0.1816 0.54245 0.0
C1143 C 0.55444 0.17052 0.54188 0.0
C1144 C 0.5927 0.17034 0.53407 0.0
C1145 C 0.59216 0.14775 0.52498 0.0
C1146 C 0.57256 0.13665 0.52458 0.0
C1147 C 0.55391 0.14791 0.53292 0.0
H1148 H 0.35184 0.46752 0.23087 0.0
H1149 H 0.32479 0.43753 0.27938 0.0
H1150 H 0.37641 0.43677 0.21947 0.0
H1151 H 0.34952 0.40715 0.26831 0.0
H1152 H 0.37904 0.34511 0.2271 0.0
H1153 H 0.35511 0.37631 0.2376 0.0
H1154 H 0.40741 0.41937 0.23186 0.0
H1155 H 0.43131 0.38807 0.22091 0.0
C1156 C 0.35124 0.45447 0.23921 0.0
C1157 C 0.33628 0.45495 0.25597 0.0
C1158 C 0.36537 0.43689 0.23274 0.0
C1159 C 0.36483 0.41941 0.24288 0.0
C1160 C 0.3501 0.42013 0.25987 0.0
C1161 C 0.33601 0.43765 0.26633 0.0
C1162 C 0.38544 0.36122 0.22801 0.0
C1163 C 0.4071 0.36409 0.22322 0.0
C1164 C 0.37175 0.37913 0.23417 0.0
C1165 C 0.37937 0.40037 0.23571 0.0
C1166 C 0.40097 0.40323 0.23064 0.0
C1167 C 0.4147 0.38528 0.22447 0.0
H1168 H 0.14649 0.47116 0.49441 0.0
H1169 H 0.21205 0.47282 0.47262 0.0
H1170 H 0.13384 0.47798 0.46018 0.0
H1171 H 0.19934 0.47944 0.43828 0.0
H1172 H 0.16828 0.51829 0.39298 0.0
H1173 H 0.18155 0.5094 0.42607 0.0
H1174 H 0.13208 0.46062 0.42081 0.0
H1175 H 0.11867 0.46956 0.38781 0.0
C1176 C 0.15819 0.47269 0.48221 0.0
C1177 C 0.18027 0.47144 0.48625 0.0
C1178 C 0.15094 0.47656 0.46257 0.0
C1179 C 0.16559 0.47929 0.44654 0.0
C1180 C 0.18766 0.47763 0.45041 0.0
C1181 C 0.19493 0.47368 0.47002 0.0
C1182 C 0.16027 0.50561 0.39882 0.0
C1183 C 0.1424 0.49465 0.38775 0.0
C1184 C 0.16795 0.50045 0.41774 0.0
C1185 C 0.15785 0.48431 0.42607 0.0
C1186 C 0.14006 0.47329 0.41493 0.0
C1187 C 0.13245 0.47836 0.39596 0.0
H1188 H 0.11422 0.52853 0.61796 0.0
H1189 H 0.16398 0.48078 0.61718 0.0
H1190 H 0.12857 0.53548 0.58443 0.0
H1191 H 0.17814 0.48756 0.58344 0.0
H1192 H 0.21054 0.5226 0.53635 0.0
H1193 H 0.19646 0.51664 0.57045 0.0
H1194 H 0.1319 0.51678 0.54563 0.0
H1195 H 0.14593 0.52294 0.51163 0.0
C1196 C 0.12819 0.51948 0.61063 0.0
C1197 C 0.13797 0.50412 0.62029 0.0
C1198 C 0.13635 0.52339 0.59134 0.0
C1199 C 0.1545 0.51208 0.58129 0.0
C1200 C 0.1643 0.49674 0.59095 0.0
C1201 C 0.15611 0.49278 0.61022 0.0
C1202 C 0.19334 0.52156 0.53824 0.0
C1203 C 0.17935 0.52334 0.52131 0.0
C1204 C 0.18528 0.51797 0.55771 0.0
C1205 C 0.16307 0.51621 0.56073 0.0
C1206 C 0.14908 0.51831 0.54391 0.0
C1207 C 0.15713 0.52181 0.52441 0.0
H1208 H 0.80864 0.67972 0.43333 0.0
H1209 H 0.74019 0.67245 0.42323 0.0
H1210 H 0.81487 0.65479 0.39792 0.0
H1211 H 0.74643 0.64795 0.38758 0.0
H1212 H 0.76505 0.59089 0.33151 0.0
H1213 H 0.75968 0.61247 0.36874 0.0
H1214 H 0.81112 0.65541 0.36016 0.0
H1215 H 0.81682 0.6336 0.32323 0.0
C1216 C 0.79491 0.67276 0.42359 0.0
C1217 C 0.77392 0.67818 0.43107 0.0
C1218 C 0.79849 0.65856 0.40322 0.0
C1219 C 0.78116 0.6495 0.3898 0.0
C1220 C 0.76015 0.65445 0.39756 0.0
C1221 C 0.75658 0.6686 0.41798 0.0
C1222 C 0.77528 0.60487 0.33761 0.0
C1223 C 0.79135 0.61052 0.32437 0.0
C1224 C 0.77213 0.61731 0.35892 0.0
C1225 C 0.78496 0.63569 0.36746 0.0
C1226 C 0.80116 0.64118 0.35425 0.0
C1227 C 0.80433 0.62874 0.33299 0.0
H1228 H 0.77173 0.3309 0.56345 0.0
H1229 H 0.71057 0.32299 0.59283 0.0
H1230 H 0.78206 0.35813 0.59624 0.0
H1231 H 0.72075 0.35051 0.62542 0.0
H1232 H 0.75826 0.37736 0.68899 0.0
H1233 H 0.74588 0.35292 0.6553 0.0
H1234 H 0.77442 0.39471 0.61822 0.0
H1235 H 0.78719 0.41903 0.65196 0.0
C1236 C 0.76038 0.33516 0.57679 0.0
C1237 C 0.74039 0.32465 0.57558 0.0
C1238 C 0.76626 0.35086 0.59555 0.0
C1239 C 0.75228 0.35639 0.61351 0.0
C1240 C 0.73203 0.34635 0.61201 0.0
C1241 C 0.72615 0.33066 0.59327 0.0
C1242 C 0.76182 0.38142 0.67368 0.0
C1243 C 0.77379 0.40012 0.67318 0.0
C1244 C 0.7546 0.36747 0.65435 0.0
C1245 C 0.75915 0.37186 0.63405 0.0
C1246 C 0.77085 0.39073 0.63357 0.0
C1247 C 0.77807 0.40472 0.65292 0.0
H1248 H 0.91057 0.85697 0.68375 0.0
H1249 H 0.94752 0.90616 0.66307 0.0
H1250 H 0.87782 0.87098 0.6709 0.0
H1251 H 0.9149 0.91988 0.64995 0.0
H1252 H 0.84994 0.9539 0.65239 0.0
H1253 H 0.8824 0.9393 0.66495 0.0
H1254 H 0.86002 0.87385 0.63705 0.0
H1255 H 0.82733 0.88846 0.62477 0.0
C1256 C 0.91173 0.87069 0.67637 0.0
C1257 C 0.93166 0.88048 0.6745 0.0
C1258 C 0.89298 0.87864 0.66891 0.0
C1259 C 0.89375 0.89659 0.65947 0.0
C1260 C 0.91371 0.90623 0.65744 0.0
C1261 C 0.93243 0.89827 0.66485 0.0
C1262 C 0.85193 0.93639 0.64892 0.0
C1263 C 0.83605 0.92234 0.63757 0.0
C1264 C 0.8706 0.92802 0.65602 0.0
C1265 C 0.87382 0.90541 0.65196 0.0
C1266 C 0.85792 0.89135 0.64065 0.0
C1267 C 0.83924 0.89973 0.6335 0.0
H1268 H 0.58942 0.09862 0.13981 0.0
H1269 H 0.65003 0.08309 0.10644 0.0
H1270 H 0.59308 0.13645 0.13741 0.0
H1271 H 0.65356 0.12071 0.10396 0.0
H1272 H 0.6648 0.19324 0.12379 0.0
H1273 H 0.65949 0.15684 0.12921 0.0
H1274 H 0.59345 0.158 0.10886 0.0
H1275 H 0.59866 0.19467 0.10355 0.0
C1276 C 0.60349 0.10326 0.13194 0.0
C1277 C 0.61946 0.08787 0.12335 0.0
C1278 C 0.60552 0.12488 0.1305 0.0
C1279 C 0.62366 0.13156 0.12063 0.0
C1280 C 0.63955 0.11613 0.11196 0.0
C1281 C 0.63746 0.09453 0.11325 0.0
C1282 C 0.64906 0.18587 0.12066 0.0
C1283 C 0.6322 0.19679 0.11305 0.0
C1284 C 0.64608 0.16495 0.12365 0.0
C1285 C 0.62614 0.15447 0.11919 0.0
C1286 C 0.60898 0.16571 0.11249 0.0
C1287 C 0.61199 0.18667 0.1094 0.0
H1288 H 0.07068 0.06254 0.57248 0.0
H1289 H 0.03339 0.02935 0.61217 0.0
H1290 H 0.10364 0.05169 0.58772 0.0
H1291 H 0.06634 0.01799 0.62696 0.0
H1292 H 0.12652 0.02703 0.66933 0.0
H1293 H 0.09393 0.0351 0.65173 0.0
H1294 H 0.1268 0.02157 0.5897 0.0
H1295 H 0.15973 0.01399 0.60749 0.0
C1296 C 0.06952 0.05264 0.58421 0.0
C1297 C 0.0494 0.04695 0.59123 0.0
C1298 C 0.08843 0.04633 0.59288 0.0
C1299 C 0.08766 0.03412 0.60872 0.0
C1300 C 0.06752 0.02776 0.61512 0.0
C1301 C 0.04862 0.03415 0.60653 0.0
C1302 C 0.12684 0.02574 0.65192 0.0
C1303 C 0.14576 0.01989 0.63983 0.0
C1304 C 0.10806 0.03021 0.64179 0.0
C1305 C 0.10767 0.02886 0.61926 0.0
C1306 C 0.12659 0.02297 0.60712 0.0
C1307 C 0.14544 0.01854 0.6173 0.0
H1308 H 0.29563 0.80669 0.14076 0.0
H1309 H 0.34796 0.79875 0.09465 0.0
H1310 H 0.30215 0.84575 0.15118 0.0
H1311 H 0.35488 0.83779 0.10553 0.0
H1312 H 0.33843 0.90904 0.10667 0.0
H1313 H 0.33704 0.8696 0.09989 0.0
H1314 H 0.32575 0.87499 0.16846 0.0
H1315 H 0.32658 0.91463 0.17517 0.0
C1316 C 0.3088 0.81321 0.13314 0.0
C1317 C 0.32111 0.79961 0.11668 0.0
C1318 C 0.31262 0.83564 0.13921 0.0
C1319 C 0.32891 0.84498 0.12903 0.0
C1320 C 0.34192 0.8312 0.11338 0.0
C1321 C 0.33805 0.80878 0.10724 0.0
C1322 C 0.3358 0.90185 0.12035 0.0
C1323 C 0.33246 0.91501 0.14144 0.0
C1324 C 0.33517 0.87918 0.11649 0.0
C1325 C 0.33128 0.86907 0.13363 0.0
C1326 C 0.32851 0.88224 0.15484 0.0
C1327 C 0.32908 0.90496 0.1587 0.0
H1328 H 0.90915 0.10044 0.33259 0.0
H1329 H 0.91486 0.05565 0.26926 0.0
H1330 H 0.87596 0.08258 0.33908 0.0
H1331 H 0.88149 0.03813 0.27556 0.0
H1332 H 0.83619 0.99612 0.30489 0.0
H1333 H 0.86862 0.01495 0.29822 0.0
H1334 H 0.83881 0.07684 0.32723 0.0
H1335 H 0.80647 0.05795 0.33433 0.0
C1336 C 0.90323 0.08693 0.31997 0.0
C1337 C 0.91472 0.07941 0.30045 0.0
C1338 C 0.88414 0.07675 0.32365 0.0
C1339 C 0.87612 0.05884 0.30789 0.0
C1340 C 0.88741 0.05163 0.2882 0.0
C1341 C 0.90648 0.06179 0.28453 0.0
C1342 C 0.83654 0.01374 0.30986 0.0
C1343 C 0.81874 0.02553 0.32015 0.0
C1344 C 0.85509 0.02456 0.3059 0.0
C1345 C 0.8563 0.04742 0.31211 0.0
C1346 C 0.8385 0.05921 0.32245 0.0
C1347 C 0.81992 0.04838 0.32642 0.0
H1348 H 0.31879 0.07919 0.8637 0.0
H1349 H 0.30113 0.07098 0.79607 0.0
H1350 H 0.31274 0.11821 0.87019 0.0
H1351 H 0.29542 0.11019 0.80252 0.0
H1352 H 0.25781 0.17409 0.83288 0.0
H1353 H 0.26903 0.13617 0.82209 0.0
H1354 H 0.32569 0.15177 0.86223 0.0
H1355 H 0.31426 0.18973 0.87339 0.0
C1356 C 0.31385 0.08573 0.85014 0.0
C1357 C 0.31028 0.07193 0.8294 0.0
C1358 C 0.31055 0.10816 0.85383 0.0
C1359 C 0.30357 0.11733 0.83688 0.0
C1360 C 0.30056 0.1036 0.81598 0.0
C1361 C 0.30391 0.08114 0.81227 0.0
C1362 C 0.27282 0.16953 0.8392 0.0
C1363 C 0.285 0.18491 0.85421 0.0
C1364 C 0.27932 0.14777 0.83289 0.0
C1365 C 0.29816 0.14089 0.84145 0.0
C1366 C 0.3109 0.15649 0.85563 0.0
C1367 C 0.30441 0.17827 0.86192 0.0
H1368 H 0.16685 0.96403 0.38681 0.0
H1369 H 0.1407 0.02559 0.38095 0.0
H1370 H 0.13199 0.95404 0.39895 0.0
H1371 H 0.10597 0.01574 0.39345 0.0
H1372 H 0.04245 0.97685 0.38655 0.0
H1373 H 0.0776 0.98992 0.37867 0.0
H1374 H 0.10582 0.96267 0.42858 0.0
H1375 H 0.07067 0.94925 0.43624 0.0
C1376 C 0.15375 0.97554 0.38836 0.0
C1377 C 0.15654 0.99554 0.38275 0.0
C1378 C 0.13378 0.96986 0.39545 0.0
C1379 C 0.11615 0.98405 0.39707 0.0
C1380 C 0.11913 0.00431 0.39207 0.0
C1381 C 0.13909 0.00999 0.38501 0.0
C1382 C 0.05611 0.9738 0.39599 0.0
C1383 C 0.05376 0.96191 0.41195 0.0
C1384 C 0.07626 0.9814 0.39154 0.0
C1385 C 0.09455 0.97728 0.40294 0.0
C1386 C 0.0921 0.96587 0.4193 0.0
C1387 C 0.07193 0.9583 0.42378 0.0
H1388 H 0.59817 0.8149 0.8504 0.0
H1389 H 0.59247 0.86602 0.90948 0.0
H1390 H 0.59024 0.84106 0.82881 0.0
H1391 H 0.58409 0.89204 0.88793 0.0
H1392 H 0.59747 0.93638 0.84181 0.0
H1393 H 0.60278 0.91004 0.86372 0.0
H1394 H 0.56233 0.86403 0.81959 0.0
H1395 H 0.55738 0.89025 0.79738 0.0
C1396 C 0.59498 0.83165 0.8588 0.0
C1397 C 0.59609 0.83838 0.88167 0.0
C1398 C 0.59033 0.84665 0.84642 0.0
C1399 C 0.58665 0.8687 0.85663 0.0
C1400 C 0.58721 0.87527 0.87953 0.0
C1401 C 0.59188 0.8603 0.89189 0.0
C1402 C 0.58965 0.92068 0.8368 0.0
C1403 C 0.57704 0.91541 0.81781 0.0
C1404 C 0.59258 0.90561 0.84945 0.0
C1405 C 0.58295 0.88491 0.84344 0.0
C1406 C 0.57018 0.87972 0.82454 0.0
C1407 C 0.56726 0.8948 0.81187 0.0
H1408 H 0.94157 0.69387 0.84703 0.0
H1409 H 0.88528 0.70236 0.81004 0.0
H1410 H 0.91973 0.69867 0.8798 0.0
H1411 H 0.86333 0.70671 0.84277 0.0
H1412 H 0.83571 0.73652 0.91106 0.0
H1413 H 0.85705 0.73195 0.87792 0.0
H1414 H 0.89223 0.67968 0.89506 0.0
H1415 H 0.87123 0.68454 0.92838 0.0
C1416 C 0.92452 0.69671 0.84587 0.0
C1417 C 0.91517 0.69773 0.82591 0.0
C1418 C 0.91197 0.69931 0.86464 0.0
C1419 C 0.88975 0.70297 0.8639 0.0
C1420 C 0.88042 0.70414 0.84396 0.0
C1421 C 0.89299 0.70155 0.82517 0.0
C1422 C 0.84795 0.72401 0.90772 0.0
C1423 C 0.85181 0.71095 0.92241 0.0
C1424 C 0.86013 0.72132 0.88867 0.0
C1425 C 0.87642 0.70551 0.88387 0.0
C1426 C 0.88005 0.69226 0.89843 0.0
C1427 C 0.8679 0.69495 0.91748 0.0
H1428 H 0.94064 0.29822 0.15326 0.0
H1429 H 0.88421 0.29057 0.19043 0.0
H1430 H 0.91867 0.29406 0.12062 0.0
H1431 H 0.86218 0.28673 0.15778 0.0
H1432 H 0.83472 0.25723 0.08901 0.0
H1433 H 0.85601 0.2613 0.12217 0.0
H1434 H 0.89106 0.31422 0.10617 0.0
H1435 H 0.87005 0.30997 0.0729 0.0
C1436 C 0.92354 0.29567 0.15448 0.0
C1437 C 0.91417 0.29474 0.17446 0.0
C1438 C 0.91093 0.29343 0.13579 0.0
C1439 C 0.88867 0.29017 0.13662 0.0
C1440 C 0.87932 0.28903 0.15656 0.0
C1441 C 0.89193 0.29133 0.17528 0.0
C1442 C 0.84692 0.26978 0.0926 0.0
C1443 C 0.85074 0.28322 0.07825 0.0
C1444 C 0.85905 0.27218 0.11166 0.0
C1445 C 0.8753 0.28801 0.11674 0.0
C1446 C 0.87889 0.30164 0.10255 0.0
C1447 C 0.86674 0.29929 0.08354 0.0
H1448 H 0.02897 0.32524 0.94349 0.0
H1449 H 0.09142 0.35021 0.9324 0.0
H1450 H 0.01853 0.32504 0.90639 0.0
H1451 H 0.08074 0.3506 0.89537 0.0
H1452 H 0.06391 0.3163 0.82383 0.0
H1453 H 0.0743 0.32376 0.86197 0.0
H1454 H 0.01016 0.34663 0.88101 0.0
H1455 H 0.99956 0.33854 0.84274 0.0
C1456 C 0.04038 0.331 0.93324 0.0
C1457 C 0.0611 0.33754 0.94084 0.0
C1458 C 0.03432 0.33105 0.91198 0.0
C1459 C 0.04881 0.33775 0.89785 0.0
C1460 C 0.0693 0.34503 0.90572 0.0
C1461 C 0.07539 0.34489 0.92698 0.0
C1462 C 0.05207 0.32318 0.83612 0.0
C1463 C 0.03083 0.32658 0.83024 0.0
C1464 C 0.05808 0.3276 0.85803 0.0
C1465 C 0.04302 0.33563 0.8746 0.0
C1466 C 0.02205 0.34007 0.86867 0.0
C1467 C 0.01601 0.33557 0.84672 0.0
H1468 H 0.99452 0.66602 0.14681 0.0
H1469 H 0.05868 0.68754 0.16741 0.0
H1470 H 0.00624 0.65724 0.10886 0.0
H1471 H 0.07023 0.67929 0.12955 0.0
H1472 H 0.08905 0.65141 0.05978 0.0
H1473 H 0.07698 0.65153 0.09653 0.0
H1474 H 0.01614 0.67859 0.0835 0.0
H1475 H 0.02797 0.67798 0.04671 0.0
C1476 C 0.01116 0.66869 0.14328 0.0
C1477 C 0.02561 0.67769 0.16013 0.0
C1478 C 0.01785 0.66377 0.12151 0.0
C1479 C 0.03912 0.66775 0.11614 0.0
C1480 C 0.05378 0.6758 0.13308 0.0
C1481 C 0.04712 0.68067 0.15483 0.0
C1482 C 0.073 0.65712 0.06468 0.0
C1483 C 0.05954 0.66485 0.05037 0.0
C1484 C 0.06612 0.65728 0.08578 0.0
C1485 C 0.04564 0.66519 0.09302 0.0
C1486 C 0.03191 0.67214 0.0784 0.0
C1487 C 0.03877 0.67194 0.05732 0.0
H1488 H 0.16221 0.38902 0.55726 0.0
H1489 H 0.23106 0.39624 0.559 0.0
H1490 H 0.16611 0.34971 0.55111 0.0
H1491 H 0.23512 0.35694 0.55339 0.0
H1492 H 0.23336 0.28674 0.51185 0.0
H1493 H 0.23062 0.32606 0.52403 0.0
H1494 H 0.17665 0.31929 0.56483 0.0
H1495 H 0.17894 0.27975 0.55197 0.0
C1496 C 0.17817 0.38225 0.55708 0.0
C1497 C 0.19633 0.39568 0.55886 0.0
C1498 C 0.18044 0.35967 0.55347 0.0
C1499 C 0.20095 0.35006 0.55164 0.0
C1500 C 0.21909 0.36369 0.55429 0.0
C1501 C 0.2168 0.38622 0.55765 0.0
C1502 C 0.22101 0.29359 0.52357 0.0
C1503 C 0.20629 0.28007 0.53083 0.0
C1504 C 0.21952 0.31621 0.5307 0.0
C1505 C 0.20339 0.32593 0.54544 0.0
C1506 C 0.18907 0.31238 0.55323 0.0
C1507 C 0.19046 0.2897 0.54596 0.0
H1508 H 0.12628 0.5112 0.70802 0.0
H1509 H 0.11435 0.45234 0.72909 0.0
H1510 H 0.16466 0.50474 0.70859 0.0
H1511 H 0.15294 0.44553 0.72936 0.0
H1512 H 0.21956 0.4624 0.76124 0.0
H1513 H 0.18155 0.46179 0.75271 0.0
H1514 H 0.19551 0.48363 0.69448 0.0
H1515 H 0.23363 0.48493 0.70345 0.0
C1516 C 0.13185 0.49639 0.71191 0.0
C1517 C 0.11734 0.48214 0.71827 0.0
C1518 C 0.15392 0.49271 0.71235 0.0
C1519 C 0.16197 0.47468 0.71919 0.0
C1520 C 0.14732 0.45979 0.72441 0.0
C1521 C 0.12524 0.46359 0.72413 0.0
C1522 C 0.21458 0.46685 0.74648 0.0
C1523 C 0.22964 0.47395 0.73316 0.0
C1524 C 0.19274 0.46633 0.74147 0.0
C1525 C 0.18539 0.47273 0.72292 0.0
C1526 C 0.20056 0.47892 0.70908 0.0
C1527 C 0.22243 0.47958 0.71418 0.0
H1528 H 0.72596 0.90556 0.53214 0.0
H1529 H 0.75837 0.90697 0.59278 0.0
H1530 H 0.72544 0.86601 0.52346 0.0
H1531 H 0.75772 0.86714 0.58427 0.0
H1532 H 0.78089 0.79962 0.54445 0.0
H1533 H 0.77599 0.83855 0.55864 0.0
H1534 H 0.71175 0.83355 0.53212 0.0
H1535 H 0.7169 0.79453 0.51732 0.0
C1536 C 0.73224 0.8974 0.54401 0.0
C1537 C 0.74177 0.90931 0.56335 0.0
C1538 C 0.73207 0.87468 0.53899 0.0
C1539 C 0.7415 0.86335 0.55318 0.0
C1540 C 0.7505 0.87534 0.57288 0.0
C1541 C 0.75078 0.89812 0.57783 0.0
C1542 C 0.76563 0.80674 0.54179 0.0
C1543 C 0.74937 0.79397 0.52952 0.0
C1544 C 0.76275 0.82909 0.55011 0.0
C1545 C 0.7435 0.83923 0.54646 0.0
C1546 C 0.7269 0.82631 0.53494 0.0
C1547 C 0.72982 0.80393 0.52652 0.0
H1548 H 0.77186 0.46383 0.8219 0.0
H1549 H 0.77613 0.46459 0.75393 0.0
H1550 H 0.73317 0.46989 0.8211 0.0
H1551 H 0.73736 0.47011 0.75294 0.0
H1552 H 0.67067 0.50182 0.76655 0.0
H1553 H 0.70957 0.4981 0.76834 0.0
H1554 H 0.70158 0.44821 0.80371 0.0
H1555 H 0.66273 0.45194 0.80206 0.0
C1556 C 0.7645 0.46531 0.8068 0.0
C1557 C 0.77689 0.46328 0.78785 0.0
C1558 C 0.74237 0.46862 0.8063 0.0
C1559 C 0.73222 0.47025 0.7869 0.0
C1560 C 0.74474 0.46891 0.76812 0.0
C1561 C 0.76687 0.46543 0.76859 0.0
C1562 C 0.6772 0.4901 0.77477 0.0
C1563 C 0.66357 0.47716 0.78414 0.0
C1564 C 0.69948 0.4879 0.77569 0.0
C1565 C 0.7086 0.47288 0.78617 0.0
C1566 C 0.695 0.4601 0.79572 0.0
C1567 C 0.67274 0.46216 0.79466 0.0
H1568 H 0.22715 0.70719 0.48772 0.0
H1569 H 0.17382 0.70968 0.4447 0.0
H1570 H 0.22643 0.66776 0.47703 0.0
H1571 H 0.17364 0.66996 0.43322 0.0
H1572 H 0.16177 0.6006 0.44313 0.0
H1573 H 0.1639 0.63985 0.44744 0.0
H1574 H 0.23315 0.63623 0.4495 0.0
H1575 H 0.23079 0.59707 0.44598 0.0
C1576 C 0.2155 0.69932 0.47564 0.0
C1577 C 0.20046 0.71162 0.46717 0.0
C1578 C 0.21518 0.67662 0.46935 0.0
C1579 C 0.19997 0.66556 0.45421 0.0
C1580 C 0.18536 0.67789 0.44516 0.0
C1581 C 0.18555 0.70067 0.45164 0.0
C1582 C 0.17743 0.60816 0.44397 0.0
C1583 C 0.19613 0.59584 0.44408 0.0
C1584 C 0.17869 0.6307 0.44647 0.0
C1585 C 0.19871 0.64133 0.44898 0.0
C1586 C 0.21744 0.62872 0.44809 0.0
C1587 C 0.21614 0.60626 0.44592 0.0
H1588 H 0.67011 0.58246 0.24216 0.0
H1589 H 0.67668 0.51353 0.23771 0.0
H1590 H 0.70844 0.58505 0.23636 0.0
H1591 H 0.71527 0.51627 0.2325 0.0
H1592 H 0.77623 0.52554 0.19374 0.0
H1593 H 0.73905 0.52175 0.20422 0.0
H1594 H 0.74327 0.58355 0.25173 0.0
H1595 H 0.77989 0.58791 0.24021 0.0
C1596 C 0.67977 0.56789 0.24025 0.0
C1597 C 0.67027 0.54776 0.24026 0.0
C1598 C 0.70183 0.56942 0.23707 0.0
C1599 C 0.71498 0.55086 0.23393 0.0
C1600 C 0.70557 0.53082 0.23456 0.0
C1601 C 0.68346 0.52928 0.23766 0.0
C1602 C 0.76925 0.5382 0.20657 0.0
C1603 C 0.78118 0.55679 0.2165 0.0
C1604 C 0.748 0.53595 0.21272 0.0
C1605 C 0.73816 0.55231 0.22889 0.0
C1606 C 0.75029 0.57069 0.23914 0.0
C1607 C 0.7715 0.57298 0.23289 0.0
H1608 H 0.72962 0.09181 0.48847 0.0
H1609 H 0.75401 0.08651 0.42351 0.0
H1610 H 0.72775 0.13119 0.49442 0.0
H1611 H 0.75216 0.12612 0.42938 0.0
H1612 H 0.77542 0.19602 0.46182 0.0
H1613 H 0.77179 0.15662 0.45143 0.0
H1614 H 0.71045 0.16166 0.48413 0.0
H1615 H 0.71429 0.2012 0.49499 0.0
C1616 C 0.73384 0.09902 0.47517 0.0
C1617 C 0.74146 0.08607 0.45534 0.0
C1618 C 0.73291 0.12164 0.47862 0.0
C1619 C 0.73974 0.13183 0.46236 0.0
C1620 C 0.74695 0.11879 0.44231 0.0
C1621 C 0.74792 0.09614 0.4389 0.0
C1622 C 0.76105 0.18879 0.46665 0.0
C1623 C 0.74524 0.20178 0.47942 0.0
C1624 C 0.75889 0.16616 0.46053 0.0
C1625 C 0.74086 0.15597 0.467 0.0
C1626 C 0.72468 0.169 0.47914 0.0
C1627 C 0.72684 0.19167 0.48528 0.0
H1628 H 0.21824 0.5587 0.25485 0.0
H1629 H 0.22891 0.51428 0.29606 0.0
H1630 H 0.17992 0.55876 0.2626 0.0
H1631 H 0.19053 0.51427 0.30364 0.0
H1632 H 0.12073 0.53012 0.32344 0.0
H1633 H 0.15909 0.53724 0.32079 0.0
H1634 H 0.15223 0.53016 0.25143 0.0
H1635 H 0.11425 0.52241 0.25396 0.0
C1636 C 0.21248 0.54914 0.26575 0.0
C1637 C 0.22664 0.53628 0.27464 0.0
C1638 C 0.19051 0.54913 0.27013 0.0
C1639 C 0.18222 0.5364 0.2836 0.0
C1640 C 0.19647 0.52438 0.29334 0.0
C1641 C 0.21845 0.52427 0.28885 0.0
C1642 C 0.12749 0.52971 0.30761 0.0
C1643 C 0.1146 0.5249 0.2888 0.0
C1644 C 0.14939 0.53405 0.30613 0.0
C1645 C 0.15869 0.53407 0.28587 0.0
C1646 C 0.14553 0.53044 0.2673 0.0
C1647 C 0.12375 0.52594 0.26876 0.0
H1648 H 0.47494 0.31593 0.28127 0.0
H1649 H 0.4996 0.25249 0.2489 0.0
H1650 H 0.48355 0.30881 0.31656 0.0
H1651 H 0.50759 0.24518 0.284 0.0
H1652 H 0.52522 0.23685 0.34935 0.0
H1653 H 0.52718 0.25258 0.31777 0.0
H1654 H 0.46672 0.28526 0.33628 0.0
H1655 H 0.46504 0.27011 0.36798 0.0
C1656 C 0.48254 0.30064 0.28164 0.0
C1657 C 0.48625 0.28464 0.26226 0.0
C1658 C 0.48735 0.29651 0.30188 0.0
C1659 C 0.49595 0.27629 0.30315 0.0
C1660 C 0.50113 0.26099 0.28369 0.0
C1661 C 0.49638 0.26513 0.2635 0.0
C1662 C 0.51257 0.24774 0.3469 0.0
C1663 C 0.49482 0.25196 0.36104 0.0
C1664 C 0.51365 0.25668 0.32874 0.0
C1665 C 0.49701 0.27001 0.32433 0.0
C1666 C 0.47995 0.27527 0.33924 0.0
C1667 C 0.47889 0.2664 0.35738 0.0
H1668 H 0.52041 0.75361 0.62303 0.0
H1669 H 0.46041 0.71841 0.61162 0.0
H1670 H 0.52616 0.74029 0.65572 0.0
H1671 H 0.46586 0.70566 0.64445 0.0
H1672 H 0.48158 0.67888 0.70097 0.0
H1673 H 0.48569 0.68414 0.66421 0.0
H1674 H 0.50974 0.74916 0.69113 0.0
H1675 H 0.50623 0.74371 0.72766 0.0
C1676 C 0.50859 0.74281 0.62731 0.0
C1677 C 0.48981 0.73732 0.61485 0.0
C1678 C 0.51184 0.73526 0.64611 0.0
C1679 C 0.49637 0.7221 0.65287 0.0
C1680 C 0.47824 0.71557 0.63966 0.0
C1681 C 0.47502 0.72306 0.62087 0.0
C1682 C 0.48819 0.69411 0.69901 0.0
C1683 C 0.49327 0.71099 0.71729 0.0
C1684 C 0.49043 0.69717 0.67793 0.0
C1685 C 0.49775 0.71718 0.67469 0.0
C1686 C 0.50421 0.73347 0.69294 0.0
C1687 C 0.50204 0.73039 0.71397 0.0
H1688 H 0.46395 0.77395 0.40523 0.0
H1689 H 0.45083 0.8429 0.42445 0.0
H1690 H 0.45441 0.7735 0.36754 0.0
H1691 H 0.44126 0.84254 0.38697 0.0
H1692 H 0.40264 0.82936 0.32409 0.0
H1693 H 0.41231 0.82813 0.36115 0.0
H1694 H 0.46682 0.7875 0.33632 0.0
H1695 H 0.45733 0.78905 0.2993 0.0
C1696 C 0.45902 0.78899 0.40136 0.0
C1697 C 0.45747 0.80833 0.41783 0.0
C1698 C 0.45362 0.78876 0.37982 0.0
C1699 C 0.44674 0.80792 0.37435 0.0
C1700 C 0.44593 0.82739 0.39076 0.0
C1701 C 0.45127 0.82759 0.41225 0.0
C1702 C 0.4166 0.82003 0.32654 0.0
C1703 C 0.42893 0.80888 0.3087 0.0
C1704 C 0.4222 0.81941 0.34776 0.0
C1705 C 0.44034 0.80772 0.35167 0.0
C1706 C 0.45255 0.79634 0.33381 0.0
C1707 C 0.44697 0.79703 0.31255 0.0
H1708 H 0.47793 0.23047 0.64266 0.0
H1709 H 0.46335 0.16177 0.62739 0.0
H1710 H 0.46971 0.2331 0.68102 0.0
H1711 H 0.45475 0.16441 0.66554 0.0
H1712 H 0.42049 0.18154 0.73118 0.0
H1713 H 0.42767 0.18063 0.69302 0.0
H1714 H 0.48403 0.2204 0.7122 0.0
H1715 H 0.47701 0.22099 0.75028 0.0
C1716 C 0.47285 0.21596 0.64749 0.0
C1717 C 0.47065 0.19604 0.63191 0.0
C1718 C 0.4682 0.21745 0.66944 0.0
C1719 C 0.46132 0.19902 0.67628 0.0
C1720 C 0.45945 0.17903 0.66071 0.0
C1721 C 0.46419 0.17754 0.63879 0.0
C1722 C 0.43432 0.19023 0.72725 0.0
C1723 C 0.44789 0.20179 0.74381 0.0
C1724 C 0.43849 0.18963 0.70539 0.0
C1725 C 0.4564 0.20048 0.69959 0.0
C1726 C 0.46986 0.21223 0.71618 0.0
C1727 C 0.46572 0.21277 0.73805 0.0
H1728 H 0.94431 0.76074 0.73062 0.0
H1729 H 0.00414 0.74085 0.75424 0.0
H1730 H 0.9619 0.79285 0.72362 0.0
H1731 H 0.02176 0.77274 0.74718 0.0
H1732 H 0.00786 0.83461 0.69259 0.0
H1733 H 0.98826 0.80384 0.70004 0.0
H1734 H 0.02305 0.8114 0.76057 0.0
H1735 H 0.04269 0.842 0.75297 0.0
C1736 C 0.9613 0.76298 0.73388 0.0
C1737 C 0.97292 0.74806 0.74261 0.0
C1738 C 0.97136 0.78146 0.73 0.0
C1739 C 0.99325 0.78543 0.73485 0.0
C1740 C 0.00481 0.77044 0.74359 0.0
C1741 C 0.99474 0.75207 0.74753 0.0
C1742 C 0.01092 0.83005 0.70773 0.0
C1743 C 0.0266 0.84092 0.72234 0.0
C1744 C 0.99977 0.81231 0.71195 0.0
C1745 C 0.00413 0.80505 0.73086 0.0
C1746 C 0.01954 0.81627 0.74566 0.0
C1747 C 0.03073 0.83389 0.74137 0.0
H1748 H 0.69723 0.24881 0.05324 0.0
H1749 H 0.67543 0.30774 0.03694 0.0
H1750 H 0.72979 0.24954 0.03244 0.0
H1751 H 0.70852 0.30875 0.01643 0.0
H1752 H 0.75849 0.28717 0.96104 0.0
H1753 H 0.72606 0.28897 0.98307 0.0
H1754 H 0.76269 0.26914 0.03302 0.0
H1755 H 0.79466 0.26615 0.01047 0.0
C1756 C 0.69945 0.26206 0.04537 0.0
C1757 C 0.68367 0.27822 0.04677 0.0
C1758 C 0.71825 0.26255 0.03354 0.0
C1759 C 0.72186 0.27926 0.02284 0.0
C1760 C 0.70615 0.29553 0.02431 0.0
C1761 C 0.68724 0.29502 0.03615 0.0
C1762 C 0.75959 0.28328 0.97678 0.0
C1763 C 0.77926 0.27698 0.98422 0.0
C1764 C 0.74105 0.28451 0.98949 0.0
C1765 C 0.74177 0.2793 0.00987 0.0
C1766 C 0.76152 0.27316 0.01736 0.0
C1767 C 0.78001 0.27188 0.00462 0.0
H1768 H 0.97631 0.12662 0.66011 0.0
H1769 H 0.99766 0.15189 0.60598 0.0
H1770 H 0.98101 0.16253 0.68462 0.0
H1771 H 0.00252 0.18776 0.63061 0.0
H1772 H 0.98748 0.25359 0.67851 0.0
H1773 H 0.98106 0.21801 0.65371 0.0
H1774 H 0.01148 0.18669 0.69941 0.0
H1775 H 0.01775 0.22206 0.72423 0.0
C1776 C 0.982 0.13981 0.65343 0.0
C1777 C 0.98668 0.13636 0.63109 0.0
C1778 C 0.98477 0.16036 0.6675 0.0
C1779 C 0.99217 0.17794 0.65954 0.0
C1780 C 0.99659 0.17457 0.63718 0.0
C1781 C 0.99394 0.15398 0.62311 0.0
C1782 C 0.99275 0.23911 0.68328 0.0
C1783 C 0.00314 0.24068 0.70335 0.0
C1784 C 0.98917 0.21875 0.66903 0.0
C1785 C 0.99574 0.19957 0.67464 0.0
C1786 C 0.00599 0.20116 0.69475 0.0
C1787 C 0.0097 0.22147 0.70891 0.0
H1788 H 0.12049 0.69691 0.01214 0.0
H1789 H 0.169 0.70049 0.96443 0.0
H1790 H 0.14804 0.69843 0.03958 0.0
H1791 H 0.19657 0.70402 0.99234 0.0
H1792 H 0.24456 0.69559 0.04256 0.0
H1793 H 0.21645 0.68686 0.015 0.0
H1794 H 0.17097 0.7239 0.06111 0.0
H1795 H 0.19879 0.73167 0.0888 0.0
C1796 C 0.13707 0.69738 0.00731 0.0
C1797 C 0.14256 0.69774 0.98586 0.0
C1798 C 0.15292 0.69888 0.02326 0.0
C1799 C 0.17465 0.70134 0.01828 0.0
C1800 C 0.18011 0.70168 0.99676 0.0
C1801 C 0.16427 0.69987 0.98076 0.0
C1802 C 0.22847 0.70161 0.04685 0.0
C1803 C 0.22393 0.71438 0.06786 0.0
C1804 C 0.21237 0.69675 0.03099 0.0
C1805 C 0.19139 0.7048 0.03567 0.0
C1806 C 0.18679 0.71709 0.0569 0.0
C1807 C 0.20281 0.72168 0.07282 0.0
H1808 H 0.93448 0.2313 0.26727 0.0
H1809 H 0.99831 0.24976 0.2523 0.0
H1810 H 0.94887 0.19861 0.27611 0.0
H1811 H 0.01282 0.21743 0.26148 0.0
H1812 H 0.03084 0.14802 0.25861 0.0
H1813 H 0.01454 0.1792 0.24865 0.0
H1814 H 0.97001 0.18614 0.30234 0.0
H1815 H 0.98611 0.15457 0.31192 0.0
C1816 C 0.95163 0.22859 0.26631 0.0
C1817 C 0.96531 0.24325 0.25943 0.0
C1818 C 0.9599 0.2098 0.27128 0.0
C1819 C 0.98204 0.2053 0.26951 0.0
C1820 C 0.99566 0.22008 0.26265 0.0
C1821 C 0.98737 0.23872 0.25752 0.0
C1822 C 0.01745 0.15612 0.26816 0.0
C1823 C 0.00957 0.14869 0.28587 0.0
C1824 C 0.00818 0.1741 0.26256 0.0
C1825 C 0.99101 0.18534 0.27476 0.0
C1826 C 0.98296 0.1777 0.29235 0.0
C1827 C 0.99213 0.15954 0.29781 0.0
H1828 H 0.13304 0.3402 0.0102 0.0
H1829 H 0.14745 0.28041 0.02864 0.0
H1830 H 0.16303 0.33364 0.98456 0.0
H1831 H 0.17799 0.27432 0.00382 0.0
H1832 H 0.21166 0.25585 0.93809 0.0
H1833 H 0.18272 0.26419 0.9645 0.0
H1834 H 0.20231 0.33167 0.98203 0.0
H1835 H 0.23126 0.32339 0.95516 0.0
C1836 C 0.1425 0.32558 0.00864 0.0
C1837 C 0.13746 0.31046 0.02089 0.0
C1838 C 0.15992 0.32201 0.99425 0.0
C1839 C 0.17272 0.30329 0.9919 0.0
C1840 C 0.16818 0.28867 0.00488 0.0
C1841 C 0.15079 0.29225 0.01925 0.0
C1842 C 0.20985 0.2725 0.94751 0.0
C1843 C 0.22386 0.28894 0.94451 0.0
C1844 C 0.19331 0.27725 0.9628 0.0
C1845 C 0.19031 0.29855 0.97553 0.0
C1846 C 0.20412 0.3151 0.97238 0.0
C1847 C 0.22075 0.31034 0.95704 0.0
H1848 H 0.95576 0.86488 0.34734 0.0
H1849 H 0.01684 0.86093 0.37858 0.0
H1850 H 0.96229 0.82942 0.32264 0.0
H1851 H 0.0235 0.82567 0.3536 0.0
H1852 H 0.01887 0.75351 0.31996 0.0
H1853 H 0.01064 0.78817 0.34538 0.0
H1854 H 0.98564 0.8128 0.29228 0.0
H1855 H 0.99346 0.77807 0.26693 0.0
C1856 C 0.97061 0.8565 0.3489 0.0
C1857 C 0.98578 0.86577 0.36495 0.0
C1858 C 0.97438 0.83621 0.33466 0.0
C1859 C 0.9934 0.82471 0.33616 0.0
C1860 C 0.00854 0.83397 0.35222 0.0
C1861 C 0.00479 0.85426 0.36644 0.0
C1862 C 0.0115 0.76627 0.31372 0.0
C1863 C 0.00687 0.76301 0.29139 0.0
C1864 C 0.00691 0.78618 0.32828 0.0
C1865 C 0.99758 0.80328 0.32084 0.0
C1866 C 0.99262 0.79989 0.29858 0.0
C1867 C 0.99721 0.77999 0.28402 0.0
H1868 H 0.6998 0.7443 0.90833 0.0
H1869 H 0.65821 0.76793 0.96367 0.0
H1870 H 0.7291 0.74108 0.93284 0.0
H1871 H 0.68712 0.76374 0.98818 0.0
H1872 H 0.7489 0.77764 0.02707 0.0
H1873 H 0.71945 0.77977 0.00238 0.0
H1874 H 0.74289 0.72168 0.95718 0.0
H1875 H 0.77276 0.72015 0.9817 0.0
C1876 C 0.69684 0.74852 0.92573 0.0
C1877 C 0.67672 0.7565 0.93406 0.0
C1878 C 0.71362 0.74656 0.93983 0.0
C1879 C 0.71061 0.75224 0.96258 0.0
C1880 C 0.69026 0.75968 0.97082 0.0
C1881 C 0.67359 0.76195 0.95674 0.0
C1882 C 0.74771 0.76536 0.01183 0.0
C1883 C 0.76328 0.74895 0.00612 0.0
C1884 C 0.73074 0.76646 0.99771 0.0
C1885 C 0.72868 0.7509 0.97768 0.0
C1886 C 0.74415 0.73424 0.97219 0.0
C1887 C 0.76131 0.73334 0.98622 0.0
H1888 H 0.73665 0.94195 0.67982 0.0
H1889 H 0.689 0.95729 0.63626 0.0
H1890 H 0.70936 0.94501 0.70818 0.0
H1891 H 0.66165 0.95974 0.66434 0.0
H1892 H 0.61488 0.94128 0.71286 0.0
H1893 H 0.64257 0.93591 0.68474 0.0
H1894 H 0.68682 0.97423 0.73119 0.0
H1895 H 0.65924 0.97956 0.75935 0.0
C1896 C 0.72031 0.9458 0.67625 0.0
C1897 C 0.71484 0.94875 0.65559 0.0
C1898 C 0.70472 0.94758 0.69248 0.0
C1899 C 0.68333 0.95238 0.6884 0.0
C1900 C 0.6779 0.95551 0.66779 0.0
C1901 C 0.69353 0.95388 0.65162 0.0
C1902 C 0.63056 0.94842 0.71714 0.0
C1903 C 0.63482 0.9609 0.73836 0.0
C1904 C 0.64636 0.94545 0.70098 0.0
C1905 C 0.66682 0.95473 0.70574 0.0
C1906 C 0.67126 0.96674 0.72708 0.0
C1907 C 0.65541 0.96986 0.74318 0.0
H1908 H 0.67173 0.01277 0.17859 0.0
H1909 H 0.61523 0.99479 0.2097 0.0
H1910 H 0.69312 0.01051 0.21004 0.0
H1911 H 0.63689 0.99107 0.24061 0.0
H1912 H 0.67773 0.01152 0.30265 0.0
H1913 H 0.65552 0.01231 0.27119 0.0
H1914 H 0.70816 0.98573 0.22842 0.0
H1915 H 0.73078 0.98658 0.25997 0.0
C1916 C 0.6639 0.00796 0.19199 0.0
C1917 C 0.64178 0.00351 0.19134 0.0
C1918 C 0.67624 0.00645 0.20998 0.0
C1919 C 0.66683 0.00038 0.22785 0.0
C1920 C 0.64469 0.99587 0.2272 0.0
C1921 C 0.63229 0.99756 0.20921 0.0
C1922 C 0.68476 0.0065 0.28659 0.0
C1923 C 0.7063 0.99987 0.28388 0.0
C1924 C 0.67184 0.00642 0.26847 0.0
C1925 C 0.68009 0.99934 0.24719 0.0
C1926 C 0.70139 0.99182 0.24453 0.0
C1927 C 0.71433 0.99211 0.26264 0.0
H1928 H 0.27663 0.93504 0.79545 0.0
H1929 H 0.32407 0.98582 0.80134 0.0
H1930 H 0.26261 0.94379 0.76258 0.0
H1931 H 0.30938 0.9954 0.76916 0.0
H1932 H 0.29075 0.99316 0.6988 0.0
H1933 H 0.30608 0.98253 0.73019 0.0
H1934 H 0.24231 0.97216 0.75253 0.0
H1935 H 0.22703 0.98221 0.72095 0.0
C1936 C 0.28395 0.9482 0.78981 0.0
C1937 C 0.30104 0.96018 0.80135 0.0
C1938 C 0.27581 0.95334 0.77108 0.0
C1939 C 0.28466 0.97051 0.76338 0.0
C1940 C 0.30216 0.98209 0.77462 0.0
C1941 C 0.31032 0.97691 0.79335 0.0
C1942 C 0.28 0.98854 0.71038 0.0
C1943 C 0.25765 0.98852 0.70733 0.0
C1944 C 0.28879 0.98257 0.72845 0.0
C1945 C 0.27543 0.9765 0.74391 0.0
C1946 C 0.25309 0.97642 0.74079 0.0
C1947 C 0.24432 0.98231 0.72271 0.0
H1948 H 0.27635 0.96675 0.28164 0.0
H1949 H 0.25141 0.03177 0.30646 0.0
H1950 H 0.29012 0.97728 0.24963 0.0
H1951 H 0.26578 0.04249 0.27481 0.0
H1952 H 0.27096 0.04652 0.20379 0.0
H1953 H 0.25879 0.03675 0.23681 0.0
H1954 H 0.31648 0.99886 0.23694 0.0
H1955 H 0.32843 0.00849 0.20373 0.0
C1956 C 0.27403 0.98337 0.28041 0.0
C1957 C 0.26266 0.99837 0.29657 0.0
C1958 C 0.28204 0.98945 0.26208 0.0
C1959 C 0.27898 0.01072 0.25954 0.0
C1960 C 0.26807 0.02586 0.276 0.0
C1961 C 0.25995 0.01974 0.29424 0.0
C1962 C 0.28102 0.03612 0.21092 0.0
C1963 C 0.3004 0.02785 0.20093 0.0
C1964 C 0.27413 0.0306 0.22992 0.0
C1965 C 0.28661 0.01692 0.23954 0.0
C1966 C 0.30623 0.00903 0.22973 0.0
C1967 C 0.31305 0.01444 0.21063 0.0
loop_
_geom_bond_atom_site_label_1
_geom_bond_atom_site_label_2
_geom_bond_distance
_geom_bond_site_symmetry_2
_ccdc_geom_bond_type
O0 Cd1 2.300 . S
O0 C7 1.275 . S
Cd1 O0 2.300 . S
Cd1 O9 2.381 . S
Cd1 O10 2.378 . S
O2 Cd3 2.385 . S
O2 C7 1.255 . S
Cd3 O2 2.385 . S
Cd3 O4 2.317 . S
O4 Cd3 2.317 . S
O4 C5 1.232 . S
C5 O4 1.232 . S
C5 O6 1.218 . S
O6 C5 1.218 . S
C7 O0 1.275 . S
C7 O2 1.255 . S
C8 O9 1.258 . S
C8 O10 1.256 . S
O9 Cd1 2.381 . S
O9 C8 1.258 . S
O10 Cd1 2.378 . S
O10 C8 1.256 . S
O11 Cd12 2.300 . S
O11 C18 1.275 . S
Cd12 O11 2.300 . S
Cd12 O20 2.381 . S
Cd12 O21 2.378 . S
O13 Cd14 2.385 . S
O13 C18 1.255 . S
Cd14 O13 2.385 . S
Cd14 O15 2.317 . S
O15 Cd14 2.317 . S
O15 C16 1.232 . S
C16 O15 1.232 . S
C16 O17 1.218 . S
O17 C16 1.218 . S
C18 O11 1.275 . S
C18 O13 1.255 . S
C19 O20 1.258 . S
C19 O21 1.256 . S
O20 Cd12 2.381 . S
O20 C19 1.258 . S
O21 Cd12 2.378 . S
O21 C19 1.256 . S
O22 Cd23 2.300 . S
O22 C29 1.275 . S
Cd23 O22 2.300 . S
Cd23 O31 2.381 . S
Cd23 O32 2.378 . S
O24 Cd25 2.385 . S
O24 C29 1.255 . S
Cd25 O24 2.385 . S
Cd25 O26 2.317 . S
O26 Cd25 2.317 . S
O26 C27 1.232 . S
C27 O26 1.232 . S
C27 O28 1.218 . S
O28 C27 1.218 . S
C29 O22 1.275 . S
C29 O24 1.255 . S
C30 O31 1.258 . S
C30 O32 1.256 . S
O31 Cd23 2.381 . S
O31 C30 1.258 . S
O32 Cd23 2.378 . S
O32 C30 1.256 . S
O33 Cd34 2.300 . S
O33 C40 1.275 . S
Cd34 O33 2.300 . S
Cd34 O42 2.381 . S
Cd34 O43 2.378 . S
O35 Cd36 2.385 . S
O35 C40 1.255 . S
Cd36 O35 2.385 . S
Cd36 O37 2.317 . S
O37 Cd36 2.317 . S
O37 C38 1.232 . S
C38 O37 1.232 . S
C38 O39 1.218 . S
O39 C38 1.218 . S
C40 O33 1.275 . S
C40 O35 1.255 . S
C41 O42 1.258 . S
C41 O43 1.256 . S
O42 Cd34 2.381 . S
O42 C41 1.258 . S
O43 Cd34 2.378 . S
O43 C41 1.256 . S
O44 Cd45 2.300 . S
O44 C51 1.275 . S
Cd45 O44 2.300 . S
Cd45 O53 2.381 . S
Cd45 O54 2.378 . S
O46 Cd47 2.385 . S
O46 C51 1.255 . S
Cd47 O46 2.385 . S
Cd47 O48 2.317 . S
O48 Cd47 2.317 . S
O48 C49 1.232 . S
C49 O48 1.232 . S
C49 O50 1.218 . S
O50 C49 1.218 . S
C51 O44 1.275 . S
C51 O46 1.255 . S
C52 O53 1.258 . S
C52 O54 1.256 . S
O53 Cd45 2.381 . S
O53 C52 1.258 . S
O54 Cd45 2.378 . S
O54 C52 1.256 . S
O55 Cd56 2.300 . S
O55 C62 1.275 . S
Cd56 O55 2.300 . S
Cd56 O64 2.381 . S
Cd56 O65 2.378 . S
O57 Cd58 2.385 . S
O57 C62 1.255 . S
Cd58 O57 2.385 . S
Cd58 O59 2.317 . S
O59 Cd58 2.317 . S
O59 C60 1.232 . S
C60 O59 1.232 . S
C60 O61 1.218 . S
O61 C60 1.218 . S
C62 O55 1.275 . S
C62 O57 1.255 . S
C63 O64 1.258 . S
C63 O65 1.256 . S
O64 Cd56 2.381 . S
O64 C63 1.258 . S
O65 Cd56 2.378 . S
O65 C63 1.256 . S
O66 Cd67 2.300 . S
O66 C73 1.275 . S
Cd67 O66 2.300 . S
Cd67 O75 2.381 . S
Cd67 O76 2.378 . S
O68 Cd69 2.385 . S
O68 C73 1.255 . S
Cd69 O68 2.385 . S
Cd69 O70 2.317 . S
O70 Cd69 2.317 . S
O70 C71 1.232 . S
C71 O70 1.232 . S
C71 O72 1.218 . S
O72 C71 1.218 . S
C73 O66 1.275 . S
C73 O68 1.255 . S
C74 O75 1.258 . S
C74 O76 1.256 . S
O75 Cd67 2.381 . S
O75 C74 1.258 . S
O76 Cd67 2.378 . S
O76 C74 1.256 . S
O77 Cd78 2.300 . S
O77 C84 1.275 . S
Cd78 O77 2.300 . S
Cd78 O86 2.381 . S
Cd78 O87 2.378 . S
O79 Cd80 2.385 . S
O79 C84 1.255 . S
Cd80 O79 2.385 . S
Cd80 O81 2.317 . S
O81 Cd80 2.317 . S
O81 C82 1.232 . S
C82 O81 1.232 . S
C82 O83 1.218 . S
O83 C82 1.218 . S
C84 O77 1.275 . S
C84 O79 1.255 . S
C85 O86 1.258 . S
C85 O87 1.256 . S
O86 Cd78 2.381 . S
O86 C85 1.258 . S
O87 Cd78 2.378 . S
O87 C85 1.256 . S
O88 Cd89 2.300 . S
O88 C95 1.275 . S
Cd89 O88 2.300 . S
Cd89 O97 2.381 . S
Cd89 O98 2.378 . S
O90 Cd91 2.385 . S
O90 C95 1.255 . S
Cd91 O90 2.385 . S
Cd91 O92 2.317 . S
O92 Cd91 2.317 . S
O92 C93 1.232 . S
C93 O92 1.232 . S
C93 O94 1.218 . S
O94 C93 1.218 . S
C95 O88 1.275 . S
C95 O90 1.255 . S
C96 O97 1.258 . S
C96 O98 1.256 . S
O97 Cd89 2.381 . S
O97 C96 1.258 . S
O98 Cd89 2.378 . S
O98 C96 1.256 . S
O99 Cd100 2.300 . S
O99 C106 1.275 . S
Cd100 O99 2.300 . S
Cd100 O108 2.381 . S
Cd100 O109 2.378 . S
O101 Cd102 2.385 . S
O101 C106 1.255 . S
Cd102 O101 2.385 . S
Cd102 O103 2.317 . S
O103 Cd102 2.317 . S
O103 C104 1.232 . S
C104 O103 1.232 . S
C104 O105 1.218 . S
O105 C104 1.218 . S
C106 O99 1.275 . S
C106 O101 1.255 . S
C107 O108 1.258 . S
C107 O109 1.256 . S
O108 Cd100 2.381 . S
O108 C107 1.258 . S
O109 Cd100 2.378 . S
O109 C107 1.256 . S
O110 Cd111 2.300 . S
O110 C117 1.275 . S
Cd111 O110 2.300 . S
Cd111 O119 2.381 . S
Cd111 O120 2.378 . S
O112 Cd113 2.385 . S
O112 C117 1.255 . S
Cd113 O112 2.385 . S
Cd113 O114 2.317 . S
O114 Cd113 2.317 . S
O114 C115 1.232 . S
C115 O114 1.232 . S
C115 O116 1.218 . S
O116 C115 1.218 . S
C117 O110 1.275 . S
C117 O112 1.255 . S
C118 O119 1.258 . S
C118 O120 1.256 . S
O119 Cd111 2.381 . S
O119 C118 1.258 . S
O120 Cd111 2.378 . S
O120 C118 1.256 . S
O121 Cd122 2.300 . S
O121 C128 1.275 . S
Cd122 O121 2.300 . S
Cd122 O130 2.381 . S
Cd122 O131 2.378 . S
O123 Cd124 2.385 . S
O123 C128 1.255 . S
Cd124 O123 2.385 . S
Cd124 O125 2.317 . S
O125 Cd124 2.317 . S
O125 C126 1.232 . S
C126 O125 1.232 . S
C126 O127 1.218 . S
O127 C126 1.218 . S
C128 O121 1.275 . S
C128 O123 1.255 . S
C129 O130 1.258 . S
C129 O131 1.256 . S
O130 Cd122 2.381 . S
O130 C129 1.258 . S
O131 Cd122 2.378 . S
O131 C129 1.256 . S
O132 Cd133 2.300 . S
O132 C139 1.275 . S
Cd133 O132 2.300 . S
Cd133 O141 2.381 . S
Cd133 O142 2.378 . S
O134 Cd135 2.385 . S
O134 C139 1.255 . S
Cd135 O134 2.385 . S
Cd135 O136 2.317 . S
O136 Cd135 2.317 . S
O136 C137 1.232 . S
C137 O136 1.232 . S
C137 O138 1.218 . S
O138 C137 1.218 . S
C139 O132 1.275 . S
C139 O134 1.255 . S
C140 O141 1.258 . S
C140 O142 1.256 . S
O141 Cd133 2.381 . S
O141 C140 1.258 . S
O142 Cd133 2.378 . S
O142 C140 1.256 . S
O143 Cd144 2.300 . S
O143 C150 1.275 . S
Cd144 O143 2.300 . S
Cd144 O152 2.381 . S
Cd144 O153 2.378 . S
O145 Cd146 2.385 . S
O145 C150 1.255 . S
Cd146 O145 2.385 . S
Cd146 O147 2.317 . S
O147 Cd146 2.317 . S
O147 C148 1.232 . S
C148 O147 1.232 . S
C148 O149 1.218 . S
O149 C148 1.218 . S
C150 O143 1.275 . S
C150 O145 1.255 . S
C151 O152 1.258 . S
C151 O153 1.256 . S
O152 Cd144 2.381 . S
O152 C151 1.258 . S
O153 Cd144 2.378 . S
O153 C151 1.256 . S
O154 Cd155 2.300 . S
O154 C161 1.275 . S
Cd155 O154 2.300 . S
Cd155 O163 2.381 . S
Cd155 O164 2.378 . S
O156 Cd157 2.385 . S
O156 C161 1.255 . S
Cd157 O156 2.385 . S
Cd157 O158 2.317 . S
O158 Cd157 2.317 . S
O158 C159 1.232 . S
C159 O158 1.232 . S
C159 O160 1.218 . S
O160 C159 1.218 . S
C161 O154 1.275 . S
C161 O156 1.255 . S
C162 O163 1.258 . S
C162 O164 1.256 . S
O163 Cd155 2.381 . S
O163 C162 1.258 . S
O164 Cd155 2.378 . S
O164 C162 1.256 . S
O165 Cd166 2.300 . S
O165 C172 1.275 . S
Cd166 O165 2.300 . S
Cd166 O174 2.381 . S
Cd166 O175 2.378 . S
O167 Cd168 2.385 . S
O167 C172 1.255 . S
Cd168 O167 2.385 . S
Cd168 O169 2.317 . S
O169 Cd168 2.317 . S
O169 C170 1.232 . S
C170 O169 1.232 . S
C170 O171 1.218 . S
O171 C170 1.218 . S
C172 O165 1.275 . S
C172 O167 1.255 . S
C173 O174 1.258 . S
C173 O175 1.256 . S
O174 Cd166 2.381 . S
O174 C173 1.258 . S
O175 Cd166 2.378 . S
O175 C173 1.256 . S
O176 Cd177 2.300 . S
O176 C183 1.275 . S
Cd177 O176 2.300 . S
Cd177 O185 2.381 . S
Cd177 O186 2.378 . S
O178 Cd179 2.385 . S
O178 C183 1.255 . S
Cd179 O178 2.385 . S
Cd179 O180 2.317 . S
O180 Cd179 2.317 . S
O180 C181 1.232 . S
C181 O180 1.232 . S
C181 O182 1.218 . S
O182 C181 1.218 . S
C183 O176 1.275 . S
C183 O178 1.255 . S
C184 O185 1.258 . S
C184 O186 1.256 . S
O185 Cd177 2.381 . S
O185 C184 1.258 . S
O186 Cd177 2.378 . S
O186 C184 1.256 . S
O187 Cd188 2.300 . S
O187 C194 1.275 . S
Cd188 O187 2.300 . S
Cd188 O196 2.381 . S
Cd188 O197 2.378 . S
O189 Cd190 2.385 . S
O189 C194 1.255 . S
Cd190 O189 2.385 . S
Cd190 O191 2.317 . S
O191 Cd190 2.317 . S
O191 C192 1.232 . S
C192 O191 1.232 . S
C192 O193 1.218 . S
O193 C192 1.218 . S
C194 O187 1.275 . S
C194 O189 1.255 . S
C195 O196 1.258 . S
C195 O197 1.256 . S
O196 Cd188 2.381 . S
O196 C195 1.258 . S
O197 Cd188 2.378 . S
O197 C195 1.256 . S
O198 Cd199 2.300 . S
O198 C205 1.275 . S
Cd199 O198 2.300 . S
Cd199 O207 2.381 . S
Cd199 O208 2.378 . S
O200 Cd201 2.385 . S
O200 C205 1.255 . S
Cd201 O200 2.385 . S
Cd201 O202 2.317 . S
O202 Cd201 2.317 . S
O202 C203 1.232 . S
C203 O202 1.232 . S
C203 O204 1.218 . S
O204 C203 1.218 . S
C205 O198 1.275 . S
C205 O200 1.255 . S
C206 O207 1.258 . S
C206 O208 1.256 . S
O207 Cd199 2.381 . S
O207 C206 1.258 . S
O208 Cd199 2.378 . S
O208 C206 1.256 . S
O209 Cd210 2.300 . S
O209 C216 1.275 . S
Cd210 O209 2.300 . S
Cd210 O218 2.381 . S
Cd210 O219 2.378 . S
O211 Cd212 2.385 . S
O211 C216 1.255 . S
Cd212 O211 2.385 . S
Cd212 O213 2.317 . S
O213 Cd212 2.317 . S
O213 C214 1.232 . S
C214 O213 1.232 . S
C214 O215 1.218 . S
O215 C214 1.218 . S
C216 O209 1.275 . S
C216 O211 1.255 . S
C217 O218 1.258 . S
C217 O219 1.256 . S
O218 Cd210 2.381 . S
O218 C217 1.258 . S
O219 Cd210 2.378 . S
O219 C217 1.256 . S
O220 Cd221 2.300 . S
O220 C227 1.275 . S
Cd221 O220 2.300 . S
Cd221 O229 2.381 . S
Cd221 O230 2.378 . S
O222 Cd223 2.385 . S
O222 C227 1.255 . S
Cd223 O222 2.385 . S
Cd223 O224 2.317 . S
O224 Cd223 2.317 . S
O224 C225 1.232 . S
C225 O224 1.232 . S
C225 O226 1.218 . S
O226 C225 1.218 . S
C227 O220 1.275 . S
C227 O222 1.255 . S
C228 O229 1.258 . S
C228 O230 1.256 . S
O229 Cd221 2.381 . S
O229 C228 1.258 . S
O230 Cd221 2.378 . S
O230 C228 1.256 . S
O231 Cd232 2.300 . S
O231 C238 1.275 . S
Cd232 O231 2.300 . S
Cd232 O240 2.381 . S
Cd232 O241 2.378 . S
O233 Cd234 2.385 . S
O233 C238 1.255 . S
Cd234 O233 2.385 . S
Cd234 O235 2.317 . S
O235 Cd234 2.317 . S
O235 C236 1.232 . S
C236 O235 1.232 . S
C236 O237 1.218 . S
O237 C236 1.218 . S
C238 O231 1.275 . S
C238 O233 1.255 . S
C239 O240 1.258 . S
C239 O241 1.256 . S
O240 Cd232 2.381 . S
O240 C239 1.258 . S
O241 Cd232 2.378 . S
O241 C239 1.256 . S
O242 Cd243 2.300 . S
O242 C249 1.275 . S
Cd243 O242 2.300 . S
Cd243 O251 2.381 . S
Cd243 O252 2.378 . S
O244 Cd245 2.385 . S
O244 C249 1.255 . S
Cd245 O244 2.385 . S
Cd245 O246 2.317 . S
O246 Cd245 2.317 . S
O246 C247 1.232 . S
C247 O246 1.232 . S
C247 O248 1.218 . S
O248 C247 1.218 . S
C249 O242 1.275 . S
C249 O244 1.255 . S
C250 O251 1.258 . S
C250 O252 1.256 . S
O251 Cd243 2.381 . S
O251 C250 1.258 . S
O252 Cd243 2.378 . S
O252 C250 1.256 . S
O253 Cd254 2.300 . S
O253 C260 1.275 . S
Cd254 O253 2.300 . S
Cd254 O262 2.381 . S
Cd254 O263 2.378 . S
O255 Cd256 2.385 . S
O255 C260 1.255 . S
Cd256 O255 2.385 . S
Cd256 O257 2.317 . S
O257 Cd256 2.317 . S
O257 C258 1.232 . S
C258 O257 1.232 . S
C258 O259 1.218 . S
O259 C258 1.218 . S
C260 O253 1.275 . S
C260 O255 1.255 . S
C261 O262 1.258 . S
C261 O263 1.256 . S
O262 Cd254 2.381 . S
O262 C261 1.258 . S
O263 Cd254 2.378 . S
O263 C261 1.256 . S
O264 Cd265 2.300 . S
O264 C271 1.275 1_455 S
Cd265 O264 2.300 . S
Cd265 O273 2.381 . S
Cd265 O274 2.378 . S
O266 Cd267 2.385 . S
O266 C271 1.255 . S
Cd267 O266 2.385 . S
Cd267 O268 2.317 . S
O268 Cd267 2.317 . S
O268 C269 1.232 . S
C269 O268 1.232 . S
C269 O270 1.218 . S
O270 C269 1.218 . S
C271 O264 1.275 1_655 S
C271 O266 1.255 . S
C272 O273 1.258 . S
C272 O274 1.256 . S
O273 Cd265 2.381 . S
O273 C272 1.258 . S
O274 Cd265 2.378 . S
O274 C272 1.256 . S
O275 Cd276 2.300 . S
O275 C282 1.275 . S
Cd276 O275 2.300 . S
Cd276 O284 2.381 . S
Cd276 O285 2.378 . S
O277 Cd278 2.385 . S
O277 C282 1.255 . S
Cd278 O277 2.385 . S
Cd278 O279 2.317 . S
O279 Cd278 2.317 . S
O279 C280 1.232 . S
C280 O279 1.232 . S
C280 O281 1.218 . S
O281 C280 1.218 . S
C282 O275 1.275 . S
C282 O277 1.255 . S
C283 O284 1.258 . S
C283 O285 1.256 . S
O284 Cd276 2.381 . S
O284 C283 1.258 . S
O285 Cd276 2.378 . S
O285 C283 1.256 . S
O286 Cd287 2.300 . S
O286 C293 1.275 1_455 S
Cd287 O286 2.300 . S
Cd287 O295 2.381 . S
Cd287 O296 2.378 . S
O288 Cd289 2.385 . S
O288 C293 1.255 . S
Cd289 O288 2.385 . S
Cd289 O290 2.317 . S
O290 Cd289 2.317 . S
O290 C291 1.232 . S
C291 O290 1.232 . S
C291 O292 1.218 . S
O292 C291 1.218 . S
C293 O286 1.275 1_655 S
C293 O288 1.255 . S
C294 O295 1.258 . S
C294 O296 1.256 . S
O295 Cd287 2.381 . S
O295 C294 1.258 . S
O296 Cd287 2.378 . S
O296 C294 1.256 . S
O297 Cd298 2.300 . S
O297 C304 1.275 . S
Cd298 O297 2.300 . S
Cd298 O306 2.381 . S
Cd298 O307 2.378 . S
O299 Cd300 2.385 . S
O299 C304 1.255 . S
Cd300 O299 2.385 . S
Cd300 O301 2.317 . S
O301 Cd300 2.317 . S
O301 C302 1.232 . S
C302 O301 1.232 . S
C302 O303 1.218 . S
O303 C302 1.218 . S
C304 O297 1.275 . S
C304 O299 1.255 . S
C305 O306 1.258 . S
C305 O307 1.256 . S
O306 Cd298 2.381 . S
O306 C305 1.258 . S
O307 Cd298 2.378 . S
O307 C305 1.256 . S
O308 Cd309 2.300 . S
O308 C315 1.275 1_455 S
Cd309 O308 2.300 . S
Cd309 O317 2.381 . S
Cd309 O318 2.378 . S
O310 Cd311 2.385 . S
O310 C315 1.255 . S
Cd311 O310 2.385 . S
Cd311 O312 2.317 . S
O312 Cd311 2.317 . S
O312 C313 1.232 . S
C313 O312 1.232 . S
C313 O314 1.218 . S
O314 C313 1.218 . S
C315 O308 1.275 1_655 S
C315 O310 1.255 . S
C316 O317 1.258 . S
C316 O318 1.256 . S
O317 Cd309 2.381 . S
O317 C316 1.258 . S
O318 Cd309 2.378 . S
O318 C316 1.256 . S
O319 Cd320 2.300 . S
O319 C326 1.275 . S
Cd320 O319 2.300 . S
Cd320 O328 2.381 . S
Cd320 O329 2.378 . S
O321 Cd322 2.385 . S
O321 C326 1.255 . S
Cd322 O321 2.385 . S
Cd322 O323 2.317 . S
O323 Cd322 2.317 . S
O323 C324 1.232 . S
C324 O323 1.232 . S
C324 O325 1.218 . S
O325 C324 1.218 . S
C326 O319 1.275 . S
C326 O321 1.255 . S
C327 O328 1.258 . S
C327 O329 1.256 . S
O328 Cd320 2.381 . S
O328 C327 1.258 . S
O329 Cd320 2.378 . S
O329 C327 1.256 . S
O330 Cd331 2.300 . S
O330 C337 1.275 1_455 S
Cd331 O330 2.300 . S
Cd331 O339 2.381 . S
Cd331 O340 2.378 . S
O332 Cd333 2.385 . S
O332 C337 1.255 . S
Cd333 O332 2.385 . S
Cd333 O334 2.317 . S
O334 Cd333 2.317 . S
O334 C335 1.232 . S
C335 O334 1.232 . S
C335 O336 1.218 . S
O336 C335 1.218 . S
C337 O330 1.275 1_655 S
C337 O332 1.255 . S
C338 O339 1.258 . S
C338 O340 1.256 . S
O339 Cd331 2.381 . S
O339 C338 1.258 . S
O340 Cd331 2.378 . S
O340 C338 1.256 . S
O341 Cd342 2.300 . S
O341 C348 1.275 . S
Cd342 O341 2.300 . S
Cd342 O350 2.381 . S
Cd342 O351 2.378 . S
O343 Cd344 2.385 . S
O343 C348 1.255 . S
Cd344 O343 2.385 . S
Cd344 O345 2.317 . S
O345 Cd344 2.317 . S
O345 C346 1.232 . S
C346 O345 1.232 . S
C346 O347 1.218 . S
O347 C346 1.218 . S
C348 O341 1.275 . S
C348 O343 1.255 . S
C349 O350 1.258 . S
C349 O351 1.256 . S
O350 Cd342 2.381 . S
O350 C349 1.258 . S
O351 Cd342 2.378 . S
O351 C349 1.256 . S
O352 Cd353 2.300 . S
O352 C359 1.275 . S
Cd353 O352 2.300 . S
Cd353 O361 2.381 . S
Cd353 O362 2.378 . S
O354 Cd355 2.385 . S
O354 C359 1.255 1_545 S
Cd355 O354 2.385 . S
Cd355 O356 2.317 . S
O356 Cd355 2.317 . S
O356 C357 1.232 . S
C357 O356 1.232 . S
C357 O358 1.218 . S
O358 C357 1.218 . S
C359 O352 1.275 . S
C359 O354 1.255 1_565 S
C360 O361 1.258 . S
C360 O362 1.256 . S
O361 Cd353 2.381 . S
O361 C360 1.258 . S
O362 Cd353 2.378 . S
O362 C360 1.256 . S
O363 Cd364 2.300 . S
O363 C370 1.275 . S
Cd364 O363 2.300 . S
Cd364 O372 2.381 . S
Cd364 O373 2.378 . S
O365 Cd366 2.385 . S
O365 C370 1.255 . S
Cd366 O365 2.385 . S
Cd366 O367 2.317 . S
O367 Cd366 2.317 . S
O367 C368 1.232 . S
C368 O367 1.232 . S
C368 O369 1.218 . S
O369 C368 1.218 . S
C370 O363 1.275 . S
C370 O365 1.255 . S
C371 O372 1.258 . S
C371 O373 1.256 . S
O372 Cd364 2.381 . S
O372 C371 1.258 . S
O373 Cd364 2.378 . S
O373 C371 1.256 . S
O374 Cd375 2.300 . S
O374 C381 1.296 . S
Cd375 O374 2.300 . S
Cd375 O383 2.381 . S
Cd375 O384 2.378 . S
O376 Cd377 2.385 . S
O376 C381 1.245 1_545 S
Cd377 O376 2.385 . S
Cd377 O378 2.317 . S
O378 Cd377 2.317 . S
O378 C379 1.232 . S
C379 O378 1.232 . S
C379 O380 1.218 . S
O380 C379 1.218 . S
C381 O374 1.296 . S
C381 O376 1.245 1_565 S
C382 O383 1.258 . S
C382 O384 1.256 . S
O383 Cd375 2.381 . S
O383 C382 1.258 . S
O384 Cd375 2.378 . S
O384 C382 1.256 . S
O385 Cd386 2.300 . S
O385 C392 1.275 1_565 S
Cd386 O385 2.300 . S
Cd386 O394 2.381 . S
Cd386 O395 2.378 . S
O387 Cd388 2.385 . S
O387 C392 1.255 . S
Cd388 O387 2.385 . S
Cd388 O389 2.357 . S
O389 Cd388 2.357 . S
O389 C390 1.237 . S
C390 O389 1.237 . S
C390 O391 1.214 . S
O391 C390 1.214 . S
C392 O385 1.275 1_545 S
C392 O387 1.255 . S
C393 O394 1.258 . S
C393 O395 1.256 . S
O394 Cd386 2.381 . S
O394 C393 1.258 . S
O395 Cd386 2.378 . S
O395 C393 1.256 . S
O396 Cd397 2.300 . S
O396 C403 1.275 . S
Cd397 O396 2.300 . S
Cd397 O405 2.381 . S
Cd397 O406 2.378 . S
O398 Cd399 2.385 . S
O398 C403 1.255 1_565 S
Cd399 O398 2.385 . S
Cd399 O400 2.317 . S
O400 Cd399 2.317 . S
O400 C401 1.232 . S
C401 O400 1.232 . S
C401 O402 1.218 . S
O402 C401 1.218 . S
C403 O396 1.275 . S
C403 O398 1.255 1_545 S
C404 O405 1.258 . S
C404 O406 1.256 . S
O405 Cd397 2.381 . S
O405 C404 1.258 . S
O406 Cd397 2.378 . S
O406 C404 1.256 . S
O407 Cd408 2.300 . S
O407 C414 1.275 1_545 S
Cd408 O407 2.300 . S
Cd408 O416 2.381 . S
Cd408 O417 2.378 . S
O409 Cd410 2.385 . S
O409 C414 1.255 . S
Cd410 O409 2.385 . S
Cd410 O411 2.357 . S
O411 Cd410 2.357 . S
O411 C412 1.237 . S
C412 O411 1.237 . S
C412 O413 1.214 . S
O413 C412 1.214 . S
C414 O407 1.275 1_565 S
C414 O409 1.255 . S
C415 O416 1.258 . S
C415 O417 1.256 . S
O416 Cd408 2.381 . S
O416 C415 1.258 . S
O417 Cd408 2.378 . S
O417 C415 1.256 . S
O418 Cd419 2.300 . S
O418 C425 1.296 . S
Cd419 O418 2.300 . S
Cd419 O427 2.381 . S
Cd419 O428 2.378 . S
O420 Cd421 2.385 . S
O420 C425 1.245 1_565 S
Cd421 O420 2.385 . S
Cd421 O422 2.317 . S
O422 Cd421 2.317 . S
O422 C423 1.232 . S
C423 O422 1.232 . S
C423 O424 1.218 . S
O424 C423 1.218 . S
C425 O418 1.296 . S
C425 O420 1.245 1_545 S
C426 O427 1.258 . S
C426 O428 1.256 . S
O427 Cd419 2.381 . S
O427 C426 1.258 . S
O428 Cd419 2.378 . S
O428 C426 1.256 . S
O429 Cd430 2.300 . S
O429 C436 1.275 . S
Cd430 O429 2.300 . S
Cd430 O438 2.381 . S
Cd430 O439 2.378 . S
O431 Cd432 2.385 . S
O431 C436 1.255 . S
Cd432 O431 2.385 . S
Cd432 O433 2.317 . S
O433 Cd432 2.317 . S
O433 C434 1.232 . S
C434 O433 1.232 . S
C434 O435 1.218 . S
O435 C434 1.218 . S
C436 O429 1.275 . S
C436 O431 1.255 . S
C437 O438 1.258 . S
C437 O439 1.256 . S
O438 Cd430 2.381 . S
O438 C437 1.258 . S
O439 Cd430 2.378 . S
O439 C437 1.256 . S
O440 Cd441 2.300 . S
O440 C447 1.275 1_554 S
Cd441 O440 2.300 . S
Cd441 O449 2.381 . S
Cd441 O450 2.378 . S
O442 Cd443 2.385 . S
O442 C447 1.255 . S
Cd443 O442 2.385 . S
Cd443 O444 2.317 . S
O444 Cd443 2.317 . S
O444 C445 1.232 . S
C445 O444 1.232 . S
C445 O446 1.218 . S
O446 C445 1.218 . S
C447 O440 1.275 1_556 S
C447 O442 1.255 . S
C448 O449 1.258 . S
C448 O450 1.256 . S
O449 Cd441 2.381 . S
O449 C448 1.258 . S
O450 Cd441 2.378 . S
O450 C448 1.256 . S
O451 Cd452 2.300 . S
O451 C458 1.275 1_556 S
Cd452 O451 2.300 . S
Cd452 O460 2.381 . S
Cd452 O461 2.378 . S
O453 Cd454 2.385 . S
O453 C458 1.255 . S
Cd454 O453 2.385 . S
Cd454 O455 2.317 . S
O455 Cd454 2.317 . S
O455 C456 1.232 . S
C456 O455 1.232 . S
C456 O457 1.218 . S
O457 C456 1.218 . S
C458 O451 1.275 1_554 S
C458 O453 1.255 . S
C459 O460 1.258 . S
C459 O461 1.256 . S
O460 Cd452 2.381 . S
O460 C459 1.258 . S
O461 Cd452 2.378 . S
O461 C459 1.256 . S
O462 Cd463 2.300 . S
O462 C469 1.275 . S
Cd463 O462 2.300 . S
Cd463 O471 2.381 1_655 S
Cd463 O472 2.378 . S
O464 Cd465 2.385 . S
O464 C469 1.255 . S
Cd465 O464 2.385 . S
Cd465 O466 2.317 . S
O466 Cd465 2.317 . S
O466 C467 1.232 . S
C467 O466 1.232 . S
C467 O468 1.218 . S
O468 C467 1.218 . S
C469 O462 1.275 . S
C469 O464 1.255 . S
C470 O471 1.258 . S
C470 O472 1.256 1_455 S
O471 Cd463 2.381 1_455 S
O471 C470 1.258 . S
O472 Cd463 2.378 . S
O472 C470 1.256 1_655 S
O473 Cd474 2.300 1_554 S
O473 C480 1.275 . S
Cd474 O473 2.300 1_556 S
Cd474 O482 2.381 . S
Cd474 O483 2.378 . S
O475 Cd476 2.385 . S
O475 C480 1.255 . S
Cd476 O475 2.385 . S
Cd476 O477 2.317 . S
O477 Cd476 2.317 . S
O477 C478 1.232 . S
C478 O477 1.232 . S
C478 O479 1.218 . S
O479 C478 1.218 . S
C480 O473 1.275 . S
C480 O475 1.255 . S
C481 O482 1.258 . S
C481 O483 1.256 . S
O482 Cd474 2.381 . S
O482 C481 1.258 . S
O483 Cd474 2.378 . S
O483 C481 1.256 . S
O484 Cd485 2.300 . S
O484 C491 1.275 . S
Cd485 O484 2.300 . S
Cd485 O493 2.381 . S
Cd485 O494 2.378 . S
O486 Cd487 2.385 . S
O486 C491 1.255 . S
Cd487 O486 2.385 . S
Cd487 O488 2.317 . S
O488 Cd487 2.317 . S
O488 C489 1.232 . S
C489 O488 1.232 . S
C489 O490 1.218 . S
O490 C489 1.218 . S
C491 O484 1.275 . S
C491 O486 1.255 . S
C492 O493 1.258 . S
C492 O494 1.256 . S
O493 Cd485 2.381 . S
O493 C492 1.258 . S
O494 Cd485 2.378 . S
O494 C492 1.256 . S
O495 Cd496 2.300 1_556 S
O495 C502 1.275 . S
Cd496 O495 2.300 1_554 S
Cd496 O504 2.381 . S
Cd496 O505 2.378 . S
O497 Cd498 2.385 . S
O497 C502 1.255 . S
Cd498 O497 2.385 . S
Cd498 O499 2.317 . S
O499 Cd498 2.317 . S
O499 C500 1.232 . S
C500 O499 1.232 . S
C500 O501 1.218 . S
O501 C500 1.218 . S
C502 O495 1.275 . S
C502 O497 1.255 . S
C503 O504 1.258 . S
C503 O505 1.256 . S
O504 Cd496 2.381 . S
O504 C503 1.258 . S
O505 Cd496 2.378 . S
O505 C503 1.256 . S
O506 Cd507 2.300 . S
O506 C513 1.275 . S
Cd507 O506 2.300 . S
Cd507 O515 2.381 1_655 S
Cd507 O516 2.378 . S
O508 Cd509 2.385 . S
O508 C513 1.255 . S
Cd509 O508 2.385 . S
Cd509 O510 2.317 . S
O510 Cd509 2.317 . S
O510 C511 1.232 . S
C511 O510 1.232 . S
C511 O512 1.218 . S
O512 C511 1.218 . S
C513 O506 1.275 . S
C513 O508 1.255 . S
C514 O515 1.258 . S
C514 O516 1.256 1_455 S
O515 Cd507 2.381 1_455 S
O515 C514 1.258 . S
O516 Cd507 2.378 . S
O516 C514 1.256 1_655 S
O517 Cd518 2.300 . S
O517 C524 1.275 . S
Cd518 O517 2.300 . S
Cd518 O526 2.381 . S
Cd518 O527 2.378 . S
O519 Cd520 2.385 . S
O519 C524 1.255 . S
Cd520 O519 2.385 . S
Cd520 O521 2.317 . S
O521 Cd520 2.317 . S
O521 C522 1.232 . S
C522 O521 1.232 . S
C522 O523 1.218 . S
O523 C522 1.218 . S
C524 O517 1.275 . S
C524 O519 1.255 . S
C525 O526 1.258 . S
C525 O527 1.256 . S
O526 Cd518 2.381 . S
O526 C525 1.258 . S
O527 Cd518 2.378 . S
O527 C525 1.256 . S
H528 C536 0.950 . S
H529 C541 0.950 . S
H530 C538 0.950 . S
H531 C540 0.950 . S
H532 C542 0.950 . S
H533 C544 0.950 . S
H534 C546 0.950 . S
H535 C547 0.950 . S
C536 H528 0.950 . S
C536 C537 1.386 . S
C536 C538 1.391 . S
C537 C536 1.386 . S
C537 C541 1.393 . S
C538 H530 0.950 . S
C538 C536 1.391 . S
C538 C539 1.400 . S
C539 C538 1.400 . S
C539 C540 1.398 . S
C539 C545 1.491 . S
C540 H531 0.950 . S
C540 C539 1.398 . S
C540 C541 1.391 . S
C541 H529 0.950 . S
C541 C537 1.393 . S
C541 C540 1.391 . S
C542 H532 0.950 . S
C542 C543 1.386 . S
C542 C544 1.391 . S
C543 C542 1.386 . S
C543 C547 1.393 . S
C544 H533 0.950 . S
C544 C542 1.391 . S
C544 C545 1.400 . S
C545 C539 1.491 . S
C545 C544 1.400 . S
C545 C546 1.398 . S
C546 H534 0.950 . S
C546 C545 1.398 . S
C546 C547 1.391 . S
C547 H535 0.950 . S
C547 C543 1.393 . S
C547 C546 1.391 . S
H548 C556 0.950 . S
H549 C561 0.950 . S
H550 C558 0.950 . S
H551 C560 0.950 . S
H552 C562 0.950 . S
H553 C564 0.950 . S
H554 C566 0.950 . S
H555 C567 0.950 . S
C556 H548 0.950 . S
C556 C557 1.386 . S
C556 C558 1.391 . S
C557 C556 1.386 . S
C557 C561 1.393 . S
C558 H550 0.950 . S
C558 C556 1.391 . S
C558 C559 1.400 . S
C559 C558 1.400 . S
C559 C560 1.398 . S
C559 C565 1.491 . S
C560 H551 0.950 . S
C560 C559 1.398 . S
C560 C561 1.391 . S
C561 H549 0.950 . S
C561 C557 1.393 . S
C561 C560 1.391 . S
C562 H552 0.950 . S
C562 C563 1.386 . S
C562 C564 1.391 . S
C563 C562 1.386 . S
C563 C567 1.393 . S
C564 H553 0.950 . S
C564 C562 1.391 . S
C564 C565 1.400 . S
C565 C559 1.491 . S
C565 C564 1.400 . S
C565 C566 1.398 . S
C566 H554 0.950 . S
C566 C565 1.398 . S
C566 C567 1.391 . S
C567 H555 0.950 . S
C567 C563 1.393 . S
C567 C566 1.391 . S
H568 C576 0.950 . S
H569 C581 0.950 . S
H570 C578 0.950 . S
H571 C580 0.950 . S
H572 C582 0.950 . S
H573 C584 0.950 . S
H574 C586 0.950 . S
H575 C587 0.950 . S
C576 H568 0.950 . S
C576 C577 1.386 . S
C576 C578 1.391 . S
C577 C576 1.386 . S
C577 C581 1.393 . S
C578 H570 0.950 . S
C578 C576 1.391 . S
C578 C579 1.400 . S
C579 C578 1.400 . S
C579 C580 1.398 . S
C579 C585 1.491 . S
C580 H571 0.950 . S
C580 C579 1.398 . S
C580 C581 1.391 . S
C581 H569 0.950 . S
C581 C577 1.393 . S
C581 C580 1.391 . S
C582 H572 0.950 . S
C582 C583 1.386 . S
C582 C584 1.391 . S
C583 C582 1.386 . S
C583 C587 1.393 . S
C584 H573 0.950 . S
C584 C582 1.391 . S
C584 C585 1.400 . S
C585 C579 1.491 . S
C585 C584 1.400 . S
C585 C586 1.398 . S
C586 H574 0.950 . S
C586 C585 1.398 . S
C586 C587 1.391 . S
C587 H575 0.950 . S
C587 C583 1.393 . S
C587 C586 1.391 . S
H588 C596 0.950 . S
H589 C601 0.950 . S
H590 C598 0.950 . S
H591 C600 0.950 . S
H592 C602 0.950 . S
H593 C604 0.950 . S
H594 C606 0.950 . S
H595 C607 0.950 . S
C596 H588 0.950 . S
C596 C597 1.386 . S
C596 C598 1.391 . S
C597 C596 1.386 . S
C597 C601 1.393 . S
C598 H590 0.950 . S
C598 C596 1.391 . S
C598 C599 1.400 . S
C599 C598 1.400 . S
C599 C600 1.398 . S
C599 C605 1.491 . S
C600 H591 0.950 . S
C600 C599 1.398 . S
C600 C601 1.391 . S
C601 H589 0.950 . S
C601 C597 1.393 . S
C601 C600 1.391 . S
C602 H592 0.950 . S
C602 C603 1.386 . S
C602 C604 1.391 . S
C603 C602 1.386 . S
C603 C607 1.393 . S
C604 H593 0.950 . S
C604 C602 1.391 . S
C604 C605 1.400 . S
C605 C599 1.491 . S
C605 C604 1.400 . S
C605 C606 1.398 . S
C606 H594 0.950 . S
C606 C605 1.398 . S
C606 C607 1.391 . S
C607 H595 0.950 . S
C607 C603 1.393 . S
C607 C606 1.391 . S
H608 C616 0.950 . S
H609 C621 0.950 . S
H610 C618 0.950 . S
H611 C620 0.950 . S
H612 C622 0.950 . S
H613 C624 0.950 . S
H614 C626 0.950 . S
H615 C627 0.950 . S
C616 H608 0.950 . S
C616 C617 1.386 . S
C616 C618 1.391 . S
C617 C616 1.386 . S
C617 C621 1.393 . S
C618 H610 0.950 . S
C618 C616 1.391 . S
C618 C619 1.400 . S
C619 C618 1.400 . S
C619 C620 1.398 . S
C619 C625 1.491 . S
C620 H611 0.950 . S
C620 C619 1.398 . S
C620 C621 1.391 . S
C621 H609 0.950 . S
C621 C617 1.393 . S
C621 C620 1.391 . S
C622 H612 0.950 . S
C622 C623 1.386 . S
C622 C624 1.391 . S
C623 C622 1.386 . S
C623 C627 1.393 . S
C624 H613 0.950 . S
C624 C622 1.391 . S
C624 C625 1.400 . S
C625 C619 1.491 . S
C625 C624 1.400 . S
C625 C626 1.398 . S
C626 H614 0.950 . S
C626 C625 1.398 . S
C626 C627 1.391 . S
C627 H615 0.950 . S
C627 C623 1.393 . S
C627 C626 1.391 . S
H628 C636 0.950 . S
H629 C641 0.950 . S
H630 C638 0.950 . S
H631 C640 0.950 . S
H632 C642 0.950 . S
H633 C644 0.950 . S
H634 C646 0.950 . S
H635 C647 0.950 . S
C636 H628 0.950 . S
C636 C637 1.386 . S
C636 C638 1.391 . S
C637 C636 1.386 . S
C637 C641 1.393 . S
C638 H630 0.950 . S
C638 C636 1.391 . S
C638 C639 1.400 . S
C639 C638 1.400 . S
C639 C640 1.398 . S
C639 C645 1.491 . S
C640 H631 0.950 . S
C640 C639 1.398 . S
C640 C641 1.391 . S
C641 H629 0.950 . S
C641 C637 1.393 . S
C641 C640 1.391 . S
C642 H632 0.950 . S
C642 C643 1.386 . S
C642 C644 1.391 . S
C643 C642 1.386 . S
C643 C647 1.393 . S
C644 H633 0.950 . S
C644 C642 1.391 . S
C644 C645 1.400 . S
C645 C639 1.491 . S
C645 C644 1.400 . S
C645 C646 1.398 . S
C646 H634 0.950 . S
C646 C645 1.398 . S
C646 C647 1.391 . S
C647 H635 0.950 . S
C647 C643 1.393 . S
C647 C646 1.391 . S
H648 C656 0.950 . S
H649 C661 0.950 . S
H650 C658 0.950 . S
H651 C660 0.950 . S
H652 C662 0.950 . S
H653 C664 0.950 . S
H654 C666 0.950 . S
H655 C667 0.950 . S
C656 H648 0.950 . S
C656 C657 1.386 . S
C656 C658 1.391 . S
C657 C656 1.386 . S
C657 C661 1.393 . S
C658 H650 0.950 . S
C658 C656 1.391 . S
C658 C659 1.400 . S
C659 C658 1.400 . S
C659 C660 1.398 . S
C659 C665 1.491 . S
C660 H651 0.950 . S
C660 C659 1.398 . S
C660 C661 1.391 . S
C661 H649 0.950 . S
C661 C657 1.393 . S
C661 C660 1.391 . S
C662 H652 0.950 . S
C662 C663 1.386 . S
C662 C664 1.391 . S
C663 C662 1.386 . S
C663 C667 1.393 . S
C664 H653 0.950 . S
C664 C662 1.391 . S
C664 C665 1.400 . S
C665 C659 1.491 . S
C665 C664 1.400 . S
C665 C666 1.398 . S
C666 H654 0.950 . S
C666 C665 1.398 . S
C666 C667 1.391 . S
C667 H655 0.950 . S
C667 C663 1.393 . S
C667 C666 1.391 . S
H668 C676 0.950 . S
H669 C681 0.950 . S
H670 C678 0.950 . S
H671 C680 0.950 . S
H672 C682 0.950 . S
H673 C684 0.950 . S
H674 C686 0.950 . S
H675 C687 0.950 . S
C676 H668 0.950 . S
C676 C677 1.386 . S
C676 C678 1.391 . S
C677 C676 1.386 . S
C677 C681 1.393 . S
C678 H670 0.950 . S
C678 C676 1.391 . S
C678 C679 1.400 . S
C679 C678 1.400 . S
C679 C680 1.398 . S
C679 C685 1.491 . S
C680 H671 0.950 . S
C680 C679 1.398 . S
C680 C681 1.391 . S
C681 H669 0.950 . S
C681 C677 1.393 . S
C681 C680 1.391 . S
C682 H672 0.950 . S
C682 C683 1.386 . S
C682 C684 1.391 . S
C683 C682 1.386 . S
C683 C687 1.393 . S
C684 H673 0.950 . S
C684 C682 1.391 . S
C684 C685 1.400 . S
C685 C679 1.491 . S
C685 C684 1.400 . S
C685 C686 1.398 . S
C686 H674 0.950 . S
C686 C685 1.398 . S
C686 C687 1.391 . S
C687 H675 0.950 . S
C687 C683 1.393 . S
C687 C686 1.391 . S
H688 C696 0.950 . S
H689 C701 0.950 . S
H690 C698 0.950 . S
H691 C700 0.950 . S
H692 C702 0.950 . S
H693 C704 0.950 . S
H694 C706 0.950 . S
H695 C707 0.950 . S
C696 H688 0.950 . S
C696 C697 1.386 . S
C696 C698 1.391 . S
C697 C696 1.386 . S
C697 C701 1.393 . S
C698 H690 0.950 . S
C698 C696 1.391 . S
C698 C699 1.400 . S
C699 C698 1.400 . S
C699 C700 1.398 . S
C699 C705 1.491 . S
C700 H691 0.950 . S
C700 C699 1.398 . S
C700 C701 1.391 . S
C701 H689 0.950 . S
C701 C697 1.393 . S
C701 C700 1.391 . S
C702 H692 0.950 . S
C702 C703 1.386 . S
C702 C704 1.391 . S
C703 C702 1.386 . S
C703 C707 1.393 . S
C704 H693 0.950 . S
C704 C702 1.391 . S
C704 C705 1.400 . S
C705 C699 1.491 . S
C705 C704 1.400 . S
C705 C706 1.398 . S
C706 H694 0.950 . S
C706 C705 1.398 . S
C706 C707 1.391 . S
C707 H695 0.950 . S
C707 C703 1.393 . S
C707 C706 1.391 . S
H708 C716 0.950 . S
H709 C721 0.950 . S
H710 C718 0.950 . S
H711 C720 0.950 . S
H712 C722 0.950 . S
H713 C724 0.950 . S
H714 C726 0.950 . S
H715 C727 0.950 . S
C716 H708 0.950 . S
C716 C717 1.386 . S
C716 C718 1.391 . S
C717 C716 1.386 . S
C717 C721 1.393 . S
C718 H710 0.950 . S
C718 C716 1.391 . S
C718 C719 1.400 . S
C719 C718 1.400 . S
C719 C720 1.398 . S
C719 C725 1.491 . S
C720 H711 0.950 . S
C720 C719 1.398 . S
C720 C721 1.391 . S
C721 H709 0.950 . S
C721 C717 1.393 . S
C721 C720 1.391 . S
C722 H712 0.950 . S
C722 C723 1.386 . S
C722 C724 1.391 . S
C723 C722 1.386 . S
C723 C727 1.393 . S
C724 H713 0.950 . S
C724 C722 1.391 . S
C724 C725 1.400 . S
C725 C719 1.491 . S
C725 C724 1.400 . S
C725 C726 1.398 . S
C726 H714 0.950 . S
C726 C725 1.398 . S
C726 C727 1.391 . S
C727 H715 0.950 . S
C727 C723 1.393 . S
C727 C726 1.391 . S
H728 C736 0.950 . S
H729 C741 0.950 . S
H730 C738 0.950 . S
H731 C740 0.950 . S
H732 C742 0.950 . S
H733 C744 0.950 . S
H734 C746 0.950 . S
H735 C747 0.950 . S
C736 H728 0.950 . S
C736 C737 1.386 . S
C736 C738 1.391 . S
C737 C736 1.386 . S
C737 C741 1.393 . S
C738 H730 0.950 . S
C738 C736 1.391 . S
C738 C739 1.400 . S
C739 C738 1.400 . S
C739 C740 1.398 . S
C739 C745 1.491 . S
C740 H731 0.950 . S
C740 C739 1.398 . S
C740 C741 1.391 . S
C741 H729 0.950 . S
C741 C737 1.393 . S
C741 C740 1.391 . S
C742 H732 0.950 . S
C742 C743 1.386 . S
C742 C744 1.391 . S
C743 C742 1.386 . S
C743 C747 1.393 . S
C744 H733 0.950 . S
C744 C742 1.391 . S
C744 C745 1.400 . S
C745 C739 1.491 . S
C745 C744 1.400 . S
C745 C746 1.398 . S
C746 H734 0.950 . S
C746 C745 1.398 . S
C746 C747 1.391 . S
C747 H735 0.950 . S
C747 C743 1.393 . S
C747 C746 1.391 . S
H748 C756 0.950 . S
H749 C761 0.950 . S
H750 C758 0.950 . S
H751 C760 0.950 . S
H752 C762 0.950 . S
H753 C764 0.950 . S
H754 C766 0.950 . S
H755 C767 0.950 . S
C756 H748 0.950 . S
C756 C757 1.386 . S
C756 C758 1.391 . S
C757 C756 1.386 . S
C757 C761 1.393 . S
C758 H750 0.950 . S
C758 C756 1.391 . S
C758 C759 1.400 . S
C759 C758 1.400 . S
C759 C760 1.398 . S
C759 C765 1.491 . S
C760 H751 0.950 . S
C760 C759 1.398 . S
C760 C761 1.391 . S
C761 H749 0.950 . S
C761 C757 1.393 . S
C761 C760 1.391 . S
C762 H752 0.950 . S
C762 C763 1.386 . S
C762 C764 1.391 . S
C763 C762 1.386 . S
C763 C767 1.393 . S
C764 H753 0.950 . S
C764 C762 1.391 . S
C764 C765 1.400 . S
C765 C759 1.491 . S
C765 C764 1.400 . S
C765 C766 1.398 . S
C766 H754 0.950 . S
C766 C765 1.398 . S
C766 C767 1.391 . S
C767 H755 0.950 . S
C767 C763 1.393 . S
C767 C766 1.391 . S
H768 C776 0.950 . S
H769 C781 0.950 . S
H770 C778 0.950 . S
H771 C780 0.950 . S
H772 C782 0.950 . S
H773 C784 0.950 . S
H774 C786 0.950 . S
H775 C787 0.950 . S
C776 H768 0.950 . S
C776 C777 1.386 . S
C776 C778 1.391 . S
C777 C776 1.386 . S
C777 C781 1.393 . S
C778 H770 0.950 . S
C778 C776 1.391 . S
C778 C779 1.400 . S
C779 C778 1.400 . S
C779 C780 1.398 . S
C779 C785 1.491 . S
C780 H771 0.950 . S
C780 C779 1.398 . S
C780 C781 1.391 . S
C781 H769 0.950 . S
C781 C777 1.393 . S
C781 C780 1.391 . S
C782 H772 0.950 . S
C782 C783 1.386 . S
C782 C784 1.391 . S
C783 C782 1.386 . S
C783 C787 1.393 . S
C784 H773 0.950 . S
C784 C782 1.391 . S
C784 C785 1.400 . S
C785 C779 1.491 . S
C785 C784 1.400 . S
C785 C786 1.398 . S
C786 H774 0.950 . S
C786 C785 1.398 . S
C786 C787 1.391 . S
C787 H775 0.950 . S
C787 C783 1.393 . S
C787 C786 1.391 . S
H788 C796 0.950 . S
H789 C801 0.950 . S
H790 C798 0.950 . S
H791 C800 0.950 . S
H792 C802 0.950 . S
H793 C804 0.950 . S
H794 C806 0.950 . S
H795 C807 0.950 . S
C796 H788 0.950 . S
C796 C797 1.386 . S
C796 C798 1.391 . S
C797 C796 1.386 . S
C797 C801 1.393 . S
C798 H790 0.950 . S
C798 C796 1.391 . S
C798 C799 1.400 . S
C799 C798 1.400 . S
C799 C800 1.398 . S
C799 C805 1.491 . S
C800 H791 0.950 . S
C800 C799 1.398 . S
C800 C801 1.391 . S
C801 H789 0.950 . S
C801 C797 1.393 . S
C801 C800 1.391 . S
C802 H792 0.950 . S
C802 C803 1.386 . S
C802 C804 1.391 . S
C803 C802 1.386 . S
C803 C807 1.393 . S
C804 H793 0.950 . S
C804 C802 1.391 . S
C804 C805 1.400 . S
C805 C799 1.491 . S
C805 C804 1.400 . S
C805 C806 1.398 . S
C806 H794 0.950 . S
C806 C805 1.398 . S
C806 C807 1.391 . S
C807 H795 0.950 . S
C807 C803 1.393 . S
C807 C806 1.391 . S
H808 C816 0.950 . S
H809 C821 0.950 . S
H810 C818 0.950 . S
H811 C820 0.950 . S
H812 C822 0.950 . S
H813 C824 0.950 . S
H814 C826 0.950 . S
H815 C827 0.950 . S
C816 H808 0.950 . S
C816 C817 1.386 . S
C816 C818 1.391 . S
C817 C816 1.386 . S
C817 C821 1.393 . S
C818 H810 0.950 . S
C818 C816 1.391 . S
C818 C819 1.400 . S
C819 C818 1.400 . S
C819 C820 1.398 . S
C819 C825 1.491 . S
C820 H811 0.950 . S
C820 C819 1.398 . S
C820 C821 1.391 . S
C821 H809 0.950 . S
C821 C817 1.393 . S
C821 C820 1.391 . S
C822 H812 0.950 . S
C822 C823 1.386 . S
C822 C824 1.391 . S
C823 C822 1.386 . S
C823 C827 1.393 . S
C824 H813 0.950 . S
C824 C822 1.391 . S
C824 C825 1.400 . S
C825 C819 1.491 . S
C825 C824 1.400 . S
C825 C826 1.398 . S
C826 H814 0.950 . S
C826 C825 1.398 . S
C826 C827 1.391 . S
C827 H815 0.950 . S
C827 C823 1.393 . S
C827 C826 1.391 . S
H828 C836 0.950 . S
H829 C841 0.950 . S
H830 C838 0.950 . S
H831 C840 0.950 . S
H832 C842 0.950 . S
H833 C844 0.950 . S
H834 C846 0.950 . S
H835 C847 0.950 . S
C836 H828 0.950 . S
C836 C837 1.386 . S
C836 C838 1.391 . S
C837 C836 1.386 . S
C837 C841 1.393 . S
C838 H830 0.950 . S
C838 C836 1.391 . S
C838 C839 1.400 . S
C839 C838 1.400 . S
C839 C840 1.398 . S
C839 C845 1.491 . S
C840 H831 0.950 . S
C840 C839 1.398 . S
C840 C841 1.391 . S
C841 H829 0.950 . S
C841 C837 1.393 . S
C841 C840 1.391 . S
C842 H832 0.950 . S
C842 C843 1.386 . S
C842 C844 1.391 . S
C843 C842 1.386 . S
C843 C847 1.393 . S
C844 H833 0.950 . S
C844 C842 1.391 . S
C844 C845 1.400 . S
C845 C839 1.491 . S
C845 C844 1.400 . S
C845 C846 1.398 . S
C846 H834 0.950 . S
C846 C845 1.398 . S
C846 C847 1.391 . S
C847 H835 0.950 . S
C847 C843 1.393 . S
C847 C846 1.391 . S
H848 C856 0.950 . S
H849 C861 0.950 . S
H850 C858 0.950 . S
H851 C860 0.950 . S
H852 C862 0.950 . S
H853 C864 0.950 . S
H854 C866 0.950 . S
H855 C867 0.950 . S
C856 H848 0.950 . S
C856 C857 1.386 . S
C856 C858 1.391 . S
C857 C856 1.386 . S
C857 C861 1.393 . S
C858 H850 0.950 . S
C858 C856 1.391 . S
C858 C859 1.400 . S
C859 C858 1.400 . S
C859 C860 1.398 . S
C859 C865 1.491 . S
C860 H851 0.950 . S
C860 C859 1.398 . S
C860 C861 1.391 . S
C861 H849 0.950 . S
C861 C857 1.393 . S
C861 C860 1.391 . S
C862 H852 0.950 . S
C862 C863 1.386 . S
C862 C864 1.391 . S
C863 C862 1.386 . S
C863 C867 1.393 . S
C864 H853 0.950 . S
C864 C862 1.391 . S
C864 C865 1.400 . S
C865 C859 1.491 . S
C865 C864 1.400 . S
C865 C866 1.398 . S
C866 H854 0.950 . S
C866 C865 1.398 . S
C866 C867 1.391 . S
C867 H855 0.950 . S
C867 C863 1.393 . S
C867 C866 1.391 . S
H868 C876 0.950 . S
H869 C881 0.950 . S
H870 C878 0.950 . S
H871 C880 0.950 . S
H872 C882 0.950 . S
H873 C884 0.950 . S
H874 C886 0.950 . S
H875 C887 0.950 . S
C876 H868 0.950 . S
C876 C877 1.386 . S
C876 C878 1.391 . S
C877 C876 1.386 . S
C877 C881 1.393 . S
C878 H870 0.950 . S
C878 C876 1.391 . S
C878 C879 1.400 . S
C879 C878 1.400 . S
C879 C880 1.398 . S
C879 C885 1.491 . S
C880 H871 0.950 . S
C880 C879 1.398 . S
C880 C881 1.391 . S
C881 H869 0.950 . S
C881 C877 1.393 . S
C881 C880 1.391 . S
C882 H872 0.950 . S
C882 C883 1.386 . S
C882 C884 1.391 . S
C883 C882 1.386 . S
C883 C887 1.393 . S
C884 H873 0.950 . S
C884 C882 1.391 . S
C884 C885 1.400 . S
C885 C879 1.491 . S
C885 C884 1.400 . S
C885 C886 1.398 . S
C886 H874 0.950 . S
C886 C885 1.398 . S
C886 C887 1.391 . S
C887 H875 0.950 . S
C887 C883 1.393 . S
C887 C886 1.391 . S
H888 C896 0.950 . S
H889 C901 0.950 . S
H890 C898 0.950 . S
H891 C900 0.950 . S
H892 C902 0.950 . S
H893 C904 0.950 . S
H894 C906 0.950 . S
H895 C907 0.950 . S
C896 H888 0.950 . S
C896 C897 1.386 . S
C896 C898 1.391 . S
C897 C896 1.386 . S
C897 C901 1.393 . S
C898 H890 0.950 . S
C898 C896 1.391 . S
C898 C899 1.400 . S
C899 C898 1.400 . S
C899 C900 1.398 . S
C899 C905 1.491 . S
C900 H891 0.950 . S
C900 C899 1.398 . S
C900 C901 1.391 . S
C901 H889 0.950 . S
C901 C897 1.393 . S
C901 C900 1.391 . S
C902 H892 0.950 . S
C902 C903 1.386 . S
C902 C904 1.391 . S
C903 C902 1.386 . S
C903 C907 1.393 . S
C904 H893 0.950 . S
C904 C902 1.391 . S
C904 C905 1.400 . S
C905 C899 1.491 . S
C905 C904 1.400 . S
C905 C906 1.398 . S
C906 H894 0.950 . S
C906 C905 1.398 . S
C906 C907 1.391 . S
C907 H895 0.950 . S
C907 C903 1.393 . S
C907 C906 1.391 . S
H908 C916 0.950 . S
H909 C921 0.950 . S
H910 C918 0.950 . S
H911 C920 0.950 . S
H912 C922 0.950 . S
H913 C924 0.950 . S
H914 C926 0.950 . S
H915 C927 0.950 . S
C916 H908 0.950 . S
C916 C917 1.386 . S
C916 C918 1.391 . S
C917 C916 1.386 . S
C917 C921 1.393 . S
C918 H910 0.950 . S
C918 C916 1.391 . S
C918 C919 1.400 . S
C919 C918 1.400 . S
C919 C920 1.398 . S
C919 C925 1.491 . S
C920 H911 0.950 . S
C920 C919 1.398 . S
C920 C921 1.391 . S
C921 H909 0.950 . S
C921 C917 1.393 . S
C921 C920 1.391 . S
C922 H912 0.950 . S
C922 C923 1.386 . S
C922 C924 1.391 . S
C923 C922 1.386 . S
C923 C927 1.393 . S
C924 H913 0.950 . S
C924 C922 1.391 . S
C924 C925 1.400 . S
C925 C919 1.491 . S
C925 C924 1.400 . S
C925 C926 1.398 . S
C926 H914 0.950 . S
C926 C925 1.398 . S
C926 C927 1.391 . S
C927 H915 0.950 . S
C927 C923 1.393 . S
C927 C926 1.391 . S
H928 C936 0.950 . S
H929 C941 0.950 . S
H930 C938 0.950 . S
H931 C940 0.950 . S
H932 C942 0.950 . S
H933 C944 0.950 . S
H934 C946 0.950 . S
H935 C947 0.950 . S
C936 H928 0.950 . S
C936 C937 1.386 . S
C936 C938 1.391 . S
C937 C936 1.386 . S
C937 C941 1.393 . S
C938 H930 0.950 . S
C938 C936 1.391 . S
C938 C939 1.400 . S
C939 C938 1.400 . S
C939 C940 1.398 . S
C939 C945 1.491 . S
C940 H931 0.950 . S
C940 C939 1.398 . S
C940 C941 1.391 . S
C941 H929 0.950 . S
C941 C937 1.393 . S
C941 C940 1.391 . S
C942 H932 0.950 . S
C942 C943 1.386 . S
C942 C944 1.391 . S
C943 C942 1.386 . S
C943 C947 1.393 . S
C944 H933 0.950 . S
C944 C942 1.391 . S
C944 C945 1.400 . S
C945 C939 1.491 . S
C945 C944 1.400 . S
C945 C946 1.398 . S
C946 H934 0.950 . S
C946 C945 1.398 . S
C946 C947 1.391 . S
C947 H935 0.950 . S
C947 C943 1.393 . S
C947 C946 1.391 . S
H948 C956 0.950 . S
H949 C961 0.950 . S
H950 C958 0.950 . S
H951 C960 0.950 . S
H952 C962 0.950 . S
H953 C964 0.950 . S
H954 C966 0.950 . S
H955 C967 0.950 . S
C956 H948 0.950 . S
C956 C957 1.386 . S
C956 C958 1.391 . S
C957 C956 1.386 . S
C957 C961 1.393 . S
C958 H950 0.950 . S
C958 C956 1.391 . S
C958 C959 1.400 . S
C959 C958 1.400 . S
C959 C960 1.398 . S
C959 C965 1.491 . S
C960 H951 0.950 . S
C960 C959 1.398 . S
C960 C961 1.391 . S
C961 H949 0.950 . S
C961 C957 1.393 . S
C961 C960 1.391 . S
C962 H952 0.950 . S
C962 C963 1.386 . S
C962 C964 1.391 . S
C963 C962 1.386 . S
C963 C967 1.393 . S
C964 H953 0.950 . S
C964 C962 1.391 . S
C964 C965 1.400 . S
C965 C959 1.491 . S
C965 C964 1.400 . S
C965 C966 1.398 . S
C966 H954 0.950 . S
C966 C965 1.398 . S
C966 C967 1.391 . S
C967 H955 0.950 . S
C967 C963 1.393 . S
C967 C966 1.391 . S
H968 C976 0.950 . S
H969 C981 0.950 . S
H970 C978 0.950 . S
H971 C980 0.950 . S
H972 C982 0.950 . S
H973 C984 0.950 . S
H974 C986 0.950 . S
H975 C987 0.950 . S
C976 H968 0.950 . S
C976 C977 1.386 . S
C976 C978 1.391 . S
C977 C976 1.386 . S
C977 C981 1.393 . S
C978 H970 0.950 . S
C978 C976 1.391 . S
C978 C979 1.400 . S
C979 C978 1.400 . S
C979 C980 1.398 . S
C979 C985 1.491 . S
C980 H971 0.950 . S
C980 C979 1.398 . S
C980 C981 1.391 . S
C981 H969 0.950 . S
C981 C977 1.393 . S
C981 C980 1.391 . S
C982 H972 0.950 . S
C982 C983 1.386 . S
C982 C984 1.391 . S
C983 C982 1.386 . S
C983 C987 1.393 . S
C984 H973 0.950 . S
C984 C982 1.391 . S
C984 C985 1.400 . S
C985 C979 1.491 . S
C985 C984 1.400 . S
C985 C986 1.398 . S
C986 H974 0.950 . S
C986 C985 1.398 . S
C986 C987 1.391 . S
C987 H975 0.950 . S
C987 C983 1.393 . S
C987 C986 1.391 . S
H988 C996 0.950 . S
H989 C1001 0.950 . S
H990 C998 0.950 . S
H991 C1000 0.950 . S
H992 C1002 0.950 . S
H993 C1004 0.950 . S
H994 C1006 0.950 . S
H995 C1007 0.950 . S
C996 H988 0.950 . S
C996 C997 1.386 . S
C996 C998 1.391 . S
C997 C996 1.386 . S
C997 C1001 1.393 . S
C998 H990 0.950 . S
C998 C996 1.391 . S
C998 C999 1.400 . S
C999 C998 1.400 . S
C999 C1000 1.398 . S
C999 C1005 1.491 . S
C1000 H991 0.950 . S
C1000 C999 1.398 . S
C1000 C1001 1.391 . S
C1001 H989 0.950 . S
C1001 C997 1.393 . S
C1001 C1000 1.391 . S
C1002 H992 0.950 . S
C1002 C1003 1.386 . S
C1002 C1004 1.391 . S
C1003 C1002 1.386 . S
C1003 C1007 1.393 . S
C1004 H993 0.950 . S
C1004 C1002 1.391 . S
C1004 C1005 1.400 . S
C1005 C999 1.491 . S
C1005 C1004 1.400 . S
C1005 C1006 1.398 . S
C1006 H994 0.950 . S
C1006 C1005 1.398 . S
C1006 C1007 1.391 . S
C1007 H995 0.950 . S
C1007 C1003 1.393 . S
C1007 C1006 1.391 . S
H1008 C1016 0.950 . S
H1009 C1021 0.950 . S
H1010 C1018 0.950 . S
H1011 C1020 0.950 . S
H1012 C1022 0.950 . S
H1013 C1024 0.950 . S
H1014 C1026 0.950 . S
H1015 C1027 0.950 . S
C1016 H1008 0.950 . S
C1016 C1017 1.386 . S
C1016 C1018 1.391 . S
C1017 C1016 1.386 . S
C1017 C1021 1.393 . S
C1018 H1010 0.950 . S
C1018 C1016 1.391 . S
C1018 C1019 1.400 . S
C1019 C1018 1.400 . S
C1019 C1020 1.398 . S
C1019 C1025 1.491 . S
C1020 H1011 0.950 . S
C1020 C1019 1.398 . S
C1020 C1021 1.391 . S
C1021 H1009 0.950 . S
C1021 C1017 1.393 . S
C1021 C1020 1.391 . S
C1022 H1012 0.950 . S
C1022 C1023 1.386 . S
C1022 C1024 1.391 . S
C1023 C1022 1.386 . S
C1023 C1027 1.393 . S
C1024 H1013 0.950 . S
C1024 C1022 1.391 . S
C1024 C1025 1.400 . S
C1025 C1019 1.491 . S
C1025 C1024 1.400 . S
C1025 C1026 1.398 . S
C1026 H1014 0.950 . S
C1026 C1025 1.398 . S
C1026 C1027 1.391 . S
C1027 H1015 0.950 . S
C1027 C1023 1.393 . S
C1027 C1026 1.391 . S
H1028 C1036 0.950 . S
H1029 C1041 0.950 . S
H1030 C1038 0.950 . S
H1031 C1040 0.950 . S
H1032 C1042 0.950 . S
H1033 C1044 0.950 . S
H1034 C1046 0.950 . S
H1035 C1047 0.950 . S
C1036 H1028 0.950 . S
C1036 C1037 1.386 . S
C1036 C1038 1.391 . S
C1037 C1036 1.386 . S
C1037 C1041 1.393 . S
C1038 H1030 0.950 . S
C1038 C1036 1.391 . S
C1038 C1039 1.400 . S
C1039 C1038 1.400 . S
C1039 C1040 1.398 . S
C1039 C1045 1.491 . S
C1040 H1031 0.950 . S
C1040 C1039 1.398 . S
C1040 C1041 1.391 . S
C1041 H1029 0.950 . S
C1041 C1037 1.393 . S
C1041 C1040 1.391 . S
C1042 H1032 0.950 . S
C1042 C1043 1.386 . S
C1042 C1044 1.391 . S
C1043 C1042 1.386 . S
C1043 C1047 1.393 . S
C1044 H1033 0.950 . S
C1044 C1042 1.391 . S
C1044 C1045 1.400 . S
C1045 C1039 1.491 . S
C1045 C1044 1.400 . S
C1045 C1046 1.398 . S
C1046 H1034 0.950 . S
C1046 C1045 1.398 . S
C1046 C1047 1.391 . S
C1047 H1035 0.950 . S
C1047 C1043 1.393 . S
C1047 C1046 1.391 . S
H1048 C1056 0.950 . S
H1049 C1061 0.950 . S
H1050 C1058 0.950 . S
H1051 C1060 0.950 . S
H1052 C1062 0.950 . S
H1053 C1064 0.950 . S
H1054 C1066 0.950 . S
H1055 C1067 0.950 . S
C1056 H1048 0.950 . S
C1056 C1057 1.386 . S
C1056 C1058 1.391 . S
C1057 C1056 1.386 . S
C1057 C1061 1.393 . S
C1058 H1050 0.950 . S
C1058 C1056 1.391 . S
C1058 C1059 1.400 . S
C1059 C1058 1.400 . S
C1059 C1060 1.398 . S
C1059 C1065 1.491 . S
C1060 H1051 0.950 . S
C1060 C1059 1.398 . S
C1060 C1061 1.391 . S
C1061 H1049 0.950 . S
C1061 C1057 1.393 . S
C1061 C1060 1.391 . S
C1062 H1052 0.950 . S
C1062 C1063 1.386 . S
C1062 C1064 1.391 . S
C1063 C1062 1.386 . S
C1063 C1067 1.393 . S
C1064 H1053 0.950 . S
C1064 C1062 1.391 . S
C1064 C1065 1.400 . S
C1065 C1059 1.491 . S
C1065 C1064 1.400 . S
C1065 C1066 1.398 . S
C1066 H1054 0.950 . S
C1066 C1065 1.398 . S
C1066 C1067 1.391 . S
C1067 H1055 0.950 . S
C1067 C1063 1.393 . S
C1067 C1066 1.391 . S
H1068 C1076 0.950 . S
H1069 C1081 0.950 . S
H1070 C1078 0.950 . S
H1071 C1080 0.950 . S
H1072 C1082 0.950 . S
H1073 C1084 0.950 . S
H1074 C1086 0.950 . S
H1075 C1087 0.950 . S
C1076 H1068 0.950 . S
C1076 C1077 1.386 . S
C1076 C1078 1.391 . S
C1077 C1076 1.386 . S
C1077 C1081 1.393 . S
C1078 H1070 0.950 . S
C1078 C1076 1.391 . S
C1078 C1079 1.400 . S
C1079 C1078 1.400 . S
C1079 C1080 1.398 . S
C1079 C1085 1.491 . S
C1080 H1071 0.950 . S
C1080 C1079 1.398 . S
C1080 C1081 1.391 . S
C1081 H1069 0.950 . S
C1081 C1077 1.393 . S
C1081 C1080 1.391 . S
C1082 H1072 0.950 . S
C1082 C1083 1.386 . S
C1082 C1084 1.391 . S
C1083 C1082 1.386 . S
C1083 C1087 1.393 . S
C1084 H1073 0.950 . S
C1084 C1082 1.391 . S
C1084 C1085 1.400 . S
C1085 C1079 1.491 . S
C1085 C1084 1.400 . S
C1085 C1086 1.398 . S
C1086 H1074 0.950 . S
C1086 C1085 1.398 . S
C1086 C1087 1.391 . S
C1087 H1075 0.950 . S
C1087 C1083 1.393 . S
C1087 C1086 1.391 . S
H1088 C1096 0.950 . S
H1089 C1101 0.950 . S
H1090 C1098 0.950 . S
H1091 C1100 0.950 . S
H1092 C1102 0.950 . S
H1093 C1104 0.950 . S
H1094 C1106 0.950 . S
H1095 C1107 0.950 . S
C1096 H1088 0.950 . S
C1096 C1097 1.386 . S
C1096 C1098 1.391 . S
C1097 C1096 1.386 . S
C1097 C1101 1.393 . S
C1098 H1090 0.950 . S
C1098 C1096 1.391 . S
C1098 C1099 1.400 . S
C1099 C1098 1.400 . S
C1099 C1100 1.398 . S
C1099 C1105 1.491 . S
C1100 H1091 0.950 . S
C1100 C1099 1.398 . S
C1100 C1101 1.391 . S
C1101 H1089 0.950 . S
C1101 C1097 1.393 . S
C1101 C1100 1.391 . S
C1102 H1092 0.950 . S
C1102 C1103 1.386 . S
C1102 C1104 1.391 . S
C1103 C1102 1.386 . S
C1103 C1107 1.393 . S
C1104 H1093 0.950 . S
C1104 C1102 1.391 . S
C1104 C1105 1.400 . S
C1105 C1099 1.491 . S
C1105 C1104 1.400 . S
C1105 C1106 1.398 . S
C1106 H1094 0.950 . S
C1106 C1105 1.398 . S
C1106 C1107 1.391 . S
C1107 H1095 0.950 . S
C1107 C1103 1.393 . S
C1107 C1106 1.391 . S
H1108 C1116 0.950 . S
H1109 C1121 0.950 . S
H1110 C1118 0.950 . S
H1111 C1120 0.950 . S
H1112 C1122 0.950 . S
H1113 C1124 0.950 . S
H1114 C1126 0.950 . S
H1115 C1127 0.950 . S
C1116 H1108 0.950 . S
C1116 C1117 1.386 . S
C1116 C1118 1.391 . S
C1117 C1116 1.386 . S
C1117 C1121 1.393 . S
C1118 H1110 0.950 . S
C1118 C1116 1.391 . S
C1118 C1119 1.400 . S
C1119 C1118 1.400 . S
C1119 C1120 1.398 . S
C1119 C1125 1.491 . S
C1120 H1111 0.950 . S
C1120 C1119 1.398 . S
C1120 C1121 1.391 . S
C1121 H1109 0.950 . S
C1121 C1117 1.393 . S
C1121 C1120 1.391 . S
C1122 H1112 0.950 . S
C1122 C1123 1.386 . S
C1122 C1124 1.391 . S
C1123 C1122 1.386 . S
C1123 C1127 1.393 . S
C1124 H1113 0.950 . S
C1124 C1122 1.391 . S
C1124 C1125 1.400 . S
C1125 C1119 1.491 . S
C1125 C1124 1.400 . S
C1125 C1126 1.398 . S
C1126 H1114 0.950 . S
C1126 C1125 1.398 . S
C1126 C1127 1.391 . S
C1127 H1115 0.950 . S
C1127 C1123 1.393 . S
C1127 C1126 1.391 . S
H1128 C1136 0.950 . S
H1129 C1141 0.950 . S
H1130 C1138 0.950 . S
H1131 C1140 0.950 . S
H1132 C1142 0.950 . S
H1133 C1144 0.950 . S
H1134 C1146 0.950 . S
H1135 C1147 0.950 . S
C1136 H1128 0.950 . S
C1136 C1137 1.386 . S
C1136 C1138 1.391 . S
C1137 C1136 1.386 . S
C1137 C1141 1.393 . S
C1138 H1130 0.950 . S
C1138 C1136 1.391 . S
C1138 C1139 1.400 . S
C1139 C1138 1.400 . S
C1139 C1140 1.398 . S
C1139 C1145 1.491 . S
C1140 H1131 0.950 . S
C1140 C1139 1.398 . S
C1140 C1141 1.391 . S
C1141 H1129 0.950 . S
C1141 C1137 1.393 . S
C1141 C1140 1.391 . S
C1142 H1132 0.950 . S
C1142 C1143 1.386 . S
C1142 C1144 1.391 . S
C1143 C1142 1.386 . S
C1143 C1147 1.393 . S
C1144 H1133 0.950 . S
C1144 C1142 1.391 . S
C1144 C1145 1.400 . S
C1145 C1139 1.491 . S
C1145 C1144 1.400 . S
C1145 C1146 1.398 . S
C1146 H1134 0.950 . S
C1146 C1145 1.398 . S
C1146 C1147 1.391 . S
C1147 H1135 0.950 . S
C1147 C1143 1.393 . S
C1147 C1146 1.391 . S
H1148 C1156 0.950 . S
H1149 C1161 0.950 . S
H1150 C1158 0.950 . S
H1151 C1160 0.950 . S
H1152 C1162 0.950 . S
H1153 C1164 0.950 . S
H1154 C1166 0.950 . S
H1155 C1167 0.950 . S
C1156 H1148 0.950 . S
C1156 C1157 1.386 . S
C1156 C1158 1.391 . S
C1157 C1156 1.386 . S
C1157 C1161 1.393 . S
C1158 H1150 0.950 . S
C1158 C1156 1.391 . S
C1158 C1159 1.400 . S
C1159 C1158 1.400 . S
C1159 C1160 1.398 . S
C1159 C1165 1.491 . S
C1160 H1151 0.950 . S
C1160 C1159 1.398 . S
C1160 C1161 1.391 . S
C1161 H1149 0.950 . S
C1161 C1157 1.393 . S
C1161 C1160 1.391 . S
C1162 H1152 0.950 . S
C1162 C1163 1.386 . S
C1162 C1164 1.391 . S
C1163 C1162 1.386 . S
C1163 C1167 1.393 . S
C1164 H1153 0.950 . S
C1164 C1162 1.391 . S
C1164 C1165 1.400 . S
C1165 C1159 1.491 . S
C1165 C1164 1.400 . S
C1165 C1166 1.398 . S
C1166 H1154 0.950 . S
C1166 C1165 1.398 . S
C1166 C1167 1.391 . S
C1167 H1155 0.950 . S
C1167 C1163 1.393 . S
C1167 C1166 1.391 . S
H1168 C1176 0.950 . S
H1169 C1181 0.950 . S
H1170 C1178 0.950 . S
H1171 C1180 0.950 . S
H1172 C1182 0.950 . S
H1173 C1184 0.950 . S
H1174 C1186 0.950 . S
H1175 C1187 0.950 . S
C1176 H1168 0.950 . S
C1176 C1177 1.386 . S
C1176 C1178 1.391 . S
C1177 C1176 1.386 . S
C1177 C1181 1.393 . S
C1178 H1170 0.950 . S
C1178 C1176 1.391 . S
C1178 C1179 1.400 . S
C1179 C1178 1.400 . S
C1179 C1180 1.398 . S
C1179 C1185 1.491 . S
C1180 H1171 0.950 . S
C1180 C1179 1.398 . S
C1180 C1181 1.391 . S
C1181 H1169 0.950 . S
C1181 C1177 1.393 . S
C1181 C1180 1.391 . S
C1182 H1172 0.950 . S
C1182 C1183 1.386 . S
C1182 C1184 1.391 . S
C1183 C1182 1.386 . S
C1183 C1187 1.393 . S
C1184 H1173 0.950 . S
C1184 C1182 1.391 . S
C1184 C1185 1.400 . S
C1185 C1179 1.491 . S
C1185 C1184 1.400 . S
C1185 C1186 1.398 . S
C1186 H1174 0.950 . S
C1186 C1185 1.398 . S
C1186 C1187 1.391 . S
C1187 H1175 0.950 . S
C1187 C1183 1.393 . S
C1187 C1186 1.391 . S
H1188 C1196 0.950 . S
H1189 C1201 0.950 . S
H1190 C1198 0.950 . S
H1191 C1200 0.950 . S
H1192 C1202 0.950 . S
H1193 C1204 0.950 . S
H1194 C1206 0.950 . S
H1195 C1207 0.950 . S
C1196 H1188 0.950 . S
C1196 C1197 1.386 . S
C1196 C1198 1.391 . S
C1197 C1196 1.386 . S
C1197 C1201 1.393 . S
C1198 H1190 0.950 . S
C1198 C1196 1.391 . S
C1198 C1199 1.400 . S
C1199 C1198 1.400 . S
C1199 C1200 1.398 . S
C1199 C1205 1.491 . S
C1200 H1191 0.950 . S
C1200 C1199 1.398 . S
C1200 C1201 1.391 . S
C1201 H1189 0.950 . S
C1201 C1197 1.393 . S
C1201 C1200 1.391 . S
C1202 H1192 0.950 . S
C1202 C1203 1.386 . S
C1202 C1204 1.391 . S
C1203 C1202 1.386 . S
C1203 C1207 1.393 . S
C1204 H1193 0.950 . S
C1204 C1202 1.391 . S
C1204 C1205 1.400 . S
C1205 C1199 1.491 . S
C1205 C1204 1.400 . S
C1205 C1206 1.398 . S
C1206 H1194 0.950 . S
C1206 C1205 1.398 . S
C1206 C1207 1.391 . S
C1207 H1195 0.950 . S
C1207 C1203 1.393 . S
C1207 C1206 1.391 . S
H1208 C1216 0.950 . S
H1209 C1221 0.950 . S
H1210 C1218 0.950 . S
H1211 C1220 0.950 . S
H1212 C1222 0.950 . S
H1213 C1224 0.950 . S
H1214 C1226 0.950 . S
H1215 C1227 0.950 . S
C1216 H1208 0.950 . S
C1216 C1217 1.386 . S
C1216 C1218 1.391 . S
C1217 C1216 1.386 . S
C1217 C1221 1.393 . S
C1218 H1210 0.950 . S
C1218 C1216 1.391 . S
C1218 C1219 1.400 . S
C1219 C1218 1.400 . S
C1219 C1220 1.398 . S
C1219 C1225 1.491 . S
C1220 H1211 0.950 . S
C1220 C1219 1.398 . S
C1220 C1221 1.391 . S
C1221 H1209 0.950 . S
C1221 C1217 1.393 . S
C1221 C1220 1.391 . S
C1222 H1212 0.950 . S
C1222 C1223 1.386 . S
C1222 C1224 1.391 . S
C1223 C1222 1.386 . S
C1223 C1227 1.393 . S
C1224 H1213 0.950 . S
C1224 C1222 1.391 . S
C1224 C1225 1.400 . S
C1225 C1219 1.491 . S
C1225 C1224 1.400 . S
C1225 C1226 1.398 . S
C1226 H1214 0.950 . S
C1226 C1225 1.398 . S
C1226 C1227 1.391 . S
C1227 H1215 0.950 . S
C1227 C1223 1.393 . S
C1227 C1226 1.391 . S
H1228 C1236 0.950 . S
H1229 C1241 0.950 . S
H1230 C1238 0.950 . S
H1231 C1240 0.950 . S
H1232 C1242 0.950 . S
H1233 C1244 0.950 . S
H1234 C1246 0.950 . S
H1235 C1247 0.950 . S
C1236 H1228 0.950 . S
C1236 C1237 1.386 . S
C1236 C1238 1.391 . S
C1237 C1236 1.386 . S
C1237 C1241 1.393 . S
C1238 H1230 0.950 . S
C1238 C1236 1.391 . S
C1238 C1239 1.400 . S
C1239 C1238 1.400 . S
C1239 C1240 1.398 . S
C1239 C1245 1.491 . S
C1240 H1231 0.950 . S
C1240 C1239 1.398 . S
C1240 C1241 1.391 . S
C1241 H1229 0.950 . S
C1241 C1237 1.393 . S
C1241 C1240 1.391 . S
C1242 H1232 0.950 . S
C1242 C1243 1.386 . S
C1242 C1244 1.391 . S
C1243 C1242 1.386 . S
C1243 C1247 1.393 . S
C1244 H1233 0.950 . S
C1244 C1242 1.391 . S
C1244 C1245 1.400 . S
C1245 C1239 1.491 . S
C1245 C1244 1.400 . S
C1245 C1246 1.398 . S
C1246 H1234 0.950 . S
C1246 C1245 1.398 . S
C1246 C1247 1.391 . S
C1247 H1235 0.950 . S
C1247 C1243 1.393 . S
C1247 C1246 1.391 . S
H1248 C1256 0.950 . S
H1249 C1261 0.950 . S
H1250 C1258 0.950 . S
H1251 C1260 0.950 . S
H1252 C1262 0.950 . S
H1253 C1264 0.950 . S
H1254 C1266 0.950 . S
H1255 C1267 0.950 . S
C1256 H1248 0.950 . S
C1256 C1257 1.386 . S
C1256 C1258 1.391 . S
C1257 C1256 1.386 . S
C1257 C1261 1.393 . S
C1258 H1250 0.950 . S
C1258 C1256 1.391 . S
C1258 C1259 1.400 . S
C1259 C1258 1.400 . S
C1259 C1260 1.398 . S
C1259 C1265 1.491 . S
C1260 H1251 0.950 . S
C1260 C1259 1.398 . S
C1260 C1261 1.391 . S
C1261 H1249 0.950 . S
C1261 C1257 1.393 . S
C1261 C1260 1.391 . S
C1262 H1252 0.950 . S
C1262 C1263 1.386 . S
C1262 C1264 1.391 . S
C1263 C1262 1.386 . S
C1263 C1267 1.393 . S
C1264 H1253 0.950 . S
C1264 C1262 1.391 . S
C1264 C1265 1.400 . S
C1265 C1259 1.491 . S
C1265 C1264 1.400 . S
C1265 C1266 1.398 . S
C1266 H1254 0.950 . S
C1266 C1265 1.398 . S
C1266 C1267 1.391 . S
C1267 H1255 0.950 . S
C1267 C1263 1.393 . S
C1267 C1266 1.391 . S
H1268 C1276 0.950 . S
H1269 C1281 0.950 . S
H1270 C1278 0.950 . S
H1271 C1280 0.950 . S
H1272 C1282 0.950 . S
H1273 C1284 0.950 . S
H1274 C1286 0.950 . S
H1275 C1287 0.950 . S
C1276 H1268 0.950 . S
C1276 C1277 1.386 . S
C1276 C1278 1.391 . S
C1277 C1276 1.386 . S
C1277 C1281 1.393 . S
C1278 H1270 0.950 . S
C1278 C1276 1.391 . S
C1278 C1279 1.400 . S
C1279 C1278 1.400 . S
C1279 C1280 1.398 . S
C1279 C1285 1.491 . S
C1280 H1271 0.950 . S
C1280 C1279 1.398 . S
C1280 C1281 1.391 . S
C1281 H1269 0.950 . S
C1281 C1277 1.393 . S
C1281 C1280 1.391 . S
C1282 H1272 0.950 . S
C1282 C1283 1.386 . S
C1282 C1284 1.391 . S
C1283 C1282 1.386 . S
C1283 C1287 1.393 . S
C1284 H1273 0.950 . S
C1284 C1282 1.391 . S
C1284 C1285 1.400 . S
C1285 C1279 1.491 . S
C1285 C1284 1.400 . S
C1285 C1286 1.398 . S
C1286 H1274 0.950 . S
C1286 C1285 1.398 . S
C1286 C1287 1.391 . S
C1287 H1275 0.950 . S
C1287 C1283 1.393 . S
C1287 C1286 1.391 . S
H1288 C1296 0.950 . S
H1289 C1301 0.950 . S
H1290 C1298 0.950 . S
H1291 C1300 0.950 . S
H1292 C1302 0.950 1_565 S
H1293 C1304 0.950 1_565 S
H1294 C1306 0.950 . S
H1295 C1307 0.950 . S
C1296 H1288 0.950 . S
C1296 C1297 1.386 . S
C1296 C1298 1.391 . S
C1297 C1296 1.386 . S
C1297 C1301 1.393 . S
C1298 H1290 0.950 . S
C1298 C1296 1.391 . S
C1298 C1299 1.400 . S
C1299 C1298 1.400 . S
C1299 C1300 1.398 . S
C1299 C1305 1.491 . S
C1300 H1291 0.950 . S
C1300 C1299 1.398 . S
C1300 C1301 1.391 . S
C1301 H1289 0.950 . S
C1301 C1297 1.393 . S
C1301 C1300 1.391 . S
C1302 H1292 0.950 1_545 S
C1302 C1303 1.386 . S
C1302 C1304 1.391 . S
C1303 C1302 1.386 . S
C1303 C1307 1.393 . S
C1304 H1293 0.950 1_545 S
C1304 C1302 1.391 . S
C1304 C1305 1.400 . S
C1305 C1299 1.491 . S
C1305 C1304 1.400 . S
C1305 C1306 1.398 . S
C1306 H1294 0.950 . S
C1306 C1305 1.398 . S
C1306 C1307 1.391 . S
C1307 H1295 0.950 . S
C1307 C1303 1.393 . S
C1307 C1306 1.391 . S
H1308 C1316 0.950 . S
H1309 C1321 0.950 . S
H1310 C1318 0.950 . S
H1311 C1320 0.950 . S
H1312 C1322 0.950 . S
H1313 C1324 0.950 . S
H1314 C1326 0.950 . S
H1315 C1327 0.950 . S
C1316 H1308 0.950 . S
C1316 C1317 1.386 . S
C1316 C1318 1.391 . S
C1317 C1316 1.386 . S
C1317 C1321 1.393 . S
C1318 H1310 0.950 . S
C1318 C1316 1.391 . S
C1318 C1319 1.400 . S
C1319 C1318 1.400 . S
C1319 C1320 1.398 . S
C1319 C1325 1.491 . S
C1320 H1311 0.950 . S
C1320 C1319 1.398 . S
C1320 C1321 1.391 . S
C1321 H1309 0.950 . S
C1321 C1317 1.393 . S
C1321 C1320 1.391 . S
C1322 H1312 0.950 . S
C1322 C1323 1.386 . S
C1322 C1324 1.391 . S
C1323 C1322 1.386 . S
C1323 C1327 1.393 . S
C1324 H1313 0.950 . S
C1324 C1322 1.391 . S
C1324 C1325 1.400 . S
C1325 C1319 1.491 . S
C1325 C1324 1.400 . S
C1325 C1326 1.398 . S
C1326 H1314 0.950 . S
C1326 C1325 1.398 . S
C1326 C1327 1.391 . S
C1327 H1315 0.950 . S
C1327 C1323 1.393 . S
C1327 C1326 1.391 . S
H1328 C1336 0.950 . S
H1329 C1341 0.950 . S
H1330 C1338 0.950 . S
H1331 C1340 0.950 . S
H1332 C1342 0.950 . S
H1333 C1344 0.950 . S
H1334 C1346 0.950 . S
H1335 C1347 0.950 . S
C1336 H1328 0.950 . S
C1336 C1337 1.386 . S
C1336 C1338 1.391 . S
C1337 C1336 1.386 . S
C1337 C1341 1.393 . S
C1338 H1330 0.950 . S
C1338 C1336 1.391 . S
C1338 C1339 1.400 . S
C1339 C1338 1.400 . S
C1339 C1340 1.398 . S
C1339 C1345 1.491 . S
C1340 H1331 0.950 . S
C1340 C1339 1.398 . S
C1340 C1341 1.391 . S
C1341 H1329 0.950 . S
C1341 C1337 1.393 . S
C1341 C1340 1.391 . S
C1342 H1332 0.950 . S
C1342 C1343 1.386 . S
C1342 C1344 1.391 . S
C1343 C1342 1.386 . S
C1343 C1347 1.393 . S
C1344 H1333 0.950 . S
C1344 C1342 1.391 . S
C1344 C1345 1.400 . S
C1345 C1339 1.491 . S
C1345 C1344 1.400 . S
C1345 C1346 1.398 . S
C1346 H1334 0.950 . S
C1346 C1345 1.398 . S
C1346 C1347 1.391 . S
C1347 H1335 0.950 . S
C1347 C1343 1.393 . S
C1347 C1346 1.391 . S
H1348 C1356 0.950 . S
H1349 C1361 0.950 . S
H1350 C1358 0.950 . S
H1351 C1360 0.950 . S
H1352 C1362 0.950 . S
H1353 C1364 0.950 . S
H1354 C1366 0.950 . S
H1355 C1367 0.950 . S
C1356 H1348 0.950 . S
C1356 C1357 1.386 . S
C1356 C1358 1.391 . S
C1357 C1356 1.386 . S
C1357 C1361 1.393 . S
C1358 H1350 0.950 . S
C1358 C1356 1.391 . S
C1358 C1359 1.400 . S
C1359 C1358 1.400 . S
C1359 C1360 1.398 . S
C1359 C1365 1.491 . S
C1360 H1351 0.950 . S
C1360 C1359 1.398 . S
C1360 C1361 1.391 . S
C1361 H1349 0.950 . S
C1361 C1357 1.393 . S
C1361 C1360 1.391 . S
C1362 H1352 0.950 . S
C1362 C1363 1.386 . S
C1362 C1364 1.391 . S
C1363 C1362 1.386 . S
C1363 C1367 1.393 . S
C1364 H1353 0.950 . S
C1364 C1362 1.391 . S
C1364 C1365 1.400 . S
C1365 C1359 1.491 . S
C1365 C1364 1.400 . S
C1365 C1366 1.398 . S
C1366 H1354 0.950 . S
C1366 C1365 1.398 . S
C1366 C1367 1.391 . S
C1367 H1355 0.950 . S
C1367 C1363 1.393 . S
C1367 C1366 1.391 . S
H1368 C1376 0.950 . S
H1369 C1381 0.950 . S
H1370 C1378 0.950 . S
H1371 C1380 0.952 1_545 S
H1372 C1382 0.950 . S
H1373 C1384 0.950 1_545 S
H1374 C1386 0.950 . S
H1375 C1387 0.950 . S
C1376 H1368 0.950 . S
C1376 C1377 1.386 . S
C1376 C1378 1.391 . S
C1377 C1376 1.386 . S
C1377 C1381 1.393 1_565 S
C1378 H1370 0.950 . S
C1378 C1376 1.391 . S
C1378 C1379 1.400 . S
C1379 C1378 1.400 . S
C1379 C1380 1.396 . S
C1379 C1385 1.491 . S
C1380 H1371 0.952 1_565 S
C1380 C1379 1.396 . S
C1380 C1381 1.391 1_565 S
C1381 H1369 0.950 . S
C1381 C1377 1.393 1_545 S
C1381 C1380 1.391 1_545 S
C1382 H1372 0.950 . S
C1382 C1383 1.386 . S
C1382 C1384 1.391 . S
C1383 C1382 1.386 . S
C1383 C1387 1.393 . S
C1384 H1373 0.950 1_565 S
C1384 C1382 1.391 . S
C1384 C1385 1.400 . S
C1385 C1379 1.491 . S
C1385 C1384 1.400 . S
C1385 C1386 1.398 . S
C1386 H1374 0.950 . S
C1386 C1385 1.398 . S
C1386 C1387 1.391 . S
C1387 H1375 0.950 . S
C1387 C1383 1.393 . S
C1387 C1386 1.391 . S
H1388 C1396 0.950 . S
H1389 C1401 0.950 . S
H1390 C1398 0.950 . S
H1391 C1400 0.950 . S
H1392 C1402 0.950 . S
H1393 C1404 0.950 . S
H1394 C1406 0.950 . S
H1395 C1407 0.950 . S
C1396 H1388 0.950 . S
C1396 C1397 1.386 . S
C1396 C1398 1.391 . S
C1397 C1396 1.386 . S
C1397 C1401 1.393 . S
C1398 H1390 0.950 . S
C1398 C1396 1.391 . S
C1398 C1399 1.400 . S
C1399 C1398 1.400 . S
C1399 C1400 1.398 . S
C1399 C1405 1.491 . S
C1400 H1391 0.950 . S
C1400 C1399 1.398 . S
C1400 C1401 1.391 . S
C1401 H1389 0.950 . S
C1401 C1397 1.393 . S
C1401 C1400 1.391 . S
C1402 H1392 0.950 . S
C1402 C1403 1.386 . S
C1402 C1404 1.391 . S
C1403 C1402 1.386 . S
C1403 C1407 1.393 . S
C1404 H1393 0.950 . S
C1404 C1402 1.391 . S
C1404 C1405 1.400 . S
C1405 C1399 1.491 . S
C1405 C1404 1.400 . S
C1405 C1406 1.398 . S
C1406 H1394 0.950 . S
C1406 C1405 1.398 . S
C1406 C1407 1.391 . S
C1407 H1395 0.950 . S
C1407 C1403 1.393 . S
C1407 C1406 1.391 . S
H1408 C1416 0.950 . S
H1409 C1421 0.950 . S
H1410 C1418 0.950 . S
H1411 C1420 0.950 . S
H1412 C1422 0.950 . S
H1413 C1424 0.950 . S
H1414 C1426 0.950 . S
H1415 C1427 0.950 . S
C1416 H1408 0.950 . S
C1416 C1417 1.386 . S
C1416 C1418 1.391 . S
C1417 C1416 1.386 . S
C1417 C1421 1.393 . S
C1418 H1410 0.950 . S
C1418 C1416 1.391 . S
C1418 C1419 1.400 . S
C1419 C1418 1.400 . S
C1419 C1420 1.398 . S
C1419 C1425 1.491 . S
C1420 H1411 0.950 . S
C1420 C1419 1.398 . S
C1420 C1421 1.391 . S
C1421 H1409 0.950 . S
C1421 C1417 1.393 . S
C1421 C1420 1.391 . S
C1422 H1412 0.950 . S
C1422 C1423 1.386 . S
C1422 C1424 1.391 . S
C1423 C1422 1.386 . S
C1423 C1427 1.393 . S
C1424 H1413 0.950 . S
C1424 C1422 1.391 . S
C1424 C1425 1.400 . S
C1425 C1419 1.491 . S
C1425 C1424 1.400 . S
C1425 C1426 1.398 . S
C1426 H1414 0.950 . S
C1426 C1425 1.398 . S
C1426 C1427 1.391 . S
C1427 H1415 0.950 . S
C1427 C1423 1.393 . S
C1427 C1426 1.391 . S
H1428 C1436 0.950 . S
H1429 C1441 0.950 . S
H1430 C1438 0.950 . S
H1431 C1440 0.950 . S
H1432 C1442 0.950 . S
H1433 C1444 0.950 . S
H1434 C1446 0.950 . S
H1435 C1447 0.950 . S
C1436 H1428 0.950 . S
C1436 C1437 1.386 . S
C1436 C1438 1.391 . S
C1437 C1436 1.386 . S
C1437 C1441 1.393 . S
C1438 H1430 0.950 . S
C1438 C1436 1.391 . S
C1438 C1439 1.400 . S
C1439 C1438 1.400 . S
C1439 C1440 1.398 . S
C1439 C1445 1.491 . S
C1440 H1431 0.950 . S
C1440 C1439 1.398 . S
C1440 C1441 1.391 . S
C1441 H1429 0.950 . S
C1441 C1437 1.393 . S
C1441 C1440 1.391 . S
C1442 H1432 0.950 . S
C1442 C1443 1.386 . S
C1442 C1444 1.391 . S
C1443 C1442 1.386 . S
C1443 C1447 1.393 . S
C1444 H1433 0.950 . S
C1444 C1442 1.391 . S
C1444 C1445 1.400 . S
C1445 C1439 1.491 . S
C1445 C1444 1.400 . S
C1445 C1446 1.398 . S
C1446 H1434 0.950 . S
C1446 C1445 1.398 . S
C1446 C1447 1.391 . S
C1447 H1435 0.950 . S
C1447 C1443 1.393 . S
C1447 C1446 1.391 . S
H1448 C1456 0.950 . S
H1449 C1461 0.950 . S
H1450 C1458 0.950 . S
H1451 C1460 0.950 . S
H1452 C1462 0.950 . S
H1453 C1464 0.950 . S
H1454 C1466 0.950 . S
H1455 C1467 0.944 1_655 S
C1456 H1448 0.950 . S
C1456 C1457 1.386 . S
C1456 C1458 1.391 . S
C1457 C1456 1.386 . S
C1457 C1461 1.393 . S
C1458 H1450 0.950 . S
C1458 C1456 1.391 . S
C1458 C1459 1.400 . S
C1459 C1458 1.400 . S
C1459 C1460 1.398 . S
C1459 C1465 1.491 . S
C1460 H1451 0.950 . S
C1460 C1459 1.398 . S
C1460 C1461 1.391 . S
C1461 H1449 0.950 . S
C1461 C1457 1.393 . S
C1461 C1460 1.391 . S
C1462 H1452 0.950 . S
C1462 C1463 1.386 . S
C1462 C1464 1.391 . S
C1463 C1462 1.386 . S
C1463 C1467 1.393 . S
C1464 H1453 0.950 . S
C1464 C1462 1.391 . S
C1464 C1465 1.400 . S
C1465 C1459 1.491 . S
C1465 C1464 1.400 . S
C1465 C1466 1.398 . S
C1466 H1454 0.950 . S
C1466 C1465 1.398 . S
C1466 C1467 1.391 . S
C1467 H1455 0.944 1_455 S
C1467 C1463 1.393 . S
C1467 C1466 1.391 . S
H1468 C1476 0.950 . S
H1469 C1481 0.950 . S
H1470 C1478 0.950 . S
H1471 C1480 0.950 . S
H1472 C1482 0.950 . S
H1473 C1484 0.950 . S
H1474 C1486 0.950 . S
H1475 C1487 0.950 . S
C1476 H1468 0.950 . S
C1476 C1477 1.386 . S
C1476 C1478 1.391 . S
C1477 C1476 1.386 . S
C1477 C1481 1.393 . S
C1478 H1470 0.950 . S
C1478 C1476 1.391 . S
C1478 C1479 1.400 . S
C1479 C1478 1.400 . S
C1479 C1480 1.398 . S
C1479 C1485 1.491 . S
C1480 H1471 0.950 . S
C1480 C1479 1.398 . S
C1480 C1481 1.391 . S
C1481 H1469 0.950 . S
C1481 C1477 1.393 . S
C1481 C1480 1.391 . S
C1482 H1472 0.950 . S
C1482 C1483 1.386 . S
C1482 C1484 1.391 . S
C1483 C1482 1.386 . S
C1483 C1487 1.393 . S
C1484 H1473 0.950 . S
C1484 C1482 1.391 . S
C1484 C1485 1.400 . S
C1485 C1479 1.491 . S
C1485 C1484 1.400 . S
C1485 C1486 1.398 . S
C1486 H1474 0.950 . S
C1486 C1485 1.398 . S
C1486 C1487 1.391 . S
C1487 H1475 0.950 . S
C1487 C1483 1.393 . S
C1487 C1486 1.391 . S
H1488 C1496 0.950 . S
H1489 C1501 0.950 . S
H1490 C1498 0.950 . S
H1491 C1500 0.950 . S
H1492 C1502 0.950 . S
H1493 C1504 0.950 . S
H1494 C1506 0.950 . S
H1495 C1507 0.950 . S
C1496 H1488 0.950 . S
C1496 C1497 1.386 . S
C1496 C1498 1.391 . S
C1497 C1496 1.386 . S
C1497 C1501 1.393 . S
C1498 H1490 0.950 . S
C1498 C1496 1.391 . S
C1498 C1499 1.400 . S
C1499 C1498 1.400 . S
C1499 C1500 1.398 . S
C1499 C1505 1.491 . S
C1500 H1491 0.950 . S
C1500 C1499 1.398 . S
C1500 C1501 1.391 . S
C1501 H1489 0.950 . S
C1501 C1497 1.393 . S
C1501 C1500 1.391 . S
C1502 H1492 0.950 . S
C1502 C1503 1.386 . S
C1502 C1504 1.391 . S
C1503 C1502 1.386 . S
C1503 C1507 1.393 . S
C1504 H1493 0.950 . S
C1504 C1502 1.391 . S
C1504 C1505 1.400 . S
C1505 C1499 1.491 . S
C1505 C1504 1.400 . S
C1505 C1506 1.398 . S
C1506 H1494 0.950 . S
C1506 C1505 1.398 . S
C1506 C1507 1.391 . S
C1507 H1495 0.950 . S
C1507 C1503 1.393 . S
C1507 C1506 1.391 . S
H1508 C1516 0.950 . S
H1509 C1521 0.950 . S
H1510 C1518 0.950 . S
H1511 C1520 0.950 . S
H1512 C1522 0.950 . S
H1513 C1524 0.950 . S
H1514 C1526 0.950 . S
H1515 C1527 0.950 . S
C1516 H1508 0.950 . S
C1516 C1517 1.386 . S
C1516 C1518 1.391 . S
C1517 C1516 1.386 . S
C1517 C1521 1.393 . S
C1518 H1510 0.950 . S
C1518 C1516 1.391 . S
C1518 C1519 1.400 . S
C1519 C1518 1.400 . S
C1519 C1520 1.398 . S
C1519 C1525 1.491 . S
C1520 H1511 0.950 . S
C1520 C1519 1.398 . S
C1520 C1521 1.391 . S
C1521 H1509 0.950 . S
C1521 C1517 1.393 . S
C1521 C1520 1.391 . S
C1522 H1512 0.950 . S
C1522 C1523 1.386 . S
C1522 C1524 1.391 . S
C1523 C1522 1.386 . S
C1523 C1527 1.393 . S
C1524 H1513 0.950 . S
C1524 C1522 1.391 . S
C1524 C1525 1.400 . S
C1525 C1519 1.491 . S
C1525 C1524 1.400 . S
C1525 C1526 1.398 . S
C1526 H1514 0.950 . S
C1526 C1525 1.398 . S
C1526 C1527 1.391 . S
C1527 H1515 0.950 . S
C1527 C1523 1.393 . S
C1527 C1526 1.391 . S
H1528 C1536 0.950 . S
H1529 C1541 0.950 . S
H1530 C1538 0.950 . S
H1531 C1540 0.950 . S
H1532 C1542 0.950 . S
H1533 C1544 0.950 . S
H1534 C1546 0.950 . S
H1535 C1547 0.950 . S
C1536 H1528 0.950 . S
C1536 C1537 1.386 . S
C1536 C1538 1.391 . S
C1537 C1536 1.386 . S
C1537 C1541 1.393 . S
C1538 H1530 0.950 . S
C1538 C1536 1.391 . S
C1538 C1539 1.400 . S
C1539 C1538 1.400 . S
C1539 C1540 1.398 . S
C1539 C1545 1.491 . S
C1540 H1531 0.950 . S
C1540 C1539 1.398 . S
C1540 C1541 1.391 . S
C1541 H1529 0.950 . S
C1541 C1537 1.393 . S
C1541 C1540 1.391 . S
C1542 H1532 0.950 . S
C1542 C1543 1.386 . S
C1542 C1544 1.391 . S
C1543 C1542 1.386 . S
C1543 C1547 1.393 . S
C1544 H1533 0.950 . S
C1544 C1542 1.391 . S
C1544 C1545 1.400 . S
C1545 C1539 1.491 . S
C1545 C1544 1.400 . S
C1545 C1546 1.398 . S
C1546 H1534 0.950 . S
C1546 C1545 1.398 . S
C1546 C1547 1.391 . S
C1547 H1535 0.950 . S
C1547 C1543 1.393 . S
C1547 C1546 1.391 . S
H1548 C1556 0.950 . S
H1549 C1561 0.950 . S
H1550 C1558 0.950 . S
H1551 C1560 0.950 . S
H1552 C1562 0.950 . S
H1553 C1564 0.950 . S
H1554 C1566 0.950 . S
H1555 C1567 0.950 . S
C1556 H1548 0.950 . S
C1556 C1557 1.386 . S
C1556 C1558 1.391 . S
C1557 C1556 1.386 . S
C1557 C1561 1.393 . S
C1558 H1550 0.950 . S
C1558 C1556 1.391 . S
C1558 C1559 1.400 . S
C1559 C1558 1.400 . S
C1559 C1560 1.398 . S
C1559 C1565 1.491 . S
C1560 H1551 0.950 . S
C1560 C1559 1.398 . S
C1560 C1561 1.391 . S
C1561 H1549 0.950 . S
C1561 C1557 1.393 . S
C1561 C1560 1.391 . S
C1562 H1552 0.950 . S
C1562 C1563 1.386 . S
C1562 C1564 1.391 . S
C1563 C1562 1.386 . S
C1563 C1567 1.393 . S
C1564 H1553 0.950 . S
C1564 C1562 1.391 . S
C1564 C1565 1.400 . S
C1565 C1559 1.491 . S
C1565 C1564 1.400 . S
C1565 C1566 1.398 . S
C1566 H1554 0.950 . S
C1566 C1565 1.398 . S
C1566 C1567 1.391 . S
C1567 H1555 0.950 . S
C1567 C1563 1.393 . S
C1567 C1566 1.391 . S
H1568 C1576 0.950 . S
H1569 C1581 0.950 . S
H1570 C1578 0.950 . S
H1571 C1580 0.950 . S
H1572 C1582 0.950 . S
H1573 C1584 0.950 . S
H1574 C1586 0.950 . S
H1575 C1587 0.950 . S
C1576 H1568 0.950 . S
C1576 C1577 1.386 . S
C1576 C1578 1.391 . S
C1577 C1576 1.386 . S
C1577 C1581 1.393 . S
C1578 H1570 0.950 . S
C1578 C1576 1.391 . S
C1578 C1579 1.400 . S
C1579 C1578 1.400 . S
C1579 C1580 1.398 . S
C1579 C1585 1.491 . S
C1580 H1571 0.950 . S
C1580 C1579 1.398 . S
C1580 C1581 1.391 . S
C1581 H1569 0.950 . S
C1581 C1577 1.393 . S
C1581 C1580 1.391 . S
C1582 H1572 0.950 . S
C1582 C1583 1.386 . S
C1582 C1584 1.391 . S
C1583 C1582 1.386 . S
C1583 C1587 1.393 . S
C1584 H1573 0.950 . S
C1584 C1582 1.391 . S
C1584 C1585 1.400 . S
C1585 C1579 1.491 . S
C1585 C1584 1.400 . S
C1585 C1586 1.398 . S
C1586 H1574 0.950 . S
C1586 C1585 1.398 . S
C1586 C1587 1.391 . S
C1587 H1575 0.950 . S
C1587 C1583 1.393 . S
C1587 C1586 1.391 . S
H1588 C1596 0.950 . S
H1589 C1601 0.950 . S
H1590 C1598 0.950 . S
H1591 C1600 0.950 . S
H1592 C1602 0.950 . S
H1593 C1604 0.950 . S
H1594 C1606 0.950 . S
H1595 C1607 0.950 . S
C1596 H1588 0.950 . S
C1596 C1597 1.386 . S
C1596 C1598 1.391 . S
C1597 C1596 1.386 . S
C1597 C1601 1.393 . S
C1598 H1590 0.950 . S
C1598 C1596 1.391 . S
C1598 C1599 1.400 . S
C1599 C1598 1.400 . S
C1599 C1600 1.398 . S
C1599 C1605 1.491 . S
C1600 H1591 0.950 . S
C1600 C1599 1.398 . S
C1600 C1601 1.391 . S
C1601 H1589 0.950 . S
C1601 C1597 1.393 . S
C1601 C1600 1.391 . S
C1602 H1592 0.950 . S
C1602 C1603 1.386 . S
C1602 C1604 1.391 . S
C1603 C1602 1.386 . S
C1603 C1607 1.393 . S
C1604 H1593 0.950 . S
C1604 C1602 1.391 . S
C1604 C1605 1.400 . S
C1605 C1599 1.491 . S
C1605 C1604 1.400 . S
C1605 C1606 1.398 . S
C1606 H1594 0.950 . S
C1606 C1605 1.398 . S
C1606 C1607 1.391 . S
C1607 H1595 0.950 . S
C1607 C1603 1.393 . S
C1607 C1606 1.391 . S
H1608 C1616 0.950 . S
H1609 C1621 0.950 . S
H1610 C1618 0.950 . S
H1611 C1620 0.950 . S
H1612 C1622 0.950 . S
H1613 C1624 0.950 . S
H1614 C1626 0.950 . S
H1615 C1627 0.950 . S
C1616 H1608 0.950 . S
C1616 C1617 1.386 . S
C1616 C1618 1.391 . S
C1617 C1616 1.386 . S
C1617 C1621 1.393 . S
C1618 H1610 0.950 . S
C1618 C1616 1.391 . S
C1618 C1619 1.400 . S
C1619 C1618 1.400 . S
C1619 C1620 1.398 . S
C1619 C1625 1.491 . S
C1620 H1611 0.950 . S
C1620 C1619 1.398 . S
C1620 C1621 1.391 . S
C1621 H1609 0.950 . S
C1621 C1617 1.393 . S
C1621 C1620 1.391 . S
C1622 H1612 0.950 . S
C1622 C1623 1.386 . S
C1622 C1624 1.391 . S
C1623 C1622 1.386 . S
C1623 C1627 1.393 . S
C1624 H1613 0.950 . S
C1624 C1622 1.391 . S
C1624 C1625 1.400 . S
C1625 C1619 1.491 . S
C1625 C1624 1.400 . S
C1625 C1626 1.398 . S
C1626 H1614 0.950 . S
C1626 C1625 1.398 . S
C1626 C1627 1.391 . S
C1627 H1615 0.950 . S
C1627 C1623 1.393 . S
C1627 C1626 1.391 . S
H1628 C1636 0.950 . S
H1629 C1641 0.950 . S
H1630 C1638 0.950 . S
H1631 C1640 0.950 . S
H1632 C1642 0.950 . S
H1633 C1644 0.950 . S
H1634 C1646 0.950 . S
H1635 C1647 0.950 . S
C1636 H1628 0.950 . S
C1636 C1637 1.386 . S
C1636 C1638 1.391 . S
C1637 C1636 1.386 . S
C1637 C1641 1.393 . S
C1638 H1630 0.950 . S
C1638 C1636 1.391 . S
C1638 C1639 1.400 . S
C1639 C1638 1.400 . S
C1639 C1640 1.398 . S
C1639 C1645 1.491 . S
C1640 H1631 0.950 . S
C1640 C1639 1.398 . S
C1640 C1641 1.391 . S
C1641 H1629 0.950 . S
C1641 C1637 1.393 . S
C1641 C1640 1.391 . S
C1642 H1632 0.950 . S
C1642 C1643 1.386 . S
C1642 C1644 1.391 . S
C1643 C1642 1.386 . S
C1643 C1647 1.393 . S
C1644 H1633 0.950 . S
C1644 C1642 1.391 . S
C1644 C1645 1.400 . S
C1645 C1639 1.491 . S
C1645 C1644 1.400 . S
C1645 C1646 1.398 . S
C1646 H1634 0.950 . S
C1646 C1645 1.398 . S
C1646 C1647 1.391 . S
C1647 H1635 0.950 . S
C1647 C1643 1.393 . S
C1647 C1646 1.391 . S
H1648 C1656 0.950 . S
H1649 C1661 0.950 . S
H1650 C1658 0.950 . S
H1651 C1660 0.950 . S
H1652 C1662 0.950 . S
H1653 C1664 0.950 . S
H1654 C1666 0.950 . S
H1655 C1667 0.950 . S
C1656 H1648 0.950 . S
C1656 C1657 1.386 . S
C1656 C1658 1.391 . S
C1657 C1656 1.386 . S
C1657 C1661 1.393 . S
C1658 H1650 0.950 . S
C1658 C1656 1.391 . S
C1658 C1659 1.400 . S
C1659 C1658 1.400 . S
C1659 C1660 1.398 . S
C1659 C1665 1.491 . S
C1660 H1651 0.950 . S
C1660 C1659 1.398 . S
C1660 C1661 1.391 . S
C1661 H1649 0.950 . S
C1661 C1657 1.393 . S
C1661 C1660 1.391 . S
C1662 H1652 0.950 . S
C1662 C1663 1.386 . S
C1662 C1664 1.391 . S
C1663 C1662 1.386 . S
C1663 C1667 1.393 . S
C1664 H1653 0.950 . S
C1664 C1662 1.391 . S
C1664 C1665 1.400 . S
C1665 C1659 1.491 . S
C1665 C1664 1.400 . S
C1665 C1666 1.398 . S
C1666 H1654 0.950 . S
C1666 C1665 1.398 . S
C1666 C1667 1.391 . S
C1667 H1655 0.950 . S
C1667 C1663 1.393 . S
C1667 C1666 1.391 . S
H1668 C1676 0.950 . S
H1669 C1681 0.950 . S
H1670 C1678 0.950 . S
H1671 C1680 0.950 . S
H1672 C1682 0.950 . S
H1673 C1684 0.950 . S
H1674 C1686 0.950 . S
H1675 C1687 0.950 . S
C1676 H1668 0.950 . S
C1676 C1677 1.386 . S
C1676 C1678 1.391 . S
C1677 C1676 1.386 . S
C1677 C1681 1.393 . S
C1678 H1670 0.950 . S
C1678 C1676 1.391 . S
C1678 C1679 1.400 . S
C1679 C1678 1.400 . S
C1679 C1680 1.398 . S
C1679 C1685 1.491 . S
C1680 H1671 0.950 . S
C1680 C1679 1.398 . S
C1680 C1681 1.391 . S
C1681 H1669 0.950 . S
C1681 C1677 1.393 . S
C1681 C1680 1.391 . S
C1682 H1672 0.950 . S
C1682 C1683 1.386 . S
C1682 C1684 1.391 . S
C1683 C1682 1.386 . S
C1683 C1687 1.393 . S
C1684 H1673 0.950 . S
C1684 C1682 1.391 . S
C1684 C1685 1.400 . S
C1685 C1679 1.491 . S
C1685 C1684 1.400 . S
C1685 C1686 1.398 . S
C1686 H1674 0.950 . S
C1686 C1685 1.398 . S
C1686 C1687 1.391 . S
C1687 H1675 0.950 . S
C1687 C1683 1.393 . S
C1687 C1686 1.391 . S
H1688 C1696 0.950 . S
H1689 C1701 0.950 . S
H1690 C1698 0.950 . S
H1691 C1700 0.950 . S
H1692 C1702 0.950 . S
H1693 C1704 0.950 . S
H1694 C1706 0.950 . S
H1695 C1707 0.950 . S
C1696 H1688 0.950 . S
C1696 C1697 1.386 . S
C1696 C1698 1.391 . S
C1697 C1696 1.386 . S
C1697 C1701 1.393 . S
C1698 H1690 0.950 . S
C1698 C1696 1.391 . S
C1698 C1699 1.400 . S
C1699 C1698 1.400 . S
C1699 C1700 1.398 . S
C1699 C1705 1.491 . S
C1700 H1691 0.950 . S
C1700 C1699 1.398 . S
C1700 C1701 1.391 . S
C1701 H1689 0.950 . S
C1701 C1697 1.393 . S
C1701 C1700 1.391 . S
C1702 H1692 0.950 . S
C1702 C1703 1.386 . S
C1702 C1704 1.391 . S
C1703 C1702 1.386 . S
C1703 C1707 1.393 . S
C1704 H1693 0.950 . S
C1704 C1702 1.391 . S
C1704 C1705 1.400 . S
C1705 C1699 1.491 . S
C1705 C1704 1.400 . S
C1705 C1706 1.398 . S
C1706 H1694 0.950 . S
C1706 C1705 1.398 . S
C1706 C1707 1.391 . S
C1707 H1695 0.950 . S
C1707 C1703 1.393 . S
C1707 C1706 1.391 . S
H1708 C1716 0.950 . S
H1709 C1721 0.950 . S
H1710 C1718 0.950 . S
H1711 C1720 0.950 . S
H1712 C1722 0.950 . S
H1713 C1724 0.950 . S
H1714 C1726 0.950 . S
H1715 C1727 0.950 . S
C1716 H1708 0.950 . S
C1716 C1717 1.386 . S
C1716 C1718 1.391 . S
C1717 C1716 1.386 . S
C1717 C1721 1.393 . S
C1718 H1710 0.950 . S
C1718 C1716 1.391 . S
C1718 C1719 1.400 . S
C1719 C1718 1.400 . S
C1719 C1720 1.398 . S
C1719 C1725 1.491 . S
C1720 H1711 0.950 . S
C1720 C1719 1.398 . S
C1720 C1721 1.391 . S
C1721 H1709 0.950 . S
C1721 C1717 1.393 . S
C1721 C1720 1.391 . S
C1722 H1712 0.950 . S
C1722 C1723 1.386 . S
C1722 C1724 1.391 . S
C1723 C1722 1.386 . S
C1723 C1727 1.393 . S
C1724 H1713 0.950 . S
C1724 C1722 1.391 . S
C1724 C1725 1.400 . S
C1725 C1719 1.491 . S
C1725 C1724 1.400 . S
C1725 C1726 1.398 . S
C1726 H1714 0.950 . S
C1726 C1725 1.398 . S
C1726 C1727 1.391 . S
C1727 H1715 0.950 . S
C1727 C1723 1.393 . S
C1727 C1726 1.391 . S
H1728 C1736 0.950 . S
H1729 C1741 0.950 . S
H1730 C1738 0.950 . S
H1731 C1740 0.950 . S
H1732 C1742 0.950 . S
H1733 C1744 0.950 . S
H1734 C1746 0.950 . S
H1735 C1747 0.950 . S
C1736 H1728 0.950 . S
C1736 C1737 1.386 . S
C1736 C1738 1.391 . S
C1737 C1736 1.386 . S
C1737 C1741 1.393 . S
C1738 H1730 0.950 . S
C1738 C1736 1.391 . S
C1738 C1739 1.400 . S
C1739 C1738 1.400 . S
C1739 C1740 1.398 . S
C1739 C1745 1.491 . S
C1740 H1731 0.950 . S
C1740 C1739 1.398 . S
C1740 C1741 1.391 . S
C1741 H1729 0.950 . S
C1741 C1737 1.393 . S
C1741 C1740 1.391 . S
C1742 H1732 0.950 . S
C1742 C1743 1.386 . S
C1742 C1744 1.391 . S
C1743 C1742 1.386 . S
C1743 C1747 1.393 . S
C1744 H1733 0.950 . S
C1744 C1742 1.391 . S
C1744 C1745 1.400 . S
C1745 C1739 1.491 . S
C1745 C1744 1.400 . S
C1745 C1746 1.398 . S
C1746 H1734 0.950 . S
C1746 C1745 1.398 . S
C1746 C1747 1.391 . S
C1747 H1735 0.950 . S
C1747 C1743 1.393 . S
C1747 C1746 1.391 . S
H1748 C1756 0.950 . S
H1749 C1761 0.950 . S
H1750 C1758 0.950 . S
H1751 C1760 0.950 . S
H1752 C1762 0.950 1_556 S
H1753 C1764 0.950 . S
H1754 C1766 0.950 . S
H1755 C1767 0.950 . S
C1756 H1748 0.950 . S
C1756 C1757 1.386 . S
C1756 C1758 1.391 . S
C1757 C1756 1.386 . S
C1757 C1761 1.393 . S
C1758 H1750 0.950 . S
C1758 C1756 1.391 . S
C1758 C1759 1.400 . S
C1759 C1758 1.400 . S
C1759 C1760 1.398 . S
C1759 C1765 1.491 . S
C1760 H1751 0.950 . S
C1760 C1759 1.398 . S
C1760 C1761 1.391 . S
C1761 H1749 0.950 . S
C1761 C1757 1.393 . S
C1761 C1760 1.391 . S
C1762 H1752 0.950 1_554 S
C1762 C1763 1.386 . S
C1762 C1764 1.391 . S
C1763 C1762 1.386 . S
C1763 C1767 1.393 . S
C1764 H1753 0.950 . S
C1764 C1762 1.391 . S
C1764 C1765 1.400 . S
C1765 C1759 1.491 . S
C1765 C1764 1.400 . S
C1765 C1766 1.398 . S
C1766 H1754 0.950 . S
C1766 C1765 1.398 . S
C1766 C1767 1.391 . S
C1767 H1755 0.950 . S
C1767 C1763 1.393 . S
C1767 C1766 1.391 . S
H1768 C1776 0.950 . S
H1769 C1781 0.950 . S
H1770 C1778 0.950 . S
H1771 C1780 0.950 . S
H1772 C1782 0.950 . S
H1773 C1784 0.950 . S
H1774 C1786 0.950 . S
H1775 C1787 0.950 . S
C1776 H1768 0.950 . S
C1776 C1777 1.386 . S
C1776 C1778 1.391 . S
C1777 C1776 1.386 . S
C1777 C1781 1.393 1_655 S
C1778 H1770 0.950 . S
C1778 C1776 1.391 . S
C1778 C1779 1.400 . S
C1779 C1778 1.400 . S
C1779 C1780 1.398 1_655 S
C1779 C1785 1.491 . S
C1780 H1771 0.950 . S
C1780 C1779 1.398 1_455 S
C1780 C1781 1.391 . S
C1781 H1769 0.950 . S
C1781 C1777 1.393 1_455 S
C1781 C1780 1.391 . S
C1782 H1772 0.950 . S
C1782 C1783 1.386 1_455 S
C1782 C1784 1.391 . S
C1783 C1782 1.386 1_655 S
C1783 C1787 1.393 . S
C1784 H1773 0.950 . S
C1784 C1782 1.391 . S
C1784 C1785 1.400 1_455 S
C1785 C1779 1.491 . S
C1785 C1784 1.400 1_655 S
C1785 C1786 1.398 . S
C1786 H1774 0.950 . S
C1786 C1785 1.398 . S
C1786 C1787 1.391 . S
C1787 H1775 0.950 . S
C1787 C1783 1.393 . S
C1787 C1786 1.391 . S
H1788 C1796 0.950 . S
H1789 C1801 0.950 . S
H1790 C1798 0.950 . S
H1791 C1800 0.950 . S
H1792 C1802 0.950 . S
H1793 C1804 0.950 . S
H1794 C1806 0.950 . S
H1795 C1807 0.950 . S
C1796 H1788 0.950 . S
C1796 C1797 1.386 . S
C1796 C1798 1.391 . S
C1797 C1796 1.386 . S
C1797 C1801 1.393 . S
C1798 H1790 0.950 . S
C1798 C1796 1.391 . S
C1798 C1799 1.400 . S
C1799 C1798 1.400 . S
C1799 C1800 1.398 . S
C1799 C1805 1.491 . S
C1800 H1791 0.950 . S
C1800 C1799 1.398 . S
C1800 C1801 1.391 . S
C1801 H1789 0.950 . S
C1801 C1797 1.393 . S
C1801 C1800 1.391 . S
C1802 H1792 0.950 . S
C1802 C1803 1.386 . S
C1802 C1804 1.391 . S
C1803 C1802 1.386 . S
C1803 C1807 1.393 . S
C1804 H1793 0.950 . S
C1804 C1802 1.391 . S
C1804 C1805 1.400 . S
C1805 C1799 1.491 . S
C1805 C1804 1.400 . S
C1805 C1806 1.398 . S
C1806 H1794 0.950 . S
C1806 C1805 1.398 . S
C1806 C1807 1.391 . S
C1807 H1795 0.950 . S
C1807 C1803 1.393 . S
C1807 C1806 1.391 . S
H1808 C1816 0.950 . S
H1809 C1821 0.950 . S
H1810 C1818 0.950 . S
H1811 C1820 0.950 . S
H1812 C1822 0.950 . S
H1813 C1824 0.950 . S
H1814 C1826 0.950 . S
H1815 C1827 0.950 . S
C1816 H1808 0.950 . S
C1816 C1817 1.386 . S
C1816 C1818 1.391 . S
C1817 C1816 1.386 . S
C1817 C1821 1.393 . S
C1818 H1810 0.950 . S
C1818 C1816 1.391 . S
C1818 C1819 1.400 . S
C1819 C1818 1.400 . S
C1819 C1820 1.398 . S
C1819 C1825 1.491 . S
C1820 H1811 0.950 . S
C1820 C1819 1.398 . S
C1820 C1821 1.391 . S
C1821 H1809 0.950 . S
C1821 C1817 1.393 . S
C1821 C1820 1.391 . S
C1822 H1812 0.950 . S
C1822 C1823 1.386 . S
C1822 C1824 1.391 . S
C1823 C1822 1.386 . S
C1823 C1827 1.393 . S
C1824 H1813 0.950 . S
C1824 C1822 1.391 . S
C1824 C1825 1.400 . S
C1825 C1819 1.491 . S
C1825 C1824 1.400 . S
C1825 C1826 1.398 . S
C1826 H1814 0.950 . S
C1826 C1825 1.398 . S
C1826 C1827 1.391 . S
C1827 H1815 0.950 . S
C1827 C1823 1.393 . S
C1827 C1826 1.391 . S
H1828 C1836 0.950 . S
H1829 C1841 0.950 . S
H1830 C1838 0.950 . S
H1831 C1840 0.950 . S
H1832 C1842 0.950 . S
H1833 C1844 0.950 . S
H1834 C1846 0.950 . S
H1835 C1847 0.950 . S
C1836 H1828 0.950 . S
C1836 C1837 1.386 . S
C1836 C1838 1.391 . S
C1837 C1836 1.386 . S
C1837 C1841 1.393 . S
C1838 H1830 0.950 . S
C1838 C1836 1.391 . S
C1838 C1839 1.400 . S
C1839 C1838 1.400 . S
C1839 C1840 1.398 . S
C1839 C1845 1.491 . S
C1840 H1831 0.950 . S
C1840 C1839 1.398 . S
C1840 C1841 1.391 . S
C1841 H1829 0.950 . S
C1841 C1837 1.393 . S
C1841 C1840 1.391 . S
C1842 H1832 0.950 . S
C1842 C1843 1.386 . S
C1842 C1844 1.391 . S
C1843 C1842 1.386 . S
C1843 C1847 1.393 . S
C1844 H1833 0.950 . S
C1844 C1842 1.391 . S
C1844 C1845 1.400 . S
C1845 C1839 1.491 . S
C1845 C1844 1.400 . S
C1845 C1846 1.398 . S
C1846 H1834 0.950 . S
C1846 C1845 1.398 . S
C1846 C1847 1.391 . S
C1847 H1835 0.950 . S
C1847 C1843 1.393 . S
C1847 C1846 1.391 . S
H1848 C1856 0.950 . S
H1849 C1861 0.950 . S
H1850 C1858 0.950 . S
H1851 C1860 0.950 . S
H1852 C1862 0.950 . S
H1853 C1864 0.950 . S
H1854 C1866 0.950 . S
H1855 C1867 0.950 . S
C1856 H1848 0.950 . S
C1856 C1857 1.386 . S
C1856 C1858 1.391 . S
C1857 C1856 1.386 . S
C1857 C1861 1.393 1_655 S
C1858 H1850 0.950 . S
C1858 C1856 1.391 . S
C1858 C1859 1.400 . S
C1859 C1858 1.400 . S
C1859 C1860 1.398 1_655 S
C1859 C1865 1.491 . S
C1860 H1851 0.950 . S
C1860 C1859 1.398 1_455 S
C1860 C1861 1.391 . S
C1861 H1849 0.950 . S
C1861 C1857 1.393 1_455 S
C1861 C1860 1.391 . S
C1862 H1852 0.950 . S
C1862 C1863 1.386 1_455 S
C1862 C1864 1.391 . S
C1863 C1862 1.386 1_655 S
C1863 C1867 1.393 . S
C1864 H1853 0.950 . S
C1864 C1862 1.391 . S
C1864 C1865 1.400 1_455 S
C1865 C1859 1.491 . S
C1865 C1864 1.400 1_655 S
C1865 C1866 1.398 . S
C1866 H1854 0.950 . S
C1866 C1865 1.398 . S
C1866 C1867 1.391 . S
C1867 H1855 0.950 . S
C1867 C1863 1.393 . S
C1867 C1866 1.391 . S
H1868 C1876 0.950 . S
H1869 C1881 0.950 . S
H1870 C1878 0.950 . S
H1871 C1880 0.950 . S
H1872 C1882 0.950 1_554 S
H1873 C1884 0.950 1_554 S
H1874 C1886 0.950 . S
H1875 C1887 0.950 . S
C1876 H1868 0.950 . S
C1876 C1877 1.386 . S
C1876 C1878 1.391 . S
C1877 C1876 1.386 . S
C1877 C1881 1.393 . S
C1878 H1870 0.950 . S
C1878 C1876 1.391 . S
C1878 C1879 1.400 . S
C1879 C1878 1.400 . S
C1879 C1880 1.398 . S
C1879 C1885 1.491 . S
C1880 H1871 0.950 . S
C1880 C1879 1.398 . S
C1880 C1881 1.391 . S
C1881 H1869 0.950 . S
C1881 C1877 1.393 . S
C1881 C1880 1.391 . S
C1882 H1872 0.950 1_556 S
C1882 C1883 1.386 . S
C1882 C1884 1.391 . S
C1883 C1882 1.386 . S
C1883 C1887 1.393 . S
C1884 H1873 0.950 1_556 S
C1884 C1882 1.391 . S
C1884 C1885 1.400 . S
C1885 C1879 1.491 . S
C1885 C1884 1.400 . S
C1885 C1886 1.398 . S
C1886 H1874 0.950 . S
C1886 C1885 1.398 . S
C1886 C1887 1.391 . S
C1887 H1875 0.950 . S
C1887 C1883 1.393 . S
C1887 C1886 1.391 . S
H1888 C1896 0.950 . S
H1889 C1901 0.950 . S
H1890 C1898 0.950 . S
H1891 C1900 0.950 . S
H1892 C1902 0.950 . S
H1893 C1904 0.950 . S
H1894 C1906 0.950 . S
H1895 C1907 0.950 . S
C1896 H1888 0.950 . S
C1896 C1897 1.386 1_545 S
C1896 C1898 1.391 . S
C1897 C1896 1.386 1_565 S
C1897 C1901 1.393 . S
C1898 H1890 0.950 . S
C1898 C1896 1.391 . S
C1898 C1899 1.400 1_545 S
C1899 C1898 1.400 1_565 S
C1899 C1900 1.398 . S
C1899 C1905 1.491 . S
C1900 H1891 0.950 . S
C1900 C1899 1.398 . S
C1900 C1901 1.391 . S
C1901 H1889 0.950 . S
C1901 C1897 1.393 . S
C1901 C1900 1.391 . S
C1902 H1892 0.950 . S
C1902 C1903 1.386 . S
C1902 C1904 1.391 . S
C1903 C1902 1.386 . S
C1903 C1907 1.393 1_565 S
C1904 H1893 0.950 . S
C1904 C1902 1.391 . S
C1904 C1905 1.400 . S
C1905 C1899 1.491 . S
C1905 C1904 1.400 . S
C1905 C1906 1.398 1_565 S
C1906 H1894 0.950 . S
C1906 C1905 1.398 1_545 S
C1906 C1907 1.391 . S
C1907 H1895 0.950 . S
C1907 C1903 1.393 1_545 S
C1907 C1906 1.391 . S
H1908 C1916 0.950 . S
H1909 C1921 0.950 . S
H1910 C1918 0.950 . S
H1911 C1920 0.950 . S
H1912 C1922 0.950 1_565 S
H1913 C1924 0.950 1_565 S
H1914 C1926 0.950 . S
H1915 C1927 0.950 . S
C1916 H1908 0.950 . S
C1916 C1917 1.386 . S
C1916 C1918 1.391 . S
C1917 C1916 1.386 . S
C1917 C1921 1.393 1_545 S
C1918 H1910 0.950 . S
C1918 C1916 1.391 . S
C1918 C1919 1.400 . S
C1919 C1918 1.400 . S
C1919 C1920 1.398 1_545 S
C1919 C1925 1.491 . S
C1920 H1911 0.950 . S
C1920 C1919 1.398 1_565 S
C1920 C1921 1.391 . S
C1921 H1909 0.950 . S
C1921 C1917 1.393 1_565 S
C1921 C1920 1.391 . S
C1922 H1912 0.950 1_545 S
C1922 C1923 1.386 . S
C1922 C1924 1.391 . S
C1923 C1922 1.386 . S
C1923 C1927 1.393 . S
C1924 H1913 0.950 1_545 S
C1924 C1922 1.391 . S
C1924 C1925 1.400 . S
C1925 C1919 1.491 . S
C1925 C1924 1.400 . S
C1925 C1926 1.398 . S
C1926 H1914 0.950 . S
C1926 C1925 1.398 . S
C1926 C1927 1.391 . S
C1927 H1915 0.950 . S
C1927 C1923 1.393 . S
C1927 C1926 1.391 . S
H1928 C1936 0.950 . S
H1929 C1941 0.950 . S
H1930 C1938 0.950 . S
H1931 C1940 0.950 . S
H1932 C1942 0.950 1_545 S
H1933 C1944 0.955 . S
H1934 C1946 0.950 . S
H1935 C1947 0.950 . S
C1936 H1928 0.950 . S
C1936 C1937 1.386 1_565 S
C1936 C1938 1.391 . S
C1937 C1936 1.386 1_545 S
C1937 C1941 1.393 . S
C1938 H1930 0.950 . S
C1938 C1936 1.391 . S
C1938 C1939 1.411 . S
C1939 C1938 1.411 . S
C1939 C1940 1.393 1_565 S
C1939 C1945 1.486 . S
C1940 H1931 0.950 . S
C1940 C1939 1.393 1_545 S
C1940 C1941 1.391 . S
C1941 H1929 0.950 . S
C1941 C1937 1.393 . S
C1941 C1940 1.391 . S
C1942 H1932 0.950 1_565 S
C1942 C1943 1.386 . S
C1942 C1944 1.397 1_565 S
C1943 C1942 1.386 . S
C1943 C1947 1.393 . S
C1944 H1933 0.955 . S
C1944 C1942 1.397 1_545 S
C1944 C1945 1.391 1_545 S
C1945 C1939 1.486 . S
C1945 C1944 1.391 1_565 S
C1945 C1946 1.398 . S
C1946 H1934 0.950 . S
C1946 C1945 1.398 . S
C1946 C1947 1.391 . S
C1947 H1935 0.950 . S
C1947 C1943 1.393 . S
C1947 C1946 1.391 . S
H1948 C1956 0.953 . S
H1949 C1961 0.950 . S
H1950 C1958 0.949 1_565 S
H1951 C1960 0.950 . S
H1952 C1962 0.950 . S
H1953 C1964 0.950 . S
H1954 C1966 0.950 . S
H1955 C1967 0.950 . S
C1956 H1948 0.953 . S
C1956 C1957 1.386 . S
C1956 C1958 1.387 . S
C1957 C1956 1.386 . S
C1957 C1961 1.393 . S
C1958 H1950 0.949 1_545 S
C1958 C1956 1.387 . S
C1958 C1959 1.406 . S
C1959 C1958 1.406 . S
C1959 C1960 1.398 . S
C1959 C1965 1.491 . S
C1960 H1951 0.950 . S
C1960 C1959 1.398 . S
C1960 C1961 1.391 . S
C1961 H1949 0.950 . S
C1961 C1957 1.393 . S
C1961 C1960 1.391 . S
C1962 H1952 0.950 . S
C1962 C1963 1.386 1_545 S
C1962 C1964 1.391 . S
C1963 C1962 1.386 1_565 S
C1963 C1967 1.393 . S
C1964 H1953 0.950 . S
C1964 C1962 1.391 . S
C1964 C1965 1.400 . S
C1965 C1959 1.491 . S
C1965 C1964 1.400 . S
C1965 C1966 1.398 1_545 S
C1966 H1954 0.950 . S
C1966 C1965 1.398 1_565 S
C1966 C1967 1.391 . S
C1967 H1955 0.950 . S
C1967 C1963 1.393 . S
C1967 C1966 1.391 . S
C537 C316 1.838 . S
C543 C5 1.805 . S
C557 C327 1.896 . S
C563 C19 1.890 . S
C577 C335 1.735 . S
C583 C30 1.742 . S
C597 C41 1.758 . S
C603 C349 1.756 . S
C617 C272 1.820 . S
C623 C49 1.827 . S
C637 C283 1.749 . S
C643 C63 1.760 . S
C657 C291 1.727 . S
C663 C74 1.755 . S
C677 C85 1.897 . S
C683 C305 1.896 . S
C697 C426 1.758 . S
C703 C93 1.739 . S
C717 C434 1.376 . S
C723 C107 1.823 . S
C737 C401 1.759 . S
C743 C118 1.807 . S
C757 C415 1.718 . S
C763 C126 1.277 . S
C777 C137 1.750 . S
C783 C382 1.776 . S
C797 C148 1.299 . S
C803 C393 1.711 . S
C817 C357 1.787 . S
C823 C162 1.794 . S
C837 C173 1.829 . S
C843 C368 1.382 . S
C857 C184 1.776 . S
C863 C503 1.802 . S
C877 C195 1.763 . S
C883 C481 1.799 . S
C897 C206 1.639 . S
C903 C489 1.223 . S
C917 C459 1.812 . S
C923 C217 1.811 . S
C937 C225 1.490 . S
C943 C470 1.889 . S
C957 C239 1.792 . S
C963 C448 1.814 . S
C977 C522 1.218 . S
C983 C250 1.642 . S
C997 C258 1.468 . S
C1003 C514 1.890 . S
C1017 C170 1.769 . S
C1023 C8 1.847 . S
C1037 C16 1.945 . S
C1043 C140 2.021 . S
C1057 C27 1.417 . S
C1063 C151 1.732 . S
C1077 C38 1.776 . S
C1083 C159 1.380 . S
C1097 C104 1.773 . S
C1103 C52 1.847 . S
C1117 C60 1.779 . S
C1123 C115 1.379 . S
C1137 C71 1.368 . S
C1143 C129 1.737 . S
C1157 C82 1.947 . S
C1163 C96 2.020 . S
C1177 C228 1.792 . S
C1183 C181 1.431 . S
C1197 C192 1.431 . S
C1203 C261 1.792 . S
C1217 C203 1.633 . S
C1223 C236 1.281 . S
C1237 C247 1.611 . S
C1243 C214 1.317 . S
C1257 C269 1.443 . S
C1263 C437 1.728 . S
C1277 C404 1.772 . S
C1283 C280 1.604 . S
C1297 C294 1.729 . S
C1303 C412 1.572 1_545 S
C1317 C302 1.493 . S
C1323 C423 1.216 . S
C1337 C313 1.412 . S
C1343 C371 1.739 . S
C1357 C379 1.193 . S
C1363 C324 1.489 . S
C1377 C390 1.585 1_565 S
C1383 C338 1.726 . S
C1397 C346 1.609 . S
C1403 C360 1.767 . S
C1417 C492 1.673 . S
C1423 C445 1.355 . S
C1437 C525 1.679 . S
C1443 C456 1.346 . S
C1457 C500 1.479 . S
C1463 C467 1.794 1_455 S
C1477 C511 1.800 1_455 S
C1483 C478 1.482 . S
C1497 C227 1.527 . S
C1503 C7 1.627 . S
C1517 C194 1.586 . S
C1523 C18 1.706 . S
C1537 C29 1.358 . S
C1543 C205 1.458 . S
C1557 C216 1.601 . S
C1563 C40 1.691 . S
C1577 C51 1.639 . S
C1583 C260 1.559 . S
C1597 C62 1.681 . S
C1603 C238 1.581 . S
C1617 C73 1.330 . S
C1623 C249 1.439 . S
C1637 C84 1.710 . S
C1643 C183 1.616 . S
C1657 C95 1.734 . S
C1663 C172 1.719 . S
C1677 C106 1.728 . S
C1683 C139 1.733 . S
C1697 C150 1.538 . S
C1703 C117 1.480 . S
C1717 C128 1.535 . S
C1723 C161 1.477 . S
C1737 C491 1.554 . S
C1743 C271 1.563 . S
C1757 C282 1.671 . S
C1763 C458 1.545 . S
C1777 C293 1.725 . S
C1783 C469 1.709 . S
C1797 C480 1.646 . S
C1803 C304 1.798 . S
C1817 C524 1.527 . S
C1823 C315 1.555 . S
C1837 C502 1.658 . S
C1843 C326 1.788 . S
C1857 C337 1.723 . S
C1863 C513 1.710 . S
C1877 C348 1.672 . S
C1883 C447 1.534 . S
C1897 C436 1.488 . S
C1903 C359 1.618 . S
C1917 C403 1.617 . S
C1923 C370 1.475 . S
C1937 C381 1.423 1_545 S
C1943 C414 1.534 . S
C1957 C392 1.531 . S
C1963 C425 1.398 1_565 S
