# Generated by pormake.
# Topology wjz, (5)-cn, num edge types: 1
# Building blocks:
#     Node 0, Type 0, BuildingBlock: XOMCOT_clean_sbu_0, # of connection points: 5
#     Node 1, Type 0, BuildingBlock: XOMCOT_clean_sbu_0, # of connection points: 5
#     Node 2, Type 0, BuildingBlock: XOMCOT_clean_sbu_0, # of connection points: 5
#     Node 3, Type 0, BuildingBlock: XOMCOT_clean_sbu_0, # of connection points: 5
#     Node 4, Type 0, BuildingBlock: XOMCOT_clean_sbu_0, # of connection points: 5
#     Node 5, Type 0, BuildingBlock: XOMCOT_clean_sbu_0, # of connection points: 5
#     Node 6, Type 0, BuildingBlock: XOMCOT_clean_sbu_0, # of connection points: 5
#     Node 7, Type 0, BuildingBlock: XOMCOT_clean_sbu_0, # of connection points: 5
#     Node 8, Type 0, BuildingBlock: XOMCOT_clean_sbu_0, # of connection points: 5
#     Node 9, Type 0, BuildingBlock: XOMCOT_clean_sbu_0, # of connection points: 5
#     Node 10, Type 0, BuildingBlock: XOMCOT_clean_sbu_0, # of connection points: 5
#     Node 11, Type 0, BuildingBlock: XOMCOT_clean_sbu_0, # of connection points: 5
#     Edge 12, Type (0, 0), BuildingBlock: MIFKUJ_clean_linker_0, # of connection points: 2
#     Edge 13, Type (0, 0), BuildingBlock: MIFKUJ_clean_linker_0, # of connection points: 2
#     Edge 14, Type (0, 0), BuildingBlock: MIFKUJ_clean_linker_0, # of connection points: 2
#     Edge 15, Type (0, 0), BuildingBlock: MIFKUJ_clean_linker_0, # of connection points: 2
#     Edge 16, Type (0, 0), BuildingBlock: MIFKUJ_clean_linker_0, # of connection points: 2
#     Edge 17, Type (0, 0), BuildingBlock: MIFKUJ_clean_linker_0, # of connection points: 2
#     Edge 18, Type (0, 0), BuildingBlock: MIFKUJ_clean_linker_0, # of connection points: 2
#     Edge 19, Type (0, 0), BuildingBlock: MIFKUJ_clean_linker_0, # of connection points: 2
#     Edge 20, Type (0, 0), BuildingBlock: MIFKUJ_clean_linker_0, # of connection points: 2
#     Edge 21, Type (0, 0), BuildingBlock: MIFKUJ_clean_linker_0, # of connection points: 2
#     Edge 22, Type (0, 0), BuildingBlock: MIFKUJ_clean_linker_0, # of connection points: 2
#     Edge 23, Type (0, 0), BuildingBlock: MIFKUJ_clean_linker_0, # of connection points: 2
#     Edge 24, Type (0, 0), BuildingBlock: MIFKUJ_clean_linker_0, # of connection points: 2
#     Edge 25, Type (0, 0), BuildingBlock: MIFKUJ_clean_linker_0, # of connection points: 2
#     Edge 26, Type (0, 0), BuildingBlock: MIFKUJ_clean_linker_0, # of connection points: 2
#     Edge 27, Type (0, 0), BuildingBlock: MIFKUJ_clean_linker_0, # of connection points: 2
#     Edge 28, Type (0, 0), BuildingBlock: MIFKUJ_clean_linker_0, # of connection points: 2
#     Edge 29, Type (0, 0), BuildingBlock: MIFKUJ_clean_linker_0, # of connection points: 2
#     Edge 30, Type (0, 0), BuildingBlock: MIFKUJ_clean_linker_0, # of connection points: 2
#     Edge 31, Type (0, 0), BuildingBlock: MIFKUJ_clean_linker_0, # of connection points: 2
#     Edge 32, Type (0, 0), BuildingBlock: MIFKUJ_clean_linker_0, # of connection points: 2
#     Edge 33, Type (0, 0), BuildingBlock: MIFKUJ_clean_linker_0, # of connection points: 2
#     Edge 34, Type (0, 0), BuildingBlock: MIFKUJ_clean_linker_0, # of connection points: 2
#     Edge 35, Type (0, 0), BuildingBlock: MIFKUJ_clean_linker_0, # of connection points: 2
#     Edge 36, Type (0, 0), BuildingBlock: MIFKUJ_clean_linker_0, # of connection points: 2
#     Edge 37, Type (0, 0), BuildingBlock: MIFKUJ_clean_linker_0, # of connection points: 2
#     Edge 38, Type (0, 0), BuildingBlock: MIFKUJ_clean_linker_0, # of connection points: 2
#     Edge 39, Type (0, 0), BuildingBlock: MIFKUJ_clean_linker_0, # of connection points: 2
#     Edge 40, Type (0, 0), BuildingBlock: MIFKUJ_clean_linker_0, # of connection points: 2
#     Edge 41, Type (0, 0), BuildingBlock: MIFKUJ_clean_linker_0, # of connection points: 2
# Relax obj value: 0.147
# Max RMSD: 0.179
# Mean RMSD: 0.179
data_MOF--net-wjz--node1-XOMCOT_clean_sbu_0--edge1-MIFKUJ_clean_linker_0
_symmetry_space_group_name_H-M    P1
_symmetry_Int_Tables_number       1
_symmetry_cell_setting            triclinic
loop_
_symmetry_equiv_pos_as_xyz
'x, y, z'
_cell_length_a     92.913345
_cell_length_b     92.966303
_cell_length_c     21.99766
_cell_angle_alpha  90.013176
_cell_angle_beta   89.994905
_cell_angle_gamma 119.9964
loop_
_atom_site_label
_atom_site_type_symbol
_atom_site_fract_x
_atom_site_fract_y
_atom_site_fract_z
_atom_type_partial_charge
Co0 Co 0.32824 0.47312 0.09911 0.0
C1 C 0.332 0.47693 0.23448 0.0
C2 C 0.34502 0.50012 0.18759 0.0
C3 C 0.34638 0.50325 0.24889 0.0
N4 N 0.33648 0.48356 0.17816 0.0
N5 N 0.3381 0.48865 0.27865 0.0
H6 H 0.32334 0.46401 0.24304 0.0
H7 H 0.34933 0.50943 0.15223 0.0
C8 C 0.36396 0.49697 0.0773 0.0
O9 O 0.36702 0.4908 0.12615 0.0
N10 N 0.31974 0.46318 0.02071 0.0
C11 C 0.30932 0.44697 0.00941 0.0
C12 C 0.3067 0.44486 0.94767 0.0
C13 C 0.32328 0.47074 0.96604 0.0
N14 N 0.31553 0.45981 0.92033 0.0
C15 C 0.33259 0.44719 0.15175 0.0
C16 C 0.35553 0.44894 0.06782 0.0
C17 C 0.35095 0.43754 0.1158 0.0
C18 C 0.339 0.43651 0.1573 0.0
C19 C 0.34855 0.45912 0.06333 0.0
N20 N 0.33801 0.45893 0.10711 0.0
H21 H 0.32283 0.44555 0.18215 0.0
H22 H 0.35165 0.46718 0.02431 0.0
H23 H 0.30416 0.43734 0.04365 0.0
H24 H 0.33168 0.4839 0.95987 0.0
O25 O 0.30696 0.45858 0.13483 0.0
O26 O 0.31475 0.48355 0.09674 0.0
O27 O 0.34899 0.49126 0.05918 0.0
C28 C 0.30344 0.47023 0.12419 0.0
H29 H 0.35259 0.51545 0.26943 0.0
H30 H 0.29886 0.43318 0.92491 0.0
H31 H 0.36455 0.45018 0.03402 0.0
H32 H 0.33435 0.42732 0.19321 0.0
Co33 Co 0.85281 0.32781 0.24333 0.0
C34 C 0.85247 0.3311 0.37888 0.0
C35 C 0.84098 0.34294 0.33225 0.0
C36 C 0.83909 0.34411 0.39365 0.0
N37 N 0.84976 0.33516 0.32273 0.0
N38 N 0.84631 0.33664 0.42292 0.0
H39 H 0.85768 0.32327 0.38787 0.0
H40 H 0.83578 0.34701 0.29675 0.0
C41 C 0.86605 0.36395 0.2308 0.0
O42 O 0.87437 0.36555 0.28109 0.0
N43 N 0.85512 0.3202 0.1645 0.0
C44 C 0.86152 0.3103 0.15311 0.0
C45 C 0.86172 0.30826 0.09125 0.0
C46 C 0.85134 0.32396 0.10981 0.0
N47 N 0.85534 0.31687 0.06413 0.0
C48 C 0.88173 0.32968 0.29985 0.0
C49 C 0.90477 0.35462 0.22604 0.0
C50 C 0.91037 0.34907 0.27485 0.0
C51 C 0.89864 0.33604 0.31083 0.0
C52 C 0.88777 0.3478 0.2165 0.0
N53 N 0.87648 0.33643 0.25613 0.0
H54 H 0.87291 0.3191 0.32571 0.0
H55 H 0.88371 0.35178 0.17721 0.0
H56 H 0.86595 0.30512 0.18744 0.0
H57 H 0.8462 0.33205 0.10355 0.0
O58 O 0.84444 0.30577 0.27505 0.0
O59 O 0.82897 0.31551 0.23555 0.0
O60 O 0.85695 0.34955 0.20738 0.0
C61 C 0.82974 0.30338 0.26197 0.0
H62 H 0.83263 0.34977 0.41492 0.0
H63 H 0.86619 0.30099 0.06804 0.0
H64 H 0.91345 0.36408 0.19526 0.0
H65 H 0.90248 0.33096 0.3476 0.0
Co66 Co 0.52303 0.85612 0.43553 0.0
C67 C 0.51949 0.85709 0.5706 0.0
C68 C 0.49606 0.84495 0.52457 0.0
C69 C 0.49311 0.84403 0.58611 0.0
N70 N 0.51261 0.85358 0.51457 0.0
N71 N 0.50788 0.85162 0.61484 0.0
H72 H 0.5326 0.86296 0.57967 0.0
H73 H 0.48673 0.83928 0.48943 0.0
C74 C 0.49976 0.86904 0.41859 0.0
O75 O 0.5052 0.87707 0.47028 0.0
N76 N 0.53296 0.85802 0.35695 0.0
C77 C 0.54906 0.86325 0.34525 0.0
C78 C 0.55119 0.86366 0.28317 0.0
C79 C 0.52549 0.8553 0.30232 0.0
N80 N 0.53637 0.85874 0.25635 0.0
C81 C 0.55082 0.88471 0.48914 0.0
C82 C 0.54972 0.90797 0.4142 0.0
C83 C 0.56186 0.91338 0.45975 0.0
C84 C 0.56247 0.90149 0.49701 0.0
C85 C 0.53833 0.89109 0.40803 0.0
N86 N 0.53833 0.87973 0.4475 0.0
H87 H 0.55233 0.87573 0.51504 0.0
H88 H 0.52978 0.8872 0.37029 0.0
H89 H 0.55862 0.86686 0.37943 0.0
H90 H 0.51239 0.85093 0.29631 0.0
O91 O 0.53636 0.84754 0.46893 0.0
O92 O 0.51128 0.83225 0.42846 0.0
O93 O 0.50579 0.86037 0.39741 0.0
C94 C 0.52406 0.8329 0.45551 0.0
H95 H 0.48109 0.83766 0.60811 0.0
H96 H 0.56283 0.86777 0.25964 0.0
H97 H 0.549 0.91669 0.38346 0.0
H98 H 0.57215 0.90506 0.5308 0.0
Co99 Co 0.67081 0.52578 0.57665 0.0
C100 C 0.66666 0.52263 0.7118 0.0
C101 C 0.65029 0.49993 0.66615 0.0
C102 C 0.64876 0.49701 0.72768 0.0
N103 N 0.66109 0.51617 0.65573 0.0
N104 N 0.65911 0.51129 0.7565 0.0
H105 H 0.67708 0.53489 0.71986 0.0
H106 H 0.64462 0.49047 0.63155 0.0
C107 C 0.63504 0.50472 0.54725 0.0
O108 O 0.63214 0.51224 0.59223 0.0
N109 N 0.68086 0.53489 0.49865 0.0
C110 C 0.69271 0.5507 0.48779 0.0
C111 C 0.69569 0.55267 0.42624 0.0
C112 C 0.67684 0.5274 0.44376 0.0
N113 N 0.68564 0.53804 0.39845 0.0
C114 C 0.66559 0.55158 0.62701 0.0
C115 C 0.64765 0.55308 0.52943 0.0
C116 C 0.64945 0.56264 0.58114 0.0
C117 C 0.65892 0.5621 0.62983 0.0
C118 C 0.65437 0.54264 0.52884 0.0
N119 N 0.66247 0.54129 0.57853 0.0
H120 H 0.67331 0.55186 0.66376 0.0
H121 H 0.6527 0.53529 0.48863 0.0
H122 H 0.69848 0.56026 0.5221 0.0
H123 H 0.66722 0.51463 0.43692 0.0
O124 O 0.69195 0.53937 0.61519 0.0
O125 O 0.68271 0.51376 0.58049 0.0
O126 O 0.64996 0.50848 0.53462 0.0
C127 C 0.69434 0.52683 0.60806 0.0
H128 H 0.64102 0.4851 0.74918 0.0
H129 H 0.7045 0.56408 0.40379 0.0
H130 H 0.64101 0.55355 0.48972 0.0
H131 H 0.66092 0.56947 0.67039 0.0
Co132 Co 0.14423 0.67153 0.73691 0.0
C133 C 0.14392 0.66762 0.86983 0.0
C134 C 0.15603 0.65601 0.82508 0.0
C135 C 0.15705 0.65446 0.88696 0.0
N136 N 0.14776 0.66421 0.81461 0.0
N137 N 0.14949 0.66182 0.91506 0.0
H138 H 0.13739 0.67441 0.87649 0.0
H139 H 0.16141 0.65193 0.79029 0.0
C140 C 0.13183 0.64091 0.66028 0.0
O141 O 0.11978 0.64318 0.64021 0.0
N142 N 0.14126 0.67922 0.65801 0.0
C143 C 0.13568 0.6898 0.6456 0.0
C144 C 0.13646 0.69249 0.58393 0.0
C145 C 0.14621 0.67642 0.60368 0.0
N146 N 0.14301 0.68397 0.55739 0.0
C147 C 0.11288 0.66951 0.76207 0.0
C148 C 0.09506 0.63563 0.78119 0.0
C149 C 0.08669 0.64467 0.78324 0.0
C150 C 0.09593 0.66191 0.77497 0.0
C151 C 0.11204 0.64378 0.76848 0.0
N152 N 0.12052 0.66035 0.75488 0.0
H153 H 0.1199 0.68284 0.76006 0.0
H154 H 0.11837 0.63671 0.76994 0.0
H155 H 0.1319 0.69583 0.6785 0.0
H156 H 0.15239 0.66926 0.59834 0.0
O157 O 0.15076 0.69295 0.77175 0.0
O158 O 0.16789 0.68575 0.72888 0.0
O159 O 0.14241 0.65103 0.69841 0.0
C160 C 0.16589 0.69688 0.75766 0.0
H161 H 0.16346 0.64891 0.9094 0.0
H162 H 0.13246 0.70014 0.56072 0.0
H163 H 0.08857 0.62234 0.78881 0.0
H164 H 0.09021 0.66954 0.7797 0.0
Co165 Co 0.47347 0.14101 0.91794 0.0
C166 C 0.47632 0.13952 0.05091 0.0
C167 C 0.50011 0.15005 0.00699 0.0
C168 C 0.50246 0.15029 0.06881 0.0
N169 N 0.48374 0.14321 0.99603 0.0
N170 N 0.4875 0.1437 0.09635 0.0
H171 H 0.46305 0.134 0.05722 0.0
H172 H 0.5097 0.15494 0.97257 0.0
C173 C 0.48853 0.1247 0.84532 0.0
O174 O 0.47363 0.11394 0.82518 0.0
N175 N 0.46354 0.13957 0.83836 0.0
C176 C 0.44862 0.13807 0.82604 0.0
C177 C 0.44702 0.13899 0.76429 0.0
C178 C 0.47117 0.14248 0.78369 0.0
N179 N 0.4612 0.14168 0.7375 0.0
C180 C 0.44187 0.11098 0.93313 0.0
C181 C 0.45484 0.09112 0.96643 0.0
C182 C 0.43759 0.08389 0.96001 0.0
C183 C 0.43111 0.09414 0.94424 0.0
C184 C 0.46513 0.10797 0.95427 0.0
N185 N 0.45867 0.11752 0.93466 0.0
H186 H 0.43658 0.11873 0.92467 0.0
H187 H 0.47836 0.11334 0.96068 0.0
H188 H 0.43969 0.13725 0.85924 0.0
H189 H 0.48401 0.1458 0.77788 0.0
O190 O 0.46034 0.1497 0.95225 0.0
O191 O 0.48534 0.16484 0.91073 0.0
O192 O 0.49058 0.13642 0.88098 0.0
C193 C 0.47271 0.1643 0.93866 0.0
H194 H 0.51433 0.15548 0.09172 0.0
H195 H 0.43623 0.13789 0.74127 0.0
H196 H 0.4604 0.08389 0.98129 0.0
H197 H 0.41785 0.08924 0.94001 0.0
Co198 Co 0.52099 0.66695 0.73086 0.0
C199 C 0.51676 0.66442 0.5976 0.0
C200 C 0.49336 0.65092 0.64384 0.0
C201 C 0.49045 0.64987 0.58215 0.0
N202 N 0.50985 0.65999 0.65331 0.0
N203 N 0.50517 0.65842 0.55305 0.0
H204 H 0.52997 0.67231 0.59018 0.0
H205 H 0.48407 0.64571 0.67928 0.0
C206 C 0.50466 0.63566 0.80415 0.0
O207 O 0.51941 0.63836 0.8206 0.0
N208 N 0.53188 0.67424 0.80973 0.0
C209 C 0.54798 0.68521 0.82186 0.0
C210 C 0.55001 0.6876 0.88369 0.0
C211 C 0.52426 0.67084 0.86457 0.0
N212 N 0.53509 0.67849 0.9106 0.0
C213 C 0.55113 0.66734 0.69916 0.0
C214 C 0.53697 0.63372 0.67708 0.0
C215 C 0.55431 0.64378 0.67351 0.0
C216 C 0.56128 0.66089 0.68299 0.0
C217 C 0.52727 0.64076 0.69273 0.0
N218 N 0.53449 0.65718 0.70803 0.0
H219 H 0.55666 0.68059 0.70257 0.0
H220 H 0.51392 0.63294 0.69254 0.0
H221 H 0.5576 0.69181 0.78875 0.0
H222 H 0.51101 0.66297 0.87066 0.0
O223 O 0.53485 0.68885 0.69843 0.0
O224 O 0.51054 0.68011 0.74403 0.0
O225 O 0.50323 0.64569 0.76834 0.0
C226 C 0.52327 0.69193 0.71571 0.0
H227 H 0.47838 0.64333 0.56057 0.0
H228 H 0.56152 0.69589 0.90679 0.0
H229 H 0.53091 0.62049 0.66859 0.0
H230 H 0.57447 0.66933 0.67701 0.0
Co231 Co 0.85284 0.52557 0.92915 0.0
C232 C 0.85173 0.52145 0.79593 0.0
C233 C 0.8417 0.49803 0.84198 0.0
C234 C 0.84037 0.4952 0.78025 0.0
N235 N 0.84888 0.51448 0.85159 0.0
N236 N 0.84665 0.50994 0.75118 0.0
H237 H 0.85703 0.53465 0.78873 0.0
H238 H 0.83748 0.48871 0.87731 0.0
C239 C 0.8677 0.50939 0.0035 0.0
O240 O 0.87931 0.52421 0.02128 0.0
N241 N 0.85615 0.53645 0.00791 0.0
C242 C 0.86045 0.55237 0.01961 0.0
C243 C 0.86022 0.55449 0.08142 0.0
C244 C 0.85235 0.52896 0.06294 0.0
N245 N 0.85524 0.53976 0.10872 0.0
C246 C 0.88379 0.55566 0.90319 0.0
C247 C 0.90172 0.53998 0.87813 0.0
C248 C 0.91 0.55735 0.87929 0.0
C249 C 0.90073 0.56522 0.89009 0.0
C250 C 0.8848 0.53096 0.89108 0.0
N251 N 0.87627 0.53879 0.90777 0.0
H252 H 0.87672 0.56185 0.90839 0.0
H253 H 0.87856 0.51758 0.88806 0.0
H254 H 0.86273 0.56173 0.98613 0.0
H255 H 0.84748 0.51581 0.06944 0.0
O256 O 0.8449 0.53953 0.89613 0.0
O257 O 0.82926 0.51514 0.94121 0.0
O258 O 0.85631 0.50781 0.96696 0.0
C259 C 0.83021 0.52791 0.91313 0.0
H260 H 0.83517 0.48315 0.75874 0.0
H261 H 0.86299 0.5659 0.10427 0.0
H262 H 0.90824 0.53339 0.86695 0.0
H263 H 0.90654 0.57863 0.88926 0.0
Co264 Co 0.32492 0.85116 0.09638 0.0
C265 C 0.32874 0.85138 0.96124 0.0
C266 C 0.33717 0.83662 0.00696 0.0
C267 C 0.33822 0.83483 0.9454 0.0
N268 N 0.33152 0.84725 0.01708 0.0
N269 N 0.33285 0.84408 0.91669 0.0
H270 H 0.32329 0.85903 0.95282 0.0
H271 H 0.33977 0.83011 0.04216 0.0
C272 C 0.36073 0.86179 0.10726 0.0
O273 O 0.36286 0.869 0.05402 0.0
N274 N 0.31803 0.85438 0.17512 0.0
C275 C 0.30928 0.86201 0.187 0.0
C276 C 0.30719 0.86206 0.24885 0.0
C277 C 0.32105 0.84976 0.22941 0.0
N278 N 0.31458 0.85433 0.27557 0.0
C279 C 0.32677 0.88016 0.04185 0.0
C280 C 0.3539 0.90321 0.10755 0.0
C281 C 0.34694 0.90875 0.06359 0.0
C282 C 0.33294 0.89707 0.03155 0.0
C283 C 0.34713 0.88623 0.11719 0.0
N284 N 0.33444 0.87488 0.08162 0.0
H285 H 0.31554 0.87137 0.01879 0.0
H286 H 0.35193 0.88232 0.15436 0.0
H287 H 0.30492 0.86736 0.15307 0.0
H288 H 0.32777 0.84311 0.23471 0.0
O289 O 0.30283 0.84343 0.06578 0.0
O290 O 0.31176 0.8274 0.1061 0.0
O291 O 0.34636 0.85443 0.13213 0.0
C292 C 0.29985 0.8286 0.07984 0.0
H293 H 0.34186 0.8267 0.9236 0.0
H294 H 0.30101 0.8677 0.27221 0.0
H295 H 0.36426 0.91195 0.13519 0.0
H296 H 0.32691 0.90096 0.9986 0.0
Co297 Co 0.47825 0.33055 0.22634 0.0
C298 C 0.48201 0.33437 0.09276 0.0
C299 C 0.50547 0.34685 0.13939 0.0
C300 C 0.50845 0.34829 0.07787 0.0
N301 N 0.48893 0.33817 0.14855 0.0
N302 N 0.49371 0.34043 0.04874 0.0
H303 H 0.46879 0.32676 0.08467 0.0
H304 H 0.51473 0.35133 0.17501 0.0
C305 C 0.49342 0.36274 0.29374 0.0
O306 O 0.47846 0.35929 0.31063 0.0
N307 N 0.46812 0.32256 0.30613 0.0
C308 C 0.45393 0.30825 0.31871 0.0
C309 C 0.45253 0.30575 0.38054 0.0
C310 C 0.47546 0.32805 0.36095 0.0
N311 N 0.46606 0.31828 0.40693 0.0
C312 C 0.44689 0.32965 0.21504 0.0
C313 C 0.45985 0.36156 0.17045 0.0
C314 C 0.44282 0.35217 0.18268 0.0
C315 C 0.43629 0.33594 0.20426 0.0
C316 C 0.47005 0.35489 0.18291 0.0
N317 N 0.46364 0.33936 0.20755 0.0
H318 H 0.4415 0.31692 0.22875 0.0
H319 H 0.48322 0.36238 0.17396 0.0
H320 H 0.44551 0.29957 0.28544 0.0
H321 H 0.48792 0.33833 0.36734 0.0
O322 O 0.46494 0.30865 0.19318 0.0
O323 O 0.48981 0.31831 0.23584 0.0
O324 O 0.49543 0.35234 0.26227 0.0
C325 C 0.47709 0.30621 0.20835 0.0
H326 H 0.52053 0.35441 0.05622 0.0
H327 H 0.44253 0.29532 0.40412 0.0
H328 H 0.4653 0.37411 0.15301 0.0
H329 H 0.42307 0.32813 0.21221 0.0
Co330 Co 0.14291 0.47048 0.43656 0.0
C331 C 0.14272 0.4745 0.30137 0.0
C332 C 0.15827 0.49736 0.34795 0.0
C333 C 0.16 0.50041 0.28652 0.0
N334 N 0.1472 0.48117 0.35748 0.0
N335 N 0.15024 0.486 0.25726 0.0
H336 H 0.13464 0.46152 0.29232 0.0
H337 H 0.16508 0.50626 0.38343 0.0
C338 C 0.13354 0.49644 0.44758 0.0
O339 O 0.12575 0.49091 0.3955 0.0
N340 N 0.1394 0.46027 0.51519 0.0
C341 C 0.13103 0.44391 0.52753 0.0
C342 C 0.13101 0.44187 0.58948 0.0
C343 C 0.14449 0.46798 0.56919 0.0
N344 N 0.13948 0.45702 0.61573 0.0
C345 C 0.11322 0.44444 0.38149 0.0
C346 C 0.09101 0.44903 0.45056 0.0
C347 C 0.08491 0.4368 0.40535 0.0
C348 C 0.09621 0.43429 0.37145 0.0
C349 C 0.10811 0.45877 0.45942 0.0
N350 N 0.11906 0.45719 0.42234 0.0
H351 H 0.12164 0.44167 0.35739 0.0
H352 H 0.11245 0.46735 0.49712 0.0
H353 H 0.12513 0.43418 0.49391 0.0
H354 H 0.15174 0.48133 0.57395 0.0
O355 O 0.14948 0.45534 0.40492 0.0
O356 O 0.16663 0.47991 0.44578 0.0
O357 O 0.14077 0.48932 0.47265 0.0
C358 C 0.16461 0.46656 0.41874 0.0
H359 H 0.1684 0.51216 0.26515 0.0
H360 H 0.12483 0.43011 0.61318 0.0
H361 H 0.08262 0.4508 0.47972 0.0
H362 H 0.09198 0.42463 0.33728 0.0
Co363 Co 0.67083 0.14574 0.58698 0.0
C364 C 0.66725 0.14579 0.45145 0.0
C365 C 0.65639 0.15825 0.49812 0.0
C366 C 0.6548 0.15974 0.43669 0.0
N367 N 0.66382 0.14914 0.50761 0.0
N368 N 0.66169 0.15192 0.4075 0.0
H369 H 0.67408 0.13951 0.44218 0.0
H370 H 0.65277 0.16385 0.53365 0.0
C371 C 0.63456 0.13241 0.59737 0.0
O372 O 0.63316 0.12469 0.54574 0.0
N373 N 0.67801 0.14306 0.66593 0.0
C374 C 0.68809 0.13689 0.67803 0.0
C375 C 0.68986 0.13666 0.74004 0.0
C376 C 0.67382 0.14656 0.72021 0.0
N377 N 0.68087 0.14273 0.76647 0.0
C378 C 0.67041 0.11762 0.53074 0.0
C379 C 0.6452 0.09367 0.6011 0.0
C380 C 0.65213 0.08866 0.55489 0.0
C381 C 0.66514 0.10091 0.52028 0.0
C382 C 0.6509 0.11051 0.61002 0.0
N383 N 0.66259 0.12223 0.57239 0.0
H384 H 0.68119 0.12682 0.50666 0.0
H385 H 0.646 0.11408 0.64796 0.0
H386 H 0.69355 0.13265 0.64412 0.0
H387 H 0.66586 0.15188 0.72557 0.0
O388 O 0.69306 0.15446 0.55691 0.0
O389 O 0.683 0.16958 0.59677 0.0
O390 O 0.64884 0.14117 0.62196 0.0
C391 C 0.69537 0.16903 0.57129 0.0
H392 H 0.64963 0.16661 0.41518 0.0
H393 H 0.6969 0.13201 0.76377 0.0
H394 H 0.63539 0.08467 0.63001 0.0
H395 H 0.67145 0.09764 0.4863 0.0
H396 H 0.32714 0.45986 0.34234 0.0
H397 H 0.32231 0.45589 0.45159 0.0
H398 H 0.33843 0.50785 0.47317 0.0
H399 H 0.34278 0.51194 0.36413 0.0
H400 H 0.35265 0.49672 0.55764 0.0
H401 H 0.29945 0.48179 0.4808 0.0
H402 H 0.27483 0.46747 0.41506 0.0
H403 H 0.26406 0.42047 0.48979 0.0
H404 H 0.28904 0.43447 0.55453 0.0
H405 H 0.32494 0.48941 0.86493 0.0
H406 H 0.32819 0.49518 0.75591 0.0
H407 H 0.31244 0.44383 0.71958 0.0
H408 H 0.30943 0.43797 0.82822 0.0
H409 H 0.29758 0.45614 0.64291 0.0
H410 H 0.35292 0.47264 0.71649 0.0
H411 H 0.37728 0.48836 0.78289 0.0
H412 H 0.38296 0.53428 0.71571 0.0
H413 H 0.35846 0.51882 0.64956 0.0
C414 C 0.32948 0.47045 0.36986 0.0
C415 C 0.33533 0.48623 0.34356 0.0
C416 C 0.32678 0.46815 0.43254 0.0
C417 C 0.32996 0.48158 0.47041 0.0
C418 C 0.33596 0.49734 0.44474 0.0
C419 C 0.3385 0.49964 0.38206 0.0
C420 C 0.32707 0.47915 0.53688 0.0
C421 C 0.34056 0.488 0.57636 0.0
C422 C 0.31131 0.46773 0.56114 0.0
C423 C 0.29628 0.45919 0.52208 0.0
C424 C 0.29198 0.46838 0.48272 0.0
C425 C 0.27792 0.46032 0.44569 0.0
C426 C 0.26784 0.44307 0.44831 0.0
C427 C 0.27188 0.43384 0.4878 0.0
C428 C 0.28602 0.44183 0.52457 0.0
C429 C 0.32227 0.47934 0.83396 0.0
C430 C 0.31697 0.46321 0.85581 0.0
C431 C 0.32407 0.48266 0.77154 0.0
C432 C 0.32066 0.46995 0.72968 0.0
C433 C 0.31508 0.45381 0.7511 0.0
C434 C 0.31332 0.45048 0.81342 0.0
C435 C 0.32322 0.47346 0.66354 0.0
C436 C 0.30966 0.46485 0.62412 0.0
C437 C 0.33887 0.48528 0.63939 0.0
C438 C 0.35374 0.49457 0.67854 0.0
C439 C 0.35929 0.48609 0.7162 0.0
C440 C 0.37313 0.49495 0.75375 0.0
C441 C 0.38163 0.51231 0.75367 0.0
C442 C 0.37635 0.52083 0.71582 0.0
C443 C 0.36249 0.51203 0.67826 0.0
H444 H 0.39234 0.51915 0.78281 0.0
H445 H 0.25691 0.43688 0.41981 0.0
H446 H 0.8321 0.32143 0.00675 0.0
H447 H 0.82976 0.32448 0.89701 0.0
H448 H 0.87278 0.31926 0.86632 0.0
H449 H 0.87529 0.31643 0.97561 0.0
H450 H 0.87434 0.34538 0.80355 0.0
H451 H 0.83508 0.28777 0.83761 0.0
H452 H 0.81083 0.2636 0.88333 0.0
H453 H 0.77886 0.28102 0.81621 0.0
H454 H 0.80299 0.30549 0.77111 0.0
H455 H 0.86912 0.33263 0.48585 0.0
H456 H 0.86985 0.32892 0.59551 0.0
H457 H 0.82538 0.33211 0.61679 0.0
H458 H 0.82424 0.33525 0.50695 0.0
H459 H 0.82404 0.30744 0.68483 0.0
H460 H 0.8631 0.36506 0.65142 0.0
H461 H 0.88717 0.38892 0.60335 0.0
H462 H 0.91923 0.37134 0.66798 0.0
H463 H 0.8953 0.34724 0.7158 0.0
C464 C 0.84109 0.32102 0.97656 0.0
C465 C 0.85384 0.31863 0.99976 0.0
C466 C 0.83966 0.32262 0.91394 0.0
C467 C 0.85103 0.32196 0.87358 0.0
C468 C 0.86385 0.31975 0.8967 0.0
C469 C 0.8652 0.31801 0.95911 0.0
C470 C 0.84981 0.32388 0.80723 0.0
C471 C 0.86341 0.33698 0.77746 0.0
C472 C 0.83538 0.31315 0.77358 0.0
C473 C 0.8209 0.2986 0.80171 0.0
C474 C 0.82292 0.28658 0.83329 0.0
C475 C 0.80918 0.2728 0.85897 0.0
C476 C 0.79332 0.27082 0.8529 0.0
C477 C 0.79116 0.28261 0.82107 0.0
C478 C 0.80487 0.29644 0.79548 0.0
C479 C 0.85939 0.33237 0.51373 0.0
C480 C 0.84666 0.33431 0.48758 0.0
C481 C 0.85992 0.33041 0.57649 0.0
C482 C 0.84779 0.33048 0.61439 0.0
C483 C 0.83491 0.33212 0.58839 0.0
C484 C 0.83437 0.33406 0.52562 0.0
C485 C 0.84859 0.32888 0.68118 0.0
C486 C 0.83493 0.31588 0.71102 0.0
C487 C 0.86294 0.33972 0.715 0.0
C488 C 0.87738 0.35427 0.68673 0.0
C489 C 0.87527 0.36622 0.65503 0.0
C490 C 0.88889 0.3798 0.62789 0.0
C491 C 0.90471 0.38162 0.63249 0.0
C492 C 0.90696 0.3699 0.66441 0.0
C493 C 0.89338 0.35629 0.6916 0.0
H494 H 0.91524 0.39214 0.61142 0.0
H495 H 0.7827 0.26012 0.87268 0.0
H496 H 0.5129 0.86337 0.20123 0.0
H497 H 0.50766 0.86275 0.09212 0.0
H498 H 0.5471 0.85215 0.05663 0.0
H499 H 0.55246 0.85288 0.16573 0.0
H500 H 0.54893 0.87572 0.98149 0.0
H501 H 0.50533 0.82155 0.04945 0.0
H502 H 0.4814 0.80281 0.11342 0.0
H503 H 0.45404 0.8256 0.04742 0.0
H504 H 0.47788 0.84459 0.9835 0.0
H505 H 0.53251 0.85023 0.6752 0.0
H506 H 0.53707 0.85216 0.78494 0.0
H507 H 0.49411 0.85785 0.81054 0.0
H508 H 0.48933 0.85552 0.70062 0.0
H509 H 0.49363 0.83785 0.89172 0.0
H510 H 0.53539 0.89126 0.82272 0.0
H511 H 0.5589 0.91134 0.76003 0.0
H512 H 0.58926 0.89225 0.82928 0.0
H513 H 0.56585 0.8719 0.89177 0.0
C514 C 0.52033 0.86072 0.17025 0.0
C515 C 0.53305 0.85809 0.19213 0.0
C516 C 0.51734 0.8604 0.10787 0.0
C517 C 0.52686 0.85721 0.06622 0.0
C518 C 0.53961 0.85466 0.08794 0.0
C519 C 0.54268 0.85509 0.15026 0.0
C520 C 0.52371 0.85671 0.9999 0.0
C521 C 0.53689 0.8673 0.96171 0.0
C522 C 0.50785 0.84617 0.97439 0.0
C523 C 0.49343 0.83457 0.0121 0.0
C524 C 0.49424 0.82261 0.04882 0.0
C525 C 0.48069 0.81194 0.08502 0.0
C526 C 0.46622 0.81304 0.08458 0.0
C527 C 0.46526 0.82477 0.04774 0.0
C528 C 0.47877 0.83547 0.01146 0.0
C529 C 0.52416 0.85208 0.70422 0.0
C530 C 0.51064 0.85285 0.67945 0.0
C531 C 0.52679 0.85322 0.76698 0.0
C532 C 0.51611 0.85545 0.80614 0.0
C533 C 0.50252 0.85612 0.78137 0.0
C534 C 0.49978 0.85478 0.71864 0.0
C535 C 0.51892 0.85674 0.87294 0.0
C536 C 0.50567 0.84632 0.91131 0.0
C537 C 0.53466 0.86765 0.89875 0.0
C538 C 0.54881 0.87996 0.86155 0.0
C539 C 0.54704 0.89127 0.82429 0.0
C540 C 0.56036 0.90271 0.78882 0.0
C541 C 0.57555 0.90305 0.79057 0.0
C542 C 0.57748 0.89197 0.82793 0.0
C543 C 0.5642 0.88049 0.86343 0.0
H544 H 0.58584 0.91191 0.76307 0.0
H545 H 0.45575 0.80478 0.11269 0.0
H546 H 0.65392 0.48774 0.84087 0.0
H547 H 0.65872 0.49168 0.95009 0.0
H548 H 0.67686 0.54409 0.929 0.0
H549 H 0.67184 0.54024 0.81955 0.0
H550 H 0.69671 0.53817 0.00299 0.0
H551 H 0.63823 0.518 0.98172 0.0
H552 H 0.60927 0.49866 0.95166 0.0
H553 H 0.6089 0.46045 0.06244 0.0
H554 H 0.63799 0.47945 0.09213 0.0
H555 H 0.69321 0.56059 0.30792 0.0
H556 H 0.68974 0.55526 0.19907 0.0
H557 H 0.67016 0.503 0.23192 0.0
H558 H 0.67373 0.50826 0.34137 0.0
H559 H 0.65142 0.50776 0.15224 0.0
H560 H 0.70942 0.52766 0.17518 0.0
H561 H 0.73833 0.54679 0.20654 0.0
H562 H 0.73959 0.58514 0.09404 0.0
H563 H 0.71059 0.56633 0.06274 0.0
C564 C 0.65874 0.50009 0.85926 0.0
C565 C 0.66235 0.51365 0.82109 0.0
C566 C 0.66153 0.50232 0.92189 0.0
C567 C 0.66794 0.51814 0.94787 0.0
C568 C 0.67185 0.53176 0.90994 0.0
C569 C 0.66904 0.52954 0.84727 0.0
C570 C 0.67071 0.52053 0.01453 0.0
C571 C 0.68676 0.53169 0.03561 0.0
C572 C 0.65783 0.51163 0.0572 0.0
C573 C 0.64041 0.50009 0.03837 0.0
C574 C 0.63207 0.50541 0.99899 0.0
C575 C 0.61561 0.49451 0.98213 0.0
C576 C 0.60728 0.47831 0.00487 0.0
C577 C 0.61539 0.47298 0.04462 0.0
C578 C 0.63187 0.4838 0.06141 0.0
C579 C 0.68842 0.54798 0.29226 0.0
C580 C 0.68386 0.53487 0.33377 0.0
C581 C 0.68642 0.54495 0.22976 0.0
C582 C 0.67991 0.52876 0.20714 0.0
C583 C 0.67525 0.51561 0.24831 0.0
C584 C 0.67725 0.51863 0.31095 0.0
C585 C 0.67739 0.52553 0.14069 0.0
C586 C 0.66139 0.5142 0.11963 0.0
C587 C 0.69032 0.53422 0.09804 0.0
C588 C 0.70774 0.54562 0.11716 0.0
C589 C 0.71579 0.54022 0.1576 0.0
C590 C 0.73221 0.551 0.17528 0.0
C591 C 0.74077 0.56719 0.15245 0.0
C592 C 0.73294 0.57261 0.11179 0.0
C593 C 0.71651 0.56189 0.09405 0.0
H594 H 0.75349 0.57551 0.16615 0.0
H595 H 0.59452 0.46991 0.99189 0.0
H596 H 0.1507 0.64255 0.00523 0.0
H597 H 0.15025 0.64678 0.11453 0.0
H598 H 0.14533 0.68985 0.08157 0.0
H599 H 0.14642 0.68609 0.97215 0.0
H600 H 0.16776 0.6961 0.16816 0.0
H601 H 0.11206 0.65284 0.12718 0.0
H602 H 0.09031 0.62587 0.08716 0.0
H603 H 0.10753 0.60048 0.20334 0.0
H604 H 0.12955 0.62734 0.24346 0.0
H605 H 0.14453 0.70478 0.46727 0.0
H606 H 0.14611 0.7012 0.35842 0.0
H607 H 0.14901 0.65697 0.39119 0.0
H608 H 0.14646 0.6599 0.50011 0.0
H609 H 0.12775 0.65141 0.30425 0.0
H610 H 0.1838 0.69523 0.3446 0.0
H611 H 0.20542 0.72246 0.38341 0.0
H612 H 0.18694 0.74698 0.26861 0.0
H613 H 0.16524 0.71992 0.22914 0.0
C614 C 0.14962 0.65298 0.02111 0.0
C615 C 0.14856 0.66395 0.97968 0.0
C616 C 0.1492 0.65529 0.08371 0.0
C617 C 0.14756 0.66852 0.1063 0.0
C618 C 0.14654 0.67952 0.06517 0.0
C619 C 0.14699 0.67724 0.00253 0.0
C620 C 0.14719 0.67105 0.17283 0.0
C621 C 0.15887 0.6864 0.19786 0.0
C622 C 0.13583 0.65828 0.21175 0.0
C623 C 0.12256 0.64211 0.18789 0.0
C624 C 0.11129 0.64151 0.14385 0.0
C625 C 0.0989 0.62624 0.12121 0.0
C626 C 0.09756 0.61147 0.14258 0.0
C627 C 0.10859 0.61194 0.18677 0.0
C628 C 0.12102 0.62718 0.20952 0.0
C629 C 0.14543 0.69424 0.45165 0.0
C630 C 0.14532 0.68263 0.49304 0.0
C631 C 0.14656 0.69233 0.38912 0.0
C632 C 0.14791 0.67893 0.36644 0.0
C633 C 0.14805 0.66745 0.40755 0.0
C634 C 0.14675 0.66925 0.47008 0.0
C635 C 0.1484 0.67646 0.29982 0.0
C636 C 0.13669 0.66111 0.27468 0.0
C637 C 0.15971 0.68925 0.26078 0.0
C638 C 0.17282 0.70554 0.28429 0.0
C639 C 0.18431 0.70643 0.32785 0.0
C640 C 0.19662 0.72184 0.34982 0.0
C641 C 0.19758 0.73645 0.32842 0.0
C642 C 0.18625 0.73568 0.28494 0.0
C643 C 0.17397 0.72031 0.26266 0.0
H644 H 0.20709 0.74837 0.34553 0.0
H645 H 0.08796 0.59966 0.125 0.0
H646 H 0.48482 0.13745 0.68009 0.0
H647 H 0.48966 0.13821 0.57067 0.0
H648 H 0.45031 0.14902 0.5384 0.0
H649 H 0.44557 0.14872 0.64745 0.0
H650 H 0.44852 0.12219 0.46814 0.0
H651 H 0.48697 0.17812 0.52657 0.0
H652 H 0.51039 0.20094 0.58111 0.0
H653 H 0.54392 0.18687 0.50319 0.0
H654 H 0.52061 0.16355 0.44984 0.0
H655 H 0.46165 0.14357 0.15453 0.0
H656 H 0.45709 0.14252 0.26413 0.0
H657 H 0.50168 0.14007 0.29435 0.0
H658 H 0.50626 0.14096 0.18478 0.0
H659 H 0.50094 0.16269 0.36611 0.0
H660 H 0.46322 0.10592 0.31468 0.0
H661 H 0.44034 0.08288 0.25843 0.0
H662 H 0.40653 0.09854 0.32061 0.0
H663 H 0.42925 0.1218 0.37666 0.0
C664 C 0.47738 0.14031 0.65008 0.0
C665 C 0.46476 0.14301 0.67311 0.0
C666 C 0.48016 0.1407 0.58746 0.0
C667 C 0.47042 0.14377 0.54671 0.0
C668 C 0.45793 0.14657 0.56927 0.0
C669 C 0.45521 0.14633 0.63178 0.0
C670 C 0.47286 0.14355 0.48032 0.0
C671 C 0.45992 0.13114 0.44567 0.0
C672 C 0.48793 0.15501 0.45153 0.0
C673 C 0.50192 0.16882 0.48504 0.0
C674 C 0.49926 0.17964 0.52196 0.0
C675 C 0.51255 0.19272 0.55254 0.0
C676 C 0.52862 0.19531 0.54586 0.0
C677 C 0.53146 0.18485 0.50839 0.0
C678 C 0.51819 0.17165 0.47812 0.0
C679 C 0.47035 0.14252 0.18435 0.0
C680 C 0.48434 0.14236 0.16082 0.0
C681 C 0.46775 0.14198 0.24706 0.0
C682 C 0.47901 0.14114 0.28739 0.0
C683 C 0.49288 0.14079 0.26404 0.0
C684 C 0.4955 0.14136 0.2014 0.0
C685 C 0.47668 0.14125 0.35402 0.0
C686 C 0.4896 0.15366 0.3887 0.0
C687 C 0.4617 0.12971 0.38298 0.0
C688 C 0.44798 0.1157 0.34944 0.0
C689 C 0.45094 0.10453 0.31599 0.0
C690 C 0.43799 0.09141 0.28421 0.0
C691 C 0.422 0.08928 0.28582 0.0
C692 C 0.41892 0.10022 0.31936 0.0
C693 C 0.43183 0.11336 0.3512 0.0
H694 H 0.412 0.07912 0.26117 0.0
H695 H 0.53889 0.20546 0.5695 0.0
H696 H 0.48318 0.65673 0.46776 0.0
H697 H 0.4876 0.66053 0.35826 0.0
H698 H 0.53772 0.67009 0.38089 0.0
H699 H 0.53336 0.6661 0.49048 0.0
H700 H 0.53649 0.6922 0.3042 0.0
H701 H 0.50688 0.63272 0.32907 0.0
H702 H 0.48382 0.60555 0.3619 0.0
H703 H 0.4497 0.61295 0.25306 0.0
H704 H 0.47252 0.64029 0.22029 0.0
H705 H 0.55628 0.6826 0.00229 0.0
H706 H 0.5505 0.68008 0.11105 0.0
H707 H 0.50022 0.66858 0.0749 0.0
H708 H 0.50594 0.67106 0.96564 0.0
H709 H 0.50046 0.6481 0.15811 0.0
H710 H 0.52968 0.70691 0.13042 0.0
H711 H 0.55245 0.73409 0.0963 0.0
H712 H 0.58684 0.72827 0.20955 0.0
H713 H 0.56431 0.70093 0.24373 0.0
C714 C 0.49509 0.65943 0.44959 0.0
C715 C 0.50786 0.66096 0.48826 0.0
C716 C 0.49761 0.66166 0.38683 0.0
C717 C 0.51292 0.66539 0.36121 0.0
C718 C 0.52579 0.66721 0.39963 0.0
C719 C 0.52328 0.66497 0.46242 0.0
C720 C 0.51559 0.66749 0.2944 0.0
C721 C 0.52874 0.68248 0.27228 0.0
C722 C 0.50514 0.65502 0.2526 0.0
C723 C 0.49138 0.63865 0.2728 0.0
C724 C 0.49443 0.62864 0.31263 0.0
C725 C 0.48141 0.61319 0.33112 0.0
C726 C 0.4653 0.60755 0.30971 0.0
C727 C 0.46218 0.61734 0.26969 0.0
C728 C 0.47515 0.63281 0.25115 0.0
C729 C 0.54405 0.67975 0.01735 0.0
C730 C 0.53162 0.67715 0.97503 0.0
C731 C 0.54075 0.67829 0.0797 0.0
C732 C 0.52499 0.67438 0.10137 0.0
C733 C 0.51249 0.67164 0.05931 0.0
C734 C 0.51576 0.67302 0.99679 0.0
C735 C 0.5215 0.67275 0.16784 0.0
C736 C 0.50818 0.65786 0.18995 0.0
C737 C 0.53174 0.68535 0.20963 0.0
C738 C 0.54533 0.7018 0.1892 0.0
C739 C 0.54212 0.71136 0.14769 0.0
C740 C 0.55498 0.72681 0.1284 0.0
C741 C 0.57109 0.73288 0.15063 0.0
C742 C 0.57436 0.72354 0.19231 0.0
C743 C 0.56155 0.70807 0.2117 0.0
H744 H 0.58103 0.74485 0.13565 0.0
H745 H 0.45524 0.59557 0.32399 0.0
H746 H 0.86608 0.53885 0.69029 0.0
H747 H 0.86684 0.54346 0.58101 0.0
H748 H 0.82971 0.49209 0.55409 0.0
H749 H 0.82875 0.48733 0.66324 0.0
H750 H 0.85479 0.50196 0.47297 0.0
H751 H 0.81844 0.52238 0.53907 0.0
H752 H 0.81007 0.53938 0.59949 0.0
H753 H 0.854 0.58378 0.54262 0.0
H754 H 0.86245 0.56709 0.48069 0.0
H755 H 0.83559 0.51024 0.16544 0.0
H756 H 0.83405 0.50469 0.27453 0.0
H757 H 0.87024 0.55608 0.30778 0.0
H758 H 0.87192 0.56171 0.19899 0.0
H759 H 0.84521 0.54567 0.38571 0.0
H760 H 0.88041 0.52564 0.31248 0.0
H761 H 0.88851 0.50906 0.24853 0.0
H762 H 0.84793 0.46407 0.32017 0.0
H763 H 0.83932 0.48038 0.38359 0.0
C764 C 0.85792 0.52853 0.6615 0.0
C765 C 0.84729 0.51271 0.68625 0.0
C766 C 0.85839 0.53121 0.59879 0.0
C767 C 0.8482 0.51816 0.55934 0.0
C768 C 0.83771 0.50234 0.58362 0.0
C769 C 0.83724 0.49964 0.64629 0.0
C770 C 0.84867 0.52098 0.49269 0.0
C771 C 0.85245 0.51134 0.45371 0.0
C772 C 0.84604 0.53349 0.4677 0.0
C773 C 0.84114 0.5435 0.50575 0.0
C774 C 0.82636 0.53576 0.53978 0.0
C775 C 0.82159 0.54533 0.57417 0.0
C776 C 0.83158 0.56261 0.57543 0.0
C777 C 0.84629 0.57039 0.54177 0.0
C778 C 0.85103 0.5609 0.50672 0.0
C779 C 0.84332 0.52035 0.19582 0.0
C780 C 0.85389 0.53644 0.17322 0.0
C781 C 0.84242 0.51714 0.25827 0.0
C782 C 0.85216 0.52993 0.29935 0.0
C783 C 0.86258 0.54602 0.277 0.0
C784 C 0.86346 0.54924 0.21469 0.0
C785 C 0.85134 0.52668 0.36575 0.0
C786 C 0.84751 0.53624 0.40475 0.0
C787 C 0.85399 0.51412 0.39059 0.0
C788 C 0.8591 0.50426 0.35231 0.0
C789 C 0.87309 0.51221 0.31415 0.0
C790 C 0.87778 0.50286 0.27803 0.0
C791 C 0.86871 0.48553 0.28018 0.0
C792 C 0.85491 0.4775 0.31845 0.0
C793 C 0.85012 0.4868 0.35447 0.0
H794 H 0.87242 0.47833 0.25238 0.0
H795 H 0.82787 0.56998 0.60224 0.0
H796 H 0.29462 0.85479 0.3649 0.0
H797 H 0.29754 0.85249 0.47399 0.0
H798 H 0.33958 0.84575 0.44259 0.0
H799 H 0.33713 0.84854 0.33324 0.0
H800 H 0.31615 0.82333 0.5294 0.0
H801 H 0.34728 0.88205 0.48569 0.0
H802 H 0.35119 0.90833 0.44346 0.0
H803 H 0.31195 0.90476 0.55711 0.0
H804 H 0.30764 0.8783 0.59938 0.0
H805 H 0.35001 0.8393 0.82701 0.0
H806 H 0.34606 0.84008 0.71755 0.0
H807 H 0.30724 0.85175 0.74986 0.0
H808 H 0.31091 0.85073 0.85931 0.0
H809 H 0.32857 0.87134 0.66226 0.0
H810 H 0.29741 0.81373 0.70868 0.0
H811 H 0.2924 0.78721 0.75222 0.0
H812 H 0.32942 0.78765 0.63415 0.0
H813 H 0.33503 0.81448 0.59111 0.0
C814 C 0.30459 0.85296 0.38089 0.0
C815 C 0.31573 0.85202 0.33991 0.0
C816 C 0.30616 0.85154 0.44336 0.0
C817 C 0.31884 0.84908 0.46619 0.0
C818 C 0.32969 0.84762 0.42567 0.0
C819 C 0.32822 0.84917 0.3631 0.0
C820 C 0.32106 0.84853 0.53254 0.0
C821 C 0.31909 0.83388 0.55848 0.0
C822 C 0.32439 0.86216 0.57037 0.0
C823 C 0.32703 0.87811 0.54524 0.0
C824 C 0.33939 0.88679 0.5013 0.0
C825 C 0.3417 0.90173 0.47743 0.0
C826 C 0.3318 0.90819 0.49747 0.0
C827 C 0.3196 0.89973 0.54156 0.0
C828 C 0.31723 0.88477 0.56553 0.0
C829 C 0.34053 0.84189 0.81092 0.0
C830 C 0.33077 0.84493 0.85209 0.0
C831 C 0.33832 0.84237 0.74833 0.0
C832 C 0.32626 0.84584 0.72568 0.0
C833 C 0.31664 0.84909 0.76649 0.0
C834 C 0.31882 0.84858 0.8291 0.0
C835 C 0.32376 0.84616 0.65934 0.0
C836 C 0.32564 0.86077 0.63333 0.0
C837 C 0.32016 0.83241 0.62161 0.0
C838 C 0.31677 0.81623 0.64712 0.0
C839 C 0.30461 0.80827 0.69239 0.0
C840 C 0.30164 0.79316 0.71692 0.0
C841 C 0.31057 0.78574 0.69592 0.0
C842 C 0.32251 0.79343 0.6504 0.0
C843 C 0.32562 0.8086 0.62597 0.0
H844 H 0.30821 0.77401 0.71488 0.0
H845 H 0.3336 0.91976 0.47894 0.0
H846 H 0.46854 0.33927 0.98322 0.0
H847 H 0.46455 0.3355 0.87307 0.0
H848 H 0.50895 0.33181 0.85918 0.0
H849 H 0.51324 0.33622 0.96856 0.0
H850 H 0.50913 0.34861 0.77118 0.0
H851 H 0.46828 0.29694 0.8514 0.0
H852 H 0.44496 0.27788 0.91702 0.0
H853 H 0.41348 0.29366 0.83261 0.0
H854 H 0.43671 0.31302 0.76708 0.0
H855 H 0.45859 0.29408 0.48974 0.0
H856 H 0.46465 0.29761 0.59853 0.0
H857 H 0.48796 0.35079 0.57782 0.0
H858 H 0.48241 0.34726 0.46842 0.0
H859 H 0.4545 0.30797 0.68369 0.0
H860 H 0.5184 0.37092 0.69106 0.0
H861 H 0.5444 0.38566 0.63236 0.0
H862 H 0.53322 0.34023 0.54262 0.0
H863 H 0.50752 0.32505 0.60257 0.0
C864 C 0.47737 0.33758 0.95646 0.0
C865 C 0.49118 0.33801 0.98425 0.0
C866 C 0.47508 0.33539 0.89361 0.0
C867 C 0.48631 0.3331 0.8577 0.0
C868 C 0.50013 0.3336 0.88565 0.0
C869 C 0.50259 0.33611 0.94818 0.0
C870 C 0.48377 0.33028 0.79104 0.0
C871 C 0.49718 0.33975 0.75191 0.0
C872 C 0.46835 0.31829 0.76599 0.0
C873 C 0.45428 0.30654 0.80475 0.0
C874 C 0.45641 0.29642 0.84711 0.0
C875 C 0.44321 0.28556 0.88426 0.0
C876 C 0.42776 0.28458 0.87908 0.0
C877 C 0.42547 0.29444 0.83661 0.0
C878 C 0.43864 0.30536 0.79941 0.0
C879 C 0.46504 0.30651 0.50846 0.0
C880 C 0.47002 0.3204 0.47073 0.0
C881 C 0.46851 0.30854 0.57065 0.0
C882 C 0.47686 0.32448 0.59661 0.0
C883 C 0.48182 0.33838 0.55888 0.0
C884 C 0.4786 0.33637 0.49641 0.0
C885 C 0.47985 0.32646 0.66335 0.0
C886 C 0.46648 0.31686 0.70262 0.0
C887 C 0.49559 0.33774 0.68854 0.0
C888 C 0.51082 0.34687 0.65076 0.0
C889 C 0.5215 0.36403 0.65902 0.0
C890 C 0.53627 0.37246 0.62583 0.0
C891 C 0.54043 0.3639 0.58362 0.0
C892 C 0.52993 0.34687 0.57504 0.0
C893 C 0.51526 0.33833 0.60875 0.0
H894 H 0.5518 0.37048 0.55759 0.0
H895 H 0.41755 0.27617 0.90789 0.0
H896 H 0.14211 0.45726 0.19786 0.0
H897 H 0.14073 0.45297 0.08825 0.0
H898 H 0.15512 0.50433 0.05936 0.0
H899 H 0.15582 0.50857 0.16916 0.0
H900 H 0.13033 0.48417 0.98433 0.0
H901 H 0.18285 0.49071 0.04682 0.0
H902 H 0.20068 0.48404 0.10974 0.0
H903 H 0.17636 0.43442 0.03824 0.0
H904 H 0.15803 0.44064 0.97617 0.0
H905 H 0.14779 0.48633 0.67166 0.0
H906 H 0.1511 0.49206 0.78022 0.0
H907 H 0.13938 0.44171 0.81549 0.0
H908 H 0.137 0.4361 0.70677 0.0
H909 H 0.16361 0.46216 0.88733 0.0
H910 H 0.11008 0.45437 0.83163 0.0
H911 H 0.09066 0.4597 0.77254 0.0
H912 H 0.11602 0.51047 0.83231 0.0
H913 H 0.13572 0.50549 0.89118 0.0
C914 C 0.14475 0.46761 0.16841 0.0
C915 C 0.14912 0.4833 0.19249 0.0
C916 C 0.14414 0.46517 0.10564 0.0
C917 C 0.14808 0.4784 0.0657 0.0
C918 C 0.15213 0.49398 0.08944 0.0
C919 C 0.15267 0.49641 0.15221 0.0
C920 C 0.14803 0.47601 0.9991 0.0
C921 C 0.13779 0.47959 0.96297 0.0
C922 C 0.1575 0.46967 0.97157 0.0
C923 C 0.16894 0.4661 0.00726 0.0
C924 C 0.18123 0.47834 0.04475 0.0
C925 C 0.19142 0.47463 0.08033 0.0
C926 C 0.18963 0.4588 0.07811 0.0
C927 C 0.17771 0.44667 0.04002 0.0
C928 C 0.1674 0.45027 0.00468 0.0
C929 C 0.14617 0.4765 0.70212 0.0
C930 C 0.14197 0.46066 0.67996 0.0
C931 C 0.1479 0.47977 0.76446 0.0
C932 C 0.14517 0.46722 0.8061 0.0
C933 C 0.14144 0.45156 0.78422 0.0
C934 C 0.13989 0.44832 0.72187 0.0
C935 C 0.14584 0.47027 0.87252 0.0
C936 C 0.15621 0.46681 0.90864 0.0
C937 C 0.1364 0.47662 0.90019 0.0
C938 C 0.12446 0.47959 0.86532 0.0
C939 C 0.11157 0.46669 0.83186 0.0
C940 C 0.10051 0.46965 0.79845 0.0
C941 C 0.10213 0.48543 0.79854 0.0
C942 C 0.11479 0.49827 0.83222 0.0
C943 C 0.1259 0.49538 0.86565 0.0
H944 H 0.09356 0.48769 0.77262 0.0
H945 H 0.19746 0.45591 0.10587 0.0
H946 H 0.7024 0.14638 0.85622 0.0
H947 H 0.69856 0.14793 0.96527 0.0
H948 H 0.65114 0.14438 0.93202 0.0
H949 H 0.65478 0.1426 0.82272 0.0
H950 H 0.67001 0.16855 0.01625 0.0
H951 H 0.65213 0.11105 0.98074 0.0
H952 H 0.65477 0.08757 0.94222 0.0
H953 H 0.69757 0.10227 0.05534 0.0
H954 H 0.69533 0.12599 0.09392 0.0
H955 H 0.64076 0.15109 0.32051 0.0
H956 H 0.64382 0.14982 0.21056 0.0
H957 H 0.68976 0.14972 0.23804 0.0
H958 H 0.68669 0.15089 0.34798 0.0
H959 H 0.671 0.12713 0.15589 0.0
H960 H 0.68947 0.18476 0.19035 0.0
H961 H 0.6874 0.20859 0.22861 0.0
H962 H 0.64426 0.19415 0.11769 0.0
H963 H 0.64594 0.17009 0.07936 0.0
C964 C 0.69109 0.1458 0.872 0.0
C965 C 0.67886 0.14426 0.83067 0.0
C966 C 0.68894 0.14674 0.93435 0.0
C967 C 0.67449 0.14608 0.95664 0.0
C968 C 0.66239 0.14491 0.91561 0.0
C969 C 0.66453 0.14396 0.85316 0.0
C970 C 0.67198 0.14649 0.0229 0.0
C971 C 0.66998 0.15937 0.04678 0.0
C972 C 0.67234 0.13471 0.06265 0.0
C973 C 0.67365 0.12039 0.0398 0.0
C974 C 0.66218 0.10935 0.99706 0.0
C975 C 0.66359 0.09598 0.97527 0.0
C976 C 0.67635 0.09345 0.99621 0.0
C977 C 0.6877 0.10426 0.03911 0.0
C978 C 0.68636 0.11766 0.061 0.0
C979 C 0.65156 0.15092 0.30303 0.0
C980 C 0.66348 0.1511 0.34283 0.0
C981 C 0.6533 0.15019 0.24026 0.0
C982 C 0.66712 0.14987 0.21609 0.0
C983 C 0.67898 0.14993 0.25574 0.0
C984 C 0.67719 0.15054 0.31854 0.0
C985 C 0.66913 0.14927 0.14948 0.0
C986 C 0.671 0.13632 0.12545 0.0
C987 C 0.66874 0.16103 0.10966 0.0
C988 C 0.66774 0.17553 0.13245 0.0
C989 C 0.67946 0.18659 0.17447 0.0
C990 C 0.67837 0.20015 0.19611 0.0
C991 C 0.66568 0.20286 0.17572 0.0
C992 C 0.65407 0.19203 0.13351 0.0
C993 C 0.6551 0.17844 0.11176 0.0
H994 H 0.66485 0.21337 0.19253 0.0
H995 H 0.67742 0.08309 0.97928 0.0
H996 H 0.50135 0.6065 0.84602 0.0
H997 H 0.476 0.58241 0.88517 0.0
H998 H 0.44879 0.60814 0.85558 0.0
H999 H 0.47388 0.63205 0.81498 0.0
H1000 H 0.44679 0.59334 0.97871 0.0
H1001 H 0.43976 0.58122 0.76432 0.0
H1002 H 0.44833 0.57689 0.66305 0.0
H1003 H 0.45326 0.53642 0.73266 0.0
H1004 H 0.44499 0.54069 0.83467 0.0
H1005 H 0.36307 0.51024 0.9671 0.0
H1006 H 0.38613 0.53381 0.91515 0.0
H1007 H 0.41916 0.53829 0.06102 0.0
H1008 H 0.39629 0.51486 0.11319 0.0
H1009 H 0.41665 0.53876 0.87431 0.0
H1010 H 0.44542 0.5799 0.08683 0.0
H1011 H 0.43674 0.5845 0.18752 0.0
H1012 H 0.38748 0.5675 0.11972 0.0
H1013 H 0.39593 0.56303 0.0184 0.0
C1014 C 0.48994 0.60697 0.84773 0.0
C1015 C 0.48954 0.6211 0.82754 0.0
C1016 C 0.47551 0.59322 0.86978 0.0
C1017 C 0.46061 0.59357 0.87289 0.0
C1018 C 0.46021 0.60769 0.85321 0.0
C1019 C 0.47451 0.62128 0.83 0.0
C1020 C 0.44556 0.57942 0.89878 0.0
C1021 C 0.44017 0.58139 0.95602 0.0
C1022 C 0.43693 0.56397 0.86852 0.0
C1023 C 0.44196 0.56141 0.80731 0.0
C1024 C 0.44286 0.57152 0.75822 0.0
C1025 C 0.44762 0.56905 0.70063 0.0
C1026 C 0.45139 0.55642 0.69147 0.0
C1027 C 0.45037 0.54622 0.73985 0.0
C1028 C 0.44564 0.54865 0.79756 0.0
C1029 C 0.37525 0.51624 0.98806 0.0
C1030 C 0.37784 0.51078 0.04445 0.0
C1031 C 0.3884 0.52964 0.95823 0.0
C1032 C 0.40426 0.53788 0.98472 0.0
C1033 C 0.40694 0.53222 0.0403 0.0
C1034 C 0.39386 0.51879 0.06991 0.0
C1035 C 0.41801 0.55256 0.95492 0.0
C1036 C 0.42322 0.5507 0.89704 0.0
C1037 C 0.42648 0.56815 0.98458 0.0
C1038 C 0.42128 0.57098 0.04515 0.0
C1039 C 0.43275 0.57721 0.09333 0.0
C1040 C 0.42787 0.57979 0.15053 0.0
C1041 C 0.41156 0.57625 0.16005 0.0
C1042 C 0.4001 0.57018 0.11234 0.0
C1043 C 0.40492 0.5676 0.05502 0.0
H1044 H 0.4078 0.57825 0.20438 0.0
H1045 H 0.45506 0.55452 0.64684 0.0
H1046 H 0.88548 0.39617 0.26578 0.0
H1047 H 0.88554 0.42057 0.22506 0.0
H1048 H 0.84808 0.38982 0.09424 0.0
H1049 H 0.84812 0.36526 0.13419 0.0
H1050 H 0.87175 0.41803 0.04314 0.0
H1051 H 0.83816 0.40321 0.22226 0.0
H1052 H 0.83108 0.39659 0.33048 0.0
H1053 H 0.87058 0.44501 0.38081 0.0
H1054 H 0.87815 0.4518 0.27297 0.0
H1055 H 0.84823 0.47748 0.96455 0.0
H1056 H 0.84809 0.45268 0.00153 0.0
H1057 H 0.88681 0.48247 0.12982 0.0
H1058 H 0.88697 0.50742 0.0934 0.0
H1059 H 0.86168 0.45434 0.181 0.0
H1060 H 0.8959 0.46872 0.00185 0.0
H1061 H 0.90236 0.47554 0.89334 0.0
H1062 H 0.861 0.42817 0.84353 0.0
H1063 H 0.85415 0.42116 0.9518 0.0
C1064 C 0.87729 0.39456 0.22818 0.0
C1065 C 0.8667 0.37876 0.20346 0.0
C1066 C 0.87729 0.40853 0.20517 0.0
C1067 C 0.8666 0.40695 0.15741 0.0
C1068 C 0.85636 0.39127 0.13138 0.0
C1069 C 0.85639 0.37727 0.15426 0.0
C1070 C 0.86612 0.42171 0.13489 0.0
C1071 C 0.86935 0.42586 0.07315 0.0
C1072 C 0.86329 0.43208 0.17439 0.0
C1073 C 0.85887 0.42793 0.23945 0.0
C1074 C 0.84548 0.41238 0.2564 0.0
C1075 C 0.84135 0.4086 0.31771 0.0
C1076 C 0.85041 0.42035 0.36251 0.0
C1077 C 0.86361 0.4359 0.34608 0.0
C1078 C 0.86783 0.43971 0.28487 0.0
C1079 C 0.85674 0.47879 1.0006 0.0
C1080 C 0.86769 0.49443 0.02585 0.0
C1081 C 0.85668 0.4646 0.02145 0.0
C1082 C 0.86759 0.4658 0.06777 0.0
C1083 C 0.87837 0.48134 0.09373 0.0
C1084 C 0.87848 0.49557 0.07273 0.0
C1085 C 0.86759 0.45077 0.0897 0.0
C1086 C 0.86418 0.44654 0.15122 0.0
C1087 C 0.87024 0.44034 0.05006 0.0
C1088 C 0.87442 0.44448 0.98494 0.0
C1089 C 0.88811 0.45981 0.96776 0.0
C1090 C 0.89185 0.4637 0.90629 0.0
C1091 C 0.88207 0.45231 0.86156 0.0
C1092 C 0.86855 0.43699 0.87822 0.0
C1093 C 0.86475 0.43304 0.93963 0.0
H1094 H 0.88498 0.45535 0.814 0.0
H1095 H 0.84718 0.41741 0.40994 0.0
H1096 H 0.39004 0.86784 0.05754 0.0
H1097 H 0.41408 0.86958 0.11012 0.0
H1098 H 0.38825 0.86015 0.28124 0.0
H1099 H 0.36397 0.85808 0.22885 0.0
H1100 H 0.42289 0.88865 0.27613 0.0
H1101 H 0.38972 0.8301 0.22604 0.0
H1102 H 0.37456 0.80648 0.15615 0.0
H1103 H 0.41922 0.82184 0.05337 0.0
H1104 H 0.43457 0.84575 0.122 0.0
H1105 H 0.47558 0.87409 0.46547 0.0
H1106 H 0.45247 0.87368 0.41111 0.0
H1107 H 0.47121 0.86596 0.24181 0.0
H1108 H 0.49383 0.86545 0.29674 0.0
H1109 H 0.44027 0.84674 0.24298 0.0
H1110 H 0.47404 0.90442 0.28431 0.0
H1111 H 0.49074 0.92964 0.34552 0.0
H1112 H 0.44781 0.91867 0.45265 0.0
H1113 H 0.43089 0.89324 0.39261 0.0
C1114 C 0.38948 0.86614 0.10637 0.0
C1115 C 0.37515 0.8628 0.13916 0.0
C1116 C 0.40318 0.8671 0.13621 0.0
C1117 C 0.40285 0.86495 0.19934 0.0
C1118 C 0.38867 0.86183 0.23241 0.0
C1119 C 0.37483 0.86058 0.20245 0.0
C1120 C 0.41735 0.86595 0.23078 0.0
C1121 C 0.42663 0.87941 0.26969 0.0
C1122 C 0.4225 0.85423 0.22002 0.0
C1123 C 0.41324 0.83984 0.17875 0.0
C1124 C 0.39626 0.82856 0.18814 0.0
C1125 C 0.38764 0.81509 0.14881 0.0
C1126 C 0.3959 0.81269 0.10022 0.0
C1127 C 0.41282 0.82374 0.09093 0.0
C1128 C 0.42148 0.83725 0.13003 0.0
C1129 C 0.47481 0.87244 0.41659 0.0
C1130 C 0.48645 0.86982 0.38521 0.0
C1131 C 0.46165 0.8723 0.38546 0.0
C1132 C 0.46021 0.87007 0.3221 0.0
C1133 C 0.47202 0.86769 0.29065 0.0
C1134 C 0.48495 0.86743 0.322 0.0
C1135 C 0.44598 0.86948 0.28906 0.0
C1136 C 0.43669 0.85608 0.24962 0.0
C1137 C 0.4411 0.88154 0.29806 0.0
C1138 C 0.45123 0.89683 0.33429 0.0
C1139 C 0.46818 0.90731 0.32122 0.0
C1140 C 0.47769 0.92166 0.35566 0.0
C1141 C 0.47035 0.92573 0.40304 0.0
C1142 C 0.45348 0.91548 0.41598 0.0
C1143 C 0.44392 0.90111 0.38172 0.0
H1144 H 0.47773 0.93684 0.42965 0.0
H1145 H 0.38921 0.80224 0.06986 0.0
H1146 H 0.52607 0.37253 0.27442 0.0
H1147 H 0.55039 0.39804 0.3093 0.0
H1148 H 0.51843 0.41443 0.38739 0.0
H1149 H 0.49398 0.38878 0.3537 0.0
H1150 H 0.56245 0.43135 0.29108 0.0
H1151 H 0.53597 0.43272 0.52837 0.0
H1152 H 0.51355 0.41325 0.59636 0.0
H1153 H 0.51638 0.37237 0.51877 0.0
H1154 H 0.53954 0.39165 0.45331 0.0
H1155 H 0.6025 0.49628 0.5542 0.0
H1156 H 0.57888 0.47349 0.50265 0.0
H1157 H 0.61182 0.45992 0.41391 0.0
H1158 H 0.63564 0.48301 0.46439 0.0
H1159 H 0.56741 0.4415 0.51355 0.0
H1160 H 0.59435 0.44082 0.27622 0.0
H1161 H 0.61507 0.46032 0.20309 0.0
H1162 H 0.61005 0.50029 0.27736 0.0
H1163 H 0.58908 0.48101 0.3501 0.0
C1164 C 0.52419 0.38159 0.29879 0.0
C1165 C 0.5081 0.37853 0.31217 0.0
C1166 C 0.53811 0.39621 0.31823 0.0
C1167 C 0.53618 0.408 0.3514 0.0
C1168 C 0.52015 0.40535 0.36245 0.0
C1169 C 0.50621 0.39068 0.34337 0.0
C1170 C 0.55089 0.42244 0.37834 0.0
C1171 C 0.56366 0.43353 0.33975 0.0
C1172 C 0.55226 0.42529 0.44183 0.0
C1173 C 0.53934 0.41366 0.48503 0.0
C1174 C 0.53201 0.41961 0.52648 0.0
C1175 C 0.51921 0.4086 0.56481 0.0
C1176 C 0.51353 0.39158 0.56185 0.0
C1177 C 0.52081 0.38556 0.52116 0.0
C1178 C 0.53388 0.39655 0.48379 0.0
C1179 C 0.60476 0.48853 0.52339 0.0
C1180 C 0.62093 0.4914 0.51354 0.0
C1181 C 0.59123 0.47549 0.49402 0.0
C1182 C 0.59358 0.46504 0.45426 0.0
C1183 C 0.60974 0.46798 0.44372 0.0
C1184 C 0.62333 0.48113 0.4728 0.0
C1185 C 0.57897 0.45065 0.42626 0.0
C1186 C 0.56624 0.43942 0.46482 0.0
C1187 C 0.57765 0.44772 0.36276 0.0
C1188 C 0.59028 0.45948 0.3192 0.0
C1189 C 0.59764 0.45377 0.27688 0.0
C1190 C 0.60943 0.46478 0.23545 0.0
C1191 C 0.61393 0.48154 0.23576 0.0
C1192 C 0.60661 0.48732 0.27736 0.0
C1193 C 0.59478 0.47635 0.31875 0.0
H1194 H 0.62303 0.49003 0.20362 0.0
H1195 H 0.50352 0.38307 0.59116 0.0
H1196 H 0.12824 0.51948 0.39245 0.0
H1197 H 0.12943 0.54401 0.43789 0.0
H1198 H 0.14083 0.53095 0.61226 0.0
H1199 H 0.13994 0.50635 0.56672 0.0
H1200 H 0.11452 0.54034 0.60966 0.0
H1201 H 0.17104 0.55985 0.55109 0.0
H1202 H 0.19338 0.56363 0.48099 0.0
H1203 H 0.1796 0.59042 0.3573 0.0
H1204 H 0.15699 0.58657 0.42625 0.0
H1205 H 0.15719 0.63473 0.68076 0.0
H1206 H 0.15846 0.60996 0.65295 0.0
H1207 H 0.11002 0.58889 0.57011 0.0
H1208 H 0.10862 0.61368 0.59767 0.0
H1209 H 0.15708 0.59654 0.53961 0.0
H1210 H 0.08969 0.54671 0.60053 0.0
H1211 H 0.06758 0.54291 0.6719 0.0
H1212 H 0.10426 0.577 0.79704 0.0
H1213 H 0.1266 0.58081 0.72688 0.0
C1214 C 0.13095 0.52177 0.44053 0.0
C1215 C 0.13402 0.51103 0.47609 0.0
C1216 C 0.13167 0.5358 0.4663 0.0
C1217 C 0.13526 0.53925 0.5282 0.0
C1218 C 0.13804 0.52843 0.56432 0.0
C1219 C 0.1376 0.51448 0.53826 0.0
C1220 C 0.13628 0.55435 0.55432 0.0
C1221 C 0.12386 0.55264 0.59477 0.0
C1222 C 0.14858 0.57035 0.53504 0.0
C1223 C 0.16223 0.5728 0.49363 0.0
C1224 C 0.17268 0.56642 0.50871 0.0
C1225 C 0.18541 0.5686 0.46922 0.0
C1226 C 0.18788 0.57723 0.41466 0.0
C1227 C 0.17766 0.58373 0.39956 0.0
C1228 C 0.1649 0.58157 0.43886 0.0
C1229 C 0.1468 0.62485 0.65655 0.0
C1230 C 0.13277 0.62615 0.6415 0.0
C1231 C 0.14758 0.61073 0.64062 0.0
C1232 C 0.13428 0.59757 0.61005 0.0
C1233 C 0.12033 0.59887 0.59436 0.0
C1234 C 0.11959 0.61306 0.60984 0.0
C1235 C 0.13509 0.58254 0.594 0.0
C1236 C 0.14782 0.58426 0.55512 0.0
C1237 C 0.12313 0.56658 0.61507 0.0
C1238 C 0.10981 0.56415 0.65814 0.0
C1239 C 0.09304 0.55333 0.6434 0.0
C1240 C 0.08047 0.55118 0.68363 0.0
C1241 C 0.08451 0.55974 0.73889 0.0
C1242 C 0.10114 0.57042 0.75414 0.0
C1243 C 0.11376 0.57259 0.71411 0.0
H1244 H 0.07476 0.55808 0.76993 0.0
H1245 H 0.19774 0.5789 0.38416 0.0
H1246 H 0.63212 0.14441 0.70835 0.0
H1247 H 0.60714 0.14213 0.75502 0.0
H1248 H 0.5782 0.11472 0.59925 0.0
H1249 H 0.60304 0.11705 0.55208 0.0
H1250 H 0.57149 0.13899 0.63345 0.0
H1251 H 0.57602 0.09469 0.7289 0.0
H1252 H 0.59051 0.08282 0.7858 0.0
H1253 H 0.59667 0.11441 0.93774 0.0
H1254 H 0.5824 0.12662 0.8814 0.0
H1255 H 0.49079 0.10729 0.74943 0.0
H1256 H 0.51562 0.107 0.71399 0.0
H1257 H 0.54388 0.13896 0.86253 0.0
H1258 H 0.51916 0.13938 0.89824 0.0
H1259 H 0.55103 0.1125 0.83508 0.0
H1260 H 0.54865 0.1579 0.74112 0.0
H1261 H 0.5326 0.16909 0.69081 0.0
H1262 H 0.5225 0.13597 0.54033 0.0
H1263 H 0.53832 0.12438 0.59029 0.0
C1264 C 0.62044 0.13789 0.68407 0.0
C1265 C 0.61955 0.13088 0.62657 0.0
C1266 C 0.60618 0.13655 0.71087 0.0
C1267 C 0.59083 0.12816 0.68068 0.0
C1268 C 0.58994 0.12125 0.62322 0.0
C1269 C 0.60415 0.12254 0.59649 0.0
C1270 C 0.57564 0.12661 0.70869 0.0
C1271 C 0.56694 0.13303 0.67717 0.0
C1272 C 0.56992 0.11918 0.76643 0.0
C1273 C 0.57828 0.11168 0.80072 0.0
C1274 C 0.58056 0.09918 0.7743 0.0
C1275 C 0.58872 0.09238 0.80647 0.0
C1276 C 0.59455 0.09789 0.86529 0.0
C1277 C 0.59217 0.11017 0.89215 0.0
C1278 C 0.58403 0.11702 0.86015 0.0
C1279 C 0.50223 0.11408 0.77498 0.0
C1280 C 0.5031 0.12351 0.82614 0.0
C1281 C 0.51637 0.11387 0.75479 0.0
C1282 C 0.53152 0.123 0.78569 0.0
C1283 C 0.53225 0.1318 0.83835 0.0
C1284 C 0.51817 0.13215 0.85823 0.0
C1285 C 0.54693 0.1247 0.75947 0.0
C1286 C 0.55565 0.11842 0.79134 0.0
C1287 C 0.5528 0.13237 0.70237 0.0
C1288 C 0.54454 0.14021 0.66959 0.0
C1289 C 0.54304 0.15304 0.69722 0.0
C1290 C 0.53396 0.15942 0.6689 0.0
C1291 C 0.52647 0.15316 0.61268 0.0
C1292 C 0.52829 0.14074 0.58403 0.0
C1293 C 0.53734 0.13428 0.61226 0.0
H1294 H 0.5192 0.15791 0.5916 0.0
H1295 H 0.60088 0.09262 0.8901 0.0
H1296 H 0.27869 0.44416 0.1849 0.0
H1297 H 0.25459 0.44291 0.23426 0.0
H1298 H 0.2693 0.49208 0.16845 0.0
H1299 H 0.29351 0.49342 0.11839 0.0
H1300 H 0.25503 0.46291 0.32432 0.0
H1301 H 0.23443 0.49454 0.14856 0.0
H1302 H 0.23394 0.49793 0.03742 0.0
H1303 H 0.23201 0.45127 0.00982 0.0
H1304 H 0.2324 0.44757 0.12077 0.0
H1305 H 0.19758 0.48688 0.44462 0.0
H1306 H 0.22117 0.48649 0.39616 0.0
H1307 H 0.18726 0.44314 0.29319 0.0
H1308 H 0.16372 0.44329 0.34168 0.0
H1309 H 0.21107 0.46942 0.22179 0.0
H1310 H 0.20787 0.43785 0.40081 0.0
H1311 H 0.2076 0.43235 0.51062 0.0
H1312 H 0.25569 0.47585 0.53026 0.0
H1313 H 0.2561 0.48177 0.42074 0.0
C1314 C 0.2767 0.45464 0.18018 0.0
C1315 C 0.28799 0.46891 0.14783 0.0
C1316 C 0.26297 0.45392 0.20866 0.0
C1317 C 0.2602 0.46739 0.20503 0.0
C1318 C 0.27117 0.48149 0.17132 0.0
C1319 C 0.28498 0.48224 0.14279 0.0
C1320 C 0.2462 0.46685 0.23884 0.0
C1321 C 0.24544 0.46439 0.30198 0.0
C1322 C 0.2337 0.46872 0.20955 0.0
C1323 C 0.2336 0.47087 0.14285 0.0
C1324 C 0.23393 0.48503 0.11871 0.0
C1325 C 0.23369 0.48701 0.05578 0.0
C1326 C 0.233 0.47485 0.01658 0.0
C1327 C 0.23259 0.4607 0.04023 0.0
C1328 C 0.23287 0.45868 0.10312 0.0
C1329 C 0.19519 0.4771 0.4125 0.0
C1330 C 0.17883 0.46513 0.39689 0.0
C1331 C 0.20864 0.4769 0.38488 0.0
C1332 C 0.20588 0.46483 0.341 0.0
C1333 C 0.18959 0.45258 0.32683 0.0
C1334 C 0.17617 0.45264 0.35487 0.0
C1335 C 0.2199 0.46544 0.30726 0.0
C1336 C 0.22072 0.46805 0.2442 0.0
C1337 C 0.23241 0.4636 0.33659 0.0
C1338 C 0.23194 0.46034 0.40273 0.0
C1339 C 0.21829 0.44635 0.4287 0.0
C1340 C 0.21813 0.44314 0.49086 0.0
C1341 C 0.2316 0.45377 0.52744 0.0
C1342 C 0.24524 0.46766 0.50194 0.0
C1343 C 0.24544 0.47095 0.43985 0.0
H1344 H 0.23147 0.45123 0.5755 0.0
H1345 H 0.23274 0.47637 0.96789 0.0
H1346 H 0.82693 0.27404 0.29714 0.0
H1347 H 0.80328 0.25107 0.34878 0.0
H1348 H 0.77543 0.27658 0.33108 0.0
H1349 H 0.79897 0.29951 0.27853 0.0
H1350 H 0.77806 0.26642 0.45283 0.0
H1351 H 0.76303 0.24415 0.25046 0.0
H1352 H 0.76779 0.23548 0.15006 0.0
H1353 H 0.77836 0.20023 0.23527 0.0
H1354 H 0.7739 0.20887 0.33629 0.0
H1355 H 0.70021 0.20037 0.56003 0.0
H1356 H 0.72367 0.22399 0.51033 0.0
H1357 H 0.74828 0.1953 0.49022 0.0
H1358 H 0.72469 0.17156 0.53827 0.0
H1359 H 0.747 0.20763 0.3859 0.0
H1360 H 0.7632 0.22938 0.58652 0.0
H1361 H 0.76052 0.23839 0.68926 0.0
H1362 H 0.74987 0.27448 0.61215 0.0
H1363 H 0.75229 0.26555 0.50889 0.0
C1364 C 0.81564 0.27458 0.30316 0.0
C1365 C 0.81474 0.28851 0.28387 0.0
C1366 C 0.80218 0.26149 0.33263 0.0
C1367 C 0.7877 0.26223 0.34374 0.0
C1368 C 0.78655 0.27586 0.32282 0.0
C1369 C 0.79993 0.28885 0.29249 0.0
C1370 C 0.77422 0.24923 0.3806 0.0
C1371 C 0.77102 0.25358 0.43802 0.0
C1372 C 0.76558 0.23248 0.36172 0.0
C1373 C 0.76829 0.22728 0.30099 0.0
C1374 C 0.76652 0.23467 0.24784 0.0
C1375 C 0.76913 0.22973 0.1908 0.0
C1376 C 0.77341 0.21734 0.1863 0.0
C1377 C 0.77506 0.20984 0.23883 0.0
C1378 C 0.77248 0.21474 0.29598 0.0
C1379 C 0.71081 0.19926 0.5463 0.0
C1380 C 0.71063 0.18414 0.55255 0.0
C1381 C 0.72421 0.21277 0.51798 0.0
C1382 C 0.73771 0.21139 0.49645 0.0
C1383 C 0.73794 0.19659 0.50607 0.0
C1384 C 0.72449 0.18306 0.53369 0.0
C1385 C 0.75081 0.22471 0.45883 0.0
C1386 C 0.75395 0.22044 0.40104 0.0
C1387 C 0.75957 0.24149 0.47786 0.0
C1388 C 0.75774 0.24666 0.53992 0.0
C1389 C 0.7601 0.23911 0.59144 0.0
C1390 C 0.75868 0.24424 0.64979 0.0
C1391 C 0.75498 0.25697 0.65723 0.0
C1392 C 0.75271 0.26461 0.60633 0.0
C1393 C 0.75412 0.25952 0.54787 0.0
H1394 H 0.75392 0.26095 0.70244 0.0
H1395 H 0.77542 0.21353 0.1421 0.0
H1396 H 0.50055 0.8006 0.43288 0.0
H1397 H 0.49915 0.77569 0.4769 0.0
H1398 H 0.54583 0.80626 0.5683 0.0
H1399 H 0.54737 0.83111 0.52461 0.0
H1400 H 0.52067 0.76257 0.47363 0.0
H1401 H 0.54088 0.79108 0.71509 0.0
H1402 H 0.53921 0.81176 0.78049 0.0
H1403 H 0.49631 0.80489 0.68216 0.0
H1404 H 0.49749 0.78391 0.61703 0.0
H1405 H 0.54708 0.71719 0.64864 0.0
H1406 H 0.54587 0.74072 0.60524 0.0
H1407 H 0.49918 0.72495 0.69608 0.0
H1408 H 0.50028 0.70131 0.73999 0.0
H1409 H 0.52027 0.75912 0.699 0.0
H1410 H 0.49805 0.71483 0.55466 0.0
H1411 H 0.49809 0.69277 0.49258 0.0
H1412 H 0.54131 0.72919 0.39688 0.0
H1413 H 0.54176 0.75147 0.4593 0.0
C1414 C 0.51062 0.80197 0.46169 0.0
C1415 C 0.52402 0.81778 0.47563 0.0
C1416 C 0.5098 0.78776 0.48667 0.0
C1417 C 0.52228 0.78923 0.52635 0.0
C1418 C 0.536 0.80494 0.53828 0.0
C1419 C 0.53688 0.8191 0.51309 0.0
C1420 C 0.52071 0.77448 0.55768 0.0
C1421 C 0.52054 0.76177 0.52285 0.0
C1422 C 0.5202 0.77337 0.62189 0.0
C1423 C 0.51937 0.78601 0.66081 0.0
C1424 C 0.53105 0.79393 0.70754 0.0
C1425 C 0.53019 0.8057 0.74459 0.0
C1426 C 0.51766 0.80962 0.73548 0.0
C1427 C 0.50601 0.80184 0.68911 0.0
C1428 C 0.50679 0.79002 0.65208 0.0
C1429 C 0.53667 0.71885 0.6602 0.0
C1430 C 0.5237 0.70736 0.69731 0.0
C1431 C 0.53598 0.73225 0.63513 0.0
C1432 C 0.5223 0.73434 0.64671 0.0
C1433 C 0.50978 0.72344 0.68646 0.0
C1434 C 0.51044 0.70997 0.71145 0.0
C1435 C 0.52079 0.7475 0.61503 0.0
C1436 C 0.52034 0.75989 0.64978 0.0
C1437 C 0.52046 0.74817 0.55077 0.0
C1438 C 0.52001 0.73483 0.51207 0.0
C1439 C 0.50764 0.71814 0.52067 0.0
C1440 C 0.50757 0.70559 0.48541 0.0
C1441 C 0.51972 0.70957 0.44089 0.0
C1442 C 0.53192 0.72613 0.43143 0.0
C1443 C 0.53208 0.73873 0.46674 0.0
H1444 H 0.51966 0.69985 0.41365 0.0
H1445 H 0.51691 0.81859 0.76459 0.0
H1446 H 0.79868 0.50179 0.90725 0.0
H1447 H 0.77458 0.50151 0.86119 0.0
H1448 H 0.80356 0.55438 0.83213 0.0
H1449 H 0.82792 0.55473 0.87686 0.0
H1450 H 0.76722 0.53908 0.87714 0.0
H1451 H 0.80327 0.53443 0.72547 0.0
H1452 H 0.81825 0.52108 0.68309 0.0
H1453 H 0.77227 0.47508 0.66509 0.0
H1454 H 0.75706 0.48799 0.70933 0.0
H1455 H 0.72189 0.55333 0.65521 0.0
H1456 H 0.74443 0.55307 0.71121 0.0
H1457 H 0.72169 0.50023 0.68185 0.0
H1458 H 0.69929 0.5005 0.62427 0.0
H1459 H 0.75398 0.51416 0.67062 0.0
H1460 H 0.71737 0.51536 0.81737 0.0
H1461 H 0.69986 0.52489 0.86705 0.0
H1462 H 0.74294 0.57237 0.90215 0.0
H1463 H 0.76073 0.56319 0.85192 0.0
C1464 C 0.79983 0.51341 0.89224 0.0
C1465 C 0.81516 0.52828 0.89513 0.0
C1466 C 0.78608 0.51321 0.86597 0.0
C1467 C 0.78742 0.5279 0.84317 0.0
C1468 C 0.80237 0.54295 0.8497 0.0
C1469 C 0.81624 0.54312 0.87495 0.0
C1470 C 0.7738 0.52728 0.80696 0.0
C1471 C 0.7644 0.53384 0.8317 0.0
C1472 C 0.76982 0.51979 0.74883 0.0
C1473 C 0.77904 0.51214 0.72154 0.0
C1474 C 0.79637 0.5214 0.71342 0.0
C1475 C 0.80491 0.51391 0.68899 0.0
C1476 C 0.79622 0.49723 0.67151 0.0
C1477 C 0.77899 0.48799 0.67868 0.0
C1478 C 0.77041 0.49538 0.70355 0.0
C1479 C 0.72179 0.54169 0.66008 0.0
C1480 C 0.70882 0.52692 0.63569 0.0
C1481 C 0.73461 0.54154 0.69244 0.0
C1482 C 0.73453 0.52657 0.70183 0.0
C1483 C 0.72194 0.5119 0.67538 0.0
C1484 C 0.70917 0.51208 0.64246 0.0
C1485 C 0.74745 0.52623 0.74019 0.0
C1486 C 0.75673 0.51945 0.716 0.0
C1487 C 0.75098 0.53305 0.79961 0.0
C1488 C 0.74037 0.53864 0.83024 0.0
C1489 C 0.72311 0.52789 0.83524 0.0
C1490 C 0.71312 0.53322 0.86356 0.0
C1491 C 0.72026 0.54926 0.88747 0.0
C1492 C 0.73742 0.55996 0.88345 0.0
C1493 C 0.74747 0.55469 0.85511 0.0
H1494 H 0.71252 0.5534 0.90916 0.0
H1495 H 0.80279 0.49147 0.65216 0.0
H1496 H 0.2702 0.82624 0.05226 0.0
H1497 H 0.24664 0.80313 1.0002 0.0
H1498 H 0.27225 0.77519 0.00289 0.0
H1499 H 0.29565 0.79804 0.0564 0.0
H1500 H 0.26097 0.78139 0.88223 0.0
H1501 H 0.24213 0.76006 0.08373 0.0
H1502 H 0.23485 0.76182 0.19019 0.0
H1503 H 0.19696 0.77213 0.13015 0.0
H1504 H 0.20418 0.77066 0.0232 0.0
H1505 H 0.1983 0.70466 0.76111 0.0
H1506 H 0.22098 0.72772 0.81545 0.0
H1507 H 0.18853 0.74684 0.86139 0.0
H1508 H 0.1656 0.72344 0.80875 0.0
H1509 H 0.20356 0.74551 0.95854 0.0
H1510 H 0.2217 0.767 0.75827 0.0
H1511 H 0.22935 0.76685 0.65102 0.0
H1512 H 0.26842 0.75776 0.70608 0.0
H1513 H 0.26096 0.75777 0.81371 0.0
C1514 C 0.2706 0.815 0.04303 0.0
C1515 C 0.28466 0.81385 0.0584 0.0
C1516 C 0.2572 0.80187 0.01331 0.0
C1517 C 0.25784 0.78758 0.99771 0.0
C1518 C 0.27161 0.78617 0.01477 0.0
C1519 C 0.28487 0.79915 0.04564 0.0
C1520 C 0.24467 0.77469 0.95956 0.0
C1521 C 0.24845 0.77333 0.89889 0.0
C1522 C 0.22831 0.76471 0.98125 0.0
C1523 C 0.22385 0.76547 0.04546 0.0
C1524 C 0.23236 0.76287 0.0932 0.0
C1525 C 0.22822 0.76377 0.15363 0.0
C1526 C 0.21552 0.76718 0.16691 0.0
C1527 C 0.20684 0.76955 0.11977 0.0
C1528 C 0.21094 0.76867 0.05924 0.0
C1529 C 0.19609 0.71397 0.78168 0.0
C1530 C 0.18019 0.71226 0.78083 0.0
C1531 C 0.20908 0.72718 0.81266 0.0
C1532 C 0.20649 0.73907 0.8423 0.0
C1533 C 0.19079 0.73778 0.83905 0.0
C1534 C 0.17774 0.72446 0.8087 0.0
C1535 C 0.21975 0.75208 0.88053 0.0
C1536 C 0.21603 0.75353 0.94141 0.0
C1537 C 0.23615 0.76229 0.85877 0.0
C1538 C 0.24065 0.76222 0.79406 0.0
C1539 C 0.23184 0.76485 0.7475 0.0
C1540 C 0.23618 0.76484 0.68665 0.0
C1541 C 0.24935 0.76228 0.67175 0.0
C1542 C 0.25823 0.75975 0.7177 0.0
C1543 C 0.25398 0.75979 0.77864 0.0
H1544 H 0.2527 0.76229 0.62462 0.0
H1545 H 0.21242 0.76799 0.21371 0.0
H1546 H 0.50372 0.30192 0.19105 0.0
H1547 H 0.50345 0.27755 0.14681 0.0
H1548 H 0.4499 0.25187 0.13991 0.0
H1549 H 0.45008 0.27627 0.18282 0.0
H1550 H 0.46566 0.23268 0.18446 0.0
H1551 H 0.46713 0.26826 0.01927 0.0
H1552 H 0.47882 0.29454 0.96194 0.0
H1553 H 0.52485 0.29473 0.94047 0.0
H1554 H 0.51356 0.26865 0.99881 0.0
H1555 H 0.44694 0.16699 0.98432 0.0
H1556 H 0.44823 0.1914 0.03136 0.0
H1557 H 0.50065 0.22003 0.99094 0.0
H1558 H 0.49933 0.19574 0.94222 0.0
H1559 H 0.48668 0.23823 0.9733 0.0
H1560 H 0.48695 0.20385 0.13346 0.0
H1561 H 0.47725 0.17803 0.19212 0.0
H1562 H 0.43085 0.17611 0.22708 0.0
H1563 H 0.44022 0.20185 0.16806 0.0
C1564 C 0.4919 0.29096 0.18106 0.0
C1565 C 0.47692 0.29092 0.19008 0.0
C1566 C 0.49177 0.27714 0.15562 0.0
C1567 C 0.47666 0.26305 0.13991 0.0
C1568 C 0.46166 0.26267 0.15182 0.0
C1569 C 0.46179 0.27659 0.17614 0.0
C1570 C 0.47647 0.24904 0.10792 0.0
C1571 C 0.47009 0.23379 0.13811 0.0
C1572 C 0.48274 0.25076 0.04819 0.0
C1573 C 0.48956 0.2666 0.01401 0.0
C1574 C 0.47981 0.27402 0.00303 0.0
C1575 C 0.48635 0.28885 0.97018 0.0
C1576 C 0.50256 0.29627 0.94759 0.0
C1577 C 0.51229 0.28895 0.95804 0.0
C1578 C 0.50584 0.27416 0.99101 0.0
C1579 C 0.45869 0.17855 0.98477 0.0
C1580 C 0.47306 0.17947 0.95998 0.0
C1581 C 0.45944 0.19244 0.01202 0.0
C1582 C 0.47462 0.20741 0.01591 0.0
C1583 C 0.48883 0.20856 0.98874 0.0
C1584 C 0.48805 0.1947 0.96085 0.0
C1585 C 0.47572 0.22172 0.04954 0.0
C1586 C 0.48228 0.23706 0.01973 0.0
C1587 C 0.46991 0.22016 0.11007 0.0
C1588 C 0.46423 0.2047 0.14585 0.0
C1589 C 0.47463 0.19786 0.15328 0.0
C1590 C 0.4692 0.18324 0.18665 0.0
C1591 C 0.45342 0.1754 0.21313 0.0
C1592 C 0.44306 0.18219 0.20646 0.0
C1593 C 0.44844 0.1968 0.17314 0.0
H1594 H 0.44922 0.16409 0.23895 0.0
H1595 H 0.50759 0.30765 0.92171 0.0
H1596 H 0.35813 0.42663 0.22132 0.0
H1597 H 0.37159 0.41008 0.23229 0.0
H1598 H 0.37591 0.40879 0.0373 0.0
H1599 H 0.36107 0.42401 0.02558 0.0
H1600 H 0.36937 0.38061 0.07921 0.0
H1601 H 0.40904 0.4366 0.13286 0.0
H1602 H 0.41987 0.46319 0.18756 0.0
H1603 H 0.41504 0.43839 0.35735 0.0
H1604 H 0.40397 0.4116 0.30371 0.0
H1605 H 0.43974 0.36752 0.08192 0.0
H1606 H 0.42224 0.38026 0.07025 0.0
H1607 H 0.4045 0.36622 0.25394 0.0
H1608 H 0.42169 0.35319 0.26543 0.0
H1609 H 0.41777 0.40157 0.21836 0.0
H1610 H 0.37879 0.34523 0.1568 0.0
H1611 H 0.36982 0.31989 0.09584 0.0
H1612 H 0.37606 0.3475 0.93196 0.0
H1613 H 0.38532 0.37308 0.99195 0.0
C1614 C 0.36158 0.42254 0.18057 0.0
C1615 C 0.35862 0.42688 0.1225 0.0
C1616 C 0.36954 0.41327 0.18702 0.0
C1617 C 0.37519 0.40857 0.13569 0.0
C1618 C 0.37182 0.41242 0.07765 0.0
C1619 C 0.36353 0.42136 0.07109 0.0
C1620 C 0.3849 0.39994 0.14249 0.0
C1621 C 0.38006 0.38533 0.10915 0.0
C1622 C 0.39879 0.40597 0.18194 0.0
C1623 C 0.40552 0.42207 0.21432 0.0
C1624 C 0.41018 0.4368 0.1819 0.0
C1625 C 0.41638 0.45191 0.21271 0.0
C1626 C 0.4181 0.45247 0.2759 0.0
C1627 C 0.41368 0.43793 0.30841 0.0
C1628 C 0.40745 0.42278 0.27783 0.0
C1629 C 0.43203 0.36711 0.11956 0.0
C1630 C 0.43198 0.35939 0.17449 0.0
C1631 C 0.42204 0.37431 0.11282 0.0
C1632 C 0.41211 0.37409 0.16124 0.0
C1633 C 0.41208 0.36643 0.21614 0.0
C1634 C 0.42181 0.35897 0.22251 0.0
C1635 C 0.40216 0.38236 0.15529 0.0
C1636 C 0.40703 0.39691 0.18865 0.0
C1637 C 0.38857 0.37649 0.11491 0.0
C1638 C 0.38292 0.3611 0.07884 0.0
C1639 C 0.37841 0.34594 0.10774 0.0
C1640 C 0.37324 0.33152 0.07336 0.0
C1641 C 0.37242 0.33209 0.01005 0.0
C1642 C 0.37673 0.34708 0.981 0.0
C1643 C 0.38192 0.36154 0.01517 0.0
H1644 H 0.36841 0.32092 0.98352 0.0
H1645 H 0.4229 0.46418 0.29967 0.0
H1646 H 0.92854 0.334 0.30062 0.0
H1647 H 0.95835 0.34754 0.32266 0.0
H1648 H 0.96226 0.39556 0.3025 0.0
H1649 H 0.93263 0.38211 0.27942 0.0
H1650 H 0.98687 0.39531 0.24604 0.0
H1651 H 0.96179 0.37861 0.4437 0.0
H1652 H 0.94321 0.35891 0.52121 0.0
H1653 H 0.96826 0.33081 0.50545 0.0
H1654 H 0.98686 0.35024 0.4272 0.0
H1655 H 0.06273 0.44765 0.39462 0.0
H1656 H 0.033 0.43112 0.37237 0.0
H1657 H 0.03661 0.38664 0.36765 0.0
H1658 H 0.0664 0.40313 0.39032 0.0
H1659 H 0.00873 0.38348 0.43377 0.0
H1660 H 0.035 0.40208 0.2389 0.0
H1661 H 0.05374 0.42288 0.16455 0.0
H1662 H 0.02629 0.44863 0.17891 0.0
H1663 H 0.00753 0.42812 0.25409 0.0
C1664 C 0.93579 0.34744 0.3012 0.0
C1665 C 0.92833 0.35703 0.28826 0.0
C1666 C 0.95278 0.35515 0.31385 0.0
C1667 C 0.9625 0.37256 0.31479 0.0
C1668 C 0.95503 0.38211 0.30178 0.0
C1669 C 0.93812 0.37443 0.28854 0.0
C1670 C 0.98049 0.38095 0.32869 0.0
C1671 C 0.99161 0.39282 0.2874 0.0
C1672 C 0.98672 0.37744 0.38197 0.0
C1673 C 0.97559 0.36577 0.42912 0.0
C1674 C 0.96325 0.36815 0.45641 0.0
C1675 C 0.95273 0.35705 0.50054 0.0
C1676 C 0.95452 0.34359 0.51811 0.0
C1677 C 0.96687 0.34123 0.49171 0.0
C1678 C 0.97741 0.35229 0.4475 0.0
C1679 C 0.05715 0.43433 0.38939 0.0
C1680 C 0.06684 0.42666 0.39393 0.0
C1681 C 0.04023 0.42494 0.37638 0.0
C1682 C 0.03272 0.40772 0.36791 0.0
C1683 C 0.04225 0.39993 0.37389 0.0
C1684 C 0.05923 0.40936 0.38638 0.0
C1685 C 0.01495 0.39795 0.35161 0.0
C1686 C 0.00393 0.38584 0.3923 0.0
C1687 C 0.00876 0.40136 0.29812 0.0
C1688 C 0.01995 0.41363 0.25252 0.0
C1689 C 0.03304 0.41225 0.22657 0.0
C1690 C 0.04365 0.42398 0.18421 0.0
C1691 C 0.04123 0.43709 0.16712 0.0
C1692 C 0.02816 0.43848 0.19224 0.0
C1693 C 0.01752 0.42679 0.23467 0.0
H1694 H 0.04946 0.44616 0.13432 0.0
H1695 H 0.94637 0.335 0.55228 0.0
H1696 H 0.643 0.06364 0.63805 0.0
H1697 H 0.63058 0.03396 0.61777 0.0
H1698 H 0.63507 0.04363 0.42484 0.0
H1699 H 0.6469 0.07329 0.44474 0.0
H1700 H 0.60478 0.01957 0.45305 0.0
H1701 H 0.66005 0.03173 0.4979 0.0
H1702 H 0.68597 0.04301 0.55721 0.0
H1703 H 0.65924 0.01078 0.7061 0.0
H1704 H 0.63309 -0.00053 0.64801 0.0
H1705 H 0.57829 0.93658 0.37125 0.0
H1706 H 0.59654 0.96648 0.3845 0.0
H1707 H 0.59109 0.96054 0.57911 0.0
H1708 H 0.57272 0.93061 0.56626 0.0
H1709 H 0.62331 0.98279 0.54483 0.0
H1710 H 0.56797 0.97243 0.50286 0.0
H1711 H 0.54197 0.96112 0.44392 0.0
H1712 H 0.56917 0.99029 0.28944 0.0
H1713 H 0.59538 0.00159 0.34724 0.0
C1714 C 0.64132 0.05945 0.5913 0.0
C1715 C 0.64584 0.0708 0.54298 0.0
C1716 C 0.63442 0.0425 0.57979 0.0
C1717 C 0.63205 0.03662 0.51979 0.0
C1718 C 0.63686 0.04794 0.47148 0.0
C1719 C 0.64372 0.06488 0.48294 0.0
C1720 C 0.62353 0.01855 0.50751 0.0
C1721 C 0.60903 0.01158 0.47215 0.0
C1722 C 0.62887 0.0081 0.5337 0.0
C1723 C 0.64458 0.01485 0.56875 0.0
C1724 C 0.65967 0.02714 0.54347 0.0
C1725 C 0.67441 0.03352 0.57684 0.0
C1726 C 0.67425 0.02764 0.63543 0.0
C1727 C 0.65934 0.01534 0.66072 0.0
C1728 C 0.64456 0.00892 0.62756 0.0
C1729 C 0.58096 0.94164 0.41686 0.0
C1730 C 0.57391 0.93129 0.46772 0.0
C1731 C 0.59144 0.95869 0.42434 0.0
C1732 C 0.59497 0.96569 0.48273 0.0
C1733 C 0.58851 0.95533 0.53369 0.0
C1734 C 0.57804 0.93826 0.52626 0.0
C1735 C 0.60461 0.98391 0.49059 0.0
C1736 C 0.61923 0.99086 0.52524 0.0
C1737 C 0.59942 0.99439 0.46379 0.0
C1738 C 0.58365 0.98771 0.42915 0.0
C1739 C 0.56842 0.97633 0.45617 0.0
C1740 C 0.55365 0.96994 0.423 0.0
C1741 C 0.55393 0.97495 0.36292 0.0
C1742 C 0.56898 0.9864 0.33595 0.0
C1743 C 0.5838 0.99281 0.3689 0.0
H1744 H 0.54248 0.96998 0.33731 0.0
H1745 H 0.68567 0.0326 0.66119 0.0
H1746 H 0.66111 0.59345 0.63267 0.0
H1747 H 0.64624 0.6088 0.64439 0.0
H1748 H 0.60416 0.5701 0.54873 0.0
H1749 H 0.61863 0.5544 0.53845 0.0
H1750 H 0.61259 0.60257 0.51241 0.0
H1751 H 0.60259 0.57016 0.69574 0.0
H1752 H 0.61114 0.56068 0.78633 0.0
H1753 H 0.63773 0.61071 0.85367 0.0
H1754 H 0.62953 0.62053 0.76295 0.0
H1755 H 0.54819 0.61828 0.59522 0.0
H1756 H 0.56565 0.60603 0.57638 0.0
H1757 H 0.60265 0.64127 0.6995 0.0
H1758 H 0.58484 0.65292 0.72146 0.0
H1759 H 0.59836 0.61197 0.72054 0.0
H1760 H 0.60761 0.64468 0.54185 0.0
H1761 H 0.59991 0.65487 0.45104 0.0
H1762 H 0.57608 0.60584 0.37427 0.0
H1763 H 0.58345 0.5953 0.46503 0.0
C1764 C 0.64867 0.58815 0.61437 0.0
C1765 C 0.64105 0.57264 0.58486 0.0
C1766 C 0.64025 0.59699 0.62076 0.0
C1767 C 0.62411 0.59051 0.59762 0.0
C1768 C 0.61666 0.57532 0.56656 0.0
C1769 C 0.625 0.56641 0.56056 0.0
C1770 C 0.61462 0.59914 0.60814 0.0
C1771 C 0.60934 0.60454 0.55781 0.0
C1772 C 0.61079 0.60201 0.66748 0.0
C1773 C 0.6156 0.5961 0.72226 0.0
C1774 C 0.61037 0.57916 0.72963 0.0
C1775 C 0.61514 0.57372 0.78103 0.0
C1776 C 0.62501 0.58509 0.82565 0.0
C1777 C 0.6301 0.60192 0.81902 0.0
C1778 C 0.62539 0.60743 0.76764 0.0
C1779 C 0.55996 0.62333 0.61878 0.0
C1780 C 0.56509 0.63661 0.65986 0.0
C1781 C 0.57005 0.61646 0.60728 0.0
C1782 C 0.58559 0.6229 0.63582 0.0
C1783 C 0.59075 0.63615 0.67672 0.0
C1784 C 0.58061 0.64291 0.68874 0.0
C1785 C 0.59621 0.61545 0.62472 0.0
C1786 C 0.6017 0.61019 0.67502 0.0
C1787 C 0.60036 0.61286 0.56531 0.0
C1788 C 0.59596 0.61917 0.51052 0.0
C1789 C 0.60062 0.63604 0.50581 0.0
C1790 C 0.59634 0.64188 0.45431 0.0
C1791 C 0.58748 0.631 0.40698 0.0
C1792 C 0.58293 0.61425 0.41099 0.0
C1793 C 0.58717 0.60834 0.46243 0.0
H1794 H 0.58417 0.63555 0.36715 0.0
H1795 H 0.62869 0.58086 0.86542 0.0
H1796 H 0.06398 0.6512 0.73005 0.0
H1797 H 0.03402 0.63714 0.74753 0.0
H1798 H 0.0382 0.60481 0.87809 0.0
H1799 H 0.06824 0.61902 0.86188 0.0
H1800 H 0.01295 0.58785 0.79566 0.0
H1801 H 0.03235 0.63542 0.92657 0.0
H1802 H 0.0476 0.66528 0.95152 0.0
H1803 H 0.01809 0.67407 0.82286 0.0
H1804 H 0.00281 0.64428 0.79648 0.0
H1805 H 0.93354 0.55164 0.92856 0.0
H1806 H 0.9635 0.56714 0.91145 0.0
H1807 H 0.95763 0.60049 0.79105 0.0
H1808 H 0.92754 0.58506 0.80849 0.0
H1809 H 0.9837 0.61726 0.86528 0.0
H1810 H 0.96406 0.57 0.73459 0.0
H1811 H 0.94878 0.54025 0.70799 0.0
H1812 H 0.97871 0.53099 0.83303 0.0
H1813 H 0.99403 0.56066 0.86106 0.0
C1814 C 0.05857 0.64126 0.76313 0.0
C1815 C 0.06852 0.63625 0.79462 0.0
C1816 C 0.04144 0.6332 0.77289 0.0
C1817 C 0.03394 0.62002 0.81435 0.0
C1818 C 0.04378 0.61495 0.84576 0.0
C1819 C 0.06093 0.62303 0.83622 0.0
C1820 C 0.01575 0.61128 0.82408 0.0
C1821 C 0.00656 0.59422 0.81165 0.0
C1822 C 0.00742 0.61974 0.84316 0.0
C1823 C 0.01655 0.63765 0.8591 0.0
C1824 C 0.02921 0.64374 0.90321 0.0
C1825 C 0.03784 0.66065 0.91769 0.0
C1826 C 0.03385 0.67157 0.88867 0.0
C1827 C 0.02119 0.6656 0.84523 0.0
C1828 C 0.01253 0.6487 0.83054 0.0
C1829 C 0.93862 0.56222 0.89812 0.0
C1830 C 0.9282 0.56706 0.86941 0.0
C1831 C 0.95573 0.57106 0.88841 0.0
C1832 C 0.96276 0.5848 0.84919 0.0
C1833 C 0.95244 0.5899 0.82138 0.0
C1834 C 0.93529 0.5811 0.83142 0.0
C1835 C 0.98088 0.59377 0.83729 0.0
C1836 C 0.99006 0.61088 0.84917 0.0
C1837 C 0.98921 0.58538 0.81735 0.0
C1838 C 0.98009 0.56753 0.80031 0.0
C1839 C 0.96731 0.5616 0.75675 0.0
C1840 C 0.95865 0.54476 0.74136 0.0
C1841 C 0.96274 0.53373 0.76891 0.0
C1842 C 0.97554 0.53954 0.81178 0.0
C1843 C 0.98422 0.55638 0.82739 0.0
H1844 H 0.95602 0.52069 0.75694 0.0
H1845 H 0.04055 0.68465 0.89995 0.0
H1846 H 0.40671 0.06801 0.01356 0.0
H1847 H 0.3885 0.03818 0.02783 0.0
H1848 H 0.42543 0.02909 0.94599 0.0
H1849 H 0.44322 0.05873 0.92799 0.0
H1850 H 0.3962 0.00743 0.90574 0.0
H1851 H 0.41966 0.02878 0.10304 0.0
H1852 H 0.42622 0.04706 0.19237 0.0
H1853 H 0.37415 0.02718 0.22634 0.0
H1854 H 0.36729 0.00895 0.13661 0.0
H1855 H 0.37902 0.93068 0.03605 0.0
H1856 H 0.39145 0.96049 0.01611 0.0
H1857 H 0.34395 0.95705 0.04598 0.0
H1858 H 0.33133 0.92703 0.0647 0.0
H1859 H 0.37486 0.98451 0.11098 0.0
H1860 H 0.35231 0.9611 0.91476 0.0
H1861 H 0.34732 0.94262 0.82721 0.0
H1862 H 0.39983 0.9663 0.79427 0.0
H1863 H 0.40515 0.98475 0.8823 0.0
C1864 C 0.41087 0.05966 0.99778 0.0
C1865 C 0.42649 0.0658 0.96985 0.0
C1866 C 0.40051 0.04261 0.00663 0.0
C1867 C 0.4057 0.03142 0.98873 0.0
C1868 C 0.42118 0.0375 0.96032 0.0
C1869 C 0.43144 0.05449 0.95077 0.0
C1870 C 0.39514 0.01336 0.99983 0.0
C1871 C 0.39162 0.00245 0.95071 0.0
C1872 C 0.38886 0.00685 0.0583 0.0
C1873 C 0.39296 0.01764 0.11271 0.0
C1874 C 0.40961 0.02839 0.12932 0.0
C1875 C 0.41339 0.03874 0.18004 0.0
C1876 C 0.40061 0.03832 0.2149 0.0
C1877 C 0.38404 0.02752 0.19922 0.0
C1878 C 0.38019 0.01717 0.14845 0.0
C1879 C 0.37126 0.93631 0.03835 0.0
C1880 C 0.35426 0.92667 0.05174 0.0
C1881 C 0.37833 0.95326 0.02691 0.0
C1882 C 0.36856 0.96084 0.02959 0.0
C1883 C 0.35162 0.95132 0.04376 0.0
C1884 C 0.34445 0.93426 0.05408 0.0
C1885 C 0.37625 0.97876 0.01715 0.0
C1886 C 0.37925 0.98959 0.06597 0.0
C1887 C 0.38228 0.98522 0.95868 0.0
C1888 C 0.37913 0.97421 0.90548 0.0
C1889 C 0.3628 0.96226 0.88921 0.0
C1890 C 0.35991 0.95181 0.83942 0.0
C1891 C 0.37325 0.95326 0.80528 0.0
C1892 C 0.38951 0.96518 0.82079 0.0
C1893 C 0.39247 0.97565 0.8706 0.0
H1894 H 0.37099 0.94516 0.76674 0.0
H1895 H 0.40356 0.04634 0.25414 0.0
loop_
_geom_bond_atom_site_label_1
_geom_bond_atom_site_label_2
_geom_bond_distance
_geom_bond_site_symmetry_2
_ccdc_geom_bond_type
Co0 N4 2.148 . S
Co0 N10 2.128 . S
Co0 N20 2.194 . S
Co0 O25 2.351 . S
Co0 O26 2.155 . S
Co0 O27 2.096 . S
C1 N4 1.301 . S
C1 N5 1.328 . S
C1 H6 0.930 . S
C2 C3 1.333 . S
C2 N4 1.317 . S
C2 H7 0.930 . S
C3 C2 1.333 . S
C3 N5 1.350 . S
C3 H29 0.931 . S
N4 Co0 2.148 . S
N4 C1 1.301 . S
N4 C2 1.317 . S
N5 C1 1.328 . S
N5 C3 1.350 . S
H6 C1 0.930 . S
H7 C2 0.930 . S
C8 O9 1.224 . S
C8 O27 1.247 . S
O9 C8 1.224 . S
N10 Co0 2.128 . S
N10 C11 1.355 1_554 S
N10 C13 1.311 1_554 S
C11 N10 1.355 1_556 S
C11 C12 1.363 . S
C11 H23 0.929 1_556 S
C12 C11 1.363 . S
C12 N14 1.375 . S
C12 H30 0.931 . S
C13 N10 1.311 1_556 S
C13 N14 1.347 . S
C13 H24 0.929 . S
N14 C12 1.375 . S
N14 C13 1.347 . S
C15 C18 1.365 . S
C15 N20 1.328 . S
C15 H21 0.929 . S
C16 C17 1.362 . S
C16 C19 1.378 . S
C16 H31 0.929 . S
C17 C16 1.362 . S
C17 C18 1.366 . S
C18 C15 1.365 . S
C18 C17 1.366 . S
C18 H32 0.930 . S
C19 C16 1.378 . S
C19 N20 1.315 . S
C19 H22 0.930 . S
N20 Co0 2.194 . S
N20 C15 1.328 . S
N20 C19 1.315 . S
H21 C15 0.929 . S
H22 C19 0.930 . S
H23 C11 0.929 1_554 S
H24 C13 0.929 . S
O25 Co0 2.351 . S
O25 C28 1.244 . S
O26 Co0 2.155 . S
O26 C28 1.240 . S
O27 Co0 2.096 . S
O27 C8 1.247 . S
C28 O25 1.244 . S
C28 O26 1.240 . S
H29 C3 0.931 . S
H30 C12 0.931 . S
H31 C16 0.929 . S
H32 C18 0.930 . S
Co33 N37 2.148 . S
Co33 N43 2.128 . S
Co33 N53 2.194 . S
Co33 O58 2.351 . S
Co33 O59 2.155 . S
Co33 O60 2.096 . S
C34 N37 1.301 . S
C34 N38 1.328 . S
C34 H39 0.930 . S
C35 C36 1.333 . S
C35 N37 1.317 . S
C35 H40 0.930 . S
C36 C35 1.333 . S
C36 N38 1.350 . S
C36 H62 0.931 . S
N37 Co33 2.148 . S
N37 C34 1.301 . S
N37 C35 1.317 . S
N38 C34 1.328 . S
N38 C36 1.350 . S
H39 C34 0.930 . S
H40 C35 0.930 . S
C41 O42 1.224 . S
C41 O60 1.247 . S
O42 C41 1.224 . S
N43 Co33 2.128 . S
N43 C44 1.355 . S
N43 C46 1.311 . S
C44 N43 1.355 . S
C44 C45 1.363 . S
C44 H56 0.929 . S
C45 C44 1.363 . S
C45 N47 1.375 . S
C45 H63 0.931 . S
C46 N43 1.311 . S
C46 N47 1.347 . S
C46 H57 0.929 . S
N47 C45 1.375 . S
N47 C46 1.347 . S
C48 C51 1.365 . S
C48 N53 1.328 . S
C48 H54 0.929 . S
C49 C50 1.362 . S
C49 C52 1.378 . S
C49 H64 0.929 . S
C50 C49 1.362 . S
C50 C51 1.366 . S
C51 C48 1.365 . S
C51 C50 1.366 . S
C51 H65 0.930 . S
C52 C49 1.378 . S
C52 N53 1.315 . S
C52 H55 0.930 . S
N53 Co33 2.194 . S
N53 C48 1.328 . S
N53 C52 1.315 . S
H54 C48 0.929 . S
H55 C52 0.930 . S
H56 C44 0.929 . S
H57 C46 0.929 . S
O58 Co33 2.351 . S
O58 C61 1.244 . S
O59 Co33 2.155 . S
O59 C61 1.240 . S
O60 Co33 2.096 . S
O60 C41 1.247 . S
C61 O58 1.244 . S
C61 O59 1.240 . S
H62 C36 0.931 . S
H63 C45 0.931 . S
H64 C49 0.929 . S
H65 C51 0.930 . S
Co66 N70 2.148 . S
Co66 N76 2.128 . S
Co66 N86 2.194 . S
Co66 O91 2.351 . S
Co66 O92 2.155 . S
Co66 O93 2.096 . S
C67 N70 1.301 . S
C67 N71 1.328 . S
C67 H72 0.930 . S
C68 C69 1.333 . S
C68 N70 1.317 . S
C68 H73 0.930 . S
C69 C68 1.333 . S
C69 N71 1.350 . S
C69 H95 0.931 . S
N70 Co66 2.148 . S
N70 C67 1.301 . S
N70 C68 1.317 . S
N71 C67 1.328 . S
N71 C69 1.350 . S
H72 C67 0.930 . S
H73 C68 0.930 . S
C74 O75 1.224 . S
C74 O93 1.247 . S
O75 C74 1.224 . S
N76 Co66 2.128 . S
N76 C77 1.355 . S
N76 C79 1.311 . S
C77 N76 1.355 . S
C77 C78 1.363 . S
C77 H89 0.929 . S
C78 C77 1.363 . S
C78 N80 1.375 . S
C78 H96 0.931 . S
C79 N76 1.311 . S
C79 N80 1.347 . S
C79 H90 0.929 . S
N80 C78 1.375 . S
N80 C79 1.347 . S
C81 C84 1.365 . S
C81 N86 1.328 . S
C81 H87 0.929 . S
C82 C83 1.362 . S
C82 C85 1.378 . S
C82 H97 0.929 . S
C83 C82 1.362 . S
C83 C84 1.366 . S
C84 C81 1.365 . S
C84 C83 1.366 . S
C84 H98 0.930 . S
C85 C82 1.378 . S
C85 N86 1.315 . S
C85 H88 0.930 . S
N86 Co66 2.194 . S
N86 C81 1.328 . S
N86 C85 1.315 . S
H87 C81 0.929 . S
H88 C85 0.930 . S
H89 C77 0.929 . S
H90 C79 0.929 . S
O91 Co66 2.351 . S
O91 C94 1.244 . S
O92 Co66 2.155 . S
O92 C94 1.240 . S
O93 Co66 2.096 . S
O93 C74 1.247 . S
C94 O91 1.244 . S
C94 O92 1.240 . S
H95 C69 0.931 . S
H96 C78 0.931 . S
H97 C82 0.929 . S
H98 C84 0.930 . S
Co99 N103 2.148 . S
Co99 N109 2.128 . S
Co99 N119 2.194 . S
Co99 O124 2.351 . S
Co99 O125 2.155 . S
Co99 O126 2.096 . S
C100 N103 1.301 . S
C100 N104 1.328 . S
C100 H105 0.930 . S
C101 C102 1.333 . S
C101 N103 1.317 . S
C101 H106 0.930 . S
C102 C101 1.333 . S
C102 N104 1.350 . S
C102 H128 0.931 . S
N103 Co99 2.148 . S
N103 C100 1.301 . S
N103 C101 1.317 . S
N104 C100 1.328 . S
N104 C102 1.350 . S
H105 C100 0.930 . S
H106 C101 0.930 . S
C107 O108 1.224 . S
C107 O126 1.247 . S
O108 C107 1.224 . S
N109 Co99 2.128 . S
N109 C110 1.355 . S
N109 C112 1.311 . S
C110 N109 1.355 . S
C110 C111 1.363 . S
C110 H122 0.929 . S
C111 C110 1.363 . S
C111 N113 1.375 . S
C111 H129 0.931 . S
C112 N109 1.311 . S
C112 N113 1.347 . S
C112 H123 0.929 . S
N113 C111 1.375 . S
N113 C112 1.347 . S
C114 C117 1.365 . S
C114 N119 1.328 . S
C114 H120 0.929 . S
C115 C116 1.362 . S
C115 C118 1.378 . S
C115 H130 0.929 . S
C116 C115 1.362 . S
C116 C117 1.366 . S
C117 C114 1.365 . S
C117 C116 1.366 . S
C117 H131 0.930 . S
C118 C115 1.378 . S
C118 N119 1.315 . S
C118 H121 0.930 . S
N119 Co99 2.194 . S
N119 C114 1.328 . S
N119 C118 1.315 . S
H120 C114 0.929 . S
H121 C118 0.930 . S
H122 C110 0.929 . S
H123 C112 0.929 . S
O124 Co99 2.351 . S
O124 C127 1.244 . S
O125 Co99 2.155 . S
O125 C127 1.240 . S
O126 Co99 2.096 . S
O126 C107 1.247 . S
C127 O124 1.244 . S
C127 O125 1.240 . S
H128 C102 0.931 . S
H129 C111 0.931 . S
H130 C115 0.929 . S
H131 C117 0.930 . S
Co132 N136 2.148 . S
Co132 N142 2.128 . S
Co132 N152 2.194 . S
Co132 O157 2.351 . S
Co132 O158 2.155 . S
Co132 O159 2.096 . S
C133 N136 1.301 . S
C133 N137 1.328 . S
C133 H138 0.930 . S
C134 C135 1.333 . S
C134 N136 1.317 . S
C134 H139 0.930 . S
C135 C134 1.333 . S
C135 N137 1.350 . S
C135 H161 0.931 . S
N136 Co132 2.148 . S
N136 C133 1.301 . S
N136 C134 1.317 . S
N137 C133 1.328 . S
N137 C135 1.350 . S
H138 C133 0.930 . S
H139 C134 0.930 . S
C140 O141 1.224 . S
C140 O159 1.247 . S
O141 C140 1.224 . S
N142 Co132 2.128 . S
N142 C143 1.355 . S
N142 C145 1.311 . S
C143 N142 1.355 . S
C143 C144 1.363 . S
C143 H155 0.929 . S
C144 C143 1.363 . S
C144 N146 1.375 . S
C144 H162 0.931 . S
C145 N142 1.311 . S
C145 N146 1.347 . S
C145 H156 0.929 . S
N146 C144 1.375 . S
N146 C145 1.347 . S
C147 C150 1.365 . S
C147 N152 1.328 . S
C147 H153 0.929 . S
C148 C149 1.362 . S
C148 C151 1.378 . S
C148 H163 0.929 . S
C149 C148 1.362 . S
C149 C150 1.366 . S
C150 C147 1.365 . S
C150 C149 1.366 . S
C150 H164 0.930 . S
C151 C148 1.378 . S
C151 N152 1.315 . S
C151 H154 0.930 . S
N152 Co132 2.194 . S
N152 C147 1.328 . S
N152 C151 1.315 . S
H153 C147 0.929 . S
H154 C151 0.930 . S
H155 C143 0.929 . S
H156 C145 0.929 . S
O157 Co132 2.351 . S
O157 C160 1.244 . S
O158 Co132 2.155 . S
O158 C160 1.240 . S
O159 Co132 2.096 . S
O159 C140 1.247 . S
C160 O157 1.244 . S
C160 O158 1.240 . S
H161 C135 0.931 . S
H162 C144 0.931 . S
H163 C148 0.929 . S
H164 C150 0.930 . S
Co165 N169 2.148 1_556 S
Co165 N175 2.128 . S
Co165 N185 2.194 . S
Co165 O190 2.351 . S
Co165 O191 2.155 . S
Co165 O192 2.096 . S
C166 N169 1.301 . S
C166 N170 1.328 . S
C166 H171 0.930 . S
C167 C168 1.333 . S
C167 N169 1.317 . S
C167 H172 0.930 . S
C168 C167 1.333 . S
C168 N170 1.350 . S
C168 H194 0.931 . S
N169 Co165 2.148 1_554 S
N169 C166 1.301 . S
N169 C167 1.317 . S
N170 C166 1.328 . S
N170 C168 1.350 . S
H171 C166 0.930 . S
H172 C167 0.930 . S
C173 O174 1.224 . S
C173 O192 1.247 . S
O174 C173 1.224 . S
N175 Co165 2.128 . S
N175 C176 1.355 . S
N175 C178 1.311 . S
C176 N175 1.355 . S
C176 C177 1.363 . S
C176 H188 0.929 . S
C177 C176 1.363 . S
C177 N179 1.375 . S
C177 H195 0.931 . S
C178 N175 1.311 . S
C178 N179 1.347 . S
C178 H189 0.929 . S
N179 C177 1.375 . S
N179 C178 1.347 . S
C180 C183 1.365 . S
C180 N185 1.328 . S
C180 H186 0.929 . S
C181 C182 1.362 . S
C181 C184 1.378 . S
C181 H196 0.929 . S
C182 C181 1.362 . S
C182 C183 1.366 . S
C183 C180 1.365 . S
C183 C182 1.366 . S
C183 H197 0.930 . S
C184 C181 1.378 . S
C184 N185 1.315 . S
C184 H187 0.930 . S
N185 Co165 2.194 . S
N185 C180 1.328 . S
N185 C184 1.315 . S
H186 C180 0.929 . S
H187 C184 0.930 . S
H188 C176 0.929 . S
H189 C178 0.929 . S
O190 Co165 2.351 . S
O190 C193 1.244 . S
O191 Co165 2.155 . S
O191 C193 1.240 . S
O192 Co165 2.096 . S
O192 C173 1.247 . S
C193 O190 1.244 . S
C193 O191 1.240 . S
H194 C168 0.931 . S
H195 C177 0.931 . S
H196 C181 0.929 . S
H197 C183 0.930 . S
Co198 N202 2.148 . S
Co198 N208 2.128 . S
Co198 N218 2.194 . S
Co198 O223 2.351 . S
Co198 O224 2.155 . S
Co198 O225 2.096 . S
C199 N202 1.301 . S
C199 N203 1.328 . S
C199 H204 0.930 . S
C200 C201 1.333 . S
C200 N202 1.317 . S
C200 H205 0.930 . S
C201 C200 1.333 . S
C201 N203 1.350 . S
C201 H227 0.931 . S
N202 Co198 2.148 . S
N202 C199 1.301 . S
N202 C200 1.317 . S
N203 C199 1.328 . S
N203 C201 1.350 . S
H204 C199 0.930 . S
H205 C200 0.930 . S
C206 O207 1.224 . S
C206 O225 1.247 . S
O207 C206 1.224 . S
N208 Co198 2.128 . S
N208 C209 1.355 . S
N208 C211 1.311 . S
C209 N208 1.355 . S
C209 C210 1.363 . S
C209 H221 0.929 . S
C210 C209 1.363 . S
C210 N212 1.375 . S
C210 H228 0.931 . S
C211 N208 1.311 . S
C211 N212 1.347 . S
C211 H222 0.929 . S
N212 C210 1.375 . S
N212 C211 1.347 . S
C213 C216 1.365 . S
C213 N218 1.328 . S
C213 H219 0.929 . S
C214 C215 1.362 . S
C214 C217 1.378 . S
C214 H229 0.929 . S
C215 C214 1.362 . S
C215 C216 1.366 . S
C216 C213 1.365 . S
C216 C215 1.366 . S
C216 H230 0.930 . S
C217 C214 1.378 . S
C217 N218 1.315 . S
C217 H220 0.930 . S
N218 Co198 2.194 . S
N218 C213 1.328 . S
N218 C217 1.315 . S
H219 C213 0.929 . S
H220 C217 0.930 . S
H221 C209 0.929 . S
H222 C211 0.929 . S
O223 Co198 2.351 . S
O223 C226 1.244 . S
O224 Co198 2.155 . S
O224 C226 1.240 . S
O225 Co198 2.096 . S
O225 C206 1.247 . S
C226 O223 1.244 . S
C226 O224 1.240 . S
H227 C201 0.931 . S
H228 C210 0.931 . S
H229 C214 0.929 . S
H230 C216 0.930 . S
Co231 N235 2.148 . S
Co231 N241 2.128 . S
Co231 N251 2.194 . S
Co231 O256 2.351 . S
Co231 O257 2.155 . S
Co231 O258 2.096 . S
C232 N235 1.301 . S
C232 N236 1.328 . S
C232 H237 0.930 . S
C233 C234 1.333 . S
C233 N235 1.317 . S
C233 H238 0.930 . S
C234 C233 1.333 . S
C234 N236 1.350 . S
C234 H260 0.931 . S
N235 Co231 2.148 . S
N235 C232 1.301 . S
N235 C233 1.317 . S
N236 C232 1.328 . S
N236 C234 1.350 . S
H237 C232 0.930 . S
H238 C233 0.930 . S
C239 O240 1.224 . S
C239 O258 1.247 . S
O240 C239 1.224 . S
N241 Co231 2.128 . S
N241 C242 1.355 1_556 S
N241 C244 1.311 1_556 S
C242 N241 1.355 1_554 S
C242 C243 1.363 . S
C242 H254 0.929 1_554 S
C243 C242 1.363 . S
C243 N245 1.375 . S
C243 H261 0.931 . S
C244 N241 1.311 1_554 S
C244 N245 1.347 . S
C244 H255 0.929 . S
N245 C243 1.375 . S
N245 C244 1.347 . S
C246 C249 1.365 . S
C246 N251 1.328 . S
C246 H252 0.929 . S
C247 C248 1.362 . S
C247 C250 1.378 . S
C247 H262 0.929 . S
C248 C247 1.362 . S
C248 C249 1.366 . S
C249 C246 1.365 . S
C249 C248 1.366 . S
C249 H263 0.930 . S
C250 C247 1.378 . S
C250 N251 1.315 . S
C250 H253 0.930 . S
N251 Co231 2.194 . S
N251 C246 1.328 . S
N251 C250 1.315 . S
H252 C246 0.929 . S
H253 C250 0.930 . S
H254 C242 0.929 1_556 S
H255 C244 0.929 . S
O256 Co231 2.351 . S
O256 C259 1.244 . S
O257 Co231 2.155 . S
O257 C259 1.240 . S
O258 Co231 2.096 . S
O258 C239 1.247 . S
C259 O256 1.244 . S
C259 O257 1.240 . S
H260 C234 0.931 . S
H261 C243 0.931 . S
H262 C247 0.929 . S
H263 C249 0.930 . S
Co264 N268 2.148 1_554 S
Co264 N274 2.128 . S
Co264 N284 2.194 . S
Co264 O289 2.351 . S
Co264 O290 2.155 . S
Co264 O291 2.096 . S
C265 N268 1.301 . S
C265 N269 1.328 . S
C265 H270 0.930 . S
C266 C267 1.333 . S
C266 N268 1.317 . S
C266 H271 0.930 . S
C267 C266 1.333 . S
C267 N269 1.350 . S
C267 H293 0.931 . S
N268 Co264 2.148 1_556 S
N268 C265 1.301 . S
N268 C266 1.317 . S
N269 C265 1.328 . S
N269 C267 1.350 . S
H270 C265 0.930 . S
H271 C266 0.930 . S
C272 O273 1.224 . S
C272 O291 1.247 . S
O273 C272 1.224 . S
N274 Co264 2.128 . S
N274 C275 1.355 . S
N274 C277 1.311 . S
C275 N274 1.355 . S
C275 C276 1.363 . S
C275 H287 0.929 . S
C276 C275 1.363 . S
C276 N278 1.375 . S
C276 H294 0.931 . S
C277 N274 1.311 . S
C277 N278 1.347 . S
C277 H288 0.929 . S
N278 C276 1.375 . S
N278 C277 1.347 . S
C279 C282 1.365 . S
C279 N284 1.328 . S
C279 H285 0.929 . S
C280 C281 1.362 . S
C280 C283 1.378 . S
C280 H295 0.929 . S
C281 C280 1.362 . S
C281 C282 1.366 . S
C282 C279 1.365 . S
C282 C281 1.366 . S
C282 H296 0.930 . S
C283 C280 1.378 . S
C283 N284 1.315 . S
C283 H286 0.930 . S
N284 Co264 2.194 . S
N284 C279 1.328 . S
N284 C283 1.315 . S
H285 C279 0.929 . S
H286 C283 0.930 . S
H287 C275 0.929 . S
H288 C277 0.929 . S
O289 Co264 2.351 . S
O289 C292 1.244 . S
O290 Co264 2.155 . S
O290 C292 1.240 . S
O291 Co264 2.096 . S
O291 C272 1.247 . S
C292 O289 1.244 . S
C292 O290 1.240 . S
H293 C267 0.931 . S
H294 C276 0.931 . S
H295 C280 0.929 . S
H296 C282 0.930 . S
Co297 N301 2.148 . S
Co297 N307 2.128 . S
Co297 N317 2.194 . S
Co297 O322 2.351 . S
Co297 O323 2.155 . S
Co297 O324 2.096 . S
C298 N301 1.301 . S
C298 N302 1.328 . S
C298 H303 0.930 . S
C299 C300 1.333 . S
C299 N301 1.317 . S
C299 H304 0.930 . S
C300 C299 1.333 . S
C300 N302 1.350 . S
C300 H326 0.931 . S
N301 Co297 2.148 . S
N301 C298 1.301 . S
N301 C299 1.317 . S
N302 C298 1.328 . S
N302 C300 1.350 . S
H303 C298 0.930 . S
H304 C299 0.930 . S
C305 O306 1.224 . S
C305 O324 1.247 . S
O306 C305 1.224 . S
N307 Co297 2.128 . S
N307 C308 1.355 . S
N307 C310 1.311 . S
C308 N307 1.355 . S
C308 C309 1.363 . S
C308 H320 0.929 . S
C309 C308 1.363 . S
C309 N311 1.375 . S
C309 H327 0.931 . S
C310 N307 1.311 . S
C310 N311 1.347 . S
C310 H321 0.929 . S
N311 C309 1.375 . S
N311 C310 1.347 . S
C312 C315 1.365 . S
C312 N317 1.328 . S
C312 H318 0.929 . S
C313 C314 1.362 . S
C313 C316 1.378 . S
C313 H328 0.929 . S
C314 C313 1.362 . S
C314 C315 1.366 . S
C315 C312 1.365 . S
C315 C314 1.366 . S
C315 H329 0.930 . S
C316 C313 1.378 . S
C316 N317 1.315 . S
C316 H319 0.930 . S
N317 Co297 2.194 . S
N317 C312 1.328 . S
N317 C316 1.315 . S
H318 C312 0.929 . S
H319 C316 0.930 . S
H320 C308 0.929 . S
H321 C310 0.929 . S
O322 Co297 2.351 . S
O322 C325 1.244 . S
O323 Co297 2.155 . S
O323 C325 1.240 . S
O324 Co297 2.096 . S
O324 C305 1.247 . S
C325 O322 1.244 . S
C325 O323 1.240 . S
H326 C300 0.931 . S
H327 C309 0.931 . S
H328 C313 0.929 . S
H329 C315 0.930 . S
Co330 N334 2.148 . S
Co330 N340 2.128 . S
Co330 N350 2.194 . S
Co330 O355 2.351 . S
Co330 O356 2.155 . S
Co330 O357 2.096 . S
C331 N334 1.301 . S
C331 N335 1.328 . S
C331 H336 0.930 . S
C332 C333 1.333 . S
C332 N334 1.317 . S
C332 H337 0.930 . S
C333 C332 1.333 . S
C333 N335 1.350 . S
C333 H359 0.931 . S
N334 Co330 2.148 . S
N334 C331 1.301 . S
N334 C332 1.317 . S
N335 C331 1.328 . S
N335 C333 1.350 . S
H336 C331 0.930 . S
H337 C332 0.930 . S
C338 O339 1.224 . S
C338 O357 1.247 . S
O339 C338 1.224 . S
N340 Co330 2.128 . S
N340 C341 1.355 . S
N340 C343 1.311 . S
C341 N340 1.355 . S
C341 C342 1.363 . S
C341 H353 0.929 . S
C342 C341 1.363 . S
C342 N344 1.375 . S
C342 H360 0.931 . S
C343 N340 1.311 . S
C343 N344 1.347 . S
C343 H354 0.929 . S
N344 C342 1.375 . S
N344 C343 1.347 . S
C345 C348 1.365 . S
C345 N350 1.328 . S
C345 H351 0.929 . S
C346 C347 1.362 . S
C346 C349 1.378 . S
C346 H361 0.929 . S
C347 C346 1.362 . S
C347 C348 1.366 . S
C348 C345 1.365 . S
C348 C347 1.366 . S
C348 H362 0.930 . S
C349 C346 1.378 . S
C349 N350 1.315 . S
C349 H352 0.930 . S
N350 Co330 2.194 . S
N350 C345 1.328 . S
N350 C349 1.315 . S
H351 C345 0.929 . S
H352 C349 0.930 . S
H353 C341 0.929 . S
H354 C343 0.929 . S
O355 Co330 2.351 . S
O355 C358 1.244 . S
O356 Co330 2.155 . S
O356 C358 1.240 . S
O357 Co330 2.096 . S
O357 C338 1.247 . S
C358 O355 1.244 . S
C358 O356 1.240 . S
H359 C333 0.931 . S
H360 C342 0.931 . S
H361 C346 0.929 . S
H362 C348 0.930 . S
Co363 N367 2.148 . S
Co363 N373 2.128 . S
Co363 N383 2.194 . S
Co363 O388 2.351 . S
Co363 O389 2.155 . S
Co363 O390 2.096 . S
C364 N367 1.301 . S
C364 N368 1.328 . S
C364 H369 0.930 . S
C365 C366 1.333 . S
C365 N367 1.317 . S
C365 H370 0.930 . S
C366 C365 1.333 . S
C366 N368 1.350 . S
C366 H392 0.931 . S
N367 Co363 2.148 . S
N367 C364 1.301 . S
N367 C365 1.317 . S
N368 C364 1.328 . S
N368 C366 1.350 . S
H369 C364 0.930 . S
H370 C365 0.930 . S
C371 O372 1.224 . S
C371 O390 1.247 . S
O372 C371 1.224 . S
N373 Co363 2.128 . S
N373 C374 1.355 . S
N373 C376 1.311 . S
C374 N373 1.355 . S
C374 C375 1.363 . S
C374 H386 0.929 . S
C375 C374 1.363 . S
C375 N377 1.375 . S
C375 H393 0.931 . S
C376 N373 1.311 . S
C376 N377 1.347 . S
C376 H387 0.929 . S
N377 C375 1.375 . S
N377 C376 1.347 . S
C378 C381 1.365 . S
C378 N383 1.328 . S
C378 H384 0.929 . S
C379 C380 1.362 . S
C379 C382 1.378 . S
C379 H394 0.929 . S
C380 C379 1.362 . S
C380 C381 1.366 . S
C381 C378 1.365 . S
C381 C380 1.366 . S
C381 H395 0.930 . S
C382 C379 1.378 . S
C382 N383 1.315 . S
C382 H385 0.930 . S
N383 Co363 2.194 . S
N383 C378 1.328 . S
N383 C382 1.315 . S
H384 C378 0.929 . S
H385 C382 0.930 . S
H386 C374 0.929 . S
H387 C376 0.929 . S
O388 Co363 2.351 . S
O388 C391 1.244 . S
O389 Co363 2.155 . S
O389 C391 1.240 . S
O390 Co363 2.096 . S
O390 C371 1.247 . S
C391 O388 1.244 . S
C391 O389 1.240 . S
H392 C366 0.931 . S
H393 C375 0.931 . S
H394 C379 0.929 . S
H395 C381 0.930 . S
H396 C414 0.951 . S
H397 C416 0.951 . S
H398 C418 0.950 . S
H399 C419 0.950 . S
H400 C421 0.950 . S
H401 C424 0.950 . S
H402 C425 0.950 . S
H403 C427 0.950 . S
H404 C428 0.950 . S
H405 C429 0.951 . S
H406 C431 0.951 . S
H407 C433 0.950 . S
H408 C434 0.950 . S
H409 C436 0.950 . S
H410 C439 0.950 . S
H411 C440 0.950 . S
H412 C442 0.950 . S
H413 C443 0.950 . S
C414 H396 0.951 . S
C414 C415 1.366 . S
C414 C416 1.388 . S
C415 C414 1.366 . S
C415 C419 1.385 . S
C416 H397 0.951 . S
C416 C414 1.388 . S
C416 C417 1.366 . S
C417 C416 1.366 . S
C417 C418 1.414 . S
C417 C420 1.499 . S
C418 H398 0.950 . S
C418 C417 1.414 . S
C418 C419 1.374 . S
C419 H399 0.950 . S
C419 C415 1.385 . S
C419 C418 1.374 . S
C420 C417 1.499 . S
C420 C421 1.373 . S
C420 C422 1.389 . S
C421 H400 0.950 . S
C421 C420 1.373 . S
C421 C437 1.377 . S
C422 C420 1.389 . S
C422 C423 1.524 . S
C422 C436 1.377 . S
C423 C422 1.524 . S
C423 C424 1.397 . S
C423 C428 1.363 . S
C424 H401 0.950 . S
C424 C423 1.397 . S
C424 C425 1.334 . S
C425 H402 0.950 . S
C425 C424 1.334 . S
C425 C426 1.287 . S
C426 C425 1.287 . S
C426 C427 1.524 . S
C426 H445 0.913 . S
C427 H403 0.950 . S
C427 C426 1.524 . S
C427 C428 1.415 . S
C428 H404 0.950 . S
C428 C423 1.363 . S
C428 C427 1.415 . S
C429 H405 0.951 . S
C429 C430 1.366 . S
C429 C431 1.388 . S
C430 C429 1.366 . S
C430 C434 1.385 . S
C431 H406 0.951 . S
C431 C429 1.388 . S
C431 C432 1.366 . S
C432 C431 1.366 . S
C432 C433 1.414 . S
C432 C435 1.499 . S
C433 H407 0.950 . S
C433 C432 1.414 . S
C433 C434 1.374 . S
C434 H408 0.950 . S
C434 C430 1.385 . S
C434 C433 1.374 . S
C435 C432 1.499 . S
C435 C436 1.373 . S
C435 C437 1.389 . S
C436 H409 0.950 . S
C436 C422 1.377 . S
C436 C435 1.373 . S
C437 C421 1.377 . S
C437 C435 1.389 . S
C437 C438 1.524 . S
C438 C437 1.524 . S
C438 C439 1.397 . S
C438 C443 1.363 . S
C439 H410 0.950 . S
C439 C438 1.397 . S
C439 C440 1.334 . S
C440 H411 0.950 . S
C440 C439 1.334 . S
C440 C441 1.287 . S
C441 C440 1.287 . S
C441 C442 1.524 . S
C441 H444 0.999 . S
C442 H412 0.950 . S
C442 C441 1.524 . S
C442 C443 1.415 . S
C443 H413 0.950 . S
C443 C438 1.363 . S
C443 C442 1.415 . S
H444 C441 0.999 . S
H445 C426 0.913 . S
H446 C464 0.951 1_554 S
H447 C466 0.951 . S
H448 C468 0.950 . S
H449 C469 0.950 1_554 S
H450 C471 0.950 . S
H451 C474 0.950 . S
H452 C475 0.950 . S
H453 C477 0.950 . S
H454 C478 0.950 . S
H455 C479 0.951 . S
H456 C481 0.951 . S
H457 C483 0.950 . S
H458 C484 0.950 . S
H459 C486 0.950 . S
H460 C489 0.950 . S
H461 C490 0.950 . S
H462 C492 0.950 . S
H463 C493 0.950 . S
C464 H446 0.951 1_556 S
C464 C465 1.366 1_556 S
C464 C466 1.388 . S
C465 C464 1.366 1_554 S
C465 C469 1.385 1_554 S
C466 H447 0.951 . S
C466 C464 1.388 . S
C466 C467 1.366 . S
C467 C466 1.366 . S
C467 C468 1.414 . S
C467 C470 1.499 . S
C468 H448 0.950 . S
C468 C467 1.414 . S
C468 C469 1.374 . S
C469 H449 0.950 1_556 S
C469 C465 1.385 1_556 S
C469 C468 1.374 . S
C470 C467 1.499 . S
C470 C471 1.373 . S
C470 C472 1.389 . S
C471 H450 0.950 . S
C471 C470 1.373 . S
C471 C487 1.377 . S
C472 C470 1.389 . S
C472 C473 1.524 . S
C472 C486 1.377 . S
C473 C472 1.524 . S
C473 C474 1.397 . S
C473 C478 1.363 . S
C474 H451 0.950 . S
C474 C473 1.397 . S
C474 C475 1.334 . S
C475 H452 0.950 . S
C475 C474 1.334 . S
C475 C476 1.287 . S
C476 C475 1.287 . S
C476 C477 1.524 . S
C476 H495 0.913 . S
C477 H453 0.950 . S
C477 C476 1.524 . S
C477 C478 1.415 . S
C478 H454 0.950 . S
C478 C473 1.363 . S
C478 C477 1.415 . S
C479 H455 0.951 . S
C479 C480 1.366 . S
C479 C481 1.388 . S
C480 C479 1.366 . S
C480 C484 1.385 . S
C481 H456 0.951 . S
C481 C479 1.388 . S
C481 C482 1.366 . S
C482 C481 1.366 . S
C482 C483 1.414 . S
C482 C485 1.499 . S
C483 H457 0.950 . S
C483 C482 1.414 . S
C483 C484 1.374 . S
C484 H458 0.950 . S
C484 C480 1.385 . S
C484 C483 1.374 . S
C485 C482 1.499 . S
C485 C486 1.373 . S
C485 C487 1.389 . S
C486 H459 0.950 . S
C486 C472 1.377 . S
C486 C485 1.373 . S
C487 C471 1.377 . S
C487 C485 1.389 . S
C487 C488 1.524 . S
C488 C487 1.524 . S
C488 C489 1.397 . S
C488 C493 1.363 . S
C489 H460 0.950 . S
C489 C488 1.397 . S
C489 C490 1.334 . S
C490 H461 0.950 . S
C490 C489 1.334 . S
C490 C491 1.287 . S
C491 C490 1.287 . S
C491 C492 1.524 . S
C491 H494 0.999 . S
C492 H462 0.950 . S
C492 C491 1.524 . S
C492 C493 1.415 . S
C493 H463 0.950 . S
C493 C488 1.363 . S
C493 C492 1.415 . S
H494 C491 0.999 . S
H495 C476 0.913 . S
H496 C514 0.951 . S
H497 C516 0.951 . S
H498 C518 0.950 . S
H499 C519 0.950 . S
H500 C521 0.950 . S
H501 C524 0.950 . S
H502 C525 0.950 . S
H503 C527 0.950 . S
H504 C528 0.950 . S
H505 C529 0.951 . S
H506 C531 0.951 . S
H507 C533 0.950 . S
H508 C534 0.950 . S
H509 C536 0.950 . S
H510 C539 0.950 . S
H511 C540 0.950 . S
H512 C542 0.950 . S
H513 C543 0.950 . S
C514 H496 0.951 . S
C514 C515 1.366 . S
C514 C516 1.388 . S
C515 C514 1.366 . S
C515 C519 1.385 . S
C516 H497 0.951 . S
C516 C514 1.388 . S
C516 C517 1.366 . S
C517 C516 1.366 . S
C517 C518 1.414 . S
C517 C520 1.499 1_554 S
C518 H498 0.950 . S
C518 C517 1.414 . S
C518 C519 1.374 . S
C519 H499 0.950 . S
C519 C515 1.385 . S
C519 C518 1.374 . S
C520 C517 1.499 1_556 S
C520 C521 1.373 . S
C520 C522 1.389 . S
C521 H500 0.950 . S
C521 C520 1.373 . S
C521 C537 1.377 . S
C522 C520 1.389 . S
C522 C523 1.524 . S
C522 C536 1.377 . S
C523 C522 1.524 . S
C523 C524 1.397 1_556 S
C523 C528 1.363 . S
C524 H501 0.950 . S
C524 C523 1.397 1_554 S
C524 C525 1.334 . S
C525 H502 0.950 . S
C525 C524 1.334 . S
C525 C526 1.287 . S
C526 C525 1.287 . S
C526 C527 1.524 . S
C526 H545 0.913 . S
C527 H503 0.950 . S
C527 C526 1.524 . S
C527 C528 1.415 1_554 S
C528 H504 0.950 . S
C528 C523 1.363 . S
C528 C527 1.415 1_556 S
C529 H505 0.951 . S
C529 C530 1.366 . S
C529 C531 1.388 . S
C530 C529 1.366 . S
C530 C534 1.385 . S
C531 H506 0.951 . S
C531 C529 1.388 . S
C531 C532 1.366 . S
C532 C531 1.366 . S
C532 C533 1.414 . S
C532 C535 1.499 . S
C533 H507 0.950 . S
C533 C532 1.414 . S
C533 C534 1.374 . S
C534 H508 0.950 . S
C534 C530 1.385 . S
C534 C533 1.374 . S
C535 C532 1.499 . S
C535 C536 1.373 . S
C535 C537 1.389 . S
C536 H509 0.950 . S
C536 C522 1.377 . S
C536 C535 1.373 . S
C537 C521 1.377 . S
C537 C535 1.389 . S
C537 C538 1.524 . S
C538 C537 1.524 . S
C538 C539 1.397 . S
C538 C543 1.363 . S
C539 H510 0.950 . S
C539 C538 1.397 . S
C539 C540 1.334 . S
C540 H511 0.950 . S
C540 C539 1.334 . S
C540 C541 1.287 . S
C541 C540 1.287 . S
C541 C542 1.524 . S
C541 H544 0.999 . S
C542 H512 0.950 . S
C542 C541 1.524 . S
C542 C543 1.415 . S
C543 H513 0.950 . S
C543 C538 1.363 . S
C543 C542 1.415 . S
H544 C541 0.999 . S
H545 C526 0.913 . S
H546 C564 0.951 . S
H547 C566 0.951 . S
H548 C568 0.950 . S
H549 C569 0.950 . S
H550 C571 0.950 . S
H551 C574 0.950 . S
H552 C575 0.950 . S
H553 C577 0.950 . S
H554 C578 0.950 . S
H555 C579 0.951 . S
H556 C581 0.951 . S
H557 C583 0.950 . S
H558 C584 0.950 . S
H559 C586 0.950 . S
H560 C589 0.950 . S
H561 C590 0.950 . S
H562 C592 0.950 . S
H563 C593 0.950 . S
C564 H546 0.951 . S
C564 C565 1.366 . S
C564 C566 1.388 . S
C565 C564 1.366 . S
C565 C569 1.385 . S
C566 H547 0.951 . S
C566 C564 1.388 . S
C566 C567 1.366 . S
C567 C566 1.366 . S
C567 C568 1.414 . S
C567 C570 1.499 1_556 S
C568 H548 0.950 . S
C568 C567 1.414 . S
C568 C569 1.374 . S
C569 H549 0.950 . S
C569 C565 1.385 . S
C569 C568 1.374 . S
C570 C567 1.499 1_554 S
C570 C571 1.373 . S
C570 C572 1.389 . S
C571 H550 0.950 . S
C571 C570 1.373 . S
C571 C587 1.377 . S
C572 C570 1.389 . S
C572 C573 1.524 . S
C572 C586 1.377 . S
C573 C572 1.524 . S
C573 C574 1.397 . S
C573 C578 1.363 . S
C574 H551 0.950 . S
C574 C573 1.397 . S
C574 C575 1.334 1_554 S
C575 H552 0.950 . S
C575 C574 1.334 1_556 S
C575 C576 1.287 1_556 S
C576 C575 1.287 1_554 S
C576 C577 1.524 . S
C576 H595 0.913 1_554 S
C577 H553 0.950 . S
C577 C576 1.524 . S
C577 C578 1.415 . S
C578 H554 0.950 . S
C578 C573 1.363 . S
C578 C577 1.415 . S
C579 H555 0.951 . S
C579 C580 1.366 . S
C579 C581 1.388 . S
C580 C579 1.366 . S
C580 C584 1.385 . S
C581 H556 0.951 . S
C581 C579 1.388 . S
C581 C582 1.366 . S
C582 C581 1.366 . S
C582 C583 1.414 . S
C582 C585 1.499 . S
C583 H557 0.950 . S
C583 C582 1.414 . S
C583 C584 1.374 . S
C584 H558 0.950 . S
C584 C580 1.385 . S
C584 C583 1.374 . S
C585 C582 1.499 . S
C585 C586 1.373 . S
C585 C587 1.389 . S
C586 H559 0.950 . S
C586 C572 1.377 . S
C586 C585 1.373 . S
C587 C571 1.377 . S
C587 C585 1.389 . S
C587 C588 1.524 . S
C588 C587 1.524 . S
C588 C589 1.397 . S
C588 C593 1.363 . S
C589 H560 0.950 . S
C589 C588 1.397 . S
C589 C590 1.334 . S
C590 H561 0.950 . S
C590 C589 1.334 . S
C590 C591 1.287 . S
C591 C590 1.287 . S
C591 C592 1.524 . S
C591 H594 0.999 . S
C592 H562 0.950 . S
C592 C591 1.524 . S
C592 C593 1.415 . S
C593 H563 0.950 . S
C593 C588 1.363 . S
C593 C592 1.415 . S
H594 C591 0.999 . S
H595 C576 0.913 1_556 S
H596 C614 0.951 . S
H597 C616 0.951 . S
H598 C618 0.950 . S
H599 C619 0.950 . S
H600 C621 0.950 . S
H601 C624 0.950 . S
H602 C625 0.950 . S
H603 C627 0.950 . S
H604 C628 0.950 . S
H605 C629 0.951 . S
H606 C631 0.951 . S
H607 C633 0.950 . S
H608 C634 0.950 . S
H609 C636 0.950 . S
H610 C639 0.950 . S
H611 C640 0.950 . S
H612 C642 0.950 . S
H613 C643 0.950 . S
C614 H596 0.951 . S
C614 C615 1.366 . S
C614 C616 1.388 . S
C615 C614 1.366 . S
C615 C619 1.385 . S
C616 H597 0.951 . S
C616 C614 1.388 . S
C616 C617 1.366 . S
C617 C616 1.366 . S
C617 C618 1.414 . S
C617 C620 1.499 . S
C618 H598 0.950 . S
C618 C617 1.414 . S
C618 C619 1.374 . S
C619 H599 0.950 . S
C619 C615 1.385 . S
C619 C618 1.374 . S
C620 C617 1.499 . S
C620 C621 1.373 . S
C620 C622 1.389 . S
C621 H600 0.950 . S
C621 C620 1.373 . S
C621 C637 1.377 . S
C622 C620 1.389 . S
C622 C623 1.524 . S
C622 C636 1.377 . S
C623 C622 1.524 . S
C623 C624 1.397 . S
C623 C628 1.363 . S
C624 H601 0.950 . S
C624 C623 1.397 . S
C624 C625 1.334 . S
C625 H602 0.950 . S
C625 C624 1.334 . S
C625 C626 1.287 . S
C626 C625 1.287 . S
C626 C627 1.524 . S
C626 H645 0.913 . S
C627 H603 0.950 . S
C627 C626 1.524 . S
C627 C628 1.415 . S
C628 H604 0.950 . S
C628 C623 1.363 . S
C628 C627 1.415 . S
C629 H605 0.951 . S
C629 C630 1.366 . S
C629 C631 1.388 . S
C630 C629 1.366 . S
C630 C634 1.385 . S
C631 H606 0.951 . S
C631 C629 1.388 . S
C631 C632 1.366 . S
C632 C631 1.366 . S
C632 C633 1.414 . S
C632 C635 1.499 . S
C633 H607 0.950 . S
C633 C632 1.414 . S
C633 C634 1.374 . S
C634 H608 0.950 . S
C634 C630 1.385 . S
C634 C633 1.374 . S
C635 C632 1.499 . S
C635 C636 1.373 . S
C635 C637 1.389 . S
C636 H609 0.950 . S
C636 C622 1.377 . S
C636 C635 1.373 . S
C637 C621 1.377 . S
C637 C635 1.389 . S
C637 C638 1.524 . S
C638 C637 1.524 . S
C638 C639 1.397 . S
C638 C643 1.363 . S
C639 H610 0.950 . S
C639 C638 1.397 . S
C639 C640 1.334 . S
C640 H611 0.950 . S
C640 C639 1.334 . S
C640 C641 1.287 . S
C641 C640 1.287 . S
C641 C642 1.524 . S
C641 H644 0.999 . S
C642 H612 0.950 . S
C642 C641 1.524 . S
C642 C643 1.415 . S
C643 H613 0.950 . S
C643 C638 1.363 . S
C643 C642 1.415 . S
H644 C641 0.999 . S
H645 C626 0.913 . S
H646 C664 0.951 . S
H647 C666 0.951 . S
H648 C668 0.950 . S
H649 C669 0.950 . S
H650 C671 0.950 . S
H651 C674 0.950 . S
H652 C675 0.950 . S
H653 C677 0.950 . S
H654 C678 0.950 . S
H655 C679 0.951 . S
H656 C681 0.951 . S
H657 C683 0.950 . S
H658 C684 0.950 . S
H659 C686 0.950 . S
H660 C689 0.950 . S
H661 C690 0.950 . S
H662 C692 0.950 . S
H663 C693 0.950 . S
C664 H646 0.951 . S
C664 C665 1.366 . S
C664 C666 1.388 . S
C665 C664 1.366 . S
C665 C669 1.385 . S
C666 H647 0.951 . S
C666 C664 1.388 . S
C666 C667 1.366 . S
C667 C666 1.366 . S
C667 C668 1.414 . S
C667 C670 1.499 . S
C668 H648 0.950 . S
C668 C667 1.414 . S
C668 C669 1.374 . S
C669 H649 0.950 . S
C669 C665 1.385 . S
C669 C668 1.374 . S
C670 C667 1.499 . S
C670 C671 1.373 . S
C670 C672 1.389 . S
C671 H650 0.950 . S
C671 C670 1.373 . S
C671 C687 1.377 . S
C672 C670 1.389 . S
C672 C673 1.524 . S
C672 C686 1.377 . S
C673 C672 1.524 . S
C673 C674 1.397 . S
C673 C678 1.363 . S
C674 H651 0.950 . S
C674 C673 1.397 . S
C674 C675 1.334 . S
C675 H652 0.950 . S
C675 C674 1.334 . S
C675 C676 1.287 . S
C676 C675 1.287 . S
C676 C677 1.524 . S
C676 H695 0.913 . S
C677 H653 0.950 . S
C677 C676 1.524 . S
C677 C678 1.415 . S
C678 H654 0.950 . S
C678 C673 1.363 . S
C678 C677 1.415 . S
C679 H655 0.951 . S
C679 C680 1.366 . S
C679 C681 1.388 . S
C680 C679 1.366 . S
C680 C684 1.385 . S
C681 H656 0.951 . S
C681 C679 1.388 . S
C681 C682 1.366 . S
C682 C681 1.366 . S
C682 C683 1.414 . S
C682 C685 1.499 . S
C683 H657 0.950 . S
C683 C682 1.414 . S
C683 C684 1.374 . S
C684 H658 0.950 . S
C684 C680 1.385 . S
C684 C683 1.374 . S
C685 C682 1.499 . S
C685 C686 1.373 . S
C685 C687 1.389 . S
C686 H659 0.950 . S
C686 C672 1.377 . S
C686 C685 1.373 . S
C687 C671 1.377 . S
C687 C685 1.389 . S
C687 C688 1.524 . S
C688 C687 1.524 . S
C688 C689 1.397 . S
C688 C693 1.363 . S
C689 H660 0.950 . S
C689 C688 1.397 . S
C689 C690 1.334 . S
C690 H661 0.950 . S
C690 C689 1.334 . S
C690 C691 1.287 . S
C691 C690 1.287 . S
C691 C692 1.524 . S
C691 H694 0.999 . S
C692 H662 0.950 . S
C692 C691 1.524 . S
C692 C693 1.415 . S
C693 H663 0.950 . S
C693 C688 1.363 . S
C693 C692 1.415 . S
H694 C691 0.999 . S
H695 C676 0.913 . S
H696 C714 0.951 . S
H697 C716 0.951 . S
H698 C718 0.950 . S
H699 C719 0.950 . S
H700 C721 0.950 . S
H701 C724 0.950 . S
H702 C725 0.950 . S
H703 C727 0.950 . S
H704 C728 0.950 . S
H705 C729 0.951 1_556 S
H706 C731 0.951 . S
H707 C733 0.950 . S
H708 C734 0.950 1_556 S
H709 C736 0.950 . S
H710 C739 0.950 . S
H711 C740 0.950 . S
H712 C742 0.950 . S
H713 C743 0.950 . S
C714 H696 0.951 . S
C714 C715 1.366 . S
C714 C716 1.388 . S
C715 C714 1.366 . S
C715 C719 1.385 . S
C716 H697 0.951 . S
C716 C714 1.388 . S
C716 C717 1.366 . S
C717 C716 1.366 . S
C717 C718 1.414 . S
C717 C720 1.499 . S
C718 H698 0.950 . S
C718 C717 1.414 . S
C718 C719 1.374 . S
C719 H699 0.950 . S
C719 C715 1.385 . S
C719 C718 1.374 . S
C720 C717 1.499 . S
C720 C721 1.373 . S
C720 C722 1.389 . S
C721 H700 0.950 . S
C721 C720 1.373 . S
C721 C737 1.377 . S
C722 C720 1.389 . S
C722 C723 1.524 . S
C722 C736 1.377 . S
C723 C722 1.524 . S
C723 C724 1.397 . S
C723 C728 1.363 . S
C724 H701 0.950 . S
C724 C723 1.397 . S
C724 C725 1.334 . S
C725 H702 0.950 . S
C725 C724 1.334 . S
C725 C726 1.287 . S
C726 C725 1.287 . S
C726 C727 1.524 . S
C726 H745 0.913 . S
C727 H703 0.950 . S
C727 C726 1.524 . S
C727 C728 1.415 . S
C728 H704 0.950 . S
C728 C723 1.363 . S
C728 C727 1.415 . S
C729 H705 0.951 1_554 S
C729 C730 1.366 1_554 S
C729 C731 1.388 . S
C730 C729 1.366 1_556 S
C730 C734 1.385 1_556 S
C731 H706 0.951 . S
C731 C729 1.388 . S
C731 C732 1.366 . S
C732 C731 1.366 . S
C732 C733 1.414 . S
C732 C735 1.499 . S
C733 H707 0.950 . S
C733 C732 1.414 . S
C733 C734 1.374 . S
C734 H708 0.950 1_554 S
C734 C730 1.385 1_554 S
C734 C733 1.374 . S
C735 C732 1.499 . S
C735 C736 1.373 . S
C735 C737 1.389 . S
C736 H709 0.950 . S
C736 C722 1.377 . S
C736 C735 1.373 . S
C737 C721 1.377 . S
C737 C735 1.389 . S
C737 C738 1.524 . S
C738 C737 1.524 . S
C738 C739 1.397 . S
C738 C743 1.363 . S
C739 H710 0.950 . S
C739 C738 1.397 . S
C739 C740 1.334 . S
C740 H711 0.950 . S
C740 C739 1.334 . S
C740 C741 1.287 . S
C741 C740 1.287 . S
C741 C742 1.524 . S
C741 H744 0.999 . S
C742 H712 0.950 . S
C742 C741 1.524 . S
C742 C743 1.415 . S
C743 H713 0.950 . S
C743 C738 1.363 . S
C743 C742 1.415 . S
H744 C741 0.999 . S
H745 C726 0.913 . S
H746 C764 0.951 . S
H747 C766 0.951 . S
H748 C768 0.950 . S
H749 C769 0.950 . S
H750 C771 0.950 . S
H751 C774 0.950 . S
H752 C775 0.950 . S
H753 C777 0.950 . S
H754 C778 0.950 . S
H755 C779 0.951 . S
H756 C781 0.951 . S
H757 C783 0.950 . S
H758 C784 0.950 . S
H759 C786 0.950 . S
H760 C789 0.950 . S
H761 C790 0.950 . S
H762 C792 0.950 . S
H763 C793 0.950 . S
C764 H746 0.951 . S
C764 C765 1.366 . S
C764 C766 1.388 . S
C765 C764 1.366 . S
C765 C769 1.385 . S
C766 H747 0.951 . S
C766 C764 1.388 . S
C766 C767 1.366 . S
C767 C766 1.366 . S
C767 C768 1.414 . S
C767 C770 1.499 . S
C768 H748 0.950 . S
C768 C767 1.414 . S
C768 C769 1.374 . S
C769 H749 0.950 . S
C769 C765 1.385 . S
C769 C768 1.374 . S
C770 C767 1.499 . S
C770 C771 1.373 . S
C770 C772 1.389 . S
C771 H750 0.950 . S
C771 C770 1.373 . S
C771 C787 1.377 . S
C772 C770 1.389 . S
C772 C773 1.524 . S
C772 C786 1.377 . S
C773 C772 1.524 . S
C773 C774 1.397 . S
C773 C778 1.363 . S
C774 H751 0.950 . S
C774 C773 1.397 . S
C774 C775 1.334 . S
C775 H752 0.950 . S
C775 C774 1.334 . S
C775 C776 1.287 . S
C776 C775 1.287 . S
C776 C777 1.524 . S
C776 H795 0.913 . S
C777 H753 0.950 . S
C777 C776 1.524 . S
C777 C778 1.415 . S
C778 H754 0.950 . S
C778 C773 1.363 . S
C778 C777 1.415 . S
C779 H755 0.951 . S
C779 C780 1.366 . S
C779 C781 1.388 . S
C780 C779 1.366 . S
C780 C784 1.385 . S
C781 H756 0.951 . S
C781 C779 1.388 . S
C781 C782 1.366 . S
C782 C781 1.366 . S
C782 C783 1.414 . S
C782 C785 1.499 . S
C783 H757 0.950 . S
C783 C782 1.414 . S
C783 C784 1.374 . S
C784 H758 0.950 . S
C784 C780 1.385 . S
C784 C783 1.374 . S
C785 C782 1.499 . S
C785 C786 1.373 . S
C785 C787 1.389 . S
C786 H759 0.950 . S
C786 C772 1.377 . S
C786 C785 1.373 . S
C787 C771 1.377 . S
C787 C785 1.389 . S
C787 C788 1.524 . S
C788 C787 1.524 . S
C788 C789 1.397 . S
C788 C793 1.363 . S
C789 H760 0.950 . S
C789 C788 1.397 . S
C789 C790 1.334 . S
C790 H761 0.950 . S
C790 C789 1.334 . S
C790 C791 1.287 . S
C791 C790 1.287 . S
C791 C792 1.524 . S
C791 H794 0.999 . S
C792 H762 0.950 . S
C792 C791 1.524 . S
C792 C793 1.415 . S
C793 H763 0.950 . S
C793 C788 1.363 . S
C793 C792 1.415 . S
H794 C791 0.999 . S
H795 C776 0.913 . S
H796 C814 0.951 . S
H797 C816 0.951 . S
H798 C818 0.950 . S
H799 C819 0.950 . S
H800 C821 0.950 . S
H801 C824 0.950 . S
H802 C825 0.950 . S
H803 C827 0.950 . S
H804 C828 0.950 . S
H805 C829 0.951 . S
H806 C831 0.951 . S
H807 C833 0.950 . S
H808 C834 0.950 . S
H809 C836 0.950 . S
H810 C839 0.950 . S
H811 C840 0.950 . S
H812 C842 0.950 . S
H813 C843 0.950 . S
C814 H796 0.951 . S
C814 C815 1.366 . S
C814 C816 1.388 . S
C815 C814 1.366 . S
C815 C819 1.385 . S
C816 H797 0.951 . S
C816 C814 1.388 . S
C816 C817 1.366 . S
C817 C816 1.366 . S
C817 C818 1.414 . S
C817 C820 1.499 . S
C818 H798 0.950 . S
C818 C817 1.414 . S
C818 C819 1.374 . S
C819 H799 0.950 . S
C819 C815 1.385 . S
C819 C818 1.374 . S
C820 C817 1.499 . S
C820 C821 1.373 . S
C820 C822 1.389 . S
C821 H800 0.950 . S
C821 C820 1.373 . S
C821 C837 1.377 . S
C822 C820 1.389 . S
C822 C823 1.524 . S
C822 C836 1.377 . S
C823 C822 1.524 . S
C823 C824 1.397 . S
C823 C828 1.363 . S
C824 H801 0.950 . S
C824 C823 1.397 . S
C824 C825 1.334 . S
C825 H802 0.950 . S
C825 C824 1.334 . S
C825 C826 1.287 . S
C826 C825 1.287 . S
C826 C827 1.524 . S
C826 H845 0.913 . S
C827 H803 0.950 . S
C827 C826 1.524 . S
C827 C828 1.415 . S
C828 H804 0.950 . S
C828 C823 1.363 . S
C828 C827 1.415 . S
C829 H805 0.951 . S
C829 C830 1.366 . S
C829 C831 1.388 . S
C830 C829 1.366 . S
C830 C834 1.385 . S
C831 H806 0.951 . S
C831 C829 1.388 . S
C831 C832 1.366 . S
C832 C831 1.366 . S
C832 C833 1.414 . S
C832 C835 1.499 . S
C833 H807 0.950 . S
C833 C832 1.414 . S
C833 C834 1.374 . S
C834 H808 0.950 . S
C834 C830 1.385 . S
C834 C833 1.374 . S
C835 C832 1.499 . S
C835 C836 1.373 . S
C835 C837 1.389 . S
C836 H809 0.950 . S
C836 C822 1.377 . S
C836 C835 1.373 . S
C837 C821 1.377 . S
C837 C835 1.389 . S
C837 C838 1.524 . S
C838 C837 1.524 . S
C838 C839 1.397 . S
C838 C843 1.363 . S
C839 H810 0.950 . S
C839 C838 1.397 . S
C839 C840 1.334 . S
C840 H811 0.950 . S
C840 C839 1.334 . S
C840 C841 1.287 . S
C841 C840 1.287 . S
C841 C842 1.524 . S
C841 H844 0.999 . S
C842 H812 0.950 . S
C842 C841 1.524 . S
C842 C843 1.415 . S
C843 H813 0.950 . S
C843 C838 1.363 . S
C843 C842 1.415 . S
H844 C841 0.999 . S
H845 C826 0.913 . S
H846 C864 0.951 . S
H847 C866 0.951 . S
H848 C868 0.950 . S
H849 C869 0.950 . S
H850 C871 0.950 . S
H851 C874 0.950 . S
H852 C875 0.950 . S
H853 C877 0.950 . S
H854 C878 0.950 . S
H855 C879 0.951 . S
H856 C881 0.951 . S
H857 C883 0.950 . S
H858 C884 0.950 . S
H859 C886 0.950 . S
H860 C889 0.950 . S
H861 C890 0.950 . S
H862 C892 0.950 . S
H863 C893 0.950 . S
C864 H846 0.951 . S
C864 C865 1.366 . S
C864 C866 1.388 . S
C865 C864 1.366 . S
C865 C869 1.385 . S
C866 H847 0.951 . S
C866 C864 1.388 . S
C866 C867 1.366 . S
C867 C866 1.366 . S
C867 C868 1.414 . S
C867 C870 1.499 . S
C868 H848 0.950 . S
C868 C867 1.414 . S
C868 C869 1.374 . S
C869 H849 0.950 . S
C869 C865 1.385 . S
C869 C868 1.374 . S
C870 C867 1.499 . S
C870 C871 1.373 . S
C870 C872 1.389 . S
C871 H850 0.950 . S
C871 C870 1.373 . S
C871 C887 1.377 . S
C872 C870 1.389 . S
C872 C873 1.524 . S
C872 C886 1.377 . S
C873 C872 1.524 . S
C873 C874 1.397 . S
C873 C878 1.363 . S
C874 H851 0.950 . S
C874 C873 1.397 . S
C874 C875 1.334 . S
C875 H852 0.950 . S
C875 C874 1.334 . S
C875 C876 1.287 . S
C876 C875 1.287 . S
C876 C877 1.524 . S
C876 H895 0.913 . S
C877 H853 0.950 . S
C877 C876 1.524 . S
C877 C878 1.415 . S
C878 H854 0.950 . S
C878 C873 1.363 . S
C878 C877 1.415 . S
C879 H855 0.951 . S
C879 C880 1.366 . S
C879 C881 1.388 . S
C880 C879 1.366 . S
C880 C884 1.385 . S
C881 H856 0.951 . S
C881 C879 1.388 . S
C881 C882 1.366 . S
C882 C881 1.366 . S
C882 C883 1.414 . S
C882 C885 1.499 . S
C883 H857 0.950 . S
C883 C882 1.414 . S
C883 C884 1.374 . S
C884 H858 0.950 . S
C884 C880 1.385 . S
C884 C883 1.374 . S
C885 C882 1.499 . S
C885 C886 1.373 . S
C885 C887 1.389 . S
C886 H859 0.950 . S
C886 C872 1.377 . S
C886 C885 1.373 . S
C887 C871 1.377 . S
C887 C885 1.389 . S
C887 C888 1.524 . S
C888 C887 1.524 . S
C888 C889 1.397 . S
C888 C893 1.363 . S
C889 H860 0.950 . S
C889 C888 1.397 . S
C889 C890 1.334 . S
C890 H861 0.950 . S
C890 C889 1.334 . S
C890 C891 1.287 . S
C891 C890 1.287 . S
C891 C892 1.524 . S
C891 H894 0.999 . S
C892 H862 0.950 . S
C892 C891 1.524 . S
C892 C893 1.415 . S
C893 H863 0.950 . S
C893 C888 1.363 . S
C893 C892 1.415 . S
H894 C891 0.999 . S
H895 C876 0.913 . S
H896 C914 0.951 . S
H897 C916 0.951 . S
H898 C918 0.950 . S
H899 C919 0.950 . S
H900 C921 0.950 . S
H901 C924 0.950 . S
H902 C925 0.950 . S
H903 C927 0.950 . S
H904 C928 0.950 . S
H905 C929 0.951 . S
H906 C931 0.951 . S
H907 C933 0.950 . S
H908 C934 0.950 . S
H909 C936 0.950 . S
H910 C939 0.950 . S
H911 C940 0.950 . S
H912 C942 0.950 . S
H913 C943 0.950 . S
C914 H896 0.951 . S
C914 C915 1.366 . S
C914 C916 1.388 . S
C915 C914 1.366 . S
C915 C919 1.385 . S
C916 H897 0.951 . S
C916 C914 1.388 . S
C916 C917 1.366 . S
C917 C916 1.366 . S
C917 C918 1.414 . S
C917 C920 1.499 1_554 S
C918 H898 0.950 . S
C918 C917 1.414 . S
C918 C919 1.374 . S
C919 H899 0.950 . S
C919 C915 1.385 . S
C919 C918 1.374 . S
C920 C917 1.499 1_556 S
C920 C921 1.373 . S
C920 C922 1.389 . S
C921 H900 0.950 . S
C921 C920 1.373 . S
C921 C937 1.377 . S
C922 C920 1.389 . S
C922 C923 1.524 . S
C922 C936 1.377 . S
C923 C922 1.524 . S
C923 C924 1.397 1_556 S
C923 C928 1.363 . S
C924 H901 0.950 . S
C924 C923 1.397 1_554 S
C924 C925 1.334 . S
C925 H902 0.950 . S
C925 C924 1.334 . S
C925 C926 1.287 . S
C926 C925 1.287 . S
C926 C927 1.524 1_554 S
C926 H945 0.913 . S
C927 H903 0.950 . S
C927 C926 1.524 1_556 S
C927 C928 1.415 . S
C928 H904 0.950 . S
C928 C923 1.363 . S
C928 C927 1.415 . S
C929 H905 0.951 . S
C929 C930 1.366 . S
C929 C931 1.388 . S
C930 C929 1.366 . S
C930 C934 1.385 . S
C931 H906 0.951 . S
C931 C929 1.388 . S
C931 C932 1.366 . S
C932 C931 1.366 . S
C932 C933 1.414 . S
C932 C935 1.499 . S
C933 H907 0.950 . S
C933 C932 1.414 . S
C933 C934 1.374 . S
C934 H908 0.950 . S
C934 C930 1.385 . S
C934 C933 1.374 . S
C935 C932 1.499 . S
C935 C936 1.373 . S
C935 C937 1.389 . S
C936 H909 0.950 . S
C936 C922 1.377 . S
C936 C935 1.373 . S
C937 C921 1.377 . S
C937 C935 1.389 . S
C937 C938 1.524 . S
C938 C937 1.524 . S
C938 C939 1.397 . S
C938 C943 1.363 . S
C939 H910 0.950 . S
C939 C938 1.397 . S
C939 C940 1.334 . S
C940 H911 0.950 . S
C940 C939 1.334 . S
C940 C941 1.287 . S
C941 C940 1.287 . S
C941 C942 1.524 . S
C941 H944 0.999 . S
C942 H912 0.950 . S
C942 C941 1.524 . S
C942 C943 1.415 . S
C943 H913 0.950 . S
C943 C938 1.363 . S
C943 C942 1.415 . S
H944 C941 0.999 . S
H945 C926 0.913 . S
H946 C964 0.951 . S
H947 C966 0.951 . S
H948 C968 0.950 . S
H949 C969 0.950 . S
H950 C971 0.950 . S
H951 C974 0.950 . S
H952 C975 0.950 . S
H953 C977 0.950 . S
H954 C978 0.950 . S
H955 C979 0.951 . S
H956 C981 0.951 . S
H957 C983 0.950 . S
H958 C984 0.950 . S
H959 C986 0.950 . S
H960 C989 0.950 . S
H961 C990 0.950 . S
H962 C992 0.950 . S
H963 C993 0.950 . S
C964 H946 0.951 . S
C964 C965 1.366 . S
C964 C966 1.388 . S
C965 C964 1.366 . S
C965 C969 1.385 . S
C966 H947 0.951 . S
C966 C964 1.388 . S
C966 C967 1.366 . S
C967 C966 1.366 . S
C967 C968 1.414 . S
C967 C970 1.499 1_556 S
C968 H948 0.950 . S
C968 C967 1.414 . S
C968 C969 1.374 . S
C969 H949 0.950 . S
C969 C965 1.385 . S
C969 C968 1.374 . S
C970 C967 1.499 1_554 S
C970 C971 1.373 . S
C970 C972 1.389 . S
C971 H950 0.950 . S
C971 C970 1.373 . S
C971 C987 1.377 . S
C972 C970 1.389 . S
C972 C973 1.524 . S
C972 C986 1.377 . S
C973 C972 1.524 . S
C973 C974 1.397 1_554 S
C973 C978 1.363 . S
C974 H951 0.950 . S
C974 C973 1.397 1_556 S
C974 C975 1.334 . S
C975 H952 0.950 . S
C975 C974 1.334 . S
C975 C976 1.287 . S
C976 C975 1.287 . S
C976 C977 1.524 1_556 S
C976 H995 0.913 . S
C977 H953 0.950 . S
C977 C976 1.524 1_554 S
C977 C978 1.415 . S
C978 H954 0.950 . S
C978 C973 1.363 . S
C978 C977 1.415 . S
C979 H955 0.951 . S
C979 C980 1.366 . S
C979 C981 1.388 . S
C980 C979 1.366 . S
C980 C984 1.385 . S
C981 H956 0.951 . S
C981 C979 1.388 . S
C981 C982 1.366 . S
C982 C981 1.366 . S
C982 C983 1.414 . S
C982 C985 1.499 . S
C983 H957 0.950 . S
C983 C982 1.414 . S
C983 C984 1.374 . S
C984 H958 0.950 . S
C984 C980 1.385 . S
C984 C983 1.374 . S
C985 C982 1.499 . S
C985 C986 1.373 . S
C985 C987 1.389 . S
C986 H959 0.950 . S
C986 C972 1.377 . S
C986 C985 1.373 . S
C987 C971 1.377 . S
C987 C985 1.389 . S
C987 C988 1.524 . S
C988 C987 1.524 . S
C988 C989 1.397 . S
C988 C993 1.363 . S
C989 H960 0.950 . S
C989 C988 1.397 . S
C989 C990 1.334 . S
C990 H961 0.950 . S
C990 C989 1.334 . S
C990 C991 1.287 . S
C991 C990 1.287 . S
C991 C992 1.524 . S
C991 H994 0.999 . S
C992 H962 0.950 . S
C992 C991 1.524 . S
C992 C993 1.415 . S
C993 H963 0.950 . S
C993 C988 1.363 . S
C993 C992 1.415 . S
H994 C991 0.999 . S
H995 C976 0.913 . S
H996 C1014 0.951 . S
H997 C1016 0.951 . S
H998 C1018 0.950 . S
H999 C1019 0.950 . S
H1000 C1021 0.950 . S
H1001 C1024 0.950 . S
H1002 C1025 0.950 . S
H1003 C1027 0.950 . S
H1004 C1028 0.950 . S
H1005 C1029 0.951 . S
H1006 C1031 0.951 . S
H1007 C1033 0.950 . S
H1008 C1034 0.950 . S
H1009 C1036 0.950 . S
H1010 C1039 0.950 . S
H1011 C1040 0.950 . S
H1012 C1042 0.950 . S
H1013 C1043 0.950 . S
C1014 H996 0.951 . S
C1014 C1015 1.366 . S
C1014 C1016 1.388 . S
C1015 C1014 1.366 . S
C1015 C1019 1.385 . S
C1016 H997 0.951 . S
C1016 C1014 1.388 . S
C1016 C1017 1.366 . S
C1017 C1016 1.366 . S
C1017 C1018 1.414 . S
C1017 C1020 1.499 . S
C1018 H998 0.950 . S
C1018 C1017 1.414 . S
C1018 C1019 1.374 . S
C1019 H999 0.950 . S
C1019 C1015 1.385 . S
C1019 C1018 1.374 . S
C1020 C1017 1.499 . S
C1020 C1021 1.373 . S
C1020 C1022 1.389 . S
C1021 H1000 0.950 . S
C1021 C1020 1.373 . S
C1021 C1037 1.377 . S
C1022 C1020 1.389 . S
C1022 C1023 1.524 . S
C1022 C1036 1.377 . S
C1023 C1022 1.524 . S
C1023 C1024 1.397 . S
C1023 C1028 1.363 . S
C1024 H1001 0.950 . S
C1024 C1023 1.397 . S
C1024 C1025 1.334 . S
C1025 H1002 0.950 . S
C1025 C1024 1.334 . S
C1025 C1026 1.287 . S
C1026 C1025 1.287 . S
C1026 C1027 1.524 . S
C1026 H1045 0.913 . S
C1027 H1003 0.950 . S
C1027 C1026 1.524 . S
C1027 C1028 1.415 . S
C1028 H1004 0.950 . S
C1028 C1023 1.363 . S
C1028 C1027 1.415 . S
C1029 H1005 0.951 . S
C1029 C1030 1.366 . S
C1029 C1031 1.388 . S
C1030 C1029 1.366 . S
C1030 C1034 1.385 1_554 S
C1031 H1006 0.951 . S
C1031 C1029 1.388 . S
C1031 C1032 1.366 1_554 S
C1032 C1031 1.366 1_556 S
C1032 C1033 1.414 . S
C1032 C1035 1.499 . S
C1033 H1007 0.950 . S
C1033 C1032 1.414 . S
C1033 C1034 1.374 . S
C1034 H1008 0.950 . S
C1034 C1030 1.385 1_556 S
C1034 C1033 1.374 . S
C1035 C1032 1.499 . S
C1035 C1036 1.373 . S
C1035 C1037 1.389 . S
C1036 H1009 0.950 . S
C1036 C1022 1.377 . S
C1036 C1035 1.373 . S
C1037 C1021 1.377 . S
C1037 C1035 1.389 . S
C1037 C1038 1.524 1_556 S
C1038 C1037 1.524 1_554 S
C1038 C1039 1.397 . S
C1038 C1043 1.363 . S
C1039 H1010 0.950 . S
C1039 C1038 1.397 . S
C1039 C1040 1.334 . S
C1040 H1011 0.950 . S
C1040 C1039 1.334 . S
C1040 C1041 1.287 . S
C1041 C1040 1.287 . S
C1041 C1042 1.524 . S
C1041 H1044 0.999 . S
C1042 H1012 0.950 . S
C1042 C1041 1.524 . S
C1042 C1043 1.415 . S
C1043 H1013 0.950 . S
C1043 C1038 1.363 . S
C1043 C1042 1.415 . S
H1044 C1041 0.999 . S
H1045 C1026 0.913 . S
H1046 C1064 0.951 . S
H1047 C1066 0.951 . S
H1048 C1068 0.950 . S
H1049 C1069 0.950 . S
H1050 C1071 0.950 . S
H1051 C1074 0.950 . S
H1052 C1075 0.950 . S
H1053 C1077 0.950 . S
H1054 C1078 0.950 . S
H1055 C1079 0.951 . S
H1056 C1081 0.951 . S
H1057 C1083 0.951 . S
H1058 C1084 0.950 . S
H1059 C1086 0.950 . S
H1060 C1089 0.950 . S
H1061 C1090 0.950 . S
H1062 C1092 0.950 . S
H1063 C1093 0.950 . S
C1064 H1046 0.951 . S
C1064 C1065 1.366 . S
C1064 C1066 1.388 . S
C1065 C1064 1.366 . S
C1065 C1069 1.385 . S
C1066 H1047 0.951 . S
C1066 C1064 1.388 . S
C1066 C1067 1.366 . S
C1067 C1066 1.366 . S
C1067 C1068 1.414 . S
C1067 C1070 1.499 . S
C1068 H1048 0.950 . S
C1068 C1067 1.414 . S
C1068 C1069 1.374 . S
C1069 H1049 0.950 . S
C1069 C1065 1.385 . S
C1069 C1068 1.374 . S
C1070 C1067 1.499 . S
C1070 C1071 1.373 . S
C1070 C1072 1.389 . S
C1071 H1050 0.950 . S
C1071 C1070 1.373 . S
C1071 C1087 1.377 . S
C1072 C1070 1.389 . S
C1072 C1073 1.524 . S
C1072 C1086 1.377 . S
C1073 C1072 1.524 . S
C1073 C1074 1.397 . S
C1073 C1078 1.363 . S
C1074 H1051 0.950 . S
C1074 C1073 1.397 . S
C1074 C1075 1.334 . S
C1075 H1052 0.950 . S
C1075 C1074 1.334 . S
C1075 C1076 1.287 . S
C1076 C1075 1.287 . S
C1076 C1077 1.524 . S
C1076 H1095 0.913 . S
C1077 H1053 0.950 . S
C1077 C1076 1.524 . S
C1077 C1078 1.415 . S
C1078 H1054 0.950 . S
C1078 C1073 1.363 . S
C1078 C1077 1.415 . S
C1079 H1055 0.951 . S
C1079 C1080 1.366 . S
C1079 C1081 1.388 1_556 S
C1080 C1079 1.366 . S
C1080 C1084 1.385 . S
C1081 H1056 0.951 . S
C1081 C1079 1.388 1_554 S
C1081 C1082 1.366 . S
C1082 C1081 1.366 . S
C1082 C1083 1.415 . S
C1082 C1085 1.499 . S
C1083 H1057 0.951 . S
C1083 C1082 1.415 . S
C1083 C1084 1.373 1_554 S
C1084 H1058 0.950 . S
C1084 C1080 1.385 . S
C1084 C1083 1.373 1_556 S
C1085 C1082 1.499 . S
C1085 C1086 1.373 . S
C1085 C1087 1.389 . S
C1086 H1059 0.950 . S
C1086 C1072 1.377 . S
C1086 C1085 1.373 . S
C1087 C1071 1.377 . S
C1087 C1085 1.389 . S
C1087 C1088 1.524 1_554 S
C1088 C1087 1.524 1_556 S
C1088 C1089 1.397 . S
C1088 C1093 1.363 1_556 S
C1089 H1060 0.950 . S
C1089 C1088 1.397 . S
C1089 C1090 1.334 . S
C1090 H1061 0.950 . S
C1090 C1089 1.334 . S
C1090 C1091 1.287 . S
C1091 C1090 1.287 . S
C1091 C1092 1.524 . S
C1091 H1094 0.999 . S
C1092 H1062 0.950 . S
C1092 C1091 1.524 . S
C1092 C1093 1.415 1_556 S
C1093 H1063 0.950 . S
C1093 C1088 1.363 1_554 S
C1093 C1092 1.415 1_554 S
H1094 C1091 0.999 . S
H1095 C1076 0.913 . S
H1096 C1114 0.951 . S
H1097 C1116 0.951 . S
H1098 C1118 0.950 . S
H1099 C1119 0.950 . S
H1100 C1121 0.950 . S
H1101 C1124 0.950 . S
H1102 C1125 0.950 . S
H1103 C1127 0.950 . S
H1104 C1128 0.950 . S
H1105 C1129 0.951 . S
H1106 C1131 0.951 . S
H1107 C1133 0.950 . S
H1108 C1134 0.950 . S
H1109 C1136 0.950 . S
H1110 C1139 0.950 . S
H1111 C1140 0.950 . S
H1112 C1142 0.950 . S
H1113 C1143 0.950 . S
C1114 H1096 0.951 . S
C1114 C1115 1.366 . S
C1114 C1116 1.388 . S
C1115 C1114 1.366 . S
C1115 C1119 1.385 . S
C1116 H1097 0.951 . S
C1116 C1114 1.388 . S
C1116 C1117 1.366 . S
C1117 C1116 1.366 . S
C1117 C1118 1.414 . S
C1117 C1120 1.499 . S
C1118 H1098 0.950 . S
C1118 C1117 1.414 . S
C1118 C1119 1.374 . S
C1119 H1099 0.950 . S
C1119 C1115 1.385 . S
C1119 C1118 1.374 . S
C1120 C1117 1.499 . S
C1120 C1121 1.373 . S
C1120 C1122 1.389 . S
C1121 H1100 0.950 . S
C1121 C1120 1.373 . S
C1121 C1137 1.377 . S
C1122 C1120 1.389 . S
C1122 C1123 1.524 . S
C1122 C1136 1.377 . S
C1123 C1122 1.524 . S
C1123 C1124 1.397 . S
C1123 C1128 1.363 . S
C1124 H1101 0.950 . S
C1124 C1123 1.397 . S
C1124 C1125 1.334 . S
C1125 H1102 0.950 . S
C1125 C1124 1.334 . S
C1125 C1126 1.287 . S
C1126 C1125 1.287 . S
C1126 C1127 1.524 . S
C1126 H1145 0.913 . S
C1127 H1103 0.950 . S
C1127 C1126 1.524 . S
C1127 C1128 1.415 . S
C1128 H1104 0.950 . S
C1128 C1123 1.363 . S
C1128 C1127 1.415 . S
C1129 H1105 0.951 . S
C1129 C1130 1.366 . S
C1129 C1131 1.388 . S
C1130 C1129 1.366 . S
C1130 C1134 1.385 . S
C1131 H1106 0.951 . S
C1131 C1129 1.388 . S
C1131 C1132 1.366 . S
C1132 C1131 1.366 . S
C1132 C1133 1.414 . S
C1132 C1135 1.499 . S
C1133 H1107 0.950 . S
C1133 C1132 1.414 . S
C1133 C1134 1.374 . S
C1134 H1108 0.950 . S
C1134 C1130 1.385 . S
C1134 C1133 1.374 . S
C1135 C1132 1.499 . S
C1135 C1136 1.373 . S
C1135 C1137 1.389 . S
C1136 H1109 0.950 . S
C1136 C1122 1.377 . S
C1136 C1135 1.373 . S
C1137 C1121 1.377 . S
C1137 C1135 1.389 . S
C1137 C1138 1.524 . S
C1138 C1137 1.524 . S
C1138 C1139 1.397 . S
C1138 C1143 1.363 . S
C1139 H1110 0.950 . S
C1139 C1138 1.397 . S
C1139 C1140 1.334 . S
C1140 H1111 0.950 . S
C1140 C1139 1.334 . S
C1140 C1141 1.287 . S
C1141 C1140 1.287 . S
C1141 C1142 1.524 . S
C1141 H1144 0.999 . S
C1142 H1112 0.950 . S
C1142 C1141 1.524 . S
C1142 C1143 1.415 . S
C1143 H1113 0.950 . S
C1143 C1138 1.363 . S
C1143 C1142 1.415 . S
H1144 C1141 0.999 . S
H1145 C1126 0.913 . S
H1146 C1164 0.951 . S
H1147 C1166 0.951 . S
H1148 C1168 0.950 . S
H1149 C1169 0.950 . S
H1150 C1171 0.950 . S
H1151 C1174 0.950 . S
H1152 C1175 0.950 . S
H1153 C1177 0.950 . S
H1154 C1178 0.950 . S
H1155 C1179 0.951 . S
H1156 C1181 0.951 . S
H1157 C1183 0.950 . S
H1158 C1184 0.950 . S
H1159 C1186 0.950 . S
H1160 C1189 0.950 . S
H1161 C1190 0.950 . S
H1162 C1192 0.950 . S
H1163 C1193 0.950 . S
C1164 H1146 0.951 . S
C1164 C1165 1.366 . S
C1164 C1166 1.388 . S
C1165 C1164 1.366 . S
C1165 C1169 1.385 . S
C1166 H1147 0.951 . S
C1166 C1164 1.388 . S
C1166 C1167 1.366 . S
C1167 C1166 1.366 . S
C1167 C1168 1.414 . S
C1167 C1170 1.499 . S
C1168 H1148 0.950 . S
C1168 C1167 1.414 . S
C1168 C1169 1.374 . S
C1169 H1149 0.950 . S
C1169 C1165 1.385 . S
C1169 C1168 1.374 . S
C1170 C1167 1.499 . S
C1170 C1171 1.373 . S
C1170 C1172 1.389 . S
C1171 H1150 0.950 . S
C1171 C1170 1.373 . S
C1171 C1187 1.377 . S
C1172 C1170 1.389 . S
C1172 C1173 1.524 . S
C1172 C1186 1.377 . S
C1173 C1172 1.524 . S
C1173 C1174 1.397 . S
C1173 C1178 1.363 . S
C1174 H1151 0.950 . S
C1174 C1173 1.397 . S
C1174 C1175 1.334 . S
C1175 H1152 0.950 . S
C1175 C1174 1.334 . S
C1175 C1176 1.287 . S
C1176 C1175 1.287 . S
C1176 C1177 1.524 . S
C1176 H1195 0.913 . S
C1177 H1153 0.950 . S
C1177 C1176 1.524 . S
C1177 C1178 1.415 . S
C1178 H1154 0.950 . S
C1178 C1173 1.363 . S
C1178 C1177 1.415 . S
C1179 H1155 0.951 . S
C1179 C1180 1.366 . S
C1179 C1181 1.388 . S
C1180 C1179 1.366 . S
C1180 C1184 1.385 . S
C1181 H1156 0.951 . S
C1181 C1179 1.388 . S
C1181 C1182 1.366 . S
C1182 C1181 1.366 . S
C1182 C1183 1.414 . S
C1182 C1185 1.499 . S
C1183 H1157 0.950 . S
C1183 C1182 1.414 . S
C1183 C1184 1.374 . S
C1184 H1158 0.950 . S
C1184 C1180 1.385 . S
C1184 C1183 1.374 . S
C1185 C1182 1.499 . S
C1185 C1186 1.373 . S
C1185 C1187 1.389 . S
C1186 H1159 0.950 . S
C1186 C1172 1.377 . S
C1186 C1185 1.373 . S
C1187 C1171 1.377 . S
C1187 C1185 1.389 . S
C1187 C1188 1.524 . S
C1188 C1187 1.524 . S
C1188 C1189 1.397 . S
C1188 C1193 1.363 . S
C1189 H1160 0.950 . S
C1189 C1188 1.397 . S
C1189 C1190 1.334 . S
C1190 H1161 0.950 . S
C1190 C1189 1.334 . S
C1190 C1191 1.287 . S
C1191 C1190 1.287 . S
C1191 C1192 1.524 . S
C1191 H1194 0.999 . S
C1192 H1162 0.950 . S
C1192 C1191 1.524 . S
C1192 C1193 1.415 . S
C1193 H1163 0.950 . S
C1193 C1188 1.363 . S
C1193 C1192 1.415 . S
H1194 C1191 0.999 . S
H1195 C1176 0.913 . S
H1196 C1214 0.951 . S
H1197 C1216 0.951 . S
H1198 C1218 0.950 . S
H1199 C1219 0.950 . S
H1200 C1221 0.950 . S
H1201 C1224 0.950 . S
H1202 C1225 0.950 . S
H1203 C1227 0.950 . S
H1204 C1228 0.950 . S
H1205 C1229 0.951 . S
H1206 C1231 0.951 . S
H1207 C1233 0.950 . S
H1208 C1234 0.950 . S
H1209 C1236 0.950 . S
H1210 C1239 0.950 . S
H1211 C1240 0.950 . S
H1212 C1242 0.950 . S
H1213 C1243 0.950 . S
C1214 H1196 0.951 . S
C1214 C1215 1.366 . S
C1214 C1216 1.388 . S
C1215 C1214 1.366 . S
C1215 C1219 1.385 . S
C1216 H1197 0.951 . S
C1216 C1214 1.388 . S
C1216 C1217 1.366 . S
C1217 C1216 1.366 . S
C1217 C1218 1.414 . S
C1217 C1220 1.499 . S
C1218 H1198 0.950 . S
C1218 C1217 1.414 . S
C1218 C1219 1.374 . S
C1219 H1199 0.950 . S
C1219 C1215 1.385 . S
C1219 C1218 1.374 . S
C1220 C1217 1.499 . S
C1220 C1221 1.373 . S
C1220 C1222 1.389 . S
C1221 H1200 0.950 . S
C1221 C1220 1.373 . S
C1221 C1237 1.377 . S
C1222 C1220 1.389 . S
C1222 C1223 1.524 . S
C1222 C1236 1.377 . S
C1223 C1222 1.524 . S
C1223 C1224 1.397 . S
C1223 C1228 1.363 . S
C1224 H1201 0.950 . S
C1224 C1223 1.397 . S
C1224 C1225 1.334 . S
C1225 H1202 0.950 . S
C1225 C1224 1.334 . S
C1225 C1226 1.287 . S
C1226 C1225 1.287 . S
C1226 C1227 1.524 . S
C1226 H1245 0.913 . S
C1227 H1203 0.950 . S
C1227 C1226 1.524 . S
C1227 C1228 1.415 . S
C1228 H1204 0.950 . S
C1228 C1223 1.363 . S
C1228 C1227 1.415 . S
C1229 H1205 0.951 . S
C1229 C1230 1.366 . S
C1229 C1231 1.388 . S
C1230 C1229 1.366 . S
C1230 C1234 1.385 . S
C1231 H1206 0.951 . S
C1231 C1229 1.388 . S
C1231 C1232 1.366 . S
C1232 C1231 1.366 . S
C1232 C1233 1.414 . S
C1232 C1235 1.499 . S
C1233 H1207 0.950 . S
C1233 C1232 1.414 . S
C1233 C1234 1.374 . S
C1234 H1208 0.950 . S
C1234 C1230 1.385 . S
C1234 C1233 1.374 . S
C1235 C1232 1.499 . S
C1235 C1236 1.373 . S
C1235 C1237 1.389 . S
C1236 H1209 0.950 . S
C1236 C1222 1.377 . S
C1236 C1235 1.373 . S
C1237 C1221 1.377 . S
C1237 C1235 1.389 . S
C1237 C1238 1.524 . S
C1238 C1237 1.524 . S
C1238 C1239 1.397 . S
C1238 C1243 1.363 . S
C1239 H1210 0.950 . S
C1239 C1238 1.397 . S
C1239 C1240 1.334 . S
C1240 H1211 0.950 . S
C1240 C1239 1.334 . S
C1240 C1241 1.287 . S
C1241 C1240 1.287 . S
C1241 C1242 1.524 . S
C1241 H1244 0.999 . S
C1242 H1212 0.950 . S
C1242 C1241 1.524 . S
C1242 C1243 1.415 . S
C1243 H1213 0.950 . S
C1243 C1238 1.363 . S
C1243 C1242 1.415 . S
H1244 C1241 0.999 . S
H1245 C1226 0.913 . S
H1246 C1264 0.951 . S
H1247 C1266 0.951 . S
H1248 C1268 0.950 . S
H1249 C1269 0.950 . S
H1250 C1271 0.950 . S
H1251 C1274 0.950 . S
H1252 C1275 0.950 . S
H1253 C1277 0.950 . S
H1254 C1278 0.950 . S
H1255 C1279 0.951 . S
H1256 C1281 0.951 . S
H1257 C1283 0.950 . S
H1258 C1284 0.950 . S
H1259 C1286 0.950 . S
H1260 C1289 0.950 . S
H1261 C1290 0.950 . S
H1262 C1292 0.950 . S
H1263 C1293 0.950 . S
C1264 H1246 0.951 . S
C1264 C1265 1.366 . S
C1264 C1266 1.388 . S
C1265 C1264 1.366 . S
C1265 C1269 1.385 . S
C1266 H1247 0.951 . S
C1266 C1264 1.388 . S
C1266 C1267 1.366 . S
C1267 C1266 1.366 . S
C1267 C1268 1.414 . S
C1267 C1270 1.499 . S
C1268 H1248 0.950 . S
C1268 C1267 1.414 . S
C1268 C1269 1.374 . S
C1269 H1249 0.950 . S
C1269 C1265 1.385 . S
C1269 C1268 1.374 . S
C1270 C1267 1.499 . S
C1270 C1271 1.373 . S
C1270 C1272 1.389 . S
C1271 H1250 0.950 . S
C1271 C1270 1.373 . S
C1271 C1287 1.377 . S
C1272 C1270 1.389 . S
C1272 C1273 1.524 . S
C1272 C1286 1.377 . S
C1273 C1272 1.524 . S
C1273 C1274 1.397 . S
C1273 C1278 1.363 . S
C1274 H1251 0.950 . S
C1274 C1273 1.397 . S
C1274 C1275 1.334 . S
C1275 H1252 0.950 . S
C1275 C1274 1.334 . S
C1275 C1276 1.287 . S
C1276 C1275 1.287 . S
C1276 C1277 1.524 . S
C1276 H1295 0.913 . S
C1277 H1253 0.950 . S
C1277 C1276 1.524 . S
C1277 C1278 1.415 . S
C1278 H1254 0.950 . S
C1278 C1273 1.363 . S
C1278 C1277 1.415 . S
C1279 H1255 0.951 . S
C1279 C1280 1.366 . S
C1279 C1281 1.388 . S
C1280 C1279 1.366 . S
C1280 C1284 1.385 . S
C1281 H1256 0.951 . S
C1281 C1279 1.388 . S
C1281 C1282 1.366 . S
C1282 C1281 1.366 . S
C1282 C1283 1.414 . S
C1282 C1285 1.499 . S
C1283 H1257 0.950 . S
C1283 C1282 1.414 . S
C1283 C1284 1.374 . S
C1284 H1258 0.950 . S
C1284 C1280 1.385 . S
C1284 C1283 1.374 . S
C1285 C1282 1.499 . S
C1285 C1286 1.373 . S
C1285 C1287 1.389 . S
C1286 H1259 0.950 . S
C1286 C1272 1.377 . S
C1286 C1285 1.373 . S
C1287 C1271 1.377 . S
C1287 C1285 1.389 . S
C1287 C1288 1.524 . S
C1288 C1287 1.524 . S
C1288 C1289 1.397 . S
C1288 C1293 1.363 . S
C1289 H1260 0.950 . S
C1289 C1288 1.397 . S
C1289 C1290 1.334 . S
C1290 H1261 0.950 . S
C1290 C1289 1.334 . S
C1290 C1291 1.287 . S
C1291 C1290 1.287 . S
C1291 C1292 1.524 . S
C1291 H1294 0.999 . S
C1292 H1262 0.950 . S
C1292 C1291 1.524 . S
C1292 C1293 1.415 . S
C1293 H1263 0.950 . S
C1293 C1288 1.363 . S
C1293 C1292 1.415 . S
H1294 C1291 0.999 . S
H1295 C1276 0.913 . S
H1296 C1314 0.951 . S
H1297 C1316 0.951 . S
H1298 C1318 0.950 . S
H1299 C1319 0.950 . S
H1300 C1321 0.950 . S
H1301 C1324 0.950 . S
H1302 C1325 0.950 . S
H1303 C1327 0.950 . S
H1304 C1328 0.950 . S
H1305 C1329 0.951 . S
H1306 C1331 0.951 . S
H1307 C1333 0.950 . S
H1308 C1334 0.950 . S
H1309 C1336 0.950 . S
H1310 C1339 0.950 . S
H1311 C1340 0.950 . S
H1312 C1342 0.950 . S
H1313 C1343 0.950 . S
C1314 H1296 0.951 . S
C1314 C1315 1.366 . S
C1314 C1316 1.388 . S
C1315 C1314 1.366 . S
C1315 C1319 1.385 . S
C1316 H1297 0.951 . S
C1316 C1314 1.388 . S
C1316 C1317 1.366 . S
C1317 C1316 1.366 . S
C1317 C1318 1.414 . S
C1317 C1320 1.499 . S
C1318 H1298 0.950 . S
C1318 C1317 1.414 . S
C1318 C1319 1.374 . S
C1319 H1299 0.950 . S
C1319 C1315 1.385 . S
C1319 C1318 1.374 . S
C1320 C1317 1.499 . S
C1320 C1321 1.373 . S
C1320 C1322 1.389 . S
C1321 H1300 0.950 . S
C1321 C1320 1.373 . S
C1321 C1337 1.377 . S
C1322 C1320 1.389 . S
C1322 C1323 1.524 . S
C1322 C1336 1.377 . S
C1323 C1322 1.524 . S
C1323 C1324 1.397 . S
C1323 C1328 1.363 . S
C1324 H1301 0.950 . S
C1324 C1323 1.397 . S
C1324 C1325 1.334 . S
C1325 H1302 0.950 . S
C1325 C1324 1.334 . S
C1325 C1326 1.287 . S
C1326 C1325 1.287 . S
C1326 C1327 1.524 . S
C1326 H1345 0.913 . S
C1327 H1303 0.950 . S
C1327 C1326 1.524 . S
C1327 C1328 1.415 . S
C1328 H1304 0.950 . S
C1328 C1323 1.363 . S
C1328 C1327 1.415 . S
C1329 H1305 0.951 . S
C1329 C1330 1.366 . S
C1329 C1331 1.388 . S
C1330 C1329 1.366 . S
C1330 C1334 1.385 . S
C1331 H1306 0.951 . S
C1331 C1329 1.388 . S
C1331 C1332 1.366 . S
C1332 C1331 1.366 . S
C1332 C1333 1.414 . S
C1332 C1335 1.499 . S
C1333 H1307 0.950 . S
C1333 C1332 1.414 . S
C1333 C1334 1.374 . S
C1334 H1308 0.950 . S
C1334 C1330 1.385 . S
C1334 C1333 1.374 . S
C1335 C1332 1.499 . S
C1335 C1336 1.373 . S
C1335 C1337 1.389 . S
C1336 H1309 0.950 . S
C1336 C1322 1.377 . S
C1336 C1335 1.373 . S
C1337 C1321 1.377 . S
C1337 C1335 1.389 . S
C1337 C1338 1.524 . S
C1338 C1337 1.524 . S
C1338 C1339 1.397 . S
C1338 C1343 1.363 . S
C1339 H1310 0.950 . S
C1339 C1338 1.397 . S
C1339 C1340 1.334 . S
C1340 H1311 0.950 . S
C1340 C1339 1.334 . S
C1340 C1341 1.287 . S
C1341 C1340 1.287 . S
C1341 C1342 1.524 . S
C1341 H1344 0.999 . S
C1342 H1312 0.950 . S
C1342 C1341 1.524 . S
C1342 C1343 1.415 . S
C1343 H1313 0.950 . S
C1343 C1338 1.363 . S
C1343 C1342 1.415 . S
H1344 C1341 0.999 . S
H1345 C1326 0.913 . S
H1346 C1364 0.951 . S
H1347 C1366 0.951 . S
H1348 C1368 0.950 . S
H1349 C1369 0.950 . S
H1350 C1371 0.950 . S
H1351 C1374 0.950 . S
H1352 C1375 0.950 . S
H1353 C1377 0.950 . S
H1354 C1378 0.950 . S
H1355 C1379 0.951 . S
H1356 C1381 0.951 . S
H1357 C1383 0.950 . S
H1358 C1384 0.950 . S
H1359 C1386 0.950 . S
H1360 C1389 0.950 . S
H1361 C1390 0.950 . S
H1362 C1392 0.950 . S
H1363 C1393 0.950 . S
C1364 H1346 0.951 . S
C1364 C1365 1.366 . S
C1364 C1366 1.388 . S
C1365 C1364 1.366 . S
C1365 C1369 1.385 . S
C1366 H1347 0.951 . S
C1366 C1364 1.388 . S
C1366 C1367 1.366 . S
C1367 C1366 1.366 . S
C1367 C1368 1.414 . S
C1367 C1370 1.499 . S
C1368 H1348 0.950 . S
C1368 C1367 1.414 . S
C1368 C1369 1.374 . S
C1369 H1349 0.950 . S
C1369 C1365 1.385 . S
C1369 C1368 1.374 . S
C1370 C1367 1.499 . S
C1370 C1371 1.373 . S
C1370 C1372 1.389 . S
C1371 H1350 0.950 . S
C1371 C1370 1.373 . S
C1371 C1387 1.377 . S
C1372 C1370 1.389 . S
C1372 C1373 1.524 . S
C1372 C1386 1.377 . S
C1373 C1372 1.524 . S
C1373 C1374 1.397 . S
C1373 C1378 1.363 . S
C1374 H1351 0.950 . S
C1374 C1373 1.397 . S
C1374 C1375 1.334 . S
C1375 H1352 0.950 . S
C1375 C1374 1.334 . S
C1375 C1376 1.287 . S
C1376 C1375 1.287 . S
C1376 C1377 1.524 . S
C1376 H1395 0.913 . S
C1377 H1353 0.950 . S
C1377 C1376 1.524 . S
C1377 C1378 1.415 . S
C1378 H1354 0.950 . S
C1378 C1373 1.363 . S
C1378 C1377 1.415 . S
C1379 H1355 0.951 . S
C1379 C1380 1.366 . S
C1379 C1381 1.388 . S
C1380 C1379 1.366 . S
C1380 C1384 1.385 . S
C1381 H1356 0.951 . S
C1381 C1379 1.388 . S
C1381 C1382 1.366 . S
C1382 C1381 1.366 . S
C1382 C1383 1.414 . S
C1382 C1385 1.499 . S
C1383 H1357 0.950 . S
C1383 C1382 1.414 . S
C1383 C1384 1.374 . S
C1384 H1358 0.950 . S
C1384 C1380 1.385 . S
C1384 C1383 1.374 . S
C1385 C1382 1.499 . S
C1385 C1386 1.373 . S
C1385 C1387 1.389 . S
C1386 H1359 0.950 . S
C1386 C1372 1.377 . S
C1386 C1385 1.373 . S
C1387 C1371 1.377 . S
C1387 C1385 1.389 . S
C1387 C1388 1.524 . S
C1388 C1387 1.524 . S
C1388 C1389 1.397 . S
C1388 C1393 1.363 . S
C1389 H1360 0.950 . S
C1389 C1388 1.397 . S
C1389 C1390 1.334 . S
C1390 H1361 0.950 . S
C1390 C1389 1.334 . S
C1390 C1391 1.287 . S
C1391 C1390 1.287 . S
C1391 C1392 1.524 . S
C1391 H1394 0.999 . S
C1392 H1362 0.950 . S
C1392 C1391 1.524 . S
C1392 C1393 1.415 . S
C1393 H1363 0.950 . S
C1393 C1388 1.363 . S
C1393 C1392 1.415 . S
H1394 C1391 0.999 . S
H1395 C1376 0.913 . S
H1396 C1414 0.951 . S
H1397 C1416 0.951 . S
H1398 C1418 0.950 . S
H1399 C1419 0.950 . S
H1400 C1421 0.950 . S
H1401 C1424 0.950 . S
H1402 C1425 0.950 . S
H1403 C1427 0.950 . S
H1404 C1428 0.950 . S
H1405 C1429 0.951 . S
H1406 C1431 0.951 . S
H1407 C1433 0.950 . S
H1408 C1434 0.950 . S
H1409 C1436 0.950 . S
H1410 C1439 0.950 . S
H1411 C1440 0.950 . S
H1412 C1442 0.950 . S
H1413 C1443 0.950 . S
C1414 H1396 0.951 . S
C1414 C1415 1.366 . S
C1414 C1416 1.388 . S
C1415 C1414 1.366 . S
C1415 C1419 1.385 . S
C1416 H1397 0.951 . S
C1416 C1414 1.388 . S
C1416 C1417 1.366 . S
C1417 C1416 1.366 . S
C1417 C1418 1.414 . S
C1417 C1420 1.499 . S
C1418 H1398 0.950 . S
C1418 C1417 1.414 . S
C1418 C1419 1.374 . S
C1419 H1399 0.950 . S
C1419 C1415 1.385 . S
C1419 C1418 1.374 . S
C1420 C1417 1.499 . S
C1420 C1421 1.373 . S
C1420 C1422 1.389 . S
C1421 H1400 0.950 . S
C1421 C1420 1.373 . S
C1421 C1437 1.377 . S
C1422 C1420 1.389 . S
C1422 C1423 1.524 . S
C1422 C1436 1.377 . S
C1423 C1422 1.524 . S
C1423 C1424 1.397 . S
C1423 C1428 1.363 . S
C1424 H1401 0.950 . S
C1424 C1423 1.397 . S
C1424 C1425 1.334 . S
C1425 H1402 0.950 . S
C1425 C1424 1.334 . S
C1425 C1426 1.287 . S
C1426 C1425 1.287 . S
C1426 C1427 1.524 . S
C1426 H1445 0.913 . S
C1427 H1403 0.950 . S
C1427 C1426 1.524 . S
C1427 C1428 1.415 . S
C1428 H1404 0.950 . S
C1428 C1423 1.363 . S
C1428 C1427 1.415 . S
C1429 H1405 0.951 . S
C1429 C1430 1.366 . S
C1429 C1431 1.388 . S
C1430 C1429 1.366 . S
C1430 C1434 1.385 . S
C1431 H1406 0.951 . S
C1431 C1429 1.388 . S
C1431 C1432 1.366 . S
C1432 C1431 1.366 . S
C1432 C1433 1.414 . S
C1432 C1435 1.499 . S
C1433 H1407 0.950 . S
C1433 C1432 1.414 . S
C1433 C1434 1.374 . S
C1434 H1408 0.950 . S
C1434 C1430 1.385 . S
C1434 C1433 1.374 . S
C1435 C1432 1.499 . S
C1435 C1436 1.373 . S
C1435 C1437 1.389 . S
C1436 H1409 0.950 . S
C1436 C1422 1.377 . S
C1436 C1435 1.373 . S
C1437 C1421 1.377 . S
C1437 C1435 1.389 . S
C1437 C1438 1.524 . S
C1438 C1437 1.524 . S
C1438 C1439 1.397 . S
C1438 C1443 1.363 . S
C1439 H1410 0.950 . S
C1439 C1438 1.397 . S
C1439 C1440 1.334 . S
C1440 H1411 0.950 . S
C1440 C1439 1.334 . S
C1440 C1441 1.287 . S
C1441 C1440 1.287 . S
C1441 C1442 1.524 . S
C1441 H1444 0.999 . S
C1442 H1412 0.950 . S
C1442 C1441 1.524 . S
C1442 C1443 1.415 . S
C1443 H1413 0.950 . S
C1443 C1438 1.363 . S
C1443 C1442 1.415 . S
H1444 C1441 0.999 . S
H1445 C1426 0.913 . S
H1446 C1464 0.951 . S
H1447 C1466 0.951 . S
H1448 C1468 0.950 . S
H1449 C1469 0.950 . S
H1450 C1471 0.950 . S
H1451 C1474 0.950 . S
H1452 C1475 0.950 . S
H1453 C1477 0.950 . S
H1454 C1478 0.950 . S
H1455 C1479 0.951 . S
H1456 C1481 0.951 . S
H1457 C1483 0.950 . S
H1458 C1484 0.950 . S
H1459 C1486 0.950 . S
H1460 C1489 0.950 . S
H1461 C1490 0.950 . S
H1462 C1492 0.950 . S
H1463 C1493 0.950 . S
C1464 H1446 0.951 . S
C1464 C1465 1.366 . S
C1464 C1466 1.388 . S
C1465 C1464 1.366 . S
C1465 C1469 1.385 . S
C1466 H1447 0.951 . S
C1466 C1464 1.388 . S
C1466 C1467 1.366 . S
C1467 C1466 1.366 . S
C1467 C1468 1.414 . S
C1467 C1470 1.499 . S
C1468 H1448 0.950 . S
C1468 C1467 1.414 . S
C1468 C1469 1.374 . S
C1469 H1449 0.950 . S
C1469 C1465 1.385 . S
C1469 C1468 1.374 . S
C1470 C1467 1.499 . S
C1470 C1471 1.373 . S
C1470 C1472 1.389 . S
C1471 H1450 0.950 . S
C1471 C1470 1.373 . S
C1471 C1487 1.377 . S
C1472 C1470 1.389 . S
C1472 C1473 1.524 . S
C1472 C1486 1.377 . S
C1473 C1472 1.524 . S
C1473 C1474 1.397 . S
C1473 C1478 1.363 . S
C1474 H1451 0.950 . S
C1474 C1473 1.397 . S
C1474 C1475 1.334 . S
C1475 H1452 0.950 . S
C1475 C1474 1.334 . S
C1475 C1476 1.287 . S
C1476 C1475 1.287 . S
C1476 C1477 1.524 . S
C1476 H1495 0.913 . S
C1477 H1453 0.950 . S
C1477 C1476 1.524 . S
C1477 C1478 1.415 . S
C1478 H1454 0.950 . S
C1478 C1473 1.363 . S
C1478 C1477 1.415 . S
C1479 H1455 0.951 . S
C1479 C1480 1.366 . S
C1479 C1481 1.388 . S
C1480 C1479 1.366 . S
C1480 C1484 1.385 . S
C1481 H1456 0.951 . S
C1481 C1479 1.388 . S
C1481 C1482 1.366 . S
C1482 C1481 1.366 . S
C1482 C1483 1.414 . S
C1482 C1485 1.499 . S
C1483 H1457 0.950 . S
C1483 C1482 1.414 . S
C1483 C1484 1.374 . S
C1484 H1458 0.950 . S
C1484 C1480 1.385 . S
C1484 C1483 1.374 . S
C1485 C1482 1.499 . S
C1485 C1486 1.373 . S
C1485 C1487 1.389 . S
C1486 H1459 0.950 . S
C1486 C1472 1.377 . S
C1486 C1485 1.373 . S
C1487 C1471 1.377 . S
C1487 C1485 1.389 . S
C1487 C1488 1.524 . S
C1488 C1487 1.524 . S
C1488 C1489 1.397 . S
C1488 C1493 1.363 . S
C1489 H1460 0.950 . S
C1489 C1488 1.397 . S
C1489 C1490 1.334 . S
C1490 H1461 0.950 . S
C1490 C1489 1.334 . S
C1490 C1491 1.287 . S
C1491 C1490 1.287 . S
C1491 C1492 1.524 . S
C1491 H1494 0.999 . S
C1492 H1462 0.950 . S
C1492 C1491 1.524 . S
C1492 C1493 1.415 . S
C1493 H1463 0.950 . S
C1493 C1488 1.363 . S
C1493 C1492 1.415 . S
H1494 C1491 0.999 . S
H1495 C1476 0.913 . S
H1496 C1514 0.951 . S
H1497 C1516 0.951 . S
H1498 C1518 0.950 . S
H1499 C1519 0.950 . S
H1500 C1521 0.950 . S
H1501 C1524 0.950 . S
H1502 C1525 0.950 . S
H1503 C1527 0.950 . S
H1504 C1528 0.950 . S
H1505 C1529 0.951 . S
H1506 C1531 0.951 . S
H1507 C1533 0.950 . S
H1508 C1534 0.950 . S
H1509 C1536 0.950 . S
H1510 C1539 0.950 . S
H1511 C1540 0.950 . S
H1512 C1542 0.950 . S
H1513 C1543 0.950 . S
C1514 H1496 0.951 . S
C1514 C1515 1.366 . S
C1514 C1516 1.388 . S
C1515 C1514 1.366 . S
C1515 C1519 1.385 . S
C1516 H1497 0.951 . S
C1516 C1514 1.388 . S
C1516 C1517 1.366 1_554 S
C1517 C1516 1.366 1_556 S
C1517 C1518 1.414 . S
C1517 C1520 1.499 . S
C1518 H1498 0.950 . S
C1518 C1517 1.414 . S
C1518 C1519 1.374 1_556 S
C1519 H1499 0.950 . S
C1519 C1515 1.385 . S
C1519 C1518 1.374 1_554 S
C1520 C1517 1.499 . S
C1520 C1521 1.373 . S
C1520 C1522 1.389 . S
C1521 H1500 0.950 . S
C1521 C1520 1.373 . S
C1521 C1537 1.377 . S
C1522 C1520 1.389 . S
C1522 C1523 1.524 1_556 S
C1522 C1536 1.377 . S
C1523 C1522 1.524 1_554 S
C1523 C1524 1.397 . S
C1523 C1528 1.363 . S
C1524 H1501 0.950 . S
C1524 C1523 1.397 . S
C1524 C1525 1.334 . S
C1525 H1502 0.950 . S
C1525 C1524 1.334 . S
C1525 C1526 1.287 . S
C1526 C1525 1.287 . S
C1526 C1527 1.524 . S
C1526 H1545 0.913 . S
C1527 H1503 0.950 . S
C1527 C1526 1.524 . S
C1527 C1528 1.415 . S
C1528 H1504 0.950 . S
C1528 C1523 1.363 . S
C1528 C1527 1.415 . S
C1529 H1505 0.951 . S
C1529 C1530 1.366 . S
C1529 C1531 1.388 . S
C1530 C1529 1.366 . S
C1530 C1534 1.385 . S
C1531 H1506 0.951 . S
C1531 C1529 1.388 . S
C1531 C1532 1.366 . S
C1532 C1531 1.366 . S
C1532 C1533 1.414 . S
C1532 C1535 1.499 . S
C1533 H1507 0.950 . S
C1533 C1532 1.414 . S
C1533 C1534 1.374 . S
C1534 H1508 0.950 . S
C1534 C1530 1.385 . S
C1534 C1533 1.374 . S
C1535 C1532 1.499 . S
C1535 C1536 1.373 . S
C1535 C1537 1.389 . S
C1536 H1509 0.950 . S
C1536 C1522 1.377 . S
C1536 C1535 1.373 . S
C1537 C1521 1.377 . S
C1537 C1535 1.389 . S
C1537 C1538 1.524 . S
C1538 C1537 1.524 . S
C1538 C1539 1.397 . S
C1538 C1543 1.363 . S
C1539 H1510 0.950 . S
C1539 C1538 1.397 . S
C1539 C1540 1.334 . S
C1540 H1511 0.950 . S
C1540 C1539 1.334 . S
C1540 C1541 1.287 . S
C1541 C1540 1.287 . S
C1541 C1542 1.524 . S
C1541 H1544 0.999 . S
C1542 H1512 0.950 . S
C1542 C1541 1.524 . S
C1542 C1543 1.415 . S
C1543 H1513 0.950 . S
C1543 C1538 1.363 . S
C1543 C1542 1.415 . S
H1544 C1541 0.999 . S
H1545 C1526 0.913 . S
H1546 C1564 0.951 . S
H1547 C1566 0.951 . S
H1548 C1568 0.950 . S
H1549 C1569 0.950 . S
H1550 C1571 0.950 . S
H1551 C1574 0.950 . S
H1552 C1575 0.950 . S
H1553 C1577 0.950 . S
H1554 C1578 0.950 . S
H1555 C1579 0.951 . S
H1556 C1581 0.951 . S
H1557 C1583 0.950 . S
H1558 C1584 0.950 . S
H1559 C1586 0.950 . S
H1560 C1589 0.950 . S
H1561 C1590 0.950 . S
H1562 C1592 0.950 . S
H1563 C1593 0.950 . S
C1564 H1546 0.951 . S
C1564 C1565 1.366 . S
C1564 C1566 1.388 . S
C1565 C1564 1.366 . S
C1565 C1569 1.385 . S
C1566 H1547 0.951 . S
C1566 C1564 1.388 . S
C1566 C1567 1.366 . S
C1567 C1566 1.366 . S
C1567 C1568 1.414 . S
C1567 C1570 1.499 . S
C1568 H1548 0.950 . S
C1568 C1567 1.414 . S
C1568 C1569 1.374 . S
C1569 H1549 0.950 . S
C1569 C1565 1.385 . S
C1569 C1568 1.374 . S
C1570 C1567 1.499 . S
C1570 C1571 1.373 . S
C1570 C1572 1.389 . S
C1571 H1550 0.950 . S
C1571 C1570 1.373 . S
C1571 C1587 1.377 . S
C1572 C1570 1.389 . S
C1572 C1573 1.524 . S
C1572 C1586 1.377 . S
C1573 C1572 1.524 . S
C1573 C1574 1.397 . S
C1573 C1578 1.363 . S
C1574 H1551 0.950 . S
C1574 C1573 1.397 . S
C1574 C1575 1.334 1_554 S
C1575 H1552 0.950 . S
C1575 C1574 1.334 1_556 S
C1575 C1576 1.287 . S
C1576 C1575 1.287 . S
C1576 C1577 1.524 . S
C1576 H1595 0.913 . S
C1577 H1553 0.950 . S
C1577 C1576 1.524 . S
C1577 C1578 1.415 1_556 S
C1578 H1554 0.950 . S
C1578 C1573 1.363 . S
C1578 C1577 1.415 1_554 S
C1579 H1555 0.951 . S
C1579 C1580 1.366 . S
C1579 C1581 1.388 1_556 S
C1580 C1579 1.366 . S
C1580 C1584 1.385 . S
C1581 H1556 0.951 . S
C1581 C1579 1.388 1_554 S
C1581 C1582 1.366 . S
C1582 C1581 1.366 . S
C1582 C1583 1.414 . S
C1582 C1585 1.499 . S
C1583 H1557 0.950 . S
C1583 C1582 1.414 . S
C1583 C1584 1.374 1_554 S
C1584 H1558 0.950 . S
C1584 C1580 1.385 . S
C1584 C1583 1.374 1_556 S
C1585 C1582 1.499 . S
C1585 C1586 1.373 . S
C1585 C1587 1.389 . S
C1586 H1559 0.950 . S
C1586 C1572 1.377 . S
C1586 C1585 1.373 . S
C1587 C1571 1.377 . S
C1587 C1585 1.389 . S
C1587 C1588 1.524 . S
C1588 C1587 1.524 . S
C1588 C1589 1.397 . S
C1588 C1593 1.363 . S
C1589 H1560 0.950 . S
C1589 C1588 1.397 . S
C1589 C1590 1.334 . S
C1590 H1561 0.950 . S
C1590 C1589 1.334 . S
C1590 C1591 1.287 . S
C1591 C1590 1.287 . S
C1591 C1592 1.524 . S
C1591 H1594 0.999 . S
C1592 H1562 0.950 . S
C1592 C1591 1.524 . S
C1592 C1593 1.415 . S
C1593 H1563 0.950 . S
C1593 C1588 1.363 . S
C1593 C1592 1.415 . S
H1594 C1591 0.999 . S
H1595 C1576 0.913 . S
H1596 C1614 0.951 . S
H1597 C1616 0.951 . S
H1598 C1618 0.950 . S
H1599 C1619 0.950 . S
H1600 C1621 0.950 . S
H1601 C1624 0.950 . S
H1602 C1625 0.950 . S
H1603 C1627 0.950 . S
H1604 C1628 0.950 . S
H1605 C1629 0.951 . S
H1606 C1631 0.951 . S
H1607 C1633 0.950 . S
H1608 C1634 0.950 . S
H1609 C1636 0.950 . S
H1610 C1639 0.950 . S
H1611 C1640 0.950 . S
H1612 C1642 0.950 . S
H1613 C1643 0.950 . S
C1614 H1596 0.951 . S
C1614 C1615 1.366 . S
C1614 C1616 1.388 . S
C1615 C1614 1.366 . S
C1615 C1619 1.385 . S
C1616 H1597 0.951 . S
C1616 C1614 1.388 . S
C1616 C1617 1.366 . S
C1617 C1616 1.366 . S
C1617 C1618 1.414 . S
C1617 C1620 1.499 . S
C1618 H1598 0.950 . S
C1618 C1617 1.414 . S
C1618 C1619 1.374 . S
C1619 H1599 0.950 . S
C1619 C1615 1.385 . S
C1619 C1618 1.374 . S
C1620 C1617 1.499 . S
C1620 C1621 1.373 . S
C1620 C1622 1.389 . S
C1621 H1600 0.950 . S
C1621 C1620 1.373 . S
C1621 C1637 1.377 . S
C1622 C1620 1.389 . S
C1622 C1623 1.524 . S
C1622 C1636 1.377 . S
C1623 C1622 1.524 . S
C1623 C1624 1.397 . S
C1623 C1628 1.363 . S
C1624 H1601 0.950 . S
C1624 C1623 1.397 . S
C1624 C1625 1.334 . S
C1625 H1602 0.950 . S
C1625 C1624 1.334 . S
C1625 C1626 1.287 . S
C1626 C1625 1.287 . S
C1626 C1627 1.524 . S
C1626 H1645 0.913 . S
C1627 H1603 0.950 . S
C1627 C1626 1.524 . S
C1627 C1628 1.415 . S
C1628 H1604 0.950 . S
C1628 C1623 1.363 . S
C1628 C1627 1.415 . S
C1629 H1605 0.951 . S
C1629 C1630 1.366 . S
C1629 C1631 1.388 . S
C1630 C1629 1.366 . S
C1630 C1634 1.385 . S
C1631 H1606 0.951 . S
C1631 C1629 1.388 . S
C1631 C1632 1.366 . S
C1632 C1631 1.366 . S
C1632 C1633 1.414 . S
C1632 C1635 1.499 . S
C1633 H1607 0.950 . S
C1633 C1632 1.414 . S
C1633 C1634 1.374 . S
C1634 H1608 0.950 . S
C1634 C1630 1.385 . S
C1634 C1633 1.374 . S
C1635 C1632 1.499 . S
C1635 C1636 1.373 . S
C1635 C1637 1.389 . S
C1636 H1609 0.950 . S
C1636 C1622 1.377 . S
C1636 C1635 1.373 . S
C1637 C1621 1.377 . S
C1637 C1635 1.389 . S
C1637 C1638 1.524 . S
C1638 C1637 1.524 . S
C1638 C1639 1.397 . S
C1638 C1643 1.363 . S
C1639 H1610 0.950 . S
C1639 C1638 1.397 . S
C1639 C1640 1.334 . S
C1640 H1611 0.950 . S
C1640 C1639 1.334 . S
C1640 C1641 1.287 1_554 S
C1641 C1640 1.287 1_556 S
C1641 C1642 1.524 . S
C1641 H1644 0.999 . S
C1642 H1612 0.950 . S
C1642 C1641 1.524 . S
C1642 C1643 1.415 1_556 S
C1643 H1613 0.950 . S
C1643 C1638 1.363 . S
C1643 C1642 1.415 1_554 S
H1644 C1641 0.999 . S
H1645 C1626 0.913 . S
H1646 C1664 0.951 . S
H1647 C1666 0.951 . S
H1648 C1668 0.950 . S
H1649 C1669 0.950 . S
H1650 C1671 0.950 . S
H1651 C1674 0.950 . S
H1652 C1675 0.950 . S
H1653 C1677 0.950 . S
H1654 C1678 0.950 . S
H1655 C1679 0.951 . S
H1656 C1681 0.951 . S
H1657 C1683 0.950 . S
H1658 C1684 0.950 . S
H1659 C1686 0.950 . S
H1660 C1689 0.950 . S
H1661 C1690 0.950 . S
H1662 C1692 0.950 . S
H1663 C1693 0.950 . S
C1664 H1646 0.951 . S
C1664 C1665 1.366 . S
C1664 C1666 1.388 . S
C1665 C1664 1.366 . S
C1665 C1669 1.385 . S
C1666 H1647 0.951 . S
C1666 C1664 1.388 . S
C1666 C1667 1.366 . S
C1667 C1666 1.366 . S
C1667 C1668 1.414 . S
C1667 C1670 1.499 . S
C1668 H1648 0.950 . S
C1668 C1667 1.414 . S
C1668 C1669 1.374 . S
C1669 H1649 0.950 . S
C1669 C1665 1.385 . S
C1669 C1668 1.374 . S
C1670 C1667 1.499 . S
C1670 C1671 1.373 . S
C1670 C1672 1.389 . S
C1671 H1650 0.950 . S
C1671 C1670 1.373 . S
C1671 C1687 1.377 1_655 S
C1672 C1670 1.389 . S
C1672 C1673 1.524 . S
C1672 C1686 1.377 1_655 S
C1673 C1672 1.524 . S
C1673 C1674 1.397 . S
C1673 C1678 1.363 . S
C1674 H1651 0.950 . S
C1674 C1673 1.397 . S
C1674 C1675 1.334 . S
C1675 H1652 0.950 . S
C1675 C1674 1.334 . S
C1675 C1676 1.287 . S
C1676 C1675 1.287 . S
C1676 C1677 1.524 . S
C1676 H1695 0.913 . S
C1677 H1653 0.950 . S
C1677 C1676 1.524 . S
C1677 C1678 1.415 . S
C1678 H1654 0.950 . S
C1678 C1673 1.363 . S
C1678 C1677 1.415 . S
C1679 H1655 0.951 . S
C1679 C1680 1.366 . S
C1679 C1681 1.388 . S
C1680 C1679 1.366 . S
C1680 C1684 1.385 . S
C1681 H1656 0.951 . S
C1681 C1679 1.388 . S
C1681 C1682 1.366 . S
C1682 C1681 1.366 . S
C1682 C1683 1.414 . S
C1682 C1685 1.499 . S
C1683 H1657 0.950 . S
C1683 C1682 1.414 . S
C1683 C1684 1.374 . S
C1684 H1658 0.950 . S
C1684 C1680 1.385 . S
C1684 C1683 1.374 . S
C1685 C1682 1.499 . S
C1685 C1686 1.373 . S
C1685 C1687 1.389 . S
C1686 H1659 0.950 . S
C1686 C1672 1.377 1_455 S
C1686 C1685 1.373 . S
C1687 C1671 1.377 1_455 S
C1687 C1685 1.389 . S
C1687 C1688 1.524 . S
C1688 C1687 1.524 . S
C1688 C1689 1.397 . S
C1688 C1693 1.363 . S
C1689 H1660 0.950 . S
C1689 C1688 1.397 . S
C1689 C1690 1.334 . S
C1690 H1661 0.950 . S
C1690 C1689 1.334 . S
C1690 C1691 1.287 . S
C1691 C1690 1.287 . S
C1691 C1692 1.524 . S
C1691 H1694 0.999 . S
C1692 H1662 0.950 . S
C1692 C1691 1.524 . S
C1692 C1693 1.415 . S
C1693 H1663 0.950 . S
C1693 C1688 1.363 . S
C1693 C1692 1.415 . S
H1694 C1691 0.999 . S
H1695 C1676 0.913 . S
H1696 C1714 0.951 . S
H1697 C1716 0.951 . S
H1698 C1718 0.950 . S
H1699 C1719 0.950 . S
H1700 C1721 0.950 . S
H1701 C1724 0.950 . S
H1702 C1725 0.950 . S
H1703 C1727 0.950 . S
H1704 C1728 0.950 1_565 S
H1705 C1729 0.951 . S
H1706 C1731 0.951 . S
H1707 C1733 0.950 . S
H1708 C1734 0.950 . S
H1709 C1736 0.950 . S
H1710 C1739 0.950 . S
H1711 C1740 0.950 . S
H1712 C1742 0.950 . S
H1713 C1743 0.950 1_545 S
C1714 H1696 0.951 . S
C1714 C1715 1.366 . S
C1714 C1716 1.388 . S
C1715 C1714 1.366 . S
C1715 C1719 1.385 . S
C1716 H1697 0.951 . S
C1716 C1714 1.388 . S
C1716 C1717 1.366 . S
C1717 C1716 1.366 . S
C1717 C1718 1.414 . S
C1717 C1720 1.499 . S
C1718 H1698 0.950 . S
C1718 C1717 1.414 . S
C1718 C1719 1.374 . S
C1719 H1699 0.950 . S
C1719 C1715 1.385 . S
C1719 C1718 1.374 . S
C1720 C1717 1.499 . S
C1720 C1721 1.373 . S
C1720 C1722 1.389 . S
C1721 H1700 0.950 . S
C1721 C1720 1.373 . S
C1721 C1737 1.377 1_545 S
C1722 C1720 1.389 . S
C1722 C1723 1.524 . S
C1722 C1736 1.377 1_545 S
C1723 C1722 1.524 . S
C1723 C1724 1.397 . S
C1723 C1728 1.363 . S
C1724 H1701 0.950 . S
C1724 C1723 1.397 . S
C1724 C1725 1.334 . S
C1725 H1702 0.950 . S
C1725 C1724 1.334 . S
C1725 C1726 1.287 . S
C1726 C1725 1.287 . S
C1726 C1727 1.524 . S
C1726 H1745 0.913 . S
C1727 H1703 0.950 . S
C1727 C1726 1.524 . S
C1727 C1728 1.415 . S
C1728 H1704 0.950 1_545 S
C1728 C1723 1.363 . S
C1728 C1727 1.415 . S
C1729 H1705 0.951 . S
C1729 C1730 1.366 . S
C1729 C1731 1.388 . S
C1730 C1729 1.366 . S
C1730 C1734 1.385 . S
C1731 H1706 0.951 . S
C1731 C1729 1.388 . S
C1731 C1732 1.366 . S
C1732 C1731 1.366 . S
C1732 C1733 1.414 . S
C1732 C1735 1.499 . S
C1733 H1707 0.950 . S
C1733 C1732 1.414 . S
C1733 C1734 1.374 . S
C1734 H1708 0.950 . S
C1734 C1730 1.385 . S
C1734 C1733 1.374 . S
C1735 C1732 1.499 . S
C1735 C1736 1.373 . S
C1735 C1737 1.389 . S
C1736 H1709 0.950 . S
C1736 C1722 1.377 1_565 S
C1736 C1735 1.373 . S
C1737 C1721 1.377 1_565 S
C1737 C1735 1.389 . S
C1737 C1738 1.524 . S
C1738 C1737 1.524 . S
C1738 C1739 1.397 . S
C1738 C1743 1.363 . S
C1739 H1710 0.950 . S
C1739 C1738 1.397 . S
C1739 C1740 1.334 . S
C1740 H1711 0.950 . S
C1740 C1739 1.334 . S
C1740 C1741 1.287 . S
C1741 C1740 1.287 . S
C1741 C1742 1.524 . S
C1741 H1744 0.999 . S
C1742 H1712 0.950 . S
C1742 C1741 1.524 . S
C1742 C1743 1.415 . S
C1743 H1713 0.950 1_565 S
C1743 C1738 1.363 . S
C1743 C1742 1.415 . S
H1744 C1741 0.999 . S
H1745 C1726 0.913 . S
H1746 C1764 0.951 . S
H1747 C1766 0.951 . S
H1748 C1768 0.950 . S
H1749 C1769 0.950 . S
H1750 C1771 0.950 . S
H1751 C1774 0.950 . S
H1752 C1775 0.950 . S
H1753 C1777 0.950 . S
H1754 C1778 0.950 . S
H1755 C1779 0.951 . S
H1756 C1781 0.951 . S
H1757 C1783 0.950 . S
H1758 C1784 0.950 . S
H1759 C1786 0.950 . S
H1760 C1789 0.950 . S
H1761 C1790 0.950 . S
H1762 C1792 0.950 . S
H1763 C1793 0.950 . S
C1764 H1746 0.951 . S
C1764 C1765 1.366 . S
C1764 C1766 1.388 . S
C1765 C1764 1.366 . S
C1765 C1769 1.385 . S
C1766 H1747 0.951 . S
C1766 C1764 1.388 . S
C1766 C1767 1.366 . S
C1767 C1766 1.366 . S
C1767 C1768 1.414 . S
C1767 C1770 1.499 . S
C1768 H1748 0.950 . S
C1768 C1767 1.414 . S
C1768 C1769 1.374 . S
C1769 H1749 0.950 . S
C1769 C1765 1.385 . S
C1769 C1768 1.374 . S
C1770 C1767 1.499 . S
C1770 C1771 1.373 . S
C1770 C1772 1.389 . S
C1771 H1750 0.950 . S
C1771 C1770 1.373 . S
C1771 C1787 1.377 . S
C1772 C1770 1.389 . S
C1772 C1773 1.524 . S
C1772 C1786 1.377 . S
C1773 C1772 1.524 . S
C1773 C1774 1.397 . S
C1773 C1778 1.363 . S
C1774 H1751 0.950 . S
C1774 C1773 1.397 . S
C1774 C1775 1.334 . S
C1775 H1752 0.950 . S
C1775 C1774 1.334 . S
C1775 C1776 1.287 . S
C1776 C1775 1.287 . S
C1776 C1777 1.524 . S
C1776 H1795 0.913 . S
C1777 H1753 0.950 . S
C1777 C1776 1.524 . S
C1777 C1778 1.415 . S
C1778 H1754 0.950 . S
C1778 C1773 1.363 . S
C1778 C1777 1.415 . S
C1779 H1755 0.951 . S
C1779 C1780 1.366 . S
C1779 C1781 1.388 . S
C1780 C1779 1.366 . S
C1780 C1784 1.385 . S
C1781 H1756 0.951 . S
C1781 C1779 1.388 . S
C1781 C1782 1.366 . S
C1782 C1781 1.366 . S
C1782 C1783 1.414 . S
C1782 C1785 1.499 . S
C1783 H1757 0.950 . S
C1783 C1782 1.414 . S
C1783 C1784 1.374 . S
C1784 H1758 0.950 . S
C1784 C1780 1.385 . S
C1784 C1783 1.374 . S
C1785 C1782 1.499 . S
C1785 C1786 1.373 . S
C1785 C1787 1.389 . S
C1786 H1759 0.950 . S
C1786 C1772 1.377 . S
C1786 C1785 1.373 . S
C1787 C1771 1.377 . S
C1787 C1785 1.389 . S
C1787 C1788 1.524 . S
C1788 C1787 1.524 . S
C1788 C1789 1.397 . S
C1788 C1793 1.363 . S
C1789 H1760 0.950 . S
C1789 C1788 1.397 . S
C1789 C1790 1.334 . S
C1790 H1761 0.950 . S
C1790 C1789 1.334 . S
C1790 C1791 1.287 . S
C1791 C1790 1.287 . S
C1791 C1792 1.524 . S
C1791 H1794 0.999 . S
C1792 H1762 0.950 . S
C1792 C1791 1.524 . S
C1792 C1793 1.415 . S
C1793 H1763 0.950 . S
C1793 C1788 1.363 . S
C1793 C1792 1.415 . S
H1794 C1791 0.999 . S
H1795 C1776 0.913 . S
H1796 C1814 0.951 . S
H1797 C1816 0.951 . S
H1798 C1818 0.950 . S
H1799 C1819 0.950 . S
H1800 C1821 0.950 . S
H1801 C1824 0.950 . S
H1802 C1825 0.950 . S
H1803 C1827 0.950 . S
H1804 C1828 0.950 . S
H1805 C1829 0.951 . S
H1806 C1831 0.951 . S
H1807 C1833 0.950 . S
H1808 C1834 0.950 . S
H1809 C1836 0.950 . S
H1810 C1839 0.950 . S
H1811 C1840 0.950 . S
H1812 C1842 0.950 . S
H1813 C1843 0.950 . S
C1814 H1796 0.951 . S
C1814 C1815 1.366 . S
C1814 C1816 1.388 . S
C1815 C1814 1.366 . S
C1815 C1819 1.385 . S
C1816 H1797 0.951 . S
C1816 C1814 1.388 . S
C1816 C1817 1.366 . S
C1817 C1816 1.366 . S
C1817 C1818 1.414 . S
C1817 C1820 1.499 . S
C1818 H1798 0.950 . S
C1818 C1817 1.414 . S
C1818 C1819 1.374 . S
C1819 H1799 0.950 . S
C1819 C1815 1.385 . S
C1819 C1818 1.374 . S
C1820 C1817 1.499 . S
C1820 C1821 1.373 . S
C1820 C1822 1.389 . S
C1821 H1800 0.950 . S
C1821 C1820 1.373 . S
C1821 C1837 1.377 1_455 S
C1822 C1820 1.389 . S
C1822 C1823 1.524 . S
C1822 C1836 1.377 1_455 S
C1823 C1822 1.524 . S
C1823 C1824 1.397 . S
C1823 C1828 1.363 . S
C1824 H1801 0.950 . S
C1824 C1823 1.397 . S
C1824 C1825 1.334 . S
C1825 H1802 0.950 . S
C1825 C1824 1.334 . S
C1825 C1826 1.287 . S
C1826 C1825 1.287 . S
C1826 C1827 1.524 . S
C1826 H1845 0.913 . S
C1827 H1803 0.950 . S
C1827 C1826 1.524 . S
C1827 C1828 1.415 . S
C1828 H1804 0.950 . S
C1828 C1823 1.363 . S
C1828 C1827 1.415 . S
C1829 H1805 0.951 . S
C1829 C1830 1.366 . S
C1829 C1831 1.388 . S
C1830 C1829 1.366 . S
C1830 C1834 1.385 . S
C1831 H1806 0.951 . S
C1831 C1829 1.388 . S
C1831 C1832 1.366 . S
C1832 C1831 1.366 . S
C1832 C1833 1.414 . S
C1832 C1835 1.499 . S
C1833 H1807 0.950 . S
C1833 C1832 1.414 . S
C1833 C1834 1.374 . S
C1834 H1808 0.950 . S
C1834 C1830 1.385 . S
C1834 C1833 1.374 . S
C1835 C1832 1.499 . S
C1835 C1836 1.373 . S
C1835 C1837 1.389 . S
C1836 H1809 0.950 . S
C1836 C1822 1.377 1_655 S
C1836 C1835 1.373 . S
C1837 C1821 1.377 1_655 S
C1837 C1835 1.389 . S
C1837 C1838 1.524 . S
C1838 C1837 1.524 . S
C1838 C1839 1.397 . S
C1838 C1843 1.363 . S
C1839 H1810 0.950 . S
C1839 C1838 1.397 . S
C1839 C1840 1.334 . S
C1840 H1811 0.950 . S
C1840 C1839 1.334 . S
C1840 C1841 1.287 . S
C1841 C1840 1.287 . S
C1841 C1842 1.524 . S
C1841 H1844 0.999 . S
C1842 H1812 0.950 . S
C1842 C1841 1.524 . S
C1842 C1843 1.415 . S
C1843 H1813 0.950 . S
C1843 C1838 1.363 . S
C1843 C1842 1.415 . S
H1844 C1841 0.999 . S
H1845 C1826 0.913 . S
H1846 C1864 0.951 1_554 S
H1847 C1866 0.951 . S
H1848 C1868 0.950 . S
H1849 C1869 0.950 . S
H1850 C1871 0.950 . S
H1851 C1874 0.950 . S
H1852 C1875 0.950 . S
H1853 C1877 0.950 . S
H1854 C1878 0.950 . S
H1855 C1879 0.951 1_556 S
H1856 C1881 0.951 . S
H1857 C1883 0.950 . S
H1858 C1884 0.950 . S
H1859 C1886 0.950 . S
H1860 C1889 0.950 . S
H1861 C1890 0.950 . S
H1862 C1892 0.950 . S
H1863 C1893 0.950 . S
C1864 H1846 0.951 1_556 S
C1864 C1865 1.366 . S
C1864 C1866 1.388 1_556 S
C1865 C1864 1.366 . S
C1865 C1869 1.385 . S
C1866 H1847 0.951 . S
C1866 C1864 1.388 1_554 S
C1866 C1867 1.366 1_554 S
C1867 C1866 1.366 1_556 S
C1867 C1868 1.414 . S
C1867 C1870 1.499 . S
C1868 H1848 0.950 . S
C1868 C1867 1.414 . S
C1868 C1869 1.374 . S
C1869 H1849 0.950 . S
C1869 C1865 1.385 . S
C1869 C1868 1.374 . S
C1870 C1867 1.499 . S
C1870 C1871 1.373 . S
C1870 C1872 1.389 1_556 S
C1871 H1850 0.950 . S
C1871 C1870 1.373 . S
C1871 C1887 1.377 1_545 S
C1872 C1870 1.389 1_554 S
C1872 C1873 1.524 . S
C1872 C1886 1.377 1_545 S
C1873 C1872 1.524 . S
C1873 C1874 1.397 . S
C1873 C1878 1.363 . S
C1874 H1851 0.950 . S
C1874 C1873 1.397 . S
C1874 C1875 1.334 . S
C1875 H1852 0.950 . S
C1875 C1874 1.334 . S
C1875 C1876 1.287 . S
C1876 C1875 1.287 . S
C1876 C1877 1.524 . S
C1876 H1895 0.913 . S
C1877 H1853 0.950 . S
C1877 C1876 1.524 . S
C1877 C1878 1.415 . S
C1878 H1854 0.950 . S
C1878 C1873 1.363 . S
C1878 C1877 1.415 . S
C1879 H1855 0.951 1_554 S
C1879 C1880 1.366 . S
C1879 C1881 1.388 1_554 S
C1880 C1879 1.366 . S
C1880 C1884 1.385 . S
C1881 H1856 0.951 . S
C1881 C1879 1.388 1_556 S
C1881 C1882 1.366 1_556 S
C1882 C1881 1.366 1_554 S
C1882 C1883 1.414 . S
C1882 C1885 1.499 . S
C1883 H1857 0.950 . S
C1883 C1882 1.414 . S
C1883 C1884 1.374 . S
C1884 H1858 0.950 . S
C1884 C1880 1.385 . S
C1884 C1883 1.374 . S
C1885 C1882 1.499 . S
C1885 C1886 1.373 . S
C1885 C1887 1.389 1_554 S
C1886 H1859 0.950 . S
C1886 C1872 1.377 1_565 S
C1886 C1885 1.373 . S
C1887 C1871 1.377 1_565 S
C1887 C1885 1.389 1_556 S
C1887 C1888 1.524 . S
C1888 C1887 1.524 . S
C1888 C1889 1.397 . S
C1888 C1893 1.363 . S
C1889 H1860 0.950 . S
C1889 C1888 1.397 . S
C1889 C1890 1.334 . S
C1890 H1861 0.950 . S
C1890 C1889 1.334 . S
C1890 C1891 1.287 . S
C1891 C1890 1.287 . S
C1891 C1892 1.524 . S
C1891 H1894 0.999 . S
C1892 H1862 0.950 . S
C1892 C1891 1.524 . S
C1892 C1893 1.415 . S
C1893 H1863 0.950 . S
C1893 C1888 1.363 . S
C1893 C1892 1.415 . S
H1894 C1891 0.999 . S
H1895 C1876 0.913 . S
C415 N5 1.178 . S
C430 N14 1.176 . S
C465 N47 1.176 . S
C480 N38 1.178 . S
C515 N80 1.176 . S
C530 N71 1.178 . S
C565 N104 1.178 . S
C580 N113 1.176 . S
C615 N137 1.178 1_554 S
C630 N146 1.176 . S
C665 N179 1.176 . S
C680 N170 1.178 . S
C715 N203 1.178 . S
C730 N212 1.176 . S
C765 N236 1.178 . S
C780 N245 1.176 . S
C815 N278 1.176 . S
C830 N269 1.178 . S
C865 N302 1.178 1_556 S
C880 N311 1.176 . S
C915 N335 1.178 . S
C930 N344 1.176 . S
C965 N377 1.176 . S
C980 N368 1.178 . S
C1015 C206 1.489 . S
C1030 C8 1.489 . S
C1065 C41 1.489 . S
C1080 C239 1.489 . S
C1115 C272 1.489 . S
C1130 C74 1.489 . S
C1165 C305 1.489 . S
C1180 C107 1.489 . S
C1215 C338 1.489 . S
C1230 C140 1.490 . S
C1265 C371 1.489 . S
C1280 C173 1.489 . S
C1315 C28 0.995 . S
C1330 C358 0.994 . S
C1365 C61 0.995 . S
C1380 C391 0.996 . S
C1415 C94 0.995 . S
C1430 C226 0.995 . S
C1465 C259 0.995 . S
C1480 C127 0.994 . S
C1515 C292 0.995 . S
C1530 C160 0.995 . S
C1565 C325 0.995 . S
C1580 C193 0.995 . S
C1615 C17 1.429 . S
C1630 C314 1.429 . S
C1665 C50 1.429 . S
C1680 C347 1.430 . S
C1715 C380 1.429 . S
C1730 C83 1.429 . S
C1765 C116 1.430 . S
C1780 C215 1.429 . S
C1815 C149 1.429 . S
C1830 C248 1.430 . S
C1865 C182 1.430 . S
C1880 C281 1.429 . S
