# Generated by pormake.
# Topology vbk, (5)-cn, num edge types: 1
# Building blocks:
#     Node 0, Type 0, BuildingBlock: XOMCOT_clean_sbu_1, # of connection points: 5
#     Node 1, Type 0, BuildingBlock: XOMCOT_clean_sbu_1, # of connection points: 5
#     Node 2, Type 0, BuildingBlock: XOMCOT_clean_sbu_1, # of connection points: 5
#     Node 3, Type 0, BuildingBlock: XOMCOT_clean_sbu_1, # of connection points: 5
#     Node 4, Type 0, BuildingBlock: XOMCOT_clean_sbu_1, # of connection points: 5
#     Node 5, Type 0, BuildingBlock: XOMCOT_clean_sbu_1, # of connection points: 5
#     Node 6, Type 0, BuildingBlock: XOMCOT_clean_sbu_1, # of connection points: 5
#     Node 7, Type 0, BuildingBlock: XOMCOT_clean_sbu_1, # of connection points: 5
#     Node 8, Type 0, BuildingBlock: XOMCOT_clean_sbu_1, # of connection points: 5
#     Node 9, Type 0, BuildingBlock: XOMCOT_clean_sbu_1, # of connection points: 5
#     Node 10, Type 0, BuildingBlock: XOMCOT_clean_sbu_1, # of connection points: 5
#     Node 11, Type 0, BuildingBlock: XOMCOT_clean_sbu_1, # of connection points: 5
#     Node 12, Type 0, BuildingBlock: XOMCOT_clean_sbu_1, # of connection points: 5
#     Node 13, Type 0, BuildingBlock: XOMCOT_clean_sbu_1, # of connection points: 5
#     Node 14, Type 0, BuildingBlock: XOMCOT_clean_sbu_1, # of connection points: 5
#     Node 15, Type 0, BuildingBlock: XOMCOT_clean_sbu_1, # of connection points: 5
#     Edge 16, Type (0, 0), BuildingBlock: XUDNAN_clean_linker_2, # of connection points: 2
#     Edge 17, Type (0, 0), BuildingBlock: XUDNAN_clean_linker_2, # of connection points: 2
#     Edge 18, Type (0, 0), BuildingBlock: XUDNAN_clean_linker_2, # of connection points: 2
#     Edge 19, Type (0, 0), BuildingBlock: XUDNAN_clean_linker_2, # of connection points: 2
#     Edge 20, Type (0, 0), BuildingBlock: XUDNAN_clean_linker_2, # of connection points: 2
#     Edge 21, Type (0, 0), BuildingBlock: XUDNAN_clean_linker_2, # of connection points: 2
#     Edge 22, Type (0, 0), BuildingBlock: XUDNAN_clean_linker_2, # of connection points: 2
#     Edge 23, Type (0, 0), BuildingBlock: XUDNAN_clean_linker_2, # of connection points: 2
#     Edge 24, Type (0, 0), BuildingBlock: XUDNAN_clean_linker_2, # of connection points: 2
#     Edge 25, Type (0, 0), BuildingBlock: XUDNAN_clean_linker_2, # of connection points: 2
#     Edge 26, Type (0, 0), BuildingBlock: XUDNAN_clean_linker_2, # of connection points: 2
#     Edge 27, Type (0, 0), BuildingBlock: XUDNAN_clean_linker_2, # of connection points: 2
#     Edge 28, Type (0, 0), BuildingBlock: XUDNAN_clean_linker_2, # of connection points: 2
#     Edge 29, Type (0, 0), BuildingBlock: XUDNAN_clean_linker_2, # of connection points: 2
#     Edge 30, Type (0, 0), BuildingBlock: XUDNAN_clean_linker_2, # of connection points: 2
#     Edge 31, Type (0, 0), BuildingBlock: XUDNAN_clean_linker_2, # of connection points: 2
#     Edge 32, Type (0, 0), BuildingBlock: XUDNAN_clean_linker_2, # of connection points: 2
#     Edge 33, Type (0, 0), BuildingBlock: XUDNAN_clean_linker_2, # of connection points: 2
#     Edge 34, Type (0, 0), BuildingBlock: XUDNAN_clean_linker_2, # of connection points: 2
#     Edge 35, Type (0, 0), BuildingBlock: XUDNAN_clean_linker_2, # of connection points: 2
#     Edge 36, Type (0, 0), BuildingBlock: XUDNAN_clean_linker_2, # of connection points: 2
#     Edge 37, Type (0, 0), BuildingBlock: XUDNAN_clean_linker_2, # of connection points: 2
#     Edge 38, Type (0, 0), BuildingBlock: XUDNAN_clean_linker_2, # of connection points: 2
#     Edge 39, Type (0, 0), BuildingBlock: XUDNAN_clean_linker_2, # of connection points: 2
#     Edge 40, Type (0, 0), BuildingBlock: XUDNAN_clean_linker_2, # of connection points: 2
#     Edge 41, Type (0, 0), BuildingBlock: XUDNAN_clean_linker_2, # of connection points: 2
#     Edge 42, Type (0, 0), BuildingBlock: XUDNAN_clean_linker_2, # of connection points: 2
#     Edge 43, Type (0, 0), BuildingBlock: XUDNAN_clean_linker_2, # of connection points: 2
#     Edge 44, Type (0, 0), BuildingBlock: XUDNAN_clean_linker_2, # of connection points: 2
#     Edge 45, Type (0, 0), BuildingBlock: XUDNAN_clean_linker_2, # of connection points: 2
#     Edge 46, Type (0, 0), BuildingBlock: XUDNAN_clean_linker_2, # of connection points: 2
#     Edge 47, Type (0, 0), BuildingBlock: XUDNAN_clean_linker_2, # of connection points: 2
#     Edge 48, Type (0, 0), BuildingBlock: XUDNAN_clean_linker_2, # of connection points: 2
#     Edge 49, Type (0, 0), BuildingBlock: XUDNAN_clean_linker_2, # of connection points: 2
#     Edge 50, Type (0, 0), BuildingBlock: XUDNAN_clean_linker_2, # of connection points: 2
#     Edge 51, Type (0, 0), BuildingBlock: XUDNAN_clean_linker_2, # of connection points: 2
#     Edge 52, Type (0, 0), BuildingBlock: XUDNAN_clean_linker_2, # of connection points: 2
#     Edge 53, Type (0, 0), BuildingBlock: XUDNAN_clean_linker_2, # of connection points: 2
#     Edge 54, Type (0, 0), BuildingBlock: XUDNAN_clean_linker_2, # of connection points: 2
#     Edge 55, Type (0, 0), BuildingBlock: XUDNAN_clean_linker_2, # of connection points: 2
# Relax obj value: 0.083
# Max RMSD: 0.146
# Mean RMSD: 0.146
data_MOF--net-vbk--node1-XOMCOT_clean_sbu_1--edge1-XUDNAN_clean_linker_2
_symmetry_space_group_name_H-M    P1
_symmetry_Int_Tables_number       1
_symmetry_cell_setting            triclinic
loop_
_symmetry_equiv_pos_as_xyz
'x, y, z'
_cell_length_a     67.534937
_cell_length_b     46.02358
_cell_length_c     27.138313
_cell_angle_alpha  89.697782
_cell_angle_beta   90.111057
_cell_angle_gamma 89.795675
loop_
_atom_site_label
_atom_site_type_symbol
_atom_site_fract_x
_atom_site_fract_y
_atom_site_fract_z
_atom_type_partial_charge
C0 C 0.11904 0.20901 0.08409 0.0
C1 C 0.09881 0.21146 0.0803 0.0
N2 N 0.09066 0.18537 0.0905 0.0
N3 N 0.12383 0.18145 0.09621 0.0
C4 C 0.10626 0.16757 0.09999 0.0
H5 H 0.12957 0.22652 0.08014 0.0
Co6 Co 0.14925 0.16789 0.11295 0.0
C7 C 0.15358 0.11259 0.06195 0.0
O8 O 0.17106 0.12211 0.04824 0.0
N9 N 0.17483 0.15392 0.13313 0.0
C10 C 0.19527 0.12471 0.17534 0.0
C11 C 0.17661 0.12791 0.15627 0.0
C12 C 0.19286 0.16643 0.14004 0.0
N13 N 0.20552 0.14901 0.16553 0.0
O14 O 0.13991 0.15978 0.17778 0.0
H15 H 0.16466 0.11264 0.16151 0.0
H16 H 0.19639 0.18856 0.13038 0.0
O17 O 0.14239 0.12873 0.08844 0.0
C18 C 0.14239 0.18486 0.19658 0.0
O19 O 0.15083 0.20514 0.16959 0.0
N20 N 0.15817 0.18033 0.05078 0.0
C21 C 0.15733 0.2203 0.97337 0.0
C22 C 0.14763 0.19356 0.96906 0.0
C23 C 0.14824 0.17374 0.00827 0.0
C24 C 0.1688 0.20539 0.05375 0.0
C25 C 0.16897 0.22537 0.01503 0.0
H26 H 0.13843 0.1553 0.00677 0.0
H27 H 0.17456 0.21238 0.08868 0.0
H28 H 0.10503 0.14504 0.11096 0.0
H29 H 0.09078 0.23139 0.0729 0.0
H30 H 0.20063 0.1063 0.19653 0.0
H31 H 0.13829 0.18909 0.93751 0.0
H32 H 0.17615 0.24615 0.02028 0.0
C33 C 0.42357 0.83054 0.58245 0.0
C34 C 0.44382 0.82847 0.58055 0.0
N35 N 0.45155 0.85334 0.59789 0.0
N36 N 0.41836 0.85681 0.60029 0.0
C37 C 0.43579 0.87031 0.60899 0.0
H38 H 0.41345 0.81317 0.57397 0.0
Co39 Co 0.39284 0.86842 0.62081 0.0
C40 C 0.38408 0.92069 0.56091 0.0
O41 O 0.36634 0.90992 0.55331 0.0
N42 N 0.36747 0.88035 0.64377 0.0
C43 C 0.34554 0.90898 0.68136 0.0
C44 C 0.36415 0.90734 0.66153 0.0
C45 C 0.35064 0.86569 0.65521 0.0
N46 N 0.33702 0.88274 0.67756 0.0
O47 O 0.40357 0.88262 0.681 0.0
H48 H 0.37497 0.9246 0.66198 0.0
H49 H 0.34844 0.84281 0.64912 0.0
O50 O 0.3966 0.9063 0.58699 0.0
C51 C 0.40721 0.86007 0.70697 0.0
O52 O 0.40472 0.83439 0.68699 0.0
N53 N 0.38216 0.85069 0.56485 0.0
C54 C 0.37695 0.80791 0.49362 0.0
C55 C 0.3844 0.83539 0.48065 0.0
C56 C 0.38719 0.85642 0.51703 0.0
C57 C 0.37411 0.82456 0.57736 0.0
C58 C 0.37101 0.80312 0.54231 0.0
H59 H 0.39528 0.87582 0.50745 0.0
H60 H 0.37262 0.81872 0.61571 0.0
H61 H 0.43688 0.89129 0.62659 0.0
H62 H 0.45217 0.80959 0.569 0.0
H63 H 0.33918 0.92767 0.69962 0.0
H64 H 0.38934 0.83989 0.44345 0.0
H65 H 0.36598 0.78195 0.55446 0.0
C66 C 0.11921 0.82136 0.88098 0.0
C67 C 0.09887 0.81987 0.88093 0.0
N68 N 0.09153 0.84717 0.88072 0.0
N69 N 0.12472 0.84945 0.88114 0.0
C70 C 0.10756 0.8647 0.88079 0.0
H71 H 0.12939 0.80316 0.88061 0.0
Co72 Co 0.15079 0.86254 0.87751 0.0
C73 C 0.15142 0.91139 0.94663 0.0
O74 O 0.16684 0.89857 0.96702 0.0
N75 N 0.17749 0.8762 0.87033 0.0
C76 C 0.20164 0.90687 0.84939 0.0
C77 C 0.18264 0.90451 0.86623 0.0
C78 C 0.19369 0.8619 0.85291 0.0
N79 N 0.2086 0.88006 0.84019 0.0
O80 O 0.14537 0.87699 0.81301 0.0
H81 H 0.17276 0.92281 0.87029 0.0
H82 H 0.19389 0.83898 0.84458 0.0
O83 O 0.14298 0.89962 0.90939 0.0
C84 C 0.15064 0.85521 0.78724 0.0
O85 O 0.15759 0.83199 0.80987 0.0
N86 N 0.15596 0.84426 0.9389 0.0
C87 C 0.15587 0.80225 0.01351 0.0
C88 C 0.14268 0.82577 0.01502 0.0
C89 C 0.14294 0.84656 0.97733 0.0
C90 C 0.16929 0.82193 0.93807 0.0
C91 C 0.16979 0.80105 0.9755 0.0
H92 H 0.13148 0.86301 0.97687 0.0
H93 H 0.17833 0.81835 0.90618 0.0
H94 H 0.10684 0.88817 0.87917 0.0
H95 H 0.09019 0.80015 0.88126 0.0
H96 H 0.20922 0.92705 0.84174 0.0
H97 H 0.13162 0.8273 0.04375 0.0
H98 H 0.17989 0.78281 0.97251 0.0
C99 C 0.42187 0.21372 0.40942 0.0
C100 C 0.4421 0.21288 0.41289 0.0
N101 N 0.44824 0.18547 0.40451 0.0
N102 N 0.41501 0.18695 0.39912 0.0
C103 C 0.4315 0.17013 0.3958 0.0
H104 H 0.41265 0.23272 0.41453 0.0
Co105 Co 0.38772 0.17929 0.39298 0.0
C106 C 0.38347 0.12128 0.43893 0.0
O107 O 0.36957 0.1323 0.46682 0.0
N108 N 0.35946 0.17222 0.38539 0.0
C109 C 0.32682 0.16886 0.39854 0.0
C110 C 0.34504 0.17218 0.42013 0.0
C111 C 0.34913 0.16905 0.34257 0.0
N112 N 0.32934 0.16709 0.34961 0.0
O113 O 0.39133 0.17442 0.32346 0.0
H114 H 0.34726 0.17513 0.4592 0.0
H115 H 0.35581 0.1685 0.30646 0.0
O116 O 0.39251 0.13751 0.4078 0.0
C117 C 0.3894 0.20114 0.31084 0.0
O118 O 0.38518 0.22007 0.3454 0.0
N119 N 0.38477 0.18968 0.45904 0.0
C120 C 0.39026 0.22642 0.53924 0.0
C121 C 0.39964 0.19909 0.53782 0.0
C122 C 0.39674 0.18093 0.49703 0.0
C123 C 0.37502 0.21561 0.46116 0.0
C124 C 0.37729 0.23399 0.50097 0.0
H125 H 0.40564 0.16147 0.49368 0.0
H126 H 0.36673 0.22337 0.42961 0.0
H127 H 0.43122 0.1471 0.388 0.0
H128 H 0.4516 0.23123 0.42042 0.0
H129 H 0.3127 0.16902 0.41735 0.0
H130 H 0.40992 0.19253 0.56649 0.0
H131 H 0.37019 0.25512 0.49945 0.0
C132 C 0.91961 0.82917 0.87357 0.0
C133 C 0.93983 0.82702 0.87423 0.0
N134 N 0.94747 0.85403 0.8738 0.0
N135 N 0.9143 0.85739 0.87315 0.0
C136 C 0.9316 0.87219 0.87335 0.0
H137 H 0.90931 0.81123 0.87307 0.0
Co138 Co 0.8878 0.86795 0.86881 0.0
C139 C 0.88725 0.93041 0.89003 0.0
O140 O 0.87692 0.93381 0.8493 0.0
N141 N 0.86081 0.87713 0.86279 0.0
C142 C 0.82945 0.89045 0.87443 0.0
C143 C 0.84791 0.88779 0.89611 0.0
C144 C 0.84986 0.87317 0.8217 0.0
N145 N 0.83076 0.88134 0.8274 0.0
O146 O 0.89318 0.88748 0.80752 0.0
H147 H 0.85171 0.89343 0.93359 0.0
H148 H 0.85576 0.8641 0.7882 0.0
O149 O 0.89283 0.9049 0.903 0.0
C150 C 0.89479 0.8849 0.76095 0.0
O151 O 0.89914 0.90844 0.73562 0.0
N152 N 0.88307 0.84876 0.92945 0.0
C153 C 0.87974 0.81538 0.0157 0.0
C154 C 0.89115 0.84076 0.0148 0.0
C155 C 0.89277 0.85696 0.97138 0.0
C156 C 0.8716 0.82444 0.92957 0.0
C157 C 0.8697 0.80742 0.97235 0.0
H158 H 0.90267 0.87531 0.97115 0.0
H159 H 0.86436 0.81774 0.89592 0.0
H160 H 0.93252 0.89565 0.87186 0.0
H161 H 0.94825 0.80697 0.87528 0.0
H162 H 0.81623 0.899 0.89168 0.0
H163 H 0.89961 0.84736 0.04676 0.0
H164 H 0.86072 0.788 0.97126 0.0
C165 C 0.61884 0.20717 0.4217 0.0
C166 C 0.59858 0.20752 0.42406 0.0
N167 N 0.59184 0.1808 0.41308 0.0
N168 N 0.62513 0.18032 0.40955 0.0
C169 C 0.60828 0.16468 0.40399 0.0
H170 H 0.62846 0.22545 0.42852 0.0
Co171 Co 0.65225 0.17111 0.40264 0.0
C172 C 0.65478 0.11273 0.44879 0.0
O173 O 0.66889 0.12242 0.47743 0.0
N174 N 0.68021 0.16248 0.39425 0.0
C175 C 0.71288 0.15748 0.40617 0.0
C176 C 0.69477 0.16014 0.42861 0.0
C177 C 0.69031 0.16119 0.35096 0.0
N178 N 0.71008 0.15845 0.35724 0.0
O179 O 0.64809 0.16653 0.33338 0.0
H180 H 0.69278 0.16182 0.46796 0.0
H181 H 0.68355 0.16285 0.31501 0.0
O182 O 0.64663 0.12983 0.41723 0.0
C183 C 0.65031 0.19317 0.32076 0.0
O184 O 0.65436 0.21203 0.35556 0.0
N185 N 0.65592 0.18101 0.46854 0.0
C186 C 0.65073 0.21889 0.54697 0.0
C187 C 0.64079 0.19209 0.54612 0.0
C188 C 0.64359 0.1733 0.50624 0.0
C189 C 0.66657 0.20606 0.47077 0.0
C190 C 0.66447 0.225 0.50987 0.0
H191 H 0.63412 0.15452 0.50284 0.0
H192 H 0.6752 0.21303 0.43939 0.0
H193 H 0.60808 0.14197 0.39391 0.0
H194 H 0.5895 0.22629 0.4323 0.0
H195 H 0.72712 0.15665 0.42453 0.0
H196 H 0.62998 0.18666 0.57408 0.0
H197 H 0.67209 0.24565 0.50816 0.0
C198 C 0.9179 0.21283 0.11256 0.0
C199 C 0.93815 0.21538 0.10947 0.0
N200 N 0.94617 0.18852 0.11056 0.0
N201 N 0.91309 0.18448 0.11501 0.0
C202 C 0.93062 0.17017 0.11425 0.0
H203 H 0.9073 0.2305 0.11307 0.0
Co204 Co 0.88731 0.17018 0.12041 0.0
C205 C 0.88637 0.11994 0.05445 0.0
O206 O 0.87046 0.13228 0.03567 0.0
N207 N 0.86104 0.15515 0.12908 0.0
C208 C 0.83892 0.12333 0.1579 0.0
C209 C 0.85785 0.12694 0.14116 0.0
C210 C 0.8436 0.16834 0.14065 0.0
N211 N 0.82997 0.14938 0.1579 0.0
O212 O 0.89335 0.15761 0.18592 0.0
H213 H 0.86911 0.11023 0.14248 0.0
H214 H 0.84148 0.19156 0.14231 0.0
O215 O 0.8955 0.13249 0.09005 0.0
C216 C 0.8867 0.17921 0.21031 0.0
O217 O 0.87821 0.20073 0.18612 0.0
N218 N 0.88153 0.18725 0.05843 0.0
C219 C 0.88229 0.22987 0.98423 0.0
C220 C 0.89464 0.20526 0.9818 0.0
C221 C 0.89406 0.18427 0.0192 0.0
C222 C 0.86897 0.21046 0.0603 0.0
C223 C 0.86872 0.2315 0.02315 0.0
H224 H 0.90522 0.16739 0.01914 0.0
H225 H 0.86063 0.21474 0.09308 0.0
H226 H 0.93193 0.14675 0.11611 0.0
H227 H 0.94634 0.23553 0.10765 0.0
H228 H 0.83266 0.10339 0.17228 0.0
H229 H 0.90578 0.20317 0.95341 0.0
H230 H 0.85872 0.2498 0.02672 0.0
C231 C 0.62107 0.82289 0.60026 0.0
C232 C 0.60114 0.81991 0.60867 0.0
N233 N 0.59445 0.84425 0.63052 0.0
N234 N 0.627 0.84932 0.6155 0.0
C235 C 0.61063 0.86119 0.63604 0.0
H236 H 0.63049 0.80696 0.58284 0.0
Co237 Co 0.65298 0.86424 0.61043 0.0
C238 C 0.62791 0.91383 0.5653 0.0
O239 O 0.61196 0.89813 0.55869 0.0
N240 N 0.67898 0.87847 0.60662 0.0
C241 C 0.70616 0.90098 0.58099 0.0
C242 C 0.68641 0.8962 0.57156 0.0
C243 C 0.69449 0.87274 0.63691 0.0
N244 N 0.71124 0.88622 0.62217 0.0
O245 O 0.65147 0.87674 0.67726 0.0
H246 H 0.67808 0.90483 0.54069 0.0
H247 H 0.69371 0.85831 0.66839 0.0
O248 O 0.64348 0.90245 0.58468 0.0
C249 C 0.65463 0.85295 0.70037 0.0
O250 O 0.65791 0.82919 0.67494 0.0
N251 N 0.6555 0.84819 0.54734 0.0
C252 C 0.65335 0.80548 0.47486 0.0
C253 C 0.64142 0.83058 0.47218 0.0
C254 C 0.64296 0.85192 0.50837 0.0
C255 C 0.66843 0.82538 0.54818 0.0
C256 C 0.66783 0.80405 0.51197 0.0
H257 H 0.63278 0.86974 0.50683 0.0
H258 H 0.67817 0.82235 0.57946 0.0
H259 H 0.61043 0.88254 0.65256 0.0
H260 H 0.59213 0.80181 0.59697 0.0
H261 H 0.71599 0.91439 0.55923 0.0
H262 H 0.62997 0.83303 0.44453 0.0
H263 H 0.678 0.7859 0.51477 0.0
C264 C 0.62614 0.71205 0.08392 0.0
C265 C 0.60587 0.71479 0.08114 0.0
N266 N 0.59777 0.68837 0.08818 0.0
N267 N 0.63088 0.684 0.09257 0.0
C268 C 0.61326 0.67007 0.09488 0.0
H269 H 0.63672 0.72959 0.08183 0.0
Co270 Co 0.65612 0.66951 0.10848 0.0
C271 C 0.65854 0.6151 0.05126 0.0
O272 O 0.67635 0.62254 0.03652 0.0
N273 N 0.68143 0.65436 0.12708 0.0
C274 C 0.70259 0.62378 0.16383 0.0
C275 C 0.68383 0.62713 0.14516 0.0
C276 C 0.69904 0.66736 0.13679 0.0
N277 N 0.71217 0.64918 0.1589 0.0
O278 O 0.64644 0.6589 0.17212 0.0
H279 H 0.67227 0.61099 0.14736 0.0
H280 H 0.70189 0.69018 0.13161 0.0
O281 O 0.64883 0.63195 0.07987 0.0
C282 C 0.64911 0.68311 0.19379 0.0
O283 O 0.65785 0.70422 0.16944 0.0
N284 N 0.66562 0.68441 0.04853 0.0
C285 C 0.67135 0.72476 0.9725 0.0
C286 C 0.66089 0.69886 0.96403 0.0
C287 C 0.65792 0.67909 0.00283 0.0
C288 C 0.67611 0.70915 0.05666 0.0
C289 C 0.67948 0.72921 0.01925 0.0
H290 H 0.64794 0.66115 0.99708 0.0
H291 H 0.67979 0.71541 0.09367 0.0
H292 H 0.61177 0.6473 0.10422 0.0
H293 H 0.5977 0.73481 0.07549 0.0
H294 H 0.70843 0.60436 0.18129 0.0
H295 H 0.65408 0.69471 0.92861 0.0
H296 H 0.6868 0.74938 0.02842 0.0
C297 C 0.91788 0.32852 0.60029 0.0
C298 C 0.93817 0.32619 0.60054 0.0
N299 N 0.94587 0.35301 0.60527 0.0
N300 N 0.91272 0.35671 0.6047 0.0
C301 C 0.9301 0.37115 0.6077 0.0
H302 H 0.90748 0.31078 0.59753 0.0
Co303 Co 0.88662 0.37045 0.61039 0.0
C304 C 0.88724 0.42302 0.54837 0.0
O305 O 0.87181 0.41179 0.52594 0.0
N306 N 0.86008 0.38459 0.6195 0.0
C307 C 0.83641 0.41504 0.64485 0.0
C308 C 0.85528 0.41282 0.62703 0.0
C309 C 0.84378 0.37007 0.63566 0.0
N310 N 0.82917 0.38814 0.65108 0.0
O311 O 0.89187 0.37955 0.67793 0.0
H312 H 0.86533 0.43092 0.62488 0.0
H313 H 0.84331 0.3468 0.64106 0.0
O314 O 0.89504 0.40934 0.58502 0.0
C315 C 0.888 0.35443 0.6959 0.0
O316 O 0.88089 0.33448 0.66623 0.0
N317 N 0.88151 0.35626 0.54614 0.0
C318 C 0.88449 0.31457 0.47188 0.0
C319 C 0.89663 0.33923 0.47136 0.0
C320 C 0.89498 0.35978 0.50891 0.0
C321 C 0.86856 0.3336 0.54472 0.0
C322 C 0.86965 0.31271 0.50771 0.0
H323 H 0.90611 0.37653 0.51102 0.0
H324 H 0.85892 0.3294 0.57534 0.0
H325 H 0.93117 0.39437 0.61308 0.0
H326 H 0.94661 0.30625 0.59734 0.0
H327 H 0.82912 0.43503 0.65538 0.0
H328 H 0.90822 0.34165 0.44413 0.0
H329 H 0.86016 0.29383 0.51005 0.0
C330 C 0.61798 0.32875 0.91593 0.0
C331 C 0.59773 0.32622 0.91353 0.0
N332 N 0.59043 0.34969 0.88984 0.0
N333 N 0.62355 0.354 0.89457 0.0
C334 C 0.6064 0.3658 0.87769 0.0
H335 H 0.62791 0.31301 0.93236 0.0
Co336 Co 0.64974 0.36752 0.8852 0.0
C337 C 0.62933 0.41677 0.93953 0.0
O338 O 0.61533 0.39982 0.95676 0.0
N339 N 0.67582 0.38 0.87447 0.0
C340 C 0.70534 0.40078 0.88146 0.0
C341 C 0.68656 0.39898 0.90102 0.0
C342 C 0.68843 0.37036 0.83942 0.0
N343 N 0.70653 0.38272 0.84255 0.0
O344 O 0.64257 0.38023 0.82078 0.0
H345 H 0.68126 0.4103 0.93325 0.0
H346 H 0.68442 0.3544 0.81221 0.0
O347 O 0.64325 0.40617 0.91299 0.0
C348 C 0.6436 0.35653 0.79695 0.0
O349 O 0.64889 0.33265 0.82035 0.0
N350 N 0.65749 0.35157 0.94558 0.0
C351 C 0.66204 0.31107 0.02127 0.0
C352 C 0.65343 0.33842 0.03032 0.0
C353 C 0.65148 0.35859 0.99195 0.0
C354 C 0.66761 0.32639 0.93734 0.0
C355 C 0.67012 0.30586 0.97468 0.0
H356 H 0.64413 0.37877 -0.00058 0.0
H357 H 0.67238 0.32114 0.90043 0.0
H358 H 0.60564 0.38623 0.85783 0.0
H359 H 0.58903 0.30881 0.92934 0.0
H360 H 0.71728 0.41389 0.89575 0.0
H361 H 0.64707 0.34362 0.0658 0.0
H362 H 0.67747 0.28553 0.96633 0.0
C363 C 0.92855 0.71457 0.36928 0.0
C364 C 0.94881 0.71582 0.37147 0.0
N365 N 0.95598 0.6885 0.375 0.0
N366 N 0.92278 0.68665 0.37157 0.0
C367 C 0.93981 0.67111 0.37467 0.0
H368 H 0.91857 0.73291 0.36595 0.0
Co369 Co 0.89619 0.67667 0.36864 0.0
C370 C 0.89569 0.61427 0.38964 0.0
O371 O 0.88557 0.61163 0.34851 0.0
N372 N 0.86916 0.66777 0.36475 0.0
C373 C 0.83839 0.65441 0.38264 0.0
C374 C 0.85747 0.65651 0.40024 0.0
C375 C 0.85683 0.67267 0.32628 0.0
N376 N 0.83799 0.66464 0.33599 0.0
O377 O 0.90106 0.65734 0.30723 0.0
H378 H 0.86247 0.65048 0.4368 0.0
H379 H 0.86158 0.68186 0.29168 0.0
O380 O 0.90132 0.63952 0.40332 0.0
C381 C 0.90123 0.66024 0.26047 0.0
O382 O 0.90612 0.63732 0.23442 0.0
N383 N 0.89193 0.69606 0.42883 0.0
C384 C 0.88744 0.72928 0.51431 0.0
C385 C 0.89906 0.70395 0.51456 0.0
C386 C 0.90126 0.6878 0.47141 0.0
C387 C 0.88045 0.72048 0.42776 0.0
C388 C 0.87796 0.73737 0.47012 0.0
H389 H 0.91107 0.66923 0.47202 0.0
H390 H 0.87348 0.72716 0.39359 0.0
H391 H 0.94032 0.64764 0.37685 0.0
H392 H 0.95759 0.73542 0.36946 0.0
H393 H 0.82574 0.64656 0.4031 0.0
H394 H 0.90706 0.69722 0.54734 0.0
H395 H 0.86881 0.75672 0.46814 0.0
C396 C 0.41717 0.33612 0.90545 0.0
C397 C 0.43732 0.3321 0.90763 0.0
N398 N 0.44623 0.35759 0.89709 0.0
N399 N 0.41325 0.36412 0.89442 0.0
C400 C 0.4312 0.37664 0.8893 0.0
H401 H 0.40608 0.31947 0.91034 0.0
Co402 Co 0.38839 0.37988 0.88046 0.0
C403 C 0.38545 0.43361 0.93677 0.0
O404 O 0.36797 0.42397 0.95024 0.0
N405 N 0.36319 0.39619 0.863 0.0
C406 C 0.34312 0.42684 0.82264 0.0
C407 C 0.36183 0.42261 0.84103 0.0
C408 C 0.34486 0.38468 0.85666 0.0
N409 N 0.33248 0.40291 0.83228 0.0
O410 O 0.39773 0.38962 0.81628 0.0
H411 H 0.37411 0.43733 0.83586 0.0
H412 H 0.3409 0.36262 0.86556 0.0
O413 O 0.39639 0.41795 0.90873 0.0
C414 C 0.39153 0.36765 0.7924 0.0
O415 O 0.38092 0.34804 0.81567 0.0
N416 N 0.37941 0.36571 0.94155 0.0
C417 C 0.37717 0.32505 0.01834 0.0
C418 C 0.38827 0.35066 0.02361 0.0
C419 C 0.38926 0.37068 0.98475 0.0
C420 C 0.36795 0.34157 0.93679 0.0
C421 C 0.36613 0.32151 0.97508 0.0
H422 H 0.39986 0.3881 0.98746 0.0
H423 H 0.36234 0.3355 0.90121 0.0
H424 H 0.43312 0.39898 0.87776 0.0
H425 H 0.44473 0.31177 0.9158 0.0
H426 H 0.33799 0.44556 0.80187 0.0
H427 H 0.39755 0.35413 0.05558 0.0
H428 H 0.35729 0.30227 0.96909 0.0
C429 C 0.12855 0.71021 0.37944 0.0
C430 C 0.10829 0.71291 0.37787 0.0
N431 N 0.1003 0.6861 0.3789 0.0
N432 N 0.13343 0.68184 0.38162 0.0
C433 C 0.11593 0.66761 0.38083 0.0
H434 H 0.13911 0.72781 0.37941 0.0
Co435 Co 0.1595 0.66832 0.3857 0.0
C436 C 0.15407 0.60556 0.39548 0.0
O437 O 0.1644 0.60256 0.35483 0.0
N438 N 0.18609 0.65489 0.38959 0.0
C439 C 0.21401 0.63501 0.41786 0.0
C440 C 0.19446 0.64091 0.42822 0.0
C441 C 0.20095 0.65726 0.3563 0.0
N442 N 0.21813 0.64531 0.37243 0.0
O443 O 0.1575 0.65635 0.31873 0.0
H444 H 0.18684 0.63548 0.46204 0.0
H445 H 0.19927 0.66731 0.32057 0.0
O446 O 0.15048 0.63101 0.41172 0.0
C447 C 0.16263 0.67892 0.2946 0.0
O448 O 0.1689 0.7017 0.31908 0.0
N449 N 0.16131 0.68383 0.44859 0.0
C450 C 0.15627 0.72521 0.52183 0.0
C451 C 0.1449 0.69968 0.52189 0.0
C452 C 0.14768 0.67908 0.48477 0.0
C453 C 0.17348 0.70733 0.45014 0.0
C454 C 0.17132 0.72821 0.48669 0.0
H455 H 0.1376 0.66097 0.48237 0.0
H456 H 0.18367 0.71132 0.42017 0.0
H457 H 0.11465 0.6442 0.38259 0.0
H458 H 0.10012 0.73314 0.37565 0.0
H459 H 0.2244 0.62435 0.44243 0.0
H460 H 0.13326 0.69642 0.54873 0.0
H461 H 0.18028 0.74765 0.4849 0.0
C462 C 0.42703 0.72035 0.12501 0.0
C463 C 0.44724 0.72071 0.12272 0.0
N464 N 0.4539 0.69315 0.11927 0.0
N465 N 0.42055 0.69274 0.12257 0.0
C466 C 0.43731 0.6765 0.11904 0.0
H467 H 0.41759 0.73925 0.12821 0.0
Co468 Co 0.39325 0.68453 0.12524 0.0
C469 C 0.38742 0.63337 0.06139 0.0
O470 O 0.3719 0.64634 0.0421 0.0
N471 N 0.36504 0.67727 0.1293 0.0
C472 C 0.33223 0.68008 0.11824 0.0
C473 C 0.35041 0.68636 0.09847 0.0
C474 C 0.35493 0.66495 0.16729 0.0
N475 N 0.33502 0.66686 0.16195 0.0
O476 O 0.39682 0.66807 0.18955 0.0
H477 H 0.3525 0.69703 0.06336 0.0
H478 H 0.36195 0.65548 0.19923 0.0
O479 O 0.39778 0.64645 0.09392 0.0
C480 C 0.39608 0.6905 0.21687 0.0
O481 O 0.39304 0.71597 0.1961 0.0
N482 N 0.39026 0.70465 0.06597 0.0
C483 C 0.39144 0.74839 0.99445 0.0
C484 C 0.39904 0.72043 0.98459 0.0
C485 C 0.39867 0.69891 0.02138 0.0
C486 C 0.38275 0.7315 0.07582 0.0
C487 C 0.38308 0.75351 0.04078 0.0
H488 H 0.40604 0.67842 0.01494 0.0
H489 H 0.37724 0.73621 0.1123 0.0
H490 H 0.43733 0.65303 0.11698 0.0
H491 H 0.45627 0.74008 0.12277 0.0
H492 H 0.31803 0.68511 0.10166 0.0
H493 H 0.40574 0.71544 0.94943 0.0
H494 H 0.37771 0.7748 0.05114 0.0
C495 C 0.11738 0.32529 0.6252 0.0
C496 C 0.09713 0.32417 0.62585 0.0
N497 N 0.08994 0.3515 0.62264 0.0
N498 N 0.1232 0.35314 0.62114 0.0
C499 C 0.10616 0.36875 0.61976 0.0
H500 H 0.12734 0.30686 0.62697 0.0
Co501 Co 0.15011 0.36255 0.6195 0.0
C502 C 0.15158 0.41349 0.5527 0.0
O503 O 0.16391 0.39858 0.52537 0.0
N504 N 0.17821 0.37134 0.61969 0.0
C505 C 0.21058 0.37344 0.60183 0.0
C506 C 0.19192 0.36831 0.58353 0.0
C507 C 0.18933 0.37858 0.65958 0.0
N508 N 0.20891 0.37953 0.64991 0.0
O509 O 0.14757 0.37621 0.6853 0.0
H510 H 0.18895 0.36133 0.54633 0.0
H511 H 0.18347 0.38245 0.6959 0.0
O512 O 0.1443 0.40179 0.59164 0.0
C513 C 0.15122 0.35305 0.70981 0.0
O514 O 0.15725 0.32982 0.6861 0.0
N515 N 0.15161 0.34452 0.55799 0.0
C516 C 0.14551 0.30183 0.48688 0.0
C517 C 0.13486 0.32814 0.48527 0.0
C518 C 0.13806 0.34917 0.5213 0.0
C519 C 0.16224 0.3193 0.55967 0.0
C520 C 0.15984 0.29809 0.52383 0.0
H521 H 0.12839 0.36792 0.52228 0.0
H522 H 0.17183 0.31482 0.59077 0.0
H523 H 0.1057 0.39221 0.61709 0.0
H524 H 0.08842 0.30451 0.62748 0.0
H525 H 0.22439 0.37102 0.58203 0.0
H526 H 0.12324 0.33181 0.4584 0.0
H527 H 0.16865 0.27844 0.5264 0.0
H528 H 0.22119 0.13187 0.25305 0.0
H529 H 0.23401 0.18154 0.12093 0.0
H530 H 0.26804 0.1907 0.15214 0.0
H531 H 0.2479 0.17725 0.33683 0.0
H532 H 0.25611 0.14723 0.37471 0.0
H533 H 0.23314 0.14478 0.34121 0.0
H534 H 0.24548 0.0975 0.29962 0.0
H535 H 0.26854 0.0999 0.33277 0.0
H536 H 0.26859 0.09771 0.26648 0.0
H537 H 0.30143 0.19277 0.19846 0.0
H538 H 0.32941 0.19136 0.25775 0.0
H539 H 0.29371 0.14072 0.35893 0.0
C540 C 0.23117 0.1445 0.2304 0.0
C541 C 0.22502 0.15574 0.18423 0.0
C542 C 0.23842 0.17279 0.15641 0.0
C543 C 0.25778 0.17792 0.17376 0.0
C544 C 0.26343 0.16608 0.21922 0.0
C545 C 0.25036 0.14998 0.2473 0.0
C546 C 0.25967 0.1402 0.29541 0.0
C547 C 0.24854 0.15315 0.33964 0.0
C548 C 0.26063 0.10685 0.29874 0.0
C549 C 0.28011 0.15318 0.29023 0.0
C550 C 0.28214 0.16784 0.24595 0.0
C551 C 0.29991 0.18138 0.23323 0.0
C552 C 0.31579 0.18029 0.26696 0.0
C553 C 0.31375 0.166 0.31308 0.0
C554 C 0.29568 0.15207 0.32427 0.0
H555 H 0.22993 0.9155 0.77974 0.0
H556 H 0.22912 0.82885 0.84346 0.0
H557 H 0.26125 0.81819 0.80319 0.0
H558 H 0.25284 0.89677 0.66369 0.0
H559 H 0.26713 0.92975 0.66146 0.0
H560 H 0.2435 0.92935 0.69215 0.0
H561 H 0.26001 0.94824 0.77208 0.0
H562 H 0.28366 0.94878 0.74168 0.0
H563 H 0.28067 0.92855 0.79822 0.0
H564 H 0.29492 0.81858 0.75864 0.0
H565 H 0.32655 0.83037 0.71697 0.0
H566 H 0.30459 0.91704 0.68507 0.0
C567 C 0.23641 0.89427 0.78569 0.0
C568 C 0.22694 0.87309 0.81529 0.0
C569 C 0.23597 0.84539 0.82076 0.0
C570 C 0.25425 0.83918 0.79809 0.0
C571 C 0.26327 0.86084 0.76983 0.0
C572 C 0.25455 0.88781 0.76362 0.0
C573 C 0.26742 0.90793 0.73336 0.0
C574 C 0.2571 0.91644 0.68479 0.0
C575 C 0.27329 0.93496 0.76312 0.0
C576 C 0.28503 0.88836 0.72425 0.0
C577 C 0.28237 0.86115 0.74495 0.0
C578 C 0.29704 0.83977 0.74204 0.0
C579 C 0.31492 0.84659 0.71807 0.0
C580 C 0.31805 0.87464 0.69779 0.0
C581 C 0.30271 0.89549 0.7005 0.0
H582 H 0.72025 0.87964 0.71991 0.0
H583 H 0.74644 0.88927 0.57493 0.0
H584 H 0.77977 0.88818 0.61211 0.0
H585 H 0.75479 0.92515 0.78318 0.0
H586 H 0.75559 0.90323 0.83839 0.0
H587 H 0.73365 0.90359 0.80052 0.0
H588 H 0.7354 0.84764 0.79289 0.0
H589 H 0.75732 0.84703 0.83088 0.0
H590 H 0.75778 0.8308 0.77058 0.0
H591 H 0.81019 0.88669 0.66432 0.0
H592 H 0.83594 0.88599 0.72855 0.0
H593 H 0.79063 0.87754 0.84096 0.0
C594 C 0.73301 0.8812 0.69601 0.0
C595 C 0.73069 0.8846 0.64439 0.0
C596 C 0.7478 0.887 0.6145 0.0
C597 C 0.76681 0.88623 0.63528 0.0
C598 C 0.76858 0.88315 0.68618 0.0
C599 C 0.75219 0.88071 0.71627 0.0
C600 C 0.75834 0.87844 0.77007 0.0
C601 C 0.7501 0.90414 0.79978 0.0
C602 C 0.75182 0.84924 0.79241 0.0
C603 C 0.78073 0.88009 0.76539 0.0
C604 C 0.78626 0.88262 0.71658 0.0
C605 C 0.80605 0.88459 0.70267 0.0
C606 C 0.82062 0.88399 0.73954 0.0
C607 C 0.81544 0.88155 0.79001 0.0
C608 C 0.79513 0.87962 0.80287 0.0
H609 H 0.74576 0.13135 0.35915 0.0
H610 H 0.70909 0.18944 0.27163 0.0
H611 H 0.7362 0.19456 0.21097 0.0
H612 H 0.79181 0.168 0.3397 0.0
H613 H 0.80616 0.13499 0.33631 0.0
H614 H 0.78382 0.13594 0.37241 0.0
H615 H 0.76993 0.0923 0.32331 0.0
H616 H 0.79228 0.09112 0.2873 0.0
H617 H 0.76859 0.09447 0.25703 0.0
H618 H 0.76852 0.19501 0.1617 0.0
H619 H 0.80166 0.18651 0.12448 0.0
H620 H 0.81614 0.12701 0.2434 0.0
C621 C 0.74345 0.14513 0.32721 0.0
C622 C 0.72532 0.16 0.32014 0.0
C623 C 0.72276 0.17758 0.27753 0.0
C624 C 0.73815 0.18081 0.24309 0.0
C625 C 0.75594 0.16611 0.25156 0.0
C626 C 0.75853 0.14834 0.29233 0.0
C627 C 0.77886 0.1344 0.29262 0.0
C628 C 0.79087 0.14391 0.33795 0.0
C629 C 0.77731 0.1011 0.28988 0.0
C630 C 0.78734 0.14705 0.24566 0.0
C631 C 0.77405 0.16559 0.22267 0.0
C632 C 0.77895 0.18033 0.17924 0.0
C633 C 0.79777 0.17555 0.15848 0.0
C634 C 0.81125 0.15589 0.18077 0.0
C635 C 0.80595 0.14177 0.22513 0.0
H636 H 0.73085 0.62376 0.23718 0.0
H637 H 0.73755 0.69051 0.12505 0.0
H638 H 0.77077 0.70207 0.15819 0.0
H639 H 0.75487 0.66195 0.33477 0.0
H640 H 0.7664 0.62984 0.36032 0.0
H641 H 0.74327 0.627 0.32761 0.0
H642 H 0.75888 0.58918 0.26872 0.0
H643 H 0.78204 0.59185 0.30132 0.0
H644 H 0.78119 0.59823 0.23576 0.0
H645 H 0.80372 0.70566 0.20373 0.0
H646 H 0.83284 0.70198 0.25855 0.0
H647 H 0.80432 0.63224 0.33963 0.0
C648 C 0.73931 0.64061 0.21911 0.0
C649 C 0.73155 0.65612 0.1782 0.0
C650 C 0.74308 0.67847 0.15658 0.0
C651 C 0.76201 0.68508 0.17503 0.0
C652 C 0.7692 0.66923 0.21527 0.0
C653 C 0.75814 0.64751 0.23708 0.0
C654 C 0.76908 0.6338 0.28014 0.0
C655 C 0.75773 0.63844 0.32857 0.0
C656 C 0.77303 0.60135 0.27091 0.0
C657 C 0.78809 0.65112 0.27919 0.0
C658 C 0.78793 0.67142 0.24148 0.0
C659 C 0.80397 0.68981 0.23332 0.0
C660 C 0.82054 0.68742 0.26456 0.0
C661 C 0.82098 0.66682 0.30366 0.0
C662 C 0.80445 0.64848 0.31068 0.0
H663 H 0.81018 0.4202 0.72067 0.0
H664 H 0.80676 0.33949 0.63937 0.0
H665 H 0.77487 0.32838 0.68062 0.0
H666 H 0.78956 0.39363 0.83407 0.0
H667 H 0.77646 0.42697 0.84653 0.0
H668 H 0.79909 0.42774 0.81156 0.0
H669 H 0.78093 0.4544 0.74016 0.0
H670 H 0.75825 0.45374 0.7749 0.0
H671 H 0.75898 0.43851 0.71387 0.0
H672 H 0.74241 0.32745 0.72992 0.0
H673 H 0.7135 0.33572 0.78347 0.0
H674 H 0.73857 0.41794 0.82984 0.0
C675 C 0.80274 0.40026 0.71098 0.0
C676 C 0.81095 0.38083 0.6762 0.0
C677 C 0.80082 0.35464 0.66594 0.0
C678 C 0.78267 0.34824 0.68907 0.0
C679 C 0.7749 0.36819 0.72261 0.0
C680 C 0.78473 0.3936 0.73361 0.0
C681 C 0.77339 0.41164 0.77063 0.0
C682 C 0.78534 0.41519 0.81853 0.0
C683 C 0.76754 0.44132 0.74855 0.0
C684 C 0.75546 0.39261 0.7786 0.0
C685 C 0.75655 0.36761 0.75072 0.0
C686 C 0.74149 0.34697 0.75188 0.0
C687 C 0.72499 0.352 0.78232 0.0
C688 C 0.72357 0.37754 0.8113 0.0
C689 C 0.73914 0.398 0.80902 0.0
H690 H 0.24472 0.40504 0.63616 0.0
H691 H 0.20946 0.35791 0.74283 0.0
H692 H 0.23727 0.35888 0.80198 0.0
H693 H 0.29093 0.37012 0.66315 0.0
H694 H 0.3055 0.40255 0.65556 0.0
H695 H 0.28264 0.39858 0.62205 0.0
H696 H 0.26976 0.44707 0.65839 0.0
H697 H 0.29262 0.45123 0.69187 0.0
H698 H 0.26936 0.45179 0.72429 0.0
H699 H 0.26984 0.3627 0.84782 0.0
H700 H 0.3037 0.37267 0.87903 0.0
H701 H 0.31721 0.41862 0.74352 0.0
C702 C 0.24288 0.39506 0.67206 0.0
C703 C 0.22486 0.3816 0.68513 0.0
C704 C 0.22296 0.36883 0.73249 0.0
C705 C 0.23876 0.36906 0.76614 0.0
C706 C 0.25637 0.38237 0.75203 0.0
C707 C 0.25845 0.39541 0.7063 0.0
C708 C 0.27887 0.40848 0.7004 0.0
C709 C 0.29015 0.39406 0.65777 0.0
C710 C 0.27757 0.44161 0.69333 0.0
C711 C 0.28797 0.4006 0.74978 0.0
C712 C 0.27484 0.38532 0.77892 0.0
C713 C 0.28019 0.37489 0.82549 0.0
C714 C 0.29942 0.3805 0.84285 0.0
C715 C 0.31292 0.39667 0.81397 0.0
C716 C 0.30705 0.40671 0.76681 0.0
H717 H 0.23027 0.67893 0.29451 0.0
H718 H 0.24901 0.60835 0.39095 0.0
H719 H 0.28103 0.60626 0.34783 0.0
H720 H 0.25259 0.6507 0.18397 0.0
H721 H 0.25948 0.68608 0.16107 0.0
H722 H 0.23813 0.68222 0.20019 0.0
H723 H 0.25272 0.72002 0.26037 0.0
H724 H 0.27417 0.72392 0.2216 0.0
H725 H 0.27715 0.7143 0.28567 0.0
H726 H 0.31151 0.61219 0.29412 0.0
H727 H 0.3373 0.62508 0.23334 0.0
H728 H 0.29825 0.69092 0.17139 0.0
C729 C 0.24093 0.66279 0.30649 0.0
C730 C 0.2369 0.64387 0.34659 0.0
C731 C 0.25164 0.62344 0.36103 0.0
C732 C 0.26992 0.62193 0.33649 0.0
C733 C 0.27334 0.64091 0.29728 0.0
C734 C 0.25921 0.66089 0.28228 0.0
C735 C 0.26654 0.67881 0.239 0.0
C736 C 0.2534 0.67416 0.19336 0.0
C737 C 0.26772 0.71118 0.2525 0.0
C738 C 0.28699 0.66577 0.23198 0.0
C739 C 0.29068 0.64401 0.26603 0.0
C740 C 0.30874 0.62916 0.26721 0.0
C741 C 0.32336 0.63673 0.23265 0.0
C742 C 0.31988 0.65889 0.19717 0.0
C743 C 0.30136 0.6735 0.1972 0.0
H744 H 0.97551 0.21959 0.06668 0.0
H745 H 0.9643 0.1413 0.15162 0.0
H746 H 1.0002 0.1304 0.15242 0.0
H747 H 1.01561 0.19018 0.99243 0.0
H748 H 0.02929 0.22374 0.99266 0.0
H749 H 1.00267 0.2244 0.99688 0.0
H750 H 1.00504 0.25412 0.07752 0.0
H751 H 0.03164 0.25351 0.07359 0.0
H752 H 1.01953 0.24014 0.12828 0.0
H753 H 0.03784 0.12987 0.14799 0.0
H754 H 0.07349 0.13911 0.13762 0.0
H755 H 0.05968 0.21718 0.05342 0.0
C756 C 0.98056 0.20014 0.08548 0.0
C757 C 0.96702 0.18133 0.10919 0.0
C758 C 0.97431 0.15589 0.13276 0.0
C759 C 0.9947 0.14959 0.13358 0.0
C760 C 1.00764 0.1688 0.11028 0.0
C761 C 1.00081 0.19346 0.08638 0.0
C762 C 1.01773 0.21089 0.06486 0.0
C763 C 1.01623 0.21238 0.00835 0.0
C764 C 1.01852 0.24147 0.08743 0.0
C765 C 0.03522 0.19251 0.0812 0.0
C766 C 0.02913 0.16828 0.10718 0.0
C767 C 0.04274 0.14865 0.12724 0.0
C768 C 0.06306 0.15406 0.12089 0.0
C769 C 0.06971 0.17895 0.09463 0.0
C770 C 0.05539 0.19811 0.07415 0.0
H771 H 0.56325 0.80787 0.64292 0.0
H772 H 0.57876 0.89898 0.62987 0.0
H773 H 0.54331 0.91195 0.62699 0.0
H774 H 0.52542 0.80933 0.55697 0.0
H775 H 0.50958 0.78407 0.58892 0.0
H776 H 0.53596 0.78231 0.59768 0.0
H777 H 0.53144 0.78762 0.69204 0.0
H778 H 0.50498 0.78905 0.68365 0.0
H779 H 0.51745 0.81788 0.7158 0.0
H780 H 0.50584 0.91433 0.61607 0.0
H781 H 0.47016 0.90569 0.60054 0.0
H782 H 0.47983 0.81309 0.61941 0.0
C783 C 0.55924 0.83061 0.64024 0.0
C784 C 0.57391 0.85234 0.63668 0.0
C785 C 0.56792 0.88187 0.63343 0.0
C786 C 0.54775 0.88947 0.63146 0.0
C787 C 0.53372 0.86734 0.63316 0.0
C788 C 0.53925 0.83851 0.63802 0.0
C789 C 0.5215 0.81862 0.63561 0.0
C790 C 0.52323 0.79734 0.59221 0.0
C791 C 0.51868 0.80234 0.6847 0.0
C792 C 0.50516 0.84064 0.62706 0.0
C793 C 0.51239 0.86867 0.62633 0.0
C794 C 0.50001 0.89246 0.61716 0.0
C795 C 0.47977 0.88739 0.60841 0.0
C796 C 0.47217 0.85873 0.60837 0.0
C797 C 0.48513 0.83523 0.61838 0.0
H798 H 0.97717 0.82113 0.83648 0.0
H799 H 0.96521 0.90257 0.91049 0.0
H800 H 1.00133 0.91175 0.91602 0.0
H801 H 1.0176 0.80014 0.90942 0.0
H802 H 0.03117 0.78367 0.85964 0.0
H803 H 1.00456 0.78531 0.85731 0.0
H804 H 1.00619 0.81196 0.77301 0.0
H805 H 0.03284 0.81027 0.77494 0.0
H806 H 1.02049 0.8448 0.76735 0.0
H807 H 0.03941 0.90966 0.91837 0.0
H808 H 0.07506 0.89681 0.91695 0.0
H809 H 0.06101 0.81636 0.84236 0.0
C810 C 0.98205 0.84097 0.8538 0.0
C811 C 0.9683 0.86105 0.87337 0.0
C812 C 0.97543 0.88698 0.89489 0.0
C813 C 0.99593 0.89229 0.89835 0.0
C814 C 1.00906 0.87155 0.87975 0.0
C815 C 1.00231 0.84651 0.85761 0.0
C816 C 1.01921 0.8269 0.84237 0.0
C817 C 1.01806 0.79727 0.86878 0.0
C818 C 1.01971 0.82328 0.78608 0.0
C819 C 0.03664 0.84443 0.86035 0.0
C820 C 0.0306 0.87027 0.88139 0.0
C821 C 0.04425 0.88958 0.90158 0.0
C822 C 0.06448 0.88215 0.90047 0.0
C823 C 0.07088 0.85551 0.8797 0.0
C824 C 0.05666 0.83669 0.85905 0.0
H825 H 0.56167 0.20376 0.46589 0.0
H826 H 0.57503 0.13927 0.35492 0.0
H827 H 0.5391 0.12938 0.34555 0.0
H828 H 0.51883 0.16712 0.52079 0.0
H829 H 0.50589 0.20096 0.53021 0.0
H830 H 0.53256 0.19999 0.53172 0.0
H831 H 0.53371 0.23989 0.464 0.0
H832 H 0.5071 0.24093 0.46218 0.0
H833 H 0.52087 0.23416 0.40656 0.0
H834 H 0.50071 0.13044 0.34359 0.0
H835 H 0.4649 0.14263 0.34884 0.0
H836 H 0.47796 0.20665 0.46063 0.0
C837 C 0.55713 0.18738 0.4398 0.0
C838 C 0.57123 0.17241 0.41093 0.0
C839 C 0.56455 0.15084 0.37776 0.0
C840 C 0.54415 0.14518 0.37212 0.0
C841 C 0.53063 0.16104 0.40029 0.0
C842 C 0.53699 0.18156 0.43376 0.0
C843 C 0.51976 0.19707 0.45768 0.0
C844 C 0.51923 0.1909 0.5134 0.0
C845 C 0.52041 0.22995 0.44693 0.0
C846 C 0.50262 0.18276 0.43157 0.0
C847 C 0.50902 0.16176 0.39898 0.0
C848 C 0.4956 0.14665 0.36941 0.0
C849 C 0.47528 0.1536 0.37273 0.0
C850 C 0.46861 0.1757 0.40492 0.0
C851 C 0.48255 0.18988 0.43527 0.0
H852 H 0.48592 0.72415 0.14939 0.0
H853 H 0.46913 0.64271 0.08145 0.0
H854 H 0.50466 0.63066 0.07013 0.0
H855 H 0.5243 0.74079 0.06704 0.0
H856 H 0.53983 0.75728 0.1131 0.0
H857 H 0.51336 0.75763 0.12034 0.0
H858 H 0.51694 0.7327 0.20579 0.0
H859 H 0.54346 0.73235 0.19891 0.0
H860 H 0.53044 0.69896 0.21099 0.0
H861 H 0.54292 0.6292 0.06304 0.0
H862 H 0.57902 0.63914 0.05891 0.0
H863 H 0.5693 0.72283 0.12714 0.0
C864 C 0.48951 0.70375 0.13196 0.0
C865 C 0.47452 0.68452 0.11597 0.0
C866 C 0.48023 0.65777 0.0944 0.0
C867 C 0.50041 0.6508 0.08764 0.0
C868 C 0.51473 0.67078 0.1027 0.0
C869 C 0.50941 0.6967 0.12449 0.0
C870 C 0.52729 0.71536 0.1353 0.0
C871 C 0.52612 0.74447 0.10726 0.0
C872 C 0.52967 0.72011 0.19106 0.0
C873 C 0.54361 0.69622 0.1154 0.0
C874 C 0.53623 0.67037 0.09736 0.0
C875 C 0.54877 0.64939 0.07714 0.0
C876 C 0.56924 0.65515 0.07503 0.0
C877 C 0.57693 0.68186 0.09226 0.0
C878 C 0.56385 0.70242 0.11297 0.0
H879 H 0.05894 0.31991 0.65733 0.0
H880 H 0.07351 0.40126 0.58467 0.0
H881 H 0.03775 0.4126 0.57711 0.0
H882 H 1.019 0.3022 0.58043 0.0
H883 H 1.00454 0.28578 0.62882 0.0
H884 H 0.03113 0.28587 0.63299 0.0
H885 H 0.02909 0.31129 0.71785 0.0
H886 H 1.00245 0.31121 0.71403 0.0
H887 H 1.01546 0.34487 0.7234 0.0
H888 H 0.99963 0.41319 0.57348 0.0
H889 H 0.96366 0.40246 0.57255 0.0
H890 H 0.97518 0.31984 0.64458 0.0
C891 C 0.05477 0.34016 0.63975 0.0
C892 C 0.06921 0.35959 0.62136 0.0
C893 C 0.06284 0.38609 0.59951 0.0
C894 C 0.04252 0.39266 0.59488 0.0
C895 C 0.02874 0.37256 0.61239 0.0
C896 C 0.0347 0.34687 0.63449 0.0
C897 C 1.01721 0.32803 0.64804 0.0
C898 C 1.01802 0.29875 0.62094 0.0
C899 C 1.01598 0.3236 0.70416 0.0
C900 C 1.00037 0.34681 0.62933 0.0
C901 C 1.0072 0.3726 0.60942 0.0
C902 C 0.99419 0.39311 0.58922 0.0
C903 C 0.97378 0.3869 0.58899 0.0
C904 C 0.96662 0.36025 0.60824 0.0
C905 C 0.98018 0.34023 0.62904 0.0
H906 H 0.47546 0.31708 0.8845 0.0
H907 H 0.46525 0.40986 0.89945 0.0
H908 H 0.50118 0.41835 0.89252 0.0
H909 H 0.51851 0.31418 0.95883 0.0
H910 H 0.53063 0.28692 0.92204 0.0
H911 H 0.50402 0.28852 0.92425 0.0
H912 H 0.50273 0.29272 0.829 0.0
H913 H 0.52937 0.29126 0.82651 0.0
H914 H 0.51626 0.32129 0.7985 0.0
H915 H 0.53871 0.41641 0.88738 0.0
H916 H 0.57435 0.40391 0.88873 0.0
H917 H 0.55964 0.31247 0.87931 0.0
C918 C 0.48061 0.33924 0.88653 0.0
C919 C 0.46728 0.36277 0.89247 0.0
C920 C 0.47496 0.39141 0.89424 0.0
C921 C 0.49542 0.39648 0.89047 0.0
C922 C 0.50807 0.37272 0.88493 0.0
C923 C 0.50093 0.34467 0.88312 0.0
C924 C 0.51761 0.32273 0.87923 0.0
C925 C 0.51769 0.30187 0.92374 0.0
C926 C 0.51642 0.30602 0.8304 0.0
C927 C 0.53531 0.34277 0.88008 0.0
C928 C 0.52954 0.37156 0.88272 0.0
C929 C 0.54337 0.39394 0.88498 0.0
C930 C 0.5636 0.38665 0.8854 0.0
C931 C 0.5698 0.35721 0.88405 0.0
C932 C 0.55538 0.33514 0.88066 0.0
H933 H 0.98616 0.72106 0.41059 0.0
H934 H 0.97298 0.63786 0.34405 0.0
H935 H 1.00886 0.62639 0.34195 0.0
H936 H 0.02799 0.73688 0.33877 0.0
H937 H 0.04141 0.75419 0.38794 0.0
H938 H 1.01477 0.75438 0.38812 0.0
H939 H 1.01474 0.73071 0.47502 0.0
H940 H 0.04141 0.73057 0.47522 0.0
H941 H 0.02808 0.6972 0.48519 0.0
H942 H 0.04696 0.62598 0.34233 0.0
H943 H 0.08289 0.63644 0.34573 0.0
H944 H 0.07013 0.72012 0.41151 0.0
C945 C 0.99073 0.70036 0.3956 0.0
C946 C 0.97667 0.68043 0.37723 0.0
C947 C 0.9834 0.65339 0.35875 0.0
C948 C 1.00377 0.64676 0.35722 0.0
C949 C 1.01722 0.6673 0.37464 0.0
C950 C 1.01088 0.69349 0.39376 0.0
C951 C 0.02812 0.71247 0.40847 0.0
C952 C 0.02806 0.74116 0.37906 0.0
C953 C 0.02808 0.71805 0.46429 0.0
C954 C 0.04527 0.6932 0.39377 0.0
C955 C 0.03879 0.66712 0.37468 0.0
C956 C 0.05214 0.64626 0.35761 0.0
C957 C 0.07254 0.65234 0.35985 0.0
C958 C 0.07943 0.67916 0.37871 0.0
C959 C 0.06547 0.69958 0.39626 0.0
H960 H 0.1781 0.06673 0.05085 0.0
H961 H 0.11626 0.09148 0.0409 0.0
H962 H 0.10814 0.04214 0.00962 0.0
H963 H 0.1806 0.02441 0.94336 0.0
H964 H 0.197 0.99756 0.96984 0.0
H965 H 0.1974 0.03431 0.99211 0.0
H966 H 0.19083 1.01589 0.08106 0.0
H967 H 0.19059 0.97904 0.05914 0.0
H968 H 0.16972 0.99305 0.09293 0.0
H969 H 0.108 0.98995 0.97235 0.0
H970 H 0.11522 0.93977 0.94321 0.0
H971 H 0.1768 0.95074 0.98411 0.0
C972 C 0.1628 0.06176 0.04235 0.0
C973 C 0.1478 0.08284 0.04786 0.0
C974 C 0.12794 0.07547 0.037 0.0
C975 C 0.12325 0.0476 0.01901 0.0
C976 C 0.13857 0.0274 0.01308 0.0
C977 C 0.15789 0.03417 0.02539 0.0
C978 C 0.17178 1.00896 0.01674 0.0
C979 C 0.18762 1.01679 0.97822 0.0
C980 C 0.18128 0.99863 0.06537 0.0
C981 C 0.15741 0.98686 0.99701 0.0
C982 C 0.13832 0.99773 0.99447 0.0
C983 C 0.12286 0.98119 0.97492 0.0
C984 C 0.12707 0.95283 0.95827 0.0
C985 C 0.14648 0.94131 0.96212 0.0
C986 C 0.16172 0.95871 0.9816 0.0
H987 H 0.3581 0.96245 0.53097 0.0
H988 H 0.42098 0.9445 0.54336 0.0
H989 H 0.42823 0.99275 0.50607 0.0
H990 H 0.35907 1.00194 0.41583 0.0
H991 H 0.34036 0.02749 0.43507 0.0
H992 H 0.34047 0.99107 0.4597 0.0
H993 H 0.34169 1.01138 0.54861 0.0
H994 H 0.34137 0.04781 0.52427 0.0
H995 H 0.361 0.03647 0.56525 0.0
H996 H 0.428 0.04444 0.46657 0.0
H997 H 0.42035 0.09501 0.43928 0.0
H998 H 0.35777 0.07791 0.45767 0.0
C999 C 0.37343 0.96846 0.52548 0.0
C1000 C 0.38898 0.94958 0.53962 0.0
C1001 C 0.40882 0.95862 0.53269 0.0
C1002 C 0.41306 0.98591 0.51128 0.0
C1003 C 0.39728 1.00396 0.49744 0.0
C1004 C 0.37787 0.99557 0.50495 0.0
C1005 C 0.36346 1.01928 0.4902 0.0
C1006 C 0.35005 1.00934 0.44767 0.0
C1007 C 0.35117 0.02933 0.53473 0.0
C1008 C 0.3777 0.04255 0.47339 0.0
C1009 C 0.39716 0.03337 0.47692 0.0
C1010 C 0.41278 0.05172 0.46368 0.0
C1011 C 0.40834 0.0803 0.44784 0.0
C1012 C 0.38849 0.09023 0.44628 0.0
C1013 C 0.37309 0.07085 0.45842 0.0
H1014 H 0.87406 0.98587 0.87536 0.0
H1015 H 0.90969 0.93355 0.97538 0.0
H1016 H 0.91557 0.9771 0.02695 0.0
H1017 H 0.9029 0.05172 0.88241 0.0
H1018 H 0.88132 0.07482 0.87975 0.0
H1019 H 0.88102 0.03987 0.85023 0.0
H1020 H 0.84978 0.02559 0.90013 0.0
H1021 H 0.84994 0.0605 0.92961 0.0
H1022 H 0.85033 0.0278 0.96643 0.0
H1023 H 0.9164 0.02783 0.06916 0.0
H1024 H 0.9107 0.07837 0.09815 0.0
H1025 H 0.87443 0.09518 0.96902 0.0
C1026 C 0.88327 0.98344 0.90784 0.0
C1027 C 0.89147 0.95622 0.92112 0.0
C1028 C 0.90326 0.95417 0.96432 0.0
C1029 C 0.90672 0.97883 0.99378 0.0
C1030 C 0.89829 1.00537 0.97954 0.0
C1031 C 0.88678 1.00763 0.93749 0.0
C1032 C 0.87862 0.038 0.93071 0.0
C1033 C 0.88644 0.05192 0.88295 0.0
C1034 C 0.85582 0.03795 0.93181 0.0
C1035 C 0.88713 0.05262 0.97568 0.0
C1036 C 0.89859 0.03374 0.00347 0.0
C1037 C 0.90751 0.04273 0.04741 0.0
C1038 C 0.90428 0.0715 0.06354 0.0
C1039 C 0.8921 0.09076 0.03596 0.0
C1040 C 0.88379 0.08108 0.99116 0.0
H1041 H 0.67344 0.06949 0.50022 0.0
H1042 H 0.61989 0.08809 0.41695 0.0
H1043 H 0.60723 0.03906 0.43779 0.0
H1044 H 0.67756 0.99336 0.46633 0.0
H1045 H 0.68667 0.98249 0.52614 0.0
H1046 H 0.69164 1.01849 0.50303 0.0
H1047 H 0.67589 0.04054 0.58145 0.0
H1048 H 0.67073 1.00463 0.60463 0.0
H1049 H 0.65094 0.03076 0.59805 0.0
H1050 H 0.59982 0.98903 0.47195 0.0
H1051 H 0.59894 0.94071 0.51111 0.0
H1052 H 0.65785 0.95455 0.57092 0.0
C1053 C 0.65909 0.06325 0.48597 0.0
C1054 C 0.6476 0.08269 0.45699 0.0
C1055 C 0.62897 0.07355 0.43898 0.0
C1056 C 0.62165 0.0458 0.45083 0.0
C1057 C 0.63324 0.02743 0.48029 0.0
C1058 C 0.65166 0.03568 0.49712 0.0
C1059 C 0.66118 1.01203 0.52839 0.0
C1060 C 0.6804 1.00094 0.50453 0.0
C1061 C 0.6649 0.02263 0.58126 0.0
C1062 C 0.64514 0.98916 0.52705 0.0
C1063 C 0.62913 0.99852 0.49924 0.0
C1064 C 0.61234 0.98144 0.49345 0.0
C1065 C 0.61199 0.95399 0.51609 0.0
C1066 C 0.62836 0.94366 0.54411 0.0
C1067 C 0.64511 0.96168 0.54971 0.0
H1068 H 0.67669 0.57202 0.99789 0.0
H1069 H 0.6212 0.59439 0.06914 0.0
H1070 H 0.60734 0.54705 0.0445 0.0
H1071 H 0.65531 0.53316 0.89419 0.0
H1072 H 0.67459 0.50599 0.89344 0.0
H1073 H 0.67992 0.54215 0.91475 0.0
H1074 H 0.69294 0.52096 0.99737 0.0
H1075 H 0.68765 0.48477 0.9763 0.0
H1076 H 0.67719 0.4975 0.03334 0.0
H1077 H 0.59994 0.49681 0.01506 0.0
H1078 H 0.59944 0.44671 0.98381 0.0
H1079 H 0.65973 0.45663 0.93108 0.0
C1080 C 0.66156 0.5671 0.00802 0.0
C1081 C 0.65001 0.587 0.03544 0.0
C1082 C 0.63034 0.57955 0.0482 0.0
C1083 C 0.62232 0.55273 0.03426 0.0
C1084 C 0.63415 0.53359 0.00751 0.0
C1085 C 0.65334 0.5404 0.99448 0.0
C1086 C 0.66308 0.51555 0.96698 0.0
C1087 C 0.66854 0.52477 0.9142 0.0
C1088 C 0.68129 0.50402 0.99519 0.0
C1089 C 0.64643 0.49356 0.96704 0.0
C1090 C 0.62986 0.50451 0.99045 0.0
C1091 C 0.61279 0.48805 0.99648 0.0
C1092 C 0.61269 0.45955 0.97864 0.0
C1093 C 0.62956 0.44763 0.95501 0.0
C1094 C 0.64656 0.4651 0.94867 0.0
H1095 H 0.87975 0.44886 0.4605 0.0
H1096 H 0.90958 0.46341 0.59973 0.0
H1097 H 0.91701 0.51408 0.57339 0.0
H1098 H 0.91264 0.49253 0.38386 0.0
H1099 H 0.89251 0.505 0.34539 0.0
H1100 H 0.8913 0.46978 0.37448 0.0
H1101 H 0.8578 0.48394 0.41447 0.0
H1102 H 0.85897 0.51922 0.38583 0.0
H1103 H 0.85633 0.51619 0.45173 0.0
H1104 H 0.91838 0.56543 0.53204 0.0
H1105 H 0.91465 0.6098 0.48021 0.0
H1106 H 0.8841 0.55902 0.36958 0.0
C1107 C 0.88807 0.4625 0.48543 0.0
C1108 C 0.89404 0.4522 0.53227 0.0
C1109 C 0.90495 0.47081 0.56354 0.0
C1110 C 0.90917 0.49963 0.54889 0.0
C1111 C 0.90255 0.50928 0.50269 0.0
C1112 C 0.89242 0.49097 0.47138 0.0
C1113 C 0.88618 0.50627 0.42447 0.0
C1114 C 0.89627 0.49258 0.37939 0.0
C1115 C 0.86348 0.50641 0.41884 0.0
C1116 C 0.894 0.53637 0.43427 0.0
C1117 C 0.90349 0.53794 0.47936 0.0
C1118 C 0.91114 0.56422 0.49649 0.0
C1119 C 0.90895 0.58934 0.46685 0.0
C1120 C 0.89913 0.58798 0.42067 0.0
C1121 C 0.89178 0.56097 0.40445 0.0
H1122 H 0.36071 0.47863 0.95347 0.0
H1123 H 0.42294 0.45538 0.95552 0.0
H1124 H 0.43096 0.50429 0.98892 0.0
H1125 H 0.36734 0.55316 0.91507 0.0
H1126 H 0.34691 0.56588 0.95186 0.0
H1127 H 0.34678 0.52946 0.92797 0.0
H1128 H 0.34206 0.50919 0.0165 0.0
H1129 H 0.34237 0.54551 0.04073 0.0
H1130 H 0.35958 0.51869 0.06391 0.0
H1131 H 0.4311 0.55602 0.02852 0.0
H1132 H 0.42387 0.6056 0.06013 0.0
H1133 H 0.36171 0.59349 0.02622 0.0
C1134 C 0.37608 0.48379 0.96074 0.0
C1135 C 0.39121 0.4632 0.95234 0.0
C1136 C 0.41114 0.47094 0.96165 0.0
C1137 C 0.41577 0.49858 0.98085 0.0
C1138 C 0.40032 0.51823 0.98964 0.0
C1139 C 0.38091 0.51114 0.97897 0.0
C1140 C 0.36686 0.53577 0.99052 0.0
C1141 C 0.35637 0.54671 0.94356 0.0
C1142 C 0.35184 0.52674 0.03028 0.0
C1143 C 0.38126 0.55798 0.00991 0.0
C1144 C 0.40051 0.5476 0.0098 0.0
C1145 C 0.4161 0.56434 0.02814 0.0
C1146 C 0.41187 0.59239 0.04625 0.0
C1147 C 0.39227 0.60347 0.04515 0.0
C1148 C 0.3769 0.58584 0.0269 0.0
H1149 H 0.16123 0.54873 0.37264 0.0
H1150 H 0.13525 0.60312 0.48564 0.0
H1151 H 0.12917 0.55942 0.53706 0.0
H1152 H 0.12848 0.4862 0.3891 0.0
H1153 H 0.14822 0.46061 0.37803 0.0
H1154 H 0.1487 0.49591 0.34906 0.0
H1155 H 0.18344 0.50528 0.38646 0.0
H1156 H 0.18305 0.4701 0.41559 0.0
H1157 H 0.18691 0.50217 0.45217 0.0
H1158 H 0.12819 0.50866 0.57874 0.0
H1159 H 0.13293 0.4573 0.60538 0.0
H1160 H 0.1596 0.43813 0.46387 0.0
C1161 C 0.15397 0.55154 0.40784 0.0
C1162 C 0.14867 0.57943 0.42493 0.0
C1163 C 0.13937 0.58198 0.47155 0.0
C1164 C 0.13585 0.55725 0.50105 0.0
C1165 C 0.14161 0.53008 0.48333 0.0
C1166 C 0.15039 0.52722 0.43758 0.0
C1167 C 0.15622 0.49608 0.42762 0.0
C1168 C 0.14471 0.48399 0.38333 0.0
C1169 C 0.17874 0.49326 0.42004 0.0
C1170 C 0.14976 0.48183 0.47522 0.0
C1171 C 0.14117 0.50153 0.50696 0.0
C1172 C 0.13476 0.49306 0.55389 0.0
C1173 C 0.13746 0.46386 0.56874 0.0
C1174 C 0.14667 0.44364 0.53688 0.0
C1175 C 0.15254 0.45292 0.48936 0.0
H1176 H 0.17951 0.34242 0.77644 0.0
H1177 H 0.11631 0.35226 0.7585 0.0
H1178 H 0.11092 0.32318 0.83409 0.0
H1179 H 0.17994 0.27412 0.80027 0.0
H1180 H 0.19917 0.27219 0.84633 0.0
H1181 H 0.19892 0.30157 0.80261 0.0
H1182 H 0.19823 0.33964 0.87211 0.0
H1183 H 0.19949 0.31052 0.91675 0.0
H1184 H 0.17986 0.33707 0.92002 0.0
H1185 H 0.11244 0.28229 0.89466 0.0
H1186 H 0.12071 0.23962 0.94651 0.0
H1187 H 0.18326 0.25635 0.92556 0.0
C1188 C 0.16467 0.34035 0.79081 0.0
C1189 C 0.14835 0.35023 0.76295 0.0
C1190 C 0.12896 0.34578 0.78066 0.0
C1191 C 0.12581 0.32893 0.82317 0.0
C1192 C 0.14226 0.31727 0.84761 0.0
C1193 C 0.16139 0.32365 0.83309 0.0
C1194 C 0.17644 0.30524 0.86074 0.0
C1195 C 0.18935 0.28723 0.82535 0.0
C1196 C 0.18926 0.32425 0.89443 0.0
C1197 C 0.16277 0.28604 0.89044 0.0
C1198 C 0.14313 0.2935 0.8828 0.0
C1199 C 0.12776 0.27682 0.90204 0.0
C1200 C 0.13259 0.25235 0.93068 0.0
C1201 C 0.15261 0.24473 0.93966 0.0
C1202 C 0.16784 0.26192 0.91949 0.0
H1203 H 0.40712 0.79505 0.43039 0.0
H1204 H 0.34989 0.76406 0.47999 0.0
H1205 H 0.35333 0.72108 0.42634 0.0
H1206 H 0.40041 0.77836 0.30733 0.0
H1207 H 0.42593 0.76855 0.29702 0.0
H1208 H 0.41975 0.79373 0.34483 0.0
H1209 H 0.43828 0.76061 0.40771 0.0
H1210 H 0.44381 0.73478 0.35989 0.0
H1211 H 0.43097 0.72318 0.4147 0.0
H1212 H 0.36122 0.6848 0.36033 0.0
H1213 H 0.36988 0.66415 0.27957 0.0
H1214 H 0.4218 0.71875 0.27337 0.0
C1215 C 0.39525 0.77929 0.42996 0.0
C1216 C 0.3782 0.78299 0.45925 0.0
C1217 C 0.36316 0.76158 0.45807 0.0
C1218 C 0.36507 0.73698 0.42806 0.0
C1219 C 0.3822 0.73391 0.39992 0.0
C1220 C 0.39693 0.7547 0.40035 0.0
C1221 C 0.41275 0.7483 0.36265 0.0
C1222 C 0.4148 0.77372 0.32577 0.0
C1223 C 0.43263 0.7413 0.38776 0.0
C1224 C 0.40408 0.72155 0.33882 0.0
C1225 C 0.38679 0.71293 0.36187 0.0
C1226 C 0.37494 0.69092 0.34263 0.0
C1227 C 0.38009 0.67902 0.29684 0.0
C1228 C 0.39667 0.68966 0.2708 0.0
C1229 C 0.40944 0.70965 0.29358 0.0
H1230 H 0.18501 0.77665 0.06892 0.0
H1231 H 0.12225 0.77246 0.03641 0.0
H1232 H 0.11881 0.73105 0.0942 0.0
H1233 H 0.19343 0.69719 0.08921 0.0
H1234 H 0.21023 0.70357 0.13967 0.0
H1235 H 0.20846 0.72948 0.08978 0.0
H1236 H 0.20049 0.77065 0.15174 0.0
H1237 H 0.20276 0.74497 0.20146 0.0
H1238 H 0.18033 0.76598 0.19449 0.0
H1239 H 0.12151 0.69374 0.16154 0.0
H1240 H 0.12907 0.66975 0.24132 0.0
H1241 H 0.18977 0.69884 0.23088 0.0
C1242 C 0.17065 0.76658 0.07339 0.0
C1243 C 0.15391 0.77757 0.0483 0.0
C1244 C 0.13523 0.76439 0.05567 0.0
C1245 C 0.1332 0.74063 0.08783 0.0
C1246 C 0.15001 0.73029 0.11225 0.0
C1247 C 0.16834 0.74309 0.10577 0.0
C1248 C 0.18351 0.73056 0.14112 0.0
C1249 C 0.19987 0.71423 0.11326 0.0
C1250 C 0.19226 0.75445 0.17417 0.0
C1251 C 0.17063 0.70973 0.17005 0.0
C1252 C 0.1515 0.7091 0.15182 0.0
C1253 C 0.13652 0.69354 0.17553 0.0
C1254 C 0.14096 0.67967 0.22049 0.0
C1255 C 0.16006 0.68206 0.24125 0.0
C1256 C 0.17521 0.69609 0.2147 0.0
H1257 H 0.36696 0.35712 0.71803 0.0
H1258 H 0.42888 0.35816 0.75835 0.0
H1259 H 0.4363 0.3237 0.69098 0.0
H1260 H 0.36362 0.28665 0.70791 0.0
H1261 H 0.34661 0.28482 0.65676 0.0
H1262 H 0.34672 0.31626 0.69561 0.0
H1263 H 0.35305 0.35022 0.62105 0.0
H1264 H 0.35199 0.31907 0.58115 0.0
H1265 H 0.37328 0.34257 0.57981 0.0
H1266 H 0.43534 0.28101 0.63168 0.0
H1267 H 0.42691 0.23953 0.57789 0.0
H1268 H 0.36493 0.26434 0.58409 0.0
C1269 C 0.38226 0.35166 0.71022 0.0
C1270 C 0.39746 0.36078 0.74203 0.0
C1271 C 0.41721 0.35219 0.73293 0.0
C1272 C 0.42146 0.33224 0.69527 0.0
C1273 C 0.40575 0.32148 0.66726 0.0
C1274 C 0.38658 0.33154 0.67354 0.0
C1275 C 0.37186 0.31383 0.64447 0.0
C1276 C 0.35631 0.29956 0.67823 0.0
C1277 C 0.36197 0.33254 0.60421 0.0
C1278 C 0.38554 0.29142 0.62251 0.0
C1279 C 0.40506 0.29629 0.63529 0.0
C1280 C 0.42013 0.27735 0.62082 0.0
C1281 C 0.41516 0.25353 0.59103 0.0
C1282 C 0.39525 0.24869 0.57666 0.0
C1283 C 0.38033 0.26767 0.59369 0.0
H1284 H 0.89562 0.66702 0.16201 0.0
H1285 H 0.89494 0.7154 0.29874 0.0
H1286 H 0.8873 0.7605 0.25162 0.0
H1287 H 0.91918 0.72006 0.08909 0.0
H1288 H 0.90499 0.71215 0.03449 0.0
H1289 H 0.90938 0.68412 0.07969 0.0
H1290 H 0.87157 0.6757 0.08715 0.0
H1291 H 0.86703 0.70385 0.04211 0.0
H1292 H 0.85553 0.70581 0.1019 0.0
H1293 H 0.88119 0.80078 0.18706 0.0
H1294 H 0.87764 0.83197 0.11299 0.0
H1295 H 0.88244 0.75589 0.02005 0.0
C1296 C 0.89381 0.68702 0.1824 0.0
C1297 C 0.89601 0.68766 0.23423 0.0
C1298 C 0.89347 0.71439 0.2591 0.0
C1299 C 0.88903 0.74005 0.23258 0.0
C1300 C 0.88709 0.73852 0.18132 0.0
C1301 C 0.88937 0.71256 0.15669 0.0
C1302 C 0.88718 0.71645 0.10152 0.0
C1303 C 0.90632 0.70768 0.07464 0.0
C1304 C 0.86926 0.69944 0.08204 0.0
C1305 C 0.88361 0.74885 0.09847 0.0
C1306 C 0.88349 0.76127 0.14479 0.0
C1307 C 0.88117 0.79116 0.15075 0.0
C1308 C 0.87924 0.80872 0.1084 0.0
C1309 C 0.87968 0.79643 0.06054 0.0
C1310 C 0.88163 0.76599 0.05594 0.0
H1311 H 0.67537 0.25704 0.59341 0.0
H1312 H 0.61339 0.23445 0.57703 0.0
H1313 H 0.60401 0.27745 0.6261 0.0
H1314 H 0.67332 0.28028 0.71494 0.0
H1315 H 0.69096 0.30915 0.70606 0.0
H1316 H 0.69176 0.27778 0.66716 0.0
H1317 H 0.68905 0.31197 0.59086 0.0
H1318 H 0.68736 0.34329 0.63028 0.0
H1319 H 0.66826 0.33646 0.58535 0.0
H1320 H 0.6018 0.31984 0.68348 0.0
H1321 H 0.60752 0.35209 0.75451 0.0
H1322 H 0.67043 0.34995 0.72631 0.0
C1323 C 0.65979 0.26126 0.59972 0.0
C1324 C 0.64512 0.24237 0.58146 0.0
C1325 C 0.62493 0.24835 0.59136 0.0
C1326 C 0.61944 0.27306 0.61827 0.0
C1327 C 0.6343 0.29176 0.63428 0.0
C1328 C 0.65408 0.28595 0.62572 0.0
C1329 C 0.66734 0.30791 0.65029 0.0
C1330 C 0.68166 0.29289 0.68679 0.0
C1331 C 0.67867 0.32598 0.61188 0.0
C1332 C 0.65198 0.32619 0.67635 0.0
C1333 C 0.63294 0.31705 0.66569 0.0
C1334 C 0.61654 0.32782 0.69102 0.0
C1335 C 0.61985 0.34657 0.73079 0.0
C1336 C 0.63935 0.354 0.74455 0.0
C1337 C 0.65537 0.34549 0.71485 0.0
H1338 H 0.89285 0.2276 0.88639 0.0
H1339 H 0.87739 0.28869 0.00171 0.0
H1340 H 0.88085 0.32919 0.94268 0.0
H1341 H 0.93052 0.2741 0.82872 0.0
H1342 H 0.92423 0.26177 0.76775 0.0
H1343 H 0.92123 0.23782 0.81994 0.0
H1344 H 0.88426 0.23036 0.79712 0.0
H1345 H 0.88724 0.25393 0.74471 0.0
H1346 H 0.86838 0.26167 0.78974 0.0
H1347 H 0.88319 0.36307 0.8671 0.0
H1348 H 0.88351 0.38514 0.78305 0.0
H1349 H 0.90105 0.30197 0.72281 0.0
C1350 C 0.89056 0.24944 0.89984 0.0
C1351 C 0.88462 0.25461 0.94886 0.0
C1352 C 0.88143 0.28378 0.96409 0.0
C1353 C 0.88366 0.30712 0.93098 0.0
C1354 C 0.88954 0.30113 0.88295 0.0
C1355 C 0.89312 0.27295 0.86772 0.0
C1356 C 0.8986 0.27189 0.81394 0.0
C1357 C 0.91991 0.26074 0.80722 0.0
C1358 C 0.88373 0.25339 0.78468 0.0
C1359 C 0.89692 0.30373 0.80078 0.0
C1360 C 0.89181 0.32051 0.84083 0.0
C1361 C 0.88761 0.35022 0.83568 0.0
C1362 C 0.88797 0.36269 0.78804 0.0
C1363 C 0.89243 0.34526 0.7468 0.0
C1364 C 0.89773 0.31586 0.75387 0.0
H1365 H 0.63925 0.80647 0.37939 0.0
H1366 H 0.65934 0.74691 0.49399 0.0
H1367 H 0.65471 0.70591 0.43741 0.0
H1368 H 0.60058 0.75659 0.32972 0.0
H1369 H 0.60482 0.76927 0.2677 0.0
H1370 H 0.60817 0.79358 0.3189 0.0
H1371 H 0.64413 0.80418 0.29055 0.0
H1372 H 0.64074 0.78039 0.23912 0.0
H1373 H 0.66099 0.77424 0.28132 0.0
H1374 H 0.65268 0.67237 0.36338 0.0
H1375 H 0.65398 0.65128 0.27933 0.0
H1376 H 0.63045 0.73156 0.2193 0.0
C1377 C 0.64216 0.78486 0.39353 0.0
C1378 C 0.64992 0.78035 0.44132 0.0
C1379 C 0.65395 0.75141 0.45716 0.0
C1380 C 0.651 0.72776 0.42557 0.0
C1381 C 0.64338 0.73314 0.37871 0.0
C1382 C 0.63875 0.76101 0.36315 0.0
C1383 C 0.63191 0.76149 0.31023 0.0
C1384 C 0.61007 0.77078 0.30644 0.0
C1385 C 0.64524 0.78121 0.27848 0.0
C1386 C 0.63448 0.72979 0.29751 0.0
C1387 C 0.64089 0.71352 0.33745 0.0
C1388 C 0.64703 0.68461 0.3322 0.0
C1389 C 0.64757 0.67264 0.28454 0.0
C1390 C 0.64199 0.68975 0.24345 0.0
C1391 C 0.63435 0.71791 0.25055 0.0
H1392 H 0.64128 0.74248 0.9108 0.0
H1393 H 0.7019 0.76222 0.95186 0.0
H1394 H 0.70099 0.80566 0.89817 0.0
H1395 H 0.6468 0.76022 0.78489 0.0
H1396 H 0.62202 0.77452 0.77878 0.0
H1397 H 0.6273 0.74717 0.82443 0.0
H1398 H 0.61297 0.78139 0.89139 0.0
H1399 H 0.6084 0.80926 0.8458 0.0
H1400 H 0.62335 0.81711 0.89915 0.0
H1401 H 0.69436 0.84495 0.83565 0.0
H1402 H 0.68472 0.87072 0.75905 0.0
H1403 H 0.62889 0.82508 0.7582 0.0
C1404 C 0.65445 0.75574 0.90829 0.0
C1405 C 0.67162 0.74895 0.93589 0.0
C1406 C 0.68845 0.76717 0.93167 0.0
C1407 C 0.68804 0.79202 0.90152 0.0
C1408 C 0.67068 0.79846 0.8758 0.0
C1409 C 0.65433 0.78053 0.87825 0.0
C1410 C 0.63822 0.79059 0.8433 0.0
C1411 C 0.63331 0.76673 0.80561 0.0
C1412 C 0.61964 0.80015 0.87162 0.0
C1413 C 0.64834 0.81635 0.81939 0.0
C1414 C 0.66686 0.82109 0.83961 0.0
C1415 C 0.67973 0.84188 0.82023 0.0
C1416 C 0.67405 0.85678 0.77714 0.0
C1417 C 0.65584 0.85043 0.75396 0.0
C1418 C 0.64249 0.83114 0.77671 0.0
H1419 H 0.85905 0.19328 0.27633 0.0
H1420 H 0.922 0.17935 0.25924 0.0
H1421 H 0.92825 0.20864 0.33392 0.0
H1422 H 0.86129 0.26274 0.29792 0.0
H1423 H 0.84182 0.2659 0.34293 0.0
H1424 H 0.84142 0.23667 0.29942 0.0
H1425 H 0.84026 0.19853 0.36965 0.0
H1426 H 0.83982 0.22764 0.41386 0.0
H1427 H 0.85846 0.19961 0.41828 0.0
H1428 H 0.92782 0.24899 0.39613 0.0
H1429 H 0.92073 0.29154 0.44833 0.0
H1430 H 0.85782 0.28037 0.42239 0.0
C1431 C 0.87403 0.19478 0.29047 0.0
C1432 C 0.89004 0.18354 0.26315 0.0
C1433 C 0.90956 0.18695 0.28085 0.0
C1434 C 0.91321 0.20391 0.32285 0.0
C1435 C 0.89712 0.21683 0.34671 0.0
C1436 C 0.87783 0.21173 0.33194 0.0
C1437 C 0.86333 0.23122 0.35877 0.0
C1438 C 0.85128 0.25024 0.32258 0.0
C1439 C 0.84966 0.21317 0.39214 0.0
C1440 C 0.87749 0.24931 0.38884 0.0
C1441 C 0.89689 0.24047 0.38197 0.0
C1442 C 0.91266 0.25563 0.4026 0.0
C1443 C 0.90849 0.28009 0.43154 0.0
C1444 C 0.8887 0.28939 0.43931 0.0
C1445 C 0.87307 0.27359 0.41772 0.0
H1446 H 0.65577 0.24856 0.29199 0.0
H1447 H 0.64632 0.16211 0.23331 0.0
H1448 H 0.64907 0.18244 0.14827 0.0
H1449 H 0.62883 0.28832 0.20211 0.0
H1450 H 0.64597 0.31825 0.20254 0.0
H1451 H 0.6427 0.29645 0.25714 0.0
H1452 H 0.68046 0.28591 0.25959 0.0
H1453 H 0.68387 0.30752 0.20481 0.0
H1454 H 0.69234 0.27033 0.20644 0.0
H1455 H 0.65247 0.21412 0.0696 0.0
H1456 H 0.656 0.25254 0.00642 0.0
H1457 H 0.66567 0.31618 0.12146 0.0
C1458 C 0.65419 0.2336 0.26158 0.0
C1459 C 0.65077 0.20368 0.26928 0.0
C1460 C 0.64884 0.18514 0.22814 0.0
C1461 C 0.65046 0.19651 0.1799 0.0
C1462 C 0.65412 0.22625 0.17403 0.0
C1463 C 0.65598 0.24437 0.21407 0.0
C1464 C 0.66013 0.27537 0.19923 0.0
C1465 C 0.64341 0.29579 0.21626 0.0
C1466 C 0.68041 0.28535 0.21866 0.0
C1467 C 0.66025 0.27223 0.14411 0.0
C1468 C 0.6567 0.24387 0.12995 0.0
C1469 C 0.65547 0.23626 0.08046 0.0
C1470 C 0.65769 0.25827 0.04483 0.0
C1471 C 0.66126 0.2875 0.05887 0.0
C1472 C 0.66279 0.29423 0.10928 0.0
H1473 H 0.88924 0.78872 0.51888 0.0
H1474 H 0.88343 0.71205 0.61126 0.0
H1475 H 0.88355 0.74311 0.6855 0.0
H1476 H 0.92235 0.82628 0.5958 0.0
H1477 H 0.91184 0.86162 0.58327 0.0
H1478 H 0.91009 0.83338 0.53788 0.0
H1479 H 0.87188 0.83929 0.53594 0.0
H1480 H 0.87355 0.86769 0.58116 0.0
H1481 H 0.85809 0.83655 0.59258 0.0
H1482 H 0.88516 0.78376 0.75068 0.0
H1483 H 0.88874 0.82931 0.79855 0.0
H1484 H 0.89392 0.87783 0.66173 0.0
C1485 C 0.88759 0.77843 0.5546 0.0
C1486 C 0.88621 0.74791 0.55908 0.0
C1487 C 0.88461 0.73538 0.60681 0.0
C1488 C 0.88457 0.75286 0.64922 0.0
C1489 C 0.88616 0.7829 0.64342 0.0
C1490 C 0.88761 0.79549 0.59716 0.0
C1491 C 0.88993 0.82807 0.60053 0.0
C1492 C 0.90973 0.8379 0.57805 0.0
C1493 C 0.87231 0.84382 0.57611 0.0
C1494 C 0.88977 0.83191 0.65585 0.0
C1495 C 0.88744 0.80576 0.68026 0.0
C1496 C 0.88702 0.80432 0.73177 0.0
C1497 C 0.88916 0.83025 0.75874 0.0
C1498 C 0.89186 0.85715 0.73411 0.0
C1499 C 0.89201 0.85771 0.68199 0.0
H1500 H 0.38199 0.32922 0.11868 0.0
H1501 H 0.37677 0.26582 0.00137 0.0
H1502 H 0.38053 0.2262 0.06209 0.0
H1503 H 0.42049 0.29061 0.18437 0.0
H1504 H 0.41132 0.30147 0.24384 0.0
H1505 H 0.40747 0.32463 0.19096 0.0
H1506 H 0.36957 0.32438 0.20683 0.0
H1507 H 0.37335 0.30146 0.25992 0.0
H1508 H 0.35679 0.29015 0.21157 0.0
H1509 H 0.38408 0.19285 0.13865 0.0
H1510 H 0.38694 0.17073 0.22244 0.0
H1511 H 0.39327 0.25703 0.28405 0.0
C1512 C 0.3818 0.30709 0.10537 0.0
C1513 C 0.37881 0.30092 0.05508 0.0
C1514 C 0.37844 0.27139 0.03983 0.0
C1515 C 0.38084 0.2486 0.074 0.0
C1516 C 0.38394 0.25559 0.12322 0.0
C1517 C 0.38456 0.2842 0.13862 0.0
C1518 C 0.38833 0.28627 0.19319 0.0
C1519 C 0.40808 0.30165 0.20368 0.0
C1520 C 0.37098 0.30145 0.2194 0.0
C1521 C 0.38943 0.25441 0.20632 0.0
C1522 C 0.38686 0.2368 0.16587 0.0
C1523 C 0.38633 0.20649 0.17052 0.0
C1524 C 0.38807 0.19406 0.21803 0.0
C1525 C 0.39033 0.21211 0.25968 0.0
C1526 C 0.39151 0.2425 0.25308 0.0
H1527 H 0.17882 0.84501 0.72093 0.0
H1528 H 0.11562 0.85569 0.73781 0.0
H1529 H 0.11011 0.82787 0.66129 0.0
H1530 H 0.17977 0.84082 0.57787 0.0
H1531 H 0.19896 0.81358 0.58171 0.0
H1532 H 0.19789 0.84225 0.62667 0.0
H1533 H 0.1975 0.80339 0.69581 0.0
H1534 H 0.19765 0.77455 0.6516 0.0
H1535 H 0.17811 0.77653 0.69664 0.0
H1536 H 0.11142 0.78831 0.59807 0.0
H1537 H 0.11946 0.74628 0.54536 0.0
H1538 H 0.18204 0.76003 0.57239 0.0
C1539 C 0.16394 0.84329 0.70625 0.0
C1540 C 0.14765 0.85308 0.73402 0.0
C1541 C 0.12825 0.84927 0.71579 0.0
C1542 C 0.12503 0.83311 0.67273 0.0
C1543 C 0.14142 0.8214 0.64842 0.0
C1544 C 0.16057 0.82708 0.66373 0.0
C1545 C 0.17549 0.80848 0.63655 0.0
C1546 C 0.18881 0.82741 0.60373 0.0
C1547 C 0.18789 0.78964 0.6723 0.0
C1548 C 0.16172 0.7901 0.60592 0.0
C1549 C 0.14216 0.79812 0.61259 0.0
C1550 C 0.12671 0.78237 0.59164 0.0
C1551 C 0.13141 0.75822 0.56244 0.0
C1552 C 0.15139 0.74986 0.55482 0.0
C1553 C 0.16665 0.76616 0.57687 0.0
H1554 H 0.43356 0.83029 0.76136 0.0
H1555 H 0.38315 0.88813 0.77108 0.0
H1556 H 0.37627 0.86989 0.855 0.0
H1557 H 0.41254 0.77318 0.80376 0.0
H1558 H 0.43229 0.75755 0.8401 0.0
H1559 H 0.43801 0.7814 0.78966 0.0
H1560 H 0.45762 0.8157 0.84681 0.0
H1561 H 0.45286 0.79125 0.89753 0.0
H1562 H 0.44626 0.82911 0.90232 0.0
H1563 H 0.36882 0.83508 0.92252 0.0
H1564 H 0.36513 0.79329 0.97841 0.0
H1565 H 0.4215 0.75884 0.92803 0.0
C1566 C 0.422 0.84055 0.78282 0.0
C1567 C 0.40909 0.8609 0.76063 0.0
C1568 C 0.39352 0.87318 0.78829 0.0
C1569 C 0.38938 0.86262 0.83574 0.0
C1570 C 0.40129 0.84041 0.85495 0.0
C1571 C 0.4178 0.83028 0.83015 0.0
C1572 C 0.4265 0.80362 0.8552 0.0
C1573 C 0.42736 0.77742 0.82007 0.0
C1574 C 0.44702 0.81033 0.87677 0.0
C1575 C 0.41144 0.79893 0.89554 0.0
C1576 C 0.39716 0.82054 0.89516 0.0
C1577 C 0.38038 0.81879 0.9247 0.0
C1578 C 0.37841 0.79482 0.9563 0.0
C1579 C 0.3932 0.77284 0.95854 0.0
C1580 C 0.40991 0.77513 0.92755 0.0
H1581 H 0.12837 0.23678 0.22244 0.0
H1582 H 0.14309 0.15193 0.28204 0.0
H1583 H 0.14042 0.17179 0.36683 0.0
H1584 H 0.15866 0.27391 0.29508 0.0
H1585 H 0.1433 0.30573 0.30215 0.0
H1586 H 0.14073 0.28354 0.24839 0.0
H1587 H 0.10338 0.27644 0.26633 0.0
H1588 H 0.10569 0.29921 0.31987 0.0
H1589 H 0.09566 0.26312 0.32584 0.0
H1590 H 0.14182 0.20345 0.44333 0.0
H1591 H 0.1467 0.24256 0.50377 0.0
H1592 H 0.13441 0.30683 0.3899 0.0
C1593 C 0.13028 0.22208 0.25343 0.0
C1594 C 0.13581 0.19288 0.24618 0.0
C1595 C 0.13848 0.17427 0.2872 0.0
C1596 C 0.13708 0.18545 0.3353 0.0
C1597 C 0.13282 0.21503 0.34107 0.0
C1598 C 0.1292 0.23294 0.301 0.0
C1599 C 0.12786 0.26453 0.31548 0.0
C1600 C 0.14358 0.28298 0.28871 0.0
C1601 C 0.1069 0.27653 0.30635 0.0
C1602 C 0.13224 0.26197 0.36978 0.0
C1603 C 0.13457 0.23329 0.38427 0.0
C1604 C 0.13984 0.22592 0.43236 0.0
C1605 C 0.14289 0.2484 0.46625 0.0
C1606 C 0.14116 0.278 0.45163 0.0
C1607 C 0.13552 0.28459 0.40278 0.0
loop_
_geom_bond_atom_site_label_1
_geom_bond_atom_site_label_2
_geom_bond_distance
_geom_bond_site_symmetry_2
_ccdc_geom_bond_type
C0 C1 1.351 . S
C0 N3 1.368 . S
C0 H5 0.931 . S
C1 C0 1.351 . S
C1 N2 1.373 . S
C1 H29 0.930 . S
N2 C1 1.373 . S
N2 C4 1.340 . S
N3 C0 1.368 . S
N3 C4 1.321 . S
N3 Co6 2.135 . S
C4 N2 1.340 . S
C4 N3 1.321 . S
C4 H28 0.930 . S
H5 C0 0.931 . S
Co6 N3 2.135 . S
Co6 N9 2.121 . S
Co6 O14 2.055 . S
Co6 O17 2.039 . S
Co6 N20 2.140 . S
C7 O8 1.227 . S
C7 O17 1.265 . S
O8 C7 1.227 . S
N9 Co6 2.121 . S
N9 C11 1.375 . S
N9 C12 1.313 . S
C10 C11 1.338 . S
C10 N13 1.377 . S
C10 H30 0.930 . S
C11 N9 1.375 . S
C11 C10 1.338 . S
C11 H15 0.931 . S
C12 N9 1.313 . S
C12 N13 1.344 . S
C12 H16 0.930 . S
N13 C10 1.377 . S
N13 C12 1.344 . S
O14 Co6 2.055 . S
O14 C18 1.253 . S
H15 C11 0.931 . S
H16 C12 0.930 . S
O17 Co6 2.039 . S
O17 C7 1.265 . S
C18 O14 1.253 . S
C18 O19 1.227 . S
O19 C18 1.227 . S
N20 Co6 2.140 . S
N20 C23 1.346 . S
N20 C24 1.345 . S
C21 C22 1.387 . S
C21 C25 1.391 1_556 S
C22 C21 1.387 . S
C22 C23 1.369 1_556 S
C22 H31 0.929 . S
C23 N20 1.346 . S
C23 C22 1.369 1_554 S
C23 H26 0.928 . S
C24 N20 1.345 . S
C24 C25 1.371 . S
C24 H27 0.931 . S
C25 C21 1.391 1_554 S
C25 C24 1.371 . S
C25 H32 0.930 . S
H26 C23 0.928 . S
H27 C24 0.931 . S
H28 C4 0.930 . S
H29 C1 0.930 . S
H30 C10 0.930 . S
H31 C22 0.929 . S
H32 C25 0.930 . S
C33 C34 1.351 . S
C33 N36 1.368 . S
C33 H38 0.931 . S
C34 C33 1.351 . S
C34 N35 1.373 . S
C34 H62 0.930 . S
N35 C34 1.373 . S
N35 C37 1.340 . S
N36 C33 1.368 . S
N36 C37 1.321 . S
N36 Co39 2.135 . S
C37 N35 1.340 . S
C37 N36 1.321 . S
C37 H61 0.930 . S
H38 C33 0.931 . S
Co39 N36 2.135 . S
Co39 N42 2.121 . S
Co39 O47 2.055 . S
Co39 O50 2.039 . S
Co39 N53 2.140 . S
C40 O41 1.227 . S
C40 O50 1.265 . S
O41 C40 1.227 . S
N42 Co39 2.121 . S
N42 C44 1.375 . S
N42 C45 1.313 . S
C43 C44 1.338 . S
C43 N46 1.377 . S
C43 H63 0.930 . S
C44 N42 1.375 . S
C44 C43 1.338 . S
C44 H48 0.931 . S
C45 N42 1.313 . S
C45 N46 1.344 . S
C45 H49 0.930 . S
N46 C43 1.377 . S
N46 C45 1.344 . S
O47 Co39 2.055 . S
O47 C51 1.253 . S
H48 C44 0.931 . S
H49 C45 0.930 . S
O50 Co39 2.039 . S
O50 C40 1.265 . S
C51 O47 1.253 . S
C51 O52 1.227 . S
O52 C51 1.227 . S
N53 Co39 2.140 . S
N53 C56 1.346 . S
N53 C57 1.345 . S
C54 C55 1.387 . S
C54 C58 1.391 . S
C55 C54 1.387 . S
C55 C56 1.369 . S
C55 H64 0.929 . S
C56 N53 1.346 . S
C56 C55 1.369 . S
C56 H59 0.928 . S
C57 N53 1.345 . S
C57 C58 1.371 . S
C57 H60 0.931 . S
C58 C54 1.391 . S
C58 C57 1.371 . S
C58 H65 0.930 . S
H59 C56 0.928 . S
H60 C57 0.931 . S
H61 C37 0.930 . S
H62 C34 0.930 . S
H63 C43 0.930 . S
H64 C55 0.929 . S
H65 C58 0.930 . S
C66 C67 1.351 . S
C66 N69 1.368 . S
C66 H71 0.931 . S
C67 C66 1.351 . S
C67 N68 1.373 . S
C67 H95 0.930 . S
N68 C67 1.373 . S
N68 C70 1.340 . S
N69 C66 1.368 . S
N69 C70 1.321 . S
N69 Co72 2.135 . S
C70 N68 1.340 . S
C70 N69 1.321 . S
C70 H94 0.930 . S
H71 C66 0.931 . S
Co72 N69 2.135 . S
Co72 N75 2.121 . S
Co72 O80 2.055 . S
Co72 O83 2.039 . S
Co72 N86 2.140 . S
C73 O74 1.227 . S
C73 O83 1.265 . S
O74 C73 1.227 . S
N75 Co72 2.121 . S
N75 C77 1.375 . S
N75 C78 1.313 . S
C76 C77 1.338 . S
C76 N79 1.377 . S
C76 H96 0.930 . S
C77 N75 1.375 . S
C77 C76 1.338 . S
C77 H81 0.931 . S
C78 N75 1.313 . S
C78 N79 1.344 . S
C78 H82 0.930 . S
N79 C76 1.377 . S
N79 C78 1.344 . S
O80 Co72 2.055 . S
O80 C84 1.253 . S
H81 C77 0.931 . S
H82 C78 0.930 . S
O83 Co72 2.039 . S
O83 C73 1.265 . S
C84 O80 1.253 . S
C84 O85 1.227 . S
O85 C84 1.227 . S
N86 Co72 2.140 . S
N86 C89 1.346 . S
N86 C90 1.345 . S
C87 C88 1.387 . S
C87 C91 1.391 1_554 S
C88 C87 1.387 . S
C88 C89 1.369 1_554 S
C88 H97 0.929 . S
C89 N86 1.346 . S
C89 C88 1.369 1_556 S
C89 H92 0.928 . S
C90 N86 1.345 . S
C90 C91 1.371 . S
C90 H93 0.931 . S
C91 C87 1.391 1_556 S
C91 C90 1.371 . S
C91 H98 0.930 . S
H92 C89 0.928 . S
H93 C90 0.931 . S
H94 C70 0.930 . S
H95 C67 0.930 . S
H96 C76 0.930 . S
H97 C88 0.929 . S
H98 C91 0.930 . S
C99 C100 1.351 . S
C99 N102 1.368 . S
C99 H104 0.931 . S
C100 C99 1.351 . S
C100 N101 1.373 . S
C100 H128 0.930 . S
N101 C100 1.373 . S
N101 C103 1.340 . S
N102 C99 1.368 . S
N102 C103 1.321 . S
N102 Co105 2.135 . S
C103 N101 1.340 . S
C103 N102 1.321 . S
C103 H127 0.930 . S
H104 C99 0.931 . S
Co105 N102 2.135 . S
Co105 N108 2.121 . S
Co105 O113 2.055 . S
Co105 O116 2.039 . S
Co105 N119 2.140 . S
C106 O107 1.227 . S
C106 O116 1.265 . S
O107 C106 1.227 . S
N108 Co105 2.121 . S
N108 C110 1.375 . S
N108 C111 1.313 . S
C109 C110 1.338 . S
C109 N112 1.377 . S
C109 H129 0.930 . S
C110 N108 1.375 . S
C110 C109 1.338 . S
C110 H114 0.931 . S
C111 N108 1.313 . S
C111 N112 1.344 . S
C111 H115 0.930 . S
N112 C109 1.377 . S
N112 C111 1.344 . S
O113 Co105 2.055 . S
O113 C117 1.253 . S
H114 C110 0.931 . S
H115 C111 0.930 . S
O116 Co105 2.039 . S
O116 C106 1.265 . S
C117 O113 1.253 . S
C117 O118 1.227 . S
O118 C117 1.227 . S
N119 Co105 2.140 . S
N119 C122 1.346 . S
N119 C123 1.345 . S
C120 C121 1.387 . S
C120 C124 1.391 . S
C121 C120 1.387 . S
C121 C122 1.369 . S
C121 H130 0.929 . S
C122 N119 1.346 . S
C122 C121 1.369 . S
C122 H125 0.928 . S
C123 N119 1.345 . S
C123 C124 1.371 . S
C123 H126 0.931 . S
C124 C120 1.391 . S
C124 C123 1.371 . S
C124 H131 0.930 . S
H125 C122 0.928 . S
H126 C123 0.931 . S
H127 C103 0.930 . S
H128 C100 0.930 . S
H129 C109 0.930 . S
H130 C121 0.929 . S
H131 C124 0.930 . S
C132 C133 1.351 . S
C132 N135 1.368 . S
C132 H137 0.931 . S
C133 C132 1.351 . S
C133 N134 1.373 . S
C133 H161 0.930 . S
N134 C133 1.373 . S
N134 C136 1.340 . S
N135 C132 1.368 . S
N135 C136 1.321 . S
N135 Co138 2.135 . S
C136 N134 1.340 . S
C136 N135 1.321 . S
C136 H160 0.930 . S
H137 C132 0.931 . S
Co138 N135 2.135 . S
Co138 N141 2.121 . S
Co138 O146 2.055 . S
Co138 O149 2.039 . S
Co138 N152 2.140 . S
C139 O140 1.227 . S
C139 O149 1.265 . S
O140 C139 1.227 . S
N141 Co138 2.121 . S
N141 C143 1.375 . S
N141 C144 1.313 . S
C142 C143 1.338 . S
C142 N145 1.377 . S
C142 H162 0.930 . S
C143 N141 1.375 . S
C143 C142 1.338 . S
C143 H147 0.931 . S
C144 N141 1.313 . S
C144 N145 1.344 . S
C144 H148 0.930 . S
N145 C142 1.377 . S
N145 C144 1.344 . S
O146 Co138 2.055 . S
O146 C150 1.253 . S
H147 C143 0.931 . S
H148 C144 0.930 . S
O149 Co138 2.039 . S
O149 C139 1.265 . S
C150 O146 1.253 . S
C150 O151 1.227 . S
O151 C150 1.227 . S
N152 Co138 2.140 . S
N152 C155 1.346 . S
N152 C156 1.345 . S
C153 C154 1.387 . S
C153 C157 1.391 1_554 S
C154 C153 1.387 . S
C154 C155 1.369 1_554 S
C154 H163 0.929 . S
C155 N152 1.346 . S
C155 C154 1.369 1_556 S
C155 H158 0.928 . S
C156 N152 1.345 . S
C156 C157 1.371 . S
C156 H159 0.931 . S
C157 C153 1.391 1_556 S
C157 C156 1.371 . S
C157 H164 0.930 . S
H158 C155 0.928 . S
H159 C156 0.931 . S
H160 C136 0.930 . S
H161 C133 0.930 . S
H162 C142 0.930 . S
H163 C154 0.929 . S
H164 C157 0.930 . S
C165 C166 1.351 . S
C165 N168 1.368 . S
C165 H170 0.931 . S
C166 C165 1.351 . S
C166 N167 1.373 . S
C166 H194 0.930 . S
N167 C166 1.373 . S
N167 C169 1.340 . S
N168 C165 1.368 . S
N168 C169 1.321 . S
N168 Co171 2.135 . S
C169 N167 1.340 . S
C169 N168 1.321 . S
C169 H193 0.930 . S
H170 C165 0.931 . S
Co171 N168 2.135 . S
Co171 N174 2.121 . S
Co171 O179 2.055 . S
Co171 O182 2.039 . S
Co171 N185 2.140 . S
C172 O173 1.227 . S
C172 O182 1.265 . S
O173 C172 1.227 . S
N174 Co171 2.121 . S
N174 C176 1.375 . S
N174 C177 1.313 . S
C175 C176 1.338 . S
C175 N178 1.377 . S
C175 H195 0.930 . S
C176 N174 1.375 . S
C176 C175 1.338 . S
C176 H180 0.931 . S
C177 N174 1.313 . S
C177 N178 1.344 . S
C177 H181 0.930 . S
N178 C175 1.377 . S
N178 C177 1.344 . S
O179 Co171 2.055 . S
O179 C183 1.253 . S
H180 C176 0.931 . S
H181 C177 0.930 . S
O182 Co171 2.039 . S
O182 C172 1.265 . S
C183 O179 1.253 . S
C183 O184 1.227 . S
O184 C183 1.227 . S
N185 Co171 2.140 . S
N185 C188 1.346 . S
N185 C189 1.345 . S
C186 C187 1.387 . S
C186 C190 1.391 . S
C187 C186 1.387 . S
C187 C188 1.369 . S
C187 H196 0.929 . S
C188 N185 1.346 . S
C188 C187 1.369 . S
C188 H191 0.928 . S
C189 N185 1.345 . S
C189 C190 1.371 . S
C189 H192 0.931 . S
C190 C186 1.391 . S
C190 C189 1.371 . S
C190 H197 0.930 . S
H191 C188 0.928 . S
H192 C189 0.931 . S
H193 C169 0.930 . S
H194 C166 0.930 . S
H195 C175 0.930 . S
H196 C187 0.929 . S
H197 C190 0.930 . S
C198 C199 1.351 . S
C198 N201 1.368 . S
C198 H203 0.931 . S
C199 C198 1.351 . S
C199 N200 1.373 . S
C199 H227 0.930 . S
N200 C199 1.373 . S
N200 C202 1.340 . S
N201 C198 1.368 . S
N201 C202 1.321 . S
N201 Co204 2.135 . S
C202 N200 1.340 . S
C202 N201 1.321 . S
C202 H226 0.930 . S
H203 C198 0.931 . S
Co204 N201 2.135 . S
Co204 N207 2.121 . S
Co204 O212 2.055 . S
Co204 O215 2.039 . S
Co204 N218 2.140 . S
C205 O206 1.227 . S
C205 O215 1.265 . S
O206 C205 1.227 . S
N207 Co204 2.121 . S
N207 C209 1.375 . S
N207 C210 1.313 . S
C208 C209 1.338 . S
C208 N211 1.377 . S
C208 H228 0.930 . S
C209 N207 1.375 . S
C209 C208 1.338 . S
C209 H213 0.931 . S
C210 N207 1.313 . S
C210 N211 1.344 . S
C210 H214 0.930 . S
N211 C208 1.377 . S
N211 C210 1.344 . S
O212 Co204 2.055 . S
O212 C216 1.253 . S
H213 C209 0.931 . S
H214 C210 0.930 . S
O215 Co204 2.039 . S
O215 C205 1.265 . S
C216 O212 1.253 . S
C216 O217 1.227 . S
O217 C216 1.227 . S
N218 Co204 2.140 . S
N218 C221 1.346 . S
N218 C222 1.345 . S
C219 C220 1.387 . S
C219 C223 1.391 1_556 S
C220 C219 1.387 . S
C220 C221 1.369 1_556 S
C220 H229 0.929 . S
C221 N218 1.346 . S
C221 C220 1.369 1_554 S
C221 H224 0.928 . S
C222 N218 1.345 . S
C222 C223 1.371 . S
C222 H225 0.931 . S
C223 C219 1.391 1_554 S
C223 C222 1.371 . S
C223 H230 0.930 . S
H224 C221 0.928 . S
H225 C222 0.931 . S
H226 C202 0.930 . S
H227 C199 0.930 . S
H228 C208 0.930 . S
H229 C220 0.929 . S
H230 C223 0.930 . S
C231 C232 1.351 . S
C231 N234 1.368 . S
C231 H236 0.931 . S
C232 C231 1.351 . S
C232 N233 1.373 . S
C232 H260 0.930 . S
N233 C232 1.373 . S
N233 C235 1.340 . S
N234 C231 1.368 . S
N234 C235 1.321 . S
N234 Co237 2.135 . S
C235 N233 1.340 . S
C235 N234 1.321 . S
C235 H259 0.930 . S
H236 C231 0.931 . S
Co237 N234 2.135 . S
Co237 N240 2.121 . S
Co237 O245 2.055 . S
Co237 O248 2.039 . S
Co237 N251 2.140 . S
C238 O239 1.227 . S
C238 O248 1.265 . S
O239 C238 1.227 . S
N240 Co237 2.121 . S
N240 C242 1.375 . S
N240 C243 1.313 . S
C241 C242 1.338 . S
C241 N244 1.377 . S
C241 H261 0.930 . S
C242 N240 1.375 . S
C242 C241 1.338 . S
C242 H246 0.931 . S
C243 N240 1.313 . S
C243 N244 1.344 . S
C243 H247 0.930 . S
N244 C241 1.377 . S
N244 C243 1.344 . S
O245 Co237 2.055 . S
O245 C249 1.253 . S
H246 C242 0.931 . S
H247 C243 0.930 . S
O248 Co237 2.039 . S
O248 C238 1.265 . S
C249 O245 1.253 . S
C249 O250 1.227 . S
O250 C249 1.227 . S
N251 Co237 2.140 . S
N251 C254 1.346 . S
N251 C255 1.345 . S
C252 C253 1.387 . S
C252 C256 1.391 . S
C253 C252 1.387 . S
C253 C254 1.369 . S
C253 H262 0.929 . S
C254 N251 1.346 . S
C254 C253 1.369 . S
C254 H257 0.928 . S
C255 N251 1.345 . S
C255 C256 1.371 . S
C255 H258 0.931 . S
C256 C252 1.391 . S
C256 C255 1.371 . S
C256 H263 0.930 . S
H257 C254 0.928 . S
H258 C255 0.931 . S
H259 C235 0.930 . S
H260 C232 0.930 . S
H261 C241 0.930 . S
H262 C253 0.929 . S
H263 C256 0.930 . S
C264 C265 1.351 . S
C264 N267 1.368 . S
C264 H269 0.931 . S
C265 C264 1.351 . S
C265 N266 1.373 . S
C265 H293 0.930 . S
N266 C265 1.373 . S
N266 C268 1.340 . S
N267 C264 1.368 . S
N267 C268 1.321 . S
N267 Co270 2.135 . S
C268 N266 1.340 . S
C268 N267 1.321 . S
C268 H292 0.930 . S
H269 C264 0.931 . S
Co270 N267 2.135 . S
Co270 N273 2.121 . S
Co270 O278 2.055 . S
Co270 O281 2.039 . S
Co270 N284 2.140 . S
C271 O272 1.227 . S
C271 O281 1.265 . S
O272 C271 1.227 . S
N273 Co270 2.121 . S
N273 C275 1.375 . S
N273 C276 1.313 . S
C274 C275 1.338 . S
C274 N277 1.377 . S
C274 H294 0.930 . S
C275 N273 1.375 . S
C275 C274 1.338 . S
C275 H279 0.931 . S
C276 N273 1.313 . S
C276 N277 1.344 . S
C276 H280 0.930 . S
N277 C274 1.377 . S
N277 C276 1.344 . S
O278 Co270 2.055 . S
O278 C282 1.253 . S
H279 C275 0.931 . S
H280 C276 0.930 . S
O281 Co270 2.039 . S
O281 C271 1.265 . S
C282 O278 1.253 . S
C282 O283 1.227 . S
O283 C282 1.227 . S
N284 Co270 2.140 . S
N284 C287 1.346 . S
N284 C288 1.345 . S
C285 C286 1.387 . S
C285 C289 1.391 1_556 S
C286 C285 1.387 . S
C286 C287 1.369 1_556 S
C286 H295 0.929 . S
C287 N284 1.346 . S
C287 C286 1.369 1_554 S
C287 H290 0.928 . S
C288 N284 1.345 . S
C288 C289 1.371 . S
C288 H291 0.931 . S
C289 C285 1.391 1_554 S
C289 C288 1.371 . S
C289 H296 0.930 . S
H290 C287 0.928 . S
H291 C288 0.931 . S
H292 C268 0.930 . S
H293 C265 0.930 . S
H294 C274 0.930 . S
H295 C286 0.929 . S
H296 C289 0.930 . S
C297 C298 1.351 . S
C297 N300 1.368 . S
C297 H302 0.931 . S
C298 C297 1.351 . S
C298 N299 1.373 . S
C298 H326 0.930 . S
N299 C298 1.373 . S
N299 C301 1.340 . S
N300 C297 1.368 . S
N300 C301 1.321 . S
N300 Co303 2.135 . S
C301 N299 1.340 . S
C301 N300 1.321 . S
C301 H325 0.930 . S
H302 C297 0.931 . S
Co303 N300 2.135 . S
Co303 N306 2.121 . S
Co303 O311 2.055 . S
Co303 O314 2.039 . S
Co303 N317 2.140 . S
C304 O305 1.227 . S
C304 O314 1.265 . S
O305 C304 1.227 . S
N306 Co303 2.121 . S
N306 C308 1.375 . S
N306 C309 1.313 . S
C307 C308 1.338 . S
C307 N310 1.377 . S
C307 H327 0.930 . S
C308 N306 1.375 . S
C308 C307 1.338 . S
C308 H312 0.931 . S
C309 N306 1.313 . S
C309 N310 1.344 . S
C309 H313 0.930 . S
N310 C307 1.377 . S
N310 C309 1.344 . S
O311 Co303 2.055 . S
O311 C315 1.253 . S
H312 C308 0.931 . S
H313 C309 0.930 . S
O314 Co303 2.039 . S
O314 C304 1.265 . S
C315 O311 1.253 . S
C315 O316 1.227 . S
O316 C315 1.227 . S
N317 Co303 2.140 . S
N317 C320 1.346 . S
N317 C321 1.345 . S
C318 C319 1.387 . S
C318 C322 1.391 . S
C319 C318 1.387 . S
C319 C320 1.369 . S
C319 H328 0.929 . S
C320 N317 1.346 . S
C320 C319 1.369 . S
C320 H323 0.928 . S
C321 N317 1.345 . S
C321 C322 1.371 . S
C321 H324 0.931 . S
C322 C318 1.391 . S
C322 C321 1.371 . S
C322 H329 0.930 . S
H323 C320 0.928 . S
H324 C321 0.931 . S
H325 C301 0.930 . S
H326 C298 0.930 . S
H327 C307 0.930 . S
H328 C319 0.929 . S
H329 C322 0.930 . S
C330 C331 1.351 . S
C330 N333 1.368 . S
C330 H335 0.931 . S
C331 C330 1.351 . S
C331 N332 1.373 . S
C331 H359 0.930 . S
N332 C331 1.373 . S
N332 C334 1.340 . S
N333 C330 1.368 . S
N333 C334 1.321 . S
N333 Co336 2.135 . S
C334 N332 1.340 . S
C334 N333 1.321 . S
C334 H358 0.930 . S
H335 C330 0.931 . S
Co336 N333 2.135 . S
Co336 N339 2.121 . S
Co336 O344 2.055 . S
Co336 O347 2.039 . S
Co336 N350 2.140 . S
C337 O338 1.227 . S
C337 O347 1.265 . S
O338 C337 1.227 . S
N339 Co336 2.121 . S
N339 C341 1.375 . S
N339 C342 1.313 . S
C340 C341 1.338 . S
C340 N343 1.377 . S
C340 H360 0.930 . S
C341 N339 1.375 . S
C341 C340 1.338 . S
C341 H345 0.931 . S
C342 N339 1.313 . S
C342 N343 1.344 . S
C342 H346 0.930 . S
N343 C340 1.377 . S
N343 C342 1.344 . S
O344 Co336 2.055 . S
O344 C348 1.253 . S
H345 C341 0.931 . S
H346 C342 0.930 . S
O347 Co336 2.039 . S
O347 C337 1.265 . S
C348 O344 1.253 . S
C348 O349 1.227 . S
O349 C348 1.227 . S
N350 Co336 2.140 . S
N350 C353 1.346 . S
N350 C354 1.345 . S
C351 C352 1.387 . S
C351 C355 1.391 1_554 S
C352 C351 1.387 . S
C352 C353 1.369 1_554 S
C352 H361 0.929 . S
C353 N350 1.346 . S
C353 C352 1.369 1_556 S
C353 H356 0.928 . S
C354 N350 1.345 . S
C354 C355 1.371 . S
C354 H357 0.931 . S
C355 C351 1.391 1_556 S
C355 C354 1.371 . S
C355 H362 0.930 . S
H356 C353 0.928 . S
H357 C354 0.931 . S
H358 C334 0.930 . S
H359 C331 0.930 . S
H360 C340 0.930 . S
H361 C352 0.929 . S
H362 C355 0.930 . S
C363 C364 1.351 . S
C363 N366 1.368 . S
C363 H368 0.931 . S
C364 C363 1.351 . S
C364 N365 1.373 . S
C364 H392 0.930 . S
N365 C364 1.373 . S
N365 C367 1.340 . S
N366 C363 1.368 . S
N366 C367 1.321 . S
N366 Co369 2.135 . S
C367 N365 1.340 . S
C367 N366 1.321 . S
C367 H391 0.930 . S
H368 C363 0.931 . S
Co369 N366 2.135 . S
Co369 N372 2.121 . S
Co369 O377 2.055 . S
Co369 O380 2.039 . S
Co369 N383 2.140 . S
C370 O371 1.227 . S
C370 O380 1.265 . S
O371 C370 1.227 . S
N372 Co369 2.121 . S
N372 C374 1.375 . S
N372 C375 1.313 . S
C373 C374 1.338 . S
C373 N376 1.377 . S
C373 H393 0.930 . S
C374 N372 1.375 . S
C374 C373 1.338 . S
C374 H378 0.931 . S
C375 N372 1.313 . S
C375 N376 1.344 . S
C375 H379 0.930 . S
N376 C373 1.377 . S
N376 C375 1.344 . S
O377 Co369 2.055 . S
O377 C381 1.253 . S
H378 C374 0.931 . S
H379 C375 0.930 . S
O380 Co369 2.039 . S
O380 C370 1.265 . S
C381 O377 1.253 . S
C381 O382 1.227 . S
O382 C381 1.227 . S
N383 Co369 2.140 . S
N383 C386 1.346 . S
N383 C387 1.345 . S
C384 C385 1.387 . S
C384 C388 1.391 . S
C385 C384 1.387 . S
C385 C386 1.369 . S
C385 H394 0.929 . S
C386 N383 1.346 . S
C386 C385 1.369 . S
C386 H389 0.928 . S
C387 N383 1.345 . S
C387 C388 1.371 . S
C387 H390 0.931 . S
C388 C384 1.391 . S
C388 C387 1.371 . S
C388 H395 0.930 . S
H389 C386 0.928 . S
H390 C387 0.931 . S
H391 C367 0.930 . S
H392 C364 0.930 . S
H393 C373 0.930 . S
H394 C385 0.929 . S
H395 C388 0.930 . S
C396 C397 1.351 . S
C396 N399 1.368 . S
C396 H401 0.931 . S
C397 C396 1.351 . S
C397 N398 1.373 . S
C397 H425 0.930 . S
N398 C397 1.373 . S
N398 C400 1.340 . S
N399 C396 1.368 . S
N399 C400 1.321 . S
N399 Co402 2.135 . S
C400 N398 1.340 . S
C400 N399 1.321 . S
C400 H424 0.930 . S
H401 C396 0.931 . S
Co402 N399 2.135 . S
Co402 N405 2.121 . S
Co402 O410 2.055 . S
Co402 O413 2.039 . S
Co402 N416 2.140 . S
C403 O404 1.227 . S
C403 O413 1.265 . S
O404 C403 1.227 . S
N405 Co402 2.121 . S
N405 C407 1.375 . S
N405 C408 1.313 . S
C406 C407 1.338 . S
C406 N409 1.377 . S
C406 H426 0.930 . S
C407 N405 1.375 . S
C407 C406 1.338 . S
C407 H411 0.931 . S
C408 N405 1.313 . S
C408 N409 1.344 . S
C408 H412 0.930 . S
N409 C406 1.377 . S
N409 C408 1.344 . S
O410 Co402 2.055 . S
O410 C414 1.253 . S
H411 C407 0.931 . S
H412 C408 0.930 . S
O413 Co402 2.039 . S
O413 C403 1.265 . S
C414 O410 1.253 . S
C414 O415 1.227 . S
O415 C414 1.227 . S
N416 Co402 2.140 . S
N416 C419 1.346 . S
N416 C420 1.345 . S
C417 C418 1.387 . S
C417 C421 1.391 1_554 S
C418 C417 1.387 . S
C418 C419 1.369 1_554 S
C418 H427 0.929 . S
C419 N416 1.346 . S
C419 C418 1.369 1_556 S
C419 H422 0.928 . S
C420 N416 1.345 . S
C420 C421 1.371 . S
C420 H423 0.931 . S
C421 C417 1.391 1_556 S
C421 C420 1.371 . S
C421 H428 0.930 . S
H422 C419 0.928 . S
H423 C420 0.931 . S
H424 C400 0.930 . S
H425 C397 0.930 . S
H426 C406 0.930 . S
H427 C418 0.929 . S
H428 C421 0.930 . S
C429 C430 1.351 . S
C429 N432 1.368 . S
C429 H434 0.931 . S
C430 C429 1.351 . S
C430 N431 1.373 . S
C430 H458 0.930 . S
N431 C430 1.373 . S
N431 C433 1.340 . S
N432 C429 1.368 . S
N432 C433 1.321 . S
N432 Co435 2.135 . S
C433 N431 1.340 . S
C433 N432 1.321 . S
C433 H457 0.930 . S
H434 C429 0.931 . S
Co435 N432 2.135 . S
Co435 N438 2.121 . S
Co435 O443 2.055 . S
Co435 O446 2.039 . S
Co435 N449 2.140 . S
C436 O437 1.227 . S
C436 O446 1.265 . S
O437 C436 1.227 . S
N438 Co435 2.121 . S
N438 C440 1.375 . S
N438 C441 1.313 . S
C439 C440 1.338 . S
C439 N442 1.377 . S
C439 H459 0.930 . S
C440 N438 1.375 . S
C440 C439 1.338 . S
C440 H444 0.931 . S
C441 N438 1.313 . S
C441 N442 1.344 . S
C441 H445 0.930 . S
N442 C439 1.377 . S
N442 C441 1.344 . S
O443 Co435 2.055 . S
O443 C447 1.253 . S
H444 C440 0.931 . S
H445 C441 0.930 . S
O446 Co435 2.039 . S
O446 C436 1.265 . S
C447 O443 1.253 . S
C447 O448 1.227 . S
O448 C447 1.227 . S
N449 Co435 2.140 . S
N449 C452 1.346 . S
N449 C453 1.345 . S
C450 C451 1.387 . S
C450 C454 1.391 . S
C451 C450 1.387 . S
C451 C452 1.369 . S
C451 H460 0.929 . S
C452 N449 1.346 . S
C452 C451 1.369 . S
C452 H455 0.928 . S
C453 N449 1.345 . S
C453 C454 1.371 . S
C453 H456 0.931 . S
C454 C450 1.391 . S
C454 C453 1.371 . S
C454 H461 0.930 . S
H455 C452 0.928 . S
H456 C453 0.931 . S
H457 C433 0.930 . S
H458 C430 0.930 . S
H459 C439 0.930 . S
H460 C451 0.929 . S
H461 C454 0.930 . S
C462 C463 1.351 . S
C462 N465 1.368 . S
C462 H467 0.931 . S
C463 C462 1.351 . S
C463 N464 1.373 . S
C463 H491 0.930 . S
N464 C463 1.373 . S
N464 C466 1.340 . S
N465 C462 1.368 . S
N465 C466 1.321 . S
N465 Co468 2.135 . S
C466 N464 1.340 . S
C466 N465 1.321 . S
C466 H490 0.930 . S
H467 C462 0.931 . S
Co468 N465 2.135 . S
Co468 N471 2.121 . S
Co468 O476 2.055 . S
Co468 O479 2.039 . S
Co468 N482 2.140 . S
C469 O470 1.227 . S
C469 O479 1.265 . S
O470 C469 1.227 . S
N471 Co468 2.121 . S
N471 C473 1.375 . S
N471 C474 1.313 . S
C472 C473 1.338 . S
C472 N475 1.377 . S
C472 H492 0.930 . S
C473 N471 1.375 . S
C473 C472 1.338 . S
C473 H477 0.931 . S
C474 N471 1.313 . S
C474 N475 1.344 . S
C474 H478 0.930 . S
N475 C472 1.377 . S
N475 C474 1.344 . S
O476 Co468 2.055 . S
O476 C480 1.253 . S
H477 C473 0.931 . S
H478 C474 0.930 . S
O479 Co468 2.039 . S
O479 C469 1.265 . S
C480 O476 1.253 . S
C480 O481 1.227 . S
O481 C480 1.227 . S
N482 Co468 2.140 . S
N482 C485 1.346 . S
N482 C486 1.345 . S
C483 C484 1.387 . S
C483 C487 1.391 1_556 S
C484 C483 1.387 . S
C484 C485 1.369 1_556 S
C484 H493 0.929 . S
C485 N482 1.346 . S
C485 C484 1.369 1_554 S
C485 H488 0.928 . S
C486 N482 1.345 . S
C486 C487 1.371 . S
C486 H489 0.931 . S
C487 C483 1.391 1_554 S
C487 C486 1.371 . S
C487 H494 0.930 . S
H488 C485 0.928 . S
H489 C486 0.931 . S
H490 C466 0.930 . S
H491 C463 0.930 . S
H492 C472 0.930 . S
H493 C484 0.929 . S
H494 C487 0.930 . S
C495 C496 1.351 . S
C495 N498 1.368 . S
C495 H500 0.931 . S
C496 C495 1.351 . S
C496 N497 1.373 . S
C496 H524 0.930 . S
N497 C496 1.373 . S
N497 C499 1.340 . S
N498 C495 1.368 . S
N498 C499 1.321 . S
N498 Co501 2.135 . S
C499 N497 1.340 . S
C499 N498 1.321 . S
C499 H523 0.930 . S
H500 C495 0.931 . S
Co501 N498 2.135 . S
Co501 N504 2.121 . S
Co501 O509 2.055 . S
Co501 O512 2.039 . S
Co501 N515 2.140 . S
C502 O503 1.227 . S
C502 O512 1.265 . S
O503 C502 1.227 . S
N504 Co501 2.121 . S
N504 C506 1.375 . S
N504 C507 1.313 . S
C505 C506 1.338 . S
C505 N508 1.377 . S
C505 H525 0.930 . S
C506 N504 1.375 . S
C506 C505 1.338 . S
C506 H510 0.931 . S
C507 N504 1.313 . S
C507 N508 1.344 . S
C507 H511 0.930 . S
N508 C505 1.377 . S
N508 C507 1.344 . S
O509 Co501 2.055 . S
O509 C513 1.253 . S
H510 C506 0.931 . S
H511 C507 0.930 . S
O512 Co501 2.039 . S
O512 C502 1.265 . S
C513 O509 1.253 . S
C513 O514 1.227 . S
O514 C513 1.227 . S
N515 Co501 2.140 . S
N515 C518 1.346 . S
N515 C519 1.345 . S
C516 C517 1.387 . S
C516 C520 1.391 . S
C517 C516 1.387 . S
C517 C518 1.369 . S
C517 H526 0.929 . S
C518 N515 1.346 . S
C518 C517 1.369 . S
C518 H521 0.928 . S
C519 N515 1.345 . S
C519 C520 1.371 . S
C519 H522 0.931 . S
C520 C516 1.391 . S
C520 C519 1.371 . S
C520 H527 0.930 . S
H521 C518 0.928 . S
H522 C519 0.931 . S
H523 C499 0.930 . S
H524 C496 0.930 . S
H525 C505 0.930 . S
H526 C517 0.929 . S
H527 C520 0.930 . S
H528 C540 0.930 . S
H529 C542 0.930 . S
H530 C543 0.930 . S
H531 C547 0.959 . S
H532 C547 0.959 . S
H533 C547 0.961 . S
H534 C548 0.960 . S
H535 C548 0.961 . S
H536 C548 0.959 . S
H537 C551 0.929 . S
H538 C552 0.931 . S
H539 C554 0.930 . S
C540 H528 0.930 . S
C540 C541 1.399 . S
C540 C545 1.399 . S
C541 C540 1.399 . S
C541 C542 1.376 . S
C542 H529 0.930 . S
C542 C541 1.376 . S
C542 C543 1.388 . S
C543 H530 0.930 . S
C543 C542 1.388 . S
C543 C544 1.390 . S
C544 C543 1.390 . S
C544 C545 1.394 . S
C544 C550 1.465 . S
C545 C540 1.399 . S
C545 C544 1.394 . S
C545 C546 1.516 . S
C546 C545 1.516 . S
C546 C547 1.502 . S
C546 C548 1.561 . S
C546 C549 1.526 . S
C547 H531 0.959 . S
C547 H532 0.959 . S
C547 H533 0.961 . S
C547 C546 1.502 . S
C548 H534 0.960 . S
C548 H535 0.961 . S
C548 H536 0.959 . S
C548 C546 1.561 . S
C549 C546 1.526 . S
C549 C550 1.396 . S
C549 C554 1.390 . S
C550 C544 1.465 . S
C550 C549 1.396 . S
C550 C551 1.399 . S
C551 H537 0.929 . S
C551 C550 1.399 . S
C551 C552 1.385 . S
C552 H538 0.931 . S
C552 C551 1.385 . S
C552 C553 1.389 . S
C553 C552 1.389 . S
C553 C554 1.387 . S
C554 H539 0.930 . S
C554 C549 1.390 . S
C554 C553 1.387 . S
H555 C567 0.930 . S
H556 C569 0.930 . S
H557 C570 0.930 . S
H558 C574 0.959 . S
H559 C574 0.959 . S
H560 C574 0.961 . S
H561 C575 0.960 . S
H562 C575 0.961 . S
H563 C575 0.959 . S
H564 C578 0.929 . S
H565 C579 0.931 . S
H566 C581 0.930 . S
C567 H555 0.930 . S
C567 C568 1.399 . S
C567 C572 1.399 . S
C568 C567 1.399 . S
C568 C569 1.376 . S
C569 H556 0.930 . S
C569 C568 1.376 . S
C569 C570 1.388 . S
C570 H557 0.930 . S
C570 C569 1.388 . S
C570 C571 1.390 . S
C571 C570 1.390 . S
C571 C572 1.394 . S
C571 C577 1.465 . S
C572 C567 1.399 . S
C572 C571 1.394 . S
C572 C573 1.516 . S
C573 C572 1.516 . S
C573 C574 1.502 . S
C573 C575 1.561 . S
C573 C576 1.526 . S
C574 H558 0.959 . S
C574 H559 0.959 . S
C574 H560 0.961 . S
C574 C573 1.502 . S
C575 H561 0.960 . S
C575 H562 0.961 . S
C575 H563 0.959 . S
C575 C573 1.561 . S
C576 C573 1.526 . S
C576 C577 1.396 . S
C576 C581 1.390 . S
C577 C571 1.465 . S
C577 C576 1.396 . S
C577 C578 1.399 . S
C578 H564 0.929 . S
C578 C577 1.399 . S
C578 C579 1.385 . S
C579 H565 0.931 . S
C579 C578 1.385 . S
C579 C580 1.389 . S
C580 C579 1.389 . S
C580 C581 1.387 . S
C581 H566 0.930 . S
C581 C576 1.390 . S
C581 C580 1.387 . S
H582 C594 0.930 . S
H583 C596 0.930 . S
H584 C597 0.930 . S
H585 C601 0.959 . S
H586 C601 0.959 . S
H587 C601 0.961 . S
H588 C602 0.960 . S
H589 C602 0.961 . S
H590 C602 0.959 . S
H591 C605 0.929 . S
H592 C606 0.931 . S
H593 C608 0.930 . S
C594 H582 0.930 . S
C594 C595 1.399 . S
C594 C599 1.399 . S
C595 C594 1.399 . S
C595 C596 1.376 . S
C596 H583 0.930 . S
C596 C595 1.376 . S
C596 C597 1.388 . S
C597 H584 0.930 . S
C597 C596 1.388 . S
C597 C598 1.390 . S
C598 C597 1.390 . S
C598 C599 1.394 . S
C598 C604 1.465 . S
C599 C594 1.399 . S
C599 C598 1.394 . S
C599 C600 1.516 . S
C600 C599 1.516 . S
C600 C601 1.502 . S
C600 C602 1.561 . S
C600 C603 1.526 . S
C601 H585 0.959 . S
C601 H586 0.959 . S
C601 H587 0.961 . S
C601 C600 1.502 . S
C602 H588 0.960 . S
C602 H589 0.961 . S
C602 H590 0.959 . S
C602 C600 1.561 . S
C603 C600 1.526 . S
C603 C604 1.396 . S
C603 C608 1.390 . S
C604 C598 1.465 . S
C604 C603 1.396 . S
C604 C605 1.399 . S
C605 H591 0.929 . S
C605 C604 1.399 . S
C605 C606 1.385 . S
C606 H592 0.931 . S
C606 C605 1.385 . S
C606 C607 1.389 . S
C607 C606 1.389 . S
C607 C608 1.387 . S
C608 H593 0.930 . S
C608 C603 1.390 . S
C608 C607 1.387 . S
H609 C621 0.930 . S
H610 C623 0.930 . S
H611 C624 0.930 . S
H612 C628 0.959 . S
H613 C628 0.959 . S
H614 C628 0.961 . S
H615 C629 0.960 . S
H616 C629 0.961 . S
H617 C629 0.959 . S
H618 C632 0.929 . S
H619 C633 0.931 . S
H620 C635 0.930 . S
C621 H609 0.930 . S
C621 C622 1.399 . S
C621 C626 1.399 . S
C622 C621 1.399 . S
C622 C623 1.376 . S
C623 H610 0.930 . S
C623 C622 1.376 . S
C623 C624 1.388 . S
C624 H611 0.930 . S
C624 C623 1.388 . S
C624 C625 1.390 . S
C625 C624 1.390 . S
C625 C626 1.394 . S
C625 C631 1.465 . S
C626 C621 1.399 . S
C626 C625 1.394 . S
C626 C627 1.516 . S
C627 C626 1.516 . S
C627 C628 1.502 . S
C627 C629 1.561 . S
C627 C630 1.526 . S
C628 H612 0.959 . S
C628 H613 0.959 . S
C628 H614 0.961 . S
C628 C627 1.502 . S
C629 H615 0.960 . S
C629 H616 0.961 . S
C629 H617 0.959 . S
C629 C627 1.561 . S
C630 C627 1.526 . S
C630 C631 1.396 . S
C630 C635 1.390 . S
C631 C625 1.465 . S
C631 C630 1.396 . S
C631 C632 1.399 . S
C632 H618 0.929 . S
C632 C631 1.399 . S
C632 C633 1.385 . S
C633 H619 0.931 . S
C633 C632 1.385 . S
C633 C634 1.389 . S
C634 C633 1.389 . S
C634 C635 1.387 . S
C635 H620 0.930 . S
C635 C630 1.390 . S
C635 C634 1.387 . S
H636 C648 0.930 . S
H637 C650 0.930 . S
H638 C651 0.930 . S
H639 C655 0.959 . S
H640 C655 0.959 . S
H641 C655 0.961 . S
H642 C656 0.960 . S
H643 C656 0.961 . S
H644 C656 0.959 . S
H645 C659 0.929 . S
H646 C660 0.931 . S
H647 C662 0.930 . S
C648 H636 0.930 . S
C648 C649 1.399 . S
C648 C653 1.399 . S
C649 C648 1.399 . S
C649 C650 1.376 . S
C650 H637 0.930 . S
C650 C649 1.376 . S
C650 C651 1.388 . S
C651 H638 0.930 . S
C651 C650 1.388 . S
C651 C652 1.390 . S
C652 C651 1.390 . S
C652 C653 1.394 . S
C652 C658 1.465 . S
C653 C648 1.399 . S
C653 C652 1.394 . S
C653 C654 1.516 . S
C654 C653 1.516 . S
C654 C655 1.502 . S
C654 C656 1.561 . S
C654 C657 1.526 . S
C655 H639 0.959 . S
C655 H640 0.959 . S
C655 H641 0.961 . S
C655 C654 1.502 . S
C656 H642 0.960 . S
C656 H643 0.961 . S
C656 H644 0.959 . S
C656 C654 1.561 . S
C657 C654 1.526 . S
C657 C658 1.396 . S
C657 C662 1.390 . S
C658 C652 1.465 . S
C658 C657 1.396 . S
C658 C659 1.399 . S
C659 H645 0.929 . S
C659 C658 1.399 . S
C659 C660 1.385 . S
C660 H646 0.931 . S
C660 C659 1.385 . S
C660 C661 1.389 . S
C661 C660 1.389 . S
C661 C662 1.387 . S
C662 H647 0.930 . S
C662 C657 1.390 . S
C662 C661 1.387 . S
H663 C675 0.930 . S
H664 C677 0.930 . S
H665 C678 0.930 . S
H666 C682 0.959 . S
H667 C682 0.959 . S
H668 C682 0.961 . S
H669 C683 0.960 . S
H670 C683 0.961 . S
H671 C683 0.959 . S
H672 C686 0.929 . S
H673 C687 0.931 . S
H674 C689 0.930 . S
C675 H663 0.930 . S
C675 C676 1.399 . S
C675 C680 1.399 . S
C676 C675 1.399 . S
C676 C677 1.376 . S
C677 H664 0.930 . S
C677 C676 1.376 . S
C677 C678 1.388 . S
C678 H665 0.930 . S
C678 C677 1.388 . S
C678 C679 1.390 . S
C679 C678 1.390 . S
C679 C680 1.394 . S
C679 C685 1.465 . S
C680 C675 1.399 . S
C680 C679 1.394 . S
C680 C681 1.516 . S
C681 C680 1.516 . S
C681 C682 1.502 . S
C681 C683 1.561 . S
C681 C684 1.526 . S
C682 H666 0.959 . S
C682 H667 0.959 . S
C682 H668 0.961 . S
C682 C681 1.502 . S
C683 H669 0.960 . S
C683 H670 0.961 . S
C683 H671 0.959 . S
C683 C681 1.561 . S
C684 C681 1.526 . S
C684 C685 1.396 . S
C684 C689 1.390 . S
C685 C679 1.465 . S
C685 C684 1.396 . S
C685 C686 1.399 . S
C686 H672 0.929 . S
C686 C685 1.399 . S
C686 C687 1.385 . S
C687 H673 0.931 . S
C687 C686 1.385 . S
C687 C688 1.389 . S
C688 C687 1.389 . S
C688 C689 1.387 . S
C689 H674 0.930 . S
C689 C684 1.390 . S
C689 C688 1.387 . S
H690 C702 0.930 . S
H691 C704 0.930 . S
H692 C705 0.930 . S
H693 C709 0.959 . S
H694 C709 0.959 . S
H695 C709 0.961 . S
H696 C710 0.960 . S
H697 C710 0.961 . S
H698 C710 0.959 . S
H699 C713 0.929 . S
H700 C714 0.931 . S
H701 C716 0.930 . S
C702 H690 0.930 . S
C702 C703 1.399 . S
C702 C707 1.399 . S
C703 C702 1.399 . S
C703 C704 1.376 . S
C704 H691 0.930 . S
C704 C703 1.376 . S
C704 C705 1.388 . S
C705 H692 0.930 . S
C705 C704 1.388 . S
C705 C706 1.390 . S
C706 C705 1.390 . S
C706 C707 1.394 . S
C706 C712 1.465 . S
C707 C702 1.399 . S
C707 C706 1.394 . S
C707 C708 1.516 . S
C708 C707 1.516 . S
C708 C709 1.502 . S
C708 C710 1.561 . S
C708 C711 1.526 . S
C709 H693 0.959 . S
C709 H694 0.959 . S
C709 H695 0.961 . S
C709 C708 1.502 . S
C710 H696 0.960 . S
C710 H697 0.961 . S
C710 H698 0.959 . S
C710 C708 1.561 . S
C711 C708 1.526 . S
C711 C712 1.396 . S
C711 C716 1.390 . S
C712 C706 1.465 . S
C712 C711 1.396 . S
C712 C713 1.399 . S
C713 H699 0.929 . S
C713 C712 1.399 . S
C713 C714 1.385 . S
C714 H700 0.931 . S
C714 C713 1.385 . S
C714 C715 1.389 . S
C715 C714 1.389 . S
C715 C716 1.387 . S
C716 H701 0.930 . S
C716 C711 1.390 . S
C716 C715 1.387 . S
H717 C729 0.930 . S
H718 C731 0.930 . S
H719 C732 0.930 . S
H720 C736 0.959 . S
H721 C736 0.959 . S
H722 C736 0.961 . S
H723 C737 0.960 . S
H724 C737 0.961 . S
H725 C737 0.959 . S
H726 C740 0.929 . S
H727 C741 0.931 . S
H728 C743 0.930 . S
C729 H717 0.930 . S
C729 C730 1.399 . S
C729 C734 1.399 . S
C730 C729 1.399 . S
C730 C731 1.376 . S
C731 H718 0.930 . S
C731 C730 1.376 . S
C731 C732 1.388 . S
C732 H719 0.930 . S
C732 C731 1.388 . S
C732 C733 1.390 . S
C733 C732 1.390 . S
C733 C734 1.394 . S
C733 C739 1.465 . S
C734 C729 1.399 . S
C734 C733 1.394 . S
C734 C735 1.516 . S
C735 C734 1.516 . S
C735 C736 1.502 . S
C735 C737 1.561 . S
C735 C738 1.526 . S
C736 H720 0.959 . S
C736 H721 0.959 . S
C736 H722 0.961 . S
C736 C735 1.502 . S
C737 H723 0.960 . S
C737 H724 0.961 . S
C737 H725 0.959 . S
C737 C735 1.561 . S
C738 C735 1.526 . S
C738 C739 1.396 . S
C738 C743 1.390 . S
C739 C733 1.465 . S
C739 C738 1.396 . S
C739 C740 1.399 . S
C740 H726 0.929 . S
C740 C739 1.399 . S
C740 C741 1.385 . S
C741 H727 0.931 . S
C741 C740 1.385 . S
C741 C742 1.389 . S
C742 C741 1.389 . S
C742 C743 1.387 . S
C743 H728 0.930 . S
C743 C738 1.390 . S
C743 C742 1.387 . S
H744 C756 0.930 . S
H745 C758 0.930 . S
H746 C759 0.930 . S
H747 C763 0.962 . S
H748 C763 0.978 . S
H749 C763 0.941 1_655 S
H750 C764 0.959 1_655 S
H751 C764 0.962 . S
H752 C764 0.959 . S
H753 C767 0.929 . S
H754 C768 0.931 . S
H755 C770 0.930 . S
C756 H744 0.930 . S
C756 C757 1.399 . S
C756 C761 1.399 . S
C757 C756 1.399 . S
C757 C758 1.376 . S
C758 H745 0.930 . S
C758 C757 1.376 . S
C758 C759 1.388 . S
C759 H746 0.930 . S
C759 C758 1.388 . S
C759 C760 1.390 . S
C760 C759 1.390 . S
C760 C761 1.394 . S
C760 C766 1.465 1_655 S
C761 C756 1.399 . S
C761 C760 1.394 . S
C761 C762 1.518 1_655 S
C762 C761 1.518 1_455 S
C762 C763 1.502 . S
C762 C764 1.561 1_554 S
C762 C765 1.524 . S
C763 H747 0.962 . S
C763 H748 0.978 . S
C763 H749 0.941 1_455 S
C763 C762 1.502 . S
C764 H750 0.959 1_455 S
C764 H751 0.962 . S
C764 H752 0.959 . S
C764 C762 1.561 1_556 S
C765 C762 1.524 . S
C765 C766 1.396 . S
C765 C770 1.390 . S
C766 C760 1.465 1_455 S
C766 C765 1.396 . S
C766 C767 1.399 . S
C767 H753 0.929 . S
C767 C766 1.399 . S
C767 C768 1.385 . S
C768 H754 0.931 . S
C768 C767 1.385 . S
C768 C769 1.389 . S
C769 C768 1.389 . S
C769 C770 1.387 . S
C770 H755 0.930 . S
C770 C765 1.390 . S
C770 C769 1.387 . S
H771 C783 0.930 . S
H772 C785 0.930 . S
H773 C786 0.930 . S
H774 C790 0.959 . S
H775 C790 0.959 . S
H776 C790 0.961 . S
H777 C791 0.960 . S
H778 C791 0.961 . S
H779 C791 0.959 . S
H780 C794 0.929 . S
H781 C795 0.931 . S
H782 C797 0.930 . S
C783 H771 0.930 . S
C783 C784 1.399 . S
C783 C788 1.399 . S
C784 C783 1.399 . S
C784 C785 1.376 . S
C785 H772 0.930 . S
C785 C784 1.376 . S
C785 C786 1.388 . S
C786 H773 0.930 . S
C786 C785 1.388 . S
C786 C787 1.390 . S
C787 C786 1.390 . S
C787 C788 1.394 . S
C787 C793 1.465 . S
C788 C783 1.399 . S
C788 C787 1.394 . S
C788 C789 1.516 . S
C789 C788 1.516 . S
C789 C790 1.502 . S
C789 C791 1.561 . S
C789 C792 1.526 . S
C790 H774 0.959 . S
C790 H775 0.959 . S
C790 H776 0.961 . S
C790 C789 1.502 . S
C791 H777 0.960 . S
C791 H778 0.961 . S
C791 H779 0.959 . S
C791 C789 1.561 . S
C792 C789 1.526 . S
C792 C793 1.396 . S
C792 C797 1.390 . S
C793 C787 1.465 . S
C793 C792 1.396 . S
C793 C794 1.399 . S
C794 H780 0.929 . S
C794 C793 1.399 . S
C794 C795 1.385 . S
C795 H781 0.931 . S
C795 C794 1.385 . S
C795 C796 1.389 . S
C796 C795 1.389 . S
C796 C797 1.387 . S
C797 H782 0.930 . S
C797 C792 1.390 . S
C797 C796 1.387 . S
H798 C810 0.930 . S
H799 C812 0.930 . S
H800 C813 0.930 . S
H801 C817 0.962 . S
H802 C817 0.978 . S
H803 C817 0.941 1_655 S
H804 C818 0.959 1_655 S
H805 C818 0.962 . S
H806 C818 0.959 . S
H807 C821 0.935 . S
H808 C822 0.931 . S
H809 C824 0.930 . S
C810 H798 0.930 . S
C810 C811 1.399 . S
C810 C815 1.399 . S
C811 C810 1.399 . S
C811 C812 1.376 . S
C812 H799 0.930 . S
C812 C811 1.376 . S
C812 C813 1.388 . S
C813 H800 0.930 . S
C813 C812 1.388 . S
C813 C814 1.390 . S
C814 C813 1.390 . S
C814 C815 1.394 . S
C814 C820 1.465 1_655 S
C815 C810 1.399 . S
C815 C814 1.394 . S
C815 C816 1.518 1_655 S
C816 C815 1.518 1_455 S
C816 C817 1.502 . S
C816 C818 1.561 . S
C816 C819 1.524 . S
C817 H801 0.962 . S
C817 H802 0.978 . S
C817 H803 0.941 1_455 S
C817 C816 1.502 . S
C818 H804 0.959 1_455 S
C818 H805 0.962 . S
C818 H806 0.959 . S
C818 C816 1.561 . S
C819 C816 1.524 . S
C819 C820 1.396 . S
C819 C824 1.390 . S
C820 C814 1.465 1_455 S
C820 C819 1.396 . S
C820 C821 1.399 . S
C821 H807 0.935 . S
C821 C820 1.399 . S
C821 C822 1.385 . S
C822 H808 0.931 . S
C822 C821 1.385 . S
C822 C823 1.389 . S
C823 C822 1.389 . S
C823 C824 1.387 . S
C824 H809 0.930 . S
C824 C819 1.390 . S
C824 C823 1.387 . S
H825 C837 0.930 . S
H826 C839 0.930 . S
H827 C840 0.930 . S
H828 C844 0.959 . S
H829 C844 0.959 . S
H830 C844 0.961 . S
H831 C845 0.960 . S
H832 C845 0.961 . S
H833 C845 0.959 . S
H834 C848 0.929 . S
H835 C849 0.931 . S
H836 C851 0.930 . S
C837 H825 0.930 . S
C837 C838 1.399 . S
C837 C842 1.399 . S
C838 C837 1.399 . S
C838 C839 1.376 . S
C839 H826 0.930 . S
C839 C838 1.376 . S
C839 C840 1.388 . S
C840 H827 0.930 . S
C840 C839 1.388 . S
C840 C841 1.390 . S
C841 C840 1.390 . S
C841 C842 1.394 . S
C841 C847 1.465 . S
C842 C837 1.399 . S
C842 C841 1.394 . S
C842 C843 1.516 . S
C843 C842 1.516 . S
C843 C844 1.502 . S
C843 C845 1.561 . S
C843 C846 1.526 . S
C844 H828 0.959 . S
C844 H829 0.959 . S
C844 H830 0.961 . S
C844 C843 1.502 . S
C845 H831 0.960 . S
C845 H832 0.961 . S
C845 H833 0.959 . S
C845 C843 1.561 . S
C846 C843 1.526 . S
C846 C847 1.396 . S
C846 C851 1.390 . S
C847 C841 1.465 . S
C847 C846 1.396 . S
C847 C848 1.399 . S
C848 H834 0.929 . S
C848 C847 1.399 . S
C848 C849 1.385 . S
C849 H835 0.931 . S
C849 C848 1.385 . S
C849 C850 1.389 . S
C850 C849 1.389 . S
C850 C851 1.387 . S
C851 H836 0.930 . S
C851 C846 1.390 . S
C851 C850 1.387 . S
H852 C864 0.930 . S
H853 C866 0.930 . S
H854 C867 0.930 . S
H855 C871 0.959 . S
H856 C871 0.959 . S
H857 C871 0.961 . S
H858 C872 0.960 . S
H859 C872 0.961 . S
H860 C872 0.959 . S
H861 C875 0.929 . S
H862 C876 0.931 . S
H863 C878 0.930 . S
C864 H852 0.930 . S
C864 C865 1.399 . S
C864 C869 1.399 . S
C865 C864 1.399 . S
C865 C866 1.376 . S
C866 H853 0.930 . S
C866 C865 1.376 . S
C866 C867 1.388 . S
C867 H854 0.930 . S
C867 C866 1.388 . S
C867 C868 1.390 . S
C868 C867 1.390 . S
C868 C869 1.394 . S
C868 C874 1.465 . S
C869 C864 1.399 . S
C869 C868 1.394 . S
C869 C870 1.516 . S
C870 C869 1.516 . S
C870 C871 1.502 . S
C870 C872 1.561 . S
C870 C873 1.526 . S
C871 H855 0.959 . S
C871 H856 0.959 . S
C871 H857 0.961 . S
C871 C870 1.502 . S
C872 H858 0.960 . S
C872 H859 0.961 . S
C872 H860 0.959 . S
C872 C870 1.561 . S
C873 C870 1.526 . S
C873 C874 1.396 . S
C873 C878 1.390 . S
C874 C868 1.465 . S
C874 C873 1.396 . S
C874 C875 1.399 . S
C875 H861 0.929 . S
C875 C874 1.399 . S
C875 C876 1.385 . S
C876 H862 0.931 . S
C876 C875 1.385 . S
C876 C877 1.389 . S
C877 C876 1.389 . S
C877 C878 1.387 . S
C878 H863 0.930 . S
C878 C873 1.390 . S
C878 C877 1.387 . S
H879 C891 0.930 . S
H880 C893 0.930 . S
H881 C894 0.930 . S
H882 C898 0.962 . S
H883 C898 0.978 . S
H884 C898 0.941 1_455 S
H885 C899 0.959 1_455 S
H886 C899 0.962 . S
H887 C899 0.959 . S
H888 C902 0.929 . S
H889 C903 0.931 . S
H890 C905 0.930 . S
C891 H879 0.930 . S
C891 C892 1.399 . S
C891 C896 1.399 . S
C892 C891 1.399 . S
C892 C893 1.376 . S
C893 H880 0.930 . S
C893 C892 1.376 . S
C893 C894 1.388 . S
C894 H881 0.930 . S
C894 C893 1.388 . S
C894 C895 1.390 . S
C895 C894 1.390 . S
C895 C896 1.394 . S
C895 C901 1.465 1_455 S
C896 C891 1.399 . S
C896 C895 1.394 . S
C896 C897 1.518 1_455 S
C897 C896 1.518 1_655 S
C897 C898 1.502 . S
C897 C899 1.561 . S
C897 C900 1.524 . S
C898 H882 0.962 . S
C898 H883 0.978 . S
C898 H884 0.941 1_655 S
C898 C897 1.502 . S
C899 H885 0.959 1_655 S
C899 H886 0.962 . S
C899 H887 0.959 . S
C899 C897 1.561 . S
C900 C897 1.524 . S
C900 C901 1.396 . S
C900 C905 1.390 . S
C901 C895 1.465 1_655 S
C901 C900 1.396 . S
C901 C902 1.399 . S
C902 H888 0.929 . S
C902 C901 1.399 . S
C902 C903 1.385 . S
C903 H889 0.931 . S
C903 C902 1.385 . S
C903 C904 1.389 . S
C904 C903 1.389 . S
C904 C905 1.387 . S
C905 H890 0.930 . S
C905 C900 1.390 . S
C905 C904 1.387 . S
H906 C918 0.930 . S
H907 C920 0.930 . S
H908 C921 0.930 . S
H909 C925 0.959 . S
H910 C925 0.959 . S
H911 C925 0.961 . S
H912 C926 0.960 . S
H913 C926 0.961 . S
H914 C926 0.959 . S
H915 C929 0.929 . S
H916 C930 0.931 . S
H917 C932 0.930 . S
C918 H906 0.930 . S
C918 C919 1.399 . S
C918 C923 1.399 . S
C919 C918 1.399 . S
C919 C920 1.376 . S
C920 H907 0.930 . S
C920 C919 1.376 . S
C920 C921 1.388 . S
C921 H908 0.930 . S
C921 C920 1.388 . S
C921 C922 1.390 . S
C922 C921 1.390 . S
C922 C923 1.394 . S
C922 C928 1.465 . S
C923 C918 1.399 . S
C923 C922 1.394 . S
C923 C924 1.516 . S
C924 C923 1.516 . S
C924 C925 1.502 . S
C924 C926 1.561 . S
C924 C927 1.526 . S
C925 H909 0.959 . S
C925 H910 0.959 . S
C925 H911 0.961 . S
C925 C924 1.502 . S
C926 H912 0.960 . S
C926 H913 0.961 . S
C926 H914 0.959 . S
C926 C924 1.561 . S
C927 C924 1.526 . S
C927 C928 1.396 . S
C927 C932 1.390 . S
C928 C922 1.465 . S
C928 C927 1.396 . S
C928 C929 1.399 . S
C929 H915 0.929 . S
C929 C928 1.399 . S
C929 C930 1.385 . S
C930 H916 0.931 . S
C930 C929 1.385 . S
C930 C931 1.389 . S
C931 C930 1.389 . S
C931 C932 1.387 . S
C932 H917 0.930 . S
C932 C927 1.390 . S
C932 C931 1.387 . S
H933 C945 0.930 . S
H934 C947 0.930 . S
H935 C948 0.930 . S
H936 C952 0.962 . S
H937 C952 0.978 . S
H938 C952 0.941 1_655 S
H939 C953 0.959 1_655 S
H940 C953 0.962 . S
H941 C953 0.959 . S
H942 C956 0.929 . S
H943 C957 0.931 . S
H944 C959 0.930 . S
C945 H933 0.930 . S
C945 C946 1.399 . S
C945 C950 1.399 . S
C946 C945 1.399 . S
C946 C947 1.376 . S
C947 H934 0.930 . S
C947 C946 1.376 . S
C947 C948 1.388 . S
C948 H935 0.930 . S
C948 C947 1.388 . S
C948 C949 1.390 . S
C949 C948 1.390 . S
C949 C950 1.394 . S
C949 C955 1.465 1_655 S
C950 C945 1.399 . S
C950 C949 1.394 . S
C950 C951 1.518 1_655 S
C951 C950 1.518 1_455 S
C951 C952 1.502 . S
C951 C953 1.561 . S
C951 C954 1.524 . S
C952 H936 0.962 . S
C952 H937 0.978 . S
C952 H938 0.941 1_455 S
C952 C951 1.502 . S
C953 H939 0.959 1_455 S
C953 H940 0.962 . S
C953 H941 0.959 . S
C953 C951 1.561 . S
C954 C951 1.524 . S
C954 C955 1.396 . S
C954 C959 1.390 . S
C955 C949 1.465 1_455 S
C955 C954 1.396 . S
C955 C956 1.399 . S
C956 H942 0.929 . S
C956 C955 1.399 . S
C956 C957 1.385 . S
C957 H943 0.931 . S
C957 C956 1.385 . S
C957 C958 1.389 . S
C958 C957 1.389 . S
C958 C959 1.387 . S
C959 H944 0.930 . S
C959 C954 1.390 . S
C959 C958 1.387 . S
H960 C972 0.930 . S
H961 C974 0.930 . S
H962 C975 0.930 . S
H963 C979 0.959 . S
H964 C979 0.959 . S
H965 C979 0.961 . S
H966 C980 0.960 . S
H967 C980 0.961 . S
H968 C980 0.959 . S
H969 C983 0.929 . S
H970 C984 0.931 . S
H971 C986 0.930 1_554 S
C972 H960 0.930 . S
C972 C973 1.399 . S
C972 C977 1.399 . S
C973 C972 1.399 . S
C973 C974 1.376 . S
C974 H961 0.930 . S
C974 C973 1.376 . S
C974 C975 1.388 1_554 S
C975 H962 0.930 . S
C975 C974 1.388 1_556 S
C975 C976 1.390 . S
C976 C975 1.390 . S
C976 C977 1.394 1_556 S
C976 C982 1.465 1_545 S
C977 C972 1.399 . S
C977 C976 1.394 1_554 S
C977 C978 1.516 1_545 S
C978 C977 1.516 1_565 S
C978 C979 1.502 . S
C978 C980 1.561 . S
C978 C981 1.525 1_554 S
C979 H963 0.959 . S
C979 H964 0.959 . S
C979 H965 0.961 . S
C979 C978 1.502 . S
C980 H966 0.960 . S
C980 H967 0.961 . S
C980 H968 0.959 . S
C980 C978 1.561 . S
C981 C978 1.525 1_556 S
C981 C982 1.397 . S
C981 C986 1.390 . S
C982 C976 1.465 1_565 S
C982 C981 1.397 . S
C982 C983 1.399 . S
C983 H969 0.929 . S
C983 C982 1.399 . S
C983 C984 1.385 . S
C984 H970 0.931 . S
C984 C983 1.385 . S
C984 C985 1.389 . S
C985 C984 1.389 . S
C985 C986 1.387 . S
C986 H971 0.930 1_556 S
C986 C981 1.390 . S
C986 C985 1.387 . S
H987 C999 0.930 . S
H988 C1001 0.930 . S
H989 C1002 0.930 . S
H990 C1006 0.959 . S
H991 C1006 0.959 . S
H992 C1006 0.961 1_565 S
H993 C1007 0.960 . S
H994 C1007 0.961 . S
H995 C1007 0.959 . S
H996 C1010 0.929 . S
H997 C1011 0.931 . S
H998 C1013 0.930 . S
C999 H987 0.930 . S
C999 C1000 1.399 . S
C999 C1004 1.399 . S
C1000 C999 1.399 . S
C1000 C1001 1.376 . S
C1001 H988 0.930 . S
C1001 C1000 1.376 . S
C1001 C1002 1.388 . S
C1002 H989 0.930 . S
C1002 C1001 1.388 . S
C1002 C1003 1.390 . S
C1003 C1002 1.390 . S
C1003 C1004 1.394 . S
C1003 C1009 1.465 1_565 S
C1004 C999 1.399 . S
C1004 C1003 1.394 . S
C1004 C1005 1.516 1_565 S
C1005 C1004 1.516 1_545 S
C1005 C1006 1.502 . S
C1005 C1007 1.561 . S
C1005 C1008 1.526 . S
C1006 H990 0.959 . S
C1006 H991 0.959 . S
C1006 H992 0.961 1_545 S
C1006 C1005 1.502 . S
C1007 H993 0.960 . S
C1007 H994 0.961 . S
C1007 H995 0.959 . S
C1007 C1005 1.561 . S
C1008 C1005 1.526 . S
C1008 C1009 1.396 . S
C1008 C1013 1.390 . S
C1009 C1003 1.465 1_545 S
C1009 C1008 1.396 . S
C1009 C1010 1.399 . S
C1010 H996 0.929 . S
C1010 C1009 1.399 . S
C1010 C1011 1.385 . S
C1011 H997 0.931 . S
C1011 C1010 1.385 . S
C1011 C1012 1.389 . S
C1012 C1011 1.389 . S
C1012 C1013 1.387 . S
C1013 H998 0.930 . S
C1013 C1008 1.390 . S
C1013 C1012 1.387 . S
H1014 C1026 0.930 . S
H1015 C1028 0.930 . S
H1016 C1029 0.930 . S
H1017 C1033 0.945 1_546 S
H1018 C1033 0.945 1_545 S
H1019 C1033 0.984 1_556 S
H1020 C1034 0.960 . S
H1021 C1034 0.961 . S
H1022 C1034 0.959 . S
H1023 C1037 0.929 1_556 S
H1024 C1038 0.931 . S
H1025 C1040 0.930 . S
C1026 H1014 0.930 . S
C1026 C1027 1.399 . S
C1026 C1031 1.399 . S
C1027 C1026 1.399 . S
C1027 C1028 1.376 . S
C1028 H1015 0.930 . S
C1028 C1027 1.376 . S
C1028 C1029 1.388 . S
C1029 H1016 0.930 . S
C1029 C1028 1.388 . S
C1029 C1030 1.390 . S
C1030 C1029 1.390 . S
C1030 C1031 1.394 . S
C1030 C1036 1.465 1_566 S
C1031 C1026 1.399 . S
C1031 C1030 1.394 . S
C1031 C1032 1.516 1_556 S
C1032 C1031 1.516 1_554 S
C1032 C1033 1.508 . S
C1032 C1034 1.561 . S
C1032 C1035 1.526 1_565 S
C1033 H1017 0.945 1_564 S
C1033 H1018 0.945 1_565 S
C1033 H1019 0.984 1_554 S
C1033 C1032 1.508 . S
C1034 H1020 0.960 . S
C1034 H1021 0.961 . S
C1034 H1022 0.959 . S
C1034 C1032 1.561 . S
C1035 C1032 1.526 1_545 S
C1035 C1036 1.396 . S
C1035 C1040 1.390 . S
C1036 C1030 1.465 1_544 S
C1036 C1035 1.396 . S
C1036 C1037 1.399 . S
C1037 H1023 0.929 1_554 S
C1037 C1036 1.399 . S
C1037 C1038 1.385 . S
C1038 H1024 0.931 . S
C1038 C1037 1.385 . S
C1038 C1039 1.389 . S
C1039 C1038 1.389 . S
C1039 C1040 1.387 . S
C1040 H1025 0.930 . S
C1040 C1035 1.390 . S
C1040 C1039 1.387 . S
H1041 C1053 0.930 . S
H1042 C1055 0.930 . S
H1043 C1056 0.929 1_565 S
H1044 C1060 0.959 . S
H1045 C1060 0.959 . S
H1046 C1060 0.961 . S
H1047 C1061 0.960 . S
H1048 C1061 0.961 . S
H1049 C1061 0.959 . S
H1050 C1064 0.929 . S
H1051 C1065 0.931 . S
H1052 C1067 0.930 . S
C1053 H1041 0.930 . S
C1053 C1054 1.399 . S
C1053 C1058 1.399 . S
C1054 C1053 1.399 . S
C1054 C1055 1.376 . S
C1055 H1042 0.930 . S
C1055 C1054 1.376 . S
C1055 C1056 1.388 . S
C1056 H1043 0.929 1_545 S
C1056 C1055 1.388 . S
C1056 C1057 1.390 . S
C1057 C1056 1.390 . S
C1057 C1058 1.394 . S
C1057 C1063 1.465 1_545 S
C1058 C1053 1.399 . S
C1058 C1057 1.394 . S
C1058 C1059 1.516 . S
C1059 C1058 1.516 . S
C1059 C1060 1.502 . S
C1059 C1061 1.561 . S
C1059 C1062 1.526 1_545 S
C1060 H1044 0.959 . S
C1060 H1045 0.959 . S
C1060 H1046 0.961 . S
C1060 C1059 1.502 . S
C1061 H1047 0.960 . S
C1061 H1048 0.961 . S
C1061 H1049 0.959 . S
C1061 C1059 1.561 . S
C1062 C1059 1.526 1_565 S
C1062 C1063 1.396 . S
C1062 C1067 1.390 . S
C1063 C1057 1.465 1_565 S
C1063 C1062 1.396 . S
C1063 C1064 1.399 . S
C1064 H1050 0.929 . S
C1064 C1063 1.399 . S
C1064 C1065 1.385 . S
C1065 H1051 0.931 . S
C1065 C1064 1.385 . S
C1065 C1066 1.389 . S
C1066 C1065 1.389 . S
C1066 C1067 1.387 . S
C1067 H1052 0.930 . S
C1067 C1062 1.390 . S
C1067 C1066 1.387 . S
H1068 C1080 0.930 1_556 S
H1069 C1082 0.930 . S
H1070 C1083 0.930 . S
H1071 C1087 0.959 . S
H1072 C1087 0.959 . S
H1073 C1087 0.961 . S
H1074 C1088 0.960 . S
H1075 C1088 0.961 . S
H1076 C1088 0.959 . S
H1077 C1091 0.929 . S
H1078 C1092 0.931 1_554 S
H1079 C1094 0.930 . S
C1080 H1068 0.930 1_554 S
C1080 C1081 1.399 . S
C1080 C1085 1.399 1_554 S
C1081 C1080 1.399 . S
C1081 C1082 1.376 . S
C1082 H1069 0.930 . S
C1082 C1081 1.376 . S
C1082 C1083 1.388 . S
C1083 H1070 0.930 . S
C1083 C1082 1.388 . S
C1083 C1084 1.390 . S
C1084 C1083 1.390 . S
C1084 C1085 1.394 1_554 S
C1084 C1090 1.465 . S
C1085 C1080 1.399 1_556 S
C1085 C1084 1.394 1_556 S
C1085 C1086 1.516 . S
C1086 C1085 1.516 . S
C1086 C1087 1.502 . S
C1086 C1088 1.561 . S
C1086 C1089 1.526 . S
C1087 H1071 0.959 . S
C1087 H1072 0.959 . S
C1087 H1073 0.961 . S
C1087 C1086 1.502 . S
C1088 H1074 0.960 . S
C1088 H1075 0.961 . S
C1088 H1076 0.959 . S
C1088 C1086 1.561 . S
C1089 C1086 1.526 . S
C1089 C1090 1.396 1_556 S
C1089 C1094 1.390 . S
C1090 C1084 1.465 . S
C1090 C1089 1.396 1_554 S
C1090 C1091 1.399 . S
C1091 H1077 0.929 . S
C1091 C1090 1.399 . S
C1091 C1092 1.385 1_554 S
C1092 H1078 0.931 1_556 S
C1092 C1091 1.385 1_556 S
C1092 C1093 1.389 . S
C1093 C1092 1.389 . S
C1093 C1094 1.387 . S
C1094 H1079 0.930 . S
C1094 C1089 1.390 . S
C1094 C1093 1.387 . S
H1095 C1107 0.930 . S
H1096 C1109 0.930 . S
H1097 C1110 0.930 . S
H1098 C1114 0.959 . S
H1099 C1114 0.959 . S
H1100 C1114 0.961 . S
H1101 C1115 0.960 . S
H1102 C1115 0.961 . S
H1103 C1115 0.959 . S
H1104 C1118 0.929 . S
H1105 C1119 0.931 . S
H1106 C1121 0.930 . S
C1107 H1095 0.930 . S
C1107 C1108 1.399 . S
C1107 C1112 1.399 . S
C1108 C1107 1.399 . S
C1108 C1109 1.376 . S
C1109 H1096 0.930 . S
C1109 C1108 1.376 . S
C1109 C1110 1.388 . S
C1110 H1097 0.930 . S
C1110 C1109 1.388 . S
C1110 C1111 1.390 . S
C1111 C1110 1.390 . S
C1111 C1112 1.394 . S
C1111 C1117 1.465 . S
C1112 C1107 1.399 . S
C1112 C1111 1.394 . S
C1112 C1113 1.516 . S
C1113 C1112 1.516 . S
C1113 C1114 1.502 . S
C1113 C1115 1.561 . S
C1113 C1116 1.526 . S
C1114 H1098 0.959 . S
C1114 H1099 0.959 . S
C1114 H1100 0.961 . S
C1114 C1113 1.502 . S
C1115 H1101 0.960 . S
C1115 H1102 0.961 . S
C1115 H1103 0.959 . S
C1115 C1113 1.561 . S
C1116 C1113 1.526 . S
C1116 C1117 1.396 . S
C1116 C1121 1.390 . S
C1117 C1111 1.465 . S
C1117 C1116 1.396 . S
C1117 C1118 1.399 . S
C1118 H1104 0.929 . S
C1118 C1117 1.399 . S
C1118 C1119 1.385 . S
C1119 H1105 0.931 . S
C1119 C1118 1.385 . S
C1119 C1120 1.389 . S
C1120 C1119 1.389 . S
C1120 C1121 1.387 . S
C1121 H1106 0.930 . S
C1121 C1116 1.390 . S
C1121 C1120 1.387 . S
H1122 C1134 0.930 . S
H1123 C1136 0.930 . S
H1124 C1137 0.930 1_554 S
H1125 C1141 0.959 . S
H1126 C1141 0.959 . S
H1127 C1141 0.961 . S
H1128 C1142 0.960 . S
H1129 C1142 0.961 . S
H1130 C1142 0.959 . S
H1131 C1145 0.929 . S
H1132 C1146 0.931 . S
H1133 C1148 0.930 . S
C1134 H1122 0.930 . S
C1134 C1135 1.399 . S
C1134 C1139 1.399 . S
C1135 C1134 1.399 . S
C1135 C1136 1.376 . S
C1136 H1123 0.930 . S
C1136 C1135 1.376 . S
C1136 C1137 1.388 . S
C1137 H1124 0.930 1_556 S
C1137 C1136 1.388 . S
C1137 C1138 1.390 . S
C1138 C1137 1.390 . S
C1138 C1139 1.397 . S
C1138 C1144 1.462 1_556 S
C1139 C1134 1.399 . S
C1139 C1138 1.397 . S
C1139 C1140 1.516 . S
C1140 C1139 1.516 . S
C1140 C1141 1.502 . S
C1140 C1142 1.561 1_556 S
C1140 C1143 1.526 1_556 S
C1141 H1125 0.959 . S
C1141 H1126 0.959 . S
C1141 H1127 0.961 . S
C1141 C1140 1.502 . S
C1142 H1128 0.960 . S
C1142 H1129 0.961 . S
C1142 H1130 0.959 . S
C1142 C1140 1.561 1_554 S
C1143 C1140 1.526 1_554 S
C1143 C1144 1.396 . S
C1143 C1148 1.390 . S
C1144 C1138 1.462 1_554 S
C1144 C1143 1.396 . S
C1144 C1145 1.399 . S
C1145 H1131 0.929 . S
C1145 C1144 1.399 . S
C1145 C1146 1.385 . S
C1146 H1132 0.931 . S
C1146 C1145 1.385 . S
C1146 C1147 1.389 . S
C1147 C1146 1.389 . S
C1147 C1148 1.387 . S
C1148 H1133 0.930 . S
C1148 C1143 1.390 . S
C1148 C1147 1.387 . S
H1149 C1161 0.930 . S
H1150 C1163 0.930 . S
H1151 C1164 0.930 . S
H1152 C1168 0.959 . S
H1153 C1168 0.959 . S
H1154 C1168 0.961 . S
H1155 C1169 0.960 . S
H1156 C1169 0.961 . S
H1157 C1169 0.959 . S
H1158 C1172 0.929 . S
H1159 C1173 0.931 . S
H1160 C1175 0.930 . S
C1161 H1149 0.930 . S
C1161 C1162 1.399 . S
C1161 C1166 1.399 . S
C1162 C1161 1.399 . S
C1162 C1163 1.376 . S
C1163 H1150 0.930 . S
C1163 C1162 1.376 . S
C1163 C1164 1.388 . S
C1164 H1151 0.930 . S
C1164 C1163 1.388 . S
C1164 C1165 1.390 . S
C1165 C1164 1.390 . S
C1165 C1166 1.394 . S
C1165 C1171 1.465 . S
C1166 C1161 1.399 . S
C1166 C1165 1.394 . S
C1166 C1167 1.516 . S
C1167 C1166 1.516 . S
C1167 C1168 1.502 . S
C1167 C1169 1.561 . S
C1167 C1170 1.526 . S
C1168 H1152 0.959 . S
C1168 H1153 0.959 . S
C1168 H1154 0.961 . S
C1168 C1167 1.502 . S
C1169 H1155 0.960 . S
C1169 H1156 0.961 . S
C1169 H1157 0.959 . S
C1169 C1167 1.561 . S
C1170 C1167 1.526 . S
C1170 C1171 1.396 . S
C1170 C1175 1.390 . S
C1171 C1165 1.465 . S
C1171 C1170 1.396 . S
C1171 C1172 1.399 . S
C1172 H1158 0.929 . S
C1172 C1171 1.399 . S
C1172 C1173 1.385 . S
C1173 H1159 0.931 . S
C1173 C1172 1.385 . S
C1173 C1174 1.389 . S
C1174 C1173 1.389 . S
C1174 C1175 1.387 . S
C1175 H1160 0.930 . S
C1175 C1170 1.390 . S
C1175 C1174 1.387 . S
H1176 C1188 0.930 . S
H1177 C1190 0.930 . S
H1178 C1191 0.930 . S
H1179 C1195 0.959 . S
H1180 C1195 0.959 . S
H1181 C1195 0.961 . S
H1182 C1196 0.960 . S
H1183 C1196 0.961 . S
H1184 C1196 0.959 . S
H1185 C1199 0.929 . S
H1186 C1200 0.931 . S
H1187 C1202 0.930 . S
C1188 H1176 0.930 . S
C1188 C1189 1.399 . S
C1188 C1193 1.399 . S
C1189 C1188 1.399 . S
C1189 C1190 1.376 . S
C1190 H1177 0.930 . S
C1190 C1189 1.376 . S
C1190 C1191 1.388 . S
C1191 H1178 0.930 . S
C1191 C1190 1.388 . S
C1191 C1192 1.390 . S
C1192 C1191 1.390 . S
C1192 C1193 1.394 . S
C1192 C1198 1.465 . S
C1193 C1188 1.399 . S
C1193 C1192 1.394 . S
C1193 C1194 1.516 . S
C1194 C1193 1.516 . S
C1194 C1195 1.502 . S
C1194 C1196 1.561 . S
C1194 C1197 1.526 . S
C1195 H1179 0.959 . S
C1195 H1180 0.959 . S
C1195 H1181 0.961 . S
C1195 C1194 1.502 . S
C1196 H1182 0.960 . S
C1196 H1183 0.961 . S
C1196 H1184 0.959 . S
C1196 C1194 1.561 . S
C1197 C1194 1.526 . S
C1197 C1198 1.396 . S
C1197 C1202 1.390 . S
C1198 C1192 1.465 . S
C1198 C1197 1.396 . S
C1198 C1199 1.399 . S
C1199 H1185 0.929 . S
C1199 C1198 1.399 . S
C1199 C1200 1.385 . S
C1200 H1186 0.931 . S
C1200 C1199 1.385 . S
C1200 C1201 1.389 . S
C1201 C1200 1.389 . S
C1201 C1202 1.387 . S
C1202 H1187 0.930 . S
C1202 C1197 1.390 . S
C1202 C1201 1.387 . S
H1203 C1215 0.930 . S
H1204 C1217 0.930 . S
H1205 C1218 0.930 . S
H1206 C1222 0.959 . S
H1207 C1222 0.959 . S
H1208 C1222 0.961 . S
H1209 C1223 0.960 . S
H1210 C1223 0.961 . S
H1211 C1223 0.959 . S
H1212 C1226 0.929 . S
H1213 C1227 0.931 . S
H1214 C1229 0.930 . S
C1215 H1203 0.930 . S
C1215 C1216 1.399 . S
C1215 C1220 1.399 . S
C1216 C1215 1.399 . S
C1216 C1217 1.376 . S
C1217 H1204 0.930 . S
C1217 C1216 1.376 . S
C1217 C1218 1.388 . S
C1218 H1205 0.930 . S
C1218 C1217 1.388 . S
C1218 C1219 1.390 . S
C1219 C1218 1.390 . S
C1219 C1220 1.394 . S
C1219 C1225 1.465 . S
C1220 C1215 1.399 . S
C1220 C1219 1.394 . S
C1220 C1221 1.516 . S
C1221 C1220 1.516 . S
C1221 C1222 1.502 . S
C1221 C1223 1.561 . S
C1221 C1224 1.526 . S
C1222 H1206 0.959 . S
C1222 H1207 0.959 . S
C1222 H1208 0.961 . S
C1222 C1221 1.502 . S
C1223 H1209 0.960 . S
C1223 H1210 0.961 . S
C1223 H1211 0.959 . S
C1223 C1221 1.561 . S
C1224 C1221 1.526 . S
C1224 C1225 1.396 . S
C1224 C1229 1.390 . S
C1225 C1219 1.465 . S
C1225 C1224 1.396 . S
C1225 C1226 1.399 . S
C1226 H1212 0.929 . S
C1226 C1225 1.399 . S
C1226 C1227 1.385 . S
C1227 H1213 0.931 . S
C1227 C1226 1.385 . S
C1227 C1228 1.389 . S
C1228 C1227 1.389 . S
C1228 C1229 1.387 . S
C1229 H1214 0.930 . S
C1229 C1224 1.390 . S
C1229 C1228 1.387 . S
H1230 C1242 0.930 . S
H1231 C1244 0.930 . S
H1232 C1245 0.930 . S
H1233 C1249 0.959 . S
H1234 C1249 0.959 . S
H1235 C1249 0.961 . S
H1236 C1250 0.960 . S
H1237 C1250 0.961 . S
H1238 C1250 0.959 . S
H1239 C1253 0.929 . S
H1240 C1254 0.931 . S
H1241 C1256 0.930 . S
C1242 H1230 0.930 . S
C1242 C1243 1.399 . S
C1242 C1247 1.399 . S
C1243 C1242 1.399 . S
C1243 C1244 1.376 . S
C1244 H1231 0.930 . S
C1244 C1243 1.376 . S
C1244 C1245 1.388 . S
C1245 H1232 0.930 . S
C1245 C1244 1.388 . S
C1245 C1246 1.390 . S
C1246 C1245 1.390 . S
C1246 C1247 1.394 . S
C1246 C1252 1.465 . S
C1247 C1242 1.399 . S
C1247 C1246 1.394 . S
C1247 C1248 1.516 . S
C1248 C1247 1.516 . S
C1248 C1249 1.502 . S
C1248 C1250 1.561 . S
C1248 C1251 1.526 . S
C1249 H1233 0.959 . S
C1249 H1234 0.959 . S
C1249 H1235 0.961 . S
C1249 C1248 1.502 . S
C1250 H1236 0.960 . S
C1250 H1237 0.961 . S
C1250 H1238 0.959 . S
C1250 C1248 1.561 . S
C1251 C1248 1.526 . S
C1251 C1252 1.396 . S
C1251 C1256 1.390 . S
C1252 C1246 1.465 . S
C1252 C1251 1.396 . S
C1252 C1253 1.399 . S
C1253 H1239 0.929 . S
C1253 C1252 1.399 . S
C1253 C1254 1.385 . S
C1254 H1240 0.931 . S
C1254 C1253 1.385 . S
C1254 C1255 1.389 . S
C1255 C1254 1.389 . S
C1255 C1256 1.387 . S
C1256 H1241 0.930 . S
C1256 C1251 1.390 . S
C1256 C1255 1.387 . S
H1257 C1269 0.930 . S
H1258 C1271 0.930 . S
H1259 C1272 0.930 . S
H1260 C1276 0.959 . S
H1261 C1276 0.959 . S
H1262 C1276 0.961 . S
H1263 C1277 0.960 . S
H1264 C1277 0.961 . S
H1265 C1277 0.959 . S
H1266 C1280 0.929 . S
H1267 C1281 0.931 . S
H1268 C1283 0.930 . S
C1269 H1257 0.930 . S
C1269 C1270 1.399 . S
C1269 C1274 1.399 . S
C1270 C1269 1.399 . S
C1270 C1271 1.376 . S
C1271 H1258 0.930 . S
C1271 C1270 1.376 . S
C1271 C1272 1.388 . S
C1272 H1259 0.930 . S
C1272 C1271 1.388 . S
C1272 C1273 1.390 . S
C1273 C1272 1.390 . S
C1273 C1274 1.394 . S
C1273 C1279 1.465 . S
C1274 C1269 1.399 . S
C1274 C1273 1.394 . S
C1274 C1275 1.516 . S
C1275 C1274 1.516 . S
C1275 C1276 1.502 . S
C1275 C1277 1.561 . S
C1275 C1278 1.526 . S
C1276 H1260 0.959 . S
C1276 H1261 0.959 . S
C1276 H1262 0.961 . S
C1276 C1275 1.502 . S
C1277 H1263 0.960 . S
C1277 H1264 0.961 . S
C1277 H1265 0.959 . S
C1277 C1275 1.561 . S
C1278 C1275 1.526 . S
C1278 C1279 1.396 . S
C1278 C1283 1.390 . S
C1279 C1273 1.465 . S
C1279 C1278 1.396 . S
C1279 C1280 1.399 . S
C1280 H1266 0.929 . S
C1280 C1279 1.399 . S
C1280 C1281 1.385 . S
C1281 H1267 0.931 . S
C1281 C1280 1.385 . S
C1281 C1282 1.389 . S
C1282 C1281 1.389 . S
C1282 C1283 1.387 . S
C1283 H1268 0.930 . S
C1283 C1278 1.390 . S
C1283 C1282 1.387 . S
H1284 C1296 0.930 . S
H1285 C1298 0.930 . S
H1286 C1299 0.930 . S
H1287 C1303 0.959 . S
H1288 C1303 0.959 . S
H1289 C1303 0.961 . S
H1290 C1304 0.960 . S
H1291 C1304 0.961 . S
H1292 C1304 0.959 . S
H1293 C1307 0.929 . S
H1294 C1308 0.931 . S
H1295 C1310 0.930 . S
C1296 H1284 0.930 . S
C1296 C1297 1.399 . S
C1296 C1301 1.399 . S
C1297 C1296 1.399 . S
C1297 C1298 1.376 . S
C1298 H1285 0.930 . S
C1298 C1297 1.376 . S
C1298 C1299 1.388 . S
C1299 H1286 0.930 . S
C1299 C1298 1.388 . S
C1299 C1300 1.390 . S
C1300 C1299 1.390 . S
C1300 C1301 1.394 . S
C1300 C1306 1.465 . S
C1301 C1296 1.399 . S
C1301 C1300 1.394 . S
C1301 C1302 1.516 . S
C1302 C1301 1.516 . S
C1302 C1303 1.502 . S
C1302 C1304 1.561 . S
C1302 C1305 1.526 . S
C1303 H1287 0.959 . S
C1303 H1288 0.959 . S
C1303 H1289 0.961 . S
C1303 C1302 1.502 . S
C1304 H1290 0.960 . S
C1304 H1291 0.961 . S
C1304 H1292 0.959 . S
C1304 C1302 1.561 . S
C1305 C1302 1.526 . S
C1305 C1306 1.396 . S
C1305 C1310 1.390 . S
C1306 C1300 1.465 . S
C1306 C1305 1.396 . S
C1306 C1307 1.399 . S
C1307 H1293 0.929 . S
C1307 C1306 1.399 . S
C1307 C1308 1.385 . S
C1308 H1294 0.931 . S
C1308 C1307 1.385 . S
C1308 C1309 1.389 . S
C1309 C1308 1.389 . S
C1309 C1310 1.387 . S
C1310 H1295 0.930 . S
C1310 C1305 1.390 . S
C1310 C1309 1.387 . S
H1311 C1323 0.930 . S
H1312 C1325 0.930 . S
H1313 C1326 0.930 . S
H1314 C1330 0.959 . S
H1315 C1330 0.959 . S
H1316 C1330 0.961 . S
H1317 C1331 0.960 . S
H1318 C1331 0.961 . S
H1319 C1331 0.959 . S
H1320 C1334 0.929 . S
H1321 C1335 0.931 . S
H1322 C1337 0.930 . S
C1323 H1311 0.930 . S
C1323 C1324 1.399 . S
C1323 C1328 1.399 . S
C1324 C1323 1.399 . S
C1324 C1325 1.376 . S
C1325 H1312 0.930 . S
C1325 C1324 1.376 . S
C1325 C1326 1.388 . S
C1326 H1313 0.930 . S
C1326 C1325 1.388 . S
C1326 C1327 1.390 . S
C1327 C1326 1.390 . S
C1327 C1328 1.394 . S
C1327 C1333 1.465 . S
C1328 C1323 1.399 . S
C1328 C1327 1.394 . S
C1328 C1329 1.516 . S
C1329 C1328 1.516 . S
C1329 C1330 1.502 . S
C1329 C1331 1.561 . S
C1329 C1332 1.526 . S
C1330 H1314 0.959 . S
C1330 H1315 0.959 . S
C1330 H1316 0.961 . S
C1330 C1329 1.502 . S
C1331 H1317 0.960 . S
C1331 H1318 0.961 . S
C1331 H1319 0.959 . S
C1331 C1329 1.561 . S
C1332 C1329 1.526 . S
C1332 C1333 1.396 . S
C1332 C1337 1.390 . S
C1333 C1327 1.465 . S
C1333 C1332 1.396 . S
C1333 C1334 1.399 . S
C1334 H1320 0.929 . S
C1334 C1333 1.399 . S
C1334 C1335 1.385 . S
C1335 H1321 0.931 . S
C1335 C1334 1.385 . S
C1335 C1336 1.389 . S
C1336 C1335 1.389 . S
C1336 C1337 1.387 . S
C1337 H1322 0.930 . S
C1337 C1332 1.390 . S
C1337 C1336 1.387 . S
H1338 C1350 0.930 . S
H1339 C1352 0.930 . S
H1340 C1353 0.930 . S
H1341 C1357 0.959 . S
H1342 C1357 0.959 . S
H1343 C1357 0.961 . S
H1344 C1358 0.960 . S
H1345 C1358 0.961 . S
H1346 C1358 0.959 . S
H1347 C1361 0.929 . S
H1348 C1362 0.931 . S
H1349 C1364 0.930 . S
C1350 H1338 0.930 . S
C1350 C1351 1.399 . S
C1350 C1355 1.399 . S
C1351 C1350 1.399 . S
C1351 C1352 1.376 . S
C1352 H1339 0.930 . S
C1352 C1351 1.376 . S
C1352 C1353 1.388 . S
C1353 H1340 0.930 . S
C1353 C1352 1.388 . S
C1353 C1354 1.390 . S
C1354 C1353 1.390 . S
C1354 C1355 1.394 . S
C1354 C1360 1.465 . S
C1355 C1350 1.399 . S
C1355 C1354 1.394 . S
C1355 C1356 1.516 . S
C1356 C1355 1.516 . S
C1356 C1357 1.502 . S
C1356 C1358 1.561 . S
C1356 C1359 1.526 . S
C1357 H1341 0.959 . S
C1357 H1342 0.959 . S
C1357 H1343 0.961 . S
C1357 C1356 1.502 . S
C1358 H1344 0.960 . S
C1358 H1345 0.961 . S
C1358 H1346 0.959 . S
C1358 C1356 1.561 . S
C1359 C1356 1.526 . S
C1359 C1360 1.396 . S
C1359 C1364 1.390 . S
C1360 C1354 1.465 . S
C1360 C1359 1.396 . S
C1360 C1361 1.399 . S
C1361 H1347 0.929 . S
C1361 C1360 1.399 . S
C1361 C1362 1.385 . S
C1362 H1348 0.931 . S
C1362 C1361 1.385 . S
C1362 C1363 1.389 . S
C1363 C1362 1.389 . S
C1363 C1364 1.387 . S
C1364 H1349 0.930 . S
C1364 C1359 1.390 . S
C1364 C1363 1.387 . S
H1365 C1377 0.930 . S
H1366 C1379 0.930 . S
H1367 C1380 0.930 . S
H1368 C1384 0.959 . S
H1369 C1384 0.959 . S
H1370 C1384 0.961 . S
H1371 C1385 0.960 . S
H1372 C1385 0.961 . S
H1373 C1385 0.959 . S
H1374 C1388 0.929 . S
H1375 C1389 0.931 . S
H1376 C1391 0.930 . S
C1377 H1365 0.930 . S
C1377 C1378 1.399 . S
C1377 C1382 1.399 . S
C1378 C1377 1.399 . S
C1378 C1379 1.376 . S
C1379 H1366 0.930 . S
C1379 C1378 1.376 . S
C1379 C1380 1.388 . S
C1380 H1367 0.930 . S
C1380 C1379 1.388 . S
C1380 C1381 1.390 . S
C1381 C1380 1.390 . S
C1381 C1382 1.394 . S
C1381 C1387 1.465 . S
C1382 C1377 1.399 . S
C1382 C1381 1.394 . S
C1382 C1383 1.516 . S
C1383 C1382 1.516 . S
C1383 C1384 1.502 . S
C1383 C1385 1.561 . S
C1383 C1386 1.526 . S
C1384 H1368 0.959 . S
C1384 H1369 0.959 . S
C1384 H1370 0.961 . S
C1384 C1383 1.502 . S
C1385 H1371 0.960 . S
C1385 H1372 0.961 . S
C1385 H1373 0.959 . S
C1385 C1383 1.561 . S
C1386 C1383 1.526 . S
C1386 C1387 1.396 . S
C1386 C1391 1.390 . S
C1387 C1381 1.465 . S
C1387 C1386 1.396 . S
C1387 C1388 1.399 . S
C1388 H1374 0.929 . S
C1388 C1387 1.399 . S
C1388 C1389 1.385 . S
C1389 H1375 0.931 . S
C1389 C1388 1.385 . S
C1389 C1390 1.389 . S
C1390 C1389 1.389 . S
C1390 C1391 1.387 . S
C1391 H1376 0.930 . S
C1391 C1386 1.390 . S
C1391 C1390 1.387 . S
H1392 C1404 0.930 . S
H1393 C1406 0.930 . S
H1394 C1407 0.930 . S
H1395 C1411 0.959 . S
H1396 C1411 0.959 . S
H1397 C1411 0.961 . S
H1398 C1412 0.960 . S
H1399 C1412 0.961 . S
H1400 C1412 0.959 . S
H1401 C1415 0.929 . S
H1402 C1416 0.931 . S
H1403 C1418 0.930 . S
C1404 H1392 0.930 . S
C1404 C1405 1.399 . S
C1404 C1409 1.399 . S
C1405 C1404 1.399 . S
C1405 C1406 1.376 . S
C1406 H1393 0.930 . S
C1406 C1405 1.376 . S
C1406 C1407 1.388 . S
C1407 H1394 0.930 . S
C1407 C1406 1.388 . S
C1407 C1408 1.390 . S
C1408 C1407 1.390 . S
C1408 C1409 1.394 . S
C1408 C1414 1.465 . S
C1409 C1404 1.399 . S
C1409 C1408 1.394 . S
C1409 C1410 1.516 . S
C1410 C1409 1.516 . S
C1410 C1411 1.502 . S
C1410 C1412 1.561 . S
C1410 C1413 1.526 . S
C1411 H1395 0.959 . S
C1411 H1396 0.959 . S
C1411 H1397 0.961 . S
C1411 C1410 1.502 . S
C1412 H1398 0.960 . S
C1412 H1399 0.961 . S
C1412 H1400 0.959 . S
C1412 C1410 1.561 . S
C1413 C1410 1.526 . S
C1413 C1414 1.396 . S
C1413 C1418 1.390 . S
C1414 C1408 1.465 . S
C1414 C1413 1.396 . S
C1414 C1415 1.399 . S
C1415 H1401 0.929 . S
C1415 C1414 1.399 . S
C1415 C1416 1.385 . S
C1416 H1402 0.931 . S
C1416 C1415 1.385 . S
C1416 C1417 1.389 . S
C1417 C1416 1.389 . S
C1417 C1418 1.387 . S
C1418 H1403 0.930 . S
C1418 C1413 1.390 . S
C1418 C1417 1.387 . S
H1419 C1431 0.930 . S
H1420 C1433 0.930 . S
H1421 C1434 0.930 . S
H1422 C1438 0.959 . S
H1423 C1438 0.959 . S
H1424 C1438 0.961 . S
H1425 C1439 0.960 . S
H1426 C1439 0.961 . S
H1427 C1439 0.959 . S
H1428 C1442 0.929 . S
H1429 C1443 0.931 . S
H1430 C1445 0.930 . S
C1431 H1419 0.930 . S
C1431 C1432 1.399 . S
C1431 C1436 1.399 . S
C1432 C1431 1.399 . S
C1432 C1433 1.376 . S
C1433 H1420 0.930 . S
C1433 C1432 1.376 . S
C1433 C1434 1.388 . S
C1434 H1421 0.930 . S
C1434 C1433 1.388 . S
C1434 C1435 1.390 . S
C1435 C1434 1.390 . S
C1435 C1436 1.394 . S
C1435 C1441 1.465 . S
C1436 C1431 1.399 . S
C1436 C1435 1.394 . S
C1436 C1437 1.516 . S
C1437 C1436 1.516 . S
C1437 C1438 1.502 . S
C1437 C1439 1.561 . S
C1437 C1440 1.526 . S
C1438 H1422 0.959 . S
C1438 H1423 0.959 . S
C1438 H1424 0.961 . S
C1438 C1437 1.502 . S
C1439 H1425 0.960 . S
C1439 H1426 0.961 . S
C1439 H1427 0.959 . S
C1439 C1437 1.561 . S
C1440 C1437 1.526 . S
C1440 C1441 1.396 . S
C1440 C1445 1.390 . S
C1441 C1435 1.465 . S
C1441 C1440 1.396 . S
C1441 C1442 1.399 . S
C1442 H1428 0.929 . S
C1442 C1441 1.399 . S
C1442 C1443 1.385 . S
C1443 H1429 0.931 . S
C1443 C1442 1.385 . S
C1443 C1444 1.389 . S
C1444 C1443 1.389 . S
C1444 C1445 1.387 . S
C1445 H1430 0.930 . S
C1445 C1440 1.390 . S
C1445 C1444 1.387 . S
H1446 C1458 0.930 . S
H1447 C1460 0.930 . S
H1448 C1461 0.930 . S
H1449 C1465 0.959 . S
H1450 C1465 0.959 . S
H1451 C1465 0.961 . S
H1452 C1466 0.960 . S
H1453 C1466 0.961 . S
H1454 C1466 0.959 . S
H1455 C1469 0.929 . S
H1456 C1470 0.931 . S
H1457 C1472 0.930 . S
C1458 H1446 0.930 . S
C1458 C1459 1.399 . S
C1458 C1463 1.399 . S
C1459 C1458 1.399 . S
C1459 C1460 1.376 . S
C1460 H1447 0.930 . S
C1460 C1459 1.376 . S
C1460 C1461 1.388 . S
C1461 H1448 0.930 . S
C1461 C1460 1.388 . S
C1461 C1462 1.390 . S
C1462 C1461 1.390 . S
C1462 C1463 1.394 . S
C1462 C1468 1.465 . S
C1463 C1458 1.399 . S
C1463 C1462 1.394 . S
C1463 C1464 1.516 . S
C1464 C1463 1.516 . S
C1464 C1465 1.502 . S
C1464 C1466 1.561 . S
C1464 C1467 1.526 . S
C1465 H1449 0.959 . S
C1465 H1450 0.959 . S
C1465 H1451 0.961 . S
C1465 C1464 1.502 . S
C1466 H1452 0.960 . S
C1466 H1453 0.961 . S
C1466 H1454 0.959 . S
C1466 C1464 1.561 . S
C1467 C1464 1.526 . S
C1467 C1468 1.396 . S
C1467 C1472 1.390 . S
C1468 C1462 1.465 . S
C1468 C1467 1.396 . S
C1468 C1469 1.399 . S
C1469 H1455 0.929 . S
C1469 C1468 1.399 . S
C1469 C1470 1.385 . S
C1470 H1456 0.931 . S
C1470 C1469 1.385 . S
C1470 C1471 1.389 . S
C1471 C1470 1.389 . S
C1471 C1472 1.387 . S
C1472 H1457 0.930 . S
C1472 C1467 1.390 . S
C1472 C1471 1.387 . S
H1473 C1485 0.930 . S
H1474 C1487 0.930 . S
H1475 C1488 0.930 . S
H1476 C1492 0.959 . S
H1477 C1492 0.959 . S
H1478 C1492 0.961 . S
H1479 C1493 0.960 . S
H1480 C1493 0.961 . S
H1481 C1493 0.959 . S
H1482 C1496 0.929 . S
H1483 C1497 0.931 . S
H1484 C1499 0.930 . S
C1485 H1473 0.930 . S
C1485 C1486 1.399 . S
C1485 C1490 1.399 . S
C1486 C1485 1.399 . S
C1486 C1487 1.376 . S
C1487 H1474 0.930 . S
C1487 C1486 1.376 . S
C1487 C1488 1.388 . S
C1488 H1475 0.930 . S
C1488 C1487 1.388 . S
C1488 C1489 1.390 . S
C1489 C1488 1.390 . S
C1489 C1490 1.394 . S
C1489 C1495 1.465 . S
C1490 C1485 1.399 . S
C1490 C1489 1.394 . S
C1490 C1491 1.516 . S
C1491 C1490 1.516 . S
C1491 C1492 1.502 . S
C1491 C1493 1.561 . S
C1491 C1494 1.526 . S
C1492 H1476 0.959 . S
C1492 H1477 0.959 . S
C1492 H1478 0.961 . S
C1492 C1491 1.502 . S
C1493 H1479 0.960 . S
C1493 H1480 0.961 . S
C1493 H1481 0.959 . S
C1493 C1491 1.561 . S
C1494 C1491 1.526 . S
C1494 C1495 1.396 . S
C1494 C1499 1.390 . S
C1495 C1489 1.465 . S
C1495 C1494 1.396 . S
C1495 C1496 1.399 . S
C1496 H1482 0.929 . S
C1496 C1495 1.399 . S
C1496 C1497 1.385 . S
C1497 H1483 0.931 . S
C1497 C1496 1.385 . S
C1497 C1498 1.389 . S
C1498 C1497 1.389 . S
C1498 C1499 1.387 . S
C1499 H1484 0.930 . S
C1499 C1494 1.390 . S
C1499 C1498 1.387 . S
H1500 C1512 0.930 . S
H1501 C1514 0.930 . S
H1502 C1515 0.930 . S
H1503 C1519 0.959 . S
H1504 C1519 0.959 . S
H1505 C1519 0.961 . S
H1506 C1520 0.960 . S
H1507 C1520 0.961 . S
H1508 C1520 0.959 . S
H1509 C1523 0.929 . S
H1510 C1524 0.931 . S
H1511 C1526 0.930 . S
C1512 H1500 0.930 . S
C1512 C1513 1.399 . S
C1512 C1517 1.399 . S
C1513 C1512 1.399 . S
C1513 C1514 1.376 . S
C1514 H1501 0.930 . S
C1514 C1513 1.376 . S
C1514 C1515 1.388 . S
C1515 H1502 0.930 . S
C1515 C1514 1.388 . S
C1515 C1516 1.390 . S
C1516 C1515 1.390 . S
C1516 C1517 1.394 . S
C1516 C1522 1.465 . S
C1517 C1512 1.399 . S
C1517 C1516 1.394 . S
C1517 C1518 1.516 . S
C1518 C1517 1.516 . S
C1518 C1519 1.502 . S
C1518 C1520 1.561 . S
C1518 C1521 1.526 . S
C1519 H1503 0.959 . S
C1519 H1504 0.959 . S
C1519 H1505 0.961 . S
C1519 C1518 1.502 . S
C1520 H1506 0.960 . S
C1520 H1507 0.961 . S
C1520 H1508 0.959 . S
C1520 C1518 1.561 . S
C1521 C1518 1.526 . S
C1521 C1522 1.396 . S
C1521 C1526 1.390 . S
C1522 C1516 1.465 . S
C1522 C1521 1.396 . S
C1522 C1523 1.399 . S
C1523 H1509 0.929 . S
C1523 C1522 1.399 . S
C1523 C1524 1.385 . S
C1524 H1510 0.931 . S
C1524 C1523 1.385 . S
C1524 C1525 1.389 . S
C1525 C1524 1.389 . S
C1525 C1526 1.387 . S
C1526 H1511 0.930 . S
C1526 C1521 1.390 . S
C1526 C1525 1.387 . S
H1527 C1539 0.930 . S
H1528 C1541 0.930 . S
H1529 C1542 0.930 . S
H1530 C1546 0.959 . S
H1531 C1546 0.959 . S
H1532 C1546 0.961 . S
H1533 C1547 0.960 . S
H1534 C1547 0.961 . S
H1535 C1547 0.959 . S
H1536 C1550 0.929 . S
H1537 C1551 0.931 . S
H1538 C1553 0.930 . S
C1539 H1527 0.930 . S
C1539 C1540 1.399 . S
C1539 C1544 1.399 . S
C1540 C1539 1.399 . S
C1540 C1541 1.376 . S
C1541 H1528 0.930 . S
C1541 C1540 1.376 . S
C1541 C1542 1.388 . S
C1542 H1529 0.930 . S
C1542 C1541 1.388 . S
C1542 C1543 1.390 . S
C1543 C1542 1.390 . S
C1543 C1544 1.394 . S
C1543 C1549 1.465 . S
C1544 C1539 1.399 . S
C1544 C1543 1.394 . S
C1544 C1545 1.516 . S
C1545 C1544 1.516 . S
C1545 C1546 1.502 . S
C1545 C1547 1.561 . S
C1545 C1548 1.526 . S
C1546 H1530 0.959 . S
C1546 H1531 0.959 . S
C1546 H1532 0.961 . S
C1546 C1545 1.502 . S
C1547 H1533 0.960 . S
C1547 H1534 0.961 . S
C1547 H1535 0.959 . S
C1547 C1545 1.561 . S
C1548 C1545 1.526 . S
C1548 C1549 1.396 . S
C1548 C1553 1.390 . S
C1549 C1543 1.465 . S
C1549 C1548 1.396 . S
C1549 C1550 1.399 . S
C1550 H1536 0.929 . S
C1550 C1549 1.399 . S
C1550 C1551 1.385 . S
C1551 H1537 0.931 . S
C1551 C1550 1.385 . S
C1551 C1552 1.389 . S
C1552 C1551 1.389 . S
C1552 C1553 1.387 . S
C1553 H1538 0.930 . S
C1553 C1548 1.390 . S
C1553 C1552 1.387 . S
H1554 C1566 0.930 . S
H1555 C1568 0.930 . S
H1556 C1569 0.930 . S
H1557 C1573 0.959 . S
H1558 C1573 0.959 . S
H1559 C1573 0.961 . S
H1560 C1574 0.960 . S
H1561 C1574 0.961 . S
H1562 C1574 0.959 . S
H1563 C1577 0.929 . S
H1564 C1578 0.931 . S
H1565 C1580 0.930 . S
C1566 H1554 0.930 . S
C1566 C1567 1.399 . S
C1566 C1571 1.399 . S
C1567 C1566 1.399 . S
C1567 C1568 1.376 . S
C1568 H1555 0.930 . S
C1568 C1567 1.376 . S
C1568 C1569 1.388 . S
C1569 H1556 0.930 . S
C1569 C1568 1.388 . S
C1569 C1570 1.390 . S
C1570 C1569 1.390 . S
C1570 C1571 1.394 . S
C1570 C1576 1.465 . S
C1571 C1566 1.399 . S
C1571 C1570 1.394 . S
C1571 C1572 1.516 . S
C1572 C1571 1.516 . S
C1572 C1573 1.502 . S
C1572 C1574 1.561 . S
C1572 C1575 1.526 . S
C1573 H1557 0.959 . S
C1573 H1558 0.959 . S
C1573 H1559 0.961 . S
C1573 C1572 1.502 . S
C1574 H1560 0.960 . S
C1574 H1561 0.961 . S
C1574 H1562 0.959 . S
C1574 C1572 1.561 . S
C1575 C1572 1.526 . S
C1575 C1576 1.396 . S
C1575 C1580 1.390 . S
C1576 C1570 1.465 . S
C1576 C1575 1.396 . S
C1576 C1577 1.399 . S
C1577 H1563 0.929 . S
C1577 C1576 1.399 . S
C1577 C1578 1.385 . S
C1578 H1564 0.931 . S
C1578 C1577 1.385 . S
C1578 C1579 1.389 . S
C1579 C1578 1.389 . S
C1579 C1580 1.387 . S
C1580 H1565 0.930 . S
C1580 C1575 1.390 . S
C1580 C1579 1.387 . S
H1581 C1593 0.930 . S
H1582 C1595 0.930 . S
H1583 C1596 0.930 . S
H1584 C1600 0.959 . S
H1585 C1600 0.959 . S
H1586 C1600 0.961 . S
H1587 C1601 0.960 . S
H1588 C1601 0.961 . S
H1589 C1601 0.959 . S
H1590 C1604 0.929 . S
H1591 C1605 0.931 . S
H1592 C1607 0.930 . S
C1593 H1581 0.930 . S
C1593 C1594 1.399 . S
C1593 C1598 1.399 . S
C1594 C1593 1.399 . S
C1594 C1595 1.376 . S
C1595 H1582 0.930 . S
C1595 C1594 1.376 . S
C1595 C1596 1.388 . S
C1596 H1583 0.930 . S
C1596 C1595 1.388 . S
C1596 C1597 1.390 . S
C1597 C1596 1.390 . S
C1597 C1598 1.394 . S
C1597 C1603 1.465 . S
C1598 C1593 1.399 . S
C1598 C1597 1.394 . S
C1598 C1599 1.516 . S
C1599 C1598 1.516 . S
C1599 C1600 1.502 . S
C1599 C1601 1.561 . S
C1599 C1602 1.526 . S
C1600 H1584 0.959 . S
C1600 H1585 0.959 . S
C1600 H1586 0.961 . S
C1600 C1599 1.502 . S
C1601 H1587 0.960 . S
C1601 H1588 0.961 . S
C1601 H1589 0.959 . S
C1601 C1599 1.561 . S
C1602 C1599 1.526 . S
C1602 C1603 1.396 . S
C1602 C1607 1.390 . S
C1603 C1597 1.465 . S
C1603 C1602 1.396 . S
C1603 C1604 1.399 . S
C1604 H1590 0.929 . S
C1604 C1603 1.399 . S
C1604 C1605 1.385 . S
C1605 H1591 0.931 . S
C1605 C1604 1.385 . S
C1605 C1606 1.389 . S
C1606 C1605 1.389 . S
C1606 C1607 1.387 . S
C1607 H1592 0.930 . S
C1607 C1602 1.390 . S
C1607 C1606 1.387 . S
C541 N13 1.754 . S
C553 N112 1.747 . S
C568 N79 1.756 . S
C580 N46 1.749 . S
C595 N244 1.718 . S
C607 N145 1.712 . S
C622 N178 1.749 . S
C634 N211 1.756 . S
C649 N277 1.749 . S
C661 N376 1.739 . S
C676 N310 1.755 . S
C688 N343 1.747 . S
C703 N508 1.742 . S
C715 N409 1.757 . S
C730 N442 1.724 . S
C742 N475 1.711 . S
C757 N200 1.542 . S
C769 N2 1.535 . S
C784 N233 1.577 . S
C796 N35 1.565 . S
C811 N134 1.604 . S
C823 N68 1.606 . S
C838 N167 1.566 . S
C850 N101 1.578 . S
C865 N464 1.586 . S
C877 N266 1.575 . S
C892 N497 1.585 . S
C904 N299 1.574 . S
C919 N398 1.597 . S
C931 N332 1.603 . S
C946 N365 1.595 . S
C958 N431 1.586 . S
C973 C7 1.520 . S
C985 C73 1.564 . S
C1000 C40 1.531 . S
C1012 C106 1.553 . S
C1027 C139 1.536 . S
C1039 C205 1.531 . S
C1054 C172 1.568 . S
C1066 C238 1.514 . S
C1081 C271 1.571 . S
C1093 C337 1.517 . S
C1108 C304 1.567 . S
C1120 C370 1.522 . S
C1135 C403 1.518 . S
C1147 C469 1.552 . S
C1162 C436 1.529 . S
C1174 C502 1.572 . S
C1189 C513 1.095 . S
C1201 C21 1.128 . S
C1216 C54 1.138 . S
C1228 C480 1.091 . S
C1243 C87 1.102 . S
C1255 C447 1.136 . S
C1270 C414 1.120 . S
C1282 C120 1.111 . S
C1297 C381 1.087 . S
C1309 C153 1.133 . S
C1324 C186 1.105 . S
C1336 C348 1.115 . S
C1351 C219 1.114 . S
C1363 C315 1.140 . S
C1378 C252 1.127 . S
C1390 C282 1.130 . S
C1405 C285 1.138 . S
C1417 C249 1.088 . S
C1432 C216 1.112 . S
C1444 C318 1.116 . S
C1459 C183 1.130 . S
C1471 C351 1.116 . S
C1486 C384 1.137 . S
C1498 C150 1.088 . S
C1513 C417 1.129 . S
C1525 C117 1.127 . S
C1540 C84 1.092 . S
C1552 C450 1.121 . S
C1567 C51 1.088 . S
C1579 C483 1.134 . S
C1594 C18 1.135 . S
C1606 C516 1.123 . S
