# Generated by pormake.
# Topology pcu-i, (5)-cn, num edge types: 1
# Building blocks:
#     Node 0, Type 0, BuildingBlock: XOMCOT_clean_sbu_1, # of connection points: 5
#     Node 1, Type 0, BuildingBlock: XOMCOT_clean_sbu_1, # of connection points: 5
#     Node 2, Type 0, BuildingBlock: XOMCOT_clean_sbu_1, # of connection points: 5
#     Node 3, Type 0, BuildingBlock: XOMCOT_clean_sbu_1, # of connection points: 5
#     Node 4, Type 0, BuildingBlock: XOMCOT_clean_sbu_1, # of connection points: 5
#     Node 5, Type 0, BuildingBlock: XOMCOT_clean_sbu_1, # of connection points: 5
#     Node 6, Type 0, BuildingBlock: XOMCOT_clean_sbu_1, # of connection points: 5
#     Node 7, Type 0, BuildingBlock: XOMCOT_clean_sbu_1, # of connection points: 5
#     Node 8, Type 0, BuildingBlock: XOMCOT_clean_sbu_1, # of connection points: 5
#     Node 9, Type 0, BuildingBlock: XOMCOT_clean_sbu_1, # of connection points: 5
#     Node 10, Type 0, BuildingBlock: XOMCOT_clean_sbu_1, # of connection points: 5
#     Node 11, Type 0, BuildingBlock: XOMCOT_clean_sbu_1, # of connection points: 5
#     Node 12, Type 0, BuildingBlock: XOMCOT_clean_sbu_1, # of connection points: 5
#     Node 13, Type 0, BuildingBlock: XOMCOT_clean_sbu_1, # of connection points: 5
#     Node 14, Type 0, BuildingBlock: XOMCOT_clean_sbu_1, # of connection points: 5
#     Node 15, Type 0, BuildingBlock: XOMCOT_clean_sbu_1, # of connection points: 5
#     Node 16, Type 0, BuildingBlock: XOMCOT_clean_sbu_1, # of connection points: 5
#     Node 17, Type 0, BuildingBlock: XOMCOT_clean_sbu_1, # of connection points: 5
#     Node 18, Type 0, BuildingBlock: XOMCOT_clean_sbu_1, # of connection points: 5
#     Node 19, Type 0, BuildingBlock: XOMCOT_clean_sbu_1, # of connection points: 5
#     Node 20, Type 0, BuildingBlock: XOMCOT_clean_sbu_1, # of connection points: 5
#     Node 21, Type 0, BuildingBlock: XOMCOT_clean_sbu_1, # of connection points: 5
#     Node 22, Type 0, BuildingBlock: XOMCOT_clean_sbu_1, # of connection points: 5
#     Node 23, Type 0, BuildingBlock: XOMCOT_clean_sbu_1, # of connection points: 5
#     Edge 24, Type (0, 0), BuildingBlock: XIVTED_clean_linker_0, # of connection points: 2
#     Edge 25, Type (0, 0), BuildingBlock: XIVTED_clean_linker_0, # of connection points: 2
#     Edge 26, Type (0, 0), BuildingBlock: XIVTED_clean_linker_0, # of connection points: 2
#     Edge 27, Type (0, 0), BuildingBlock: XIVTED_clean_linker_0, # of connection points: 2
#     Edge 28, Type (0, 0), BuildingBlock: XIVTED_clean_linker_0, # of connection points: 2
#     Edge 29, Type (0, 0), BuildingBlock: XIVTED_clean_linker_0, # of connection points: 2
#     Edge 30, Type (0, 0), BuildingBlock: XIVTED_clean_linker_0, # of connection points: 2
#     Edge 31, Type (0, 0), BuildingBlock: XIVTED_clean_linker_0, # of connection points: 2
#     Edge 32, Type (0, 0), BuildingBlock: XIVTED_clean_linker_0, # of connection points: 2
#     Edge 33, Type (0, 0), BuildingBlock: XIVTED_clean_linker_0, # of connection points: 2
#     Edge 34, Type (0, 0), BuildingBlock: XIVTED_clean_linker_0, # of connection points: 2
#     Edge 35, Type (0, 0), BuildingBlock: XIVTED_clean_linker_0, # of connection points: 2
#     Edge 36, Type (0, 0), BuildingBlock: XIVTED_clean_linker_0, # of connection points: 2
#     Edge 37, Type (0, 0), BuildingBlock: XIVTED_clean_linker_0, # of connection points: 2
#     Edge 38, Type (0, 0), BuildingBlock: XIVTED_clean_linker_0, # of connection points: 2
#     Edge 39, Type (0, 0), BuildingBlock: XIVTED_clean_linker_0, # of connection points: 2
#     Edge 40, Type (0, 0), BuildingBlock: XIVTED_clean_linker_0, # of connection points: 2
#     Edge 41, Type (0, 0), BuildingBlock: XIVTED_clean_linker_0, # of connection points: 2
#     Edge 42, Type (0, 0), BuildingBlock: XIVTED_clean_linker_0, # of connection points: 2
#     Edge 43, Type (0, 0), BuildingBlock: XIVTED_clean_linker_0, # of connection points: 2
#     Edge 44, Type (0, 0), BuildingBlock: XIVTED_clean_linker_0, # of connection points: 2
#     Edge 45, Type (0, 0), BuildingBlock: XIVTED_clean_linker_0, # of connection points: 2
#     Edge 46, Type (0, 0), BuildingBlock: XIVTED_clean_linker_0, # of connection points: 2
#     Edge 47, Type (0, 0), BuildingBlock: XIVTED_clean_linker_0, # of connection points: 2
#     Edge 48, Type (0, 0), BuildingBlock: XIVTED_clean_linker_0, # of connection points: 2
#     Edge 49, Type (0, 0), BuildingBlock: XIVTED_clean_linker_0, # of connection points: 2
#     Edge 50, Type (0, 0), BuildingBlock: XIVTED_clean_linker_0, # of connection points: 2
#     Edge 51, Type (0, 0), BuildingBlock: XIVTED_clean_linker_0, # of connection points: 2
#     Edge 52, Type (0, 0), BuildingBlock: XIVTED_clean_linker_0, # of connection points: 2
#     Edge 53, Type (0, 0), BuildingBlock: XIVTED_clean_linker_0, # of connection points: 2
#     Edge 54, Type (0, 0), BuildingBlock: XIVTED_clean_linker_0, # of connection points: 2
#     Edge 55, Type (0, 0), BuildingBlock: XIVTED_clean_linker_0, # of connection points: 2
#     Edge 56, Type (0, 0), BuildingBlock: XIVTED_clean_linker_0, # of connection points: 2
#     Edge 57, Type (0, 0), BuildingBlock: XIVTED_clean_linker_0, # of connection points: 2
#     Edge 58, Type (0, 0), BuildingBlock: XIVTED_clean_linker_0, # of connection points: 2
#     Edge 59, Type (0, 0), BuildingBlock: XIVTED_clean_linker_0, # of connection points: 2
#     Edge 60, Type (0, 0), BuildingBlock: XIVTED_clean_linker_0, # of connection points: 2
#     Edge 61, Type (0, 0), BuildingBlock: XIVTED_clean_linker_0, # of connection points: 2
#     Edge 62, Type (0, 0), BuildingBlock: XIVTED_clean_linker_0, # of connection points: 2
#     Edge 63, Type (0, 0), BuildingBlock: XIVTED_clean_linker_0, # of connection points: 2
#     Edge 64, Type (0, 0), BuildingBlock: XIVTED_clean_linker_0, # of connection points: 2
#     Edge 65, Type (0, 0), BuildingBlock: XIVTED_clean_linker_0, # of connection points: 2
#     Edge 66, Type (0, 0), BuildingBlock: XIVTED_clean_linker_0, # of connection points: 2
#     Edge 67, Type (0, 0), BuildingBlock: XIVTED_clean_linker_0, # of connection points: 2
#     Edge 68, Type (0, 0), BuildingBlock: XIVTED_clean_linker_0, # of connection points: 2
#     Edge 69, Type (0, 0), BuildingBlock: XIVTED_clean_linker_0, # of connection points: 2
#     Edge 70, Type (0, 0), BuildingBlock: XIVTED_clean_linker_0, # of connection points: 2
#     Edge 71, Type (0, 0), BuildingBlock: XIVTED_clean_linker_0, # of connection points: 2
#     Edge 72, Type (0, 0), BuildingBlock: XIVTED_clean_linker_0, # of connection points: 2
#     Edge 73, Type (0, 0), BuildingBlock: XIVTED_clean_linker_0, # of connection points: 2
#     Edge 74, Type (0, 0), BuildingBlock: XIVTED_clean_linker_0, # of connection points: 2
#     Edge 75, Type (0, 0), BuildingBlock: XIVTED_clean_linker_0, # of connection points: 2
#     Edge 76, Type (0, 0), BuildingBlock: XIVTED_clean_linker_0, # of connection points: 2
#     Edge 77, Type (0, 0), BuildingBlock: XIVTED_clean_linker_0, # of connection points: 2
#     Edge 78, Type (0, 0), BuildingBlock: XIVTED_clean_linker_0, # of connection points: 2
#     Edge 79, Type (0, 0), BuildingBlock: XIVTED_clean_linker_0, # of connection points: 2
#     Edge 80, Type (0, 0), BuildingBlock: XIVTED_clean_linker_0, # of connection points: 2
#     Edge 81, Type (0, 0), BuildingBlock: XIVTED_clean_linker_0, # of connection points: 2
#     Edge 82, Type (0, 0), BuildingBlock: XIVTED_clean_linker_0, # of connection points: 2
#     Edge 83, Type (0, 0), BuildingBlock: XIVTED_clean_linker_0, # of connection points: 2
# Relax obj value: 0.243
# Max RMSD: 0.244
# Mean RMSD: 0.244
data_MOF--net-pcu-i--node1-XOMCOT_clean_sbu_1--edge1-XIVTED_clean_linker_0
_symmetry_space_group_name_H-M    P1
_symmetry_Int_Tables_number       1
_symmetry_cell_setting            triclinic
loop_
_symmetry_equiv_pos_as_xyz
'x, y, z'
_cell_length_a     56.960963
_cell_length_b     56.902907
_cell_length_c     56.971764
_cell_angle_alpha  90.014638
_cell_angle_beta   90.032415
_cell_angle_gamma 90.023944
loop_
_atom_site_label
_atom_site_type_symbol
_atom_site_fract_x
_atom_site_fract_y
_atom_site_fract_z
_atom_type_partial_charge
C0 C 0.07182 0.18931 0.34665 0.0
C1 C 0.04783 0.18962 0.34897 0.0
N2 N 0.0389 0.17132 0.33686 0.0
N3 N 0.07802 0.17092 0.33312 0.0
C4 C 0.05758 0.16039 0.32722 0.0
H5 H 0.08407 0.20116 0.35504 0.0
Co6 Co 0.10871 0.16154 0.3276 0.0
C7 C 0.10249 0.11768 0.30142 0.0
O8 O 0.11262 0.12729 0.28306 0.0
N9 N 0.1396 0.15156 0.32211 0.0
C10 C 0.17023 0.12745 0.31967 0.0
C11 C 0.14929 0.13168 0.33079 0.0
C12 C 0.15526 0.15935 0.30611 0.0
N13 N 0.17382 0.14482 0.30409 0.0
O14 O 0.10636 0.17265 0.2959 0.0
H15 H 0.14092 0.12006 0.34326 0.0
H16 H 0.15239 0.17431 0.29481 0.0
O17 O 0.09846 0.13014 0.31959 0.0
C18 C 0.10981 0.19479 0.2965 0.0
O19 O 0.11311 0.20475 0.31705 0.0
N20 N 0.11153 0.15328 0.35906 0.0
C21 C 0.11801 0.14632 0.40701 0.0
C22 C 0.10096 0.13343 0.39461 0.0
C23 C 0.09791 0.13726 0.37055 0.0
C24 C 0.12775 0.16627 0.37085 0.0
C25 C 0.13154 0.16285 0.39472 0.0
H26 H 0.08431 0.12781 0.3613 0.0
H27 H 0.13792 0.17934 0.36153 0.0
H28 H 0.05644 0.14432 0.31714 0.0
H29 H 0.03779 0.20202 0.3593 0.0
H30 H 0.18139 0.11224 0.32206 0.0
H31 H 0.08974 0.12089 0.40346 0.0
H32 H 0.1451 0.173 0.40336 0.0
C33 C 0.82043 0.06278 0.3587 0.0
C34 C 0.82915 0.04035 0.35692 0.0
N35 N 0.8437 0.03965 0.33837 0.0
N36 N 0.82986 0.07618 0.34159 0.0
C37 C 0.84368 0.06145 0.32915 0.0
H38 H 0.80794 0.06897 0.37159 0.0
Co39 Co 0.82342 0.10776 0.33647 0.0
C40 C 0.86908 0.13085 0.33866 0.0
O41 O 0.8583 0.14652 0.35176 0.0
N42 N 0.81584 0.13934 0.32984 0.0
C43 C 0.79598 0.17211 0.32119 0.0
C44 C 0.79563 0.15126 0.33364 0.0
C45 C 0.82728 0.15268 0.31387 0.0
N46 N 0.81617 0.17289 0.30906 0.0
O47 O 0.81615 0.1013 0.30445 0.0
H48 H 0.78075 0.1446 0.34332 0.0
H49 H 0.8429 0.14716 0.30461 0.0
O50 O 0.8573 0.11387 0.32952 0.0
C51 C 0.79497 0.09424 0.30308 0.0
O52 O 0.7838 0.08947 0.3227 0.0
N53 N 0.82909 0.11366 0.36904 0.0
C54 C 0.83789 0.12142 0.4167 0.0
C55 C 0.85393 0.10901 0.40288 0.0
C56 C 0.84904 0.10495 0.37932 0.0
C57 C 0.81252 0.12432 0.38267 0.0
C58 C 0.81669 0.12868 0.40649 0.0
H59 H 0.86153 0.09485 0.36923 0.0
H60 H 0.79581 0.12915 0.37538 0.0
H61 H 0.85332 0.06652 0.31358 0.0
H62 H 0.82462 0.02548 0.36788 0.0
H63 H 0.7823 0.1853 0.32061 0.0
H64 H 0.87008 0.10218 0.41026 0.0
H65 H 0.80352 0.13779 0.41674 0.0
C66 C 0.93434 0.8265 0.36251 0.0
C67 C 0.95699 0.83457 0.36071 0.0
N68 N 0.95887 0.84656 0.34048 0.0
N69 N 0.92194 0.83377 0.34368 0.0
C70 C 0.93752 0.84567 0.3303 0.0
H71 H 0.92736 0.81604 0.37672 0.0
Co72 Co 0.89018 0.82852 0.33866 0.0
C73 C 0.86984 0.87491 0.32674 0.0
O74 O 0.85077 0.86937 0.33846 0.0
N75 N 0.85812 0.82249 0.33293 0.0
C76 C 0.81992 0.81421 0.33388 0.0
C77 C 0.84071 0.81328 0.34618 0.0
C78 C 0.84757 0.82766 0.3123 0.0
N79 N 0.82433 0.82347 0.31261 0.0
O80 O 0.89653 0.81663 0.30802 0.0
H81 H 0.84243 0.80674 0.36383 0.0
H82 H 0.8565 0.83625 0.2979 0.0
O83 O 0.88709 0.86052 0.32575 0.0
C84 C 0.90174 0.79496 0.30636 0.0
O85 O 0.90651 0.7832 0.32562 0.0
N86 N 0.88411 0.83913 0.36958 0.0
C87 C 0.87621 0.85069 0.41652 0.0
C88 C 0.88269 0.868 0.40032 0.0
C89 C 0.88728 0.86175 0.37709 0.0
C90 C 0.8795 0.82186 0.38551 0.0
C91 C 0.87517 0.82726 0.40904 0.0
H92 H 0.89399 0.8751 0.3655 0.0
H93 H 0.87933 0.8037 0.37991 0.0
H94 H 0.93328 0.85369 0.3136 0.0
H95 H 0.97114 0.83153 0.37303 0.0
H96 H 0.80279 0.80914 0.34035 0.0
H97 H 0.88484 0.88613 0.40572 0.0
H98 H 0.87086 0.81327 0.42118 0.0
C99 C 0.178 0.93414 0.35846 0.0
C100 C 0.17004 0.95688 0.35696 0.0
N101 N 0.15452 0.9581 0.33917 0.0
N102 N 0.16729 0.92104 0.34191 0.0
C103 C 0.15329 0.93619 0.33017 0.0
H104 H 0.19051 0.92744 0.37108 0.0
Co105 Co 0.17113 0.88892 0.33851 0.0
C106 C 0.12422 0.86971 0.32783 0.0
O107 O 0.12914 0.85164 0.34132 0.0
N108 N 0.17585 0.85624 0.33442 0.0
C109 C 0.18357 0.81796 0.33712 0.0
C110 C 0.1849 0.83928 0.3484 0.0
C111 C 0.17035 0.84477 0.31432 0.0
N112 N 0.17419 0.82147 0.31575 0.0
O113 O 0.18427 0.89337 0.30812 0.0
H114 H 0.19192 0.84168 0.36577 0.0
H115 H 0.16225 0.85325 0.29936 0.0
O116 O 0.13919 0.88631 0.32522 0.0
C117 C 0.2065 0.89518 0.3096 0.0
O118 O 0.21588 0.89735 0.33057 0.0
N119 N 0.15983 0.88501 0.36935 0.0
C120 C 0.14777 0.8795 0.41635 0.0
C121 C 0.13119 0.88771 0.40018 0.0
C122 C 0.13769 0.89069 0.37671 0.0
C123 C 0.17668 0.87959 0.38545 0.0
C124 C 0.17089 0.87589 0.40892 0.0
H125 H 0.125 0.89799 0.36471 0.0
H126 H 0.19479 0.87814 0.37997 0.0
H127 H 0.14197 0.93118 0.31575 0.0
H128 H 0.1753 0.97144 0.36802 0.0
H129 H 0.1888 0.80114 0.34427 0.0
H130 H 0.11338 0.89159 0.40558 0.0
H131 H 0.18441 0.87063 0.42123 0.0
C132 C 0.06292 0.81916 0.64715 0.0
C133 C 0.0397 0.82554 0.64676 0.0
N134 N 0.03675 0.84341 0.66191 0.0
N135 N 0.07459 0.83325 0.6622 0.0
C136 C 0.05809 0.84776 0.67119 0.0
H137 H 0.07099 0.80555 0.63665 0.0
Co138 Co 0.1068 0.83206 0.66618 0.0
C139 C 0.12285 0.88072 0.67273 0.0
O140 O 0.1412 0.87585 0.65965 0.0
N141 N 0.13961 0.82994 0.67085 0.0
C142 C 0.17812 0.82318 0.66967 0.0
C143 C 0.15718 0.82049 0.65796 0.0
C144 C 0.15042 0.83745 0.69066 0.0
N145 N 0.17379 0.83394 0.69023 0.0
O146 O 0.10295 0.822 0.69776 0.0
H147 H 0.1554 0.8119 0.64123 0.0
H148 H 0.14132 0.84618 0.70486 0.0
O149 O 0.10714 0.86509 0.67651 0.0
C150 C 0.09714 0.80073 0.7013 0.0
O151 O 0.09055 0.78774 0.68341 0.0
N152 N 0.11019 0.84072 0.63439 0.0
C153 C 0.11372 0.8493 0.58617 0.0
C154 C 0.10458 0.86641 0.60141 0.0
C155 C 0.10263 0.86165 0.62536 0.0
C156 C 0.11682 0.82315 0.6196 0.0
C157 C 0.11951 0.82724 0.59561 0.0
H158 H 0.09432 0.8746 0.63639 0.0
H159 H 0.11988 0.80571 0.62646 0.0
H160 H 0.06174 0.86178 0.68351 0.0
H161 H 0.02604 0.81795 0.63589 0.0
H162 H 0.19518 0.81742 0.6636 0.0
H163 H 0.09846 0.88319 0.59489 0.0
H164 H 0.12618 0.81318 0.58472 0.0
C165 C 0.16774 0.068 0.63258 0.0
C166 C 0.15775 0.04609 0.63411 0.0
N167 N 0.14558 0.045 0.65429 0.0
N168 N 0.16147 0.08076 0.65153 0.0
C169 C 0.14827 0.0661 0.6647 0.0
H170 H 0.1789 0.07423 0.61855 0.0
Co171 Co 0.16982 0.1117 0.65737 0.0
C172 C 0.12597 0.13743 0.66426 0.0
O173 O 0.13512 0.15368 0.65064 0.0
N174 N 0.17899 0.14292 0.66444 0.0
C175 C 0.19245 0.17963 0.66804 0.0
C176 C 0.19224 0.15975 0.65408 0.0
C177 C 0.17242 0.15279 0.685 0.0
N178 N 0.17967 0.17509 0.68732 0.0
O179 O 0.17978 0.10351 0.68819 0.0
H180 H 0.201 0.15825 0.6374 0.0
H181 H 0.16155 0.14398 0.69786 0.0
O182 O 0.13761 0.11864 0.66869 0.0
C183 C 0.20151 0.09843 0.68872 0.0
O184 O 0.21222 0.09449 0.66867 0.0
N185 N 0.16136 0.1192 0.62615 0.0
C186 C 0.15218 0.12534 0.57846 0.0
C187 C 0.13441 0.11795 0.59371 0.0
C188 C 0.13945 0.11459 0.6174 0.0
C189 C 0.17917 0.12489 0.61123 0.0
C190 C 0.17485 0.12873 0.5874 0.0
H191 H 0.12586 0.1074 0.62848 0.0
H192 H 0.19702 0.12534 0.61759 0.0
H193 H 0.14084 0.07077 0.68155 0.0
H194 H 0.15985 0.03178 0.62176 0.0
H195 H 0.20038 0.1964 0.66382 0.0
H196 H 0.11682 0.11451 0.58735 0.0
H197 H 0.18928 0.13335 0.57591 0.0
C198 C 0.93058 0.19753 0.65604 0.0
C199 C 0.95422 0.19783 0.66054 0.0
N200 N 0.95985 0.17767 0.67144 0.0
N201 N 0.92126 0.17698 0.66339 0.0
C202 C 0.93957 0.1656 0.67347 0.0
H203 H 0.92065 0.2119 0.64861 0.0
Co204 Co 0.88871 0.17175 0.6637 0.0
C205 C 0.90403 0.12197 0.66968 0.0
O206 O 0.9189 0.12414 0.65217 0.0
N207 N 0.85652 0.16786 0.66484 0.0
C208 C 0.81813 0.17035 0.65895 0.0
C209 C 0.83992 0.17576 0.64994 0.0
C210 C 0.84463 0.15811 0.68276 0.0
N211 N 0.82123 0.15935 0.67969 0.0
O212 O 0.88751 0.18517 0.69445 0.0
H213 H 0.84346 0.18527 0.63389 0.0
H214 H 0.85307 0.15073 0.69808 0.0
O215 O 0.89233 0.13989 0.67662 0.0
C216 C 0.88175 0.20674 0.69282 0.0
O217 O 0.87938 0.21581 0.67174 0.0
N218 N 0.8887 0.16003 0.63247 0.0
C219 C 0.88117 0.14845 0.58534 0.0
C220 C 0.87309 0.13371 0.60328 0.0
C221 C 0.87674 0.13996 0.62667 0.0
C222 C 0.89655 0.17456 0.61512 0.0
C223 C 0.89333 0.16894 0.59151 0.0
H224 H 0.86869 0.12925 0.6401 0.0
H225 H 0.90399 0.1914 0.6193 0.0
H226 H 0.93812 0.14952 0.6834 0.0
H227 H 0.9663 0.21186 0.6562 0.0
H228 H 0.80136 0.17497 0.6513 0.0
H229 H 0.86337 0.11784 0.59931 0.0
H230 H 0.89913 0.18127 0.57823 0.0
C231 C 0.80474 0.94038 0.65486 0.0
C232 C 0.81011 0.96372 0.65797 0.0
N233 N 0.83138 0.96516 0.6682 0.0
N234 N 0.82248 0.92713 0.6632 0.0
C235 C 0.83855 0.94272 0.67115 0.0
H236 H 0.78892 0.93343 0.64696 0.0
Co237 Co 0.82204 0.89454 0.66341 0.0
C238 C 0.87107 0.87908 0.6659 0.0
O239 O 0.86559 0.86298 0.65031 0.0
N240 N 0.82081 0.86125 0.66452 0.0
C241 C 0.81447 0.82282 0.66029 0.0
C242 C 0.81162 0.84464 0.65022 0.0
C243 C 0.82852 0.84896 0.68337 0.0
N244 N 0.82511 0.82563 0.68119 0.0
O245 O 0.81159 0.89476 0.69519 0.0
H246 H 0.80291 0.84773 0.63373 0.0
H247 H 0.8369 0.85707 0.69837 0.0
O248 O 0.85542 0.89353 0.67316 0.0
C249 C 0.78925 0.8938 0.69486 0.0
O250 O 0.77859 0.8955 0.67446 0.0
N251 N 0.83013 0.89493 0.63131 0.0
C252 C 0.83895 0.89264 0.58331 0.0
C253 C 0.85585 0.90177 0.59869 0.0
C254 C 0.85072 0.90361 0.62258 0.0
C255 C 0.81252 0.88894 0.61626 0.0
C256 C 0.81667 0.88716 0.59217 0.0
H257 H 0.86338 0.91186 0.634 0.0
H258 H 0.79523 0.88508 0.62307 0.0
H259 H 0.85503 0.93781 0.67922 0.0
H260 H 0.79939 0.97851 0.6527 0.0
H261 H 0.80866 0.80625 0.65299 0.0
H262 H 0.87283 0.90748 0.59229 0.0
H263 H 0.80281 0.88088 0.58075 0.0
C264 C 0.34919 0.09712 0.1837 0.0
C265 C 0.34987 0.07322 0.18713 0.0
N266 N 0.33835 0.06278 0.16926 0.0
N267 N 0.33736 0.1017 0.16377 0.0
C268 C 0.33089 0.08048 0.15536 0.0
H269 H 0.35689 0.11039 0.19492 0.0
Co270 Co 0.33185 0.13156 0.1526 0.0
C271 C 0.32076 0.1276 0.10268 0.0
O272 O 0.33427 0.14597 0.09921 0.0
N273 N 0.32554 0.16251 0.14187 0.0
C274 C 0.32552 0.19995 0.13035 0.0
C275 C 0.33887 0.1821 0.13969 0.0
C276 C 0.30406 0.16929 0.13424 0.0
N277 N 0.30364 0.19177 0.12694 0.0
O278 O 0.30195 0.13093 0.16712 0.0
H279 H 0.35713 0.18375 0.14429 0.0
H280 H 0.28911 0.15759 0.13324 0.0
O281 O 0.31847 0.11891 0.12326 0.0
C282 C 0.3016 0.14304 0.18588 0.0
O283 O 0.32071 0.15431 0.19227 0.0
N284 N 0.36239 0.13176 0.14045 0.0
C285 C 0.41004 0.13084 0.12988 0.0
C286 C 0.3944 0.1161 0.11794 0.0
C287 C 0.37058 0.11658 0.12373 0.0
C288 C 0.37775 0.14467 0.15347 0.0
C289 C 0.40156 0.14511 0.14799 0.0
H290 H 0.35902 0.10411 0.11538 0.0
H291 H 0.37143 0.15454 0.16841 0.0
H292 H 0.3207 0.07801 0.13954 0.0
H293 H 0.35855 0.06425 0.20146 0.0
H294 H 0.33142 0.21763 0.12657 0.0
H295 H 0.40055 0.10423 0.10441 0.0
H296 H 0.41335 0.15596 0.15825 0.0
C297 C 0.91286 0.35255 0.19217 0.0
C298 C 0.93684 0.35116 0.19088 0.0
N299 N 0.94245 0.33589 0.17372 0.0
N300 N 0.90333 0.33825 0.17589 0.0
C301 C 0.92181 0.32834 0.16479 0.0
H302 H 0.90295 0.36286 0.20465 0.0
Co303 Co 0.87134 0.3331 0.17358 0.0
C304 C 0.86103 0.32271 0.1236 0.0
O305 O 0.84101 0.334 0.12563 0.0
N306 N 0.83884 0.32744 0.17234 0.0
C307 C 0.79981 0.32858 0.17367 0.0
C308 C 0.82013 0.3409 0.17803 0.0
C309 C 0.82933 0.30678 0.16545 0.0
N310 N 0.80571 0.30714 0.16566 0.0
O311 O 0.87518 0.30204 0.18544 0.0
H312 H 0.82078 0.35858 0.18476 0.0
H313 H 0.83961 0.29213 0.15906 0.0
O314 O 0.87518 0.32157 0.14106 0.0
C315 C 0.87707 0.30085 0.20766 0.0
O316 O 0.87945 0.32038 0.21971 0.0
N317 N 0.86766 0.36438 0.16377 0.0
C318 C 0.86331 0.41249 0.15605 0.0
C319 C 0.87112 0.39762 0.13809 0.0
C320 C 0.87384 0.37363 0.14251 0.0
C321 C 0.8612 0.37885 0.1817 0.0
C322 C 0.85867 0.40293 0.17819 0.0
H323 H 0.88161 0.3629 0.12902 0.0
H324 H 0.85803 0.37153 0.19893 0.0
H325 H 0.92022 0.3152 0.15114 0.0
H326 H 0.94924 0.36049 0.20188 0.0
H327 H 0.78207 0.33497 0.17606 0.0
H328 H 0.87585 0.40461 0.12105 0.0
H329 H 0.85306 0.41396 0.19264 0.0
C330 C 0.65209 0.91286 0.17998 0.0
C331 C 0.65083 0.93664 0.17569 0.0
N332 N 0.66618 0.94183 0.15847 0.0
N333 N 0.66822 0.90325 0.16558 0.0
C334 C 0.6765 0.92134 0.1527 0.0
H335 H 0.64211 0.9032 0.19292 0.0
Co336 Co 0.67791 0.87216 0.16528 0.0
C337 C 0.68709 0.86117 0.1156 0.0
O338 O 0.67748 0.84043 0.11887 0.0
N339 N 0.68885 0.84081 0.16557 0.0
C340 C 0.69761 0.80309 0.17188 0.0
C341 C 0.68127 0.82062 0.17562 0.0
C342 C 0.71009 0.8351 0.15661 0.0
N343 N 0.71555 0.81236 0.15971 0.0
O344 O 0.70774 0.88121 0.17707 0.0
H345 H 0.66525 0.81844 0.1854 0.0
H346 H 0.72154 0.84751 0.14788 0.0
O347 O 0.68843 0.87581 0.1326 0.0
C348 C 0.70646 0.88271 0.19931 0.0
O349 O 0.68561 0.88168 0.20914 0.0
N350 N 0.64754 0.86345 0.15575 0.0
C351 C 0.59937 0.8562 0.14918 0.0
C352 C 0.61285 0.8679 0.13216 0.0
C353 C 0.63681 0.87159 0.13589 0.0
C354 C 0.63457 0.85294 0.17284 0.0
C355 C 0.61073 0.84841 0.16963 0.0
H356 H 0.64625 0.88235 0.12347 0.0
H357 H 0.64244 0.84923 0.18968 0.0
H358 H 0.69033 0.9197 0.13979 0.0
H359 H 0.63946 0.94911 0.18443 0.0
H360 H 0.69624 0.78491 0.17731 0.0
H361 H 0.60483 0.87532 0.11661 0.0
H362 H 0.60126 0.83951 0.18348 0.0
C363 C 0.10003 0.6366 0.19029 0.0
C364 C 0.07642 0.6324 0.18798 0.0
N365 N 0.06776 0.6472 0.17164 0.0
N366 N 0.10627 0.65391 0.17546 0.0
C367 C 0.08623 0.66023 0.16448 0.0
H368 H 0.11202 0.62747 0.20185 0.0
Co369 Co 0.13674 0.66469 0.17208 0.0
C370 C 0.14127 0.67425 0.12164 0.0
O371 O 0.16176 0.66364 0.12214 0.0
N372 N 0.16758 0.67646 0.17012 0.0
C373 C 0.20289 0.68873 0.18195 0.0
C374 C 0.18512 0.67276 0.18571 0.0
C375 C 0.17471 0.69568 0.15804 0.0
N376 N 0.19625 0.70296 0.16436 0.0
O377 O 0.12824 0.69384 0.18578 0.0
H378 H 0.1843 0.66081 0.20039 0.0
H379 H 0.16365 0.70556 0.14621 0.0
O380 O 0.12921 0.6764 0.14046 0.0
C381 C 0.12838 0.69245 0.20806 0.0
O382 O 0.1316 0.67176 0.21778 0.0
N383 N 0.14513 0.63478 0.15986 0.0
C384 C 0.15051 0.58718 0.14917 0.0
C385 C 0.13471 0.60107 0.13654 0.0
C386 C 0.13217 0.62475 0.14223 0.0
C387 C 0.16058 0.62133 0.17229 0.0
C388 C 0.16395 0.59762 0.16689 0.0
H389 H 0.11855 0.63455 0.13341 0.0
H390 H 0.16912 0.62825 0.1876 0.0
H391 H 0.08532 0.6737 0.15112 0.0
H392 H 0.06642 0.61952 0.19773 0.0
H393 H 0.21896 0.6904 0.19197 0.0
H394 H 0.12371 0.59348 0.123 0.0
H395 H 0.17577 0.58718 0.17754 0.0
C396 C 0.35025 0.90604 0.82062 0.0
C397 C 0.35004 0.9301 0.81936 0.0
N398 N 0.33384 0.93818 0.83456 0.0
N399 N 0.33429 0.89894 0.83656 0.0
C400 C 0.32456 0.91894 0.84487 0.0
H401 H 0.36085 0.89439 0.81003 0.0
Co402 Co 0.32657 0.86774 0.84178 0.0
C403 C 0.31442 0.86331 0.89191 0.0
O404 O 0.32438 0.8425 0.89194 0.0
N405 N 0.31818 0.83588 0.84613 0.0
C406 C 0.31701 0.79706 0.85085 0.0
C407 C 0.33077 0.81581 0.84433 0.0
C408 C 0.29655 0.82859 0.85284 0.0
N409 N 0.29555 0.8052 0.85635 0.0
O410 O 0.29667 0.87289 0.82778 0.0
H411 H 0.34893 0.81448 0.83927 0.0
H412 H 0.28221 0.84047 0.85667 0.0
O413 O 0.31439 0.87579 0.87321 0.0
C414 C 0.29906 0.8708 0.80566 0.0
O415 O 0.32017 0.8668 0.79725 0.0
N416 N 0.35711 0.86291 0.85323 0.0
C417 C 0.40535 0.86027 0.86131 0.0
C418 C 0.39042 0.87059 0.87794 0.0
C419 C 0.36638 0.87224 0.87332 0.0
C420 C 0.37152 0.85346 0.83666 0.0
C421 C 0.3956 0.85159 0.84047 0.0
H422 H 0.3557 0.88219 0.88533 0.0
H423 H 0.36427 0.84788 0.82001 0.0
H424 H 0.31027 0.91938 0.85737 0.0
H425 H 0.36075 0.94085 0.80791 0.0
H426 H 0.32252 0.77889 0.8519 0.0
H427 H 0.3974 0.87835 0.89384 0.0
H428 H 0.40651 0.84374 0.82702 0.0
C429 C 0.08424 0.35079 0.80613 0.0
C430 C 0.06018 0.34942 0.80675 0.0
N431 N 0.05404 0.33438 0.82394 0.0
N432 N 0.09325 0.33663 0.8228 0.0
C433 C 0.07441 0.32689 0.83348 0.0
H434 H 0.09459 0.36124 0.79413 0.0
Co435 Co 0.12513 0.33198 0.82748 0.0
C436 C 0.13164 0.32399 0.87803 0.0
O437 O 0.15107 0.33638 0.87707 0.0
N438 N 0.15771 0.32655 0.83158 0.0
C439 C 0.19676 0.3274 0.83427 0.0
C440 C 0.17706 0.33984 0.82783 0.0
C441 C 0.16638 0.30589 0.83962 0.0
N442 N 0.18992 0.30605 0.84171 0.0
O443 O 0.12255 0.30076 0.81595 0.0
H444 H 0.17737 0.3575 0.82106 0.0
H445 H 0.15545 0.29126 0.84491 0.0
O446 O 0.11904 0.32115 0.85966 0.0
C447 C 0.12094 0.29894 0.79377 0.0
O448 O 0.11816 0.31801 0.78109 0.0
N449 N 0.12752 0.36346 0.837 0.0
C450 C 0.12949 0.41169 0.84472 0.0
C451 C 0.11784 0.39701 0.86063 0.0
C452 C 0.11679 0.37287 0.85629 0.0
C453 C 0.13714 0.37783 0.82048 0.0
C454 C 0.13904 0.40193 0.82432 0.0
H455 H 0.10664 0.36205 0.86805 0.0
H456 H 0.14325 0.37048 0.80407 0.0
H457 H 0.07558 0.31415 0.84753 0.0
H458 H 0.04812 0.35886 0.79549 0.0
H459 H 0.21471 0.33358 0.8335 0.0
H460 H 0.10954 0.40415 0.87618 0.0
H461 H 0.14729 0.41293 0.81118 0.0
C462 C 0.64523 0.08619 0.80879 0.0
C463 C 0.6478 0.06231 0.80675 0.0
N464 N 0.66613 0.05572 0.82006 0.0
N465 N 0.66157 0.09476 0.82375 0.0
C466 C 0.67451 0.07569 0.82968 0.0
H467 H 0.63254 0.09644 0.79923 0.0
Co468 Co 0.66757 0.12658 0.83103 0.0
C469 C 0.67603 0.10362 0.87793 0.0
O470 O 0.65927 0.088 0.87502 0.0
N471 N 0.67422 0.15795 0.83771 0.0
C472 C 0.67285 0.19662 0.84285 0.0
C473 C 0.66086 0.17726 0.8346 0.0
C474 C 0.69436 0.16603 0.84733 0.0
N475 N 0.69394 0.18947 0.85084 0.0
O476 O 0.69749 0.12354 0.81691 0.0
H477 H 0.64348 0.17734 0.82698 0.0
H478 H 0.70894 0.15481 0.8521 0.0
O479 O 0.68034 0.11853 0.86174 0.0
C480 C 0.69477 0.12645 0.79493 0.0
O481 O 0.67347 0.13022 0.78688 0.0
N482 N 0.63702 0.13048 0.84289 0.0
C483 C 0.58926 0.13407 0.85258 0.0
C484 C 0.60571 0.13385 0.87092 0.0
C485 C 0.6297 0.13243 0.86567 0.0
C486 C 0.62137 0.13339 0.82507 0.0
C487 C 0.59741 0.13467 0.82944 0.0
H488 H 0.6421 0.13316 0.87992 0.0
H489 H 0.62762 0.13457 0.8072 0.0
H490 H 0.69004 0.07641 0.8406 0.0
H491 H 0.63683 0.05065 0.79648 0.0
H492 H 0.66661 0.21459 0.84279 0.0
H493 H 0.60011 0.13433 0.88908 0.0
H494 H 0.58536 0.13613 0.81479 0.0
C495 C 0.90296 0.64756 0.80655 0.0
C496 C 0.92706 0.64814 0.80713 0.0
N497 N 0.93372 0.66257 0.82466 0.0
N498 N 0.89449 0.66156 0.82362 0.0
C499 C 0.91365 0.67048 0.83442 0.0
H500 H 0.89225 0.63775 0.79431 0.0
Co501 Co 0.8629 0.66726 0.82844 0.0
C502 C 0.85769 0.68101 0.87847 0.0
O503 O 0.83716 0.67053 0.87913 0.0
N504 N 0.83068 0.67354 0.83253 0.0
C505 C 0.79195 0.67242 0.8376 0.0
C506 C 0.81148 0.6596 0.8314 0.0
C507 C 0.82212 0.6949 0.8385 0.0
N508 N 0.79878 0.69459 0.84222 0.0
O509 O 0.86616 0.69731 0.81384 0.0
H510 H 0.81139 0.64115 0.82712 0.0
H511 H 0.83314 0.71004 0.84183 0.0
O512 O 0.86994 0.68066 0.85964 0.0
C513 C 0.86306 0.69507 0.79181 0.0
O514 O 0.85963 0.67385 0.78334 0.0
N515 N 0.85997 0.63664 0.84049 0.0
C516 C 0.85912 0.58852 0.84996 0.0
C517 C 0.86767 0.60446 0.86668 0.0
C518 C 0.86851 0.62845 0.86137 0.0
C519 C 0.85223 0.62126 0.82386 0.0
C520 C 0.8514 0.59718 0.82829 0.0
H521 H 0.87705 0.63998 0.87368 0.0
H522 H 0.84697 0.6278 0.80682 0.0
H523 H 0.91298 0.68302 0.84867 0.0
H524 H 0.93878 0.63863 0.79559 0.0
H525 H 0.77421 0.66579 0.83915 0.0
H526 H 0.87461 0.59834 0.88329 0.0
H527 H 0.84491 0.58544 0.81479 0.0
C528 C 0.14396 0.36222 0.06736 0.0
C529 C 0.1337 0.36095 0.04559 0.0
N530 N 0.12447 0.33935 0.04301 0.0
N531 N 0.14089 0.3416 0.0787 0.0
C532 C 0.12904 0.32797 0.06327 0.0
H533 H 0.15387 0.377 0.07396 0.0
Co534 Co 0.15265 0.33266 0.10807 0.0
C535 C 0.11112 0.32699 0.13802 0.0
O536 O 0.12295 0.33734 0.15494 0.0
N537 N 0.16473 0.3226 0.13741 0.0
C538 C 0.18158 0.31781 0.17238 0.0
C539 C 0.18008 0.33203 0.15291 0.0
C540 C 0.1582 0.30206 0.14754 0.0
N541 N 0.16762 0.29904 0.16901 0.0
O542 O 0.15838 0.30168 0.09686 0.0
H543 H 0.18935 0.3484 0.15092 0.0
H544 H 0.14533 0.29029 0.13996 0.0
O545 O 0.12063 0.32409 0.11787 0.0
C546 C 0.17723 0.30047 0.08495 0.0
O547 O 0.18714 0.32019 0.07814 0.0
N548 N 0.14909 0.36389 0.11853 0.0
C549 C 0.14947 0.41225 0.12735 0.0
C550 C 0.12819 0.40004 0.12458 0.0
C551 C 0.12837 0.37594 0.11987 0.0
C552 C 0.16984 0.37569 0.11996 0.0
C553 C 0.17049 0.39962 0.12508 0.0
H554 H 0.11191 0.36742 0.11593 0.0
H555 H 0.18607 0.36658 0.11624 0.0
H556 H 0.1247 0.30972 0.06642 0.0
H557 H 0.13449 0.37426 0.03203 0.0
H558 H 0.19163 0.32139 0.18812 0.0
H559 H 0.11151 0.40915 0.12497 0.0
H560 H 0.1874 0.40811 0.12679 0.0
C561 C 0.13941 0.63593 0.93134 0.0
C562 C 0.13084 0.63723 0.9538 0.0
N563 N 0.12168 0.65878 0.95697 0.0
N564 N 0.13526 0.65644 0.92014 0.0
C565 C 0.1246 0.67009 0.93637 0.0
H566 H 0.14903 0.62126 0.92409 0.0
Co567 Co 0.14527 0.66512 0.8901 0.0
C568 C 0.10257 0.66977 0.86192 0.0
O569 O 0.11401 0.65855 0.8453 0.0
N570 N 0.15586 0.67507 0.86018 0.0
C571 C 0.17239 0.68211 0.82534 0.0
C572 C 0.17192 0.66725 0.8445 0.0
C573 C 0.14783 0.69523 0.85051 0.0
N574 N 0.15693 0.6995 0.8292 0.0
O575 O 0.15192 0.69618 0.90075 0.0
H576 H 0.18264 0.65177 0.84632 0.0
H577 H 0.13479 0.70638 0.85869 0.0
O578 O 0.11263 0.6738 0.88168 0.0
C579 C 0.17184 0.69747 0.91078 0.0
O580 O 0.18212 0.67779 0.91714 0.0
N581 N 0.14056 0.63384 0.87997 0.0
C582 C 0.13801 0.58571 0.87033 0.0
C583 C 0.11781 0.59846 0.8764 0.0
C584 C 0.1195 0.62238 0.88145 0.0
C585 C 0.16051 0.62146 0.8755 0.0
C586 C 0.1596 0.59762 0.8699 0.0
H587 H 0.10403 0.6313 0.8878 0.0
H588 H 0.1774 0.62986 0.87741 0.0
H589 H 0.12007 0.68835 0.93352 0.0
H590 H 0.13284 0.62403 0.96735 0.0
H591 H 0.18251 0.67977 0.80943 0.0
H592 H 0.10094 0.5899 0.87828 0.0
H593 H 0.1758 0.58862 0.86576 0.0
C594 C 0.3577 0.15193 0.9214 0.0
C595 C 0.35578 0.14143 0.94298 0.0
N596 N 0.33584 0.12878 0.94326 0.0
N597 N 0.33923 0.14557 0.90796 0.0
C598 C 0.32594 0.13176 0.92196 0.0
H599 H 0.37163 0.16361 0.91597 0.0
Co600 Co 0.334 0.15419 0.87691 0.0
C601 C 0.32783 0.10988 0.85117 0.0
O602 O 0.34053 0.11895 0.83419 0.0
N603 N 0.32783 0.16323 0.84552 0.0
C604 C 0.32844 0.17414 0.80797 0.0
C605 C 0.34053 0.17452 0.82891 0.0
C606 C 0.30768 0.15731 0.83436 0.0
N607 N 0.30785 0.16309 0.81145 0.0
O608 O 0.30272 0.16329 0.88433 0.0
H609 H 0.35783 0.18181 0.83116 0.0
H610 H 0.29391 0.14703 0.84248 0.0
O611 O 0.32389 0.12183 0.86981 0.0
C612 C 0.30238 0.18395 0.89289 0.0
O613 O 0.32247 0.19362 0.89889 0.0
N614 N 0.36565 0.14725 0.87038 0.0
C615 C 0.41442 0.14297 0.86841 0.0
C616 C 0.40019 0.12306 0.87128 0.0
C617 C 0.37586 0.12563 0.8728 0.0
C618 C 0.37933 0.1668 0.86843 0.0
C619 C 0.40369 0.16506 0.86699 0.0
H620 H 0.36554 0.11038 0.87727 0.0
H621 H 0.37128 0.184 0.86898 0.0
H622 H 0.30936 0.1241 0.91668 0.0
H623 H 0.36764 0.1436 0.95768 0.0
H624 H 0.33474 0.18067 0.79128 0.0
H625 H 0.40786 0.10578 0.87346 0.0
H626 H 0.41403 0.18094 0.86518 0.0
C627 C 0.85496 0.36054 0.93234 0.0
C628 C 0.86405 0.35749 0.95439 0.0
N629 N 0.8695 0.33469 0.95704 0.0
N630 N 0.85504 0.33981 0.92071 0.0
C631 C 0.86378 0.32428 0.93649 0.0
H632 H 0.84801 0.3769 0.92576 0.0
Co633 Co 0.84362 0.33392 0.89016 0.0
C634 C 0.88542 0.32696 0.86055 0.0
O635 O 0.87464 0.33898 0.84405 0.0
N636 N 0.83161 0.32712 0.8599 0.0
C637 C 0.81443 0.32652 0.82479 0.0
C638 C 0.81688 0.33885 0.84544 0.0
C639 C 0.83675 0.30717 0.84798 0.0
N640 N 0.8272 0.30668 0.82634 0.0
O641 O 0.83523 0.30254 0.89864 0.0
H642 H 0.80855 0.35543 0.84911 0.0
H643 H 0.84868 0.29392 0.85455 0.0
O644 O 0.87537 0.32371 0.88042 0.0
C645 C 0.81463 0.30177 0.90725 0.0
O646 O 0.80481 0.32166 0.91366 0.0
N647 N 0.84982 0.36561 0.88203 0.0
C648 C 0.85349 0.41409 0.87525 0.0
C649 C 0.87366 0.40005 0.87651 0.0
C650 C 0.87149 0.37592 0.88055 0.0
C651 C 0.83014 0.37924 0.88184 0.0
C652 C 0.83152 0.40343 0.87817 0.0
H653 H 0.88728 0.36596 0.88362 0.0
H654 H 0.81325 0.37132 0.88539 0.0
H655 H 0.86535 0.3056 0.93326 0.0
H656 H 0.86517 0.37074 0.968 0.0
H657 H 0.80441 0.33206 0.80963 0.0
H658 H 0.89099 0.4078 0.87539 0.0
H659 H 0.81553 0.41372 0.87783 0.0
C660 C 0.63533 0.85823 0.92756 0.0
C661 C 0.63906 0.868 0.94924 0.0
N662 N 0.66179 0.87411 0.95078 0.0
N663 N 0.65556 0.85851 0.91515 0.0
C664 C 0.67144 0.86818 0.92997 0.0
H665 H 0.61898 0.85055 0.92183 0.0
Co666 Co 0.66112 0.84604 0.88509 0.0
C667 C 0.66729 0.88682 0.85399 0.0
O668 O 0.65492 0.87554 0.83809 0.0
N669 N 0.66767 0.83317 0.85516 0.0
C670 C 0.6681 0.81702 0.81953 0.0
C671 C 0.65551 0.81945 0.84004 0.0
C672 C 0.68798 0.8378 0.84372 0.0
N673 N 0.68848 0.82875 0.82192 0.0
O674 O 0.69254 0.83847 0.89352 0.0
H675 H 0.63827 0.81224 0.84297 0.0
H676 H 0.70139 0.84941 0.85057 0.0
O677 O 0.67086 0.87742 0.87412 0.0
C678 C 0.69375 0.81856 0.9036 0.0
O679 O 0.67423 0.80921 0.91159 0.0
N680 N 0.62946 0.85142 0.8773 0.0
C681 C 0.58063 0.85359 0.87412 0.0
C682 C 0.59414 0.87419 0.87363 0.0
C683 C 0.61855 0.87278 0.87576 0.0
C684 C 0.61648 0.83132 0.87821 0.0
C685 C 0.59212 0.83194 0.87629 0.0
H686 H 0.6283 0.88891 0.87768 0.0
H687 H 0.62512 0.81471 0.88146 0.0
H688 H 0.68992 0.87005 0.92597 0.0
H689 H 0.62645 0.86894 0.96342 0.0
H690 H 0.66228 0.80813 0.80377 0.0
H691 H 0.58585 0.8913 0.87288 0.0
H692 H 0.58235 0.81563 0.87702 0.0
C693 C 0.85125 0.64274 0.06547 0.0
C694 C 0.8593 0.64466 0.04288 0.0
N695 N 0.87337 0.66358 0.04166 0.0
N696 N 0.86067 0.66006 0.07869 0.0
C697 C 0.87377 0.6728 0.0635 0.0
H698 H 0.83859 0.63 0.07164 0.0
Co699 Co 0.85332 0.66614 0.11015 0.0
C700 C 0.8972 0.65734 0.13535 0.0
O701 O 0.88441 0.64553 0.15053 0.0
N702 N 0.845 0.67366 0.14134 0.0
C703 C 0.82328 0.68662 0.17132 0.0
C704 C 0.82313 0.67407 0.15058 0.0
C705 C 0.85772 0.68709 0.15632 0.0
N706 N 0.84521 0.69455 0.17488 0.0
O707 O 0.85228 0.699 0.10426 0.0
H708 H 0.80754 0.66772 0.14184 0.0
H709 H 0.87524 0.6934 0.1527 0.0
O710 O 0.8872 0.6677 0.118 0.0
C711 C 0.83382 0.70629 0.09403 0.0
O712 O 0.82066 0.69099 0.0828 0.0
N713 N 0.85292 0.63314 0.11604 0.0
C714 C 0.85156 0.58487 0.12433 0.0
C715 C 0.87148 0.59525 0.11448 0.0
C716 C 0.87157 0.61926 0.10987 0.0
C717 C 0.83279 0.62296 0.12414 0.0
C718 C 0.83178 0.59882 0.1286 0.0
H719 H 0.88677 0.62672 0.10131 0.0
H720 H 0.81723 0.63332 0.12671 0.0
H721 H 0.88255 0.68904 0.06809 0.0
H722 H 0.85392 0.63399 0.02808 0.0
H723 H 0.80827 0.69055 0.18229 0.0
H724 H 0.88677 0.58482 0.11008 0.0
H725 H 0.8158 0.59119 0.13555 0.0
C726 C 0.36663 0.84784 0.07608 0.0
C727 C 0.36361 0.85704 0.05401 0.0
N728 N 0.34313 0.86876 0.05363 0.0
N729 N 0.34831 0.85411 0.08974 0.0
C730 C 0.3341 0.86663 0.07542 0.0
H731 H 0.38103 0.83675 0.08155 0.0
Co732 Co 0.34323 0.84566 0.12102 0.0
C733 C 0.34277 0.88978 0.14745 0.0
O734 O 0.35552 0.87916 0.16349 0.0
N735 N 0.337 0.83687 0.15257 0.0
C736 C 0.33577 0.82362 0.18942 0.0
C737 C 0.34798 0.82309 0.16854 0.0
C738 C 0.31775 0.84473 0.16411 0.0
N739 N 0.31676 0.83732 0.18652 0.0
O740 O 0.31084 0.84008 0.11464 0.0
H741 H 0.36394 0.81335 0.1658 0.0
H742 H 0.30524 0.85684 0.15651 0.0
O743 O 0.33664 0.8787 0.12885 0.0
C744 C 0.30595 0.82112 0.10384 0.0
O745 O 0.32306 0.80944 0.09368 0.0
N746 N 0.37566 0.84944 0.12679 0.0
C747 C 0.42442 0.85009 0.13056 0.0
C748 C 0.41207 0.87076 0.1256 0.0
C749 C 0.38765 0.87003 0.12352 0.0
C750 C 0.38769 0.82897 0.12988 0.0
C751 C 0.41203 0.82897 0.1326 0.0
H752 H 0.37861 0.88584 0.11825 0.0
H753 H 0.37839 0.81242 0.12945 0.0
H754 H 0.31719 0.87354 0.08068 0.0
H755 H 0.37492 0.8542 0.03901 0.0
H756 H 0.34064 0.81478 0.20552 0.0
H757 H 0.42122 0.88727 0.12314 0.0
H758 H 0.42116 0.8125 0.13539 0.0
C759 C 0.648 0.17084 0.06545 0.0
C760 C 0.6537 0.16989 0.04205 0.0
N761 N 0.6718 0.15499 0.03954 0.0
N762 N 0.66218 0.15624 0.0777 0.0
C763 C 0.67698 0.14744 0.06134 0.0
H764 H 0.63464 0.18203 0.0728 0.0
Co765 Co 0.664 0.15234 0.11051 0.0
C766 C 0.67113 0.10269 0.09384 0.0
O767 O 0.65641 0.1051 0.07623 0.0
N768 N 0.66665 0.14892 0.14285 0.0
C769 C 0.6617 0.14866 0.18152 0.0
C770 C 0.65169 0.15463 0.16029 0.0
C771 C 0.68564 0.13993 0.15384 0.0
N772 N 0.6831 0.13951 0.17733 0.0
O773 O 0.69504 0.16455 0.10975 0.0
H774 H 0.63468 0.16266 0.15783 0.0
H775 H 0.70102 0.13356 0.14469 0.0
O776 O 0.67535 0.12012 0.10736 0.0
C777 C 0.69296 0.18682 0.10973 0.0
O778 O 0.67174 0.19585 0.10886 0.0
N779 N 0.63248 0.1427 0.11199 0.0
C780 C 0.58394 0.13639 0.11265 0.0
C781 C 0.5991 0.11716 0.11562 0.0
C782 C 0.62341 0.12078 0.11579 0.0
C783 C 0.61796 0.16166 0.11135 0.0
C784 C 0.59372 0.15894 0.11129 0.0
H785 H 0.63461 0.106 0.11943 0.0
H786 H 0.62534 0.17916 0.11106 0.0
H787 H 0.69145 0.13576 0.06528 0.0
H788 H 0.64488 0.17902 0.02791 0.0
H789 H 0.654 0.15121 0.1987 0.0
H790 H 0.59231 0.09951 0.11765 0.0
H791 H 0.58277 0.17447 0.11046 0.0
H792 H 0.16462 0.16221 0.55044 0.0
H793 H 0.11594 0.10513 0.43226 0.0
H794 H 0.12862 0.09552 0.54911 0.0
H795 H 0.12856 0.17957 0.44031 0.0
H796 H 0.1238 0.09986 0.47414 0.0
H797 H 0.15566 0.16734 0.50869 0.0
C798 C 0.15491 0.14863 0.54129 0.0
C799 C 0.14725 0.12848 0.55317 0.0
C800 C 0.12478 0.11733 0.46667 0.0
C801 C 0.13699 0.13415 0.50559 0.0
C802 C 0.12016 0.12039 0.4428 0.0
C803 C 0.12174 0.14282 0.43261 0.0
C804 C 0.13124 0.13678 0.48041 0.0
C805 C 0.12765 0.16187 0.44718 0.0
C806 C 0.14968 0.15161 0.51756 0.0
C807 C 0.1346 0.11144 0.5406 0.0
N808 N 0.13232 0.15839 0.47027 0.0
N809 N 0.12995 0.1146 0.51743 0.0
H810 H 0.80879 0.11783 0.45498 0.0
H811 H 0.90941 0.15343 0.54674 0.0
H812 H 0.87964 0.13601 0.4352 0.0
H813 H 0.8394 0.13291 0.56722 0.0
H814 H 0.89858 0.14755 0.50566 0.0
H815 H 0.81923 0.12422 0.49619 0.0
C816 C 0.82647 0.12335 0.4593 0.0
C817 C 0.8434 0.12628 0.44166 0.0
C818 C 0.8856 0.14424 0.51914 0.0
C819 C 0.85554 0.13337 0.4887 0.0
C820 C 0.89177 0.14765 0.54258 0.0
C821 C 0.87531 0.1436 0.56044 0.0
C822 C 0.86276 0.13683 0.51346 0.0
C823 C 0.85276 0.13591 0.55406 0.0
C824 C 0.83248 0.12683 0.48282 0.0
C825 C 0.86613 0.1332 0.44827 0.0
N826 N 0.84712 0.13284 0.53109 0.0
N827 N 0.87153 0.13648 0.47123 0.0
H828 H 0.89318 0.83013 0.45647 0.0
H829 H 0.8134 0.90425 0.54416 0.0
H830 H 0.84766 0.88575 0.43252 0.0
H831 H 0.87751 0.87032 0.56595 0.0
H832 H 0.82269 0.89446 0.50324 0.0
H833 H 0.8845 0.84118 0.49714 0.0
C834 C 0.88128 0.8446 0.45982 0.0
C835 C 0.87111 0.85707 0.44119 0.0
C836 C 0.83477 0.8893 0.517 0.0
C837 C 0.86107 0.86972 0.4875 0.0
C838 C 0.82944 0.8948 0.54029 0.0
C839 C 0.84476 0.88813 0.55838 0.0
C840 C 0.85531 0.87666 0.51187 0.0
C841 C 0.86537 0.87599 0.55246 0.0
C842 C 0.87647 0.85099 0.48297 0.0
C843 C 0.85598 0.87582 0.44643 0.0
N844 N 0.86995 0.87046 0.52973 0.0
N845 N 0.85128 0.88149 0.46912 0.0
H846 H 0.12503 0.89144 0.56518 0.0
H847 H 0.1525 0.83857 0.44035 0.0
H848 H 0.10986 0.81882 0.54862 0.0
H849 H 0.12839 0.90996 0.44796 0.0
H850 H 0.14247 0.83118 0.48158 0.0
H851 H 0.13125 0.89905 0.5235 0.0
C852 C 0.12275 0.8771 0.5529 0.0
C853 C 0.11695 0.85436 0.56069 0.0
C854 C 0.13927 0.84842 0.47417 0.0
C855 C 0.12485 0.86298 0.51297 0.0
C856 C 0.14507 0.85264 0.45078 0.0
C857 C 0.14121 0.87486 0.44094 0.0
C858 C 0.13008 0.86672 0.48787 0.0
C859 C 0.13149 0.89257 0.45502 0.0
C860 C 0.12645 0.8815 0.5291 0.0
C861 C 0.11485 0.83649 0.54374 0.0
N862 N 0.12648 0.8882 0.47794 0.0
N863 N 0.11903 0.84114 0.52074 0.0
H864 H 0.437 0.16866 0.11919 0.0
H865 H 0.55293 0.15997 0.08466 0.0
H866 H 0.44019 0.09349 0.12815 0.0
H867 H 0.5559 0.10594 0.13783 0.0
H868 H 0.51018 0.15821 0.08587 0.0
H869 H 0.47932 0.16922 0.11192 0.0
C870 C 0.44667 0.15227 0.11937 0.0
C871 C 0.43525 0.131 0.12411 0.0
C872 C 0.52022 0.14684 0.09733 0.0
C873 C 0.48342 0.13142 0.11574 0.0
C874 C 0.54461 0.14779 0.09668 0.0
C875 C 0.55807 0.13348 0.1116 0.0
C876 C 0.50913 0.13136 0.11292 0.0
C877 C 0.54627 0.11737 0.1261 0.0
C878 C 0.4707 0.15255 0.11503 0.0
C879 C 0.44845 0.11019 0.1243 0.0
N880 N 0.5224 0.11681 0.12648 0.0
N881 N 0.47201 0.11094 0.12048 0.0
H882 H 0.81979 0.55136 0.11089 0.0
H883 H 0.88124 0.44806 0.18261 0.0
H884 H 0.88367 0.56112 0.15037 0.0
H885 H 0.83995 0.43474 0.12054 0.0
H886 H 0.8772 0.49036 0.17576 0.0
H887 H 0.82177 0.50896 0.11907 0.0
C888 C 0.83408 0.54454 0.12143 0.0
C889 C 0.85165 0.55956 0.12994 0.0
C890 C 0.86902 0.47816 0.16366 0.0
C891 C 0.85392 0.51155 0.13941 0.0
C892 C 0.87123 0.45411 0.16761 0.0
C893 C 0.86093 0.43802 0.15206 0.0
C894 C 0.85612 0.48615 0.14425 0.0
C895 C 0.84828 0.44667 0.13279 0.0
C896 C 0.83528 0.52045 0.12595 0.0
C897 C 0.86991 0.54999 0.14338 0.0
N898 N 0.8461 0.47022 0.12946 0.0
N899 N 0.87053 0.52657 0.1478 0.0
H900 H 0.56544 0.857 0.18369 0.0
H901 H 0.45635 0.86669 0.09895 0.0
H902 H 0.5736 0.85044 0.1085 0.0
H903 H 0.45088 0.83397 0.16698 0.0
H904 H 0.49931 0.86688 0.10301 0.0
H905 H 0.52313 0.854 0.17883 0.0
C906 C 0.55853 0.8546 0.16616 0.0
C907 C 0.57342 0.8538 0.14648 0.0
C908 C 0.48866 0.85961 0.11698 0.0
C909 C 0.52465 0.85133 0.1409 0.0
C910 C 0.46426 0.85964 0.11475 0.0
C911 C 0.45024 0.85035 0.13271 0.0
C912 C 0.49896 0.85072 0.13752 0.0
C913 C 0.4612 0.84122 0.15276 0.0
C914 C 0.53426 0.85309 0.16345 0.0
C915 C 0.56299 0.85151 0.1242 0.0
N916 N 0.48496 0.84185 0.15476 0.0
N917 N 0.53923 0.85056 0.12199 0.0
H918 H 0.11802 0.43918 0.15234 0.0
H919 H 0.18877 0.55911 0.14146 0.0
H920 H 0.18155 0.44475 0.11122 0.0
H921 H 0.11351 0.55699 0.14939 0.0
H922 H 0.18891 0.51617 0.13651 0.0
H923 H 0.11837 0.4818 0.15748 0.0
C924 C 0.132 0.44925 0.14431 0.0
C925 C 0.14977 0.43815 0.13129 0.0
C926 C 0.1724 0.52518 0.13926 0.0
C927 C 0.15052 0.48691 0.1377 0.0
C928 C 0.17233 0.54956 0.14212 0.0
C929 C 0.15108 0.56147 0.1456 0.0
C930 C 0.15114 0.51272 0.14044 0.0
C931 C 0.13021 0.54841 0.14641 0.0
C932 C 0.13222 0.47358 0.14737 0.0
C933 C 0.16771 0.45227 0.1218 0.0
N934 N 0.13076 0.52468 0.14401 0.0
N935 N 0.16767 0.47589 0.12528 0.0
H936 H 0.42927 0.84895 0.90149 0.0
H937 H 0.5499 0.82921 0.90176 0.0
H938 H 0.43997 0.87073 0.82974 0.0
H939 H 0.55228 0.88036 0.84591 0.0
H940 H 0.50716 0.8304 0.90057 0.0
H941 H 0.4718 0.84782 0.90701 0.0
C942 C 0.4406 0.85339 0.88688 0.0
C943 C 0.43109 0.85963 0.86504 0.0
C944 C 0.51694 0.84172 0.88887 0.0
C945 C 0.47977 0.85782 0.87099 0.0
C946 C 0.54138 0.84076 0.88928 0.0
C947 C 0.55465 0.85467 0.87385 0.0
C948 C 0.50563 0.85674 0.87291 0.0
C949 C 0.5427 0.86951 0.85823 0.0
C950 C 0.4649 0.85245 0.88994 0.0
C951 C 0.44656 0.86532 0.84672 0.0
N952 N 0.51885 0.87001 0.85803 0.0
N953 N 0.47013 0.86433 0.85013 0.0
H954 H 0.16889 0.43869 0.84573 0.0
H955 H 0.10208 0.56062 0.84979 0.0
H956 H 0.09362 0.44242 0.85272 0.0
H957 H 0.17082 0.55166 0.88077 0.0
H958 H 0.09974 0.51813 0.84414 0.0
H959 H 0.17116 0.48136 0.85178 0.0
C960 C 0.15288 0.44857 0.84854 0.0
C961 C 0.13106 0.43721 0.84885 0.0
C962 C 0.1153 0.5256 0.85215 0.0
C963 C 0.13345 0.48568 0.85535 0.0
C964 C 0.11666 0.54984 0.8555 0.0
C965 C 0.13668 0.55995 0.86585 0.0
C966 C 0.13425 0.51137 0.85874 0.0
C967 C 0.15521 0.54493 0.8723 0.0
C968 C 0.15418 0.47278 0.85205 0.0
C969 C 0.11077 0.45063 0.85257 0.0
N970 N 0.15359 0.52142 0.86853 0.0
N971 N 0.11242 0.47428 0.85549 0.0
H972 H 0.44695 0.17053 0.8908 0.0
H973 H 0.55653 0.10665 0.83119 0.0
H974 H 0.44088 0.1104 0.84501 0.0
H975 H 0.5639 0.16033 0.88417 0.0
H976 H 0.51406 0.10768 0.83644 0.0
H977 H 0.48971 0.16723 0.88882 0.0
C978 C 0.45463 0.15668 0.88026 0.0
C979 C 0.44035 0.14081 0.86789 0.0
C980 C 0.52491 0.11917 0.84704 0.0
C981 C 0.48922 0.13683 0.86573 0.0
C982 C 0.54914 0.11865 0.84397 0.0
C983 C 0.56369 0.13359 0.85712 0.0
C984 C 0.51505 0.13487 0.86326 0.0
C985 C 0.55328 0.1485 0.87373 0.0
C986 C 0.47902 0.15471 0.87929 0.0
C987 C 0.45122 0.12293 0.8549 0.0
N988 N 0.52953 0.14892 0.87619 0.0
N989 N 0.475 0.12152 0.85405 0.0
H990 H 0.8439 0.56557 0.88937 0.0
H991 H 0.88047 0.43787 0.84341 0.0
H992 H 0.8745 0.55327 0.82122 0.0
H993 H 0.83092 0.44886 0.89958 0.0
H994 H 0.88284 0.48051 0.83781 0.0
H995 H 0.84335 0.52302 0.89623 0.0
C996 C 0.8506 0.5539 0.87592 0.0
C997 C 0.85912 0.5629 0.85465 0.0
C998 C 0.87145 0.47357 0.85135 0.0
C999 C 0.85863 0.51437 0.86237 0.0
C1000 C 0.87019 0.44929 0.85462 0.0
C1001 C 0.85538 0.43986 0.87188 0.0
C1002 C 0.85804 0.48854 0.86566 0.0
C1003 C 0.84231 0.45541 0.88586 0.0
C1004 C 0.85017 0.52966 0.87978 0.0
C1005 C 0.86749 0.54703 0.83774 0.0
N1006 N 0.844 0.47899 0.88249 0.0
N1007 N 0.8671 0.52354 0.84199 0.0
H1008 H 0.14415 0.97152 0.29469 0.0
H1009 H 0.08604 0.09173 0.33839 0.0
H1010 H 0.13571 0.99126 0.3672 0.0
H1011 H 0.11834 0.08439 0.27023 0.0
H1012 H 0.09393 0.05037 0.3461 0.0
H1013 H 0.12529 0.00865 0.28291 0.0
C1014 C 0.138 0.98354 0.30807 0.0
C1015 C 0.14168 0.97859 0.33191 0.0
C1016 C 0.09898 0.05774 0.32932 0.0
C1017 C 0.12001 0.02062 0.31872 0.0
C1018 C 0.09441 0.08137 0.32484 0.0
C1019 C 0.102 0.09176 0.30381 0.0
C1020 C 0.1111 0.04429 0.31262 0.0
C1021 C 0.11242 0.07723 0.2868 0.0
C1022 C 0.12736 0.00467 0.30138 0.0
C1023 C 0.13352 0.99468 0.34864 0.0
N1024 N 0.11696 0.05427 0.2917 0.0
N1025 N 0.12311 0.01498 0.34174 0.0
H1026 H 0.89946 0.11871 0.30251 0.0
H1027 H 0.00733 0.17683 0.3717 0.0
H1028 H 0.89732 0.14569 0.37324 0.0
H1029 H 0.0158 0.14717 0.30255 0.0
H1030 H 0.96688 0.16375 0.37204 0.0
H1031 H 0.94222 0.12637 0.3017 0.0
C1032 C 0.90803 0.1259 0.31788 0.0
C1033 C 0.8949 0.13195 0.33781 0.0
C1034 C 0.97745 0.16001 0.3567 0.0
C1035 C 0.9432 0.14074 0.33706 0.0
C1036 C 0.00058 0.16772 0.35645 0.0
C1037 C 0.01489 0.16338 0.33696 0.0
C1038 C 0.96827 0.14791 0.33723 0.0
C1039 C 0.00531 0.15086 0.31793 0.0
C1040 C 0.9323 0.13037 0.31741 0.0
C1041 C 0.9067 0.14122 0.35731 0.0
N1042 N 0.98247 0.14367 0.31845 0.0
N1043 N 0.93003 0.14542 0.35638 0.0
H1044 H 0.90758 0.90395 0.33262 0.0
H1045 H 0.83332 0.01788 0.29782 0.0
H1046 H 0.83752 0.90137 0.30407 0.0
H1047 H 0.87749 0.01405 0.35894 0.0
H1048 H 0.84546 0.97773 0.28701 0.0
H1049 H 0.90696 0.94704 0.32893 0.0
C1050 C 0.89244 0.91242 0.3248 0.0
C1051 C 0.87245 0.89933 0.31885 0.0
C1052 C 0.85302 0.986 0.30239 0.0
C1053 C 0.87176 0.94807 0.31439 0.0
C1054 C 0.84621 0.00879 0.30843 0.0
C1055 C 0.85452 0.01893 0.32921 0.0
C1056 C 0.86845 0.97363 0.31712 0.0
C1057 C 0.87085 0.00657 0.34278 0.0
C1058 C 0.89205 0.9369 0.32284 0.0
C1059 C 0.85316 0.91101 0.30902 0.0
N1060 N 0.87722 0.98442 0.3366 0.0
N1061 N 0.8532 0.93479 0.30725 0.0
H1062 H 0.98462 0.88035 0.36088 0.0
H1063 H 0.09838 0.83657 0.3057 0.0
H1064 H 0.9814 0.83502 0.30054 0.0
H1065 H 0.09492 0.90743 0.33214 0.0
H1066 H 0.05562 0.83637 0.30147 0.0
H1067 H 0.02458 0.89203 0.34969 0.0
C1068 C 0.99226 0.87338 0.34493 0.0
C1069 C 0.97999 0.85682 0.33153 0.0
C1070 C 0.06423 0.85223 0.30754 0.0
C1071 C 0.0256 0.86935 0.31901 0.0
C1072 C 0.08858 0.85233 0.30994 0.0
C1073 C 0.1 0.87201 0.31931 0.0
C1074 C 0.05123 0.87162 0.31543 0.0
C1075 C 0.08665 0.89196 0.32477 0.0
C1076 C 0.01493 0.88003 0.3385 0.0
C1077 C 0.99045 0.84797 0.31113 0.0
N1078 N 0.06281 0.89104 0.32338 0.0
N1079 N 0.01296 0.8539 0.30576 0.0
H1080 H 0.11377 0.01791 0.6324 0.0
H1081 H 0.15367 0.90801 0.69627 0.0
H1082 H 0.15307 0.02499 0.69653 0.0
H1083 H 0.08512 0.90897 0.6643 0.0
H1084 H 0.15274 0.95094 0.69886 0.0
H1085 H 0.1012 0.97857 0.64475 0.0
C1086 C 0.11921 0.01127 0.64936 0.0
C1087 C 0.13445 0.0244 0.6635 0.0
C1088 C 0.13758 0.94176 0.69194 0.0
C1089 C 0.12085 0.9795 0.67743 0.0
C1090 C 0.13813 0.91733 0.69046 0.0
C1091 C 0.11947 0.90517 0.68004 0.0
C1092 C 0.11864 0.95404 0.68205 0.0
C1093 C 0.09979 0.91786 0.67252 0.0
C1094 C 0.11202 0.98896 0.65646 0.0
C1095 C 0.14123 0.01525 0.68528 0.0
N1096 N 0.10015 0.94176 0.67304 0.0
N1097 N 0.13489 0.99302 0.69136 0.0
H1098 H 0.09213 0.10456 0.67546 0.0
H1099 H 0.99504 0.20546 0.6869 0.0
H1100 H 0.10525 0.17918 0.6727 0.0
H1101 H 0.97743 0.13332 0.67186 0.0
H1102 H 0.03588 0.19398 0.69245 0.0
H1103 H 0.05051 0.11289 0.6841 0.0
C1104 C 0.08637 0.12261 0.67722 0.0
C1105 C 0.10202 0.14123 0.67321 0.0
C1106 C 0.02309 0.18056 0.68817 0.0
C1107 C 0.05496 0.15081 0.68312 0.0
C1108 C -0.0002 0.18714 0.68495 0.0
C1109 C 0.98299 0.1704 0.67843 0.0
C1110 C 0.02976 0.15706 0.68457 0.0
C1111 C 0.98995 0.14677 0.67675 0.0
C1112 C 0.06269 0.12735 0.68202 0.0
C1113 C 0.09374 0.1643 0.67551 0.0
N1114 N 0.01295 0.14082 0.6794 0.0
N1115 N 0.07083 0.16841 0.68019 0.0
H1116 H 0.87845 0.97241 0.6664 0.0
H1117 H 0.86543 0.1094 0.69567 0.0
H1118 H 0.81286 0.00637 0.68287 0.0
H1119 H 0.92533 0.07998 0.65978 0.0
H1120 H 0.84935 0.06989 0.7002 0.0
H1121 H 0.89885 0.00994 0.67255 0.0
C1122 C 0.86842 0.98768 0.67165 0.0
C1123 C 0.84392 0.98639 0.67388 0.0
C1124 C 0.86618 0.07207 0.69162 0.0
C1125 C 0.86703 0.02922 0.68098 0.0
C1126 C 0.87547 0.09464 0.68915 0.0
C1127 C 0.89662 0.0981 0.67699 0.0
C1128 C 0.87817 0.05277 0.68202 0.0
C1129 C 0.90883 0.07818 0.66902 0.0
C1130 C 0.88002 0.00909 0.67504 0.0
C1131 C 0.83171 0.00673 0.68057 0.0
N1132 N 0.89932 0.05639 0.67145 0.0
N1133 N 0.84337 0.02731 0.6838 0.0
H1134 H 0.01228 0.86541 0.62849 0.0
H1135 H 0.89691 0.87188 0.7059 0.0
H1136 H 0.0129 0.8502 0.70242 0.0
H1137 H 0.90205 0.89458 0.63397 0.0
H1138 H 0.94011 0.86972 0.70774 0.0
H1139 H 0.97306 0.88215 0.6324 0.0
C1140 C 0.0041 0.866 0.64564 0.0
C1141 C 0.0155 0.85643 0.66513 0.0
C1142 C 0.93177 0.87583 0.69179 0.0
C1143 C 0.97039 0.87486 0.66986 0.0
C1144 C 0.9072 0.87721 0.69083 0.0
C1145 C 0.89612 0.88357 0.66982 0.0
C1146 C 0.94502 0.88066 0.67149 0.0
C1147 C 0.91 0.8898 0.65055 0.0
C1148 C 0.98174 0.87551 0.64795 0.0
C1149 C 0.00445 0.85752 0.68706 0.0
N1150 N 0.93367 0.88797 0.65178 0.0
N1151 N 0.98221 0.86618 0.68882 0.0
H1152 H 0.35808 0.0986 0.97184 0.0
H1153 H 0.28632 0.14405 0.07472 0.0
H1154 H 0.29218 0.13387 0.96099 0.0
H1155 H 0.33486 0.08664 0.08269 0.0
H1156 H 0.28205 0.13433 0.03319 0.0
H1157 H 0.34539 0.08746 0.01129 0.0
C1158 C 0.34064 0.10339 0.97768 0.0
C1159 C 0.32622 0.11735 0.96349 0.0
C1160 C 0.29295 0.12321 0.04411 0.0
C1161 C 0.31177 0.10543 0.00869 0.0
C1162 C 0.29523 0.12869 0.06785 0.0
C1163 C 0.31096 0.1161 0.08192 0.0
C1164 C 0.30727 0.10565 0.03432 0.0
C1165 C 0.32251 0.09667 0.07228 0.0
C1166 C 0.33333 0.09703 0.00013 0.0
C1167 C 0.30375 0.12314 0.97158 0.0
N1168 N 0.32098 0.09243 0.04885 0.0
N1169 N 0.29742 0.11772 0.99396 0.0
H1170 H 0.90396 0.32703 0.10237 0.0
H1171 H 0.84929 0.29645 0.97663 0.0
H1172 H 0.83364 0.30136 0.09117 0.0
H1173 H 0.90222 0.34929 0.98791 0.0
H1174 H 0.85232 0.2852 0.01819 0.0
H1175 H 0.91179 0.32234 0.06013 0.0
C1176 C 0.89047 0.31969 0.09113 0.0
C1177 C 0.86806 0.31479 0.10004 0.0
C1178 C 0.86374 0.29881 0.01138 0.0
C1179 C 0.87684 0.30931 0.05214 0.0
C1180 C 0.86214 0.30507 0.9877 0.0
C1181 C 0.8754 0.32392 0.97906 0.0
C1182 C 0.87888 0.31137 0.02632 0.0
C1183 C 0.8916 0.3348 0.99411 0.0
C1184 C 0.89487 0.31716 0.06709 0.0
C1185 C 0.85106 0.30555 0.08481 0.0
N1186 N 0.89272 0.32856 0.0171 0.0
N1187 N 0.85573 0.30328 0.06156 0.0
H1188 H 0.64791 0.90572 0.98308 0.0
H1189 H 0.70607 0.83401 0.08148 0.0
H1190 H 0.70178 0.85497 0.96766 0.0
H1191 H 0.68071 0.90409 0.09498 0.0
H1192 H 0.70789 0.8431 0.03962 0.0
H1193 H 0.6623 0.90821 0.02355 0.0
C1194 C 0.66321 0.89562 0.98815 0.0
C1195 C 0.67361 0.88001 0.97224 0.0
C1196 C 0.70249 0.85672 0.05174 0.0
C1197 C 0.68975 0.88219 0.01841 0.0
C1198 C 0.70138 0.8515 0.0756 0.0
C1199 C 0.69303 0.86827 0.09152 0.0
C1200 C 0.69443 0.87861 0.04372 0.0
C1201 C 0.68723 0.8907 0.08315 0.0
C1202 C 0.67144 0.89704 0.01117 0.0
C1203 C 0.69336 0.86724 0.97948 0.0
N1204 N 0.68745 0.89506 0.05967 0.0
N1205 N 0.70044 0.86814 0.00225 0.0
H1206 H 0.09727 0.66612 0.10447 0.0
H1207 H 0.13683 0.70022 0.97441 0.0
H1208 H 0.16398 0.6972 0.08682 0.0
H1209 H 0.09472 0.63953 0.99074 0.0
H1210 H 0.13537 0.71193 0.01588 0.0
H1211 H 0.08542 0.66918 0.06301 0.0
C1212 C 0.10904 0.67433 0.09199 0.0
C1213 C 0.13166 0.68124 0.09879 0.0
C1214 C 0.12587 0.69644 0.01021 0.0
C1215 C 0.11829 0.68495 0.0519 0.0
C1216 C 0.12657 0.68986 0.98661 0.0
C1217 C 0.11604 0.6688 0.97938 0.0
C1218 C 0.11431 0.68197 0.02648 0.0
C1219 C 0.10321 0.65577 0.99584 0.0
C1220 C 0.10236 0.67594 0.06843 0.0
C1221 C 0.14646 0.69151 0.08206 0.0
N1222 N 0.10289 0.66241 0.01874 0.0
N1223 N 0.13958 0.69291 0.0593 0.0
H1224 H 0.29863 0.8603 0.03957 0.0
H1225 H 0.32742 0.90576 0.91022 0.0
H1226 H 0.36233 0.8961 0.02018 0.0
H1227 H 0.28838 0.8428 0.92584 0.0
H1228 H 0.32805 0.91526 0.95233 0.0
H1229 H 0.28321 0.8671 -0.00018 0.0
C1230 C 0.30897 0.87032 0.02716 0.0
C1231 C 0.33182 0.87747 0.03287 0.0
C1232 C 0.31864 0.89981 0.94638 0.0
C1233 C 0.31443 0.88534 0.98778 0.0
C1234 C 0.31813 0.89449 0.92241 0.0
C1235 C 0.30806 0.87335 0.91479 0.0
C1236 C 0.30864 0.88405 0.96252 0.0
C1237 C 0.29646 0.85918 0.93121 0.0
C1238 C 0.30026 0.87409 0.00453 0.0
C1239 C 0.34472 0.89015 0.0162 0.0
N1240 N 0.2973 0.86463 0.95438 0.0
N1241 N 0.33596 0.89348 0.99427 0.0
H1242 H 0.08875 0.33187 0.89788 0.0
H1243 H 0.13742 0.29753 0.02473 0.0
H1244 H 0.15625 0.30023 0.91085 0.0
H1245 H 0.09537 0.35895 0.01122 0.0
H1246 H 0.1324 0.28555 0.98364 0.0
H1247 H 0.07978 0.32875 0.94005 0.0
C1248 C 0.10127 0.32348 0.9095 0.0
C1249 C 0.12332 0.31645 0.90118 0.0
C1250 C 0.1237 0.30127 0.98989 0.0
C1251 C 0.1132 0.31267 0.94884 0.0
C1252 C 0.12643 0.30802 0.01329 0.0
C1253 C 0.11698 0.32936 0.02112 0.0
C1254 C 0.11118 0.31585 0.97445 0.0
C1255 C 0.10312 0.34252 0.00562 0.0
C1256 C 0.09622 0.32183 0.93346 0.0
C1257 C 0.13912 0.30595 0.9168 0.0
N1258 N 0.10083 0.3357 0.98288 0.0
N1259 N 0.13384 0.30453 0.93997 0.0
H1260 H 0.68304 0.11017 0.02863 0.0
H1261 H 0.70047 0.1421 0.89341 0.0
H1262 H 0.68111 0.18052 0.00076 0.0
H1263 H 0.6718 0.07598 0.91714 0.0
H1264 H 0.70706 0.15345 0.93413 0.0
H1265 H 0.69215 0.0952 0.9892 0.0
C1266 C 0.68516 0.12248 0.01429 0.0
C1267 C 0.68115 0.14655 0.01773 0.0
C1268 C 0.69975 0.13628 0.93037 0.0
C1269 C 0.69156 0.1297 0.97296 0.0
C1270 C 0.69605 0.1297 0.9071 0.0
C1271 C 0.68507 0.10822 0.90183 0.0
C1272 C 0.69264 0.12121 0.94848 0.0
C1273 C 0.67993 0.09287 0.92042 0.0
C1274 C 0.69019 0.11395 0.99186 0.0
C1275 C 0.68383 0.16182 0.99864 0.0
N1276 N 0.68348 0.09978 0.94299 0.0
N1277 N 0.68874 0.15313 0.97701 0.0
H1278 H 0.90159 0.67172 0.89556 0.0
H1279 H 0.86208 0.70659 0.02548 0.0
H1280 H 0.8365 0.70629 0.91267 0.0
H1281 H 0.90038 0.64371 0.0085 0.0
H1282 H 0.86532 0.71922 0.98429 0.0
H1283 H 0.91334 0.67439 0.93704 0.0
C1284 C 0.89021 0.68068 0.90788 0.0
C1285 C 0.86797 0.68859 0.90092 0.0
C1286 C 0.87372 0.70306 0.98979 0.0
C1287 C 0.88127 0.69185 0.94793 0.0
C1288 C 0.87203 0.69599 0.01323 0.0
C1289 C 0.88097 0.67413 0.02012 0.0
C1290 C 0.88467 0.68824 0.97339 0.0
C1291 C 0.8933 0.66068 0.00364 0.0
C1292 C 0.89684 0.68206 0.93149 0.0
C1293 C 0.85372 0.69983 0.91752 0.0
N1294 N 0.8946 0.66781 0.98092 0.0
N1295 N 0.86051 0.70094 0.94034 0.0
H1296 H 0.95934 0.32626 0.13015 0.0
H1297 H 0.09044 0.31783 0.17976 0.0
H1298 H 0.9787 0.329 0.20323 0.0
H1299 H 0.07523 0.32339 0.10578 0.0
H1300 H 0.04867 0.3144 0.18779 0.0
H1301 H 0.00065 0.31829 0.12007 0.0
C1302 C 0.97224 0.32483 0.14404 0.0
C1303 C 0.96579 0.32863 0.1675 0.0
C1304 C 0.05435 0.31616 0.16974 0.0
C1305 C 0.01269 0.31953 0.15626 0.0
C1306 C 0.07824 0.31811 0.16515 0.0
C1307 C 0.08622 0.32125 0.14212 0.0
C1308 C 0.03818 0.31768 0.15119 0.0
C1309 C 0.06971 0.32109 0.12382 0.0
C1310 C 0.99575 0.32039 0.13831 0.0
C1311 C 0.98307 0.32666 0.18489 0.0
N1312 N 0.04634 0.31972 0.12878 0.0
N1313 N 0.00568 0.32239 0.17892 0.0
H1314 H 0.95067 0.67221 0.86826 0.0
H1315 H 0.0822 0.6779 0.81992 0.0
H1316 H 0.97077 0.66676 0.79552 0.0
H1317 H 0.06651 0.67458 0.89392 0.0
H1318 H 0.0406 0.68121 0.81144 0.0
H1319 H 0.99197 0.67955 0.87863 0.0
C1320 C 0.96374 0.67283 0.85448 0.0
C1321 C 0.95742 0.66857 0.83103 0.0
C1322 C 0.04612 0.67997 0.82959 0.0
C1323 C 0.00438 0.67699 0.84267 0.0
C1324 C 0.06994 0.67816 0.83446 0.0
C1325 C 0.07776 0.67571 0.85764 0.0
C1326 C 0.02981 0.67895 0.848 0.0
C1327 C 0.06112 0.6764 0.87578 0.0
C1328 C 0.98725 0.67693 0.8604 0.0
C1329 C 0.97496 0.66947 0.81384 0.0
N1330 N 0.03778 0.67759 0.87056 0.0
N1331 N 0.99759 0.67349 0.82002 0.0
H1332 H 0.32003 0.08516 0.8114 0.0
H1333 H 0.32105 0.95992 0.87506 0.0
H1334 H 0.32064 0.07793 0.88676 0.0
H1335 H 0.33119 0.97136 0.80099 0.0
H1336 H 0.31339 0.00225 0.88001 0.0
H1337 H 0.31581 0.0428 0.80764 0.0
C1338 C 0.319 0.0746 0.8272 0.0
C1339 C 0.32104 0.08496 0.8494 0.0
C1340 C 0.31707 0.9954 0.86266 0.0
C1341 C 0.31662 0.03627 0.84527 0.0
C1342 C 0.32135 0.97132 0.85984 0.0
C1343 C 0.32711 0.96232 0.83765 0.0
C1344 C 0.31831 0.01035 0.84306 0.0
C1345 C 0.32732 0.97771 0.81846 0.0
C1346 C 0.31663 0.05039 0.82505 0.0
C1347 C 0.31921 0.07054 0.86931 0.0
N1348 N 0.32311 0.00092 0.82163 0.0
N1349 N 0.31748 0.04678 0.86678 0.0
H1350 H 0.90565 0.31661 0.81896 0.0
H1351 H 0.03722 0.32453 0.86752 0.0
H1352 H 0.92137 0.3229 0.89275 0.0
H1353 H 0.0172 0.32904 0.7947 0.0
H1354 H 0.99596 0.31676 0.87783 0.0
H1355 H 0.94738 0.31309 0.81065 0.0
C1356 C 0.91795 0.31694 0.83347 0.0
C1357 C 0.91013 0.32035 0.85652 0.0
C1358 C 0.00069 0.31923 0.85959 0.0
C1359 C 0.95813 0.31679 0.84711 0.0
C1360 C 0.02418 0.32357 0.85372 0.0
C1361 C 0.0305 0.32773 0.83026 0.0
C1362 C 0.98357 0.31881 0.84181 0.0
C1363 C 0.013 0.32639 0.81302 0.0
C1364 C 0.94181 0.31499 0.82872 0.0
C1365 C 0.92676 0.32033 0.87471 0.0
N1366 N 0.99039 0.32215 0.81915 0.0
N1367 N 0.95011 0.31897 0.86958 0.0
H1368 H 0.68237 0.03765 0.86103 0.0
H1369 H 0.67303 0.90674 0.81118 0.0
H1370 H 0.66628 0.01964 0.78932 0.0
H1371 H 0.67798 0.9223 0.88515 0.0
H1372 H 0.67908 0.94814 0.8024 0.0
H1373 H 0.68902 0.99584 0.86953 0.0
C1374 C 0.68072 0.02493 0.84699 0.0
C1375 C 0.67352 0.03198 0.8245 0.0
C1376 C 0.67907 0.94256 0.82057 0.0
C1377 C 0.68093 0.98437 0.83405 0.0
C1378 C 0.67561 0.9189 0.8256 0.0
C1379 C 0.67458 0.91118 0.84895 0.0
C1380 C 0.6813 0.95878 0.839 0.0
C1381 C 0.67849 0.92761 0.86691 0.0
C1382 C 0.68436 0.00111 0.85187 0.0
C1383 C 0.67143 0.01485 0.80696 0.0
N1384 N 0.68133 0.95077 0.86157 0.0
N1385 N 0.67495 0.99186 0.81215 0.0
H1386 H 0.03569 0.6121 0.17217 0.0
H1387 H 0.93072 0.68732 0.11695 0.0
H1388 H 0.04519 0.68454 0.15174 0.0
H1389 H 0.92222 0.62488 0.15913 0.0
H1390 H 0.97356 0.68485 0.1232 0.0
H1391 H 0.99475 0.61458 0.16062 0.0
C1392 C 0.02916 0.62861 0.16537 0.0
C1393 C 0.04386 0.64827 0.16338 0.0
C1394 C 0.96218 0.67174 0.13099 0.0
C1395 C 0.9968 0.65115 0.14975 0.0
C1396 C 0.93786 0.67311 0.12739 0.0
C1397 C 0.92295 0.65643 0.13774 0.0
C1398 C 0.97143 0.65333 0.14462 0.0
C1399 C 0.93299 0.63833 0.15107 0.0
C1400 C 0.00576 0.62997 0.15864 0.0
C1401 C 0.03449 0.66896 0.15364 0.0
N1402 N 0.95652 0.63726 0.15407 0.0
N1403 N 0.01144 0.66993 0.14731 0.0
H1404 H 0.33207 0.03989 0.12775 0.0
H1405 H 0.34198 0.91397 0.1884 0.0
H1406 H 0.33729 0.02874 0.20249 0.0
H1407 H 0.33131 0.92268 0.11392 0.0
H1408 H 0.33736 0.95609 0.19373 0.0
H1409 H 0.32894 0.99737 0.12209 0.0
C1410 C 0.33231 0.02856 0.14299 0.0
C1411 C 0.33518 0.03792 0.16564 0.0
C1412 C 0.33584 0.94888 0.1762 0.0
C1413 C 0.33181 0.98927 0.15926 0.0
C1414 C 0.33852 0.92479 0.17314 0.0
C1415 C 0.33729 0.91489 0.15065 0.0
C1416 C 0.33216 0.96334 0.15658 0.0
C1417 C 0.33244 0.92968 0.13156 0.0
C1418 C 0.33061 0.00427 0.13973 0.0
C1419 C 0.33559 0.02233 0.1847 0.0
N1420 N 0.33032 0.95328 0.13492 0.0
N1421 N 0.33405 0.99883 0.18106 0.0
H1422 H 0.68795 0.08949 0.13689 0.0
H1423 H 0.67626 0.95166 0.1131 0.0
H1424 H 0.66779 0.0613 0.06944 0.0
H1425 H 0.66667 0.98362 0.18102 0.0
H1426 H 0.68262 0.99082 0.09611 0.0
H1427 H 0.69053 0.04958 0.15228 0.0
C1428 C 0.68454 0.07493 0.12514 0.0
C1429 C 0.67734 0.07877 0.10187 0.0
C1430 C 0.67927 0.98919 0.11475 0.0
C1431 C 0.68019 0.03306 0.11951 0.0
C1432 C 0.67573 0.96693 0.12443 0.0
C1433 C 0.67077 0.96454 0.14844 0.0
C1434 C 0.67825 0.00908 0.12929 0.0
C1435 C 0.67011 0.98481 0.16239 0.0
C1436 C 0.68584 0.05215 0.13403 0.0
C1437 C 0.67315 0.05914 0.08754 0.0
N1438 N 0.67385 0.00626 0.15262 0.0
N1439 N 0.67447 0.03709 0.09664 0.0
H1440 H 0.10755 0.24201 0.2931 0.0
H1441 H 0.15398 0.25379 0.16177 0.0
H1442 H 0.12237 0.18017 0.25184 0.0
H1443 H 0.16335 0.30617 0.21568 0.0
H1444 H 0.13744 0.22693 0.1914 0.0
H1445 H 0.12134 0.26648 0.26105 0.0
C1446 C 0.11347 0.23356 0.27712 0.0
C1447 C 0.11404 0.209 0.27522 0.0
C1448 C 0.14331 0.24426 0.19666 0.0
C1449 C 0.1302 0.23707 0.23839 0.0
C1450 C 0.1527 0.25955 0.17984 0.0
C1451 C 0.16012 0.2822 0.18633 0.0
C1452 C 0.14095 0.25194 0.21995 0.0
C1453 C 0.15818 0.28881 0.20994 0.0
C1454 C 0.1215 0.24757 0.25887 0.0
C1455 C 0.12163 0.19906 0.25397 0.0
N1456 N 0.14862 0.27385 0.2258 0.0
N1457 N 0.12964 0.21317 0.23633 0.0
H1458 H 0.67382 0.11821 0.21873 0.0
H1459 H 0.80677 0.11688 0.26193 0.0
H1460 H 0.73063 0.14128 0.17438 0.0
H1461 H 0.75141 0.07677 0.29465 0.0
H1462 H 0.78002 0.12605 0.22935 0.0
H1463 H 0.70248 0.10391 0.24729 0.0
C1464 C 0.69234 0.12032 0.21507 0.0
C1465 C 0.69986 0.13097 0.19423 0.0
C1466 C 0.77391 0.11494 0.24352 0.0
C1467 C 0.73285 0.1146 0.22675 0.0
C1468 C 0.7892 0.10958 0.26202 0.0
C1469 C 0.78125 0.09619 0.28112 0.0
C1470 C 0.75052 0.10701 0.24433 0.0
C1471 C 0.75824 0.08736 0.28042 0.0
C1472 C 0.70872 0.11198 0.23125 0.0
C1473 C 0.72412 0.13298 0.19017 0.0
N1474 N 0.74364 0.09316 0.26253 0.0
N1475 N 0.73978 0.12505 0.20638 0.0
H1476 H 0.91827 0.75177 0.29367 0.0
H1477 H 0.82269 0.73167 0.19459 0.0
H1478 H 0.87381 0.80815 0.26941 0.0
H1479 H 0.88717 0.69216 0.19644 0.0
H1480 H 0.83849 0.75796 0.22507 0.0
H1481 H 0.90522 0.72781 0.26041 0.0
C1482 C 0.90601 0.75922 0.28117 0.0
C1483 C 0.89708 0.78197 0.28435 0.0
C1484 C 0.84917 0.74355 0.21874 0.0
C1485 C 0.88159 0.75444 0.24672 0.0
C1486 C 0.84007 0.72847 0.20159 0.0
C1487 C 0.85366 0.70974 0.1932 0.0
C1488 C 0.87177 0.7395 0.2278 0.0
C1489 C 0.87624 0.70649 0.2025 0.0
C1490 C 0.89853 0.74553 0.26225 0.0
C1491 C 0.88117 0.79072 0.26765 0.0
N1492 N 0.88452 0.72108 0.21946 0.0
N1493 N 0.87363 0.7768 0.24974 0.0
H1494 H 0.3253 0.84412 0.23276 0.0
H1495 H 0.194 0.88094 0.26501 0.0
H1496 H 0.27084 0.84851 0.18035 0.0
H1497 H 0.25421 0.89651 0.30839 0.0
H1498 H 0.22063 0.86679 0.23419 0.0
H1499 H 0.29798 0.8598 0.26185 0.0
C1500 C 0.3075 0.84814 0.22745 0.0
C1501 C 0.30033 0.845 0.20412 0.0
C1502 C 0.22794 0.87355 0.25039 0.0
C1503 C 0.26898 0.86323 0.23724 0.0
C1504 C 0.21278 0.88175 0.26792 0.0
C1505 C 0.22188 0.88989 0.28935 0.0
C1506 C 0.25228 0.87327 0.2545 0.0
C1507 C 0.24636 0.89032 0.29223 0.0
C1508 C 0.29197 0.85734 0.24398 0.0
C1509 C 0.27712 0.85086 0.19811 0.0
N1510 N 0.26065 0.88193 0.27514 0.0
N1511 N 0.26222 0.85963 0.21458 0.0
H1512 H 0.0754 0.76315 0.7214 0.0
H1513 H 0.18231 0.72606 0.79895 0.0
H1514 H 0.133 0.81137 0.73125 0.0
H1515 H 0.11176 0.71107 0.82172 0.0
H1516 H 0.16635 0.75399 0.7699 0.0
H1517 H 0.08962 0.74013 0.75495 0.0
C1518 C 0.09081 0.76907 0.73087 0.0
C1519 C 0.10301 0.78919 0.72368 0.0
C1520 C 0.15447 0.74466 0.78145 0.0
C1521 C 0.11976 0.76263 0.76122 0.0
C1522 C 0.16352 0.72873 0.7978 0.0
C1523 C 0.14827 0.7164 0.81263 0.0
C1524 C 0.13005 0.74761 0.7796 0.0
C1525 C 0.12404 0.7204 0.81065 0.0
C1526 C 0.09891 0.75596 0.7499 0.0
C1527 C 0.123 0.79606 0.73638 0.0
N1528 N 0.11562 0.73542 0.7942 0.0
N1529 N 0.13106 0.78253 0.75431 0.0
H1530 H 0.18723 0.11773 0.73073 0.0
H1531 H 0.31848 0.14947 0.76721 0.0
H1532 H 0.24856 0.09208 0.69433 0.0
H1533 H 0.26093 0.15614 0.8159 0.0
H1534 H 0.29192 0.13138 0.73887 0.0
H1535 H 0.21283 0.13334 0.76168 0.0
C1536 C 0.206 0.11495 0.72946 0.0
C1537 C 0.21577 0.10369 0.7098 0.0
C1538 C 0.28505 0.13681 0.75574 0.0
C1539 C 0.24507 0.12198 0.74478 0.0
C1540 C 0.30015 0.14744 0.7718 0.0
C1541 C 0.29186 0.15442 0.79388 0.0
C1542 C 0.26136 0.13331 0.76165 0.0
C1543 C 0.268 0.15089 0.79907 0.0
C1544 C 0.22059 0.12401 0.74705 0.0
C1545 C 0.24023 0.10076 0.70904 0.0
N1546 N 0.25353 0.14064 0.78303 0.0
N1547 N 0.25401 0.11009 0.72609 0.0
H1548 H 0.84094 0.26097 0.83011 0.0
H1549 H 0.87223 0.25341 0.69357 0.0
H1550 H 0.82779 0.31599 0.77969 0.0
H1551 H 0.87589 0.1928 0.73899 0.0
H1552 H 0.85809 0.27677 0.72621 0.0
H1553 H 0.85506 0.23572 0.79816 0.0
C1554 C 0.84091 0.26771 0.81235 0.0
C1555 C 0.83319 0.2907 0.80762 0.0
C1556 C 0.86197 0.25838 0.72917 0.0
C1557 C 0.8494 0.26198 0.77109 0.0
C1558 C 0.87017 0.24498 0.7105 0.0
C1559 C 0.87521 0.22104 0.7135 0.0
C1560 C 0.85874 0.2479 0.75122 0.0
C1561 C 0.87228 0.21122 0.73593 0.0
C1562 C 0.84892 0.25327 0.79414 0.0
C1563 C 0.83327 0.29838 0.78422 0.0
N1564 N 0.86416 0.2247 0.75398 0.0
N1565 N 0.84138 0.28414 0.76694 0.0
H1566 H 0.73514 0.83724 0.82646 0.0
H1567 H 0.74195 0.89498 0.69935 0.0
H1568 H 0.67859 0.83636 0.77612 0.0
H1569 H 0.80477 0.87569 0.73714 0.0
H1570 H 0.71833 0.87789 0.73044 0.0
H1571 H 0.76105 0.85416 0.79637 0.0
C1572 C 0.72829 0.84038 0.80901 0.0
C1573 C 0.7047 0.8354 0.80373 0.0
C1574 C 0.73727 0.87742 0.73203 0.0
C1575 C 0.73396 0.85503 0.76956 0.0
C1576 C 0.75081 0.88734 0.71434 0.0
C1577 C 0.77539 0.88666 0.71558 0.0
C1578 C 0.74829 0.86676 0.75129 0.0
C1579 C 0.78585 0.87666 0.73555 0.0
C1580 C 0.74304 0.85002 0.79191 0.0
C1581 C 0.69668 0.83967 0.78087 0.0
N1582 N 0.7722 0.86698 0.75266 0.0
N1583 N 0.71121 0.84945 0.76474 0.0
H1584 H 0.19534 0.18328 0.28654 0.0
H1585 H 0.26533 0.11159 0.18855 0.0
H1586 H 0.19165 0.10788 0.28024 0.0
H1587 H 0.29019 0.17738 0.21695 0.0
H1588 H 0.2324 0.11268 0.21633 0.0
H1589 H 0.22495 0.18397 0.25521 0.0
C1590 C 0.2008 0.16693 0.27851 0.0
C1591 C 0.19141 0.14549 0.28609 0.0
C1592 C 0.24503 0.12691 0.2163 0.0
C1593 C 0.22467 0.14611 0.25026 0.0
C1594 C 0.26367 0.12637 0.20043 0.0
C1595 C 0.28052 0.14431 0.20069 0.0
C1596 C 0.24312 0.14573 0.23214 0.0
C1597 C 0.27767 0.16306 0.21641 0.0
C1598 C 0.21763 0.1673 0.26074 0.0
C1599 C 0.19889 0.12471 0.27517 0.0
N1600 N 0.2593 0.1633 0.23154 0.0
N1601 N 0.21506 0.12553 0.25771 0.0
H1602 H 0.89442 0.28668 0.24972 0.0
H1603 H 0.79208 0.19709 0.27581 0.0
H1604 H 0.84618 0.26628 0.19504 0.0
H1605 H 0.86024 0.18944 0.30769 0.0
H1606 H 0.80866 0.22663 0.24876 0.0
H1607 H 0.87989 0.25425 0.27398 0.0
C1608 C 0.88104 0.2751 0.2427 0.0
C1609 C 0.87156 0.279 0.22035 0.0
C1610 C 0.81992 0.21839 0.26168 0.0
C1611 C 0.85429 0.2426 0.24822 0.0
C1612 C 0.81044 0.20183 0.27717 0.0
C1613 C 0.82488 0.19102 0.29389 0.0
C1614 C 0.84379 0.22443 0.26345 0.0
C1615 C 0.84864 0.19742 0.29492 0.0
C1616 C 0.87272 0.25671 0.25654 0.0
C1617 C 0.85409 0.26367 0.2121 0.0
N1618 N 0.85733 0.21388 0.28006 0.0
N1619 N 0.84568 0.24633 0.22622 0.0
H1620 H 0.74976 0.86508 0.18719 0.0
H1621 H 0.78069 0.83999 0.32127 0.0
H1622 H 0.70999 0.89189 0.24583 0.0
H1623 H 0.83017 0.82698 0.26549 0.0
H1624 H 0.75397 0.85769 0.29296 0.0
H1625 H 0.77998 0.85136 0.21468 0.0
C1626 C 0.74769 0.86863 0.20576 0.0
C1627 C 0.72728 0.87947 0.21431 0.0
C1628 C 0.77067 0.85098 0.28685 0.0
C1629 C 0.7613 0.86335 0.24571 0.0
C1630 C 0.78578 0.84056 0.30298 0.0
C1631 C 0.80761 0.8319 0.29569 0.0
C1632 C 0.7773 0.8526 0.26315 0.0
C1633 C 0.81352 0.83357 0.27181 0.0
C1634 C 0.76481 0.8606 0.22144 0.0
C1635 C 0.72535 0.88339 0.23852 0.0
N1636 N 0.79841 0.84368 0.25633 0.0
N1637 N 0.74197 0.87509 0.25337 0.0
H1638 H 0.12008 0.6951 0.25482 0.0
H1639 H 0.17045 0.82564 0.26838 0.0
H1640 H 0.14013 0.73757 0.19537 0.0
H1641 H 0.15964 0.77734 0.32572 0.0
H1642 H 0.15531 0.79585 0.24114 0.0
H1643 H 0.12921 0.7278 0.2808 0.0
C1644 C 0.1261 0.71148 0.24721 0.0
C1645 C 0.12954 0.71359 0.22295 0.0
C1646 C 0.15627 0.79182 0.25969 0.0
C1647 C 0.14048 0.75104 0.25266 0.0
C1648 C 0.16489 0.80879 0.27522 0.0
C1649 C 0.16647 0.80388 0.29932 0.0
C1650 C 0.14902 0.76992 0.26842 0.0
C1651 C 0.15916 0.78174 0.30726 0.0
C1652 C 0.13144 0.73012 0.26207 0.0
C1653 C 0.1372 0.73526 0.214 0.0
N1654 N 0.15073 0.76563 0.29186 0.0
N1655 N 0.14271 0.75312 0.22892 0.0
H1656 H 0.30002 0.87798 0.75875 0.0
H1657 H 0.16687 0.83922 0.7372 0.0
H1658 H 0.25246 0.8623 0.81557 0.0
H1659 H 0.21915 0.84597 0.68285 0.0
H1660 H 0.196 0.85199 0.76617 0.0
H1661 H 0.2684 0.87156 0.73085 0.0
C1662 C 0.28279 0.87338 0.76537 0.0
C1663 C 0.27889 0.87042 0.78948 0.0
C1664 C 0.20104 0.85071 0.74789 0.0
C1665 C 0.24254 0.8627 0.7575 0.0
C1666 C 0.18442 0.84347 0.73134 0.0
C1667 C 0.19065 0.84133 0.70757 0.0
C1668 C 0.22395 0.85602 0.74056 0.0
C1669 C 0.21368 0.84695 0.701 0.0
C1670 C 0.26473 0.86965 0.7494 0.0
C1671 C 0.25616 0.86475 0.79709 0.0
N1672 N 0.22946 0.85401 0.71738 0.0
N1673 N 0.23882 0.86079 0.78109 0.0
H1674 H 0.15868 0.27119 0.80294 0.0
H1675 H 0.13541 0.17829 0.7032 0.0
H1676 H 0.09927 0.27843 0.75661 0.0
H1677 H 0.20423 0.20889 0.71037 0.0
H1678 H 0.1201 0.20671 0.73155 0.0
H1679 H 0.17381 0.23942 0.77788 0.0
C1680 C 0.1485 0.26559 0.7879 0.0
C1681 C 0.12761 0.27712 0.78185 0.0
C1682 C 0.13857 0.20708 0.727 0.0
C1683 C 0.14469 0.24122 0.75344 0.0
C1684 C 0.14729 0.19095 0.7109 0.0
C1685 C 0.17103 0.19147 0.7044 0.0
C1686 C 0.15384 0.2234 0.73718 0.0
C1687 C 0.18578 0.20817 0.71486 0.0
C1688 C 0.15729 0.24778 0.77352 0.0
C1689 C 0.11535 0.26975 0.76187 0.0
N1690 N 0.17697 0.22348 0.73099 0.0
N1691 N 0.124 0.25209 0.74838 0.0
H1692 H 0.74184 0.13012 0.8051 0.0
H1693 H 0.77664 0.14602 0.66982 0.0
H1694 H 0.69297 0.12456 0.74741 0.0
H1695 H 0.82533 0.15584 0.72707 0.0
H1696 H 0.7465 0.13459 0.69806 0.0
H1697 H 0.7738 0.13546 0.77674 0.0
C1698 C 0.7379 0.12975 0.7865 0.0
C1699 C 0.71475 0.12715 0.77856 0.0
C1700 C 0.76383 0.13912 0.70444 0.0
C1701 C 0.75096 0.13335 0.74618 0.0
C1702 C 0.78098 0.14579 0.68831 0.0
C1703 C 0.8035 0.15195 0.69606 0.0
C1704 C 0.76922 0.13873 0.72852 0.0
C1705 C 0.8083 0.15096 0.72024 0.0
C1706 C 0.75608 0.13289 0.77034 0.0
C1707 C 0.71054 0.12681 0.7543 0.0
N1708 N 0.79126 0.1446 0.73563 0.0
N1709 N 0.72844 0.13002 0.73899 0.0
H1710 H 0.86485 0.69465 0.74425 0.0
H1711 H 0.82977 0.82985 0.72858 0.0
H1712 H 0.85611 0.74177 0.80297 0.0
H1713 H 0.83579 0.78021 0.67164 0.0
H1714 H 0.84163 0.79902 0.75608 0.0
H1715 H 0.85705 0.72698 0.71752 0.0
C1716 C 0.86145 0.7119 0.75155 0.0
C1717 C 0.861 0.71548 0.7759 0.0
C1718 C 0.8404 0.79491 0.73757 0.0
C1719 C 0.85178 0.75275 0.74522 0.0
C1720 C 0.83372 0.81253 0.72182 0.0
C1721 C 0.83176 0.80762 0.69771 0.0
C1722 C 0.84523 0.77224 0.72915 0.0
C1723 C 0.83675 0.78474 0.69005 0.0
C1724 C 0.85694 0.73039 0.73622 0.0
C1725 C 0.85667 0.73827 0.7843 0.0
N1726 N 0.84325 0.76795 0.70569 0.0
N1727 N 0.85203 0.75605 0.76895 0.0
H1728 H 0.30481 0.22577 0.09381 0.0
H1729 H 0.17109 0.26047 0.11132 0.0
H1730 H 0.2576 0.18594 0.13757 0.0
H1731 H 0.21616 0.29142 0.05886 0.0
H1732 H 0.2007 0.2301 0.11816 0.0
H1733 H 0.27143 0.24793 0.07858 0.0
C1734 C 0.28738 0.22172 0.1002 0.0
C1735 C 0.28397 0.20422 0.11714 0.0
C1736 C 0.2039 0.24326 0.10481 0.0
C1737 C 0.24558 0.22939 0.09976 0.0
C1738 C 0.18691 0.26052 0.10077 0.0
C1739 C 0.19137 0.27874 0.08477 0.0
C1740 C 0.22545 0.24439 0.09284 0.0
C1741 C 0.21217 0.27792 0.07164 0.0
C1742 C 0.26828 0.2342 0.09136 0.0
C1743 C 0.26095 0.1993 0.12448 0.0
N1744 N 0.2286 0.26129 0.07625 0.0
N1745 N 0.24264 0.21203 0.11596 0.0
H1746 H 0.16389 0.73667 0.88355 0.0
H1747 H 0.29925 0.76875 0.88642 0.0
H1748 H 0.21336 0.70665 0.93249 0.0
H1749 H 0.24874 0.81233 0.85067 0.0
H1750 H 0.26721 0.7465 0.90399 0.0
H1751 H 0.19327 0.76623 0.87278 0.0
C1752 C 0.18067 0.73667 0.8925 0.0
C1753 C 0.18632 0.71893 0.9087 0.0
C1754 C 0.26303 0.761 0.89242 0.0
C1755 C 0.22007 0.75233 0.89611 0.0
C1756 C 0.28136 0.77353 0.88218 0.0
C1757 C 0.27661 0.79218 0.86685 0.0
C1758 C 0.23968 0.76691 0.88707 0.0
C1759 C 0.25308 0.79802 0.86239 0.0
C1760 C 0.19749 0.75345 0.88622 0.0
C1761 C 0.20836 0.71977 0.91967 0.0
N1762 N 0.23543 0.78523 0.87224 0.0
N1763 N 0.22453 0.73591 0.91291 0.0
H1764 H 0.26174 0.17559 0.86802 0.0
H1765 H 0.2297 0.31144 0.86704 0.0
H1766 H 0.29582 0.22729 0.91182 0.0
H1767 H 0.18302 0.25893 0.8387 0.0
H1768 H 0.25423 0.28027 0.88328 0.0
H1769 H 0.23186 0.20487 0.85774 0.0
C1770 C 0.26263 0.19289 0.87592 0.0
C1771 C 0.28144 0.1991 0.89061 0.0
C1772 C 0.23855 0.27551 0.87362 0.0
C1773 C 0.24772 0.23269 0.87854 0.0
C1774 C 0.22469 0.29331 0.86415 0.0
C1775 C 0.20443 0.28775 0.85136 0.0
C1776 C 0.2323 0.25188 0.87003 0.0
C1777 C 0.19849 0.26395 0.84852 0.0
C1778 C 0.24567 0.20963 0.86992 0.0
C1779 C 0.28179 0.22181 0.90021 0.0
N1780 N 0.21249 0.24684 0.85759 0.0
N1781 N 0.26541 0.23785 0.89376 0.0
H1782 H 0.68789 0.22838 0.87744 0.0
H1783 H 0.82351 0.26167 0.88152 0.0
H1784 H 0.74117 0.18297 0.84866 0.0
H1785 H 0.77083 0.29456 0.92491 0.0
H1786 H 0.79459 0.23189 0.86991 0.0
H1787 H 0.71858 0.25286 0.89474 0.0
C1788 C 0.70608 0.22362 0.87472 0.0
C1789 C 0.71198 0.20372 0.86148 0.0
C1790 C 0.78951 0.24541 0.88228 0.0
C1791 C 0.74735 0.23161 0.88132 0.0
C1792 C 0.80606 0.26233 0.88904 0.0
C1793 C 0.79953 0.28079 0.90407 0.0
C1794 C 0.76629 0.24711 0.89047 0.0
C1795 C 0.77661 0.28082 0.91311 0.0
C1796 C 0.72362 0.23746 0.88477 0.0
C1797 C 0.73587 0.19812 0.85885 0.0
N1798 N 0.76078 0.26448 0.90594 0.0
N1799 N 0.75271 0.21213 0.86848 0.0
H1800 H 0.73239 0.82643 0.87563 0.0
H1801 H 0.76201 0.68987 0.87188 0.0
H1802 H 0.70138 0.77507 0.92198 0.0
H1803 H 0.80454 0.74158 0.83651 0.0
H1804 H 0.73972 0.72142 0.89034 0.0
H1805 H 0.76025 0.79661 0.86215 0.0
C1806 C 0.73177 0.80907 0.88339 0.0
C1807 C 0.71427 0.80314 0.89971 0.0
C1808 C 0.75397 0.72594 0.87861 0.0
C1809 C 0.74579 0.7689 0.88407 0.0
C1810 C 0.76651 0.70789 0.86784 0.0
C1811 C 0.785 0.71312 0.85249 0.0
C1812 C 0.75978 0.74946 0.87383 0.0
C1813 C 0.79043 0.73684 0.8483 0.0
C1814 C 0.7476 0.79201 0.87556 0.0
C1815 C 0.71436 0.78037 0.90915 0.0
N1816 N 0.77776 0.75416 0.85878 0.0
N1817 N 0.72961 0.76401 0.90095 0.0
H1818 H 0.73331 0.81783 0.11628 0.0
H1819 H 0.83972 0.72935 0.13578 0.0
H1820 H 0.74309 0.77999 0.18103 0.0
H1821 H 0.80192 0.73285 0.07023 0.0
H1822 H 0.81284 0.75854 0.15234 0.0
H1823 H 0.76663 0.79646 0.09919 0.0
C1824 C 0.74271 0.80519 0.12693 0.0
C1825 C 0.7355 0.80044 0.14999 0.0
C1826 C 0.81083 0.75325 0.13418 0.0
C1827 C 0.77366 0.7765 0.13084 0.0
C1828 C 0.82626 0.73678 0.12462 0.0
C1829 C 0.82283 0.72848 0.10166 0.0
C1830 C 0.79234 0.7619 0.12042 0.0
C1831 C 0.80504 0.73871 0.08804 0.0
C1832 C 0.7616 0.79305 0.1172 0.0
C1833 C 0.74806 0.78385 0.16311 0.0
N1834 N 0.79034 0.75484 0.09767 0.0
N1835 N 0.76666 0.77247 0.15337 0.0
H1836 H 0.22171 0.73515 0.18838 0.0
H1837 H 0.28613 0.78534 0.07882 0.0
H1838 H 0.19886 0.71576 0.11891 0.0
H1839 H 0.2756 0.82817 0.14041 0.0
H1840 H 0.25521 0.75877 0.09257 0.0
H1841 H 0.24378 0.76816 0.17147 0.0
C1842 C 0.22139 0.73792 0.16958 0.0
C1843 C 0.20869 0.72276 0.15493 0.0
C1844 C 0.25938 0.77426 0.10281 0.0
C1845 C 0.23378 0.76012 0.13554 0.0
C1846 C 0.27695 0.78944 0.09496 0.0
C1847 C 0.28364 0.80882 0.10865 0.0
C1848 C 0.24894 0.7782 0.12476 0.0
C1849 C 0.27116 0.81334 0.12941 0.0
C1850 C 0.23372 0.75681 0.15998 0.0
C1851 C 0.20849 0.72716 0.1307 0.0
N1852 N 0.25479 0.7978 0.13715 0.0
N1853 N 0.22118 0.74525 0.12167 0.0
H1854 H 0.73595 0.17705 0.12965 0.0
H1855 H 0.76378 0.31373 0.1445 0.0
H1856 H 0.69504 0.23294 0.09888 0.0
H1857 H 0.81279 0.25994 0.16553 0.0
H1858 H 0.73846 0.28357 0.12784 0.0
H1859 H 0.76537 0.20623 0.14194 0.0
C1860 C 0.73344 0.19535 0.12506 0.0
C1861 C 0.71299 0.2027 0.11347 0.0
C1862 C 0.75478 0.27828 0.13604 0.0
C1863 C 0.74607 0.23597 0.12771 0.0
C1864 C 0.7691 0.29552 0.1458 0.0
C1865 C 0.79032 0.28931 0.15655 0.0
C1866 C 0.76158 0.25457 0.13719 0.0
C1867 C 0.79661 0.26545 0.15729 0.0
C1868 C 0.75009 0.21199 0.13221 0.0
C1869 C 0.71042 0.22659 0.10808 0.0
N1870 N 0.78222 0.24888 0.14784 0.0
N1871 N 0.72662 0.24236 0.11543 0.0
loop_
_geom_bond_atom_site_label_1
_geom_bond_atom_site_label_2
_geom_bond_distance
_geom_bond_site_symmetry_2
_ccdc_geom_bond_type
C0 C1 1.351 . S
C0 N3 1.368 . S
C0 H5 0.931 . S
C1 C0 1.351 . S
C1 N2 1.373 . S
C1 H29 0.930 . S
N2 C1 1.373 . S
N2 C4 1.340 . S
N3 C0 1.368 . S
N3 C4 1.321 . S
N3 Co6 2.135 . S
C4 N2 1.340 . S
C4 N3 1.321 . S
C4 H28 0.930 . S
H5 C0 0.931 . S
Co6 N3 2.135 . S
Co6 N9 2.121 . S
Co6 O14 2.055 . S
Co6 O17 2.039 . S
Co6 N20 2.140 . S
C7 O8 1.227 . S
C7 O17 1.265 . S
O8 C7 1.227 . S
N9 Co6 2.121 . S
N9 C11 1.375 . S
N9 C12 1.313 . S
C10 C11 1.338 . S
C10 N13 1.377 . S
C10 H30 0.930 . S
C11 N9 1.375 . S
C11 C10 1.338 . S
C11 H15 0.931 . S
C12 N9 1.313 . S
C12 N13 1.344 . S
C12 H16 0.930 . S
N13 C10 1.377 . S
N13 C12 1.344 . S
O14 Co6 2.055 . S
O14 C18 1.253 . S
H15 C11 0.931 . S
H16 C12 0.930 . S
O17 Co6 2.039 . S
O17 C7 1.265 . S
C18 O14 1.253 . S
C18 O19 1.227 . S
O19 C18 1.227 . S
N20 Co6 2.140 . S
N20 C23 1.346 . S
N20 C24 1.345 . S
C21 C22 1.387 . S
C21 C25 1.391 . S
C22 C21 1.387 . S
C22 C23 1.369 . S
C22 H31 0.929 . S
C23 N20 1.346 . S
C23 C22 1.369 . S
C23 H26 0.928 . S
C24 N20 1.345 . S
C24 C25 1.371 . S
C24 H27 0.931 . S
C25 C21 1.391 . S
C25 C24 1.371 . S
C25 H32 0.930 . S
H26 C23 0.928 . S
H27 C24 0.931 . S
H28 C4 0.930 . S
H29 C1 0.930 . S
H30 C10 0.930 . S
H31 C22 0.929 . S
H32 C25 0.930 . S
C33 C34 1.351 . S
C33 N36 1.368 . S
C33 H38 0.931 . S
C34 C33 1.351 . S
C34 N35 1.373 . S
C34 H62 0.930 . S
N35 C34 1.373 . S
N35 C37 1.340 . S
N36 C33 1.368 . S
N36 C37 1.321 . S
N36 Co39 2.135 . S
C37 N35 1.340 . S
C37 N36 1.321 . S
C37 H61 0.930 . S
H38 C33 0.931 . S
Co39 N36 2.135 . S
Co39 N42 2.121 . S
Co39 O47 2.055 . S
Co39 O50 2.039 . S
Co39 N53 2.140 . S
C40 O41 1.227 . S
C40 O50 1.265 . S
O41 C40 1.227 . S
N42 Co39 2.121 . S
N42 C44 1.375 . S
N42 C45 1.313 . S
C43 C44 1.338 . S
C43 N46 1.377 . S
C43 H63 0.930 . S
C44 N42 1.375 . S
C44 C43 1.338 . S
C44 H48 0.931 . S
C45 N42 1.313 . S
C45 N46 1.344 . S
C45 H49 0.930 . S
N46 C43 1.377 . S
N46 C45 1.344 . S
O47 Co39 2.055 . S
O47 C51 1.253 . S
H48 C44 0.931 . S
H49 C45 0.930 . S
O50 Co39 2.039 . S
O50 C40 1.265 . S
C51 O47 1.253 . S
C51 O52 1.227 . S
O52 C51 1.227 . S
N53 Co39 2.140 . S
N53 C56 1.346 . S
N53 C57 1.345 . S
C54 C55 1.387 . S
C54 C58 1.391 . S
C55 C54 1.387 . S
C55 C56 1.369 . S
C55 H64 0.929 . S
C56 N53 1.346 . S
C56 C55 1.369 . S
C56 H59 0.928 . S
C57 N53 1.345 . S
C57 C58 1.371 . S
C57 H60 0.931 . S
C58 C54 1.391 . S
C58 C57 1.371 . S
C58 H65 0.930 . S
H59 C56 0.928 . S
H60 C57 0.931 . S
H61 C37 0.930 . S
H62 C34 0.930 . S
H63 C43 0.930 . S
H64 C55 0.929 . S
H65 C58 0.930 . S
C66 C67 1.351 . S
C66 N69 1.368 . S
C66 H71 0.931 . S
C67 C66 1.351 . S
C67 N68 1.373 . S
C67 H95 0.930 . S
N68 C67 1.373 . S
N68 C70 1.340 . S
N69 C66 1.368 . S
N69 C70 1.321 . S
N69 Co72 2.135 . S
C70 N68 1.340 . S
C70 N69 1.321 . S
C70 H94 0.930 . S
H71 C66 0.931 . S
Co72 N69 2.135 . S
Co72 N75 2.121 . S
Co72 O80 2.055 . S
Co72 O83 2.039 . S
Co72 N86 2.140 . S
C73 O74 1.227 . S
C73 O83 1.265 . S
O74 C73 1.227 . S
N75 Co72 2.121 . S
N75 C77 1.375 . S
N75 C78 1.313 . S
C76 C77 1.338 . S
C76 N79 1.377 . S
C76 H96 0.930 . S
C77 N75 1.375 . S
C77 C76 1.338 . S
C77 H81 0.931 . S
C78 N75 1.313 . S
C78 N79 1.344 . S
C78 H82 0.930 . S
N79 C76 1.377 . S
N79 C78 1.344 . S
O80 Co72 2.055 . S
O80 C84 1.253 . S
H81 C77 0.931 . S
H82 C78 0.930 . S
O83 Co72 2.039 . S
O83 C73 1.265 . S
C84 O80 1.253 . S
C84 O85 1.227 . S
O85 C84 1.227 . S
N86 Co72 2.140 . S
N86 C89 1.346 . S
N86 C90 1.345 . S
C87 C88 1.387 . S
C87 C91 1.391 . S
C88 C87 1.387 . S
C88 C89 1.369 . S
C88 H97 0.929 . S
C89 N86 1.346 . S
C89 C88 1.369 . S
C89 H92 0.928 . S
C90 N86 1.345 . S
C90 C91 1.371 . S
C90 H93 0.931 . S
C91 C87 1.391 . S
C91 C90 1.371 . S
C91 H98 0.930 . S
H92 C89 0.928 . S
H93 C90 0.931 . S
H94 C70 0.930 . S
H95 C67 0.930 . S
H96 C76 0.930 . S
H97 C88 0.929 . S
H98 C91 0.930 . S
C99 C100 1.351 . S
C99 N102 1.368 . S
C99 H104 0.931 . S
C100 C99 1.351 . S
C100 N101 1.373 . S
C100 H128 0.930 . S
N101 C100 1.373 . S
N101 C103 1.340 . S
N102 C99 1.368 . S
N102 C103 1.321 . S
N102 Co105 2.135 . S
C103 N101 1.340 . S
C103 N102 1.321 . S
C103 H127 0.930 . S
H104 C99 0.931 . S
Co105 N102 2.135 . S
Co105 N108 2.121 . S
Co105 O113 2.055 . S
Co105 O116 2.039 . S
Co105 N119 2.140 . S
C106 O107 1.227 . S
C106 O116 1.265 . S
O107 C106 1.227 . S
N108 Co105 2.121 . S
N108 C110 1.375 . S
N108 C111 1.313 . S
C109 C110 1.338 . S
C109 N112 1.377 . S
C109 H129 0.930 . S
C110 N108 1.375 . S
C110 C109 1.338 . S
C110 H114 0.931 . S
C111 N108 1.313 . S
C111 N112 1.344 . S
C111 H115 0.930 . S
N112 C109 1.377 . S
N112 C111 1.344 . S
O113 Co105 2.055 . S
O113 C117 1.253 . S
H114 C110 0.931 . S
H115 C111 0.930 . S
O116 Co105 2.039 . S
O116 C106 1.265 . S
C117 O113 1.253 . S
C117 O118 1.227 . S
O118 C117 1.227 . S
N119 Co105 2.140 . S
N119 C122 1.346 . S
N119 C123 1.345 . S
C120 C121 1.387 . S
C120 C124 1.391 . S
C121 C120 1.387 . S
C121 C122 1.369 . S
C121 H130 0.929 . S
C122 N119 1.346 . S
C122 C121 1.369 . S
C122 H125 0.928 . S
C123 N119 1.345 . S
C123 C124 1.371 . S
C123 H126 0.931 . S
C124 C120 1.391 . S
C124 C123 1.371 . S
C124 H131 0.930 . S
H125 C122 0.928 . S
H126 C123 0.931 . S
H127 C103 0.930 . S
H128 C100 0.930 . S
H129 C109 0.930 . S
H130 C121 0.929 . S
H131 C124 0.930 . S
C132 C133 1.351 . S
C132 N135 1.368 . S
C132 H137 0.931 . S
C133 C132 1.351 . S
C133 N134 1.373 . S
C133 H161 0.930 . S
N134 C133 1.373 . S
N134 C136 1.340 . S
N135 C132 1.368 . S
N135 C136 1.321 . S
N135 Co138 2.135 . S
C136 N134 1.340 . S
C136 N135 1.321 . S
C136 H160 0.930 . S
H137 C132 0.931 . S
Co138 N135 2.135 . S
Co138 N141 2.121 . S
Co138 O146 2.055 . S
Co138 O149 2.039 . S
Co138 N152 2.140 . S
C139 O140 1.227 . S
C139 O149 1.265 . S
O140 C139 1.227 . S
N141 Co138 2.121 . S
N141 C143 1.375 . S
N141 C144 1.313 . S
C142 C143 1.338 . S
C142 N145 1.377 . S
C142 H162 0.930 . S
C143 N141 1.375 . S
C143 C142 1.338 . S
C143 H147 0.931 . S
C144 N141 1.313 . S
C144 N145 1.344 . S
C144 H148 0.930 . S
N145 C142 1.377 . S
N145 C144 1.344 . S
O146 Co138 2.055 . S
O146 C150 1.253 . S
H147 C143 0.931 . S
H148 C144 0.930 . S
O149 Co138 2.039 . S
O149 C139 1.265 . S
C150 O146 1.253 . S
C150 O151 1.227 . S
O151 C150 1.227 . S
N152 Co138 2.140 . S
N152 C155 1.346 . S
N152 C156 1.345 . S
C153 C154 1.387 . S
C153 C157 1.391 . S
C154 C153 1.387 . S
C154 C155 1.369 . S
C154 H163 0.929 . S
C155 N152 1.346 . S
C155 C154 1.369 . S
C155 H158 0.928 . S
C156 N152 1.345 . S
C156 C157 1.371 . S
C156 H159 0.931 . S
C157 C153 1.391 . S
C157 C156 1.371 . S
C157 H164 0.930 . S
H158 C155 0.928 . S
H159 C156 0.931 . S
H160 C136 0.930 . S
H161 C133 0.930 . S
H162 C142 0.930 . S
H163 C154 0.929 . S
H164 C157 0.930 . S
C165 C166 1.351 . S
C165 N168 1.368 . S
C165 H170 0.931 . S
C166 C165 1.351 . S
C166 N167 1.373 . S
C166 H194 0.930 . S
N167 C166 1.373 . S
N167 C169 1.340 . S
N168 C165 1.368 . S
N168 C169 1.321 . S
N168 Co171 2.135 . S
C169 N167 1.340 . S
C169 N168 1.321 . S
C169 H193 0.930 . S
H170 C165 0.931 . S
Co171 N168 2.135 . S
Co171 N174 2.121 . S
Co171 O179 2.055 . S
Co171 O182 2.039 . S
Co171 N185 2.140 . S
C172 O173 1.227 . S
C172 O182 1.265 . S
O173 C172 1.227 . S
N174 Co171 2.121 . S
N174 C176 1.375 . S
N174 C177 1.313 . S
C175 C176 1.338 . S
C175 N178 1.377 . S
C175 H195 0.930 . S
C176 N174 1.375 . S
C176 C175 1.338 . S
C176 H180 0.931 . S
C177 N174 1.313 . S
C177 N178 1.344 . S
C177 H181 0.930 . S
N178 C175 1.377 . S
N178 C177 1.344 . S
O179 Co171 2.055 . S
O179 C183 1.253 . S
H180 C176 0.931 . S
H181 C177 0.930 . S
O182 Co171 2.039 . S
O182 C172 1.265 . S
C183 O179 1.253 . S
C183 O184 1.227 . S
O184 C183 1.227 . S
N185 Co171 2.140 . S
N185 C188 1.346 . S
N185 C189 1.345 . S
C186 C187 1.387 . S
C186 C190 1.391 . S
C187 C186 1.387 . S
C187 C188 1.369 . S
C187 H196 0.929 . S
C188 N185 1.346 . S
C188 C187 1.369 . S
C188 H191 0.928 . S
C189 N185 1.345 . S
C189 C190 1.371 . S
C189 H192 0.931 . S
C190 C186 1.391 . S
C190 C189 1.371 . S
C190 H197 0.930 . S
H191 C188 0.928 . S
H192 C189 0.931 . S
H193 C169 0.930 . S
H194 C166 0.930 . S
H195 C175 0.930 . S
H196 C187 0.929 . S
H197 C190 0.930 . S
C198 C199 1.351 . S
C198 N201 1.368 . S
C198 H203 0.931 . S
C199 C198 1.351 . S
C199 N200 1.373 . S
C199 H227 0.930 . S
N200 C199 1.373 . S
N200 C202 1.340 . S
N201 C198 1.368 . S
N201 C202 1.321 . S
N201 Co204 2.135 . S
C202 N200 1.340 . S
C202 N201 1.321 . S
C202 H226 0.930 . S
H203 C198 0.931 . S
Co204 N201 2.135 . S
Co204 N207 2.121 . S
Co204 O212 2.055 . S
Co204 O215 2.039 . S
Co204 N218 2.140 . S
C205 O206 1.227 . S
C205 O215 1.265 . S
O206 C205 1.227 . S
N207 Co204 2.121 . S
N207 C209 1.375 . S
N207 C210 1.313 . S
C208 C209 1.338 . S
C208 N211 1.377 . S
C208 H228 0.930 . S
C209 N207 1.375 . S
C209 C208 1.338 . S
C209 H213 0.931 . S
C210 N207 1.313 . S
C210 N211 1.344 . S
C210 H214 0.930 . S
N211 C208 1.377 . S
N211 C210 1.344 . S
O212 Co204 2.055 . S
O212 C216 1.253 . S
H213 C209 0.931 . S
H214 C210 0.930 . S
O215 Co204 2.039 . S
O215 C205 1.265 . S
C216 O212 1.253 . S
C216 O217 1.227 . S
O217 C216 1.227 . S
N218 Co204 2.140 . S
N218 C221 1.346 . S
N218 C222 1.345 . S
C219 C220 1.387 . S
C219 C223 1.391 . S
C220 C219 1.387 . S
C220 C221 1.369 . S
C220 H229 0.929 . S
C221 N218 1.346 . S
C221 C220 1.369 . S
C221 H224 0.928 . S
C222 N218 1.345 . S
C222 C223 1.371 . S
C222 H225 0.931 . S
C223 C219 1.391 . S
C223 C222 1.371 . S
C223 H230 0.930 . S
H224 C221 0.928 . S
H225 C222 0.931 . S
H226 C202 0.930 . S
H227 C199 0.930 . S
H228 C208 0.930 . S
H229 C220 0.929 . S
H230 C223 0.930 . S
C231 C232 1.351 . S
C231 N234 1.368 . S
C231 H236 0.931 . S
C232 C231 1.351 . S
C232 N233 1.373 . S
C232 H260 0.930 . S
N233 C232 1.373 . S
N233 C235 1.340 . S
N234 C231 1.368 . S
N234 C235 1.321 . S
N234 Co237 2.135 . S
C235 N233 1.340 . S
C235 N234 1.321 . S
C235 H259 0.930 . S
H236 C231 0.931 . S
Co237 N234 2.135 . S
Co237 N240 2.121 . S
Co237 O245 2.055 . S
Co237 O248 2.039 . S
Co237 N251 2.140 . S
C238 O239 1.227 . S
C238 O248 1.265 . S
O239 C238 1.227 . S
N240 Co237 2.121 . S
N240 C242 1.375 . S
N240 C243 1.313 . S
C241 C242 1.338 . S
C241 N244 1.377 . S
C241 H261 0.930 . S
C242 N240 1.375 . S
C242 C241 1.338 . S
C242 H246 0.931 . S
C243 N240 1.313 . S
C243 N244 1.344 . S
C243 H247 0.930 . S
N244 C241 1.377 . S
N244 C243 1.344 . S
O245 Co237 2.055 . S
O245 C249 1.253 . S
H246 C242 0.931 . S
H247 C243 0.930 . S
O248 Co237 2.039 . S
O248 C238 1.265 . S
C249 O245 1.253 . S
C249 O250 1.227 . S
O250 C249 1.227 . S
N251 Co237 2.140 . S
N251 C254 1.346 . S
N251 C255 1.345 . S
C252 C253 1.387 . S
C252 C256 1.391 . S
C253 C252 1.387 . S
C253 C254 1.369 . S
C253 H262 0.929 . S
C254 N251 1.346 . S
C254 C253 1.369 . S
C254 H257 0.928 . S
C255 N251 1.345 . S
C255 C256 1.371 . S
C255 H258 0.931 . S
C256 C252 1.391 . S
C256 C255 1.371 . S
C256 H263 0.930 . S
H257 C254 0.928 . S
H258 C255 0.931 . S
H259 C235 0.930 . S
H260 C232 0.930 . S
H261 C241 0.930 . S
H262 C253 0.929 . S
H263 C256 0.930 . S
C264 C265 1.351 . S
C264 N267 1.368 . S
C264 H269 0.931 . S
C265 C264 1.351 . S
C265 N266 1.373 . S
C265 H293 0.930 . S
N266 C265 1.373 . S
N266 C268 1.340 . S
N267 C264 1.368 . S
N267 C268 1.321 . S
N267 Co270 2.135 . S
C268 N266 1.340 . S
C268 N267 1.321 . S
C268 H292 0.930 . S
H269 C264 0.931 . S
Co270 N267 2.135 . S
Co270 N273 2.121 . S
Co270 O278 2.055 . S
Co270 O281 2.039 . S
Co270 N284 2.140 . S
C271 O272 1.227 . S
C271 O281 1.265 . S
O272 C271 1.227 . S
N273 Co270 2.121 . S
N273 C275 1.375 . S
N273 C276 1.313 . S
C274 C275 1.338 . S
C274 N277 1.377 . S
C274 H294 0.930 . S
C275 N273 1.375 . S
C275 C274 1.338 . S
C275 H279 0.931 . S
C276 N273 1.313 . S
C276 N277 1.344 . S
C276 H280 0.930 . S
N277 C274 1.377 . S
N277 C276 1.344 . S
O278 Co270 2.055 . S
O278 C282 1.253 . S
H279 C275 0.931 . S
H280 C276 0.930 . S
O281 Co270 2.039 . S
O281 C271 1.265 . S
C282 O278 1.253 . S
C282 O283 1.227 . S
O283 C282 1.227 . S
N284 Co270 2.140 . S
N284 C287 1.346 . S
N284 C288 1.345 . S
C285 C286 1.387 . S
C285 C289 1.391 . S
C286 C285 1.387 . S
C286 C287 1.369 . S
C286 H295 0.929 . S
C287 N284 1.346 . S
C287 C286 1.369 . S
C287 H290 0.928 . S
C288 N284 1.345 . S
C288 C289 1.371 . S
C288 H291 0.931 . S
C289 C285 1.391 . S
C289 C288 1.371 . S
C289 H296 0.930 . S
H290 C287 0.928 . S
H291 C288 0.931 . S
H292 C268 0.930 . S
H293 C265 0.930 . S
H294 C274 0.930 . S
H295 C286 0.929 . S
H296 C289 0.930 . S
C297 C298 1.351 . S
C297 N300 1.368 . S
C297 H302 0.931 . S
C298 C297 1.351 . S
C298 N299 1.373 . S
C298 H326 0.930 . S
N299 C298 1.373 . S
N299 C301 1.340 . S
N300 C297 1.368 . S
N300 C301 1.321 . S
N300 Co303 2.135 . S
C301 N299 1.340 . S
C301 N300 1.321 . S
C301 H325 0.930 . S
H302 C297 0.931 . S
Co303 N300 2.135 . S
Co303 N306 2.121 . S
Co303 O311 2.055 . S
Co303 O314 2.039 . S
Co303 N317 2.140 . S
C304 O305 1.227 . S
C304 O314 1.265 . S
O305 C304 1.227 . S
N306 Co303 2.121 . S
N306 C308 1.375 . S
N306 C309 1.313 . S
C307 C308 1.338 . S
C307 N310 1.377 . S
C307 H327 0.930 . S
C308 N306 1.375 . S
C308 C307 1.338 . S
C308 H312 0.931 . S
C309 N306 1.313 . S
C309 N310 1.344 . S
C309 H313 0.930 . S
N310 C307 1.377 . S
N310 C309 1.344 . S
O311 Co303 2.055 . S
O311 C315 1.253 . S
H312 C308 0.931 . S
H313 C309 0.930 . S
O314 Co303 2.039 . S
O314 C304 1.265 . S
C315 O311 1.253 . S
C315 O316 1.227 . S
O316 C315 1.227 . S
N317 Co303 2.140 . S
N317 C320 1.346 . S
N317 C321 1.345 . S
C318 C319 1.387 . S
C318 C322 1.391 . S
C319 C318 1.387 . S
C319 C320 1.369 . S
C319 H328 0.929 . S
C320 N317 1.346 . S
C320 C319 1.369 . S
C320 H323 0.928 . S
C321 N317 1.345 . S
C321 C322 1.371 . S
C321 H324 0.931 . S
C322 C318 1.391 . S
C322 C321 1.371 . S
C322 H329 0.930 . S
H323 C320 0.928 . S
H324 C321 0.931 . S
H325 C301 0.930 . S
H326 C298 0.930 . S
H327 C307 0.930 . S
H328 C319 0.929 . S
H329 C322 0.930 . S
C330 C331 1.351 . S
C330 N333 1.368 . S
C330 H335 0.931 . S
C331 C330 1.351 . S
C331 N332 1.373 . S
C331 H359 0.930 . S
N332 C331 1.373 . S
N332 C334 1.340 . S
N333 C330 1.368 . S
N333 C334 1.321 . S
N333 Co336 2.135 . S
C334 N332 1.340 . S
C334 N333 1.321 . S
C334 H358 0.930 . S
H335 C330 0.931 . S
Co336 N333 2.135 . S
Co336 N339 2.121 . S
Co336 O344 2.055 . S
Co336 O347 2.039 . S
Co336 N350 2.140 . S
C337 O338 1.227 . S
C337 O347 1.265 . S
O338 C337 1.227 . S
N339 Co336 2.121 . S
N339 C341 1.375 . S
N339 C342 1.313 . S
C340 C341 1.338 . S
C340 N343 1.377 . S
C340 H360 0.930 . S
C341 N339 1.375 . S
C341 C340 1.338 . S
C341 H345 0.931 . S
C342 N339 1.313 . S
C342 N343 1.344 . S
C342 H346 0.930 . S
N343 C340 1.377 . S
N343 C342 1.344 . S
O344 Co336 2.055 . S
O344 C348 1.253 . S
H345 C341 0.931 . S
H346 C342 0.930 . S
O347 Co336 2.039 . S
O347 C337 1.265 . S
C348 O344 1.253 . S
C348 O349 1.227 . S
O349 C348 1.227 . S
N350 Co336 2.140 . S
N350 C353 1.346 . S
N350 C354 1.345 . S
C351 C352 1.387 . S
C351 C355 1.391 . S
C352 C351 1.387 . S
C352 C353 1.369 . S
C352 H361 0.929 . S
C353 N350 1.346 . S
C353 C352 1.369 . S
C353 H356 0.928 . S
C354 N350 1.345 . S
C354 C355 1.371 . S
C354 H357 0.931 . S
C355 C351 1.391 . S
C355 C354 1.371 . S
C355 H362 0.930 . S
H356 C353 0.928 . S
H357 C354 0.931 . S
H358 C334 0.930 . S
H359 C331 0.930 . S
H360 C340 0.930 . S
H361 C352 0.929 . S
H362 C355 0.930 . S
C363 C364 1.351 . S
C363 N366 1.368 . S
C363 H368 0.931 . S
C364 C363 1.351 . S
C364 N365 1.373 . S
C364 H392 0.930 . S
N365 C364 1.373 . S
N365 C367 1.340 . S
N366 C363 1.368 . S
N366 C367 1.321 . S
N366 Co369 2.135 . S
C367 N365 1.340 . S
C367 N366 1.321 . S
C367 H391 0.930 . S
H368 C363 0.931 . S
Co369 N366 2.135 . S
Co369 N372 2.121 . S
Co369 O377 2.055 . S
Co369 O380 2.039 . S
Co369 N383 2.140 . S
C370 O371 1.227 . S
C370 O380 1.265 . S
O371 C370 1.227 . S
N372 Co369 2.121 . S
N372 C374 1.375 . S
N372 C375 1.313 . S
C373 C374 1.338 . S
C373 N376 1.377 . S
C373 H393 0.930 . S
C374 N372 1.375 . S
C374 C373 1.338 . S
C374 H378 0.931 . S
C375 N372 1.313 . S
C375 N376 1.344 . S
C375 H379 0.930 . S
N376 C373 1.377 . S
N376 C375 1.344 . S
O377 Co369 2.055 . S
O377 C381 1.253 . S
H378 C374 0.931 . S
H379 C375 0.930 . S
O380 Co369 2.039 . S
O380 C370 1.265 . S
C381 O377 1.253 . S
C381 O382 1.227 . S
O382 C381 1.227 . S
N383 Co369 2.140 . S
N383 C386 1.346 . S
N383 C387 1.345 . S
C384 C385 1.387 . S
C384 C388 1.391 . S
C385 C384 1.387 . S
C385 C386 1.369 . S
C385 H394 0.929 . S
C386 N383 1.346 . S
C386 C385 1.369 . S
C386 H389 0.928 . S
C387 N383 1.345 . S
C387 C388 1.371 . S
C387 H390 0.931 . S
C388 C384 1.391 . S
C388 C387 1.371 . S
C388 H395 0.930 . S
H389 C386 0.928 . S
H390 C387 0.931 . S
H391 C367 0.930 . S
H392 C364 0.930 . S
H393 C373 0.930 . S
H394 C385 0.929 . S
H395 C388 0.930 . S
C396 C397 1.351 . S
C396 N399 1.368 . S
C396 H401 0.931 . S
C397 C396 1.351 . S
C397 N398 1.373 . S
C397 H425 0.930 . S
N398 C397 1.373 . S
N398 C400 1.340 . S
N399 C396 1.368 . S
N399 C400 1.321 . S
N399 Co402 2.135 . S
C400 N398 1.340 . S
C400 N399 1.321 . S
C400 H424 0.930 . S
H401 C396 0.931 . S
Co402 N399 2.135 . S
Co402 N405 2.121 . S
Co402 O410 2.055 . S
Co402 O413 2.039 . S
Co402 N416 2.140 . S
C403 O404 1.227 . S
C403 O413 1.265 . S
O404 C403 1.227 . S
N405 Co402 2.121 . S
N405 C407 1.375 . S
N405 C408 1.313 . S
C406 C407 1.338 . S
C406 N409 1.377 . S
C406 H426 0.930 . S
C407 N405 1.375 . S
C407 C406 1.338 . S
C407 H411 0.931 . S
C408 N405 1.313 . S
C408 N409 1.344 . S
C408 H412 0.930 . S
N409 C406 1.377 . S
N409 C408 1.344 . S
O410 Co402 2.055 . S
O410 C414 1.253 . S
H411 C407 0.931 . S
H412 C408 0.930 . S
O413 Co402 2.039 . S
O413 C403 1.265 . S
C414 O410 1.253 . S
C414 O415 1.227 . S
O415 C414 1.227 . S
N416 Co402 2.140 . S
N416 C419 1.346 . S
N416 C420 1.345 . S
C417 C418 1.387 . S
C417 C421 1.391 . S
C418 C417 1.387 . S
C418 C419 1.369 . S
C418 H427 0.929 . S
C419 N416 1.346 . S
C419 C418 1.369 . S
C419 H422 0.928 . S
C420 N416 1.345 . S
C420 C421 1.371 . S
C420 H423 0.931 . S
C421 C417 1.391 . S
C421 C420 1.371 . S
C421 H428 0.930 . S
H422 C419 0.928 . S
H423 C420 0.931 . S
H424 C400 0.930 . S
H425 C397 0.930 . S
H426 C406 0.930 . S
H427 C418 0.929 . S
H428 C421 0.930 . S
C429 C430 1.351 . S
C429 N432 1.368 . S
C429 H434 0.931 . S
C430 C429 1.351 . S
C430 N431 1.373 . S
C430 H458 0.930 . S
N431 C430 1.373 . S
N431 C433 1.340 . S
N432 C429 1.368 . S
N432 C433 1.321 . S
N432 Co435 2.135 . S
C433 N431 1.340 . S
C433 N432 1.321 . S
C433 H457 0.930 . S
H434 C429 0.931 . S
Co435 N432 2.135 . S
Co435 N438 2.121 . S
Co435 O443 2.055 . S
Co435 O446 2.039 . S
Co435 N449 2.140 . S
C436 O437 1.227 . S
C436 O446 1.265 . S
O437 C436 1.227 . S
N438 Co435 2.121 . S
N438 C440 1.375 . S
N438 C441 1.313 . S
C439 C440 1.338 . S
C439 N442 1.377 . S
C439 H459 0.930 . S
C440 N438 1.375 . S
C440 C439 1.338 . S
C440 H444 0.931 . S
C441 N438 1.313 . S
C441 N442 1.344 . S
C441 H445 0.930 . S
N442 C439 1.377 . S
N442 C441 1.344 . S
O443 Co435 2.055 . S
O443 C447 1.253 . S
H444 C440 0.931 . S
H445 C441 0.930 . S
O446 Co435 2.039 . S
O446 C436 1.265 . S
C447 O443 1.253 . S
C447 O448 1.227 . S
O448 C447 1.227 . S
N449 Co435 2.140 . S
N449 C452 1.346 . S
N449 C453 1.345 . S
C450 C451 1.387 . S
C450 C454 1.391 . S
C451 C450 1.387 . S
C451 C452 1.369 . S
C451 H460 0.929 . S
C452 N449 1.346 . S
C452 C451 1.369 . S
C452 H455 0.928 . S
C453 N449 1.345 . S
C453 C454 1.371 . S
C453 H456 0.931 . S
C454 C450 1.391 . S
C454 C453 1.371 . S
C454 H461 0.930 . S
H455 C452 0.928 . S
H456 C453 0.931 . S
H457 C433 0.930 . S
H458 C430 0.930 . S
H459 C439 0.930 . S
H460 C451 0.929 . S
H461 C454 0.930 . S
C462 C463 1.351 . S
C462 N465 1.368 . S
C462 H467 0.931 . S
C463 C462 1.351 . S
C463 N464 1.373 . S
C463 H491 0.930 . S
N464 C463 1.373 . S
N464 C466 1.340 . S
N465 C462 1.368 . S
N465 C466 1.321 . S
N465 Co468 2.135 . S
C466 N464 1.340 . S
C466 N465 1.321 . S
C466 H490 0.930 . S
H467 C462 0.931 . S
Co468 N465 2.135 . S
Co468 N471 2.121 . S
Co468 O476 2.055 . S
Co468 O479 2.039 . S
Co468 N482 2.140 . S
C469 O470 1.227 . S
C469 O479 1.265 . S
O470 C469 1.227 . S
N471 Co468 2.121 . S
N471 C473 1.375 . S
N471 C474 1.313 . S
C472 C473 1.338 . S
C472 N475 1.377 . S
C472 H492 0.930 . S
C473 N471 1.375 . S
C473 C472 1.338 . S
C473 H477 0.931 . S
C474 N471 1.313 . S
C474 N475 1.344 . S
C474 H478 0.930 . S
N475 C472 1.377 . S
N475 C474 1.344 . S
O476 Co468 2.055 . S
O476 C480 1.253 . S
H477 C473 0.931 . S
H478 C474 0.930 . S
O479 Co468 2.039 . S
O479 C469 1.265 . S
C480 O476 1.253 . S
C480 O481 1.227 . S
O481 C480 1.227 . S
N482 Co468 2.140 . S
N482 C485 1.346 . S
N482 C486 1.345 . S
C483 C484 1.387 . S
C483 C487 1.391 . S
C484 C483 1.387 . S
C484 C485 1.369 . S
C484 H493 0.929 . S
C485 N482 1.346 . S
C485 C484 1.369 . S
C485 H488 0.928 . S
C486 N482 1.345 . S
C486 C487 1.371 . S
C486 H489 0.931 . S
C487 C483 1.391 . S
C487 C486 1.371 . S
C487 H494 0.930 . S
H488 C485 0.928 . S
H489 C486 0.931 . S
H490 C466 0.930 . S
H491 C463 0.930 . S
H492 C472 0.930 . S
H493 C484 0.929 . S
H494 C487 0.930 . S
C495 C496 1.351 . S
C495 N498 1.368 . S
C495 H500 0.931 . S
C496 C495 1.351 . S
C496 N497 1.373 . S
C496 H524 0.930 . S
N497 C496 1.373 . S
N497 C499 1.340 . S
N498 C495 1.368 . S
N498 C499 1.321 . S
N498 Co501 2.135 . S
C499 N497 1.340 . S
C499 N498 1.321 . S
C499 H523 0.930 . S
H500 C495 0.931 . S
Co501 N498 2.135 . S
Co501 N504 2.121 . S
Co501 O509 2.055 . S
Co501 O512 2.039 . S
Co501 N515 2.140 . S
C502 O503 1.227 . S
C502 O512 1.265 . S
O503 C502 1.227 . S
N504 Co501 2.121 . S
N504 C506 1.375 . S
N504 C507 1.313 . S
C505 C506 1.338 . S
C505 N508 1.377 . S
C505 H525 0.930 . S
C506 N504 1.375 . S
C506 C505 1.338 . S
C506 H510 0.931 . S
C507 N504 1.313 . S
C507 N508 1.344 . S
C507 H511 0.930 . S
N508 C505 1.377 . S
N508 C507 1.344 . S
O509 Co501 2.055 . S
O509 C513 1.253 . S
H510 C506 0.931 . S
H511 C507 0.930 . S
O512 Co501 2.039 . S
O512 C502 1.265 . S
C513 O509 1.253 . S
C513 O514 1.227 . S
O514 C513 1.227 . S
N515 Co501 2.140 . S
N515 C518 1.346 . S
N515 C519 1.345 . S
C516 C517 1.387 . S
C516 C520 1.391 . S
C517 C516 1.387 . S
C517 C518 1.369 . S
C517 H526 0.929 . S
C518 N515 1.346 . S
C518 C517 1.369 . S
C518 H521 0.928 . S
C519 N515 1.345 . S
C519 C520 1.371 . S
C519 H522 0.931 . S
C520 C516 1.391 . S
C520 C519 1.371 . S
C520 H527 0.930 . S
H521 C518 0.928 . S
H522 C519 0.931 . S
H523 C499 0.930 . S
H524 C496 0.930 . S
H525 C505 0.930 . S
H526 C517 0.929 . S
H527 C520 0.930 . S
C528 C529 1.351 . S
C528 N531 1.368 . S
C528 H533 0.931 . S
C529 C528 1.351 . S
C529 N530 1.373 . S
C529 H557 0.930 . S
N530 C529 1.373 . S
N530 C532 1.340 . S
N531 C528 1.368 . S
N531 C532 1.321 . S
N531 Co534 2.135 . S
C532 N530 1.340 . S
C532 N531 1.321 . S
C532 H556 0.930 . S
H533 C528 0.931 . S
Co534 N531 2.135 . S
Co534 N537 2.121 . S
Co534 O542 2.055 . S
Co534 O545 2.039 . S
Co534 N548 2.140 . S
C535 O536 1.227 . S
C535 O545 1.265 . S
O536 C535 1.227 . S
N537 Co534 2.121 . S
N537 C539 1.375 . S
N537 C540 1.313 . S
C538 C539 1.338 . S
C538 N541 1.377 . S
C538 H558 0.930 . S
C539 N537 1.375 . S
C539 C538 1.338 . S
C539 H543 0.931 . S
C540 N537 1.313 . S
C540 N541 1.344 . S
C540 H544 0.930 . S
N541 C538 1.377 . S
N541 C540 1.344 . S
O542 Co534 2.055 . S
O542 C546 1.253 . S
H543 C539 0.931 . S
H544 C540 0.930 . S
O545 Co534 2.039 . S
O545 C535 1.265 . S
C546 O542 1.253 . S
C546 O547 1.227 . S
O547 C546 1.227 . S
N548 Co534 2.140 . S
N548 C551 1.346 . S
N548 C552 1.345 . S
C549 C550 1.387 . S
C549 C553 1.391 . S
C550 C549 1.387 . S
C550 C551 1.369 . S
C550 H559 0.929 . S
C551 N548 1.346 . S
C551 C550 1.369 . S
C551 H554 0.928 . S
C552 N548 1.345 . S
C552 C553 1.371 . S
C552 H555 0.931 . S
C553 C549 1.391 . S
C553 C552 1.371 . S
C553 H560 0.930 . S
H554 C551 0.928 . S
H555 C552 0.931 . S
H556 C532 0.930 . S
H557 C529 0.930 . S
H558 C538 0.930 . S
H559 C550 0.929 . S
H560 C553 0.930 . S
C561 C562 1.351 . S
C561 N564 1.368 . S
C561 H566 0.931 . S
C562 C561 1.351 . S
C562 N563 1.373 . S
C562 H590 0.930 . S
N563 C562 1.373 . S
N563 C565 1.340 . S
N564 C561 1.368 . S
N564 C565 1.321 . S
N564 Co567 2.135 . S
C565 N563 1.340 . S
C565 N564 1.321 . S
C565 H589 0.930 . S
H566 C561 0.931 . S
Co567 N564 2.135 . S
Co567 N570 2.121 . S
Co567 O575 2.055 . S
Co567 O578 2.039 . S
Co567 N581 2.140 . S
C568 O569 1.227 . S
C568 O578 1.265 . S
O569 C568 1.227 . S
N570 Co567 2.121 . S
N570 C572 1.375 . S
N570 C573 1.313 . S
C571 C572 1.338 . S
C571 N574 1.377 . S
C571 H591 0.930 . S
C572 N570 1.375 . S
C572 C571 1.338 . S
C572 H576 0.931 . S
C573 N570 1.313 . S
C573 N574 1.344 . S
C573 H577 0.930 . S
N574 C571 1.377 . S
N574 C573 1.344 . S
O575 Co567 2.055 . S
O575 C579 1.253 . S
H576 C572 0.931 . S
H577 C573 0.930 . S
O578 Co567 2.039 . S
O578 C568 1.265 . S
C579 O575 1.253 . S
C579 O580 1.227 . S
O580 C579 1.227 . S
N581 Co567 2.140 . S
N581 C584 1.346 . S
N581 C585 1.345 . S
C582 C583 1.387 . S
C582 C586 1.391 . S
C583 C582 1.387 . S
C583 C584 1.369 . S
C583 H592 0.929 . S
C584 N581 1.346 . S
C584 C583 1.369 . S
C584 H587 0.928 . S
C585 N581 1.345 . S
C585 C586 1.371 . S
C585 H588 0.931 . S
C586 C582 1.391 . S
C586 C585 1.371 . S
C586 H593 0.930 . S
H587 C584 0.928 . S
H588 C585 0.931 . S
H589 C565 0.930 . S
H590 C562 0.930 . S
H591 C571 0.930 . S
H592 C583 0.929 . S
H593 C586 0.930 . S
C594 C595 1.351 . S
C594 N597 1.368 . S
C594 H599 0.931 . S
C595 C594 1.351 . S
C595 N596 1.373 . S
C595 H623 0.930 . S
N596 C595 1.373 . S
N596 C598 1.340 . S
N597 C594 1.368 . S
N597 C598 1.321 . S
N597 Co600 2.135 . S
C598 N596 1.340 . S
C598 N597 1.321 . S
C598 H622 0.930 . S
H599 C594 0.931 . S
Co600 N597 2.135 . S
Co600 N603 2.121 . S
Co600 O608 2.055 . S
Co600 O611 2.039 . S
Co600 N614 2.140 . S
C601 O602 1.227 . S
C601 O611 1.265 . S
O602 C601 1.227 . S
N603 Co600 2.121 . S
N603 C605 1.375 . S
N603 C606 1.313 . S
C604 C605 1.338 . S
C604 N607 1.377 . S
C604 H624 0.930 . S
C605 N603 1.375 . S
C605 C604 1.338 . S
C605 H609 0.931 . S
C606 N603 1.313 . S
C606 N607 1.344 . S
C606 H610 0.930 . S
N607 C604 1.377 . S
N607 C606 1.344 . S
O608 Co600 2.055 . S
O608 C612 1.253 . S
H609 C605 0.931 . S
H610 C606 0.930 . S
O611 Co600 2.039 . S
O611 C601 1.265 . S
C612 O608 1.253 . S
C612 O613 1.227 . S
O613 C612 1.227 . S
N614 Co600 2.140 . S
N614 C617 1.346 . S
N614 C618 1.345 . S
C615 C616 1.387 . S
C615 C619 1.391 . S
C616 C615 1.387 . S
C616 C617 1.369 . S
C616 H625 0.929 . S
C617 N614 1.346 . S
C617 C616 1.369 . S
C617 H620 0.928 . S
C618 N614 1.345 . S
C618 C619 1.371 . S
C618 H621 0.931 . S
C619 C615 1.391 . S
C619 C618 1.371 . S
C619 H626 0.930 . S
H620 C617 0.928 . S
H621 C618 0.931 . S
H622 C598 0.930 . S
H623 C595 0.930 . S
H624 C604 0.930 . S
H625 C616 0.929 . S
H626 C619 0.930 . S
C627 C628 1.351 . S
C627 N630 1.368 . S
C627 H632 0.931 . S
C628 C627 1.351 . S
C628 N629 1.373 . S
C628 H656 0.930 . S
N629 C628 1.373 . S
N629 C631 1.340 . S
N630 C627 1.368 . S
N630 C631 1.321 . S
N630 Co633 2.135 . S
C631 N629 1.340 . S
C631 N630 1.321 . S
C631 H655 0.930 . S
H632 C627 0.931 . S
Co633 N630 2.135 . S
Co633 N636 2.121 . S
Co633 O641 2.055 . S
Co633 O644 2.039 . S
Co633 N647 2.140 . S
C634 O635 1.227 . S
C634 O644 1.265 . S
O635 C634 1.227 . S
N636 Co633 2.121 . S
N636 C638 1.375 . S
N636 C639 1.313 . S
C637 C638 1.338 . S
C637 N640 1.377 . S
C637 H657 0.930 . S
C638 N636 1.375 . S
C638 C637 1.338 . S
C638 H642 0.931 . S
C639 N636 1.313 . S
C639 N640 1.344 . S
C639 H643 0.930 . S
N640 C637 1.377 . S
N640 C639 1.344 . S
O641 Co633 2.055 . S
O641 C645 1.253 . S
H642 C638 0.931 . S
H643 C639 0.930 . S
O644 Co633 2.039 . S
O644 C634 1.265 . S
C645 O641 1.253 . S
C645 O646 1.227 . S
O646 C645 1.227 . S
N647 Co633 2.140 . S
N647 C650 1.346 . S
N647 C651 1.345 . S
C648 C649 1.387 . S
C648 C652 1.391 . S
C649 C648 1.387 . S
C649 C650 1.369 . S
C649 H658 0.929 . S
C650 N647 1.346 . S
C650 C649 1.369 . S
C650 H653 0.928 . S
C651 N647 1.345 . S
C651 C652 1.371 . S
C651 H654 0.931 . S
C652 C648 1.391 . S
C652 C651 1.371 . S
C652 H659 0.930 . S
H653 C650 0.928 . S
H654 C651 0.931 . S
H655 C631 0.930 . S
H656 C628 0.930 . S
H657 C637 0.930 . S
H658 C649 0.929 . S
H659 C652 0.930 . S
C660 C661 1.351 . S
C660 N663 1.368 . S
C660 H665 0.931 . S
C661 C660 1.351 . S
C661 N662 1.373 . S
C661 H689 0.930 . S
N662 C661 1.373 . S
N662 C664 1.340 . S
N663 C660 1.368 . S
N663 C664 1.321 . S
N663 Co666 2.135 . S
C664 N662 1.340 . S
C664 N663 1.321 . S
C664 H688 0.930 . S
H665 C660 0.931 . S
Co666 N663 2.135 . S
Co666 N669 2.121 . S
Co666 O674 2.055 . S
Co666 O677 2.039 . S
Co666 N680 2.140 . S
C667 O668 1.227 . S
C667 O677 1.265 . S
O668 C667 1.227 . S
N669 Co666 2.121 . S
N669 C671 1.375 . S
N669 C672 1.313 . S
C670 C671 1.338 . S
C670 N673 1.377 . S
C670 H690 0.930 . S
C671 N669 1.375 . S
C671 C670 1.338 . S
C671 H675 0.931 . S
C672 N669 1.313 . S
C672 N673 1.344 . S
C672 H676 0.930 . S
N673 C670 1.377 . S
N673 C672 1.344 . S
O674 Co666 2.055 . S
O674 C678 1.253 . S
H675 C671 0.931 . S
H676 C672 0.930 . S
O677 Co666 2.039 . S
O677 C667 1.265 . S
C678 O674 1.253 . S
C678 O679 1.227 . S
O679 C678 1.227 . S
N680 Co666 2.140 . S
N680 C683 1.346 . S
N680 C684 1.345 . S
C681 C682 1.387 . S
C681 C685 1.391 . S
C682 C681 1.387 . S
C682 C683 1.369 . S
C682 H691 0.929 . S
C683 N680 1.346 . S
C683 C682 1.369 . S
C683 H686 0.928 . S
C684 N680 1.345 . S
C684 C685 1.371 . S
C684 H687 0.931 . S
C685 C681 1.391 . S
C685 C684 1.371 . S
C685 H692 0.930 . S
H686 C683 0.928 . S
H687 C684 0.931 . S
H688 C664 0.930 . S
H689 C661 0.930 . S
H690 C670 0.930 . S
H691 C682 0.929 . S
H692 C685 0.930 . S
C693 C694 1.351 . S
C693 N696 1.368 . S
C693 H698 0.931 . S
C694 C693 1.351 . S
C694 N695 1.373 . S
C694 H722 0.930 . S
N695 C694 1.373 . S
N695 C697 1.340 . S
N696 C693 1.368 . S
N696 C697 1.321 . S
N696 Co699 2.135 . S
C697 N695 1.340 . S
C697 N696 1.321 . S
C697 H721 0.930 . S
H698 C693 0.931 . S
Co699 N696 2.135 . S
Co699 N702 2.121 . S
Co699 O707 2.055 . S
Co699 O710 2.039 . S
Co699 N713 2.140 . S
C700 O701 1.227 . S
C700 O710 1.265 . S
O701 C700 1.227 . S
N702 Co699 2.121 . S
N702 C704 1.375 . S
N702 C705 1.313 . S
C703 C704 1.338 . S
C703 N706 1.377 . S
C703 H723 0.930 . S
C704 N702 1.375 . S
C704 C703 1.338 . S
C704 H708 0.931 . S
C705 N702 1.313 . S
C705 N706 1.344 . S
C705 H709 0.930 . S
N706 C703 1.377 . S
N706 C705 1.344 . S
O707 Co699 2.055 . S
O707 C711 1.253 . S
H708 C704 0.931 . S
H709 C705 0.930 . S
O710 Co699 2.039 . S
O710 C700 1.265 . S
C711 O707 1.253 . S
C711 O712 1.227 . S
O712 C711 1.227 . S
N713 Co699 2.140 . S
N713 C716 1.346 . S
N713 C717 1.345 . S
C714 C715 1.387 . S
C714 C718 1.391 . S
C715 C714 1.387 . S
C715 C716 1.369 . S
C715 H724 0.929 . S
C716 N713 1.346 . S
C716 C715 1.369 . S
C716 H719 0.928 . S
C717 N713 1.345 . S
C717 C718 1.371 . S
C717 H720 0.931 . S
C718 C714 1.391 . S
C718 C717 1.371 . S
C718 H725 0.930 . S
H719 C716 0.928 . S
H720 C717 0.931 . S
H721 C697 0.930 . S
H722 C694 0.930 . S
H723 C703 0.930 . S
H724 C715 0.929 . S
H725 C718 0.930 . S
C726 C727 1.351 . S
C726 N729 1.368 . S
C726 H731 0.931 . S
C727 C726 1.351 . S
C727 N728 1.373 . S
C727 H755 0.930 . S
N728 C727 1.373 . S
N728 C730 1.340 . S
N729 C726 1.368 . S
N729 C730 1.321 . S
N729 Co732 2.135 . S
C730 N728 1.340 . S
C730 N729 1.321 . S
C730 H754 0.930 . S
H731 C726 0.931 . S
Co732 N729 2.135 . S
Co732 N735 2.121 . S
Co732 O740 2.055 . S
Co732 O743 2.039 . S
Co732 N746 2.140 . S
C733 O734 1.227 . S
C733 O743 1.265 . S
O734 C733 1.227 . S
N735 Co732 2.121 . S
N735 C737 1.375 . S
N735 C738 1.313 . S
C736 C737 1.338 . S
C736 N739 1.377 . S
C736 H756 0.930 . S
C737 N735 1.375 . S
C737 C736 1.338 . S
C737 H741 0.931 . S
C738 N735 1.313 . S
C738 N739 1.344 . S
C738 H742 0.930 . S
N739 C736 1.377 . S
N739 C738 1.344 . S
O740 Co732 2.055 . S
O740 C744 1.253 . S
H741 C737 0.931 . S
H742 C738 0.930 . S
O743 Co732 2.039 . S
O743 C733 1.265 . S
C744 O740 1.253 . S
C744 O745 1.227 . S
O745 C744 1.227 . S
N746 Co732 2.140 . S
N746 C749 1.346 . S
N746 C750 1.345 . S
C747 C748 1.387 . S
C747 C751 1.391 . S
C748 C747 1.387 . S
C748 C749 1.369 . S
C748 H757 0.929 . S
C749 N746 1.346 . S
C749 C748 1.369 . S
C749 H752 0.928 . S
C750 N746 1.345 . S
C750 C751 1.371 . S
C750 H753 0.931 . S
C751 C747 1.391 . S
C751 C750 1.371 . S
C751 H758 0.930 . S
H752 C749 0.928 . S
H753 C750 0.931 . S
H754 C730 0.930 . S
H755 C727 0.930 . S
H756 C736 0.930 . S
H757 C748 0.929 . S
H758 C751 0.930 . S
C759 C760 1.351 . S
C759 N762 1.368 . S
C759 H764 0.931 . S
C760 C759 1.351 . S
C760 N761 1.373 . S
C760 H788 0.930 . S
N761 C760 1.373 . S
N761 C763 1.340 . S
N762 C759 1.368 . S
N762 C763 1.321 . S
N762 Co765 2.135 . S
C763 N761 1.340 . S
C763 N762 1.321 . S
C763 H787 0.930 . S
H764 C759 0.931 . S
Co765 N762 2.135 . S
Co765 N768 2.121 . S
Co765 O773 2.055 . S
Co765 O776 2.039 . S
Co765 N779 2.140 . S
C766 O767 1.227 . S
C766 O776 1.265 . S
O767 C766 1.227 . S
N768 Co765 2.121 . S
N768 C770 1.375 . S
N768 C771 1.313 . S
C769 C770 1.338 . S
C769 N772 1.377 . S
C769 H789 0.930 . S
C770 N768 1.375 . S
C770 C769 1.338 . S
C770 H774 0.931 . S
C771 N768 1.313 . S
C771 N772 1.344 . S
C771 H775 0.930 . S
N772 C769 1.377 . S
N772 C771 1.344 . S
O773 Co765 2.055 . S
O773 C777 1.253 . S
H774 C770 0.931 . S
H775 C771 0.930 . S
O776 Co765 2.039 . S
O776 C766 1.265 . S
C777 O773 1.253 . S
C777 O778 1.227 . S
O778 C777 1.227 . S
N779 Co765 2.140 . S
N779 C782 1.346 . S
N779 C783 1.345 . S
C780 C781 1.387 . S
C780 C784 1.391 . S
C781 C780 1.387 . S
C781 C782 1.369 . S
C781 H790 0.929 . S
C782 N779 1.346 . S
C782 C781 1.369 . S
C782 H785 0.928 . S
C783 N779 1.345 . S
C783 C784 1.371 . S
C783 H786 0.931 . S
C784 C780 1.391 . S
C784 C783 1.371 . S
C784 H791 0.930 . S
H785 C782 0.928 . S
H786 C783 0.931 . S
H787 C763 0.930 . S
H788 C760 0.930 . S
H789 C769 0.930 . S
H790 C781 0.929 . S
H791 C784 0.930 . S
H792 C798 0.930 . S
H793 C802 0.930 . S
H794 C807 0.929 . S
H795 C805 0.929 . S
H796 C800 0.929 . S
H797 C806 0.929 . S
C798 H792 0.930 . S
C798 C799 1.367 . S
C798 C806 1.378 . S
C799 C798 1.367 . S
C799 C807 1.433 . S
C800 H796 0.929 . S
C800 C802 1.378 . S
C800 C804 1.350 . S
C801 C804 1.463 . S
C801 C806 1.350 . S
C801 N809 1.427 . S
C802 H793 0.930 . S
C802 C800 1.378 . S
C802 C803 1.367 . S
C803 C802 1.367 . S
C803 C805 1.433 . S
C804 C800 1.350 . S
C804 C801 1.463 . S
C804 N808 1.427 . S
C805 H795 0.929 . S
C805 C803 1.433 . S
C805 N808 1.384 . S
C806 H797 0.929 . S
C806 C798 1.378 . S
C806 C801 1.350 . S
C807 H794 0.929 . S
C807 C799 1.433 . S
C807 N809 1.384 . S
N808 C804 1.427 . S
N808 C805 1.384 . S
N809 C801 1.427 . S
N809 C807 1.384 . S
H810 C816 0.930 . S
H811 C820 0.930 . S
H812 C825 0.929 . S
H813 C823 0.929 . S
H814 C818 0.929 . S
H815 C824 0.929 . S
C816 H810 0.930 . S
C816 C817 1.367 . S
C816 C824 1.378 . S
C817 C816 1.367 . S
C817 C825 1.433 . S
C818 H814 0.929 . S
C818 C820 1.378 . S
C818 C822 1.350 . S
C819 C822 1.463 . S
C819 C824 1.350 . S
C819 N827 1.427 . S
C820 H811 0.930 . S
C820 C818 1.378 . S
C820 C821 1.367 . S
C821 C820 1.367 . S
C821 C823 1.433 . S
C822 C818 1.350 . S
C822 C819 1.463 . S
C822 N826 1.427 . S
C823 H813 0.929 . S
C823 C821 1.433 . S
C823 N826 1.384 . S
C824 H815 0.929 . S
C824 C816 1.378 . S
C824 C819 1.350 . S
C825 H812 0.929 . S
C825 C817 1.433 . S
C825 N827 1.384 . S
N826 C822 1.427 . S
N826 C823 1.384 . S
N827 C819 1.427 . S
N827 C825 1.384 . S
H828 C834 0.930 . S
H829 C838 0.930 . S
H830 C843 0.929 . S
H831 C841 0.929 . S
H832 C836 0.929 . S
H833 C842 0.929 . S
C834 H828 0.930 . S
C834 C835 1.367 . S
C834 C842 1.378 . S
C835 C834 1.367 . S
C835 C843 1.433 . S
C836 H832 0.929 . S
C836 C838 1.378 . S
C836 C840 1.350 . S
C837 C840 1.463 . S
C837 C842 1.350 . S
C837 N845 1.427 . S
C838 H829 0.930 . S
C838 C836 1.378 . S
C838 C839 1.367 . S
C839 C838 1.367 . S
C839 C841 1.433 . S
C840 C836 1.350 . S
C840 C837 1.463 . S
C840 N844 1.427 . S
C841 H831 0.929 . S
C841 C839 1.433 . S
C841 N844 1.384 . S
C842 H833 0.929 . S
C842 C834 1.378 . S
C842 C837 1.350 . S
C843 H830 0.929 . S
C843 C835 1.433 . S
C843 N845 1.384 . S
N844 C840 1.427 . S
N844 C841 1.384 . S
N845 C837 1.427 . S
N845 C843 1.384 . S
H846 C852 0.930 . S
H847 C856 0.930 . S
H848 C861 0.929 . S
H849 C859 0.929 . S
H850 C854 0.929 . S
H851 C860 0.929 . S
C852 H846 0.930 . S
C852 C853 1.367 . S
C852 C860 1.378 . S
C853 C852 1.367 . S
C853 C861 1.433 . S
C854 H850 0.929 . S
C854 C856 1.378 . S
C854 C858 1.350 . S
C855 C858 1.463 . S
C855 C860 1.350 . S
C855 N863 1.427 . S
C856 H847 0.930 . S
C856 C854 1.378 . S
C856 C857 1.367 . S
C857 C856 1.367 . S
C857 C859 1.433 . S
C858 C854 1.350 . S
C858 C855 1.463 . S
C858 N862 1.427 . S
C859 H849 0.929 . S
C859 C857 1.433 . S
C859 N862 1.384 . S
C860 H851 0.929 . S
C860 C852 1.378 . S
C860 C855 1.350 . S
C861 H848 0.929 . S
C861 C853 1.433 . S
C861 N863 1.384 . S
N862 C858 1.427 . S
N862 C859 1.384 . S
N863 C855 1.427 . S
N863 C861 1.384 . S
H864 C870 0.930 . S
H865 C874 0.930 . S
H866 C879 0.929 . S
H867 C877 0.929 . S
H868 C872 0.929 . S
H869 C878 0.929 . S
C870 H864 0.930 . S
C870 C871 1.367 . S
C870 C878 1.378 . S
C871 C870 1.367 . S
C871 C879 1.433 . S
C872 H868 0.929 . S
C872 C874 1.378 . S
C872 C876 1.350 . S
C873 C876 1.463 . S
C873 C878 1.350 . S
C873 N881 1.427 . S
C874 H865 0.930 . S
C874 C872 1.378 . S
C874 C875 1.367 . S
C875 C874 1.367 . S
C875 C877 1.433 . S
C876 C872 1.350 . S
C876 C873 1.463 . S
C876 N880 1.427 . S
C877 H867 0.929 . S
C877 C875 1.433 . S
C877 N880 1.384 . S
C878 H869 0.929 . S
C878 C870 1.378 . S
C878 C873 1.350 . S
C879 H866 0.929 . S
C879 C871 1.433 . S
C879 N881 1.384 . S
N880 C876 1.427 . S
N880 C877 1.384 . S
N881 C873 1.427 . S
N881 C879 1.384 . S
H882 C888 0.930 . S
H883 C892 0.930 . S
H884 C897 0.929 . S
H885 C895 0.929 . S
H886 C890 0.929 . S
H887 C896 0.929 . S
C888 H882 0.930 . S
C888 C889 1.367 . S
C888 C896 1.378 . S
C889 C888 1.367 . S
C889 C897 1.433 . S
C890 H886 0.929 . S
C890 C892 1.378 . S
C890 C894 1.350 . S
C891 C894 1.463 . S
C891 C896 1.350 . S
C891 N899 1.427 . S
C892 H883 0.930 . S
C892 C890 1.378 . S
C892 C893 1.367 . S
C893 C892 1.367 . S
C893 C895 1.433 . S
C894 C890 1.350 . S
C894 C891 1.463 . S
C894 N898 1.427 . S
C895 H885 0.929 . S
C895 C893 1.433 . S
C895 N898 1.384 . S
C896 H887 0.929 . S
C896 C888 1.378 . S
C896 C891 1.350 . S
C897 H884 0.929 . S
C897 C889 1.433 . S
C897 N899 1.384 . S
N898 C894 1.427 . S
N898 C895 1.384 . S
N899 C891 1.427 . S
N899 C897 1.384 . S
H900 C906 0.930 . S
H901 C910 0.930 . S
H902 C915 0.929 . S
H903 C913 0.929 . S
H904 C908 0.929 . S
H905 C914 0.929 . S
C906 H900 0.930 . S
C906 C907 1.367 . S
C906 C914 1.378 . S
C907 C906 1.367 . S
C907 C915 1.433 . S
C908 H904 0.929 . S
C908 C910 1.378 . S
C908 C912 1.350 . S
C909 C912 1.463 . S
C909 C914 1.350 . S
C909 N917 1.427 . S
C910 H901 0.930 . S
C910 C908 1.378 . S
C910 C911 1.367 . S
C911 C910 1.367 . S
C911 C913 1.433 . S
C912 C908 1.350 . S
C912 C909 1.463 . S
C912 N916 1.427 . S
C913 H903 0.929 . S
C913 C911 1.433 . S
C913 N916 1.384 . S
C914 H905 0.929 . S
C914 C906 1.378 . S
C914 C909 1.350 . S
C915 H902 0.929 . S
C915 C907 1.433 . S
C915 N917 1.384 . S
N916 C912 1.427 . S
N916 C913 1.384 . S
N917 C909 1.427 . S
N917 C915 1.384 . S
H918 C924 0.930 . S
H919 C928 0.930 . S
H920 C933 0.929 . S
H921 C931 0.929 . S
H922 C926 0.929 . S
H923 C932 0.929 . S
C924 H918 0.930 . S
C924 C925 1.367 . S
C924 C932 1.378 . S
C925 C924 1.367 . S
C925 C933 1.433 . S
C926 H922 0.929 . S
C926 C928 1.378 . S
C926 C930 1.350 . S
C927 C930 1.463 . S
C927 C932 1.350 . S
C927 N935 1.427 . S
C928 H919 0.930 . S
C928 C926 1.378 . S
C928 C929 1.367 . S
C929 C928 1.367 . S
C929 C931 1.433 . S
C930 C926 1.350 . S
C930 C927 1.463 . S
C930 N934 1.427 . S
C931 H921 0.929 . S
C931 C929 1.433 . S
C931 N934 1.384 . S
C932 H923 0.929 . S
C932 C924 1.378 . S
C932 C927 1.350 . S
C933 H920 0.929 . S
C933 C925 1.433 . S
C933 N935 1.384 . S
N934 C930 1.427 . S
N934 C931 1.384 . S
N935 C927 1.427 . S
N935 C933 1.384 . S
H936 C942 0.930 . S
H937 C946 0.930 . S
H938 C951 0.929 . S
H939 C949 0.929 . S
H940 C944 0.929 . S
H941 C950 0.929 . S
C942 H936 0.930 . S
C942 C943 1.367 . S
C942 C950 1.378 . S
C943 C942 1.367 . S
C943 C951 1.433 . S
C944 H940 0.929 . S
C944 C946 1.378 . S
C944 C948 1.350 . S
C945 C948 1.463 . S
C945 C950 1.350 . S
C945 N953 1.427 . S
C946 H937 0.930 . S
C946 C944 1.378 . S
C946 C947 1.367 . S
C947 C946 1.367 . S
C947 C949 1.433 . S
C948 C944 1.350 . S
C948 C945 1.463 . S
C948 N952 1.427 . S
C949 H939 0.929 . S
C949 C947 1.433 . S
C949 N952 1.384 . S
C950 H941 0.929 . S
C950 C942 1.378 . S
C950 C945 1.350 . S
C951 H938 0.929 . S
C951 C943 1.433 . S
C951 N953 1.384 . S
N952 C948 1.427 . S
N952 C949 1.384 . S
N953 C945 1.427 . S
N953 C951 1.384 . S
H954 C960 0.930 . S
H955 C964 0.930 . S
H956 C969 0.929 . S
H957 C967 0.929 . S
H958 C962 0.929 . S
H959 C968 0.929 . S
C960 H954 0.930 . S
C960 C961 1.367 . S
C960 C968 1.378 . S
C961 C960 1.367 . S
C961 C969 1.433 . S
C962 H958 0.929 . S
C962 C964 1.378 . S
C962 C966 1.350 . S
C963 C966 1.463 . S
C963 C968 1.350 . S
C963 N971 1.427 . S
C964 H955 0.930 . S
C964 C962 1.378 . S
C964 C965 1.367 . S
C965 C964 1.367 . S
C965 C967 1.433 . S
C966 C962 1.350 . S
C966 C963 1.463 . S
C966 N970 1.427 . S
C967 H957 0.929 . S
C967 C965 1.433 . S
C967 N970 1.384 . S
C968 H959 0.929 . S
C968 C960 1.378 . S
C968 C963 1.350 . S
C969 H956 0.929 . S
C969 C961 1.433 . S
C969 N971 1.384 . S
N970 C966 1.427 . S
N970 C967 1.384 . S
N971 C963 1.427 . S
N971 C969 1.384 . S
H972 C978 0.930 . S
H973 C982 0.930 . S
H974 C987 0.929 . S
H975 C985 0.929 . S
H976 C980 0.929 . S
H977 C986 0.929 . S
C978 H972 0.930 . S
C978 C979 1.367 . S
C978 C986 1.378 . S
C979 C978 1.367 . S
C979 C987 1.433 . S
C980 H976 0.929 . S
C980 C982 1.378 . S
C980 C984 1.350 . S
C981 C984 1.463 . S
C981 C986 1.350 . S
C981 N989 1.427 . S
C982 H973 0.930 . S
C982 C980 1.378 . S
C982 C983 1.367 . S
C983 C982 1.367 . S
C983 C985 1.433 . S
C984 C980 1.350 . S
C984 C981 1.463 . S
C984 N988 1.427 . S
C985 H975 0.929 . S
C985 C983 1.433 . S
C985 N988 1.384 . S
C986 H977 0.929 . S
C986 C978 1.378 . S
C986 C981 1.350 . S
C987 H974 0.929 . S
C987 C979 1.433 . S
C987 N989 1.384 . S
N988 C984 1.427 . S
N988 C985 1.384 . S
N989 C981 1.427 . S
N989 C987 1.384 . S
H990 C996 0.930 . S
H991 C1000 0.930 . S
H992 C1005 0.929 . S
H993 C1003 0.929 . S
H994 C998 0.929 . S
H995 C1004 0.929 . S
C996 H990 0.930 . S
C996 C997 1.367 . S
C996 C1004 1.378 . S
C997 C996 1.367 . S
C997 C1005 1.433 . S
C998 H994 0.929 . S
C998 C1000 1.378 . S
C998 C1002 1.350 . S
C999 C1002 1.463 . S
C999 C1004 1.350 . S
C999 N1007 1.427 . S
C1000 H991 0.930 . S
C1000 C998 1.378 . S
C1000 C1001 1.367 . S
C1001 C1000 1.367 . S
C1001 C1003 1.433 . S
C1002 C998 1.350 . S
C1002 C999 1.463 . S
C1002 N1006 1.427 . S
C1003 H993 0.929 . S
C1003 C1001 1.433 . S
C1003 N1006 1.384 . S
C1004 H995 0.929 . S
C1004 C996 1.378 . S
C1004 C999 1.350 . S
C1005 H992 0.929 . S
C1005 C997 1.433 . S
C1005 N1007 1.384 . S
N1006 C1002 1.427 . S
N1006 C1003 1.384 . S
N1007 C999 1.427 . S
N1007 C1005 1.384 . S
H1008 C1014 0.930 . S
H1009 C1018 0.930 . S
H1010 C1023 0.929 . S
H1011 C1021 0.929 . S
H1012 C1016 0.929 . S
H1013 C1022 0.929 . S
C1014 H1008 0.930 . S
C1014 C1015 1.367 . S
C1014 C1022 1.378 . S
C1015 C1014 1.367 . S
C1015 C1023 1.433 . S
C1016 H1012 0.929 . S
C1016 C1018 1.378 . S
C1016 C1020 1.350 . S
C1017 C1020 1.463 . S
C1017 C1022 1.350 1_545 S
C1017 N1025 1.427 1_545 S
C1018 H1009 0.930 . S
C1018 C1016 1.378 . S
C1018 C1019 1.367 . S
C1019 C1018 1.367 . S
C1019 C1021 1.433 . S
C1020 C1016 1.350 . S
C1020 C1017 1.463 . S
C1020 N1024 1.427 . S
C1021 H1011 0.929 . S
C1021 C1019 1.433 . S
C1021 N1024 1.384 . S
C1022 H1013 0.929 . S
C1022 C1014 1.378 . S
C1022 C1017 1.350 1_565 S
C1023 H1010 0.929 . S
C1023 C1015 1.433 . S
C1023 N1025 1.384 . S
N1024 C1020 1.427 . S
N1024 C1021 1.384 . S
N1025 C1017 1.427 1_565 S
N1025 C1023 1.384 . S
H1026 C1032 0.930 . S
H1027 C1036 0.930 . S
H1028 C1041 0.929 . S
H1029 C1039 0.929 . S
H1030 C1034 0.929 1_655 S
H1031 C1040 0.929 . S
C1032 H1026 0.930 . S
C1032 C1033 1.367 . S
C1032 C1040 1.378 . S
C1033 C1032 1.367 . S
C1033 C1041 1.433 . S
C1034 H1030 0.929 1_455 S
C1034 C1036 1.378 . S
C1034 C1038 1.350 1_455 S
C1035 C1038 1.463 . S
C1035 C1040 1.350 . S
C1035 N1043 1.427 . S
C1036 H1027 0.930 . S
C1036 C1034 1.378 . S
C1036 C1037 1.367 . S
C1037 C1036 1.367 . S
C1037 C1039 1.433 . S
C1038 C1034 1.350 1_655 S
C1038 C1035 1.463 . S
C1038 N1042 1.427 1_655 S
C1039 H1029 0.929 . S
C1039 C1037 1.433 . S
C1039 N1042 1.384 . S
C1040 H1031 0.929 . S
C1040 C1032 1.378 . S
C1040 C1035 1.350 . S
C1041 H1028 0.929 . S
C1041 C1033 1.433 . S
C1041 N1043 1.384 . S
N1042 C1038 1.427 1_455 S
N1042 C1039 1.384 . S
N1043 C1035 1.427 . S
N1043 C1041 1.384 . S
H1044 C1050 0.930 . S
H1045 C1054 0.930 . S
H1046 C1059 0.929 . S
H1047 C1057 0.929 . S
H1048 C1052 0.929 . S
H1049 C1058 0.929 . S
C1050 H1044 0.930 . S
C1050 C1051 1.367 . S
C1050 C1058 1.378 . S
C1051 C1050 1.367 . S
C1051 C1059 1.433 . S
C1052 H1048 0.929 . S
C1052 C1054 1.378 . S
C1052 C1056 1.350 1_545 S
C1053 C1056 1.463 . S
C1053 C1058 1.350 . S
C1053 N1061 1.427 . S
C1054 H1045 0.930 . S
C1054 C1052 1.378 . S
C1054 C1055 1.367 . S
C1055 C1054 1.367 . S
C1055 C1057 1.433 . S
C1056 C1052 1.350 1_565 S
C1056 C1053 1.463 . S
C1056 N1060 1.427 1_565 S
C1057 H1047 0.929 . S
C1057 C1055 1.433 . S
C1057 N1060 1.384 . S
C1058 H1049 0.929 . S
C1058 C1050 1.378 . S
C1058 C1053 1.350 . S
C1059 H1046 0.929 . S
C1059 C1051 1.433 . S
C1059 N1061 1.384 . S
N1060 C1056 1.427 1_545 S
N1060 C1057 1.384 . S
N1061 C1053 1.427 . S
N1061 C1059 1.384 . S
H1062 C1068 0.930 . S
H1063 C1072 0.930 . S
H1064 C1077 0.929 . S
H1065 C1075 0.929 . S
H1066 C1070 0.929 . S
H1067 C1076 0.929 1_455 S
C1068 H1062 0.930 . S
C1068 C1069 1.367 . S
C1068 C1076 1.378 . S
C1069 C1068 1.367 . S
C1069 C1077 1.433 . S
C1070 H1066 0.929 . S
C1070 C1072 1.378 . S
C1070 C1074 1.350 . S
C1071 C1074 1.463 . S
C1071 C1076 1.350 1_455 S
C1071 N1079 1.427 1_455 S
C1072 H1063 0.930 . S
C1072 C1070 1.378 . S
C1072 C1073 1.367 . S
C1073 C1072 1.367 . S
C1073 C1075 1.433 . S
C1074 C1070 1.350 . S
C1074 C1071 1.463 . S
C1074 N1078 1.427 . S
C1075 H1065 0.929 . S
C1075 C1073 1.433 . S
C1075 N1078 1.384 . S
C1076 H1067 0.929 1_655 S
C1076 C1068 1.378 . S
C1076 C1071 1.350 1_655 S
C1077 H1064 0.929 . S
C1077 C1069 1.433 . S
C1077 N1079 1.384 . S
N1078 C1074 1.427 . S
N1078 C1075 1.384 . S
N1079 C1071 1.427 1_655 S
N1079 C1077 1.384 . S
H1080 C1086 0.930 . S
H1081 C1090 0.930 . S
H1082 C1095 0.929 . S
H1083 C1093 0.929 . S
H1084 C1088 0.929 . S
H1085 C1094 0.929 1_565 S
C1086 H1080 0.930 . S
C1086 C1087 1.367 . S
C1086 C1094 1.378 . S
C1087 C1086 1.367 . S
C1087 C1095 1.433 . S
C1088 H1084 0.929 . S
C1088 C1090 1.378 . S
C1088 C1092 1.350 . S
C1089 C1092 1.463 . S
C1089 C1094 1.350 1_565 S
C1089 N1097 1.427 1_565 S
C1090 H1081 0.930 . S
C1090 C1088 1.378 . S
C1090 C1091 1.367 . S
C1091 C1090 1.367 . S
C1091 C1093 1.433 . S
C1092 C1088 1.350 . S
C1092 C1089 1.463 . S
C1092 N1096 1.427 . S
C1093 H1083 0.929 . S
C1093 C1091 1.433 . S
C1093 N1096 1.384 . S
C1094 H1085 0.929 1_545 S
C1094 C1086 1.378 . S
C1094 C1089 1.350 1_545 S
C1095 H1082 0.929 . S
C1095 C1087 1.433 . S
C1095 N1097 1.384 . S
N1096 C1092 1.427 . S
N1096 C1093 1.384 . S
N1097 C1089 1.427 1_545 S
N1097 C1095 1.384 . S
H1098 C1104 0.930 . S
H1099 C1108 0.930 . S
H1100 C1113 0.929 . S
H1101 C1111 0.929 . S
H1102 C1106 0.929 1_455 S
H1103 C1112 0.929 . S
C1104 H1098 0.930 . S
C1104 C1105 1.367 . S
C1104 C1112 1.378 . S
C1105 C1104 1.367 . S
C1105 C1113 1.433 . S
C1106 H1102 0.929 1_655 S
C1106 C1108 1.378 . S
C1106 C1110 1.350 1_655 S
C1107 C1110 1.463 . S
C1107 C1112 1.350 . S
C1107 N1115 1.427 . S
C1108 H1099 0.930 . S
C1108 C1106 1.378 . S
C1108 C1109 1.367 . S
C1109 C1108 1.367 . S
C1109 C1111 1.433 . S
C1110 C1106 1.350 1_455 S
C1110 C1107 1.463 . S
C1110 N1114 1.427 1_455 S
C1111 H1101 0.929 . S
C1111 C1109 1.433 . S
C1111 N1114 1.384 . S
C1112 H1103 0.929 . S
C1112 C1104 1.378 . S
C1112 C1107 1.350 . S
C1113 H1100 0.929 . S
C1113 C1105 1.433 . S
C1113 N1115 1.384 . S
N1114 C1110 1.427 1_655 S
N1114 C1111 1.384 . S
N1115 C1107 1.427 . S
N1115 C1113 1.384 . S
H1116 C1122 0.930 . S
H1117 C1126 0.930 . S
H1118 C1131 0.929 . S
H1119 C1129 0.929 . S
H1120 C1124 0.929 . S
H1121 C1130 0.929 . S
C1122 H1116 0.930 . S
C1122 C1123 1.367 . S
C1122 C1130 1.378 . S
C1123 C1122 1.367 . S
C1123 C1131 1.433 . S
C1124 H1120 0.929 . S
C1124 C1126 1.378 . S
C1124 C1128 1.350 . S
C1125 C1128 1.463 . S
C1125 C1130 1.350 1_545 S
C1125 N1133 1.427 1_545 S
C1126 H1117 0.930 . S
C1126 C1124 1.378 . S
C1126 C1127 1.367 . S
C1127 C1126 1.367 . S
C1127 C1129 1.433 . S
C1128 C1124 1.350 . S
C1128 C1125 1.463 . S
C1128 N1132 1.427 . S
C1129 H1119 0.929 . S
C1129 C1127 1.433 . S
C1129 N1132 1.384 . S
C1130 H1121 0.929 . S
C1130 C1122 1.378 . S
C1130 C1125 1.350 1_565 S
C1131 H1118 0.929 . S
C1131 C1123 1.433 . S
C1131 N1133 1.384 . S
N1132 C1128 1.427 . S
N1132 C1129 1.384 . S
N1133 C1125 1.427 1_565 S
N1133 C1131 1.384 . S
H1134 C1140 0.930 . S
H1135 C1144 0.930 . S
H1136 C1149 0.929 . S
H1137 C1147 0.929 . S
H1138 C1142 0.929 . S
H1139 C1148 0.929 1_655 S
C1140 H1134 0.930 . S
C1140 C1141 1.367 . S
C1140 C1148 1.378 . S
C1141 C1140 1.367 . S
C1141 C1149 1.433 . S
C1142 H1138 0.929 . S
C1142 C1144 1.378 . S
C1142 C1146 1.350 . S
C1143 C1146 1.463 . S
C1143 C1148 1.350 1_655 S
C1143 N1151 1.427 1_655 S
C1144 H1135 0.930 . S
C1144 C1142 1.378 . S
C1144 C1145 1.367 . S
C1145 C1144 1.367 . S
C1145 C1147 1.433 . S
C1146 C1142 1.350 . S
C1146 C1143 1.463 . S
C1146 N1150 1.427 . S
C1147 H1137 0.929 . S
C1147 C1145 1.433 . S
C1147 N1150 1.384 . S
C1148 H1139 0.929 1_455 S
C1148 C1140 1.378 . S
C1148 C1143 1.350 1_455 S
C1149 H1136 0.929 . S
C1149 C1141 1.433 . S
C1149 N1151 1.384 . S
N1150 C1146 1.427 . S
N1150 C1147 1.384 . S
N1151 C1143 1.427 1_455 S
N1151 C1149 1.384 . S
H1152 C1158 0.930 . S
H1153 C1162 0.930 . S
H1154 C1167 0.929 . S
H1155 C1165 0.929 . S
H1156 C1160 0.929 . S
H1157 C1166 0.927 1_554 S
C1158 H1152 0.930 . S
C1158 C1159 1.367 . S
C1158 C1166 1.378 . S
C1159 C1158 1.367 . S
C1159 C1167 1.433 . S
C1160 H1156 0.929 . S
C1160 C1162 1.378 . S
C1160 C1164 1.350 . S
C1161 C1164 1.463 . S
C1161 C1166 1.350 1_554 S
C1161 N1169 1.427 1_554 S
C1162 H1153 0.930 . S
C1162 C1160 1.378 . S
C1162 C1163 1.367 . S
C1163 C1162 1.367 . S
C1163 C1165 1.433 . S
C1164 C1160 1.350 . S
C1164 C1161 1.463 . S
C1164 N1168 1.427 . S
C1165 H1155 0.929 . S
C1165 C1163 1.433 . S
C1165 N1168 1.384 . S
C1166 H1157 0.927 1_556 S
C1166 C1158 1.378 . S
C1166 C1161 1.350 1_556 S
C1167 H1154 0.929 . S
C1167 C1159 1.433 . S
C1167 N1169 1.384 . S
N1168 C1164 1.427 . S
N1168 C1165 1.384 . S
N1169 C1161 1.427 1_556 S
N1169 C1167 1.384 . S
H1170 C1176 0.930 . S
H1171 C1180 0.930 . S
H1172 C1185 0.929 . S
H1173 C1183 0.929 . S
H1174 C1178 0.929 . S
H1175 C1184 0.929 . S
C1176 H1170 0.930 . S
C1176 C1177 1.367 . S
C1176 C1184 1.378 . S
C1177 C1176 1.367 . S
C1177 C1185 1.433 . S
C1178 H1174 0.929 . S
C1178 C1180 1.378 . S
C1178 C1182 1.350 1_556 S
C1179 C1182 1.463 . S
C1179 C1184 1.350 . S
C1179 N1187 1.427 . S
C1180 H1171 0.930 . S
C1180 C1178 1.378 . S
C1180 C1181 1.367 . S
C1181 C1180 1.367 . S
C1181 C1183 1.433 . S
C1182 C1178 1.350 1_554 S
C1182 C1179 1.463 . S
C1182 N1186 1.427 1_554 S
C1183 H1173 0.929 . S
C1183 C1181 1.433 . S
C1183 N1186 1.384 . S
C1184 H1175 0.929 . S
C1184 C1176 1.378 . S
C1184 C1179 1.350 . S
C1185 H1172 0.929 . S
C1185 C1177 1.433 . S
C1185 N1187 1.384 . S
N1186 C1182 1.427 1_556 S
N1186 C1183 1.384 . S
N1187 C1179 1.427 . S
N1187 C1185 1.384 . S
H1188 C1194 0.930 . S
H1189 C1198 0.930 . S
H1190 C1203 0.929 . S
H1191 C1201 0.929 . S
H1192 C1196 0.929 . S
H1193 C1202 0.929 . S
C1194 H1188 0.930 . S
C1194 C1195 1.367 . S
C1194 C1202 1.378 . S
C1195 C1194 1.367 . S
C1195 C1203 1.433 . S
C1196 H1192 0.929 . S
C1196 C1198 1.378 . S
C1196 C1200 1.350 . S
C1197 C1200 1.463 . S
C1197 C1202 1.350 1_554 S
C1197 N1205 1.427 1_554 S
C1198 H1189 0.930 . S
C1198 C1196 1.378 . S
C1198 C1199 1.367 . S
C1199 C1198 1.367 . S
C1199 C1201 1.433 . S
C1200 C1196 1.350 . S
C1200 C1197 1.463 . S
C1200 N1204 1.427 . S
C1201 H1191 0.929 . S
C1201 C1199 1.433 . S
C1201 N1204 1.384 . S
C1202 H1193 0.929 . S
C1202 C1194 1.378 . S
C1202 C1197 1.350 1_556 S
C1203 H1190 0.929 . S
C1203 C1195 1.433 . S
C1203 N1205 1.384 . S
N1204 C1200 1.427 . S
N1204 C1201 1.384 . S
N1205 C1197 1.427 1_556 S
N1205 C1203 1.384 . S
H1206 C1212 0.930 . S
H1207 C1216 0.930 . S
H1208 C1221 0.929 . S
H1209 C1219 0.929 . S
H1210 C1214 0.929 . S
H1211 C1220 0.929 . S
C1212 H1206 0.930 . S
C1212 C1213 1.367 . S
C1212 C1220 1.378 . S
C1213 C1212 1.367 . S
C1213 C1221 1.433 . S
C1214 H1210 0.929 . S
C1214 C1216 1.378 . S
C1214 C1218 1.350 1_556 S
C1215 C1218 1.463 . S
C1215 C1220 1.350 . S
C1215 N1223 1.427 . S
C1216 H1207 0.930 . S
C1216 C1214 1.378 . S
C1216 C1217 1.367 . S
C1217 C1216 1.367 . S
C1217 C1219 1.433 . S
C1218 C1214 1.350 1_554 S
C1218 C1215 1.463 . S
C1218 N1222 1.427 1_554 S
C1219 H1209 0.929 . S
C1219 C1217 1.433 . S
C1219 N1222 1.384 . S
C1220 H1211 0.929 . S
C1220 C1212 1.378 . S
C1220 C1215 1.350 . S
C1221 H1208 0.929 . S
C1221 C1213 1.433 . S
C1221 N1223 1.384 . S
N1222 C1218 1.427 1_556 S
N1222 C1219 1.384 . S
N1223 C1215 1.427 . S
N1223 C1221 1.384 . S
H1224 C1230 0.930 . S
H1225 C1234 0.930 . S
H1226 C1239 0.929 . S
H1227 C1237 0.929 . S
H1228 C1232 0.929 . S
H1229 C1238 0.929 . S
C1230 H1224 0.930 . S
C1230 C1231 1.367 . S
C1230 C1238 1.378 . S
C1231 C1230 1.367 . S
C1231 C1239 1.433 . S
C1232 H1228 0.929 . S
C1232 C1234 1.378 . S
C1232 C1236 1.350 . S
C1233 C1236 1.463 . S
C1233 C1238 1.350 1_556 S
C1233 N1241 1.427 1_556 S
C1234 H1225 0.930 . S
C1234 C1232 1.378 . S
C1234 C1235 1.367 . S
C1235 C1234 1.367 . S
C1235 C1237 1.433 . S
C1236 C1232 1.350 . S
C1236 C1233 1.463 . S
C1236 N1240 1.427 . S
C1237 H1227 0.929 . S
C1237 C1235 1.433 . S
C1237 N1240 1.384 . S
C1238 H1229 0.929 . S
C1238 C1230 1.378 . S
C1238 C1233 1.350 1_554 S
C1239 H1226 0.929 . S
C1239 C1231 1.433 . S
C1239 N1241 1.384 . S
N1240 C1236 1.427 . S
N1240 C1237 1.384 . S
N1241 C1233 1.427 1_554 S
N1241 C1239 1.384 . S
H1242 C1248 0.930 . S
H1243 C1252 0.930 . S
H1244 C1257 0.929 . S
H1245 C1255 0.929 . S
H1246 C1250 0.929 . S
H1247 C1256 0.929 . S
C1248 H1242 0.930 . S
C1248 C1249 1.367 . S
C1248 C1256 1.378 . S
C1249 C1248 1.367 . S
C1249 C1257 1.433 . S
C1250 H1246 0.929 . S
C1250 C1252 1.378 . S
C1250 C1254 1.350 1_554 S
C1251 C1254 1.463 . S
C1251 C1256 1.350 . S
C1251 N1259 1.427 . S
C1252 H1243 0.930 . S
C1252 C1250 1.378 . S
C1252 C1253 1.367 . S
C1253 C1252 1.367 . S
C1253 C1255 1.433 . S
C1254 C1250 1.350 1_556 S
C1254 C1251 1.463 . S
C1254 N1258 1.427 1_556 S
C1255 H1245 0.929 . S
C1255 C1253 1.433 . S
C1255 N1258 1.384 . S
C1256 H1247 0.929 . S
C1256 C1248 1.378 . S
C1256 C1251 1.350 . S
C1257 H1244 0.929 . S
C1257 C1249 1.433 . S
C1257 N1259 1.384 . S
N1258 C1254 1.427 1_554 S
N1258 C1255 1.384 . S
N1259 C1251 1.427 . S
N1259 C1257 1.384 . S
H1260 C1266 0.930 . S
H1261 C1270 0.930 . S
H1262 C1275 0.929 . S
H1263 C1273 0.929 . S
H1264 C1268 0.929 . S
H1265 C1274 0.929 1_556 S
C1266 H1260 0.930 . S
C1266 C1267 1.367 . S
C1266 C1274 1.378 . S
C1267 C1266 1.367 . S
C1267 C1275 1.433 . S
C1268 H1264 0.929 . S
C1268 C1270 1.378 . S
C1268 C1272 1.350 . S
C1269 C1272 1.463 . S
C1269 C1274 1.350 1_556 S
C1269 N1277 1.427 1_556 S
C1270 H1261 0.930 . S
C1270 C1268 1.378 . S
C1270 C1271 1.367 . S
C1271 C1270 1.367 . S
C1271 C1273 1.433 . S
C1272 C1268 1.350 . S
C1272 C1269 1.463 . S
C1272 N1276 1.427 . S
C1273 H1263 0.929 . S
C1273 C1271 1.433 . S
C1273 N1276 1.384 . S
C1274 H1265 0.929 1_554 S
C1274 C1266 1.378 . S
C1274 C1269 1.350 1_554 S
C1275 H1262 0.929 . S
C1275 C1267 1.433 . S
C1275 N1277 1.384 . S
N1276 C1272 1.427 . S
N1276 C1273 1.384 . S
N1277 C1269 1.427 1_554 S
N1277 C1275 1.384 . S
H1278 C1284 0.930 . S
H1279 C1288 0.930 . S
H1280 C1293 0.929 . S
H1281 C1291 0.929 . S
H1282 C1286 0.929 . S
H1283 C1292 0.929 . S
C1284 H1278 0.930 . S
C1284 C1285 1.367 . S
C1284 C1292 1.378 . S
C1285 C1284 1.367 . S
C1285 C1293 1.433 . S
C1286 H1282 0.929 . S
C1286 C1288 1.378 . S
C1286 C1290 1.350 1_554 S
C1287 C1290 1.463 . S
C1287 C1292 1.350 . S
C1287 N1295 1.427 . S
C1288 H1279 0.930 . S
C1288 C1286 1.378 . S
C1288 C1289 1.367 . S
C1289 C1288 1.367 . S
C1289 C1291 1.433 . S
C1290 C1286 1.350 1_556 S
C1290 C1287 1.463 . S
C1290 N1294 1.427 1_556 S
C1291 H1281 0.929 . S
C1291 C1289 1.433 . S
C1291 N1294 1.384 . S
C1292 H1283 0.929 . S
C1292 C1284 1.378 . S
C1292 C1287 1.350 . S
C1293 H1280 0.929 . S
C1293 C1285 1.433 . S
C1293 N1295 1.384 . S
N1294 C1290 1.427 1_554 S
N1294 C1291 1.384 . S
N1295 C1287 1.427 . S
N1295 C1293 1.384 . S
H1296 C1302 0.930 . S
H1297 C1306 0.930 . S
H1298 C1311 0.929 . S
H1299 C1309 0.929 . S
H1300 C1304 0.929 . S
H1301 C1310 0.929 . S
C1302 H1296 0.930 . S
C1302 C1303 1.367 . S
C1302 C1310 1.378 . S
C1303 C1302 1.367 . S
C1303 C1311 1.433 . S
C1304 H1300 0.929 . S
C1304 C1306 1.378 . S
C1304 C1308 1.350 . S
C1305 C1308 1.463 . S
C1305 C1310 1.350 1_455 S
C1305 N1313 1.427 1_455 S
C1306 H1297 0.930 . S
C1306 C1304 1.378 . S
C1306 C1307 1.367 . S
C1307 C1306 1.367 . S
C1307 C1309 1.433 . S
C1308 C1304 1.350 . S
C1308 C1305 1.463 . S
C1308 N1312 1.427 . S
C1309 H1299 0.929 . S
C1309 C1307 1.433 . S
C1309 N1312 1.384 . S
C1310 H1301 0.929 . S
C1310 C1302 1.378 . S
C1310 C1305 1.350 1_655 S
C1311 H1298 0.929 . S
C1311 C1303 1.433 . S
C1311 N1313 1.384 . S
N1312 C1308 1.427 . S
N1312 C1309 1.384 . S
N1313 C1305 1.427 1_655 S
N1313 C1311 1.384 . S
H1314 C1320 0.930 . S
H1315 C1324 0.930 . S
H1316 C1329 0.929 . S
H1317 C1327 0.929 . S
H1318 C1322 0.929 . S
H1319 C1328 0.929 . S
C1320 H1314 0.930 . S
C1320 C1321 1.367 . S
C1320 C1328 1.378 . S
C1321 C1320 1.367 . S
C1321 C1329 1.433 . S
C1322 H1318 0.929 . S
C1322 C1324 1.378 . S
C1322 C1326 1.350 . S
C1323 C1326 1.463 . S
C1323 C1328 1.350 1_455 S
C1323 N1331 1.427 1_455 S
C1324 H1315 0.930 . S
C1324 C1322 1.378 . S
C1324 C1325 1.367 . S
C1325 C1324 1.367 . S
C1325 C1327 1.433 . S
C1326 C1322 1.350 . S
C1326 C1323 1.463 . S
C1326 N1330 1.427 . S
C1327 H1317 0.929 . S
C1327 C1325 1.433 . S
C1327 N1330 1.384 . S
C1328 H1319 0.929 . S
C1328 C1320 1.378 . S
C1328 C1323 1.350 1_655 S
C1329 H1316 0.929 . S
C1329 C1321 1.433 . S
C1329 N1331 1.384 . S
N1330 C1326 1.427 . S
N1330 C1327 1.384 . S
N1331 C1323 1.427 1_655 S
N1331 C1329 1.384 . S
H1332 C1338 0.930 . S
H1333 C1342 0.930 . S
H1334 C1347 0.929 . S
H1335 C1345 0.929 . S
H1336 C1340 0.929 . S
H1337 C1346 0.929 . S
C1338 H1332 0.930 . S
C1338 C1339 1.367 . S
C1338 C1346 1.378 . S
C1339 C1338 1.367 . S
C1339 C1347 1.433 . S
C1340 H1336 0.929 . S
C1340 C1342 1.378 . S
C1340 C1344 1.350 1_565 S
C1341 C1344 1.463 . S
C1341 C1346 1.350 . S
C1341 N1349 1.427 . S
C1342 H1333 0.930 . S
C1342 C1340 1.378 . S
C1342 C1343 1.367 . S
C1343 C1342 1.367 . S
C1343 C1345 1.433 . S
C1344 C1340 1.350 1_545 S
C1344 C1341 1.463 . S
C1344 N1348 1.427 1_545 S
C1345 H1335 0.929 . S
C1345 C1343 1.433 . S
C1345 N1348 1.384 . S
C1346 H1337 0.929 . S
C1346 C1338 1.378 . S
C1346 C1341 1.350 . S
C1347 H1334 0.929 . S
C1347 C1339 1.433 . S
C1347 N1349 1.384 . S
N1348 C1344 1.427 1_565 S
N1348 C1345 1.384 . S
N1349 C1341 1.427 . S
N1349 C1347 1.384 . S
H1350 C1356 0.930 . S
H1351 C1360 0.930 . S
H1352 C1365 0.929 . S
H1353 C1363 0.929 . S
H1354 C1358 0.929 . S
H1355 C1364 0.929 . S
C1356 H1350 0.930 . S
C1356 C1357 1.367 . S
C1356 C1364 1.378 . S
C1357 C1356 1.367 . S
C1357 C1365 1.433 . S
C1358 H1354 0.929 . S
C1358 C1360 1.378 . S
C1358 C1362 1.350 1_455 S
C1359 C1362 1.463 . S
C1359 C1364 1.350 . S
C1359 N1367 1.427 . S
C1360 H1351 0.930 . S
C1360 C1358 1.378 . S
C1360 C1361 1.367 . S
C1361 C1360 1.367 . S
C1361 C1363 1.433 . S
C1362 C1358 1.350 1_655 S
C1362 C1359 1.463 . S
C1362 N1366 1.427 1_655 S
C1363 H1353 0.929 . S
C1363 C1361 1.433 . S
C1363 N1366 1.384 . S
C1364 H1355 0.929 . S
C1364 C1356 1.378 . S
C1364 C1359 1.350 . S
C1365 H1352 0.929 . S
C1365 C1357 1.433 . S
C1365 N1367 1.384 . S
N1366 C1362 1.427 1_455 S
N1366 C1363 1.384 . S
N1367 C1359 1.427 . S
N1367 C1365 1.384 . S
H1368 C1374 0.930 . S
H1369 C1378 0.930 . S
H1370 C1383 0.929 . S
H1371 C1381 0.929 . S
H1372 C1376 0.929 . S
H1373 C1382 0.929 1_565 S
C1374 H1368 0.930 . S
C1374 C1375 1.367 . S
C1374 C1382 1.378 . S
C1375 C1374 1.367 . S
C1375 C1383 1.433 . S
C1376 H1372 0.929 . S
C1376 C1378 1.378 . S
C1376 C1380 1.350 . S
C1377 C1380 1.463 . S
C1377 C1382 1.350 1_565 S
C1377 N1385 1.427 1_565 S
C1378 H1369 0.930 . S
C1378 C1376 1.378 . S
C1378 C1379 1.367 . S
C1379 C1378 1.367 . S
C1379 C1381 1.433 . S
C1380 C1376 1.350 . S
C1380 C1377 1.463 . S
C1380 N1384 1.427 . S
C1381 H1371 0.929 . S
C1381 C1379 1.433 . S
C1381 N1384 1.384 . S
C1382 H1373 0.929 1_545 S
C1382 C1374 1.378 . S
C1382 C1377 1.350 1_545 S
C1383 H1370 0.929 . S
C1383 C1375 1.433 . S
C1383 N1385 1.384 . S
N1384 C1380 1.427 . S
N1384 C1381 1.384 . S
N1385 C1377 1.427 1_545 S
N1385 C1383 1.384 . S
H1386 C1392 0.930 . S
H1387 C1396 0.930 . S
H1388 C1401 0.929 . S
H1389 C1399 0.929 . S
H1390 C1394 0.929 . S
H1391 C1400 0.929 1_655 S
C1392 H1386 0.930 . S
C1392 C1393 1.367 . S
C1392 C1400 1.378 . S
C1393 C1392 1.367 . S
C1393 C1401 1.433 . S
C1394 H1390 0.929 . S
C1394 C1396 1.378 . S
C1394 C1398 1.350 . S
C1395 C1398 1.463 . S
C1395 C1400 1.350 1_655 S
C1395 N1403 1.427 1_655 S
C1396 H1387 0.930 . S
C1396 C1394 1.378 . S
C1396 C1397 1.367 . S
C1397 C1396 1.367 . S
C1397 C1399 1.433 . S
C1398 C1394 1.350 . S
C1398 C1395 1.463 . S
C1398 N1402 1.427 . S
C1399 H1389 0.929 . S
C1399 C1397 1.433 . S
C1399 N1402 1.384 . S
C1400 H1391 0.929 1_455 S
C1400 C1392 1.378 . S
C1400 C1395 1.350 1_455 S
C1401 H1388 0.929 . S
C1401 C1393 1.433 . S
C1401 N1403 1.384 . S
N1402 C1398 1.427 . S
N1402 C1399 1.384 . S
N1403 C1395 1.427 1_455 S
N1403 C1401 1.384 . S
H1404 C1410 0.930 . S
H1405 C1414 0.930 . S
H1406 C1419 0.929 . S
H1407 C1417 0.929 . S
H1408 C1412 0.929 . S
H1409 C1418 0.929 1_565 S
C1410 H1404 0.930 . S
C1410 C1411 1.367 . S
C1410 C1418 1.378 . S
C1411 C1410 1.367 . S
C1411 C1419 1.433 . S
C1412 H1408 0.929 . S
C1412 C1414 1.378 . S
C1412 C1416 1.350 . S
C1413 C1416 1.463 . S
C1413 C1418 1.350 1_565 S
C1413 N1421 1.427 1_565 S
C1414 H1405 0.930 . S
C1414 C1412 1.378 . S
C1414 C1415 1.367 . S
C1415 C1414 1.367 . S
C1415 C1417 1.433 . S
C1416 C1412 1.350 . S
C1416 C1413 1.463 . S
C1416 N1420 1.427 . S
C1417 H1407 0.929 . S
C1417 C1415 1.433 . S
C1417 N1420 1.384 . S
C1418 H1409 0.929 1_545 S
C1418 C1410 1.378 . S
C1418 C1413 1.350 1_545 S
C1419 H1406 0.929 . S
C1419 C1411 1.433 . S
C1419 N1421 1.384 . S
N1420 C1416 1.427 . S
N1420 C1417 1.384 . S
N1421 C1413 1.427 1_545 S
N1421 C1419 1.384 . S
H1422 C1428 0.930 . S
H1423 C1432 0.930 . S
H1424 C1437 0.929 . S
H1425 C1435 0.929 . S
H1426 C1430 0.929 . S
H1427 C1436 0.929 . S
C1428 H1422 0.930 . S
C1428 C1429 1.367 . S
C1428 C1436 1.378 . S
C1429 C1428 1.367 . S
C1429 C1437 1.433 . S
C1430 H1426 0.929 . S
C1430 C1432 1.378 . S
C1430 C1434 1.350 1_565 S
C1431 C1434 1.463 . S
C1431 C1436 1.350 . S
C1431 N1439 1.427 . S
C1432 H1423 0.930 . S
C1432 C1430 1.378 . S
C1432 C1433 1.367 . S
C1433 C1432 1.367 . S
C1433 C1435 1.433 . S
C1434 C1430 1.350 1_545 S
C1434 C1431 1.463 . S
C1434 N1438 1.427 1_545 S
C1435 H1425 0.929 . S
C1435 C1433 1.433 . S
C1435 N1438 1.384 . S
C1436 H1427 0.929 . S
C1436 C1428 1.378 . S
C1436 C1431 1.350 . S
C1437 H1424 0.929 . S
C1437 C1429 1.433 . S
C1437 N1439 1.384 . S
N1438 C1434 1.427 1_565 S
N1438 C1435 1.384 . S
N1439 C1431 1.427 . S
N1439 C1437 1.384 . S
H1440 C1446 0.930 . S
H1441 C1450 0.930 . S
H1442 C1455 0.929 . S
H1443 C1453 0.929 . S
H1444 C1448 0.929 . S
H1445 C1454 0.929 . S
C1446 H1440 0.930 . S
C1446 C1447 1.367 . S
C1446 C1454 1.378 . S
C1447 C1446 1.367 . S
C1447 C1455 1.433 . S
C1448 H1444 0.929 . S
C1448 C1450 1.378 . S
C1448 C1452 1.350 . S
C1449 C1452 1.463 . S
C1449 C1454 1.350 . S
C1449 N1457 1.427 . S
C1450 H1441 0.930 . S
C1450 C1448 1.378 . S
C1450 C1451 1.367 . S
C1451 C1450 1.367 . S
C1451 C1453 1.433 . S
C1452 C1448 1.350 . S
C1452 C1449 1.463 . S
C1452 N1456 1.427 . S
C1453 H1443 0.929 . S
C1453 C1451 1.433 . S
C1453 N1456 1.384 . S
C1454 H1445 0.929 . S
C1454 C1446 1.378 . S
C1454 C1449 1.350 . S
C1455 H1442 0.929 . S
C1455 C1447 1.433 . S
C1455 N1457 1.384 . S
N1456 C1452 1.427 . S
N1456 C1453 1.384 . S
N1457 C1449 1.427 . S
N1457 C1455 1.384 . S
H1458 C1464 0.930 . S
H1459 C1468 0.930 . S
H1460 C1473 0.929 . S
H1461 C1471 0.929 . S
H1462 C1466 0.929 . S
H1463 C1472 0.929 . S
C1464 H1458 0.930 . S
C1464 C1465 1.367 . S
C1464 C1472 1.378 . S
C1465 C1464 1.367 . S
C1465 C1473 1.433 . S
C1466 H1462 0.929 . S
C1466 C1468 1.378 . S
C1466 C1470 1.350 . S
C1467 C1470 1.463 . S
C1467 C1472 1.350 . S
C1467 N1475 1.427 . S
C1468 H1459 0.930 . S
C1468 C1466 1.378 . S
C1468 C1469 1.367 . S
C1469 C1468 1.367 . S
C1469 C1471 1.433 . S
C1470 C1466 1.350 . S
C1470 C1467 1.463 . S
C1470 N1474 1.427 . S
C1471 H1461 0.929 . S
C1471 C1469 1.433 . S
C1471 N1474 1.384 . S
C1472 H1463 0.929 . S
C1472 C1464 1.378 . S
C1472 C1467 1.350 . S
C1473 H1460 0.929 . S
C1473 C1465 1.433 . S
C1473 N1475 1.384 . S
N1474 C1470 1.427 . S
N1474 C1471 1.384 . S
N1475 C1467 1.427 . S
N1475 C1473 1.384 . S
H1476 C1482 0.930 . S
H1477 C1486 0.930 . S
H1478 C1491 0.929 . S
H1479 C1489 0.929 . S
H1480 C1484 0.929 . S
H1481 C1490 0.929 . S
C1482 H1476 0.930 . S
C1482 C1483 1.367 . S
C1482 C1490 1.378 . S
C1483 C1482 1.367 . S
C1483 C1491 1.433 . S
C1484 H1480 0.929 . S
C1484 C1486 1.378 . S
C1484 C1488 1.350 . S
C1485 C1488 1.463 . S
C1485 C1490 1.350 . S
C1485 N1493 1.427 . S
C1486 H1477 0.930 . S
C1486 C1484 1.378 . S
C1486 C1487 1.367 . S
C1487 C1486 1.367 . S
C1487 C1489 1.433 . S
C1488 C1484 1.350 . S
C1488 C1485 1.463 . S
C1488 N1492 1.427 . S
C1489 H1479 0.929 . S
C1489 C1487 1.433 . S
C1489 N1492 1.384 . S
C1490 H1481 0.929 . S
C1490 C1482 1.378 . S
C1490 C1485 1.350 . S
C1491 H1478 0.929 . S
C1491 C1483 1.433 . S
C1491 N1493 1.384 . S
N1492 C1488 1.427 . S
N1492 C1489 1.384 . S
N1493 C1485 1.427 . S
N1493 C1491 1.384 . S
H1494 C1500 0.930 . S
H1495 C1504 0.930 . S
H1496 C1509 0.929 . S
H1497 C1507 0.929 . S
H1498 C1502 0.929 . S
H1499 C1508 0.929 . S
C1500 H1494 0.930 . S
C1500 C1501 1.367 . S
C1500 C1508 1.378 . S
C1501 C1500 1.367 . S
C1501 C1509 1.433 . S
C1502 H1498 0.929 . S
C1502 C1504 1.378 . S
C1502 C1506 1.350 . S
C1503 C1506 1.463 . S
C1503 C1508 1.350 . S
C1503 N1511 1.427 . S
C1504 H1495 0.930 . S
C1504 C1502 1.378 . S
C1504 C1505 1.367 . S
C1505 C1504 1.367 . S
C1505 C1507 1.433 . S
C1506 C1502 1.350 . S
C1506 C1503 1.463 . S
C1506 N1510 1.427 . S
C1507 H1497 0.929 . S
C1507 C1505 1.433 . S
C1507 N1510 1.384 . S
C1508 H1499 0.929 . S
C1508 C1500 1.378 . S
C1508 C1503 1.350 . S
C1509 H1496 0.929 . S
C1509 C1501 1.433 . S
C1509 N1511 1.384 . S
N1510 C1506 1.427 . S
N1510 C1507 1.384 . S
N1511 C1503 1.427 . S
N1511 C1509 1.384 . S
H1512 C1518 0.930 . S
H1513 C1522 0.930 . S
H1514 C1527 0.929 . S
H1515 C1525 0.929 . S
H1516 C1520 0.929 . S
H1517 C1526 0.929 . S
C1518 H1512 0.930 . S
C1518 C1519 1.367 . S
C1518 C1526 1.378 . S
C1519 C1518 1.367 . S
C1519 C1527 1.433 . S
C1520 H1516 0.929 . S
C1520 C1522 1.378 . S
C1520 C1524 1.350 . S
C1521 C1524 1.463 . S
C1521 C1526 1.350 . S
C1521 N1529 1.427 . S
C1522 H1513 0.930 . S
C1522 C1520 1.378 . S
C1522 C1523 1.367 . S
C1523 C1522 1.367 . S
C1523 C1525 1.433 . S
C1524 C1520 1.350 . S
C1524 C1521 1.463 . S
C1524 N1528 1.427 . S
C1525 H1515 0.929 . S
C1525 C1523 1.433 . S
C1525 N1528 1.384 . S
C1526 H1517 0.929 . S
C1526 C1518 1.378 . S
C1526 C1521 1.350 . S
C1527 H1514 0.929 . S
C1527 C1519 1.433 . S
C1527 N1529 1.384 . S
N1528 C1524 1.427 . S
N1528 C1525 1.384 . S
N1529 C1521 1.427 . S
N1529 C1527 1.384 . S
H1530 C1536 0.930 . S
H1531 C1540 0.930 . S
H1532 C1545 0.929 . S
H1533 C1543 0.929 . S
H1534 C1538 0.929 . S
H1535 C1544 0.929 . S
C1536 H1530 0.930 . S
C1536 C1537 1.367 . S
C1536 C1544 1.378 . S
C1537 C1536 1.367 . S
C1537 C1545 1.433 . S
C1538 H1534 0.929 . S
C1538 C1540 1.378 . S
C1538 C1542 1.350 . S
C1539 C1542 1.463 . S
C1539 C1544 1.350 . S
C1539 N1547 1.427 . S
C1540 H1531 0.930 . S
C1540 C1538 1.378 . S
C1540 C1541 1.367 . S
C1541 C1540 1.367 . S
C1541 C1543 1.433 . S
C1542 C1538 1.350 . S
C1542 C1539 1.463 . S
C1542 N1546 1.427 . S
C1543 H1533 0.929 . S
C1543 C1541 1.433 . S
C1543 N1546 1.384 . S
C1544 H1535 0.929 . S
C1544 C1536 1.378 . S
C1544 C1539 1.350 . S
C1545 H1532 0.929 . S
C1545 C1537 1.433 . S
C1545 N1547 1.384 . S
N1546 C1542 1.427 . S
N1546 C1543 1.384 . S
N1547 C1539 1.427 . S
N1547 C1545 1.384 . S
H1548 C1554 0.930 . S
H1549 C1558 0.930 . S
H1550 C1563 0.929 . S
H1551 C1561 0.929 . S
H1552 C1556 0.929 . S
H1553 C1562 0.929 . S
C1554 H1548 0.930 . S
C1554 C1555 1.367 . S
C1554 C1562 1.378 . S
C1555 C1554 1.367 . S
C1555 C1563 1.433 . S
C1556 H1552 0.929 . S
C1556 C1558 1.378 . S
C1556 C1560 1.350 . S
C1557 C1560 1.463 . S
C1557 C1562 1.350 . S
C1557 N1565 1.427 . S
C1558 H1549 0.930 . S
C1558 C1556 1.378 . S
C1558 C1559 1.367 . S
C1559 C1558 1.367 . S
C1559 C1561 1.433 . S
C1560 C1556 1.350 . S
C1560 C1557 1.463 . S
C1560 N1564 1.427 . S
C1561 H1551 0.929 . S
C1561 C1559 1.433 . S
C1561 N1564 1.384 . S
C1562 H1553 0.929 . S
C1562 C1554 1.378 . S
C1562 C1557 1.350 . S
C1563 H1550 0.929 . S
C1563 C1555 1.433 . S
C1563 N1565 1.384 . S
N1564 C1560 1.427 . S
N1564 C1561 1.384 . S
N1565 C1557 1.427 . S
N1565 C1563 1.384 . S
H1566 C1572 0.930 . S
H1567 C1576 0.930 . S
H1568 C1581 0.929 . S
H1569 C1579 0.929 . S
H1570 C1574 0.929 . S
H1571 C1580 0.929 . S
C1572 H1566 0.930 . S
C1572 C1573 1.367 . S
C1572 C1580 1.378 . S
C1573 C1572 1.367 . S
C1573 C1581 1.433 . S
C1574 H1570 0.929 . S
C1574 C1576 1.378 . S
C1574 C1578 1.350 . S
C1575 C1578 1.463 . S
C1575 C1580 1.350 . S
C1575 N1583 1.427 . S
C1576 H1567 0.930 . S
C1576 C1574 1.378 . S
C1576 C1577 1.367 . S
C1577 C1576 1.367 . S
C1577 C1579 1.433 . S
C1578 C1574 1.350 . S
C1578 C1575 1.463 . S
C1578 N1582 1.427 . S
C1579 H1569 0.929 . S
C1579 C1577 1.433 . S
C1579 N1582 1.384 . S
C1580 H1571 0.929 . S
C1580 C1572 1.378 . S
C1580 C1575 1.350 . S
C1581 H1568 0.929 . S
C1581 C1573 1.433 . S
C1581 N1583 1.384 . S
N1582 C1578 1.427 . S
N1582 C1579 1.384 . S
N1583 C1575 1.427 . S
N1583 C1581 1.384 . S
H1584 C1590 0.930 . S
H1585 C1594 0.930 . S
H1586 C1599 0.929 . S
H1587 C1597 0.929 . S
H1588 C1592 0.929 . S
H1589 C1598 0.929 . S
C1590 H1584 0.930 . S
C1590 C1591 1.367 . S
C1590 C1598 1.378 . S
C1591 C1590 1.367 . S
C1591 C1599 1.433 . S
C1592 H1588 0.929 . S
C1592 C1594 1.378 . S
C1592 C1596 1.350 . S
C1593 C1596 1.463 . S
C1593 C1598 1.350 . S
C1593 N1601 1.427 . S
C1594 H1585 0.930 . S
C1594 C1592 1.378 . S
C1594 C1595 1.367 . S
C1595 C1594 1.367 . S
C1595 C1597 1.433 . S
C1596 C1592 1.350 . S
C1596 C1593 1.463 . S
C1596 N1600 1.427 . S
C1597 H1587 0.929 . S
C1597 C1595 1.433 . S
C1597 N1600 1.384 . S
C1598 H1589 0.929 . S
C1598 C1590 1.378 . S
C1598 C1593 1.350 . S
C1599 H1586 0.929 . S
C1599 C1591 1.433 . S
C1599 N1601 1.384 . S
N1600 C1596 1.427 . S
N1600 C1597 1.384 . S
N1601 C1593 1.427 . S
N1601 C1599 1.384 . S
H1602 C1608 0.930 . S
H1603 C1612 0.930 . S
H1604 C1617 0.929 . S
H1605 C1615 0.929 . S
H1606 C1610 0.929 . S
H1607 C1616 0.929 . S
C1608 H1602 0.930 . S
C1608 C1609 1.367 . S
C1608 C1616 1.378 . S
C1609 C1608 1.367 . S
C1609 C1617 1.433 . S
C1610 H1606 0.929 . S
C1610 C1612 1.378 . S
C1610 C1614 1.350 . S
C1611 C1614 1.463 . S
C1611 C1616 1.350 . S
C1611 N1619 1.427 . S
C1612 H1603 0.930 . S
C1612 C1610 1.378 . S
C1612 C1613 1.367 . S
C1613 C1612 1.367 . S
C1613 C1615 1.433 . S
C1614 C1610 1.350 . S
C1614 C1611 1.463 . S
C1614 N1618 1.427 . S
C1615 H1605 0.929 . S
C1615 C1613 1.433 . S
C1615 N1618 1.384 . S
C1616 H1607 0.929 . S
C1616 C1608 1.378 . S
C1616 C1611 1.350 . S
C1617 H1604 0.929 . S
C1617 C1609 1.433 . S
C1617 N1619 1.384 . S
N1618 C1614 1.427 . S
N1618 C1615 1.384 . S
N1619 C1611 1.427 . S
N1619 C1617 1.384 . S
H1620 C1626 0.930 . S
H1621 C1630 0.930 . S
H1622 C1635 0.929 . S
H1623 C1633 0.929 . S
H1624 C1628 0.929 . S
H1625 C1634 0.929 . S
C1626 H1620 0.930 . S
C1626 C1627 1.367 . S
C1626 C1634 1.378 . S
C1627 C1626 1.367 . S
C1627 C1635 1.433 . S
C1628 H1624 0.929 . S
C1628 C1630 1.378 . S
C1628 C1632 1.350 . S
C1629 C1632 1.463 . S
C1629 C1634 1.350 . S
C1629 N1637 1.427 . S
C1630 H1621 0.930 . S
C1630 C1628 1.378 . S
C1630 C1631 1.367 . S
C1631 C1630 1.367 . S
C1631 C1633 1.433 . S
C1632 C1628 1.350 . S
C1632 C1629 1.463 . S
C1632 N1636 1.427 . S
C1633 H1623 0.929 . S
C1633 C1631 1.433 . S
C1633 N1636 1.384 . S
C1634 H1625 0.929 . S
C1634 C1626 1.378 . S
C1634 C1629 1.350 . S
C1635 H1622 0.929 . S
C1635 C1627 1.433 . S
C1635 N1637 1.384 . S
N1636 C1632 1.427 . S
N1636 C1633 1.384 . S
N1637 C1629 1.427 . S
N1637 C1635 1.384 . S
H1638 C1644 0.930 . S
H1639 C1648 0.930 . S
H1640 C1653 0.929 . S
H1641 C1651 0.929 . S
H1642 C1646 0.929 . S
H1643 C1652 0.929 . S
C1644 H1638 0.930 . S
C1644 C1645 1.367 . S
C1644 C1652 1.378 . S
C1645 C1644 1.367 . S
C1645 C1653 1.433 . S
C1646 H1642 0.929 . S
C1646 C1648 1.378 . S
C1646 C1650 1.350 . S
C1647 C1650 1.463 . S
C1647 C1652 1.350 . S
C1647 N1655 1.427 . S
C1648 H1639 0.930 . S
C1648 C1646 1.378 . S
C1648 C1649 1.367 . S
C1649 C1648 1.367 . S
C1649 C1651 1.433 . S
C1650 C1646 1.350 . S
C1650 C1647 1.463 . S
C1650 N1654 1.427 . S
C1651 H1641 0.929 . S
C1651 C1649 1.433 . S
C1651 N1654 1.384 . S
C1652 H1643 0.929 . S
C1652 C1644 1.378 . S
C1652 C1647 1.350 . S
C1653 H1640 0.929 . S
C1653 C1645 1.433 . S
C1653 N1655 1.384 . S
N1654 C1650 1.427 . S
N1654 C1651 1.384 . S
N1655 C1647 1.427 . S
N1655 C1653 1.384 . S
H1656 C1662 0.930 . S
H1657 C1666 0.930 . S
H1658 C1671 0.929 . S
H1659 C1669 0.929 . S
H1660 C1664 0.929 . S
H1661 C1670 0.929 . S
C1662 H1656 0.930 . S
C1662 C1663 1.367 . S
C1662 C1670 1.378 . S
C1663 C1662 1.367 . S
C1663 C1671 1.433 . S
C1664 H1660 0.929 . S
C1664 C1666 1.378 . S
C1664 C1668 1.350 . S
C1665 C1668 1.463 . S
C1665 C1670 1.350 . S
C1665 N1673 1.427 . S
C1666 H1657 0.930 . S
C1666 C1664 1.378 . S
C1666 C1667 1.367 . S
C1667 C1666 1.367 . S
C1667 C1669 1.433 . S
C1668 C1664 1.350 . S
C1668 C1665 1.463 . S
C1668 N1672 1.427 . S
C1669 H1659 0.929 . S
C1669 C1667 1.433 . S
C1669 N1672 1.384 . S
C1670 H1661 0.929 . S
C1670 C1662 1.378 . S
C1670 C1665 1.350 . S
C1671 H1658 0.929 . S
C1671 C1663 1.433 . S
C1671 N1673 1.384 . S
N1672 C1668 1.427 . S
N1672 C1669 1.384 . S
N1673 C1665 1.427 . S
N1673 C1671 1.384 . S
H1674 C1680 0.930 . S
H1675 C1684 0.930 . S
H1676 C1689 0.929 . S
H1677 C1687 0.929 . S
H1678 C1682 0.929 . S
H1679 C1688 0.929 . S
C1680 H1674 0.930 . S
C1680 C1681 1.367 . S
C1680 C1688 1.378 . S
C1681 C1680 1.367 . S
C1681 C1689 1.433 . S
C1682 H1678 0.929 . S
C1682 C1684 1.378 . S
C1682 C1686 1.350 . S
C1683 C1686 1.463 . S
C1683 C1688 1.350 . S
C1683 N1691 1.427 . S
C1684 H1675 0.930 . S
C1684 C1682 1.378 . S
C1684 C1685 1.367 . S
C1685 C1684 1.367 . S
C1685 C1687 1.433 . S
C1686 C1682 1.350 . S
C1686 C1683 1.463 . S
C1686 N1690 1.427 . S
C1687 H1677 0.929 . S
C1687 C1685 1.433 . S
C1687 N1690 1.384 . S
C1688 H1679 0.929 . S
C1688 C1680 1.378 . S
C1688 C1683 1.350 . S
C1689 H1676 0.929 . S
C1689 C1681 1.433 . S
C1689 N1691 1.384 . S
N1690 C1686 1.427 . S
N1690 C1687 1.384 . S
N1691 C1683 1.427 . S
N1691 C1689 1.384 . S
H1692 C1698 0.930 . S
H1693 C1702 0.930 . S
H1694 C1707 0.929 . S
H1695 C1705 0.929 . S
H1696 C1700 0.929 . S
H1697 C1706 0.929 . S
C1698 H1692 0.930 . S
C1698 C1699 1.367 . S
C1698 C1706 1.378 . S
C1699 C1698 1.367 . S
C1699 C1707 1.433 . S
C1700 H1696 0.929 . S
C1700 C1702 1.378 . S
C1700 C1704 1.350 . S
C1701 C1704 1.463 . S
C1701 C1706 1.350 . S
C1701 N1709 1.427 . S
C1702 H1693 0.930 . S
C1702 C1700 1.378 . S
C1702 C1703 1.367 . S
C1703 C1702 1.367 . S
C1703 C1705 1.433 . S
C1704 C1700 1.350 . S
C1704 C1701 1.463 . S
C1704 N1708 1.427 . S
C1705 H1695 0.929 . S
C1705 C1703 1.433 . S
C1705 N1708 1.384 . S
C1706 H1697 0.929 . S
C1706 C1698 1.378 . S
C1706 C1701 1.350 . S
C1707 H1694 0.929 . S
C1707 C1699 1.433 . S
C1707 N1709 1.384 . S
N1708 C1704 1.427 . S
N1708 C1705 1.384 . S
N1709 C1701 1.427 . S
N1709 C1707 1.384 . S
H1710 C1716 0.930 . S
H1711 C1720 0.930 . S
H1712 C1725 0.929 . S
H1713 C1723 0.929 . S
H1714 C1718 0.929 . S
H1715 C1724 0.929 . S
C1716 H1710 0.930 . S
C1716 C1717 1.367 . S
C1716 C1724 1.378 . S
C1717 C1716 1.367 . S
C1717 C1725 1.433 . S
C1718 H1714 0.929 . S
C1718 C1720 1.378 . S
C1718 C1722 1.350 . S
C1719 C1722 1.463 . S
C1719 C1724 1.350 . S
C1719 N1727 1.427 . S
C1720 H1711 0.930 . S
C1720 C1718 1.378 . S
C1720 C1721 1.367 . S
C1721 C1720 1.367 . S
C1721 C1723 1.433 . S
C1722 C1718 1.350 . S
C1722 C1719 1.463 . S
C1722 N1726 1.427 . S
C1723 H1713 0.929 . S
C1723 C1721 1.433 . S
C1723 N1726 1.384 . S
C1724 H1715 0.929 . S
C1724 C1716 1.378 . S
C1724 C1719 1.350 . S
C1725 H1712 0.929 . S
C1725 C1717 1.433 . S
C1725 N1727 1.384 . S
N1726 C1722 1.427 . S
N1726 C1723 1.384 . S
N1727 C1719 1.427 . S
N1727 C1725 1.384 . S
H1728 C1734 0.930 . S
H1729 C1738 0.930 . S
H1730 C1743 0.929 . S
H1731 C1741 0.929 . S
H1732 C1736 0.929 . S
H1733 C1742 0.929 . S
C1734 H1728 0.930 . S
C1734 C1735 1.367 . S
C1734 C1742 1.378 . S
C1735 C1734 1.367 . S
C1735 C1743 1.433 . S
C1736 H1732 0.929 . S
C1736 C1738 1.378 . S
C1736 C1740 1.350 . S
C1737 C1740 1.463 . S
C1737 C1742 1.350 . S
C1737 N1745 1.427 . S
C1738 H1729 0.930 . S
C1738 C1736 1.378 . S
C1738 C1739 1.367 . S
C1739 C1738 1.367 . S
C1739 C1741 1.433 . S
C1740 C1736 1.350 . S
C1740 C1737 1.463 . S
C1740 N1744 1.427 . S
C1741 H1731 0.929 . S
C1741 C1739 1.433 . S
C1741 N1744 1.384 . S
C1742 H1733 0.929 . S
C1742 C1734 1.378 . S
C1742 C1737 1.350 . S
C1743 H1730 0.929 . S
C1743 C1735 1.433 . S
C1743 N1745 1.384 . S
N1744 C1740 1.427 . S
N1744 C1741 1.384 . S
N1745 C1737 1.427 . S
N1745 C1743 1.384 . S
H1746 C1752 0.930 . S
H1747 C1756 0.930 . S
H1748 C1761 0.929 . S
H1749 C1759 0.929 . S
H1750 C1754 0.929 . S
H1751 C1760 0.929 . S
C1752 H1746 0.930 . S
C1752 C1753 1.367 . S
C1752 C1760 1.378 . S
C1753 C1752 1.367 . S
C1753 C1761 1.433 . S
C1754 H1750 0.929 . S
C1754 C1756 1.378 . S
C1754 C1758 1.350 . S
C1755 C1758 1.463 . S
C1755 C1760 1.350 . S
C1755 N1763 1.427 . S
C1756 H1747 0.930 . S
C1756 C1754 1.378 . S
C1756 C1757 1.367 . S
C1757 C1756 1.367 . S
C1757 C1759 1.433 . S
C1758 C1754 1.350 . S
C1758 C1755 1.463 . S
C1758 N1762 1.427 . S
C1759 H1749 0.929 . S
C1759 C1757 1.433 . S
C1759 N1762 1.384 . S
C1760 H1751 0.929 . S
C1760 C1752 1.378 . S
C1760 C1755 1.350 . S
C1761 H1748 0.929 . S
C1761 C1753 1.433 . S
C1761 N1763 1.384 . S
N1762 C1758 1.427 . S
N1762 C1759 1.384 . S
N1763 C1755 1.427 . S
N1763 C1761 1.384 . S
H1764 C1770 0.930 . S
H1765 C1774 0.930 . S
H1766 C1779 0.929 . S
H1767 C1777 0.929 . S
H1768 C1772 0.929 . S
H1769 C1778 0.929 . S
C1770 H1764 0.930 . S
C1770 C1771 1.367 . S
C1770 C1778 1.378 . S
C1771 C1770 1.367 . S
C1771 C1779 1.433 . S
C1772 H1768 0.929 . S
C1772 C1774 1.378 . S
C1772 C1776 1.350 . S
C1773 C1776 1.463 . S
C1773 C1778 1.350 . S
C1773 N1781 1.427 . S
C1774 H1765 0.930 . S
C1774 C1772 1.378 . S
C1774 C1775 1.367 . S
C1775 C1774 1.367 . S
C1775 C1777 1.433 . S
C1776 C1772 1.350 . S
C1776 C1773 1.463 . S
C1776 N1780 1.427 . S
C1777 H1767 0.929 . S
C1777 C1775 1.433 . S
C1777 N1780 1.384 . S
C1778 H1769 0.929 . S
C1778 C1770 1.378 . S
C1778 C1773 1.350 . S
C1779 H1766 0.929 . S
C1779 C1771 1.433 . S
C1779 N1781 1.384 . S
N1780 C1776 1.427 . S
N1780 C1777 1.384 . S
N1781 C1773 1.427 . S
N1781 C1779 1.384 . S
H1782 C1788 0.930 . S
H1783 C1792 0.930 . S
H1784 C1797 0.929 . S
H1785 C1795 0.929 . S
H1786 C1790 0.929 . S
H1787 C1796 0.929 . S
C1788 H1782 0.930 . S
C1788 C1789 1.367 . S
C1788 C1796 1.378 . S
C1789 C1788 1.367 . S
C1789 C1797 1.433 . S
C1790 H1786 0.929 . S
C1790 C1792 1.378 . S
C1790 C1794 1.350 . S
C1791 C1794 1.463 . S
C1791 C1796 1.350 . S
C1791 N1799 1.427 . S
C1792 H1783 0.930 . S
C1792 C1790 1.378 . S
C1792 C1793 1.367 . S
C1793 C1792 1.367 . S
C1793 C1795 1.433 . S
C1794 C1790 1.350 . S
C1794 C1791 1.463 . S
C1794 N1798 1.427 . S
C1795 H1785 0.929 . S
C1795 C1793 1.433 . S
C1795 N1798 1.384 . S
C1796 H1787 0.929 . S
C1796 C1788 1.378 . S
C1796 C1791 1.350 . S
C1797 H1784 0.929 . S
C1797 C1789 1.433 . S
C1797 N1799 1.384 . S
N1798 C1794 1.427 . S
N1798 C1795 1.384 . S
N1799 C1791 1.427 . S
N1799 C1797 1.384 . S
H1800 C1806 0.930 . S
H1801 C1810 0.930 . S
H1802 C1815 0.929 . S
H1803 C1813 0.929 . S
H1804 C1808 0.929 . S
H1805 C1814 0.929 . S
C1806 H1800 0.930 . S
C1806 C1807 1.367 . S
C1806 C1814 1.378 . S
C1807 C1806 1.367 . S
C1807 C1815 1.433 . S
C1808 H1804 0.929 . S
C1808 C1810 1.378 . S
C1808 C1812 1.350 . S
C1809 C1812 1.463 . S
C1809 C1814 1.350 . S
C1809 N1817 1.427 . S
C1810 H1801 0.930 . S
C1810 C1808 1.378 . S
C1810 C1811 1.367 . S
C1811 C1810 1.367 . S
C1811 C1813 1.433 . S
C1812 C1808 1.350 . S
C1812 C1809 1.463 . S
C1812 N1816 1.427 . S
C1813 H1803 0.929 . S
C1813 C1811 1.433 . S
C1813 N1816 1.384 . S
C1814 H1805 0.929 . S
C1814 C1806 1.378 . S
C1814 C1809 1.350 . S
C1815 H1802 0.929 . S
C1815 C1807 1.433 . S
C1815 N1817 1.384 . S
N1816 C1812 1.427 . S
N1816 C1813 1.384 . S
N1817 C1809 1.427 . S
N1817 C1815 1.384 . S
H1818 C1824 0.930 . S
H1819 C1828 0.930 . S
H1820 C1833 0.929 . S
H1821 C1831 0.929 . S
H1822 C1826 0.929 . S
H1823 C1832 0.929 . S
C1824 H1818 0.930 . S
C1824 C1825 1.367 . S
C1824 C1832 1.378 . S
C1825 C1824 1.367 . S
C1825 C1833 1.433 . S
C1826 H1822 0.929 . S
C1826 C1828 1.378 . S
C1826 C1830 1.350 . S
C1827 C1830 1.463 . S
C1827 C1832 1.350 . S
C1827 N1835 1.427 . S
C1828 H1819 0.930 . S
C1828 C1826 1.378 . S
C1828 C1829 1.367 . S
C1829 C1828 1.367 . S
C1829 C1831 1.433 . S
C1830 C1826 1.350 . S
C1830 C1827 1.463 . S
C1830 N1834 1.427 . S
C1831 H1821 0.929 . S
C1831 C1829 1.433 . S
C1831 N1834 1.384 . S
C1832 H1823 0.929 . S
C1832 C1824 1.378 . S
C1832 C1827 1.350 . S
C1833 H1820 0.929 . S
C1833 C1825 1.433 . S
C1833 N1835 1.384 . S
N1834 C1830 1.427 . S
N1834 C1831 1.384 . S
N1835 C1827 1.427 . S
N1835 C1833 1.384 . S
H1836 C1842 0.930 . S
H1837 C1846 0.930 . S
H1838 C1851 0.929 . S
H1839 C1849 0.929 . S
H1840 C1844 0.929 . S
H1841 C1850 0.929 . S
C1842 H1836 0.930 . S
C1842 C1843 1.367 . S
C1842 C1850 1.378 . S
C1843 C1842 1.367 . S
C1843 C1851 1.433 . S
C1844 H1840 0.929 . S
C1844 C1846 1.378 . S
C1844 C1848 1.350 . S
C1845 C1848 1.463 . S
C1845 C1850 1.350 . S
C1845 N1853 1.427 . S
C1846 H1837 0.930 . S
C1846 C1844 1.378 . S
C1846 C1847 1.367 . S
C1847 C1846 1.367 . S
C1847 C1849 1.433 . S
C1848 C1844 1.350 . S
C1848 C1845 1.463 . S
C1848 N1852 1.427 . S
C1849 H1839 0.929 . S
C1849 C1847 1.433 . S
C1849 N1852 1.384 . S
C1850 H1841 0.929 . S
C1850 C1842 1.378 . S
C1850 C1845 1.350 . S
C1851 H1838 0.929 . S
C1851 C1843 1.433 . S
C1851 N1853 1.384 . S
N1852 C1848 1.427 . S
N1852 C1849 1.384 . S
N1853 C1845 1.427 . S
N1853 C1851 1.384 . S
H1854 C1860 0.930 . S
H1855 C1864 0.930 . S
H1856 C1869 0.929 . S
H1857 C1867 0.929 . S
H1858 C1862 0.929 . S
H1859 C1868 0.929 . S
C1860 H1854 0.930 . S
C1860 C1861 1.367 . S
C1860 C1868 1.378 . S
C1861 C1860 1.367 . S
C1861 C1869 1.433 . S
C1862 H1858 0.929 . S
C1862 C1864 1.378 . S
C1862 C1866 1.350 . S
C1863 C1866 1.463 . S
C1863 C1868 1.350 . S
C1863 N1871 1.427 . S
C1864 H1855 0.930 . S
C1864 C1862 1.378 . S
C1864 C1865 1.367 . S
C1865 C1864 1.367 . S
C1865 C1867 1.433 . S
C1866 C1862 1.350 . S
C1866 C1863 1.463 . S
C1866 N1870 1.427 . S
C1867 H1857 0.929 . S
C1867 C1865 1.433 . S
C1867 N1870 1.384 . S
C1868 H1859 0.929 . S
C1868 C1860 1.378 . S
C1868 C1863 1.350 . S
C1869 H1856 0.929 . S
C1869 C1861 1.433 . S
C1869 N1871 1.384 . S
N1870 C1866 1.427 . S
N1870 C1867 1.384 . S
N1871 C1863 1.427 . S
N1871 C1869 1.384 . S
C799 C186 0.970 . S
C803 C21 0.958 . S
C817 C54 0.972 . S
C821 C219 0.963 . S
C835 C87 0.966 . S
C839 C252 0.971 . S
C853 C153 0.961 . S
C857 C120 0.963 . S
C871 C285 0.959 . S
C875 C780 0.972 . S
C889 C714 0.960 . S
C893 C318 0.973 . S
C907 C351 0.971 . S
C911 C747 0.965 . S
C925 C549 0.959 . S
C929 C384 0.967 . S
C943 C417 0.959 . S
C947 C681 0.972 . S
C961 C450 0.961 . S
C965 C582 0.963 . S
C979 C615 0.972 . S
C983 C483 0.963 . S
C997 C516 0.960 . S
C1001 C648 0.965 . S
C1015 N101 1.635 . S
C1019 C7 1.688 . S
C1033 C40 1.697 . S
C1037 N2 1.637 . S
C1051 C73 1.690 . S
C1055 N35 1.639 . S
C1069 N68 1.646 . S
C1073 C106 1.697 . S
C1087 N167 1.640 . S
C1091 C139 1.698 . S
C1105 C172 1.694 . S
C1109 N200 1.633 . S
C1123 N233 1.634 . S
C1127 C205 1.688 . S
C1141 N134 1.645 . S
C1145 C238 1.699 . S
C1159 N596 1.645 . S
C1163 C271 1.695 . S
C1177 C304 1.689 . S
C1181 N629 1.630 . S
C1195 N662 1.641 . S
C1199 C337 1.691 . S
C1213 C370 1.688 . S
C1217 N563 1.631 . S
C1231 N728 1.630 . S
C1235 C403 1.689 . S
C1249 C436 1.690 . S
C1253 N530 1.630 . S
C1267 N761 1.646 . S
C1271 C469 1.696 . S
C1285 C502 1.689 . S
C1289 N695 1.630 . S
C1303 N299 1.631 . S
C1307 C535 1.688 . S
C1321 N497 1.644 . S
C1325 C568 1.693 . S
C1339 C601 1.691 . S
C1343 N398 1.640 . S
C1357 C634 1.690 . S
C1361 N431 1.639 . S
C1375 N464 1.646 . S
C1379 C667 1.697 . S
C1393 N365 1.646 . S
C1397 C700 1.698 . S
C1411 N266 1.646 . S
C1415 C733 1.696 . S
C1429 C766 1.688 . S
C1433 N332 1.634 . S
C1447 C18 1.269 . S
C1451 N541 1.195 . S
C1465 N772 1.178 . S
C1469 C51 1.262 . S
C1483 C84 1.272 . S
C1487 N706 1.202 . S
C1501 N739 1.195 . S
C1505 C117 1.269 . S
C1519 C150 1.272 . S
C1523 N574 1.202 . S
C1537 C183 1.272 . S
C1541 N607 1.201 . S
C1555 N640 1.196 . S
C1559 C216 1.269 . S
C1573 N673 1.193 . S
C1577 C249 1.268 . S
C1591 N13 1.202 . S
C1595 C282 1.272 . S
C1609 C315 1.272 . S
C1613 N46 1.202 . S
C1627 C348 1.267 . S
C1631 N79 1.190 . S
C1645 C381 1.272 . S
C1649 N112 1.202 . S
C1663 C414 1.269 . S
C1667 N145 1.196 . S
C1681 C447 1.263 . S
C1685 N178 1.179 . S
C1699 C480 1.266 . S
C1703 N211 1.186 . S
C1717 C513 1.271 . S
C1721 N244 1.199 . S
C1735 N277 1.179 . S
C1739 C546 1.263 . S
C1753 C579 1.262 . S
C1757 N409 1.178 . S
C1771 C612 1.266 . S
C1775 N442 1.186 . S
C1789 N475 1.178 . S
C1793 C645 1.262 . S
C1807 C678 1.268 . S
C1811 N508 1.192 . S
C1825 N343 1.198 . S
C1829 C711 1.271 . S
C1843 N376 1.202 . S
C1847 C744 1.272 . S
C1861 C777 1.270 . S
C1865 N310 1.198 . S
