# Generated by pormake.
# Topology dft, (4)-cn, num edge types: 1
# Building blocks:
#     Node 0, Type 0, BuildingBlock: CEKHIL_clean_sbu_0, # of connection points: 4
#     Node 1, Type 0, BuildingBlock: CEKHIL_clean_sbu_0, # of connection points: 4
#     Node 2, Type 0, BuildingBlock: CEKHIL_clean_sbu_0, # of connection points: 4
#     Node 3, Type 0, BuildingBlock: CEKHIL_clean_sbu_0, # of connection points: 4
#     Node 4, Type 0, BuildingBlock: CEKHIL_clean_sbu_0, # of connection points: 4
#     Node 5, Type 0, BuildingBlock: CEKHIL_clean_sbu_0, # of connection points: 4
#     Node 6, Type 0, BuildingBlock: CEKHIL_clean_sbu_0, # of connection points: 4
#     Node 7, Type 0, BuildingBlock: CEKHIL_clean_sbu_0, # of connection points: 4
#     Edge 8, Type (0, 0), BuildingBlock: XUDNAN_clean_linker_2, # of connection points: 2
#     Edge 9, Type (0, 0), BuildingBlock: XUDNAN_clean_linker_2, # of connection points: 2
#     Edge 10, Type (0, 0), BuildingBlock: XUDNAN_clean_linker_2, # of connection points: 2
#     Edge 11, Type (0, 0), BuildingBlock: XUDNAN_clean_linker_2, # of connection points: 2
#     Edge 12, Type (0, 0), BuildingBlock: XUDNAN_clean_linker_2, # of connection points: 2
#     Edge 13, Type (0, 0), BuildingBlock: XUDNAN_clean_linker_2, # of connection points: 2
#     Edge 14, Type (0, 0), BuildingBlock: XUDNAN_clean_linker_2, # of connection points: 2
#     Edge 15, Type (0, 0), BuildingBlock: XUDNAN_clean_linker_2, # of connection points: 2
#     Edge 16, Type (0, 0), BuildingBlock: XUDNAN_clean_linker_2, # of connection points: 2
#     Edge 17, Type (0, 0), BuildingBlock: XUDNAN_clean_linker_2, # of connection points: 2
#     Edge 18, Type (0, 0), BuildingBlock: XUDNAN_clean_linker_2, # of connection points: 2
#     Edge 19, Type (0, 0), BuildingBlock: XUDNAN_clean_linker_2, # of connection points: 2
#     Edge 20, Type (0, 0), BuildingBlock: XUDNAN_clean_linker_2, # of connection points: 2
#     Edge 21, Type (0, 0), BuildingBlock: XUDNAN_clean_linker_2, # of connection points: 2
#     Edge 22, Type (0, 0), BuildingBlock: XUDNAN_clean_linker_2, # of connection points: 2
#     Edge 23, Type (0, 0), BuildingBlock: XUDNAN_clean_linker_2, # of connection points: 2
# Relax obj value: 0.182
# Max RMSD: 0.171
# Mean RMSD: 0.171
data_MOF--net-dft--node1-CEKHIL_clean_sbu_0--edge1-XUDNAN_clean_linker_2
_symmetry_space_group_name_H-M    P1
_symmetry_Int_Tables_number       1
_symmetry_cell_setting            triclinic
loop_
_symmetry_equiv_pos_as_xyz
'x, y, z'
_cell_length_a     33.844201
_cell_length_b     33.861944
_cell_length_c     40.682028
_cell_angle_alpha  89.971603
_cell_angle_beta   89.941546
_cell_angle_gamma 89.964331
loop_
_atom_site_label
_atom_site_type_symbol
_atom_site_fract_x
_atom_site_fract_y
_atom_site_fract_z
_atom_type_partial_charge
Co0 Co 0.34101 0.04489 0.17958 0.0
O1 O 0.38641 0.01126 0.17334 0.0
O2 O 0.38736 0.06882 0.19915 0.0
C3 C 0.29937 0.99567 0.19403 0.0
O4 O 0.30031 0.08709 0.19279 0.0
Co5 Co 0.26313 0.0357 0.13955 0.0
O6 O 0.2403 0.06849 0.17503 0.0
C7 C 0.33489 0.06909 0.10842 0.0
C8 C 0.40663 0.03801 0.1888 0.0
C9 C 0.26231 0.09045 0.1926 0.0
O10 O 0.35281 0.07142 0.13623 0.0
O11 O 0.30058 0.05388 0.10468 0.0
O12 O 0.32274 0.01109 0.21597 0.0
O13 O 0.30355 0.00892 0.16463 0.0
Co14 Co 0.07606 0.3351 0.67888 0.0
O15 O 0.11034 0.38039 0.67577 0.0
O16 O 0.05176 0.38007 0.70022 0.0
C17 C 0.12381 0.29128 0.69206 0.0
O18 O 0.03325 0.29411 0.68865 0.0
Co19 Co 0.0864 0.26216 0.63285 0.0
O20 O 0.04389 0.23819 0.65987 0.0
C21 C 0.06171 0.33942 0.60701 0.0
C22 C 0.08305 0.39971 0.69144 0.0
C23 C 0.02477 0.25815 0.68113 0.0
O24 O 0.0508 0.3503 0.63589 0.0
O25 O 0.08084 0.3075 0.60148 0.0
O26 O 0.1084 0.31348 0.71489 0.0
O27 O 0.11199 0.29844 0.66268 0.0
Co28 Co 0.76184 0.06837 0.1853 0.0
O29 O 0.70906 0.09056 0.18136 0.0
O30 O 0.72317 0.03101 0.20046 0.0
C31 C 0.79014 0.12322 0.20591 0.0
O32 O 0.81039 0.03456 0.19561 0.0
Co33 Co 0.83805 0.09973 0.15189 0.0
O34 O 0.86742 0.06352 0.18139 0.0
C35 C 0.77165 0.06627 0.1131 0.0
C36 C 0.69648 0.05702 0.19298 0.0
C37 C 0.84843 0.03613 0.19587 0.0
O38 O 0.75775 0.04842 0.13862 0.0
O39 O 0.80087 0.09022 0.11449 0.0
O40 O 0.77138 0.09938 0.22568 0.0
O41 O 0.79019 0.11361 0.17544 0.0
Co42 Co 0.05325 0.75477 0.69077 0.0
O43 O 0.03116 0.70214 0.687 0.0
O44 O 0.09339 0.71583 0.69918 0.0
C45 C 0.0045 0.78173 0.72097 0.0
O46 O 0.08723 0.80344 0.69904 0.0
Co47 Co 0.01325 0.83049 0.66339 0.0
O48 O 0.05308 0.85926 0.69024 0.0
C49 C 0.04824 0.77191 0.61812 0.0
C50 C 0.06631 0.68931 0.69434 0.0
C51 C 0.08354 0.84122 0.70091 0.0
O52 O 0.06603 0.75491 0.64228 0.0
O53 O 0.02319 0.7999 0.62195 0.0
O54 O 0.0315 0.76024 0.73509 0.0
O55 O 0.00591 0.78304 0.68933 0.0
Co56 Co 0.35509 0.06422 0.80451 0.0
O57 O 0.40852 0.08512 0.80422 0.0
O58 O 0.39245 0.02195 0.79996 0.0
C59 C 0.32824 0.10898 0.77016 0.0
O60 O 0.30565 0.03003 0.80144 0.0
Co61 Co 0.2797 0.1088 0.82726 0.0
O62 O 0.25031 0.06626 0.80418 0.0
C63 C 0.34009 0.0828 0.87561 0.0
C64 C 0.41996 0.04858 0.80109 0.0
C65 C 0.26804 0.03392 0.79803 0.0
O66 O 0.35688 0.06042 0.85408 0.0
O67 O 0.31151 0.10615 0.86863 0.0
O68 O 0.34797 0.07921 0.75819 0.0
O69 O 0.32788 0.11177 0.80166 0.0
Co70 Co 0.03147 0.34819 0.31152 0.0
O71 O 0.99816 0.39398 0.31402 0.0
O72 O 0.06207 0.39553 0.30252 0.0
C73 C 0.98882 0.31148 0.28219 0.0
O74 O 0.07473 0.30648 0.30509 0.0
Co75 Co 0.00451 0.26869 0.34293 0.0
O76 O 0.04919 0.24676 0.31706 0.0
C77 C 0.02126 0.33862 0.38336 0.0
C78 C 0.02918 0.41479 0.30697 0.0
C79 C 0.07654 0.26839 0.30516 0.0
O80 O 0.04228 0.35304 0.35994 0.0
O81 O 1.00039 0.30733 0.38028 0.0
O82 O 0.01156 0.33683 0.2673 0.0
O83 O 0.99068 0.31154 0.31376 0.0
Co84 Co 0.77384 0.0299 0.81317 0.0
O85 O 0.72954 0.99464 0.81839 0.0
O86 O 0.72752 0.05232 0.7927 0.0
C87 C 0.81827 0.98299 0.79959 0.0
O88 O 0.81291 0.07356 0.80074 0.0
Co89 Co 0.84981 0.0249 0.85579 0.0
O90 O 0.87179 0.06472 0.82514 0.0
C91 C 0.77316 0.0467 0.88491 0.0
C92 C 0.70886 0.02108 0.80286 0.0
C93 C 0.84955 0.08275 0.80482 0.0
O94 O 0.75933 0.05526 0.85636 0.0
O95 O 0.80703 0.03091 0.88948 0.0
O96 O 0.79474 0.99724 0.77717 0.0
O97 O 0.81246 0.99575 0.82897 0.0
Co98 Co 0.06812 0.76975 0.31178 0.0
O99 O 0.09032 0.71684 0.31265 0.0
O100 O 0.02707 0.7314 0.30588 0.0
C101 C 0.11368 0.7975 0.27875 0.0
O102 O 0.03325 0.81853 0.30727 0.0
Co103 Co 0.11046 0.84498 0.33727 0.0
O104 O 0.06845 0.8742 0.31298 0.0
C105 C 0.08394 0.78291 0.38325 0.0
C106 C 0.05429 0.70453 0.30819 0.0
C107 C 0.03685 0.85626 0.30485 0.0
O108 O 0.06132 0.76813 0.36103 0.0
O109 O 0.10856 0.81083 0.37771 0.0
O110 O 0.08509 0.77677 0.26609 0.0
O111 O 0.11534 0.79795 0.31036 0.0
H112 H 0.30839 0.12127 0.0639 0.0
H113 H 0.40376 0.03981 0.08398 0.0
H114 H 0.42297 0.04119 0.02518 0.0
H115 H 0.27621 0.07935 0.99682 0.0
H116 H 0.26364 0.12302 0.97373 0.0
H117 H 0.26444 0.12481 0.01776 0.0
H118 H 0.31478 0.1824 0.01664 0.0
H119 H 0.31331 0.18177 0.97234 0.0
H120 H 0.35991 0.17736 0.99344 0.0
H121 H 0.42038 0.03903 0.96259 0.0
H122 H 0.4015 0.0402 0.90368 0.0
H123 H 0.30846 0.12424 0.92645 0.0
C124 C 0.33475 0.10567 0.05612 0.0
C125 C 0.35514 0.0811 0.07819 0.0
C126 C 0.38857 0.05967 0.06736 0.0
C127 C 0.39942 0.06006 0.03399 0.0
C128 C 0.37695 0.08268 0.01221 0.0
C129 C 0.34602 0.1061 0.02314 0.0
C130 C 0.32332 0.12391 0.99487 0.0
C131 C 0.27935 0.11202 0.99588 0.0
C132 C 0.32814 0.16904 0.99429 0.0
C133 C 0.34451 0.10489 0.96633 0.0
C134 C 0.37571 0.08161 0.97651 0.0
C135 C 0.39671 0.05808 0.95431 0.0
C136 C 0.38558 0.05864 0.92095 0.0
C137 C 0.35352 0.08233 0.9103 0.0
C138 C 0.33335 0.106 0.93347 0.0
H139 H 0.10879 0.35996 0.55664 0.0
H140 H 0.98841 0.36745 0.59185 0.0
H141 H 0.96613 0.38611 0.53611 0.0
H142 H 0.09735 0.4404 0.48715 0.0
H143 H 0.12999 0.412 0.46129 0.0
H144 H 0.13784 0.41339 0.50513 0.0
H145 H 0.13594 0.33702 0.50659 0.0
H146 H 0.12727 0.33524 0.46324 0.0
H147 H 0.09306 0.3116 0.49096 0.0
H148 H 0.9551 0.3805 0.47666 0.0
H149 H 0.95678 0.35898 0.41874 0.0
H150 H 0.08457 0.3593 0.42055 0.0
C151 C 0.0781 0.36775 0.55278 0.0
C152 C 0.0502 0.36259 0.57813 0.0
C153 C 0.01014 0.37198 0.57265 0.0
C154 C 0.99734 0.38256 0.54106 0.0
C155 C 0.02525 0.38461 0.51577 0.0
C156 C 0.06513 0.37876 0.52154 0.0
C157 C 0.0883 0.37631 0.48972 0.0
C158 C 0.11494 0.4127 0.48558 0.0
C159 C 0.11249 0.33775 0.48753 0.0
C160 C 0.05482 0.37696 0.46517 0.0
C161 C 0.01876 0.38291 0.48063 0.0
C162 C 0.98313 0.3776 0.46407 0.0
C163 C 0.98432 0.36505 0.43132 0.0
C164 C 0.02085 0.35828 0.41544 0.0
C165 C 0.05645 0.3657 0.4321 0.0
H166 H 0.77358 0.10925 0.9258 0.0
H167 H 0.72314 0.99347 0.91123 0.0
H168 H 0.70334 0.99103 0.9697 0.0
H169 H 0.8195 0.09033 0.99318 0.0
H170 H 0.81204 0.13625 0.01471 0.0
H171 H 0.80997 0.1353 0.97075 0.0
H172 H 0.7396 0.16534 0.97156 0.0
H173 H 0.74167 0.16739 0.01583 0.0
H174 H 0.70141 0.14229 0.99579 0.0
H175 H 0.70638 0.9935 0.03149 0.0
H176 H 0.72779 0.00325 0.08931 0.0
H177 H 0.77478 0.11805 0.06281 0.0
C178 C 0.75595 0.08474 0.93461 0.0
C179 C 0.74871 0.05212 0.91422 0.0
C180 C 0.72765 0.01926 0.92654 0.0
C181 C 0.71649 0.01758 0.95973 0.0
C182 C 0.72626 0.04928 0.98002 0.0
C183 C 0.74457 0.08282 0.96764 0.0
C184 C 0.75764 0.11 0.99497 0.0
C185 C 0.80241 0.11839 0.99328 0.0
C186 C 0.73363 0.14853 0.99451 0.0
C187 C 0.74709 0.08505 0.02449 0.0
C188 C 0.72809 0.05058 0.01568 0.0
C189 C 0.72014 0.02096 0.03879 0.0
C190 C 0.73253 0.02657 0.07152 0.0
C191 C 0.75324 0.06119 0.08043 0.0
C192 C 0.75918 0.09111 0.05674 0.0
H193 H 0.02112 0.78356 0.42515 0.0
H194 H 0.14425 0.75025 0.41719 0.0
H195 H 0.14541 0.73321 0.47632 0.0
H196 H 0.03161 0.83391 0.49721 0.0
H197 H 0.98461 0.82058 0.51488 0.0
H198 H 0.99057 0.82134 0.471 0.0
H199 H 0.96745 0.74849 0.46762 0.0
H200 H 0.96116 0.74758 0.51164 0.0
H201 H 0.99218 0.71139 0.49186 0.0
H202 H 0.13555 0.72763 0.53715 0.0
H203 H 0.11691 0.73857 0.59527 0.0
H204 H 1.00152 0.77981 0.56398 0.0
C205 C 0.04773 0.7712 0.43576 0.0
C206 C 0.08234 0.76723 0.41684 0.0
C207 C 0.11733 0.75274 0.43148 0.0
C208 C 0.11819 0.7429 0.46493 0.0
C209 C 0.08387 0.74815 0.48337 0.0
C210 C 0.04927 0.76205 0.46932 0.0
C211 C 0.01834 0.7705 0.49527 0.0
C212 C 0.00557 0.81417 0.49454 0.0
C213 C 0.98267 0.74283 0.49136 0.0
C214 C 0.04148 0.76085 0.52608 0.0
C215 C 0.0788 0.74691 0.51871 0.0
C216 C 0.1062 0.73803 0.54324 0.0
C217 C 0.0954 0.74432 0.57617 0.0
C218 C 0.05789 0.76019 0.58407 0.0
C219 C 0.03045 0.7677 0.55866 0.0
H220 H 0.46256 0.09673 0.19219 0.0
H221 H 0.44793 0.96952 0.1943 0.0
H222 H 0.52024 0.96122 0.19888 0.0
H223 H 0.54771 0.09566 0.14085 0.0
H224 H 0.57166 0.13681 0.16062 0.0
H225 H 0.51858 0.13322 0.16086 0.0
H226 H 0.51836 0.13741 0.22444 0.0
H227 H 0.57148 0.14112 0.2244 0.0
H228 H 0.54749 0.10288 0.24791 0.0
H229 H 0.59355 0.96638 0.20234 0.0
H230 H 0.66407 0.98413 0.20028 0.0
H231 H 0.63262 0.10803 0.19182 0.0
C232 C 0.47465 0.06721 0.1942 0.0
C233 C 0.44974 0.03371 0.19335 0.0
C234 C 0.46655 0.99551 0.19511 0.0
C235 C 0.50754 0.99053 0.1978 0.0
C236 C 0.53138 0.02406 0.19822 0.0
C237 C 0.5157 0.06167 0.19618 0.0
C238 C 0.54825 0.0925 0.19471 0.0
C239 C 0.54643 0.11592 0.16233 0.0
C240 C 0.54627 0.12011 0.22465 0.0
C241 C 0.58461 0.06627 0.19602 0.0
C242 C 0.57406 0.02696 0.19857 0.0
C243 C 0.6022 0.99705 0.20034 0.0
C244 C 0.64222 0.00747 0.19921 0.0
C245 C 0.65389 0.04745 0.19583 0.0
C246 C 0.6246 0.07722 0.19431 0.0
H247 H 0.02549 0.45621 0.68623 0.0
H248 H 0.14975 0.43952 0.70794 0.0
H249 H 0.15804 0.51179 0.71365 0.0
H250 H 0.04081 0.54097 0.63558 0.0
H251 H 0.99592 0.56559 0.64782 0.0
H252 H 0.99866 0.51248 0.64867 0.0
H253 H 0.97865 0.51253 0.71016 0.0
H254 H 0.97566 0.56565 0.70945 0.0
H255 H 0.0069 0.5413 0.73907 0.0
H256 H 0.15343 0.5854 0.71514 0.0
H257 H 0.1371 0.65612 0.71053 0.0
H258 H 0.01635 0.62595 0.6848 0.0
C259 C 0.05419 0.46787 0.69288 0.0
C260 C 0.08692 0.4425 0.69726 0.0
C261 C 0.12434 0.45863 0.70479 0.0
C262 C 0.12928 0.49955 0.70809 0.0
C263 C 0.09661 0.52392 0.70315 0.0
C264 C 0.05983 0.50879 0.69546 0.0
C265 C 0.03042 0.54169 0.68883 0.0
C266 C 0.01558 0.54007 0.65311 0.0
C267 C 0.99587 0.5402 0.71336 0.0
C268 C 0.05626 0.57763 0.69449 0.0
C269 C 0.09429 0.56662 0.7028 0.0
C270 C 0.12374 0.5944 0.70869 0.0
C271 C 0.11416 0.63454 0.70595 0.0
C272 C 0.07546 0.64664 0.69728 0.0
C273 C 0.04616 0.61767 0.69155 0.0
H274 H 0.65443 0.07993 0.79298 0.0
H275 H 0.66572 0.95321 0.80578 0.0
H276 H 0.59306 0.94657 0.80398 0.0
H277 H 0.57159 0.09092 0.84534 0.0
H278 H 0.54804 0.12879 0.82113 0.0
H279 H 0.60095 0.12347 0.82015 0.0
H280 H 0.59896 0.11604 0.7568 0.0
H281 H 0.54601 0.12158 0.75756 0.0
H282 H 0.56794 0.07871 0.73864 0.0
H283 H 0.51977 0.95373 0.8028 0.0
H284 H 0.44995 0.97411 0.80412 0.0
H285 H 0.48532 0.09686 0.79474 0.0
C286 C 0.64159 0.05073 0.79476 0.0
C287 C 0.66564 0.01697 0.79914 0.0
C288 C 0.64779 0.97938 0.80222 0.0
C289 C 0.60659 0.97533 0.80118 0.0
C290 C 0.58367 0.00922 0.79735 0.0
C291 C 0.60042 0.04623 0.79428 0.0
C292 C 0.56891 0.07808 0.79254 0.0
C293 C 0.5726 0.10701 0.82152 0.0
C294 C 0.57056 0.09988 0.75941 0.0
C295 C 0.53183 0.05318 0.79539 0.0
C296 C 0.54113 0.01352 0.79778 0.0
C297 C 0.51211 0.98467 0.80086 0.0
C298 C 0.4725 0.9966 0.8016 0.0
C299 C 0.46214 0.03709 0.79958 0.0
C300 C 0.49231 0.06571 0.79639 0.0
H301 H 0.08981 0.4697 0.30613 0.0
H302 H 0.96205 0.45832 0.30325 0.0
H303 H 0.95546 0.53061 0.30179 0.0
H304 H 0.09165 0.55388 0.35937 0.0
H305 H 0.13283 0.57748 0.33925 0.0
H306 H 0.12821 0.5245 0.33833 0.0
H307 H 0.13104 0.52563 0.27472 0.0
H308 H 0.13576 0.57863 0.27543 0.0
H309 H 0.09654 0.55591 0.25224 0.0
H310 H 0.96173 0.60317 0.30176 0.0
H311 H 0.98057 0.6732 0.30406 0.0
H312 H 0.10443 0.63981 0.30825 0.0
C313 C 0.06053 0.48251 0.30485 0.0
C314 C 0.02643 0.45833 0.30468 0.0
C315 C 0.98859 0.47617 0.30341 0.0
C316 C 0.9845 0.51725 0.30251 0.0
C317 C 0.01852 0.54026 0.30302 0.0
C318 C 0.05584 0.52374 0.3042 0.0
C319 C 0.08733 0.55568 0.3056 0.0
C320 C 0.11142 0.5527 0.33754 0.0
C321 C 0.11425 0.55384 0.27518 0.0
C322 C 0.06173 0.59255 0.30525 0.0
C323 C 0.02217 0.58275 0.30354 0.0
C324 C 0.99261 0.6113 0.30303 0.0
C325 C 0.00367 0.65106 0.30435 0.0
C326 C 0.04397 0.66208 0.30634 0.0
C327 C 0.07338 0.63232 0.30675 0.0
H328 H 0.07886 0.19415 0.2794 0.0
H329 H 0.1522 0.29709 0.29653 0.0
H330 H 0.20935 0.26198 0.27179 0.0
H331 H 0.15195 0.11964 0.29549 0.0
H332 H 0.13485 0.08767 0.26308 0.0
H333 H 0.10074 0.12046 0.28334 0.0
H334 H 0.08134 0.15095 0.22717 0.0
H335 H 0.11522 0.11813 0.20672 0.0
H336 H 0.11934 0.17072 0.20081 0.0
H337 H 0.25904 0.21372 0.24541 0.0
H338 H 0.29415 0.16013 0.21574 0.0
H339 H 0.18601 0.09145 0.21421 0.0
C340 C 0.10701 0.20929 0.27828 0.0
C341 C 0.11118 0.24823 0.29028 0.0
C342 C 0.14835 0.26722 0.28759 0.0
C343 C 0.18098 0.24744 0.2737 0.0
C344 C 0.17578 0.20891 0.26223 0.0
C345 C 0.1395 0.19032 0.26409 0.0
C346 C 0.14073 0.14972 0.24864 0.0
C347 C 0.13154 0.11748 0.27417 0.0
C348 C 0.11249 0.14726 0.21908 0.0
C349 C 0.18345 0.14812 0.23781 0.0
C350 C 0.20347 0.18224 0.24611 0.0
C351 C 0.24351 0.18699 0.2387 0.0
C352 C 0.26327 0.15636 0.22196 0.0
C353 C 0.2428 0.12171 0.21242 0.0
C354 C 0.20247 0.11768 0.22084 0.0
H355 H 0.02232 0.22514 0.74221 0.0
H356 H 0.95216 0.24615 0.65501 0.0
H357 H 0.89683 0.20807 0.67937 0.0
H358 H 0.99386 0.12654 0.7529 0.0
H359 H 0.99301 0.12786 0.7972 0.0
H360 H 0.02487 0.16085 0.77484 0.0
H361 H 0.99294 0.22084 0.80415 0.0
H362 H 0.96102 0.18798 0.82675 0.0
H363 H 0.94011 0.22738 0.80255 0.0
H364 H 0.8509 0.16435 0.71192 0.0
H365 H 0.81902 0.11583 0.74869 0.0
H366 H 0.92042 0.12099 0.81385 0.0
C367 C 0.99487 0.22241 0.72874 0.0
C368 C 0.99085 0.23901 0.69713 0.0
C369 C 0.95523 0.23402 0.67953 0.0
C370 C 0.92377 0.21251 0.69317 0.0
C371 C 0.92866 0.196 0.72433 0.0
C372 C 0.96335 0.20064 0.74189 0.0
C373 C 0.96221 0.17731 0.77368 0.0
C374 C 0.99545 0.1463 0.77469 0.0
C375 C 0.96418 0.20503 0.80355 0.0
C376 C 0.92192 0.15808 0.7709 0.0
C377 C 0.90276 0.16976 0.74255 0.0
C378 C 0.86552 0.15521 0.73432 0.0
C379 C 0.8476 0.12768 0.75541 0.0
C380 C 0.86712 0.11449 0.78422 0.0
C381 C 0.90463 0.13038 0.79207 0.0
H382 H 0.03736 0.93046 0.27666 0.0
H383 H 0.9595 0.83343 0.30258 0.0
H384 H 0.90318 0.8693 0.27837 0.0
H385 H 0.96728 0.01009 0.29141 0.0
H386 H 0.98364 0.03881 0.25665 0.0
H387 H 0.01771 0.0064 0.2774 0.0
H388 H 0.03287 0.97117 0.22231 0.0
H389 H 0.99877 0.00337 0.2014 0.0
H390 H 0.99282 0.95058 0.1987 0.0
H391 H 0.85532 0.91499 0.25092 0.0
H392 H 0.81921 0.96702 0.22108 0.0
H393 H 0.92802 0.03401 0.21109 0.0
C394 C 0.00837 0.917 0.27764 0.0
C395 C 0.00287 0.87918 0.29178 0.0
C396 C 0.96453 0.86233 0.29195 0.0
C397 C 0.93229 0.8825 0.27829 0.0
C398 C 0.93878 0.91946 0.26426 0.0
C399 C 0.97583 0.93658 0.26373 0.0
C400 C 0.97487 0.97604 0.24599 0.0
C401 C 0.98656 0.00983 0.26926 0.0
C402 C 1.0014 0.97522 0.21528 0.0
C403 C 0.93149 0.97838 0.23672 0.0
C404 C 0.91123 0.9455 0.24766 0.0
C405 C 0.87087 0.94089 0.24222 0.0
C406 C 0.85059 0.97069 0.22521 0.0
C407 C 0.87065 0.0047 0.21355 0.0
C408 C 0.91175 0.00837 0.21945 0.0
H409 H 0.08486 0.92076 0.71622 0.0
H410 H 0.15597 0.81399 0.7206 0.0
H411 H 0.20972 0.8514 0.74685 0.0
H412 H 0.16464 0.98762 0.69798 0.0
H413 H 0.14532 0.02705 0.72305 0.0
H414 H 0.11213 0.99194 0.70459 0.0
H415 H 0.083 0.97571 0.76195 0.0
H416 H 0.11619 0.01071 0.78059 0.0
H417 H 0.11557 0.96017 0.79453 0.0
H418 H 0.25627 0.90011 0.7718 0.0
H419 H 0.2927 0.95713 0.79395 0.0
H420 H 0.19149 0.03257 0.77454 0.0
C421 C 0.11175 0.90522 0.72258 0.0
C422 C 0.11606 0.86431 0.71618 0.0
C423 C 0.15178 0.84522 0.72516 0.0
C424 C 0.18256 0.86622 0.74013 0.0
C425 C 0.17728 0.90635 0.74616 0.0
C426 C 0.14281 0.92572 0.73772 0.0
C427 C 0.14487 0.96909 0.74698 0.0
C428 C 0.14155 0.99547 0.71632 0.0
C429 C 0.11302 0.97952 0.77253 0.0
C430 C 0.18594 0.97103 0.7618 0.0
C431 C 0.20406 0.93448 0.76103 0.0
C432 C 0.24234 0.92887 0.77265 0.0
C433 C 0.26281 0.96152 0.78519 0.0
C434 C 0.245 0.99942 0.78619 0.0
C435 C 0.20586 0.00399 0.77448 0.0
H436 H 0.83871 0.94801 0.74053 0.0
H437 H 0.86759 0.95025 0.84452 0.0
H438 H 0.91712 0.89817 0.83601 0.0
H439 H 0.84819 0.84334 0.72975 0.0
H440 H 0.87056 0.84669 0.68962 0.0
H441 H 0.83739 0.88484 0.70346 0.0
H442 H 0.89138 0.93768 0.69307 0.0
H443 H 0.9246 0.89971 0.67896 0.0
H444 H 0.93922 0.93203 0.71195 0.0
H445 H 0.96261 0.84485 0.81696 0.0
H446 H 0.00384 0.79609 0.78731 0.0
H447 H 0.9462 0.8285 0.69589 0.0
C448 C 0.85562 0.93765 0.76141 0.0
C449 C 0.8492 0.95318 0.79316 0.0
C450 C 0.87194 0.93884 0.81991 0.0
C451 C 0.90014 0.90916 0.8154 0.0
C452 C 0.90548 0.8941 0.78396 0.0
C453 C 0.88416 0.90798 0.75734 0.0
C454 C 0.89608 0.88676 0.72611 0.0
C455 C 0.86096 0.86406 0.71138 0.0
C456 C 0.91388 0.91578 0.70105 0.0
C457 C 0.92716 0.8588 0.73947 0.0
C458 C 0.93206 0.86343 0.77291 0.0
C459 C 0.95914 0.84092 0.79073 0.0
C460 C 0.9823 0.81324 0.77375 0.0
C461 C 0.9782 0.80853 0.73939 0.0
C462 C 0.95001 0.83142 0.72221 0.0
H463 H 0.2812 0.96056 0.25359 0.0
H464 H 0.24875 0.96251 0.15034 0.0
H465 H 0.19884 0.91124 0.16033 0.0
H466 H 0.27045 0.85561 0.26488 0.0
H467 H 0.24985 0.85967 0.30561 0.0
H468 H 0.28324 0.89697 0.29063 0.0
H469 H 0.23083 0.95104 0.30239 0.0
H470 H 0.19738 0.91391 0.31756 0.0
H471 H 0.18215 0.94645 0.28486 0.0
H472 H 0.15232 0.8594 0.18106 0.0
H473 H 0.11116 0.81187 0.21226 0.0
H474 H 0.17381 0.84327 0.30157 0.0
C475 C 0.26351 0.95024 0.23317 0.0
C476 C 0.26892 0.9656 0.20124 0.0
C477 C 0.24518 0.95128 0.17509 0.0
C478 C 0.21671 0.92205 0.18044 0.0
C479 C 0.21222 0.90731 0.21209 0.0
C480 C 0.23479 0.92094 0.23807 0.0
C481 C 0.22369 0.90014 0.26969 0.0
C482 C 0.25891 0.8767 0.2835 0.0
C483 C 0.20755 0.92965 0.29512 0.0
C484 C 0.1915 0.87285 0.25732 0.0
C485 C 0.18535 0.87736 0.22402 0.0
C486 C 0.15684 0.85552 0.20719 0.0
C487 C 0.1337 0.82856 0.22502 0.0
C488 C 0.13929 0.82388 0.25924 0.0
C489 C 0.16881 0.84616 0.27539 0.0
H490 H 0.16315 0.27435 0.74967 0.0
H491 H 0.15196 0.23812 0.64775 0.0
H492 H 0.20411 0.18839 0.65574 0.0
H493 H 0.26824 0.26526 0.75395 0.0
H494 H 0.26859 0.24648 0.79541 0.0
H495 H 0.22929 0.27857 0.78211 0.0
H496 H 0.17744 0.22596 0.79905 0.0
H497 H 0.2166 0.19389 0.81269 0.0
H498 H 0.18135 0.17657 0.78282 0.0
H499 H 0.2584 0.14247 0.67467 0.0
H500 H 0.30895 0.10301 0.70433 0.0
H501 H 0.2855 0.17098 0.79269 0.0
C502 C 0.17145 0.25571 0.72917 0.0
C503 C 0.1534 0.26006 0.69817 0.0
C504 C 0.16531 0.2353 0.67182 0.0
C505 C 0.195 0.20696 0.67603 0.0
C506 C 0.21266 0.20373 0.70673 0.0
C507 C 0.20126 0.22732 0.73288 0.0
C508 C 0.22524 0.21809 0.76324 0.0
C509 C 0.24926 0.25425 0.77431 0.0
C510 C 0.19857 0.2027 0.79109 0.0
C511 C 0.25181 0.18582 0.75 0.0
C512 C 0.24418 0.17781 0.7174 0.0
C513 C 0.26475 0.14851 0.70024 0.0
C514 C 0.29347 0.12639 0.71715 0.0
C515 C 0.30117 0.13392 0.75072 0.0
C516 C 0.28036 0.16442 0.767 0.0
H517 H 0.95212 0.24548 0.30586 0.0
H518 H 0.96006 0.3214 0.22009 0.0
H519 H 0.9061 0.28372 0.19383 0.0
H520 H 0.93381 0.155 0.26043 0.0
H521 H 0.90073 0.13529 0.29107 0.0
H522 H 0.93975 0.16844 0.30301 0.0
H523 H 0.88804 0.21425 0.33054 0.0
H524 H 0.84877 0.1816 0.31813 0.0
H525 H 0.84736 0.23297 0.30655 0.0
H526 H 0.85053 0.2406 0.17812 0.0
H527 H 0.80242 0.18755 0.16907 0.0
H528 H 0.83125 0.13666 0.26404 0.0
C529 C 0.94264 0.254 0.28145 0.0
C530 C 0.95999 0.28645 0.26495 0.0
C531 C 0.94717 0.29655 0.233 0.0
C532 C 0.91638 0.27556 0.21808 0.0
C533 C 0.89922 0.24438 0.23536 0.0
C534 C 0.91234 0.23302 0.26602 0.0
C535 C 0.88977 0.1973 0.27859 0.0
C536 C 0.91768 0.16191 0.28355 0.0
C537 C 0.86715 0.20714 0.31034 0.0
C538 C 0.86169 0.19044 0.25017 0.0
C539 C 0.86752 0.21841 0.22579 0.0
C540 C 0.84581 0.21845 0.1969 0.0
C541 C 0.81847 0.18823 0.1921 0.0
C542 C 0.81316 0.15808 0.21589 0.0
C543 C 0.83431 0.15969 0.24574 0.0
loop_
_geom_bond_atom_site_label_1
_geom_bond_atom_site_label_2
_geom_bond_distance
_geom_bond_site_symmetry_2
_ccdc_geom_bond_type
Co0 O1 2.216 . S
Co0 O2 2.091 . S
Co0 O4 2.004 . S
Co0 O10 2.021 . S
Co0 O12 2.137 . S
Co0 O13 2.244 1_545 S
O1 Co0 2.216 . S
O1 C8 1.247 . S
O2 Co0 2.091 . S
O2 C8 1.261 . S
C3 O12 1.247 1_565 S
C3 O13 1.272 . S
O4 Co0 2.004 . S
O4 C9 1.259 . S
Co5 O6 2.061 . S
Co5 O11 2.052 . S
Co5 O13 2.135 1_545 S
O6 Co5 2.061 . S
O6 C9 1.235 . S
C7 O10 1.238 . S
C7 O11 1.241 . S
C8 O1 1.247 . S
C8 O2 1.261 . S
C9 O4 1.259 . S
C9 O6 1.235 . S
O10 Co0 2.021 . S
O10 C7 1.238 . S
O11 Co5 2.052 . S
O11 C7 1.241 . S
O12 Co0 2.137 . S
O12 C3 1.247 1_545 S
O13 Co0 2.244 1_565 S
O13 C3 1.272 . S
O13 Co5 2.135 1_565 S
Co14 O15 2.216 . S
Co14 O16 2.091 . S
Co14 O18 2.004 . S
Co14 O24 2.021 . S
Co14 O26 2.137 . S
Co14 O27 2.244 . S
O15 Co14 2.216 . S
O15 C22 1.247 . S
O16 Co14 2.091 . S
O16 C22 1.261 . S
C17 O26 1.247 . S
C17 O27 1.272 . S
O18 Co14 2.004 . S
O18 C23 1.259 . S
Co19 O20 2.061 . S
Co19 O25 2.052 . S
Co19 O27 2.135 . S
O20 Co19 2.061 . S
O20 C23 1.235 . S
C21 O24 1.238 . S
C21 O25 1.241 . S
C22 O15 1.247 . S
C22 O16 1.261 . S
C23 O18 1.259 . S
C23 O20 1.235 . S
O24 Co14 2.021 . S
O24 C21 1.238 . S
O25 Co19 2.052 . S
O25 C21 1.241 . S
O26 Co14 2.137 . S
O26 C17 1.247 . S
O27 Co14 2.244 . S
O27 C17 1.272 . S
O27 Co19 2.135 . S
Co28 O29 2.216 . S
Co28 O30 2.091 . S
Co28 O32 2.004 . S
Co28 O38 2.021 . S
Co28 O40 2.137 . S
Co28 O41 2.244 . S
O29 Co28 2.216 . S
O29 C36 1.247 . S
O30 Co28 2.091 . S
O30 C36 1.261 . S
C31 O40 1.247 . S
C31 O41 1.272 . S
O32 Co28 2.004 . S
O32 C37 1.259 . S
Co33 O34 2.061 . S
Co33 O39 2.052 . S
Co33 O41 2.135 . S
O34 Co33 2.061 . S
O34 C37 1.235 . S
C35 O38 1.238 . S
C35 O39 1.241 . S
C36 O29 1.247 . S
C36 O30 1.261 . S
C37 O32 1.259 . S
C37 O34 1.235 . S
O38 Co28 2.021 . S
O38 C35 1.238 . S
O39 Co33 2.052 . S
O39 C35 1.241 . S
O40 Co28 2.137 . S
O40 C31 1.247 . S
O41 Co28 2.244 . S
O41 C31 1.272 . S
O41 Co33 2.135 . S
Co42 O43 2.216 . S
Co42 O44 2.091 . S
Co42 O46 2.004 . S
Co42 O52 2.021 . S
Co42 O54 2.137 . S
Co42 O55 2.244 1_455 S
O43 Co42 2.216 . S
O43 C50 1.247 . S
O44 Co42 2.091 . S
O44 C50 1.261 . S
C45 O54 1.247 1_655 S
C45 O55 1.272 . S
O46 Co42 2.004 . S
O46 C51 1.259 . S
Co47 O48 2.061 . S
Co47 O53 2.052 . S
Co47 O55 2.135 1_455 S
O48 Co47 2.061 . S
O48 C51 1.235 . S
C49 O52 1.238 . S
C49 O53 1.241 . S
C50 O43 1.247 . S
C50 O44 1.261 . S
C51 O46 1.259 . S
C51 O48 1.235 . S
O52 Co42 2.021 . S
O52 C49 1.238 . S
O53 Co47 2.052 . S
O53 C49 1.241 . S
O54 Co42 2.137 . S
O54 C45 1.247 1_455 S
O55 Co42 2.244 1_655 S
O55 C45 1.272 . S
O55 Co47 2.135 1_655 S
Co56 O57 2.216 . S
Co56 O58 2.091 . S
Co56 O60 2.004 . S
Co56 O66 2.021 . S
Co56 O68 2.137 . S
Co56 O69 2.244 . S
O57 Co56 2.216 . S
O57 C64 1.247 . S
O58 Co56 2.091 . S
O58 C64 1.261 . S
C59 O68 1.247 . S
C59 O69 1.272 . S
O60 Co56 2.004 . S
O60 C65 1.259 . S
Co61 O62 2.061 . S
Co61 O67 2.052 . S
Co61 O69 2.135 . S
O62 Co61 2.061 . S
O62 C65 1.235 . S
C63 O66 1.238 . S
C63 O67 1.241 . S
C64 O57 1.247 . S
C64 O58 1.261 . S
C65 O60 1.259 . S
C65 O62 1.235 . S
O66 Co56 2.021 . S
O66 C63 1.238 . S
O67 Co61 2.052 . S
O67 C63 1.241 . S
O68 Co56 2.137 . S
O68 C59 1.247 . S
O69 Co56 2.244 . S
O69 C59 1.272 . S
O69 Co61 2.135 . S
Co70 O71 2.216 . S
Co70 O72 2.091 . S
Co70 O74 2.004 . S
Co70 O80 2.021 . S
Co70 O82 2.137 . S
Co70 O83 2.244 1_455 S
O71 Co70 2.216 . S
O71 C78 1.247 . S
O72 Co70 2.091 . S
O72 C78 1.261 . S
C73 O82 1.247 1_655 S
C73 O83 1.272 . S
O74 Co70 2.004 . S
O74 C79 1.259 . S
Co75 O76 2.061 . S
Co75 O81 2.052 . S
Co75 O83 2.135 1_455 S
O76 Co75 2.061 . S
O76 C79 1.235 . S
C77 O80 1.238 . S
C77 O81 1.241 . S
C78 O71 1.247 . S
C78 O72 1.261 . S
C79 O74 1.259 . S
C79 O76 1.235 . S
O80 Co70 2.021 . S
O80 C77 1.238 . S
O81 Co75 2.052 . S
O81 C77 1.241 . S
O82 Co70 2.137 . S
O82 C73 1.247 1_455 S
O83 Co70 2.244 1_655 S
O83 C73 1.272 . S
O83 Co75 2.135 1_655 S
Co84 O85 2.216 . S
Co84 O86 2.091 . S
Co84 O88 2.004 . S
Co84 O94 2.021 . S
Co84 O96 2.137 . S
Co84 O97 2.244 1_545 S
O85 Co84 2.216 . S
O85 C92 1.247 . S
O86 Co84 2.091 . S
O86 C92 1.261 . S
C87 O96 1.247 1_565 S
C87 O97 1.272 . S
O88 Co84 2.004 . S
O88 C93 1.259 . S
Co89 O90 2.061 . S
Co89 O95 2.052 . S
Co89 O97 2.135 1_545 S
O90 Co89 2.061 . S
O90 C93 1.235 . S
C91 O94 1.238 . S
C91 O95 1.241 . S
C92 O85 1.247 . S
C92 O86 1.261 . S
C93 O88 1.259 . S
C93 O90 1.235 . S
O94 Co84 2.021 . S
O94 C91 1.238 . S
O95 Co89 2.052 . S
O95 C91 1.241 . S
O96 Co84 2.137 . S
O96 C87 1.247 1_545 S
O97 Co84 2.244 1_565 S
O97 C87 1.272 . S
O97 Co89 2.135 1_565 S
Co98 O99 2.216 . S
Co98 O100 2.091 . S
Co98 O102 2.004 . S
Co98 O108 2.021 . S
Co98 O110 2.137 . S
Co98 O111 2.244 . S
O99 Co98 2.216 . S
O99 C106 1.247 . S
O100 Co98 2.091 . S
O100 C106 1.261 . S
C101 O110 1.247 . S
C101 O111 1.272 . S
O102 Co98 2.004 . S
O102 C107 1.259 . S
Co103 O104 2.061 . S
Co103 O109 2.052 . S
Co103 O111 2.135 . S
O104 Co103 2.061 . S
O104 C107 1.235 . S
C105 O108 1.238 . S
C105 O109 1.241 . S
C106 O99 1.247 . S
C106 O100 1.261 . S
C107 O102 1.259 . S
C107 O104 1.235 . S
O108 Co98 2.021 . S
O108 C105 1.238 . S
O109 Co103 2.052 . S
O109 C105 1.241 . S
O110 Co98 2.137 . S
O110 C101 1.247 . S
O111 Co98 2.244 . S
O111 C101 1.272 . S
O111 Co103 2.135 . S
H112 C124 0.930 . S
H113 C126 0.930 . S
H114 C127 0.930 1_565 S
H115 C131 0.960 . S
H116 C131 0.965 . S
H117 C131 0.954 1_554 S
H118 C132 0.972 . S
H119 C132 0.950 1_556 S
H120 C132 0.958 1_556 S
H121 C135 0.929 1_565 S
H122 C136 0.945 . S
H123 C138 0.930 . S
C124 H112 0.930 . S
C124 C125 1.399 . S
C124 C129 1.399 . S
C125 C124 1.399 . S
C125 C126 1.376 . S
C126 H113 0.930 . S
C126 C125 1.376 . S
C126 C127 1.388 . S
C127 H114 0.930 1_545 S
C127 C126 1.388 . S
C127 C128 1.390 . S
C128 C127 1.390 . S
C128 C129 1.394 . S
C128 C134 1.465 1_554 S
C129 C124 1.399 . S
C129 C128 1.394 . S
C129 C130 1.521 . S
C130 C129 1.521 . S
C130 C131 1.502 1_554 S
C130 C132 1.561 . S
C130 C133 1.521 1_554 S
C131 H115 0.960 . S
C131 H116 0.965 . S
C131 H117 0.954 1_556 S
C131 C130 1.502 1_556 S
C132 H118 0.972 . S
C132 H119 0.950 1_554 S
C132 H120 0.958 1_554 S
C132 C130 1.561 . S
C133 C130 1.521 1_556 S
C133 C134 1.396 . S
C133 C138 1.390 . S
C134 C128 1.465 1_556 S
C134 C133 1.396 . S
C134 C135 1.399 . S
C135 H121 0.929 1_545 S
C135 C134 1.399 . S
C135 C136 1.385 . S
C136 H122 0.945 . S
C136 C135 1.385 . S
C136 C137 1.389 . S
C137 C136 1.389 . S
C137 C138 1.387 . S
C138 H123 0.930 . S
C138 C133 1.390 . S
C138 C137 1.387 . S
H139 C151 0.930 . S
H140 C153 0.930 . S
H141 C154 0.930 . S
H142 C158 0.960 1_655 S
H143 C158 0.959 1_655 S
H144 C158 0.961 1_655 S
H145 C159 0.960 . S
H146 C159 0.961 . S
H147 C159 0.959 . S
H148 C162 0.929 . S
H149 C163 0.931 . S
H150 C165 0.930 . S
C151 H139 0.930 . S
C151 C152 1.399 . S
C151 C156 1.399 . S
C152 C151 1.399 . S
C152 C153 1.376 . S
C153 H140 0.930 . S
C153 C152 1.376 . S
C153 C154 1.388 . S
C154 H141 0.930 . S
C154 C153 1.388 . S
C154 C155 1.390 . S
C155 C154 1.390 . S
C155 C156 1.394 . S
C155 C161 1.465 . S
C156 C151 1.399 . S
C156 C155 1.394 . S
C156 C157 1.516 . S
C157 C156 1.516 . S
C157 C158 1.501 . S
C157 C159 1.561 . S
C157 C160 1.526 . S
C158 H142 0.960 1_455 S
C158 H143 0.959 1_455 S
C158 H144 0.961 1_455 S
C158 C157 1.501 . S
C159 H145 0.960 . S
C159 H146 0.961 . S
C159 H147 0.959 . S
C159 C157 1.561 . S
C160 C157 1.526 . S
C160 C161 1.396 . S
C160 C165 1.390 . S
C161 C155 1.465 . S
C161 C160 1.396 . S
C161 C162 1.399 . S
C162 H148 0.929 . S
C162 C161 1.399 . S
C162 C163 1.385 . S
C163 H149 0.931 . S
C163 C162 1.385 . S
C163 C164 1.389 . S
C164 C163 1.389 . S
C164 C165 1.387 . S
C165 H150 0.930 . S
C165 C160 1.390 . S
C165 C164 1.387 . S
H166 C178 0.930 . S
H167 C180 0.930 1_565 S
H168 C181 0.930 1_565 S
H169 C185 0.960 . S
H170 C185 0.964 . S
H171 C185 0.956 1_556 S
H172 C186 0.972 . S
H173 C186 0.950 1_554 S
H174 C186 0.958 1_554 S
H175 C189 0.929 1_565 S
H176 C190 0.931 1_565 S
H177 C192 0.930 . S
C178 H166 0.930 . S
C178 C179 1.399 . S
C178 C183 1.399 . S
C179 C178 1.399 . S
C179 C180 1.376 . S
C180 H167 0.930 1_545 S
C180 C179 1.376 . S
C180 C181 1.388 . S
C181 H168 0.930 1_545 S
C181 C180 1.388 . S
C181 C182 1.390 . S
C182 C181 1.390 . S
C182 C183 1.394 . S
C182 C188 1.465 1_556 S
C183 C178 1.399 . S
C183 C182 1.394 . S
C183 C184 1.521 . S
C184 C183 1.521 . S
C184 C185 1.502 1_556 S
C184 C186 1.561 . S
C184 C187 1.521 1_556 S
C185 H169 0.960 . S
C185 H170 0.964 . S
C185 H171 0.956 1_554 S
C185 C184 1.502 1_554 S
C186 H172 0.972 . S
C186 H173 0.950 1_556 S
C186 H174 0.958 1_556 S
C186 C184 1.561 . S
C187 C184 1.521 1_554 S
C187 C188 1.396 . S
C187 C192 1.390 . S
C188 C182 1.465 1_554 S
C188 C187 1.396 . S
C188 C189 1.399 . S
C189 H175 0.929 1_545 S
C189 C188 1.399 . S
C189 C190 1.385 . S
C190 H176 0.931 1_545 S
C190 C189 1.385 . S
C190 C191 1.389 . S
C191 C190 1.389 . S
C191 C192 1.387 . S
C192 H177 0.930 . S
C192 C187 1.390 . S
C192 C191 1.387 . S
H193 C205 0.930 . S
H194 C207 0.930 . S
H195 C208 0.930 . S
H196 C212 0.959 1_655 S
H197 C212 0.959 . S
H198 C212 0.959 1_655 S
H199 C213 0.960 . S
H200 C213 0.961 . S
H201 C213 0.959 . S
H202 C216 0.929 . S
H203 C217 0.931 . S
H204 C219 0.930 . S
C205 H193 0.930 . S
C205 C206 1.399 . S
C205 C210 1.399 . S
C206 C205 1.399 . S
C206 C207 1.376 . S
C207 H194 0.930 . S
C207 C206 1.376 . S
C207 C208 1.388 . S
C208 H195 0.930 . S
C208 C207 1.388 . S
C208 C209 1.390 . S
C209 C208 1.390 . S
C209 C210 1.394 . S
C209 C215 1.465 . S
C210 C205 1.399 . S
C210 C209 1.394 . S
C210 C211 1.516 . S
C211 C210 1.516 . S
C211 C212 1.502 . S
C211 C213 1.561 . S
C211 C214 1.526 . S
C212 H196 0.959 1_455 S
C212 H197 0.959 . S
C212 H198 0.959 1_455 S
C212 C211 1.502 . S
C213 H199 0.960 . S
C213 H200 0.961 . S
C213 H201 0.959 . S
C213 C211 1.561 . S
C214 C211 1.526 . S
C214 C215 1.396 . S
C214 C219 1.390 . S
C215 C209 1.465 . S
C215 C214 1.396 . S
C215 C216 1.399 . S
C216 H202 0.929 . S
C216 C215 1.399 . S
C216 C217 1.385 . S
C217 H203 0.931 . S
C217 C216 1.385 . S
C217 C218 1.389 . S
C218 C217 1.389 . S
C218 C219 1.387 . S
C219 H204 0.930 . S
C219 C214 1.390 . S
C219 C218 1.387 . S
H220 C232 0.930 . S
H221 C234 0.930 . S
H222 C235 0.930 . S
H223 C239 0.959 . S
H224 C239 0.959 . S
H225 C239 0.961 . S
H226 C240 0.960 . S
H227 C240 0.961 . S
H228 C240 0.959 . S
H229 C243 0.929 . S
H230 C244 0.931 . S
H231 C246 0.930 . S
C232 H220 0.930 . S
C232 C233 1.399 . S
C232 C237 1.399 . S
C233 C232 1.399 . S
C233 C234 1.376 . S
C234 H221 0.930 . S
C234 C233 1.376 . S
C234 C235 1.388 . S
C235 H222 0.930 . S
C235 C234 1.388 . S
C235 C236 1.390 . S
C236 C235 1.390 . S
C236 C237 1.394 . S
C236 C242 1.465 . S
C237 C232 1.399 . S
C237 C236 1.394 . S
C237 C238 1.516 . S
C238 C237 1.516 . S
C238 C239 1.502 . S
C238 C240 1.561 . S
C238 C241 1.526 . S
C239 H223 0.959 . S
C239 H224 0.959 . S
C239 H225 0.961 . S
C239 C238 1.502 . S
C240 H226 0.960 . S
C240 H227 0.961 . S
C240 H228 0.959 . S
C240 C238 1.561 . S
C241 C238 1.526 . S
C241 C242 1.396 . S
C241 C246 1.390 . S
C242 C236 1.465 . S
C242 C241 1.396 . S
C242 C243 1.399 . S
C243 H229 0.929 . S
C243 C242 1.399 . S
C243 C244 1.385 . S
C244 H230 0.931 . S
C244 C243 1.385 . S
C244 C245 1.389 . S
C245 C244 1.389 . S
C245 C246 1.387 . S
C246 H231 0.930 . S
C246 C241 1.390 . S
C246 C245 1.387 . S
H247 C259 0.930 . S
H248 C261 0.930 . S
H249 C262 0.930 . S
H250 C266 0.959 . S
H251 C266 0.959 . S
H252 C266 0.961 . S
H253 C267 0.960 . S
H254 C267 0.961 . S
H255 C267 0.959 1_655 S
H256 C270 0.929 . S
H257 C271 0.931 . S
H258 C273 0.930 . S
C259 H247 0.930 . S
C259 C260 1.399 . S
C259 C264 1.399 . S
C260 C259 1.399 . S
C260 C261 1.376 . S
C261 H248 0.930 . S
C261 C260 1.376 . S
C261 C262 1.388 . S
C262 H249 0.930 . S
C262 C261 1.388 . S
C262 C263 1.390 . S
C263 C262 1.390 . S
C263 C264 1.394 . S
C263 C269 1.465 . S
C264 C259 1.399 . S
C264 C263 1.394 . S
C264 C265 1.516 . S
C265 C264 1.516 . S
C265 C266 1.502 . S
C265 C267 1.561 . S
C265 C268 1.526 . S
C266 H250 0.959 . S
C266 H251 0.959 . S
C266 H252 0.961 . S
C266 C265 1.502 . S
C267 H253 0.960 . S
C267 H254 0.961 . S
C267 H255 0.959 1_455 S
C267 C265 1.561 . S
C268 C265 1.526 . S
C268 C269 1.396 . S
C268 C273 1.390 . S
C269 C263 1.465 . S
C269 C268 1.396 . S
C269 C270 1.399 . S
C270 H256 0.929 . S
C270 C269 1.399 . S
C270 C271 1.385 . S
C271 H257 0.931 . S
C271 C270 1.385 . S
C271 C272 1.389 . S
C272 C271 1.389 . S
C272 C273 1.387 . S
C273 H258 0.930 . S
C273 C268 1.390 . S
C273 C272 1.387 . S
H274 C286 0.930 . S
H275 C288 0.936 . S
H276 C289 0.930 . S
H277 C293 0.959 . S
H278 C293 0.959 . S
H279 C293 0.961 . S
H280 C294 0.960 . S
H281 C294 0.961 . S
H282 C294 0.959 . S
H283 C297 0.929 . S
H284 C298 0.931 . S
H285 C300 0.930 . S
C286 H274 0.930 . S
C286 C287 1.399 . S
C286 C291 1.399 . S
C287 C286 1.399 . S
C287 C288 1.376 . S
C288 H275 0.936 . S
C288 C287 1.376 . S
C288 C289 1.388 . S
C289 H276 0.930 . S
C289 C288 1.388 . S
C289 C290 1.390 . S
C290 C289 1.390 . S
C290 C291 1.394 . S
C290 C296 1.465 . S
C291 C286 1.399 . S
C291 C290 1.394 . S
C291 C292 1.516 . S
C292 C291 1.516 . S
C292 C293 1.502 . S
C292 C294 1.561 . S
C292 C295 1.526 . S
C293 H277 0.959 . S
C293 H278 0.959 . S
C293 H279 0.961 . S
C293 C292 1.502 . S
C294 H280 0.960 . S
C294 H281 0.961 . S
C294 H282 0.959 . S
C294 C292 1.561 . S
C295 C292 1.526 . S
C295 C296 1.396 . S
C295 C300 1.390 . S
C296 C290 1.465 . S
C296 C295 1.396 . S
C296 C297 1.399 . S
C297 H283 0.929 . S
C297 C296 1.399 . S
C297 C298 1.385 . S
C298 H284 0.931 . S
C298 C297 1.385 . S
C298 C299 1.389 . S
C299 C298 1.389 . S
C299 C300 1.387 . S
C300 H285 0.930 . S
C300 C295 1.390 . S
C300 C299 1.387 . S
H301 C313 0.930 . S
H302 C315 0.930 . S
H303 C316 0.930 . S
H304 C320 0.959 . S
H305 C320 0.959 . S
H306 C320 0.961 . S
H307 C321 0.960 . S
H308 C321 0.961 . S
H309 C321 0.959 . S
H310 C324 0.929 . S
H311 C325 0.931 . S
H312 C327 0.930 . S
C313 H301 0.930 . S
C313 C314 1.399 . S
C313 C318 1.399 . S
C314 C313 1.399 . S
C314 C315 1.376 . S
C315 H302 0.930 . S
C315 C314 1.376 . S
C315 C316 1.388 . S
C316 H303 0.930 . S
C316 C315 1.388 . S
C316 C317 1.390 . S
C317 C316 1.390 . S
C317 C318 1.394 . S
C317 C323 1.465 . S
C318 C313 1.399 . S
C318 C317 1.394 . S
C318 C319 1.516 . S
C319 C318 1.516 . S
C319 C320 1.502 . S
C319 C321 1.561 . S
C319 C322 1.526 . S
C320 H304 0.959 . S
C320 H305 0.959 . S
C320 H306 0.961 . S
C320 C319 1.502 . S
C321 H307 0.960 . S
C321 H308 0.961 . S
C321 H309 0.959 . S
C321 C319 1.561 . S
C322 C319 1.526 . S
C322 C323 1.396 . S
C322 C327 1.390 . S
C323 C317 1.465 . S
C323 C322 1.396 . S
C323 C324 1.399 . S
C324 H310 0.929 . S
C324 C323 1.399 . S
C324 C325 1.385 . S
C325 H311 0.931 . S
C325 C324 1.385 . S
C325 C326 1.389 . S
C326 C325 1.389 . S
C326 C327 1.387 . S
C327 H312 0.930 . S
C327 C322 1.390 . S
C327 C326 1.387 . S
H328 C340 0.930 . S
H329 C342 0.930 . S
H330 C343 0.930 . S
H331 C347 0.959 . S
H332 C347 0.959 . S
H333 C347 0.961 . S
H334 C348 0.960 . S
H335 C348 0.961 . S
H336 C348 0.959 . S
H337 C351 0.929 . S
H338 C352 0.931 . S
H339 C354 0.930 . S
C340 H328 0.930 . S
C340 C341 1.399 . S
C340 C345 1.399 . S
C341 C340 1.399 . S
C341 C342 1.376 . S
C342 H329 0.930 . S
C342 C341 1.376 . S
C342 C343 1.388 . S
C343 H330 0.930 . S
C343 C342 1.388 . S
C343 C344 1.390 . S
C344 C343 1.390 . S
C344 C345 1.394 . S
C344 C350 1.465 . S
C345 C340 1.399 . S
C345 C344 1.394 . S
C345 C346 1.516 . S
C346 C345 1.516 . S
C346 C347 1.502 . S
C346 C348 1.561 . S
C346 C349 1.526 . S
C347 H331 0.959 . S
C347 H332 0.959 . S
C347 H333 0.961 . S
C347 C346 1.502 . S
C348 H334 0.960 . S
C348 H335 0.961 . S
C348 H336 0.959 . S
C348 C346 1.561 . S
C349 C346 1.526 . S
C349 C350 1.396 . S
C349 C354 1.390 . S
C350 C344 1.465 . S
C350 C349 1.396 . S
C350 C351 1.399 . S
C351 H337 0.929 . S
C351 C350 1.399 . S
C351 C352 1.385 . S
C352 H338 0.931 . S
C352 C351 1.385 . S
C352 C353 1.389 . S
C353 C352 1.389 . S
C353 C354 1.387 . S
C354 H339 0.930 . S
C354 C349 1.390 . S
C354 C353 1.387 . S
H355 C367 0.930 1_455 S
H356 C369 0.930 . S
H357 C370 0.930 . S
H358 C374 0.959 . S
H359 C374 0.959 . S
H360 C374 0.961 1_455 S
H361 C375 0.960 . S
H362 C375 0.961 . S
H363 C375 0.959 . S
H364 C378 0.929 . S
H365 C379 0.931 . S
H366 C381 0.930 . S
C367 H355 0.930 1_655 S
C367 C368 1.399 . S
C367 C372 1.399 . S
C368 C367 1.399 . S
C368 C369 1.376 . S
C369 H356 0.930 . S
C369 C368 1.376 . S
C369 C370 1.388 . S
C370 H357 0.930 . S
C370 C369 1.388 . S
C370 C371 1.390 . S
C371 C370 1.390 . S
C371 C372 1.394 . S
C371 C377 1.465 . S
C372 C367 1.399 . S
C372 C371 1.394 . S
C372 C373 1.516 . S
C373 C372 1.516 . S
C373 C374 1.502 . S
C373 C375 1.561 . S
C373 C376 1.526 . S
C374 H358 0.959 . S
C374 H359 0.959 . S
C374 H360 0.961 1_655 S
C374 C373 1.502 . S
C375 H361 0.960 . S
C375 H362 0.961 . S
C375 H363 0.959 . S
C375 C373 1.561 . S
C376 C373 1.526 . S
C376 C377 1.396 . S
C376 C381 1.390 . S
C377 C371 1.465 . S
C377 C376 1.396 . S
C377 C378 1.399 . S
C378 H364 0.929 . S
C378 C377 1.399 . S
C378 C379 1.385 . S
C379 H365 0.931 . S
C379 C378 1.385 . S
C379 C380 1.389 . S
C380 C379 1.389 . S
C380 C381 1.387 . S
C381 H366 0.930 . S
C381 C376 1.390 . S
C381 C380 1.387 . S
H382 C394 0.930 . S
H383 C396 0.930 . S
H384 C397 0.930 . S
H385 C401 0.959 . S
H386 C401 0.959 . S
H387 C401 0.961 . S
H388 C402 0.960 . S
H389 C402 0.961 . S
H390 C402 0.959 . S
H391 C405 0.929 . S
H392 C406 0.931 1_545 S
H393 C408 0.930 . S
C394 H382 0.930 . S
C394 C395 1.399 . S
C394 C399 1.399 . S
C395 C394 1.399 . S
C395 C396 1.376 . S
C396 H383 0.930 . S
C396 C395 1.376 . S
C396 C397 1.388 . S
C397 H384 0.930 . S
C397 C396 1.388 . S
C397 C398 1.390 . S
C398 C397 1.390 . S
C398 C399 1.394 . S
C398 C404 1.465 . S
C399 C394 1.399 . S
C399 C398 1.394 . S
C399 C400 1.516 . S
C400 C399 1.516 . S
C400 C401 1.502 . S
C400 C402 1.561 . S
C400 C403 1.526 . S
C401 H385 0.959 . S
C401 H386 0.959 . S
C401 H387 0.961 . S
C401 C400 1.502 . S
C402 H388 0.960 . S
C402 H389 0.961 . S
C402 H390 0.959 . S
C402 C400 1.561 . S
C403 C400 1.526 . S
C403 C404 1.396 . S
C403 C408 1.390 . S
C404 C398 1.465 . S
C404 C403 1.396 . S
C404 C405 1.399 . S
C405 H391 0.929 . S
C405 C404 1.399 . S
C405 C406 1.385 . S
C406 H392 0.931 1_565 S
C406 C405 1.385 . S
C406 C407 1.389 . S
C407 C406 1.389 . S
C407 C408 1.387 . S
C408 H393 0.930 . S
C408 C403 1.390 . S
C408 C407 1.387 . S
H409 C421 0.930 . S
H410 C423 0.930 . S
H411 C424 0.930 . S
H412 C428 0.959 . S
H413 C428 0.959 1_545 S
H414 C428 0.961 . S
H415 C429 0.960 . S
H416 C429 0.961 1_545 S
H417 C429 0.959 . S
H418 C432 0.929 . S
H419 C433 0.931 . S
H420 C435 0.930 1_545 S
C421 H409 0.930 . S
C421 C422 1.399 . S
C421 C426 1.399 . S
C422 C421 1.399 . S
C422 C423 1.376 . S
C423 H410 0.930 . S
C423 C422 1.376 . S
C423 C424 1.388 . S
C424 H411 0.930 . S
C424 C423 1.388 . S
C424 C425 1.390 . S
C425 C424 1.390 . S
C425 C426 1.394 . S
C425 C431 1.465 . S
C426 C421 1.399 . S
C426 C425 1.394 . S
C426 C427 1.516 . S
C427 C426 1.516 . S
C427 C428 1.502 . S
C427 C429 1.561 . S
C427 C430 1.526 . S
C428 H412 0.959 . S
C428 H413 0.959 1_565 S
C428 H414 0.961 . S
C428 C427 1.502 . S
C429 H415 0.960 . S
C429 H416 0.961 1_565 S
C429 H417 0.959 . S
C429 C427 1.561 . S
C430 C427 1.526 . S
C430 C431 1.396 . S
C430 C435 1.390 . S
C431 C425 1.465 . S
C431 C430 1.396 . S
C431 C432 1.399 . S
C432 H418 0.929 . S
C432 C431 1.399 . S
C432 C433 1.385 . S
C433 H419 0.931 . S
C433 C432 1.385 . S
C433 C434 1.389 . S
C434 C433 1.389 . S
C434 C435 1.387 . S
C435 H420 0.930 1_565 S
C435 C430 1.390 . S
C435 C434 1.387 . S
H436 C448 0.930 . S
H437 C450 0.930 1_545 S
H438 C451 0.930 . S
H439 C455 0.959 . S
H440 C455 0.959 . S
H441 C455 0.961 . S
H442 C456 0.960 . S
H443 C456 0.961 . S
H444 C456 0.959 . S
H445 C459 0.929 . S
H446 C460 0.931 1_455 S
H447 C462 0.930 . S
C448 H436 0.930 . S
C448 C449 1.399 . S
C448 C453 1.399 . S
C449 C448 1.399 . S
C449 C450 1.376 . S
C450 H437 0.930 1_565 S
C450 C449 1.376 . S
C450 C451 1.388 . S
C451 H438 0.930 . S
C451 C450 1.388 . S
C451 C452 1.390 . S
C452 C451 1.390 . S
C452 C453 1.394 . S
C452 C458 1.465 . S
C453 C448 1.399 . S
C453 C452 1.394 . S
C453 C454 1.516 . S
C454 C453 1.516 . S
C454 C455 1.502 . S
C454 C456 1.561 . S
C454 C457 1.526 . S
C455 H439 0.959 . S
C455 H440 0.959 . S
C455 H441 0.961 . S
C455 C454 1.502 . S
C456 H442 0.960 . S
C456 H443 0.961 . S
C456 H444 0.959 . S
C456 C454 1.561 . S
C457 C454 1.526 . S
C457 C458 1.396 . S
C457 C462 1.390 . S
C458 C452 1.465 . S
C458 C457 1.396 . S
C458 C459 1.399 . S
C459 H445 0.929 . S
C459 C458 1.399 . S
C459 C460 1.385 . S
C460 H446 0.931 1_655 S
C460 C459 1.385 . S
C460 C461 1.389 . S
C461 C460 1.389 . S
C461 C462 1.387 . S
C462 H447 0.930 . S
C462 C457 1.390 . S
C462 C461 1.387 . S
H463 C475 0.930 . S
H464 C477 0.930 . S
H465 C478 0.930 . S
H466 C482 0.959 . S
H467 C482 0.959 . S
H468 C482 0.961 . S
H469 C483 0.960 . S
H470 C483 0.961 . S
H471 C483 0.959 . S
H472 C486 0.929 . S
H473 C487 0.931 . S
H474 C489 0.930 . S
C475 H463 0.930 . S
C475 C476 1.399 . S
C475 C480 1.399 . S
C476 C475 1.399 . S
C476 C477 1.376 . S
C477 H464 0.930 . S
C477 C476 1.376 . S
C477 C478 1.388 . S
C478 H465 0.930 . S
C478 C477 1.388 . S
C478 C479 1.390 . S
C479 C478 1.390 . S
C479 C480 1.394 . S
C479 C485 1.465 . S
C480 C475 1.399 . S
C480 C479 1.394 . S
C480 C481 1.516 . S
C481 C480 1.516 . S
C481 C482 1.502 . S
C481 C483 1.561 . S
C481 C484 1.526 . S
C482 H466 0.959 . S
C482 H467 0.959 . S
C482 H468 0.961 . S
C482 C481 1.502 . S
C483 H469 0.960 . S
C483 H470 0.961 . S
C483 H471 0.959 . S
C483 C481 1.561 . S
C484 C481 1.526 . S
C484 C485 1.396 . S
C484 C489 1.390 . S
C485 C479 1.465 . S
C485 C484 1.396 . S
C485 C486 1.399 . S
C486 H472 0.929 . S
C486 C485 1.399 . S
C486 C487 1.385 . S
C487 H473 0.931 . S
C487 C486 1.385 . S
C487 C488 1.389 . S
C488 C487 1.389 . S
C488 C489 1.387 . S
C489 H474 0.930 . S
C489 C484 1.390 . S
C489 C488 1.387 . S
H490 C502 0.930 . S
H491 C504 0.930 . S
H492 C505 0.930 . S
H493 C509 0.959 . S
H494 C509 0.959 . S
H495 C509 0.961 . S
H496 C510 0.960 . S
H497 C510 0.961 . S
H498 C510 0.959 . S
H499 C513 0.929 . S
H500 C514 0.931 . S
H501 C516 0.930 . S
C502 H490 0.930 . S
C502 C503 1.399 . S
C502 C507 1.399 . S
C503 C502 1.399 . S
C503 C504 1.376 . S
C504 H491 0.930 . S
C504 C503 1.376 . S
C504 C505 1.388 . S
C505 H492 0.930 . S
C505 C504 1.388 . S
C505 C506 1.390 . S
C506 C505 1.390 . S
C506 C507 1.394 . S
C506 C512 1.465 . S
C507 C502 1.399 . S
C507 C506 1.394 . S
C507 C508 1.516 . S
C508 C507 1.516 . S
C508 C509 1.502 . S
C508 C510 1.561 . S
C508 C511 1.526 . S
C509 H493 0.959 . S
C509 H494 0.959 . S
C509 H495 0.961 . S
C509 C508 1.502 . S
C510 H496 0.960 . S
C510 H497 0.961 . S
C510 H498 0.959 . S
C510 C508 1.561 . S
C511 C508 1.526 . S
C511 C512 1.396 . S
C511 C516 1.390 . S
C512 C506 1.465 . S
C512 C511 1.396 . S
C512 C513 1.399 . S
C513 H499 0.929 . S
C513 C512 1.399 . S
C513 C514 1.385 . S
C514 H500 0.931 . S
C514 C513 1.385 . S
C514 C515 1.389 . S
C515 C514 1.389 . S
C515 C516 1.387 . S
C516 H501 0.930 . S
C516 C511 1.390 . S
C516 C515 1.387 . S
H517 C529 0.930 . S
H518 C531 0.930 . S
H519 C532 0.930 . S
H520 C536 0.959 . S
H521 C536 0.959 . S
H522 C536 0.961 . S
H523 C537 0.960 . S
H524 C537 0.961 . S
H525 C537 0.959 . S
H526 C540 0.929 . S
H527 C541 0.931 . S
H528 C543 0.930 . S
C529 H517 0.930 . S
C529 C530 1.399 . S
C529 C534 1.399 . S
C530 C529 1.399 . S
C530 C531 1.376 . S
C531 H518 0.930 . S
C531 C530 1.376 . S
C531 C532 1.388 . S
C532 H519 0.930 . S
C532 C531 1.388 . S
C532 C533 1.390 . S
C533 C532 1.390 . S
C533 C534 1.394 . S
C533 C539 1.465 . S
C534 C529 1.399 . S
C534 C533 1.394 . S
C534 C535 1.516 . S
C535 C534 1.516 . S
C535 C536 1.502 . S
C535 C537 1.561 . S
C535 C538 1.526 . S
C536 H520 0.959 . S
C536 H521 0.959 . S
C536 H522 0.961 . S
C536 C535 1.502 . S
C537 H523 0.960 . S
C537 H524 0.961 . S
C537 H525 0.959 . S
C537 C535 1.561 . S
C538 C535 1.526 . S
C538 C539 1.396 . S
C538 C543 1.390 . S
C539 C533 1.465 . S
C539 C538 1.396 . S
C539 C540 1.399 . S
C540 H526 0.929 . S
C540 C539 1.399 . S
C540 C541 1.385 . S
C541 H527 0.931 . S
C541 C540 1.385 . S
C541 C542 1.389 . S
C542 C541 1.389 . S
C542 C543 1.387 . S
C543 H528 0.930 . S
C543 C538 1.390 . S
C543 C542 1.387 . S
C125 C7 1.550 . S
C137 C63 1.564 . S
C152 C21 1.510 . S
C164 C77 1.523 . S
C179 C91 1.547 . S
C191 C35 1.562 . S
C206 C105 1.509 . S
C218 C49 1.521 . S
C233 C8 1.317 . S
C245 C36 1.279 . S
C260 C22 1.288 . S
C272 C50 1.309 . S
C287 C92 1.319 . S
C299 C64 1.277 . S
C314 C78 1.313 . S
C326 C106 1.282 . S
C341 C79 1.492 . S
C353 C9 1.491 . S
C368 C23 1.489 1_655 S
C380 C93 1.483 . S
C395 C107 1.479 1_655 S
C407 C37 1.470 1_565 S
C422 C51 1.482 . S
C434 C65 1.489 1_565 S
C449 C87 1.158 . S
C461 C45 1.158 . S
C476 C3 1.151 . S
C488 C101 1.189 . S
C503 C17 1.149 . S
C515 C59 1.174 . S
C530 C73 1.205 . S
C542 C31 1.177 . S
