# Generated by pormake.
# Topology wse, (4)-cn, num edge types: 1
# Building blocks:
#     Node 0, Type 0, BuildingBlock: CEKHIL_clean_sbu_0, # of connection points: 4
#     Node 1, Type 0, BuildingBlock: CEKHIL_clean_sbu_0, # of connection points: 4
#     Node 2, Type 0, BuildingBlock: CEKHIL_clean_sbu_0, # of connection points: 4
#     Node 3, Type 0, BuildingBlock: CEKHIL_clean_sbu_0, # of connection points: 4
#     Node 4, Type 0, BuildingBlock: CEKHIL_clean_sbu_0, # of connection points: 4
#     Node 5, Type 0, BuildingBlock: CEKHIL_clean_sbu_0, # of connection points: 4
#     Node 6, Type 0, BuildingBlock: CEKHIL_clean_sbu_0, # of connection points: 4
#     Node 7, Type 0, BuildingBlock: CEKHIL_clean_sbu_0, # of connection points: 4
#     Node 8, Type 0, BuildingBlock: CEKHIL_clean_sbu_0, # of connection points: 4
#     Node 9, Type 0, BuildingBlock: CEKHIL_clean_sbu_0, # of connection points: 4
#     Node 10, Type 0, BuildingBlock: CEKHIL_clean_sbu_0, # of connection points: 4
#     Node 11, Type 0, BuildingBlock: CEKHIL_clean_sbu_0, # of connection points: 4
#     Node 12, Type 0, BuildingBlock: CEKHIL_clean_sbu_0, # of connection points: 4
#     Node 13, Type 0, BuildingBlock: CEKHIL_clean_sbu_0, # of connection points: 4
#     Node 14, Type 0, BuildingBlock: CEKHIL_clean_sbu_0, # of connection points: 4
#     Node 15, Type 0, BuildingBlock: CEKHIL_clean_sbu_0, # of connection points: 4
#     Node 16, Type 0, BuildingBlock: CEKHIL_clean_sbu_0, # of connection points: 4
#     Node 17, Type 0, BuildingBlock: CEKHIL_clean_sbu_0, # of connection points: 4
#     Node 18, Type 0, BuildingBlock: CEKHIL_clean_sbu_0, # of connection points: 4
#     Node 19, Type 0, BuildingBlock: CEKHIL_clean_sbu_0, # of connection points: 4
#     Node 20, Type 0, BuildingBlock: CEKHIL_clean_sbu_0, # of connection points: 4
#     Node 21, Type 0, BuildingBlock: CEKHIL_clean_sbu_0, # of connection points: 4
#     Node 22, Type 0, BuildingBlock: CEKHIL_clean_sbu_0, # of connection points: 4
#     Node 23, Type 0, BuildingBlock: CEKHIL_clean_sbu_0, # of connection points: 4
#     Node 24, Type 0, BuildingBlock: CEKHIL_clean_sbu_0, # of connection points: 4
#     Node 25, Type 0, BuildingBlock: CEKHIL_clean_sbu_0, # of connection points: 4
#     Node 26, Type 0, BuildingBlock: CEKHIL_clean_sbu_0, # of connection points: 4
#     Node 27, Type 0, BuildingBlock: CEKHIL_clean_sbu_0, # of connection points: 4
#     Node 28, Type 0, BuildingBlock: CEKHIL_clean_sbu_0, # of connection points: 4
#     Node 29, Type 0, BuildingBlock: CEKHIL_clean_sbu_0, # of connection points: 4
#     Node 30, Type 0, BuildingBlock: CEKHIL_clean_sbu_0, # of connection points: 4
#     Node 31, Type 0, BuildingBlock: CEKHIL_clean_sbu_0, # of connection points: 4
#     Node 32, Type 0, BuildingBlock: CEKHIL_clean_sbu_0, # of connection points: 4
#     Node 33, Type 0, BuildingBlock: CEKHIL_clean_sbu_0, # of connection points: 4
#     Node 34, Type 0, BuildingBlock: CEKHIL_clean_sbu_0, # of connection points: 4
#     Node 35, Type 0, BuildingBlock: CEKHIL_clean_sbu_0, # of connection points: 4
#     Node 36, Type 0, BuildingBlock: CEKHIL_clean_sbu_0, # of connection points: 4
#     Node 37, Type 0, BuildingBlock: CEKHIL_clean_sbu_0, # of connection points: 4
#     Node 38, Type 0, BuildingBlock: CEKHIL_clean_sbu_0, # of connection points: 4
#     Node 39, Type 0, BuildingBlock: CEKHIL_clean_sbu_0, # of connection points: 4
#     Node 40, Type 0, BuildingBlock: CEKHIL_clean_sbu_0, # of connection points: 4
#     Node 41, Type 0, BuildingBlock: CEKHIL_clean_sbu_0, # of connection points: 4
#     Node 42, Type 0, BuildingBlock: CEKHIL_clean_sbu_0, # of connection points: 4
#     Node 43, Type 0, BuildingBlock: CEKHIL_clean_sbu_0, # of connection points: 4
#     Node 44, Type 0, BuildingBlock: CEKHIL_clean_sbu_0, # of connection points: 4
#     Node 45, Type 0, BuildingBlock: CEKHIL_clean_sbu_0, # of connection points: 4
#     Node 46, Type 0, BuildingBlock: CEKHIL_clean_sbu_0, # of connection points: 4
#     Node 47, Type 0, BuildingBlock: CEKHIL_clean_sbu_0, # of connection points: 4
#     Node 48, Type 0, BuildingBlock: CEKHIL_clean_sbu_0, # of connection points: 4
#     Node 49, Type 0, BuildingBlock: CEKHIL_clean_sbu_0, # of connection points: 4
#     Node 50, Type 0, BuildingBlock: CEKHIL_clean_sbu_0, # of connection points: 4
#     Node 51, Type 0, BuildingBlock: CEKHIL_clean_sbu_0, # of connection points: 4
#     Node 52, Type 0, BuildingBlock: CEKHIL_clean_sbu_0, # of connection points: 4
#     Node 53, Type 0, BuildingBlock: CEKHIL_clean_sbu_0, # of connection points: 4
#     Node 54, Type 0, BuildingBlock: CEKHIL_clean_sbu_0, # of connection points: 4
#     Node 55, Type 0, BuildingBlock: CEKHIL_clean_sbu_0, # of connection points: 4
#     Node 56, Type 0, BuildingBlock: CEKHIL_clean_sbu_0, # of connection points: 4
#     Node 57, Type 0, BuildingBlock: CEKHIL_clean_sbu_0, # of connection points: 4
#     Node 58, Type 0, BuildingBlock: CEKHIL_clean_sbu_0, # of connection points: 4
#     Node 59, Type 0, BuildingBlock: CEKHIL_clean_sbu_0, # of connection points: 4
#     Node 60, Type 0, BuildingBlock: CEKHIL_clean_sbu_0, # of connection points: 4
#     Node 61, Type 0, BuildingBlock: CEKHIL_clean_sbu_0, # of connection points: 4
#     Node 62, Type 0, BuildingBlock: CEKHIL_clean_sbu_0, # of connection points: 4
#     Node 63, Type 0, BuildingBlock: CEKHIL_clean_sbu_0, # of connection points: 4
#     Node 64, Type 0, BuildingBlock: CEKHIL_clean_sbu_0, # of connection points: 4
#     Node 65, Type 0, BuildingBlock: CEKHIL_clean_sbu_0, # of connection points: 4
#     Node 66, Type 0, BuildingBlock: CEKHIL_clean_sbu_0, # of connection points: 4
#     Node 67, Type 0, BuildingBlock: CEKHIL_clean_sbu_0, # of connection points: 4
#     Node 68, Type 0, BuildingBlock: CEKHIL_clean_sbu_0, # of connection points: 4
#     Node 69, Type 0, BuildingBlock: CEKHIL_clean_sbu_0, # of connection points: 4
#     Node 70, Type 0, BuildingBlock: CEKHIL_clean_sbu_0, # of connection points: 4
#     Node 71, Type 0, BuildingBlock: CEKHIL_clean_sbu_0, # of connection points: 4
#     Node 72, Type 0, BuildingBlock: CEKHIL_clean_sbu_0, # of connection points: 4
#     Node 73, Type 0, BuildingBlock: CEKHIL_clean_sbu_0, # of connection points: 4
#     Node 74, Type 0, BuildingBlock: CEKHIL_clean_sbu_0, # of connection points: 4
#     Node 75, Type 0, BuildingBlock: CEKHIL_clean_sbu_0, # of connection points: 4
#     Node 76, Type 0, BuildingBlock: CEKHIL_clean_sbu_0, # of connection points: 4
#     Node 77, Type 0, BuildingBlock: CEKHIL_clean_sbu_0, # of connection points: 4
#     Node 78, Type 0, BuildingBlock: CEKHIL_clean_sbu_0, # of connection points: 4
#     Node 79, Type 0, BuildingBlock: CEKHIL_clean_sbu_0, # of connection points: 4
#     Node 80, Type 0, BuildingBlock: CEKHIL_clean_sbu_0, # of connection points: 4
#     Node 81, Type 0, BuildingBlock: CEKHIL_clean_sbu_0, # of connection points: 4
#     Node 82, Type 0, BuildingBlock: CEKHIL_clean_sbu_0, # of connection points: 4
#     Node 83, Type 0, BuildingBlock: CEKHIL_clean_sbu_0, # of connection points: 4
#     Node 84, Type 0, BuildingBlock: CEKHIL_clean_sbu_0, # of connection points: 4
#     Node 85, Type 0, BuildingBlock: CEKHIL_clean_sbu_0, # of connection points: 4
#     Node 86, Type 0, BuildingBlock: CEKHIL_clean_sbu_0, # of connection points: 4
#     Node 87, Type 0, BuildingBlock: CEKHIL_clean_sbu_0, # of connection points: 4
#     Node 88, Type 0, BuildingBlock: CEKHIL_clean_sbu_0, # of connection points: 4
#     Node 89, Type 0, BuildingBlock: CEKHIL_clean_sbu_0, # of connection points: 4
#     Node 90, Type 0, BuildingBlock: CEKHIL_clean_sbu_0, # of connection points: 4
#     Node 91, Type 0, BuildingBlock: CEKHIL_clean_sbu_0, # of connection points: 4
#     Node 92, Type 0, BuildingBlock: CEKHIL_clean_sbu_0, # of connection points: 4
#     Node 93, Type 0, BuildingBlock: CEKHIL_clean_sbu_0, # of connection points: 4
#     Node 94, Type 0, BuildingBlock: CEKHIL_clean_sbu_0, # of connection points: 4
#     Node 95, Type 0, BuildingBlock: CEKHIL_clean_sbu_0, # of connection points: 4
#     Edge 96, Type (0, 0), BuildingBlock: KIFKEQ_clean_linker_1, # of connection points: 2
#     Edge 97, Type (0, 0), BuildingBlock: KIFKEQ_clean_linker_1, # of connection points: 2
#     Edge 98, Type (0, 0), BuildingBlock: KIFKEQ_clean_linker_1, # of connection points: 2
#     Edge 99, Type (0, 0), BuildingBlock: KIFKEQ_clean_linker_1, # of connection points: 2
#     Edge 100, Type (0, 0), BuildingBlock: KIFKEQ_clean_linker_1, # of connection points: 2
#     Edge 101, Type (0, 0), BuildingBlock: KIFKEQ_clean_linker_1, # of connection points: 2
#     Edge 102, Type (0, 0), BuildingBlock: KIFKEQ_clean_linker_1, # of connection points: 2
#     Edge 103, Type (0, 0), BuildingBlock: KIFKEQ_clean_linker_1, # of connection points: 2
#     Edge 104, Type (0, 0), BuildingBlock: KIFKEQ_clean_linker_1, # of connection points: 2
#     Edge 105, Type (0, 0), BuildingBlock: KIFKEQ_clean_linker_1, # of connection points: 2
#     Edge 106, Type (0, 0), BuildingBlock: KIFKEQ_clean_linker_1, # of connection points: 2
#     Edge 107, Type (0, 0), BuildingBlock: KIFKEQ_clean_linker_1, # of connection points: 2
#     Edge 108, Type (0, 0), BuildingBlock: KIFKEQ_clean_linker_1, # of connection points: 2
#     Edge 109, Type (0, 0), BuildingBlock: KIFKEQ_clean_linker_1, # of connection points: 2
#     Edge 110, Type (0, 0), BuildingBlock: KIFKEQ_clean_linker_1, # of connection points: 2
#     Edge 111, Type (0, 0), BuildingBlock: KIFKEQ_clean_linker_1, # of connection points: 2
#     Edge 112, Type (0, 0), BuildingBlock: KIFKEQ_clean_linker_1, # of connection points: 2
#     Edge 113, Type (0, 0), BuildingBlock: KIFKEQ_clean_linker_1, # of connection points: 2
#     Edge 114, Type (0, 0), BuildingBlock: KIFKEQ_clean_linker_1, # of connection points: 2
#     Edge 115, Type (0, 0), BuildingBlock: KIFKEQ_clean_linker_1, # of connection points: 2
#     Edge 116, Type (0, 0), BuildingBlock: KIFKEQ_clean_linker_1, # of connection points: 2
#     Edge 117, Type (0, 0), BuildingBlock: KIFKEQ_clean_linker_1, # of connection points: 2
#     Edge 118, Type (0, 0), BuildingBlock: KIFKEQ_clean_linker_1, # of connection points: 2
#     Edge 119, Type (0, 0), BuildingBlock: KIFKEQ_clean_linker_1, # of connection points: 2
#     Edge 120, Type (0, 0), BuildingBlock: KIFKEQ_clean_linker_1, # of connection points: 2
#     Edge 121, Type (0, 0), BuildingBlock: KIFKEQ_clean_linker_1, # of connection points: 2
#     Edge 122, Type (0, 0), BuildingBlock: KIFKEQ_clean_linker_1, # of connection points: 2
#     Edge 123, Type (0, 0), BuildingBlock: KIFKEQ_clean_linker_1, # of connection points: 2
#     Edge 124, Type (0, 0), BuildingBlock: KIFKEQ_clean_linker_1, # of connection points: 2
#     Edge 125, Type (0, 0), BuildingBlock: KIFKEQ_clean_linker_1, # of connection points: 2
#     Edge 126, Type (0, 0), BuildingBlock: KIFKEQ_clean_linker_1, # of connection points: 2
#     Edge 127, Type (0, 0), BuildingBlock: KIFKEQ_clean_linker_1, # of connection points: 2
#     Edge 128, Type (0, 0), BuildingBlock: KIFKEQ_clean_linker_1, # of connection points: 2
#     Edge 129, Type (0, 0), BuildingBlock: KIFKEQ_clean_linker_1, # of connection points: 2
#     Edge 130, Type (0, 0), BuildingBlock: KIFKEQ_clean_linker_1, # of connection points: 2
#     Edge 131, Type (0, 0), BuildingBlock: KIFKEQ_clean_linker_1, # of connection points: 2
#     Edge 132, Type (0, 0), BuildingBlock: KIFKEQ_clean_linker_1, # of connection points: 2
#     Edge 133, Type (0, 0), BuildingBlock: KIFKEQ_clean_linker_1, # of connection points: 2
#     Edge 134, Type (0, 0), BuildingBlock: KIFKEQ_clean_linker_1, # of connection points: 2
#     Edge 135, Type (0, 0), BuildingBlock: KIFKEQ_clean_linker_1, # of connection points: 2
#     Edge 136, Type (0, 0), BuildingBlock: KIFKEQ_clean_linker_1, # of connection points: 2
#     Edge 137, Type (0, 0), BuildingBlock: KIFKEQ_clean_linker_1, # of connection points: 2
#     Edge 138, Type (0, 0), BuildingBlock: KIFKEQ_clean_linker_1, # of connection points: 2
#     Edge 139, Type (0, 0), BuildingBlock: KIFKEQ_clean_linker_1, # of connection points: 2
#     Edge 140, Type (0, 0), BuildingBlock: KIFKEQ_clean_linker_1, # of connection points: 2
#     Edge 141, Type (0, 0), BuildingBlock: KIFKEQ_clean_linker_1, # of connection points: 2
#     Edge 142, Type (0, 0), BuildingBlock: KIFKEQ_clean_linker_1, # of connection points: 2
#     Edge 143, Type (0, 0), BuildingBlock: KIFKEQ_clean_linker_1, # of connection points: 2
#     Edge 144, Type (0, 0), BuildingBlock: KIFKEQ_clean_linker_1, # of connection points: 2
#     Edge 145, Type (0, 0), BuildingBlock: KIFKEQ_clean_linker_1, # of connection points: 2
#     Edge 146, Type (0, 0), BuildingBlock: KIFKEQ_clean_linker_1, # of connection points: 2
#     Edge 147, Type (0, 0), BuildingBlock: KIFKEQ_clean_linker_1, # of connection points: 2
#     Edge 148, Type (0, 0), BuildingBlock: KIFKEQ_clean_linker_1, # of connection points: 2
#     Edge 149, Type (0, 0), BuildingBlock: KIFKEQ_clean_linker_1, # of connection points: 2
#     Edge 150, Type (0, 0), BuildingBlock: KIFKEQ_clean_linker_1, # of connection points: 2
#     Edge 151, Type (0, 0), BuildingBlock: KIFKEQ_clean_linker_1, # of connection points: 2
#     Edge 152, Type (0, 0), BuildingBlock: KIFKEQ_clean_linker_1, # of connection points: 2
#     Edge 153, Type (0, 0), BuildingBlock: KIFKEQ_clean_linker_1, # of connection points: 2
#     Edge 154, Type (0, 0), BuildingBlock: KIFKEQ_clean_linker_1, # of connection points: 2
#     Edge 155, Type (0, 0), BuildingBlock: KIFKEQ_clean_linker_1, # of connection points: 2
#     Edge 156, Type (0, 0), BuildingBlock: KIFKEQ_clean_linker_1, # of connection points: 2
#     Edge 157, Type (0, 0), BuildingBlock: KIFKEQ_clean_linker_1, # of connection points: 2
#     Edge 158, Type (0, 0), BuildingBlock: KIFKEQ_clean_linker_1, # of connection points: 2
#     Edge 159, Type (0, 0), BuildingBlock: KIFKEQ_clean_linker_1, # of connection points: 2
#     Edge 160, Type (0, 0), BuildingBlock: KIFKEQ_clean_linker_1, # of connection points: 2
#     Edge 161, Type (0, 0), BuildingBlock: KIFKEQ_clean_linker_1, # of connection points: 2
#     Edge 162, Type (0, 0), BuildingBlock: KIFKEQ_clean_linker_1, # of connection points: 2
#     Edge 163, Type (0, 0), BuildingBlock: KIFKEQ_clean_linker_1, # of connection points: 2
#     Edge 164, Type (0, 0), BuildingBlock: KIFKEQ_clean_linker_1, # of connection points: 2
#     Edge 165, Type (0, 0), BuildingBlock: KIFKEQ_clean_linker_1, # of connection points: 2
#     Edge 166, Type (0, 0), BuildingBlock: KIFKEQ_clean_linker_1, # of connection points: 2
#     Edge 167, Type (0, 0), BuildingBlock: KIFKEQ_clean_linker_1, # of connection points: 2
#     Edge 168, Type (0, 0), BuildingBlock: KIFKEQ_clean_linker_1, # of connection points: 2
#     Edge 169, Type (0, 0), BuildingBlock: KIFKEQ_clean_linker_1, # of connection points: 2
#     Edge 170, Type (0, 0), BuildingBlock: KIFKEQ_clean_linker_1, # of connection points: 2
#     Edge 171, Type (0, 0), BuildingBlock: KIFKEQ_clean_linker_1, # of connection points: 2
#     Edge 172, Type (0, 0), BuildingBlock: KIFKEQ_clean_linker_1, # of connection points: 2
#     Edge 173, Type (0, 0), BuildingBlock: KIFKEQ_clean_linker_1, # of connection points: 2
#     Edge 174, Type (0, 0), BuildingBlock: KIFKEQ_clean_linker_1, # of connection points: 2
#     Edge 175, Type (0, 0), BuildingBlock: KIFKEQ_clean_linker_1, # of connection points: 2
#     Edge 176, Type (0, 0), BuildingBlock: KIFKEQ_clean_linker_1, # of connection points: 2
#     Edge 177, Type (0, 0), BuildingBlock: KIFKEQ_clean_linker_1, # of connection points: 2
#     Edge 178, Type (0, 0), BuildingBlock: KIFKEQ_clean_linker_1, # of connection points: 2
#     Edge 179, Type (0, 0), BuildingBlock: KIFKEQ_clean_linker_1, # of connection points: 2
#     Edge 180, Type (0, 0), BuildingBlock: KIFKEQ_clean_linker_1, # of connection points: 2
#     Edge 181, Type (0, 0), BuildingBlock: KIFKEQ_clean_linker_1, # of connection points: 2
#     Edge 182, Type (0, 0), BuildingBlock: KIFKEQ_clean_linker_1, # of connection points: 2
#     Edge 183, Type (0, 0), BuildingBlock: KIFKEQ_clean_linker_1, # of connection points: 2
#     Edge 184, Type (0, 0), BuildingBlock: KIFKEQ_clean_linker_1, # of connection points: 2
#     Edge 185, Type (0, 0), BuildingBlock: KIFKEQ_clean_linker_1, # of connection points: 2
#     Edge 186, Type (0, 0), BuildingBlock: KIFKEQ_clean_linker_1, # of connection points: 2
#     Edge 187, Type (0, 0), BuildingBlock: KIFKEQ_clean_linker_1, # of connection points: 2
#     Edge 188, Type (0, 0), BuildingBlock: KIFKEQ_clean_linker_1, # of connection points: 2
#     Edge 189, Type (0, 0), BuildingBlock: KIFKEQ_clean_linker_1, # of connection points: 2
#     Edge 190, Type (0, 0), BuildingBlock: KIFKEQ_clean_linker_1, # of connection points: 2
#     Edge 191, Type (0, 0), BuildingBlock: KIFKEQ_clean_linker_1, # of connection points: 2
#     Edge 192, Type (0, 0), BuildingBlock: KIFKEQ_clean_linker_1, # of connection points: 2
#     Edge 193, Type (0, 0), BuildingBlock: KIFKEQ_clean_linker_1, # of connection points: 2
#     Edge 194, Type (0, 0), BuildingBlock: KIFKEQ_clean_linker_1, # of connection points: 2
#     Edge 195, Type (0, 0), BuildingBlock: KIFKEQ_clean_linker_1, # of connection points: 2
#     Edge 196, Type (0, 0), BuildingBlock: KIFKEQ_clean_linker_1, # of connection points: 2
#     Edge 197, Type (0, 0), BuildingBlock: KIFKEQ_clean_linker_1, # of connection points: 2
#     Edge 198, Type (0, 0), BuildingBlock: KIFKEQ_clean_linker_1, # of connection points: 2
#     Edge 199, Type (0, 0), BuildingBlock: KIFKEQ_clean_linker_1, # of connection points: 2
#     Edge 200, Type (0, 0), BuildingBlock: KIFKEQ_clean_linker_1, # of connection points: 2
#     Edge 201, Type (0, 0), BuildingBlock: KIFKEQ_clean_linker_1, # of connection points: 2
#     Edge 202, Type (0, 0), BuildingBlock: KIFKEQ_clean_linker_1, # of connection points: 2
#     Edge 203, Type (0, 0), BuildingBlock: KIFKEQ_clean_linker_1, # of connection points: 2
#     Edge 204, Type (0, 0), BuildingBlock: KIFKEQ_clean_linker_1, # of connection points: 2
#     Edge 205, Type (0, 0), BuildingBlock: KIFKEQ_clean_linker_1, # of connection points: 2
#     Edge 206, Type (0, 0), BuildingBlock: KIFKEQ_clean_linker_1, # of connection points: 2
#     Edge 207, Type (0, 0), BuildingBlock: KIFKEQ_clean_linker_1, # of connection points: 2
#     Edge 208, Type (0, 0), BuildingBlock: KIFKEQ_clean_linker_1, # of connection points: 2
#     Edge 209, Type (0, 0), BuildingBlock: KIFKEQ_clean_linker_1, # of connection points: 2
#     Edge 210, Type (0, 0), BuildingBlock: KIFKEQ_clean_linker_1, # of connection points: 2
#     Edge 211, Type (0, 0), BuildingBlock: KIFKEQ_clean_linker_1, # of connection points: 2
#     Edge 212, Type (0, 0), BuildingBlock: KIFKEQ_clean_linker_1, # of connection points: 2
#     Edge 213, Type (0, 0), BuildingBlock: KIFKEQ_clean_linker_1, # of connection points: 2
#     Edge 214, Type (0, 0), BuildingBlock: KIFKEQ_clean_linker_1, # of connection points: 2
#     Edge 215, Type (0, 0), BuildingBlock: KIFKEQ_clean_linker_1, # of connection points: 2
#     Edge 216, Type (0, 0), BuildingBlock: KIFKEQ_clean_linker_1, # of connection points: 2
#     Edge 217, Type (0, 0), BuildingBlock: KIFKEQ_clean_linker_1, # of connection points: 2
#     Edge 218, Type (0, 0), BuildingBlock: KIFKEQ_clean_linker_1, # of connection points: 2
#     Edge 219, Type (0, 0), BuildingBlock: KIFKEQ_clean_linker_1, # of connection points: 2
#     Edge 220, Type (0, 0), BuildingBlock: KIFKEQ_clean_linker_1, # of connection points: 2
#     Edge 221, Type (0, 0), BuildingBlock: KIFKEQ_clean_linker_1, # of connection points: 2
#     Edge 222, Type (0, 0), BuildingBlock: KIFKEQ_clean_linker_1, # of connection points: 2
#     Edge 223, Type (0, 0), BuildingBlock: KIFKEQ_clean_linker_1, # of connection points: 2
#     Edge 224, Type (0, 0), BuildingBlock: KIFKEQ_clean_linker_1, # of connection points: 2
#     Edge 225, Type (0, 0), BuildingBlock: KIFKEQ_clean_linker_1, # of connection points: 2
#     Edge 226, Type (0, 0), BuildingBlock: KIFKEQ_clean_linker_1, # of connection points: 2
#     Edge 227, Type (0, 0), BuildingBlock: KIFKEQ_clean_linker_1, # of connection points: 2
#     Edge 228, Type (0, 0), BuildingBlock: KIFKEQ_clean_linker_1, # of connection points: 2
#     Edge 229, Type (0, 0), BuildingBlock: KIFKEQ_clean_linker_1, # of connection points: 2
#     Edge 230, Type (0, 0), BuildingBlock: KIFKEQ_clean_linker_1, # of connection points: 2
#     Edge 231, Type (0, 0), BuildingBlock: KIFKEQ_clean_linker_1, # of connection points: 2
#     Edge 232, Type (0, 0), BuildingBlock: KIFKEQ_clean_linker_1, # of connection points: 2
#     Edge 233, Type (0, 0), BuildingBlock: KIFKEQ_clean_linker_1, # of connection points: 2
#     Edge 234, Type (0, 0), BuildingBlock: KIFKEQ_clean_linker_1, # of connection points: 2
#     Edge 235, Type (0, 0), BuildingBlock: KIFKEQ_clean_linker_1, # of connection points: 2
#     Edge 236, Type (0, 0), BuildingBlock: KIFKEQ_clean_linker_1, # of connection points: 2
#     Edge 237, Type (0, 0), BuildingBlock: KIFKEQ_clean_linker_1, # of connection points: 2
#     Edge 238, Type (0, 0), BuildingBlock: KIFKEQ_clean_linker_1, # of connection points: 2
#     Edge 239, Type (0, 0), BuildingBlock: KIFKEQ_clean_linker_1, # of connection points: 2
#     Edge 240, Type (0, 0), BuildingBlock: KIFKEQ_clean_linker_1, # of connection points: 2
#     Edge 241, Type (0, 0), BuildingBlock: KIFKEQ_clean_linker_1, # of connection points: 2
#     Edge 242, Type (0, 0), BuildingBlock: KIFKEQ_clean_linker_1, # of connection points: 2
#     Edge 243, Type (0, 0), BuildingBlock: KIFKEQ_clean_linker_1, # of connection points: 2
#     Edge 244, Type (0, 0), BuildingBlock: KIFKEQ_clean_linker_1, # of connection points: 2
#     Edge 245, Type (0, 0), BuildingBlock: KIFKEQ_clean_linker_1, # of connection points: 2
#     Edge 246, Type (0, 0), BuildingBlock: KIFKEQ_clean_linker_1, # of connection points: 2
#     Edge 247, Type (0, 0), BuildingBlock: KIFKEQ_clean_linker_1, # of connection points: 2
#     Edge 248, Type (0, 0), BuildingBlock: KIFKEQ_clean_linker_1, # of connection points: 2
#     Edge 249, Type (0, 0), BuildingBlock: KIFKEQ_clean_linker_1, # of connection points: 2
#     Edge 250, Type (0, 0), BuildingBlock: KIFKEQ_clean_linker_1, # of connection points: 2
#     Edge 251, Type (0, 0), BuildingBlock: KIFKEQ_clean_linker_1, # of connection points: 2
#     Edge 252, Type (0, 0), BuildingBlock: KIFKEQ_clean_linker_1, # of connection points: 2
#     Edge 253, Type (0, 0), BuildingBlock: KIFKEQ_clean_linker_1, # of connection points: 2
#     Edge 254, Type (0, 0), BuildingBlock: KIFKEQ_clean_linker_1, # of connection points: 2
#     Edge 255, Type (0, 0), BuildingBlock: KIFKEQ_clean_linker_1, # of connection points: 2
#     Edge 256, Type (0, 0), BuildingBlock: KIFKEQ_clean_linker_1, # of connection points: 2
#     Edge 257, Type (0, 0), BuildingBlock: KIFKEQ_clean_linker_1, # of connection points: 2
#     Edge 258, Type (0, 0), BuildingBlock: KIFKEQ_clean_linker_1, # of connection points: 2
#     Edge 259, Type (0, 0), BuildingBlock: KIFKEQ_clean_linker_1, # of connection points: 2
#     Edge 260, Type (0, 0), BuildingBlock: KIFKEQ_clean_linker_1, # of connection points: 2
#     Edge 261, Type (0, 0), BuildingBlock: KIFKEQ_clean_linker_1, # of connection points: 2
#     Edge 262, Type (0, 0), BuildingBlock: KIFKEQ_clean_linker_1, # of connection points: 2
#     Edge 263, Type (0, 0), BuildingBlock: KIFKEQ_clean_linker_1, # of connection points: 2
#     Edge 264, Type (0, 0), BuildingBlock: KIFKEQ_clean_linker_1, # of connection points: 2
#     Edge 265, Type (0, 0), BuildingBlock: KIFKEQ_clean_linker_1, # of connection points: 2
#     Edge 266, Type (0, 0), BuildingBlock: KIFKEQ_clean_linker_1, # of connection points: 2
#     Edge 267, Type (0, 0), BuildingBlock: KIFKEQ_clean_linker_1, # of connection points: 2
#     Edge 268, Type (0, 0), BuildingBlock: KIFKEQ_clean_linker_1, # of connection points: 2
#     Edge 269, Type (0, 0), BuildingBlock: KIFKEQ_clean_linker_1, # of connection points: 2
#     Edge 270, Type (0, 0), BuildingBlock: KIFKEQ_clean_linker_1, # of connection points: 2
#     Edge 271, Type (0, 0), BuildingBlock: KIFKEQ_clean_linker_1, # of connection points: 2
#     Edge 272, Type (0, 0), BuildingBlock: KIFKEQ_clean_linker_1, # of connection points: 2
#     Edge 273, Type (0, 0), BuildingBlock: KIFKEQ_clean_linker_1, # of connection points: 2
#     Edge 274, Type (0, 0), BuildingBlock: KIFKEQ_clean_linker_1, # of connection points: 2
#     Edge 275, Type (0, 0), BuildingBlock: KIFKEQ_clean_linker_1, # of connection points: 2
#     Edge 276, Type (0, 0), BuildingBlock: KIFKEQ_clean_linker_1, # of connection points: 2
#     Edge 277, Type (0, 0), BuildingBlock: KIFKEQ_clean_linker_1, # of connection points: 2
#     Edge 278, Type (0, 0), BuildingBlock: KIFKEQ_clean_linker_1, # of connection points: 2
#     Edge 279, Type (0, 0), BuildingBlock: KIFKEQ_clean_linker_1, # of connection points: 2
#     Edge 280, Type (0, 0), BuildingBlock: KIFKEQ_clean_linker_1, # of connection points: 2
#     Edge 281, Type (0, 0), BuildingBlock: KIFKEQ_clean_linker_1, # of connection points: 2
#     Edge 282, Type (0, 0), BuildingBlock: KIFKEQ_clean_linker_1, # of connection points: 2
#     Edge 283, Type (0, 0), BuildingBlock: KIFKEQ_clean_linker_1, # of connection points: 2
#     Edge 284, Type (0, 0), BuildingBlock: KIFKEQ_clean_linker_1, # of connection points: 2
#     Edge 285, Type (0, 0), BuildingBlock: KIFKEQ_clean_linker_1, # of connection points: 2
#     Edge 286, Type (0, 0), BuildingBlock: KIFKEQ_clean_linker_1, # of connection points: 2
#     Edge 287, Type (0, 0), BuildingBlock: KIFKEQ_clean_linker_1, # of connection points: 2
# Relax obj value: 0.322
# Max RMSD: 0.156
# Mean RMSD: 0.151
data_MOF--net-wse--node1-CEKHIL_clean_sbu_0--edge1-KIFKEQ_clean_linker_1
_symmetry_space_group_name_H-M    P1
_symmetry_Int_Tables_number       1
_symmetry_cell_setting            triclinic
loop_
_symmetry_equiv_pos_as_xyz
'x, y, z'
_cell_length_a     99.679221
_cell_length_b     99.655636
_cell_length_c     99.666831
_cell_angle_alpha  90.014545
_cell_angle_beta   89.9943
_cell_angle_gamma 89.985782
loop_
_atom_site_label
_atom_site_type_symbol
_atom_site_fract_x
_atom_site_fract_y
_atom_site_fract_z
_atom_type_partial_charge
Co0 Co 0.09298 0.18481 0.42734 0.0
O1 O 0.11139 0.17843 0.42757 0.0
O2 O 0.0942 0.16699 0.41954 0.0
C3 C 0.09787 0.20599 0.42038 0.0
O4 O 0.07274 0.18769 0.42489 0.0
Co5 Co 0.0828 0.20857 0.44479 0.0
O6 O 0.06609 0.20722 0.43398 0.0
C7 C 0.08906 0.18233 0.45718 0.0
C8 C 0.10695 0.16738 0.42227 0.0
C9 C 0.06372 0.1967 0.4271 0.0
O10 O 0.08991 0.17669 0.44561 0.0
O11 O 0.08748 0.19496 0.45889 0.0
O12 O 0.09673 0.19635 0.41161 0.0
O13 O 0.09666 0.20243 0.4327 0.0
Co14 Co 0.82638 0.09422 0.4269 0.0
O15 O 0.83252 0.1127 0.42719 0.0
O16 O 0.84478 0.09545 0.42063 0.0
C17 C 0.806 0.09865 0.41779 0.0
O18 O 0.82398 0.07384 0.42481 0.0
Co19 Co 0.80115 0.08416 0.44213 0.0
O20 O 0.80375 0.06711 0.4321 0.0
C21 C 0.82563 0.09244 0.45689 0.0
C22 C 0.84401 0.10828 0.42291 0.0
C23 C 0.81491 0.06473 0.42636 0.0
O24 O 0.83261 0.09205 0.44602 0.0
O25 O 0.81287 0.0909 0.45708 0.0
O26 O 0.81643 0.0973 0.41003 0.0
O27 O 0.80829 0.09785 0.43043 0.0
Co28 Co 0.91819 0.82725 0.42635 0.0
O29 O 0.89974 0.83338 0.42698 0.0
O30 O 0.91649 0.84485 0.41813 0.0
C31 C 0.91359 0.8058 0.41993 0.0
O32 O 0.93844 0.82451 0.42362 0.0
Co33 Co 0.92867 0.80409 0.44453 0.0
O34 O 0.94564 0.80595 0.43423 0.0
C35 C 0.92144 0.83039 0.45608 0.0
C36 C 0.90384 0.84439 0.42133 0.0
C37 C 0.94776 0.81601 0.42662 0.0
O38 O 0.92143 0.83581 0.44438 0.0
O39 O 0.92271 0.81777 0.45809 0.0
O40 O 0.91428 0.81529 0.41097 0.0
O41 O 0.91488 0.80971 0.43214 0.0
Co42 Co 0.18494 0.91871 0.42725 0.0
O43 O 0.17869 0.90032 0.42833 0.0
O44 O 0.16739 0.91689 0.41894 0.0
C45 C 0.20635 0.91371 0.42103 0.0
O46 O 0.18786 0.93887 0.42392 0.0
Co47 Co 0.20811 0.92955 0.44516 0.0
O48 O 0.20647 0.9462 0.43433 0.0
C49 C 0.18164 0.92323 0.45687 0.0
C50 C 0.16778 0.90432 0.42242 0.0
C51 C 0.19645 0.94819 0.42664 0.0
O52 O 0.1763 0.92255 0.44515 0.0
O53 O 0.19424 0.9246 0.45891 0.0
O54 O 0.19688 0.91424 0.41203 0.0
O55 O 0.20243 0.91541 0.43319 0.0
Co56 Co 0.09334 0.82773 0.58694 0.0
O57 O 0.11174 0.83412 0.58717 0.0
O58 O 0.09415 0.84611 0.59335 0.0
C59 C 0.09752 0.80722 0.59587 0.0
O60 O 0.07301 0.82489 0.5886 0.0
Co61 Co 0.08442 0.80281 0.57039 0.0
O62 O 0.06673 0.80533 0.57931 0.0
C63 C 0.09203 0.82793 0.5568 0.0
C64 C 0.10703 0.84554 0.59136 0.0
C65 C 0.06401 0.81598 0.58588 0.0
O66 O 0.09123 0.83438 0.56795 0.0
O67 O 0.09115 0.81515 0.55592 0.0
O68 O 0.09617 0.81758 0.60372 0.0
O69 O 0.0972 0.80972 0.58324 0.0
Co70 Co 0.18557 0.0941 0.58482 0.0
O71 O 0.17935 0.1125 0.58377 0.0
O72 O 0.16805 0.09594 0.59317 0.0
C73 C 0.20703 0.099 0.59099 0.0
O74 O 0.18846 0.07393 0.5881 0.0
Co75 Co 0.20866 0.08323 0.5668 0.0
O76 O 0.20701 0.06656 0.5776 0.0
C77 C 0.18218 0.08965 0.55519 0.0
C78 C 0.16844 0.10852 0.58968 0.0
C79 C 0.19701 0.06459 0.58533 0.0
O80 O 0.17688 0.09031 0.56694 0.0
O81 O 0.19477 0.08825 0.55311 0.0
O82 O 0.19758 0.0985 0.60001 0.0
O83 O 0.20307 0.09736 0.57883 0.0
Co84 Co 0.91925 0.18474 0.58556 0.0
O85 O 0.90085 0.17849 0.58467 0.0
O86 O 0.91758 0.167 0.59351 0.0
C87 C 0.91429 0.20598 0.59231 0.0
O88 O 0.93946 0.18752 0.58857 0.0
Co89 Co 0.92998 0.20837 0.56825 0.0
O90 O 0.94642 0.20693 0.57944 0.0
C91 C 0.9239 0.18208 0.55585 0.0
C92 C 0.90495 0.16744 0.59024 0.0
C93 C 0.94858 0.19646 0.58645 0.0
O94 O 0.92279 0.1765 0.56743 0.0
O95 O 0.92556 0.19469 0.55412 0.0
O96 O 0.91511 0.19635 0.60111 0.0
O97 O 0.9158 0.20238 0.58002 0.0
Co98 Co 0.82556 0.91789 0.58488 0.0
O99 O 0.83174 0.8994 0.58451 0.0
O100 O 0.84402 0.91667 0.59094 0.0
C101 C 0.80525 0.91376 0.59433 0.0
O102 O 0.82313 0.93826 0.58707 0.0
Co103 Co 0.80021 0.92777 0.56959 0.0
O104 O 0.80338 0.94521 0.57873 0.0
C105 C 0.82469 0.91982 0.5548 0.0
C106 C 0.84327 0.90384 0.5887 0.0
C107 C 0.81433 0.94752 0.58491 0.0
O108 O 0.83164 0.92018 0.56568 0.0
O109 O 0.8119 0.92113 0.55459 0.0
O110 O 0.81585 0.91484 0.60189 0.0
O111 O 0.80738 0.91439 0.58164 0.0
Co112 Co 0.42616 0.09431 0.18474 0.0
O113 O 0.42648 0.11278 0.17862 0.0
O114 O 0.41834 0.09582 0.16694 0.0
C115 C 0.41906 0.09874 0.20599 0.0
O116 O 0.4238 0.07402 0.1874 0.0
Co117 Co 0.44379 0.08415 0.20846 0.0
O118 O 0.43319 0.06731 0.2068 0.0
C119 C 0.45604 0.09148 0.18247 0.0
C120 C 0.42118 0.10855 0.16749 0.0
C121 C 0.42622 0.06496 0.19633 0.0
O122 O 0.44451 0.09146 0.1767 0.0
O123 O 0.45768 0.09016 0.19514 0.0
O124 O 0.41036 0.09782 0.19627 0.0
O125 O 0.43139 0.09775 0.20242 0.0
Co126 Co 0.91734 0.4279 0.18541 0.0
O127 O 0.8989 0.42828 0.17915 0.0
O128 O 0.91605 0.42081 0.16731 0.0
C129 C 0.91269 0.41989 0.20629 0.0
O130 O 0.93767 0.4255 0.18805 0.0
Co131 Co 0.92747 0.44427 0.20996 0.0
O132 O 0.94468 0.43454 0.20747 0.0
C133 C 0.91924 0.45784 0.18486 0.0
C134 C 0.90328 0.42342 0.16787 0.0
C135 C 0.94693 0.42785 0.19681 0.0
O136 O 0.91992 0.44671 0.17832 0.0
O137 O 0.92045 0.45855 0.19763 0.0
O138 O 0.91385 0.41159 0.19625 0.0
O139 O 0.91375 0.43236 0.20325 0.0
Co140 Co 0.58463 0.91827 0.18492 0.0
O141 O 0.58378 0.8999 0.17857 0.0
O142 O 0.59287 0.91664 0.16731 0.0
C143 C 0.59102 0.91324 0.20626 0.0
O144 O 0.58768 0.93846 0.1879 0.0
Co145 Co 0.56679 0.92881 0.20827 0.0
O146 O 0.57746 0.94557 0.2067 0.0
C147 C 0.55495 0.92282 0.18176 0.0
C148 C 0.58956 0.90402 0.16764 0.0
C149 C 0.58498 0.9477 0.19657 0.0
O150 O 0.56664 0.92195 0.17639 0.0
O151 O 0.55296 0.92423 0.19437 0.0
O152 O 0.59998 0.91402 0.19678 0.0
O153 O 0.57881 0.91476 0.20245 0.0
Co154 Co 0.09394 0.58572 0.18561 0.0
O155 O 0.11238 0.58498 0.17949 0.0
O156 O 0.09565 0.59377 0.16793 0.0
C157 C 0.09855 0.59238 0.20696 0.0
O158 O 0.07371 0.58858 0.18836 0.0
Co159 Co 0.08345 0.5678 0.20894 0.0
O160 O 0.06649 0.57811 0.20698 0.0
C161 C 0.09069 0.55595 0.1828 0.0
C162 C 0.1083 0.59056 0.16844 0.0
C163 C 0.06439 0.58569 0.19689 0.0
O164 O 0.09064 0.56759 0.17725 0.0
O165 O 0.08949 0.55409 0.19545 0.0
O166 O 0.09788 0.60124 0.19737 0.0
O167 O 0.09725 0.58012 0.2032 0.0
Co168 Co 0.42684 0.91753 0.82657 0.0
O169 O 0.42694 0.89915 0.8329 0.0
O170 O 0.4194 0.9164 0.84457 0.0
C171 C 0.41913 0.91294 0.80563 0.0
O172 O 0.42482 0.93784 0.82365 0.0
Co173 Co 0.44427 0.92686 0.80246 0.0
O174 O 0.43478 0.94431 0.80449 0.0
C175 C 0.45682 0.91942 0.82819 0.0
C176 C 0.42196 0.90361 0.84409 0.0
C177 C 0.42774 0.94689 0.81486 0.0
O178 O 0.44541 0.92011 0.83417 0.0
O179 O 0.45823 0.92031 0.81545 0.0
O180 O 0.4107 0.91424 0.81553 0.0
O181 O 0.4316 0.91366 0.80882 0.0
Co182 Co 0.0918 0.42649 0.82731 0.0
O183 O 0.1102 0.42721 0.83352 0.0
O184 O 0.0934 0.41853 0.84504 0.0
C185 C 0.09665 0.41971 0.80606 0.0
O186 O 0.07158 0.42367 0.82449 0.0
Co187 Co 0.08133 0.44404 0.8037 0.0
O188 O 0.06478 0.43298 0.8051 0.0
C189 C 0.08815 0.45625 0.82987 0.0
C190 C 0.10605 0.42169 0.84457 0.0
C191 C 0.06253 0.4259 0.81551 0.0
O192 O 0.08849 0.44467 0.83553 0.0
O193 O 0.08675 0.45799 0.81722 0.0
O194 O 0.09582 0.4109 0.81568 0.0
O195 O 0.09525 0.43199 0.80972 0.0
Co196 Co 0.5864 0.09447 0.82793 0.0
O197 O 0.58609 0.11292 0.83409 0.0
O198 O 0.59437 0.09596 0.84567 0.0
C199 C 0.59329 0.09896 0.80661 0.0
O200 O 0.58875 0.07416 0.82517 0.0
Co201 Co 0.56837 0.08448 0.80446 0.0
O202 O 0.57828 0.06727 0.80641 0.0
C203 C 0.55656 0.09214 0.83049 0.0
C204 C 0.59148 0.10868 0.84518 0.0
C205 C 0.58571 0.06495 0.81657 0.0
O206 O 0.56814 0.09162 0.83615 0.0
O207 O 0.55479 0.09108 0.81781 0.0
O208 O 0.60208 0.09804 0.81625 0.0
O209 O 0.58099 0.09796 0.81032 0.0
Co210 Co 0.91953 0.58607 0.82751 0.0
O211 O 0.90124 0.58539 0.83414 0.0
O212 O 0.91836 0.59398 0.84528 0.0
C213 C 0.91414 0.59274 0.80637 0.0
O214 O 0.93966 0.58905 0.82427 0.0
Co215 Co 0.92974 0.56862 0.80377 0.0
O216 O 0.94647 0.57936 0.8051 0.0
C217 C 0.92467 0.55636 0.83031 0.0
C218 C 0.90568 0.59091 0.84509 0.0
C219 C 0.94876 0.58662 0.81538 0.0
O220 O 0.92322 0.56796 0.83577 0.0
O221 O 0.92624 0.55452 0.8177 0.0
O222 O 0.91519 0.6016 0.81594 0.0
O223 O 0.9157 0.58047 0.80998 0.0
Co224 Co 0.18453 0.4261 0.09307 0.0
O225 O 0.17837 0.42706 0.11153 0.0
O226 O 0.16643 0.41906 0.09468 0.0
C227 C 0.2054 0.41803 0.09744 0.0
O228 O 0.18714 0.42312 0.07283 0.0
Co229 Co 0.20883 0.44284 0.08272 0.0
O230 O 0.20605 0.43306 0.06557 0.0
C231 C 0.18326 0.45609 0.08942 0.0
C232 C 0.16707 0.42206 0.10737 0.0
C233 C 0.19572 0.42581 0.06349 0.0
O234 O 0.17721 0.44471 0.08976 0.0
O235 O 0.19597 0.45736 0.08816 0.0
O236 O 0.19522 0.40986 0.09692 0.0
O237 O 0.20251 0.43055 0.09632 0.0
Co238 Co 0.18476 0.5851 0.91925 0.0
O239 O 0.17883 0.58385 0.90076 0.0
O240 O 0.16723 0.59334 0.91706 0.0
C241 C 0.20622 0.59133 0.9145 0.0
O242 O 0.18722 0.58857 0.93946 0.0
Co243 Co 0.20796 0.56774 0.93093 0.0
O244 O 0.2065 0.57954 0.94692 0.0
C245 C 0.18143 0.55564 0.9251 0.0
C246 C 0.16784 0.58976 0.90452 0.0
C247 C 0.19603 0.58666 0.94876 0.0
O248 O 0.17613 0.56722 0.92309 0.0
O249 O 0.19394 0.55374 0.9273 0.0
O250 O 0.19672 0.60032 0.91488 0.0
O251 O 0.20235 0.57917 0.91632 0.0
Co252 Co 0.42816 0.18434 0.9177 0.0
O253 O 0.42909 0.17816 0.89927 0.0
O254 O 0.41997 0.16672 0.91589 0.0
C255 C 0.4217 0.20574 0.91292 0.0
O256 O 0.42504 0.18715 0.93791 0.0
Co257 Co 0.44601 0.20763 0.92844 0.0
O258 O 0.43524 0.20593 0.94513 0.0
C259 C 0.45786 0.18124 0.922 0.0
C260 C 0.42331 0.16718 0.90328 0.0
C261 C 0.42771 0.1958 0.94719 0.0
O262 O 0.44617 0.17583 0.92132 0.0
O263 O 0.45982 0.19385 0.92342 0.0
O264 O 0.4128 0.19619 0.91349 0.0
O265 O 0.43392 0.20191 0.91443 0.0
Co266 Co 0.82587 0.42731 0.91763 0.0
O267 O 0.83207 0.42718 0.89915 0.0
O268 O 0.84449 0.42174 0.91668 0.0
C269 C 0.80579 0.41737 0.91369 0.0
O270 O 0.82339 0.42562 0.93802 0.0
Co271 Co 0.80023 0.44239 0.92702 0.0
O272 O 0.80334 0.43351 0.9446 0.0
C273 C 0.82449 0.45747 0.91899 0.0
C274 C 0.8437 0.42351 0.90378 0.0
C275 C 0.81443 0.42766 0.94715 0.0
O276 O 0.83156 0.44667 0.91941 0.0
O277 O 0.81171 0.45754 0.92035 0.0
O278 O 0.81651 0.41003 0.91504 0.0
O279 O 0.80767 0.43011 0.91397 0.0
Co280 Co 0.58607 0.82686 0.91767 0.0
O281 O 0.58575 0.83303 0.89922 0.0
O282 O 0.59404 0.8446 0.91618 0.0
C283 C 0.59297 0.80555 0.91319 0.0
O284 O 0.58847 0.82412 0.93797 0.0
Co285 Co 0.56811 0.80339 0.92774 0.0
O286 O 0.57803 0.80538 0.94493 0.0
C287 C 0.55622 0.8294 0.92014 0.0
C288 C 0.59116 0.84411 0.90346 0.0
C289 C 0.58546 0.81554 0.94721 0.0
O290 O 0.5678 0.83507 0.92056 0.0
O291 O 0.55447 0.81673 0.92124 0.0
O292 O 0.60175 0.81519 0.9141 0.0
O293 O 0.58067 0.80925 0.9142 0.0
Co294 Co 0.82715 0.58615 0.09397 0.0
O295 O 0.83336 0.58547 0.11239 0.0
O296 O 0.84477 0.59433 0.0956 0.0
C297 C 0.80576 0.59263 0.09869 0.0
O298 O 0.82432 0.58897 0.07374 0.0
Co299 Co 0.80393 0.56806 0.08355 0.0
O300 O 0.8058 0.5783 0.06654 0.0
C301 C 0.83014 0.55642 0.09081 0.0
C302 C 0.84436 0.59111 0.10824 0.0
C303 C 0.81583 0.58597 0.06443 0.0
O304 O 0.83562 0.56809 0.09065 0.0
O305 O 0.8175 0.55448 0.08967 0.0
O306 O 0.81527 0.60157 0.09797 0.0
O307 O 0.80962 0.58041 0.09736 0.0
Co308 Co 0.42694 0.82806 0.09388 0.0
O309 O 0.42744 0.83427 0.11228 0.0
O310 O 0.41885 0.84576 0.09541 0.0
C311 C 0.42025 0.80679 0.09867 0.0
O312 O 0.42436 0.82516 0.07362 0.0
Co313 Co 0.44493 0.80462 0.08381 0.0
O314 O 0.43475 0.80635 0.06675 0.0
C315 C 0.45673 0.8308 0.09098 0.0
C316 C 0.42191 0.8453 0.1081 0.0
C317 C 0.42728 0.81648 0.06444 0.0
O318 O 0.4451 0.83638 0.09074 0.0
O319 O 0.45858 0.81814 0.0899 0.0
O320 O 0.41137 0.81634 0.0977 0.0
O321 O 0.43252 0.81052 0.09746 0.0
Co322 Co 0.58473 0.18516 0.09467 0.0
O323 O 0.58426 0.17896 0.1131 0.0
O324 O 0.5928 0.16747 0.09619 0.0
C325 C 0.59146 0.20649 0.09936 0.0
O326 O 0.5873 0.18797 0.0744 0.0
Co327 Co 0.56683 0.20867 0.08448 0.0
O328 O 0.57746 0.20713 0.06766 0.0
C329 C 0.55494 0.1825 0.09169 0.0
C330 C 0.58979 0.16793 0.10889 0.0
C331 C 0.5847 0.19684 0.06533 0.0
O332 O 0.56655 0.17687 0.09157 0.0
O333 O 0.55313 0.19516 0.09049 0.0
O334 O 0.6003 0.1969 0.09848 0.0
O335 O 0.57919 0.20274 0.09815 0.0
Co336 Co 0.94456 0.8337 0.57649 0.0
O337 O 0.93841 0.8513 0.582 0.0
O338 O 0.92623 0.83283 0.5831 0.0
C339 C 0.96534 0.83455 0.58587 0.0
O340 O 0.94728 0.81379 0.57205 0.0
Co341 Co 0.96914 0.83059 0.55743 0.0
O342 O 0.96663 0.81105 0.56076 0.0
C343 C 0.94388 0.84195 0.54743 0.0
C344 C 0.92689 0.84579 0.58462 0.0
C345 C 0.95624 0.80625 0.5665 0.0
O346 O 0.93769 0.83739 0.55779 0.0
O347 O 0.95666 0.84172 0.54621 0.0
O348 O 0.95504 0.83119 0.5932 0.0
O349 O 0.9625 0.83833 0.57389 0.0
Co350 Co 0.17783 0.94619 0.5775 0.0
O351 O 0.16049 0.93979 0.58363 0.0
O352 O 0.17906 0.92768 0.58344 0.0
C353 C 0.17729 0.96669 0.5875 0.0
O354 O 0.19755 0.94905 0.57247 0.0
Co355 Co 0.18046 0.97129 0.55912 0.0
O356 O 0.20008 0.96881 0.56191 0.0
C357 C 0.16909 0.94627 0.54846 0.0
C358 C 0.16621 0.92825 0.58566 0.0
C359 C 0.20499 0.95819 0.56712 0.0
O360 O 0.17352 0.93982 0.55873 0.0
O361 O 0.16944 0.95908 0.54751 0.0
O362 O 0.18095 0.95619 0.59439 0.0
O363 O 0.17309 0.96421 0.57558 0.0
Co364 Co 0.06735 0.17915 0.57845 0.0
O365 O 0.07348 0.1616 0.58422 0.0
O366 O 0.08602 0.17986 0.58395 0.0
C367 C 0.04722 0.17926 0.58918 0.0
O368 O 0.0648 0.19895 0.57353 0.0
Co369 Co 0.0418 0.18212 0.56071 0.0
O370 O 0.04519 0.20169 0.5627 0.0
C371 C 0.06632 0.17046 0.54937 0.0
C372 C 0.08521 0.167 0.58605 0.0
C373 C 0.05587 0.20646 0.56791 0.0
O374 O 0.07306 0.17479 0.5595 0.0
O375 O 0.05351 0.17093 0.54875 0.0
O376 O 0.05809 0.18248 0.59568 0.0
O377 O 0.04909 0.17495 0.57717 0.0
Co378 Co 0.83477 0.06664 0.57624 0.0
O379 O 0.85233 0.07261 0.58211 0.0
O380 O 0.83391 0.08488 0.58309 0.0
C381 C 0.83529 0.04573 0.58539 0.0
O382 O 0.81489 0.06412 0.57151 0.0
Co383 Co 0.83183 0.04232 0.55683 0.0
O384 O 0.81226 0.04556 0.5589 0.0
C385 C 0.84305 0.06774 0.54704 0.0
C386 C 0.84682 0.08412 0.58483 0.0
C387 C 0.80745 0.05569 0.56508 0.0
O388 O 0.83879 0.07375 0.55767 0.0
O389 O 0.84269 0.05498 0.54564 0.0
O390 O 0.83193 0.05599 0.59279 0.0
O391 O 0.83931 0.04867 0.57351 0.0
Co392 Co 0.94508 0.17891 0.43467 0.0
O393 O 0.93899 0.16137 0.42889 0.0
O394 O 0.92638 0.1796 0.42923 0.0
C395 C 0.96515 0.1791 0.42389 0.0
O396 O 0.94762 0.1987 0.43964 0.0
Co397 Co 0.97068 0.1818 0.45236 0.0
O398 O 0.96728 0.20138 0.4504 0.0
C399 C 0.9462 0.17008 0.4637 0.0
C400 C 0.92724 0.16674 0.42711 0.0
C401 C 0.95659 0.20618 0.44523 0.0
O402 O 0.93943 0.17449 0.45363 0.0
O403 O 0.95902 0.17053 0.46427 0.0
O404 O 0.95426 0.18231 0.41743 0.0
O405 O 0.96334 0.17473 0.43589 0.0
Co406 Co 0.83382 0.94581 0.43449 0.0
O407 O 0.85143 0.93965 0.4289 0.0
O408 O 0.83311 0.9272 0.42874 0.0
C409 C 0.83397 0.96605 0.42397 0.0
O410 O 0.81392 0.94835 0.43909 0.0
Co411 Co 0.8304 0.97124 0.45231 0.0
O412 O 0.8109 0.96811 0.44954 0.0
C413 C 0.84133 0.94644 0.46404 0.0
C414 C 0.84599 0.92798 0.4268 0.0
C415 C 0.80626 0.95737 0.44434 0.0
O416 O 0.83788 0.93986 0.45346 0.0
O417 O 0.8405 0.95923 0.46489 0.0
O418 O 0.83079 0.95526 0.41732 0.0
O419 O 0.83807 0.96406 0.43604 0.0
Co420 Co 0.06691 0.83411 0.43516 0.0
O421 O 0.07312 0.85172 0.42979 0.0
O422 O 0.08513 0.83317 0.42827 0.0
C423 C 0.04604 0.83521 0.42601 0.0
O424 O 0.06405 0.8142 0.43941 0.0
Co425 Co 0.04257 0.83117 0.45454 0.0
O426 O 0.04482 0.81164 0.45095 0.0
C427 C 0.06827 0.8414 0.46459 0.0
C428 C 0.08454 0.84614 0.42687 0.0
C429 C 0.05508 0.80675 0.44504 0.0
O430 O 0.07413 0.83735 0.45382 0.0
O431 O 0.05552 0.84134 0.46613 0.0
O432 O 0.05625 0.8319 0.41855 0.0
O433 O 0.04902 0.83889 0.43801 0.0
Co434 Co 0.17775 0.06663 0.4346 0.0
O435 O 0.16043 0.07315 0.42855 0.0
O436 O 0.17907 0.08515 0.42872 0.0
C437 C 0.17706 0.04616 0.42455 0.0
O438 O 0.19747 0.06363 0.43954 0.0
Co439 Co 0.18029 0.04148 0.45291 0.0
O440 O 0.19993 0.04383 0.45003 0.0
C441 C 0.16912 0.06654 0.46367 0.0
C442 C 0.1662 0.08467 0.42655 0.0
C443 C 0.20488 0.05443 0.44482 0.0
O444 O 0.17355 0.07298 0.45339 0.0
O445 O 0.1694 0.05373 0.4646 0.0
O446 O 0.18076 0.05665 0.41767 0.0
O447 O 0.17291 0.04864 0.43649 0.0
Co448 Co 0.57763 0.94535 0.83384 0.0
O449 O 0.58315 0.93913 0.85141 0.0
O450 O 0.58468 0.92718 0.83283 0.0
C451 C 0.58658 0.96632 0.83496 0.0
O452 O 0.57326 0.94822 0.81395 0.0
Co453 Co 0.55803 0.96954 0.83102 0.0
O454 O 0.56158 0.96738 0.81148 0.0
C455 C 0.54833 0.94377 0.84144 0.0
C456 C 0.58612 0.92775 0.8458 0.0
C457 C 0.56754 0.95718 0.80654 0.0
O458 O 0.55906 0.93798 0.8372 0.0
O459 O 0.54672 0.95651 0.8414 0.0
O460 O 0.59413 0.95619 0.83157 0.0
O461 O 0.57464 0.96321 0.83867 0.0
Co462 Co 0.06738 0.57751 0.83341 0.0
O463 O 0.0736 0.58311 0.85094 0.0
O464 O 0.08584 0.58374 0.8325 0.0
C465 C 0.04684 0.5874 0.83416 0.0
O466 O 0.06455 0.57291 0.81355 0.0
Co467 Co 0.04235 0.55902 0.83054 0.0
O468 O 0.04489 0.56213 0.81098 0.0
C469 C 0.06743 0.54843 0.84178 0.0
C470 C 0.08516 0.5855 0.84542 0.0
C471 C 0.05543 0.56753 0.80609 0.0
O472 O 0.07384 0.5587 0.83728 0.0
O473 O 0.05463 0.54749 0.84155 0.0
O474 O 0.05731 0.59444 0.8307 0.0
O475 O 0.04939 0.57539 0.83808 0.0
Co476 Co 0.4366 0.06677 0.83269 0.0
O477 O 0.43058 0.0727 0.85019 0.0
O478 O 0.42945 0.0849 0.83174 0.0
C479 C 0.42785 0.04569 0.83322 0.0
O480 O 0.4415 0.06418 0.81287 0.0
Co481 Co 0.45668 0.04294 0.83028 0.0
O482 O 0.45492 0.04612 0.81065 0.0
C483 C 0.46544 0.06853 0.84167 0.0
C484 C 0.42772 0.08416 0.84467 0.0
C485 C 0.4484 0.05594 0.80563 0.0
O486 O 0.455 0.07427 0.8367 0.0
O487 O 0.46707 0.0558 0.84175 0.0
O488 O 0.42027 0.0558 0.82982 0.0
O489 O 0.43964 0.04888 0.83733 0.0
Co490 Co 0.94447 0.43524 0.83235 0.0
O491 O 0.93795 0.42902 0.84961 0.0
O492 O 0.92555 0.43079 0.83133 0.0
C493 C 0.96405 0.4236 0.83197 0.0
O494 O 0.94735 0.44069 0.81273 0.0
Co495 Co 0.97082 0.45179 0.8299 0.0
O496 O 0.96759 0.45033 0.81025 0.0
C497 C 0.94684 0.46403 0.84185 0.0
C498 C 0.92619 0.42805 0.84408 0.0
C499 C 0.95663 0.44587 0.80535 0.0
O500 O 0.93964 0.45428 0.83739 0.0
O501 O 0.95967 0.46411 0.84127 0.0
O502 O 0.95292 0.41773 0.82842 0.0
O503 O 0.96273 0.43553 0.83668 0.0
Co504 Co 0.5769 0.06687 0.17877 0.0
O505 O 0.58247 0.073 0.16118 0.0
O506 O 0.58371 0.08511 0.17969 0.0
C507 C 0.58613 0.04602 0.17787 0.0
O508 O 0.57247 0.06415 0.19866 0.0
Co509 Co 0.55764 0.04246 0.18182 0.0
O510 O 0.56101 0.0449 0.20136 0.0
C511 C 0.5477 0.06792 0.17084 0.0
C512 C 0.58526 0.08446 0.16674 0.0
C513 C 0.56684 0.05524 0.20618 0.0
O514 O 0.55826 0.07395 0.17518 0.0
O515 O 0.54631 0.05515 0.17105 0.0
O516 O 0.59353 0.05626 0.18123 0.0
O517 O 0.57416 0.04894 0.17409 0.0
Co518 Co 0.94601 0.57729 0.17744 0.0
O519 O 0.93975 0.5829 0.1599 0.0
O520 O 0.92758 0.58352 0.1784 0.0
C521 C 0.96653 0.5872 0.17672 0.0
O522 O 0.94873 0.57279 0.19735 0.0
Co523 Co 0.97109 0.559 0.18084 0.0
O524 O 0.96865 0.56265 0.20031 0.0
C525 C 0.94604 0.54787 0.16977 0.0
C526 C 0.92821 0.58532 0.16549 0.0
C527 C 0.95793 0.56785 0.205 0.0
O528 O 0.93959 0.55844 0.1735 0.0
O529 O 0.95882 0.54685 0.17056 0.0
O530 O 0.95604 0.59422 0.18016 0.0
O531 O 0.96405 0.57517 0.17285 0.0
Co532 Co 0.4342 0.94605 0.17898 0.0
O533 O 0.42836 0.94006 0.16141 0.0
O534 O 0.42856 0.92741 0.1796 0.0
C535 C 0.42359 0.96623 0.1792 0.0
O536 O 0.43916 0.9485 0.19879 0.0
Co537 Co 0.4521 0.97148 0.182 0.0
O538 O 0.45008 0.96806 0.20156 0.0
C539 C 0.46326 0.94693 0.1702 0.0
C540 C 0.42643 0.92832 0.16675 0.0
C541 C 0.44481 0.9574 0.20632 0.0
O542 O 0.45311 0.94024 0.17454 0.0
O543 O 0.46396 0.95974 0.17072 0.0
O544 O 0.41703 0.95539 0.18237 0.0
O545 O 0.43558 0.96432 0.17485 0.0
Co546 Co 0.06614 0.43533 0.17783 0.0
O547 O 0.07225 0.42992 0.16018 0.0
O548 O 0.08439 0.42847 0.17864 0.0
C549 C 0.04524 0.42619 0.17689 0.0
O550 O 0.06346 0.43958 0.19778 0.0
Co551 Co 0.04177 0.45462 0.18114 0.0
O552 O 0.04416 0.45094 0.20062 0.0
C553 C 0.0672 0.46456 0.17011 0.0
C554 C 0.08372 0.42707 0.16568 0.0
C555 C 0.05451 0.44508 0.20537 0.0
O556 O 0.07325 0.45399 0.17439 0.0
O557 O 0.05444 0.46596 0.17036 0.0
O558 O 0.05546 0.41871 0.18016 0.0
O559 O 0.04822 0.43818 0.17322 0.0
Co560 Co 0.83522 0.57747 0.94598 0.0
O561 O 0.85263 0.58332 0.93951 0.0
O562 O 0.83399 0.5835 0.92752 0.0
C563 C 0.83602 0.58742 0.9665 0.0
O564 O 0.81542 0.57283 0.94892 0.0
Co565 Co 0.83223 0.55915 0.97107 0.0
O566 O 0.8127 0.5626 0.96882 0.0
C567 C 0.84255 0.54789 0.94577 0.0
C568 C 0.84687 0.5855 0.92801 0.0
C569 C 0.80788 0.5678 0.95816 0.0
O570 O 0.83911 0.55865 0.93949 0.0
O571 O 0.84191 0.54674 0.95855 0.0
O572 O 0.83246 0.5944 0.95602 0.0
O573 O 0.84001 0.57542 0.96399 0.0
Co574 Co 0.83372 0.43614 0.06649 0.0
O575 O 0.85126 0.43047 0.07263 0.0
O576 O 0.83274 0.4293 0.08472 0.0
C577 C 0.83457 0.427 0.04559 0.0
O578 O 0.81385 0.44069 0.06374 0.0
Co579 Co 0.83079 0.45551 0.04214 0.0
O580 O 0.81124 0.4522 0.04451 0.0
C581 C 0.842 0.4652 0.06758 0.0
C582 C 0.84569 0.42772 0.08409 0.0
C583 C 0.80637 0.44636 0.05481 0.0
O584 O 0.83743 0.45473 0.07361 0.0
O585 O 0.84183 0.46659 0.05482 0.0
O586 O 0.83117 0.41956 0.0558 0.0
O587 O 0.83842 0.43893 0.04859 0.0
Co588 Co 0.57722 0.83408 0.06639 0.0
O589 O 0.58288 0.85163 0.07257 0.0
O590 O 0.58391 0.83313 0.08469 0.0
C591 C 0.58654 0.83489 0.04557 0.0
O592 O 0.57265 0.81421 0.06361 0.0
Co593 Co 0.55803 0.8312 0.04189 0.0
O594 O 0.56133 0.81164 0.04425 0.0
C595 C 0.5481 0.84231 0.06729 0.0
C596 C 0.58554 0.84607 0.08405 0.0
C597 C 0.56706 0.80675 0.05461 0.0
O598 O 0.55857 0.83783 0.07338 0.0
O599 O 0.54677 0.84212 0.05452 0.0
O600 O 0.59387 0.83148 0.05585 0.0
O601 O 0.57459 0.83878 0.04845 0.0
Co602 Co 0.17903 0.57829 0.06742 0.0
O603 O 0.16138 0.58368 0.07357 0.0
O604 O 0.17966 0.58388 0.08607 0.0
C605 C 0.1788 0.58898 0.04728 0.0
O606 O 0.19894 0.5738 0.06481 0.0
Co607 Co 0.18231 0.56058 0.04187 0.0
O608 O 0.20184 0.56306 0.04517 0.0
C609 C 0.17116 0.54894 0.06649 0.0
C610 C 0.16676 0.58574 0.08527 0.0
C611 C 0.20653 0.56836 0.05584 0.0
O612 O 0.17516 0.55923 0.07319 0.0
O613 O 0.17159 0.54829 0.05367 0.0
O614 O 0.18192 0.59557 0.05812 0.0
O615 O 0.17479 0.57688 0.04916 0.0
Co616 Co 0.43445 0.1787 0.06659 0.0
O617 O 0.42895 0.16107 0.07266 0.0
O618 O 0.42745 0.17956 0.08477 0.0
C619 C 0.42546 0.17771 0.04563 0.0
O620 O 0.43878 0.19864 0.06391 0.0
Co621 Co 0.45394 0.1819 0.04237 0.0
O622 O 0.45035 0.20141 0.04474 0.0
C623 C 0.46363 0.17084 0.06789 0.0
C624 C 0.42601 0.16659 0.0841 0.0
C625 C 0.4444 0.2062 0.05503 0.0
O626 O 0.45304 0.17521 0.07385 0.0
O627 O 0.46512 0.17106 0.05514 0.0
O628 O 0.41792 0.18104 0.05578 0.0
O629 O 0.43743 0.17404 0.04869 0.0
Co630 Co 0.17684 0.43438 0.94531 0.0
O631 O 0.15908 0.42914 0.93933 0.0
O632 O 0.17734 0.42833 0.92681 0.0
C633 C 0.17618 0.42423 0.96571 0.0
O634 O 0.19682 0.43855 0.94764 0.0
Co635 Co 0.18133 0.45214 0.97062 0.0
O636 O 0.20064 0.44781 0.96786 0.0
C637 C 0.16934 0.46361 0.94612 0.0
C638 C 0.16442 0.42672 0.92768 0.0
C639 C 0.20485 0.44291 0.95681 0.0
O640 O 0.17315 0.45335 0.93925 0.0
O641 O 0.17033 0.46429 0.95891 0.0
O642 O 0.17939 0.41728 0.95511 0.0
O643 O 0.17263 0.43641 0.96344 0.0
Co644 Co 0.57818 0.17917 0.94597 0.0
O645 O 0.5843 0.16163 0.94015 0.0
O646 O 0.58433 0.17982 0.9275 0.0
C647 C 0.58812 0.17961 0.9665 0.0
O648 O 0.573 0.19896 0.94823 0.0
Co649 Co 0.55929 0.1819 0.97072 0.0
O650 O 0.55991 0.2014 0.96649 0.0
C651 C 0.54931 0.16979 0.94595 0.0
C652 C 0.58648 0.16698 0.92845 0.0
C653 C 0.56605 0.20626 0.95636 0.0
O654 O 0.55948 0.17459 0.93959 0.0
O655 O 0.54831 0.17006 0.95874 0.0
O656 O 0.59502 0.1827 0.95584 0.0
O657 O 0.57625 0.17513 0.96421 0.0
Co658 Co 0.43549 0.83339 0.94491 0.0
O659 O 0.43005 0.85107 0.93893 0.0
O660 O 0.42848 0.83264 0.92673 0.0
C661 C 0.42648 0.83432 0.96586 0.0
O662 O 0.43977 0.81343 0.94749 0.0
Co663 Co 0.45497 0.83005 0.96911 0.0
O664 O 0.45142 0.81056 0.96661 0.0
C665 C 0.46472 0.84112 0.94363 0.0
C666 C 0.42707 0.8456 0.92747 0.0
C667 C 0.44544 0.80583 0.95631 0.0
O668 O 0.4541 0.83684 0.93766 0.0
O669 O 0.46622 0.84086 0.95637 0.0
O670 O 0.41895 0.83105 0.95568 0.0
O671 O 0.43846 0.83797 0.96283 0.0
Co672 Co 0.59424 0.68405 0.92716 0.0
O673 O 0.61272 0.67806 0.92795 0.0
O674 O 0.59615 0.66642 0.919 0.0
C675 C 0.59879 0.70548 0.92065 0.0
O676 O 0.57398 0.68665 0.92424 0.0
Co677 Co 0.58348 0.70726 0.94511 0.0
O678 O 0.56666 0.70533 0.93457 0.0
C679 C 0.59048 0.68099 0.95689 0.0
C680 C 0.60877 0.66701 0.92227 0.0
C681 C 0.56462 0.69519 0.92705 0.0
O682 O 0.59088 0.67554 0.9452 0.0
O683 O 0.58904 0.6936 0.95884 0.0
O684 O 0.5982 0.69592 0.91174 0.0
O685 O 0.59741 0.70164 0.93288 0.0
Co686 Co 0.3276 0.59231 0.92637 0.0
O687 O 0.33374 0.61076 0.92727 0.0
O688 O 0.34531 0.5941 0.91839 0.0
C689 C 0.3063 0.59714 0.91967 0.0
O690 O 0.32487 0.57207 0.92332 0.0
Co691 Co 0.30402 0.58151 0.94378 0.0
O692 O 0.30541 0.56517 0.93242 0.0
C693 C 0.33021 0.58811 0.95609 0.0
C694 C 0.3448 0.60673 0.92166 0.0
C695 C 0.31586 0.56299 0.92537 0.0
O696 O 0.33585 0.58884 0.94451 0.0
O697 O 0.31759 0.58653 0.95782 0.0
O698 O 0.31592 0.59643 0.91084 0.0
O699 O 0.30999 0.59562 0.93193 0.0
Co700 Co 0.41769 0.32694 0.92663 0.0
O701 O 0.39928 0.33323 0.92615 0.0
O702 O 0.41676 0.34484 0.91901 0.0
C703 C 0.41344 0.30574 0.91927 0.0
O704 O 0.43801 0.3241 0.92503 0.0
Co705 Co 0.42693 0.30323 0.9447 0.0
O706 O 0.44453 0.30521 0.93547 0.0
C707 C 0.419 0.32912 0.9566 0.0
C708 C 0.40391 0.34439 0.92126 0.0
C709 C 0.4471 0.31546 0.92824 0.0
O710 O 0.41988 0.33488 0.9451 0.0
O711 O 0.41995 0.31642 0.95827 0.0
O712 O 0.41474 0.31549 0.91064 0.0
O713 O 0.41393 0.30928 0.93165 0.0
Co714 Co 0.68483 0.41823 0.92683 0.0
O715 O 0.67848 0.39986 0.92732 0.0
O716 O 0.66711 0.41685 0.91881 0.0
C717 C 0.70603 0.41325 0.92003 0.0
O718 O 0.68778 0.43848 0.92426 0.0
Co719 Co 0.70847 0.42831 0.94452 0.0
O720 O 0.70713 0.44508 0.93379 0.0
C721 C 0.68225 0.42158 0.95664 0.0
C722 C 0.66749 0.40415 0.92179 0.0
C723 C 0.69677 0.44748 0.9267 0.0
O724 O 0.67661 0.42142 0.94504 0.0
O725 O 0.69492 0.42281 0.95839 0.0
O726 O 0.69645 0.41434 0.91121 0.0
O727 O 0.70239 0.41453 0.93233 0.0
Co728 Co 0.59385 0.32778 0.08539 0.0
O729 O 0.6123 0.33398 0.0858 0.0
O730 O 0.59492 0.3456 0.09317 0.0
C731 C 0.59816 0.30651 0.09253 0.0
O732 O 0.5735 0.32499 0.08711 0.0
Co733 Co 0.58441 0.30424 0.06721 0.0
O734 O 0.5669 0.30617 0.07661 0.0
C735 C 0.5924 0.33016 0.05544 0.0
C736 C 0.60775 0.3451 0.09086 0.0
C737 C 0.56438 0.31637 0.08392 0.0
O738 O 0.59158 0.33587 0.06699 0.0
O739 O 0.59139 0.31748 0.05371 0.0
O740 O 0.59692 0.3162 0.10125 0.0
O741 O 0.59754 0.31015 0.08019 0.0
Co742 Co 0.68455 0.59373 0.08543 0.0
O743 O 0.67815 0.61212 0.08515 0.0
O744 O 0.66673 0.59493 0.09324 0.0
C745 C 0.70575 0.59859 0.09238 0.0
O746 O 0.68759 0.5735 0.08794 0.0
Co747 Co 0.70825 0.58386 0.06766 0.0
O748 O 0.70661 0.5668 0.07787 0.0
C749 C 0.682 0.59027 0.05554 0.0
C750 C 0.66711 0.60769 0.09049 0.0
C751 C 0.69639 0.5644 0.08519 0.0
O752 O 0.6764 0.59059 0.06716 0.0
O753 O 0.69466 0.58908 0.05375 0.0
O754 O 0.69609 0.59755 0.10114 0.0
O755 O 0.70213 0.59744 0.08007 0.0
Co756 Co 0.41862 0.68604 0.08648 0.0
O757 O 0.4002 0.67983 0.08608 0.0
O758 O 0.41738 0.66781 0.09324 0.0
C759 C 0.41437 0.70669 0.09504 0.0
O760 O 0.43892 0.68877 0.08874 0.0
Co761 Co 0.42811 0.71067 0.06978 0.0
O762 O 0.44558 0.70804 0.07907 0.0
C763 C 0.42048 0.68544 0.05643 0.0
C764 C 0.40459 0.66845 0.09071 0.0
C765 C 0.44805 0.69755 0.08598 0.0
O766 O 0.42124 0.67911 0.06765 0.0
O767 O 0.42136 0.69821 0.05543 0.0
O768 O 0.41534 0.6964 0.10304 0.0
O769 O 0.41503 0.70403 0.08245 0.0
Co770 Co 0.32704 0.41969 0.08514 0.0
O771 O 0.33334 0.40132 0.08369 0.0
O772 O 0.34462 0.41772 0.09338 0.0
C773 C 0.30569 0.41447 0.09132 0.0
O774 O 0.32417 0.43978 0.0889 0.0
Co775 Co 0.30366 0.43109 0.06788 0.0
O776 O 0.30515 0.44726 0.0794 0.0
C777 C 0.33037 0.42632 0.05575 0.0
C778 C 0.34424 0.40521 0.08967 0.0
C779 C 0.31543 0.44911 0.08677 0.0
O780 O 0.33565 0.42394 0.06729 0.0
O781 O 0.31784 0.42837 0.05388 0.0
O782 O 0.31515 0.41495 0.10031 0.0
O783 O 0.30951 0.41646 0.07917 0.0
Co784 Co 0.92638 0.59435 0.68624 0.0
O785 O 0.92677 0.61282 0.68 0.0
O786 O 0.92037 0.59551 0.66776 0.0
C787 C 0.9169 0.59858 0.70651 0.0
O788 O 0.92417 0.57399 0.68875 0.0
Co789 Co 0.9416 0.58455 0.71166 0.0
O790 O 0.93245 0.56712 0.70855 0.0
C791 C 0.95644 0.59259 0.68726 0.0
C792 C 0.92263 0.60833 0.66847 0.0
C793 C 0.92627 0.56477 0.6976 0.0
O794 O 0.9456 0.59207 0.68024 0.0
O795 O 0.95658 0.59132 0.70005 0.0
O796 O 0.90935 0.59746 0.69591 0.0
O797 O 0.92959 0.59793 0.70441 0.0
Co798 Co 0.41692 0.92776 0.68554 0.0
O799 O 0.39849 0.92793 0.67926 0.0
O800 O 0.41586 0.92152 0.66711 0.0
C801 C 0.41261 0.91848 0.70586 0.0
O802 O 0.43728 0.92575 0.68815 0.0
Co803 Co 0.4265 0.94324 0.71084 0.0
O804 O 0.44389 0.93388 0.7081 0.0
C805 C 0.41862 0.95785 0.68621 0.0
C806 C 0.40301 0.92369 0.66779 0.0
C807 C 0.44639 0.9278 0.69713 0.0
O808 O 0.41907 0.94692 0.67932 0.0
O809 O 0.4199 0.95814 0.699 0.0
O810 O 0.41395 0.91081 0.69537 0.0
O811 O 0.41317 0.93116 0.70364 0.0
Co812 Co 0.08496 0.41881 0.68464 0.0
O813 O 0.08428 0.40041 0.67839 0.0
O814 O 0.09326 0.41719 0.66707 0.0
C815 C 0.0913 0.41398 0.70603 0.0
O816 O 0.08783 0.43904 0.68758 0.0
Co817 Co 0.06678 0.4292 0.70782 0.0
O818 O 0.07721 0.44611 0.70618 0.0
C819 C 0.05524 0.42229 0.68145 0.0
C820 C 0.09005 0.40454 0.66746 0.0
C821 C 0.0849 0.44828 0.69618 0.0
O822 O 0.06695 0.42223 0.67605 0.0
O823 O 0.05321 0.42346 0.69408 0.0
O824 O 0.10029 0.41473 0.69657 0.0
O825 O 0.0791 0.41537 0.70212 0.0
Co826 Co 0.59518 0.08586 0.6851 0.0
O827 O 0.61361 0.08532 0.67889 0.0
O828 O 0.59678 0.09405 0.66746 0.0
C829 C 0.59983 0.0924 0.7065 0.0
O830 O 0.57492 0.08853 0.68793 0.0
Co831 Co 0.58491 0.06772 0.70837 0.0
O832 O 0.56786 0.0779 0.70652 0.0
C833 C 0.59212 0.05608 0.68212 0.0
C834 C 0.60945 0.09095 0.66789 0.0
C835 C 0.56565 0.08551 0.69647 0.0
O836 O 0.59197 0.06776 0.67663 0.0
O837 O 0.59099 0.05415 0.69476 0.0
O838 O 0.59905 0.10132 0.69697 0.0
O839 O 0.5986 0.08017 0.70264 0.0
Co840 Co 0.92696 0.4177 0.32726 0.0
O841 O 0.92732 0.39927 0.33345 0.0
O842 O 0.91894 0.41624 0.34496 0.0
C843 C 0.92013 0.41303 0.30595 0.0
O844 O 0.92454 0.438 0.32448 0.0
Co845 Co 0.94483 0.42781 0.30371 0.0
O846 O 0.93439 0.44474 0.30532 0.0
C847 C 0.95676 0.42034 0.3298 0.0
C848 C 0.92186 0.40353 0.3445 0.0
C849 C 0.9272 0.44709 0.31565 0.0
O850 O 0.94518 0.42066 0.33548 0.0
O851 O 0.95851 0.4215 0.31712 0.0
O852 O 0.91132 0.41398 0.31557 0.0
O853 O 0.93241 0.41419 0.30967 0.0
Co854 Co 0.59364 0.92485 0.32724 0.0
O855 O 0.61212 0.9254 0.33333 0.0
O856 O 0.59509 0.91816 0.34549 0.0
C857 C 0.59778 0.91628 0.30653 0.0
O858 O 0.57332 0.92248 0.32473 0.0
Co859 Co 0.58372 0.94133 0.30259 0.0
O860 O 0.56658 0.9314 0.30511 0.0
C861 C 0.59124 0.95488 0.3278 0.0
C862 C 0.60785 0.92081 0.34477 0.0
C863 C 0.56423 0.92477 0.3158 0.0
O864 O 0.59093 0.94366 0.33415 0.0
O865 O 0.59008 0.95587 0.31505 0.0
O866 O 0.59696 0.9083 0.31684 0.0
O867 O 0.59702 0.92887 0.3092 0.0
Co868 Co 0.0849 0.59439 0.3282 0.0
O869 O 0.08432 0.61278 0.33449 0.0
O870 O 0.09292 0.59587 0.34592 0.0
C871 C 0.0917 0.59917 0.30693 0.0
O872 O 0.08757 0.57415 0.32526 0.0
Co873 Co 0.06703 0.58431 0.30464 0.0
O874 O 0.07734 0.56731 0.30635 0.0
C875 C 0.05508 0.59099 0.3309 0.0
C876 C 0.08987 0.60856 0.34551 0.0
C877 C 0.08474 0.565 0.31652 0.0
O878 O 0.06672 0.59112 0.33647 0.0
O879 O 0.05324 0.58985 0.31825 0.0
O880 O 0.1005 0.5983 0.31656 0.0
O881 O 0.07941 0.59795 0.31062 0.0
Co882 Co 0.41855 0.08336 0.32736 0.0
O883 O 0.40012 0.08202 0.33349 0.0
O884 O 0.4165 0.09155 0.34494 0.0
C885 C 0.41365 0.08971 0.30595 0.0
O886 O 0.4387 0.08696 0.32467 0.0
Co887 Co 0.42996 0.06596 0.30405 0.0
O888 O 0.44625 0.07729 0.30576 0.0
C889 C 0.42472 0.05388 0.33067 0.0
C890 C 0.40397 0.08795 0.34445 0.0
C891 C 0.44809 0.08468 0.31603 0.0
O892 O 0.42262 0.06547 0.33594 0.0
O893 O 0.42674 0.05195 0.31813 0.0
O894 O 0.414 0.09861 0.31552 0.0
O895 O 0.41548 0.07751 0.30975 0.0
Co896 Co 0.68406 0.92705 0.59416 0.0
O897 O 0.67786 0.9275 0.61259 0.0
O898 O 0.66631 0.91911 0.59567 0.0
C899 C 0.70531 0.92018 0.59889 0.0
O900 O 0.68679 0.92452 0.57388 0.0
Co901 Co 0.70765 0.94466 0.58383 0.0
O902 O 0.70608 0.934 0.56703 0.0
C903 C 0.68164 0.95686 0.59124 0.0
C904 C 0.66679 0.92208 0.60837 0.0
C905 C 0.69566 0.92693 0.56476 0.0
O906 O 0.6759 0.94531 0.59115 0.0
O907 O 0.69431 0.95852 0.58992 0.0
O908 O 0.69569 0.91138 0.59789 0.0
O909 O 0.70167 0.93248 0.59767 0.0
Co910 Co 0.68624 0.08467 0.41783 0.0
O911 O 0.67977 0.0842 0.39947 0.0
O912 O 0.66785 0.09105 0.41683 0.0
C913 C 0.7066 0.09362 0.413 0.0
O914 O 0.68906 0.08701 0.43813 0.0
Co915 Co 0.71152 0.06922 0.42747 0.0
O916 O 0.70895 0.07879 0.44477 0.0
C917 C 0.68674 0.05465 0.41999 0.0
C918 C 0.66838 0.08863 0.40402 0.0
C919 C 0.69805 0.085 0.44724 0.0
O920 O 0.67989 0.0656 0.42041 0.0
O921 O 0.69954 0.05433 0.42111 0.0
O922 O 0.69622 0.10145 0.41439 0.0
O923 O 0.70424 0.08099 0.41391 0.0
Co924 Co 0.92648 0.68435 0.41826 0.0
O925 O 0.92713 0.67819 0.39982 0.0
O926 O 0.91855 0.6666 0.41661 0.0
C927 C 0.91964 0.70565 0.41361 0.0
O928 O 0.92375 0.68711 0.43852 0.0
Co929 Co 0.94423 0.70789 0.42859 0.0
O930 O 0.93397 0.70594 0.44559 0.0
C931 C 0.95629 0.6818 0.42144 0.0
C932 C 0.92166 0.6671 0.40394 0.0
C933 C 0.92657 0.69574 0.44778 0.0
O934 O 0.9447 0.67615 0.42147 0.0
O935 O 0.95804 0.69447 0.42263 0.0
O936 O 0.91085 0.69601 0.4144 0.0
O937 O 0.93193 0.70197 0.41486 0.0
Co938 Co 0.32742 0.92538 0.41778 0.0
O939 O 0.33383 0.92481 0.39942 0.0
O940 O 0.34533 0.91776 0.41701 0.0
C941 C 0.3063 0.918 0.41334 0.0
O942 O 0.32441 0.9239 0.4381 0.0
Co943 Co 0.30359 0.94346 0.4267 0.0
O944 O 0.30541 0.9343 0.44435 0.0
C945 C 0.32951 0.95536 0.4189 0.0
C946 C 0.34495 0.91992 0.40415 0.0
C947 C 0.31565 0.92712 0.44707 0.0
O948 O 0.33531 0.94388 0.41993 0.0
O949 O 0.3168 0.95699 0.41971 0.0
O950 O 0.31603 0.90937 0.41482 0.0
O951 O 0.30982 0.93038 0.41382 0.0
Co952 Co 0.08656 0.32708 0.41758 0.0
O953 O 0.08631 0.33314 0.39909 0.0
O954 O 0.09357 0.3452 0.41619 0.0
C955 C 0.09484 0.30624 0.41354 0.0
O956 O 0.0887 0.32457 0.43793 0.0
Co957 Co 0.06961 0.30274 0.42739 0.0
O958 O 0.07891 0.30547 0.44484 0.0
C959 C 0.05653 0.32809 0.4196 0.0
C960 C 0.09105 0.3445 0.4034 0.0
C961 C 0.08586 0.31596 0.44717 0.0
O962 O 0.06783 0.33429 0.4201 0.0
O963 O 0.05536 0.31535 0.42071 0.0
O964 O 0.10298 0.31642 0.41444 0.0
O965 O 0.08229 0.30909 0.41417 0.0
Co966 Co 0.32819 0.08634 0.59396 0.0
O967 O 0.33468 0.08691 0.6123 0.0
O968 O 0.34612 0.09392 0.59467 0.0
C969 C 0.30707 0.09377 0.59844 0.0
O970 O 0.32511 0.08782 0.57364 0.0
Co971 Co 0.3043 0.06829 0.58514 0.0
O972 O 0.30607 0.07744 0.56748 0.0
C973 C 0.33025 0.05635 0.59279 0.0
C974 C 0.3458 0.09176 0.60754 0.0
C975 C 0.31631 0.0846 0.5647 0.0
O976 O 0.33605 0.06783 0.59178 0.0
O977 O 0.31754 0.05473 0.59202 0.0
O978 O 0.31681 0.10238 0.59696 0.0
O979 O 0.31058 0.08139 0.59797 0.0
Co980 Co 0.92589 0.32679 0.59446 0.0
O981 O 0.92548 0.33323 0.61285 0.0
O982 O 0.91931 0.34509 0.59518 0.0
C983 C 0.91713 0.30618 0.59858 0.0
O984 O 0.92437 0.32396 0.57414 0.0
Co985 Co 0.94262 0.30203 0.5855 0.0
O986 O 0.93378 0.3045 0.56776 0.0
C987 C 0.95602 0.32723 0.59321 0.0
C988 C 0.92123 0.3446 0.60807 0.0
C989 C 0.92717 0.31513 0.56509 0.0
O990 O 0.94483 0.3336 0.59245 0.0
O991 O 0.95699 0.31446 0.59227 0.0
O992 O 0.90919 0.31648 0.59718 0.0
O993 O 0.92974 0.3088 0.59834 0.0
Co994 Co 0.08548 0.68583 0.5948 0.0
O995 O 0.08555 0.67927 0.61313 0.0
O996 O 0.09339 0.66805 0.59569 0.0
C997 C 0.09231 0.70705 0.5997 0.0
O998 O 0.0876 0.68897 0.57456 0.0
Co999 Co 0.06738 0.70938 0.58532 0.0
O1000 O 0.07706 0.70776 0.56794 0.0
C1001 C 0.0556 0.6832 0.59244 0.0
C1002 C 0.09079 0.66827 0.60848 0.0
C1003 C 0.08451 0.69764 0.56546 0.0
O1004 O 0.06721 0.67761 0.59197 0.0
O1005 O 0.05377 0.69588 0.59152 0.0
O1006 O 0.10116 0.6975 0.59839 0.0
O1007 O 0.08001 0.70334 0.59874 0.0
Co1008 Co 0.44461 0.33423 0.07692 0.0
O1009 O 0.43864 0.35188 0.0825 0.0
O1010 O 0.42649 0.33344 0.08411 0.0
C1011 C 0.46568 0.3351 0.08565 0.0
O1012 O 0.44721 0.3143 0.07252 0.0
Co1013 Co 0.46854 0.33114 0.05706 0.0
O1014 O 0.46618 0.31161 0.06058 0.0
C1015 C 0.44286 0.34205 0.04773 0.0
C1016 C 0.4272 0.3464 0.08551 0.0
C1017 C 0.456 0.30678 0.06668 0.0
O1018 O 0.4371 0.33771 0.05844 0.0
O1019 O 0.45558 0.3419 0.04602 0.0
O1020 O 0.4556 0.33183 0.09331 0.0
O1021 O 0.46248 0.33885 0.07375 0.0
Co1022 Co 0.6787 0.44537 0.07736 0.0
O1023 O 0.6614 0.43896 0.08355 0.0
O1024 O 0.68006 0.42697 0.08361 0.0
C1025 C 0.67797 0.46602 0.08701 0.0
O1026 O 0.6984 0.44833 0.07231 0.0
Co1027 Co 0.68107 0.47016 0.05853 0.0
O1028 O 0.70072 0.46792 0.06139 0.0
C1029 C 0.67003 0.44484 0.04831 0.0
C1030 C 0.6672 0.42749 0.08578 0.0
C1031 C 0.70574 0.45745 0.0668 0.0
O1032 O 0.67451 0.43864 0.05871 0.0
O1033 O 0.67022 0.45762 0.04712 0.0
O1034 O 0.6817 0.45567 0.09409 0.0
O1035 O 0.67381 0.4633 0.07513 0.0
Co1036 Co 0.56707 0.67904 0.07722 0.0
O1037 O 0.57337 0.66172 0.08352 0.0
O1038 O 0.58548 0.68029 0.08341 0.0
C1039 C 0.54643 0.67853 0.08691 0.0
O1040 O 0.56427 0.69874 0.07206 0.0
Co1041 Co 0.54228 0.68154 0.05843 0.0
O1042 O 0.54473 0.7012 0.06109 0.0
C1043 C 0.56741 0.66997 0.04832 0.0
C1044 C 0.58489 0.66744 0.08566 0.0
C1045 C 0.55523 0.70614 0.06648 0.0
O1046 O 0.57371 0.67462 0.05859 0.0
O1047 O 0.55462 0.67028 0.04719 0.0
O1048 O 0.55682 0.68223 0.09395 0.0
O1049 O 0.5491 0.67428 0.07505 0.0
Co1050 Co 0.33434 0.56731 0.07769 0.0
O1051 O 0.35198 0.57351 0.08299 0.0
O1052 O 0.33355 0.58578 0.0839 0.0
C1053 C 0.33518 0.54681 0.08764 0.0
O1054 O 0.31441 0.56458 0.07344 0.0
Co1055 Co 0.33096 0.5422 0.05938 0.0
O1056 O 0.31148 0.54488 0.06282 0.0
C1057 C 0.34218 0.56717 0.04846 0.0
C1058 C 0.34649 0.58507 0.08547 0.0
C1059 C 0.30678 0.55549 0.06825 0.0
O1060 O 0.33794 0.57369 0.05878 0.0
O1061 O 0.34183 0.55436 0.04759 0.0
O1062 O 0.33187 0.55732 0.09469 0.0
O1063 O 0.3389 0.54928 0.07555 0.0
Co1064 Co 0.44525 0.67774 0.93481 0.0
O1065 O 0.43913 0.66001 0.92969 0.0
O1066 O 0.42707 0.67848 0.92772 0.0
C1067 C 0.46622 0.67649 0.92588 0.0
O1068 O 0.44802 0.69774 0.93875 0.0
Co1069 Co 0.46943 0.68108 0.95434 0.0
O1070 O 0.46716 0.70054 0.95038 0.0
C1071 C 0.44368 0.6709 0.96431 0.0
C1072 C 0.42772 0.66549 0.92656 0.0
C1073 C 0.45694 0.70531 0.94432 0.0
O1074 O 0.43788 0.6748 0.95346 0.0
O1075 O 0.45641 0.671 0.96592 0.0
O1076 O 0.45609 0.67967 0.91826 0.0
O1077 O 0.46312 0.67305 0.93791 0.0
Co1078 Co 0.33212 0.44482 0.93433 0.0
O1079 O 0.34967 0.43873 0.92835 0.0
O1080 O 0.33165 0.42592 0.9298 0.0
C1081 C 0.33155 0.46444 0.92271 0.0
O1082 O 0.31234 0.44699 0.93942 0.0
Co1083 Co 0.32795 0.47111 0.95064 0.0
O1084 O 0.30848 0.4675 0.94799 0.0
C1085 C 0.34079 0.44765 0.96326 0.0
C1086 C 0.34439 0.42685 0.9272 0.0
C1087 C 0.30432 0.45614 0.94382 0.0
O1088 O 0.33698 0.44016 0.95345 0.0
O1089 O 0.33945 0.46043 0.96327 0.0
O1090 O 0.32835 0.45324 0.91676 0.0
O1091 O 0.33588 0.46323 0.93479 0.0
Co1092 Co 0.56682 0.33436 0.93546 0.0
O1093 O 0.57273 0.35187 0.92946 0.0
O1094 O 0.58485 0.33337 0.92811 0.0
C1095 C 0.54569 0.33495 0.92692 0.0
O1096 O 0.56423 0.31455 0.94027 0.0
Co1097 Co 0.54319 0.33194 0.95575 0.0
O1098 O 0.54616 0.3123 0.95366 0.0
C1099 C 0.56894 0.34305 0.96441 0.0
C1100 C 0.58413 0.3463 0.92644 0.0
C1101 C 0.55595 0.30729 0.94708 0.0
O1102 O 0.57452 0.33824 0.95381 0.0
O1103 O 0.55623 0.34316 0.9662 0.0
O1104 O 0.55571 0.33158 0.91923 0.0
O1105 O 0.54898 0.33905 0.93869 0.0
Co1106 Co 0.68024 0.56665 0.93464 0.0
O1107 O 0.66266 0.5726 0.92879 0.0
O1108 O 0.68083 0.58527 0.92889 0.0
C1109 C 0.68046 0.54638 0.92418 0.0
O1110 O 0.70006 0.56425 0.93961 0.0
Co1111 Co 0.68323 0.54138 0.95277 0.0
O1112 O 0.70279 0.54485 0.95083 0.0
C1113 C 0.67144 0.56601 0.9637 0.0
C1114 C 0.66798 0.58434 0.9268 0.0
C1115 C 0.70756 0.55544 0.94543 0.0
O1116 O 0.67583 0.57261 0.95351 0.0
O1117 O 0.67191 0.5532 0.9645 0.0
O1118 O 0.68361 0.55718 0.91753 0.0
O1119 O 0.67613 0.54839 0.93617 0.0
Co1120 Co 0.07702 0.44528 0.33325 0.0
O1121 O 0.08272 0.43926 0.35082 0.0
O1122 O 0.08413 0.42714 0.33233 0.0
C1123 C 0.08588 0.4663 0.33413 0.0
O1124 O 0.07246 0.44793 0.31336 0.0
Co1125 Co 0.05729 0.46934 0.33033 0.0
O1126 O 0.06052 0.46691 0.31077 0.0
C1127 C 0.04796 0.44374 0.34146 0.0
C1128 C 0.08567 0.42783 0.34529 0.0
C1129 C 0.06656 0.45671 0.30589 0.0
O1130 O 0.05853 0.43788 0.33692 0.0
O1131 O 0.04636 0.45648 0.34132 0.0
O1132 O 0.09345 0.45619 0.33074 0.0
O1133 O 0.07398 0.46316 0.33794 0.0
Co1134 Co 0.56694 0.07658 0.33417 0.0
O1135 O 0.57317 0.0817 0.35185 0.0
O1136 O 0.5852 0.08337 0.33333 0.0
C1137 C 0.54611 0.08584 0.33538 0.0
O1138 O 0.56407 0.07257 0.31421 0.0
Co1139 Co 0.54247 0.0574 0.33095 0.0
O1140 O 0.54479 0.06117 0.31147 0.0
C1141 C 0.56805 0.04714 0.34128 0.0
C1142 C 0.58461 0.08459 0.34632 0.0
C1143 C 0.55509 0.06707 0.30667 0.0
O1144 O 0.57402 0.05785 0.33723 0.0
O1145 O 0.55529 0.04573 0.34119 0.0
O1146 O 0.55636 0.09329 0.33215 0.0
O1147 O 0.54903 0.07378 0.3389 0.0
Co1148 Co 0.93449 0.56657 0.33275 0.0
O1149 O 0.92863 0.57243 0.35037 0.0
O1150 O 0.92841 0.58509 0.3322 0.0
C1151 C 0.92441 0.5461 0.33255 0.0
O1152 O 0.93941 0.56427 0.3129 0.0
Co1153 Co 0.9531 0.54165 0.32968 0.0
O1154 O 0.95109 0.54514 0.31013 0.0
C1155 C 0.96354 0.56645 0.34151 0.0
C1156 C 0.92643 0.58414 0.34507 0.0
C1157 C 0.94542 0.5556 0.30538 0.0
O1158 O 0.95326 0.57286 0.33707 0.0
O1159 O 0.96457 0.55366 0.34107 0.0
O1160 O 0.91754 0.55678 0.32947 0.0
O1161 O 0.93637 0.54833 0.33683 0.0
Co1162 Co 0.44585 0.93314 0.33356 0.0
O1163 O 0.43945 0.92673 0.35081 0.0
O1164 O 0.42704 0.9283 0.33251 0.0
C1165 C 0.46567 0.9219 0.33316 0.0
O1166 O 0.44858 0.93865 0.31396 0.0
Co1167 Co 0.47185 0.95019 0.331 0.0
O1168 O 0.46863 0.94863 0.31136 0.0
C1169 C 0.44768 0.96198 0.34304 0.0
C1170 C 0.42772 0.92551 0.34524 0.0
C1171 C 0.45773 0.94397 0.30652 0.0
O1172 O 0.44064 0.95208 0.33864 0.0
O1173 O 0.4605 0.96229 0.34239 0.0
O1174 O 0.45466 0.91582 0.3296 0.0
O1175 O 0.46411 0.9338 0.33788 0.0
Co1176 Co 0.0767 0.56691 0.67822 0.0
O1177 O 0.08262 0.57343 0.66084 0.0
O1178 O 0.08266 0.58539 0.6795 0.0
C1179 C 0.08673 0.54643 0.6774 0.0
O1180 O 0.07198 0.564 0.69803 0.0
Co1181 Co 0.05852 0.54174 0.68127 0.0
O1182 O 0.06176 0.54411 0.70082 0.0
C1183 C 0.04724 0.56688 0.67057 0.0
C1184 C 0.08475 0.58492 0.66663 0.0
C1185 C 0.06691 0.55481 0.7056 0.0
O1186 O 0.05787 0.5733 0.67419 0.0
O1187 O 0.04623 0.55409 0.67125 0.0
O1188 O 0.09364 0.55691 0.68104 0.0
O1189 O 0.07472 0.54889 0.67342 0.0
Co1190 Co 0.4467 0.07698 0.67751 0.0
O1191 O 0.44035 0.08333 0.66022 0.0
O1192 O 0.42834 0.08329 0.67886 0.0
C1193 C 0.46741 0.08655 0.67701 0.0
O1194 O 0.44953 0.07182 0.69722 0.0
Co1195 Co 0.47136 0.05799 0.67986 0.0
O1196 O 0.46846 0.05973 0.69952 0.0
C1197 C 0.44597 0.04773 0.66898 0.0
C1198 C 0.42887 0.08555 0.66601 0.0
C1199 C 0.45821 0.06556 0.70451 0.0
O1200 O 0.43988 0.05837 0.67311 0.0
O1201 O 0.45873 0.04642 0.66936 0.0
O1202 O 0.45705 0.09364 0.68069 0.0
O1203 O 0.46469 0.07471 0.6727 0.0
Co1204 Co 0.93478 0.44592 0.67776 0.0
O1205 O 0.92861 0.43936 0.66049 0.0
O1206 O 0.92857 0.42753 0.67924 0.0
C1207 C 0.92511 0.46657 0.67696 0.0
O1208 O 0.93978 0.449 0.69744 0.0
Co1209 Co 0.95356 0.47075 0.68007 0.0
O1210 O 0.95068 0.46861 0.69974 0.0
C1211 C 0.9638 0.44543 0.66904 0.0
C1212 C 0.92642 0.42793 0.66637 0.0
C1213 C 0.94525 0.45816 0.70477 0.0
O1214 O 0.95345 0.43921 0.6736 0.0
O1215 O 0.96495 0.45822 0.66918 0.0
O1216 O 0.91803 0.45622 0.6807 0.0
O1217 O 0.93699 0.46384 0.67279 0.0
Co1218 Co 0.56603 0.93595 0.67851 0.0
O1219 O 0.57198 0.9303 0.66087 0.0
O1220 O 0.58415 0.92882 0.67931 0.0
C1221 C 0.545 0.92712 0.67772 0.0
O1222 O 0.56352 0.94039 0.69843 0.0
Co1223 Co 0.54199 0.95564 0.68182 0.0
O1224 O 0.54451 0.9522 0.70133 0.0
C1225 C 0.56748 0.96508 0.67049 0.0
C1226 C 0.58342 0.92732 0.66636 0.0
C1227 C 0.55478 0.94616 0.70605 0.0
O1228 O 0.5734 0.95447 0.67488 0.0
O1229 O 0.55474 0.96666 0.6708 0.0
O1230 O 0.55512 0.91951 0.681 0.0
O1231 O 0.54813 0.93904 0.67396 0.0
Co1232 Co 0.33292 0.07572 0.44476 0.0
O1233 O 0.35052 0.08129 0.43871 0.0
O1234 O 0.33205 0.08277 0.42659 0.0
C1235 C 0.33385 0.08461 0.46576 0.0
O1236 O 0.31302 0.07128 0.44748 0.0
Co1237 Co 0.32999 0.05601 0.46883 0.0
O1238 O 0.31045 0.05949 0.46655 0.0
C1239 C 0.34089 0.04656 0.44318 0.0
C1240 C 0.34501 0.08421 0.42727 0.0
C1241 C 0.30556 0.06551 0.45636 0.0
O1242 O 0.33644 0.05719 0.43737 0.0
O1243 O 0.34078 0.04493 0.45591 0.0
O1244 O 0.33051 0.09219 0.45563 0.0
O1245 O 0.33761 0.07268 0.46263 0.0
Co1246 Co 0.33286 0.93606 0.5668 0.0
O1247 O 0.35044 0.93044 0.57285 0.0
O1248 O 0.33197 0.92909 0.585 0.0
C1249 C 0.33372 0.92706 0.54586 0.0
O1250 O 0.31298 0.94058 0.56409 0.0
Co1251 Co 0.32999 0.95567 0.54265 0.0
O1252 O 0.31044 0.95231 0.54497 0.0
C1253 C 0.34099 0.96517 0.56823 0.0
C1254 C 0.34493 0.9276 0.58431 0.0
C1255 C 0.30554 0.94635 0.5552 0.0
O1256 O 0.33648 0.9546 0.57409 0.0
O1257 O 0.34088 0.96673 0.55549 0.0
O1258 O 0.33036 0.91955 0.55602 0.0
O1259 O 0.33755 0.93898 0.54891 0.0
Co1260 Co 0.07732 0.3343 0.56667 0.0
O1261 O 0.08253 0.35199 0.57279 0.0
O1262 O 0.0845 0.33346 0.58478 0.0
C1263 C 0.08612 0.3355 0.54565 0.0
O1264 O 0.07333 0.31433 0.56387 0.0
Co1265 Co 0.05761 0.33103 0.54263 0.0
O1266 O 0.06156 0.31156 0.54481 0.0
C1267 C 0.04783 0.34119 0.56847 0.0
C1268 C 0.0857 0.34645 0.58416 0.0
C1269 C 0.0677 0.30678 0.55499 0.0
O1270 O 0.05874 0.33728 0.57417 0.0
O1271 O 0.0461 0.34109 0.55575 0.0
O1272 O 0.09379 0.33232 0.55575 0.0
O1273 O 0.07412 0.33901 0.54882 0.0
Co1274 Co 0.67924 0.07715 0.56697 0.0
O1275 O 0.66175 0.08318 0.57297 0.0
O1276 O 0.68026 0.08433 0.58508 0.0
C1277 C 0.67861 0.08587 0.54588 0.0
O1278 O 0.69906 0.07228 0.56433 0.0
Co1279 Co 0.68165 0.05709 0.54311 0.0
O1280 O 0.70128 0.05895 0.54621 0.0
C1281 C 0.67027 0.04831 0.56871 0.0
C1282 C 0.66733 0.08605 0.5844 0.0
C1283 C 0.7063 0.06545 0.55604 0.0
O1284 O 0.67526 0.05874 0.57447 0.0
O1285 O 0.67017 0.04673 0.55597 0.0
O1286 O 0.68205 0.09347 0.55596 0.0
O1287 O 0.67454 0.07408 0.54911 0.0
Co1288 Co 0.93508 0.67817 0.56699 0.0
O1289 O 0.92979 0.66054 0.57322 0.0
O1290 O 0.92836 0.67907 0.58528 0.0
C1291 C 0.9258 0.67708 0.54617 0.0
O1292 O 0.93927 0.69811 0.56414 0.0
Co1293 Co 0.95424 0.68128 0.5425 0.0
O1294 O 0.95061 0.70079 0.54482 0.0
C1295 C 0.96436 0.67054 0.56797 0.0
C1296 C 0.92701 0.66609 0.58469 0.0
C1297 C 0.94476 0.70563 0.55514 0.0
O1298 O 0.95379 0.67483 0.57401 0.0
O1299 O 0.96572 0.67067 0.5552 0.0
O1300 O 0.91839 0.68039 0.55643 0.0
O1301 O 0.93781 0.67344 0.54907 0.0
Co1302 Co 0.6785 0.93447 0.44587 0.0
O1303 O 0.66086 0.9289 0.43981 0.0
O1304 O 0.67908 0.92886 0.42722 0.0
C1305 C 0.67851 0.92382 0.46604 0.0
O1306 O 0.69841 0.93911 0.4483 0.0
Co1307 Co 0.682 0.95217 0.47138 0.0
O1308 O 0.70149 0.94969 0.46799 0.0
C1309 C 0.67078 0.96396 0.44676 0.0
C1310 C 0.66621 0.9269 0.42808 0.0
C1311 C 0.70609 0.94448 0.45724 0.0
O1312 O 0.67433 0.95347 0.44009 0.0
O1313 O 0.67166 0.96472 0.45956 0.0
O1314 O 0.68163 0.91724 0.45519 0.0
O1315 O 0.67439 0.93589 0.46416 0.0
Co1316 Co 0.07695 0.67888 0.44628 0.0
O1317 O 0.08262 0.66127 0.44029 0.0
O1318 O 0.08373 0.67968 0.42802 0.0
C1319 C 0.08619 0.67826 0.46712 0.0
O1320 O 0.0724 0.69877 0.44882 0.0
Co1321 Co 0.0577 0.68209 0.47068 0.0
O1322 O 0.06102 0.70162 0.4681 0.0
C1323 C 0.04781 0.67075 0.44536 0.0
C1324 C 0.08537 0.66675 0.42878 0.0
C1325 C 0.0668 0.70635 0.45769 0.0
O1326 O 0.05832 0.67509 0.43926 0.0
O1327 O 0.04643 0.6711 0.45812 0.0
O1328 O 0.09356 0.68157 0.45684 0.0
O1329 O 0.07424 0.67436 0.46425 0.0
Co1330 Co 0.93541 0.33401 0.44561 0.0
O1331 O 0.92995 0.35161 0.43944 0.0
O1332 O 0.9283 0.33302 0.42749 0.0
C1333 C 0.92654 0.33507 0.46658 0.0
O1334 O 0.93966 0.31411 0.44845 0.0
Co1335 Co 0.95507 0.33101 0.46973 0.0
O1336 O 0.95127 0.31151 0.46762 0.0
C1337 C 0.96478 0.34138 0.44395 0.0
C1338 C 0.9269 0.34599 0.42807 0.0
C1339 C 0.94526 0.30664 0.45741 0.0
O1340 O 0.95398 0.33727 0.43818 0.0
O1341 O 0.96644 0.3413 0.45668 0.0
O1342 O 0.91894 0.33178 0.45647 0.0
O1343 O 0.93848 0.33878 0.46346 0.0
H1344 H 0.09959 0.14099 0.42171 0.0
H1345 H 0.13426 0.16672 0.41944 0.0
H1346 H 0.11402 0.12135 0.42164 0.0
H1347 H 0.14881 0.14713 0.41831 0.0
H1348 H 0.17272 0.11068 0.43213 0.0
H1349 H 0.15865 0.13046 0.43007 0.0
H1350 H 0.12768 0.10634 0.41151 0.0
H1351 H 0.14151 0.08642 0.4146 0.0
C1352 C 0.11032 0.14243 0.42086 0.0
C1353 C 0.11576 0.15543 0.42062 0.0
C1354 C 0.11869 0.1311 0.42073 0.0
C1355 C 0.13279 0.1324 0.42002 0.0
C1356 C 0.13812 0.14551 0.41924 0.0
C1357 C 0.12975 0.15683 0.41973 0.0
C1358 C 0.16294 0.10965 0.42748 0.0
C1359 C 0.15824 0.09696 0.42354 0.0
C1360 C 0.15482 0.12107 0.42621 0.0
C1361 C 0.14181 0.12024 0.42065 0.0
C1362 C 0.1374 0.10753 0.41618 0.0
C1363 C 0.14541 0.09605 0.41779 0.0
H1364 H 0.86858 0.10251 0.41191 0.0
H1365 H 0.84647 0.13432 0.43126 0.0
H1366 H 0.88845 0.11678 0.41111 0.0
H1367 H 0.8664 0.14842 0.431 0.0
H1368 H 0.92541 0.13936 0.42682 0.0
H1369 H 0.90535 0.12563 0.42474 0.0
H1370 H 0.88157 0.16137 0.41859 0.0
H1371 H 0.90165 0.17513 0.42126 0.0
C1372 C 0.86795 0.11257 0.41598 0.0
C1373 C 0.85591 0.11725 0.42164 0.0
C1374 C 0.87941 0.12076 0.41563 0.0
C1375 C 0.8792 0.13383 0.42106 0.0
C1376 C 0.86702 0.13855 0.42651 0.0
C1377 C 0.85554 0.13041 0.42673 0.0
C1378 C 0.91592 0.1443 0.42488 0.0
C1379 C 0.91517 0.15838 0.42424 0.0
C1380 C 0.90436 0.13638 0.42362 0.0
C1381 C 0.89168 0.14229 0.42154 0.0
C1382 C 0.89104 0.15639 0.42045 0.0
C1383 C 0.9026 0.16432 0.42185 0.0
H1384 H 0.87339 0.92597 0.42588 0.0
H1385 H 0.83736 0.90248 0.42095 0.0
H1386 H 0.88694 0.9058 0.42324 0.0
H1387 H 0.8509 0.88233 0.41782 0.0
H1388 H 0.87804 0.84713 0.43026 0.0
H1389 H 0.86409 0.86717 0.4302 0.0
H1390 H 0.89519 0.88873 0.40904 0.0
H1391 H 0.90933 0.86871 0.40954 0.0
C1392 C 0.86835 0.91653 0.42398 0.0
C1393 C 0.85425 0.91588 0.42367 0.0
C1394 C 0.87615 0.90491 0.4224 0.0
C1395 C 0.8701 0.89228 0.42037 0.0
C1396 C 0.85598 0.89175 0.41962 0.0
C1397 C 0.84818 0.90337 0.4213 0.0
C1398 C 0.88186 0.8561 0.42546 0.0
C1399 C 0.89484 0.85627 0.41992 0.0
C1400 C 0.8738 0.86764 0.42536 0.0
C1401 C 0.87844 0.87972 0.41965 0.0
C1402 C 0.8913 0.87975 0.41375 0.0
C1403 C 0.8994 0.86821 0.41392 0.0
H1404 H 0.08651 0.8735 0.42596 0.0
H1405 H 0.11004 0.8375 0.42086 0.0
H1406 H 0.10664 0.88708 0.42348 0.0
H1407 H 0.13021 0.85111 0.41793 0.0
H1408 H 0.16507 0.87848 0.43131 0.0
H1409 H 0.14515 0.86437 0.4308 0.0
H1410 H 0.12377 0.89536 0.4093 0.0
H1411 H 0.14365 0.90965 0.41022 0.0
C1412 C 0.09595 0.86847 0.42405 0.0
C1413 C 0.09662 0.85437 0.42365 0.0
C1414 C 0.10755 0.8763 0.42256 0.0
C1415 C 0.12018 0.87028 0.42056 0.0
C1416 C 0.12075 0.85616 0.4197 0.0
C1417 C 0.10914 0.84832 0.42125 0.0
C1418 C 0.15616 0.88225 0.42635 0.0
C1419 C 0.15598 0.89525 0.42084 0.0
C1420 C 0.1447 0.8741 0.42599 0.0
C1421 C 0.13271 0.87866 0.42004 0.0
C1422 C 0.13269 0.89154 0.41418 0.0
C1423 C 0.14415 0.89972 0.4146 0.0
H1424 H 0.17287 0.90209 0.58092 0.0
H1425 H 0.14124 0.92678 0.59709 0.0
H1426 H 0.15879 0.88234 0.58325 0.0
H1427 H 0.12737 0.90693 0.6004 0.0
H1428 H 0.09962 0.87193 0.59043 0.0
H1429 H 0.11402 0.8916 0.59012 0.0
H1430 H 0.14873 0.86609 0.59561 0.0
H1431 H 0.13426 0.84642 0.59491 0.0
C1432 C 0.16299 0.90324 0.58531 0.0
C1433 C 0.15819 0.91603 0.5888 0.0
C1434 C 0.15486 0.89184 0.58674 0.0
C1435 C 0.14174 0.89281 0.59199 0.0
C1436 C 0.13719 0.90563 0.59598 0.0
C1437 C 0.14523 0.91707 0.59425 0.0
C1438 C 0.11033 0.87055 0.59166 0.0
C1439 C 0.11578 0.85759 0.59266 0.0
C1440 C 0.11866 0.8819 0.59158 0.0
C1441 C 0.13273 0.88066 0.59279 0.0
C1442 C 0.13807 0.86762 0.59429 0.0
C1443 C 0.12974 0.85627 0.59404 0.0
H1444 H 0.087 0.1396 0.58723 0.0
H1445 H 0.11092 0.17548 0.59115 0.0
H1446 H 0.10711 0.12589 0.58937 0.0
H1447 H 0.13104 0.16177 0.59378 0.0
H1448 H 0.1444 0.10331 0.60215 0.0
H1449 H 0.12453 0.11762 0.60311 0.0
H1450 H 0.14568 0.14833 0.581 0.0
H1451 H 0.16559 0.13422 0.58047 0.0
C1452 C 0.09653 0.14458 0.5888 0.0
C1453 C 0.0973 0.15867 0.58897 0.0
C1454 C 0.10812 0.13668 0.5901 0.0
C1455 C 0.12084 0.14264 0.59169 0.0
C1456 C 0.12152 0.15676 0.59232 0.0
C1457 C 0.10993 0.16466 0.59093 0.0
C1458 C 0.14485 0.11319 0.59764 0.0
C1459 C 0.15663 0.11759 0.59125 0.0
C1460 C 0.13339 0.12138 0.59809 0.0
C1461 C 0.13335 0.1342 0.59207 0.0
C1462 C 0.14528 0.13866 0.58594 0.0
C1463 C 0.15674 0.13051 0.58556 0.0
H1464 H 0.87905 0.16481 0.58152 0.0
H1465 H 0.91046 0.14307 0.60191 0.0
H1466 H 0.86501 0.14484 0.58175 0.0
H1467 H 0.89624 0.12313 0.60257 0.0
H1468 H 0.8742 0.08605 0.58573 0.0
H1469 H 0.88781 0.10614 0.58839 0.0
H1470 H 0.85188 0.12968 0.59429 0.0
H1471 H 0.83825 0.10956 0.59115 0.0
C1472 C 0.88289 0.15582 0.58627 0.0
C1473 C 0.89593 0.15558 0.59167 0.0
C1474 C 0.87478 0.14432 0.58647 0.0
C1475 C 0.87941 0.13222 0.59214 0.0
C1476 C 0.89234 0.13213 0.59789 0.0
C1477 C 0.90049 0.14362 0.59762 0.0
C1478 C 0.86919 0.09548 0.58775 0.0
C1479 C 0.8551 0.09615 0.58819 0.0
C1480 C 0.87703 0.10706 0.58935 0.0
C1481 C 0.87103 0.11968 0.5915 0.0
C1482 C 0.85692 0.12024 0.5924 0.0
C1483 C 0.84907 0.10865 0.59073 0.0
H1484 H 0.90144 0.83728 0.59103 0.0
H1485 H 0.92478 0.87315 0.58447 0.0
H1486 H 0.88123 0.85092 0.59361 0.0
H1487 H 0.90463 0.88673 0.58651 0.0
H1488 H 0.8679 0.90982 0.59939 0.0
H1489 H 0.88783 0.89565 0.60026 0.0
H1490 H 0.8658 0.86361 0.58105 0.0
H1491 H 0.84578 0.87764 0.58071 0.0
C1492 C 0.90228 0.84809 0.59023 0.0
C1493 C 0.91478 0.85409 0.58758 0.0
C1494 C 0.89065 0.85594 0.59157 0.0
C1495 C 0.89114 0.87002 0.59019 0.0
C1496 C 0.90375 0.87599 0.58786 0.0
C1497 C 0.91537 0.86816 0.58663 0.0
C1498 C 0.86728 0.8997 0.59547 0.0
C1499 C 0.85521 0.8949 0.58997 0.0
C1500 C 0.87877 0.89157 0.59587 0.0
C1501 C 0.87859 0.87841 0.59064 0.0
C1502 C 0.86639 0.87356 0.58537 0.0
C1503 C 0.85487 0.88166 0.58509 0.0
H1504 H 0.40982 0.10278 0.14304 0.0
H1505 H 0.42926 0.13467 0.16494 0.0
H1506 H 0.409 0.11697 0.1231 0.0
H1507 H 0.42889 0.1487 0.14496 0.0
H1508 H 0.4257 0.13922 0.08615 0.0
H1509 H 0.42315 0.12564 0.10626 0.0
H1510 H 0.41627 0.16154 0.1296 0.0
H1511 H 0.41931 0.17515 0.10946 0.0
C1512 C 0.41386 0.11285 0.14363 0.0
C1513 C 0.41961 0.11755 0.15563 0.0
C1514 C 0.4135 0.12099 0.13213 0.0
C1515 C 0.41896 0.13404 0.13226 0.0
C1516 C 0.4244 0.13882 0.14441 0.0
C1517 C 0.42469 0.13072 0.15591 0.0
C1518 C 0.42348 0.14423 0.09554 0.0
C1519 C 0.42274 0.15831 0.09614 0.0
C1520 C 0.42195 0.1364 0.10713 0.0
C1521 C 0.41956 0.1424 0.11971 0.0
C1522 C 0.41835 0.1565 0.12021 0.0
C1523 C 0.41997 0.16434 0.1086 0.0
H1524 H 0.90923 0.41217 0.14345 0.0
H1525 H 0.87719 0.43157 0.16515 0.0
H1526 H 0.89515 0.41124 0.12344 0.0
H1527 H 0.86326 0.43112 0.14508 0.0
H1528 H 0.83701 0.42127 0.10947 0.0
H1529 H 0.85052 0.41847 0.12972 0.0
H1530 H 0.88652 0.42513 0.10648 0.0
H1531 H 0.87304 0.42742 0.08627 0.0
C1532 C 0.89916 0.4162 0.14397 0.0
C1533 C 0.89437 0.42195 0.15594 0.0
C1534 C 0.89108 0.41578 0.13243 0.0
C1535 C 0.878 0.42118 0.13248 0.0
C1536 C 0.87315 0.42666 0.14459 0.0
C1537 C 0.88119 0.427 0.15614 0.0
C1538 C 0.84782 0.42193 0.10866 0.0
C1539 C 0.85391 0.42456 0.0962 0.0
C1540 C 0.85561 0.42045 0.12033 0.0
C1541 C 0.8697 0.42166 0.11989 0.0
C1542 C 0.87576 0.42392 0.10731 0.0
C1543 C 0.86799 0.4253 0.09566 0.0
H1544 H 0.58088 0.87813 0.16478 0.0
H1545 H 0.60161 0.90959 0.14346 0.0
H1546 H 0.58144 0.86412 0.14479 0.0
H1547 H 0.60261 0.8954 0.1235 0.0
H1548 H 0.59145 0.83742 0.10957 0.0
H1549 H 0.59424 0.851 0.12978 0.0
H1550 H 0.58871 0.887 0.10627 0.0
H1551 H 0.58639 0.87345 0.0861 0.0
C1552 C 0.58577 0.88199 0.15588 0.0
C1553 C 0.59117 0.89503 0.15576 0.0
C1554 C 0.58617 0.87389 0.14437 0.0
C1555 C 0.59204 0.87855 0.13238 0.0
C1556 C 0.59778 0.89148 0.13241 0.0
C1557 C 0.59732 0.89962 0.14392 0.0
C1558 C 0.59103 0.84825 0.1087 0.0
C1559 C 0.58869 0.85431 0.09617 0.0
C1560 C 0.59251 0.85607 0.12034 0.0
C1561 C 0.5916 0.87019 0.11981 0.0
C1562 C 0.58966 0.87622 0.10717 0.0
C1563 C 0.58826 0.86841 0.09554 0.0
H1564 H 0.13415 0.58174 0.16586 0.0
H1565 H 0.1029 0.60233 0.14409 0.0
H1566 H 0.14825 0.58194 0.14594 0.0
H1567 H 0.11719 0.60297 0.12419 0.0
H1568 H 0.13937 0.58643 0.0871 0.0
H1569 H 0.12565 0.58888 0.10717 0.0
H1570 H 0.16148 0.59446 0.13093 0.0
H1571 H 0.1752 0.59152 0.11085 0.0
C1572 C 0.13036 0.58653 0.15687 0.0
C1573 C 0.11735 0.592 0.15661 0.0
C1574 C 0.13851 0.58671 0.1454 0.0
C1575 C 0.13394 0.59244 0.13331 0.0
C1576 C 0.12103 0.59825 0.13319 0.0
C1577 C 0.11285 0.598 0.14466 0.0
C1578 C 0.14433 0.58832 0.09658 0.0
C1579 C 0.15842 0.58873 0.09733 0.0
C1580 C 0.13643 0.5898 0.10814 0.0
C1581 C 0.14237 0.59182 0.12081 0.0
C1582 C 0.15648 0.59267 0.12145 0.0
C1583 C 0.16438 0.59109 0.10989 0.0
H1584 H 0.41118 0.90972 0.86874 0.0
H1585 H 0.4296 0.87737 0.84661 0.0
H1586 H 0.41039 0.89559 0.88874 0.0
H1587 H 0.42929 0.86342 0.86662 0.0
H1588 H 0.41987 0.83717 0.90222 0.0
H1589 H 0.41673 0.85085 0.88214 0.0
H1590 H 0.42452 0.88662 0.90539 0.0
H1591 H 0.42714 0.87298 0.92546 0.0
C1592 C 0.415 0.89957 0.86811 0.0
C1593 C 0.42044 0.89471 0.85603 0.0
C1594 C 0.41466 0.89146 0.87964 0.0
C1595 C 0.41984 0.87829 0.87945 0.0
C1596 C 0.425 0.87338 0.86723 0.0
C1597 C 0.42525 0.88145 0.8557 0.0
C1598 C 0.42071 0.84797 0.90307 0.0
C1599 C 0.42376 0.85394 0.91549 0.0
C1600 C 0.41903 0.85585 0.8915 0.0
C1601 C 0.42046 0.86992 0.89199 0.0
C1602 C 0.42313 0.87588 0.90453 0.0
C1603 C 0.42471 0.86802 0.9161 0.0
H1604 H 0.10043 0.41021 0.86901 0.0
H1605 H 0.132 0.43019 0.84713 0.0
H1606 H 0.11467 0.40956 0.88894 0.0
H1607 H 0.14605 0.42998 0.86708 0.0
H1608 H 0.17278 0.4203 0.90224 0.0
H1609 H 0.15904 0.41726 0.88221 0.0
H1610 H 0.12328 0.42385 0.90582 0.0
H1611 H 0.13701 0.42641 0.92587 0.0
C1612 C 0.11044 0.4144 0.86842 0.0
C1613 C 0.11505 0.42024 0.85643 0.0
C1614 C 0.11859 0.41414 0.87991 0.0
C1615 C 0.13157 0.41978 0.87976 0.0
C1616 C 0.13624 0.42534 0.86763 0.0
C1617 C 0.12813 0.42553 0.85615 0.0
C1618 C 0.16197 0.42092 0.90318 0.0
C1619 C 0.15603 0.42361 0.91569 0.0
C1620 C 0.15407 0.41929 0.89164 0.0
C1621 C 0.13998 0.42041 0.89226 0.0
C1622 C 0.13404 0.42273 0.90488 0.0
C1623 C 0.14195 0.42427 0.91642 0.0
H1624 H 0.58309 0.13468 0.84781 0.0
H1625 H 0.60299 0.10299 0.8696 0.0
H1626 H 0.58336 0.14869 0.86778 0.0
H1627 H 0.60373 0.1172 0.88956 0.0
H1628 H 0.58724 0.13956 0.92664 0.0
H1629 H 0.5898 0.12585 0.90657 0.0
H1630 H 0.59584 0.16169 0.88293 0.0
H1631 H 0.59275 0.17539 0.90299 0.0
C1632 C 0.58776 0.13077 0.85681 0.0
C1633 C 0.593 0.11767 0.85706 0.0
C1634 C 0.58798 0.13887 0.86832 0.0
C1635 C 0.59354 0.13417 0.88044 0.0
C1636 C 0.59914 0.12116 0.88055 0.0
C1637 C 0.59883 0.11302 0.86904 0.0
C1638 C 0.58927 0.14452 0.91719 0.0
C1639 C 0.58974 0.15861 0.91646 0.0
C1640 C 0.59081 0.13662 0.90562 0.0
C1641 C 0.59296 0.14257 0.89297 0.0
C1642 C 0.59392 0.15668 0.89237 0.0
C1643 C 0.59228 0.16458 0.90393 0.0
H1644 H 0.84035 0.58009 0.902 0.0
H1645 H 0.87158 0.59745 0.92634 0.0
H1646 H 0.85433 0.5824 0.8822 0.0
H1647 H 0.88533 0.60082 0.90642 0.0
H1648 H 0.91327 0.59132 0.87141 0.0
H1649 H 0.89897 0.59106 0.89116 0.0
H1650 H 0.86397 0.59441 0.86566 0.0
H1651 H 0.87839 0.59356 0.84597 0.0
C1652 C 0.85011 0.58475 0.90305 0.0
C1653 C 0.85484 0.58858 0.91576 0.0
C1654 C 0.85819 0.58618 0.89161 0.0
C1655 C 0.87117 0.5918 0.89246 0.0
C1656 C 0.87563 0.59611 0.9052 0.0
C1657 C 0.86766 0.59435 0.91669 0.0
C1658 C 0.90251 0.5921 0.87007 0.0
C1659 C 0.89697 0.59242 0.85712 0.0
C1660 C 0.89422 0.59204 0.88145 0.0
C1661 C 0.88011 0.59264 0.88026 0.0
C1662 C 0.87468 0.59353 0.8672 0.0
C1663 C 0.88297 0.59322 0.85582 0.0
H1664 H 0.14256 0.4108 0.10181 0.0
H1665 H 0.16456 0.4307 0.13335 0.0
H1666 H 0.12267 0.41017 0.11607 0.0
H1667 H 0.1446 0.43051 0.14746 0.0
H1668 H 0.1092 0.42078 0.17418 0.0
H1669 H 0.12934 0.41793 0.16051 0.0
H1670 H 0.10581 0.42431 0.12466 0.0
H1671 H 0.08571 0.42668 0.1383 0.0
C1672 C 0.14318 0.41501 0.11182 0.0
C1673 C 0.1552 0.4208 0.1164 0.0
C1674 C 0.13171 0.41475 0.11999 0.0
C1675 C 0.13188 0.42036 0.13298 0.0
C1676 C 0.14403 0.4259 0.13764 0.0
C1677 C 0.15551 0.42608 0.12949 0.0
C1678 C 0.1083 0.42137 0.16337 0.0
C1679 C 0.09579 0.42394 0.15737 0.0
C1680 C 0.11991 0.41986 0.1555 0.0
C1681 C 0.11935 0.42096 0.1414 0.0
C1682 C 0.10673 0.42318 0.13543 0.0
C1683 C 0.09514 0.42461 0.14329 0.0
H1684 H 0.11091 0.59065 0.83694 0.0
H1685 H 0.08688 0.58692 0.87277 0.0
H1686 H 0.13099 0.59344 0.85072 0.0
H1687 H 0.1069 0.58925 0.88652 0.0
H1688 H 0.1438 0.60237 0.90926 0.0
H1689 H 0.12413 0.60325 0.8947 0.0
H1690 H 0.14561 0.58078 0.86446 0.0
H1691 H 0.16535 0.58032 0.87885 0.0
C1692 C 0.10989 0.59052 0.84776 0.0
C1693 C 0.09724 0.58857 0.85371 0.0
C1694 C 0.12144 0.592 0.85569 0.0
C1695 C 0.1207 0.5915 0.86982 0.0
C1696 C 0.10796 0.5899 0.87573 0.0
C1697 C 0.09642 0.58849 0.86781 0.0
C1698 C 0.14437 0.59776 0.89944 0.0
C1699 C 0.15619 0.59127 0.89526 0.0
C1700 C 0.13303 0.59816 0.89109 0.0
C1701 C 0.13313 0.59201 0.87835 0.0
C1702 C 0.14511 0.58581 0.87407 0.0
C1703 C 0.15646 0.58548 0.88239 0.0
H1704 H 0.42168 0.10971 0.83617 0.0
H1705 H 0.42659 0.08596 0.87204 0.0
H1706 H 0.41875 0.12981 0.84989 0.0
H1707 H 0.42413 0.10602 0.88573 0.0
H1708 H 0.43208 0.16456 0.87739 0.0
H1709 H 0.43151 0.1447 0.86319 0.0
H1710 H 0.41019 0.12318 0.89419 0.0
H1711 H 0.41118 0.143 0.90857 0.0
C1712 C 0.42202 0.10874 0.84699 0.0
C1713 C 0.42437 0.09617 0.85297 0.0
C1714 C 0.42047 0.12032 0.85489 0.0
C1715 C 0.4213 0.11968 0.86901 0.0
C1716 C 0.42323 0.107 0.87496 0.0
C1717 C 0.42471 0.09544 0.86706 0.0
C1718 C 0.42715 0.15563 0.88114 0.0
C1719 C 0.42171 0.15541 0.89417 0.0
C1720 C 0.42675 0.1442 0.87294 0.0
C1721 C 0.42084 0.13218 0.87746 0.0
C1722 C 0.41504 0.13211 0.89038 0.0
C1723 C 0.41551 0.14354 0.89862 0.0
H1724 H 0.84439 0.42028 0.87649 0.0
H1725 H 0.87014 0.42442 0.911 0.0
H1726 H 0.86398 0.41954 0.86189 0.0
H1727 H 0.88972 0.42459 0.89647 0.0
H1728 H 0.92451 0.41646 0.86895 0.0
H1729 H 0.90466 0.41368 0.88295 0.0
H1730 H 0.88043 0.43198 0.85194 0.0
H1731 H 0.90016 0.43388 0.83773 0.0
C1732 C 0.85426 0.42108 0.88095 0.0
C1733 C 0.85568 0.42237 0.89492 0.0
C1734 C 0.86557 0.42079 0.87255 0.0
C1735 C 0.87864 0.4221 0.87783 0.0
C1736 C 0.87997 0.42327 0.89189 0.0
C1737 C 0.86868 0.42327 0.90029 0.0
C1738 C 0.91488 0.4197 0.86508 0.0
C1739 C 0.91393 0.42534 0.8522 0.0
C1740 C 0.90345 0.41825 0.87318 0.0
C1741 C 0.89075 0.4227 0.86878 0.0
C1742 C 0.88985 0.42817 0.85574 0.0
C1743 C 0.90124 0.42934 0.84754 0.0
H1744 H 0.59274 0.90242 0.83707 0.0
H1745 H 0.58662 0.92556 0.87315 0.0
H1746 H 0.59586 0.8822 0.85057 0.0
H1747 H 0.58925 0.90538 0.88662 0.0
H1748 H 0.60264 0.8685 0.90925 0.0
H1749 H 0.60344 0.88849 0.89512 0.0
H1750 H 0.58332 0.86679 0.86343 0.0
H1751 H 0.58297 0.84676 0.87739 0.0
C1752 C 0.59216 0.90322 0.84789 0.0
C1753 C 0.58944 0.91565 0.85399 0.0
C1754 C 0.59382 0.89157 0.85566 0.0
C1755 C 0.59272 0.89201 0.86977 0.0
C1756 C 0.59037 0.90456 0.87584 0.0
C1757 C 0.5888 0.91619 0.86808 0.0
C1758 C 0.59854 0.86795 0.8992 0.0
C1759 C 0.59274 0.85599 0.89448 0.0
C1760 C 0.59889 0.87948 0.8911 0.0
C1761 C 0.59336 0.87941 0.87807 0.0
C1762 C 0.58786 0.86729 0.87328 0.0
C1763 C 0.58759 0.85576 0.88134 0.0
H1764 H 0.90286 0.59146 0.17436 0.0
H1765 H 0.92598 0.58622 0.13812 0.0
H1766 H 0.88261 0.59469 0.16098 0.0
H1767 H 0.90573 0.58897 0.12475 0.0
H1768 H 0.86865 0.60286 0.10262 0.0
H1769 H 0.88872 0.60334 0.11665 0.0
H1770 H 0.86729 0.58229 0.1479 0.0
H1771 H 0.84718 0.58224 0.13406 0.0
C1772 C 0.90365 0.59108 0.16353 0.0
C1773 C 0.91608 0.58858 0.15735 0.0
C1774 C 0.89198 0.59281 0.15582 0.0
C1775 C 0.89239 0.59201 0.1417 0.0
C1776 C 0.90494 0.58986 0.13554 0.0
C1777 C 0.9166 0.58821 0.14325 0.0
C1778 C 0.86818 0.59849 0.11256 0.0
C1779 C 0.85627 0.59252 0.11719 0.0
C1780 C 0.87975 0.59866 0.1206 0.0
C1781 C 0.87978 0.59278 0.13347 0.0
C1782 C 0.86771 0.5871 0.13818 0.0
C1783 C 0.85614 0.58701 0.13018 0.0
H1784 H 0.4101 0.86964 0.10262 0.0
H1785 H 0.43051 0.84789 0.134 0.0
H1786 H 0.40926 0.88952 0.11695 0.0
H1787 H 0.43015 0.86778 0.14812 0.0
H1788 H 0.4206 0.90272 0.17511 0.0
H1789 H 0.41762 0.8827 0.16133 0.0
H1790 H 0.42311 0.9066 0.12557 0.0
H1791 H 0.42556 0.92662 0.13935 0.0
C1792 C 0.41435 0.86907 0.1126 0.0
C1793 C 0.42035 0.85713 0.11713 0.0
C1794 C 0.41398 0.88053 0.12081 0.0
C1795 C 0.41969 0.8804 0.13377 0.0
C1796 C 0.42543 0.86832 0.13835 0.0
C1797 C 0.42571 0.85687 0.13018 0.0
C1798 C 0.42098 0.90372 0.1643 0.0
C1799 C 0.42333 0.91631 0.15837 0.0
C1800 C 0.41939 0.89219 0.15635 0.0
C1801 C 0.42023 0.89288 0.14224 0.0
C1802 C 0.4222 0.90558 0.13634 0.0
C1803 C 0.42368 0.91712 0.14428 0.0
H1804 H 0.58146 0.16524 0.1349 0.0
H1805 H 0.60154 0.14364 0.10319 0.0
H1806 H 0.58194 0.14524 0.1489 0.0
H1807 H 0.60247 0.12368 0.11736 0.0
H1808 H 0.58585 0.08652 0.13937 0.0
H1809 H 0.58836 0.10668 0.12584 0.0
H1810 H 0.59467 0.13003 0.16183 0.0
H1811 H 0.59167 0.10985 0.17539 0.0
C1812 C 0.5862 0.15628 0.13099 0.0
C1813 C 0.59143 0.15608 0.11788 0.0
C1814 C 0.58655 0.14477 0.13907 0.0
C1815 C 0.59221 0.1327 0.13433 0.0
C1816 C 0.59781 0.13265 0.12134 0.0
C1817 C 0.59738 0.14416 0.11321 0.0
C1818 C 0.58793 0.09593 0.14441 0.0
C1819 C 0.58852 0.09653 0.15851 0.0
C1820 C 0.58945 0.10754 0.13662 0.0
C1821 C 0.59167 0.12013 0.14266 0.0
C1822 C 0.59272 0.12062 0.15677 0.0
C1823 C 0.59113 0.109 0.16457 0.0
H1824 H 0.64058 0.58591 0.92566 0.0
H1825 H 0.67625 0.61005 0.92132 0.0
H1826 H 0.62671 0.60587 0.92326 0.0
H1827 H 0.66237 0.63003 0.91841 0.0
H1828 H 0.63457 0.66456 0.93127 0.0
H1829 H 0.64886 0.64478 0.93094 0.0
H1830 H 0.61821 0.623 0.90937 0.0
H1831 H 0.60371 0.64275 0.91016 0.0
C1832 C 0.64548 0.59545 0.92393 0.0
C1833 C 0.65956 0.59634 0.92372 0.0
C1834 C 0.63749 0.60696 0.92248 0.0
C1835 C 0.64333 0.61971 0.9207 0.0
C1836 C 0.65744 0.62049 0.92003 0.0
C1837 C 0.66544 0.60899 0.92157 0.0
C1838 C 0.63091 0.6556 0.92634 0.0
C1839 C 0.61795 0.65528 0.92077 0.0
C1840 C 0.63917 0.64421 0.92608 0.0
C1841 C 0.63478 0.63214 0.92016 0.0
C1842 C 0.62192 0.63197 0.91424 0.0
C1843 C 0.61362 0.64336 0.91458 0.0
H1844 H 0.42588 0.6381 0.92608 0.0
H1845 H 0.40223 0.67388 0.92012 0.0
H1846 H 0.40587 0.62437 0.92354 0.0
H1847 H 0.38218 0.66011 0.91713 0.0
H1848 H 0.34721 0.63273 0.93018 0.0
H1849 H 0.36705 0.64695 0.92983 0.0
H1850 H 0.38903 0.61573 0.90928 0.0
H1851 H 0.36922 0.60134 0.91004 0.0
C1852 C 0.41644 0.64305 0.92397 0.0
C1853 C 0.41571 0.65714 0.92334 0.0
C1854 C 0.40491 0.63513 0.92244 0.0
C1855 C 0.39227 0.64104 0.92017 0.0
C1856 C 0.39164 0.65514 0.9191 0.0
C1857 C 0.40319 0.66307 0.92069 0.0
C1858 C 0.35623 0.62893 0.92546 0.0
C1859 C 0.35658 0.61584 0.92017 0.0
C1860 C 0.36765 0.63715 0.92519 0.0
C1861 C 0.37979 0.63257 0.91957 0.0
C1862 C 0.38 0.61959 0.91391 0.0
C1863 C 0.36857 0.61134 0.91425 0.0
H1864 H 0.37666 0.34525 0.91812 0.0
H1865 H 0.41142 0.37076 0.92134 0.0
H1866 H 0.36219 0.36493 0.91756 0.0
H1867 H 0.39704 0.39047 0.92178 0.0
H1868 H 0.36926 0.42557 0.9154 0.0
H1869 H 0.38327 0.4058 0.91194 0.0
H1870 H 0.35262 0.38114 0.93032 0.0
H1871 H 0.33842 0.40075 0.93282 0.0
C1872 C 0.3812 0.35511 0.91872 0.0
C1873 C 0.39519 0.35643 0.91974 0.0
C1874 C 0.37288 0.36647 0.91857 0.0
C1875 C 0.37827 0.37952 0.91981 0.0
C1876 C 0.39236 0.38076 0.92057 0.0
C1877 C 0.40069 0.36939 0.92038 0.0
C1878 C 0.36548 0.41586 0.91852 0.0
C1879 C 0.35269 0.41475 0.92433 0.0
C1880 C 0.37359 0.40447 0.91667 0.0
C1881 C 0.36927 0.39165 0.92089 0.0
C1882 C 0.35635 0.39063 0.92661 0.0
C1883 C 0.34816 0.40196 0.92815 0.0
H1884 H 0.60944 0.33768 0.91969 0.0
H1885 H 0.58611 0.37367 0.92571 0.0
H1886 H 0.62958 0.35127 0.91657 0.0
H1887 H 0.60623 0.38723 0.92309 0.0
H1888 H 0.6432 0.40997 0.9101 0.0
H1889 H 0.62323 0.39581 0.90906 0.0
H1890 H 0.64477 0.36412 0.92936 0.0
H1891 H 0.66476 0.3781 0.92995 0.0
C1892 C 0.60857 0.3485 0.92023 0.0
C1893 C 0.59612 0.35455 0.92296 0.0
C1894 C 0.62017 0.35632 0.91858 0.0
C1895 C 0.61968 0.37042 0.91969 0.0
C1896 C 0.6071 0.37646 0.92197 0.0
C1897 C 0.5955 0.36864 0.92354 0.0
C1898 C 0.64371 0.39991 0.91418 0.0
C1899 C 0.65561 0.3952 0.92011 0.0
C1900 C 0.6322 0.3918 0.91369 0.0
C1901 C 0.63224 0.37876 0.91919 0.0
C1902 C 0.64429 0.37397 0.92482 0.0
C1903 C 0.6558 0.38205 0.92524 0.0
H1904 H 0.635 0.34569 0.09424 0.0
H1905 H 0.60047 0.37152 0.09099 0.0
H1906 H 0.64961 0.36525 0.09527 0.0
H1907 H 0.61498 0.3911 0.09097 0.0
H1908 H 0.64247 0.42602 0.09768 0.0
H1909 H 0.62858 0.4062 0.10108 0.0
H1910 H 0.65962 0.38164 0.08319 0.0
H1911 H 0.67374 0.40135 0.08082 0.0
C1912 C 0.63054 0.35559 0.09374 0.0
C1913 C 0.61657 0.35704 0.09258 0.0
C1914 C 0.63894 0.36688 0.09416 0.0
C1915 C 0.63367 0.37999 0.09306 0.0
C1916 C 0.61959 0.38134 0.09212 0.0
C1917 C 0.61118 0.37005 0.09205 0.0
C1918 C 0.64638 0.41632 0.09471 0.0
C1919 C 0.65924 0.41527 0.08904 0.0
C1920 C 0.63833 0.4049 0.09649 0.0
C1921 C 0.64274 0.3921 0.0923 0.0
C1922 C 0.65578 0.39112 0.08684 0.0
C1923 C 0.66394 0.4025 0.08539 0.0
H1924 H 0.64068 0.60044 0.09085 0.0
H1925 H 0.66658 0.63495 0.09354 0.0
H1926 H 0.62113 0.615 0.09086 0.0
H1927 H 0.64708 0.64962 0.09462 0.0
H1928 H 0.61099 0.6738 0.08043 0.0
H1929 H 0.63064 0.65959 0.08267 0.0
H1930 H 0.60611 0.62875 0.10091 0.0
H1931 H 0.58633 0.64273 0.09763 0.0
C1932 C 0.64217 0.61116 0.09179 0.0
C1933 C 0.6552 0.61653 0.09215 0.0
C1934 C 0.6309 0.6196 0.09188 0.0
C1935 C 0.63228 0.63369 0.09267 0.0
C1936 C 0.64541 0.63894 0.09361 0.0
C1937 C 0.65668 0.63051 0.09315 0.0
C1938 C 0.60984 0.66403 0.08505 0.0
C1939 C 0.59708 0.65941 0.08884 0.0
C1940 C 0.62118 0.65582 0.08643 0.0
C1941 C 0.6202 0.64281 0.09196 0.0
C1942 C 0.60742 0.63847 0.09627 0.0
C1943 C 0.59602 0.64657 0.09456 0.0
H1944 H 0.338 0.61048 0.09205 0.0
H1945 H 0.37385 0.5871 0.08548 0.0
H1946 H 0.35166 0.63059 0.09504 0.0
H1947 H 0.38747 0.60719 0.08794 0.0
H1948 H 0.41046 0.64379 0.10149 0.0
H1949 H 0.39626 0.62385 0.10208 0.0
H1950 H 0.36447 0.64603 0.08263 0.0
H1951 H 0.3785 0.66602 0.08254 0.0
C1952 C 0.34881 0.60961 0.09131 0.0
C1953 C 0.3548 0.59714 0.08854 0.0
C1954 C 0.35667 0.62119 0.0929 0.0
C1955 C 0.37076 0.62066 0.09165 0.0
C1956 C 0.37672 0.60808 0.08919 0.0
C1957 C 0.36887 0.5965 0.08771 0.0
C1958 C 0.40038 0.64444 0.09748 0.0
C1959 C 0.39564 0.65653 0.09197 0.0
C1960 C 0.39223 0.63295 0.09771 0.0
C1961 C 0.37915 0.63318 0.09232 0.0
C1962 C 0.37436 0.64541 0.08707 0.0
C1963 C 0.38246 0.65691 0.08694 0.0
H1964 H 0.42544 0.3738 0.08647 0.0
H1965 H 0.4016 0.338 0.09145 0.0
H1966 H 0.4054 0.38755 0.0888 0.0
H1967 H 0.38152 0.35179 0.09421 0.0
H1968 H 0.34691 0.37939 0.08065 0.0
H1969 H 0.36675 0.36515 0.08122 0.0
H1970 H 0.38821 0.396 0.10285 0.0
H1971 H 0.36841 0.4104 0.10189 0.0
C1972 C 0.41595 0.36885 0.08833 0.0
C1973 C 0.41518 0.35475 0.08874 0.0
C1974 C 0.4044 0.37677 0.08973 0.0
C1975 C 0.3917 0.37086 0.09164 0.0
C1976 C 0.39103 0.35675 0.09252 0.0
C1977 C 0.40259 0.34882 0.09106 0.0
C1978 C 0.35582 0.38311 0.08564 0.0
C1979 C 0.35603 0.39609 0.09119 0.0
C1980 C 0.36723 0.37488 0.08604 0.0
C1981 C 0.37922 0.37935 0.09205 0.0
C1982 C 0.37929 0.39223 0.09793 0.0
C1983 C 0.36787 0.40048 0.09748 0.0
H1984 H 0.92732 0.63875 0.5869 0.0
H1985 H 0.92042 0.67467 0.61008 0.0
H1986 H 0.92521 0.62523 0.60709 0.0
H1987 H 0.91778 0.6611 0.63032 0.0
H1988 H 0.93057 0.63454 0.66594 0.0
H1989 H 0.93031 0.6485 0.64587 0.0
H1990 H 0.91133 0.61635 0.62382 0.0
H1991 H 0.9121 0.60225 0.6438 0.0
C1992 C 0.92508 0.64376 0.59628 0.0
C1993 C 0.92405 0.65783 0.59682 0.0
C1994 C 0.9238 0.63597 0.60793 0.0
C1995 C 0.92136 0.64198 0.62049 0.0
C1996 C 0.9199 0.65606 0.62094 0.0
C1997 C 0.92128 0.66387 0.60928 0.0
C1998 C 0.92625 0.63048 0.65683 0.0
C1999 C 0.9214 0.61723 0.6565 0.0
C2000 C 0.92603 0.63854 0.64528 0.0
C2001 C 0.92084 0.63363 0.63307 0.0
C2002 C 0.91565 0.62047 0.63289 0.0
C2003 C 0.91599 0.61238 0.64441 0.0
H2004 H 0.37227 0.92774 0.58635 0.0
H2005 H 0.33648 0.92088 0.60971 0.0
H2006 H 0.38589 0.92563 0.60646 0.0
H2007 H 0.35016 0.91822 0.62987 0.0
H2008 H 0.40911 0.91298 0.64317 0.0
H2009 H 0.39493 0.91193 0.62325 0.0
H2010 H 0.36273 0.93088 0.64528 0.0
H2011 H 0.37676 0.93139 0.66528 0.0
C2012 C 0.36731 0.9255 0.59575 0.0
C2013 C 0.35324 0.92451 0.59637 0.0
C2014 C 0.37516 0.92422 0.60735 0.0
C2015 C 0.36922 0.9218 0.61995 0.0
C2016 C 0.35515 0.92034 0.62046 0.0
C2017 C 0.34727 0.92173 0.60885 0.0
C2018 C 0.39895 0.91679 0.64379 0.0
C2019 C 0.3941 0.92228 0.65585 0.0
C2020 C 0.39082 0.9163 0.6323 0.0
C2021 C 0.37762 0.9214 0.63249 0.0
C2022 C 0.37272 0.92665 0.64468 0.0
C2023 C 0.38082 0.92703 0.65619 0.0
H2024 H 0.10189 0.41018 0.64321 0.0
H2025 H 0.08175 0.37852 0.66479 0.0
H2026 H 0.10289 0.39595 0.62328 0.0
H2027 H 0.08233 0.36446 0.64484 0.0
H2028 H 0.0923 0.33789 0.60953 0.0
H2029 H 0.09526 0.35151 0.62969 0.0
H2030 H 0.08866 0.38742 0.6063 0.0
H2031 H 0.08614 0.37382 0.58618 0.0
C2032 C 0.09774 0.40015 0.64373 0.0
C2033 C 0.09174 0.39552 0.65563 0.0
C2034 C 0.09821 0.392 0.63225 0.0
C2035 C 0.09262 0.379 0.63231 0.0
C2036 C 0.08692 0.37429 0.64436 0.0
C2037 C 0.08652 0.38241 0.65584 0.0
C2038 C 0.09168 0.3487 0.60867 0.0
C2039 C 0.08897 0.35473 0.5962 0.0
C2040 C 0.09326 0.35654 0.62027 0.0
C2041 C 0.09211 0.37064 0.61976 0.0
C2042 C 0.08981 0.37665 0.60717 0.0
C2043 C 0.08829 0.36882 0.59558 0.0
H2044 H 0.60384 0.10279 0.64363 0.0
H2045 H 0.63542 0.08245 0.66516 0.0
H2046 H 0.61802 0.10366 0.62367 0.0
H2047 H 0.64942 0.08288 0.64516 0.0
H2048 H 0.67601 0.09242 0.6098 0.0
H2049 H 0.66246 0.0955 0.62998 0.0
H2050 H 0.62644 0.08962 0.60659 0.0
H2051 H 0.63997 0.08702 0.58644 0.0
C2052 C 0.61384 0.09856 0.64414 0.0
C2053 C 0.61846 0.09255 0.65604 0.0
C2054 C 0.62197 0.09896 0.63262 0.0
C2055 C 0.63493 0.09327 0.63264 0.0
C2056 C 0.63963 0.08756 0.6447 0.0
C2057 C 0.63153 0.08724 0.65621 0.0
C2058 C 0.66519 0.092 0.60894 0.0
C2059 C 0.65911 0.08947 0.59645 0.0
C2060 C 0.65738 0.09364 0.62057 0.0
C2061 C 0.64327 0.09271 0.62007 0.0
C2062 C 0.63722 0.0906 0.60746 0.0
C2063 C 0.64502 0.08904 0.59584 0.0
H2064 H 0.92012 0.33723 0.40282 0.0
H2065 H 0.92641 0.37334 0.42589 0.0
H2066 H 0.91695 0.35071 0.3826 0.0
H2067 H 0.92372 0.38679 0.4057 0.0
H2068 H 0.91027 0.40935 0.36882 0.0
H2069 H 0.90942 0.39524 0.38883 0.0
H2070 H 0.92963 0.36352 0.36722 0.0
H2071 H 0.93004 0.37746 0.34718 0.0
C2072 C 0.92072 0.34806 0.40361 0.0
C2073 C 0.92353 0.35418 0.41601 0.0
C2074 C 0.91903 0.35581 0.39197 0.0
C2075 C 0.92017 0.36992 0.39238 0.0
C2076 C 0.92257 0.37601 0.40491 0.0
C2077 C 0.92419 0.36827 0.41654 0.0
C2078 C 0.91437 0.39929 0.3683 0.0
C2079 C 0.92023 0.39457 0.35636 0.0
C2080 C 0.91399 0.39121 0.37983 0.0
C2081 C 0.91954 0.37819 0.37978 0.0
C2082 C 0.92507 0.37337 0.36769 0.0
C2083 C 0.92538 0.38142 0.35616 0.0
H2084 H 0.67463 0.9208 0.40256 0.0
H2085 H 0.63881 0.92647 0.4262 0.0
H2086 H 0.66093 0.91771 0.3825 0.0
H2087 H 0.62511 0.92392 0.40614 0.0
H2088 H 0.60224 0.91002 0.36949 0.0
H2089 H 0.61647 0.90979 0.38941 0.0
H2090 H 0.64784 0.92977 0.36712 0.0
H2091 H 0.63379 0.9295 0.34715 0.0
C2092 C 0.66382 0.92133 0.40349 0.0
C2093 C 0.65785 0.92387 0.41603 0.0
C2094 C 0.65592 0.91968 0.39194 0.0
C2095 C 0.64182 0.92064 0.39254 0.0
C2096 C 0.63588 0.92289 0.40518 0.0
C2097 C 0.64377 0.92443 0.41674 0.0
C2098 C 0.61224 0.91423 0.36881 0.0
C2099 C 0.61685 0.91976 0.35668 0.0
C2100 C 0.6204 0.91421 0.3803 0.0
C2101 C 0.63338 0.91984 0.38004 0.0
C2102 C 0.63804 0.92514 0.36778 0.0
C2103 C 0.62992 0.92505 0.35628 0.0
H2104 H 0.09188 0.67524 0.40338 0.0
H2105 H 0.0859 0.63936 0.42686 0.0
H2106 H 0.09488 0.66157 0.38327 0.0
H2107 H 0.08841 0.62571 0.40676 0.0
H2108 H 0.1015 0.60284 0.36984 0.0
H2109 H 0.10245 0.61707 0.38978 0.0
H2110 H 0.08212 0.64865 0.36812 0.0
H2111 H 0.08162 0.6346 0.34816 0.0
C2112 C 0.09131 0.66443 0.40428 0.0
C2113 C 0.08864 0.65843 0.41677 0.0
C2114 C 0.0929 0.65655 0.39269 0.0
C2115 C 0.09179 0.64245 0.39324 0.0
C2116 C 0.08953 0.63648 0.40586 0.0
C2117 C 0.08802 0.64434 0.41744 0.0
C2118 C 0.09739 0.61289 0.3693 0.0
C2119 C 0.09148 0.61755 0.35737 0.0
C2120 C 0.09783 0.62104 0.38079 0.0
C2121 C 0.09229 0.63407 0.38071 0.0
C2122 C 0.08668 0.6388 0.36862 0.0
C2123 C 0.08632 0.63068 0.35713 0.0
H2124 H 0.40899 0.10039 0.36852 0.0
H2125 H 0.37817 0.07887 0.34704 0.0
H2126 H 0.3945 0.10147 0.38825 0.0
H2127 H 0.36384 0.07955 0.36683 0.0
H2128 H 0.37237 0.08529 0.42552 0.0
H2129 H 0.38613 0.08751 0.40548 0.0
H2130 H 0.35036 0.09254 0.38151 0.0
H2131 H 0.33658 0.08987 0.4016 0.0
C2132 C 0.39909 0.09594 0.36798 0.0
C2133 C 0.39478 0.08954 0.35616 0.0
C2134 C 0.39079 0.09646 0.37935 0.0
C2135 C 0.37794 0.09053 0.37928 0.0
C2136 C 0.37354 0.08441 0.36731 0.0
C2137 C 0.38182 0.08395 0.35593 0.0
C2138 C 0.36742 0.08704 0.41601 0.0
C2139 C 0.35333 0.08737 0.41522 0.0
C2140 C 0.37535 0.08838 0.40446 0.0
C2141 C 0.36944 0.09015 0.39174 0.0
C2142 C 0.35533 0.09095 0.39104 0.0
C2143 C 0.34739 0.08955 0.40261 0.0
H2144 H 0.58543 0.92685 0.63898 0.0
H2145 H 0.60873 0.92051 0.67491 0.0
H2146 H 0.60553 0.92418 0.62539 0.0
H2147 H 0.62885 0.91736 0.66129 0.0
H2148 H 0.66419 0.9303 0.63444 0.0
H2149 H 0.64419 0.93 0.64843 0.0
H2150 H 0.62239 0.90993 0.61678 0.0
H2151 H 0.64236 0.91068 0.60261 0.0
C2152 C 0.59481 0.92462 0.64398 0.0
C2153 C 0.59542 0.92394 0.65807 0.0
C2154 C 0.6064 0.92302 0.63615 0.0
C2155 C 0.61897 0.92061 0.64216 0.0
C2156 C 0.61946 0.91945 0.65625 0.0
C2157 C 0.60787 0.92113 0.66409 0.0
C2158 C 0.65517 0.9257 0.63049 0.0
C2159 C 0.65492 0.92054 0.61736 0.0
C2160 C 0.64365 0.92545 0.63858 0.0
C2161 C 0.63152 0.91998 0.63381 0.0
C2162 C 0.63141 0.91445 0.62078 0.0
C2163 C 0.64293 0.91477 0.61266 0.0
H2164 H 0.64375 0.09926 0.41025 0.0
H2165 H 0.66573 0.08083 0.37781 0.0
H2166 H 0.62373 0.10018 0.39619 0.0
H2167 H 0.64565 0.08125 0.3639 0.0
H2168 H 0.60997 0.09135 0.3378 0.0
H2169 H 0.63018 0.09399 0.35141 0.0
H2170 H 0.60696 0.08632 0.38721 0.0
H2171 H 0.58679 0.0842 0.37366 0.0
C2172 C 0.64432 0.09542 0.4001 0.0
C2173 C 0.65637 0.08997 0.39519 0.0
C2174 C 0.63278 0.09585 0.39203 0.0
C2175 C 0.63292 0.09072 0.37884 0.0
C2176 C 0.6451 0.0855 0.37388 0.0
C2177 C 0.65665 0.08517 0.38192 0.0
C2178 C 0.60916 0.09043 0.3486 0.0
C2179 C 0.59671 0.08757 0.35461 0.0
C2180 C 0.6208 0.09181 0.35643 0.0
C2181 C 0.62035 0.09028 0.3705 0.0
C2182 C 0.60779 0.08777 0.37649 0.0
C2183 C 0.59616 0.08649 0.36867 0.0
H2184 H 0.92039 0.60973 0.33682 0.0
H2185 H 0.92571 0.5858 0.37249 0.0
H2186 H 0.91744 0.62972 0.35066 0.0
H2187 H 0.92327 0.60578 0.38633 0.0
H2188 H 0.93025 0.66459 0.37799 0.0
H2189 H 0.92998 0.64471 0.36384 0.0
H2190 H 0.90936 0.6228 0.39505 0.0
H2191 H 0.91008 0.64266 0.4094 0.0
C2192 C 0.92085 0.60871 0.34763 0.0
C2193 C 0.92329 0.59612 0.35351 0.0
C2194 C 0.91929 0.62023 0.3556 0.0
C2195 C 0.92022 0.61952 0.36971 0.0
C2196 C 0.92229 0.60682 0.37557 0.0
C2197 C 0.92376 0.5953 0.36759 0.0
C2198 C 0.92554 0.65558 0.38181 0.0
C2199 C 0.92021 0.65527 0.39488 0.0
C2200 C 0.92531 0.64413 0.37363 0.0
C2201 C 0.91967 0.632 0.37821 0.0
C2202 C 0.914 0.63182 0.39118 0.0
C2203 C 0.91431 0.64327 0.39941 0.0
H2204 H 0.42615 0.91338 0.36989 0.0
H2205 H 0.40167 0.93111 0.33895 0.0
H2206 H 0.40627 0.90994 0.38371 0.0
H2207 H 0.38193 0.9286 0.35298 0.0
H2208 H 0.34587 0.91668 0.37691 0.0
H2209 H 0.36558 0.91593 0.3625 0.0
H2210 H 0.39104 0.92004 0.39743 0.0
H2211 H 0.3713 0.91981 0.41175 0.0
C2212 C 0.41649 0.91655 0.36604 0.0
C2213 C 0.41551 0.92246 0.35328 0.0
C2214 C 0.40504 0.91472 0.37405 0.0
C2215 C 0.39228 0.91906 0.36967 0.0
C2216 C 0.39138 0.92482 0.35676 0.0
C2217 C 0.40278 0.92636 0.34866 0.0
C2218 C 0.35571 0.9172 0.38149 0.0
C2219 C 0.357 0.91827 0.39548 0.0
C2220 C 0.36709 0.91694 0.3732 0.0
C2221 C 0.38012 0.9181 0.37862 0.0
C2222 C 0.38133 0.91889 0.39272 0.0
C2223 C 0.36995 0.91882 0.40101 0.0
H2224 H 0.08596 0.42579 0.37265 0.0
H2225 H 0.09251 0.4025 0.33673 0.0
H2226 H 0.08856 0.4057 0.38623 0.0
H2227 H 0.09562 0.38237 0.35036 0.0
H2228 H 0.083 0.34691 0.37725 0.0
H2229 H 0.08321 0.36688 0.36318 0.0
H2230 H 0.1027 0.38901 0.39497 0.0
H2231 H 0.102 0.3691 0.4092 0.0
C2232 C 0.08823 0.41641 0.36764 0.0
C2233 C 0.089 0.4158 0.35356 0.0
C2234 C 0.08979 0.40483 0.37548 0.0
C2235 C 0.09226 0.39226 0.36949 0.0
C2236 C 0.09349 0.39176 0.35539 0.0
C2237 C 0.09183 0.40335 0.34755 0.0
C2238 C 0.08744 0.356 0.3812 0.0
C2239 C 0.09244 0.35637 0.39439 0.0
C2240 C 0.08764 0.3675 0.37308 0.0
C2241 C 0.09292 0.37972 0.37786 0.0
C2242 C 0.0983 0.37993 0.39095 0.0
C2243 C 0.09801 0.36845 0.39911 0.0
H2244 H 0.37211 0.0914 0.59984 0.0
H2245 H 0.34689 0.09533 0.63475 0.0
H2246 H 0.3919 0.09108 0.61406 0.0
H2247 H 0.36667 0.09604 0.64906 0.0
H2248 H 0.40273 0.08098 0.67276 0.0
H2249 H 0.38293 0.08362 0.65885 0.0
H2250 H 0.40744 0.1009 0.62745 0.0
H2251 H 0.42735 0.09726 0.64116 0.0
C2252 C 0.37082 0.09255 0.61057 0.0
C2253 C 0.3579 0.09335 0.61615 0.0
C2254 C 0.38224 0.09244 0.61881 0.0
C2255 C 0.38113 0.09345 0.6329 0.0
C2256 C 0.36812 0.09485 0.63837 0.0
C2257 C 0.3567 0.09461 0.63013 0.0
C2258 C 0.40386 0.08547 0.66293 0.0
C2259 C 0.41664 0.08889 0.65809 0.0
C2260 C 0.39242 0.08708 0.65489 0.0
C2261 C 0.39334 0.09247 0.64182 0.0
C2262 C 0.40616 0.0964 0.63724 0.0
C2263 C 0.41765 0.09446 0.64518 0.0
H2264 H 0.91751 0.34569 0.63529 0.0
H2265 H 0.92207 0.37089 0.60044 0.0
H2266 H 0.91661 0.36551 0.64958 0.0
H2267 H 0.92218 0.3907 0.61465 0.0
H2268 H 0.91505 0.42615 0.6414 0.0
H2269 H 0.91179 0.40613 0.62776 0.0
H2270 H 0.92878 0.38193 0.65956 0.0
H2271 H 0.93104 0.40186 0.67341 0.0
C2272 C 0.91835 0.35551 0.63069 0.0
C2273 C 0.91981 0.3567 0.61672 0.0
C2274 C 0.91799 0.36694 0.63891 0.0
C2275 C 0.91944 0.37994 0.63345 0.0
C2276 C 0.92074 0.38104 0.61938 0.0
C2277 C 0.92077 0.36962 0.61115 0.0
C2278 C 0.91786 0.41649 0.64552 0.0
C2279 C 0.92325 0.41561 0.65852 0.0
C2280 C 0.91616 0.40495 0.63762 0.0
C2281 C 0.92014 0.39219 0.64233 0.0
C2282 C 0.92531 0.39138 0.6555 0.0
C2283 C 0.92669 0.40288 0.6635 0.0
H2284 H 0.0966 0.58663 0.64185 0.0
H2285 H 0.07968 0.61097 0.67336 0.0
H2286 H 0.10019 0.60663 0.62826 0.0
H2287 H 0.08223 0.63085 0.65954 0.0
H2288 H 0.0938 0.66713 0.63575 0.0
H2289 H 0.0945 0.6473 0.64999 0.0
H2290 H 0.09053 0.62214 0.6148 0.0
H2291 H 0.0909 0.642 0.60067 0.0
C2292 C 0.09364 0.59629 0.64587 0.0
C2293 C 0.08792 0.5972 0.65872 0.0
C2294 C 0.09553 0.60783 0.63799 0.0
C2295 C 0.09142 0.6206 0.64258 0.0
C2296 C 0.08585 0.62141 0.65558 0.0
C2297 C 0.08428 0.60993 0.66357 0.0
C2298 C 0.0933 0.65732 0.63109 0.0
C2299 C 0.09235 0.65616 0.61708 0.0
C2300 C 0.09353 0.64586 0.63928 0.0
C2301 C 0.0924 0.63286 0.63373 0.0
C2302 C 0.09168 0.6318 0.61962 0.0
C2303 C 0.09182 0.64325 0.61143 0.0
H2304 H 0.08728 0.22104 0.39967 0.0
H2305 H 0.11343 0.2233 0.43402 0.0
H2306 H 0.08853 0.2455 0.39718 0.0
H2307 H 0.11544 0.2474 0.43118 0.0
H2308 H 0.10102 0.29068 0.43492 0.0
H2309 H 0.10305 0.26636 0.43534 0.0
H2310 H 0.09994 0.26539 0.39204 0.0
H2311 H 0.09715 0.28981 0.39192 0.0
C2312 C 0.09359 0.22674 0.40643 0.0
C2313 C 0.10019 0.22031 0.41707 0.0
C2314 C 0.09436 0.24078 0.40503 0.0
C2315 C 0.10193 0.24862 0.41412 0.0
C2316 C 0.10915 0.24191 0.42423 0.0
C2317 C 0.10814 0.22802 0.42578 0.0
C2318 C 0.10112 0.28526 0.4255 0.0
C2319 C 0.09922 0.2921 0.41338 0.0
C2320 C 0.10229 0.27126 0.42568 0.0
C2321 C 0.1017 0.2637 0.41369 0.0
C2322 C 0.10026 0.27072 0.4015 0.0
C2323 C 0.0989 0.28475 0.40137 0.0
H2324 H 0.79082 0.08181 0.40237 0.0
H2325 H 0.78974 0.1194 0.42364 0.0
H2326 H 0.76648 0.08264 0.39964 0.0
H2327 H 0.76557 0.12085 0.42027 0.0
H2328 H 0.72185 0.10904 0.42975 0.0
H2329 H 0.74617 0.1118 0.42883 0.0
H2330 H 0.74697 0.09108 0.39067 0.0
H2331 H 0.72281 0.08766 0.39222 0.0
C2332 C 0.7854 0.09053 0.40594 0.0
C2333 C 0.79212 0.10062 0.41304 0.0
C2334 C 0.7714 0.09105 0.40443 0.0
C2335 C 0.76384 0.10178 0.40985 0.0
C2336 C 0.77085 0.11225 0.41624 0.0
C2337 C 0.78476 0.11156 0.41799 0.0
C2338 C 0.72724 0.10544 0.42103 0.0
C2339 C 0.72049 0.09831 0.41098 0.0
C2340 C 0.74124 0.10698 0.42045 0.0
C2341 C 0.74876 0.10156 0.4097 0.0
C2342 C 0.74172 0.09512 0.39928 0.0
C2343 C 0.72782 0.09334 0.40003 0.0
H2344 H 0.90481 0.78649 0.43685 0.0
H2345 H 0.91886 0.79225 0.3963 0.0
H2346 H 0.90404 0.76235 0.43331 0.0
H2347 H 0.91818 0.76783 0.39274 0.0
H2348 H 0.93555 0.72483 0.40298 0.0
H2349 H 0.93199 0.74897 0.40247 0.0
H2350 H 0.89295 0.74359 0.42044 0.0
H2351 H 0.89652 0.71916 0.42081 0.0
C2352 C 0.9076 0.78259 0.42709 0.0
C2353 C 0.91198 0.79129 0.41687 0.0
C2354 C 0.90703 0.76873 0.42504 0.0
C2355 C 0.91103 0.76313 0.41275 0.0
C2356 C 0.91507 0.77184 0.40235 0.0
C2357 C 0.91543 0.78582 0.40435 0.0
C2358 C 0.9261 0.72875 0.40663 0.0
C2359 C 0.91633 0.72009 0.412 0.0
C2360 C 0.92402 0.74261 0.40624 0.0
C2361 C 0.91219 0.74825 0.4114 0.0
C2362 C 0.9022 0.73955 0.41641 0.0
C2363 C 0.90419 0.72558 0.41658 0.0
H2364 H 0.21965 0.91673 0.3969 0.0
H2365 H 0.2258 0.9063 0.43848 0.0
H2366 H 0.24397 0.91525 0.39308 0.0
H2367 H 0.24985 0.90478 0.43469 0.0
H2368 H 0.29274 0.89571 0.42274 0.0
H2369 H 0.26827 0.89236 0.42286 0.0
H2370 H 0.26314 0.92938 0.40095 0.0
H2371 H 0.2873 0.93271 0.40093 0.0
C2372 C 0.22615 0.91395 0.40515 0.0
C2373 C 0.22081 0.91175 0.418 0.0
C2374 C 0.24007 0.91312 0.40299 0.0
C2375 C 0.24887 0.90986 0.41359 0.0
C2376 C 0.24339 0.90713 0.42627 0.0
C2377 C 0.22958 0.90814 0.42846 0.0
C2378 C 0.28636 0.90294 0.41773 0.0
C2379 C 0.29192 0.9145 0.4119 0.0
C2380 C 0.27237 0.90109 0.41785 0.0
C2381 C 0.26374 0.91063 0.41192 0.0
C2382 C 0.26944 0.92177 0.40547 0.0
C2383 C 0.28332 0.92371 0.40555 0.0
H2384 H 0.11258 0.72238 0.58871 0.0
H2385 H 0.07877 0.72414 0.61561 0.0
H2386 H 0.1147 0.74686 0.58987 0.0
H2387 H 0.08127 0.74829 0.61752 0.0
H2388 H 0.07652 0.79148 0.6029 0.0
H2389 H 0.07654 0.76717 0.60521 0.0
H2390 H 0.11976 0.76684 0.60106 0.0
H2391 H 0.11943 0.79121 0.59799 0.0
C2392 C 0.10587 0.72798 0.59517 0.0
C2393 C 0.09548 0.72139 0.602 0.0
C2394 C 0.10706 0.74204 0.59589 0.0
C2395 C 0.09801 0.74975 0.60364 0.0
C2396 C 0.08817 0.7429 0.6111 0.0
C2397 C 0.08683 0.72898 0.61014 0.0
C2398 C 0.08603 0.78621 0.60287 0.0
C2399 C 0.09799 0.7932 0.60059 0.0
C2400 C 0.0861 0.77221 0.60419 0.0
C2401 C 0.09818 0.76483 0.60335 0.0
C2402 C 0.11023 0.77203 0.60157 0.0
C2403 C 0.1101 0.78603 0.60006 0.0
H2404 H 0.22041 0.09544 0.615 0.0
H2405 H 0.22647 0.10655 0.57358 0.0
H2406 H 0.24477 0.09659 0.61872 0.0
H2407 H 0.25056 0.10775 0.57728 0.0
H2408 H 0.29361 0.11626 0.58934 0.0
H2409 H 0.26916 0.11977 0.58926 0.0
H2410 H 0.26379 0.08241 0.61051 0.0
H2411 H 0.28793 0.07893 0.6105 0.0
C2412 C 0.2269 0.09831 0.60677 0.0
C2413 C 0.22152 0.10079 0.59399 0.0
C2414 C 0.24084 0.09894 0.60887 0.0
C2415 C 0.24963 0.10229 0.59829 0.0
C2416 C 0.24412 0.10532 0.58569 0.0
C2417 C 0.23028 0.10449 0.58355 0.0
C2418 C 0.28718 0.10898 0.59421 0.0
C2419 C 0.29267 0.0973 0.59986 0.0
C2420 C 0.2732 0.11093 0.59411 0.0
C2421 C 0.2645 0.10135 0.59988 0.0
C2422 C 0.27014 0.09006 0.60612 0.0
C2423 C 0.284 0.08802 0.60602 0.0
H2424 H 0.90899 0.29077 0.5777 0.0
H2425 H 0.91644 0.28976 0.62023 0.0
H2426 H 0.90695 0.26642 0.57739 0.0
H2427 H 0.91358 0.2654 0.6203 0.0
H2428 H 0.92573 0.22128 0.61226 0.0
H2429 H 0.9244 0.2457 0.61462 0.0
H2430 H 0.89567 0.2471 0.5821 0.0
H2431 H 0.89786 0.22299 0.57927 0.0
C2432 C 0.90962 0.28532 0.58709 0.0
C2433 C 0.91256 0.29212 0.59903 0.0
C2434 C 0.90847 0.2713 0.58697 0.0
C2435 C 0.9101 0.26371 0.59884 0.0
C2436 C 0.91248 0.27072 0.6109 0.0
C2437 C 0.91388 0.28473 0.61094 0.0
C2438 C 0.91901 0.22686 0.6058 0.0
C2439 C 0.91193 0.22028 0.59557 0.0
C2440 C 0.91818 0.24089 0.60713 0.0
C2441 C 0.91004 0.24861 0.59843 0.0
C2442 C 0.90239 0.24174 0.58874 0.0
C2443 C 0.90349 0.22784 0.58721 0.0
H2444 H 0.7899 0.93501 0.6014 0.0
H2445 H 0.78911 0.89203 0.59723 0.0
H2446 H 0.76563 0.93532 0.60395 0.0
H2447 H 0.76478 0.89204 0.60058 0.0
H2448 H 0.72037 0.89952 0.58826 0.0
H2449 H 0.74482 0.8971 0.58941 0.0
H2450 H 0.74672 0.93112 0.61633 0.0
H2451 H 0.72262 0.9339 0.61439 0.0
C2452 C 0.78452 0.92556 0.60159 0.0
C2453 C 0.79136 0.91349 0.59942 0.0
C2454 C 0.77055 0.92568 0.60306 0.0
C2455 C 0.76303 0.91368 0.60248 0.0
C2456 C 0.77008 0.90151 0.60088 0.0
C2457 C 0.78406 0.90145 0.59921 0.0
C2458 C 0.72607 0.9063 0.59455 0.0
C2459 C 0.71963 0.91693 0.60116 0.0
C2460 C 0.74011 0.90494 0.59527 0.0
C2461 C 0.74796 0.91405 0.60282 0.0
C2462 C 0.74124 0.92415 0.61006 0.0
C2463 C 0.72734 0.92567 0.60908 0.0
H2464 H 0.41739 0.11388 0.29294 0.0
H2465 H 0.40613 0.07261 0.28621 0.0
H2466 H 0.41641 0.11797 0.26863 0.0
H2467 H 0.40504 0.07668 0.26216 0.0
H2468 H 0.39643 0.08985 0.21931 0.0
H2469 H 0.39296 0.08934 0.24376 0.0
H2470 H 0.43076 0.10968 0.24951 0.0
H2471 H 0.43423 0.11004 0.22535 0.0
C2472 C 0.41451 0.10576 0.28632 0.0
C2473 C 0.41194 0.09291 0.29149 0.0
C2474 C 0.41398 0.10808 0.27241 0.0
C2475 C 0.41061 0.09765 0.26344 0.0
C2476 C 0.40749 0.08498 0.26874 0.0
C2477 C 0.40824 0.08262 0.28255 0.0
C2478 C 0.40382 0.09443 0.22582 0.0
C2479 C 0.41561 0.09994 0.22043 0.0
C2480 C 0.4019 0.09408 0.23981 0.0
C2481 C 0.4116 0.09948 0.2486 0.0
C2482 C 0.42302 0.10558 0.24308 0.0
C2483 C 0.42504 0.1057 0.22921 0.0
H2484 H 0.92094 0.39675 0.21921 0.0
H2485 H 0.90072 0.43449 0.22563 0.0
H2486 H 0.92071 0.39266 0.24357 0.0
H2487 H 0.90044 0.43048 0.24967 0.0
H2488 H 0.89608 0.41753 0.29287 0.0
H2489 H 0.89206 0.41659 0.26855 0.0
H2490 H 0.93296 0.40373 0.26231 0.0
H2491 H 0.93692 0.40467 0.28633 0.0
C2492 C 0.91619 0.40399 0.22577 0.0
C2493 C 0.91093 0.41596 0.22053 0.0
C2494 C 0.91612 0.40172 0.23971 0.0
C2495 C 0.91057 0.41127 0.2486 0.0
C2496 C 0.90465 0.42284 0.24318 0.0
C2497 C 0.90491 0.42518 0.22937 0.0
C2498 C 0.90411 0.41432 0.28629 0.0
C2499 C 0.91684 0.4113 0.29152 0.0
C2500 C 0.90184 0.4138 0.27237 0.0
C2501 C 0.9122 0.41006 0.26345 0.0
C2502 C 0.9247 0.40647 0.26883 0.0
C2503 C 0.927 0.40715 0.28264 0.0
H2504 H 0.61934 0.91345 0.29009 0.0
H2505 H 0.57631 0.91009 0.2911 0.0
H2506 H 0.61911 0.91055 0.2657 0.0
H2507 H 0.57577 0.90812 0.26681 0.0
H2508 H 0.57659 0.89837 0.22359 0.0
H2509 H 0.57935 0.89617 0.24767 0.0
H2510 H 0.61437 0.92176 0.24584 0.0
H2511 H 0.61198 0.92309 0.22141 0.0
C2512 C 0.60985 0.9118 0.28506 0.0
C2513 C 0.59786 0.9117 0.29245 0.0
C2514 C 0.60966 0.91039 0.27105 0.0
C2515 C 0.59742 0.90916 0.26405 0.0
C2516 C 0.58546 0.90873 0.27165 0.0
C2517 C 0.58571 0.9099 0.28565 0.0
C2518 C 0.58502 0.90334 0.22833 0.0
C2519 C 0.59406 0.91092 0.22064 0.0
C2520 C 0.58654 0.90222 0.24222 0.0
C2521 C 0.59693 0.909 0.24896 0.0
C2522 C 0.6063 0.91624 0.24113 0.0
C2523 C 0.60495 0.91707 0.22709 0.0
H2524 H 0.09265 0.61598 0.22027 0.0
H2525 H 0.10778 0.57586 0.22639 0.0
H2526 H 0.09307 0.61972 0.24467 0.0
H2527 H 0.10831 0.57959 0.25051 0.0
H2528 H 0.1151 0.59255 0.29365 0.0
H2529 H 0.11888 0.59292 0.26926 0.0
H2530 H 0.07936 0.60966 0.26344 0.0
H2531 H 0.07559 0.60917 0.28755 0.0
C2532 C 0.09628 0.60808 0.22678 0.0
C2533 C 0.10009 0.59561 0.22142 0.0
C2534 C 0.09648 0.61018 0.24074 0.0
C2535 C 0.10075 0.59994 0.24954 0.0
C2536 C 0.10513 0.58774 0.24405 0.0
C2537 C 0.10471 0.58558 0.23021 0.0
C2538 C 0.10735 0.59651 0.28714 0.0
C2539 C 0.09503 0.60074 0.2925 0.0
C2540 C 0.10947 0.59668 0.27319 0.0
C2541 C 0.0994 0.60134 0.26439 0.0
C2542 C 0.08737 0.60617 0.26989 0.0
C2543 C 0.08518 0.60578 0.28373 0.0
H2544 H 0.40101 0.92732 0.79072 0.0
H2545 H 0.42918 0.89462 0.7885 0.0
H2546 H 0.3983 0.92663 0.76635 0.0
H2547 H 0.42586 0.89311 0.76437 0.0
H2548 H 0.43199 0.90638 0.72075 0.0
H2549 H 0.43209 0.90361 0.74505 0.0
H2550 H 0.39088 0.91725 0.74667 0.0
H2551 H 0.39133 0.92082 0.72246 0.0
C2552 C 0.40624 0.91968 0.78502 0.0
C2553 C 0.41527 0.91101 0.79144 0.0
C2554 C 0.40471 0.91922 0.77101 0.0
C2555 C 0.41197 0.90989 0.76315 0.0
C2556 C 0.42038 0.90072 0.76986 0.0
C2557 C 0.42216 0.90144 0.78375 0.0
C2558 C 0.42287 0.90839 0.72632 0.0
C2559 C 0.41158 0.91355 0.71977 0.0
C2560 C 0.42287 0.90683 0.74031 0.0
C2561 C 0.41149 0.91025 0.74807 0.0
C2562 C 0.39996 0.91477 0.74125 0.0
C2563 C 0.40009 0.91659 0.72731 0.0
H2564 H 0.10709 0.43587 0.787 0.0
H2565 H 0.09015 0.3964 0.79252 0.0
H2566 H 0.10794 0.43229 0.76287 0.0
H2567 H 0.09089 0.39282 0.7681 0.0
H2568 H 0.07449 0.40457 0.72511 0.0
H2569 H 0.0779 0.40366 0.74926 0.0
H2570 H 0.11818 0.41872 0.74414 0.0
H2571 H 0.11476 0.41952 0.7197 0.0
C2572 C 0.10371 0.42632 0.78304 0.0
C2573 C 0.09847 0.41643 0.79166 0.0
C2574 C 0.10431 0.42424 0.7692 0.0
C2575 C 0.0995 0.41228 0.76353 0.0
C2576 C 0.09465 0.40217 0.77217 0.0
C2577 C 0.09426 0.40417 0.78614 0.0
C2578 C 0.08416 0.40751 0.72909 0.0
C2579 C 0.09434 0.41221 0.7205 0.0
C2580 C 0.08615 0.40687 0.74295 0.0
C2581 C 0.0983 0.4111 0.74865 0.0
C2582 C 0.10868 0.41542 0.74004 0.0
C2583 C 0.10675 0.41585 0.72607 0.0
H2584 H 0.59408 0.11596 0.71997 0.0
H2585 H 0.60896 0.07572 0.72584 0.0
H2586 H 0.59459 0.11956 0.74439 0.0
H2587 H 0.60956 0.0793 0.74997 0.0
H2588 H 0.61656 0.09199 0.79322 0.0
H2589 H 0.62024 0.09235 0.7688 0.0
H2590 H 0.58093 0.10965 0.76317 0.0
H2591 H 0.57726 0.10919 0.78729 0.0
C2592 C 0.59767 0.108 0.72643 0.0
C2593 C 0.60138 0.09554 0.72099 0.0
C2594 C 0.59792 0.11002 0.7404 0.0
C2595 C 0.60214 0.09971 0.74915 0.0
C2596 C 0.60643 0.0875 0.74357 0.0
C2597 C 0.60596 0.08542 0.72972 0.0
C2598 C 0.60884 0.09607 0.78675 0.0
C2599 C 0.5966 0.10048 0.79217 0.0
C2600 C 0.6109 0.09623 0.77278 0.0
C2601 C 0.60087 0.10105 0.76402 0.0
C2602 C 0.58893 0.10603 0.76958 0.0
C2603 C 0.58679 0.10566 0.78343 0.0
H2604 H 0.90977 0.57747 0.72201 0.0
H2605 H 0.91411 0.62044 0.72248 0.0
H2606 H 0.90751 0.57733 0.74631 0.0
H2607 H 0.91105 0.62061 0.74685 0.0
H2608 H 0.92434 0.61333 0.79098 0.0
H2609 H 0.92259 0.61563 0.76657 0.0
H2610 H 0.8956 0.58166 0.76547 0.0
H2611 H 0.89815 0.57897 0.78954 0.0
C2612 C 0.90966 0.58695 0.72732 0.0
C2613 C 0.91181 0.59898 0.72039 0.0
C2614 C 0.90837 0.58693 0.74132 0.0
C2615 C 0.9091 0.59898 0.74875 0.0
C2616 C 0.91064 0.6111 0.74162 0.0
C2617 C 0.91213 0.61106 0.72762 0.0
C2618 C 0.9179 0.60653 0.78547 0.0
C2619 C 0.91146 0.59593 0.79211 0.0
C2620 C 0.91683 0.60783 0.77145 0.0
C2621 C 0.90909 0.5987 0.76383 0.0
C2622 C 0.902 0.58865 0.77077 0.0
C2623 C 0.90333 0.58718 0.78464 0.0
H2624 H 0.22126 0.41377 0.07586 0.0
H2625 H 0.22152 0.41351 0.11904 0.0
H2626 H 0.24552 0.4116 0.07554 0.0
H2627 H 0.24595 0.4105 0.11894 0.0
H2628 H 0.2906 0.42336 0.11279 0.0
H2629 H 0.26611 0.42215 0.11503 0.0
H2630 H 0.26416 0.39849 0.0787 0.0
H2631 H 0.28828 0.40049 0.07616 0.0
C2632 C 0.22653 0.41281 0.0853 0.0
C2633 C 0.21954 0.41362 0.09745 0.0
C2634 C 0.24051 0.41149 0.08517 0.0
C2635 C 0.2479 0.41082 0.09724 0.0
C2636 C 0.24073 0.41115 0.10944 0.0
C2637 C 0.22671 0.41265 0.10953 0.0
C2638 C 0.28487 0.41777 0.10544 0.0
C2639 C 0.2913 0.41212 0.09425 0.0
C2640 C 0.27082 0.41702 0.1067 0.0
C2641 C 0.26297 0.41041 0.09691 0.0
C2642 C 0.26966 0.40406 0.08622 0.0
C2643 C 0.28357 0.40508 0.08482 0.0
H2644 H 0.21983 0.61497 0.91945 0.0
H2645 H 0.22537 0.57432 0.90556 0.0
H2646 H 0.24426 0.61845 0.91852 0.0
H2647 H 0.2495 0.57781 0.9045 0.0
H2648 H 0.29266 0.5902 0.89656 0.0
H2649 H 0.2682 0.59074 0.89314 0.0
H2650 H 0.26314 0.60853 0.93231 0.0
H2651 H 0.2873 0.60784 0.93574 0.0
C2652 C 0.22622 0.60689 0.91599 0.0
C2653 C 0.22069 0.59436 0.91268 0.0
C2654 C 0.24019 0.60885 0.91548 0.0
C2655 C 0.24883 0.5984 0.9114 0.0
C2656 C 0.24317 0.58611 0.90752 0.0
C2657 C 0.22931 0.58409 0.90824 0.0
C2658 C 0.2863 0.59443 0.90429 0.0
C2659 C 0.29188 0.5989 0.91643 0.0
C2660 C 0.27232 0.5947 0.90238 0.0
C2661 C 0.26372 0.5997 0.91246 0.0
C2662 C 0.26944 0.60477 0.92428 0.0
C2663 C 0.2833 0.60427 0.92628 0.0
H2664 H 0.39771 0.2189 0.91734 0.0
H2665 H 0.4387 0.22538 0.90498 0.0
H2666 H 0.39378 0.24326 0.91659 0.0
H2667 H 0.4348 0.24946 0.90417 0.0
H2668 H 0.42203 0.29252 0.89643 0.0
H2669 H 0.42226 0.2681 0.89272 0.0
H2670 H 0.40236 0.26219 0.93074 0.0
H2671 H 0.40223 0.28631 0.93443 0.0
C2672 C 0.40579 0.22548 0.91427 0.0
C2673 C 0.41852 0.22022 0.91132 0.0
C2674 C 0.40357 0.23942 0.91388 0.0
C2675 C 0.41398 0.24832 0.91029 0.0
C2676 C 0.42652 0.24293 0.90679 0.0
C2677 C 0.42877 0.2291 0.90739 0.0
C2678 C 0.4175 0.28598 0.90384 0.0
C2679 C 0.41218 0.29132 0.91574 0.0
C2680 C 0.41768 0.27201 0.90177 0.0
C2681 C 0.41232 0.26318 0.91145 0.0
C2682 C 0.40642 0.26865 0.92301 0.0
C2683 C 0.40645 0.2825 0.92516 0.0
H2684 H 0.79058 0.40966 0.93483 0.0
H2685 H 0.78971 0.41467 0.89194 0.0
H2686 H 0.76631 0.40709 0.93511 0.0
H2687 H 0.76541 0.41129 0.8919 0.0
H2688 H 0.72122 0.42395 0.89956 0.0
H2689 H 0.74563 0.42253 0.89714 0.0
H2690 H 0.74721 0.39512 0.93077 0.0
H2691 H 0.72312 0.39734 0.93358 0.0
C2692 C 0.78519 0.40961 0.92538 0.0
C2693 C 0.792 0.41205 0.91334 0.0
C2694 C 0.77121 0.40815 0.92549 0.0
C2695 C 0.76368 0.409 0.91351 0.0
C2696 C 0.77071 0.4108 0.90137 0.0
C2697 C 0.78468 0.41247 0.90132 0.0
C2698 C 0.72684 0.41749 0.90626 0.0
C2699 C 0.72032 0.41082 0.91679 0.0
C2700 C 0.74086 0.41661 0.90489 0.0
C2701 C 0.7486 0.40883 0.91389 0.0
C2702 C 0.7418 0.40154 0.92388 0.0
C2703 C 0.72792 0.40269 0.92542 0.0
H2704 H 0.61596 0.79209 0.92086 0.0
H2705 H 0.5772 0.78629 0.90249 0.0
H2706 H 0.61949 0.76765 0.92081 0.0
H2707 H 0.58071 0.76214 0.90232 0.0
H2708 H 0.59385 0.71877 0.89683 0.0
H2709 H 0.59461 0.74315 0.89302 0.0
H2710 H 0.60815 0.74906 0.93374 0.0
H2711 H 0.60728 0.72497 0.93753 0.0
C2712 C 0.60834 0.78564 0.91658 0.0
C2713 C 0.59629 0.7911 0.91176 0.0
C2714 C 0.61031 0.77166 0.9166 0.0
C2715 C 0.60037 0.76293 0.91155 0.0
C2716 C 0.58864 0.76852 0.90613 0.0
C2717 C 0.58659 0.78239 0.90633 0.0
C2718 C 0.59716 0.72529 0.90487 0.0
C2719 C 0.60041 0.71995 0.91749 0.0
C2720 C 0.59757 0.73924 0.90272 0.0
C2721 C 0.60148 0.74806 0.91309 0.0
C2722 C 0.60527 0.74259 0.92549 0.0
C2723 C 0.60465 0.72876 0.92769 0.0
H2724 H 0.71914 0.59172 0.11567 0.0
H2725 H 0.72495 0.60917 0.07647 0.0
H2726 H 0.74354 0.59229 0.11937 0.0
H2727 H 0.74906 0.60984 0.08016 0.0
H2728 H 0.79222 0.6162 0.09318 0.0
H2729 H 0.7678 0.61975 0.09383 0.0
H2730 H 0.76239 0.57939 0.1086 0.0
H2731 H 0.78652 0.57586 0.10785 0.0
C2732 C 0.72558 0.59591 0.10798 0.0
C2733 C 0.72014 0.60031 0.09576 0.0
C2734 C 0.73954 0.59619 0.11006 0.0
C2735 C 0.74826 0.60113 0.10005 0.0
C2736 C 0.74267 0.60613 0.08813 0.0
C2737 C 0.72883 0.60563 0.08599 0.0
C2738 C 0.7858 0.6082 0.09675 0.0
C2739 C 0.79128 0.59574 0.10036 0.0
C2740 C 0.77183 0.61019 0.09709 0.0
C2741 C 0.76313 0.59984 0.10129 0.0
C2742 C 0.76875 0.58763 0.10548 0.0
C2743 C 0.78261 0.58558 0.10493 0.0
H2744 H 0.43562 0.72236 0.10121 0.0
H2745 H 0.39257 0.72279 0.09784 0.0
H2746 H 0.4358 0.74666 0.10348 0.0
H2747 H 0.39246 0.74718 0.10088 0.0
H2748 H 0.3996 0.79162 0.08823 0.0
H2749 H 0.39732 0.76715 0.08945 0.0
H2750 H 0.43154 0.76547 0.11609 0.0
H2751 H 0.43418 0.78959 0.1141 0.0
C2752 C 0.42615 0.72768 0.10147 0.0
C2753 C 0.41408 0.72074 0.09963 0.0
C2754 C 0.42619 0.74166 0.10279 0.0
C2755 C 0.41411 0.74908 0.1024 0.0
C2756 C 0.40198 0.74195 0.10105 0.0
C2757 C 0.40199 0.72795 0.09954 0.0
C2758 C 0.40646 0.78596 0.09447 0.0
C2759 C 0.41711 0.79246 0.10098 0.0
C2760 C 0.40518 0.77192 0.09523 0.0
C2761 C 0.41439 0.76414 0.10271 0.0
C2762 C 0.4245 0.77092 0.10987 0.0
C2763 C 0.42594 0.78481 0.10886 0.0
H2764 H 0.61504 0.21986 0.09349 0.0
H2765 H 0.57495 0.22587 0.10872 0.0
H2766 H 0.61872 0.24427 0.09401 0.0
H2767 H 0.57859 0.24998 0.10929 0.0
H2768 H 0.59109 0.29325 0.11586 0.0
H2769 H 0.59149 0.26886 0.11969 0.0
H2770 H 0.60896 0.26301 0.08048 0.0
H2771 H 0.6085 0.2871 0.07668 0.0
C2772 C 0.60712 0.22635 0.09716 0.0
C2773 C 0.59468 0.22095 0.10096 0.0
C2774 C 0.60919 0.24031 0.09741 0.0
C2775 C 0.59893 0.2491 0.10171 0.0
C2776 C 0.58676 0.24356 0.1061 0.0
C2777 C 0.58464 0.22971 0.10564 0.0
C2778 C 0.59521 0.28674 0.10819 0.0
C2779 C 0.59966 0.29209 0.09595 0.0
C2780 C 0.5954 0.27278 0.11034 0.0
C2781 C 0.60028 0.26397 0.10037 0.0
C2782 C 0.6053 0.26946 0.08843 0.0
C2783 C 0.60492 0.2833 0.08622 0.0
H2784 H 0.97347 0.78723 0.55678 0.0
H2785 H 0.93447 0.79145 0.57526 0.0
H2786 H 0.96991 0.76326 0.5546 0.0
H2787 H 0.93085 0.76725 0.57289 0.0
H2788 H 0.95397 0.72462 0.53761 0.0
H2789 H 0.95608 0.74862 0.54105 0.0
H2790 H 0.93855 0.74471 0.58046 0.0
H2791 H 0.93622 0.72049 0.57696 0.0
C2792 C 0.96411 0.78308 0.56041 0.0
C2793 C 0.95422 0.7914 0.56611 0.0
C2794 C 0.96203 0.76927 0.55907 0.0
C2795 C 0.95 0.76329 0.56338 0.0
C2796 C 0.94025 0.7715 0.56948 0.0
C2797 C 0.94232 0.78539 0.57081 0.0
C2798 C 0.95048 0.7288 0.54702 0.0
C2799 C 0.94502 0.72049 0.55705 0.0
C2800 C 0.95178 0.74262 0.54902 0.0
C2801 C 0.94769 0.74863 0.56112 0.0
C2802 C 0.94179 0.74044 0.57101 0.0
C2803 C 0.94049 0.72653 0.56901 0.0
H2804 H 0.22392 0.97549 0.55731 0.0
H2805 H 0.21982 0.93626 0.57531 0.0
H2806 H 0.24789 0.97193 0.55495 0.0
H2807 H 0.24397 0.93263 0.57273 0.0
H2808 H 0.29059 0.93757 0.57684 0.0
H2809 H 0.26639 0.94005 0.58036 0.0
H2810 H 0.26267 0.95844 0.54132 0.0
H2811 H 0.28666 0.95618 0.53788 0.0
C2812 C 0.2281 0.96608 0.56078 0.0
C2813 C 0.21982 0.95614 0.56643 0.0
C2814 C 0.2419 0.964 0.55934 0.0
C2815 C 0.2479 0.95191 0.56347 0.0
C2816 C 0.23972 0.94208 0.56947 0.0
C2817 C 0.22584 0.94415 0.57091 0.0
C2818 C 0.28459 0.94206 0.56897 0.0
C2819 C 0.29068 0.94677 0.55712 0.0
C2820 C 0.2707 0.94345 0.57098 0.0
C2821 C 0.26257 0.94962 0.56121 0.0
C2822 C 0.26862 0.95393 0.54921 0.0
C2823 C 0.28243 0.95254 0.5472 0.0
H2824 H 0.03878 0.22543 0.5579 0.0
H2825 H 0.07801 0.22115 0.57586 0.0
H2826 H 0.04256 0.24931 0.5552 0.0
H2827 H 0.08186 0.24526 0.57295 0.0
H2828 H 0.07663 0.29208 0.57673 0.0
H2829 H 0.07435 0.26789 0.58042 0.0
H2830 H 0.05633 0.26368 0.54126 0.0
H2831 H 0.0584 0.28767 0.53763 0.0
C2832 C 0.04824 0.22955 0.56128 0.0
C2833 C 0.05812 0.22124 0.56701 0.0
C2834 C 0.05045 0.2433 0.55964 0.0
C2835 C 0.0626 0.24923 0.56367 0.0
C2836 C 0.07237 0.24104 0.56976 0.0
C2837 C 0.07017 0.2272 0.57139 0.0
C2838 C 0.07228 0.28598 0.56886 0.0
C2839 C 0.06758 0.29193 0.55693 0.0
C2840 C 0.07101 0.27209 0.57097 0.0
C2841 C 0.06497 0.26384 0.56122 0.0
C2842 C 0.06074 0.26974 0.54913 0.0
C2843 C 0.06201 0.28355 0.54701 0.0
H2844 H 0.79082 0.06903 0.58281 0.0
H2845 H 0.79073 0.04772 0.54512 0.0
H2846 H 0.76642 0.07165 0.58134 0.0
H2847 H 0.76675 0.05095 0.5432 0.0
H2848 H 0.72281 0.04518 0.54833 0.0
H2849 H 0.7468 0.04316 0.55135 0.0
H2850 H 0.74763 0.08178 0.57113 0.0
H2851 H 0.72321 0.08338 0.56872 0.0
C2852 C 0.78561 0.06502 0.57416 0.0
C2853 C 0.79271 0.05798 0.56419 0.0
C2854 C 0.7716 0.06659 0.57325 0.0
C2855 C 0.76441 0.06134 0.56224 0.0
C2856 C 0.77171 0.05474 0.55209 0.0
C2857 C 0.78557 0.05296 0.55313 0.0
C2858 C 0.72808 0.05328 0.55331 0.0
C2859 C 0.72107 0.06451 0.55815 0.0
C2860 C 0.74195 0.05217 0.55498 0.0
C2861 C 0.74939 0.06242 0.56126 0.0
C2862 C 0.74233 0.07362 0.56631 0.0
C2863 C 0.72832 0.07459 0.56486 0.0
H2864 H 0.97382 0.22509 0.45511 0.0
H2865 H 0.9345 0.22094 0.43729 0.0
H2866 H 0.97019 0.24902 0.45765 0.0
H2867 H 0.93082 0.24509 0.44003 0.0
H2868 H 0.93631 0.29179 0.4358 0.0
H2869 H 0.93847 0.26756 0.43232 0.0
H2870 H 0.95658 0.26364 0.47147 0.0
H2871 H 0.95463 0.28767 0.47489 0.0
C2872 C 0.96436 0.22925 0.45173 0.0
C2873 C 0.95442 0.22097 0.44608 0.0
C2874 C 0.96226 0.24302 0.45327 0.0
C2875 C 0.95014 0.249 0.44922 0.0
C2876 C 0.94029 0.24083 0.44323 0.0
C2877 C 0.94239 0.22697 0.4417 0.0
C2878 C 0.94066 0.28574 0.44371 0.0
C2879 C 0.94541 0.29178 0.45558 0.0
C2880 C 0.94186 0.27183 0.44172 0.0
C2881 C 0.94788 0.26365 0.45153 0.0
C2882 C 0.95218 0.26965 0.46356 0.0
C2883 C 0.95098 0.28348 0.46555 0.0
H2884 H 0.72059 0.93635 0.435 0.0
H2885 H 0.72527 0.95406 0.47432 0.0
H2886 H 0.74474 0.93899 0.43106 0.0
H2887 H 0.74915 0.95653 0.47042 0.0
H2888 H 0.78709 0.97453 0.45384 0.0
H2889 H 0.76319 0.97069 0.45625 0.0
H2890 H 0.76757 0.93131 0.43873 0.0
H2891 H 0.79173 0.93519 0.43615 0.0
C2892 C 0.72673 0.94071 0.44284 0.0
C2893 C 0.72088 0.94511 0.45493 0.0
C2894 C 0.74059 0.94217 0.44059 0.0
C2895 C 0.74887 0.94814 0.45035 0.0
C2896 C 0.74305 0.95216 0.46255 0.0
C2897 C 0.7293 0.95067 0.46481 0.0
C2898 C 0.78305 0.96504 0.45044 0.0
C2899 C 0.79146 0.95513 0.44491 0.0
C2900 C 0.76929 0.96281 0.45189 0.0
C2901 C 0.76345 0.95061 0.44787 0.0
C2902 C 0.77173 0.94083 0.44192 0.0
C2903 C 0.78559 0.94305 0.44048 0.0
H2904 H 0.03762 0.78784 0.45452 0.0
H2905 H 0.07688 0.79185 0.43656 0.0
H2906 H 0.04115 0.76387 0.45696 0.0
H2907 H 0.08047 0.76768 0.43921 0.0
H2908 H 0.07546 0.72092 0.43576 0.0
H2909 H 0.07297 0.74506 0.43185 0.0
H2910 H 0.0548 0.74946 0.47092 0.0
H2911 H 0.05707 0.72553 0.47477 0.0
C2912 C 0.04702 0.78363 0.45105 0.0
C2913 C 0.057 0.79189 0.44543 0.0
C2914 C 0.04908 0.76984 0.45254 0.0
C2915 C 0.06118 0.76383 0.44848 0.0
C2916 C 0.07101 0.77196 0.44242 0.0
C2917 C 0.06896 0.78584 0.44093 0.0
C2918 C 0.07101 0.72706 0.44355 0.0
C2919 C 0.06636 0.72118 0.45554 0.0
C2920 C 0.06962 0.74091 0.44131 0.0
C2921 C 0.06351 0.74921 0.45098 0.0
C2922 C 0.05926 0.74337 0.46311 0.0
C2923 C 0.06066 0.72959 0.46535 0.0
H2924 H 0.21982 0.07628 0.43666 0.0
H2925 H 0.22374 0.03693 0.45445 0.0
H2926 H 0.24401 0.07972 0.43913 0.0
H2927 H 0.24775 0.0403 0.4567 0.0
H2928 H 0.29059 0.07449 0.43481 0.0
H2929 H 0.26636 0.07218 0.43137 0.0
H2930 H 0.26267 0.05362 0.47033 0.0
H2931 H 0.28668 0.05571 0.47369 0.0
C2932 C 0.22581 0.06832 0.441 0.0
C2933 C 0.21972 0.05636 0.44545 0.0
C2934 C 0.23971 0.07029 0.44237 0.0
C2935 C 0.24785 0.06036 0.44828 0.0
C2936 C 0.24179 0.0483 0.45238 0.0
C2937 C 0.22797 0.04633 0.45101 0.0
C2938 C 0.28459 0.06999 0.44268 0.0
C2939 C 0.29069 0.06518 0.45449 0.0
C2940 C 0.27068 0.0687 0.44071 0.0
C2941 C 0.26255 0.06254 0.45049 0.0
C2942 C 0.26862 0.05813 0.46244 0.0
C2943 C 0.28245 0.05942 0.4644 0.0
H2944 H 0.53787 0.95606 0.72527 0.0
H2945 H 0.57657 0.93706 0.72059 0.0
H2946 H 0.54174 0.95815 0.74921 0.0
H2947 H 0.58051 0.93937 0.74474 0.0
H2948 H 0.55827 0.97484 0.78771 0.0
H2949 H 0.55581 0.97148 0.76373 0.0
H2950 H 0.57312 0.93193 0.76732 0.0
H2951 H 0.5758 0.93536 0.79152 0.0
C2952 C 0.54723 0.9523 0.72931 0.0
C2953 C 0.55694 0.94648 0.72087 0.0
C2954 C 0.54948 0.95359 0.7431 0.0
C2955 C 0.56153 0.94913 0.74893 0.0
C2956 C 0.5711 0.9429 0.74061 0.0
C2957 C 0.56885 0.94161 0.72674 0.0
C2958 C 0.56163 0.96542 0.78346 0.0
C2959 C 0.56714 0.95533 0.79167 0.0
C2960 C 0.56013 0.96346 0.76965 0.0
C2961 C 0.56406 0.95134 0.76357 0.0
C2962 C 0.57001 0.9414 0.77165 0.0
C2963 C 0.57151 0.94336 0.78555 0.0
H2964 H 0.0755 0.57671 0.72026 0.0
H2965 H 0.0571 0.5377 0.72471 0.0
H2966 H 0.07312 0.5805 0.74442 0.0
H2967 H 0.05491 0.54143 0.74867 0.0
H2968 H 0.03794 0.55792 0.78725 0.0
H2969 H 0.04138 0.55539 0.76329 0.0
H2970 H 0.08081 0.57294 0.76694 0.0
H2971 H 0.07732 0.57566 0.79112 0.0
C2972 C 0.07105 0.5689 0.72636 0.0
C2973 C 0.0664 0.55693 0.72043 0.0
C2974 C 0.06973 0.57106 0.74024 0.0
C2975 C 0.06367 0.56135 0.74851 0.0
C2976 C 0.05937 0.54927 0.74261 0.0
C2977 C 0.06071 0.54709 0.72881 0.0
C2978 C 0.04736 0.56131 0.78302 0.0
C2979 C 0.05739 0.56691 0.79124 0.0
C2980 C 0.04936 0.55977 0.76922 0.0
C2981 C 0.06145 0.56378 0.76316 0.0
C2982 C 0.07136 0.56977 0.77126 0.0
C2983 C 0.06936 0.5713 0.78514 0.0
H2984 H 0.44429 0.0827 0.72121 0.0
H2985 H 0.46713 0.04592 0.7212 0.0
H2986 H 0.44172 0.08107 0.74558 0.0
H2987 H 0.46395 0.0438 0.74518 0.0
H2988 H 0.469 0.04883 0.78928 0.0
H2989 H 0.47113 0.05196 0.7653 0.0
H2990 H 0.43194 0.07057 0.76422 0.0
H2991 H 0.43024 0.0681 0.78861 0.0
C2992 C 0.44865 0.07421 0.7264 0.0
C2993 C 0.45608 0.06455 0.71926 0.0
C2994 C 0.44711 0.0732 0.74039 0.0
C2995 C 0.45277 0.06238 0.74757 0.0
C2996 C 0.45981 0.05254 0.74025 0.0
C2997 C 0.46157 0.05369 0.72638 0.0
C2998 C 0.46081 0.05359 0.78395 0.0
C2999 C 0.44939 0.05809 0.79088 0.0
C3000 C 0.46197 0.05531 0.77008 0.0
C3001 C 0.4516 0.0613 0.76257 0.0
C3002 C 0.44021 0.066 0.76956 0.0
C3003 C 0.43917 0.06452 0.78356 0.0
H3004 H 0.95555 0.47541 0.72351 0.0
H3005 H 0.93626 0.43675 0.71985 0.0
H3006 H 0.95764 0.47213 0.74757 0.0
H3007 H 0.93856 0.4334 0.74405 0.0
H3008 H 0.9741 0.45572 0.7866 0.0
H3009 H 0.9707 0.45834 0.76263 0.0
H3010 H 0.93101 0.44139 0.76627 0.0
H3011 H 0.93447 0.43856 0.79042 0.0
C3012 C 0.95173 0.46619 0.72781 0.0
C3013 C 0.94581 0.45632 0.71963 0.0
C3014 C 0.95301 0.46427 0.74165 0.0
C3015 C 0.94842 0.45242 0.74778 0.0
C3016 C 0.94216 0.44267 0.7397 0.0
C3017 C 0.94089 0.44459 0.72579 0.0
C3018 C 0.96462 0.45251 0.78236 0.0
C3019 C 0.95453 0.44699 0.79056 0.0
C3020 C 0.96264 0.4541 0.76856 0.0
C3021 C 0.95052 0.45022 0.76248 0.0
C3022 C 0.9405 0.44443 0.77059 0.0
C3023 C 0.94247 0.44286 0.78446 0.0
H3024 H 0.55702 0.03807 0.2252 0.0
H3025 H 0.57563 0.077 0.22095 0.0
H3026 H 0.55475 0.04174 0.24916 0.0
H3027 H 0.57315 0.08074 0.24511 0.0
H3028 H 0.57697 0.07556 0.29189 0.0
H3029 H 0.58058 0.07312 0.2677 0.0
H3030 H 0.54114 0.05569 0.26365 0.0
H3031 H 0.53759 0.05792 0.28763 0.0
C3032 C 0.56066 0.04743 0.22935 0.0
C3033 C 0.56642 0.05727 0.22102 0.0
C3034 C 0.55927 0.04957 0.24314 0.0
C3035 C 0.56357 0.06162 0.24909 0.0
C3036 C 0.56975 0.07132 0.24088 0.0
C3037 C 0.57114 0.06919 0.22701 0.0
C3038 C 0.56903 0.0713 0.28582 0.0
C3039 C 0.55703 0.06682 0.29181 0.0
C3040 C 0.57109 0.06993 0.27193 0.0
C3041 C 0.56123 0.06402 0.26372 0.0
C3042 C 0.54909 0.05999 0.26967 0.0
C3043 C 0.54702 0.06136 0.28348 0.0
H3044 H 0.97567 0.55958 0.22423 0.0
H3045 H 0.93553 0.57531 0.21956 0.0
H3046 H 0.97206 0.55739 0.2482 0.0
H3047 H 0.93187 0.57292 0.24375 0.0
H3048 H 0.93621 0.5772 0.29057 0.0
H3049 H 0.93888 0.58107 0.26642 0.0
H3050 H 0.95891 0.54285 0.26259 0.0
H3051 H 0.95643 0.53905 0.28648 0.0
C3052 C 0.96605 0.5626 0.22828 0.0
C3053 C 0.95585 0.56751 0.21983 0.0
C3054 C 0.96396 0.56127 0.24209 0.0
C3055 C 0.9516 0.56478 0.24793 0.0
C3056 C 0.94153 0.57014 0.2396 0.0
C3057 C 0.94362 0.57147 0.22571 0.0
C3058 C 0.94113 0.5696 0.28456 0.0
C3059 C 0.9462 0.55786 0.29058 0.0
C3060 C 0.94262 0.57181 0.2707 0.0
C3061 C 0.94927 0.56236 0.26256 0.0
C3062 C 0.954 0.5505 0.26856 0.0
C3063 C 0.9525 0.54828 0.28232 0.0
H3064 H 0.4548 0.97448 0.22532 0.0
H3065 H 0.4367 0.93532 0.22099 0.0
H3066 H 0.45734 0.97073 0.24923 0.0
H3067 H 0.43943 0.9315 0.24511 0.0
H3068 H 0.43564 0.93613 0.29175 0.0
H3069 H 0.43187 0.93901 0.26765 0.0
H3070 H 0.4711 0.95694 0.26373 0.0
H3071 H 0.47482 0.95426 0.28765 0.0
C3072 C 0.45135 0.96504 0.22943 0.0
C3073 C 0.44563 0.95517 0.2211 0.0
C3074 C 0.45289 0.96286 0.2432 0.0
C3075 C 0.44876 0.95074 0.24912 0.0
C3076 C 0.44269 0.94097 0.2409 0.0
C3077 C 0.44116 0.94315 0.22705 0.0
C3078 C 0.44348 0.94065 0.28574 0.0
C3079 C 0.4555 0.94506 0.29175 0.0
C3080 C 0.44134 0.94225 0.2719 0.0
C3081 C 0.45112 0.94834 0.26374 0.0
C3082 C 0.46322 0.95246 0.26972 0.0
C3083 C 0.46538 0.95084 0.28349 0.0
H3084 H 0.07583 0.43523 0.29096 0.0
H3085 H 0.05608 0.47364 0.28701 0.0
H3086 H 0.07327 0.43153 0.26679 0.0
H3087 H 0.05373 0.47002 0.26307 0.0
H3088 H 0.0369 0.45373 0.22455 0.0
H3089 H 0.04048 0.45587 0.24853 0.0
H3090 H 0.08031 0.43939 0.2442 0.0
H3091 H 0.07665 0.43703 0.22001 0.0
C3092 C 0.07106 0.44294 0.28497 0.0
C3093 C 0.06607 0.4547 0.29105 0.0
C3094 C 0.06962 0.44082 0.27109 0.0
C3095 C 0.06311 0.45038 0.26297 0.0
C3096 C 0.05851 0.46228 0.26902 0.0
C3097 C 0.05995 0.4644 0.2828 0.0
C3098 C 0.04643 0.45049 0.22864 0.0
C3099 C 0.05652 0.44532 0.22022 0.0
C3100 C 0.04851 0.4518 0.24244 0.0
C3101 C 0.06077 0.44802 0.24833 0.0
C3102 C 0.07073 0.44239 0.24003 0.0
C3103 C 0.06864 0.44107 0.22614 0.0
H3104 H 0.72648 0.53856 0.95591 0.0
H3105 H 0.72232 0.57735 0.93695 0.0
H3106 H 0.75036 0.54234 0.95852 0.0
H3107 H 0.74644 0.58118 0.93976 0.0
H3108 H 0.79318 0.57584 0.9361 0.0
H3109 H 0.76901 0.57338 0.93245 0.0
H3110 H 0.76484 0.55639 0.97207 0.0
H3111 H 0.78881 0.55865 0.97567 0.0
C3112 C 0.73062 0.54793 0.95229 0.0
C3113 C 0.72235 0.55769 0.9463 0.0
C3114 C 0.74438 0.55013 0.95387 0.0
C3115 C 0.75035 0.56215 0.94953 0.0
C3116 C 0.74219 0.57179 0.9432 0.0
C3117 C 0.72834 0.5696 0.94163 0.0
C3118 C 0.78709 0.57166 0.94407 0.0
C3119 C 0.79305 0.56733 0.95614 0.0
C3120 C 0.77321 0.57029 0.94198 0.0
C3121 C 0.76497 0.56452 0.9519 0.0
C3122 C 0.77089 0.56061 0.96409 0.0
C3123 C 0.78469 0.56198 0.96618 0.0
H3124 H 0.78741 0.45612 0.03752 0.0
H3125 H 0.79151 0.43759 0.07651 0.0
H3126 H 0.76342 0.45823 0.041 0.0
H3127 H 0.76732 0.43993 0.08007 0.0
H3128 H 0.7208 0.43572 0.0751 0.0
H3129 H 0.74498 0.43232 0.07252 0.0
H3130 H 0.7485 0.47159 0.05457 0.0
H3131 H 0.72449 0.47492 0.05693 0.0
C3132 C 0.78323 0.45247 0.04686 0.0
C3133 C 0.79152 0.44676 0.05677 0.0
C3134 C 0.76941 0.45378 0.04889 0.0
C3135 C 0.7634 0.44944 0.0609 0.0
C3136 C 0.77158 0.44335 0.07068 0.0
C3137 C 0.78548 0.44205 0.06865 0.0
C3138 C 0.72674 0.44366 0.07066 0.0
C3139 C 0.72059 0.45556 0.06613 0.0
C3140 C 0.74063 0.44172 0.06922 0.0
C3141 C 0.74871 0.45161 0.06318 0.0
C3142 C 0.74259 0.46362 0.05899 0.0
C3143 C 0.72877 0.46556 0.06044 0.0
H3144 H 0.53815 0.72499 0.0561 0.0
H3145 H 0.57691 0.72108 0.07515 0.0
H3146 H 0.54169 0.74897 0.05375 0.0
H3147 H 0.58052 0.74524 0.07257 0.0
H3148 H 0.57535 0.79183 0.07647 0.0
H3149 H 0.57286 0.76764 0.07995 0.0
H3150 H 0.5554 0.76383 0.04049 0.0
H3151 H 0.55766 0.78782 0.03709 0.0
C3152 C 0.54746 0.72921 0.0598 0.0
C3153 C 0.55727 0.72098 0.06574 0.0
C3154 C 0.54952 0.74302 0.05836 0.0
C3155 C 0.56147 0.74908 0.0628 0.0
C3156 C 0.57117 0.74094 0.06907 0.0
C3157 C 0.56911 0.72706 0.07051 0.0
C3158 C 0.57106 0.78582 0.0685 0.0
C3159 C 0.5666 0.79189 0.05654 0.0
C3160 C 0.56967 0.77192 0.07049 0.0
C3161 C 0.56376 0.76376 0.06058 0.0
C3162 C 0.55971 0.7698 0.04849 0.0
C3163 C 0.56109 0.78362 0.0465 0.0
H3164 H 0.29219 0.57755 0.07664 0.0
H3165 H 0.28761 0.53824 0.0589 0.0
H3166 H 0.26804 0.58139 0.07416 0.0
H3167 H 0.26368 0.54203 0.0566 0.0
H3168 H 0.22115 0.57657 0.07795 0.0
H3169 H 0.24528 0.57385 0.08182 0.0
H3170 H 0.24951 0.55609 0.04254 0.0
H3171 H 0.22562 0.55863 0.03871 0.0
C3172 C 0.28607 0.56968 0.07234 0.0
C3173 C 0.29196 0.55762 0.06786 0.0
C3174 C 0.2722 0.57187 0.07096 0.0
C3175 C 0.26392 0.5621 0.065 0.0
C3176 C 0.26977 0.54991 0.06095 0.0
C3177 C 0.28354 0.54771 0.06235 0.0
C3178 C 0.22724 0.57215 0.07011 0.0
C3179 C 0.22133 0.56771 0.05806 0.0
C3180 C 0.2411 0.57063 0.07232 0.0
C3181 C 0.24933 0.56457 0.06257 0.0
C3182 C 0.24345 0.56052 0.0504 0.0
C3183 C 0.2297 0.56206 0.04818 0.0
H3184 H 0.43612 0.22093 0.07704 0.0
H3185 H 0.4534 0.2253 0.03751 0.0
H3186 H 0.43851 0.24513 0.08067 0.0
H3187 H 0.45557 0.24928 0.04107 0.0
H3188 H 0.47312 0.28781 0.05668 0.0
H3189 H 0.46954 0.26384 0.05448 0.0
H3190 H 0.43079 0.26772 0.07342 0.0
H3191 H 0.43444 0.29192 0.07584 0.0
C3192 C 0.4403 0.22702 0.06907 0.0
C3193 C 0.44469 0.22105 0.05703 0.0
C3194 C 0.44163 0.24092 0.07115 0.0
C3195 C 0.44743 0.24917 0.06125 0.0
C3196 C 0.45137 0.24323 0.04906 0.0
C3197 C 0.45004 0.22942 0.04699 0.0
C3198 C 0.46383 0.28363 0.06045 0.0
C3199 C 0.45403 0.29193 0.06634 0.0
C3200 C 0.46174 0.26983 0.0591 0.0
C3201 C 0.44978 0.26382 0.06357 0.0
C3202 C 0.44013 0.27199 0.06988 0.0
C3203 C 0.44222 0.28589 0.07124 0.0
H3204 H 0.22524 0.44173 0.97512 0.0
H3205 H 0.21769 0.44473 0.93255 0.0
H3206 H 0.2494 0.44385 0.97095 0.0
H3207 H 0.24188 0.4472 0.92851 0.0
H3208 H 0.28363 0.47407 0.94238 0.0
H3209 H 0.25954 0.46955 0.94459 0.0
H3210 H 0.26779 0.42738 0.9494 0.0
H3211 H 0.29192 0.43176 0.94684 0.0
C3212 C 0.22873 0.44276 0.96488 0.0
C3213 C 0.21953 0.44306 0.95417 0.0
C3214 C 0.24254 0.44394 0.96252 0.0
C3215 C 0.24741 0.44568 0.94943 0.0
C3216 C 0.23831 0.4458 0.93868 0.0
C3217 C 0.22451 0.44435 0.94101 0.0
C3218 C 0.28032 0.46382 0.94381 0.0
C3219 C 0.2897 0.45328 0.94446 0.0
C3220 C 0.26655 0.46125 0.94502 0.0
C3221 C 0.2619 0.44814 0.94715 0.0
C3222 C 0.27119 0.43756 0.94771 0.0
C3223 C 0.28496 0.44009 0.94622 0.0
H3224 H 0.56903 0.29065 0.92921 0.0
H3225 H 0.54772 0.29048 0.9669 0.0
H3226 H 0.57156 0.26624 0.93057 0.0
H3227 H 0.55082 0.26647 0.96869 0.0
H3228 H 0.5454 0.22249 0.9636 0.0
H3229 H 0.54311 0.24646 0.9604 0.0
H3230 H 0.58186 0.2476 0.94091 0.0
H3231 H 0.58373 0.22323 0.9435 0.0
C3232 C 0.56499 0.28542 0.93783 0.0
C3233 C 0.55801 0.29251 0.94785 0.0
C3234 C 0.5665 0.27141 0.93867 0.0
C3235 C 0.56125 0.26419 0.94966 0.0
C3236 C 0.55464 0.27146 0.95983 0.0
C3237 C 0.55292 0.28533 0.95886 0.0
C3238 C 0.55344 0.22783 0.95861 0.0
C3239 C 0.56481 0.22093 0.95392 0.0
C3240 C 0.55219 0.24168 0.95685 0.0
C3241 C 0.56241 0.24919 0.95063 0.0
C3242 C 0.57371 0.24224 0.94568 0.0
C3243 C 0.57484 0.22825 0.94722 0.0
H3244 H 0.45516 0.78668 0.97339 0.0
H3245 H 0.4365 0.79117 0.9345 0.0
H3246 H 0.45735 0.76274 0.96962 0.0
H3247 H 0.43889 0.767 0.93067 0.0
H3248 H 0.47449 0.72437 0.95331 0.0
H3249 H 0.47096 0.74835 0.95554 0.0
H3250 H 0.43146 0.74431 0.93825 0.0
H3251 H 0.43505 0.7201 0.93582 0.0
C3252 C 0.45149 0.78259 0.96401 0.0
C3253 C 0.44575 0.79099 0.95421 0.0
C3254 C 0.45283 0.7688 0.96182 0.0
C3255 C 0.4485 0.76291 0.94975 0.0
C3256 C 0.44232 0.77118 0.94009 0.0
C3257 C 0.44099 0.78506 0.94229 0.0
C3258 C 0.46504 0.72852 0.9499 0.0
C3259 C 0.45501 0.72018 0.94449 0.0
C3260 C 0.46299 0.74232 0.95126 0.0
C3261 C 0.45083 0.74828 0.94729 0.0
C3262 C 0.44095 0.74007 0.9414 0.0
C3263 C 0.44301 0.72617 0.94004 0.0
H3264 H 0.05054 0.17275 0.42628 0.0
H3265 H 0.04502 0.21496 0.41866 0.0
H3266 H 0.02677 0.1689 0.42281 0.0
H3267 H 0.02135 0.21111 0.414 0.0
H3268 H 0.97737 0.20339 0.42489 0.0
H3269 H 1.00129 0.2077 0.42362 0.0
H3270 H 0.00782 0.16666 0.41085 0.0
H3271 H 0.9839 0.16225 0.41352 0.0
C3272 C 0.04427 0.18116 0.42344 0.0
C3273 C 0.04966 0.19416 0.42282 0.0
C3274 C 0.03054 0.17897 0.42134 0.0
C3275 C 0.0218 0.18968 0.41818 0.0
C3276 C 0.02746 0.20259 0.41681 0.0
C3277 C 0.04113 0.20483 0.41932 0.0
C3278 C 0.98394 0.19539 0.42161 0.0
C3279 C 0.97881 0.18251 0.41928 0.0
C3280 C 0.99776 0.19784 0.42078 0.0
C3281 C 0.00684 0.18752 0.41731 0.0
C3282 C 1.00141 0.17484 0.414 0.0
C3283 C 0.98762 0.17232 0.41523 0.0
H3284 H 0.83899 0.05175 0.42774 0.0
H3285 H 0.79763 0.04572 0.41668 0.0
H3286 H 0.84337 0.02799 0.4247 0.0
H3287 H 0.80211 0.02207 0.41247 0.0
H3288 H 0.80951 0.97802 0.42339 0.0
H3289 H 0.805 1.00194 0.42215 0.0
H3290 H 0.84684 0.00914 0.41288 0.0
H3291 H 0.85133 0.98523 0.41548 0.0
C3292 C 0.83091 0.04537 0.42426 0.0
C3293 C 0.81795 0.05062 0.42252 0.0
C3294 C 0.83342 0.03164 0.4224 0.0
C3295 C 0.82312 0.02276 0.41838 0.0
C3296 C 0.81029 0.02828 0.41596 0.0
C3297 C 0.80771 0.04194 0.41821 0.0
C3298 C 0.81766 0.98475 0.42085 0.0
C3299 C 0.83075 0.9798 0.41946 0.0
C3300 C 0.8151 0.99857 0.42006 0.0
C3301 C 0.82555 0.00783 0.41757 0.0
C3302 C 0.83852 1.0026 0.41525 0.0
C3303 C 0.84111 0.98881 0.41645 0.0
H3304 H 0.95872 0.83973 0.41784 0.0
H3305 H 0.96891 0.79839 0.42596 0.0
H3306 H 0.98248 0.84486 0.4145 0.0
H3307 H 0.99261 0.80355 0.42255 0.0
H3308 H 0.03485 0.81626 0.40922 0.0
H3309 H 0.01076 0.8116 0.40622 0.0
H3310 H 1.00118 0.84549 0.43146 0.0
H3311 H 0.025 0.84993 0.43458 0.0
C3312 C 0.96596 0.83167 0.41862 0.0
C3313 C 0.96186 0.81867 0.4223 0.0
C3314 C 0.9796 0.83463 0.41677 0.0
C3315 C 0.98947 0.82464 0.41834 0.0
C3316 C 0.98529 0.81146 0.42117 0.0
C3317 C 0.97168 0.80853 0.4232 0.0
C3318 C 0.02755 0.82285 0.41385 0.0
C3319 C 0.03179 0.83347 0.42211 0.0
C3320 C 0.01378 0.82014 0.41223 0.0
C3321 C 1.00403 0.82819 0.4186 0.0
C3322 C 0.00837 0.83919 0.42628 0.0
C3323 C 0.02204 0.8417 0.42811 0.0
H3324 H 0.21395 0.96945 0.42658 0.0
H3325 H 0.17323 0.95887 0.4162 0.0
H3326 H 0.20889 0.99303 0.4225 0.0
H3327 H 0.16821 0.98252 0.41205 0.0
H3328 H 0.16133 0.02516 0.43093 0.0
H3329 H 0.16599 1.00139 0.428 0.0
H3330 H 0.20217 0.01113 0.40626 0.0
H3331 H 0.19734 0.0352 0.40916 0.0
C3332 C 0.20397 0.9721 0.42318 0.0
C3333 C 0.19396 0.96219 0.42188 0.0
C3334 C 0.20111 0.98565 0.42074 0.0
C3335 C 0.18811 0.98972 0.41705 0.0
C3336 C 0.1783 0.97975 0.41502 0.0
C3337 C 0.1812 0.96617 0.41734 0.0
C3338 C 0.17011 0.02224 0.42522 0.0
C3339 C 0.17893 0.03204 0.42023 0.0
C3340 C 0.17276 0.00859 0.42349 0.0
C3341 C 0.18447 1.00429 0.41691 0.0
C3342 C 0.19308 0.0141 0.41142 0.0
C3343 C 0.19027 0.02787 0.41296 0.0
H3344 H 0.97666 0.81518 0.60215 0.0
H3345 H 0.98621 0.84975 0.57794 0.0
H3346 H 1.0008 0.81064 0.605 0.0
H3347 H 0.01005 0.84539 0.58085 0.0
H3348 H 0.05257 0.83966 0.59418 0.0
H3349 H 0.02876 0.84453 0.59734 0.0
H3350 H 0.01912 0.80316 0.58892 0.0
H3351 H 0.04291 0.79825 0.58577 0.0
C3352 C 0.9839 0.82199 0.59776 0.0
C3353 C 0.97957 0.83284 0.58987 0.0
C3354 C 0.9977 0.81934 0.59927 0.0
C3355 C 0.00738 0.82766 0.59315 0.0
C3356 C 1.00294 0.83887 0.58584 0.0
C3357 C 0.98925 0.84135 0.58414 0.0
C3358 C 0.04542 0.83153 0.59322 0.0
C3359 C 0.04972 0.81858 0.58957 0.0
C3360 C 0.03174 0.83435 0.59498 0.0
C3361 C 0.022 0.82426 0.5933 0.0
C3362 C 0.02634 0.81115 0.5904 0.0
C3363 C 0.04001 0.80836 0.58849 0.0
H3364 H 0.21444 0.04327 0.58527 0.0
H3365 H 0.1738 0.05399 0.59586 0.0
H3366 H 0.20932 0.0197 0.58937 0.0
H3367 H 0.16873 0.03036 0.60001 0.0
H3368 H 0.16163 0.98775 0.58113 0.0
H3369 H 0.16639 0.01151 0.58403 0.0
H3370 H 0.20259 1.00162 0.60567 0.0
H3371 H 0.19766 0.97757 0.6028 0.0
C3372 C 0.20447 0.04065 0.58873 0.0
C3373 C 0.1945 0.05059 0.59008 0.0
C3374 C 0.20157 0.0271 0.59117 0.0
C3375 C 0.18858 0.02308 0.59492 0.0
C3376 C 0.17881 0.03308 0.597 0.0
C3377 C 0.18174 0.04666 0.59468 0.0
C3378 C 0.17044 0.99064 0.58681 0.0
C3379 C 0.17924 0.98081 0.59179 0.0
C3380 C 0.17315 1.00428 0.58852 0.0
C3381 C 0.18489 0.00853 0.59507 0.0
C3382 C 0.19348 0.99869 0.60053 0.0
C3383 C 0.19061 0.98493 0.59901 0.0
H3384 H 0.03475 0.20343 0.5881 0.0
H3385 H 0.02865 0.16228 0.59965 0.0
H3386 H 0.01081 0.20758 0.58962 0.0
H3387 H 1.00471 0.16652 0.6025 0.0
H3388 H 0.96174 0.17248 0.58737 0.0
H3389 H 0.98556 0.16868 0.59073 0.0
H3390 H 0.99089 0.21087 0.59964 0.0
H3391 H 0.96719 0.21467 0.59513 0.0
C3392 C 0.02827 0.19539 0.59148 0.0
C3393 C 0.03353 0.18256 0.59381 0.0
C3394 C 0.01444 0.19775 0.59245 0.0
C3395 C 1.00548 0.18737 0.59605 0.0
C3396 C 0.01103 0.17474 0.5993 0.0
C3397 C 0.02484 0.17231 0.59795 0.0
C3398 C 0.968 0.18089 0.59024 0.0
C3399 C 0.96259 0.19388 0.59092 0.0
C3400 C 0.98176 0.17873 0.59226 0.0
C3401 C 0.99049 0.18946 0.59537 0.0
C3402 C 0.98479 0.20234 0.59686 0.0
C3403 C 0.9711 0.20455 0.59444 0.0
H3404 H 0.81614 0.03467 0.60211 0.0
H3405 H 0.84967 0.02455 0.57668 0.0
H3406 H 0.81116 0.01062 0.6049 0.0
H3407 H 0.84485 1.0008 0.5795 0.0
H3408 H 0.83859 0.95827 0.59245 0.0
H3409 H 0.84413 0.98193 0.5957 0.0
H3410 H 0.8027 0.99264 0.58909 0.0
H3411 H 0.79711 0.96902 0.58588 0.0
C3412 C 0.82263 0.02732 0.59741 0.0
C3413 C 0.83331 0.03148 0.5892 0.0
C3414 C 0.81972 0.01357 0.5989 0.0
C3415 C 0.82761 1.00376 0.59242 0.0
C3416 C 0.83866 0.00801 0.58477 0.0
C3417 C 0.84139 0.02166 0.58311 0.0
C3418 C 0.8306 0.96562 0.59192 0.0
C3419 C 0.81742 0.96168 0.58875 0.0
C3420 C 0.8338 0.97921 0.59373 0.0
C3421 C 0.82388 0.98922 0.59257 0.0
C3422 C 0.81057 0.98522 0.59016 0.0
C3423 C 0.8074 0.97165 0.58821 0.0
H3424 H 0.42533 0.05172 0.17239 0.0
H3425 H 0.41793 0.04628 0.21464 0.0
H3426 H 0.42203 0.02788 0.16863 0.0
H3427 H 0.41347 0.02256 0.21089 0.0
H3428 H 0.4249 0.97869 0.20335 0.0
H3429 H 0.42347 1.00264 0.20751 0.0
H3430 H 0.41018 0.00876 0.16658 0.0
H3431 H 0.41296 0.98481 0.16231 0.0
C3432 C 0.42257 0.04545 0.18083 0.0
C3433 C 0.42198 0.05088 0.19381 0.0
C3434 C 0.42058 0.03168 0.17869 0.0
C3435 C 0.41756 0.02296 0.18945 0.0
C3436 C 0.41618 0.02866 0.20234 0.0
C3437 C 0.41858 0.04236 0.20452 0.0
C3438 C 0.42147 0.98518 0.19534 0.0
C3439 C 0.41901 0.97992 0.18253 0.0
C3440 C 0.42054 0.99901 0.19771 0.0
C3441 C 0.41685 0.00798 0.18737 0.0
C3442 C 0.41347 1.00243 0.17476 0.0
C3443 C 0.41478 0.98862 0.17233 0.0
H3444 H 0.0243 0.43466 0.16204 0.0
H3445 H 0.0339 0.40974 0.19609 0.0
H3446 H 1.00048 0.43202 0.16662 0.0
H3447 H 0.00978 0.40717 0.20086 0.0
H3448 H 0.96828 0.42699 0.2142 0.0
H3449 H 0.9919 0.42338 0.20886 0.0
H3450 H 0.98143 0.41593 0.16751 0.0
H3451 H 0.95776 0.41955 0.17282 0.0
C3452 C 0.02128 0.42836 0.17037 0.0
C3453 C 0.03097 0.42236 0.17867 0.0
C3454 C 0.00759 0.42681 0.17297 0.0
C3455 C 1.00317 0.41939 0.18412 0.0
C3456 C 0.01286 0.41299 0.19221 0.0
C3457 C 0.02665 0.41435 0.18943 0.0
C3458 C 0.97095 0.42437 0.204 0.0
C3459 C 0.96105 0.42371 0.19392 0.0
C3460 C 0.98452 0.4222 0.20096 0.0
C3461 C 0.9886 0.41945 0.18774 0.0
C3462 C 0.97865 0.41816 0.17778 0.0
C3463 C 0.96506 0.42018 0.18084 0.0
H3464 H 0.59402 0.95872 0.17298 0.0
H3465 H 0.58577 0.96874 0.21433 0.0
H3466 H 0.5976 0.98247 0.16801 0.0
H3467 H 0.58938 0.99244 0.20933 0.0
H3468 H 0.6027 0.03474 0.19698 0.0
H3469 H 0.60565 0.01062 0.20154 0.0
H3470 H 0.58089 1.00123 0.16727 0.0
H3471 H 0.57785 0.02506 0.16291 0.0
C3472 C 0.59326 0.96592 0.18108 0.0
C3473 C 0.58947 0.96177 0.19403 0.0
C3474 C 0.59525 0.97956 0.17821 0.0
C3475 C 0.59368 0.98939 0.18825 0.0
C3476 C 0.59076 0.98516 0.20138 0.0
C3477 C 0.58861 0.97154 0.20422 0.0
C3478 C 0.59819 0.02748 0.19028 0.0
C3479 C 0.59008 0.03176 0.17957 0.0
C3480 C 0.59977 0.01369 0.19294 0.0
C3481 C 0.59351 1.00398 0.18476 0.0
C3482 C 0.58599 0.00837 0.17368 0.0
C3483 C 0.58421 0.02206 0.1712 0.0
H3484 H 0.05377 0.59594 0.17358 0.0
H3485 H 0.04297 0.58536 0.2142 0.0
H3486 H 0.03014 0.59985 0.16838 0.0
H3487 H 0.01939 0.58924 0.20895 0.0
H3488 H 0.97729 0.60272 0.19697 0.0
H3489 H 1.00131 0.60563 0.20202 0.0
H3490 H 0.01139 0.58359 0.1661 0.0
H3491 H 0.98766 0.58062 0.16124 0.0
C3492 C 0.04642 0.5947 0.18149 0.0
C3493 C 0.05033 0.59018 0.19428 0.0
C3494 C 0.03284 0.59689 0.17848 0.0
C3495 C 0.02283 0.59476 0.18822 0.0
C3496 C 0.02681 0.59107 0.20124 0.0
C3497 C 0.04037 0.58875 0.20421 0.0
C3498 C 0.98469 0.59885 0.19001 0.0
C3499 C 0.98063 0.5915 0.17869 0.0
C3500 C 0.99842 0.6004 0.19294 0.0
C3501 C 0.0083 0.59484 0.18446 0.0
C3502 C 1.00413 0.58815 0.17277 0.0
C3503 C 0.9905 0.58641 0.17 0.0
H3504 H 0.4273 0.96784 0.79697 0.0
H3505 H 0.4198 0.95842 0.83861 0.0
H3506 H 0.42433 0.99168 0.80184 0.0
H3507 H 0.4169 0.98229 0.84343 0.0
H3508 H 0.43695 0.02475 0.84776 0.0
H3509 H 0.43397 1.00089 0.84348 0.0
H3510 H 0.40817 0.01007 0.80993 0.0
H3511 H 0.41105 0.03422 0.81441 0.0
C3512 C 0.4248 0.97081 0.80713 0.0
C3513 C 0.42392 0.96115 0.81741 0.0
C3514 C 0.42301 0.9845 0.80989 0.0
C3515 C 0.42046 0.98892 0.82304 0.0
C3516 C 0.41896 0.97923 0.83321 0.0
C3517 C 0.42057 0.96552 0.83042 0.0
C3518 C 0.43042 0.0217 0.83962 0.0
C3519 C 0.42421 0.03136 0.83144 0.0
C3520 C 0.42866 0.008 0.8372 0.0
C3521 C 0.42082 1.00354 0.82637 0.0
C3522 C 0.4143 0.0132 0.81835 0.0
C3523 C 0.41585 0.027 0.82095 0.0
H3524 H 0.04415 0.41722 0.79708 0.0
H3525 H 0.04913 0.42489 0.83934 0.0
H3526 H 0.02044 0.41255 0.80063 0.0
H3527 H 0.0253 0.4214 0.84289 0.0
H3528 H 0.9823 0.41269 0.84897 0.0
H3529 H 0.00621 0.40958 0.84485 0.0
H3530 H 1.00041 0.4224 0.80373 0.0
H3531 H 0.97646 0.42414 0.80776 0.0
C3532 C 0.04013 0.41786 0.80716 0.0
C3533 C 0.04851 0.42141 0.81793 0.0
C3534 C 0.02644 0.41535 0.80922 0.0
C3535 C 0.0206 0.41677 0.82205 0.0
C3536 C 0.0292 0.41991 0.83287 0.0
C3537 C 0.04297 0.42201 0.83086 0.0
C3538 C 0.98616 0.41428 0.83893 0.0
C3539 C 0.97755 0.41848 0.82864 0.0
C3540 C 0.99996 0.4128 0.83658 0.0
C3541 C 1.0056 0.41603 0.82399 0.0
C3542 C 0.99671 0.41961 0.81354 0.0
C3543 C 0.98287 0.42069 0.81582 0.0
H3544 H 0.59421 0.05369 0.84026 0.0
H3545 H 0.58625 0.04392 0.79879 0.0
H3546 H 0.59751 0.02988 0.84517 0.0
H3547 H 0.58962 0.02016 0.80373 0.0
H3548 H 0.60324 0.97784 0.81607 0.0
H3549 H 0.60601 1.00199 0.81162 0.0
H3550 H 0.58069 0.01106 0.84557 0.0
H3551 H 0.57781 0.98718 0.84982 0.0
C3552 C 0.59344 0.04653 0.83212 0.0
C3553 C 0.58984 0.05077 0.81915 0.0
C3554 C 0.59527 0.03286 0.83496 0.0
C3555 C 0.59375 0.02309 0.82486 0.0
C3556 C 0.59096 0.0274 0.81172 0.0
C3557 C 0.58895 0.04104 0.80892 0.0
C3558 C 0.59855 0.98504 0.82273 0.0
C3559 C 0.59034 0.98063 0.83331 0.0
C3560 C 0.60004 0.99885 0.82013 0.0
C3561 C 0.59358 0.00848 0.82826 0.0
C3562 C 0.58593 1.00398 0.83921 0.0
C3563 C 0.58424 0.99026 0.84161 0.0
H3564 H 0.03591 0.60348 0.81444 0.0
H3565 H 0.02584 0.58038 0.84961 0.0
H3566 H 0.01184 0.60665 0.80976 0.0
H3567 H 1.00208 0.5836 0.84512 0.0
H3568 H 0.95976 0.59636 0.83871 0.0
H3569 H 0.98347 0.60011 0.84361 0.0
H3570 H 0.99353 0.59055 0.80259 0.0
H3571 H 0.96985 0.58684 0.79764 0.0
C3572 C 0.02857 0.59943 0.82135 0.0
C3573 C 0.03272 0.59172 0.8324 0.0
C3574 C 0.01481 0.60113 0.81863 0.0
C3575 C 1.00501 0.59538 0.82707 0.0
C3576 C 0.00929 0.58832 0.83849 0.0
C3577 C 0.02293 0.58642 0.84105 0.0
C3578 C 0.96697 0.59533 0.83065 0.0
C3579 C 0.96284 0.59113 0.81781 0.0
C3580 C 0.98059 0.59742 0.83348 0.0
C3581 C 0.99044 0.59552 0.82352 0.0
C3582 C 0.98623 0.5922 0.81048 0.0
C3583 C 0.97263 0.58997 0.80767 0.0
H3584 H 0.21307 0.42575 0.04213 0.0
H3585 H 0.17229 0.41577 0.0529 0.0
H3586 H 0.20788 0.42168 0.01859 0.0
H3587 H 0.16716 0.41159 0.02929 0.0
H3588 H 0.16033 0.43041 0.98664 0.0
H3589 H 0.16494 0.42736 0.01039 0.0
H3590 H 0.20106 0.40552 1.00058 0.0
H3591 H 0.19628 0.40857 0.97653 0.0
C3592 C 0.20304 0.42246 0.03953 0.0
C3593 C 0.19305 0.42127 0.04946 0.0
C3594 C 0.20011 0.42001 0.02599 0.0
C3595 C 0.18708 0.41639 0.022 0.0
C3596 C 0.17727 0.4145 0.032 0.0
C3597 C 0.18023 0.41684 0.04556 0.0
C3598 C 0.16907 0.42463 0.98954 0.0
C3599 C 0.1779 0.41966 0.97974 0.0
C3600 C 0.1717 0.42284 1.00318 0.0
C3601 C 0.18339 0.41622 0.00745 0.0
C3602 C 0.19199 0.41072 0.99763 0.0
C3603 C 0.1892 0.41232 0.98387 0.0
H3604 H 0.21389 0.59619 0.96726 0.0
H3605 H 0.17198 0.58713 0.96178 0.0
H3606 H 0.20992 0.6007 0.99094 0.0
H3607 H 0.16804 0.59047 0.98559 0.0
H3608 H 0.16143 0.59894 0.02877 0.0
H3609 H 0.16553 0.60205 1.00483 0.0
H3610 H 0.20699 0.59045 0.01079 0.0
H3611 H 0.20294 0.58866 0.03473 0.0
C3612 C 0.20378 0.59524 0.97115 0.0
C3613 C 0.19325 0.59134 0.96264 0.0
C3614 C 0.20149 0.59764 0.98483 0.0
C3615 C 0.18866 0.59574 0.99053 0.0
C3616 C 0.17804 0.59231 0.98179 0.0
C3617 C 0.18028 0.59031 0.96804 0.0
C3618 C 0.17151 0.59756 0.02492 0.0
C3619 C 0.1819 0.59371 0.03358 0.0
C3620 C 0.17386 0.59907 0.01112 0.0
C3621 C 0.18658 0.59627 1.00553 0.0
C3622 C 0.19708 0.59294 0.01445 0.0
C3623 C 0.19478 0.59181 0.02828 0.0
H3624 H 0.40891 0.19665 0.034 0.0
H3625 H 0.43405 0.16262 0.0249 0.0
H3626 H 0.40625 0.20101 0.00981 0.0
H3627 H 0.43131 0.16678 1.001 0.0
H3628 H 0.42652 0.21365 0.96812 0.0
H3629 H 0.42265 0.20876 0.9918 0.0
H3630 H 0.41493 0.1673 0.98198 0.0
H3631 H 0.41878 0.17216 0.95825 0.0
C3632 C 0.41355 0.18991 0.02685 0.0
C3633 C 0.42166 0.17928 0.03132 0.0
C3634 C 0.41213 0.19245 0.01302 0.0
C3635 C 0.41856 0.18423 1.00345 0.0
C3636 C 0.42607 0.17322 0.00803 0.0
C3637 C 0.42769 0.17086 0.02175 0.0
C3638 C 0.42374 0.20352 0.97095 0.0
C3639 C 0.4231 0.19328 0.96123 0.0
C3640 C 0.42144 0.20075 0.98455 0.0
C3641 C 0.41857 0.18762 0.98883 0.0
C3642 C 0.41723 0.17751 0.97904 0.0
C3643 C 0.41937 0.18031 0.96541 0.0
H3644 H 0.83861 0.42027 0.95815 0.0
H3645 H 0.79705 0.42689 0.96853 0.0
H3646 H 0.84395 0.41701 0.98185 0.0
H3647 H 0.80244 0.42367 0.9922 0.0
H3648 H 0.81546 0.41041 0.03428 0.0
H3649 H 0.81067 0.40779 0.01018 0.0
H3650 H 0.84458 0.43305 1.00081 0.0
H3651 H 0.84922 0.43569 0.02461 0.0
C3652 C 0.83057 0.42084 0.96543 0.0
C3653 C 0.81742 0.424 0.96137 0.0
C3654 C 0.83364 0.41901 0.97904 0.0
C3655 C 0.82364 0.42016 0.98896 0.0
C3656 C 0.81037 0.42261 0.98485 0.0
C3657 C 0.80731 0.42456 0.97125 0.0
C3658 C 0.82204 0.4151 0.02702 0.0
C3659 C 0.83273 0.42322 0.03131 0.0
C3660 C 0.81924 0.41372 0.01323 0.0
C3661 C 0.82724 0.42022 1.00353 0.0
C3662 C 0.8383 0.42776 0.00793 0.0
C3663 C 0.84093 0.42932 0.0216 0.0
H3664 H 0.57865 0.84998 0.02457 0.0
H3665 H 0.60265 0.81532 0.03437 0.0
H3666 H 0.58152 0.84541 1.00075 0.0
H3667 H 0.60543 0.81056 0.01027 0.0
H3668 H 0.5855 0.79798 0.96843 0.0
H3669 H 0.58902 0.80308 0.99213 0.0
H3670 H 0.59814 0.84416 0.98197 0.0
H3671 H 0.59465 0.8391 0.95823 0.0
C3672 C 0.58479 0.84151 0.02159 0.0
C3673 C 0.59047 0.83304 0.03133 0.0
C3674 C 0.58648 0.83891 0.00792 0.0
C3675 C 0.5937 0.82761 1.00356 0.0
C3676 C 0.59978 0.81933 0.0133 0.0
C3677 C 0.59829 0.82211 0.02708 0.0
C3678 C 0.58849 0.80806 0.9712 0.0
C3679 C 0.58966 0.81816 0.96136 0.0
C3680 C 0.59059 0.81095 0.98481 0.0
C3681 C 0.59377 0.82405 0.98898 0.0
C3682 C 0.59558 0.83399 0.97911 0.0
C3683 C 0.59364 0.83107 0.96547 0.0
H3684 H 0.83909 0.59627 0.05378 0.0
H3685 H 0.79853 0.58549 0.043 0.0
H3686 H 0.84429 0.60011 0.03012 0.0
H3687 H 0.80377 0.58932 0.0194 0.0
H3688 H 0.81571 0.60285 0.97728 0.0
H3689 H 0.81065 0.60573 1.0013 0.0
H3690 H 0.84663 0.58382 0.01138 0.0
H3691 H 0.85151 0.58087 0.98764 0.0
C3692 C 0.8312 0.59498 0.04643 0.0
C3693 C 0.81842 0.59043 0.05035 0.0
C3694 C 0.8342 0.59712 0.03284 0.0
C3695 C 0.82448 0.59493 0.02283 0.0
C3696 C 0.81147 0.5912 0.02682 0.0
C3697 C 0.8085 0.58891 0.04038 0.0
C3698 C 0.82269 0.599 0.98468 0.0
C3699 C 0.83404 0.59169 0.98061 0.0
C3700 C 0.81974 0.60053 0.99841 0.0
C3701 C 0.82823 0.595 0.00829 0.0
C3702 C 0.83995 0.58836 1.00411 0.0
C3703 C 0.84273 0.58663 0.99048 0.0
H3704 H 0.43509 0.8493 0.98667 0.0
H3705 H 0.40974 0.81548 0.97736 0.0
H3706 H 0.43207 0.84518 0.01054 0.0
H3707 H 0.40683 0.81116 1.00153 0.0
H3708 H 0.41862 0.84008 0.05312 0.0
H3709 H 0.41523 0.84486 0.0293 0.0
H3710 H 0.42316 0.80337 0.01977 0.0
H3711 H 0.4266 0.79857 0.04355 0.0
C3712 C 0.42864 0.84111 0.98976 0.0
C3713 C 0.42261 0.83274 0.98014 0.0
C3714 C 0.42687 0.83878 1.00347 0.0
C3715 C 0.41921 0.82785 0.00799 0.0
C3716 C 0.41281 0.81966 0.99837 0.0
C3717 C 0.41438 0.82218 0.98455 0.0
C3718 C 0.41937 0.8319 0.046 0.0
C3719 C 0.42302 0.81896 0.0503 0.0
C3720 C 0.41748 0.83466 0.03233 0.0
C3721 C 0.419 0.82451 0.02261 0.0
C3722 C 0.42181 0.8114 0.02698 0.0
C3723 C 0.42388 0.80867 0.04063 0.0
H3724 H 0.60066 0.16385 0.98498 0.0
H3725 H 0.58381 0.20319 0.97926 0.0
H3726 H 0.60306 0.1683 0.009 0.0
H3727 H 0.5851 0.20743 1.0032 0.0
H3728 H 0.59147 0.21552 0.04644 0.0
H3729 H 0.59587 0.21195 0.02269 0.0
H3730 H 0.59085 0.1692 0.02837 0.0
H3731 H 0.58745 0.17285 0.05226 0.0
C3732 C 0.59769 0.17355 0.98888 0.0
C3733 C 0.59219 0.18324 0.98028 0.0
C3734 C 0.59882 0.17606 1.00271 0.0
C3735 C 0.59411 0.1882 0.00833 0.0
C3736 C 0.58908 0.19804 0.99947 0.0
C3737 C 0.58822 0.19561 0.98566 0.0
C3738 C 0.59157 0.20535 0.04261 0.0
C3739 C 0.58908 0.19448 0.05124 0.0
C3740 C 0.59395 0.20327 0.02891 0.0
C3741 C 0.59351 0.19027 0.0233 0.0
C3742 C 0.5915 0.17936 0.03212 0.0
C3743 C 0.58947 0.18144 0.04591 0.0
H3744 H 0.55363 0.67131 0.91872 0.0
H3745 H 0.54359 0.71289 0.92572 0.0
H3746 H 0.52987 0.66623 0.91526 0.0
H3747 H 0.5199 0.70778 0.9222 0.0
H3748 H 0.47771 0.69502 0.90879 0.0
H3749 H 0.50185 0.69947 0.90593 0.0
H3750 H 0.51097 0.66609 0.93199 0.0
H3751 H 0.4871 0.66186 0.93495 0.0
C3752 C 0.54642 0.67943 0.91922 0.0
C3753 C 0.55056 0.69249 0.92263 0.0
C3754 C 0.53278 0.6765 0.91731 0.0
C3755 C 0.52295 0.68658 0.91854 0.0
C3756 C 0.52718 0.69979 0.92108 0.0
C3757 C 0.54079 0.7027 0.92319 0.0
C3758 C 0.48491 0.68849 0.91363 0.0
C3759 C 0.48053 0.67808 0.92207 0.0
C3760 C 0.49872 0.69108 0.91209 0.0
C3761 C 0.50836 0.68312 0.91872 0.0
C3762 C 0.50388 0.67232 0.9266 0.0
C3763 C 0.49017 0.66993 0.92834 0.0
H3764 H 0.29746 0.54486 0.91614 0.0
H3765 H 0.33961 0.5494 0.92456 0.0
H3766 H 0.30087 0.52116 0.9113 0.0
H3767 H 0.34301 0.52556 0.92089 0.0
H3768 H 0.34887 0.48254 0.91209 0.0
H3769 H 0.34502 0.50651 0.90904 0.0
H3770 H 0.30358 0.50099 0.92091 0.0
H3771 H 0.30737 0.477 0.92259 0.0
C3772 C 0.30749 0.54076 0.9169 0.0
C3773 C 0.31826 0.54901 0.92071 0.0
C3774 C 0.30947 0.52706 0.91429 0.0
C3775 C 0.32222 0.52108 0.91587 0.0
C3776 C 0.33306 0.52957 0.91927 0.0
C3777 C 0.33113 0.54334 0.92147 0.0
C3778 C 0.33883 0.48647 0.91347 0.0
C3779 C 0.32838 0.47792 0.91741 0.0
C3780 C 0.33663 0.50031 0.91203 0.0
C3781 C 0.32402 0.50605 0.91503 0.0
C3782 C 0.31342 0.49723 0.91832 0.0
C3783 C 0.31556 0.48335 0.91935 0.0
H3784 H 0.46832 0.29785 0.9286 0.0
H3785 H 0.45833 0.33905 0.91953 0.0
H3786 H 0.49209 0.3029 0.92531 0.0
H3787 H 0.48211 0.34406 0.91633 0.0
H3788 H 0.52472 0.34954 0.93588 0.0
H3789 H 0.50088 0.34488 0.93337 0.0
H3790 H 0.51013 0.31069 0.90843 0.0
H3791 H 0.53425 0.31557 0.91079 0.0
C3792 C 0.47115 0.30794 0.92571 0.0
C3793 C 0.46136 0.31806 0.92445 0.0
C3794 C 0.48479 0.3108 0.92374 0.0
C3795 C 0.48901 0.3239 0.92063 0.0
C3796 C 0.47919 0.33388 0.91881 0.0
C3797 C 0.46554 0.33099 0.9206 0.0
C3798 C 0.52168 0.34118 0.92962 0.0
C3799 C 0.53135 0.33295 0.92349 0.0
C3800 C 0.508 0.33854 0.92815 0.0
C3801 C 0.50357 0.32742 0.9207 0.0
C3802 C 0.51323 0.31933 0.91425 0.0
C3803 C 0.52701 0.32217 0.91551 0.0
H3804 H 0.66363 0.528 0.91309 0.0
H3805 H 0.70441 0.53363 0.92608 0.0
H3806 H 0.66773 0.50401 0.9103 0.0
H3807 H 0.70838 0.50966 0.92459 0.0
H3808 H 0.71532 0.46606 0.91874 0.0
H3809 H 0.71182 0.48983 0.91436 0.0
H3810 H 0.66938 0.48476 0.92211 0.0
H3811 H 0.67291 0.46087 0.92536 0.0
C3812 C 0.67356 0.52407 0.91514 0.0
C3813 C 0.68374 0.53265 0.91967 0.0
C3814 C 0.67589 0.51024 0.91381 0.0
C3815 C 0.68836 0.50456 0.91744 0.0
C3816 C 0.69869 0.5134 0.92146 0.0
C3817 C 0.69642 0.52725 0.92243 0.0
C3818 C 0.70521 0.47003 0.91922 0.0
C3819 C 0.6944 0.46157 0.92239 0.0
C3820 C 0.70318 0.48376 0.91687 0.0
C3821 C 0.6903 0.48955 0.91807 0.0
C3822 C 0.67943 0.48089 0.92082 0.0
C3823 C 0.68144 0.46709 0.92278 0.0
H3824 H 0.55309 0.33992 0.09278 0.0
H3825 H 0.54325 0.29869 0.08372 0.0
H3826 H 0.5293 0.3448 0.0962 0.0
H3827 H 0.51949 0.3036 0.08721 0.0
H3828 H 0.4773 0.31575 0.1017 0.0
H3829 H 0.50147 0.31111 0.10404 0.0
H3830 H 0.51036 0.34568 0.07952 0.0
H3831 H 0.48646 0.3501 0.07705 0.0
C3832 C 0.54591 0.33182 0.09176 0.0
C3833 C 0.55014 0.31892 0.08785 0.0
C3834 C 0.53225 0.33464 0.09367 0.0
C3835 C 0.52247 0.32461 0.09192 0.0
C3836 C 0.52675 0.31154 0.08875 0.0
C3837 C 0.54039 0.30876 0.08666 0.0
C3838 C 0.48447 0.32249 0.0971 0.0
C3839 C 0.48001 0.33331 0.08924 0.0
C3840 C 0.49828 0.31979 0.09833 0.0
C3841 C 0.50786 0.32804 0.09197 0.0
C3842 C 0.50332 0.33921 0.08468 0.0
C3843 C 0.4896 0.34173 0.08323 0.0
H3844 H 0.67319 0.55328 0.09513 0.0
H3845 H 0.71412 0.5433 0.0849 0.0
H3846 H 0.66845 0.52954 0.099 0.0
H3847 H 0.70932 0.51961 0.08875 0.0
H3848 H 0.69801 0.47731 0.10245 0.0
H3849 H 0.70262 0.50144 0.10517 0.0
H3850 H 0.66668 0.51069 0.08283 0.0
H3851 H 0.66224 0.48686 0.08007 0.0
C3852 C 0.68126 0.54609 0.09394 0.0
C3853 C 0.69401 0.55026 0.08955 0.0
C3854 C 0.67851 0.53245 0.09611 0.0
C3855 C 0.68847 0.52263 0.0941 0.0
C3856 C 0.70143 0.52688 0.0905 0.0
C3857 C 0.70415 0.54049 0.0882 0.0
C3858 C 0.69095 0.48455 0.09846 0.0
C3859 C 0.67975 0.48022 0.09109 0.0
C3860 C 0.69364 0.49835 0.09989 0.0
C3861 C 0.68501 0.50803 0.09421 0.0
C3862 C 0.67345 0.50359 0.08749 0.0
C3863 C 0.67093 0.4899 0.08586 0.0
H3864 H 0.46925 0.71513 0.08571 0.0
H3865 H 0.45918 0.67406 0.09525 0.0
H3866 H 0.49294 0.71015 0.08925 0.0
H3867 H 0.48292 0.66914 0.09885 0.0
H3868 H 0.52551 0.66297 0.07989 0.0
H3869 H 0.50172 0.66748 0.08274 0.0
H3870 H 0.51116 0.70321 0.10536 0.0
H3871 H 0.53526 0.69853 0.10253 0.0
C3872 C 0.47204 0.70508 0.08877 0.0
C3873 C 0.46224 0.69496 0.09003 0.0
C3874 C 0.48566 0.70226 0.09091 0.0
C3875 C 0.48988 0.68922 0.09425 0.0
C3876 C 0.48004 0.67926 0.09615 0.0
C3877 C 0.4664 0.68211 0.09414 0.0
C3878 C 0.52253 0.67162 0.08575 0.0
C3879 C 0.53225 0.68036 0.09103 0.0
C3880 C 0.50886 0.67419 0.08743 0.0
C3881 C 0.50447 0.68572 0.09427 0.0
C3882 C 0.51421 0.69426 0.1 0.0
C3883 C 0.52799 0.69154 0.0985 0.0
H3884 H 0.29791 0.47032 0.08799 0.0
H3885 H 0.3391 0.45964 0.09622 0.0
H3886 H 0.30322 0.49389 0.09183 0.0
H3887 H 0.34437 0.48327 0.10011 0.0
H3888 H 0.35028 0.52564 0.08031 0.0
H3889 H 0.34568 0.50193 0.08372 0.0
H3890 H 0.31101 0.51208 0.10765 0.0
H3891 H 0.31579 0.53609 0.10427 0.0
C3892 C 0.30805 0.47295 0.0909 0.0
C3893 C 0.31811 0.46303 0.09163 0.0
C3894 C 0.31107 0.48649 0.09319 0.0
C3895 C 0.32425 0.49052 0.09616 0.0
C3896 C 0.33414 0.48053 0.0977 0.0
C3897 C 0.33109 0.46696 0.09554 0.0
C3898 C 0.34185 0.52283 0.08658 0.0
C3899 C 0.33342 0.53272 0.09205 0.0
C3900 C 0.33924 0.50921 0.08859 0.0
C3901 C 0.32797 0.50505 0.09595 0.0
C3902 C 0.31976 0.51496 0.10189 0.0
C3903 C 0.32255 0.52869 0.10006 0.0
H3904 H 0.92582 0.54326 0.71482 0.0
H3905 H 0.91793 0.55402 0.67358 0.0
H3906 H 0.92231 0.51967 0.70935 0.0
H3907 H 0.91433 0.53039 0.66817 0.0
H3908 H 0.93273 0.48765 0.66187 0.0
H3909 H 0.93006 0.51141 0.66667 0.0
H3910 H 0.90644 0.50171 0.70168 0.0
H3911 H 0.90913 0.47765 0.69673 0.0
C3912 C 0.92313 0.54065 0.70462 0.0
C3913 C 0.92233 0.55061 0.69462 0.0
C3914 C 0.92101 0.52708 0.70151 0.0
C3915 C 0.91812 0.52308 0.6883 0.0
C3916 C 0.91669 0.53309 0.67842 0.0
C3917 C 0.9187 0.54668 0.68155 0.0
C3918 C 0.9267 0.49057 0.67043 0.0
C3919 C 0.92111 0.48078 0.67889 0.0
C3920 C 0.92512 0.50423 0.67316 0.0
C3921 C 0.91805 0.50853 0.68458 0.0
C3922 C 0.912 0.49874 0.69283 0.0
C3923 C 0.91342 0.48497 0.68994 0.0
H3924 H 0.5241 0.93631 0.66323 0.0
H3925 H 0.5335 0.91021 0.69644 0.0
H3926 H 0.50026 0.93361 0.66765 0.0
H3927 H 0.50936 0.90756 0.70104 0.0
H3928 H 0.46759 0.92661 0.71469 0.0
H3929 H 0.4913 0.92342 0.70946 0.0
H3930 H 0.48131 0.91739 0.66777 0.0
H3931 H 0.45757 0.9206 0.67295 0.0
C3932 C 0.52103 0.92977 0.67136 0.0
C3933 C 0.53067 0.92344 0.67946 0.0
C3934 C 0.50733 0.92818 0.67386 0.0
C3935 C 0.50285 0.92037 0.6847 0.0
C3936 C 0.51249 0.91368 0.69262 0.0
C3937 C 0.52629 0.91509 0.68994 0.0
C3938 C 0.4704 0.9244 0.70443 0.0
C3939 C 0.46061 0.92401 0.69423 0.0
C3940 C 0.48402 0.92247 0.70145 0.0
C3941 C 0.48825 0.92023 0.68818 0.0
C3942 C 0.47842 0.91923 0.67808 0.0
C3943 C 0.46478 0.92101 0.68107 0.0
H3944 H 0.10199 0.53536 0.69769 0.0
H3945 H 0.0805 0.52553 0.66146 0.0
H3946 H 0.10486 0.51127 0.7024 0.0
H3947 H 0.08341 0.50173 0.66599 0.0
H3948 H 0.09538 0.45917 0.67308 0.0
H3949 H 0.09942 0.48287 0.66823 0.0
H3950 H 0.08851 0.49312 0.70887 0.0
H3951 H 0.08451 0.46949 0.71376 0.0
C3952 C 0.09825 0.52807 0.69055 0.0
C3953 C 0.09107 0.53231 0.67918 0.0
C3954 C 0.09977 0.51429 0.69329 0.0
C3955 C 0.09435 0.50453 0.68457 0.0
C3956 C 0.08786 0.50889 0.67284 0.0
C3957 C 0.08615 0.52256 0.67026 0.0
C3958 C 0.0941 0.46642 0.68108 0.0
C3959 C 0.08947 0.46236 0.69378 0.0
C3960 C 0.09636 0.48004 0.67827 0.0
C3961 C 0.09419 0.48994 0.68813 0.0
C3962 C 0.09038 0.48579 0.70106 0.0
C3963 C 0.08799 0.47221 0.70383 0.0
H3964 H 0.4885 0.07932 0.66171 0.0
H3965 H 0.47844 0.10228 0.69698 0.0
H3966 H 0.51228 0.0823 0.66636 0.0
H3967 H 0.5025 0.10519 0.70182 0.0
H3968 H 0.54442 0.08534 0.71401 0.0
H3969 H 0.52074 0.08892 0.70894 0.0
H3970 H 0.53097 0.0988 0.66805 0.0
H3971 H 0.55471 0.09522 0.67309 0.0
C3972 C 0.49141 0.08526 0.67034 0.0
C3973 C 0.48161 0.0906 0.67895 0.0
C3974 C 0.50506 0.08702 0.67298 0.0
C3975 C 0.50934 0.09398 0.68447 0.0
C3976 C 0.49953 0.09974 0.6929 0.0
C3977 C 0.48577 0.09818 0.69009 0.0
C3978 C 0.54168 0.08851 0.70398 0.0
C3979 C 0.55153 0.08985 0.69393 0.0
C3980 C 0.52807 0.09066 0.70111 0.0
C3981 C 0.52392 0.09406 0.68807 0.0
C3982 C 0.53381 0.09607 0.67818 0.0
C3983 C 0.54745 0.09407 0.68109 0.0
H3984 H 0.9258 0.4603 0.33962 0.0
H3985 H 0.91953 0.46589 0.2972 0.0
H3986 H 0.92265 0.48419 0.34333 0.0
H3987 H 0.91524 0.48965 0.30087 0.0
H3988 H 0.92669 0.53339 0.30861 0.0
H3989 H 0.92542 0.50943 0.30453 0.0
H3990 H 0.91091 0.5035 0.34506 0.0
H3991 H 0.91348 0.5275 0.34928 0.0
C3992 C 0.92332 0.46661 0.33112 0.0
C3993 C 0.92299 0.46121 0.31811 0.0
C3994 C 0.92142 0.48041 0.33323 0.0
C3995 C 0.91879 0.48919 0.32241 0.0
C3996 C 0.91767 0.48351 0.30948 0.0
C3997 C 0.91996 0.46978 0.30735 0.0
C3998 C 0.92306 0.52695 0.31655 0.0
C3999 C 0.92015 0.53229 0.32923 0.0
C4000 C 0.92221 0.5131 0.31422 0.0
C4001 C 0.91817 0.50419 0.32447 0.0
C4002 C 0.91443 0.50979 0.33695 0.0
C4003 C 0.91563 0.52363 0.33935 0.0
H4004 H 0.4779 0.9224 0.30885 0.0
H4005 H 0.4843 0.9117 0.35018 0.0
H4006 H 0.50185 0.92105 0.30464 0.0
H4007 H 0.50823 0.90901 0.34591 0.0
H4008 H 0.55094 0.92454 0.33974 0.0
H4009 H 0.52713 0.9211 0.34355 0.0
H4010 H 0.52196 0.91132 0.30153 0.0
H4011 H 0.54564 0.91591 0.2977 0.0
C4012 C 0.48444 0.9192 0.31691 0.0
C4013 C 0.47926 0.91707 0.32981 0.0
C4014 C 0.49828 0.91836 0.31452 0.0
C4015 C 0.50732 0.91509 0.32495 0.0
C4016 C 0.50185 0.91198 0.33765 0.0
C4017 C 0.48805 0.91322 0.34009 0.0
C4018 C 0.54471 0.9215 0.33137 0.0
C4019 C 0.55016 0.92058 0.31842 0.0
C4020 C 0.53096 0.91941 0.33353 0.0
C4021 C 0.52229 0.91598 0.32285 0.0
C4022 C 0.52802 0.91433 0.31001 0.0
C4023 C 0.5417 0.91681 0.30779 0.0
H4024 H 0.08569 0.54418 0.29852 0.0
H4025 H 0.09318 0.5536 0.34016 0.0
H4026 H 0.08915 0.52039 0.30327 0.0
H4027 H 0.09659 0.52976 0.34487 0.0
H4028 H 0.10267 0.47796 0.31542 0.0
H4029 H 0.10546 0.50215 0.31116 0.0
H4030 H 0.07981 0.51096 0.34494 0.0
H4031 H 0.07693 0.48705 0.349 0.0
C4032 C 0.08831 0.54122 0.30865 0.0
C4033 C 0.08903 0.55085 0.31898 0.0
C4034 C 0.09038 0.52756 0.31134 0.0
C4035 C 0.09306 0.52314 0.32446 0.0
C4036 C 0.09444 0.53282 0.33467 0.0
C4037 C 0.09254 0.54651 0.33194 0.0
C4038 C 0.0979 0.48511 0.32208 0.0
C4039 C 0.08961 0.48063 0.33256 0.0
C4040 C 0.0994 0.49894 0.31959 0.0
C4041 C 0.09287 0.50851 0.32773 0.0
C4042 C 0.08512 0.50392 0.33858 0.0
C4043 C 0.08342 0.4902 0.34087 0.0
H4044 H 0.52509 0.07708 0.34997 0.0
H4045 H 0.53492 0.10304 0.31678 0.0
H4046 H 0.50129 0.08025 0.34559 0.0
H4047 H 0.51084 0.10613 0.3122 0.0
H4048 H 0.46918 0.08651 0.29845 0.0
H4049 H 0.49279 0.09018 0.30375 0.0
H4050 H 0.48245 0.09682 0.34526 0.0
H4051 H 0.45877 0.09316 0.33999 0.0
C4052 C 0.52213 0.0837 0.34187 0.0
C4053 C 0.53187 0.08984 0.33374 0.0
C4054 C 0.50846 0.08557 0.33939 0.0
C4055 C 0.50411 0.09345 0.32854 0.0
C4056 C 0.51386 0.09998 0.32063 0.0
C4057 C 0.52763 0.0983 0.3233 0.0
C4058 C 0.47188 0.08902 0.30867 0.0
C4059 C 0.46203 0.0894 0.31881 0.0
C4060 C 0.48544 0.09121 0.31169 0.0
C4061 C 0.48955 0.09368 0.32495 0.0
C4062 C 0.47963 0.09482 0.33496 0.0
C4063 C 0.46604 0.09279 0.33191 0.0
H4064 H 0.66142 0.91373 0.48472 0.0
H4065 H 0.70273 0.92452 0.47843 0.0
H4066 H 0.66565 0.91104 0.50867 0.0
H4067 H 0.70688 0.92324 0.50238 0.0
H4068 H 0.71388 0.91832 0.54613 0.0
H4069 H 0.71009 0.91369 0.52245 0.0
H4070 H 0.66793 0.9228 0.52773 0.0
H4071 H 0.67173 0.92621 0.55154 0.0
C4072 C 0.67149 0.91531 0.4885 0.0
C4073 C 0.68178 0.91919 0.47974 0.0
C4074 C 0.67391 0.91407 0.50232 0.0
C4075 C 0.68659 0.9172 0.50782 0.0
C4076 C 0.69701 0.92053 0.4988 0.0
C4077 C 0.69465 0.92137 0.48496 0.0
C4078 C 0.70377 0.91904 0.54221 0.0
C4079 C 0.69311 0.92261 0.55071 0.0
C4080 C 0.70157 0.91655 0.52853 0.0
C4081 C 0.68869 0.91803 0.52281 0.0
C4082 C 0.67797 0.92125 0.53153 0.0
C4083 C 0.68013 0.92331 0.54528 0.0
H4084 H 0.69732 0.10278 0.53434 0.0
H4085 H 0.66429 0.07644 0.52494 0.0
H4086 H 0.70193 0.10541 0.5102 0.0
H4087 H 0.66873 0.07912 0.5011 0.0
H4088 H 0.67389 0.09223 0.45842 0.0
H4089 H 0.66873 0.09543 0.48218 0.0
H4090 H 0.71045 0.08956 0.49212 0.0
H4091 H 0.71566 0.08636 0.4684 0.0
C4092 C 0.69087 0.09783 0.52713 0.0
C4093 C 0.68044 0.08942 0.53152 0.0
C4094 C 0.69356 0.09923 0.51333 0.0
C4095 C 0.68569 0.09248 0.50369 0.0
C4096 C 0.6749 0.0846 0.50818 0.0
C4097 C 0.67239 0.08302 0.52188 0.0
C4098 C 0.68202 0.09186 0.46562 0.0
C4099 C 0.69518 0.08889 0.46144 0.0
C4100 C 0.67904 0.09363 0.47927 0.0
C4101 C 0.68916 0.09266 0.48909 0.0
C4102 C 0.70243 0.09047 0.48484 0.0
C4103 C 0.70539 0.08854 0.47121 0.0
H4104 H 0.91783 0.67204 0.45886 0.0
H4105 H 0.92583 0.71345 0.46886 0.0
H4106 H 0.91437 0.66704 0.48262 0.0
H4107 H 0.92234 0.70842 0.49257 0.0
H4108 H 0.90911 0.69609 0.53487 0.0
H4109 H 0.90614 0.70059 0.51075 0.0
H4110 H 0.93104 0.66638 0.50141 0.0
H4111 H 0.9341 0.66208 0.52525 0.0
C4112 C 0.91857 0.68015 0.46606 0.0
C4113 C 0.92225 0.69313 0.46189 0.0
C4114 C 0.91665 0.67726 0.47971 0.0
C4115 C 0.91817 0.68731 0.48953 0.0
C4116 C 0.921 0.70046 0.48529 0.0
C4117 C 0.92309 0.70331 0.47167 0.0
C4118 C 0.91365 0.68938 0.52762 0.0
C4119 C 0.9218 0.67872 0.53193 0.0
C4120 C 0.91205 0.69201 0.51383 0.0
C4121 C 0.91835 0.68384 0.50413 0.0
C4122 C 0.92591 0.67279 0.50854 0.0
C4123 C 0.9277 0.67035 0.52223 0.0
H4124 H 0.29778 0.92758 0.46806 0.0
H4125 H 0.3391 0.91848 0.45866 0.0
H4126 H 0.30253 0.92448 0.49191 0.0
H4127 H 0.34381 0.91545 0.48253 0.0
H4128 H 0.3145 0.91073 0.53441 0.0
H4129 H 0.31001 0.90795 0.51026 0.0
H4130 H 0.34446 0.93255 0.50113 0.0
H4131 H 0.34875 0.93545 0.525 0.0
C4132 C 0.30783 0.92472 0.47103 0.0
C4133 C 0.31808 0.9234 0.46138 0.0
C4134 C 0.31052 0.92285 0.48472 0.0
C4135 C 0.32356 0.91979 0.48914 0.0
C4136 C 0.33367 0.9179 0.47946 0.0
C4137 C 0.33095 0.91959 0.46576 0.0
C4138 C 0.32125 0.91526 0.5272 0.0
C4139 C 0.332 0.92327 0.53157 0.0
C4140 C 0.31863 0.91377 0.5134 0.0
C4141 C 0.3269 0.92002 0.50376 0.0
C4142 C 0.33799 0.92747 0.50823 0.0
C4143 C 0.34042 0.92917 0.52193 0.0
H4144 H 0.10324 0.31695 0.53427 0.0
H4145 H 0.07678 0.34982 0.52467 0.0
H4146 H 0.10605 0.31229 0.51016 0.0
H4147 H 0.0797 0.34537 0.50082 0.0
H4148 H 0.09347 0.34003 0.45824 0.0
H4149 H 0.09653 0.34528 0.48201 0.0
H4150 H 0.08985 0.30372 0.49212 0.0
H4151 H 0.08674 0.29843 0.46839 0.0
C4152 C 0.09832 0.32337 0.52702 0.0
C4153 C 0.08982 0.33376 0.53134 0.0
C4154 C 0.09983 0.32065 0.51324 0.0
C4155 C 0.0931 0.32847 0.50355 0.0
C4156 C 0.08515 0.33925 0.50796 0.0
C4157 C 0.08344 0.34177 0.52165 0.0
C4158 C 0.09291 0.33195 0.46548 0.0
C4159 C 0.08973 0.31882 0.46136 0.0
C4160 C 0.0946 0.33498 0.47912 0.0
C4161 C 0.09336 0.32493 0.48898 0.0
C4162 C 0.09097 0.31168 0.4848 0.0
C4163 C 0.08909 0.30867 0.47118 0.0
H4164 H 0.29832 0.08429 0.54383 0.0
H4165 H 0.33977 0.09301 0.55296 0.0
H4166 H 0.30294 0.08732 0.51995 0.0
H4167 H 0.34436 0.09597 0.52905 0.0
H4168 H 0.31481 0.10106 0.47736 0.0
H4169 H 0.31047 0.10382 0.50154 0.0
H4170 H 0.34474 0.07886 0.51043 0.0
H4171 H 0.34887 0.07598 0.48652 0.0
C4172 C 0.30838 0.08706 0.54079 0.0
C4173 C 0.31869 0.08829 0.55038 0.0
C4174 C 0.311 0.08889 0.52708 0.0
C4175 C 0.32403 0.09182 0.52257 0.0
C4176 C 0.33422 0.09362 0.53219 0.0
C4177 C 0.33157 0.09197 0.54591 0.0
C4178 C 0.32155 0.09644 0.48452 0.0
C4179 C 0.3322 0.08835 0.48007 0.0
C4180 C 0.31901 0.09792 0.49835 0.0
C4181 C 0.32727 0.09157 0.50793 0.0
C4182 C 0.33827 0.08402 0.50337 0.0
C4183 C 0.34062 0.08233 0.48965 0.0
H4184 H 0.93529 0.34967 0.48761 0.0
H4185 H 0.91021 0.31578 0.47786 0.0
H4186 H 0.93267 0.34493 0.51143 0.0
H4187 H 0.9077 0.31084 0.50195 0.0
H4188 H 0.92736 0.29763 0.54376 0.0
H4189 H 0.92422 0.30286 0.52002 0.0
H4190 H 0.91587 0.34411 0.53018 0.0
H4191 H 0.91896 0.33894 0.55393 0.0
C4192 C 0.92898 0.34133 0.4906 0.0
C4193 C 0.92289 0.33314 0.48088 0.0
C4194 C 0.92745 0.33864 0.50427 0.0
C4195 C 0.91998 0.3275 0.50862 0.0
C4196 C 0.91355 0.31947 0.49891 0.0
C4197 C 0.91488 0.32236 0.48514 0.0
C4198 C 0.92466 0.30779 0.54098 0.0
C4199 C 0.92355 0.31788 0.55082 0.0
C4200 C 0.92276 0.31075 0.52735 0.0
C4201 C 0.91987 0.32391 0.52318 0.0
C4202 C 0.9182 0.33388 0.53305 0.0
C4203 C 0.91993 0.33089 0.54668 0.0
H4204 H 0.07873 0.66297 0.48811 0.0
H4205 H 0.1017 0.69829 0.47828 0.0
H4206 H 0.0814 0.66769 0.51192 0.0
H4207 H 0.10425 0.70322 0.50237 0.0
H4208 H 0.08374 0.71519 0.5442 0.0
H4209 H 0.08742 0.7102 0.52049 0.0
H4210 H 0.09808 0.6695 0.53066 0.0
H4211 H 0.09444 0.67443 0.55439 0.0
C4212 C 0.08461 0.67162 0.49108 0.0
C4213 C 0.09008 0.68022 0.48134 0.0
C4214 C 0.08617 0.67431 0.50475 0.0
C4215 C 0.09303 0.68584 0.50909 0.0
C4216 C 0.09889 0.69427 0.49934 0.0
C4217 C 0.09754 0.6914 0.48557 0.0
C4218 C 0.08709 0.70522 0.54143 0.0
C4219 C 0.08866 0.69518 0.55127 0.0
C4220 C 0.08929 0.7024 0.52782 0.0
C4221 C 0.09296 0.68943 0.52365 0.0
C4222 C 0.09514 0.67956 0.53352 0.0
C4223 C 0.0931 0.68242 0.54715 0.0
H4224 H 0.08942 0.18102 0.53943 0.0
H4225 H 0.05915 0.15113 0.53146 0.0
H4226 H 0.09752 0.17899 0.51656 0.0
H4227 H 0.06778 0.14833 0.50875 0.0
H4228 H 0.06767 0.16928 0.4671 0.0
H4229 H 0.06488 0.16169 0.49007 0.0
H4230 H 0.10697 0.16936 0.49765 0.0
H4231 H 0.10935 0.17773 0.4747 0.0
C4232 C 0.08487 0.17359 0.53292 0.0
C4233 C 0.0735 0.16644 0.53708 0.0
C4234 C 0.08956 0.17235 0.51976 0.0
C4235 C 0.0831 0.16371 0.51059 0.0
C4236 C 0.07271 0.15542 0.51534 0.0
C4237 C 0.06782 0.15693 0.52839 0.0
C4238 C 0.07639 0.16887 0.47359 0.0
C4239 C 0.0887 0.17402 0.46927 0.0
C4240 C 0.07485 0.16447 0.48679 0.0
C4241 C 0.08567 0.16507 0.4959 0.0
C4242 C 0.09834 0.16905 0.49106 0.0
C4243 C 0.09978 0.17368 0.4779 0.0
H4244 H 0.81455 0.10138 0.48006 0.0
H4245 H 0.85197 0.08727 0.46336 0.0
H4246 H 0.82376 0.0998 0.50241 0.0
H4247 H 0.86146 0.08596 0.48599 0.0
H4248 H 0.85633 0.05902 0.5248 0.0
H4249 H 0.85645 0.06963 0.50299 0.0
H4250 H 0.83886 0.10535 0.5202 0.0
H4251 H 0.83831 0.09446 0.54213 0.0
C4252 C 0.82489 0.09822 0.48116 0.0
C4253 C 0.83241 0.09406 0.46998 0.0
C4254 C 0.83027 0.09751 0.49402 0.0
C4255 C 0.84333 0.09259 0.49606 0.0
C4256 C 0.8513 0.0896 0.48477 0.0
C4257 C 0.84589 0.09037 0.47181 0.0
C4258 C 0.85278 0.06927 0.52404 0.0
C4259 C 0.84683 0.07571 0.53509 0.0
C4260 C 0.85301 0.07545 0.5115 0.0
C4261 C 0.84732 0.08823 0.50975 0.0
C4262 C 0.843 0.09535 0.52117 0.0
C4263 C 0.84273 0.08913 0.53375 0.0
H4264 H 0.94939 0.86247 0.53035 0.0
H4265 H 0.92124 0.83043 0.53761 0.0
H4266 H 0.94019 0.86559 0.5079 0.0
H4267 H 0.91264 0.83276 0.51497 0.0
H4268 H 0.90083 0.83354 0.47347 0.0
H4269 H 0.90251 0.84209 0.49639 0.0
H4270 H 0.94384 0.85313 0.4888 0.0
H4271 H 0.94166 0.84541 0.46581 0.0
C4272 C 0.94103 0.85627 0.52718 0.0
C4273 C 0.93614 0.84607 0.53555 0.0
C4274 C 0.93583 0.85796 0.51429 0.0
C4275 C 0.92595 0.84916 0.50937 0.0
C4276 C 0.92019 0.83982 0.5183 0.0
C4277 C 0.92516 0.83839 0.53133 0.0
C4278 C 0.91003 0.83837 0.47665 0.0
C4279 C 0.92112 0.8389 0.46803 0.0
C4280 C 0.91109 0.84311 0.4898 0.0
C4281 C 0.92342 0.84801 0.49466 0.0
C4282 C 0.93412 0.84958 0.48553 0.0
C4283 C 0.93294 0.84512 0.47231 0.0
H4284 H 0.17701 0.90287 0.47425 0.0
H4285 H 0.16803 0.94444 0.46655 0.0
H4286 H 0.16836 0.90514 0.4971 0.0
H4287 H 0.16013 0.94711 0.48943 0.0
H4288 H 0.17992 0.92318 0.53877 0.0
H4289 H 0.17792 0.91484 0.51598 0.0
H4290 H 0.14668 0.94395 0.50809 0.0
H4291 H 0.14942 0.95281 0.53072 0.0
C4292 C 0.17276 0.91238 0.47739 0.0
C4293 C 0.17305 0.92348 0.46877 0.0
C4294 C 0.16797 0.91376 0.4905 0.0
C4295 C 0.16378 0.92637 0.4953 0.0
C4296 C 0.16309 0.93718 0.48618 0.0
C4297 C 0.16765 0.93571 0.47302 0.0
C4298 C 0.17236 0.92751 0.53227 0.0
C4299 C 0.16504 0.9388 0.53636 0.0
C4300 C 0.17113 0.9227 0.51916 0.0
C4301 C 0.16236 0.92894 0.50998 0.0
C4302 C 0.15387 0.9392 0.51469 0.0
C4303 C 0.15535 0.94421 0.52769 0.0
H4304 H 0.06481 0.86179 0.4824 0.0
H4305 H 0.08961 0.82739 0.47385 0.0
H4306 H 0.07461 0.86342 0.50475 0.0
H4307 H 0.09857 0.82811 0.4964 0.0
H4308 H 0.07338 0.84505 0.54726 0.0
H4309 H 0.07092 0.85224 0.52416 0.0
H4310 H 0.1098 0.83516 0.5148 0.0
H4311 H 0.11148 0.82696 0.5378 0.0
C4312 C 0.07255 0.85472 0.48529 0.0
C4313 C 0.07639 0.84439 0.47653 0.0
C4314 C 0.07806 0.85551 0.49815 0.0
C4315 C 0.08711 0.84565 0.50271 0.0
C4316 C 0.09174 0.836 0.49343 0.0
C4317 C 0.08655 0.8355 0.48042 0.0
C4318 C 0.08152 0.84318 0.54029 0.0
C4319 C 0.09254 0.83541 0.54416 0.0
C4320 C 0.08019 0.84736 0.52698 0.0
C4321 C 0.09004 0.84408 0.51734 0.0
C4322 C 0.10176 0.83748 0.52172 0.0
C4323 C 0.10285 0.83293 0.53494 0.0
H4324 H 0.14954 0.06006 0.48154 0.0
H4325 H 0.18006 0.0896 0.47329 0.0
H4326 H 0.14693 0.06896 0.50417 0.0
H4327 H 0.1782 0.09798 0.49607 0.0
H4328 H 0.17756 0.10999 0.53779 0.0
H4329 H 0.16879 0.10773 0.51499 0.0
H4330 H 0.16042 0.06581 0.52278 0.0
H4331 H 0.16843 0.06849 0.54562 0.0
C4332 C 0.1555 0.06864 0.48453 0.0
C4333 C 0.16516 0.07402 0.4758 0.0
C4334 C 0.15411 0.07368 0.49752 0.0
C4335 C 0.16263 0.08393 0.50218 0.0
C4336 C 0.17138 0.09013 0.49294 0.0
C4337 C 0.17253 0.08529 0.47983 0.0
C4338 C 0.17326 0.1005 0.53469 0.0
C4339 C 0.17354 0.08941 0.54333 0.0
C4340 C 0.1684 0.09912 0.5216 0.0
C4341 C 0.16413 0.08651 0.51685 0.0
C4342 C 0.16343 0.07573 0.52599 0.0
C4343 C 0.16806 0.0772 0.53913 0.0
H4344 H 0.90351 0.17696 0.53861 0.0
H4345 H 0.94546 0.16944 0.54574 0.0
H4346 H 0.90581 0.16851 0.51567 0.0
H4347 H 0.94812 0.1617 0.5228 0.0
H4348 H 0.95355 0.15077 0.48154 0.0
H4349 H 0.94507 0.14795 0.5043 0.0
H4350 H 0.91505 0.17837 0.49663 0.0
H4351 H 0.92303 0.18045 0.47371 0.0
C4352 C 0.91312 0.17308 0.53532 0.0
C4353 C 0.92431 0.17371 0.54381 0.0
C4354 C 0.91451 0.1684 0.52216 0.0
C4355 C 0.9272 0.16463 0.51721 0.0
C4356 C 0.93813 0.16432 0.52618 0.0
C4357 C 0.93668 0.1688 0.53936 0.0
C4358 C 0.94485 0.1565 0.48465 0.0
C4359 C 0.93908 0.16599 0.47599 0.0
C4360 C 0.94005 0.15498 0.49772 0.0
C4361 C 0.92963 0.16321 0.50251 0.0
C4362 C 0.92305 0.17178 0.49338 0.0
C4363 C 0.92766 0.17305 0.4802 0.0
H4364 H 0.83822 0.91955 0.46929 0.0
H4365 H 0.85245 0.95653 0.48693 0.0
H4366 H 0.83888 0.90889 0.49133 0.0
H4367 H 0.85275 0.94605 0.50884 0.0
H4368 H 0.85047 0.92716 0.54829 0.0
H4369 H 0.85957 0.92982 0.52561 0.0
H4370 H 0.82309 0.9131 0.50916 0.0
H4371 H 0.81423 0.91027 0.53158 0.0
C4372 C 0.84181 0.92531 0.47778 0.0
C4373 C 0.84489 0.93901 0.47642 0.0
C4374 C 0.84215 0.91921 0.49042 0.0
C4375 C 0.84557 0.9267 0.5019 0.0
C4376 C 0.85007 0.93995 0.50025 0.0
C4377 C 0.84975 0.94603 0.48765 0.0
C4378 C 0.8446 0.9237 0.53982 0.0
C4379 C 0.83152 0.91881 0.54167 0.0
C4380 C 0.84978 0.92526 0.52683 0.0
C4381 C 0.84199 0.92184 0.51555 0.0
C4382 C 0.82944 0.91576 0.51757 0.0
C4383 C 0.82426 0.91429 0.53046 0.0
H4384 H 0.47415 0.11165 0.18084 0.0
H4385 H 0.46561 0.07171 0.16671 0.0
H4386 H 0.49716 0.10975 0.17264 0.0
H4387 H 0.4887 0.06922 0.15941 0.0
H4388 H 0.5304 0.06319 0.1503 0.0
H4389 H 0.50805 0.07273 0.14758 0.0
H4390 H 0.51552 0.09903 0.18136 0.0
H4391 H 0.53808 0.09016 0.18324 0.0
C4392 C 0.47718 0.1026 0.17562 0.0
C4393 C 0.46825 0.09183 0.17432 0.0
C4394 C 0.49039 0.10141 0.17109 0.0
C4395 C 0.49502 0.0892 0.16566 0.0
C4396 C 0.48563 0.07885 0.16339 0.0
C4397 C 0.47234 0.08021 0.16761 0.0
C4398 C 0.52734 0.07135 0.1568 0.0
C4399 C 0.53583 0.07585 0.16709 0.0
C4400 C 0.51449 0.07674 0.15536 0.0
C4401 C 0.50969 0.08638 0.1645 0.0
C4402 C 0.51873 0.0917 0.17402 0.0
C4403 C 0.53172 0.08657 0.17519 0.0
H4404 H 0.92733 0.46408 0.15921 0.0
H4405 H 0.9081 0.48072 0.1943 0.0
H4406 H 0.92978 0.48672 0.14995 0.0
H4407 H 0.91082 0.50308 0.1854 0.0
H4408 H 0.91895 0.54298 0.17188 0.0
H4409 H 0.90795 0.52115 0.17013 0.0
H4410 H 0.94536 0.50344 0.15714 0.0
H4411 H 0.9561 0.52512 0.15839 0.0
C4412 C 0.92331 0.47252 0.16476 0.0
C4413 C 0.91788 0.4707 0.17763 0.0
C4414 C 0.92476 0.48549 0.15951 0.0
C4415 C 0.92075 0.49678 0.16704 0.0
C4416 C 0.914 0.49471 0.17924 0.0
C4417 C 0.91259 0.48184 0.18446 0.0
C4418 C 0.9247 0.53449 0.16826 0.0
C4419 C 0.93851 0.5357 0.16572 0.0
C4420 C 0.91841 0.52197 0.16729 0.0
C4421 C 0.92584 0.51045 0.16383 0.0
C4422 C 0.93926 0.51202 0.15983 0.0
C4423 C 0.94551 0.5245 0.16074 0.0
H4424 H 0.47297 0.92352 0.18031 0.0
H4425 H 0.48122 0.95426 0.15098 0.0
H4426 H 0.49572 0.91515 0.17802 0.0
H4427 H 0.5038 0.94539 0.14793 0.0
H4428 H 0.54547 0.94454 0.16892 0.0
H4429 H 0.52258 0.94777 0.16129 0.0
H4430 H 0.51446 0.90562 0.16807 0.0
H4431 H 0.53733 0.90279 0.17648 0.0
C4432 C 0.47951 0.92813 0.17295 0.0
C4433 C 0.47547 0.9397 0.16604 0.0
C4434 C 0.4926 0.92329 0.17155 0.0
C4435 C 0.50182 0.92978 0.163 0.0
C4436 C 0.49717 0.94041 0.15494 0.0
C4437 C 0.4842 0.94544 0.1566 0.0
C4438 C 0.53889 0.93591 0.16827 0.0
C4439 C 0.54304 0.92345 0.1732 0.0
C4440 C 0.52572 0.9377 0.16387 0.0
C4441 C 0.51647 0.92699 0.16424 0.0
C4442 C 0.52115 0.91417 0.16794 0.0
C4443 C 0.53429 0.91247 0.17258 0.0
H4444 H 0.11094 0.538 0.18047 0.0
H4445 H 0.07071 0.54655 0.16723 0.0
H4446 H 0.10903 0.51512 0.1719 0.0
H4447 H 0.06824 0.52358 0.15953 0.0
H4448 H 0.06227 0.48206 0.14979 0.0
H4449 H 0.07175 0.50445 0.14723 0.0
H4450 H 0.09846 0.4966 0.18058 0.0
H4451 H 0.08963 0.474 0.18232 0.0
C4452 C 0.10182 0.53501 0.17536 0.0
C4453 C 0.09097 0.54389 0.17442 0.0
C4454 C 0.10063 0.52187 0.17061 0.0
C4455 C 0.08836 0.51727 0.1653 0.0
C4456 C 0.07792 0.52664 0.16339 0.0
C4457 C 0.07926 0.53985 0.16784 0.0
C4458 C 0.07051 0.48504 0.15622 0.0
C4459 C 0.07512 0.47645 0.16637 0.0
C4460 C 0.07587 0.49792 0.15487 0.0
C4461 C 0.0856 0.50261 0.16396 0.0
C4462 C 0.09105 0.49346 0.1733 0.0
C4463 C 0.08594 0.48046 0.17438 0.0
H4464 H 0.47553 0.89971 0.82843 0.0
H4465 H 0.46603 0.93846 0.84506 0.0
H4466 H 0.49843 0.90157 0.83685 0.0
H4467 H 0.48905 0.94103 0.85251 0.0
H4468 H 0.53069 0.94749 0.86192 0.0
H4469 H 0.50845 0.93754 0.86396 0.0
H4470 H 0.51672 0.9128 0.82919 0.0
H4471 H 0.53918 0.92198 0.82803 0.0
C4472 C 0.47834 0.9085 0.83418 0.0
C4473 C 0.46916 0.91896 0.83614 0.0
C4474 C 0.49151 0.90969 0.83885 0.0
C4475 C 0.49586 0.92162 0.84506 0.0
C4476 C 0.48622 0.93161 0.84793 0.0
C4477 C 0.47297 0.93021 0.84361 0.0
C4478 C 0.52782 0.93956 0.85506 0.0
C4479 C 0.53651 0.93558 0.84473 0.0
C4480 C 0.51502 0.93395 0.8561 0.0
C4481 C 0.51048 0.92464 0.84649 0.0
C4482 C 0.51971 0.91984 0.83688 0.0
C4483 C 0.53266 0.92516 0.83613 0.0
H4484 H 0.06153 0.53122 0.86208 0.0
H4485 H 0.08985 0.53822 0.83012 0.0
H4486 H 0.07012 0.50849 0.86483 0.0
H4487 H 0.09787 0.51531 0.83213 0.0
H4488 H 0.10897 0.47338 0.83303 0.0
H4489 H 0.1076 0.49639 0.84143 0.0
H4490 H 0.06599 0.48968 0.85194 0.0
H4491 H 0.06782 0.46661 0.84432 0.0
C4492 C 0.0698 0.52794 0.85583 0.0
C4493 C 0.07491 0.53633 0.84575 0.0
C4494 C 0.07465 0.51488 0.85731 0.0
C4495 C 0.08441 0.50983 0.84843 0.0
C4496 C 0.0904 0.51875 0.83922 0.0
C4497 C 0.08577 0.53193 0.83799 0.0
C4498 C 0.09975 0.47677 0.8377 0.0
C4499 C 0.0885 0.46837 0.83814 0.0
C4500 C 0.09889 0.48998 0.84235 0.0
C4501 C 0.0866 0.49509 0.84712 0.0
C4502 C 0.07568 0.48619 0.84852 0.0
C4503 C 0.07666 0.47293 0.84411 0.0
H4504 H 0.48227 0.0644 0.86274 0.0
H4505 H 0.47494 0.09081 0.82927 0.0
H4506 H 0.50447 0.07422 0.86574 0.0
H4507 H 0.49734 0.09994 0.83146 0.0
H4508 H 0.53857 0.11244 0.83183 0.0
H4509 H 0.51559 0.11081 0.84013 0.0
H4510 H 0.52398 0.07056 0.85424 0.0
H4511 H 0.54705 0.07281 0.84684 0.0
C4512 C 0.48536 0.07252 0.8562 0.0
C4513 C 0.47704 0.07674 0.84566 0.0
C4514 C 0.49813 0.07806 0.8578 0.0
C4515 C 0.503 0.08759 0.84859 0.0
C4516 C 0.49408 0.0927 0.83885 0.0
C4517 C 0.48117 0.08742 0.83751 0.0
C4518 C 0.53554 0.10352 0.83726 0.0
C4519 C 0.54443 0.09274 0.83875 0.0
C4520 C 0.52234 0.10248 0.84186 0.0
C4521 C 0.51768 0.0904 0.84754 0.0
C4522 C 0.52706 0.08009 0.85005 0.0
C4523 C 0.54034 0.08131 0.84577 0.0
H4524 H 0.92306 0.4743 0.83311 0.0
H4525 H 0.95587 0.48209 0.86027 0.0
H4526 H 0.91555 0.49737 0.83553 0.0
H4527 H 0.94798 0.50503 0.86333 0.0
H4528 H 0.94723 0.54593 0.84064 0.0
H4529 H 0.95025 0.52308 0.84849 0.0
H4530 H 0.90734 0.51672 0.84637 0.0
H4531 H 0.90457 0.53965 0.83793 0.0
C4532 C 0.92835 0.48081 0.84003 0.0
C4533 C 0.94023 0.47653 0.84624 0.0
C4534 C 0.924 0.49407 0.84149 0.0
C4535 C 0.93135 0.50322 0.84939 0.0
C4536 C 0.94232 0.4984 0.85684 0.0
C4537 C 0.94681 0.48523 0.85515 0.0
C4538 C 0.93844 0.53977 0.84236 0.0
C4539 C 0.9257 0.54443 0.8388 0.0
C4540 C 0.94011 0.52664 0.8469 0.0
C4541 C 0.92903 0.51792 0.84795 0.0
C4542 C 0.91611 0.52307 0.84547 0.0
C4543 C 0.91447 0.53621 0.84079 0.0
H4544 H 0.16954 0.46604 0.06841 0.0
H4545 H 0.18026 0.47425 0.10945 0.0
H4546 H 0.16238 0.48914 0.06553 0.0
H4547 H 0.17223 0.4973 0.10706 0.0
H4548 H 0.18267 0.53901 0.08911 0.0
H4549 H 0.1812 0.51611 0.0972 0.0
H4550 H 0.1496 0.50803 0.06851 0.0
H4551 H 0.1519 0.53077 0.05983 0.0
C4552 C 0.16974 0.47271 0.077 0.0
C4553 C 0.17539 0.46849 0.08913 0.0
C4554 C 0.16559 0.486 0.07541 0.0
C4555 C 0.16688 0.4953 0.08601 0.0
C4556 C 0.17141 0.4906 0.09856 0.0
C4557 C 0.17584 0.47736 0.10002 0.0
C4558 C 0.17517 0.53242 0.08479 0.0
C4559 C 0.16757 0.53654 0.0737 0.0
C4560 C 0.17425 0.51923 0.08947 0.0
C4561 C 0.16548 0.50998 0.08332 0.0
C4562 C 0.15682 0.51466 0.07319 0.0
C4563 C 0.15801 0.52774 0.06829 0.0
H4564 H 0.1502 0.48123 0.95416 0.0
H4565 H 0.17893 0.47382 0.92264 0.0
H4566 H 0.14724 0.50415 0.94621 0.0
H4567 H 0.17656 0.49692 0.91504 0.0
H4568 H 0.17054 0.54482 0.94721 0.0
H4569 H 0.16246 0.52196 0.94954 0.0
H4570 H 0.16564 0.51644 0.90658 0.0
H4571 H 0.17418 0.53942 0.90448 0.0
C4572 C 0.15565 0.48445 0.94533 0.0
C4573 C 0.16499 0.47589 0.93915 0.0
C4574 C 0.15402 0.4976 0.94081 0.0
C4575 C 0.16194 0.50253 0.93023 0.0
C4576 C 0.17024 0.4935 0.92319 0.0
C4577 C 0.17167 0.48024 0.92757 0.0
C4578 C 0.16899 0.53885 0.93825 0.0
C4579 C 0.17285 0.54376 0.92569 0.0
C4580 C 0.16431 0.52573 0.93953 0.0
C4581 C 0.16349 0.51725 0.92824 0.0
C4582 C 0.16632 0.52263 0.91549 0.0
C4583 C 0.17107 0.53579 0.91425 0.0
H4584 H 0.47552 0.17687 0.90181 0.0
H4585 H 0.46738 0.16753 0.9432 0.0
H4586 H 0.49842 0.16844 0.9043 0.0
H4587 H 0.49031 0.15989 0.94612 0.0
H4588 H 0.53971 0.18043 0.92274 0.0
H4589 H 0.51706 0.17812 0.91418 0.0
H4590 H 0.50924 0.14685 0.94327 0.0
H4591 H 0.53173 0.14991 0.95237 0.0
C4592 C 0.47858 0.17259 0.91133 0.0
C4593 C 0.46981 0.17272 0.92231 0.0
C4594 C 0.49173 0.16793 0.91284 0.0
C4595 C 0.49642 0.16373 0.92549 0.0
C4596 C 0.48716 0.16286 0.93616 0.0
C4597 C 0.47397 0.16728 0.93456 0.0
C4598 C 0.53327 0.1728 0.92703 0.0
C4599 C 0.53733 0.16556 0.93838 0.0
C4600 C 0.52023 0.17139 0.92208 0.0
C4601 C 0.51109 0.16251 0.92824 0.0
C4602 C 0.5158 0.15412 0.93857 0.0
C4603 C 0.52873 0.15578 0.94373 0.0
H4604 H 0.8382 0.543 0.919 0.0
H4605 H 0.85423 0.52494 0.95502 0.0
H4606 H 0.83825 0.52106 0.90808 0.0
H4607 H 0.85395 0.50314 0.94429 0.0
H4608 H 0.8506 0.46392 0.92508 0.0
H4609 H 0.85987 0.48654 0.9275 0.0
H4610 H 0.82256 0.50325 0.91303 0.0
H4611 H 0.8135 0.48088 0.91042 0.0
C4612 C 0.84207 0.53444 0.92447 0.0
C4613 C 0.84582 0.53564 0.93801 0.0
C4614 C 0.84205 0.52186 0.91823 0.0
C4615 C 0.8458 0.51029 0.92541 0.0
C4616 C 0.85099 0.51179 0.93843 0.0
C4617 C 0.85101 0.52432 0.94465 0.0
C4618 C 0.84455 0.47243 0.92207 0.0
C4619 C 0.83121 0.47065 0.91787 0.0
C4620 C 0.84984 0.48538 0.92348 0.0
C4621 C 0.84191 0.49672 0.92062 0.0
C4622 C 0.82903 0.49479 0.91524 0.0
C4623 C 0.82374 0.48193 0.91391 0.0
H4624 H 0.47431 0.82858 0.92146 0.0
H4625 H 0.48191 0.8618 0.94812 0.0
H4626 H 0.49684 0.83048 0.91252 0.0
H4627 H 0.50422 0.86454 0.93849 0.0
H4628 H 0.53814 0.83082 0.89993 0.0
H4629 H 0.51515 0.83908 0.90171 0.0
H4630 H 0.52366 0.85292 0.94203 0.0
H4631 H 0.54674 0.84558 0.93963 0.0
C4632 C 0.48065 0.83669 0.92496 0.0
C4633 C 0.47654 0.84487 0.93562 0.0
C4634 C 0.49362 0.83788 0.91979 0.0
C4635 C 0.50263 0.84749 0.92499 0.0
C4636 C 0.49782 0.8567 0.93456 0.0
C4637 C 0.48498 0.85524 0.94 0.0
C4638 C 0.53513 0.83619 0.9089 0.0
C4639 C 0.54407 0.83764 0.91965 0.0
C4640 C 0.52193 0.84076 0.91003 0.0
C4641 C 0.5173 0.84636 0.92216 0.0
C4642 C 0.52671 0.84881 0.93246 0.0
C4643 C 0.54 0.84456 0.93115 0.0
H4644 H 0.8301 0.47477 0.09013 0.0
H4645 H 0.86259 0.48235 0.06258 0.0
H4646 H 0.83224 0.49732 0.09899 0.0
H4647 H 0.86553 0.5047 0.07207 0.0
H4648 H 0.84566 0.5469 0.07084 0.0
H4649 H 0.85333 0.52392 0.06851 0.0
H4650 H 0.84122 0.5158 0.10945 0.0
H4651 H 0.83267 0.5387 0.11123 0.0
C4652 C 0.83811 0.4811 0.0864 0.0
C4653 C 0.84598 0.47699 0.07551 0.0
C4654 C 0.83943 0.49408 0.09152 0.0
C4655 C 0.84886 0.50309 0.08602 0.0
C4656 C 0.85783 0.49827 0.07623 0.0
C4657 C 0.85625 0.48543 0.07087 0.0
C4658 C 0.8451 0.54028 0.07945 0.0
C4659 C 0.83858 0.54442 0.09116 0.0
C4660 C 0.84954 0.52706 0.07818 0.0
C4661 C 0.84767 0.51778 0.08871 0.0
C4662 C 0.84247 0.52249 0.10098 0.0
C4663 C 0.83773 0.53564 0.1021 0.0
H4664 H 0.46616 0.84637 0.07101 0.0
H4665 H 0.47469 0.83306 0.11122 0.0
H4666 H 0.48918 0.85383 0.06847 0.0
H4667 H 0.49763 0.84141 0.10926 0.0
H4668 H 0.53851 0.83033 0.08978 0.0
H4669 H 0.51598 0.83245 0.09867 0.0
H4670 H 0.50852 0.86577 0.07181 0.0
H4671 H 0.53085 0.86283 0.06226 0.0
C4672 C 0.47287 0.8457 0.07955 0.0
C4673 C 0.4688 0.83915 0.09126 0.0
C4674 C 0.48612 0.85001 0.07816 0.0
C4675 C 0.4955 0.84799 0.08858 0.0
C4676 C 0.49087 0.84276 0.10087 0.0
C4677 C 0.4777 0.83815 0.1021 0.0
C4678 C 0.53216 0.83834 0.08606 0.0
C4679 C 0.53625 0.84623 0.07518 0.0
C4680 C 0.51919 0.83965 0.09121 0.0
C4681 C 0.51017 0.8491 0.08575 0.0
C4682 C 0.51496 0.85806 0.07594 0.0
C4683 C 0.52779 0.85648 0.07054 0.0
H4684 H 0.53692 0.18056 0.1119 0.0
H4685 H 0.54551 0.1667 0.07188 0.0
H4686 H 0.51396 0.17224 0.10999 0.0
H4687 H 0.52247 0.15926 0.06939 0.0
H4688 H 0.47313 0.1831 0.09025 0.0
H4689 H 0.49564 0.18108 0.09925 0.0
H4690 H 0.50312 0.14736 0.07286 0.0
H4691 H 0.48083 0.15021 0.06322 0.0
C4692 C 0.53392 0.17536 0.10283 0.0
C4693 C 0.54284 0.1742 0.09203 0.0
C4694 C 0.52074 0.17076 0.10163 0.0
C4695 C 0.51613 0.16537 0.0894 0.0
C4696 C 0.52553 0.1632 0.07903 0.0
C4697 C 0.53879 0.1675 0.08039 0.0
C4698 C 0.47948 0.17503 0.08668 0.0
C4699 C 0.47541 0.16699 0.07589 0.0
C4700 C 0.49244 0.17378 0.09187 0.0
C4701 C 0.50146 0.16424 0.08657 0.0
C4702 C 0.49669 0.15514 0.07687 0.0
C4703 C 0.48387 0.15666 0.07142 0.0
H4704 H 0.56981 0.66663 0.9666 0.0
H4705 H 0.61094 0.67731 0.97438 0.0
H4706 H 0.5673 0.65904 0.98959 0.0
H4707 H 0.6089 0.66891 0.99733 0.0
H4708 H 0.59035 0.68096 0.03855 0.0
H4709 H 0.59893 0.67849 0.01592 0.0
H4710 H 0.57056 0.64641 0.00866 0.0
H4711 H 0.56142 0.64966 0.03111 0.0
C4712 C 0.57851 0.66668 0.97312 0.0
C4713 C 0.59053 0.67251 0.96886 0.0
C4714 C 0.57714 0.6623 0.98635 0.0
C4715 C 0.58784 0.66357 0.99552 0.0
C4716 C 0.60033 0.66811 0.9907 0.0
C4717 C 0.60159 0.67276 0.97753 0.0
C4718 C 0.58624 0.67313 0.03223 0.0
C4719 C 0.57505 0.66571 0.03642 0.0
C4720 C 0.5912 0.67162 0.01921 0.0
C4721 C 0.58522 0.66246 0.01022 0.0
C4722 C 0.5751 0.6539 0.01509 0.0
C4723 C 0.56992 0.65567 0.02799 0.0
H4724 H 0.36216 0.56087 0.03103 0.0
H4725 H 0.33072 0.58972 0.03823 0.0
H4726 H 0.36481 0.56929 0.00824 0.0
H4727 H 0.33265 0.59762 0.01526 0.0
H4728 H 0.34396 0.56734 0.9665 0.0
H4729 H 0.3515 0.5653 0.98958 0.0
H4730 H 0.34226 0.60723 0.99626 0.0
H4731 H 0.334 0.60886 0.97321 0.0
C4732 C 0.35601 0.56922 0.02778 0.0
C4733 C 0.3461 0.57453 0.03626 0.0
C4734 C 0.35743 0.57398 0.01469 0.0
C4735 C 0.34868 0.58387 0.00969 0.0
C4736 C 0.33964 0.59004 0.01867 0.0
C4737 C 0.33846 0.58549 0.03188 0.0
C4738 C 0.34403 0.5762 0.97281 0.0
C4739 C 0.33849 0.58823 0.96821 0.0
C4740 C 0.34839 0.5751 0.98607 0.0
C4741 C 0.34734 0.58607 0.99495 0.0
C4742 C 0.34294 0.59849 0.98984 0.0
C4743 C 0.33837 0.5995 0.97662 0.0
H4744 H 0.42086 0.32902 0.03855 0.0
H4745 H 0.44663 0.36278 0.0304 0.0
H4746 H 0.41161 0.33054 0.01615 0.0
H4747 H 0.43662 0.36519 0.00822 0.0
H4748 H 0.43785 0.34616 0.96581 0.0
H4749 H 0.44015 0.35381 0.98878 0.0
H4750 H 0.40055 0.33834 0.99782 0.0
H4751 H 0.39897 0.3297 0.97497 0.0
C4752 C 0.42408 0.33717 0.03212 0.0
C4753 C 0.43461 0.34561 0.03603 0.0
C4754 C 0.41873 0.33814 0.01921 0.0
C4755 C 0.42359 0.3478 0.01007 0.0
C4756 C 0.43298 0.35729 0.01471 0.0
C4757 C 0.43863 0.35603 0.02747 0.0
C4758 C 0.42951 0.34481 0.97265 0.0
C4759 C 0.41831 0.3373 0.96878 0.0
C4760 C 0.43075 0.34924 0.98588 0.0
C4761 C 0.42066 0.34644 0.99543 0.0
C4762 C 0.40875 0.34027 0.99097 0.0
C4763 C 0.40772 0.33548 0.97784 0.0
H4764 H 0.64984 0.45027 0.03077 0.0
H4765 H 0.68185 0.42225 0.03871 0.0
H4766 H 0.6472 0.44101 0.00829 0.0
H4767 H 0.68001 0.41361 0.01604 0.0
H4768 H 0.67958 0.40131 0.97452 0.0
H4769 H 0.67113 0.4033 0.99744 0.0
H4770 H 0.65964 0.44441 0.98923 0.0
H4771 H 0.66723 0.44189 0.96623 0.0
C4772 C 0.65614 0.44194 0.02774 0.0
C4773 C 0.66618 0.43709 0.03634 0.0
C4774 C 0.65473 0.43671 0.01482 0.0
C4775 C 0.66365 0.42683 0.01008 0.0
C4776 C 0.67286 0.42115 0.01921 0.0
C4777 C 0.674 0.42614 0.03226 0.0
C4778 C 0.67469 0.41053 0.97757 0.0
C4779 C 0.67396 0.42145 0.96875 0.0
C4780 C 0.67001 0.41177 0.99073 0.0
C4781 C 0.66497 0.42413 0.99541 0.0
C4782 C 0.66328 0.43467 0.98611 0.0
C4783 C 0.66768 0.43329 0.97288 0.0
H4784 H 0.57364 0.34728 0.04613 0.0
H4785 H 0.61258 0.33077 0.03726 0.0
H4786 H 0.57155 0.35498 0.02315 0.0
H4787 H 0.61119 0.33942 0.0144 0.0
H4788 H 0.59095 0.33001 0.97359 0.0
H4789 H 0.60016 0.33158 0.99601 0.0
H4790 H 0.57535 0.36643 1.00374 0.0
H4791 H 0.5654 0.36401 0.98154 0.0
C4792 C 0.58204 0.34593 0.03935 0.0
C4793 C 0.5932 0.3384 0.0433 0.0
C4794 C 0.58092 0.35039 0.02612 0.0
C4795 C 0.59108 0.34758 0.01665 0.0
C4796 C 0.60294 0.34137 0.02119 0.0
C4797 C 0.60386 0.33657 0.03433 0.0
C4798 C 0.58778 0.33823 0.97997 0.0
C4799 C 0.5773 0.34671 0.976 0.0
C4800 C 0.59311 0.33922 0.99289 0.0
C4801 C 0.58827 0.34894 1.00199 0.0
C4802 C 0.57897 0.35849 0.99728 0.0
C4803 C 0.57336 0.35722 0.9845 0.0
H4804 H 0.6518 0.5592 0.98142 0.0
H4805 H 0.68199 0.58916 0.97348 0.0
H4806 H 0.64857 0.5683 1.00388 0.0
H4807 H 0.67959 0.59769 0.99613 0.0
H4808 H 0.66829 0.56906 0.04608 0.0
H4809 H 0.66106 0.56588 0.02307 0.0
H4810 H 0.66991 0.60757 0.01459 0.0
H4811 H 0.67803 0.61029 0.03757 0.0
C4812 C 0.65759 0.56789 0.98445 0.0
C4813 C 0.66729 0.57336 0.97584 0.0
C4814 C 0.65584 0.57305 0.99736 0.0
C4815 C 0.66408 0.5835 1.00209 0.0
C4816 C 0.67295 0.58971 0.99297 0.0
C4817 C 0.67442 0.58477 0.97993 0.0
C4818 C 0.66821 0.57763 0.03938 0.0
C4819 C 0.67367 0.58989 0.04346 0.0
C4820 C 0.66402 0.57586 0.02613 0.0
C4821 C 0.6651 0.58641 0.01675 0.0
C4822 C 0.66928 0.59911 0.02137 0.0
C4823 C 0.67375 0.60076 0.03456 0.0
H4824 H 0.43899 0.66811 0.04692 0.0
H4825 H 0.40093 0.68632 0.03757 0.0
H4826 H 0.44123 0.66066 0.02386 0.0
H4827 H 0.40239 0.67789 0.01464 0.0
H4828 H 0.42248 0.68517 0.9735 0.0
H4829 H 0.41361 0.68473 0.99611 0.0
H4830 H 0.43722 0.64923 1.00461 0.0
H4831 H 0.44692 0.65056 0.9822 0.0
C4832 C 0.43082 0.66996 0.03999 0.0
C4833 C 0.41987 0.67784 0.04386 0.0
C4834 C 0.43201 0.66562 0.02671 0.0
C4835 C 0.4221 0.66886 0.01712 0.0
C4836 C 0.41046 0.67558 0.02152 0.0
C4837 C 0.4095 0.68027 0.0347 0.0
C4838 C 0.42546 0.67707 0.98011 0.0
C4839 C 0.43551 0.66804 0.97625 0.0
C4840 C 0.42033 0.67674 0.99315 0.0
C4841 C 0.42491 0.66712 1.00249 0.0
C4842 C 0.43382 0.65711 0.99796 0.0
C4843 C 0.43926 0.65774 0.98506 0.0
H4844 H 0.33321 0.42359 0.97389 0.0
H4845 H 0.35879 0.45778 0.98108 0.0
H4846 H 0.33614 0.41651 0.99708 0.0
H4847 H 0.3623 0.45039 1.00412 0.0
H4848 H 0.33975 0.40638 0.03969 0.0
H4849 H 0.34791 0.40921 0.01664 0.0
H4850 H 0.34684 0.45229 0.02195 0.0
H4851 H 0.3391 0.44929 0.04484 0.0
C4852 C 0.3399 0.42929 0.9803 0.0
C4853 C 0.34551 0.44139 0.97582 0.0
C4854 C 0.34166 0.4252 0.99361 0.0
C4855 C 0.34922 0.43306 1.0026 0.0
C4856 C 0.3561 0.44432 0.99759 0.0
C4857 C 0.35414 0.44852 0.98438 0.0
C4858 C 0.34188 0.41638 0.03601 0.0
C4859 C 0.33897 0.42764 0.04393 0.0
C4860 C 0.34639 0.41803 0.0228 0.0
C4861 C 0.34791 0.43098 0.01734 0.0
C4862 C 0.34601 0.44216 0.02578 0.0
C4863 C 0.34154 0.44049 0.03892 0.0
H4864 H 0.97956 0.602 0.69805 0.0
H4865 H 0.96312 0.58597 0.6613 0.0
H4866 H 1.00201 0.59964 0.68919 0.0
H4867 H 0.98584 0.58383 0.65217 0.0
H4868 H 0.02463 0.5572 0.65863 0.0
H4869 H 1.00271 0.56763 0.65839 0.0
H4870 H 0.01991 0.60434 0.67378 0.0
H4871 H 0.04197 0.59369 0.67441 0.0
C4872 C 0.98074 0.59826 0.68791 0.0
C4873 C 0.9696 0.59383 0.68051 0.0
C4874 C 0.99366 0.59708 0.68273 0.0
C4875 C 0.99578 0.59139 0.67001 0.0
C4876 C 0.98454 0.58808 0.66209 0.0
C4877 C 0.97153 0.58933 0.66729 0.0
C4878 C 0.02383 0.5676 0.66169 0.0
C4879 C 0.03497 0.57446 0.66698 0.0
C4880 C 0.01123 0.57367 0.66139 0.0
C4881 C 0.00948 0.58674 0.66635 0.0
C4882 C 0.0209 0.59414 0.67017 0.0
C4883 C 0.03355 0.58805 0.67048 0.0
H4884 H 0.41904 0.04318 0.67283 0.0
H4885 H 0.45496 0.02495 0.65676 0.0
H4886 H 0.40784 0.02141 0.67221 0.0
H4887 H 0.44401 1.00331 0.65656 0.0
H4888 H 0.42514 0.96411 0.66013 0.0
H4889 H 0.42754 0.98668 0.65072 0.0
H4890 H 0.41214 1.00352 0.68763 0.0
H4891 H 0.4095 0.98122 0.69675 0.0
C4892 C 0.42444 0.03463 0.66884 0.0
C4893 C 0.43804 0.03571 0.66528 0.0
C4894 C 0.41804 0.02214 0.66853 0.0
C4895 C 0.42513 0.01053 0.66469 0.0
C4896 C 0.4382 0.01197 0.65961 0.0
C4897 C 0.44456 0.02442 0.65988 0.0
C4898 C 0.42191 0.97264 0.66603 0.0
C4899 C 0.41747 0.97093 0.6793 0.0
C4900 C 0.42332 0.98557 0.66068 0.0
C4901 C 0.42023 0.99695 0.66848 0.0
C4902 C 0.41455 0.99506 0.68125 0.0
C4903 C 0.41321 0.98223 0.68658 0.0
H4904 H 0.04575 0.44269 0.6665 0.0
H4905 H 0.03758 0.40191 0.67822 0.0
H4906 H 0.02281 0.44518 0.65874 0.0
H4907 H 0.01472 0.4039 0.66962 0.0
H4908 H 0.98132 0.45103 0.64888 0.0
H4909 H 1.0038 0.44181 0.64613 0.0
H4910 H 0.99608 0.4141 0.67868 0.0
H4911 H 0.97342 0.42272 0.68063 0.0
C4912 C 0.03915 0.43405 0.66675 0.0
C4913 C 0.04329 0.42215 0.67292 0.0
C4914 C 0.02596 0.43541 0.66227 0.0
C4915 C 0.01669 0.4248 0.66376 0.0
C4916 C 0.0214 0.4124 0.66865 0.0
C4917 C 0.03453 0.41117 0.67341 0.0
C4918 C 0.98435 0.44264 0.65509 0.0
C4919 C 0.97577 0.43771 0.6651 0.0
C4920 C 0.99727 0.43743 0.65363 0.0
C4921 C 1.00202 0.42748 0.66245 0.0
C4922 C 0.9929 0.4217 0.67161 0.0
C4923 C 0.97985 0.42668 0.67281 0.0
H4924 H 0.56265 0.98235 0.64996 0.0
H4925 H 0.59012 0.97437 0.68241 0.0
H4926 H 0.57244 1.00456 0.647 0.0
H4927 H 0.59928 0.9968 0.68027 0.0
H4928 H 0.61222 0.03797 0.67972 0.0
H4929 H 0.61003 0.01506 0.67131 0.0
H4930 H 0.56931 0.02392 0.65899 0.0
H4931 H 0.57206 0.04691 0.66651 0.0
C4932 C 0.57098 0.98531 0.65629 0.0
C4933 C 0.57553 0.9768 0.66653 0.0
C4934 C 0.57652 0.99808 0.6547 0.0
C4935 C 0.58639 1.00276 0.66365 0.0
C4936 C 0.59177 0.99368 0.67308 0.0
C4937 C 0.58648 0.98076 0.6744 0.0
C4938 C 0.60306 0.03507 0.67464 0.0
C4939 C 0.59231 0.04406 0.67368 0.0
C4940 C 0.6017 0.02191 0.66998 0.0
C4941 C 0.58936 0.01741 0.66477 0.0
C4942 C 0.57903 0.02689 0.66279 0.0
C4943 C 0.58054 0.04012 0.66714 0.0
H4944 H 0.03847 0.4215 0.329 0.0
H4945 H 0.03095 0.44802 0.36234 0.0
H4946 H 0.01601 0.41244 0.33104 0.0
H4947 H 0.00871 0.43827 0.36522 0.0
H4948 H 0.96626 0.43972 0.34607 0.0
H4949 H 0.9893 0.44195 0.35357 0.0
H4950 H 0.99768 0.40164 0.33961 0.0
H4951 H 0.97473 0.40003 0.33121 0.0
C4952 C 0.03217 0.42494 0.33717 0.0
C4953 C 0.03627 0.43562 0.34533 0.0
C4954 C 0.01924 0.41969 0.33843 0.0
C4955 C 0.01027 0.42485 0.3481 0.0
C4956 C 0.0151 0.43439 0.35733 0.0
C4957 C 0.02788 0.4399 0.35579 0.0
C4958 C 0.97296 0.43121 0.34505 0.0
C4959 C 0.96889 0.41977 0.33804 0.0
C4960 C 0.98622 0.43242 0.3494 0.0
C4961 C 0.99559 0.42207 0.34696 0.0
C4962 C 0.99094 0.40999 0.34128 0.0
C4963 C 0.97776 0.40896 0.33662 0.0
H4964 H 0.56415 0.02935 0.36158 0.0
H4965 H 0.58958 0.03774 0.32761 0.0
H4966 H 0.57371 0.0069 0.36331 0.0
H4967 H 0.59836 0.0151 0.32846 0.0
H4968 H 0.61097 0.97357 0.3276 0.0
H4969 H 0.60936 0.99656 0.33589 0.0
H4970 H 0.56985 0.98767 0.35169 0.0
H4971 H 0.57218 0.96457 0.34436 0.0
C4972 C 0.57198 0.02641 0.35463 0.0
C4973 C 0.57605 0.03514 0.34437 0.0
C4974 C 0.57736 0.01349 0.35549 0.0
C4975 C 0.58653 0.00888 0.34577 0.0
C4976 C 0.59142 0.01814 0.33623 0.0
C4977 C 0.58634 0.03118 0.33566 0.0
C4978 C 0.60221 0.97653 0.33331 0.0
C4979 C 0.59169 0.96746 0.33539 0.0
C4980 C 0.60117 0.98973 0.33792 0.0
C4981 C 0.58932 0.99423 0.34419 0.0
C4982 C 0.57922 0.98473 0.34708 0.0
C4983 C 0.58047 0.97144 0.34282 0.0
H4984 H 0.98109 0.56023 0.36149 0.0
H4985 H 0.97318 0.58946 0.33058 0.0
H4986 H 1.00343 0.56961 0.36476 0.0
H4987 H 0.99572 0.59824 0.333 0.0
H4988 H 0.037 0.61101 0.33425 0.0
H4989 H 0.01404 0.60842 0.34244 0.0
H4990 H 0.02277 0.56708 0.35262 0.0
H4991 H 0.04577 0.57018 0.34535 0.0
C4992 C 0.9841 0.56882 0.35555 0.0
C4993 C 0.97555 0.57401 0.34565 0.0
C4994 C 0.99695 0.57414 0.35731 0.0
C4995 C 1.00166 0.58445 0.34888 0.0
C4996 C 0.99257 0.59038 0.33979 0.0
C4997 C 0.9796 0.5853 0.33831 0.0
C4998 C 0.03405 0.6016 0.33884 0.0
C4999 C 0.04302 0.59079 0.33927 0.0
C5000 C 0.02086 0.60002 0.34335 0.0
C5001 C 0.01631 0.58743 0.34789 0.0
C5002 C 0.02576 0.57698 0.34935 0.0
C5003 C 0.03901 0.57869 0.34514 0.0
H5004 H 0.42372 0.9719 0.33432 0.0
H5005 H 0.45646 0.98019 0.36141 0.0
H5006 H 0.41597 0.99492 0.3366 0.0
H5007 H 0.44837 1.00308 0.36429 0.0
H5008 H 0.40473 0.03726 0.33883 0.0
H5009 H 0.40767 0.01441 0.34747 0.0
H5010 H 0.45058 0.02085 0.34893 0.0
H5011 H 0.44743 0.04359 0.34079 0.0
C5012 C 0.42893 0.9785 0.3412 0.0
C5013 C 0.44087 0.97438 0.34743 0.0
C5014 C 0.42446 0.99173 0.34258 0.0
C5015 C 0.43175 1.001 0.35038 0.0
C5016 C 0.44276 0.99634 0.35787 0.0
C5017 C 0.44736 0.9832 0.35629 0.0
C5018 C 0.41468 0.03387 0.34159 0.0
C5019 C 0.42587 0.04207 0.33931 0.0
C5020 C 0.41641 0.02077 0.34638 0.0
C5021 C 0.42937 0.01567 0.34876 0.0
C5022 C 0.44042 0.02439 0.34744 0.0
C5023 C 0.43867 0.03745 0.34273 0.0
H5024 H 0.66568 0.96676 0.57178 0.0
H5025 H 0.68014 0.97458 0.61174 0.0
H5026 H 0.65824 0.98986 0.56984 0.0
H5027 H 0.67186 0.99761 0.61037 0.0
H5028 H 0.68271 0.03864 0.59091 0.0
H5029 H 0.68063 0.01608 0.59974 0.0
H5030 H 0.64635 0.00917 0.57397 0.0
H5031 H 0.6492 0.03154 0.56449 0.0
C5032 C 0.66663 0.97333 0.5804 0.0
C5033 C 0.67348 0.96905 0.59186 0.0
C5034 C 0.66233 0.98662 0.57936 0.0
C5035 C 0.66466 0.99582 0.58987 0.0
C5036 C 0.67024 0.99098 0.60192 0.0
C5037 C 0.67483 0.97777 0.60281 0.0
C5038 C 0.67448 0.03243 0.58746 0.0
C5039 C 0.66629 0.03667 0.57686 0.0
C5040 C 0.67321 0.01943 0.59255 0.0
C5041 C 0.66351 0.01054 0.58732 0.0
C5042 C 0.65424 0.01551 0.5779 0.0
C5043 C 0.65577 0.02837 0.57255 0.0
H5044 H 0.6599 0.98683 0.45717 0.0
H5045 H 0.67316 0.96924 0.4198 0.0
H5046 H 0.65925 0.00874 0.44672 0.0
H5047 H 0.67213 0.99128 0.40917 0.0
H5048 H 0.6968 0.03149 0.40995 0.0
H5049 H 0.68797 0.00909 0.4129 0.0
H5050 H 0.65203 0.02556 0.43077 0.0
H5051 H 0.66114 0.04823 0.428 0.0
C5052 C 0.66231 0.98757 0.4466 0.0
C5053 C 0.66702 0.97634 0.43945 0.0
C5054 C 0.66178 1.00016 0.44054 0.0
C5055 C 0.66591 1.00183 0.42717 0.0
C5056 C 0.66915 0.99036 0.41958 0.0
C5057 C 0.66971 0.97772 0.42567 0.0
C5058 C 0.68688 0.03038 0.41425 0.0
C5059 C 0.67981 0.04158 0.41906 0.0
C5060 C 0.68171 0.0175 0.41579 0.0
C5061 C 0.66934 0.01548 0.42223 0.0
C5062 C 0.66168 0.02678 0.42594 0.0
C5063 C 0.66686 0.03975 0.42431 0.0
H5064 H 0.03055 0.65028 0.45053 0.0
H5065 H 0.0382 0.68261 0.42282 0.0
H5066 H 0.00823 0.64729 0.44103 0.0
H5067 H 0.01565 0.68044 0.41395 0.0
H5068 H 0.9658 0.66654 0.4416 0.0
H5069 H 0.98887 0.65927 0.44427 0.0
H5070 H 0.99734 0.67132 0.40339 0.0
H5071 H 0.97433 0.67948 0.40127 0.0
C5072 C 0.02749 0.65658 0.44221 0.0
C5073 C 0.03596 0.66679 0.4375 0.0
C5074 C 0.01465 0.65497 0.43684 0.0
C5075 C 0.00986 0.66387 0.42698 0.0
C5076 C 0.01887 0.67329 0.42146 0.0
C5077 C 0.03185 0.67462 0.42658 0.0
C5078 C 0.97252 0.66716 0.43307 0.0
C5079 C 0.96843 0.67354 0.42127 0.0
C5080 C 0.9858 0.66296 0.43454 0.0
C5081 C 0.99519 0.66493 0.42412 0.0
C5082 C 0.99056 0.67001 0.41177 0.0
C5083 C 0.97735 0.67451 0.41045 0.0
H5084 H 0.36182 0.0295 0.44707 0.0
H5085 H 0.32806 0.03715 0.42115 0.0
H5086 H 0.3647 0.00741 0.43698 0.0
H5087 H 0.33005 0.01481 0.41181 0.0
H5088 H 0.33005 0.97375 0.3989 0.0
H5089 H 0.33831 0.99673 0.40066 0.0
H5090 H 0.35371 0.98772 0.4403 0.0
H5091 H 0.34644 0.96464 0.43783 0.0
C5092 C 0.35516 0.02648 0.43903 0.0
C5093 C 0.34461 0.03487 0.43498 0.0
C5094 C 0.35669 0.01377 0.43333 0.0
C5095 C 0.34736 0.009 0.42385 0.0
C5096 C 0.33755 0.01798 0.41899 0.0
C5097 C 0.3363 0.03084 0.42439 0.0
C5098 C 0.33574 0.97666 0.40769 0.0
C5099 C 0.33764 0.96758 0.41825 0.0
C5100 C 0.34031 0.98986 0.40883 0.0
C5101 C 0.34633 0.99435 0.42081 0.0
C5102 C 0.34925 0.9848 0.43085 0.0
C5103 C 0.34504 0.9715 0.42951 0.0
H5104 H 0.98246 0.36185 0.44747 0.0
H5105 H 0.97391 0.32774 0.42229 0.0
H5106 H 1.00472 0.36373 0.43753 0.0
H5107 H 0.99639 0.32872 0.41314 0.0
H5108 H 0.04717 0.34501 0.43853 0.0
H5109 H 0.02412 0.35234 0.4411 0.0
H5110 H 0.01471 0.33615 0.40185 0.0
H5111 H 0.03767 0.32785 0.40002 0.0
C5112 C 0.98532 0.3549 0.43962 0.0
C5113 C 0.9766 0.34457 0.43572 0.0
C5114 C 0.99813 0.35584 0.43402 0.0
C5115 C 1.00267 0.34612 0.4248 0.0
C5116 C 0.99341 0.3365 0.4201 0.0
C5117 C 0.98045 0.33584 0.4254 0.0
C5118 C 0.04021 0.3434 0.43033 0.0
C5119 C 0.04404 0.33583 0.41915 0.0
C5120 C 0.02694 0.34765 0.43172 0.0
C5121 C 0.01729 0.34463 0.4218 0.0
C5122 C 0.02165 0.33828 0.40993 0.0
C5123 C 0.03483 0.33367 0.40876 0.0
H5124 H 0.34691 0.04706 0.57364 0.0
H5125 H 0.33102 0.03795 0.61278 0.0
H5126 H 0.35407 0.02397 0.57103 0.0
H5127 H 0.33918 0.01495 0.61086 0.0
H5128 H 0.32846 0.97463 0.59041 0.0
H5129 H 0.33067 0.99694 0.59977 0.0
H5130 H 0.36503 1.00422 0.57417 0.0
H5131 H 0.36193 0.98215 0.56408 0.0
C5132 C 0.3456 0.0402 0.58197 0.0
C5133 C 0.33837 0.04413 0.59333 0.0
C5134 C 0.34975 0.02689 0.58055 0.0
C5135 C 0.34693 0.01733 0.59061 0.0
C5136 C 0.3411 0.02182 0.60268 0.0
C5137 C 0.33659 0.03504 0.6039 0.0
C5138 C 0.33669 0.9809 0.58707 0.0
C5139 C 0.34485 0.97685 0.57637 0.0
C5140 C 0.33806 0.99375 0.59249 0.0
C5141 C 0.34785 1.00269 0.58752 0.0
C5142 C 0.35704 0.99789 0.57791 0.0
C5143 C 0.35538 0.9852 0.5722 0.0
H5144 H 0.97523 0.32614 0.61244 0.0
H5145 H 0.96524 0.34467 0.5747 0.0
H5146 H 0.99817 0.33445 0.61059 0.0
H5147 H 0.98828 0.35197 0.57204 0.0
H5148 H 0.02994 0.36157 0.56543 0.0
H5149 H 0.00774 0.36309 0.57554 0.0
H5150 H 0.01644 0.32758 0.59906 0.0
H5151 H 0.03888 0.32698 0.58979 0.0
C5152 C 0.97797 0.33223 0.60386 0.0
C5153 C 0.96862 0.3348 0.59369 0.0
C5154 C 0.99115 0.33685 0.60266 0.0
C5155 C 0.99537 0.34359 0.59097 0.0
C5156 C 0.98559 0.34697 0.58129 0.0
C5157 C 0.97232 0.34273 0.58273 0.0
C5158 C 0.02717 0.35443 0.57314 0.0
C5159 C 0.03599 0.34409 0.57678 0.0
C5160 C 0.01438 0.35516 0.57883 0.0
C5161 C 0.00996 0.34521 0.58785 0.0
C5162 C 0.01931 0.33553 0.59227 0.0
C5163 C 0.03225 0.3351 0.5869 0.0
H5164 H 0.97366 0.68289 0.59037 0.0
H5165 H 0.98201 0.65029 0.56317 0.0
H5166 H 0.99614 0.68119 0.59944 0.0
H5167 H 1.00429 0.64773 0.57292 0.0
H5168 H 0.04653 0.66726 0.57259 0.0
H5169 H 0.02359 0.65965 0.56982 0.0
H5170 H 0.01445 0.6727 0.61027 0.0
H5171 H 0.0373 0.68126 0.61242 0.0
C5172 C 0.98016 0.67495 0.58676 0.0
C5173 C 0.97626 0.66691 0.57592 0.0
C5174 C 0.9931 0.67388 0.59201 0.0
C5175 C 1.0023 0.66451 0.58672 0.0
C5176 C 0.99772 0.6554 0.57693 0.0
C5177 C 0.98492 0.65676 0.57141 0.0
C5178 C 0.03968 0.66806 0.581 0.0
C5179 C 0.04352 0.67486 0.59266 0.0
C5180 C 0.02648 0.66365 0.57949 0.0
C5181 C 0.01692 0.6658 0.58972 0.0
C5182 C 0.02133 0.67127 0.60199 0.0
C5183 C 0.03446 0.67601 0.60334 0.0
loop_
_geom_bond_atom_site_label_1
_geom_bond_atom_site_label_2
_geom_bond_distance
_geom_bond_site_symmetry_2
_ccdc_geom_bond_type
Co0 O1 2.216 . S
Co0 O2 2.091 . S
Co0 O4 2.004 . S
Co0 O10 2.021 . S
Co0 O12 2.137 . S
Co0 O13 2.244 . S
O1 Co0 2.216 . S
O1 C8 1.247 . S
O2 Co0 2.091 . S
O2 C8 1.261 . S
C3 O12 1.247 . S
C3 O13 1.272 . S
O4 Co0 2.004 . S
O4 C9 1.259 . S
Co5 O6 2.061 . S
Co5 O11 2.052 . S
Co5 O13 2.135 . S
O6 Co5 2.061 . S
O6 C9 1.235 . S
C7 O10 1.238 . S
C7 O11 1.241 . S
C8 O1 1.247 . S
C8 O2 1.261 . S
C9 O4 1.259 . S
C9 O6 1.235 . S
O10 Co0 2.021 . S
O10 C7 1.238 . S
O11 Co5 2.052 . S
O11 C7 1.241 . S
O12 Co0 2.137 . S
O12 C3 1.247 . S
O13 Co0 2.244 . S
O13 C3 1.272 . S
O13 Co5 2.135 . S
Co14 O15 2.216 . S
Co14 O16 2.091 . S
Co14 O18 2.004 . S
Co14 O24 2.021 . S
Co14 O26 2.137 . S
Co14 O27 2.244 . S
O15 Co14 2.216 . S
O15 C22 1.247 . S
O16 Co14 2.091 . S
O16 C22 1.261 . S
C17 O26 1.247 . S
C17 O27 1.272 . S
O18 Co14 2.004 . S
O18 C23 1.259 . S
Co19 O20 2.061 . S
Co19 O25 2.052 . S
Co19 O27 2.135 . S
O20 Co19 2.061 . S
O20 C23 1.235 . S
C21 O24 1.238 . S
C21 O25 1.241 . S
C22 O15 1.247 . S
C22 O16 1.261 . S
C23 O18 1.259 . S
C23 O20 1.235 . S
O24 Co14 2.021 . S
O24 C21 1.238 . S
O25 Co19 2.052 . S
O25 C21 1.241 . S
O26 Co14 2.137 . S
O26 C17 1.247 . S
O27 Co14 2.244 . S
O27 C17 1.272 . S
O27 Co19 2.135 . S
Co28 O29 2.216 . S
Co28 O30 2.091 . S
Co28 O32 2.004 . S
Co28 O38 2.021 . S
Co28 O40 2.137 . S
Co28 O41 2.244 . S
O29 Co28 2.216 . S
O29 C36 1.247 . S
O30 Co28 2.091 . S
O30 C36 1.261 . S
C31 O40 1.247 . S
C31 O41 1.272 . S
O32 Co28 2.004 . S
O32 C37 1.259 . S
Co33 O34 2.061 . S
Co33 O39 2.052 . S
Co33 O41 2.135 . S
O34 Co33 2.061 . S
O34 C37 1.235 . S
C35 O38 1.238 . S
C35 O39 1.241 . S
C36 O29 1.247 . S
C36 O30 1.261 . S
C37 O32 1.259 . S
C37 O34 1.235 . S
O38 Co28 2.021 . S
O38 C35 1.238 . S
O39 Co33 2.052 . S
O39 C35 1.241 . S
O40 Co28 2.137 . S
O40 C31 1.247 . S
O41 Co28 2.244 . S
O41 C31 1.272 . S
O41 Co33 2.135 . S
Co42 O43 2.216 . S
Co42 O44 2.091 . S
Co42 O46 2.004 . S
Co42 O52 2.021 . S
Co42 O54 2.137 . S
Co42 O55 2.244 . S
O43 Co42 2.216 . S
O43 C50 1.247 . S
O44 Co42 2.091 . S
O44 C50 1.261 . S
C45 O54 1.247 . S
C45 O55 1.272 . S
O46 Co42 2.004 . S
O46 C51 1.259 . S
Co47 O48 2.061 . S
Co47 O53 2.052 . S
Co47 O55 2.135 . S
O48 Co47 2.061 . S
O48 C51 1.235 . S
C49 O52 1.238 . S
C49 O53 1.241 . S
C50 O43 1.247 . S
C50 O44 1.261 . S
C51 O46 1.259 . S
C51 O48 1.235 . S
O52 Co42 2.021 . S
O52 C49 1.238 . S
O53 Co47 2.052 . S
O53 C49 1.241 . S
O54 Co42 2.137 . S
O54 C45 1.247 . S
O55 Co42 2.244 . S
O55 C45 1.272 . S
O55 Co47 2.135 . S
Co56 O57 2.216 . S
Co56 O58 2.091 . S
Co56 O60 2.004 . S
Co56 O66 2.021 . S
Co56 O68 2.137 . S
Co56 O69 2.244 . S
O57 Co56 2.216 . S
O57 C64 1.247 . S
O58 Co56 2.091 . S
O58 C64 1.261 . S
C59 O68 1.247 . S
C59 O69 1.272 . S
O60 Co56 2.004 . S
O60 C65 1.259 . S
Co61 O62 2.061 . S
Co61 O67 2.052 . S
Co61 O69 2.135 . S
O62 Co61 2.061 . S
O62 C65 1.235 . S
C63 O66 1.238 . S
C63 O67 1.241 . S
C64 O57 1.247 . S
C64 O58 1.261 . S
C65 O60 1.259 . S
C65 O62 1.235 . S
O66 Co56 2.021 . S
O66 C63 1.238 . S
O67 Co61 2.052 . S
O67 C63 1.241 . S
O68 Co56 2.137 . S
O68 C59 1.247 . S
O69 Co56 2.244 . S
O69 C59 1.272 . S
O69 Co61 2.135 . S
Co70 O71 2.216 . S
Co70 O72 2.091 . S
Co70 O74 2.004 . S
Co70 O80 2.021 . S
Co70 O82 2.137 . S
Co70 O83 2.244 . S
O71 Co70 2.216 . S
O71 C78 1.247 . S
O72 Co70 2.091 . S
O72 C78 1.261 . S
C73 O82 1.247 . S
C73 O83 1.272 . S
O74 Co70 2.004 . S
O74 C79 1.259 . S
Co75 O76 2.061 . S
Co75 O81 2.052 . S
Co75 O83 2.135 . S
O76 Co75 2.061 . S
O76 C79 1.235 . S
C77 O80 1.238 . S
C77 O81 1.241 . S
C78 O71 1.247 . S
C78 O72 1.261 . S
C79 O74 1.259 . S
C79 O76 1.235 . S
O80 Co70 2.021 . S
O80 C77 1.238 . S
O81 Co75 2.052 . S
O81 C77 1.241 . S
O82 Co70 2.137 . S
O82 C73 1.247 . S
O83 Co70 2.244 . S
O83 C73 1.272 . S
O83 Co75 2.135 . S
Co84 O85 2.216 . S
Co84 O86 2.091 . S
Co84 O88 2.004 . S
Co84 O94 2.021 . S
Co84 O96 2.137 . S
Co84 O97 2.244 . S
O85 Co84 2.216 . S
O85 C92 1.247 . S
O86 Co84 2.091 . S
O86 C92 1.261 . S
C87 O96 1.247 . S
C87 O97 1.272 . S
O88 Co84 2.004 . S
O88 C93 1.259 . S
Co89 O90 2.061 . S
Co89 O95 2.052 . S
Co89 O97 2.135 . S
O90 Co89 2.061 . S
O90 C93 1.235 . S
C91 O94 1.238 . S
C91 O95 1.241 . S
C92 O85 1.247 . S
C92 O86 1.261 . S
C93 O88 1.259 . S
C93 O90 1.235 . S
O94 Co84 2.021 . S
O94 C91 1.238 . S
O95 Co89 2.052 . S
O95 C91 1.241 . S
O96 Co84 2.137 . S
O96 C87 1.247 . S
O97 Co84 2.244 . S
O97 C87 1.272 . S
O97 Co89 2.135 . S
Co98 O99 2.216 . S
Co98 O100 2.091 . S
Co98 O102 2.004 . S
Co98 O108 2.021 . S
Co98 O110 2.137 . S
Co98 O111 2.244 . S
O99 Co98 2.216 . S
O99 C106 1.247 . S
O100 Co98 2.091 . S
O100 C106 1.261 . S
C101 O110 1.247 . S
C101 O111 1.272 . S
O102 Co98 2.004 . S
O102 C107 1.259 . S
Co103 O104 2.061 . S
Co103 O109 2.052 . S
Co103 O111 2.135 . S
O104 Co103 2.061 . S
O104 C107 1.235 . S
C105 O108 1.238 . S
C105 O109 1.241 . S
C106 O99 1.247 . S
C106 O100 1.261 . S
C107 O102 1.259 . S
C107 O104 1.235 . S
O108 Co98 2.021 . S
O108 C105 1.238 . S
O109 Co103 2.052 . S
O109 C105 1.241 . S
O110 Co98 2.137 . S
O110 C101 1.247 . S
O111 Co98 2.244 . S
O111 C101 1.272 . S
O111 Co103 2.135 . S
Co112 O113 2.216 . S
Co112 O114 2.091 . S
Co112 O116 2.004 . S
Co112 O122 2.021 . S
Co112 O124 2.137 . S
Co112 O125 2.244 . S
O113 Co112 2.216 . S
O113 C120 1.247 . S
O114 Co112 2.091 . S
O114 C120 1.261 . S
C115 O124 1.247 . S
C115 O125 1.272 . S
O116 Co112 2.004 . S
O116 C121 1.259 . S
Co117 O118 2.061 . S
Co117 O123 2.052 . S
Co117 O125 2.135 . S
O118 Co117 2.061 . S
O118 C121 1.235 . S
C119 O122 1.238 . S
C119 O123 1.241 . S
C120 O113 1.247 . S
C120 O114 1.261 . S
C121 O116 1.259 . S
C121 O118 1.235 . S
O122 Co112 2.021 . S
O122 C119 1.238 . S
O123 Co117 2.052 . S
O123 C119 1.241 . S
O124 Co112 2.137 . S
O124 C115 1.247 . S
O125 Co112 2.244 . S
O125 C115 1.272 . S
O125 Co117 2.135 . S
Co126 O127 2.216 . S
Co126 O128 2.091 . S
Co126 O130 2.004 . S
Co126 O136 2.021 . S
Co126 O138 2.137 . S
Co126 O139 2.244 . S
O127 Co126 2.216 . S
O127 C134 1.247 . S
O128 Co126 2.091 . S
O128 C134 1.261 . S
C129 O138 1.247 . S
C129 O139 1.272 . S
O130 Co126 2.004 . S
O130 C135 1.259 . S
Co131 O132 2.061 . S
Co131 O137 2.052 . S
Co131 O139 2.135 . S
O132 Co131 2.061 . S
O132 C135 1.235 . S
C133 O136 1.238 . S
C133 O137 1.241 . S
C134 O127 1.247 . S
C134 O128 1.261 . S
C135 O130 1.259 . S
C135 O132 1.235 . S
O136 Co126 2.021 . S
O136 C133 1.238 . S
O137 Co131 2.052 . S
O137 C133 1.241 . S
O138 Co126 2.137 . S
O138 C129 1.247 . S
O139 Co126 2.244 . S
O139 C129 1.272 . S
O139 Co131 2.135 . S
Co140 O141 2.216 . S
Co140 O142 2.091 . S
Co140 O144 2.004 . S
Co140 O150 2.021 . S
Co140 O152 2.137 . S
Co140 O153 2.244 . S
O141 Co140 2.216 . S
O141 C148 1.247 . S
O142 Co140 2.091 . S
O142 C148 1.261 . S
C143 O152 1.247 . S
C143 O153 1.272 . S
O144 Co140 2.004 . S
O144 C149 1.259 . S
Co145 O146 2.061 . S
Co145 O151 2.052 . S
Co145 O153 2.135 . S
O146 Co145 2.061 . S
O146 C149 1.235 . S
C147 O150 1.238 . S
C147 O151 1.241 . S
C148 O141 1.247 . S
C148 O142 1.261 . S
C149 O144 1.259 . S
C149 O146 1.235 . S
O150 Co140 2.021 . S
O150 C147 1.238 . S
O151 Co145 2.052 . S
O151 C147 1.241 . S
O152 Co140 2.137 . S
O152 C143 1.247 . S
O153 Co140 2.244 . S
O153 C143 1.272 . S
O153 Co145 2.135 . S
Co154 O155 2.216 . S
Co154 O156 2.091 . S
Co154 O158 2.004 . S
Co154 O164 2.021 . S
Co154 O166 2.137 . S
Co154 O167 2.244 . S
O155 Co154 2.216 . S
O155 C162 1.247 . S
O156 Co154 2.091 . S
O156 C162 1.261 . S
C157 O166 1.247 . S
C157 O167 1.272 . S
O158 Co154 2.004 . S
O158 C163 1.259 . S
Co159 O160 2.061 . S
Co159 O165 2.052 . S
Co159 O167 2.135 . S
O160 Co159 2.061 . S
O160 C163 1.235 . S
C161 O164 1.238 . S
C161 O165 1.241 . S
C162 O155 1.247 . S
C162 O156 1.261 . S
C163 O158 1.259 . S
C163 O160 1.235 . S
O164 Co154 2.021 . S
O164 C161 1.238 . S
O165 Co159 2.052 . S
O165 C161 1.241 . S
O166 Co154 2.137 . S
O166 C157 1.247 . S
O167 Co154 2.244 . S
O167 C157 1.272 . S
O167 Co159 2.135 . S
Co168 O169 2.216 . S
Co168 O170 2.091 . S
Co168 O172 2.004 . S
Co168 O178 2.021 . S
Co168 O180 2.137 . S
Co168 O181 2.244 . S
O169 Co168 2.216 . S
O169 C176 1.247 . S
O170 Co168 2.091 . S
O170 C176 1.261 . S
C171 O180 1.247 . S
C171 O181 1.272 . S
O172 Co168 2.004 . S
O172 C177 1.259 . S
Co173 O174 2.061 . S
Co173 O179 2.052 . S
Co173 O181 2.135 . S
O174 Co173 2.061 . S
O174 C177 1.235 . S
C175 O178 1.238 . S
C175 O179 1.241 . S
C176 O169 1.247 . S
C176 O170 1.261 . S
C177 O172 1.259 . S
C177 O174 1.235 . S
O178 Co168 2.021 . S
O178 C175 1.238 . S
O179 Co173 2.052 . S
O179 C175 1.241 . S
O180 Co168 2.137 . S
O180 C171 1.247 . S
O181 Co168 2.244 . S
O181 C171 1.272 . S
O181 Co173 2.135 . S
Co182 O183 2.216 . S
Co182 O184 2.091 . S
Co182 O186 2.004 . S
Co182 O192 2.021 . S
Co182 O194 2.137 . S
Co182 O195 2.244 . S
O183 Co182 2.216 . S
O183 C190 1.247 . S
O184 Co182 2.091 . S
O184 C190 1.261 . S
C185 O194 1.247 . S
C185 O195 1.272 . S
O186 Co182 2.004 . S
O186 C191 1.259 . S
Co187 O188 2.061 . S
Co187 O193 2.052 . S
Co187 O195 2.135 . S
O188 Co187 2.061 . S
O188 C191 1.235 . S
C189 O192 1.238 . S
C189 O193 1.241 . S
C190 O183 1.247 . S
C190 O184 1.261 . S
C191 O186 1.259 . S
C191 O188 1.235 . S
O192 Co182 2.021 . S
O192 C189 1.238 . S
O193 Co187 2.052 . S
O193 C189 1.241 . S
O194 Co182 2.137 . S
O194 C185 1.247 . S
O195 Co182 2.244 . S
O195 C185 1.272 . S
O195 Co187 2.135 . S
Co196 O197 2.216 . S
Co196 O198 2.091 . S
Co196 O200 2.004 . S
Co196 O206 2.021 . S
Co196 O208 2.137 . S
Co196 O209 2.244 . S
O197 Co196 2.216 . S
O197 C204 1.247 . S
O198 Co196 2.091 . S
O198 C204 1.261 . S
C199 O208 1.247 . S
C199 O209 1.272 . S
O200 Co196 2.004 . S
O200 C205 1.259 . S
Co201 O202 2.061 . S
Co201 O207 2.052 . S
Co201 O209 2.135 . S
O202 Co201 2.061 . S
O202 C205 1.235 . S
C203 O206 1.238 . S
C203 O207 1.241 . S
C204 O197 1.247 . S
C204 O198 1.261 . S
C205 O200 1.259 . S
C205 O202 1.235 . S
O206 Co196 2.021 . S
O206 C203 1.238 . S
O207 Co201 2.052 . S
O207 C203 1.241 . S
O208 Co196 2.137 . S
O208 C199 1.247 . S
O209 Co196 2.244 . S
O209 C199 1.272 . S
O209 Co201 2.135 . S
Co210 O211 2.216 . S
Co210 O212 2.091 . S
Co210 O214 2.004 . S
Co210 O220 2.021 . S
Co210 O222 2.137 . S
Co210 O223 2.244 . S
O211 Co210 2.216 . S
O211 C218 1.247 . S
O212 Co210 2.091 . S
O212 C218 1.261 . S
C213 O222 1.247 . S
C213 O223 1.272 . S
O214 Co210 2.004 . S
O214 C219 1.259 . S
Co215 O216 2.061 . S
Co215 O221 2.052 . S
Co215 O223 2.135 . S
O216 Co215 2.061 . S
O216 C219 1.235 . S
C217 O220 1.238 . S
C217 O221 1.241 . S
C218 O211 1.247 . S
C218 O212 1.261 . S
C219 O214 1.259 . S
C219 O216 1.235 . S
O220 Co210 2.021 . S
O220 C217 1.238 . S
O221 Co215 2.052 . S
O221 C217 1.241 . S
O222 Co210 2.137 . S
O222 C213 1.247 . S
O223 Co210 2.244 . S
O223 C213 1.272 . S
O223 Co215 2.135 . S
Co224 O225 2.216 . S
Co224 O226 2.091 . S
Co224 O228 2.004 . S
Co224 O234 2.021 . S
Co224 O236 2.137 . S
Co224 O237 2.244 . S
O225 Co224 2.216 . S
O225 C232 1.247 . S
O226 Co224 2.091 . S
O226 C232 1.261 . S
C227 O236 1.247 . S
C227 O237 1.272 . S
O228 Co224 2.004 . S
O228 C233 1.259 . S
Co229 O230 2.061 . S
Co229 O235 2.052 . S
Co229 O237 2.135 . S
O230 Co229 2.061 . S
O230 C233 1.235 . S
C231 O234 1.238 . S
C231 O235 1.241 . S
C232 O225 1.247 . S
C232 O226 1.261 . S
C233 O228 1.259 . S
C233 O230 1.235 . S
O234 Co224 2.021 . S
O234 C231 1.238 . S
O235 Co229 2.052 . S
O235 C231 1.241 . S
O236 Co224 2.137 . S
O236 C227 1.247 . S
O237 Co224 2.244 . S
O237 C227 1.272 . S
O237 Co229 2.135 . S
Co238 O239 2.216 . S
Co238 O240 2.091 . S
Co238 O242 2.004 . S
Co238 O248 2.021 . S
Co238 O250 2.137 . S
Co238 O251 2.244 . S
O239 Co238 2.216 . S
O239 C246 1.247 . S
O240 Co238 2.091 . S
O240 C246 1.261 . S
C241 O250 1.247 . S
C241 O251 1.272 . S
O242 Co238 2.004 . S
O242 C247 1.259 . S
Co243 O244 2.061 . S
Co243 O249 2.052 . S
Co243 O251 2.135 . S
O244 Co243 2.061 . S
O244 C247 1.235 . S
C245 O248 1.238 . S
C245 O249 1.241 . S
C246 O239 1.247 . S
C246 O240 1.261 . S
C247 O242 1.259 . S
C247 O244 1.235 . S
O248 Co238 2.021 . S
O248 C245 1.238 . S
O249 Co243 2.052 . S
O249 C245 1.241 . S
O250 Co238 2.137 . S
O250 C241 1.247 . S
O251 Co238 2.244 . S
O251 C241 1.272 . S
O251 Co243 2.135 . S
Co252 O253 2.216 . S
Co252 O254 2.091 . S
Co252 O256 2.004 . S
Co252 O262 2.021 . S
Co252 O264 2.137 . S
Co252 O265 2.244 . S
O253 Co252 2.216 . S
O253 C260 1.247 . S
O254 Co252 2.091 . S
O254 C260 1.261 . S
C255 O264 1.247 . S
C255 O265 1.272 . S
O256 Co252 2.004 . S
O256 C261 1.259 . S
Co257 O258 2.061 . S
Co257 O263 2.052 . S
Co257 O265 2.135 . S
O258 Co257 2.061 . S
O258 C261 1.235 . S
C259 O262 1.238 . S
C259 O263 1.241 . S
C260 O253 1.247 . S
C260 O254 1.261 . S
C261 O256 1.259 . S
C261 O258 1.235 . S
O262 Co252 2.021 . S
O262 C259 1.238 . S
O263 Co257 2.052 . S
O263 C259 1.241 . S
O264 Co252 2.137 . S
O264 C255 1.247 . S
O265 Co252 2.244 . S
O265 C255 1.272 . S
O265 Co257 2.135 . S
Co266 O267 2.216 . S
Co266 O268 2.091 . S
Co266 O270 2.004 . S
Co266 O276 2.021 . S
Co266 O278 2.137 . S
Co266 O279 2.244 . S
O267 Co266 2.216 . S
O267 C274 1.247 . S
O268 Co266 2.091 . S
O268 C274 1.261 . S
C269 O278 1.247 . S
C269 O279 1.272 . S
O270 Co266 2.004 . S
O270 C275 1.259 . S
Co271 O272 2.061 . S
Co271 O277 2.052 . S
Co271 O279 2.135 . S
O272 Co271 2.061 . S
O272 C275 1.235 . S
C273 O276 1.238 . S
C273 O277 1.241 . S
C274 O267 1.247 . S
C274 O268 1.261 . S
C275 O270 1.259 . S
C275 O272 1.235 . S
O276 Co266 2.021 . S
O276 C273 1.238 . S
O277 Co271 2.052 . S
O277 C273 1.241 . S
O278 Co266 2.137 . S
O278 C269 1.247 . S
O279 Co266 2.244 . S
O279 C269 1.272 . S
O279 Co271 2.135 . S
Co280 O281 2.216 . S
Co280 O282 2.091 . S
Co280 O284 2.004 . S
Co280 O290 2.021 . S
Co280 O292 2.137 . S
Co280 O293 2.244 . S
O281 Co280 2.216 . S
O281 C288 1.247 . S
O282 Co280 2.091 . S
O282 C288 1.261 . S
C283 O292 1.247 . S
C283 O293 1.272 . S
O284 Co280 2.004 . S
O284 C289 1.259 . S
Co285 O286 2.061 . S
Co285 O291 2.052 . S
Co285 O293 2.135 . S
O286 Co285 2.061 . S
O286 C289 1.235 . S
C287 O290 1.238 . S
C287 O291 1.241 . S
C288 O281 1.247 . S
C288 O282 1.261 . S
C289 O284 1.259 . S
C289 O286 1.235 . S
O290 Co280 2.021 . S
O290 C287 1.238 . S
O291 Co285 2.052 . S
O291 C287 1.241 . S
O292 Co280 2.137 . S
O292 C283 1.247 . S
O293 Co280 2.244 . S
O293 C283 1.272 . S
O293 Co285 2.135 . S
Co294 O295 2.216 . S
Co294 O296 2.091 . S
Co294 O298 2.004 . S
Co294 O304 2.021 . S
Co294 O306 2.137 . S
Co294 O307 2.244 . S
O295 Co294 2.216 . S
O295 C302 1.247 . S
O296 Co294 2.091 . S
O296 C302 1.261 . S
C297 O306 1.247 . S
C297 O307 1.272 . S
O298 Co294 2.004 . S
O298 C303 1.259 . S
Co299 O300 2.061 . S
Co299 O305 2.052 . S
Co299 O307 2.135 . S
O300 Co299 2.061 . S
O300 C303 1.235 . S
C301 O304 1.238 . S
C301 O305 1.241 . S
C302 O295 1.247 . S
C302 O296 1.261 . S
C303 O298 1.259 . S
C303 O300 1.235 . S
O304 Co294 2.021 . S
O304 C301 1.238 . S
O305 Co299 2.052 . S
O305 C301 1.241 . S
O306 Co294 2.137 . S
O306 C297 1.247 . S
O307 Co294 2.244 . S
O307 C297 1.272 . S
O307 Co299 2.135 . S
Co308 O309 2.216 . S
Co308 O310 2.091 . S
Co308 O312 2.004 . S
Co308 O318 2.021 . S
Co308 O320 2.137 . S
Co308 O321 2.244 . S
O309 Co308 2.216 . S
O309 C316 1.247 . S
O310 Co308 2.091 . S
O310 C316 1.261 . S
C311 O320 1.247 . S
C311 O321 1.272 . S
O312 Co308 2.004 . S
O312 C317 1.259 . S
Co313 O314 2.061 . S
Co313 O319 2.052 . S
Co313 O321 2.135 . S
O314 Co313 2.061 . S
O314 C317 1.235 . S
C315 O318 1.238 . S
C315 O319 1.241 . S
C316 O309 1.247 . S
C316 O310 1.261 . S
C317 O312 1.259 . S
C317 O314 1.235 . S
O318 Co308 2.021 . S
O318 C315 1.238 . S
O319 Co313 2.052 . S
O319 C315 1.241 . S
O320 Co308 2.137 . S
O320 C311 1.247 . S
O321 Co308 2.244 . S
O321 C311 1.272 . S
O321 Co313 2.135 . S
Co322 O323 2.216 . S
Co322 O324 2.091 . S
Co322 O326 2.004 . S
Co322 O332 2.021 . S
Co322 O334 2.137 . S
Co322 O335 2.244 . S
O323 Co322 2.216 . S
O323 C330 1.247 . S
O324 Co322 2.091 . S
O324 C330 1.261 . S
C325 O334 1.247 . S
C325 O335 1.272 . S
O326 Co322 2.004 . S
O326 C331 1.259 . S
Co327 O328 2.061 . S
Co327 O333 2.052 . S
Co327 O335 2.135 . S
O328 Co327 2.061 . S
O328 C331 1.235 . S
C329 O332 1.238 . S
C329 O333 1.241 . S
C330 O323 1.247 . S
C330 O324 1.261 . S
C331 O326 1.259 . S
C331 O328 1.235 . S
O332 Co322 2.021 . S
O332 C329 1.238 . S
O333 Co327 2.052 . S
O333 C329 1.241 . S
O334 Co322 2.137 . S
O334 C325 1.247 . S
O335 Co322 2.244 . S
O335 C325 1.272 . S
O335 Co327 2.135 . S
Co336 O337 2.216 . S
Co336 O338 2.091 . S
Co336 O340 2.004 . S
Co336 O346 2.021 . S
Co336 O348 2.137 . S
Co336 O349 2.244 . S
O337 Co336 2.216 . S
O337 C344 1.247 . S
O338 Co336 2.091 . S
O338 C344 1.261 . S
C339 O348 1.247 . S
C339 O349 1.272 . S
O340 Co336 2.004 . S
O340 C345 1.259 . S
Co341 O342 2.061 . S
Co341 O347 2.052 . S
Co341 O349 2.135 . S
O342 Co341 2.061 . S
O342 C345 1.235 . S
C343 O346 1.238 . S
C343 O347 1.241 . S
C344 O337 1.247 . S
C344 O338 1.261 . S
C345 O340 1.259 . S
C345 O342 1.235 . S
O346 Co336 2.021 . S
O346 C343 1.238 . S
O347 Co341 2.052 . S
O347 C343 1.241 . S
O348 Co336 2.137 . S
O348 C339 1.247 . S
O349 Co336 2.244 . S
O349 C339 1.272 . S
O349 Co341 2.135 . S
Co350 O351 2.216 . S
Co350 O352 2.091 . S
Co350 O354 2.004 . S
Co350 O360 2.021 . S
Co350 O362 2.137 . S
Co350 O363 2.244 . S
O351 Co350 2.216 . S
O351 C358 1.247 . S
O352 Co350 2.091 . S
O352 C358 1.261 . S
C353 O362 1.247 . S
C353 O363 1.272 . S
O354 Co350 2.004 . S
O354 C359 1.259 . S
Co355 O356 2.061 . S
Co355 O361 2.052 . S
Co355 O363 2.135 . S
O356 Co355 2.061 . S
O356 C359 1.235 . S
C357 O360 1.238 . S
C357 O361 1.241 . S
C358 O351 1.247 . S
C358 O352 1.261 . S
C359 O354 1.259 . S
C359 O356 1.235 . S
O360 Co350 2.021 . S
O360 C357 1.238 . S
O361 Co355 2.052 . S
O361 C357 1.241 . S
O362 Co350 2.137 . S
O362 C353 1.247 . S
O363 Co350 2.244 . S
O363 C353 1.272 . S
O363 Co355 2.135 . S
Co364 O365 2.216 . S
Co364 O366 2.091 . S
Co364 O368 2.004 . S
Co364 O374 2.021 . S
Co364 O376 2.137 . S
Co364 O377 2.244 . S
O365 Co364 2.216 . S
O365 C372 1.247 . S
O366 Co364 2.091 . S
O366 C372 1.261 . S
C367 O376 1.247 . S
C367 O377 1.272 . S
O368 Co364 2.004 . S
O368 C373 1.259 . S
Co369 O370 2.061 . S
Co369 O375 2.052 . S
Co369 O377 2.135 . S
O370 Co369 2.061 . S
O370 C373 1.235 . S
C371 O374 1.238 . S
C371 O375 1.241 . S
C372 O365 1.247 . S
C372 O366 1.261 . S
C373 O368 1.259 . S
C373 O370 1.235 . S
O374 Co364 2.021 . S
O374 C371 1.238 . S
O375 Co369 2.052 . S
O375 C371 1.241 . S
O376 Co364 2.137 . S
O376 C367 1.247 . S
O377 Co364 2.244 . S
O377 C367 1.272 . S
O377 Co369 2.135 . S
Co378 O379 2.216 . S
Co378 O380 2.091 . S
Co378 O382 2.004 . S
Co378 O388 2.021 . S
Co378 O390 2.137 . S
Co378 O391 2.244 . S
O379 Co378 2.216 . S
O379 C386 1.247 . S
O380 Co378 2.091 . S
O380 C386 1.261 . S
C381 O390 1.247 . S
C381 O391 1.272 . S
O382 Co378 2.004 . S
O382 C387 1.259 . S
Co383 O384 2.061 . S
Co383 O389 2.052 . S
Co383 O391 2.135 . S
O384 Co383 2.061 . S
O384 C387 1.235 . S
C385 O388 1.238 . S
C385 O389 1.241 . S
C386 O379 1.247 . S
C386 O380 1.261 . S
C387 O382 1.259 . S
C387 O384 1.235 . S
O388 Co378 2.021 . S
O388 C385 1.238 . S
O389 Co383 2.052 . S
O389 C385 1.241 . S
O390 Co378 2.137 . S
O390 C381 1.247 . S
O391 Co378 2.244 . S
O391 C381 1.272 . S
O391 Co383 2.135 . S
Co392 O393 2.216 . S
Co392 O394 2.091 . S
Co392 O396 2.004 . S
Co392 O402 2.021 . S
Co392 O404 2.137 . S
Co392 O405 2.244 . S
O393 Co392 2.216 . S
O393 C400 1.247 . S
O394 Co392 2.091 . S
O394 C400 1.261 . S
C395 O404 1.247 . S
C395 O405 1.272 . S
O396 Co392 2.004 . S
O396 C401 1.259 . S
Co397 O398 2.061 . S
Co397 O403 2.052 . S
Co397 O405 2.135 . S
O398 Co397 2.061 . S
O398 C401 1.235 . S
C399 O402 1.238 . S
C399 O403 1.241 . S
C400 O393 1.247 . S
C400 O394 1.261 . S
C401 O396 1.259 . S
C401 O398 1.235 . S
O402 Co392 2.021 . S
O402 C399 1.238 . S
O403 Co397 2.052 . S
O403 C399 1.241 . S
O404 Co392 2.137 . S
O404 C395 1.247 . S
O405 Co392 2.244 . S
O405 C395 1.272 . S
O405 Co397 2.135 . S
Co406 O407 2.216 . S
Co406 O408 2.091 . S
Co406 O410 2.004 . S
Co406 O416 2.021 . S
Co406 O418 2.137 . S
Co406 O419 2.244 . S
O407 Co406 2.216 . S
O407 C414 1.247 . S
O408 Co406 2.091 . S
O408 C414 1.261 . S
C409 O418 1.247 . S
C409 O419 1.272 . S
O410 Co406 2.004 . S
O410 C415 1.259 . S
Co411 O412 2.061 . S
Co411 O417 2.052 . S
Co411 O419 2.135 . S
O412 Co411 2.061 . S
O412 C415 1.235 . S
C413 O416 1.238 . S
C413 O417 1.241 . S
C414 O407 1.247 . S
C414 O408 1.261 . S
C415 O410 1.259 . S
C415 O412 1.235 . S
O416 Co406 2.021 . S
O416 C413 1.238 . S
O417 Co411 2.052 . S
O417 C413 1.241 . S
O418 Co406 2.137 . S
O418 C409 1.247 . S
O419 Co406 2.244 . S
O419 C409 1.272 . S
O419 Co411 2.135 . S
Co420 O421 2.216 . S
Co420 O422 2.091 . S
Co420 O424 2.004 . S
Co420 O430 2.021 . S
Co420 O432 2.137 . S
Co420 O433 2.244 . S
O421 Co420 2.216 . S
O421 C428 1.247 . S
O422 Co420 2.091 . S
O422 C428 1.261 . S
C423 O432 1.247 . S
C423 O433 1.272 . S
O424 Co420 2.004 . S
O424 C429 1.259 . S
Co425 O426 2.061 . S
Co425 O431 2.052 . S
Co425 O433 2.135 . S
O426 Co425 2.061 . S
O426 C429 1.235 . S
C427 O430 1.238 . S
C427 O431 1.241 . S
C428 O421 1.247 . S
C428 O422 1.261 . S
C429 O424 1.259 . S
C429 O426 1.235 . S
O430 Co420 2.021 . S
O430 C427 1.238 . S
O431 Co425 2.052 . S
O431 C427 1.241 . S
O432 Co420 2.137 . S
O432 C423 1.247 . S
O433 Co420 2.244 . S
O433 C423 1.272 . S
O433 Co425 2.135 . S
Co434 O435 2.216 . S
Co434 O436 2.091 . S
Co434 O438 2.004 . S
Co434 O444 2.021 . S
Co434 O446 2.137 . S
Co434 O447 2.244 . S
O435 Co434 2.216 . S
O435 C442 1.247 . S
O436 Co434 2.091 . S
O436 C442 1.261 . S
C437 O446 1.247 . S
C437 O447 1.272 . S
O438 Co434 2.004 . S
O438 C443 1.259 . S
Co439 O440 2.061 . S
Co439 O445 2.052 . S
Co439 O447 2.135 . S
O440 Co439 2.061 . S
O440 C443 1.235 . S
C441 O444 1.238 . S
C441 O445 1.241 . S
C442 O435 1.247 . S
C442 O436 1.261 . S
C443 O438 1.259 . S
C443 O440 1.235 . S
O444 Co434 2.021 . S
O444 C441 1.238 . S
O445 Co439 2.052 . S
O445 C441 1.241 . S
O446 Co434 2.137 . S
O446 C437 1.247 . S
O447 Co434 2.244 . S
O447 C437 1.272 . S
O447 Co439 2.135 . S
Co448 O449 2.216 . S
Co448 O450 2.091 . S
Co448 O452 2.004 . S
Co448 O458 2.021 . S
Co448 O460 2.137 . S
Co448 O461 2.244 . S
O449 Co448 2.216 . S
O449 C456 1.247 . S
O450 Co448 2.091 . S
O450 C456 1.261 . S
C451 O460 1.247 . S
C451 O461 1.272 . S
O452 Co448 2.004 . S
O452 C457 1.259 . S
Co453 O454 2.061 . S
Co453 O459 2.052 . S
Co453 O461 2.135 . S
O454 Co453 2.061 . S
O454 C457 1.235 . S
C455 O458 1.238 . S
C455 O459 1.241 . S
C456 O449 1.247 . S
C456 O450 1.261 . S
C457 O452 1.259 . S
C457 O454 1.235 . S
O458 Co448 2.021 . S
O458 C455 1.238 . S
O459 Co453 2.052 . S
O459 C455 1.241 . S
O460 Co448 2.137 . S
O460 C451 1.247 . S
O461 Co448 2.244 . S
O461 C451 1.272 . S
O461 Co453 2.135 . S
Co462 O463 2.216 . S
Co462 O464 2.091 . S
Co462 O466 2.004 . S
Co462 O472 2.021 . S
Co462 O474 2.137 . S
Co462 O475 2.244 . S
O463 Co462 2.216 . S
O463 C470 1.247 . S
O464 Co462 2.091 . S
O464 C470 1.261 . S
C465 O474 1.247 . S
C465 O475 1.272 . S
O466 Co462 2.004 . S
O466 C471 1.259 . S
Co467 O468 2.061 . S
Co467 O473 2.052 . S
Co467 O475 2.135 . S
O468 Co467 2.061 . S
O468 C471 1.235 . S
C469 O472 1.238 . S
C469 O473 1.241 . S
C470 O463 1.247 . S
C470 O464 1.261 . S
C471 O466 1.259 . S
C471 O468 1.235 . S
O472 Co462 2.021 . S
O472 C469 1.238 . S
O473 Co467 2.052 . S
O473 C469 1.241 . S
O474 Co462 2.137 . S
O474 C465 1.247 . S
O475 Co462 2.244 . S
O475 C465 1.272 . S
O475 Co467 2.135 . S
Co476 O477 2.216 . S
Co476 O478 2.091 . S
Co476 O480 2.004 . S
Co476 O486 2.021 . S
Co476 O488 2.137 . S
Co476 O489 2.244 . S
O477 Co476 2.216 . S
O477 C484 1.247 . S
O478 Co476 2.091 . S
O478 C484 1.261 . S
C479 O488 1.247 . S
C479 O489 1.272 . S
O480 Co476 2.004 . S
O480 C485 1.259 . S
Co481 O482 2.061 . S
Co481 O487 2.052 . S
Co481 O489 2.135 . S
O482 Co481 2.061 . S
O482 C485 1.235 . S
C483 O486 1.238 . S
C483 O487 1.241 . S
C484 O477 1.247 . S
C484 O478 1.261 . S
C485 O480 1.259 . S
C485 O482 1.235 . S
O486 Co476 2.021 . S
O486 C483 1.238 . S
O487 Co481 2.052 . S
O487 C483 1.241 . S
O488 Co476 2.137 . S
O488 C479 1.247 . S
O489 Co476 2.244 . S
O489 C479 1.272 . S
O489 Co481 2.135 . S
Co490 O491 2.216 . S
Co490 O492 2.091 . S
Co490 O494 2.004 . S
Co490 O500 2.021 . S
Co490 O502 2.137 . S
Co490 O503 2.244 . S
O491 Co490 2.216 . S
O491 C498 1.247 . S
O492 Co490 2.091 . S
O492 C498 1.261 . S
C493 O502 1.247 . S
C493 O503 1.272 . S
O494 Co490 2.004 . S
O494 C499 1.259 . S
Co495 O496 2.061 . S
Co495 O501 2.052 . S
Co495 O503 2.135 . S
O496 Co495 2.061 . S
O496 C499 1.235 . S
C497 O500 1.238 . S
C497 O501 1.241 . S
C498 O491 1.247 . S
C498 O492 1.261 . S
C499 O494 1.259 . S
C499 O496 1.235 . S
O500 Co490 2.021 . S
O500 C497 1.238 . S
O501 Co495 2.052 . S
O501 C497 1.241 . S
O502 Co490 2.137 . S
O502 C493 1.247 . S
O503 Co490 2.244 . S
O503 C493 1.272 . S
O503 Co495 2.135 . S
Co504 O505 2.216 . S
Co504 O506 2.091 . S
Co504 O508 2.004 . S
Co504 O514 2.021 . S
Co504 O516 2.137 . S
Co504 O517 2.244 . S
O505 Co504 2.216 . S
O505 C512 1.247 . S
O506 Co504 2.091 . S
O506 C512 1.261 . S
C507 O516 1.247 . S
C507 O517 1.272 . S
O508 Co504 2.004 . S
O508 C513 1.259 . S
Co509 O510 2.061 . S
Co509 O515 2.052 . S
Co509 O517 2.135 . S
O510 Co509 2.061 . S
O510 C513 1.235 . S
C511 O514 1.238 . S
C511 O515 1.241 . S
C512 O505 1.247 . S
C512 O506 1.261 . S
C513 O508 1.259 . S
C513 O510 1.235 . S
O514 Co504 2.021 . S
O514 C511 1.238 . S
O515 Co509 2.052 . S
O515 C511 1.241 . S
O516 Co504 2.137 . S
O516 C507 1.247 . S
O517 Co504 2.244 . S
O517 C507 1.272 . S
O517 Co509 2.135 . S
Co518 O519 2.216 . S
Co518 O520 2.091 . S
Co518 O522 2.004 . S
Co518 O528 2.021 . S
Co518 O530 2.137 . S
Co518 O531 2.244 . S
O519 Co518 2.216 . S
O519 C526 1.247 . S
O520 Co518 2.091 . S
O520 C526 1.261 . S
C521 O530 1.247 . S
C521 O531 1.272 . S
O522 Co518 2.004 . S
O522 C527 1.259 . S
Co523 O524 2.061 . S
Co523 O529 2.052 . S
Co523 O531 2.135 . S
O524 Co523 2.061 . S
O524 C527 1.235 . S
C525 O528 1.238 . S
C525 O529 1.241 . S
C526 O519 1.247 . S
C526 O520 1.261 . S
C527 O522 1.259 . S
C527 O524 1.235 . S
O528 Co518 2.021 . S
O528 C525 1.238 . S
O529 Co523 2.052 . S
O529 C525 1.241 . S
O530 Co518 2.137 . S
O530 C521 1.247 . S
O531 Co518 2.244 . S
O531 C521 1.272 . S
O531 Co523 2.135 . S
Co532 O533 2.216 . S
Co532 O534 2.091 . S
Co532 O536 2.004 . S
Co532 O542 2.021 . S
Co532 O544 2.137 . S
Co532 O545 2.244 . S
O533 Co532 2.216 . S
O533 C540 1.247 . S
O534 Co532 2.091 . S
O534 C540 1.261 . S
C535 O544 1.247 . S
C535 O545 1.272 . S
O536 Co532 2.004 . S
O536 C541 1.259 . S
Co537 O538 2.061 . S
Co537 O543 2.052 . S
Co537 O545 2.135 . S
O538 Co537 2.061 . S
O538 C541 1.235 . S
C539 O542 1.238 . S
C539 O543 1.241 . S
C540 O533 1.247 . S
C540 O534 1.261 . S
C541 O536 1.259 . S
C541 O538 1.235 . S
O542 Co532 2.021 . S
O542 C539 1.238 . S
O543 Co537 2.052 . S
O543 C539 1.241 . S
O544 Co532 2.137 . S
O544 C535 1.247 . S
O545 Co532 2.244 . S
O545 C535 1.272 . S
O545 Co537 2.135 . S
Co546 O547 2.216 . S
Co546 O548 2.091 . S
Co546 O550 2.004 . S
Co546 O556 2.021 . S
Co546 O558 2.137 . S
Co546 O559 2.244 . S
O547 Co546 2.216 . S
O547 C554 1.247 . S
O548 Co546 2.091 . S
O548 C554 1.261 . S
C549 O558 1.247 . S
C549 O559 1.272 . S
O550 Co546 2.004 . S
O550 C555 1.259 . S
Co551 O552 2.061 . S
Co551 O557 2.052 . S
Co551 O559 2.135 . S
O552 Co551 2.061 . S
O552 C555 1.235 . S
C553 O556 1.238 . S
C553 O557 1.241 . S
C554 O547 1.247 . S
C554 O548 1.261 . S
C555 O550 1.259 . S
C555 O552 1.235 . S
O556 Co546 2.021 . S
O556 C553 1.238 . S
O557 Co551 2.052 . S
O557 C553 1.241 . S
O558 Co546 2.137 . S
O558 C549 1.247 . S
O559 Co546 2.244 . S
O559 C549 1.272 . S
O559 Co551 2.135 . S
Co560 O561 2.216 . S
Co560 O562 2.091 . S
Co560 O564 2.004 . S
Co560 O570 2.021 . S
Co560 O572 2.137 . S
Co560 O573 2.244 . S
O561 Co560 2.216 . S
O561 C568 1.247 . S
O562 Co560 2.091 . S
O562 C568 1.261 . S
C563 O572 1.247 . S
C563 O573 1.272 . S
O564 Co560 2.004 . S
O564 C569 1.259 . S
Co565 O566 2.061 . S
Co565 O571 2.052 . S
Co565 O573 2.135 . S
O566 Co565 2.061 . S
O566 C569 1.235 . S
C567 O570 1.238 . S
C567 O571 1.241 . S
C568 O561 1.247 . S
C568 O562 1.261 . S
C569 O564 1.259 . S
C569 O566 1.235 . S
O570 Co560 2.021 . S
O570 C567 1.238 . S
O571 Co565 2.052 . S
O571 C567 1.241 . S
O572 Co560 2.137 . S
O572 C563 1.247 . S
O573 Co560 2.244 . S
O573 C563 1.272 . S
O573 Co565 2.135 . S
Co574 O575 2.216 . S
Co574 O576 2.091 . S
Co574 O578 2.004 . S
Co574 O584 2.021 . S
Co574 O586 2.137 . S
Co574 O587 2.244 . S
O575 Co574 2.216 . S
O575 C582 1.247 . S
O576 Co574 2.091 . S
O576 C582 1.261 . S
C577 O586 1.247 . S
C577 O587 1.272 . S
O578 Co574 2.004 . S
O578 C583 1.259 . S
Co579 O580 2.061 . S
Co579 O585 2.052 . S
Co579 O587 2.135 . S
O580 Co579 2.061 . S
O580 C583 1.235 . S
C581 O584 1.238 . S
C581 O585 1.241 . S
C582 O575 1.247 . S
C582 O576 1.261 . S
C583 O578 1.259 . S
C583 O580 1.235 . S
O584 Co574 2.021 . S
O584 C581 1.238 . S
O585 Co579 2.052 . S
O585 C581 1.241 . S
O586 Co574 2.137 . S
O586 C577 1.247 . S
O587 Co574 2.244 . S
O587 C577 1.272 . S
O587 Co579 2.135 . S
Co588 O589 2.216 . S
Co588 O590 2.091 . S
Co588 O592 2.004 . S
Co588 O598 2.021 . S
Co588 O600 2.137 . S
Co588 O601 2.244 . S
O589 Co588 2.216 . S
O589 C596 1.247 . S
O590 Co588 2.091 . S
O590 C596 1.261 . S
C591 O600 1.247 . S
C591 O601 1.272 . S
O592 Co588 2.004 . S
O592 C597 1.259 . S
Co593 O594 2.061 . S
Co593 O599 2.052 . S
Co593 O601 2.135 . S
O594 Co593 2.061 . S
O594 C597 1.235 . S
C595 O598 1.238 . S
C595 O599 1.241 . S
C596 O589 1.247 . S
C596 O590 1.261 . S
C597 O592 1.259 . S
C597 O594 1.235 . S
O598 Co588 2.021 . S
O598 C595 1.238 . S
O599 Co593 2.052 . S
O599 C595 1.241 . S
O600 Co588 2.137 . S
O600 C591 1.247 . S
O601 Co588 2.244 . S
O601 C591 1.272 . S
O601 Co593 2.135 . S
Co602 O603 2.216 . S
Co602 O604 2.091 . S
Co602 O606 2.004 . S
Co602 O612 2.021 . S
Co602 O614 2.137 . S
Co602 O615 2.244 . S
O603 Co602 2.216 . S
O603 C610 1.247 . S
O604 Co602 2.091 . S
O604 C610 1.261 . S
C605 O614 1.247 . S
C605 O615 1.272 . S
O606 Co602 2.004 . S
O606 C611 1.259 . S
Co607 O608 2.061 . S
Co607 O613 2.052 . S
Co607 O615 2.135 . S
O608 Co607 2.061 . S
O608 C611 1.235 . S
C609 O612 1.238 . S
C609 O613 1.241 . S
C610 O603 1.247 . S
C610 O604 1.261 . S
C611 O606 1.259 . S
C611 O608 1.235 . S
O612 Co602 2.021 . S
O612 C609 1.238 . S
O613 Co607 2.052 . S
O613 C609 1.241 . S
O614 Co602 2.137 . S
O614 C605 1.247 . S
O615 Co602 2.244 . S
O615 C605 1.272 . S
O615 Co607 2.135 . S
Co616 O617 2.216 . S
Co616 O618 2.091 . S
Co616 O620 2.004 . S
Co616 O626 2.021 . S
Co616 O628 2.137 . S
Co616 O629 2.244 . S
O617 Co616 2.216 . S
O617 C624 1.247 . S
O618 Co616 2.091 . S
O618 C624 1.261 . S
C619 O628 1.247 . S
C619 O629 1.272 . S
O620 Co616 2.004 . S
O620 C625 1.259 . S
Co621 O622 2.061 . S
Co621 O627 2.052 . S
Co621 O629 2.135 . S
O622 Co621 2.061 . S
O622 C625 1.235 . S
C623 O626 1.238 . S
C623 O627 1.241 . S
C624 O617 1.247 . S
C624 O618 1.261 . S
C625 O620 1.259 . S
C625 O622 1.235 . S
O626 Co616 2.021 . S
O626 C623 1.238 . S
O627 Co621 2.052 . S
O627 C623 1.241 . S
O628 Co616 2.137 . S
O628 C619 1.247 . S
O629 Co616 2.244 . S
O629 C619 1.272 . S
O629 Co621 2.135 . S
Co630 O631 2.216 . S
Co630 O632 2.091 . S
Co630 O634 2.004 . S
Co630 O640 2.021 . S
Co630 O642 2.137 . S
Co630 O643 2.244 . S
O631 Co630 2.216 . S
O631 C638 1.247 . S
O632 Co630 2.091 . S
O632 C638 1.261 . S
C633 O642 1.247 . S
C633 O643 1.272 . S
O634 Co630 2.004 . S
O634 C639 1.259 . S
Co635 O636 2.061 . S
Co635 O641 2.052 . S
Co635 O643 2.135 . S
O636 Co635 2.061 . S
O636 C639 1.235 . S
C637 O640 1.238 . S
C637 O641 1.241 . S
C638 O631 1.247 . S
C638 O632 1.261 . S
C639 O634 1.259 . S
C639 O636 1.235 . S
O640 Co630 2.021 . S
O640 C637 1.238 . S
O641 Co635 2.052 . S
O641 C637 1.241 . S
O642 Co630 2.137 . S
O642 C633 1.247 . S
O643 Co630 2.244 . S
O643 C633 1.272 . S
O643 Co635 2.135 . S
Co644 O645 2.216 . S
Co644 O646 2.091 . S
Co644 O648 2.004 . S
Co644 O654 2.021 . S
Co644 O656 2.137 . S
Co644 O657 2.244 . S
O645 Co644 2.216 . S
O645 C652 1.247 . S
O646 Co644 2.091 . S
O646 C652 1.261 . S
C647 O656 1.247 . S
C647 O657 1.272 . S
O648 Co644 2.004 . S
O648 C653 1.259 . S
Co649 O650 2.061 . S
Co649 O655 2.052 . S
Co649 O657 2.135 . S
O650 Co649 2.061 . S
O650 C653 1.235 . S
C651 O654 1.238 . S
C651 O655 1.241 . S
C652 O645 1.247 . S
C652 O646 1.261 . S
C653 O648 1.259 . S
C653 O650 1.235 . S
O654 Co644 2.021 . S
O654 C651 1.238 . S
O655 Co649 2.052 . S
O655 C651 1.241 . S
O656 Co644 2.137 . S
O656 C647 1.247 . S
O657 Co644 2.244 . S
O657 C647 1.272 . S
O657 Co649 2.135 . S
Co658 O659 2.216 . S
Co658 O660 2.091 . S
Co658 O662 2.004 . S
Co658 O668 2.021 . S
Co658 O670 2.137 . S
Co658 O671 2.244 . S
O659 Co658 2.216 . S
O659 C666 1.247 . S
O660 Co658 2.091 . S
O660 C666 1.261 . S
C661 O670 1.247 . S
C661 O671 1.272 . S
O662 Co658 2.004 . S
O662 C667 1.259 . S
Co663 O664 2.061 . S
Co663 O669 2.052 . S
Co663 O671 2.135 . S
O664 Co663 2.061 . S
O664 C667 1.235 . S
C665 O668 1.238 . S
C665 O669 1.241 . S
C666 O659 1.247 . S
C666 O660 1.261 . S
C667 O662 1.259 . S
C667 O664 1.235 . S
O668 Co658 2.021 . S
O668 C665 1.238 . S
O669 Co663 2.052 . S
O669 C665 1.241 . S
O670 Co658 2.137 . S
O670 C661 1.247 . S
O671 Co658 2.244 . S
O671 C661 1.272 . S
O671 Co663 2.135 . S
Co672 O673 2.216 . S
Co672 O674 2.091 . S
Co672 O676 2.004 . S
Co672 O682 2.021 . S
Co672 O684 2.137 . S
Co672 O685 2.244 . S
O673 Co672 2.216 . S
O673 C680 1.247 . S
O674 Co672 2.091 . S
O674 C680 1.261 . S
C675 O684 1.247 . S
C675 O685 1.272 . S
O676 Co672 2.004 . S
O676 C681 1.259 . S
Co677 O678 2.061 . S
Co677 O683 2.052 . S
Co677 O685 2.135 . S
O678 Co677 2.061 . S
O678 C681 1.235 . S
C679 O682 1.238 . S
C679 O683 1.241 . S
C680 O673 1.247 . S
C680 O674 1.261 . S
C681 O676 1.259 . S
C681 O678 1.235 . S
O682 Co672 2.021 . S
O682 C679 1.238 . S
O683 Co677 2.052 . S
O683 C679 1.241 . S
O684 Co672 2.137 . S
O684 C675 1.247 . S
O685 Co672 2.244 . S
O685 C675 1.272 . S
O685 Co677 2.135 . S
Co686 O687 2.216 . S
Co686 O688 2.091 . S
Co686 O690 2.004 . S
Co686 O696 2.021 . S
Co686 O698 2.137 . S
Co686 O699 2.244 . S
O687 Co686 2.216 . S
O687 C694 1.247 . S
O688 Co686 2.091 . S
O688 C694 1.261 . S
C689 O698 1.247 . S
C689 O699 1.272 . S
O690 Co686 2.004 . S
O690 C695 1.259 . S
Co691 O692 2.061 . S
Co691 O697 2.052 . S
Co691 O699 2.135 . S
O692 Co691 2.061 . S
O692 C695 1.235 . S
C693 O696 1.238 . S
C693 O697 1.241 . S
C694 O687 1.247 . S
C694 O688 1.261 . S
C695 O690 1.259 . S
C695 O692 1.235 . S
O696 Co686 2.021 . S
O696 C693 1.238 . S
O697 Co691 2.052 . S
O697 C693 1.241 . S
O698 Co686 2.137 . S
O698 C689 1.247 . S
O699 Co686 2.244 . S
O699 C689 1.272 . S
O699 Co691 2.135 . S
Co700 O701 2.216 . S
Co700 O702 2.091 . S
Co700 O704 2.004 . S
Co700 O710 2.021 . S
Co700 O712 2.137 . S
Co700 O713 2.244 . S
O701 Co700 2.216 . S
O701 C708 1.247 . S
O702 Co700 2.091 . S
O702 C708 1.261 . S
C703 O712 1.247 . S
C703 O713 1.272 . S
O704 Co700 2.004 . S
O704 C709 1.259 . S
Co705 O706 2.061 . S
Co705 O711 2.052 . S
Co705 O713 2.135 . S
O706 Co705 2.061 . S
O706 C709 1.235 . S
C707 O710 1.238 . S
C707 O711 1.241 . S
C708 O701 1.247 . S
C708 O702 1.261 . S
C709 O704 1.259 . S
C709 O706 1.235 . S
O710 Co700 2.021 . S
O710 C707 1.238 . S
O711 Co705 2.052 . S
O711 C707 1.241 . S
O712 Co700 2.137 . S
O712 C703 1.247 . S
O713 Co700 2.244 . S
O713 C703 1.272 . S
O713 Co705 2.135 . S
Co714 O715 2.216 . S
Co714 O716 2.091 . S
Co714 O718 2.004 . S
Co714 O724 2.021 . S
Co714 O726 2.137 . S
Co714 O727 2.244 . S
O715 Co714 2.216 . S
O715 C722 1.247 . S
O716 Co714 2.091 . S
O716 C722 1.261 . S
C717 O726 1.247 . S
C717 O727 1.272 . S
O718 Co714 2.004 . S
O718 C723 1.259 . S
Co719 O720 2.061 . S
Co719 O725 2.052 . S
Co719 O727 2.135 . S
O720 Co719 2.061 . S
O720 C723 1.235 . S
C721 O724 1.238 . S
C721 O725 1.241 . S
C722 O715 1.247 . S
C722 O716 1.261 . S
C723 O718 1.259 . S
C723 O720 1.235 . S
O724 Co714 2.021 . S
O724 C721 1.238 . S
O725 Co719 2.052 . S
O725 C721 1.241 . S
O726 Co714 2.137 . S
O726 C717 1.247 . S
O727 Co714 2.244 . S
O727 C717 1.272 . S
O727 Co719 2.135 . S
Co728 O729 2.216 . S
Co728 O730 2.091 . S
Co728 O732 2.004 . S
Co728 O738 2.021 . S
Co728 O740 2.137 . S
Co728 O741 2.244 . S
O729 Co728 2.216 . S
O729 C736 1.247 . S
O730 Co728 2.091 . S
O730 C736 1.261 . S
C731 O740 1.247 . S
C731 O741 1.272 . S
O732 Co728 2.004 . S
O732 C737 1.259 . S
Co733 O734 2.061 . S
Co733 O739 2.052 . S
Co733 O741 2.135 . S
O734 Co733 2.061 . S
O734 C737 1.235 . S
C735 O738 1.238 . S
C735 O739 1.241 . S
C736 O729 1.247 . S
C736 O730 1.261 . S
C737 O732 1.259 . S
C737 O734 1.235 . S
O738 Co728 2.021 . S
O738 C735 1.238 . S
O739 Co733 2.052 . S
O739 C735 1.241 . S
O740 Co728 2.137 . S
O740 C731 1.247 . S
O741 Co728 2.244 . S
O741 C731 1.272 . S
O741 Co733 2.135 . S
Co742 O743 2.216 . S
Co742 O744 2.091 . S
Co742 O746 2.004 . S
Co742 O752 2.021 . S
Co742 O754 2.137 . S
Co742 O755 2.244 . S
O743 Co742 2.216 . S
O743 C750 1.247 . S
O744 Co742 2.091 . S
O744 C750 1.261 . S
C745 O754 1.247 . S
C745 O755 1.272 . S
O746 Co742 2.004 . S
O746 C751 1.259 . S
Co747 O748 2.061 . S
Co747 O753 2.052 . S
Co747 O755 2.135 . S
O748 Co747 2.061 . S
O748 C751 1.235 . S
C749 O752 1.238 . S
C749 O753 1.241 . S
C750 O743 1.247 . S
C750 O744 1.261 . S
C751 O746 1.259 . S
C751 O748 1.235 . S
O752 Co742 2.021 . S
O752 C749 1.238 . S
O753 Co747 2.052 . S
O753 C749 1.241 . S
O754 Co742 2.137 . S
O754 C745 1.247 . S
O755 Co742 2.244 . S
O755 C745 1.272 . S
O755 Co747 2.135 . S
Co756 O757 2.216 . S
Co756 O758 2.091 . S
Co756 O760 2.004 . S
Co756 O766 2.021 . S
Co756 O768 2.137 . S
Co756 O769 2.244 . S
O757 Co756 2.216 . S
O757 C764 1.247 . S
O758 Co756 2.091 . S
O758 C764 1.261 . S
C759 O768 1.247 . S
C759 O769 1.272 . S
O760 Co756 2.004 . S
O760 C765 1.259 . S
Co761 O762 2.061 . S
Co761 O767 2.052 . S
Co761 O769 2.135 . S
O762 Co761 2.061 . S
O762 C765 1.235 . S
C763 O766 1.238 . S
C763 O767 1.241 . S
C764 O757 1.247 . S
C764 O758 1.261 . S
C765 O760 1.259 . S
C765 O762 1.235 . S
O766 Co756 2.021 . S
O766 C763 1.238 . S
O767 Co761 2.052 . S
O767 C763 1.241 . S
O768 Co756 2.137 . S
O768 C759 1.247 . S
O769 Co756 2.244 . S
O769 C759 1.272 . S
O769 Co761 2.135 . S
Co770 O771 2.216 . S
Co770 O772 2.091 . S
Co770 O774 2.004 . S
Co770 O780 2.021 . S
Co770 O782 2.137 . S
Co770 O783 2.244 . S
O771 Co770 2.216 . S
O771 C778 1.247 . S
O772 Co770 2.091 . S
O772 C778 1.261 . S
C773 O782 1.247 . S
C773 O783 1.272 . S
O774 Co770 2.004 . S
O774 C779 1.259 . S
Co775 O776 2.061 . S
Co775 O781 2.052 . S
Co775 O783 2.135 . S
O776 Co775 2.061 . S
O776 C779 1.235 . S
C777 O780 1.238 . S
C777 O781 1.241 . S
C778 O771 1.247 . S
C778 O772 1.261 . S
C779 O774 1.259 . S
C779 O776 1.235 . S
O780 Co770 2.021 . S
O780 C777 1.238 . S
O781 Co775 2.052 . S
O781 C777 1.241 . S
O782 Co770 2.137 . S
O782 C773 1.247 . S
O783 Co770 2.244 . S
O783 C773 1.272 . S
O783 Co775 2.135 . S
Co784 O785 2.216 . S
Co784 O786 2.091 . S
Co784 O788 2.004 . S
Co784 O794 2.021 . S
Co784 O796 2.137 . S
Co784 O797 2.244 . S
O785 Co784 2.216 . S
O785 C792 1.247 . S
O786 Co784 2.091 . S
O786 C792 1.261 . S
C787 O796 1.247 . S
C787 O797 1.272 . S
O788 Co784 2.004 . S
O788 C793 1.259 . S
Co789 O790 2.061 . S
Co789 O795 2.052 . S
Co789 O797 2.135 . S
O790 Co789 2.061 . S
O790 C793 1.235 . S
C791 O794 1.238 . S
C791 O795 1.241 . S
C792 O785 1.247 . S
C792 O786 1.261 . S
C793 O788 1.259 . S
C793 O790 1.235 . S
O794 Co784 2.021 . S
O794 C791 1.238 . S
O795 Co789 2.052 . S
O795 C791 1.241 . S
O796 Co784 2.137 . S
O796 C787 1.247 . S
O797 Co784 2.244 . S
O797 C787 1.272 . S
O797 Co789 2.135 . S
Co798 O799 2.216 . S
Co798 O800 2.091 . S
Co798 O802 2.004 . S
Co798 O808 2.021 . S
Co798 O810 2.137 . S
Co798 O811 2.244 . S
O799 Co798 2.216 . S
O799 C806 1.247 . S
O800 Co798 2.091 . S
O800 C806 1.261 . S
C801 O810 1.247 . S
C801 O811 1.272 . S
O802 Co798 2.004 . S
O802 C807 1.259 . S
Co803 O804 2.061 . S
Co803 O809 2.052 . S
Co803 O811 2.135 . S
O804 Co803 2.061 . S
O804 C807 1.235 . S
C805 O808 1.238 . S
C805 O809 1.241 . S
C806 O799 1.247 . S
C806 O800 1.261 . S
C807 O802 1.259 . S
C807 O804 1.235 . S
O808 Co798 2.021 . S
O808 C805 1.238 . S
O809 Co803 2.052 . S
O809 C805 1.241 . S
O810 Co798 2.137 . S
O810 C801 1.247 . S
O811 Co798 2.244 . S
O811 C801 1.272 . S
O811 Co803 2.135 . S
Co812 O813 2.216 . S
Co812 O814 2.091 . S
Co812 O816 2.004 . S
Co812 O822 2.021 . S
Co812 O824 2.137 . S
Co812 O825 2.244 . S
O813 Co812 2.216 . S
O813 C820 1.247 . S
O814 Co812 2.091 . S
O814 C820 1.261 . S
C815 O824 1.247 . S
C815 O825 1.272 . S
O816 Co812 2.004 . S
O816 C821 1.259 . S
Co817 O818 2.061 . S
Co817 O823 2.052 . S
Co817 O825 2.135 . S
O818 Co817 2.061 . S
O818 C821 1.235 . S
C819 O822 1.238 . S
C819 O823 1.241 . S
C820 O813 1.247 . S
C820 O814 1.261 . S
C821 O816 1.259 . S
C821 O818 1.235 . S
O822 Co812 2.021 . S
O822 C819 1.238 . S
O823 Co817 2.052 . S
O823 C819 1.241 . S
O824 Co812 2.137 . S
O824 C815 1.247 . S
O825 Co812 2.244 . S
O825 C815 1.272 . S
O825 Co817 2.135 . S
Co826 O827 2.216 . S
Co826 O828 2.091 . S
Co826 O830 2.004 . S
Co826 O836 2.021 . S
Co826 O838 2.137 . S
Co826 O839 2.244 . S
O827 Co826 2.216 . S
O827 C834 1.247 . S
O828 Co826 2.091 . S
O828 C834 1.261 . S
C829 O838 1.247 . S
C829 O839 1.272 . S
O830 Co826 2.004 . S
O830 C835 1.259 . S
Co831 O832 2.061 . S
Co831 O837 2.052 . S
Co831 O839 2.135 . S
O832 Co831 2.061 . S
O832 C835 1.235 . S
C833 O836 1.238 . S
C833 O837 1.241 . S
C834 O827 1.247 . S
C834 O828 1.261 . S
C835 O830 1.259 . S
C835 O832 1.235 . S
O836 Co826 2.021 . S
O836 C833 1.238 . S
O837 Co831 2.052 . S
O837 C833 1.241 . S
O838 Co826 2.137 . S
O838 C829 1.247 . S
O839 Co826 2.244 . S
O839 C829 1.272 . S
O839 Co831 2.135 . S
Co840 O841 2.216 . S
Co840 O842 2.091 . S
Co840 O844 2.004 . S
Co840 O850 2.021 . S
Co840 O852 2.137 . S
Co840 O853 2.244 . S
O841 Co840 2.216 . S
O841 C848 1.247 . S
O842 Co840 2.091 . S
O842 C848 1.261 . S
C843 O852 1.247 . S
C843 O853 1.272 . S
O844 Co840 2.004 . S
O844 C849 1.259 . S
Co845 O846 2.061 . S
Co845 O851 2.052 . S
Co845 O853 2.135 . S
O846 Co845 2.061 . S
O846 C849 1.235 . S
C847 O850 1.238 . S
C847 O851 1.241 . S
C848 O841 1.247 . S
C848 O842 1.261 . S
C849 O844 1.259 . S
C849 O846 1.235 . S
O850 Co840 2.021 . S
O850 C847 1.238 . S
O851 Co845 2.052 . S
O851 C847 1.241 . S
O852 Co840 2.137 . S
O852 C843 1.247 . S
O853 Co840 2.244 . S
O853 C843 1.272 . S
O853 Co845 2.135 . S
Co854 O855 2.216 . S
Co854 O856 2.091 . S
Co854 O858 2.004 . S
Co854 O864 2.021 . S
Co854 O866 2.137 . S
Co854 O867 2.244 . S
O855 Co854 2.216 . S
O855 C862 1.247 . S
O856 Co854 2.091 . S
O856 C862 1.261 . S
C857 O866 1.247 . S
C857 O867 1.272 . S
O858 Co854 2.004 . S
O858 C863 1.259 . S
Co859 O860 2.061 . S
Co859 O865 2.052 . S
Co859 O867 2.135 . S
O860 Co859 2.061 . S
O860 C863 1.235 . S
C861 O864 1.238 . S
C861 O865 1.241 . S
C862 O855 1.247 . S
C862 O856 1.261 . S
C863 O858 1.259 . S
C863 O860 1.235 . S
O864 Co854 2.021 . S
O864 C861 1.238 . S
O865 Co859 2.052 . S
O865 C861 1.241 . S
O866 Co854 2.137 . S
O866 C857 1.247 . S
O867 Co854 2.244 . S
O867 C857 1.272 . S
O867 Co859 2.135 . S
Co868 O869 2.216 . S
Co868 O870 2.091 . S
Co868 O872 2.004 . S
Co868 O878 2.021 . S
Co868 O880 2.137 . S
Co868 O881 2.244 . S
O869 Co868 2.216 . S
O869 C876 1.247 . S
O870 Co868 2.091 . S
O870 C876 1.261 . S
C871 O880 1.247 . S
C871 O881 1.272 . S
O872 Co868 2.004 . S
O872 C877 1.259 . S
Co873 O874 2.061 . S
Co873 O879 2.052 . S
Co873 O881 2.135 . S
O874 Co873 2.061 . S
O874 C877 1.235 . S
C875 O878 1.238 . S
C875 O879 1.241 . S
C876 O869 1.247 . S
C876 O870 1.261 . S
C877 O872 1.259 . S
C877 O874 1.235 . S
O878 Co868 2.021 . S
O878 C875 1.238 . S
O879 Co873 2.052 . S
O879 C875 1.241 . S
O880 Co868 2.137 . S
O880 C871 1.247 . S
O881 Co868 2.244 . S
O881 C871 1.272 . S
O881 Co873 2.135 . S
Co882 O883 2.216 . S
Co882 O884 2.091 . S
Co882 O886 2.004 . S
Co882 O892 2.021 . S
Co882 O894 2.137 . S
Co882 O895 2.244 . S
O883 Co882 2.216 . S
O883 C890 1.247 . S
O884 Co882 2.091 . S
O884 C890 1.261 . S
C885 O894 1.247 . S
C885 O895 1.272 . S
O886 Co882 2.004 . S
O886 C891 1.259 . S
Co887 O888 2.061 . S
Co887 O893 2.052 . S
Co887 O895 2.135 . S
O888 Co887 2.061 . S
O888 C891 1.235 . S
C889 O892 1.238 . S
C889 O893 1.241 . S
C890 O883 1.247 . S
C890 O884 1.261 . S
C891 O886 1.259 . S
C891 O888 1.235 . S
O892 Co882 2.021 . S
O892 C889 1.238 . S
O893 Co887 2.052 . S
O893 C889 1.241 . S
O894 Co882 2.137 . S
O894 C885 1.247 . S
O895 Co882 2.244 . S
O895 C885 1.272 . S
O895 Co887 2.135 . S
Co896 O897 2.216 . S
Co896 O898 2.091 . S
Co896 O900 2.004 . S
Co896 O906 2.021 . S
Co896 O908 2.137 . S
Co896 O909 2.244 . S
O897 Co896 2.216 . S
O897 C904 1.247 . S
O898 Co896 2.091 . S
O898 C904 1.261 . S
C899 O908 1.247 . S
C899 O909 1.272 . S
O900 Co896 2.004 . S
O900 C905 1.259 . S
Co901 O902 2.061 . S
Co901 O907 2.052 . S
Co901 O909 2.135 . S
O902 Co901 2.061 . S
O902 C905 1.235 . S
C903 O906 1.238 . S
C903 O907 1.241 . S
C904 O897 1.247 . S
C904 O898 1.261 . S
C905 O900 1.259 . S
C905 O902 1.235 . S
O906 Co896 2.021 . S
O906 C903 1.238 . S
O907 Co901 2.052 . S
O907 C903 1.241 . S
O908 Co896 2.137 . S
O908 C899 1.247 . S
O909 Co896 2.244 . S
O909 C899 1.272 . S
O909 Co901 2.135 . S
Co910 O911 2.216 . S
Co910 O912 2.091 . S
Co910 O914 2.004 . S
Co910 O920 2.021 . S
Co910 O922 2.137 . S
Co910 O923 2.244 . S
O911 Co910 2.216 . S
O911 C918 1.247 . S
O912 Co910 2.091 . S
O912 C918 1.261 . S
C913 O922 1.247 . S
C913 O923 1.272 . S
O914 Co910 2.004 . S
O914 C919 1.259 . S
Co915 O916 2.061 . S
Co915 O921 2.052 . S
Co915 O923 2.135 . S
O916 Co915 2.061 . S
O916 C919 1.235 . S
C917 O920 1.238 . S
C917 O921 1.241 . S
C918 O911 1.247 . S
C918 O912 1.261 . S
C919 O914 1.259 . S
C919 O916 1.235 . S
O920 Co910 2.021 . S
O920 C917 1.238 . S
O921 Co915 2.052 . S
O921 C917 1.241 . S
O922 Co910 2.137 . S
O922 C913 1.247 . S
O923 Co910 2.244 . S
O923 C913 1.272 . S
O923 Co915 2.135 . S
Co924 O925 2.216 . S
Co924 O926 2.091 . S
Co924 O928 2.004 . S
Co924 O934 2.021 . S
Co924 O936 2.137 . S
Co924 O937 2.244 . S
O925 Co924 2.216 . S
O925 C932 1.247 . S
O926 Co924 2.091 . S
O926 C932 1.261 . S
C927 O936 1.247 . S
C927 O937 1.272 . S
O928 Co924 2.004 . S
O928 C933 1.259 . S
Co929 O930 2.061 . S
Co929 O935 2.052 . S
Co929 O937 2.135 . S
O930 Co929 2.061 . S
O930 C933 1.235 . S
C931 O934 1.238 . S
C931 O935 1.241 . S
C932 O925 1.247 . S
C932 O926 1.261 . S
C933 O928 1.259 . S
C933 O930 1.235 . S
O934 Co924 2.021 . S
O934 C931 1.238 . S
O935 Co929 2.052 . S
O935 C931 1.241 . S
O936 Co924 2.137 . S
O936 C927 1.247 . S
O937 Co924 2.244 . S
O937 C927 1.272 . S
O937 Co929 2.135 . S
Co938 O939 2.216 . S
Co938 O940 2.091 . S
Co938 O942 2.004 . S
Co938 O948 2.021 . S
Co938 O950 2.137 . S
Co938 O951 2.244 . S
O939 Co938 2.216 . S
O939 C946 1.247 . S
O940 Co938 2.091 . S
O940 C946 1.261 . S
C941 O950 1.247 . S
C941 O951 1.272 . S
O942 Co938 2.004 . S
O942 C947 1.259 . S
Co943 O944 2.061 . S
Co943 O949 2.052 . S
Co943 O951 2.135 . S
O944 Co943 2.061 . S
O944 C947 1.235 . S
C945 O948 1.238 . S
C945 O949 1.241 . S
C946 O939 1.247 . S
C946 O940 1.261 . S
C947 O942 1.259 . S
C947 O944 1.235 . S
O948 Co938 2.021 . S
O948 C945 1.238 . S
O949 Co943 2.052 . S
O949 C945 1.241 . S
O950 Co938 2.137 . S
O950 C941 1.247 . S
O951 Co938 2.244 . S
O951 C941 1.272 . S
O951 Co943 2.135 . S
Co952 O953 2.216 . S
Co952 O954 2.091 . S
Co952 O956 2.004 . S
Co952 O962 2.021 . S
Co952 O964 2.137 . S
Co952 O965 2.244 . S
O953 Co952 2.216 . S
O953 C960 1.247 . S
O954 Co952 2.091 . S
O954 C960 1.261 . S
C955 O964 1.247 . S
C955 O965 1.272 . S
O956 Co952 2.004 . S
O956 C961 1.259 . S
Co957 O958 2.061 . S
Co957 O963 2.052 . S
Co957 O965 2.135 . S
O958 Co957 2.061 . S
O958 C961 1.235 . S
C959 O962 1.238 . S
C959 O963 1.241 . S
C960 O953 1.247 . S
C960 O954 1.261 . S
C961 O956 1.259 . S
C961 O958 1.235 . S
O962 Co952 2.021 . S
O962 C959 1.238 . S
O963 Co957 2.052 . S
O963 C959 1.241 . S
O964 Co952 2.137 . S
O964 C955 1.247 . S
O965 Co952 2.244 . S
O965 C955 1.272 . S
O965 Co957 2.135 . S
Co966 O967 2.216 . S
Co966 O968 2.091 . S
Co966 O970 2.004 . S
Co966 O976 2.021 . S
Co966 O978 2.137 . S
Co966 O979 2.244 . S
O967 Co966 2.216 . S
O967 C974 1.247 . S
O968 Co966 2.091 . S
O968 C974 1.261 . S
C969 O978 1.247 . S
C969 O979 1.272 . S
O970 Co966 2.004 . S
O970 C975 1.259 . S
Co971 O972 2.061 . S
Co971 O977 2.052 . S
Co971 O979 2.135 . S
O972 Co971 2.061 . S
O972 C975 1.235 . S
C973 O976 1.238 . S
C973 O977 1.241 . S
C974 O967 1.247 . S
C974 O968 1.261 . S
C975 O970 1.259 . S
C975 O972 1.235 . S
O976 Co966 2.021 . S
O976 C973 1.238 . S
O977 Co971 2.052 . S
O977 C973 1.241 . S
O978 Co966 2.137 . S
O978 C969 1.247 . S
O979 Co966 2.244 . S
O979 C969 1.272 . S
O979 Co971 2.135 . S
Co980 O981 2.216 . S
Co980 O982 2.091 . S
Co980 O984 2.004 . S
Co980 O990 2.021 . S
Co980 O992 2.137 . S
Co980 O993 2.244 . S
O981 Co980 2.216 . S
O981 C988 1.247 . S
O982 Co980 2.091 . S
O982 C988 1.261 . S
C983 O992 1.247 . S
C983 O993 1.272 . S
O984 Co980 2.004 . S
O984 C989 1.259 . S
Co985 O986 2.061 . S
Co985 O991 2.052 . S
Co985 O993 2.135 . S
O986 Co985 2.061 . S
O986 C989 1.235 . S
C987 O990 1.238 . S
C987 O991 1.241 . S
C988 O981 1.247 . S
C988 O982 1.261 . S
C989 O984 1.259 . S
C989 O986 1.235 . S
O990 Co980 2.021 . S
O990 C987 1.238 . S
O991 Co985 2.052 . S
O991 C987 1.241 . S
O992 Co980 2.137 . S
O992 C983 1.247 . S
O993 Co980 2.244 . S
O993 C983 1.272 . S
O993 Co985 2.135 . S
Co994 O995 2.216 . S
Co994 O996 2.091 . S
Co994 O998 2.004 . S
Co994 O1004 2.021 . S
Co994 O1006 2.137 . S
Co994 O1007 2.244 . S
O995 Co994 2.216 . S
O995 C1002 1.247 . S
O996 Co994 2.091 . S
O996 C1002 1.261 . S
C997 O1006 1.247 . S
C997 O1007 1.272 . S
O998 Co994 2.004 . S
O998 C1003 1.259 . S
Co999 O1000 2.061 . S
Co999 O1005 2.052 . S
Co999 O1007 2.135 . S
O1000 Co999 2.061 . S
O1000 C1003 1.235 . S
C1001 O1004 1.238 . S
C1001 O1005 1.241 . S
C1002 O995 1.247 . S
C1002 O996 1.261 . S
C1003 O998 1.259 . S
C1003 O1000 1.235 . S
O1004 Co994 2.021 . S
O1004 C1001 1.238 . S
O1005 Co999 2.052 . S
O1005 C1001 1.241 . S
O1006 Co994 2.137 . S
O1006 C997 1.247 . S
O1007 Co994 2.244 . S
O1007 C997 1.272 . S
O1007 Co999 2.135 . S
Co1008 O1009 2.216 . S
Co1008 O1010 2.091 . S
Co1008 O1012 2.004 . S
Co1008 O1018 2.021 . S
Co1008 O1020 2.137 . S
Co1008 O1021 2.244 . S
O1009 Co1008 2.216 . S
O1009 C1016 1.247 . S
O1010 Co1008 2.091 . S
O1010 C1016 1.261 . S
C1011 O1020 1.247 . S
C1011 O1021 1.272 . S
O1012 Co1008 2.004 . S
O1012 C1017 1.259 . S
Co1013 O1014 2.061 . S
Co1013 O1019 2.052 . S
Co1013 O1021 2.135 . S
O1014 Co1013 2.061 . S
O1014 C1017 1.235 . S
C1015 O1018 1.238 . S
C1015 O1019 1.241 . S
C1016 O1009 1.247 . S
C1016 O1010 1.261 . S
C1017 O1012 1.259 . S
C1017 O1014 1.235 . S
O1018 Co1008 2.021 . S
O1018 C1015 1.238 . S
O1019 Co1013 2.052 . S
O1019 C1015 1.241 . S
O1020 Co1008 2.137 . S
O1020 C1011 1.247 . S
O1021 Co1008 2.244 . S
O1021 C1011 1.272 . S
O1021 Co1013 2.135 . S
Co1022 O1023 2.216 . S
Co1022 O1024 2.091 . S
Co1022 O1026 2.004 . S
Co1022 O1032 2.021 . S
Co1022 O1034 2.137 . S
Co1022 O1035 2.244 . S
O1023 Co1022 2.216 . S
O1023 C1030 1.247 . S
O1024 Co1022 2.091 . S
O1024 C1030 1.261 . S
C1025 O1034 1.247 . S
C1025 O1035 1.272 . S
O1026 Co1022 2.004 . S
O1026 C1031 1.259 . S
Co1027 O1028 2.061 . S
Co1027 O1033 2.052 . S
Co1027 O1035 2.135 . S
O1028 Co1027 2.061 . S
O1028 C1031 1.235 . S
C1029 O1032 1.238 . S
C1029 O1033 1.241 . S
C1030 O1023 1.247 . S
C1030 O1024 1.261 . S
C1031 O1026 1.259 . S
C1031 O1028 1.235 . S
O1032 Co1022 2.021 . S
O1032 C1029 1.238 . S
O1033 Co1027 2.052 . S
O1033 C1029 1.241 . S
O1034 Co1022 2.137 . S
O1034 C1025 1.247 . S
O1035 Co1022 2.244 . S
O1035 C1025 1.272 . S
O1035 Co1027 2.135 . S
Co1036 O1037 2.216 . S
Co1036 O1038 2.091 . S
Co1036 O1040 2.004 . S
Co1036 O1046 2.021 . S
Co1036 O1048 2.137 . S
Co1036 O1049 2.244 . S
O1037 Co1036 2.216 . S
O1037 C1044 1.247 . S
O1038 Co1036 2.091 . S
O1038 C1044 1.261 . S
C1039 O1048 1.247 . S
C1039 O1049 1.272 . S
O1040 Co1036 2.004 . S
O1040 C1045 1.259 . S
Co1041 O1042 2.061 . S
Co1041 O1047 2.052 . S
Co1041 O1049 2.135 . S
O1042 Co1041 2.061 . S
O1042 C1045 1.235 . S
C1043 O1046 1.238 . S
C1043 O1047 1.241 . S
C1044 O1037 1.247 . S
C1044 O1038 1.261 . S
C1045 O1040 1.259 . S
C1045 O1042 1.235 . S
O1046 Co1036 2.021 . S
O1046 C1043 1.238 . S
O1047 Co1041 2.052 . S
O1047 C1043 1.241 . S
O1048 Co1036 2.137 . S
O1048 C1039 1.247 . S
O1049 Co1036 2.244 . S
O1049 C1039 1.272 . S
O1049 Co1041 2.135 . S
Co1050 O1051 2.216 . S
Co1050 O1052 2.091 . S
Co1050 O1054 2.004 . S
Co1050 O1060 2.021 . S
Co1050 O1062 2.137 . S
Co1050 O1063 2.244 . S
O1051 Co1050 2.216 . S
O1051 C1058 1.247 . S
O1052 Co1050 2.091 . S
O1052 C1058 1.261 . S
C1053 O1062 1.247 . S
C1053 O1063 1.272 . S
O1054 Co1050 2.004 . S
O1054 C1059 1.259 . S
Co1055 O1056 2.061 . S
Co1055 O1061 2.052 . S
Co1055 O1063 2.135 . S
O1056 Co1055 2.061 . S
O1056 C1059 1.235 . S
C1057 O1060 1.238 . S
C1057 O1061 1.241 . S
C1058 O1051 1.247 . S
C1058 O1052 1.261 . S
C1059 O1054 1.259 . S
C1059 O1056 1.235 . S
O1060 Co1050 2.021 . S
O1060 C1057 1.238 . S
O1061 Co1055 2.052 . S
O1061 C1057 1.241 . S
O1062 Co1050 2.137 . S
O1062 C1053 1.247 . S
O1063 Co1050 2.244 . S
O1063 C1053 1.272 . S
O1063 Co1055 2.135 . S
Co1064 O1065 2.216 . S
Co1064 O1066 2.091 . S
Co1064 O1068 2.004 . S
Co1064 O1074 2.021 . S
Co1064 O1076 2.137 . S
Co1064 O1077 2.244 . S
O1065 Co1064 2.216 . S
O1065 C1072 1.247 . S
O1066 Co1064 2.091 . S
O1066 C1072 1.261 . S
C1067 O1076 1.247 . S
C1067 O1077 1.272 . S
O1068 Co1064 2.004 . S
O1068 C1073 1.259 . S
Co1069 O1070 2.061 . S
Co1069 O1075 2.052 . S
Co1069 O1077 2.135 . S
O1070 Co1069 2.061 . S
O1070 C1073 1.235 . S
C1071 O1074 1.238 . S
C1071 O1075 1.241 . S
C1072 O1065 1.247 . S
C1072 O1066 1.261 . S
C1073 O1068 1.259 . S
C1073 O1070 1.235 . S
O1074 Co1064 2.021 . S
O1074 C1071 1.238 . S
O1075 Co1069 2.052 . S
O1075 C1071 1.241 . S
O1076 Co1064 2.137 . S
O1076 C1067 1.247 . S
O1077 Co1064 2.244 . S
O1077 C1067 1.272 . S
O1077 Co1069 2.135 . S
Co1078 O1079 2.216 . S
Co1078 O1080 2.091 . S
Co1078 O1082 2.004 . S
Co1078 O1088 2.021 . S
Co1078 O1090 2.137 . S
Co1078 O1091 2.244 . S
O1079 Co1078 2.216 . S
O1079 C1086 1.247 . S
O1080 Co1078 2.091 . S
O1080 C1086 1.261 . S
C1081 O1090 1.247 . S
C1081 O1091 1.272 . S
O1082 Co1078 2.004 . S
O1082 C1087 1.259 . S
Co1083 O1084 2.061 . S
Co1083 O1089 2.052 . S
Co1083 O1091 2.135 . S
O1084 Co1083 2.061 . S
O1084 C1087 1.235 . S
C1085 O1088 1.238 . S
C1085 O1089 1.241 . S
C1086 O1079 1.247 . S
C1086 O1080 1.261 . S
C1087 O1082 1.259 . S
C1087 O1084 1.235 . S
O1088 Co1078 2.021 . S
O1088 C1085 1.238 . S
O1089 Co1083 2.052 . S
O1089 C1085 1.241 . S
O1090 Co1078 2.137 . S
O1090 C1081 1.247 . S
O1091 Co1078 2.244 . S
O1091 C1081 1.272 . S
O1091 Co1083 2.135 . S
Co1092 O1093 2.216 . S
Co1092 O1094 2.091 . S
Co1092 O1096 2.004 . S
Co1092 O1102 2.021 . S
Co1092 O1104 2.137 . S
Co1092 O1105 2.244 . S
O1093 Co1092 2.216 . S
O1093 C1100 1.247 . S
O1094 Co1092 2.091 . S
O1094 C1100 1.261 . S
C1095 O1104 1.247 . S
C1095 O1105 1.272 . S
O1096 Co1092 2.004 . S
O1096 C1101 1.259 . S
Co1097 O1098 2.061 . S
Co1097 O1103 2.052 . S
Co1097 O1105 2.135 . S
O1098 Co1097 2.061 . S
O1098 C1101 1.235 . S
C1099 O1102 1.238 . S
C1099 O1103 1.241 . S
C1100 O1093 1.247 . S
C1100 O1094 1.261 . S
C1101 O1096 1.259 . S
C1101 O1098 1.235 . S
O1102 Co1092 2.021 . S
O1102 C1099 1.238 . S
O1103 Co1097 2.052 . S
O1103 C1099 1.241 . S
O1104 Co1092 2.137 . S
O1104 C1095 1.247 . S
O1105 Co1092 2.244 . S
O1105 C1095 1.272 . S
O1105 Co1097 2.135 . S
Co1106 O1107 2.216 . S
Co1106 O1108 2.091 . S
Co1106 O1110 2.004 . S
Co1106 O1116 2.021 . S
Co1106 O1118 2.137 . S
Co1106 O1119 2.244 . S
O1107 Co1106 2.216 . S
O1107 C1114 1.247 . S
O1108 Co1106 2.091 . S
O1108 C1114 1.261 . S
C1109 O1118 1.247 . S
C1109 O1119 1.272 . S
O1110 Co1106 2.004 . S
O1110 C1115 1.259 . S
Co1111 O1112 2.061 . S
Co1111 O1117 2.052 . S
Co1111 O1119 2.135 . S
O1112 Co1111 2.061 . S
O1112 C1115 1.235 . S
C1113 O1116 1.238 . S
C1113 O1117 1.241 . S
C1114 O1107 1.247 . S
C1114 O1108 1.261 . S
C1115 O1110 1.259 . S
C1115 O1112 1.235 . S
O1116 Co1106 2.021 . S
O1116 C1113 1.238 . S
O1117 Co1111 2.052 . S
O1117 C1113 1.241 . S
O1118 Co1106 2.137 . S
O1118 C1109 1.247 . S
O1119 Co1106 2.244 . S
O1119 C1109 1.272 . S
O1119 Co1111 2.135 . S
Co1120 O1121 2.216 . S
Co1120 O1122 2.091 . S
Co1120 O1124 2.004 . S
Co1120 O1130 2.021 . S
Co1120 O1132 2.137 . S
Co1120 O1133 2.244 . S
O1121 Co1120 2.216 . S
O1121 C1128 1.247 . S
O1122 Co1120 2.091 . S
O1122 C1128 1.261 . S
C1123 O1132 1.247 . S
C1123 O1133 1.272 . S
O1124 Co1120 2.004 . S
O1124 C1129 1.259 . S
Co1125 O1126 2.061 . S
Co1125 O1131 2.052 . S
Co1125 O1133 2.135 . S
O1126 Co1125 2.061 . S
O1126 C1129 1.235 . S
C1127 O1130 1.238 . S
C1127 O1131 1.241 . S
C1128 O1121 1.247 . S
C1128 O1122 1.261 . S
C1129 O1124 1.259 . S
C1129 O1126 1.235 . S
O1130 Co1120 2.021 . S
O1130 C1127 1.238 . S
O1131 Co1125 2.052 . S
O1131 C1127 1.241 . S
O1132 Co1120 2.137 . S
O1132 C1123 1.247 . S
O1133 Co1120 2.244 . S
O1133 C1123 1.272 . S
O1133 Co1125 2.135 . S
Co1134 O1135 2.216 . S
Co1134 O1136 2.091 . S
Co1134 O1138 2.004 . S
Co1134 O1144 2.021 . S
Co1134 O1146 2.137 . S
Co1134 O1147 2.244 . S
O1135 Co1134 2.216 . S
O1135 C1142 1.247 . S
O1136 Co1134 2.091 . S
O1136 C1142 1.261 . S
C1137 O1146 1.247 . S
C1137 O1147 1.272 . S
O1138 Co1134 2.004 . S
O1138 C1143 1.259 . S
Co1139 O1140 2.061 . S
Co1139 O1145 2.052 . S
Co1139 O1147 2.135 . S
O1140 Co1139 2.061 . S
O1140 C1143 1.235 . S
C1141 O1144 1.238 . S
C1141 O1145 1.241 . S
C1142 O1135 1.247 . S
C1142 O1136 1.261 . S
C1143 O1138 1.259 . S
C1143 O1140 1.235 . S
O1144 Co1134 2.021 . S
O1144 C1141 1.238 . S
O1145 Co1139 2.052 . S
O1145 C1141 1.241 . S
O1146 Co1134 2.137 . S
O1146 C1137 1.247 . S
O1147 Co1134 2.244 . S
O1147 C1137 1.272 . S
O1147 Co1139 2.135 . S
Co1148 O1149 2.216 . S
Co1148 O1150 2.091 . S
Co1148 O1152 2.004 . S
Co1148 O1158 2.021 . S
Co1148 O1160 2.137 . S
Co1148 O1161 2.244 . S
O1149 Co1148 2.216 . S
O1149 C1156 1.247 . S
O1150 Co1148 2.091 . S
O1150 C1156 1.261 . S
C1151 O1160 1.247 . S
C1151 O1161 1.272 . S
O1152 Co1148 2.004 . S
O1152 C1157 1.259 . S
Co1153 O1154 2.061 . S
Co1153 O1159 2.052 . S
Co1153 O1161 2.135 . S
O1154 Co1153 2.061 . S
O1154 C1157 1.235 . S
C1155 O1158 1.238 . S
C1155 O1159 1.241 . S
C1156 O1149 1.247 . S
C1156 O1150 1.261 . S
C1157 O1152 1.259 . S
C1157 O1154 1.235 . S
O1158 Co1148 2.021 . S
O1158 C1155 1.238 . S
O1159 Co1153 2.052 . S
O1159 C1155 1.241 . S
O1160 Co1148 2.137 . S
O1160 C1151 1.247 . S
O1161 Co1148 2.244 . S
O1161 C1151 1.272 . S
O1161 Co1153 2.135 . S
Co1162 O1163 2.216 . S
Co1162 O1164 2.091 . S
Co1162 O1166 2.004 . S
Co1162 O1172 2.021 . S
Co1162 O1174 2.137 . S
Co1162 O1175 2.244 . S
O1163 Co1162 2.216 . S
O1163 C1170 1.247 . S
O1164 Co1162 2.091 . S
O1164 C1170 1.261 . S
C1165 O1174 1.247 . S
C1165 O1175 1.272 . S
O1166 Co1162 2.004 . S
O1166 C1171 1.259 . S
Co1167 O1168 2.061 . S
Co1167 O1173 2.052 . S
Co1167 O1175 2.135 . S
O1168 Co1167 2.061 . S
O1168 C1171 1.235 . S
C1169 O1172 1.238 . S
C1169 O1173 1.241 . S
C1170 O1163 1.247 . S
C1170 O1164 1.261 . S
C1171 O1166 1.259 . S
C1171 O1168 1.235 . S
O1172 Co1162 2.021 . S
O1172 C1169 1.238 . S
O1173 Co1167 2.052 . S
O1173 C1169 1.241 . S
O1174 Co1162 2.137 . S
O1174 C1165 1.247 . S
O1175 Co1162 2.244 . S
O1175 C1165 1.272 . S
O1175 Co1167 2.135 . S
Co1176 O1177 2.216 . S
Co1176 O1178 2.091 . S
Co1176 O1180 2.004 . S
Co1176 O1186 2.021 . S
Co1176 O1188 2.137 . S
Co1176 O1189 2.244 . S
O1177 Co1176 2.216 . S
O1177 C1184 1.247 . S
O1178 Co1176 2.091 . S
O1178 C1184 1.261 . S
C1179 O1188 1.247 . S
C1179 O1189 1.272 . S
O1180 Co1176 2.004 . S
O1180 C1185 1.259 . S
Co1181 O1182 2.061 . S
Co1181 O1187 2.052 . S
Co1181 O1189 2.135 . S
O1182 Co1181 2.061 . S
O1182 C1185 1.235 . S
C1183 O1186 1.238 . S
C1183 O1187 1.241 . S
C1184 O1177 1.247 . S
C1184 O1178 1.261 . S
C1185 O1180 1.259 . S
C1185 O1182 1.235 . S
O1186 Co1176 2.021 . S
O1186 C1183 1.238 . S
O1187 Co1181 2.052 . S
O1187 C1183 1.241 . S
O1188 Co1176 2.137 . S
O1188 C1179 1.247 . S
O1189 Co1176 2.244 . S
O1189 C1179 1.272 . S
O1189 Co1181 2.135 . S
Co1190 O1191 2.216 . S
Co1190 O1192 2.091 . S
Co1190 O1194 2.004 . S
Co1190 O1200 2.021 . S
Co1190 O1202 2.137 . S
Co1190 O1203 2.244 . S
O1191 Co1190 2.216 . S
O1191 C1198 1.247 . S
O1192 Co1190 2.091 . S
O1192 C1198 1.261 . S
C1193 O1202 1.247 . S
C1193 O1203 1.272 . S
O1194 Co1190 2.004 . S
O1194 C1199 1.259 . S
Co1195 O1196 2.061 . S
Co1195 O1201 2.052 . S
Co1195 O1203 2.135 . S
O1196 Co1195 2.061 . S
O1196 C1199 1.235 . S
C1197 O1200 1.238 . S
C1197 O1201 1.241 . S
C1198 O1191 1.247 . S
C1198 O1192 1.261 . S
C1199 O1194 1.259 . S
C1199 O1196 1.235 . S
O1200 Co1190 2.021 . S
O1200 C1197 1.238 . S
O1201 Co1195 2.052 . S
O1201 C1197 1.241 . S
O1202 Co1190 2.137 . S
O1202 C1193 1.247 . S
O1203 Co1190 2.244 . S
O1203 C1193 1.272 . S
O1203 Co1195 2.135 . S
Co1204 O1205 2.216 . S
Co1204 O1206 2.091 . S
Co1204 O1208 2.004 . S
Co1204 O1214 2.021 . S
Co1204 O1216 2.137 . S
Co1204 O1217 2.244 . S
O1205 Co1204 2.216 . S
O1205 C1212 1.247 . S
O1206 Co1204 2.091 . S
O1206 C1212 1.261 . S
C1207 O1216 1.247 . S
C1207 O1217 1.272 . S
O1208 Co1204 2.004 . S
O1208 C1213 1.259 . S
Co1209 O1210 2.061 . S
Co1209 O1215 2.052 . S
Co1209 O1217 2.135 . S
O1210 Co1209 2.061 . S
O1210 C1213 1.235 . S
C1211 O1214 1.238 . S
C1211 O1215 1.241 . S
C1212 O1205 1.247 . S
C1212 O1206 1.261 . S
C1213 O1208 1.259 . S
C1213 O1210 1.235 . S
O1214 Co1204 2.021 . S
O1214 C1211 1.238 . S
O1215 Co1209 2.052 . S
O1215 C1211 1.241 . S
O1216 Co1204 2.137 . S
O1216 C1207 1.247 . S
O1217 Co1204 2.244 . S
O1217 C1207 1.272 . S
O1217 Co1209 2.135 . S
Co1218 O1219 2.216 . S
Co1218 O1220 2.091 . S
Co1218 O1222 2.004 . S
Co1218 O1228 2.021 . S
Co1218 O1230 2.137 . S
Co1218 O1231 2.244 . S
O1219 Co1218 2.216 . S
O1219 C1226 1.247 . S
O1220 Co1218 2.091 . S
O1220 C1226 1.261 . S
C1221 O1230 1.247 . S
C1221 O1231 1.272 . S
O1222 Co1218 2.004 . S
O1222 C1227 1.259 . S
Co1223 O1224 2.061 . S
Co1223 O1229 2.052 . S
Co1223 O1231 2.135 . S
O1224 Co1223 2.061 . S
O1224 C1227 1.235 . S
C1225 O1228 1.238 . S
C1225 O1229 1.241 . S
C1226 O1219 1.247 . S
C1226 O1220 1.261 . S
C1227 O1222 1.259 . S
C1227 O1224 1.235 . S
O1228 Co1218 2.021 . S
O1228 C1225 1.238 . S
O1229 Co1223 2.052 . S
O1229 C1225 1.241 . S
O1230 Co1218 2.137 . S
O1230 C1221 1.247 . S
O1231 Co1218 2.244 . S
O1231 C1221 1.272 . S
O1231 Co1223 2.135 . S
Co1232 O1233 2.216 . S
Co1232 O1234 2.091 . S
Co1232 O1236 2.004 . S
Co1232 O1242 2.021 . S
Co1232 O1244 2.137 . S
Co1232 O1245 2.244 . S
O1233 Co1232 2.216 . S
O1233 C1240 1.247 . S
O1234 Co1232 2.091 . S
O1234 C1240 1.261 . S
C1235 O1244 1.247 . S
C1235 O1245 1.272 . S
O1236 Co1232 2.004 . S
O1236 C1241 1.259 . S
Co1237 O1238 2.061 . S
Co1237 O1243 2.052 . S
Co1237 O1245 2.135 . S
O1238 Co1237 2.061 . S
O1238 C1241 1.235 . S
C1239 O1242 1.238 . S
C1239 O1243 1.241 . S
C1240 O1233 1.247 . S
C1240 O1234 1.261 . S
C1241 O1236 1.259 . S
C1241 O1238 1.235 . S
O1242 Co1232 2.021 . S
O1242 C1239 1.238 . S
O1243 Co1237 2.052 . S
O1243 C1239 1.241 . S
O1244 Co1232 2.137 . S
O1244 C1235 1.247 . S
O1245 Co1232 2.244 . S
O1245 C1235 1.272 . S
O1245 Co1237 2.135 . S
Co1246 O1247 2.216 . S
Co1246 O1248 2.091 . S
Co1246 O1250 2.004 . S
Co1246 O1256 2.021 . S
Co1246 O1258 2.137 . S
Co1246 O1259 2.244 . S
O1247 Co1246 2.216 . S
O1247 C1254 1.247 . S
O1248 Co1246 2.091 . S
O1248 C1254 1.261 . S
C1249 O1258 1.247 . S
C1249 O1259 1.272 . S
O1250 Co1246 2.004 . S
O1250 C1255 1.259 . S
Co1251 O1252 2.061 . S
Co1251 O1257 2.052 . S
Co1251 O1259 2.135 . S
O1252 Co1251 2.061 . S
O1252 C1255 1.235 . S
C1253 O1256 1.238 . S
C1253 O1257 1.241 . S
C1254 O1247 1.247 . S
C1254 O1248 1.261 . S
C1255 O1250 1.259 . S
C1255 O1252 1.235 . S
O1256 Co1246 2.021 . S
O1256 C1253 1.238 . S
O1257 Co1251 2.052 . S
O1257 C1253 1.241 . S
O1258 Co1246 2.137 . S
O1258 C1249 1.247 . S
O1259 Co1246 2.244 . S
O1259 C1249 1.272 . S
O1259 Co1251 2.135 . S
Co1260 O1261 2.216 . S
Co1260 O1262 2.091 . S
Co1260 O1264 2.004 . S
Co1260 O1270 2.021 . S
Co1260 O1272 2.137 . S
Co1260 O1273 2.244 . S
O1261 Co1260 2.216 . S
O1261 C1268 1.247 . S
O1262 Co1260 2.091 . S
O1262 C1268 1.261 . S
C1263 O1272 1.247 . S
C1263 O1273 1.272 . S
O1264 Co1260 2.004 . S
O1264 C1269 1.259 . S
Co1265 O1266 2.061 . S
Co1265 O1271 2.052 . S
Co1265 O1273 2.135 . S
O1266 Co1265 2.061 . S
O1266 C1269 1.235 . S
C1267 O1270 1.238 . S
C1267 O1271 1.241 . S
C1268 O1261 1.247 . S
C1268 O1262 1.261 . S
C1269 O1264 1.259 . S
C1269 O1266 1.235 . S
O1270 Co1260 2.021 . S
O1270 C1267 1.238 . S
O1271 Co1265 2.052 . S
O1271 C1267 1.241 . S
O1272 Co1260 2.137 . S
O1272 C1263 1.247 . S
O1273 Co1260 2.244 . S
O1273 C1263 1.272 . S
O1273 Co1265 2.135 . S
Co1274 O1275 2.216 . S
Co1274 O1276 2.091 . S
Co1274 O1278 2.004 . S
Co1274 O1284 2.021 . S
Co1274 O1286 2.137 . S
Co1274 O1287 2.244 . S
O1275 Co1274 2.216 . S
O1275 C1282 1.247 . S
O1276 Co1274 2.091 . S
O1276 C1282 1.261 . S
C1277 O1286 1.247 . S
C1277 O1287 1.272 . S
O1278 Co1274 2.004 . S
O1278 C1283 1.259 . S
Co1279 O1280 2.061 . S
Co1279 O1285 2.052 . S
Co1279 O1287 2.135 . S
O1280 Co1279 2.061 . S
O1280 C1283 1.235 . S
C1281 O1284 1.238 . S
C1281 O1285 1.241 . S
C1282 O1275 1.247 . S
C1282 O1276 1.261 . S
C1283 O1278 1.259 . S
C1283 O1280 1.235 . S
O1284 Co1274 2.021 . S
O1284 C1281 1.238 . S
O1285 Co1279 2.052 . S
O1285 C1281 1.241 . S
O1286 Co1274 2.137 . S
O1286 C1277 1.247 . S
O1287 Co1274 2.244 . S
O1287 C1277 1.272 . S
O1287 Co1279 2.135 . S
Co1288 O1289 2.216 . S
Co1288 O1290 2.091 . S
Co1288 O1292 2.004 . S
Co1288 O1298 2.021 . S
Co1288 O1300 2.137 . S
Co1288 O1301 2.244 . S
O1289 Co1288 2.216 . S
O1289 C1296 1.247 . S
O1290 Co1288 2.091 . S
O1290 C1296 1.261 . S
C1291 O1300 1.247 . S
C1291 O1301 1.272 . S
O1292 Co1288 2.004 . S
O1292 C1297 1.259 . S
Co1293 O1294 2.061 . S
Co1293 O1299 2.052 . S
Co1293 O1301 2.135 . S
O1294 Co1293 2.061 . S
O1294 C1297 1.235 . S
C1295 O1298 1.238 . S
C1295 O1299 1.241 . S
C1296 O1289 1.247 . S
C1296 O1290 1.261 . S
C1297 O1292 1.259 . S
C1297 O1294 1.235 . S
O1298 Co1288 2.021 . S
O1298 C1295 1.238 . S
O1299 Co1293 2.052 . S
O1299 C1295 1.241 . S
O1300 Co1288 2.137 . S
O1300 C1291 1.247 . S
O1301 Co1288 2.244 . S
O1301 C1291 1.272 . S
O1301 Co1293 2.135 . S
Co1302 O1303 2.216 . S
Co1302 O1304 2.091 . S
Co1302 O1306 2.004 . S
Co1302 O1312 2.021 . S
Co1302 O1314 2.137 . S
Co1302 O1315 2.244 . S
O1303 Co1302 2.216 . S
O1303 C1310 1.247 . S
O1304 Co1302 2.091 . S
O1304 C1310 1.261 . S
C1305 O1314 1.247 . S
C1305 O1315 1.272 . S
O1306 Co1302 2.004 . S
O1306 C1311 1.259 . S
Co1307 O1308 2.061 . S
Co1307 O1313 2.052 . S
Co1307 O1315 2.135 . S
O1308 Co1307 2.061 . S
O1308 C1311 1.235 . S
C1309 O1312 1.238 . S
C1309 O1313 1.241 . S
C1310 O1303 1.247 . S
C1310 O1304 1.261 . S
C1311 O1306 1.259 . S
C1311 O1308 1.235 . S
O1312 Co1302 2.021 . S
O1312 C1309 1.238 . S
O1313 Co1307 2.052 . S
O1313 C1309 1.241 . S
O1314 Co1302 2.137 . S
O1314 C1305 1.247 . S
O1315 Co1302 2.244 . S
O1315 C1305 1.272 . S
O1315 Co1307 2.135 . S
Co1316 O1317 2.216 . S
Co1316 O1318 2.091 . S
Co1316 O1320 2.004 . S
Co1316 O1326 2.021 . S
Co1316 O1328 2.137 . S
Co1316 O1329 2.244 . S
O1317 Co1316 2.216 . S
O1317 C1324 1.247 . S
O1318 Co1316 2.091 . S
O1318 C1324 1.261 . S
C1319 O1328 1.247 . S
C1319 O1329 1.272 . S
O1320 Co1316 2.004 . S
O1320 C1325 1.259 . S
Co1321 O1322 2.061 . S
Co1321 O1327 2.052 . S
Co1321 O1329 2.135 . S
O1322 Co1321 2.061 . S
O1322 C1325 1.235 . S
C1323 O1326 1.238 . S
C1323 O1327 1.241 . S
C1324 O1317 1.247 . S
C1324 O1318 1.261 . S
C1325 O1320 1.259 . S
C1325 O1322 1.235 . S
O1326 Co1316 2.021 . S
O1326 C1323 1.238 . S
O1327 Co1321 2.052 . S
O1327 C1323 1.241 . S
O1328 Co1316 2.137 . S
O1328 C1319 1.247 . S
O1329 Co1316 2.244 . S
O1329 C1319 1.272 . S
O1329 Co1321 2.135 . S
Co1330 O1331 2.216 . S
Co1330 O1332 2.091 . S
Co1330 O1334 2.004 . S
Co1330 O1340 2.021 . S
Co1330 O1342 2.137 . S
Co1330 O1343 2.244 . S
O1331 Co1330 2.216 . S
O1331 C1338 1.247 . S
O1332 Co1330 2.091 . S
O1332 C1338 1.261 . S
C1333 O1342 1.247 . S
C1333 O1343 1.272 . S
O1334 Co1330 2.004 . S
O1334 C1339 1.259 . S
Co1335 O1336 2.061 . S
Co1335 O1341 2.052 . S
Co1335 O1343 2.135 . S
O1336 Co1335 2.061 . S
O1336 C1339 1.235 . S
C1337 O1340 1.238 . S
C1337 O1341 1.241 . S
C1338 O1331 1.247 . S
C1338 O1332 1.261 . S
C1339 O1334 1.259 . S
C1339 O1336 1.235 . S
O1340 Co1330 2.021 . S
O1340 C1337 1.238 . S
O1341 Co1335 2.052 . S
O1341 C1337 1.241 . S
O1342 Co1330 2.137 . S
O1342 C1333 1.247 . S
O1343 Co1330 2.244 . S
O1343 C1333 1.272 . S
O1343 Co1335 2.135 . S
H1344 C1352 0.950 . S
H1345 C1357 0.950 . S
H1346 C1354 0.950 . S
H1347 C1356 0.950 . S
H1348 C1358 0.950 . S
H1349 C1360 0.950 . S
H1350 C1362 0.950 . S
H1351 C1363 0.950 . S
C1352 H1344 0.950 . S
C1352 C1353 1.386 . S
C1352 C1354 1.391 . S
C1353 C1352 1.386 . S
C1353 C1357 1.393 . S
C1354 H1346 0.950 . S
C1354 C1352 1.391 . S
C1354 C1355 1.400 . S
C1355 C1354 1.400 . S
C1355 C1356 1.398 . S
C1355 C1361 1.491 . S
C1356 H1347 0.950 . S
C1356 C1355 1.398 . S
C1356 C1357 1.391 . S
C1357 H1345 0.950 . S
C1357 C1353 1.393 . S
C1357 C1356 1.391 . S
C1358 H1348 0.950 . S
C1358 C1359 1.386 . S
C1358 C1360 1.391 . S
C1359 C1358 1.386 . S
C1359 C1363 1.393 . S
C1360 H1349 0.950 . S
C1360 C1358 1.391 . S
C1360 C1361 1.400 . S
C1361 C1355 1.491 . S
C1361 C1360 1.400 . S
C1361 C1362 1.398 . S
C1362 H1350 0.950 . S
C1362 C1361 1.398 . S
C1362 C1363 1.391 . S
C1363 H1351 0.950 . S
C1363 C1359 1.393 . S
C1363 C1362 1.391 . S
H1364 C1372 0.950 . S
H1365 C1377 0.950 . S
H1366 C1374 0.950 . S
H1367 C1376 0.950 . S
H1368 C1378 0.950 . S
H1369 C1380 0.950 . S
H1370 C1382 0.950 . S
H1371 C1383 0.950 . S
C1372 H1364 0.950 . S
C1372 C1373 1.386 . S
C1372 C1374 1.391 . S
C1373 C1372 1.386 . S
C1373 C1377 1.393 . S
C1374 H1366 0.950 . S
C1374 C1372 1.391 . S
C1374 C1375 1.400 . S
C1375 C1374 1.400 . S
C1375 C1376 1.398 . S
C1375 C1381 1.491 . S
C1376 H1367 0.950 . S
C1376 C1375 1.398 . S
C1376 C1377 1.391 . S
C1377 H1365 0.950 . S
C1377 C1373 1.393 . S
C1377 C1376 1.391 . S
C1378 H1368 0.950 . S
C1378 C1379 1.386 . S
C1378 C1380 1.391 . S
C1379 C1378 1.386 . S
C1379 C1383 1.393 . S
C1380 H1369 0.950 . S
C1380 C1378 1.391 . S
C1380 C1381 1.400 . S
C1381 C1375 1.491 . S
C1381 C1380 1.400 . S
C1381 C1382 1.398 . S
C1382 H1370 0.950 . S
C1382 C1381 1.398 . S
C1382 C1383 1.391 . S
C1383 H1371 0.950 . S
C1383 C1379 1.393 . S
C1383 C1382 1.391 . S
H1384 C1392 0.950 . S
H1385 C1397 0.950 . S
H1386 C1394 0.950 . S
H1387 C1396 0.950 . S
H1388 C1398 0.950 . S
H1389 C1400 0.950 . S
H1390 C1402 0.950 . S
H1391 C1403 0.950 . S
C1392 H1384 0.950 . S
C1392 C1393 1.386 . S
C1392 C1394 1.391 . S
C1393 C1392 1.386 . S
C1393 C1397 1.393 . S
C1394 H1386 0.950 . S
C1394 C1392 1.391 . S
C1394 C1395 1.400 . S
C1395 C1394 1.400 . S
C1395 C1396 1.398 . S
C1395 C1401 1.491 . S
C1396 H1387 0.950 . S
C1396 C1395 1.398 . S
C1396 C1397 1.391 . S
C1397 H1385 0.950 . S
C1397 C1393 1.393 . S
C1397 C1396 1.391 . S
C1398 H1388 0.950 . S
C1398 C1399 1.386 . S
C1398 C1400 1.391 . S
C1399 C1398 1.386 . S
C1399 C1403 1.393 . S
C1400 H1389 0.950 . S
C1400 C1398 1.391 . S
C1400 C1401 1.400 . S
C1401 C1395 1.491 . S
C1401 C1400 1.400 . S
C1401 C1402 1.398 . S
C1402 H1390 0.950 . S
C1402 C1401 1.398 . S
C1402 C1403 1.391 . S
C1403 H1391 0.950 . S
C1403 C1399 1.393 . S
C1403 C1402 1.391 . S
H1404 C1412 0.950 . S
H1405 C1417 0.950 . S
H1406 C1414 0.950 . S
H1407 C1416 0.950 . S
H1408 C1418 0.950 . S
H1409 C1420 0.950 . S
H1410 C1422 0.950 . S
H1411 C1423 0.950 . S
C1412 H1404 0.950 . S
C1412 C1413 1.386 . S
C1412 C1414 1.391 . S
C1413 C1412 1.386 . S
C1413 C1417 1.393 . S
C1414 H1406 0.950 . S
C1414 C1412 1.391 . S
C1414 C1415 1.400 . S
C1415 C1414 1.400 . S
C1415 C1416 1.398 . S
C1415 C1421 1.491 . S
C1416 H1407 0.950 . S
C1416 C1415 1.398 . S
C1416 C1417 1.391 . S
C1417 H1405 0.950 . S
C1417 C1413 1.393 . S
C1417 C1416 1.391 . S
C1418 H1408 0.950 . S
C1418 C1419 1.386 . S
C1418 C1420 1.391 . S
C1419 C1418 1.386 . S
C1419 C1423 1.393 . S
C1420 H1409 0.950 . S
C1420 C1418 1.391 . S
C1420 C1421 1.400 . S
C1421 C1415 1.491 . S
C1421 C1420 1.400 . S
C1421 C1422 1.398 . S
C1422 H1410 0.950 . S
C1422 C1421 1.398 . S
C1422 C1423 1.391 . S
C1423 H1411 0.950 . S
C1423 C1419 1.393 . S
C1423 C1422 1.391 . S
H1424 C1432 0.950 . S
H1425 C1437 0.950 . S
H1426 C1434 0.950 . S
H1427 C1436 0.950 . S
H1428 C1438 0.950 . S
H1429 C1440 0.950 . S
H1430 C1442 0.950 . S
H1431 C1443 0.950 . S
C1432 H1424 0.950 . S
C1432 C1433 1.386 . S
C1432 C1434 1.391 . S
C1433 C1432 1.386 . S
C1433 C1437 1.393 . S
C1434 H1426 0.950 . S
C1434 C1432 1.391 . S
C1434 C1435 1.400 . S
C1435 C1434 1.400 . S
C1435 C1436 1.398 . S
C1435 C1441 1.491 . S
C1436 H1427 0.950 . S
C1436 C1435 1.398 . S
C1436 C1437 1.391 . S
C1437 H1425 0.950 . S
C1437 C1433 1.393 . S
C1437 C1436 1.391 . S
C1438 H1428 0.950 . S
C1438 C1439 1.386 . S
C1438 C1440 1.391 . S
C1439 C1438 1.386 . S
C1439 C1443 1.393 . S
C1440 H1429 0.950 . S
C1440 C1438 1.391 . S
C1440 C1441 1.400 . S
C1441 C1435 1.491 . S
C1441 C1440 1.400 . S
C1441 C1442 1.398 . S
C1442 H1430 0.950 . S
C1442 C1441 1.398 . S
C1442 C1443 1.391 . S
C1443 H1431 0.950 . S
C1443 C1439 1.393 . S
C1443 C1442 1.391 . S
H1444 C1452 0.950 . S
H1445 C1457 0.950 . S
H1446 C1454 0.950 . S
H1447 C1456 0.950 . S
H1448 C1458 0.950 . S
H1449 C1460 0.950 . S
H1450 C1462 0.950 . S
H1451 C1463 0.950 . S
C1452 H1444 0.950 . S
C1452 C1453 1.386 . S
C1452 C1454 1.391 . S
C1453 C1452 1.386 . S
C1453 C1457 1.393 . S
C1454 H1446 0.950 . S
C1454 C1452 1.391 . S
C1454 C1455 1.400 . S
C1455 C1454 1.400 . S
C1455 C1456 1.398 . S
C1455 C1461 1.491 . S
C1456 H1447 0.950 . S
C1456 C1455 1.398 . S
C1456 C1457 1.391 . S
C1457 H1445 0.950 . S
C1457 C1453 1.393 . S
C1457 C1456 1.391 . S
C1458 H1448 0.950 . S
C1458 C1459 1.386 . S
C1458 C1460 1.391 . S
C1459 C1458 1.386 . S
C1459 C1463 1.393 . S
C1460 H1449 0.950 . S
C1460 C1458 1.391 . S
C1460 C1461 1.400 . S
C1461 C1455 1.491 . S
C1461 C1460 1.400 . S
C1461 C1462 1.398 . S
C1462 H1450 0.950 . S
C1462 C1461 1.398 . S
C1462 C1463 1.391 . S
C1463 H1451 0.950 . S
C1463 C1459 1.393 . S
C1463 C1462 1.391 . S
H1464 C1472 0.950 . S
H1465 C1477 0.950 . S
H1466 C1474 0.950 . S
H1467 C1476 0.950 . S
H1468 C1478 0.950 . S
H1469 C1480 0.950 . S
H1470 C1482 0.950 . S
H1471 C1483 0.950 . S
C1472 H1464 0.950 . S
C1472 C1473 1.386 . S
C1472 C1474 1.391 . S
C1473 C1472 1.386 . S
C1473 C1477 1.393 . S
C1474 H1466 0.950 . S
C1474 C1472 1.391 . S
C1474 C1475 1.400 . S
C1475 C1474 1.400 . S
C1475 C1476 1.398 . S
C1475 C1481 1.491 . S
C1476 H1467 0.950 . S
C1476 C1475 1.398 . S
C1476 C1477 1.391 . S
C1477 H1465 0.950 . S
C1477 C1473 1.393 . S
C1477 C1476 1.391 . S
C1478 H1468 0.950 . S
C1478 C1479 1.386 . S
C1478 C1480 1.391 . S
C1479 C1478 1.386 . S
C1479 C1483 1.393 . S
C1480 H1469 0.950 . S
C1480 C1478 1.391 . S
C1480 C1481 1.400 . S
C1481 C1475 1.491 . S
C1481 C1480 1.400 . S
C1481 C1482 1.398 . S
C1482 H1470 0.950 . S
C1482 C1481 1.398 . S
C1482 C1483 1.391 . S
C1483 H1471 0.950 . S
C1483 C1479 1.393 . S
C1483 C1482 1.391 . S
H1484 C1492 0.950 . S
H1485 C1497 0.950 . S
H1486 C1494 0.950 . S
H1487 C1496 0.950 . S
H1488 C1498 0.950 . S
H1489 C1500 0.950 . S
H1490 C1502 0.950 . S
H1491 C1503 0.950 . S
C1492 H1484 0.950 . S
C1492 C1493 1.386 . S
C1492 C1494 1.391 . S
C1493 C1492 1.386 . S
C1493 C1497 1.393 . S
C1494 H1486 0.950 . S
C1494 C1492 1.391 . S
C1494 C1495 1.400 . S
C1495 C1494 1.400 . S
C1495 C1496 1.398 . S
C1495 C1501 1.491 . S
C1496 H1487 0.950 . S
C1496 C1495 1.398 . S
C1496 C1497 1.391 . S
C1497 H1485 0.950 . S
C1497 C1493 1.393 . S
C1497 C1496 1.391 . S
C1498 H1488 0.950 . S
C1498 C1499 1.386 . S
C1498 C1500 1.391 . S
C1499 C1498 1.386 . S
C1499 C1503 1.393 . S
C1500 H1489 0.950 . S
C1500 C1498 1.391 . S
C1500 C1501 1.400 . S
C1501 C1495 1.491 . S
C1501 C1500 1.400 . S
C1501 C1502 1.398 . S
C1502 H1490 0.950 . S
C1502 C1501 1.398 . S
C1502 C1503 1.391 . S
C1503 H1491 0.950 . S
C1503 C1499 1.393 . S
C1503 C1502 1.391 . S
H1504 C1512 0.950 . S
H1505 C1517 0.950 . S
H1506 C1514 0.950 . S
H1507 C1516 0.950 . S
H1508 C1518 0.950 . S
H1509 C1520 0.950 . S
H1510 C1522 0.950 . S
H1511 C1523 0.950 . S
C1512 H1504 0.950 . S
C1512 C1513 1.386 . S
C1512 C1514 1.391 . S
C1513 C1512 1.386 . S
C1513 C1517 1.393 . S
C1514 H1506 0.950 . S
C1514 C1512 1.391 . S
C1514 C1515 1.400 . S
C1515 C1514 1.400 . S
C1515 C1516 1.398 . S
C1515 C1521 1.491 . S
C1516 H1507 0.950 . S
C1516 C1515 1.398 . S
C1516 C1517 1.391 . S
C1517 H1505 0.950 . S
C1517 C1513 1.393 . S
C1517 C1516 1.391 . S
C1518 H1508 0.950 . S
C1518 C1519 1.386 . S
C1518 C1520 1.391 . S
C1519 C1518 1.386 . S
C1519 C1523 1.393 . S
C1520 H1509 0.950 . S
C1520 C1518 1.391 . S
C1520 C1521 1.400 . S
C1521 C1515 1.491 . S
C1521 C1520 1.400 . S
C1521 C1522 1.398 . S
C1522 H1510 0.950 . S
C1522 C1521 1.398 . S
C1522 C1523 1.391 . S
C1523 H1511 0.950 . S
C1523 C1519 1.393 . S
C1523 C1522 1.391 . S
H1524 C1532 0.950 . S
H1525 C1537 0.950 . S
H1526 C1534 0.950 . S
H1527 C1536 0.950 . S
H1528 C1538 0.950 . S
H1529 C1540 0.950 . S
H1530 C1542 0.950 . S
H1531 C1543 0.950 . S
C1532 H1524 0.950 . S
C1532 C1533 1.386 . S
C1532 C1534 1.391 . S
C1533 C1532 1.386 . S
C1533 C1537 1.393 . S
C1534 H1526 0.950 . S
C1534 C1532 1.391 . S
C1534 C1535 1.400 . S
C1535 C1534 1.400 . S
C1535 C1536 1.398 . S
C1535 C1541 1.491 . S
C1536 H1527 0.950 . S
C1536 C1535 1.398 . S
C1536 C1537 1.391 . S
C1537 H1525 0.950 . S
C1537 C1533 1.393 . S
C1537 C1536 1.391 . S
C1538 H1528 0.950 . S
C1538 C1539 1.386 . S
C1538 C1540 1.391 . S
C1539 C1538 1.386 . S
C1539 C1543 1.393 . S
C1540 H1529 0.950 . S
C1540 C1538 1.391 . S
C1540 C1541 1.400 . S
C1541 C1535 1.491 . S
C1541 C1540 1.400 . S
C1541 C1542 1.398 . S
C1542 H1530 0.950 . S
C1542 C1541 1.398 . S
C1542 C1543 1.391 . S
C1543 H1531 0.950 . S
C1543 C1539 1.393 . S
C1543 C1542 1.391 . S
H1544 C1552 0.950 . S
H1545 C1557 0.950 . S
H1546 C1554 0.950 . S
H1547 C1556 0.950 . S
H1548 C1558 0.950 . S
H1549 C1560 0.950 . S
H1550 C1562 0.950 . S
H1551 C1563 0.950 . S
C1552 H1544 0.950 . S
C1552 C1553 1.386 . S
C1552 C1554 1.391 . S
C1553 C1552 1.386 . S
C1553 C1557 1.393 . S
C1554 H1546 0.950 . S
C1554 C1552 1.391 . S
C1554 C1555 1.400 . S
C1555 C1554 1.400 . S
C1555 C1556 1.398 . S
C1555 C1561 1.491 . S
C1556 H1547 0.950 . S
C1556 C1555 1.398 . S
C1556 C1557 1.391 . S
C1557 H1545 0.950 . S
C1557 C1553 1.393 . S
C1557 C1556 1.391 . S
C1558 H1548 0.950 . S
C1558 C1559 1.386 . S
C1558 C1560 1.391 . S
C1559 C1558 1.386 . S
C1559 C1563 1.393 . S
C1560 H1549 0.950 . S
C1560 C1558 1.391 . S
C1560 C1561 1.400 . S
C1561 C1555 1.491 . S
C1561 C1560 1.400 . S
C1561 C1562 1.398 . S
C1562 H1550 0.950 . S
C1562 C1561 1.398 . S
C1562 C1563 1.391 . S
C1563 H1551 0.950 . S
C1563 C1559 1.393 . S
C1563 C1562 1.391 . S
H1564 C1572 0.950 . S
H1565 C1577 0.950 . S
H1566 C1574 0.950 . S
H1567 C1576 0.950 . S
H1568 C1578 0.950 . S
H1569 C1580 0.950 . S
H1570 C1582 0.950 . S
H1571 C1583 0.950 . S
C1572 H1564 0.950 . S
C1572 C1573 1.386 . S
C1572 C1574 1.391 . S
C1573 C1572 1.386 . S
C1573 C1577 1.393 . S
C1574 H1566 0.950 . S
C1574 C1572 1.391 . S
C1574 C1575 1.400 . S
C1575 C1574 1.400 . S
C1575 C1576 1.398 . S
C1575 C1581 1.491 . S
C1576 H1567 0.950 . S
C1576 C1575 1.398 . S
C1576 C1577 1.391 . S
C1577 H1565 0.950 . S
C1577 C1573 1.393 . S
C1577 C1576 1.391 . S
C1578 H1568 0.950 . S
C1578 C1579 1.386 . S
C1578 C1580 1.391 . S
C1579 C1578 1.386 . S
C1579 C1583 1.393 . S
C1580 H1569 0.950 . S
C1580 C1578 1.391 . S
C1580 C1581 1.400 . S
C1581 C1575 1.491 . S
C1581 C1580 1.400 . S
C1581 C1582 1.398 . S
C1582 H1570 0.950 . S
C1582 C1581 1.398 . S
C1582 C1583 1.391 . S
C1583 H1571 0.950 . S
C1583 C1579 1.393 . S
C1583 C1582 1.391 . S
H1584 C1592 0.950 . S
H1585 C1597 0.950 . S
H1586 C1594 0.950 . S
H1587 C1596 0.950 . S
H1588 C1598 0.950 . S
H1589 C1600 0.950 . S
H1590 C1602 0.950 . S
H1591 C1603 0.950 . S
C1592 H1584 0.950 . S
C1592 C1593 1.386 . S
C1592 C1594 1.391 . S
C1593 C1592 1.386 . S
C1593 C1597 1.393 . S
C1594 H1586 0.950 . S
C1594 C1592 1.391 . S
C1594 C1595 1.400 . S
C1595 C1594 1.400 . S
C1595 C1596 1.398 . S
C1595 C1601 1.491 . S
C1596 H1587 0.950 . S
C1596 C1595 1.398 . S
C1596 C1597 1.391 . S
C1597 H1585 0.950 . S
C1597 C1593 1.393 . S
C1597 C1596 1.391 . S
C1598 H1588 0.950 . S
C1598 C1599 1.386 . S
C1598 C1600 1.391 . S
C1599 C1598 1.386 . S
C1599 C1603 1.393 . S
C1600 H1589 0.950 . S
C1600 C1598 1.391 . S
C1600 C1601 1.400 . S
C1601 C1595 1.491 . S
C1601 C1600 1.400 . S
C1601 C1602 1.398 . S
C1602 H1590 0.950 . S
C1602 C1601 1.398 . S
C1602 C1603 1.391 . S
C1603 H1591 0.950 . S
C1603 C1599 1.393 . S
C1603 C1602 1.391 . S
H1604 C1612 0.950 . S
H1605 C1617 0.950 . S
H1606 C1614 0.950 . S
H1607 C1616 0.950 . S
H1608 C1618 0.950 . S
H1609 C1620 0.950 . S
H1610 C1622 0.950 . S
H1611 C1623 0.950 . S
C1612 H1604 0.950 . S
C1612 C1613 1.386 . S
C1612 C1614 1.391 . S
C1613 C1612 1.386 . S
C1613 C1617 1.393 . S
C1614 H1606 0.950 . S
C1614 C1612 1.391 . S
C1614 C1615 1.400 . S
C1615 C1614 1.400 . S
C1615 C1616 1.398 . S
C1615 C1621 1.491 . S
C1616 H1607 0.950 . S
C1616 C1615 1.398 . S
C1616 C1617 1.391 . S
C1617 H1605 0.950 . S
C1617 C1613 1.393 . S
C1617 C1616 1.391 . S
C1618 H1608 0.950 . S
C1618 C1619 1.386 . S
C1618 C1620 1.391 . S
C1619 C1618 1.386 . S
C1619 C1623 1.393 . S
C1620 H1609 0.950 . S
C1620 C1618 1.391 . S
C1620 C1621 1.400 . S
C1621 C1615 1.491 . S
C1621 C1620 1.400 . S
C1621 C1622 1.398 . S
C1622 H1610 0.950 . S
C1622 C1621 1.398 . S
C1622 C1623 1.391 . S
C1623 H1611 0.950 . S
C1623 C1619 1.393 . S
C1623 C1622 1.391 . S
H1624 C1632 0.950 . S
H1625 C1637 0.950 . S
H1626 C1634 0.950 . S
H1627 C1636 0.950 . S
H1628 C1638 0.950 . S
H1629 C1640 0.950 . S
H1630 C1642 0.950 . S
H1631 C1643 0.950 . S
C1632 H1624 0.950 . S
C1632 C1633 1.386 . S
C1632 C1634 1.391 . S
C1633 C1632 1.386 . S
C1633 C1637 1.393 . S
C1634 H1626 0.950 . S
C1634 C1632 1.391 . S
C1634 C1635 1.400 . S
C1635 C1634 1.400 . S
C1635 C1636 1.398 . S
C1635 C1641 1.491 . S
C1636 H1627 0.950 . S
C1636 C1635 1.398 . S
C1636 C1637 1.391 . S
C1637 H1625 0.950 . S
C1637 C1633 1.393 . S
C1637 C1636 1.391 . S
C1638 H1628 0.950 . S
C1638 C1639 1.386 . S
C1638 C1640 1.391 . S
C1639 C1638 1.386 . S
C1639 C1643 1.393 . S
C1640 H1629 0.950 . S
C1640 C1638 1.391 . S
C1640 C1641 1.400 . S
C1641 C1635 1.491 . S
C1641 C1640 1.400 . S
C1641 C1642 1.398 . S
C1642 H1630 0.950 . S
C1642 C1641 1.398 . S
C1642 C1643 1.391 . S
C1643 H1631 0.950 . S
C1643 C1639 1.393 . S
C1643 C1642 1.391 . S
H1644 C1652 0.950 . S
H1645 C1657 0.950 . S
H1646 C1654 0.950 . S
H1647 C1656 0.950 . S
H1648 C1658 0.950 . S
H1649 C1660 0.950 . S
H1650 C1662 0.950 . S
H1651 C1663 0.950 . S
C1652 H1644 0.950 . S
C1652 C1653 1.386 . S
C1652 C1654 1.391 . S
C1653 C1652 1.386 . S
C1653 C1657 1.393 . S
C1654 H1646 0.950 . S
C1654 C1652 1.391 . S
C1654 C1655 1.400 . S
C1655 C1654 1.400 . S
C1655 C1656 1.398 . S
C1655 C1661 1.491 . S
C1656 H1647 0.950 . S
C1656 C1655 1.398 . S
C1656 C1657 1.391 . S
C1657 H1645 0.950 . S
C1657 C1653 1.393 . S
C1657 C1656 1.391 . S
C1658 H1648 0.950 . S
C1658 C1659 1.386 . S
C1658 C1660 1.391 . S
C1659 C1658 1.386 . S
C1659 C1663 1.393 . S
C1660 H1649 0.950 . S
C1660 C1658 1.391 . S
C1660 C1661 1.400 . S
C1661 C1655 1.491 . S
C1661 C1660 1.400 . S
C1661 C1662 1.398 . S
C1662 H1650 0.950 . S
C1662 C1661 1.398 . S
C1662 C1663 1.391 . S
C1663 H1651 0.950 . S
C1663 C1659 1.393 . S
C1663 C1662 1.391 . S
H1664 C1672 0.950 . S
H1665 C1677 0.950 . S
H1666 C1674 0.950 . S
H1667 C1676 0.950 . S
H1668 C1678 0.950 . S
H1669 C1680 0.950 . S
H1670 C1682 0.950 . S
H1671 C1683 0.950 . S
C1672 H1664 0.950 . S
C1672 C1673 1.386 . S
C1672 C1674 1.391 . S
C1673 C1672 1.386 . S
C1673 C1677 1.393 . S
C1674 H1666 0.950 . S
C1674 C1672 1.391 . S
C1674 C1675 1.400 . S
C1675 C1674 1.400 . S
C1675 C1676 1.398 . S
C1675 C1681 1.491 . S
C1676 H1667 0.950 . S
C1676 C1675 1.398 . S
C1676 C1677 1.391 . S
C1677 H1665 0.950 . S
C1677 C1673 1.393 . S
C1677 C1676 1.391 . S
C1678 H1668 0.950 . S
C1678 C1679 1.386 . S
C1678 C1680 1.391 . S
C1679 C1678 1.386 . S
C1679 C1683 1.393 . S
C1680 H1669 0.950 . S
C1680 C1678 1.391 . S
C1680 C1681 1.400 . S
C1681 C1675 1.491 . S
C1681 C1680 1.400 . S
C1681 C1682 1.398 . S
C1682 H1670 0.950 . S
C1682 C1681 1.398 . S
C1682 C1683 1.391 . S
C1683 H1671 0.950 . S
C1683 C1679 1.393 . S
C1683 C1682 1.391 . S
H1684 C1692 0.950 . S
H1685 C1697 0.950 . S
H1686 C1694 0.950 . S
H1687 C1696 0.950 . S
H1688 C1698 0.950 . S
H1689 C1700 0.950 . S
H1690 C1702 0.950 . S
H1691 C1703 0.950 . S
C1692 H1684 0.950 . S
C1692 C1693 1.386 . S
C1692 C1694 1.391 . S
C1693 C1692 1.386 . S
C1693 C1697 1.393 . S
C1694 H1686 0.950 . S
C1694 C1692 1.391 . S
C1694 C1695 1.400 . S
C1695 C1694 1.400 . S
C1695 C1696 1.398 . S
C1695 C1701 1.491 . S
C1696 H1687 0.950 . S
C1696 C1695 1.398 . S
C1696 C1697 1.391 . S
C1697 H1685 0.950 . S
C1697 C1693 1.393 . S
C1697 C1696 1.391 . S
C1698 H1688 0.950 . S
C1698 C1699 1.386 . S
C1698 C1700 1.391 . S
C1699 C1698 1.386 . S
C1699 C1703 1.393 . S
C1700 H1689 0.950 . S
C1700 C1698 1.391 . S
C1700 C1701 1.400 . S
C1701 C1695 1.491 . S
C1701 C1700 1.400 . S
C1701 C1702 1.398 . S
C1702 H1690 0.950 . S
C1702 C1701 1.398 . S
C1702 C1703 1.391 . S
C1703 H1691 0.950 . S
C1703 C1699 1.393 . S
C1703 C1702 1.391 . S
H1704 C1712 0.950 . S
H1705 C1717 0.950 . S
H1706 C1714 0.950 . S
H1707 C1716 0.950 . S
H1708 C1718 0.950 . S
H1709 C1720 0.950 . S
H1710 C1722 0.950 . S
H1711 C1723 0.950 . S
C1712 H1704 0.950 . S
C1712 C1713 1.386 . S
C1712 C1714 1.391 . S
C1713 C1712 1.386 . S
C1713 C1717 1.393 . S
C1714 H1706 0.950 . S
C1714 C1712 1.391 . S
C1714 C1715 1.400 . S
C1715 C1714 1.400 . S
C1715 C1716 1.398 . S
C1715 C1721 1.491 . S
C1716 H1707 0.950 . S
C1716 C1715 1.398 . S
C1716 C1717 1.391 . S
C1717 H1705 0.950 . S
C1717 C1713 1.393 . S
C1717 C1716 1.391 . S
C1718 H1708 0.950 . S
C1718 C1719 1.386 . S
C1718 C1720 1.391 . S
C1719 C1718 1.386 . S
C1719 C1723 1.393 . S
C1720 H1709 0.950 . S
C1720 C1718 1.391 . S
C1720 C1721 1.400 . S
C1721 C1715 1.491 . S
C1721 C1720 1.400 . S
C1721 C1722 1.398 . S
C1722 H1710 0.950 . S
C1722 C1721 1.398 . S
C1722 C1723 1.391 . S
C1723 H1711 0.950 . S
C1723 C1719 1.393 . S
C1723 C1722 1.391 . S
H1724 C1732 0.950 . S
H1725 C1737 0.950 . S
H1726 C1734 0.950 . S
H1727 C1736 0.950 . S
H1728 C1738 0.950 . S
H1729 C1740 0.950 . S
H1730 C1742 0.950 . S
H1731 C1743 0.950 . S
C1732 H1724 0.950 . S
C1732 C1733 1.386 . S
C1732 C1734 1.391 . S
C1733 C1732 1.386 . S
C1733 C1737 1.393 . S
C1734 H1726 0.950 . S
C1734 C1732 1.391 . S
C1734 C1735 1.400 . S
C1735 C1734 1.400 . S
C1735 C1736 1.398 . S
C1735 C1741 1.491 . S
C1736 H1727 0.950 . S
C1736 C1735 1.398 . S
C1736 C1737 1.391 . S
C1737 H1725 0.950 . S
C1737 C1733 1.393 . S
C1737 C1736 1.391 . S
C1738 H1728 0.950 . S
C1738 C1739 1.386 . S
C1738 C1740 1.391 . S
C1739 C1738 1.386 . S
C1739 C1743 1.393 . S
C1740 H1729 0.950 . S
C1740 C1738 1.391 . S
C1740 C1741 1.400 . S
C1741 C1735 1.491 . S
C1741 C1740 1.400 . S
C1741 C1742 1.398 . S
C1742 H1730 0.950 . S
C1742 C1741 1.398 . S
C1742 C1743 1.391 . S
C1743 H1731 0.950 . S
C1743 C1739 1.393 . S
C1743 C1742 1.391 . S
H1744 C1752 0.950 . S
H1745 C1757 0.950 . S
H1746 C1754 0.950 . S
H1747 C1756 0.950 . S
H1748 C1758 0.950 . S
H1749 C1760 0.950 . S
H1750 C1762 0.950 . S
H1751 C1763 0.950 . S
C1752 H1744 0.950 . S
C1752 C1753 1.386 . S
C1752 C1754 1.391 . S
C1753 C1752 1.386 . S
C1753 C1757 1.393 . S
C1754 H1746 0.950 . S
C1754 C1752 1.391 . S
C1754 C1755 1.400 . S
C1755 C1754 1.400 . S
C1755 C1756 1.398 . S
C1755 C1761 1.491 . S
C1756 H1747 0.950 . S
C1756 C1755 1.398 . S
C1756 C1757 1.391 . S
C1757 H1745 0.950 . S
C1757 C1753 1.393 . S
C1757 C1756 1.391 . S
C1758 H1748 0.950 . S
C1758 C1759 1.386 . S
C1758 C1760 1.391 . S
C1759 C1758 1.386 . S
C1759 C1763 1.393 . S
C1760 H1749 0.950 . S
C1760 C1758 1.391 . S
C1760 C1761 1.400 . S
C1761 C1755 1.491 . S
C1761 C1760 1.400 . S
C1761 C1762 1.398 . S
C1762 H1750 0.950 . S
C1762 C1761 1.398 . S
C1762 C1763 1.391 . S
C1763 H1751 0.950 . S
C1763 C1759 1.393 . S
C1763 C1762 1.391 . S
H1764 C1772 0.950 . S
H1765 C1777 0.950 . S
H1766 C1774 0.950 . S
H1767 C1776 0.950 . S
H1768 C1778 0.950 . S
H1769 C1780 0.950 . S
H1770 C1782 0.950 . S
H1771 C1783 0.950 . S
C1772 H1764 0.950 . S
C1772 C1773 1.386 . S
C1772 C1774 1.391 . S
C1773 C1772 1.386 . S
C1773 C1777 1.393 . S
C1774 H1766 0.950 . S
C1774 C1772 1.391 . S
C1774 C1775 1.400 . S
C1775 C1774 1.400 . S
C1775 C1776 1.398 . S
C1775 C1781 1.491 . S
C1776 H1767 0.950 . S
C1776 C1775 1.398 . S
C1776 C1777 1.391 . S
C1777 H1765 0.950 . S
C1777 C1773 1.393 . S
C1777 C1776 1.391 . S
C1778 H1768 0.950 . S
C1778 C1779 1.386 . S
C1778 C1780 1.391 . S
C1779 C1778 1.386 . S
C1779 C1783 1.393 . S
C1780 H1769 0.950 . S
C1780 C1778 1.391 . S
C1780 C1781 1.400 . S
C1781 C1775 1.491 . S
C1781 C1780 1.400 . S
C1781 C1782 1.398 . S
C1782 H1770 0.950 . S
C1782 C1781 1.398 . S
C1782 C1783 1.391 . S
C1783 H1771 0.950 . S
C1783 C1779 1.393 . S
C1783 C1782 1.391 . S
H1784 C1792 0.950 . S
H1785 C1797 0.950 . S
H1786 C1794 0.950 . S
H1787 C1796 0.950 . S
H1788 C1798 0.950 . S
H1789 C1800 0.950 . S
H1790 C1802 0.950 . S
H1791 C1803 0.950 . S
C1792 H1784 0.950 . S
C1792 C1793 1.386 . S
C1792 C1794 1.391 . S
C1793 C1792 1.386 . S
C1793 C1797 1.393 . S
C1794 H1786 0.950 . S
C1794 C1792 1.391 . S
C1794 C1795 1.400 . S
C1795 C1794 1.400 . S
C1795 C1796 1.398 . S
C1795 C1801 1.491 . S
C1796 H1787 0.950 . S
C1796 C1795 1.398 . S
C1796 C1797 1.391 . S
C1797 H1785 0.950 . S
C1797 C1793 1.393 . S
C1797 C1796 1.391 . S
C1798 H1788 0.950 . S
C1798 C1799 1.386 . S
C1798 C1800 1.391 . S
C1799 C1798 1.386 . S
C1799 C1803 1.393 . S
C1800 H1789 0.950 . S
C1800 C1798 1.391 . S
C1800 C1801 1.400 . S
C1801 C1795 1.491 . S
C1801 C1800 1.400 . S
C1801 C1802 1.398 . S
C1802 H1790 0.950 . S
C1802 C1801 1.398 . S
C1802 C1803 1.391 . S
C1803 H1791 0.950 . S
C1803 C1799 1.393 . S
C1803 C1802 1.391 . S
H1804 C1812 0.950 . S
H1805 C1817 0.950 . S
H1806 C1814 0.950 . S
H1807 C1816 0.950 . S
H1808 C1818 0.950 . S
H1809 C1820 0.950 . S
H1810 C1822 0.950 . S
H1811 C1823 0.950 . S
C1812 H1804 0.950 . S
C1812 C1813 1.386 . S
C1812 C1814 1.391 . S
C1813 C1812 1.386 . S
C1813 C1817 1.393 . S
C1814 H1806 0.950 . S
C1814 C1812 1.391 . S
C1814 C1815 1.400 . S
C1815 C1814 1.400 . S
C1815 C1816 1.398 . S
C1815 C1821 1.491 . S
C1816 H1807 0.950 . S
C1816 C1815 1.398 . S
C1816 C1817 1.391 . S
C1817 H1805 0.950 . S
C1817 C1813 1.393 . S
C1817 C1816 1.391 . S
C1818 H1808 0.950 . S
C1818 C1819 1.386 . S
C1818 C1820 1.391 . S
C1819 C1818 1.386 . S
C1819 C1823 1.393 . S
C1820 H1809 0.950 . S
C1820 C1818 1.391 . S
C1820 C1821 1.400 . S
C1821 C1815 1.491 . S
C1821 C1820 1.400 . S
C1821 C1822 1.398 . S
C1822 H1810 0.950 . S
C1822 C1821 1.398 . S
C1822 C1823 1.391 . S
C1823 H1811 0.950 . S
C1823 C1819 1.393 . S
C1823 C1822 1.391 . S
H1824 C1832 0.950 . S
H1825 C1837 0.950 . S
H1826 C1834 0.950 . S
H1827 C1836 0.950 . S
H1828 C1838 0.950 . S
H1829 C1840 0.950 . S
H1830 C1842 0.950 . S
H1831 C1843 0.950 . S
C1832 H1824 0.950 . S
C1832 C1833 1.386 . S
C1832 C1834 1.391 . S
C1833 C1832 1.386 . S
C1833 C1837 1.393 . S
C1834 H1826 0.950 . S
C1834 C1832 1.391 . S
C1834 C1835 1.400 . S
C1835 C1834 1.400 . S
C1835 C1836 1.398 . S
C1835 C1841 1.491 . S
C1836 H1827 0.950 . S
C1836 C1835 1.398 . S
C1836 C1837 1.391 . S
C1837 H1825 0.950 . S
C1837 C1833 1.393 . S
C1837 C1836 1.391 . S
C1838 H1828 0.950 . S
C1838 C1839 1.386 . S
C1838 C1840 1.391 . S
C1839 C1838 1.386 . S
C1839 C1843 1.393 . S
C1840 H1829 0.950 . S
C1840 C1838 1.391 . S
C1840 C1841 1.400 . S
C1841 C1835 1.491 . S
C1841 C1840 1.400 . S
C1841 C1842 1.398 . S
C1842 H1830 0.950 . S
C1842 C1841 1.398 . S
C1842 C1843 1.391 . S
C1843 H1831 0.950 . S
C1843 C1839 1.393 . S
C1843 C1842 1.391 . S
H1844 C1852 0.950 . S
H1845 C1857 0.950 . S
H1846 C1854 0.950 . S
H1847 C1856 0.950 . S
H1848 C1858 0.950 . S
H1849 C1860 0.950 . S
H1850 C1862 0.950 . S
H1851 C1863 0.950 . S
C1852 H1844 0.950 . S
C1852 C1853 1.386 . S
C1852 C1854 1.391 . S
C1853 C1852 1.386 . S
C1853 C1857 1.393 . S
C1854 H1846 0.950 . S
C1854 C1852 1.391 . S
C1854 C1855 1.400 . S
C1855 C1854 1.400 . S
C1855 C1856 1.398 . S
C1855 C1861 1.491 . S
C1856 H1847 0.950 . S
C1856 C1855 1.398 . S
C1856 C1857 1.391 . S
C1857 H1845 0.950 . S
C1857 C1853 1.393 . S
C1857 C1856 1.391 . S
C1858 H1848 0.950 . S
C1858 C1859 1.386 . S
C1858 C1860 1.391 . S
C1859 C1858 1.386 . S
C1859 C1863 1.393 . S
C1860 H1849 0.950 . S
C1860 C1858 1.391 . S
C1860 C1861 1.400 . S
C1861 C1855 1.491 . S
C1861 C1860 1.400 . S
C1861 C1862 1.398 . S
C1862 H1850 0.950 . S
C1862 C1861 1.398 . S
C1862 C1863 1.391 . S
C1863 H1851 0.950 . S
C1863 C1859 1.393 . S
C1863 C1862 1.391 . S
H1864 C1872 0.950 . S
H1865 C1877 0.950 . S
H1866 C1874 0.950 . S
H1867 C1876 0.950 . S
H1868 C1878 0.950 . S
H1869 C1880 0.950 . S
H1870 C1882 0.950 . S
H1871 C1883 0.950 . S
C1872 H1864 0.950 . S
C1872 C1873 1.386 . S
C1872 C1874 1.391 . S
C1873 C1872 1.386 . S
C1873 C1877 1.393 . S
C1874 H1866 0.950 . S
C1874 C1872 1.391 . S
C1874 C1875 1.400 . S
C1875 C1874 1.400 . S
C1875 C1876 1.398 . S
C1875 C1881 1.491 . S
C1876 H1867 0.950 . S
C1876 C1875 1.398 . S
C1876 C1877 1.391 . S
C1877 H1865 0.950 . S
C1877 C1873 1.393 . S
C1877 C1876 1.391 . S
C1878 H1868 0.950 . S
C1878 C1879 1.386 . S
C1878 C1880 1.391 . S
C1879 C1878 1.386 . S
C1879 C1883 1.393 . S
C1880 H1869 0.950 . S
C1880 C1878 1.391 . S
C1880 C1881 1.400 . S
C1881 C1875 1.491 . S
C1881 C1880 1.400 . S
C1881 C1882 1.398 . S
C1882 H1870 0.950 . S
C1882 C1881 1.398 . S
C1882 C1883 1.391 . S
C1883 H1871 0.950 . S
C1883 C1879 1.393 . S
C1883 C1882 1.391 . S
H1884 C1892 0.950 . S
H1885 C1897 0.950 . S
H1886 C1894 0.950 . S
H1887 C1896 0.950 . S
H1888 C1898 0.950 . S
H1889 C1900 0.950 . S
H1890 C1902 0.950 . S
H1891 C1903 0.950 . S
C1892 H1884 0.950 . S
C1892 C1893 1.386 . S
C1892 C1894 1.391 . S
C1893 C1892 1.386 . S
C1893 C1897 1.393 . S
C1894 H1886 0.950 . S
C1894 C1892 1.391 . S
C1894 C1895 1.400 . S
C1895 C1894 1.400 . S
C1895 C1896 1.398 . S
C1895 C1901 1.491 . S
C1896 H1887 0.950 . S
C1896 C1895 1.398 . S
C1896 C1897 1.391 . S
C1897 H1885 0.950 . S
C1897 C1893 1.393 . S
C1897 C1896 1.391 . S
C1898 H1888 0.950 . S
C1898 C1899 1.386 . S
C1898 C1900 1.391 . S
C1899 C1898 1.386 . S
C1899 C1903 1.393 . S
C1900 H1889 0.950 . S
C1900 C1898 1.391 . S
C1900 C1901 1.400 . S
C1901 C1895 1.491 . S
C1901 C1900 1.400 . S
C1901 C1902 1.398 . S
C1902 H1890 0.950 . S
C1902 C1901 1.398 . S
C1902 C1903 1.391 . S
C1903 H1891 0.950 . S
C1903 C1899 1.393 . S
C1903 C1902 1.391 . S
H1904 C1912 0.950 . S
H1905 C1917 0.950 . S
H1906 C1914 0.950 . S
H1907 C1916 0.950 . S
H1908 C1918 0.950 . S
H1909 C1920 0.950 . S
H1910 C1922 0.950 . S
H1911 C1923 0.950 . S
C1912 H1904 0.950 . S
C1912 C1913 1.386 . S
C1912 C1914 1.391 . S
C1913 C1912 1.386 . S
C1913 C1917 1.393 . S
C1914 H1906 0.950 . S
C1914 C1912 1.391 . S
C1914 C1915 1.400 . S
C1915 C1914 1.400 . S
C1915 C1916 1.398 . S
C1915 C1921 1.491 . S
C1916 H1907 0.950 . S
C1916 C1915 1.398 . S
C1916 C1917 1.391 . S
C1917 H1905 0.950 . S
C1917 C1913 1.393 . S
C1917 C1916 1.391 . S
C1918 H1908 0.950 . S
C1918 C1919 1.386 . S
C1918 C1920 1.391 . S
C1919 C1918 1.386 . S
C1919 C1923 1.393 . S
C1920 H1909 0.950 . S
C1920 C1918 1.391 . S
C1920 C1921 1.400 . S
C1921 C1915 1.491 . S
C1921 C1920 1.400 . S
C1921 C1922 1.398 . S
C1922 H1910 0.950 . S
C1922 C1921 1.398 . S
C1922 C1923 1.391 . S
C1923 H1911 0.950 . S
C1923 C1919 1.393 . S
C1923 C1922 1.391 . S
H1924 C1932 0.950 . S
H1925 C1937 0.950 . S
H1926 C1934 0.950 . S
H1927 C1936 0.950 . S
H1928 C1938 0.950 . S
H1929 C1940 0.950 . S
H1930 C1942 0.950 . S
H1931 C1943 0.950 . S
C1932 H1924 0.950 . S
C1932 C1933 1.386 . S
C1932 C1934 1.391 . S
C1933 C1932 1.386 . S
C1933 C1937 1.393 . S
C1934 H1926 0.950 . S
C1934 C1932 1.391 . S
C1934 C1935 1.400 . S
C1935 C1934 1.400 . S
C1935 C1936 1.398 . S
C1935 C1941 1.491 . S
C1936 H1927 0.950 . S
C1936 C1935 1.398 . S
C1936 C1937 1.391 . S
C1937 H1925 0.950 . S
C1937 C1933 1.393 . S
C1937 C1936 1.391 . S
C1938 H1928 0.950 . S
C1938 C1939 1.386 . S
C1938 C1940 1.391 . S
C1939 C1938 1.386 . S
C1939 C1943 1.393 . S
C1940 H1929 0.950 . S
C1940 C1938 1.391 . S
C1940 C1941 1.400 . S
C1941 C1935 1.491 . S
C1941 C1940 1.400 . S
C1941 C1942 1.398 . S
C1942 H1930 0.950 . S
C1942 C1941 1.398 . S
C1942 C1943 1.391 . S
C1943 H1931 0.950 . S
C1943 C1939 1.393 . S
C1943 C1942 1.391 . S
H1944 C1952 0.950 . S
H1945 C1957 0.950 . S
H1946 C1954 0.950 . S
H1947 C1956 0.950 . S
H1948 C1958 0.950 . S
H1949 C1960 0.950 . S
H1950 C1962 0.950 . S
H1951 C1963 0.950 . S
C1952 H1944 0.950 . S
C1952 C1953 1.386 . S
C1952 C1954 1.391 . S
C1953 C1952 1.386 . S
C1953 C1957 1.393 . S
C1954 H1946 0.950 . S
C1954 C1952 1.391 . S
C1954 C1955 1.400 . S
C1955 C1954 1.400 . S
C1955 C1956 1.398 . S
C1955 C1961 1.491 . S
C1956 H1947 0.950 . S
C1956 C1955 1.398 . S
C1956 C1957 1.391 . S
C1957 H1945 0.950 . S
C1957 C1953 1.393 . S
C1957 C1956 1.391 . S
C1958 H1948 0.950 . S
C1958 C1959 1.386 . S
C1958 C1960 1.391 . S
C1959 C1958 1.386 . S
C1959 C1963 1.393 . S
C1960 H1949 0.950 . S
C1960 C1958 1.391 . S
C1960 C1961 1.400 . S
C1961 C1955 1.491 . S
C1961 C1960 1.400 . S
C1961 C1962 1.398 . S
C1962 H1950 0.950 . S
C1962 C1961 1.398 . S
C1962 C1963 1.391 . S
C1963 H1951 0.950 . S
C1963 C1959 1.393 . S
C1963 C1962 1.391 . S
H1964 C1972 0.950 . S
H1965 C1977 0.950 . S
H1966 C1974 0.950 . S
H1967 C1976 0.950 . S
H1968 C1978 0.950 . S
H1969 C1980 0.950 . S
H1970 C1982 0.950 . S
H1971 C1983 0.950 . S
C1972 H1964 0.950 . S
C1972 C1973 1.386 . S
C1972 C1974 1.391 . S
C1973 C1972 1.386 . S
C1973 C1977 1.393 . S
C1974 H1966 0.950 . S
C1974 C1972 1.391 . S
C1974 C1975 1.400 . S
C1975 C1974 1.400 . S
C1975 C1976 1.398 . S
C1975 C1981 1.491 . S
C1976 H1967 0.950 . S
C1976 C1975 1.398 . S
C1976 C1977 1.391 . S
C1977 H1965 0.950 . S
C1977 C1973 1.393 . S
C1977 C1976 1.391 . S
C1978 H1968 0.950 . S
C1978 C1979 1.386 . S
C1978 C1980 1.391 . S
C1979 C1978 1.386 . S
C1979 C1983 1.393 . S
C1980 H1969 0.950 . S
C1980 C1978 1.391 . S
C1980 C1981 1.400 . S
C1981 C1975 1.491 . S
C1981 C1980 1.400 . S
C1981 C1982 1.398 . S
C1982 H1970 0.950 . S
C1982 C1981 1.398 . S
C1982 C1983 1.391 . S
C1983 H1971 0.950 . S
C1983 C1979 1.393 . S
C1983 C1982 1.391 . S
H1984 C1992 0.950 . S
H1985 C1997 0.950 . S
H1986 C1994 0.950 . S
H1987 C1996 0.950 . S
H1988 C1998 0.950 . S
H1989 C2000 0.950 . S
H1990 C2002 0.950 . S
H1991 C2003 0.950 . S
C1992 H1984 0.950 . S
C1992 C1993 1.386 . S
C1992 C1994 1.391 . S
C1993 C1992 1.386 . S
C1993 C1997 1.393 . S
C1994 H1986 0.950 . S
C1994 C1992 1.391 . S
C1994 C1995 1.400 . S
C1995 C1994 1.400 . S
C1995 C1996 1.398 . S
C1995 C2001 1.491 . S
C1996 H1987 0.950 . S
C1996 C1995 1.398 . S
C1996 C1997 1.391 . S
C1997 H1985 0.950 . S
C1997 C1993 1.393 . S
C1997 C1996 1.391 . S
C1998 H1988 0.950 . S
C1998 C1999 1.386 . S
C1998 C2000 1.391 . S
C1999 C1998 1.386 . S
C1999 C2003 1.393 . S
C2000 H1989 0.950 . S
C2000 C1998 1.391 . S
C2000 C2001 1.400 . S
C2001 C1995 1.491 . S
C2001 C2000 1.400 . S
C2001 C2002 1.398 . S
C2002 H1990 0.950 . S
C2002 C2001 1.398 . S
C2002 C2003 1.391 . S
C2003 H1991 0.950 . S
C2003 C1999 1.393 . S
C2003 C2002 1.391 . S
H2004 C2012 0.950 . S
H2005 C2017 0.950 . S
H2006 C2014 0.950 . S
H2007 C2016 0.950 . S
H2008 C2018 0.950 . S
H2009 C2020 0.950 . S
H2010 C2022 0.950 . S
H2011 C2023 0.950 . S
C2012 H2004 0.950 . S
C2012 C2013 1.386 . S
C2012 C2014 1.391 . S
C2013 C2012 1.386 . S
C2013 C2017 1.393 . S
C2014 H2006 0.950 . S
C2014 C2012 1.391 . S
C2014 C2015 1.400 . S
C2015 C2014 1.400 . S
C2015 C2016 1.398 . S
C2015 C2021 1.491 . S
C2016 H2007 0.950 . S
C2016 C2015 1.398 . S
C2016 C2017 1.391 . S
C2017 H2005 0.950 . S
C2017 C2013 1.393 . S
C2017 C2016 1.391 . S
C2018 H2008 0.950 . S
C2018 C2019 1.386 . S
C2018 C2020 1.391 . S
C2019 C2018 1.386 . S
C2019 C2023 1.393 . S
C2020 H2009 0.950 . S
C2020 C2018 1.391 . S
C2020 C2021 1.400 . S
C2021 C2015 1.491 . S
C2021 C2020 1.400 . S
C2021 C2022 1.398 . S
C2022 H2010 0.950 . S
C2022 C2021 1.398 . S
C2022 C2023 1.391 . S
C2023 H2011 0.950 . S
C2023 C2019 1.393 . S
C2023 C2022 1.391 . S
H2024 C2032 0.950 . S
H2025 C2037 0.950 . S
H2026 C2034 0.950 . S
H2027 C2036 0.950 . S
H2028 C2038 0.950 . S
H2029 C2040 0.950 . S
H2030 C2042 0.950 . S
H2031 C2043 0.950 . S
C2032 H2024 0.950 . S
C2032 C2033 1.386 . S
C2032 C2034 1.391 . S
C2033 C2032 1.386 . S
C2033 C2037 1.393 . S
C2034 H2026 0.950 . S
C2034 C2032 1.391 . S
C2034 C2035 1.400 . S
C2035 C2034 1.400 . S
C2035 C2036 1.398 . S
C2035 C2041 1.491 . S
C2036 H2027 0.950 . S
C2036 C2035 1.398 . S
C2036 C2037 1.391 . S
C2037 H2025 0.950 . S
C2037 C2033 1.393 . S
C2037 C2036 1.391 . S
C2038 H2028 0.950 . S
C2038 C2039 1.386 . S
C2038 C2040 1.391 . S
C2039 C2038 1.386 . S
C2039 C2043 1.393 . S
C2040 H2029 0.950 . S
C2040 C2038 1.391 . S
C2040 C2041 1.400 . S
C2041 C2035 1.491 . S
C2041 C2040 1.400 . S
C2041 C2042 1.398 . S
C2042 H2030 0.950 . S
C2042 C2041 1.398 . S
C2042 C2043 1.391 . S
C2043 H2031 0.950 . S
C2043 C2039 1.393 . S
C2043 C2042 1.391 . S
H2044 C2052 0.950 . S
H2045 C2057 0.950 . S
H2046 C2054 0.950 . S
H2047 C2056 0.950 . S
H2048 C2058 0.950 . S
H2049 C2060 0.950 . S
H2050 C2062 0.950 . S
H2051 C2063 0.950 . S
C2052 H2044 0.950 . S
C2052 C2053 1.386 . S
C2052 C2054 1.391 . S
C2053 C2052 1.386 . S
C2053 C2057 1.393 . S
C2054 H2046 0.950 . S
C2054 C2052 1.391 . S
C2054 C2055 1.400 . S
C2055 C2054 1.400 . S
C2055 C2056 1.398 . S
C2055 C2061 1.491 . S
C2056 H2047 0.950 . S
C2056 C2055 1.398 . S
C2056 C2057 1.391 . S
C2057 H2045 0.950 . S
C2057 C2053 1.393 . S
C2057 C2056 1.391 . S
C2058 H2048 0.950 . S
C2058 C2059 1.386 . S
C2058 C2060 1.391 . S
C2059 C2058 1.386 . S
C2059 C2063 1.393 . S
C2060 H2049 0.950 . S
C2060 C2058 1.391 . S
C2060 C2061 1.400 . S
C2061 C2055 1.491 . S
C2061 C2060 1.400 . S
C2061 C2062 1.398 . S
C2062 H2050 0.950 . S
C2062 C2061 1.398 . S
C2062 C2063 1.391 . S
C2063 H2051 0.950 . S
C2063 C2059 1.393 . S
C2063 C2062 1.391 . S
H2064 C2072 0.950 . S
H2065 C2077 0.950 . S
H2066 C2074 0.950 . S
H2067 C2076 0.950 . S
H2068 C2078 0.950 . S
H2069 C2080 0.950 . S
H2070 C2082 0.950 . S
H2071 C2083 0.950 . S
C2072 H2064 0.950 . S
C2072 C2073 1.386 . S
C2072 C2074 1.391 . S
C2073 C2072 1.386 . S
C2073 C2077 1.393 . S
C2074 H2066 0.950 . S
C2074 C2072 1.391 . S
C2074 C2075 1.400 . S
C2075 C2074 1.400 . S
C2075 C2076 1.398 . S
C2075 C2081 1.491 . S
C2076 H2067 0.950 . S
C2076 C2075 1.398 . S
C2076 C2077 1.391 . S
C2077 H2065 0.950 . S
C2077 C2073 1.393 . S
C2077 C2076 1.391 . S
C2078 H2068 0.950 . S
C2078 C2079 1.386 . S
C2078 C2080 1.391 . S
C2079 C2078 1.386 . S
C2079 C2083 1.393 . S
C2080 H2069 0.950 . S
C2080 C2078 1.391 . S
C2080 C2081 1.400 . S
C2081 C2075 1.491 . S
C2081 C2080 1.400 . S
C2081 C2082 1.398 . S
C2082 H2070 0.950 . S
C2082 C2081 1.398 . S
C2082 C2083 1.391 . S
C2083 H2071 0.950 . S
C2083 C2079 1.393 . S
C2083 C2082 1.391 . S
H2084 C2092 0.950 . S
H2085 C2097 0.950 . S
H2086 C2094 0.950 . S
H2087 C2096 0.950 . S
H2088 C2098 0.950 . S
H2089 C2100 0.950 . S
H2090 C2102 0.950 . S
H2091 C2103 0.950 . S
C2092 H2084 0.950 . S
C2092 C2093 1.386 . S
C2092 C2094 1.391 . S
C2093 C2092 1.386 . S
C2093 C2097 1.393 . S
C2094 H2086 0.950 . S
C2094 C2092 1.391 . S
C2094 C2095 1.400 . S
C2095 C2094 1.400 . S
C2095 C2096 1.398 . S
C2095 C2101 1.491 . S
C2096 H2087 0.950 . S
C2096 C2095 1.398 . S
C2096 C2097 1.391 . S
C2097 H2085 0.950 . S
C2097 C2093 1.393 . S
C2097 C2096 1.391 . S
C2098 H2088 0.950 . S
C2098 C2099 1.386 . S
C2098 C2100 1.391 . S
C2099 C2098 1.386 . S
C2099 C2103 1.393 . S
C2100 H2089 0.950 . S
C2100 C2098 1.391 . S
C2100 C2101 1.400 . S
C2101 C2095 1.491 . S
C2101 C2100 1.400 . S
C2101 C2102 1.398 . S
C2102 H2090 0.950 . S
C2102 C2101 1.398 . S
C2102 C2103 1.391 . S
C2103 H2091 0.950 . S
C2103 C2099 1.393 . S
C2103 C2102 1.391 . S
H2104 C2112 0.950 . S
H2105 C2117 0.950 . S
H2106 C2114 0.950 . S
H2107 C2116 0.950 . S
H2108 C2118 0.950 . S
H2109 C2120 0.950 . S
H2110 C2122 0.950 . S
H2111 C2123 0.950 . S
C2112 H2104 0.950 . S
C2112 C2113 1.386 . S
C2112 C2114 1.391 . S
C2113 C2112 1.386 . S
C2113 C2117 1.393 . S
C2114 H2106 0.950 . S
C2114 C2112 1.391 . S
C2114 C2115 1.400 . S
C2115 C2114 1.400 . S
C2115 C2116 1.398 . S
C2115 C2121 1.491 . S
C2116 H2107 0.950 . S
C2116 C2115 1.398 . S
C2116 C2117 1.391 . S
C2117 H2105 0.950 . S
C2117 C2113 1.393 . S
C2117 C2116 1.391 . S
C2118 H2108 0.950 . S
C2118 C2119 1.386 . S
C2118 C2120 1.391 . S
C2119 C2118 1.386 . S
C2119 C2123 1.393 . S
C2120 H2109 0.950 . S
C2120 C2118 1.391 . S
C2120 C2121 1.400 . S
C2121 C2115 1.491 . S
C2121 C2120 1.400 . S
C2121 C2122 1.398 . S
C2122 H2110 0.950 . S
C2122 C2121 1.398 . S
C2122 C2123 1.391 . S
C2123 H2111 0.950 . S
C2123 C2119 1.393 . S
C2123 C2122 1.391 . S
H2124 C2132 0.950 . S
H2125 C2137 0.950 . S
H2126 C2134 0.950 . S
H2127 C2136 0.950 . S
H2128 C2138 0.950 . S
H2129 C2140 0.950 . S
H2130 C2142 0.950 . S
H2131 C2143 0.950 . S
C2132 H2124 0.950 . S
C2132 C2133 1.386 . S
C2132 C2134 1.391 . S
C2133 C2132 1.386 . S
C2133 C2137 1.393 . S
C2134 H2126 0.950 . S
C2134 C2132 1.391 . S
C2134 C2135 1.400 . S
C2135 C2134 1.400 . S
C2135 C2136 1.398 . S
C2135 C2141 1.491 . S
C2136 H2127 0.950 . S
C2136 C2135 1.398 . S
C2136 C2137 1.391 . S
C2137 H2125 0.950 . S
C2137 C2133 1.393 . S
C2137 C2136 1.391 . S
C2138 H2128 0.950 . S
C2138 C2139 1.386 . S
C2138 C2140 1.391 . S
C2139 C2138 1.386 . S
C2139 C2143 1.393 . S
C2140 H2129 0.950 . S
C2140 C2138 1.391 . S
C2140 C2141 1.400 . S
C2141 C2135 1.491 . S
C2141 C2140 1.400 . S
C2141 C2142 1.398 . S
C2142 H2130 0.950 . S
C2142 C2141 1.398 . S
C2142 C2143 1.391 . S
C2143 H2131 0.950 . S
C2143 C2139 1.393 . S
C2143 C2142 1.391 . S
H2144 C2152 0.950 . S
H2145 C2157 0.950 . S
H2146 C2154 0.950 . S
H2147 C2156 0.950 . S
H2148 C2158 0.950 . S
H2149 C2160 0.950 . S
H2150 C2162 0.950 . S
H2151 C2163 0.950 . S
C2152 H2144 0.950 . S
C2152 C2153 1.386 . S
C2152 C2154 1.391 . S
C2153 C2152 1.386 . S
C2153 C2157 1.393 . S
C2154 H2146 0.950 . S
C2154 C2152 1.391 . S
C2154 C2155 1.400 . S
C2155 C2154 1.400 . S
C2155 C2156 1.398 . S
C2155 C2161 1.491 . S
C2156 H2147 0.950 . S
C2156 C2155 1.398 . S
C2156 C2157 1.391 . S
C2157 H2145 0.950 . S
C2157 C2153 1.393 . S
C2157 C2156 1.391 . S
C2158 H2148 0.950 . S
C2158 C2159 1.386 . S
C2158 C2160 1.391 . S
C2159 C2158 1.386 . S
C2159 C2163 1.393 . S
C2160 H2149 0.950 . S
C2160 C2158 1.391 . S
C2160 C2161 1.400 . S
C2161 C2155 1.491 . S
C2161 C2160 1.400 . S
C2161 C2162 1.398 . S
C2162 H2150 0.950 . S
C2162 C2161 1.398 . S
C2162 C2163 1.391 . S
C2163 H2151 0.950 . S
C2163 C2159 1.393 . S
C2163 C2162 1.391 . S
H2164 C2172 0.950 . S
H2165 C2177 0.950 . S
H2166 C2174 0.950 . S
H2167 C2176 0.950 . S
H2168 C2178 0.950 . S
H2169 C2180 0.950 . S
H2170 C2182 0.950 . S
H2171 C2183 0.950 . S
C2172 H2164 0.950 . S
C2172 C2173 1.386 . S
C2172 C2174 1.391 . S
C2173 C2172 1.386 . S
C2173 C2177 1.393 . S
C2174 H2166 0.950 . S
C2174 C2172 1.391 . S
C2174 C2175 1.400 . S
C2175 C2174 1.400 . S
C2175 C2176 1.398 . S
C2175 C2181 1.491 . S
C2176 H2167 0.950 . S
C2176 C2175 1.398 . S
C2176 C2177 1.391 . S
C2177 H2165 0.950 . S
C2177 C2173 1.393 . S
C2177 C2176 1.391 . S
C2178 H2168 0.950 . S
C2178 C2179 1.386 . S
C2178 C2180 1.391 . S
C2179 C2178 1.386 . S
C2179 C2183 1.393 . S
C2180 H2169 0.950 . S
C2180 C2178 1.391 . S
C2180 C2181 1.400 . S
C2181 C2175 1.491 . S
C2181 C2180 1.400 . S
C2181 C2182 1.398 . S
C2182 H2170 0.950 . S
C2182 C2181 1.398 . S
C2182 C2183 1.391 . S
C2183 H2171 0.950 . S
C2183 C2179 1.393 . S
C2183 C2182 1.391 . S
H2184 C2192 0.950 . S
H2185 C2197 0.950 . S
H2186 C2194 0.950 . S
H2187 C2196 0.950 . S
H2188 C2198 0.950 . S
H2189 C2200 0.950 . S
H2190 C2202 0.950 . S
H2191 C2203 0.950 . S
C2192 H2184 0.950 . S
C2192 C2193 1.386 . S
C2192 C2194 1.391 . S
C2193 C2192 1.386 . S
C2193 C2197 1.393 . S
C2194 H2186 0.950 . S
C2194 C2192 1.391 . S
C2194 C2195 1.400 . S
C2195 C2194 1.400 . S
C2195 C2196 1.398 . S
C2195 C2201 1.491 . S
C2196 H2187 0.950 . S
C2196 C2195 1.398 . S
C2196 C2197 1.391 . S
C2197 H2185 0.950 . S
C2197 C2193 1.393 . S
C2197 C2196 1.391 . S
C2198 H2188 0.950 . S
C2198 C2199 1.386 . S
C2198 C2200 1.391 . S
C2199 C2198 1.386 . S
C2199 C2203 1.393 . S
C2200 H2189 0.950 . S
C2200 C2198 1.391 . S
C2200 C2201 1.400 . S
C2201 C2195 1.491 . S
C2201 C2200 1.400 . S
C2201 C2202 1.398 . S
C2202 H2190 0.950 . S
C2202 C2201 1.398 . S
C2202 C2203 1.391 . S
C2203 H2191 0.950 . S
C2203 C2199 1.393 . S
C2203 C2202 1.391 . S
H2204 C2212 0.950 . S
H2205 C2217 0.950 . S
H2206 C2214 0.950 . S
H2207 C2216 0.950 . S
H2208 C2218 0.950 . S
H2209 C2220 0.950 . S
H2210 C2222 0.950 . S
H2211 C2223 0.950 . S
C2212 H2204 0.950 . S
C2212 C2213 1.386 . S
C2212 C2214 1.391 . S
C2213 C2212 1.386 . S
C2213 C2217 1.393 . S
C2214 H2206 0.950 . S
C2214 C2212 1.391 . S
C2214 C2215 1.400 . S
C2215 C2214 1.400 . S
C2215 C2216 1.398 . S
C2215 C2221 1.491 . S
C2216 H2207 0.950 . S
C2216 C2215 1.398 . S
C2216 C2217 1.391 . S
C2217 H2205 0.950 . S
C2217 C2213 1.393 . S
C2217 C2216 1.391 . S
C2218 H2208 0.950 . S
C2218 C2219 1.386 . S
C2218 C2220 1.391 . S
C2219 C2218 1.386 . S
C2219 C2223 1.393 . S
C2220 H2209 0.950 . S
C2220 C2218 1.391 . S
C2220 C2221 1.400 . S
C2221 C2215 1.491 . S
C2221 C2220 1.400 . S
C2221 C2222 1.398 . S
C2222 H2210 0.950 . S
C2222 C2221 1.398 . S
C2222 C2223 1.391 . S
C2223 H2211 0.950 . S
C2223 C2219 1.393 . S
C2223 C2222 1.391 . S
H2224 C2232 0.950 . S
H2225 C2237 0.950 . S
H2226 C2234 0.950 . S
H2227 C2236 0.950 . S
H2228 C2238 0.950 . S
H2229 C2240 0.950 . S
H2230 C2242 0.950 . S
H2231 C2243 0.950 . S
C2232 H2224 0.950 . S
C2232 C2233 1.386 . S
C2232 C2234 1.391 . S
C2233 C2232 1.386 . S
C2233 C2237 1.393 . S
C2234 H2226 0.950 . S
C2234 C2232 1.391 . S
C2234 C2235 1.400 . S
C2235 C2234 1.400 . S
C2235 C2236 1.398 . S
C2235 C2241 1.491 . S
C2236 H2227 0.950 . S
C2236 C2235 1.398 . S
C2236 C2237 1.391 . S
C2237 H2225 0.950 . S
C2237 C2233 1.393 . S
C2237 C2236 1.391 . S
C2238 H2228 0.950 . S
C2238 C2239 1.386 . S
C2238 C2240 1.391 . S
C2239 C2238 1.386 . S
C2239 C2243 1.393 . S
C2240 H2229 0.950 . S
C2240 C2238 1.391 . S
C2240 C2241 1.400 . S
C2241 C2235 1.491 . S
C2241 C2240 1.400 . S
C2241 C2242 1.398 . S
C2242 H2230 0.950 . S
C2242 C2241 1.398 . S
C2242 C2243 1.391 . S
C2243 H2231 0.950 . S
C2243 C2239 1.393 . S
C2243 C2242 1.391 . S
H2244 C2252 0.950 . S
H2245 C2257 0.950 . S
H2246 C2254 0.950 . S
H2247 C2256 0.950 . S
H2248 C2258 0.950 . S
H2249 C2260 0.950 . S
H2250 C2262 0.950 . S
H2251 C2263 0.950 . S
C2252 H2244 0.950 . S
C2252 C2253 1.386 . S
C2252 C2254 1.391 . S
C2253 C2252 1.386 . S
C2253 C2257 1.393 . S
C2254 H2246 0.950 . S
C2254 C2252 1.391 . S
C2254 C2255 1.400 . S
C2255 C2254 1.400 . S
C2255 C2256 1.398 . S
C2255 C2261 1.491 . S
C2256 H2247 0.950 . S
C2256 C2255 1.398 . S
C2256 C2257 1.391 . S
C2257 H2245 0.950 . S
C2257 C2253 1.393 . S
C2257 C2256 1.391 . S
C2258 H2248 0.950 . S
C2258 C2259 1.386 . S
C2258 C2260 1.391 . S
C2259 C2258 1.386 . S
C2259 C2263 1.393 . S
C2260 H2249 0.950 . S
C2260 C2258 1.391 . S
C2260 C2261 1.400 . S
C2261 C2255 1.491 . S
C2261 C2260 1.400 . S
C2261 C2262 1.398 . S
C2262 H2250 0.950 . S
C2262 C2261 1.398 . S
C2262 C2263 1.391 . S
C2263 H2251 0.950 . S
C2263 C2259 1.393 . S
C2263 C2262 1.391 . S
H2264 C2272 0.950 . S
H2265 C2277 0.950 . S
H2266 C2274 0.950 . S
H2267 C2276 0.950 . S
H2268 C2278 0.950 . S
H2269 C2280 0.950 . S
H2270 C2282 0.950 . S
H2271 C2283 0.950 . S
C2272 H2264 0.950 . S
C2272 C2273 1.386 . S
C2272 C2274 1.391 . S
C2273 C2272 1.386 . S
C2273 C2277 1.393 . S
C2274 H2266 0.950 . S
C2274 C2272 1.391 . S
C2274 C2275 1.400 . S
C2275 C2274 1.400 . S
C2275 C2276 1.398 . S
C2275 C2281 1.491 . S
C2276 H2267 0.950 . S
C2276 C2275 1.398 . S
C2276 C2277 1.391 . S
C2277 H2265 0.950 . S
C2277 C2273 1.393 . S
C2277 C2276 1.391 . S
C2278 H2268 0.950 . S
C2278 C2279 1.386 . S
C2278 C2280 1.391 . S
C2279 C2278 1.386 . S
C2279 C2283 1.393 . S
C2280 H2269 0.950 . S
C2280 C2278 1.391 . S
C2280 C2281 1.400 . S
C2281 C2275 1.491 . S
C2281 C2280 1.400 . S
C2281 C2282 1.398 . S
C2282 H2270 0.950 . S
C2282 C2281 1.398 . S
C2282 C2283 1.391 . S
C2283 H2271 0.950 . S
C2283 C2279 1.393 . S
C2283 C2282 1.391 . S
H2284 C2292 0.950 . S
H2285 C2297 0.950 . S
H2286 C2294 0.950 . S
H2287 C2296 0.950 . S
H2288 C2298 0.950 . S
H2289 C2300 0.950 . S
H2290 C2302 0.950 . S
H2291 C2303 0.950 . S
C2292 H2284 0.950 . S
C2292 C2293 1.386 . S
C2292 C2294 1.391 . S
C2293 C2292 1.386 . S
C2293 C2297 1.393 . S
C2294 H2286 0.950 . S
C2294 C2292 1.391 . S
C2294 C2295 1.400 . S
C2295 C2294 1.400 . S
C2295 C2296 1.398 . S
C2295 C2301 1.491 . S
C2296 H2287 0.950 . S
C2296 C2295 1.398 . S
C2296 C2297 1.391 . S
C2297 H2285 0.950 . S
C2297 C2293 1.393 . S
C2297 C2296 1.391 . S
C2298 H2288 0.950 . S
C2298 C2299 1.386 . S
C2298 C2300 1.391 . S
C2299 C2298 1.386 . S
C2299 C2303 1.393 . S
C2300 H2289 0.950 . S
C2300 C2298 1.391 . S
C2300 C2301 1.400 . S
C2301 C2295 1.491 . S
C2301 C2300 1.400 . S
C2301 C2302 1.398 . S
C2302 H2290 0.950 . S
C2302 C2301 1.398 . S
C2302 C2303 1.391 . S
C2303 H2291 0.950 . S
C2303 C2299 1.393 . S
C2303 C2302 1.391 . S
H2304 C2312 0.950 . S
H2305 C2317 0.950 . S
H2306 C2314 0.950 . S
H2307 C2316 0.950 . S
H2308 C2318 0.950 . S
H2309 C2320 0.950 . S
H2310 C2322 0.950 . S
H2311 C2323 0.950 . S
C2312 H2304 0.950 . S
C2312 C2313 1.386 . S
C2312 C2314 1.391 . S
C2313 C2312 1.386 . S
C2313 C2317 1.393 . S
C2314 H2306 0.950 . S
C2314 C2312 1.391 . S
C2314 C2315 1.400 . S
C2315 C2314 1.400 . S
C2315 C2316 1.398 . S
C2315 C2321 1.491 . S
C2316 H2307 0.950 . S
C2316 C2315 1.398 . S
C2316 C2317 1.391 . S
C2317 H2305 0.950 . S
C2317 C2313 1.393 . S
C2317 C2316 1.391 . S
C2318 H2308 0.950 . S
C2318 C2319 1.386 . S
C2318 C2320 1.391 . S
C2319 C2318 1.386 . S
C2319 C2323 1.393 . S
C2320 H2309 0.950 . S
C2320 C2318 1.391 . S
C2320 C2321 1.400 . S
C2321 C2315 1.491 . S
C2321 C2320 1.400 . S
C2321 C2322 1.398 . S
C2322 H2310 0.950 . S
C2322 C2321 1.398 . S
C2322 C2323 1.391 . S
C2323 H2311 0.950 . S
C2323 C2319 1.393 . S
C2323 C2322 1.391 . S
H2324 C2332 0.950 . S
H2325 C2337 0.950 . S
H2326 C2334 0.950 . S
H2327 C2336 0.950 . S
H2328 C2338 0.950 . S
H2329 C2340 0.950 . S
H2330 C2342 0.950 . S
H2331 C2343 0.950 . S
C2332 H2324 0.950 . S
C2332 C2333 1.386 . S
C2332 C2334 1.391 . S
C2333 C2332 1.386 . S
C2333 C2337 1.393 . S
C2334 H2326 0.950 . S
C2334 C2332 1.391 . S
C2334 C2335 1.400 . S
C2335 C2334 1.400 . S
C2335 C2336 1.398 . S
C2335 C2341 1.491 . S
C2336 H2327 0.950 . S
C2336 C2335 1.398 . S
C2336 C2337 1.391 . S
C2337 H2325 0.950 . S
C2337 C2333 1.393 . S
C2337 C2336 1.391 . S
C2338 H2328 0.950 . S
C2338 C2339 1.386 . S
C2338 C2340 1.391 . S
C2339 C2338 1.386 . S
C2339 C2343 1.393 . S
C2340 H2329 0.950 . S
C2340 C2338 1.391 . S
C2340 C2341 1.400 . S
C2341 C2335 1.491 . S
C2341 C2340 1.400 . S
C2341 C2342 1.398 . S
C2342 H2330 0.950 . S
C2342 C2341 1.398 . S
C2342 C2343 1.391 . S
C2343 H2331 0.950 . S
C2343 C2339 1.393 . S
C2343 C2342 1.391 . S
H2344 C2352 0.950 . S
H2345 C2357 0.950 . S
H2346 C2354 0.950 . S
H2347 C2356 0.950 . S
H2348 C2358 0.950 . S
H2349 C2360 0.950 . S
H2350 C2362 0.950 . S
H2351 C2363 0.950 . S
C2352 H2344 0.950 . S
C2352 C2353 1.386 . S
C2352 C2354 1.391 . S
C2353 C2352 1.386 . S
C2353 C2357 1.393 . S
C2354 H2346 0.950 . S
C2354 C2352 1.391 . S
C2354 C2355 1.400 . S
C2355 C2354 1.400 . S
C2355 C2356 1.398 . S
C2355 C2361 1.491 . S
C2356 H2347 0.950 . S
C2356 C2355 1.398 . S
C2356 C2357 1.391 . S
C2357 H2345 0.950 . S
C2357 C2353 1.393 . S
C2357 C2356 1.391 . S
C2358 H2348 0.950 . S
C2358 C2359 1.386 . S
C2358 C2360 1.391 . S
C2359 C2358 1.386 . S
C2359 C2363 1.393 . S
C2360 H2349 0.950 . S
C2360 C2358 1.391 . S
C2360 C2361 1.400 . S
C2361 C2355 1.491 . S
C2361 C2360 1.400 . S
C2361 C2362 1.398 . S
C2362 H2350 0.950 . S
C2362 C2361 1.398 . S
C2362 C2363 1.391 . S
C2363 H2351 0.950 . S
C2363 C2359 1.393 . S
C2363 C2362 1.391 . S
H2364 C2372 0.950 . S
H2365 C2377 0.950 . S
H2366 C2374 0.950 . S
H2367 C2376 0.950 . S
H2368 C2378 0.950 . S
H2369 C2380 0.950 . S
H2370 C2382 0.950 . S
H2371 C2383 0.950 . S
C2372 H2364 0.950 . S
C2372 C2373 1.386 . S
C2372 C2374 1.391 . S
C2373 C2372 1.386 . S
C2373 C2377 1.393 . S
C2374 H2366 0.950 . S
C2374 C2372 1.391 . S
C2374 C2375 1.400 . S
C2375 C2374 1.400 . S
C2375 C2376 1.398 . S
C2375 C2381 1.491 . S
C2376 H2367 0.950 . S
C2376 C2375 1.398 . S
C2376 C2377 1.391 . S
C2377 H2365 0.950 . S
C2377 C2373 1.393 . S
C2377 C2376 1.391 . S
C2378 H2368 0.950 . S
C2378 C2379 1.386 . S
C2378 C2380 1.391 . S
C2379 C2378 1.386 . S
C2379 C2383 1.393 . S
C2380 H2369 0.950 . S
C2380 C2378 1.391 . S
C2380 C2381 1.400 . S
C2381 C2375 1.491 . S
C2381 C2380 1.400 . S
C2381 C2382 1.398 . S
C2382 H2370 0.950 . S
C2382 C2381 1.398 . S
C2382 C2383 1.391 . S
C2383 H2371 0.950 . S
C2383 C2379 1.393 . S
C2383 C2382 1.391 . S
H2384 C2392 0.950 . S
H2385 C2397 0.950 . S
H2386 C2394 0.950 . S
H2387 C2396 0.950 . S
H2388 C2398 0.950 . S
H2389 C2400 0.950 . S
H2390 C2402 0.950 . S
H2391 C2403 0.950 . S
C2392 H2384 0.950 . S
C2392 C2393 1.386 . S
C2392 C2394 1.391 . S
C2393 C2392 1.386 . S
C2393 C2397 1.393 . S
C2394 H2386 0.950 . S
C2394 C2392 1.391 . S
C2394 C2395 1.400 . S
C2395 C2394 1.400 . S
C2395 C2396 1.398 . S
C2395 C2401 1.491 . S
C2396 H2387 0.950 . S
C2396 C2395 1.398 . S
C2396 C2397 1.391 . S
C2397 H2385 0.950 . S
C2397 C2393 1.393 . S
C2397 C2396 1.391 . S
C2398 H2388 0.950 . S
C2398 C2399 1.386 . S
C2398 C2400 1.391 . S
C2399 C2398 1.386 . S
C2399 C2403 1.393 . S
C2400 H2389 0.950 . S
C2400 C2398 1.391 . S
C2400 C2401 1.400 . S
C2401 C2395 1.491 . S
C2401 C2400 1.400 . S
C2401 C2402 1.398 . S
C2402 H2390 0.950 . S
C2402 C2401 1.398 . S
C2402 C2403 1.391 . S
C2403 H2391 0.950 . S
C2403 C2399 1.393 . S
C2403 C2402 1.391 . S
H2404 C2412 0.950 . S
H2405 C2417 0.950 . S
H2406 C2414 0.950 . S
H2407 C2416 0.950 . S
H2408 C2418 0.950 . S
H2409 C2420 0.950 . S
H2410 C2422 0.950 . S
H2411 C2423 0.950 . S
C2412 H2404 0.950 . S
C2412 C2413 1.386 . S
C2412 C2414 1.391 . S
C2413 C2412 1.386 . S
C2413 C2417 1.393 . S
C2414 H2406 0.950 . S
C2414 C2412 1.391 . S
C2414 C2415 1.400 . S
C2415 C2414 1.400 . S
C2415 C2416 1.398 . S
C2415 C2421 1.491 . S
C2416 H2407 0.950 . S
C2416 C2415 1.398 . S
C2416 C2417 1.391 . S
C2417 H2405 0.950 . S
C2417 C2413 1.393 . S
C2417 C2416 1.391 . S
C2418 H2408 0.950 . S
C2418 C2419 1.386 . S
C2418 C2420 1.391 . S
C2419 C2418 1.386 . S
C2419 C2423 1.393 . S
C2420 H2409 0.950 . S
C2420 C2418 1.391 . S
C2420 C2421 1.400 . S
C2421 C2415 1.491 . S
C2421 C2420 1.400 . S
C2421 C2422 1.398 . S
C2422 H2410 0.950 . S
C2422 C2421 1.398 . S
C2422 C2423 1.391 . S
C2423 H2411 0.950 . S
C2423 C2419 1.393 . S
C2423 C2422 1.391 . S
H2424 C2432 0.950 . S
H2425 C2437 0.950 . S
H2426 C2434 0.950 . S
H2427 C2436 0.950 . S
H2428 C2438 0.950 . S
H2429 C2440 0.950 . S
H2430 C2442 0.950 . S
H2431 C2443 0.950 . S
C2432 H2424 0.950 . S
C2432 C2433 1.386 . S
C2432 C2434 1.391 . S
C2433 C2432 1.386 . S
C2433 C2437 1.393 . S
C2434 H2426 0.950 . S
C2434 C2432 1.391 . S
C2434 C2435 1.400 . S
C2435 C2434 1.400 . S
C2435 C2436 1.398 . S
C2435 C2441 1.491 . S
C2436 H2427 0.950 . S
C2436 C2435 1.398 . S
C2436 C2437 1.391 . S
C2437 H2425 0.950 . S
C2437 C2433 1.393 . S
C2437 C2436 1.391 . S
C2438 H2428 0.950 . S
C2438 C2439 1.386 . S
C2438 C2440 1.391 . S
C2439 C2438 1.386 . S
C2439 C2443 1.393 . S
C2440 H2429 0.950 . S
C2440 C2438 1.391 . S
C2440 C2441 1.400 . S
C2441 C2435 1.491 . S
C2441 C2440 1.400 . S
C2441 C2442 1.398 . S
C2442 H2430 0.950 . S
C2442 C2441 1.398 . S
C2442 C2443 1.391 . S
C2443 H2431 0.950 . S
C2443 C2439 1.393 . S
C2443 C2442 1.391 . S
H2444 C2452 0.950 . S
H2445 C2457 0.950 . S
H2446 C2454 0.950 . S
H2447 C2456 0.950 . S
H2448 C2458 0.950 . S
H2449 C2460 0.950 . S
H2450 C2462 0.950 . S
H2451 C2463 0.950 . S
C2452 H2444 0.950 . S
C2452 C2453 1.386 . S
C2452 C2454 1.391 . S
C2453 C2452 1.386 . S
C2453 C2457 1.393 . S
C2454 H2446 0.950 . S
C2454 C2452 1.391 . S
C2454 C2455 1.400 . S
C2455 C2454 1.400 . S
C2455 C2456 1.398 . S
C2455 C2461 1.491 . S
C2456 H2447 0.950 . S
C2456 C2455 1.398 . S
C2456 C2457 1.391 . S
C2457 H2445 0.950 . S
C2457 C2453 1.393 . S
C2457 C2456 1.391 . S
C2458 H2448 0.950 . S
C2458 C2459 1.386 . S
C2458 C2460 1.391 . S
C2459 C2458 1.386 . S
C2459 C2463 1.393 . S
C2460 H2449 0.950 . S
C2460 C2458 1.391 . S
C2460 C2461 1.400 . S
C2461 C2455 1.491 . S
C2461 C2460 1.400 . S
C2461 C2462 1.398 . S
C2462 H2450 0.950 . S
C2462 C2461 1.398 . S
C2462 C2463 1.391 . S
C2463 H2451 0.950 . S
C2463 C2459 1.393 . S
C2463 C2462 1.391 . S
H2464 C2472 0.950 . S
H2465 C2477 0.950 . S
H2466 C2474 0.950 . S
H2467 C2476 0.950 . S
H2468 C2478 0.950 . S
H2469 C2480 0.950 . S
H2470 C2482 0.950 . S
H2471 C2483 0.950 . S
C2472 H2464 0.950 . S
C2472 C2473 1.386 . S
C2472 C2474 1.391 . S
C2473 C2472 1.386 . S
C2473 C2477 1.393 . S
C2474 H2466 0.950 . S
C2474 C2472 1.391 . S
C2474 C2475 1.400 . S
C2475 C2474 1.400 . S
C2475 C2476 1.398 . S
C2475 C2481 1.491 . S
C2476 H2467 0.950 . S
C2476 C2475 1.398 . S
C2476 C2477 1.391 . S
C2477 H2465 0.950 . S
C2477 C2473 1.393 . S
C2477 C2476 1.391 . S
C2478 H2468 0.950 . S
C2478 C2479 1.386 . S
C2478 C2480 1.391 . S
C2479 C2478 1.386 . S
C2479 C2483 1.393 . S
C2480 H2469 0.950 . S
C2480 C2478 1.391 . S
C2480 C2481 1.400 . S
C2481 C2475 1.491 . S
C2481 C2480 1.400 . S
C2481 C2482 1.398 . S
C2482 H2470 0.950 . S
C2482 C2481 1.398 . S
C2482 C2483 1.391 . S
C2483 H2471 0.950 . S
C2483 C2479 1.393 . S
C2483 C2482 1.391 . S
H2484 C2492 0.950 . S
H2485 C2497 0.950 . S
H2486 C2494 0.950 . S
H2487 C2496 0.950 . S
H2488 C2498 0.950 . S
H2489 C2500 0.950 . S
H2490 C2502 0.950 . S
H2491 C2503 0.950 . S
C2492 H2484 0.950 . S
C2492 C2493 1.386 . S
C2492 C2494 1.391 . S
C2493 C2492 1.386 . S
C2493 C2497 1.393 . S
C2494 H2486 0.950 . S
C2494 C2492 1.391 . S
C2494 C2495 1.400 . S
C2495 C2494 1.400 . S
C2495 C2496 1.398 . S
C2495 C2501 1.491 . S
C2496 H2487 0.950 . S
C2496 C2495 1.398 . S
C2496 C2497 1.391 . S
C2497 H2485 0.950 . S
C2497 C2493 1.393 . S
C2497 C2496 1.391 . S
C2498 H2488 0.950 . S
C2498 C2499 1.386 . S
C2498 C2500 1.391 . S
C2499 C2498 1.386 . S
C2499 C2503 1.393 . S
C2500 H2489 0.950 . S
C2500 C2498 1.391 . S
C2500 C2501 1.400 . S
C2501 C2495 1.491 . S
C2501 C2500 1.400 . S
C2501 C2502 1.398 . S
C2502 H2490 0.950 . S
C2502 C2501 1.398 . S
C2502 C2503 1.391 . S
C2503 H2491 0.950 . S
C2503 C2499 1.393 . S
C2503 C2502 1.391 . S
H2504 C2512 0.950 . S
H2505 C2517 0.950 . S
H2506 C2514 0.950 . S
H2507 C2516 0.950 . S
H2508 C2518 0.950 . S
H2509 C2520 0.950 . S
H2510 C2522 0.950 . S
H2511 C2523 0.950 . S
C2512 H2504 0.950 . S
C2512 C2513 1.386 . S
C2512 C2514 1.391 . S
C2513 C2512 1.386 . S
C2513 C2517 1.393 . S
C2514 H2506 0.950 . S
C2514 C2512 1.391 . S
C2514 C2515 1.400 . S
C2515 C2514 1.400 . S
C2515 C2516 1.398 . S
C2515 C2521 1.491 . S
C2516 H2507 0.950 . S
C2516 C2515 1.398 . S
C2516 C2517 1.391 . S
C2517 H2505 0.950 . S
C2517 C2513 1.393 . S
C2517 C2516 1.391 . S
C2518 H2508 0.950 . S
C2518 C2519 1.386 . S
C2518 C2520 1.391 . S
C2519 C2518 1.386 . S
C2519 C2523 1.393 . S
C2520 H2509 0.950 . S
C2520 C2518 1.391 . S
C2520 C2521 1.400 . S
C2521 C2515 1.491 . S
C2521 C2520 1.400 . S
C2521 C2522 1.398 . S
C2522 H2510 0.950 . S
C2522 C2521 1.398 . S
C2522 C2523 1.391 . S
C2523 H2511 0.950 . S
C2523 C2519 1.393 . S
C2523 C2522 1.391 . S
H2524 C2532 0.950 . S
H2525 C2537 0.950 . S
H2526 C2534 0.950 . S
H2527 C2536 0.950 . S
H2528 C2538 0.950 . S
H2529 C2540 0.950 . S
H2530 C2542 0.950 . S
H2531 C2543 0.950 . S
C2532 H2524 0.950 . S
C2532 C2533 1.386 . S
C2532 C2534 1.391 . S
C2533 C2532 1.386 . S
C2533 C2537 1.393 . S
C2534 H2526 0.950 . S
C2534 C2532 1.391 . S
C2534 C2535 1.400 . S
C2535 C2534 1.400 . S
C2535 C2536 1.398 . S
C2535 C2541 1.491 . S
C2536 H2527 0.950 . S
C2536 C2535 1.398 . S
C2536 C2537 1.391 . S
C2537 H2525 0.950 . S
C2537 C2533 1.393 . S
C2537 C2536 1.391 . S
C2538 H2528 0.950 . S
C2538 C2539 1.386 . S
C2538 C2540 1.391 . S
C2539 C2538 1.386 . S
C2539 C2543 1.393 . S
C2540 H2529 0.950 . S
C2540 C2538 1.391 . S
C2540 C2541 1.400 . S
C2541 C2535 1.491 . S
C2541 C2540 1.400 . S
C2541 C2542 1.398 . S
C2542 H2530 0.950 . S
C2542 C2541 1.398 . S
C2542 C2543 1.391 . S
C2543 H2531 0.950 . S
C2543 C2539 1.393 . S
C2543 C2542 1.391 . S
H2544 C2552 0.950 . S
H2545 C2557 0.950 . S
H2546 C2554 0.950 . S
H2547 C2556 0.950 . S
H2548 C2558 0.950 . S
H2549 C2560 0.950 . S
H2550 C2562 0.950 . S
H2551 C2563 0.950 . S
C2552 H2544 0.950 . S
C2552 C2553 1.386 . S
C2552 C2554 1.391 . S
C2553 C2552 1.386 . S
C2553 C2557 1.393 . S
C2554 H2546 0.950 . S
C2554 C2552 1.391 . S
C2554 C2555 1.400 . S
C2555 C2554 1.400 . S
C2555 C2556 1.398 . S
C2555 C2561 1.491 . S
C2556 H2547 0.950 . S
C2556 C2555 1.398 . S
C2556 C2557 1.391 . S
C2557 H2545 0.950 . S
C2557 C2553 1.393 . S
C2557 C2556 1.391 . S
C2558 H2548 0.950 . S
C2558 C2559 1.386 . S
C2558 C2560 1.391 . S
C2559 C2558 1.386 . S
C2559 C2563 1.393 . S
C2560 H2549 0.950 . S
C2560 C2558 1.391 . S
C2560 C2561 1.400 . S
C2561 C2555 1.491 . S
C2561 C2560 1.400 . S
C2561 C2562 1.398 . S
C2562 H2550 0.950 . S
C2562 C2561 1.398 . S
C2562 C2563 1.391 . S
C2563 H2551 0.950 . S
C2563 C2559 1.393 . S
C2563 C2562 1.391 . S
H2564 C2572 0.950 . S
H2565 C2577 0.950 . S
H2566 C2574 0.950 . S
H2567 C2576 0.950 . S
H2568 C2578 0.950 . S
H2569 C2580 0.950 . S
H2570 C2582 0.950 . S
H2571 C2583 0.950 . S
C2572 H2564 0.950 . S
C2572 C2573 1.386 . S
C2572 C2574 1.391 . S
C2573 C2572 1.386 . S
C2573 C2577 1.393 . S
C2574 H2566 0.950 . S
C2574 C2572 1.391 . S
C2574 C2575 1.400 . S
C2575 C2574 1.400 . S
C2575 C2576 1.398 . S
C2575 C2581 1.491 . S
C2576 H2567 0.950 . S
C2576 C2575 1.398 . S
C2576 C2577 1.391 . S
C2577 H2565 0.950 . S
C2577 C2573 1.393 . S
C2577 C2576 1.391 . S
C2578 H2568 0.950 . S
C2578 C2579 1.386 . S
C2578 C2580 1.391 . S
C2579 C2578 1.386 . S
C2579 C2583 1.393 . S
C2580 H2569 0.950 . S
C2580 C2578 1.391 . S
C2580 C2581 1.400 . S
C2581 C2575 1.491 . S
C2581 C2580 1.400 . S
C2581 C2582 1.398 . S
C2582 H2570 0.950 . S
C2582 C2581 1.398 . S
C2582 C2583 1.391 . S
C2583 H2571 0.950 . S
C2583 C2579 1.393 . S
C2583 C2582 1.391 . S
H2584 C2592 0.950 . S
H2585 C2597 0.950 . S
H2586 C2594 0.950 . S
H2587 C2596 0.950 . S
H2588 C2598 0.950 . S
H2589 C2600 0.950 . S
H2590 C2602 0.950 . S
H2591 C2603 0.950 . S
C2592 H2584 0.950 . S
C2592 C2593 1.386 . S
C2592 C2594 1.391 . S
C2593 C2592 1.386 . S
C2593 C2597 1.393 . S
C2594 H2586 0.950 . S
C2594 C2592 1.391 . S
C2594 C2595 1.400 . S
C2595 C2594 1.400 . S
C2595 C2596 1.398 . S
C2595 C2601 1.491 . S
C2596 H2587 0.950 . S
C2596 C2595 1.398 . S
C2596 C2597 1.391 . S
C2597 H2585 0.950 . S
C2597 C2593 1.393 . S
C2597 C2596 1.391 . S
C2598 H2588 0.950 . S
C2598 C2599 1.386 . S
C2598 C2600 1.391 . S
C2599 C2598 1.386 . S
C2599 C2603 1.393 . S
C2600 H2589 0.950 . S
C2600 C2598 1.391 . S
C2600 C2601 1.400 . S
C2601 C2595 1.491 . S
C2601 C2600 1.400 . S
C2601 C2602 1.398 . S
C2602 H2590 0.950 . S
C2602 C2601 1.398 . S
C2602 C2603 1.391 . S
C2603 H2591 0.950 . S
C2603 C2599 1.393 . S
C2603 C2602 1.391 . S
H2604 C2612 0.950 . S
H2605 C2617 0.950 . S
H2606 C2614 0.950 . S
H2607 C2616 0.950 . S
H2608 C2618 0.950 . S
H2609 C2620 0.950 . S
H2610 C2622 0.950 . S
H2611 C2623 0.950 . S
C2612 H2604 0.950 . S
C2612 C2613 1.386 . S
C2612 C2614 1.391 . S
C2613 C2612 1.386 . S
C2613 C2617 1.393 . S
C2614 H2606 0.950 . S
C2614 C2612 1.391 . S
C2614 C2615 1.400 . S
C2615 C2614 1.400 . S
C2615 C2616 1.398 . S
C2615 C2621 1.491 . S
C2616 H2607 0.950 . S
C2616 C2615 1.398 . S
C2616 C2617 1.391 . S
C2617 H2605 0.950 . S
C2617 C2613 1.393 . S
C2617 C2616 1.391 . S
C2618 H2608 0.950 . S
C2618 C2619 1.386 . S
C2618 C2620 1.391 . S
C2619 C2618 1.386 . S
C2619 C2623 1.393 . S
C2620 H2609 0.950 . S
C2620 C2618 1.391 . S
C2620 C2621 1.400 . S
C2621 C2615 1.491 . S
C2621 C2620 1.400 . S
C2621 C2622 1.398 . S
C2622 H2610 0.950 . S
C2622 C2621 1.398 . S
C2622 C2623 1.391 . S
C2623 H2611 0.950 . S
C2623 C2619 1.393 . S
C2623 C2622 1.391 . S
H2624 C2632 0.950 . S
H2625 C2637 0.950 . S
H2626 C2634 0.950 . S
H2627 C2636 0.950 . S
H2628 C2638 0.950 . S
H2629 C2640 0.950 . S
H2630 C2642 0.950 . S
H2631 C2643 0.950 . S
C2632 H2624 0.950 . S
C2632 C2633 1.386 . S
C2632 C2634 1.391 . S
C2633 C2632 1.386 . S
C2633 C2637 1.393 . S
C2634 H2626 0.950 . S
C2634 C2632 1.391 . S
C2634 C2635 1.400 . S
C2635 C2634 1.400 . S
C2635 C2636 1.398 . S
C2635 C2641 1.491 . S
C2636 H2627 0.950 . S
C2636 C2635 1.398 . S
C2636 C2637 1.391 . S
C2637 H2625 0.950 . S
C2637 C2633 1.393 . S
C2637 C2636 1.391 . S
C2638 H2628 0.950 . S
C2638 C2639 1.386 . S
C2638 C2640 1.391 . S
C2639 C2638 1.386 . S
C2639 C2643 1.393 . S
C2640 H2629 0.950 . S
C2640 C2638 1.391 . S
C2640 C2641 1.400 . S
C2641 C2635 1.491 . S
C2641 C2640 1.400 . S
C2641 C2642 1.398 . S
C2642 H2630 0.950 . S
C2642 C2641 1.398 . S
C2642 C2643 1.391 . S
C2643 H2631 0.950 . S
C2643 C2639 1.393 . S
C2643 C2642 1.391 . S
H2644 C2652 0.950 . S
H2645 C2657 0.950 . S
H2646 C2654 0.950 . S
H2647 C2656 0.950 . S
H2648 C2658 0.950 . S
H2649 C2660 0.950 . S
H2650 C2662 0.950 . S
H2651 C2663 0.950 . S
C2652 H2644 0.950 . S
C2652 C2653 1.386 . S
C2652 C2654 1.391 . S
C2653 C2652 1.386 . S
C2653 C2657 1.393 . S
C2654 H2646 0.950 . S
C2654 C2652 1.391 . S
C2654 C2655 1.400 . S
C2655 C2654 1.400 . S
C2655 C2656 1.398 . S
C2655 C2661 1.491 . S
C2656 H2647 0.950 . S
C2656 C2655 1.398 . S
C2656 C2657 1.391 . S
C2657 H2645 0.950 . S
C2657 C2653 1.393 . S
C2657 C2656 1.391 . S
C2658 H2648 0.950 . S
C2658 C2659 1.386 . S
C2658 C2660 1.391 . S
C2659 C2658 1.386 . S
C2659 C2663 1.393 . S
C2660 H2649 0.950 . S
C2660 C2658 1.391 . S
C2660 C2661 1.400 . S
C2661 C2655 1.491 . S
C2661 C2660 1.400 . S
C2661 C2662 1.398 . S
C2662 H2650 0.950 . S
C2662 C2661 1.398 . S
C2662 C2663 1.391 . S
C2663 H2651 0.950 . S
C2663 C2659 1.393 . S
C2663 C2662 1.391 . S
H2664 C2672 0.950 . S
H2665 C2677 0.950 . S
H2666 C2674 0.950 . S
H2667 C2676 0.950 . S
H2668 C2678 0.950 . S
H2669 C2680 0.950 . S
H2670 C2682 0.950 . S
H2671 C2683 0.950 . S
C2672 H2664 0.950 . S
C2672 C2673 1.386 . S
C2672 C2674 1.391 . S
C2673 C2672 1.386 . S
C2673 C2677 1.393 . S
C2674 H2666 0.950 . S
C2674 C2672 1.391 . S
C2674 C2675 1.400 . S
C2675 C2674 1.400 . S
C2675 C2676 1.398 . S
C2675 C2681 1.491 . S
C2676 H2667 0.950 . S
C2676 C2675 1.398 . S
C2676 C2677 1.391 . S
C2677 H2665 0.950 . S
C2677 C2673 1.393 . S
C2677 C2676 1.391 . S
C2678 H2668 0.950 . S
C2678 C2679 1.386 . S
C2678 C2680 1.391 . S
C2679 C2678 1.386 . S
C2679 C2683 1.393 . S
C2680 H2669 0.950 . S
C2680 C2678 1.391 . S
C2680 C2681 1.400 . S
C2681 C2675 1.491 . S
C2681 C2680 1.400 . S
C2681 C2682 1.398 . S
C2682 H2670 0.950 . S
C2682 C2681 1.398 . S
C2682 C2683 1.391 . S
C2683 H2671 0.950 . S
C2683 C2679 1.393 . S
C2683 C2682 1.391 . S
H2684 C2692 0.950 . S
H2685 C2697 0.950 . S
H2686 C2694 0.950 . S
H2687 C2696 0.950 . S
H2688 C2698 0.950 . S
H2689 C2700 0.950 . S
H2690 C2702 0.950 . S
H2691 C2703 0.950 . S
C2692 H2684 0.950 . S
C2692 C2693 1.386 . S
C2692 C2694 1.391 . S
C2693 C2692 1.386 . S
C2693 C2697 1.393 . S
C2694 H2686 0.950 . S
C2694 C2692 1.391 . S
C2694 C2695 1.400 . S
C2695 C2694 1.400 . S
C2695 C2696 1.398 . S
C2695 C2701 1.491 . S
C2696 H2687 0.950 . S
C2696 C2695 1.398 . S
C2696 C2697 1.391 . S
C2697 H2685 0.950 . S
C2697 C2693 1.393 . S
C2697 C2696 1.391 . S
C2698 H2688 0.950 . S
C2698 C2699 1.386 . S
C2698 C2700 1.391 . S
C2699 C2698 1.386 . S
C2699 C2703 1.393 . S
C2700 H2689 0.950 . S
C2700 C2698 1.391 . S
C2700 C2701 1.400 . S
C2701 C2695 1.491 . S
C2701 C2700 1.400 . S
C2701 C2702 1.398 . S
C2702 H2690 0.950 . S
C2702 C2701 1.398 . S
C2702 C2703 1.391 . S
C2703 H2691 0.950 . S
C2703 C2699 1.393 . S
C2703 C2702 1.391 . S
H2704 C2712 0.950 . S
H2705 C2717 0.950 . S
H2706 C2714 0.950 . S
H2707 C2716 0.950 . S
H2708 C2718 0.950 . S
H2709 C2720 0.950 . S
H2710 C2722 0.950 . S
H2711 C2723 0.950 . S
C2712 H2704 0.950 . S
C2712 C2713 1.386 . S
C2712 C2714 1.391 . S
C2713 C2712 1.386 . S
C2713 C2717 1.393 . S
C2714 H2706 0.950 . S
C2714 C2712 1.391 . S
C2714 C2715 1.400 . S
C2715 C2714 1.400 . S
C2715 C2716 1.398 . S
C2715 C2721 1.491 . S
C2716 H2707 0.950 . S
C2716 C2715 1.398 . S
C2716 C2717 1.391 . S
C2717 H2705 0.950 . S
C2717 C2713 1.393 . S
C2717 C2716 1.391 . S
C2718 H2708 0.950 . S
C2718 C2719 1.386 . S
C2718 C2720 1.391 . S
C2719 C2718 1.386 . S
C2719 C2723 1.393 . S
C2720 H2709 0.950 . S
C2720 C2718 1.391 . S
C2720 C2721 1.400 . S
C2721 C2715 1.491 . S
C2721 C2720 1.400 . S
C2721 C2722 1.398 . S
C2722 H2710 0.950 . S
C2722 C2721 1.398 . S
C2722 C2723 1.391 . S
C2723 H2711 0.950 . S
C2723 C2719 1.393 . S
C2723 C2722 1.391 . S
H2724 C2732 0.950 . S
H2725 C2737 0.950 . S
H2726 C2734 0.950 . S
H2727 C2736 0.950 . S
H2728 C2738 0.950 . S
H2729 C2740 0.950 . S
H2730 C2742 0.950 . S
H2731 C2743 0.950 . S
C2732 H2724 0.950 . S
C2732 C2733 1.386 . S
C2732 C2734 1.391 . S
C2733 C2732 1.386 . S
C2733 C2737 1.393 . S
C2734 H2726 0.950 . S
C2734 C2732 1.391 . S
C2734 C2735 1.400 . S
C2735 C2734 1.400 . S
C2735 C2736 1.398 . S
C2735 C2741 1.491 . S
C2736 H2727 0.950 . S
C2736 C2735 1.398 . S
C2736 C2737 1.391 . S
C2737 H2725 0.950 . S
C2737 C2733 1.393 . S
C2737 C2736 1.391 . S
C2738 H2728 0.950 . S
C2738 C2739 1.386 . S
C2738 C2740 1.391 . S
C2739 C2738 1.386 . S
C2739 C2743 1.393 . S
C2740 H2729 0.950 . S
C2740 C2738 1.391 . S
C2740 C2741 1.400 . S
C2741 C2735 1.491 . S
C2741 C2740 1.400 . S
C2741 C2742 1.398 . S
C2742 H2730 0.950 . S
C2742 C2741 1.398 . S
C2742 C2743 1.391 . S
C2743 H2731 0.950 . S
C2743 C2739 1.393 . S
C2743 C2742 1.391 . S
H2744 C2752 0.950 . S
H2745 C2757 0.950 . S
H2746 C2754 0.950 . S
H2747 C2756 0.950 . S
H2748 C2758 0.950 . S
H2749 C2760 0.950 . S
H2750 C2762 0.950 . S
H2751 C2763 0.950 . S
C2752 H2744 0.950 . S
C2752 C2753 1.386 . S
C2752 C2754 1.391 . S
C2753 C2752 1.386 . S
C2753 C2757 1.393 . S
C2754 H2746 0.950 . S
C2754 C2752 1.391 . S
C2754 C2755 1.400 . S
C2755 C2754 1.400 . S
C2755 C2756 1.398 . S
C2755 C2761 1.491 . S
C2756 H2747 0.950 . S
C2756 C2755 1.398 . S
C2756 C2757 1.391 . S
C2757 H2745 0.950 . S
C2757 C2753 1.393 . S
C2757 C2756 1.391 . S
C2758 H2748 0.950 . S
C2758 C2759 1.386 . S
C2758 C2760 1.391 . S
C2759 C2758 1.386 . S
C2759 C2763 1.393 . S
C2760 H2749 0.950 . S
C2760 C2758 1.391 . S
C2760 C2761 1.400 . S
C2761 C2755 1.491 . S
C2761 C2760 1.400 . S
C2761 C2762 1.398 . S
C2762 H2750 0.950 . S
C2762 C2761 1.398 . S
C2762 C2763 1.391 . S
C2763 H2751 0.950 . S
C2763 C2759 1.393 . S
C2763 C2762 1.391 . S
H2764 C2772 0.950 . S
H2765 C2777 0.950 . S
H2766 C2774 0.950 . S
H2767 C2776 0.950 . S
H2768 C2778 0.950 . S
H2769 C2780 0.950 . S
H2770 C2782 0.950 . S
H2771 C2783 0.950 . S
C2772 H2764 0.950 . S
C2772 C2773 1.386 . S
C2772 C2774 1.391 . S
C2773 C2772 1.386 . S
C2773 C2777 1.393 . S
C2774 H2766 0.950 . S
C2774 C2772 1.391 . S
C2774 C2775 1.400 . S
C2775 C2774 1.400 . S
C2775 C2776 1.398 . S
C2775 C2781 1.491 . S
C2776 H2767 0.950 . S
C2776 C2775 1.398 . S
C2776 C2777 1.391 . S
C2777 H2765 0.950 . S
C2777 C2773 1.393 . S
C2777 C2776 1.391 . S
C2778 H2768 0.950 . S
C2778 C2779 1.386 . S
C2778 C2780 1.391 . S
C2779 C2778 1.386 . S
C2779 C2783 1.393 . S
C2780 H2769 0.950 . S
C2780 C2778 1.391 . S
C2780 C2781 1.400 . S
C2781 C2775 1.491 . S
C2781 C2780 1.400 . S
C2781 C2782 1.398 . S
C2782 H2770 0.950 . S
C2782 C2781 1.398 . S
C2782 C2783 1.391 . S
C2783 H2771 0.950 . S
C2783 C2779 1.393 . S
C2783 C2782 1.391 . S
H2784 C2792 0.950 . S
H2785 C2797 0.950 . S
H2786 C2794 0.950 . S
H2787 C2796 0.950 . S
H2788 C2798 0.950 . S
H2789 C2800 0.950 . S
H2790 C2802 0.950 . S
H2791 C2803 0.950 . S
C2792 H2784 0.950 . S
C2792 C2793 1.386 . S
C2792 C2794 1.391 . S
C2793 C2792 1.386 . S
C2793 C2797 1.393 . S
C2794 H2786 0.950 . S
C2794 C2792 1.391 . S
C2794 C2795 1.400 . S
C2795 C2794 1.400 . S
C2795 C2796 1.398 . S
C2795 C2801 1.491 . S
C2796 H2787 0.950 . S
C2796 C2795 1.398 . S
C2796 C2797 1.391 . S
C2797 H2785 0.950 . S
C2797 C2793 1.393 . S
C2797 C2796 1.391 . S
C2798 H2788 0.950 . S
C2798 C2799 1.386 . S
C2798 C2800 1.391 . S
C2799 C2798 1.386 . S
C2799 C2803 1.393 . S
C2800 H2789 0.950 . S
C2800 C2798 1.391 . S
C2800 C2801 1.400 . S
C2801 C2795 1.491 . S
C2801 C2800 1.400 . S
C2801 C2802 1.398 . S
C2802 H2790 0.950 . S
C2802 C2801 1.398 . S
C2802 C2803 1.391 . S
C2803 H2791 0.950 . S
C2803 C2799 1.393 . S
C2803 C2802 1.391 . S
H2804 C2812 0.950 . S
H2805 C2817 0.950 . S
H2806 C2814 0.950 . S
H2807 C2816 0.950 . S
H2808 C2818 0.950 . S
H2809 C2820 0.950 . S
H2810 C2822 0.950 . S
H2811 C2823 0.950 . S
C2812 H2804 0.950 . S
C2812 C2813 1.386 . S
C2812 C2814 1.391 . S
C2813 C2812 1.386 . S
C2813 C2817 1.393 . S
C2814 H2806 0.950 . S
C2814 C2812 1.391 . S
C2814 C2815 1.400 . S
C2815 C2814 1.400 . S
C2815 C2816 1.398 . S
C2815 C2821 1.491 . S
C2816 H2807 0.950 . S
C2816 C2815 1.398 . S
C2816 C2817 1.391 . S
C2817 H2805 0.950 . S
C2817 C2813 1.393 . S
C2817 C2816 1.391 . S
C2818 H2808 0.950 . S
C2818 C2819 1.386 . S
C2818 C2820 1.391 . S
C2819 C2818 1.386 . S
C2819 C2823 1.393 . S
C2820 H2809 0.950 . S
C2820 C2818 1.391 . S
C2820 C2821 1.400 . S
C2821 C2815 1.491 . S
C2821 C2820 1.400 . S
C2821 C2822 1.398 . S
C2822 H2810 0.950 . S
C2822 C2821 1.398 . S
C2822 C2823 1.391 . S
C2823 H2811 0.950 . S
C2823 C2819 1.393 . S
C2823 C2822 1.391 . S
H2824 C2832 0.950 . S
H2825 C2837 0.950 . S
H2826 C2834 0.950 . S
H2827 C2836 0.950 . S
H2828 C2838 0.950 . S
H2829 C2840 0.950 . S
H2830 C2842 0.950 . S
H2831 C2843 0.950 . S
C2832 H2824 0.950 . S
C2832 C2833 1.386 . S
C2832 C2834 1.391 . S
C2833 C2832 1.386 . S
C2833 C2837 1.393 . S
C2834 H2826 0.950 . S
C2834 C2832 1.391 . S
C2834 C2835 1.400 . S
C2835 C2834 1.400 . S
C2835 C2836 1.398 . S
C2835 C2841 1.491 . S
C2836 H2827 0.950 . S
C2836 C2835 1.398 . S
C2836 C2837 1.391 . S
C2837 H2825 0.950 . S
C2837 C2833 1.393 . S
C2837 C2836 1.391 . S
C2838 H2828 0.950 . S
C2838 C2839 1.386 . S
C2838 C2840 1.391 . S
C2839 C2838 1.386 . S
C2839 C2843 1.393 . S
C2840 H2829 0.950 . S
C2840 C2838 1.391 . S
C2840 C2841 1.400 . S
C2841 C2835 1.491 . S
C2841 C2840 1.400 . S
C2841 C2842 1.398 . S
C2842 H2830 0.950 . S
C2842 C2841 1.398 . S
C2842 C2843 1.391 . S
C2843 H2831 0.950 . S
C2843 C2839 1.393 . S
C2843 C2842 1.391 . S
H2844 C2852 0.950 . S
H2845 C2857 0.950 . S
H2846 C2854 0.950 . S
H2847 C2856 0.950 . S
H2848 C2858 0.950 . S
H2849 C2860 0.950 . S
H2850 C2862 0.950 . S
H2851 C2863 0.950 . S
C2852 H2844 0.950 . S
C2852 C2853 1.386 . S
C2852 C2854 1.391 . S
C2853 C2852 1.386 . S
C2853 C2857 1.393 . S
C2854 H2846 0.950 . S
C2854 C2852 1.391 . S
C2854 C2855 1.400 . S
C2855 C2854 1.400 . S
C2855 C2856 1.398 . S
C2855 C2861 1.491 . S
C2856 H2847 0.950 . S
C2856 C2855 1.398 . S
C2856 C2857 1.391 . S
C2857 H2845 0.950 . S
C2857 C2853 1.393 . S
C2857 C2856 1.391 . S
C2858 H2848 0.950 . S
C2858 C2859 1.386 . S
C2858 C2860 1.391 . S
C2859 C2858 1.386 . S
C2859 C2863 1.393 . S
C2860 H2849 0.950 . S
C2860 C2858 1.391 . S
C2860 C2861 1.400 . S
C2861 C2855 1.491 . S
C2861 C2860 1.400 . S
C2861 C2862 1.398 . S
C2862 H2850 0.950 . S
C2862 C2861 1.398 . S
C2862 C2863 1.391 . S
C2863 H2851 0.950 . S
C2863 C2859 1.393 . S
C2863 C2862 1.391 . S
H2864 C2872 0.950 . S
H2865 C2877 0.950 . S
H2866 C2874 0.950 . S
H2867 C2876 0.950 . S
H2868 C2878 0.950 . S
H2869 C2880 0.950 . S
H2870 C2882 0.950 . S
H2871 C2883 0.950 . S
C2872 H2864 0.950 . S
C2872 C2873 1.386 . S
C2872 C2874 1.391 . S
C2873 C2872 1.386 . S
C2873 C2877 1.393 . S
C2874 H2866 0.950 . S
C2874 C2872 1.391 . S
C2874 C2875 1.400 . S
C2875 C2874 1.400 . S
C2875 C2876 1.398 . S
C2875 C2881 1.491 . S
C2876 H2867 0.950 . S
C2876 C2875 1.398 . S
C2876 C2877 1.391 . S
C2877 H2865 0.950 . S
C2877 C2873 1.393 . S
C2877 C2876 1.391 . S
C2878 H2868 0.950 . S
C2878 C2879 1.386 . S
C2878 C2880 1.391 . S
C2879 C2878 1.386 . S
C2879 C2883 1.393 . S
C2880 H2869 0.950 . S
C2880 C2878 1.391 . S
C2880 C2881 1.400 . S
C2881 C2875 1.491 . S
C2881 C2880 1.400 . S
C2881 C2882 1.398 . S
C2882 H2870 0.950 . S
C2882 C2881 1.398 . S
C2882 C2883 1.391 . S
C2883 H2871 0.950 . S
C2883 C2879 1.393 . S
C2883 C2882 1.391 . S
H2884 C2892 0.950 . S
H2885 C2897 0.950 . S
H2886 C2894 0.950 . S
H2887 C2896 0.950 . S
H2888 C2898 0.950 . S
H2889 C2900 0.950 . S
H2890 C2902 0.950 . S
H2891 C2903 0.950 . S
C2892 H2884 0.950 . S
C2892 C2893 1.386 . S
C2892 C2894 1.391 . S
C2893 C2892 1.386 . S
C2893 C2897 1.393 . S
C2894 H2886 0.950 . S
C2894 C2892 1.391 . S
C2894 C2895 1.400 . S
C2895 C2894 1.400 . S
C2895 C2896 1.398 . S
C2895 C2901 1.491 . S
C2896 H2887 0.950 . S
C2896 C2895 1.398 . S
C2896 C2897 1.391 . S
C2897 H2885 0.950 . S
C2897 C2893 1.393 . S
C2897 C2896 1.391 . S
C2898 H2888 0.950 . S
C2898 C2899 1.386 . S
C2898 C2900 1.391 . S
C2899 C2898 1.386 . S
C2899 C2903 1.393 . S
C2900 H2889 0.950 . S
C2900 C2898 1.391 . S
C2900 C2901 1.400 . S
C2901 C2895 1.491 . S
C2901 C2900 1.400 . S
C2901 C2902 1.398 . S
C2902 H2890 0.950 . S
C2902 C2901 1.398 . S
C2902 C2903 1.391 . S
C2903 H2891 0.950 . S
C2903 C2899 1.393 . S
C2903 C2902 1.391 . S
H2904 C2912 0.950 . S
H2905 C2917 0.950 . S
H2906 C2914 0.950 . S
H2907 C2916 0.950 . S
H2908 C2918 0.950 . S
H2909 C2920 0.950 . S
H2910 C2922 0.950 . S
H2911 C2923 0.950 . S
C2912 H2904 0.950 . S
C2912 C2913 1.386 . S
C2912 C2914 1.391 . S
C2913 C2912 1.386 . S
C2913 C2917 1.393 . S
C2914 H2906 0.950 . S
C2914 C2912 1.391 . S
C2914 C2915 1.400 . S
C2915 C2914 1.400 . S
C2915 C2916 1.398 . S
C2915 C2921 1.491 . S
C2916 H2907 0.950 . S
C2916 C2915 1.398 . S
C2916 C2917 1.391 . S
C2917 H2905 0.950 . S
C2917 C2913 1.393 . S
C2917 C2916 1.391 . S
C2918 H2908 0.950 . S
C2918 C2919 1.386 . S
C2918 C2920 1.391 . S
C2919 C2918 1.386 . S
C2919 C2923 1.393 . S
C2920 H2909 0.950 . S
C2920 C2918 1.391 . S
C2920 C2921 1.400 . S
C2921 C2915 1.491 . S
C2921 C2920 1.400 . S
C2921 C2922 1.398 . S
C2922 H2910 0.950 . S
C2922 C2921 1.398 . S
C2922 C2923 1.391 . S
C2923 H2911 0.950 . S
C2923 C2919 1.393 . S
C2923 C2922 1.391 . S
H2924 C2932 0.950 . S
H2925 C2937 0.950 . S
H2926 C2934 0.950 . S
H2927 C2936 0.950 . S
H2928 C2938 0.950 . S
H2929 C2940 0.950 . S
H2930 C2942 0.950 . S
H2931 C2943 0.950 . S
C2932 H2924 0.950 . S
C2932 C2933 1.386 . S
C2932 C2934 1.391 . S
C2933 C2932 1.386 . S
C2933 C2937 1.393 . S
C2934 H2926 0.950 . S
C2934 C2932 1.391 . S
C2934 C2935 1.400 . S
C2935 C2934 1.400 . S
C2935 C2936 1.398 . S
C2935 C2941 1.491 . S
C2936 H2927 0.950 . S
C2936 C2935 1.398 . S
C2936 C2937 1.391 . S
C2937 H2925 0.950 . S
C2937 C2933 1.393 . S
C2937 C2936 1.391 . S
C2938 H2928 0.950 . S
C2938 C2939 1.386 . S
C2938 C2940 1.391 . S
C2939 C2938 1.386 . S
C2939 C2943 1.393 . S
C2940 H2929 0.950 . S
C2940 C2938 1.391 . S
C2940 C2941 1.400 . S
C2941 C2935 1.491 . S
C2941 C2940 1.400 . S
C2941 C2942 1.398 . S
C2942 H2930 0.950 . S
C2942 C2941 1.398 . S
C2942 C2943 1.391 . S
C2943 H2931 0.950 . S
C2943 C2939 1.393 . S
C2943 C2942 1.391 . S
H2944 C2952 0.950 . S
H2945 C2957 0.950 . S
H2946 C2954 0.950 . S
H2947 C2956 0.950 . S
H2948 C2958 0.950 . S
H2949 C2960 0.950 . S
H2950 C2962 0.950 . S
H2951 C2963 0.950 . S
C2952 H2944 0.950 . S
C2952 C2953 1.386 . S
C2952 C2954 1.391 . S
C2953 C2952 1.386 . S
C2953 C2957 1.393 . S
C2954 H2946 0.950 . S
C2954 C2952 1.391 . S
C2954 C2955 1.400 . S
C2955 C2954 1.400 . S
C2955 C2956 1.398 . S
C2955 C2961 1.491 . S
C2956 H2947 0.950 . S
C2956 C2955 1.398 . S
C2956 C2957 1.391 . S
C2957 H2945 0.950 . S
C2957 C2953 1.393 . S
C2957 C2956 1.391 . S
C2958 H2948 0.950 . S
C2958 C2959 1.386 . S
C2958 C2960 1.391 . S
C2959 C2958 1.386 . S
C2959 C2963 1.393 . S
C2960 H2949 0.950 . S
C2960 C2958 1.391 . S
C2960 C2961 1.400 . S
C2961 C2955 1.491 . S
C2961 C2960 1.400 . S
C2961 C2962 1.398 . S
C2962 H2950 0.950 . S
C2962 C2961 1.398 . S
C2962 C2963 1.391 . S
C2963 H2951 0.950 . S
C2963 C2959 1.393 . S
C2963 C2962 1.391 . S
H2964 C2972 0.950 . S
H2965 C2977 0.950 . S
H2966 C2974 0.950 . S
H2967 C2976 0.950 . S
H2968 C2978 0.950 . S
H2969 C2980 0.950 . S
H2970 C2982 0.950 . S
H2971 C2983 0.950 . S
C2972 H2964 0.950 . S
C2972 C2973 1.386 . S
C2972 C2974 1.391 . S
C2973 C2972 1.386 . S
C2973 C2977 1.393 . S
C2974 H2966 0.950 . S
C2974 C2972 1.391 . S
C2974 C2975 1.400 . S
C2975 C2974 1.400 . S
C2975 C2976 1.398 . S
C2975 C2981 1.491 . S
C2976 H2967 0.950 . S
C2976 C2975 1.398 . S
C2976 C2977 1.391 . S
C2977 H2965 0.950 . S
C2977 C2973 1.393 . S
C2977 C2976 1.391 . S
C2978 H2968 0.950 . S
C2978 C2979 1.386 . S
C2978 C2980 1.391 . S
C2979 C2978 1.386 . S
C2979 C2983 1.393 . S
C2980 H2969 0.950 . S
C2980 C2978 1.391 . S
C2980 C2981 1.400 . S
C2981 C2975 1.491 . S
C2981 C2980 1.400 . S
C2981 C2982 1.398 . S
C2982 H2970 0.950 . S
C2982 C2981 1.398 . S
C2982 C2983 1.391 . S
C2983 H2971 0.950 . S
C2983 C2979 1.393 . S
C2983 C2982 1.391 . S
H2984 C2992 0.950 . S
H2985 C2997 0.950 . S
H2986 C2994 0.950 . S
H2987 C2996 0.950 . S
H2988 C2998 0.950 . S
H2989 C3000 0.950 . S
H2990 C3002 0.950 . S
H2991 C3003 0.950 . S
C2992 H2984 0.950 . S
C2992 C2993 1.386 . S
C2992 C2994 1.391 . S
C2993 C2992 1.386 . S
C2993 C2997 1.393 . S
C2994 H2986 0.950 . S
C2994 C2992 1.391 . S
C2994 C2995 1.400 . S
C2995 C2994 1.400 . S
C2995 C2996 1.398 . S
C2995 C3001 1.491 . S
C2996 H2987 0.950 . S
C2996 C2995 1.398 . S
C2996 C2997 1.391 . S
C2997 H2985 0.950 . S
C2997 C2993 1.393 . S
C2997 C2996 1.391 . S
C2998 H2988 0.950 . S
C2998 C2999 1.386 . S
C2998 C3000 1.391 . S
C2999 C2998 1.386 . S
C2999 C3003 1.393 . S
C3000 H2989 0.950 . S
C3000 C2998 1.391 . S
C3000 C3001 1.400 . S
C3001 C2995 1.491 . S
C3001 C3000 1.400 . S
C3001 C3002 1.398 . S
C3002 H2990 0.950 . S
C3002 C3001 1.398 . S
C3002 C3003 1.391 . S
C3003 H2991 0.950 . S
C3003 C2999 1.393 . S
C3003 C3002 1.391 . S
H3004 C3012 0.950 . S
H3005 C3017 0.950 . S
H3006 C3014 0.950 . S
H3007 C3016 0.950 . S
H3008 C3018 0.950 . S
H3009 C3020 0.950 . S
H3010 C3022 0.950 . S
H3011 C3023 0.950 . S
C3012 H3004 0.950 . S
C3012 C3013 1.386 . S
C3012 C3014 1.391 . S
C3013 C3012 1.386 . S
C3013 C3017 1.393 . S
C3014 H3006 0.950 . S
C3014 C3012 1.391 . S
C3014 C3015 1.400 . S
C3015 C3014 1.400 . S
C3015 C3016 1.398 . S
C3015 C3021 1.491 . S
C3016 H3007 0.950 . S
C3016 C3015 1.398 . S
C3016 C3017 1.391 . S
C3017 H3005 0.950 . S
C3017 C3013 1.393 . S
C3017 C3016 1.391 . S
C3018 H3008 0.950 . S
C3018 C3019 1.386 . S
C3018 C3020 1.391 . S
C3019 C3018 1.386 . S
C3019 C3023 1.393 . S
C3020 H3009 0.950 . S
C3020 C3018 1.391 . S
C3020 C3021 1.400 . S
C3021 C3015 1.491 . S
C3021 C3020 1.400 . S
C3021 C3022 1.398 . S
C3022 H3010 0.950 . S
C3022 C3021 1.398 . S
C3022 C3023 1.391 . S
C3023 H3011 0.950 . S
C3023 C3019 1.393 . S
C3023 C3022 1.391 . S
H3024 C3032 0.950 . S
H3025 C3037 0.950 . S
H3026 C3034 0.950 . S
H3027 C3036 0.950 . S
H3028 C3038 0.950 . S
H3029 C3040 0.950 . S
H3030 C3042 0.950 . S
H3031 C3043 0.950 . S
C3032 H3024 0.950 . S
C3032 C3033 1.386 . S
C3032 C3034 1.391 . S
C3033 C3032 1.386 . S
C3033 C3037 1.393 . S
C3034 H3026 0.950 . S
C3034 C3032 1.391 . S
C3034 C3035 1.400 . S
C3035 C3034 1.400 . S
C3035 C3036 1.398 . S
C3035 C3041 1.491 . S
C3036 H3027 0.950 . S
C3036 C3035 1.398 . S
C3036 C3037 1.391 . S
C3037 H3025 0.950 . S
C3037 C3033 1.393 . S
C3037 C3036 1.391 . S
C3038 H3028 0.950 . S
C3038 C3039 1.386 . S
C3038 C3040 1.391 . S
C3039 C3038 1.386 . S
C3039 C3043 1.393 . S
C3040 H3029 0.950 . S
C3040 C3038 1.391 . S
C3040 C3041 1.400 . S
C3041 C3035 1.491 . S
C3041 C3040 1.400 . S
C3041 C3042 1.398 . S
C3042 H3030 0.950 . S
C3042 C3041 1.398 . S
C3042 C3043 1.391 . S
C3043 H3031 0.950 . S
C3043 C3039 1.393 . S
C3043 C3042 1.391 . S
H3044 C3052 0.950 . S
H3045 C3057 0.950 . S
H3046 C3054 0.950 . S
H3047 C3056 0.950 . S
H3048 C3058 0.950 . S
H3049 C3060 0.950 . S
H3050 C3062 0.950 . S
H3051 C3063 0.950 . S
C3052 H3044 0.950 . S
C3052 C3053 1.386 . S
C3052 C3054 1.391 . S
C3053 C3052 1.386 . S
C3053 C3057 1.393 . S
C3054 H3046 0.950 . S
C3054 C3052 1.391 . S
C3054 C3055 1.400 . S
C3055 C3054 1.400 . S
C3055 C3056 1.398 . S
C3055 C3061 1.491 . S
C3056 H3047 0.950 . S
C3056 C3055 1.398 . S
C3056 C3057 1.391 . S
C3057 H3045 0.950 . S
C3057 C3053 1.393 . S
C3057 C3056 1.391 . S
C3058 H3048 0.950 . S
C3058 C3059 1.386 . S
C3058 C3060 1.391 . S
C3059 C3058 1.386 . S
C3059 C3063 1.393 . S
C3060 H3049 0.950 . S
C3060 C3058 1.391 . S
C3060 C3061 1.400 . S
C3061 C3055 1.491 . S
C3061 C3060 1.400 . S
C3061 C3062 1.398 . S
C3062 H3050 0.950 . S
C3062 C3061 1.398 . S
C3062 C3063 1.391 . S
C3063 H3051 0.950 . S
C3063 C3059 1.393 . S
C3063 C3062 1.391 . S
H3064 C3072 0.950 . S
H3065 C3077 0.950 . S
H3066 C3074 0.950 . S
H3067 C3076 0.950 . S
H3068 C3078 0.950 . S
H3069 C3080 0.950 . S
H3070 C3082 0.950 . S
H3071 C3083 0.950 . S
C3072 H3064 0.950 . S
C3072 C3073 1.386 . S
C3072 C3074 1.391 . S
C3073 C3072 1.386 . S
C3073 C3077 1.393 . S
C3074 H3066 0.950 . S
C3074 C3072 1.391 . S
C3074 C3075 1.400 . S
C3075 C3074 1.400 . S
C3075 C3076 1.398 . S
C3075 C3081 1.491 . S
C3076 H3067 0.950 . S
C3076 C3075 1.398 . S
C3076 C3077 1.391 . S
C3077 H3065 0.950 . S
C3077 C3073 1.393 . S
C3077 C3076 1.391 . S
C3078 H3068 0.950 . S
C3078 C3079 1.386 . S
C3078 C3080 1.391 . S
C3079 C3078 1.386 . S
C3079 C3083 1.393 . S
C3080 H3069 0.950 . S
C3080 C3078 1.391 . S
C3080 C3081 1.400 . S
C3081 C3075 1.491 . S
C3081 C3080 1.400 . S
C3081 C3082 1.398 . S
C3082 H3070 0.950 . S
C3082 C3081 1.398 . S
C3082 C3083 1.391 . S
C3083 H3071 0.950 . S
C3083 C3079 1.393 . S
C3083 C3082 1.391 . S
H3084 C3092 0.950 . S
H3085 C3097 0.950 . S
H3086 C3094 0.950 . S
H3087 C3096 0.950 . S
H3088 C3098 0.950 . S
H3089 C3100 0.950 . S
H3090 C3102 0.950 . S
H3091 C3103 0.950 . S
C3092 H3084 0.950 . S
C3092 C3093 1.386 . S
C3092 C3094 1.391 . S
C3093 C3092 1.386 . S
C3093 C3097 1.393 . S
C3094 H3086 0.950 . S
C3094 C3092 1.391 . S
C3094 C3095 1.400 . S
C3095 C3094 1.400 . S
C3095 C3096 1.398 . S
C3095 C3101 1.491 . S
C3096 H3087 0.950 . S
C3096 C3095 1.398 . S
C3096 C3097 1.391 . S
C3097 H3085 0.950 . S
C3097 C3093 1.393 . S
C3097 C3096 1.391 . S
C3098 H3088 0.950 . S
C3098 C3099 1.386 . S
C3098 C3100 1.391 . S
C3099 C3098 1.386 . S
C3099 C3103 1.393 . S
C3100 H3089 0.950 . S
C3100 C3098 1.391 . S
C3100 C3101 1.400 . S
C3101 C3095 1.491 . S
C3101 C3100 1.400 . S
C3101 C3102 1.398 . S
C3102 H3090 0.950 . S
C3102 C3101 1.398 . S
C3102 C3103 1.391 . S
C3103 H3091 0.950 . S
C3103 C3099 1.393 . S
C3103 C3102 1.391 . S
H3104 C3112 0.950 . S
H3105 C3117 0.950 . S
H3106 C3114 0.950 . S
H3107 C3116 0.950 . S
H3108 C3118 0.950 . S
H3109 C3120 0.950 . S
H3110 C3122 0.950 . S
H3111 C3123 0.950 . S
C3112 H3104 0.950 . S
C3112 C3113 1.386 . S
C3112 C3114 1.391 . S
C3113 C3112 1.386 . S
C3113 C3117 1.393 . S
C3114 H3106 0.950 . S
C3114 C3112 1.391 . S
C3114 C3115 1.400 . S
C3115 C3114 1.400 . S
C3115 C3116 1.398 . S
C3115 C3121 1.491 . S
C3116 H3107 0.950 . S
C3116 C3115 1.398 . S
C3116 C3117 1.391 . S
C3117 H3105 0.950 . S
C3117 C3113 1.393 . S
C3117 C3116 1.391 . S
C3118 H3108 0.950 . S
C3118 C3119 1.386 . S
C3118 C3120 1.391 . S
C3119 C3118 1.386 . S
C3119 C3123 1.393 . S
C3120 H3109 0.950 . S
C3120 C3118 1.391 . S
C3120 C3121 1.400 . S
C3121 C3115 1.491 . S
C3121 C3120 1.400 . S
C3121 C3122 1.398 . S
C3122 H3110 0.950 . S
C3122 C3121 1.398 . S
C3122 C3123 1.391 . S
C3123 H3111 0.950 . S
C3123 C3119 1.393 . S
C3123 C3122 1.391 . S
H3124 C3132 0.950 . S
H3125 C3137 0.950 . S
H3126 C3134 0.950 . S
H3127 C3136 0.950 . S
H3128 C3138 0.950 . S
H3129 C3140 0.950 . S
H3130 C3142 0.950 . S
H3131 C3143 0.950 . S
C3132 H3124 0.950 . S
C3132 C3133 1.386 . S
C3132 C3134 1.391 . S
C3133 C3132 1.386 . S
C3133 C3137 1.393 . S
C3134 H3126 0.950 . S
C3134 C3132 1.391 . S
C3134 C3135 1.400 . S
C3135 C3134 1.400 . S
C3135 C3136 1.398 . S
C3135 C3141 1.491 . S
C3136 H3127 0.950 . S
C3136 C3135 1.398 . S
C3136 C3137 1.391 . S
C3137 H3125 0.950 . S
C3137 C3133 1.393 . S
C3137 C3136 1.391 . S
C3138 H3128 0.950 . S
C3138 C3139 1.386 . S
C3138 C3140 1.391 . S
C3139 C3138 1.386 . S
C3139 C3143 1.393 . S
C3140 H3129 0.950 . S
C3140 C3138 1.391 . S
C3140 C3141 1.400 . S
C3141 C3135 1.491 . S
C3141 C3140 1.400 . S
C3141 C3142 1.398 . S
C3142 H3130 0.950 . S
C3142 C3141 1.398 . S
C3142 C3143 1.391 . S
C3143 H3131 0.950 . S
C3143 C3139 1.393 . S
C3143 C3142 1.391 . S
H3144 C3152 0.950 . S
H3145 C3157 0.950 . S
H3146 C3154 0.950 . S
H3147 C3156 0.950 . S
H3148 C3158 0.950 . S
H3149 C3160 0.950 . S
H3150 C3162 0.950 . S
H3151 C3163 0.950 . S
C3152 H3144 0.950 . S
C3152 C3153 1.386 . S
C3152 C3154 1.391 . S
C3153 C3152 1.386 . S
C3153 C3157 1.393 . S
C3154 H3146 0.950 . S
C3154 C3152 1.391 . S
C3154 C3155 1.400 . S
C3155 C3154 1.400 . S
C3155 C3156 1.398 . S
C3155 C3161 1.491 . S
C3156 H3147 0.950 . S
C3156 C3155 1.398 . S
C3156 C3157 1.391 . S
C3157 H3145 0.950 . S
C3157 C3153 1.393 . S
C3157 C3156 1.391 . S
C3158 H3148 0.950 . S
C3158 C3159 1.386 . S
C3158 C3160 1.391 . S
C3159 C3158 1.386 . S
C3159 C3163 1.393 . S
C3160 H3149 0.950 . S
C3160 C3158 1.391 . S
C3160 C3161 1.400 . S
C3161 C3155 1.491 . S
C3161 C3160 1.400 . S
C3161 C3162 1.398 . S
C3162 H3150 0.950 . S
C3162 C3161 1.398 . S
C3162 C3163 1.391 . S
C3163 H3151 0.950 . S
C3163 C3159 1.393 . S
C3163 C3162 1.391 . S
H3164 C3172 0.950 . S
H3165 C3177 0.950 . S
H3166 C3174 0.950 . S
H3167 C3176 0.950 . S
H3168 C3178 0.950 . S
H3169 C3180 0.950 . S
H3170 C3182 0.950 . S
H3171 C3183 0.950 . S
C3172 H3164 0.950 . S
C3172 C3173 1.386 . S
C3172 C3174 1.391 . S
C3173 C3172 1.386 . S
C3173 C3177 1.393 . S
C3174 H3166 0.950 . S
C3174 C3172 1.391 . S
C3174 C3175 1.400 . S
C3175 C3174 1.400 . S
C3175 C3176 1.398 . S
C3175 C3181 1.491 . S
C3176 H3167 0.950 . S
C3176 C3175 1.398 . S
C3176 C3177 1.391 . S
C3177 H3165 0.950 . S
C3177 C3173 1.393 . S
C3177 C3176 1.391 . S
C3178 H3168 0.950 . S
C3178 C3179 1.386 . S
C3178 C3180 1.391 . S
C3179 C3178 1.386 . S
C3179 C3183 1.393 . S
C3180 H3169 0.950 . S
C3180 C3178 1.391 . S
C3180 C3181 1.400 . S
C3181 C3175 1.491 . S
C3181 C3180 1.400 . S
C3181 C3182 1.398 . S
C3182 H3170 0.950 . S
C3182 C3181 1.398 . S
C3182 C3183 1.391 . S
C3183 H3171 0.950 . S
C3183 C3179 1.393 . S
C3183 C3182 1.391 . S
H3184 C3192 0.950 . S
H3185 C3197 0.950 . S
H3186 C3194 0.950 . S
H3187 C3196 0.950 . S
H3188 C3198 0.950 . S
H3189 C3200 0.950 . S
H3190 C3202 0.950 . S
H3191 C3203 0.950 . S
C3192 H3184 0.950 . S
C3192 C3193 1.386 . S
C3192 C3194 1.391 . S
C3193 C3192 1.386 . S
C3193 C3197 1.393 . S
C3194 H3186 0.950 . S
C3194 C3192 1.391 . S
C3194 C3195 1.400 . S
C3195 C3194 1.400 . S
C3195 C3196 1.398 . S
C3195 C3201 1.491 . S
C3196 H3187 0.950 . S
C3196 C3195 1.398 . S
C3196 C3197 1.391 . S
C3197 H3185 0.950 . S
C3197 C3193 1.393 . S
C3197 C3196 1.391 . S
C3198 H3188 0.950 . S
C3198 C3199 1.386 . S
C3198 C3200 1.391 . S
C3199 C3198 1.386 . S
C3199 C3203 1.393 . S
C3200 H3189 0.950 . S
C3200 C3198 1.391 . S
C3200 C3201 1.400 . S
C3201 C3195 1.491 . S
C3201 C3200 1.400 . S
C3201 C3202 1.398 . S
C3202 H3190 0.950 . S
C3202 C3201 1.398 . S
C3202 C3203 1.391 . S
C3203 H3191 0.950 . S
C3203 C3199 1.393 . S
C3203 C3202 1.391 . S
H3204 C3212 0.950 . S
H3205 C3217 0.950 . S
H3206 C3214 0.950 . S
H3207 C3216 0.950 . S
H3208 C3218 0.950 . S
H3209 C3220 0.950 . S
H3210 C3222 0.950 . S
H3211 C3223 0.950 . S
C3212 H3204 0.950 . S
C3212 C3213 1.386 . S
C3212 C3214 1.391 . S
C3213 C3212 1.386 . S
C3213 C3217 1.393 . S
C3214 H3206 0.950 . S
C3214 C3212 1.391 . S
C3214 C3215 1.400 . S
C3215 C3214 1.400 . S
C3215 C3216 1.398 . S
C3215 C3221 1.491 . S
C3216 H3207 0.950 . S
C3216 C3215 1.398 . S
C3216 C3217 1.391 . S
C3217 H3205 0.950 . S
C3217 C3213 1.393 . S
C3217 C3216 1.391 . S
C3218 H3208 0.950 . S
C3218 C3219 1.386 . S
C3218 C3220 1.391 . S
C3219 C3218 1.386 . S
C3219 C3223 1.393 . S
C3220 H3209 0.950 . S
C3220 C3218 1.391 . S
C3220 C3221 1.400 . S
C3221 C3215 1.491 . S
C3221 C3220 1.400 . S
C3221 C3222 1.398 . S
C3222 H3210 0.950 . S
C3222 C3221 1.398 . S
C3222 C3223 1.391 . S
C3223 H3211 0.950 . S
C3223 C3219 1.393 . S
C3223 C3222 1.391 . S
H3224 C3232 0.950 . S
H3225 C3237 0.950 . S
H3226 C3234 0.950 . S
H3227 C3236 0.950 . S
H3228 C3238 0.950 . S
H3229 C3240 0.950 . S
H3230 C3242 0.950 . S
H3231 C3243 0.950 . S
C3232 H3224 0.950 . S
C3232 C3233 1.386 . S
C3232 C3234 1.391 . S
C3233 C3232 1.386 . S
C3233 C3237 1.393 . S
C3234 H3226 0.950 . S
C3234 C3232 1.391 . S
C3234 C3235 1.400 . S
C3235 C3234 1.400 . S
C3235 C3236 1.398 . S
C3235 C3241 1.491 . S
C3236 H3227 0.950 . S
C3236 C3235 1.398 . S
C3236 C3237 1.391 . S
C3237 H3225 0.950 . S
C3237 C3233 1.393 . S
C3237 C3236 1.391 . S
C3238 H3228 0.950 . S
C3238 C3239 1.386 . S
C3238 C3240 1.391 . S
C3239 C3238 1.386 . S
C3239 C3243 1.393 . S
C3240 H3229 0.950 . S
C3240 C3238 1.391 . S
C3240 C3241 1.400 . S
C3241 C3235 1.491 . S
C3241 C3240 1.400 . S
C3241 C3242 1.398 . S
C3242 H3230 0.950 . S
C3242 C3241 1.398 . S
C3242 C3243 1.391 . S
C3243 H3231 0.950 . S
C3243 C3239 1.393 . S
C3243 C3242 1.391 . S
H3244 C3252 0.950 . S
H3245 C3257 0.950 . S
H3246 C3254 0.950 . S
H3247 C3256 0.950 . S
H3248 C3258 0.950 . S
H3249 C3260 0.950 . S
H3250 C3262 0.950 . S
H3251 C3263 0.950 . S
C3252 H3244 0.950 . S
C3252 C3253 1.386 . S
C3252 C3254 1.391 . S
C3253 C3252 1.386 . S
C3253 C3257 1.393 . S
C3254 H3246 0.950 . S
C3254 C3252 1.391 . S
C3254 C3255 1.400 . S
C3255 C3254 1.400 . S
C3255 C3256 1.398 . S
C3255 C3261 1.491 . S
C3256 H3247 0.950 . S
C3256 C3255 1.398 . S
C3256 C3257 1.391 . S
C3257 H3245 0.950 . S
C3257 C3253 1.393 . S
C3257 C3256 1.391 . S
C3258 H3248 0.950 . S
C3258 C3259 1.386 . S
C3258 C3260 1.391 . S
C3259 C3258 1.386 . S
C3259 C3263 1.393 . S
C3260 H3249 0.950 . S
C3260 C3258 1.391 . S
C3260 C3261 1.400 . S
C3261 C3255 1.491 . S
C3261 C3260 1.400 . S
C3261 C3262 1.398 . S
C3262 H3250 0.950 . S
C3262 C3261 1.398 . S
C3262 C3263 1.391 . S
C3263 H3251 0.950 . S
C3263 C3259 1.393 . S
C3263 C3262 1.391 . S
H3264 C3272 0.950 . S
H3265 C3277 0.950 . S
H3266 C3274 0.950 . S
H3267 C3276 0.950 . S
H3268 C3278 0.950 . S
H3269 C3280 0.950 . S
H3270 C3282 0.950 . S
H3271 C3283 0.950 . S
C3272 H3264 0.950 . S
C3272 C3273 1.386 . S
C3272 C3274 1.391 . S
C3273 C3272 1.386 . S
C3273 C3277 1.393 . S
C3274 H3266 0.950 . S
C3274 C3272 1.391 . S
C3274 C3275 1.400 . S
C3275 C3274 1.400 . S
C3275 C3276 1.398 . S
C3275 C3281 1.491 1_455 S
C3276 H3267 0.950 . S
C3276 C3275 1.398 . S
C3276 C3277 1.391 . S
C3277 H3265 0.950 . S
C3277 C3273 1.393 . S
C3277 C3276 1.391 . S
C3278 H3268 0.950 . S
C3278 C3279 1.386 . S
C3278 C3280 1.391 . S
C3279 C3278 1.386 . S
C3279 C3283 1.393 . S
C3280 H3269 0.950 . S
C3280 C3278 1.391 . S
C3280 C3281 1.400 . S
C3281 C3275 1.491 1_655 S
C3281 C3280 1.400 . S
C3281 C3282 1.398 . S
C3282 H3270 0.950 . S
C3282 C3281 1.398 . S
C3282 C3283 1.391 . S
C3283 H3271 0.950 . S
C3283 C3279 1.393 . S
C3283 C3282 1.391 . S
H3284 C3292 0.950 . S
H3285 C3297 0.950 . S
H3286 C3294 0.950 . S
H3287 C3296 0.950 . S
H3288 C3298 0.950 . S
H3289 C3300 0.950 . S
H3290 C3302 0.950 . S
H3291 C3303 0.950 . S
C3292 H3284 0.950 . S
C3292 C3293 1.386 . S
C3292 C3294 1.391 . S
C3293 C3292 1.386 . S
C3293 C3297 1.393 . S
C3294 H3286 0.950 . S
C3294 C3292 1.391 . S
C3294 C3295 1.400 . S
C3295 C3294 1.400 . S
C3295 C3296 1.398 . S
C3295 C3301 1.491 1_545 S
C3296 H3287 0.950 . S
C3296 C3295 1.398 . S
C3296 C3297 1.391 . S
C3297 H3285 0.950 . S
C3297 C3293 1.393 . S
C3297 C3296 1.391 . S
C3298 H3288 0.950 . S
C3298 C3299 1.386 . S
C3298 C3300 1.391 . S
C3299 C3298 1.386 . S
C3299 C3303 1.393 . S
C3300 H3289 0.950 . S
C3300 C3298 1.391 . S
C3300 C3301 1.400 . S
C3301 C3295 1.491 1_565 S
C3301 C3300 1.400 . S
C3301 C3302 1.398 . S
C3302 H3290 0.950 . S
C3302 C3301 1.398 . S
C3302 C3303 1.391 . S
C3303 H3291 0.950 . S
C3303 C3299 1.393 . S
C3303 C3302 1.391 . S
H3304 C3312 0.950 . S
H3305 C3317 0.950 . S
H3306 C3314 0.950 . S
H3307 C3316 0.950 . S
H3308 C3318 0.950 . S
H3309 C3320 0.950 . S
H3310 C3322 0.950 . S
H3311 C3323 0.950 . S
C3312 H3304 0.950 . S
C3312 C3313 1.386 . S
C3312 C3314 1.391 . S
C3313 C3312 1.386 . S
C3313 C3317 1.393 . S
C3314 H3306 0.950 . S
C3314 C3312 1.391 . S
C3314 C3315 1.400 . S
C3315 C3314 1.400 . S
C3315 C3316 1.398 . S
C3315 C3321 1.491 1_655 S
C3316 H3307 0.950 . S
C3316 C3315 1.398 . S
C3316 C3317 1.391 . S
C3317 H3305 0.950 . S
C3317 C3313 1.393 . S
C3317 C3316 1.391 . S
C3318 H3308 0.950 . S
C3318 C3319 1.386 . S
C3318 C3320 1.391 . S
C3319 C3318 1.386 . S
C3319 C3323 1.393 . S
C3320 H3309 0.950 . S
C3320 C3318 1.391 . S
C3320 C3321 1.400 . S
C3321 C3315 1.491 1_455 S
C3321 C3320 1.400 . S
C3321 C3322 1.398 . S
C3322 H3310 0.950 . S
C3322 C3321 1.398 . S
C3322 C3323 1.391 . S
C3323 H3311 0.950 . S
C3323 C3319 1.393 . S
C3323 C3322 1.391 . S
H3324 C3332 0.950 . S
H3325 C3337 0.950 . S
H3326 C3334 0.950 . S
H3327 C3336 0.950 . S
H3328 C3338 0.950 . S
H3329 C3340 0.950 . S
H3330 C3342 0.950 . S
H3331 C3343 0.950 . S
C3332 H3324 0.950 . S
C3332 C3333 1.386 . S
C3332 C3334 1.391 . S
C3333 C3332 1.386 . S
C3333 C3337 1.393 . S
C3334 H3326 0.950 . S
C3334 C3332 1.391 . S
C3334 C3335 1.400 . S
C3335 C3334 1.400 . S
C3335 C3336 1.398 . S
C3335 C3341 1.491 1_565 S
C3336 H3327 0.950 . S
C3336 C3335 1.398 . S
C3336 C3337 1.391 . S
C3337 H3325 0.950 . S
C3337 C3333 1.393 . S
C3337 C3336 1.391 . S
C3338 H3328 0.950 . S
C3338 C3339 1.386 . S
C3338 C3340 1.391 . S
C3339 C3338 1.386 . S
C3339 C3343 1.393 . S
C3340 H3329 0.950 . S
C3340 C3338 1.391 . S
C3340 C3341 1.400 . S
C3341 C3335 1.491 1_545 S
C3341 C3340 1.400 . S
C3341 C3342 1.398 . S
C3342 H3330 0.950 . S
C3342 C3341 1.398 . S
C3342 C3343 1.391 . S
C3343 H3331 0.950 . S
C3343 C3339 1.393 . S
C3343 C3342 1.391 . S
H3344 C3352 0.950 . S
H3345 C3357 0.950 . S
H3346 C3354 0.950 . S
H3347 C3356 0.950 . S
H3348 C3358 0.950 . S
H3349 C3360 0.950 . S
H3350 C3362 0.950 . S
H3351 C3363 0.950 . S
C3352 H3344 0.950 . S
C3352 C3353 1.386 . S
C3352 C3354 1.391 . S
C3353 C3352 1.386 . S
C3353 C3357 1.393 . S
C3354 H3346 0.950 . S
C3354 C3352 1.391 . S
C3354 C3355 1.400 . S
C3355 C3354 1.400 . S
C3355 C3356 1.398 . S
C3355 C3361 1.491 1_655 S
C3356 H3347 0.950 . S
C3356 C3355 1.398 . S
C3356 C3357 1.391 . S
C3357 H3345 0.950 . S
C3357 C3353 1.393 . S
C3357 C3356 1.391 . S
C3358 H3348 0.950 . S
C3358 C3359 1.386 . S
C3358 C3360 1.391 . S
C3359 C3358 1.386 . S
C3359 C3363 1.393 . S
C3360 H3349 0.950 . S
C3360 C3358 1.391 . S
C3360 C3361 1.400 . S
C3361 C3355 1.491 1_455 S
C3361 C3360 1.400 . S
C3361 C3362 1.398 . S
C3362 H3350 0.950 . S
C3362 C3361 1.398 . S
C3362 C3363 1.391 . S
C3363 H3351 0.950 . S
C3363 C3359 1.393 . S
C3363 C3362 1.391 . S
H3364 C3372 0.950 . S
H3365 C3377 0.950 . S
H3366 C3374 0.950 . S
H3367 C3376 0.950 . S
H3368 C3378 0.950 . S
H3369 C3380 0.950 . S
H3370 C3382 0.950 . S
H3371 C3383 0.950 . S
C3372 H3364 0.950 . S
C3372 C3373 1.386 . S
C3372 C3374 1.391 . S
C3373 C3372 1.386 . S
C3373 C3377 1.393 . S
C3374 H3366 0.950 . S
C3374 C3372 1.391 . S
C3374 C3375 1.400 . S
C3375 C3374 1.400 . S
C3375 C3376 1.398 . S
C3375 C3381 1.491 1_545 S
C3376 H3367 0.950 . S
C3376 C3375 1.398 . S
C3376 C3377 1.391 . S
C3377 H3365 0.950 . S
C3377 C3373 1.393 . S
C3377 C3376 1.391 . S
C3378 H3368 0.950 . S
C3378 C3379 1.386 . S
C3378 C3380 1.391 . S
C3379 C3378 1.386 . S
C3379 C3383 1.393 . S
C3380 H3369 0.950 . S
C3380 C3378 1.391 . S
C3380 C3381 1.400 . S
C3381 C3375 1.491 1_565 S
C3381 C3380 1.400 . S
C3381 C3382 1.398 . S
C3382 H3370 0.950 . S
C3382 C3381 1.398 . S
C3382 C3383 1.391 . S
C3383 H3371 0.950 . S
C3383 C3379 1.393 . S
C3383 C3382 1.391 . S
H3384 C3392 0.950 . S
H3385 C3397 0.950 . S
H3386 C3394 0.950 . S
H3387 C3396 0.950 . S
H3388 C3398 0.950 . S
H3389 C3400 0.950 . S
H3390 C3402 0.950 . S
H3391 C3403 0.950 . S
C3392 H3384 0.950 . S
C3392 C3393 1.386 . S
C3392 C3394 1.391 . S
C3393 C3392 1.386 . S
C3393 C3397 1.393 . S
C3394 H3386 0.950 . S
C3394 C3392 1.391 . S
C3394 C3395 1.400 . S
C3395 C3394 1.400 . S
C3395 C3396 1.398 . S
C3395 C3401 1.491 1_455 S
C3396 H3387 0.950 . S
C3396 C3395 1.398 . S
C3396 C3397 1.391 . S
C3397 H3385 0.950 . S
C3397 C3393 1.393 . S
C3397 C3396 1.391 . S
C3398 H3388 0.950 . S
C3398 C3399 1.386 . S
C3398 C3400 1.391 . S
C3399 C3398 1.386 . S
C3399 C3403 1.393 . S
C3400 H3389 0.950 . S
C3400 C3398 1.391 . S
C3400 C3401 1.400 . S
C3401 C3395 1.491 1_655 S
C3401 C3400 1.400 . S
C3401 C3402 1.398 . S
C3402 H3390 0.950 . S
C3402 C3401 1.398 . S
C3402 C3403 1.391 . S
C3403 H3391 0.950 . S
C3403 C3399 1.393 . S
C3403 C3402 1.391 . S
H3404 C3412 0.950 . S
H3405 C3417 0.950 . S
H3406 C3414 0.950 . S
H3407 C3416 0.950 . S
H3408 C3418 0.950 . S
H3409 C3420 0.950 . S
H3410 C3422 0.950 . S
H3411 C3423 0.950 . S
C3412 H3404 0.950 . S
C3412 C3413 1.386 . S
C3412 C3414 1.391 . S
C3413 C3412 1.386 . S
C3413 C3417 1.393 . S
C3414 H3406 0.950 . S
C3414 C3412 1.391 . S
C3414 C3415 1.400 . S
C3415 C3414 1.400 . S
C3415 C3416 1.398 . S
C3415 C3421 1.491 1_545 S
C3416 H3407 0.950 . S
C3416 C3415 1.398 . S
C3416 C3417 1.391 . S
C3417 H3405 0.950 . S
C3417 C3413 1.393 . S
C3417 C3416 1.391 . S
C3418 H3408 0.950 . S
C3418 C3419 1.386 . S
C3418 C3420 1.391 . S
C3419 C3418 1.386 . S
C3419 C3423 1.393 . S
C3420 H3409 0.950 . S
C3420 C3418 1.391 . S
C3420 C3421 1.400 . S
C3421 C3415 1.491 1_565 S
C3421 C3420 1.400 . S
C3421 C3422 1.398 . S
C3422 H3410 0.950 . S
C3422 C3421 1.398 . S
C3422 C3423 1.391 . S
C3423 H3411 0.950 . S
C3423 C3419 1.393 . S
C3423 C3422 1.391 . S
H3424 C3432 0.950 . S
H3425 C3437 0.950 . S
H3426 C3434 0.950 . S
H3427 C3436 0.950 . S
H3428 C3438 0.950 . S
H3429 C3440 0.950 . S
H3430 C3442 0.950 . S
H3431 C3443 0.950 . S
C3432 H3424 0.950 . S
C3432 C3433 1.386 . S
C3432 C3434 1.391 . S
C3433 C3432 1.386 . S
C3433 C3437 1.393 . S
C3434 H3426 0.950 . S
C3434 C3432 1.391 . S
C3434 C3435 1.400 . S
C3435 C3434 1.400 . S
C3435 C3436 1.398 . S
C3435 C3441 1.491 1_545 S
C3436 H3427 0.950 . S
C3436 C3435 1.398 . S
C3436 C3437 1.391 . S
C3437 H3425 0.950 . S
C3437 C3433 1.393 . S
C3437 C3436 1.391 . S
C3438 H3428 0.950 . S
C3438 C3439 1.386 . S
C3438 C3440 1.391 . S
C3439 C3438 1.386 . S
C3439 C3443 1.393 . S
C3440 H3429 0.950 . S
C3440 C3438 1.391 . S
C3440 C3441 1.400 . S
C3441 C3435 1.491 1_565 S
C3441 C3440 1.400 . S
C3441 C3442 1.398 . S
C3442 H3430 0.950 . S
C3442 C3441 1.398 . S
C3442 C3443 1.391 . S
C3443 H3431 0.950 . S
C3443 C3439 1.393 . S
C3443 C3442 1.391 . S
H3444 C3452 0.950 . S
H3445 C3457 0.950 . S
H3446 C3454 0.950 . S
H3447 C3456 0.950 . S
H3448 C3458 0.950 . S
H3449 C3460 0.950 . S
H3450 C3462 0.950 . S
H3451 C3463 0.950 . S
C3452 H3444 0.950 . S
C3452 C3453 1.386 . S
C3452 C3454 1.391 . S
C3453 C3452 1.386 . S
C3453 C3457 1.393 . S
C3454 H3446 0.950 . S
C3454 C3452 1.391 . S
C3454 C3455 1.400 . S
C3455 C3454 1.400 . S
C3455 C3456 1.398 . S
C3455 C3461 1.491 1_455 S
C3456 H3447 0.950 . S
C3456 C3455 1.398 . S
C3456 C3457 1.391 . S
C3457 H3445 0.950 . S
C3457 C3453 1.393 . S
C3457 C3456 1.391 . S
C3458 H3448 0.950 . S
C3458 C3459 1.386 . S
C3458 C3460 1.391 . S
C3459 C3458 1.386 . S
C3459 C3463 1.393 . S
C3460 H3449 0.950 . S
C3460 C3458 1.391 . S
C3460 C3461 1.400 . S
C3461 C3455 1.491 1_655 S
C3461 C3460 1.400 . S
C3461 C3462 1.398 . S
C3462 H3450 0.950 . S
C3462 C3461 1.398 . S
C3462 C3463 1.391 . S
C3463 H3451 0.950 . S
C3463 C3459 1.393 . S
C3463 C3462 1.391 . S
H3464 C3472 0.950 . S
H3465 C3477 0.950 . S
H3466 C3474 0.950 . S
H3467 C3476 0.950 . S
H3468 C3478 0.950 . S
H3469 C3480 0.950 . S
H3470 C3482 0.950 . S
H3471 C3483 0.950 . S
C3472 H3464 0.950 . S
C3472 C3473 1.386 . S
C3472 C3474 1.391 . S
C3473 C3472 1.386 . S
C3473 C3477 1.393 . S
C3474 H3466 0.950 . S
C3474 C3472 1.391 . S
C3474 C3475 1.400 . S
C3475 C3474 1.400 . S
C3475 C3476 1.398 . S
C3475 C3481 1.491 1_565 S
C3476 H3467 0.950 . S
C3476 C3475 1.398 . S
C3476 C3477 1.391 . S
C3477 H3465 0.950 . S
C3477 C3473 1.393 . S
C3477 C3476 1.391 . S
C3478 H3468 0.950 . S
C3478 C3479 1.386 . S
C3478 C3480 1.391 . S
C3479 C3478 1.386 . S
C3479 C3483 1.393 . S
C3480 H3469 0.950 . S
C3480 C3478 1.391 . S
C3480 C3481 1.400 . S
C3481 C3475 1.491 1_545 S
C3481 C3480 1.400 . S
C3481 C3482 1.398 . S
C3482 H3470 0.950 . S
C3482 C3481 1.398 . S
C3482 C3483 1.391 . S
C3483 H3471 0.950 . S
C3483 C3479 1.393 . S
C3483 C3482 1.391 . S
H3484 C3492 0.950 . S
H3485 C3497 0.950 . S
H3486 C3494 0.950 . S
H3487 C3496 0.950 . S
H3488 C3498 0.950 . S
H3489 C3500 0.950 . S
H3490 C3502 0.950 . S
H3491 C3503 0.950 . S
C3492 H3484 0.950 . S
C3492 C3493 1.386 . S
C3492 C3494 1.391 . S
C3493 C3492 1.386 . S
C3493 C3497 1.393 . S
C3494 H3486 0.950 . S
C3494 C3492 1.391 . S
C3494 C3495 1.400 . S
C3495 C3494 1.400 . S
C3495 C3496 1.398 . S
C3495 C3501 1.491 1_455 S
C3496 H3487 0.950 . S
C3496 C3495 1.398 . S
C3496 C3497 1.391 . S
C3497 H3485 0.950 . S
C3497 C3493 1.393 . S
C3497 C3496 1.391 . S
C3498 H3488 0.950 . S
C3498 C3499 1.386 . S
C3498 C3500 1.391 . S
C3499 C3498 1.386 . S
C3499 C3503 1.393 . S
C3500 H3489 0.950 . S
C3500 C3498 1.391 . S
C3500 C3501 1.400 . S
C3501 C3495 1.491 1_655 S
C3501 C3500 1.400 . S
C3501 C3502 1.398 . S
C3502 H3490 0.950 . S
C3502 C3501 1.398 . S
C3502 C3503 1.391 . S
C3503 H3491 0.950 . S
C3503 C3499 1.393 . S
C3503 C3502 1.391 . S
H3504 C3512 0.950 . S
H3505 C3517 0.950 . S
H3506 C3514 0.950 . S
H3507 C3516 0.950 . S
H3508 C3518 0.950 . S
H3509 C3520 0.950 . S
H3510 C3522 0.950 . S
H3511 C3523 0.950 . S
C3512 H3504 0.950 . S
C3512 C3513 1.386 . S
C3512 C3514 1.391 . S
C3513 C3512 1.386 . S
C3513 C3517 1.393 . S
C3514 H3506 0.950 . S
C3514 C3512 1.391 . S
C3514 C3515 1.400 . S
C3515 C3514 1.400 . S
C3515 C3516 1.398 . S
C3515 C3521 1.491 1_565 S
C3516 H3507 0.950 . S
C3516 C3515 1.398 . S
C3516 C3517 1.391 . S
C3517 H3505 0.950 . S
C3517 C3513 1.393 . S
C3517 C3516 1.391 . S
C3518 H3508 0.950 . S
C3518 C3519 1.386 . S
C3518 C3520 1.391 . S
C3519 C3518 1.386 . S
C3519 C3523 1.393 . S
C3520 H3509 0.950 . S
C3520 C3518 1.391 . S
C3520 C3521 1.400 . S
C3521 C3515 1.491 1_545 S
C3521 C3520 1.400 . S
C3521 C3522 1.398 . S
C3522 H3510 0.950 . S
C3522 C3521 1.398 . S
C3522 C3523 1.391 . S
C3523 H3511 0.950 . S
C3523 C3519 1.393 . S
C3523 C3522 1.391 . S
H3524 C3532 0.950 . S
H3525 C3537 0.950 . S
H3526 C3534 0.950 . S
H3527 C3536 0.950 . S
H3528 C3538 0.950 . S
H3529 C3540 0.950 . S
H3530 C3542 0.950 . S
H3531 C3543 0.950 . S
C3532 H3524 0.950 . S
C3532 C3533 1.386 . S
C3532 C3534 1.391 . S
C3533 C3532 1.386 . S
C3533 C3537 1.393 . S
C3534 H3526 0.950 . S
C3534 C3532 1.391 . S
C3534 C3535 1.400 . S
C3535 C3534 1.400 . S
C3535 C3536 1.398 . S
C3535 C3541 1.491 1_455 S
C3536 H3527 0.950 . S
C3536 C3535 1.398 . S
C3536 C3537 1.391 . S
C3537 H3525 0.950 . S
C3537 C3533 1.393 . S
C3537 C3536 1.391 . S
C3538 H3528 0.950 . S
C3538 C3539 1.386 . S
C3538 C3540 1.391 . S
C3539 C3538 1.386 . S
C3539 C3543 1.393 . S
C3540 H3529 0.950 . S
C3540 C3538 1.391 . S
C3540 C3541 1.400 . S
C3541 C3535 1.491 1_655 S
C3541 C3540 1.400 . S
C3541 C3542 1.398 . S
C3542 H3530 0.950 . S
C3542 C3541 1.398 . S
C3542 C3543 1.391 . S
C3543 H3531 0.950 . S
C3543 C3539 1.393 . S
C3543 C3542 1.391 . S
H3544 C3552 0.950 . S
H3545 C3557 0.950 . S
H3546 C3554 0.950 . S
H3547 C3556 0.950 . S
H3548 C3558 0.950 . S
H3549 C3560 0.950 . S
H3550 C3562 0.950 . S
H3551 C3563 0.950 . S
C3552 H3544 0.950 . S
C3552 C3553 1.386 . S
C3552 C3554 1.391 . S
C3553 C3552 1.386 . S
C3553 C3557 1.393 . S
C3554 H3546 0.950 . S
C3554 C3552 1.391 . S
C3554 C3555 1.400 . S
C3555 C3554 1.400 . S
C3555 C3556 1.398 . S
C3555 C3561 1.491 1_545 S
C3556 H3547 0.950 . S
C3556 C3555 1.398 . S
C3556 C3557 1.391 . S
C3557 H3545 0.950 . S
C3557 C3553 1.393 . S
C3557 C3556 1.391 . S
C3558 H3548 0.950 . S
C3558 C3559 1.386 . S
C3558 C3560 1.391 . S
C3559 C3558 1.386 . S
C3559 C3563 1.393 . S
C3560 H3549 0.950 . S
C3560 C3558 1.391 . S
C3560 C3561 1.400 . S
C3561 C3555 1.491 1_565 S
C3561 C3560 1.400 . S
C3561 C3562 1.398 . S
C3562 H3550 0.950 . S
C3562 C3561 1.398 . S
C3562 C3563 1.391 . S
C3563 H3551 0.950 . S
C3563 C3559 1.393 . S
C3563 C3562 1.391 . S
H3564 C3572 0.950 . S
H3565 C3577 0.950 . S
H3566 C3574 0.950 . S
H3567 C3576 0.950 . S
H3568 C3578 0.950 . S
H3569 C3580 0.950 . S
H3570 C3582 0.950 . S
H3571 C3583 0.950 . S
C3572 H3564 0.950 . S
C3572 C3573 1.386 . S
C3572 C3574 1.391 . S
C3573 C3572 1.386 . S
C3573 C3577 1.393 . S
C3574 H3566 0.950 . S
C3574 C3572 1.391 . S
C3574 C3575 1.400 . S
C3575 C3574 1.400 . S
C3575 C3576 1.398 . S
C3575 C3581 1.491 1_455 S
C3576 H3567 0.950 . S
C3576 C3575 1.398 . S
C3576 C3577 1.391 . S
C3577 H3565 0.950 . S
C3577 C3573 1.393 . S
C3577 C3576 1.391 . S
C3578 H3568 0.950 . S
C3578 C3579 1.386 . S
C3578 C3580 1.391 . S
C3579 C3578 1.386 . S
C3579 C3583 1.393 . S
C3580 H3569 0.950 . S
C3580 C3578 1.391 . S
C3580 C3581 1.400 . S
C3581 C3575 1.491 1_655 S
C3581 C3580 1.400 . S
C3581 C3582 1.398 . S
C3582 H3570 0.950 . S
C3582 C3581 1.398 . S
C3582 C3583 1.391 . S
C3583 H3571 0.950 . S
C3583 C3579 1.393 . S
C3583 C3582 1.391 . S
H3584 C3592 0.950 . S
H3585 C3597 0.950 . S
H3586 C3594 0.950 . S
H3587 C3596 0.950 . S
H3588 C3598 0.950 . S
H3589 C3600 0.950 . S
H3590 C3602 0.950 . S
H3591 C3603 0.950 . S
C3592 H3584 0.950 . S
C3592 C3593 1.386 . S
C3592 C3594 1.391 . S
C3593 C3592 1.386 . S
C3593 C3597 1.393 . S
C3594 H3586 0.950 . S
C3594 C3592 1.391 . S
C3594 C3595 1.400 . S
C3595 C3594 1.400 . S
C3595 C3596 1.398 . S
C3595 C3601 1.491 1_554 S
C3596 H3587 0.950 . S
C3596 C3595 1.398 . S
C3596 C3597 1.391 . S
C3597 H3585 0.950 . S
C3597 C3593 1.393 . S
C3597 C3596 1.391 . S
C3598 H3588 0.950 . S
C3598 C3599 1.386 . S
C3598 C3600 1.391 . S
C3599 C3598 1.386 . S
C3599 C3603 1.393 . S
C3600 H3589 0.950 . S
C3600 C3598 1.391 . S
C3600 C3601 1.400 . S
C3601 C3595 1.491 1_556 S
C3601 C3600 1.400 . S
C3601 C3602 1.398 . S
C3602 H3590 0.950 . S
C3602 C3601 1.398 . S
C3602 C3603 1.391 . S
C3603 H3591 0.950 . S
C3603 C3599 1.393 . S
C3603 C3602 1.391 . S
H3604 C3612 0.950 . S
H3605 C3617 0.950 . S
H3606 C3614 0.950 . S
H3607 C3616 0.950 . S
H3608 C3618 0.950 . S
H3609 C3620 0.950 . S
H3610 C3622 0.950 . S
H3611 C3623 0.950 . S
C3612 H3604 0.950 . S
C3612 C3613 1.386 . S
C3612 C3614 1.391 . S
C3613 C3612 1.386 . S
C3613 C3617 1.393 . S
C3614 H3606 0.950 . S
C3614 C3612 1.391 . S
C3614 C3615 1.400 . S
C3615 C3614 1.400 . S
C3615 C3616 1.398 . S
C3615 C3621 1.491 1_556 S
C3616 H3607 0.950 . S
C3616 C3615 1.398 . S
C3616 C3617 1.391 . S
C3617 H3605 0.950 . S
C3617 C3613 1.393 . S
C3617 C3616 1.391 . S
C3618 H3608 0.950 . S
C3618 C3619 1.386 . S
C3618 C3620 1.391 . S
C3619 C3618 1.386 . S
C3619 C3623 1.393 . S
C3620 H3609 0.950 . S
C3620 C3618 1.391 . S
C3620 C3621 1.400 . S
C3621 C3615 1.491 1_554 S
C3621 C3620 1.400 . S
C3621 C3622 1.398 . S
C3622 H3610 0.950 . S
C3622 C3621 1.398 . S
C3622 C3623 1.391 . S
C3623 H3611 0.950 . S
C3623 C3619 1.393 . S
C3623 C3622 1.391 . S
H3624 C3632 0.950 . S
H3625 C3637 0.950 . S
H3626 C3634 0.950 . S
H3627 C3636 0.950 . S
H3628 C3638 0.950 . S
H3629 C3640 0.950 . S
H3630 C3642 0.950 . S
H3631 C3643 0.950 . S
C3632 H3624 0.950 . S
C3632 C3633 1.386 . S
C3632 C3634 1.391 . S
C3633 C3632 1.386 . S
C3633 C3637 1.393 . S
C3634 H3626 0.950 . S
C3634 C3632 1.391 . S
C3634 C3635 1.400 . S
C3635 C3634 1.400 . S
C3635 C3636 1.398 . S
C3635 C3641 1.491 1_554 S
C3636 H3627 0.950 . S
C3636 C3635 1.398 . S
C3636 C3637 1.391 . S
C3637 H3625 0.950 . S
C3637 C3633 1.393 . S
C3637 C3636 1.391 . S
C3638 H3628 0.950 . S
C3638 C3639 1.386 . S
C3638 C3640 1.391 . S
C3639 C3638 1.386 . S
C3639 C3643 1.393 . S
C3640 H3629 0.950 . S
C3640 C3638 1.391 . S
C3640 C3641 1.400 . S
C3641 C3635 1.491 1_556 S
C3641 C3640 1.400 . S
C3641 C3642 1.398 . S
C3642 H3630 0.950 . S
C3642 C3641 1.398 . S
C3642 C3643 1.391 . S
C3643 H3631 0.950 . S
C3643 C3639 1.393 . S
C3643 C3642 1.391 . S
H3644 C3652 0.950 . S
H3645 C3657 0.950 . S
H3646 C3654 0.950 . S
H3647 C3656 0.950 . S
H3648 C3658 0.950 . S
H3649 C3660 0.950 . S
H3650 C3662 0.950 . S
H3651 C3663 0.950 . S
C3652 H3644 0.950 . S
C3652 C3653 1.386 . S
C3652 C3654 1.391 . S
C3653 C3652 1.386 . S
C3653 C3657 1.393 . S
C3654 H3646 0.950 . S
C3654 C3652 1.391 . S
C3654 C3655 1.400 . S
C3655 C3654 1.400 . S
C3655 C3656 1.398 . S
C3655 C3661 1.491 1_556 S
C3656 H3647 0.950 . S
C3656 C3655 1.398 . S
C3656 C3657 1.391 . S
C3657 H3645 0.950 . S
C3657 C3653 1.393 . S
C3657 C3656 1.391 . S
C3658 H3648 0.950 . S
C3658 C3659 1.386 . S
C3658 C3660 1.391 . S
C3659 C3658 1.386 . S
C3659 C3663 1.393 . S
C3660 H3649 0.950 . S
C3660 C3658 1.391 . S
C3660 C3661 1.400 . S
C3661 C3655 1.491 1_554 S
C3661 C3660 1.400 . S
C3661 C3662 1.398 . S
C3662 H3650 0.950 . S
C3662 C3661 1.398 . S
C3662 C3663 1.391 . S
C3663 H3651 0.950 . S
C3663 C3659 1.393 . S
C3663 C3662 1.391 . S
H3664 C3672 0.950 . S
H3665 C3677 0.950 . S
H3666 C3674 0.950 . S
H3667 C3676 0.950 . S
H3668 C3678 0.950 . S
H3669 C3680 0.950 . S
H3670 C3682 0.950 . S
H3671 C3683 0.950 . S
C3672 H3664 0.950 . S
C3672 C3673 1.386 . S
C3672 C3674 1.391 . S
C3673 C3672 1.386 . S
C3673 C3677 1.393 . S
C3674 H3666 0.950 . S
C3674 C3672 1.391 . S
C3674 C3675 1.400 . S
C3675 C3674 1.400 . S
C3675 C3676 1.398 . S
C3675 C3681 1.491 1_554 S
C3676 H3667 0.950 . S
C3676 C3675 1.398 . S
C3676 C3677 1.391 . S
C3677 H3665 0.950 . S
C3677 C3673 1.393 . S
C3677 C3676 1.391 . S
C3678 H3668 0.950 . S
C3678 C3679 1.386 . S
C3678 C3680 1.391 . S
C3679 C3678 1.386 . S
C3679 C3683 1.393 . S
C3680 H3669 0.950 . S
C3680 C3678 1.391 . S
C3680 C3681 1.400 . S
C3681 C3675 1.491 1_556 S
C3681 C3680 1.400 . S
C3681 C3682 1.398 . S
C3682 H3670 0.950 . S
C3682 C3681 1.398 . S
C3682 C3683 1.391 . S
C3683 H3671 0.950 . S
C3683 C3679 1.393 . S
C3683 C3682 1.391 . S
H3684 C3692 0.950 . S
H3685 C3697 0.950 . S
H3686 C3694 0.950 . S
H3687 C3696 0.950 . S
H3688 C3698 0.950 . S
H3689 C3700 0.950 . S
H3690 C3702 0.950 . S
H3691 C3703 0.950 . S
C3692 H3684 0.950 . S
C3692 C3693 1.386 . S
C3692 C3694 1.391 . S
C3693 C3692 1.386 . S
C3693 C3697 1.393 . S
C3694 H3686 0.950 . S
C3694 C3692 1.391 . S
C3694 C3695 1.400 . S
C3695 C3694 1.400 . S
C3695 C3696 1.398 . S
C3695 C3701 1.491 1_554 S
C3696 H3687 0.950 . S
C3696 C3695 1.398 . S
C3696 C3697 1.391 . S
C3697 H3685 0.950 . S
C3697 C3693 1.393 . S
C3697 C3696 1.391 . S
C3698 H3688 0.950 . S
C3698 C3699 1.386 . S
C3698 C3700 1.391 . S
C3699 C3698 1.386 . S
C3699 C3703 1.393 . S
C3700 H3689 0.950 . S
C3700 C3698 1.391 . S
C3700 C3701 1.400 . S
C3701 C3695 1.491 1_556 S
C3701 C3700 1.400 . S
C3701 C3702 1.398 . S
C3702 H3690 0.950 . S
C3702 C3701 1.398 . S
C3702 C3703 1.391 . S
C3703 H3691 0.950 . S
C3703 C3699 1.393 . S
C3703 C3702 1.391 . S
H3704 C3712 0.950 . S
H3705 C3717 0.950 . S
H3706 C3714 0.950 . S
H3707 C3716 0.950 . S
H3708 C3718 0.950 . S
H3709 C3720 0.950 . S
H3710 C3722 0.950 . S
H3711 C3723 0.950 . S
C3712 H3704 0.950 . S
C3712 C3713 1.386 . S
C3712 C3714 1.391 . S
C3713 C3712 1.386 . S
C3713 C3717 1.393 . S
C3714 H3706 0.950 . S
C3714 C3712 1.391 . S
C3714 C3715 1.400 . S
C3715 C3714 1.400 . S
C3715 C3716 1.398 . S
C3715 C3721 1.491 1_556 S
C3716 H3707 0.950 . S
C3716 C3715 1.398 . S
C3716 C3717 1.391 . S
C3717 H3705 0.950 . S
C3717 C3713 1.393 . S
C3717 C3716 1.391 . S
C3718 H3708 0.950 . S
C3718 C3719 1.386 . S
C3718 C3720 1.391 . S
C3719 C3718 1.386 . S
C3719 C3723 1.393 . S
C3720 H3709 0.950 . S
C3720 C3718 1.391 . S
C3720 C3721 1.400 . S
C3721 C3715 1.491 1_554 S
C3721 C3720 1.400 . S
C3721 C3722 1.398 . S
C3722 H3710 0.950 . S
C3722 C3721 1.398 . S
C3722 C3723 1.391 . S
C3723 H3711 0.950 . S
C3723 C3719 1.393 . S
C3723 C3722 1.391 . S
H3724 C3732 0.950 . S
H3725 C3737 0.950 . S
H3726 C3734 0.950 . S
H3727 C3736 0.950 . S
H3728 C3738 0.950 . S
H3729 C3740 0.950 . S
H3730 C3742 0.950 . S
H3731 C3743 0.950 . S
C3732 H3724 0.950 . S
C3732 C3733 1.386 . S
C3732 C3734 1.391 . S
C3733 C3732 1.386 . S
C3733 C3737 1.393 . S
C3734 H3726 0.950 . S
C3734 C3732 1.391 . S
C3734 C3735 1.400 . S
C3735 C3734 1.400 . S
C3735 C3736 1.398 . S
C3735 C3741 1.491 1_556 S
C3736 H3727 0.950 . S
C3736 C3735 1.398 . S
C3736 C3737 1.391 . S
C3737 H3725 0.950 . S
C3737 C3733 1.393 . S
C3737 C3736 1.391 . S
C3738 H3728 0.950 . S
C3738 C3739 1.386 . S
C3738 C3740 1.391 . S
C3739 C3738 1.386 . S
C3739 C3743 1.393 . S
C3740 H3729 0.950 . S
C3740 C3738 1.391 . S
C3740 C3741 1.400 . S
C3741 C3735 1.491 1_554 S
C3741 C3740 1.400 . S
C3741 C3742 1.398 . S
C3742 H3730 0.950 . S
C3742 C3741 1.398 . S
C3742 C3743 1.391 . S
C3743 H3731 0.950 . S
C3743 C3739 1.393 . S
C3743 C3742 1.391 . S
H3744 C3752 0.950 . S
H3745 C3757 0.950 . S
H3746 C3754 0.950 . S
H3747 C3756 0.950 . S
H3748 C3758 0.950 . S
H3749 C3760 0.950 . S
H3750 C3762 0.950 . S
H3751 C3763 0.950 . S
C3752 H3744 0.950 . S
C3752 C3753 1.386 . S
C3752 C3754 1.391 . S
C3753 C3752 1.386 . S
C3753 C3757 1.393 . S
C3754 H3746 0.950 . S
C3754 C3752 1.391 . S
C3754 C3755 1.400 . S
C3755 C3754 1.400 . S
C3755 C3756 1.398 . S
C3755 C3761 1.491 . S
C3756 H3747 0.950 . S
C3756 C3755 1.398 . S
C3756 C3757 1.391 . S
C3757 H3745 0.950 . S
C3757 C3753 1.393 . S
C3757 C3756 1.391 . S
C3758 H3748 0.950 . S
C3758 C3759 1.386 . S
C3758 C3760 1.391 . S
C3759 C3758 1.386 . S
C3759 C3763 1.393 . S
C3760 H3749 0.950 . S
C3760 C3758 1.391 . S
C3760 C3761 1.400 . S
C3761 C3755 1.491 . S
C3761 C3760 1.400 . S
C3761 C3762 1.398 . S
C3762 H3750 0.950 . S
C3762 C3761 1.398 . S
C3762 C3763 1.391 . S
C3763 H3751 0.950 . S
C3763 C3759 1.393 . S
C3763 C3762 1.391 . S
H3764 C3772 0.950 . S
H3765 C3777 0.950 . S
H3766 C3774 0.950 . S
H3767 C3776 0.950 . S
H3768 C3778 0.950 . S
H3769 C3780 0.950 . S
H3770 C3782 0.950 . S
H3771 C3783 0.950 . S
C3772 H3764 0.950 . S
C3772 C3773 1.386 . S
C3772 C3774 1.391 . S
C3773 C3772 1.386 . S
C3773 C3777 1.393 . S
C3774 H3766 0.950 . S
C3774 C3772 1.391 . S
C3774 C3775 1.400 . S
C3775 C3774 1.400 . S
C3775 C3776 1.398 . S
C3775 C3781 1.491 . S
C3776 H3767 0.950 . S
C3776 C3775 1.398 . S
C3776 C3777 1.391 . S
C3777 H3765 0.950 . S
C3777 C3773 1.393 . S
C3777 C3776 1.391 . S
C3778 H3768 0.950 . S
C3778 C3779 1.386 . S
C3778 C3780 1.391 . S
C3779 C3778 1.386 . S
C3779 C3783 1.393 . S
C3780 H3769 0.950 . S
C3780 C3778 1.391 . S
C3780 C3781 1.400 . S
C3781 C3775 1.491 . S
C3781 C3780 1.400 . S
C3781 C3782 1.398 . S
C3782 H3770 0.950 . S
C3782 C3781 1.398 . S
C3782 C3783 1.391 . S
C3783 H3771 0.950 . S
C3783 C3779 1.393 . S
C3783 C3782 1.391 . S
H3784 C3792 0.950 . S
H3785 C3797 0.950 . S
H3786 C3794 0.950 . S
H3787 C3796 0.950 . S
H3788 C3798 0.950 . S
H3789 C3800 0.950 . S
H3790 C3802 0.950 . S
H3791 C3803 0.950 . S
C3792 H3784 0.950 . S
C3792 C3793 1.386 . S
C3792 C3794 1.391 . S
C3793 C3792 1.386 . S
C3793 C3797 1.393 . S
C3794 H3786 0.950 . S
C3794 C3792 1.391 . S
C3794 C3795 1.400 . S
C3795 C3794 1.400 . S
C3795 C3796 1.398 . S
C3795 C3801 1.491 . S
C3796 H3787 0.950 . S
C3796 C3795 1.398 . S
C3796 C3797 1.391 . S
C3797 H3785 0.950 . S
C3797 C3793 1.393 . S
C3797 C3796 1.391 . S
C3798 H3788 0.950 . S
C3798 C3799 1.386 . S
C3798 C3800 1.391 . S
C3799 C3798 1.386 . S
C3799 C3803 1.393 . S
C3800 H3789 0.950 . S
C3800 C3798 1.391 . S
C3800 C3801 1.400 . S
C3801 C3795 1.491 . S
C3801 C3800 1.400 . S
C3801 C3802 1.398 . S
C3802 H3790 0.950 . S
C3802 C3801 1.398 . S
C3802 C3803 1.391 . S
C3803 H3791 0.950 . S
C3803 C3799 1.393 . S
C3803 C3802 1.391 . S
H3804 C3812 0.950 . S
H3805 C3817 0.950 . S
H3806 C3814 0.950 . S
H3807 C3816 0.950 . S
H3808 C3818 0.950 . S
H3809 C3820 0.950 . S
H3810 C3822 0.950 . S
H3811 C3823 0.950 . S
C3812 H3804 0.950 . S
C3812 C3813 1.386 . S
C3812 C3814 1.391 . S
C3813 C3812 1.386 . S
C3813 C3817 1.393 . S
C3814 H3806 0.950 . S
C3814 C3812 1.391 . S
C3814 C3815 1.400 . S
C3815 C3814 1.400 . S
C3815 C3816 1.398 . S
C3815 C3821 1.491 . S
C3816 H3807 0.950 . S
C3816 C3815 1.398 . S
C3816 C3817 1.391 . S
C3817 H3805 0.950 . S
C3817 C3813 1.393 . S
C3817 C3816 1.391 . S
C3818 H3808 0.950 . S
C3818 C3819 1.386 . S
C3818 C3820 1.391 . S
C3819 C3818 1.386 . S
C3819 C3823 1.393 . S
C3820 H3809 0.950 . S
C3820 C3818 1.391 . S
C3820 C3821 1.400 . S
C3821 C3815 1.491 . S
C3821 C3820 1.400 . S
C3821 C3822 1.398 . S
C3822 H3810 0.950 . S
C3822 C3821 1.398 . S
C3822 C3823 1.391 . S
C3823 H3811 0.950 . S
C3823 C3819 1.393 . S
C3823 C3822 1.391 . S
H3824 C3832 0.950 . S
H3825 C3837 0.950 . S
H3826 C3834 0.950 . S
H3827 C3836 0.950 . S
H3828 C3838 0.950 . S
H3829 C3840 0.950 . S
H3830 C3842 0.950 . S
H3831 C3843 0.950 . S
C3832 H3824 0.950 . S
C3832 C3833 1.386 . S
C3832 C3834 1.391 . S
C3833 C3832 1.386 . S
C3833 C3837 1.393 . S
C3834 H3826 0.950 . S
C3834 C3832 1.391 . S
C3834 C3835 1.400 . S
C3835 C3834 1.400 . S
C3835 C3836 1.398 . S
C3835 C3841 1.491 . S
C3836 H3827 0.950 . S
C3836 C3835 1.398 . S
C3836 C3837 1.391 . S
C3837 H3825 0.950 . S
C3837 C3833 1.393 . S
C3837 C3836 1.391 . S
C3838 H3828 0.950 . S
C3838 C3839 1.386 . S
C3838 C3840 1.391 . S
C3839 C3838 1.386 . S
C3839 C3843 1.393 . S
C3840 H3829 0.950 . S
C3840 C3838 1.391 . S
C3840 C3841 1.400 . S
C3841 C3835 1.491 . S
C3841 C3840 1.400 . S
C3841 C3842 1.398 . S
C3842 H3830 0.950 . S
C3842 C3841 1.398 . S
C3842 C3843 1.391 . S
C3843 H3831 0.950 . S
C3843 C3839 1.393 . S
C3843 C3842 1.391 . S
H3844 C3852 0.950 . S
H3845 C3857 0.950 . S
H3846 C3854 0.950 . S
H3847 C3856 0.950 . S
H3848 C3858 0.950 . S
H3849 C3860 0.950 . S
H3850 C3862 0.950 . S
H3851 C3863 0.950 . S
C3852 H3844 0.950 . S
C3852 C3853 1.386 . S
C3852 C3854 1.391 . S
C3853 C3852 1.386 . S
C3853 C3857 1.393 . S
C3854 H3846 0.950 . S
C3854 C3852 1.391 . S
C3854 C3855 1.400 . S
C3855 C3854 1.400 . S
C3855 C3856 1.398 . S
C3855 C3861 1.491 . S
C3856 H3847 0.950 . S
C3856 C3855 1.398 . S
C3856 C3857 1.391 . S
C3857 H3845 0.950 . S
C3857 C3853 1.393 . S
C3857 C3856 1.391 . S
C3858 H3848 0.950 . S
C3858 C3859 1.386 . S
C3858 C3860 1.391 . S
C3859 C3858 1.386 . S
C3859 C3863 1.393 . S
C3860 H3849 0.950 . S
C3860 C3858 1.391 . S
C3860 C3861 1.400 . S
C3861 C3855 1.491 . S
C3861 C3860 1.400 . S
C3861 C3862 1.398 . S
C3862 H3850 0.950 . S
C3862 C3861 1.398 . S
C3862 C3863 1.391 . S
C3863 H3851 0.950 . S
C3863 C3859 1.393 . S
C3863 C3862 1.391 . S
H3864 C3872 0.950 . S
H3865 C3877 0.950 . S
H3866 C3874 0.950 . S
H3867 C3876 0.950 . S
H3868 C3878 0.950 . S
H3869 C3880 0.950 . S
H3870 C3882 0.950 . S
H3871 C3883 0.950 . S
C3872 H3864 0.950 . S
C3872 C3873 1.386 . S
C3872 C3874 1.391 . S
C3873 C3872 1.386 . S
C3873 C3877 1.393 . S
C3874 H3866 0.950 . S
C3874 C3872 1.391 . S
C3874 C3875 1.400 . S
C3875 C3874 1.400 . S
C3875 C3876 1.398 . S
C3875 C3881 1.491 . S
C3876 H3867 0.950 . S
C3876 C3875 1.398 . S
C3876 C3877 1.391 . S
C3877 H3865 0.950 . S
C3877 C3873 1.393 . S
C3877 C3876 1.391 . S
C3878 H3868 0.950 . S
C3878 C3879 1.386 . S
C3878 C3880 1.391 . S
C3879 C3878 1.386 . S
C3879 C3883 1.393 . S
C3880 H3869 0.950 . S
C3880 C3878 1.391 . S
C3880 C3881 1.400 . S
C3881 C3875 1.491 . S
C3881 C3880 1.400 . S
C3881 C3882 1.398 . S
C3882 H3870 0.950 . S
C3882 C3881 1.398 . S
C3882 C3883 1.391 . S
C3883 H3871 0.950 . S
C3883 C3879 1.393 . S
C3883 C3882 1.391 . S
H3884 C3892 0.950 . S
H3885 C3897 0.950 . S
H3886 C3894 0.950 . S
H3887 C3896 0.950 . S
H3888 C3898 0.950 . S
H3889 C3900 0.950 . S
H3890 C3902 0.950 . S
H3891 C3903 0.950 . S
C3892 H3884 0.950 . S
C3892 C3893 1.386 . S
C3892 C3894 1.391 . S
C3893 C3892 1.386 . S
C3893 C3897 1.393 . S
C3894 H3886 0.950 . S
C3894 C3892 1.391 . S
C3894 C3895 1.400 . S
C3895 C3894 1.400 . S
C3895 C3896 1.398 . S
C3895 C3901 1.491 . S
C3896 H3887 0.950 . S
C3896 C3895 1.398 . S
C3896 C3897 1.391 . S
C3897 H3885 0.950 . S
C3897 C3893 1.393 . S
C3897 C3896 1.391 . S
C3898 H3888 0.950 . S
C3898 C3899 1.386 . S
C3898 C3900 1.391 . S
C3899 C3898 1.386 . S
C3899 C3903 1.393 . S
C3900 H3889 0.950 . S
C3900 C3898 1.391 . S
C3900 C3901 1.400 . S
C3901 C3895 1.491 . S
C3901 C3900 1.400 . S
C3901 C3902 1.398 . S
C3902 H3890 0.950 . S
C3902 C3901 1.398 . S
C3902 C3903 1.391 . S
C3903 H3891 0.950 . S
C3903 C3899 1.393 . S
C3903 C3902 1.391 . S
H3904 C3912 0.950 . S
H3905 C3917 0.950 . S
H3906 C3914 0.950 . S
H3907 C3916 0.950 . S
H3908 C3918 0.950 . S
H3909 C3920 0.950 . S
H3910 C3922 0.950 . S
H3911 C3923 0.950 . S
C3912 H3904 0.950 . S
C3912 C3913 1.386 . S
C3912 C3914 1.391 . S
C3913 C3912 1.386 . S
C3913 C3917 1.393 . S
C3914 H3906 0.950 . S
C3914 C3912 1.391 . S
C3914 C3915 1.400 . S
C3915 C3914 1.400 . S
C3915 C3916 1.398 . S
C3915 C3921 1.491 . S
C3916 H3907 0.950 . S
C3916 C3915 1.398 . S
C3916 C3917 1.391 . S
C3917 H3905 0.950 . S
C3917 C3913 1.393 . S
C3917 C3916 1.391 . S
C3918 H3908 0.950 . S
C3918 C3919 1.386 . S
C3918 C3920 1.391 . S
C3919 C3918 1.386 . S
C3919 C3923 1.393 . S
C3920 H3909 0.950 . S
C3920 C3918 1.391 . S
C3920 C3921 1.400 . S
C3921 C3915 1.491 . S
C3921 C3920 1.400 . S
C3921 C3922 1.398 . S
C3922 H3910 0.950 . S
C3922 C3921 1.398 . S
C3922 C3923 1.391 . S
C3923 H3911 0.950 . S
C3923 C3919 1.393 . S
C3923 C3922 1.391 . S
H3924 C3932 0.950 . S
H3925 C3937 0.950 . S
H3926 C3934 0.950 . S
H3927 C3936 0.950 . S
H3928 C3938 0.950 . S
H3929 C3940 0.950 . S
H3930 C3942 0.950 . S
H3931 C3943 0.950 . S
C3932 H3924 0.950 . S
C3932 C3933 1.386 . S
C3932 C3934 1.391 . S
C3933 C3932 1.386 . S
C3933 C3937 1.393 . S
C3934 H3926 0.950 . S
C3934 C3932 1.391 . S
C3934 C3935 1.400 . S
C3935 C3934 1.400 . S
C3935 C3936 1.398 . S
C3935 C3941 1.491 . S
C3936 H3927 0.950 . S
C3936 C3935 1.398 . S
C3936 C3937 1.391 . S
C3937 H3925 0.950 . S
C3937 C3933 1.393 . S
C3937 C3936 1.391 . S
C3938 H3928 0.950 . S
C3938 C3939 1.386 . S
C3938 C3940 1.391 . S
C3939 C3938 1.386 . S
C3939 C3943 1.393 . S
C3940 H3929 0.950 . S
C3940 C3938 1.391 . S
C3940 C3941 1.400 . S
C3941 C3935 1.491 . S
C3941 C3940 1.400 . S
C3941 C3942 1.398 . S
C3942 H3930 0.950 . S
C3942 C3941 1.398 . S
C3942 C3943 1.391 . S
C3943 H3931 0.950 . S
C3943 C3939 1.393 . S
C3943 C3942 1.391 . S
H3944 C3952 0.950 . S
H3945 C3957 0.950 . S
H3946 C3954 0.950 . S
H3947 C3956 0.950 . S
H3948 C3958 0.950 . S
H3949 C3960 0.950 . S
H3950 C3962 0.950 . S
H3951 C3963 0.950 . S
C3952 H3944 0.950 . S
C3952 C3953 1.386 . S
C3952 C3954 1.391 . S
C3953 C3952 1.386 . S
C3953 C3957 1.393 . S
C3954 H3946 0.950 . S
C3954 C3952 1.391 . S
C3954 C3955 1.400 . S
C3955 C3954 1.400 . S
C3955 C3956 1.398 . S
C3955 C3961 1.491 . S
C3956 H3947 0.950 . S
C3956 C3955 1.398 . S
C3956 C3957 1.391 . S
C3957 H3945 0.950 . S
C3957 C3953 1.393 . S
C3957 C3956 1.391 . S
C3958 H3948 0.950 . S
C3958 C3959 1.386 . S
C3958 C3960 1.391 . S
C3959 C3958 1.386 . S
C3959 C3963 1.393 . S
C3960 H3949 0.950 . S
C3960 C3958 1.391 . S
C3960 C3961 1.400 . S
C3961 C3955 1.491 . S
C3961 C3960 1.400 . S
C3961 C3962 1.398 . S
C3962 H3950 0.950 . S
C3962 C3961 1.398 . S
C3962 C3963 1.391 . S
C3963 H3951 0.950 . S
C3963 C3959 1.393 . S
C3963 C3962 1.391 . S
H3964 C3972 0.950 . S
H3965 C3977 0.950 . S
H3966 C3974 0.950 . S
H3967 C3976 0.950 . S
H3968 C3978 0.950 . S
H3969 C3980 0.950 . S
H3970 C3982 0.950 . S
H3971 C3983 0.950 . S
C3972 H3964 0.950 . S
C3972 C3973 1.386 . S
C3972 C3974 1.391 . S
C3973 C3972 1.386 . S
C3973 C3977 1.393 . S
C3974 H3966 0.950 . S
C3974 C3972 1.391 . S
C3974 C3975 1.400 . S
C3975 C3974 1.400 . S
C3975 C3976 1.398 . S
C3975 C3981 1.491 . S
C3976 H3967 0.950 . S
C3976 C3975 1.398 . S
C3976 C3977 1.391 . S
C3977 H3965 0.950 . S
C3977 C3973 1.393 . S
C3977 C3976 1.391 . S
C3978 H3968 0.950 . S
C3978 C3979 1.386 . S
C3978 C3980 1.391 . S
C3979 C3978 1.386 . S
C3979 C3983 1.393 . S
C3980 H3969 0.950 . S
C3980 C3978 1.391 . S
C3980 C3981 1.400 . S
C3981 C3975 1.491 . S
C3981 C3980 1.400 . S
C3981 C3982 1.398 . S
C3982 H3970 0.950 . S
C3982 C3981 1.398 . S
C3982 C3983 1.391 . S
C3983 H3971 0.950 . S
C3983 C3979 1.393 . S
C3983 C3982 1.391 . S
H3984 C3992 0.950 . S
H3985 C3997 0.950 . S
H3986 C3994 0.950 . S
H3987 C3996 0.950 . S
H3988 C3998 0.950 . S
H3989 C4000 0.950 . S
H3990 C4002 0.950 . S
H3991 C4003 0.950 . S
C3992 H3984 0.950 . S
C3992 C3993 1.386 . S
C3992 C3994 1.391 . S
C3993 C3992 1.386 . S
C3993 C3997 1.393 . S
C3994 H3986 0.950 . S
C3994 C3992 1.391 . S
C3994 C3995 1.400 . S
C3995 C3994 1.400 . S
C3995 C3996 1.398 . S
C3995 C4001 1.491 . S
C3996 H3987 0.950 . S
C3996 C3995 1.398 . S
C3996 C3997 1.391 . S
C3997 H3985 0.950 . S
C3997 C3993 1.393 . S
C3997 C3996 1.391 . S
C3998 H3988 0.950 . S
C3998 C3999 1.386 . S
C3998 C4000 1.391 . S
C3999 C3998 1.386 . S
C3999 C4003 1.393 . S
C4000 H3989 0.950 . S
C4000 C3998 1.391 . S
C4000 C4001 1.400 . S
C4001 C3995 1.491 . S
C4001 C4000 1.400 . S
C4001 C4002 1.398 . S
C4002 H3990 0.950 . S
C4002 C4001 1.398 . S
C4002 C4003 1.391 . S
C4003 H3991 0.950 . S
C4003 C3999 1.393 . S
C4003 C4002 1.391 . S
H4004 C4012 0.950 . S
H4005 C4017 0.950 . S
H4006 C4014 0.950 . S
H4007 C4016 0.950 . S
H4008 C4018 0.950 . S
H4009 C4020 0.950 . S
H4010 C4022 0.950 . S
H4011 C4023 0.950 . S
C4012 H4004 0.950 . S
C4012 C4013 1.386 . S
C4012 C4014 1.391 . S
C4013 C4012 1.386 . S
C4013 C4017 1.393 . S
C4014 H4006 0.950 . S
C4014 C4012 1.391 . S
C4014 C4015 1.400 . S
C4015 C4014 1.400 . S
C4015 C4016 1.398 . S
C4015 C4021 1.491 . S
C4016 H4007 0.950 . S
C4016 C4015 1.398 . S
C4016 C4017 1.391 . S
C4017 H4005 0.950 . S
C4017 C4013 1.393 . S
C4017 C4016 1.391 . S
C4018 H4008 0.950 . S
C4018 C4019 1.386 . S
C4018 C4020 1.391 . S
C4019 C4018 1.386 . S
C4019 C4023 1.393 . S
C4020 H4009 0.950 . S
C4020 C4018 1.391 . S
C4020 C4021 1.400 . S
C4021 C4015 1.491 . S
C4021 C4020 1.400 . S
C4021 C4022 1.398 . S
C4022 H4010 0.950 . S
C4022 C4021 1.398 . S
C4022 C4023 1.391 . S
C4023 H4011 0.950 . S
C4023 C4019 1.393 . S
C4023 C4022 1.391 . S
H4024 C4032 0.950 . S
H4025 C4037 0.950 . S
H4026 C4034 0.950 . S
H4027 C4036 0.950 . S
H4028 C4038 0.950 . S
H4029 C4040 0.950 . S
H4030 C4042 0.950 . S
H4031 C4043 0.950 . S
C4032 H4024 0.950 . S
C4032 C4033 1.386 . S
C4032 C4034 1.391 . S
C4033 C4032 1.386 . S
C4033 C4037 1.393 . S
C4034 H4026 0.950 . S
C4034 C4032 1.391 . S
C4034 C4035 1.400 . S
C4035 C4034 1.400 . S
C4035 C4036 1.398 . S
C4035 C4041 1.491 . S
C4036 H4027 0.950 . S
C4036 C4035 1.398 . S
C4036 C4037 1.391 . S
C4037 H4025 0.950 . S
C4037 C4033 1.393 . S
C4037 C4036 1.391 . S
C4038 H4028 0.950 . S
C4038 C4039 1.386 . S
C4038 C4040 1.391 . S
C4039 C4038 1.386 . S
C4039 C4043 1.393 . S
C4040 H4029 0.950 . S
C4040 C4038 1.391 . S
C4040 C4041 1.400 . S
C4041 C4035 1.491 . S
C4041 C4040 1.400 . S
C4041 C4042 1.398 . S
C4042 H4030 0.950 . S
C4042 C4041 1.398 . S
C4042 C4043 1.391 . S
C4043 H4031 0.950 . S
C4043 C4039 1.393 . S
C4043 C4042 1.391 . S
H4044 C4052 0.950 . S
H4045 C4057 0.950 . S
H4046 C4054 0.950 . S
H4047 C4056 0.950 . S
H4048 C4058 0.950 . S
H4049 C4060 0.950 . S
H4050 C4062 0.950 . S
H4051 C4063 0.950 . S
C4052 H4044 0.950 . S
C4052 C4053 1.386 . S
C4052 C4054 1.391 . S
C4053 C4052 1.386 . S
C4053 C4057 1.393 . S
C4054 H4046 0.950 . S
C4054 C4052 1.391 . S
C4054 C4055 1.400 . S
C4055 C4054 1.400 . S
C4055 C4056 1.398 . S
C4055 C4061 1.491 . S
C4056 H4047 0.950 . S
C4056 C4055 1.398 . S
C4056 C4057 1.391 . S
C4057 H4045 0.950 . S
C4057 C4053 1.393 . S
C4057 C4056 1.391 . S
C4058 H4048 0.950 . S
C4058 C4059 1.386 . S
C4058 C4060 1.391 . S
C4059 C4058 1.386 . S
C4059 C4063 1.393 . S
C4060 H4049 0.950 . S
C4060 C4058 1.391 . S
C4060 C4061 1.400 . S
C4061 C4055 1.491 . S
C4061 C4060 1.400 . S
C4061 C4062 1.398 . S
C4062 H4050 0.950 . S
C4062 C4061 1.398 . S
C4062 C4063 1.391 . S
C4063 H4051 0.950 . S
C4063 C4059 1.393 . S
C4063 C4062 1.391 . S
H4064 C4072 0.950 . S
H4065 C4077 0.950 . S
H4066 C4074 0.950 . S
H4067 C4076 0.950 . S
H4068 C4078 0.950 . S
H4069 C4080 0.950 . S
H4070 C4082 0.950 . S
H4071 C4083 0.950 . S
C4072 H4064 0.950 . S
C4072 C4073 1.386 . S
C4072 C4074 1.391 . S
C4073 C4072 1.386 . S
C4073 C4077 1.393 . S
C4074 H4066 0.950 . S
C4074 C4072 1.391 . S
C4074 C4075 1.400 . S
C4075 C4074 1.400 . S
C4075 C4076 1.398 . S
C4075 C4081 1.491 . S
C4076 H4067 0.950 . S
C4076 C4075 1.398 . S
C4076 C4077 1.391 . S
C4077 H4065 0.950 . S
C4077 C4073 1.393 . S
C4077 C4076 1.391 . S
C4078 H4068 0.950 . S
C4078 C4079 1.386 . S
C4078 C4080 1.391 . S
C4079 C4078 1.386 . S
C4079 C4083 1.393 . S
C4080 H4069 0.950 . S
C4080 C4078 1.391 . S
C4080 C4081 1.400 . S
C4081 C4075 1.491 . S
C4081 C4080 1.400 . S
C4081 C4082 1.398 . S
C4082 H4070 0.950 . S
C4082 C4081 1.398 . S
C4082 C4083 1.391 . S
C4083 H4071 0.950 . S
C4083 C4079 1.393 . S
C4083 C4082 1.391 . S
H4084 C4092 0.950 . S
H4085 C4097 0.950 . S
H4086 C4094 0.950 . S
H4087 C4096 0.950 . S
H4088 C4098 0.950 . S
H4089 C4100 0.950 . S
H4090 C4102 0.950 . S
H4091 C4103 0.950 . S
C4092 H4084 0.950 . S
C4092 C4093 1.386 . S
C4092 C4094 1.391 . S
C4093 C4092 1.386 . S
C4093 C4097 1.393 . S
C4094 H4086 0.950 . S
C4094 C4092 1.391 . S
C4094 C4095 1.400 . S
C4095 C4094 1.400 . S
C4095 C4096 1.398 . S
C4095 C4101 1.491 . S
C4096 H4087 0.950 . S
C4096 C4095 1.398 . S
C4096 C4097 1.391 . S
C4097 H4085 0.950 . S
C4097 C4093 1.393 . S
C4097 C4096 1.391 . S
C4098 H4088 0.950 . S
C4098 C4099 1.386 . S
C4098 C4100 1.391 . S
C4099 C4098 1.386 . S
C4099 C4103 1.393 . S
C4100 H4089 0.950 . S
C4100 C4098 1.391 . S
C4100 C4101 1.400 . S
C4101 C4095 1.491 . S
C4101 C4100 1.400 . S
C4101 C4102 1.398 . S
C4102 H4090 0.950 . S
C4102 C4101 1.398 . S
C4102 C4103 1.391 . S
C4103 H4091 0.950 . S
C4103 C4099 1.393 . S
C4103 C4102 1.391 . S
H4104 C4112 0.950 . S
H4105 C4117 0.950 . S
H4106 C4114 0.950 . S
H4107 C4116 0.950 . S
H4108 C4118 0.950 . S
H4109 C4120 0.950 . S
H4110 C4122 0.950 . S
H4111 C4123 0.950 . S
C4112 H4104 0.950 . S
C4112 C4113 1.386 . S
C4112 C4114 1.391 . S
C4113 C4112 1.386 . S
C4113 C4117 1.393 . S
C4114 H4106 0.950 . S
C4114 C4112 1.391 . S
C4114 C4115 1.400 . S
C4115 C4114 1.400 . S
C4115 C4116 1.398 . S
C4115 C4121 1.491 . S
C4116 H4107 0.950 . S
C4116 C4115 1.398 . S
C4116 C4117 1.391 . S
C4117 H4105 0.950 . S
C4117 C4113 1.393 . S
C4117 C4116 1.391 . S
C4118 H4108 0.950 . S
C4118 C4119 1.386 . S
C4118 C4120 1.391 . S
C4119 C4118 1.386 . S
C4119 C4123 1.393 . S
C4120 H4109 0.950 . S
C4120 C4118 1.391 . S
C4120 C4121 1.400 . S
C4121 C4115 1.491 . S
C4121 C4120 1.400 . S
C4121 C4122 1.398 . S
C4122 H4110 0.950 . S
C4122 C4121 1.398 . S
C4122 C4123 1.391 . S
C4123 H4111 0.950 . S
C4123 C4119 1.393 . S
C4123 C4122 1.391 . S
H4124 C4132 0.950 . S
H4125 C4137 0.950 . S
H4126 C4134 0.950 . S
H4127 C4136 0.950 . S
H4128 C4138 0.950 . S
H4129 C4140 0.950 . S
H4130 C4142 0.950 . S
H4131 C4143 0.950 . S
C4132 H4124 0.950 . S
C4132 C4133 1.386 . S
C4132 C4134 1.391 . S
C4133 C4132 1.386 . S
C4133 C4137 1.393 . S
C4134 H4126 0.950 . S
C4134 C4132 1.391 . S
C4134 C4135 1.400 . S
C4135 C4134 1.400 . S
C4135 C4136 1.398 . S
C4135 C4141 1.491 . S
C4136 H4127 0.950 . S
C4136 C4135 1.398 . S
C4136 C4137 1.391 . S
C4137 H4125 0.950 . S
C4137 C4133 1.393 . S
C4137 C4136 1.391 . S
C4138 H4128 0.950 . S
C4138 C4139 1.386 . S
C4138 C4140 1.391 . S
C4139 C4138 1.386 . S
C4139 C4143 1.393 . S
C4140 H4129 0.950 . S
C4140 C4138 1.391 . S
C4140 C4141 1.400 . S
C4141 C4135 1.491 . S
C4141 C4140 1.400 . S
C4141 C4142 1.398 . S
C4142 H4130 0.950 . S
C4142 C4141 1.398 . S
C4142 C4143 1.391 . S
C4143 H4131 0.950 . S
C4143 C4139 1.393 . S
C4143 C4142 1.391 . S
H4144 C4152 0.950 . S
H4145 C4157 0.950 . S
H4146 C4154 0.950 . S
H4147 C4156 0.950 . S
H4148 C4158 0.950 . S
H4149 C4160 0.950 . S
H4150 C4162 0.950 . S
H4151 C4163 0.950 . S
C4152 H4144 0.950 . S
C4152 C4153 1.386 . S
C4152 C4154 1.391 . S
C4153 C4152 1.386 . S
C4153 C4157 1.393 . S
C4154 H4146 0.950 . S
C4154 C4152 1.391 . S
C4154 C4155 1.400 . S
C4155 C4154 1.400 . S
C4155 C4156 1.398 . S
C4155 C4161 1.491 . S
C4156 H4147 0.950 . S
C4156 C4155 1.398 . S
C4156 C4157 1.391 . S
C4157 H4145 0.950 . S
C4157 C4153 1.393 . S
C4157 C4156 1.391 . S
C4158 H4148 0.950 . S
C4158 C4159 1.386 . S
C4158 C4160 1.391 . S
C4159 C4158 1.386 . S
C4159 C4163 1.393 . S
C4160 H4149 0.950 . S
C4160 C4158 1.391 . S
C4160 C4161 1.400 . S
C4161 C4155 1.491 . S
C4161 C4160 1.400 . S
C4161 C4162 1.398 . S
C4162 H4150 0.950 . S
C4162 C4161 1.398 . S
C4162 C4163 1.391 . S
C4163 H4151 0.950 . S
C4163 C4159 1.393 . S
C4163 C4162 1.391 . S
H4164 C4172 0.950 . S
H4165 C4177 0.950 . S
H4166 C4174 0.950 . S
H4167 C4176 0.950 . S
H4168 C4178 0.950 . S
H4169 C4180 0.950 . S
H4170 C4182 0.950 . S
H4171 C4183 0.950 . S
C4172 H4164 0.950 . S
C4172 C4173 1.386 . S
C4172 C4174 1.391 . S
C4173 C4172 1.386 . S
C4173 C4177 1.393 . S
C4174 H4166 0.950 . S
C4174 C4172 1.391 . S
C4174 C4175 1.400 . S
C4175 C4174 1.400 . S
C4175 C4176 1.398 . S
C4175 C4181 1.491 . S
C4176 H4167 0.950 . S
C4176 C4175 1.398 . S
C4176 C4177 1.391 . S
C4177 H4165 0.950 . S
C4177 C4173 1.393 . S
C4177 C4176 1.391 . S
C4178 H4168 0.950 . S
C4178 C4179 1.386 . S
C4178 C4180 1.391 . S
C4179 C4178 1.386 . S
C4179 C4183 1.393 . S
C4180 H4169 0.950 . S
C4180 C4178 1.391 . S
C4180 C4181 1.400 . S
C4181 C4175 1.491 . S
C4181 C4180 1.400 . S
C4181 C4182 1.398 . S
C4182 H4170 0.950 . S
C4182 C4181 1.398 . S
C4182 C4183 1.391 . S
C4183 H4171 0.950 . S
C4183 C4179 1.393 . S
C4183 C4182 1.391 . S
H4184 C4192 0.950 . S
H4185 C4197 0.950 . S
H4186 C4194 0.950 . S
H4187 C4196 0.950 . S
H4188 C4198 0.950 . S
H4189 C4200 0.950 . S
H4190 C4202 0.950 . S
H4191 C4203 0.950 . S
C4192 H4184 0.950 . S
C4192 C4193 1.386 . S
C4192 C4194 1.391 . S
C4193 C4192 1.386 . S
C4193 C4197 1.393 . S
C4194 H4186 0.950 . S
C4194 C4192 1.391 . S
C4194 C4195 1.400 . S
C4195 C4194 1.400 . S
C4195 C4196 1.398 . S
C4195 C4201 1.491 . S
C4196 H4187 0.950 . S
C4196 C4195 1.398 . S
C4196 C4197 1.391 . S
C4197 H4185 0.950 . S
C4197 C4193 1.393 . S
C4197 C4196 1.391 . S
C4198 H4188 0.950 . S
C4198 C4199 1.386 . S
C4198 C4200 1.391 . S
C4199 C4198 1.386 . S
C4199 C4203 1.393 . S
C4200 H4189 0.950 . S
C4200 C4198 1.391 . S
C4200 C4201 1.400 . S
C4201 C4195 1.491 . S
C4201 C4200 1.400 . S
C4201 C4202 1.398 . S
C4202 H4190 0.950 . S
C4202 C4201 1.398 . S
C4202 C4203 1.391 . S
C4203 H4191 0.950 . S
C4203 C4199 1.393 . S
C4203 C4202 1.391 . S
H4204 C4212 0.950 . S
H4205 C4217 0.950 . S
H4206 C4214 0.950 . S
H4207 C4216 0.950 . S
H4208 C4218 0.950 . S
H4209 C4220 0.950 . S
H4210 C4222 0.950 . S
H4211 C4223 0.950 . S
C4212 H4204 0.950 . S
C4212 C4213 1.386 . S
C4212 C4214 1.391 . S
C4213 C4212 1.386 . S
C4213 C4217 1.393 . S
C4214 H4206 0.950 . S
C4214 C4212 1.391 . S
C4214 C4215 1.400 . S
C4215 C4214 1.400 . S
C4215 C4216 1.398 . S
C4215 C4221 1.491 . S
C4216 H4207 0.950 . S
C4216 C4215 1.398 . S
C4216 C4217 1.391 . S
C4217 H4205 0.950 . S
C4217 C4213 1.393 . S
C4217 C4216 1.391 . S
C4218 H4208 0.950 . S
C4218 C4219 1.386 . S
C4218 C4220 1.391 . S
C4219 C4218 1.386 . S
C4219 C4223 1.393 . S
C4220 H4209 0.950 . S
C4220 C4218 1.391 . S
C4220 C4221 1.400 . S
C4221 C4215 1.491 . S
C4221 C4220 1.400 . S
C4221 C4222 1.398 . S
C4222 H4210 0.950 . S
C4222 C4221 1.398 . S
C4222 C4223 1.391 . S
C4223 H4211 0.950 . S
C4223 C4219 1.393 . S
C4223 C4222 1.391 . S
H4224 C4232 0.950 . S
H4225 C4237 0.950 . S
H4226 C4234 0.950 . S
H4227 C4236 0.950 . S
H4228 C4238 0.950 . S
H4229 C4240 0.950 . S
H4230 C4242 0.950 . S
H4231 C4243 0.950 . S
C4232 H4224 0.950 . S
C4232 C4233 1.386 . S
C4232 C4234 1.391 . S
C4233 C4232 1.386 . S
C4233 C4237 1.393 . S
C4234 H4226 0.950 . S
C4234 C4232 1.391 . S
C4234 C4235 1.400 . S
C4235 C4234 1.400 . S
C4235 C4236 1.398 . S
C4235 C4241 1.491 . S
C4236 H4227 0.950 . S
C4236 C4235 1.398 . S
C4236 C4237 1.391 . S
C4237 H4225 0.950 . S
C4237 C4233 1.393 . S
C4237 C4236 1.391 . S
C4238 H4228 0.950 . S
C4238 C4239 1.386 . S
C4238 C4240 1.391 . S
C4239 C4238 1.386 . S
C4239 C4243 1.393 . S
C4240 H4229 0.950 . S
C4240 C4238 1.391 . S
C4240 C4241 1.400 . S
C4241 C4235 1.491 . S
C4241 C4240 1.400 . S
C4241 C4242 1.398 . S
C4242 H4230 0.950 . S
C4242 C4241 1.398 . S
C4242 C4243 1.391 . S
C4243 H4231 0.950 . S
C4243 C4239 1.393 . S
C4243 C4242 1.391 . S
H4244 C4252 0.950 . S
H4245 C4257 0.950 . S
H4246 C4254 0.950 . S
H4247 C4256 0.950 . S
H4248 C4258 0.950 . S
H4249 C4260 0.950 . S
H4250 C4262 0.950 . S
H4251 C4263 0.950 . S
C4252 H4244 0.950 . S
C4252 C4253 1.386 . S
C4252 C4254 1.391 . S
C4253 C4252 1.386 . S
C4253 C4257 1.393 . S
C4254 H4246 0.950 . S
C4254 C4252 1.391 . S
C4254 C4255 1.400 . S
C4255 C4254 1.400 . S
C4255 C4256 1.398 . S
C4255 C4261 1.491 . S
C4256 H4247 0.950 . S
C4256 C4255 1.398 . S
C4256 C4257 1.391 . S
C4257 H4245 0.950 . S
C4257 C4253 1.393 . S
C4257 C4256 1.391 . S
C4258 H4248 0.950 . S
C4258 C4259 1.386 . S
C4258 C4260 1.391 . S
C4259 C4258 1.386 . S
C4259 C4263 1.393 . S
C4260 H4249 0.950 . S
C4260 C4258 1.391 . S
C4260 C4261 1.400 . S
C4261 C4255 1.491 . S
C4261 C4260 1.400 . S
C4261 C4262 1.398 . S
C4262 H4250 0.950 . S
C4262 C4261 1.398 . S
C4262 C4263 1.391 . S
C4263 H4251 0.950 . S
C4263 C4259 1.393 . S
C4263 C4262 1.391 . S
H4264 C4272 0.950 . S
H4265 C4277 0.950 . S
H4266 C4274 0.950 . S
H4267 C4276 0.950 . S
H4268 C4278 0.950 . S
H4269 C4280 0.950 . S
H4270 C4282 0.950 . S
H4271 C4283 0.950 . S
C4272 H4264 0.950 . S
C4272 C4273 1.386 . S
C4272 C4274 1.391 . S
C4273 C4272 1.386 . S
C4273 C4277 1.393 . S
C4274 H4266 0.950 . S
C4274 C4272 1.391 . S
C4274 C4275 1.400 . S
C4275 C4274 1.400 . S
C4275 C4276 1.398 . S
C4275 C4281 1.491 . S
C4276 H4267 0.950 . S
C4276 C4275 1.398 . S
C4276 C4277 1.391 . S
C4277 H4265 0.950 . S
C4277 C4273 1.393 . S
C4277 C4276 1.391 . S
C4278 H4268 0.950 . S
C4278 C4279 1.386 . S
C4278 C4280 1.391 . S
C4279 C4278 1.386 . S
C4279 C4283 1.393 . S
C4280 H4269 0.950 . S
C4280 C4278 1.391 . S
C4280 C4281 1.400 . S
C4281 C4275 1.491 . S
C4281 C4280 1.400 . S
C4281 C4282 1.398 . S
C4282 H4270 0.950 . S
C4282 C4281 1.398 . S
C4282 C4283 1.391 . S
C4283 H4271 0.950 . S
C4283 C4279 1.393 . S
C4283 C4282 1.391 . S
H4284 C4292 0.950 . S
H4285 C4297 0.950 . S
H4286 C4294 0.950 . S
H4287 C4296 0.950 . S
H4288 C4298 0.950 . S
H4289 C4300 0.950 . S
H4290 C4302 0.950 . S
H4291 C4303 0.950 . S
C4292 H4284 0.950 . S
C4292 C4293 1.386 . S
C4292 C4294 1.391 . S
C4293 C4292 1.386 . S
C4293 C4297 1.393 . S
C4294 H4286 0.950 . S
C4294 C4292 1.391 . S
C4294 C4295 1.400 . S
C4295 C4294 1.400 . S
C4295 C4296 1.398 . S
C4295 C4301 1.491 . S
C4296 H4287 0.950 . S
C4296 C4295 1.398 . S
C4296 C4297 1.391 . S
C4297 H4285 0.950 . S
C4297 C4293 1.393 . S
C4297 C4296 1.391 . S
C4298 H4288 0.950 . S
C4298 C4299 1.386 . S
C4298 C4300 1.391 . S
C4299 C4298 1.386 . S
C4299 C4303 1.393 . S
C4300 H4289 0.950 . S
C4300 C4298 1.391 . S
C4300 C4301 1.400 . S
C4301 C4295 1.491 . S
C4301 C4300 1.400 . S
C4301 C4302 1.398 . S
C4302 H4290 0.950 . S
C4302 C4301 1.398 . S
C4302 C4303 1.391 . S
C4303 H4291 0.950 . S
C4303 C4299 1.393 . S
C4303 C4302 1.391 . S
H4304 C4312 0.950 . S
H4305 C4317 0.950 . S
H4306 C4314 0.950 . S
H4307 C4316 0.950 . S
H4308 C4318 0.950 . S
H4309 C4320 0.950 . S
H4310 C4322 0.950 . S
H4311 C4323 0.950 . S
C4312 H4304 0.950 . S
C4312 C4313 1.386 . S
C4312 C4314 1.391 . S
C4313 C4312 1.386 . S
C4313 C4317 1.393 . S
C4314 H4306 0.950 . S
C4314 C4312 1.391 . S
C4314 C4315 1.400 . S
C4315 C4314 1.400 . S
C4315 C4316 1.398 . S
C4315 C4321 1.491 . S
C4316 H4307 0.950 . S
C4316 C4315 1.398 . S
C4316 C4317 1.391 . S
C4317 H4305 0.950 . S
C4317 C4313 1.393 . S
C4317 C4316 1.391 . S
C4318 H4308 0.950 . S
C4318 C4319 1.386 . S
C4318 C4320 1.391 . S
C4319 C4318 1.386 . S
C4319 C4323 1.393 . S
C4320 H4309 0.950 . S
C4320 C4318 1.391 . S
C4320 C4321 1.400 . S
C4321 C4315 1.491 . S
C4321 C4320 1.400 . S
C4321 C4322 1.398 . S
C4322 H4310 0.950 . S
C4322 C4321 1.398 . S
C4322 C4323 1.391 . S
C4323 H4311 0.950 . S
C4323 C4319 1.393 . S
C4323 C4322 1.391 . S
H4324 C4332 0.950 . S
H4325 C4337 0.950 . S
H4326 C4334 0.950 . S
H4327 C4336 0.950 . S
H4328 C4338 0.950 . S
H4329 C4340 0.950 . S
H4330 C4342 0.950 . S
H4331 C4343 0.950 . S
C4332 H4324 0.950 . S
C4332 C4333 1.386 . S
C4332 C4334 1.391 . S
C4333 C4332 1.386 . S
C4333 C4337 1.393 . S
C4334 H4326 0.950 . S
C4334 C4332 1.391 . S
C4334 C4335 1.400 . S
C4335 C4334 1.400 . S
C4335 C4336 1.398 . S
C4335 C4341 1.491 . S
C4336 H4327 0.950 . S
C4336 C4335 1.398 . S
C4336 C4337 1.391 . S
C4337 H4325 0.950 . S
C4337 C4333 1.393 . S
C4337 C4336 1.391 . S
C4338 H4328 0.950 . S
C4338 C4339 1.386 . S
C4338 C4340 1.391 . S
C4339 C4338 1.386 . S
C4339 C4343 1.393 . S
C4340 H4329 0.950 . S
C4340 C4338 1.391 . S
C4340 C4341 1.400 . S
C4341 C4335 1.491 . S
C4341 C4340 1.400 . S
C4341 C4342 1.398 . S
C4342 H4330 0.950 . S
C4342 C4341 1.398 . S
C4342 C4343 1.391 . S
C4343 H4331 0.950 . S
C4343 C4339 1.393 . S
C4343 C4342 1.391 . S
H4344 C4352 0.950 . S
H4345 C4357 0.950 . S
H4346 C4354 0.950 . S
H4347 C4356 0.950 . S
H4348 C4358 0.950 . S
H4349 C4360 0.950 . S
H4350 C4362 0.950 . S
H4351 C4363 0.950 . S
C4352 H4344 0.950 . S
C4352 C4353 1.386 . S
C4352 C4354 1.391 . S
C4353 C4352 1.386 . S
C4353 C4357 1.393 . S
C4354 H4346 0.950 . S
C4354 C4352 1.391 . S
C4354 C4355 1.400 . S
C4355 C4354 1.400 . S
C4355 C4356 1.398 . S
C4355 C4361 1.491 . S
C4356 H4347 0.950 . S
C4356 C4355 1.398 . S
C4356 C4357 1.391 . S
C4357 H4345 0.950 . S
C4357 C4353 1.393 . S
C4357 C4356 1.391 . S
C4358 H4348 0.950 . S
C4358 C4359 1.386 . S
C4358 C4360 1.391 . S
C4359 C4358 1.386 . S
C4359 C4363 1.393 . S
C4360 H4349 0.950 . S
C4360 C4358 1.391 . S
C4360 C4361 1.400 . S
C4361 C4355 1.491 . S
C4361 C4360 1.400 . S
C4361 C4362 1.398 . S
C4362 H4350 0.950 . S
C4362 C4361 1.398 . S
C4362 C4363 1.391 . S
C4363 H4351 0.950 . S
C4363 C4359 1.393 . S
C4363 C4362 1.391 . S
H4364 C4372 0.950 . S
H4365 C4377 0.950 . S
H4366 C4374 0.950 . S
H4367 C4376 0.950 . S
H4368 C4378 0.950 . S
H4369 C4380 0.950 . S
H4370 C4382 0.950 . S
H4371 C4383 0.950 . S
C4372 H4364 0.950 . S
C4372 C4373 1.386 . S
C4372 C4374 1.391 . S
C4373 C4372 1.386 . S
C4373 C4377 1.393 . S
C4374 H4366 0.950 . S
C4374 C4372 1.391 . S
C4374 C4375 1.400 . S
C4375 C4374 1.400 . S
C4375 C4376 1.398 . S
C4375 C4381 1.491 . S
C4376 H4367 0.950 . S
C4376 C4375 1.398 . S
C4376 C4377 1.391 . S
C4377 H4365 0.950 . S
C4377 C4373 1.393 . S
C4377 C4376 1.391 . S
C4378 H4368 0.950 . S
C4378 C4379 1.386 . S
C4378 C4380 1.391 . S
C4379 C4378 1.386 . S
C4379 C4383 1.393 . S
C4380 H4369 0.950 . S
C4380 C4378 1.391 . S
C4380 C4381 1.400 . S
C4381 C4375 1.491 . S
C4381 C4380 1.400 . S
C4381 C4382 1.398 . S
C4382 H4370 0.950 . S
C4382 C4381 1.398 . S
C4382 C4383 1.391 . S
C4383 H4371 0.950 . S
C4383 C4379 1.393 . S
C4383 C4382 1.391 . S
H4384 C4392 0.950 . S
H4385 C4397 0.950 . S
H4386 C4394 0.950 . S
H4387 C4396 0.950 . S
H4388 C4398 0.950 . S
H4389 C4400 0.950 . S
H4390 C4402 0.950 . S
H4391 C4403 0.950 . S
C4392 H4384 0.950 . S
C4392 C4393 1.386 . S
C4392 C4394 1.391 . S
C4393 C4392 1.386 . S
C4393 C4397 1.393 . S
C4394 H4386 0.950 . S
C4394 C4392 1.391 . S
C4394 C4395 1.400 . S
C4395 C4394 1.400 . S
C4395 C4396 1.398 . S
C4395 C4401 1.491 . S
C4396 H4387 0.950 . S
C4396 C4395 1.398 . S
C4396 C4397 1.391 . S
C4397 H4385 0.950 . S
C4397 C4393 1.393 . S
C4397 C4396 1.391 . S
C4398 H4388 0.950 . S
C4398 C4399 1.386 . S
C4398 C4400 1.391 . S
C4399 C4398 1.386 . S
C4399 C4403 1.393 . S
C4400 H4389 0.950 . S
C4400 C4398 1.391 . S
C4400 C4401 1.400 . S
C4401 C4395 1.491 . S
C4401 C4400 1.400 . S
C4401 C4402 1.398 . S
C4402 H4390 0.950 . S
C4402 C4401 1.398 . S
C4402 C4403 1.391 . S
C4403 H4391 0.950 . S
C4403 C4399 1.393 . S
C4403 C4402 1.391 . S
H4404 C4412 0.950 . S
H4405 C4417 0.950 . S
H4406 C4414 0.950 . S
H4407 C4416 0.950 . S
H4408 C4418 0.950 . S
H4409 C4420 0.950 . S
H4410 C4422 0.950 . S
H4411 C4423 0.950 . S
C4412 H4404 0.950 . S
C4412 C4413 1.386 . S
C4412 C4414 1.391 . S
C4413 C4412 1.386 . S
C4413 C4417 1.393 . S
C4414 H4406 0.950 . S
C4414 C4412 1.391 . S
C4414 C4415 1.400 . S
C4415 C4414 1.400 . S
C4415 C4416 1.398 . S
C4415 C4421 1.491 . S
C4416 H4407 0.950 . S
C4416 C4415 1.398 . S
C4416 C4417 1.391 . S
C4417 H4405 0.950 . S
C4417 C4413 1.393 . S
C4417 C4416 1.391 . S
C4418 H4408 0.950 . S
C4418 C4419 1.386 . S
C4418 C4420 1.391 . S
C4419 C4418 1.386 . S
C4419 C4423 1.393 . S
C4420 H4409 0.950 . S
C4420 C4418 1.391 . S
C4420 C4421 1.400 . S
C4421 C4415 1.491 . S
C4421 C4420 1.400 . S
C4421 C4422 1.398 . S
C4422 H4410 0.950 . S
C4422 C4421 1.398 . S
C4422 C4423 1.391 . S
C4423 H4411 0.950 . S
C4423 C4419 1.393 . S
C4423 C4422 1.391 . S
H4424 C4432 0.950 . S
H4425 C4437 0.950 . S
H4426 C4434 0.950 . S
H4427 C4436 0.950 . S
H4428 C4438 0.950 . S
H4429 C4440 0.950 . S
H4430 C4442 0.950 . S
H4431 C4443 0.950 . S
C4432 H4424 0.950 . S
C4432 C4433 1.386 . S
C4432 C4434 1.391 . S
C4433 C4432 1.386 . S
C4433 C4437 1.393 . S
C4434 H4426 0.950 . S
C4434 C4432 1.391 . S
C4434 C4435 1.400 . S
C4435 C4434 1.400 . S
C4435 C4436 1.398 . S
C4435 C4441 1.491 . S
C4436 H4427 0.950 . S
C4436 C4435 1.398 . S
C4436 C4437 1.391 . S
C4437 H4425 0.950 . S
C4437 C4433 1.393 . S
C4437 C4436 1.391 . S
C4438 H4428 0.950 . S
C4438 C4439 1.386 . S
C4438 C4440 1.391 . S
C4439 C4438 1.386 . S
C4439 C4443 1.393 . S
C4440 H4429 0.950 . S
C4440 C4438 1.391 . S
C4440 C4441 1.400 . S
C4441 C4435 1.491 . S
C4441 C4440 1.400 . S
C4441 C4442 1.398 . S
C4442 H4430 0.950 . S
C4442 C4441 1.398 . S
C4442 C4443 1.391 . S
C4443 H4431 0.950 . S
C4443 C4439 1.393 . S
C4443 C4442 1.391 . S
H4444 C4452 0.950 . S
H4445 C4457 0.950 . S
H4446 C4454 0.950 . S
H4447 C4456 0.950 . S
H4448 C4458 0.950 . S
H4449 C4460 0.950 . S
H4450 C4462 0.950 . S
H4451 C4463 0.950 . S
C4452 H4444 0.950 . S
C4452 C4453 1.386 . S
C4452 C4454 1.391 . S
C4453 C4452 1.386 . S
C4453 C4457 1.393 . S
C4454 H4446 0.950 . S
C4454 C4452 1.391 . S
C4454 C4455 1.400 . S
C4455 C4454 1.400 . S
C4455 C4456 1.398 . S
C4455 C4461 1.491 . S
C4456 H4447 0.950 . S
C4456 C4455 1.398 . S
C4456 C4457 1.391 . S
C4457 H4445 0.950 . S
C4457 C4453 1.393 . S
C4457 C4456 1.391 . S
C4458 H4448 0.950 . S
C4458 C4459 1.386 . S
C4458 C4460 1.391 . S
C4459 C4458 1.386 . S
C4459 C4463 1.393 . S
C4460 H4449 0.950 . S
C4460 C4458 1.391 . S
C4460 C4461 1.400 . S
C4461 C4455 1.491 . S
C4461 C4460 1.400 . S
C4461 C4462 1.398 . S
C4462 H4450 0.950 . S
C4462 C4461 1.398 . S
C4462 C4463 1.391 . S
C4463 H4451 0.950 . S
C4463 C4459 1.393 . S
C4463 C4462 1.391 . S
H4464 C4472 0.950 . S
H4465 C4477 0.950 . S
H4466 C4474 0.950 . S
H4467 C4476 0.950 . S
H4468 C4478 0.950 . S
H4469 C4480 0.950 . S
H4470 C4482 0.950 . S
H4471 C4483 0.950 . S
C4472 H4464 0.950 . S
C4472 C4473 1.386 . S
C4472 C4474 1.391 . S
C4473 C4472 1.386 . S
C4473 C4477 1.393 . S
C4474 H4466 0.950 . S
C4474 C4472 1.391 . S
C4474 C4475 1.400 . S
C4475 C4474 1.400 . S
C4475 C4476 1.398 . S
C4475 C4481 1.491 . S
C4476 H4467 0.950 . S
C4476 C4475 1.398 . S
C4476 C4477 1.391 . S
C4477 H4465 0.950 . S
C4477 C4473 1.393 . S
C4477 C4476 1.391 . S
C4478 H4468 0.950 . S
C4478 C4479 1.386 . S
C4478 C4480 1.391 . S
C4479 C4478 1.386 . S
C4479 C4483 1.393 . S
C4480 H4469 0.950 . S
C4480 C4478 1.391 . S
C4480 C4481 1.400 . S
C4481 C4475 1.491 . S
C4481 C4480 1.400 . S
C4481 C4482 1.398 . S
C4482 H4470 0.950 . S
C4482 C4481 1.398 . S
C4482 C4483 1.391 . S
C4483 H4471 0.950 . S
C4483 C4479 1.393 . S
C4483 C4482 1.391 . S
H4484 C4492 0.950 . S
H4485 C4497 0.950 . S
H4486 C4494 0.950 . S
H4487 C4496 0.950 . S
H4488 C4498 0.950 . S
H4489 C4500 0.950 . S
H4490 C4502 0.950 . S
H4491 C4503 0.950 . S
C4492 H4484 0.950 . S
C4492 C4493 1.386 . S
C4492 C4494 1.391 . S
C4493 C4492 1.386 . S
C4493 C4497 1.393 . S
C4494 H4486 0.950 . S
C4494 C4492 1.391 . S
C4494 C4495 1.400 . S
C4495 C4494 1.400 . S
C4495 C4496 1.398 . S
C4495 C4501 1.491 . S
C4496 H4487 0.950 . S
C4496 C4495 1.398 . S
C4496 C4497 1.391 . S
C4497 H4485 0.950 . S
C4497 C4493 1.393 . S
C4497 C4496 1.391 . S
C4498 H4488 0.950 . S
C4498 C4499 1.386 . S
C4498 C4500 1.391 . S
C4499 C4498 1.386 . S
C4499 C4503 1.393 . S
C4500 H4489 0.950 . S
C4500 C4498 1.391 . S
C4500 C4501 1.400 . S
C4501 C4495 1.491 . S
C4501 C4500 1.400 . S
C4501 C4502 1.398 . S
C4502 H4490 0.950 . S
C4502 C4501 1.398 . S
C4502 C4503 1.391 . S
C4503 H4491 0.950 . S
C4503 C4499 1.393 . S
C4503 C4502 1.391 . S
H4504 C4512 0.950 . S
H4505 C4517 0.950 . S
H4506 C4514 0.950 . S
H4507 C4516 0.950 . S
H4508 C4518 0.950 . S
H4509 C4520 0.950 . S
H4510 C4522 0.950 . S
H4511 C4523 0.950 . S
C4512 H4504 0.950 . S
C4512 C4513 1.386 . S
C4512 C4514 1.391 . S
C4513 C4512 1.386 . S
C4513 C4517 1.393 . S
C4514 H4506 0.950 . S
C4514 C4512 1.391 . S
C4514 C4515 1.400 . S
C4515 C4514 1.400 . S
C4515 C4516 1.398 . S
C4515 C4521 1.491 . S
C4516 H4507 0.950 . S
C4516 C4515 1.398 . S
C4516 C4517 1.391 . S
C4517 H4505 0.950 . S
C4517 C4513 1.393 . S
C4517 C4516 1.391 . S
C4518 H4508 0.950 . S
C4518 C4519 1.386 . S
C4518 C4520 1.391 . S
C4519 C4518 1.386 . S
C4519 C4523 1.393 . S
C4520 H4509 0.950 . S
C4520 C4518 1.391 . S
C4520 C4521 1.400 . S
C4521 C4515 1.491 . S
C4521 C4520 1.400 . S
C4521 C4522 1.398 . S
C4522 H4510 0.950 . S
C4522 C4521 1.398 . S
C4522 C4523 1.391 . S
C4523 H4511 0.950 . S
C4523 C4519 1.393 . S
C4523 C4522 1.391 . S
H4524 C4532 0.950 . S
H4525 C4537 0.950 . S
H4526 C4534 0.950 . S
H4527 C4536 0.950 . S
H4528 C4538 0.950 . S
H4529 C4540 0.950 . S
H4530 C4542 0.950 . S
H4531 C4543 0.950 . S
C4532 H4524 0.950 . S
C4532 C4533 1.386 . S
C4532 C4534 1.391 . S
C4533 C4532 1.386 . S
C4533 C4537 1.393 . S
C4534 H4526 0.950 . S
C4534 C4532 1.391 . S
C4534 C4535 1.400 . S
C4535 C4534 1.400 . S
C4535 C4536 1.398 . S
C4535 C4541 1.491 . S
C4536 H4527 0.950 . S
C4536 C4535 1.398 . S
C4536 C4537 1.391 . S
C4537 H4525 0.950 . S
C4537 C4533 1.393 . S
C4537 C4536 1.391 . S
C4538 H4528 0.950 . S
C4538 C4539 1.386 . S
C4538 C4540 1.391 . S
C4539 C4538 1.386 . S
C4539 C4543 1.393 . S
C4540 H4529 0.950 . S
C4540 C4538 1.391 . S
C4540 C4541 1.400 . S
C4541 C4535 1.491 . S
C4541 C4540 1.400 . S
C4541 C4542 1.398 . S
C4542 H4530 0.950 . S
C4542 C4541 1.398 . S
C4542 C4543 1.391 . S
C4543 H4531 0.950 . S
C4543 C4539 1.393 . S
C4543 C4542 1.391 . S
H4544 C4552 0.950 . S
H4545 C4557 0.950 . S
H4546 C4554 0.950 . S
H4547 C4556 0.950 . S
H4548 C4558 0.950 . S
H4549 C4560 0.950 . S
H4550 C4562 0.950 . S
H4551 C4563 0.950 . S
C4552 H4544 0.950 . S
C4552 C4553 1.386 . S
C4552 C4554 1.391 . S
C4553 C4552 1.386 . S
C4553 C4557 1.393 . S
C4554 H4546 0.950 . S
C4554 C4552 1.391 . S
C4554 C4555 1.400 . S
C4555 C4554 1.400 . S
C4555 C4556 1.398 . S
C4555 C4561 1.491 . S
C4556 H4547 0.950 . S
C4556 C4555 1.398 . S
C4556 C4557 1.391 . S
C4557 H4545 0.950 . S
C4557 C4553 1.393 . S
C4557 C4556 1.391 . S
C4558 H4548 0.950 . S
C4558 C4559 1.386 . S
C4558 C4560 1.391 . S
C4559 C4558 1.386 . S
C4559 C4563 1.393 . S
C4560 H4549 0.950 . S
C4560 C4558 1.391 . S
C4560 C4561 1.400 . S
C4561 C4555 1.491 . S
C4561 C4560 1.400 . S
C4561 C4562 1.398 . S
C4562 H4550 0.950 . S
C4562 C4561 1.398 . S
C4562 C4563 1.391 . S
C4563 H4551 0.950 . S
C4563 C4559 1.393 . S
C4563 C4562 1.391 . S
H4564 C4572 0.950 . S
H4565 C4577 0.950 . S
H4566 C4574 0.950 . S
H4567 C4576 0.950 . S
H4568 C4578 0.950 . S
H4569 C4580 0.950 . S
H4570 C4582 0.950 . S
H4571 C4583 0.950 . S
C4572 H4564 0.950 . S
C4572 C4573 1.386 . S
C4572 C4574 1.391 . S
C4573 C4572 1.386 . S
C4573 C4577 1.393 . S
C4574 H4566 0.950 . S
C4574 C4572 1.391 . S
C4574 C4575 1.400 . S
C4575 C4574 1.400 . S
C4575 C4576 1.398 . S
C4575 C4581 1.491 . S
C4576 H4567 0.950 . S
C4576 C4575 1.398 . S
C4576 C4577 1.391 . S
C4577 H4565 0.950 . S
C4577 C4573 1.393 . S
C4577 C4576 1.391 . S
C4578 H4568 0.950 . S
C4578 C4579 1.386 . S
C4578 C4580 1.391 . S
C4579 C4578 1.386 . S
C4579 C4583 1.393 . S
C4580 H4569 0.950 . S
C4580 C4578 1.391 . S
C4580 C4581 1.400 . S
C4581 C4575 1.491 . S
C4581 C4580 1.400 . S
C4581 C4582 1.398 . S
C4582 H4570 0.950 . S
C4582 C4581 1.398 . S
C4582 C4583 1.391 . S
C4583 H4571 0.950 . S
C4583 C4579 1.393 . S
C4583 C4582 1.391 . S
H4584 C4592 0.950 . S
H4585 C4597 0.950 . S
H4586 C4594 0.950 . S
H4587 C4596 0.950 . S
H4588 C4598 0.950 . S
H4589 C4600 0.950 . S
H4590 C4602 0.950 . S
H4591 C4603 0.950 . S
C4592 H4584 0.950 . S
C4592 C4593 1.386 . S
C4592 C4594 1.391 . S
C4593 C4592 1.386 . S
C4593 C4597 1.393 . S
C4594 H4586 0.950 . S
C4594 C4592 1.391 . S
C4594 C4595 1.400 . S
C4595 C4594 1.400 . S
C4595 C4596 1.398 . S
C4595 C4601 1.491 . S
C4596 H4587 0.950 . S
C4596 C4595 1.398 . S
C4596 C4597 1.391 . S
C4597 H4585 0.950 . S
C4597 C4593 1.393 . S
C4597 C4596 1.391 . S
C4598 H4588 0.950 . S
C4598 C4599 1.386 . S
C4598 C4600 1.391 . S
C4599 C4598 1.386 . S
C4599 C4603 1.393 . S
C4600 H4589 0.950 . S
C4600 C4598 1.391 . S
C4600 C4601 1.400 . S
C4601 C4595 1.491 . S
C4601 C4600 1.400 . S
C4601 C4602 1.398 . S
C4602 H4590 0.950 . S
C4602 C4601 1.398 . S
C4602 C4603 1.391 . S
C4603 H4591 0.950 . S
C4603 C4599 1.393 . S
C4603 C4602 1.391 . S
H4604 C4612 0.950 . S
H4605 C4617 0.950 . S
H4606 C4614 0.950 . S
H4607 C4616 0.950 . S
H4608 C4618 0.950 . S
H4609 C4620 0.950 . S
H4610 C4622 0.950 . S
H4611 C4623 0.950 . S
C4612 H4604 0.950 . S
C4612 C4613 1.386 . S
C4612 C4614 1.391 . S
C4613 C4612 1.386 . S
C4613 C4617 1.393 . S
C4614 H4606 0.950 . S
C4614 C4612 1.391 . S
C4614 C4615 1.400 . S
C4615 C4614 1.400 . S
C4615 C4616 1.398 . S
C4615 C4621 1.491 . S
C4616 H4607 0.950 . S
C4616 C4615 1.398 . S
C4616 C4617 1.391 . S
C4617 H4605 0.950 . S
C4617 C4613 1.393 . S
C4617 C4616 1.391 . S
C4618 H4608 0.950 . S
C4618 C4619 1.386 . S
C4618 C4620 1.391 . S
C4619 C4618 1.386 . S
C4619 C4623 1.393 . S
C4620 H4609 0.950 . S
C4620 C4618 1.391 . S
C4620 C4621 1.400 . S
C4621 C4615 1.491 . S
C4621 C4620 1.400 . S
C4621 C4622 1.398 . S
C4622 H4610 0.950 . S
C4622 C4621 1.398 . S
C4622 C4623 1.391 . S
C4623 H4611 0.950 . S
C4623 C4619 1.393 . S
C4623 C4622 1.391 . S
H4624 C4632 0.950 . S
H4625 C4637 0.950 . S
H4626 C4634 0.950 . S
H4627 C4636 0.950 . S
H4628 C4638 0.950 . S
H4629 C4640 0.950 . S
H4630 C4642 0.950 . S
H4631 C4643 0.950 . S
C4632 H4624 0.950 . S
C4632 C4633 1.386 . S
C4632 C4634 1.391 . S
C4633 C4632 1.386 . S
C4633 C4637 1.393 . S
C4634 H4626 0.950 . S
C4634 C4632 1.391 . S
C4634 C4635 1.400 . S
C4635 C4634 1.400 . S
C4635 C4636 1.398 . S
C4635 C4641 1.491 . S
C4636 H4627 0.950 . S
C4636 C4635 1.398 . S
C4636 C4637 1.391 . S
C4637 H4625 0.950 . S
C4637 C4633 1.393 . S
C4637 C4636 1.391 . S
C4638 H4628 0.950 . S
C4638 C4639 1.386 . S
C4638 C4640 1.391 . S
C4639 C4638 1.386 . S
C4639 C4643 1.393 . S
C4640 H4629 0.950 . S
C4640 C4638 1.391 . S
C4640 C4641 1.400 . S
C4641 C4635 1.491 . S
C4641 C4640 1.400 . S
C4641 C4642 1.398 . S
C4642 H4630 0.950 . S
C4642 C4641 1.398 . S
C4642 C4643 1.391 . S
C4643 H4631 0.950 . S
C4643 C4639 1.393 . S
C4643 C4642 1.391 . S
H4644 C4652 0.950 . S
H4645 C4657 0.950 . S
H4646 C4654 0.950 . S
H4647 C4656 0.950 . S
H4648 C4658 0.950 . S
H4649 C4660 0.950 . S
H4650 C4662 0.950 . S
H4651 C4663 0.950 . S
C4652 H4644 0.950 . S
C4652 C4653 1.386 . S
C4652 C4654 1.391 . S
C4653 C4652 1.386 . S
C4653 C4657 1.393 . S
C4654 H4646 0.950 . S
C4654 C4652 1.391 . S
C4654 C4655 1.400 . S
C4655 C4654 1.400 . S
C4655 C4656 1.398 . S
C4655 C4661 1.491 . S
C4656 H4647 0.950 . S
C4656 C4655 1.398 . S
C4656 C4657 1.391 . S
C4657 H4645 0.950 . S
C4657 C4653 1.393 . S
C4657 C4656 1.391 . S
C4658 H4648 0.950 . S
C4658 C4659 1.386 . S
C4658 C4660 1.391 . S
C4659 C4658 1.386 . S
C4659 C4663 1.393 . S
C4660 H4649 0.950 . S
C4660 C4658 1.391 . S
C4660 C4661 1.400 . S
C4661 C4655 1.491 . S
C4661 C4660 1.400 . S
C4661 C4662 1.398 . S
C4662 H4650 0.950 . S
C4662 C4661 1.398 . S
C4662 C4663 1.391 . S
C4663 H4651 0.950 . S
C4663 C4659 1.393 . S
C4663 C4662 1.391 . S
H4664 C4672 0.950 . S
H4665 C4677 0.950 . S
H4666 C4674 0.950 . S
H4667 C4676 0.950 . S
H4668 C4678 0.950 . S
H4669 C4680 0.950 . S
H4670 C4682 0.950 . S
H4671 C4683 0.950 . S
C4672 H4664 0.950 . S
C4672 C4673 1.386 . S
C4672 C4674 1.391 . S
C4673 C4672 1.386 . S
C4673 C4677 1.393 . S
C4674 H4666 0.950 . S
C4674 C4672 1.391 . S
C4674 C4675 1.400 . S
C4675 C4674 1.400 . S
C4675 C4676 1.398 . S
C4675 C4681 1.491 . S
C4676 H4667 0.950 . S
C4676 C4675 1.398 . S
C4676 C4677 1.391 . S
C4677 H4665 0.950 . S
C4677 C4673 1.393 . S
C4677 C4676 1.391 . S
C4678 H4668 0.950 . S
C4678 C4679 1.386 . S
C4678 C4680 1.391 . S
C4679 C4678 1.386 . S
C4679 C4683 1.393 . S
C4680 H4669 0.950 . S
C4680 C4678 1.391 . S
C4680 C4681 1.400 . S
C4681 C4675 1.491 . S
C4681 C4680 1.400 . S
C4681 C4682 1.398 . S
C4682 H4670 0.950 . S
C4682 C4681 1.398 . S
C4682 C4683 1.391 . S
C4683 H4671 0.950 . S
C4683 C4679 1.393 . S
C4683 C4682 1.391 . S
H4684 C4692 0.950 . S
H4685 C4697 0.950 . S
H4686 C4694 0.950 . S
H4687 C4696 0.950 . S
H4688 C4698 0.950 . S
H4689 C4700 0.950 . S
H4690 C4702 0.950 . S
H4691 C4703 0.950 . S
C4692 H4684 0.950 . S
C4692 C4693 1.386 . S
C4692 C4694 1.391 . S
C4693 C4692 1.386 . S
C4693 C4697 1.393 . S
C4694 H4686 0.950 . S
C4694 C4692 1.391 . S
C4694 C4695 1.400 . S
C4695 C4694 1.400 . S
C4695 C4696 1.398 . S
C4695 C4701 1.491 . S
C4696 H4687 0.950 . S
C4696 C4695 1.398 . S
C4696 C4697 1.391 . S
C4697 H4685 0.950 . S
C4697 C4693 1.393 . S
C4697 C4696 1.391 . S
C4698 H4688 0.950 . S
C4698 C4699 1.386 . S
C4698 C4700 1.391 . S
C4699 C4698 1.386 . S
C4699 C4703 1.393 . S
C4700 H4689 0.950 . S
C4700 C4698 1.391 . S
C4700 C4701 1.400 . S
C4701 C4695 1.491 . S
C4701 C4700 1.400 . S
C4701 C4702 1.398 . S
C4702 H4690 0.950 . S
C4702 C4701 1.398 . S
C4702 C4703 1.391 . S
C4703 H4691 0.950 . S
C4703 C4699 1.393 . S
C4703 C4702 1.391 . S
H4704 C4712 0.950 . S
H4705 C4717 0.950 . S
H4706 C4714 0.950 . S
H4707 C4716 0.950 . S
H4708 C4718 0.950 . S
H4709 C4720 0.910 1_556 S
H4710 C4722 0.950 . S
H4711 C4723 0.950 . S
C4712 H4704 0.950 . S
C4712 C4713 1.386 . S
C4712 C4714 1.391 . S
C4713 C4712 1.386 . S
C4713 C4717 1.393 . S
C4714 H4706 0.950 . S
C4714 C4712 1.391 . S
C4714 C4715 1.400 . S
C4715 C4714 1.400 . S
C4715 C4716 1.398 . S
C4715 C4721 1.491 . S
C4716 H4707 0.950 . S
C4716 C4715 1.398 . S
C4716 C4717 1.391 . S
C4717 H4705 0.950 . S
C4717 C4713 1.393 . S
C4717 C4716 1.391 . S
C4718 H4708 0.950 . S
C4718 C4719 1.386 . S
C4718 C4720 1.391 . S
C4719 C4718 1.386 . S
C4719 C4723 1.393 . S
C4720 H4709 0.910 1_554 S
C4720 C4718 1.391 . S
C4720 C4721 1.400 1_554 S
C4721 C4715 1.491 . S
C4721 C4720 1.400 1_556 S
C4721 C4722 1.398 1_556 S
C4722 H4710 0.950 . S
C4722 C4721 1.398 1_554 S
C4722 C4723 1.391 . S
C4723 H4711 0.950 . S
C4723 C4719 1.393 . S
C4723 C4722 1.391 . S
H4724 C4732 0.950 . S
H4725 C4737 0.950 . S
H4726 C4734 0.964 . S
H4727 C4736 0.969 . S
H4728 C4738 0.950 . S
H4729 C4740 0.950 . S
H4730 C4742 0.950 . S
H4731 C4743 0.950 . S
C4732 H4724 0.950 . S
C4732 C4733 1.386 . S
C4732 C4734 1.391 . S
C4733 C4732 1.386 . S
C4733 C4737 1.393 . S
C4734 H4726 0.964 . S
C4734 C4732 1.391 . S
C4734 C4735 1.400 1_554 S
C4735 C4734 1.400 1_556 S
C4735 C4736 1.398 1_556 S
C4735 C4741 1.491 . S
C4736 H4727 0.969 . S
C4736 C4735 1.398 1_554 S
C4736 C4737 1.391 . S
C4737 H4725 0.950 . S
C4737 C4733 1.393 . S
C4737 C4736 1.391 . S
C4738 H4728 0.950 . S
C4738 C4739 1.386 . S
C4738 C4740 1.391 . S
C4739 C4738 1.386 . S
C4739 C4743 1.393 . S
C4740 H4729 0.950 . S
C4740 C4738 1.391 . S
C4740 C4741 1.400 . S
C4741 C4735 1.491 . S
C4741 C4740 1.400 . S
C4741 C4742 1.398 . S
C4742 H4730 0.950 . S
C4742 C4741 1.398 . S
C4742 C4743 1.391 . S
C4743 H4731 0.950 . S
C4743 C4739 1.393 . S
C4743 C4742 1.391 . S
H4744 C4752 0.950 . S
H4745 C4757 0.950 . S
H4746 C4754 0.929 1_556 S
H4747 C4756 0.950 . S
H4748 C4758 0.950 . S
H4749 C4760 0.950 . S
H4750 C4762 0.950 . S
H4751 C4763 0.950 . S
C4752 H4744 0.950 . S
C4752 C4753 1.386 . S
C4752 C4754 1.391 . S
C4753 C4752 1.386 . S
C4753 C4757 1.393 . S
C4754 H4746 0.929 1_554 S
C4754 C4752 1.391 . S
C4754 C4755 1.400 1_554 S
C4755 C4754 1.400 1_556 S
C4755 C4756 1.398 1_556 S
C4755 C4761 1.491 . S
C4756 H4747 0.950 . S
C4756 C4755 1.398 1_554 S
C4756 C4757 1.391 . S
C4757 H4745 0.950 . S
C4757 C4753 1.393 . S
C4757 C4756 1.391 . S
C4758 H4748 0.950 . S
C4758 C4759 1.386 . S
C4758 C4760 1.391 . S
C4759 C4758 1.386 . S
C4759 C4763 1.393 . S
C4760 H4749 0.950 . S
C4760 C4758 1.391 . S
C4760 C4761 1.400 . S
C4761 C4755 1.491 . S
C4761 C4760 1.400 . S
C4761 C4762 1.398 . S
C4762 H4750 0.950 . S
C4762 C4761 1.398 . S
C4762 C4763 1.391 . S
C4763 H4751 0.950 . S
C4763 C4759 1.393 . S
C4763 C4762 1.391 . S
H4764 C4772 0.950 . S
H4765 C4777 0.950 . S
H4766 C4774 0.950 . S
H4767 C4776 0.950 1_556 S
H4768 C4778 0.950 . S
H4769 C4780 0.950 . S
H4770 C4782 0.950 . S
H4771 C4783 0.950 . S
C4772 H4764 0.950 . S
C4772 C4773 1.386 . S
C4772 C4774 1.391 . S
C4773 C4772 1.386 . S
C4773 C4777 1.393 . S
C4774 H4766 0.950 . S
C4774 C4772 1.391 . S
C4774 C4775 1.400 1_554 S
C4775 C4774 1.400 1_556 S
C4775 C4776 1.398 1_556 S
C4775 C4781 1.491 . S
C4776 H4767 0.950 1_554 S
C4776 C4775 1.398 1_554 S
C4776 C4777 1.391 . S
C4777 H4765 0.950 . S
C4777 C4773 1.393 . S
C4777 C4776 1.391 . S
C4778 H4768 0.950 . S
C4778 C4779 1.386 . S
C4778 C4780 1.391 . S
C4779 C4778 1.386 . S
C4779 C4783 1.393 . S
C4780 H4769 0.950 . S
C4780 C4778 1.391 . S
C4780 C4781 1.400 . S
C4781 C4775 1.491 . S
C4781 C4780 1.400 . S
C4781 C4782 1.398 . S
C4782 H4770 0.950 . S
C4782 C4781 1.398 . S
C4782 C4783 1.391 . S
C4783 H4771 0.950 . S
C4783 C4779 1.393 . S
C4783 C4782 1.391 . S
H4784 C4792 0.950 . S
H4785 C4797 0.950 . S
H4786 C4794 0.950 . S
H4787 C4796 0.950 . S
H4788 C4798 0.950 . S
H4789 C4800 0.950 1_554 S
H4790 C4802 0.950 . S
H4791 C4803 0.950 . S
C4792 H4784 0.950 . S
C4792 C4793 1.386 . S
C4792 C4794 1.391 . S
C4793 C4792 1.386 . S
C4793 C4797 1.393 . S
C4794 H4786 0.950 . S
C4794 C4792 1.391 . S
C4794 C4795 1.400 . S
C4795 C4794 1.400 . S
C4795 C4796 1.398 . S
C4795 C4801 1.491 . S
C4796 H4787 0.950 . S
C4796 C4795 1.398 . S
C4796 C4797 1.391 . S
C4797 H4785 0.950 . S
C4797 C4793 1.393 . S
C4797 C4796 1.391 . S
C4798 H4788 0.950 . S
C4798 C4799 1.386 . S
C4798 C4800 1.391 . S
C4799 C4798 1.386 . S
C4799 C4803 1.393 . S
C4800 H4789 0.950 1_556 S
C4800 C4798 1.391 . S
C4800 C4801 1.400 1_556 S
C4801 C4795 1.491 . S
C4801 C4800 1.400 1_554 S
C4801 C4802 1.398 1_554 S
C4802 H4790 0.950 . S
C4802 C4801 1.398 1_556 S
C4802 C4803 1.391 . S
C4803 H4791 0.950 . S
C4803 C4799 1.393 . S
C4803 C4802 1.391 . S
H4804 C4812 0.950 . S
H4805 C4817 0.950 . S
H4806 C4814 0.994 . S
H4807 C4816 0.949 1_554 S
H4808 C4818 0.950 . S
H4809 C4820 0.950 . S
H4810 C4822 0.950 . S
H4811 C4823 0.950 . S
C4812 H4804 0.950 . S
C4812 C4813 1.386 . S
C4812 C4814 1.391 . S
C4813 C4812 1.386 . S
C4813 C4817 1.393 . S
C4814 H4806 0.994 . S
C4814 C4812 1.391 . S
C4814 C4815 1.400 1_556 S
C4815 C4814 1.400 1_554 S
C4815 C4816 1.398 1_554 S
C4815 C4821 1.491 . S
C4816 H4807 0.949 1_556 S
C4816 C4815 1.398 1_556 S
C4816 C4817 1.391 . S
C4817 H4805 0.950 . S
C4817 C4813 1.393 . S
C4817 C4816 1.391 . S
C4818 H4808 0.950 . S
C4818 C4819 1.386 . S
C4818 C4820 1.391 . S
C4819 C4818 1.386 . S
C4819 C4823 1.393 . S
C4820 H4809 0.950 . S
C4820 C4818 1.391 . S
C4820 C4821 1.400 . S
C4821 C4815 1.491 . S
C4821 C4820 1.400 . S
C4821 C4822 1.398 . S
C4822 H4810 0.950 . S
C4822 C4821 1.398 . S
C4822 C4823 1.391 . S
C4823 H4811 0.950 . S
C4823 C4819 1.393 . S
C4823 C4822 1.391 . S
H4824 C4832 0.950 . S
H4825 C4837 0.950 . S
H4826 C4834 0.950 . S
H4827 C4836 0.950 . S
H4828 C4838 0.950 . S
H4829 C4840 0.950 1_554 S
H4830 C4842 0.950 . S
H4831 C4843 0.950 . S
C4832 H4824 0.950 . S
C4832 C4833 1.386 . S
C4832 C4834 1.391 . S
C4833 C4832 1.386 . S
C4833 C4837 1.393 . S
C4834 H4826 0.950 . S
C4834 C4832 1.391 . S
C4834 C4835 1.400 . S
C4835 C4834 1.400 . S
C4835 C4836 1.398 . S
C4835 C4841 1.491 . S
C4836 H4827 0.950 . S
C4836 C4835 1.398 . S
C4836 C4837 1.391 . S
C4837 H4825 0.950 . S
C4837 C4833 1.393 . S
C4837 C4836 1.391 . S
C4838 H4828 0.950 . S
C4838 C4839 1.386 . S
C4838 C4840 1.391 . S
C4839 C4838 1.386 . S
C4839 C4843 1.393 . S
C4840 H4829 0.950 1_556 S
C4840 C4838 1.391 . S
C4840 C4841 1.400 1_556 S
C4841 C4835 1.491 . S
C4841 C4840 1.400 1_554 S
C4841 C4842 1.398 1_554 S
C4842 H4830 0.950 . S
C4842 C4841 1.398 1_556 S
C4842 C4843 1.391 . S
C4843 H4831 0.950 . S
C4843 C4839 1.393 . S
C4843 C4842 1.391 . S
H4844 C4852 0.950 . S
H4845 C4857 0.950 . S
H4846 C4854 0.934 1_554 S
H4847 C4856 0.950 . S
H4848 C4858 0.950 . S
H4849 C4860 0.950 . S
H4850 C4862 0.950 . S
H4851 C4863 0.950 . S
C4852 H4844 0.950 . S
C4852 C4853 1.386 . S
C4852 C4854 1.391 . S
C4853 C4852 1.386 . S
C4853 C4857 1.393 . S
C4854 H4846 0.934 1_556 S
C4854 C4852 1.391 . S
C4854 C4855 1.400 1_556 S
C4855 C4854 1.400 1_554 S
C4855 C4856 1.398 1_554 S
C4855 C4861 1.491 . S
C4856 H4847 0.950 . S
C4856 C4855 1.398 1_556 S
C4856 C4857 1.391 . S
C4857 H4845 0.950 . S
C4857 C4853 1.393 . S
C4857 C4856 1.391 . S
C4858 H4848 0.950 . S
C4858 C4859 1.386 . S
C4858 C4860 1.391 . S
C4859 C4858 1.386 . S
C4859 C4863 1.393 . S
C4860 H4849 0.950 . S
C4860 C4858 1.391 . S
C4860 C4861 1.400 . S
C4861 C4855 1.491 . S
C4861 C4860 1.400 . S
C4861 C4862 1.398 . S
C4862 H4850 0.950 . S
C4862 C4861 1.398 . S
C4862 C4863 1.391 . S
C4863 H4851 0.950 . S
C4863 C4859 1.393 . S
C4863 C4862 1.391 . S
H4864 C4872 0.950 . S
H4865 C4877 0.950 . S
H4866 C4874 0.950 . S
H4867 C4876 0.950 . S
H4868 C4878 0.950 . S
H4869 C4880 0.950 . S
H4870 C4882 0.905 1_655 S
H4871 C4883 0.950 . S
C4872 H4864 0.950 . S
C4872 C4873 1.386 . S
C4872 C4874 1.391 . S
C4873 C4872 1.386 . S
C4873 C4877 1.393 . S
C4874 H4866 0.950 . S
C4874 C4872 1.391 . S
C4874 C4875 1.400 . S
C4875 C4874 1.400 . S
C4875 C4876 1.398 . S
C4875 C4881 1.491 . S
C4876 H4867 0.950 . S
C4876 C4875 1.398 . S
C4876 C4877 1.391 . S
C4877 H4865 0.950 . S
C4877 C4873 1.393 . S
C4877 C4876 1.391 . S
C4878 H4868 0.950 . S
C4878 C4879 1.386 . S
C4878 C4880 1.391 . S
C4879 C4878 1.386 . S
C4879 C4883 1.393 . S
C4880 H4869 0.950 . S
C4880 C4878 1.391 . S
C4880 C4881 1.400 1_455 S
C4881 C4875 1.491 . S
C4881 C4880 1.400 1_655 S
C4881 C4882 1.398 1_655 S
C4882 H4870 0.905 1_455 S
C4882 C4881 1.398 1_455 S
C4882 C4883 1.391 . S
C4883 H4871 0.950 . S
C4883 C4879 1.393 . S
C4883 C4882 1.391 . S
H4884 C4892 0.950 . S
H4885 C4897 0.950 . S
H4886 C4894 0.948 1_565 S
H4887 C4896 0.994 . S
H4888 C4898 0.950 . S
H4889 C4900 0.950 . S
H4890 C4902 0.950 . S
H4891 C4903 0.950 . S
C4892 H4884 0.950 . S
C4892 C4893 1.386 . S
C4892 C4894 1.391 . S
C4893 C4892 1.386 . S
C4893 C4897 1.393 . S
C4894 H4886 0.948 1_545 S
C4894 C4892 1.391 . S
C4894 C4895 1.400 1_545 S
C4895 C4894 1.400 1_565 S
C4895 C4896 1.398 1_565 S
C4895 C4901 1.491 . S
C4896 H4887 0.994 . S
C4896 C4895 1.398 1_545 S
C4896 C4897 1.391 . S
C4897 H4885 0.950 . S
C4897 C4893 1.393 . S
C4897 C4896 1.391 . S
C4898 H4888 0.950 . S
C4898 C4899 1.386 . S
C4898 C4900 1.391 . S
C4899 C4898 1.386 . S
C4899 C4903 1.393 . S
C4900 H4889 0.950 . S
C4900 C4898 1.391 . S
C4900 C4901 1.400 . S
C4901 C4895 1.491 . S
C4901 C4900 1.400 . S
C4901 C4902 1.398 . S
C4902 H4890 0.950 . S
C4902 C4901 1.398 . S
C4902 C4903 1.391 . S
C4903 H4891 0.950 . S
C4903 C4899 1.393 . S
C4903 C4902 1.391 . S
H4904 C4912 0.950 . S
H4905 C4917 0.950 . S
H4906 C4914 0.950 . S
H4907 C4916 0.950 . S
H4908 C4918 0.950 . S
H4909 C4920 0.971 . S
H4910 C4922 0.948 . S
H4911 C4923 0.950 . S
C4912 H4904 0.950 . S
C4912 C4913 1.386 . S
C4912 C4914 1.391 . S
C4913 C4912 1.386 . S
C4913 C4917 1.393 . S
C4914 H4906 0.950 . S
C4914 C4912 1.391 . S
C4914 C4915 1.400 . S
C4915 C4914 1.400 . S
C4915 C4916 1.398 . S
C4915 C4921 1.491 . S
C4916 H4907 0.950 . S
C4916 C4915 1.398 . S
C4916 C4917 1.391 . S
C4917 H4905 0.950 . S
C4917 C4913 1.393 . S
C4917 C4916 1.391 . S
C4918 H4908 0.950 . S
C4918 C4919 1.386 . S
C4918 C4920 1.391 . S
C4919 C4918 1.386 . S
C4919 C4923 1.393 . S
C4920 H4909 0.971 . S
C4920 C4918 1.391 . S
C4920 C4921 1.400 1_655 S
C4921 C4915 1.491 . S
C4921 C4920 1.400 1_455 S
C4921 C4922 1.398 1_455 S
C4922 H4910 0.948 . S
C4922 C4921 1.398 1_655 S
C4922 C4923 1.391 . S
C4923 H4911 0.950 . S
C4923 C4919 1.393 . S
C4923 C4922 1.391 . S
H4924 C4932 0.950 . S
H4925 C4937 0.950 . S
H4926 C4934 0.950 . S
H4927 C4936 0.950 1_545 S
H4928 C4938 0.950 . S
H4929 C4940 0.950 . S
H4930 C4942 0.950 . S
H4931 C4943 0.950 . S
C4932 H4924 0.950 . S
C4932 C4933 1.386 . S
C4932 C4934 1.391 . S
C4933 C4932 1.386 . S
C4933 C4937 1.393 . S
C4934 H4926 0.950 . S
C4934 C4932 1.391 . S
C4934 C4935 1.400 1_565 S
C4935 C4934 1.400 1_545 S
C4935 C4936 1.398 1_545 S
C4935 C4941 1.491 . S
C4936 H4927 0.950 1_565 S
C4936 C4935 1.398 1_565 S
C4936 C4937 1.391 . S
C4937 H4925 0.950 . S
C4937 C4933 1.393 . S
C4937 C4936 1.391 . S
C4938 H4928 0.950 . S
C4938 C4939 1.386 . S
C4938 C4940 1.391 . S
C4939 C4938 1.386 . S
C4939 C4943 1.393 . S
C4940 H4929 0.950 . S
C4940 C4938 1.391 . S
C4940 C4941 1.400 . S
C4941 C4935 1.491 . S
C4941 C4940 1.400 . S
C4941 C4942 1.398 . S
C4942 H4930 0.950 . S
C4942 C4941 1.398 . S
C4942 C4943 1.391 . S
C4943 H4931 0.950 . S
C4943 C4939 1.393 . S
C4943 C4942 1.391 . S
H4944 C4952 0.950 . S
H4945 C4957 0.950 . S
H4946 C4954 0.950 1_655 S
H4947 C4956 0.950 . S
H4948 C4958 0.950 . S
H4949 C4960 0.950 . S
H4950 C4962 0.950 . S
H4951 C4963 0.950 . S
C4952 H4944 0.950 . S
C4952 C4953 1.386 . S
C4952 C4954 1.391 . S
C4953 C4952 1.386 . S
C4953 C4957 1.393 . S
C4954 H4946 0.950 1_455 S
C4954 C4952 1.391 . S
C4954 C4955 1.400 1_455 S
C4955 C4954 1.400 1_655 S
C4955 C4956 1.398 1_655 S
C4955 C4961 1.491 . S
C4956 H4947 0.950 . S
C4956 C4955 1.398 1_455 S
C4956 C4957 1.391 . S
C4957 H4945 0.950 . S
C4957 C4953 1.393 . S
C4957 C4956 1.391 . S
C4958 H4948 0.950 . S
C4958 C4959 1.386 . S
C4958 C4960 1.391 . S
C4959 C4958 1.386 . S
C4959 C4963 1.393 . S
C4960 H4949 0.950 . S
C4960 C4958 1.391 . S
C4960 C4961 1.400 . S
C4961 C4955 1.491 . S
C4961 C4960 1.400 . S
C4961 C4962 1.398 . S
C4962 H4950 0.950 . S
C4962 C4961 1.398 . S
C4962 C4963 1.391 . S
C4963 H4951 0.950 . S
C4963 C4959 1.393 . S
C4963 C4962 1.391 . S
H4964 C4972 0.950 . S
H4965 C4977 0.950 . S
H4966 C4974 0.950 . S
H4967 C4976 0.950 1_565 S
H4968 C4978 0.950 . S
H4969 C4980 0.950 . S
H4970 C4982 0.950 . S
H4971 C4983 0.950 . S
C4972 H4964 0.950 . S
C4972 C4973 1.386 . S
C4972 C4974 1.391 . S
C4973 C4972 1.386 . S
C4973 C4977 1.393 . S
C4974 H4966 0.950 . S
C4974 C4972 1.391 . S
C4974 C4975 1.400 1_545 S
C4975 C4974 1.400 1_565 S
C4975 C4976 1.398 1_565 S
C4975 C4981 1.491 . S
C4976 H4967 0.950 1_545 S
C4976 C4975 1.398 1_545 S
C4976 C4977 1.391 . S
C4977 H4965 0.950 . S
C4977 C4973 1.393 . S
C4977 C4976 1.391 . S
C4978 H4968 0.950 . S
C4978 C4979 1.386 . S
C4978 C4980 1.391 . S
C4979 C4978 1.386 . S
C4979 C4983 1.393 . S
C4980 H4969 0.950 . S
C4980 C4978 1.391 . S
C4980 C4981 1.400 . S
C4981 C4975 1.491 . S
C4981 C4980 1.400 . S
C4981 C4982 1.398 . S
C4982 H4970 0.950 . S
C4982 C4981 1.398 . S
C4982 C4983 1.391 . S
C4983 H4971 0.950 . S
C4983 C4979 1.393 . S
C4983 C4982 1.391 . S
H4984 C4992 0.950 . S
H4985 C4997 0.950 . S
H4986 C4994 0.950 . S
H4987 C4996 0.950 1_455 S
H4988 C4998 0.950 . S
H4989 C5000 0.950 . S
H4990 C5002 0.950 . S
H4991 C5003 0.950 . S
C4992 H4984 0.950 . S
C4992 C4993 1.386 . S
C4992 C4994 1.391 . S
C4993 C4992 1.386 . S
C4993 C4997 1.393 . S
C4994 H4986 0.950 . S
C4994 C4992 1.391 . S
C4994 C4995 1.400 1_655 S
C4995 C4994 1.400 1_455 S
C4995 C4996 1.398 1_455 S
C4995 C5001 1.491 . S
C4996 H4987 0.950 1_655 S
C4996 C4995 1.398 1_655 S
C4996 C4997 1.391 . S
C4997 H4985 0.950 . S
C4997 C4993 1.393 . S
C4997 C4996 1.391 . S
C4998 H4988 0.950 . S
C4998 C4999 1.386 . S
C4998 C5000 1.391 . S
C4999 C4998 1.386 . S
C4999 C5003 1.393 . S
C5000 H4989 0.950 . S
C5000 C4998 1.391 . S
C5000 C5001 1.400 . S
C5001 C4995 1.491 . S
C5001 C5000 1.400 . S
C5001 C5002 1.398 . S
C5002 H4990 0.950 . S
C5002 C5001 1.398 . S
C5002 C5003 1.391 . S
C5003 H4991 0.950 . S
C5003 C4999 1.393 . S
C5003 C5002 1.391 . S
H5004 C5012 0.950 . S
H5005 C5017 0.950 . S
H5006 C5014 0.912 1_545 S
H5007 C5016 0.950 . S
H5008 C5018 0.950 . S
H5009 C5020 0.950 . S
H5010 C5022 0.950 . S
H5011 C5023 0.950 . S
C5012 H5004 0.950 . S
C5012 C5013 1.386 . S
C5012 C5014 1.391 . S
C5013 C5012 1.386 . S
C5013 C5017 1.393 . S
C5014 H5006 0.912 1_565 S
C5014 C5012 1.391 . S
C5014 C5015 1.400 1_565 S
C5015 C5014 1.400 1_545 S
C5015 C5016 1.398 1_545 S
C5015 C5021 1.491 . S
C5016 H5007 0.950 . S
C5016 C5015 1.398 1_565 S
C5016 C5017 1.391 . S
C5017 H5005 0.950 . S
C5017 C5013 1.393 . S
C5017 C5016 1.391 . S
C5018 H5008 0.950 . S
C5018 C5019 1.386 . S
C5018 C5020 1.391 . S
C5019 C5018 1.386 . S
C5019 C5023 1.393 . S
C5020 H5009 0.950 . S
C5020 C5018 1.391 . S
C5020 C5021 1.400 . S
C5021 C5015 1.491 . S
C5021 C5020 1.400 . S
C5021 C5022 1.398 . S
C5022 H5010 0.950 . S
C5022 C5021 1.398 . S
C5022 C5023 1.391 . S
C5023 H5011 0.950 . S
C5023 C5019 1.393 . S
C5023 C5022 1.391 . S
H5024 C5032 0.950 . S
H5025 C5037 0.950 . S
H5026 C5034 0.950 . S
H5027 C5036 0.950 . S
H5028 C5038 0.950 . S
H5029 C5040 0.950 1_565 S
H5030 C5042 0.950 . S
H5031 C5043 0.950 . S
C5032 H5024 0.950 . S
C5032 C5033 1.386 . S
C5032 C5034 1.391 . S
C5033 C5032 1.386 . S
C5033 C5037 1.393 . S
C5034 H5026 0.950 . S
C5034 C5032 1.391 . S
C5034 C5035 1.400 . S
C5035 C5034 1.400 . S
C5035 C5036 1.398 . S
C5035 C5041 1.491 . S
C5036 H5027 0.950 . S
C5036 C5035 1.398 . S
C5036 C5037 1.391 . S
C5037 H5025 0.950 . S
C5037 C5033 1.393 . S
C5037 C5036 1.391 . S
C5038 H5028 0.950 . S
C5038 C5039 1.386 . S
C5038 C5040 1.391 . S
C5039 C5038 1.386 . S
C5039 C5043 1.393 . S
C5040 H5029 0.950 1_545 S
C5040 C5038 1.391 . S
C5040 C5041 1.400 1_545 S
C5041 C5035 1.491 . S
C5041 C5040 1.400 1_565 S
C5041 C5042 1.398 1_565 S
C5042 H5030 0.950 . S
C5042 C5041 1.398 1_545 S
C5042 C5043 1.391 . S
C5043 H5031 0.950 . S
C5043 C5039 1.393 . S
C5043 C5042 1.391 . S
H5044 C5052 0.950 . S
H5045 C5057 0.950 . S
H5046 C5054 0.950 . S
H5047 C5056 0.933 1_545 S
H5048 C5058 0.950 . S
H5049 C5060 0.950 . S
H5050 C5062 0.950 . S
H5051 C5063 0.950 . S
C5052 H5044 0.950 . S
C5052 C5053 1.386 . S
C5052 C5054 1.391 . S
C5053 C5052 1.386 . S
C5053 C5057 1.393 . S
C5054 H5046 0.950 . S
C5054 C5052 1.391 . S
C5054 C5055 1.400 1_565 S
C5055 C5054 1.400 1_545 S
C5055 C5056 1.398 1_545 S
C5055 C5061 1.491 . S
C5056 H5047 0.933 1_565 S
C5056 C5055 1.398 1_565 S
C5056 C5057 1.391 . S
C5057 H5045 0.950 . S
C5057 C5053 1.393 . S
C5057 C5056 1.391 . S
C5058 H5048 0.950 . S
C5058 C5059 1.386 . S
C5058 C5060 1.391 . S
C5059 C5058 1.386 . S
C5059 C5063 1.393 . S
C5060 H5049 0.950 . S
C5060 C5058 1.391 . S
C5060 C5061 1.400 . S
C5061 C5055 1.491 . S
C5061 C5060 1.400 . S
C5061 C5062 1.398 . S
C5062 H5050 0.950 . S
C5062 C5061 1.398 . S
C5062 C5063 1.391 . S
C5063 H5051 0.950 . S
C5063 C5059 1.393 . S
C5063 C5062 1.391 . S
H5064 C5072 0.950 . S
H5065 C5077 0.950 . S
H5066 C5074 0.950 . S
H5067 C5076 0.925 1_655 S
H5068 C5078 0.950 . S
H5069 C5080 0.950 . S
H5070 C5082 0.950 . S
H5071 C5083 0.950 . S
C5072 H5064 0.950 . S
C5072 C5073 1.386 . S
C5072 C5074 1.391 . S
C5073 C5072 1.386 . S
C5073 C5077 1.393 . S
C5074 H5066 0.950 . S
C5074 C5072 1.391 . S
C5074 C5075 1.400 1_455 S
C5075 C5074 1.400 1_655 S
C5075 C5076 1.398 1_655 S
C5075 C5081 1.491 . S
C5076 H5067 0.925 1_455 S
C5076 C5075 1.398 1_455 S
C5076 C5077 1.391 . S
C5077 H5065 0.950 . S
C5077 C5073 1.393 . S
C5077 C5076 1.391 . S
C5078 H5068 0.950 . S
C5078 C5079 1.386 . S
C5078 C5080 1.391 . S
C5079 C5078 1.386 . S
C5079 C5083 1.393 . S
C5080 H5069 0.950 . S
C5080 C5078 1.391 . S
C5080 C5081 1.400 . S
C5081 C5075 1.491 . S
C5081 C5080 1.400 . S
C5081 C5082 1.398 . S
C5082 H5070 0.950 . S
C5082 C5081 1.398 . S
C5082 C5083 1.391 . S
C5083 H5071 0.950 . S
C5083 C5079 1.393 . S
C5083 C5082 1.391 . S
H5084 C5092 0.950 . S
H5085 C5097 0.950 . S
H5086 C5094 0.950 . S
H5087 C5096 0.950 1_565 S
H5088 C5098 0.950 . S
H5089 C5100 0.950 . S
H5090 C5102 0.950 . S
H5091 C5103 0.950 . S
C5092 H5084 0.950 . S
C5092 C5093 1.386 . S
C5092 C5094 1.391 . S
C5093 C5092 1.386 . S
C5093 C5097 1.393 . S
C5094 H5086 0.950 . S
C5094 C5092 1.391 . S
C5094 C5095 1.400 1_545 S
C5095 C5094 1.400 1_565 S
C5095 C5096 1.398 1_565 S
C5095 C5101 1.491 . S
C5096 H5087 0.950 1_545 S
C5096 C5095 1.398 1_545 S
C5096 C5097 1.391 . S
C5097 H5085 0.950 . S
C5097 C5093 1.393 . S
C5097 C5096 1.391 . S
C5098 H5088 0.950 . S
C5098 C5099 1.386 . S
C5098 C5100 1.391 . S
C5099 C5098 1.386 . S
C5099 C5103 1.393 . S
C5100 H5089 0.950 . S
C5100 C5098 1.391 . S
C5100 C5101 1.400 . S
C5101 C5095 1.491 . S
C5101 C5100 1.400 . S
C5101 C5102 1.398 . S
C5102 H5090 0.950 . S
C5102 C5101 1.398 . S
C5102 C5103 1.391 . S
C5103 H5091 0.950 . S
C5103 C5099 1.393 . S
C5103 C5102 1.391 . S
H5104 C5112 0.950 . S
H5105 C5117 0.950 . S
H5106 C5114 0.958 . S
H5107 C5116 0.975 . S
H5108 C5118 0.950 . S
H5109 C5120 0.950 . S
H5110 C5122 0.950 . S
H5111 C5123 0.950 . S
C5112 H5104 0.950 . S
C5112 C5113 1.386 . S
C5112 C5114 1.391 . S
C5113 C5112 1.386 . S
C5113 C5117 1.393 . S
C5114 H5106 0.958 . S
C5114 C5112 1.391 . S
C5114 C5115 1.400 1_655 S
C5115 C5114 1.400 1_455 S
C5115 C5116 1.398 1_455 S
C5115 C5121 1.491 . S
C5116 H5107 0.975 . S
C5116 C5115 1.398 1_655 S
C5116 C5117 1.391 . S
C5117 H5105 0.950 . S
C5117 C5113 1.393 . S
C5117 C5116 1.391 . S
C5118 H5108 0.950 . S
C5118 C5119 1.386 . S
C5118 C5120 1.391 . S
C5119 C5118 1.386 . S
C5119 C5123 1.393 . S
C5120 H5109 0.950 . S
C5120 C5118 1.391 . S
C5120 C5121 1.400 . S
C5121 C5115 1.491 . S
C5121 C5120 1.400 . S
C5121 C5122 1.398 . S
C5122 H5110 0.950 . S
C5122 C5121 1.398 . S
C5122 C5123 1.391 . S
C5123 H5111 0.950 . S
C5123 C5119 1.393 . S
C5123 C5122 1.391 . S
H5124 C5132 0.950 . S
H5125 C5137 0.950 . S
H5126 C5134 0.950 . S
H5127 C5136 0.950 . S
H5128 C5138 0.950 . S
H5129 C5140 0.950 1_545 S
H5130 C5142 0.950 . S
H5131 C5143 0.950 . S
C5132 H5124 0.950 . S
C5132 C5133 1.386 . S
C5132 C5134 1.391 . S
C5133 C5132 1.386 . S
C5133 C5137 1.393 . S
C5134 H5126 0.950 . S
C5134 C5132 1.391 . S
C5134 C5135 1.400 . S
C5135 C5134 1.400 . S
C5135 C5136 1.398 . S
C5135 C5141 1.491 . S
C5136 H5127 0.950 . S
C5136 C5135 1.398 . S
C5136 C5137 1.391 . S
C5137 H5125 0.950 . S
C5137 C5133 1.393 . S
C5137 C5136 1.391 . S
C5138 H5128 0.950 . S
C5138 C5139 1.386 . S
C5138 C5140 1.391 . S
C5139 C5138 1.386 . S
C5139 C5143 1.393 . S
C5140 H5129 0.950 1_565 S
C5140 C5138 1.391 . S
C5140 C5141 1.400 1_565 S
C5141 C5135 1.491 . S
C5141 C5140 1.400 1_545 S
C5141 C5142 1.398 1_545 S
C5142 H5130 0.950 . S
C5142 C5141 1.398 1_565 S
C5142 C5143 1.391 . S
C5143 H5131 0.950 . S
C5143 C5139 1.393 . S
C5143 C5142 1.391 . S
H5144 C5152 0.950 . S
H5145 C5157 0.950 . S
H5146 C5154 0.950 . S
H5147 C5156 0.950 . S
H5148 C5158 0.950 . S
H5149 C5160 0.950 . S
H5150 C5162 0.950 1_655 S
H5151 C5163 0.950 . S
C5152 H5144 0.950 . S
C5152 C5153 1.386 . S
C5152 C5154 1.391 . S
C5153 C5152 1.386 . S
C5153 C5157 1.393 . S
C5154 H5146 0.950 . S
C5154 C5152 1.391 . S
C5154 C5155 1.400 . S
C5155 C5154 1.400 . S
C5155 C5156 1.398 . S
C5155 C5161 1.491 . S
C5156 H5147 0.950 . S
C5156 C5155 1.398 . S
C5156 C5157 1.391 . S
C5157 H5145 0.950 . S
C5157 C5153 1.393 . S
C5157 C5156 1.391 . S
C5158 H5148 0.950 . S
C5158 C5159 1.386 . S
C5158 C5160 1.391 . S
C5159 C5158 1.386 . S
C5159 C5163 1.393 . S
C5160 H5149 0.950 . S
C5160 C5158 1.391 . S
C5160 C5161 1.400 1_455 S
C5161 C5155 1.491 . S
C5161 C5160 1.400 1_655 S
C5161 C5162 1.398 1_655 S
C5162 H5150 0.950 1_455 S
C5162 C5161 1.398 1_455 S
C5162 C5163 1.391 . S
C5163 H5151 0.950 . S
C5163 C5159 1.393 . S
C5163 C5162 1.391 . S
H5164 C5172 0.950 . S
H5165 C5177 0.950 . S
H5166 C5174 0.950 1_455 S
H5167 C5176 0.950 . S
H5168 C5178 0.950 . S
H5169 C5180 0.950 . S
H5170 C5182 0.950 . S
H5171 C5183 0.950 . S
C5172 H5164 0.950 . S
C5172 C5173 1.386 . S
C5172 C5174 1.391 . S
C5173 C5172 1.386 . S
C5173 C5177 1.393 . S
C5174 H5166 0.950 1_655 S
C5174 C5172 1.391 . S
C5174 C5175 1.400 1_655 S
C5175 C5174 1.400 1_455 S
C5175 C5176 1.398 1_455 S
C5175 C5181 1.491 . S
C5176 H5167 0.950 . S
C5176 C5175 1.398 1_655 S
C5176 C5177 1.391 . S
C5177 H5165 0.950 . S
C5177 C5173 1.393 . S
C5177 C5176 1.391 . S
C5178 H5168 0.950 . S
C5178 C5179 1.386 . S
C5178 C5180 1.391 . S
C5179 C5178 1.386 . S
C5179 C5183 1.393 . S
C5180 H5169 0.950 . S
C5180 C5178 1.391 . S
C5180 C5181 1.400 . S
C5181 C5175 1.491 . S
C5181 C5180 1.400 . S
C5181 C5182 1.398 . S
C5182 H5170 0.950 . S
C5182 C5181 1.398 . S
C5182 C5183 1.391 . S
C5183 H5171 0.950 . S
C5183 C5179 1.393 . S
C5183 C5182 1.391 . S
C1353 C8 1.262 . S
C1359 C442 1.283 . S
C1373 C22 1.256 . S
C1379 C400 1.285 . S
C1393 C414 1.272 . S
C1399 C36 1.252 . S
C1413 C428 1.270 . S
C1419 C50 1.248 . S
C1433 C358 1.271 . S
C1439 C64 1.235 . S
C1453 C372 1.270 . S
C1459 C78 1.236 . S
C1473 C92 1.234 . S
C1479 C386 1.272 . S
C1493 C344 1.280 . S
C1499 C106 1.239 . S
C1513 C120 1.258 . S
C1519 C624 1.285 . S
C1533 C134 1.260 . S
C1539 C582 1.276 . S
C1553 C148 1.247 . S
C1559 C596 1.270 . S
C1573 C162 1.234 . S
C1579 C610 1.274 . S
C1593 C176 1.255 . S
C1599 C666 1.273 . S
C1613 C190 1.255 . S
C1619 C638 1.273 . S
C1633 C204 1.240 . S
C1639 C652 1.281 . S
C1653 C568 1.285 . S
C1659 C218 1.251 . S
C1673 C232 1.258 . S
C1679 C554 1.275 . S
C1693 C470 1.280 . S
C1699 C246 1.239 . S
C1713 C484 1.285 . S
C1719 C260 1.258 . S
C1733 C274 1.236 . S
C1739 C498 1.271 . S
C1753 C456 1.283 . S
C1759 C288 1.246 . S
C1773 C526 1.276 . S
C1779 C302 1.235 . S
C1793 C316 1.261 . S
C1799 C540 1.278 . S
C1813 C330 1.234 . S
C1819 C512 1.273 . S
C1833 C1114 1.279 . S
C1839 C680 1.262 . S
C1853 C1072 1.272 . S
C1859 C694 1.252 . S
C1873 C708 1.236 . S
C1879 C1086 1.270 . S
C1893 C1100 1.279 . S
C1899 C722 1.238 . S
C1913 C736 1.237 . S
C1919 C1030 1.270 . S
C1933 C750 1.263 . S
C1939 C1044 1.282 . S
C1953 C1058 1.275 . S
C1959 C764 1.234 . S
C1973 C1016 1.272 . S
C1979 C778 1.252 . S
C1993 C1296 1.271 . S
C1999 C792 1.250 . S
C2013 C1254 1.270 . S
C2019 C806 1.238 . S
C2033 C820 1.262 . S
C2039 C1268 1.279 . S
C2053 C834 1.262 . S
C2059 C1282 1.279 . S
C2073 C1338 1.283 . S
C2079 C848 1.245 . S
C2093 C1310 1.284 . S
C2099 C862 1.247 . S
C2113 C1324 1.274 . S
C2119 C876 1.234 . S
C2133 C890 1.252 . S
C2139 C1240 1.285 . S
C2153 C1226 1.270 . S
C2159 C904 1.248 . S
C2173 C918 1.253 . S
C2179 C1142 1.272 . S
C2193 C1156 1.285 . S
C2199 C932 1.255 . S
C2213 C1170 1.282 . S
C2219 C946 1.263 . S
C2233 C1128 1.276 . S
C2239 C960 1.259 . S
C2253 C974 1.262 . S
C2259 C1198 1.283 . S
C2273 C988 1.235 . S
C2279 C1212 1.271 . S
C2293 C1184 1.270 . S
C2299 C1002 1.245 . S
C2313 C3 1.905 . S
C2319 C955 1.919 . S
C2333 C17 1.905 . S
C2339 C913 1.919 . S
C2353 C31 1.906 . S
C2359 C927 1.902 . S
C2373 C45 1.914 . S
C2379 C941 1.919 . S
C2393 C997 1.906 . S
C2399 C59 1.920 . S
C2413 C73 1.906 . S
C2419 C969 1.920 . S
C2433 C983 1.902 . S
C2439 C87 1.917 . S
C2453 C101 1.901 . S
C2459 C899 1.911 . S
C2473 C885 1.913 . S
C2479 C115 1.920 . S
C2493 C129 1.902 . S
C2499 C843 1.907 . S
C2513 C857 1.920 . S
C2519 C143 1.906 . S
C2533 C157 1.915 . S
C2539 C871 1.919 . S
C2553 C171 1.902 . S
C2559 C801 1.917 . S
C2573 C185 1.920 . S
C2579 C815 1.911 . S
C2593 C829 1.916 . S
C2599 C199 1.918 . S
C2613 C787 1.905 . S
C2619 C213 1.920 . S
C2633 C227 1.901 . S
C2639 C773 1.915 . S
C2653 C241 1.910 . S
C2659 C689 1.920 . S
C2673 C255 1.909 . S
C2679 C703 1.920 . S
C2693 C269 1.903 . S
C2699 C717 1.918 . S
C2713 C283 1.904 . S
C2719 C675 1.904 . S
C2733 C745 1.902 . S
C2739 C297 1.907 . S
C2753 C759 1.902 . S
C2759 C311 1.916 . S
C2773 C325 1.902 . S
C2779 C731 1.907 . S
C2793 C345 1.089 . S
C2799 C1297 1.083 . S
C2813 C359 1.082 . S
C2819 C1255 1.082 . S
C2833 C373 1.095 . S
C2839 C1269 1.072 . S
C2853 C387 1.086 . S
C2859 C1283 1.086 . S
C2873 C401 1.092 . S
C2879 C1339 1.073 . S
C2893 C1311 1.073 . S
C2899 C415 1.097 . S
C2913 C429 1.074 . S
C2919 C1325 1.091 . S
C2933 C443 1.075 . S
C2939 C1241 1.095 . S
C2953 C1227 1.089 . S
C2959 C457 1.083 . S
C2973 C1185 1.097 . S
C2979 C471 1.072 . S
C2993 C1199 1.083 . S
C2999 C485 1.089 . S
C3013 C1213 1.091 . S
C3019 C499 1.080 . S
C3033 C513 1.086 . S
C3039 C1143 1.079 . S
C3053 C527 1.085 . S
C3059 C1157 1.080 . S
C3073 C541 1.086 . S
C3079 C1171 1.079 . S
C3093 C1129 1.097 . S
C3099 C555 1.071 . S
C3113 C1115 1.096 . S
C3119 C569 1.071 . S
C3133 C583 1.074 . S
C3139 C1031 1.091 . S
C3153 C1045 1.083 . S
C3159 C597 1.081 . S
C3173 C1059 1.075 . S
C3179 C611 1.096 . S
C3193 C625 1.071 . S
C3199 C1017 1.097 . S
C3213 C639 1.094 . S
C3219 C1087 1.077 . S
C3233 C1101 1.084 . S
C3239 C653 1.088 . S
C3253 C667 1.093 . S
C3259 C1073 1.078 . S
C3273 C9 1.496 . S
C3279 C395 1.541 . S
C3293 C23 1.497 . S
C3299 C409 1.540 . S
C3313 C37 1.506 . S
C3319 C423 1.533 . S
C3333 C51 1.516 . S
C3339 C437 1.527 . S
C3353 C339 1.527 . S
C3359 C65 1.518 . S
C3373 C79 1.519 . S
C3379 C353 1.527 . S
C3393 C367 1.531 . S
C3399 C93 1.516 . S
C3413 C381 1.531 . S
C3419 C107 1.510 . S
C3433 C121 1.496 . S
C3439 C535 1.542 . S
C3453 C549 1.540 . S
C3459 C135 1.502 . S
C3473 C149 1.502 . S
C3479 C507 1.540 . S
C3493 C163 1.503 . S
C3499 C521 1.536 . S
C3513 C177 1.515 . S
C3519 C479 1.528 . S
C3533 C191 1.518 . S
C3539 C493 1.529 . S
C3553 C205 1.498 . S
C3559 C451 1.542 . S
C3573 C465 1.527 . S
C3579 C219 1.519 . S
C3593 C233 1.512 . S
C3599 C633 1.530 . S
C3613 C247 1.519 . S
C3619 C605 1.528 . S
C3633 C619 1.536 . S
C3639 C261 1.502 . S
C3653 C275 1.496 . S
C3659 C577 1.542 . S
C3673 C591 1.542 . S
C3679 C289 1.496 . S
C3693 C303 1.498 . S
C3699 C563 1.542 . S
C3713 C661 1.535 . S
C3719 C317 1.510 . S
C3733 C647 1.538 . S
C3739 C331 1.499 . S
C3753 C681 1.510 . S
C3759 C1067 1.535 . S
C3773 C695 1.519 . S
C3779 C1081 1.528 . S
C3793 C709 1.507 . S
C3799 C1095 1.533 . S
C3813 C1109 1.539 . S
C3819 C723 1.499 . S
C3833 C737 1.505 . S
C3839 C1011 1.534 . S
C3853 C751 1.500 . S
C3859 C1025 1.541 . S
C3873 C765 1.510 . S
C3879 C1039 1.531 . S
C3893 C779 1.510 . S
C3899 C1053 1.531 . S
C3913 C793 1.512 . S
C3919 C1207 1.530 . S
C3933 C1221 1.542 . S
C3939 C807 1.498 . S
C3953 C1179 1.537 . S
C3959 C821 1.507 . S
C3973 C1193 1.531 . S
C3979 C835 1.510 . S
C3993 C849 1.498 . S
C3999 C1151 1.539 . S
C4013 C1165 1.528 . S
C4019 C863 1.518 . S
C4033 C877 1.516 . S
C4039 C1123 1.531 . S
C4053 C1137 1.541 . S
C4059 C891 1.500 . S
C4073 C1305 1.540 . S
C4079 C905 1.497 . S
C4093 C1277 1.531 . S
C4099 C919 1.510 . S
C4113 C933 1.496 . S
C4119 C1291 1.542 . S
C4133 C947 1.516 . S
C4139 C1249 1.530 . S
C4153 C1263 1.527 . S
C4159 C961 1.519 . S
C4173 C975 1.514 . S
C4179 C1235 1.532 . S
C4193 C1333 1.542 . S
C4199 C989 1.496 . S
C4213 C1319 1.534 . S
C4219 C1003 1.505 . S
C4233 C371 1.412 . S
C4239 C7 1.384 . S
C4253 C21 1.399 . S
C4259 C385 1.414 . S
C4273 C343 1.387 . S
C4279 C35 1.407 . S
C4293 C49 1.388 . S
C4299 C357 1.399 . S
C4313 C427 1.398 . S
C4319 C63 1.388 . S
C4333 C441 1.394 . S
C4339 C77 1.414 . S
C4353 C91 1.392 . S
C4359 C399 1.416 . S
C4373 C413 1.415 . S
C4379 C105 1.396 . S
C4393 C119 1.394 . S
C4399 C511 1.416 . S
C4413 C133 1.413 . S
C4419 C525 1.398 . S
C4433 C539 1.410 . S
C4439 C147 1.384 . S
C4453 C161 1.392 . S
C4459 C553 1.416 . S
C4473 C175 1.394 . S
C4479 C455 1.416 . S
C4493 C469 1.392 . S
C4499 C189 1.414 . S
C4513 C483 1.388 . S
C4519 C203 1.411 . S
C4533 C497 1.403 . S
C4539 C217 1.386 . S
C4553 C231 1.405 . S
C4559 C609 1.387 . S
C4573 C637 1.388 . S
C4579 C245 1.401 . S
C4593 C259 1.390 . S
C4599 C651 1.397 . S
C4613 C567 1.415 . S
C4619 C273 1.397 . S
C4633 C665 1.405 . S
C4639 C287 1.409 . S
C4653 C581 1.415 . S
C4659 C301 1.386 . S
C4673 C315 1.413 . S
C4679 C595 1.389 . S
C4693 C329 1.391 . S
C4699 C623 1.396 . S
C4713 C679 1.414 . S
C4719 C1043 1.393 . S
C4733 C1057 1.397 . S
C4739 C693 1.390 . S
C4753 C1015 1.404 . S
C4759 C707 1.385 . S
C4773 C1029 1.387 . S
C4779 C721 1.409 . S
C4793 C735 1.404 . S
C4799 C1099 1.387 . S
C4813 C1113 1.392 . S
C4819 C749 1.394 . S
C4833 C763 1.400 . S
C4839 C1071 1.389 . S
C4853 C1085 1.412 . S
C4859 C777 1.401 . S
C4873 C791 1.401 . S
C4879 C1183 1.412 . S
C4893 C1197 1.401 . S
C4899 C805 1.387 . S
C4913 C819 1.409 . S
C4919 C1211 1.404 . S
C4933 C1225 1.391 . S
C4939 C833 1.414 . S
C4953 C1127 1.416 . S
C4959 C847 1.387 . S
C4973 C1141 1.395 . S
C4979 C861 1.414 . S
C4993 C1155 1.388 . S
C4999 C875 1.412 . S
C5013 C1169 1.414 . S
C5019 C889 1.397 . S
C5033 C903 1.410 . S
C5039 C1281 1.387 . S
C5053 C1309 1.390 . S
C5059 C917 1.397 . S
C5073 C1323 1.390 . S
C5079 C931 1.398 . S
C5093 C1239 1.388 . S
C5099 C945 1.402 . S
C5113 C1337 1.398 . S
C5119 C959 1.389 . S
C5133 C973 1.410 . S
C5139 C1253 1.387 . S
C5153 C987 1.391 . S
C5159 C1267 1.416 . S
C5173 C1295 1.412 . S
C5179 C1001 1.384 . S
