# Generated by pormake.
# Topology lcs, (4)-cn, num edge types: 1
# Building blocks:
#     Node 0, Type 0, BuildingBlock: ICAMEG_clean_sbu_1, # of connection points: 4
#     Node 1, Type 0, BuildingBlock: ICAMEG_clean_sbu_1, # of connection points: 4
#     Node 2, Type 0, BuildingBlock: ICAMEG_clean_sbu_1, # of connection points: 4
#     Node 3, Type 0, BuildingBlock: ICAMEG_clean_sbu_1, # of connection points: 4
#     Node 4, Type 0, BuildingBlock: ICAMEG_clean_sbu_1, # of connection points: 4
#     Node 5, Type 0, BuildingBlock: ICAMEG_clean_sbu_1, # of connection points: 4
#     Node 6, Type 0, BuildingBlock: ICAMEG_clean_sbu_1, # of connection points: 4
#     Node 7, Type 0, BuildingBlock: ICAMEG_clean_sbu_1, # of connection points: 4
#     Node 8, Type 0, BuildingBlock: ICAMEG_clean_sbu_1, # of connection points: 4
#     Node 9, Type 0, BuildingBlock: ICAMEG_clean_sbu_1, # of connection points: 4
#     Node 10, Type 0, BuildingBlock: ICAMEG_clean_sbu_1, # of connection points: 4
#     Node 11, Type 0, BuildingBlock: ICAMEG_clean_sbu_1, # of connection points: 4
#     Node 12, Type 0, BuildingBlock: ICAMEG_clean_sbu_1, # of connection points: 4
#     Node 13, Type 0, BuildingBlock: ICAMEG_clean_sbu_1, # of connection points: 4
#     Node 14, Type 0, BuildingBlock: ICAMEG_clean_sbu_1, # of connection points: 4
#     Node 15, Type 0, BuildingBlock: ICAMEG_clean_sbu_1, # of connection points: 4
#     Node 16, Type 0, BuildingBlock: ICAMEG_clean_sbu_1, # of connection points: 4
#     Node 17, Type 0, BuildingBlock: ICAMEG_clean_sbu_1, # of connection points: 4
#     Node 18, Type 0, BuildingBlock: ICAMEG_clean_sbu_1, # of connection points: 4
#     Node 19, Type 0, BuildingBlock: ICAMEG_clean_sbu_1, # of connection points: 4
#     Node 20, Type 0, BuildingBlock: ICAMEG_clean_sbu_1, # of connection points: 4
#     Node 21, Type 0, BuildingBlock: ICAMEG_clean_sbu_1, # of connection points: 4
#     Node 22, Type 0, BuildingBlock: ICAMEG_clean_sbu_1, # of connection points: 4
#     Node 23, Type 0, BuildingBlock: ICAMEG_clean_sbu_1, # of connection points: 4
#     Edge 24, Type (0, 0), BuildingBlock: UVAHIK_clean_linker_0, # of connection points: 2
#     Edge 25, Type (0, 0), BuildingBlock: UVAHIK_clean_linker_0, # of connection points: 2
#     Edge 26, Type (0, 0), BuildingBlock: UVAHIK_clean_linker_0, # of connection points: 2
#     Edge 27, Type (0, 0), BuildingBlock: UVAHIK_clean_linker_0, # of connection points: 2
#     Edge 28, Type (0, 0), BuildingBlock: UVAHIK_clean_linker_0, # of connection points: 2
#     Edge 29, Type (0, 0), BuildingBlock: UVAHIK_clean_linker_0, # of connection points: 2
#     Edge 30, Type (0, 0), BuildingBlock: UVAHIK_clean_linker_0, # of connection points: 2
#     Edge 31, Type (0, 0), BuildingBlock: UVAHIK_clean_linker_0, # of connection points: 2
#     Edge 32, Type (0, 0), BuildingBlock: UVAHIK_clean_linker_0, # of connection points: 2
#     Edge 33, Type (0, 0), BuildingBlock: UVAHIK_clean_linker_0, # of connection points: 2
#     Edge 34, Type (0, 0), BuildingBlock: UVAHIK_clean_linker_0, # of connection points: 2
#     Edge 35, Type (0, 0), BuildingBlock: UVAHIK_clean_linker_0, # of connection points: 2
#     Edge 36, Type (0, 0), BuildingBlock: UVAHIK_clean_linker_0, # of connection points: 2
#     Edge 37, Type (0, 0), BuildingBlock: UVAHIK_clean_linker_0, # of connection points: 2
#     Edge 38, Type (0, 0), BuildingBlock: UVAHIK_clean_linker_0, # of connection points: 2
#     Edge 39, Type (0, 0), BuildingBlock: UVAHIK_clean_linker_0, # of connection points: 2
#     Edge 40, Type (0, 0), BuildingBlock: UVAHIK_clean_linker_0, # of connection points: 2
#     Edge 41, Type (0, 0), BuildingBlock: UVAHIK_clean_linker_0, # of connection points: 2
#     Edge 42, Type (0, 0), BuildingBlock: UVAHIK_clean_linker_0, # of connection points: 2
#     Edge 43, Type (0, 0), BuildingBlock: UVAHIK_clean_linker_0, # of connection points: 2
#     Edge 44, Type (0, 0), BuildingBlock: UVAHIK_clean_linker_0, # of connection points: 2
#     Edge 45, Type (0, 0), BuildingBlock: UVAHIK_clean_linker_0, # of connection points: 2
#     Edge 46, Type (0, 0), BuildingBlock: UVAHIK_clean_linker_0, # of connection points: 2
#     Edge 47, Type (0, 0), BuildingBlock: UVAHIK_clean_linker_0, # of connection points: 2
#     Edge 48, Type (0, 0), BuildingBlock: UVAHIK_clean_linker_0, # of connection points: 2
#     Edge 49, Type (0, 0), BuildingBlock: UVAHIK_clean_linker_0, # of connection points: 2
#     Edge 50, Type (0, 0), BuildingBlock: UVAHIK_clean_linker_0, # of connection points: 2
#     Edge 51, Type (0, 0), BuildingBlock: UVAHIK_clean_linker_0, # of connection points: 2
#     Edge 52, Type (0, 0), BuildingBlock: UVAHIK_clean_linker_0, # of connection points: 2
#     Edge 53, Type (0, 0), BuildingBlock: UVAHIK_clean_linker_0, # of connection points: 2
#     Edge 54, Type (0, 0), BuildingBlock: UVAHIK_clean_linker_0, # of connection points: 2
#     Edge 55, Type (0, 0), BuildingBlock: UVAHIK_clean_linker_0, # of connection points: 2
#     Edge 56, Type (0, 0), BuildingBlock: UVAHIK_clean_linker_0, # of connection points: 2
#     Edge 57, Type (0, 0), BuildingBlock: UVAHIK_clean_linker_0, # of connection points: 2
#     Edge 58, Type (0, 0), BuildingBlock: UVAHIK_clean_linker_0, # of connection points: 2
#     Edge 59, Type (0, 0), BuildingBlock: UVAHIK_clean_linker_0, # of connection points: 2
#     Edge 60, Type (0, 0), BuildingBlock: UVAHIK_clean_linker_0, # of connection points: 2
#     Edge 61, Type (0, 0), BuildingBlock: UVAHIK_clean_linker_0, # of connection points: 2
#     Edge 62, Type (0, 0), BuildingBlock: UVAHIK_clean_linker_0, # of connection points: 2
#     Edge 63, Type (0, 0), BuildingBlock: UVAHIK_clean_linker_0, # of connection points: 2
#     Edge 64, Type (0, 0), BuildingBlock: UVAHIK_clean_linker_0, # of connection points: 2
#     Edge 65, Type (0, 0), BuildingBlock: UVAHIK_clean_linker_0, # of connection points: 2
#     Edge 66, Type (0, 0), BuildingBlock: UVAHIK_clean_linker_0, # of connection points: 2
#     Edge 67, Type (0, 0), BuildingBlock: UVAHIK_clean_linker_0, # of connection points: 2
#     Edge 68, Type (0, 0), BuildingBlock: UVAHIK_clean_linker_0, # of connection points: 2
#     Edge 69, Type (0, 0), BuildingBlock: UVAHIK_clean_linker_0, # of connection points: 2
#     Edge 70, Type (0, 0), BuildingBlock: UVAHIK_clean_linker_0, # of connection points: 2
#     Edge 71, Type (0, 0), BuildingBlock: UVAHIK_clean_linker_0, # of connection points: 2
# Relax obj value: 0.035
# Max RMSD: 0.108
# Mean RMSD: 0.107
data_MOF--net-lcs--node1-ICAMEG_clean_sbu_1--edge1-UVAHIK_clean_linker_0
_symmetry_space_group_name_H-M    P1
_symmetry_Int_Tables_number       1
_symmetry_cell_setting            triclinic
loop_
_symmetry_equiv_pos_as_xyz
'x, y, z'
_cell_length_a     66.449505
_cell_length_b     66.500707
_cell_length_c     66.508256
_cell_angle_alpha  93.108553
_cell_angle_beta   93.11585
_cell_angle_gamma 93.139062
loop_
_atom_site_label
_atom_site_type_symbol
_atom_site_fract_x
_atom_site_fract_y
_atom_site_fract_z
_atom_type_partial_charge
Co0 Co 1.00619 0.2525 0.41342 0.0
Co1 Co 0.02706 0.25789 0.36817 0.0
O2 O 0.01364 0.26934 0.39134 0.0
C3 C 0.96949 0.27552 0.40517 0.0
O4 O 0.97175 0.27303 0.38573 0.0
C5 C 0.05083 0.29708 0.37856 0.0
O6 O 0.05074 0.2936 0.39779 0.0
O7 O 0.04915 0.24928 0.38669 0.0
O8 O 0.03043 0.23608 0.41025 0.0
H9 H 0.06332 0.20457 0.33062 0.0
H10 H 0.00936 0.29693 0.42056 0.0
O11 O 0.98187 0.26834 0.41779 0.0
H12 H 0.05815 0.27154 0.47024 0.0
H13 H 0.98014 0.23955 0.48153 0.0
H14 H 1.00491 0.20856 0.41922 0.0
H15 H 0.03742 0.24793 0.4467 0.0
H16 H 0.99043 0.26067 0.45408 0.0
O17 O 0.04233 0.28432 0.36537 0.0
H18 H 0.0457 0.21918 0.35916 0.0
H19 H 0.03795 0.27278 0.32837 0.0
H20 H 0.99494 0.1869 0.44637 0.0
H21 H 0.02963 0.32107 0.444 0.0
H22 H 0.98245 0.20239 0.4778 0.0
H23 H 0.05428 0.30841 0.46902 0.0
O24 O 0.98995 0.23357 0.39392 0.0
H25 H 0.97884 0.3073 0.34209 0.0
H26 H 1.00117 0.23801 0.33373 0.0
H27 H 0.97331 0.24858 0.31145 0.0
H28 H 0.96201 0.28349 0.31551 0.0
H29 H 1.00645 0.29599 0.36425 0.0
H30 H 0.05565 0.25883 0.29958 0.0
H31 H 0.0684 0.22445 0.30056 0.0
O32 O 0.01183 0.23104 0.36959 0.0
C33 C 0.04709 0.23838 0.40172 0.0
C34 C 0.05779 0.21955 0.33 0.0
C35 C 0.05351 0.25001 0.31259 0.0
N36 N 0.04072 0.24677 0.3454 0.0
C37 C 0.04777 0.22789 0.3461 0.0
C38 C 0.04356 0.25785 0.32897 0.0
C39 C 0.06065 0.23072 0.31314 0.0
C40 C 0.01992 0.2913 0.43154 0.0
N41 N 0.02215 0.27105 0.43229 0.0
C42 C 0.03141 0.30504 0.44471 0.0
C43 C 0.04527 0.29793 0.45873 0.0
C44 C 0.04746 0.27725 0.4594 0.0
C45 C 0.03572 0.26395 0.44598 0.0
C46 C 0.9856 0.23263 0.46793 0.0
C47 C 0.9996 0.21543 0.4329 0.0
C48 C 0.9914 0.2445 0.45231 0.0
N49 N 0.9984 0.23587 0.43512 0.0
C50 C 0.99393 0.20308 0.4482 0.0
C51 C 0.9869 0.21178 0.46583 0.0
C52 C 0.99601 0.22479 0.37802 0.0
C53 C 0.98365 0.29207 0.34015 0.0
C54 C 0.99623 0.25316 0.33573 0.0
C55 C 0.98051 0.25909 0.32299 0.0
C56 C 0.97419 0.27869 0.32526 0.0
N57 N 1.00542 0.26635 0.35032 0.0
C58 C 0.99933 0.2856 0.3526 0.0
Co59 Co 0.01758 0.76803 0.60924 0.0
Co60 Co 0.02942 0.7522 0.65629 0.0
O61 O 0.00967 0.75653 0.63426 0.0
C62 C 0.9841 0.79401 0.62026 0.0
O63 O 0.99356 0.79836 0.63794 0.0
C64 C 1.00487 0.71322 0.65104 0.0
O65 O 1.00629 0.71382 0.63146 0.0
O66 O 0.04542 0.73591 0.63761 0.0
O67 O 0.04364 0.75396 0.61011 0.0
H68 H 0.09921 0.7488 0.68853 0.0
H69 H 0.9776 0.74614 0.6101 0.0
O70 O 0.9916 0.78209 0.60738 0.0
H71 H 0.01305 0.70949 0.55752 0.0
H72 H 1.00507 0.79011 0.53863 0.0
H73 H 0.05552 0.78668 0.59534 0.0
H74 H 0.02943 0.73961 0.57617 0.0
H75 H 0.99568 0.77492 0.57007 0.0
O76 O 0.01335 0.72725 0.66286 0.0
H77 H 0.07412 0.75483 0.66114 0.0
H78 H 0.02635 0.73918 0.69832 0.0
H79 H 0.06561 0.80185 0.56411 0.0
H80 H 0.96057 0.71622 0.59164 0.0
H81 H 0.04028 0.80364 0.53548 0.0
H82 H 0.97835 0.69764 0.56518 0.0
O83 O 0.0311 0.79192 0.62478 0.0
H84 H 0.96553 0.77352 0.68614 0.0
H85 H 0.03942 0.78613 0.68715 0.0
H86 H 0.01957 0.80717 0.7094 0.0
H87 H 0.98235 0.80089 0.70902 0.0
H88 H 0.98595 0.75294 0.66399 0.0
H89 H 0.05094 0.73282 0.72606 0.0
H90 H 0.08766 0.73771 0.72128 0.0
O91 O 0.04596 0.77725 0.65081 0.0
C92 C 0.05145 0.74039 0.62043 0.0
C93 C 0.08325 0.74667 0.69082 0.0
C94 C 0.05616 0.73768 0.71187 0.0
N95 N 0.0488 0.7475 0.67817 0.0
C96 C 0.06897 0.75011 0.67538 0.0
C97 C 0.04231 0.74125 0.69609 0.0
C98 C 0.07676 0.74043 0.70918 0.0
C99 C 0.98536 0.73825 0.59847 0.0
N100 N 1.00446 0.74465 0.5942 0.0
C101 C 0.97567 0.72127 0.58813 0.0
C102 C 0.98567 0.71083 0.57331 0.0
C103 C 1.00515 0.71746 0.56902 0.0
C104 C 0.01437 0.73449 0.57968 0.0
C105 C 0.01625 0.78939 0.55098 0.0
C106 C 0.04445 0.7873 0.5829 0.0
C107 C 0.01101 0.78084 0.56884 0.0
N108 N 0.02509 0.77978 0.58446 0.0
C109 C 0.05023 0.79596 0.56528 0.0
C110 C 0.03601 0.79697 0.54923 0.0
C111 C 0.04354 0.7924 0.64012 0.0
C112 C 0.98175 0.77636 0.68649 0.0
C113 C 0.02322 0.78333 0.68685 0.0
C114 C 0.01207 0.79527 0.69952 0.0
C115 C 0.99119 0.79173 0.6993 0.0
N116 N 0.01386 0.76825 0.67435 0.0
C117 C 0.99339 0.76471 0.67403 0.0
Co118 Co 0.50729 0.7565 0.91062 0.0
Co119 Co 0.52912 0.75803 0.86474 0.0
O120 O 0.51477 0.77077 0.88674 0.0
C121 C 0.47117 0.78088 0.89998 0.0
O122 O 0.47813 0.78543 0.88263 0.0
C123 C 0.55315 0.79701 0.8745 0.0
O124 O 0.55217 0.79409 0.89379 0.0
O125 O 0.55064 0.7498 0.88415 0.0
O126 O 0.53327 0.74254 0.91108 0.0
H127 H 0.56569 0.70257 0.83089 0.0
H128 H 0.50764 0.80126 0.91063 0.0
O129 O 0.48089 0.76985 0.91172 0.0
H130 H 0.55334 0.78702 0.96831 0.0
H131 H 0.47842 0.74968 0.97862 0.0
H132 H 0.51003 0.71439 0.92245 0.0
H133 H 0.53576 0.75923 0.94712 0.0
H134 H 0.48826 0.76791 0.94904 0.0
O135 O 0.54495 0.78404 0.86135 0.0
H136 H 0.54737 0.71868 0.85812 0.0
H137 H 0.54165 0.77094 0.82475 0.0
H138 H 0.5006 0.69563 0.95185 0.0
H139 H 0.52462 0.8295 0.93158 0.0
H140 H 0.48467 0.7133 0.9802 0.0
H141 H 0.54775 0.82249 0.96064 0.0
O142 O 0.49355 0.73396 0.89308 0.0
H143 H 0.48353 0.80693 0.83323 0.0
H144 H 0.50347 0.73655 0.83108 0.0
H145 H 0.47675 0.74634 0.80701 0.0
H146 H 0.46666 0.78178 0.80793 0.0
H147 H 0.50995 0.79641 0.85727 0.0
H148 H 0.56004 0.75546 0.79722 0.0
H149 H 0.57214 0.721 0.80017 0.0
O150 O 0.51361 0.73172 0.86709 0.0
C151 C 0.54923 0.74219 0.90125 0.0
C152 C 0.56046 0.71758 0.82941 0.0
C153 C 0.55731 0.74727 0.81053 0.0
N154 N 0.54336 0.74569 0.843 0.0
C155 C 0.55004 0.72676 0.84476 0.0
C156 C 0.54695 0.75598 0.82619 0.0
C157 C 0.56409 0.72793 0.81218 0.0
C158 C 0.51743 0.79802 0.92337 0.0
N159 N 0.52058 0.77854 0.92766 0.0
C160 C 0.52712 0.81411 0.93513 0.0
C161 C 0.54013 0.81017 0.9514 0.0
C162 C 0.54329 0.79028 0.95569 0.0
C163 C 0.53337 0.77458 0.94357 0.0
C164 C 0.48538 0.74182 0.96638 0.0
C165 C 0.50322 0.72221 0.93478 0.0
C166 C 0.49094 0.75205 0.94956 0.0
N167 N 0.49985 0.74225 0.93408 0.0
C168 C 0.49786 0.7115 0.95137 0.0
C169 C 0.4889 0.72141 0.96726 0.0
C170 C 0.49918 0.72488 0.87712 0.0
C171 C 0.4878 0.79144 0.83267 0.0
C172 C 0.49902 0.75194 0.83177 0.0
C173 C 0.48395 0.75743 0.818 0.0
C174 C 0.47832 0.77732 0.8185 0.0
N175 N 0.50822 0.76587 0.84567 0.0
C176 C 0.50282 0.78541 0.84619 0.0
Co177 Co 0.51824 0.26838 0.10885 0.0
Co178 Co 0.5286 0.25185 0.15593 0.0
O179 O 0.50951 0.25642 0.13339 0.0
C180 C 0.48391 0.29315 0.11959 0.0
O181 O 0.492 0.29557 0.13808 0.0
C182 C 0.50468 0.21255 0.14959 0.0
O183 O 0.50738 0.21295 0.1302 0.0
O184 O 0.54524 0.23587 0.13759 0.0
O185 O 0.5443 0.25438 0.1104 0.0
H186 H 0.59748 0.24821 0.19017 0.0
H187 H 0.47828 0.24627 0.10823 0.0
O188 O 0.49237 0.28254 0.1063 0.0
H189 H 0.5155 0.21059 0.05639 0.0
H190 H 0.50822 0.29147 0.03832 0.0
H191 H 0.55667 0.28751 0.09663 0.0
H192 H 0.53122 0.24054 0.07585 0.0
H193 H 0.49774 0.27568 0.06909 0.0
O194 O 0.51229 0.22679 0.16169 0.0
H195 H 0.57321 0.25456 0.16217 0.0
H196 H 0.52423 0.23822 0.19758 0.0
H197 H 0.56785 0.30327 0.06609 0.0
H198 H 0.46191 0.21648 0.08897 0.0
H199 H 0.54354 0.30533 0.03666 0.0
H200 H 0.48058 0.19839 0.06287 0.0
O201 O 0.53116 0.29209 0.12513 0.0
H202 H 0.4637 0.2723 0.18425 0.0
H203 H 0.53759 0.28548 0.18734 0.0
H204 H 0.517 0.30608 0.20924 0.0
H205 H 0.47977 0.29951 0.20781 0.0
H206 H 0.48486 0.25219 0.16245 0.0
H207 H 0.54798 0.23153 0.22591 0.0
H208 H 0.5849 0.23661 0.22233 0.0
O209 O 0.54534 0.27706 0.15128 0.0
C210 C 0.55182 0.24066 0.12072 0.0
C211 C 0.58143 0.246 0.19194 0.0
C212 C 0.55365 0.23661 0.21198 0.0
N213 N 0.54733 0.2469 0.17828 0.0
C214 C 0.56761 0.24961 0.17615 0.0
C215 C 0.54027 0.24037 0.19587 0.0
C216 C 0.57436 0.23947 0.20997 0.0
C217 C 0.48643 0.23858 0.09677 0.0
N218 N 0.50565 0.24518 0.09313 0.0
C219 C 0.47711 0.22168 0.08597 0.0
C220 C 0.48761 0.21152 0.07135 0.0
C221 C 0.50721 0.21834 0.06772 0.0
C222 C 0.51605 0.23528 0.07883 0.0
C223 C 0.51897 0.29063 0.05103 0.0
C224 C 0.54604 0.28825 0.08384 0.0
C225 C 0.5131 0.28175 0.06851 0.0
N226 N 0.52662 0.28055 0.08458 0.0
C227 C 0.55244 0.29724 0.06661 0.0
C228 C 0.53878 0.2984 0.05011 0.0
C229 C 0.54318 0.29237 0.14076 0.0
C230 C 0.47991 0.27527 0.18505 0.0
C231 C 0.5214 0.28257 0.18656 0.0
C232 C 0.50982 0.29425 0.19904 0.0
C233 C 0.48893 0.29055 0.19824 0.0
N234 N 0.51244 0.26759 0.17366 0.0
C235 C 0.49197 0.26388 0.1728 0.0
Co236 Co 0.02142 0.74701 0.11682 0.0
Co237 Co 1.00456 0.75655 0.16418 0.0
O238 O 0.01678 0.76549 0.13984 0.0
C239 C 0.06116 0.77016 0.12478 0.0
O240 O 0.05997 0.76768 0.14414 0.0
C241 C 0.9792 0.79029 0.15306 0.0
O242 O 0.97697 0.78206 0.13462 0.0
O243 O 0.98114 0.74311 0.14782 0.0
O244 O 0.99545 0.73107 0.1202 0.0
H245 H 0.97003 0.70649 0.20672 0.0
H246 H 0.02265 0.79116 0.11253 0.0
O247 O 0.04724 0.76267 0.11223 0.0
H248 H 0.9698 0.76278 0.06244 0.0
H249 H 0.04312 0.72935 0.04695 0.0
H250 H 0.01712 0.70268 0.10887 0.0
H251 H 0.98897 0.7405 0.08379 0.0
H252 H 0.03649 0.75239 0.07585 0.0
O253 O 0.98991 0.78211 0.16647 0.0
H254 H 0.98594 0.71787 0.17633 0.0
H255 H 0.9965 0.77695 0.20377 0.0
H256 H 0.02336 0.6791 0.08025 0.0
H257 H 1.00401 0.81401 0.09132 0.0
H258 H 0.03646 0.69242 0.04902 0.0
H259 H 0.97731 0.79985 0.0661 0.0
O260 O 0.03634 0.72905 0.13481 0.0
H261 H 0.05532 0.81378 0.18457 0.0
H262 H 0.03243 0.74409 0.19742 0.0
H263 H 0.06199 0.76032 0.21715 0.0
H264 H 0.07359 0.79544 0.2108 0.0
H265 H 0.02594 0.7969 0.16503 0.0
H266 H 0.98056 0.76626 0.23439 0.0
H267 H 0.96726 0.73077 0.23602 0.0
O268 O 0.01899 0.7309 0.16281 0.0
C269 C 0.98051 0.73217 0.13142 0.0
C270 C 0.97582 0.72198 0.20621 0.0
C271 C 0.98171 0.75553 0.22173 0.0
N272 N 0.99227 0.748 0.18834 0.0
C273 C 0.98489 0.72849 0.18907 0.0
C274 C 0.99068 0.7615 0.20434 0.0
C275 C 0.97425 0.73561 0.22264 0.0
C276 C 0.01115 0.78487 0.10149 0.0
N277 N 1.00688 0.7645 0.09943 0.0
C278 C 1.0006 0.79789 0.08956 0.0
C279 C 0.98561 0.78994 0.07544 0.0
C280 C 0.98137 0.76915 0.07339 0.0
C281 C 0.99221 0.75659 0.08559 0.0
C282 C 0.03739 0.72337 0.06047 0.0
C283 C 0.02272 0.70859 0.09528 0.0
C284 C 0.03366 0.73634 0.07691 0.0
N285 N 0.02632 0.72889 0.09399 0.0
C286 C 0.02627 0.69517 0.07915 0.0
C287 C 0.03364 0.70265 0.06164 0.0
C288 C 0.03202 0.72285 0.15199 0.0
C289 C 0.05038 0.7985 0.18751 0.0
C290 C 0.03744 0.75934 0.19449 0.0
C291 C 0.05415 0.76848 0.20576 0.0
C292 C 0.06064 0.78818 0.20221 0.0
N293 N 0.02744 0.76956 0.18012 0.0
C294 C 0.0337 0.78889 0.17655 0.0
Co295 Co 0.51648 0.74719 0.40483 0.0
Co296 Co 0.5204 0.7669 0.35889 0.0
O297 O 0.50436 0.75988 0.3816 0.0
C298 C 0.47749 0.72275 0.3957 0.0
O299 O 0.48073 0.72232 0.37639 0.0
C300 C 0.49957 0.80488 0.36718 0.0
O301 O 0.50632 0.8051 0.38612 0.0
O302 O 0.5399 0.78361 0.37751 0.0
O303 O 0.54308 0.76256 0.40249 0.0
H304 H 0.58457 0.77779 0.32333 0.0
H305 H 0.47846 0.76797 0.40851 0.0
O306 O 0.49026 0.73181 0.40853 0.0
H307 H 0.52642 0.80233 0.4601 0.0
H308 H 0.51734 0.72037 0.47425 0.0
H309 H 0.5556 0.72918 0.41355 0.0
H310 H 0.5367 0.77378 0.43856 0.0
H311 H 0.50256 0.73717 0.44524 0.0
O312 O 0.50388 0.79079 0.35469 0.0
H313 H 0.56404 0.76828 0.35149 0.0
H314 H 0.51061 0.78192 0.31823 0.0
H315 H 0.57103 0.71246 0.44229 0.0
H316 H 0.46746 0.79634 0.42987 0.0
H317 H 0.55185 0.70796 0.47292 0.0
H318 H 0.49155 0.81376 0.45585 0.0
O319 O 0.52498 0.7248 0.3866 0.0
H320 H 0.45115 0.74237 0.33076 0.0
H321 H 0.52423 0.73507 0.32607 0.0
H322 H 0.50012 0.71371 0.3036 0.0
H323 H 0.46329 0.71732 0.30582 0.0
H324 H 0.47578 0.76327 0.35313 0.0
H325 H 0.53058 0.79173 0.28976 0.0
H326 H 0.56783 0.78961 0.29217 0.0
O327 O 0.53718 0.74293 0.36206 0.0
C328 C 0.54904 0.77808 0.39347 0.0
C329 C 0.56834 0.77872 0.32207 0.0
C330 C 0.53804 0.78657 0.30324 0.0
N331 N 0.53614 0.77438 0.33645 0.0
C332 C 0.55663 0.7733 0.33795 0.0
C333 C 0.52682 0.78103 0.31942 0.0
C334 C 0.55894 0.78537 0.3046 0.0
C335 C 0.48897 0.77537 0.41989 0.0
N336 N 0.50817 0.76918 0.42231 0.0
C337 C 0.48268 0.79147 0.4319 0.0
C338 C 0.49621 0.80126 0.44646 0.0
C339 C 0.51578 0.79486 0.44884 0.0
C340 C 0.52154 0.77872 0.43655 0.0
C341 C 0.52585 0.72226 0.461 0.0
C342 C 0.5472 0.72735 0.42686 0.0
C343 C 0.51754 0.7317 0.4445 0.0
N344 N 0.52825 0.73423 0.42775 0.0
C345 C 0.556 0.71784 0.44307 0.0
C346 C 0.54522 0.71531 0.46024 0.0
C347 C 0.53542 0.72657 0.37118 0.0
C348 C 0.46716 0.74069 0.32961 0.0
C349 C 0.50822 0.73666 0.32722 0.0
C350 C 0.49465 0.72456 0.3144 0.0
C351 C 0.47398 0.72662 0.31565 0.0
N352 N 0.50141 0.75044 0.34089 0.0
C353 C 0.48118 0.75254 0.34218 0.0
Co354 Co 0.52275 0.24574 0.61615 0.0
Co355 Co 0.50706 0.25684 0.66354 0.0
O356 O 0.51881 0.26501 0.63871 0.0
C357 C 0.56239 0.26882 0.62272 0.0
O358 O 0.56158 0.2662 0.64209 0.0
C359 C 0.48312 0.29145 0.65212 0.0
O360 O 0.48113 0.28329 0.63364 0.0
O361 O 0.48306 0.24392 0.64776 0.0
O362 O 0.49708 0.2298 0.62091 0.0
H363 H 0.47234 0.2084 0.70761 0.0
H364 H 0.52383 0.28951 0.60955 0.0
O365 O 0.54827 0.26134 0.61039 0.0
H366 H 0.4688 0.25897 0.56311 0.0
H367 H 0.54237 0.22573 0.54609 0.0
H368 H 0.51861 0.20121 0.60983 0.0
H369 H 0.48877 0.23776 0.58495 0.0
H370 H 0.5365 0.2497 0.5745 0.0
O371 O 0.49311 0.28286 0.66577 0.0
H372 H 0.4878 0.21887 0.67665 0.0
H373 H 0.50037 0.27812 0.70307 0.0
H374 H 0.52412 0.17672 0.58175 0.0
H375 H 0.50437 0.31126 0.5878 0.0
H376 H 0.53608 0.18896 0.54959 0.0
H377 H 0.47658 0.296 0.56442 0.0
O378 O 0.53829 0.22862 0.63437 0.0
H379 H 0.5596 0.31297 0.68197 0.0
H380 H 0.53521 0.24417 0.69644 0.0
H381 H 0.56554 0.25989 0.7153 0.0
H382 H 0.5779 0.29456 0.70813 0.0
H383 H 0.52943 0.29659 0.66332 0.0
H384 H 0.4849 0.26835 0.73425 0.0
H385 H 0.47082 0.23324 0.73669 0.0
O386 O 0.52082 0.23067 0.66226 0.0
C387 C 0.48215 0.23206 0.63196 0.0
C388 C 0.47848 0.22373 0.70676 0.0
C389 C 0.4855 0.25738 0.7217 0.0
N390 N 0.49511 0.24903 0.68812 0.0
C391 C 0.48729 0.22973 0.68929 0.0
C392 C 0.4942 0.26284 0.70399 0.0
C393 C 0.47761 0.23768 0.72306 0.0
C394 C 0.5119 0.28274 0.59927 0.0
N395 N 0.5075 0.26239 0.59848 0.0
C396 C 0.50087 0.29514 0.58705 0.0
C397 C 0.48526 0.28657 0.57396 0.0
C398 C 0.48087 0.2658 0.57323 0.0
C399 C 0.4922 0.25387 0.58568 0.0
C400 C 0.53712 0.22022 0.56001 0.0
C401 C 0.52371 0.20665 0.59585 0.0
C402 C 0.53382 0.23372 0.57617 0.0
N403 N 0.52709 0.22686 0.59376 0.0
C404 C 0.52685 0.19271 0.58002 0.0
C405 C 0.53359 0.19959 0.56198 0.0
C406 C 0.53395 0.22256 0.65157 0.0
C407 C 0.55432 0.29788 0.68527 0.0
C408 C 0.54054 0.25922 0.69317 0.0
C409 C 0.55769 0.26807 0.70394 0.0
C410 C 0.56461 0.28753 0.69992 0.0
N411 N 0.53053 0.26948 0.67882 0.0
C412 C 0.53721 0.28856 0.67482 0.0
Co413 Co 0.01642 0.24686 0.90628 0.0
Co414 Co 0.01965 0.26759 0.86044 0.0
O415 O 1.00406 0.26014 0.88342 0.0
C416 C 0.97762 0.22231 0.89653 0.0
O417 O 0.98076 0.2227 0.87723 0.0
C418 C 0.99736 0.30459 0.87015 0.0
O419 O 1.00007 0.30201 0.88951 0.0
O420 O 0.0399 0.28345 0.87898 0.0
O421 O 0.04279 0.26264 0.90424 0.0
H422 H 0.08316 0.2778 0.82367 0.0
H423 H 0.97784 0.26644 0.91116 0.0
O424 O 0.9904 0.23097 0.9096 0.0
H425 H 0.02578 0.30077 0.96278 0.0
H426 H 0.01773 0.21825 0.97491 0.0
H427 H 0.05581 0.22917 0.91445 0.0
H428 H 0.03651 0.27323 0.94023 0.0
H429 H 1.00268 0.23559 0.9464 0.0
O430 O 1.00408 0.29226 0.8572 0.0
H431 H 0.06301 0.26806 0.85203 0.0
H432 H 0.00943 0.28381 0.82036 0.0
H433 H 0.07149 0.21191 0.94269 0.0
H434 H 0.96638 0.29372 0.93362 0.0
H435 H 0.05241 0.20635 0.9732 0.0
H436 H 0.99046 0.31115 0.9596 0.0
O437 O 0.02524 0.22496 0.88766 0.0
H438 H 0.94919 0.24554 0.83403 0.0
H439 H 0.0216 0.23676 0.82624 0.0
H440 H 0.99634 0.21661 0.80398 0.0
H441 H 0.95982 0.22098 0.80776 0.0
H442 H 0.97499 0.26519 0.85616 0.0
H443 H 0.02902 0.29389 0.79174 0.0
H444 H 0.06616 0.29083 0.79325 0.0
O445 O 0.0357 0.24303 0.86234 0.0
C446 C 0.04896 0.27792 0.89498 0.0
C447 C 0.06698 0.27915 0.82281 0.0
C448 C 0.0366 0.2882 0.8049 0.0
N449 N 0.03505 0.27523 0.83781 0.0
C450 C 0.05549 0.27362 0.83881 0.0
C451 C 0.02559 0.28252 0.82118 0.0
C452 C 0.05744 0.28648 0.80575 0.0
C453 C 0.98835 0.27382 0.92256 0.0
N454 N 0.00782 0.26824 0.92436 0.0
C455 C 0.9818 0.28931 0.93518 0.0
C456 C 0.99533 0.29911 0.94973 0.0
C457 C 0.01515 0.29331 0.9515 0.0
C458 C 0.02117 0.27776 0.93861 0.0
C459 C 0.0262 0.2206 0.96171 0.0
C460 C 0.04744 0.22689 0.92772 0.0
C461 C 0.01774 0.23036 0.94549 0.0
N462 N 0.0284 0.23348 0.92882 0.0
C463 C 0.05639 0.21707 0.94364 0.0
C464 C 0.04567 0.21394 0.96074 0.0
C465 C 0.03477 0.22675 0.87164 0.0
C466 C 0.96506 0.24353 0.83221 0.0
C467 C 1.00576 0.23864 0.8281 0.0
C468 C 0.99151 0.22725 0.81538 0.0
C469 C 0.97103 0.22973 0.81749 0.0
N470 N 0.99979 0.25213 0.84251 0.0
C471 C 0.97973 0.25467 0.84464 0.0
Co472 Co 0.3632 0.02934 0.25766 0.0
Co473 Co 0.4087 0.00718 0.25758 0.0
O474 O 0.38464 0.01502 0.27104 0.0
C475 C 0.37245 0.05349 0.29655 0.0
O476 O 0.39177 0.05276 0.29357 0.0
C477 C 0.40936 0.96387 0.26547 0.0
O478 O 0.40926 0.96047 0.24583 0.0
O479 O 0.39137 0.993 0.23516 0.0
O480 O 0.36595 0.01357 0.23151 0.0
H481 H 0.45132 0.99694 0.19815 0.0
H482 H 0.3558 0.00921 0.29548 0.0
O483 O 0.35935 0.0452 0.28356 0.0
H484 H 0.30456 0.97807 0.24515 0.0
H485 H 0.29616 0.06119 0.2533 0.0
H486 H 0.35783 0.04747 0.21812 0.0
H487 H 0.32892 1.00481 0.23587 0.0
H488 H 0.32304 0.04247 0.26953 0.0
O489 O 0.40838 0.98186 0.27294 0.0
H490 H 0.4213 0.00708 0.21555 0.0
H491 H 0.44735 0.98979 0.27127 0.0
H492 H 0.33126 0.0661 0.20128 0.0
H493 H 0.33157 0.98265 0.30547 0.0
H494 H 0.30015 0.07308 0.2189 0.0
H495 H 0.30574 0.96686 0.2802 0.0
O496 O 0.38323 0.05051 0.24984 0.0
H497 H 0.42909 0.02565 0.33039 0.0
H498 H 0.44406 0.03721 0.25999 0.0
H499 H 0.46456 0.05574 0.28773 0.0
H500 H 0.45717 0.04997 0.32324 0.0
H501 H 0.40879 0.00763 0.30218 0.0
H502 H 0.47764 0.97942 0.25448 0.0
H503 H 0.47975 0.98299 0.21766 0.0
O504 O 0.40959 0.03237 0.24231 0.0
C505 C 0.37577 0.99864 0.22547 0.0
C506 C 0.45058 0.99533 0.21421 0.0
C507 C 0.46536 0.9855 0.24582 0.0
N508 N 0.4326 0.9991 0.2444 0.0
C509 C 0.43363 1.00106 0.22414 0.0
C510 C 0.44818 0.9914 0.25525 0.0
C511 C 0.46653 0.9875 0.22516 0.0
C512 C 0.34452 1.0025 0.28443 0.0
N513 N 0.34374 0.00861 0.26514 0.0
C514 C 0.33088 0.98743 0.29016 0.0
C515 C 0.3164 0.97856 0.27597 0.0
C516 C 0.31574 0.98483 0.2563 0.0
C517 C 0.32962 0.99994 0.25112 0.0
C518 C 0.30964 0.05822 0.24546 0.0
C519 C 0.34429 0.05036 0.22584 0.0
C520 C 0.32493 0.04768 0.25459 0.0
N521 N 0.34194 0.04378 0.24473 0.0
C522 C 0.32932 0.06095 0.21625 0.0
C523 C 0.31188 0.06488 0.22615 0.0
C524 C 0.40018 0.0486 0.242 0.0
C525 C 0.43251 0.02825 0.31498 0.0
C526 C 0.44065 0.03469 0.27539 0.0
C527 C 0.45237 0.04518 0.29104 0.0
C528 C 0.44823 0.04192 0.31096 0.0
N529 N 0.42527 0.02128 0.27945 0.0
C530 C 0.42112 0.01801 0.29894 0.0
Co531 Co 0.2526 0.15722 0.52969 0.0
Co532 Co 0.26908 0.11002 0.52002 0.0
O533 O 0.25697 0.13433 0.51106 0.0
C534 C 0.21242 0.15019 0.50754 0.0
O535 O 0.212 0.1314 0.51271 0.0
C536 C 0.2932 0.12048 0.48523 0.0
O537 O 0.29562 0.13903 0.49315 0.0
O538 O 0.29287 0.12651 0.53249 0.0
O539 O 0.27807 0.15306 0.54623 0.0
H540 H 0.30457 0.06801 0.56988 0.0
H541 H 0.25229 0.16271 0.48573 0.0
O542 O 0.22734 0.16234 0.51334 0.0
H543 H 0.30633 0.2104 0.51617 0.0
H544 H 0.23187 0.22738 0.54754 0.0
H545 H 0.25603 0.16467 0.57413 0.0
H546 H 0.28616 0.1889 0.53753 0.0
H547 H 0.23837 0.19849 0.52442 0.0
O548 O 0.28292 0.10717 0.49401 0.0
H549 H 0.28862 0.09835 0.55845 0.0
H550 H 0.27632 0.07005 0.49995 0.0
H551 H 0.24986 0.19325 0.59778 0.0
H552 H 0.27196 0.1841 0.46382 0.0
H553 H 0.23769 0.22489 0.58451 0.0
H554 H 0.29925 0.20811 0.47903 0.0
O555 O 0.237 0.13924 0.54706 0.0
H556 H 0.21624 0.08965 0.46472 0.0
H557 H 0.2416 0.07704 0.53369 0.0
H558 H 0.21141 0.05745 0.51864 0.0
H559 H 0.19855 0.06368 0.48389 0.0
H560 H 0.2463 0.10902 0.48041 0.0
H561 H 0.29229 0.03947 0.5107 0.0
H562 H 0.30647 0.03829 0.54592 0.0
O563 O 0.25534 0.11191 0.54617 0.0
C564 C 0.29333 0.1424 0.54417 0.0
C565 C 0.29839 0.06832 0.55451 0.0
C566 C 0.29152 0.05231 0.52129 0.0
N567 N 0.28142 0.08591 0.52861 0.0
C568 C 0.2893 0.08544 0.54797 0.0
C569 C 0.28254 0.06968 0.51528 0.0
C570 C 0.29947 0.05165 0.54105 0.0
C571 C 0.26401 0.17326 0.49248 0.0
N572 N 0.268 0.1746 0.51289 0.0
C573 C 0.27515 0.18528 0.47999 0.0
C574 C 0.29048 0.19872 0.48853 0.0
C575 C 0.29447 0.2 0.50937 0.0
C576 C 0.28303 0.18774 0.52138 0.0
C577 C 0.2372 0.21369 0.5535 0.0
C578 C 0.25084 0.17843 0.56824 0.0
C579 C 0.24087 0.19726 0.54049 0.0
N580 N 0.24772 0.17997 0.54792 0.0
C581 C 0.24733 0.19454 0.5817 0.0
C582 C 0.24048 0.21228 0.57424 0.0
C583 C 0.24176 0.12238 0.55373 0.0
C584 C 0.22173 0.08676 0.47985 0.0
C585 C 0.23608 0.07989 0.51858 0.0
C586 C 0.21899 0.06871 0.51013 0.0
C587 C 0.21179 0.07221 0.49063 0.0
N588 N 0.24576 0.09411 0.5079 0.0
C589 C 0.23878 0.09763 0.48878 0.0
Co590 Co 0.1646 1.00407 0.75621 0.0
Co591 Co 0.11703 0.01978 0.74598 0.0
O592 O 0.1398 0.01553 0.76495 0.0
C593 C 0.15406 0.97874 0.79018 0.0
O594 O 0.13559 0.97617 0.78204 0.0
C595 C 0.12326 0.05892 0.77015 0.0
O596 O 0.14278 0.0581 0.76833 0.0
O597 O 0.13504 0.03587 0.72908 0.0
O598 O 0.16293 0.01834 0.73037 0.0
H599 H 0.08214 0.02253 0.67732 0.0
H600 H 0.1649 0.02551 0.79645 0.0
O601 O 0.16726 0.98962 0.78187 0.0
H602 H 0.21617 0.06276 0.75981 0.0
H603 H 0.23561 0.98213 0.7663 0.0
H604 H 0.17731 0.98562 0.71771 0.0
H605 H 0.19715 0.03274 0.74366 0.0
H606 H 0.20447 0.99723 0.77679 0.0
O607 O 0.11113 0.04495 0.76205 0.0
H608 H 0.11045 0.01667 0.70145 0.0
H609 H 0.07523 0.033 0.75054 0.0
H610 H 0.20822 0.97054 0.70653 0.0
H611 H 0.18374 0.05533 0.81326 0.0
H612 H 0.23764 0.96873 0.73092 0.0
H613 H 0.20954 0.07422 0.79488 0.0
O614 O 0.14877 0.98025 0.74298 0.0
H615 H 0.08951 0.99955 0.81127 0.0
H616 H 0.08586 0.98581 0.73751 0.0
H617 H 0.06436 0.96516 0.75846 0.0
H618 H 0.06607 0.972 0.79562 0.0
H619 H 0.1109 0.01972 0.78977 0.0
H620 H 0.0466 0.03919 0.72694 0.0
H621 H 0.04993 0.03387 0.69004 0.0
O622 O 0.1218 0.99452 0.72943 0.0
C623 C 0.15216 0.03164 0.72269 0.0
C624 C 0.08048 0.02485 0.69337 0.0
C625 C 0.06054 0.03422 0.72122 0.0
N626 N 0.09445 0.02436 0.72738 0.0
C627 C 0.09644 0.02151 0.7071 0.0
C628 C 0.07682 0.03074 0.7345 0.0
C629 C 0.06242 0.03123 0.70051 0.0
C630 C 0.17624 0.03354 0.78843 0.0
N631 N 0.17995 0.02736 0.76913 0.0
C632 C 0.1868 0.05046 0.798 0.0
C633 C 0.20125 0.06107 0.78766 0.0
C634 C 0.20496 0.05466 0.76798 0.0
C635 C 0.1941 0.03769 0.75889 0.0
C636 C 0.2229 0.98286 0.75552 0.0
C637 C 0.1901 0.98498 0.72838 0.0
C638 C 0.20522 0.99136 0.76139 0.0
N639 N 0.18915 0.99243 0.74783 0.0
C640 C 0.20754 0.97639 0.72197 0.0
C641 C 0.22404 0.97535 0.73567 0.0
C642 C 0.13289 0.97957 0.73125 0.0
C643 C 0.08858 0.99646 0.79509 0.0
C644 C 0.08676 0.98885 0.75368 0.0
C645 C 0.0745 0.97713 0.76546 0.0
C646 C 0.07546 0.98099 0.7863 0.0
N647 N 0.09958 1.00402 0.76241 0.0
C648 C 0.1006 0.00788 0.78283 0.0
Co649 Co 0.26851 0.85955 0.0187 0.0
Co650 Co 0.24784 0.90533 0.01451 0.0
O651 O 0.26108 0.88221 1.00263 0.0
C652 C 0.30582 0.86912 0.99696 0.0
O653 O 0.30337 0.88846 1.00017 0.0
C654 C 0.22325 0.8951 0.97578 0.0
O655 O 0.22381 0.87581 0.97893 0.0
O656 O 0.2259 0.88696 0.02369 0.0
O657 O 0.24388 0.86178 0.03466 0.0
H658 H 0.21285 0.94284 0.06881 0.0
H659 H 0.2663 0.85432 0.97412 0.0
O660 O 0.29325 0.85608 1.00322 0.0
H661 H 0.21742 0.80284 0.99638 0.0
H662 H 0.29486 0.79111 0.02939 0.0
H663 H 0.26887 0.85192 0.0622 0.0
H664 H 0.23751 0.8256 0.02125 0.0
H665 H 0.28478 0.81934 0.00925 0.0
O666 O 0.23192 0.90825 0.98846 0.0
H667 H 0.23005 0.91427 0.05369 0.0
H668 H 0.23681 0.94524 1.00005 0.0
H669 H 0.27863 0.82396 0.08289 0.0
H670 H 0.24669 0.83169 0.94872 0.0
H671 H 0.29174 0.79328 0.06648 0.0
H672 H 0.22199 0.80577 0.95981 0.0
O673 O 0.28434 0.87841 0.03871 0.0
H674 H 0.29493 0.93141 0.96404 0.0
H675 H 0.27438 0.93947 0.03402 0.0
H676 H 0.30206 0.96165 0.0229 0.0
H677 H 0.31247 0.95773 0.98765 0.0
H678 H 0.26749 0.90935 0.97588 0.0
H679 H 0.21954 0.97407 0.01452 0.0
H680 H 0.2075 0.97302 0.04918 0.0
O681 O 0.26354 0.90373 0.04092 0.0
C682 C 0.22765 0.87118 0.03359 0.0
C683 C 0.21807 0.9435 0.05371 0.0
C684 C 0.2218 0.96102 0.02324 0.0
N685 N 0.23452 0.92812 0.02605 0.0
C686 C 0.22785 0.92739 0.04509 0.0
C687 C 0.23152 0.94462 0.0151 0.0
C688 C 0.21506 0.96042 0.04268 0.0
C689 C 0.25571 0.84296 0.97906 0.0
N690 N 0.25308 0.84128 0.99915 0.0
C691 C 0.24459 0.83024 0.96461 0.0
C692 C 0.23071 0.81572 0.97084 0.0
C693 C 0.22812 0.81408 0.99136 0.0
C694 C 0.23949 0.82707 1.00537 0.0
C695 C 0.28914 0.80438 0.03671 0.0
C696 C 0.27447 0.83858 0.05494 0.0
C697 C 0.28346 0.82045 0.02539 0.0
N698 N 0.27613 0.83722 0.03453 0.0
C699 C 0.28001 0.82281 0.06674 0.0
C700 C 0.28738 0.80561 0.05752 0.0
C701 C 0.27872 0.89453 0.04746 0.0
C702 C 0.2905 0.93329 0.97942 0.0
C703 C 0.27891 0.93756 0.01871 0.0
C704 C 0.29454 0.95023 0.01247 0.0
C705 C 0.30036 0.94804 0.99269 0.0
N706 N 0.2693 0.92313 1.00561 0.0
C707 C 0.27491 0.92091 0.98619 0.0
Co708 Co 0.25555 0.41378 0.00699 0.0
Co709 Co 0.25874 0.36795 0.02766 0.0
O710 O 0.27115 0.39075 0.01428 0.0
C711 C 0.27765 0.40434 0.96977 0.0
O712 O 0.27542 0.38495 0.97239 0.0
C713 C 0.2978 0.37735 0.05192 0.0
O714 O 0.29487 0.39669 0.05155 0.0
O715 O 0.25028 0.38665 0.0497 0.0
O716 O 0.23959 0.41178 0.03155 0.0
H717 H 0.20376 0.33194 0.06313 0.0
H718 H 0.3002 0.41816 0.00913 0.0
O719 O 0.27093 0.41715 0.98224 0.0
H720 H 0.27901 0.46998 0.05819 0.0
H721 H 0.24609 0.48262 0.98105 0.0
H722 H 0.21218 0.42214 0.00666 0.0
H723 H 0.25368 0.44774 0.03808 0.0
H724 H 0.26572 0.45397 0.99095 0.0
O725 O 0.28484 0.3644 0.04332 0.0
H726 H 0.21949 0.36008 0.04575 0.0
H727 H 0.27224 0.32768 0.03872 0.0
H728 H 0.192 0.45053 0.99708 0.0
H729 H 0.32605 0.44027 0.02874 0.0
H730 H 0.20896 0.48104 0.98416 0.0
H731 H 0.3155 0.46636 0.05353 0.0
O732 O 0.23526 0.3953 0.99115 0.0
H733 H 0.3081 0.34014 0.98032 0.0
H734 H 0.23811 0.33422 1.00139 0.0
H735 H 0.24841 0.31155 0.97373 0.0
H736 H 0.28366 0.31437 0.96307 0.0
H737 H 0.29707 0.36273 0.00772 0.0
H738 H 0.25714 0.29926 0.05617 0.0
H739 H 0.22262 0.30125 0.06844 0.0
O740 O 0.23224 0.37021 0.01214 0.0
C741 C 0.24068 0.40261 0.04789 0.0
C742 C 0.21879 0.33087 0.05781 0.0
C743 C 0.24876 0.31254 0.05393 0.0
N744 N 0.24672 0.34549 0.04113 0.0
C745 C 0.22776 0.34674 0.04792 0.0
C746 C 0.25725 0.32871 0.04411 0.0
C747 C 0.22939 0.31367 0.0608 0.0
C748 C 0.29549 0.42961 0.01975 0.0
N749 N 0.27545 0.43166 0.02243 0.0
C750 C 0.3102 0.44203 0.03087 0.0
C751 C 0.30427 0.45664 0.0448 0.0
C752 C 0.2838 0.45867 0.04744 0.0
C753 C 0.26952 0.44596 0.03607 0.0
C754 C 0.23853 0.46942 0.98669 0.0
C755 C 0.21969 0.43541 1.00115 0.0
C756 C 0.24956 0.45313 0.99228 0.0
N757 N 0.24012 0.43644 0.99951 0.0
C758 C 0.20817 0.45142 0.99571 0.0
C759 C 0.2177 0.46853 0.98844 0.0
C760 C 0.22607 0.37944 0.99683 0.0
C761 C 0.29271 0.33873 0.98486 0.0
C762 C 0.25343 0.33568 0.99673 0.0
C763 C 0.2592 0.32272 0.98112 0.0
C764 C 0.27898 0.3243 0.97516 0.0
N765 N 0.26698 0.34981 0.00617 0.0
C766 C 0.2864 0.35142 1.00042 0.0
Co767 Co 0.75582 0.16564 1.0034 0.0
Co768 Co 0.74622 0.11806 0.01919 0.0
O769 O 0.76477 0.14115 0.01517 0.0
C770 C 0.79032 0.15531 0.97881 0.0
O771 O 0.78229 0.1368 0.97635 0.0
C772 C 0.76778 0.12488 0.05967 0.0
O773 O 0.76235 0.14359 0.06025 0.0
O774 O 0.72848 0.1357 0.03472 0.0
O775 O 0.72976 0.16364 0.01727 0.0
H776 H 0.67829 0.08133 0.02098 0.0
H777 H 0.79561 0.16625 0.02583 0.0
O778 O 0.78175 0.16856 0.98937 0.0
H779 H 0.75778 0.21751 0.06165 0.0
H780 H 0.76531 0.23649 0.98099 0.0
H781 H 0.71731 0.17768 0.98431 0.0
H782 H 0.74245 0.19831 0.03137 0.0
H783 H 0.77602 0.20565 0.99651 0.0
O784 O 0.76239 0.11287 0.04454 0.0
H785 H 0.7018 0.11018 0.01525 0.0
H786 H 0.75172 0.07672 0.03315 0.0
H787 H 0.70591 0.20827 0.96881 0.0
H788 H 0.81159 0.18523 0.05598 0.0
H789 H 0.73 0.23795 0.96708 0.0
H790 H 0.79262 0.21105 0.07412 0.0
O791 O 0.74313 0.14951 0.97951 0.0
H792 H 0.81265 0.09202 1.00036 0.0
H793 H 0.73899 0.08661 0.98538 0.0
H794 H 0.76079 0.06552 0.96531 0.0
H795 H 0.7979 0.06812 0.97278 0.0
H796 H 0.79032 0.11299 0.01993 0.0
H797 H 0.72874 0.04755 0.03922 0.0
H798 H 0.69174 0.04972 0.03304 0.0
O799 O 0.72989 0.12228 0.99364 0.0
C800 C 0.72197 0.15274 0.03041 0.0
C801 C 0.69438 0.08017 0.02366 0.0
C802 C 0.7227 0.06123 0.03392 0.0
N803 N 0.72811 0.09508 0.02371 0.0
C804 C 0.70777 0.09644 0.0204 0.0
C805 C 0.73563 0.07781 0.0305 0.0
C806 C 0.70194 0.06245 0.03045 0.0
C807 C 0.78733 0.17757 0.03356 0.0
N808 N 0.76817 0.18123 0.02679 0.0
C809 C 0.79642 0.18822 0.05066 0.0
C810 C 0.78576 0.20269 0.06084 0.0
C811 C 0.76621 0.20632 0.05386 0.0
C812 C 0.75759 0.19536 0.03673 0.0
C813 C 0.75467 0.22366 0.98169 0.0
C814 C 0.72784 0.19058 0.98371 0.0
C815 C 0.76066 0.20615 0.99041 0.0
N816 N 0.74726 0.18994 0.99144 0.0
C817 C 0.72132 0.20784 0.97487 0.0
C818 C 0.73485 0.22448 0.97389 0.0
C819 C 0.73171 0.1334 0.9787 0.0
C820 C 0.7965 0.09071 0.99699 0.0
C821 C 0.75513 0.0879 0.98868 0.0
C822 C 0.76739 0.07587 0.97729 0.0
C823 C 0.78821 0.07733 0.9815 0.0
N824 N 0.76336 0.10099 1.00387 0.0
C825 C 0.78376 0.10249 0.00808 0.0
Co826 Co 0.1042 0.51948 0.2715 0.0
Co827 Co 0.15113 0.52581 0.25281 0.0
O828 O 0.12731 0.50892 0.25838 0.0
C829 C 0.11454 0.48513 0.29615 0.0
O830 O 0.13336 0.49244 0.29728 0.0
C831 C 0.15488 0.51457 0.20943 0.0
O832 O 0.15396 0.53379 0.20611 0.0
O833 O 0.13371 0.54449 0.23824 0.0
O834 O 0.10657 0.54506 0.25688 0.0
H835 H 0.19138 0.59128 0.24742 0.0
H836 H 0.1002 0.47916 0.24996 0.0
O837 O 0.10102 0.49407 0.28631 0.0
H838 H 0.04871 0.51877 0.21673 0.0
H839 H 0.035 0.51433 0.29878 0.0
H840 H 0.09525 0.55912 0.29045 0.0
H841 H 0.0707 0.53392 0.24526 0.0
H842 H 0.06407 0.50158 0.2815 0.0
O843 O 0.15329 0.50865 0.22723 0.0
H844 H 0.16164 0.56976 0.25502 0.0
H845 H 0.19146 0.51725 0.23754 0.0
H846 H 0.06645 0.57254 0.30768 0.0
H847 H 0.07839 0.46334 0.22158 0.0
H848 H 0.03605 0.55007 0.31193 0.0
H849 H 0.05244 0.4832 0.20476 0.0
O850 O 0.12224 0.53192 0.29413 0.0
H851 H 0.17371 0.45778 0.27069 0.0
H852 H 0.18452 0.53124 0.28495 0.0
H853 H 0.20505 0.5082 0.30405 0.0
H854 H 0.19975 0.47118 0.29693 0.0
H855 H 0.15333 0.48134 0.25209 0.0
H856 H 0.2215 0.53821 0.2297 0.0
H857 H 0.22159 0.5755 0.23466 0.0
O858 O 0.14955 0.54283 0.27852 0.0
C859 C 0.11729 0.55201 0.24316 0.0
C860 C 0.19154 0.57505 0.24523 0.0
C861 C 0.20844 0.54526 0.23527 0.0
N862 N 0.17485 0.54229 0.2468 0.0
C863 C 0.17476 0.56279 0.24952 0.0
C864 C 0.19139 0.53348 0.23974 0.0
C865 C 0.20848 0.56619 0.23806 0.0
C866 C 0.08885 0.48785 0.24278 0.0
N867 N 0.08666 0.5074 0.24932 0.0
C868 C 0.07659 0.47883 0.22669 0.0
C869 C 0.06204 0.48999 0.21725 0.0
C870 C 0.05995 0.50995 0.22395 0.0
C871 C 0.07248 0.51847 0.24008 0.0
C872 C 0.04815 0.52428 0.29699 0.0
C873 C 0.08202 0.54929 0.29214 0.0
C874 C 0.06467 0.51713 0.28726 0.0
N875 N 0.08127 0.52965 0.28484 0.0
C876 C 0.06578 0.55696 0.30195 0.0
C877 C 0.04874 0.54434 0.30436 0.0
C878 C 0.13901 0.54218 0.294 0.0
C879 C 0.17622 0.47388 0.27387 0.0
C880 C 0.18205 0.51515 0.2818 0.0
C881 C 0.19377 0.50218 0.29264 0.0
C882 C 0.1908 0.48141 0.28862 0.0
N883 N 0.1678 0.50766 0.26731 0.0
C884 C 0.16479 0.48731 0.26332 0.0
Co885 Co 0.75565 0.91362 0.5057 0.0
Co886 Co 0.75996 0.86731 0.52487 0.0
O887 O 0.77168 0.89077 0.51219 0.0
C888 C 0.77709 0.90517 0.46806 0.0
O889 O 0.77377 0.88574 0.4699 0.0
C890 C 0.79792 0.87656 0.55102 0.0
O891 O 0.79244 0.89497 0.55496 0.0
O892 O 0.75116 0.88509 0.54753 0.0
O893 O 0.73986 0.9106 0.53027 0.0
H894 H 0.70636 0.82848 0.55966 0.0
H895 H 0.80028 0.91837 0.50818 0.0
O896 O 0.771 0.91788 0.48105 0.0
H897 H 0.77836 0.9688 0.55827 0.0
H898 H 0.74493 0.98297 0.48162 0.0
H899 H 0.71213 0.92127 0.50592 0.0
H900 H 0.75331 0.94688 0.53745 0.0
H901 H 0.76508 0.95438 0.49063 0.0
O902 O 0.78656 0.86409 0.53974 0.0
H903 H 0.72108 0.85764 0.54302 0.0
H904 H 0.77486 0.82726 0.53474 0.0
H905 H 0.69143 0.94958 0.49724 0.0
H906 H 0.82586 0.94011 0.52857 0.0
H907 H 0.70784 0.98071 0.48499 0.0
H908 H 0.81494 0.96551 0.55387 0.0
O909 O 0.73553 0.89519 0.48954 0.0
H910 H 0.80927 0.84232 0.47593 0.0
H911 H 0.73978 0.8339 0.49792 0.0
H912 H 0.75019 0.81236 0.46943 0.0
H913 H 0.78519 0.81646 0.4583 0.0
H914 H 0.79814 0.86375 0.50416 0.0
H915 H 0.76078 0.79783 0.55142 0.0
H916 H 0.72625 0.7983 0.56394 0.0
O917 O 0.73318 0.86942 0.50981 0.0
C918 C 0.7412 0.9009 0.54628 0.0
C919 C 0.72139 0.82808 0.55421 0.0
C920 C 0.75195 0.81089 0.54961 0.0
N921 N 0.74874 0.8441 0.53779 0.0
C922 C 0.72979 0.84452 0.54474 0.0
C923 C 0.75986 0.82761 0.54022 0.0
C924 C 0.73257 0.81115 0.55663 0.0
C925 C 0.79542 0.92949 0.51905 0.0
N926 N 0.77533 0.9314 0.52156 0.0
C927 C 0.80997 0.94172 0.5306 0.0
C928 C 0.80383 0.95595 0.5448 0.0
C929 C 0.78331 0.95779 0.54729 0.0
C930 C 0.76919 0.9453 0.53549 0.0
C931 C 0.73761 0.9695 0.48698 0.0
C932 C 0.71939 0.93481 0.5007 0.0
C933 C 0.74893 0.95324 0.49205 0.0
N934 N 0.7398 0.93622 0.49892 0.0
C935 C 0.70759 0.95077 0.49577 0.0
C936 C 0.7168 0.96822 0.48888 0.0
C937 C 0.72667 0.879 0.49487 0.0
C938 C 0.79399 0.84036 0.48067 0.0
C939 C 0.75498 0.83589 0.49307 0.0
C940 C 0.76082 0.82359 0.47698 0.0
C941 C 0.78046 0.82588 0.47076 0.0
N942 N 0.76833 0.85008 0.50271 0.0
C943 C 0.78762 0.85239 0.4967 0.0
Co944 Co 0.85949 0.01921 0.26605 0.0
Co945 Co 0.90468 0.01442 0.24448 0.0
O946 O 0.88169 1.00272 0.25808 0.0
C947 C 0.86924 0.99658 0.30258 0.0
O948 O 0.8885 0.99889 0.29933 0.0
C949 C 0.89392 0.97545 0.22037 0.0
O950 O 0.87464 0.97833 0.22166 0.0
O951 O 0.88591 0.02351 0.22287 0.0
O952 O 0.86177 0.03551 0.24165 0.0
H953 H 0.94182 0.06846 0.20876 0.0
H954 H 0.85298 0.97471 0.26347 0.0
O955 O 0.85605 1.00356 0.29067 0.0
H956 H 0.80177 0.99888 0.2155 0.0
H957 H 0.79181 0.03111 0.29376 0.0
H958 H 0.85288 0.06297 0.26722 0.0
H959 H 0.82546 0.02299 0.23547 0.0
H960 H 0.81938 0.01043 0.28288 0.0
O961 O 0.90721 0.98833 0.22851 0.0
H962 H 0.9135 0.05353 0.22651 0.0
H963 H 0.94428 0.99968 0.23266 0.0
H964 H 0.8256 0.08419 0.27778 0.0
H965 H 0.8294 0.95008 0.24397 0.0
H966 H 0.79479 0.06826 0.29117 0.0
H967 H 0.8036 0.96213 0.21974 0.0
O968 O 0.87894 0.03856 0.28181 0.0
H969 H 0.93156 0.96378 0.29087 0.0
H970 H 0.9394 0.03379 0.27037 0.0
H971 H 0.96211 0.02254 0.29753 0.0
H972 H 0.95831 0.98727 0.30791 0.0
H973 H 0.90896 0.97576 0.26398 0.0
H974 H 0.97284 0.01396 0.21483 0.0
H975 H 0.97176 0.04863 0.20281 0.0
O976 O 0.90355 0.04097 0.26023 0.0
C977 C 0.87054 0.03392 0.22508 0.0
C978 C 0.94249 0.05336 0.21396 0.0
C979 C 0.95989 0.02277 0.21735 0.0
N980 N 0.92727 0.0258 0.23071 0.0
C981 C 0.92652 0.04484 0.22406 0.0
C982 C 0.94364 0.01474 0.22739 0.0
C983 C 0.95927 0.04222 0.21061 0.0
C984 C 0.84167 0.98007 0.25309 0.0
N985 N 0.84057 1.00025 0.25066 0.0
C986 C 0.82841 0.96605 0.24203 0.0
C987 C 0.81396 0.97283 0.22841 0.0
C988 C 0.81294 0.99344 0.22601 0.0
C989 C 0.82645 0.00702 0.23731 0.0
C990 C 0.80514 0.03822 0.28791 0.0
C991 C 0.83947 0.05591 0.27291 0.0
C992 C 0.82082 0.0266 0.28175 0.0
N993 N 0.83766 0.03547 0.27426 0.0
C994 C 0.82409 0.06801 0.27891 0.0
C995 C 0.80682 0.05907 0.28644 0.0
C996 C 0.89488 0.04733 0.27583 0.0
C997 C 0.93339 0.97917 0.28646 0.0
C998 C 0.93751 0.01848 0.27491 0.0
C999 C 0.95049 0.01216 0.29024 0.0
C1000 C 0.94837 0.99237 0.29603 0.0
N1001 N 0.92283 1.00545 0.2656 0.0
C1002 C 0.92069 0.98602 0.27118 0.0
Co1003 Co 0.25632 0.66587 0.50424 0.0
Co1004 Co 0.24728 0.61853 0.5207 0.0
O1005 O 0.26562 0.64169 0.51636 0.0
C1006 C 0.29103 0.65578 0.47989 0.0
O1007 O 0.28326 0.63716 0.47767 0.0
C1008 C 0.26921 0.62564 0.56101 0.0
O1009 O 0.26378 0.64435 0.56155 0.0
O1010 O 0.22958 0.63619 0.53623 0.0
O1011 O 0.23018 0.66363 0.51803 0.0
H1012 H 0.17959 0.5815 0.52331 0.0
H1013 H 0.29607 0.66738 0.52685 0.0
O1014 O 0.28228 0.66902 0.49028 0.0
H1015 H 0.25726 0.71835 0.56187 0.0
H1016 H 0.26477 0.73649 0.48099 0.0
H1017 H 0.21765 0.67708 0.48481 0.0
H1018 H 0.24231 0.69858 0.53176 0.0
H1019 H 0.27593 0.70605 0.49694 0.0
O1020 O 0.26369 0.61357 0.54597 0.0
H1021 H 0.20287 0.61042 0.51721 0.0
H1022 H 0.25315 0.57732 0.53486 0.0
H1023 H 0.2058 0.70727 0.46888 0.0
H1024 H 0.31167 0.68693 0.55683 0.0
H1025 H 0.22944 0.73726 0.4669 0.0
H1026 H 0.2922 0.7126 0.57457 0.0
O1027 O 0.24396 0.64929 0.48049 0.0
H1028 H 0.31369 0.5927 0.5015 0.0
H1029 H 0.23995 0.58684 0.48712 0.0
H1030 H 0.26169 0.56574 0.46699 0.0
H1031 H 0.29885 0.56857 0.47417 0.0
H1032 H 0.2914 0.61368 0.52113 0.0
H1033 H 0.2304 0.5481 0.5413 0.0
H1034 H 0.19334 0.55005 0.53544 0.0
O1035 O 0.23068 0.62247 0.49523 0.0
C1036 C 0.22266 0.65294 0.53147 0.0
C1037 C 0.19571 0.58044 0.52586 0.0
C1038 C 0.22423 0.5617 0.53598 0.0
N1039 N 0.22935 0.5955 0.52552 0.0
C1040 C 0.20897 0.59675 0.52238 0.0
C1041 C 0.23703 0.57832 0.53234 0.0
C1042 C 0.20344 0.56281 0.53268 0.0
C1043 C 0.28757 0.67864 0.5344 0.0
N1044 N 0.26835 0.6819 0.52751 0.0
C1045 C 0.29645 0.68962 0.55141 0.0
C1046 C 0.28551 0.704 0.56137 0.0
C1047 C 0.2659 0.70722 0.55426 0.0
C1048 C 0.2575 0.69595 0.53722 0.0
C1049 C 0.25432 0.72354 0.4818 0.0
C1050 C 0.22799 0.69012 0.4841 0.0
C1051 C 0.26056 0.70624 0.49077 0.0
N1052 N 0.2474 0.68987 0.49193 0.0
C1053 C 0.22121 0.70715 0.47502 0.0
C1054 C 0.23449 0.72396 0.4739 0.0
C1055 C 0.23253 0.63321 0.48002 0.0
C1056 C 0.29752 0.59129 0.49827 0.0
C1057 C 0.2561 0.58823 0.49029 0.0
C1058 C 0.26834 0.5762 0.47887 0.0
C1059 C 0.28918 0.57778 0.48292 0.0
N1060 N 0.26439 0.60145 0.50534 0.0
C1061 C 0.28481 0.60308 0.50939 0.0
Co1062 Co 0.35875 0.52147 0.76814 0.0
Co1063 Co 0.40333 0.51283 0.74676 0.0
O1064 O 0.37949 0.50332 0.76026 0.0
C1065 C 0.36744 0.49902 0.80479 0.0
O1066 O 0.38675 0.50138 0.80175 0.0
C1067 C 0.4038 0.48185 0.7127 0.0
O1068 O 0.40356 0.49655 0.70028 0.0
O1069 O 0.3855 0.5234 0.72509 0.0
O1070 O 0.36217 0.53736 0.74365 0.0
H1071 H 0.44509 0.56266 0.71009 0.0
H1072 H 0.34944 0.47731 0.76531 0.0
O1073 O 0.3544 0.50611 0.7928 0.0
H1074 H 0.29969 0.50499 0.71815 0.0
H1075 H 0.29253 0.53847 0.79631 0.0
H1076 H 0.35527 0.56576 0.76904 0.0
H1077 H 0.32495 0.52755 0.73801 0.0
H1078 H 0.31844 0.51571 0.78539 0.0
O1079 O 0.40279 0.48576 0.7316 0.0
H1080 H 0.41548 0.55053 0.72778 0.0
H1081 H 0.44177 0.49455 0.73604 0.0
H1082 H 0.32969 0.58904 0.77963 0.0
H1083 H 0.3243 0.45421 0.74588 0.0
H1084 H 0.29804 0.57542 0.79338 0.0
H1085 H 0.29921 0.46804 0.72208 0.0
O1086 O 0.37953 0.53956 0.7836 0.0
H1087 H 0.42514 0.46062 0.79401 0.0
H1088 H 0.4392 0.52959 0.77266 0.0
H1089 H 0.46047 0.51685 0.80013 0.0
H1090 H 0.45355 0.48209 0.81093 0.0
H1091 H 0.404 0.47409 0.76685 0.0
H1092 H 0.47163 0.50605 0.71838 0.0
H1093 H 0.47342 0.54034 0.70529 0.0
O1094 O 0.40453 0.53984 0.76225 0.0
C1095 C 0.37092 0.53493 0.72715 0.0
C1096 C 0.44449 0.54769 0.71574 0.0
C1097 C 0.45938 0.51592 0.72039 0.0
N1098 N 0.42691 0.52188 0.73297 0.0
C1099 C 0.42777 0.54075 0.72578 0.0
C1100 C 0.44244 0.50949 0.73037 0.0
C1101 C 0.46038 0.53516 0.71305 0.0
C1102 C 0.33848 0.48344 0.75508 0.0
N1103 N 0.33859 0.50375 0.75289 0.0
C1104 C 0.32432 0.47029 0.74408 0.0
C1105 C 0.31026 0.47806 0.73071 0.0
C1106 C 0.31053 0.49879 0.72849 0.0
C1107 C 0.3249 0.51148 0.73975 0.0
C1108 C 0.30623 0.54459 0.7903 0.0
C1109 C 0.34148 0.55971 0.77489 0.0
C1110 C 0.32098 0.53178 0.78413 0.0
N1111 N 0.33828 0.53939 0.77642 0.0
C1112 C 0.32708 0.57297 0.78091 0.0
C1113 C 0.30934 0.56531 0.78865 0.0
C1114 C 0.39614 0.54704 0.77773 0.0
C1115 C 0.42835 0.47576 0.7894 0.0
C1116 C 0.43596 0.51452 0.77737 0.0
C1117 C 0.44813 0.50735 0.79288 0.0
C1118 C 0.44426 0.48783 0.79891 0.0
N1119 N 0.42037 0.50259 0.7681 0.0
C1120 C 0.4165 0.48344 0.77394 0.0
Co1121 Co 0.61027 0.01793 0.76727 0.0
Co1122 Co 0.65745 0.02799 0.75071 0.0
O1123 O 0.63479 0.00906 0.75537 0.0
C1124 C 0.62097 0.98375 0.79218 0.0
O1125 O 0.63948 0.99185 0.79458 0.0
C1126 C 0.65072 1.00352 0.71183 0.0
O1127 O 0.63131 1.00603 0.71258 0.0
O1128 O 0.63919 0.0447 0.7347 0.0
O1129 O 0.61192 0.04388 0.75314 0.0
H1130 H 0.69219 0.09659 0.74688 0.0
H1131 H 0.6094 0.97782 0.74548 0.0
O1132 O 0.60766 0.99218 0.78156 0.0
H1133 H 0.55782 0.01507 0.70941 0.0
H1134 H 0.53965 0.00824 0.79036 0.0
H1135 H 0.59815 0.05646 0.78619 0.0
H1136 H 0.57737 0.03089 0.73926 0.0
H1137 H 0.57042 0.99759 0.77466 0.0
O1138 O 0.66306 0.01155 0.72567 0.0
H1139 H 0.66401 0.07253 0.75332 0.0
H1140 H 0.69905 0.02331 0.73698 0.0
H1141 H 0.56761 0.06779 0.80187 0.0
H1142 H 0.59003 0.96134 0.71581 0.0
H1143 H 0.53808 0.0436 0.80402 0.0
H1144 H 0.56407 0.98003 0.69753 0.0
O1145 O 0.62659 0.03091 0.79089 0.0
H1146 H 0.68537 0.96301 0.77135 0.0
H1147 H 0.68898 0.03688 0.78425 0.0
H1148 H 0.71078 0.01622 0.8049 0.0
H1149 H 0.70909 0.97901 0.79847 0.0
H1150 H 0.66368 0.98422 0.75118 0.0
H1151 H 0.72755 0.04684 0.73021 0.0
H1152 H 0.72425 0.08378 0.73524 0.0
O1153 O 0.65294 0.04481 0.77589 0.0
C1154 C 0.62233 0.05136 0.73946 0.0
C1155 C 0.69383 0.08054 0.74469 0.0
C1156 C 0.71367 0.05261 0.7353 0.0
N1157 N 0.67993 0.04654 0.74566 0.0
C1158 C 0.67795 0.06684 0.74835 0.0
C1159 C 0.69746 0.03936 0.73911 0.0
C1160 C 0.71181 0.07333 0.73814 0.0
C1161 C 0.59799 0.98597 0.73771 0.0
N1162 N 0.59449 1.00526 0.74413 0.0
C1163 C 0.58713 0.97659 0.72088 0.0
C1164 C 0.57259 0.9871 0.7106 0.0
C1165 C 0.56909 0.00677 0.71726 0.0
C1166 C 0.58026 0.01567 0.73413 0.0
C1167 C 0.5524 0.01893 0.78948 0.0
C1168 C 0.58532 0.04587 0.78698 0.0
C1169 C 0.56989 0.01298 0.78064 0.0
N1170 N 0.58601 0.02644 0.77938 0.0
C1171 C 0.56809 0.05236 0.79591 0.0
C1172 C 0.55153 0.03878 0.79714 0.0
C1173 C 0.64233 0.0428 0.79118 0.0
C1174 C 0.68629 0.97921 0.77425 0.0
C1175 C 0.68809 0.02069 0.7814 0.0
C1176 C 0.70052 0.00907 0.79311 0.0
C1177 C 0.69957 0.9882 0.78949 0.0
N1178 N 0.67511 0.01177 0.76646 0.0
C1179 C 0.6741 0.99131 0.76283 0.0
Co1180 Co 0.75109 0.65401 0.02614 0.0
Co1181 Co 0.7705 0.60701 0.01991 0.0
O1182 O 0.75707 0.63012 0.00928 0.0
C1183 C 0.71414 0.64479 0.99768 0.0
O1184 O 0.72063 0.62727 0.99189 0.0
C1185 C 0.79549 0.61794 0.98586 0.0
O1186 O 0.79598 0.63682 0.99288 0.0
O1187 O 0.79281 0.62505 0.03303 0.0
O1188 O 0.77759 0.6532 0.04196 0.0
H1189 H 0.80611 0.56922 0.07333 0.0
H1190 H 0.75008 0.65478 0.98136 0.0
O1191 O 0.72428 0.65632 0.01095 0.0
H1192 H 0.79872 0.71024 0.0065 0.0
H1193 H 0.72528 0.72304 0.03962 0.0
H1194 H 0.75581 0.66504 0.06996 0.0
H1195 H 0.78102 0.68934 0.03023 0.0
H1196 H 0.73324 0.69335 0.0183 0.0
O1197 O 0.78597 0.60428 0.99489 0.0
H1198 H 0.78883 0.59791 0.05979 0.0
H1199 H 0.78126 0.56718 1.00198 0.0
H1200 H 0.74827 0.69452 0.09181 0.0
H1201 H 0.7672 0.67545 0.95711 0.0
H1202 H 0.73289 0.72379 0.07665 0.0
H1203 H 0.7918 0.7034 0.96961 0.0
O1204 O 0.73744 0.63665 0.0455 0.0
H1205 H 0.7238 0.57902 0.96188 0.0
H1206 H 0.74344 0.57389 0.0339 0.0
H1207 H 0.71581 0.55129 0.01792 0.0
H1208 H 0.70587 0.55371 0.98162 0.0
H1209 H 0.75109 0.60162 0.97855 0.0
H1210 H 0.79859 0.53822 0.01485 0.0
H1211 H 0.81108 0.5391 0.05079 0.0
O1212 O 0.75536 0.60898 0.04511 0.0
C1213 C 0.79281 0.64229 0.04238 0.0
C1214 C 0.80068 0.56863 0.05766 0.0
C1215 C 0.79648 0.55124 0.02483 0.0
N1216 N 0.78391 0.58416 0.03016 0.0
C1217 C 0.79083 0.58481 0.04992 0.0
C1218 C 0.78671 0.56771 0.01762 0.0
C1219 C 0.80348 0.55174 0.045 0.0
C1220 C 0.76051 0.66705 0.98699 0.0
N1221 N 0.76436 0.67092 0.00726 0.0
C1222 C 0.77028 0.67865 0.97315 0.0
C1223 C 0.78411 0.6943 0.98017 0.0
C1224 C 0.78801 0.69813 1.00085 0.0
C1225 C 0.77797 0.6862 0.01424 0.0
C1226 C 0.73201 0.71039 0.0464 0.0
C1227 C 0.74924 0.67777 0.06323 0.0
C1228 C 0.73651 0.69351 0.03442 0.0
N1229 N 0.74512 0.67753 0.04287 0.0
C1230 C 0.74495 0.6944 0.07569 0.0
C1231 C 0.73629 0.71081 0.06717 0.0
C1232 C 0.74211 0.61993 0.05256 0.0
C1233 C 0.72799 0.57782 0.9777 0.0
C1234 C 0.73904 0.57525 0.01817 0.0
C1235 C 0.72346 0.5623 0.00917 0.0
C1236 C 0.71792 0.56364 0.9888 0.0
N1237 N 0.74881 0.58918 0.0072 0.0
C1238 C 0.74351 0.59051 0.9872 0.0
Co1239 Co 0.86822 0.52703 0.76015 0.0
Co1240 Co 0.91401 0.50586 0.75745 0.0
O1241 O 0.89081 0.51344 0.77266 0.0
C1242 C 0.87806 0.5516 0.79885 0.0
O1243 O 0.89736 0.55124 0.79563 0.0
C1244 C 0.90312 0.46882 0.77916 0.0
O1245 O 0.88391 0.47225 0.77674 0.0
O1246 O 0.89566 0.49053 0.73665 0.0
O1247 O 0.87028 0.51124 0.73384 0.0
H1248 H 0.95204 0.49621 0.69471 0.0
H1249 H 0.86262 0.50763 0.79871 0.0
O1250 O 0.86493 0.54294 0.78612 0.0
H1251 H 0.81113 0.47371 0.75034 0.0
H1252 H 0.79992 0.55645 0.75839 0.0
H1253 H 0.86055 0.54484 0.72076 0.0
H1254 H 0.8342 0.50094 0.73978 0.0
H1255 H 0.82812 0.53877 0.7736 0.0
O1256 O 0.91651 0.48079 0.77256 0.0
H1257 H 0.92337 0.50602 0.7144 0.0
H1258 H 0.95361 0.48882 0.76815 0.0
H1259 H 0.83263 0.56244 0.70491 0.0
H1260 H 0.83961 0.48069 0.81001 0.0
H1261 H 0.80204 0.56835 0.72376 0.0
H1262 H 0.8137 0.46346 0.78571 0.0
O1263 O 0.88715 0.54875 0.75145 0.0
H1264 H 0.93918 0.52654 0.82854 0.0
H1265 H 0.94877 0.53629 0.75665 0.0
H1266 H 0.97078 0.55582 0.78259 0.0
H1267 H 0.96609 0.55096 0.81884 0.0
H1268 H 0.91734 0.50751 0.80208 0.0
H1269 H 0.98253 0.47866 0.74902 0.0
H1270 H 0.98189 0.48242 0.71204 0.0
O1271 O 0.91284 0.53073 0.74181 0.0
C1272 C 0.87969 0.4961 0.72756 0.0
C1273 C 0.95252 0.49456 0.71083 0.0
C1274 C 0.96962 0.48469 0.7413 0.0
N1275 N 0.93687 0.49814 0.74242 0.0
C1276 C 0.93635 0.50013 0.72206 0.0
C1277 C 0.95318 0.49043 0.75205 0.0
C1278 C 0.96926 0.48681 0.72055 0.0
C1279 C 0.85124 0.50036 0.7881 0.0
N1280 N 0.84978 0.50586 0.7686 0.0
C1281 C 0.83831 0.48505 0.79456 0.0
C1282 C 0.8238 0.47536 0.78092 0.0
C1283 C 0.82237 0.48108 0.76106 0.0
C1284 C 0.83556 0.49645 0.75514 0.0
C1285 C 0.81316 0.55395 0.75001 0.0
C1286 C 0.84725 0.54727 0.72902 0.0
C1287 C 0.8292 0.54399 0.75857 0.0
N1288 N 0.84593 0.54069 0.74804 0.0
C1289 C 0.83151 0.55728 0.71999 0.0
C1290 C 0.81436 0.56061 0.73058 0.0
C1291 C 0.90345 0.54696 0.74238 0.0
C1292 C 0.9414 0.52876 0.81279 0.0
C1293 C 0.94653 0.53419 0.77238 0.0
C1294 C 0.9591 0.54523 0.78701 0.0
C1295 C 0.95648 0.54248 0.80734 0.0
N1296 N 0.93177 0.52077 0.77784 0.0
C1297 C 0.92913 0.51797 0.79774 0.0
Co1298 Co 0.76992 0.36158 0.51911 0.0
Co1299 Co 0.74916 0.40752 0.51616 0.0
O1300 O 0.76269 0.38483 0.50379 0.0
C1301 C 0.80719 0.37205 0.49755 0.0
O1302 O 0.80385 0.39129 0.49975 0.0
C1303 C 0.72482 0.39787 0.47731 0.0
O1304 O 0.72517 0.37857 0.48048 0.0
O1305 O 0.72718 0.38875 0.52462 0.0
O1306 O 0.74494 0.36303 0.53457 0.0
H1307 H 0.71342 0.44329 0.57105 0.0
H1308 H 0.76863 0.35808 0.47448 0.0
O1309 O 0.79511 0.35881 0.50419 0.0
H1310 H 0.71948 0.30532 0.49378 0.0
H1311 H 0.79639 0.29285 0.52786 0.0
H1312 H 0.76936 0.35232 0.56217 0.0
H1313 H 0.73902 0.32724 0.51979 0.0
H1314 H 0.78665 0.32181 0.5086 0.0
O1315 O 0.73348 0.41095 0.49008 0.0
H1316 H 0.73098 0.41526 0.55536 0.0
H1317 H 0.73788 0.44771 0.50265 0.0
H1318 H 0.77876 0.32361 0.58197 0.0
H1319 H 0.74959 0.33633 0.44796 0.0
H1320 H 0.79239 0.2936 0.5648 0.0
H1321 H 0.72475 0.30977 0.45756 0.0
O1322 O 0.78527 0.37981 0.53998 0.0
H1323 H 0.79619 0.43594 0.46682 0.0
H1324 H 0.77542 0.4412 0.53688 0.0
H1325 H 0.80294 0.46411 0.52662 0.0
H1326 H 0.81345 0.46162 0.49134 0.0
H1327 H 0.76895 0.4131 0.47781 0.0
H1328 H 0.72026 0.47602 0.51771 0.0
H1329 H 0.70796 0.47394 0.55219 0.0
O1330 O 0.76465 0.40528 0.54262 0.0
C1331 C 0.72877 0.37251 0.53379 0.0
C1332 C 0.71876 0.44439 0.55604 0.0
C1333 C 0.72257 0.46275 0.52609 0.0
N1334 N 0.73555 0.42989 0.52816 0.0
C1335 C 0.72874 0.42859 0.54709 0.0
C1336 C 0.7325 0.44665 0.51762 0.0
C1337 C 0.71568 0.46158 0.54544 0.0
C1338 C 0.75799 0.34643 0.47878 0.0
N1339 N 0.75498 0.34392 0.49866 0.0
C1340 C 0.74719 0.33421 0.4637 0.0
C1341 C 0.73324 0.31934 0.46909 0.0
C1342 C 0.73026 0.31685 0.48941 0.0
C1343 C 0.74131 0.32936 0.50407 0.0
C1344 C 0.79043 0.30582 0.5355 0.0
C1345 C 0.77518 0.33927 0.55457 0.0
C1346 C 0.78493 0.32229 0.52469 0.0
N1347 N 0.77731 0.33869 0.53423 0.0
C1348 C 0.78052 0.32308 0.56587 0.0
C1349 C 0.78818 0.30625 0.55623 0.0
C1350 C 0.77966 0.39576 0.54907 0.0
C1351 C 0.79172 0.43721 0.48223 0.0
C1352 C 0.78002 0.43987 0.52155 0.0
C1353 C 0.79555 0.45297 0.5158 0.0
C1354 C 0.80142 0.45158 0.496 0.0
N1355 N 0.77058 0.42579 0.50796 0.0
C1356 C 0.77624 0.42437 0.48851 0.0
Co1357 Co 0.66553 0.50401 0.25603 0.0
Co1358 Co 0.61795 0.51989 0.24661 0.0
O1359 O 0.64106 0.51575 0.2651 0.0
C1360 C 0.65544 0.47937 0.29057 0.0
O1361 O 0.63684 0.47687 0.28272 0.0
C1362 C 0.62482 0.56019 0.26847 0.0
O1363 O 0.64357 0.56073 0.26312 0.0
O1364 O 0.63561 0.53558 0.229 0.0
O1365 O 0.66345 0.51794 0.23004 0.0
H1366 H 0.58122 0.52207 0.17879 0.0
H1367 H 0.66629 0.52638 0.29582 0.0
O1368 O 0.66859 0.48995 0.28188 0.0
H1369 H 0.71745 0.5623 0.2579 0.0
H1370 H 0.73648 0.48165 0.2651 0.0
H1371 H 0.67741 0.48499 0.21745 0.0
H1372 H 0.6982 0.53202 0.2426 0.0
H1373 H 0.70568 0.49713 0.27599 0.0
O1374 O 0.61275 0.54513 0.26293 0.0
H1375 H 0.6101 0.51624 0.20222 0.0
H1376 H 0.57657 0.53377 0.25221 0.0
H1377 H 0.70797 0.46953 0.20587 0.0
H1378 H 0.68533 0.55652 0.31177 0.0
H1379 H 0.73779 0.46779 0.22979 0.0
H1380 H 0.71109 0.57471 0.29275 0.0
O1381 O 0.64933 0.48015 0.24336 0.0
H1382 H 0.59188 0.50054 0.31283 0.0
H1383 H 0.58649 0.48608 0.23916 0.0
H1384 H 0.56538 0.46582 0.2608 0.0
H1385 H 0.56797 0.47303 0.29792 0.0
H1386 H 0.61287 0.52031 0.29065 0.0
H1387 H 0.54738 0.53994 0.2293 0.0
H1388 H 0.54957 0.534 0.19231 0.0
O1389 O 0.62219 0.49444 0.23013 0.0
C1390 C 0.65263 0.53122 0.2224 0.0
C1391 C 0.58005 0.52465 0.19488 0.0
C1392 C 0.56107 0.5347 0.22323 0.0
N1393 N 0.59496 0.5245 0.22856 0.0
C1394 C 0.59634 0.52133 0.20822 0.0
C1395 C 0.57767 0.53122 0.23612 0.0
C1396 C 0.56231 0.53136 0.20248 0.0
C1397 C 0.6776 0.53413 0.28752 0.0
N1398 N 0.68119 0.5274 0.26835 0.0
C1399 C 0.68828 0.55122 0.2966 0.0
C1400 C 0.70271 0.56144 0.28591 0.0
C1401 C 0.70628 0.55449 0.26635 0.0
C1402 C 0.69529 0.53736 0.25775 0.0
C1403 C 0.7236 0.48235 0.25453 0.0
C1404 C 0.69037 0.48438 0.22791 0.0
C1405 C 0.7061 0.49105 0.26063 0.0
N1406 N 0.68982 0.49208 0.24733 0.0
C1407 C 0.70761 0.47557 0.22128 0.0
C1408 C 0.72432 0.47458 0.23471 0.0
C1409 C 0.63324 0.47944 0.2319 0.0
C1410 C 0.59057 0.49729 0.29668 0.0
C1411 C 0.58777 0.48927 0.25531 0.0
C1412 C 0.57573 0.47778 0.26748 0.0
C1413 C 0.57718 0.48184 0.2883 0.0
N1414 N 0.60086 0.50442 0.26363 0.0
C1415 C 0.60236 0.50849 0.28403 0.0
C1416 C 0.08842 0.4597 0.30651 0.0
C1417 C 0.10883 0.46641 0.30619 0.0
C1418 C 0.08287 0.44192 0.31558 0.0
C1419 C 0.10108 0.4048 0.35124 0.0
H1420 H 0.05819 0.37022 0.3237 0.0
C1421 C 0.06225 0.31839 0.35104 0.0
C1422 C 0.0598 0.31631 0.37171 0.0
C1423 C 0.06924 0.33674 0.34401 0.0
C1424 C 0.07031 0.37958 0.33155 0.0
H1425 H 0.13943 0.4597 0.31543 0.0
H1426 H 0.12974 0.42841 0.33102 0.0
H1427 H 0.06854 0.4018 0.3096 0.0
H1428 H 0.06336 0.33187 0.40128 0.0
H1429 H 0.07541 0.36418 0.38892 0.0
H1430 H 0.10309 0.38215 0.37296 0.0
C1431 C 0.118 0.4371 0.32448 0.0
C1432 C 0.07608 0.39789 0.32358 0.0
C1433 C 0.12356 0.45499 0.31542 0.0
C1434 C 0.0651 0.33295 0.38527 0.0
C1435 C 0.07206 0.35145 0.37818 0.0
C1436 C 0.0953 0.3864 0.35924 0.0
C1437 C 0.09757 0.43025 0.32452 0.0
C1438 C 0.09154 0.41076 0.33328 0.0
C1439 C 0.07387 0.35364 0.35739 0.0
C1440 C 0.0799 0.3735 0.34941 0.0
H1441 H 0.07663 0.46818 0.29971 0.0
H1442 H 0.06698 0.43735 0.31564 0.0
H1443 H 0.11292 0.41442 0.35923 0.0
H1444 H 0.05858 0.30585 0.34014 0.0
H1445 H 0.0709 0.33768 0.32797 0.0
C1446 C 0.95341 0.7963 0.59712 0.0
C1447 C 0.96492 0.80335 0.61469 0.0
C1448 C 0.93579 0.80546 0.59117 0.0
C1449 C 0.89721 0.83969 0.60928 0.0
H1450 H 0.8854 0.84327 0.55188 0.0
C1451 C 0.82905 0.88116 0.57473 0.0
C1452 C 0.81761 0.86995 0.55912 0.0
C1453 C 0.84751 0.87442 0.58228 0.0
C1454 C 0.88845 0.84233 0.56796 0.0
H1455 H 0.96671 0.82548 0.63998 0.0
H1456 H 0.93612 0.84182 0.62936 0.0
H1457 H 0.91655 0.82904 0.5637 0.0
H1458 H 0.81675 0.84295 0.53911 0.0
H1459 H 0.8488 0.8315 0.55203 0.0
H1460 H 0.86899 0.85326 0.61335 0.0
C1461 C 0.94057 0.82897 0.62031 0.0
C1462 C 0.90628 0.83406 0.57477 0.0
C1463 C 0.95818 0.81965 0.62637 0.0
C1464 C 0.8251 0.85199 0.55116 0.0
C1465 C 0.84357 0.84545 0.55848 0.0
C1466 C 0.87939 0.84818 0.60243 0.0
C1467 C 0.92924 0.82212 0.6025 0.0
C1468 C 0.91076 0.83223 0.5955 0.0
C1469 C 0.85501 0.85654 0.57411 0.0
C1470 C 0.87466 0.84924 0.58166 0.0
H1471 H 0.958 0.78364 0.58785 0.0
H1472 H 0.92726 0.79937 0.57767 0.0
H1473 H 0.90002 0.83842 0.62533 0.0
H1474 H 0.8237 0.89503 0.58122 0.0
H1475 H 0.85604 0.88332 0.59429 0.0
C1476 C 0.42457 0.5736 0.78339 0.0
C1477 C 0.40614 0.56499 0.78925 0.0
C1478 C 0.43423 0.59023 0.7944 0.0
C1479 C 0.42539 0.63254 0.83075 0.0
H1480 H 0.48368 0.63464 0.83915 0.0
C1481 C 0.47089 0.69797 0.87791 0.0
C1482 C 0.48844 0.70557 0.86933 0.0
C1483 C 0.46056 0.68015 0.86974 0.0
C1484 C 0.4674 0.63437 0.83684 0.0
H1485 H 0.38335 0.56743 0.81131 0.0
H1486 H 0.40029 0.59639 0.83055 0.0
H1487 H 0.46613 0.6051 0.82165 0.0
H1488 H 0.50898 0.70004 0.84554 0.0
H1489 H 0.49105 0.66937 0.83145 0.0
H1490 H 0.42676 0.66197 0.8458 0.0
C1491 C 0.40719 0.59031 0.81733 0.0
C1492 C 0.45733 0.61743 0.82676 0.0
C1493 C 0.39753 0.57362 0.80633 0.0
C1494 C 0.49554 0.69474 0.85262 0.0
C1495 C 0.48531 0.67699 0.84457 0.0
C1496 C 0.43549 0.64953 0.84086 0.0
C1497 C 0.42572 0.59876 0.81157 0.0
C1498 C 0.43623 0.6164 0.82331 0.0
C1499 C 0.46766 0.66947 0.85294 0.0
C1500 C 0.45666 0.65078 0.84375 0.0
H1501 H 0.43163 0.56751 0.77026 0.0
H1502 H 0.44829 0.59656 0.7893 0.0
H1503 H 0.40914 0.63233 0.82822 0.0
H1504 H 0.46499 0.70587 0.89078 0.0
H1505 H 0.44708 0.67467 0.87665 0.0
C1506 C 0.57753 0.21404 0.1223 0.0
C1507 C 0.56937 0.23042 0.11277 0.0
C1508 C 0.59424 0.20476 0.11471 0.0
C1509 C 0.63758 0.21479 0.08357 0.0
H1510 H 0.63873 0.15664 0.07614 0.0
C1511 C 0.69604 0.17839 0.03501 0.0
C1512 C 0.70452 0.16054 0.04093 0.0
C1513 C 0.67991 0.18616 0.0449 0.0
C1514 C 0.63882 0.17289 0.07839 0.0
H1515 H 0.57249 0.2497 0.08763 0.0
H1516 H 0.60146 0.23368 0.07465 0.0
H1517 H 0.61003 0.17155 0.09164 0.0
H1518 H 0.70235 0.13681 0.06197 0.0
H1519 H 0.6743 0.15062 0.07951 0.0
H1520 H 0.66626 0.21632 0.07053 0.0
C1521 C 0.59505 0.22806 0.08804 0.0
C1522 C 0.62233 0.18143 0.08725 0.0
C1523 C 0.57831 0.23719 0.09547 0.0
C1524 C 0.69623 0.15058 0.05698 0.0
C1525 C 0.68006 0.15845 0.06698 0.0
C1526 C 0.65406 0.2063 0.07489 0.0
C1527 C 0.6033 0.2118 0.09759 0.0
C1528 C 0.62137 0.2025 0.0896 0.0
C1529 C 0.67178 0.17645 0.06115 0.0
C1530 C 0.65477 0.18525 0.0718 0.0
H1531 H 0.57105 0.20841 0.13564 0.0
H1532 H 0.60031 0.19231 0.12245 0.0
H1533 H 0.63751 0.23106 0.08555 0.0
H1534 H 0.70183 0.18645 0.02262 0.0
H1535 H 0.67369 0.19976 0.03962 0.0
C1536 C 0.09347 0.5798 0.23958 0.0
C1537 C 0.11023 0.56987 0.23281 0.0
C1538 C 0.08675 0.59667 0.23017 0.0
C1539 C 0.08666 0.62265 0.18275 0.0
H1540 H 0.07191 0.66816 0.21665 0.0
C1541 C 0.05813 0.69656 0.15018 0.0
C1542 C 0.04239 0.70545 0.16012 0.0
C1543 C 0.06789 0.68039 0.15838 0.0
C1544 C 0.07574 0.65552 0.20691 0.0
H1545 H 0.13293 0.57003 0.21055 0.0
H1546 H 0.12098 0.59949 0.19395 0.0
H1547 H 0.08602 0.63931 0.23207 0.0
H1548 H 0.02436 0.70382 0.18636 0.0
H1549 H 0.04092 0.67576 0.20022 0.0
H1550 H 0.0759 0.63872 0.15758 0.0
C1551 C 0.1131 0.59409 0.20662 0.0
C1552 C 0.0839 0.63899 0.21579 0.0
C1553 C 0.11998 0.57725 0.21619 0.0
C1554 C 0.03652 0.69759 0.17828 0.0
C1555 C 0.04617 0.68149 0.18638 0.0
C1556 C 0.07833 0.6392 0.17384 0.0
C1557 C 0.09648 0.60408 0.2136 0.0
C1558 C 0.08917 0.6222 0.20386 0.0
C1559 C 0.06211 0.67274 0.17669 0.0
C1560 C 0.07243 0.65572 0.18584 0.0
H1561 H 0.08549 0.57461 0.25228 0.0
H1562 H 0.07374 0.60383 0.23576 0.0
H1563 H 0.09049 0.60991 0.17315 0.0
H1564 H 0.06305 0.70218 0.13617 0.0
H1565 H 0.08018 0.67412 0.15054 0.0
C1566 C 0.5776 0.78374 0.41968 0.0
C1567 C 0.56737 0.78995 0.4022 0.0
C1568 C 0.59423 0.79515 0.42872 0.0
C1569 C 0.63433 0.83356 0.41994 0.0
H1570 H 0.63758 0.83983 0.47836 0.0
C1571 C 0.70002 0.87991 0.46639 0.0
C1572 C 0.70779 0.87081 0.48356 0.0
C1573 C 0.68233 0.87178 0.45579 0.0
C1574 C 0.637 0.83812 0.46205 0.0
H1575 H 0.56715 0.81293 0.38025 0.0
H1576 H 0.59642 0.83292 0.39614 0.0
H1577 H 0.60797 0.82244 0.46088 0.0
H1578 H 0.70288 0.84595 0.50296 0.0
H1579 H 0.67244 0.83188 0.48455 0.0
H1580 H 0.66362 0.84903 0.42123 0.0
C1581 C 0.5914 0.81914 0.40278 0.0
C1582 C 0.62 0.82815 0.45202 0.0
C1583 C 0.5746 0.80771 0.39372 0.0
C1584 C 0.69741 0.85346 0.48987 0.0
C1585 C 0.67979 0.84542 0.47936 0.0
C1586 C 0.65143 0.84356 0.43002 0.0
C1587 C 0.60123 0.81311 0.42056 0.0
C1588 C 0.61862 0.82535 0.43087 0.0
C1589 C 0.67197 0.85446 0.46222 0.0
C1590 C 0.65313 0.84558 0.45123 0.0
H1591 H 0.5727 0.77007 0.42659 0.0
H1592 H 0.60169 0.78982 0.44214 0.0
H1593 H 0.63376 0.83159 0.40364 0.0
H1594 H 0.70759 0.89329 0.46109 0.0
H1595 H 0.67663 0.87918 0.44272 0.0
C1596 C 0.47281 0.3174 0.67767 0.0
C1597 C 0.47377 0.31068 0.65736 0.0
C1598 C 0.46424 0.33555 0.68284 0.0
C1599 C 0.43105 0.37413 0.66274 0.0
H1600 H 0.45521 0.40652 0.70897 0.0
C1601 C 0.41042 0.45643 0.68469 0.0
C1602 C 0.40864 0.46125 0.70536 0.0
C1603 C 0.41712 0.43768 0.67811 0.0
C1604 C 0.44816 0.39757 0.69613 0.0
H1605 H 0.46641 0.31786 0.62651 0.0
H1606 H 0.45187 0.34988 0.63551 0.0
H1607 H 0.46977 0.3751 0.69868 0.0
H1608 H 0.41188 0.44975 0.73523 0.0
H1609 H 0.42355 0.41725 0.72377 0.0
H1610 H 0.40966 0.39705 0.66009 0.0
C1611 C 0.45739 0.34088 0.6475 0.0
C1612 C 0.45648 0.37948 0.69023 0.0
C1613 C 0.46584 0.32256 0.64231 0.0
C1614 C 0.41309 0.44663 0.7192 0.0
C1615 C 0.41993 0.42802 0.71266 0.0
C1616 C 0.42282 0.39239 0.66856 0.0
C1617 C 0.45656 0.34768 0.66785 0.0
C1618 C 0.44794 0.36736 0.67359 0.0
C1619 C 0.42237 0.42343 0.69208 0.0
C1620 C 0.43117 0.40421 0.68546 0.0
H1621 H 0.47858 0.30855 0.68969 0.0
H1622 H 0.46349 0.33998 0.69868 0.0
H1623 H 0.4239 0.36515 0.64999 0.0
H1624 H 0.40713 0.46732 0.67361 0.0
H1625 H 0.4189 0.43462 0.66217 0.0
C1626 C 0.95723 0.20946 0.92414 0.0
C1627 C 0.95873 0.21277 0.90355 0.0
C1628 C 0.93916 0.20192 0.93137 0.0
C1629 C 0.89671 0.19966 0.94503 0.0
H1630 H 0.86092 0.15883 0.91581 0.0
C1631 C 0.81664 0.1814 0.97021 0.0
C1632 C 0.80932 0.16111 0.96924 0.0
C1633 C 0.83455 0.18707 0.9614 0.0
C1634 C 0.87082 0.17013 0.92425 0.0
H1635 H 0.94243 0.21019 0.87432 0.0
H1636 H 0.9106 0.19726 0.88704 0.0
H1637 H 0.893 0.16915 0.90198 0.0
H1638 H 0.81513 0.13085 0.95808 0.0
H1639 H 0.84666 0.14072 0.94297 0.0
H1640 H 0.87496 0.20038 0.96751 0.0
C1641 C 0.92357 0.2003 0.89755 0.0
C1642 C 0.88912 0.17623 0.91619 0.0
C1643 C 0.94179 0.20778 0.89025 0.0
C1644 C 0.82031 0.14662 0.95908 0.0
C1645 C 0.83834 0.1523 0.95031 0.0
C1646 C 0.87853 0.19357 0.95307 0.0
C1647 C 0.92195 0.19761 0.91828 0.0
C1648 C 0.90233 0.19104 0.92653 0.0
C1649 C 0.84576 0.1726 0.95147 0.0
C1650 C 0.86528 0.17877 0.9428 0.0
H1651 H 0.97002 0.21288 0.9348 0.0
H1652 H 0.93868 0.19957 0.94733 0.0
H1653 H 0.9063 0.21133 0.95331 0.0
H1654 H 0.80851 0.19302 0.97774 0.0
H1655 H 0.83953 0.20288 0.96228 0.0
C1656 C 0.31221 0.12925 0.45479 0.0
C1657 C 0.30239 0.11473 0.46602 0.0
C1658 C 0.32055 0.12361 0.43654 0.0
C1659 C 0.31702 0.08236 0.39635 0.0
H1660 H 0.36778 0.10679 0.38091 0.0
C1661 C 0.34489 0.0661 0.31721 0.0
C1662 C 0.36549 0.06292 0.3155 0.0
C1663 C 0.33783 0.07368 0.33534 0.0
C1664 C 0.35366 0.09972 0.38505 0.0
H1665 H 0.29405 0.08279 0.46699 0.0
H1666 H 0.30876 0.073 0.43556 0.0
H1667 H 0.35454 0.11717 0.41321 0.0
H1668 H 0.39491 0.06568 0.33149 0.0
H1669 H 0.38249 0.07865 0.36337 0.0
H1670 H 0.3163 0.06453 0.36861 0.0
C1671 C 0.3097 0.08881 0.44055 0.0
C1672 C 0.34593 0.10585 0.40348 0.0
C1673 C 0.30133 0.09444 0.45869 0.0
C1674 C 0.37896 0.06801 0.33228 0.0
C1675 C 0.37184 0.07551 0.35054 0.0
C1676 C 0.32472 0.07624 0.37802 0.0
C1677 C 0.31928 0.10332 0.42911 0.0
C1678 C 0.32753 0.09719 0.4094 0.0
C1679 C 0.35111 0.07815 0.35238 0.0
C1680 C 0.34312 0.08484 0.37206 0.0
H1681 H 0.31327 0.14502 0.45998 0.0
H1682 H 0.32763 0.13522 0.42805 0.0
H1683 H 0.30267 0.07553 0.40022 0.0
H1684 H 0.3341 0.06257 0.30455 0.0
H1685 H 0.32186 0.07594 0.336 0.0
C1686 C 0.14994 0.05817 0.69695 0.0
C1687 C 0.15994 0.04213 0.70522 0.0
C1688 C 0.15741 0.06771 0.68033 0.0
C1689 C 0.18933 0.0588 0.63741 0.0
H1690 H 0.19507 0.11706 0.6363 0.0
C1691 C 0.23767 0.09673 0.5797 0.0
C1692 C 0.23127 0.11433 0.57108 0.0
C1693 C 0.22779 0.08866 0.5957 0.0
C1694 C 0.1933 0.10077 0.63621 0.0
H1695 H 0.18578 0.02372 0.70239 0.0
H1696 H 0.19854 0.04018 0.67357 0.0
H1697 H 0.17966 0.10163 0.66478 0.0
H1698 H 0.20942 0.13733 0.57285 0.0
H1699 H 0.19191 0.12301 0.60068 0.0
H1700 H 0.20277 0.05775 0.60894 0.0
C1701 C 0.18488 0.04533 0.67983 0.0
C1702 C 0.18449 0.09194 0.65256 0.0
C1703 C 0.17758 0.03595 0.69648 0.0
C1704 C 0.21478 0.12376 0.5791 0.0
C1705 C 0.20479 0.1156 0.59513 0.0
C1706 C 0.19797 0.06758 0.62106 0.0
C1707 C 0.17488 0.06126 0.67148 0.0
C1708 C 0.18275 0.07084 0.65351 0.0
C1709 C 0.21109 0.09783 0.60354 0.0
C1710 C 0.20045 0.08868 0.62038 0.0
H1711 H 0.13634 0.06335 0.70328 0.0
H1712 H 0.14931 0.07989 0.67418 0.0
H1713 H 0.18784 0.0425 0.63747 0.0
H1714 H 0.2504 0.08907 0.57413 0.0
H1715 H 0.23343 0.07526 0.60204 0.0
C1716 C 0.14559 0.95818 0.81969 0.0
C1717 C 0.15994 0.96889 0.80898 0.0
C1718 C 0.1514 0.94918 0.83755 0.0
C1719 C 0.16983 0.92298 0.86966 0.0
H1720 H 0.21025 0.95257 0.90563 0.0
C1721 C 0.20865 0.8889 0.93999 0.0
C1722 C 0.21334 0.90207 0.95706 0.0
C1723 C 0.20085 0.89625 0.92193 0.0
C1724 C 0.1988 0.94413 0.89591 0.0
H1725 H 0.19175 0.97812 0.80849 0.0
H1726 H 0.20182 0.9623 0.83919 0.0
H1727 H 0.19893 0.96701 0.87458 0.0
H1728 H 0.21247 0.93308 0.96883 0.0
H1729 H 0.19859 0.94567 0.93779 0.0
H1730 H 0.16946 0.90028 0.89141 0.0
C1731 C 0.18601 0.96115 0.83413 0.0
C1732 C 0.19249 0.95232 0.87789 0.0
C1733 C 0.18022 0.97017 0.8164 0.0
C1734 C 0.20934 0.92253 0.9559 0.0
C1735 C 0.20145 0.9298 0.93801 0.0
C1736 C 0.17614 0.91476 0.88779 0.0
C1737 C 0.17168 0.95069 0.84508 0.0
C1738 C 0.17798 0.94186 0.86445 0.0
C1739 C 0.1975 0.91689 0.92063 0.0
C1740 C 0.19068 0.92528 0.90118 0.0
H1741 H 0.12984 0.95691 0.81441 0.0
H1742 H 0.13992 0.94141 0.84567 0.0
H1743 H 0.15875 0.91441 0.8596 0.0
H1744 H 0.21159 0.87306 0.94038 0.0
H1745 H 0.19809 0.88588 0.90883 0.0
C1746 C 0.28318 0.92047 0.0763 0.0
C1747 C 0.28993 0.90318 0.06619 0.0
C1748 C 0.2935 0.92899 0.09379 0.0
C1749 C 0.34273 0.93259 0.12241 0.0
H1750 H 0.31087 0.95319 0.16529 0.0
C1751 C 0.37716 0.96967 0.19944 0.0
C1752 C 0.36799 0.98704 0.20662 0.0
C1753 C 0.36875 0.95815 0.18243 0.0
C1754 C 0.32001 0.94765 0.15341 0.0
H1755 H 0.31303 0.88135 0.06674 0.0
H1756 H 0.33109 0.89631 0.09756 0.0
H1757 H 0.29408 0.93492 0.13584 0.0
H1758 H 0.34317 1.00631 0.20081 0.0
H1759 H 0.32873 0.9864 0.17141 0.0
H1760 H 0.3687 0.94558 0.14012 0.0
C1761 C 0.3178 0.90328 0.09171 0.0
C1762 C 0.31038 0.93716 0.13651 0.0
C1763 C 0.30739 0.89466 0.07411 0.0
C1764 C 0.35058 0.99292 0.19599 0.0
C1765 C 0.34218 0.98141 0.17912 0.0
C1766 C 0.35243 0.94311 0.13943 0.0
C1767 C 0.31088 0.9205 0.10181 0.0
C1768 C 0.32154 0.92987 0.12059 0.0
C1769 C 0.35094 0.96373 0.1723 0.0
C1770 C 0.34111 0.95113 0.15492 0.0
H1771 H 0.26987 0.92758 0.07072 0.0
H1772 H 0.28794 0.94246 0.10093 0.0
H1773 H 0.35178 0.92726 0.11038 0.0
H1774 H 0.39063 0.96474 0.20715 0.0
H1775 H 0.37586 0.9446 0.17754 0.0
C1776 C 0.33366 0.38322 0.06648 0.0
C1777 C 0.31659 0.37011 0.06147 0.0
C1778 C 0.35174 0.37573 0.07405 0.0
C1779 C 0.37796 0.32786 0.07508 0.0
H1780 H 0.41399 0.35692 0.1158 0.0
C1781 C 0.45413 0.31326 0.12825 0.0
C1782 C 0.465 0.30288 0.1138 0.0
C1783 C 0.43621 0.3222 0.12254 0.0
C1784 C 0.40401 0.34853 0.10454 0.0
H1785 H 0.3049 0.33898 0.06144 0.0
H1786 H 0.336 0.32612 0.07492 0.0
H1787 H 0.38214 0.3711 0.1053 0.0
H1788 H 0.46566 0.29416 0.08192 0.0
H1789 H 0.43484 0.3099 0.07202 0.0
H1790 H 0.39941 0.30509 0.07456 0.0
C1791 C 0.33574 0.34208 0.07251 0.0
C1792 C 0.38586 0.35678 0.09834 0.0
C1793 C 0.31781 0.34951 0.06486 0.0
C1794 C 0.45764 0.30186 0.09352 0.0
C1795 C 0.43984 0.31083 0.08783 0.0
C1796 C 0.39601 0.31962 0.08128 0.0
C1797 C 0.35309 0.35498 0.07685 0.0
C1798 C 0.37256 0.34651 0.08354 0.0
C1799 C 0.42875 0.32098 0.10225 0.0
C1800 C 0.40935 0.32984 0.09603 0.0
H1801 H 0.33324 0.39916 0.06402 0.0
H1802 H 0.36482 0.3861 0.07711 0.0
H1803 H 0.36831 0.31962 0.06343 0.0
H1804 H 0.45936 0.31432 0.144 0.0
H1805 H 0.42799 0.32972 0.13409 0.0
C1806 C 0.97095 0.81714 0.1787 0.0
C1807 C 0.96919 0.80908 0.15865 0.0
C1808 C 0.96175 0.83483 0.18422 0.0
C1809 C 0.95223 0.87854 0.18944 0.0
H1810 H 0.89877 0.88991 0.16828 0.0
C1811 C 0.921 0.95603 0.20519 0.0
C1812 C 0.90081 0.95676 0.21036 0.0
C1813 C 0.92836 0.93816 0.19737 0.0
C1814 C 0.91366 0.8869 0.17442 0.0
H1815 H 0.95613 0.81332 0.12869 0.0
H1816 H 0.94022 0.84448 0.13832 0.0
H1817 H 0.91334 0.85819 0.15797 0.0
H1818 H 0.87231 0.93935 0.21069 0.0
H1819 H 0.88531 0.90784 0.19728 0.0
H1820 H 0.9525 0.90683 0.20626 0.0
C1821 C 0.94857 0.83691 0.14981 0.0
C1822 C 0.92211 0.86882 0.16833 0.0
C1823 C 0.9578 0.81911 0.14427 0.0
C1824 C 0.88793 0.93929 0.20683 0.0
C1825 C 0.89538 0.92126 0.1991 0.0
C1826 C 0.94382 0.89652 0.1955 0.0
C1827 C 0.95056 0.84507 0.16985 0.0
C1828 C 0.94149 0.86439 0.17584 0.0
C1829 C 0.91582 0.92039 0.19465 0.0
C1830 C 0.92446 0.90101 0.18806 0.0
H1831 H 0.97947 0.80978 0.19025 0.0
H1832 H 0.96331 0.84043 0.19986 0.0
H1833 H 0.96728 0.87582 0.19535 0.0
H1834 H 0.93129 0.96927 0.2074 0.0
H1835 H 0.94403 0.93826 0.19362 0.0
C1836 C 0.19533 0.67734 0.53457 0.0
C1837 C 0.20476 0.66037 0.54152 0.0
C1838 C 0.17837 0.68437 0.54361 0.0
C1839 C 0.15131 0.68491 0.59038 0.0
H1840 H 0.10677 0.70053 0.55563 0.0
C1841 C 0.07735 0.71396 0.62192 0.0
C1842 C 0.06859 0.7298 0.61202 0.0
C1843 C 0.09349 0.70415 0.61378 0.0
C1844 C 0.11914 0.69648 0.56561 0.0
H1845 H 0.20368 0.63766 0.56373 0.0
H1846 H 0.17404 0.65017 0.57968 0.0
H1847 H 0.13576 0.68603 0.5408 0.0
H1848 H 0.07031 0.74782 0.58582 0.0
H1849 H 0.09843 0.73114 0.572 0.0
H1850 H 0.13488 0.69583 0.6152 0.0
C1851 C 0.17989 0.65795 0.56715 0.0
C1852 C 0.13576 0.68809 0.55707 0.0
C1853 C 0.19682 0.65075 0.55795 0.0
C1854 C 0.07648 0.73561 0.59386 0.0
C1855 C 0.09261 0.7259 0.58581 0.0
C1856 C 0.1347 0.69348 0.59895 0.0
C1857 C 0.17038 0.67477 0.55997 0.0
C1858 C 0.15217 0.68244 0.56931 0.0
C1859 C 0.10131 0.70995 0.59555 0.0
C1860 C 0.1185 0.69966 0.58666 0.0
H1861 H 0.20096 0.68523 0.52201 0.0
H1862 H 0.17161 0.69753 0.53788 0.0
H1863 H 0.16378 0.68084 0.60022 0.0
H1864 H 0.0717 0.70906 0.63593 0.0
H1865 H 0.09966 0.69183 0.62164 0.0
C1866 C 0.98058 0.68261 0.64749 0.0
C1867 C 0.99336 0.69635 0.65973 0.0
C1868 C 0.96969 0.66686 0.65602 0.0
C1869 C 0.97108 0.63597 0.70012 0.0
H1870 H 0.91431 0.62273 0.68597 0.0
C1871 C 0.93095 0.56283 0.72315 0.0
C1872 C 0.91227 0.56434 0.73199 0.0
C1873 C 0.93989 0.57916 0.71396 0.0
C1874 C 0.93013 0.62634 0.69012 0.0
H1875 H 1.00463 0.70432 0.69055 0.0
H1876 H 0.98591 0.67686 0.70525 0.0
H1877 H 0.93183 0.65088 0.67044 0.0
H1878 H 0.88806 0.58422 0.73739 0.0
H1879 H 0.90374 0.61283 0.72104 0.0
H1880 H 0.96953 0.6115 0.71969 0.0
C1881 C 0.9843 0.67821 0.68909 0.0
C1882 C 0.94019 0.6423 0.6811 0.0
C1883 C 0.99498 0.69401 0.68064 0.0
C1884 C 0.90251 0.58255 0.73087 0.0
C1885 C 0.91142 0.59889 0.72143 0.0
C1886 C 0.96112 0.61993 0.70892 0.0
C1887 C 0.97157 0.66442 0.67691 0.0
C1888 C 0.96077 0.64731 0.68607 0.0
C1889 C 0.93035 0.59743 0.71313 0.0
C1890 C 0.94056 0.6149 0.70402 0.0
H1891 H 0.97893 0.68405 0.63135 0.0
H1892 H 0.96009 0.65638 0.64624 0.0
H1893 H 0.98697 0.63936 0.70415 0.0
H1894 H 0.93888 0.54904 0.72341 0.0
H1895 H 0.95432 0.57744 0.70742 0.0
C1896 C 0.19831 0.1759 0.4854 0.0
C1897 C 0.19563 0.15762 0.4949 0.0
C1898 C 0.18248 0.18335 0.47384 0.0
C1899 C 0.12755 0.18247 0.46864 0.0
H1900 H 0.13558 0.20321 0.4161 0.0
C1901 C 0.061 0.21068 0.42123 0.0
C1902 C 0.06444 0.22762 0.40985 0.0
C1903 C 0.0771 0.20116 0.43022 0.0
C1904 C 0.1331 0.19775 0.43086 0.0
H1905 H 0.17423 0.13275 0.49953 0.0
H1906 H 0.14636 0.14603 0.4796 0.0
H1907 H 0.16343 0.18841 0.43443 0.0
H1908 H 0.08757 0.24766 0.39875 0.0
H1909 H 0.11578 0.23147 0.41503 0.0
H1910 H 0.09758 0.19238 0.46563 0.0
C1911 C 0.16081 0.1545 0.48109 0.0
C1912 C 0.14906 0.18916 0.4413 0.0
C1913 C 0.17677 0.14687 0.49242 0.0
C1914 C 0.08444 0.23457 0.40732 0.0
C1915 C 0.10061 0.2252 0.41662 0.0
C1916 C 0.11169 0.19129 0.45836 0.0
C1917 C 0.1635 0.17285 0.47172 0.0
C1918 C 0.14644 0.18141 0.46029 0.0
C1919 C 0.09714 0.20849 0.42842 0.0
C1920 C 0.11419 0.19903 0.43928 0.0
H1921 H 0.21268 0.18453 0.48691 0.0
H1922 H 0.18495 0.1976 0.46695 0.0
H1923 H 0.12517 0.17693 0.4834 0.0
H1924 H 0.04578 0.20476 0.42328 0.0
H1925 H 0.07374 0.18803 0.43866 0.0
C1926 C 0.61055 0.4597 0.20563 0.0
C1927 C 0.62657 0.46024 0.22044 0.0
C1928 C 0.60337 0.44147 0.19564 0.0
C1929 C 0.59971 0.38713 0.20223 0.0
H1930 H 0.58548 0.38274 0.14477 0.0
C1931 C 0.57078 0.31123 0.16244 0.0
C1932 C 0.55487 0.31139 0.14761 0.0
C1933 C 0.58093 0.32919 0.1701 0.0
C1934 C 0.58916 0.38375 0.16087 0.0
H1935 H 0.64783 0.44196 0.236 0.0
H1936 H 0.63515 0.41011 0.21858 0.0
H1937 H 0.60075 0.41444 0.16037 0.0
H1938 H 0.53746 0.33067 0.12895 0.0
H1939 H 0.55487 0.3621 0.14265 0.0
H1940 H 0.58766 0.35675 0.20298 0.0
C1941 C 0.62814 0.42385 0.21481 0.0
C1942 C 0.59798 0.4019 0.16978 0.0
C1943 C 0.63547 0.44212 0.2247 0.0
C1944 C 0.5497 0.32998 0.14029 0.0
C1945 C 0.55976 0.34801 0.1481 0.0
C1946 C 0.59075 0.36905 0.19337 0.0
C1947 C 0.61189 0.42331 0.20029 0.0
C1948 C 0.6033 0.40381 0.19058 0.0
C1949 C 0.57535 0.34788 0.16331 0.0
C1950 C 0.58531 0.3671 0.17257 0.0
H1951 H 0.60333 0.47333 0.20191 0.0
H1952 H 0.59071 0.44154 0.18466 0.0
H1953 H 0.60332 0.38822 0.21835 0.0
H1954 H 0.57533 0.29719 0.16832 0.0
H1955 H 0.59314 0.3284 0.18144 0.0
C1956 C 0.33425 0.87449 0.97383 0.0
C1957 C 0.32335 0.86198 0.98631 0.0
C1958 C 0.35048 0.86716 0.96352 0.0
C1959 C 0.38837 0.82933 0.96635 0.0
H1960 H 0.39096 0.8321 0.90846 0.0
C1961 C 0.4431 0.78191 0.92342 0.0
C1962 C 0.45302 0.79023 0.90742 0.0
C1963 C 0.42725 0.79155 0.93202 0.0
C1964 C 0.39067 0.83145 0.92467 0.0
H1965 H 0.32113 0.83211 0.99794 0.0
H1966 H 0.34952 0.81963 0.9804 0.0
H1967 H 0.364 0.84829 0.92581 0.0
H1968 H 0.4537 0.81498 0.88754 0.0
H1969 H 0.42623 0.83217 0.90291 0.0
H1970 H 0.41501 0.81287 0.96555 0.0
C1971 C 0.34549 0.835 0.97845 0.0
C1972 C 0.3752 0.84072 0.93458 0.0
C1973 C 0.32914 0.84215 0.98842 0.0
C1974 C 0.44629 0.80815 0.89979 0.0
C1975 C 0.43051 0.81798 0.90861 0.0
C1976 C 0.40391 0.82032 0.95655 0.0
C1977 C 0.35632 0.84737 0.96587 0.0
C1978 C 0.37369 0.83938 0.95547 0.0
C1979 C 0.42102 0.80998 0.9251 0.0
C1980 C 0.40506 0.82084 0.93551 0.0
H1981 H 0.33008 0.8898 0.97184 0.0
H1982 H 0.35864 0.87703 0.95396 0.0
H1983 H 0.38776 0.82834 0.98252 0.0
H1984 H 0.44774 0.768 0.92951 0.0
H1985 H 0.41996 0.78455 0.94426 0.0
C1986 C 0.89834 0.44196 0.80404 0.0
C1987 C 0.90973 0.45086 0.7893 0.0
C1988 C 0.90547 0.42551 0.81411 0.0
C1989 C 0.93628 0.38274 0.80784 0.0
H1990 H 0.95001 0.38707 0.8654 0.0
C1991 C 0.9892 0.32804 0.8433 0.0
C1992 C 0.98625 0.3217 0.86277 0.0
C1993 C 0.97818 0.34336 0.83548 0.0
C1994 C 0.94593 0.3854 0.84939 0.0
H1995 H 0.93721 0.44925 0.77324 0.0
H1996 H 0.94917 0.42023 0.79024 0.0
H1997 H 0.93266 0.41419 0.84947 0.0
H1998 H 0.96955 0.3267 0.8895 0.0
H1999 H 0.9497 0.35325 0.87559 0.0
H2000 H 0.94912 0.35403 0.80748 0.0
C2001 C 0.93496 0.42614 0.79423 0.0
C2002 C 0.93603 0.40096 0.8403 0.0
C2003 C 0.92812 0.44278 0.78456 0.0
C2004 C 0.97219 0.33133 0.87445 0.0
C2005 C 0.96086 0.34656 0.86647 0.0
C2006 C 0.94581 0.36709 0.81691 0.0
C2007 C 0.9238 0.41743 0.80917 0.0
C2008 C 0.93161 0.39996 0.81937 0.0
C2009 C 0.96355 0.35261 0.84675 0.0
C2010 C 0.95136 0.36843 0.83771 0.0
H2011 H 0.88418 0.44797 0.80806 0.0
H2012 H 0.89662 0.41898 0.82558 0.0
H2013 H 0.93283 0.38156 0.79169 0.0
H2014 H 1.00014 0.32116 0.834 0.0
H2015 H 0.98125 0.34798 0.82054 0.0
C2016 C 0.31261 0.16462 0.57109 0.0
C2017 C 0.31249 0.14934 0.55559 0.0
C2018 C 0.33072 0.1722 0.58104 0.0
C2019 C 0.38505 0.16198 0.58955 0.0
H2020 H 0.39074 0.21967 0.60242 0.0
C2021 C 0.4619 0.20561 0.60992 0.0
C2022 C 0.46275 0.22077 0.62561 0.0
C2023 C 0.44349 0.19582 0.60297 0.0
C2024 C 0.38931 0.2035 0.59917 0.0
H2025 H 0.33141 0.12983 0.53868 0.0
H2026 H 0.36307 0.14339 0.55571 0.0
H2027 H 0.35897 0.20463 0.5871 0.0
H2028 H 0.4448 0.23719 0.64654 0.0
H2029 H 0.41262 0.22013 0.63427 0.0
H2030 H 0.41572 0.16108 0.60116 0.0
C2031 C 0.3491 0.14927 0.56045 0.0
C2032 C 0.37105 0.19483 0.5904 0.0
C2033 C 0.33093 0.14153 0.5506 0.0
C2034 C 0.44473 0.2256 0.63444 0.0
C2035 C 0.42627 0.21592 0.62734 0.0
C2036 C 0.40339 0.1707 0.59817 0.0
C2037 C 0.34926 0.16488 0.57566 0.0
C2038 C 0.36866 0.17395 0.58543 0.0
C2039 C 0.42543 0.20104 0.6114 0.0
C2040 C 0.40573 0.19157 0.60303 0.0
H2041 H 0.29869 0.17089 0.57548 0.0
H2042 H 0.33015 0.18388 0.59295 0.0
H2043 H 0.3837 0.14582 0.58625 0.0
H2044 H 0.47545 0.20145 0.60276 0.0
H2045 H 0.44333 0.18456 0.59056 0.0
C2046 C 0.5629 0.71251 0.35145 0.0
C2047 C 0.54628 0.70919 0.36329 0.0
C2048 C 0.57254 0.69634 0.34276 0.0
C2049 C 0.57697 0.64058 0.34381 0.0
H2050 H 0.59682 0.6472 0.29065 0.0
C2051 C 0.5992 0.57439 0.29068 0.0
C2052 C 0.61732 0.57709 0.2809 0.0
C2053 C 0.59163 0.59035 0.30195 0.0
C2054 C 0.59155 0.6452 0.30558 0.0
H2055 H 0.5269 0.68619 0.37551 0.0
H2056 H 0.54325 0.65783 0.35974 0.0
H2057 H 0.58111 0.67498 0.30781 0.0
H2058 H 0.6418 0.59865 0.27545 0.0
H2059 H 0.6283 0.62673 0.29486 0.0
H2060 H 0.58682 0.6104 0.34102 0.0
C2061 C 0.54921 0.67299 0.35756 0.0
C2062 C 0.58259 0.66116 0.31551 0.0
C2063 C 0.53974 0.68924 0.36656 0.0
C2064 C 0.62781 0.59609 0.2828 0.0
C2065 C 0.62004 0.61217 0.29383 0.0
C2066 C 0.58569 0.6245 0.33371 0.0
C2067 C 0.56562 0.67632 0.34532 0.0
C2068 C 0.5752 0.65915 0.33482 0.0
C2069 C 0.60184 0.60947 0.30347 0.0
C2070 C 0.59311 0.62666 0.31451 0.0
H2071 H 0.5685 0.7277 0.34882 0.0
H2072 H 0.58543 0.69962 0.33397 0.0
H2073 H 0.5718 0.63848 0.35875 0.0
H2074 H 0.59078 0.55991 0.28961 0.0
H2075 H 0.57749 0.58785 0.30907 0.0
C2076 C 0.08034 0.78285 0.09621 0.0
C2077 C 0.07837 0.78211 0.11712 0.0
C2078 C 0.09614 0.79432 0.08865 0.0
C2079 C 0.14693 0.81829 0.10257 0.0
H2080 H 0.13729 0.84491 0.05276 0.0
C2081 C 0.21197 0.8455 0.05515 0.0
C2082 C 0.21031 0.86321 0.04464 0.0
C2083 C 0.19577 0.83754 0.06529 0.0
C2084 C 0.14025 0.83782 0.06682 0.0
H2085 H 0.09157 0.79302 0.14648 0.0
H2086 H 0.11915 0.81332 0.13324 0.0
H2087 H 0.1092 0.82796 0.06827 0.0
H2088 H 0.19024 0.88664 0.03703 0.0
H2089 H 0.16196 0.87285 0.05501 0.0
H2090 H 0.17794 0.82841 0.10127 0.0
C2091 C 0.10854 0.80475 0.12269 0.0
C2092 C 0.12415 0.82784 0.07559 0.0
C2093 C 0.0927 0.79315 0.1303 0.0
C2094 C 0.19203 0.87291 0.04483 0.0
C2095 C 0.17578 0.86495 0.05508 0.0
C2096 C 0.16303 0.82835 0.09384 0.0
C2097 C 0.11042 0.80554 0.10174 0.0
C2098 C 0.12732 0.8176 0.09338 0.0
C2099 C 0.17742 0.84709 0.06538 0.0
C2100 C 0.15998 0.83795 0.07564 0.0
H2101 H 0.06969 0.77446 0.08556 0.0
H2102 H 0.0973 0.79414 0.07246 0.0
H2103 H 0.15001 0.81052 0.1162 0.0
H2104 H 0.22577 0.83755 0.05545 0.0
H2105 H 0.19754 0.82359 0.07271 0.0
C2106 C 0.7196 0.92617 0.56241 0.0
C2107 C 0.73043 0.90865 0.56389 0.0
C2108 C 0.70972 0.93404 0.57878 0.0
C2109 C 0.70921 0.93431 0.63428 0.0
H2110 H 0.65909 0.96046 0.62472 0.0
C2111 C 0.67952 0.99022 0.69334 0.0
C2112 C 0.65858 0.99094 0.6952 0.0
C2113 C 0.68717 0.97829 0.67792 0.0
C2114 C 0.67292 0.95301 0.62778 0.0
H2115 H 0.73898 0.88549 0.58391 0.0
H2116 H 0.72142 0.89917 0.61259 0.0
H2117 H 0.67382 0.94228 0.59696 0.0
H2118 H 0.62926 0.9794 0.68235 0.0
H2119 H 0.64262 0.95829 0.65556 0.0
H2120 H 0.70814 0.94481 0.66518 0.0
C2121 C 0.72088 0.90695 0.59871 0.0
C2122 C 0.68154 0.94277 0.61176 0.0
C2123 C 0.73088 0.89905 0.58223 0.0
C2124 C 0.64546 0.97932 0.68127 0.0
C2125 C 0.65314 0.96725 0.66586 0.0
C2126 C 0.70053 0.94447 0.65034 0.0
C2127 C 0.71019 0.92459 0.59718 0.0
C2128 C 0.70002 0.93365 0.61469 0.0
C2129 C 0.67412 0.9666 0.66397 0.0
C2130 C 0.68247 0.95431 0.64724 0.0
H2131 H 0.71884 0.93407 0.54859 0.0
H2132 H 0.70203 0.94784 0.57709 0.0
H2133 H 0.72348 0.92757 0.63713 0.0
H2134 H 0.6901 0.99903 0.70373 0.0
H2135 H 0.70337 0.97854 0.67676 0.0
C2136 C 0.87375 0.97144 0.3292 0.0
C2137 C 0.86242 0.98625 0.32037 0.0
C2138 C 0.86661 0.96136 0.34563 0.0
C2139 C 0.8367 0.96774 0.38877 0.0
H2140 H 0.82166 0.91044 0.38424 0.0
C2141 C 0.78539 0.93263 0.4453 0.0
C2142 C 0.78795 0.91284 0.45092 0.0
C2143 C 0.79601 0.94052 0.42973 0.0
C2144 C 0.82612 0.92636 0.38598 0.0
H2145 H 0.835 1.00239 0.32202 0.0
H2146 H 0.82301 0.98536 0.35106 0.0
H2147 H 0.83849 0.92624 0.35675 0.0
H2148 H 0.80359 0.8857 0.44448 0.0
H2149 H 0.82279 0.89972 0.41758 0.0
H2150 H 0.82488 0.96814 0.41796 0.0
C2151 C 0.83719 0.98132 0.34508 0.0
C2152 C 0.83571 0.93538 0.37019 0.0
C2153 C 0.84404 0.991 0.32845 0.0
C2154 C 0.80125 0.90099 0.44042 0.0
C2155 C 0.8122 0.90903 0.42496 0.0
C2156 C 0.82752 0.95873 0.40467 0.0
C2157 C 0.84832 0.96635 0.35375 0.0
C2158 C 0.84062 0.95622 0.3713 0.0
C2159 C 0.80984 0.92901 0.41952 0.0
C2160 C 0.82154 0.93802 0.4033 0.0
H2161 H 0.88792 0.96742 0.3232 0.0
H2162 H 0.87544 0.94987 0.35214 0.0
H2163 H 0.84054 0.98383 0.39002 0.0
H2164 H 0.77502 0.94207 0.45288 0.0
H2165 H 0.79319 0.95569 0.42564 0.0
C2166 C 0.78173 0.1276 0.09571 0.0
C2167 C 0.78015 0.11736 0.07659 0.0
C2168 C 0.79269 0.11977 0.1118 0.0
C2169 C 0.83297 0.08587 0.12408 0.0
H2170 H 0.80648 0.07981 0.17405 0.0
C2171 C 0.86578 0.0389 0.1879 0.0
C2172 C 0.86231 0.0449 0.20794 0.0
C2173 C 0.85672 0.0486 0.17184 0.0
C2174 C 0.81434 0.0817 0.16039 0.0
H2175 H 0.78937 0.09119 0.05923 0.0
H2176 H 0.80873 0.0778 0.08718 0.0
H2177 H 0.78941 0.09588 0.14644 0.0
H2178 H 0.84732 0.06639 0.22681 0.0
H2179 H 0.83233 0.08372 0.19908 0.0
H2180 H 0.85807 0.07205 0.13803 0.0
C2181 C 0.8014 0.09179 0.08976 0.0
C2182 C 0.80446 0.09087 0.14452 0.0
C2183 C 0.7902 0.09942 0.07379 0.0
C2184 C 0.85012 0.06119 0.21155 0.0
C2185 C 0.84136 0.07107 0.19557 0.0
C2186 C 0.84301 0.07695 0.14006 0.0
C2187 C 0.8026 0.10175 0.10899 0.0
C2188 C 0.8136 0.09293 0.12615 0.0
C2189 C 0.84421 0.06472 0.17545 0.0
C2190 C 0.83379 0.07462 0.15844 0.0
H2191 H 0.77416 0.14144 0.09834 0.0
H2192 H 0.79346 0.12782 0.12645 0.0
H2193 H 0.84044 0.0874 0.11012 0.0
H2194 H 0.875 0.02633 0.18461 0.0
H2195 H 0.85912 0.04306 0.1566 0.0
C2196 C 0.66412 0.07031 0.81005 0.0
C2197 C 0.64914 0.05454 0.81017 0.0
C2198 C 0.67164 0.08055 0.82802 0.0
C2199 C 0.66165 0.08924 0.88235 0.0
H2200 H 0.71921 0.10324 0.88755 0.0
C2201 C 0.70557 0.11073 0.95874 0.0
C2202 C 0.72041 0.12673 0.95941 0.0
C2203 C 0.69577 0.10352 0.94043 0.0
C2204 C 0.70307 0.09967 0.88625 0.0
H2205 H 0.63009 0.03742 0.82936 0.0
H2206 H 0.64355 0.05495 0.86078 0.0
H2207 H 0.7042 0.08746 0.85599 0.0
H2208 H 0.73623 0.14794 0.94127 0.0
H2209 H 0.71916 0.13521 0.90927 0.0
H2210 H 0.66077 0.10098 0.91295 0.0
C2211 C 0.64923 0.0597 0.84674 0.0
C2212 C 0.69442 0.09065 0.86812 0.0
C2213 C 0.64155 0.04956 0.8287 0.0
C2214 C 0.7249 0.1356 0.94133 0.0
C2215 C 0.71521 0.12824 0.92298 0.0
C2216 C 0.67036 0.09812 0.90057 0.0
C2217 C 0.66455 0.07518 0.84666 0.0
C2218 C 0.67359 0.08526 0.86591 0.0
C2219 C 0.70066 0.11201 0.92231 0.0
C2220 C 0.69118 0.10338 0.90273 0.0
H2221 H 0.67021 0.0747 0.79605 0.0
H2222 H 0.68309 0.09267 0.82727 0.0
H2223 H 0.64553 0.08562 0.88114 0.0
H2224 H 0.70168 0.10353 0.97234 0.0
H2225 H 0.68476 0.09088 0.9404 0.0
C2226 C 0.56737 0.7278 0.93069 0.0
C2227 C 0.56664 0.73195 0.91018 0.0
C2228 C 0.58325 0.71764 0.93923 0.0
C2229 C 0.63503 0.70093 0.92994 0.0
H2230 H 0.62405 0.66806 0.97498 0.0
C2231 C 0.69059 0.64628 0.96708 0.0
C2232 C 0.69613 0.65248 0.98727 0.0
C2233 C 0.67461 0.65497 0.95675 0.0
C2234 C 0.62728 0.67716 0.96238 0.0
H2235 H 0.58211 0.72832 0.88246 0.0
H2236 H 0.60939 0.70969 0.89708 0.0
H2237 H 0.5966 0.68463 0.95814 0.0
H2238 H 0.68899 0.6722 0.01261 0.0
H2239 H 0.66049 0.68668 0.99477 0.0
H2240 H 0.66572 0.69257 0.934 0.0
C2241 C 0.59801 0.71493 0.90683 0.0
C2242 C 0.61161 0.68689 0.95281 0.0
C2243 C 0.58227 0.72556 0.89836 0.0
C2244 C 0.68504 0.66711 0.99707 0.0
C2245 C 0.66877 0.67539 0.98691 0.0
C2246 C 0.65062 0.69078 0.93926 0.0
C2247 C 0.59869 0.71074 0.92742 0.0
C2248 C 0.61529 0.69928 0.93669 0.0
C2249 C 0.6636 0.6696 0.9666 0.0
C2250 C 0.6469 0.67909 0.95575 0.0
H2251 H 0.55564 0.73239 0.94031 0.0
H2252 H 0.58337 0.71533 0.95522 0.0
H2253 H 0.63866 0.71048 0.91782 0.0
H2254 H 0.69898 0.63519 0.95908 0.0
H2255 H 0.67083 0.65027 0.94108 0.0
C2256 C 0.12754 0.08948 0.79446 0.0
C2257 C 0.11499 0.07602 0.78168 0.0
C2258 C 0.11939 0.10541 0.80541 0.0
C2259 C 0.07624 0.1375 0.80409 0.0
H2260 H 0.09001 0.14981 0.86103 0.0
C2261 C 0.05467 0.21091 0.84468 0.0
C2262 C 0.0452 0.20931 0.86301 0.0
C2263 C 0.06369 0.19448 0.83577 0.0
C2264 C 0.08598 0.14646 0.84515 0.0
H2265 H 0.08401 0.06879 0.77041 0.0
H2266 H 0.06997 0.09662 0.78919 0.0
H2267 H 0.105 0.12138 0.84339 0.0
H2268 H 0.0386 0.18916 0.8867 0.0
H2269 H 0.05471 0.16036 0.87109 0.0
H2270 H 0.05737 0.16253 0.80569 0.0
C2271 C 0.08608 0.09487 0.79079 0.0
C2272 C 0.09468 0.13034 0.83503 0.0
C2273 C 0.09415 0.07886 0.78009 0.0
C2274 C 0.04561 0.19091 0.87252 0.0
C2275 C 0.05491 0.17445 0.86365 0.0
C2276 C 0.06779 0.15371 0.8141 0.0
C2277 C 0.09858 0.10835 0.80354 0.0
C2278 C 0.08982 0.12566 0.8144 0.0
C2279 C 0.06376 0.176 0.84501 0.0
C2280 C 0.07255 0.1584 0.83473 0.0
H2281 H 0.14364 0.08764 0.7961 0.0
H2282 H 0.1294 0.11566 0.81503 0.0
H2283 H 0.0723 0.13436 0.78816 0.0
H2284 H 0.05497 0.22484 0.83697 0.0
H2285 H 0.07066 0.19624 0.82157 0.0
C2286 C 0.94677 0.28414 0.43259 0.0
C2287 C 0.95275 0.28693 0.41296 0.0
C2288 C 0.9317 0.29535 0.44066 0.0
C2289 C 0.88973 0.32793 0.42718 0.0
H2290 H 0.89424 0.34114 0.48484 0.0
C2291 C 0.83399 0.37632 0.47251 0.0
C2292 C 0.82514 0.36524 0.48749 0.0
C2293 C 0.85033 0.36894 0.46245 0.0
C2294 C 0.89287 0.33765 0.4687 0.0
H2295 H 0.94745 0.3036 0.38627 0.0
H2296 H 0.9214 0.32378 0.4006 0.0
H2297 H 0.92142 0.32446 0.46883 0.0
H2298 H 0.82672 0.33808 0.50402 0.0
H2299 H 0.85558 0.32567 0.48702 0.0
H2300 H 0.86113 0.34156 0.42733 0.0
C2301 C 0.92812 0.31258 0.40965 0.0
C2302 C 0.90832 0.32789 0.4595 0.0
C2303 C 0.94308 0.30106 0.40143 0.0
C2304 C 0.83318 0.34693 0.49251 0.0
C2305 C 0.84972 0.33984 0.48284 0.0
C2306 C 0.87438 0.33805 0.43639 0.0
C2307 C 0.92237 0.31 0.42948 0.0
C2308 C 0.90674 0.32233 0.43871 0.0
C2309 C 0.85836 0.35067 0.46763 0.0
C2310 C 0.87563 0.34253 0.45731 0.0
H2311 H 0.9537 0.27316 0.44179 0.0
H2312 H 0.92731 0.29238 0.4557 0.0
H2313 H 0.88786 0.32382 0.41118 0.0
H2314 H 0.828 0.39042 0.46828 0.0
H2315 H 0.85681 0.37754 0.45077 0.0
C2316 C 0.59496 0.95732 0.80062 0.0
C2317 C 0.61522 0.96482 0.80185 0.0
C2318 C 0.58931 0.93944 0.80945 0.0
C2319 C 0.58314 0.8955 0.81779 0.0
H2320 H 0.60634 0.88168 0.86964 0.0
C2321 C 0.56685 0.81712 0.8471 0.0
C2322 C 0.56286 0.81584 0.86755 0.0
C2323 C 0.57459 0.83511 0.8399 0.0
C2324 C 0.59962 0.88538 0.85521 0.0
H2325 H 0.64541 0.95939 0.81356 0.0
H2326 H 0.63555 0.92789 0.82875 0.0
H2327 H 0.61684 0.91368 0.85576 0.0
H2328 H 0.56442 0.83244 0.89661 0.0
H2329 H 0.5777 0.86413 0.88392 0.0
H2330 H 0.56555 0.86762 0.81734 0.0
C2331 C 0.624 0.93605 0.82115 0.0
C2332 C 0.60581 0.90363 0.84714 0.0
C2333 C 0.62968 0.95405 0.81233 0.0
C2334 C 0.56737 0.83291 0.88078 0.0
C2335 C 0.57504 0.85105 0.87351 0.0
C2336 C 0.57695 0.87736 0.82583 0.0
C2337 C 0.60374 0.92844 0.81968 0.0
C2338 C 0.59758 0.90894 0.82833 0.0
C2339 C 0.57842 0.85245 0.85288 0.0
C2340 C 0.58513 0.87199 0.84461 0.0
H2341 H 0.58336 0.96527 0.79283 0.0
H2342 H 0.57352 0.9343 0.80833 0.0
H2343 H 0.57665 0.8989 0.80316 0.0
H2344 H 0.56381 0.80421 0.83651 0.0
H2345 H 0.57746 0.83544 0.82404 0.0
C2346 C 0.96678 0.19877 0.37701 0.0
C2347 C 0.98455 0.20643 0.36885 0.0
C2348 C 0.9558 0.18183 0.36772 0.0
C2349 C 0.94804 0.15308 0.31845 0.0
H2350 H 0.92669 0.10974 0.34928 0.0
C2351 C 0.92116 0.07597 0.28053 0.0
C2352 C 0.90373 0.06594 0.28711 0.0
C2353 C 0.92972 0.0934 0.291 0.0
C2354 C 0.93231 0.12184 0.34047 0.0
H2355 H 1.00492 0.20177 0.34475 0.0
H2356 H 0.98593 0.17246 0.32879 0.0
H2357 H 0.94403 0.1396 0.36685 0.0
H2358 H 0.88165 0.06656 0.30998 0.0
H2359 H 0.89659 0.09719 0.32819 0.0
H2360 H 0.93651 0.13543 0.2921 0.0
C2361 C 0.98025 0.17971 0.34214 0.0
C2362 C 0.94226 0.13894 0.35054 0.0
C2363 C 0.99121 0.19652 0.35141 0.0
C2364 C 0.89509 0.07385 0.30449 0.0
C2365 C 0.90371 0.09136 0.315 0.0
C2366 C 0.93811 0.13606 0.30842 0.0
C2367 C 0.96231 0.17225 0.35004 0.0
C2368 C 0.95053 0.15462 0.33962 0.0
C2369 C 0.9211 0.10138 0.30832 0.0
C2370 C 0.9304 0.12006 0.31925 0.0
H2371 H 0.96121 0.20597 0.39044 0.0
H2372 H 0.942 0.17649 0.37415 0.0
H2373 H 0.95383 0.16507 0.30958 0.0
H2374 H 0.92832 0.07038 0.26727 0.0
H2375 H 0.94331 0.1005 0.28561 0.0
C2376 C 0.5973 0.07808 0.73614 0.0
C2377 C 0.61452 0.06901 0.72929 0.0
C2378 C 0.59003 0.09493 0.72711 0.0
C2379 C 0.58936 0.12236 0.6806 0.0
H2380 H 0.57336 0.16646 0.71564 0.0
C2381 C 0.56016 0.19648 0.64969 0.0
C2382 C 0.54433 0.20517 0.65968 0.0
C2383 C 0.56992 0.18023 0.65766 0.0
C2384 C 0.5775 0.15421 0.70558 0.0
H2385 H 0.63737 0.07058 0.70724 0.0
H2386 H 0.62443 0.10003 0.69131 0.0
H2387 H 0.58802 0.13747 0.73027 0.0
H2388 H 0.52621 0.20317 0.68579 0.0
H2389 H 0.54277 0.17484 0.69928 0.0
H2390 H 0.57838 0.13891 0.6559 0.0
C2391 C 0.61665 0.09398 0.70375 0.0
C2392 C 0.58599 0.13759 0.714 0.0
C2393 C 0.6241 0.07715 0.71293 0.0
C2394 C 0.53842 0.19706 0.6777 0.0
C2395 C 0.54807 0.18082 0.68557 0.0
C2396 C 0.58069 0.13896 0.67214 0.0
C2397 C 0.59963 0.10316 0.71087 0.0
C2398 C 0.59179 0.12134 0.70165 0.0
C2399 C 0.56405 0.17223 0.67577 0.0
C2400 C 0.57438 0.155 0.68454 0.0
H2401 H 0.58943 0.07228 0.74863 0.0
H2402 H 0.57671 0.10145 0.73279 0.0
H2403 H 0.59356 0.11002 0.67068 0.0
H2404 H 0.56514 0.20232 0.63579 0.0
H2405 H 0.58227 0.17416 0.64977 0.0
C2406 C 0.19657 0.35417 0.99209 0.0
C2407 C 0.20724 0.37121 0.98547 0.0
C2408 C 0.17905 0.34602 0.98148 0.0
C2409 C 0.15149 0.34319 0.93163 0.0
H2410 H 0.10744 0.32292 0.96222 0.0
C2411 C 0.07481 0.30729 0.89499 0.0
C2412 C 0.06737 0.28972 0.90366 0.0
C2413 C 0.09161 0.31872 0.90403 0.0
C2414 C 0.11964 0.32839 0.95344 0.0
H2415 H 0.20764 0.39304 0.96238 0.0
H2416 H 0.17682 0.37877 0.94386 0.0
H2417 H 0.13687 0.34052 0.97982 0.0
H2418 H 0.07239 0.27013 0.92836 0.0
H2419 H 0.10137 0.28991 0.9439 0.0
H2420 H 0.13414 0.3308 0.90522 0.0
C2421 C 0.18223 0.37168 0.95723 0.0
C2422 C 0.13654 0.33848 0.96354 0.0
C2423 C 0.19983 0.37991 0.96792 0.0
C2424 C 0.07743 0.28366 0.9213 0.0
C2425 C 0.09406 0.29509 0.93033 0.0
C2426 C 0.13448 0.33309 0.92148 0.0
C2427 C 0.1716 0.35466 0.96395 0.0
C2428 C 0.15288 0.34564 0.95283 0.0
C2429 C 0.10123 0.31288 0.92199 0.0
C2430 C 0.11856 0.32519 0.93233 0.0
H2431 H 0.20175 0.34697 1.00548 0.0
H2432 H 0.17149 0.3327 0.98691 0.0
H2433 H 0.16385 0.34841 0.92293 0.0
H2434 H 0.0675 0.31238 0.88138 0.0
H2435 H 0.09678 0.33237 0.89725 0.0
C2436 C 0.44174 0.70786 0.38978 0.0
C2437 C 0.45858 0.71351 0.403 0.0
C2438 C 0.42355 0.70054 0.39725 0.0
C2439 C 0.38935 0.67677 0.4166 0.0
H2440 H 0.3747 0.70226 0.46713 0.0
C2441 C 0.32118 0.64723 0.46035 0.0
C2442 C 0.30991 0.6617 0.47016 0.0
C2443 C 0.33907 0.65302 0.45139 0.0
C2444 C 0.3784 0.69507 0.45291 0.0
H2445 H 0.46972 0.71498 0.43437 0.0
H2446 H 0.43845 0.70192 0.44722 0.0
H2447 H 0.40585 0.71328 0.45261 0.0
H2448 H 0.30845 0.69371 0.47785 0.0
H2449 H 0.33923 0.70377 0.46205 0.0
H2450 H 0.36148 0.65892 0.41674 0.0
C2451 C 0.43897 0.70365 0.43116 0.0
C2452 C 0.39648 0.70121 0.44469 0.0
C2453 C 0.45701 0.71104 0.42374 0.0
C2454 C 0.31681 0.6821 0.4706 0.0
C2455 C 0.33458 0.68788 0.46159 0.0
C2456 C 0.37116 0.67063 0.42483 0.0
C2457 C 0.42186 0.69864 0.41811 0.0
C2458 C 0.40229 0.6921 0.42648 0.0
C2459 C 0.34607 0.67343 0.452 0.0
C2460 C 0.36544 0.67973 0.44311 0.0
H2461 H 0.44244 0.70961 0.37373 0.0
H2462 H 0.41066 0.69695 0.38676 0.0
H2463 H 0.39339 0.66931 0.40263 0.0
H2464 H 0.31632 0.63138 0.45976 0.0
H2465 H 0.34761 0.64144 0.44434 0.0
C2466 C 0.88461 0.56683 0.83438 0.0
C2467 C 0.87109 0.56107 0.8178 0.0
C2468 C 0.87744 0.57429 0.85265 0.0
C2469 C 0.85836 0.59829 0.88696 0.0
H2470 H 0.8089 0.5716 0.90301 0.0
C2471 C 0.81455 0.627 0.95554 0.0
C2472 C 0.80568 0.61227 0.96722 0.0
C2473 C 0.82357 0.6214 0.93764 0.0
C2474 C 0.82282 0.57914 0.8989 0.0
H2475 H 0.83953 0.55955 0.80719 0.0
H2476 H 0.82722 0.57273 0.83865 0.0
H2477 H 0.82293 0.5608 0.87154 0.0
H2478 H 0.79984 0.58005 0.96943 0.0
H2479 H 0.81567 0.57036 0.93859 0.0
H2480 H 0.85834 0.61637 0.9147 0.0
C2481 C 0.84328 0.57106 0.83782 0.0
C2482 C 0.83075 0.57311 0.88066 0.0
C2483 C 0.85039 0.56358 0.81969 0.0
C2484 C 0.80635 0.59184 0.96076 0.0
C2485 C 0.81537 0.58627 0.94297 0.0
C2486 C 0.85038 0.60436 0.90529 0.0
C2487 C 0.85663 0.57616 0.85468 0.0
C2488 C 0.84857 0.58263 0.87437 0.0
C2489 C 0.8239 0.60095 0.93102 0.0
C2490 C 0.83251 0.59481 0.91151 0.0
H2491 H 0.90065 0.56506 0.83343 0.0
H2492 H 0.88814 0.57798 0.86535 0.0
H2493 H 0.87203 0.60604 0.88254 0.0
H2494 H 0.81428 0.64287 0.96005 0.0
H2495 H 0.82983 0.63311 0.92874 0.0
C2496 C 0.65057 0.55793 0.1968 0.0
C2497 C 0.66052 0.54187 0.20508 0.0
C2498 C 0.6586 0.56807 0.18079 0.0
C2499 C 0.70681 0.57647 0.15555 0.0
H2500 H 0.67262 0.5925 0.11079 0.0
C2501 C 0.7387 0.59572 0.07998 0.0
C2502 C 0.73192 0.6127 0.07044 0.0
C2503 C 0.72943 0.58876 0.09683 0.0
C2504 C 0.68234 0.58833 0.12331 0.0
H2505 H 0.68655 0.52368 0.20253 0.0
H2506 H 0.70014 0.54094 0.17471 0.0
H2507 H 0.6573 0.57714 0.13936 0.0
H2508 H 0.70982 0.63553 0.07124 0.0
H2509 H 0.69349 0.62316 0.10073 0.0
H2510 H 0.73183 0.58719 0.13936 0.0
C2511 C 0.68642 0.54611 0.18081 0.0
C2512 C 0.67357 0.57955 0.13971 0.0
C2513 C 0.67849 0.53607 0.19676 0.0
C2514 C 0.71547 0.62244 0.07819 0.0
C2515 C 0.70604 0.61531 0.09503 0.0
C2516 C 0.71553 0.58509 0.13917 0.0
C2517 C 0.67674 0.56238 0.17269 0.0
C2518 C 0.68573 0.57317 0.15588 0.0
C2519 C 0.71303 0.59846 0.10462 0.0
C2520 C 0.70345 0.59082 0.12269 0.0
H2521 H 0.63671 0.56281 0.20281 0.0
H2522 H 0.65077 0.58059 0.17501 0.0
H2523 H 0.71667 0.57227 0.16794 0.0
H2524 H 0.75127 0.58775 0.0745 0.0
H2525 H 0.73501 0.57558 0.10367 0.0
C2526 C 0.70992 0.3915 0.44166 0.0
C2527 C 0.71519 0.40487 0.45847 0.0
C2528 C 0.70222 0.39874 0.42352 0.0
C2529 C 0.7012 0.44609 0.39646 0.0
H2530 H 0.6598 0.41673 0.36145 0.0
C2531 C 0.68183 0.47079 0.31655 0.0
C2532 C 0.66145 0.46984 0.30951 0.0
C2533 C 0.68773 0.46208 0.33442 0.0
C2534 C 0.67125 0.42521 0.37114 0.0
H2535 H 0.71558 0.43618 0.46963 0.0
H2536 H 0.70186 0.4486 0.43842 0.0
H2537 H 0.67061 0.40307 0.39344 0.0
H2538 H 0.63126 0.45878 0.31577 0.0
H2539 H 0.64152 0.44382 0.34726 0.0
H2540 H 0.7016 0.46844 0.37459 0.0
C2541 C 0.70417 0.43263 0.43894 0.0
C2542 C 0.67763 0.41724 0.38938 0.0
C2543 C 0.71195 0.42546 0.45693 0.0
C2544 C 0.64709 0.45977 0.32074 0.0
C2545 C 0.653 0.45109 0.33874 0.0
C2546 C 0.69482 0.45404 0.37834 0.0
C2547 C 0.69955 0.41947 0.42185 0.0
C2548 C 0.69267 0.42762 0.4023 0.0
C2549 C 0.6734 0.45226 0.34588 0.0
C2550 C 0.67982 0.4437 0.36537 0.0
H2551 H 0.71227 0.37556 0.44233 0.0
H2552 H 0.69894 0.38817 0.41064 0.0
H2553 H 0.71303 0.4544 0.40583 0.0
H2554 H 0.69336 0.47826 0.30823 0.0
H2555 H 0.70361 0.46295 0.33918 0.0
C2556 C 0.85358 0.49053 0.69888 0.0
C2557 C 0.87118 0.48445 0.70902 0.0
C2558 C 0.8447 0.47922 0.68212 0.0
C2559 C 0.85403 0.44147 0.64163 0.0
H2560 H 0.79562 0.43404 0.63853 0.0
C2561 C 0.80821 0.39499 0.57567 0.0
C2562 C 0.7908 0.40382 0.56806 0.0
C2563 C 0.8187 0.40309 0.59342 0.0
C2564 C 0.81193 0.43608 0.63907 0.0
H2565 H 0.89353 0.46186 0.70891 0.0
H2566 H 0.87793 0.44205 0.67943 0.0
H2567 H 0.81292 0.45149 0.66819 0.0
H2568 H 0.77085 0.42816 0.57334 0.0
H2569 H 0.78908 0.44218 0.60387 0.0
H2570 H 0.85291 0.42628 0.61225 0.0
C2571 C 0.87107 0.45564 0.68461 0.0
C2572 C 0.82185 0.44609 0.65609 0.0
C2573 C 0.87996 0.46697 0.70154 0.0
C2574 C 0.78414 0.42085 0.57868 0.0
C2575 C 0.79454 0.42886 0.59635 0.0
C2576 C 0.84406 0.43144 0.6245 0.0
C2577 C 0.85315 0.46151 0.6749 0.0
C2578 C 0.84298 0.44929 0.65743 0.0
C2579 C 0.81193 0.4201 0.604 0.0
C2580 C 0.82284 0.429 0.62286 0.0
H2581 H 0.84644 0.50401 0.70396 0.0
H2582 H 0.83117 0.48441 0.67475 0.0
H2583 H 0.87032 0.44376 0.64217 0.0
H2584 H 0.81378 0.38186 0.56791 0.0
H2585 H 0.83197 0.39591 0.59898 0.0
C2586 C 0.39949 0.08377 0.2296 0.0
C2587 C 0.40944 0.06579 0.23165 0.0
C2588 C 0.40832 0.09974 0.21959 0.0
C2589 C 0.43595 0.13518 0.20859 0.0
H2590 H 0.46686 0.1238 0.1619 0.0
C2591 C 0.49092 0.19496 0.1787 0.0
C2592 C 0.49258 0.19573 0.15775 0.0
C2593 C 0.47953 0.17934 0.18666 0.0
C2594 C 0.45811 0.1273 0.17477 0.0
H2595 H 0.43658 0.05064 0.22464 0.0
H2596 H 0.45196 0.07844 0.20766 0.0
H2597 H 0.44887 0.09624 0.17733 0.0
H2598 H 0.48337 0.18063 0.12874 0.0
H2599 H 0.46325 0.15336 0.14267 0.0
H2600 H 0.44497 0.16626 0.20588 0.0
C2601 C 0.4372 0.08013 0.21346 0.0
C2602 C 0.44798 0.11145 0.18379 0.0
C2603 C 0.4284 0.06421 0.2234 0.0
C2604 C 0.4825 0.18045 0.14495 0.0
C2605 C 0.47102 0.16478 0.15295 0.0
C2606 C 0.44605 0.15103 0.19955 0.0
C2607 C 0.42729 0.09811 0.21137 0.0
C2608 C 0.43699 0.11514 0.201 0.0
C2609 C 0.46938 0.16405 0.17393 0.0
C2610 C 0.4575 0.14728 0.18269 0.0
H2611 H 0.38483 0.0855 0.23563 0.0
H2612 H 0.40015 0.11328 0.2181 0.0
H2613 H 0.42777 0.13862 0.22188 0.0
H2614 H 0.49853 0.20641 0.18906 0.0
H2615 H 0.47897 0.17911 0.20289 0.0
C2616 C 0.07171 0.81139 0.66084 0.0
C2617 C 0.05534 0.81148 0.64653 0.0
C2618 C 0.08186 0.82941 0.66834 0.0
C2619 C 0.0891 0.88414 0.65958 0.0
H2620 H 0.10429 0.88815 0.71686 0.0
C2621 C 0.11039 0.95987 0.70478 0.0
C2622 C 0.12645 0.96043 0.71954 0.0
C2623 C 0.10334 0.94168 0.69463 0.0
C2624 C 0.10041 0.8872 0.70079 0.0
H2625 H 0.03714 0.83066 0.62853 0.0
H2626 H 0.05459 0.8622 0.64193 0.0
H2627 H 0.08878 0.85667 0.70142 0.0
H2628 H 0.14799 0.94222 0.73479 0.0
H2629 H 0.13559 0.91044 0.71708 0.0
H2630 H 0.1003 0.91497 0.65921 0.0
C2631 C 0.05982 0.84813 0.64712 0.0
C2632 C 0.09152 0.86911 0.69189 0.0
C2633 C 0.04974 0.83004 0.63947 0.0
C2634 C 0.13558 0.94237 0.72355 0.0
C2635 C 0.12841 0.92413 0.71349 0.0
C2636 C 0.09787 0.9023 0.66854 0.0
C2637 C 0.07582 0.84807 0.6619 0.0
C2638 C 0.08571 0.86731 0.67117 0.0
C2639 C 0.11207 0.92356 0.69906 0.0
C2640 C 0.10357 0.90405 0.68926 0.0
H2641 H 0.07659 0.79737 0.66649 0.0
H2642 H 0.0944 0.82869 0.67933 0.0
H2643 H 0.0851 0.88325 0.64354 0.0
H2644 H 0.10299 0.97346 0.70124 0.0
H2645 H 0.09061 0.94174 0.68374 0.0
C2646 C 0.48423 0.83855 0.37201 0.0
C2647 C 0.48716 0.82114 0.35979 0.0
C2648 C 0.47315 0.85411 0.36439 0.0
C2649 C 0.43611 0.86497 0.32304 0.0
H2650 H 0.45864 0.91999 0.33135 0.0
C2651 C 0.41483 0.92751 0.27068 0.0
C2652 C 0.41376 0.94733 0.27886 0.0
C2653 C 0.42114 0.91224 0.28277 0.0
C2654 C 0.45192 0.90477 0.32916 0.0
H2655 H 0.48033 0.80631 0.33011 0.0
H2656 H 0.46127 0.83327 0.31696 0.0
H2657 H 0.47463 0.8931 0.34871 0.0
H2658 H 0.41786 0.96647 0.30642 0.0
H2659 H 0.42875 0.93972 0.32758 0.0
H2660 H 0.41367 0.87652 0.30316 0.0
C2661 C 0.46733 0.83492 0.33245 0.0
C2662 C 0.4611 0.88934 0.33912 0.0
C2663 C 0.47844 0.81949 0.33998 0.0
C2664 C 0.4185 0.95137 0.29962 0.0
C2665 C 0.4249 0.93607 0.31172 0.0
C2666 C 0.42693 0.88036 0.31311 0.0
C2667 C 0.46462 0.85248 0.34448 0.0
C2668 C 0.45357 0.86919 0.33582 0.0
C2669 C 0.42658 0.91638 0.30338 0.0
C2670 C 0.43497 0.9004 0.31569 0.0
H2671 H 0.49071 0.84029 0.38734 0.0
H2672 H 0.47122 0.8674 0.3741 0.0
H2673 H 0.42968 0.84966 0.32047 0.0
H2674 H 0.41131 0.92385 0.25476 0.0
H2675 H 0.42247 0.89733 0.27576 0.0
C2676 C 0.81369 0.67086 0.06076 0.0
C2677 C 0.81154 0.6504 0.05392 0.0
C2678 C 0.8317 0.67888 0.07056 0.0
C2679 C 0.87608 0.66779 0.10103 0.0
H2680 H 0.90299 0.71267 0.07637 0.0
C2681 C 0.9447 0.71978 0.13664 0.0
C2682 C 0.96132 0.72077 0.12439 0.0
C2683 C 0.92631 0.71003 0.1293 0.0
C2684 C 0.89558 0.70019 0.08343 0.0
H2685 H 0.82648 0.62216 0.053 0.0
H2686 H 0.85783 0.63621 0.07073 0.0
H2687 H 0.87062 0.69795 0.06145 0.0
H2688 H 0.9717 0.71139 0.09507 0.0
H2689 H 0.93948 0.69528 0.08217 0.0
H2690 H 0.90097 0.67037 0.12327 0.0
C2691 C 0.84555 0.64599 0.06811 0.0
C2692 C 0.8771 0.69183 0.07496 0.0
C2693 C 0.82764 0.638 0.05788 0.0
C2694 C 0.95922 0.71131 0.10487 0.0
C2695 C 0.94078 0.702 0.09744 0.0
C2696 C 0.8944 0.67648 0.1098 0.0
C2697 C 0.84783 0.66657 0.07422 0.0
C2698 C 0.86725 0.67547 0.08358 0.0
C2699 C 0.92413 0.70143 0.10949 0.0
C2700 C 0.90436 0.69263 0.10094 0.0
H2701 H 0.80158 0.68083 0.05828 0.0
H2702 H 0.83307 0.69478 0.07528 0.0
H2703 H 0.8687 0.65522 0.10797 0.0
H2704 H 0.94581 0.72674 0.1518 0.0
H2705 H 0.91362 0.70975 0.13886 0.0
C2706 C 0.59383 0.29183 0.62813 0.0
C2707 C 0.57938 0.28097 0.61494 0.0
C2708 C 0.60954 0.30357 0.62054 0.0
C2709 C 0.62491 0.32741 0.57379 0.0
H2710 H 0.67872 0.32742 0.59935 0.0
C2711 C 0.69299 0.37372 0.54469 0.0
C2712 C 0.71128 0.36403 0.54427 0.0
C2713 C 0.67663 0.36531 0.55448 0.0
C2714 C 0.6638 0.32752 0.59195 0.0
H2715 H 0.57025 0.27385 0.58341 0.0
H2716 H 0.59773 0.29382 0.57028 0.0
H2717 H 0.65082 0.30916 0.61388 0.0
H2718 H 0.72659 0.33789 0.55408 0.0
H2719 H 0.6982 0.32321 0.57055 0.0
H2720 H 0.63807 0.34507 0.55138 0.0
C2721 C 0.59675 0.2937 0.58648 0.0
C2722 C 0.64772 0.31724 0.60045 0.0
C2723 C 0.58105 0.28208 0.59404 0.0
C2724 C 0.7128 0.34585 0.55401 0.0
C2725 C 0.69651 0.33747 0.56369 0.0
C2726 C 0.64102 0.33763 0.56524 0.0
C2727 C 0.6112 0.30467 0.59959 0.0
C2728 C 0.6281 0.31679 0.59133 0.0
C2729 C 0.67818 0.34704 0.56408 0.0
C2730 C 0.66074 0.33757 0.57403 0.0
H2731 H 0.59291 0.29142 0.64431 0.0
H2732 H 0.62025 0.31198 0.63111 0.0
H2733 H 0.60996 0.3277 0.56652 0.0
H2734 H 0.6913 0.38778 0.53746 0.0
H2735 H 0.66281 0.37321 0.55465 0.0
C2736 C 0.2305 0.40242 0.084 0.0
C2737 C 0.23003 0.41118 0.0652 0.0
C2738 C 0.22063 0.41112 0.10018 0.0
C2739 C 0.18137 0.44747 0.11153 0.0
H2740 H 0.20833 0.45281 0.16487 0.0
C2741 C 0.16063 0.50596 0.17308 0.0
C2742 C 0.16038 0.50017 0.19307 0.0
C2743 C 0.16733 0.493 0.15791 0.0
C2744 C 0.20047 0.4512 0.15012 0.0
H2745 H 0.21855 0.43596 0.0488 0.0
H2746 H 0.20193 0.45108 0.07676 0.0
H2747 H 0.22349 0.43374 0.13774 0.0
H2748 H 0.16671 0.476 0.21273 0.0
H2749 H 0.17849 0.45342 0.18622 0.0
H2750 H 0.15868 0.46543 0.12376 0.0
C2751 C 0.20955 0.43733 0.07904 0.0
C2752 C 0.20914 0.44022 0.13457 0.0
C2753 C 0.21932 0.42869 0.06298 0.0
C2754 C 0.16664 0.48093 0.19747 0.0
C2755 C 0.17354 0.46803 0.18232 0.0
C2756 C 0.1728 0.45852 0.12701 0.0
C2757 C 0.21003 0.42871 0.09787 0.0
C2758 C 0.19989 0.43855 0.11497 0.0
C2759 C 0.17412 0.47399 0.16239 0.0
C2760 C 0.1824 0.46081 0.14641 0.0
H2761 H 0.23853 0.38891 0.08625 0.0
H2762 H 0.22118 0.40399 0.11443 0.0
H2763 H 0.17357 0.44612 0.09675 0.0
H2764 H 0.15594 0.52067 0.16917 0.0
H2765 H 0.16778 0.49812 0.14275 0.0
C2766 C 0.37227 0.47395 0.83137 0.0
C2767 C 0.36051 0.48829 0.82228 0.0
C2768 C 0.36517 0.46354 0.8476 0.0
C2769 C 0.33349 0.46872 0.88973 0.0
H2770 H 0.32346 0.4106 0.88642 0.0
C2771 C 0.28353 0.43098 0.94556 0.0
C2772 C 0.28792 0.41196 0.95227 0.0
C2773 C 0.29375 0.43914 0.92989 0.0
C2774 C 0.3265 0.42679 0.8878 0.0
H2775 H 0.33229 0.50316 0.8232 0.0
H2776 H 0.32032 0.48552 0.85188 0.0
H2777 H 0.33977 0.42714 0.85902 0.0
H2778 H 0.30628 0.38638 0.94758 0.0
H2779 H 0.32478 0.40098 0.92043 0.0
H2780 H 0.32076 0.46867 0.91847 0.0
C2781 C 0.33484 0.48213 0.84628 0.0
C2782 C 0.33579 0.43623 0.87207 0.0
C2783 C 0.34168 0.49217 0.82985 0.0
C2784 C 0.30255 0.40106 0.94266 0.0
C2785 C 0.3131 0.40943 0.92708 0.0
C2786 C 0.32459 0.45932 0.90555 0.0
C2787 C 0.34646 0.46769 0.85526 0.0
C2788 C 0.3389 0.45732 0.87273 0.0
C2789 C 0.30899 0.42874 0.92067 0.0
C2790 C 0.32041 0.43828 0.90459 0.0
H2791 H 0.38679 0.47058 0.82576 0.0
H2792 H 0.37439 0.45248 0.85436 0.0
H2793 H 0.33598 0.485 0.89067 0.0
H2794 H 0.27209 0.43962 0.95242 0.0
H2795 H 0.28959 0.4537 0.92499 0.0
C2796 C 0.2838 0.62874 0.59685 0.0
C2797 C 0.28168 0.61816 0.5779 0.0
C2798 C 0.29485 0.62097 0.61292 0.0
C2799 C 0.33429 0.58595 0.62517 0.0
H2800 H 0.30887 0.58254 0.67604 0.0
C2801 C 0.36622 0.53931 0.68982 0.0
C2802 C 0.36339 0.54607 0.70979 0.0
C2803 C 0.35744 0.54904 0.67361 0.0
C2804 C 0.31644 0.58368 0.66211 0.0
H2805 H 0.29004 0.59143 0.56084 0.0
H2806 H 0.30948 0.57812 0.58876 0.0
H2807 H 0.29182 0.59842 0.6483 0.0
H2808 H 0.34998 0.56898 0.72838 0.0
H2809 H 0.33549 0.5863 0.70038 0.0
H2810 H 0.35906 0.57147 0.63898 0.0
C2811 C 0.30254 0.59234 0.59122 0.0
C2812 C 0.30657 0.59275 0.64617 0.0
C2813 C 0.29128 0.59993 0.57526 0.0
C2814 C 0.35225 0.56319 0.71318 0.0
C2815 C 0.34377 0.57306 0.69706 0.0
C2816 C 0.34431 0.57709 0.64122 0.0
C2817 C 0.30428 0.60264 0.61029 0.0
C2818 C 0.31531 0.59388 0.62748 0.0
C2819 C 0.34586 0.56591 0.67702 0.0
C2820 C 0.33549 0.57573 0.65991 0.0
H2821 H 0.2766 0.64281 0.59937 0.0
H2822 H 0.29604 0.6293 0.62743 0.0
H2823 H 0.34147 0.58674 0.61098 0.0
H2824 H 0.37462 0.52611 0.6867 0.0
H2825 H 0.35925 0.54291 0.65845 0.0
C2826 C 0.13839 0.55007 0.33132 0.0
C2827 C 0.14703 0.55347 0.31288 0.0
C2828 C 0.14669 0.55982 0.34928 0.0
C2829 C 0.17895 0.60365 0.37007 0.0
H2830 H 0.18844 0.57064 0.41553 0.0
C2831 C 0.22663 0.63336 0.44235 0.0
C2832 C 0.22117 0.62615 0.46089 0.0
C2833 C 0.21684 0.62542 0.42423 0.0
C2834 C 0.1856 0.58021 0.40315 0.0
H2835 H 0.17094 0.57025 0.29886 0.0
H2836 H 0.18524 0.58738 0.33021 0.0
H2837 H 0.17239 0.55534 0.38423 0.0
H2838 H 0.20053 0.60551 0.47495 0.0
H2839 H 0.18311 0.59224 0.4436 0.0
H2840 H 0.19191 0.62859 0.38903 0.0
C2841 C 0.17205 0.57715 0.33072 0.0
C2842 C 0.17644 0.57138 0.38516 0.0
C2843 C 0.16389 0.56724 0.31278 0.0
C2844 C 0.20529 0.61129 0.46094 0.0
C2845 C 0.19537 0.60355 0.44289 0.0
C2846 C 0.18793 0.61255 0.38816 0.0
C2847 C 0.16369 0.57335 0.3492 0.0
C2848 C 0.17305 0.58297 0.3684 0.0
C2849 C 0.20122 0.61023 0.42424 0.0
C2850 C 0.19141 0.60094 0.40496 0.0
H2851 H 0.12541 0.53958 0.33199 0.0
H2852 H 0.13981 0.55675 0.36327 0.0
H2853 H 0.17637 0.61299 0.35744 0.0
H2854 H 0.23889 0.64471 0.44177 0.0
H2855 H 0.22195 0.63081 0.4102 0.0
loop_
_geom_bond_atom_site_label_1
_geom_bond_atom_site_label_2
_geom_bond_distance
_geom_bond_site_symmetry_2
_ccdc_geom_bond_type
Co0 O2 2.155 . S
Co0 O8 2.074 1_655 S
Co0 O11 2.093 . S
Co0 O24 2.097 . S
Co0 N41 2.151 1_655 S
Co0 N49 2.214 . S
Co1 O2 2.132 1_455 S
Co1 O7 2.058 . S
Co1 O17 2.057 . S
Co1 O32 2.037 1_455 S
Co1 N36 2.145 . S
Co1 N57 2.257 1_455 S
O2 Co0 2.155 . S
O2 Co1 2.132 1_655 S
C3 O4 1.278 . S
C3 O11 1.224 . S
O4 C3 1.278 . S
C5 O6 1.245 . S
C5 O17 1.232 . S
O6 C5 1.245 . S
O7 Co1 2.058 . S
O7 C33 1.269 . S
O8 Co0 2.074 1_455 S
O8 C33 1.257 . S
H9 C34 0.930 . S
H10 C40 0.967 . S
O11 Co0 2.093 . S
O11 C3 1.224 . S
H12 C44 0.929 . S
H13 C46 0.930 . S
H14 C47 0.930 . S
H15 C45 0.929 . S
H16 C48 0.928 . S
O17 Co1 2.057 . S
O17 C5 1.232 . S
H18 C37 0.929 . S
H19 C38 0.929 . S
H20 C50 0.931 . S
H21 C42 0.929 . S
H22 C51 0.930 . S
H23 C43 0.931 . S
O24 Co0 2.097 . S
O24 C52 1.214 . S
H25 C53 0.929 . S
H26 C54 0.929 . S
H27 C55 0.930 . S
H28 C56 0.929 . S
H29 C58 0.930 . S
H30 C35 0.930 . S
H31 C39 0.930 . S
O32 Co1 2.037 1_655 S
O32 C52 1.234 . S
C33 O7 1.269 . S
C33 O8 1.257 . S
C34 H9 0.930 . S
C34 C37 1.388 . S
C34 C39 1.418 . S
C35 H30 0.930 . S
C35 C38 1.404 . S
C35 C39 1.353 . S
N36 Co1 2.145 . S
N36 C37 1.397 . S
N36 C38 1.334 . S
C37 H18 0.929 . S
C37 C34 1.388 . S
C37 N36 1.397 . S
C38 H19 0.929 . S
C38 C35 1.404 . S
C38 N36 1.334 . S
C39 H31 0.930 . S
C39 C34 1.418 . S
C39 C35 1.353 . S
C40 H10 0.967 . S
C40 N41 1.311 1_655 S
C40 C42 1.431 1_655 S
N41 Co0 2.151 1_455 S
N41 C40 1.311 1_455 S
N41 C45 1.418 . S
C42 H21 0.929 . S
C42 C40 1.431 1_455 S
C42 C43 1.332 . S
C43 H23 0.931 . S
C43 C42 1.332 . S
C43 C44 1.267 . S
C44 H12 0.929 . S
C44 C43 1.267 . S
C44 C45 1.251 . S
C45 H15 0.929 . S
C45 N41 1.418 . S
C45 C44 1.251 . S
C46 H13 0.930 . S
C46 C48 1.406 . S
C46 C51 1.261 . S
C47 H14 0.930 . S
C47 N49 1.325 . S
C47 C50 1.357 . S
C48 H16 0.928 . S
C48 C46 1.406 . S
C48 N49 1.261 . S
N49 Co0 2.214 . S
N49 C47 1.325 . S
N49 C48 1.261 . S
C50 H20 0.931 . S
C50 C47 1.357 . S
C50 C51 1.312 . S
C51 H22 0.930 . S
C51 C46 1.261 . S
C51 C50 1.312 . S
C52 O24 1.214 . S
C52 O32 1.234 . S
C53 H25 0.929 . S
C53 C56 1.391 . S
C53 C58 1.391 . S
C54 H26 0.929 . S
C54 C55 1.390 . S
C54 N57 1.391 . S
C55 H27 0.930 . S
C55 C54 1.390 . S
C55 C56 1.392 . S
C56 H28 0.929 . S
C56 C53 1.391 . S
C56 C55 1.392 . S
N57 Co1 2.257 1_655 S
N57 C54 1.391 . S
N57 C58 1.388 . S
C58 H29 0.930 . S
C58 C53 1.391 . S
C58 N57 1.388 . S
Co59 O61 2.143 1_455 S
Co59 O67 2.074 . S
Co59 O70 2.093 1_455 S
Co59 O83 2.097 . S
Co59 N100 2.151 1_455 S
Co59 N108 2.214 . S
Co60 O61 2.160 1_455 S
Co60 O66 2.058 . S
Co60 O76 2.057 1_455 S
Co60 O91 2.037 . S
Co60 N95 2.145 . S
Co60 N116 2.257 1_455 S
O61 Co59 2.143 1_655 S
O61 Co60 2.160 1_655 S
C62 O63 1.278 . S
C62 O70 1.224 . S
O63 C62 1.278 . S
C64 O65 1.245 . S
C64 O76 1.232 . S
O65 C64 1.245 . S
O66 Co60 2.058 . S
O66 C92 1.269 . S
O67 Co59 2.074 . S
O67 C92 1.257 . S
H68 C93 0.930 . S
H69 C99 0.930 . S
O70 Co59 2.093 1_655 S
O70 C62 1.224 . S
H71 C103 0.929 . S
H72 C105 0.930 . S
H73 C106 0.930 . S
H74 C104 0.929 . S
H75 C107 0.932 1_655 S
O76 Co60 2.057 1_655 S
O76 C64 1.232 . S
H77 C96 0.929 . S
H78 C97 0.929 . S
H79 C109 0.931 . S
H80 C101 0.929 . S
H81 C110 0.930 . S
H82 C102 0.931 . S
O83 Co59 2.097 . S
O83 C111 1.214 . S
H84 C112 0.929 . S
H85 C113 0.975 . S
H86 C114 0.930 . S
H87 C115 0.929 . S
H88 C117 0.930 . S
H89 C94 0.930 . S
H90 C98 0.930 . S
O91 Co60 2.037 . S
O91 C111 1.234 . S
C92 O66 1.269 . S
C92 O67 1.257 . S
C93 H68 0.930 . S
C93 C96 1.388 . S
C93 C98 1.418 . S
C94 H89 0.930 . S
C94 C97 1.404 . S
C94 C98 1.353 . S
N95 Co60 2.145 . S
N95 C96 1.397 . S
N95 C97 1.334 . S
C96 H77 0.929 . S
C96 C93 1.388 . S
C96 N95 1.397 . S
C97 H78 0.929 . S
C97 C94 1.404 . S
C97 N95 1.334 . S
C98 H90 0.930 . S
C98 C93 1.418 . S
C98 C94 1.353 . S
C99 H69 0.930 . S
C99 N100 1.330 . S
C99 C101 1.446 . S
N100 Co59 2.151 1_655 S
N100 C99 1.330 . S
N100 C104 1.418 1_655 S
C101 H80 0.929 . S
C101 C99 1.446 . S
C101 C102 1.332 . S
C102 H82 0.931 . S
C102 C101 1.332 . S
C102 C103 1.267 1_655 S
C103 H71 0.929 . S
C103 C102 1.267 1_455 S
C103 C104 1.251 . S
C104 H74 0.929 . S
C104 N100 1.418 1_455 S
C104 C103 1.251 . S
C105 H72 0.930 . S
C105 C107 1.406 . S
C105 C110 1.261 . S
C106 H73 0.930 . S
C106 N108 1.325 . S
C106 C109 1.357 . S
C107 H75 0.932 1_455 S
C107 C105 1.406 . S
C107 N108 1.261 . S
N108 Co59 2.214 . S
N108 C106 1.325 . S
N108 C107 1.261 . S
C109 H79 0.931 . S
C109 C106 1.357 . S
C109 C110 1.312 . S
C110 H81 0.930 . S
C110 C105 1.261 . S
C110 C109 1.312 . S
C111 O83 1.214 . S
C111 O91 1.234 . S
C112 H84 0.929 . S
C112 C115 1.391 . S
C112 C117 1.391 . S
C113 H85 0.975 . S
C113 C114 1.358 1_455 S
C113 N116 1.379 1_455 S
C114 H86 0.930 . S
C114 C113 1.358 1_655 S
C114 C115 1.392 . S
C115 H87 0.929 . S
C115 C112 1.391 . S
C115 C114 1.392 . S
N116 Co60 2.257 1_655 S
N116 C113 1.379 1_655 S
N116 C117 1.388 . S
C117 H88 0.930 . S
C117 C112 1.391 . S
C117 N116 1.388 . S
Co118 O120 2.143 . S
Co118 O126 2.074 . S
Co118 O129 2.093 . S
Co118 O142 2.097 . S
Co118 N159 2.151 . S
Co118 N167 2.214 . S
Co119 O120 2.160 . S
Co119 O125 2.058 . S
Co119 O135 2.057 . S
Co119 O150 2.037 . S
Co119 N154 2.145 . S
Co119 N175 2.257 . S
O120 Co118 2.143 . S
O120 Co119 2.160 . S
C121 O122 1.278 . S
C121 O129 1.224 . S
O122 C121 1.278 . S
C123 O124 1.245 . S
C123 O135 1.232 . S
O124 C123 1.245 . S
O125 Co119 2.058 . S
O125 C151 1.269 . S
O126 Co118 2.074 . S
O126 C151 1.257 . S
H127 C152 0.930 . S
H128 C158 0.930 . S
O129 Co118 2.093 . S
O129 C121 1.224 . S
H130 C162 0.929 . S
H131 C164 0.930 . S
H132 C165 0.930 . S
H133 C163 0.929 . S
H134 C166 0.928 . S
O135 Co119 2.057 . S
O135 C123 1.232 . S
H136 C155 0.929 . S
H137 C156 0.929 . S
H138 C168 0.931 . S
H139 C160 0.929 . S
H140 C169 0.930 . S
H141 C161 0.931 . S
O142 Co118 2.097 . S
O142 C170 1.214 . S
H143 C171 0.929 . S
H144 C172 0.929 . S
H145 C173 0.930 . S
H146 C174 0.929 . S
H147 C176 0.930 . S
H148 C153 0.930 . S
H149 C157 0.930 . S
O150 Co119 2.037 . S
O150 C170 1.234 . S
C151 O125 1.269 . S
C151 O126 1.257 . S
C152 H127 0.930 . S
C152 C155 1.388 . S
C152 C157 1.418 . S
C153 H148 0.930 . S
C153 C156 1.404 . S
C153 C157 1.353 . S
N154 Co119 2.145 . S
N154 C155 1.397 . S
N154 C156 1.334 . S
C155 H136 0.929 . S
C155 C152 1.388 . S
C155 N154 1.397 . S
C156 H137 0.929 . S
C156 C153 1.404 . S
C156 N154 1.334 . S
C157 H149 0.930 . S
C157 C152 1.418 . S
C157 C153 1.353 . S
C158 H128 0.930 . S
C158 N159 1.330 . S
C158 C160 1.446 . S
N159 Co118 2.151 . S
N159 C158 1.330 . S
N159 C163 1.418 . S
C160 H139 0.929 . S
C160 C158 1.446 . S
C160 C161 1.332 . S
C161 H141 0.931 . S
C161 C160 1.332 . S
C161 C162 1.267 . S
C162 H130 0.929 . S
C162 C161 1.267 . S
C162 C163 1.251 . S
C163 H133 0.929 . S
C163 N159 1.418 . S
C163 C162 1.251 . S
C164 H131 0.930 . S
C164 C166 1.406 . S
C164 C169 1.261 . S
C165 H132 0.930 . S
C165 N167 1.325 . S
C165 C168 1.357 . S
C166 H134 0.928 . S
C166 C164 1.406 . S
C166 N167 1.261 . S
N167 Co118 2.214 . S
N167 C165 1.325 . S
N167 C166 1.261 . S
C168 H138 0.931 . S
C168 C165 1.357 . S
C168 C169 1.312 . S
C169 H140 0.930 . S
C169 C164 1.261 . S
C169 C168 1.312 . S
C170 O142 1.214 . S
C170 O150 1.234 . S
C171 H143 0.929 . S
C171 C174 1.391 . S
C171 C176 1.391 . S
C172 H144 0.929 . S
C172 C173 1.390 . S
C172 N175 1.391 . S
C173 H145 0.930 . S
C173 C172 1.390 . S
C173 C174 1.392 . S
C174 H146 0.929 . S
C174 C171 1.391 . S
C174 C173 1.392 . S
N175 Co119 2.257 . S
N175 C172 1.391 . S
N175 C176 1.388 . S
C176 H147 0.930 . S
C176 C171 1.391 . S
C176 N175 1.388 . S
Co177 O179 2.143 . S
Co177 O185 2.074 . S
Co177 O188 2.093 . S
Co177 O201 2.097 . S
Co177 N218 2.151 . S
Co177 N226 2.214 . S
Co178 O179 2.160 . S
Co178 O184 2.058 . S
Co178 O194 2.057 . S
Co178 O209 2.037 . S
Co178 N213 2.145 . S
Co178 N234 2.257 . S
O179 Co177 2.143 . S
O179 Co178 2.160 . S
C180 O181 1.278 . S
C180 O188 1.224 . S
O181 C180 1.278 . S
C182 O183 1.245 . S
C182 O194 1.232 . S
O183 C182 1.245 . S
O184 Co178 2.058 . S
O184 C210 1.269 . S
O185 Co177 2.074 . S
O185 C210 1.257 . S
H186 C211 0.930 . S
H187 C217 0.930 . S
O188 Co177 2.093 . S
O188 C180 1.224 . S
H189 C221 0.929 . S
H190 C223 0.930 . S
H191 C224 0.930 . S
H192 C222 0.929 . S
H193 C225 0.928 . S
O194 Co178 2.057 . S
O194 C182 1.232 . S
H195 C214 0.929 . S
H196 C215 0.929 . S
H197 C227 0.931 . S
H198 C219 0.929 . S
H199 C228 0.930 . S
H200 C220 0.931 . S
O201 Co177 2.097 . S
O201 C229 1.214 . S
H202 C230 0.929 . S
H203 C231 0.929 . S
H204 C232 0.930 . S
H205 C233 0.929 . S
H206 C235 0.930 . S
H207 C212 0.930 . S
H208 C216 0.930 . S
O209 Co178 2.037 . S
O209 C229 1.234 . S
C210 O184 1.269 . S
C210 O185 1.257 . S
C211 H186 0.930 . S
C211 C214 1.388 . S
C211 C216 1.418 . S
C212 H207 0.930 . S
C212 C215 1.404 . S
C212 C216 1.353 . S
N213 Co178 2.145 . S
N213 C214 1.397 . S
N213 C215 1.334 . S
C214 H195 0.929 . S
C214 C211 1.388 . S
C214 N213 1.397 . S
C215 H196 0.929 . S
C215 C212 1.404 . S
C215 N213 1.334 . S
C216 H208 0.930 . S
C216 C211 1.418 . S
C216 C212 1.353 . S
C217 H187 0.930 . S
C217 N218 1.330 . S
C217 C219 1.446 . S
N218 Co177 2.151 . S
N218 C217 1.330 . S
N218 C222 1.418 . S
C219 H198 0.929 . S
C219 C217 1.446 . S
C219 C220 1.332 . S
C220 H200 0.931 . S
C220 C219 1.332 . S
C220 C221 1.267 . S
C221 H189 0.929 . S
C221 C220 1.267 . S
C221 C222 1.251 . S
C222 H192 0.929 . S
C222 N218 1.418 . S
C222 C221 1.251 . S
C223 H190 0.930 . S
C223 C225 1.406 . S
C223 C228 1.261 . S
C224 H191 0.930 . S
C224 N226 1.325 . S
C224 C227 1.357 . S
C225 H193 0.928 . S
C225 C223 1.406 . S
C225 N226 1.261 . S
N226 Co177 2.214 . S
N226 C224 1.325 . S
N226 C225 1.261 . S
C227 H197 0.931 . S
C227 C224 1.357 . S
C227 C228 1.312 . S
C228 H199 0.930 . S
C228 C223 1.261 . S
C228 C227 1.312 . S
C229 O201 1.214 . S
C229 O209 1.234 . S
C230 H202 0.929 . S
C230 C233 1.391 . S
C230 C235 1.391 . S
C231 H203 0.929 . S
C231 C232 1.390 . S
C231 N234 1.391 . S
C232 H204 0.930 . S
C232 C231 1.390 . S
C232 C233 1.392 . S
C233 H205 0.929 . S
C233 C230 1.391 . S
C233 C232 1.392 . S
N234 Co178 2.257 . S
N234 C231 1.391 . S
N234 C235 1.388 . S
C235 H206 0.930 . S
C235 C230 1.391 . S
C235 N234 1.388 . S
Co236 O238 2.143 . S
Co236 O244 2.074 1_455 S
Co236 O247 2.093 . S
Co236 O260 2.097 . S
Co236 N277 2.151 . S
Co236 N285 2.214 . S
Co237 O238 2.160 1_655 S
Co237 O243 2.058 . S
Co237 O253 2.057 . S
Co237 O268 2.037 1_655 S
Co237 N272 2.145 . S
Co237 N293 2.257 1_655 S
O238 Co236 2.143 . S
O238 Co237 2.160 1_455 S
C239 O240 1.278 . S
C239 O247 1.224 . S
O240 C239 1.278 . S
C241 O242 1.245 . S
C241 O253 1.232 . S
O242 C241 1.245 . S
O243 Co237 2.058 . S
O243 C269 1.269 . S
O244 Co236 2.074 1_655 S
O244 C269 1.257 . S
H245 C270 0.930 . S
H246 C276 0.930 . S
O247 Co236 2.093 . S
O247 C239 1.224 . S
H248 C280 0.929 . S
H249 C282 0.930 . S
H250 C283 0.930 . S
H251 C281 0.929 . S
H252 C284 0.928 . S
O253 Co237 2.057 . S
O253 C241 1.232 . S
H254 C273 0.929 . S
H255 C274 0.929 . S
H256 C286 0.931 . S
H257 C278 0.929 . S
H258 C287 0.930 . S
H259 C279 0.931 . S
O260 Co236 2.097 . S
O260 C288 1.214 . S
H261 C289 0.929 . S
H262 C290 0.929 . S
H263 C291 0.930 . S
H264 C292 0.929 . S
H265 C294 0.930 . S
H266 C271 0.930 . S
H267 C275 0.930 . S
O268 Co237 2.037 1_455 S
O268 C288 1.234 . S
C269 O243 1.269 . S
C269 O244 1.257 . S
C270 H245 0.930 . S
C270 C273 1.388 . S
C270 C275 1.418 . S
C271 H266 0.930 . S
C271 C274 1.404 . S
C271 C275 1.353 . S
N272 Co237 2.145 . S
N272 C273 1.397 . S
N272 C274 1.334 . S
C273 H254 0.929 . S
C273 C270 1.388 . S
C273 N272 1.397 . S
C274 H255 0.929 . S
C274 C271 1.404 . S
C274 N272 1.334 . S
C275 H267 0.930 . S
C275 C270 1.418 . S
C275 C271 1.353 . S
C276 H246 0.930 . S
C276 N277 1.330 . S
C276 C278 1.446 . S
N277 Co236 2.151 . S
N277 C276 1.330 . S
N277 C281 1.418 1_455 S
C278 H257 0.929 . S
C278 C276 1.446 . S
C278 C279 1.332 1_455 S
C279 H259 0.931 . S
C279 C278 1.332 1_655 S
C279 C280 1.267 . S
C280 H248 0.929 . S
C280 C279 1.267 . S
C280 C281 1.251 . S
C281 H251 0.929 . S
C281 N277 1.418 1_655 S
C281 C280 1.251 . S
C282 H249 0.930 . S
C282 C284 1.406 . S
C282 C287 1.261 . S
C283 H250 0.930 . S
C283 N285 1.325 . S
C283 C286 1.357 . S
C284 H252 0.928 . S
C284 C282 1.406 . S
C284 N285 1.261 . S
N285 Co236 2.214 . S
N285 C283 1.325 . S
N285 C284 1.261 . S
C286 H256 0.931 . S
C286 C283 1.357 . S
C286 C287 1.312 . S
C287 H258 0.930 . S
C287 C282 1.261 . S
C287 C286 1.312 . S
C288 O260 1.214 . S
C288 O268 1.234 . S
C289 H261 0.929 . S
C289 C292 1.391 . S
C289 C294 1.391 . S
C290 H262 0.929 . S
C290 C291 1.390 . S
C290 N293 1.391 . S
C291 H263 0.930 . S
C291 C290 1.390 . S
C291 C292 1.392 . S
C292 H264 0.929 . S
C292 C289 1.391 . S
C292 C291 1.392 . S
N293 Co237 2.257 1_455 S
N293 C290 1.391 . S
N293 C294 1.388 . S
C294 H265 0.930 . S
C294 C289 1.391 . S
C294 N293 1.388 . S
Co295 O297 2.143 . S
Co295 O303 2.074 . S
Co295 O306 2.093 . S
Co295 O319 2.097 . S
Co295 N336 2.151 . S
Co295 N344 2.214 . S
Co296 O297 2.160 . S
Co296 O302 2.058 . S
Co296 O312 2.057 . S
Co296 O327 2.037 . S
Co296 N331 2.145 . S
Co296 N352 2.257 . S
O297 Co295 2.143 . S
O297 Co296 2.160 . S
C298 O299 1.278 . S
C298 O306 1.224 . S
O299 C298 1.278 . S
C300 O301 1.245 . S
C300 O312 1.232 . S
O301 C300 1.245 . S
O302 Co296 2.058 . S
O302 C328 1.269 . S
O303 Co295 2.074 . S
O303 C328 1.257 . S
H304 C329 0.930 . S
H305 C335 0.930 . S
O306 Co295 2.093 . S
O306 C298 1.224 . S
H307 C339 0.929 . S
H308 C341 0.930 . S
H309 C342 0.930 . S
H310 C340 0.929 . S
H311 C343 0.928 . S
O312 Co296 2.057 . S
O312 C300 1.232 . S
H313 C332 0.929 . S
H314 C333 0.929 . S
H315 C345 0.931 . S
H316 C337 0.929 . S
H317 C346 0.930 . S
H318 C338 0.931 . S
O319 Co295 2.097 . S
O319 C347 1.214 . S
H320 C348 0.929 . S
H321 C349 0.929 . S
H322 C350 0.930 . S
H323 C351 0.929 . S
H324 C353 0.930 . S
H325 C330 0.930 . S
H326 C334 0.930 . S
O327 Co296 2.037 . S
O327 C347 1.234 . S
C328 O302 1.269 . S
C328 O303 1.257 . S
C329 H304 0.930 . S
C329 C332 1.388 . S
C329 C334 1.418 . S
C330 H325 0.930 . S
C330 C333 1.404 . S
C330 C334 1.353 . S
N331 Co296 2.145 . S
N331 C332 1.397 . S
N331 C333 1.334 . S
C332 H313 0.929 . S
C332 C329 1.388 . S
C332 N331 1.397 . S
C333 H314 0.929 . S
C333 C330 1.404 . S
C333 N331 1.334 . S
C334 H326 0.930 . S
C334 C329 1.418 . S
C334 C330 1.353 . S
C335 H305 0.930 . S
C335 N336 1.330 . S
C335 C337 1.446 . S
N336 Co295 2.151 . S
N336 C335 1.330 . S
N336 C340 1.418 . S
C337 H316 0.929 . S
C337 C335 1.446 . S
C337 C338 1.332 . S
C338 H318 0.931 . S
C338 C337 1.332 . S
C338 C339 1.267 . S
C339 H307 0.929 . S
C339 C338 1.267 . S
C339 C340 1.251 . S
C340 H310 0.929 . S
C340 N336 1.418 . S
C340 C339 1.251 . S
C341 H308 0.930 . S
C341 C343 1.406 . S
C341 C346 1.261 . S
C342 H309 0.930 . S
C342 N344 1.325 . S
C342 C345 1.357 . S
C343 H311 0.928 . S
C343 C341 1.406 . S
C343 N344 1.261 . S
N344 Co295 2.214 . S
N344 C342 1.325 . S
N344 C343 1.261 . S
C345 H315 0.931 . S
C345 C342 1.357 . S
C345 C346 1.312 . S
C346 H317 0.930 . S
C346 C341 1.261 . S
C346 C345 1.312 . S
C347 O319 1.214 . S
C347 O327 1.234 . S
C348 H320 0.929 . S
C348 C351 1.391 . S
C348 C353 1.391 . S
C349 H321 0.929 . S
C349 C350 1.390 . S
C349 N352 1.391 . S
C350 H322 0.930 . S
C350 C349 1.390 . S
C350 C351 1.392 . S
C351 H323 0.929 . S
C351 C348 1.391 . S
C351 C350 1.392 . S
N352 Co296 2.257 . S
N352 C349 1.391 . S
N352 C353 1.388 . S
C353 H324 0.930 . S
C353 C348 1.391 . S
C353 N352 1.388 . S
Co354 O356 2.143 . S
Co354 O362 2.074 . S
Co354 O365 2.093 . S
Co354 O378 2.097 . S
Co354 N395 2.151 . S
Co354 N403 2.214 . S
Co355 O356 2.160 . S
Co355 O361 2.058 . S
Co355 O371 2.057 . S
Co355 O386 2.037 . S
Co355 N390 2.145 . S
Co355 N411 2.257 . S
O356 Co354 2.143 . S
O356 Co355 2.160 . S
C357 O358 1.278 . S
C357 O365 1.224 . S
O358 C357 1.278 . S
C359 O360 1.245 . S
C359 O371 1.232 . S
O360 C359 1.245 . S
O361 Co355 2.058 . S
O361 C387 1.269 . S
O362 Co354 2.074 . S
O362 C387 1.257 . S
H363 C388 0.930 . S
H364 C394 0.930 . S
O365 Co354 2.093 . S
O365 C357 1.224 . S
H366 C398 0.929 . S
H367 C400 0.930 . S
H368 C401 0.930 . S
H369 C399 0.929 . S
H370 C402 0.928 . S
O371 Co355 2.057 . S
O371 C359 1.232 . S
H372 C391 0.929 . S
H373 C392 0.929 . S
H374 C404 0.931 . S
H375 C396 0.929 . S
H376 C405 0.930 . S
H377 C397 0.931 . S
O378 Co354 2.097 . S
O378 C406 1.214 . S
H379 C407 0.929 . S
H380 C408 0.929 . S
H381 C409 0.930 . S
H382 C410 0.929 . S
H383 C412 0.930 . S
H384 C389 0.930 . S
H385 C393 0.930 . S
O386 Co355 2.037 . S
O386 C406 1.234 . S
C387 O361 1.269 . S
C387 O362 1.257 . S
C388 H363 0.930 . S
C388 C391 1.388 . S
C388 C393 1.418 . S
C389 H384 0.930 . S
C389 C392 1.404 . S
C389 C393 1.353 . S
N390 Co355 2.145 . S
N390 C391 1.397 . S
N390 C392 1.334 . S
C391 H372 0.929 . S
C391 C388 1.388 . S
C391 N390 1.397 . S
C392 H373 0.929 . S
C392 C389 1.404 . S
C392 N390 1.334 . S
C393 H385 0.930 . S
C393 C388 1.418 . S
C393 C389 1.353 . S
C394 H364 0.930 . S
C394 N395 1.330 . S
C394 C396 1.446 . S
N395 Co354 2.151 . S
N395 C394 1.330 . S
N395 C399 1.418 . S
C396 H375 0.929 . S
C396 C394 1.446 . S
C396 C397 1.332 . S
C397 H377 0.931 . S
C397 C396 1.332 . S
C397 C398 1.267 . S
C398 H366 0.929 . S
C398 C397 1.267 . S
C398 C399 1.251 . S
C399 H369 0.929 . S
C399 N395 1.418 . S
C399 C398 1.251 . S
C400 H367 0.930 . S
C400 C402 1.406 . S
C400 C405 1.261 . S
C401 H368 0.930 . S
C401 N403 1.325 . S
C401 C404 1.357 . S
C402 H370 0.928 . S
C402 C400 1.406 . S
C402 N403 1.261 . S
N403 Co354 2.214 . S
N403 C401 1.325 . S
N403 C402 1.261 . S
C404 H374 0.931 . S
C404 C401 1.357 . S
C404 C405 1.312 . S
C405 H376 0.930 . S
C405 C400 1.261 . S
C405 C404 1.312 . S
C406 O378 1.214 . S
C406 O386 1.234 . S
C407 H379 0.929 . S
C407 C410 1.391 . S
C407 C412 1.391 . S
C408 H380 0.929 . S
C408 C409 1.390 . S
C408 N411 1.391 . S
C409 H381 0.930 . S
C409 C408 1.390 . S
C409 C410 1.392 . S
C410 H382 0.929 . S
C410 C407 1.391 . S
C410 C409 1.392 . S
N411 Co355 2.257 . S
N411 C408 1.391 . S
N411 C412 1.388 . S
C412 H383 0.930 . S
C412 C407 1.391 . S
C412 N411 1.388 . S
Co413 O415 2.143 1_455 S
Co413 O421 2.074 . S
Co413 O424 2.093 1_455 S
Co413 O437 2.097 . S
Co413 N454 2.158 . S
Co413 N462 2.214 . S
Co414 O415 2.160 1_455 S
Co414 O420 2.058 . S
Co414 O430 2.057 1_455 S
Co414 O445 2.037 . S
Co414 N449 2.145 . S
Co414 N470 2.257 1_455 S
O415 Co413 2.143 1_655 S
O415 Co414 2.160 1_655 S
C416 O417 1.278 . S
C416 O424 1.224 . S
O417 C416 1.278 . S
C418 O419 1.245 . S
C418 O430 1.232 . S
O419 C418 1.245 . S
O420 Co414 2.058 . S
O420 C446 1.269 . S
O421 Co413 2.074 . S
O421 C446 1.257 . S
H422 C447 0.930 . S
H423 C453 0.930 . S
O424 Co413 2.093 1_655 S
O424 C416 1.224 . S
H425 C457 0.929 . S
H426 C459 0.930 . S
H427 C460 0.930 . S
H428 C458 0.929 . S
H429 C461 0.928 . S
O430 Co414 2.057 1_655 S
O430 C418 1.232 . S
H431 C450 0.929 . S
H432 C451 0.929 . S
H433 C463 0.931 . S
H434 C455 0.929 . S
H435 C464 0.930 . S
H436 C456 0.931 . S
O437 Co413 2.097 . S
O437 C465 1.214 . S
H438 C466 0.929 . S
H439 C467 0.929 1_455 S
H440 C468 0.930 . S
H441 C469 0.929 . S
H442 C471 0.930 . S
H443 C448 0.930 . S
H444 C452 0.930 . S
O445 Co414 2.037 . S
O445 C465 1.234 . S
C446 O420 1.269 . S
C446 O421 1.257 . S
C447 H422 0.930 . S
C447 C450 1.388 . S
C447 C452 1.418 . S
C448 H443 0.930 . S
C448 C451 1.404 . S
C448 C452 1.353 . S
N449 Co414 2.145 . S
N449 C450 1.397 . S
N449 C451 1.334 . S
C450 H431 0.929 . S
C450 C447 1.388 . S
C450 N449 1.397 . S
C451 H432 0.929 . S
C451 C448 1.404 . S
C451 N449 1.334 . S
C452 H444 0.930 . S
C452 C447 1.418 . S
C452 C448 1.353 . S
C453 H423 0.930 . S
C453 N454 1.305 1_655 S
C453 C455 1.446 . S
N454 Co413 2.158 . S
N454 C453 1.305 1_455 S
N454 C458 1.433 . S
C455 H434 0.929 . S
C455 C453 1.446 . S
C455 C456 1.332 . S
C456 H436 0.931 . S
C456 C455 1.332 . S
C456 C457 1.267 1_655 S
C457 H425 0.929 . S
C457 C456 1.267 1_455 S
C457 C458 1.251 . S
C458 H428 0.929 . S
C458 N454 1.433 . S
C458 C457 1.251 . S
C459 H426 0.930 . S
C459 C461 1.406 . S
C459 C464 1.261 . S
C460 H427 0.930 . S
C460 N462 1.325 . S
C460 C463 1.357 . S
C461 H429 0.928 . S
C461 C459 1.406 . S
C461 N462 1.261 . S
N462 Co413 2.214 . S
N462 C460 1.325 . S
N462 C461 1.261 . S
C463 H433 0.931 . S
C463 C460 1.357 . S
C463 C464 1.312 . S
C464 H435 0.930 . S
C464 C459 1.261 . S
C464 C463 1.312 . S
C465 O437 1.214 . S
C465 O445 1.234 . S
C466 H438 0.929 . S
C466 C469 1.391 . S
C466 C471 1.391 . S
C467 H439 0.929 1_655 S
C467 C468 1.390 . S
C467 N470 1.391 . S
C468 H440 0.930 . S
C468 C467 1.390 . S
C468 C469 1.392 . S
C469 H441 0.929 . S
C469 C466 1.391 . S
C469 C468 1.392 . S
N470 Co414 2.257 1_655 S
N470 C467 1.391 . S
N470 C471 1.388 . S
C471 H442 0.930 . S
C471 C466 1.391 . S
C471 N470 1.388 . S
Co472 O474 2.143 1_545 S
Co472 O480 2.091 . S
Co472 O483 2.093 . S
Co472 O496 2.097 . S
Co472 N513 2.151 1_545 S
Co472 N521 2.214 . S
Co473 O474 2.160 . S
Co473 O479 2.058 . S
Co473 O489 2.057 . S
Co473 O504 2.037 1_565 S
Co473 N508 2.145 . S
Co473 N529 2.257 1_565 S
O474 Co472 2.143 1_565 S
O474 Co473 2.160 . S
C475 O476 1.278 . S
C475 O483 1.224 . S
O476 C475 1.278 . S
C477 O478 1.245 . S
C477 O489 1.232 . S
O478 C477 1.245 . S
O479 Co473 2.058 . S
O479 C505 1.269 . S
O480 Co472 2.091 . S
O480 C505 1.228 1_545 S
H481 C506 0.930 . S
H482 C512 0.930 . S
O483 Co472 2.093 . S
O483 C475 1.224 . S
H484 C516 0.929 . S
H485 C518 0.930 . S
H486 C519 0.930 . S
H487 C517 0.929 . S
H488 C520 0.928 . S
O489 Co473 2.057 . S
O489 C477 1.232 . S
H490 C509 0.929 1_545 S
H491 C510 0.929 . S
H492 C522 0.931 . S
H493 C514 0.929 . S
H494 C523 0.930 . S
H495 C515 0.931 . S
O496 Co472 2.097 . S
O496 C524 1.214 . S
H497 C525 0.929 . S
H498 C526 0.929 . S
H499 C527 0.930 . S
H500 C528 0.929 . S
H501 C530 0.930 1_565 S
H502 C507 0.930 . S
H503 C511 0.930 . S
O504 Co473 2.037 1_545 S
O504 C524 1.234 . S
C505 O479 1.269 . S
C505 O480 1.228 1_565 S
C506 H481 0.930 . S
C506 C509 1.388 . S
C506 C511 1.418 . S
C507 H502 0.930 . S
C507 C510 1.404 . S
C507 C511 1.353 . S
N508 Co473 2.145 . S
N508 C509 1.397 . S
N508 C510 1.334 . S
C509 H490 0.929 1_565 S
C509 C506 1.388 . S
C509 N508 1.397 . S
C510 H491 0.929 . S
C510 C507 1.404 . S
C510 N508 1.334 . S
C511 H503 0.930 . S
C511 C506 1.418 . S
C511 C507 1.353 . S
C512 H482 0.930 . S
C512 N513 1.330 . S
C512 C514 1.446 . S
N513 Co472 2.151 1_565 S
N513 C512 1.330 . S
N513 C517 1.418 . S
C514 H493 0.929 . S
C514 C512 1.446 . S
C514 C515 1.332 . S
C515 H495 0.931 . S
C515 C514 1.332 . S
C515 C516 1.267 . S
C516 H484 0.929 . S
C516 C515 1.267 . S
C516 C517 1.251 . S
C517 H487 0.929 . S
C517 N513 1.418 . S
C517 C516 1.251 . S
C518 H485 0.930 . S
C518 C520 1.406 . S
C518 C523 1.261 . S
C519 H486 0.930 . S
C519 N521 1.325 . S
C519 C522 1.357 . S
C520 H488 0.928 . S
C520 C518 1.406 . S
C520 N521 1.261 . S
N521 Co472 2.214 . S
N521 C519 1.325 . S
N521 C520 1.261 . S
C522 H492 0.931 . S
C522 C519 1.357 . S
C522 C523 1.312 . S
C523 H494 0.930 . S
C523 C518 1.261 . S
C523 C522 1.312 . S
C524 O496 1.214 . S
C524 O504 1.234 . S
C525 H497 0.929 . S
C525 C528 1.391 . S
C525 C530 1.391 . S
C526 H498 0.929 . S
C526 C527 1.390 . S
C526 N529 1.391 . S
C527 H499 0.930 . S
C527 C526 1.390 . S
C527 C528 1.392 . S
C528 H500 0.929 . S
C528 C525 1.391 . S
C528 C527 1.392 . S
N529 Co473 2.257 1_545 S
N529 C526 1.391 . S
N529 C530 1.388 . S
C530 H501 0.930 1_545 S
C530 C525 1.391 . S
C530 N529 1.388 . S
Co531 O533 2.143 . S
Co531 O539 2.074 . S
Co531 O542 2.093 . S
Co531 O555 2.097 . S
Co531 N572 2.151 . S
Co531 N580 2.214 . S
Co532 O533 2.160 . S
Co532 O538 2.058 . S
Co532 O548 2.057 . S
Co532 O563 2.037 . S
Co532 N567 2.145 . S
Co532 N588 2.257 . S
O533 Co531 2.143 . S
O533 Co532 2.160 . S
C534 O535 1.278 . S
C534 O542 1.224 . S
O535 C534 1.278 . S
C536 O537 1.245 . S
C536 O548 1.232 . S
O537 C536 1.245 . S
O538 Co532 2.058 . S
O538 C564 1.269 . S
O539 Co531 2.074 . S
O539 C564 1.257 . S
H540 C565 0.930 . S
H541 C571 0.930 . S
O542 Co531 2.093 . S
O542 C534 1.224 . S
H543 C575 0.929 . S
H544 C577 0.930 . S
H545 C578 0.930 . S
H546 C576 0.929 . S
H547 C579 0.928 . S
O548 Co532 2.057 . S
O548 C536 1.232 . S
H549 C568 0.929 . S
H550 C569 0.929 . S
H551 C581 0.931 . S
H552 C573 0.929 . S
H553 C582 0.930 . S
H554 C574 0.931 . S
O555 Co531 2.097 . S
O555 C583 1.214 . S
H556 C584 0.929 . S
H557 C585 0.929 . S
H558 C586 0.930 . S
H559 C587 0.929 . S
H560 C589 0.930 . S
H561 C566 0.930 . S
H562 C570 0.930 . S
O563 Co532 2.037 . S
O563 C583 1.234 . S
C564 O538 1.269 . S
C564 O539 1.257 . S
C565 H540 0.930 . S
C565 C568 1.388 . S
C565 C570 1.418 . S
C566 H561 0.930 . S
C566 C569 1.404 . S
C566 C570 1.353 . S
N567 Co532 2.145 . S
N567 C568 1.397 . S
N567 C569 1.334 . S
C568 H549 0.929 . S
C568 C565 1.388 . S
C568 N567 1.397 . S
C569 H550 0.929 . S
C569 C566 1.404 . S
C569 N567 1.334 . S
C570 H562 0.930 . S
C570 C565 1.418 . S
C570 C566 1.353 . S
C571 H541 0.930 . S
C571 N572 1.330 . S
C571 C573 1.446 . S
N572 Co531 2.151 . S
N572 C571 1.330 . S
N572 C576 1.418 . S
C573 H552 0.929 . S
C573 C571 1.446 . S
C573 C574 1.332 . S
C574 H554 0.931 . S
C574 C573 1.332 . S
C574 C575 1.267 . S
C575 H543 0.929 . S
C575 C574 1.267 . S
C575 C576 1.251 . S
C576 H546 0.929 . S
C576 N572 1.418 . S
C576 C575 1.251 . S
C577 H544 0.930 . S
C577 C579 1.406 . S
C577 C582 1.261 . S
C578 H545 0.930 . S
C578 N580 1.325 . S
C578 C581 1.357 . S
C579 H547 0.928 . S
C579 C577 1.406 . S
C579 N580 1.261 . S
N580 Co531 2.214 . S
N580 C578 1.325 . S
N580 C579 1.261 . S
C581 H551 0.931 . S
C581 C578 1.357 . S
C581 C582 1.312 . S
C582 H553 0.930 . S
C582 C577 1.261 . S
C582 C581 1.312 . S
C583 O555 1.214 . S
C583 O563 1.234 . S
C584 H556 0.929 . S
C584 C587 1.391 . S
C584 C589 1.391 . S
C585 H557 0.929 . S
C585 C586 1.390 . S
C585 N588 1.391 . S
C586 H558 0.930 . S
C586 C585 1.390 . S
C586 C587 1.392 . S
C587 H559 0.929 . S
C587 C584 1.391 . S
C587 C586 1.392 . S
N588 Co532 2.257 . S
N588 C585 1.391 . S
N588 C589 1.388 . S
C589 H560 0.930 . S
C589 C584 1.391 . S
C589 N588 1.388 . S
Co590 O592 2.143 1_565 S
Co590 O598 2.074 1_565 S
Co590 O601 2.093 . S
Co590 O614 2.097 . S
Co590 N631 2.151 1_565 S
Co590 N639 2.214 . S
Co591 O592 2.160 . S
Co591 O597 2.058 . S
Co591 O607 2.057 . S
Co591 O622 2.037 1_545 S
Co591 N626 2.145 . S
Co591 N647 2.257 . S
O592 Co590 2.143 1_545 S
O592 Co591 2.160 . S
C593 O594 1.278 . S
C593 O601 1.224 . S
O594 C593 1.278 . S
C595 O596 1.245 . S
C595 O607 1.232 . S
O596 C595 1.245 . S
O597 Co591 2.058 . S
O597 C623 1.269 . S
O598 Co590 2.074 1_545 S
O598 C623 1.257 . S
H599 C624 0.930 . S
H600 C630 0.930 . S
O601 Co590 2.093 . S
O601 C593 1.224 . S
H602 C634 0.929 . S
H603 C636 0.930 . S
H604 C637 0.930 . S
H605 C635 0.929 . S
H606 C638 0.928 . S
O607 Co591 2.057 . S
O607 C595 1.232 . S
H608 C627 0.929 . S
H609 C628 0.929 . S
H610 C640 0.931 . S
H611 C632 0.929 . S
H612 C641 0.930 . S
H613 C633 0.931 . S
O614 Co590 2.097 . S
O614 C642 1.214 . S
H615 C643 0.928 . S
H616 C644 0.929 . S
H617 C645 0.930 . S
H618 C646 0.929 . S
H619 C648 0.930 . S
H620 C625 0.930 . S
H621 C629 0.930 . S
O622 Co591 2.037 1_565 S
O622 C642 1.234 . S
C623 O597 1.269 . S
C623 O598 1.257 . S
C624 H599 0.930 . S
C624 C627 1.388 . S
C624 C629 1.418 . S
C625 H620 0.930 . S
C625 C628 1.404 . S
C625 C629 1.353 . S
N626 Co591 2.145 . S
N626 C627 1.397 . S
N626 C628 1.334 . S
C627 H608 0.929 . S
C627 C624 1.388 . S
C627 N626 1.397 . S
C628 H609 0.929 . S
C628 C625 1.404 . S
C628 N626 1.334 . S
C629 H621 0.930 . S
C629 C624 1.418 . S
C629 C625 1.353 . S
C630 H600 0.930 . S
C630 N631 1.330 . S
C630 C632 1.446 . S
N631 Co590 2.151 1_545 S
N631 C630 1.330 . S
N631 C635 1.418 . S
C632 H611 0.929 . S
C632 C630 1.446 . S
C632 C633 1.332 . S
C633 H613 0.931 . S
C633 C632 1.332 . S
C633 C634 1.267 . S
C634 H602 0.929 . S
C634 C633 1.267 . S
C634 C635 1.251 . S
C635 H605 0.929 . S
C635 N631 1.418 . S
C635 C634 1.251 . S
C636 H603 0.930 . S
C636 C638 1.406 . S
C636 C641 1.261 . S
C637 H604 0.930 . S
C637 N639 1.325 . S
C637 C640 1.357 . S
C638 H606 0.928 . S
C638 C636 1.406 . S
C638 N639 1.261 . S
N639 Co590 2.214 . S
N639 C637 1.325 . S
N639 C638 1.261 . S
C640 H610 0.931 . S
C640 C637 1.357 . S
C640 C641 1.312 . S
C641 H612 0.930 . S
C641 C636 1.261 . S
C641 C640 1.312 . S
C642 O614 1.214 . S
C642 O622 1.234 . S
C643 H615 0.928 . S
C643 C646 1.396 1_545 S
C643 C648 1.388 . S
C644 H616 0.929 . S
C644 C645 1.390 . S
C644 N647 1.391 1_565 S
C645 H617 0.930 . S
C645 C644 1.390 . S
C645 C646 1.392 . S
C646 H618 0.929 . S
C646 C643 1.396 1_565 S
C646 C645 1.392 . S
N647 Co591 2.257 . S
N647 C644 1.391 1_545 S
N647 C648 1.388 . S
C648 H619 0.930 . S
C648 C643 1.388 . S
C648 N647 1.388 . S
Co649 O651 2.143 1_554 S
Co649 O657 2.074 . S
Co649 O660 2.101 . S
Co649 O673 2.097 . S
Co649 N690 2.151 1_554 S
Co649 N698 2.214 . S
Co650 O651 2.160 1_554 S
Co650 O656 2.058 . S
Co650 O666 2.057 1_554 S
Co650 O681 2.037 . S
Co650 N685 2.145 . S
Co650 N706 2.257 1_554 S
O651 Co649 2.143 1_556 S
O651 Co650 2.160 1_556 S
C652 O653 1.278 . S
C652 O660 1.211 1_556 S
O653 C652 1.278 . S
C654 O655 1.245 . S
C654 O666 1.232 . S
O655 C654 1.245 . S
O656 Co650 2.058 . S
O656 C682 1.269 . S
O657 Co649 2.074 . S
O657 C682 1.257 . S
H658 C683 0.930 . S
H659 C689 0.930 . S
O660 Co649 2.101 . S
O660 C652 1.211 1_554 S
H661 C693 0.929 . S
H662 C695 0.930 . S
H663 C696 0.930 . S
H664 C694 0.945 . S
H665 C697 0.928 . S
O666 Co650 2.057 1_556 S
O666 C654 1.232 . S
H667 C686 0.929 . S
H668 C687 0.929 1_556 S
H669 C699 0.931 . S
H670 C691 0.929 . S
H671 C700 0.930 . S
H672 C692 0.931 . S
O673 Co649 2.097 . S
O673 C701 1.214 . S
H674 C702 0.929 . S
H675 C703 0.929 . S
H676 C704 0.930 . S
H677 C705 0.929 . S
H678 C707 0.930 . S
H679 C684 0.930 . S
H680 C688 0.930 . S
O681 Co650 2.037 . S
O681 C701 1.234 . S
C682 O656 1.269 . S
C682 O657 1.257 . S
C683 H658 0.930 . S
C683 C686 1.388 . S
C683 C688 1.418 . S
C684 H679 0.930 . S
C684 C687 1.404 . S
C684 C688 1.353 . S
N685 Co650 2.145 . S
N685 C686 1.397 . S
N685 C687 1.334 . S
C686 H667 0.929 . S
C686 C683 1.388 . S
C686 N685 1.397 . S
C687 H668 0.929 1_554 S
C687 C684 1.404 . S
C687 N685 1.334 . S
C688 H680 0.930 . S
C688 C683 1.418 . S
C688 C684 1.353 . S
C689 H659 0.930 . S
C689 N690 1.330 . S
C689 C691 1.446 . S
N690 Co649 2.151 1_556 S
N690 C689 1.330 . S
N690 C694 1.411 1_556 S
C691 H670 0.929 . S
C691 C689 1.446 . S
C691 C692 1.332 . S
C692 H672 0.931 . S
C692 C691 1.332 . S
C692 C693 1.267 . S
C693 H661 0.929 . S
C693 C692 1.267 . S
C693 C694 1.242 1_556 S
C694 H664 0.945 . S
C694 N690 1.411 1_554 S
C694 C693 1.242 1_554 S
C695 H662 0.930 . S
C695 C697 1.406 . S
C695 C700 1.261 . S
C696 H663 0.930 . S
C696 N698 1.325 . S
C696 C699 1.357 . S
C697 H665 0.928 . S
C697 C695 1.406 . S
C697 N698 1.261 . S
N698 Co649 2.214 . S
N698 C696 1.325 . S
N698 C697 1.261 . S
C699 H669 0.931 . S
C699 C696 1.357 . S
C699 C700 1.312 . S
C700 H671 0.930 . S
C700 C695 1.261 . S
C700 C699 1.312 . S
C701 O673 1.214 . S
C701 O681 1.234 . S
C702 H674 0.929 . S
C702 C705 1.391 . S
C702 C707 1.391 . S
C703 H675 0.929 . S
C703 C704 1.390 . S
C703 N706 1.391 1_554 S
C704 H676 0.930 . S
C704 C703 1.390 . S
C704 C705 1.392 1_554 S
C705 H677 0.929 . S
C705 C702 1.391 . S
C705 C704 1.392 1_556 S
N706 Co650 2.257 1_556 S
N706 C703 1.391 1_556 S
N706 C707 1.388 . S
C707 H678 0.930 . S
C707 C702 1.391 . S
C707 N706 1.388 . S
Co708 O710 2.153 . S
Co708 O716 2.074 1_556 S
Co708 O719 2.093 . S
Co708 O732 2.097 . S
Co708 N749 2.151 1_556 S
Co708 N757 2.214 . S
Co709 O710 2.136 1_554 S
Co709 O715 2.058 . S
Co709 O725 2.057 . S
Co709 O740 2.037 1_554 S
Co709 N744 2.145 . S
Co709 N765 2.257 1_554 S
O710 Co708 2.153 . S
O710 Co709 2.136 1_556 S
C711 O712 1.278 . S
C711 O719 1.224 . S
O712 C711 1.278 . S
C713 O714 1.245 . S
C713 O725 1.232 . S
O714 C713 1.245 . S
O715 Co709 2.058 . S
O715 C741 1.269 . S
O716 Co708 2.074 1_554 S
O716 C741 1.257 . S
H717 C742 0.930 . S
H718 C748 0.962 . S
O719 Co708 2.093 . S
O719 C711 1.224 . S
H720 C752 0.929 . S
H721 C754 0.930 . S
H722 C755 0.930 . S
H723 C753 0.929 . S
H724 C756 0.928 . S
O725 Co709 2.057 . S
O725 C713 1.232 . S
H726 C745 0.929 . S
H727 C746 0.929 . S
H728 C758 0.931 . S
H729 C750 0.929 . S
H730 C759 0.930 . S
H731 C751 0.931 . S
O732 Co708 2.097 . S
O732 C760 1.214 . S
H733 C761 0.929 . S
H734 C762 0.929 . S
H735 C763 0.930 . S
H736 C764 0.929 . S
H737 C766 0.930 . S
H738 C743 0.930 . S
H739 C747 0.930 . S
O740 Co709 2.037 1_556 S
O740 C760 1.234 . S
C741 O715 1.269 . S
C741 O716 1.257 . S
C742 H717 0.930 . S
C742 C745 1.388 . S
C742 C747 1.418 . S
C743 H738 0.930 . S
C743 C746 1.404 . S
C743 C747 1.353 . S
N744 Co709 2.145 . S
N744 C745 1.397 . S
N744 C746 1.334 . S
C745 H726 0.929 . S
C745 C742 1.388 . S
C745 N744 1.397 . S
C746 H727 0.929 . S
C746 C743 1.404 . S
C746 N744 1.334 . S
C747 H739 0.930 . S
C747 C742 1.418 . S
C747 C743 1.353 . S
C748 H718 0.962 . S
C748 N749 1.313 1_556 S
C748 C750 1.433 1_556 S
N749 Co708 2.151 1_554 S
N749 C748 1.313 1_554 S
N749 C753 1.418 . S
C750 H729 0.929 . S
C750 C748 1.433 1_554 S
C750 C751 1.332 . S
C751 H731 0.931 . S
C751 C750 1.332 . S
C751 C752 1.267 . S
C752 H720 0.929 . S
C752 C751 1.267 . S
C752 C753 1.251 . S
C753 H723 0.929 . S
C753 N749 1.418 . S
C753 C752 1.251 . S
C754 H721 0.930 . S
C754 C756 1.406 . S
C754 C759 1.261 . S
C755 H722 0.930 . S
C755 N757 1.325 . S
C755 C758 1.357 . S
C756 H724 0.928 . S
C756 C754 1.406 . S
C756 N757 1.261 . S
N757 Co708 2.214 . S
N757 C755 1.325 . S
N757 C756 1.261 . S
C758 H728 0.931 . S
C758 C755 1.357 . S
C758 C759 1.312 . S
C759 H730 0.930 . S
C759 C754 1.261 . S
C759 C758 1.312 . S
C760 O732 1.214 . S
C760 O740 1.234 . S
C761 H733 0.929 . S
C761 C764 1.391 . S
C761 C766 1.391 . S
C762 H734 0.929 . S
C762 C763 1.390 . S
C762 N765 1.391 . S
C763 H735 0.930 . S
C763 C762 1.390 . S
C763 C764 1.392 . S
C764 H736 0.929 . S
C764 C761 1.391 . S
C764 C763 1.392 . S
N765 Co709 2.257 1_556 S
N765 C762 1.391 . S
N765 C766 1.388 . S
C766 H737 0.930 . S
C766 C761 1.391 . S
C766 N765 1.388 . S
Co767 O769 2.143 1_556 S
Co767 O775 2.074 1_556 S
Co767 O778 2.093 . S
Co767 O791 2.097 . S
Co767 N808 2.151 1_556 S
Co767 N816 2.214 . S
Co768 O769 2.160 . S
Co768 O774 2.058 . S
Co768 O784 2.057 . S
Co768 O799 2.037 1_554 S
Co768 N803 2.145 . S
Co768 N824 2.257 . S
O769 Co767 2.143 1_554 S
O769 Co768 2.160 . S
C770 O771 1.278 . S
C770 O778 1.224 . S
O771 C770 1.278 . S
C772 O773 1.245 . S
C772 O784 1.232 . S
O773 C772 1.245 . S
O774 Co768 2.058 . S
O774 C800 1.269 . S
O775 Co767 2.074 1_554 S
O775 C800 1.257 . S
H776 C801 0.930 . S
H777 C807 0.930 . S
O778 Co767 2.093 . S
O778 C770 1.224 . S
H779 C811 0.929 . S
H780 C813 0.930 . S
H781 C814 0.930 . S
H782 C812 0.929 . S
H783 C815 0.928 . S
O784 Co768 2.057 . S
O784 C772 1.232 . S
H785 C804 0.929 . S
H786 C805 0.929 . S
H787 C817 0.931 . S
H788 C809 0.929 . S
H789 C818 0.930 . S
H790 C810 0.931 . S
O791 Co767 2.097 . S
O791 C819 1.214 . S
H792 C820 0.932 . S
H793 C821 0.929 . S
H794 C822 0.930 . S
H795 C823 0.929 . S
H796 C825 0.930 . S
H797 C802 0.930 . S
H798 C806 0.930 . S
O799 Co768 2.037 1_556 S
O799 C819 1.234 . S
C800 O774 1.269 . S
C800 O775 1.257 . S
C801 H776 0.930 . S
C801 C804 1.388 . S
C801 C806 1.418 . S
C802 H797 0.930 . S
C802 C805 1.404 . S
C802 C806 1.353 . S
N803 Co768 2.145 . S
N803 C804 1.397 . S
N803 C805 1.334 . S
C804 H785 0.929 . S
C804 C801 1.388 . S
C804 N803 1.397 . S
C805 H786 0.929 . S
C805 C802 1.404 . S
C805 N803 1.334 . S
C806 H798 0.930 . S
C806 C801 1.418 . S
C806 C802 1.353 . S
C807 H777 0.930 . S
C807 N808 1.330 . S
C807 C809 1.446 . S
N808 Co767 2.151 1_554 S
N808 C807 1.330 . S
N808 C812 1.418 . S
C809 H788 0.929 . S
C809 C807 1.446 . S
C809 C810 1.332 . S
C810 H790 0.931 . S
C810 C809 1.332 . S
C810 C811 1.267 . S
C811 H779 0.929 . S
C811 C810 1.267 . S
C811 C812 1.251 . S
C812 H782 0.929 . S
C812 N808 1.418 . S
C812 C811 1.251 . S
C813 H780 0.930 . S
C813 C815 1.406 . S
C813 C818 1.261 . S
C814 H781 0.930 . S
C814 N816 1.325 . S
C814 C817 1.357 . S
C815 H783 0.928 . S
C815 C813 1.406 . S
C815 N816 1.261 . S
N816 Co767 2.214 . S
N816 C814 1.325 . S
N816 C815 1.261 . S
C817 H787 0.931 . S
C817 C814 1.357 . S
C817 C818 1.312 . S
C818 H789 0.930 . S
C818 C813 1.261 . S
C818 C817 1.312 . S
C819 O791 1.214 . S
C819 O799 1.234 . S
C820 H792 0.932 . S
C820 C823 1.382 1_554 S
C820 C825 1.397 . S
C821 H793 0.929 . S
C821 C822 1.390 . S
C821 N824 1.391 1_556 S
C822 H794 0.930 . S
C822 C821 1.390 . S
C822 C823 1.392 . S
C823 H795 0.929 . S
C823 C820 1.382 1_556 S
C823 C822 1.392 . S
N824 Co768 2.257 . S
N824 C821 1.391 1_554 S
N824 C825 1.388 . S
C825 H796 0.930 . S
C825 C820 1.397 . S
C825 N824 1.388 . S
Co826 O828 2.143 . S
Co826 O834 2.074 . S
Co826 O837 2.093 . S
Co826 O850 2.097 . S
Co826 N867 2.151 . S
Co826 N875 2.214 . S
Co827 O828 2.160 . S
Co827 O833 2.058 . S
Co827 O843 2.057 . S
Co827 O858 2.037 . S
Co827 N862 2.145 . S
Co827 N883 2.257 . S
O828 Co826 2.143 . S
O828 Co827 2.160 . S
C829 O830 1.278 . S
C829 O837 1.224 . S
O830 C829 1.278 . S
C831 O832 1.245 . S
C831 O843 1.232 . S
O832 C831 1.245 . S
O833 Co827 2.058 . S
O833 C859 1.269 . S
O834 Co826 2.074 . S
O834 C859 1.257 . S
H835 C860 0.930 . S
H836 C866 0.930 . S
O837 Co826 2.093 . S
O837 C829 1.224 . S
H838 C870 0.929 . S
H839 C872 0.930 . S
H840 C873 0.930 . S
H841 C871 0.929 . S
H842 C874 0.928 . S
O843 Co827 2.057 . S
O843 C831 1.232 . S
H844 C863 0.929 . S
H845 C864 0.929 . S
H846 C876 0.931 . S
H847 C868 0.929 . S
H848 C877 0.930 . S
H849 C869 0.931 . S
O850 Co826 2.097 . S
O850 C878 1.214 . S
H851 C879 0.929 . S
H852 C880 0.929 . S
H853 C881 0.930 . S
H854 C882 0.929 . S
H855 C884 0.930 . S
H856 C861 0.930 . S
H857 C865 0.930 . S
O858 Co827 2.037 . S
O858 C878 1.234 . S
C859 O833 1.269 . S
C859 O834 1.257 . S
C860 H835 0.930 . S
C860 C863 1.388 . S
C860 C865 1.418 . S
C861 H856 0.930 . S
C861 C864 1.404 . S
C861 C865 1.353 . S
N862 Co827 2.145 . S
N862 C863 1.397 . S
N862 C864 1.334 . S
C863 H844 0.929 . S
C863 C860 1.388 . S
C863 N862 1.397 . S
C864 H845 0.929 . S
C864 C861 1.404 . S
C864 N862 1.334 . S
C865 H857 0.930 . S
C865 C860 1.418 . S
C865 C861 1.353 . S
C866 H836 0.930 . S
C866 N867 1.330 . S
C866 C868 1.446 . S
N867 Co826 2.151 . S
N867 C866 1.330 . S
N867 C871 1.418 . S
C868 H847 0.929 . S
C868 C866 1.446 . S
C868 C869 1.332 . S
C869 H849 0.931 . S
C869 C868 1.332 . S
C869 C870 1.267 . S
C870 H838 0.929 . S
C870 C869 1.267 . S
C870 C871 1.251 . S
C871 H841 0.929 . S
C871 N867 1.418 . S
C871 C870 1.251 . S
C872 H839 0.930 . S
C872 C874 1.406 . S
C872 C877 1.261 . S
C873 H840 0.930 . S
C873 N875 1.325 . S
C873 C876 1.357 . S
C874 H842 0.928 . S
C874 C872 1.406 . S
C874 N875 1.261 . S
N875 Co826 2.214 . S
N875 C873 1.325 . S
N875 C874 1.261 . S
C876 H846 0.931 . S
C876 C873 1.357 . S
C876 C877 1.312 . S
C877 H848 0.930 . S
C877 C872 1.261 . S
C877 C876 1.312 . S
C878 O850 1.214 . S
C878 O858 1.234 . S
C879 H851 0.929 . S
C879 C882 1.391 . S
C879 C884 1.391 . S
C880 H852 0.929 . S
C880 C881 1.390 . S
C880 N883 1.391 . S
C881 H853 0.930 . S
C881 C880 1.390 . S
C881 C882 1.392 . S
C882 H854 0.929 . S
C882 C879 1.391 . S
C882 C881 1.392 . S
N883 Co827 2.257 . S
N883 C880 1.391 . S
N883 C884 1.388 . S
C884 H855 0.930 . S
C884 C879 1.391 . S
C884 N883 1.388 . S
Co885 O887 2.143 . S
Co885 O893 2.074 . S
Co885 O896 2.093 . S
Co885 O909 2.097 . S
Co885 N926 2.151 . S
Co885 N934 2.214 . S
Co886 O887 2.160 . S
Co886 O892 2.058 . S
Co886 O902 2.057 . S
Co886 O917 2.037 . S
Co886 N921 2.145 . S
Co886 N942 2.257 . S
O887 Co885 2.143 . S
O887 Co886 2.160 . S
C888 O889 1.278 . S
C888 O896 1.224 . S
O889 C888 1.278 . S
C890 O891 1.245 . S
C890 O902 1.232 . S
O891 C890 1.245 . S
O892 Co886 2.058 . S
O892 C918 1.269 . S
O893 Co885 2.074 . S
O893 C918 1.257 . S
H894 C919 0.930 . S
H895 C925 0.930 . S
O896 Co885 2.093 . S
O896 C888 1.224 . S
H897 C929 0.929 . S
H898 C931 0.930 . S
H899 C932 0.930 . S
H900 C930 0.929 . S
H901 C933 0.928 . S
O902 Co886 2.057 . S
O902 C890 1.232 . S
H903 C922 0.929 . S
H904 C923 0.929 . S
H905 C935 0.931 . S
H906 C927 0.929 . S
H907 C936 0.930 . S
H908 C928 0.931 . S
O909 Co885 2.097 . S
O909 C937 1.214 . S
H910 C938 0.929 . S
H911 C939 0.929 . S
H912 C940 0.930 . S
H913 C941 0.929 . S
H914 C943 0.930 . S
H915 C920 0.930 . S
H916 C924 0.930 . S
O917 Co886 2.037 . S
O917 C937 1.234 . S
C918 O892 1.269 . S
C918 O893 1.257 . S
C919 H894 0.930 . S
C919 C922 1.388 . S
C919 C924 1.418 . S
C920 H915 0.930 . S
C920 C923 1.404 . S
C920 C924 1.353 . S
N921 Co886 2.145 . S
N921 C922 1.397 . S
N921 C923 1.334 . S
C922 H903 0.929 . S
C922 C919 1.388 . S
C922 N921 1.397 . S
C923 H904 0.929 . S
C923 C920 1.404 . S
C923 N921 1.334 . S
C924 H916 0.930 . S
C924 C919 1.418 . S
C924 C920 1.353 . S
C925 H895 0.930 . S
C925 N926 1.330 . S
C925 C927 1.446 . S
N926 Co885 2.151 . S
N926 C925 1.330 . S
N926 C930 1.418 . S
C927 H906 0.929 . S
C927 C925 1.446 . S
C927 C928 1.332 . S
C928 H908 0.931 . S
C928 C927 1.332 . S
C928 C929 1.267 . S
C929 H897 0.929 . S
C929 C928 1.267 . S
C929 C930 1.251 . S
C930 H900 0.929 . S
C930 N926 1.418 . S
C930 C929 1.251 . S
C931 H898 0.930 . S
C931 C933 1.406 . S
C931 C936 1.261 . S
C932 H899 0.930 . S
C932 N934 1.325 . S
C932 C935 1.357 . S
C933 H901 0.928 . S
C933 C931 1.406 . S
C933 N934 1.261 . S
N934 Co885 2.214 . S
N934 C932 1.325 . S
N934 C933 1.261 . S
C935 H905 0.931 . S
C935 C932 1.357 . S
C935 C936 1.312 . S
C936 H907 0.930 . S
C936 C931 1.261 . S
C936 C935 1.312 . S
C937 O909 1.214 . S
C937 O917 1.234 . S
C938 H910 0.929 . S
C938 C941 1.391 . S
C938 C943 1.391 . S
C939 H911 0.929 . S
C939 C940 1.390 . S
C939 N942 1.391 . S
C940 H912 0.930 . S
C940 C939 1.390 . S
C940 C941 1.392 . S
C941 H913 0.929 . S
C941 C938 1.391 . S
C941 C940 1.392 . S
N942 Co886 2.257 . S
N942 C939 1.391 . S
N942 C943 1.388 . S
C943 H914 0.930 . S
C943 C938 1.391 . S
C943 N942 1.388 . S
Co944 O946 2.143 1_545 S
Co944 O952 2.074 . S
Co944 O955 2.102 . S
Co944 O968 2.097 . S
Co944 N985 2.151 1_545 S
Co944 N993 2.214 . S
Co945 O946 2.160 1_545 S
Co945 O951 2.058 . S
Co945 O961 2.057 1_545 S
Co945 O976 2.037 . S
Co945 N980 2.145 . S
Co945 N1001 2.257 1_545 S
O946 Co944 2.143 1_565 S
O946 Co945 2.160 1_565 S
C947 O948 1.278 . S
C947 O955 1.210 1_565 S
O948 C947 1.278 . S
C949 O950 1.245 . S
C949 O961 1.232 . S
O950 C949 1.245 . S
O951 Co945 2.058 . S
O951 C977 1.269 . S
O952 Co944 2.074 . S
O952 C977 1.257 . S
H953 C978 0.930 . S
H954 C984 0.930 . S
O955 Co944 2.102 . S
O955 C947 1.210 1_545 S
H956 C988 0.929 . S
H957 C990 0.930 . S
H958 C991 0.930 . S
H959 C989 0.946 . S
H960 C992 0.928 . S
O961 Co945 2.057 1_565 S
O961 C949 1.232 . S
H962 C981 0.929 . S
H963 C982 0.929 1_565 S
H964 C994 0.931 . S
H965 C986 0.929 . S
H966 C995 0.930 . S
H967 C987 0.931 . S
O968 Co944 2.097 . S
O968 C996 1.214 . S
H969 C997 0.929 . S
H970 C998 0.929 . S
H971 C999 0.930 . S
H972 C1000 0.929 . S
H973 C1002 0.930 . S
H974 C979 0.930 . S
H975 C983 0.930 . S
O976 Co945 2.037 . S
O976 C996 1.234 . S
C977 O951 1.269 . S
C977 O952 1.257 . S
C978 H953 0.930 . S
C978 C981 1.388 . S
C978 C983 1.418 . S
C979 H974 0.930 . S
C979 C982 1.404 . S
C979 C983 1.353 . S
N980 Co945 2.145 . S
N980 C981 1.397 . S
N980 C982 1.334 . S
C981 H962 0.929 . S
C981 C978 1.388 . S
C981 N980 1.397 . S
C982 H963 0.929 1_545 S
C982 C979 1.404 . S
C982 N980 1.334 . S
C983 H975 0.930 . S
C983 C978 1.418 . S
C983 C979 1.353 . S
C984 H954 0.930 . S
C984 N985 1.330 . S
C984 C986 1.446 . S
N985 Co944 2.151 1_565 S
N985 C984 1.330 . S
N985 C989 1.411 1_565 S
C986 H965 0.929 . S
C986 C984 1.446 . S
C986 C987 1.332 . S
C987 H967 0.931 . S
C987 C986 1.332 . S
C987 C988 1.267 . S
C988 H956 0.929 . S
C988 C987 1.267 . S
C988 C989 1.242 1_565 S
C989 H959 0.946 . S
C989 N985 1.411 1_545 S
C989 C988 1.242 1_545 S
C990 H957 0.930 . S
C990 C992 1.406 . S
C990 C995 1.261 . S
C991 H958 0.930 . S
C991 N993 1.325 . S
C991 C994 1.357 . S
C992 H960 0.928 . S
C992 C990 1.406 . S
C992 N993 1.261 . S
N993 Co944 2.214 . S
N993 C991 1.325 . S
N993 C992 1.261 . S
C994 H964 0.931 . S
C994 C991 1.357 . S
C994 C995 1.312 . S
C995 H966 0.930 . S
C995 C990 1.261 . S
C995 C994 1.312 . S
C996 O968 1.214 . S
C996 O976 1.234 . S
C997 H969 0.929 . S
C997 C1000 1.391 . S
C997 C1002 1.391 . S
C998 H970 0.929 . S
C998 C999 1.390 . S
C998 N1001 1.391 1_545 S
C999 H971 0.930 . S
C999 C998 1.390 . S
C999 C1000 1.392 1_545 S
C1000 H972 0.929 . S
C1000 C997 1.391 . S
C1000 C999 1.392 1_565 S
N1001 Co945 2.257 1_565 S
N1001 C998 1.391 1_565 S
N1001 C1002 1.388 . S
C1002 H973 0.930 . S
C1002 C997 1.391 . S
C1002 N1001 1.388 . S
Co1003 O1005 2.143 . S
Co1003 O1011 2.074 . S
Co1003 O1014 2.093 . S
Co1003 O1027 2.097 . S
Co1003 N1044 2.151 . S
Co1003 N1052 2.214 . S
Co1004 O1005 2.160 . S
Co1004 O1010 2.058 . S
Co1004 O1020 2.057 . S
Co1004 O1035 2.037 . S
Co1004 N1039 2.145 . S
Co1004 N1060 2.257 . S
O1005 Co1003 2.143 . S
O1005 Co1004 2.160 . S
C1006 O1007 1.278 . S
C1006 O1014 1.224 . S
O1007 C1006 1.278 . S
C1008 O1009 1.245 . S
C1008 O1020 1.232 . S
O1009 C1008 1.245 . S
O1010 Co1004 2.058 . S
O1010 C1036 1.269 . S
O1011 Co1003 2.074 . S
O1011 C1036 1.257 . S
H1012 C1037 0.930 . S
H1013 C1043 0.930 . S
O1014 Co1003 2.093 . S
O1014 C1006 1.224 . S
H1015 C1047 0.929 . S
H1016 C1049 0.930 . S
H1017 C1050 0.930 . S
H1018 C1048 0.929 . S
H1019 C1051 0.928 . S
O1020 Co1004 2.057 . S
O1020 C1008 1.232 . S
H1021 C1040 0.929 . S
H1022 C1041 0.929 . S
H1023 C1053 0.931 . S
H1024 C1045 0.929 . S
H1025 C1054 0.930 . S
H1026 C1046 0.931 . S
O1027 Co1003 2.097 . S
O1027 C1055 1.214 . S
H1028 C1056 0.929 . S
H1029 C1057 0.929 . S
H1030 C1058 0.930 . S
H1031 C1059 0.929 . S
H1032 C1061 0.930 . S
H1033 C1038 0.930 . S
H1034 C1042 0.930 . S
O1035 Co1004 2.037 . S
O1035 C1055 1.234 . S
C1036 O1010 1.269 . S
C1036 O1011 1.257 . S
C1037 H1012 0.930 . S
C1037 C1040 1.388 . S
C1037 C1042 1.418 . S
C1038 H1033 0.930 . S
C1038 C1041 1.404 . S
C1038 C1042 1.353 . S
N1039 Co1004 2.145 . S
N1039 C1040 1.397 . S
N1039 C1041 1.334 . S
C1040 H1021 0.929 . S
C1040 C1037 1.388 . S
C1040 N1039 1.397 . S
C1041 H1022 0.929 . S
C1041 C1038 1.404 . S
C1041 N1039 1.334 . S
C1042 H1034 0.930 . S
C1042 C1037 1.418 . S
C1042 C1038 1.353 . S
C1043 H1013 0.930 . S
C1043 N1044 1.330 . S
C1043 C1045 1.446 . S
N1044 Co1003 2.151 . S
N1044 C1043 1.330 . S
N1044 C1048 1.418 . S
C1045 H1024 0.929 . S
C1045 C1043 1.446 . S
C1045 C1046 1.332 . S
C1046 H1026 0.931 . S
C1046 C1045 1.332 . S
C1046 C1047 1.267 . S
C1047 H1015 0.929 . S
C1047 C1046 1.267 . S
C1047 C1048 1.251 . S
C1048 H1018 0.929 . S
C1048 N1044 1.418 . S
C1048 C1047 1.251 . S
C1049 H1016 0.930 . S
C1049 C1051 1.406 . S
C1049 C1054 1.261 . S
C1050 H1017 0.930 . S
C1050 N1052 1.325 . S
C1050 C1053 1.357 . S
C1051 H1019 0.928 . S
C1051 C1049 1.406 . S
C1051 N1052 1.261 . S
N1052 Co1003 2.214 . S
N1052 C1050 1.325 . S
N1052 C1051 1.261 . S
C1053 H1023 0.931 . S
C1053 C1050 1.357 . S
C1053 C1054 1.312 . S
C1054 H1025 0.930 . S
C1054 C1049 1.261 . S
C1054 C1053 1.312 . S
C1055 O1027 1.214 . S
C1055 O1035 1.234 . S
C1056 H1028 0.929 . S
C1056 C1059 1.391 . S
C1056 C1061 1.391 . S
C1057 H1029 0.929 . S
C1057 C1058 1.390 . S
C1057 N1060 1.391 . S
C1058 H1030 0.930 . S
C1058 C1057 1.390 . S
C1058 C1059 1.392 . S
C1059 H1031 0.929 . S
C1059 C1056 1.391 . S
C1059 C1058 1.392 . S
N1060 Co1004 2.257 . S
N1060 C1057 1.391 . S
N1060 C1061 1.388 . S
C1061 H1032 0.930 . S
C1061 C1056 1.391 . S
C1061 N1060 1.388 . S
Co1062 O1064 2.143 . S
Co1062 O1070 2.074 . S
Co1062 O1073 2.093 . S
Co1062 O1086 2.097 . S
Co1062 N1103 2.151 . S
Co1062 N1111 2.214 . S
Co1063 O1064 2.160 . S
Co1063 O1069 2.058 . S
Co1063 O1079 2.057 . S
Co1063 O1094 2.037 . S
Co1063 N1098 2.145 . S
Co1063 N1119 2.257 . S
O1064 Co1062 2.143 . S
O1064 Co1063 2.160 . S
C1065 O1066 1.278 . S
C1065 O1073 1.224 . S
O1066 C1065 1.278 . S
C1067 O1068 1.245 . S
C1067 O1079 1.232 . S
O1068 C1067 1.245 . S
O1069 Co1063 2.058 . S
O1069 C1095 1.269 . S
O1070 Co1062 2.074 . S
O1070 C1095 1.257 . S
H1071 C1096 0.930 . S
H1072 C1102 0.930 . S
O1073 Co1062 2.093 . S
O1073 C1065 1.224 . S
H1074 C1106 0.929 . S
H1075 C1108 0.930 . S
H1076 C1109 0.930 . S
H1077 C1107 0.929 . S
H1078 C1110 0.928 . S
O1079 Co1063 2.057 . S
O1079 C1067 1.232 . S
H1080 C1099 0.929 . S
H1081 C1100 0.929 . S
H1082 C1112 0.931 . S
H1083 C1104 0.929 . S
H1084 C1113 0.930 . S
H1085 C1105 0.931 . S
O1086 Co1062 2.097 . S
O1086 C1114 1.214 . S
H1087 C1115 0.929 . S
H1088 C1116 0.929 . S
H1089 C1117 0.930 . S
H1090 C1118 0.929 . S
H1091 C1120 0.930 . S
H1092 C1097 0.930 . S
H1093 C1101 0.930 . S
O1094 Co1063 2.037 . S
O1094 C1114 1.234 . S
C1095 O1069 1.269 . S
C1095 O1070 1.257 . S
C1096 H1071 0.930 . S
C1096 C1099 1.388 . S
C1096 C1101 1.418 . S
C1097 H1092 0.930 . S
C1097 C1100 1.404 . S
C1097 C1101 1.353 . S
N1098 Co1063 2.145 . S
N1098 C1099 1.397 . S
N1098 C1100 1.334 . S
C1099 H1080 0.929 . S
C1099 C1096 1.388 . S
C1099 N1098 1.397 . S
C1100 H1081 0.929 . S
C1100 C1097 1.404 . S
C1100 N1098 1.334 . S
C1101 H1093 0.930 . S
C1101 C1096 1.418 . S
C1101 C1097 1.353 . S
C1102 H1072 0.930 . S
C1102 N1103 1.330 . S
C1102 C1104 1.446 . S
N1103 Co1062 2.151 . S
N1103 C1102 1.330 . S
N1103 C1107 1.418 . S
C1104 H1083 0.929 . S
C1104 C1102 1.446 . S
C1104 C1105 1.332 . S
C1105 H1085 0.931 . S
C1105 C1104 1.332 . S
C1105 C1106 1.267 . S
C1106 H1074 0.929 . S
C1106 C1105 1.267 . S
C1106 C1107 1.251 . S
C1107 H1077 0.929 . S
C1107 N1103 1.418 . S
C1107 C1106 1.251 . S
C1108 H1075 0.930 . S
C1108 C1110 1.406 . S
C1108 C1113 1.261 . S
C1109 H1076 0.930 . S
C1109 N1111 1.325 . S
C1109 C1112 1.357 . S
C1110 H1078 0.928 . S
C1110 C1108 1.406 . S
C1110 N1111 1.261 . S
N1111 Co1062 2.214 . S
N1111 C1109 1.325 . S
N1111 C1110 1.261 . S
C1112 H1082 0.931 . S
C1112 C1109 1.357 . S
C1112 C1113 1.312 . S
C1113 H1084 0.930 . S
C1113 C1108 1.261 . S
C1113 C1112 1.312 . S
C1114 O1086 1.214 . S
C1114 O1094 1.234 . S
C1115 H1087 0.929 . S
C1115 C1118 1.391 . S
C1115 C1120 1.391 . S
C1116 H1088 0.929 . S
C1116 C1117 1.390 . S
C1116 N1119 1.391 . S
C1117 H1089 0.930 . S
C1117 C1116 1.390 . S
C1117 C1118 1.392 . S
C1118 H1090 0.929 . S
C1118 C1115 1.391 . S
C1118 C1117 1.392 . S
N1119 Co1063 2.257 . S
N1119 C1116 1.391 . S
N1119 C1120 1.388 . S
C1120 H1091 0.930 . S
C1120 C1115 1.391 . S
C1120 N1119 1.388 . S
Co1121 O1123 2.143 1_545 S
Co1121 O1129 2.074 . S
Co1121 O1132 2.093 1_545 S
Co1121 O1145 2.097 . S
Co1121 N1162 2.151 1_545 S
Co1121 N1170 2.214 . S
Co1122 O1123 2.160 1_545 S
Co1122 O1128 2.058 . S
Co1122 O1138 2.057 1_545 S
Co1122 O1153 2.037 . S
Co1122 N1157 2.145 . S
Co1122 N1178 2.257 1_545 S
O1123 Co1121 2.143 1_565 S
O1123 Co1122 2.160 1_565 S
C1124 O1125 1.278 . S
C1124 O1132 1.224 . S
O1125 C1124 1.278 . S
C1126 O1127 1.245 . S
C1126 O1138 1.232 . S
O1127 C1126 1.245 . S
O1128 Co1122 2.058 . S
O1128 C1154 1.269 . S
O1129 Co1121 2.074 . S
O1129 C1154 1.257 . S
H1130 C1155 0.930 . S
H1131 C1161 0.930 . S
O1132 Co1121 2.093 1_565 S
O1132 C1124 1.224 . S
H1133 C1165 0.929 . S
H1134 C1167 0.930 . S
H1135 C1168 0.930 . S
H1136 C1166 0.929 . S
H1137 C1169 0.934 1_565 S
O1138 Co1122 2.057 1_565 S
O1138 C1126 1.232 . S
H1139 C1158 0.929 . S
H1140 C1159 0.929 . S
H1141 C1171 0.931 . S
H1142 C1163 0.929 . S
H1143 C1172 0.930 . S
H1144 C1164 0.931 . S
O1145 Co1121 2.097 . S
O1145 C1173 1.214 . S
H1146 C1174 0.929 . S
H1147 C1175 0.929 . S
H1148 C1176 0.930 . S
H1149 C1177 0.929 . S
H1150 C1179 0.930 . S
H1151 C1156 0.930 . S
H1152 C1160 0.930 . S
O1153 Co1122 2.037 . S
O1153 C1173 1.234 . S
C1154 O1128 1.269 . S
C1154 O1129 1.257 . S
C1155 H1130 0.930 . S
C1155 C1158 1.388 . S
C1155 C1160 1.418 . S
C1156 H1151 0.930 . S
C1156 C1159 1.404 . S
C1156 C1160 1.353 . S
N1157 Co1122 2.145 . S
N1157 C1158 1.397 . S
N1157 C1159 1.334 . S
C1158 H1139 0.929 . S
C1158 C1155 1.388 . S
C1158 N1157 1.397 . S
C1159 H1140 0.929 . S
C1159 C1156 1.404 . S
C1159 N1157 1.334 . S
C1160 H1152 0.930 . S
C1160 C1155 1.418 . S
C1160 C1156 1.353 . S
C1161 H1131 0.930 . S
C1161 N1162 1.330 . S
C1161 C1163 1.446 . S
N1162 Co1121 2.151 1_565 S
N1162 C1161 1.330 . S
N1162 C1166 1.418 1_565 S
C1163 H1142 0.929 . S
C1163 C1161 1.446 . S
C1163 C1164 1.332 . S
C1164 H1144 0.931 . S
C1164 C1163 1.332 . S
C1164 C1165 1.267 1_565 S
C1165 H1133 0.929 . S
C1165 C1164 1.267 1_545 S
C1165 C1166 1.251 . S
C1166 H1136 0.929 . S
C1166 N1162 1.418 1_545 S
C1166 C1165 1.251 . S
C1167 H1134 0.930 . S
C1167 C1169 1.406 . S
C1167 C1172 1.261 . S
C1168 H1135 0.930 . S
C1168 N1170 1.325 . S
C1168 C1171 1.357 . S
C1169 H1137 0.934 1_545 S
C1169 C1167 1.406 . S
C1169 N1170 1.261 . S
N1170 Co1121 2.214 . S
N1170 C1168 1.325 . S
N1170 C1169 1.261 . S
C1171 H1141 0.931 . S
C1171 C1168 1.357 . S
C1171 C1172 1.312 . S
C1172 H1143 0.930 . S
C1172 C1167 1.261 . S
C1172 C1171 1.312 . S
C1173 O1145 1.214 . S
C1173 O1153 1.234 . S
C1174 H1146 0.929 . S
C1174 C1177 1.391 . S
C1174 C1179 1.391 . S
C1175 H1147 0.929 . S
C1175 C1176 1.390 1_545 S
C1175 N1178 1.391 1_545 S
C1176 H1148 0.930 . S
C1176 C1175 1.390 1_565 S
C1176 C1177 1.392 . S
C1177 H1149 0.929 . S
C1177 C1174 1.391 . S
C1177 C1176 1.392 . S
N1178 Co1122 2.257 1_565 S
N1178 C1175 1.391 1_565 S
N1178 C1179 1.388 . S
C1179 H1150 0.930 . S
C1179 C1174 1.391 . S
C1179 N1178 1.388 . S
Co1180 O1182 2.143 1_554 S
Co1180 O1188 2.074 . S
Co1180 O1191 2.093 . S
Co1180 O1204 2.097 . S
Co1180 N1221 2.142 1_554 S
Co1180 N1229 2.214 . S
Co1181 O1182 2.160 1_554 S
Co1181 O1187 2.058 . S
Co1181 O1197 2.057 1_554 S
Co1181 O1212 2.037 . S
Co1181 N1216 2.145 . S
Co1181 N1237 2.257 1_554 S
O1182 Co1180 2.143 1_556 S
O1182 Co1181 2.160 1_556 S
C1183 O1184 1.278 . S
C1183 O1191 1.224 1_556 S
O1184 C1183 1.278 . S
C1185 O1186 1.245 . S
C1185 O1197 1.232 . S
O1186 C1185 1.245 . S
O1187 Co1181 2.058 . S
O1187 C1213 1.269 . S
O1188 Co1180 2.074 . S
O1188 C1213 1.257 . S
H1189 C1214 0.930 . S
H1190 C1220 0.930 . S
O1191 Co1180 2.093 . S
O1191 C1183 1.224 1_554 S
H1192 C1224 0.929 1_554 S
H1193 C1226 0.930 . S
H1194 C1227 0.930 . S
H1195 C1225 0.929 . S
H1196 C1228 0.928 . S
O1197 Co1181 2.057 1_556 S
O1197 C1185 1.232 . S
H1198 C1217 0.929 . S
H1199 C1218 0.929 1_556 S
H1200 C1230 0.931 . S
H1201 C1222 0.929 . S
H1202 C1231 0.930 . S
H1203 C1223 0.931 . S
O1204 Co1180 2.097 . S
O1204 C1232 1.214 . S
H1205 C1233 0.929 . S
H1206 C1234 0.929 . S
H1207 C1235 0.930 . S
H1208 C1236 0.929 . S
H1209 C1238 0.930 . S
H1210 C1215 0.895 1_556 S
H1211 C1219 0.930 . S
O1212 Co1181 2.037 . S
O1212 C1232 1.234 . S
C1213 O1187 1.269 . S
C1213 O1188 1.257 . S
C1214 H1189 0.930 . S
C1214 C1217 1.388 . S
C1214 C1219 1.418 . S
C1215 H1210 0.895 1_554 S
C1215 C1218 1.404 . S
C1215 C1219 1.353 . S
N1216 Co1181 2.145 . S
N1216 C1217 1.397 . S
N1216 C1218 1.334 . S
C1217 H1198 0.929 . S
C1217 C1214 1.388 . S
C1217 N1216 1.397 . S
C1218 H1199 0.929 1_554 S
C1218 C1215 1.404 . S
C1218 N1216 1.334 . S
C1219 H1211 0.930 . S
C1219 C1214 1.418 . S
C1219 C1215 1.353 . S
C1220 H1190 0.930 . S
C1220 N1221 1.343 . S
C1220 C1222 1.446 . S
N1221 Co1180 2.142 1_556 S
N1221 C1220 1.343 . S
N1221 C1225 1.413 1_556 S
C1222 H1201 0.929 . S
C1222 C1220 1.446 . S
C1222 C1223 1.332 . S
C1223 H1203 0.931 . S
C1223 C1222 1.332 . S
C1223 C1224 1.267 . S
C1224 H1192 0.929 1_556 S
C1224 C1223 1.267 . S
C1224 C1225 1.251 1_556 S
C1225 H1195 0.929 . S
C1225 N1221 1.413 1_554 S
C1225 C1224 1.251 1_554 S
C1226 H1193 0.930 . S
C1226 C1228 1.406 . S
C1226 C1231 1.261 . S
C1227 H1194 0.930 . S
C1227 N1229 1.325 . S
C1227 C1230 1.357 . S
C1228 H1196 0.928 . S
C1228 C1226 1.406 . S
C1228 N1229 1.261 . S
N1229 Co1180 2.214 . S
N1229 C1227 1.325 . S
N1229 C1228 1.261 . S
C1230 H1200 0.931 . S
C1230 C1227 1.357 . S
C1230 C1231 1.312 . S
C1231 H1202 0.930 . S
C1231 C1226 1.261 . S
C1231 C1230 1.312 . S
C1232 O1204 1.214 . S
C1232 O1212 1.234 . S
C1233 H1205 0.929 . S
C1233 C1236 1.391 . S
C1233 C1238 1.391 . S
C1234 H1206 0.929 . S
C1234 C1235 1.390 . S
C1234 N1237 1.391 1_554 S
C1235 H1207 0.930 . S
C1235 C1234 1.390 . S
C1235 C1236 1.392 1_554 S
C1236 H1208 0.929 . S
C1236 C1233 1.391 . S
C1236 C1235 1.392 1_556 S
N1237 Co1181 2.257 1_556 S
N1237 C1234 1.391 1_556 S
N1237 C1238 1.388 . S
C1238 H1209 0.930 . S
C1238 C1233 1.391 . S
C1238 N1237 1.388 . S
Co1239 O1241 2.143 . S
Co1239 O1247 2.074 . S
Co1239 O1250 2.093 . S
Co1239 O1263 2.097 . S
Co1239 N1280 2.151 . S
Co1239 N1288 2.214 . S
Co1240 O1241 2.160 . S
Co1240 O1246 2.058 . S
Co1240 O1256 2.057 . S
Co1240 O1271 2.037 . S
Co1240 N1275 2.145 . S
Co1240 N1296 2.257 . S
O1241 Co1239 2.143 . S
O1241 Co1240 2.160 . S
C1242 O1243 1.278 . S
C1242 O1250 1.224 . S
O1243 C1242 1.278 . S
C1244 O1245 1.245 . S
C1244 O1256 1.232 . S
O1245 C1244 1.245 . S
O1246 Co1240 2.058 . S
O1246 C1272 1.269 . S
O1247 Co1239 2.074 . S
O1247 C1272 1.257 . S
H1248 C1273 0.930 . S
H1249 C1279 0.930 . S
O1250 Co1239 2.093 . S
O1250 C1242 1.224 . S
H1251 C1283 0.929 . S
H1252 C1285 0.930 . S
H1253 C1286 0.930 . S
H1254 C1284 0.929 . S
H1255 C1287 0.928 . S
O1256 Co1240 2.057 . S
O1256 C1244 1.232 . S
H1257 C1276 0.929 . S
H1258 C1277 0.929 . S
H1259 C1289 0.931 . S
H1260 C1281 0.929 . S
H1261 C1290 0.930 . S
H1262 C1282 0.931 . S
O1263 Co1239 2.097 . S
O1263 C1291 1.214 . S
H1264 C1292 0.929 . S
H1265 C1293 0.929 . S
H1266 C1294 0.930 . S
H1267 C1295 0.929 . S
H1268 C1297 0.930 . S
H1269 C1274 0.930 . S
H1270 C1278 0.930 . S
O1271 Co1240 2.037 . S
O1271 C1291 1.234 . S
C1272 O1246 1.269 . S
C1272 O1247 1.257 . S
C1273 H1248 0.930 . S
C1273 C1276 1.388 . S
C1273 C1278 1.418 . S
C1274 H1269 0.930 . S
C1274 C1277 1.404 . S
C1274 C1278 1.353 . S
N1275 Co1240 2.145 . S
N1275 C1276 1.397 . S
N1275 C1277 1.334 . S
C1276 H1257 0.929 . S
C1276 C1273 1.388 . S
C1276 N1275 1.397 . S
C1277 H1258 0.929 . S
C1277 C1274 1.404 . S
C1277 N1275 1.334 . S
C1278 H1270 0.930 . S
C1278 C1273 1.418 . S
C1278 C1274 1.353 . S
C1279 H1249 0.930 . S
C1279 N1280 1.330 . S
C1279 C1281 1.446 . S
N1280 Co1239 2.151 . S
N1280 C1279 1.330 . S
N1280 C1284 1.418 . S
C1281 H1260 0.929 . S
C1281 C1279 1.446 . S
C1281 C1282 1.332 . S
C1282 H1262 0.931 . S
C1282 C1281 1.332 . S
C1282 C1283 1.267 . S
C1283 H1251 0.929 . S
C1283 C1282 1.267 . S
C1283 C1284 1.251 . S
C1284 H1254 0.929 . S
C1284 N1280 1.418 . S
C1284 C1283 1.251 . S
C1285 H1252 0.930 . S
C1285 C1287 1.406 . S
C1285 C1290 1.261 . S
C1286 H1253 0.930 . S
C1286 N1288 1.325 . S
C1286 C1289 1.357 . S
C1287 H1255 0.928 . S
C1287 C1285 1.406 . S
C1287 N1288 1.261 . S
N1288 Co1239 2.214 . S
N1288 C1286 1.325 . S
N1288 C1287 1.261 . S
C1289 H1259 0.931 . S
C1289 C1286 1.357 . S
C1289 C1290 1.312 . S
C1290 H1261 0.930 . S
C1290 C1285 1.261 . S
C1290 C1289 1.312 . S
C1291 O1263 1.214 . S
C1291 O1271 1.234 . S
C1292 H1264 0.929 . S
C1292 C1295 1.391 . S
C1292 C1297 1.391 . S
C1293 H1265 0.929 . S
C1293 C1294 1.390 . S
C1293 N1296 1.391 . S
C1294 H1266 0.930 . S
C1294 C1293 1.390 . S
C1294 C1295 1.392 . S
C1295 H1267 0.929 . S
C1295 C1292 1.391 . S
C1295 C1294 1.392 . S
N1296 Co1240 2.257 . S
N1296 C1293 1.391 . S
N1296 C1297 1.388 . S
C1297 H1268 0.930 . S
C1297 C1292 1.391 . S
C1297 N1296 1.388 . S
Co1298 O1300 2.143 . S
Co1298 O1306 2.074 . S
Co1298 O1309 2.093 . S
Co1298 O1322 2.097 . S
Co1298 N1339 2.151 . S
Co1298 N1347 2.214 . S
Co1299 O1300 2.160 . S
Co1299 O1305 2.058 . S
Co1299 O1315 2.057 . S
Co1299 O1330 2.037 . S
Co1299 N1334 2.145 . S
Co1299 N1355 2.257 . S
O1300 Co1298 2.143 . S
O1300 Co1299 2.160 . S
C1301 O1302 1.278 . S
C1301 O1309 1.224 . S
O1302 C1301 1.278 . S
C1303 O1304 1.245 . S
C1303 O1315 1.232 . S
O1304 C1303 1.245 . S
O1305 Co1299 2.058 . S
O1305 C1331 1.269 . S
O1306 Co1298 2.074 . S
O1306 C1331 1.257 . S
H1307 C1332 0.930 . S
H1308 C1338 0.930 . S
O1309 Co1298 2.093 . S
O1309 C1301 1.224 . S
H1310 C1342 0.929 . S
H1311 C1344 0.930 . S
H1312 C1345 0.930 . S
H1313 C1343 0.929 . S
H1314 C1346 0.928 . S
O1315 Co1299 2.057 . S
O1315 C1303 1.232 . S
H1316 C1335 0.929 . S
H1317 C1336 0.929 . S
H1318 C1348 0.931 . S
H1319 C1340 0.929 . S
H1320 C1349 0.930 . S
H1321 C1341 0.931 . S
O1322 Co1298 2.097 . S
O1322 C1350 1.214 . S
H1323 C1351 0.929 . S
H1324 C1352 0.929 . S
H1325 C1353 0.930 . S
H1326 C1354 0.929 . S
H1327 C1356 0.930 . S
H1328 C1333 0.930 . S
H1329 C1337 0.930 . S
O1330 Co1299 2.037 . S
O1330 C1350 1.234 . S
C1331 O1305 1.269 . S
C1331 O1306 1.257 . S
C1332 H1307 0.930 . S
C1332 C1335 1.388 . S
C1332 C1337 1.418 . S
C1333 H1328 0.930 . S
C1333 C1336 1.404 . S
C1333 C1337 1.353 . S
N1334 Co1299 2.145 . S
N1334 C1335 1.397 . S
N1334 C1336 1.334 . S
C1335 H1316 0.929 . S
C1335 C1332 1.388 . S
C1335 N1334 1.397 . S
C1336 H1317 0.929 . S
C1336 C1333 1.404 . S
C1336 N1334 1.334 . S
C1337 H1329 0.930 . S
C1337 C1332 1.418 . S
C1337 C1333 1.353 . S
C1338 H1308 0.930 . S
C1338 N1339 1.330 . S
C1338 C1340 1.446 . S
N1339 Co1298 2.151 . S
N1339 C1338 1.330 . S
N1339 C1343 1.418 . S
C1340 H1319 0.929 . S
C1340 C1338 1.446 . S
C1340 C1341 1.332 . S
C1341 H1321 0.931 . S
C1341 C1340 1.332 . S
C1341 C1342 1.267 . S
C1342 H1310 0.929 . S
C1342 C1341 1.267 . S
C1342 C1343 1.251 . S
C1343 H1313 0.929 . S
C1343 N1339 1.418 . S
C1343 C1342 1.251 . S
C1344 H1311 0.930 . S
C1344 C1346 1.406 . S
C1344 C1349 1.261 . S
C1345 H1312 0.930 . S
C1345 N1347 1.325 . S
C1345 C1348 1.357 . S
C1346 H1314 0.928 . S
C1346 C1344 1.406 . S
C1346 N1347 1.261 . S
N1347 Co1298 2.214 . S
N1347 C1345 1.325 . S
N1347 C1346 1.261 . S
C1348 H1318 0.931 . S
C1348 C1345 1.357 . S
C1348 C1349 1.312 . S
C1349 H1320 0.930 . S
C1349 C1344 1.261 . S
C1349 C1348 1.312 . S
C1350 O1322 1.214 . S
C1350 O1330 1.234 . S
C1351 H1323 0.929 . S
C1351 C1354 1.391 . S
C1351 C1356 1.391 . S
C1352 H1324 0.929 . S
C1352 C1353 1.390 . S
C1352 N1355 1.391 . S
C1353 H1325 0.930 . S
C1353 C1352 1.390 . S
C1353 C1354 1.392 . S
C1354 H1326 0.929 . S
C1354 C1351 1.391 . S
C1354 C1353 1.392 . S
N1355 Co1299 2.257 . S
N1355 C1352 1.391 . S
N1355 C1356 1.388 . S
C1356 H1327 0.930 . S
C1356 C1351 1.391 . S
C1356 N1355 1.388 . S
Co1357 O1359 2.143 . S
Co1357 O1365 2.074 . S
Co1357 O1368 2.093 . S
Co1357 O1381 2.097 . S
Co1357 N1398 2.151 . S
Co1357 N1406 2.214 . S
Co1358 O1359 2.160 . S
Co1358 O1364 2.058 . S
Co1358 O1374 2.057 . S
Co1358 O1389 2.037 . S
Co1358 N1393 2.145 . S
Co1358 N1414 2.257 . S
O1359 Co1357 2.143 . S
O1359 Co1358 2.160 . S
C1360 O1361 1.278 . S
C1360 O1368 1.224 . S
O1361 C1360 1.278 . S
C1362 O1363 1.245 . S
C1362 O1374 1.232 . S
O1363 C1362 1.245 . S
O1364 Co1358 2.058 . S
O1364 C1390 1.269 . S
O1365 Co1357 2.074 . S
O1365 C1390 1.257 . S
H1366 C1391 0.930 . S
H1367 C1397 0.930 . S
O1368 Co1357 2.093 . S
O1368 C1360 1.224 . S
H1369 C1401 0.929 . S
H1370 C1403 0.930 . S
H1371 C1404 0.930 . S
H1372 C1402 0.929 . S
H1373 C1405 0.928 . S
O1374 Co1358 2.057 . S
O1374 C1362 1.232 . S
H1375 C1394 0.929 . S
H1376 C1395 0.929 . S
H1377 C1407 0.931 . S
H1378 C1399 0.929 . S
H1379 C1408 0.930 . S
H1380 C1400 0.931 . S
O1381 Co1357 2.097 . S
O1381 C1409 1.214 . S
H1382 C1410 0.929 . S
H1383 C1411 0.929 . S
H1384 C1412 0.930 . S
H1385 C1413 0.929 . S
H1386 C1415 0.930 . S
H1387 C1392 0.930 . S
H1388 C1396 0.930 . S
O1389 Co1358 2.037 . S
O1389 C1409 1.234 . S
C1390 O1364 1.269 . S
C1390 O1365 1.257 . S
C1391 H1366 0.930 . S
C1391 C1394 1.388 . S
C1391 C1396 1.418 . S
C1392 H1387 0.930 . S
C1392 C1395 1.404 . S
C1392 C1396 1.353 . S
N1393 Co1358 2.145 . S
N1393 C1394 1.397 . S
N1393 C1395 1.334 . S
C1394 H1375 0.929 . S
C1394 C1391 1.388 . S
C1394 N1393 1.397 . S
C1395 H1376 0.929 . S
C1395 C1392 1.404 . S
C1395 N1393 1.334 . S
C1396 H1388 0.930 . S
C1396 C1391 1.418 . S
C1396 C1392 1.353 . S
C1397 H1367 0.930 . S
C1397 N1398 1.330 . S
C1397 C1399 1.446 . S
N1398 Co1357 2.151 . S
N1398 C1397 1.330 . S
N1398 C1402 1.418 . S
C1399 H1378 0.929 . S
C1399 C1397 1.446 . S
C1399 C1400 1.332 . S
C1400 H1380 0.931 . S
C1400 C1399 1.332 . S
C1400 C1401 1.267 . S
C1401 H1369 0.929 . S
C1401 C1400 1.267 . S
C1401 C1402 1.251 . S
C1402 H1372 0.929 . S
C1402 N1398 1.418 . S
C1402 C1401 1.251 . S
C1403 H1370 0.930 . S
C1403 C1405 1.406 . S
C1403 C1408 1.261 . S
C1404 H1371 0.930 . S
C1404 N1406 1.325 . S
C1404 C1407 1.357 . S
C1405 H1373 0.928 . S
C1405 C1403 1.406 . S
C1405 N1406 1.261 . S
N1406 Co1357 2.214 . S
N1406 C1404 1.325 . S
N1406 C1405 1.261 . S
C1407 H1377 0.931 . S
C1407 C1404 1.357 . S
C1407 C1408 1.312 . S
C1408 H1379 0.930 . S
C1408 C1403 1.261 . S
C1408 C1407 1.312 . S
C1409 O1381 1.214 . S
C1409 O1389 1.234 . S
C1410 H1382 0.929 . S
C1410 C1413 1.391 . S
C1410 C1415 1.391 . S
C1411 H1383 0.929 . S
C1411 C1412 1.390 . S
C1411 N1414 1.391 . S
C1412 H1384 0.930 . S
C1412 C1411 1.390 . S
C1412 C1413 1.392 . S
C1413 H1385 0.929 . S
C1413 C1410 1.391 . S
C1413 C1412 1.392 . S
N1414 Co1358 2.257 . S
N1414 C1411 1.391 . S
N1414 C1415 1.388 . S
C1415 H1386 0.930 . S
C1415 C1410 1.391 . S
C1415 N1414 1.388 . S
C1416 C1417 1.349 . S
C1416 C1418 1.327 . S
C1416 H1441 0.950 . S
C1417 C1416 1.349 . S
C1417 C1433 1.349 . S
C1418 C1416 1.327 . S
C1418 C1437 1.429 . S
C1418 H1442 0.950 . S
C1419 C1436 1.574 . S
C1419 C1438 1.368 . S
C1419 H1443 0.949 . S
H1420 C1424 0.949 . S
C1421 C1422 1.349 . S
C1421 C1423 1.327 . S
C1421 H1444 0.950 . S
C1422 C1421 1.349 . S
C1422 C1434 1.349 . S
C1423 C1421 1.327 . S
C1423 C1439 1.429 . S
C1423 H1445 0.950 . S
C1424 H1420 0.949 . S
C1424 C1432 1.574 . S
C1424 C1440 1.368 . S
H1425 C1433 0.950 . S
H1426 C1431 0.950 . S
H1427 C1432 0.949 . S
H1428 C1434 0.950 . S
H1429 C1435 0.950 . S
H1430 C1436 0.949 . S
C1431 H1426 0.950 . S
C1431 C1433 1.327 . S
C1431 C1437 1.429 . S
C1432 C1424 1.574 . S
C1432 H1427 0.949 . S
C1432 C1438 1.368 . S
C1433 C1417 1.349 . S
C1433 H1425 0.950 . S
C1433 C1431 1.327 . S
C1434 C1422 1.349 . S
C1434 H1428 0.950 . S
C1434 C1435 1.327 . S
C1435 H1429 0.950 . S
C1435 C1434 1.327 . S
C1435 C1439 1.429 . S
C1436 C1419 1.574 . S
C1436 H1430 0.949 . S
C1436 C1440 1.368 . S
C1437 C1418 1.429 . S
C1437 C1431 1.429 . S
C1437 C1438 1.523 . S
C1438 C1419 1.368 . S
C1438 C1432 1.368 . S
C1438 C1437 1.523 . S
C1439 C1423 1.429 . S
C1439 C1435 1.429 . S
C1439 C1440 1.523 . S
C1440 C1424 1.368 . S
C1440 C1436 1.368 . S
C1440 C1439 1.523 . S
H1441 C1416 0.950 . S
H1442 C1418 0.950 . S
H1443 C1419 0.949 . S
H1444 C1421 0.950 . S
H1445 C1423 0.950 . S
C1446 C1447 1.349 . S
C1446 C1448 1.327 . S
C1446 H1471 0.950 . S
C1447 C1446 1.349 . S
C1447 C1463 1.349 . S
C1448 C1446 1.327 . S
C1448 C1467 1.429 . S
C1448 H1472 0.950 . S
C1449 C1466 1.574 . S
C1449 C1468 1.368 . S
C1449 H1473 0.949 . S
H1450 C1454 0.949 . S
C1451 C1452 1.349 . S
C1451 C1453 1.327 . S
C1451 H1474 0.950 . S
C1452 C1451 1.349 . S
C1452 C1464 1.349 . S
C1453 C1451 1.327 . S
C1453 C1469 1.429 . S
C1453 H1475 0.950 . S
C1454 H1450 0.949 . S
C1454 C1462 1.574 . S
C1454 C1470 1.368 . S
H1455 C1463 0.950 . S
H1456 C1461 0.950 . S
H1457 C1462 0.949 . S
H1458 C1464 0.950 . S
H1459 C1465 0.950 . S
H1460 C1466 0.949 . S
C1461 H1456 0.950 . S
C1461 C1463 1.327 . S
C1461 C1467 1.429 . S
C1462 C1454 1.574 . S
C1462 H1457 0.949 . S
C1462 C1468 1.368 . S
C1463 C1447 1.349 . S
C1463 H1455 0.950 . S
C1463 C1461 1.327 . S
C1464 C1452 1.349 . S
C1464 H1458 0.950 . S
C1464 C1465 1.327 . S
C1465 H1459 0.950 . S
C1465 C1464 1.327 . S
C1465 C1469 1.429 . S
C1466 C1449 1.574 . S
C1466 H1460 0.949 . S
C1466 C1470 1.368 . S
C1467 C1448 1.429 . S
C1467 C1461 1.429 . S
C1467 C1468 1.523 . S
C1468 C1449 1.368 . S
C1468 C1462 1.368 . S
C1468 C1467 1.523 . S
C1469 C1453 1.429 . S
C1469 C1465 1.429 . S
C1469 C1470 1.523 . S
C1470 C1454 1.368 . S
C1470 C1466 1.368 . S
C1470 C1469 1.523 . S
H1471 C1446 0.950 . S
H1472 C1448 0.950 . S
H1473 C1449 0.949 . S
H1474 C1451 0.950 . S
H1475 C1453 0.950 . S
C1476 C1477 1.349 . S
C1476 C1478 1.327 . S
C1476 H1501 0.950 . S
C1477 C1476 1.349 . S
C1477 C1493 1.349 . S
C1478 C1476 1.327 . S
C1478 C1497 1.429 . S
C1478 H1502 0.950 . S
C1479 C1496 1.574 . S
C1479 C1498 1.368 . S
C1479 H1503 0.949 . S
H1480 C1484 0.949 . S
C1481 C1482 1.349 . S
C1481 C1483 1.327 . S
C1481 H1504 0.950 . S
C1482 C1481 1.349 . S
C1482 C1494 1.349 . S
C1483 C1481 1.327 . S
C1483 C1499 1.429 . S
C1483 H1505 0.950 . S
C1484 H1480 0.949 . S
C1484 C1492 1.574 . S
C1484 C1500 1.368 . S
H1485 C1493 0.950 . S
H1486 C1491 0.950 . S
H1487 C1492 0.949 . S
H1488 C1494 0.950 . S
H1489 C1495 0.950 . S
H1490 C1496 0.949 . S
C1491 H1486 0.950 . S
C1491 C1493 1.327 . S
C1491 C1497 1.429 . S
C1492 C1484 1.574 . S
C1492 H1487 0.949 . S
C1492 C1498 1.368 . S
C1493 C1477 1.349 . S
C1493 H1485 0.950 . S
C1493 C1491 1.327 . S
C1494 C1482 1.349 . S
C1494 H1488 0.950 . S
C1494 C1495 1.327 . S
C1495 H1489 0.950 . S
C1495 C1494 1.327 . S
C1495 C1499 1.429 . S
C1496 C1479 1.574 . S
C1496 H1490 0.949 . S
C1496 C1500 1.368 . S
C1497 C1478 1.429 . S
C1497 C1491 1.429 . S
C1497 C1498 1.523 . S
C1498 C1479 1.368 . S
C1498 C1492 1.368 . S
C1498 C1497 1.523 . S
C1499 C1483 1.429 . S
C1499 C1495 1.429 . S
C1499 C1500 1.523 . S
C1500 C1484 1.368 . S
C1500 C1496 1.368 . S
C1500 C1499 1.523 . S
H1501 C1476 0.950 . S
H1502 C1478 0.950 . S
H1503 C1479 0.949 . S
H1504 C1481 0.950 . S
H1505 C1483 0.950 . S
C1506 C1507 1.349 . S
C1506 C1508 1.327 . S
C1506 H1531 0.950 . S
C1507 C1506 1.349 . S
C1507 C1523 1.349 . S
C1508 C1506 1.327 . S
C1508 C1527 1.429 . S
C1508 H1532 0.950 . S
C1509 C1526 1.574 . S
C1509 C1528 1.368 . S
C1509 H1533 0.949 . S
H1510 C1514 0.949 . S
C1511 C1512 1.349 . S
C1511 C1513 1.327 . S
C1511 H1534 0.950 . S
C1512 C1511 1.349 . S
C1512 C1524 1.349 . S
C1513 C1511 1.327 . S
C1513 C1529 1.429 . S
C1513 H1535 0.950 . S
C1514 H1510 0.949 . S
C1514 C1522 1.574 . S
C1514 C1530 1.368 . S
H1515 C1523 0.950 . S
H1516 C1521 0.950 . S
H1517 C1522 0.949 . S
H1518 C1524 0.950 . S
H1519 C1525 0.950 . S
H1520 C1526 0.949 . S
C1521 H1516 0.950 . S
C1521 C1523 1.327 . S
C1521 C1527 1.429 . S
C1522 C1514 1.574 . S
C1522 H1517 0.949 . S
C1522 C1528 1.368 . S
C1523 C1507 1.349 . S
C1523 H1515 0.950 . S
C1523 C1521 1.327 . S
C1524 C1512 1.349 . S
C1524 H1518 0.950 . S
C1524 C1525 1.327 . S
C1525 H1519 0.950 . S
C1525 C1524 1.327 . S
C1525 C1529 1.429 . S
C1526 C1509 1.574 . S
C1526 H1520 0.949 . S
C1526 C1530 1.368 . S
C1527 C1508 1.429 . S
C1527 C1521 1.429 . S
C1527 C1528 1.523 . S
C1528 C1509 1.368 . S
C1528 C1522 1.368 . S
C1528 C1527 1.523 . S
C1529 C1513 1.429 . S
C1529 C1525 1.429 . S
C1529 C1530 1.523 . S
C1530 C1514 1.368 . S
C1530 C1526 1.368 . S
C1530 C1529 1.523 . S
H1531 C1506 0.950 . S
H1532 C1508 0.950 . S
H1533 C1509 0.949 . S
H1534 C1511 0.950 . S
H1535 C1513 0.950 . S
C1536 C1537 1.349 . S
C1536 C1538 1.327 . S
C1536 H1561 0.950 . S
C1537 C1536 1.349 . S
C1537 C1553 1.349 . S
C1538 C1536 1.327 . S
C1538 C1557 1.429 . S
C1538 H1562 0.950 . S
C1539 C1556 1.574 . S
C1539 C1558 1.368 . S
C1539 H1563 0.949 . S
H1540 C1544 0.949 . S
C1541 C1542 1.349 . S
C1541 C1543 1.327 . S
C1541 H1564 0.950 . S
C1542 C1541 1.349 . S
C1542 C1554 1.349 . S
C1543 C1541 1.327 . S
C1543 C1559 1.429 . S
C1543 H1565 0.950 . S
C1544 H1540 0.949 . S
C1544 C1552 1.574 . S
C1544 C1560 1.368 . S
H1545 C1553 0.950 . S
H1546 C1551 0.950 . S
H1547 C1552 0.949 . S
H1548 C1554 0.950 . S
H1549 C1555 0.950 . S
H1550 C1556 0.949 . S
C1551 H1546 0.950 . S
C1551 C1553 1.327 . S
C1551 C1557 1.429 . S
C1552 C1544 1.574 . S
C1552 H1547 0.949 . S
C1552 C1558 1.368 . S
C1553 C1537 1.349 . S
C1553 H1545 0.950 . S
C1553 C1551 1.327 . S
C1554 C1542 1.349 . S
C1554 H1548 0.950 . S
C1554 C1555 1.327 . S
C1555 H1549 0.950 . S
C1555 C1554 1.327 . S
C1555 C1559 1.429 . S
C1556 C1539 1.574 . S
C1556 H1550 0.949 . S
C1556 C1560 1.368 . S
C1557 C1538 1.429 . S
C1557 C1551 1.429 . S
C1557 C1558 1.523 . S
C1558 C1539 1.368 . S
C1558 C1552 1.368 . S
C1558 C1557 1.523 . S
C1559 C1543 1.429 . S
C1559 C1555 1.429 . S
C1559 C1560 1.523 . S
C1560 C1544 1.368 . S
C1560 C1556 1.368 . S
C1560 C1559 1.523 . S
H1561 C1536 0.950 . S
H1562 C1538 0.950 . S
H1563 C1539 0.949 . S
H1564 C1541 0.950 . S
H1565 C1543 0.950 . S
C1566 C1567 1.349 . S
C1566 C1568 1.327 . S
C1566 H1591 0.950 . S
C1567 C1566 1.349 . S
C1567 C1583 1.349 . S
C1568 C1566 1.327 . S
C1568 C1587 1.429 . S
C1568 H1592 0.950 . S
C1569 C1586 1.574 . S
C1569 C1588 1.368 . S
C1569 H1593 0.949 . S
H1570 C1574 0.949 . S
C1571 C1572 1.349 . S
C1571 C1573 1.327 . S
C1571 H1594 0.950 . S
C1572 C1571 1.349 . S
C1572 C1584 1.349 . S
C1573 C1571 1.327 . S
C1573 C1589 1.429 . S
C1573 H1595 0.950 . S
C1574 H1570 0.949 . S
C1574 C1582 1.574 . S
C1574 C1590 1.368 . S
H1575 C1583 0.950 . S
H1576 C1581 0.950 . S
H1577 C1582 0.949 . S
H1578 C1584 0.950 . S
H1579 C1585 0.950 . S
H1580 C1586 0.949 . S
C1581 H1576 0.950 . S
C1581 C1583 1.327 . S
C1581 C1587 1.429 . S
C1582 C1574 1.574 . S
C1582 H1577 0.949 . S
C1582 C1588 1.368 . S
C1583 C1567 1.349 . S
C1583 H1575 0.950 . S
C1583 C1581 1.327 . S
C1584 C1572 1.349 . S
C1584 H1578 0.950 . S
C1584 C1585 1.327 . S
C1585 H1579 0.950 . S
C1585 C1584 1.327 . S
C1585 C1589 1.429 . S
C1586 C1569 1.574 . S
C1586 H1580 0.949 . S
C1586 C1590 1.368 . S
C1587 C1568 1.429 . S
C1587 C1581 1.429 . S
C1587 C1588 1.523 . S
C1588 C1569 1.368 . S
C1588 C1582 1.368 . S
C1588 C1587 1.523 . S
C1589 C1573 1.429 . S
C1589 C1585 1.429 . S
C1589 C1590 1.523 . S
C1590 C1574 1.368 . S
C1590 C1586 1.368 . S
C1590 C1589 1.523 . S
H1591 C1566 0.950 . S
H1592 C1568 0.950 . S
H1593 C1569 0.949 . S
H1594 C1571 0.950 . S
H1595 C1573 0.950 . S
C1596 C1597 1.349 . S
C1596 C1598 1.327 . S
C1596 H1621 0.950 . S
C1597 C1596 1.349 . S
C1597 C1613 1.349 . S
C1598 C1596 1.327 . S
C1598 C1617 1.429 . S
C1598 H1622 0.950 . S
C1599 C1616 1.574 . S
C1599 C1618 1.368 . S
C1599 H1623 0.949 . S
H1600 C1604 0.949 . S
C1601 C1602 1.349 . S
C1601 C1603 1.327 . S
C1601 H1624 0.950 . S
C1602 C1601 1.349 . S
C1602 C1614 1.349 . S
C1603 C1601 1.327 . S
C1603 C1619 1.429 . S
C1603 H1625 0.950 . S
C1604 H1600 0.949 . S
C1604 C1612 1.574 . S
C1604 C1620 1.368 . S
H1605 C1613 0.950 . S
H1606 C1611 0.950 . S
H1607 C1612 0.949 . S
H1608 C1614 0.950 . S
H1609 C1615 0.950 . S
H1610 C1616 0.949 . S
C1611 H1606 0.950 . S
C1611 C1613 1.327 . S
C1611 C1617 1.429 . S
C1612 C1604 1.574 . S
C1612 H1607 0.949 . S
C1612 C1618 1.368 . S
C1613 C1597 1.349 . S
C1613 H1605 0.950 . S
C1613 C1611 1.327 . S
C1614 C1602 1.349 . S
C1614 H1608 0.950 . S
C1614 C1615 1.327 . S
C1615 H1609 0.950 . S
C1615 C1614 1.327 . S
C1615 C1619 1.429 . S
C1616 C1599 1.574 . S
C1616 H1610 0.949 . S
C1616 C1620 1.368 . S
C1617 C1598 1.429 . S
C1617 C1611 1.429 . S
C1617 C1618 1.523 . S
C1618 C1599 1.368 . S
C1618 C1612 1.368 . S
C1618 C1617 1.523 . S
C1619 C1603 1.429 . S
C1619 C1615 1.429 . S
C1619 C1620 1.523 . S
C1620 C1604 1.368 . S
C1620 C1616 1.368 . S
C1620 C1619 1.523 . S
H1621 C1596 0.950 . S
H1622 C1598 0.950 . S
H1623 C1599 0.949 . S
H1624 C1601 0.950 . S
H1625 C1603 0.950 . S
C1626 C1627 1.349 . S
C1626 C1628 1.327 . S
C1626 H1651 0.950 . S
C1627 C1626 1.349 . S
C1627 C1643 1.349 . S
C1628 C1626 1.327 . S
C1628 C1647 1.429 . S
C1628 H1652 0.950 . S
C1629 C1646 1.574 . S
C1629 C1648 1.368 . S
C1629 H1653 0.949 . S
H1630 C1634 0.949 . S
C1631 C1632 1.349 . S
C1631 C1633 1.327 . S
C1631 H1654 0.950 . S
C1632 C1631 1.349 . S
C1632 C1644 1.349 . S
C1633 C1631 1.327 . S
C1633 C1649 1.429 . S
C1633 H1655 0.950 . S
C1634 H1630 0.949 . S
C1634 C1642 1.574 . S
C1634 C1650 1.368 . S
H1635 C1643 0.950 . S
H1636 C1641 0.950 . S
H1637 C1642 0.949 . S
H1638 C1644 0.950 . S
H1639 C1645 0.950 . S
H1640 C1646 0.949 . S
C1641 H1636 0.950 . S
C1641 C1643 1.327 . S
C1641 C1647 1.429 . S
C1642 C1634 1.574 . S
C1642 H1637 0.949 . S
C1642 C1648 1.368 . S
C1643 C1627 1.349 . S
C1643 H1635 0.950 . S
C1643 C1641 1.327 . S
C1644 C1632 1.349 . S
C1644 H1638 0.950 . S
C1644 C1645 1.327 . S
C1645 H1639 0.950 . S
C1645 C1644 1.327 . S
C1645 C1649 1.429 . S
C1646 C1629 1.574 . S
C1646 H1640 0.949 . S
C1646 C1650 1.368 . S
C1647 C1628 1.429 . S
C1647 C1641 1.429 . S
C1647 C1648 1.523 . S
C1648 C1629 1.368 . S
C1648 C1642 1.368 . S
C1648 C1647 1.523 . S
C1649 C1633 1.429 . S
C1649 C1645 1.429 . S
C1649 C1650 1.523 . S
C1650 C1634 1.368 . S
C1650 C1646 1.368 . S
C1650 C1649 1.523 . S
H1651 C1626 0.950 . S
H1652 C1628 0.950 . S
H1653 C1629 0.949 . S
H1654 C1631 0.950 . S
H1655 C1633 0.950 . S
C1656 C1657 1.349 . S
C1656 C1658 1.327 . S
C1656 H1681 0.950 . S
C1657 C1656 1.349 . S
C1657 C1673 1.349 . S
C1658 C1656 1.327 . S
C1658 C1677 1.429 . S
C1658 H1682 0.950 . S
C1659 C1676 1.574 . S
C1659 C1678 1.368 . S
C1659 H1683 0.949 . S
H1660 C1664 0.949 . S
C1661 C1662 1.349 . S
C1661 C1663 1.327 . S
C1661 H1684 0.950 . S
C1662 C1661 1.349 . S
C1662 C1674 1.349 . S
C1663 C1661 1.327 . S
C1663 C1679 1.429 . S
C1663 H1685 0.950 . S
C1664 H1660 0.949 . S
C1664 C1672 1.574 . S
C1664 C1680 1.368 . S
H1665 C1673 0.950 . S
H1666 C1671 0.950 . S
H1667 C1672 0.949 . S
H1668 C1674 0.950 . S
H1669 C1675 0.950 . S
H1670 C1676 0.949 . S
C1671 H1666 0.950 . S
C1671 C1673 1.327 . S
C1671 C1677 1.429 . S
C1672 C1664 1.574 . S
C1672 H1667 0.949 . S
C1672 C1678 1.368 . S
C1673 C1657 1.349 . S
C1673 H1665 0.950 . S
C1673 C1671 1.327 . S
C1674 C1662 1.349 . S
C1674 H1668 0.950 . S
C1674 C1675 1.327 . S
C1675 H1669 0.950 . S
C1675 C1674 1.327 . S
C1675 C1679 1.429 . S
C1676 C1659 1.574 . S
C1676 H1670 0.949 . S
C1676 C1680 1.368 . S
C1677 C1658 1.429 . S
C1677 C1671 1.429 . S
C1677 C1678 1.523 . S
C1678 C1659 1.368 . S
C1678 C1672 1.368 . S
C1678 C1677 1.523 . S
C1679 C1663 1.429 . S
C1679 C1675 1.429 . S
C1679 C1680 1.523 . S
C1680 C1664 1.368 . S
C1680 C1676 1.368 . S
C1680 C1679 1.523 . S
H1681 C1656 0.950 . S
H1682 C1658 0.950 . S
H1683 C1659 0.949 . S
H1684 C1661 0.950 . S
H1685 C1663 0.950 . S
C1686 C1687 1.349 . S
C1686 C1688 1.327 . S
C1686 H1711 0.950 . S
C1687 C1686 1.349 . S
C1687 C1703 1.349 . S
C1688 C1686 1.327 . S
C1688 C1707 1.429 . S
C1688 H1712 0.950 . S
C1689 C1706 1.574 . S
C1689 C1708 1.368 . S
C1689 H1713 0.949 . S
H1690 C1694 0.949 . S
C1691 C1692 1.349 . S
C1691 C1693 1.327 . S
C1691 H1714 0.950 . S
C1692 C1691 1.349 . S
C1692 C1704 1.349 . S
C1693 C1691 1.327 . S
C1693 C1709 1.429 . S
C1693 H1715 0.950 . S
C1694 H1690 0.949 . S
C1694 C1702 1.574 . S
C1694 C1710 1.368 . S
H1695 C1703 0.950 . S
H1696 C1701 0.950 . S
H1697 C1702 0.949 . S
H1698 C1704 0.950 . S
H1699 C1705 0.950 . S
H1700 C1706 0.949 . S
C1701 H1696 0.950 . S
C1701 C1703 1.327 . S
C1701 C1707 1.429 . S
C1702 C1694 1.574 . S
C1702 H1697 0.949 . S
C1702 C1708 1.368 . S
C1703 C1687 1.349 . S
C1703 H1695 0.950 . S
C1703 C1701 1.327 . S
C1704 C1692 1.349 . S
C1704 H1698 0.950 . S
C1704 C1705 1.327 . S
C1705 H1699 0.950 . S
C1705 C1704 1.327 . S
C1705 C1709 1.429 . S
C1706 C1689 1.574 . S
C1706 H1700 0.949 . S
C1706 C1710 1.368 . S
C1707 C1688 1.429 . S
C1707 C1701 1.429 . S
C1707 C1708 1.523 . S
C1708 C1689 1.368 . S
C1708 C1702 1.368 . S
C1708 C1707 1.523 . S
C1709 C1693 1.429 . S
C1709 C1705 1.429 . S
C1709 C1710 1.523 . S
C1710 C1694 1.368 . S
C1710 C1706 1.368 . S
C1710 C1709 1.523 . S
H1711 C1686 0.950 . S
H1712 C1688 0.950 . S
H1713 C1689 0.949 . S
H1714 C1691 0.950 . S
H1715 C1693 0.950 . S
C1716 C1717 1.349 . S
C1716 C1718 1.327 . S
C1716 H1741 0.950 1_565 S
C1717 C1716 1.349 . S
C1717 C1733 1.349 . S
C1718 C1716 1.327 . S
C1718 C1737 1.429 . S
C1718 H1742 0.950 . S
C1719 C1736 1.574 . S
C1719 C1738 1.368 . S
C1719 H1743 0.949 . S
H1720 C1724 0.949 . S
C1721 C1722 1.349 . S
C1721 C1723 1.327 . S
C1721 H1744 0.950 . S
C1722 C1721 1.349 . S
C1722 C1734 1.349 . S
C1723 C1721 1.327 . S
C1723 C1739 1.429 . S
C1723 H1745 0.950 . S
C1724 H1720 0.949 . S
C1724 C1732 1.574 . S
C1724 C1740 1.368 . S
H1725 C1733 0.950 . S
H1726 C1731 0.950 . S
H1727 C1732 0.949 . S
H1728 C1734 0.950 . S
H1729 C1735 0.950 . S
H1730 C1736 0.949 . S
C1731 H1726 0.950 . S
C1731 C1733 1.327 . S
C1731 C1737 1.429 . S
C1732 C1724 1.574 . S
C1732 H1727 0.949 . S
C1732 C1738 1.368 . S
C1733 C1717 1.349 . S
C1733 H1725 0.950 . S
C1733 C1731 1.327 . S
C1734 C1722 1.349 . S
C1734 H1728 0.950 . S
C1734 C1735 1.327 . S
C1735 H1729 0.950 . S
C1735 C1734 1.327 . S
C1735 C1739 1.429 . S
C1736 C1719 1.574 . S
C1736 H1730 0.949 . S
C1736 C1740 1.368 . S
C1737 C1718 1.429 . S
C1737 C1731 1.429 . S
C1737 C1738 1.523 . S
C1738 C1719 1.368 . S
C1738 C1732 1.368 . S
C1738 C1737 1.523 . S
C1739 C1723 1.429 . S
C1739 C1735 1.429 . S
C1739 C1740 1.523 . S
C1740 C1724 1.368 . S
C1740 C1736 1.368 . S
C1740 C1739 1.523 . S
H1741 C1716 0.950 1_545 S
H1742 C1718 0.950 . S
H1743 C1719 0.949 . S
H1744 C1721 0.950 . S
H1745 C1723 0.950 . S
C1746 C1747 1.349 . S
C1746 C1748 1.327 . S
C1746 H1771 0.950 . S
C1747 C1746 1.349 . S
C1747 C1763 1.349 . S
C1748 C1746 1.327 . S
C1748 C1767 1.429 . S
C1748 H1772 0.950 . S
C1749 C1766 1.574 . S
C1749 C1768 1.368 . S
C1749 H1773 0.949 . S
H1750 C1754 0.949 . S
C1751 C1752 1.349 . S
C1751 C1753 1.327 . S
C1751 H1774 0.950 . S
C1752 C1751 1.349 . S
C1752 C1764 1.349 . S
C1753 C1751 1.327 . S
C1753 C1769 1.429 . S
C1753 H1775 0.950 . S
C1754 H1750 0.949 . S
C1754 C1762 1.574 . S
C1754 C1770 1.368 . S
H1755 C1763 0.950 . S
H1756 C1761 0.950 . S
H1757 C1762 0.949 . S
H1758 C1764 0.950 . S
H1759 C1765 0.950 . S
H1760 C1766 0.949 . S
C1761 H1756 0.950 . S
C1761 C1763 1.327 . S
C1761 C1767 1.429 . S
C1762 C1754 1.574 . S
C1762 H1757 0.949 . S
C1762 C1768 1.368 . S
C1763 C1747 1.349 . S
C1763 H1755 0.950 . S
C1763 C1761 1.327 . S
C1764 C1752 1.349 . S
C1764 H1758 0.950 . S
C1764 C1765 1.327 . S
C1765 H1759 0.950 . S
C1765 C1764 1.327 . S
C1765 C1769 1.429 . S
C1766 C1749 1.574 . S
C1766 H1760 0.949 . S
C1766 C1770 1.368 . S
C1767 C1748 1.429 . S
C1767 C1761 1.429 . S
C1767 C1768 1.523 . S
C1768 C1749 1.368 . S
C1768 C1762 1.368 . S
C1768 C1767 1.523 . S
C1769 C1753 1.429 . S
C1769 C1765 1.429 . S
C1769 C1770 1.523 . S
C1770 C1754 1.368 . S
C1770 C1766 1.368 . S
C1770 C1769 1.523 . S
H1771 C1746 0.950 . S
H1772 C1748 0.950 . S
H1773 C1749 0.949 . S
H1774 C1751 0.950 . S
H1775 C1753 0.950 . S
C1776 C1777 1.349 . S
C1776 C1778 1.327 . S
C1776 H1801 0.950 . S
C1777 C1776 1.349 . S
C1777 C1793 1.349 . S
C1778 C1776 1.327 . S
C1778 C1797 1.429 . S
C1778 H1802 0.950 . S
C1779 C1796 1.574 . S
C1779 C1798 1.368 . S
C1779 H1803 0.949 . S
H1780 C1784 0.949 . S
C1781 C1782 1.349 . S
C1781 C1783 1.327 . S
C1781 H1804 0.950 . S
C1782 C1781 1.349 . S
C1782 C1794 1.349 . S
C1783 C1781 1.327 . S
C1783 C1799 1.429 . S
C1783 H1805 0.950 . S
C1784 H1780 0.949 . S
C1784 C1792 1.574 . S
C1784 C1800 1.368 . S
H1785 C1793 0.950 . S
H1786 C1791 0.950 . S
H1787 C1792 0.949 . S
H1788 C1794 0.950 . S
H1789 C1795 0.950 . S
H1790 C1796 0.949 . S
C1791 H1786 0.950 . S
C1791 C1793 1.327 . S
C1791 C1797 1.429 . S
C1792 C1784 1.574 . S
C1792 H1787 0.949 . S
C1792 C1798 1.368 . S
C1793 C1777 1.349 . S
C1793 H1785 0.950 . S
C1793 C1791 1.327 . S
C1794 C1782 1.349 . S
C1794 H1788 0.950 . S
C1794 C1795 1.327 . S
C1795 H1789 0.950 . S
C1795 C1794 1.327 . S
C1795 C1799 1.429 . S
C1796 C1779 1.574 . S
C1796 H1790 0.949 . S
C1796 C1800 1.368 . S
C1797 C1778 1.429 . S
C1797 C1791 1.429 . S
C1797 C1798 1.523 . S
C1798 C1779 1.368 . S
C1798 C1792 1.368 . S
C1798 C1797 1.523 . S
C1799 C1783 1.429 . S
C1799 C1795 1.429 . S
C1799 C1800 1.523 . S
C1800 C1784 1.368 . S
C1800 C1796 1.368 . S
C1800 C1799 1.523 . S
H1801 C1776 0.950 . S
H1802 C1778 0.950 . S
H1803 C1779 0.949 . S
H1804 C1781 0.950 . S
H1805 C1783 0.950 . S
C1806 C1807 1.349 . S
C1806 C1808 1.327 . S
C1806 H1831 0.950 . S
C1807 C1806 1.349 . S
C1807 C1823 1.349 . S
C1808 C1806 1.327 . S
C1808 C1827 1.429 . S
C1808 H1832 0.950 . S
C1809 C1826 1.574 . S
C1809 C1828 1.368 . S
C1809 H1833 0.949 . S
H1810 C1814 0.949 . S
C1811 C1812 1.349 . S
C1811 C1813 1.327 . S
C1811 H1834 0.950 . S
C1812 C1811 1.349 . S
C1812 C1824 1.349 . S
C1813 C1811 1.327 . S
C1813 C1829 1.429 . S
C1813 H1835 0.950 . S
C1814 H1810 0.949 . S
C1814 C1822 1.574 . S
C1814 C1830 1.368 . S
H1815 C1823 0.950 . S
H1816 C1821 0.950 . S
H1817 C1822 0.949 . S
H1818 C1824 0.950 . S
H1819 C1825 0.950 . S
H1820 C1826 0.949 . S
C1821 H1816 0.950 . S
C1821 C1823 1.327 . S
C1821 C1827 1.429 . S
C1822 C1814 1.574 . S
C1822 H1817 0.949 . S
C1822 C1828 1.368 . S
C1823 C1807 1.349 . S
C1823 H1815 0.950 . S
C1823 C1821 1.327 . S
C1824 C1812 1.349 . S
C1824 H1818 0.950 . S
C1824 C1825 1.327 . S
C1825 H1819 0.950 . S
C1825 C1824 1.327 . S
C1825 C1829 1.429 . S
C1826 C1809 1.574 . S
C1826 H1820 0.949 . S
C1826 C1830 1.368 . S
C1827 C1808 1.429 . S
C1827 C1821 1.429 . S
C1827 C1828 1.523 . S
C1828 C1809 1.368 . S
C1828 C1822 1.368 . S
C1828 C1827 1.523 . S
C1829 C1813 1.429 . S
C1829 C1825 1.429 . S
C1829 C1830 1.523 . S
C1830 C1814 1.368 . S
C1830 C1826 1.368 . S
C1830 C1829 1.523 . S
H1831 C1806 0.950 . S
H1832 C1808 0.950 . S
H1833 C1809 0.949 . S
H1834 C1811 0.950 . S
H1835 C1813 0.950 . S
C1836 C1837 1.349 . S
C1836 C1838 1.327 . S
C1836 H1861 0.950 . S
C1837 C1836 1.349 . S
C1837 C1853 1.349 . S
C1838 C1836 1.327 . S
C1838 C1857 1.429 . S
C1838 H1862 0.950 . S
C1839 C1856 1.574 . S
C1839 C1858 1.368 . S
C1839 H1863 0.949 . S
H1840 C1844 0.949 . S
C1841 C1842 1.349 . S
C1841 C1843 1.327 . S
C1841 H1864 0.950 . S
C1842 C1841 1.349 . S
C1842 C1854 1.349 . S
C1843 C1841 1.327 . S
C1843 C1859 1.429 . S
C1843 H1865 0.950 . S
C1844 H1840 0.949 . S
C1844 C1852 1.574 . S
C1844 C1860 1.368 . S
H1845 C1853 0.950 . S
H1846 C1851 0.950 . S
H1847 C1852 0.949 . S
H1848 C1854 0.950 . S
H1849 C1855 0.950 . S
H1850 C1856 0.949 . S
C1851 H1846 0.950 . S
C1851 C1853 1.327 . S
C1851 C1857 1.429 . S
C1852 C1844 1.574 . S
C1852 H1847 0.949 . S
C1852 C1858 1.368 . S
C1853 C1837 1.349 . S
C1853 H1845 0.950 . S
C1853 C1851 1.327 . S
C1854 C1842 1.349 . S
C1854 H1848 0.950 . S
C1854 C1855 1.327 . S
C1855 H1849 0.950 . S
C1855 C1854 1.327 . S
C1855 C1859 1.429 . S
C1856 C1839 1.574 . S
C1856 H1850 0.949 . S
C1856 C1860 1.368 . S
C1857 C1838 1.429 . S
C1857 C1851 1.429 . S
C1857 C1858 1.523 . S
C1858 C1839 1.368 . S
C1858 C1852 1.368 . S
C1858 C1857 1.523 . S
C1859 C1843 1.429 . S
C1859 C1855 1.429 . S
C1859 C1860 1.523 . S
C1860 C1844 1.368 . S
C1860 C1856 1.368 . S
C1860 C1859 1.523 . S
H1861 C1836 0.950 . S
H1862 C1838 0.950 . S
H1863 C1839 0.949 . S
H1864 C1841 0.950 . S
H1865 C1843 0.950 . S
C1866 C1867 1.349 . S
C1866 C1868 1.327 . S
C1866 H1891 0.950 . S
C1867 C1866 1.349 . S
C1867 C1883 1.349 . S
C1868 C1866 1.327 . S
C1868 C1887 1.429 . S
C1868 H1892 0.950 . S
C1869 C1886 1.574 . S
C1869 C1888 1.368 . S
C1869 H1893 0.949 . S
H1870 C1874 0.949 . S
C1871 C1872 1.349 . S
C1871 C1873 1.327 . S
C1871 H1894 0.950 . S
C1872 C1871 1.349 . S
C1872 C1884 1.349 . S
C1873 C1871 1.327 . S
C1873 C1889 1.429 . S
C1873 H1895 0.950 . S
C1874 H1870 0.949 . S
C1874 C1882 1.574 . S
C1874 C1890 1.368 . S
H1875 C1883 0.950 . S
H1876 C1881 0.950 . S
H1877 C1882 0.949 . S
H1878 C1884 0.950 . S
H1879 C1885 0.950 . S
H1880 C1886 0.949 . S
C1881 H1876 0.950 . S
C1881 C1883 1.327 . S
C1881 C1887 1.429 . S
C1882 C1874 1.574 . S
C1882 H1877 0.949 . S
C1882 C1888 1.368 . S
C1883 C1867 1.349 . S
C1883 H1875 0.950 . S
C1883 C1881 1.327 . S
C1884 C1872 1.349 . S
C1884 H1878 0.950 . S
C1884 C1885 1.327 . S
C1885 H1879 0.950 . S
C1885 C1884 1.327 . S
C1885 C1889 1.429 . S
C1886 C1869 1.574 . S
C1886 H1880 0.949 . S
C1886 C1890 1.368 . S
C1887 C1868 1.429 . S
C1887 C1881 1.429 . S
C1887 C1888 1.523 . S
C1888 C1869 1.368 . S
C1888 C1882 1.368 . S
C1888 C1887 1.523 . S
C1889 C1873 1.429 . S
C1889 C1885 1.429 . S
C1889 C1890 1.523 . S
C1890 C1874 1.368 . S
C1890 C1886 1.368 . S
C1890 C1889 1.523 . S
H1891 C1866 0.950 . S
H1892 C1868 0.950 . S
H1893 C1869 0.949 . S
H1894 C1871 0.950 . S
H1895 C1873 0.950 . S
C1896 C1897 1.349 . S
C1896 C1898 1.327 . S
C1896 H1921 0.950 . S
C1897 C1896 1.349 . S
C1897 C1913 1.349 . S
C1898 C1896 1.327 . S
C1898 C1917 1.429 . S
C1898 H1922 0.950 . S
C1899 C1916 1.574 . S
C1899 C1918 1.368 . S
C1899 H1923 0.949 . S
H1900 C1904 0.949 . S
C1901 C1902 1.349 . S
C1901 C1903 1.327 . S
C1901 H1924 0.950 . S
C1902 C1901 1.349 . S
C1902 C1914 1.349 . S
C1903 C1901 1.327 . S
C1903 C1919 1.429 . S
C1903 H1925 0.950 . S
C1904 H1900 0.949 . S
C1904 C1912 1.574 . S
C1904 C1920 1.368 . S
H1905 C1913 0.950 . S
H1906 C1911 0.950 . S
H1907 C1912 0.949 . S
H1908 C1914 0.950 . S
H1909 C1915 0.950 . S
H1910 C1916 0.949 . S
C1911 H1906 0.950 . S
C1911 C1913 1.327 . S
C1911 C1917 1.429 . S
C1912 C1904 1.574 . S
C1912 H1907 0.949 . S
C1912 C1918 1.368 . S
C1913 C1897 1.349 . S
C1913 H1905 0.950 . S
C1913 C1911 1.327 . S
C1914 C1902 1.349 . S
C1914 H1908 0.950 . S
C1914 C1915 1.327 . S
C1915 H1909 0.950 . S
C1915 C1914 1.327 . S
C1915 C1919 1.429 . S
C1916 C1899 1.574 . S
C1916 H1910 0.949 . S
C1916 C1920 1.368 . S
C1917 C1898 1.429 . S
C1917 C1911 1.429 . S
C1917 C1918 1.523 . S
C1918 C1899 1.368 . S
C1918 C1912 1.368 . S
C1918 C1917 1.523 . S
C1919 C1903 1.429 . S
C1919 C1915 1.429 . S
C1919 C1920 1.523 . S
C1920 C1904 1.368 . S
C1920 C1916 1.368 . S
C1920 C1919 1.523 . S
H1921 C1896 0.950 . S
H1922 C1898 0.950 . S
H1923 C1899 0.949 . S
H1924 C1901 0.950 . S
H1925 C1903 0.950 . S
C1926 C1927 1.349 . S
C1926 C1928 1.327 . S
C1926 H1951 0.950 . S
C1927 C1926 1.349 . S
C1927 C1943 1.349 . S
C1928 C1926 1.327 . S
C1928 C1947 1.429 . S
C1928 H1952 0.950 . S
C1929 C1946 1.574 . S
C1929 C1948 1.368 . S
C1929 H1953 0.949 . S
H1930 C1934 0.949 . S
C1931 C1932 1.349 . S
C1931 C1933 1.327 . S
C1931 H1954 0.950 . S
C1932 C1931 1.349 . S
C1932 C1944 1.349 . S
C1933 C1931 1.327 . S
C1933 C1949 1.429 . S
C1933 H1955 0.950 . S
C1934 H1930 0.949 . S
C1934 C1942 1.574 . S
C1934 C1950 1.368 . S
H1935 C1943 0.950 . S
H1936 C1941 0.950 . S
H1937 C1942 0.949 . S
H1938 C1944 0.950 . S
H1939 C1945 0.950 . S
H1940 C1946 0.949 . S
C1941 H1936 0.950 . S
C1941 C1943 1.327 . S
C1941 C1947 1.429 . S
C1942 C1934 1.574 . S
C1942 H1937 0.949 . S
C1942 C1948 1.368 . S
C1943 C1927 1.349 . S
C1943 H1935 0.950 . S
C1943 C1941 1.327 . S
C1944 C1932 1.349 . S
C1944 H1938 0.950 . S
C1944 C1945 1.327 . S
C1945 H1939 0.950 . S
C1945 C1944 1.327 . S
C1945 C1949 1.429 . S
C1946 C1929 1.574 . S
C1946 H1940 0.949 . S
C1946 C1950 1.368 . S
C1947 C1928 1.429 . S
C1947 C1941 1.429 . S
C1947 C1948 1.523 . S
C1948 C1929 1.368 . S
C1948 C1942 1.368 . S
C1948 C1947 1.523 . S
C1949 C1933 1.429 . S
C1949 C1945 1.429 . S
C1949 C1950 1.523 . S
C1950 C1934 1.368 . S
C1950 C1946 1.368 . S
C1950 C1949 1.523 . S
H1951 C1926 0.950 . S
H1952 C1928 0.950 . S
H1953 C1929 0.949 . S
H1954 C1931 0.950 . S
H1955 C1933 0.950 . S
C1956 C1957 1.349 . S
C1956 C1958 1.327 . S
C1956 H1981 0.950 . S
C1957 C1956 1.349 . S
C1957 C1973 1.349 . S
C1958 C1956 1.327 . S
C1958 C1977 1.429 . S
C1958 H1982 0.950 . S
C1959 C1976 1.574 . S
C1959 C1978 1.368 . S
C1959 H1983 0.949 . S
H1960 C1964 0.949 . S
C1961 C1962 1.349 . S
C1961 C1963 1.327 . S
C1961 H1984 0.950 . S
C1962 C1961 1.349 . S
C1962 C1974 1.349 . S
C1963 C1961 1.327 . S
C1963 C1979 1.429 . S
C1963 H1985 0.950 . S
C1964 H1960 0.949 . S
C1964 C1972 1.574 . S
C1964 C1980 1.368 . S
H1965 C1973 0.950 1_554 S
H1966 C1971 0.950 . S
H1967 C1972 0.949 . S
H1968 C1974 0.950 . S
H1969 C1975 0.950 . S
H1970 C1976 0.949 . S
C1971 H1966 0.950 . S
C1971 C1973 1.327 . S
C1971 C1977 1.429 . S
C1972 C1964 1.574 . S
C1972 H1967 0.949 . S
C1972 C1978 1.368 . S
C1973 C1957 1.349 . S
C1973 H1965 0.950 1_556 S
C1973 C1971 1.327 . S
C1974 C1962 1.349 . S
C1974 H1968 0.950 . S
C1974 C1975 1.327 . S
C1975 H1969 0.950 . S
C1975 C1974 1.327 . S
C1975 C1979 1.429 . S
C1976 C1959 1.574 . S
C1976 H1970 0.949 . S
C1976 C1980 1.368 . S
C1977 C1958 1.429 . S
C1977 C1971 1.429 . S
C1977 C1978 1.523 . S
C1978 C1959 1.368 . S
C1978 C1972 1.368 . S
C1978 C1977 1.523 . S
C1979 C1963 1.429 . S
C1979 C1975 1.429 . S
C1979 C1980 1.523 . S
C1980 C1964 1.368 . S
C1980 C1976 1.368 . S
C1980 C1979 1.523 . S
H1981 C1956 0.950 . S
H1982 C1958 0.950 . S
H1983 C1959 0.949 . S
H1984 C1961 0.950 . S
H1985 C1963 0.950 . S
C1986 C1987 1.349 . S
C1986 C1988 1.327 . S
C1986 H2011 0.950 . S
C1987 C1986 1.349 . S
C1987 C2003 1.349 . S
C1988 C1986 1.327 . S
C1988 C2007 1.429 . S
C1988 H2012 0.950 . S
C1989 C2006 1.574 . S
C1989 C2008 1.368 . S
C1989 H2013 0.949 . S
H1990 C1994 0.949 . S
C1991 C1992 1.349 . S
C1991 C1993 1.327 . S
C1991 H2014 0.950 . S
C1992 C1991 1.349 . S
C1992 C2004 1.349 . S
C1993 C1991 1.327 . S
C1993 C2009 1.429 . S
C1993 H2015 0.950 . S
C1994 H1990 0.949 . S
C1994 C2002 1.574 . S
C1994 C2010 1.368 . S
H1995 C2003 0.950 . S
H1996 C2001 0.950 . S
H1997 C2002 0.949 . S
H1998 C2004 0.950 . S
H1999 C2005 0.950 . S
H2000 C2006 0.949 . S
C2001 H1996 0.950 . S
C2001 C2003 1.327 . S
C2001 C2007 1.429 . S
C2002 C1994 1.574 . S
C2002 H1997 0.949 . S
C2002 C2008 1.368 . S
C2003 C1987 1.349 . S
C2003 H1995 0.950 . S
C2003 C2001 1.327 . S
C2004 C1992 1.349 . S
C2004 H1998 0.950 . S
C2004 C2005 1.327 . S
C2005 H1999 0.950 . S
C2005 C2004 1.327 . S
C2005 C2009 1.429 . S
C2006 C1989 1.574 . S
C2006 H2000 0.949 . S
C2006 C2010 1.368 . S
C2007 C1988 1.429 . S
C2007 C2001 1.429 . S
C2007 C2008 1.523 . S
C2008 C1989 1.368 . S
C2008 C2002 1.368 . S
C2008 C2007 1.523 . S
C2009 C1993 1.429 . S
C2009 C2005 1.429 . S
C2009 C2010 1.523 . S
C2010 C1994 1.368 . S
C2010 C2006 1.368 . S
C2010 C2009 1.523 . S
H2011 C1986 0.950 . S
H2012 C1988 0.950 . S
H2013 C1989 0.949 . S
H2014 C1991 0.950 . S
H2015 C1993 0.950 . S
C2016 C2017 1.349 . S
C2016 C2018 1.327 . S
C2016 H2041 0.950 . S
C2017 C2016 1.349 . S
C2017 C2033 1.349 . S
C2018 C2016 1.327 . S
C2018 C2037 1.429 . S
C2018 H2042 0.950 . S
C2019 C2036 1.574 . S
C2019 C2038 1.368 . S
C2019 H2043 0.949 . S
H2020 C2024 0.949 . S
C2021 C2022 1.349 . S
C2021 C2023 1.327 . S
C2021 H2044 0.950 . S
C2022 C2021 1.349 . S
C2022 C2034 1.349 . S
C2023 C2021 1.327 . S
C2023 C2039 1.429 . S
C2023 H2045 0.950 . S
C2024 H2020 0.949 . S
C2024 C2032 1.574 . S
C2024 C2040 1.368 . S
H2025 C2033 0.950 . S
H2026 C2031 0.950 . S
H2027 C2032 0.949 . S
H2028 C2034 0.950 . S
H2029 C2035 0.950 . S
H2030 C2036 0.949 . S
C2031 H2026 0.950 . S
C2031 C2033 1.327 . S
C2031 C2037 1.429 . S
C2032 C2024 1.574 . S
C2032 H2027 0.949 . S
C2032 C2038 1.368 . S
C2033 C2017 1.349 . S
C2033 H2025 0.950 . S
C2033 C2031 1.327 . S
C2034 C2022 1.349 . S
C2034 H2028 0.950 . S
C2034 C2035 1.327 . S
C2035 H2029 0.950 . S
C2035 C2034 1.327 . S
C2035 C2039 1.429 . S
C2036 C2019 1.574 . S
C2036 H2030 0.949 . S
C2036 C2040 1.368 . S
C2037 C2018 1.429 . S
C2037 C2031 1.429 . S
C2037 C2038 1.523 . S
C2038 C2019 1.368 . S
C2038 C2032 1.368 . S
C2038 C2037 1.523 . S
C2039 C2023 1.429 . S
C2039 C2035 1.429 . S
C2039 C2040 1.523 . S
C2040 C2024 1.368 . S
C2040 C2036 1.368 . S
C2040 C2039 1.523 . S
H2041 C2016 0.950 . S
H2042 C2018 0.950 . S
H2043 C2019 0.949 . S
H2044 C2021 0.950 . S
H2045 C2023 0.950 . S
C2046 C2047 1.349 . S
C2046 C2048 1.327 . S
C2046 H2071 0.950 . S
C2047 C2046 1.349 . S
C2047 C2063 1.349 . S
C2048 C2046 1.327 . S
C2048 C2067 1.429 . S
C2048 H2072 0.950 . S
C2049 C2066 1.574 . S
C2049 C2068 1.368 . S
C2049 H2073 0.949 . S
H2050 C2054 0.949 . S
C2051 C2052 1.349 . S
C2051 C2053 1.327 . S
C2051 H2074 0.950 . S
C2052 C2051 1.349 . S
C2052 C2064 1.349 . S
C2053 C2051 1.327 . S
C2053 C2069 1.429 . S
C2053 H2075 0.950 . S
C2054 H2050 0.949 . S
C2054 C2062 1.574 . S
C2054 C2070 1.368 . S
H2055 C2063 0.950 . S
H2056 C2061 0.950 . S
H2057 C2062 0.949 . S
H2058 C2064 0.950 . S
H2059 C2065 0.950 . S
H2060 C2066 0.949 . S
C2061 H2056 0.950 . S
C2061 C2063 1.327 . S
C2061 C2067 1.429 . S
C2062 C2054 1.574 . S
C2062 H2057 0.949 . S
C2062 C2068 1.368 . S
C2063 C2047 1.349 . S
C2063 H2055 0.950 . S
C2063 C2061 1.327 . S
C2064 C2052 1.349 . S
C2064 H2058 0.950 . S
C2064 C2065 1.327 . S
C2065 H2059 0.950 . S
C2065 C2064 1.327 . S
C2065 C2069 1.429 . S
C2066 C2049 1.574 . S
C2066 H2060 0.949 . S
C2066 C2070 1.368 . S
C2067 C2048 1.429 . S
C2067 C2061 1.429 . S
C2067 C2068 1.523 . S
C2068 C2049 1.368 . S
C2068 C2062 1.368 . S
C2068 C2067 1.523 . S
C2069 C2053 1.429 . S
C2069 C2065 1.429 . S
C2069 C2070 1.523 . S
C2070 C2054 1.368 . S
C2070 C2066 1.368 . S
C2070 C2069 1.523 . S
H2071 C2046 0.950 . S
H2072 C2048 0.950 . S
H2073 C2049 0.949 . S
H2074 C2051 0.950 . S
H2075 C2053 0.950 . S
C2076 C2077 1.349 . S
C2076 C2078 1.327 . S
C2076 H2101 0.950 . S
C2077 C2076 1.349 . S
C2077 C2093 1.349 . S
C2078 C2076 1.327 . S
C2078 C2097 1.429 . S
C2078 H2102 0.950 . S
C2079 C2096 1.574 . S
C2079 C2098 1.368 . S
C2079 H2103 0.949 . S
H2080 C2084 0.949 . S
C2081 C2082 1.349 . S
C2081 C2083 1.327 . S
C2081 H2104 0.950 . S
C2082 C2081 1.349 . S
C2082 C2094 1.349 . S
C2083 C2081 1.327 . S
C2083 C2099 1.429 . S
C2083 H2105 0.950 . S
C2084 H2080 0.949 . S
C2084 C2092 1.574 . S
C2084 C2100 1.368 . S
H2085 C2093 0.950 . S
H2086 C2091 0.950 . S
H2087 C2092 0.949 . S
H2088 C2094 0.950 . S
H2089 C2095 0.950 . S
H2090 C2096 0.949 . S
C2091 H2086 0.950 . S
C2091 C2093 1.327 . S
C2091 C2097 1.429 . S
C2092 C2084 1.574 . S
C2092 H2087 0.949 . S
C2092 C2098 1.368 . S
C2093 C2077 1.349 . S
C2093 H2085 0.950 . S
C2093 C2091 1.327 . S
C2094 C2082 1.349 . S
C2094 H2088 0.950 . S
C2094 C2095 1.327 . S
C2095 H2089 0.950 . S
C2095 C2094 1.327 . S
C2095 C2099 1.429 . S
C2096 C2079 1.574 . S
C2096 H2090 0.949 . S
C2096 C2100 1.368 . S
C2097 C2078 1.429 . S
C2097 C2091 1.429 . S
C2097 C2098 1.523 . S
C2098 C2079 1.368 . S
C2098 C2092 1.368 . S
C2098 C2097 1.523 . S
C2099 C2083 1.429 . S
C2099 C2095 1.429 . S
C2099 C2100 1.523 . S
C2100 C2084 1.368 . S
C2100 C2096 1.368 . S
C2100 C2099 1.523 . S
H2101 C2076 0.950 . S
H2102 C2078 0.950 . S
H2103 C2079 0.949 . S
H2104 C2081 0.950 . S
H2105 C2083 0.950 . S
C2106 C2107 1.349 . S
C2106 C2108 1.327 . S
C2106 H2131 0.950 . S
C2107 C2106 1.349 . S
C2107 C2123 1.349 . S
C2108 C2106 1.327 . S
C2108 C2127 1.429 . S
C2108 H2132 0.950 . S
C2109 C2126 1.574 . S
C2109 C2128 1.368 . S
C2109 H2133 0.949 . S
H2110 C2114 0.949 . S
C2111 C2112 1.349 . S
C2111 C2113 1.327 . S
C2111 H2134 0.950 . S
C2112 C2111 1.349 . S
C2112 C2124 1.349 . S
C2113 C2111 1.327 . S
C2113 C2129 1.429 . S
C2113 H2135 0.950 . S
C2114 H2110 0.949 . S
C2114 C2122 1.574 . S
C2114 C2130 1.368 . S
H2115 C2123 0.950 . S
H2116 C2121 0.950 . S
H2117 C2122 0.949 . S
H2118 C2124 0.950 . S
H2119 C2125 0.950 . S
H2120 C2126 0.949 . S
C2121 H2116 0.950 . S
C2121 C2123 1.327 . S
C2121 C2127 1.429 . S
C2122 C2114 1.574 . S
C2122 H2117 0.949 . S
C2122 C2128 1.368 . S
C2123 C2107 1.349 . S
C2123 H2115 0.950 . S
C2123 C2121 1.327 . S
C2124 C2112 1.349 . S
C2124 H2118 0.950 . S
C2124 C2125 1.327 . S
C2125 H2119 0.950 . S
C2125 C2124 1.327 . S
C2125 C2129 1.429 . S
C2126 C2109 1.574 . S
C2126 H2120 0.949 . S
C2126 C2130 1.368 . S
C2127 C2108 1.429 . S
C2127 C2121 1.429 . S
C2127 C2128 1.523 . S
C2128 C2109 1.368 . S
C2128 C2122 1.368 . S
C2128 C2127 1.523 . S
C2129 C2113 1.429 . S
C2129 C2125 1.429 . S
C2129 C2130 1.523 . S
C2130 C2114 1.368 . S
C2130 C2126 1.368 . S
C2130 C2129 1.523 . S
H2131 C2106 0.950 . S
H2132 C2108 0.950 . S
H2133 C2109 0.949 . S
H2134 C2111 0.950 . S
H2135 C2113 0.950 . S
C2136 C2137 1.349 . S
C2136 C2138 1.327 . S
C2136 H2161 0.950 . S
C2137 C2136 1.349 . S
C2137 C2153 1.349 . S
C2138 C2136 1.327 . S
C2138 C2157 1.429 . S
C2138 H2162 0.950 . S
C2139 C2156 1.574 . S
C2139 C2158 1.368 . S
C2139 H2163 0.949 . S
H2140 C2144 0.949 . S
C2141 C2142 1.349 . S
C2141 C2143 1.327 . S
C2141 H2164 0.950 . S
C2142 C2141 1.349 . S
C2142 C2154 1.349 . S
C2143 C2141 1.327 . S
C2143 C2159 1.429 . S
C2143 H2165 0.950 . S
C2144 H2140 0.949 . S
C2144 C2152 1.574 . S
C2144 C2160 1.368 . S
H2145 C2153 0.950 . S
H2146 C2151 0.950 . S
H2147 C2152 0.949 . S
H2148 C2154 0.950 . S
H2149 C2155 0.950 . S
H2150 C2156 0.949 . S
C2151 H2146 0.950 . S
C2151 C2153 1.327 . S
C2151 C2157 1.429 . S
C2152 C2144 1.574 . S
C2152 H2147 0.949 . S
C2152 C2158 1.368 . S
C2153 C2137 1.349 . S
C2153 H2145 0.950 . S
C2153 C2151 1.327 . S
C2154 C2142 1.349 . S
C2154 H2148 0.950 . S
C2154 C2155 1.327 . S
C2155 H2149 0.950 . S
C2155 C2154 1.327 . S
C2155 C2159 1.429 . S
C2156 C2139 1.574 . S
C2156 H2150 0.949 . S
C2156 C2160 1.368 . S
C2157 C2138 1.429 . S
C2157 C2151 1.429 . S
C2157 C2158 1.523 . S
C2158 C2139 1.368 . S
C2158 C2152 1.368 . S
C2158 C2157 1.523 . S
C2159 C2143 1.429 . S
C2159 C2155 1.429 . S
C2159 C2160 1.523 . S
C2160 C2144 1.368 . S
C2160 C2156 1.368 . S
C2160 C2159 1.523 . S
H2161 C2136 0.950 . S
H2162 C2138 0.950 . S
H2163 C2139 0.949 . S
H2164 C2141 0.950 . S
H2165 C2143 0.950 . S
C2166 C2167 1.349 . S
C2166 C2168 1.327 . S
C2166 H2191 0.950 . S
C2167 C2166 1.349 . S
C2167 C2183 1.349 . S
C2168 C2166 1.327 . S
C2168 C2187 1.429 . S
C2168 H2192 0.950 . S
C2169 C2186 1.574 . S
C2169 C2188 1.368 . S
C2169 H2193 0.949 . S
H2170 C2174 0.949 . S
C2171 C2172 1.349 . S
C2171 C2173 1.327 . S
C2171 H2194 0.950 . S
C2172 C2171 1.349 . S
C2172 C2184 1.349 . S
C2173 C2171 1.327 . S
C2173 C2189 1.429 . S
C2173 H2195 0.950 . S
C2174 H2170 0.949 . S
C2174 C2182 1.574 . S
C2174 C2190 1.368 . S
H2175 C2183 0.950 . S
H2176 C2181 0.950 . S
H2177 C2182 0.949 . S
H2178 C2184 0.950 . S
H2179 C2185 0.950 . S
H2180 C2186 0.949 . S
C2181 H2176 0.950 . S
C2181 C2183 1.327 . S
C2181 C2187 1.429 . S
C2182 C2174 1.574 . S
C2182 H2177 0.949 . S
C2182 C2188 1.368 . S
C2183 C2167 1.349 . S
C2183 H2175 0.950 . S
C2183 C2181 1.327 . S
C2184 C2172 1.349 . S
C2184 H2178 0.950 . S
C2184 C2185 1.327 . S
C2185 H2179 0.950 . S
C2185 C2184 1.327 . S
C2185 C2189 1.429 . S
C2186 C2169 1.574 . S
C2186 H2180 0.949 . S
C2186 C2190 1.368 . S
C2187 C2168 1.429 . S
C2187 C2181 1.429 . S
C2187 C2188 1.523 . S
C2188 C2169 1.368 . S
C2188 C2182 1.368 . S
C2188 C2187 1.523 . S
C2189 C2173 1.429 . S
C2189 C2185 1.429 . S
C2189 C2190 1.523 . S
C2190 C2174 1.368 . S
C2190 C2186 1.368 . S
C2190 C2189 1.523 . S
H2191 C2166 0.950 . S
H2192 C2168 0.950 . S
H2193 C2169 0.949 . S
H2194 C2171 0.950 . S
H2195 C2173 0.950 . S
C2196 C2197 1.349 . S
C2196 C2198 1.327 . S
C2196 H2221 0.950 . S
C2197 C2196 1.349 . S
C2197 C2213 1.349 . S
C2198 C2196 1.327 . S
C2198 C2217 1.429 . S
C2198 H2222 0.950 . S
C2199 C2216 1.574 . S
C2199 C2218 1.368 . S
C2199 H2223 0.949 . S
H2200 C2204 0.949 . S
C2201 C2202 1.349 . S
C2201 C2203 1.327 . S
C2201 H2224 0.950 . S
C2202 C2201 1.349 . S
C2202 C2214 1.349 . S
C2203 C2201 1.327 . S
C2203 C2219 1.429 . S
C2203 H2225 0.950 . S
C2204 H2200 0.949 . S
C2204 C2212 1.574 . S
C2204 C2220 1.368 . S
H2205 C2213 0.950 . S
H2206 C2211 0.950 . S
H2207 C2212 0.949 . S
H2208 C2214 0.950 . S
H2209 C2215 0.950 . S
H2210 C2216 0.949 . S
C2211 H2206 0.950 . S
C2211 C2213 1.327 . S
C2211 C2217 1.429 . S
C2212 C2204 1.574 . S
C2212 H2207 0.949 . S
C2212 C2218 1.368 . S
C2213 C2197 1.349 . S
C2213 H2205 0.950 . S
C2213 C2211 1.327 . S
C2214 C2202 1.349 . S
C2214 H2208 0.950 . S
C2214 C2215 1.327 . S
C2215 H2209 0.950 . S
C2215 C2214 1.327 . S
C2215 C2219 1.429 . S
C2216 C2199 1.574 . S
C2216 H2210 0.949 . S
C2216 C2220 1.368 . S
C2217 C2198 1.429 . S
C2217 C2211 1.429 . S
C2217 C2218 1.523 . S
C2218 C2199 1.368 . S
C2218 C2212 1.368 . S
C2218 C2217 1.523 . S
C2219 C2203 1.429 . S
C2219 C2215 1.429 . S
C2219 C2220 1.523 . S
C2220 C2204 1.368 . S
C2220 C2216 1.368 . S
C2220 C2219 1.523 . S
H2221 C2196 0.950 . S
H2222 C2198 0.950 . S
H2223 C2199 0.949 . S
H2224 C2201 0.950 . S
H2225 C2203 0.950 . S
C2226 C2227 1.349 . S
C2226 C2228 1.327 . S
C2226 H2251 0.950 . S
C2227 C2226 1.349 . S
C2227 C2243 1.349 . S
C2228 C2226 1.327 . S
C2228 C2247 1.429 . S
C2228 H2252 0.950 . S
C2229 C2246 1.574 . S
C2229 C2248 1.368 . S
C2229 H2253 0.949 . S
H2230 C2234 0.949 . S
C2231 C2232 1.349 . S
C2231 C2233 1.327 . S
C2231 H2254 0.950 . S
C2232 C2231 1.349 . S
C2232 C2244 1.349 . S
C2233 C2231 1.327 . S
C2233 C2249 1.429 . S
C2233 H2255 0.950 . S
C2234 H2230 0.949 . S
C2234 C2242 1.574 . S
C2234 C2250 1.368 . S
H2235 C2243 0.950 . S
H2236 C2241 0.950 . S
H2237 C2242 0.949 . S
H2238 C2244 0.898 1_554 S
H2239 C2245 0.950 . S
H2240 C2246 0.949 . S
C2241 H2236 0.950 . S
C2241 C2243 1.327 . S
C2241 C2247 1.429 . S
C2242 C2234 1.574 . S
C2242 H2237 0.949 . S
C2242 C2248 1.368 . S
C2243 C2227 1.349 . S
C2243 H2235 0.950 . S
C2243 C2241 1.327 . S
C2244 C2232 1.349 . S
C2244 H2238 0.898 1_556 S
C2244 C2245 1.327 . S
C2245 H2239 0.950 . S
C2245 C2244 1.327 . S
C2245 C2249 1.429 . S
C2246 C2229 1.574 . S
C2246 H2240 0.949 . S
C2246 C2250 1.368 . S
C2247 C2228 1.429 . S
C2247 C2241 1.429 . S
C2247 C2248 1.523 . S
C2248 C2229 1.368 . S
C2248 C2242 1.368 . S
C2248 C2247 1.523 . S
C2249 C2233 1.429 . S
C2249 C2245 1.429 . S
C2249 C2250 1.523 . S
C2250 C2234 1.368 . S
C2250 C2246 1.368 . S
C2250 C2249 1.523 . S
H2251 C2226 0.950 . S
H2252 C2228 0.950 . S
H2253 C2229 0.949 . S
H2254 C2231 0.950 . S
H2255 C2233 0.950 . S
C2256 C2257 1.349 . S
C2256 C2258 1.327 . S
C2256 H2281 0.950 . S
C2257 C2256 1.349 . S
C2257 C2273 1.349 . S
C2258 C2256 1.327 . S
C2258 C2277 1.429 . S
C2258 H2282 0.950 . S
C2259 C2276 1.574 . S
C2259 C2278 1.368 . S
C2259 H2283 0.949 . S
H2260 C2264 0.949 . S
C2261 C2262 1.349 . S
C2261 C2263 1.327 . S
C2261 H2284 0.950 . S
C2262 C2261 1.349 . S
C2262 C2274 1.349 . S
C2263 C2261 1.327 . S
C2263 C2279 1.429 . S
C2263 H2285 0.950 . S
C2264 H2260 0.949 . S
C2264 C2272 1.574 . S
C2264 C2280 1.368 . S
H2265 C2273 0.950 . S
H2266 C2271 0.950 . S
H2267 C2272 0.949 . S
H2268 C2274 0.950 . S
H2269 C2275 0.950 . S
H2270 C2276 0.949 . S
C2271 H2266 0.950 . S
C2271 C2273 1.327 . S
C2271 C2277 1.429 . S
C2272 C2264 1.574 . S
C2272 H2267 0.949 . S
C2272 C2278 1.368 . S
C2273 C2257 1.349 . S
C2273 H2265 0.950 . S
C2273 C2271 1.327 . S
C2274 C2262 1.349 . S
C2274 H2268 0.950 . S
C2274 C2275 1.327 . S
C2275 H2269 0.950 . S
C2275 C2274 1.327 . S
C2275 C2279 1.429 . S
C2276 C2259 1.574 . S
C2276 H2270 0.949 . S
C2276 C2280 1.368 . S
C2277 C2258 1.429 . S
C2277 C2271 1.429 . S
C2277 C2278 1.523 . S
C2278 C2259 1.368 . S
C2278 C2272 1.368 . S
C2278 C2277 1.523 . S
C2279 C2263 1.429 . S
C2279 C2275 1.429 . S
C2279 C2280 1.523 . S
C2280 C2264 1.368 . S
C2280 C2276 1.368 . S
C2280 C2279 1.523 . S
H2281 C2256 0.950 . S
H2282 C2258 0.950 . S
H2283 C2259 0.949 . S
H2284 C2261 0.950 . S
H2285 C2263 0.950 . S
C2286 C2287 1.349 . S
C2286 C2288 1.327 . S
C2286 H2311 0.950 . S
C2287 C2286 1.349 . S
C2287 C2303 1.349 . S
C2288 C2286 1.327 . S
C2288 C2307 1.429 . S
C2288 H2312 0.950 . S
C2289 C2306 1.574 . S
C2289 C2308 1.368 . S
C2289 H2313 0.949 . S
H2290 C2294 0.949 . S
C2291 C2292 1.349 . S
C2291 C2293 1.327 . S
C2291 H2314 0.950 . S
C2292 C2291 1.349 . S
C2292 C2304 1.349 . S
C2293 C2291 1.327 . S
C2293 C2309 1.429 . S
C2293 H2315 0.950 . S
C2294 H2290 0.949 . S
C2294 C2302 1.574 . S
C2294 C2310 1.368 . S
H2295 C2303 0.950 . S
H2296 C2301 0.950 . S
H2297 C2302 0.949 . S
H2298 C2304 0.950 . S
H2299 C2305 0.950 . S
H2300 C2306 0.949 . S
C2301 H2296 0.950 . S
C2301 C2303 1.327 . S
C2301 C2307 1.429 . S
C2302 C2294 1.574 . S
C2302 H2297 0.949 . S
C2302 C2308 1.368 . S
C2303 C2287 1.349 . S
C2303 H2295 0.950 . S
C2303 C2301 1.327 . S
C2304 C2292 1.349 . S
C2304 H2298 0.950 . S
C2304 C2305 1.327 . S
C2305 H2299 0.950 . S
C2305 C2304 1.327 . S
C2305 C2309 1.429 . S
C2306 C2289 1.574 . S
C2306 H2300 0.949 . S
C2306 C2310 1.368 . S
C2307 C2288 1.429 . S
C2307 C2301 1.429 . S
C2307 C2308 1.523 . S
C2308 C2289 1.368 . S
C2308 C2302 1.368 . S
C2308 C2307 1.523 . S
C2309 C2293 1.429 . S
C2309 C2305 1.429 . S
C2309 C2310 1.523 . S
C2310 C2294 1.368 . S
C2310 C2306 1.368 . S
C2310 C2309 1.523 . S
H2311 C2286 0.950 . S
H2312 C2288 0.950 . S
H2313 C2289 0.949 . S
H2314 C2291 0.950 . S
H2315 C2293 0.950 . S
C2316 C2317 1.349 . S
C2316 C2318 1.327 . S
C2316 H2341 0.950 . S
C2317 C2316 1.349 . S
C2317 C2333 1.349 . S
C2318 C2316 1.327 . S
C2318 C2337 1.429 . S
C2318 H2342 0.950 . S
C2319 C2336 1.574 . S
C2319 C2338 1.368 . S
C2319 H2343 0.949 . S
H2320 C2324 0.949 . S
C2321 C2322 1.349 . S
C2321 C2323 1.327 . S
C2321 H2344 0.950 . S
C2322 C2321 1.349 . S
C2322 C2334 1.349 . S
C2323 C2321 1.327 . S
C2323 C2339 1.429 . S
C2323 H2345 0.950 . S
C2324 H2320 0.949 . S
C2324 C2332 1.574 . S
C2324 C2340 1.368 . S
H2325 C2333 0.950 . S
H2326 C2331 0.950 . S
H2327 C2332 0.949 . S
H2328 C2334 0.950 . S
H2329 C2335 0.950 . S
H2330 C2336 0.949 . S
C2331 H2326 0.950 . S
C2331 C2333 1.327 . S
C2331 C2337 1.429 . S
C2332 C2324 1.574 . S
C2332 H2327 0.949 . S
C2332 C2338 1.368 . S
C2333 C2317 1.349 . S
C2333 H2325 0.950 . S
C2333 C2331 1.327 . S
C2334 C2322 1.349 . S
C2334 H2328 0.950 . S
C2334 C2335 1.327 . S
C2335 H2329 0.950 . S
C2335 C2334 1.327 . S
C2335 C2339 1.429 . S
C2336 C2319 1.574 . S
C2336 H2330 0.949 . S
C2336 C2340 1.368 . S
C2337 C2318 1.429 . S
C2337 C2331 1.429 . S
C2337 C2338 1.523 . S
C2338 C2319 1.368 . S
C2338 C2332 1.368 . S
C2338 C2337 1.523 . S
C2339 C2323 1.429 . S
C2339 C2335 1.429 . S
C2339 C2340 1.523 . S
C2340 C2324 1.368 . S
C2340 C2336 1.368 . S
C2340 C2339 1.523 . S
H2341 C2316 0.950 . S
H2342 C2318 0.950 . S
H2343 C2319 0.949 . S
H2344 C2321 0.950 . S
H2345 C2323 0.950 . S
C2346 C2347 1.349 . S
C2346 C2348 1.327 . S
C2346 H2371 0.950 . S
C2347 C2346 1.349 . S
C2347 C2363 1.349 . S
C2348 C2346 1.327 . S
C2348 C2367 1.429 . S
C2348 H2372 0.950 . S
C2349 C2366 1.574 . S
C2349 C2368 1.368 . S
C2349 H2373 0.949 . S
H2350 C2354 0.949 . S
C2351 C2352 1.349 . S
C2351 C2353 1.327 . S
C2351 H2374 0.950 . S
C2352 C2351 1.349 . S
C2352 C2364 1.349 . S
C2353 C2351 1.327 . S
C2353 C2369 1.429 . S
C2353 H2375 0.950 . S
C2354 H2350 0.949 . S
C2354 C2362 1.574 . S
C2354 C2370 1.368 . S
H2355 C2363 0.950 . S
H2356 C2361 0.950 . S
H2357 C2362 0.949 . S
H2358 C2364 0.950 . S
H2359 C2365 0.950 . S
H2360 C2366 0.949 . S
C2361 H2356 0.950 . S
C2361 C2363 1.327 . S
C2361 C2367 1.429 . S
C2362 C2354 1.574 . S
C2362 H2357 0.949 . S
C2362 C2368 1.368 . S
C2363 C2347 1.349 . S
C2363 H2355 0.950 . S
C2363 C2361 1.327 . S
C2364 C2352 1.349 . S
C2364 H2358 0.950 . S
C2364 C2365 1.327 . S
C2365 H2359 0.950 . S
C2365 C2364 1.327 . S
C2365 C2369 1.429 . S
C2366 C2349 1.574 . S
C2366 H2360 0.949 . S
C2366 C2370 1.368 . S
C2367 C2348 1.429 . S
C2367 C2361 1.429 . S
C2367 C2368 1.523 . S
C2368 C2349 1.368 . S
C2368 C2362 1.368 . S
C2368 C2367 1.523 . S
C2369 C2353 1.429 . S
C2369 C2365 1.429 . S
C2369 C2370 1.523 . S
C2370 C2354 1.368 . S
C2370 C2366 1.368 . S
C2370 C2369 1.523 . S
H2371 C2346 0.950 . S
H2372 C2348 0.950 . S
H2373 C2349 0.949 . S
H2374 C2351 0.950 . S
H2375 C2353 0.950 . S
C2376 C2377 1.349 . S
C2376 C2378 1.327 . S
C2376 H2401 0.950 . S
C2377 C2376 1.349 . S
C2377 C2393 1.349 . S
C2378 C2376 1.327 . S
C2378 C2397 1.429 . S
C2378 H2402 0.950 . S
C2379 C2396 1.574 . S
C2379 C2398 1.368 . S
C2379 H2403 0.949 . S
H2380 C2384 0.949 . S
C2381 C2382 1.349 . S
C2381 C2383 1.327 . S
C2381 H2404 0.950 . S
C2382 C2381 1.349 . S
C2382 C2394 1.349 . S
C2383 C2381 1.327 . S
C2383 C2399 1.429 . S
C2383 H2405 0.950 . S
C2384 H2380 0.949 . S
C2384 C2392 1.574 . S
C2384 C2400 1.368 . S
H2385 C2393 0.950 . S
H2386 C2391 0.950 . S
H2387 C2392 0.949 . S
H2388 C2394 0.950 . S
H2389 C2395 0.950 . S
H2390 C2396 0.949 . S
C2391 H2386 0.950 . S
C2391 C2393 1.327 . S
C2391 C2397 1.429 . S
C2392 C2384 1.574 . S
C2392 H2387 0.949 . S
C2392 C2398 1.368 . S
C2393 C2377 1.349 . S
C2393 H2385 0.950 . S
C2393 C2391 1.327 . S
C2394 C2382 1.349 . S
C2394 H2388 0.950 . S
C2394 C2395 1.327 . S
C2395 H2389 0.950 . S
C2395 C2394 1.327 . S
C2395 C2399 1.429 . S
C2396 C2379 1.574 . S
C2396 H2390 0.949 . S
C2396 C2400 1.368 . S
C2397 C2378 1.429 . S
C2397 C2391 1.429 . S
C2397 C2398 1.523 . S
C2398 C2379 1.368 . S
C2398 C2392 1.368 . S
C2398 C2397 1.523 . S
C2399 C2383 1.429 . S
C2399 C2395 1.429 . S
C2399 C2400 1.523 . S
C2400 C2384 1.368 . S
C2400 C2396 1.368 . S
C2400 C2399 1.523 . S
H2401 C2376 0.950 . S
H2402 C2378 0.950 . S
H2403 C2379 0.949 . S
H2404 C2381 0.950 . S
H2405 C2383 0.950 . S
C2406 C2407 1.349 . S
C2406 C2408 1.327 . S
C2406 H2431 0.939 1_556 S
C2407 C2406 1.349 . S
C2407 C2423 1.349 . S
C2408 C2406 1.327 . S
C2408 C2427 1.429 . S
C2408 H2432 0.950 . S
C2409 C2426 1.574 . S
C2409 C2428 1.368 . S
C2409 H2433 0.949 . S
H2410 C2414 0.949 . S
C2411 C2412 1.349 . S
C2411 C2413 1.327 . S
C2411 H2434 0.950 . S
C2412 C2411 1.349 . S
C2412 C2424 1.349 . S
C2413 C2411 1.327 . S
C2413 C2429 1.429 . S
C2413 H2435 0.950 . S
C2414 H2410 0.949 . S
C2414 C2422 1.574 . S
C2414 C2430 1.368 . S
H2415 C2423 0.950 . S
H2416 C2421 0.950 . S
H2417 C2422 0.949 . S
H2418 C2424 0.950 . S
H2419 C2425 0.950 . S
H2420 C2426 0.949 . S
C2421 H2416 0.950 . S
C2421 C2423 1.327 . S
C2421 C2427 1.429 . S
C2422 C2414 1.574 . S
C2422 H2417 0.949 . S
C2422 C2428 1.368 . S
C2423 C2407 1.349 . S
C2423 H2415 0.950 . S
C2423 C2421 1.327 . S
C2424 C2412 1.349 . S
C2424 H2418 0.950 . S
C2424 C2425 1.327 . S
C2425 H2419 0.950 . S
C2425 C2424 1.327 . S
C2425 C2429 1.429 . S
C2426 C2409 1.574 . S
C2426 H2420 0.949 . S
C2426 C2430 1.368 . S
C2427 C2408 1.429 . S
C2427 C2421 1.429 . S
C2427 C2428 1.523 . S
C2428 C2409 1.368 . S
C2428 C2422 1.368 . S
C2428 C2427 1.523 . S
C2429 C2413 1.429 . S
C2429 C2425 1.429 . S
C2429 C2430 1.523 . S
C2430 C2414 1.368 . S
C2430 C2426 1.368 . S
C2430 C2429 1.523 . S
H2431 C2406 0.939 1_554 S
H2432 C2408 0.950 . S
H2433 C2409 0.949 . S
H2434 C2411 0.950 . S
H2435 C2413 0.950 . S
C2436 C2437 1.349 . S
C2436 C2438 1.327 . S
C2436 H2461 0.950 . S
C2437 C2436 1.349 . S
C2437 C2453 1.349 . S
C2438 C2436 1.327 . S
C2438 C2457 1.429 . S
C2438 H2462 0.950 . S
C2439 C2456 1.574 . S
C2439 C2458 1.368 . S
C2439 H2463 0.949 . S
H2440 C2444 0.949 . S
C2441 C2442 1.349 . S
C2441 C2443 1.327 . S
C2441 H2464 0.950 . S
C2442 C2441 1.349 . S
C2442 C2454 1.349 . S
C2443 C2441 1.327 . S
C2443 C2459 1.429 . S
C2443 H2465 0.950 . S
C2444 H2440 0.949 . S
C2444 C2452 1.574 . S
C2444 C2460 1.368 . S
H2445 C2453 0.950 . S
H2446 C2451 0.950 . S
H2447 C2452 0.949 . S
H2448 C2454 0.950 . S
H2449 C2455 0.950 . S
H2450 C2456 0.949 . S
C2451 H2446 0.950 . S
C2451 C2453 1.327 . S
C2451 C2457 1.429 . S
C2452 C2444 1.574 . S
C2452 H2447 0.949 . S
C2452 C2458 1.368 . S
C2453 C2437 1.349 . S
C2453 H2445 0.950 . S
C2453 C2451 1.327 . S
C2454 C2442 1.349 . S
C2454 H2448 0.950 . S
C2454 C2455 1.327 . S
C2455 H2449 0.950 . S
C2455 C2454 1.327 . S
C2455 C2459 1.429 . S
C2456 C2439 1.574 . S
C2456 H2450 0.949 . S
C2456 C2460 1.368 . S
C2457 C2438 1.429 . S
C2457 C2451 1.429 . S
C2457 C2458 1.523 . S
C2458 C2439 1.368 . S
C2458 C2452 1.368 . S
C2458 C2457 1.523 . S
C2459 C2443 1.429 . S
C2459 C2455 1.429 . S
C2459 C2460 1.523 . S
C2460 C2444 1.368 . S
C2460 C2456 1.368 . S
C2460 C2459 1.523 . S
H2461 C2436 0.950 . S
H2462 C2438 0.950 . S
H2463 C2439 0.949 . S
H2464 C2441 0.950 . S
H2465 C2443 0.950 . S
C2466 C2467 1.349 . S
C2466 C2468 1.327 . S
C2466 H2491 0.950 . S
C2467 C2466 1.349 . S
C2467 C2483 1.349 . S
C2468 C2466 1.327 . S
C2468 C2487 1.429 . S
C2468 H2492 0.950 . S
C2469 C2486 1.574 . S
C2469 C2488 1.368 . S
C2469 H2493 0.949 . S
H2470 C2474 0.949 . S
C2471 C2472 1.349 . S
C2471 C2473 1.327 . S
C2471 H2494 0.950 . S
C2472 C2471 1.349 . S
C2472 C2484 1.349 . S
C2473 C2471 1.327 . S
C2473 C2489 1.429 . S
C2473 H2495 0.950 . S
C2474 H2470 0.949 . S
C2474 C2482 1.574 . S
C2474 C2490 1.368 . S
H2475 C2483 0.950 . S
H2476 C2481 0.950 . S
H2477 C2482 0.949 . S
H2478 C2484 0.950 . S
H2479 C2485 0.950 . S
H2480 C2486 0.949 . S
C2481 H2476 0.950 . S
C2481 C2483 1.327 . S
C2481 C2487 1.429 . S
C2482 C2474 1.574 . S
C2482 H2477 0.949 . S
C2482 C2488 1.368 . S
C2483 C2467 1.349 . S
C2483 H2475 0.950 . S
C2483 C2481 1.327 . S
C2484 C2472 1.349 . S
C2484 H2478 0.950 . S
C2484 C2485 1.327 . S
C2485 H2479 0.950 . S
C2485 C2484 1.327 . S
C2485 C2489 1.429 . S
C2486 C2469 1.574 . S
C2486 H2480 0.949 . S
C2486 C2490 1.368 . S
C2487 C2468 1.429 . S
C2487 C2481 1.429 . S
C2487 C2488 1.523 . S
C2488 C2469 1.368 . S
C2488 C2482 1.368 . S
C2488 C2487 1.523 . S
C2489 C2473 1.429 . S
C2489 C2485 1.429 . S
C2489 C2490 1.523 . S
C2490 C2474 1.368 . S
C2490 C2486 1.368 . S
C2490 C2489 1.523 . S
H2491 C2466 0.950 . S
H2492 C2468 0.950 . S
H2493 C2469 0.949 . S
H2494 C2471 0.950 . S
H2495 C2473 0.950 . S
C2496 C2497 1.349 . S
C2496 C2498 1.327 . S
C2496 H2521 0.950 . S
C2497 C2496 1.349 . S
C2497 C2513 1.349 . S
C2498 C2496 1.327 . S
C2498 C2517 1.429 . S
C2498 H2522 0.950 . S
C2499 C2516 1.574 . S
C2499 C2518 1.368 . S
C2499 H2523 0.949 . S
H2500 C2504 0.949 . S
C2501 C2502 1.349 . S
C2501 C2503 1.327 . S
C2501 H2524 0.950 . S
C2502 C2501 1.349 . S
C2502 C2514 1.349 . S
C2503 C2501 1.327 . S
C2503 C2519 1.429 . S
C2503 H2525 0.950 . S
C2504 H2500 0.949 . S
C2504 C2512 1.574 . S
C2504 C2520 1.368 . S
H2505 C2513 0.950 . S
H2506 C2511 0.950 . S
H2507 C2512 0.949 . S
H2508 C2514 0.950 . S
H2509 C2515 0.950 . S
H2510 C2516 0.949 . S
C2511 H2506 0.950 . S
C2511 C2513 1.327 . S
C2511 C2517 1.429 . S
C2512 C2504 1.574 . S
C2512 H2507 0.949 . S
C2512 C2518 1.368 . S
C2513 C2497 1.349 . S
C2513 H2505 0.950 . S
C2513 C2511 1.327 . S
C2514 C2502 1.349 . S
C2514 H2508 0.950 . S
C2514 C2515 1.327 . S
C2515 H2509 0.950 . S
C2515 C2514 1.327 . S
C2515 C2519 1.429 . S
C2516 C2499 1.574 . S
C2516 H2510 0.949 . S
C2516 C2520 1.368 . S
C2517 C2498 1.429 . S
C2517 C2511 1.429 . S
C2517 C2518 1.523 . S
C2518 C2499 1.368 . S
C2518 C2512 1.368 . S
C2518 C2517 1.523 . S
C2519 C2503 1.429 . S
C2519 C2515 1.429 . S
C2519 C2520 1.523 . S
C2520 C2504 1.368 . S
C2520 C2516 1.368 . S
C2520 C2519 1.523 . S
H2521 C2496 0.950 . S
H2522 C2498 0.950 . S
H2523 C2499 0.949 . S
H2524 C2501 0.950 . S
H2525 C2503 0.950 . S
C2526 C2527 1.349 . S
C2526 C2528 1.327 . S
C2526 H2551 0.950 . S
C2527 C2526 1.349 . S
C2527 C2543 1.349 . S
C2528 C2526 1.327 . S
C2528 C2547 1.429 . S
C2528 H2552 0.950 . S
C2529 C2546 1.574 . S
C2529 C2548 1.368 . S
C2529 H2553 0.949 . S
H2530 C2534 0.949 . S
C2531 C2532 1.349 . S
C2531 C2533 1.327 . S
C2531 H2554 0.950 . S
C2532 C2531 1.349 . S
C2532 C2544 1.349 . S
C2533 C2531 1.327 . S
C2533 C2549 1.429 . S
C2533 H2555 0.950 . S
C2534 H2530 0.949 . S
C2534 C2542 1.574 . S
C2534 C2550 1.368 . S
H2535 C2543 0.950 . S
H2536 C2541 0.950 . S
H2537 C2542 0.949 . S
H2538 C2544 0.950 . S
H2539 C2545 0.950 . S
H2540 C2546 0.949 . S
C2541 H2536 0.950 . S
C2541 C2543 1.327 . S
C2541 C2547 1.429 . S
C2542 C2534 1.574 . S
C2542 H2537 0.949 . S
C2542 C2548 1.368 . S
C2543 C2527 1.349 . S
C2543 H2535 0.950 . S
C2543 C2541 1.327 . S
C2544 C2532 1.349 . S
C2544 H2538 0.950 . S
C2544 C2545 1.327 . S
C2545 H2539 0.950 . S
C2545 C2544 1.327 . S
C2545 C2549 1.429 . S
C2546 C2529 1.574 . S
C2546 H2540 0.949 . S
C2546 C2550 1.368 . S
C2547 C2528 1.429 . S
C2547 C2541 1.429 . S
C2547 C2548 1.523 . S
C2548 C2529 1.368 . S
C2548 C2542 1.368 . S
C2548 C2547 1.523 . S
C2549 C2533 1.429 . S
C2549 C2545 1.429 . S
C2549 C2550 1.523 . S
C2550 C2534 1.368 . S
C2550 C2546 1.368 . S
C2550 C2549 1.523 . S
H2551 C2526 0.950 . S
H2552 C2528 0.950 . S
H2553 C2529 0.949 . S
H2554 C2531 0.950 . S
H2555 C2533 0.950 . S
C2556 C2557 1.349 . S
C2556 C2558 1.327 . S
C2556 H2581 0.950 . S
C2557 C2556 1.349 . S
C2557 C2573 1.349 . S
C2558 C2556 1.327 . S
C2558 C2577 1.429 . S
C2558 H2582 0.950 . S
C2559 C2576 1.574 . S
C2559 C2578 1.368 . S
C2559 H2583 0.949 . S
H2560 C2564 0.949 . S
C2561 C2562 1.349 . S
C2561 C2563 1.327 . S
C2561 H2584 0.950 . S
C2562 C2561 1.349 . S
C2562 C2574 1.349 . S
C2563 C2561 1.327 . S
C2563 C2579 1.429 . S
C2563 H2585 0.950 . S
C2564 H2560 0.949 . S
C2564 C2572 1.574 . S
C2564 C2580 1.368 . S
H2565 C2573 0.950 . S
H2566 C2571 0.950 . S
H2567 C2572 0.949 . S
H2568 C2574 0.950 . S
H2569 C2575 0.950 . S
H2570 C2576 0.949 . S
C2571 H2566 0.950 . S
C2571 C2573 1.327 . S
C2571 C2577 1.429 . S
C2572 C2564 1.574 . S
C2572 H2567 0.949 . S
C2572 C2578 1.368 . S
C2573 C2557 1.349 . S
C2573 H2565 0.950 . S
C2573 C2571 1.327 . S
C2574 C2562 1.349 . S
C2574 H2568 0.950 . S
C2574 C2575 1.327 . S
C2575 H2569 0.950 . S
C2575 C2574 1.327 . S
C2575 C2579 1.429 . S
C2576 C2559 1.574 . S
C2576 H2570 0.949 . S
C2576 C2580 1.368 . S
C2577 C2558 1.429 . S
C2577 C2571 1.429 . S
C2577 C2578 1.523 . S
C2578 C2559 1.368 . S
C2578 C2572 1.368 . S
C2578 C2577 1.523 . S
C2579 C2563 1.429 . S
C2579 C2575 1.429 . S
C2579 C2580 1.523 . S
C2580 C2564 1.368 . S
C2580 C2576 1.368 . S
C2580 C2579 1.523 . S
H2581 C2556 0.950 . S
H2582 C2558 0.950 . S
H2583 C2559 0.949 . S
H2584 C2561 0.950 . S
H2585 C2563 0.950 . S
C2586 C2587 1.349 . S
C2586 C2588 1.327 . S
C2586 H2611 0.950 . S
C2587 C2586 1.349 . S
C2587 C2603 1.349 . S
C2588 C2586 1.327 . S
C2588 C2607 1.429 . S
C2588 H2612 0.950 . S
C2589 C2606 1.574 . S
C2589 C2608 1.368 . S
C2589 H2613 0.949 . S
H2590 C2594 0.949 . S
C2591 C2592 1.349 . S
C2591 C2593 1.327 . S
C2591 H2614 0.950 . S
C2592 C2591 1.349 . S
C2592 C2604 1.349 . S
C2593 C2591 1.327 . S
C2593 C2609 1.429 . S
C2593 H2615 0.950 . S
C2594 H2590 0.949 . S
C2594 C2602 1.574 . S
C2594 C2610 1.368 . S
H2595 C2603 0.950 . S
H2596 C2601 0.950 . S
H2597 C2602 0.949 . S
H2598 C2604 0.950 . S
H2599 C2605 0.950 . S
H2600 C2606 0.949 . S
C2601 H2596 0.950 . S
C2601 C2603 1.327 . S
C2601 C2607 1.429 . S
C2602 C2594 1.574 . S
C2602 H2597 0.949 . S
C2602 C2608 1.368 . S
C2603 C2587 1.349 . S
C2603 H2595 0.950 . S
C2603 C2601 1.327 . S
C2604 C2592 1.349 . S
C2604 H2598 0.950 . S
C2604 C2605 1.327 . S
C2605 H2599 0.950 . S
C2605 C2604 1.327 . S
C2605 C2609 1.429 . S
C2606 C2589 1.574 . S
C2606 H2600 0.949 . S
C2606 C2610 1.368 . S
C2607 C2588 1.429 . S
C2607 C2601 1.429 . S
C2607 C2608 1.523 . S
C2608 C2589 1.368 . S
C2608 C2602 1.368 . S
C2608 C2607 1.523 . S
C2609 C2593 1.429 . S
C2609 C2605 1.429 . S
C2609 C2610 1.523 . S
C2610 C2594 1.368 . S
C2610 C2606 1.368 . S
C2610 C2609 1.523 . S
H2611 C2586 0.950 . S
H2612 C2588 0.950 . S
H2613 C2589 0.949 . S
H2614 C2591 0.950 . S
H2615 C2593 0.950 . S
C2616 C2617 1.349 . S
C2616 C2618 1.327 . S
C2616 H2641 0.950 . S
C2617 C2616 1.349 . S
C2617 C2633 1.349 . S
C2618 C2616 1.327 . S
C2618 C2637 1.429 . S
C2618 H2642 0.950 . S
C2619 C2636 1.574 . S
C2619 C2638 1.368 . S
C2619 H2643 0.949 . S
H2620 C2624 0.949 . S
C2621 C2622 1.349 . S
C2621 C2623 1.327 . S
C2621 H2644 0.950 . S
C2622 C2621 1.349 . S
C2622 C2634 1.349 . S
C2623 C2621 1.327 . S
C2623 C2639 1.429 . S
C2623 H2645 0.950 . S
C2624 H2620 0.949 . S
C2624 C2632 1.574 . S
C2624 C2640 1.368 . S
H2625 C2633 0.950 . S
H2626 C2631 0.950 . S
H2627 C2632 0.949 . S
H2628 C2634 0.950 . S
H2629 C2635 0.950 . S
H2630 C2636 0.949 . S
C2631 H2626 0.950 . S
C2631 C2633 1.327 . S
C2631 C2637 1.429 . S
C2632 C2624 1.574 . S
C2632 H2627 0.949 . S
C2632 C2638 1.368 . S
C2633 C2617 1.349 . S
C2633 H2625 0.950 . S
C2633 C2631 1.327 . S
C2634 C2622 1.349 . S
C2634 H2628 0.950 . S
C2634 C2635 1.327 . S
C2635 H2629 0.950 . S
C2635 C2634 1.327 . S
C2635 C2639 1.429 . S
C2636 C2619 1.574 . S
C2636 H2630 0.949 . S
C2636 C2640 1.368 . S
C2637 C2618 1.429 . S
C2637 C2631 1.429 . S
C2637 C2638 1.523 . S
C2638 C2619 1.368 . S
C2638 C2632 1.368 . S
C2638 C2637 1.523 . S
C2639 C2623 1.429 . S
C2639 C2635 1.429 . S
C2639 C2640 1.523 . S
C2640 C2624 1.368 . S
C2640 C2636 1.368 . S
C2640 C2639 1.523 . S
H2641 C2616 0.950 . S
H2642 C2618 0.950 . S
H2643 C2619 0.949 . S
H2644 C2621 0.950 . S
H2645 C2623 0.950 . S
C2646 C2647 1.349 . S
C2646 C2648 1.327 . S
C2646 H2671 0.950 . S
C2647 C2646 1.349 . S
C2647 C2663 1.349 . S
C2648 C2646 1.327 . S
C2648 C2667 1.429 . S
C2648 H2672 0.950 . S
C2649 C2666 1.574 . S
C2649 C2668 1.368 . S
C2649 H2673 0.949 . S
H2650 C2654 0.949 . S
C2651 C2652 1.349 . S
C2651 C2653 1.327 . S
C2651 H2674 0.950 . S
C2652 C2651 1.349 . S
C2652 C2664 1.349 . S
C2653 C2651 1.327 . S
C2653 C2669 1.429 . S
C2653 H2675 0.950 . S
C2654 H2650 0.949 . S
C2654 C2662 1.574 . S
C2654 C2670 1.368 . S
H2655 C2663 0.950 . S
H2656 C2661 0.950 . S
H2657 C2662 0.949 . S
H2658 C2664 0.950 . S
H2659 C2665 0.950 . S
H2660 C2666 0.949 . S
C2661 H2656 0.950 . S
C2661 C2663 1.327 . S
C2661 C2667 1.429 . S
C2662 C2654 1.574 . S
C2662 H2657 0.949 . S
C2662 C2668 1.368 . S
C2663 C2647 1.349 . S
C2663 H2655 0.950 . S
C2663 C2661 1.327 . S
C2664 C2652 1.349 . S
C2664 H2658 0.950 . S
C2664 C2665 1.327 . S
C2665 H2659 0.950 . S
C2665 C2664 1.327 . S
C2665 C2669 1.429 . S
C2666 C2649 1.574 . S
C2666 H2660 0.949 . S
C2666 C2670 1.368 . S
C2667 C2648 1.429 . S
C2667 C2661 1.429 . S
C2667 C2668 1.523 . S
C2668 C2649 1.368 . S
C2668 C2662 1.368 . S
C2668 C2667 1.523 . S
C2669 C2653 1.429 . S
C2669 C2665 1.429 . S
C2669 C2670 1.523 . S
C2670 C2654 1.368 . S
C2670 C2666 1.368 . S
C2670 C2669 1.523 . S
H2671 C2646 0.950 . S
H2672 C2648 0.950 . S
H2673 C2649 0.949 . S
H2674 C2651 0.950 . S
H2675 C2653 0.950 . S
C2676 C2677 1.349 . S
C2676 C2678 1.327 . S
C2676 H2701 0.950 . S
C2677 C2676 1.349 . S
C2677 C2693 1.349 . S
C2678 C2676 1.327 . S
C2678 C2697 1.429 . S
C2678 H2702 0.950 . S
C2679 C2696 1.574 . S
C2679 C2698 1.368 . S
C2679 H2703 0.949 . S
H2680 C2684 0.949 . S
C2681 C2682 1.349 . S
C2681 C2683 1.327 . S
C2681 H2704 0.950 . S
C2682 C2681 1.349 . S
C2682 C2694 1.349 . S
C2683 C2681 1.327 . S
C2683 C2699 1.429 . S
C2683 H2705 0.950 . S
C2684 H2680 0.949 . S
C2684 C2692 1.574 . S
C2684 C2700 1.368 . S
H2685 C2693 0.950 . S
H2686 C2691 0.950 . S
H2687 C2692 0.949 . S
H2688 C2694 0.950 . S
H2689 C2695 0.950 . S
H2690 C2696 0.949 . S
C2691 H2686 0.950 . S
C2691 C2693 1.327 . S
C2691 C2697 1.429 . S
C2692 C2684 1.574 . S
C2692 H2687 0.949 . S
C2692 C2698 1.368 . S
C2693 C2677 1.349 . S
C2693 H2685 0.950 . S
C2693 C2691 1.327 . S
C2694 C2682 1.349 . S
C2694 H2688 0.950 . S
C2694 C2695 1.327 . S
C2695 H2689 0.950 . S
C2695 C2694 1.327 . S
C2695 C2699 1.429 . S
C2696 C2679 1.574 . S
C2696 H2690 0.949 . S
C2696 C2700 1.368 . S
C2697 C2678 1.429 . S
C2697 C2691 1.429 . S
C2697 C2698 1.523 . S
C2698 C2679 1.368 . S
C2698 C2692 1.368 . S
C2698 C2697 1.523 . S
C2699 C2683 1.429 . S
C2699 C2695 1.429 . S
C2699 C2700 1.523 . S
C2700 C2684 1.368 . S
C2700 C2696 1.368 . S
C2700 C2699 1.523 . S
H2701 C2676 0.950 . S
H2702 C2678 0.950 . S
H2703 C2679 0.949 . S
H2704 C2681 0.950 . S
H2705 C2683 0.950 . S
C2706 C2707 1.349 . S
C2706 C2708 1.327 . S
C2706 H2731 0.950 . S
C2707 C2706 1.349 . S
C2707 C2723 1.349 . S
C2708 C2706 1.327 . S
C2708 C2727 1.429 . S
C2708 H2732 0.950 . S
C2709 C2726 1.574 . S
C2709 C2728 1.368 . S
C2709 H2733 0.949 . S
H2710 C2714 0.949 . S
C2711 C2712 1.349 . S
C2711 C2713 1.327 . S
C2711 H2734 0.950 . S
C2712 C2711 1.349 . S
C2712 C2724 1.349 . S
C2713 C2711 1.327 . S
C2713 C2729 1.429 . S
C2713 H2735 0.950 . S
C2714 H2710 0.949 . S
C2714 C2722 1.574 . S
C2714 C2730 1.368 . S
H2715 C2723 0.950 . S
H2716 C2721 0.950 . S
H2717 C2722 0.949 . S
H2718 C2724 0.950 . S
H2719 C2725 0.950 . S
H2720 C2726 0.949 . S
C2721 H2716 0.950 . S
C2721 C2723 1.327 . S
C2721 C2727 1.429 . S
C2722 C2714 1.574 . S
C2722 H2717 0.949 . S
C2722 C2728 1.368 . S
C2723 C2707 1.349 . S
C2723 H2715 0.950 . S
C2723 C2721 1.327 . S
C2724 C2712 1.349 . S
C2724 H2718 0.950 . S
C2724 C2725 1.327 . S
C2725 H2719 0.950 . S
C2725 C2724 1.327 . S
C2725 C2729 1.429 . S
C2726 C2709 1.574 . S
C2726 H2720 0.949 . S
C2726 C2730 1.368 . S
C2727 C2708 1.429 . S
C2727 C2721 1.429 . S
C2727 C2728 1.523 . S
C2728 C2709 1.368 . S
C2728 C2722 1.368 . S
C2728 C2727 1.523 . S
C2729 C2713 1.429 . S
C2729 C2725 1.429 . S
C2729 C2730 1.523 . S
C2730 C2714 1.368 . S
C2730 C2726 1.368 . S
C2730 C2729 1.523 . S
H2731 C2706 0.950 . S
H2732 C2708 0.950 . S
H2733 C2709 0.949 . S
H2734 C2711 0.950 . S
H2735 C2713 0.950 . S
C2736 C2737 1.349 . S
C2736 C2738 1.327 . S
C2736 H2761 0.950 . S
C2737 C2736 1.349 . S
C2737 C2753 1.349 . S
C2738 C2736 1.327 . S
C2738 C2757 1.429 . S
C2738 H2762 0.950 . S
C2739 C2756 1.574 . S
C2739 C2758 1.368 . S
C2739 H2763 0.949 . S
H2740 C2744 0.949 . S
C2741 C2742 1.349 . S
C2741 C2743 1.327 . S
C2741 H2764 0.950 . S
C2742 C2741 1.349 . S
C2742 C2754 1.349 . S
C2743 C2741 1.327 . S
C2743 C2759 1.429 . S
C2743 H2765 0.950 . S
C2744 H2740 0.949 . S
C2744 C2752 1.574 . S
C2744 C2760 1.368 . S
H2745 C2753 0.950 . S
H2746 C2751 0.950 . S
H2747 C2752 0.949 . S
H2748 C2754 0.950 . S
H2749 C2755 0.950 . S
H2750 C2756 0.949 . S
C2751 H2746 0.950 . S
C2751 C2753 1.327 . S
C2751 C2757 1.429 . S
C2752 C2744 1.574 . S
C2752 H2747 0.949 . S
C2752 C2758 1.368 . S
C2753 C2737 1.349 . S
C2753 H2745 0.950 . S
C2753 C2751 1.327 . S
C2754 C2742 1.349 . S
C2754 H2748 0.950 . S
C2754 C2755 1.327 . S
C2755 H2749 0.950 . S
C2755 C2754 1.327 . S
C2755 C2759 1.429 . S
C2756 C2739 1.574 . S
C2756 H2750 0.949 . S
C2756 C2760 1.368 . S
C2757 C2738 1.429 . S
C2757 C2751 1.429 . S
C2757 C2758 1.523 . S
C2758 C2739 1.368 . S
C2758 C2752 1.368 . S
C2758 C2757 1.523 . S
C2759 C2743 1.429 . S
C2759 C2755 1.429 . S
C2759 C2760 1.523 . S
C2760 C2744 1.368 . S
C2760 C2756 1.368 . S
C2760 C2759 1.523 . S
H2761 C2736 0.950 . S
H2762 C2738 0.950 . S
H2763 C2739 0.949 . S
H2764 C2741 0.950 . S
H2765 C2743 0.950 . S
C2766 C2767 1.349 . S
C2766 C2768 1.327 . S
C2766 H2791 0.950 . S
C2767 C2766 1.349 . S
C2767 C2783 1.349 . S
C2768 C2766 1.327 . S
C2768 C2787 1.429 . S
C2768 H2792 0.950 . S
C2769 C2786 1.574 . S
C2769 C2788 1.368 . S
C2769 H2793 0.949 . S
H2770 C2774 0.949 . S
C2771 C2772 1.349 . S
C2771 C2773 1.327 . S
C2771 H2794 0.950 . S
C2772 C2771 1.349 . S
C2772 C2784 1.349 . S
C2773 C2771 1.327 . S
C2773 C2789 1.429 . S
C2773 H2795 0.950 . S
C2774 H2770 0.949 . S
C2774 C2782 1.574 . S
C2774 C2790 1.368 . S
H2775 C2783 0.950 . S
H2776 C2781 0.950 . S
H2777 C2782 0.949 . S
H2778 C2784 0.950 . S
H2779 C2785 0.950 . S
H2780 C2786 0.949 . S
C2781 H2776 0.950 . S
C2781 C2783 1.327 . S
C2781 C2787 1.429 . S
C2782 C2774 1.574 . S
C2782 H2777 0.949 . S
C2782 C2788 1.368 . S
C2783 C2767 1.349 . S
C2783 H2775 0.950 . S
C2783 C2781 1.327 . S
C2784 C2772 1.349 . S
C2784 H2778 0.950 . S
C2784 C2785 1.327 . S
C2785 H2779 0.950 . S
C2785 C2784 1.327 . S
C2785 C2789 1.429 . S
C2786 C2769 1.574 . S
C2786 H2780 0.949 . S
C2786 C2790 1.368 . S
C2787 C2768 1.429 . S
C2787 C2781 1.429 . S
C2787 C2788 1.523 . S
C2788 C2769 1.368 . S
C2788 C2782 1.368 . S
C2788 C2787 1.523 . S
C2789 C2773 1.429 . S
C2789 C2785 1.429 . S
C2789 C2790 1.523 . S
C2790 C2774 1.368 . S
C2790 C2786 1.368 . S
C2790 C2789 1.523 . S
H2791 C2766 0.950 . S
H2792 C2768 0.950 . S
H2793 C2769 0.949 . S
H2794 C2771 0.950 . S
H2795 C2773 0.950 . S
C2796 C2797 1.349 . S
C2796 C2798 1.327 . S
C2796 H2821 0.950 . S
C2797 C2796 1.349 . S
C2797 C2813 1.349 . S
C2798 C2796 1.327 . S
C2798 C2817 1.429 . S
C2798 H2822 0.950 . S
C2799 C2816 1.574 . S
C2799 C2818 1.368 . S
C2799 H2823 0.949 . S
H2800 C2804 0.949 . S
C2801 C2802 1.349 . S
C2801 C2803 1.327 . S
C2801 H2824 0.950 . S
C2802 C2801 1.349 . S
C2802 C2814 1.349 . S
C2803 C2801 1.327 . S
C2803 C2819 1.429 . S
C2803 H2825 0.950 . S
C2804 H2800 0.949 . S
C2804 C2812 1.574 . S
C2804 C2820 1.368 . S
H2805 C2813 0.950 . S
H2806 C2811 0.950 . S
H2807 C2812 0.949 . S
H2808 C2814 0.950 . S
H2809 C2815 0.950 . S
H2810 C2816 0.949 . S
C2811 H2806 0.950 . S
C2811 C2813 1.327 . S
C2811 C2817 1.429 . S
C2812 C2804 1.574 . S
C2812 H2807 0.949 . S
C2812 C2818 1.368 . S
C2813 C2797 1.349 . S
C2813 H2805 0.950 . S
C2813 C2811 1.327 . S
C2814 C2802 1.349 . S
C2814 H2808 0.950 . S
C2814 C2815 1.327 . S
C2815 H2809 0.950 . S
C2815 C2814 1.327 . S
C2815 C2819 1.429 . S
C2816 C2799 1.574 . S
C2816 H2810 0.949 . S
C2816 C2820 1.368 . S
C2817 C2798 1.429 . S
C2817 C2811 1.429 . S
C2817 C2818 1.523 . S
C2818 C2799 1.368 . S
C2818 C2812 1.368 . S
C2818 C2817 1.523 . S
C2819 C2803 1.429 . S
C2819 C2815 1.429 . S
C2819 C2820 1.523 . S
C2820 C2804 1.368 . S
C2820 C2816 1.368 . S
C2820 C2819 1.523 . S
H2821 C2796 0.950 . S
H2822 C2798 0.950 . S
H2823 C2799 0.949 . S
H2824 C2801 0.950 . S
H2825 C2803 0.950 . S
C2826 C2827 1.349 . S
C2826 C2828 1.327 . S
C2826 H2851 0.950 . S
C2827 C2826 1.349 . S
C2827 C2843 1.349 . S
C2828 C2826 1.327 . S
C2828 C2847 1.429 . S
C2828 H2852 0.950 . S
C2829 C2846 1.574 . S
C2829 C2848 1.368 . S
C2829 H2853 0.949 . S
H2830 C2834 0.949 . S
C2831 C2832 1.349 . S
C2831 C2833 1.327 . S
C2831 H2854 0.950 . S
C2832 C2831 1.349 . S
C2832 C2844 1.349 . S
C2833 C2831 1.327 . S
C2833 C2849 1.429 . S
C2833 H2855 0.950 . S
C2834 H2830 0.949 . S
C2834 C2842 1.574 . S
C2834 C2850 1.368 . S
H2835 C2843 0.950 . S
H2836 C2841 0.950 . S
H2837 C2842 0.949 . S
H2838 C2844 0.950 . S
H2839 C2845 0.950 . S
H2840 C2846 0.949 . S
C2841 H2836 0.950 . S
C2841 C2843 1.327 . S
C2841 C2847 1.429 . S
C2842 C2834 1.574 . S
C2842 H2837 0.949 . S
C2842 C2848 1.368 . S
C2843 C2827 1.349 . S
C2843 H2835 0.950 . S
C2843 C2841 1.327 . S
C2844 C2832 1.349 . S
C2844 H2838 0.950 . S
C2844 C2845 1.327 . S
C2845 H2839 0.950 . S
C2845 C2844 1.327 . S
C2845 C2849 1.429 . S
C2846 C2829 1.574 . S
C2846 H2840 0.949 . S
C2846 C2850 1.368 . S
C2847 C2828 1.429 . S
C2847 C2841 1.429 . S
C2847 C2848 1.523 . S
C2848 C2829 1.368 . S
C2848 C2842 1.368 . S
C2848 C2847 1.523 . S
C2849 C2833 1.429 . S
C2849 C2845 1.429 . S
C2849 C2850 1.523 . S
C2850 C2834 1.368 . S
C2850 C2846 1.368 . S
C2850 C2849 1.523 . S
H2851 C2826 0.950 . S
H2852 C2828 0.950 . S
H2853 C2829 0.949 . S
H2854 C2831 0.950 . S
H2855 C2833 0.950 . S
C1417 C829 1.360 . S
C1422 C5 1.372 . S
C1447 C62 1.355 . S
C1452 C890 1.367 . S
C1477 C1114 1.545 . S
C1482 C170 1.545 . S
C1507 C210 1.914 . S
C1512 C800 1.914 . S
C1537 C859 1.917 . S
C1542 C288 1.911 . S
C1567 C328 1.548 . S
C1572 C937 1.542 . S
C1597 C359 1.366 . S
C1602 C1067 1.368 . S
C1627 C416 1.365 . S
C1632 C770 1.357 . S
C1657 C536 1.367 . S
C1662 C475 1.364 . S
C1687 C623 1.915 . S
C1692 C583 1.910 . S
C1717 C593 1.359 . S
C1722 C654 1.371 . S
C1747 C701 1.541 . S
C1752 C505 1.547 . S
C1777 C713 1.367 . S
C1782 C180 1.355 . S
C1807 C241 1.366 . S
C1812 C949 1.368 . S
C1837 C1036 1.914 . S
C1842 C92 1.914 . S
C1867 C64 1.805 . S
C1872 C1291 1.803 . S
C1897 C534 1.804 . S
C1902 C33 1.811 . S
C1927 C1409 1.972 . S
C1932 C229 1.972 . S
C1957 C652 1.243 . S
C1962 C121 1.244 . S
C1987 C1244 1.241 . S
C1992 C418 1.241 . S
C2017 C564 1.980 . S
C2022 C387 1.979 . S
C2047 C347 1.805 . S
C2052 C1362 1.807 . S
C2077 C239 1.801 . S
C2082 C682 1.807 . S
C2107 C918 1.805 . S
C2112 C1126 1.805 . S
C2137 C947 1.241 . S
C2142 C888 1.241 . S
C2167 C772 1.806 . S
C2172 C977 1.806 . S
C2197 C1173 1.975 . S
C2202 C819 1.975 . S
C2227 C151 1.811 . S
C2232 C1183 1.804 . S
C2257 C595 1.807 . S
C2262 C465 1.805 . S
C2287 C3 1.243 . S
C2292 C1301 1.243 . S
C2317 C1124 1.360 . S
C2322 C123 1.372 . S
C2347 C52 1.545 . S
C2352 C996 1.545 . S
C2377 C1154 1.917 . S
C2382 C406 1.911 . S
C2407 C760 1.542 . S
C2412 C446 1.548 . S
C2437 C298 1.365 . S
C2442 C1006 1.357 . S
C2467 C1242 1.364 . S
C2472 C1185 1.367 . S
C2497 C1390 1.915 . S
C2502 C1232 1.910 . S
C2527 C1303 1.371 . S
C2532 C1360 1.359 . S
C2557 C1272 1.547 . S
C2562 C1350 1.541 . S
C2587 C524 1.803 . S
C2592 C182 1.805 . S
C2617 C111 1.972 . S
C2622 C642 1.972 . S
C2647 C300 1.240 . S
C2652 C477 1.240 . S
C2677 C1213 1.980 . S
C2682 C269 1.979 . S
C2707 C357 1.801 . S
C2712 C1331 1.807 . S
C2737 C741 1.805 . S
C2742 C831 1.805 . S
C2767 C1065 1.241 . S
C2772 C711 1.241 . S
C2797 C1008 1.806 . S
C2802 C1095 1.807 . S
C2827 C878 1.975 . S
C2832 C1055 1.975 . S
