# Generated by pormake.
# Topology acs-i, (5)-cn, num edge types: 1
# Building blocks:
#     Node 0, Type 0, BuildingBlock: XOMCOT_clean_sbu_0, # of connection points: 5
#     Node 1, Type 0, BuildingBlock: XOMCOT_clean_sbu_0, # of connection points: 5
#     Node 2, Type 0, BuildingBlock: XOMCOT_clean_sbu_0, # of connection points: 5
#     Node 3, Type 0, BuildingBlock: XOMCOT_clean_sbu_0, # of connection points: 5
#     Node 4, Type 0, BuildingBlock: XOMCOT_clean_sbu_0, # of connection points: 5
#     Node 5, Type 0, BuildingBlock: XOMCOT_clean_sbu_0, # of connection points: 5
#     Node 6, Type 0, BuildingBlock: XOMCOT_clean_sbu_0, # of connection points: 5
#     Node 7, Type 0, BuildingBlock: XOMCOT_clean_sbu_0, # of connection points: 5
#     Node 8, Type 0, BuildingBlock: XOMCOT_clean_sbu_0, # of connection points: 5
#     Node 9, Type 0, BuildingBlock: XOMCOT_clean_sbu_0, # of connection points: 5
#     Node 10, Type 0, BuildingBlock: XOMCOT_clean_sbu_0, # of connection points: 5
#     Node 11, Type 0, BuildingBlock: XOMCOT_clean_sbu_0, # of connection points: 5
#     Edge 12, Type (0, 0), BuildingBlock: AJUNOK_clean_linker_0, # of connection points: 2
#     Edge 13, Type (0, 0), BuildingBlock: AJUNOK_clean_linker_0, # of connection points: 2
#     Edge 14, Type (0, 0), BuildingBlock: AJUNOK_clean_linker_0, # of connection points: 2
#     Edge 15, Type (0, 0), BuildingBlock: AJUNOK_clean_linker_0, # of connection points: 2
#     Edge 16, Type (0, 0), BuildingBlock: AJUNOK_clean_linker_0, # of connection points: 2
#     Edge 17, Type (0, 0), BuildingBlock: AJUNOK_clean_linker_0, # of connection points: 2
#     Edge 18, Type (0, 0), BuildingBlock: AJUNOK_clean_linker_0, # of connection points: 2
#     Edge 19, Type (0, 0), BuildingBlock: AJUNOK_clean_linker_0, # of connection points: 2
#     Edge 20, Type (0, 0), BuildingBlock: AJUNOK_clean_linker_0, # of connection points: 2
#     Edge 21, Type (0, 0), BuildingBlock: AJUNOK_clean_linker_0, # of connection points: 2
#     Edge 22, Type (0, 0), BuildingBlock: AJUNOK_clean_linker_0, # of connection points: 2
#     Edge 23, Type (0, 0), BuildingBlock: AJUNOK_clean_linker_0, # of connection points: 2
#     Edge 24, Type (0, 0), BuildingBlock: AJUNOK_clean_linker_0, # of connection points: 2
#     Edge 25, Type (0, 0), BuildingBlock: AJUNOK_clean_linker_0, # of connection points: 2
#     Edge 26, Type (0, 0), BuildingBlock: AJUNOK_clean_linker_0, # of connection points: 2
#     Edge 27, Type (0, 0), BuildingBlock: AJUNOK_clean_linker_0, # of connection points: 2
#     Edge 28, Type (0, 0), BuildingBlock: AJUNOK_clean_linker_0, # of connection points: 2
#     Edge 29, Type (0, 0), BuildingBlock: AJUNOK_clean_linker_0, # of connection points: 2
#     Edge 30, Type (0, 0), BuildingBlock: AJUNOK_clean_linker_0, # of connection points: 2
#     Edge 31, Type (0, 0), BuildingBlock: AJUNOK_clean_linker_0, # of connection points: 2
#     Edge 32, Type (0, 0), BuildingBlock: AJUNOK_clean_linker_0, # of connection points: 2
#     Edge 33, Type (0, 0), BuildingBlock: AJUNOK_clean_linker_0, # of connection points: 2
#     Edge 34, Type (0, 0), BuildingBlock: AJUNOK_clean_linker_0, # of connection points: 2
#     Edge 35, Type (0, 0), BuildingBlock: AJUNOK_clean_linker_0, # of connection points: 2
#     Edge 36, Type (0, 0), BuildingBlock: AJUNOK_clean_linker_0, # of connection points: 2
#     Edge 37, Type (0, 0), BuildingBlock: AJUNOK_clean_linker_0, # of connection points: 2
#     Edge 38, Type (0, 0), BuildingBlock: AJUNOK_clean_linker_0, # of connection points: 2
#     Edge 39, Type (0, 0), BuildingBlock: AJUNOK_clean_linker_0, # of connection points: 2
#     Edge 40, Type (0, 0), BuildingBlock: AJUNOK_clean_linker_0, # of connection points: 2
#     Edge 41, Type (0, 0), BuildingBlock: AJUNOK_clean_linker_0, # of connection points: 2
# Relax obj value: 0.862
# Max RMSD: 0.237
# Mean RMSD: 0.237
data_MOF--net-acs-i--node1-XOMCOT_clean_sbu_0--edge1-AJUNOK_clean_linker_0
_symmetry_space_group_name_H-M    P1
_symmetry_Int_Tables_number       1
_symmetry_cell_setting            triclinic
loop_
_symmetry_equiv_pos_as_xyz
'x, y, z'
_cell_length_a     40.567348
_cell_length_b     40.575052
_cell_length_c     27.392498
_cell_angle_alpha  89.966659
_cell_angle_beta   89.981031
_cell_angle_gamma 119.90872
loop_
_atom_site_label
_atom_site_type_symbol
_atom_site_fract_x
_atom_site_fract_y
_atom_site_fract_z
_atom_type_partial_charge
Co0 Co 0.3286 0.51909 0.08115 0.0
C1 C 0.38497 0.51315 0.14809 0.0
C2 C 0.40124 0.56948 0.12415 0.0
C3 C 0.42893 0.5716 0.15415 0.0
N4 N 0.37411 0.53287 0.11876 0.0
N5 N 0.41887 0.53628 0.16984 0.0
H6 H 0.36742 0.48342 0.15684 0.0
H7 H 0.39993 0.59347 0.10918 0.0
C8 C 0.39474 0.56446 0.01534 0.0
O9 O 0.40789 0.5417 0.02686 0.0
N10 N 0.28458 0.5087 0.04338 0.0
C11 C 0.25257 0.47565 0.03421 0.0
C12 C 0.22733 0.48376 0.01041 0.0
C13 C 0.27868 0.53609 0.02516 0.0
N14 N 0.24395 0.52188 0.00501 0.0
C15 C 0.32331 0.44669 0.07873 0.0
C16 C 0.34687 0.44934 0.98355 0.0
C17 C 0.34547 0.42153 0.01536 0.0
C18 C 0.33102 0.41889 0.06236 0.0
C19 C 0.33802 0.47638 0.00144 0.0
N20 N 0.33042 0.47697 0.04994 0.0
H21 H 0.31364 0.44476 0.11579 0.0
H22 H 0.33971 0.49811 0.97709 0.0
H23 H 0.2474 0.44795 0.04564 0.0
H24 H 0.29862 0.56615 0.02958 0.0
O25 O 0.29701 0.49157 0.13568 0.0
O26 O 0.31976 0.5529 0.12329 0.0
O27 O 0.36167 0.55687 0.02984 0.0
C28 C 0.29991 0.52316 0.15074 0.0
H29 H 0.45236 0.59783 0.168 0.0
H30 H 0.19866 0.46331 -0.00064 0.0
H31 H 0.35705 0.45175 0.94645 0.0
H32 H 0.32806 0.39687 0.08738 0.0
Co33 Co 0.81828 0.31853 0.58165 0.0
C34 C 0.85941 0.38181 0.6516 0.0
C35 C 0.89247 0.38934 0.58748 0.0
C36 C 0.91085 0.42209 0.61474 0.0
N37 N 0.86036 0.36361 0.61093 0.0
N38 N 0.88971 0.41706 0.65459 0.0
H39 H 0.83604 0.37086 0.67723 0.0
H40 H 0.90065 0.38621 0.55103 0.0
C41 C 0.79234 0.35382 0.50265 0.0
O42 O 0.76966 0.32159 0.48067 0.0
N43 N 0.77617 0.27452 0.55132 0.0
C44 C 0.77661 0.2464 0.5254 0.0
C45 C 0.74018 0.22166 0.50925 0.0
C46 C 0.73945 0.26578 0.55202 0.0
N47 N 0.71729 0.23426 0.52598 0.0
C48 C 0.8817 0.30945 0.56296 0.0
C49 C 0.89014 0.32999 0.46568 0.0
C50 C 0.92139 0.3326 0.49123 0.0
C51 C 0.91577 0.31923 0.53945 0.0
C52 C 0.85683 0.3211 0.4911 0.0
N53 N 0.85439 0.31396 0.54002 0.0
H54 H 0.87938 0.30313 0.60153 0.0
H55 H 0.83426 0.32243 0.47217 0.0
H56 H 0.80152 0.24397 0.51832 0.0
H57 H 0.72931 0.28297 0.56954 0.0
O58 O 0.81645 0.28668 0.63559 0.0
O59 O 0.78419 0.31728 0.63209 0.0
O60 O 0.81414 0.35548 0.53712 0.0
C61 C 0.79279 0.29511 0.65655 0.0
H62 H 0.93607 0.44835 0.60455 0.0
H63 H 0.7312 0.19661 0.48692 0.0
H64 H 0.89238 0.3377 0.42749 0.0
H65 H 0.93872 0.32017 0.5607 0.0
Co66 Co 0.48495 0.81476 0.09107 0.0
C67 C 0.49437 0.87957 0.15195 0.0
C68 C 0.44087 0.85156 0.11465 0.0
C69 C 0.44246 0.8805 0.1417 0.0
N70 N 0.47334 0.85083 0.12092 0.0
N71 N 0.4758 0.89802 0.16637 0.0
H72 H 0.52142 0.88496 0.16639 0.0
H73 H 0.41624 0.83083 0.09482 0.0
C74 C 0.43325 0.79033 -0.0002 0.0
O75 O 0.45205 0.77809 0.97359 0.0
N76 N 0.49588 0.77848 0.06002 0.0
C77 C 0.52964 0.78285 0.04549 0.0
C78 C 0.52361 0.74916 0.02522 0.0
C79 C 0.47005 0.74222 0.04916 0.0
N80 N 0.48606 0.72406 0.02685 0.0
C81 C 0.56066 0.87417 0.07379 0.0
C82 C 0.54353 0.9097 0.00016 0.0
C83 C 0.57919 0.92888 0.02252 0.0
C84 C 0.58824 0.91035 0.05853 0.0
C85 C 0.51654 0.87378 0.01701 0.0
N86 N 0.52487 0.85675 0.05435 0.0
H87 H 0.56756 0.86129 0.10356 0.0
H88 H 0.48837 0.86164 0.00222 0.0
H89 H 0.55686 0.80834 0.04959 0.0
H90 H 0.44005 0.72935 0.0576 0.0
O91 O 0.51351 0.81521 0.14836 0.0
O92 O 0.45205 0.77632 0.13767 0.0
O93 O 0.44449 0.80472 0.04194 0.0
C94 C 0.48167 0.78783 0.16555 0.0
H95 H 0.4184 0.88466 0.14739 0.0
H96 H 0.54506 0.74346 0.0106 0.0
H97 H 0.53552 0.92364 0.97271 0.0
H98 H 0.6156 0.9246 0.07666 0.0
Co99 Co 0.67474 0.49235 0.59037 0.0
C100 C 0.61868 0.48435 0.66652 0.0
C101 C 0.60355 0.49387 0.59524 0.0
C102 C 0.57368 0.48544 0.62616 0.0
N103 N 0.63178 0.49301 0.62048 0.0
N104 N 0.5835 0.47972 0.67084 0.0
H105 H 0.63247 0.47752 0.69536 0.0
H106 H 0.60325 0.49715 0.55609 0.0
C107 C 0.63624 0.43137 0.5114 0.0
O108 O 0.66711 0.4427 0.48518 0.0
N109 N 0.717 0.49151 0.55903 0.0
C110 C 0.74774 0.52068 0.53782 0.0
C111 C 0.77072 0.50739 0.51978 0.0
C112 C 0.72225 0.46137 0.55515 0.0
N113 N 0.75429 0.47006 0.5304 0.0
C114 C 0.68509 0.56507 0.57189 0.0
C115 C 0.66492 0.55389 0.47454 0.0
C116 C 0.66251 0.58251 0.50042 0.0
C117 C 0.67557 0.58968 0.54875 0.0
C118 C 0.67356 0.52914 0.49963 0.0
N119 N 0.68054 0.53341 0.54856 0.0
H120 H 0.69127 0.5687 0.6105 0.0
H121 H 0.67208 0.50538 0.4804 0.0
H122 H 0.75297 0.54948 0.53514 0.0
H123 H 0.70236 0.43327 0.5688 0.0
O124 O 0.70863 0.52176 0.64323 0.0
O125 O 0.67478 0.45898 0.64081 0.0
O126 O 0.63573 0.45109 0.54732 0.0
C127 C 0.69913 0.48935 0.66414 0.0
H128 H 0.54579 0.48046 0.6159 0.0
H129 H 0.79682 0.52356 0.49933 0.0
H130 H 0.65739 0.5488 0.43628 0.0
H131 H 0.67474 0.61162 0.57029 0.0
Co132 Co 0.17482 0.66764 0.07472 0.0
C133 C 0.12153 0.6138 0.14981 0.0
C134 C 0.10325 0.59495 0.07685 0.0
C135 C 0.07965 0.56642 0.10814 0.0
N136 N 0.12993 0.62466 0.10283 0.0
N137 N 0.09102 0.57857 0.15385 0.0
H138 H 0.13921 0.62939 0.18047 0.0
H139 H 0.10277 0.59237 0.03765 0.0
C140 C 0.19556 0.63111 0.99112 0.0
O141 O 0.2132 0.66252 0.96536 0.0
N142 N 0.21891 0.70996 0.04484 0.0
C143 C 0.22055 0.73988 0.02106 0.0
C144 C 0.25649 0.7618 0.00211 0.0
C145 C 0.25411 0.71457 0.04092 0.0
N146 N 0.27745 0.74574 0.01447 0.0
C147 C 0.12666 0.69757 0.05265 0.0
C148 C 0.09258 0.65351 0.97139 0.0
C149 C 0.07481 0.67101 0.99545 0.0
C150 C 0.09379 0.69554 0.03422 0.0
C151 C 0.12616 0.65703 0.99043 0.0
N152 N 0.14093 0.6763 0.03303 0.0
H153 H 0.13883 0.71427 0.08506 0.0
H154 H 0.13735 0.64076 0.97361 0.0
H155 H 0.19723 0.74527 0.01655 0.0
H156 H 0.26212 0.69485 0.05587 0.0
O157 O 0.17942 0.70023 0.12938 0.0
O158 O 0.20694 0.66526 0.12593 0.0
O159 O 0.17776 0.62978 0.03012 0.0
C160 C 0.2013 0.68952 0.15023 0.0
H161 H 0.05813 0.53786 0.09811 0.0
H162 H 0.266 0.78687 0.97961 0.0
H163 H 0.07879 0.63412 0.94131 0.0
H164 H 0.08138 0.71021 0.05311 0.0
Co165 Co 0.49846 0.17099 0.59156 0.0
C166 C 0.50627 0.12131 0.66555 0.0
C167 C 0.49458 0.09701 0.59403 0.0
C168 C 0.50345 0.07513 0.6236 0.0
N169 N 0.49649 0.12618 0.62024 0.0
N170 N 0.51046 0.09041 0.66848 0.0
H171 H 0.51426 0.14186 0.69469 0.0
H172 H 0.49051 0.09378 0.55495 0.0
C173 C 0.56056 0.19261 0.51327 0.0
O174 O 0.55097 0.21329 0.48644 0.0
N175 N 0.50075 0.21531 0.56175 0.0
C176 C 0.47127 0.21872 0.54516 0.0
C177 C 0.48488 0.25548 0.52893 0.0
C178 C 0.53161 0.25012 0.55664 0.0
N179 N 0.52281 0.27477 0.53556 0.0
C180 C 0.4253 0.11073 0.57011 0.0
C181 C 0.43668 0.10516 0.47179 0.0
C182 C 0.40604 0.07442 0.49548 0.0
C183 C 0.39936 0.07852 0.5447 0.0
C184 C 0.46246 0.13667 0.49899 0.0
N185 N 0.4578 0.13767 0.54814 0.0
H186 H 0.42155 0.1118 0.60901 0.0
H187 H 0.48713 0.15877 0.48105 0.0
H188 H 0.4419 0.19618 0.54528 0.0
H189 H 0.55999 0.25724 0.56795 0.0
O190 O 0.46835 0.17459 0.64425 0.0
O191 O 0.53114 0.20259 0.64336 0.0
O192 O 0.54002 0.17325 0.54918 0.0
C193 C 0.50048 0.1962 0.66643 0.0
H194 H 0.50779 0.05204 0.61217 0.0
H195 H 0.46837 0.26709 0.51317 0.0
H196 H 0.44238 0.10351 0.4335 0.0
H197 H 0.37671 0.05553 0.56509 0.0
Co198 Co 0.47584 0.68285 0.42027 0.0
C199 C 0.4695 0.61806 0.36097 0.0
C200 C 0.41601 0.61391 0.37872 0.0
C201 C 0.40903 0.5814 0.3553 0.0
N202 N 0.45377 0.63683 0.3825 0.0
N203 N 0.44255 0.58359 0.34407 0.0
H204 H 0.49983 0.62928 0.35884 0.0
H205 H 0.39489 0.62041 0.39246 0.0
C206 C 0.43585 0.64643 0.5164 0.0
O207 O 0.46716 0.66166 0.54247 0.0
N208 N 0.49483 0.72835 0.45967 0.0
C209 C 0.52575 0.76292 0.45267 0.0
C210 C 0.51998 0.78985 0.4759 0.0
C211 C 0.47113 0.73504 0.48686 0.0
N212 N 0.48542 0.77208 0.49726 0.0
C213 C 0.54993 0.69385 0.43764 0.0
C214 C 0.52628 0.62252 0.47586 0.0
C215 C 0.56457 0.64551 0.46278 0.0
C216 C 0.57654 0.68209 0.44493 0.0
C217 C 0.50051 0.63501 0.46682 0.0
N218 N 0.51232 0.67025 0.44774 0.0
H219 H 0.5593 0.72084 0.4202 0.0
H220 H 0.4707 0.61501 0.47128 0.0
H221 H 0.54837 0.76923 0.42707 0.0
H222 H 0.44132 0.71439 0.49144 0.0
O223 O 0.50535 0.71201 0.3646 0.0
O224 O 0.44716 0.70013 0.38153 0.0
O225 O 0.4362 0.65296 0.47085 0.0
C226 C 0.4764 0.71568 0.35231 0.0
H227 H 0.38107 0.55868 0.34518 0.0
H228 H 0.53752 0.82035 0.47182 0.0
H229 H 0.51586 0.59434 0.49086 0.0
H230 H 0.60581 0.70068 0.43408 0.0
Co231 Co 0.79672 0.48409 0.92023 0.0
C232 C 0.85154 0.49063 0.84301 0.0
C233 C 0.82904 0.43856 0.88368 0.0
C234 C 0.8542 0.43919 0.85017 0.0
N235 N 0.82782 0.4711 0.88009 0.0
N236 N 0.86832 0.47176 0.82459 0.0
H237 H 0.85512 0.51699 0.82835 0.0
H238 H 0.81152 0.41479 0.90712 0.0
C239 C 0.8023 0.4424 0.01054 0.0
O240 O 0.81683 0.47241 0.039 0.0
N241 N 0.76378 0.49512 0.96104 0.0
C242 C 0.74597 0.51414 0.94659 0.0
C243 C 0.71118 0.49894 0.96974 0.0
C244 C 0.7404 0.47079 0.99536 0.0
N245 N 0.70728 0.47064 -0.00081 0.0
C246 C 0.84843 0.55946 0.95155 0.0
C247 C 0.90685 0.54568 0.97455 0.0
C248 C 0.91414 0.58307 0.97234 0.0
C249 C 0.88456 0.59013 0.96164 0.0
C250 C 0.87076 0.51608 0.96345 0.0
N251 N 0.84211 0.5231 0.9517 0.0
H252 H 0.82616 0.56506 0.94043 0.0
H253 H 0.86657 0.48769 0.96158 0.0
H254 H 0.7547 0.53382 0.91631 0.0
H255 H 0.74458 0.44958 0.01285 0.0
O256 O 0.79438 0.51456 0.86767 0.0
O257 O 0.75376 0.45322 0.87788 0.0
O258 O 0.79156 0.44339 0.96703 0.0
C259 C 0.7649 0.48384 0.85165 0.0
H260 H 0.85903 0.41581 0.84195 0.0
H261 H 0.68853 0.50454 0.9602 0.0
H262 H 0.92947 0.53954 0.98219 0.0
H263 H 0.88968 0.61896 0.95926 0.0
Co264 Co 0.31104 0.79119 0.39981 0.0
C265 C 0.37472 0.85132 0.34056 0.0
C266 C 0.37003 0.79625 0.33804 0.0
C267 C 0.40399 0.82193 0.31784 0.0
N268 N 0.35164 0.81443 0.35279 0.0
N269 N 0.40737 0.85667 0.32013 0.0
H270 H 0.36876 0.87393 0.3484 0.0
H271 H 0.36067 0.76662 0.34484 0.0
C272 C 0.35813 0.79166 0.48754 0.0
O273 O 0.33826 0.79832 0.51988 0.0
N274 N 0.27171 0.76573 0.44822 0.0
C275 C 0.23908 0.76608 0.45629 0.0
C276 C 0.21682 0.73674 0.48805 0.0
C277 C 0.26858 0.73635 0.47454 0.0
N278 N 0.23589 0.71854 0.49989 0.0
C279 C 0.29926 0.85402 0.41494 0.0
C280 C 0.36854 0.90237 0.45737 0.0
C281 C 0.34423 0.91639 0.44534 0.0
C282 C 0.30903 0.89158 0.42425 0.0
C283 C 0.35809 0.86489 0.44637 0.0
N284 N 0.32366 0.84095 0.42551 0.0
H285 H 0.27279 0.83617 0.39647 0.0
H286 H 0.37933 0.85671 0.4509 0.0
H287 H 0.23032 0.78381 0.43748 0.0
H288 H 0.28802 0.72549 0.47093 0.0
O289 O 0.27432 0.78619 0.3511 0.0
O290 O 0.29146 0.74326 0.3644 0.0
O291 O 0.34923 0.78733 0.44242 0.0
C292 C 0.27174 0.75418 0.33841 0.0
H293 H 0.42482 0.81548 0.30276 0.0
H294 H 0.18769 0.72749 0.49821 0.0
H295 H 0.39623 0.92068 0.47334 0.0
H296 H 0.28986 0.90141 0.41279 0.0
Co297 Co 0.51052 0.29872 0.92164 0.0
C298 C 0.51411 0.35468 0.84828 0.0
C299 C 0.56884 0.36287 0.86941 0.0
C300 C 0.57454 0.39192 0.83905 0.0
N301 N 0.53115 0.33998 0.87589 0.0
N302 N 0.5403 0.38691 0.82628 0.0
H303 H 0.48365 0.34276 0.84533 0.0
H304 H 0.59074 0.3589 0.88622 0.0
C305 C 0.55775 0.34549 0.00896 0.0
O306 O 0.52852 0.33704 0.0374 0.0
N307 N 0.49302 0.25752 0.96856 0.0
C308 C 0.46337 0.22179 0.96461 0.0
C309 C 0.47153 0.19753 0.9907 0.0
C310 C 0.51802 0.25415 0.9975 0.0
N311 N 0.50625 0.21815 0.01107 0.0
C312 C 0.43957 0.29268 0.94918 0.0
C313 C 0.46933 0.36901 0.97015 0.0
C314 C 0.42993 0.34495 0.97098 0.0
C315 C 0.4149 0.30631 0.96056 0.0
C316 C 0.4928 0.35442 0.95802 0.0
N317 N 0.47799 0.3166 0.9483 0.0
H318 H 0.42771 0.26324 0.93913 0.0
H319 H 0.52292 0.37401 0.9544 0.0
H320 H 0.44025 0.21288 0.93893 0.0
H321 H 0.54749 0.27585 0.00029 0.0
O322 O 0.47696 0.26517 0.87159 0.0
O323 O 0.5355 0.27655 0.88547 0.0
O324 O 0.55358 0.33233 0.96576 0.0
C325 C 0.50501 0.26012 0.85857 0.0
H326 H 0.60171 0.41473 0.82642 0.0
H327 H 0.45575 0.16678 0.98883 0.0
H328 H 0.48184 0.39918 0.97721 0.0
H329 H 0.38447 0.28699 0.96078 0.0
Co330 Co 0.20411 0.52785 0.40861 0.0
C331 C 0.14248 0.52094 0.34235 0.0
C332 C 0.1824 0.5782 0.36418 0.0
C333 C 0.15474 0.57899 0.33691 0.0
N334 N 0.17455 0.54194 0.36826 0.0
N335 N 0.12949 0.54312 0.32353 0.0
H336 H 0.12936 0.49056 0.33685 0.0
H337 H 0.20703 0.60264 0.37948 0.0
C338 C 0.20876 0.57165 0.50077 0.0
O339 O 0.20587 0.54484 0.53031 0.0
N340 N 0.23609 0.51748 0.45065 0.0
C341 C 0.23102 0.48657 0.47566 0.0
C342 C 0.26233 0.49726 0.50558 0.0
C343 C 0.26988 0.54597 0.4656 0.0
N344 N 0.28629 0.53481 0.49937 0.0
C345 C 0.14509 0.45216 0.42819 0.0
C346 C 0.09534 0.47181 0.46975 0.0
C347 C 0.08157 0.43413 0.45499 0.0
C348 C 0.10728 0.42408 0.43574 0.0
C349 C 0.13298 0.4991 0.46041 0.0
N350 N 0.15748 0.48936 0.43947 0.0
H351 H 0.16371 0.44425 0.40995 0.0
H352 H 0.14097 0.52834 0.46607 0.0
H353 H 0.2063 0.45858 0.47395 0.0
H354 H 0.28187 0.57494 0.45266 0.0
O355 O 0.20649 0.49683 0.35738 0.0
O356 O 0.24762 0.55798 0.3659 0.0
O357 O 0.20963 0.56856 0.4546 0.0
C358 C 0.23594 0.52696 0.34044 0.0
H359 H 0.1545 0.60434 0.32506 0.0
H360 H 0.26655 0.47918 0.53085 0.0
H361 H 0.07664 0.48068 0.48592 0.0
H362 H 0.09782 0.39526 0.42387 0.0
Co363 Co 0.6885 0.2093 0.91396 0.0
C364 C 0.63467 0.14912 0.84509 0.0
C365 C 0.62353 0.19511 0.85722 0.0
C366 C 0.59524 0.1687 0.82859 0.0
N367 N 0.64785 0.18272 0.86829 0.0
N368 N 0.60205 0.13984 0.8213 0.0
H369 H 0.64813 0.13185 0.84608 0.0
H370 H 0.62603 0.22153 0.86976 0.0
C371 C 0.64149 0.21163 -0.00096 0.0
O372 O 0.66109 0.20457 0.03137 0.0
N373 N 0.72859 0.23865 0.9604 0.0
C374 C 0.76262 0.24091 0.96727 0.0
C375 C 0.78518 0.27263 0.9953 0.0
C376 C 0.73147 0.26933 0.98336 0.0
N377 N 0.76529 0.29027 0.00557 0.0
C378 C 0.7006 0.14882 0.94574 0.0
C379 C 0.62754 0.10154 0.97918 0.0
C380 C 0.65358 0.08856 0.97935 0.0
C381 C 0.69044 0.11238 0.96222 0.0
C382 C 0.6386 0.13773 0.96144 0.0
N383 N 0.67508 0.1615 0.94632 0.0
H384 H 0.72832 0.16584 0.92984 0.0
H385 H 0.61704 0.14551 0.95716 0.0
H386 H 0.77221 0.22353 0.94942 0.0
H387 H 0.71085 0.27864 0.97907 0.0
O388 O 0.72446 0.20982 0.86755 0.0
O389 O 0.70758 0.25382 0.8721 0.0
O390 O 0.65092 0.21642 0.95407 0.0
C391 C 0.72695 0.24062 0.84964 0.0
H392 H 0.5718 0.17081 0.81308 0.0
H393 H 0.8149 0.28361 0.00383 0.0
H394 H 0.59829 0.08308 0.99027 0.0
H395 H 0.71083 0.10257 0.96039 0.0
C396 C 0.41156 0.38155 0.02601 0.0
C397 C 0.40524 0.36095 0.9826 0.0
C398 C 0.39141 0.40028 0.03629 0.0
C399 C 0.3643 0.39935 0.00339 0.0
H400 H 0.43273 0.38368 0.05191 0.0
H401 H 0.39789 0.41653 0.0698 0.0
S402 S 0.3369 0.34879 0.88485 0.0
N403 N 0.36981 0.34008 0.90658 0.0
N404 N 0.33161 0.37553 0.92607 0.0
C405 C 0.35731 0.37846 0.96004 0.0
C406 C 0.37775 0.35904 0.9497 0.0
C407 C 0.98819 0.34449 0.48331 0.0
C408 C 0.96092 0.35524 0.47215 0.0
C409 C 0.02713 0.36957 0.47612 0.0
C410 C 0.04024 0.40623 0.45713 0.0
H411 H 0.97951 0.31708 0.49979 0.0
H412 H 0.04716 0.3608 0.48755 0.0
S413 S 0.98071 0.44645 0.41477 0.0
N414 N 0.95011 0.40438 0.43729 0.0
N415 N 0.02285 0.45008 0.42065 0.0
C416 C 0.01322 0.41618 0.44203 0.0
C417 C 0.97368 0.39103 0.45015 0.0
C418 C 0.6366 0.02259 0.95668 0.0
C419 C 0.64063 0.04886 0.99293 0.0
C420 C 0.61808 0.98354 0.96689 0.0
C421 C 0.60388 0.96991 0.01384 0.0
H422 H 0.646 0.03212 0.91969 0.0
H423 H 0.61375 0.9638 0.93765 0.0
S424 S 0.60905 0.02752 0.12159 0.0
N425 N 0.63023 0.05897 0.0775 0.0
N426 N 0.59614 0.9856 0.09712 0.0
C427 C 0.60933 0.99612 0.05082 0.0
C428 C 0.62756 0.03567 0.04023 0.0
C429 C 0.65218 0.63838 0.49299 0.0
C430 C 0.64071 0.60034 0.48132 0.0
C431 C 0.62792 0.65323 0.48558 0.0
C432 C 0.59141 0.63071 0.4657 0.0
H433 H 0.67951 0.6564 0.51001 0.0
H434 H 0.63725 0.68202 0.49742 0.0
S435 S 0.54967 0.53133 0.4218 0.0
N436 N 0.59114 0.54144 0.44516 0.0
N437 N 0.54701 0.57037 0.42797 0.0
C438 C 0.58076 0.59369 0.45019 0.0
C439 C 0.60508 0.57829 0.4586 0.0
C440 C 0.00956 0.64389 0.02926 0.0
C441 C 0.03376 0.65694 0.9882 0.0
C442 C 0.97011 0.62253 0.02396 0.0
C443 C 0.95356 0.61395 0.97752 0.0
H444 H 0.0212 0.64766 0.06575 0.0
H445 H 0.9526 0.61058 0.05619 0.0
S446 S 0.00343 0.64496 0.85878 0.0
N447 N 0.03788 0.66273 0.89977 0.0
N448 N 0.96328 0.62228 0.88994 0.0
C449 C 0.97696 0.62896 0.93631 0.0
C450 C 0.01724 0.65056 0.94162 0.0
C451 C 0.39454 0.98459 0.43927 0.0
C452 C 0.35706 0.95734 0.45192 0.0
C453 C 0.40918 0.02304 0.44993 0.0
C454 C 0.38678 0.03596 0.47315 0.0
H455 H 0.41325 0.976 0.42241 0.0
H456 H 0.43904 0.04227 0.44266 0.0
S457 S 0.28495 0.97706 0.50664 0.0
N458 N 0.29664 0.94635 0.48477 0.0
N459 N 0.32365 0.01921 0.50224 0.0
C460 C 0.34827 0.0095 0.48218 0.0
C461 C 0.3335 0.97008 0.47212 0.0
C462 C 0.24972 0.57953 0.96664 0.0
C463 C 0.22717 0.54442 0.99032 0.0
C464 C 0.23761 0.60633 0.96235 0.0
C465 C 0.20261 0.5991 0.98208 0.0
H466 H 0.27792 0.58718 0.95389 0.0
H467 H 0.25714 0.63395 0.94704 0.0
S468 S 0.13065 0.50948 0.04139 0.0
N469 N 0.16648 0.50241 0.02906 0.0
N470 N 0.14346 0.55237 0.02045 0.0
C471 C 0.17839 0.56278 0.0019 0.0
C472 C 0.19071 0.53551 0.00617 0.0
C473 C 0.6129 0.18456 0.54867 0.0
C474 C 0.59942 0.19769 0.50989 0.0
C475 C 0.65133 0.19518 0.55243 0.0
C476 C 0.67751 0.21857 0.51722 0.0
H477 H 0.59417 0.16766 0.57803 0.0
H478 H 0.66105 0.18643 0.58406 0.0
S479 S 0.65725 0.25636 0.40537 0.0
N480 N 0.61556 0.23247 0.43293 0.0
N481 N 0.68794 0.25197 0.4405 0.0
C482 C 0.66449 0.2299 0.47677 0.0
C483 C 0.62534 0.21943 0.47289 0.0
C484 C 0.48126 0.66119 0.0273 0.0
C485 C 0.46699 0.68481 0.01251 0.0
C486 C 0.45911 0.62158 0.02285 0.0
C487 C 0.42196 0.60454 0.00366 0.0
H488 H 0.50842 0.67319 0.04576 0.0
H489 H 0.46987 0.60432 0.03865 0.0
S490 S 0.37602 0.65461 0.94813 0.0
N491 N 0.41699 0.689 0.96926 0.0
N492 N 0.37501 0.61445 0.96154 0.0
C493 C 0.40927 0.62812 0.98389 0.0
C494 C 0.43183 0.66833 0.98833 0.0
C495 C 0.73955 0.40801 0.49687 0.0
C496 C 0.7663 0.44374 0.51556 0.0
C497 C 0.74924 0.37995 0.48772 0.0
C498 C 0.78601 0.38654 0.49789 0.0
H499 H 0.71056 0.40137 0.49098 0.0
H500 H 0.72703 0.35212 0.4761 0.0
S501 S 0.86737 0.47678 0.54318 0.0
N502 N 0.83166 0.48537 0.54038 0.0
N503 N 0.85025 0.43271 0.52368 0.0
C504 C 0.81371 0.4231 0.51369 0.0
C505 C 0.80378 0.45171 0.5225 0.0
C506 C 0.36601 0.74267 0.98357 0.0
C507 C 0.39433 0.78099 0.98716 0.0
C508 C 0.32758 0.73142 0.99041 0.0
C509 C 0.31624 0.75825 0.001 0.0
H510 H 0.37379 0.72098 0.97989 0.0
H511 H 0.30676 0.70139 0.98952 0.0
S512 S 0.37952 0.86272 0.00943 0.0
N513 N 0.40847 0.84614 0.9975 0.0
N514 N 0.33635 0.82521 0.01114 0.0
C515 C 0.34411 0.79699 0.00116 0.0
C516 C 0.38315 0.80831 0.99402 0.0
C517 C 0.57003 0.38109 0.53324 0.0
C518 C 0.60416 0.39167 0.50775 0.0
C519 C 0.54265 0.34275 0.54035 0.0
C520 C 0.54873 0.3137 0.52302 0.0
H521 H 0.56512 0.40253 0.54977 0.0
H522 H 0.5175 0.33573 0.56168 0.0
S523 S 0.62997 0.32543 0.44836 0.0
N524 N 0.63973 0.36929 0.45997 0.0
N525 N 0.58883 0.29741 0.4752 0.0
C526 C 0.58136 0.32363 0.49513 0.0
C527 C 0.60886 0.3626 0.48683 0.0
C528 C 0.42548 0.81417 0.46698 0.0
C529 C 0.39512 0.79526 0.5001 0.0
C530 C 0.45798 0.81069 0.47013 0.0
C531 C 0.46101 0.78768 0.50607 0.0
H532 H 0.42305 0.82975 0.43635 0.0
H533 H 0.47892 0.8228 0.44123 0.0
S534 S 0.39266 0.73774 0.6063 0.0
N535 N 0.37259 0.75747 0.57407 0.0
N536 N 0.43364 0.75008 0.57928 0.0
C537 C 0.43267 0.77185 0.54226 0.0
C538 C 0.39965 0.77581 0.53944 0.0
C539 C 0.64174 0.44227 0.03166 0.0
C540 C 0.67149 0.4378 0.01251 0.0
C541 C 0.60476 0.41097 0.03652 0.0
C542 C 0.59666 0.37439 0.02236 0.0
H543 H 0.6467 0.47042 0.04029 0.0
H544 H 0.58192 0.41596 0.04733 0.0
S545 S 0.66403 0.34644 0.97261 0.0
N546 N 0.68962 0.39282 0.98039 0.0
N547 N 0.62124 0.33459 0.99266 0.0
C548 C 0.6266 0.36905 0.00697 0.0
C549 C 0.66377 0.40064 0.00099 0.0
C550 C 0.18155 0.61396 0.49575 0.0
C551 C 0.20703 0.60484 0.51872 0.0
C552 C 0.18805 0.65118 0.49578 0.0
C553 C 0.22064 0.6805 0.51798 0.0
H554 H 0.15858 0.59311 0.47343 0.0
H555 H 0.17017 0.65778 0.47323 0.0
S556 S 0.29106 0.66965 0.59197 0.0
N557 N 0.26175 0.62633 0.5717 0.0
N558 N 0.27474 0.69694 0.57077 0.0
C559 C 0.24348 0.67078 0.54629 0.0
C560 C 0.23649 0.63267 0.54686 0.0
C561 C 0.57309 0.18467 0.97944 0.0
C562 C 0.60369 0.20626 0.01124 0.0
C563 C 0.53851 0.18412 0.98403 0.0
C564 C 0.53353 0.20599 0.01982 0.0
H565 H 0.57645 0.16971 0.94888 0.0
H566 H 0.51712 0.16978 0.95614 0.0
S567 S 0.60329 0.26431 0.11502 0.0
N568 N 0.62548 0.2468 0.08278 0.0
N569 N 0.56064 0.24699 0.09039 0.0
C570 C 0.56279 0.22525 0.05424 0.0
C571 C 0.59791 0.22524 0.05009 0.0
C572 C 0.37004 0.62553 0.53946 0.0
C573 C 0.39938 0.61688 0.53612 0.0
C574 C 0.33212 0.59725 0.53286 0.0
C575 C 0.32234 0.55952 0.5221 0.0
H576 H 0.3767 0.6549 0.54171 0.0
H577 H 0.31064 0.60561 0.5315 0.0
S578 S 0.38837 0.52144 0.5181 0.0
N579 N 0.41597 0.56728 0.52913 0.0
N580 N 0.34453 0.51412 0.51542 0.0
C581 C 0.35095 0.54975 0.52449 0.0
C582 C 0.38963 0.57856 0.53179 0.0
C583 C 0.81498 0.35778 0.00343 0.0
C584 C 0.77991 0.32891 0.02147 0.0
C585 C 0.82445 0.396 0.00568 0.0
C586 C 0.79935 0.40652 0.0264 0.0
H587 H 0.83351 0.35061 0.98329 0.0
H588 H 0.84994 0.41705 0.98717 0.0
S589 S 0.708 0.34274 0.0877 0.0
N590 N 0.72299 0.31405 0.06772 0.0
N591 N 0.74084 0.38611 0.07141 0.0
C592 C 0.76625 0.37853 0.04914 0.0
C593 C 0.75653 0.3396 0.04685 0.0
C594 C 0.28118 0.5596 0.27026 0.0
C595 C 0.25282 0.52599 0.29253 0.0
C596 C 0.29577 0.55891 0.22376 0.0
C597 C 0.28264 0.52456 0.19801 0.0
H598 H 0.29207 0.58666 0.2887 0.0
H599 H 0.31788 0.58532 0.2083 0.0
S600 S 0.2077 0.42888 0.23909 0.0
N601 N 0.21171 0.45751 0.28423 0.0
N602 N 0.23874 0.45637 0.19761 0.0
C603 C 0.25405 0.49093 0.21969 0.0
C604 C 0.23928 0.4916 0.26671 0.0
C605 C 0.74043 0.28291 0.77665 0.0
C606 C 0.74692 0.25675 0.80261 0.0
C607 C 0.75542 0.29514 0.7296 0.0
C608 C 0.77767 0.28185 0.70661 0.0
H609 H 0.72277 0.29332 0.79216 0.0
H610 H 0.74921 0.31498 0.71101 0.0
S611 S 0.80481 0.2146 0.75996 0.0
N612 N 0.77846 0.21908 0.80246 0.0
N613 N 0.80657 0.24206 0.71439 0.0
C614 C 0.78517 0.25641 0.73266 0.0
C615 C 0.76984 0.24389 0.78051 0.0
C616 C 0.51258 0.77422 0.23583 0.0
C617 C 0.47946 0.77047 0.21417 0.0
C618 C 0.51124 0.75686 0.28071 0.0
C619 C 0.47681 0.73547 0.30631 0.0
H620 H 0.53976 0.79004 0.21748 0.0
H621 H 0.53752 0.76009 0.29527 0.0
S622 S 0.38219 0.71909 0.26701 0.0
N623 N 0.4113 0.74502 0.22277 0.0
N624 N 0.40887 0.71291 0.30738 0.0
C625 C 0.44358 0.73243 0.28578 0.0
C626 C 0.44487 0.74973 0.23968 0.0
C627 C 0.74629 0.51931 0.73193 0.0
C628 C 0.71442 0.4871 0.71264 0.0
C629 C 0.76192 0.5179 0.77703 0.0
C630 C 0.74627 0.48427 0.80502 0.0
H631 H 0.7597 0.54581 0.71175 0.0
H632 H 0.78682 0.54346 0.78973 0.0
S633 S 0.66103 0.39247 0.77253 0.0
N634 N 0.66656 0.42081 0.72615 0.0
N635 N 0.69589 0.41827 0.81092 0.0
C636 C 0.71387 0.45198 0.78669 0.0
C637 C 0.69799 0.45337 0.74054 0.0
C638 C 0.23206 0.74925 0.26588 0.0
C639 C 0.251 0.73423 0.29313 0.0
C640 C 0.21576 0.73421 0.22032 0.0
C641 C 0.21774 0.70352 0.19963 0.0
H642 H 0.23044 0.77351 0.27929 0.0
H643 H 0.20213 0.74738 0.20072 0.0
S644 S 0.26115 0.65139 0.25763 0.0
N645 N 0.26869 0.68514 0.29721 0.0
N646 N 0.23807 0.65687 0.21152 0.0
C647 C 0.23548 0.68729 0.22708 0.0
C648 C 0.25202 0.70258 0.27379 0.0
C649 C 0.46911 0.20809 0.73784 0.0
C650 C 0.50204 0.21111 0.71644 0.0
C651 C 0.47006 0.22282 0.78452 0.0
C652 C 0.50389 0.24086 0.81195 0.0
H653 H 0.44245 0.19487 0.71806 0.0
H654 H 0.44413 0.22062 0.79879 0.0
S655 S 0.59776 0.25449 0.77357 0.0
N656 N 0.5693 0.23236 0.72716 0.0
N657 N 0.57101 0.25973 0.81473 0.0
C658 C 0.53682 0.24308 0.79157 0.0
C659 C 0.53593 0.22835 0.74388 0.0
C660 C 0.41373 0.52292 0.29978 0.0
C661 C 0.44635 0.55807 0.31071 0.0
C662 C 0.40671 0.5092 0.25187 0.0
C663 C 0.43299 0.52976 0.21487 0.0
H664 H 0.3908 0.50943 0.32598 0.0
H665 H 0.3783 0.48679 0.24288 0.0
S666 S 0.53261 0.60572 0.23297 0.0
N667 N 0.51213 0.60108 0.28661 0.0
N668 N 0.4996 0.57314 0.19739 0.0
C669 C 0.47017 0.55629 0.22939 0.0
C670 C 0.47682 0.57147 0.27752 0.0
C671 C 0.86284 0.47223 0.7363 0.0
C672 C 0.88501 0.47583 0.77749 0.0
C673 C 0.86726 0.45643 0.69315 0.0
C674 C 0.8945 0.44481 0.69 0.0
H675 H 0.83871 0.47664 0.73961 0.0
H676 H 0.84697 0.44975 0.66385 0.0
S677 S 0.96472 0.45627 0.78382 0.0
N678 N 0.93903 0.47273 0.80978 0.0
N679 N 0.94778 0.44362 0.7279 0.0
C680 C 0.92022 0.45332 0.72829 0.0
C681 C 0.91551 0.46902 0.7723 0.0
C682 C 0.495 0.90577 0.2519 0.0
C683 C 0.48009 0.91674 0.21277 0.0
C684 C 0.4739 0.89224 0.29495 0.0
C685 C 0.4384 0.89036 0.2992 0.0
H686 H 0.51801 0.89998 0.24619 0.0
H687 H 0.48181 0.87707 0.32064 0.0
S688 S 0.40615 0.94425 0.22312 0.0
N689 N 0.44319 0.94738 0.19366 0.0
N690 N 0.40135 0.91936 0.27307 0.0
C691 C 0.43133 0.91351 0.26798 0.0
C692 C 0.45378 0.92844 0.22509 0.0
C693 C 0.55616 0.44965 0.7975 0.0
C694 C 0.53516 0.41003 0.7914 0.0
C695 C 0.56787 0.47382 0.75708 0.0
C696 C 0.55839 0.45889 0.70981 0.0
H697 H 0.56766 0.4615 0.83304 0.0
H698 H 0.58808 0.50373 0.76226 0.0
S699 S 0.49771 0.35783 0.67568 0.0
N700 N 0.50035 0.35739 0.73585 0.0
N701 N 0.522 0.40303 0.65941 0.0
C702 C 0.53279 0.4199 0.70387 0.0
C703 C 0.52108 0.39528 0.74505 0.0
C704 C 0.09776 0.52976 0.19703 0.0
C705 C 0.08363 0.5551 0.19581 0.0
C706 C 0.107 0.5195 0.2416 0.0
C707 C 0.10232 0.53458 0.28547 0.0
H708 H 0.10644 0.52212 0.16348 0.0
H709 H 0.12297 0.50465 0.24112 0.0
S710 S 0.05561 0.59224 0.30123 0.0
N711 N 0.0576 0.58788 0.24148 0.0
N712 N 0.07383 0.56759 0.32564 0.0
C713 C 0.08174 0.55396 0.28468 0.0
C714 C 0.07298 0.56488 0.23949 0.0
C715 C 0.54089 0.08933 0.79408 0.0
C716 C 0.58056 0.10969 0.78786 0.0
C717 C 0.51667 0.07765 0.75366 0.0
C718 C 0.53163 0.08516 0.70627 0.0
H719 H 0.52885 0.08787 0.82987 0.0
H720 H 0.48661 0.06709 0.75927 0.0
S721 S 0.63292 0.12865 0.67145 0.0
N722 N 0.63333 0.13011 0.73174 0.0
N723 N 0.58767 0.10718 0.65535 0.0
C724 C 0.57077 0.09948 0.69994 0.0
C725 C 0.59541 0.11175 0.74112 0.0
loop_
_geom_bond_atom_site_label_1
_geom_bond_atom_site_label_2
_geom_bond_distance
_geom_bond_site_symmetry_2
_ccdc_geom_bond_type
Co0 N4 2.148 . S
Co0 N10 2.128 . S
Co0 N20 2.194 . S
Co0 O25 2.351 . S
Co0 O26 2.155 . S
Co0 O27 2.096 . S
C1 N4 1.301 . S
C1 N5 1.328 . S
C1 H6 0.930 . S
C2 C3 1.333 . S
C2 N4 1.317 . S
C2 H7 0.930 . S
C3 C2 1.333 . S
C3 N5 1.350 . S
C3 H29 0.931 . S
N4 Co0 2.148 . S
N4 C1 1.301 . S
N4 C2 1.317 . S
N5 C1 1.328 . S
N5 C3 1.350 . S
H6 C1 0.930 . S
H7 C2 0.930 . S
C8 O9 1.224 . S
C8 O27 1.247 . S
O9 C8 1.224 . S
N10 Co0 2.128 . S
N10 C11 1.355 . S
N10 C13 1.311 1_554 S
C11 N10 1.355 . S
C11 C12 1.363 1_554 S
C11 H23 0.929 . S
C12 C11 1.363 1_556 S
C12 N14 1.375 . S
C12 H30 0.931 . S
C13 N10 1.311 1_556 S
C13 N14 1.347 . S
C13 H24 0.929 . S
N14 C12 1.375 . S
N14 C13 1.347 . S
C15 C18 1.365 . S
C15 N20 1.328 . S
C15 H21 0.929 . S
C16 C17 1.362 . S
C16 C19 1.370 1_556 S
C16 H31 0.929 . S
C17 C16 1.362 . S
C17 C18 1.366 1_556 S
C18 C15 1.365 . S
C18 C17 1.366 1_554 S
C18 H32 0.930 . S
C19 C16 1.370 1_554 S
C19 N20 1.327 . S
C19 H22 0.926 1_554 S
N20 Co0 2.194 . S
N20 C15 1.328 . S
N20 C19 1.327 . S
H21 C15 0.929 . S
H22 C19 0.926 1_556 S
H23 C11 0.929 . S
H24 C13 0.929 . S
O25 Co0 2.351 . S
O25 C28 1.244 . S
O26 Co0 2.155 . S
O26 C28 1.240 . S
O27 Co0 2.096 . S
O27 C8 1.247 . S
C28 O25 1.244 . S
C28 O26 1.240 . S
H29 C3 0.931 . S
H30 C12 0.931 . S
H31 C16 0.929 . S
H32 C18 0.930 . S
Co33 N37 2.148 . S
Co33 N43 2.128 . S
Co33 N53 2.194 . S
Co33 O58 2.351 . S
Co33 O59 2.155 . S
Co33 O60 2.096 . S
C34 N37 1.301 . S
C34 N38 1.328 . S
C34 H39 0.930 . S
C35 C36 1.333 . S
C35 N37 1.317 . S
C35 H40 0.930 . S
C36 C35 1.333 . S
C36 N38 1.350 . S
C36 H62 0.931 . S
N37 Co33 2.148 . S
N37 C34 1.301 . S
N37 C35 1.317 . S
N38 C34 1.328 . S
N38 C36 1.350 . S
H39 C34 0.930 . S
H40 C35 0.930 . S
C41 O42 1.224 . S
C41 O60 1.247 . S
O42 C41 1.224 . S
N43 Co33 2.128 . S
N43 C44 1.355 . S
N43 C46 1.311 . S
C44 N43 1.355 . S
C44 C45 1.363 . S
C44 H56 0.929 . S
C45 C44 1.363 . S
C45 N47 1.375 . S
C45 H63 0.931 . S
C46 N43 1.311 . S
C46 N47 1.347 . S
C46 H57 0.929 . S
N47 C45 1.375 . S
N47 C46 1.347 . S
C48 C51 1.365 . S
C48 N53 1.328 . S
C48 H54 0.929 . S
C49 C50 1.362 . S
C49 C52 1.378 . S
C49 H64 0.929 . S
C50 C49 1.362 . S
C50 C51 1.366 . S
C51 C48 1.365 . S
C51 C50 1.366 . S
C51 H65 0.930 . S
C52 C49 1.378 . S
C52 N53 1.315 . S
C52 H55 0.930 . S
N53 Co33 2.194 . S
N53 C48 1.328 . S
N53 C52 1.315 . S
H54 C48 0.929 . S
H55 C52 0.930 . S
H56 C44 0.929 . S
H57 C46 0.929 . S
O58 Co33 2.351 . S
O58 C61 1.244 . S
O59 Co33 2.155 . S
O59 C61 1.240 . S
O60 Co33 2.096 . S
O60 C41 1.247 . S
C61 O58 1.244 . S
C61 O59 1.240 . S
H62 C36 0.931 . S
H63 C45 0.931 . S
H64 C49 0.929 . S
H65 C51 0.930 . S
Co66 N70 2.148 . S
Co66 N76 2.128 . S
Co66 N86 2.194 . S
Co66 O91 2.351 . S
Co66 O92 2.155 . S
Co66 O93 2.096 . S
C67 N70 1.301 . S
C67 N71 1.328 . S
C67 H72 0.930 . S
C68 C69 1.333 . S
C68 N70 1.317 . S
C68 H73 0.930 . S
C69 C68 1.333 . S
C69 N71 1.350 . S
C69 H95 0.931 . S
N70 Co66 2.148 . S
N70 C67 1.301 . S
N70 C68 1.317 . S
N71 C67 1.328 . S
N71 C69 1.350 . S
H72 C67 0.930 . S
H73 C68 0.930 . S
C74 O75 1.224 . S
C74 O93 1.247 . S
O75 C74 1.224 . S
N76 Co66 2.128 . S
N76 C77 1.355 . S
N76 C79 1.311 1_554 S
C77 N76 1.355 . S
C77 C78 1.363 1_554 S
C77 H89 0.929 . S
C78 C77 1.363 1_556 S
C78 N80 1.375 . S
C78 H96 0.931 . S
C79 N76 1.311 1_556 S
C79 N80 1.347 . S
C79 H90 0.929 . S
N80 C78 1.375 . S
N80 C79 1.347 . S
C81 C84 1.365 . S
C81 N86 1.328 . S
C81 H87 0.929 . S
C82 C83 1.362 . S
C82 C85 1.372 1_556 S
C82 H97 0.929 . S
C83 C82 1.362 . S
C83 C84 1.366 1_556 S
C84 C81 1.365 . S
C84 C83 1.366 1_554 S
C84 H98 0.930 . S
C85 C82 1.372 1_554 S
C85 N86 1.324 . S
C85 H88 0.927 1_554 S
N86 Co66 2.194 . S
N86 C81 1.328 . S
N86 C85 1.324 . S
H87 C81 0.929 . S
H88 C85 0.927 1_556 S
H89 C77 0.929 . S
H90 C79 0.929 . S
O91 Co66 2.351 . S
O91 C94 1.244 . S
O92 Co66 2.155 . S
O92 C94 1.240 . S
O93 Co66 2.096 . S
O93 C74 1.247 . S
C94 O91 1.244 . S
C94 O92 1.240 . S
H95 C69 0.931 . S
H96 C78 0.931 . S
H97 C82 0.929 . S
H98 C84 0.930 . S
Co99 N103 2.148 . S
Co99 N109 2.128 . S
Co99 N119 2.194 . S
Co99 O124 2.351 . S
Co99 O125 2.155 . S
Co99 O126 2.096 . S
C100 N103 1.301 . S
C100 N104 1.328 . S
C100 H105 0.930 . S
C101 C102 1.333 . S
C101 N103 1.317 . S
C101 H106 0.930 . S
C102 C101 1.333 . S
C102 N104 1.350 . S
C102 H128 0.931 . S
N103 Co99 2.148 . S
N103 C100 1.301 . S
N103 C101 1.317 . S
N104 C100 1.328 . S
N104 C102 1.350 . S
H105 C100 0.930 . S
H106 C101 0.930 . S
C107 O108 1.224 . S
C107 O126 1.247 . S
O108 C107 1.224 . S
N109 Co99 2.128 . S
N109 C110 1.355 . S
N109 C112 1.311 . S
C110 N109 1.355 . S
C110 C111 1.363 . S
C110 H122 0.929 . S
C111 C110 1.363 . S
C111 N113 1.375 . S
C111 H129 0.931 . S
C112 N109 1.311 . S
C112 N113 1.347 . S
C112 H123 0.929 . S
N113 C111 1.375 . S
N113 C112 1.347 . S
C114 C117 1.365 . S
C114 N119 1.328 . S
C114 H120 0.929 . S
C115 C116 1.362 . S
C115 C118 1.378 . S
C115 H130 0.929 . S
C116 C115 1.362 . S
C116 C117 1.366 . S
C117 C114 1.365 . S
C117 C116 1.366 . S
C117 H131 0.930 . S
C118 C115 1.378 . S
C118 N119 1.315 . S
C118 H121 0.930 . S
N119 Co99 2.194 . S
N119 C114 1.328 . S
N119 C118 1.315 . S
H120 C114 0.929 . S
H121 C118 0.930 . S
H122 C110 0.929 . S
H123 C112 0.929 . S
O124 Co99 2.351 . S
O124 C127 1.244 . S
O125 Co99 2.155 . S
O125 C127 1.240 . S
O126 Co99 2.096 . S
O126 C107 1.247 . S
C127 O124 1.244 . S
C127 O125 1.240 . S
H128 C102 0.931 . S
H129 C111 0.931 . S
H130 C115 0.929 . S
H131 C117 0.930 . S
Co132 N136 2.148 . S
Co132 N142 2.128 . S
Co132 N152 2.194 . S
Co132 O157 2.351 . S
Co132 O158 2.155 . S
Co132 O159 2.096 . S
C133 N136 1.301 . S
C133 N137 1.328 . S
C133 H138 0.930 . S
C134 C135 1.333 . S
C134 N136 1.317 . S
C134 H139 0.930 . S
C135 C134 1.333 . S
C135 N137 1.350 . S
C135 H161 0.931 . S
N136 Co132 2.148 . S
N136 C133 1.301 . S
N136 C134 1.317 . S
N137 C133 1.328 . S
N137 C135 1.350 . S
H138 C133 0.930 . S
H139 C134 0.930 . S
C140 O141 1.224 . S
C140 O159 1.247 . S
O141 C140 1.224 . S
N142 Co132 2.128 . S
N142 C143 1.355 . S
N142 C145 1.311 1_554 S
C143 N142 1.355 . S
C143 C144 1.363 1_554 S
C143 H155 0.929 . S
C144 C143 1.363 1_556 S
C144 N146 1.375 . S
C144 H162 0.931 . S
C145 N142 1.311 1_556 S
C145 N146 1.347 . S
C145 H156 0.929 . S
N146 C144 1.375 . S
N146 C145 1.347 . S
C147 C150 1.365 . S
C147 N152 1.328 . S
C147 H153 0.929 . S
C148 C149 1.362 . S
C148 C151 1.370 1_556 S
C148 H163 0.929 . S
C149 C148 1.362 . S
C149 C150 1.366 1_556 S
C150 C147 1.365 . S
C150 C149 1.366 1_554 S
C150 H164 0.930 . S
C151 C148 1.370 1_554 S
C151 N152 1.327 . S
C151 H154 0.925 1_554 S
N152 Co132 2.194 . S
N152 C147 1.328 . S
N152 C151 1.327 . S
H153 C147 0.929 . S
H154 C151 0.925 1_556 S
H155 C143 0.929 . S
H156 C145 0.929 . S
O157 Co132 2.351 . S
O157 C160 1.244 . S
O158 Co132 2.155 . S
O158 C160 1.240 . S
O159 Co132 2.096 . S
O159 C140 1.247 . S
C160 O157 1.244 . S
C160 O158 1.240 . S
H161 C135 0.931 . S
H162 C144 0.931 . S
H163 C148 0.929 . S
H164 C150 0.930 . S
Co165 N169 2.148 . S
Co165 N175 2.128 . S
Co165 N185 2.194 . S
Co165 O190 2.351 . S
Co165 O191 2.155 . S
Co165 O192 2.096 . S
C166 N169 1.301 . S
C166 N170 1.328 . S
C166 H171 0.930 . S
C167 C168 1.333 . S
C167 N169 1.317 . S
C167 H172 0.930 . S
C168 C167 1.333 . S
C168 N170 1.350 . S
C168 H194 0.931 . S
N169 Co165 2.148 . S
N169 C166 1.301 . S
N169 C167 1.317 . S
N170 C166 1.328 . S
N170 C168 1.350 . S
H171 C166 0.930 . S
H172 C167 0.930 . S
C173 O174 1.224 . S
C173 O192 1.247 . S
O174 C173 1.224 . S
N175 Co165 2.128 . S
N175 C176 1.355 . S
N175 C178 1.311 . S
C176 N175 1.355 . S
C176 C177 1.363 . S
C176 H188 0.929 . S
C177 C176 1.363 . S
C177 N179 1.375 . S
C177 H195 0.931 . S
C178 N175 1.311 . S
C178 N179 1.347 . S
C178 H189 0.929 . S
N179 C177 1.375 . S
N179 C178 1.347 . S
C180 C183 1.365 . S
C180 N185 1.328 . S
C180 H186 0.929 . S
C181 C182 1.362 . S
C181 C184 1.378 . S
C181 H196 0.929 . S
C182 C181 1.362 . S
C182 C183 1.366 . S
C183 C180 1.365 . S
C183 C182 1.366 . S
C183 H197 0.930 . S
C184 C181 1.378 . S
C184 N185 1.315 . S
C184 H187 0.930 . S
N185 Co165 2.194 . S
N185 C180 1.328 . S
N185 C184 1.315 . S
H186 C180 0.929 . S
H187 C184 0.930 . S
H188 C176 0.929 . S
H189 C178 0.929 . S
O190 Co165 2.351 . S
O190 C193 1.244 . S
O191 Co165 2.155 . S
O191 C193 1.240 . S
O192 Co165 2.096 . S
O192 C173 1.247 . S
C193 O190 1.244 . S
C193 O191 1.240 . S
H194 C168 0.931 . S
H195 C177 0.931 . S
H196 C181 0.929 . S
H197 C183 0.930 . S
Co198 N202 2.148 . S
Co198 N208 2.128 . S
Co198 N218 2.194 . S
Co198 O223 2.351 . S
Co198 O224 2.155 . S
Co198 O225 2.096 . S
C199 N202 1.301 . S
C199 N203 1.328 . S
C199 H204 0.930 . S
C200 C201 1.333 . S
C200 N202 1.317 . S
C200 H205 0.930 . S
C201 C200 1.333 . S
C201 N203 1.350 . S
C201 H227 0.931 . S
N202 Co198 2.148 . S
N202 C199 1.301 . S
N202 C200 1.317 . S
N203 C199 1.328 . S
N203 C201 1.350 . S
H204 C199 0.930 . S
H205 C200 0.930 . S
C206 O207 1.224 . S
C206 O225 1.247 . S
O207 C206 1.224 . S
N208 Co198 2.128 . S
N208 C209 1.355 . S
N208 C211 1.311 . S
C209 N208 1.355 . S
C209 C210 1.363 . S
C209 H221 0.929 . S
C210 C209 1.363 . S
C210 N212 1.375 . S
C210 H228 0.931 . S
C211 N208 1.311 . S
C211 N212 1.347 . S
C211 H222 0.929 . S
N212 C210 1.375 . S
N212 C211 1.347 . S
C213 C216 1.365 . S
C213 N218 1.328 . S
C213 H219 0.929 . S
C214 C215 1.362 . S
C214 C217 1.378 . S
C214 H229 0.929 . S
C215 C214 1.362 . S
C215 C216 1.366 . S
C216 C213 1.365 . S
C216 C215 1.366 . S
C216 H230 0.930 . S
C217 C214 1.378 . S
C217 N218 1.315 . S
C217 H220 0.930 . S
N218 Co198 2.194 . S
N218 C213 1.328 . S
N218 C217 1.315 . S
H219 C213 0.929 . S
H220 C217 0.930 . S
H221 C209 0.929 . S
H222 C211 0.929 . S
O223 Co198 2.351 . S
O223 C226 1.244 . S
O224 Co198 2.155 . S
O224 C226 1.240 . S
O225 Co198 2.096 . S
O225 C206 1.247 . S
C226 O223 1.244 . S
C226 O224 1.240 . S
H227 C201 0.931 . S
H228 C210 0.931 . S
H229 C214 0.929 . S
H230 C216 0.930 . S
Co231 N235 2.148 . S
Co231 N241 2.128 . S
Co231 N251 2.194 . S
Co231 O256 2.351 . S
Co231 O257 2.155 . S
Co231 O258 2.096 . S
C232 N235 1.301 . S
C232 N236 1.328 . S
C232 H237 0.930 . S
C233 C234 1.333 . S
C233 N235 1.317 . S
C233 H238 0.930 . S
C234 C233 1.333 . S
C234 N236 1.350 . S
C234 H260 0.931 . S
N235 Co231 2.148 . S
N235 C232 1.301 . S
N235 C233 1.317 . S
N236 C232 1.328 . S
N236 C234 1.350 . S
H237 C232 0.930 . S
H238 C233 0.930 . S
C239 O240 1.224 . S
C239 O258 1.247 . S
O240 C239 1.224 . S
N241 Co231 2.128 . S
N241 C242 1.355 . S
N241 C244 1.311 1_556 S
C242 N241 1.355 . S
C242 C243 1.363 1_556 S
C242 H254 0.929 . S
C243 C242 1.363 1_554 S
C243 N245 1.375 . S
C243 H261 0.931 . S
C244 N241 1.311 1_554 S
C244 N245 1.347 . S
C244 H255 0.929 . S
N245 C243 1.375 . S
N245 C244 1.347 . S
C246 C249 1.365 . S
C246 N251 1.328 . S
C246 H252 0.929 . S
C247 C248 1.362 . S
C247 C250 1.372 1_554 S
C247 H262 0.929 . S
C248 C247 1.362 . S
C248 C249 1.366 1_554 S
C249 C246 1.365 . S
C249 C248 1.366 1_556 S
C249 H263 0.930 . S
C250 C247 1.372 1_556 S
C250 N251 1.324 . S
C250 H253 0.927 1_556 S
N251 Co231 2.194 . S
N251 C246 1.328 . S
N251 C250 1.324 . S
H252 C246 0.929 . S
H253 C250 0.927 1_554 S
H254 C242 0.929 . S
H255 C244 0.929 . S
O256 Co231 2.351 . S
O256 C259 1.244 . S
O257 Co231 2.155 . S
O257 C259 1.240 . S
O258 Co231 2.096 . S
O258 C239 1.247 . S
C259 O256 1.244 . S
C259 O257 1.240 . S
H260 C234 0.931 . S
H261 C243 0.931 . S
H262 C247 0.929 . S
H263 C249 0.930 . S
Co264 N268 2.148 . S
Co264 N274 2.128 . S
Co264 N284 2.194 . S
Co264 O289 2.351 . S
Co264 O290 2.155 . S
Co264 O291 2.096 . S
C265 N268 1.301 . S
C265 N269 1.328 . S
C265 H270 0.930 . S
C266 C267 1.333 . S
C266 N268 1.317 . S
C266 H271 0.930 . S
C267 C266 1.333 . S
C267 N269 1.350 . S
C267 H293 0.931 . S
N268 Co264 2.148 . S
N268 C265 1.301 . S
N268 C266 1.317 . S
N269 C265 1.328 . S
N269 C267 1.350 . S
H270 C265 0.930 . S
H271 C266 0.930 . S
C272 O273 1.224 . S
C272 O291 1.247 . S
O273 C272 1.224 . S
N274 Co264 2.128 . S
N274 C275 1.355 . S
N274 C277 1.311 . S
C275 N274 1.355 . S
C275 C276 1.363 . S
C275 H287 0.929 . S
C276 C275 1.363 . S
C276 N278 1.375 . S
C276 H294 0.931 . S
C277 N274 1.311 . S
C277 N278 1.347 . S
C277 H288 0.929 . S
N278 C276 1.375 . S
N278 C277 1.347 . S
C279 C282 1.365 . S
C279 N284 1.328 . S
C279 H285 0.929 . S
C280 C281 1.362 . S
C280 C283 1.378 . S
C280 H295 0.929 . S
C281 C280 1.362 . S
C281 C282 1.366 . S
C282 C279 1.365 . S
C282 C281 1.366 . S
C282 H296 0.930 . S
C283 C280 1.378 . S
C283 N284 1.315 . S
C283 H286 0.930 . S
N284 Co264 2.194 . S
N284 C279 1.328 . S
N284 C283 1.315 . S
H285 C279 0.929 . S
H286 C283 0.930 . S
H287 C275 0.929 . S
H288 C277 0.929 . S
O289 Co264 2.351 . S
O289 C292 1.244 . S
O290 Co264 2.155 . S
O290 C292 1.240 . S
O291 Co264 2.096 . S
O291 C272 1.247 . S
C292 O289 1.244 . S
C292 O290 1.240 . S
H293 C267 0.931 . S
H294 C276 0.931 . S
H295 C280 0.929 . S
H296 C282 0.930 . S
Co297 N301 2.148 . S
Co297 N307 2.128 . S
Co297 N317 2.194 . S
Co297 O322 2.351 . S
Co297 O323 2.155 . S
Co297 O324 2.096 . S
C298 N301 1.301 . S
C298 N302 1.328 . S
C298 H303 0.930 . S
C299 C300 1.333 . S
C299 N301 1.317 . S
C299 H304 0.930 . S
C300 C299 1.333 . S
C300 N302 1.350 . S
C300 H326 0.931 . S
N301 Co297 2.148 . S
N301 C298 1.301 . S
N301 C299 1.317 . S
N302 C298 1.328 . S
N302 C300 1.350 . S
H303 C298 0.930 . S
H304 C299 0.930 . S
C305 O306 1.224 . S
C305 O324 1.247 . S
O306 C305 1.224 . S
N307 Co297 2.128 . S
N307 C308 1.355 . S
N307 C310 1.311 1_556 S
C308 N307 1.355 . S
C308 C309 1.363 1_556 S
C308 H320 0.929 . S
C309 C308 1.363 1_554 S
C309 N311 1.375 . S
C309 H327 0.931 . S
C310 N307 1.311 1_554 S
C310 N311 1.347 . S
C310 H321 0.929 . S
N311 C309 1.375 . S
N311 C310 1.347 . S
C312 C315 1.365 . S
C312 N317 1.328 . S
C312 H318 0.929 . S
C313 C314 1.362 . S
C313 C316 1.370 1_554 S
C313 H328 0.929 . S
C314 C313 1.362 . S
C314 C315 1.366 1_554 S
C315 C312 1.365 . S
C315 C314 1.366 1_556 S
C315 H329 0.930 . S
C316 C313 1.370 1_556 S
C316 N317 1.327 . S
C316 H319 0.926 1_556 S
N317 Co297 2.194 . S
N317 C312 1.328 . S
N317 C316 1.327 . S
H318 C312 0.929 . S
H319 C316 0.926 1_554 S
H320 C308 0.929 . S
H321 C310 0.929 . S
O322 Co297 2.351 . S
O322 C325 1.244 . S
O323 Co297 2.155 . S
O323 C325 1.240 . S
O324 Co297 2.096 . S
O324 C305 1.247 . S
C325 O322 1.244 . S
C325 O323 1.240 . S
H326 C300 0.931 . S
H327 C309 0.931 . S
H328 C313 0.929 . S
H329 C315 0.930 . S
Co330 N334 2.148 . S
Co330 N340 2.128 . S
Co330 N350 2.194 . S
Co330 O355 2.351 . S
Co330 O356 2.155 . S
Co330 O357 2.096 . S
C331 N334 1.301 . S
C331 N335 1.328 . S
C331 H336 0.930 . S
C332 C333 1.333 . S
C332 N334 1.317 . S
C332 H337 0.930 . S
C333 C332 1.333 . S
C333 N335 1.350 . S
C333 H359 0.931 . S
N334 Co330 2.148 . S
N334 C331 1.301 . S
N334 C332 1.317 . S
N335 C331 1.328 . S
N335 C333 1.350 . S
H336 C331 0.930 . S
H337 C332 0.930 . S
C338 O339 1.224 . S
C338 O357 1.247 . S
O339 C338 1.224 . S
N340 Co330 2.128 . S
N340 C341 1.355 . S
N340 C343 1.311 . S
C341 N340 1.355 . S
C341 C342 1.363 . S
C341 H353 0.929 . S
C342 C341 1.363 . S
C342 N344 1.375 . S
C342 H360 0.931 . S
C343 N340 1.311 . S
C343 N344 1.347 . S
C343 H354 0.929 . S
N344 C342 1.375 . S
N344 C343 1.347 . S
C345 C348 1.365 . S
C345 N350 1.328 . S
C345 H351 0.929 . S
C346 C347 1.362 . S
C346 C349 1.378 . S
C346 H361 0.929 . S
C347 C346 1.362 . S
C347 C348 1.366 . S
C348 C345 1.365 . S
C348 C347 1.366 . S
C348 H362 0.930 . S
C349 C346 1.378 . S
C349 N350 1.315 . S
C349 H352 0.930 . S
N350 Co330 2.194 . S
N350 C345 1.328 . S
N350 C349 1.315 . S
H351 C345 0.929 . S
H352 C349 0.930 . S
H353 C341 0.929 . S
H354 C343 0.929 . S
O355 Co330 2.351 . S
O355 C358 1.244 . S
O356 Co330 2.155 . S
O356 C358 1.240 . S
O357 Co330 2.096 . S
O357 C338 1.247 . S
C358 O355 1.244 . S
C358 O356 1.240 . S
H359 C333 0.931 . S
H360 C342 0.931 . S
H361 C346 0.929 . S
H362 C348 0.930 . S
Co363 N367 2.148 . S
Co363 N373 2.128 . S
Co363 N383 2.194 . S
Co363 O388 2.351 . S
Co363 O389 2.155 . S
Co363 O390 2.096 . S
C364 N367 1.301 . S
C364 N368 1.328 . S
C364 H369 0.930 . S
C365 C366 1.333 . S
C365 N367 1.317 . S
C365 H370 0.930 . S
C366 C365 1.333 . S
C366 N368 1.350 . S
C366 H392 0.931 . S
N367 Co363 2.148 . S
N367 C364 1.301 . S
N367 C365 1.317 . S
N368 C364 1.328 . S
N368 C366 1.350 . S
H369 C364 0.930 . S
H370 C365 0.930 . S
C371 O372 1.224 . S
C371 O390 1.247 . S
O372 C371 1.224 . S
N373 Co363 2.128 . S
N373 C374 1.355 . S
N373 C376 1.311 1_556 S
C374 N373 1.355 . S
C374 C375 1.363 1_556 S
C374 H386 0.929 . S
C375 C374 1.363 1_554 S
C375 N377 1.375 . S
C375 H393 0.931 . S
C376 N373 1.311 1_554 S
C376 N377 1.347 . S
C376 H387 0.929 . S
N377 C375 1.375 . S
N377 C376 1.347 . S
C378 C381 1.365 . S
C378 N383 1.328 . S
C378 H384 0.929 . S
C379 C380 1.362 . S
C379 C382 1.370 1_554 S
C379 H394 0.929 . S
C380 C379 1.362 . S
C380 C381 1.366 1_554 S
C381 C378 1.365 . S
C381 C380 1.366 1_556 S
C381 H395 0.930 . S
C382 C379 1.370 1_556 S
C382 N383 1.327 . S
C382 H385 0.925 1_556 S
N383 Co363 2.194 . S
N383 C378 1.328 . S
N383 C382 1.327 . S
H384 C378 0.929 . S
H385 C382 0.925 1_554 S
H386 C374 0.929 . S
H387 C376 0.929 . S
O388 Co363 2.351 . S
O388 C391 1.244 . S
O389 Co363 2.155 . S
O389 C391 1.240 . S
O390 Co363 2.096 . S
O390 C371 1.247 . S
C391 O388 1.244 . S
C391 O389 1.240 . S
H392 C366 0.931 . S
H393 C375 0.931 . S
H394 C379 0.929 . S
H395 C381 0.930 . S
C396 C397 1.369 . S
C396 C398 1.419 . S
C396 H400 0.930 . S
C397 C396 1.369 . S
C397 C406 1.429 1_554 S
C398 C396 1.419 . S
C398 C399 1.363 1_554 S
C398 H401 0.929 . S
C399 C398 1.363 1_556 S
C399 C405 1.428 . S
H400 C396 0.930 . S
H401 C398 0.929 . S
S402 N403 1.613 . S
S402 N404 1.610 . S
N403 S402 1.613 . S
N403 C406 1.350 . S
N404 S402 1.610 . S
N404 C405 1.351 . S
C405 C399 1.428 . S
C405 N404 1.351 . S
C405 C406 1.434 . S
C406 C397 1.429 1_556 S
C406 N403 1.350 . S
C406 C405 1.434 . S
C407 C408 1.369 . S
C407 C409 1.419 1_655 S
C407 H411 0.930 . S
C408 C407 1.369 . S
C408 C417 1.429 . S
C409 C407 1.419 1_455 S
C409 C410 1.363 . S
C409 H412 0.929 . S
C410 C409 1.363 . S
C410 C416 1.428 . S
H411 C407 0.930 . S
H412 C409 0.929 . S
S413 N414 1.613 1_455 S
S413 N415 1.610 . S
N414 S413 1.613 1_655 S
N414 C417 1.350 . S
N415 S413 1.610 . S
N415 C416 1.351 . S
C416 C410 1.428 . S
C416 N415 1.351 . S
C416 C417 1.434 1_455 S
C417 C408 1.429 . S
C417 N414 1.350 . S
C417 C416 1.434 1_655 S
C418 C419 1.369 1_556 S
C418 C420 1.419 1_545 S
C418 H422 0.930 . S
C419 C418 1.369 1_554 S
C419 C428 1.429 . S
C420 C418 1.419 1_565 S
C420 C421 1.363 . S
C420 H423 0.929 . S
C421 C420 1.363 . S
C421 C427 1.428 1_556 S
H422 C418 0.930 . S
H423 C420 0.929 . S
S424 N425 1.613 1_565 S
S424 N426 1.610 . S
N425 S424 1.613 1_545 S
N425 C428 1.350 . S
N426 S424 1.610 . S
N426 C427 1.351 . S
C427 C421 1.428 1_554 S
C427 N426 1.351 . S
C427 C428 1.434 1_565 S
C428 C419 1.429 . S
C428 N425 1.350 . S
C428 C427 1.434 1_545 S
C429 C430 1.369 . S
C429 C431 1.419 . S
C429 H433 0.930 . S
C430 C429 1.369 . S
C430 C439 1.429 . S
C431 C429 1.419 . S
C431 C432 1.363 . S
C431 H434 0.929 . S
C432 C431 1.363 . S
C432 C438 1.428 . S
H433 C429 0.930 . S
H434 C431 0.929 . S
S435 N436 1.613 . S
S435 N437 1.610 . S
N436 S435 1.613 . S
N436 C439 1.350 . S
N437 S435 1.610 . S
N437 C438 1.351 . S
C438 C432 1.428 . S
C438 N437 1.351 . S
C438 C439 1.434 . S
C439 C430 1.429 . S
C439 N436 1.350 . S
C439 C438 1.434 . S
C440 C441 1.369 1_554 S
C440 C442 1.419 1_455 S
C440 H444 0.930 . S
C441 C440 1.369 1_556 S
C441 C450 1.429 . S
C442 C440 1.419 1_655 S
C442 C443 1.363 . S
C442 H445 0.929 . S
C443 C442 1.363 . S
C443 C449 1.428 1_554 S
H444 C440 0.930 . S
H445 C442 0.929 . S
S446 N447 1.613 1_655 S
S446 N448 1.610 . S
N447 S446 1.613 1_455 S
N447 C450 1.350 . S
N448 S446 1.610 . S
N448 C449 1.351 . S
C449 C443 1.428 1_556 S
C449 N448 1.351 . S
C449 C450 1.434 1_655 S
C450 C441 1.429 . S
C450 N447 1.350 . S
C450 C449 1.434 1_455 S
C451 C452 1.369 . S
C451 C453 1.419 1_565 S
C451 H455 0.930 . S
C452 C451 1.369 . S
C452 C461 1.429 . S
C453 C451 1.419 1_545 S
C453 C454 1.363 . S
C453 H456 0.929 . S
C454 C453 1.363 . S
C454 C460 1.428 . S
H455 C451 0.930 . S
H456 C453 0.929 . S
S457 N458 1.613 1_545 S
S457 N459 1.610 . S
N458 S457 1.613 1_565 S
N458 C461 1.350 . S
N459 S457 1.610 . S
N459 C460 1.351 . S
C460 C454 1.428 . S
C460 N459 1.351 . S
C460 C461 1.434 1_545 S
C461 C452 1.429 . S
C461 N458 1.350 . S
C461 C460 1.434 1_565 S
C462 C463 1.369 . S
C462 C464 1.419 1_556 S
C462 H466 0.930 1_556 S
C463 C462 1.369 . S
C463 C472 1.429 . S
C464 C462 1.419 1_554 S
C464 C465 1.363 1_554 S
C464 H467 0.929 . S
C465 C464 1.363 1_556 S
C465 C471 1.428 . S
H466 C462 0.930 1_554 S
H467 C464 0.929 . S
S468 N469 1.613 . S
S468 N470 1.610 . S
N469 S468 1.613 . S
N469 C472 1.350 . S
N470 S468 1.610 . S
N470 C471 1.351 . S
C471 C465 1.428 . S
C471 N470 1.351 . S
C471 C472 1.434 . S
C472 C463 1.429 . S
C472 N469 1.350 . S
C472 C471 1.434 . S
C473 C474 1.369 . S
C473 C475 1.419 . S
C473 H477 0.930 . S
C474 C473 1.369 . S
C474 C483 1.429 . S
C475 C473 1.419 . S
C475 C476 1.363 . S
C475 H478 0.929 . S
C476 C475 1.363 . S
C476 C482 1.428 . S
H477 C473 0.930 . S
H478 C475 0.929 . S
S479 N480 1.613 . S
S479 N481 1.610 . S
N480 S479 1.613 . S
N480 C483 1.350 . S
N481 S479 1.610 . S
N481 C482 1.351 . S
C482 C476 1.428 . S
C482 N481 1.351 . S
C482 C483 1.434 . S
C483 C474 1.429 . S
C483 N480 1.350 . S
C483 C482 1.434 . S
C484 C485 1.369 . S
C484 C486 1.419 1_556 S
C484 H488 0.930 1_556 S
C485 C484 1.369 . S
C485 C494 1.429 . S
C486 C484 1.419 1_554 S
C486 C487 1.363 1_554 S
C486 H489 0.929 . S
C487 C486 1.363 1_556 S
C487 C493 1.428 . S
H488 C484 0.930 1_554 S
H489 C486 0.929 . S
S490 N491 1.613 . S
S490 N492 1.610 . S
N491 S490 1.613 . S
N491 C494 1.350 . S
N492 S490 1.610 . S
N492 C493 1.351 . S
C493 C487 1.428 . S
C493 N492 1.351 . S
C493 C494 1.434 . S
C494 C485 1.429 . S
C494 N491 1.350 . S
C494 C493 1.434 . S
C495 C496 1.369 . S
C495 C497 1.419 . S
C495 H499 0.930 . S
C496 C495 1.369 . S
C496 C505 1.429 . S
C497 C495 1.419 . S
C497 C498 1.363 . S
C497 H500 0.929 . S
C498 C497 1.363 . S
C498 C504 1.428 . S
H499 C495 0.930 . S
H500 C497 0.929 . S
S501 N502 1.613 . S
S501 N503 1.610 . S
N502 S501 1.613 . S
N502 C505 1.350 . S
N503 S501 1.610 . S
N503 C504 1.351 . S
C504 C498 1.428 . S
C504 N503 1.351 . S
C504 C505 1.434 . S
C505 C496 1.429 . S
C505 N502 1.350 . S
C505 C504 1.434 . S
C506 C507 1.376 . S
C506 C508 1.419 . S
C506 H510 0.930 . S
C507 C506 1.376 . S
C507 C516 1.426 1_556 S
C508 C506 1.419 . S
C508 C509 1.363 . S
C508 H511 0.929 . S
C509 C508 1.363 . S
C509 C515 1.428 . S
H510 C506 0.930 . S
H511 C508 0.929 . S
S512 N513 1.613 . S
S512 N514 1.610 . S
N513 S512 1.613 . S
N513 C516 1.350 . S
N514 S512 1.610 . S
N514 C515 1.351 1_554 S
C515 C509 1.428 . S
C515 N514 1.351 1_556 S
C515 C516 1.434 1_556 S
C516 C507 1.426 1_554 S
C516 N513 1.350 . S
C516 C515 1.434 1_554 S
C517 C518 1.369 . S
C517 C519 1.419 . S
C517 H521 0.930 . S
C518 C517 1.369 . S
C518 C527 1.429 . S
C519 C517 1.419 . S
C519 C520 1.363 . S
C519 H522 0.929 . S
C520 C519 1.363 . S
C520 C526 1.428 . S
H521 C517 0.930 . S
H522 C519 0.929 . S
S523 N524 1.613 . S
S523 N525 1.610 . S
N524 S523 1.613 . S
N524 C527 1.350 . S
N525 S523 1.610 . S
N525 C526 1.351 . S
C526 C520 1.428 . S
C526 N525 1.351 . S
C526 C527 1.434 . S
C527 C518 1.429 . S
C527 N524 1.350 . S
C527 C526 1.434 . S
C528 C529 1.369 . S
C528 C530 1.419 . S
C528 H532 0.930 . S
C529 C528 1.369 . S
C529 C538 1.429 . S
C530 C528 1.419 . S
C530 C531 1.363 . S
C530 H533 0.929 . S
C531 C530 1.363 . S
C531 C537 1.428 . S
H532 C528 0.930 . S
H533 C530 0.929 . S
S534 N535 1.613 . S
S534 N536 1.610 . S
N535 S534 1.613 . S
N535 C538 1.350 . S
N536 S534 1.610 . S
N536 C537 1.351 . S
C537 C531 1.428 . S
C537 N536 1.351 . S
C537 C538 1.434 . S
C538 C529 1.429 . S
C538 N535 1.350 . S
C538 C537 1.434 . S
C539 C540 1.369 . S
C539 C541 1.419 . S
C539 H543 0.930 . S
C540 C539 1.369 . S
C540 C549 1.429 . S
C541 C539 1.419 . S
C541 C542 1.371 . S
C541 H544 0.929 . S
C542 C541 1.371 . S
C542 C548 1.426 1_554 S
H543 C539 0.930 . S
H544 C541 0.929 . S
S545 N546 1.613 . S
S545 N547 1.610 . S
N546 S545 1.613 . S
N546 C549 1.350 1_556 S
N547 S545 1.610 . S
N547 C548 1.351 . S
C548 C542 1.426 1_556 S
C548 N547 1.351 . S
C548 C549 1.434 1_556 S
C549 C540 1.429 . S
C549 N546 1.350 1_554 S
C549 C548 1.434 1_554 S
C550 C551 1.369 . S
C550 C552 1.419 . S
C550 H554 0.930 . S
C551 C550 1.369 . S
C551 C560 1.429 . S
C552 C550 1.419 . S
C552 C553 1.363 . S
C552 H555 0.929 . S
C553 C552 1.363 . S
C553 C559 1.428 . S
H554 C550 0.930 . S
H555 C552 0.929 . S
S556 N557 1.613 . S
S556 N558 1.610 . S
N557 S556 1.613 . S
N557 C560 1.350 . S
N558 S556 1.610 . S
N558 C559 1.351 . S
C559 C553 1.428 . S
C559 N558 1.351 . S
C559 C560 1.434 . S
C560 C551 1.429 . S
C560 N557 1.350 . S
C560 C559 1.434 . S
C561 C562 1.369 1_556 S
C561 C563 1.419 1_556 S
C561 H565 0.930 . S
C562 C561 1.369 1_554 S
C562 C571 1.429 . S
C563 C561 1.419 1_554 S
C563 C564 1.363 . S
C563 H566 0.929 1_554 S
C564 C563 1.363 . S
C564 C570 1.428 . S
H565 C561 0.930 . S
H566 C563 0.929 1_556 S
S567 N568 1.613 . S
S567 N569 1.610 . S
N568 S567 1.613 . S
N568 C571 1.350 . S
N569 S567 1.610 . S
N569 C570 1.351 . S
C570 C564 1.428 . S
C570 N569 1.351 . S
C570 C571 1.434 . S
C571 C562 1.429 . S
C571 N568 1.350 . S
C571 C570 1.434 . S
C572 C573 1.369 . S
C572 C574 1.419 . S
C572 H576 0.930 . S
C573 C572 1.369 . S
C573 C582 1.429 . S
C574 C572 1.419 . S
C574 C575 1.363 . S
C574 H577 0.929 . S
C575 C574 1.363 . S
C575 C581 1.428 . S
H576 C572 0.930 . S
H577 C574 0.929 . S
S578 N579 1.613 . S
S578 N580 1.610 . S
N579 S578 1.613 . S
N579 C582 1.350 . S
N580 S578 1.610 . S
N580 C581 1.351 . S
C581 C575 1.428 . S
C581 N580 1.351 . S
C581 C582 1.434 . S
C582 C573 1.429 . S
C582 N579 1.350 . S
C582 C581 1.434 . S
C583 C584 1.369 . S
C583 C585 1.419 1_554 S
C583 H587 0.930 1_554 S
C584 C583 1.369 . S
C584 C593 1.429 . S
C585 C583 1.419 1_556 S
C585 C586 1.363 1_556 S
C585 H588 0.929 . S
C586 C585 1.363 1_554 S
C586 C592 1.428 . S
H587 C583 0.930 1_556 S
H588 C585 0.929 . S
S589 N590 1.613 . S
S589 N591 1.610 . S
N590 S589 1.613 . S
N590 C593 1.350 . S
N591 S589 1.610 . S
N591 C592 1.351 . S
C592 C586 1.428 . S
C592 N591 1.351 . S
C592 C593 1.434 . S
C593 C584 1.429 . S
C593 N590 1.350 . S
C593 C592 1.434 . S
C594 C595 1.369 . S
C594 C596 1.419 . S
C594 H598 0.930 . S
C595 C594 1.369 . S
C595 C604 1.429 . S
C596 C594 1.419 . S
C596 C597 1.363 . S
C596 H599 0.929 . S
C597 C596 1.363 . S
C597 C603 1.428 . S
H598 C594 0.930 . S
H599 C596 0.929 . S
S600 N601 1.613 . S
S600 N602 1.610 . S
N601 S600 1.613 . S
N601 C604 1.350 . S
N602 S600 1.610 . S
N602 C603 1.351 . S
C603 C597 1.428 . S
C603 N602 1.351 . S
C603 C604 1.434 . S
C604 C595 1.429 . S
C604 N601 1.350 . S
C604 C603 1.434 . S
C605 C606 1.369 . S
C605 C607 1.419 . S
C605 H609 0.930 . S
C606 C605 1.369 . S
C606 C615 1.429 . S
C607 C605 1.419 . S
C607 C608 1.363 . S
C607 H610 0.929 . S
C608 C607 1.363 . S
C608 C614 1.428 . S
H609 C605 0.930 . S
H610 C607 0.929 . S
S611 N612 1.613 . S
S611 N613 1.610 . S
N612 S611 1.613 . S
N612 C615 1.350 . S
N613 S611 1.610 . S
N613 C614 1.351 . S
C614 C608 1.428 . S
C614 N613 1.351 . S
C614 C615 1.434 . S
C615 C606 1.429 . S
C615 N612 1.350 . S
C615 C614 1.434 . S
C616 C617 1.369 . S
C616 C618 1.419 . S
C616 H620 0.930 . S
C617 C616 1.369 . S
C617 C626 1.429 . S
C618 C616 1.419 . S
C618 C619 1.363 . S
C618 H621 0.929 . S
C619 C618 1.363 . S
C619 C625 1.428 . S
H620 C616 0.930 . S
H621 C618 0.929 . S
S622 N623 1.613 . S
S622 N624 1.610 . S
N623 S622 1.613 . S
N623 C626 1.350 . S
N624 S622 1.610 . S
N624 C625 1.351 . S
C625 C619 1.428 . S
C625 N624 1.351 . S
C625 C626 1.434 . S
C626 C617 1.429 . S
C626 N623 1.350 . S
C626 C625 1.434 . S
C627 C628 1.369 . S
C627 C629 1.419 . S
C627 H631 0.930 . S
C628 C627 1.369 . S
C628 C637 1.429 . S
C629 C627 1.419 . S
C629 C630 1.363 . S
C629 H632 0.929 . S
C630 C629 1.363 . S
C630 C636 1.428 . S
H631 C627 0.930 . S
H632 C629 0.929 . S
S633 N634 1.613 . S
S633 N635 1.610 . S
N634 S633 1.613 . S
N634 C637 1.350 . S
N635 S633 1.610 . S
N635 C636 1.351 . S
C636 C630 1.428 . S
C636 N635 1.351 . S
C636 C637 1.434 . S
C637 C628 1.429 . S
C637 N634 1.350 . S
C637 C636 1.434 . S
C638 C639 1.369 . S
C638 C640 1.419 . S
C638 H642 0.930 . S
C639 C638 1.369 . S
C639 C648 1.429 . S
C640 C638 1.419 . S
C640 C641 1.363 . S
C640 H643 0.929 . S
C641 C640 1.363 . S
C641 C647 1.428 . S
H642 C638 0.930 . S
H643 C640 0.929 . S
S644 N645 1.613 . S
S644 N646 1.610 . S
N645 S644 1.613 . S
N645 C648 1.350 . S
N646 S644 1.610 . S
N646 C647 1.351 . S
C647 C641 1.428 . S
C647 N646 1.351 . S
C647 C648 1.434 . S
C648 C639 1.429 . S
C648 N645 1.350 . S
C648 C647 1.434 . S
C649 C650 1.369 . S
C649 C651 1.419 . S
C649 H653 0.930 . S
C650 C649 1.369 . S
C650 C659 1.429 . S
C651 C649 1.419 . S
C651 C652 1.363 . S
C651 H654 0.929 . S
C652 C651 1.363 . S
C652 C658 1.428 . S
H653 C649 0.930 . S
H654 C651 0.929 . S
S655 N656 1.613 . S
S655 N657 1.610 . S
N656 S655 1.613 . S
N656 C659 1.350 . S
N657 S655 1.610 . S
N657 C658 1.351 . S
C658 C652 1.428 . S
C658 N657 1.351 . S
C658 C659 1.434 . S
C659 C650 1.429 . S
C659 N656 1.350 . S
C659 C658 1.434 . S
C660 C661 1.369 . S
C660 C662 1.419 . S
C660 H664 0.930 . S
C661 C660 1.369 . S
C661 C670 1.429 . S
C662 C660 1.419 . S
C662 C663 1.363 . S
C662 H665 0.929 . S
C663 C662 1.363 . S
C663 C669 1.428 . S
H664 C660 0.930 . S
H665 C662 0.929 . S
S666 N667 1.613 . S
S666 N668 1.610 . S
N667 S666 1.613 . S
N667 C670 1.350 . S
N668 S666 1.610 . S
N668 C669 1.351 . S
C669 C663 1.428 . S
C669 N668 1.351 . S
C669 C670 1.434 . S
C670 C661 1.429 . S
C670 N667 1.350 . S
C670 C669 1.434 . S
C671 C672 1.369 . S
C671 C673 1.419 . S
C671 H675 0.930 . S
C672 C671 1.369 . S
C672 C681 1.429 . S
C673 C671 1.419 . S
C673 C674 1.363 . S
C673 H676 0.929 . S
C674 C673 1.363 . S
C674 C680 1.428 . S
H675 C671 0.930 . S
H676 C673 0.929 . S
S677 N678 1.613 . S
S677 N679 1.610 . S
N678 S677 1.613 . S
N678 C681 1.350 . S
N679 S677 1.610 . S
N679 C680 1.351 . S
C680 C674 1.428 . S
C680 N679 1.351 . S
C680 C681 1.434 . S
C681 C672 1.429 . S
C681 N678 1.350 . S
C681 C680 1.434 . S
C682 C683 1.369 . S
C682 C684 1.419 . S
C682 H686 0.930 . S
C683 C682 1.369 . S
C683 C692 1.429 . S
C684 C682 1.419 . S
C684 C685 1.363 . S
C684 H687 0.929 . S
C685 C684 1.363 . S
C685 C691 1.428 . S
H686 C682 0.930 . S
H687 C684 0.929 . S
S688 N689 1.613 . S
S688 N690 1.610 . S
N689 S688 1.613 . S
N689 C692 1.350 . S
N690 S688 1.610 . S
N690 C691 1.351 . S
C691 C685 1.428 . S
C691 N690 1.351 . S
C691 C692 1.434 . S
C692 C683 1.429 . S
C692 N689 1.350 . S
C692 C691 1.434 . S
C693 C694 1.369 . S
C693 C695 1.419 . S
C693 H697 0.930 . S
C694 C693 1.369 . S
C694 C703 1.429 . S
C695 C693 1.419 . S
C695 C696 1.363 . S
C695 H698 0.929 . S
C696 C695 1.363 . S
C696 C702 1.428 . S
H697 C693 0.930 . S
H698 C695 0.929 . S
S699 N700 1.613 . S
S699 N701 1.610 . S
N700 S699 1.613 . S
N700 C703 1.350 . S
N701 S699 1.610 . S
N701 C702 1.351 . S
C702 C696 1.428 . S
C702 N701 1.351 . S
C702 C703 1.434 . S
C703 C694 1.429 . S
C703 N700 1.350 . S
C703 C702 1.434 . S
C704 C705 1.369 . S
C704 C706 1.419 . S
C704 H708 0.930 . S
C705 C704 1.369 . S
C705 C714 1.429 . S
C706 C704 1.419 . S
C706 C707 1.363 . S
C706 H709 0.929 . S
C707 C706 1.363 . S
C707 C713 1.428 . S
H708 C704 0.930 . S
H709 C706 0.929 . S
S710 N711 1.613 . S
S710 N712 1.610 . S
N711 S710 1.613 . S
N711 C714 1.350 . S
N712 S710 1.610 . S
N712 C713 1.351 . S
C713 C707 1.428 . S
C713 N712 1.351 . S
C713 C714 1.434 . S
C714 C705 1.429 . S
C714 N711 1.350 . S
C714 C713 1.434 . S
C715 C716 1.369 . S
C715 C717 1.419 . S
C715 H719 0.930 . S
C716 C715 1.369 . S
C716 C725 1.429 . S
C717 C715 1.419 . S
C717 C718 1.363 . S
C717 H720 0.929 . S
C718 C717 1.363 . S
C718 C724 1.428 . S
H719 C715 0.930 . S
H720 C717 0.929 . S
S721 N722 1.613 . S
S721 N723 1.610 . S
N722 S721 1.613 . S
N722 C725 1.350 . S
N723 S721 1.610 . S
N723 C724 1.351 . S
C724 C718 1.428 . S
C724 N723 1.351 . S
C724 C725 1.434 . S
C725 C716 1.429 . S
C725 N722 1.350 . S
C725 C724 1.434 . S
C397 C314 1.255 . S
C399 C17 1.263 . S
C408 C50 1.266 . S
C410 C347 1.258 . S
C419 C380 1.271 . S
C421 C83 1.257 . S
C430 C116 1.261 . S
C432 C215 1.259 . S
C441 C149 1.271 . S
C443 C248 1.258 . S
C452 C281 1.267 . S
C454 C182 1.264 . S
C463 N14 1.370 . S
C465 C140 1.687 1_556 S
C474 C173 1.684 . S
C476 N47 1.365 . S
C485 N80 1.366 . S
C487 C8 1.686 1_556 S
C496 N113 1.352 . S
C498 C41 1.689 . S
C507 C74 1.684 1_556 S
C509 N146 1.355 . S
C518 C107 1.686 . S
C520 N179 1.364 . S
C529 C272 1.691 . S
C531 N212 1.360 . S
C540 N245 1.349 . S
C542 C305 1.684 1_554 S
C551 C338 1.685 . S
C553 N278 1.366 . S
C562 C371 1.687 1_554 S
C564 N311 1.367 . S
C573 C206 1.683 . S
C575 N344 1.360 . S
C584 N377 1.366 . S
C586 C239 1.689 1_554 S
C595 C358 1.800 . S
C597 C28 1.800 . S
C606 C391 1.798 . S
C608 C61 1.800 . S
C617 C94 1.797 . S
C619 C226 1.799 . S
C628 C127 1.795 . S
C630 C259 1.797 . S
C639 C292 1.796 . S
C641 C160 1.797 . S
C650 C193 1.796 . S
C652 C325 1.797 . S
C661 N203 0.813 . S
C663 N5 0.803 . S
C672 N236 0.822 . S
C674 N38 0.818 . S
C683 N71 0.813 . S
C685 N269 0.819 . S
C694 N302 0.808 . S
C696 N104 0.801 . S
C705 N137 0.816 . S
C707 N335 0.805 . S
C716 N368 0.806 . S
C718 N170 0.801 . S
