# Generated by pormake.
# Topology qtz-x, (6)-cn, num edge types: 1
# Building blocks:
#     Node 0, Type 0, BuildingBlock: PAMTUU_clean_sbu_0, # of connection points: 6
#     Node 1, Type 0, BuildingBlock: PAMTUU_clean_sbu_0, # of connection points: 6
#     Node 2, Type 0, BuildingBlock: PAMTUU_clean_sbu_0, # of connection points: 6
#     Edge 3, Type (0, 0), BuildingBlock: ZUJKAS_clean_linker_0, # of connection points: 2
#     Edge 4, Type (0, 0), BuildingBlock: ZUJKAS_clean_linker_0, # of connection points: 2
#     Edge 5, Type (0, 0), BuildingBlock: ZUJKAS_clean_linker_0, # of connection points: 2
#     Edge 6, Type (0, 0), BuildingBlock: ZUJKAS_clean_linker_0, # of connection points: 2
#     Edge 7, Type (0, 0), BuildingBlock: ZUJKAS_clean_linker_0, # of connection points: 2
#     Edge 8, Type (0, 0), BuildingBlock: ZUJKAS_clean_linker_0, # of connection points: 2
#     Edge 9, Type (0, 0), BuildingBlock: ZUJKAS_clean_linker_0, # of connection points: 2
#     Edge 10, Type (0, 0), BuildingBlock: ZUJKAS_clean_linker_0, # of connection points: 2
#     Edge 11, Type (0, 0), BuildingBlock: ZUJKAS_clean_linker_0, # of connection points: 2
# Relax obj value: 0.122
# Max RMSD: 0.225
# Mean RMSD: 0.225
data_MOF--net-qtz-x--node1-PAMTUU_clean_sbu_0--edge1-ZUJKAS_clean_linker_0
_symmetry_space_group_name_H-M    P1
_symmetry_Int_Tables_number       1
_symmetry_cell_setting            triclinic
loop_
_symmetry_equiv_pos_as_xyz
'x, y, z'
_cell_length_a     19.434764
_cell_length_b     19.5129
_cell_length_c     66.404684
_cell_angle_alpha  90.085376
_cell_angle_beta   89.89958
_cell_angle_gamma 119.91132
loop_
_atom_site_label
_atom_site_type_symbol
_atom_site_fract_x
_atom_site_fract_y
_atom_site_fract_z
_atom_type_partial_charge
Tb0 Tb 0.0697 0.63933 0.16305 0.0
Tb1 Tb 0.89462 0.55183 0.18566 0.0
C2 C 0.98313 0.46325 0.17442 0.0
C3 C 0.21976 0.70143 0.12247 0.0
C4 C 0.25997 0.69495 0.08185 0.0
C5 C 0.31196 0.7023 0.09754 0.0
C6 C 0.29193 0.70544 0.11766 0.0
C7 C 0.16777 0.69397 0.10688 0.0
C8 C 0.1875 0.6906 0.0868 0.0
C9 C 0.19882 0.70463 0.14368 0.0
O10 O 0.98276 0.61434 0.13944 0.0
O11 O 0.86704 0.51785 0.15418 0.0
O12 O 0.91337 0.66077 0.17209 0.0
O13 O 0.04761 0.72815 0.17624 0.0
O14 O 0.79014 0.44835 0.19404 0.0
O15 O 0.81122 0.5633 0.20327 0.0
O16 O 0.98157 0.61714 0.20886 0.0
O17 O 0.09656 0.63231 0.1946 0.0
O18 O 0.01608 0.51258 0.15943 0.0
O19 O 0.95016 0.48012 0.18938 0.0
C20 C 0.90836 0.55696 0.13824 0.0
O21 O 0.15528 0.73717 0.14694 0.0
O22 O 0.17415 0.63993 0.15411 0.0
C23 C 0.98031 0.72747 0.17408 0.0
C24 C 0.75096 0.46089 0.22679 0.0
C25 C 0.72259 0.41924 0.26788 0.0
C26 C 0.66127 0.41338 0.25543 0.0
C27 C 0.67549 0.43432 0.23506 0.0
C28 C 0.81202 0.4658 0.23905 0.0
C29 C 0.79806 0.44539 0.25941 0.0
C30 C 0.76727 0.48714 0.20571 0.0
C31 C 0.05533 0.63241 0.21036 0.0
H32 H 0.36864 0.70672 0.09427 0.0
H33 H 0.33294 0.7113 0.12947 0.0
H34 H 0.1119 0.69101 0.11023 0.0
H35 H 0.14546 0.68371 0.07519 0.0
H36 H 0.60273 0.39419 0.26153 0.0
H37 H 0.62786 0.43069 0.22584 0.0
H38 H 0.87069 0.48605 0.23288 0.0
H39 H 0.84626 0.44957 0.26849 0.0
Tb40 Tb 0.46783 0.98214 0.49675 0.0
Tb41 Tb 0.55845 0.15588 0.51976 0.0
C42 C 0.38117 0.07074 0.50924 0.0
C43 C 0.37491 0.83748 0.45546 0.0
C44 C 0.33018 0.80163 0.41472 0.0
C45 C 0.29539 0.74277 0.42961 0.0
C46 C 0.31785 0.76056 0.44981 0.0
C47 C 0.4086 0.89672 0.4407 0.0
C48 C 0.38683 0.87888 0.4205 0.0
C49 C 0.3999 0.85546 0.47663 0.0
O50 O 0.53907 0.06865 0.47405 0.0
O51 O 0.55353 0.18301 0.4881 0.0
O52 O 0.64653 0.13027 0.50753 0.0
O53 O 0.5741 -0.00373 0.51107 0.0
O54 O 0.56541 0.26396 0.52708 0.0
O55 O 0.65316 0.23575 0.53789 0.0
O56 O 0.52861 0.06861 0.54342 0.0
O57 O 0.4341 0.95296 0.5282 0.0
O58 O 0.39797 0.04015 0.49374 0.0
O59 O 0.43189 0.1036 0.52395 0.0
C60 C 0.55586 0.14253 0.47248 0.0
O61 O 0.47632 0.89644 0.47959 0.0
O62 O 0.36192 0.88146 0.48758 0.0
C63 C 0.64261 0.06176 0.50989 0.0
C64 C 0.61546 0.30501 0.55998 0.0
C65 C 0.60174 0.34106 0.60052 0.0
C66 C 0.67223 0.38752 0.58959 0.0
C67 C 0.67889 0.36966 0.56952 0.0
C68 C 0.54499 0.25838 0.57075 0.0
C69 C 0.53802 0.27646 0.59077 0.0
C70 C 0.62505 0.28386 0.53929 0.0
C71 C 0.47195 -0.00593 0.54428 0.0
H72 H 0.2519 0.68264 0.42559 0.0
H73 H 0.29112 0.71414 0.46101 0.0
H74 H 0.45209 0.95667 0.4448 0.0
H75 H 0.41381 0.92572 0.40943 0.0
H76 H 0.72302 0.43679 0.59665 0.0
H77 H 0.73412 0.40564 0.56153 0.0
H78 H 0.49553 0.20759 0.56371 0.0
H79 H 0.4825 0.23994 0.59857 0.0
Tb80 Tb 0.45294 0.63269 0.82989 0.0
Tb81 Tb 0.54205 0.54489 0.85149 0.0
C82 C 0.62886 0.72214 0.84146 0.0
C83 C 0.37251 0.70088 0.78932 0.0
C84 C 0.35597 0.71307 0.74744 0.0
C85 C 0.36081 0.77169 0.76072 0.0
C86 C 0.36896 0.76555 0.78145 0.0
C87 C 0.36574 0.64115 0.77627 0.0
C88 C 0.35718 0.64699 0.75553 0.0
C89 C 0.39206 0.70078 0.81068 0.0
O90 O 0.51559 0.6086 0.80623 0.0
O91 O 0.52826 0.50728 0.82016 0.0
O92 O 0.41519 0.46929 0.85499 0.0
O93 O 0.37715 0.50631 0.82638 0.0
O94 O 0.64733 0.55829 0.86377 0.0
O95 O 0.54096 0.44439 0.86358 0.0
O96 O 0.51719 0.60571 0.87543 0.0
O97 O 0.41779 0.62233 0.86139 0.0
O98 O 0.5617 0.72138 0.84382 0.0
O99 O 0.62968 0.65629 0.83847 0.0
C100 C 0.5274 0.54803 0.80446 0.0
O101 O 0.35058 0.63467 0.82051 0.0
O102 O 0.46765 0.73263 0.8144 0.0
C103 C 0.36318 0.45499 0.84074 0.0
C104 C 0.62284 0.47886 0.89236 0.0
C105 C 0.64626 0.4688 0.934 0.0
C106 C 0.65035 0.41572 0.92029 0.0
C107 C 0.63858 0.42068 0.89963 0.0
C108 C 0.61794 0.53123 0.90599 0.0
C109 C 0.62892 0.52597 0.92657 0.0
C110 C 0.6128 0.48618 0.87061 0.0
C111 C 0.45766 0.61955 0.87709 0.0
H112 H 0.36161 0.8241 0.75508 0.0
H113 H 0.3753 0.81275 0.79127 0.0
H114 H 0.36923 0.59107 0.78207 0.0
H115 H 0.35273 0.6003 0.74583 0.0
H116 H 0.66444 0.37152 0.92543 0.0
H117 H 0.64282 0.37984 0.88933 0.0
H118 H 0.60662 0.57707 0.90069 0.0
H119 H 0.62386 0.56693 0.93664 0.0
H120 H 0.09378 0.86832 0.18934 0.0
H121 H 0.09261 -0.00714 0.19019 0.0
H122 H 0.86714 0.88183 0.15937 0.0
H123 H 0.86641 0.75615 0.15923 0.0
H124 H 0.09359 0.08312 0.16069 0.0
H125 H 0.81961 0.98315 0.20567 0.0
H126 H 0.86655 0.92398 0.20276 0.0
H127 H 0.80254 0.92507 0.18334 0.0
C128 C 0.04377 0.87039 0.18284 0.0
C129 C 0.97989 0.8026 0.17435 0.0
C130 C 0.04318 0.94151 0.18333 0.0
C131 C 0.97912 0.9462 0.17517 0.0
C132 C 0.91602 0.87891 0.1663 0.0
H133 H 0.00211 0.38729 0.1423 0.0
H134 H 0.0012 0.26162 0.14244 0.0
C135 C 0.91591 0.80735 0.16611 0.0
C136 C 0.97976 0.02225 0.17547 0.0
H137 H 0.87208 0.10869 0.18967 0.0
C138 C 0.0454 0.08889 0.16714 0.0
C139 C 0.91739 0.02981 0.18418 0.0
C140 C 0.84798 0.96187 0.19468 0.0
C141 C 0.05011 0.16288 0.16709 0.0
C142 C 0.98599 0.1696 0.17493 0.0
C143 C 0.92075 0.10315 0.18346 0.0
C144 C 0.98571 0.2452 0.17472 0.0
C145 C 0.12454 0.23322 0.15907 0.0
C146 C 0.97421 0.27604 0.19271 0.0
C147 C 0.97277 0.34677 0.1926 0.0
C148 C 0.98362 0.38815 0.17451 0.0
C149 C -0.0053 0.35706 0.1565 0.0
C150 C -0.00528 0.2856 0.15657 0.0
H151 H 0.17607 0.22333 0.15968 0.0
H152 H 0.11528 0.2429 0.14307 0.0
H153 H 0.13955 0.28772 0.16768 0.0
H154 H 0.96678 0.24555 0.20687 0.0
H155 H 0.96422 0.36953 0.2067 0.0
H156 H 0.30709 0.07943 0.54308 0.0
H157 H 0.17603 0.06716 0.54557 0.0
H158 H 0.15005 0.04087 0.48101 0.0
H159 H 0.27966 0.04953 0.47852 0.0
H160 H 0.12481 0.15758 0.53133 0.0
H161 H 0.94283 0.85924 0.49871 0.0
H162 H 0.04546 0.89805 0.50554 0.0
H163 H 0.01983 0.92314 0.48167 0.0
C164 C 0.27319 0.07064 0.52943 0.0
C165 C 0.30312 0.06512 0.5106 0.0
C166 C 0.19836 0.06346 0.53088 0.0
C167 C 0.15268 0.0515 0.51352 0.0
C168 C 0.18321 0.04749 0.49466 0.0
H169 H 0.79023 0.17366 0.49777 0.0
H170 H 0.91271 0.16828 0.50015 0.0
C171 C 0.25748 0.05318 0.49323 0.0
C172 C 0.07492 0.04738 0.51505 0.0
H173 H 0.88179 0.94025 0.50018 0.0
C174 C 0.07144 0.10955 0.52474 0.0
C175 C 0.00502 0.98384 0.50684 0.0
C176 C 0.00324 0.91192 0.49782 0.0
C177 C 0.00049 0.11142 0.52578 0.0
C178 C 0.93211 0.05099 0.5162 0.0
C179 C 0.93475 0.98723 0.50721 0.0
C180 C 0.85788 0.05394 0.51481 0.0
C181 C -0.00041 0.17783 0.53725 0.0
C182 C 0.78603 0.99002 0.52153 0.0
C183 C 0.71564 -0.00782 0.51977 0.0
C184 C 0.71634 0.05856 0.51138 0.0
C185 C 0.78822 0.12219 0.50453 0.0
C186 C 0.85828 0.11946 0.50602 0.0
H187 H 0.04622 0.20194 0.54907 0.0
H188 H 0.01193 0.2267 0.52669 0.0
H189 H 0.94112 0.15798 0.5445 0.0
H190 H 0.78451 0.93868 0.52823 0.0
H191 H 0.66097 0.94237 0.52521 0.0
H192 H 0.77883 0.74412 0.84086 0.0
H193 H 0.90373 0.86964 0.84166 0.0
H194 H 0.77434 -0.00394 0.84366 0.0
H195 H 0.64898 0.87083 0.8432 0.0
H196 H 0.95705 -0.00776 0.81411 0.0
H197 H 0.92975 0.09082 0.89073 0.0
H198 H 0.86807 0.9904 0.88213 0.0
H199 H 0.84647 0.06614 0.87461 0.0
C200 C 0.77688 0.79859 0.84155 0.0
C201 C 0.70415 0.7977 0.84202 0.0
C202 C 0.84822 0.87011 0.84201 0.0
C203 C 0.84792 0.9417 0.84299 0.0
C204 C 0.77554 0.94116 0.84333 0.0
H205 H 0.23943 0.40625 0.81445 0.0
H206 H 0.11393 0.28116 0.81494 0.0
C207 C 0.7041 0.86964 0.84295 0.0
C208 C 0.92358 0.01706 0.84298 0.0
H209 H 0.03539 0.18459 0.87034 0.0
C210 C 0.97443 0.0343 0.82641 0.0
C211 C 0.946 0.07103 0.85918 0.0
C212 C 0.89513 0.05356 0.87777 0.0
C213 C 0.04718 0.10492 0.82549 0.0
C214 C 0.0685 0.15991 0.84141 0.0
C215 C 0.01814 0.1423 0.85809 0.0
C216 C 0.1437 0.23564 0.84119 0.0
C217 C 0.10113 0.11951 0.80768 0.0
C218 C 0.20077 0.25169 0.85608 0.0
C219 C 0.27224 0.32312 0.85593 0.0
C220 C 0.28748 0.37969 0.84092 0.0
C221 C 0.22965 0.36365 0.82614 0.0
C222 C 0.15813 0.29219 0.82633 0.0
H223 H 0.08506 0.064 0.7994 0.0
H224 H 0.09601 0.16067 0.79708 0.0
H225 H 0.16404 0.14697 0.81253 0.0
H226 H 0.19023 0.20862 0.86771 0.0
H227 H 0.31548 0.33377 0.86756 0.0
H228 H 0.4886 0.57117 0.91264 0.0
H229 H 0.45275 0.5902 0.94648 0.0
H230 H 0.33903 0.71338 0.92207 0.0
H231 H 0.37412 0.69343 0.8879 0.0
H232 H 0.49505 0.72626 0.96664 0.0
H233 H 0.16703 0.55277 0.95854 0.0
H234 H 0.23347 0.54861 0.9402 0.0
H235 H 0.21625 0.63098 0.94051 0.0
C236 C 0.45649 0.60283 0.91441 0.0
C237 C 0.43487 0.63138 0.89756 0.0
C238 C 0.43561 0.6133 0.9338 0.0
C239 C 0.39248 0.65249 0.93685 0.0
C240 C 0.3709 0.68148 0.92008 0.0
H241 H 0.23446 0.76498 0.04911 0.0
H242 H 0.26716 0.75785 0.01385 0.0
C243 C 0.39134 0.67043 0.90057 0.0
C244 C 0.37219 0.66403 0.95769 0.0
H245 H 0.21694 0.61973 0.98945 0.0
C246 C 0.43421 0.70301 0.97161 0.0
C247 C 0.29278 0.63378 0.96416 0.0
C248 C 0.22342 0.58857 0.95015 0.0
C249 C 0.41909 0.71226 0.99181 0.0
C250 C 0.33975 0.68101 0.99834 0.0
C251 C 0.27772 0.64352 0.98437 0.0
C252 C 0.31991 0.68507 0.01972 0.0
C253 C 0.48819 0.7558 1.006 0.0
C254 C 0.33791 0.64568 0.03466 0.0
C255 C 0.31881 0.64911 0.05482 0.0
C256 C 0.281 0.69179 0.06042 0.0
C257 C 0.26268 0.7308 0.04533 0.0
C258 C 0.28165 0.72716 0.02517 0.0
H259 H 0.5446 0.79294 0.99774 0.0
H260 H 0.47764 0.79409 0.01646 0.0
H261 H 0.49544 0.71222 0.01513 0.0
H262 H 0.36603 0.61155 0.0307 0.0
H263 H 0.33244 0.61717 0.06595 0.0
H264 H 0.58456 0.2904 0.46125 0.0
H265 H 0.61858 0.34953 0.42754 0.0
H266 H 0.61066 0.13899 0.4045 0.0
H267 H 0.57873 0.08046 0.43794 0.0
H268 H 0.74234 0.27618 0.39148 0.0
H269 H 0.46561 0.28867 0.37969 0.0
H270 H 0.52089 0.33723 0.40199 0.0
H271 H 0.47577 0.23178 0.39969 0.0
C272 C 0.5902 0.25677 0.44901 0.0
C273 C 0.57816 0.18033 0.45233 0.0
C274 C 0.60915 0.29047 0.42973 0.0
C275 C 0.61602 0.24818 0.41345 0.0
C276 C 0.60534 0.17258 0.41682 0.0
H277 H 0.59364 0.29302 0.28513 0.0
H278 H 0.57116 0.25766 0.32083 0.0
C279 C 0.58664 0.13904 0.43599 0.0
C280 C 0.63464 0.28186 0.39281 0.0
H281 H 0.56106 0.33934 0.35369 0.0
C282 C 0.70303 0.29052 0.38325 0.0
C283 C 0.58271 0.2996 0.38203 0.0
C284 C 0.50674 0.28836 0.39125 0.0
C285 C 0.72044 0.31543 0.36312 0.0
C286 C 0.66874 0.33359 0.35237 0.0
C287 C 0.60082 0.32583 0.362 0.0
C288 C 0.6821 0.35709 0.33082 0.0
C289 C 0.79249 0.31927 0.35336 0.0
C290 C 0.75143 0.42537 0.3246 0.0
C291 C 0.76451 0.44561 0.3042 0.0
C292 C 0.7081 0.39841 0.28962 0.0
C293 C 0.63796 0.33097 0.29597 0.0
C294 C 0.62512 0.31058 0.31636 0.0
H295 H 0.81447 0.28527 0.36198 0.0
H296 H 0.77915 0.29596 0.33774 0.0
H297 H 0.84098 0.38178 0.35273 0.0
H298 H 0.79539 0.46313 0.33554 0.0
H299 H 0.81847 0.49873 0.29985 0.0
H300 H 0.27878 0.77583 0.72637 0.0
H301 H 0.28983 0.80722 0.69056 0.0
H302 H 0.43857 0.70343 0.68211 0.0
H303 H 0.43162 0.67584 0.71812 0.0
H304 H 0.50373 0.84462 0.66548 0.0
H305 H 0.19047 0.67684 0.64113 0.0
H306 H 0.20306 0.7405 0.66198 0.0
H307 H 0.22303 0.66039 0.66516 0.0
C308 C 0.31376 0.75946 0.71692 0.0
C309 C 0.3546 0.72359 0.72524 0.0
C310 C 0.31897 0.77636 0.69634 0.0
C311 C 0.36402 0.75661 0.68353 0.0
C312 C 0.40295 0.71871 0.69166 0.0
H313 H 0.38621 0.83527 0.5528 0.0
H314 H 0.35948 0.77261 0.58606 0.0
C315 C 0.39834 0.70237 0.71227 0.0
C316 C 0.37652 0.78207 0.66211 0.0
H317 H 0.28006 0.78177 0.6191 0.0
C318 C 0.45474 0.82998 0.65529 0.0
C319 C 0.3128 0.76215 0.64866 0.0
C320 C 0.2277 0.70643 0.65454 0.0
C321 C 0.47093 0.86086 0.63569 0.0
C322 C 0.40712 0.84528 0.62269 0.0
C323 C 0.32893 0.79477 0.62919 0.0
C324 C 0.42063 0.8828 0.60255 0.0
C325 C 0.55643 0.90975 0.62913 0.0
C326 C 0.46208 0.96547 0.60081 0.0
C327 C 0.47797 0.00132 0.5819 0.0
C328 C 0.45167 0.95525 0.56428 0.0
C329 C 0.40754 0.87243 0.56606 0.0
C330 C 0.39222 0.83652 0.58505 0.0
H331 H 0.5958 0.89529 0.63806 0.0
H332 H 0.56361 0.90051 0.61293 0.0
H333 H 0.57656 0.97329 0.63152 0.0
H334 H 0.48254 0.00244 0.61413 0.0
H335 H 0.51094 0.06529 0.58113 0.0
H336 H 0.60164 0.33849 0.95809 0.0
H337 H 0.62943 0.33651 0.99403 0.0
H338 H 0.75366 0.59127 0.99531 0.0
H339 H 0.72807 0.59411 0.95949 0.0
H340 H 0.78123 0.40815 0.01305 0.0
H341 H 0.59491 0.52712 0.04273 0.0
H342 H 0.58248 0.48609 0.0177 0.0
H343 H 0.66038 0.58538 0.02276 0.0
C344 C 0.63522 0.39412 0.96599 0.0
C345 C 0.66207 0.46646 0.95587 0.0
C346 C 0.65053 0.39281 0.98655 0.0
C347 C 0.69224 0.4637 0.99739 0.0
C348 C 0.7196 0.53584 0.98734 0.0
H349 H 0.97945 0.61081 0.10168 0.0
H350 H 0.91905 0.57701 0.06846 0.0
C351 C 0.70476 0.53727 0.96683 0.0
C352 C 0.71095 0.4632 0.01901 0.0
H353 H 0.69348 0.53096 0.06511 0.0
C354 C 0.7611 0.43389 0.0245 0.0
C355 C 0.68385 0.49594 0.03395 0.0
C356 C 0.62678 0.52476 0.02907 0.0
C357 C 0.78833 0.44035 0.04436 0.0
C358 C 0.76519 0.47759 0.05903 0.0
C359 C 0.71162 0.50301 0.05379 0.0
C360 C 0.80087 0.4962 0.07941 0.0
C361 C 0.84291 0.40869 0.04943 0.0
C362 C 0.75413 0.46314 0.09668 0.0
C363 C 0.78875 0.4824 0.11586 0.0
C364 C 0.87052 0.53595 0.11807 0.0
C365 C 0.91657 0.56941 0.10066 0.0
C366 C 0.88217 0.54975 0.08158 0.0
H367 H 0.83738 0.36345 0.03837 0.0
H368 H 0.90527 0.45799 0.04914 0.0
H369 H 0.83027 0.38222 0.06473 0.0
H370 H 0.69104 0.42214 0.0953 0.0
H371 H 0.7514 0.45571 0.12893 0.0
H372 H 0.98219 0.61982 0.24639 0.0
H373 H 0.04061 0.64779 0.2799 0.0
H374 H 0.26928 0.71305 0.2544 0.0
H375 H 0.21111 0.68453 0.2205 0.0
H376 H 0.1317 0.5767 0.29821 0.0
H377 H 0.29998 0.90507 0.2913 0.0
H378 H 0.21622 0.84389 0.27533 0.0
H379 H 0.30912 0.84722 0.27141 0.0
C380 C 0.04498 0.64015 0.24777 0.0
C381 C 0.092 0.65008 0.23066 0.0
C382 C 0.07817 0.65599 0.267 0.0
C383 C 0.1592 0.68293 0.26959 0.0
C384 C 0.20664 0.69289 0.25265 0.0
H385 H 0.42858 0.8456 0.38195 0.0
H386 H 0.39144 0.81393 0.34651 0.0
C387 C 0.17327 0.67638 0.23332 0.0
C388 C 0.193 0.69988 0.29015 0.0
H389 H 0.30421 0.85106 0.32257 0.0
C390 C 0.16996 0.63659 0.30354 0.0
C391 C 0.24314 0.778 0.29695 0.0
C392 C 0.26861 0.84785 0.28312 0.0
C393 C 0.19509 0.64938 0.32369 0.0
C394 C 0.24261 0.72783 0.33077 0.0
C395 C 0.26745 0.79101 0.31718 0.0
C396 C 0.26515 0.74578 0.35232 0.0
C397 C 0.1709 0.57858 0.3371 0.0
C398 C 0.20652 0.71899 0.36737 0.0
C399 C 0.22763 0.73655 0.38763 0.0
C400 C 0.30775 0.78251 0.39321 0.0
C401 C 0.36632 0.81045 0.3781 0.0
C402 C 0.3452 0.79219 0.35785 0.0
H403 H 0.15828 0.52533 0.32819 0.0
H404 H 0.21773 0.58987 0.34831 0.0
H405 H 0.1158 0.56518 0.34531 0.0
H406 H 0.14424 0.68521 0.36345 0.0
H407 H 0.18113 0.7154 0.39889 0.0
H408 H 0.51082 0.60637 0.76851 0.0
H409 H 0.52364 0.5653 0.73467 0.0
H410 H 0.58069 0.39587 0.75962 0.0
H411 H 0.56791 0.4365 0.79375 0.0
H412 H 0.68367 0.49504 0.72687 0.0
H413 H 0.36251 0.34946 0.70834 0.0
H414 H 0.40484 0.44819 0.71817 0.0
H415 H 0.39899 0.37063 0.7339 0.0
C416 C 0.52631 0.56046 0.76691 0.0
C417 C 0.53816 0.5246 0.78393 0.0
C418 C 0.53319 0.53681 0.7475 0.0
C419 C 0.55215 0.47693 0.74466 0.0
C420 C 0.56559 0.44196 0.76153 0.0
H421 H 0.52687 0.23684 0.6316 0.0
H422 H 0.51544 0.26749 0.66675 0.0
C423 C 0.55821 0.46523 0.78101 0.0
C424 C 0.55827 0.45147 0.72401 0.0
H425 H 0.45054 0.36773 0.68135 0.0
C426 C 0.63271 0.46679 0.71694 0.0
C427 C 0.49149 0.41407 0.71118 0.0
C428 C 0.4097 0.39388 0.71826 0.0
C429 C 0.64248 0.44763 0.69713 0.0
C430 C 0.57616 0.41252 0.68411 0.0
C431 C 0.50135 0.3952 0.69135 0.0
C432 C 0.58347 0.39423 0.66281 0.0
C433 C 0.72356 0.46494 0.69021 0.0
C434 C 0.62464 0.45545 0.64892 0.0
C435 C 0.63032 0.43829 0.62873 0.0
C436 C 0.59511 0.35941 0.62203 0.0
C437 C 0.55373 0.29824 0.63608 0.0
C438 C 0.54759 0.31555 0.65624 0.0
H439 H 0.76468 0.4773 0.70307 0.0
H440 H 0.71925 0.41446 0.68143 0.0
H441 H 0.74944 0.51756 0.68024 0.0
H442 H 0.65166 0.51662 0.65366 0.0
H443 H 0.66136 0.48697 0.61833 0.0
loop_
_geom_bond_atom_site_label_1
_geom_bond_atom_site_label_2
_geom_bond_distance
_geom_bond_site_symmetry_2
_ccdc_geom_bond_type
Tb0 C9 2.764 . S
Tb0 O10 2.325 . S
Tb0 O13 2.303 . S
Tb0 O17 2.322 . S
Tb0 O18 2.349 . S
Tb0 O21 2.415 . S
Tb0 O22 2.399 . S
Tb1 O11 2.322 . S
Tb1 O12 2.349 1_655 S
Tb1 O14 2.415 . S
Tb1 O15 2.399 . S
Tb1 O16 2.325 1_655 S
Tb1 O19 2.303 1_655 S
Tb1 C30 2.764 . S
C2 O18 1.261 . S
C2 O19 1.257 . S
C3 C6 1.358 . S
C3 C7 1.332 . S
C3 C9 1.504 . S
C4 C5 1.373 . S
C4 C8 1.308 . S
C5 C4 1.373 . S
C5 C6 1.429 . S
C5 H32 0.932 . S
C6 C3 1.358 . S
C6 C5 1.429 . S
C6 H33 0.930 . S
C7 C3 1.332 . S
C7 C8 1.394 . S
C7 H34 0.932 . S
C8 C4 1.308 . S
C8 C7 1.394 . S
C8 H35 0.929 . S
C9 Tb0 2.764 . S
C9 C3 1.504 . S
C9 O21 1.239 . S
C9 O22 1.263 . S
O10 Tb0 2.325 . S
O10 C20 1.236 . S
O11 Tb1 2.322 . S
O11 C20 1.257 1_655 S
O12 Tb1 2.349 1_455 S
O12 C23 1.261 . S
O13 Tb0 2.303 . S
O13 C23 1.257 . S
O14 Tb1 2.415 . S
O14 C30 1.239 . S
O15 Tb1 2.399 . S
O15 C30 1.263 . S
O16 Tb1 2.325 1_455 S
O16 C31 1.236 . S
O17 Tb0 2.322 . S
O17 C31 1.257 . S
O18 Tb0 2.349 . S
O18 C2 1.261 . S
O19 Tb1 2.303 1_455 S
O19 C2 1.257 . S
C20 O10 1.236 . S
C20 O11 1.257 1_455 S
O21 Tb0 2.415 . S
O21 C9 1.239 . S
O22 Tb0 2.399 . S
O22 C9 1.263 . S
C23 O12 1.261 . S
C23 O13 1.257 . S
C24 C27 1.358 . S
C24 C28 1.332 . S
C24 C30 1.504 . S
C25 C26 1.373 . S
C25 C29 1.308 . S
C26 C25 1.373 . S
C26 C27 1.429 . S
C26 H36 0.932 . S
C27 C24 1.358 . S
C27 C26 1.429 . S
C27 H37 0.930 . S
C28 C24 1.332 . S
C28 C29 1.394 . S
C28 H38 0.932 . S
C29 C25 1.308 . S
C29 C28 1.394 . S
C29 H39 0.929 . S
C30 Tb1 2.764 . S
C30 O14 1.239 . S
C30 O15 1.263 . S
C30 C24 1.504 . S
C31 O16 1.236 . S
C31 O17 1.257 . S
H32 C5 0.932 . S
H33 C6 0.930 . S
H34 C7 0.932 . S
H35 C8 0.929 . S
H36 C26 0.932 . S
H37 C27 0.930 . S
H38 C28 0.932 . S
H39 C29 0.929 . S
Tb40 C49 2.764 . S
Tb40 O50 2.325 1_565 S
Tb40 O53 2.303 . S
Tb40 O57 2.322 . S
Tb40 O58 2.349 . S
Tb40 O61 2.415 . S
Tb40 O62 2.399 . S
Tb41 O51 2.322 . S
Tb41 O52 2.349 . S
Tb41 O54 2.415 . S
Tb41 O55 2.399 . S
Tb41 O56 2.325 1_545 S
Tb41 O59 2.303 . S
Tb41 C70 2.764 . S
C42 O58 1.261 . S
C42 O59 1.257 1_565 S
C43 C46 1.358 . S
C43 C47 1.332 . S
C43 C49 1.504 . S
C44 C45 1.373 . S
C44 C48 1.308 . S
C45 C44 1.373 . S
C45 C46 1.429 . S
C45 H72 0.932 . S
C46 C43 1.358 . S
C46 C45 1.429 . S
C46 H73 0.930 . S
C47 C43 1.332 . S
C47 C48 1.394 . S
C47 H74 0.932 . S
C48 C44 1.308 . S
C48 C47 1.394 . S
C48 H75 0.929 . S
C49 Tb40 2.764 . S
C49 C43 1.504 . S
C49 O61 1.239 . S
C49 O62 1.263 . S
O50 Tb40 2.325 1_545 S
O50 C60 1.236 . S
O51 Tb41 2.322 . S
O51 C60 1.257 . S
O52 Tb41 2.349 . S
O52 C63 1.261 . S
O53 Tb40 2.303 . S
O53 C63 1.257 1_565 S
O54 Tb41 2.415 . S
O54 C70 1.239 . S
O55 Tb41 2.399 . S
O55 C70 1.263 . S
O56 Tb41 2.325 1_565 S
O56 C71 1.236 . S
O57 Tb40 2.322 . S
O57 C71 1.257 . S
O58 Tb40 2.349 . S
O58 C42 1.261 . S
O59 Tb41 2.303 . S
O59 C42 1.257 1_545 S
C60 O50 1.236 . S
C60 O51 1.257 . S
O61 Tb40 2.415 . S
O61 C49 1.239 . S
O62 Tb40 2.399 . S
O62 C49 1.263 . S
C63 O52 1.261 . S
C63 O53 1.257 1_545 S
C64 C67 1.358 . S
C64 C68 1.332 . S
C64 C70 1.504 . S
C65 C66 1.373 . S
C65 C69 1.308 . S
C66 C65 1.373 . S
C66 C67 1.429 . S
C66 H76 0.932 . S
C67 C64 1.358 . S
C67 C66 1.429 . S
C67 H77 0.930 . S
C68 C64 1.332 . S
C68 C69 1.394 . S
C68 H78 0.932 . S
C69 C65 1.308 . S
C69 C68 1.394 . S
C69 H79 0.929 . S
C70 Tb41 2.764 . S
C70 O54 1.239 . S
C70 O55 1.263 . S
C70 C64 1.504 . S
C71 O56 1.236 . S
C71 O57 1.257 . S
H72 C45 0.932 . S
H73 C46 0.930 . S
H74 C47 0.932 . S
H75 C48 0.929 . S
H76 C66 0.932 . S
H77 C67 0.930 . S
H78 C68 0.932 . S
H79 C69 0.929 . S
Tb80 C89 2.764 . S
Tb80 O90 2.325 . S
Tb80 O93 2.303 . S
Tb80 O97 2.322 . S
Tb80 O98 2.349 . S
Tb80 O101 2.415 . S
Tb80 O102 2.399 . S
Tb81 O91 2.322 . S
Tb81 O92 2.349 . S
Tb81 O94 2.415 . S
Tb81 O95 2.399 . S
Tb81 O96 2.325 . S
Tb81 O99 2.303 . S
Tb81 C110 2.764 . S
C82 O98 1.261 . S
C82 O99 1.257 . S
C83 C86 1.358 . S
C83 C87 1.332 . S
C83 C89 1.504 . S
C84 C85 1.373 . S
C84 C88 1.308 . S
C85 C84 1.373 . S
C85 C86 1.429 . S
C85 H112 0.932 . S
C86 C83 1.358 . S
C86 C85 1.429 . S
C86 H113 0.930 . S
C87 C83 1.332 . S
C87 C88 1.394 . S
C87 H114 0.932 . S
C88 C84 1.308 . S
C88 C87 1.394 . S
C88 H115 0.929 . S
C89 Tb80 2.764 . S
C89 C83 1.504 . S
C89 O101 1.239 . S
C89 O102 1.263 . S
O90 Tb80 2.325 . S
O90 C100 1.236 . S
O91 Tb81 2.322 . S
O91 C100 1.257 . S
O92 Tb81 2.349 . S
O92 C103 1.261 . S
O93 Tb80 2.303 . S
O93 C103 1.257 . S
O94 Tb81 2.415 . S
O94 C110 1.239 . S
O95 Tb81 2.399 . S
O95 C110 1.263 . S
O96 Tb81 2.325 . S
O96 C111 1.236 . S
O97 Tb80 2.322 . S
O97 C111 1.257 . S
O98 Tb80 2.349 . S
O98 C82 1.261 . S
O99 Tb81 2.303 . S
O99 C82 1.257 . S
C100 O90 1.236 . S
C100 O91 1.257 . S
O101 Tb80 2.415 . S
O101 C89 1.239 . S
O102 Tb80 2.399 . S
O102 C89 1.263 . S
C103 O92 1.261 . S
C103 O93 1.257 . S
C104 C107 1.358 . S
C104 C108 1.332 . S
C104 C110 1.504 . S
C105 C106 1.373 . S
C105 C109 1.308 . S
C106 C105 1.373 . S
C106 C107 1.429 . S
C106 H116 0.932 . S
C107 C104 1.358 . S
C107 C106 1.429 . S
C107 H117 0.930 . S
C108 C104 1.332 . S
C108 C109 1.394 . S
C108 H118 0.932 . S
C109 C105 1.308 . S
C109 C108 1.394 . S
C109 H119 0.929 . S
C110 Tb81 2.764 . S
C110 O94 1.239 . S
C110 O95 1.263 . S
C110 C104 1.504 . S
C111 O96 1.236 . S
C111 O97 1.257 . S
H112 C85 0.932 . S
H113 C86 0.930 . S
H114 C87 0.932 . S
H115 C88 0.929 . S
H116 C106 0.932 . S
H117 C107 0.930 . S
H118 C108 0.932 . S
H119 C109 0.929 . S
H120 C128 0.929 . S
H121 C130 0.930 . S
H122 C132 0.930 . S
H123 C135 0.929 . S
H124 C138 0.930 . S
H125 C140 0.960 1_545 S
H126 C140 0.960 . S
H127 C140 0.960 . S
C128 H120 0.929 . S
C128 C129 1.377 . S
C128 C130 1.384 . S
C129 C128 1.377 . S
C129 C135 1.390 . S
C130 H121 0.930 . S
C130 C128 1.384 . S
C130 C131 1.372 . S
C131 C130 1.372 . S
C131 C132 1.400 . S
C131 C136 1.490 1_565 S
C132 H122 0.930 . S
C132 C131 1.400 . S
C132 C135 1.386 . S
H133 C149 0.930 . S
H134 C150 0.931 . S
C135 H123 0.929 . S
C135 C129 1.390 . S
C135 C132 1.386 . S
C136 C131 1.490 1_545 S
C136 C138 1.395 . S
C136 C139 1.403 . S
H137 C143 0.930 1_655 S
C138 H124 0.930 . S
C138 C136 1.395 . S
C138 C141 1.403 . S
C139 C136 1.403 . S
C139 C140 1.524 1_445 S
C139 C143 1.400 . S
C140 H125 0.960 1_565 S
C140 H126 0.960 . S
C140 H127 0.960 . S
C140 C139 1.524 1_665 S
C141 C138 1.403 . S
C141 C142 1.392 . S
C141 C145 1.495 . S
C142 C141 1.392 . S
C142 C143 1.385 . S
C142 C144 1.478 . S
C143 H137 0.930 1_455 S
C143 C139 1.400 . S
C143 C142 1.385 . S
C144 C142 1.478 . S
C144 C146 1.381 . S
C144 C150 1.383 . S
C145 C141 1.495 . S
C145 H151 0.959 . S
C145 H152 0.961 . S
C145 H153 0.960 . S
C146 C144 1.381 . S
C146 C147 1.394 . S
C146 H154 0.930 . S
C147 C146 1.394 . S
C147 C148 1.383 . S
C147 H155 0.929 . S
C148 C147 1.383 . S
C148 C149 1.377 . S
C149 H133 0.930 . S
C149 C148 1.377 . S
C149 C150 1.379 . S
C150 H134 0.931 . S
C150 C144 1.383 . S
C150 C149 1.379 . S
H151 C145 0.959 . S
H152 C145 0.961 . S
H153 C145 0.960 . S
H154 C146 0.930 . S
H155 C147 0.929 . S
H156 C164 0.929 . S
H157 C166 0.930 . S
H158 C168 0.930 . S
H159 C171 0.929 . S
H160 C174 0.930 . S
H161 C176 0.960 . S
H162 C176 0.960 . S
H163 C176 0.960 1_455 S
C164 H156 0.929 . S
C164 C165 1.378 1_565 S
C164 C166 1.384 . S
C165 C164 1.378 1_545 S
C165 C171 1.392 . S
C166 H157 0.930 . S
C166 C164 1.384 . S
C166 C167 1.377 . S
C167 C166 1.377 . S
C167 C168 1.402 1_565 S
C167 C172 1.484 1_565 S
C168 H158 0.930 . S
C168 C167 1.402 1_545 S
C168 C171 1.386 . S
H169 C185 0.930 . S
H170 C186 0.931 . S
C171 H159 0.929 . S
C171 C165 1.392 . S
C171 C168 1.386 . S
C172 C167 1.484 1_545 S
C172 C174 1.395 . S
C172 C175 1.403 1_445 S
H173 C179 0.930 . S
C174 H160 0.930 . S
C174 C172 1.395 . S
C174 C177 1.403 1_455 S
C175 C172 1.403 1_665 S
C175 C176 1.524 . S
C175 C179 1.400 . S
C176 H161 0.960 . S
C176 H162 0.960 . S
C176 H163 0.960 1_655 S
C176 C175 1.524 . S
C177 C174 1.403 1_655 S
C177 C178 1.392 . S
C177 C181 1.495 . S
C178 C177 1.392 . S
C178 C179 1.385 1_545 S
C178 C180 1.478 . S
C179 H173 0.930 . S
C179 C175 1.400 . S
C179 C178 1.385 1_565 S
C180 C178 1.478 . S
C180 C182 1.381 1_545 S
C180 C186 1.383 . S
C181 C177 1.495 . S
C181 H187 0.959 1_655 S
C181 H188 0.961 . S
C181 H189 0.960 . S
C182 C180 1.381 1_565 S
C182 C183 1.394 . S
C182 H190 0.930 . S
C183 C182 1.394 . S
C183 C184 1.383 1_565 S
C183 H191 0.929 . S
C184 C183 1.383 1_545 S
C184 C185 1.377 . S
C185 H169 0.930 . S
C185 C184 1.377 . S
C185 C186 1.379 . S
C186 H170 0.931 . S
C186 C180 1.383 . S
C186 C185 1.379 . S
H187 C181 0.959 1_455 S
H188 C181 0.961 . S
H189 C181 0.960 . S
H190 C182 0.930 . S
H191 C183 0.929 . S
H192 C200 0.929 . S
H193 C202 0.930 . S
H194 C204 0.930 1_545 S
H195 C207 0.929 . S
H196 C210 0.930 . S
H197 C212 0.960 . S
H198 C212 0.960 . S
H199 C212 0.960 . S
C200 H192 0.929 . S
C200 C201 1.377 . S
C200 C202 1.384 . S
C201 C200 1.377 . S
C201 C207 1.390 . S
C202 H193 0.930 . S
C202 C200 1.384 . S
C202 C203 1.372 . S
C203 C202 1.372 . S
C203 C204 1.400 . S
C203 C208 1.490 1_565 S
C204 H194 0.930 1_565 S
C204 C203 1.400 . S
C204 C207 1.386 . S
H205 C221 0.930 . S
H206 C222 0.931 . S
C207 H195 0.929 . S
C207 C201 1.390 . S
C207 C204 1.386 . S
C208 C203 1.490 1_545 S
C208 C210 1.395 . S
C208 C211 1.403 . S
H209 C215 0.930 . S
C210 H196 0.930 . S
C210 C208 1.395 . S
C210 C213 1.403 1_655 S
C211 C208 1.403 . S
C211 C212 1.524 . S
C211 C215 1.400 . S
C212 H197 0.960 . S
C212 H198 0.960 . S
C212 H199 0.960 . S
C212 C211 1.524 . S
C213 C210 1.403 1_455 S
C213 C214 1.392 . S
C213 C217 1.495 . S
C214 C213 1.392 . S
C214 C215 1.385 1_455 S
C214 C216 1.478 . S
C215 H209 0.930 . S
C215 C211 1.400 . S
C215 C214 1.385 1_655 S
C216 C214 1.478 . S
C216 C218 1.381 . S
C216 C222 1.383 . S
C217 C213 1.495 . S
C217 H223 0.959 . S
C217 H224 0.961 . S
C217 H225 0.960 . S
C218 C216 1.381 . S
C218 C219 1.394 . S
C218 H226 0.930 . S
C219 C218 1.394 . S
C219 C220 1.383 . S
C219 H227 0.929 . S
C220 C219 1.383 . S
C220 C221 1.377 . S
C221 H205 0.930 . S
C221 C220 1.377 . S
C221 C222 1.379 . S
C222 H206 0.931 . S
C222 C216 1.383 . S
C222 C221 1.379 . S
H223 C217 0.959 . S
H224 C217 0.961 . S
H225 C217 0.960 . S
H226 C218 0.930 . S
H227 C219 0.929 . S
H228 C236 0.929 . S
H229 C238 0.930 . S
H230 C240 0.930 . S
H231 C243 0.929 . S
H232 C246 0.930 . S
H233 C248 0.960 . S
H234 C248 0.960 . S
H235 C248 0.960 . S
C236 H228 0.929 . S
C236 C237 1.377 . S
C236 C238 1.384 . S
C237 C236 1.377 . S
C237 C243 1.390 . S
C238 H229 0.930 . S
C238 C236 1.384 . S
C238 C239 1.372 . S
C239 C238 1.372 . S
C239 C240 1.400 . S
C239 C244 1.490 . S
C240 H230 0.930 . S
C240 C239 1.400 . S
C240 C243 1.386 . S
H241 C257 0.930 . S
H242 C258 0.931 . S
C243 H231 0.929 . S
C243 C237 1.390 . S
C243 C240 1.386 . S
C244 C239 1.490 . S
C244 C246 1.395 . S
C244 C247 1.403 . S
H245 C251 0.930 . S
C246 H232 0.930 . S
C246 C244 1.395 . S
C246 C249 1.403 . S
C247 C244 1.403 . S
C247 C248 1.524 . S
C247 C251 1.400 . S
C248 H233 0.960 . S
C248 H234 0.960 . S
C248 H235 0.960 . S
C248 C247 1.524 . S
C249 C246 1.403 . S
C249 C250 1.392 . S
C249 C253 1.495 . S
C250 C249 1.392 . S
C250 C251 1.385 . S
C250 C252 1.478 1_556 S
C251 H245 0.930 . S
C251 C247 1.400 . S
C251 C250 1.385 . S
C252 C250 1.478 1_554 S
C252 C254 1.381 . S
C252 C258 1.383 . S
C253 C249 1.495 . S
C253 H259 0.959 . S
C253 H260 0.961 . S
C253 H261 0.991 . S
C254 C252 1.381 . S
C254 C255 1.394 . S
C254 H262 0.930 . S
C255 C254 1.394 . S
C255 C256 1.383 . S
C255 H263 0.929 . S
C256 C255 1.383 . S
C256 C257 1.377 . S
C257 H241 0.930 . S
C257 C256 1.377 . S
C257 C258 1.379 . S
C258 H242 0.931 . S
C258 C252 1.383 . S
C258 C257 1.379 . S
H259 C253 0.959 . S
H260 C253 0.961 . S
H261 C253 0.991 . S
H262 C254 0.930 . S
H263 C255 0.929 . S
H264 C272 0.929 . S
H265 C274 0.930 . S
H266 C276 0.930 . S
H267 C279 0.929 . S
H268 C282 0.930 . S
H269 C284 0.960 . S
H270 C284 0.960 . S
H271 C284 0.960 . S
C272 H264 0.929 . S
C272 C273 1.377 . S
C272 C274 1.384 . S
C273 C272 1.377 . S
C273 C279 1.390 . S
C274 H265 0.930 . S
C274 C272 1.384 . S
C274 C275 1.372 . S
C275 C274 1.372 . S
C275 C276 1.400 . S
C275 C280 1.490 . S
C276 H266 0.930 . S
C276 C275 1.400 . S
C276 C279 1.386 . S
H277 C293 0.930 . S
H278 C294 0.931 . S
C279 H267 0.929 . S
C279 C273 1.390 . S
C279 C276 1.386 . S
C280 C275 1.490 . S
C280 C282 1.395 . S
C280 C283 1.403 . S
H281 C287 0.930 . S
C282 H268 0.930 . S
C282 C280 1.395 . S
C282 C285 1.403 . S
C283 C280 1.403 . S
C283 C284 1.524 . S
C283 C287 1.400 . S
C284 H269 0.960 . S
C284 H270 0.960 . S
C284 H271 0.960 . S
C284 C283 1.524 . S
C285 C282 1.403 . S
C285 C286 1.392 . S
C285 C289 1.495 . S
C286 C285 1.392 . S
C286 C287 1.385 . S
C286 C288 1.478 . S
C287 H281 0.930 . S
C287 C283 1.400 . S
C287 C286 1.385 . S
C288 C286 1.478 . S
C288 C290 1.381 . S
C288 C294 1.383 . S
C289 C285 1.495 . S
C289 H295 0.959 . S
C289 H296 0.961 . S
C289 H297 0.960 . S
C290 C288 1.381 . S
C290 C291 1.394 . S
C290 H298 0.930 . S
C291 C290 1.394 . S
C291 C292 1.383 . S
C291 H299 0.929 . S
C292 C291 1.383 . S
C292 C293 1.377 . S
C293 H277 0.930 . S
C293 C292 1.377 . S
C293 C294 1.379 . S
C294 H278 0.931 . S
C294 C288 1.383 . S
C294 C293 1.379 . S
H295 C289 0.959 . S
H296 C289 0.961 . S
H297 C289 0.960 . S
H298 C290 0.930 . S
H299 C291 0.929 . S
H300 C308 0.929 . S
H301 C310 0.930 . S
H302 C312 0.930 . S
H303 C315 0.929 . S
H304 C318 0.930 . S
H305 C320 0.960 . S
H306 C320 0.960 . S
H307 C320 0.960 . S
C308 H300 0.929 . S
C308 C309 1.377 . S
C308 C310 1.384 . S
C309 C308 1.377 . S
C309 C315 1.390 . S
C310 H301 0.930 . S
C310 C308 1.384 . S
C310 C311 1.372 . S
C311 C310 1.372 . S
C311 C312 1.400 . S
C311 C316 1.490 . S
C312 H302 0.930 . S
C312 C311 1.400 . S
C312 C315 1.386 . S
H313 C329 0.930 . S
H314 C330 0.931 . S
C315 H303 0.929 . S
C315 C309 1.390 . S
C315 C312 1.386 . S
C316 C311 1.490 . S
C316 C318 1.395 . S
C316 C319 1.403 . S
H317 C323 0.930 . S
C318 H304 0.930 . S
C318 C316 1.395 . S
C318 C321 1.403 . S
C319 C316 1.403 . S
C319 C320 1.524 . S
C319 C323 1.400 . S
C320 H305 0.960 . S
C320 H306 0.960 . S
C320 H307 0.960 . S
C320 C319 1.524 . S
C321 C318 1.403 . S
C321 C322 1.392 . S
C321 C325 1.495 . S
C322 C321 1.392 . S
C322 C323 1.385 . S
C322 C324 1.478 . S
C323 H317 0.930 . S
C323 C319 1.400 . S
C323 C322 1.385 . S
C324 C322 1.478 . S
C324 C326 1.381 . S
C324 C330 1.383 . S
C325 C321 1.495 . S
C325 H331 0.959 1_565 S
C325 H332 0.961 . S
C325 H333 0.960 1_565 S
C326 C324 1.381 . S
C326 C327 1.394 . S
C326 H334 0.930 . S
C327 C326 1.394 . S
C327 C328 1.383 . S
C327 H335 0.929 . S
C328 C327 1.383 . S
C328 C329 1.377 . S
C329 H313 0.930 . S
C329 C328 1.377 . S
C329 C330 1.379 . S
C330 H314 0.931 . S
C330 C324 1.383 . S
C330 C329 1.379 . S
H331 C325 0.959 1_545 S
H332 C325 0.961 . S
H333 C325 0.960 1_545 S
H334 C326 0.930 . S
H335 C327 0.929 . S
H336 C344 0.929 . S
H337 C346 0.930 1_554 S
H338 C348 0.930 . S
H339 C351 0.929 . S
H340 C354 0.930 . S
H341 C356 0.960 . S
H342 C356 0.960 . S
H343 C356 0.960 . S
C344 H336 0.929 . S
C344 C345 1.377 . S
C344 C346 1.384 . S
C345 C344 1.377 . S
C345 C351 1.390 . S
C346 H337 0.930 1_556 S
C346 C344 1.384 . S
C346 C347 1.355 1_556 S
C347 C346 1.355 1_554 S
C347 C348 1.373 1_554 S
C347 C352 1.533 . S
C348 H338 0.930 . S
C348 C347 1.373 1_556 S
C348 C351 1.386 . S
H349 C365 0.930 1_455 S
H350 C366 0.931 . S
C351 H339 0.929 . S
C351 C345 1.390 . S
C351 C348 1.386 . S
C352 C347 1.533 . S
C352 C354 1.395 . S
C352 C355 1.403 . S
H353 C359 0.930 . S
C354 H340 0.930 . S
C354 C352 1.395 . S
C354 C357 1.403 . S
C355 C352 1.403 . S
C355 C356 1.524 . S
C355 C359 1.400 . S
C356 H341 0.960 . S
C356 H342 0.960 . S
C356 H343 0.960 . S
C356 C355 1.524 . S
C357 C354 1.403 . S
C357 C358 1.392 . S
C357 C361 1.495 . S
C358 C357 1.392 . S
C358 C359 1.385 . S
C358 C360 1.478 . S
C359 H353 0.930 . S
C359 C355 1.400 . S
C359 C358 1.385 . S
C360 C358 1.478 . S
C360 C362 1.381 . S
C360 C366 1.383 . S
C361 C357 1.495 . S
C361 H367 0.959 . S
C361 H368 0.961 . S
C361 H369 0.960 . S
C362 C360 1.381 . S
C362 C363 1.394 . S
C362 H370 0.930 . S
C363 C362 1.394 . S
C363 C364 1.383 . S
C363 H371 0.929 . S
C364 C363 1.383 . S
C364 C365 1.377 . S
C365 H349 0.930 1_655 S
C365 C364 1.377 . S
C365 C366 1.379 . S
C366 H350 0.931 . S
C366 C360 1.383 . S
C366 C365 1.379 . S
H367 C361 0.959 . S
H368 C361 0.961 . S
H369 C361 0.960 . S
H370 C362 0.930 . S
H371 C363 0.929 . S
H372 C380 0.929 . S
H373 C382 0.930 . S
H374 C384 0.930 . S
H375 C387 0.929 . S
H376 C390 0.930 . S
H377 C392 0.960 . S
H378 C392 0.960 . S
H379 C392 0.960 . S
C380 H372 0.929 . S
C380 C381 1.377 . S
C380 C382 1.384 . S
C381 C380 1.377 . S
C381 C387 1.390 . S
C382 H373 0.930 . S
C382 C380 1.384 . S
C382 C383 1.372 . S
C383 C382 1.372 . S
C383 C384 1.400 . S
C383 C388 1.490 . S
C384 H374 0.930 . S
C384 C383 1.400 . S
C384 C387 1.386 . S
H385 C401 0.930 . S
H386 C402 0.931 . S
C387 H375 0.929 . S
C387 C381 1.390 . S
C387 C384 1.386 . S
C388 C383 1.490 . S
C388 C390 1.395 . S
C388 C391 1.403 . S
H389 C395 0.930 . S
C390 H376 0.930 . S
C390 C388 1.395 . S
C390 C393 1.403 . S
C391 C388 1.403 . S
C391 C392 1.524 . S
C391 C395 1.400 . S
C392 H377 0.960 . S
C392 H378 0.960 . S
C392 H379 0.960 . S
C392 C391 1.524 . S
C393 C390 1.403 . S
C393 C394 1.392 . S
C393 C397 1.495 . S
C394 C393 1.392 . S
C394 C395 1.385 . S
C394 C396 1.478 . S
C395 H389 0.930 . S
C395 C391 1.400 . S
C395 C394 1.385 . S
C396 C394 1.478 . S
C396 C398 1.381 . S
C396 C402 1.383 . S
C397 C393 1.495 . S
C397 H403 0.959 . S
C397 H404 0.961 . S
C397 H405 0.960 . S
C398 C396 1.381 . S
C398 C399 1.394 . S
C398 H406 0.930 . S
C399 C398 1.394 . S
C399 C400 1.383 . S
C399 H407 0.929 . S
C400 C399 1.383 . S
C400 C401 1.377 . S
C401 H385 0.930 . S
C401 C400 1.377 . S
C401 C402 1.379 . S
C402 H386 0.931 . S
C402 C396 1.383 . S
C402 C401 1.379 . S
H403 C397 0.959 . S
H404 C397 0.961 . S
H405 C397 0.960 . S
H406 C398 0.930 . S
H407 C399 0.929 . S
H408 C416 0.929 . S
H409 C418 0.930 . S
H410 C420 0.930 . S
H411 C423 0.929 . S
H412 C426 0.930 . S
H413 C428 0.960 . S
H414 C428 0.960 . S
H415 C428 0.960 . S
C416 H408 0.929 . S
C416 C417 1.377 . S
C416 C418 1.384 . S
C417 C416 1.377 . S
C417 C423 1.390 . S
C418 H409 0.930 . S
C418 C416 1.384 . S
C418 C419 1.372 . S
C419 C418 1.372 . S
C419 C420 1.400 . S
C419 C424 1.490 . S
C420 H410 0.930 . S
C420 C419 1.400 . S
C420 C423 1.386 . S
H421 C437 0.930 . S
H422 C438 0.931 . S
C423 H411 0.929 . S
C423 C417 1.390 . S
C423 C420 1.386 . S
C424 C419 1.490 . S
C424 C426 1.395 . S
C424 C427 1.403 . S
H425 C431 0.930 . S
C426 H412 0.930 . S
C426 C424 1.395 . S
C426 C429 1.403 . S
C427 C424 1.403 . S
C427 C428 1.524 . S
C427 C431 1.400 . S
C428 H413 0.960 . S
C428 H414 0.960 . S
C428 H415 0.960 . S
C428 C427 1.524 . S
C429 C426 1.403 . S
C429 C430 1.392 . S
C429 C433 1.495 . S
C430 C429 1.392 . S
C430 C431 1.385 . S
C430 C432 1.478 . S
C431 H425 0.930 . S
C431 C427 1.400 . S
C431 C430 1.385 . S
C432 C430 1.478 . S
C432 C434 1.381 . S
C432 C438 1.383 . S
C433 C429 1.495 . S
C433 H439 0.959 . S
C433 H440 0.961 . S
C433 H441 0.960 . S
C434 C432 1.381 . S
C434 C435 1.394 . S
C434 H442 0.930 . S
C435 C434 1.394 . S
C435 C436 1.383 . S
C435 H443 0.929 . S
C436 C435 1.383 . S
C436 C437 1.377 . S
C437 H421 0.930 . S
C437 C436 1.377 . S
C437 C438 1.379 . S
C438 H422 0.931 . S
C438 C432 1.383 . S
C438 C437 1.379 . S
H439 C433 0.959 . S
H440 C433 0.961 . S
H441 C433 0.960 . S
H442 C434 0.930 . S
H443 C435 0.929 . S
C129 C23 1.375 . S
C148 C2 1.366 . S
C165 C42 1.377 1_545 S
C184 C63 1.352 . S
C201 C82 1.386 . S
C220 C103 1.379 . S
C237 C111 0.979 . S
C256 C4 0.956 . S
C273 C60 1.515 . S
C292 C25 1.481 . S
C309 C84 0.965 . S
C328 C71 0.956 . S
C345 C105 1.499 . S
C364 C20 1.509 1_655 S
C381 C31 0.976 . S
C400 C44 0.987 . S
C417 C100 1.514 . S
C436 C65 1.508 . S
