# Generated by pormake.
# Topology bsn, (6)-cn, num edge types: 1
# Building blocks:
#     Node 0, Type 0, BuildingBlock: VOLQOD_clean_sbu_1, # of connection points: 6
#     Node 1, Type 0, BuildingBlock: VOLQOD_clean_sbu_1, # of connection points: 6
#     Node 2, Type 0, BuildingBlock: VOLQOD_clean_sbu_1, # of connection points: 6
#     Node 3, Type 0, BuildingBlock: VOLQOD_clean_sbu_1, # of connection points: 6
#     Edge 4, Type (0, 0), BuildingBlock: XUDNAN_clean_linker_2, # of connection points: 2
#     Edge 5, Type (0, 0), BuildingBlock: XUDNAN_clean_linker_2, # of connection points: 2
#     Edge 6, Type (0, 0), BuildingBlock: XUDNAN_clean_linker_2, # of connection points: 2
#     Edge 7, Type (0, 0), BuildingBlock: XUDNAN_clean_linker_2, # of connection points: 2
#     Edge 8, Type (0, 0), BuildingBlock: XUDNAN_clean_linker_2, # of connection points: 2
#     Edge 9, Type (0, 0), BuildingBlock: XUDNAN_clean_linker_2, # of connection points: 2
#     Edge 10, Type (0, 0), BuildingBlock: XUDNAN_clean_linker_2, # of connection points: 2
#     Edge 11, Type (0, 0), BuildingBlock: XUDNAN_clean_linker_2, # of connection points: 2
#     Edge 12, Type (0, 0), BuildingBlock: XUDNAN_clean_linker_2, # of connection points: 2
#     Edge 13, Type (0, 0), BuildingBlock: XUDNAN_clean_linker_2, # of connection points: 2
#     Edge 14, Type (0, 0), BuildingBlock: XUDNAN_clean_linker_2, # of connection points: 2
#     Edge 15, Type (0, 0), BuildingBlock: XUDNAN_clean_linker_2, # of connection points: 2
# Relax obj value: 0.019
# Max RMSD: 0.063
# Mean RMSD: 0.062
data_MOF--net-bsn--node1-VOLQOD_clean_sbu_1--edge1-XUDNAN_clean_linker_2
_symmetry_space_group_name_H-M    P1
_symmetry_Int_Tables_number       1
_symmetry_cell_setting            triclinic
loop_
_symmetry_equiv_pos_as_xyz
'x, y, z'
_cell_length_a     32.630529
_cell_length_b     32.633874
_cell_length_c     17.02757
_cell_angle_alpha  90.163416
_cell_angle_beta   89.975394
_cell_angle_gamma 90.076603
loop_
_atom_site_label
_atom_site_type_symbol
_atom_site_fract_x
_atom_site_fract_y
_atom_site_fract_z
_atom_type_partial_charge
O0 O 0.02451 0.257 0.54953 0.0
Zn1 Zn 0.03992 0.27242 0.43774 0.0
O2 O 0.99752 0.25356 0.36656 0.0
Zn3 Zn 0.01552 0.20647 0.30638 0.0
Zn4 Zn 0.95039 0.23803 0.42668 0.0
Zn5 Zn 0.9826 0.29734 0.2969 0.0
O6 O 0.99987 0.21405 0.192 0.0
O7 O 0.99655 0.28232 0.18665 0.0
O8 O 0.09562 0.25053 0.40103 0.0
O9 O 0.07665 0.20531 0.30975 0.0
O10 O 0.9943 0.15282 0.35331 0.0
O11 O 0.94938 0.17712 0.43947 0.0
O12 O 0.89752 0.25698 0.37598 0.0
O13 O 0.04233 0.33449 0.4371 0.0
O14 O 0.92142 0.30317 0.29232 0.0
O15 O 0.00764 0.35142 0.32951 0.0
C16 C 0.98857 0.25878 0.57926 0.0
C17 C 0.99752 0.24739 0.15321 0.0
C18 C 0.96823 0.14713 0.40813 0.0
C19 C 0.10447 0.22396 0.34835 0.0
C20 C 0.89153 0.28412 0.3235 0.0
C21 C 0.02913 0.3613 0.38913 0.0
O22 O 0.9566 0.25914 0.53616 0.0
O23 O 0.05634 0.75942 0.43875 0.0
Zn24 Zn 0.06256 0.73831 0.54794 0.0
O25 O 0.01557 0.75399 0.6083 0.0
Zn26 Zn 0.03085 0.79807 0.67755 0.0
Zn27 Zn 0.9731 0.77256 0.5373 0.0
Zn28 Zn 0.99756 0.70706 0.66864 0.0
O29 O 0.01716 0.78344 0.78786 0.0
O30 O 0.01317 0.71516 0.78304 0.0
O31 O 0.11558 0.75716 0.59854 0.0
O32 O 0.09205 0.80393 0.68175 0.0
O33 O 0.0058 0.85203 0.64512 0.0
O34 O 0.97066 0.83462 0.53811 0.0
O35 O 0.91741 0.75059 0.574 0.0
O36 O 0.06329 0.67741 0.53487 0.0
O37 O 0.93642 0.70571 0.66529 0.0
O38 O 0.01874 0.65327 0.62175 0.0
C39 C 0.02437 0.75901 0.3957 0.0
C40 C 0.01592 0.74868 0.82155 0.0
C41 C 0.98406 0.86163 0.5858 0.0
C42 C 0.1218 0.78456 0.65073 0.0
C43 C 0.90858 0.72415 0.62669 0.0
C44 C 0.04458 0.64747 0.56651 0.0
O45 O 0.98843 0.75703 0.4254 0.0
O46 O 0.50244 0.73465 0.67775 0.0
Zn47 Zn 0.48363 0.72286 0.78824 0.0
O48 O 0.51679 0.75367 0.86133 0.0
Zn49 Zn 0.55128 0.7175 0.9195 0.0
Zn50 Zn 0.55143 0.79285 0.80719 0.0
Zn51 Zn 0.48185 0.77986 0.93777 0.0
O52 O 0.5534 0.73586 0.03166 0.0
O53 O 0.48856 0.75525 0.04594 0.0
O54 O 0.48451 0.66223 0.81553 0.0
O55 O 0.5272 0.66116 0.91739 0.0
O56 O 0.6081 0.71571 0.8736 0.0
O57 O 0.61031 0.77337 0.80505 0.0
O58 O 0.54825 0.8491 0.85924 0.0
O59 O 0.4252 0.74201 0.7943 0.0
O60 O 0.50155 0.83729 0.95214 0.0
O61 O 0.42274 0.78117 0.90111 0.0
C62 C 0.52069 0.76587 0.64923 0.0
C63 C 0.52322 0.74575 0.07518 0.0
C64 C 0.62753 0.741 0.83046 0.0
C65 C 0.50197 0.64322 0.87175 0.0
C66 C 0.52716 0.86078 0.91834 0.0
C67 C 0.40533 0.76484 0.84163 0.0
O68 O 0.53668 0.79345 0.69283 0.0
O69 O 0.51063 0.23546 0.29718 0.0
Zn70 Zn 0.52935 0.22347 0.18665 0.0
O71 O 0.49621 0.25408 0.11367 0.0
Zn72 Zn 0.46172 0.21766 0.05535 0.0
Zn73 Zn 0.46156 0.29327 0.16805 0.0
Zn74 Zn 0.5312 0.28023 0.03738 0.0
O75 O 0.45963 0.23576 0.9432 0.0
O76 O 0.52437 0.2556 0.92895 0.0
O77 O 0.52836 0.16279 0.15936 0.0
O78 O 0.48572 0.16135 0.05741 0.0
O79 O 0.40489 0.21588 0.10118 0.0
O80 O 0.40268 0.27366 0.16993 0.0
O81 O 0.46477 0.34945 0.11623 0.0
O82 O 0.5878 0.2426 0.18052 0.0
O83 O 0.51157 0.33761 0.02348 0.0
O84 O 0.59036 0.28157 0.07388 0.0
C85 C 0.49228 0.26661 0.32593 0.0
C86 C 0.48973 0.24584 0.89969 0.0
C87 C 0.38546 0.24121 0.14437 0.0
C88 C 0.5109 0.14358 0.10312 0.0
C89 C 0.48592 0.36109 0.05728 0.0
C90 C 0.60773 0.26532 0.13325 0.0
O91 O 0.47618 0.29404 0.28254 0.0
H92 H 0.02144 0.40326 0.52766 0.0
H93 H 0.05502 0.4177 0.28296 0.0
H94 H 0.06774 0.49158 0.30569 0.0
H95 H 0.965 0.49646 0.53886 0.0
H96 H 0.97934 0.50801 0.63873 0.0
H97 H 0.97729 0.45557 0.60579 0.0
H98 H 0.05262 0.44515 0.64922 0.0
H99 H 0.05493 0.49763 0.68226 0.0
H100 H 0.09185 0.4789 0.61209 0.0
H101 H 0.07641 0.56309 0.35417 0.0
H102 H 0.07293 0.63006 0.4201 0.0
H103 H 0.02733 0.57152 0.6317 0.0
C104 C 0.03215 0.422 0.4794 0.0
C105 C 0.03802 0.40495 0.40382 0.0
C106 C 0.05075 0.43034 0.34128 0.0
C107 C 0.05816 0.47219 0.35378 0.0
C108 C 0.05188 0.48822 0.42883 0.0
C109 C 0.03857 0.46413 0.4904 0.0
C110 C 0.03066 0.48986 0.56331 0.0
C111 C 0.98538 0.48732 0.5881 0.0
C112 C 0.05922 0.47712 0.6307 0.0
C113 C 0.04145 0.53219 0.53296 0.0
C114 C 0.05439 0.53025 0.4557 0.0
C115 C 0.06629 0.56504 0.4146 0.0
C116 C 0.06434 0.60298 0.45289 0.0
C117 C 0.04987 0.60616 0.53127 0.0
C118 C 0.0385 0.57012 0.57187 0.0
H119 H 0.67932 0.7873 0.73806 0.0
H120 H 0.67168 0.67201 0.86438 0.0
H121 H 0.74044 0.65342 0.81656 0.0
H122 H 0.73346 0.74828 0.56807 0.0
H123 H 0.76511 0.79323 0.55728 0.0
H124 H 0.71469 0.79757 0.59969 0.0
H125 H 0.74552 0.83162 0.72404 0.0
H126 H 0.79593 0.82782 0.68162 0.0
H127 H 0.78584 0.80586 0.77672 0.0
H128 H 0.80986 0.6474 0.75773 0.0
H129 H 0.87828 0.65646 0.6993 0.0
H130 H 0.84198 0.77551 0.61005 0.0
C131 C 0.69209 0.75816 0.75583 0.0
C132 C 0.66992 0.73112 0.80508 0.0
C133 C 0.68792 0.69333 0.82691 0.0
C134 C 0.72693 0.68235 0.79968 0.0
C135 C 0.74765 0.70943 0.75058 0.0
C136 C 0.7311 0.74669 0.72927 0.0
C137 C 0.76059 0.77069 0.67793 0.0
C138 C 0.74237 0.77786 0.59587 0.0
C139 C 0.77269 0.8114 0.71746 0.0
C140 C 0.79647 0.74122 0.6745 0.0
C141 C 0.78807 0.70595 0.71634 0.0
C142 C 0.81677 0.67478 0.72451 0.0
C143 C 0.85556 0.68023 0.69099 0.0
C144 C 0.86546 0.7166 0.64975 0.0
C145 C 0.83512 0.74708 0.63999 0.0
H146 H 0.49591 0.43726 0.12286 0.0
H147 H 0.46148 0.37421 0.90856 0.0
H148 H 0.45602 0.44056 0.83962 0.0
H149 H 0.43342 0.5312 0.09296 0.0
H150 H 0.47294 0.5642 0.1316 0.0
H151 H 0.46805 0.51243 0.16704 0.0
H152 H 0.54397 0.49872 0.13085 0.0
H153 H 0.54899 0.55025 0.09479 0.0
H154 H 0.56109 0.50753 0.03161 0.0
H155 H 0.45839 0.51307 0.79193 0.0
H156 H 0.47207 0.58653 0.76714 0.0
H157 H 0.50972 0.60174 0.00997 0.0
C158 C 0.48609 0.43778 0.06212 0.0
C159 C 0.47827 0.40109 0.02101 0.0
C160 C 0.46699 0.40235 0.94085 0.0
C161 C 0.46377 0.43978 0.90138 0.0
C162 C 0.47247 0.47558 0.94282 0.0
C163 C 0.48355 0.47495 0.02133 0.0
C164 C 0.49525 0.51737 0.04984 0.0
C165 C 0.46564 0.53217 0.11416 0.0
C166 C 0.53998 0.51851 0.07842 0.0
C167 C 0.48984 0.54162 0.97483 0.0
C168 C 0.47593 0.51714 0.91419 0.0
C169 C 0.46914 0.53264 0.83904 0.0
C170 C 0.477 0.57432 0.82546 0.0
C171 C 0.49222 0.59969 0.88638 0.0
C172 C 0.49843 0.58301 0.962 0.0
H173 H 0.81994 0.24428 0.36337 0.0
H174 H 0.8687 0.33846 0.20942 0.0
H175 H 0.80142 0.34439 0.14505 0.0
H176 H 0.75902 0.19451 0.22125 0.0
H177 H 0.71704 0.18344 0.2867 0.0
H178 H 0.76824 0.18832 0.32493 0.0
H179 H 0.74391 0.24462 0.42189 0.0
H180 H 0.69249 0.23957 0.38459 0.0
H181 H 0.71737 0.28892 0.38468 0.0
H182 H 0.73011 0.33701 0.09117 0.0
H183 H 0.65836 0.31998 0.05811 0.0
H184 H 0.65602 0.23116 0.24763 0.0
C185 C 0.81635 0.26667 0.31708 0.0
C186 C 0.84974 0.29094 0.29177 0.0
C187 C 0.84367 0.31956 0.23027 0.0
C188 C 0.80555 0.32313 0.19306 0.0
C189 C 0.77362 0.29806 0.21815 0.0
C190 C 0.77844 0.27071 0.27929 0.0
C191 C 0.73941 0.24667 0.29359 0.0
C192 C 0.74636 0.20051 0.28083 0.0
C193 C 0.72229 0.25549 0.37608 0.0
C194 C 0.71213 0.26445 0.23035 0.0
C195 C 0.73242 0.29402 0.18741 0.0
C196 C 0.71376 0.31411 0.12478 0.0
C197 C 0.67305 0.30409 0.1062 0.0
C198 C 0.65141 0.27429 0.15024 0.0
C199 C 0.67153 0.25419 0.21286 0.0
H200 H 0.33365 0.28759 0.23684 0.0
H201 H 0.34132 0.17201 0.11031 0.0
H202 H 0.27259 0.15331 0.15818 0.0
H203 H 0.2796 0.24883 0.40681 0.0
H204 H 0.24792 0.2937 0.41772 0.0
H205 H 0.29832 0.29811 0.37523 0.0
H206 H 0.26741 0.33173 0.25099 0.0
H207 H 0.21703 0.32786 0.29347 0.0
H208 H 0.22709 0.3057 0.19833 0.0
H209 H 0.20321 0.14719 0.21714 0.0
H210 H 0.13481 0.15617 0.27568 0.0
H211 H 0.17104 0.27558 0.36501 0.0
C212 C 0.32089 0.25837 0.21903 0.0
C213 C 0.34307 0.23127 0.16971 0.0
C214 C 0.32508 0.19337 0.14783 0.0
C215 C 0.28609 0.18232 0.17509 0.0
C216 C 0.26537 0.20946 0.22426 0.0
C217 C 0.28189 0.24683 0.2456 0.0
C218 C 0.25241 0.27087 0.29702 0.0
C219 C 0.27066 0.2783 0.37906 0.0
C220 C 0.24026 0.31143 0.25757 0.0
C221 C 0.21655 0.24128 0.30046 0.0
C222 C 0.22497 0.20593 0.25856 0.0
C223 C 0.19629 0.17464 0.2504 0.0
C224 C 0.15752 0.18003 0.28399 0.0
C225 C 0.1476 0.21648 0.32528 0.0
C226 C 0.17792 0.2471 0.33503 0.0
H227 H 0.35681 0.73041 0.72739 0.0
H228 H 0.35511 0.82005 0.91646 0.0
H229 H 0.28353 0.83735 0.88318 0.0
H230 H 0.29625 0.7878 0.59003 0.0
H231 H 0.26947 0.74345 0.55293 0.0
H232 H 0.32073 0.73831 0.59091 0.0
H233 H 0.29574 0.68299 0.68888 0.0
H234 H 0.24452 0.68767 0.65069 0.0
H235 H 0.2538 0.69451 0.75425 0.0
H236 H 0.21236 0.84503 0.82904 0.0
H237 H 0.14508 0.83929 0.7645 0.0
H238 H 0.19305 0.74409 0.6112 0.0
C239 C 0.34147 0.75368 0.76199 0.0
C240 C 0.36172 0.77393 0.82455 0.0
C241 C 0.34031 0.80404 0.86841 0.0
C242 C 0.2997 0.81422 0.84971 0.0
C243 C 0.2809 0.79398 0.78714 0.0
C244 C 0.30096 0.76411 0.74435 0.0
C245 C 0.27349 0.74621 0.6812 0.0
C246 C 0.29104 0.75445 0.5989 0.0
C247 C 0.26647 0.70012 0.6946 0.0
C248 C 0.2347 0.77055 0.69536 0.0
C249 C 0.23975 0.79815 0.75633 0.0
C250 C 0.20806 0.82358 0.78116 0.0
C251 C 0.16993 0.82013 0.74383 0.0
C252 C 0.16363 0.79128 0.68246 0.0
C253 C 0.19681 0.76666 0.65738 0.0
H254 H 0.5167 0.93662 0.85275 0.0
H255 H 0.5519 0.87457 0.06687 0.0
H256 H 0.55727 0.94121 0.13561 0.0
H257 H 0.57887 0.03101 0.88166 0.0
H258 H 0.53912 0.06362 0.84335 0.0
H259 H 0.54407 0.01174 0.80805 0.0
H260 H 0.46831 0.99773 0.84516 0.0
H261 H 0.46323 0.04937 0.8811 0.0
H262 H 0.45148 0.00683 0.94456 0.0
H263 H 0.55481 0.01391 0.18307 0.0
H264 H 0.54109 0.08741 0.20769 0.0
H265 H 0.50273 0.10145 0.96519 0.0
C266 C 0.52667 0.93742 0.9134 0.0
C267 C 0.53474 0.90093 0.95451 0.0
C268 C 0.5462 0.90256 0.03457 0.0
C269 C 0.54936 0.94016 0.07392 0.0
C270 C 0.54041 0.97574 0.03247 0.0
C271 C 0.52914 0.97475 0.95408 0.0
C272 C 0.51722 0.01699 0.92555 0.0
C273 C 0.54658 0.03171 0.86082 0.0
C274 C 0.4724 0.01775 0.89747 0.0
C275 C 0.52278 0.04157 0.0004 0.0
C276 C 0.53691 0.0174 0.061 0.0
C277 C 0.54388 0.03324 0.136 0.0
C278 C 0.536 0.07494 0.14948 0.0
C279 C 0.52058 0.1 0.0886 0.0
C280 C 0.51417 0.08297 0.01313 0.0
H281 H 0.99174 0.90319 0.4473 0.0
H282 H 0.95806 0.91826 0.69195 0.0
H283 H 0.94516 0.992 0.66912 0.0
H284 H 0.04797 0.99663 0.4361 0.0
H285 H 0.03365 0.00776 0.33619 0.0
H286 H 0.03581 0.95545 0.36922 0.0
H287 H 0.96053 0.94451 0.32566 0.0
H288 H 0.95811 0.99686 0.29254 0.0
H289 H 0.9212 0.97817 0.36268 0.0
H290 H 0.93628 0.06333 0.62046 0.0
H291 H 0.93967 0.1301 0.55442 0.0
H292 H 0.98557 0.07104 0.34307 0.0
C293 C 0.98098 0.92203 0.49553 0.0
C294 C 0.97512 0.9052 0.57111 0.0
C295 C 0.96232 0.93073 0.63362 0.0
C296 C 0.95481 0.9725 0.62106 0.0
C297 C 0.96106 0.98831 0.54599 0.0
C298 C 0.97446 0.96409 0.48448 0.0
C299 C 0.98234 0.98961 0.41155 0.0
C300 C 0.02764 0.98722 0.38684 0.0
C301 C 0.95384 0.9765 0.34412 0.0
C302 C 0.97143 0.03199 0.44182 0.0
C303 C 0.95845 0.03024 0.51905 0.0
C304 C 0.94644 0.06512 0.56006 0.0
C305 C 0.94834 0.10294 0.52171 0.0
C306 C 0.96288 0.10593 0.44338 0.0
C307 C 0.97434 0.06979 0.40287 0.0
H308 H 0.04844 0.22579 0.03141 0.0
H309 H 0.92619 0.26863 0.08763 0.0
H310 H 0.9103 0.27449 0.94632 0.0
H311 H 0.06452 0.29392 0.87242 0.0
H312 H 0.09253 0.25814 0.8121 0.0
H313 H 0.09354 0.2533 0.91741 0.0
H314 H 0.06749 0.17847 0.90634 0.0
H315 H 0.06683 0.18293 0.80089 0.0
H316 H 0.02106 0.16783 0.85261 0.0
H317 H 0.90831 0.27859 0.80208 0.0
H318 H 0.91976 0.28046 0.65943 0.0
H319 H 0.04452 0.23761 0.6936 0.0
C320 C 0.01816 0.2355 0.01335 0.0
C321 C 0.98815 0.24621 0.06931 0.0
C322 C 0.94918 0.25993 0.04477 0.0
C323 C 0.93996 0.26338 0.96497 0.0
C324 C 0.97029 0.25335 0.91081 0.0
C325 C 0.00859 0.23965 0.93351 0.0
C326 C 0.03611 0.23316 0.86276 0.0
C327 C 0.07391 0.26132 0.86642 0.0
C328 C 0.0486 0.1879 0.85522 0.0
C329 C 0.00734 0.24568 0.79719 0.0
C330 C 0.9695 0.25691 0.82653 0.0
C331 C 0.93773 0.26973 0.77814 0.0
C332 C 0.94459 0.27071 0.69718 0.0
C333 C 0.98304 0.25922 0.66533 0.0
C334 C 0.0149 0.24682 0.71624 0.0
H335 H 0.96592 0.7245 0.94291 0.0
H336 H 0.08616 0.77324 0.88776 0.0
H337 H 0.10177 0.77939 0.02917 0.0
H338 H 0.94696 0.79159 0.10331 0.0
H339 H 0.92046 0.75444 0.16286 0.0
H340 H 0.91966 0.74984 0.05745 0.0
H341 H 0.94879 0.6762 0.06702 0.0
H342 H 0.94927 0.68042 0.17256 0.0
H343 H 0.99562 0.66749 0.12054 0.0
H344 H 0.10373 0.78285 0.17343 0.0
H345 H 0.09225 0.78373 0.31614 0.0
H346 H 0.96929 0.73579 0.28101 0.0
C347 C 0.99574 0.7356 0.96121 0.0
C348 C 0.02523 0.74789 0.90551 0.0
C349 C 0.06355 0.76337 0.9304 0.0
C350 C 0.07262 0.76699 0.01026 0.0
C351 C 0.04277 0.75538 0.06416 0.0
C352 C 0.0051 0.74001 0.04114 0.0
C353 C 0.97787 0.73211 0.11173 0.0
C354 C 0.93894 0.75859 0.10862 0.0
C355 C 0.96727 0.68633 0.11834 0.0
C356 C 0.0061 0.74573 0.17758 0.0
C357 C 0.04343 0.7587 0.1485 0.0
C358 C 0.07469 0.77268 0.19717 0.0
C359 C 0.06783 0.77307 0.27814 0.0
C360 C 0.02987 0.75988 0.3097 0.0
C361 C 0.9985 0.74632 0.25854 0.0
H362 H 0.46978 0.72873 0.19535 0.0
H363 H 0.59198 0.77434 0.14542 0.0
H364 H 0.60323 0.78695 0.28675 0.0
H365 H 0.44547 0.79705 0.35445 0.0
H366 H 0.4198 0.75868 0.41247 0.0
H367 H 0.42046 0.75436 0.30698 0.0
H368 H 0.45233 0.68188 0.3174 0.0
H369 H 0.45146 0.68585 0.42291 0.0
H370 H 0.49888 0.67494 0.37275 0.0
H371 H 0.6001 0.79788 0.43108 0.0
H372 H 0.5866 0.79778 0.57368 0.0
H373 H 0.46892 0.73937 0.53267 0.0
C374 C 0.49884 0.74133 0.21451 0.0
C375 C 0.53001 0.75075 0.15998 0.0
C376 C 0.56787 0.76674 0.18668 0.0
C377 C 0.57443 0.77426 0.26659 0.0
C378 C 0.54307 0.76489 0.31898 0.0
C379 C 0.50632 0.74805 0.29446 0.0
C380 C 0.47865 0.73884 0.3637 0.0
C381 C 0.43873 0.76373 0.35909 0.0
C382 C 0.46983 0.69263 0.36952 0.0
C383 C 0.50552 0.75345 0.43071 0.0
C384 C 0.54224 0.76899 0.4033 0.0
C385 C 0.57163 0.7855 0.45347 0.0
C386 C 0.56359 0.78554 0.53418 0.0
C387 C 0.52682 0.76846 0.56379 0.0
C388 C 0.49739 0.75233 0.51136 0.0
H389 H 0.54474 0.24184 0.44226 0.0
H390 H 0.42552 0.29659 0.40157 0.0
H391 H 0.41186 0.29616 0.54415 0.0
H392 H 0.5167 0.17644 0.60016 0.0
H393 H 0.56297 0.18468 0.65583 0.0
H394 H 0.56379 0.18923 0.55046 0.0
H395 H 0.59301 0.26285 0.56239 0.0
H396 H 0.59264 0.25841 0.66782 0.0
H397 H 0.56621 0.30025 0.62116 0.0
H398 H 0.40882 0.28483 0.68832 0.0
H399 H 0.42021 0.27229 0.82947 0.0
H400 H 0.54378 0.23071 0.7794 0.0
C401 C 0.51592 0.25393 0.46369 0.0
C402 C 0.48609 0.26915 0.41136 0.0
C403 C 0.44883 0.28508 0.44104 0.0
C404 C 0.44071 0.28473 0.52172 0.0
C405 C 0.47052 0.26911 0.5718 0.0
C406 C 0.50771 0.25479 0.54434 0.0
C407 C 0.53489 0.24093 0.61132 0.0
C408 C 0.54518 0.1951 0.60397 0.0
C409 C 0.574 0.26719 0.61593 0.0
C410 C 0.50683 0.24908 0.68049 0.0
C411 C 0.46966 0.2648 0.65605 0.0
C412 C 0.43795 0.27302 0.70842 0.0
C413 C 0.4446 0.26554 0.78824 0.0
C414 C 0.48287 0.25071 0.81489 0.0
C415 C 0.51438 0.24241 0.76034 0.0
loop_
_geom_bond_atom_site_label_1
_geom_bond_atom_site_label_2
_geom_bond_distance
_geom_bond_site_symmetry_2
_ccdc_geom_bond_type
O0 Zn1 1.953 . S
O0 C16 1.225 . S
Zn1 O0 1.953 . S
Zn1 O2 1.949 . S
Zn1 O8 1.919 . S
Zn1 O13 1.924 . S
O2 Zn1 1.949 . S
O2 Zn3 1.923 . S
O2 Zn4 1.950 1_455 S
O2 Zn5 1.945 1_455 S
Zn3 O2 1.923 . S
Zn3 O6 1.933 . S
Zn3 O9 1.941 . S
Zn3 O10 1.965 . S
Zn4 O2 1.950 1_655 S
Zn4 O11 1.938 . S
Zn4 O12 1.906 . S
Zn4 O22 1.953 . S
Zn5 O2 1.945 1_655 S
Zn5 O7 1.932 . S
Zn5 O14 1.977 . S
Zn5 O15 1.910 . S
O6 Zn3 1.933 . S
O6 C17 1.226 . S
O7 Zn5 1.932 . S
O7 C17 1.307 1_655 S
O8 Zn1 1.919 . S
O8 C19 1.253 . S
O9 Zn3 1.941 . S
O9 C19 1.283 . S
O10 Zn3 1.965 . S
O10 C18 1.303 . S
O11 Zn4 1.938 . S
O11 C18 1.247 1_655 S
O12 Zn4 1.906 . S
O12 C20 1.304 . S
O13 Zn1 1.924 . S
O13 C21 1.311 . S
O14 Zn5 1.977 . S
O14 C20 1.272 . S
O15 Zn5 1.910 . S
O15 C21 1.231 1_655 S
C16 O0 1.225 . S
C16 O22 1.298 1_455 S
C17 O6 1.226 . S
C17 O7 1.307 1_455 S
C18 O10 1.303 . S
C18 O11 1.247 1_455 S
C19 O8 1.253 . S
C19 O9 1.283 . S
C20 O12 1.304 . S
C20 O14 1.272 . S
C21 O13 1.311 . S
C21 O15 1.231 1_455 S
O22 Zn4 1.953 . S
O22 C16 1.298 1_655 S
O23 Zn24 1.953 . S
O23 C39 1.225 . S
Zn24 O23 1.953 . S
Zn24 O25 1.949 . S
Zn24 O31 1.919 . S
Zn24 O36 1.924 . S
O25 Zn24 1.949 . S
O25 Zn26 1.923 . S
O25 Zn27 1.950 1_455 S
O25 Zn28 1.945 1_455 S
Zn26 O25 1.923 . S
Zn26 O29 1.933 . S
Zn26 O32 1.941 . S
Zn26 O33 1.965 . S
Zn27 O25 1.950 1_655 S
Zn27 O34 1.938 . S
Zn27 O35 1.906 . S
Zn27 O45 1.953 . S
Zn28 O25 1.945 1_655 S
Zn28 O30 1.932 . S
Zn28 O37 1.977 . S
Zn28 O38 1.910 . S
O29 Zn26 1.933 . S
O29 C40 1.226 . S
O30 Zn28 1.932 . S
O30 C40 1.307 1_655 S
O31 Zn24 1.919 . S
O31 C42 1.253 . S
O32 Zn26 1.941 . S
O32 C42 1.283 . S
O33 Zn26 1.965 . S
O33 C41 1.303 1_455 S
O34 Zn27 1.938 . S
O34 C41 1.247 . S
O35 Zn27 1.906 . S
O35 C43 1.304 . S
O36 Zn24 1.924 . S
O36 C44 1.311 . S
O37 Zn28 1.977 . S
O37 C43 1.272 . S
O38 Zn28 1.910 . S
O38 C44 1.231 1_655 S
C39 O23 1.225 . S
C39 O45 1.298 1_455 S
C40 O29 1.226 . S
C40 O30 1.307 1_455 S
C41 O33 1.303 1_655 S
C41 O34 1.247 . S
C42 O31 1.253 . S
C42 O32 1.283 . S
C43 O35 1.304 . S
C43 O37 1.272 . S
C44 O36 1.311 . S
C44 O38 1.231 1_455 S
O45 Zn27 1.953 . S
O45 C39 1.298 1_655 S
O46 Zn47 1.953 . S
O46 C62 1.225 . S
Zn47 O46 1.953 . S
Zn47 O48 1.949 . S
Zn47 O54 1.919 . S
Zn47 O59 1.924 . S
O48 Zn47 1.949 . S
O48 Zn49 1.923 . S
O48 Zn50 1.950 . S
O48 Zn51 1.945 . S
Zn49 O48 1.923 . S
Zn49 O52 1.933 1_556 S
Zn49 O55 1.941 . S
Zn49 O56 1.965 . S
Zn50 O48 1.950 . S
Zn50 O57 1.938 . S
Zn50 O58 1.906 . S
Zn50 O68 1.953 . S
Zn51 O48 1.945 . S
Zn51 O53 1.932 1_556 S
Zn51 O60 1.977 . S
Zn51 O61 1.910 . S
O52 Zn49 1.933 1_554 S
O52 C63 1.226 . S
O53 Zn51 1.932 1_554 S
O53 C63 1.307 . S
O54 Zn47 1.919 . S
O54 C65 1.253 . S
O55 Zn49 1.941 . S
O55 C65 1.283 . S
O56 Zn49 1.965 . S
O56 C64 1.303 . S
O57 Zn50 1.938 . S
O57 C64 1.247 . S
O58 Zn50 1.906 . S
O58 C66 1.304 . S
O59 Zn47 1.924 . S
O59 C67 1.311 . S
O60 Zn51 1.977 . S
O60 C66 1.272 . S
O61 Zn51 1.910 . S
O61 C67 1.231 . S
C62 O46 1.225 . S
C62 O68 1.298 . S
C63 O52 1.226 . S
C63 O53 1.307 . S
C64 O56 1.303 . S
C64 O57 1.247 . S
C65 O54 1.253 . S
C65 O55 1.283 . S
C66 O58 1.304 . S
C66 O60 1.272 . S
C67 O59 1.311 . S
C67 O61 1.231 . S
O68 Zn50 1.953 . S
O68 C62 1.298 . S
O69 Zn70 1.953 . S
O69 C85 1.225 . S
Zn70 O69 1.953 . S
Zn70 O71 1.949 . S
Zn70 O77 1.919 . S
Zn70 O82 1.924 . S
O71 Zn70 1.949 . S
O71 Zn72 1.923 . S
O71 Zn73 1.950 . S
O71 Zn74 1.945 . S
Zn72 O71 1.923 . S
Zn72 O75 1.933 1_554 S
Zn72 O78 1.941 . S
Zn72 O79 1.965 . S
Zn73 O71 1.950 . S
Zn73 O80 1.938 . S
Zn73 O81 1.906 . S
Zn73 O91 1.953 . S
Zn74 O71 1.945 . S
Zn74 O76 1.932 1_554 S
Zn74 O83 1.977 . S
Zn74 O84 1.910 . S
O75 Zn72 1.933 1_556 S
O75 C86 1.226 . S
O76 Zn74 1.932 1_556 S
O76 C86 1.307 . S
O77 Zn70 1.919 . S
O77 C88 1.253 . S
O78 Zn72 1.941 . S
O78 C88 1.283 . S
O79 Zn72 1.965 . S
O79 C87 1.303 . S
O80 Zn73 1.938 . S
O80 C87 1.247 . S
O81 Zn73 1.906 . S
O81 C89 1.304 . S
O82 Zn70 1.924 . S
O82 C90 1.311 . S
O83 Zn74 1.977 . S
O83 C89 1.272 . S
O84 Zn74 1.910 . S
O84 C90 1.231 . S
C85 O69 1.225 . S
C85 O91 1.298 . S
C86 O75 1.226 . S
C86 O76 1.307 . S
C87 O79 1.303 . S
C87 O80 1.247 . S
C88 O77 1.253 . S
C88 O78 1.283 . S
C89 O81 1.304 . S
C89 O83 1.272 . S
C90 O82 1.311 . S
C90 O84 1.231 . S
O91 Zn73 1.953 . S
O91 C85 1.298 . S
H92 C104 0.930 . S
H93 C106 0.930 . S
H94 C107 0.930 . S
H95 C111 0.959 . S
H96 C111 0.959 . S
H97 C111 0.961 . S
H98 C112 0.960 . S
H99 C112 0.961 . S
H100 C112 0.959 . S
H101 C115 0.929 . S
H102 C116 0.931 . S
H103 C118 0.930 . S
C104 H92 0.930 . S
C104 C105 1.399 1_655 S
C104 C109 1.399 . S
C105 C104 1.399 1_455 S
C105 C106 1.376 . S
C106 H93 0.930 . S
C106 C105 1.376 . S
C106 C107 1.388 . S
C107 H94 0.930 . S
C107 C106 1.388 . S
C107 C108 1.390 . S
C108 C107 1.390 . S
C108 C109 1.394 1_455 S
C108 C114 1.465 . S
C109 C104 1.399 . S
C109 C108 1.394 1_655 S
C109 C110 1.516 . S
C110 C109 1.516 . S
C110 C111 1.502 . S
C110 C112 1.561 1_655 S
C110 C113 1.526 . S
C111 H95 0.959 . S
C111 H96 0.959 . S
C111 H97 0.961 . S
C111 C110 1.502 . S
C112 H98 0.960 . S
C112 H99 0.961 . S
C112 H100 0.959 . S
C112 C110 1.561 1_455 S
C113 C110 1.526 . S
C113 C114 1.396 1_655 S
C113 C118 1.390 . S
C114 C108 1.465 . S
C114 C113 1.396 1_455 S
C114 C115 1.399 . S
C115 H101 0.929 . S
C115 C114 1.399 . S
C115 C116 1.385 . S
C116 H102 0.931 . S
C116 C115 1.385 . S
C116 C117 1.389 . S
C117 C116 1.389 . S
C117 C118 1.387 1_455 S
C118 H103 0.930 . S
C118 C113 1.390 . S
C118 C117 1.387 1_655 S
H119 C131 0.930 . S
H120 C133 0.930 . S
H121 C134 0.930 . S
H122 C138 0.959 . S
H123 C138 0.959 . S
H124 C138 0.961 . S
H125 C139 0.960 . S
H126 C139 0.961 . S
H127 C139 0.959 . S
H128 C142 0.929 . S
H129 C143 0.931 . S
H130 C145 0.930 . S
C131 H119 0.930 . S
C131 C132 1.399 . S
C131 C136 1.399 . S
C132 C131 1.399 . S
C132 C133 1.376 . S
C133 H120 0.930 . S
C133 C132 1.376 . S
C133 C134 1.388 . S
C134 H121 0.930 . S
C134 C133 1.388 . S
C134 C135 1.390 . S
C135 C134 1.390 . S
C135 C136 1.394 . S
C135 C141 1.465 . S
C136 C131 1.399 . S
C136 C135 1.394 . S
C136 C137 1.516 . S
C137 C136 1.516 . S
C137 C138 1.502 . S
C137 C139 1.561 . S
C137 C140 1.526 . S
C138 H122 0.959 . S
C138 H123 0.959 . S
C138 H124 0.961 . S
C138 C137 1.502 . S
C139 H125 0.960 . S
C139 H126 0.961 . S
C139 H127 0.959 . S
C139 C137 1.561 . S
C140 C137 1.526 . S
C140 C141 1.396 . S
C140 C145 1.390 . S
C141 C135 1.465 . S
C141 C140 1.396 . S
C141 C142 1.399 . S
C142 H128 0.929 . S
C142 C141 1.399 . S
C142 C143 1.385 . S
C143 H129 0.931 . S
C143 C142 1.385 . S
C143 C144 1.389 . S
C144 C143 1.389 . S
C144 C145 1.387 . S
C145 H130 0.930 . S
C145 C140 1.390 . S
C145 C144 1.387 . S
H146 C158 0.930 . S
H147 C160 0.930 . S
H148 C161 0.930 . S
H149 C165 0.959 . S
H150 C165 0.959 . S
H151 C165 0.961 . S
H152 C166 0.960 . S
H153 C166 0.961 . S
H154 C166 0.959 . S
H155 C169 0.929 . S
H156 C170 0.931 . S
H157 C172 0.930 . S
C158 H146 0.930 . S
C158 C159 1.399 . S
C158 C163 1.399 . S
C159 C158 1.399 . S
C159 C160 1.376 . S
C160 H147 0.930 . S
C160 C159 1.376 . S
C160 C161 1.388 . S
C161 H148 0.930 . S
C161 C160 1.388 . S
C161 C162 1.390 . S
C162 C161 1.390 . S
C162 C163 1.394 . S
C162 C168 1.465 1_554 S
C163 C158 1.399 . S
C163 C162 1.394 . S
C163 C164 1.516 . S
C164 C163 1.516 . S
C164 C165 1.502 1_554 S
C164 C166 1.561 . S
C164 C167 1.526 1_554 S
C165 H149 0.959 . S
C165 H150 0.959 . S
C165 H151 0.961 . S
C165 C164 1.502 1_556 S
C166 H152 0.960 . S
C166 H153 0.961 . S
C166 H154 0.959 . S
C166 C164 1.561 . S
C167 C164 1.526 1_556 S
C167 C168 1.396 . S
C167 C172 1.390 . S
C168 C162 1.465 1_556 S
C168 C167 1.396 . S
C168 C169 1.399 . S
C169 H155 0.929 . S
C169 C168 1.399 . S
C169 C170 1.385 . S
C170 H156 0.931 . S
C170 C169 1.385 . S
C170 C171 1.389 . S
C171 C170 1.389 . S
C171 C172 1.387 . S
C172 H157 0.930 . S
C172 C167 1.390 . S
C172 C171 1.387 . S
H173 C185 0.930 . S
H174 C187 0.930 . S
H175 C188 0.930 . S
H176 C192 0.959 . S
H177 C192 0.959 . S
H178 C192 0.961 . S
H179 C193 0.960 . S
H180 C193 0.961 . S
H181 C193 0.959 . S
H182 C196 0.929 . S
H183 C197 0.931 . S
H184 C199 0.930 . S
C185 H173 0.930 . S
C185 C186 1.399 . S
C185 C190 1.399 . S
C186 C185 1.399 . S
C186 C187 1.376 . S
C187 H174 0.930 . S
C187 C186 1.376 . S
C187 C188 1.388 . S
C188 H175 0.930 . S
C188 C187 1.388 . S
C188 C189 1.390 . S
C189 C188 1.390 . S
C189 C190 1.394 . S
C189 C195 1.465 . S
C190 C185 1.399 . S
C190 C189 1.394 . S
C190 C191 1.516 . S
C191 C190 1.516 . S
C191 C192 1.502 . S
C191 C193 1.561 . S
C191 C194 1.526 . S
C192 H176 0.959 . S
C192 H177 0.959 . S
C192 H178 0.961 . S
C192 C191 1.502 . S
C193 H179 0.960 . S
C193 H180 0.961 . S
C193 H181 0.959 . S
C193 C191 1.561 . S
C194 C191 1.526 . S
C194 C195 1.396 . S
C194 C199 1.390 . S
C195 C189 1.465 . S
C195 C194 1.396 . S
C195 C196 1.399 . S
C196 H182 0.929 . S
C196 C195 1.399 . S
C196 C197 1.385 . S
C197 H183 0.931 . S
C197 C196 1.385 . S
C197 C198 1.389 . S
C198 C197 1.389 . S
C198 C199 1.387 . S
C199 H184 0.930 . S
C199 C194 1.390 . S
C199 C198 1.387 . S
H200 C212 0.930 . S
H201 C214 0.930 . S
H202 C215 0.930 . S
H203 C219 0.959 . S
H204 C219 0.959 . S
H205 C219 0.961 . S
H206 C220 0.960 . S
H207 C220 0.961 . S
H208 C220 0.959 . S
H209 C223 0.929 . S
H210 C224 0.931 . S
H211 C226 0.930 . S
C212 H200 0.930 . S
C212 C213 1.399 . S
C212 C217 1.399 . S
C213 C212 1.399 . S
C213 C214 1.376 . S
C214 H201 0.930 . S
C214 C213 1.376 . S
C214 C215 1.388 . S
C215 H202 0.930 . S
C215 C214 1.388 . S
C215 C216 1.390 . S
C216 C215 1.390 . S
C216 C217 1.394 . S
C216 C222 1.465 . S
C217 C212 1.399 . S
C217 C216 1.394 . S
C217 C218 1.516 . S
C218 C217 1.516 . S
C218 C219 1.502 . S
C218 C220 1.561 . S
C218 C221 1.526 . S
C219 H203 0.959 . S
C219 H204 0.959 . S
C219 H205 0.961 . S
C219 C218 1.502 . S
C220 H206 0.960 . S
C220 H207 0.961 . S
C220 H208 0.959 . S
C220 C218 1.561 . S
C221 C218 1.526 . S
C221 C222 1.396 . S
C221 C226 1.390 . S
C222 C216 1.465 . S
C222 C221 1.396 . S
C222 C223 1.399 . S
C223 H209 0.929 . S
C223 C222 1.399 . S
C223 C224 1.385 . S
C224 H210 0.931 . S
C224 C223 1.385 . S
C224 C225 1.389 . S
C225 C224 1.389 . S
C225 C226 1.387 . S
C226 H211 0.930 . S
C226 C221 1.390 . S
C226 C225 1.387 . S
H227 C239 0.930 . S
H228 C241 0.930 . S
H229 C242 0.930 . S
H230 C246 0.959 . S
H231 C246 0.959 . S
H232 C246 0.961 . S
H233 C247 0.960 . S
H234 C247 0.961 . S
H235 C247 0.959 . S
H236 C250 0.929 . S
H237 C251 0.931 . S
H238 C253 0.930 . S
C239 H227 0.930 . S
C239 C240 1.399 . S
C239 C244 1.399 . S
C240 C239 1.399 . S
C240 C241 1.376 . S
C241 H228 0.930 . S
C241 C240 1.376 . S
C241 C242 1.388 . S
C242 H229 0.930 . S
C242 C241 1.388 . S
C242 C243 1.390 . S
C243 C242 1.390 . S
C243 C244 1.394 . S
C243 C249 1.465 . S
C244 C239 1.399 . S
C244 C243 1.394 . S
C244 C245 1.516 . S
C245 C244 1.516 . S
C245 C246 1.502 . S
C245 C247 1.561 . S
C245 C248 1.526 . S
C246 H230 0.959 . S
C246 H231 0.959 . S
C246 H232 0.961 . S
C246 C245 1.502 . S
C247 H233 0.960 . S
C247 H234 0.961 . S
C247 H235 0.959 . S
C247 C245 1.561 . S
C248 C245 1.526 . S
C248 C249 1.396 . S
C248 C253 1.390 . S
C249 C243 1.465 . S
C249 C248 1.396 . S
C249 C250 1.399 . S
C250 H236 0.929 . S
C250 C249 1.399 . S
C250 C251 1.385 . S
C251 H237 0.931 . S
C251 C250 1.385 . S
C251 C252 1.389 . S
C252 C251 1.389 . S
C252 C253 1.387 . S
C253 H238 0.930 . S
C253 C248 1.390 . S
C253 C252 1.387 . S
H254 C266 0.930 . S
H255 C268 0.930 . S
H256 C269 0.930 . S
H257 C273 0.959 . S
H258 C273 0.959 . S
H259 C273 0.961 . S
H260 C274 0.960 . S
H261 C274 0.961 . S
H262 C274 0.959 . S
H263 C277 0.929 . S
H264 C278 0.931 . S
H265 C280 0.930 . S
C266 H254 0.930 . S
C266 C267 1.399 . S
C266 C271 1.399 . S
C267 C266 1.399 . S
C267 C268 1.376 1_556 S
C268 H255 0.930 . S
C268 C267 1.376 1_554 S
C268 C269 1.388 . S
C269 H256 0.930 . S
C269 C268 1.388 . S
C269 C270 1.390 . S
C270 C269 1.390 . S
C270 C271 1.394 1_554 S
C270 C276 1.465 1_565 S
C271 C266 1.399 . S
C271 C270 1.394 1_556 S
C271 C272 1.516 1_565 S
C272 C271 1.516 1_545 S
C272 C273 1.502 . S
C272 C274 1.561 . S
C272 C275 1.526 . S
C273 H257 0.959 . S
C273 H258 0.959 . S
C273 H259 0.961 . S
C273 C272 1.502 . S
C274 H260 0.960 . S
C274 H261 0.961 . S
C274 H262 0.959 . S
C274 C272 1.561 . S
C275 C272 1.526 . S
C275 C276 1.396 1_556 S
C275 C280 1.390 . S
C276 C270 1.465 1_545 S
C276 C275 1.396 1_554 S
C276 C277 1.399 . S
C277 H263 0.929 . S
C277 C276 1.399 . S
C277 C278 1.385 . S
C278 H264 0.931 . S
C278 C277 1.385 . S
C278 C279 1.389 . S
C279 C278 1.389 . S
C279 C280 1.387 1_554 S
C280 H265 0.930 . S
C280 C275 1.390 . S
C280 C279 1.387 1_556 S
H281 C293 0.930 . S
H282 C295 0.930 . S
H283 C296 0.930 . S
H284 C300 0.959 . S
H285 C300 0.959 . S
H286 C300 0.961 . S
H287 C301 0.960 . S
H288 C301 0.961 1_455 S
H289 C301 0.959 . S
H290 C304 0.929 . S
H291 C305 0.931 . S
H292 C307 0.930 . S
C293 H281 0.930 . S
C293 C294 1.399 . S
C293 C298 1.399 . S
C294 C293 1.399 . S
C294 C295 1.376 1_455 S
C295 H282 0.930 . S
C295 C294 1.376 1_655 S
C295 C296 1.388 . S
C296 H283 0.930 . S
C296 C295 1.388 . S
C296 C297 1.390 . S
C297 C296 1.390 . S
C297 C298 1.394 1_655 S
C297 C303 1.465 1_565 S
C298 C293 1.399 . S
C298 C297 1.394 1_455 S
C298 C299 1.516 . S
C299 C298 1.516 . S
C299 C300 1.502 . S
C299 C301 1.561 1_455 S
C299 C302 1.526 1_565 S
C300 H284 0.959 . S
C300 H285 0.959 . S
C300 H286 0.961 . S
C300 C299 1.502 . S
C301 H287 0.960 . S
C301 H288 0.961 1_655 S
C301 H289 0.959 . S
C301 C299 1.561 1_655 S
C302 C299 1.526 1_545 S
C302 C303 1.396 1_455 S
C302 C307 1.390 . S
C303 C297 1.465 1_545 S
C303 C302 1.396 1_655 S
C303 C304 1.399 . S
C304 H290 0.929 . S
C304 C303 1.399 . S
C304 C305 1.385 . S
C305 H291 0.931 . S
C305 C304 1.385 . S
C305 C306 1.389 1_655 S
C306 C305 1.389 1_455 S
C306 C307 1.387 . S
C307 H292 0.930 . S
C307 C302 1.390 . S
C307 C306 1.387 . S
H308 C320 0.930 . S
H309 C322 0.930 . S
H310 C323 0.930 . S
H311 C327 0.959 . S
H312 C327 0.959 . S
H313 C327 0.961 . S
H314 C328 0.960 . S
H315 C328 0.961 . S
H316 C328 0.959 . S
H317 C331 0.929 . S
H318 C332 0.931 . S
H319 C334 0.930 . S
C320 H308 0.930 . S
C320 C321 1.399 . S
C320 C325 1.399 1_554 S
C321 C320 1.399 . S
C321 C322 1.376 1_455 S
C322 H309 0.930 . S
C322 C321 1.376 1_655 S
C322 C323 1.388 1_554 S
C323 H310 0.930 . S
C323 C322 1.388 1_556 S
C323 C324 1.390 . S
C324 C323 1.390 . S
C324 C325 1.394 1_655 S
C324 C330 1.465 . S
C325 C320 1.399 1_556 S
C325 C324 1.394 1_455 S
C325 C326 1.516 . S
C326 C325 1.516 . S
C326 C327 1.502 . S
C326 C328 1.561 1_455 S
C326 C329 1.526 . S
C327 H311 0.959 . S
C327 H312 0.959 . S
C327 H313 0.961 . S
C327 C326 1.502 . S
C328 H314 0.960 . S
C328 H315 0.961 . S
C328 H316 0.959 . S
C328 C326 1.561 1_655 S
C329 C326 1.526 . S
C329 C330 1.396 1_455 S
C329 C334 1.390 . S
C330 C324 1.465 . S
C330 C329 1.396 1_655 S
C330 C331 1.399 . S
C331 H317 0.929 . S
C331 C330 1.399 . S
C331 C332 1.385 . S
C332 H318 0.931 . S
C332 C331 1.385 . S
C332 C333 1.389 1_655 S
C333 C332 1.389 1_455 S
C333 C334 1.387 . S
C334 H319 0.930 . S
C334 C329 1.390 . S
C334 C333 1.387 . S
H335 C347 0.930 . S
H336 C349 0.930 . S
H337 C350 0.930 . S
H338 C354 0.959 . S
H339 C354 0.959 . S
H340 C354 0.961 . S
H341 C355 0.960 . S
H342 C355 0.961 . S
H343 C355 0.959 . S
H344 C358 0.929 . S
H345 C359 0.931 . S
H346 C361 0.930 . S
C347 H335 0.930 . S
C347 C348 1.399 1_655 S
C347 C352 1.399 1_656 S
C348 C347 1.399 1_455 S
C348 C349 1.376 . S
C349 H336 0.930 . S
C349 C348 1.376 . S
C349 C350 1.388 1_556 S
C350 H337 0.930 . S
C350 C349 1.388 1_554 S
C350 C351 1.390 . S
C351 C350 1.390 . S
C351 C352 1.394 . S
C351 C357 1.465 . S
C352 C347 1.399 1_454 S
C352 C351 1.394 . S
C352 C353 1.516 1_455 S
C353 C352 1.516 1_655 S
C353 C354 1.502 . S
C353 C355 1.561 1_655 S
C353 C356 1.526 1_655 S
C354 H338 0.959 . S
C354 H339 0.959 . S
C354 H340 0.961 . S
C354 C353 1.502 . S
C355 H341 0.960 . S
C355 H342 0.961 . S
C355 H343 0.959 . S
C355 C353 1.561 1_455 S
C356 C353 1.526 1_455 S
C356 C357 1.396 . S
C356 C361 1.390 1_455 S
C357 C351 1.465 . S
C357 C356 1.396 . S
C357 C358 1.399 . S
C358 H344 0.929 . S
C358 C357 1.399 . S
C358 C359 1.385 . S
C359 H345 0.931 . S
C359 C358 1.385 . S
C359 C360 1.389 . S
C360 C359 1.389 . S
C360 C361 1.387 1_455 S
C361 H346 0.930 . S
C361 C356 1.390 1_655 S
C361 C360 1.387 1_655 S
H362 C374 0.930 . S
H363 C376 0.930 . S
H364 C377 0.930 . S
H365 C381 0.959 . S
H366 C381 0.959 . S
H367 C381 0.961 . S
H368 C382 0.960 . S
H369 C382 0.961 . S
H370 C382 0.959 . S
H371 C385 0.929 . S
H372 C386 0.931 . S
H373 C388 0.930 . S
C374 H362 0.930 . S
C374 C375 1.399 . S
C374 C379 1.399 . S
C375 C374 1.399 . S
C375 C376 1.376 . S
C376 H363 0.930 . S
C376 C375 1.376 . S
C376 C377 1.388 . S
C377 H364 0.930 . S
C377 C376 1.388 . S
C377 C378 1.390 . S
C378 C377 1.390 . S
C378 C379 1.394 . S
C378 C384 1.465 . S
C379 C374 1.399 . S
C379 C378 1.394 . S
C379 C380 1.516 . S
C380 C379 1.516 . S
C380 C381 1.502 . S
C380 C382 1.561 . S
C380 C383 1.526 . S
C381 H365 0.959 . S
C381 H366 0.959 . S
C381 H367 0.961 . S
C381 C380 1.502 . S
C382 H368 0.960 . S
C382 H369 0.961 . S
C382 H370 0.959 . S
C382 C380 1.561 . S
C383 C380 1.526 . S
C383 C384 1.396 . S
C383 C388 1.390 . S
C384 C378 1.465 . S
C384 C383 1.396 . S
C384 C385 1.399 . S
C385 H371 0.929 . S
C385 C384 1.399 . S
C385 C386 1.385 . S
C386 H372 0.931 . S
C386 C385 1.385 . S
C386 C387 1.389 . S
C387 C386 1.389 . S
C387 C388 1.387 . S
C388 H373 0.930 . S
C388 C383 1.390 . S
C388 C387 1.387 . S
H389 C401 0.930 . S
H390 C403 0.930 . S
H391 C404 0.930 . S
H392 C408 0.959 . S
H393 C408 0.959 . S
H394 C408 0.961 . S
H395 C409 0.960 . S
H396 C409 0.961 . S
H397 C409 0.959 . S
H398 C412 0.929 . S
H399 C413 0.931 . S
H400 C415 0.930 . S
C401 H389 0.930 . S
C401 C402 1.399 . S
C401 C406 1.399 . S
C402 C401 1.399 . S
C402 C403 1.376 . S
C403 H390 0.930 . S
C403 C402 1.376 . S
C403 C404 1.388 . S
C404 H391 0.930 . S
C404 C403 1.388 . S
C404 C405 1.390 . S
C405 C404 1.390 . S
C405 C406 1.394 . S
C405 C411 1.465 . S
C406 C401 1.399 . S
C406 C405 1.394 . S
C406 C407 1.516 . S
C407 C406 1.516 . S
C407 C408 1.502 . S
C407 C409 1.561 . S
C407 C410 1.526 . S
C408 H392 0.959 . S
C408 H393 0.959 . S
C408 H394 0.961 . S
C408 C407 1.502 . S
C409 H395 0.960 . S
C409 H396 0.961 . S
C409 H397 0.959 . S
C409 C407 1.561 . S
C410 C407 1.526 . S
C410 C411 1.396 . S
C410 C415 1.390 . S
C411 C405 1.465 . S
C411 C410 1.396 . S
C411 C412 1.399 . S
C412 H398 0.929 . S
C412 C411 1.399 . S
C412 C413 1.385 . S
C413 H399 0.931 . S
C413 C412 1.385 . S
C413 C414 1.389 . S
C414 C413 1.389 . S
C414 C415 1.387 . S
C415 H400 0.930 . S
C415 C410 1.390 . S
C415 C414 1.387 . S
C105 C21 1.571 . S
C117 C44 1.582 . S
C132 C64 1.618 . S
C144 C43 1.612 . S
C159 C89 1.594 . S
C171 C65 1.597 . S
C186 C20 1.548 . S
C198 C90 1.575 . S
C213 C87 1.625 . S
C225 C19 1.620 . S
C240 C67 1.571 . S
C252 C42 1.559 . S
C267 C66 1.547 . S
C279 C88 1.537 . S
C294 C41 1.606 1_455 S
C306 C18 1.615 . S
C321 C17 1.280 . S
C333 C16 1.278 . S
C348 C40 1.276 . S
C360 C39 1.280 . S
C375 C63 1.271 . S
C387 C62 1.283 . S
C402 C85 1.278 . S
C414 C86 1.278 . S
