# Generated by pormake.
# Topology vbm, (6)-cn, num edge types: 1
# Building blocks:
#     Node 0, Type 0, BuildingBlock: PAMTOO_clean_sbu_0, # of connection points: 6
#     Node 1, Type 0, BuildingBlock: PAMTOO_clean_sbu_0, # of connection points: 6
#     Node 2, Type 0, BuildingBlock: PAMTOO_clean_sbu_0, # of connection points: 6
#     Node 3, Type 0, BuildingBlock: PAMTOO_clean_sbu_0, # of connection points: 6
#     Node 4, Type 0, BuildingBlock: PAMTOO_clean_sbu_0, # of connection points: 6
#     Node 5, Type 0, BuildingBlock: PAMTOO_clean_sbu_0, # of connection points: 6
#     Node 6, Type 0, BuildingBlock: PAMTOO_clean_sbu_0, # of connection points: 6
#     Node 7, Type 0, BuildingBlock: PAMTOO_clean_sbu_0, # of connection points: 6
#     Node 8, Type 0, BuildingBlock: PAMTOO_clean_sbu_0, # of connection points: 6
#     Node 9, Type 0, BuildingBlock: PAMTOO_clean_sbu_0, # of connection points: 6
#     Node 10, Type 0, BuildingBlock: PAMTOO_clean_sbu_0, # of connection points: 6
#     Node 11, Type 0, BuildingBlock: PAMTOO_clean_sbu_0, # of connection points: 6
#     Node 12, Type 0, BuildingBlock: PAMTOO_clean_sbu_0, # of connection points: 6
#     Node 13, Type 0, BuildingBlock: PAMTOO_clean_sbu_0, # of connection points: 6
#     Node 14, Type 0, BuildingBlock: PAMTOO_clean_sbu_0, # of connection points: 6
#     Node 15, Type 0, BuildingBlock: PAMTOO_clean_sbu_0, # of connection points: 6
#     Edge 16, Type (0, 0), BuildingBlock: EZIPEK_clean_linker_0, # of connection points: 2
#     Edge 17, Type (0, 0), BuildingBlock: EZIPEK_clean_linker_0, # of connection points: 2
#     Edge 18, Type (0, 0), BuildingBlock: EZIPEK_clean_linker_0, # of connection points: 2
#     Edge 19, Type (0, 0), BuildingBlock: EZIPEK_clean_linker_0, # of connection points: 2
#     Edge 20, Type (0, 0), BuildingBlock: EZIPEK_clean_linker_0, # of connection points: 2
#     Edge 21, Type (0, 0), BuildingBlock: EZIPEK_clean_linker_0, # of connection points: 2
#     Edge 22, Type (0, 0), BuildingBlock: EZIPEK_clean_linker_0, # of connection points: 2
#     Edge 23, Type (0, 0), BuildingBlock: EZIPEK_clean_linker_0, # of connection points: 2
#     Edge 24, Type (0, 0), BuildingBlock: EZIPEK_clean_linker_0, # of connection points: 2
#     Edge 25, Type (0, 0), BuildingBlock: EZIPEK_clean_linker_0, # of connection points: 2
#     Edge 26, Type (0, 0), BuildingBlock: EZIPEK_clean_linker_0, # of connection points: 2
#     Edge 27, Type (0, 0), BuildingBlock: EZIPEK_clean_linker_0, # of connection points: 2
#     Edge 28, Type (0, 0), BuildingBlock: EZIPEK_clean_linker_0, # of connection points: 2
#     Edge 29, Type (0, 0), BuildingBlock: EZIPEK_clean_linker_0, # of connection points: 2
#     Edge 30, Type (0, 0), BuildingBlock: EZIPEK_clean_linker_0, # of connection points: 2
#     Edge 31, Type (0, 0), BuildingBlock: EZIPEK_clean_linker_0, # of connection points: 2
#     Edge 32, Type (0, 0), BuildingBlock: EZIPEK_clean_linker_0, # of connection points: 2
#     Edge 33, Type (0, 0), BuildingBlock: EZIPEK_clean_linker_0, # of connection points: 2
#     Edge 34, Type (0, 0), BuildingBlock: EZIPEK_clean_linker_0, # of connection points: 2
#     Edge 35, Type (0, 0), BuildingBlock: EZIPEK_clean_linker_0, # of connection points: 2
#     Edge 36, Type (0, 0), BuildingBlock: EZIPEK_clean_linker_0, # of connection points: 2
#     Edge 37, Type (0, 0), BuildingBlock: EZIPEK_clean_linker_0, # of connection points: 2
#     Edge 38, Type (0, 0), BuildingBlock: EZIPEK_clean_linker_0, # of connection points: 2
#     Edge 39, Type (0, 0), BuildingBlock: EZIPEK_clean_linker_0, # of connection points: 2
#     Edge 40, Type (0, 0), BuildingBlock: EZIPEK_clean_linker_0, # of connection points: 2
#     Edge 41, Type (0, 0), BuildingBlock: EZIPEK_clean_linker_0, # of connection points: 2
#     Edge 42, Type (0, 0), BuildingBlock: EZIPEK_clean_linker_0, # of connection points: 2
#     Edge 43, Type (0, 0), BuildingBlock: EZIPEK_clean_linker_0, # of connection points: 2
#     Edge 44, Type (0, 0), BuildingBlock: EZIPEK_clean_linker_0, # of connection points: 2
#     Edge 45, Type (0, 0), BuildingBlock: EZIPEK_clean_linker_0, # of connection points: 2
#     Edge 46, Type (0, 0), BuildingBlock: EZIPEK_clean_linker_0, # of connection points: 2
#     Edge 47, Type (0, 0), BuildingBlock: EZIPEK_clean_linker_0, # of connection points: 2
#     Edge 48, Type (0, 0), BuildingBlock: EZIPEK_clean_linker_0, # of connection points: 2
#     Edge 49, Type (0, 0), BuildingBlock: EZIPEK_clean_linker_0, # of connection points: 2
#     Edge 50, Type (0, 0), BuildingBlock: EZIPEK_clean_linker_0, # of connection points: 2
#     Edge 51, Type (0, 0), BuildingBlock: EZIPEK_clean_linker_0, # of connection points: 2
#     Edge 52, Type (0, 0), BuildingBlock: EZIPEK_clean_linker_0, # of connection points: 2
#     Edge 53, Type (0, 0), BuildingBlock: EZIPEK_clean_linker_0, # of connection points: 2
#     Edge 54, Type (0, 0), BuildingBlock: EZIPEK_clean_linker_0, # of connection points: 2
#     Edge 55, Type (0, 0), BuildingBlock: EZIPEK_clean_linker_0, # of connection points: 2
#     Edge 56, Type (0, 0), BuildingBlock: EZIPEK_clean_linker_0, # of connection points: 2
#     Edge 57, Type (0, 0), BuildingBlock: EZIPEK_clean_linker_0, # of connection points: 2
#     Edge 58, Type (0, 0), BuildingBlock: EZIPEK_clean_linker_0, # of connection points: 2
#     Edge 59, Type (0, 0), BuildingBlock: EZIPEK_clean_linker_0, # of connection points: 2
#     Edge 60, Type (0, 0), BuildingBlock: EZIPEK_clean_linker_0, # of connection points: 2
#     Edge 61, Type (0, 0), BuildingBlock: EZIPEK_clean_linker_0, # of connection points: 2
#     Edge 62, Type (0, 0), BuildingBlock: EZIPEK_clean_linker_0, # of connection points: 2
#     Edge 63, Type (0, 0), BuildingBlock: EZIPEK_clean_linker_0, # of connection points: 2
# Relax obj value: 0.054
# Max RMSD: 0.138
# Mean RMSD: 0.138
data_MOF--net-vbm--node1-PAMTOO_clean_sbu_0--edge1-EZIPEK_clean_linker_0
_symmetry_space_group_name_H-M    P1
_symmetry_Int_Tables_number       1
_symmetry_cell_setting            triclinic
loop_
_symmetry_equiv_pos_as_xyz
'x, y, z'
_cell_length_a     38.849448
_cell_length_b     21.339249
_cell_length_c     42.308623
_cell_angle_alpha  89.859189
_cell_angle_beta   90.283894
_cell_angle_gamma 90.127465
loop_
_atom_site_label
_atom_site_type_symbol
_atom_site_fract_x
_atom_site_fract_y
_atom_site_fract_z
_atom_type_partial_charge
Dy0 Dy 0.09943 0.21147 0.13597 0.0
Dy1 Dy 0.13325 0.07562 0.10952 0.0
C2 C 0.11014 0.18691 0.06179 0.0
O3 O 0.05527 0.15491 0.11891 0.0
O4 O 0.0792 0.05698 0.12467 0.0
O5 O 0.06417 0.28943 0.13244 0.0
O6 O 0.09979 0.28379 0.17174 0.0
O7 O 0.14092 0.07723 0.16154 0.0
O8 O 0.09575 0.14049 0.17538 0.0
O9 O 0.17505 0.14656 0.10292 0.0
O10 O 0.15602 0.22112 0.13808 0.0
O11 O 0.17105 1.00109 0.11256 0.0
O12 O 0.1296 0.99607 0.07832 0.0
C13 C 0.05248 0.09401 0.12149 0.0
O14 O 0.10952 0.22853 0.08466 0.0
O15 O 0.11409 0.12656 0.06696 0.0
C16 C 0.08714 0.38447 0.15158 0.0
C17 C 0.10432 0.51128 0.14091 0.0
C18 C 0.12218 0.46343 0.12525 0.0
C19 C 0.11367 0.40043 0.13056 0.0
C20 C 0.06951 0.43223 0.16743 0.0
C21 C 0.07804 0.49522 0.16215 0.0
C22 C 0.07739 0.3184 0.15674 0.0
C23 C 0.118 0.09577 0.18202 0.0
C24 C 0.1795 0.19834 0.11926 0.0
C25 C 0.14805 0.90055 0.10122 0.0
C26 C 0.13485 0.7738 0.1162 0.0
C27 C 0.10904 0.81911 0.11992 0.0
C28 C 0.11559 0.88203 0.11254 0.0
C29 C 0.174 0.85535 0.09803 0.0
C30 C 0.16747 0.79242 0.10548 0.0
C31 C 0.15491 0.96625 0.09196 0.0
H32 H 0.1425 0.47494 0.10877 0.0
H33 H 0.12758 0.36417 0.11811 0.0
H34 H 0.04899 0.42082 0.18371 0.0
H35 H 0.06395 0.53149 0.17439 0.0
H36 H 0.08374 0.80558 0.12819 0.0
H37 H 0.09518 0.91605 0.1153 0.0
H38 H 0.19921 0.86862 0.08941 0.0
H39 H 0.18768 0.75808 0.10246 0.0
Dy40 Dy 0.8692 0.86844 0.13545 0.0
Dy41 Dy 0.8349 1.0045 0.11168 0.0
C42 C 0.85833 0.90321 0.06166 0.0
O43 O 0.912 0.93545 0.14166 0.0
O44 O 0.89234 1.01447 0.10858 0.0
O45 O 0.90593 0.79223 0.13374 0.0
O46 O 0.86388 0.78986 0.16715 0.0
O47 O 0.85471 1.02142 0.15984 0.0
O48 O 0.84884 0.92092 0.1779 0.0
O49 O 0.79245 0.93953 0.12729 0.0
O50 O 0.81889 0.84773 0.11412 0.0
O51 O 0.79797 0.07837 0.11915 0.0
O52 O 0.83138 0.08123 0.07829 0.0
C53 C 0.91683 0.98643 0.12496 0.0
O54 O 0.87833 0.87619 0.08296 0.0
O55 O 0.83459 0.944 0.06915 0.0
C56 C 0.88164 0.69335 0.14619 0.0
C57 C 0.86513 0.56726 0.13341 0.0
C58 C 0.84604 0.61581 0.11936 0.0
C59 C 0.85425 0.67851 0.1257 0.0
C60 C 0.90094 0.64484 0.1599 0.0
C61 C 0.89278 0.58219 0.15354 0.0
C62 C 0.88926 0.7589 0.15459 0.0
C63 C 0.85171 0.98162 0.18314 0.0
C64 C 0.79133 0.87931 0.12082 0.0
C65 C 0.81647 0.17799 0.10135 0.0
C66 C 0.83147 0.30551 0.11187 0.0
C67 C 0.84217 0.2599 0.13376 0.0
C68 C 0.83482 0.19648 0.1285 0.0
C69 C 0.80568 0.22368 0.07958 0.0
C70 C 0.81316 0.28703 0.08477 0.0
C71 C 0.80885 0.11142 0.09518 0.0
H72 H 0.82465 0.6051 0.10375 0.0
H73 H 0.83898 0.71535 0.11496 0.0
H74 H 0.92207 0.65543 0.17585 0.0
H75 H 0.90777 0.54531 0.16455 0.0
H76 H 0.85639 0.27342 0.15477 0.0
H77 H 0.84353 0.16191 0.14554 0.0
H78 H 0.79158 0.21029 0.05848 0.0
H79 H 0.80475 0.32165 0.06764 0.0
Dy80 Dy 0.10423 0.86246 0.35503 0.0
Dy81 Dy 0.14256 0.99774 0.37433 0.0
C82 C 0.11947 0.90134 0.42636 0.0
O83 O 0.06172 0.92483 0.36985 0.0
O84 O 0.08805 1.02066 0.36178 0.0
O85 O 0.07089 0.78459 0.36658 0.0
O86 O 0.0975 0.78644 0.32178 0.0
O87 O 0.14695 0.98736 0.32239 0.0
O88 O 0.09873 0.92813 0.31325 0.0
O89 O 0.18202 0.92207 0.3814 0.0
O90 O 0.15974 0.85113 0.34604 0.0
O91 O 0.17822 0.07291 0.36339 0.0
O92 O 0.1497 0.07452 0.40697 0.0
C93 C 0.06049 0.98572 0.36585 0.0
O94 O 0.12232 0.85571 0.40566 0.0
O95 O 0.11722 0.95969 0.41718 0.0
C96 C 0.08953 0.68766 0.34594 0.0
C97 C 0.10922 0.56161 0.35474 0.0
C98 C 0.126 0.60966 0.37148 0.0
C99 C 0.11629 0.67232 0.36706 0.0
C100 C 0.07295 0.63966 0.32909 0.0
C101 C 0.08273 0.57708 0.33343 0.0
C102 C 0.07882 0.75333 0.34118 0.0
C103 C 0.12167 0.96984 0.30391 0.0
C104 C 0.18454 0.87062 0.36451 0.0
C105 C 0.1613 0.17194 0.38259 0.0
C106 C 0.1451 0.2994 0.37286 0.0
C107 C 0.11994 0.25285 0.36826 0.0
C108 C 0.12797 0.18956 0.37312 0.0
C109 C 0.1865 0.21839 0.38692 0.0
C110 C 0.17846 0.2817 0.38214 0.0
C111 C 0.17002 0.10555 0.38818 0.0
H112 H 0.14652 0.59858 0.38798 0.0
H113 H 0.12955 0.70876 0.38015 0.0
H114 H 0.05236 0.6506 0.31263 0.0
H115 H 0.06953 0.54063 0.32031 0.0
H116 H 0.09408 0.2656 0.3611 0.0
H117 H 0.10814 0.15444 0.36965 0.0
H118 H 0.21236 0.20572 0.39417 0.0
H119 H 0.19819 0.31693 0.38581 0.0
Dy120 Dy 0.87642 0.2148 0.35205 0.0
Dy121 Dy 0.84436 0.07716 0.37941 0.0
C122 C 0.8666 0.18727 0.42774 0.0
O123 O 0.92336 0.16104 0.36167 0.0
O124 O 0.90037 0.06166 0.36816 0.0
O125 O 0.9102 0.29515 0.35394 0.0
O126 O 0.87296 0.28669 0.316 0.0
O127 O 0.83477 0.07875 0.32784 0.0
O128 O 0.87844 0.14451 0.31232 0.0
O129 O 0.80213 0.1466 0.38673 0.0
O130 O 0.82001 0.22331 0.35209 0.0
O131 O 0.80502 1.00549 0.37831 0.0
O132 O 0.84973 0.99423 0.40851 0.0
C133 C 0.92666 0.10075 0.36598 0.0
O134 O 0.87223 0.22801 0.40479 0.0
O135 O 0.85761 0.12881 0.42297 0.0
C136 C 0.88472 0.38953 0.3349 0.0
C137 C 0.86607 0.5163 0.34278 0.0
C138 C 0.88696 0.48635 0.36528 0.0
C139 C 0.89626 0.4236 0.36139 0.0
C140 C 0.86384 0.41993 0.31234 0.0
C141 C 0.85452 0.48276 0.31628 0.0
C142 C 0.89502 0.32324 0.33028 0.0
C143 C 0.85616 0.09928 0.30649 0.0
C144 C 0.79692 0.19863 0.37074 0.0
C145 C 0.82586 0.90231 0.38664 0.0
C146 C 0.83577 0.7768 0.36845 0.0
C147 C 0.83264 0.82399 0.34542 0.0
C148 C 0.82779 0.88642 0.35445 0.0
C149 C 0.82846 0.85491 0.40954 0.0
C150 C 0.83339 0.79261 0.40053 0.0
C151 C 0.82214 0.96789 0.39693 0.0
H152 H 0.89624 0.51174 0.38577 0.0
H153 H 0.91261 0.40199 0.3791 0.0
H154 H 0.85483 0.3952 0.29154 0.0
H155 H 0.83853 0.50538 0.2986 0.0
H156 H 0.83445 0.81255 0.32056 0.0
H157 H 0.82584 0.92223 0.33635 0.0
H158 H 0.82707 0.86622 0.43446 0.0
H159 H 0.83579 0.75677 0.41858 0.0
Dy160 Dy 0.83429 1.00053 0.87515 0.0
Dy161 Dy 0.87265 0.86517 0.85359 0.0
C162 C 0.85677 0.97719 0.8043 0.0
O163 O 0.79314 0.93271 0.86004 0.0
O164 O 0.82166 0.84206 0.87268 0.0
O165 O 0.79801 0.0743 0.8643 0.0
O166 O 0.82682 0.07657 0.9082 0.0
O167 O 0.87967 0.87324 0.90616 0.0
O168 O 0.83524 0.94084 0.91842 0.0
O169 O 0.91447 0.93585 0.85121 0.0
O170 O 0.89079 1.01387 0.88239 0.0
O171 O 0.90969 0.78973 0.85768 0.0
O172 O 0.86991 0.78647 0.82166 0.0
C173 C 0.79343 0.8724 0.86636 0.0
O174 O 0.8557 1.01747 0.82746 0.0
O175 O 0.85601 0.91624 0.80924 0.0
C176 C 0.8145 0.17394 0.88396 0.0
C177 C 0.83105 0.3019 0.87538 0.0
C178 C 0.84516 0.25607 0.85548 0.0
C179 C 0.83703 0.19258 0.85978 0.0
C180 C 0.80026 0.21973 0.90372 0.0
C181 C 0.80851 0.28319 0.89952 0.0
C182 C 0.80621 0.10708 0.88925 0.0
C183 C 0.8591 0.90034 0.92666 0.0
C184 C 0.91686 0.98775 0.86775 0.0
C185 C 0.88656 0.6897 0.84375 0.0
C186 C 0.86824 0.56378 0.85608 0.0
C187 C 0.86657 0.60888 0.88018 0.0
C188 C 0.87549 0.67151 0.87403 0.0
C189 C 0.88838 0.6444 0.8198 0.0
C190 C 0.87926 0.58201 0.82588 0.0
C191 C 0.89443 0.75587 0.83603 0.0
H192 H 0.86263 0.26948 0.83676 0.0
H193 H 0.84839 0.15803 0.84432 0.0
H194 H 0.78289 0.20635 0.92254 0.0
H195 H 0.7974 0.31774 0.91514 0.0
H196 H 0.85804 0.59568 0.90361 0.0
H197 H 0.87343 0.70575 0.89278 0.0
H198 H 0.8965 0.65749 0.79622 0.0
H199 H 0.88067 0.54793 0.807 0.0
Dy200 Dy 0.13439 0.08167 0.87927 0.0
Dy201 Dy 0.10087 0.21981 0.85389 0.0
C202 C 0.11656 0.10127 0.80691 0.0
O203 O 0.17759 0.14708 0.86657 0.0
O204 O 0.15057 0.24005 0.87658 0.0
O205 O 0.17278 1.00947 0.87386 0.0
O206 O 0.13682 1.00513 0.91282 0.0
O207 O 0.09713 0.22724 0.90642 0.0
O208 O 0.12501 0.13664 0.92321 0.0
O209 O 0.05477 0.16082 0.86149 0.0
O210 O 0.0783 0.06324 0.87222 0.0
O211 O 0.06412 0.29603 0.85102 0.0
O212 O 0.10974 0.29678 0.82185 0.0
C213 C 0.17839 0.20717 0.87311 0.0
O214 O 0.11773 0.06176 0.83046 0.0
O215 O 0.11594 0.16252 0.81103 0.0
C216 C 0.15363 0.90916 0.89013 0.0
C217 C 0.13902 0.78184 0.87829 0.0
C218 C 0.1281 0.82826 0.85693 0.0
C219 C 0.13525 0.89154 0.86285 0.0
C220 C 0.1647 0.86269 0.91136 0.0
C221 C 0.15741 0.79944 0.90552 0.0
C222 C 0.16062 0.97572 0.89708 0.0
C223 C 0.1091 0.18986 0.92866 0.0
C224 C 0.05185 0.10059 0.86729 0.0
C225 C 0.09036 0.39424 0.84049 0.0
C226 C 0.106 0.52044 0.8542 0.0
C227 C 0.12488 0.47187 0.86848 0.0
C228 C 0.1171 0.40918 0.8617 0.0
C229 C 0.07125 0.44276 0.82654 0.0
C230 C 0.07898 0.50545 0.83336 0.0
C231 C 0.08327 0.32857 0.83173 0.0
H232 H 0.11381 0.81549 0.83585 0.0
H233 H 0.12629 0.92671 0.84625 0.0
H234 H 0.17879 0.87537 0.93257 0.0
H235 H 0.166 0.76421 0.92225 0.0
H236 H 0.14579 0.48258 0.88463 0.0
H237 H 0.13221 0.3724 0.87267 0.0
H238 H 0.05061 0.43217 0.81006 0.0
H239 H 0.06415 0.54232 0.82216 0.0
Dy240 Dy 0.84487 0.08036 0.61024 0.0
Dy241 Dy 0.87875 0.21717 0.63586 0.0
C242 C 0.86255 0.09957 0.68223 0.0
O243 O 0.8027 0.14271 0.62772 0.0
O244 O 0.82784 0.23619 0.61505 0.0
O245 O 0.80667 1.00786 0.61661 0.0
O246 O 0.84115 1.00428 0.57656 0.0
O247 O 0.88483 0.22112 0.5834 0.0
O248 O 0.84738 0.14235 0.56753 0.0
O249 O 0.92385 0.15372 0.63429 0.0
O250 O 0.90156 0.06482 0.61007 0.0
O251 O 0.91512 0.29417 0.63725 0.0
O252 O 0.87118 0.29352 0.66855 0.0
C253 C 0.80072 0.20287 0.62163 0.0
O254 O 0.8644 0.0607 0.65849 0.0
O255 O 0.86094 0.16064 0.67799 0.0
C256 C 0.82511 0.90757 0.59972 0.0
C257 C 0.83945 0.77985 0.61119 0.0
C258 C 0.84403 0.82437 0.63526 0.0
C259 C 0.83704 0.88777 0.62956 0.0
C260 C 0.8204 0.86297 0.57574 0.0
C261 C 0.82757 0.79961 0.58139 0.0
C262 C 0.81806 0.97439 0.59311 0.0
C263 C 0.86771 0.1903 0.56146 0.0
C264 C 0.92742 0.09817 0.62123 0.0
C265 C 0.88896 0.39245 0.64946 0.0
C266 C 0.87237 0.5185 0.63584 0.0
C267 C 0.88445 0.4789 0.61189 0.0
C268 C 0.89258 0.41627 0.61859 0.0
C269 C 0.87692 0.43235 0.67333 0.0
C270 C 0.86862 0.49478 0.66658 0.0
C271 C 0.89672 0.32621 0.65726 0.0
H272 H 0.85327 0.81002 0.65836 0.0
H273 H 0.84111 0.92131 0.6484 0.0
H274 H 0.81134 0.87725 0.55256 0.0
H275 H 0.824 0.76598 0.56252 0.0
H276 H 0.88749 0.49649 0.58802 0.0
H277 H 0.90155 0.38657 0.59963 0.0
H278 H 0.87378 0.41507 0.69725 0.0
H279 H 0.85935 0.52469 0.68534 0.0
Dy280 Dy 0.14725 1.00287 0.61491 0.0
Dy281 Dy 0.1066 0.86693 0.63403 0.0
C282 C 0.12077 0.97399 0.68636 0.0
O283 O 0.18472 0.92391 0.60769 0.0
O284 O 0.162 0.85743 0.6445 0.0
O285 O 0.1859 0.07306 0.62595 0.0
O286 O 0.15558 0.08109 0.58325 0.0
O287 O 0.12201 0.86189 0.58291 0.0
O288 O 0.12361 0.96678 0.57068 0.0
O289 O 0.06431 0.93406 0.62358 0.0
O290 O 0.09267 1.03012 0.62163 0.0
O291 O 0.07371 0.78886 0.62128 0.0
O292 O 0.10058 0.7886 0.6662 0.0
C293 C 0.18631 0.87252 0.62475 0.0
O294 O 0.14307 1.00134 0.66749 0.0
O295 O 0.10153 0.92618 0.67747 0.0
C296 C 0.1707 0.17538 0.60862 0.0
C297 C 0.15457 0.30323 0.61769 0.0
C298 C 0.13844 0.25654 0.63593 0.0
C299 C 0.14634 0.1931 0.63135 0.0
C300 C 0.18724 0.22205 0.59081 0.0
C301 C 0.17923 0.28544 0.59526 0.0
C302 C 0.17757 0.10857 0.60197 0.0
C303 C 0.12177 0.90794 0.56215 0.0
C304 C 0.06457 0.99572 0.62191 0.0
C305 C 0.09362 0.69041 0.64103 0.0
C306 C 0.1151 0.56489 0.6328 0.0
C307 C 0.11893 0.60878 0.60825 0.0
C308 C 0.10844 0.67113 0.61236 0.0
C309 C 0.08997 0.64639 0.66555 0.0
C310 C 0.10067 0.58425 0.66151 0.0
C311 C 0.08238 0.75601 0.64614 0.0
H312 H 0.1193 0.26922 0.6533 0.0
H313 H 0.13306 0.15782 0.64518 0.0
H314 H 0.20596 0.20937 0.57304 0.0
H315 H 0.19191 0.32061 0.58092 0.0
H316 H 0.13004 0.59473 0.58594 0.0
H317 H 0.1119 0.70415 0.59315 0.0
H318 H 0.07882 0.66015 0.6879 0.0
H319 H 0.09749 0.5511 0.68071 0.0
Dy320 Dy 0.59843 0.71186 0.13777 0.0
Dy321 Dy 0.63686 0.57665 0.11915 0.0
C322 C 0.61373 0.67219 0.06635 0.0
O323 O 0.55727 0.64835 0.12049 0.0
O324 O 0.58268 0.55401 0.13284 0.0
O325 O 0.56544 0.78968 0.12489 0.0
O326 O 0.58995 0.78721 0.17085 0.0
O327 O 0.6394 0.58453 0.17116 0.0
O328 O 0.59293 0.64817 0.18039 0.0
O329 O 0.67624 0.65329 0.11216 0.0
O330 O 0.65403 0.72563 0.14651 0.0
O331 O 0.67446 0.50396 0.12877 0.0
O332 O 0.64126 0.49733 0.08786 0.0
C333 C 0.55537 0.5881 0.12623 0.0
O334 O 0.61547 0.71823 0.08701 0.0
O335 O 0.61282 0.6136 0.07534 0.0
C336 C 0.58304 0.88651 0.14675 0.0
C337 C 0.60294 1.01299 0.13937 0.0
C338 C 0.62758 0.96503 0.13773 0.0
C339 C 0.6177 0.90218 0.14131 0.0
C340 C 0.55847 0.93448 0.14832 0.0
C341 C 0.56832 0.99725 0.14462 0.0
C342 C 0.57221 0.82058 0.15073 0.0
C343 C 0.6151 0.60506 0.18978 0.0
C344 C 0.67872 0.70588 0.12825 0.0
C345 C 0.65637 0.40263 0.11292 0.0
C346 C 0.64043 0.27523 0.12342 0.0
C347 C 0.61808 0.32239 0.13394 0.0
C348 C 0.62598 0.38568 0.1287 0.0
C349 C 0.67898 0.35554 0.10293 0.0
C350 C 0.67106 0.29226 0.10812 0.0
C351 C 0.66393 0.46883 0.10548 0.0
H352 H 0.65439 0.97629 0.13357 0.0
H353 H 0.63706 0.86585 0.13984 0.0
H354 H 0.53163 0.92336 0.15241 0.0
H355 H 0.54897 1.03362 0.14587 0.0
H356 H 0.59432 0.3101 0.14574 0.0
H357 H 0.60816 0.42135 0.13652 0.0
H358 H 0.70251 0.36769 0.09068 0.0
H359 H 0.68859 0.25653 0.09985 0.0
Dy360 Dy 0.37508 0.3523 0.1391 0.0
Dy361 Dy 0.33943 0.48789 0.11304 0.0
C362 C 0.36542 0.38354 0.0649 0.0
O363 O 0.41746 0.421 0.1433 0.0
O364 O 0.39658 0.49877 0.11001 0.0
O365 O 0.41229 0.27663 0.13751 0.0
O366 O 0.37001 0.27344 0.17068 0.0
O367 O 0.3546 0.50733 0.16259 0.0
O368 O 0.35975 0.40704 0.18257 0.0
O369 O 0.29622 0.42289 0.12607 0.0
O370 O 0.3244 0.32978 0.11846 0.0
O371 O 0.30256 0.56272 0.11871 0.0
O372 O 0.3371 0.5633 0.07877 0.0
C373 C 0.4214 0.47227 0.12655 0.0
O374 O 0.38516 0.35837 0.0869 0.0
O375 O 0.34131 0.42465 0.07121 0.0
C376 C 0.38794 0.177 0.14914 0.0
C377 C 0.37248 0.05039 0.13568 0.0
C378 C 0.34954 0.0981 0.12674 0.0
C379 C 0.35723 0.16095 0.13335 0.0
C380 C 0.41106 0.12934 0.15767 0.0
C381 C 0.40343 0.06651 0.15096 0.0
C382 C 0.39542 0.24268 0.15798 0.0
C383 C 0.35749 0.4683 0.18632 0.0
C384 C 0.29621 0.36202 0.12149 0.0
C385 C 0.32293 0.66123 0.10109 0.0
C386 C 0.33915 0.78834 0.11235 0.0
C387 C 0.354 0.74092 0.13101 0.0
C388 C 0.34599 0.67781 0.1254 0.0
C389 C 0.30811 0.70862 0.08247 0.0
C390 C 0.31615 0.77173 0.08804 0.0
C391 C 0.31445 0.59485 0.09485 0.0
H392 H 0.32556 0.08659 0.1149 0.0
H393 H 0.33899 0.19692 0.12652 0.0
H394 H 0.43484 0.14066 0.16989 0.0
H395 H 0.42144 1.03035 0.15801 0.0
H396 H 0.37181 0.75281 0.14985 0.0
H397 H 0.35774 0.64196 0.14001 0.0
H398 H 0.29031 0.69681 0.06359 0.0
H399 H 0.30443 0.80765 0.07343 0.0
Dy400 Dy 0.6008 0.35806 0.35938 0.0
Dy401 Dy 0.63848 0.4932 0.38029 0.0
C402 C 0.61665 0.39316 0.4313 0.0
O403 O 0.5597 0.41966 0.37777 0.0
O404 O 0.58428 0.51481 0.36588 0.0
O405 O 0.56666 0.28076 0.37012 0.0
O406 O 0.59408 0.28253 0.32578 0.0
O407 O 0.64004 0.491 0.32817 0.0
O408 O 0.59539 0.4232 0.31725 0.0
O409 O 0.67845 0.41726 0.38621 0.0
O410 O 0.65632 0.34622 0.35088 0.0
O411 O 0.67722 0.56527 0.37402 0.0
O412 O 0.64025 0.5727 0.41183 0.0
C413 C 0.55724 0.47987 0.37224 0.0
O414 O 0.6187 0.34858 0.4099 0.0
O415 O 0.61512 0.45225 0.42329 0.0
C416 C 0.58575 0.18256 0.34957 0.0
C417 C 0.60493 0.05549 0.35706 0.0
C418 C 0.59517 0.09121 0.38333 0.0
C419 C 0.58569 0.15414 0.37967 0.0
C420 C 0.59546 0.14642 0.32331 0.0
C421 C 0.60507 0.08356 0.32703 0.0
C422 C 0.57543 0.24911 0.34508 0.0
C423 C 0.61663 0.46872 0.30882 0.0
C424 C 0.68106 0.3656 0.36943 0.0
C425 C 0.65815 0.66713 0.38816 0.0
C426 C 0.64229 0.79391 0.37566 0.0
C427 C 0.634 0.7472 0.35349 0.0
C428 C 0.64172 0.6842 0.35975 0.0
C429 C 0.66689 0.71391 0.41005 0.0
C430 C 0.65899 0.77677 0.40389 0.0
C431 C 0.66461 0.60078 0.39619 0.0
H432 H 0.59483 0.07026 0.40668 0.0
H433 H 0.57828 0.18037 0.40042 0.0
H434 H 0.59558 0.16682 0.29984 0.0
H435 H 0.61242 0.05667 0.30647 0.0
H436 H 0.62105 0.75948 0.3316 0.0
H437 H 0.63446 0.64877 0.34265 0.0
H438 H 0.67935 0.70166 0.43218 0.0
H439 H 0.66553 0.81203 0.4213 0.0
Dy440 Dy 0.37653 0.70925 0.35535 0.0
Dy441 Dy 0.34025 0.57438 0.37992 0.0
C442 C 0.36333 0.67871 0.42927 0.0
O443 O 0.41847 0.63973 0.35208 0.0
O444 O 0.39711 0.56626 0.38723 0.0
O445 O 0.41379 0.78488 0.35753 0.0
O446 O 0.37222 0.78766 0.32318 0.0
O447 O 0.35965 0.55465 0.33178 0.0
O448 O 0.35985 0.65498 0.31189 0.0
O449 O 0.29814 0.6387 0.36317 0.0
O450 O 0.32543 0.73131 0.37427 0.0
O451 O 0.30367 0.49946 0.37223 0.0
O452 O 0.33625 0.49853 0.41388 0.0
C453 C 0.42225 0.59061 0.37046 0.0
O454 O 0.38407 0.70398 0.40814 0.0
O455 O 0.3393 0.63791 0.42168 0.0
C456 C 0.3898 0.88507 0.34436 0.0
C457 C 0.37351 1.01144 0.35762 0.0
C458 C 0.38339 0.97052 0.38209 0.0
C459 C 0.39137 0.90777 0.37556 0.0
C460 C 0.38004 0.92633 0.31997 0.0
C461 C 0.3719 0.98885 0.32654 0.0
C462 C 0.39727 0.81868 0.3366 0.0
C463 C 0.36 0.59365 0.30793 0.0
C464 C 0.29761 0.69944 0.36819 0.0
C465 C 0.32307 0.40051 0.39069 0.0
C466 C 0.33939 0.27311 0.3805 0.0
C467 C 0.34749 0.31864 0.35763 0.0
C468 C 0.33955 0.38186 0.36273 0.0
C469 C 0.31503 0.35502 0.41353 0.0
C470 C 0.32319 0.29188 0.40853 0.0
C471 C 0.3145 0.46702 0.3965 0.0
H472 H 0.38474 0.98714 0.40624 0.0
H473 H 0.39856 0.87707 0.3949 0.0
H474 H 0.37851 0.91002 0.29577 0.0
H475 H 0.36433 1.01967 0.30736 0.0
H476 H 0.36009 0.3052 0.33589 0.0
H477 H 0.34627 0.41613 0.34485 0.0
H478 H 0.30248 0.3684 0.4353 0.0
H479 H 0.31683 0.25757 0.4265 0.0
Dy480 Dy 0.34169 0.49205 0.8825 0.0
Dy481 Dy 0.37392 0.35564 0.85701 0.0
C482 C 0.35817 0.4703 0.80964 0.0
O483 O 0.30037 0.42095 0.8911 0.0
O484 O 0.31716 0.34944 0.8538 0.0
O485 O 0.30283 0.56441 0.88071 0.0
O486 O 0.34611 0.57292 0.91292 0.0
O487 O 0.36365 0.33996 0.90856 0.0
O488 O 0.36213 0.44272 0.92509 0.0
O489 O 0.41819 0.41083 0.87487 0.0
O490 O 0.396 0.50975 0.86778 0.0
O491 O 0.40845 0.2768 0.86095 0.0
O492 O 0.37286 0.28256 0.82161 0.0
C493 C 0.29475 0.37051 0.87412 0.0
O494 O 0.33581 0.49182 0.83006 0.0
O495 O 0.37956 0.42462 0.81694 0.0
C496 C 0.32399 0.66678 0.89167 0.0
C497 C 0.33593 0.79359 0.87644 0.0
C498 C 0.33527 0.74803 0.85254 0.0
C499 C 0.32948 0.68491 0.86011 0.0
C500 C 0.32425 0.71259 0.91541 0.0
C501 C 0.33024 0.77551 0.90788 0.0
C502 C 0.31928 0.60046 0.90062 0.0
C503 C 0.36475 0.38241 0.93107 0.0
C504 C 0.42208 0.47151 0.87214 0.0
C505 C 0.38502 0.18193 0.84186 0.0
C506 C 0.36715 0.05528 0.85156 0.0
C507 C 0.3565 0.10133 0.87306 0.0
C508 C 0.36527 0.1643 0.86819 0.0
C509 C 0.39527 0.13604 0.8202 0.0
C510 C 0.38637 0.07314 0.82498 0.0
C511 C 0.39504 0.2478 0.83675 0.0
H512 H 0.3398 0.76125 0.82817 0.0
H513 H 0.3297 0.65029 0.84143 0.0
H514 H 0.32025 0.69952 0.93989 0.0
H515 H 0.3308 0.81006 0.92659 0.0
H516 H 0.34166 0.08839 0.89368 0.0
H517 H 0.3569 0.19914 0.88506 0.0
H518 H 0.41035 0.14883 0.79969 0.0
H519 H 0.39477 0.03824 0.80816 0.0
Dy520 Dy 0.64023 0.57137 0.88074 0.0
Dy521 Dy 0.60177 0.70683 0.85858 0.0
C522 C 0.6134 0.59545 0.80864 0.0
O523 O 0.67866 0.64922 0.88638 0.0
O524 O 0.65728 0.713 0.84759 0.0
O525 O 0.67914 0.50122 0.87193 0.0
O526 O 0.64758 0.49476 0.91373 0.0
O527 O 0.61815 0.71397 0.9095 0.0
O528 O 0.6142 0.6104 0.92284 0.0
O529 O 0.55842 0.64067 0.86762 0.0
O530 O 0.58573 0.54448 0.87387 0.0
O531 O 0.56852 0.78479 0.86987 0.0
O532 O 0.59769 0.78544 0.82638 0.0
C533 C 0.68161 0.69772 0.8675 0.0
O534 O 0.63486 0.56793 0.82838 0.0
O535 O 0.59563 0.64583 0.81593 0.0
C536 C 0.66326 0.39952 0.88959 0.0
C537 C 0.64798 0.27148 0.87971 0.0
C538 C 0.63852 0.31665 0.85705 0.0
C539 C 0.64593 0.38021 0.86201 0.0
C540 C 0.67308 0.35429 0.91202 0.0
C541 C 0.66544 0.29081 0.90717 0.0
C542 C 0.66995 0.46658 0.89592 0.0
C543 C 0.61502 0.6695 0.93085 0.0
C544 C 0.55802 0.57919 0.87085 0.0
C545 C 0.58994 0.88372 0.85158 0.0
C546 C 0.61049 1.00956 0.86142 0.0
C547 C 0.60129 0.97141 0.88713 0.0
C548 C 0.59116 0.90902 0.8823 0.0
C549 C 0.59925 0.9222 0.82594 0.0
C550 C 0.60953 0.98442 0.83082 0.0
C551 C 0.57878 0.81803 0.84569 0.0
H552 H 0.62493 0.30275 0.83577 0.0
H553 H 0.6378 0.41431 0.8445 0.0
H554 H 0.68627 0.3682 0.93351 0.0
H555 H 0.67284 0.25678 0.92497 0.0
H556 H 0.6018 0.99008 0.91091 0.0
H557 H 0.58419 0.88083 0.90261 0.0
H558 H 0.59845 0.90415 0.80204 0.0
H559 H 0.61642 1.01319 0.81068 0.0
Dy560 Dy 0.34217 0.56926 0.61299 0.0
Dy561 Dy 0.37711 0.70618 0.63749 0.0
C562 C 0.35876 0.59234 0.68615 0.0
O563 O 0.29949 0.63961 0.60865 0.0
O564 O 0.32119 0.71903 0.6399 0.0
O565 O 0.30384 0.49541 0.6159 0.0
O566 O 0.34494 0.48971 0.58175 0.0
O567 O 0.36392 0.72119 0.58625 0.0
O568 O 0.36102 0.61831 0.5699 0.0
O569 O 0.41988 0.64867 0.61962 0.0
O570 O 0.39651 0.55102 0.62816 0.0
O571 O 0.41266 0.78338 0.63166 0.0
O572 O 0.37928 0.78021 0.67233 0.0
C573 C 0.29626 0.6934 0.62356 0.0
O574 O 0.33808 0.56712 0.66517 0.0
O575 O 0.37959 0.63941 0.67916 0.0
C576 C 0.32548 0.39461 0.60391 0.0
C577 C 0.33877 0.2674 0.61739 0.0
C578 C 0.36193 0.3141 0.6273 0.0
C579 C 0.35532 0.37728 0.62065 0.0
C580 C 0.30198 0.34806 0.59459 0.0
C581 C 0.30857 0.28485 0.60127 0.0
C582 C 0.31927 0.46056 0.59505 0.0
C583 C 0.36336 0.67853 0.56381 0.0
C584 C 0.42304 0.58826 0.62365 0.0
C585 C 0.3909 0.87959 0.65035 0.0
C586 C 0.37221 1.0056 0.63989 0.0
C587 C 0.35829 0.95786 0.62092 0.0
C588 C 0.36747 0.89522 0.62617 0.0
C589 C 0.40462 0.92727 0.66942 0.0
C590 C 0.39532 0.98988 0.66426 0.0
C591 C 0.40088 0.81383 0.65598 0.0
H592 H 0.38534 0.30149 0.63977 0.0
H593 H 0.37375 0.41252 0.62812 0.0
H594 H 0.27879 0.36051 0.58172 0.0
H595 H 0.2904 0.24947 0.59347 0.0
H596 H 0.34041 0.96917 0.60203 0.0
H597 H 0.35641 0.85901 0.61133 0.0
H598 H 0.42259 0.91609 0.68826 0.0
H599 H 0.40631 1.02614 0.6791 0.0
Dy600 Dy 0.64093 0.49105 0.61664 0.0
Dy601 Dy 0.60331 0.35388 0.63859 0.0
C602 C 0.61491 0.46633 0.68876 0.0
O603 O 0.68015 0.41471 0.61169 0.0
O604 O 0.65904 0.34487 0.6481 0.0
O605 O 0.67877 0.56326 0.62631 0.0
O606 O 0.64873 0.5667 0.58329 0.0
O607 O 0.61983 0.34831 0.58776 0.0
O608 O 0.61419 0.45165 0.57477 0.0
O609 O 0.55968 0.41959 0.63054 0.0
O610 O 0.5861 0.51605 0.62194 0.0
O611 O 0.56995 0.27624 0.626 0.0
O612 O 0.59827 0.27489 0.67021 0.0
C613 C 0.68332 0.36407 0.62914 0.0
O614 O 0.6346 0.4966 0.66867 0.0
O615 O 0.59883 0.41359 0.68192 0.0
C616 C 0.66259 0.66318 0.60728 0.0
C617 C 0.64723 0.791 0.61658 0.0
C618 C 0.62605 0.74425 0.62958 0.0
C619 C 0.63364 0.68077 0.62494 0.0
C620 C 0.68396 0.70988 0.59458 0.0
C621 C 0.67632 0.77338 0.59915 0.0
C622 C 0.67027 0.59646 0.60158 0.0
C623 C 0.61602 0.39283 0.56652 0.0
C624 C 0.55875 0.48064 0.62587 0.0
C625 C 0.58992 0.17788 0.64444 0.0
C626 C 0.61021 0.05257 0.63436 0.0
C627 C 0.63409 0.10167 0.631 0.0
C628 C 0.624 0.16394 0.63593 0.0
C629 C 0.56606 0.12883 0.64756 0.0
C630 C 0.57611 0.06664 0.64252 0.0
C631 C 0.57908 0.24302 0.65059 0.0
H632 H 0.60351 0.75696 0.64308 0.0
H633 H 0.61684 0.6454 0.63495 0.0
H634 H 0.70642 0.69723 0.58094 0.0
H635 H 0.69297 0.8088 0.58899 0.0
H636 H 0.66049 0.09172 0.62463 0.0
H637 H 0.64281 0.20115 0.63329 0.0
H638 H 0.53968 0.1386 0.65406 0.0
H639 H 0.55734 1.0294 0.64516 0.0
C640 C 0.22855 0.24738 0.14781 0.0
C641 C 0.2125 0.23303 0.11848 0.0
C642 C 0.24901 0.31006 0.09151 0.0
C643 C 0.26405 0.32569 0.12101 0.0
N644 N 0.26639 0.31638 0.17763 0.0
N645 N 0.21214 0.24001 0.0615 0.0
C646 C 0.25334 0.29624 0.14931 0.0
C647 C 0.22411 0.26115 0.08998 0.0
N648 N 0.22114 0.21169 0.17385 0.0
N649 N 0.25764 0.34406 0.06526 0.0
H650 H 0.19364 0.205 0.05926 0.0
H651 H 0.22222 0.25361 0.0398 0.0
H652 H 0.27535 0.38085 0.06598 0.0
H653 H 0.24555 0.33968 0.04339 0.0
H654 H 0.23377 0.21567 0.19548 0.0
H655 H 0.20432 0.17351 0.173 0.0
H656 H 0.2575 0.30137 0.19953 0.0
H657 H 0.28453 0.35238 0.17937 0.0
C658 C 0.74332 0.82267 0.09451 0.0
C659 C 0.75927 0.84307 0.12281 0.0
C660 C 0.72746 0.7643 0.15296 0.0
C661 C 0.70915 0.74742 0.12517 0.0
N662 N 0.69551 0.76864 0.07034 0.0
N663 N 0.76334 0.84108 0.1796 0.0
C664 C 0.71603 0.77859 0.09609 0.0
C665 C 0.75015 0.81649 0.15229 0.0
N666 N 0.75472 0.84459 0.06601 0.0
N667 N 0.72421 0.72852 0.17961 0.0
H668 H 0.78017 0.87923 0.17979 0.0
H669 H 0.75524 0.82758 0.20203 0.0
H670 H 0.70899 0.68824 0.18022 0.0
H671 H 0.73915 0.73469 0.19987 0.0
H672 H 0.74746 0.82509 0.04442 0.0
H673 H 0.77304 0.88017 0.06401 0.0
H674 H 0.69659 0.79559 0.04981 0.0
H675 H 0.67557 0.73641 0.07031 0.0
C676 C 0.26135 0.77513 0.33856 0.0
C677 C 0.26576 0.73599 0.36542 0.0
C678 C 0.22114 0.79332 0.39378 0.0
C679 C 0.21543 0.83063 0.36636 0.0
N680 N 0.22783 0.85544 0.31195 0.0
N681 N 0.24761 0.70043 0.41662 0.0
C682 C 0.23491 0.82096 0.33851 0.0
C683 C 0.24487 0.74282 0.39244 0.0
N684 N 0.28322 0.76943 0.31348 0.0
N685 N 0.20428 0.80674 0.4212 0.0
H686 H 0.26495 0.66317 0.4162 0.0
H687 H 0.23106 0.69873 0.43586 0.0
H688 H 0.18654 0.84285 0.42307 0.0
H689 H 0.20973 0.78569 0.44285 0.0
H690 H 0.28457 0.80135 0.2949 0.0
H691 H 0.30128 0.73349 0.31182 0.0
H692 H 0.23781 0.84562 0.28973 0.0
H693 H 0.21075 0.89311 0.31182 0.0
C694 C 0.74921 0.25225 0.40089 0.0
C695 C 0.76363 0.2321 0.37187 0.0
C696 C 0.7281 0.30744 0.343 0.0
C697 C 0.71187 0.32497 0.37151 0.0
N698 N 0.70106 0.30173 0.42654 0.0
N699 N 0.75829 0.22583 0.31516 0.0
C700 C 0.72074 0.29399 0.40024 0.0
C701 C 0.75027 0.25508 0.34286 0.0
N702 N 0.76308 0.23352 0.42909 0.0
N703 N 0.72313 0.34203 0.31618 0.0
H704 H 0.7732 0.1852 0.31447 0.0
H705 H 0.74698 0.23753 0.29355 0.0
H706 H 0.70819 0.38252 0.31591 0.0
H707 H 0.73678 0.33454 0.29539 0.0
H708 H 0.75616 0.25313 0.45067 0.0
H709 H 0.78314 0.20154 0.43105 0.0
H710 H 0.70385 0.2748 0.44696 0.0
H711 H 0.67983 0.33098 0.42695 0.0
C712 C 0.71739 0.77873 0.89545 0.0
C713 C 0.71215 0.73889 0.86896 0.0
C714 C 0.75518 0.79747 0.83886 0.0
C715 C 0.76176 0.83489 0.86581 0.0
N716 N 0.75268 0.85819 0.92077 0.0
N717 N 0.73058 0.70129 0.81828 0.0
C718 C 0.74373 0.8249 0.89438 0.0
C719 C 0.73228 0.7459 0.84137 0.0
N720 N 0.69662 0.77367 0.92129 0.0
N721 N 0.77085 0.81157 0.81085 0.0
H722 H 0.71532 0.66127 0.82045 0.0
H723 H 0.74672 0.70032 0.79872 0.0
H724 H 0.78806 0.84885 0.80845 0.0
H725 H 0.76472 0.79 0.78951 0.0
H726 H 0.69582 0.80665 0.93935 0.0
H727 H 0.6791 0.73735 0.92422 0.0
H728 H 0.74403 0.84746 0.9434 0.0
H729 H 0.77031 0.89511 0.92027 0.0
C730 C 0.243 0.32721 0.84757 0.0
C731 C 0.26177 0.33609 0.87598 0.0
C732 C 0.22804 0.25372 0.90194 0.0
C733 C 0.21066 0.24293 0.87296 0.0
N734 N 0.20362 0.2623 0.81726 0.0
N735 N 0.26713 0.31952 0.93214 0.0
C736 C 0.21875 0.27772 0.84546 0.0
C737 C 0.25287 0.30271 0.90383 0.0
N738 N 0.2471 0.36902 0.82336 0.0
N739 N 0.22143 0.21554 0.92721 0.0
H740 H 0.28511 0.35547 0.93439 0.0
H741 H 0.25929 0.30166 0.95384 0.0
H742 H 0.20352 0.17906 0.92617 0.0
H743 H 0.23515 0.21663 0.94838 0.0
H744 H 0.23249 0.36889 0.80268 0.0
H745 H 0.26276 0.40851 0.82567 0.0
H746 H 0.21061 0.28183 0.79566 0.0
H747 H 0.1859 0.22572 0.81502 0.0
C748 C 0.73531 0.31584 0.65401 0.0
C749 C 0.71442 0.32468 0.62676 0.0
C750 C 0.74615 0.24256 0.59877 0.0
C751 C 0.76826 0.23694 0.62521 0.0
N752 N 0.78601 0.2681 0.67747 0.0
N753 N 0.70182 0.30198 0.57191 0.0
C754 C 0.76328 0.27327 0.65281 0.0
C755 C 0.72037 0.28962 0.59872 0.0
N756 N 0.72832 0.34838 0.68103 0.0
N757 N 0.74964 0.20212 0.57395 0.0
H758 H 0.68217 0.33476 0.57098 0.0
H759 H 0.7074 0.28332 0.54983 0.0
H760 H 0.76855 0.1675 0.57335 0.0
H761 H 0.73236 0.19912 0.55515 0.0
H762 H 0.73944 0.33884 0.70293 0.0
H763 H 0.71031 0.3844 0.68177 0.0
H764 H 0.78686 0.2985 0.69664 0.0
H765 H 0.80519 0.23403 0.67829 0.0
C766 C 0.22135 0.79362 0.59443 0.0
C767 C 0.2157 0.82892 0.62242 0.0
C768 C 0.25363 0.75856 0.65155 0.0
C769 C 0.26374 0.72965 0.6229 0.0
N770 N 0.2587 0.72337 0.5659 0.0
N771 N 0.23191 0.85237 0.67609 0.0
C772 C 0.24784 0.74769 0.59397 0.0
C773 C 0.23345 0.81343 0.65055 0.0
N774 N 0.2007 0.80216 0.56861 0.0
N775 N 0.26294 0.73271 0.67987 0.0
H776 H 0.21863 0.89477 0.67547 0.0
H777 H 0.24688 0.84612 0.69636 0.0
H778 H 0.27667 0.69095 0.68129 0.0
H779 H 0.25378 0.74866 0.70151 0.0
H780 H 0.20051 0.77231 0.54917 0.0
H781 H 0.18193 0.83652 0.56758 0.0
H782 H 0.2509 0.74086 0.544 0.0
H783 H 0.27725 0.68859 0.56406 0.0
C784 C 0.11859 0.06846 0.27103 0.0
C785 C 0.1184 1.00165 0.27263 0.0
C786 C 0.11308 0.99738 0.21489 0.0
C787 C 0.11705 0.06372 0.21325 0.0
N788 N 0.13048 0.16087 0.23958 0.0
N789 N 0.12193 0.90259 0.24551 0.0
C790 C 0.12155 0.0989 0.24127 0.0
C791 C 0.11722 0.96605 0.24441 0.0
N792 N 0.11493 0.10331 0.29784 0.0
N793 N 0.10445 0.96423 0.18842 0.0
H794 H 0.12573 0.87788 0.26652 0.0
H795 H 0.12534 0.87516 0.22544 0.0
H796 H 0.10124 0.98494 0.16634 0.0
H797 H 0.09744 0.91709 0.18885 0.0
H798 H 0.11075 0.15152 0.29762 0.0
H799 H 0.11286 0.08374 0.32022 0.0
H800 H 0.13812 0.18699 0.25917 0.0
H801 H 0.13358 0.18486 0.21828 0.0
C802 C 0.83718 0.0975 0.24979 0.0
C803 C 0.85508 0.06863 0.27511 0.0
C804 C 0.87122 0.98172 0.24042 0.0
C805 C 0.85083 1.00773 0.21577 0.0
N806 N 0.80606 0.08072 0.20089 0.0
N807 N 0.88006 0.97402 0.29683 0.0
C808 C 0.83144 0.06306 0.22153 0.0
C809 C 0.86916 1.00774 0.27121 0.0
N810 N 0.82524 0.15736 0.2528 0.0
N811 N 0.89414 0.93484 0.23435 0.0
H812 H 0.87919 0.9912 0.31985 0.0
H813 H 0.88717 0.92703 0.29542 0.0
H814 H 0.89807 0.91637 0.2119 0.0
H815 H 0.91193 0.91905 0.25108 0.0
H816 H 0.81514 0.18289 0.23389 0.0
H817 H 0.82789 0.18323 0.27357 0.0
H818 H 0.78929 0.11773 0.20516 0.0
H819 H 0.79897 0.05357 0.18146 0.0
C820 C 0.88678 0.07865 0.73643 0.0
C821 C 0.85943 0.07201 0.71442 0.0
C822 C 0.82945 1.00182 0.75158 0.0
C823 C 0.85871 1.00314 0.77175 0.0
N824 N 0.91831 1.03035 0.7794 0.0
N825 N 0.80509 1.02463 0.69993 0.0
C826 C 0.88824 0.03811 0.76304 0.0
C827 C 0.83095 1.0324 0.72161 0.0
N828 N 0.91107 0.12429 0.73241 0.0
N829 N 0.79974 0.97395 0.76167 0.0
H830 H 0.80334 0.05106 0.67923 0.0
H831 H 0.78612 0.9903 0.70186 0.0
H832 H 0.79784 0.95082 0.78333 0.0
H833 H 0.77634 0.97743 0.7497 0.0
H834 H 0.92967 0.1348 0.74943 0.0
H835 H 0.91061 0.15576 0.71355 0.0
H836 H 0.94162 0.04998 0.77232 0.0
H837 H 0.92061 0.99868 0.79807 0.0
C838 C 0.08886 0.06942 0.75575 0.0
C839 C 0.11886 0.07371 0.77472 0.0
C840 C 0.14948 1.00583 0.73732 0.0
C841 C 0.11867 0.99896 0.71928 0.0
N842 N 0.05666 1.00869 0.71761 0.0
N843 N 0.17734 0.04261 0.78544 0.0
C844 C 0.08759 1.02576 0.73043 0.0
C845 C 0.1491 0.0408 0.76601 0.0
N846 N 0.06189 0.10873 0.76117 0.0
N847 N 0.17908 0.97826 0.72701 0.0
H848 H 0.17895 0.0718 0.80515 0.0
H849 H 0.19874 1.01388 0.78286 0.0
H850 H 0.17929 0.94614 0.70849 0.0
H851 H 0.2034 0.98772 0.73625 0.0
H852 H 0.04038 0.11154 0.74644 0.0
H853 H 0.06313 0.14394 0.77813 0.0
H854 H 0.03315 1.02159 0.72739 0.0
H855 H 0.05414 0.97747 0.69891 0.0
C856 C 0.64541 0.51751 0.26202 0.0
C857 C 0.61435 0.49967 0.27716 0.0
C858 C 0.58219 0.54966 0.23385 0.0
C859 C 0.61326 0.57549 0.22174 0.0
N860 N 0.67339 0.59758 0.23112 0.0
N861 N 0.55275 0.51535 0.28093 0.0
C862 C 0.64455 0.56366 0.23801 0.0
C863 C 0.58249 0.52035 0.26412 0.0
N864 N 0.67571 0.48893 0.26974 0.0
N865 N 0.5528 0.54977 0.21613 0.0
H866 H 0.55211 0.49863 0.30399 0.0
H867 H 0.52955 0.53477 0.27325 0.0
H868 H 0.55201 0.56671 0.19312 0.0
H869 H 0.53043 0.52649 0.22304 0.0
H870 H 0.69854 0.49727 0.25756 0.0
H871 H 0.67691 0.45142 0.2855 0.0
H872 H 0.6962 0.59365 0.24407 0.0
H873 H 0.67301 0.63487 0.21516 0.0
C874 C 0.32865 0.56021 0.25861 0.0
C875 C 0.36008 0.56585 0.27566 0.0
C876 C 0.38988 0.50551 0.23451 0.0
C877 C 0.35804 0.49635 0.21853 0.0
N878 N 0.29646 0.50792 0.21678 0.0
N879 N 0.42012 0.54006 0.28167 0.0
C880 C 0.32723 0.52198 0.23097 0.0
C881 C 0.39054 0.53732 0.2641 0.0
N882 N 0.30023 0.59186 0.2688 0.0
N883 N 0.41975 0.486 0.22075 0.0
H884 H 0.42237 0.56715 0.30201 0.0
H885 H 0.44191 0.51339 0.27703 0.0
H886 H 0.4202 0.46007 0.19996 0.0
H887 H 0.44418 0.49842 0.22882 0.0
H888 H 0.27743 0.59532 0.25592 0.0
H889 H 0.30014 0.61876 0.28934 0.0
H890 H 0.2726 0.51965 0.2261 0.0
H891 H 0.29457 0.47981 0.19669 0.0
C892 C 0.39032 0.52328 0.76483 0.0
C893 C 0.3591 0.49975 0.77761 0.0
C894 C 0.32762 0.5471 0.73328 0.0
C895 C 0.35918 0.56325 0.71838 0.0
N896 N 0.42074 0.54749 0.71675 0.0
N897 N 0.29916 0.47547 0.76895 0.0
C898 C 0.39069 0.54612 0.73325 0.0
C899 C 0.32803 0.50775 0.76038 0.0
N900 N 0.41935 0.52639 0.78302 0.0
N901 N 0.29718 0.57056 0.72224 0.0
H902 H 0.29927 0.4428 0.78727 0.0
H903 H 0.2766 0.47533 0.75551 0.0
H904 H 0.29572 0.60125 0.70316 0.0
H905 H 0.27395 0.56487 0.73414 0.0
H906 H 0.44195 0.54799 0.77541 0.0
H907 H 0.41955 0.51407 0.80682 0.0
H908 H 0.44393 0.5307 0.72593 0.0
H909 H 0.42149 0.55733 0.69268 0.0
C910 C 0.64305 0.55533 0.76102 0.0
C911 C 0.61155 0.56869 0.77621 0.0
C912 C 0.58043 0.51283 0.73386 0.0
C913 C 0.61256 0.49396 0.72094 0.0
N914 N 0.674 0.48434 0.72733 0.0
N915 N 0.54963 0.55813 0.77807 0.0
C916 C 0.6437 0.51145 0.7361 0.0
C917 C 0.57995 0.5472 0.76284 0.0
N918 N 0.67231 0.5867 0.76965 0.0
N919 N 0.5505 0.49975 0.71807 0.0
H920 H 0.54786 0.58507 0.79846 0.0
H921 H 0.52635 0.53723 0.7718 0.0
H922 H 0.54952 0.47309 0.69752 0.0
H923 H 0.52675 0.5188 0.72397 0.0
H924 H 0.69546 0.58294 0.75748 0.0
H925 H 0.6722 0.62218 0.78655 0.0
H926 H 0.69707 0.49101 0.73956 0.0
H927 H 0.67515 0.44959 0.71012 0.0
C928 C 0.07554 0.17833 0.97824 0.0
C929 C 0.10344 0.20644 0.96212 0.0
C930 C 0.12661 0.24595 0.01228 0.0
C931 C 0.10328 0.20624 0.02856 0.0
N932 N 0.05155 0.14384 0.02828 0.0
N933 N 0.15399 0.27168 0.96238 0.0
C934 C 0.07619 0.17587 0.01182 0.0
C935 C 0.12819 0.24271 0.9787 0.0
N936 N 0.04858 0.15431 0.96122 0.0
N937 N 0.14696 0.28677 0.02875 0.0
H938 H 0.1545 0.27317 0.93775 0.0
H939 H 0.17548 0.29198 0.97304 0.0
H940 H 0.14621 0.2908 0.05324 0.0
H941 H 0.1624 0.32062 0.01812 0.0
H942 H 0.02622 0.13628 0.97116 0.0
H943 H 0.04747 0.15683 0.93659 0.0
H944 H 0.03341 0.11422 0.018 0.0
H945 H 0.04955 0.14651 0.05282 0.0
C946 C 0.84578 0.84494 0.97774 0.0
C947 C 0.86493 0.89069 0.96091 0.0
C948 C 0.88338 0.93919 0.01047 0.0
C949 C 0.86448 0.89339 0.02754 0.0
N950 N 0.83282 0.79635 0.02846 0.0
N951 N 0.90888 0.97042 0.96082 0.0
C952 C 0.8475 0.84384 0.01145 0.0
C953 C 0.88615 0.93398 0.97721 0.0
N954 N 0.82506 0.80427 0.96149 0.0
N955 N 0.89699 0.98992 0.02577 0.0
H956 H 0.91111 0.96839 0.93635 0.0
H957 H 0.92771 0.99802 0.97157 0.0
H958 H 0.89567 0.99564 0.05013 0.0
H959 H 0.9073 1.0287 0.01417 0.0
H960 H 0.80736 0.77446 0.9722 0.0
H961 H 0.82454 0.8024 0.93685 0.0
H962 H 0.82234 0.75618 0.01834 0.0
H963 H 0.83345 0.79503 0.05312 0.0
C964 C 0.15074 0.92139 0.47717 0.0
C965 C 0.12364 0.89007 0.46087 0.0
C966 C 0.09699 0.86244 0.51169 0.0
C967 C 0.12397 0.89448 0.52775 0.0
N968 N 0.18089 0.94011 0.52621 0.0
N969 N 0.07479 0.8203 0.46222 0.0
C970 C 0.15217 0.91936 0.51058 0.0
C971 C 0.09821 0.85653 0.47805 0.0
N972 N 0.17467 0.95534 0.46079 0.0
N973 N 0.06913 0.84144 0.52829 0.0
H974 H 0.074 0.81715 0.43765 0.0
H975 H 0.05782 0.78971 0.47337 0.0
H976 H 0.06734 0.84485 0.5528 0.0
H977 H 0.04674 0.8244 0.51777 0.0
H978 H 0.19134 0.98752 0.47129 0.0
H979 H 0.17685 0.95419 0.43636 0.0
H980 H 0.20405 0.95057 0.51507 0.0
H981 H 0.18286 0.94158 0.55067 0.0
C982 C 0.90115 0.18184 0.51178 0.0
C983 C 0.87274 0.20742 0.52787 0.0
C984 C 0.8491 0.24399 0.47724 0.0
C985 C 0.87275 0.20485 0.46124 0.0
N986 N 0.92047 0.13226 0.46394 0.0
N987 N 0.81961 0.26518 0.52658 0.0
C988 C 0.89892 0.17329 0.47865 0.0
C989 C 0.84684 0.23999 0.51081 0.0
N990 N 0.9301 0.16527 0.52814 0.0
N991 N 0.8288 0.28433 0.46047 0.0
H992 H 0.81821 0.26539 0.55121 0.0
H993 H 0.79785 0.28301 0.51526 0.0
H994 H 0.83001 0.28813 0.43593 0.0
H995 H 0.81307 0.31764 0.47105 0.0
H996 H 0.95278 0.15131 0.51716 0.0
H997 H 0.93257 0.17197 0.55246 0.0
H998 H 0.93738 0.10294 0.47614 0.0
H999 H 0.91949 0.12369 0.43976 0.0
C1000 C 0.64547 0.65653 0.0158 0.0
C1001 C 0.61729 0.6841 0.0319 0.0
C1002 C 0.59272 0.71851 0.98102 0.0
C1003 C 0.61841 0.68358 0.96509 0.0
N1004 N 0.67026 0.62141 0.96677 0.0
N1005 N 0.56362 0.74033 0.0306 0.0
C1006 C 0.64532 0.65406 0.98238 0.0
C1007 C 0.59113 0.71611 0.01476 0.0
N1008 N 0.67284 0.63327 0.03251 0.0
N1009 N 0.56945 0.7527 0.96389 0.0
H1010 H 0.56175 0.73975 0.05518 0.0
H1011 H 0.54166 0.75794 0.0196 0.0
H1012 H 0.56882 0.75298 0.93927 0.0
H1013 H 0.5522 0.78414 0.97383 0.0
H1014 H 0.69632 0.62126 0.02249 0.0
H1015 H 0.67333 0.63006 0.05695 0.0
H1016 H 0.6869 0.58967 0.97757 0.0
H1017 H 0.67365 0.62398 0.94247 0.0
C1018 C 0.35077 0.32214 0.98153 0.0
C1019 C 0.37207 0.36465 0.96462 0.0
C1020 C 0.39674 0.40356 0.01439 0.0
C1021 C 0.37171 0.36862 0.03122 0.0
N1022 N 0.32696 0.29066 0.03233 0.0
N1023 N 0.42429 0.42522 0.96413 0.0
C1024 C 0.34975 0.32576 0.01523 0.0
C1025 C 0.39795 0.3989 0.98092 0.0
N1026 N 0.33243 0.27749 0.96562 0.0
N1027 N 0.41798 0.44394 0.03029 0.0
H1028 H 0.4265 0.41962 0.93973 0.0
H1029 H 0.44564 0.44676 0.97435 0.0
H1030 H 0.4187 0.44672 0.05487 0.0
H1031 H 0.43375 0.47679 0.01929 0.0
H1032 H 0.31845 0.24197 0.97653 0.0
H1033 H 0.33335 0.27223 0.94122 0.0
H1034 H 0.30711 0.26429 0.02246 0.0
H1035 H 0.32725 0.2896 0.05698 0.0
C1036 C 0.64779 0.40828 0.48235 0.0
C1037 C 0.62031 0.37938 0.46555 0.0
C1038 C 0.59554 0.34281 0.51574 0.0
C1039 C 0.6202 0.37959 0.53233 0.0
N1040 N 0.67058 0.44635 0.53181 0.0
N1041 N 0.56762 0.31967 0.46547 0.0
C1042 C 0.64681 0.41118 0.51572 0.0
C1043 C 0.59445 0.34547 0.48199 0.0
N1044 N 0.67526 0.43264 0.46637 0.0
N1045 N 0.57268 0.30675 0.53225 0.0
H1046 H 0.5662 0.32022 0.44086 0.0
H1047 H 0.54578 0.30066 0.47595 0.0
H1048 H 0.57159 0.30626 0.55684 0.0
H1049 H 0.55631 0.27408 0.52181 0.0
H1050 H 0.69834 0.44577 0.47707 0.0
H1051 H 0.67631 0.43532 0.44193 0.0
H1052 H 0.68665 0.47926 0.52121 0.0
H1053 H 0.67342 0.44501 0.55621 0.0
C1054 C 0.39652 0.66789 0.5138 0.0
C1055 C 0.36883 0.69624 0.53009 0.0
C1056 C 0.34316 0.72906 0.47954 0.0
C1057 C 0.36826 0.69314 0.46334 0.0
N1058 N 0.41918 0.62869 0.46434 0.0
N1059 N 0.32246 0.77079 0.52943 0.0
C1060 C 0.39555 0.66388 0.48024 0.0
C1061 C 0.34422 0.73244 0.51325 0.0
N1062 N 0.42419 0.64631 0.53069 0.0
N1063 N 0.31748 0.75752 0.46261 0.0
H1064 H 0.32305 0.77489 0.55394 0.0
H1065 H 0.3057 0.80242 0.51874 0.0
H1066 H 0.3172 0.7588 0.43796 0.0
H1067 H 0.29585 0.77792 0.47265 0.0
H1068 H 0.44675 0.62977 0.52058 0.0
H1069 H 0.42589 0.6507 0.55521 0.0
H1070 H 0.4371 0.59958 0.47528 0.0
H1071 H 0.41986 0.62589 0.4398 0.0
C1072 C 0.9738 0.9983 0.09877 0.0
C1073 C 0.95173 1.01297 0.12431 0.0
C1074 C -0.00461 0.08153 0.14762 0.0
C1075 C 0.01782 0.06624 0.12236 0.0
N1076 N 0.03025 1.0084 0.07481 0.0
N1077 N 0.94269 0.05826 0.17572 0.0
C1078 C 0.00757 1.02397 0.09818 0.0
C1079 C 0.96281 0.05181 0.14947 0.0
N1080 N 0.96225 0.95983 0.07514 0.0
N1081 N 0.00513 0.12475 0.16979 0.0
H1082 H 0.91844 0.03788 0.17776 0.0
H1083 H 0.95084 0.07954 0.19656 0.0
H1084 H 0.02969 0.14409 0.17106 0.0
H1085 H 0.98835 0.14434 0.1861 0.0
H1086 H 0.97503 0.95241 0.05395 0.0
H1087 H 0.93889 0.93588 0.07632 0.0
H1088 H 0.02609 0.97319 0.05829 0.0
H1089 H 0.05428 1.02958 0.07225 0.0
C1090 C 0.9867 0.09236 0.38815 0.0
C1091 C 0.9619 0.07501 0.36494 0.0
C1092 C 0.00266 1.00206 0.34107 0.0
C1093 C 0.02663 1.01634 0.36547 0.0
N1094 N 0.04038 0.06755 0.41471 0.0
N1095 N 0.95064 1.03215 0.31341 0.0
C1096 C 0.01853 0.05996 0.38952 0.0
C1097 C 0.97094 1.03456 0.33985 0.0
N1098 N 0.98064 0.14168 0.40792 0.0
N1099 N 0.00998 0.95695 0.31922 0.0
H1100 H 0.92888 0.06006 0.31066 0.0
H1101 H 0.95723 1.00866 0.29278 0.0
H1102 H 0.03372 0.93474 0.31777 0.0
H1103 H -0.00821 0.93842 0.30368 0.0
H1104 H -0.00079 0.16104 0.4228 0.0
H1105 H 0.95812 0.16789 0.40745 0.0
H1106 H 0.03407 0.09235 0.43501 0.0
H1107 H 0.06392 0.04448 0.41673 0.0
C1108 C -0.00941 0.09461 0.84735 0.0
C1109 C 0.01672 0.07322 0.86845 0.0
C1110 C 0.9773 0.99265 0.88812 0.0
C1111 C 0.95053 1.01893 0.86957 0.0
N1112 N 0.92961 0.10675 0.83885 0.0
N1113 N 0.03005 1.01473 0.91623 0.0
C1114 C 0.9564 0.07402 0.85176 0.0
C1115 C 0.0088 1.02575 0.89098 0.0
N1116 N -0.00166 0.13109 0.82178 0.0
N1117 N 0.97277 0.9365 0.90313 0.0
H1118 H 0.05185 0.0416 0.9211 0.0
H1119 H 0.02361 0.98424 0.93457 0.0
H1120 H 0.94972 0.91142 0.9023 0.0
H1121 H -0.00715 0.91271 0.91431 0.0
H1122 H 0.98036 0.14219 0.80427 0.0
H1123 H 0.02327 0.14383 0.81583 0.0
H1124 H 0.93275 0.15055 0.82824 0.0
H1125 H 0.90404 0.09313 0.84122 0.0
C1126 C 0.98435 0.07884 0.64709 0.0
C1127 C 0.96252 0.0709 0.62044 0.0
C1128 C 0.00865 1.01355 0.59377 0.0
C1129 C 0.03104 1.02755 0.61942 0.0
N1130 N 0.0426 0.09192 0.66533 0.0
N1131 N 0.95659 0.04057 0.56542 0.0
C1132 C 0.01982 0.06653 0.64428 0.0
C1133 C 0.97528 0.04075 0.59288 0.0
N1134 N 0.97091 0.09342 0.67589 0.0
N1135 N 0.01941 0.97503 0.57001 0.0
H1136 H 0.93229 0.06041 0.56316 0.0
H1137 H 0.96645 1.02572 0.54386 0.0
H1138 H 0.04474 0.95951 0.56801 0.0
H1139 H 0.00283 0.95625 0.55306 0.0
H1140 H 0.98562 0.09472 0.69656 0.0
H1141 H 0.94449 0.09525 0.67972 0.0
H1142 H 0.03534 0.12554 0.68186 0.0
H1143 H 0.06899 0.08382 0.66477 0.0
C1144 C 0.4831 0.47226 0.11038 0.0
C1145 C 0.45557 0.50192 0.12631 0.0
C1146 C 0.4941 0.58527 0.14435 0.0
C1147 C 0.52105 0.55843 0.12625 0.0
N1148 N 0.53925 0.4844 0.08661 0.0
N1149 N 0.43309 0.59079 0.15473 0.0
C1150 C 0.51514 0.50386 0.10789 0.0
C1151 C 0.4605 0.55985 0.14201 0.0
N1152 N 0.47867 0.41405 0.09751 0.0
N1153 N 0.5008 0.63298 0.16508 0.0
H1154 H 0.40838 0.57207 0.1555 0.0
H1155 H 0.43429 0.63699 0.16255 0.0
H1156 H 0.525 0.65313 0.16816 0.0
H1157 H 0.48313 0.64879 0.18166 0.0
H1158 H 0.49891 0.38703 0.08907 0.0
H1159 H 0.45508 0.39069 0.09715 0.0
H1160 H 0.53488 0.44888 0.07024 0.0
H1161 H 0.56248 0.50779 0.08294 0.0
C1162 C 0.48419 0.59414 0.3865 0.0
C1163 C 0.4564 0.56132 0.37225 0.0
C1164 C 0.49532 0.47839 0.35546 0.0
C1165 C 0.52263 0.50822 0.37218 0.0
N1166 N 0.54087 0.58638 0.41004 0.0
N1167 N 0.43394 0.46617 0.34891 0.0
C1168 C 0.51657 0.56408 0.38941 0.0
C1169 C 0.46142 0.50138 0.35873 0.0
N1170 N 0.47969 0.65377 0.39746 0.0
N1171 N 0.50182 0.43032 0.335 0.0
H1172 H 0.40862 0.48185 0.34956 0.0
H1173 H 0.436 0.41921 0.3425 0.0
H1174 H 0.52633 0.41273 0.33071 0.0
H1175 H 0.48337 0.41222 0.31956 0.0
H1176 H 0.50004 0.68245 0.40453 0.0
H1177 H 0.4559 0.67628 0.39759 0.0
H1178 H 0.53642 0.62335 0.4255 0.0
H1179 H 0.56423 0.56389 0.41429 0.0
C1180 C 0.46639 0.54278 0.89576 0.0
C1181 C 0.45736 0.49692 0.8729 0.0
C1182 C 0.51596 0.49793 0.85183 0.0
C1183 C 0.52421 0.54782 0.87274 0.0
N1184 N 0.51116 0.60695 0.9197 0.0
N1185 N 0.47169 0.43584 0.82671 0.0
C1186 C 0.50036 0.56777 0.89601 0.0
C1187 C 0.48175 0.47509 0.85061 0.0
N1188 N 0.44244 0.56211 0.91726 0.0
N1189 N 0.54081 0.47117 0.83347 0.0
H1190 H 0.44699 0.41734 0.82454 0.0
H1191 H 0.48684 0.42589 0.80713 0.0
H1192 H 0.56558 0.48893 0.83091 0.0
H1193 H 0.53755 0.42857 0.82188 0.0
H1194 H 0.44544 0.60066 0.93199 0.0
H1195 H 0.41859 0.54035 0.92003 0.0
H1196 H 0.49624 0.62017 0.93887 0.0
H1197 H 0.53644 0.62293 0.92184 0.0
C1198 C 0.48277 0.58474 0.64553 0.0
C1199 C 0.45799 0.56198 0.62357 0.0
C1200 C 0.49984 0.48812 0.60207 0.0
C1201 C 0.5247 0.51094 0.62405 0.0
N1202 N 0.54215 0.58944 0.66232 0.0
N1203 N 0.44433 0.50296 0.57664 0.0
C1204 C 0.51696 0.56204 0.64429 0.0
C1205 C 0.46679 0.51633 0.60075 0.0
N1206 N 0.47329 0.62583 0.6687 0.0
N1207 N 0.50807 0.44036 0.58196 0.0
H1208 H 0.42021 0.52391 0.57438 0.0
H1209 H 0.45042 0.47527 0.55726 0.0
H1210 H 0.53313 0.42427 0.57877 0.0
H1211 H 0.48995 0.41529 0.5689 0.0
H1212 H 0.48874 0.63687 0.68809 0.0
H1213 H 0.44882 0.6453 0.67036 0.0
H1214 H 0.53926 0.63266 0.67336 0.0
H1215 H 0.56676 0.57125 0.66532 0.0
C1216 C 0.10995 0.67011 0.0993 0.0
C1217 C 0.12734 0.70637 0.12254 0.0
C1218 C 0.13239 0.61333 0.15662 0.0
C1219 C 0.11253 0.57845 0.13451 0.0
N1220 N 0.07795 0.57538 0.08706 0.0
N1221 N 0.15116 0.71566 0.17501 0.0
C1222 C 0.10011 0.60734 0.10642 0.0
C1223 C 0.1375 0.67881 0.1517 0.0
N1224 N 0.10367 0.69522 0.07007 0.0
N1225 N 0.14718 0.58339 0.18184 0.0
H1226 H 0.15571 0.76352 0.17207 0.0
H1227 H 0.15558 0.70007 0.198 0.0
H1228 H 0.14375 0.53569 0.18632 0.0
H1229 H 0.16498 0.60446 0.19694 0.0
H1230 H 0.09468 0.66919 0.05095 0.0
H1231 H 0.11003 0.74126 0.0641 0.0
H1232 H 0.06489 0.596 0.06818 0.0
H1233 H 0.07039 0.5292 0.09129 0.0
C1234 C 0.86953 0.3993 0.10289 0.0
C1235 C 0.83982 0.37281 0.11711 0.0
C1236 C 0.82766 0.47286 0.1433 0.0
C1237 C 0.85601 0.5005 0.12737 0.0
N1238 N 0.90078 0.49359 0.08832 0.0
N1239 N 0.7876 0.38565 0.14689 0.0
C1240 C 0.8761 0.46466 0.10612 0.0
C1241 C 0.81799 0.41002 0.13619 0.0
N1242 N 0.89192 0.36158 0.08696 0.0
N1243 N 0.81072 0.50603 0.16602 0.0
H1244 H 0.78003 0.33946 0.14271 0.0
H1245 H 0.76869 0.41229 0.15783 0.0
H1246 H 0.81682 0.55231 0.17168 0.0
H1247 H 0.7924 0.48644 0.18098 0.0
H1248 H 0.91596 0.3764 0.07913 0.0
H1249 H 0.88759 0.31381 0.08351 0.0
H1250 H 0.91376 0.47175 0.06993 0.0
H1251 H 0.90645 0.54125 0.0902 0.0
C1252 C 0.1478 0.39941 0.34105 0.0
C1253 C 0.13633 0.36692 0.3684 0.0
C1254 C 0.10548 0.46107 0.38584 0.0
C1255 C 0.11904 0.49478 0.35973 0.0
N1256 N 0.15719 0.49955 0.31506 0.0
N1257 N 0.10905 0.36896 0.41945 0.0
C1258 C 0.14142 0.46491 0.33806 0.0
C1259 C 0.11647 0.39838 0.39154 0.0
N1260 N 0.16377 0.36714 0.31742 0.0
N1261 N 0.08135 0.48845 0.40471 0.0
H1262 H 0.11655 0.32308 0.42445 0.0
H1263 H 0.09798 0.39148 0.43867 0.0
H1264 H 0.07314 0.5346 0.40166 0.0
H1265 H 0.0675 0.46417 0.42185 0.0
H1266 H 0.16941 0.38648 0.29542 0.0
H1267 H 0.16899 0.31928 0.3188 0.0
H1268 H 0.17668 0.48226 0.30073 0.0
H1269 H 0.15273 0.54735 0.31189 0.0
C1270 C 0.8823 0.63004 0.34032 0.0
C1271 C 0.85713 0.58354 0.34678 0.0
C1272 C 0.81609 0.66522 0.36203 0.0
C1273 C 0.8426 0.71077 0.35925 0.0
N1274 N 0.90218 0.73619 0.34949 0.0
N1275 N 0.80117 0.55511 0.36673 0.0
C1276 C 0.87603 0.69318 0.34922 0.0
C1277 C 0.82421 0.60065 0.35829 0.0
N1278 N 0.91195 0.61394 0.32509 0.0
N1279 N 0.78303 0.68394 0.36758 0.0
H1280 H 0.80602 0.50739 0.36392 0.0
H1281 H 0.77831 0.56421 0.37858 0.0
H1282 H 0.77622 0.73086 0.37042 0.0
H1283 H 0.76192 0.65383 0.3667 0.0
H1284 H 0.92964 0.6466 0.31665 0.0
H1285 H 0.91748 0.56807 0.31833 0.0
H1286 H 0.92789 0.72457 0.34597 0.0
H1287 H 0.8987 0.78299 0.35572 0.0
C1288 C 0.81564 0.41219 0.85871 0.0
C1289 C 0.84028 0.3695 0.87119 0.0
C1290 C 0.88358 0.45378 0.87278 0.0
C1291 C 0.85835 0.49721 0.86225 0.0
N1292 N 0.79918 0.52057 0.84969 0.0
N1293 N 0.89573 0.35148 0.89536 0.0
C1294 C 0.82398 0.4772 0.85661 0.0
C1295 C 0.87375 0.39083 0.87966 0.0
N1296 N 0.78476 0.39018 0.84769 0.0
N1297 N 0.91716 0.47243 0.87554 0.0
H1298 H 0.88943 0.30524 0.90097 0.0
H1299 H 0.91902 0.36593 0.90522 0.0
H1300 H 0.92516 0.51853 0.87175 0.0
H1301 H 0.93747 0.44154 0.87939 0.0
H1302 H 0.76714 0.41756 0.83525 0.0
H1303 H 0.77776 0.34301 0.84872 0.0
H1304 H 0.77299 0.51024 0.84884 0.0
H1305 H 0.80449 0.56827 0.84717 0.0
C1306 C 0.14333 0.61552 0.84537 0.0
C1307 C 0.11479 0.58723 0.86074 0.0
C1308 C 0.1009 0.68757 0.88599 0.0
C1309 C 0.13078 0.71465 0.87235 0.0
N1310 N 0.18323 0.70315 0.84279 0.0
N1311 N 0.06937 0.59276 0.89921 0.0
C1312 C 0.15282 0.6782 0.8531 0.0
C1313 C 0.09437 0.62233 0.88204 0.0
N1314 N 0.16065 0.58309 0.82261 0.0
N1315 N 0.07833 0.72465 0.90209 0.0
H1316 H 0.06367 0.54522 0.89673 0.0
H1317 H 0.0561 0.61387 0.91763 0.0
H1318 H 0.08264 0.77225 0.9061 0.0
H1319 H 0.05418 0.70957 0.9095 0.0
H1320 H 0.17917 0.60315 0.80803 0.0
H1321 H 0.1547 0.53694 0.81656 0.0
H1322 H 0.20229 0.67706 0.83173 0.0
H1323 H 0.19064 0.74927 0.84737 0.0
C1324 C 0.88275 0.69367 0.61965 0.0
C1325 C 0.84781 0.71257 0.61703 0.0
C1326 C 0.8292 0.60309 0.62343 0.0
C1327 C 0.86392 0.58524 0.62888 0.0
N1328 N 0.92337 0.61412 0.63669 0.0
N1329 N 0.7874 0.68738 0.62071 0.0
C1330 C 0.89062 0.63074 0.62824 0.0
C1331 C 0.82089 0.66778 0.62002 0.0
N1332 N 0.90845 0.73539 0.61283 0.0
N1333 N 0.80429 0.55799 0.62083 0.0
H1334 H 0.78032 0.73428 0.61829 0.0
H1335 H 0.76679 0.65811 0.62615 0.0
H1336 H 0.80936 0.51031 0.6237 0.0
H1337 H 0.7792 0.56715 0.61344 0.0
H1338 H 0.93424 0.72285 0.61094 0.0
H1339 H 0.90377 0.7818 0.60635 0.0
H1340 H 0.94314 0.64638 0.6403 0.0
H1341 H 0.93028 0.5683 0.64254 0.0
C1342 C 0.16802 0.41378 0.63549 0.0
C1343 C 0.14473 0.37063 0.62128 0.0
C1344 C 0.10146 0.45418 0.61618 0.0
C1345 C 0.12557 0.49815 0.62834 0.0
N1346 N 0.18331 0.5225 0.6454 0.0
N1347 N 0.09172 0.35184 0.5929 0.0
C1348 C 0.15935 0.47869 0.63674 0.0
C1349 C 0.11207 0.39143 0.61023 0.0
N1350 N 0.19787 0.3923 0.64886 0.0
N1351 N 0.06816 0.47215 0.61088 0.0
H1352 H 0.09864 0.30578 0.58779 0.0
H1353 H 0.06939 0.36601 0.58123 0.0
H1354 H 0.05967 0.51808 0.61393 0.0
H1355 H 0.04836 0.44081 0.60569 0.0
H1356 H 0.21426 0.41998 0.66249 0.0
H1357 H 0.20504 0.34523 0.64849 0.0
H1358 H 0.20936 0.51261 0.64834 0.0
H1359 H 0.17764 0.57009 0.64738 0.0
C1360 C 0.62622 0.11439 0.16137 0.0
C1361 C 0.61324 0.0799 0.13522 0.0
C1362 C 0.61602 0.17441 0.10199 0.0
C1363 C 0.63119 0.20779 0.12753 0.0
N1364 N 0.65528 0.20828 0.1801 0.0
N1365 N 0.60036 0.07362 0.07954 0.0
C1366 C 0.63757 0.17738 0.15686 0.0
C1367 C 0.60945 0.10899 0.10519 0.0
N1368 N 0.6268 0.0874 0.19072 0.0
N1369 N 0.60693 0.20577 0.07499 0.0
H1370 H 0.59478 1.02587 0.08107 0.0
H1371 H 0.60089 0.09022 0.0564 0.0
H1372 H 0.61178 0.2534 0.07157 0.0
H1373 H 0.59228 0.18597 0.05691 0.0
H1374 H 0.63223 0.11194 0.21139 0.0
H1375 H 0.6194 0.04107 0.19479 0.0
H1376 H 0.66414 0.18684 0.20071 0.0
H1377 H 0.66345 0.25466 0.1778 0.0
C1378 C 0.3723 0.8866 0.09907 0.0
C1379 C 0.34766 0.85558 0.11829 0.0
C1380 C 0.34116 0.9509 0.15024 0.0
C1381 C 0.36382 0.98326 0.12957 0.0
N1382 N 0.3973 0.98527 0.0818 0.0
N1383 N 0.30484 0.85989 0.15923 0.0
C1384 C 0.37839 0.95198 0.10327 0.0
C1385 C 0.33103 0.88825 0.14309 0.0
N1386 N 0.39059 0.85306 0.0774 0.0
N1387 N 0.33011 0.97953 0.17722 0.0
H1388 H 0.29705 0.81385 0.15497 0.0
H1389 H 0.28904 0.88326 0.17511 0.0
H1390 H 0.33656 1.02559 0.18302 0.0
H1391 H 0.31678 0.95637 0.19507 0.0
H1392 H 0.41156 0.87106 0.06511 0.0
H1393 H 0.38651 0.8054 0.07337 0.0
H1394 H 0.40545 0.96708 0.0603 0.0
H1395 H 0.40268 1.03292 0.08434 0.0
C1396 C 0.64977 0.97055 0.36154 0.0
C1397 C 0.61455 0.98823 0.36099 0.0
C1398 C 0.59761 0.87925 0.3717 0.0
C1399 C 0.63265 0.86072 0.36986 0.0
N1400 N 0.69162 0.88657 0.35787 0.0
N1401 N 0.55466 0.95854 0.36011 0.0
C1402 C 0.65863 0.90584 0.36333 0.0
C1403 C 0.58838 0.94225 0.36447 0.0
N1404 N 0.67476 1.01577 0.3613 0.0
N1405 N 0.57328 0.83726 0.38163 0.0
H1406 H 0.54687 1.00429 0.35514 0.0
H1407 H 0.53468 0.92604 0.35878 0.0
H1408 H 0.57895 0.79081 0.3873 0.0
H1409 H 0.54803 0.84963 0.38683 0.0
H1410 H 0.70073 1.00652 0.36526 0.0
H1411 H 0.66927 0.0635 0.35959 0.0
H1412 H 0.71101 0.91621 0.34978 0.0
H1413 H 0.69902 0.83964 0.35885 0.0
C1414 C 0.39147 0.12325 0.36785 0.0
C1415 C 0.36478 0.07819 0.3644 0.0
C1416 C 0.32146 0.16141 0.36931 0.0
C1417 C 0.3481 0.20573 0.37517 0.0
N1418 N 0.40809 0.22715 0.38552 0.0
N1419 N 0.30449 0.05194 0.36677 0.0
C1420 C 0.38304 0.18615 0.37594 0.0
C1421 C 0.32978 0.09661 0.36659 0.0
N1422 N 0.42486 0.1063 0.36253 0.0
N1423 N 0.28835 0.18156 0.36513 0.0
H1424 H 0.30958 1.00419 0.36441 0.0
H1425 H 0.27883 0.06149 0.37182 0.0
H1426 H 0.28126 0.22856 0.36672 0.0
H1427 H 0.26836 0.15266 0.3575 0.0
H1428 H 0.44505 0.13832 0.36102 0.0
H1429 H 0.43211 0.06052 0.35714 0.0
H1430 H 0.43348 0.21403 0.38986 0.0
H1431 H 0.40296 0.2734 0.39182 0.0
C1432 C 0.31693 0.9021 0.86071 0.0
C1433 C 0.34389 0.86019 0.86888 0.0
C1434 C 0.38552 0.94685 0.86777 0.0
C1435 C 0.35905 0.98794 0.85737 0.0
N1436 N 0.30076 1.00352 0.83923 0.0
N1437 N 0.40449 0.83965 0.87555 0.0
C1438 C 0.32503 0.96524 0.85255 0.0
C1439 C 0.37841 0.88172 0.87099 0.0
N1440 N 0.28353 0.88182 0.86146 0.0
N1441 N 0.41712 0.97052 0.8758 0.0
H1442 H 0.40024 0.79177 0.87876 0.0
H1443 H 0.43045 0.85125 0.87367 0.0
H1444 H 0.42334 1.01795 0.87389 0.0
H1445 H 0.4363 0.94427 0.88683 0.0
H1446 H 0.26243 0.91157 0.85937 0.0
H1447 H 0.27674 0.8355 0.8664 0.0
H1448 H 0.27654 0.9881 0.832 0.0
H1449 H 0.30575 0.04999 0.83301 0.0
C1450 C 0.60353 0.18525 0.87744 0.0
C1451 C 0.63854 0.20411 0.87518 0.0
C1452 C 0.65552 0.09431 0.86702 0.0
C1453 C 0.62027 0.07652 0.8664 0.0
N1454 N 0.56039 0.10593 0.86619 0.0
N1455 N 0.69753 0.17843 0.86339 0.0
C1456 C 0.59417 0.1223 0.87024 0.0
C1457 C 0.6645 0.15906 0.86881 0.0
N1458 N 0.57936 0.22693 0.88768 0.0
N1459 N 0.68041 0.04911 0.86664 0.0
H1460 H 0.70504 0.22535 0.86434 0.0
H1461 H 0.71693 0.14889 0.85544 0.0
H1462 H 0.67477 1.00141 0.86487 0.0
H1463 H 0.70641 0.05828 0.87055 0.0
H1464 H 0.55417 0.21432 0.89313 0.0
H1465 H 0.58517 0.27325 0.89349 0.0
H1466 H 0.54045 0.13839 0.865 0.0
H1467 H 0.55245 0.06017 0.86141 0.0
C1468 C 0.33628 0.10102 0.65122 0.0
C1469 C 0.36316 0.07241 0.63385 0.0
C1470 C 0.3716 0.16972 0.60369 0.0
C1471 C 0.34681 0.19993 0.62292 0.0
N1472 N 0.30851 0.19746 0.66754 0.0
N1473 N 0.40957 0.0808 0.59646 0.0
C1474 C 0.32987 0.16636 0.64736 0.0
C1475 C 0.38171 0.10716 0.61087 0.0
N1476 N 0.3164 0.06532 0.67089 0.0
N1477 N 0.38465 0.20021 0.57791 0.0
H1478 H 0.41726 1.03465 0.60052 0.0
H1479 H 0.42661 0.10583 0.5823 0.0
H1480 H 0.37799 0.24609 0.57194 0.0
H1481 H 0.39984 0.1786 0.56094 0.0
H1482 H 0.29404 0.08151 0.68155 0.0
H1483 H 0.32082 1.0177 0.67477 0.0
H1484 H 0.2983 0.17748 0.68792 0.0
H1485 H 0.30298 0.24508 0.66526 0.0
C1486 C 0.62047 0.89116 0.59665 0.0
C1487 C 0.6386 0.85858 0.62083 0.0
C1488 C 0.63709 0.95248 0.65437 0.0
C1489 C 0.62082 0.98613 0.62945 0.0
N1490 N 0.60167 0.9912 0.57526 0.0
N1491 N 0.66884 0.85983 0.67067 0.0
C1492 C 0.61385 0.95646 0.6001 0.0
C1493 C 0.64826 0.88977 0.64914 0.0
N1494 N 0.60867 0.85915 0.5708 0.0
N1495 N 0.64089 0.97992 0.68336 0.0
H1496 H 0.67702 0.81365 0.66786 0.0
H1497 H 0.68 0.88195 0.6901 0.0
H1498 H 0.63366 1.02607 0.6879 0.0
H1499 H 0.64889 0.95586 0.70351 0.0
H1500 H 0.59196 0.87824 0.55408 0.0
H1501 H 0.61354 0.81166 0.56717 0.0
H1502 H 0.5996 0.97425 0.55228 0.0
H1503 H 0.59609 0.03885 0.57705 0.0
loop_
_geom_bond_atom_site_label_1
_geom_bond_atom_site_label_2
_geom_bond_distance
_geom_bond_site_symmetry_2
_ccdc_geom_bond_type
Dy0 O3 2.307 . S
Dy0 O5 2.395 . S
Dy0 O6 2.379 . S
Dy0 O8 2.339 . S
Dy0 O10 2.298 . S
Dy0 O14 2.275 . S
Dy0 C22 2.738 . S
Dy1 O4 2.298 . S
Dy1 O7 2.275 . S
Dy1 O9 2.307 . S
Dy1 O11 2.395 1_545 S
Dy1 O12 2.379 1_545 S
Dy1 O15 2.339 . S
Dy1 C31 2.738 1_545 S
C2 O14 1.254 . S
C2 O15 1.257 . S
O3 Dy0 2.307 . S
O3 C13 1.266 . S
O4 Dy1 2.298 . S
O4 C13 1.236 . S
O5 Dy0 2.395 . S
O5 C22 1.255 . S
O6 Dy0 2.379 . S
O6 C22 1.249 . S
O7 Dy1 2.275 . S
O7 C23 1.254 . S
O8 Dy0 2.339 . S
O8 C23 1.257 . S
O9 Dy1 2.307 . S
O9 C24 1.266 . S
O10 Dy0 2.298 . S
O10 C24 1.236 . S
O11 Dy1 2.395 1_565 S
O11 C31 1.255 . S
O12 Dy1 2.379 1_565 S
O12 C31 1.249 . S
C13 O3 1.266 . S
C13 O4 1.236 . S
O14 Dy0 2.275 . S
O14 C2 1.254 . S
O15 Dy1 2.339 . S
O15 C2 1.257 . S
C16 C19 1.344 . S
C16 C20 1.328 . S
C16 C22 1.516 . S
C17 C18 1.304 . S
C17 C21 1.323 . S
C18 C17 1.304 . S
C18 C19 1.371 . S
C18 H32 0.930 . S
C19 C16 1.344 . S
C19 C18 1.371 . S
C19 H33 0.931 . S
C20 C16 1.328 . S
C20 C21 1.433 . S
C20 H34 0.931 . S
C21 C17 1.323 . S
C21 C20 1.433 . S
C21 H35 0.933 . S
C22 Dy0 2.738 . S
C22 O5 1.255 . S
C22 O6 1.249 . S
C22 C16 1.516 . S
C23 O7 1.254 . S
C23 O8 1.257 . S
C24 O9 1.266 . S
C24 O10 1.236 . S
C25 C28 1.344 . S
C25 C29 1.328 . S
C25 C31 1.516 . S
C26 C27 1.304 . S
C26 C30 1.323 . S
C27 C26 1.304 . S
C27 C28 1.371 . S
C27 H36 0.930 . S
C28 C25 1.344 . S
C28 C27 1.371 . S
C28 H37 0.931 . S
C29 C25 1.328 . S
C29 C30 1.433 . S
C29 H38 0.931 . S
C30 C26 1.323 . S
C30 C29 1.433 . S
C30 H39 0.933 . S
C31 Dy1 2.738 1_565 S
C31 O11 1.255 . S
C31 O12 1.249 . S
C31 C25 1.516 . S
H32 C18 0.930 . S
H33 C19 0.931 . S
H34 C20 0.931 . S
H35 C21 0.933 . S
H36 C27 0.930 . S
H37 C28 0.931 . S
H38 C29 0.931 . S
H39 C30 0.933 . S
Dy40 O43 2.307 . S
Dy40 O45 2.395 . S
Dy40 O46 2.379 . S
Dy40 O48 2.339 . S
Dy40 O50 2.298 . S
Dy40 O54 2.275 . S
Dy40 C62 2.738 . S
Dy41 O44 2.298 . S
Dy41 O47 2.275 . S
Dy41 O49 2.307 . S
Dy41 O51 2.395 1_565 S
Dy41 O52 2.379 1_565 S
Dy41 O55 2.339 . S
Dy41 C71 2.738 1_565 S
C42 O54 1.254 . S
C42 O55 1.257 . S
O43 Dy40 2.307 . S
O43 C53 1.266 . S
O44 Dy41 2.298 . S
O44 C53 1.236 . S
O45 Dy40 2.395 . S
O45 C62 1.255 . S
O46 Dy40 2.379 . S
O46 C62 1.249 . S
O47 Dy41 2.275 . S
O47 C63 1.254 . S
O48 Dy40 2.339 . S
O48 C63 1.257 . S
O49 Dy41 2.307 . S
O49 C64 1.266 . S
O50 Dy40 2.298 . S
O50 C64 1.236 . S
O51 Dy41 2.395 1_545 S
O51 C71 1.255 . S
O52 Dy41 2.379 1_545 S
O52 C71 1.249 . S
C53 O43 1.266 . S
C53 O44 1.236 . S
O54 Dy40 2.275 . S
O54 C42 1.254 . S
O55 Dy41 2.339 . S
O55 C42 1.257 . S
C56 C59 1.344 . S
C56 C60 1.328 . S
C56 C62 1.516 . S
C57 C58 1.304 . S
C57 C61 1.323 . S
C58 C57 1.304 . S
C58 C59 1.371 . S
C58 H72 0.930 . S
C59 C56 1.344 . S
C59 C58 1.371 . S
C59 H73 0.931 . S
C60 C56 1.328 . S
C60 C61 1.433 . S
C60 H74 0.931 . S
C61 C57 1.323 . S
C61 C60 1.433 . S
C61 H75 0.933 . S
C62 Dy40 2.738 . S
C62 O45 1.255 . S
C62 O46 1.249 . S
C62 C56 1.516 . S
C63 O47 1.254 . S
C63 O48 1.257 . S
C64 O49 1.266 . S
C64 O50 1.236 . S
C65 C68 1.344 . S
C65 C69 1.328 . S
C65 C71 1.516 . S
C66 C67 1.304 . S
C66 C70 1.323 . S
C67 C66 1.304 . S
C67 C68 1.371 . S
C67 H76 0.930 . S
C68 C65 1.344 . S
C68 C67 1.371 . S
C68 H77 0.931 . S
C69 C65 1.328 . S
C69 C70 1.433 . S
C69 H78 0.931 . S
C70 C66 1.323 . S
C70 C69 1.433 . S
C70 H79 0.933 . S
C71 Dy41 2.738 1_545 S
C71 O51 1.255 . S
C71 O52 1.249 . S
C71 C65 1.516 . S
H72 C58 0.930 . S
H73 C59 0.931 . S
H74 C60 0.931 . S
H75 C61 0.933 . S
H76 C67 0.930 . S
H77 C68 0.931 . S
H78 C69 0.931 . S
H79 C70 0.933 . S
Dy80 O83 2.307 . S
Dy80 O85 2.395 . S
Dy80 O86 2.379 . S
Dy80 O88 2.339 . S
Dy80 O90 2.298 . S
Dy80 O94 2.275 . S
Dy80 C102 2.738 . S
Dy81 O84 2.298 . S
Dy81 O87 2.275 . S
Dy81 O89 2.307 . S
Dy81 O91 2.395 1_565 S
Dy81 O92 2.379 1_565 S
Dy81 O95 2.339 . S
Dy81 C111 2.738 1_565 S
C82 O94 1.254 . S
C82 O95 1.257 . S
O83 Dy80 2.307 . S
O83 C93 1.266 . S
O84 Dy81 2.298 . S
O84 C93 1.236 . S
O85 Dy80 2.395 . S
O85 C102 1.255 . S
O86 Dy80 2.379 . S
O86 C102 1.249 . S
O87 Dy81 2.275 . S
O87 C103 1.254 . S
O88 Dy80 2.339 . S
O88 C103 1.257 . S
O89 Dy81 2.307 . S
O89 C104 1.266 . S
O90 Dy80 2.298 . S
O90 C104 1.236 . S
O91 Dy81 2.395 1_545 S
O91 C111 1.255 . S
O92 Dy81 2.379 1_545 S
O92 C111 1.249 . S
C93 O83 1.266 . S
C93 O84 1.236 . S
O94 Dy80 2.275 . S
O94 C82 1.254 . S
O95 Dy81 2.339 . S
O95 C82 1.257 . S
C96 C99 1.344 . S
C96 C100 1.328 . S
C96 C102 1.516 . S
C97 C98 1.304 . S
C97 C101 1.323 . S
C98 C97 1.304 . S
C98 C99 1.371 . S
C98 H112 0.930 . S
C99 C96 1.344 . S
C99 C98 1.371 . S
C99 H113 0.931 . S
C100 C96 1.328 . S
C100 C101 1.433 . S
C100 H114 0.931 . S
C101 C97 1.323 . S
C101 C100 1.433 . S
C101 H115 0.933 . S
C102 Dy80 2.738 . S
C102 O85 1.255 . S
C102 O86 1.249 . S
C102 C96 1.516 . S
C103 O87 1.254 . S
C103 O88 1.257 . S
C104 O89 1.266 . S
C104 O90 1.236 . S
C105 C108 1.344 . S
C105 C109 1.328 . S
C105 C111 1.516 . S
C106 C107 1.304 . S
C106 C110 1.323 . S
C107 C106 1.304 . S
C107 C108 1.371 . S
C107 H116 0.930 . S
C108 C105 1.344 . S
C108 C107 1.371 . S
C108 H117 0.931 . S
C109 C105 1.328 . S
C109 C110 1.433 . S
C109 H118 0.931 . S
C110 C106 1.323 . S
C110 C109 1.433 . S
C110 H119 0.933 . S
C111 Dy81 2.738 1_545 S
C111 O91 1.255 . S
C111 O92 1.249 . S
C111 C105 1.516 . S
H112 C98 0.930 . S
H113 C99 0.931 . S
H114 C100 0.931 . S
H115 C101 0.933 . S
H116 C107 0.930 . S
H117 C108 0.931 . S
H118 C109 0.931 . S
H119 C110 0.933 . S
Dy120 O123 2.307 . S
Dy120 O125 2.395 . S
Dy120 O126 2.379 . S
Dy120 O128 2.339 . S
Dy120 O130 2.298 . S
Dy120 O134 2.275 . S
Dy120 C142 2.738 . S
Dy121 O124 2.298 . S
Dy121 O127 2.275 . S
Dy121 O129 2.307 . S
Dy121 O131 2.395 1_545 S
Dy121 O132 2.379 1_545 S
Dy121 O135 2.339 . S
Dy121 C151 2.738 1_545 S
C122 O134 1.254 . S
C122 O135 1.257 . S
O123 Dy120 2.307 . S
O123 C133 1.266 . S
O124 Dy121 2.298 . S
O124 C133 1.236 . S
O125 Dy120 2.395 . S
O125 C142 1.255 . S
O126 Dy120 2.379 . S
O126 C142 1.249 . S
O127 Dy121 2.275 . S
O127 C143 1.254 . S
O128 Dy120 2.339 . S
O128 C143 1.257 . S
O129 Dy121 2.307 . S
O129 C144 1.266 . S
O130 Dy120 2.298 . S
O130 C144 1.236 . S
O131 Dy121 2.395 1_565 S
O131 C151 1.255 . S
O132 Dy121 2.379 1_565 S
O132 C151 1.249 . S
C133 O123 1.266 . S
C133 O124 1.236 . S
O134 Dy120 2.275 . S
O134 C122 1.254 . S
O135 Dy121 2.339 . S
O135 C122 1.257 . S
C136 C139 1.344 . S
C136 C140 1.328 . S
C136 C142 1.516 . S
C137 C138 1.304 . S
C137 C141 1.323 . S
C138 C137 1.304 . S
C138 C139 1.371 . S
C138 H152 0.930 . S
C139 C136 1.344 . S
C139 C138 1.371 . S
C139 H153 0.931 . S
C140 C136 1.328 . S
C140 C141 1.433 . S
C140 H154 0.931 . S
C141 C137 1.323 . S
C141 C140 1.433 . S
C141 H155 0.933 . S
C142 Dy120 2.738 . S
C142 O125 1.255 . S
C142 O126 1.249 . S
C142 C136 1.516 . S
C143 O127 1.254 . S
C143 O128 1.257 . S
C144 O129 1.266 . S
C144 O130 1.236 . S
C145 C148 1.344 . S
C145 C149 1.328 . S
C145 C151 1.516 . S
C146 C147 1.304 . S
C146 C150 1.323 . S
C147 C146 1.304 . S
C147 C148 1.371 . S
C147 H156 0.930 . S
C148 C145 1.344 . S
C148 C147 1.371 . S
C148 H157 0.931 . S
C149 C145 1.328 . S
C149 C150 1.433 . S
C149 H158 0.931 . S
C150 C146 1.323 . S
C150 C149 1.433 . S
C150 H159 0.933 . S
C151 Dy121 2.738 1_565 S
C151 O131 1.255 . S
C151 O132 1.249 . S
C151 C145 1.516 . S
H152 C138 0.930 . S
H153 C139 0.931 . S
H154 C140 0.931 . S
H155 C141 0.933 . S
H156 C147 0.930 . S
H157 C148 0.931 . S
H158 C149 0.931 . S
H159 C150 0.933 . S
Dy160 O163 2.307 . S
Dy160 O165 2.395 1_565 S
Dy160 O166 2.379 1_565 S
Dy160 O168 2.339 . S
Dy160 O170 2.298 . S
Dy160 O174 2.275 . S
Dy160 C182 2.738 1_565 S
Dy161 O164 2.298 . S
Dy161 O167 2.275 . S
Dy161 O169 2.307 . S
Dy161 O171 2.395 . S
Dy161 O172 2.379 . S
Dy161 O175 2.339 . S
Dy161 C191 2.738 . S
C162 O174 1.254 . S
C162 O175 1.257 . S
O163 Dy160 2.307 . S
O163 C173 1.266 . S
O164 Dy161 2.298 . S
O164 C173 1.236 . S
O165 Dy160 2.395 1_545 S
O165 C182 1.255 . S
O166 Dy160 2.379 1_545 S
O166 C182 1.249 . S
O167 Dy161 2.275 . S
O167 C183 1.254 . S
O168 Dy160 2.339 . S
O168 C183 1.257 . S
O169 Dy161 2.307 . S
O169 C184 1.266 . S
O170 Dy160 2.298 . S
O170 C184 1.236 . S
O171 Dy161 2.395 . S
O171 C191 1.255 . S
O172 Dy161 2.379 . S
O172 C191 1.249 . S
C173 O163 1.266 . S
C173 O164 1.236 . S
O174 Dy160 2.275 . S
O174 C162 1.254 . S
O175 Dy161 2.339 . S
O175 C162 1.257 . S
C176 C179 1.344 . S
C176 C180 1.328 . S
C176 C182 1.516 . S
C177 C178 1.304 . S
C177 C181 1.323 . S
C178 C177 1.304 . S
C178 C179 1.371 . S
C178 H192 0.930 . S
C179 C176 1.344 . S
C179 C178 1.371 . S
C179 H193 0.931 . S
C180 C176 1.328 . S
C180 C181 1.433 . S
C180 H194 0.931 . S
C181 C177 1.323 . S
C181 C180 1.433 . S
C181 H195 0.933 . S
C182 Dy160 2.738 1_545 S
C182 O165 1.255 . S
C182 O166 1.249 . S
C182 C176 1.516 . S
C183 O167 1.254 . S
C183 O168 1.257 . S
C184 O169 1.266 . S
C184 O170 1.236 . S
C185 C188 1.344 . S
C185 C189 1.328 . S
C185 C191 1.516 . S
C186 C187 1.304 . S
C186 C190 1.323 . S
C187 C186 1.304 . S
C187 C188 1.371 . S
C187 H196 0.930 . S
C188 C185 1.344 . S
C188 C187 1.371 . S
C188 H197 0.931 . S
C189 C185 1.328 . S
C189 C190 1.433 . S
C189 H198 0.931 . S
C190 C186 1.323 . S
C190 C189 1.433 . S
C190 H199 0.933 . S
C191 Dy161 2.738 . S
C191 O171 1.255 . S
C191 O172 1.249 . S
C191 C185 1.516 . S
H192 C178 0.930 . S
H193 C179 0.931 . S
H194 C180 0.931 . S
H195 C181 0.933 . S
H196 C187 0.930 . S
H197 C188 0.931 . S
H198 C189 0.931 . S
H199 C190 0.933 . S
Dy200 O203 2.307 . S
Dy200 O205 2.395 1_545 S
Dy200 O206 2.379 1_545 S
Dy200 O208 2.339 . S
Dy200 O210 2.298 . S
Dy200 O214 2.275 . S
Dy200 C222 2.738 1_545 S
Dy201 O204 2.298 . S
Dy201 O207 2.275 . S
Dy201 O209 2.307 . S
Dy201 O211 2.395 . S
Dy201 O212 2.379 . S
Dy201 O215 2.339 . S
Dy201 C231 2.738 . S
C202 O214 1.254 . S
C202 O215 1.257 . S
O203 Dy200 2.307 . S
O203 C213 1.266 . S
O204 Dy201 2.298 . S
O204 C213 1.236 . S
O205 Dy200 2.395 1_565 S
O205 C222 1.255 . S
O206 Dy200 2.379 1_565 S
O206 C222 1.249 . S
O207 Dy201 2.275 . S
O207 C223 1.254 . S
O208 Dy200 2.339 . S
O208 C223 1.257 . S
O209 Dy201 2.307 . S
O209 C224 1.266 . S
O210 Dy200 2.298 . S
O210 C224 1.236 . S
O211 Dy201 2.395 . S
O211 C231 1.255 . S
O212 Dy201 2.379 . S
O212 C231 1.249 . S
C213 O203 1.266 . S
C213 O204 1.236 . S
O214 Dy200 2.275 . S
O214 C202 1.254 . S
O215 Dy201 2.339 . S
O215 C202 1.257 . S
C216 C219 1.344 . S
C216 C220 1.328 . S
C216 C222 1.516 . S
C217 C218 1.304 . S
C217 C221 1.323 . S
C218 C217 1.304 . S
C218 C219 1.371 . S
C218 H232 0.930 . S
C219 C216 1.344 . S
C219 C218 1.371 . S
C219 H233 0.931 . S
C220 C216 1.328 . S
C220 C221 1.433 . S
C220 H234 0.931 . S
C221 C217 1.323 . S
C221 C220 1.433 . S
C221 H235 0.933 . S
C222 Dy200 2.738 1_565 S
C222 O205 1.255 . S
C222 O206 1.249 . S
C222 C216 1.516 . S
C223 O207 1.254 . S
C223 O208 1.257 . S
C224 O209 1.266 . S
C224 O210 1.236 . S
C225 C228 1.344 . S
C225 C229 1.328 . S
C225 C231 1.516 . S
C226 C227 1.304 . S
C226 C230 1.323 . S
C227 C226 1.304 . S
C227 C228 1.371 . S
C227 H236 0.930 . S
C228 C225 1.344 . S
C228 C227 1.371 . S
C228 H237 0.931 . S
C229 C225 1.328 . S
C229 C230 1.433 . S
C229 H238 0.931 . S
C230 C226 1.323 . S
C230 C229 1.433 . S
C230 H239 0.933 . S
C231 Dy201 2.738 . S
C231 O211 1.255 . S
C231 O212 1.249 . S
C231 C225 1.516 . S
H232 C218 0.930 . S
H233 C219 0.931 . S
H234 C220 0.931 . S
H235 C221 0.933 . S
H236 C227 0.930 . S
H237 C228 0.931 . S
H238 C229 0.931 . S
H239 C230 0.933 . S
Dy240 O243 2.307 . S
Dy240 O245 2.395 1_545 S
Dy240 O246 2.379 1_545 S
Dy240 O248 2.339 . S
Dy240 O250 2.298 . S
Dy240 O254 2.275 . S
Dy240 C262 2.738 1_545 S
Dy241 O244 2.298 . S
Dy241 O247 2.275 . S
Dy241 O249 2.307 . S
Dy241 O251 2.395 . S
Dy241 O252 2.379 . S
Dy241 O255 2.339 . S
Dy241 C271 2.738 . S
C242 O254 1.254 . S
C242 O255 1.257 . S
O243 Dy240 2.307 . S
O243 C253 1.266 . S
O244 Dy241 2.298 . S
O244 C253 1.236 . S
O245 Dy240 2.395 1_565 S
O245 C262 1.255 . S
O246 Dy240 2.379 1_565 S
O246 C262 1.249 . S
O247 Dy241 2.275 . S
O247 C263 1.254 . S
O248 Dy240 2.339 . S
O248 C263 1.257 . S
O249 Dy241 2.307 . S
O249 C264 1.266 . S
O250 Dy240 2.298 . S
O250 C264 1.236 . S
O251 Dy241 2.395 . S
O251 C271 1.255 . S
O252 Dy241 2.379 . S
O252 C271 1.249 . S
C253 O243 1.266 . S
C253 O244 1.236 . S
O254 Dy240 2.275 . S
O254 C242 1.254 . S
O255 Dy241 2.339 . S
O255 C242 1.257 . S
C256 C259 1.344 . S
C256 C260 1.328 . S
C256 C262 1.516 . S
C257 C258 1.304 . S
C257 C261 1.323 . S
C258 C257 1.304 . S
C258 C259 1.371 . S
C258 H272 0.930 . S
C259 C256 1.344 . S
C259 C258 1.371 . S
C259 H273 0.931 . S
C260 C256 1.328 . S
C260 C261 1.433 . S
C260 H274 0.931 . S
C261 C257 1.323 . S
C261 C260 1.433 . S
C261 H275 0.933 . S
C262 Dy240 2.738 1_565 S
C262 O245 1.255 . S
C262 O246 1.249 . S
C262 C256 1.516 . S
C263 O247 1.254 . S
C263 O248 1.257 . S
C264 O249 1.266 . S
C264 O250 1.236 . S
C265 C268 1.344 . S
C265 C269 1.328 . S
C265 C271 1.516 . S
C266 C267 1.304 . S
C266 C270 1.323 . S
C267 C266 1.304 . S
C267 C268 1.371 . S
C267 H276 0.930 . S
C268 C265 1.344 . S
C268 C267 1.371 . S
C268 H277 0.931 . S
C269 C265 1.328 . S
C269 C270 1.433 . S
C269 H278 0.931 . S
C270 C266 1.323 . S
C270 C269 1.433 . S
C270 H279 0.933 . S
C271 Dy241 2.738 . S
C271 O251 1.255 . S
C271 O252 1.249 . S
C271 C265 1.516 . S
H272 C258 0.930 . S
H273 C259 0.931 . S
H274 C260 0.931 . S
H275 C261 0.933 . S
H276 C267 0.930 . S
H277 C268 0.931 . S
H278 C269 0.931 . S
H279 C270 0.933 . S
Dy280 O283 2.307 . S
Dy280 O285 2.395 1_565 S
Dy280 O286 2.379 1_565 S
Dy280 O288 2.339 . S
Dy280 O290 2.298 . S
Dy280 O294 2.275 . S
Dy280 C302 2.738 1_565 S
Dy281 O284 2.298 . S
Dy281 O287 2.275 . S
Dy281 O289 2.307 . S
Dy281 O291 2.395 . S
Dy281 O292 2.379 . S
Dy281 O295 2.339 . S
Dy281 C311 2.738 . S
C282 O294 1.254 . S
C282 O295 1.257 . S
O283 Dy280 2.307 . S
O283 C293 1.266 . S
O284 Dy281 2.298 . S
O284 C293 1.236 . S
O285 Dy280 2.395 1_545 S
O285 C302 1.255 . S
O286 Dy280 2.379 1_545 S
O286 C302 1.249 . S
O287 Dy281 2.275 . S
O287 C303 1.254 . S
O288 Dy280 2.339 . S
O288 C303 1.257 . S
O289 Dy281 2.307 . S
O289 C304 1.266 . S
O290 Dy280 2.298 . S
O290 C304 1.236 . S
O291 Dy281 2.395 . S
O291 C311 1.255 . S
O292 Dy281 2.379 . S
O292 C311 1.249 . S
C293 O283 1.266 . S
C293 O284 1.236 . S
O294 Dy280 2.275 . S
O294 C282 1.254 . S
O295 Dy281 2.339 . S
O295 C282 1.257 . S
C296 C299 1.344 . S
C296 C300 1.328 . S
C296 C302 1.516 . S
C297 C298 1.304 . S
C297 C301 1.323 . S
C298 C297 1.304 . S
C298 C299 1.371 . S
C298 H312 0.930 . S
C299 C296 1.344 . S
C299 C298 1.371 . S
C299 H313 0.931 . S
C300 C296 1.328 . S
C300 C301 1.433 . S
C300 H314 0.931 . S
C301 C297 1.323 . S
C301 C300 1.433 . S
C301 H315 0.933 . S
C302 Dy280 2.738 1_545 S
C302 O285 1.255 . S
C302 O286 1.249 . S
C302 C296 1.516 . S
C303 O287 1.254 . S
C303 O288 1.257 . S
C304 O289 1.266 . S
C304 O290 1.236 . S
C305 C308 1.344 . S
C305 C309 1.328 . S
C305 C311 1.516 . S
C306 C307 1.304 . S
C306 C310 1.323 . S
C307 C306 1.304 . S
C307 C308 1.371 . S
C307 H316 0.930 . S
C308 C305 1.344 . S
C308 C307 1.371 . S
C308 H317 0.931 . S
C309 C305 1.328 . S
C309 C310 1.433 . S
C309 H318 0.931 . S
C310 C306 1.323 . S
C310 C309 1.433 . S
C310 H319 0.933 . S
C311 Dy281 2.738 . S
C311 O291 1.255 . S
C311 O292 1.249 . S
C311 C305 1.516 . S
H312 C298 0.930 . S
H313 C299 0.931 . S
H314 C300 0.931 . S
H315 C301 0.933 . S
H316 C307 0.930 . S
H317 C308 0.931 . S
H318 C309 0.931 . S
H319 C310 0.933 . S
Dy320 O323 2.307 . S
Dy320 O325 2.395 . S
Dy320 O326 2.379 . S
Dy320 O328 2.339 . S
Dy320 O330 2.298 . S
Dy320 O334 2.275 . S
Dy320 C342 2.738 . S
Dy321 O324 2.298 . S
Dy321 O327 2.275 . S
Dy321 O329 2.307 . S
Dy321 O331 2.395 . S
Dy321 O332 2.379 . S
Dy321 O335 2.339 . S
Dy321 C351 2.738 . S
C322 O334 1.254 . S
C322 O335 1.257 . S
O323 Dy320 2.307 . S
O323 C333 1.266 . S
O324 Dy321 2.298 . S
O324 C333 1.236 . S
O325 Dy320 2.395 . S
O325 C342 1.255 . S
O326 Dy320 2.379 . S
O326 C342 1.249 . S
O327 Dy321 2.275 . S
O327 C343 1.254 . S
O328 Dy320 2.339 . S
O328 C343 1.257 . S
O329 Dy321 2.307 . S
O329 C344 1.266 . S
O330 Dy320 2.298 . S
O330 C344 1.236 . S
O331 Dy321 2.395 . S
O331 C351 1.255 . S
O332 Dy321 2.379 . S
O332 C351 1.249 . S
C333 O323 1.266 . S
C333 O324 1.236 . S
O334 Dy320 2.275 . S
O334 C322 1.254 . S
O335 Dy321 2.339 . S
O335 C322 1.257 . S
C336 C339 1.344 . S
C336 C340 1.328 . S
C336 C342 1.516 . S
C337 C338 1.304 . S
C337 C341 1.323 . S
C338 C337 1.304 . S
C338 C339 1.371 . S
C338 H352 0.930 . S
C339 C336 1.344 . S
C339 C338 1.371 . S
C339 H353 0.931 . S
C340 C336 1.328 . S
C340 C341 1.433 . S
C340 H354 0.931 . S
C341 C337 1.323 . S
C341 C340 1.433 . S
C341 H355 0.933 . S
C342 Dy320 2.738 . S
C342 O325 1.255 . S
C342 O326 1.249 . S
C342 C336 1.516 . S
C343 O327 1.254 . S
C343 O328 1.257 . S
C344 O329 1.266 . S
C344 O330 1.236 . S
C345 C348 1.344 . S
C345 C349 1.328 . S
C345 C351 1.516 . S
C346 C347 1.304 . S
C346 C350 1.323 . S
C347 C346 1.304 . S
C347 C348 1.371 . S
C347 H356 0.930 . S
C348 C345 1.344 . S
C348 C347 1.371 . S
C348 H357 0.931 . S
C349 C345 1.328 . S
C349 C350 1.433 . S
C349 H358 0.931 . S
C350 C346 1.323 . S
C350 C349 1.433 . S
C350 H359 0.933 . S
C351 Dy321 2.738 . S
C351 O331 1.255 . S
C351 O332 1.249 . S
C351 C345 1.516 . S
H352 C338 0.930 . S
H353 C339 0.931 . S
H354 C340 0.931 . S
H355 C341 0.933 . S
H356 C347 0.930 . S
H357 C348 0.931 . S
H358 C349 0.931 . S
H359 C350 0.933 . S
Dy360 O363 2.307 . S
Dy360 O365 2.395 . S
Dy360 O366 2.379 . S
Dy360 O368 2.339 . S
Dy360 O370 2.298 . S
Dy360 O374 2.275 . S
Dy360 C382 2.738 . S
Dy361 O364 2.298 . S
Dy361 O367 2.275 . S
Dy361 O369 2.307 . S
Dy361 O371 2.395 . S
Dy361 O372 2.379 . S
Dy361 O375 2.339 . S
Dy361 C391 2.738 . S
C362 O374 1.254 . S
C362 O375 1.257 . S
O363 Dy360 2.307 . S
O363 C373 1.266 . S
O364 Dy361 2.298 . S
O364 C373 1.236 . S
O365 Dy360 2.395 . S
O365 C382 1.255 . S
O366 Dy360 2.379 . S
O366 C382 1.249 . S
O367 Dy361 2.275 . S
O367 C383 1.254 . S
O368 Dy360 2.339 . S
O368 C383 1.257 . S
O369 Dy361 2.307 . S
O369 C384 1.266 . S
O370 Dy360 2.298 . S
O370 C384 1.236 . S
O371 Dy361 2.395 . S
O371 C391 1.255 . S
O372 Dy361 2.379 . S
O372 C391 1.249 . S
C373 O363 1.266 . S
C373 O364 1.236 . S
O374 Dy360 2.275 . S
O374 C362 1.254 . S
O375 Dy361 2.339 . S
O375 C362 1.257 . S
C376 C379 1.344 . S
C376 C380 1.328 . S
C376 C382 1.516 . S
C377 C378 1.304 . S
C377 C381 1.323 . S
C378 C377 1.304 . S
C378 C379 1.371 . S
C378 H392 0.930 . S
C379 C376 1.344 . S
C379 C378 1.371 . S
C379 H393 0.931 . S
C380 C376 1.328 . S
C380 C381 1.433 . S
C380 H394 0.931 . S
C381 C377 1.323 . S
C381 C380 1.433 . S
C381 H395 0.933 . S
C382 Dy360 2.738 . S
C382 O365 1.255 . S
C382 O366 1.249 . S
C382 C376 1.516 . S
C383 O367 1.254 . S
C383 O368 1.257 . S
C384 O369 1.266 . S
C384 O370 1.236 . S
C385 C388 1.344 . S
C385 C389 1.328 . S
C385 C391 1.516 . S
C386 C387 1.304 . S
C386 C390 1.323 . S
C387 C386 1.304 . S
C387 C388 1.371 . S
C387 H396 0.930 . S
C388 C385 1.344 . S
C388 C387 1.371 . S
C388 H397 0.931 . S
C389 C385 1.328 . S
C389 C390 1.433 . S
C389 H398 0.931 . S
C390 C386 1.323 . S
C390 C389 1.433 . S
C390 H399 0.933 . S
C391 Dy361 2.738 . S
C391 O371 1.255 . S
C391 O372 1.249 . S
C391 C385 1.516 . S
H392 C378 0.930 . S
H393 C379 0.931 . S
H394 C380 0.931 . S
H395 C381 0.933 . S
H396 C387 0.930 . S
H397 C388 0.931 . S
H398 C389 0.931 . S
H399 C390 0.933 . S
Dy400 O403 2.307 . S
Dy400 O405 2.395 . S
Dy400 O406 2.379 . S
Dy400 O408 2.339 . S
Dy400 O410 2.298 . S
Dy400 O414 2.275 . S
Dy400 C422 2.738 . S
Dy401 O404 2.298 . S
Dy401 O407 2.275 . S
Dy401 O409 2.307 . S
Dy401 O411 2.395 . S
Dy401 O412 2.379 . S
Dy401 O415 2.339 . S
Dy401 C431 2.738 . S
C402 O414 1.254 . S
C402 O415 1.257 . S
O403 Dy400 2.307 . S
O403 C413 1.266 . S
O404 Dy401 2.298 . S
O404 C413 1.236 . S
O405 Dy400 2.395 . S
O405 C422 1.255 . S
O406 Dy400 2.379 . S
O406 C422 1.249 . S
O407 Dy401 2.275 . S
O407 C423 1.254 . S
O408 Dy400 2.339 . S
O408 C423 1.257 . S
O409 Dy401 2.307 . S
O409 C424 1.266 . S
O410 Dy400 2.298 . S
O410 C424 1.236 . S
O411 Dy401 2.395 . S
O411 C431 1.255 . S
O412 Dy401 2.379 . S
O412 C431 1.249 . S
C413 O403 1.266 . S
C413 O404 1.236 . S
O414 Dy400 2.275 . S
O414 C402 1.254 . S
O415 Dy401 2.339 . S
O415 C402 1.257 . S
C416 C419 1.344 . S
C416 C420 1.328 . S
C416 C422 1.516 . S
C417 C418 1.304 . S
C417 C421 1.323 . S
C418 C417 1.304 . S
C418 C419 1.371 . S
C418 H432 0.930 . S
C419 C416 1.344 . S
C419 C418 1.371 . S
C419 H433 0.931 . S
C420 C416 1.328 . S
C420 C421 1.433 . S
C420 H434 0.931 . S
C421 C417 1.323 . S
C421 C420 1.433 . S
C421 H435 0.933 . S
C422 Dy400 2.738 . S
C422 O405 1.255 . S
C422 O406 1.249 . S
C422 C416 1.516 . S
C423 O407 1.254 . S
C423 O408 1.257 . S
C424 O409 1.266 . S
C424 O410 1.236 . S
C425 C428 1.344 . S
C425 C429 1.328 . S
C425 C431 1.516 . S
C426 C427 1.304 . S
C426 C430 1.323 . S
C427 C426 1.304 . S
C427 C428 1.371 . S
C427 H436 0.930 . S
C428 C425 1.344 . S
C428 C427 1.371 . S
C428 H437 0.931 . S
C429 C425 1.328 . S
C429 C430 1.433 . S
C429 H438 0.931 . S
C430 C426 1.323 . S
C430 C429 1.433 . S
C430 H439 0.933 . S
C431 Dy401 2.738 . S
C431 O411 1.255 . S
C431 O412 1.249 . S
C431 C425 1.516 . S
H432 C418 0.930 . S
H433 C419 0.931 . S
H434 C420 0.931 . S
H435 C421 0.933 . S
H436 C427 0.930 . S
H437 C428 0.931 . S
H438 C429 0.931 . S
H439 C430 0.933 . S
Dy440 O443 2.307 . S
Dy440 O445 2.395 . S
Dy440 O446 2.379 . S
Dy440 O448 2.339 . S
Dy440 O450 2.298 . S
Dy440 O454 2.275 . S
Dy440 C462 2.738 . S
Dy441 O444 2.298 . S
Dy441 O447 2.275 . S
Dy441 O449 2.307 . S
Dy441 O451 2.395 . S
Dy441 O452 2.379 . S
Dy441 O455 2.339 . S
Dy441 C471 2.738 . S
C442 O454 1.254 . S
C442 O455 1.257 . S
O443 Dy440 2.307 . S
O443 C453 1.266 . S
O444 Dy441 2.298 . S
O444 C453 1.236 . S
O445 Dy440 2.395 . S
O445 C462 1.255 . S
O446 Dy440 2.379 . S
O446 C462 1.249 . S
O447 Dy441 2.275 . S
O447 C463 1.254 . S
O448 Dy440 2.339 . S
O448 C463 1.257 . S
O449 Dy441 2.307 . S
O449 C464 1.266 . S
O450 Dy440 2.298 . S
O450 C464 1.236 . S
O451 Dy441 2.395 . S
O451 C471 1.255 . S
O452 Dy441 2.379 . S
O452 C471 1.249 . S
C453 O443 1.266 . S
C453 O444 1.236 . S
O454 Dy440 2.275 . S
O454 C442 1.254 . S
O455 Dy441 2.339 . S
O455 C442 1.257 . S
C456 C459 1.344 . S
C456 C460 1.328 . S
C456 C462 1.516 . S
C457 C458 1.304 . S
C457 C461 1.323 . S
C458 C457 1.304 . S
C458 C459 1.371 . S
C458 H472 0.930 . S
C459 C456 1.344 . S
C459 C458 1.371 . S
C459 H473 0.931 . S
C460 C456 1.328 . S
C460 C461 1.433 . S
C460 H474 0.931 . S
C461 C457 1.323 . S
C461 C460 1.433 . S
C461 H475 0.933 . S
C462 Dy440 2.738 . S
C462 O445 1.255 . S
C462 O446 1.249 . S
C462 C456 1.516 . S
C463 O447 1.254 . S
C463 O448 1.257 . S
C464 O449 1.266 . S
C464 O450 1.236 . S
C465 C468 1.344 . S
C465 C469 1.328 . S
C465 C471 1.516 . S
C466 C467 1.304 . S
C466 C470 1.323 . S
C467 C466 1.304 . S
C467 C468 1.371 . S
C467 H476 0.930 . S
C468 C465 1.344 . S
C468 C467 1.371 . S
C468 H477 0.931 . S
C469 C465 1.328 . S
C469 C470 1.433 . S
C469 H478 0.931 . S
C470 C466 1.323 . S
C470 C469 1.433 . S
C470 H479 0.933 . S
C471 Dy441 2.738 . S
C471 O451 1.255 . S
C471 O452 1.249 . S
C471 C465 1.516 . S
H472 C458 0.930 . S
H473 C459 0.931 . S
H474 C460 0.931 . S
H475 C461 0.933 . S
H476 C467 0.930 . S
H477 C468 0.931 . S
H478 C469 0.931 . S
H479 C470 0.933 . S
Dy480 O483 2.307 . S
Dy480 O485 2.395 . S
Dy480 O486 2.379 . S
Dy480 O488 2.339 . S
Dy480 O490 2.298 . S
Dy480 O494 2.275 . S
Dy480 C502 2.738 . S
Dy481 O484 2.298 . S
Dy481 O487 2.275 . S
Dy481 O489 2.307 . S
Dy481 O491 2.395 . S
Dy481 O492 2.379 . S
Dy481 O495 2.339 . S
Dy481 C511 2.738 . S
C482 O494 1.254 . S
C482 O495 1.257 . S
O483 Dy480 2.307 . S
O483 C493 1.266 . S
O484 Dy481 2.298 . S
O484 C493 1.236 . S
O485 Dy480 2.395 . S
O485 C502 1.255 . S
O486 Dy480 2.379 . S
O486 C502 1.249 . S
O487 Dy481 2.275 . S
O487 C503 1.254 . S
O488 Dy480 2.339 . S
O488 C503 1.257 . S
O489 Dy481 2.307 . S
O489 C504 1.266 . S
O490 Dy480 2.298 . S
O490 C504 1.236 . S
O491 Dy481 2.395 . S
O491 C511 1.255 . S
O492 Dy481 2.379 . S
O492 C511 1.249 . S
C493 O483 1.266 . S
C493 O484 1.236 . S
O494 Dy480 2.275 . S
O494 C482 1.254 . S
O495 Dy481 2.339 . S
O495 C482 1.257 . S
C496 C499 1.344 . S
C496 C500 1.328 . S
C496 C502 1.516 . S
C497 C498 1.304 . S
C497 C501 1.323 . S
C498 C497 1.304 . S
C498 C499 1.371 . S
C498 H512 0.930 . S
C499 C496 1.344 . S
C499 C498 1.371 . S
C499 H513 0.931 . S
C500 C496 1.328 . S
C500 C501 1.433 . S
C500 H514 0.931 . S
C501 C497 1.323 . S
C501 C500 1.433 . S
C501 H515 0.933 . S
C502 Dy480 2.738 . S
C502 O485 1.255 . S
C502 O486 1.249 . S
C502 C496 1.516 . S
C503 O487 1.254 . S
C503 O488 1.257 . S
C504 O489 1.266 . S
C504 O490 1.236 . S
C505 C508 1.344 . S
C505 C509 1.328 . S
C505 C511 1.516 . S
C506 C507 1.304 . S
C506 C510 1.323 . S
C507 C506 1.304 . S
C507 C508 1.371 . S
C507 H516 0.930 . S
C508 C505 1.344 . S
C508 C507 1.371 . S
C508 H517 0.931 . S
C509 C505 1.328 . S
C509 C510 1.433 . S
C509 H518 0.931 . S
C510 C506 1.323 . S
C510 C509 1.433 . S
C510 H519 0.933 . S
C511 Dy481 2.738 . S
C511 O491 1.255 . S
C511 O492 1.249 . S
C511 C505 1.516 . S
H512 C498 0.930 . S
H513 C499 0.931 . S
H514 C500 0.931 . S
H515 C501 0.933 . S
H516 C507 0.930 . S
H517 C508 0.931 . S
H518 C509 0.931 . S
H519 C510 0.933 . S
Dy520 O523 2.307 . S
Dy520 O525 2.395 . S
Dy520 O526 2.379 . S
Dy520 O528 2.339 . S
Dy520 O530 2.298 . S
Dy520 O534 2.275 . S
Dy520 C542 2.738 . S
Dy521 O524 2.298 . S
Dy521 O527 2.275 . S
Dy521 O529 2.307 . S
Dy521 O531 2.395 . S
Dy521 O532 2.379 . S
Dy521 O535 2.339 . S
Dy521 C551 2.738 . S
C522 O534 1.254 . S
C522 O535 1.257 . S
O523 Dy520 2.307 . S
O523 C533 1.266 . S
O524 Dy521 2.298 . S
O524 C533 1.236 . S
O525 Dy520 2.395 . S
O525 C542 1.255 . S
O526 Dy520 2.379 . S
O526 C542 1.249 . S
O527 Dy521 2.275 . S
O527 C543 1.254 . S
O528 Dy520 2.339 . S
O528 C543 1.257 . S
O529 Dy521 2.307 . S
O529 C544 1.266 . S
O530 Dy520 2.298 . S
O530 C544 1.236 . S
O531 Dy521 2.395 . S
O531 C551 1.255 . S
O532 Dy521 2.379 . S
O532 C551 1.249 . S
C533 O523 1.266 . S
C533 O524 1.236 . S
O534 Dy520 2.275 . S
O534 C522 1.254 . S
O535 Dy521 2.339 . S
O535 C522 1.257 . S
C536 C539 1.344 . S
C536 C540 1.328 . S
C536 C542 1.516 . S
C537 C538 1.304 . S
C537 C541 1.323 . S
C538 C537 1.304 . S
C538 C539 1.371 . S
C538 H552 0.930 . S
C539 C536 1.344 . S
C539 C538 1.371 . S
C539 H553 0.931 . S
C540 C536 1.328 . S
C540 C541 1.433 . S
C540 H554 0.931 . S
C541 C537 1.323 . S
C541 C540 1.433 . S
C541 H555 0.933 . S
C542 Dy520 2.738 . S
C542 O525 1.255 . S
C542 O526 1.249 . S
C542 C536 1.516 . S
C543 O527 1.254 . S
C543 O528 1.257 . S
C544 O529 1.266 . S
C544 O530 1.236 . S
C545 C548 1.344 . S
C545 C549 1.328 . S
C545 C551 1.516 . S
C546 C547 1.304 . S
C546 C550 1.323 . S
C547 C546 1.304 . S
C547 C548 1.371 . S
C547 H556 0.930 . S
C548 C545 1.344 . S
C548 C547 1.371 . S
C548 H557 0.931 . S
C549 C545 1.328 . S
C549 C550 1.433 . S
C549 H558 0.931 . S
C550 C546 1.323 . S
C550 C549 1.433 . S
C550 H559 0.933 . S
C551 Dy521 2.738 . S
C551 O531 1.255 . S
C551 O532 1.249 . S
C551 C545 1.516 . S
H552 C538 0.930 . S
H553 C539 0.931 . S
H554 C540 0.931 . S
H555 C541 0.933 . S
H556 C547 0.930 . S
H557 C548 0.931 . S
H558 C549 0.931 . S
H559 C550 0.933 . S
Dy560 O563 2.307 . S
Dy560 O565 2.395 . S
Dy560 O566 2.379 . S
Dy560 O568 2.339 . S
Dy560 O570 2.298 . S
Dy560 O574 2.275 . S
Dy560 C582 2.738 . S
Dy561 O564 2.298 . S
Dy561 O567 2.275 . S
Dy561 O569 2.307 . S
Dy561 O571 2.395 . S
Dy561 O572 2.379 . S
Dy561 O575 2.339 . S
Dy561 C591 2.738 . S
C562 O574 1.254 . S
C562 O575 1.257 . S
O563 Dy560 2.307 . S
O563 C573 1.266 . S
O564 Dy561 2.298 . S
O564 C573 1.236 . S
O565 Dy560 2.395 . S
O565 C582 1.255 . S
O566 Dy560 2.379 . S
O566 C582 1.249 . S
O567 Dy561 2.275 . S
O567 C583 1.254 . S
O568 Dy560 2.339 . S
O568 C583 1.257 . S
O569 Dy561 2.307 . S
O569 C584 1.266 . S
O570 Dy560 2.298 . S
O570 C584 1.236 . S
O571 Dy561 2.395 . S
O571 C591 1.255 . S
O572 Dy561 2.379 . S
O572 C591 1.249 . S
C573 O563 1.266 . S
C573 O564 1.236 . S
O574 Dy560 2.275 . S
O574 C562 1.254 . S
O575 Dy561 2.339 . S
O575 C562 1.257 . S
C576 C579 1.344 . S
C576 C580 1.328 . S
C576 C582 1.516 . S
C577 C578 1.304 . S
C577 C581 1.323 . S
C578 C577 1.304 . S
C578 C579 1.371 . S
C578 H592 0.930 . S
C579 C576 1.344 . S
C579 C578 1.371 . S
C579 H593 0.931 . S
C580 C576 1.328 . S
C580 C581 1.433 . S
C580 H594 0.931 . S
C581 C577 1.323 . S
C581 C580 1.433 . S
C581 H595 0.933 . S
C582 Dy560 2.738 . S
C582 O565 1.255 . S
C582 O566 1.249 . S
C582 C576 1.516 . S
C583 O567 1.254 . S
C583 O568 1.257 . S
C584 O569 1.266 . S
C584 O570 1.236 . S
C585 C588 1.344 . S
C585 C589 1.328 . S
C585 C591 1.516 . S
C586 C587 1.304 . S
C586 C590 1.323 . S
C587 C586 1.304 . S
C587 C588 1.371 . S
C587 H596 0.930 . S
C588 C585 1.344 . S
C588 C587 1.371 . S
C588 H597 0.931 . S
C589 C585 1.328 . S
C589 C590 1.433 . S
C589 H598 0.931 . S
C590 C586 1.323 . S
C590 C589 1.433 . S
C590 H599 0.933 . S
C591 Dy561 2.738 . S
C591 O571 1.255 . S
C591 O572 1.249 . S
C591 C585 1.516 . S
H592 C578 0.930 . S
H593 C579 0.931 . S
H594 C580 0.931 . S
H595 C581 0.933 . S
H596 C587 0.930 . S
H597 C588 0.931 . S
H598 C589 0.931 . S
H599 C590 0.933 . S
Dy600 O603 2.307 . S
Dy600 O605 2.395 . S
Dy600 O606 2.379 . S
Dy600 O608 2.339 . S
Dy600 O610 2.298 . S
Dy600 O614 2.275 . S
Dy600 C622 2.738 . S
Dy601 O604 2.298 . S
Dy601 O607 2.275 . S
Dy601 O609 2.307 . S
Dy601 O611 2.395 . S
Dy601 O612 2.379 . S
Dy601 O615 2.339 . S
Dy601 C631 2.738 . S
C602 O614 1.254 . S
C602 O615 1.257 . S
O603 Dy600 2.307 . S
O603 C613 1.266 . S
O604 Dy601 2.298 . S
O604 C613 1.236 . S
O605 Dy600 2.395 . S
O605 C622 1.255 . S
O606 Dy600 2.379 . S
O606 C622 1.249 . S
O607 Dy601 2.275 . S
O607 C623 1.254 . S
O608 Dy600 2.339 . S
O608 C623 1.257 . S
O609 Dy601 2.307 . S
O609 C624 1.266 . S
O610 Dy600 2.298 . S
O610 C624 1.236 . S
O611 Dy601 2.395 . S
O611 C631 1.255 . S
O612 Dy601 2.379 . S
O612 C631 1.249 . S
C613 O603 1.266 . S
C613 O604 1.236 . S
O614 Dy600 2.275 . S
O614 C602 1.254 . S
O615 Dy601 2.339 . S
O615 C602 1.257 . S
C616 C619 1.344 . S
C616 C620 1.328 . S
C616 C622 1.516 . S
C617 C618 1.304 . S
C617 C621 1.323 . S
C618 C617 1.304 . S
C618 C619 1.371 . S
C618 H632 0.930 . S
C619 C616 1.344 . S
C619 C618 1.371 . S
C619 H633 0.931 . S
C620 C616 1.328 . S
C620 C621 1.433 . S
C620 H634 0.931 . S
C621 C617 1.323 . S
C621 C620 1.433 . S
C621 H635 0.933 . S
C622 Dy600 2.738 . S
C622 O605 1.255 . S
C622 O606 1.249 . S
C622 C616 1.516 . S
C623 O607 1.254 . S
C623 O608 1.257 . S
C624 O609 1.266 . S
C624 O610 1.236 . S
C625 C628 1.344 . S
C625 C629 1.328 . S
C625 C631 1.516 . S
C626 C627 1.304 . S
C626 C630 1.323 . S
C627 C626 1.304 . S
C627 C628 1.371 . S
C627 H636 0.930 . S
C628 C625 1.344 . S
C628 C627 1.371 . S
C628 H637 0.931 . S
C629 C625 1.328 . S
C629 C630 1.433 . S
C629 H638 0.931 . S
C630 C626 1.323 . S
C630 C629 1.433 . S
C630 H639 0.933 . S
C631 Dy601 2.738 . S
C631 O611 1.255 . S
C631 O612 1.249 . S
C631 C625 1.516 . S
H632 C618 0.930 . S
H633 C619 0.931 . S
H634 C620 0.931 . S
H635 C621 0.933 . S
H636 C627 0.930 . S
H637 C628 0.931 . S
H638 C629 0.931 . S
H639 C630 0.933 . S
C640 C641 1.363 . S
C640 C646 1.379 . S
C640 N648 1.356 . S
C641 C640 1.363 . S
C641 C647 1.363 . S
C642 C643 1.363 . S
C642 C647 1.379 . S
C642 N649 1.356 . S
C643 C642 1.363 . S
C643 C646 1.363 . S
N644 C646 1.356 . S
N644 H656 0.984 . S
N644 H657 0.985 . S
N645 C647 1.356 . S
N645 H650 0.984 . S
N645 H651 0.985 . S
C646 C640 1.379 . S
C646 C643 1.363 . S
C646 N644 1.356 . S
C647 C641 1.363 . S
C647 C642 1.379 . S
C647 N645 1.356 . S
N648 C640 1.356 . S
N648 H654 0.984 . S
N648 H655 0.984 . S
N649 C642 1.356 . S
N649 H652 0.984 . S
N649 H653 0.985 . S
H650 N645 0.984 . S
H651 N645 0.985 . S
H652 N649 0.984 . S
H653 N649 0.985 . S
H654 N648 0.984 . S
H655 N648 0.984 . S
H656 N644 0.984 . S
H657 N644 0.985 . S
C658 C659 1.363 . S
C658 C664 1.379 . S
C658 N666 1.356 . S
C659 C658 1.363 . S
C659 C665 1.363 . S
C660 C661 1.363 . S
C660 C665 1.379 . S
C660 N667 1.356 . S
C661 C660 1.363 . S
C661 C664 1.363 . S
N662 C664 1.356 . S
N662 H674 0.984 . S
N662 H675 0.985 . S
N663 C665 1.356 . S
N663 H668 0.984 . S
N663 H669 0.985 . S
C664 C658 1.379 . S
C664 C661 1.363 . S
C664 N662 1.356 . S
C665 C659 1.363 . S
C665 C660 1.379 . S
C665 N663 1.356 . S
N666 C658 1.356 . S
N666 H672 0.984 . S
N666 H673 0.984 . S
N667 C660 1.356 . S
N667 H670 0.984 . S
N667 H671 0.985 . S
H668 N663 0.984 . S
H669 N663 0.985 . S
H670 N667 0.984 . S
H671 N667 0.985 . S
H672 N666 0.984 . S
H673 N666 0.984 . S
H674 N662 0.984 . S
H675 N662 0.985 . S
C676 C677 1.363 . S
C676 C682 1.379 . S
C676 N684 1.356 . S
C677 C676 1.363 . S
C677 C683 1.363 . S
C678 C679 1.363 . S
C678 C683 1.379 . S
C678 N685 1.356 . S
C679 C678 1.363 . S
C679 C682 1.363 . S
N680 C682 1.356 . S
N680 H692 0.984 . S
N680 H693 0.985 . S
N681 C683 1.356 . S
N681 H686 0.984 . S
N681 H687 0.985 . S
C682 C676 1.379 . S
C682 C679 1.363 . S
C682 N680 1.356 . S
C683 C677 1.363 . S
C683 C678 1.379 . S
C683 N681 1.356 . S
N684 C676 1.356 . S
N684 H690 0.984 . S
N684 H691 0.984 . S
N685 C678 1.356 . S
N685 H688 0.984 . S
N685 H689 0.985 . S
H686 N681 0.984 . S
H687 N681 0.985 . S
H688 N685 0.984 . S
H689 N685 0.985 . S
H690 N684 0.984 . S
H691 N684 0.984 . S
H692 N680 0.984 . S
H693 N680 0.985 . S
C694 C695 1.363 . S
C694 C700 1.379 . S
C694 N702 1.356 . S
C695 C694 1.363 . S
C695 C701 1.363 . S
C696 C697 1.363 . S
C696 C701 1.379 . S
C696 N703 1.356 . S
C697 C696 1.363 . S
C697 C700 1.363 . S
N698 C700 1.356 . S
N698 H710 0.984 . S
N698 H711 0.985 . S
N699 C701 1.356 . S
N699 H704 0.984 . S
N699 H705 0.985 . S
C700 C694 1.379 . S
C700 C697 1.363 . S
C700 N698 1.356 . S
C701 C695 1.363 . S
C701 C696 1.379 . S
C701 N699 1.356 . S
N702 C694 1.356 . S
N702 H708 0.984 . S
N702 H709 0.984 . S
N703 C696 1.356 . S
N703 H706 0.984 . S
N703 H707 0.985 . S
H704 N699 0.984 . S
H705 N699 0.985 . S
H706 N703 0.984 . S
H707 N703 0.985 . S
H708 N702 0.984 . S
H709 N702 0.984 . S
H710 N698 0.984 . S
H711 N698 0.985 . S
C712 C713 1.363 . S
C712 C718 1.379 . S
C712 N720 1.356 . S
C713 C712 1.363 . S
C713 C719 1.363 . S
C714 C715 1.363 . S
C714 C719 1.379 . S
C714 N721 1.356 . S
C715 C714 1.363 . S
C715 C718 1.363 . S
N716 C718 1.356 . S
N716 H728 0.984 . S
N716 H729 0.985 . S
N717 C719 1.356 . S
N717 H722 0.984 . S
N717 H723 0.985 . S
C718 C712 1.379 . S
C718 C715 1.363 . S
C718 N716 1.356 . S
C719 C713 1.363 . S
C719 C714 1.379 . S
C719 N717 1.356 . S
N720 C712 1.356 . S
N720 H726 0.984 . S
N720 H727 0.984 . S
N721 C714 1.356 . S
N721 H724 0.984 . S
N721 H725 0.985 . S
H722 N717 0.984 . S
H723 N717 0.985 . S
H724 N721 0.984 . S
H725 N721 0.985 . S
H726 N720 0.984 . S
H727 N720 0.984 . S
H728 N716 0.984 . S
H729 N716 0.985 . S
C730 C731 1.363 . S
C730 C736 1.379 . S
C730 N738 1.356 . S
C731 C730 1.363 . S
C731 C737 1.363 . S
C732 C733 1.363 . S
C732 C737 1.379 . S
C732 N739 1.356 . S
C733 C732 1.363 . S
C733 C736 1.363 . S
N734 C736 1.356 . S
N734 H746 0.984 . S
N734 H747 0.985 . S
N735 C737 1.356 . S
N735 H740 0.984 . S
N735 H741 0.985 . S
C736 C730 1.379 . S
C736 C733 1.363 . S
C736 N734 1.356 . S
C737 C731 1.363 . S
C737 C732 1.379 . S
C737 N735 1.356 . S
N738 C730 1.356 . S
N738 H744 0.984 . S
N738 H745 0.984 . S
N739 C732 1.356 . S
N739 H742 0.984 . S
N739 H743 0.985 . S
H740 N735 0.984 . S
H741 N735 0.985 . S
H742 N739 0.984 . S
H743 N739 0.985 . S
H744 N738 0.984 . S
H745 N738 0.984 . S
H746 N734 0.984 . S
H747 N734 0.985 . S
C748 C749 1.363 . S
C748 C754 1.379 . S
C748 N756 1.356 . S
C749 C748 1.363 . S
C749 C755 1.363 . S
C750 C751 1.363 . S
C750 C755 1.379 . S
C750 N757 1.356 . S
C751 C750 1.363 . S
C751 C754 1.363 . S
N752 C754 1.356 . S
N752 H764 0.984 . S
N752 H765 0.985 . S
N753 C755 1.356 . S
N753 H758 0.984 . S
N753 H759 0.985 . S
C754 C748 1.379 . S
C754 C751 1.363 . S
C754 N752 1.356 . S
C755 C749 1.363 . S
C755 C750 1.379 . S
C755 N753 1.356 . S
N756 C748 1.356 . S
N756 H762 0.984 . S
N756 H763 0.984 . S
N757 C750 1.356 . S
N757 H760 0.984 . S
N757 H761 0.985 . S
H758 N753 0.984 . S
H759 N753 0.985 . S
H760 N757 0.984 . S
H761 N757 0.985 . S
H762 N756 0.984 . S
H763 N756 0.984 . S
H764 N752 0.984 . S
H765 N752 0.985 . S
C766 C767 1.363 . S
C766 C772 1.379 . S
C766 N774 1.356 . S
C767 C766 1.363 . S
C767 C773 1.363 . S
C768 C769 1.363 . S
C768 C773 1.379 . S
C768 N775 1.356 . S
C769 C768 1.363 . S
C769 C772 1.363 . S
N770 C772 1.356 . S
N770 H782 0.984 . S
N770 H783 0.985 . S
N771 C773 1.356 . S
N771 H776 0.984 . S
N771 H777 0.985 . S
C772 C766 1.379 . S
C772 C769 1.363 . S
C772 N770 1.356 . S
C773 C767 1.363 . S
C773 C768 1.379 . S
C773 N771 1.356 . S
N774 C766 1.356 . S
N774 H780 0.984 . S
N774 H781 0.984 . S
N775 C768 1.356 . S
N775 H778 0.984 . S
N775 H779 0.985 . S
H776 N771 0.984 . S
H777 N771 0.985 . S
H778 N775 0.984 . S
H779 N775 0.985 . S
H780 N774 0.984 . S
H781 N774 0.984 . S
H782 N770 0.984 . S
H783 N770 0.985 . S
C784 C785 1.363 1_545 S
C784 C790 1.379 . S
C784 N792 1.356 . S
C785 C784 1.363 1_565 S
C785 C791 1.363 . S
C786 C787 1.363 1_565 S
C786 C791 1.379 . S
C786 N793 1.356 . S
C787 C786 1.363 1_545 S
C787 C790 1.363 . S
N788 C790 1.356 . S
N788 H800 0.984 . S
N788 H801 0.985 . S
N789 C791 1.356 . S
N789 H794 0.984 . S
N789 H795 0.985 . S
C790 C784 1.379 . S
C790 C787 1.363 . S
C790 N788 1.356 . S
C791 C785 1.363 . S
C791 C786 1.379 . S
C791 N789 1.356 . S
N792 C784 1.356 . S
N792 H798 0.984 . S
N792 H799 0.984 1_545 S
N793 C786 1.356 . S
N793 H796 0.984 1_565 S
N793 H797 0.985 . S
H794 N789 0.984 . S
H795 N789 0.985 . S
H796 N793 0.984 1_545 S
H797 N793 0.985 . S
H798 N792 0.984 . S
H799 N792 0.984 1_565 S
H800 N788 0.984 . S
H801 N788 0.985 . S
C802 C803 1.363 . S
C802 C808 1.379 . S
C802 N810 1.356 . S
C803 C802 1.363 . S
C803 C809 1.363 1_545 S
C804 C805 1.363 . S
C804 C809 1.379 . S
C804 N811 1.356 . S
C805 C804 1.363 . S
C805 C808 1.363 1_565 S
N806 C808 1.356 . S
N806 H818 0.984 . S
N806 H819 0.985 1_545 S
N807 C809 1.356 . S
N807 H812 0.984 1_565 S
N807 H813 0.985 . S
C808 C802 1.379 . S
C808 C805 1.363 1_545 S
C808 N806 1.356 . S
C809 C803 1.363 1_565 S
C809 C804 1.379 . S
C809 N807 1.356 . S
N810 C802 1.356 . S
N810 H816 0.984 . S
N810 H817 0.984 . S
N811 C804 1.356 . S
N811 H814 0.984 . S
N811 H815 0.985 . S
H812 N807 0.984 1_545 S
H813 N807 0.985 . S
H814 N811 0.984 . S
H815 N811 0.985 . S
H816 N810 0.984 . S
H817 N810 0.984 . S
H818 N806 0.984 . S
H819 N806 0.985 1_565 S
C820 C821 1.363 . S
C820 C826 1.379 . S
C820 N828 1.356 . S
C821 C820 1.363 . S
C821 C827 1.363 1_545 S
C822 C823 1.363 . S
C822 C827 1.379 . S
C822 N829 1.356 . S
C823 C822 1.363 . S
C823 C826 1.363 1_565 S
N824 C826 1.356 . S
N824 H836 0.984 . S
N824 H837 0.985 1_545 S
N825 C827 1.356 . S
N825 H830 0.984 1_565 S
N825 H831 0.985 . S
C826 C820 1.379 . S
C826 C823 1.363 1_545 S
C826 N824 1.356 . S
C827 C821 1.363 1_565 S
C827 C822 1.379 . S
C827 N825 1.356 . S
N828 C820 1.356 . S
N828 H834 0.984 . S
N828 H835 0.984 . S
N829 C822 1.356 . S
N829 H832 0.984 . S
N829 H833 0.985 . S
H830 N825 0.984 1_545 S
H831 N825 0.985 . S
H832 N829 0.984 . S
H833 N829 0.985 . S
H834 N828 0.984 . S
H835 N828 0.984 . S
H836 N824 0.984 . S
H837 N824 0.985 1_565 S
C838 C839 1.363 . S
C838 C844 1.379 . S
C838 N846 1.356 . S
C839 C838 1.363 . S
C839 C845 1.363 1_545 S
C840 C841 1.363 . S
C840 C845 1.379 . S
C840 N847 1.356 . S
C841 C840 1.363 . S
C841 C844 1.363 1_565 S
N842 C844 1.356 . S
N842 H854 0.984 . S
N842 H855 0.985 1_545 S
N843 C845 1.356 . S
N843 H848 0.984 1_565 S
N843 H849 0.985 . S
C844 C838 1.379 . S
C844 C841 1.363 1_545 S
C844 N842 1.356 . S
C845 C839 1.363 1_565 S
C845 C840 1.379 . S
C845 N843 1.356 . S
N846 C838 1.356 . S
N846 H852 0.984 . S
N846 H853 0.984 . S
N847 C840 1.356 . S
N847 H850 0.984 . S
N847 H851 0.985 . S
H848 N843 0.984 1_545 S
H849 N843 0.985 . S
H850 N847 0.984 . S
H851 N847 0.985 . S
H852 N846 0.984 . S
H853 N846 0.984 . S
H854 N842 0.984 . S
H855 N842 0.985 1_565 S
C856 C857 1.363 . S
C856 C862 1.379 . S
C856 N864 1.356 . S
C857 C856 1.363 . S
C857 C863 1.363 . S
C858 C859 1.363 . S
C858 C863 1.379 . S
C858 N865 1.356 . S
C859 C858 1.363 . S
C859 C862 1.363 . S
N860 C862 1.356 . S
N860 H872 0.984 . S
N860 H873 0.985 . S
N861 C863 1.356 . S
N861 H866 0.984 . S
N861 H867 0.985 . S
C862 C856 1.379 . S
C862 C859 1.363 . S
C862 N860 1.356 . S
C863 C857 1.363 . S
C863 C858 1.379 . S
C863 N861 1.356 . S
N864 C856 1.356 . S
N864 H870 0.984 . S
N864 H871 0.984 . S
N865 C858 1.356 . S
N865 H868 0.984 . S
N865 H869 0.985 . S
H866 N861 0.984 . S
H867 N861 0.985 . S
H868 N865 0.984 . S
H869 N865 0.985 . S
H870 N864 0.984 . S
H871 N864 0.984 . S
H872 N860 0.984 . S
H873 N860 0.985 . S
C874 C875 1.363 . S
C874 C880 1.379 . S
C874 N882 1.356 . S
C875 C874 1.363 . S
C875 C881 1.363 . S
C876 C877 1.363 . S
C876 C881 1.379 . S
C876 N883 1.356 . S
C877 C876 1.363 . S
C877 C880 1.363 . S
N878 C880 1.356 . S
N878 H890 0.984 . S
N878 H891 0.985 . S
N879 C881 1.356 . S
N879 H884 0.984 . S
N879 H885 0.985 . S
C880 C874 1.379 . S
C880 C877 1.363 . S
C880 N878 1.356 . S
C881 C875 1.363 . S
C881 C876 1.379 . S
C881 N879 1.356 . S
N882 C874 1.356 . S
N882 H888 0.984 . S
N882 H889 0.984 . S
N883 C876 1.356 . S
N883 H886 0.984 . S
N883 H887 0.985 . S
H884 N879 0.984 . S
H885 N879 0.985 . S
H886 N883 0.984 . S
H887 N883 0.985 . S
H888 N882 0.984 . S
H889 N882 0.984 . S
H890 N878 0.984 . S
H891 N878 0.985 . S
C892 C893 1.363 . S
C892 C898 1.379 . S
C892 N900 1.356 . S
C893 C892 1.363 . S
C893 C899 1.363 . S
C894 C895 1.363 . S
C894 C899 1.379 . S
C894 N901 1.356 . S
C895 C894 1.363 . S
C895 C898 1.363 . S
N896 C898 1.356 . S
N896 H908 0.984 . S
N896 H909 0.985 . S
N897 C899 1.356 . S
N897 H902 0.984 . S
N897 H903 0.985 . S
C898 C892 1.379 . S
C898 C895 1.363 . S
C898 N896 1.356 . S
C899 C893 1.363 . S
C899 C894 1.379 . S
C899 N897 1.356 . S
N900 C892 1.356 . S
N900 H906 0.984 . S
N900 H907 0.984 . S
N901 C894 1.356 . S
N901 H904 0.984 . S
N901 H905 0.985 . S
H902 N897 0.984 . S
H903 N897 0.985 . S
H904 N901 0.984 . S
H905 N901 0.985 . S
H906 N900 0.984 . S
H907 N900 0.984 . S
H908 N896 0.984 . S
H909 N896 0.985 . S
C910 C911 1.363 . S
C910 C916 1.379 . S
C910 N918 1.356 . S
C911 C910 1.363 . S
C911 C917 1.363 . S
C912 C913 1.363 . S
C912 C917 1.379 . S
C912 N919 1.356 . S
C913 C912 1.363 . S
C913 C916 1.363 . S
N914 C916 1.356 . S
N914 H926 0.984 . S
N914 H927 0.985 . S
N915 C917 1.356 . S
N915 H920 0.984 . S
N915 H921 0.985 . S
C916 C910 1.379 . S
C916 C913 1.363 . S
C916 N914 1.356 . S
C917 C911 1.363 . S
C917 C912 1.379 . S
C917 N915 1.356 . S
N918 C910 1.356 . S
N918 H924 0.984 . S
N918 H925 0.984 . S
N919 C912 1.356 . S
N919 H922 0.984 . S
N919 H923 0.985 . S
H920 N915 0.984 . S
H921 N915 0.985 . S
H922 N919 0.984 . S
H923 N919 0.985 . S
H924 N918 0.984 . S
H925 N918 0.984 . S
H926 N914 0.984 . S
H927 N914 0.985 . S
C928 C929 1.363 . S
C928 C934 1.379 1_556 S
C928 N936 1.356 . S
C929 C928 1.363 . S
C929 C935 1.363 . S
C930 C931 1.363 . S
C930 C935 1.379 1_554 S
C930 N937 1.356 . S
C931 C930 1.363 . S
C931 C934 1.363 . S
N932 C934 1.356 . S
N932 H944 0.984 . S
N932 H945 0.985 . S
N933 C935 1.356 . S
N933 H938 0.984 . S
N933 H939 0.985 . S
C934 C928 1.379 1_554 S
C934 C931 1.363 . S
C934 N932 1.356 . S
C935 C929 1.363 . S
C935 C930 1.379 1_556 S
C935 N933 1.356 . S
N936 C928 1.356 . S
N936 H942 0.984 . S
N936 H943 0.984 . S
N937 C930 1.356 . S
N937 H940 0.984 . S
N937 H941 0.985 . S
H938 N933 0.984 . S
H939 N933 0.985 . S
H940 N937 0.984 . S
H941 N937 0.985 . S
H942 N936 0.984 . S
H943 N936 0.984 . S
H944 N932 0.984 . S
H945 N932 0.985 . S
C946 C947 1.363 . S
C946 C952 1.379 1_556 S
C946 N954 1.356 . S
C947 C946 1.363 . S
C947 C953 1.363 . S
C948 C949 1.363 . S
C948 C953 1.379 1_554 S
C948 N955 1.356 . S
C949 C948 1.363 . S
C949 C952 1.363 . S
N950 C952 1.356 . S
N950 H962 0.984 . S
N950 H963 0.985 . S
N951 C953 1.356 . S
N951 H956 0.984 . S
N951 H957 0.985 . S
C952 C946 1.379 1_554 S
C952 C949 1.363 . S
C952 N950 1.356 . S
C953 C947 1.363 . S
C953 C948 1.379 1_556 S
C953 N951 1.356 . S
N954 C946 1.356 . S
N954 H960 0.984 . S
N954 H961 0.984 . S
N955 C948 1.356 . S
N955 H958 0.984 . S
N955 H959 0.985 . S
H956 N951 0.984 . S
H957 N951 0.985 . S
H958 N955 0.984 . S
H959 N955 0.985 . S
H960 N954 0.984 . S
H961 N954 0.984 . S
H962 N950 0.984 . S
H963 N950 0.985 . S
C964 C965 1.363 . S
C964 C970 1.379 . S
C964 N972 1.356 . S
C965 C964 1.363 . S
C965 C971 1.363 . S
C966 C967 1.363 . S
C966 C971 1.379 . S
C966 N973 1.356 . S
C967 C966 1.363 . S
C967 C970 1.363 . S
N968 C970 1.356 . S
N968 H980 0.984 . S
N968 H981 0.985 . S
N969 C971 1.356 . S
N969 H974 0.984 . S
N969 H975 0.985 . S
C970 C964 1.379 . S
C970 C967 1.363 . S
C970 N968 1.356 . S
C971 C965 1.363 . S
C971 C966 1.379 . S
C971 N969 1.356 . S
N972 C964 1.356 . S
N972 H978 0.984 . S
N972 H979 0.984 . S
N973 C966 1.356 . S
N973 H976 0.984 . S
N973 H977 0.985 . S
H974 N969 0.984 . S
H975 N969 0.985 . S
H976 N973 0.984 . S
H977 N973 0.985 . S
H978 N972 0.984 . S
H979 N972 0.984 . S
H980 N968 0.984 . S
H981 N968 0.985 . S
C982 C983 1.363 . S
C982 C988 1.379 . S
C982 N990 1.356 . S
C983 C982 1.363 . S
C983 C989 1.363 . S
C984 C985 1.363 . S
C984 C989 1.379 . S
C984 N991 1.356 . S
C985 C984 1.363 . S
C985 C988 1.363 . S
N986 C988 1.356 . S
N986 H998 0.984 . S
N986 H999 0.985 . S
N987 C989 1.356 . S
N987 H992 0.984 . S
N987 H993 0.985 . S
C988 C982 1.379 . S
C988 C985 1.363 . S
C988 N986 1.356 . S
C989 C983 1.363 . S
C989 C984 1.379 . S
C989 N987 1.356 . S
N990 C982 1.356 . S
N990 H996 0.984 . S
N990 H997 0.984 . S
N991 C984 1.356 . S
N991 H994 0.984 . S
N991 H995 0.985 . S
H992 N987 0.984 . S
H993 N987 0.985 . S
H994 N991 0.984 . S
H995 N991 0.985 . S
H996 N990 0.984 . S
H997 N990 0.984 . S
H998 N986 0.984 . S
H999 N986 0.985 . S
C1000 C1001 1.363 . S
C1000 C1006 1.379 1_554 S
C1000 N1008 1.356 . S
C1001 C1000 1.363 . S
C1001 C1007 1.363 . S
C1002 C1003 1.363 . S
C1002 C1007 1.379 1_556 S
C1002 N1009 1.356 . S
C1003 C1002 1.363 . S
C1003 C1006 1.363 . S
N1004 C1006 1.356 . S
N1004 H1016 0.984 . S
N1004 H1017 0.985 . S
N1005 C1007 1.356 . S
N1005 H1010 0.984 . S
N1005 H1011 0.985 . S
C1006 C1000 1.379 1_556 S
C1006 C1003 1.363 . S
C1006 N1004 1.356 . S
C1007 C1001 1.363 . S
C1007 C1002 1.379 1_554 S
C1007 N1005 1.356 . S
N1008 C1000 1.356 . S
N1008 H1014 0.984 . S
N1008 H1015 0.984 . S
N1009 C1002 1.356 . S
N1009 H1012 0.984 . S
N1009 H1013 0.985 . S
H1010 N1005 0.984 . S
H1011 N1005 0.985 . S
H1012 N1009 0.984 . S
H1013 N1009 0.985 . S
H1014 N1008 0.984 . S
H1015 N1008 0.984 . S
H1016 N1004 0.984 . S
H1017 N1004 0.985 . S
C1018 C1019 1.363 . S
C1018 C1024 1.379 1_556 S
C1018 N1026 1.356 . S
C1019 C1018 1.363 . S
C1019 C1025 1.363 . S
C1020 C1021 1.363 . S
C1020 C1025 1.379 1_554 S
C1020 N1027 1.356 . S
C1021 C1020 1.363 . S
C1021 C1024 1.363 . S
N1022 C1024 1.356 . S
N1022 H1034 0.984 . S
N1022 H1035 0.985 . S
N1023 C1025 1.356 . S
N1023 H1028 0.984 . S
N1023 H1029 0.985 . S
C1024 C1018 1.379 1_554 S
C1024 C1021 1.363 . S
C1024 N1022 1.356 . S
C1025 C1019 1.363 . S
C1025 C1020 1.379 1_556 S
C1025 N1023 1.356 . S
N1026 C1018 1.356 . S
N1026 H1032 0.984 . S
N1026 H1033 0.984 . S
N1027 C1020 1.356 . S
N1027 H1030 0.984 . S
N1027 H1031 0.985 . S
H1028 N1023 0.984 . S
H1029 N1023 0.985 . S
H1030 N1027 0.984 . S
H1031 N1027 0.985 . S
H1032 N1026 0.984 . S
H1033 N1026 0.984 . S
H1034 N1022 0.984 . S
H1035 N1022 0.985 . S
C1036 C1037 1.363 . S
C1036 C1042 1.379 . S
C1036 N1044 1.356 . S
C1037 C1036 1.363 . S
C1037 C1043 1.363 . S
C1038 C1039 1.363 . S
C1038 C1043 1.379 . S
C1038 N1045 1.356 . S
C1039 C1038 1.363 . S
C1039 C1042 1.363 . S
N1040 C1042 1.356 . S
N1040 H1052 0.984 . S
N1040 H1053 0.985 . S
N1041 C1043 1.356 . S
N1041 H1046 0.984 . S
N1041 H1047 0.985 . S
C1042 C1036 1.379 . S
C1042 C1039 1.363 . S
C1042 N1040 1.356 . S
C1043 C1037 1.363 . S
C1043 C1038 1.379 . S
C1043 N1041 1.356 . S
N1044 C1036 1.356 . S
N1044 H1050 0.984 . S
N1044 H1051 0.984 . S
N1045 C1038 1.356 . S
N1045 H1048 0.984 . S
N1045 H1049 0.985 . S
H1046 N1041 0.984 . S
H1047 N1041 0.985 . S
H1048 N1045 0.984 . S
H1049 N1045 0.985 . S
H1050 N1044 0.984 . S
H1051 N1044 0.984 . S
H1052 N1040 0.984 . S
H1053 N1040 0.985 . S
C1054 C1055 1.363 . S
C1054 C1060 1.379 . S
C1054 N1062 1.356 . S
C1055 C1054 1.363 . S
C1055 C1061 1.363 . S
C1056 C1057 1.363 . S
C1056 C1061 1.379 . S
C1056 N1063 1.356 . S
C1057 C1056 1.363 . S
C1057 C1060 1.363 . S
N1058 C1060 1.356 . S
N1058 H1070 0.984 . S
N1058 H1071 0.985 . S
N1059 C1061 1.356 . S
N1059 H1064 0.984 . S
N1059 H1065 0.985 . S
C1060 C1054 1.379 . S
C1060 C1057 1.363 . S
C1060 N1058 1.356 . S
C1061 C1055 1.363 . S
C1061 C1056 1.379 . S
C1061 N1059 1.356 . S
N1062 C1054 1.356 . S
N1062 H1068 0.984 . S
N1062 H1069 0.984 . S
N1063 C1056 1.356 . S
N1063 H1066 0.984 . S
N1063 H1067 0.985 . S
H1064 N1059 0.984 . S
H1065 N1059 0.985 . S
H1066 N1063 0.984 . S
H1067 N1063 0.985 . S
H1068 N1062 0.984 . S
H1069 N1062 0.984 . S
H1070 N1058 0.984 . S
H1071 N1058 0.985 . S
C1072 C1073 1.363 . S
C1072 C1078 1.379 1_655 S
C1072 N1080 1.356 . S
C1073 C1072 1.363 . S
C1073 C1079 1.363 1_565 S
C1074 C1075 1.363 . S
C1074 C1079 1.379 1_455 S
C1074 N1081 1.356 . S
C1075 C1074 1.363 . S
C1075 C1078 1.363 1_545 S
N1076 C1078 1.356 . S
N1076 H1088 0.984 . S
N1076 H1089 0.985 . S
N1077 C1079 1.356 . S
N1077 H1082 0.984 . S
N1077 H1083 0.985 . S
C1078 C1072 1.379 1_455 S
C1078 C1075 1.363 1_565 S
C1078 N1076 1.356 . S
C1079 C1073 1.363 1_545 S
C1079 C1074 1.379 1_655 S
C1079 N1077 1.356 . S
N1080 C1072 1.356 . S
N1080 H1086 0.984 . S
N1080 H1087 0.984 . S
N1081 C1074 1.356 . S
N1081 H1084 0.984 . S
N1081 H1085 0.985 . S
H1082 N1077 0.984 . S
H1083 N1077 0.985 . S
H1084 N1081 0.984 . S
H1085 N1081 0.985 . S
H1086 N1080 0.984 . S
H1087 N1080 0.984 . S
H1088 N1076 0.984 . S
H1089 N1076 0.985 . S
C1090 C1091 1.363 . S
C1090 C1096 1.379 1_655 S
C1090 N1098 1.356 . S
C1091 C1090 1.363 . S
C1091 C1097 1.363 1_545 S
C1092 C1093 1.363 . S
C1092 C1097 1.379 1_455 S
C1092 N1099 1.356 . S
C1093 C1092 1.363 . S
C1093 C1096 1.363 1_565 S
N1094 C1096 1.356 . S
N1094 H1106 0.984 . S
N1094 H1107 0.985 . S
N1095 C1097 1.356 . S
N1095 H1100 0.984 . S
N1095 H1101 0.985 . S
C1096 C1090 1.379 1_455 S
C1096 C1093 1.363 1_545 S
C1096 N1094 1.356 . S
C1097 C1091 1.363 1_565 S
C1097 C1092 1.379 1_655 S
C1097 N1095 1.356 . S
N1098 C1090 1.356 . S
N1098 H1104 0.984 . S
N1098 H1105 0.984 . S
N1099 C1092 1.356 . S
N1099 H1102 0.984 . S
N1099 H1103 0.985 . S
H1100 N1095 0.984 . S
H1101 N1095 0.985 . S
H1102 N1099 0.984 . S
H1103 N1099 0.985 . S
H1104 N1098 0.984 . S
H1105 N1098 0.984 . S
H1106 N1094 0.984 . S
H1107 N1094 0.985 . S
C1108 C1109 1.363 . S
C1108 C1114 1.379 1_455 S
C1108 N1116 1.356 . S
C1109 C1108 1.363 . S
C1109 C1115 1.363 1_545 S
C1110 C1111 1.363 . S
C1110 C1115 1.379 1_655 S
C1110 N1117 1.356 . S
C1111 C1110 1.363 . S
C1111 C1114 1.363 1_565 S
N1112 C1114 1.356 . S
N1112 H1124 0.984 . S
N1112 H1125 0.985 . S
N1113 C1115 1.356 . S
N1113 H1118 0.984 . S
N1113 H1119 0.985 . S
C1114 C1108 1.379 1_655 S
C1114 C1111 1.363 1_545 S
C1114 N1112 1.356 . S
C1115 C1109 1.363 1_565 S
C1115 C1110 1.379 1_455 S
C1115 N1113 1.356 . S
N1116 C1108 1.356 . S
N1116 H1122 0.984 . S
N1116 H1123 0.984 . S
N1117 C1110 1.356 . S
N1117 H1120 0.984 . S
N1117 H1121 0.985 . S
H1118 N1113 0.984 . S
H1119 N1113 0.985 . S
H1120 N1117 0.984 . S
H1121 N1117 0.985 . S
H1122 N1116 0.984 . S
H1123 N1116 0.984 . S
H1124 N1112 0.984 . S
H1125 N1112 0.985 . S
C1126 C1127 1.363 . S
C1126 C1132 1.379 1_655 S
C1126 N1134 1.356 . S
C1127 C1126 1.363 . S
C1127 C1133 1.363 1_545 S
C1128 C1129 1.363 . S
C1128 C1133 1.379 1_455 S
C1128 N1135 1.356 . S
C1129 C1128 1.363 . S
C1129 C1132 1.363 1_565 S
N1130 C1132 1.356 . S
N1130 H1142 0.984 . S
N1130 H1143 0.985 . S
N1131 C1133 1.356 . S
N1131 H1136 0.984 . S
N1131 H1137 0.985 . S
C1132 C1126 1.379 1_455 S
C1132 C1129 1.363 1_545 S
C1132 N1130 1.356 . S
C1133 C1127 1.363 1_565 S
C1133 C1128 1.379 1_655 S
C1133 N1131 1.356 . S
N1134 C1126 1.356 . S
N1134 H1140 0.984 . S
N1134 H1141 0.984 . S
N1135 C1128 1.356 . S
N1135 H1138 0.984 . S
N1135 H1139 0.985 . S
H1136 N1131 0.984 . S
H1137 N1131 0.985 . S
H1138 N1135 0.984 . S
H1139 N1135 0.985 . S
H1140 N1134 0.984 . S
H1141 N1134 0.984 . S
H1142 N1130 0.984 . S
H1143 N1130 0.985 . S
C1144 C1145 1.363 . S
C1144 C1150 1.379 . S
C1144 N1152 1.356 . S
C1145 C1144 1.363 . S
C1145 C1151 1.363 . S
C1146 C1147 1.363 . S
C1146 C1151 1.379 . S
C1146 N1153 1.356 . S
C1147 C1146 1.363 . S
C1147 C1150 1.363 . S
N1148 C1150 1.356 . S
N1148 H1160 0.984 . S
N1148 H1161 0.985 . S
N1149 C1151 1.356 . S
N1149 H1154 0.984 . S
N1149 H1155 0.985 . S
C1150 C1144 1.379 . S
C1150 C1147 1.363 . S
C1150 N1148 1.356 . S
C1151 C1145 1.363 . S
C1151 C1146 1.379 . S
C1151 N1149 1.356 . S
N1152 C1144 1.356 . S
N1152 H1158 0.984 . S
N1152 H1159 0.984 . S
N1153 C1146 1.356 . S
N1153 H1156 0.984 . S
N1153 H1157 0.985 . S
H1154 N1149 0.984 . S
H1155 N1149 0.985 . S
H1156 N1153 0.984 . S
H1157 N1153 0.985 . S
H1158 N1152 0.984 . S
H1159 N1152 0.984 . S
H1160 N1148 0.984 . S
H1161 N1148 0.985 . S
C1162 C1163 1.363 . S
C1162 C1168 1.379 . S
C1162 N1170 1.356 . S
C1163 C1162 1.363 . S
C1163 C1169 1.363 . S
C1164 C1165 1.363 . S
C1164 C1169 1.379 . S
C1164 N1171 1.356 . S
C1165 C1164 1.363 . S
C1165 C1168 1.363 . S
N1166 C1168 1.356 . S
N1166 H1178 0.984 . S
N1166 H1179 0.985 . S
N1167 C1169 1.356 . S
N1167 H1172 0.984 . S
N1167 H1173 0.985 . S
C1168 C1162 1.379 . S
C1168 C1165 1.363 . S
C1168 N1166 1.356 . S
C1169 C1163 1.363 . S
C1169 C1164 1.379 . S
C1169 N1167 1.356 . S
N1170 C1162 1.356 . S
N1170 H1176 0.984 . S
N1170 H1177 0.984 . S
N1171 C1164 1.356 . S
N1171 H1174 0.984 . S
N1171 H1175 0.985 . S
H1172 N1167 0.984 . S
H1173 N1167 0.985 . S
H1174 N1171 0.984 . S
H1175 N1171 0.985 . S
H1176 N1170 0.984 . S
H1177 N1170 0.984 . S
H1178 N1166 0.984 . S
H1179 N1166 0.985 . S
C1180 C1181 1.363 . S
C1180 C1186 1.379 . S
C1180 N1188 1.356 . S
C1181 C1180 1.363 . S
C1181 C1187 1.363 . S
C1182 C1183 1.363 . S
C1182 C1187 1.379 . S
C1182 N1189 1.356 . S
C1183 C1182 1.363 . S
C1183 C1186 1.363 . S
N1184 C1186 1.356 . S
N1184 H1196 0.984 . S
N1184 H1197 0.985 . S
N1185 C1187 1.356 . S
N1185 H1190 0.984 . S
N1185 H1191 0.985 . S
C1186 C1180 1.379 . S
C1186 C1183 1.363 . S
C1186 N1184 1.356 . S
C1187 C1181 1.363 . S
C1187 C1182 1.379 . S
C1187 N1185 1.356 . S
N1188 C1180 1.356 . S
N1188 H1194 0.984 . S
N1188 H1195 0.984 . S
N1189 C1182 1.356 . S
N1189 H1192 0.984 . S
N1189 H1193 0.985 . S
H1190 N1185 0.984 . S
H1191 N1185 0.985 . S
H1192 N1189 0.984 . S
H1193 N1189 0.985 . S
H1194 N1188 0.984 . S
H1195 N1188 0.984 . S
H1196 N1184 0.984 . S
H1197 N1184 0.985 . S
C1198 C1199 1.363 . S
C1198 C1204 1.379 . S
C1198 N1206 1.356 . S
C1199 C1198 1.363 . S
C1199 C1205 1.363 . S
C1200 C1201 1.363 . S
C1200 C1205 1.379 . S
C1200 N1207 1.356 . S
C1201 C1200 1.363 . S
C1201 C1204 1.363 . S
N1202 C1204 1.356 . S
N1202 H1214 0.984 . S
N1202 H1215 0.985 . S
N1203 C1205 1.356 . S
N1203 H1208 0.984 . S
N1203 H1209 0.985 . S
C1204 C1198 1.379 . S
C1204 C1201 1.363 . S
C1204 N1202 1.356 . S
C1205 C1199 1.363 . S
C1205 C1200 1.379 . S
C1205 N1203 1.356 . S
N1206 C1198 1.356 . S
N1206 H1212 0.984 . S
N1206 H1213 0.984 . S
N1207 C1200 1.356 . S
N1207 H1210 0.984 . S
N1207 H1211 0.985 . S
H1208 N1203 0.984 . S
H1209 N1203 0.985 . S
H1210 N1207 0.984 . S
H1211 N1207 0.985 . S
H1212 N1206 0.984 . S
H1213 N1206 0.984 . S
H1214 N1202 0.984 . S
H1215 N1202 0.985 . S
C1216 C1217 1.363 . S
C1216 C1222 1.379 . S
C1216 N1224 1.356 . S
C1217 C1216 1.363 . S
C1217 C1223 1.363 . S
C1218 C1219 1.363 . S
C1218 C1223 1.379 . S
C1218 N1225 1.356 . S
C1219 C1218 1.363 . S
C1219 C1222 1.363 . S
N1220 C1222 1.356 . S
N1220 H1232 0.984 . S
N1220 H1233 0.985 . S
N1221 C1223 1.356 . S
N1221 H1226 0.984 . S
N1221 H1227 0.985 . S
C1222 C1216 1.379 . S
C1222 C1219 1.363 . S
C1222 N1220 1.356 . S
C1223 C1217 1.363 . S
C1223 C1218 1.379 . S
C1223 N1221 1.356 . S
N1224 C1216 1.356 . S
N1224 H1230 0.984 . S
N1224 H1231 0.984 . S
N1225 C1218 1.356 . S
N1225 H1228 0.984 . S
N1225 H1229 0.985 . S
H1226 N1221 0.984 . S
H1227 N1221 0.985 . S
H1228 N1225 0.984 . S
H1229 N1225 0.985 . S
H1230 N1224 0.984 . S
H1231 N1224 0.984 . S
H1232 N1220 0.984 . S
H1233 N1220 0.985 . S
C1234 C1235 1.363 . S
C1234 C1240 1.379 . S
C1234 N1242 1.356 . S
C1235 C1234 1.363 . S
C1235 C1241 1.363 . S
C1236 C1237 1.363 . S
C1236 C1241 1.379 . S
C1236 N1243 1.356 . S
C1237 C1236 1.363 . S
C1237 C1240 1.363 . S
N1238 C1240 1.356 . S
N1238 H1250 0.984 . S
N1238 H1251 0.985 . S
N1239 C1241 1.356 . S
N1239 H1244 0.984 . S
N1239 H1245 0.985 . S
C1240 C1234 1.379 . S
C1240 C1237 1.363 . S
C1240 N1238 1.356 . S
C1241 C1235 1.363 . S
C1241 C1236 1.379 . S
C1241 N1239 1.356 . S
N1242 C1234 1.356 . S
N1242 H1248 0.984 . S
N1242 H1249 0.984 . S
N1243 C1236 1.356 . S
N1243 H1246 0.984 . S
N1243 H1247 0.985 . S
H1244 N1239 0.984 . S
H1245 N1239 0.985 . S
H1246 N1243 0.984 . S
H1247 N1243 0.985 . S
H1248 N1242 0.984 . S
H1249 N1242 0.984 . S
H1250 N1238 0.984 . S
H1251 N1238 0.985 . S
C1252 C1253 1.363 . S
C1252 C1258 1.379 . S
C1252 N1260 1.356 . S
C1253 C1252 1.363 . S
C1253 C1259 1.363 . S
C1254 C1255 1.363 . S
C1254 C1259 1.379 . S
C1254 N1261 1.356 . S
C1255 C1254 1.363 . S
C1255 C1258 1.363 . S
N1256 C1258 1.356 . S
N1256 H1268 0.984 . S
N1256 H1269 0.985 . S
N1257 C1259 1.356 . S
N1257 H1262 0.984 . S
N1257 H1263 0.985 . S
C1258 C1252 1.379 . S
C1258 C1255 1.363 . S
C1258 N1256 1.356 . S
C1259 C1253 1.363 . S
C1259 C1254 1.379 . S
C1259 N1257 1.356 . S
N1260 C1252 1.356 . S
N1260 H1266 0.984 . S
N1260 H1267 0.984 . S
N1261 C1254 1.356 . S
N1261 H1264 0.984 . S
N1261 H1265 0.985 . S
H1262 N1257 0.984 . S
H1263 N1257 0.985 . S
H1264 N1261 0.984 . S
H1265 N1261 0.985 . S
H1266 N1260 0.984 . S
H1267 N1260 0.984 . S
H1268 N1256 0.984 . S
H1269 N1256 0.985 . S
C1270 C1271 1.363 . S
C1270 C1276 1.379 . S
C1270 N1278 1.356 . S
C1271 C1270 1.363 . S
C1271 C1277 1.363 . S
C1272 C1273 1.363 . S
C1272 C1277 1.379 . S
C1272 N1279 1.356 . S
C1273 C1272 1.363 . S
C1273 C1276 1.363 . S
N1274 C1276 1.356 . S
N1274 H1286 0.984 . S
N1274 H1287 0.985 . S
N1275 C1277 1.356 . S
N1275 H1280 0.984 . S
N1275 H1281 0.985 . S
C1276 C1270 1.379 . S
C1276 C1273 1.363 . S
C1276 N1274 1.356 . S
C1277 C1271 1.363 . S
C1277 C1272 1.379 . S
C1277 N1275 1.356 . S
N1278 C1270 1.356 . S
N1278 H1284 0.984 . S
N1278 H1285 0.984 . S
N1279 C1272 1.356 . S
N1279 H1282 0.984 . S
N1279 H1283 0.985 . S
H1280 N1275 0.984 . S
H1281 N1275 0.985 . S
H1282 N1279 0.984 . S
H1283 N1279 0.985 . S
H1284 N1278 0.984 . S
H1285 N1278 0.984 . S
H1286 N1274 0.984 . S
H1287 N1274 0.985 . S
C1288 C1289 1.363 . S
C1288 C1294 1.379 . S
C1288 N1296 1.356 . S
C1289 C1288 1.363 . S
C1289 C1295 1.363 . S
C1290 C1291 1.363 . S
C1290 C1295 1.379 . S
C1290 N1297 1.356 . S
C1291 C1290 1.363 . S
C1291 C1294 1.363 . S
N1292 C1294 1.356 . S
N1292 H1304 0.984 . S
N1292 H1305 0.985 . S
N1293 C1295 1.356 . S
N1293 H1298 0.984 . S
N1293 H1299 0.985 . S
C1294 C1288 1.379 . S
C1294 C1291 1.363 . S
C1294 N1292 1.356 . S
C1295 C1289 1.363 . S
C1295 C1290 1.379 . S
C1295 N1293 1.356 . S
N1296 C1288 1.356 . S
N1296 H1302 0.984 . S
N1296 H1303 0.984 . S
N1297 C1290 1.356 . S
N1297 H1300 0.984 . S
N1297 H1301 0.985 . S
H1298 N1293 0.984 . S
H1299 N1293 0.985 . S
H1300 N1297 0.984 . S
H1301 N1297 0.985 . S
H1302 N1296 0.984 . S
H1303 N1296 0.984 . S
H1304 N1292 0.984 . S
H1305 N1292 0.985 . S
C1306 C1307 1.363 . S
C1306 C1312 1.379 . S
C1306 N1314 1.356 . S
C1307 C1306 1.363 . S
C1307 C1313 1.363 . S
C1308 C1309 1.363 . S
C1308 C1313 1.379 . S
C1308 N1315 1.356 . S
C1309 C1308 1.363 . S
C1309 C1312 1.363 . S
N1310 C1312 1.356 . S
N1310 H1322 0.984 . S
N1310 H1323 0.985 . S
N1311 C1313 1.356 . S
N1311 H1316 0.984 . S
N1311 H1317 0.985 . S
C1312 C1306 1.379 . S
C1312 C1309 1.363 . S
C1312 N1310 1.356 . S
C1313 C1307 1.363 . S
C1313 C1308 1.379 . S
C1313 N1311 1.356 . S
N1314 C1306 1.356 . S
N1314 H1320 0.984 . S
N1314 H1321 0.984 . S
N1315 C1308 1.356 . S
N1315 H1318 0.984 . S
N1315 H1319 0.985 . S
H1316 N1311 0.984 . S
H1317 N1311 0.985 . S
H1318 N1315 0.984 . S
H1319 N1315 0.985 . S
H1320 N1314 0.984 . S
H1321 N1314 0.984 . S
H1322 N1310 0.984 . S
H1323 N1310 0.985 . S
C1324 C1325 1.363 . S
C1324 C1330 1.379 . S
C1324 N1332 1.356 . S
C1325 C1324 1.363 . S
C1325 C1331 1.363 . S
C1326 C1327 1.363 . S
C1326 C1331 1.379 . S
C1326 N1333 1.356 . S
C1327 C1326 1.363 . S
C1327 C1330 1.363 . S
N1328 C1330 1.356 . S
N1328 H1340 0.984 . S
N1328 H1341 0.985 . S
N1329 C1331 1.356 . S
N1329 H1334 0.984 . S
N1329 H1335 0.985 . S
C1330 C1324 1.379 . S
C1330 C1327 1.363 . S
C1330 N1328 1.356 . S
C1331 C1325 1.363 . S
C1331 C1326 1.379 . S
C1331 N1329 1.356 . S
N1332 C1324 1.356 . S
N1332 H1338 0.984 . S
N1332 H1339 0.984 . S
N1333 C1326 1.356 . S
N1333 H1336 0.984 . S
N1333 H1337 0.985 . S
H1334 N1329 0.984 . S
H1335 N1329 0.985 . S
H1336 N1333 0.984 . S
H1337 N1333 0.985 . S
H1338 N1332 0.984 . S
H1339 N1332 0.984 . S
H1340 N1328 0.984 . S
H1341 N1328 0.985 . S
C1342 C1343 1.363 . S
C1342 C1348 1.379 . S
C1342 N1350 1.356 . S
C1343 C1342 1.363 . S
C1343 C1349 1.363 . S
C1344 C1345 1.363 . S
C1344 C1349 1.379 . S
C1344 N1351 1.356 . S
C1345 C1344 1.363 . S
C1345 C1348 1.363 . S
N1346 C1348 1.356 . S
N1346 H1358 0.984 . S
N1346 H1359 0.985 . S
N1347 C1349 1.356 . S
N1347 H1352 0.984 . S
N1347 H1353 0.985 . S
C1348 C1342 1.379 . S
C1348 C1345 1.363 . S
C1348 N1346 1.356 . S
C1349 C1343 1.363 . S
C1349 C1344 1.379 . S
C1349 N1347 1.356 . S
N1350 C1342 1.356 . S
N1350 H1356 0.984 . S
N1350 H1357 0.984 . S
N1351 C1344 1.356 . S
N1351 H1354 0.984 . S
N1351 H1355 0.985 . S
H1352 N1347 0.984 . S
H1353 N1347 0.985 . S
H1354 N1351 0.984 . S
H1355 N1351 0.985 . S
H1356 N1350 0.984 . S
H1357 N1350 0.984 . S
H1358 N1346 0.984 . S
H1359 N1346 0.985 . S
C1360 C1361 1.363 . S
C1360 C1366 1.379 . S
C1360 N1368 1.356 . S
C1361 C1360 1.363 . S
C1361 C1367 1.363 . S
C1362 C1363 1.363 . S
C1362 C1367 1.379 . S
C1362 N1369 1.356 . S
C1363 C1362 1.363 . S
C1363 C1366 1.363 . S
N1364 C1366 1.356 . S
N1364 H1376 0.984 . S
N1364 H1377 0.985 . S
N1365 C1367 1.356 . S
N1365 H1370 0.984 1_545 S
N1365 H1371 0.985 . S
C1366 C1360 1.379 . S
C1366 C1363 1.363 . S
C1366 N1364 1.356 . S
C1367 C1361 1.363 . S
C1367 C1362 1.379 . S
C1367 N1365 1.356 . S
N1368 C1360 1.356 . S
N1368 H1374 0.984 . S
N1368 H1375 0.984 1_545 S
N1369 C1362 1.356 . S
N1369 H1372 0.984 . S
N1369 H1373 0.985 . S
H1370 N1365 0.984 1_565 S
H1371 N1365 0.985 . S
H1372 N1369 0.984 . S
H1373 N1369 0.985 . S
H1374 N1368 0.984 . S
H1375 N1368 0.984 1_565 S
H1376 N1364 0.984 . S
H1377 N1364 0.985 . S
C1378 C1379 1.363 . S
C1378 C1384 1.379 . S
C1378 N1386 1.356 . S
C1379 C1378 1.363 . S
C1379 C1385 1.363 . S
C1380 C1381 1.363 . S
C1380 C1385 1.379 . S
C1380 N1387 1.356 . S
C1381 C1380 1.363 . S
C1381 C1384 1.363 . S
N1382 C1384 1.356 . S
N1382 H1394 0.984 . S
N1382 H1395 0.985 1_565 S
N1383 C1385 1.356 . S
N1383 H1388 0.984 . S
N1383 H1389 0.985 . S
C1384 C1378 1.379 . S
C1384 C1381 1.363 . S
C1384 N1382 1.356 . S
C1385 C1379 1.363 . S
C1385 C1380 1.379 . S
C1385 N1383 1.356 . S
N1386 C1378 1.356 . S
N1386 H1392 0.984 . S
N1386 H1393 0.984 . S
N1387 C1380 1.356 . S
N1387 H1390 0.984 1_565 S
N1387 H1391 0.985 . S
H1388 N1383 0.984 . S
H1389 N1383 0.985 . S
H1390 N1387 0.984 1_545 S
H1391 N1387 0.985 . S
H1392 N1386 0.984 . S
H1393 N1386 0.984 . S
H1394 N1382 0.984 . S
H1395 N1382 0.985 1_545 S
C1396 C1397 1.363 . S
C1396 C1402 1.379 . S
C1396 N1404 1.356 . S
C1397 C1396 1.363 . S
C1397 C1403 1.363 . S
C1398 C1399 1.363 . S
C1398 C1403 1.379 . S
C1398 N1405 1.356 . S
C1399 C1398 1.363 . S
C1399 C1402 1.363 . S
N1400 C1402 1.356 . S
N1400 H1412 0.984 . S
N1400 H1413 0.985 . S
N1401 C1403 1.356 . S
N1401 H1406 0.984 1_565 S
N1401 H1407 0.985 . S
C1402 C1396 1.379 . S
C1402 C1399 1.363 . S
C1402 N1400 1.356 . S
C1403 C1397 1.363 . S
C1403 C1398 1.379 . S
C1403 N1401 1.356 . S
N1404 C1396 1.356 . S
N1404 H1410 0.984 . S
N1404 H1411 0.984 1_565 S
N1405 C1398 1.356 . S
N1405 H1408 0.984 . S
N1405 H1409 0.985 . S
H1406 N1401 0.984 1_545 S
H1407 N1401 0.985 . S
H1408 N1405 0.984 . S
H1409 N1405 0.985 . S
H1410 N1404 0.984 . S
H1411 N1404 0.984 1_545 S
H1412 N1400 0.984 . S
H1413 N1400 0.985 . S
C1414 C1415 1.363 . S
C1414 C1420 1.379 . S
C1414 N1422 1.356 . S
C1415 C1414 1.363 . S
C1415 C1421 1.363 . S
C1416 C1417 1.363 . S
C1416 C1421 1.379 . S
C1416 N1423 1.356 . S
C1417 C1416 1.363 . S
C1417 C1420 1.363 . S
N1418 C1420 1.356 . S
N1418 H1430 0.984 . S
N1418 H1431 0.985 . S
N1419 C1421 1.356 . S
N1419 H1424 0.984 1_545 S
N1419 H1425 0.985 . S
C1420 C1414 1.379 . S
C1420 C1417 1.363 . S
C1420 N1418 1.356 . S
C1421 C1415 1.363 . S
C1421 C1416 1.379 . S
C1421 N1419 1.356 . S
N1422 C1414 1.356 . S
N1422 H1428 0.984 . S
N1422 H1429 0.984 1_545 S
N1423 C1416 1.356 . S
N1423 H1426 0.984 . S
N1423 H1427 0.985 . S
H1424 N1419 0.984 1_565 S
H1425 N1419 0.985 . S
H1426 N1423 0.984 . S
H1427 N1423 0.985 . S
H1428 N1422 0.984 . S
H1429 N1422 0.984 1_565 S
H1430 N1418 0.984 . S
H1431 N1418 0.985 . S
C1432 C1433 1.363 . S
C1432 C1438 1.379 . S
C1432 N1440 1.356 . S
C1433 C1432 1.363 . S
C1433 C1439 1.363 . S
C1434 C1435 1.363 . S
C1434 C1439 1.379 . S
C1434 N1441 1.356 . S
C1435 C1434 1.363 . S
C1435 C1438 1.363 . S
N1436 C1438 1.356 . S
N1436 H1448 0.984 . S
N1436 H1449 0.985 1_565 S
N1437 C1439 1.356 . S
N1437 H1442 0.984 . S
N1437 H1443 0.985 . S
C1438 C1432 1.379 . S
C1438 C1435 1.363 . S
C1438 N1436 1.356 . S
C1439 C1433 1.363 . S
C1439 C1434 1.379 . S
C1439 N1437 1.356 . S
N1440 C1432 1.356 . S
N1440 H1446 0.984 . S
N1440 H1447 0.984 . S
N1441 C1434 1.356 . S
N1441 H1444 0.984 1_565 S
N1441 H1445 0.985 . S
H1442 N1437 0.984 . S
H1443 N1437 0.985 . S
H1444 N1441 0.984 1_545 S
H1445 N1441 0.985 . S
H1446 N1440 0.984 . S
H1447 N1440 0.984 . S
H1448 N1436 0.984 . S
H1449 N1436 0.985 1_545 S
C1450 C1451 1.363 . S
C1450 C1456 1.379 . S
C1450 N1458 1.356 . S
C1451 C1450 1.363 . S
C1451 C1457 1.363 . S
C1452 C1453 1.363 . S
C1452 C1457 1.379 . S
C1452 N1459 1.356 . S
C1453 C1452 1.363 . S
C1453 C1456 1.363 . S
N1454 C1456 1.356 . S
N1454 H1466 0.984 . S
N1454 H1467 0.985 1_545 S
N1455 C1457 1.356 . S
N1455 H1460 0.984 . S
N1455 H1461 0.985 . S
C1456 C1450 1.379 . S
C1456 C1453 1.363 . S
C1456 N1454 1.356 . S
C1457 C1451 1.363 . S
C1457 C1452 1.379 . S
C1457 N1455 1.356 . S
N1458 C1450 1.356 . S
N1458 H1464 0.984 . S
N1458 H1465 0.984 . S
N1459 C1452 1.356 . S
N1459 H1462 0.984 1_545 S
N1459 H1463 0.985 . S
H1460 N1455 0.984 . S
H1461 N1455 0.985 . S
H1462 N1459 0.984 1_565 S
H1463 N1459 0.985 . S
H1464 N1458 0.984 . S
H1465 N1458 0.984 . S
H1466 N1454 0.984 . S
H1467 N1454 0.985 1_565 S
C1468 C1469 1.363 . S
C1468 C1474 1.379 . S
C1468 N1476 1.356 . S
C1469 C1468 1.363 . S
C1469 C1475 1.363 . S
C1470 C1471 1.363 . S
C1470 C1475 1.379 . S
C1470 N1477 1.356 . S
C1471 C1470 1.363 . S
C1471 C1474 1.363 . S
N1472 C1474 1.356 . S
N1472 H1484 0.984 . S
N1472 H1485 0.985 . S
N1473 C1475 1.356 . S
N1473 H1478 0.984 1_545 S
N1473 H1479 0.985 . S
C1474 C1468 1.379 . S
C1474 C1471 1.363 . S
C1474 N1472 1.356 . S
C1475 C1469 1.363 . S
C1475 C1470 1.379 . S
C1475 N1473 1.356 . S
N1476 C1468 1.356 . S
N1476 H1482 0.984 . S
N1476 H1483 0.984 1_545 S
N1477 C1470 1.356 . S
N1477 H1480 0.984 . S
N1477 H1481 0.985 . S
H1478 N1473 0.984 1_565 S
H1479 N1473 0.985 . S
H1480 N1477 0.984 . S
H1481 N1477 0.985 . S
H1482 N1476 0.984 . S
H1483 N1476 0.984 1_565 S
H1484 N1472 0.984 . S
H1485 N1472 0.985 . S
C1486 C1487 1.363 . S
C1486 C1492 1.379 . S
C1486 N1494 1.356 . S
C1487 C1486 1.363 . S
C1487 C1493 1.363 . S
C1488 C1489 1.363 . S
C1488 C1493 1.379 . S
C1488 N1495 1.356 . S
C1489 C1488 1.363 . S
C1489 C1492 1.363 . S
N1490 C1492 1.356 . S
N1490 H1502 0.984 . S
N1490 H1503 0.985 1_565 S
N1491 C1493 1.356 . S
N1491 H1496 0.984 . S
N1491 H1497 0.985 . S
C1492 C1486 1.379 . S
C1492 C1489 1.363 . S
C1492 N1490 1.356 . S
C1493 C1487 1.363 . S
C1493 C1488 1.379 . S
C1493 N1491 1.356 . S
N1494 C1486 1.356 . S
N1494 H1500 0.984 . S
N1494 H1501 0.984 . S
N1495 C1488 1.356 . S
N1495 H1498 0.984 1_565 S
N1495 H1499 0.985 . S
H1496 N1491 0.984 . S
H1497 N1491 0.985 . S
H1498 N1495 0.984 1_545 S
H1499 N1495 0.985 . S
H1500 N1494 0.984 . S
H1501 N1494 0.984 . S
H1502 N1490 0.984 . S
H1503 N1490 0.985 1_545 S
C641 C24 1.617 . S
C643 C384 1.617 . S
C659 C64 1.617 . S
C661 C344 1.617 . S
C677 C464 1.617 . S
C679 C104 1.617 . S
C695 C144 1.617 . S
C697 C424 1.617 . S
C713 C533 1.617 . S
C715 C173 1.617 . S
C731 C493 1.617 . S
C733 C213 1.617 . S
C749 C613 1.617 . S
C751 C253 1.617 . S
C767 C293 1.617 . S
C769 C573 1.617 . S
C785 C103 1.767 . S
C787 C23 1.767 . S
C803 C143 1.767 . S
C805 C63 1.767 . S
C821 C242 1.767 . S
C823 C162 1.767 . S
C839 C202 1.767 . S
C841 C282 1.767 . S
C857 C423 1.767 . S
C859 C343 1.767 . S
C875 C463 1.767 . S
C877 C383 1.767 . S
C893 C482 1.767 . S
C895 C562 1.767 . S
C911 C522 1.767 . S
C913 C602 1.767 . S
C929 C223 1.556 . S
C931 C2 1.556 . S
C947 C183 1.556 . S
C949 C42 1.556 . S
C965 C82 1.556 . S
C967 C303 1.556 . S
C983 C263 1.556 . S
C985 C122 1.556 . S
C1001 C322 1.556 . S
C1003 C543 1.556 . S
C1019 C503 1.556 . S
C1021 C362 1.556 . S
C1037 C402 1.556 . S
C1039 C623 1.556 . S
C1055 C583 1.556 . S
C1057 C442 1.556 . S
C1073 C53 1.571 . S
C1075 C13 1.571 . S
C1091 C133 1.571 . S
C1093 C93 1.571 . S
C1109 C224 1.571 . S
C1111 C184 1.571 . S
C1127 C264 1.571 . S
C1129 C304 1.571 . S
C1145 C373 1.571 . S
C1147 C333 1.571 . S
C1163 C453 1.571 . S
C1165 C413 1.571 . S
C1181 C504 1.571 . S
C1183 C544 1.571 . S
C1199 C584 1.571 . S
C1201 C624 1.571 . S
C1217 C26 1.379 . S
C1219 C17 1.379 . S
C1235 C66 1.379 . S
C1237 C57 1.379 . S
C1253 C106 1.379 . S
C1255 C97 1.379 . S
C1271 C137 1.379 . S
C1273 C146 1.379 . S
C1289 C177 1.379 . S
C1291 C186 1.379 . S
C1307 C226 1.379 . S
C1309 C217 1.379 . S
C1325 C257 1.379 . S
C1327 C266 1.379 . S
C1343 C297 1.379 . S
C1345 C306 1.379 . S
C1361 C337 1.379 1_545 S
C1363 C346 1.379 . S
C1379 C386 1.379 . S
C1381 C377 1.379 1_565 S
C1397 C417 1.379 1_565 S
C1399 C426 1.379 . S
C1415 C457 1.379 1_545 S
C1417 C466 1.379 . S
C1433 C497 1.379 . S
C1435 C506 1.379 1_565 S
C1451 C537 1.379 . S
C1453 C546 1.379 1_545 S
C1469 C586 1.379 1_545 S
C1471 C577 1.379 . S
C1487 C617 1.379 . S
C1489 C626 1.379 1_565 S
