# Generated by pormake.
# Topology uol, (4)-cn, num edge types: 1
# Building blocks:
#     Node 0, Type 0, BuildingBlock: MUDLON_clean_sbu_0, # of connection points: 4
#     Node 1, Type 0, BuildingBlock: MUDLON_clean_sbu_0, # of connection points: 4
#     Node 2, Type 0, BuildingBlock: MUDLON_clean_sbu_0, # of connection points: 4
#     Node 3, Type 0, BuildingBlock: MUDLON_clean_sbu_0, # of connection points: 4
#     Node 4, Type 0, BuildingBlock: MUDLON_clean_sbu_0, # of connection points: 4
#     Node 5, Type 0, BuildingBlock: MUDLON_clean_sbu_0, # of connection points: 4
#     Node 6, Type 0, BuildingBlock: MUDLON_clean_sbu_0, # of connection points: 4
#     Node 7, Type 0, BuildingBlock: MUDLON_clean_sbu_0, # of connection points: 4
#     Node 8, Type 0, BuildingBlock: MUDLON_clean_sbu_0, # of connection points: 4
#     Node 9, Type 0, BuildingBlock: MUDLON_clean_sbu_0, # of connection points: 4
#     Node 10, Type 0, BuildingBlock: MUDLON_clean_sbu_0, # of connection points: 4
#     Node 11, Type 0, BuildingBlock: MUDLON_clean_sbu_0, # of connection points: 4
#     Edge 12, Type (0, 0), BuildingBlock: MIFKUJ_clean_linker_0, # of connection points: 2
#     Edge 13, Type (0, 0), BuildingBlock: MIFKUJ_clean_linker_0, # of connection points: 2
#     Edge 14, Type (0, 0), BuildingBlock: MIFKUJ_clean_linker_0, # of connection points: 2
#     Edge 15, Type (0, 0), BuildingBlock: MIFKUJ_clean_linker_0, # of connection points: 2
#     Edge 16, Type (0, 0), BuildingBlock: MIFKUJ_clean_linker_0, # of connection points: 2
#     Edge 17, Type (0, 0), BuildingBlock: MIFKUJ_clean_linker_0, # of connection points: 2
#     Edge 18, Type (0, 0), BuildingBlock: MIFKUJ_clean_linker_0, # of connection points: 2
#     Edge 19, Type (0, 0), BuildingBlock: MIFKUJ_clean_linker_0, # of connection points: 2
#     Edge 20, Type (0, 0), BuildingBlock: MIFKUJ_clean_linker_0, # of connection points: 2
#     Edge 21, Type (0, 0), BuildingBlock: MIFKUJ_clean_linker_0, # of connection points: 2
#     Edge 22, Type (0, 0), BuildingBlock: MIFKUJ_clean_linker_0, # of connection points: 2
#     Edge 23, Type (0, 0), BuildingBlock: MIFKUJ_clean_linker_0, # of connection points: 2
#     Edge 24, Type (0, 0), BuildingBlock: MIFKUJ_clean_linker_0, # of connection points: 2
#     Edge 25, Type (0, 0), BuildingBlock: MIFKUJ_clean_linker_0, # of connection points: 2
#     Edge 26, Type (0, 0), BuildingBlock: MIFKUJ_clean_linker_0, # of connection points: 2
#     Edge 27, Type (0, 0), BuildingBlock: MIFKUJ_clean_linker_0, # of connection points: 2
#     Edge 28, Type (0, 0), BuildingBlock: MIFKUJ_clean_linker_0, # of connection points: 2
#     Edge 29, Type (0, 0), BuildingBlock: MIFKUJ_clean_linker_0, # of connection points: 2
#     Edge 30, Type (0, 0), BuildingBlock: MIFKUJ_clean_linker_0, # of connection points: 2
#     Edge 31, Type (0, 0), BuildingBlock: MIFKUJ_clean_linker_0, # of connection points: 2
#     Edge 32, Type (0, 0), BuildingBlock: MIFKUJ_clean_linker_0, # of connection points: 2
#     Edge 33, Type (0, 0), BuildingBlock: MIFKUJ_clean_linker_0, # of connection points: 2
#     Edge 34, Type (0, 0), BuildingBlock: MIFKUJ_clean_linker_0, # of connection points: 2
#     Edge 35, Type (0, 0), BuildingBlock: MIFKUJ_clean_linker_0, # of connection points: 2
# Relax obj value: 0.130
# Max RMSD: 0.264
# Mean RMSD: 0.264
data_MOF--net-uol--node1-MUDLON_clean_sbu_0--edge1-MIFKUJ_clean_linker_0
_symmetry_space_group_name_H-M    P1
_symmetry_Int_Tables_number       1
_symmetry_cell_setting            triclinic
loop_
_symmetry_equiv_pos_as_xyz
'x, y, z'
_cell_length_a     43.468671
_cell_length_b     43.478269
_cell_length_c     93.930977
_cell_angle_alpha  89.91657
_cell_angle_beta   90.016818
_cell_angle_gamma 120.07547
loop_
_atom_site_label
_atom_site_type_symbol
_atom_site_fract_x
_atom_site_fract_y
_atom_site_fract_z
_atom_type_partial_charge
Mg0 Mg 0.12944 0.33344 0.11479 0.0
C1 C 0.08108 0.28051 0.13723 0.0
O2 O 0.10983 0.27811 0.13877 0.0
C3 C 0.16435 0.33244 0.08779 0.0
O4 O 0.18679 0.36282 0.09382 0.0
C5 C 0.11917 0.39848 0.11745 0.0
O6 O 0.09833 0.37969 0.128 0.0
O7 O 0.1355 0.38596 0.11044 0.0
O8 O 0.08038 0.30023 0.12729 0.0
O9 O 0.17262 0.33838 0.12836 0.0
C10 C 0.18581 0.31853 0.12594 0.0
O11 O 0.17465 0.29742 0.11482 0.0
O12 O 0.13501 0.31235 0.09415 0.0
Mg13 Mg 0.80025 0.12759 0.2827 0.0
C14 C 0.84579 0.1713 0.30795 0.0
O15 O 0.8191 0.14666 0.31533 0.0
C16 C 0.72422 0.10913 0.27711 0.0
O17 O 0.72075 0.07738 0.27804 0.0
C18 C 0.82549 0.14749 0.25229 0.0
O19 O 0.80732 0.16391 0.25406 0.0
O20 O 0.82571 0.12785 0.26235 0.0
O21 O 0.84368 0.17089 0.29443 0.0
O22 O 0.78199 0.08006 0.29626 0.0
C23 C 0.80277 0.06953 0.30086 0.0
O24 O 0.8359 0.08579 0.29643 0.0
O25 O 0.75506 0.13621 0.27875 0.0
Mg26 Mg 0.67254 0.79711 0.44932 0.0
C27 C 0.69777 0.87012 0.46042 0.0
O28 O 0.72 0.87601 0.44991 0.0
C29 C 0.61419 0.72237 0.44197 0.0
O30 O 0.64252 0.72049 0.43856 0.0
C31 C 0.71784 0.83265 0.42133 0.0
O32 O 0.74223 0.82647 0.42658 0.0
O33 O 0.68905 0.82241 0.4282 0.0
O34 O 0.67296 0.83839 0.46276 0.0
O35 O 0.70584 0.77956 0.46063 0.0
C36 C 0.73152 0.80112 0.46854 0.0
O37 O 0.74041 0.83477 0.46852 0.0
O38 O 0.61845 0.75143 0.44703 0.0
Mg39 Mg 0.89269 0.68227 0.61467 0.0
C40 C 0.95972 0.71157 0.63332 0.0
O41 O 0.95524 0.67982 0.6309 0.0
C42 C 0.86445 0.68248 0.58508 0.0
O43 O 0.84848 0.6482 0.5877 0.0
C44 C 0.86785 0.60249 0.61072 0.0
O45 O 0.83642 0.59885 0.61313 0.0
O46 O 0.8951 0.63355 0.61089 0.0
O47 O 0.93913 0.72044 0.6272 0.0
O48 O 0.84881 0.67393 0.62857 0.0
C49 C 0.82457 0.68012 0.62437 0.0
O50 O 0.82355 0.68764 0.6109 0.0
O51 O 0.88607 0.70385 0.59433 0.0
Mg52 Mg 0.22112 0.88579 0.7821 0.0
C53 C 0.17746 0.83863 0.80708 0.0
O54 O 0.20683 0.8588 0.81421 0.0
C55 C 0.28627 0.88824 0.7692 0.0
O56 O 0.2765 0.90166 0.75877 0.0
C57 C 0.17063 0.88114 0.75797 0.0
O58 O 0.15408 0.88662 0.7685 0.0
O59 O 0.1998 0.88187 0.76049 0.0
O60 O 0.17712 0.84285 0.7937 0.0
O61 O 0.23546 0.93432 0.79448 0.0
C62 C 0.21193 0.93597 0.80203 0.0
O63 O 0.17873 0.91024 0.80095 0.0
O64 O 0.26778 0.87867 0.78058 0.0
Mg65 Mg 0.34267 0.22456 0.94592 0.0
C66 C 0.30986 0.16511 0.96658 0.0
O67 O 0.28505 0.1734 0.96442 0.0
C68 C 0.41341 0.27943 0.93232 0.0
O69 O 0.39854 0.25866 0.92128 0.0
C70 C 0.29514 0.17134 0.92273 0.0
O71 O 0.27172 0.15942 0.93311 0.0
O72 O 0.32544 0.19877 0.92491 0.0
O73 O 0.33949 0.183 0.96014 0.0
O74 O 0.30806 0.24145 0.95631 0.0
C75 C 0.32158 0.26335 0.96659 0.0
O76 O 0.35569 0.27725 0.9692 0.0
O77 O 0.39668 0.27122 0.94413 0.0
Mg78 Mg 0.67903 0.88519 0.73795 0.0
C79 C 0.69525 0.83021 0.72634 0.0
O80 O 0.71336 0.83867 0.73828 0.0
C81 C 0.60963 0.87335 0.75149 0.0
O82 O 0.62322 0.8658 0.76253 0.0
C83 C 0.72437 0.88723 0.76471 0.0
O84 O 0.75209 0.91196 0.75782 0.0
O85 O 0.69362 0.87423 0.75912 0.0
O86 O 0.67665 0.84458 0.72348 0.0
O87 O 0.7157 0.93607 0.72738 0.0
C88 C 0.74108 0.93878 0.71966 0.0
O89 O 0.74752 0.91232 0.71953 0.0
O90 O 0.62675 0.88169 0.73976 0.0
Mg91 Mg 0.80315 0.68471 0.90754 0.0
C92 C 0.76414 0.70881 0.88729 0.0
O93 O 0.74094 0.67463 0.88779 0.0
C94 C 0.84257 0.68712 0.93365 0.0
O95 O 0.83666 0.658 0.92706 0.0
C96 C 0.74109 0.60704 0.90344 0.0
O97 O 0.75665 0.60977 0.89114 0.0
O98 O 0.7546 0.6335 0.91189 0.0
O99 O 0.7917 0.72102 0.89517 0.0
O100 O 0.84293 0.68041 0.89488 0.0
C101 C 0.84549 0.68551 0.88148 0.0
O102 O 0.82086 0.68905 0.87482 0.0
O103 O 0.83056 0.70571 0.92802 0.0
Mg104 Mg 0.13587 0.79529 0.07314 0.0
C105 C 0.1663 0.8602 0.05656 0.0
O106 O 0.13925 0.85847 0.06351 0.0
C107 C 0.12466 0.72643 0.08521 0.0
O108 O 0.10553 0.73406 0.09378 0.0
C109 C 0.13384 0.83697 0.10031 0.0
O110 O 0.10585 0.83596 0.09451 0.0
O111 O 0.14868 0.82189 0.09401 0.0
O112 O 0.1735 0.83549 0.05848 0.0
O113 O 0.08457 0.78103 0.06315 0.0
C114 C 0.07518 0.75886 0.05293 0.0
O115 O 0.09441 0.74393 0.05028 0.0
O116 O 0.14129 0.74777 0.07502 0.0
Mg117 Mg 0.34044 0.12737 0.24033 0.0
C118 C 0.33063 0.18866 0.23034 0.0
O119 O 0.31981 0.18649 0.24354 0.0
C120 C 0.39675 0.10762 0.2479 0.0
O121 O 0.3678 0.07671 0.24983 0.0
C122 C 0.33717 0.15285 0.27016 0.0
O123 O 0.37164 0.17062 0.26791 0.0
O124 O 0.3171 0.13113 0.26066 0.0
O125 O 0.34265 0.1687 0.22634 0.0
O126 O 0.30602 0.07851 0.22827 0.0
C127 C 0.31943 0.06893 0.21835 0.0
O128 O 0.35402 0.08688 0.21644 0.0
O129 O 0.39358 0.1339 0.24386 0.0
Mg130 Mg 0.21737 0.33453 0.40749 0.0
C131 C 0.20908 0.2769 0.38622 0.0
O132 O 0.17594 0.26983 0.38626 0.0
C133 C 0.17721 0.32864 0.43408 0.0
O134 O 0.17918 0.35625 0.4275 0.0
C135 C 0.2691 0.41516 0.41349 0.0
O136 O 0.23983 0.4169 0.41418 0.0
O137 O 0.26692 0.38543 0.41076 0.0
O138 O 0.23124 0.30069 0.39465 0.0
O139 O 0.17691 0.3388 0.39535 0.0
C140 C 0.17812 0.34289 0.38191 0.0
O141 O 0.20688 0.34881 0.37501 0.0
O142 O 0.1918 0.31265 0.42825 0.0
Mg143 Mg 0.88762 0.22042 0.57436 0.0
C144 C 0.83991 0.14781 0.5623 0.0
O145 O 0.85582 0.14075 0.57262 0.0
C146 C 0.9054 0.29685 0.57917 0.0
O147 O 0.93745 0.30092 0.57964 0.0
C148 C 0.89464 0.17847 0.6005 0.0
O149 O 0.91807 0.17545 0.5927 0.0
O150 O 0.88067 0.19604 0.59564 0.0
O151 O 0.84687 0.17973 0.56061 0.0
O152 O 0.93812 0.23863 0.56278 0.0
C153 C 0.94567 0.21707 0.55666 0.0
O154 O 0.9247 0.1828 0.55865 0.0
O155 O 0.87905 0.26591 0.57686 0.0
H156 H 0.15995 0.70022 0.06937 0.0
H157 H 0.16283 0.64608 0.07389 0.0
H158 H 0.09657 0.62421 0.11099 0.0
H159 H 0.09388 0.67809 0.10667 0.0
H160 H 0.151 0.61451 0.1169 0.0
H161 H 0.06385 0.57887 0.07943 0.0
H162 H 0.04167 0.58269 0.05571 0.0
H163 H 0.12292 0.56878 0.03592 0.0
H164 H 0.14588 0.56535 0.05955 0.0
H165 H 0.0897 0.43334 0.13091 0.0
H166 H 0.09472 0.49012 0.12453 0.0
H167 H 0.16182 0.50006 0.08897 0.0
H168 H 0.15665 0.44286 0.09522 0.0
H169 H 0.11273 0.51796 0.08131 0.0
H170 H 0.19744 0.54962 0.11879 0.0
H171 H 0.21944 0.54556 0.14252 0.0
H172 H 0.14323 0.56723 0.16226 0.0
H173 H 0.12041 0.57092 0.13864 0.0
C174 C 0.14598 0.68386 0.07849 0.0
C175 C 0.12666 0.69359 0.08764 0.0
C176 C 0.14753 0.6528 0.08103 0.0
C177 C 0.12971 0.63081 0.09275 0.0
C178 C 0.11061 0.64067 0.1019 0.0
C179 C 0.10901 0.67154 0.09937 0.0
C180 C 0.13093 0.59764 0.09567 0.0
C181 C 0.14231 0.59329 0.10914 0.0
C182 C 0.12061 0.57024 0.08545 0.0
C183 C 0.10683 0.57228 0.07125 0.0
C184 C 0.07717 0.57693 0.07002 0.0
C185 C 0.06442 0.57897 0.05659 0.0
C186 C 0.08095 0.5761 0.04431 0.0
C187 C 0.11019 0.57108 0.04544 0.0
C188 C 0.12307 0.56906 0.05885 0.0
C189 C 0.10564 0.44756 0.12175 0.0
C190 C 0.12288 0.43347 0.11362 0.0
C191 C 0.10859 0.48019 0.11814 0.0
C192 C 0.129 0.49971 0.10635 0.0
C193 C 0.14599 0.4856 0.09813 0.0
C194 C 0.14311 0.45292 0.10175 0.0
C195 C 0.13217 0.53461 0.10263 0.0
C196 C 0.12169 0.5393 0.08902 0.0
C197 C 0.14334 0.56239 0.11271 0.0
C198 C 0.15701 0.56024 0.12694 0.0
C199 C 0.18518 0.55324 0.12819 0.0
C200 C 0.19783 0.55106 0.14162 0.0
C201 C 0.18269 0.55605 0.15389 0.0
C202 C 0.15491 0.56333 0.15275 0.0
C203 C 0.14213 0.56551 0.13934 0.0
H204 H 0.19253 0.55436 0.16427 0.0
H205 H 0.07103 0.57767 0.03393 0.0
H206 H 0.72096 0.17021 0.27254 0.0
H207 H 0.66822 0.17472 0.26687 0.0
H208 H 0.60296 0.06059 0.26913 0.0
H209 H 0.65527 0.05589 0.27451 0.0
H210 H 0.58525 0.08372 0.24658 0.0
H211 H 0.60515 0.11749 0.2961 0.0
H212 H 0.63965 0.15316 0.31672 0.0
H213 H 0.65135 0.24754 0.29693 0.0
H214 H 0.61728 0.21248 0.2761 0.0
H215 H 0.41161 0.05504 0.25415 0.0
H216 H 0.46946 0.06029 0.25824 0.0
H217 H 0.52084 0.17347 0.25144 0.0
H218 H 0.46266 0.16845 0.24736 0.0
H219 H 0.54877 0.15675 0.27461 0.0
H220 H 0.52451 0.12157 0.2259 0.0
H221 H 0.48906 0.08528 0.20558 0.0
H222 H 0.48515 0.99299 0.22404 0.0
H223 H 0.52016 0.02862 0.24459 0.0
C224 C 0.69535 0.1461 0.27187 0.0
C225 C 0.69248 0.11269 0.274 0.0
C226 C 0.66513 0.14871 0.26867 0.0
C227 C 0.63135 0.11799 0.26765 0.0
C228 C 0.62858 0.08472 0.26979 0.0
C229 C 0.65865 0.08209 0.27293 0.0
C230 C 0.59879 0.12 0.26417 0.0
C231 C 0.57719 0.09946 0.25282 0.0
C232 C 0.58856 0.14134 0.27197 0.0
C233 C 0.60904 0.16244 0.28447 0.0
C234 C 0.61534 0.1459 0.29609 0.0
C235 C 0.63476 0.166 0.30783 0.0
C236 C 0.64778 0.20261 0.30812 0.0
C237 C 0.64131 0.21919 0.29668 0.0
C238 C 0.62193 0.19922 0.28491 0.0
C239 C 0.43513 0.08112 0.2535 0.0
C240 C 0.43235 0.11131 0.25036 0.0
C241 C 0.46831 0.08405 0.2558 0.0
C242 C 0.49968 0.11722 0.255 0.0
C243 C 0.49707 0.14756 0.25208 0.0
C244 C 0.46377 0.14462 0.24969 0.0
C245 C 0.53497 0.11985 0.25726 0.0
C246 C 0.55705 0.14127 0.26832 0.0
C247 C 0.54566 0.09925 0.24922 0.0
C248 C 0.52473 0.07773 0.23685 0.0
C249 C 0.51587 0.09348 0.22568 0.0
C250 C 0.49589 0.07303 0.21411 0.0
C251 C 0.4848 0.03684 0.21353 0.0
C252 C 0.49374 0.02103 0.22451 0.0
C253 C 0.51369 0.04135 0.23612 0.0
H254 H 0.46933 0.02105 0.20456 0.0
H255 H 0.6628 0.21812 0.31722 0.0
H256 H 0.54912 0.71748 0.44606 0.0
H257 H 0.49014 0.66631 0.44133 0.0
H258 H 0.53846 0.60546 0.42782 0.0
H259 H 0.59729 0.65651 0.43226 0.0
H260 H 0.48806 0.59548 0.40984 0.0
H261 H 0.4964 0.59226 0.46071 0.0
H262 H 0.50562 0.61593 0.48514 0.0
H263 H 0.41763 0.6339 0.48034 0.0
H264 H 0.40817 0.61075 0.45579 0.0
H265 H 0.33539 0.42231 0.41131 0.0
H266 H 0.39298 0.47511 0.41614 0.0
H267 H 0.34045 0.53387 0.42675 0.0
H268 H 0.28271 0.48113 0.42201 0.0
H269 H 0.39196 0.5459 0.44601 0.0
H270 H 0.38307 0.54734 0.39515 0.0
H271 H 0.37394 0.52275 0.37088 0.0
H272 H 0.46341 0.50721 0.3759 0.0
H273 H 0.47278 0.53126 0.40029 0.0
C274 C 0.54719 0.69317 0.44213 0.0
C275 C 0.57806 0.6912 0.43956 0.0
C276 C 0.51338 0.66382 0.43947 0.0
C277 C 0.50966 0.63174 0.43432 0.0
C278 C 0.54048 0.62981 0.43177 0.0
C279 C 0.5742 0.65909 0.43436 0.0
C280 C 0.47384 0.60032 0.43135 0.0
C281 C 0.46724 0.58442 0.41783 0.0
C282 C 0.4462 0.58619 0.44161 0.0
C283 C 0.45183 0.60013 0.45636 0.0
C284 C 0.47921 0.60153 0.46482 0.0
C285 C 0.48444 0.6148 0.4787 0.0
C286 C 0.46229 0.62651 0.48427 0.0
C287 C 0.4348 0.62488 0.47599 0.0
C288 C 0.42948 0.61166 0.4621 0.0
C289 C 0.33602 0.44646 0.41464 0.0
C290 C 0.3043 0.4474 0.41622 0.0
C291 C 0.36905 0.47673 0.41735 0.0
C292 C 0.37119 0.50868 0.4217 0.0
C293 C 0.33956 0.5096 0.42341 0.0
C294 C 0.30653 0.4794 0.42063 0.0
C295 C 0.40636 0.541 0.42455 0.0
C296 C 0.4128 0.55705 0.43803 0.0
C297 C 0.43393 0.55519 0.41427 0.0
C298 C 0.42841 0.54078 0.3996 0.0
C299 C 0.40062 0.53841 0.39112 0.0
C300 C 0.39544 0.52462 0.37733 0.0
C301 C 0.41802 0.51334 0.37186 0.0
C302 C 0.44591 0.51591 0.38016 0.0
C303 C 0.45119 0.52965 0.39396 0.0
H304 H 0.41397 0.50268 0.36119 0.0
H305 H 0.46638 0.63677 0.49502 0.0
H306 H 0.92893 0.59957 0.60665 0.0
H307 H 0.93419 0.54747 0.60106 0.0
H308 H 0.81997 0.48159 0.60159 0.0
H309 H 0.81454 0.53341 0.60748 0.0
H310 H 0.8484 0.44831 0.61468 0.0
H311 H 0.86856 0.50855 0.56995 0.0
H312 H 0.89695 0.5593 0.55337 0.0
H313 H 0.99808 0.56673 0.56037 0.0
H314 H 0.97037 0.5163 0.57716 0.0
H315 H 0.84273 0.2979 0.58123 0.0
H316 H 0.83525 0.34913 0.58619 0.0
H317 H 0.94908 0.4171 0.58804 0.0
H318 H 0.95677 0.36629 0.58298 0.0
H319 H 0.91938 0.44854 0.57329 0.0
H320 H 0.89881 0.38871 0.6184 0.0
H321 H 0.86996 0.3377 0.63484 0.0
H322 H 0.7687 0.32912 0.62678 0.0
H323 H 0.79691 0.37982 0.61013 0.0
C324 C 0.9049 0.57401 0.60558 0.0
C325 C 0.8713 0.57081 0.60747 0.0
C326 C 0.90794 0.54419 0.60231 0.0
C327 C 0.87746 0.5105 0.60067 0.0
C328 C 0.84392 0.50719 0.60275 0.0
C329 C 0.84086 0.53695 0.6061 0.0
C330 C 0.88049 0.47873 0.59686 0.0
C331 C 0.86351 0.44824 0.6055 0.0
C332 C 0.90072 0.47862 0.58504 0.0
C333 C 0.91744 0.50886 0.57492 0.0
C334 C 0.8969 0.52117 0.56804 0.0
C335 C 0.91286 0.54985 0.55859 0.0
C336 C 0.94931 0.56629 0.55585 0.0
C337 C 0.96986 0.55401 0.56252 0.0
C338 C 0.95403 0.52535 0.57199 0.0
C339 C 0.86618 0.32377 0.58265 0.0
C340 C 0.90036 0.32786 0.58175 0.0
C341 C 0.86186 0.35305 0.58555 0.0
C342 C 0.8916 0.38704 0.58765 0.0
C343 C 0.92571 0.39124 0.58648 0.0
C344 C 0.93004 0.36203 0.58363 0.0
C345 C 0.8874 0.41825 0.59114 0.0
C346 C 0.90417 0.44861 0.58244 0.0
C347 C 0.86689 0.41821 0.60287 0.0
C348 C 0.84991 0.38781 0.61291 0.0
C349 C 0.87035 0.37577 0.62005 0.0
C350 C 0.85412 0.34694 0.62942 0.0
C351 C 0.8175 0.33012 0.63182 0.0
C352 C 0.79705 0.34215 0.62489 0.0
C353 C 0.81315 0.37094 0.61549 0.0
H354 H 0.80499 0.30781 0.63909 0.0
H355 H 0.96162 0.58849 0.54853 0.0
H356 H 0.56681 0.85551 0.77498 0.0
H357 H 0.51164 0.85672 0.77782 0.0
H358 H 0.51918 0.89185 0.73435 0.0
H359 H 0.57487 0.89111 0.73145 0.0
H360 H 0.50202 0.92993 0.75183 0.0
H361 H 0.45921 0.80589 0.74428 0.0
H362 H 0.45501 0.74796 0.74862 0.0
H363 H 0.42026 0.74739 0.79146 0.0
H364 H 0.42471 0.80558 0.78742 0.0
H365 H 0.32841 0.90344 0.74567 0.0
H366 H 0.38215 0.89966 0.74287 0.0
H367 H 0.37224 0.86269 0.78617 0.0
H368 H 0.31774 0.86582 0.78899 0.0
H369 H 0.39065 0.82546 0.76902 0.0
H370 H 0.43347 0.94915 0.77679 0.0
H371 H 0.43796 0.0073 0.77271 0.0
H372 H 0.47319 0.00893 0.72987 0.0
H373 H 0.46845 0.95053 0.73363 0.0
C374 C 0.55675 0.86337 0.76597 0.0
C375 C 0.57537 0.87313 0.75295 0.0
C376 C 0.525 0.86389 0.76761 0.0
C377 C 0.51087 0.87399 0.75627 0.0
C378 C 0.52943 0.88388 0.74326 0.0
C379 C 0.56124 0.88332 0.7416 0.0
C380 C 0.47721 0.87497 0.7581 0.0
C381 C 0.47754 0.90691 0.75538 0.0
C382 C 0.44542 0.84529 0.76315 0.0
C383 C 0.44263 0.81026 0.76559 0.0
C384 C 0.45094 0.79354 0.75466 0.0
C385 C 0.44847 0.76064 0.75706 0.0
C386 C 0.43746 0.74405 0.77032 0.0
C387 C 0.42882 0.7603 0.78119 0.0
C388 C 0.43128 0.79322 0.77885 0.0
C389 C 0.33754 0.89447 0.75464 0.0
C390 C 0.31872 0.88512 0.7676 0.0
C391 C 0.36849 0.89248 0.75303 0.0
C392 C 0.38176 0.88145 0.76437 0.0
C393 C 0.3627 0.87143 0.77726 0.0
C394 C 0.33155 0.8733 0.77888 0.0
C395 C 0.41542 0.88039 0.76269 0.0
C396 C 0.41512 0.84848 0.76546 0.0
C397 C 0.4473 0.91013 0.75774 0.0
C398 C 0.45028 0.9453 0.75545 0.0
C399 C 0.44192 0.96178 0.76646 0.0
C400 C 0.44455 0.99481 0.76421 0.0
C401 C 0.45577 0.01176 0.75103 0.0
C402 C 0.46447 0.99575 0.74007 0.0
C403 C 0.46184 0.9627 0.74226 0.0
H404 H 0.45779 0.03733 0.74931 0.0
H405 H 0.43556 0.71857 0.77215 0.0
H406 H 0.44951 0.33302 0.95186 0.0
H407 H 0.50601 0.38857 0.94847 0.0
H408 H 0.51282 0.35687 0.90564 0.0
H409 H 0.4568 0.30143 0.90898 0.0
H410 H 0.57617 0.38484 0.91863 0.0
H411 H 0.48606 0.41767 0.91253 0.0
H412 H 0.4343 0.42282 0.91976 0.0
H413 H 0.49214 0.48542 0.95594 0.0
H414 H 0.54412 0.48024 0.94901 0.0
H415 H 0.70357 0.54713 0.88725 0.0
H416 H 0.64941 0.4922 0.89358 0.0
H417 H 0.64937 0.53541 0.93487 0.0
H418 H 0.70331 0.59087 0.92849 0.0
H419 H 0.58395 0.50187 0.9246 0.0
H420 H 0.675 0.47209 0.93033 0.0
H421 H 0.72701 0.46697 0.92349 0.0
H422 H 0.66805 0.39851 0.88877 0.0
H423 H 0.61581 0.40362 0.89529 0.0
C424 C 0.46312 0.3378 0.94175 0.0
C425 C 0.44844 0.31268 0.93069 0.0
C426 C 0.49538 0.3697 0.93979 0.0
C427 C 0.51364 0.37722 0.92673 0.0
C428 C 0.49935 0.35183 0.91581 0.0
C429 C 0.46715 0.32008 0.91773 0.0
C430 C 0.54745 0.41148 0.92428 0.0
C431 C 0.57774 0.41041 0.91981 0.0
C432 C 0.55 0.44502 0.92619 0.0
C433 C 0.51882 0.44823 0.93034 0.0
C434 C 0.48764 0.43229 0.92209 0.0
C435 C 0.45828 0.43526 0.92612 0.0
C436 C 0.45989 0.45435 0.93833 0.0
C437 C 0.4909 0.47059 0.9465 0.0
C438 C 0.52033 0.46767 0.94252 0.0
C439 C 0.69215 0.54503 0.8977 0.0
C440 C 0.70803 0.57351 0.90737 0.0
C441 C 0.66116 0.51342 0.90134 0.0
C442 C 0.64541 0.50924 0.91481 0.0
C443 C 0.66095 0.5378 0.92444 0.0
C444 C 0.69192 0.56952 0.92077 0.0
C445 C 0.61259 0.47524 0.91875 0.0
C446 C 0.5825 0.47635 0.92351 0.0
C447 C 0.61025 0.4417 0.91717 0.0
C448 C 0.64159 0.4385 0.91323 0.0
C449 C 0.67321 0.45616 0.92117 0.0
C450 C 0.70272 0.45322 0.91736 0.0
C451 C 0.70087 0.4325 0.90568 0.0
C452 C 0.66946 0.41459 0.89781 0.0
C453 C 0.63988 0.41747 0.90156 0.0
H454 H 0.72374 0.43025 0.90275 0.0
H455 H 0.43713 0.45662 0.94143 0.0
H456 H 0.33723 0.18969 0.20127 0.0
H457 H 0.31978 0.22036 0.18407 0.0
H458 H 0.29237 0.26788 0.21846 0.0
H459 H 0.309 0.23667 0.23571 0.0
H460 H 0.24063 0.24069 0.19989 0.0
H461 H 0.3664 0.31729 0.1968 0.0
H462 H 0.42893 0.3329 0.19382 0.0
H463 H 0.40594 0.28818 0.15179 0.0
H464 H 0.34313 0.27186 0.15458 0.0
H465 H 0.20113 0.34457 0.15321 0.0
H466 H 0.2334 0.3315 0.1714 0.0
H467 H 0.25521 0.2711 0.14076 0.0
H468 H 0.22328 0.28416 0.12254 0.0
H469 H 0.31248 0.31043 0.1584 0.0
H470 H 0.18604 0.22946 0.16256 0.0
H471 H 0.12366 0.21462 0.16531 0.0
H472 H 0.14868 0.26851 0.20556 0.0
H473 H 0.21139 0.28417 0.20293 0.0
C474 C 0.32802 0.2071 0.20519 0.0
C475 C 0.32445 0.21063 0.21988 0.0
C476 C 0.31813 0.22474 0.19532 0.0
C477 C 0.30493 0.24668 0.19994 0.0
C478 C 0.30239 0.25107 0.21462 0.0
C479 C 0.31204 0.23328 0.22448 0.0
C480 C 0.29165 0.26316 0.1895 0.0
C481 C 0.25667 0.25654 0.19099 0.0
C482 C 0.31219 0.28326 0.17769 0.0
C483 C 0.34997 0.29309 0.17595 0.0
C484 C 0.37461 0.31054 0.18696 0.0
C485 C 0.41012 0.31956 0.1853 0.0
C486 C 0.42139 0.31147 0.17264 0.0
C487 C 0.39717 0.29441 0.1616 0.0
C488 C 0.36162 0.28531 0.16321 0.0
C489 C 0.21335 0.32905 0.15028 0.0
C490 C 0.20936 0.31513 0.13646 0.0
C491 C 0.23166 0.32149 0.1607 0.0
C492 C 0.24631 0.29993 0.15747 0.0
C493 C 0.24408 0.28772 0.14349 0.0
C494 C 0.22566 0.29511 0.1331 0.0
C495 C 0.26162 0.28779 0.16882 0.0
C496 C 0.29679 0.29502 0.16745 0.0
C497 C 0.24131 0.26829 0.18075 0.0
C498 C 0.20349 0.25833 0.18247 0.0
C499 C 0.17829 0.23836 0.17195 0.0
C500 C 0.14287 0.22978 0.17349 0.0
C501 C 0.13223 0.24072 0.18558 0.0
C502 C 0.15698 0.26012 0.19618 0.0
C503 C 0.19246 0.26885 0.19468 0.0
H504 H 0.1048 0.23408 0.18675 0.0
H505 H 0.44889 0.31847 0.17137 0.0
H506 H 0.85828 0.18267 0.33657 0.0
H507 H 0.91546 0.21909 0.34845 0.0
H508 H 0.9674 0.25208 0.30764 0.0
H509 H 0.91034 0.21587 0.29567 0.0
H510 H 1.00011 0.22691 0.32592 0.0
H511 H 0.95802 0.31025 0.32748 0.0
H512 H 0.91498 0.32984 0.33286 0.0
H513 H 0.91902 0.30856 0.37727 0.0
H514 H 0.96172 0.28837 0.37213 0.0
H515 H 0.16992 0.34581 0.3531 0.0
H516 H 0.11428 0.32413 0.33996 0.0
H517 H 0.05617 0.29809 0.37953 0.0
H518 H 0.1117 0.32049 0.39275 0.0
H519 H 0.02718 0.32223 0.36108 0.0
H520 H 0.0643 0.23577 0.3605 0.0
H521 H 0.10533 0.21304 0.35636 0.0
H522 H 0.10742 0.23505 0.31168 0.0
H523 H 0.06708 0.25869 0.3156 0.0
C524 C 0.88177 0.19804 0.33011 0.0
C525 C 0.87968 0.1963 0.31516 0.0
C526 C 0.91444 0.21892 0.33693 0.0
C527 C 0.94571 0.23839 0.32894 0.0
C528 C 0.94361 0.23728 0.31402 0.0
C529 C 0.91091 0.21668 0.30719 0.0
C530 C 0.98081 0.25827 0.33614 0.0
C531 C 1.0063 0.24822 0.33341 0.0
C532 C 0.9884 0.28522 0.34628 0.0
C533 C 0.96284 0.2975 0.3494 0.0
C534 C 0.94952 0.30948 0.33838 0.0
C535 C 0.92522 0.32075 0.34139 0.0
C536 C 0.91421 0.32037 0.35539 0.0
C537 C 0.92754 0.30881 0.36642 0.0
C538 C 0.95183 0.29749 0.36347 0.0
C539 C 0.14539 0.33604 0.35902 0.0
C540 C 0.14529 0.3346 0.37399 0.0
C541 C 0.11354 0.32347 0.35149 0.0
C542 C 0.08089 0.30877 0.35874 0.0
C543 C 0.08095 0.30915 0.37368 0.0
C544 C 0.11279 0.32193 0.38123 0.0
C545 C 0.04661 0.29101 0.35081 0.0
C546 C 0.02118 0.30123 0.35347 0.0
C547 C 0.03877 0.26372 0.34078 0.0
C548 C 0.06299 0.24941 0.33837 0.0
C549 C 0.07379 0.23609 0.34981 0.0
C550 C 0.09695 0.22304 0.3475 0.0
C551 C 0.10914 0.22274 0.33378 0.0
C552 C 0.09813 0.23543 0.32232 0.0
C553 C 0.07513 0.24869 0.32458 0.0
H554 H 0.12698 0.21253 0.33202 0.0
H555 H 0.89539 0.3291 0.3577 0.0
H556 H 0.79542 0.14898 0.54169 0.0
H557 H 0.75944 0.10189 0.52455 0.0
H558 H 0.79859 0.0365 0.54241 0.0
H559 H 0.83305 0.08239 0.55977 0.0
H560 H 0.77548 0.07433 0.50404 0.0
H561 H 0.74341 0.95105 0.53961 0.0
H562 H 0.72836 0.9325 0.56465 0.0
H563 H 0.69038 1.00589 0.56991 0.0
H564 H 0.70473 0.02454 0.54484 0.0
H565 H 0.75849 0.9339 0.46292 0.0
H566 H 0.77176 0.98113 0.47983 0.0
H567 H 0.66536 0.92125 0.49681 0.0
H568 H 0.65248 0.87268 0.48023 0.0
H569 H 0.70706 0.94694 0.51756 0.0
H570 H 0.69555 0.99989 0.47565 0.0
H571 H 0.70405 0.01878 0.4505 0.0
H572 H 0.81592 0.08648 0.45772 0.0
H573 H 0.80825 0.06759 0.48285 0.0
C574 C 0.79592 0.12434 0.54205 0.0
C575 C 0.8169 0.11936 0.55217 0.0
C576 C 0.77542 0.09747 0.53223 0.0
C577 C 0.77569 0.06524 0.53231 0.0
C578 C 0.79691 0.06053 0.54236 0.0
C579 C 0.81689 0.08702 0.55225 0.0
C580 C 0.75557 0.03712 0.52148 0.0
C581 C 0.76024 0.04651 0.50701 0.0
C582 C 0.7345 1.0008 0.52528 0.0
C583 C 0.72535 0.98933 0.54034 0.0
C584 C 0.73164 0.96307 0.54607 0.0
C585 C 0.72328 0.95258 0.56029 0.0
C586 C 0.70849 0.96806 0.56887 0.0
C587 C 0.70194 0.994 0.56326 0.0
C588 C 0.71022 1.00457 0.54905 0.0
C589 C 0.73771 0.93082 0.47014 0.0
C590 C 0.70435 0.89954 0.47019 0.0
C591 C 0.74527 0.9581 0.47977 0.0
C592 C 0.71937 0.95533 0.48945 0.0
C593 C 0.6858 0.9242 0.48943 0.0
C594 C 0.67841 0.89647 0.47993 0.0
C595 C 0.72845 0.98404 0.50011 0.0
C596 C 0.7217 0.97478 0.51457 0.0
C597 C 0.74651 0.02051 0.49627 0.0
C598 C 0.75131 0.03219 0.48115 0.0
C599 C 0.72201 0.01866 0.47186 0.0
C600 C 0.72668 0.02938 0.45761 0.0
C601 C 0.7605 0.05381 0.45252 0.0
C602 C 0.78973 0.06758 0.46168 0.0
C603 C 0.78523 0.05691 0.47594 0.0
H604 H 0.76405 0.06213 0.44149 0.0
H605 H 0.70207 0.95992 0.57988 0.0
H606 H 0.76861 0.69046 0.61893 0.0
H607 H 0.7371 0.70746 0.63586 0.0
H608 H 0.79825 0.6993 0.67032 0.0
H609 H 0.82931 0.68145 0.6535 0.0
H610 H 0.73103 0.67624 0.67865 0.0
H611 H 0.82279 0.77973 0.65429 0.0
H612 H 0.85373 0.81519 0.63304 0.0
H613 H 0.75877 0.81466 0.62002 0.0
H614 H 0.72714 0.77884 0.64114 0.0
H615 H 0.73308 0.79615 0.72965 0.0
H616 H 0.74548 0.76305 0.7119 0.0
H617 H 0.6805 0.77897 0.68141 0.0
H618 H 0.66841 0.81291 0.69915 0.0
H619 H 0.74256 0.79416 0.6699 0.0
H620 H 0.65293 0.69634 0.69622 0.0
H621 H 0.62293 0.66118 0.71764 0.0
H622 H 0.7141 0.65115 0.72722 0.0
H623 H 0.74486 0.68668 0.70597 0.0
C624 C 0.77496 0.69168 0.63014 0.0
C625 C 0.80178 0.68495 0.63484 0.0
C626 C 0.75701 0.70158 0.63981 0.0
C627 C 0.76584 0.70544 0.65433 0.0
C628 C 0.79108 0.69667 0.65916 0.0
C629 C 0.80887 0.68649 0.64951 0.0
C630 C 0.75064 0.72086 0.66434 0.0
C631 C 0.73372 0.70211 0.67679 0.0
C632 C 0.75338 0.75427 0.66176 0.0
C633 C 0.77252 0.77632 0.64921 0.0
C634 C 0.80847 0.78703 0.64686 0.0
C635 C 0.82613 0.8072 0.63485 0.0
C636 C 0.8082 0.81709 0.62517 0.0
C637 C 0.7726 0.80694 0.62752 0.0
C638 C 0.75481 0.78674 0.63951 0.0
C639 C 0.72104 0.79234 0.71923 0.0
C640 C 0.69973 0.80724 0.71584 0.0
C641 C 0.72802 0.77317 0.70909 0.0
C642 C 0.71362 0.7681 0.69534 0.0
C643 C 0.69182 0.78242 0.69197 0.0
C644 C 0.68482 0.8017 0.70213 0.0
C645 C 0.72324 0.74974 0.68434 0.0
C646 C 0.7393 0.76803 0.67169 0.0
C647 C 0.71978 0.71597 0.68678 0.0
C648 C 0.7013 0.6944 0.69954 0.0
C649 C 0.66668 0.68685 0.70295 0.0
C650 C 0.64953 0.66681 0.71505 0.0
C651 C 0.66662 0.65399 0.7238 0.0
C652 C 0.70089 0.66111 0.72044 0.0
C653 C 0.71818 0.68115 0.70835 0.0
H654 H 0.6533 0.63849 0.73317 0.0
H655 H 0.82191 0.83268 0.61587 0.0
H656 H 0.85842 0.69401 0.85281 0.0
H657 H 0.91498 0.71347 0.84062 0.0
H658 H 0.96421 0.71488 0.88066 0.0
H659 H 0.90769 0.69517 0.89295 0.0
H660 H 1.00186 0.77796 0.86504 0.0
H661 H 0.94979 0.6523 0.85746 0.0
H662 H 0.90307 0.59274 0.84982 0.0
H663 H 0.91007 0.63092 0.80709 0.0
H664 H 0.95651 0.69088 0.81451 0.0
H665 H 0.16824 0.82204 0.8355 0.0
H666 H 0.11208 0.78955 0.84847 0.0
H667 H 0.05417 0.77155 0.80916 0.0
H668 H 0.11012 0.8031 0.79609 0.0
H669 H 0.02143 0.71465 0.82529 0.0
H670 H 0.06865 0.83952 0.83214 0.0
H671 H 0.11396 0.90059 0.8388 0.0
H672 H 0.11393 0.86642 0.88171 0.0
H673 H 0.06898 0.80498 0.87525 0.0
C674 C 0.8811 0.69788 0.85901 0.0
C675 C 0.87847 0.69299 0.87387 0.0
C676 C 0.91343 0.70899 0.85202 0.0
C677 C 0.94381 0.71559 0.85973 0.0
C678 C 0.94109 0.70996 0.87451 0.0
C679 C 0.9087 0.6985 0.8815 0.0
C680 C 0.97877 0.73015 0.85248 0.0
C681 C 1.00638 0.76386 0.85652 0.0
C682 C 0.98426 0.71222 0.84107 0.0
C683 C 0.95642 0.67617 0.83657 0.0
C684 C 0.94117 0.64808 0.84646 0.0
C685 C 0.91477 0.61423 0.84216 0.0
C686 C 0.90355 0.60807 0.82799 0.0
C687 C 0.91877 0.63574 0.81807 0.0
C688 C 0.94515 0.66965 0.82231 0.0
C689 C 0.14357 0.81076 0.82958 0.0
C690 C 0.14373 0.81543 0.81476 0.0
C691 C 0.11144 0.79233 0.83703 0.0
C692 C 0.07881 0.77869 0.82984 0.0
C693 C 0.07894 0.78191 0.81497 0.0
C694 C 0.11103 0.80004 0.8075 0.0
C695 C 0.04462 0.76254 0.83784 0.0
C696 C 0.01709 0.72865 0.83391 0.0
C697 C 0.03897 0.78056 0.84921 0.0
C698 C 0.06574 0.81756 0.85317 0.0
C699 C 0.07849 0.84497 0.84297 0.0
C700 C 0.10409 0.87966 0.84671 0.0
C701 C 0.1169 0.88736 0.86065 0.0
C702 C 0.10403 0.8604 0.8709 0.0
C703 C 0.07849 0.82564 0.86721 0.0
H704 H 0.13673 0.91423 0.86353 0.0
H705 H 0.88311 0.58184 0.82468 0.0
H706 H 0.15126 0.91142 0.04886 0.0
H707 H 0.1827 0.95985 0.03205 0.0
H708 H 0.25884 0.92576 0.0244 0.0
H709 H 0.22714 0.87651 0.04141 0.0
H710 H 0.28953 1.0015 0.02812 0.0
H711 H 0.20144 0.90836 0.99967 0.0
H712 H 0.14156 0.85934 0.99367 0.0
H713 H 0.10119 0.93147 0.99442 0.0
H714 H 0.16071 0.98085 1.00065 0.0
H715 H 0.34869 0.13119 0.97021 0.0
H716 H 0.33142 0.07698 0.98418 0.0
H717 H 0.23578 0.07549 0.99759 0.0
H718 H 0.25253 0.12889 0.98377 0.0
H719 H 0.22152 0.01148 0.98771 0.0
H720 H 0.30601 0.10131 0.01993 0.0
H721 H 0.3649 0.15074 0.02684 0.0
H722 H 0.41125 0.08522 0.01928 0.0
H723 H 0.35265 0.0355 0.01215 0.0
C724 C 0.1747 0.91405 0.04367 0.0
C725 C 0.18657 0.88991 0.04646 0.0
C726 C 0.19261 0.94179 0.03401 0.0
C727 C 0.22286 0.94618 0.02686 0.0
C728 C 0.23544 0.92271 0.02979 0.0
C729 C 0.21726 0.89458 0.03946 0.0
C730 C 0.24055 0.97534 0.01629 0.0
C731 C 0.27506 1.00336 0.01906 0.0
C732 C 0.22145 0.9779 1.00458 0.0
C733 C 0.18558 0.94831 1.0007 0.0
C734 C 0.17976 0.91375 0.99865 0.0
C735 C 0.14587 0.88589 0.99519 0.0
C736 C 0.11757 0.89228 0.99368 0.0
C737 C 0.12313 0.92656 0.99559 0.0
C738 C 0.15697 0.95451 0.99907 0.0
C739 C 0.32417 0.11941 0.97625 0.0
C740 C 0.30187 0.13421 0.97578 0.0
C741 C 0.31434 0.08847 0.98422 0.0
C742 C 0.28217 0.07204 0.99186 0.0
C743 C 0.2605 0.08742 0.99166 0.0
C744 C 0.27021 0.11809 0.98375 0.0
C745 C 0.26998 0.03832 0.99984 0.0
C746 C 0.2364 0.00934 0.99655 0.0
C747 C 0.2899 0.03501 0.01106 0.0
C748 C 0.32508 0.06488 0.01532 0.0
C749 C 0.32883 0.09756 0.01961 0.0
C750 C 0.36213 0.1256 0.0236 0.0
C751 C 0.39183 0.12117 0.02345 0.0
C752 C 0.38825 0.08864 0.01935 0.0
C753 C 0.355 0.06052 0.01534 0.0
H754 H 0.41759 0.1429 0.02654 0.0
H755 H 0.09135 0.87067 0.991 0.0
H756 H 0.22743 0.36859 0.07377 0.0
H757 H 0.24569 0.35297 0.0518 0.0
H758 H 0.14345 0.25744 0.04865 0.0
H759 H 0.12499 0.27271 0.07109 0.0
H760 H 0.19591 0.24408 0.04158 0.0
H761 H 0.16418 0.3292 0.02706 0.0
H762 H 0.16271 0.38512 0.02789 0.0
H763 H 0.27554 0.44486 0.0211 0.0
H764 H 0.27778 0.38931 0.02042 0.0
H765 H 0.24927 0.22333 0.97107 0.0
H766 H 0.21462 0.23146 0.98986 0.0
H767 H 0.30892 0.32619 1.00388 0.0
H768 H 0.34351 0.31818 0.98528 0.0
H769 H 0.25018 0.33478 1.00338 0.0
H770 H 0.2813 0.24865 0.0207 0.0
H771 H 0.2819 0.1923 0.01926 0.0
H772 H 0.16777 0.13366 0.01999 0.0
H773 H 0.16651 0.18974 0.0212 0.0
C774 C 0.20859 0.34424 0.06845 0.0
C775 C 0.17453 0.32208 0.07421 0.0
C776 C 0.21911 0.33539 0.05579 0.0
C777 C 0.1958 0.30434 0.04833 0.0
C778 C 0.1619 0.28168 0.05413 0.0
C779 C 0.15132 0.29049 0.06694 0.0
C780 C 0.20749 0.29603 0.03458 0.0
C781 C 0.20705 0.26363 0.0331 0.0
C782 C 0.22237 0.32153 0.02347 0.0
C783 C 0.22116 0.35505 0.02377 0.0
C784 C 0.18872 0.35426 0.02583 0.0
C785 C 0.18774 0.3859 0.02626 0.0
C786 C 0.21902 0.41852 0.02457 0.0
C787 C 0.25133 0.41957 0.02241 0.0
C788 C 0.25246 0.38801 0.02197 0.0
C789 C 0.26246 0.24619 0.97801 0.0
C790 C 0.2992 0.2701 0.97667 0.0
C791 C 0.24268 0.25067 0.98882 0.0
C792 C 0.2592 0.27929 0.9984 0.0
C793 C 0.29553 0.3039 0.99666 0.0
C794 C 0.31531 0.29924 0.98601 0.0
C795 C 0.23944 0.28335 1.01058 0.0
C796 C 0.23842 0.315 0.01175 0.0
C797 C 0.22303 0.25708 0.02131 0.0
C798 C 0.2238 0.22338 0.02087 0.0
C799 C 0.25633 0.22374 0.02045 0.0
C800 C 0.25679 0.19186 0.01969 0.0
C801 C 0.22489 0.15942 0.01948 0.0
C802 C 0.19246 0.15881 0.02012 0.0
C803 C 0.19186 0.19063 0.02084 0.0
H804 H 0.22531 0.13477 0.01887 0.0
H805 H 0.21821 0.44299 0.02492 0.0
H806 H 0.87955 0.13301 0.2476 0.0
H807 H 0.92063 0.15195 0.22731 0.0
H808 H 0.86445 0.19908 0.20762 0.0
H809 H 0.82343 0.18029 0.22777 0.0
H810 H 0.88289 0.16499 0.18797 0.0
H811 H 0.94032 0.25023 0.2253 0.0
H812 H 0.96331 0.27028 0.24956 0.0
H813 H 0.0334 0.22807 0.24502 0.0
H814 H 0.01041 0.20728 0.2208 0.0
H815 H 0.01837 0.28202 0.13896 0.0
H816 H 0.97279 0.25595 0.15762 0.0
H817 H 0.03209 0.21342 0.17829 0.0
H818 H 0.07756 0.23941 0.15987 0.0
H819 H 0.0115 0.24427 0.19735 0.0
H820 H 0.95482 0.15989 0.15975 0.0
H821 H 0.93162 0.1398 0.13553 0.0
H822 H 0.8603 0.18043 0.14046 0.0
H823 H 0.88343 0.20122 0.16466 0.0
C824 C 0.87565 0.14699 0.23887 0.0
C825 C 0.84823 0.15524 0.23938 0.0
C826 C 0.89931 0.15801 0.2273 0.0
C827 C 0.89598 0.17738 0.21597 0.0
C828 C 0.86771 0.18428 0.2162 0.0
C829 C 0.84428 0.17356 0.22779 0.0
C830 C 0.92262 0.19169 0.20415 0.0
C831 C 0.91097 0.1826 0.19001 0.0
C832 C 0.9594 0.21429 0.20676 0.0
C833 C 0.97334 0.22683 0.2213 0.0
C834 C 0.96041 0.24495 0.22952 0.0
C835 C 0.97348 0.25649 0.24326 0.0
C836 C 0.99971 0.25035 0.24884 0.0
C837 C 0.01301 0.23274 0.24069 0.0
C838 C 0.99999 0.22108 0.22696 0.0
C839 C 0.02152 0.26682 0.1474 0.0
C840 C 0.0517 0.26283 0.14784 0.0
C841 C 0.99537 0.25184 0.15807 0.0
C842 C 0.99878 0.23247 0.16939 0.0
C843 C 0.02874 0.22824 0.16974 0.0
C844 C 0.05473 0.24307 0.1591 0.0
C845 C 0.97186 0.21743 0.18113 0.0
C846 C 0.98346 0.22652 0.19527 0.0
C847 C 0.93506 0.19486 0.17851 0.0
C848 C 0.92113 0.18245 0.16396 0.0
C849 C 0.93441 0.16482 0.15563 0.0
C850 C 0.92123 0.15325 0.14191 0.0
C851 C 0.89458 0.15893 0.13644 0.0
C852 C 0.88099 0.17611 0.1447 0.0
C853 C 0.89411 0.18777 0.15842 0.0
H854 H 0.8844 0.14993 0.12582 0.0
H855 H 0.00981 0.25932 0.25948 0.0
H856 H 0.83607 0.0336 0.30977 0.0
H857 H 0.81905 0.99087 0.32932 0.0
H858 H 0.72639 1.00011 0.33738 0.0
H859 H 0.7431 0.04273 0.31771 0.0
H860 H 0.76367 1.00539 0.36208 0.0
H861 H 0.71599 0.92659 0.3225 0.0
H862 H 0.71636 0.90201 0.29891 0.0
H863 H 0.79677 0.87919 0.31306 0.0
H864 H 0.79726 0.90414 0.3367 0.0
H865 H 0.67872 0.86068 0.41037 0.0
H866 H 0.69158 0.89847 0.38938 0.0
H867 H 0.78528 0.89123 0.38109 0.0
H868 H 0.77268 0.8534 0.40219 0.0
H869 H 0.74642 0.88428 0.35638 0.0
H870 H 0.79458 0.96409 0.3959 0.0
H871 H 0.79298 0.98739 0.41963 0.0
H872 H 0.71091 0.00785 0.40559 0.0
H873 H 0.71161 0.98413 0.38181 0.0
C874 C 0.81188 0.02634 0.3156 0.0
C875 C 0.79092 0.0416 0.3121 0.0
C876 C 0.80214 1.00181 0.32679 0.0
C877 C 0.77135 0.9921 0.33484 0.0
C878 C 0.75025 0.00714 0.33134 0.0
C879 C 0.75975 0.03137 0.32002 0.0
C880 C 0.7618 0.96702 0.34712 0.0
C881 C 0.75937 0.97873 0.36079 0.0
C882 C 0.75699 0.93246 0.34554 0.0
C883 C 0.75694 0.91761 0.33133 0.0
C884 C 0.73401 0.91667 0.32055 0.0
C885 C 0.73401 0.90259 0.30717 0.0
C886 C 0.75665 0.88915 0.30448 0.0
C887 C 0.77929 0.88968 0.31516 0.0
C888 C 0.77943 0.90376 0.32855 0.0
C889 C 0.70198 0.86687 0.40406 0.0
C890 C 0.72472 0.854 0.40804 0.0
C891 C 0.70937 0.88865 0.39206 0.0
C892 C 0.7396 0.89804 0.38369 0.0
C893 C 0.76183 0.88443 0.38738 0.0
C894 C 0.75463 0.86286 0.39948 0.0
C895 C 0.74833 0.92269 0.37132 0.0
C896 C 0.75067 0.91093 0.35766 0.0
C897 C 0.75305 0.95721 0.37289 0.0
C898 C 0.75288 0.97196 0.38711 0.0
C899 C 0.77599 0.9733 0.3979 0.0
C900 C 0.77528 0.98662 0.41136 0.0
C901 C 0.75177 0.99898 0.41413 0.0
C902 C 0.72905 0.9982 0.40343 0.0
C903 C 0.72961 0.98484 0.38996 0.0
H904 H 0.7512 0.00919 0.42457 0.0
H905 H 0.75658 0.87823 0.29412 0.0
H906 H 0.88869 0.75167 0.57662 0.0
H907 H 0.86908 0.77218 0.55605 0.0
H908 H 0.79736 0.66342 0.54399 0.0
H909 H 0.8173 0.64284 0.56425 0.0
H910 H 0.82752 0.70095 0.52101 0.0
H911 H 0.76865 0.7148 0.56157 0.0
H912 H 0.76481 0.736 0.58548 0.0
H913 H 0.82803 0.84417 0.57146 0.0
H914 H 0.83271 0.8236 0.54751 0.0
H915 H 0.71406 0.73221 0.47488 0.0
H916 H 0.739 0.71229 0.49379 0.0
H917 H 0.81232 0.82137 0.50488 0.0
H918 H 0.78739 0.84137 0.4862 0.0
H919 H 0.78194 0.78398 0.52823 0.0
H920 H 0.83934 0.7687 0.48723 0.0
H921 H 0.84187 0.74607 0.46345 0.0
H922 H 0.77902 0.63875 0.4785 0.0
H923 H 0.77574 0.66076 0.50232 0.0
C924 C 0.86895 0.73213 0.56953 0.0
C925 C 0.85452 0.69557 0.57217 0.0
C926 C 0.85757 0.74389 0.5578 0.0
C927 C 0.83126 0.71938 0.54851 0.0
C928 C 0.8176 0.68293 0.55094 0.0
C929 C 0.82902 0.67119 0.56261 0.0
C930 C 0.81741 0.73145 0.53643 0.0
C931 C 0.81721 0.71882 0.52264 0.0
C932 C 0.80434 0.75518 0.53842 0.0
C933 C 0.80134 0.76765 0.55278 0.0
C934 C 0.78195 0.74311 0.56361 0.0
C935 C 0.7796 0.75501 0.57717 0.0
C936 C 0.79624 0.79141 0.58 0.0
C937 C 0.8152 0.81598 0.56926 0.0
C938 C 0.8177 0.80422 0.55569 0.0
C939 C 0.7358 0.75196 0.48122 0.0
C940 C 0.74866 0.78843 0.47896 0.0
C941 C 0.75009 0.74053 0.49205 0.0
C942 C 0.77773 0.7653 0.5008 0.0
C943 C 0.79097 0.80167 0.49836 0.0
C944 C 0.77673 0.81308 0.48759 0.0
C945 C 0.79218 0.75358 0.51279 0.0
C946 C 0.79237 0.76622 0.52659 0.0
C947 C 0.80498 0.72965 0.51082 0.0
C948 C 0.80701 0.71639 0.49652 0.0
C949 C 0.82584 0.74028 0.48544 0.0
C950 C 0.82744 0.72756 0.47196 0.0
C951 C 0.81054 0.691 0.46945 0.0
C952 C 0.79207 0.66707 0.48044 0.0
C953 C 0.79035 0.67965 0.49394 0.0
H954 H 0.81181 0.68121 0.45901 0.0
H955 H 0.79436 0.80057 0.5905 0.0
H956 H 0.18429 0.84641 0.73673 0.0
H957 H 0.15134 0.82241 0.71462 0.0
H958 H 0.08493 0.86706 0.72473 0.0
H959 H 0.11675 0.88956 0.74722 0.0
H960 H 0.04455 0.80498 0.71571 0.0
H961 H 0.15266 0.9005 0.69718 0.0
H962 H 0.21743 0.93741 0.69369 0.0
H963 H 0.2205 0.84789 0.67609 0.0
H964 H 0.15579 0.8103 0.67965 0.0
H965 H 0.96306 0.76897 0.64704 0.0
H966 H 1.00172 0.80263 0.66698 0.0
H967 H 0.05348 0.74028 0.66461 0.0
H968 H 0.01474 0.70627 0.64481 0.0
H969 H 0.10138 0.81408 0.66892 0.0
H970 H 0.99206 0.71905 0.68871 0.0
H971 H 0.92698 0.68435 0.69174 0.0
H972 H 0.92664 0.77769 0.70639 0.0
H973 H 0.99171 0.81306 0.70325 0.0
C974 C 0.16296 0.85153 0.73417 0.0
C975 C 0.15326 0.87003 0.74376 0.0
C976 C 0.14415 0.83789 0.72143 0.0
C977 C 0.11574 0.8432 0.71776 0.0
C978 C 0.10659 0.86241 0.72722 0.0
C979 C 0.12496 0.87546 0.74009 0.0
C980 C 0.09447 0.82731 0.70447 0.0
C981 C 0.05716 0.80767 0.70546 0.0
C982 C 0.11051 0.82997 0.69101 0.0
C983 C 0.14941 0.85251 0.6888 0.0
C984 C 0.16718 0.88862 0.69266 0.0
C985 C 0.20388 0.90967 0.69065 0.0
C986 C 0.22308 0.89498 0.6847 0.0
C987 C 0.2056 0.85923 0.68071 0.0
C988 C 0.1689 0.83804 0.68271 0.0
C989 C 0.98298 0.76271 0.65063 0.0
C990 C 0.98568 0.73479 0.64432 0.0
C991 C 1.00497 0.78189 0.66208 0.0
C992 C 0.03036 0.77382 0.66739 0.0
C993 C 0.03412 0.747 0.66072 0.0
C994 C 0.01185 0.72751 0.64941 0.0
C995 C 0.05185 0.79208 0.68028 0.0
C996 C 0.08905 0.81191 0.67919 0.0
C997 C 0.03575 0.79007 0.69361 0.0
C998 C 0.99668 0.76877 0.69559 0.0
C999 C 0.97807 0.73223 0.69246 0.0
C1000 C 0.94119 0.71244 0.69422 0.0
C1001 C 0.92267 0.72883 0.69921 0.0
C1002 C 0.94101 0.76504 0.7025 0.0
C1003 C 0.97789 0.78497 0.70074 0.0
H1004 H 0.89412 0.71346 0.70056 0.0
H1005 H 0.25149 0.91132 0.68316 0.0
H1006 H 0.23114 0.11691 0.91357 0.0
H1007 H 0.2189 0.08024 0.89234 0.0
H1008 H 0.32926 0.1415 0.88015 0.0
H1009 H 0.34147 0.17909 0.90121 0.0
H1010 H 0.29003 0.12628 0.85726 0.0
H1011 H 0.29266 0.05767 0.89646 0.0
H1012 H 0.27673 0.02894 0.92006 0.0
H1013 H 0.16801 0.9652 0.90683 0.0
H1014 H 0.18317 0.99394 0.88322 0.0
H1015 H 0.27816 0.99303 0.80818 0.0
H1016 H 0.29406 0.03577 0.82773 0.0
H1017 H 0.18413 0.98454 0.84065 0.0
H1018 H 0.16813 0.94192 0.82129 0.0
H1019 H 0.22637 0.99526 0.86308 0.0
H1020 H 0.22519 0.06603 0.82371 0.0
H1021 H 0.24297 0.09447 0.8001 0.0
H1022 H 0.3518 0.15332 0.81373 0.0
H1023 H 0.33471 0.12486 0.83738 0.0
C1024 C 0.25282 0.12281 0.90633 0.0
C1025 C 0.28737 0.15089 0.90919 0.0
C1026 C 0.24582 0.1016 0.89421 0.0
C1027 C 0.27327 0.10741 0.88473 0.0
C1028 C 0.30758 0.13622 0.88729 0.0
C1029 C 0.31455 0.15773 0.89937 0.0
C1030 C 0.26619 0.08311 0.87232 0.0
C1031 C 0.27655 0.09766 0.85859 0.0
C1032 C 0.24823 0.04561 0.87391 0.0
C1033 C 0.239 0.02826 0.88811 0.0
C1034 C 0.2653 0.03774 0.89862 0.0
C1035 C 0.25641 0.02142 0.91199 0.0
C1036 C 0.22136 0.99534 0.91496 0.0
C1037 C 0.19513 0.98546 0.90453 0.0
C1038 C 0.20386 1.00175 0.89115 0.0
C1039 C 0.25732 0.99112 0.81509 0.0
C1040 C 0.22183 0.96399 0.81309 0.0
C1041 C 0.26645 0.01564 0.82626 0.0
C1042 C 0.24029 0.0136 0.83568 0.0
C1043 C 0.20485 0.98678 0.83358 0.0
C1044 C 0.19571 0.96244 0.82242 0.0
C1045 C 0.24971 0.03841 0.84804 0.0
C1046 C 0.23989 0.0239 0.86178 0.0
C1047 C 0.26844 0.07587 0.84646 0.0
C1048 C 0.27872 0.09303 0.83226 0.0
C1049 C 0.25295 0.08482 0.82164 0.0
C1050 C 0.2629 0.10099 0.80825 0.0
C1051 C 0.29851 0.12561 0.8054 0.0
C1052 C 0.32423 0.1342 0.81594 0.0
C1053 C 0.31443 0.11808 0.82934 0.0
H1054 H 0.30615 0.13811 0.79504 0.0
H1055 H 0.21454 0.98273 0.92532 0.0
H1056 H 0.67444 0.82907 0.77947 0.0
H1057 H 0.6826 0.80288 0.80111 0.0
H1058 H 0.79275 0.88542 0.80275 0.0
H1059 H 0.78499 0.9112 0.78078 0.0
H1060 H 0.78846 0.82475 0.80857 0.0
H1061 H 0.72723 0.88285 0.8259 0.0
H1062 H 0.67988 0.89831 0.82667 0.0
H1063 H 0.6021 0.78901 0.83447 0.0
H1064 H 0.64894 0.77281 0.83356 0.0
H1065 H 0.8135 0.77644 0.87861 0.0
H1066 H 0.80799 0.81076 0.85902 0.0
H1067 H 0.70041 0.72672 0.85159 0.0
H1068 H 0.70564 0.69241 0.87111 0.0
H1069 H 0.70601 0.79203 0.84961 0.0
H1070 H 0.7676 0.73421 0.8312 0.0
H1071 H 0.8154 0.71934 0.83097 0.0
H1072 H 0.89333 0.82964 0.82562 0.0
H1073 H 0.846 0.84524 0.82607 0.0
C1074 C 0.70039 0.84188 0.78446 0.0
C1075 C 0.72901 0.87243 0.77836 0.0
C1076 C 0.705 0.82689 0.79692 0.0
C1077 C 0.7382 0.84236 0.8038 0.0
C1078 C 0.76683 0.87291 0.79773 0.0
C1079 C 0.76231 0.88775 0.78517 0.0
C1080 C 0.74314 0.82617 0.81708 0.0
C1081 C 0.77076 0.81822 0.81763 0.0
C1082 C 0.71979 0.81691 0.8289 0.0
C1083 C 0.69158 0.82658 0.82954 0.0
C1084 C 0.7 0.86207 0.82768 0.0
C1085 C 0.67325 0.87097 0.82816 0.0
C1086 C 0.63799 0.84465 0.83059 0.0
C1087 C 0.62942 0.80937 0.83258 0.0
C1088 C 0.65607 0.80032 0.8321 0.0
C1089 C 0.78851 0.76545 0.87293 0.0
C1090 C 0.76006 0.73156 0.87644 0.0
C1091 C 0.78547 0.78504 0.86166 0.0
C1092 C 0.75389 0.7712 0.85368 0.0
C1093 C 0.72505 0.738 0.85754 0.0
C1094 C 0.72814 0.71835 0.86871 0.0
C1095 C 0.75111 0.79052 0.84102 0.0
C1096 C 0.72386 0.79893 0.84059 0.0
C1097 C 0.77488 0.80034 0.82935 0.0
C1098 C 0.8033 0.79094 0.82883 0.0
C1099 C 0.79495 0.75533 0.83008 0.0
C1100 C 0.82196 0.74676 0.8299 0.0
C1101 C 0.85739 0.77354 0.82833 0.0
C1102 C 0.86587 0.80893 0.82687 0.0
C1103 C 0.83897 0.81765 0.82708 0.0
H1104 H 0.87826 0.76685 0.82821 0.0
H1105 H 0.61732 0.85159 0.83094 0.0
H1106 H 0.86355 0.74705 0.95025 0.0
H1107 H 0.89893 0.76323 0.97226 0.0
H1108 H 0.90471 0.66727 0.9693 0.0
H1109 H 0.86935 0.65087 0.94767 0.0
H1110 H 0.89049 0.67577 0.99563 0.0
H1111 H 0.97456 0.75077 0.95986 0.0
H1112 H 0.9988 0.79687 0.94118 0.0
H1113 H 1.00213 0.87365 0.97079 0.0
H1114 H 0.97737 0.82783 0.9896 0.0
H1115 H 0.04092 0.70397 0.03438 0.0
H1116 H 0.99719 0.69577 0.0163 0.0
H1117 H 0.99951 0.79123 0.03042 0.0
H1118 H 0.04361 0.79962 0.04871 0.0
H1119 H 1.00511 0.78842 1.00079 0.0
H1120 H 0.92756 0.71337 0.03735 0.0
H1121 H 0.90601 0.6668 0.05583 0.0
H1122 H 0.89245 0.58943 0.02437 0.0
H1123 H 0.9144 0.63564 1.00572 0.0
C1124 C 0.87231 0.7294 0.95433 0.0
C1125 C 0.86352 0.69764 0.94714 0.0
C1126 C 0.8927 0.73876 0.96689 0.0
C1127 C 0.90478 0.71659 0.97247 0.0
C1128 C 0.89571 0.68483 0.96532 0.0
C1129 C 0.87548 0.67553 0.95286 0.0
C1130 C 0.92676 0.72579 0.98573 0.0
C1131 C 0.91561 0.70038 0.99669 0.0
C1132 C 0.95915 0.75832 0.98742 0.0
C1133 C 0.97359 0.78574 0.97607 0.0
C1134 C 0.98007 0.77738 0.96235 0.0
C1135 C 0.99399 0.80349 0.95174 0.0
C1136 C 1.00186 0.83813 0.95478 0.0
C1137 C 0.99591 0.84677 0.96844 0.0
C1138 C 0.98192 0.82075 0.97907 0.0
C1139 C 0.03188 0.72306 0.0338 0.0
C1140 C 0.0457 0.75238 0.04307 0.0
C1141 C 1.00675 0.71828 0.02344 0.0
C1142 C 0.9948 0.74274 0.02201 0.0
C1143 C 1.00824 0.77194 0.03133 0.0
C1144 C 0.03323 0.77656 0.04185 0.0
C1145 C 0.9692 0.73796 1.01044 0.0
C1146 C 0.97966 0.76413 0.99982 0.0
C1147 C 0.93627 0.706 1.00898 0.0
C1148 C 0.92284 0.67805 0.02015 0.0
C1149 C 0.92021 0.68648 0.03439 0.0
C1150 C 0.90789 0.66013 0.04489 0.0
C1151 C 0.89792 0.62519 0.04128 0.0
C1152 C 0.90018 0.61651 0.02715 0.0
C1153 C 0.91252 0.64276 0.01661 0.0
H1154 H 0.88839 0.60483 0.04942 0.0
H1155 H 0.01268 0.85832 0.94656 0.0
H1156 H 0.10674 0.86809 0.11791 0.0
H1157 H 0.13404 0.90378 0.13923 0.0
H1158 H 0.22451 0.8892 0.13399 0.0
H1159 H 0.19689 0.85264 0.11296 0.0
H1160 H 0.20947 0.88444 0.16079 0.0
H1161 H 0.22506 0.96811 0.12427 0.0
H1162 H 0.20659 0.99462 0.10526 0.0
H1163 H 0.14111 0.01099 0.13497 0.0
H1164 H 0.15884 0.98413 0.15413 0.0
H1165 H 0.33957 0.03383 0.19987 0.0
H1166 H 0.3038 0.99094 0.1815 0.0
H1167 H 0.21214 0.99718 0.19473 0.0
H1168 H 0.24781 0.04002 0.21331 0.0
H1169 H 0.22415 1.00478 0.16506 0.0
H1170 H 0.21433 0.92423 0.20208 0.0
H1171 H 0.23675 0.90003 0.22052 0.0
H1172 H 0.29631 0.88055 0.18892 0.0
H1173 H 0.27463 0.90512 0.17031 0.0
C1174 C 0.13237 0.87232 0.12133 0.0
C1175 C 0.14961 0.85752 0.11365 0.0
C1176 C 0.14811 0.89297 0.13351 0.0
C1177 C 0.18174 0.89984 0.13817 0.0
C1178 C 0.19861 0.88445 0.13067 0.0
C1179 C 0.18276 0.86354 0.11859 0.0
C1180 C 0.1996 0.92326 0.15075 0.0
C1181 C 0.21293 0.91087 0.16162 0.0
C1182 C 0.2037 0.95762 0.15209 0.0
C1183 C 0.19295 0.97373 0.14059 0.0
C1184 C 0.20649 0.9771 0.12672 0.0
C1185 C 0.1962 0.99223 0.11593 0.0
C1186 C 0.1726 1.00437 0.1189 0.0
C1187 C 0.15932 1.0015 0.13268 0.0
C1188 C 0.1695 0.98634 0.14352 0.0
C1189 C 0.3117 0.02582 0.19901 0.0
C1190 C 0.29658 0.04037 0.20811 0.0
C1191 C 0.29124 1.0012 0.18849 0.0
C1192 C 0.25521 0.99069 0.18673 0.0
C1193 C 0.23987 1.00485 0.19589 0.0
C1194 C 0.26025 0.02918 0.20656 0.0
C1195 C 0.23414 0.96599 0.17497 0.0
C1196 C 0.22034 0.9782 0.16426 0.0
C1197 C 0.2301 0.93171 0.17366 0.0
C1198 C 0.24308 0.9168 0.18482 0.0
C1199 C 0.23243 0.91506 0.19908 0.0
C1200 C 0.24497 0.90122 0.20956 0.0
C1201 C 0.268 0.88883 0.2059 0.0
C1202 C 0.27849 0.89018 0.19174 0.0
C1203 C 0.26605 0.90403 0.18122 0.0
H1204 H 0.27767 0.87812 0.21403 0.0
H1205 H 0.16468 0.0161 0.11053 0.0
H1206 H 0.37344 0.19476 0.29285 0.0
H1207 H 0.34982 0.21161 0.31306 0.0
H1208 H 0.24343 0.14657 0.29688 0.0
H1209 H 0.267 0.12974 0.27646 0.0
H1210 H 0.25532 0.21148 0.30476 0.0
H1211 H 0.27222 0.12091 0.32616 0.0
H1212 H 0.30556 0.0908 0.33262 0.0
H1213 H 0.38112 0.18318 0.35575 0.0
H1214 H 0.34849 0.21404 0.34926 0.0
H1215 H 0.16883 0.22775 0.36598 0.0
H1216 H 0.18882 0.20341 0.34706 0.0
H1217 H 0.29644 0.26398 0.36256 0.0
H1218 H 0.27651 0.28813 0.38168 0.0
H1219 H 0.28239 0.19926 0.35506 0.0
H1220 H 0.26581 0.28993 0.33391 0.0
H1221 H 0.23395 0.3212 0.327 0.0
H1222 H 0.15997 0.23071 0.30256 0.0
H1223 H 0.19054 0.19837 0.30975 0.0
C1224 C 0.34495 0.18371 0.29361 0.0
C1225 C 0.32215 0.16077 0.28299 0.0
C1226 C 0.33145 0.19332 0.30524 0.0
C1227 C 0.29476 0.18018 0.30662 0.0
C1228 C 0.27184 0.15704 0.2961 0.0
C1229 C 0.28534 0.14729 0.28445 0.0
C1230 C 0.28061 0.19166 0.31876 0.0
C1231 C 0.26066 0.2082 0.31578 0.0
C1232 C 0.28849 0.18844 0.33315 0.0
C1233 C 0.30807 0.16989 0.33712 0.0
C1234 C 0.29609 0.13491 0.33254 0.0
C1235 C 0.31483 0.11769 0.33622 0.0
C1236 C 0.34548 0.1351 0.34456 0.0
C1237 C 0.35739 0.16974 0.34927 0.0
C1238 C 0.33876 0.18709 0.34561 0.0
C1239 C 0.19674 0.23574 0.36547 0.0
C1240 C 0.22105 0.26006 0.37538 0.0
C1241 C 0.20819 0.22189 0.35455 0.0
C1242 C 0.2443 0.2322 0.35318 0.0
C1243 C 0.26847 0.25563 0.36332 0.0
C1244 C 0.25702 0.26948 0.37427 0.0
C1245 C 0.25694 0.21903 0.34107 0.0
C1246 C 0.27675 0.20231 0.34406 0.0
C1247 C 0.24906 0.22224 0.32667 0.0
C1248 C 0.23022 0.2415 0.32255 0.0
C1249 C 0.24243 0.27646 0.32724 0.0
C1250 C 0.22458 0.2944 0.32327 0.0
C1251 C 0.19484 0.2779 0.3144 0.0
C1252 C 0.1829 0.24342 0.30948 0.0
C1253 C 0.20039 0.22522 0.31356 0.0
H1254 H 0.1811 0.29185 0.31131 0.0
H1255 H 0.35996 0.12172 0.3474 0.0
H1256 H 0.15777 0.267 0.44928 0.0
H1257 H 0.12258 0.2472 0.47133 0.0
H1258 H 0.11648 0.34318 0.47181 0.0
H1259 H 0.15149 0.36305 0.45002 0.0
H1260 H 0.12972 0.32803 0.49811 0.0
H1261 H 0.04696 0.26459 0.46016 0.0
H1262 H 0.02445 0.22469 0.43939 0.0
H1263 H 0.02019 0.13975 0.4643 0.0
H1264 H 0.04315 0.17932 0.48518 0.0
H1265 H 0.98342 0.28323 0.54435 0.0
H1266 H 0.02635 0.30141 0.52486 0.0
H1267 H 0.01728 0.19795 0.52524 0.0
H1268 H 0.97349 0.1793 0.54439 0.0
H1269 H 0.01462 0.21482 0.49922 0.0
H1270 H 0.09368 0.27676 0.53772 0.0
H1271 H 0.11639 0.31653 0.55853 0.0
H1272 H 0.12851 0.40385 0.53294 0.0
H1273 H 0.10543 0.36449 0.51201 0.0
C1274 C 0.1491 0.28394 0.45414 0.0
C1275 C 0.15739 0.31656 0.4478 0.0
C1276 C 0.12884 0.27254 0.46672 0.0
C1277 C 0.11655 0.29356 0.47322 0.0
C1278 C 0.12559 0.32645 0.46707 0.0
C1279 C 0.14556 0.33771 0.45452 0.0
C1280 C 0.09366 0.28137 0.48624 0.0
C1281 C 0.10443 0.30337 0.49832 0.0
C1282 C 0.06101 0.24883 0.48671 0.0
C1283 C 0.04716 0.22502 0.47418 0.0
C1284 C 0.0415 0.23749 0.46117 0.0
C1285 C 0.02861 0.21492 0.44939 0.0
C1286 C 0.021 0.17974 0.45051 0.0
C1287 C 0.02617 0.16703 0.46344 0.0
C1288 C 0.0391 0.1895 0.47525 0.0
C1289 C 0.99093 0.2645 0.54043 0.0
C1290 C 0.97496 0.22978 0.54599 0.0
C1291 C 0.01565 0.27497 0.52927 0.0
C1292 C 0.02554 0.25123 0.52356 0.0
C1293 C 0.01019 0.21683 0.52936 0.0
C1294 C 0.9852 0.20623 0.54039 0.0
C1295 C 0.0505 0.26159 0.51115 0.0
C1296 C 0.04008 0.23929 0.49914 0.0
C1297 C 0.08356 0.29383 0.51077 0.0
C1298 C 0.09753 0.31759 0.52333 0.0
C1299 C 0.10095 0.30439 0.53655 0.0
C1300 C 0.11393 0.32686 0.54837 0.0
C1301 C 0.12381 0.36267 0.54706 0.0
C1302 C 0.12081 0.3761 0.53394 0.0
C1303 C 0.10783 0.35373 0.52209 0.0
H1304 H 0.13385 0.38003 0.55622 0.0
H1305 H 0.01101 0.16231 0.44137 0.0
H1306 H 0.7267 0.99204 0.71286 0.0
H1307 H 0.75467 0.03735 0.69421 0.0
H1308 H 0.82617 0.99856 0.68453 0.0
H1309 H 0.79868 0.95359 0.70315 0.0
H1310 H 0.86094 0.07 0.68367 0.0
H1311 H 0.75198 0.97483 0.66436 0.0
H1312 H 0.68731 0.93327 0.6636 0.0
H1313 H 0.66843 0.02114 0.66182 0.0
H1314 H 0.73302 0.06325 0.66277 0.0
H1315 H 0.91536 0.13487 0.61323 0.0
H1316 H 0.8914 0.09918 0.6348 0.0
H1317 H 0.82085 0.14102 0.6405 0.0
H1318 H 0.84431 0.17641 0.61879 0.0
H1319 H 0.78547 0.07142 0.64436 0.0
H1320 H 0.89476 0.16682 0.66209 0.0
H1321 H 0.95945 0.2083 0.66267 0.0
H1322 H 0.97795 0.12063 0.66739 0.0
H1323 H 0.91336 0.07857 0.66664 0.0
C1324 C 0.74869 0.99345 0.70689 0.0
C1325 C 0.76027 0.96897 0.7095 0.0
C1326 C 0.76453 0.01925 0.69615 0.0
C1327 C 0.79229 0.02116 0.68777 0.0
C1328 C 0.80481 0.99769 0.69078 0.0
C1329 C 0.78894 0.97186 0.70145 0.0
C1330 C 0.80757 0.04659 0.67556 0.0
C1331 C 0.84445 0.0701 0.67502 0.0
C1332 C 0.78611 0.04744 0.66438 0.0
C1333 C 0.74729 0.02218 0.66381 0.0
C1334 C 0.73402 0.98529 0.66393 0.0
C1335 C 0.69738 0.96163 0.66344 0.0
C1336 C 0.67377 0.97456 0.66271 0.0
C1337 C 0.68675 0.01117 0.66242 0.0
C1338 C 0.72337 0.03494 0.66293 0.0
C1339 C 0.89498 0.13679 0.61912 0.0
C1340 C 0.88189 0.15868 0.61422 0.0
C1341 C 0.88134 0.11639 0.63153 0.0
C1342 C 0.85445 0.11753 0.63944 0.0
C1343 C 0.84156 0.1396 0.63464 0.0
C1344 C 0.85515 0.15998 0.62222 0.0
C1345 C 0.83894 0.09476 0.6524 0.0
C1346 C 0.80198 0.07164 0.65306 0.0
C1347 C 0.86035 0.09431 0.6637 0.0
C1348 C 0.89922 0.11952 0.66418 0.0
C1349 C 0.91263 0.15636 0.66314 0.0
C1350 C 0.94928 0.17999 0.66352 0.0
C1351 C 0.9728 0.1671 0.66503 0.0
C1352 C 0.9597 0.13057 0.66621 0.0
C1353 C 0.92307 0.10683 0.66582 0.0
H1354 H 1.00116 0.18544 0.66533 0.0
H1355 H 0.64541 0.9562 0.66232 0.0
loop_
_geom_bond_atom_site_label_1
_geom_bond_atom_site_label_2
_geom_bond_distance
_geom_bond_site_symmetry_2
_ccdc_geom_bond_type
Mg0 O7 2.141 . S
Mg0 O8 2.048 . S
Mg0 O9 2.048 . S
Mg0 O12 2.141 . S
C1 O2 1.313 . S
C1 O8 1.195 . S
O2 C1 1.313 . S
C3 O4 1.245 . S
C3 O12 1.289 . S
O4 C3 1.245 . S
C5 O6 1.245 . S
C5 O7 1.289 . S
O6 C5 1.245 . S
O7 Mg0 2.141 . S
O7 C5 1.289 . S
O8 Mg0 2.048 . S
O8 C1 1.195 . S
O9 Mg0 2.048 . S
O9 C10 1.195 . S
C10 O9 1.195 . S
C10 O11 1.313 . S
O11 C10 1.313 . S
O12 Mg0 2.141 . S
O12 C3 1.289 . S
Mg13 O20 2.141 . S
Mg13 O21 2.048 . S
Mg13 O22 2.048 . S
Mg13 O25 2.141 . S
C14 O15 1.313 . S
C14 O21 1.195 . S
O15 C14 1.313 . S
C16 O17 1.245 . S
C16 O25 1.289 . S
O17 C16 1.245 . S
C18 O19 1.245 . S
C18 O20 1.289 . S
O19 C18 1.245 . S
O20 Mg13 2.141 . S
O20 C18 1.289 . S
O21 Mg13 2.048 . S
O21 C14 1.195 . S
O22 Mg13 2.048 . S
O22 C23 1.195 . S
C23 O22 1.195 . S
C23 O24 1.313 . S
O24 C23 1.313 . S
O25 Mg13 2.141 . S
O25 C16 1.289 . S
Mg26 O33 2.141 . S
Mg26 O34 2.048 . S
Mg26 O35 2.048 . S
Mg26 O38 2.141 . S
C27 O28 1.313 . S
C27 O34 1.195 . S
O28 C27 1.313 . S
C29 O30 1.245 . S
C29 O38 1.289 . S
O30 C29 1.245 . S
C31 O32 1.245 . S
C31 O33 1.289 . S
O32 C31 1.245 . S
O33 Mg26 2.141 . S
O33 C31 1.289 . S
O34 Mg26 2.048 . S
O34 C27 1.195 . S
O35 Mg26 2.048 . S
O35 C36 1.195 . S
C36 O35 1.195 . S
C36 O37 1.313 . S
O37 C36 1.313 . S
O38 Mg26 2.141 . S
O38 C29 1.289 . S
Mg39 O46 2.141 . S
Mg39 O47 2.048 . S
Mg39 O48 2.048 . S
Mg39 O51 2.141 . S
C40 O41 1.313 . S
C40 O47 1.195 . S
O41 C40 1.313 . S
C42 O43 1.245 . S
C42 O51 1.289 . S
O43 C42 1.245 . S
C44 O45 1.245 . S
C44 O46 1.289 . S
O45 C44 1.245 . S
O46 Mg39 2.141 . S
O46 C44 1.289 . S
O47 Mg39 2.048 . S
O47 C40 1.195 . S
O48 Mg39 2.048 . S
O48 C49 1.195 . S
C49 O48 1.195 . S
C49 O50 1.313 . S
O50 C49 1.313 . S
O51 Mg39 2.141 . S
O51 C42 1.289 . S
Mg52 O59 2.141 . S
Mg52 O60 2.048 . S
Mg52 O61 2.048 . S
Mg52 O64 2.141 . S
C53 O54 1.313 . S
C53 O60 1.195 . S
O54 C53 1.313 . S
C55 O56 1.245 . S
C55 O64 1.289 . S
O56 C55 1.245 . S
C57 O58 1.245 . S
C57 O59 1.289 . S
O58 C57 1.245 . S
O59 Mg52 2.141 . S
O59 C57 1.289 . S
O60 Mg52 2.048 . S
O60 C53 1.195 . S
O61 Mg52 2.048 . S
O61 C62 1.195 . S
C62 O61 1.195 . S
C62 O63 1.313 . S
O63 C62 1.313 . S
O64 Mg52 2.141 . S
O64 C55 1.289 . S
Mg65 O72 2.141 . S
Mg65 O73 2.048 . S
Mg65 O74 2.048 . S
Mg65 O77 2.141 . S
C66 O67 1.313 . S
C66 O73 1.195 . S
O67 C66 1.313 . S
C68 O69 1.245 . S
C68 O77 1.289 . S
O69 C68 1.245 . S
C70 O71 1.245 . S
C70 O72 1.289 . S
O71 C70 1.245 . S
O72 Mg65 2.141 . S
O72 C70 1.289 . S
O73 Mg65 2.048 . S
O73 C66 1.195 . S
O74 Mg65 2.048 . S
O74 C75 1.195 . S
C75 O74 1.195 . S
C75 O76 1.313 . S
O76 C75 1.313 . S
O77 Mg65 2.141 . S
O77 C68 1.289 . S
Mg78 O85 2.141 . S
Mg78 O86 2.048 . S
Mg78 O87 2.048 . S
Mg78 O90 2.141 . S
C79 O80 1.313 . S
C79 O86 1.195 . S
O80 C79 1.313 . S
C81 O82 1.245 . S
C81 O90 1.289 . S
O82 C81 1.245 . S
C83 O84 1.245 . S
C83 O85 1.289 . S
O84 C83 1.245 . S
O85 Mg78 2.141 . S
O85 C83 1.289 . S
O86 Mg78 2.048 . S
O86 C79 1.195 . S
O87 Mg78 2.048 . S
O87 C88 1.195 . S
C88 O87 1.195 . S
C88 O89 1.313 . S
O89 C88 1.313 . S
O90 Mg78 2.141 . S
O90 C81 1.289 . S
Mg91 O98 2.141 . S
Mg91 O99 2.048 . S
Mg91 O100 2.048 . S
Mg91 O103 2.141 . S
C92 O93 1.313 . S
C92 O99 1.195 . S
O93 C92 1.313 . S
C94 O95 1.245 . S
C94 O103 1.289 . S
O95 C94 1.245 . S
C96 O97 1.245 . S
C96 O98 1.289 . S
O97 C96 1.245 . S
O98 Mg91 2.141 . S
O98 C96 1.289 . S
O99 Mg91 2.048 . S
O99 C92 1.195 . S
O100 Mg91 2.048 . S
O100 C101 1.195 . S
C101 O100 1.195 . S
C101 O102 1.313 . S
O102 C101 1.313 . S
O103 Mg91 2.141 . S
O103 C94 1.289 . S
Mg104 O111 2.141 . S
Mg104 O112 2.048 . S
Mg104 O113 2.048 . S
Mg104 O116 2.141 . S
C105 O106 1.313 . S
C105 O112 1.195 . S
O106 C105 1.313 . S
C107 O108 1.245 . S
C107 O116 1.289 . S
O108 C107 1.245 . S
C109 O110 1.245 . S
C109 O111 1.289 . S
O110 C109 1.245 . S
O111 Mg104 2.141 . S
O111 C109 1.289 . S
O112 Mg104 2.048 . S
O112 C105 1.195 . S
O113 Mg104 2.048 . S
O113 C114 1.195 . S
C114 O113 1.195 . S
C114 O115 1.313 . S
O115 C114 1.313 . S
O116 Mg104 2.141 . S
O116 C107 1.289 . S
Mg117 O124 2.141 . S
Mg117 O125 2.048 . S
Mg117 O126 2.048 . S
Mg117 O129 2.141 . S
C118 O119 1.313 . S
C118 O125 1.195 . S
O119 C118 1.313 . S
C120 O121 1.245 . S
C120 O129 1.289 . S
O121 C120 1.245 . S
C122 O123 1.245 . S
C122 O124 1.289 . S
O123 C122 1.245 . S
O124 Mg117 2.141 . S
O124 C122 1.289 . S
O125 Mg117 2.048 . S
O125 C118 1.195 . S
O126 Mg117 2.048 . S
O126 C127 1.195 . S
C127 O126 1.195 . S
C127 O128 1.313 . S
O128 C127 1.313 . S
O129 Mg117 2.141 . S
O129 C120 1.289 . S
Mg130 O137 2.141 . S
Mg130 O138 2.048 . S
Mg130 O139 2.048 . S
Mg130 O142 2.141 . S
C131 O132 1.313 . S
C131 O138 1.195 . S
O132 C131 1.313 . S
C133 O134 1.245 . S
C133 O142 1.289 . S
O134 C133 1.245 . S
C135 O136 1.245 . S
C135 O137 1.289 . S
O136 C135 1.245 . S
O137 Mg130 2.141 . S
O137 C135 1.289 . S
O138 Mg130 2.048 . S
O138 C131 1.195 . S
O139 Mg130 2.048 . S
O139 C140 1.195 . S
C140 O139 1.195 . S
C140 O141 1.313 . S
O141 C140 1.313 . S
O142 Mg130 2.141 . S
O142 C133 1.289 . S
Mg143 O150 2.141 . S
Mg143 O151 2.048 . S
Mg143 O152 2.048 . S
Mg143 O155 2.141 . S
C144 O145 1.313 . S
C144 O151 1.195 . S
O145 C144 1.313 . S
C146 O147 1.245 . S
C146 O155 1.289 . S
O147 C146 1.245 . S
C148 O149 1.245 . S
C148 O150 1.289 . S
O149 C148 1.245 . S
O150 Mg143 2.141 . S
O150 C148 1.289 . S
O151 Mg143 2.048 . S
O151 C144 1.195 . S
O152 Mg143 2.048 . S
O152 C153 1.195 . S
C153 O152 1.195 . S
C153 O154 1.313 . S
O154 C153 1.313 . S
O155 Mg143 2.141 . S
O155 C146 1.289 . S
H156 C174 0.951 . S
H157 C176 0.951 . S
H158 C178 0.950 . S
H159 C179 0.950 . S
H160 C181 0.950 . S
H161 C184 0.950 . S
H162 C185 0.950 1_655 S
H163 C187 0.950 . S
H164 C188 0.950 . S
H165 C189 0.951 . S
H166 C191 0.951 . S
H167 C193 0.950 . S
H168 C194 0.950 . S
H169 C196 0.950 . S
H170 C199 0.950 . S
H171 C200 0.950 . S
H172 C202 0.950 . S
H173 C203 0.950 . S
C174 H156 0.951 . S
C174 C175 1.366 . S
C174 C176 1.388 . S
C175 C174 1.366 . S
C175 C179 1.385 . S
C176 H157 0.951 . S
C176 C174 1.388 . S
C176 C177 1.366 . S
C177 C176 1.366 . S
C177 C178 1.414 . S
C177 C180 1.499 . S
C178 H158 0.950 . S
C178 C177 1.414 . S
C178 C179 1.374 . S
C179 H159 0.950 . S
C179 C175 1.385 . S
C179 C178 1.374 . S
C180 C177 1.499 . S
C180 C181 1.373 . S
C180 C182 1.389 . S
C181 H160 0.950 . S
C181 C180 1.373 . S
C181 C197 1.377 . S
C182 C180 1.389 . S
C182 C183 1.524 . S
C182 C196 1.377 . S
C183 C182 1.524 . S
C183 C184 1.397 . S
C183 C188 1.363 . S
C184 H161 0.950 . S
C184 C183 1.397 . S
C184 C185 1.334 . S
C185 H162 0.950 1_455 S
C185 C184 1.334 . S
C185 C186 1.287 . S
C186 C185 1.287 . S
C186 C187 1.524 . S
C186 H205 0.913 1_455 S
C187 H163 0.950 . S
C187 C186 1.524 . S
C187 C188 1.415 . S
C188 H164 0.950 . S
C188 C183 1.363 . S
C188 C187 1.415 . S
C189 H165 0.951 . S
C189 C190 1.366 . S
C189 C191 1.388 . S
C190 C189 1.366 . S
C190 C194 1.385 . S
C191 H166 0.951 . S
C191 C189 1.388 . S
C191 C192 1.366 . S
C192 C191 1.366 . S
C192 C193 1.414 . S
C192 C195 1.499 . S
C193 H167 0.950 . S
C193 C192 1.414 . S
C193 C194 1.374 . S
C194 H168 0.950 . S
C194 C190 1.385 . S
C194 C193 1.374 . S
C195 C192 1.499 . S
C195 C196 1.373 . S
C195 C197 1.389 . S
C196 H169 0.950 . S
C196 C182 1.377 . S
C196 C195 1.373 . S
C197 C181 1.377 . S
C197 C195 1.389 . S
C197 C198 1.524 . S
C198 C197 1.524 . S
C198 C199 1.397 . S
C198 C203 1.363 . S
C199 H170 0.950 . S
C199 C198 1.397 . S
C199 C200 1.334 . S
C200 H171 0.950 . S
C200 C199 1.334 . S
C200 C201 1.287 . S
C201 C200 1.287 . S
C201 C202 1.524 . S
C201 H204 0.999 . S
C202 H172 0.950 . S
C202 C201 1.524 . S
C202 C203 1.415 . S
C203 H173 0.950 . S
C203 C198 1.363 . S
C203 C202 1.415 . S
H204 C201 0.999 . S
H205 C186 0.913 1_655 S
H206 C224 0.951 . S
H207 C226 0.951 . S
H208 C228 0.950 . S
H209 C229 0.950 . S
H210 C231 0.950 . S
H211 C234 0.950 . S
H212 C235 0.950 . S
H213 C237 0.950 . S
H214 C238 0.950 . S
H215 C239 0.951 . S
H216 C241 0.951 . S
H217 C243 0.950 . S
H218 C244 0.950 . S
H219 C246 0.950 . S
H220 C249 0.950 . S
H221 C250 0.950 . S
H222 C252 0.950 1_565 S
H223 C253 0.950 . S
C224 H206 0.951 . S
C224 C225 1.366 . S
C224 C226 1.388 . S
C225 C224 1.366 . S
C225 C229 1.385 . S
C226 H207 0.951 . S
C226 C224 1.388 . S
C226 C227 1.366 . S
C227 C226 1.366 . S
C227 C228 1.414 . S
C227 C230 1.499 . S
C228 H208 0.950 . S
C228 C227 1.414 . S
C228 C229 1.374 . S
C229 H209 0.950 . S
C229 C225 1.385 . S
C229 C228 1.374 . S
C230 C227 1.499 . S
C230 C231 1.373 . S
C230 C232 1.389 . S
C231 H210 0.950 . S
C231 C230 1.373 . S
C231 C247 1.377 . S
C232 C230 1.389 . S
C232 C233 1.524 . S
C232 C246 1.377 . S
C233 C232 1.524 . S
C233 C234 1.397 . S
C233 C238 1.363 . S
C234 H211 0.950 . S
C234 C233 1.397 . S
C234 C235 1.334 . S
C235 H212 0.950 . S
C235 C234 1.334 . S
C235 C236 1.287 . S
C236 C235 1.287 . S
C236 C237 1.524 . S
C236 H255 0.913 . S
C237 H213 0.950 . S
C237 C236 1.524 . S
C237 C238 1.415 . S
C238 H214 0.950 . S
C238 C233 1.363 . S
C238 C237 1.415 . S
C239 H215 0.951 . S
C239 C240 1.366 . S
C239 C241 1.388 . S
C240 C239 1.366 . S
C240 C244 1.385 . S
C241 H216 0.951 . S
C241 C239 1.388 . S
C241 C242 1.366 . S
C242 C241 1.366 . S
C242 C243 1.414 . S
C242 C245 1.499 . S
C243 H217 0.950 . S
C243 C242 1.414 . S
C243 C244 1.374 . S
C244 H218 0.950 . S
C244 C240 1.385 . S
C244 C243 1.374 . S
C245 C242 1.499 . S
C245 C246 1.373 . S
C245 C247 1.389 . S
C246 H219 0.950 . S
C246 C232 1.377 . S
C246 C245 1.373 . S
C247 C231 1.377 . S
C247 C245 1.389 . S
C247 C248 1.524 . S
C248 C247 1.524 . S
C248 C249 1.397 . S
C248 C253 1.363 . S
C249 H220 0.950 . S
C249 C248 1.397 . S
C249 C250 1.334 . S
C250 H221 0.950 . S
C250 C249 1.334 . S
C250 C251 1.287 . S
C251 C250 1.287 . S
C251 C252 1.524 . S
C251 H254 0.999 . S
C252 H222 0.950 1_545 S
C252 C251 1.524 . S
C252 C253 1.415 . S
C253 H223 0.950 . S
C253 C248 1.363 . S
C253 C252 1.415 . S
H254 C251 0.999 . S
H255 C236 0.913 . S
H256 C274 0.951 . S
H257 C276 0.951 . S
H258 C278 0.950 . S
H259 C279 0.950 . S
H260 C281 0.950 . S
H261 C284 0.950 . S
H262 C285 0.950 . S
H263 C287 0.950 . S
H264 C288 0.950 . S
H265 C289 0.951 . S
H266 C291 0.951 . S
H267 C293 0.950 . S
H268 C294 0.950 . S
H269 C296 0.950 . S
H270 C299 0.950 . S
H271 C300 0.950 . S
H272 C302 0.950 . S
H273 C303 0.950 . S
C274 H256 0.951 . S
C274 C275 1.366 . S
C274 C276 1.388 . S
C275 C274 1.366 . S
C275 C279 1.385 . S
C276 H257 0.951 . S
C276 C274 1.388 . S
C276 C277 1.366 . S
C277 C276 1.366 . S
C277 C278 1.414 . S
C277 C280 1.499 . S
C278 H258 0.950 . S
C278 C277 1.414 . S
C278 C279 1.374 . S
C279 H259 0.950 . S
C279 C275 1.385 . S
C279 C278 1.374 . S
C280 C277 1.499 . S
C280 C281 1.373 . S
C280 C282 1.389 . S
C281 H260 0.950 . S
C281 C280 1.373 . S
C281 C297 1.377 . S
C282 C280 1.389 . S
C282 C283 1.524 . S
C282 C296 1.377 . S
C283 C282 1.524 . S
C283 C284 1.397 . S
C283 C288 1.363 . S
C284 H261 0.950 . S
C284 C283 1.397 . S
C284 C285 1.334 . S
C285 H262 0.950 . S
C285 C284 1.334 . S
C285 C286 1.287 . S
C286 C285 1.287 . S
C286 C287 1.524 . S
C286 H305 0.913 . S
C287 H263 0.950 . S
C287 C286 1.524 . S
C287 C288 1.415 . S
C288 H264 0.950 . S
C288 C283 1.363 . S
C288 C287 1.415 . S
C289 H265 0.951 . S
C289 C290 1.366 . S
C289 C291 1.388 . S
C290 C289 1.366 . S
C290 C294 1.385 . S
C291 H266 0.951 . S
C291 C289 1.388 . S
C291 C292 1.366 . S
C292 C291 1.366 . S
C292 C293 1.414 . S
C292 C295 1.499 . S
C293 H267 0.950 . S
C293 C292 1.414 . S
C293 C294 1.374 . S
C294 H268 0.950 . S
C294 C290 1.385 . S
C294 C293 1.374 . S
C295 C292 1.499 . S
C295 C296 1.373 . S
C295 C297 1.389 . S
C296 H269 0.950 . S
C296 C282 1.377 . S
C296 C295 1.373 . S
C297 C281 1.377 . S
C297 C295 1.389 . S
C297 C298 1.524 . S
C298 C297 1.524 . S
C298 C299 1.397 . S
C298 C303 1.363 . S
C299 H270 0.950 . S
C299 C298 1.397 . S
C299 C300 1.334 . S
C300 H271 0.950 . S
C300 C299 1.334 . S
C300 C301 1.287 . S
C301 C300 1.287 . S
C301 C302 1.524 . S
C301 H304 0.999 . S
C302 H272 0.950 . S
C302 C301 1.524 . S
C302 C303 1.415 . S
C303 H273 0.950 . S
C303 C298 1.363 . S
C303 C302 1.415 . S
H304 C301 0.999 . S
H305 C286 0.913 . S
H306 C324 0.951 . S
H307 C326 0.951 . S
H308 C328 0.950 . S
H309 C329 0.950 . S
H310 C331 0.950 . S
H311 C334 0.950 . S
H312 C335 0.950 . S
H313 C337 0.950 1_455 S
H314 C338 0.950 . S
H315 C339 0.951 . S
H316 C341 0.951 . S
H317 C343 0.950 . S
H318 C344 0.950 . S
H319 C346 0.950 . S
H320 C349 0.950 . S
H321 C350 0.950 . S
H322 C352 0.950 . S
H323 C353 0.950 . S
C324 H306 0.951 . S
C324 C325 1.366 . S
C324 C326 1.388 . S
C325 C324 1.366 . S
C325 C329 1.385 . S
C326 H307 0.951 . S
C326 C324 1.388 . S
C326 C327 1.366 . S
C327 C326 1.366 . S
C327 C328 1.414 . S
C327 C330 1.499 . S
C328 H308 0.950 . S
C328 C327 1.414 . S
C328 C329 1.374 . S
C329 H309 0.950 . S
C329 C325 1.385 . S
C329 C328 1.374 . S
C330 C327 1.499 . S
C330 C331 1.373 . S
C330 C332 1.389 . S
C331 H310 0.950 . S
C331 C330 1.373 . S
C331 C347 1.377 . S
C332 C330 1.389 . S
C332 C333 1.524 . S
C332 C346 1.377 . S
C333 C332 1.524 . S
C333 C334 1.397 . S
C333 C338 1.363 . S
C334 H311 0.950 . S
C334 C333 1.397 . S
C334 C335 1.334 . S
C335 H312 0.950 . S
C335 C334 1.334 . S
C335 C336 1.287 . S
C336 C335 1.287 . S
C336 C337 1.524 . S
C336 H355 0.913 . S
C337 H313 0.950 1_655 S
C337 C336 1.524 . S
C337 C338 1.415 . S
C338 H314 0.950 . S
C338 C333 1.363 . S
C338 C337 1.415 . S
C339 H315 0.951 . S
C339 C340 1.366 . S
C339 C341 1.388 . S
C340 C339 1.366 . S
C340 C344 1.385 . S
C341 H316 0.951 . S
C341 C339 1.388 . S
C341 C342 1.366 . S
C342 C341 1.366 . S
C342 C343 1.414 . S
C342 C345 1.499 . S
C343 H317 0.950 . S
C343 C342 1.414 . S
C343 C344 1.374 . S
C344 H318 0.950 . S
C344 C340 1.385 . S
C344 C343 1.374 . S
C345 C342 1.499 . S
C345 C346 1.373 . S
C345 C347 1.389 . S
C346 H319 0.950 . S
C346 C332 1.377 . S
C346 C345 1.373 . S
C347 C331 1.377 . S
C347 C345 1.389 . S
C347 C348 1.524 . S
C348 C347 1.524 . S
C348 C349 1.397 . S
C348 C353 1.363 . S
C349 H320 0.950 . S
C349 C348 1.397 . S
C349 C350 1.334 . S
C350 H321 0.950 . S
C350 C349 1.334 . S
C350 C351 1.287 . S
C351 C350 1.287 . S
C351 C352 1.524 . S
C351 H354 0.999 . S
C352 H322 0.950 . S
C352 C351 1.524 . S
C352 C353 1.415 . S
C353 H323 0.950 . S
C353 C348 1.363 . S
C353 C352 1.415 . S
H354 C351 0.999 . S
H355 C336 0.913 . S
H356 C374 0.951 . S
H357 C376 0.951 . S
H358 C378 0.950 . S
H359 C379 0.950 . S
H360 C381 0.950 . S
H361 C384 0.950 . S
H362 C385 0.950 . S
H363 C387 0.950 . S
H364 C388 0.950 . S
H365 C389 0.951 . S
H366 C391 0.951 . S
H367 C393 0.950 . S
H368 C394 0.950 . S
H369 C396 0.950 . S
H370 C399 0.950 . S
H371 C400 0.950 . S
H372 C402 0.950 . S
H373 C403 0.950 . S
C374 H356 0.951 . S
C374 C375 1.366 . S
C374 C376 1.388 . S
C375 C374 1.366 . S
C375 C379 1.385 . S
C376 H357 0.951 . S
C376 C374 1.388 . S
C376 C377 1.366 . S
C377 C376 1.366 . S
C377 C378 1.414 . S
C377 C380 1.499 . S
C378 H358 0.950 . S
C378 C377 1.414 . S
C378 C379 1.374 . S
C379 H359 0.950 . S
C379 C375 1.385 . S
C379 C378 1.374 . S
C380 C377 1.499 . S
C380 C381 1.373 . S
C380 C382 1.389 . S
C381 H360 0.950 . S
C381 C380 1.373 . S
C381 C397 1.377 . S
C382 C380 1.389 . S
C382 C383 1.524 . S
C382 C396 1.377 . S
C383 C382 1.524 . S
C383 C384 1.397 . S
C383 C388 1.363 . S
C384 H361 0.950 . S
C384 C383 1.397 . S
C384 C385 1.334 . S
C385 H362 0.950 . S
C385 C384 1.334 . S
C385 C386 1.287 . S
C386 C385 1.287 . S
C386 C387 1.524 . S
C386 H405 0.913 . S
C387 H363 0.950 . S
C387 C386 1.524 . S
C387 C388 1.415 . S
C388 H364 0.950 . S
C388 C383 1.363 . S
C388 C387 1.415 . S
C389 H365 0.951 . S
C389 C390 1.366 . S
C389 C391 1.388 . S
C390 C389 1.366 . S
C390 C394 1.385 . S
C391 H366 0.951 . S
C391 C389 1.388 . S
C391 C392 1.366 . S
C392 C391 1.366 . S
C392 C393 1.414 . S
C392 C395 1.499 . S
C393 H367 0.950 . S
C393 C392 1.414 . S
C393 C394 1.374 . S
C394 H368 0.950 . S
C394 C390 1.385 . S
C394 C393 1.374 . S
C395 C392 1.499 . S
C395 C396 1.373 . S
C395 C397 1.389 . S
C396 H369 0.950 . S
C396 C382 1.377 . S
C396 C395 1.373 . S
C397 C381 1.377 . S
C397 C395 1.389 . S
C397 C398 1.524 . S
C398 C397 1.524 . S
C398 C399 1.397 . S
C398 C403 1.363 . S
C399 H370 0.950 . S
C399 C398 1.397 . S
C399 C400 1.334 1_565 S
C400 H371 0.950 . S
C400 C399 1.334 1_545 S
C400 C401 1.287 . S
C401 C400 1.287 . S
C401 C402 1.524 . S
C401 H404 0.999 . S
C402 H372 0.950 . S
C402 C401 1.524 . S
C402 C403 1.415 1_545 S
C403 H373 0.950 . S
C403 C398 1.363 . S
C403 C402 1.415 1_565 S
H404 C401 0.999 . S
H405 C386 0.913 . S
H406 C424 0.951 . S
H407 C426 0.951 . S
H408 C428 0.950 . S
H409 C429 0.950 . S
H410 C431 0.950 . S
H411 C434 0.950 . S
H412 C435 0.950 . S
H413 C437 0.950 . S
H414 C438 0.950 . S
H415 C439 0.951 . S
H416 C441 0.951 . S
H417 C443 0.950 . S
H418 C444 0.950 . S
H419 C446 0.950 . S
H420 C449 0.950 . S
H421 C450 0.950 . S
H422 C452 0.950 . S
H423 C453 0.950 . S
C424 H406 0.951 . S
C424 C425 1.366 . S
C424 C426 1.388 . S
C425 C424 1.366 . S
C425 C429 1.385 . S
C426 H407 0.951 . S
C426 C424 1.388 . S
C426 C427 1.366 . S
C427 C426 1.366 . S
C427 C428 1.414 . S
C427 C430 1.499 . S
C428 H408 0.950 . S
C428 C427 1.414 . S
C428 C429 1.374 . S
C429 H409 0.950 . S
C429 C425 1.385 . S
C429 C428 1.374 . S
C430 C427 1.499 . S
C430 C431 1.373 . S
C430 C432 1.389 . S
C431 H410 0.950 . S
C431 C430 1.373 . S
C431 C447 1.377 . S
C432 C430 1.389 . S
C432 C433 1.524 . S
C432 C446 1.377 . S
C433 C432 1.524 . S
C433 C434 1.397 . S
C433 C438 1.363 . S
C434 H411 0.950 . S
C434 C433 1.397 . S
C434 C435 1.334 . S
C435 H412 0.950 . S
C435 C434 1.334 . S
C435 C436 1.287 . S
C436 C435 1.287 . S
C436 C437 1.524 . S
C436 H455 0.913 . S
C437 H413 0.950 . S
C437 C436 1.524 . S
C437 C438 1.415 . S
C438 H414 0.950 . S
C438 C433 1.363 . S
C438 C437 1.415 . S
C439 H415 0.951 . S
C439 C440 1.366 . S
C439 C441 1.388 . S
C440 C439 1.366 . S
C440 C444 1.385 . S
C441 H416 0.951 . S
C441 C439 1.388 . S
C441 C442 1.366 . S
C442 C441 1.366 . S
C442 C443 1.414 . S
C442 C445 1.499 . S
C443 H417 0.950 . S
C443 C442 1.414 . S
C443 C444 1.374 . S
C444 H418 0.950 . S
C444 C440 1.385 . S
C444 C443 1.374 . S
C445 C442 1.499 . S
C445 C446 1.373 . S
C445 C447 1.389 . S
C446 H419 0.950 . S
C446 C432 1.377 . S
C446 C445 1.373 . S
C447 C431 1.377 . S
C447 C445 1.389 . S
C447 C448 1.524 . S
C448 C447 1.524 . S
C448 C449 1.397 . S
C448 C453 1.363 . S
C449 H420 0.950 . S
C449 C448 1.397 . S
C449 C450 1.334 . S
C450 H421 0.950 . S
C450 C449 1.334 . S
C450 C451 1.287 . S
C451 C450 1.287 . S
C451 C452 1.524 . S
C451 H454 0.999 . S
C452 H422 0.950 . S
C452 C451 1.524 . S
C452 C453 1.415 . S
C453 H423 0.950 . S
C453 C448 1.363 . S
C453 C452 1.415 . S
H454 C451 0.999 . S
H455 C436 0.913 . S
H456 C474 0.951 . S
H457 C476 0.951 . S
H458 C478 0.950 . S
H459 C479 0.950 . S
H460 C481 0.950 . S
H461 C484 0.950 . S
H462 C485 0.950 . S
H463 C487 0.950 . S
H464 C488 0.950 . S
H465 C489 0.951 . S
H466 C491 0.951 . S
H467 C493 0.950 . S
H468 C494 0.950 . S
H469 C496 0.950 . S
H470 C499 0.950 . S
H471 C500 0.950 . S
H472 C502 0.950 . S
H473 C503 0.950 . S
C474 H456 0.951 . S
C474 C475 1.366 . S
C474 C476 1.388 . S
C475 C474 1.366 . S
C475 C479 1.385 . S
C476 H457 0.951 . S
C476 C474 1.388 . S
C476 C477 1.366 . S
C477 C476 1.366 . S
C477 C478 1.414 . S
C477 C480 1.499 . S
C478 H458 0.950 . S
C478 C477 1.414 . S
C478 C479 1.374 . S
C479 H459 0.950 . S
C479 C475 1.385 . S
C479 C478 1.374 . S
C480 C477 1.499 . S
C480 C481 1.373 . S
C480 C482 1.389 . S
C481 H460 0.950 . S
C481 C480 1.373 . S
C481 C497 1.377 . S
C482 C480 1.389 . S
C482 C483 1.524 . S
C482 C496 1.377 . S
C483 C482 1.524 . S
C483 C484 1.397 . S
C483 C488 1.363 . S
C484 H461 0.950 . S
C484 C483 1.397 . S
C484 C485 1.334 . S
C485 H462 0.950 . S
C485 C484 1.334 . S
C485 C486 1.287 . S
C486 C485 1.287 . S
C486 C487 1.524 . S
C486 H505 0.913 . S
C487 H463 0.950 . S
C487 C486 1.524 . S
C487 C488 1.415 . S
C488 H464 0.950 . S
C488 C483 1.363 . S
C488 C487 1.415 . S
C489 H465 0.951 . S
C489 C490 1.366 . S
C489 C491 1.388 . S
C490 C489 1.366 . S
C490 C494 1.385 . S
C491 H466 0.951 . S
C491 C489 1.388 . S
C491 C492 1.366 . S
C492 C491 1.366 . S
C492 C493 1.414 . S
C492 C495 1.499 . S
C493 H467 0.950 . S
C493 C492 1.414 . S
C493 C494 1.374 . S
C494 H468 0.950 . S
C494 C490 1.385 . S
C494 C493 1.374 . S
C495 C492 1.499 . S
C495 C496 1.373 . S
C495 C497 1.389 . S
C496 H469 0.950 . S
C496 C482 1.377 . S
C496 C495 1.373 . S
C497 C481 1.377 . S
C497 C495 1.389 . S
C497 C498 1.524 . S
C498 C497 1.524 . S
C498 C499 1.397 . S
C498 C503 1.363 . S
C499 H470 0.950 . S
C499 C498 1.397 . S
C499 C500 1.334 . S
C500 H471 0.950 . S
C500 C499 1.334 . S
C500 C501 1.287 . S
C501 C500 1.287 . S
C501 C502 1.524 . S
C501 H504 0.999 . S
C502 H472 0.950 . S
C502 C501 1.524 . S
C502 C503 1.415 . S
C503 H473 0.950 . S
C503 C498 1.363 . S
C503 C502 1.415 . S
H504 C501 0.999 . S
H505 C486 0.913 . S
H506 C524 0.951 . S
H507 C526 0.951 . S
H508 C528 0.950 . S
H509 C529 0.950 . S
H510 C531 0.950 . S
H511 C534 0.950 . S
H512 C535 0.950 . S
H513 C537 0.950 . S
H514 C538 0.950 . S
H515 C539 0.951 . S
H516 C541 0.951 . S
H517 C543 0.950 . S
H518 C544 0.950 . S
H519 C546 0.950 . S
H520 C549 0.950 . S
H521 C550 0.950 . S
H522 C552 0.950 . S
H523 C553 0.950 . S
C524 H506 0.951 . S
C524 C525 1.366 . S
C524 C526 1.388 . S
C525 C524 1.366 . S
C525 C529 1.385 . S
C526 H507 0.951 . S
C526 C524 1.388 . S
C526 C527 1.366 . S
C527 C526 1.366 . S
C527 C528 1.414 . S
C527 C530 1.499 . S
C528 H508 0.950 . S
C528 C527 1.414 . S
C528 C529 1.374 . S
C529 H509 0.950 . S
C529 C525 1.385 . S
C529 C528 1.374 . S
C530 C527 1.499 . S
C530 C531 1.373 1_655 S
C530 C532 1.389 . S
C531 H510 0.950 . S
C531 C530 1.373 1_455 S
C531 C547 1.377 . S
C532 C530 1.389 . S
C532 C533 1.524 . S
C532 C546 1.377 . S
C533 C532 1.524 . S
C533 C534 1.397 . S
C533 C538 1.363 . S
C534 H511 0.950 . S
C534 C533 1.397 . S
C534 C535 1.334 . S
C535 H512 0.950 . S
C535 C534 1.334 . S
C535 C536 1.287 . S
C536 C535 1.287 . S
C536 C537 1.524 . S
C536 H555 0.913 . S
C537 H513 0.950 . S
C537 C536 1.524 . S
C537 C538 1.415 . S
C538 H514 0.950 . S
C538 C533 1.363 . S
C538 C537 1.415 . S
C539 H515 0.951 . S
C539 C540 1.366 . S
C539 C541 1.388 . S
C540 C539 1.366 . S
C540 C544 1.385 . S
C541 H516 0.951 . S
C541 C539 1.388 . S
C541 C542 1.366 . S
C542 C541 1.366 . S
C542 C543 1.414 . S
C542 C545 1.499 . S
C543 H517 0.950 . S
C543 C542 1.414 . S
C543 C544 1.374 . S
C544 H518 0.950 . S
C544 C540 1.385 . S
C544 C543 1.374 . S
C545 C542 1.499 . S
C545 C546 1.373 1_455 S
C545 C547 1.389 . S
C546 H519 0.950 . S
C546 C532 1.377 . S
C546 C545 1.373 1_655 S
C547 C531 1.377 . S
C547 C545 1.389 . S
C547 C548 1.524 . S
C548 C547 1.524 . S
C548 C549 1.397 . S
C548 C553 1.363 . S
C549 H520 0.950 . S
C549 C548 1.397 . S
C549 C550 1.334 . S
C550 H521 0.950 . S
C550 C549 1.334 . S
C550 C551 1.287 . S
C551 C550 1.287 . S
C551 C552 1.524 . S
C551 H554 0.999 . S
C552 H522 0.950 . S
C552 C551 1.524 . S
C552 C553 1.415 . S
C553 H523 0.950 . S
C553 C548 1.363 . S
C553 C552 1.415 . S
H554 C551 0.999 . S
H555 C536 0.913 . S
H556 C574 0.951 . S
H557 C576 0.951 . S
H558 C578 0.950 . S
H559 C579 0.950 . S
H560 C581 0.950 . S
H561 C584 0.950 1_545 S
H562 C585 0.950 . S
H563 C587 0.950 . S
H564 C588 0.950 . S
H565 C589 0.951 . S
H566 C591 0.951 . S
H567 C593 0.950 . S
H568 C594 0.950 . S
H569 C596 0.950 . S
H570 C599 0.950 1_565 S
H571 C600 0.950 . S
H572 C602 0.950 . S
H573 C603 0.950 . S
C574 H556 0.951 . S
C574 C575 1.366 . S
C574 C576 1.388 . S
C575 C574 1.366 . S
C575 C579 1.385 . S
C576 H557 0.951 . S
C576 C574 1.388 . S
C576 C577 1.366 . S
C577 C576 1.366 . S
C577 C578 1.414 . S
C577 C580 1.499 . S
C578 H558 0.950 . S
C578 C577 1.414 . S
C578 C579 1.374 . S
C579 H559 0.950 . S
C579 C575 1.385 . S
C579 C578 1.374 . S
C580 C577 1.499 . S
C580 C581 1.373 . S
C580 C582 1.383 1_545 S
C581 H560 0.950 . S
C581 C580 1.373 . S
C581 C597 1.389 . S
C582 C580 1.383 1_565 S
C582 C583 1.521 . S
C582 C596 1.388 . S
C583 C582 1.521 . S
C583 C584 1.397 . S
C583 C588 1.363 . S
C584 H561 0.950 1_565 S
C584 C583 1.397 . S
C584 C585 1.334 . S
C585 H562 0.950 . S
C585 C584 1.334 . S
C585 C586 1.287 . S
C586 C585 1.287 . S
C586 C587 1.524 . S
C586 H605 0.913 . S
C587 H563 0.950 . S
C587 C586 1.524 . S
C587 C588 1.415 . S
C588 H564 0.950 . S
C588 C583 1.363 . S
C588 C587 1.415 . S
C589 H565 0.951 . S
C589 C590 1.366 . S
C589 C591 1.388 . S
C590 C589 1.366 . S
C590 C594 1.385 . S
C591 H566 0.951 . S
C591 C589 1.388 . S
C591 C592 1.366 . S
C592 C591 1.366 . S
C592 C593 1.414 . S
C592 C595 1.499 . S
C593 H567 0.950 . S
C593 C592 1.414 . S
C593 C594 1.374 . S
C594 H568 0.950 . S
C594 C590 1.385 . S
C594 C593 1.374 . S
C595 C592 1.499 . S
C595 C596 1.373 . S
C595 C597 1.382 1_565 S
C596 H569 0.950 . S
C596 C582 1.388 . S
C596 C595 1.373 . S
C597 C581 1.389 . S
C597 C595 1.382 1_545 S
C597 C598 1.521 . S
C598 C597 1.521 . S
C598 C599 1.397 . S
C598 C603 1.363 . S
C599 H570 0.950 1_545 S
C599 C598 1.397 . S
C599 C600 1.334 . S
C600 H571 0.950 . S
C600 C599 1.334 . S
C600 C601 1.287 . S
C601 C600 1.287 . S
C601 C602 1.524 . S
C601 H604 0.999 . S
C602 H572 0.950 . S
C602 C601 1.524 . S
C602 C603 1.415 . S
C603 H573 0.950 . S
C603 C598 1.363 . S
C603 C602 1.415 . S
H604 C601 0.999 . S
H605 C586 0.913 . S
H606 C624 0.951 . S
H607 C626 0.951 . S
H608 C628 0.950 . S
H609 C629 0.950 . S
H610 C631 0.950 . S
H611 C634 0.950 . S
H612 C635 0.950 . S
H613 C637 0.950 . S
H614 C638 0.950 . S
H615 C639 0.951 . S
H616 C641 0.951 . S
H617 C643 0.950 . S
H618 C644 0.950 . S
H619 C646 0.950 . S
H620 C649 0.950 . S
H621 C650 0.950 . S
H622 C652 0.950 . S
H623 C653 0.950 . S
C624 H606 0.951 . S
C624 C625 1.366 . S
C624 C626 1.388 . S
C625 C624 1.366 . S
C625 C629 1.385 . S
C626 H607 0.951 . S
C626 C624 1.388 . S
C626 C627 1.366 . S
C627 C626 1.366 . S
C627 C628 1.414 . S
C627 C630 1.499 . S
C628 H608 0.950 . S
C628 C627 1.414 . S
C628 C629 1.374 . S
C629 H609 0.950 . S
C629 C625 1.385 . S
C629 C628 1.374 . S
C630 C627 1.499 . S
C630 C631 1.373 . S
C630 C632 1.389 . S
C631 H610 0.950 . S
C631 C630 1.373 . S
C631 C647 1.377 . S
C632 C630 1.389 . S
C632 C633 1.524 . S
C632 C646 1.377 . S
C633 C632 1.524 . S
C633 C634 1.397 . S
C633 C638 1.363 . S
C634 H611 0.950 . S
C634 C633 1.397 . S
C634 C635 1.334 . S
C635 H612 0.950 . S
C635 C634 1.334 . S
C635 C636 1.287 . S
C636 C635 1.287 . S
C636 C637 1.524 . S
C636 H655 0.913 . S
C637 H613 0.950 . S
C637 C636 1.524 . S
C637 C638 1.415 . S
C638 H614 0.950 . S
C638 C633 1.363 . S
C638 C637 1.415 . S
C639 H615 0.951 . S
C639 C640 1.366 . S
C639 C641 1.388 . S
C640 C639 1.366 . S
C640 C644 1.385 . S
C641 H616 0.951 . S
C641 C639 1.388 . S
C641 C642 1.366 . S
C642 C641 1.366 . S
C642 C643 1.414 . S
C642 C645 1.499 . S
C643 H617 0.950 . S
C643 C642 1.414 . S
C643 C644 1.374 . S
C644 H618 0.950 . S
C644 C640 1.385 . S
C644 C643 1.374 . S
C645 C642 1.499 . S
C645 C646 1.373 . S
C645 C647 1.389 . S
C646 H619 0.950 . S
C646 C632 1.377 . S
C646 C645 1.373 . S
C647 C631 1.377 . S
C647 C645 1.389 . S
C647 C648 1.524 . S
C648 C647 1.524 . S
C648 C649 1.397 . S
C648 C653 1.363 . S
C649 H620 0.950 . S
C649 C648 1.397 . S
C649 C650 1.334 . S
C650 H621 0.950 . S
C650 C649 1.334 . S
C650 C651 1.287 . S
C651 C650 1.287 . S
C651 C652 1.524 . S
C651 H654 0.999 . S
C652 H622 0.950 . S
C652 C651 1.524 . S
C652 C653 1.415 . S
C653 H623 0.950 . S
C653 C648 1.363 . S
C653 C652 1.415 . S
H654 C651 0.999 . S
H655 C636 0.913 . S
H656 C674 0.951 . S
H657 C676 0.951 . S
H658 C678 0.950 . S
H659 C679 0.950 . S
H660 C681 0.950 . S
H661 C684 0.950 . S
H662 C685 0.950 . S
H663 C687 0.950 . S
H664 C688 0.950 . S
H665 C689 0.951 . S
H666 C691 0.951 . S
H667 C693 0.950 . S
H668 C694 0.950 . S
H669 C696 0.950 . S
H670 C699 0.950 . S
H671 C700 0.950 . S
H672 C702 0.950 . S
H673 C703 0.950 . S
C674 H656 0.951 . S
C674 C675 1.366 . S
C674 C676 1.388 . S
C675 C674 1.366 . S
C675 C679 1.385 . S
C676 H657 0.951 . S
C676 C674 1.388 . S
C676 C677 1.366 . S
C677 C676 1.366 . S
C677 C678 1.414 . S
C677 C680 1.499 . S
C678 H658 0.950 . S
C678 C677 1.414 . S
C678 C679 1.374 . S
C679 H659 0.950 . S
C679 C675 1.385 . S
C679 C678 1.374 . S
C680 C677 1.499 . S
C680 C681 1.373 . S
C680 C682 1.389 . S
C681 H660 0.950 . S
C681 C680 1.373 . S
C681 C697 1.377 1_655 S
C682 C680 1.389 . S
C682 C683 1.524 . S
C682 C696 1.377 1_655 S
C683 C682 1.524 . S
C683 C684 1.397 . S
C683 C688 1.363 . S
C684 H661 0.950 . S
C684 C683 1.397 . S
C684 C685 1.334 . S
C685 H662 0.950 . S
C685 C684 1.334 . S
C685 C686 1.287 . S
C686 C685 1.287 . S
C686 C687 1.524 . S
C686 H705 0.913 . S
C687 H663 0.950 . S
C687 C686 1.524 . S
C687 C688 1.415 . S
C688 H664 0.950 . S
C688 C683 1.363 . S
C688 C687 1.415 . S
C689 H665 0.951 . S
C689 C690 1.366 . S
C689 C691 1.388 . S
C690 C689 1.366 . S
C690 C694 1.385 . S
C691 H666 0.951 . S
C691 C689 1.388 . S
C691 C692 1.366 . S
C692 C691 1.366 . S
C692 C693 1.414 . S
C692 C695 1.499 . S
C693 H667 0.950 . S
C693 C692 1.414 . S
C693 C694 1.374 . S
C694 H668 0.950 . S
C694 C690 1.385 . S
C694 C693 1.374 . S
C695 C692 1.499 . S
C695 C696 1.373 . S
C695 C697 1.389 . S
C696 H669 0.950 . S
C696 C682 1.377 1_455 S
C696 C695 1.373 . S
C697 C681 1.377 1_455 S
C697 C695 1.389 . S
C697 C698 1.524 . S
C698 C697 1.524 . S
C698 C699 1.397 . S
C698 C703 1.363 . S
C699 H670 0.950 . S
C699 C698 1.397 . S
C699 C700 1.334 . S
C700 H671 0.950 . S
C700 C699 1.334 . S
C700 C701 1.287 . S
C701 C700 1.287 . S
C701 C702 1.524 . S
C701 H704 0.999 . S
C702 H672 0.950 . S
C702 C701 1.524 . S
C702 C703 1.415 . S
C703 H673 0.950 . S
C703 C698 1.363 . S
C703 C702 1.415 . S
H704 C701 0.999 . S
H705 C686 0.913 . S
H706 C724 0.951 . S
H707 C726 0.951 . S
H708 C728 0.950 . S
H709 C729 0.950 . S
H710 C731 0.950 . S
H711 C734 0.950 1_556 S
H712 C735 0.950 . S
H713 C737 0.950 . S
H714 C738 0.950 1_545 S
H715 C739 0.951 . S
H716 C741 0.951 . S
H717 C743 0.950 . S
H718 C744 0.950 . S
H719 C746 0.950 . S
H720 C749 0.950 1_554 S
H721 C750 0.950 . S
H722 C752 0.950 . S
H723 C753 0.950 1_565 S
C724 H706 0.951 . S
C724 C725 1.366 . S
C724 C726 1.388 . S
C725 C724 1.366 . S
C725 C729 1.385 . S
C726 H707 0.951 . S
C726 C724 1.388 . S
C726 C727 1.366 . S
C727 C726 1.366 . S
C727 C728 1.414 . S
C727 C730 1.499 . S
C728 H708 0.950 . S
C728 C727 1.414 . S
C728 C729 1.374 . S
C729 H709 0.950 . S
C729 C725 1.385 . S
C729 C728 1.374 . S
C730 C727 1.499 . S
C730 C731 1.373 . S
C730 C732 1.389 . S
C731 H710 0.950 . S
C731 C730 1.373 . S
C731 C747 1.377 1_564 S
C732 C730 1.389 . S
C732 C733 1.524 . S
C732 C746 1.377 1_564 S
C733 C732 1.524 . S
C733 C734 1.397 . S
C733 C738 1.363 . S
C734 H711 0.950 1_554 S
C734 C733 1.397 . S
C734 C735 1.334 . S
C735 H712 0.950 . S
C735 C734 1.334 . S
C735 C736 1.287 . S
C736 C735 1.287 . S
C736 C737 1.524 . S
C736 H755 0.913 . S
C737 H713 0.950 . S
C737 C736 1.524 . S
C737 C738 1.415 . S
C738 H714 0.950 1_565 S
C738 C733 1.363 . S
C738 C737 1.415 . S
C739 H715 0.951 . S
C739 C740 1.366 . S
C739 C741 1.388 . S
C740 C739 1.366 . S
C740 C744 1.385 . S
C741 H716 0.951 . S
C741 C739 1.388 . S
C741 C742 1.366 . S
C742 C741 1.366 . S
C742 C743 1.414 . S
C742 C745 1.499 . S
C743 H717 0.950 . S
C743 C742 1.414 . S
C743 C744 1.374 . S
C744 H718 0.950 . S
C744 C740 1.385 . S
C744 C743 1.374 . S
C745 C742 1.499 . S
C745 C746 1.373 . S
C745 C747 1.389 . S
C746 H719 0.950 . S
C746 C732 1.377 1_546 S
C746 C745 1.373 . S
C747 C731 1.377 1_546 S
C747 C745 1.389 . S
C747 C748 1.524 . S
C748 C747 1.524 . S
C748 C749 1.397 . S
C748 C753 1.363 . S
C749 H720 0.950 1_556 S
C749 C748 1.397 . S
C749 C750 1.334 . S
C750 H721 0.950 . S
C750 C749 1.334 . S
C750 C751 1.287 . S
C751 C750 1.287 . S
C751 C752 1.524 . S
C751 H754 0.999 . S
C752 H722 0.950 . S
C752 C751 1.524 . S
C752 C753 1.415 . S
C753 H723 0.950 1_545 S
C753 C748 1.363 . S
C753 C752 1.415 . S
H754 C751 0.999 . S
H755 C736 0.913 . S
H756 C774 0.951 . S
H757 C776 0.951 . S
H758 C778 0.950 . S
H759 C779 0.950 . S
H760 C781 0.950 . S
H761 C784 0.950 . S
H762 C785 0.950 . S
H763 C787 0.950 . S
H764 C788 0.950 . S
H765 C789 0.951 . S
H766 C791 0.951 . S
H767 C793 0.956 . S
H768 C794 0.950 . S
H769 C796 0.950 . S
H770 C799 0.950 . S
H771 C800 0.950 . S
H772 C802 0.950 . S
H773 C803 0.950 . S
C774 H756 0.951 . S
C774 C775 1.366 . S
C774 C776 1.388 . S
C775 C774 1.366 . S
C775 C779 1.385 . S
C776 H757 0.951 . S
C776 C774 1.388 . S
C776 C777 1.366 . S
C777 C776 1.366 . S
C777 C778 1.414 . S
C777 C780 1.499 . S
C778 H758 0.950 . S
C778 C777 1.414 . S
C778 C779 1.374 . S
C779 H759 0.950 . S
C779 C775 1.385 . S
C779 C778 1.374 . S
C780 C777 1.499 . S
C780 C781 1.373 . S
C780 C782 1.389 . S
C781 H760 0.950 . S
C781 C780 1.373 . S
C781 C797 1.377 . S
C782 C780 1.389 . S
C782 C783 1.524 . S
C782 C796 1.377 . S
C783 C782 1.524 . S
C783 C784 1.397 . S
C783 C788 1.363 . S
C784 H761 0.950 . S
C784 C783 1.397 . S
C784 C785 1.334 . S
C785 H762 0.950 . S
C785 C784 1.334 . S
C785 C786 1.287 . S
C786 C785 1.287 . S
C786 C787 1.524 . S
C786 H805 0.913 . S
C787 H763 0.950 . S
C787 C786 1.524 . S
C787 C788 1.415 . S
C788 H764 0.950 . S
C788 C783 1.363 . S
C788 C787 1.415 . S
C789 H765 0.951 . S
C789 C790 1.366 . S
C789 C791 1.388 1_556 S
C790 C789 1.366 . S
C790 C794 1.385 . S
C791 H766 0.951 . S
C791 C789 1.388 1_554 S
C791 C792 1.366 . S
C792 C791 1.366 . S
C792 C793 1.414 1_554 S
C792 C795 1.499 . S
C793 H767 0.956 . S
C793 C792 1.414 1_556 S
C793 C794 1.374 . S
C794 H768 0.950 . S
C794 C790 1.385 . S
C794 C793 1.374 . S
C795 C792 1.499 . S
C795 C796 1.373 . S
C795 C797 1.389 . S
C796 H769 0.950 . S
C796 C782 1.377 . S
C796 C795 1.373 . S
C797 C781 1.377 . S
C797 C795 1.389 . S
C797 C798 1.524 . S
C798 C797 1.524 . S
C798 C799 1.397 . S
C798 C803 1.363 . S
C799 H770 0.950 . S
C799 C798 1.397 . S
C799 C800 1.334 . S
C800 H771 0.950 . S
C800 C799 1.334 . S
C800 C801 1.287 . S
C801 C800 1.287 . S
C801 C802 1.524 . S
C801 H804 0.999 . S
C802 H772 0.950 . S
C802 C801 1.524 . S
C802 C803 1.415 . S
C803 H773 0.950 . S
C803 C798 1.363 . S
C803 C802 1.415 . S
H804 C801 0.999 . S
H805 C786 0.913 . S
H806 C824 0.951 . S
H807 C826 0.951 . S
H808 C828 0.950 . S
H809 C829 0.950 . S
H810 C831 0.950 . S
H811 C834 0.950 . S
H812 C835 0.950 . S
H813 C837 0.950 . S
H814 C838 0.950 1_455 S
H815 C839 0.951 . S
H816 C841 0.951 . S
H817 C843 0.950 . S
H818 C844 0.950 . S
H819 C846 0.950 1_455 S
H820 C849 0.950 . S
H821 C850 0.950 . S
H822 C852 0.950 . S
H823 C853 0.950 . S
C824 H806 0.951 . S
C824 C825 1.366 . S
C824 C826 1.388 . S
C825 C824 1.366 . S
C825 C829 1.385 . S
C826 H807 0.951 . S
C826 C824 1.388 . S
C826 C827 1.366 . S
C827 C826 1.366 . S
C827 C828 1.414 . S
C827 C830 1.499 . S
C828 H808 0.950 . S
C828 C827 1.414 . S
C828 C829 1.374 . S
C829 H809 0.950 . S
C829 C825 1.385 . S
C829 C828 1.374 . S
C830 C827 1.499 . S
C830 C831 1.373 . S
C830 C832 1.389 . S
C831 H810 0.950 . S
C831 C830 1.373 . S
C831 C847 1.377 . S
C832 C830 1.389 . S
C832 C833 1.524 . S
C832 C846 1.377 . S
C833 C832 1.524 . S
C833 C834 1.397 . S
C833 C838 1.363 . S
C834 H811 0.950 . S
C834 C833 1.397 . S
C834 C835 1.334 . S
C835 H812 0.950 . S
C835 C834 1.334 . S
C835 C836 1.287 . S
C836 C835 1.287 . S
C836 C837 1.524 1_655 S
C836 H855 0.913 . S
C837 H813 0.950 . S
C837 C836 1.524 1_455 S
C837 C838 1.415 1_455 S
C838 H814 0.950 1_655 S
C838 C833 1.363 . S
C838 C837 1.415 1_655 S
C839 H815 0.951 . S
C839 C840 1.366 . S
C839 C841 1.388 1_455 S
C840 C839 1.366 . S
C840 C844 1.385 . S
C841 H816 0.951 . S
C841 C839 1.388 1_655 S
C841 C842 1.366 1_655 S
C842 C841 1.366 1_455 S
C842 C843 1.414 . S
C842 C845 1.499 1_455 S
C843 H817 0.950 . S
C843 C842 1.414 . S
C843 C844 1.374 . S
C844 H818 0.950 . S
C844 C840 1.385 . S
C844 C843 1.374 . S
C845 C842 1.499 1_655 S
C845 C846 1.373 . S
C845 C847 1.389 . S
C846 H819 0.950 1_655 S
C846 C832 1.377 . S
C846 C845 1.373 . S
C847 C831 1.377 . S
C847 C845 1.389 . S
C847 C848 1.524 . S
C848 C847 1.524 . S
C848 C849 1.397 . S
C848 C853 1.363 . S
C849 H820 0.950 . S
C849 C848 1.397 . S
C849 C850 1.334 . S
C850 H821 0.950 . S
C850 C849 1.334 . S
C850 C851 1.287 . S
C851 C850 1.287 . S
C851 C852 1.524 . S
C851 H854 0.999 . S
C852 H822 0.950 . S
C852 C851 1.524 . S
C852 C853 1.415 . S
C853 H823 0.950 . S
C853 C848 1.363 . S
C853 C852 1.415 . S
H854 C851 0.999 . S
H855 C836 0.913 . S
H856 C874 0.951 . S
H857 C876 0.951 1_565 S
H858 C878 0.950 . S
H859 C879 0.950 . S
H860 C881 0.950 1_545 S
H861 C884 0.950 . S
H862 C885 0.950 . S
H863 C887 0.950 . S
H864 C888 0.950 . S
H865 C889 0.951 . S
H866 C891 0.951 . S
H867 C893 0.950 . S
H868 C894 0.950 . S
H869 C896 0.950 . S
H870 C899 0.950 . S
H871 C900 0.950 . S
H872 C902 0.950 . S
H873 C903 0.950 . S
C874 H856 0.951 . S
C874 C875 1.366 . S
C874 C876 1.388 . S
C875 C874 1.366 . S
C875 C879 1.385 . S
C876 H857 0.951 1_545 S
C876 C874 1.388 . S
C876 C877 1.366 . S
C877 C876 1.366 . S
C877 C878 1.414 . S
C877 C880 1.499 1_545 S
C878 H858 0.950 . S
C878 C877 1.414 . S
C878 C879 1.374 . S
C879 H859 0.950 . S
C879 C875 1.385 . S
C879 C878 1.374 . S
C880 C877 1.499 1_565 S
C880 C881 1.373 . S
C880 C882 1.389 . S
C881 H860 0.950 1_565 S
C881 C880 1.373 . S
C881 C897 1.377 . S
C882 C880 1.389 . S
C882 C883 1.524 . S
C882 C896 1.377 . S
C883 C882 1.524 . S
C883 C884 1.397 . S
C883 C888 1.363 . S
C884 H861 0.950 . S
C884 C883 1.397 . S
C884 C885 1.334 . S
C885 H862 0.950 . S
C885 C884 1.334 . S
C885 C886 1.287 . S
C886 C885 1.287 . S
C886 C887 1.524 . S
C886 H905 0.913 . S
C887 H863 0.950 . S
C887 C886 1.524 . S
C887 C888 1.415 . S
C888 H864 0.950 . S
C888 C883 1.363 . S
C888 C887 1.415 . S
C889 H865 0.951 . S
C889 C890 1.366 . S
C889 C891 1.388 . S
C890 C889 1.366 . S
C890 C894 1.385 . S
C891 H866 0.951 . S
C891 C889 1.388 . S
C891 C892 1.366 . S
C892 C891 1.366 . S
C892 C893 1.414 . S
C892 C895 1.499 . S
C893 H867 0.950 . S
C893 C892 1.414 . S
C893 C894 1.374 . S
C894 H868 0.950 . S
C894 C890 1.385 . S
C894 C893 1.374 . S
C895 C892 1.499 . S
C895 C896 1.373 . S
C895 C897 1.389 . S
C896 H869 0.950 . S
C896 C882 1.377 . S
C896 C895 1.373 . S
C897 C881 1.377 . S
C897 C895 1.389 . S
C897 C898 1.524 . S
C898 C897 1.524 . S
C898 C899 1.397 . S
C898 C903 1.363 1_565 S
C899 H870 0.950 . S
C899 C898 1.397 . S
C899 C900 1.334 . S
C900 H871 0.950 . S
C900 C899 1.334 . S
C900 C901 1.287 1_565 S
C901 C900 1.287 1_545 S
C901 C902 1.524 . S
C901 H904 0.999 . S
C902 H872 0.950 . S
C902 C901 1.524 . S
C902 C903 1.415 . S
C903 H873 0.950 . S
C903 C898 1.363 1_545 S
C903 C902 1.415 . S
H904 C901 0.999 . S
H905 C886 0.913 . S
H906 C924 0.951 . S
H907 C926 0.951 . S
H908 C928 0.950 . S
H909 C929 0.950 . S
H910 C931 0.950 . S
H911 C934 0.950 . S
H912 C935 0.950 . S
H913 C937 0.950 . S
H914 C938 0.950 . S
H915 C939 0.951 . S
H916 C941 0.951 . S
H917 C943 0.950 . S
H918 C944 0.950 . S
H919 C946 0.950 . S
H920 C949 0.950 . S
H921 C950 0.950 . S
H922 C952 0.950 . S
H923 C953 0.950 . S
C924 H906 0.951 . S
C924 C925 1.366 . S
C924 C926 1.388 . S
C925 C924 1.366 . S
C925 C929 1.385 . S
C926 H907 0.951 . S
C926 C924 1.388 . S
C926 C927 1.366 . S
C927 C926 1.366 . S
C927 C928 1.414 . S
C927 C930 1.499 . S
C928 H908 0.950 . S
C928 C927 1.414 . S
C928 C929 1.374 . S
C929 H909 0.950 . S
C929 C925 1.385 . S
C929 C928 1.374 . S
C930 C927 1.499 . S
C930 C931 1.373 . S
C930 C932 1.389 . S
C931 H910 0.950 . S
C931 C930 1.373 . S
C931 C947 1.377 . S
C932 C930 1.389 . S
C932 C933 1.524 . S
C932 C946 1.377 . S
C933 C932 1.524 . S
C933 C934 1.397 . S
C933 C938 1.363 . S
C934 H911 0.950 . S
C934 C933 1.397 . S
C934 C935 1.334 . S
C935 H912 0.950 . S
C935 C934 1.334 . S
C935 C936 1.287 . S
C936 C935 1.287 . S
C936 C937 1.524 . S
C936 H955 0.913 . S
C937 H913 0.950 . S
C937 C936 1.524 . S
C937 C938 1.415 . S
C938 H914 0.950 . S
C938 C933 1.363 . S
C938 C937 1.415 . S
C939 H915 0.951 . S
C939 C940 1.366 . S
C939 C941 1.388 . S
C940 C939 1.366 . S
C940 C944 1.385 . S
C941 H916 0.951 . S
C941 C939 1.388 . S
C941 C942 1.366 . S
C942 C941 1.366 . S
C942 C943 1.414 . S
C942 C945 1.499 . S
C943 H917 0.950 . S
C943 C942 1.414 . S
C943 C944 1.374 . S
C944 H918 0.950 . S
C944 C940 1.385 . S
C944 C943 1.374 . S
C945 C942 1.499 . S
C945 C946 1.373 . S
C945 C947 1.389 . S
C946 H919 0.950 . S
C946 C932 1.377 . S
C946 C945 1.373 . S
C947 C931 1.377 . S
C947 C945 1.389 . S
C947 C948 1.524 . S
C948 C947 1.524 . S
C948 C949 1.397 . S
C948 C953 1.363 . S
C949 H920 0.950 . S
C949 C948 1.397 . S
C949 C950 1.334 . S
C950 H921 0.950 . S
C950 C949 1.334 . S
C950 C951 1.287 . S
C951 C950 1.287 . S
C951 C952 1.524 . S
C951 H954 0.999 . S
C952 H922 0.950 . S
C952 C951 1.524 . S
C952 C953 1.415 . S
C953 H923 0.950 . S
C953 C948 1.363 . S
C953 C952 1.415 . S
H954 C951 0.999 . S
H955 C936 0.913 . S
H956 C974 0.951 . S
H957 C976 0.951 . S
H958 C978 0.950 . S
H959 C979 0.950 . S
H960 C981 0.950 . S
H961 C984 0.950 . S
H962 C985 0.950 . S
H963 C987 0.950 . S
H964 C988 0.950 . S
H965 C989 0.951 . S
H966 C991 0.951 . S
H967 C993 0.950 1_455 S
H968 C994 0.950 . S
H969 C996 0.950 . S
H970 C999 0.950 . S
H971 C1000 0.950 . S
H972 C1002 0.950 . S
H973 C1003 0.950 . S
C974 H956 0.951 . S
C974 C975 1.366 . S
C974 C976 1.388 . S
C975 C974 1.366 . S
C975 C979 1.385 . S
C976 H957 0.951 . S
C976 C974 1.388 . S
C976 C977 1.366 . S
C977 C976 1.366 . S
C977 C978 1.414 . S
C977 C980 1.499 . S
C978 H958 0.950 . S
C978 C977 1.414 . S
C978 C979 1.374 . S
C979 H959 0.950 . S
C979 C975 1.385 . S
C979 C978 1.374 . S
C980 C977 1.499 . S
C980 C981 1.373 . S
C980 C982 1.389 . S
C981 H960 0.950 . S
C981 C980 1.373 . S
C981 C997 1.377 . S
C982 C980 1.389 . S
C982 C983 1.524 . S
C982 C996 1.377 . S
C983 C982 1.524 . S
C983 C984 1.397 . S
C983 C988 1.363 . S
C984 H961 0.950 . S
C984 C983 1.397 . S
C984 C985 1.334 . S
C985 H962 0.950 . S
C985 C984 1.334 . S
C985 C986 1.287 . S
C986 C985 1.287 . S
C986 C987 1.524 . S
C986 H1005 0.913 . S
C987 H963 0.950 . S
C987 C986 1.524 . S
C987 C988 1.415 . S
C988 H964 0.950 . S
C988 C983 1.363 . S
C988 C987 1.415 . S
C989 H965 0.951 . S
C989 C990 1.366 . S
C989 C991 1.388 . S
C990 C989 1.366 . S
C990 C994 1.385 . S
C991 H966 0.951 . S
C991 C989 1.388 . S
C991 C992 1.366 . S
C992 C991 1.366 . S
C992 C993 1.414 . S
C992 C995 1.499 1_655 S
C993 H967 0.950 1_655 S
C993 C992 1.414 . S
C993 C994 1.374 . S
C994 H968 0.950 . S
C994 C990 1.385 . S
C994 C993 1.374 . S
C995 C992 1.499 1_455 S
C995 C996 1.373 . S
C995 C997 1.389 . S
C996 H969 0.950 . S
C996 C982 1.377 . S
C996 C995 1.373 . S
C997 C981 1.377 . S
C997 C995 1.389 . S
C997 C998 1.524 1_455 S
C998 C997 1.524 1_655 S
C998 C999 1.397 . S
C998 C1003 1.363 . S
C999 H970 0.950 . S
C999 C998 1.397 . S
C999 C1000 1.334 . S
C1000 H971 0.950 . S
C1000 C999 1.334 . S
C1000 C1001 1.287 . S
C1001 C1000 1.287 . S
C1001 C1002 1.524 . S
C1001 H1004 0.999 . S
C1002 H972 0.950 . S
C1002 C1001 1.524 . S
C1002 C1003 1.415 . S
C1003 H973 0.950 . S
C1003 C998 1.363 . S
C1003 C1002 1.415 . S
H1004 C1001 0.999 . S
H1005 C986 0.913 . S
H1006 C1024 0.951 . S
H1007 C1026 0.951 . S
H1008 C1028 0.950 . S
H1009 C1029 0.950 . S
H1010 C1031 0.950 . S
H1011 C1034 0.950 . S
H1012 C1035 0.950 . S
H1013 C1037 0.950 1_565 S
H1014 C1038 0.950 . S
H1015 C1039 0.951 . S
H1016 C1041 0.951 . S
H1017 C1043 0.950 . S
H1018 C1044 0.950 . S
H1019 C1046 0.950 1_565 S
H1020 C1049 0.950 . S
H1021 C1050 0.950 . S
H1022 C1052 0.950 . S
H1023 C1053 0.950 . S
C1024 H1006 0.951 . S
C1024 C1025 1.366 . S
C1024 C1026 1.388 . S
C1025 C1024 1.366 . S
C1025 C1029 1.385 . S
C1026 H1007 0.951 . S
C1026 C1024 1.388 . S
C1026 C1027 1.366 . S
C1027 C1026 1.366 . S
C1027 C1028 1.414 . S
C1027 C1030 1.499 . S
C1028 H1008 0.950 . S
C1028 C1027 1.414 . S
C1028 C1029 1.374 . S
C1029 H1009 0.950 . S
C1029 C1025 1.385 . S
C1029 C1028 1.374 . S
C1030 C1027 1.499 . S
C1030 C1031 1.373 . S
C1030 C1032 1.389 . S
C1031 H1010 0.950 . S
C1031 C1030 1.373 . S
C1031 C1047 1.377 . S
C1032 C1030 1.389 . S
C1032 C1033 1.524 . S
C1032 C1046 1.377 . S
C1033 C1032 1.524 . S
C1033 C1034 1.397 . S
C1033 C1038 1.363 . S
C1034 H1011 0.950 . S
C1034 C1033 1.397 . S
C1034 C1035 1.334 . S
C1035 H1012 0.950 . S
C1035 C1034 1.334 . S
C1035 C1036 1.287 . S
C1036 C1035 1.287 . S
C1036 C1037 1.524 . S
C1036 H1055 0.913 1_545 S
C1037 H1013 0.950 1_545 S
C1037 C1036 1.524 . S
C1037 C1038 1.415 . S
C1038 H1014 0.950 . S
C1038 C1033 1.363 . S
C1038 C1037 1.415 . S
C1039 H1015 0.951 . S
C1039 C1040 1.366 . S
C1039 C1041 1.388 . S
C1040 C1039 1.366 . S
C1040 C1044 1.385 . S
C1041 H1016 0.951 . S
C1041 C1039 1.388 . S
C1041 C1042 1.366 . S
C1042 C1041 1.366 . S
C1042 C1043 1.414 . S
C1042 C1045 1.499 1_565 S
C1043 H1017 0.950 . S
C1043 C1042 1.414 . S
C1043 C1044 1.374 . S
C1044 H1018 0.950 . S
C1044 C1040 1.385 . S
C1044 C1043 1.374 . S
C1045 C1042 1.499 1_545 S
C1045 C1046 1.373 . S
C1045 C1047 1.389 . S
C1046 H1019 0.950 1_545 S
C1046 C1032 1.377 . S
C1046 C1045 1.373 . S
C1047 C1031 1.377 . S
C1047 C1045 1.389 . S
C1047 C1048 1.524 . S
C1048 C1047 1.524 . S
C1048 C1049 1.397 . S
C1048 C1053 1.363 . S
C1049 H1020 0.950 . S
C1049 C1048 1.397 . S
C1049 C1050 1.334 . S
C1050 H1021 0.950 . S
C1050 C1049 1.334 . S
C1050 C1051 1.287 . S
C1051 C1050 1.287 . S
C1051 C1052 1.524 . S
C1051 H1054 0.999 . S
C1052 H1022 0.950 . S
C1052 C1051 1.524 . S
C1052 C1053 1.415 . S
C1053 H1023 0.950 . S
C1053 C1048 1.363 . S
C1053 C1052 1.415 . S
H1054 C1051 0.999 . S
H1055 C1036 0.913 1_565 S
H1056 C1074 0.951 . S
H1057 C1076 0.951 . S
H1058 C1078 0.950 . S
H1059 C1079 0.950 . S
H1060 C1081 0.950 . S
H1061 C1084 0.950 . S
H1062 C1085 0.950 . S
H1063 C1087 0.950 . S
H1064 C1088 0.950 . S
H1065 C1089 0.951 . S
H1066 C1091 0.951 . S
H1067 C1093 0.950 . S
H1068 C1094 0.950 . S
H1069 C1096 0.950 . S
H1070 C1099 0.950 . S
H1071 C1100 0.950 . S
H1072 C1102 0.950 . S
H1073 C1103 0.950 . S
C1074 H1056 0.951 . S
C1074 C1075 1.366 . S
C1074 C1076 1.388 . S
C1075 C1074 1.366 . S
C1075 C1079 1.385 . S
C1076 H1057 0.951 . S
C1076 C1074 1.388 . S
C1076 C1077 1.366 . S
C1077 C1076 1.366 . S
C1077 C1078 1.414 . S
C1077 C1080 1.499 . S
C1078 H1058 0.950 . S
C1078 C1077 1.414 . S
C1078 C1079 1.374 . S
C1079 H1059 0.950 . S
C1079 C1075 1.385 . S
C1079 C1078 1.374 . S
C1080 C1077 1.499 . S
C1080 C1081 1.373 . S
C1080 C1082 1.389 . S
C1081 H1060 0.950 . S
C1081 C1080 1.373 . S
C1081 C1097 1.377 . S
C1082 C1080 1.389 . S
C1082 C1083 1.524 . S
C1082 C1096 1.377 . S
C1083 C1082 1.524 . S
C1083 C1084 1.397 . S
C1083 C1088 1.363 . S
C1084 H1061 0.950 . S
C1084 C1083 1.397 . S
C1084 C1085 1.334 . S
C1085 H1062 0.950 . S
C1085 C1084 1.334 . S
C1085 C1086 1.287 . S
C1086 C1085 1.287 . S
C1086 C1087 1.524 . S
C1086 H1105 0.913 . S
C1087 H1063 0.950 . S
C1087 C1086 1.524 . S
C1087 C1088 1.415 . S
C1088 H1064 0.950 . S
C1088 C1083 1.363 . S
C1088 C1087 1.415 . S
C1089 H1065 0.951 . S
C1089 C1090 1.366 . S
C1089 C1091 1.388 . S
C1090 C1089 1.366 . S
C1090 C1094 1.385 . S
C1091 H1066 0.951 . S
C1091 C1089 1.388 . S
C1091 C1092 1.366 . S
C1092 C1091 1.366 . S
C1092 C1093 1.414 . S
C1092 C1095 1.499 . S
C1093 H1067 0.950 . S
C1093 C1092 1.414 . S
C1093 C1094 1.374 . S
C1094 H1068 0.950 . S
C1094 C1090 1.385 . S
C1094 C1093 1.374 . S
C1095 C1092 1.499 . S
C1095 C1096 1.373 . S
C1095 C1097 1.389 . S
C1096 H1069 0.950 . S
C1096 C1082 1.377 . S
C1096 C1095 1.373 . S
C1097 C1081 1.377 . S
C1097 C1095 1.389 . S
C1097 C1098 1.524 . S
C1098 C1097 1.524 . S
C1098 C1099 1.397 . S
C1098 C1103 1.363 . S
C1099 H1070 0.950 . S
C1099 C1098 1.397 . S
C1099 C1100 1.334 . S
C1100 H1071 0.950 . S
C1100 C1099 1.334 . S
C1100 C1101 1.287 . S
C1101 C1100 1.287 . S
C1101 C1102 1.524 . S
C1101 H1104 0.999 . S
C1102 H1072 0.950 . S
C1102 C1101 1.524 . S
C1102 C1103 1.415 . S
C1103 H1073 0.950 . S
C1103 C1098 1.363 . S
C1103 C1102 1.415 . S
H1104 C1101 0.999 . S
H1105 C1086 0.913 . S
H1106 C1124 0.951 . S
H1107 C1126 0.951 . S
H1108 C1128 0.950 . S
H1109 C1129 0.950 . S
H1110 C1131 0.950 . S
H1111 C1134 0.950 . S
H1112 C1135 0.950 . S
H1113 C1137 0.950 . S
H1114 C1138 0.950 . S
H1115 C1139 0.951 . S
H1116 C1141 0.951 1_655 S
H1117 C1143 0.950 . S
H1118 C1144 0.950 . S
H1119 C1146 0.950 1_455 S
H1120 C1149 0.950 . S
H1121 C1150 0.950 . S
H1122 C1152 0.950 . S
H1123 C1153 0.932 1_556 S
C1124 H1106 0.951 . S
C1124 C1125 1.366 . S
C1124 C1126 1.388 . S
C1125 C1124 1.366 . S
C1125 C1129 1.385 . S
C1126 H1107 0.951 . S
C1126 C1124 1.388 . S
C1126 C1127 1.366 . S
C1127 C1126 1.366 . S
C1127 C1128 1.414 . S
C1127 C1130 1.499 . S
C1128 H1108 0.950 . S
C1128 C1127 1.414 . S
C1128 C1129 1.374 . S
C1129 H1109 0.950 . S
C1129 C1125 1.385 . S
C1129 C1128 1.374 . S
C1130 C1127 1.499 . S
C1130 C1131 1.373 . S
C1130 C1132 1.389 . S
C1131 H1110 0.950 . S
C1131 C1130 1.373 . S
C1131 C1147 1.377 . S
C1132 C1130 1.389 . S
C1132 C1133 1.524 . S
C1132 C1146 1.377 . S
C1133 C1132 1.524 . S
C1133 C1134 1.397 . S
C1133 C1138 1.363 1_655 S
C1134 H1111 0.950 . S
C1134 C1133 1.397 . S
C1134 C1135 1.334 . S
C1135 H1112 0.950 . S
C1135 C1134 1.334 . S
C1135 C1136 1.287 1_655 S
C1136 C1135 1.287 1_455 S
C1136 C1137 1.524 . S
C1136 H1155 0.913 . S
C1137 H1113 0.950 . S
C1137 C1136 1.524 . S
C1137 C1138 1.415 . S
C1138 H1114 0.950 . S
C1138 C1133 1.363 1_455 S
C1138 C1137 1.415 . S
C1139 H1115 0.951 . S
C1139 C1140 1.366 . S
C1139 C1141 1.388 . S
C1140 C1139 1.366 . S
C1140 C1144 1.385 . S
C1141 H1116 0.951 1_455 S
C1141 C1139 1.388 . S
C1141 C1142 1.366 1_554 S
C1142 C1141 1.366 1_556 S
C1142 C1143 1.414 . S
C1142 C1145 1.499 1_455 S
C1143 H1117 0.950 . S
C1143 C1142 1.414 . S
C1143 C1144 1.374 1_556 S
C1144 H1118 0.950 . S
C1144 C1140 1.385 . S
C1144 C1143 1.374 1_554 S
C1145 C1142 1.499 1_655 S
C1145 C1146 1.373 . S
C1145 C1147 1.389 . S
C1146 H1119 0.950 1_655 S
C1146 C1132 1.377 . S
C1146 C1145 1.373 . S
C1147 C1131 1.377 . S
C1147 C1145 1.389 . S
C1147 C1148 1.524 . S
C1148 C1147 1.524 . S
C1148 C1149 1.397 1_556 S
C1148 C1153 1.360 1_556 S
C1149 H1120 0.950 . S
C1149 C1148 1.397 1_554 S
C1149 C1150 1.334 . S
C1150 H1121 0.950 . S
C1150 C1149 1.334 . S
C1150 C1151 1.287 . S
C1151 C1150 1.287 . S
C1151 C1152 1.524 . S
C1151 H1154 0.999 . S
C1152 H1122 0.950 . S
C1152 C1151 1.524 . S
C1152 C1153 1.436 . S
C1153 H1123 0.932 1_554 S
C1153 C1148 1.360 1_554 S
C1153 C1152 1.436 . S
H1154 C1151 0.999 . S
H1155 C1136 0.913 . S
H1156 C1174 0.951 . S
H1157 C1176 0.951 . S
H1158 C1178 0.950 . S
H1159 C1179 0.950 . S
H1160 C1181 0.950 . S
H1161 C1184 0.950 . S
H1162 C1185 0.950 . S
H1163 C1187 0.950 . S
H1164 C1188 0.950 . S
H1165 C1189 0.951 . S
H1166 C1191 0.948 . S
H1167 C1193 0.950 . S
H1168 C1194 0.950 . S
H1169 C1196 0.950 1_545 S
H1170 C1199 0.950 . S
H1171 C1200 0.950 . S
H1172 C1202 0.950 . S
H1173 C1203 0.950 . S
C1174 H1156 0.951 . S
C1174 C1175 1.366 . S
C1174 C1176 1.388 . S
C1175 C1174 1.366 . S
C1175 C1179 1.385 . S
C1176 H1157 0.951 . S
C1176 C1174 1.388 . S
C1176 C1177 1.366 . S
C1177 C1176 1.366 . S
C1177 C1178 1.414 . S
C1177 C1180 1.499 . S
C1178 H1158 0.950 . S
C1178 C1177 1.414 . S
C1178 C1179 1.374 . S
C1179 H1159 0.950 . S
C1179 C1175 1.385 . S
C1179 C1178 1.374 . S
C1180 C1177 1.499 . S
C1180 C1181 1.373 . S
C1180 C1182 1.389 . S
C1181 H1160 0.950 . S
C1181 C1180 1.373 . S
C1181 C1197 1.377 . S
C1182 C1180 1.389 . S
C1182 C1183 1.524 . S
C1182 C1196 1.377 . S
C1183 C1182 1.524 . S
C1183 C1184 1.397 . S
C1183 C1188 1.363 1_565 S
C1184 H1161 0.950 . S
C1184 C1183 1.397 . S
C1184 C1185 1.334 . S
C1185 H1162 0.950 . S
C1185 C1184 1.334 . S
C1185 C1186 1.287 1_565 S
C1186 C1185 1.287 1_545 S
C1186 C1187 1.524 . S
C1186 H1205 0.913 . S
C1187 H1163 0.950 . S
C1187 C1186 1.524 . S
C1187 C1188 1.415 . S
C1188 H1164 0.950 . S
C1188 C1183 1.363 1_545 S
C1188 C1187 1.415 . S
C1189 H1165 0.951 . S
C1189 C1190 1.366 . S
C1189 C1191 1.389 1_545 S
C1190 C1189 1.366 . S
C1190 C1194 1.385 . S
C1191 H1166 0.948 . S
C1191 C1189 1.389 1_565 S
C1191 C1192 1.367 1_565 S
C1192 C1191 1.367 1_545 S
C1192 C1193 1.414 . S
C1192 C1195 1.499 1_545 S
C1193 H1167 0.950 . S
C1193 C1192 1.414 . S
C1193 C1194 1.374 . S
C1194 H1168 0.950 . S
C1194 C1190 1.385 . S
C1194 C1193 1.374 . S
C1195 C1192 1.499 1_565 S
C1195 C1196 1.373 . S
C1195 C1197 1.389 . S
C1196 H1169 0.950 1_565 S
C1196 C1182 1.377 . S
C1196 C1195 1.373 . S
C1197 C1181 1.377 . S
C1197 C1195 1.389 . S
C1197 C1198 1.524 . S
C1198 C1197 1.524 . S
C1198 C1199 1.397 . S
C1198 C1203 1.363 . S
C1199 H1170 0.950 . S
C1199 C1198 1.397 . S
C1199 C1200 1.334 . S
C1200 H1171 0.950 . S
C1200 C1199 1.334 . S
C1200 C1201 1.287 . S
C1201 C1200 1.287 . S
C1201 C1202 1.524 . S
C1201 H1204 0.999 . S
C1202 H1172 0.950 . S
C1202 C1201 1.524 . S
C1202 C1203 1.415 . S
C1203 H1173 0.950 . S
C1203 C1198 1.363 . S
C1203 C1202 1.415 . S
H1204 C1201 0.999 . S
H1205 C1186 0.913 . S
H1206 C1224 0.951 . S
H1207 C1226 0.951 . S
H1208 C1228 0.950 . S
H1209 C1229 0.950 . S
H1210 C1231 0.950 . S
H1211 C1234 0.950 . S
H1212 C1235 0.950 . S
H1213 C1237 0.950 . S
H1214 C1238 0.950 . S
H1215 C1239 0.951 . S
H1216 C1241 0.951 . S
H1217 C1243 0.950 . S
H1218 C1244 0.950 . S
H1219 C1246 0.950 . S
H1220 C1249 0.950 . S
H1221 C1250 0.950 . S
H1222 C1252 0.950 . S
H1223 C1253 0.950 . S
C1224 H1206 0.951 . S
C1224 C1225 1.366 . S
C1224 C1226 1.388 . S
C1225 C1224 1.366 . S
C1225 C1229 1.385 . S
C1226 H1207 0.951 . S
C1226 C1224 1.388 . S
C1226 C1227 1.366 . S
C1227 C1226 1.366 . S
C1227 C1228 1.414 . S
C1227 C1230 1.499 . S
C1228 H1208 0.950 . S
C1228 C1227 1.414 . S
C1228 C1229 1.374 . S
C1229 H1209 0.950 . S
C1229 C1225 1.385 . S
C1229 C1228 1.374 . S
C1230 C1227 1.499 . S
C1230 C1231 1.373 . S
C1230 C1232 1.389 . S
C1231 H1210 0.950 . S
C1231 C1230 1.373 . S
C1231 C1247 1.377 . S
C1232 C1230 1.389 . S
C1232 C1233 1.524 . S
C1232 C1246 1.377 . S
C1233 C1232 1.524 . S
C1233 C1234 1.397 . S
C1233 C1238 1.363 . S
C1234 H1211 0.950 . S
C1234 C1233 1.397 . S
C1234 C1235 1.334 . S
C1235 H1212 0.950 . S
C1235 C1234 1.334 . S
C1235 C1236 1.287 . S
C1236 C1235 1.287 . S
C1236 C1237 1.524 . S
C1236 H1255 0.913 . S
C1237 H1213 0.950 . S
C1237 C1236 1.524 . S
C1237 C1238 1.415 . S
C1238 H1214 0.950 . S
C1238 C1233 1.363 . S
C1238 C1237 1.415 . S
C1239 H1215 0.951 . S
C1239 C1240 1.366 . S
C1239 C1241 1.388 . S
C1240 C1239 1.366 . S
C1240 C1244 1.385 . S
C1241 H1216 0.951 . S
C1241 C1239 1.388 . S
C1241 C1242 1.366 . S
C1242 C1241 1.366 . S
C1242 C1243 1.414 . S
C1242 C1245 1.499 . S
C1243 H1217 0.950 . S
C1243 C1242 1.414 . S
C1243 C1244 1.374 . S
C1244 H1218 0.950 . S
C1244 C1240 1.385 . S
C1244 C1243 1.374 . S
C1245 C1242 1.499 . S
C1245 C1246 1.373 . S
C1245 C1247 1.389 . S
C1246 H1219 0.950 . S
C1246 C1232 1.377 . S
C1246 C1245 1.373 . S
C1247 C1231 1.377 . S
C1247 C1245 1.389 . S
C1247 C1248 1.524 . S
C1248 C1247 1.524 . S
C1248 C1249 1.397 . S
C1248 C1253 1.363 . S
C1249 H1220 0.950 . S
C1249 C1248 1.397 . S
C1249 C1250 1.334 . S
C1250 H1221 0.950 . S
C1250 C1249 1.334 . S
C1250 C1251 1.287 . S
C1251 C1250 1.287 . S
C1251 C1252 1.524 . S
C1251 H1254 0.999 . S
C1252 H1222 0.950 . S
C1252 C1251 1.524 . S
C1252 C1253 1.415 . S
C1253 H1223 0.950 . S
C1253 C1248 1.363 . S
C1253 C1252 1.415 . S
H1254 C1251 0.999 . S
H1255 C1236 0.913 . S
H1256 C1274 0.951 . S
H1257 C1276 0.951 . S
H1258 C1278 0.950 . S
H1259 C1279 0.950 . S
H1260 C1281 0.950 . S
H1261 C1284 0.950 . S
H1262 C1285 0.950 . S
H1263 C1287 0.950 . S
H1264 C1288 0.950 . S
H1265 C1289 0.951 . S
H1266 C1291 0.951 . S
H1267 C1293 0.950 1_455 S
H1268 C1294 0.950 . S
H1269 C1296 0.950 . S
H1270 C1299 0.950 . S
H1271 C1300 0.950 . S
H1272 C1302 0.950 . S
H1273 C1303 0.950 . S
C1274 H1256 0.951 . S
C1274 C1275 1.366 . S
C1274 C1276 1.388 . S
C1275 C1274 1.366 . S
C1275 C1279 1.385 . S
C1276 H1257 0.951 . S
C1276 C1274 1.388 . S
C1276 C1277 1.366 . S
C1277 C1276 1.366 . S
C1277 C1278 1.414 . S
C1277 C1280 1.499 . S
C1278 H1258 0.950 . S
C1278 C1277 1.414 . S
C1278 C1279 1.374 . S
C1279 H1259 0.950 . S
C1279 C1275 1.385 . S
C1279 C1278 1.374 . S
C1280 C1277 1.499 . S
C1280 C1281 1.373 . S
C1280 C1282 1.389 . S
C1281 H1260 0.950 . S
C1281 C1280 1.373 . S
C1281 C1297 1.377 . S
C1282 C1280 1.389 . S
C1282 C1283 1.524 . S
C1282 C1296 1.377 . S
C1283 C1282 1.524 . S
C1283 C1284 1.397 . S
C1283 C1288 1.363 . S
C1284 H1261 0.950 . S
C1284 C1283 1.397 . S
C1284 C1285 1.334 . S
C1285 H1262 0.950 . S
C1285 C1284 1.334 . S
C1285 C1286 1.287 . S
C1286 C1285 1.287 . S
C1286 C1287 1.524 . S
C1286 H1305 0.913 . S
C1287 H1263 0.950 . S
C1287 C1286 1.524 . S
C1287 C1288 1.415 . S
C1288 H1264 0.950 . S
C1288 C1283 1.363 . S
C1288 C1287 1.415 . S
C1289 H1265 0.951 . S
C1289 C1290 1.366 . S
C1289 C1291 1.388 . S
C1290 C1289 1.366 . S
C1290 C1294 1.385 . S
C1291 H1266 0.951 . S
C1291 C1289 1.388 . S
C1291 C1292 1.366 . S
C1292 C1291 1.366 . S
C1292 C1293 1.414 . S
C1292 C1295 1.499 1_655 S
C1293 H1267 0.950 1_655 S
C1293 C1292 1.414 . S
C1293 C1294 1.374 . S
C1294 H1268 0.950 . S
C1294 C1290 1.385 . S
C1294 C1293 1.374 . S
C1295 C1292 1.499 1_455 S
C1295 C1296 1.373 . S
C1295 C1297 1.389 . S
C1296 H1269 0.950 . S
C1296 C1282 1.377 . S
C1296 C1295 1.373 . S
C1297 C1281 1.377 . S
C1297 C1295 1.389 . S
C1297 C1298 1.524 . S
C1298 C1297 1.524 . S
C1298 C1299 1.397 . S
C1298 C1303 1.363 . S
C1299 H1270 0.950 . S
C1299 C1298 1.397 . S
C1299 C1300 1.334 . S
C1300 H1271 0.950 . S
C1300 C1299 1.334 . S
C1300 C1301 1.287 . S
C1301 C1300 1.287 . S
C1301 C1302 1.524 . S
C1301 H1304 0.999 . S
C1302 H1272 0.950 . S
C1302 C1301 1.524 . S
C1302 C1303 1.415 . S
C1303 H1273 0.950 . S
C1303 C1298 1.363 . S
C1303 C1302 1.415 . S
H1304 C1301 0.999 . S
H1305 C1286 0.913 . S
H1306 C1324 0.951 . S
H1307 C1326 0.951 . S
H1308 C1328 0.950 . S
H1309 C1329 0.950 . S
H1310 C1331 0.950 . S
H1311 C1334 0.950 . S
H1312 C1335 0.950 . S
H1313 C1337 0.950 . S
H1314 C1338 0.950 . S
H1315 C1339 0.951 . S
H1316 C1341 0.951 . S
H1317 C1343 0.950 . S
H1318 C1344 0.950 . S
H1319 C1346 0.950 . S
H1320 C1349 0.950 . S
H1321 C1350 0.950 . S
H1322 C1352 0.950 . S
H1323 C1353 0.950 . S
C1324 H1306 0.951 . S
C1324 C1325 1.366 . S
C1324 C1326 1.388 . S
C1325 C1324 1.366 . S
C1325 C1329 1.385 . S
C1326 H1307 0.951 . S
C1326 C1324 1.388 . S
C1326 C1327 1.366 . S
C1327 C1326 1.366 . S
C1327 C1328 1.414 . S
C1327 C1330 1.499 1_565 S
C1328 H1308 0.950 . S
C1328 C1327 1.414 . S
C1328 C1329 1.374 . S
C1329 H1309 0.950 . S
C1329 C1325 1.385 . S
C1329 C1328 1.374 . S
C1330 C1327 1.499 1_545 S
C1330 C1331 1.373 . S
C1330 C1332 1.389 . S
C1331 H1310 0.950 . S
C1331 C1330 1.373 . S
C1331 C1347 1.377 . S
C1332 C1330 1.389 . S
C1332 C1333 1.524 1_545 S
C1332 C1346 1.377 . S
C1333 C1332 1.524 1_565 S
C1333 C1334 1.397 . S
C1333 C1338 1.363 . S
C1334 H1311 0.950 . S
C1334 C1333 1.397 . S
C1334 C1335 1.334 . S
C1335 H1312 0.950 . S
C1335 C1334 1.334 . S
C1335 C1336 1.287 . S
C1336 C1335 1.287 . S
C1336 C1337 1.524 . S
C1336 H1355 0.913 . S
C1337 H1313 0.950 . S
C1337 C1336 1.524 . S
C1337 C1338 1.415 . S
C1338 H1314 0.950 . S
C1338 C1333 1.363 . S
C1338 C1337 1.415 . S
C1339 H1315 0.951 . S
C1339 C1340 1.366 . S
C1339 C1341 1.388 . S
C1340 C1339 1.366 . S
C1340 C1344 1.385 . S
C1341 H1316 0.951 . S
C1341 C1339 1.388 . S
C1341 C1342 1.366 . S
C1342 C1341 1.366 . S
C1342 C1343 1.414 . S
C1342 C1345 1.499 . S
C1343 H1317 0.950 . S
C1343 C1342 1.414 . S
C1343 C1344 1.374 . S
C1344 H1318 0.950 . S
C1344 C1340 1.385 . S
C1344 C1343 1.374 . S
C1345 C1342 1.499 . S
C1345 C1346 1.373 . S
C1345 C1347 1.389 . S
C1346 H1319 0.950 . S
C1346 C1332 1.377 . S
C1346 C1345 1.373 . S
C1347 C1331 1.377 . S
C1347 C1345 1.389 . S
C1347 C1348 1.524 . S
C1348 C1347 1.524 . S
C1348 C1349 1.397 . S
C1348 C1353 1.363 . S
C1349 H1320 0.950 . S
C1349 C1348 1.397 . S
C1349 C1350 1.334 . S
C1350 H1321 0.950 . S
C1350 C1349 1.334 . S
C1350 C1351 1.287 . S
C1351 C1350 1.287 . S
C1351 C1352 1.524 . S
C1351 H1354 0.999 . S
C1352 H1322 0.950 . S
C1352 C1351 1.524 . S
C1352 C1353 1.415 . S
C1353 H1323 0.950 . S
C1353 C1348 1.363 . S
C1353 C1352 1.415 . S
H1354 C1351 0.999 . S
H1355 C1336 0.913 . S
C175 C107 1.636 . S
C190 C5 1.570 . S
C225 C16 1.636 . S
C240 C120 1.636 . S
C275 C29 1.636 . S
C290 C135 1.570 . S
C325 C44 1.569 . S
C340 C146 1.636 . S
C375 C81 1.636 . S
C390 C55 1.636 . S
C425 C68 1.636 . S
C440 C96 1.570 . S
C475 C118 1.383 . S
C490 C10 1.348 . S
C525 C14 1.383 . S
C540 C140 1.349 . S
C575 C144 1.382 . S
C590 C27 1.382 . S
C625 C49 1.348 . S
C640 C79 1.383 . S
C675 C101 1.349 . S
C690 C53 1.383 . S
C725 C105 1.383 . S
C740 C66 1.383 . S
C775 C3 1.945 . S
C790 C75 1.885 . S
C825 C18 1.903 . S
C840 C1 1.931 . S
C875 C23 1.885 . S
C890 C31 1.903 . S
C925 C42 1.945 . S
C940 C36 1.885 . S
C975 C57 1.903 . S
C990 C40 1.931 . S
C1025 C70 1.903 . S
C1040 C62 1.885 . S
C1075 C83 1.903 . S
C1090 C92 1.931 . S
C1125 C94 1.945 . S
C1140 C114 1.885 . S
C1175 C109 1.903 . S
C1190 C127 1.886 . S
C1225 C122 1.903 . S
C1240 C131 1.931 . S
C1275 C133 1.945 . S
C1290 C153 1.885 . S
C1325 C88 1.885 . S
C1340 C148 1.903 . S
