# Generated by pormake.
# Topology ure, (4)-cn, num edge types: 1
# Building blocks:
#     Node 0, Type 0, BuildingBlock: GALJAG_clean_sbu_0, # of connection points: 4
#     Node 1, Type 0, BuildingBlock: GALJAG_clean_sbu_0, # of connection points: 4
#     Node 2, Type 0, BuildingBlock: GALJAG_clean_sbu_0, # of connection points: 4
#     Node 3, Type 0, BuildingBlock: GALJAG_clean_sbu_0, # of connection points: 4
#     Node 4, Type 0, BuildingBlock: GALJAG_clean_sbu_0, # of connection points: 4
#     Node 5, Type 0, BuildingBlock: GALJAG_clean_sbu_0, # of connection points: 4
#     Node 6, Type 0, BuildingBlock: GALJAG_clean_sbu_0, # of connection points: 4
#     Node 7, Type 0, BuildingBlock: GALJAG_clean_sbu_0, # of connection points: 4
#     Node 8, Type 0, BuildingBlock: GALJAG_clean_sbu_0, # of connection points: 4
#     Node 9, Type 0, BuildingBlock: GALJAG_clean_sbu_0, # of connection points: 4
#     Node 10, Type 0, BuildingBlock: GALJAG_clean_sbu_0, # of connection points: 4
#     Node 11, Type 0, BuildingBlock: GALJAG_clean_sbu_0, # of connection points: 4
#     Node 12, Type 0, BuildingBlock: GALJAG_clean_sbu_0, # of connection points: 4
#     Node 13, Type 0, BuildingBlock: GALJAG_clean_sbu_0, # of connection points: 4
#     Node 14, Type 0, BuildingBlock: GALJAG_clean_sbu_0, # of connection points: 4
#     Node 15, Type 0, BuildingBlock: GALJAG_clean_sbu_0, # of connection points: 4
#     Edge 16, Type (0, 0), BuildingBlock: XUDNAN_clean_linker_2, # of connection points: 2
#     Edge 17, Type (0, 0), BuildingBlock: XUDNAN_clean_linker_2, # of connection points: 2
#     Edge 18, Type (0, 0), BuildingBlock: XUDNAN_clean_linker_2, # of connection points: 2
#     Edge 19, Type (0, 0), BuildingBlock: XUDNAN_clean_linker_2, # of connection points: 2
#     Edge 20, Type (0, 0), BuildingBlock: XUDNAN_clean_linker_2, # of connection points: 2
#     Edge 21, Type (0, 0), BuildingBlock: XUDNAN_clean_linker_2, # of connection points: 2
#     Edge 22, Type (0, 0), BuildingBlock: XUDNAN_clean_linker_2, # of connection points: 2
#     Edge 23, Type (0, 0), BuildingBlock: XUDNAN_clean_linker_2, # of connection points: 2
#     Edge 24, Type (0, 0), BuildingBlock: XUDNAN_clean_linker_2, # of connection points: 2
#     Edge 25, Type (0, 0), BuildingBlock: XUDNAN_clean_linker_2, # of connection points: 2
#     Edge 26, Type (0, 0), BuildingBlock: XUDNAN_clean_linker_2, # of connection points: 2
#     Edge 27, Type (0, 0), BuildingBlock: XUDNAN_clean_linker_2, # of connection points: 2
#     Edge 28, Type (0, 0), BuildingBlock: XUDNAN_clean_linker_2, # of connection points: 2
#     Edge 29, Type (0, 0), BuildingBlock: XUDNAN_clean_linker_2, # of connection points: 2
#     Edge 30, Type (0, 0), BuildingBlock: XUDNAN_clean_linker_2, # of connection points: 2
#     Edge 31, Type (0, 0), BuildingBlock: XUDNAN_clean_linker_2, # of connection points: 2
#     Edge 32, Type (0, 0), BuildingBlock: XUDNAN_clean_linker_2, # of connection points: 2
#     Edge 33, Type (0, 0), BuildingBlock: XUDNAN_clean_linker_2, # of connection points: 2
#     Edge 34, Type (0, 0), BuildingBlock: XUDNAN_clean_linker_2, # of connection points: 2
#     Edge 35, Type (0, 0), BuildingBlock: XUDNAN_clean_linker_2, # of connection points: 2
#     Edge 36, Type (0, 0), BuildingBlock: XUDNAN_clean_linker_2, # of connection points: 2
#     Edge 37, Type (0, 0), BuildingBlock: XUDNAN_clean_linker_2, # of connection points: 2
#     Edge 38, Type (0, 0), BuildingBlock: XUDNAN_clean_linker_2, # of connection points: 2
#     Edge 39, Type (0, 0), BuildingBlock: XUDNAN_clean_linker_2, # of connection points: 2
#     Edge 40, Type (0, 0), BuildingBlock: XUDNAN_clean_linker_2, # of connection points: 2
#     Edge 41, Type (0, 0), BuildingBlock: XUDNAN_clean_linker_2, # of connection points: 2
#     Edge 42, Type (0, 0), BuildingBlock: XUDNAN_clean_linker_2, # of connection points: 2
#     Edge 43, Type (0, 0), BuildingBlock: XUDNAN_clean_linker_2, # of connection points: 2
#     Edge 44, Type (0, 0), BuildingBlock: XUDNAN_clean_linker_2, # of connection points: 2
#     Edge 45, Type (0, 0), BuildingBlock: XUDNAN_clean_linker_2, # of connection points: 2
#     Edge 46, Type (0, 0), BuildingBlock: XUDNAN_clean_linker_2, # of connection points: 2
#     Edge 47, Type (0, 0), BuildingBlock: XUDNAN_clean_linker_2, # of connection points: 2
# Relax obj value: 0.290
# Max RMSD: 0.221
# Mean RMSD: 0.173
data_MOF--net-ure--node1-GALJAG_clean_sbu_0--edge1-XUDNAN_clean_linker_2
_symmetry_space_group_name_H-M    P1
_symmetry_Int_Tables_number       1
_symmetry_cell_setting            triclinic
loop_
_symmetry_equiv_pos_as_xyz
'x, y, z'
_cell_length_a     27.634044
_cell_length_b     32.378104
_cell_length_c     32.329747
_cell_angle_alpha  100.19217
_cell_angle_beta   96.040283
_cell_angle_gamma 96.069678
loop_
_atom_site_label
_atom_site_type_symbol
_atom_site_fract_x
_atom_site_fract_y
_atom_site_fract_z
_atom_type_partial_charge
In0 In 0.3141 0.31512 0.29519 0.0
O1 O 0.29379 0.26062 0.23899 0.0
O2 O 0.23577 0.29148 0.26354 0.0
C3 C 0.29421 0.31574 0.37521 0.0
C4 C 0.40204 0.28544 0.29849 0.0
C5 C 0.31249 0.39152 0.27196 0.0
O6 O 0.26571 0.29516 0.34352 0.0
O7 O 0.33137 0.33673 0.36631 0.0
O8 O 0.31738 0.35845 0.24642 0.0
O9 O 0.30873 0.38623 0.30921 0.0
C10 C 0.24829 0.26276 0.23641 0.0
O11 O 0.39694 0.32238 0.29276 0.0
O12 O 0.36283 0.26339 0.30194 0.0
In13 In 0.00686 0.04823 0.50567 0.0
O14 O 0.06554 0.05484 0.56323 0.0
O15 O 0.99064 0.04554 0.57276 0.0
C16 C 0.01472 0.12634 0.48569 0.0
C17 C 0.05761 0.99029 0.46487 0.0
C18 C 0.91079 0.0189 0.48671 0.0
O19 O 0.03651 0.11854 0.51915 0.0
O20 O 0.99038 0.09449 0.46149 0.0
O21 O 0.94278 0.00378 0.46553 0.0
O22 O 0.92727 0.04891 0.5171 0.0
C23 C 0.03488 0.05037 0.58895 0.0
O24 O 0.03059 0.98284 0.49242 0.0
O25 O 0.05986 0.02759 0.45794 0.0
In26 In 0.32053 0.76024 0.77671 0.0
O27 O 0.23818 0.74472 0.76007 0.0
O28 O 0.26803 0.80901 0.78549 0.0
C29 C 0.358 0.68688 0.76298 0.0
C30 C 0.34967 0.79366 0.71184 0.0
C31 C 0.32694 0.76362 0.86036 0.0
O32 O 0.31363 0.69024 0.7512 0.0
O33 O 0.38444 0.72131 0.78019 0.0
O34 O 0.35115 0.79228 0.84575 0.0
O35 O 0.30076 0.73525 0.83298 0.0
C36 C 0.23025 0.7825 0.77222 0.0
O37 O 0.36694 0.81063 0.74981 0.0
O38 O 0.31993 0.76042 0.70785 0.0
In39 In 0.48211 0.95769 0.97514 0.0
O40 O 0.43861 0.97536 0.9182 0.0
O41 O 0.4821 0.02481 0.96312 0.0
C42 C 0.46566 0.87296 0.95996 0.0
C43 C 0.57638 0.95719 0.96249 0.0
C44 C 0.44654 0.97478 0.04975 0.0
O45 O 0.44565 0.89418 0.93516 0.0
O46 O 0.49128 0.89458 0.99275 0.0
O47 O 0.49055 0.9855 0.04494 0.0
O48 O 0.41921 0.95683 0.01613 0.0
C49 C 0.45455 0.01427 0.92838 0.0
O50 O 0.56453 0.97554 0.99709 0.0
O51 O 0.54101 0.94129 0.93449 0.0
In52 In 0.31941 0.7729 0.24505 0.0
O53 O 0.29669 0.70486 0.21088 0.0
O54 O 0.32625 0.71443 0.27573 0.0
C55 C 0.30218 0.77867 0.16272 0.0
C56 C 0.2557 0.80959 0.29388 0.0
C57 C 0.41517 0.80186 0.27152 0.0
O58 O 0.27315 0.75718 0.18073 0.0
O59 O 0.33901 0.79926 0.18673 0.0
O60 O 0.38196 0.82553 0.27621 0.0
O61 O 0.39989 0.7641 0.25427 0.0
C62 C 0.30917 0.68827 0.24217 0.0
O63 O 0.27053 0.82473 0.2635 0.0
O64 O 0.27268 0.77616 0.29938 0.0
In65 In 0.46211 0.99988 0.43705 0.0
O66 O 0.43995 0.99103 0.50184 0.0
O67 O 0.41657 0.94138 0.44909 0.0
C68 C 0.45319 0.08331 0.44707 0.0
C69 C 0.55384 0.97987 0.44953 0.0
C70 C 0.43842 0.98458 0.35231 0.0
O71 O 0.41638 0.05524 0.43769 0.0
O72 O 0.49346 0.0693 0.454 0.0
O73 O 0.40682 0.97756 0.37666 0.0
O74 O 0.48109 0.99802 0.37079 0.0
C75 C 0.41813 0.95413 0.48842 0.0
O76 O 0.52173 0.95818 0.42112 0.0
O77 O 0.53918 0.01078 0.47222 0.0
In78 In 0.35311 0.30477 0.75927 0.0
O79 O 0.39615 0.24913 0.74495 0.0
O80 O 0.40207 0.28045 0.809 0.0
C81 C 0.33054 0.29439 0.67477 0.0
C82 C 0.27464 0.28069 0.79614 0.0
C83 C 0.37567 0.38961 0.77367 0.0
O84 O 0.29958 0.28603 0.69906 0.0
O85 O 0.37366 0.30706 0.69297 0.0
O86 O 0.33264 0.37073 0.76427 0.0
O87 O 0.40846 0.36572 0.77808 0.0
C88 C 0.41227 0.24967 0.78298 0.0
O89 O 0.30514 0.31257 0.81318 0.0
O90 O 0.28409 0.26141 0.7611 0.0
In91 In 0.02591 0.97348 0.95105 0.0
O92 O 0.95478 0.9836 0.97895 0.0
O93 O 0.95089 0.94256 0.91917 0.0
C94 C 0.04971 0.99607 0.87822 0.0
C95 C 0.06473 0.04197 0.00981 0.0
C96 C 0.04144 0.89823 0.97232 0.0
O97 O 0.0098 0.00154 0.8925 0.0
O98 O 0.07898 0.97941 0.90101 0.0
O99 O 0.05092 0.93272 0.99844 0.0
O100 O 0.02759 0.90197 0.93496 0.0
C101 C 0.92817 0.95929 0.94828 0.0
O102 O 0.09068 0.01441 0.99476 0.0
O103 O 0.02001 0.03504 0.99473 0.0
In104 In 0.84117 0.23091 0.75489 0.0
O105 O 0.83558 0.29633 0.79139 0.0
O106 O 0.76873 0.25742 0.76484 0.0
C107 C 0.93117 0.22545 0.79384 0.0
C108 C 0.79284 0.15559 0.7605 0.0
C109 C 0.85209 0.25153 0.67857 0.0
O110 O 0.90023 0.24493 0.81259 0.0
O111 O 0.91635 0.20815 0.75598 0.0
O112 O 0.82779 0.21753 0.68247 0.0
O113 O 0.87001 0.27548 0.71301 0.0
C114 C 0.78937 0.29254 0.78616 0.0
O115 O 0.81148 0.16211 0.7279 0.0
O116 O 0.79797 0.18728 0.79033 0.0
In117 In 0.98469 0.5199 0.98695 0.0
O118 O 0.02896 0.46618 0.96414 0.0
O119 O 0.06467 0.51813 0.0106 0.0
C120 C 0.96509 0.51738 0.90317 0.0
C121 C 0.93188 0.47654 0.03545 0.0
C122 C 0.98667 0.60456 0.01088 0.0
O123 O 0.00604 0.53259 0.92441 0.0
O124 O 0.93338 0.50283 0.9242 0.0
O125 O 0.01946 0.58442 0.02464 0.0
O126 O 0.95106 0.58176 0.9871 0.0
C127 C 0.06799 0.48319 0.98737 0.0
O128 O 0.96718 0.5048 0.05078 0.0
O129 O 0.92151 0.47155 0.99582 0.0
In130 In 0.86649 0.8333 0.27396 0.0
O131 O 0.89986 0.77549 0.29107 0.0
O132 O 0.88986 0.82455 0.34107 0.0
C133 C 0.85248 0.80751 0.18904 0.0
C134 C 0.77228 0.8408 0.28714 0.0
C135 C 0.93411 0.90142 0.28175 0.0
O136 O 0.85919 0.7821 0.21399 0.0
O137 O 0.85263 0.84545 0.20691 0.0
O138 O 0.90011 0.90008 0.30482 0.0
O139 O 0.93588 0.86734 0.25636 0.0
C140 C 0.90332 0.78865 0.33052 0.0
O141 O 0.80427 0.87239 0.29092 0.0
O142 O 0.78779 0.80569 0.2769 0.0
In143 In 0.0293 0.51564 0.53051 0.0
O144 O 0.1118 0.52573 0.5522 0.0
O145 O 0.08735 0.53644 0.49089 0.0
C146 C 0.99328 0.52023 0.60517 0.0
C147 C 0.98679 0.57643 0.4992 0.0
C148 C 0.02053 0.43137 0.50235 0.0
O149 O 0.03557 0.53742 0.60183 0.0
O150 O 0.96861 0.50139 0.57059 0.0
O151 O 0.9951 0.4546 0.48379 0.0
O152 O 0.0493 0.45071 0.53428 0.0
C153 C 0.12312 0.53578 0.51819 0.0
O154 O 0.98318 0.53902 0.47831 0.0
O155 O 0.01019 0.58232 0.53588 0.0
In156 In 0.50908 0.50169 0.9881 0.0
O157 O 0.53645 0.44603 0.94703 0.0
O158 O 0.57937 0.50618 0.95758 0.0
C159 C 0.41472 0.46891 0.98522 0.0
C160 C 0.55194 0.50285 0.0674 0.0
C161 C 0.4907 0.57546 0.9658 0.0
O162 O 0.4396 0.45789 0.95549 0.0
O163 O 0.43784 0.49526 0.01618 0.0
O164 O 0.50694 0.57228 0.00284 0.0
O165 O 0.48428 0.54121 0.93914 0.0
C166 C 0.57447 0.46769 0.94023 0.0
O167 O 0.55511 0.53464 0.04983 0.0
O168 O 0.5284 0.46971 0.04441 0.0
In169 In 0.78645 0.79375 0.79945 0.0
O170 O 0.8594 0.83406 0.80235 0.0
O171 O 0.85883 0.76733 0.79125 0.0
C172 C 0.74363 0.86075 0.7806 0.0
C173 C 0.74005 0.72651 0.74261 0.0
C174 C 0.79204 0.78412 0.88119 0.0
O175 O 0.77292 0.84264 0.75852 0.0
O176 O 0.73322 0.84343 0.81114 0.0
O177 O 0.77132 0.75547 0.85104 0.0
O178 O 0.80856 0.81768 0.87016 0.0
C179 C 0.88368 0.80325 0.79619 0.0
O180 O 0.72489 0.73905 0.77762 0.0
O181 O 0.77771 0.7486 0.73574 0.0
In182 In 0.84309 0.2421 0.29442 0.0
O183 O 0.7669 0.20366 0.28699 0.0
O184 O 0.77269 0.27078 0.30279 0.0
C185 C 0.89958 0.1802 0.27528 0.0
C186 C 0.85642 0.28848 0.23375 0.0
C187 C 0.86264 0.25995 0.37919 0.0
O188 O 0.85556 0.17751 0.25884 0.0
O189 O 0.91556 0.21431 0.30072 0.0
O190 O 0.87214 0.28776 0.35707 0.0
O191 O 0.84449 0.22395 0.35836 0.0
C192 C 0.74518 0.23598 0.29567 0.0
O193 O 0.87781 0.30064 0.27124 0.0
O194 O 0.83005 0.25319 0.22736 0.0
In195 In 0.53699 0.46533 0.43557 0.0
O196 O 0.56904 0.46785 0.50408 0.0
O197 O 0.60232 0.51229 0.47179 0.0
C198 C 0.5125 0.38106 0.42121 0.0
C199 C 0.45308 0.4979 0.45139 0.0
C200 C 0.57113 0.48164 0.36401 0.0
O201 O 0.55525 0.39829 0.43725 0.0
O202 O 0.48357 0.4062 0.41074 0.0
O203 O 0.56268 0.51029 0.39325 0.0
O204 O 0.56364 0.44459 0.37122 0.0
C205 C 0.60052 0.49941 0.50619 0.0
O206 O 0.47464 0.50412 0.42019 0.0
O207 O 0.47376 0.47568 0.47425 0.0
H208 H 0.26645 0.19396 0.18044 0.0
H209 H 0.14987 0.26619 0.21942 0.0
H210 H 0.09054 0.21801 0.16482 0.0
H211 H 0.225 0.17129 0.0687 0.0
H212 H 0.24186 0.11845 0.06076 0.0
H213 H 0.27519 0.15875 0.10266 0.0
H214 H 0.25703 0.11146 0.15744 0.0
H215 H 0.22375 0.07097 0.1157 0.0
H216 H 0.19441 0.09155 0.16083 0.0
H217 H 0.04428 0.16244 0.10594 0.0
H218 H 0.01332 0.10194 0.04807 0.0
H219 H 0.15987 0.06507 0.048 0.0
C220 C 0.22844 0.19969 0.17743 0.0
C221 C 0.21269 0.23387 0.20403 0.0
C222 C 0.16266 0.24019 0.19933 0.0
C223 C 0.12875 0.21305 0.1684 0.0
C224 C 0.14552 0.1797 0.14263 0.0
C225 C 0.19411 0.17279 0.14692 0.0
C226 C 0.20246 0.13425 0.11563 0.0
C227 C 0.23824 0.14643 0.08513 0.0
C228 C 0.22047 0.10004 0.13879 0.0
C229 C 0.15095 0.12064 0.09291 0.0
C230 C 0.11873 0.14736 0.10894 0.0
C231 C 0.06915 0.1413 0.09314 0.0
C232 C 0.05195 0.10687 0.06023 0.0
C233 C 0.08421 0.07885 0.04352 0.0
C234 C 0.13438 0.086 0.06008 0.0
H235 H 0.11136 0.99494 0.39836 0.0
H236 H 0.06243 0.91107 0.48083 0.0
H237 H 0.10561 0.85533 0.44441 0.0
H238 H 0.10023 0.91372 0.30341 0.0
H239 H 0.15416 0.93653 0.28466 0.0
H240 H 0.11877 0.97001 0.31676 0.0
H241 H 0.19661 0.99944 0.37021 0.0
H242 H 0.23225 0.96612 0.33828 0.0
H243 H 0.23128 0.96321 0.39335 0.0
H244 H 0.15613 0.80974 0.40154 0.0
H245 H 0.21029 0.77615 0.35338 0.0
H246 H 0.22563 0.88827 0.29705 0.0
C247 C 0.10983 0.96484 0.4087 0.0
C248 C 0.08377 0.95737 0.44255 0.0
C249 C 0.08227 0.91751 0.45504 0.0
C250 C 0.10663 0.88562 0.43453 0.0
C251 C 0.13212 0.89396 0.40142 0.0
C252 C 0.13383 0.93246 0.38839 0.0
C253 C 0.16417 0.93304 0.352 0.0
C254 C 0.13244 0.93865 0.31183 0.0
C255 C 0.20871 0.9675 0.36421 0.0
C256 C 0.17979 0.8891 0.34714 0.0
C257 C 0.16075 0.86715 0.37597 0.0
C258 C 0.17105 0.82645 0.37862 0.0
C259 C 0.2019 0.80769 0.3512 0.0
C260 C 0.22196 0.82955 0.32144 0.0
C261 C 0.21044 0.87069 0.31926 0.0
H262 H 0.43086 0.96876 0.57586 0.0
H263 H 0.36648 0.87575 0.46458 0.0
H264 H 0.34424 0.82521 0.5102 0.0
H265 H 0.48278 0.8965 0.63359 0.0
H266 H 0.46976 0.92216 0.68467 0.0
H267 H 0.47898 0.95256 0.64392 0.0
H268 H 0.39435 0.97901 0.65018 0.0
H269 H 0.38518 0.94916 0.69136 0.0
H270 H 0.34036 0.94107 0.64502 0.0
H271 H 0.33257 0.78374 0.56595 0.0
H272 H 0.32511 0.75433 0.63021 0.0
H273 H 0.39602 0.8732 0.70761 0.0
C274 C 0.41141 0.93797 0.56123 0.0
C275 C 0.40028 0.92617 0.51662 0.0
C276 C 0.37529 0.88548 0.49861 0.0
C277 C 0.36264 0.8565 0.52425 0.0
C278 C 0.37515 0.86867 0.56791 0.0
C279 C 0.39844 0.90849 0.58648 0.0
C280 C 0.40786 0.91294 0.63437 0.0
C281 C 0.46314 0.92155 0.65005 0.0
C282 C 0.38028 0.9476 0.65654 0.0
C283 C 0.38637 0.86929 0.63963 0.0
C284 C 0.36799 0.84442 0.60068 0.0
C285 C 0.34652 0.80292 0.59668 0.0
C286 C 0.3426 0.7865 0.63348 0.0
C287 C 0.3599 0.81145 0.67403 0.0
C288 C 0.38273 0.85331 0.67708 0.0
H289 H 0.4617 0.10058 0.94926 0.0
H290 H 0.43171 0.9954 0.84259 0.0
H291 H 0.42825 0.04564 0.79334 0.0
H292 H 0.37805 0.16421 0.90587 0.0
H293 H 0.41625 0.21349 0.92785 0.0
H294 H 0.41918 0.16907 0.95411 0.0
H295 H 0.51298 0.17475 0.95096 0.0
H296 H 0.51005 0.21865 0.9238 0.0
H297 H 0.53583 0.17249 0.90049 0.0
H298 H 0.42962 0.10687 0.75588 0.0
H299 H 0.41952 0.17427 0.73267 0.0
H300 H 0.44361 0.23994 0.86377 0.0
C301 C 0.45428 0.08822 0.91551 0.0
C302 C 0.44712 0.04421 0.89958 0.0
C303 C 0.437 0.02905 0.85535 0.0
C304 C 0.43556 0.05732 0.82717 0.0
C305 C 0.44373 0.10056 0.84383 0.0
C306 C 0.45177 0.11599 0.88698 0.0
C307 C 0.45557 0.16385 0.89666 0.0
C308 C 0.41483 0.1785 0.92264 0.0
C309 C 0.50665 0.18358 0.91932 0.0
C310 C 0.44787 0.17288 0.8522 0.0
C311 C 0.44233 0.13596 0.82222 0.0
C312 C 0.43382 0.13599 0.77902 0.0
C313 C 0.42847 0.17452 0.76615 0.0
C314 C 0.43073 0.21233 0.79643 0.0
C315 C 0.44213 0.21161 0.83991 0.0
H316 H 0.69357 0.2852 0.80172 0.0
H317 H 0.82441 0.3756 0.81442 0.0
H318 H 0.78127 0.43153 0.85095 0.0
H319 H 0.603 0.35897 0.78697 0.0
H320 H 0.56152 0.33537 0.81821 0.0
H321 H 0.60086 0.30351 0.78897 0.0
H322 H 0.63558 0.28098 0.85807 0.0
H323 H 0.59655 0.31289 0.88747 0.0
H324 H 0.66192 0.32108 0.90321 0.0
H325 H 0.7261 0.4764 0.88933 0.0
H326 H 0.66297 0.50718 0.92923 0.0
H327 H 0.56868 0.38718 0.89417 0.0
C328 C 0.71271 0.31698 0.81148 0.0
C329 C 0.76211 0.32629 0.80504 0.0
C330 C 0.78647 0.36794 0.81902 0.0
C331 C 0.76225 0.39991 0.83964 0.0
C332 C 0.7138 0.38959 0.8462 0.0
C333 C 0.68923 0.34917 0.83262 0.0
C334 C 0.63844 0.34584 0.84641 0.0
C335 C 0.59861 0.33531 0.80784 0.0
C336 C 0.63283 0.31328 0.87552 0.0
C337 C 0.63871 0.39049 0.87047 0.0
C338 C 0.68229 0.41531 0.86945 0.0
C339 C 0.69169 0.45739 0.89017 0.0
C340 C 0.65566 0.47456 0.91277 0.0
C341 C 0.61105 0.44953 0.9148 0.0
C342 C 0.60245 0.40704 0.89312 0.0
H343 H 0.95741 0.47452 0.11941 0.0
H344 H 0.85525 0.4136 0.00884 0.0
H345 H 0.82308 0.36076 0.04888 0.0
H346 H 0.98732 0.38141 0.15181 0.0
H347 H 0.99125 0.40171 0.20785 0.0
H348 H 0.00339 0.43729 0.17217 0.0
H349 H 0.93685 0.48174 0.19995 0.0
H350 H 0.92483 0.44654 0.2361 0.0
H351 H 0.87549 0.45617 0.19933 0.0
H352 H 0.80678 0.31149 0.09836 0.0
H353 H 0.80377 0.27054 0.15552 0.0
H354 H 0.91605 0.36313 0.23508 0.0
C355 C 0.92755 0.45059 0.10391 0.0
C356 C 0.90859 0.4483 0.06104 0.0
C357 C 0.8701 0.41611 0.04169 0.0
C358 C 0.85166 0.38592 0.06416 0.0
C359 C 0.87198 0.38844 0.106 0.0
C360 C 0.90873 0.42014 0.1259 0.0
C361 C 0.9255 0.41453 0.17061 0.0
C362 C 0.9801 0.40836 0.17589 0.0
C363 C 0.91503 0.45197 0.20344 0.0
C364 C 0.89298 0.37429 0.17246 0.0
C365 C 0.86237 0.35992 0.13482 0.0
C366 C 0.83019 0.32264 0.12812 0.0
C367 C 0.82894 0.29951 0.16079 0.0
C368 C 0.8596 0.31365 0.19984 0.0
C369 C 0.892 0.35164 0.20569 0.0
H370 H 0.95977 0.57895 0.41548 0.0
H371 H 0.9768 0.65444 0.54243 0.0
H372 H 0.95736 0.71674 0.51278 0.0
H373 H 0.01619 0.65843 0.36738 0.0
H374 H 0.97548 0.64469 0.31831 0.0
H375 H 0.98703 0.60482 0.34921 0.0
H376 H 0.89381 0.5875 0.35175 0.0
H377 H 0.8819 0.62691 0.32034 0.0
H378 H 0.85901 0.62941 0.37079 0.0
H379 H 0.93991 0.77137 0.46989 0.0
H380 H 0.92149 0.81471 0.41608 0.0
H381 H 0.91744 0.70475 0.31641 0.0
C382 C 0.95844 0.60841 0.437 0.0
C383 C 0.96948 0.61189 0.48125 0.0
C384 C 0.9683 0.6511 0.50843 0.0
C385 C 0.95739 0.68667 0.4919 0.0
C386 C 0.94792 0.68253 0.44812 0.0
C387 C 0.94799 0.64441 0.42098 0.0
C388 C 0.9381 0.64907 0.3751 0.0
C389 C 0.98181 0.63864 0.3511 0.0
C390 C 0.89036 0.6216 0.35322 0.0
C391 C 0.93275 0.69579 0.38079 0.0
C392 C 0.93849 0.71439 0.4232 0.0
C393 C 0.93517 0.75718 0.43656 0.0
C394 C 0.92486 0.78155 0.40577 0.0
C395 C 0.91818 0.76311 0.36213 0.0
C396 C 0.92271 0.71975 0.34955 0.0
H397 H 0.66888 0.56992 0.51952 0.0
H398 H 0.58811 0.48474 0.58505 0.0
H399 H 0.61808 0.53244 0.65329 0.0
H400 H 0.77587 0.60275 0.60438 0.0
H401 H 0.78277 0.65621 0.5951 0.0
H402 H 0.75938 0.61295 0.55202 0.0
H403 H 0.68236 0.6498 0.53702 0.0
H404 H 0.70499 0.69273 0.58047 0.0
H405 H 0.64528 0.66362 0.57883 0.0
H406 H 0.64653 0.59381 0.71259 0.0
H407 H 0.68157 0.66069 0.76094 0.0
H408 H 0.74763 0.70453 0.65801 0.0
C409 C 0.65869 0.56074 0.54836 0.0
C410 C 0.62626 0.52361 0.54702 0.0
C411 C 0.6132 0.51289 0.58535 0.0
C412 C 0.62986 0.53987 0.62428 0.0
C413 C 0.6602 0.57707 0.62437 0.0
C414 C 0.67548 0.5871 0.58758 0.0
C415 C 0.70676 0.62981 0.59635 0.0
C416 C 0.75932 0.62514 0.58638 0.0
C417 C 0.68343 0.6608 0.57171 0.0
C418 C 0.70534 0.64275 0.64354 0.0
C419 C 0.67813 0.61192 0.65903 0.0
C420 C 0.66875 0.61783 0.70105 0.0
C421 C 0.68841 0.65601 0.72816 0.0
C422 C 0.71747 0.6875 0.71319 0.0
C423 C 0.72601 0.6807 0.67035 0.0
H424 H 0.36079 0.34368 0.44569 0.0
H425 H 0.21341 0.27913 0.40374 0.0
H426 H 0.20628 0.26722 0.47652 0.0
H427 H 0.39531 0.27206 0.50939 0.0
H428 H 0.43261 0.31048 0.55077 0.0
H429 H 0.42544 0.3199 0.49742 0.0
H430 H 0.39114 0.39131 0.52036 0.0
H431 H 0.40371 0.3835 0.57404 0.0
H432 H 0.34326 0.39267 0.55436 0.0
H433 H 0.21635 0.26085 0.55321 0.0
H434 H 0.2426 0.26034 0.62852 0.0
H435 H 0.38583 0.3243 0.61836 0.0
C436 C 0.32678 0.32749 0.45186 0.0
C437 C 0.28756 0.31235 0.41918 0.0
C438 C 0.24378 0.29107 0.42845 0.0
C439 C 0.23947 0.28413 0.4696 0.0
C440 C 0.27948 0.2983 0.50079 0.0
C441 C 0.3223 0.31958 0.49241 0.0
C442 C 0.36111 0.32904 0.5307 0.0
C443 C 0.40624 0.30649 0.5215 0.0
C444 C 0.37563 0.37699 0.54568 0.0
C445 C 0.33322 0.31013 0.56214 0.0
C446 C 0.28615 0.29277 0.54434 0.0
C447 C 0.25312 0.27428 0.56749 0.0
C448 C 0.26839 0.27408 0.61017 0.0
C449 C 0.31631 0.29206 0.6291 0.0
C450 C 0.34917 0.30992 0.60458 0.0
H451 H 0.98293 0.01095 0.8166 0.0
H452 H 0.13846 0.00557 0.8471 0.0
H453 H 0.15316 0.02438 0.77787 0.0
H454 H 0.97696 0.96173 0.70847 0.0
H455 H 0.93097 0.99223 0.69039 0.0
H456 H 0.93444 0.98149 0.74334 0.0
H457 H 0.94179 0.06197 0.77321 0.0
H458 H 0.93939 0.07309 0.72046 0.0
H459 H 0.99028 0.0971 0.75988 0.0
H460 H 0.14953 0.04222 0.70375 0.0
H461 H 0.12753 0.05205 0.63011 0.0
H462 H 0.97396 0.0431 0.64907 0.0
C463 C 0.02023 0.01425 0.80901 0.0
C464 C 0.05971 0.00733 0.83732 0.0
C465 C 0.10778 0.01095 0.82583 0.0
C466 C 0.11643 0.02179 0.78673 0.0
C467 C 0.0765 0.02843 0.75949 0.0
C468 C 0.02931 0.0244 0.77012 0.0
C469 C 0.99211 0.02986 0.73434 0.0
C470 C 0.95652 0.98891 0.71818 0.0
C471 C 0.9643 0.06777 0.74779 0.0
C472 C 0.02568 0.0382 0.70193 0.0
C473 C 0.07426 0.03744 0.71692 0.0
C474 C 0.11162 0.04297 0.69179 0.0
C475 C 0.09881 0.04858 0.65005 0.0
C476 C 0.04907 0.04834 0.63391 0.0
C477 C 0.01234 0.04364 0.66054 0.0
H478 H 0.34012 0.82806 0.93215 0.0
H479 H 0.31763 0.69161 0.89007 0.0
H480 H 0.30704 0.68218 0.96225 0.0
H481 H 0.40679 0.82733 0.03971 0.0
H482 H 0.37832 0.87055 0.06481 0.0
H483 H 0.38866 0.86705 0.01032 0.0
H484 H 0.29598 0.87071 0.99066 0.0
H485 H 0.28594 0.87269 0.04511 0.0
H486 H 0.25146 0.83201 0.00412 0.0
H487 H 0.28914 0.68606 0.03475 0.0
H488 H 0.28096 0.70312 0.11076 0.0
H489 H 0.32073 0.83647 0.11099 0.0
C490 C 0.334 0.79634 0.93857 0.0
C491 C 0.32903 0.76051 0.90548 0.0
C492 C 0.32076 0.71945 0.91483 0.0
C493 C 0.31468 0.71371 0.95572 0.0
C494 C 0.31727 0.74935 0.98721 0.0
C495 C 0.32808 0.7899 0.97982 0.0
C496 C 0.328 0.82229 0.02021 0.0
C497 C 0.37853 0.84837 0.03446 0.0
C498 C 0.28795 0.85112 0.01467 0.0
C499 C 0.31595 0.79334 0.05092 0.0
C500 C 0.30885 0.7515 0.03066 0.0
C501 C 0.29524 0.71866 0.05125 0.0
C502 C 0.29027 0.72867 0.09427 0.0
C503 C 0.30019 0.771 0.11641 0.0
C504 C 0.31298 0.80387 0.09453 0.0
H505 H 0.49847 0.01142 0.29899 0.0
H506 H 0.35276 0.94785 0.30118 0.0
H507 H 0.33553 0.9423 0.22324 0.0
H508 H 0.46459 0.07248 0.22004 0.0
H509 H 0.52056 0.06765 0.19658 0.0
H510 H 0.52011 0.06701 0.25213 0.0
H511 H 0.55437 0.99479 0.24231 0.0
H512 H 0.55541 0.99535 0.18688 0.0
H513 H 0.52252 0.95107 0.20315 0.0
H514 H 0.33658 0.94254 0.14358 0.0
H515 H 0.35687 0.94578 0.07117 0.0
H516 H 0.50136 0.01047 0.1246 0.0
C517 C 0.46283 0.99632 0.28321 0.0
C518 C 0.42693 0.98 0.30599 0.0
C519 C 0.38074 0.96061 0.28417 0.0
C520 C 0.37064 0.95746 0.24003 0.0
C521 C 0.40699 0.97431 0.21856 0.0
C522 C 0.45212 0.99335 0.23967 0.0
C523 C 0.48565 0.00829 0.20991 0.0
C524 C 0.49846 0.05673 0.22029 0.0
C525 C 0.53221 0.98603 0.2106 0.0
C526 C 0.45284 0.99406 0.16836 0.0
C527 C 0.40743 0.97479 0.17372 0.0
C528 C 0.37191 0.95786 0.13918 0.0
C529 C 0.38368 0.95992 0.09821 0.0
C530 C 0.43069 0.97833 0.09234 0.0
C531 C 0.46502 0.99638 0.12803 0.0
H532 H 0.49238 0.33099 0.30575 0.0
H533 H 0.42012 0.20392 0.29884 0.0
H534 H 0.50071 0.17692 0.30081 0.0
H535 H 0.58146 0.30392 0.23936 0.0
H536 H 0.62894 0.34345 0.26975 0.0
H537 H 0.56542 0.35132 0.27025 0.0
H538 H 0.57758 0.36157 0.35274 0.0
H539 H 0.64096 0.35383 0.351 0.0
H540 H 0.60244 0.32113 0.37719 0.0
H541 H 0.58955 0.16343 0.29708 0.0
H542 H 0.67882 0.16556 0.29262 0.0
H543 H 0.69133 0.30192 0.30414 0.0
C544 C 0.49353 0.29751 0.30482 0.0
C545 C 0.45011 0.26942 0.30147 0.0
C546 C 0.45306 0.22591 0.30098 0.0
C547 C 0.49863 0.21033 0.30221 0.0
C548 C 0.5408 0.23881 0.30461 0.0
C549 C 0.53859 0.28157 0.30657 0.0
C550 C 0.58886 0.30549 0.30786 0.0
C551 C 0.59133 0.32731 0.26951 0.0
C552 C 0.60329 0.33739 0.34972 0.0
C553 C 0.61969 0.26953 0.30522 0.0
C554 C 0.59152 0.23124 0.30349 0.0
C555 C 0.61201 0.19334 0.29892 0.0
C556 C 0.66261 0.1948 0.2962 0.0
C557 C 0.69192 0.23389 0.29813 0.0
C558 C 0.66998 0.27158 0.30287 0.0
H559 H 0.05531 0.37652 0.54889 0.0
H560 H 0.97857 0.38179 0.42617 0.0
H561 H 0.97347 0.30367 0.40586 0.0
H562 H 0.1253 0.29162 0.51284 0.0
H563 H 0.12023 0.26876 0.55938 0.0
H564 H 0.11996 0.32485 0.56272 0.0
H565 H 0.03662 0.32026 0.59342 0.0
H566 H 0.03697 0.26424 0.59025 0.0
H567 H 0.98551 0.28373 0.56441 0.0
H568 H 0.96743 0.22404 0.40348 0.0
H569 H 0.97039 0.15112 0.41565 0.0
H570 H 0.05591 0.19979 0.53814 0.0
C571 C 0.03748 0.36133 0.51764 0.0
C572 C 0.01704 0.38504 0.48911 0.0
C573 C 0.99412 0.36405 0.44856 0.0
C574 C 0.99119 0.31981 0.43679 0.0
C575 C 0.01052 0.29727 0.46628 0.0
C576 C 0.03374 0.31749 0.50568 0.0
C577 C 0.0513 0.28642 0.5319 0.0
C578 C 0.10753 0.29333 0.5423 0.0
C579 C 0.02609 0.28882 0.57237 0.0
C580 C 0.03395 0.24533 0.50131 0.0
C581 C 0.01 0.25206 0.46378 0.0
C582 C 0.98734 0.21851 0.43224 0.0
C583 C 0.98949 0.17714 0.43929 0.0
C584 C 0.01485 0.16969 0.47716 0.0
C585 C 0.03746 0.20438 0.50835 0.0
H586 H 0.94341 0.74157 0.78203 0.0
H587 H 0.94377 0.87788 0.80691 0.0
H588 H 0.03272 0.88753 0.80216 0.0
H589 H 0.06208 0.74212 0.84217 0.0
H590 H 0.07767 0.69826 0.80557 0.0
H591 H 0.01437 0.70262 0.81211 0.0
H592 H 0.99467 0.6989 0.73122 0.0
H593 H 0.05805 0.6953 0.72463 0.0
H594 H 0.02789 0.73663 0.70627 0.0
H595 H 0.12116 0.88218 0.79428 0.0
H596 H 0.20393 0.86221 0.78566 0.0
H597 H 0.14492 0.72946 0.76443 0.0
C598 C 0.96223 0.77343 0.7865 0.0
C599 C 0.93686 0.80898 0.79452 0.0
C600 C 0.96265 0.85021 0.80049 0.0
C601 C 0.01308 0.85602 0.79785 0.0
C602 C 0.03692 0.82023 0.78926 0.0
C603 C 0.01246 0.77977 0.78392 0.0
C604 C 0.04669 0.74666 0.77525 0.0
C605 C 0.0504 0.7209 0.8109 0.0
C606 C 0.03087 0.71769 0.73175 0.0
C607 C 0.09407 0.77484 0.77576 0.0
C608 C 0.08775 0.81716 0.78422 0.0
C609 C 0.12659 0.84916 0.78749 0.0
C610 C 0.17334 0.83754 0.78248 0.0
C611 C 0.18053 0.79435 0.77404 0.0
C612 C 0.14028 0.76271 0.77025 0.0
H613 H 0.49899 0.65057 0.0203 0.0
H614 H 0.45817 0.59255 0.88782 0.0
H615 H 0.44272 0.66251 0.87167 0.0
H616 H 0.40971 0.7251 0.02485 0.0
H617 H 0.45066 0.76634 0.06037 0.0
H618 H 0.45606 0.71165 0.06185 0.0
H619 H 0.54729 0.72269 0.04971 0.0
H620 H 0.54282 0.77753 0.04877 0.0
H621 H 0.56353 0.74463 0.00477 0.0
H622 H 0.43846 0.74057 0.86966 0.0
H623 H 0.4412 0.81883 0.88336 0.0
H624 H 0.48549 0.8229 0.01669 0.0
C625 C 0.4866 0.6524 0.98783 0.0
C626 C 0.48002 0.61631 0.95526 0.0
C627 C 0.46361 0.61999 0.91322 0.0
C628 C 0.45473 0.65946 0.90375 0.0
C629 C 0.46232 0.69461 0.93666 0.0
C630 C 0.47758 0.69124 0.9779 0.0
C631 C 0.48428 0.73357 0.00757 0.0
C632 C 0.44801 0.73421 0.0406 0.0
C633 C 0.53765 0.74528 0.02893 0.0
C634 C 0.4717 0.76163 0.97646 0.0
C635 C 0.45873 0.73878 0.93573 0.0
C636 C 0.44766 0.75863 0.90158 0.0
C637 C 0.449 0.8029 0.9096 0.0
C638 C 0.46174 0.82649 0.95124 0.0
C639 C 0.47403 0.8055 0.98473 0.0
H640 H 0.69716 0.7766 0.27413 0.0
H641 H 0.73026 0.91295 0.31178 0.0
H642 H 0.64219 0.91822 0.31693 0.0
H643 H 0.58756 0.77633 0.20846 0.0
H644 H 0.55686 0.72964 0.22222 0.0
H645 H 0.62263 0.73686 0.22496 0.0
H646 H 0.63044 0.72861 0.30365 0.0
H647 H 0.56459 0.72137 0.30114 0.0
H648 H 0.60065 0.76232 0.34087 0.0
H649 H 0.54882 0.90812 0.31403 0.0
H650 H 0.45947 0.88355 0.30143 0.0
H651 H 0.49009 0.75421 0.26567 0.0
C652 C 0.68606 0.80756 0.28403 0.0
C653 C 0.72043 0.84435 0.29265 0.0
C654 C 0.70439 0.88433 0.30504 0.0
C655 C 0.65452 0.88761 0.30813 0.0
C656 C 0.62144 0.8506 0.29901 0.0
C657 C 0.63671 0.81136 0.28723 0.0
C658 C 0.59397 0.77653 0.27678 0.0
C659 C 0.59004 0.75352 0.23036 0.0
C660 C 0.59764 0.74538 0.30745 0.0
C661 C 0.55207 0.80224 0.28393 0.0
C662 C 0.5684 0.84488 0.29708 0.0
C663 C 0.53573 0.87474 0.30407 0.0
C664 C 0.48512 0.86055 0.29689 0.0
C665 C 0.468 0.817 0.2827 0.0
C666 C 0.50207 0.78768 0.27674 0.0
H667 H 0.52894 0.1477 0.46441 0.0
H668 H 0.37273 0.11971 0.42169 0.0
H669 H 0.37171 0.19251 0.40806 0.0
H670 H 0.52765 0.2564 0.51687 0.0
H671 H 0.58567 0.27434 0.50106 0.0
H672 H 0.57305 0.22066 0.50863 0.0
H673 H 0.59248 0.19425 0.43257 0.0
H674 H 0.6031 0.24762 0.42354 0.0
H675 H 0.55811 0.20943 0.38842 0.0
H676 H 0.3889 0.26693 0.39562 0.0
H677 H 0.42126 0.34028 0.39242 0.0
H678 H 0.56549 0.31996 0.44513 0.0
C679 C 0.49433 0.15703 0.45278 0.0
C680 C 0.45082 0.12813 0.44426 0.0
C681 C 0.40639 0.14146 0.42873 0.0
C682 C 0.40554 0.18259 0.42061 0.0
C683 C 0.44941 0.20989 0.4283 0.0
C684 C 0.49284 0.19786 0.44457 0.0
C685 C 0.53489 0.23321 0.4501 0.0
C686 C 0.55658 0.24697 0.49695 0.0
C687 C 0.57448 0.22036 0.42199 0.0
C688 C 0.5083 0.26716 0.43464 0.0
C689 C 0.45915 0.2529 0.42174 0.0
C690 C 0.42723 0.27848 0.40593 0.0
C691 C 0.44587 0.32001 0.40418 0.0
C692 C 0.49561 0.33575 0.41863 0.0
C693 C 0.52731 0.30874 0.4336 0.0
H694 H 0.20494 0.21437 0.76257 0.0
H695 H 0.24032 0.32137 0.86695 0.0
H696 H 0.15736 0.30779 0.88763 0.0
H697 H 0.09417 0.23563 0.72958 0.0
H698 H 0.06431 0.18193 0.71462 0.0
H699 H 0.12937 0.19264 0.71514 0.0
H700 H 0.14309 0.14057 0.76643 0.0
H701 H 0.07769 0.12966 0.76564 0.0
H702 H 0.11648 0.1473 0.81539 0.0
H703 H 0.06723 0.29167 0.88808 0.0
H704 H 0.97776 0.27669 0.86663 0.0
H705 H 0.00095 0.18097 0.7611 0.0
C706 C 0.19583 0.23398 0.79073 0.0
C707 C 0.22894 0.26879 0.81331 0.0
C708 C 0.21551 0.29433 0.84945 0.0
C709 C 0.16857 0.28667 0.86153 0.0
C710 C 0.13594 0.25302 0.83746 0.0
C711 C 0.14923 0.22679 0.803 0.0
C712 C 0.10565 0.19705 0.77841 0.0
C713 C 0.09794 0.20219 0.73173 0.0
C714 C 0.11107 0.15093 0.78171 0.0
C715 C 0.0651 0.21285 0.80246 0.0
C716 C 0.08343 0.2441 0.83728 0.0
C717 C 0.05252 0.26654 0.86158 0.0
C718 C 0.00175 0.25787 0.84914 0.0
C719 C 0.98266 0.22765 0.81228 0.0
C720 C 0.01465 0.20387 0.78971 0.0
H721 H 0.9911 0.82285 0.92993 0.0
H722 H 0.0869 0.88068 0.04527 0.0
H723 H 0.07924 0.8124 0.06989 0.0
H724 H 0.90917 0.75748 0.97986 0.0
H725 H 0.89937 0.71443 0.93506 0.0
H726 H 0.9132 0.76796 0.9273 0.0
H727 H 0.98689 0.74564 0.8887 0.0
H728 H 0.97342 0.6924 0.89718 0.0
H729 H 0.03347 0.72126 0.91551 0.0
H730 H 0.06373 0.73728 0.08048 0.0
H731 H 0.04141 0.66046 0.07631 0.0
H732 H 0.95096 0.65298 0.95654 0.0
C733 C 0.01096 0.82098 0.96013 0.0
C734 C 0.04022 0.8568 0.98551 0.0
C735 C 0.0647 0.85343 0.02524 0.0
C736 C 0.06036 0.8149 0.03954 0.0
C737 C 0.03072 0.78029 0.01401 0.0
C738 C 0.00628 0.78299 0.97521 0.0
C739 C 0.9763 0.74124 0.95411 0.0
C740 C 0.92124 0.74557 0.94874 0.0
C741 C 0.99358 0.72413 0.91137 0.0
C742 C 0.98853 0.71435 0.98673 0.0
C743 C 0.01994 0.7375 0.02106 0.0
C744 C 0.03861 0.71896 0.05409 0.0
C745 C 0.02565 0.67542 0.05155 0.0
C746 C 0.99381 0.65112 0.01657 0.0
C747 C 0.97431 0.67108 0.98421 0.0
H748 H 0.32569 0.46986 0.32327 0.0
H749 H 0.29427 0.40645 0.19168 0.0
H750 H 0.28802 0.47539 0.17012 0.0
H751 H 0.24657 0.55045 0.31907 0.0
H752 H 0.28915 0.59102 0.35389 0.0
H753 H 0.2897 0.5364 0.35842 0.0
H754 H 0.38284 0.54103 0.34712 0.0
H755 H 0.38102 0.59627 0.34555 0.0
H756 H 0.40178 0.56191 0.30258 0.0
H757 H 0.28359 0.55094 0.16296 0.0
H758 H 0.28652 0.6283 0.17014 0.0
H759 H 0.32462 0.64331 0.30619 0.0
C760 C 0.3174 0.47054 0.28991 0.0
C761 C 0.31016 0.43288 0.2591 0.0
C762 C 0.29998 0.43499 0.21575 0.0
C763 C 0.29622 0.47396 0.20322 0.0
C764 C 0.30338 0.51054 0.23437 0.0
C765 C 0.31429 0.50924 0.27677 0.0
C766 C 0.32216 0.5533 0.30373 0.0
C767 C 0.28466 0.55807 0.33567 0.0
C768 C 0.37509 0.56381 0.3261 0.0
C769 C 0.3131 0.5796 0.26996 0.0
C770 C 0.30218 0.55423 0.23017 0.0
C771 C 0.29225 0.57111 0.19392 0.0
C772 C 0.29391 0.61511 0.19836 0.0
C773 C 0.30581 0.64183 0.23872 0.0
C774 C 0.31543 0.6237 0.27495 0.0
H775 H 0.80144 0.08003 0.71124 0.0
H776 H 0.73427 0.13605 0.8194 0.0
H777 H 0.70197 0.06455 0.82903 0.0
H778 H 0.70761 0.98625 0.67185 0.0
H779 H 0.75367 0.95242 0.6585 0.0
H780 H 0.76399 0.00774 0.65581 0.0
H781 H 0.84514 0.01631 0.70635 0.0
H782 H 0.83532 0.96116 0.70906 0.0
H783 H 0.84429 1.00058 0.75706 0.0
H784 H 0.68408 0.98696 0.83095 0.0
H785 H 0.68866 0.91086 0.82894 0.0
H786 H 0.77122 0.9065 0.72188 0.0
C787 C 0.77875 0.07727 0.73621 0.0
C788 C 0.76974 0.11344 0.76426 0.0
C789 C 0.74122 0.10862 0.79739 0.0
C790 C 0.72251 0.06819 0.80292 0.0
C791 C 0.73279 0.03302 0.77508 0.0
C792 C 0.76045 0.03724 0.74247 0.0
C793 C 0.77162 0.99479 0.72025 0.0
C794 C 0.74778 0.98471 0.67385 0.0
C795 C 0.82736 0.99312 0.72341 0.0
C796 C 0.74722 0.96603 0.74622 0.0
C797 C 0.72405 0.98851 0.7771 0.0
C798 C 0.70171 0.96904 0.80663 0.0
C799 C 0.70462 0.92583 0.80542 0.0
C800 C 0.73059 0.90289 0.77561 0.0
C801 C 0.75064 0.92306 0.74481 0.0
H802 H 0.35435 0.4988 0.04106 0.0
H803 H 0.35506 0.41128 0.92293 0.0
H804 H 0.26434 0.39717 0.91564 0.0
H805 H 0.24646 0.4435 0.07759 0.0
H806 H 0.22599 0.49312 0.09863 0.0
H807 H 0.29057 0.48972 0.09757 0.0
H808 H 0.2965 0.55117 0.05614 0.0
H809 H 0.23206 0.55431 0.05645 0.0
H810 H 0.25729 0.54645 0.00685 0.0
H811 H 0.17313 0.39924 0.91769 0.0
H812 H 0.09066 0.42019 0.92664 0.0
H813 H 0.15176 0.5084 0.04203 0.0
C814 C 0.33561 0.47572 0.01423 0.0
C815 C 0.36161 0.45577 0.98276 0.0
C816 C 0.33571 0.42656 0.9476 0.0
C817 C 0.28428 0.41829 0.9433 0.0
C818 C 0.25962 0.43947 0.97448 0.0
C819 C 0.28461 0.46757 0.00928 0.0
C820 C 0.24999 0.49004 0.03587 0.0
C821 C 0.25342 0.47836 0.08003 0.0
C822 C 0.25953 0.53832 0.03895 0.0
C823 C 0.20152 0.47145 0.00982 0.0
C824 C 0.20754 0.44163 0.97503 0.0
C825 C 0.16796 0.42212 0.94511 0.0
C826 C 0.12131 0.43418 0.95045 0.0
C827 C 0.11505 0.46589 0.98502 0.0
C828 C 0.1555 0.48392 0.01543 0.0
H829 H 0.9391 0.1427 0.33668 0.0
H830 H 0.91811 0.13449 0.20092 0.0
H831 H 0.95196 0.0662 0.19101 0.0
H832 H 0.04945 0.07451 0.34096 0.0
H833 H 0.02399 0.05174 0.38211 0.0
H834 H 0.01838 0.10601 0.37857 0.0
H835 H 0.92221 0.08778 0.37603 0.0
H836 H 0.93066 0.03431 0.37904 0.0
H837 H 0.89073 0.04518 0.3355 0.0
H838 H 0.97225 0.99444 0.19453 0.0
H839 H 0.96098 0.92215 0.20903 0.0
H840 H 0.95928 0.97283 0.34205 0.0
C841 C 0.94416 0.12729 0.30514 0.0
C842 C 0.9276 0.14397 0.26955 0.0
C843 C 0.93177 0.12233 0.22845 0.0
C844 C 0.95133 0.08379 0.22266 0.0
C845 C 0.9658 0.06707 0.25832 0.0
C846 C 0.96214 0.08806 0.29891 0.0
C847 C 0.96927 0.05941 0.33089 0.0
C848 C 0.01811 0.07379 0.35987 0.0
C849 C 0.92564 0.0565 0.35682 0.0
C850 C 0.97193 0.01804 0.30147 0.0
C851 C 0.97342 0.02378 0.26019 0.0
C852 C 0.97206 0.9897 0.22682 0.0
C853 C 0.96592 0.94867 0.23539 0.0
C854 C 0.95935 0.94221 0.27668 0.0
C855 C 0.96492 0.97722 0.31038 0.0
H856 H 0.86924 0.99921 0.00143 0.0
H857 H 0.86623 0.90233 0.88917 0.0
H858 H 0.776 0.89021 0.88356 0.0
H859 H 0.76463 0.94974 0.04566 0.0
H860 H 0.74345 0.99995 0.06248 0.0
H861 H 0.80789 0.99726 0.05971 0.0
H862 H 0.80628 0.05314 0.01064 0.0
H863 H 0.74145 0.05379 0.01236 0.0
H864 H 0.76458 0.04177 0.96209 0.0
H865 H 0.68849 0.88518 0.89123 0.0
H866 H 0.60449 0.89859 0.90244 0.0
H867 H 0.66207 1.00023 0.0085 0.0
C868 C 0.84959 0.97484 0.97616 0.0
C869 C 0.87457 0.95125 0.94608 0.0
C870 C 0.84775 0.92042 0.91279 0.0
C871 C 0.79667 0.91296 0.9095 0.0
C872 C 0.77317 0.9363 0.9398 0.0
C873 C 0.79842 0.96704 0.97219 0.0
C874 C 0.76346 0.99028 0.99804 0.0
C875 C 0.77031 0.98391 0.04421 0.0
C876 C 0.7693 0.03754 0.99562 0.0
C877 C 0.71473 0.96774 0.97484 0.0
C878 C 0.7215 0.93629 0.94184 0.0
C879 C 0.6825 0.91064 0.91594 0.0
C880 C 0.63502 0.91842 0.92273 0.0
C881 C 0.62701 0.95091 0.95586 0.0
C882 C 0.66734 0.9755 0.98267 0.0
H883 H 0.30573 0.61008 0.73025 0.0
H884 H 0.4485 0.6693 0.79427 0.0
H885 H 0.47146 0.59881 0.80195 0.0
H886 H 0.28621 0.53702 0.79421 0.0
H887 H 0.25606 0.49486 0.75247 0.0
H888 H 0.25358 0.54902 0.74738 0.0
H889 H 0.29026 0.53541 0.67625 0.0
H890 H 0.29212 0.48092 0.68073 0.0
H891 H 0.34715 0.51301 0.67422 0.0
H892 H 0.47532 0.52076 0.80738 0.0
H893 H 0.46034 0.44367 0.80752 0.0
H894 H 0.31415 0.43896 0.74175 0.0
C895 C 0.34229 0.60825 0.74502 0.0
C896 C 0.37536 0.64509 0.76166 0.0
C897 C 0.42267 0.64135 0.7811 0.0
C898 C 0.43598 0.60147 0.78566 0.0
C899 C 0.40167 0.56579 0.77019 0.0
C900 C 0.35601 0.56895 0.74977 0.0
C901 C 0.32453 0.52657 0.73785 0.0
C902 C 0.27734 0.52692 0.75927 0.0
C903 C 0.31285 0.51319 0.6894 0.0
C904 C 0.3589 0.49911 0.75586 0.0
C905 C 0.40352 0.52188 0.77396 0.0
C906 C 0.4406 0.50265 0.793 0.0
C907 C 0.43179 0.45899 0.79311 0.0
C908 C 0.386 0.43554 0.77497 0.0
C909 C 0.34939 0.4561 0.75626 0.0
H910 H 0.19791 0.49452 0.54381 0.0
H911 H 0.16128 0.58843 0.46943 0.0
H912 H 0.24489 0.59304 0.44795 0.0
H913 H 0.3274 0.53214 0.57836 0.0
H914 H 0.34478 0.47945 0.57016 0.0
H915 H 0.28465 0.48799 0.58391 0.0
H916 H 0.24685 0.43271 0.51798 0.0
H917 H 0.30574 0.42517 0.50082 0.0
H918 H 0.25898 0.44083 0.46609 0.0
H919 H 0.33144 0.58495 0.43249 0.0
H920 H 0.41225 0.56153 0.42069 0.0
H921 H 0.38886 0.46946 0.50132 0.0
C922 C 0.20812 0.51698 0.52409 0.0
C923 C 0.174 0.54193 0.50901 0.0
C924 C 0.18752 0.56958 0.48169 0.0
C925 C 0.23478 0.57242 0.46943 0.0
C926 C 0.26751 0.54683 0.48429 0.0
C927 C 0.2546 0.51937 0.51074 0.0
C928 C 0.29417 0.49168 0.51816 0.0
C929 C 0.31392 0.49823 0.56545 0.0
C930 C 0.27529 0.44485 0.49973 0.0
C931 C 0.332 0.50873 0.49288 0.0
C932 C 0.31602 0.54048 0.4735 0.0
C933 C 0.34425 0.56004 0.4474 0.0
C934 C 0.38981 0.5464 0.44062 0.0
C935 C 0.40632 0.51355 0.45976 0.0
C936 C 0.37722 0.49488 0.48651 0.0
H937 H 0.83206 0.8432 0.95086 0.0
H938 H 0.76698 0.71223 0.9118 0.0
H939 H 0.77959 0.7027 0.98627 0.0
H940 H 0.9243 0.82597 0.0331 0.0
H941 H 0.91898 0.8752 0.06725 0.0
H942 H 0.90697 0.87019 0.0106 0.0
H943 H 0.82108 0.89366 0.01873 0.0
H944 H 0.83284 0.89834 0.07528 0.0
H945 H 0.77931 0.86505 0.04607 0.0
H946 H 0.79935 0.70777 0.0652 0.0
H947 H 0.81879 0.72848 0.14319 0.0
H948 H 0.86752 0.85685 0.13021 0.0
C949 C 0.82034 0.81254 0.95794 0.0
C950 C 0.79833 0.77848 0.92565 0.0
C951 C 0.78371 0.73879 0.93616 0.0
C952 C 0.79093 0.73304 0.97829 0.0
C953 C 0.81274 0.76733 0.00941 0.0
C954 C 0.82705 0.80634 0.99973 0.0
C955 C 0.84844 0.83842 0.03903 0.0
C956 C 0.90288 0.85329 0.03737 0.0
C957 C 0.81861 0.87607 0.04515 0.0
C958 C 0.84251 0.8117 0.07261 0.0
C959 C 0.82291 0.77053 0.0548 0.0
C960 C 0.81458 0.73992 0.07953 0.0
C961 C 0.82579 0.7519 0.1237 0.0
C962 C 0.8442 0.79424 0.14254 0.0
C963 C 0.85303 0.82431 0.11657 0.0
H964 H 0.56053 0.42677 0.28802 0.0
H965 H 0.60809 0.55764 0.3475 0.0
H966 H 0.61897 0.57528 0.27752 0.0
H967 H 0.6403 0.42337 0.19911 0.0
H968 H 0.59255 0.39041 0.1617 0.0
H969 H 0.59795 0.38606 0.2166 0.0
H970 H 0.50741 0.39964 0.21935 0.0
H971 H 0.50183 0.40438 0.16454 0.0
H972 H 0.48815 0.44686 0.20396 0.0
H973 H 0.61605 0.58033 0.20107 0.0
H974 H 0.5959 0.57311 0.12373 0.0
H975 H 0.5467 0.43949 0.1135 0.0
C976 C 0.57493 0.45876 0.28636 0.0
C977 C 0.58415 0.49075 0.32311 0.0
C978 C 0.60122 0.53264 0.3197 0.0
C979 C 0.6077 0.5429 0.28013 0.0
C980 C 0.59695 0.51089 0.24429 0.0
C981 C 0.58116 0.46957 0.24699 0.0
C982 C 0.56675 0.44225 0.20331 0.0
C983 C 0.60147 0.40854 0.19469 0.0
C984 C 0.51284 0.42213 0.19747 0.0
C985 C 0.5745 0.47504 0.17583 0.0
C986 C 0.59329 0.51416 0.2 0.0
C987 C 0.60193 0.54972 0.18179 0.0
C988 C 0.59037 0.54529 0.13783 0.0
C989 C 0.56984 0.50571 0.11263 0.0
C990 C 0.56268 0.47006 0.13191 0.0
H991 H 0.85695 0.20164 0.42991 0.0
H992 H 0.88258 0.33683 0.43375 0.0
H993 H 0.88999 0.34949 0.51219 0.0
H994 H 0.77888 0.20696 0.50694 0.0
H995 H 0.79954 0.16438 0.53035 0.0
H996 H 0.8043 0.16486 0.47539 0.0
H997 H 0.8981 0.16125 0.48706 0.0
H998 H 0.8929 0.15845 0.5416 0.0
H999 H 0.93575 0.19886 0.52898 0.0
H1000 H 0.89001 0.34684 0.59026 0.0
H1001 H 0.87797 0.32967 0.66049 0.0
H1002 H 0.84532 0.19659 0.60333 0.0
C1003 C 0.86477 0.23394 0.44722 0.0
C1004 C 0.86999 0.2683 0.42592 0.0
C1005 C 0.87929 0.31007 0.44963 0.0
C1006 C 0.88357 0.31751 0.4941 0.0
C1007 C 0.87764 0.2828 0.5141 0.0
C1008 C 0.8683 0.24184 0.49131 0.0
C1009 C 0.85893 0.21017 0.51968 0.0
C1010 C 0.80735 0.18514 0.50733 0.0
C1011 C 0.8988 0.18042 0.51928 0.0
C1012 C 0.86296 0.23975 0.56198 0.0
C1013 C 0.87489 0.28142 0.55836 0.0
C1014 C 0.88064 0.31433 0.59341 0.0
C1015 C 0.87368 0.30432 0.63308 0.0
C1016 C 0.86018 0.2619 0.63705 0.0
C1017 C 0.85503 0.22934 0.60104 0.0
H1018 H 0.03977 0.56004 0.68283 0.0
H1019 H 0.90747 0.47887 0.62125 0.0
H1020 H 0.88199 0.4733 0.6914 0.0
H1021 H 0.0647 0.50533 0.76415 0.0
H1022 H 0.08693 0.55157 0.80423 0.0
H1023 H 0.09176 0.55293 0.74944 0.0
H1024 H 0.04415 0.6181 0.7544 0.0
H1025 H 0.03922 0.61706 0.80935 0.0
H1026 H 0.98477 0.61525 0.77279 0.0
H1027 H 0.87462 0.47217 0.76894 0.0
H1028 H 0.88626 0.47583 0.84665 0.0
H1029 H 0.02378 0.55714 0.85597 0.0
C1030 C 0.005 0.54169 0.68405 0.0
C1031 C 0.9755 0.52 0.64667 0.0
C1032 C 0.93049 0.49597 0.64958 0.0
C1033 C 0.91572 0.49264 0.68925 0.0
C1034 C 0.9462 0.51382 0.7256 0.0
C1035 C 0.98975 0.53813 0.72326 0.0
C1036 C 0.01736 0.55583 0.76677 0.0
C1037 C 0.06817 0.54047 0.77139 0.0
C1038 C 0.0216 0.60443 0.77638 0.0
C1039 C 0.9834 0.53657 0.79394 0.0
C1040 C 0.94219 0.51289 0.76982 0.0
C1041 C 0.90653 0.49097 0.78815 0.0
C1042 C 0.91343 0.49317 0.83224 0.0
C1043 C 0.95592 0.51669 0.85721 0.0
C1044 C 0.99091 0.53889 0.83769 0.0
H1045 H 0.83654 0.04756 0.52818 0.0
H1046 H 0.8665 0.95438 0.42303 0.0
H1047 H 0.77775 0.92881 0.40626 0.0
H1048 H 0.73495 0.98236 0.55973 0.0
H1049 H 0.70132 0.02671 0.5724 0.0
H1050 H 0.76739 0.03477 0.57827 0.0
H1051 H 0.76481 0.0899 0.52945 0.0
H1052 H 0.69888 0.08223 0.52312 0.0
H1053 H 0.73098 0.07536 0.47712 0.0
H1054 H 0.68543 0.9163 0.39904 0.0
H1055 H 0.59662 0.9214 0.39818 0.0
H1056 H 0.62831 0.0232 0.50806 0.0
C1057 C 0.82452 0.02141 0.50196 0.0
C1058 C 0.85823 0.00275 0.47701 0.0
C1059 C 0.84114 0.96895 0.44264 0.0
C1060 C 0.79091 0.9541 0.43303 0.0
C1061 C 0.75857 0.9733 0.4583 0.0
C1062 C 0.77474 0.00626 0.49201 0.0
C1063 C 0.73245 0.02344 0.51251 0.0
C1064 C 0.73414 0.01638 0.55844 0.0
C1065 C 0.73173 0.0705 0.51037 0.0
C1066 C 0.68979 0.99587 0.48426 0.0
C1067 C 0.70552 0.96664 0.45364 0.0
C1068 C 0.67261 0.93891 0.4229 0.0
C1069 C 0.62232 0.94194 0.42278 0.0
C1070 C 0.60573 0.97265 0.45312 0.0
C1071 C 0.63993 0.99923 0.48468 0.0
loop_
_geom_bond_atom_site_label_1
_geom_bond_atom_site_label_2
_geom_bond_distance
_geom_bond_site_symmetry_2
_ccdc_geom_bond_type
In0 O1 2.294 . S
In0 O2 2.326 . S
In0 O6 2.266 . S
In0 O7 2.326 . S
In0 O8 2.266 . S
In0 O9 2.326 . S
In0 O11 2.294 . S
In0 O12 2.326 . S
O1 In0 2.294 . S
O1 C10 1.240 . S
O2 In0 2.326 . S
O2 C10 1.252 . S
C3 O6 1.252 . S
C3 O7 1.260 . S
C4 O11 1.240 . S
C4 O12 1.252 . S
C5 O8 1.252 . S
C5 O9 1.260 . S
O6 In0 2.266 . S
O6 C3 1.252 . S
O7 In0 2.326 . S
O7 C3 1.260 . S
O8 In0 2.266 . S
O8 C5 1.252 . S
O9 In0 2.326 . S
O9 C5 1.260 . S
C10 O1 1.240 . S
C10 O2 1.252 . S
O11 In0 2.294 . S
O11 C4 1.240 . S
O12 In0 2.326 . S
O12 C4 1.252 . S
In13 O14 2.294 1_655 S
In13 O15 2.329 1_545 S
In13 O19 2.263 1_655 S
In13 O20 2.323 . S
In13 O21 2.267 1_545 S
In13 O22 2.324 . S
In13 O24 2.296 1_645 S
In13 O25 2.327 1_645 S
O14 In13 2.294 1_455 S
O14 C23 1.240 1_545 S
O15 In13 2.329 1_565 S
O15 C23 1.252 1_655 S
C16 O19 1.252 1_655 S
C16 O20 1.260 . S
C17 O24 1.240 . S
C17 O25 1.252 . S
C18 O21 1.245 1_545 S
C18 O22 1.266 . S
O19 In13 2.263 1_455 S
O19 C16 1.252 1_455 S
O20 In13 2.323 . S
O20 C16 1.260 . S
O21 In13 2.267 1_565 S
O21 C18 1.245 1_565 S
O22 In13 2.324 . S
O22 C18 1.266 . S
C23 O14 1.240 1_565 S
C23 O15 1.252 1_455 S
O24 In13 2.296 1_465 S
O24 C17 1.240 . S
O25 In13 2.327 1_465 S
O25 C17 1.252 . S
In26 O27 2.294 . S
In26 O28 2.326 . S
In26 O32 2.266 . S
In26 O33 2.326 . S
In26 O34 2.266 . S
In26 O35 2.326 . S
In26 O37 2.294 . S
In26 O38 2.326 . S
O27 In26 2.294 . S
O27 C36 1.240 . S
O28 In26 2.326 . S
O28 C36 1.252 . S
C29 O32 1.252 . S
C29 O33 1.260 . S
C30 O37 1.240 . S
C30 O38 1.252 . S
C31 O34 1.252 . S
C31 O35 1.260 . S
O32 In26 2.266 . S
O32 C29 1.252 . S
O33 In26 2.326 . S
O33 C29 1.260 . S
O34 In26 2.266 . S
O34 C31 1.252 . S
O35 In26 2.326 . S
O35 C31 1.260 . S
C36 O27 1.240 . S
C36 O28 1.252 . S
O37 In26 2.294 . S
O37 C30 1.240 . S
O38 In26 2.326 . S
O38 C30 1.252 . S
In39 O40 2.294 1_554 S
In39 O41 2.321 1_564 S
In39 O45 2.266 1_554 S
In39 O46 2.326 . S
In39 O47 2.266 . S
In39 O48 2.326 . S
In39 O50 2.294 . S
In39 O51 2.326 1_554 S
O40 In39 2.294 1_556 S
O40 C49 1.240 1_565 S
O41 In39 2.321 1_546 S
O41 C49 1.263 . S
C42 O45 1.252 1_554 S
C42 O46 1.260 . S
C43 O50 1.240 1_556 S
C43 O51 1.252 . S
C44 O47 1.252 . S
C44 O48 1.260 . S
O45 In39 2.266 1_556 S
O45 C42 1.252 1_556 S
O46 In39 2.326 . S
O46 C42 1.260 . S
O47 In39 2.266 . S
O47 C44 1.252 . S
O48 In39 2.326 . S
O48 C44 1.260 . S
C49 O40 1.240 1_545 S
C49 O41 1.263 . S
O50 In39 2.294 . S
O50 C43 1.240 1_554 S
O51 In39 2.326 1_556 S
O51 C43 1.252 . S
In52 O53 2.294 . S
In52 O54 2.326 . S
In52 O58 2.266 . S
In52 O59 2.326 . S
In52 O60 2.266 . S
In52 O61 2.326 . S
In52 O63 2.294 . S
In52 O64 2.326 . S
O53 In52 2.294 . S
O53 C62 1.240 . S
O54 In52 2.326 . S
O54 C62 1.252 . S
C55 O58 1.252 . S
C55 O59 1.260 . S
C56 O63 1.240 . S
C56 O64 1.252 . S
C57 O60 1.252 . S
C57 O61 1.260 . S
O58 In52 2.266 . S
O58 C55 1.252 . S
O59 In52 2.326 . S
O59 C55 1.260 . S
O60 In52 2.266 . S
O60 C57 1.252 . S
O61 In52 2.326 . S
O61 C57 1.260 . S
C62 O53 1.240 . S
C62 O54 1.252 . S
O63 In52 2.294 . S
O63 C56 1.240 . S
O64 In52 2.326 . S
O64 C56 1.252 . S
In65 O66 2.295 . S
In65 O67 2.326 1_545 S
In65 O71 2.266 . S
In65 O72 2.326 . S
In65 O73 2.266 1_545 S
In65 O74 2.326 . S
In65 O76 2.294 1_545 S
In65 O77 2.326 . S
O66 In65 2.295 . S
O66 C75 1.237 1_545 S
O67 In65 2.326 1_565 S
O67 C75 1.252 . S
C68 O71 1.252 . S
C68 O72 1.260 . S
C69 O76 1.240 1_545 S
C69 O77 1.252 . S
C70 O73 1.252 . S
C70 O74 1.260 1_565 S
O71 In65 2.266 . S
O71 C68 1.252 . S
O72 In65 2.326 . S
O72 C68 1.260 . S
O73 In65 2.266 1_565 S
O73 C70 1.252 . S
O74 In65 2.326 . S
O74 C70 1.260 1_545 S
C75 O66 1.237 1_565 S
C75 O67 1.252 . S
O76 In65 2.294 1_565 S
O76 C69 1.240 1_565 S
O77 In65 2.326 . S
O77 C69 1.252 . S
In78 O79 2.294 . S
In78 O80 2.326 . S
In78 O84 2.266 . S
In78 O85 2.326 . S
In78 O86 2.266 . S
In78 O87 2.326 . S
In78 O89 2.294 . S
In78 O90 2.326 . S
O79 In78 2.294 . S
O79 C88 1.240 . S
O80 In78 2.326 . S
O80 C88 1.252 . S
C81 O84 1.252 . S
C81 O85 1.260 . S
C82 O89 1.240 . S
C82 O90 1.252 . S
C83 O86 1.252 . S
C83 O87 1.260 . S
O84 In78 2.266 . S
O84 C81 1.252 . S
O85 In78 2.326 . S
O85 C81 1.260 . S
O86 In78 2.266 . S
O86 C83 1.252 . S
O87 In78 2.326 . S
O87 C83 1.260 . S
C88 O79 1.240 . S
C88 O80 1.252 . S
O89 In78 2.294 . S
O89 C82 1.240 . S
O90 In78 2.326 . S
O90 C82 1.252 . S
In91 O92 2.295 . S
In91 O93 2.327 . S
In91 O97 2.266 . S
In91 O98 2.325 1_655 S
In91 O99 2.266 1_655 S
In91 O100 2.326 . S
In91 O102 2.293 1_665 S
In91 O103 2.326 1_665 S
O92 In91 2.295 . S
O92 C101 1.240 . S
O93 In91 2.327 . S
O93 C101 1.252 . S
C94 O97 1.252 1_455 S
C94 O98 1.260 . S
C95 O102 1.241 . S
C95 O103 1.252 . S
C96 O99 1.252 . S
C96 O100 1.260 1_455 S
O97 In91 2.266 . S
O97 C94 1.252 1_655 S
O98 In91 2.325 1_455 S
O98 C94 1.260 . S
O99 In91 2.266 1_455 S
O99 C96 1.252 . S
O100 In91 2.326 . S
O100 C96 1.260 1_655 S
C101 O92 1.240 . S
C101 O93 1.252 . S
O102 In91 2.293 1_445 S
O102 C95 1.241 . S
O103 In91 2.326 1_445 S
O103 C95 1.252 . S
In104 O105 2.294 . S
In104 O106 2.326 . S
In104 O110 2.266 . S
In104 O111 2.326 . S
In104 O112 2.266 . S
In104 O113 2.326 . S
In104 O115 2.294 . S
In104 O116 2.326 . S
O105 In104 2.294 . S
O105 C114 1.240 . S
O106 In104 2.326 . S
O106 C114 1.252 . S
C107 O110 1.252 . S
C107 O111 1.260 . S
C108 O115 1.240 . S
C108 O116 1.252 . S
C109 O112 1.252 . S
C109 O113 1.260 . S
O110 In104 2.266 . S
O110 C107 1.252 . S
O111 In104 2.326 . S
O111 C107 1.260 . S
O112 In104 2.266 . S
O112 C109 1.252 . S
O113 In104 2.326 . S
O113 C109 1.260 . S
C114 O105 1.240 . S
C114 O106 1.252 . S
O115 In104 2.294 . S
O115 C108 1.240 . S
O116 In104 2.326 . S
O116 C108 1.252 . S
In117 O118 2.296 . S
In117 O119 2.327 1_556 S
In117 O123 2.266 . S
In117 O124 2.324 1_455 S
In117 O125 2.265 1_455 S
In117 O126 2.326 . S
In117 O128 2.293 1_455 S
In117 O129 2.326 1_455 S
O118 In117 2.296 . S
O118 C127 1.240 . S
O119 In117 2.327 1_554 S
O119 C127 1.252 1_554 S
C120 O123 1.252 1_655 S
C120 O124 1.260 . S
C121 O128 1.240 . S
C121 O129 1.252 . S
C122 O125 1.252 . S
C122 O126 1.260 1_655 S
O123 In117 2.266 . S
O123 C120 1.252 1_455 S
O124 In117 2.324 1_655 S
O124 C120 1.260 . S
O125 In117 2.265 1_655 S
O125 C122 1.252 . S
O126 In117 2.326 . S
O126 C122 1.260 1_455 S
C127 O118 1.240 . S
C127 O119 1.252 1_556 S
O128 In117 2.293 1_655 S
O128 C121 1.240 . S
O129 In117 2.326 1_655 S
O129 C121 1.252 . S
In130 O131 2.294 . S
In130 O132 2.326 . S
In130 O136 2.266 . S
In130 O137 2.326 . S
In130 O138 2.266 . S
In130 O139 2.326 . S
In130 O141 2.294 . S
In130 O142 2.326 . S
O131 In130 2.294 . S
O131 C140 1.240 . S
O132 In130 2.326 . S
O132 C140 1.252 . S
C133 O136 1.252 . S
C133 O137 1.260 . S
C134 O141 1.240 . S
C134 O142 1.252 . S
C135 O138 1.252 . S
C135 O139 1.260 . S
O136 In130 2.266 . S
O136 C133 1.252 . S
O137 In130 2.326 . S
O137 C133 1.260 . S
O138 In130 2.266 . S
O138 C135 1.252 . S
O139 In130 2.326 . S
O139 C135 1.260 . S
C140 O131 1.240 . S
C140 O132 1.252 . S
O141 In130 2.294 . S
O141 C134 1.240 . S
O142 In130 2.326 . S
O142 C134 1.252 . S
In143 O144 2.294 . S
In143 O145 2.326 . S
In143 O149 2.266 . S
In143 O150 2.326 1_455 S
In143 O151 2.266 1_455 S
In143 O152 2.326 . S
In143 O154 2.294 1_455 S
In143 O155 2.326 . S
O144 In143 2.294 . S
O144 C153 1.240 . S
O145 In143 2.326 . S
O145 C153 1.252 . S
C146 O149 1.252 1_655 S
C146 O150 1.260 . S
C147 O154 1.240 . S
C147 O155 1.252 1_655 S
C148 O151 1.252 . S
C148 O152 1.260 1_655 S
O149 In143 2.266 . S
O149 C146 1.252 1_455 S
O150 In143 2.326 1_655 S
O150 C146 1.260 . S
O151 In143 2.266 1_655 S
O151 C148 1.252 . S
O152 In143 2.326 . S
O152 C148 1.260 1_455 S
C153 O144 1.240 . S
C153 O145 1.252 . S
O154 In143 2.294 1_655 S
O154 C147 1.240 . S
O155 In143 2.326 . S
O155 C147 1.252 1_455 S
In156 O157 2.294 1_554 S
In156 O158 2.326 . S
In156 O162 2.266 1_554 S
In156 O163 2.326 . S
In156 O164 2.266 . S
In156 O165 2.326 1_554 S
In156 O167 2.294 . S
In156 O168 2.326 . S
O157 In156 2.294 1_556 S
O157 C166 1.240 . S
O158 In156 2.326 . S
O158 C166 1.252 1_554 S
C159 O162 1.252 1_554 S
C159 O163 1.260 . S
C160 O167 1.240 . S
C160 O168 1.252 . S
C161 O164 1.252 . S
C161 O165 1.260 1_554 S
O162 In156 2.266 1_556 S
O162 C159 1.252 1_556 S
O163 In156 2.326 . S
O163 C159 1.260 . S
O164 In156 2.266 . S
O164 C161 1.252 . S
O165 In156 2.326 1_556 S
O165 C161 1.260 1_556 S
C166 O157 1.240 . S
C166 O158 1.252 1_556 S
O167 In156 2.294 . S
O167 C160 1.240 . S
O168 In156 2.326 . S
O168 C160 1.252 . S
In169 O170 2.294 . S
In169 O171 2.326 . S
In169 O175 2.266 . S
In169 O176 2.326 . S
In169 O177 2.266 . S
In169 O178 2.326 . S
In169 O180 2.294 . S
In169 O181 2.326 . S
O170 In169 2.294 . S
O170 C179 1.240 . S
O171 In169 2.326 . S
O171 C179 1.252 . S
C172 O175 1.252 . S
C172 O176 1.260 . S
C173 O180 1.240 . S
C173 O181 1.252 . S
C174 O177 1.252 . S
C174 O178 1.260 . S
O175 In169 2.266 . S
O175 C172 1.252 . S
O176 In169 2.326 . S
O176 C172 1.260 . S
O177 In169 2.266 . S
O177 C174 1.252 . S
O178 In169 2.326 . S
O178 C174 1.260 . S
C179 O170 1.240 . S
C179 O171 1.252 . S
O180 In169 2.294 . S
O180 C173 1.240 . S
O181 In169 2.326 . S
O181 C173 1.252 . S
In182 O183 2.294 . S
In182 O184 2.326 . S
In182 O188 2.266 . S
In182 O189 2.326 . S
In182 O190 2.266 . S
In182 O191 2.326 . S
In182 O193 2.294 . S
In182 O194 2.326 . S
O183 In182 2.294 . S
O183 C192 1.240 . S
O184 In182 2.326 . S
O184 C192 1.252 . S
C185 O188 1.252 . S
C185 O189 1.260 . S
C186 O193 1.240 . S
C186 O194 1.252 . S
C187 O190 1.252 . S
C187 O191 1.260 . S
O188 In182 2.266 . S
O188 C185 1.252 . S
O189 In182 2.326 . S
O189 C185 1.260 . S
O190 In182 2.266 . S
O190 C187 1.252 . S
O191 In182 2.326 . S
O191 C187 1.260 . S
C192 O183 1.240 . S
C192 O184 1.252 . S
O193 In182 2.294 . S
O193 C186 1.240 . S
O194 In182 2.326 . S
O194 C186 1.252 . S
In195 O196 2.294 . S
In195 O197 2.326 . S
In195 O201 2.266 . S
In195 O202 2.326 . S
In195 O203 2.266 . S
In195 O204 2.326 . S
In195 O206 2.294 . S
In195 O207 2.326 . S
O196 In195 2.294 . S
O196 C205 1.240 . S
O197 In195 2.326 . S
O197 C205 1.252 . S
C198 O201 1.252 . S
C198 O202 1.260 . S
C199 O206 1.240 . S
C199 O207 1.252 . S
C200 O203 1.252 . S
C200 O204 1.260 . S
O201 In195 2.266 . S
O201 C198 1.252 . S
O202 In195 2.326 . S
O202 C198 1.260 . S
O203 In195 2.266 . S
O203 C200 1.252 . S
O204 In195 2.326 . S
O204 C200 1.260 . S
C205 O196 1.240 . S
C205 O197 1.252 . S
O206 In195 2.294 . S
O206 C199 1.240 . S
O207 In195 2.326 . S
O207 C199 1.252 . S
H208 C220 0.930 . S
H209 C222 0.930 . S
H210 C223 0.930 . S
H211 C227 0.959 . S
H212 C227 0.959 . S
H213 C227 0.961 . S
H214 C228 0.960 . S
H215 C228 0.961 . S
H216 C228 0.959 . S
H217 C231 0.929 . S
H218 C232 0.931 1_556 S
H219 C234 0.930 . S
C220 H208 0.930 . S
C220 C221 1.399 . S
C220 C225 1.399 . S
C221 C220 1.399 . S
C221 C222 1.376 . S
C222 H209 0.930 . S
C222 C221 1.376 . S
C222 C223 1.388 . S
C223 H210 0.930 . S
C223 C222 1.388 . S
C223 C224 1.390 . S
C224 C223 1.390 . S
C224 C225 1.394 . S
C224 C230 1.465 . S
C225 C220 1.399 . S
C225 C224 1.394 . S
C225 C226 1.516 . S
C226 C225 1.516 . S
C226 C227 1.502 . S
C226 C228 1.561 . S
C226 C229 1.526 . S
C227 H211 0.959 . S
C227 H212 0.959 . S
C227 H213 0.961 . S
C227 C226 1.502 . S
C228 H214 0.960 . S
C228 H215 0.961 . S
C228 H216 0.959 . S
C228 C226 1.561 . S
C229 C226 1.526 . S
C229 C230 1.396 . S
C229 C234 1.390 . S
C230 C224 1.465 . S
C230 C229 1.396 . S
C230 C231 1.399 . S
C231 H217 0.929 . S
C231 C230 1.399 . S
C231 C232 1.385 . S
C232 H218 0.931 1_554 S
C232 C231 1.385 . S
C232 C233 1.389 . S
C233 C232 1.389 . S
C233 C234 1.387 . S
C234 H219 0.930 . S
C234 C229 1.390 . S
C234 C233 1.387 . S
H235 C247 0.930 . S
H236 C249 0.930 . S
H237 C250 0.930 . S
H238 C254 0.959 . S
H239 C254 0.959 . S
H240 C254 0.961 . S
H241 C255 0.960 . S
H242 C255 0.961 . S
H243 C255 0.959 . S
H244 C258 0.929 . S
H245 C259 0.931 . S
H246 C261 0.930 . S
C247 H235 0.930 . S
C247 C248 1.399 . S
C247 C252 1.399 . S
C248 C247 1.399 . S
C248 C249 1.376 . S
C249 H236 0.930 . S
C249 C248 1.376 . S
C249 C250 1.388 . S
C250 H237 0.930 . S
C250 C249 1.388 . S
C250 C251 1.390 . S
C251 C250 1.390 . S
C251 C252 1.394 . S
C251 C257 1.465 . S
C252 C247 1.399 . S
C252 C251 1.394 . S
C252 C253 1.516 . S
C253 C252 1.516 . S
C253 C254 1.502 . S
C253 C255 1.561 . S
C253 C256 1.526 . S
C254 H238 0.959 . S
C254 H239 0.959 . S
C254 H240 0.961 . S
C254 C253 1.502 . S
C255 H241 0.960 . S
C255 H242 0.961 . S
C255 H243 0.959 . S
C255 C253 1.561 . S
C256 C253 1.526 . S
C256 C257 1.396 . S
C256 C261 1.390 . S
C257 C251 1.465 . S
C257 C256 1.396 . S
C257 C258 1.399 . S
C258 H244 0.929 . S
C258 C257 1.399 . S
C258 C259 1.385 . S
C259 H245 0.931 . S
C259 C258 1.385 . S
C259 C260 1.389 . S
C260 C259 1.389 . S
C260 C261 1.387 . S
C261 H246 0.930 . S
C261 C256 1.390 . S
C261 C260 1.387 . S
H262 C274 0.930 . S
H263 C276 0.930 . S
H264 C277 0.930 . S
H265 C281 0.959 . S
H266 C281 0.959 . S
H267 C281 0.961 . S
H268 C282 0.960 . S
H269 C282 0.961 . S
H270 C282 0.959 . S
H271 C285 0.929 . S
H272 C286 0.931 . S
H273 C288 0.930 . S
C274 H262 0.930 . S
C274 C275 1.399 . S
C274 C279 1.399 . S
C275 C274 1.399 . S
C275 C276 1.376 . S
C276 H263 0.930 . S
C276 C275 1.376 . S
C276 C277 1.388 . S
C277 H264 0.930 . S
C277 C276 1.388 . S
C277 C278 1.390 . S
C278 C277 1.390 . S
C278 C279 1.394 . S
C278 C284 1.465 . S
C279 C274 1.399 . S
C279 C278 1.394 . S
C279 C280 1.516 . S
C280 C279 1.516 . S
C280 C281 1.502 . S
C280 C282 1.561 . S
C280 C283 1.526 . S
C281 H265 0.959 . S
C281 H266 0.959 . S
C281 H267 0.961 . S
C281 C280 1.502 . S
C282 H268 0.960 . S
C282 H269 0.961 . S
C282 H270 0.959 . S
C282 C280 1.561 . S
C283 C280 1.526 . S
C283 C284 1.396 . S
C283 C288 1.390 . S
C284 C278 1.465 . S
C284 C283 1.396 . S
C284 C285 1.399 . S
C285 H271 0.929 . S
C285 C284 1.399 . S
C285 C286 1.385 . S
C286 H272 0.931 . S
C286 C285 1.385 . S
C286 C287 1.389 . S
C287 C286 1.389 . S
C287 C288 1.387 . S
C288 H273 0.930 . S
C288 C283 1.390 . S
C288 C287 1.387 . S
H289 C301 0.930 . S
H290 C303 0.930 . S
H291 C304 0.930 . S
H292 C308 0.959 . S
H293 C308 0.959 . S
H294 C308 0.961 . S
H295 C309 0.960 . S
H296 C309 0.961 . S
H297 C309 0.959 . S
H298 C312 0.929 . S
H299 C313 0.931 . S
H300 C315 0.930 . S
C301 H289 0.930 . S
C301 C302 1.399 . S
C301 C306 1.399 . S
C302 C301 1.399 . S
C302 C303 1.376 . S
C303 H290 0.930 . S
C303 C302 1.376 . S
C303 C304 1.388 . S
C304 H291 0.930 . S
C304 C303 1.388 . S
C304 C305 1.390 . S
C305 C304 1.390 . S
C305 C306 1.394 . S
C305 C311 1.465 . S
C306 C301 1.399 . S
C306 C305 1.394 . S
C306 C307 1.516 . S
C307 C306 1.516 . S
C307 C308 1.502 . S
C307 C309 1.561 . S
C307 C310 1.526 . S
C308 H292 0.959 . S
C308 H293 0.959 . S
C308 H294 0.961 . S
C308 C307 1.502 . S
C309 H295 0.960 . S
C309 H296 0.961 . S
C309 H297 0.959 . S
C309 C307 1.561 . S
C310 C307 1.526 . S
C310 C311 1.396 . S
C310 C315 1.390 . S
C311 C305 1.465 . S
C311 C310 1.396 . S
C311 C312 1.399 . S
C312 H298 0.929 . S
C312 C311 1.399 . S
C312 C313 1.385 . S
C313 H299 0.931 . S
C313 C312 1.385 . S
C313 C314 1.389 . S
C314 C313 1.389 . S
C314 C315 1.387 . S
C315 H300 0.930 . S
C315 C310 1.390 . S
C315 C314 1.387 . S
H316 C328 0.930 . S
H317 C330 0.930 . S
H318 C331 0.930 . S
H319 C335 0.959 . S
H320 C335 0.959 . S
H321 C335 0.961 . S
H322 C336 0.960 . S
H323 C336 0.961 . S
H324 C336 0.959 . S
H325 C339 0.929 . S
H326 C340 0.931 1_554 S
H327 C342 0.930 . S
C328 H316 0.930 . S
C328 C329 1.399 . S
C328 C333 1.399 . S
C329 C328 1.399 . S
C329 C330 1.376 . S
C330 H317 0.930 . S
C330 C329 1.376 . S
C330 C331 1.388 . S
C331 H318 0.930 . S
C331 C330 1.388 . S
C331 C332 1.390 . S
C332 C331 1.390 . S
C332 C333 1.394 . S
C332 C338 1.465 . S
C333 C328 1.399 . S
C333 C332 1.394 . S
C333 C334 1.516 . S
C334 C333 1.516 . S
C334 C335 1.502 . S
C334 C336 1.561 . S
C334 C337 1.526 . S
C335 H319 0.959 . S
C335 H320 0.959 . S
C335 H321 0.961 . S
C335 C334 1.502 . S
C336 H322 0.960 . S
C336 H323 0.961 . S
C336 H324 0.959 . S
C336 C334 1.561 . S
C337 C334 1.526 . S
C337 C338 1.396 . S
C337 C342 1.390 . S
C338 C332 1.465 . S
C338 C337 1.396 . S
C338 C339 1.399 . S
C339 H325 0.929 . S
C339 C338 1.399 . S
C339 C340 1.385 . S
C340 H326 0.931 1_556 S
C340 C339 1.385 . S
C340 C341 1.389 . S
C341 C340 1.389 . S
C341 C342 1.387 . S
C342 H327 0.930 . S
C342 C337 1.390 . S
C342 C341 1.387 . S
H343 C355 0.930 . S
H344 C357 0.930 1_556 S
H345 C358 0.930 . S
H346 C362 0.959 . S
H347 C362 0.959 . S
H348 C362 0.961 . S
H349 C363 0.960 . S
H350 C363 0.961 . S
H351 C363 0.959 . S
H352 C366 0.929 . S
H353 C367 0.931 . S
H354 C369 0.930 . S
C355 H343 0.930 . S
C355 C356 1.399 . S
C355 C360 1.399 . S
C356 C355 1.399 . S
C356 C357 1.376 . S
C357 H344 0.930 1_554 S
C357 C356 1.376 . S
C357 C358 1.388 . S
C358 H345 0.930 . S
C358 C357 1.388 . S
C358 C359 1.390 . S
C359 C358 1.390 . S
C359 C360 1.394 . S
C359 C365 1.465 . S
C360 C355 1.399 . S
C360 C359 1.394 . S
C360 C361 1.516 . S
C361 C360 1.516 . S
C361 C362 1.502 . S
C361 C363 1.561 . S
C361 C364 1.526 . S
C362 H346 0.959 . S
C362 H347 0.959 . S
C362 H348 0.961 . S
C362 C361 1.502 . S
C363 H349 0.960 . S
C363 H350 0.961 . S
C363 H351 0.959 . S
C363 C361 1.561 . S
C364 C361 1.526 . S
C364 C365 1.396 . S
C364 C369 1.390 . S
C365 C359 1.465 . S
C365 C364 1.396 . S
C365 C366 1.399 . S
C366 H352 0.929 . S
C366 C365 1.399 . S
C366 C367 1.385 . S
C367 H353 0.931 . S
C367 C366 1.385 . S
C367 C368 1.389 . S
C368 C367 1.389 . S
C368 C369 1.387 . S
C369 H354 0.930 . S
C369 C364 1.390 . S
C369 C368 1.387 . S
H370 C382 0.930 . S
H371 C384 0.930 . S
H372 C385 0.930 . S
H373 C389 0.959 . S
H374 C389 0.959 . S
H375 C389 0.961 . S
H376 C390 0.960 . S
H377 C390 0.961 . S
H378 C390 0.959 . S
H379 C393 0.929 . S
H380 C394 0.931 . S
H381 C396 0.930 . S
C382 H370 0.930 . S
C382 C383 1.399 . S
C382 C387 1.399 . S
C383 C382 1.399 . S
C383 C384 1.376 . S
C384 H371 0.930 . S
C384 C383 1.376 . S
C384 C385 1.388 . S
C385 H372 0.930 . S
C385 C384 1.388 . S
C385 C386 1.390 . S
C386 C385 1.390 . S
C386 C387 1.394 . S
C386 C392 1.465 . S
C387 C382 1.399 . S
C387 C386 1.394 . S
C387 C388 1.516 . S
C388 C387 1.516 . S
C388 C389 1.502 1_655 S
C388 C390 1.561 . S
C388 C391 1.526 . S
C389 H373 0.959 . S
C389 H374 0.959 . S
C389 H375 0.961 . S
C389 C388 1.502 1_455 S
C390 H376 0.960 . S
C390 H377 0.961 . S
C390 H378 0.959 . S
C390 C388 1.561 . S
C391 C388 1.526 . S
C391 C392 1.396 . S
C391 C396 1.390 . S
C392 C386 1.465 . S
C392 C391 1.396 . S
C392 C393 1.399 . S
C393 H379 0.929 . S
C393 C392 1.399 . S
C393 C394 1.385 . S
C394 H380 0.931 . S
C394 C393 1.385 . S
C394 C395 1.389 . S
C395 C394 1.389 . S
C395 C396 1.387 . S
C396 H381 0.930 . S
C396 C391 1.390 . S
C396 C395 1.387 . S
H397 C409 0.930 . S
H398 C411 0.930 . S
H399 C412 0.930 . S
H400 C416 0.959 . S
H401 C416 0.959 . S
H402 C416 0.961 . S
H403 C417 0.960 . S
H404 C417 0.961 . S
H405 C417 0.959 . S
H406 C420 0.929 . S
H407 C421 0.931 . S
H408 C423 0.930 . S
C409 H397 0.930 . S
C409 C410 1.399 . S
C409 C414 1.399 . S
C410 C409 1.399 . S
C410 C411 1.376 . S
C411 H398 0.930 . S
C411 C410 1.376 . S
C411 C412 1.388 . S
C412 H399 0.930 . S
C412 C411 1.388 . S
C412 C413 1.390 . S
C413 C412 1.390 . S
C413 C414 1.394 . S
C413 C419 1.465 . S
C414 C409 1.399 . S
C414 C413 1.394 . S
C414 C415 1.516 . S
C415 C414 1.516 . S
C415 C416 1.502 . S
C415 C417 1.561 . S
C415 C418 1.526 . S
C416 H400 0.959 . S
C416 H401 0.959 . S
C416 H402 0.961 . S
C416 C415 1.502 . S
C417 H403 0.960 . S
C417 H404 0.961 . S
C417 H405 0.959 . S
C417 C415 1.561 . S
C418 C415 1.526 . S
C418 C419 1.396 . S
C418 C423 1.390 . S
C419 C413 1.465 . S
C419 C418 1.396 . S
C419 C420 1.399 . S
C420 H406 0.929 . S
C420 C419 1.399 . S
C420 C421 1.385 . S
C421 H407 0.931 . S
C421 C420 1.385 . S
C421 C422 1.389 . S
C422 C421 1.389 . S
C422 C423 1.387 . S
C423 H408 0.930 . S
C423 C418 1.390 . S
C423 C422 1.387 . S
H424 C436 0.930 . S
H425 C438 0.930 . S
H426 C439 0.930 . S
H427 C443 0.959 . S
H428 C443 0.959 . S
H429 C443 0.961 . S
H430 C444 0.960 . S
H431 C444 0.961 . S
H432 C444 0.959 . S
H433 C447 0.929 . S
H434 C448 0.931 . S
H435 C450 0.930 . S
C436 H424 0.930 . S
C436 C437 1.399 . S
C436 C441 1.399 . S
C437 C436 1.399 . S
C437 C438 1.376 . S
C438 H425 0.930 . S
C438 C437 1.376 . S
C438 C439 1.388 . S
C439 H426 0.930 . S
C439 C438 1.388 . S
C439 C440 1.390 . S
C440 C439 1.390 . S
C440 C441 1.394 . S
C440 C446 1.465 . S
C441 C436 1.399 . S
C441 C440 1.394 . S
C441 C442 1.516 . S
C442 C441 1.516 . S
C442 C443 1.502 . S
C442 C444 1.561 . S
C442 C445 1.526 . S
C443 H427 0.959 . S
C443 H428 0.959 . S
C443 H429 0.961 . S
C443 C442 1.502 . S
C444 H430 0.960 . S
C444 H431 0.961 . S
C444 H432 0.959 . S
C444 C442 1.561 . S
C445 C442 1.526 . S
C445 C446 1.396 . S
C445 C450 1.390 . S
C446 C440 1.465 . S
C446 C445 1.396 . S
C446 C447 1.399 . S
C447 H433 0.929 . S
C447 C446 1.399 . S
C447 C448 1.385 . S
C448 H434 0.931 . S
C448 C447 1.385 . S
C448 C449 1.389 . S
C449 C448 1.389 . S
C449 C450 1.387 . S
C450 H435 0.930 . S
C450 C445 1.390 . S
C450 C449 1.387 . S
H451 C463 0.930 . S
H452 C465 0.930 . S
H453 C466 0.930 . S
H454 C470 0.959 . S
H455 C470 0.959 . S
H456 C470 0.961 . S
H457 C471 0.960 . S
H458 C471 0.961 . S
H459 C471 0.959 . S
H460 C474 0.929 . S
H461 C475 0.931 . S
H462 C477 0.930 . S
C463 H451 0.930 . S
C463 C464 1.399 1_655 S
C463 C468 1.399 1_655 S
C464 C463 1.399 1_455 S
C464 C465 1.376 . S
C465 H452 0.930 . S
C465 C464 1.376 . S
C465 C466 1.388 . S
C466 H453 0.930 . S
C466 C465 1.388 . S
C466 C467 1.390 . S
C467 C466 1.390 . S
C467 C468 1.394 . S
C467 C473 1.465 . S
C468 C463 1.399 1_455 S
C468 C467 1.394 . S
C468 C469 1.516 1_455 S
C469 C468 1.516 1_655 S
C469 C470 1.502 . S
C469 C471 1.561 1_565 S
C469 C472 1.526 . S
C470 H454 0.959 . S
C470 H455 0.959 . S
C470 H456 0.961 . S
C470 C469 1.502 . S
C471 H457 0.960 . S
C471 H458 0.961 . S
C471 H459 0.959 . S
C471 C469 1.561 1_545 S
C472 C469 1.526 . S
C472 C473 1.396 1_655 S
C472 C477 1.390 . S
C473 C467 1.465 . S
C473 C472 1.396 1_455 S
C473 C474 1.399 . S
C474 H460 0.929 . S
C474 C473 1.399 . S
C474 C475 1.385 . S
C475 H461 0.931 . S
C475 C474 1.385 . S
C475 C476 1.389 . S
C476 C475 1.389 . S
C476 C477 1.387 1_455 S
C477 H462 0.930 . S
C477 C472 1.390 . S
C477 C476 1.387 1_655 S
H478 C490 0.930 . S
H479 C492 0.930 . S
H480 C493 0.930 . S
H481 C497 0.959 . S
H482 C497 0.959 . S
H483 C497 0.961 . S
H484 C498 0.960 . S
H485 C498 0.961 . S
H486 C498 0.959 . S
H487 C501 0.929 . S
H488 C502 0.931 . S
H489 C504 0.930 . S
C490 H478 0.930 . S
C490 C491 1.399 . S
C490 C495 1.399 . S
C491 C490 1.399 . S
C491 C492 1.376 . S
C492 H479 0.930 . S
C492 C491 1.376 . S
C492 C493 1.388 . S
C493 H480 0.930 . S
C493 C492 1.388 . S
C493 C494 1.390 1_556 S
C494 C493 1.390 1_554 S
C494 C495 1.394 1_554 S
C494 C500 1.465 . S
C495 C490 1.399 . S
C495 C494 1.394 1_556 S
C495 C496 1.516 1_556 S
C496 C495 1.516 1_554 S
C496 C497 1.502 . S
C496 C498 1.561 . S
C496 C499 1.526 . S
C497 H481 0.959 . S
C497 H482 0.959 . S
C497 H483 0.961 . S
C497 C496 1.502 . S
C498 H484 0.960 . S
C498 H485 0.961 . S
C498 H486 0.959 . S
C498 C496 1.561 . S
C499 C496 1.526 . S
C499 C500 1.396 . S
C499 C504 1.390 . S
C500 C494 1.465 . S
C500 C499 1.396 . S
C500 C501 1.399 . S
C501 H487 0.929 . S
C501 C500 1.399 . S
C501 C502 1.385 . S
C502 H488 0.931 . S
C502 C501 1.385 . S
C502 C503 1.389 . S
C503 C502 1.389 . S
C503 C504 1.387 . S
C504 H489 0.930 . S
C504 C499 1.390 . S
C504 C503 1.387 . S
H505 C517 0.930 . S
H506 C519 0.930 . S
H507 C520 0.930 . S
H508 C524 0.959 . S
H509 C524 0.959 . S
H510 C524 0.961 . S
H511 C525 0.960 . S
H512 C525 0.961 . S
H513 C525 0.959 . S
H514 C528 0.929 . S
H515 C529 0.931 . S
H516 C531 0.930 . S
C517 H505 0.930 . S
C517 C518 1.399 1_545 S
C517 C522 1.399 . S
C518 C517 1.399 1_565 S
C518 C519 1.376 . S
C519 H506 0.930 . S
C519 C518 1.376 . S
C519 C520 1.388 . S
C520 H507 0.930 . S
C520 C519 1.388 . S
C520 C521 1.390 . S
C521 C520 1.390 . S
C521 C522 1.394 1_565 S
C521 C527 1.465 . S
C522 C517 1.399 . S
C522 C521 1.394 1_545 S
C522 C523 1.516 . S
C523 C522 1.516 . S
C523 C524 1.502 . S
C523 C525 1.561 . S
C523 C526 1.526 . S
C524 H508 0.959 . S
C524 H509 0.959 . S
C524 H510 0.961 . S
C524 C523 1.502 . S
C525 H511 0.960 . S
C525 H512 0.961 . S
C525 H513 0.959 . S
C525 C523 1.561 . S
C526 C523 1.526 . S
C526 C527 1.396 1_545 S
C526 C531 1.390 . S
C527 C521 1.465 . S
C527 C526 1.396 1_565 S
C527 C528 1.399 . S
C528 H514 0.929 . S
C528 C527 1.399 . S
C528 C529 1.385 . S
C529 H515 0.931 . S
C529 C528 1.385 . S
C529 C530 1.389 . S
C530 C529 1.389 . S
C530 C531 1.387 1_565 S
C531 H516 0.930 . S
C531 C526 1.390 . S
C531 C530 1.387 1_545 S
H532 C544 0.930 . S
H533 C546 0.930 . S
H534 C547 0.930 . S
H535 C551 0.959 . S
H536 C551 0.959 . S
H537 C551 0.961 . S
H538 C552 0.960 . S
H539 C552 0.961 . S
H540 C552 0.959 . S
H541 C555 0.929 . S
H542 C556 0.931 . S
H543 C558 0.930 . S
C544 H532 0.930 . S
C544 C545 1.399 . S
C544 C549 1.399 . S
C545 C544 1.399 . S
C545 C546 1.376 . S
C546 H533 0.930 . S
C546 C545 1.376 . S
C546 C547 1.388 . S
C547 H534 0.930 . S
C547 C546 1.388 . S
C547 C548 1.390 . S
C548 C547 1.390 . S
C548 C549 1.394 . S
C548 C554 1.465 . S
C549 C544 1.399 . S
C549 C548 1.394 . S
C549 C550 1.516 . S
C550 C549 1.516 . S
C550 C551 1.502 . S
C550 C552 1.561 . S
C550 C553 1.526 . S
C551 H535 0.959 . S
C551 H536 0.959 . S
C551 H537 0.961 . S
C551 C550 1.502 . S
C552 H538 0.960 . S
C552 H539 0.961 . S
C552 H540 0.959 . S
C552 C550 1.561 . S
C553 C550 1.526 . S
C553 C554 1.396 . S
C553 C558 1.390 . S
C554 C548 1.465 . S
C554 C553 1.396 . S
C554 C555 1.399 . S
C555 H541 0.929 . S
C555 C554 1.399 . S
C555 C556 1.385 . S
C556 H542 0.931 . S
C556 C555 1.385 . S
C556 C557 1.389 . S
C557 C556 1.389 . S
C557 C558 1.387 . S
C558 H543 0.930 . S
C558 C553 1.390 . S
C558 C557 1.387 . S
H559 C571 0.930 . S
H560 C573 0.930 . S
H561 C574 0.930 . S
H562 C578 0.959 . S
H563 C578 0.959 . S
H564 C578 0.961 . S
H565 C579 0.960 . S
H566 C579 0.961 . S
H567 C579 0.959 . S
H568 C582 0.929 . S
H569 C583 0.926 1_455 S
H570 C585 0.930 . S
C571 H559 0.930 . S
C571 C572 1.399 . S
C571 C576 1.399 . S
C572 C571 1.399 . S
C572 C573 1.376 . S
C573 H560 0.930 . S
C573 C572 1.376 . S
C573 C574 1.388 . S
C574 H561 0.930 . S
C574 C573 1.388 . S
C574 C575 1.390 . S
C575 C574 1.390 . S
C575 C576 1.394 . S
C575 C581 1.465 . S
C576 C571 1.399 . S
C576 C575 1.394 . S
C576 C577 1.516 . S
C577 C576 1.516 . S
C577 C578 1.502 1_655 S
C577 C579 1.561 . S
C577 C580 1.526 . S
C578 H562 0.959 . S
C578 H563 0.959 . S
C578 H564 0.961 . S
C578 C577 1.502 1_455 S
C579 H565 0.960 . S
C579 H566 0.961 . S
C579 H567 0.959 . S
C579 C577 1.561 . S
C580 C577 1.526 . S
C580 C581 1.396 . S
C580 C585 1.390 . S
C581 C575 1.465 . S
C581 C580 1.396 . S
C581 C582 1.399 . S
C582 H568 0.929 . S
C582 C581 1.399 . S
C582 C583 1.388 . S
C583 H569 0.926 1_655 S
C583 C582 1.388 . S
C583 C584 1.390 . S
C584 C583 1.390 . S
C584 C585 1.390 . S
C585 H570 0.930 . S
C585 C580 1.390 . S
C585 C584 1.390 . S
H586 C598 0.930 . S
H587 C600 0.930 . S
H588 C601 0.930 . S
H589 C605 0.959 . S
H590 C605 0.959 . S
H591 C605 0.961 . S
H592 C606 0.960 . S
H593 C606 0.961 . S
H594 C606 0.959 . S
H595 C609 0.929 . S
H596 C610 0.931 . S
H597 C612 0.930 . S
C598 H586 0.930 . S
C598 C599 1.399 . S
C598 C603 1.399 1_655 S
C599 C598 1.399 . S
C599 C600 1.376 . S
C600 H587 0.930 . S
C600 C599 1.376 . S
C600 C601 1.388 1_655 S
C601 H588 0.930 . S
C601 C600 1.388 1_455 S
C601 C602 1.390 . S
C602 C601 1.390 . S
C602 C603 1.394 . S
C602 C608 1.465 . S
C603 C598 1.399 1_455 S
C603 C602 1.394 . S
C603 C604 1.516 . S
C604 C603 1.516 . S
C604 C605 1.502 . S
C604 C606 1.561 . S
C604 C607 1.526 . S
C605 H589 0.959 . S
C605 H590 0.959 . S
C605 H591 0.961 . S
C605 C604 1.502 . S
C606 H592 0.960 . S
C606 H593 0.961 . S
C606 H594 0.959 . S
C606 C604 1.561 . S
C607 C604 1.526 . S
C607 C608 1.396 . S
C607 C612 1.390 . S
C608 C602 1.465 . S
C608 C607 1.396 . S
C608 C609 1.399 . S
C609 H595 0.929 . S
C609 C608 1.399 . S
C609 C610 1.385 . S
C610 H596 0.931 . S
C610 C609 1.385 . S
C610 C611 1.389 . S
C611 C610 1.389 . S
C611 C612 1.387 . S
C612 H597 0.930 . S
C612 C607 1.390 . S
C612 C611 1.387 . S
H613 C625 0.930 . S
H614 C627 0.930 . S
H615 C628 0.930 . S
H616 C632 0.959 . S
H617 C632 0.959 . S
H618 C632 0.961 . S
H619 C633 0.960 . S
H620 C633 0.961 . S
H621 C633 0.959 . S
H622 C636 0.929 . S
H623 C637 0.931 . S
H624 C639 0.930 . S
C625 H613 0.930 . S
C625 C626 1.399 . S
C625 C630 1.399 . S
C626 C625 1.399 . S
C626 C627 1.376 1_554 S
C627 H614 0.930 . S
C627 C626 1.376 1_556 S
C627 C628 1.388 . S
C628 H615 0.930 . S
C628 C627 1.388 . S
C628 C629 1.390 . S
C629 C628 1.390 . S
C629 C630 1.394 1_556 S
C629 C635 1.465 . S
C630 C625 1.399 . S
C630 C629 1.394 1_554 S
C630 C631 1.516 . S
C631 C630 1.516 . S
C631 C632 1.502 . S
C631 C633 1.561 . S
C631 C634 1.526 . S
C632 H616 0.959 . S
C632 H617 0.959 . S
C632 H618 0.961 . S
C632 C631 1.502 . S
C633 H619 0.960 . S
C633 H620 0.961 . S
C633 H621 0.959 . S
C633 C631 1.561 . S
C634 C631 1.526 . S
C634 C635 1.396 1_554 S
C634 C639 1.390 . S
C635 C629 1.465 . S
C635 C634 1.396 1_556 S
C635 C636 1.399 . S
C636 H622 0.929 . S
C636 C635 1.399 . S
C636 C637 1.385 . S
C637 H623 0.931 . S
C637 C636 1.385 . S
C637 C638 1.389 1_556 S
C638 C637 1.389 1_554 S
C638 C639 1.387 . S
C639 H624 0.930 . S
C639 C634 1.390 . S
C639 C638 1.387 . S
H640 C652 0.930 . S
H641 C654 0.930 . S
H642 C655 0.930 . S
H643 C659 0.959 . S
H644 C659 0.959 . S
H645 C659 0.961 . S
H646 C660 0.960 . S
H647 C660 0.961 . S
H648 C660 0.959 . S
H649 C663 0.929 . S
H650 C664 0.931 . S
H651 C666 0.930 . S
C652 H640 0.930 . S
C652 C653 1.399 . S
C652 C657 1.399 . S
C653 C652 1.399 . S
C653 C654 1.376 . S
C654 H641 0.930 . S
C654 C653 1.376 . S
C654 C655 1.388 . S
C655 H642 0.930 . S
C655 C654 1.388 . S
C655 C656 1.390 . S
C656 C655 1.390 . S
C656 C657 1.394 . S
C656 C662 1.465 . S
C657 C652 1.399 . S
C657 C656 1.394 . S
C657 C658 1.516 . S
C658 C657 1.516 . S
C658 C659 1.502 . S
C658 C660 1.561 . S
C658 C661 1.526 . S
C659 H643 0.959 . S
C659 H644 0.959 . S
C659 H645 0.961 . S
C659 C658 1.502 . S
C660 H646 0.960 . S
C660 H647 0.961 . S
C660 H648 0.959 . S
C660 C658 1.561 . S
C661 C658 1.526 . S
C661 C662 1.396 . S
C661 C666 1.390 . S
C662 C656 1.465 . S
C662 C661 1.396 . S
C662 C663 1.399 . S
C663 H649 0.929 . S
C663 C662 1.399 . S
C663 C664 1.385 . S
C664 H650 0.931 . S
C664 C663 1.385 . S
C664 C665 1.389 . S
C665 C664 1.389 . S
C665 C666 1.387 . S
C666 H651 0.930 . S
C666 C661 1.390 . S
C666 C665 1.387 . S
H667 C679 0.930 . S
H668 C681 0.930 . S
H669 C682 0.930 . S
H670 C686 0.959 . S
H671 C686 0.959 . S
H672 C686 0.961 . S
H673 C687 0.960 . S
H674 C687 0.961 . S
H675 C687 0.959 . S
H676 C690 0.929 . S
H677 C691 0.931 . S
H678 C693 0.930 . S
C679 H667 0.930 . S
C679 C680 1.399 . S
C679 C684 1.399 . S
C680 C679 1.399 . S
C680 C681 1.376 . S
C681 H668 0.930 . S
C681 C680 1.376 . S
C681 C682 1.388 . S
C682 H669 0.930 . S
C682 C681 1.388 . S
C682 C683 1.390 . S
C683 C682 1.390 . S
C683 C684 1.394 . S
C683 C689 1.465 . S
C684 C679 1.399 . S
C684 C683 1.394 . S
C684 C685 1.516 . S
C685 C684 1.516 . S
C685 C686 1.502 . S
C685 C687 1.561 . S
C685 C688 1.526 . S
C686 H670 0.959 . S
C686 H671 0.959 . S
C686 H672 0.961 . S
C686 C685 1.502 . S
C687 H673 0.960 . S
C687 H674 0.961 . S
C687 H675 0.959 . S
C687 C685 1.561 . S
C688 C685 1.526 . S
C688 C689 1.396 . S
C688 C693 1.390 . S
C689 C683 1.465 . S
C689 C688 1.396 . S
C689 C690 1.399 . S
C690 H676 0.929 . S
C690 C689 1.399 . S
C690 C691 1.385 . S
C691 H677 0.931 . S
C691 C690 1.385 . S
C691 C692 1.389 . S
C692 C691 1.389 . S
C692 C693 1.387 . S
C693 H678 0.930 . S
C693 C688 1.390 . S
C693 C692 1.387 . S
H694 C706 0.930 . S
H695 C708 0.930 . S
H696 C709 0.930 . S
H697 C713 0.959 . S
H698 C713 0.959 . S
H699 C713 0.961 . S
H700 C714 0.960 . S
H701 C714 0.961 . S
H702 C714 0.959 . S
H703 C717 0.929 . S
H704 C718 0.931 1_655 S
H705 C720 0.930 . S
C706 H694 0.930 . S
C706 C707 1.399 . S
C706 C711 1.399 . S
C707 C706 1.399 . S
C707 C708 1.376 . S
C708 H695 0.930 . S
C708 C707 1.376 . S
C708 C709 1.388 . S
C709 H696 0.930 . S
C709 C708 1.388 . S
C709 C710 1.390 . S
C710 C709 1.390 . S
C710 C711 1.394 . S
C710 C716 1.465 . S
C711 C706 1.399 . S
C711 C710 1.394 . S
C711 C712 1.516 . S
C712 C711 1.516 . S
C712 C713 1.502 . S
C712 C714 1.561 . S
C712 C715 1.526 . S
C713 H697 0.959 . S
C713 H698 0.959 . S
C713 H699 0.961 . S
C713 C712 1.502 . S
C714 H700 0.960 . S
C714 H701 0.961 . S
C714 H702 0.959 . S
C714 C712 1.561 . S
C715 C712 1.526 . S
C715 C716 1.396 . S
C715 C720 1.390 . S
C716 C710 1.465 . S
C716 C715 1.396 . S
C716 C717 1.399 . S
C717 H703 0.929 . S
C717 C716 1.399 . S
C717 C718 1.385 . S
C718 H704 0.931 1_455 S
C718 C717 1.385 . S
C718 C719 1.389 1_455 S
C719 C718 1.389 1_655 S
C719 C720 1.387 1_655 S
C720 H705 0.930 . S
C720 C715 1.390 . S
C720 C719 1.387 1_455 S
H721 C733 0.930 1_655 S
H722 C735 0.930 . S
H723 C736 0.930 1_554 S
H724 C740 0.959 . S
H725 C740 0.959 . S
H726 C740 0.961 . S
H727 C741 0.960 . S
H728 C741 0.961 . S
H729 C741 0.959 . S
H730 C744 0.929 1_554 S
H731 C745 0.931 1_554 S
H732 C747 0.930 . S
C733 H721 0.930 1_455 S
C733 C734 1.399 . S
C733 C738 1.399 . S
C734 C733 1.399 . S
C734 C735 1.376 . S
C735 H722 0.930 . S
C735 C734 1.376 . S
C735 C736 1.388 . S
C736 H723 0.930 1_556 S
C736 C735 1.388 . S
C736 C737 1.390 . S
C737 C736 1.390 . S
C737 C738 1.394 . S
C737 C743 1.465 . S
C738 C733 1.399 . S
C738 C737 1.394 . S
C738 C739 1.516 1_455 S
C739 C738 1.516 1_655 S
C739 C740 1.502 . S
C739 C741 1.561 1_655 S
C739 C742 1.526 . S
C740 H724 0.959 . S
C740 H725 0.959 . S
C740 H726 0.961 . S
C740 C739 1.502 . S
C741 H727 0.960 . S
C741 H728 0.961 . S
C741 H729 0.959 . S
C741 C739 1.561 1_455 S
C742 C739 1.526 . S
C742 C743 1.396 1_655 S
C742 C747 1.390 . S
C743 C737 1.465 . S
C743 C742 1.396 1_455 S
C743 C744 1.399 . S
C744 H730 0.929 1_556 S
C744 C743 1.399 . S
C744 C745 1.385 . S
C745 H731 0.931 1_556 S
C745 C744 1.385 . S
C745 C746 1.389 1_455 S
C746 C745 1.389 1_655 S
C746 C747 1.387 . S
C747 H732 0.930 . S
C747 C742 1.390 . S
C747 C746 1.387 . S
H748 C760 0.930 . S
H749 C762 0.930 . S
H750 C763 0.930 . S
H751 C767 0.959 . S
H752 C767 0.959 . S
H753 C767 0.961 . S
H754 C768 0.960 . S
H755 C768 0.961 . S
H756 C768 0.959 . S
H757 C771 0.929 . S
H758 C772 0.931 . S
H759 C774 0.930 . S
C760 H748 0.930 . S
C760 C761 1.399 . S
C760 C765 1.399 . S
C761 C760 1.399 . S
C761 C762 1.376 . S
C762 H749 0.930 . S
C762 C761 1.376 . S
C762 C763 1.388 . S
C763 H750 0.930 . S
C763 C762 1.388 . S
C763 C764 1.390 . S
C764 C763 1.390 . S
C764 C765 1.394 . S
C764 C770 1.465 . S
C765 C760 1.399 . S
C765 C764 1.394 . S
C765 C766 1.516 . S
C766 C765 1.516 . S
C766 C767 1.502 . S
C766 C768 1.561 . S
C766 C769 1.526 . S
C767 H751 0.959 . S
C767 H752 0.959 . S
C767 H753 0.961 . S
C767 C766 1.502 . S
C768 H754 0.960 . S
C768 H755 0.961 . S
C768 H756 0.959 . S
C768 C766 1.561 . S
C769 C766 1.526 . S
C769 C770 1.396 . S
C769 C774 1.390 . S
C770 C764 1.465 . S
C770 C769 1.396 . S
C770 C771 1.399 . S
C771 H757 0.929 . S
C771 C770 1.399 . S
C771 C772 1.385 . S
C772 H758 0.931 . S
C772 C771 1.385 . S
C772 C773 1.389 . S
C773 C772 1.389 . S
C773 C774 1.387 . S
C774 H759 0.930 . S
C774 C769 1.390 . S
C774 C773 1.387 . S
H775 C787 0.930 . S
H776 C789 0.930 . S
H777 C790 0.930 . S
H778 C794 0.959 . S
H779 C794 0.959 . S
H780 C794 0.961 . S
H781 C795 0.960 . S
H782 C795 0.961 1_565 S
H783 C795 0.959 . S
H784 C798 0.929 1_545 S
H785 C799 0.931 . S
H786 C801 0.930 . S
C787 H775 0.930 . S
C787 C788 1.399 . S
C787 C792 1.399 . S
C788 C787 1.399 . S
C788 C789 1.376 . S
C789 H776 0.930 . S
C789 C788 1.376 . S
C789 C790 1.388 . S
C790 H777 0.930 . S
C790 C789 1.388 . S
C790 C791 1.390 . S
C791 C790 1.390 . S
C791 C792 1.394 . S
C791 C797 1.465 . S
C792 C787 1.399 . S
C792 C791 1.394 . S
C792 C793 1.516 . S
C793 C792 1.516 . S
C793 C794 1.502 . S
C793 C795 1.561 . S
C793 C796 1.526 1_545 S
C794 H778 0.959 . S
C794 H779 0.959 . S
C794 H780 0.961 . S
C794 C793 1.502 . S
C795 H781 0.960 . S
C795 H782 0.961 1_545 S
C795 H783 0.959 . S
C795 C793 1.561 . S
C796 C793 1.526 1_565 S
C796 C797 1.396 1_565 S
C796 C801 1.390 . S
C797 C791 1.465 . S
C797 C796 1.396 1_545 S
C797 C798 1.399 1_545 S
C798 H784 0.929 1_565 S
C798 C797 1.399 1_565 S
C798 C799 1.385 . S
C799 H785 0.931 . S
C799 C798 1.385 . S
C799 C800 1.389 . S
C800 C799 1.389 . S
C800 C801 1.387 . S
C801 H786 0.930 . S
C801 C796 1.390 . S
C801 C800 1.387 . S
H802 C814 0.930 . S
H803 C816 0.930 . S
H804 C817 0.930 . S
H805 C821 0.959 . S
H806 C821 0.959 . S
H807 C821 0.961 . S
H808 C822 0.960 . S
H809 C822 0.961 . S
H810 C822 0.959 . S
H811 C825 0.929 . S
H812 C826 0.931 . S
H813 C828 0.930 . S
C814 H802 0.930 . S
C814 C815 1.399 . S
C814 C819 1.399 . S
C815 C814 1.399 . S
C815 C816 1.376 1_554 S
C816 H803 0.930 . S
C816 C815 1.376 1_556 S
C816 C817 1.388 . S
C817 H804 0.930 . S
C817 C816 1.388 . S
C817 C818 1.390 . S
C818 C817 1.390 . S
C818 C819 1.394 1_556 S
C818 C824 1.465 . S
C819 C814 1.399 . S
C819 C818 1.394 1_554 S
C819 C820 1.516 . S
C820 C819 1.516 . S
C820 C821 1.502 . S
C820 C822 1.561 . S
C820 C823 1.526 . S
C821 H805 0.959 . S
C821 H806 0.959 . S
C821 H807 0.961 . S
C821 C820 1.502 . S
C822 H808 0.960 . S
C822 H809 0.961 . S
C822 H810 0.959 . S
C822 C820 1.561 . S
C823 C820 1.526 . S
C823 C824 1.396 1_554 S
C823 C828 1.390 . S
C824 C818 1.465 . S
C824 C823 1.396 1_556 S
C824 C825 1.399 . S
C825 H811 0.929 . S
C825 C824 1.399 . S
C825 C826 1.385 . S
C826 H812 0.931 . S
C826 C825 1.385 . S
C826 C827 1.389 . S
C827 C826 1.389 . S
C827 C828 1.387 1_556 S
C828 H813 0.930 . S
C828 C823 1.390 . S
C828 C827 1.387 1_554 S
H829 C841 0.930 . S
H830 C843 0.930 . S
H831 C844 0.930 . S
H832 C848 0.959 . S
H833 C848 0.959 . S
H834 C848 0.961 . S
H835 C849 0.960 . S
H836 C849 0.961 . S
H837 C849 0.959 . S
H838 C852 0.929 . S
H839 C853 0.931 . S
H840 C855 0.930 . S
C841 H829 0.930 . S
C841 C842 1.399 . S
C841 C846 1.399 . S
C842 C841 1.399 . S
C842 C843 1.376 . S
C843 H830 0.930 . S
C843 C842 1.376 . S
C843 C844 1.388 . S
C844 H831 0.930 . S
C844 C843 1.388 . S
C844 C845 1.390 . S
C845 C844 1.390 . S
C845 C846 1.394 . S
C845 C851 1.465 . S
C846 C841 1.399 . S
C846 C845 1.394 . S
C846 C847 1.516 . S
C847 C846 1.516 . S
C847 C848 1.502 . S
C847 C849 1.561 . S
C847 C850 1.526 . S
C848 H832 0.959 . S
C848 H833 0.959 . S
C848 H834 0.961 . S
C848 C847 1.502 . S
C849 H835 0.960 . S
C849 H836 0.961 . S
C849 H837 0.959 . S
C849 C847 1.561 . S
C850 C847 1.526 . S
C850 C851 1.396 . S
C850 C855 1.390 1_545 S
C851 C845 1.465 . S
C851 C850 1.396 . S
C851 C852 1.399 1_545 S
C852 H838 0.929 . S
C852 C851 1.399 1_565 S
C852 C853 1.385 . S
C853 H839 0.931 . S
C853 C852 1.385 . S
C853 C854 1.389 . S
C854 C853 1.389 . S
C854 C855 1.387 . S
C855 H840 0.930 . S
C855 C850 1.390 1_565 S
C855 C854 1.387 . S
H856 C868 0.930 . S
H857 C870 0.930 . S
H858 C871 0.930 . S
H859 C875 0.959 1_554 S
H860 C875 0.959 . S
H861 C875 0.961 . S
H862 C876 0.960 . S
H863 C876 0.961 . S
H864 C876 0.959 . S
H865 C879 0.929 . S
H866 C880 0.931 . S
H867 C882 0.930 . S
C868 H856 0.930 . S
C868 C869 1.399 1_545 S
C868 C873 1.399 . S
C869 C868 1.399 1_565 S
C869 C870 1.376 . S
C870 H857 0.930 . S
C870 C869 1.376 . S
C870 C871 1.388 . S
C871 H858 0.930 . S
C871 C870 1.388 . S
C871 C872 1.390 . S
C872 C871 1.390 . S
C872 C873 1.394 1_565 S
C872 C878 1.465 . S
C873 C868 1.399 . S
C873 C872 1.394 1_545 S
C873 C874 1.516 . S
C874 C873 1.516 . S
C874 C875 1.502 . S
C874 C876 1.561 . S
C874 C877 1.526 . S
C875 H859 0.959 1_556 S
C875 H860 0.959 . S
C875 H861 0.961 . S
C875 C874 1.502 . S
C876 H862 0.960 . S
C876 H863 0.961 . S
C876 H864 0.959 . S
C876 C874 1.561 . S
C877 C874 1.526 . S
C877 C878 1.396 1_545 S
C877 C882 1.390 . S
C878 C872 1.465 . S
C878 C877 1.396 1_565 S
C878 C879 1.399 . S
C879 H865 0.929 . S
C879 C878 1.399 . S
C879 C880 1.385 . S
C880 H866 0.931 . S
C880 C879 1.385 . S
C880 C881 1.389 . S
C881 C880 1.389 . S
C881 C882 1.387 1_565 S
C882 H867 0.930 . S
C882 C877 1.390 . S
C882 C881 1.387 1_545 S
H883 C895 0.930 . S
H884 C897 0.930 . S
H885 C898 0.930 . S
H886 C902 0.959 . S
H887 C902 0.959 . S
H888 C902 0.961 . S
H889 C903 0.960 . S
H890 C903 0.961 . S
H891 C903 0.959 . S
H892 C906 0.929 . S
H893 C907 0.931 . S
H894 C909 0.930 . S
C895 H883 0.930 . S
C895 C896 1.399 . S
C895 C900 1.399 . S
C896 C895 1.399 . S
C896 C897 1.376 . S
C897 H884 0.930 . S
C897 C896 1.376 . S
C897 C898 1.388 . S
C898 H885 0.930 . S
C898 C897 1.388 . S
C898 C899 1.390 . S
C899 C898 1.390 . S
C899 C900 1.394 . S
C899 C905 1.465 . S
C900 C895 1.399 . S
C900 C899 1.394 . S
C900 C901 1.516 . S
C901 C900 1.516 . S
C901 C902 1.502 . S
C901 C903 1.561 . S
C901 C904 1.526 . S
C902 H886 0.959 . S
C902 H887 0.959 . S
C902 H888 0.961 . S
C902 C901 1.502 . S
C903 H889 0.960 . S
C903 H890 0.961 . S
C903 H891 0.959 . S
C903 C901 1.561 . S
C904 C901 1.526 . S
C904 C905 1.396 . S
C904 C909 1.390 . S
C905 C899 1.465 . S
C905 C904 1.396 . S
C905 C906 1.399 . S
C906 H892 0.929 . S
C906 C905 1.399 . S
C906 C907 1.385 . S
C907 H893 0.931 . S
C907 C906 1.385 . S
C907 C908 1.389 . S
C908 C907 1.389 . S
C908 C909 1.387 . S
C909 H894 0.930 . S
C909 C904 1.390 . S
C909 C908 1.387 . S
H910 C922 0.930 . S
H911 C924 0.930 . S
H912 C925 0.930 . S
H913 C929 0.959 . S
H914 C929 0.959 . S
H915 C929 0.961 . S
H916 C930 0.960 . S
H917 C930 0.961 . S
H918 C930 0.959 . S
H919 C933 0.929 . S
H920 C934 0.931 . S
H921 C936 0.930 . S
C922 H910 0.930 . S
C922 C923 1.399 . S
C922 C927 1.399 . S
C923 C922 1.399 . S
C923 C924 1.376 . S
C924 H911 0.930 . S
C924 C923 1.376 . S
C924 C925 1.388 . S
C925 H912 0.930 . S
C925 C924 1.388 . S
C925 C926 1.390 . S
C926 C925 1.390 . S
C926 C927 1.394 . S
C926 C932 1.465 . S
C927 C922 1.399 . S
C927 C926 1.394 . S
C927 C928 1.516 . S
C928 C927 1.516 . S
C928 C929 1.502 . S
C928 C930 1.561 . S
C928 C931 1.526 . S
C929 H913 0.959 . S
C929 H914 0.959 . S
C929 H915 0.961 . S
C929 C928 1.502 . S
C930 H916 0.960 . S
C930 H917 0.961 . S
C930 H918 0.959 . S
C930 C928 1.561 . S
C931 C928 1.526 . S
C931 C932 1.396 . S
C931 C936 1.390 . S
C932 C926 1.465 . S
C932 C931 1.396 . S
C932 C933 1.399 . S
C933 H919 0.929 . S
C933 C932 1.399 . S
C933 C934 1.385 . S
C934 H920 0.931 . S
C934 C933 1.385 . S
C934 C935 1.389 . S
C935 C934 1.389 . S
C935 C936 1.387 . S
C936 H921 0.930 . S
C936 C931 1.390 . S
C936 C935 1.387 . S
H937 C949 0.930 . S
H938 C951 0.930 . S
H939 C952 0.930 . S
H940 C956 0.959 . S
H941 C956 0.959 . S
H942 C956 0.961 . S
H943 C957 0.960 . S
H944 C957 0.961 . S
H945 C957 0.959 . S
H946 C960 0.929 . S
H947 C961 0.931 . S
H948 C963 0.930 . S
C949 H937 0.930 . S
C949 C950 1.399 . S
C949 C954 1.399 . S
C950 C949 1.399 . S
C950 C951 1.376 . S
C951 H938 0.930 . S
C951 C950 1.376 . S
C951 C952 1.388 . S
C952 H939 0.930 . S
C952 C951 1.388 . S
C952 C953 1.407 . S
C953 C952 1.407 . S
C953 C954 1.402 . S
C953 C959 1.439 1_556 S
C954 C949 1.399 . S
C954 C953 1.402 . S
C954 C955 1.516 1_556 S
C955 C954 1.516 1_554 S
C955 C956 1.502 . S
C955 C957 1.561 . S
C955 C958 1.526 . S
C956 H940 0.959 . S
C956 H941 0.959 . S
C956 H942 0.961 . S
C956 C955 1.502 . S
C957 H943 0.960 . S
C957 H944 0.961 . S
C957 H945 0.959 . S
C957 C955 1.561 . S
C958 C955 1.526 . S
C958 C959 1.396 . S
C958 C963 1.390 . S
C959 C953 1.439 1_554 S
C959 C958 1.396 . S
C959 C960 1.399 . S
C960 H946 0.929 . S
C960 C959 1.399 . S
C960 C961 1.385 . S
C961 H947 0.931 . S
C961 C960 1.385 . S
C961 C962 1.389 . S
C962 C961 1.389 . S
C962 C963 1.387 . S
C963 H948 0.930 . S
C963 C958 1.390 . S
C963 C962 1.387 . S
H964 C976 0.930 . S
H965 C978 0.930 . S
H966 C979 0.930 . S
H967 C983 0.959 . S
H968 C983 0.959 . S
H969 C983 0.961 . S
H970 C984 0.960 . S
H971 C984 0.961 . S
H972 C984 0.959 . S
H973 C987 0.929 . S
H974 C988 0.931 . S
H975 C990 0.930 . S
C976 H964 0.930 . S
C976 C977 1.399 . S
C976 C981 1.399 . S
C977 C976 1.399 . S
C977 C978 1.376 . S
C978 H965 0.930 . S
C978 C977 1.376 . S
C978 C979 1.388 . S
C979 H966 0.930 . S
C979 C978 1.388 . S
C979 C980 1.390 . S
C980 C979 1.390 . S
C980 C981 1.394 . S
C980 C986 1.465 . S
C981 C976 1.399 . S
C981 C980 1.394 . S
C981 C982 1.516 . S
C982 C981 1.516 . S
C982 C983 1.502 . S
C982 C984 1.561 . S
C982 C985 1.526 . S
C983 H967 0.959 . S
C983 H968 0.959 . S
C983 H969 0.961 . S
C983 C982 1.502 . S
C984 H970 0.960 . S
C984 H971 0.961 . S
C984 H972 0.959 . S
C984 C982 1.561 . S
C985 C982 1.526 . S
C985 C986 1.396 . S
C985 C990 1.390 . S
C986 C980 1.465 . S
C986 C985 1.396 . S
C986 C987 1.399 . S
C987 H973 0.929 . S
C987 C986 1.399 . S
C987 C988 1.385 . S
C988 H974 0.931 . S
C988 C987 1.385 . S
C988 C989 1.389 . S
C989 C988 1.389 . S
C989 C990 1.387 . S
C990 H975 0.930 . S
C990 C985 1.390 . S
C990 C989 1.387 . S
H991 C1003 0.930 . S
H992 C1005 0.930 . S
H993 C1006 0.930 . S
H994 C1010 0.959 . S
H995 C1010 0.959 . S
H996 C1010 0.961 . S
H997 C1011 0.960 . S
H998 C1011 0.961 . S
H999 C1011 0.959 . S
H1000 C1014 0.929 . S
H1001 C1015 0.931 . S
H1002 C1017 0.930 . S
C1003 H991 0.930 . S
C1003 C1004 1.399 . S
C1003 C1008 1.399 . S
C1004 C1003 1.399 . S
C1004 C1005 1.376 . S
C1005 H992 0.930 . S
C1005 C1004 1.376 . S
C1005 C1006 1.388 . S
C1006 H993 0.930 . S
C1006 C1005 1.388 . S
C1006 C1007 1.390 . S
C1007 C1006 1.390 . S
C1007 C1008 1.394 . S
C1007 C1013 1.465 . S
C1008 C1003 1.399 . S
C1008 C1007 1.394 . S
C1008 C1009 1.516 . S
C1009 C1008 1.516 . S
C1009 C1010 1.502 . S
C1009 C1011 1.561 . S
C1009 C1012 1.526 . S
C1010 H994 0.959 . S
C1010 H995 0.959 . S
C1010 H996 0.961 . S
C1010 C1009 1.502 . S
C1011 H997 0.960 . S
C1011 H998 0.961 . S
C1011 H999 0.959 . S
C1011 C1009 1.561 . S
C1012 C1009 1.526 . S
C1012 C1013 1.396 . S
C1012 C1017 1.390 . S
C1013 C1007 1.465 . S
C1013 C1012 1.396 . S
C1013 C1014 1.399 . S
C1014 H1000 0.929 . S
C1014 C1013 1.399 . S
C1014 C1015 1.385 . S
C1015 H1001 0.931 . S
C1015 C1014 1.385 . S
C1015 C1016 1.389 . S
C1016 C1015 1.389 . S
C1016 C1017 1.387 . S
C1017 H1002 0.930 . S
C1017 C1012 1.390 . S
C1017 C1016 1.387 . S
H1018 C1030 0.930 . S
H1019 C1032 0.930 . S
H1020 C1033 0.930 . S
H1021 C1037 0.959 . S
H1022 C1037 0.959 . S
H1023 C1037 0.961 . S
H1024 C1038 0.960 . S
H1025 C1038 0.961 . S
H1026 C1038 0.959 . S
H1027 C1041 0.929 . S
H1028 C1042 0.931 . S
H1029 C1044 0.930 . S
C1030 H1018 0.930 . S
C1030 C1031 1.399 . S
C1030 C1035 1.399 . S
C1031 C1030 1.399 . S
C1031 C1032 1.376 . S
C1032 H1019 0.930 . S
C1032 C1031 1.376 . S
C1032 C1033 1.388 . S
C1033 H1020 0.930 . S
C1033 C1032 1.388 . S
C1033 C1034 1.390 . S
C1034 C1033 1.390 . S
C1034 C1035 1.394 . S
C1034 C1040 1.465 . S
C1035 C1030 1.399 . S
C1035 C1034 1.394 . S
C1035 C1036 1.516 . S
C1036 C1035 1.516 . S
C1036 C1037 1.502 1_655 S
C1036 C1038 1.561 . S
C1036 C1039 1.526 . S
C1037 H1021 0.959 . S
C1037 H1022 0.959 . S
C1037 H1023 0.961 . S
C1037 C1036 1.502 1_455 S
C1038 H1024 0.960 . S
C1038 H1025 0.961 . S
C1038 H1026 0.959 . S
C1038 C1036 1.561 . S
C1039 C1036 1.526 . S
C1039 C1040 1.396 . S
C1039 C1044 1.390 . S
C1040 C1034 1.465 . S
C1040 C1039 1.396 . S
C1040 C1041 1.399 . S
C1041 H1027 0.929 . S
C1041 C1040 1.399 . S
C1041 C1042 1.385 . S
C1042 H1028 0.931 . S
C1042 C1041 1.385 . S
C1042 C1043 1.389 . S
C1043 C1042 1.389 . S
C1043 C1044 1.387 . S
C1044 H1029 0.930 . S
C1044 C1039 1.390 . S
C1044 C1043 1.387 . S
H1045 C1057 0.930 . S
H1046 C1059 0.930 . S
H1047 C1060 0.930 . S
H1048 C1064 0.959 . S
H1049 C1064 0.959 . S
H1050 C1064 0.961 . S
H1051 C1065 0.960 . S
H1052 C1065 0.961 . S
H1053 C1065 0.959 . S
H1054 C1068 0.929 . S
H1055 C1069 0.931 . S
H1056 C1071 0.919 1_565 S
C1057 H1045 0.930 . S
C1057 C1058 1.399 1_565 S
C1057 C1062 1.397 1_565 S
C1058 C1057 1.399 1_545 S
C1058 C1059 1.376 . S
C1059 H1046 0.930 . S
C1059 C1058 1.376 . S
C1059 C1060 1.388 . S
C1060 H1047 0.930 . S
C1060 C1059 1.388 . S
C1060 C1061 1.390 . S
C1061 C1060 1.390 . S
C1061 C1062 1.397 . S
C1061 C1067 1.465 . S
C1062 C1057 1.397 1_545 S
C1062 C1061 1.397 . S
C1062 C1063 1.515 1_545 S
C1063 C1062 1.515 1_565 S
C1063 C1064 1.502 . S
C1063 C1065 1.561 1_565 S
C1063 C1066 1.526 1_565 S
C1064 H1048 0.959 . S
C1064 H1049 0.959 . S
C1064 H1050 0.961 . S
C1064 C1063 1.502 . S
C1065 H1051 0.960 . S
C1065 H1052 0.961 . S
C1065 H1053 0.959 . S
C1065 C1063 1.561 1_545 S
C1066 C1063 1.526 1_545 S
C1066 C1067 1.396 . S
C1066 C1071 1.389 . S
C1067 C1061 1.465 . S
C1067 C1066 1.396 . S
C1067 C1068 1.399 . S
C1068 H1054 0.929 . S
C1068 C1067 1.399 . S
C1068 C1069 1.385 . S
C1069 H1055 0.931 . S
C1069 C1068 1.385 . S
C1069 C1070 1.389 . S
C1070 C1069 1.389 . S
C1070 C1071 1.399 . S
C1071 H1056 0.919 1_545 S
C1071 C1066 1.389 . S
C1071 C1070 1.399 . S
C221 C10 1.935 . S
C233 C95 1.937 1_554 S
C248 C17 1.915 . S
C260 C56 1.915 . S
C275 C75 1.961 . S
C287 C30 1.964 . S
C302 C49 1.947 . S
C314 C88 1.919 . S
C329 C114 1.872 . S
C341 C166 1.894 . S
C356 C121 1.971 1_554 S
C368 C186 1.973 . S
C383 C147 1.963 . S
C395 C140 1.929 . S
C410 C205 1.819 . S
C422 C173 1.822 . S
C437 C3 1.335 . S
C449 C81 1.328 . S
C464 C94 0.865 . S
C476 C23 0.817 . S
C491 C31 1.692 . S
C503 C55 1.704 . S
C518 C70 1.022 . S
C530 C44 1.056 . S
C545 C4 1.605 . S
C557 C192 1.586 . S
C572 C148 1.716 . S
C584 C16 1.723 . S
C599 C179 1.480 . S
C611 C36 1.535 . S
C626 C161 1.703 . S
C638 C42 1.657 . S
C653 C134 1.175 . S
C665 C57 1.236 . S
C680 C68 1.347 . S
C692 C198 1.274 . S
C707 C82 1.097 . S
C719 C107 1.155 . S
C734 C96 1.288 . S
C746 C122 1.313 . S
C761 C5 0.802 . S
C773 C62 0.803 . S
C788 C108 0.912 . S
C800 C172 0.844 . S
C815 C159 1.008 . S
C827 C127 0.946 . S
C842 C185 1.086 . S
C854 C135 0.985 . S
C869 C101 1.347 . S
C881 C43 1.346 . S
C896 C29 1.127 . S
C908 C83 1.134 . S
C923 C153 1.558 . S
C935 C199 1.513 . S
C950 C174 1.309 . S
C962 C133 1.307 . S
C977 C200 0.762 . S
C989 C160 0.763 . S
C1004 C187 1.724 . S
C1016 C109 1.714 . S
C1031 C146 1.068 . S
C1043 C120 1.089 . S
C1058 C18 1.184 . S
C1070 C69 1.124 . S
