# Generated by pormake.
# Topology sml, (6)-cn, num edge types: 1
# Building blocks:
#     Node 0, Type 0, BuildingBlock: NUHQIS_clean_sbu_0, # of connection points: 6
#     Node 1, Type 0, BuildingBlock: NUHQIS_clean_sbu_0, # of connection points: 6
#     Node 2, Type 0, BuildingBlock: NUHQIS_clean_sbu_0, # of connection points: 6
#     Node 3, Type 0, BuildingBlock: NUHQIS_clean_sbu_0, # of connection points: 6
#     Node 4, Type 0, BuildingBlock: NUHQIS_clean_sbu_0, # of connection points: 6
#     Node 5, Type 0, BuildingBlock: NUHQIS_clean_sbu_0, # of connection points: 6
#     Edge 6, Type (0, 0), BuildingBlock: FUNLAD_clean_linker_0, # of connection points: 2
#     Edge 7, Type (0, 0), BuildingBlock: FUNLAD_clean_linker_0, # of connection points: 2
#     Edge 8, Type (0, 0), BuildingBlock: FUNLAD_clean_linker_0, # of connection points: 2
#     Edge 9, Type (0, 0), BuildingBlock: FUNLAD_clean_linker_0, # of connection points: 2
#     Edge 10, Type (0, 0), BuildingBlock: FUNLAD_clean_linker_0, # of connection points: 2
#     Edge 11, Type (0, 0), BuildingBlock: FUNLAD_clean_linker_0, # of connection points: 2
#     Edge 12, Type (0, 0), BuildingBlock: FUNLAD_clean_linker_0, # of connection points: 2
#     Edge 13, Type (0, 0), BuildingBlock: FUNLAD_clean_linker_0, # of connection points: 2
#     Edge 14, Type (0, 0), BuildingBlock: FUNLAD_clean_linker_0, # of connection points: 2
#     Edge 15, Type (0, 0), BuildingBlock: FUNLAD_clean_linker_0, # of connection points: 2
#     Edge 16, Type (0, 0), BuildingBlock: FUNLAD_clean_linker_0, # of connection points: 2
#     Edge 17, Type (0, 0), BuildingBlock: FUNLAD_clean_linker_0, # of connection points: 2
#     Edge 18, Type (0, 0), BuildingBlock: FUNLAD_clean_linker_0, # of connection points: 2
#     Edge 19, Type (0, 0), BuildingBlock: FUNLAD_clean_linker_0, # of connection points: 2
#     Edge 20, Type (0, 0), BuildingBlock: FUNLAD_clean_linker_0, # of connection points: 2
#     Edge 21, Type (0, 0), BuildingBlock: FUNLAD_clean_linker_0, # of connection points: 2
#     Edge 22, Type (0, 0), BuildingBlock: FUNLAD_clean_linker_0, # of connection points: 2
#     Edge 23, Type (0, 0), BuildingBlock: FUNLAD_clean_linker_0, # of connection points: 2
# Relax obj value: 0.153
# Max RMSD: 0.205
# Mean RMSD: 0.205
data_MOF--net-sml--node1-NUHQIS_clean_sbu_0--edge1-FUNLAD_clean_linker_0
_symmetry_space_group_name_H-M    P1
_symmetry_Int_Tables_number       1
_symmetry_cell_setting            triclinic
loop_
_symmetry_equiv_pos_as_xyz
'x, y, z'
_cell_length_a     39.064809
_cell_length_b     39.09048
_cell_length_c     27.483101
_cell_angle_alpha  90.222862
_cell_angle_beta   89.634128
_cell_angle_gamma 120.07219
loop_
_atom_site_label
_atom_site_type_symbol
_atom_site_fract_x
_atom_site_fract_y
_atom_site_fract_z
_atom_type_partial_charge
Tb0 Tb 0.18508 0.40169 0.11048 0.0
Eu1 Eu 0.12982 0.39632 0.01539 0.0
C2 C 0.16687 0.33915 0.02927 0.0
C3 C 0.22412 0.44235 1.01 0.0
C4 C 0.21085 0.40373 0.24049 0.0
C5 C 0.22966 0.40748 0.32533 0.0
C6 C 0.23853 0.40824 0.27577 0.0
C7 C 0.1739 0.39806 0.25542 0.0
C8 C 0.16495 0.39726 0.30506 0.0
C9 C 0.19285 0.40223 0.34074 0.0
C10 C 0.22091 0.40527 0.18839 0.0
O11 O 0.15468 0.43324 0.12942 0.0
O12 O 0.15038 0.4548 0.05391 0.0
O13 O 0.08929 0.37456 0.08057 0.0
O14 O 0.12551 0.35206 0.11976 0.0
C15 C 0.15228 0.45892 0.10146 0.0
O16 O 0.11827 0.42618 0.95633 0.0
O17 O 0.08117 0.36287 0.96464 0.0
O18 O 0.13628 0.34193 0.01475 0.0
O19 O 0.19383 0.36513 0.05868 0.0
O20 O 0.22614 0.44518 0.05789 0.0
O21 O 0.19109 0.41852 0.98751 0.0
C22 C 0.09299 0.35377 0.11542 0.0
O23 O 0.1998 0.37284 0.16374 0.0
O24 O 0.22572 0.43619 0.16461 0.0
C25 C 0.0954 0.38867 0.88447 0.0
C26 C 0.10662 0.38402 0.78323 0.0
C27 C 0.07391 0.38632 0.801 0.0
C28 C 0.06843 0.38868 0.8511 0.0
C29 C 0.12778 0.38584 0.86713 0.0
C30 C 0.13334 0.38355 0.81706 0.0
C31 C 0.09068 0.39347 0.93695 0.0
H32 H 0.25162 0.41073 0.35163 0.0
H33 H 0.26711 0.41245 0.26497 0.0
H34 H 0.1521 0.39455 0.22866 0.0
H35 H 0.13649 0.39354 0.31541 0.0
H36 H 0.05298 0.38723 0.77615 0.0
H37 H 0.0434 0.3911 0.86375 0.0
H38 H 0.14897 0.38579 0.89234 0.0
H39 H 0.15852 0.38123 0.80488 0.0
Tb40 Tb 0.78977 0.2099 0.47629 0.0
Eu41 Eu 0.8418 0.25847 0.57307 0.0
C42 C 0.7991 0.16365 0.56191 0.0
C43 C 0.74756 0.21664 0.57144 0.0
C44 C 0.76894 0.18665 0.34635 0.0
C45 C 0.75558 0.17255 0.26027 0.0
C46 C 0.74351 0.16387 0.30889 0.0
C47 C 0.80676 0.21807 0.33478 0.0
C48 C 0.81884 0.22683 0.28621 0.0
C49 C 0.79332 0.20428 0.24828 0.0
C50 C 0.75588 0.178 0.39734 0.0
O51 O 0.82427 0.27167 0.45663 0.0
O52 O 0.82711 0.29895 0.5311 0.0
O53 O 0.8845 0.27382 0.51053 0.0
O54 O 0.84752 0.21468 0.47204 0.0
C55 C 0.82747 0.30086 0.48343 0.0
O56 O 0.85397 0.30045 0.63202 0.0
O57 O 0.88955 0.27249 0.62438 0.0
O58 O 0.83061 0.196 0.57709 0.0
O59 O 0.77457 0.16447 0.53016 0.0
O60 O 0.74868 0.21712 0.52352 0.0
O61 O 0.77857 0.2242 0.59759 0.0
C62 C 0.88118 0.24752 0.47829 0.0
O63 O 0.77457 0.16522 0.42407 0.0
O64 O 0.75175 0.20518 0.41973 0.0
C65 C 0.87405 0.28352 0.70378 0.0
C66 C 0.85836 0.26488 0.8035 0.0
C67 C 0.89036 0.30151 0.78866 0.0
C68 C 0.89806 0.31076 0.73916 0.0
C69 C 0.84261 0.24667 0.71827 0.0
C70 C 0.83486 0.23741 0.76764 0.0
C71 C 0.8805 0.29411 0.65195 0.0
H72 H 0.7354 0.15421 0.23208 0.0
H73 H 0.71429 0.13942 0.31722 0.0
H74 H 0.8268 0.23602 0.36335 0.0
H75 H 0.84789 0.25173 0.27838 0.0
H76 H 0.90879 0.32347 0.81528 0.0
H77 H 0.92234 0.33942 0.72854 0.0
H78 H 0.82374 0.22526 0.69135 0.0
H79 H 0.81039 0.20873 0.77773 0.0
Tb80 Tb 0.56828 0.78155 0.79118 0.0
Eu81 Eu 0.57333 0.73172 0.69509 0.0
C82 C 0.62581 0.8269 0.70574 0.0
C83 C 0.52237 0.77543 0.69454 0.0
C84 C 0.5698 0.80458 0.92125 0.0
C85 C 0.57256 0.81989 1.0074 0.0
C86 C 0.56925 0.82858 0.95886 0.0
C87 C 0.57399 0.7719 0.93268 0.0
C88 C 0.57734 0.76319 0.98116 0.0
C89 C 0.5765 0.78698 0.01924 0.0
C90 C 0.56592 0.81353 0.87024 0.0
O91 O 0.54144 0.7202 0.81226 0.0
O92 O 0.51858 0.6904 0.73849 0.0
O93 O 0.60061 0.71765 0.75817 0.0
O94 O 0.62142 0.7773 0.79434 0.0
C95 C 0.51691 0.68962 0.78628 0.0
O96 O 0.5437 0.68954 0.63635 0.0
O97 O 0.60736 0.71791 0.64321 0.0
O98 O 0.62479 0.79427 0.69115 0.0
O99 O 0.60029 0.82671 0.73729 0.0
O100 O 0.52158 0.77539 0.74248 0.0
O101 O 0.54556 0.76641 0.66975 0.0
C102 C 0.62175 0.74405 0.79125 0.0
O103 O 0.59762 0.82618 0.84345 0.0
O104 O 0.53461 0.78668 0.84764 0.0
C105 C 0.58074 0.70683 0.56391 0.0
C106 C 0.58285 0.72541 0.46417 0.0
C107 C 0.57656 0.68815 0.4787 0.0
C108 C 0.57543 0.67896 0.52815 0.0
C109 C 0.58774 0.74425 0.54969 0.0
C110 C 0.58885 0.75347 0.50036 0.0
C111 C 0.57671 0.69622 0.61585 0.0
H112 H 0.57241 0.8392 0.03564 0.0
H113 H 0.56623 0.85403 0.95069 0.0
H114 H 0.57444 0.75298 0.90409 0.0
H115 H 0.57987 0.73739 0.98879 0.0
H116 H 0.57139 0.66568 0.45193 0.0
H117 H 0.56969 0.64982 0.53847 0.0
H118 H 0.5918 0.76616 0.57682 0.0
H119 H 0.59437 0.78262 0.49059 0.0
Tb120 Tb 0.76901 0.56351 0.13041 0.0
Eu121 Eu 0.72495 0.57603 0.22724 0.0
C122 C 0.81982 0.6218 0.21194 0.0
C123 C 0.76166 0.51881 0.22871 0.0
C124 C 0.7894 0.56129 1.00003 0.0
C125 C 0.80526 0.56466 0.91398 0.0
C126 C 0.81307 0.56002 0.9624 0.0
C127 C 0.75792 0.56749 0.98877 0.0
C128 C 0.7501 0.57219 0.9404 0.0
C129 C 0.77361 0.57069 0.90231 0.0
C130 C 0.79785 0.55669 0.05092 0.0
O131 O 0.70716 0.53883 0.11303 0.0
O132 O 0.68071 0.51976 0.18909 0.0
O133 O 0.71085 0.60231 0.16301 0.0
O134 O 0.76888 0.61866 0.12495 0.0
C135 C 0.67773 0.51557 0.1416 0.0
O136 O 0.6825 0.55082 0.28693 0.0
O137 O 0.71684 0.61436 0.27845 0.0
O138 O 0.78921 0.62448 0.22714 0.0
O139 O 0.81597 0.59362 0.18239 0.0
O140 O 0.7604 0.51688 0.18082 0.0
O141 O 0.75604 0.54455 0.25307 0.0
C142 C 0.73691 0.62135 0.12856 0.0
O143 O 0.8135 0.58889 0.07696 0.0
O144 O 0.7694 0.52701 0.07437 0.0
C145 C 0.70348 0.58862 0.35835 0.0
C146 C 0.72109 0.58902 0.45799 0.0
C147 C 0.68546 0.58671 0.44353 0.0
C148 C 0.67673 0.58643 0.39412 0.0
C149 C 0.73938 0.59173 0.37249 0.0
C150 C 0.74814 0.59202 0.42179 0.0
C151 C 0.69291 0.58507 0.30654 0.0
H152 H 0.82433 0.56395 0.8857 0.0
H153 H 0.83765 0.55554 0.97047 0.0
H154 H 0.73932 0.56859 0.01743 0.0
H155 H 0.72526 0.57636 0.93284 0.0
H156 H 0.66377 0.58392 0.47034 0.0
H157 H 0.64873 0.58369 0.38383 0.0
H158 H 0.76037 0.59331 0.34532 0.0
H159 H 0.77609 0.59444 0.43154 0.0
Tb160 Tb 0.21009 0.78247 0.45527 0.0
Eu161 Eu 0.24927 0.83924 0.35791 0.0
C162 C 0.15553 0.78238 0.37354 0.0
C163 C 0.22048 0.74681 0.35612 0.0
C164 C 0.19139 0.75922 0.58543 0.0
C165 C 0.17911 0.74504 0.67173 0.0
C166 C 0.17216 0.73231 0.62328 0.0
C167 C 0.21765 0.79908 0.59645 0.0
C168 C 0.22463 0.81186 0.64484 0.0
C169 C 0.20548 0.78497 0.68312 0.0
C170 C 0.18395 0.74585 0.53453 0.0
O171 O 0.27146 0.82324 0.47137 0.0
O172 O 0.29706 0.83207 0.39449 0.0
O173 O 0.26228 0.87961 0.42194 0.0
O174 O 0.20698 0.83619 0.46389 0.0
C175 C 0.30113 0.83203 0.44187 0.0
O176 O 0.29103 0.8596 0.29731 0.0
O177 O 0.25247 0.88397 0.30762 0.0
O178 O 0.18355 0.81763 0.35949 0.0
O179 O 0.16251 0.76066 0.4036 0.0
O180 O 0.22209 0.74662 0.40408 0.0
O181 O 0.22325 0.77694 0.33187 0.0
C182 C 0.23727 0.8719 0.45793 0.0
O183 O 0.1655 0.75945 0.50871 0.0
O184 O 0.21411 0.74806 0.51101 0.0
C185 C 0.26685 0.87395 0.22709 0.0
C186 C 0.24874 0.85831 0.12731 0.0
C187 C 0.27917 0.89558 0.14285 0.0
C188 C 0.28814 0.9033 0.19234 0.0
C189 C 0.23615 0.83693 0.21197 0.0
C190 C 0.22718 0.82916 0.16258 0.0
C191 C 0.27771 0.88131 0.27875 0.0
H192 H 0.16426 0.72349 0.70031 0.0
H193 H 0.15185 0.70143 0.61538 0.0
H194 H 0.23268 0.82032 0.56757 0.0
H195 H 0.24468 0.84288 0.65223 0.0
H196 H 0.29603 0.91884 0.11678 0.0
H197 H 0.31195 0.93204 0.20343 0.0
H198 H 0.21953 0.81383 0.23836 0.0
H199 H 0.20398 0.79998 0.15197 0.0
Tb200 Tb 0.39527 0.18884 0.80252 0.0
Eu201 Eu 0.39403 0.1383 0.8994 0.0
C202 C 0.33504 0.17307 0.88638 0.0
C203 C 0.43839 0.23238 0.8995 0.0
C204 C 0.39474 0.21115 0.6728 0.0
C205 C 0.39252 0.22434 0.58702 0.0
C206 C 0.39466 0.2356 0.63579 0.0
C207 C 0.39251 0.17519 0.66066 0.0
C208 C 0.39043 0.16391 0.61196 0.0
C209 C 0.39046 0.18837 0.57448 0.0
C210 C 0.39716 0.22308 0.72398 0.0
O211 O 0.42698 0.1584 0.78354 0.0
O212 O 0.45121 0.1579 0.85853 0.0
O213 O 0.36909 0.09499 0.83756 0.0
O214 O 0.34538 0.12915 0.79552 0.0
C215 C 0.45385 0.15762 0.81094 0.0
O216 O 0.42604 0.129 0.95767 0.0
O217 O 0.36271 0.09036 0.95168 0.0
O218 O 0.33908 0.14363 0.9025 0.0
O219 O 0.35971 0.19888 0.85475 0.0
O220 O 0.44007 0.23186 0.85163 0.0
O221 O 0.41615 0.20028 0.92473 0.0
C222 C 0.34566 0.09638 0.80463 0.0
O223 O 0.36519 0.20238 0.74978 0.0
O224 O 0.42863 0.22873 0.74707 0.0
C225 C 0.38979 0.10788 0.03032 0.0
C226 C 0.38708 0.12411 0.1299 0.0
C227 C 0.39334 0.0931 0.11524 0.0
C228 C 0.39477 0.08514 0.0658 0.0
C229 C 0.38278 0.13831 0.04467 0.0
C230 C 0.38141 0.14634 0.09399 0.0
C231 C 0.394 0.10138 0.97849 0.0
H232 H 0.39205 0.24361 0.55916 0.0
H233 H 0.3962 0.26338 0.64461 0.0
H234 H 0.39254 0.15592 0.68888 0.0
H235 H 0.3894 0.1363 0.60366 0.0
H236 H 0.39821 0.07569 0.14194 0.0
H237 H 0.40046 0.06169 0.05527 0.0
H238 H 0.37891 0.15621 0.01766 0.0
H239 H 0.37595 0.17003 0.104 0.0
C240 C 0.29263 0.20372 0.88101 0.0
C241 C 0.3027 0.17852 0.9054 0.0
C242 C 0.2644 0.21176 0.90042 0.0
C243 C 0.24546 0.19471 0.94479 0.0
C244 C 0.25468 0.16859 0.96849 0.0
C245 C 0.28282 0.16026 0.94878 0.0
C246 C 0.22056 0.20801 0.97018 0.0
C247 C 0.20267 0.22504 0.94696 0.0
C248 C 0.18908 0.24973 0.97222 0.0
C249 C 0.16208 0.25794 0.94898 0.0
C250 C 0.15346 0.28594 0.96838 0.0
C251 C 0.17232 0.30668 1.01094 0.0
H252 H 0.22852 0.26499 0.03427 0.0
C253 C 0.19833 0.29754 0.03496 0.0
C254 C 0.20666 0.26945 0.01589 0.0
H255 H 0.21318 0.31287 0.068 0.0
H256 H 0.30728 0.21811 0.84736 0.0
H257 H 0.25917 0.23298 0.88165 0.0
H258 H 0.24091 0.15547 1.00303 0.0
H259 H 0.29003 0.14075 0.96845 0.0
H260 H 0.21933 0.20611 1.00963 0.0
H261 H 0.20027 0.22329 0.90757 0.0
H262 H 0.14853 0.24354 0.91497 0.0
H263 H 0.13333 0.29245 0.94901 0.0
C264 C 0.06909 0.31643 0.19317 0.0
C265 C 0.06351 0.33707 0.15514 0.0
C266 C 0.04567 0.30617 0.23494 0.0
C267 C 0.01567 0.31587 0.23945 0.0
C268 C 0.00917 0.33532 0.20081 0.0
C269 C 0.03277 0.34572 0.1589 0.0
C270 C -0.00757 0.30835 0.28502 0.0
C271 C -0.01287 0.2803 0.31733 0.0
C272 C 0.96344 0.27306 0.36219 0.0
C273 C 0.93977 0.23413 0.3785 0.0
C274 C 0.9144 0.22598 0.41814 0.0
C275 C 0.91302 0.25679 0.44287 0.0
H276 H 0.98254 0.33459 0.37745 0.0
C277 C 0.93873 0.29604 0.4287 0.0
C278 C 0.96365 0.30413 0.38844 0.0
H279 H 0.93811 0.3203 0.44704 0.0
H280 H 0.09274 0.30958 0.19173 0.0
H281 H 0.05247 0.29222 0.26428 0.0
H282 H 0.98633 0.34325 0.20346 0.0
H283 H 0.02793 0.3619 0.13044 0.0
H284 H 0.97814 0.32574 0.29137 0.0
H285 H -0.00234 0.25995 0.30915 0.0
H286 H 0.93959 0.20981 0.35921 0.0
H287 H 0.89493 0.19545 0.4285 0.0
C288 C 0.76299 0.09021 0.5575 0.0
C289 C 0.79034 0.12502 0.58141 0.0
C290 C 0.75259 0.0534 0.57686 0.0
C291 C 0.76938 0.05056 0.6207 0.0
C292 C 0.79733 0.08534 0.64415 0.0
C293 C 0.80804 0.12232 0.62446 0.0
C294 C 0.75444 0.01208 0.64552 0.0
C295 C 0.73674 0.97735 0.62162 0.0
C296 C 0.71184 0.93908 0.64645 0.0
C297 C 0.70448 0.90394 0.6234 0.0
C298 C 0.67724 0.86726 0.64321 0.0
C299 C 0.65639 0.86522 0.68597 0.0
H300 H 0.69542 0.96322 0.70793 0.0
C301 C 0.66423 0.90037 0.70938 0.0
C302 C 0.69161 0.93689 0.68989 0.0
H303 H 0.64872 0.89979 0.74247 0.0
H304 H 0.74894 0.09131 0.52413 0.0
H305 H 0.73001 0.02741 0.55844 0.0
H306 H 0.81025 0.08391 0.67831 0.0
H307 H 0.82915 0.1487 0.64376 0.0
H308 H 0.75614 0.01245 0.68498 0.0
H309 H 0.73863 0.97688 0.58219 0.0
H310 H 0.71925 0.90488 0.58951 0.0
H311 H 0.67167 0.84061 0.62427 0.0
C312 C 0.64026 0.6982 0.83125 0.0
C313 C 0.64004 0.73399 0.83127 0.0
C314 C 0.65252 0.68655 0.87249 0.0
C315 C 0.66447 0.71045 0.91445 0.0
C316 C 0.66482 0.7464 0.91413 0.0
C317 C 0.65325 0.75833 0.8728 0.0
C318 C 0.67514 0.69801 0.95976 0.0
C319 C 0.69354 0.67686 0.9596 0.0
C320 C 0.70543 0.66556 1.00486 0.0
C321 C 0.73976 0.66281 1.00429 0.0
C322 C 0.7511 0.65067 0.04564 0.0
C323 C 0.72767 0.63996 0.08811 0.0
H324 H 0.65534 0.65715 0.04881 0.0
C325 C 0.69348 0.6432 0.08897 0.0
C326 C 0.68249 0.65607 0.04768 0.0
H327 H 0.67468 0.63477 0.12098 0.0
H328 H 0.62985 0.67867 0.80001 0.0
H329 H 0.65117 0.6582 0.87207 0.0
H330 H 0.67375 0.76516 0.94611 0.0
H331 H 0.65317 0.78599 0.8743 0.0
H332 H 0.66993 0.7087 0.99401 0.0
H333 H 0.70249 0.66973 0.92525 0.0
H334 H 0.75774 0.6698 0.97164 0.0
H335 H 0.77749 0.64824 0.04349 0.0
C336 C 0.10262 0.78873 0.33 0.0
C337 C 0.11545 0.76516 0.35314 0.0
C338 C 0.06456 0.7714 0.31029 0.0
C339 C 0.03915 0.73025 0.31304 0.0
C340 C 0.05213 0.70692 0.336 0.0
C341 C 0.08967 0.72416 0.35623 0.0
C342 C -8e-05 0.70997 0.28979 0.0
C343 C 0.97649 0.72577 0.28487 0.0
C344 C 0.93679 0.70226 0.26304 0.0
C345 C 0.90433 0.70352 0.28313 0.0
C346 C 0.86607 0.67785 0.26613 0.0
C347 C 0.85996 0.65086 0.22855 0.0
H348 H 0.95545 0.6762 0.20638 0.0
C349 C 0.89283 0.65133 0.20684 0.0
C350 C 0.93079 0.67685 0.2237 0.0
H351 H 0.88934 0.63161 0.17707 0.0
H352 H 0.12194 0.82041 0.32704 0.0
H353 H 0.05555 0.79002 0.29183 0.0
H354 H 0.03315 0.67512 0.33821 0.0
H355 H 0.0987 0.70508 0.37346 0.0
H356 H -0.01116 0.67944 0.27883 0.0
H357 H 0.98507 0.75457 0.3003 0.0
H358 H 0.9084 0.7232 0.31318 0.0
H359 H 0.84132 0.67845 0.28323 0.0
C360 C 0.33474 0.03522 0.76225 0.0
C361 C 0.32175 0.06194 0.77341 0.0
C362 C 0.31571 0.00661 0.72626 0.0
C363 C 0.28308 0.004 0.70151 0.0
C364 C 0.26838 0.02877 0.7152 0.0
C365 C 0.28789 0.05791 0.75042 0.0
C366 C 0.26539 0.97721 0.65955 0.0
C367 C 0.28829 0.97399 0.62524 0.0
C368 C 0.27246 0.9497 0.58077 0.0
C369 C 0.29685 0.95975 0.53942 0.0
C370 C 0.28434 0.93579 0.49809 0.0
C371 C 0.24731 0.90096 0.49757 0.0
H372 H 0.21548 0.90654 0.6112 0.0
C373 C 0.22228 0.89163 0.53836 0.0
C374 C 0.23475 0.91569 0.57964 0.0
H375 H 0.19371 0.86479 0.53934 0.0
H376 H 0.36079 0.03775 0.77944 0.0
H377 H 0.32704 0.98716 0.71697 0.0
H378 H 0.24305 0.02694 0.69685 0.0
H379 H 0.27713 0.07801 0.7587 0.0
H380 H 0.23364 0.96335 0.65442 0.0
H381 H 0.32029 -0.00846 0.62864 0.0
H382 H 0.32605 0.98581 0.53945 0.0
H383 H 0.30446 0.94371 0.46743 0.0
C384 C 0.15138 0.40368 0.70948 0.0
C385 C 0.1131 0.38267 0.72971 0.0
C386 C 0.15749 0.40269 0.6593 0.0
C387 C 0.12538 0.38077 0.62782 0.0
C388 C 0.08723 0.35942 0.64816 0.0
C389 C 0.08111 0.36048 0.69831 0.0
C390 C 0.13043 0.37823 0.5741 0.0
C391 C 0.16205 0.40536 0.54846 0.0
C392 C 0.16829 0.40332 0.49489 0.0
C393 C 0.20576 0.42956 0.47522 0.0
C394 C 0.21357 0.42921 0.42553 0.0
C395 C 0.18406 0.40261 0.39375 0.0
H396 H 0.10893 0.35659 0.47588 0.0
C397 C 0.14632 0.3766 0.41313 0.0
C398 C 0.13847 0.3769 0.463 0.0
H399 H 0.12288 0.35558 0.38983 0.0
H400 H 0.17673 0.42128 0.73239 0.0
H401 H 0.18755 0.41866 0.64575 0.0
H402 H 0.06192 0.34189 0.62511 0.0
H403 H 0.05129 0.34342 0.71256 0.0
H404 H 0.1067 0.35315 0.55546 0.0
H405 H 0.18515 0.43074 0.56749 0.0
H406 H 0.22931 0.45052 0.49847 0.0
H407 H 0.24277 0.45022 0.41195 0.0
C408 C 0.77875 0.21203 0.16133 0.0
C409 C 0.80574 0.21409 0.19645 0.0
C410 C 0.79021 0.22121 0.11265 0.0
C411 C 0.82901 0.23247 0.09774 0.0
C412 C 0.85617 0.23522 0.13297 0.0
C413 C 0.84468 0.22597 0.18169 0.0
C414 C 0.84248 0.24279 0.04628 0.0
C415 C 0.8177 0.22841 1.008 0.0
C416 C 0.82976 0.23855 0.95603 0.0
C417 C 0.79988 0.22794 0.92126 0.0
C418 C 0.80917 0.23646 0.87202 0.0
C419 C 0.84872 0.25572 0.85604 0.0
H420 H 0.89354 0.26564 0.96502 0.0
C421 C 0.87876 0.26623 0.89064 0.0
C422 C 0.86945 0.25766 0.94004 0.0
H423 H 0.9095 0.28056 0.87945 0.0
H424 H 0.74884 0.20403 0.1716 0.0
H425 H 0.76874 0.22025 0.08721 0.0
H426 H 0.88634 0.24415 0.12268 0.0
H427 H 0.86621 0.22766 0.20766 0.0
H428 H 0.87388 0.26235 0.04037 0.0
H429 H 0.78651 0.20809 0.01475 0.0
H430 H 0.76905 0.21319 0.93225 0.0
H431 H 0.78529 0.22842 0.84652 0.0
C432 C 0.59932 0.7222 0.37582 0.0
C433 C 0.58203 0.73465 0.41167 0.0
C434 C 0.5983 0.73087 0.32656 0.0
C435 C 0.5797 0.7521 0.31187 0.0
C436 C 0.56259 0.76455 0.34786 0.0
C437 C 0.56364 0.75592 0.39695 0.0
C438 C 0.57764 0.76258 0.26007 0.0
C439 C 0.5872 0.74797 0.22092 0.0
C440 C 0.58419 0.75875 0.16964 0.0
C441 C 0.60698 0.754 0.13333 0.0
C442 C 0.6047 0.76329 0.08473 0.0
C443 C 0.57926 0.7773 0.07106 0.0
H444 H 0.53908 0.77498 0.18211 0.0
C445 C 0.55605 0.78155 0.10729 0.0
C446 C 0.55834 0.77229 0.15588 0.0
H447 H 0.53539 0.79129 0.09799 0.0
H448 H 0.61423 0.70625 0.3859 0.0
H449 H 0.61262 0.72123 0.30066 0.0
H450 H 0.54803 0.78091 0.33796 0.0
H451 H 0.54947 0.76549 0.42335 0.0
H452 H 0.56758 0.78357 0.25429 0.0
H453 H 0.59829 0.72778 0.22593 0.0
H454 H 0.62692 0.74335 0.14264 0.0
H455 H 0.62326 0.75991 0.05796 0.0
C456 C 0.76809 0.5515 0.814 0.0
C457 C 0.76498 0.57503 0.85064 0.0
C458 C 0.76004 0.55541 0.76546 0.0
C459 C 0.7489 0.58323 0.75219 0.0
C460 C 0.74518 0.60628 0.78892 0.0
C461 C 0.75326 0.60239 0.8375 0.0
C462 C 0.73965 0.58806 0.70093 0.0
C463 C 0.75426 0.57842 0.66188 0.0
C464 C 0.745 0.58199 0.61014 0.0
C465 C 0.7548 0.56262 0.57423 0.0
C466 C 0.74707 0.56493 0.52515 0.0
C467 C 0.72949 0.58697 0.51043 0.0
H468 H 0.72036 0.62059 0.6214 0.0
C469 C 0.71983 0.60662 0.54621 0.0
C470 C 0.72757 0.60431 0.59546 0.0
H471 H 0.70682 0.62436 0.53608 0.0
H472 H 0.77603 0.52941 0.82292 0.0
H473 H 0.76176 0.53588 0.73884 0.0
H474 H 0.73633 0.6277 0.77995 0.0
H475 H 0.7508 0.62121 0.86466 0.0
H476 H 0.72053 0.60043 0.6958 0.0
H477 H 0.77401 0.56684 0.66771 0.0
H478 H 0.76826 0.54524 0.58419 0.0
H479 H 0.75439 0.54891 0.49878 0.0
C480 C 0.18199 0.78417 0.76877 0.0
C481 C 0.21312 0.7984 0.73471 0.0
C482 C 0.1892 0.79628 0.81743 0.0
C483 C 0.22793 0.82273 0.83336 0.0
C484 C 0.25887 0.83746 0.79903 0.0
C485 C 0.25163 0.82542 0.75038 0.0
C486 C 0.23745 0.83618 0.88494 0.0
C487 C 0.21349 0.81722 0.92309 0.0
C488 C 0.2236 0.82995 0.97474 0.0
C489 C 0.19281 0.81673 1.00911 0.0
C490 C 0.20087 0.82646 0.05833 0.0
C491 C 0.24006 0.84943 0.07457 0.0
H492 H 0.28764 0.86292 0.9661 0.0
C493 C 0.27094 0.86282 0.04019 0.0
C494 C 0.26288 0.85313 0.9909 0.0
H495 H 0.30151 0.87987 0.05153 0.0
H496 H 0.15185 0.76402 0.75768 0.0
H497 H 0.16414 0.78516 0.84191 0.0
H498 H 0.28895 0.85803 0.81 0.0
H499 H 0.27636 0.83676 0.72521 0.0
H500 H 0.26585 0.86247 0.89143 0.0
H501 H 0.18498 0.79106 0.91687 0.0
H502 H 0.1623 0.79871 0.99786 0.0
H503 H 0.17631 0.816 0.08366 0.0
C504 C 0.41152 0.20469 0.48702 0.0
C505 C 0.38857 0.17655 0.52257 0.0
C506 C 0.4099 0.19367 0.43826 0.0
C507 C 0.38504 0.15417 0.42378 0.0
C508 C 0.36259 0.12597 0.4594 0.0
C509 C 0.36415 0.137 0.50816 0.0
C510 C 0.38271 0.14106 0.37234 0.0
C511 C 0.39068 0.16535 0.33392 0.0
C512 C 0.38912 0.15328 0.28207 0.0
C513 C 0.40729 0.18309 0.24679 0.0
C514 C 0.40662 0.17362 0.19762 0.0
C515 C 0.38751 0.13398 0.18232 0.0
H516 H 0.35427 0.08946 0.29218 0.0
C517 C 0.36905 0.10403 0.21745 0.0
C518 C 0.36967 0.1135 0.26674 0.0
H519 H 0.35352 0.07321 0.20675 0.0
H520 H 0.43139 0.23521 0.49701 0.0
H521 H 0.42888 0.2161 0.41242 0.0
H522 H 0.34342 0.09529 0.44941 0.0
H523 H 0.34583 0.11458 0.53447 0.0
H524 H 0.37353 0.1102 0.36655 0.0
H525 H 0.39919 0.19601 0.3404 0.0
H526 H 0.42242 0.21396 0.25732 0.0
H527 H 0.42158 0.19744 0.17164 0.0
C528 C 0.14653 0.49242 0.17567 0.0
C529 C 0.153 0.49327 0.12519 0.0
C530 C 0.15174 0.52596 0.20012 0.0
C531 C 0.16404 0.56143 0.17477 0.0
C532 C 0.1683 0.56171 0.1239 0.0
C533 C 0.16292 0.52792 0.09924 0.0
C534 C 0.17276 0.59844 0.20049 0.0
C535 C 0.18576 0.60603 0.24687 0.0
C536 C 0.19524 0.64279 0.27381 0.0
C537 C 0.197 0.64266 0.32489 0.0
C538 C 0.2057 0.67647 0.35182 0.0
C539 C 0.21309 0.71131 0.32815 0.0
H540 H 0.20389 0.67997 0.21087 0.0
C541 C 0.21219 0.7117 0.27697 0.0
C542 C 0.20351 0.67796 0.2501 0.0
H543 H 0.21812 0.73814 0.2574 0.0
H544 H 0.13803 0.46591 0.19667 0.0
H545 H 0.14623 0.52389 0.23893 0.0
H546 H 0.1771 0.5885 0.10339 0.0
H547 H 0.16796 0.5294 0.06031 0.0
H548 H 0.16932 0.62013 0.17989 0.0
H549 H 0.18961 0.58422 0.26667 0.0
H550 H 0.19116 0.61611 0.34413 0.0
H551 H 0.2062 0.67513 0.39115 0.0
C552 C 0.70821 0.20576 0.648 0.0
C553 C 0.71028 0.20712 0.59687 0.0
C554 C 0.67326 0.19725 0.67221 0.0
C555 C 0.63942 0.18967 0.64576 0.0
C556 C 0.64159 0.19116 0.59471 0.0
C557 C 0.67653 0.19961 0.57049 0.0
C558 C 0.60203 0.18208 0.66976 0.0
C559 C 0.59186 0.16913 0.71594 0.0
C560 C 0.55513 0.16358 0.73979 0.0
C561 C 0.55393 0.16605 0.79074 0.0
C562 C 0.52068 0.16313 0.81424 0.0
C563 C 0.48785 0.15746 0.78717 0.0
H564 H 0.52039 0.15221 0.67392 0.0
C565 C 0.4884 0.1533 0.73638 0.0
C566 C 0.52149 0.15607 0.71297 0.0
H567 H 0.46334 0.14823 0.71443 0.0
H568 H 0.73372 0.21164 0.66953 0.0
H569 H 0.67342 0.19767 0.71154 0.0
H570 H 0.61612 0.18577 0.57339 0.0
H571 H 0.67706 0.20048 0.53109 0.0
H572 H 0.58235 0.18783 0.64807 0.0
H573 H 0.61153 0.16362 0.73796 0.0
H574 H 0.57921 0.17128 0.81236 0.0
H575 H 0.52112 0.16626 0.85344 0.0
C576 C 0.29624 0.49327 1.00027 0.0
C577 C 0.25951 0.46683 0.9795 0.0
C578 C 0.3288 0.51736 0.97056 0.0
C579 C 0.32516 0.51533 0.91946 0.0
C580 C 0.28856 0.48867 0.89894 0.0
C581 C 0.25623 0.46458 0.92846 0.0
C582 C 0.35769 0.54235 0.88634 0.0
C583 C 0.39623 0.55995 0.89797 0.0
C584 C 0.42806 0.59051 0.86691 0.0
C585 C 0.46267 0.61927 0.88957 0.0
C586 C 0.49189 0.65072 0.8629 0.0
C587 C 0.48743 0.65391 0.81264 0.0
H588 H 0.39875 0.57006 0.797 0.0
C589 C 0.45387 0.62396 0.78923 0.0
C590 C 0.42437 0.59249 0.81611 0.0
H591 H 0.44984 0.62541 0.75049 0.0
H592 H 0.29971 0.49588 0.03941 0.0
H593 H 0.35621 0.53835 0.98789 0.0
H594 H 0.28481 0.48668 0.8598 0.0
H595 H 0.22843 0.44461 0.91097 0.0
H596 H 0.34907 0.54841 0.85138 0.0
H597 H 0.40483 0.55391 0.93296 0.0
H598 H 0.46655 0.61823 0.92844 0.0
H599 H 0.51769 0.67297 0.88204 0.0
C600 C 0.83619 0.33966 0.40806 0.0
C601 C 0.8297 0.33533 0.45859 0.0
C602 C 0.83349 0.36909 0.38295 0.0
C603 C 0.82375 0.39461 0.40776 0.0
C604 C 0.81975 0.39192 0.45864 0.0
C605 C 0.82259 0.36245 0.48391 0.0
C606 C 0.81657 0.42349 0.38148 0.0
C607 C 0.80221 0.41704 0.3358 0.0
C608 C 0.79229 0.44395 0.30938 0.0
C609 C 0.78974 0.44152 0.25842 0.0
C610 C 0.77961 0.46562 0.23207 0.0
C611 C 0.77149 0.4925 0.25627 0.0
H612 H 0.78385 0.47239 0.37293 0.0
C613 C 0.77349 0.49455 0.30736 0.0
C614 C 0.78365 0.47049 0.33366 0.0
H615 H 0.76711 0.51469 0.32728 0.0
H616 H 0.84258 0.31974 0.38758 0.0
H617 H 0.83866 0.37141 0.34406 0.0
H618 H 0.81286 0.41167 0.47867 0.0
H619 H 0.81769 0.35999 0.52289 0.0
H620 H 0.82153 0.44959 0.40137 0.0
H621 H 0.79697 0.39057 0.31651 0.0
H622 H 0.79583 0.42102 0.23883 0.0
H623 H 0.77828 0.46322 0.19277 0.0
C624 C 0.3462 0.85158 0.51273 0.0
C625 C 0.33871 0.83986 0.46375 0.0
C626 C 0.37762 0.8521 0.53705 0.0
C627 C 0.40188 0.84029 0.51304 0.0
C628 C 0.39644 0.8318 0.463 0.0
C629 C 0.365 0.83153 0.43844 0.0
C630 C 0.4314 0.83438 0.53976 0.0
C631 C 0.42616 0.82282 0.58676 0.0
C632 C 0.45228 0.81196 0.61344 0.0
C633 C 0.45085 0.81111 0.66456 0.0
C634 C 0.47347 0.79921 0.69114 0.0
C635 C 0.49781 0.7876 0.66703 0.0
H636 H 0.47756 0.79896 0.55009 0.0
C637 C 0.49905 0.78822 0.61585 0.0
C638 C 0.4765 0.80012 0.58934 0.0
H639 H 0.5173 0.77924 0.59597 0.0
H640 H 0.32692 0.85909 0.53285 0.0
H641 H 0.3821 0.8608 0.57495 0.0
H642 H 0.41519 0.82326 0.44349 0.0
H643 H 0.35997 0.82258 0.40061 0.0
H644 H 0.45633 0.83696 0.51909 0.0
H645 H 0.40079 0.8199 0.60679 0.0
H646 H 0.4321 0.81966 0.68406 0.0
H647 H 0.47181 0.79909 0.7305 0.0
C648 C 0.63787 0.48204 0.06798 0.0
C649 C 0.64159 0.48347 0.1189 0.0
C650 C 0.60643 0.44978 0.04524 0.0
C651 C 0.57754 0.41812 0.07291 0.0
C652 C 0.58056 0.42013 0.12393 0.0
C653 C 0.61217 0.45257 0.14678 0.0
C654 C 0.54627 0.3812 0.04976 0.0
C655 C 0.53488 0.37908 1.00305 0.0
C656 C 0.50838 0.34134 0.97754 0.0
C657 C 0.51045 0.34029 0.92653 0.0
C658 C 0.48764 0.30506 0.90103 0.0
C659 C 0.46201 0.27006 0.92604 0.0
H660 H 0.47821 0.30621 0.04152 0.0
C661 C 0.45906 0.27132 0.97699 0.0
C662 C 0.48183 0.30654 1.00246 0.0
H663 H 0.43916 0.24504 0.99742 0.0
H664 H 0.66002 0.50532 0.04529 0.0
H665 H 0.60623 0.44927 1.00592 0.0
H666 H 0.55891 0.39607 0.14616 0.0
H667 H 0.61426 0.45273 0.18607 0.0
H668 H 0.53382 0.35463 0.07178 0.0
H669 H 0.54709 0.40575 0.98126 0.0
H670 H 0.53041 0.36671 0.90633 0.0
H671 H 0.49044 0.30523 0.86178 0.0
loop_
_geom_bond_atom_site_label_1
_geom_bond_atom_site_label_2
_geom_bond_distance
_geom_bond_site_symmetry_2
_ccdc_geom_bond_type
Tb0 C10 2.825 . S
Tb0 O11 2.347 . S
Tb0 O14 2.366 . S
Tb0 O19 2.418 . S
Tb0 O20 2.384 . S
Tb0 O23 2.479 . S
Tb0 O24 2.471 . S
Eu1 O12 2.418 1_556 S
Eu1 O13 2.384 1_556 S
Eu1 O16 2.479 . S
Eu1 O17 2.471 . S
Eu1 O18 2.347 1_556 S
Eu1 O21 2.366 . S
Eu1 C31 2.825 . S
C2 O18 1.259 . S
C2 O19 1.265 . S
C3 O20 1.255 1_556 S
C3 O21 1.265 . S
C4 C6 1.380 . S
C4 C7 1.374 . S
C4 C10 1.507 . S
C5 C6 1.384 . S
C5 C9 1.387 . S
C5 H32 0.930 . S
C6 C4 1.380 . S
C6 C5 1.384 . S
C6 H33 0.931 . S
C7 C4 1.374 . S
C7 C8 1.390 . S
C7 H34 0.930 . S
C8 C7 1.390 . S
C8 C9 1.391 . S
C8 H35 0.930 . S
C9 C5 1.387 . S
C9 C8 1.391 . S
C10 Tb0 2.825 . S
C10 C4 1.507 . S
C10 O23 1.238 . S
C10 O24 1.247 . S
O11 Tb0 2.347 . S
O11 C15 1.259 . S
O12 Eu1 2.418 1_554 S
O12 C15 1.265 . S
O13 Eu1 2.384 1_554 S
O13 C22 1.255 . S
O14 Tb0 2.366 . S
O14 C22 1.265 . S
C15 O11 1.259 . S
C15 O12 1.265 . S
O16 Eu1 2.479 . S
O16 C31 1.238 . S
O17 Eu1 2.471 . S
O17 C31 1.247 . S
O18 Eu1 2.347 1_554 S
O18 C2 1.259 . S
O19 Tb0 2.418 . S
O19 C2 1.265 . S
O20 Tb0 2.384 . S
O20 C3 1.255 1_554 S
O21 Eu1 2.366 . S
O21 C3 1.265 . S
C22 O13 1.255 . S
C22 O14 1.265 . S
O23 Tb0 2.479 . S
O23 C10 1.238 . S
O24 Tb0 2.471 . S
O24 C10 1.247 . S
C25 C28 1.380 . S
C25 C29 1.374 . S
C25 C31 1.507 . S
C26 C27 1.387 . S
C26 C30 1.391 . S
C27 C26 1.387 . S
C27 C28 1.384 . S
C27 H36 0.930 . S
C28 C25 1.380 . S
C28 C27 1.384 . S
C28 H37 0.931 . S
C29 C25 1.374 . S
C29 C30 1.390 . S
C29 H38 0.930 . S
C30 C26 1.391 . S
C30 C29 1.390 . S
C30 H39 0.930 . S
C31 Eu1 2.825 . S
C31 O16 1.238 . S
C31 O17 1.247 . S
C31 C25 1.507 . S
H32 C5 0.930 . S
H33 C6 0.931 . S
H34 C7 0.930 . S
H35 C8 0.930 . S
H36 C27 0.930 . S
H37 C28 0.931 . S
H38 C29 0.930 . S
H39 C30 0.930 . S
Tb40 C50 2.825 . S
Tb40 O51 2.347 . S
Tb40 O54 2.366 . S
Tb40 O59 2.418 . S
Tb40 O60 2.384 . S
Tb40 O63 2.479 . S
Tb40 O64 2.471 . S
Eu41 O52 2.418 . S
Eu41 O53 2.384 . S
Eu41 O56 2.479 . S
Eu41 O57 2.471 . S
Eu41 O58 2.347 . S
Eu41 O61 2.366 . S
Eu41 C71 2.825 . S
C42 O58 1.259 . S
C42 O59 1.265 . S
C43 O60 1.255 . S
C43 O61 1.265 . S
C44 C46 1.380 . S
C44 C47 1.374 . S
C44 C50 1.507 . S
C45 C46 1.384 . S
C45 C49 1.387 . S
C45 H72 0.930 . S
C46 C44 1.380 . S
C46 C45 1.384 . S
C46 H73 0.931 . S
C47 C44 1.374 . S
C47 C48 1.390 . S
C47 H74 0.930 . S
C48 C47 1.390 . S
C48 C49 1.391 . S
C48 H75 0.930 . S
C49 C45 1.387 . S
C49 C48 1.391 . S
C50 Tb40 2.825 . S
C50 C44 1.507 . S
C50 O63 1.238 . S
C50 O64 1.247 . S
O51 Tb40 2.347 . S
O51 C55 1.259 . S
O52 Eu41 2.418 . S
O52 C55 1.265 . S
O53 Eu41 2.384 . S
O53 C62 1.255 . S
O54 Tb40 2.366 . S
O54 C62 1.265 . S
C55 O51 1.259 . S
C55 O52 1.265 . S
O56 Eu41 2.479 . S
O56 C71 1.238 . S
O57 Eu41 2.471 . S
O57 C71 1.247 . S
O58 Eu41 2.347 . S
O58 C42 1.259 . S
O59 Tb40 2.418 . S
O59 C42 1.265 . S
O60 Tb40 2.384 . S
O60 C43 1.255 . S
O61 Eu41 2.366 . S
O61 C43 1.265 . S
C62 O53 1.255 . S
C62 O54 1.265 . S
O63 Tb40 2.479 . S
O63 C50 1.238 . S
O64 Tb40 2.471 . S
O64 C50 1.247 . S
C65 C68 1.380 . S
C65 C69 1.374 . S
C65 C71 1.507 . S
C66 C67 1.387 . S
C66 C70 1.391 . S
C67 C66 1.387 . S
C67 C68 1.384 . S
C67 H76 0.930 . S
C68 C65 1.380 . S
C68 C67 1.384 . S
C68 H77 0.931 . S
C69 C65 1.374 . S
C69 C70 1.390 . S
C69 H78 0.930 . S
C70 C66 1.391 . S
C70 C69 1.390 . S
C70 H79 0.930 . S
C71 Eu41 2.825 . S
C71 O56 1.238 . S
C71 O57 1.247 . S
C71 C65 1.507 . S
H72 C45 0.930 . S
H73 C46 0.931 . S
H74 C47 0.930 . S
H75 C48 0.930 . S
H76 C67 0.930 . S
H77 C68 0.931 . S
H78 C69 0.930 . S
H79 C70 0.930 . S
Tb80 C90 2.825 . S
Tb80 O91 2.347 . S
Tb80 O94 2.366 . S
Tb80 O99 2.418 . S
Tb80 O100 2.384 . S
Tb80 O103 2.479 . S
Tb80 O104 2.471 . S
Eu81 O92 2.418 . S
Eu81 O93 2.384 . S
Eu81 O96 2.479 . S
Eu81 O97 2.471 . S
Eu81 O98 2.347 . S
Eu81 O101 2.366 . S
Eu81 C111 2.825 . S
C82 O98 1.259 . S
C82 O99 1.265 . S
C83 O100 1.255 . S
C83 O101 1.265 . S
C84 C86 1.380 . S
C84 C87 1.374 . S
C84 C90 1.507 . S
C85 C86 1.384 . S
C85 C89 1.387 1_556 S
C85 H112 0.930 . S
C86 C84 1.380 . S
C86 C85 1.384 . S
C86 H113 0.931 . S
C87 C84 1.374 . S
C87 C88 1.390 . S
C87 H114 0.930 . S
C88 C87 1.390 . S
C88 C89 1.391 1_556 S
C88 H115 0.930 . S
C89 C85 1.387 1_554 S
C89 C88 1.391 1_554 S
C90 Tb80 2.825 . S
C90 C84 1.507 . S
C90 O103 1.238 . S
C90 O104 1.247 . S
O91 Tb80 2.347 . S
O91 C95 1.259 . S
O92 Eu81 2.418 . S
O92 C95 1.265 . S
O93 Eu81 2.384 . S
O93 C102 1.255 . S
O94 Tb80 2.366 . S
O94 C102 1.265 . S
C95 O91 1.259 . S
C95 O92 1.265 . S
O96 Eu81 2.479 . S
O96 C111 1.238 . S
O97 Eu81 2.471 . S
O97 C111 1.247 . S
O98 Eu81 2.347 . S
O98 C82 1.259 . S
O99 Tb80 2.418 . S
O99 C82 1.265 . S
O100 Tb80 2.384 . S
O100 C83 1.255 . S
O101 Eu81 2.366 . S
O101 C83 1.265 . S
C102 O93 1.255 . S
C102 O94 1.265 . S
O103 Tb80 2.479 . S
O103 C90 1.238 . S
O104 Tb80 2.471 . S
O104 C90 1.247 . S
C105 C108 1.380 . S
C105 C109 1.374 . S
C105 C111 1.507 . S
C106 C107 1.387 . S
C106 C110 1.391 . S
C107 C106 1.387 . S
C107 C108 1.384 . S
C107 H116 0.930 . S
C108 C105 1.380 . S
C108 C107 1.384 . S
C108 H117 0.931 . S
C109 C105 1.374 . S
C109 C110 1.390 . S
C109 H118 0.930 . S
C110 C106 1.391 . S
C110 C109 1.390 . S
C110 H119 0.930 . S
C111 Eu81 2.825 . S
C111 O96 1.238 . S
C111 O97 1.247 . S
C111 C105 1.507 . S
H112 C85 0.930 . S
H113 C86 0.931 . S
H114 C87 0.930 . S
H115 C88 0.930 . S
H116 C107 0.930 . S
H117 C108 0.931 . S
H118 C109 0.930 . S
H119 C110 0.930 . S
Tb120 C130 2.825 . S
Tb120 O131 2.347 . S
Tb120 O134 2.366 . S
Tb120 O139 2.418 . S
Tb120 O140 2.384 . S
Tb120 O143 2.479 . S
Tb120 O144 2.471 . S
Eu121 O132 2.418 . S
Eu121 O133 2.384 . S
Eu121 O136 2.479 . S
Eu121 O137 2.471 . S
Eu121 O138 2.347 . S
Eu121 O141 2.366 . S
Eu121 C151 2.825 . S
C122 O138 1.259 . S
C122 O139 1.265 . S
C123 O140 1.255 . S
C123 O141 1.265 . S
C124 C126 1.380 . S
C124 C127 1.374 . S
C124 C130 1.507 1_556 S
C125 C126 1.384 . S
C125 C129 1.387 . S
C125 H152 0.930 . S
C126 C124 1.380 . S
C126 C125 1.384 . S
C126 H153 0.931 . S
C127 C124 1.374 . S
C127 C128 1.390 . S
C127 H154 0.930 . S
C128 C127 1.390 . S
C128 C129 1.391 . S
C128 H155 0.930 . S
C129 C125 1.387 . S
C129 C128 1.391 . S
C130 Tb120 2.825 . S
C130 C124 1.507 1_554 S
C130 O143 1.238 . S
C130 O144 1.247 . S
O131 Tb120 2.347 . S
O131 C135 1.259 . S
O132 Eu121 2.418 . S
O132 C135 1.265 . S
O133 Eu121 2.384 . S
O133 C142 1.255 . S
O134 Tb120 2.366 . S
O134 C142 1.265 . S
C135 O131 1.259 . S
C135 O132 1.265 . S
O136 Eu121 2.479 . S
O136 C151 1.238 . S
O137 Eu121 2.471 . S
O137 C151 1.247 . S
O138 Eu121 2.347 . S
O138 C122 1.259 . S
O139 Tb120 2.418 . S
O139 C122 1.265 . S
O140 Tb120 2.384 . S
O140 C123 1.255 . S
O141 Eu121 2.366 . S
O141 C123 1.265 . S
C142 O133 1.255 . S
C142 O134 1.265 . S
O143 Tb120 2.479 . S
O143 C130 1.238 . S
O144 Tb120 2.471 . S
O144 C130 1.247 . S
C145 C148 1.380 . S
C145 C149 1.374 . S
C145 C151 1.507 . S
C146 C147 1.387 . S
C146 C150 1.391 . S
C147 C146 1.387 . S
C147 C148 1.384 . S
C147 H156 0.930 . S
C148 C145 1.380 . S
C148 C147 1.384 . S
C148 H157 0.931 . S
C149 C145 1.374 . S
C149 C150 1.390 . S
C149 H158 0.930 . S
C150 C146 1.391 . S
C150 C149 1.390 . S
C150 H159 0.930 . S
C151 Eu121 2.825 . S
C151 O136 1.238 . S
C151 O137 1.247 . S
C151 C145 1.507 . S
H152 C125 0.930 . S
H153 C126 0.931 . S
H154 C127 0.930 . S
H155 C128 0.930 . S
H156 C147 0.930 . S
H157 C148 0.931 . S
H158 C149 0.930 . S
H159 C150 0.930 . S
Tb160 C170 2.825 . S
Tb160 O171 2.347 . S
Tb160 O174 2.366 . S
Tb160 O179 2.418 . S
Tb160 O180 2.384 . S
Tb160 O183 2.479 . S
Tb160 O184 2.471 . S
Eu161 O172 2.418 . S
Eu161 O173 2.384 . S
Eu161 O176 2.479 . S
Eu161 O177 2.471 . S
Eu161 O178 2.347 . S
Eu161 O181 2.366 . S
Eu161 C191 2.825 . S
C162 O178 1.259 . S
C162 O179 1.265 . S
C163 O180 1.255 . S
C163 O181 1.265 . S
C164 C166 1.380 . S
C164 C167 1.374 . S
C164 C170 1.507 . S
C165 C166 1.384 . S
C165 C169 1.387 . S
C165 H192 0.930 . S
C166 C164 1.380 . S
C166 C165 1.384 . S
C166 H193 0.931 . S
C167 C164 1.374 . S
C167 C168 1.390 . S
C167 H194 0.930 . S
C168 C167 1.390 . S
C168 C169 1.391 . S
C168 H195 0.930 . S
C169 C165 1.387 . S
C169 C168 1.391 . S
C170 Tb160 2.825 . S
C170 C164 1.507 . S
C170 O183 1.238 . S
C170 O184 1.247 . S
O171 Tb160 2.347 . S
O171 C175 1.259 . S
O172 Eu161 2.418 . S
O172 C175 1.265 . S
O173 Eu161 2.384 . S
O173 C182 1.255 . S
O174 Tb160 2.366 . S
O174 C182 1.265 . S
C175 O171 1.259 . S
C175 O172 1.265 . S
O176 Eu161 2.479 . S
O176 C191 1.238 . S
O177 Eu161 2.471 . S
O177 C191 1.247 . S
O178 Eu161 2.347 . S
O178 C162 1.259 . S
O179 Tb160 2.418 . S
O179 C162 1.265 . S
O180 Tb160 2.384 . S
O180 C163 1.255 . S
O181 Eu161 2.366 . S
O181 C163 1.265 . S
C182 O173 1.255 . S
C182 O174 1.265 . S
O183 Tb160 2.479 . S
O183 C170 1.238 . S
O184 Tb160 2.471 . S
O184 C170 1.247 . S
C185 C188 1.380 . S
C185 C189 1.374 . S
C185 C191 1.507 . S
C186 C187 1.387 . S
C186 C190 1.391 . S
C187 C186 1.387 . S
C187 C188 1.384 . S
C187 H196 0.930 . S
C188 C185 1.380 . S
C188 C187 1.384 . S
C188 H197 0.931 . S
C189 C185 1.374 . S
C189 C190 1.390 . S
C189 H198 0.930 . S
C190 C186 1.391 . S
C190 C189 1.390 . S
C190 H199 0.930 . S
C191 Eu161 2.825 . S
C191 O176 1.238 . S
C191 O177 1.247 . S
C191 C185 1.507 . S
H192 C165 0.930 . S
H193 C166 0.931 . S
H194 C167 0.930 . S
H195 C168 0.930 . S
H196 C187 0.930 . S
H197 C188 0.931 . S
H198 C189 0.930 . S
H199 C190 0.930 . S
Tb200 C210 2.825 . S
Tb200 O211 2.347 . S
Tb200 O214 2.366 . S
Tb200 O219 2.418 . S
Tb200 O220 2.384 . S
Tb200 O223 2.479 . S
Tb200 O224 2.471 . S
Eu201 O212 2.418 . S
Eu201 O213 2.384 . S
Eu201 O216 2.479 . S
Eu201 O217 2.471 . S
Eu201 O218 2.347 . S
Eu201 O221 2.366 . S
Eu201 C231 2.825 1_556 S
C202 O218 1.259 . S
C202 O219 1.265 . S
C203 O220 1.255 . S
C203 O221 1.265 . S
C204 C206 1.380 . S
C204 C207 1.374 . S
C204 C210 1.507 . S
C205 C206 1.384 . S
C205 C209 1.387 . S
C205 H232 0.930 . S
C206 C204 1.380 . S
C206 C205 1.384 . S
C206 H233 0.931 . S
C207 C204 1.374 . S
C207 C208 1.390 . S
C207 H234 0.930 . S
C208 C207 1.390 . S
C208 C209 1.391 . S
C208 H235 0.930 . S
C209 C205 1.387 . S
C209 C208 1.391 . S
C210 Tb200 2.825 . S
C210 C204 1.507 . S
C210 O223 1.238 . S
C210 O224 1.247 . S
O211 Tb200 2.347 . S
O211 C215 1.259 . S
O212 Eu201 2.418 . S
O212 C215 1.265 . S
O213 Eu201 2.384 . S
O213 C222 1.255 . S
O214 Tb200 2.366 . S
O214 C222 1.265 . S
C215 O211 1.259 . S
C215 O212 1.265 . S
O216 Eu201 2.479 . S
O216 C231 1.238 1_556 S
O217 Eu201 2.471 . S
O217 C231 1.247 1_556 S
O218 Eu201 2.347 . S
O218 C202 1.259 . S
O219 Tb200 2.418 . S
O219 C202 1.265 . S
O220 Tb200 2.384 . S
O220 C203 1.255 . S
O221 Eu201 2.366 . S
O221 C203 1.265 . S
C222 O213 1.255 . S
C222 O214 1.265 . S
O223 Tb200 2.479 . S
O223 C210 1.238 . S
O224 Tb200 2.471 . S
O224 C210 1.247 . S
C225 C228 1.380 . S
C225 C229 1.374 . S
C225 C231 1.507 . S
C226 C227 1.387 . S
C226 C230 1.391 . S
C227 C226 1.387 . S
C227 C228 1.384 . S
C227 H236 0.930 . S
C228 C225 1.380 . S
C228 C227 1.384 . S
C228 H237 0.931 . S
C229 C225 1.374 . S
C229 C230 1.390 . S
C229 H238 0.930 . S
C230 C226 1.391 . S
C230 C229 1.390 . S
C230 H239 0.930 . S
C231 Eu201 2.825 1_554 S
C231 O216 1.238 1_554 S
C231 O217 1.247 1_554 S
C231 C225 1.507 . S
H232 C205 0.930 . S
H233 C206 0.931 . S
H234 C207 0.930 . S
H235 C208 0.930 . S
H236 C227 0.930 . S
H237 C228 0.931 . S
H238 C229 0.930 . S
H239 C230 0.930 . S
C240 C241 1.386 . S
C240 C242 1.383 . S
C240 H256 0.951 . S
C241 C240 1.386 . S
C241 C245 1.383 . S
C242 C240 1.383 . S
C242 C243 1.402 . S
C242 H257 0.951 . S
C243 C242 1.402 . S
C243 C244 1.375 . S
C243 C246 1.481 . S
C244 C243 1.375 . S
C244 C245 1.367 . S
C244 H258 0.966 . S
C245 C241 1.383 . S
C245 C244 1.367 . S
C245 H259 0.950 . S
C246 C243 1.481 . S
C246 C247 1.297 . S
C246 H260 0.950 . S
C247 C246 1.297 . S
C247 C248 1.479 . S
C247 H261 0.950 . S
C248 C247 1.479 . S
C248 C249 1.375 . S
C248 C254 1.404 1_556 S
C249 C248 1.375 . S
C249 C250 1.369 . S
C249 H262 0.950 . S
C250 C249 1.369 . S
C250 C251 1.392 . S
C250 H263 0.951 . S
C251 C250 1.392 . S
C251 C253 1.384 1_556 S
H252 C254 0.949 . S
C253 C251 1.384 1_554 S
C253 C254 1.385 . S
C253 H255 0.950 . S
C254 C248 1.404 1_554 S
C254 H252 0.949 . S
C254 C253 1.385 . S
H255 C253 0.950 . S
H256 C240 0.951 . S
H257 C242 0.951 . S
H258 C244 0.966 . S
H259 C245 0.950 . S
H260 C246 0.950 . S
H261 C247 0.950 . S
H262 C249 0.950 . S
H263 C250 0.951 . S
C264 C265 1.386 . S
C264 C266 1.383 . S
C264 H280 0.951 . S
C265 C264 1.386 . S
C265 C269 1.383 . S
C266 C264 1.383 . S
C266 C267 1.402 . S
C266 H281 0.951 . S
C267 C266 1.402 . S
C267 C268 1.375 . S
C267 C270 1.481 . S
C268 C267 1.375 . S
C268 C269 1.367 . S
C268 H282 0.951 . S
C269 C265 1.383 . S
C269 C268 1.367 . S
C269 H283 0.950 . S
C270 C267 1.481 . S
C270 C271 1.302 . S
C270 H284 0.950 . S
C271 C270 1.302 . S
C271 C272 1.471 1_455 S
C271 H285 0.955 1_455 S
C272 C271 1.471 1_655 S
C272 C273 1.375 . S
C272 C278 1.404 . S
C273 C272 1.375 . S
C273 C274 1.369 . S
C273 H286 0.950 . S
C274 C273 1.369 . S
C274 C275 1.392 . S
C274 H287 0.951 . S
C275 C274 1.392 . S
C275 C277 1.384 . S
H276 C278 0.949 1_455 S
C277 C275 1.384 . S
C277 C278 1.385 . S
C277 H279 0.950 . S
C278 C272 1.404 . S
C278 H276 0.949 1_655 S
C278 C277 1.385 . S
H279 C277 0.950 . S
H280 C264 0.951 . S
H281 C266 0.951 . S
H282 C268 0.951 . S
H283 C269 0.950 . S
H284 C270 0.950 . S
H285 C271 0.955 1_655 S
H286 C273 0.950 . S
H287 C274 0.951 . S
C288 C289 1.386 . S
C288 C290 1.383 . S
C288 H304 0.951 . S
C289 C288 1.386 . S
C289 C293 1.383 . S
C290 C288 1.383 . S
C290 C291 1.402 . S
C290 H305 0.951 . S
C291 C290 1.402 . S
C291 C292 1.375 . S
C291 C294 1.481 . S
C292 C291 1.375 . S
C292 C293 1.367 . S
C292 H306 0.951 . S
C293 C289 1.383 . S
C293 C292 1.367 . S
C293 H307 0.950 . S
C294 C291 1.481 . S
C294 C295 1.297 1_545 S
C294 H308 0.950 . S
C295 C294 1.297 1_565 S
C295 C296 1.479 . S
C295 H309 0.950 . S
C296 C295 1.479 . S
C296 C297 1.375 . S
C296 C302 1.404 . S
C297 C296 1.375 . S
C297 C298 1.369 . S
C297 H310 0.950 . S
C298 C297 1.369 . S
C298 C299 1.392 . S
C298 H311 0.951 . S
C299 C298 1.392 . S
C299 C301 1.384 . S
H300 C302 0.949 . S
C301 C299 1.384 . S
C301 C302 1.385 . S
C301 H303 0.950 . S
C302 C296 1.404 . S
C302 H300 0.949 . S
C302 C301 1.385 . S
H303 C301 0.950 . S
H304 C288 0.951 . S
H305 C290 0.951 . S
H306 C292 0.951 . S
H307 C293 0.950 . S
H308 C294 0.950 . S
H309 C295 0.950 . S
H310 C297 0.950 . S
H311 C298 0.951 . S
C312 C313 1.386 . S
C312 C314 1.383 . S
C312 H328 0.951 . S
C313 C312 1.386 . S
C313 C317 1.383 . S
C314 C312 1.383 . S
C314 C315 1.402 . S
C314 H329 0.951 . S
C315 C314 1.402 . S
C315 C316 1.375 . S
C315 C318 1.481 . S
C316 C315 1.375 . S
C316 C317 1.367 . S
C316 H330 0.951 . S
C317 C313 1.383 . S
C317 C316 1.367 . S
C317 H331 0.950 . S
C318 C315 1.481 . S
C318 C319 1.297 . S
C318 H332 0.950 . S
C319 C318 1.297 . S
C319 C320 1.479 1_556 S
C319 H333 0.950 . S
C320 C319 1.479 1_554 S
C320 C321 1.375 . S
C320 C326 1.404 . S
C321 C320 1.375 . S
C321 C322 1.369 . S
C321 H334 0.950 1_554 S
C322 C321 1.369 . S
C322 C323 1.392 . S
C322 H335 0.951 . S
C323 C322 1.392 . S
C323 C325 1.384 . S
H324 C326 0.949 . S
C325 C323 1.384 . S
C325 C326 1.385 . S
C325 H327 0.950 . S
C326 C320 1.404 . S
C326 H324 0.949 . S
C326 C325 1.385 . S
H327 C325 0.950 . S
H328 C312 0.951 . S
H329 C314 0.951 . S
H330 C316 0.951 . S
H331 C317 0.950 . S
H332 C318 0.950 . S
H333 C319 0.950 . S
H334 C321 0.950 1_556 S
H335 C322 0.951 . S
C336 C337 1.386 . S
C336 C338 1.383 . S
C336 H352 0.951 . S
C337 C336 1.386 . S
C337 C341 1.383 . S
C338 C336 1.383 . S
C338 C339 1.402 . S
C338 H353 0.951 . S
C339 C338 1.402 . S
C339 C340 1.375 . S
C339 C342 1.481 . S
C340 C339 1.375 . S
C340 C341 1.367 . S
C340 H354 0.951 . S
C341 C337 1.383 . S
C341 C340 1.367 . S
C341 H355 0.950 . S
C342 C339 1.481 . S
C342 C343 1.297 1_455 S
C342 H356 0.950 1_455 S
C343 C342 1.297 1_655 S
C343 C344 1.479 . S
C343 H357 0.950 1_655 S
C344 C343 1.479 . S
C344 C345 1.375 . S
C344 C350 1.404 . S
C345 C344 1.375 . S
C345 C346 1.369 . S
C345 H358 0.950 . S
C346 C345 1.369 . S
C346 C347 1.392 . S
C346 H359 0.951 . S
C347 C346 1.392 . S
C347 C349 1.384 . S
H348 C350 0.949 . S
C349 C347 1.384 . S
C349 C350 1.385 . S
C349 H351 0.950 . S
C350 C344 1.404 . S
C350 H348 0.949 . S
C350 C349 1.385 . S
H351 C349 0.950 . S
H352 C336 0.951 . S
H353 C338 0.951 . S
H354 C340 0.951 . S
H355 C341 0.950 . S
H356 C342 0.950 1_655 S
H357 C343 0.950 1_455 S
H358 C345 0.950 . S
H359 C346 0.951 . S
C360 C361 1.386 . S
C360 C362 1.383 . S
C360 H376 0.951 . S
C361 C360 1.386 . S
C361 C365 1.383 . S
C362 C360 1.383 . S
C362 C363 1.402 . S
C362 H377 0.951 . S
C363 C362 1.402 . S
C363 C364 1.375 . S
C363 C366 1.481 1_545 S
C364 C363 1.375 . S
C364 C365 1.367 . S
C364 H378 0.951 1_545 S
C365 C361 1.383 . S
C365 C364 1.367 . S
C365 H379 0.950 . S
C366 C363 1.481 1_565 S
C366 C367 1.297 . S
C366 H380 0.950 . S
C367 C366 1.297 . S
C367 C368 1.479 . S
C367 H381 0.950 1_565 S
C368 C367 1.479 . S
C368 C369 1.375 . S
C368 C374 1.404 . S
C369 C368 1.375 . S
C369 C370 1.369 . S
C369 H382 0.950 . S
C370 C369 1.369 . S
C370 C371 1.392 . S
C370 H383 0.951 . S
C371 C370 1.392 . S
C371 C373 1.384 . S
H372 C374 0.949 . S
C373 C371 1.384 . S
C373 C374 1.385 . S
C373 H375 0.950 . S
C374 C368 1.404 . S
C374 H372 0.949 . S
C374 C373 1.385 . S
H375 C373 0.950 . S
H376 C360 0.951 . S
H377 C362 0.951 . S
H378 C364 0.951 1_565 S
H379 C365 0.950 . S
H380 C366 0.950 . S
H381 C367 0.950 1_545 S
H382 C369 0.950 . S
H383 C370 0.951 . S
C384 C385 1.386 . S
C384 C386 1.383 . S
C384 H400 0.951 . S
C385 C384 1.386 . S
C385 C389 1.383 . S
C386 C384 1.383 . S
C386 C387 1.402 . S
C386 H401 0.951 . S
C387 C386 1.402 . S
C387 C388 1.375 . S
C387 C390 1.481 . S
C388 C387 1.375 . S
C388 C389 1.367 . S
C388 H402 0.951 . S
C389 C385 1.383 . S
C389 C388 1.367 . S
C389 H403 0.950 . S
C390 C387 1.481 . S
C390 C391 1.297 . S
C390 H404 0.950 . S
C391 C390 1.297 . S
C391 C392 1.479 . S
C391 H405 0.950 . S
C392 C391 1.479 . S
C392 C393 1.375 . S
C392 C398 1.404 . S
C393 C392 1.375 . S
C393 C394 1.369 . S
C393 H406 0.950 . S
C394 C393 1.369 . S
C394 C395 1.392 . S
C394 H407 0.951 . S
C395 C394 1.392 . S
C395 C397 1.384 . S
H396 C398 0.949 . S
C397 C395 1.384 . S
C397 C398 1.385 . S
C397 H399 0.950 . S
C398 C392 1.404 . S
C398 H396 0.949 . S
C398 C397 1.385 . S
H399 C397 0.950 . S
H400 C384 0.951 . S
H401 C386 0.951 . S
H402 C388 0.951 . S
H403 C389 0.950 . S
H404 C390 0.950 . S
H405 C391 0.950 . S
H406 C393 0.950 . S
H407 C394 0.951 . S
C408 C409 1.386 . S
C408 C410 1.383 . S
C408 H424 0.951 . S
C409 C408 1.386 . S
C409 C413 1.383 . S
C410 C408 1.383 . S
C410 C411 1.402 . S
C410 H425 0.951 . S
C411 C410 1.402 . S
C411 C412 1.375 . S
C411 C414 1.481 . S
C412 C411 1.375 . S
C412 C413 1.367 . S
C412 H426 0.951 . S
C413 C409 1.383 . S
C413 C412 1.367 . S
C413 H427 0.950 . S
C414 C411 1.481 . S
C414 C415 1.297 . S
C414 H428 0.950 . S
C415 C414 1.297 . S
C415 C416 1.479 1_554 S
C415 H429 0.950 . S
C416 C415 1.479 1_556 S
C416 C417 1.375 . S
C416 C422 1.404 . S
C417 C416 1.375 . S
C417 C418 1.369 . S
C417 H430 0.950 . S
C418 C417 1.369 . S
C418 C419 1.392 . S
C418 H431 0.951 . S
C419 C418 1.392 . S
C419 C421 1.384 . S
H420 C422 0.949 . S
C421 C419 1.384 . S
C421 C422 1.385 . S
C421 H423 0.950 . S
C422 C416 1.404 . S
C422 H420 0.949 . S
C422 C421 1.385 . S
H423 C421 0.950 . S
H424 C408 0.951 . S
H425 C410 0.951 . S
H426 C412 0.951 . S
H427 C413 0.950 . S
H428 C414 0.950 . S
H429 C415 0.950 . S
H430 C417 0.950 . S
H431 C418 0.951 . S
C432 C433 1.386 . S
C432 C434 1.383 . S
C432 H448 0.951 . S
C433 C432 1.386 . S
C433 C437 1.383 . S
C434 C432 1.383 . S
C434 C435 1.402 . S
C434 H449 0.951 . S
C435 C434 1.402 . S
C435 C436 1.375 . S
C435 C438 1.481 . S
C436 C435 1.375 . S
C436 C437 1.367 . S
C436 H450 0.951 . S
C437 C433 1.383 . S
C437 C436 1.367 . S
C437 H451 0.950 . S
C438 C435 1.481 . S
C438 C439 1.297 . S
C438 H452 0.950 . S
C439 C438 1.297 . S
C439 C440 1.479 . S
C439 H453 0.950 . S
C440 C439 1.479 . S
C440 C441 1.375 . S
C440 C446 1.404 . S
C441 C440 1.375 . S
C441 C442 1.369 . S
C441 H454 0.950 . S
C442 C441 1.369 . S
C442 C443 1.392 . S
C442 H455 0.951 . S
C443 C442 1.392 . S
C443 C445 1.384 . S
H444 C446 0.949 . S
C445 C443 1.384 . S
C445 C446 1.385 . S
C445 H447 0.950 . S
C446 C440 1.404 . S
C446 H444 0.949 . S
C446 C445 1.385 . S
H447 C445 0.950 . S
H448 C432 0.951 . S
H449 C434 0.951 . S
H450 C436 0.951 . S
H451 C437 0.950 . S
H452 C438 0.950 . S
H453 C439 0.950 . S
H454 C441 0.950 . S
H455 C442 0.951 . S
C456 C457 1.386 . S
C456 C458 1.383 . S
C456 H472 0.951 . S
C457 C456 1.386 . S
C457 C461 1.383 . S
C458 C456 1.383 . S
C458 C459 1.402 . S
C458 H473 0.951 . S
C459 C458 1.402 . S
C459 C460 1.375 . S
C459 C462 1.481 . S
C460 C459 1.375 . S
C460 C461 1.367 . S
C460 H474 0.951 . S
C461 C457 1.383 . S
C461 C460 1.367 . S
C461 H475 0.950 . S
C462 C459 1.481 . S
C462 C463 1.297 . S
C462 H476 0.950 . S
C463 C462 1.297 . S
C463 C464 1.479 . S
C463 H477 0.950 . S
C464 C463 1.479 . S
C464 C465 1.375 . S
C464 C470 1.404 . S
C465 C464 1.375 . S
C465 C466 1.369 . S
C465 H478 0.950 . S
C466 C465 1.369 . S
C466 C467 1.392 . S
C466 H479 0.951 . S
C467 C466 1.392 . S
C467 C469 1.384 . S
H468 C470 0.949 . S
C469 C467 1.384 . S
C469 C470 1.385 . S
C469 H471 0.950 . S
C470 C464 1.404 . S
C470 H468 0.949 . S
C470 C469 1.385 . S
H471 C469 0.950 . S
H472 C456 0.951 . S
H473 C458 0.951 . S
H474 C460 0.951 . S
H475 C461 0.950 . S
H476 C462 0.950 . S
H477 C463 0.950 . S
H478 C465 0.950 . S
H479 C466 0.951 . S
C480 C481 1.386 . S
C480 C482 1.383 . S
C480 H496 0.951 . S
C481 C480 1.386 . S
C481 C485 1.383 . S
C482 C480 1.383 . S
C482 C483 1.402 . S
C482 H497 0.951 . S
C483 C482 1.402 . S
C483 C484 1.375 . S
C483 C486 1.481 . S
C484 C483 1.375 . S
C484 C485 1.367 . S
C484 H498 0.951 . S
C485 C481 1.383 . S
C485 C484 1.367 . S
C485 H499 0.950 . S
C486 C483 1.481 . S
C486 C487 1.297 . S
C486 H500 0.950 . S
C487 C486 1.297 . S
C487 C488 1.479 . S
C487 H501 0.950 . S
C488 C487 1.479 . S
C488 C489 1.375 . S
C488 C494 1.404 . S
C489 C488 1.375 . S
C489 C490 1.369 1_556 S
C489 H502 0.950 . S
C490 C489 1.369 1_554 S
C490 C491 1.392 . S
C490 H503 0.951 . S
C491 C490 1.392 . S
C491 C493 1.384 1_554 S
H492 C494 0.949 . S
C493 C491 1.384 1_556 S
C493 C494 1.385 . S
C493 H495 0.950 1_556 S
C494 C488 1.404 . S
C494 H492 0.949 . S
C494 C493 1.385 . S
H495 C493 0.950 1_554 S
H496 C480 0.951 . S
H497 C482 0.951 . S
H498 C484 0.951 . S
H499 C485 0.950 . S
H500 C486 0.950 . S
H501 C487 0.950 . S
H502 C489 0.950 . S
H503 C490 0.951 . S
C504 C505 1.386 . S
C504 C506 1.383 . S
C504 H520 0.951 . S
C505 C504 1.386 . S
C505 C509 1.383 . S
C506 C504 1.383 . S
C506 C507 1.402 . S
C506 H521 0.951 . S
C507 C506 1.402 . S
C507 C508 1.375 . S
C507 C510 1.481 . S
C508 C507 1.375 . S
C508 C509 1.367 . S
C508 H522 0.951 . S
C509 C505 1.383 . S
C509 C508 1.367 . S
C509 H523 0.950 . S
C510 C507 1.481 . S
C510 C511 1.297 . S
C510 H524 0.950 . S
C511 C510 1.297 . S
C511 C512 1.479 . S
C511 H525 0.950 . S
C512 C511 1.479 . S
C512 C513 1.375 . S
C512 C518 1.404 . S
C513 C512 1.375 . S
C513 C514 1.369 . S
C513 H526 0.950 . S
C514 C513 1.369 . S
C514 C515 1.392 . S
C514 H527 0.951 . S
C515 C514 1.392 . S
C515 C517 1.384 . S
H516 C518 0.949 . S
C517 C515 1.384 . S
C517 C518 1.385 . S
C517 H519 0.950 . S
C518 C512 1.404 . S
C518 H516 0.949 . S
C518 C517 1.385 . S
H519 C517 0.950 . S
H520 C504 0.951 . S
H521 C506 0.951 . S
H522 C508 0.951 . S
H523 C509 0.950 . S
H524 C510 0.950 . S
H525 C511 0.950 . S
H526 C513 0.950 . S
H527 C514 0.951 . S
C528 C529 1.386 . S
C528 C530 1.383 . S
C528 H544 0.951 . S
C529 C528 1.386 . S
C529 C533 1.383 . S
C530 C528 1.383 . S
C530 C531 1.402 . S
C530 H545 0.951 . S
C531 C530 1.402 . S
C531 C532 1.375 . S
C531 C534 1.481 . S
C532 C531 1.375 . S
C532 C533 1.367 . S
C532 H546 0.951 . S
C533 C529 1.383 . S
C533 C532 1.367 . S
C533 H547 0.950 . S
C534 C531 1.481 . S
C534 C535 1.297 . S
C534 H548 0.950 . S
C535 C534 1.297 . S
C535 C536 1.479 . S
C535 H549 0.950 . S
C536 C535 1.479 . S
C536 C537 1.375 . S
C536 C542 1.404 . S
C537 C536 1.375 . S
C537 C538 1.369 . S
C537 H550 0.950 . S
C538 C537 1.369 . S
C538 C539 1.392 . S
C538 H551 0.951 . S
C539 C538 1.392 . S
C539 C541 1.384 . S
H540 C542 0.949 . S
C541 C539 1.384 . S
C541 C542 1.385 . S
C541 H543 0.950 . S
C542 C536 1.404 . S
C542 H540 0.949 . S
C542 C541 1.385 . S
H543 C541 0.950 . S
H544 C528 0.951 . S
H545 C530 0.951 . S
H546 C532 0.951 . S
H547 C533 0.950 . S
H548 C534 0.950 . S
H549 C535 0.950 . S
H550 C537 0.950 . S
H551 C538 0.951 . S
C552 C553 1.386 . S
C552 C554 1.383 . S
C552 H568 0.951 . S
C553 C552 1.386 . S
C553 C557 1.383 . S
C554 C552 1.383 . S
C554 C555 1.402 . S
C554 H569 0.951 . S
C555 C554 1.402 . S
C555 C556 1.375 . S
C555 C558 1.481 . S
C556 C555 1.375 . S
C556 C557 1.367 . S
C556 H570 0.951 . S
C557 C553 1.383 . S
C557 C556 1.367 . S
C557 H571 0.950 . S
C558 C555 1.481 . S
C558 C559 1.297 . S
C558 H572 0.950 . S
C559 C558 1.297 . S
C559 C560 1.479 . S
C559 H573 0.950 . S
C560 C559 1.479 . S
C560 C561 1.375 . S
C560 C566 1.404 . S
C561 C560 1.375 . S
C561 C562 1.369 . S
C561 H574 0.950 . S
C562 C561 1.369 . S
C562 C563 1.392 . S
C562 H575 0.951 . S
C563 C562 1.392 . S
C563 C565 1.384 . S
H564 C566 0.949 . S
C565 C563 1.384 . S
C565 C566 1.385 . S
C565 H567 0.950 . S
C566 C560 1.404 . S
C566 H564 0.949 . S
C566 C565 1.385 . S
H567 C565 0.950 . S
H568 C552 0.951 . S
H569 C554 0.951 . S
H570 C556 0.951 . S
H571 C557 0.950 . S
H572 C558 0.950 . S
H573 C559 0.950 . S
H574 C561 0.950 . S
H575 C562 0.951 . S
C576 C577 1.386 . S
C576 C578 1.383 . S
C576 H592 0.951 . S
C577 C576 1.386 . S
C577 C581 1.383 . S
C578 C576 1.383 . S
C578 C579 1.402 . S
C578 H593 0.951 . S
C579 C578 1.402 . S
C579 C580 1.375 . S
C579 C582 1.481 . S
C580 C579 1.375 . S
C580 C581 1.367 . S
C580 H594 0.951 . S
C581 C577 1.383 . S
C581 C580 1.367 . S
C581 H595 0.950 . S
C582 C579 1.481 . S
C582 C583 1.297 . S
C582 H596 0.950 . S
C583 C582 1.297 . S
C583 C584 1.479 . S
C583 H597 0.950 . S
C584 C583 1.479 . S
C584 C585 1.375 . S
C584 C590 1.404 . S
C585 C584 1.375 . S
C585 C586 1.369 . S
C585 H598 0.950 . S
C586 C585 1.369 . S
C586 C587 1.392 . S
C586 H599 0.951 . S
C587 C586 1.392 . S
C587 C589 1.384 . S
H588 C590 0.949 . S
C589 C587 1.384 . S
C589 C590 1.385 . S
C589 H591 0.950 . S
C590 C584 1.404 . S
C590 H588 0.949 . S
C590 C589 1.385 . S
H591 C589 0.950 . S
H592 C576 0.951 . S
H593 C578 0.951 . S
H594 C580 0.951 . S
H595 C581 0.950 . S
H596 C582 0.950 . S
H597 C583 0.950 . S
H598 C585 0.950 . S
H599 C586 0.951 . S
C600 C601 1.386 . S
C600 C602 1.383 . S
C600 H616 0.951 . S
C601 C600 1.386 . S
C601 C605 1.383 . S
C602 C600 1.383 . S
C602 C603 1.402 . S
C602 H617 0.951 . S
C603 C602 1.402 . S
C603 C604 1.375 . S
C603 C606 1.481 . S
C604 C603 1.375 . S
C604 C605 1.367 . S
C604 H618 0.951 . S
C605 C601 1.383 . S
C605 C604 1.367 . S
C605 H619 0.950 . S
C606 C603 1.481 . S
C606 C607 1.297 . S
C606 H620 0.950 . S
C607 C606 1.297 . S
C607 C608 1.479 . S
C607 H621 0.950 . S
C608 C607 1.479 . S
C608 C609 1.375 . S
C608 C614 1.404 . S
C609 C608 1.375 . S
C609 C610 1.369 . S
C609 H622 0.950 . S
C610 C609 1.369 . S
C610 C611 1.392 . S
C610 H623 0.951 . S
C611 C610 1.392 . S
C611 C613 1.384 . S
H612 C614 0.949 . S
C613 C611 1.384 . S
C613 C614 1.385 . S
C613 H615 0.950 . S
C614 C608 1.404 . S
C614 H612 0.949 . S
C614 C613 1.385 . S
H615 C613 0.950 . S
H616 C600 0.951 . S
H617 C602 0.951 . S
H618 C604 0.951 . S
H619 C605 0.950 . S
H620 C606 0.950 . S
H621 C607 0.950 . S
H622 C609 0.950 . S
H623 C610 0.951 . S
C624 C625 1.386 . S
C624 C626 1.383 . S
C624 H640 0.951 . S
C625 C624 1.386 . S
C625 C629 1.383 . S
C626 C624 1.383 . S
C626 C627 1.402 . S
C626 H641 0.951 . S
C627 C626 1.402 . S
C627 C628 1.375 . S
C627 C630 1.481 . S
C628 C627 1.375 . S
C628 C629 1.367 . S
C628 H642 0.951 . S
C629 C625 1.383 . S
C629 C628 1.367 . S
C629 H643 0.950 . S
C630 C627 1.481 . S
C630 C631 1.297 . S
C630 H644 0.950 . S
C631 C630 1.297 . S
C631 C632 1.479 . S
C631 H645 0.950 . S
C632 C631 1.479 . S
C632 C633 1.375 . S
C632 C638 1.404 . S
C633 C632 1.375 . S
C633 C634 1.369 . S
C633 H646 0.950 . S
C634 C633 1.369 . S
C634 C635 1.392 . S
C634 H647 0.951 . S
C635 C634 1.392 . S
C635 C637 1.384 . S
H636 C638 0.949 . S
C637 C635 1.384 . S
C637 C638 1.385 . S
C637 H639 0.950 . S
C638 C632 1.404 . S
C638 H636 0.949 . S
C638 C637 1.385 . S
H639 C637 0.950 . S
H640 C624 0.951 . S
H641 C626 0.951 . S
H642 C628 0.951 . S
H643 C629 0.950 . S
H644 C630 0.950 . S
H645 C631 0.950 . S
H646 C633 0.950 . S
H647 C634 0.951 . S
C648 C649 1.386 . S
C648 C650 1.383 . S
C648 H664 0.951 . S
C649 C648 1.386 . S
C649 C653 1.383 . S
C650 C648 1.383 . S
C650 C651 1.402 . S
C650 H665 0.951 . S
C651 C650 1.402 . S
C651 C652 1.375 . S
C651 C654 1.481 . S
C652 C651 1.375 . S
C652 C653 1.367 . S
C652 H666 0.951 . S
C653 C649 1.383 . S
C653 C652 1.367 . S
C653 H667 0.950 . S
C654 C651 1.481 . S
C654 C655 1.297 . S
C654 H668 0.950 . S
C655 C654 1.297 . S
C655 C656 1.479 . S
C655 H669 0.950 . S
C656 C655 1.479 . S
C656 C657 1.375 1_554 S
C656 C662 1.404 . S
C657 C656 1.375 1_556 S
C657 C658 1.369 . S
C657 H670 0.950 . S
C658 C657 1.369 . S
C658 C659 1.392 . S
C658 H671 0.951 . S
C659 C658 1.392 . S
C659 C661 1.384 . S
H660 C662 0.949 . S
C661 C659 1.384 . S
C661 C662 1.385 1_556 S
C661 H663 0.950 . S
C662 C656 1.404 . S
C662 H660 0.949 . S
C662 C661 1.385 1_554 S
H663 C661 0.950 . S
H664 C648 0.951 . S
H665 C650 0.951 . S
H666 C652 0.951 . S
H667 C653 0.950 . S
H668 C654 0.950 . S
H669 C655 0.950 . S
H670 C657 0.950 . S
H671 C658 0.951 . S
C241 C202 1.382 . S
C251 C2 1.399 1_556 S
C265 C22 1.593 . S
C275 C62 1.638 . S
C289 C42 1.365 . S
C299 C82 1.365 . S
C313 C102 1.600 . S
C323 C142 1.632 . S
C337 C162 1.311 . S
C347 C122 1.276 . S
C361 C222 1.630 . S
C371 C182 1.568 . S
C385 C26 1.033 . S
C395 C9 1.080 . S
C409 C49 1.030 . S
C419 C66 1.080 . S
C433 C106 1.056 . S
C443 C89 0.999 . S
C457 C129 1.026 . S
C467 C146 1.078 . S
C481 C169 1.025 . S
C491 C186 1.038 . S
C505 C209 1.028 . S
C515 C226 1.079 . S
C529 C15 1.833 . S
C539 C163 1.818 . S
C553 C43 1.832 . S
C563 C215 1.822 . S
C577 C3 1.835 . S
C587 C95 1.831 . S
C601 C55 1.835 . S
C611 C123 1.831 . S
C625 C175 1.837 . S
C635 C83 1.833 . S
C649 C135 1.838 . S
C659 C203 1.833 . S
