# Generated by pormake.
# Topology snk, (6)-cn, num edge types: 1
# Building blocks:
#     Node 0, Type 0, BuildingBlock: BETFEN_clean_sbu_0, # of connection points: 6
#     Node 1, Type 0, BuildingBlock: BETFEN_clean_sbu_0, # of connection points: 6
#     Node 2, Type 0, BuildingBlock: BETFEN_clean_sbu_0, # of connection points: 6
#     Node 3, Type 0, BuildingBlock: BETFEN_clean_sbu_0, # of connection points: 6
#     Node 4, Type 0, BuildingBlock: BETFEN_clean_sbu_0, # of connection points: 6
#     Node 5, Type 0, BuildingBlock: BETFEN_clean_sbu_0, # of connection points: 6
#     Node 6, Type 0, BuildingBlock: BETFEN_clean_sbu_0, # of connection points: 6
#     Node 7, Type 0, BuildingBlock: BETFEN_clean_sbu_0, # of connection points: 6
#     Edge 8, Type (0, 0), BuildingBlock: EYOCIG_clean_linker_4, # of connection points: 2
#     Edge 9, Type (0, 0), BuildingBlock: EYOCIG_clean_linker_4, # of connection points: 2
#     Edge 10, Type (0, 0), BuildingBlock: EYOCIG_clean_linker_4, # of connection points: 2
#     Edge 11, Type (0, 0), BuildingBlock: EYOCIG_clean_linker_4, # of connection points: 2
#     Edge 12, Type (0, 0), BuildingBlock: EYOCIG_clean_linker_4, # of connection points: 2
#     Edge 13, Type (0, 0), BuildingBlock: EYOCIG_clean_linker_4, # of connection points: 2
#     Edge 14, Type (0, 0), BuildingBlock: EYOCIG_clean_linker_4, # of connection points: 2
#     Edge 15, Type (0, 0), BuildingBlock: EYOCIG_clean_linker_4, # of connection points: 2
#     Edge 16, Type (0, 0), BuildingBlock: EYOCIG_clean_linker_4, # of connection points: 2
#     Edge 17, Type (0, 0), BuildingBlock: EYOCIG_clean_linker_4, # of connection points: 2
#     Edge 18, Type (0, 0), BuildingBlock: EYOCIG_clean_linker_4, # of connection points: 2
#     Edge 19, Type (0, 0), BuildingBlock: EYOCIG_clean_linker_4, # of connection points: 2
#     Edge 20, Type (0, 0), BuildingBlock: EYOCIG_clean_linker_4, # of connection points: 2
#     Edge 21, Type (0, 0), BuildingBlock: EYOCIG_clean_linker_4, # of connection points: 2
#     Edge 22, Type (0, 0), BuildingBlock: EYOCIG_clean_linker_4, # of connection points: 2
#     Edge 23, Type (0, 0), BuildingBlock: EYOCIG_clean_linker_4, # of connection points: 2
#     Edge 24, Type (0, 0), BuildingBlock: EYOCIG_clean_linker_4, # of connection points: 2
#     Edge 25, Type (0, 0), BuildingBlock: EYOCIG_clean_linker_4, # of connection points: 2
#     Edge 26, Type (0, 0), BuildingBlock: EYOCIG_clean_linker_4, # of connection points: 2
#     Edge 27, Type (0, 0), BuildingBlock: EYOCIG_clean_linker_4, # of connection points: 2
#     Edge 28, Type (0, 0), BuildingBlock: EYOCIG_clean_linker_4, # of connection points: 2
#     Edge 29, Type (0, 0), BuildingBlock: EYOCIG_clean_linker_4, # of connection points: 2
#     Edge 30, Type (0, 0), BuildingBlock: EYOCIG_clean_linker_4, # of connection points: 2
#     Edge 31, Type (0, 0), BuildingBlock: EYOCIG_clean_linker_4, # of connection points: 2
# Relax obj value: 0.114
# Max RMSD: 0.183
# Mean RMSD: 0.143
data_MOF--net-snk--node1-BETFEN_clean_sbu_0--edge1-EYOCIG_clean_linker_4
_symmetry_space_group_name_H-M    P1
_symmetry_Int_Tables_number       1
_symmetry_cell_setting            triclinic
loop_
_symmetry_equiv_pos_as_xyz
'x, y, z'
_cell_length_a     29.23509
_cell_length_b     29.238328
_cell_length_c     22.632326
_cell_angle_alpha  95.251922
_cell_angle_beta   95.256106
_cell_angle_gamma 90.048026
loop_
_atom_site_label
_atom_site_type_symbol
_atom_site_fract_x
_atom_site_fract_y
_atom_site_fract_z
_atom_type_partial_charge
Pr0 Pr 0.99961 0.97625 0.44546 0.0
Pr1 Pr 0.01313 0.03635 0.5706 0.0
C2 C 0.98732 0.94805 0.32799 0.0
C3 C 0.9968 0.96241 0.26897 0.0
C4 C 0.01644 0.93086 0.22815 0.0
C5 C 0.02147 0.94167 0.17001 0.0
C6 C 0.00701 0.98427 0.15175 0.0
C7 C 0.9895 0.01683 0.1931 0.0
C8 C 0.98431 1.006 0.25129 0.0
C9 C 0.06137 0.9422 0.53032 0.0
C10 C 0.06824 0.07032 0.46369 0.0
C11 C 0.02496 0.06455 0.68809 0.0
C12 C 0.01533 0.04994 0.74692 0.0
C13 C 0.99609 0.0815 0.78811 0.0
C14 C 0.99117 0.07048 0.84619 0.0
C15 C 1.00553 0.02773 0.86409 0.0
C16 C 0.0226 0.99518 0.82235 0.0
C17 C 0.0274 1.00613 0.76411 0.0
C18 C 0.95123 0.07009 0.48556 0.0
C19 C 0.94447 0.94235 0.55231 0.0
O20 O 0.95641 0.97091 0.35683 0.0
O21 O 0.02239 0.9356 0.36291 0.0
O22 O 0.05763 0.98409 0.52163 0.0
O23 O 0.03559 0.91574 0.49157 0.0
O24 O 0.06817 0.07333 0.52239 0.0
O25 O 0.04261 0.04055 0.4277 0.0
O26 O 0.05612 0.04193 0.6594 0.0
O27 O 0.98994 0.07687 0.65299 0.0
O28 O 0.95512 0.02831 0.49467 0.0
O29 O 0.97701 0.09672 0.52409 0.0
O30 O 0.94446 0.93943 0.49362 0.0
O31 O 0.97022 0.97199 0.58832 0.0
H32 H 0.02663 0.89721 0.2407 0.0
H33 H 0.03531 0.91618 0.13882 0.0
H34 H 0.97852 0.0501 0.1799 0.0
H35 H 0.96948 0.03125 0.28186 0.0
H36 H 0.98615 0.11531 0.7759 0.0
H37 H 0.97756 0.09593 0.87765 0.0
H38 H 0.0335 0.96181 0.83526 0.0
H39 H 0.04173 0.98081 0.73315 0.0
Pr40 Pr 0.27721 0.74832 0.69826 0.0
Pr41 Pr 0.2364 0.76416 0.81699 0.0
C42 C 0.28875 0.73016 0.5826 0.0
C43 C 0.27844 0.7492 0.52498 0.0
C44 C 0.31288 0.77262 0.49998 0.0
C45 C 0.30697 0.78157 0.4403 0.0
C46 C 0.26668 0.76706 0.40555 0.0
C47 C 0.23054 0.74788 0.43153 0.0
C48 C 0.23633 0.73891 0.49106 0.0
C49 C 0.31926 0.81866 0.77486 0.0
C50 C 0.18964 0.8212 0.71211 0.0
C51 C 0.22436 0.78206 0.93257 0.0
C52 C 0.23501 0.76338 0.99036 0.0
C53 C 0.20067 0.74034 0.01601 0.0
C54 C 0.20688 0.73178 0.07581 0.0
C55 C 0.24739 0.74631 0.11005 0.0
C56 C 0.28342 0.7651 0.08345 0.0
C57 C 0.27733 0.77368 0.02379 0.0
C58 C 0.19454 0.69391 0.73992 0.0
C59 C 0.32388 0.69126 0.80318 0.0
O60 O 0.25408 0.71418 0.60746 0.0
O61 O 0.32016 0.75101 0.62065 0.0
O62 O 0.27665 0.81165 0.76606 0.0
O63 O 0.34222 0.7902 0.74168 0.0
O64 O 0.19635 0.82169 0.77043 0.0
O65 O 0.21199 0.79317 0.6761 0.0
O66 O 0.25868 0.79882 0.90778 0.0
O67 O 0.19348 0.76043 0.89449 0.0
O68 O 0.2371 0.70084 0.74932 0.0
O69 O 0.17142 0.72247 0.77275 0.0
O70 O 0.317 0.69066 0.74486 0.0
O71 O 0.30171 0.71947 0.83921 0.0
H72 H 0.34547 0.78128 0.52528 0.0
H73 H 0.33504 0.79668 0.42042 0.0
H74 H 0.19914 0.7368 0.40479 0.0
H75 H 0.20896 0.72123 0.50913 0.0
H76 H 0.16791 0.73171 0.99109 0.0
H77 H 0.17889 0.71696 0.09617 0.0
H78 H 0.315 0.77619 0.10979 0.0
H79 H 0.30466 0.79105 1.00521 0.0
Pr80 Pr 0.51453 0.98632 0.06732 0.0
Pr81 Pr 0.49846 0.02691 0.94852 0.0
C82 C 0.53244 0.97459 0.18299 0.0
C83 C 0.51345 0.98514 0.24062 0.0
C84 C 0.4901 0.95082 0.26591 0.0
C85 C 0.48118 0.95697 0.32559 0.0
C86 C 0.49567 0.99739 0.36006 0.0
C87 C 0.51478 0.0334 0.33378 0.0
C88 C 0.52372 0.02737 0.27425 0.0
C89 C 0.44429 0.94407 0.99066 0.0
C90 C 0.44149 0.07366 0.05349 0.0
C91 C 0.48023 0.03849 0.83288 0.0
C92 C 0.49913 0.02821 0.77517 0.0
C93 C 0.52228 0.06273 0.74999 0.0
C94 C 0.53098 0.05687 0.69022 0.0
C95 C 0.51647 0.01654 0.65556 0.0
C96 C 0.49758 0.98033 0.68171 0.0
C97 C 0.48887 0.98607 0.74132 0.0
C98 C 0.56875 0.06911 0.0251 0.0
C99 C 0.57177 0.9397 0.96262 0.0
O100 O 0.5489 0.00903 0.15816 0.0
O101 O 0.51122 0.94343 0.14492 0.0
O102 O 0.45114 0.98668 0.99959 0.0
O103 O 0.47294 0.92116 0.02364 0.0
O104 O 0.4408 0.06671 0.99517 0.0
O105 O 0.4698 0.05159 0.0895 0.0
O106 O 0.46424 1.00383 0.85775 0.0
O107 O 0.50118 0.06985 0.8709 0.0
O108 O 0.5619 0.02651 0.01607 0.0
O109 O 0.54012 0.09205 0.99212 0.0
O110 O 0.57229 0.94656 0.02093 0.0
O111 O 0.54355 0.96183 0.92653 0.0
H112 H 0.48146 0.91813 0.24084 0.0
H113 H 0.46612 0.92899 0.34571 0.0
H114 H 0.52585 0.0649 0.3603 0.0
H115 H 0.54133 0.05468 0.25594 0.0
H116 H 0.53091 0.09536 0.77523 0.0
H117 H 0.54587 0.08499 0.67021 0.0
H118 H 0.48652 0.94889 0.65504 0.0
H119 H 0.47139 0.95863 0.75954 0.0
Pr120 Pr 0.28625 0.26325 0.32038 0.0
Pr121 Pr 0.22615 0.24969 0.19528 0.0
C122 C 0.31451 0.27507 0.43786 0.0
C123 C 0.29992 0.26549 0.49672 0.0
C124 C 0.33146 0.24624 0.53792 0.0
C125 C 0.32042 0.24133 0.596 0.0
C126 C 0.27768 0.25571 0.61388 0.0
C127 C 0.24514 0.2728 0.57214 0.0
C128 C 0.2561 0.2776 0.5139 0.0
C129 C 0.32041 0.20163 0.23547 0.0
C130 C 0.19228 0.19452 0.30216 0.0
C131 C 0.1979 0.23779 0.0778 0.0
C132 C 0.21233 0.24744 0.01887 0.0
C133 C 0.18064 0.26669 0.97785 0.0
C134 C 0.19144 0.27159 0.91967 0.0
C135 C 0.23411 0.25723 0.90152 0.0
C136 C 0.26681 0.24017 0.94309 0.0
C137 C 0.25607 0.23534 1.00142 0.0
C138 C 0.19218 0.31138 0.28039 0.0
C139 C 0.32009 0.31848 0.21356 0.0
O140 O 0.29194 0.30627 0.40918 0.0
O141 O 0.32673 0.24001 0.40277 0.0
O142 O 0.27851 0.20527 0.24419 0.0
O143 O 0.34682 0.22747 0.27418 0.0
O144 O 0.18935 0.19451 0.24346 0.0
O145 O 0.22193 0.2203 0.33815 0.0
O146 O 0.22066 0.20671 0.10646 0.0
O147 O 0.18551 0.27277 0.1129 0.0
O148 O 0.23399 0.30767 0.27131 0.0
O149 O 0.16565 0.28554 0.2418 0.0
O150 O 0.32305 0.31845 0.27226 0.0
O151 O 0.29041 0.29275 0.17756 0.0
H152 H 0.36527 0.23627 0.52572 0.0
H153 H 0.34586 0.2277 0.62747 0.0
H154 H 0.21177 0.28371 0.58503 0.0
H155 H 0.2308 0.29193 0.48293 0.0
H156 H 0.14688 0.27663 0.99026 0.0
H157 H 0.16588 0.2852 0.88836 0.0
H158 H 0.30013 0.22928 0.92997 0.0
H159 H 0.28148 0.22096 0.03221 0.0
Pr160 Pr 0.77709 0.24805 0.19833 0.0
Pr161 Pr 0.73635 0.26449 0.31717 0.0
C162 C 0.78853 0.22955 0.08269 0.0
C163 C 0.77831 0.24846 0.02496 0.0
C164 C 0.81284 0.27164 0.99983 0.0
C165 C 0.80696 0.28045 0.9401 0.0
C166 C 0.76661 0.26602 0.90542 0.0
C167 C 0.7304 0.24709 0.93152 0.0
C168 C 0.73616 0.23826 0.9911 0.0
C169 C 0.81957 0.31823 0.2747 0.0
C170 C 0.69007 0.32166 0.21215 0.0
C171 C 0.72445 0.28253 0.43277 0.0
C172 C 0.735 0.26361 0.49045 0.0
C173 C 0.70068 0.24026 0.51575 0.0
C174 C 0.70684 0.23135 0.57544 0.0
C175 C 0.74727 0.24583 0.6099 0.0
C176 C 0.78328 0.26497 0.58361 0.0
C177 C 0.77723 0.2739 0.52408 0.0
C178 C 0.69411 0.19437 0.24028 0.0
C179 C 0.82335 0.19095 0.30346 0.0
O180 O 0.7538 0.2138 0.10764 0.0
O181 O 0.82004 0.25035 0.12064 0.0
O182 O 0.77693 0.31149 0.26596 0.0
O183 O 0.84238 0.28956 0.2416 0.0
O184 O 0.69681 0.32225 0.27048 0.0
O185 O 0.71219 0.29335 0.17617 0.0
O186 O 0.7589 0.29901 0.40796 0.0
O187 O 0.69336 0.26123 0.39468 0.0
O188 O 0.73669 0.20106 0.24969 0.0
O189 O 0.67111 0.22313 0.27301 0.0
O190 O 0.81648 0.19024 0.24513 0.0
O191 O 0.80137 0.2194 0.33943 0.0
H192 H 0.84547 0.28023 0.02509 0.0
H193 H 0.83509 0.29538 0.92013 0.0
H194 H 0.69895 0.23608 0.90484 0.0
H195 H 0.70871 0.22077 0.00927 0.0
H196 H 0.66799 0.23162 0.49068 0.0
H197 H 0.67887 0.21627 0.59556 0.0
H198 H 0.81478 0.27603 0.61012 0.0
H199 H 0.80454 0.29151 0.50576 0.0
Pr200 Pr 0.78631 0.76314 0.82052 0.0
Pr201 Pr 0.72607 0.74987 0.69538 0.0
C202 C 0.81458 0.77502 0.93801 0.0
C203 C 0.80006 0.76544 0.9969 0.0
C204 C 0.83171 0.74642 0.03819 0.0
C205 C 0.82072 0.74163 0.09633 0.0
C206 C 0.77791 0.75586 0.11414 0.0
C207 C 0.74528 0.77268 0.0723 0.0
C208 C 0.7562 0.77739 0.01404 0.0
C209 C 0.82 0.70124 0.73557 0.0
C210 C 0.69215 0.69467 0.8022 0.0
C211 C 0.69782 0.7381 0.57789 0.0
C212 C 0.71235 0.74784 0.51905 0.0
C213 C 0.68079 0.76724 0.478 0.0
C214 C 0.69174 0.77218 0.41988 0.0
C215 C 0.73441 0.75771 0.40184 0.0
C216 C 0.76697 0.7405 0.44345 0.0
C217 C 0.7561 0.73565 0.5017 0.0
C218 C 0.69248 0.81168 0.78061 0.0
C219 C 0.8203 0.81827 0.71369 0.0
O220 O 0.79188 0.80614 0.90932 0.0
O221 O 0.82687 0.73999 0.90293 0.0
O222 O 0.77815 0.7052 0.74434 0.0
O223 O 0.84662 0.7269 0.77426 0.0
O224 O 0.68915 0.69476 0.7435 0.0
O225 O 0.7219 0.7203 0.83822 0.0
O226 O 0.72056 0.70698 0.60651 0.0
O227 O 0.68541 0.77304 0.61305 0.0
O228 O 0.73426 0.80775 0.77146 0.0
O229 O 0.66579 0.78603 0.742 0.0
O230 O 0.82332 0.81817 0.77238 0.0
O231 O 0.7905 0.79269 0.67768 0.0
H232 H 0.86556 0.73657 0.02602 0.0
H233 H 0.84623 0.72819 0.12788 0.0
H234 H 0.71186 0.78348 0.08514 0.0
H235 H 0.73082 0.79156 0.98302 0.0
H236 H 0.64704 0.77727 0.49033 0.0
H237 H 0.66629 0.7859 0.38852 0.0
H238 H 0.80028 0.72952 0.43043 0.0
H239 H 0.78141 0.72119 0.53253 0.0
Pr240 Pr 0.49971 0.47629 0.94539 0.0
Pr241 Pr 0.51315 0.53644 0.07052 0.0
C242 C 0.48776 0.44815 0.82788 0.0
C243 C 0.49733 0.4627 0.769 0.0
C244 C 0.51636 0.43105 0.72774 0.0
C245 C 0.52116 0.44199 0.6696 0.0
C246 C 0.50694 0.48479 0.65174 0.0
C247 C 0.49012 0.51744 0.69355 0.0
C248 C 0.48538 0.50656 0.75183 0.0
C249 C 0.56156 0.4424 0.03028 0.0
C250 C 0.56828 0.57036 0.96366 0.0
C251 C 0.52495 0.56476 0.18799 0.0
C252 C 0.5152 0.5503 0.24686 0.0
C253 C 0.49581 0.5819 0.28786 0.0
C254 C 0.49085 0.57101 0.34599 0.0
C255 C 0.50528 0.52835 0.3641 0.0
C256 C 0.52246 0.49575 0.32253 0.0
C257 C 0.52734 0.50657 0.26427 0.0
C258 C 0.45143 0.57025 0.98535 0.0
C259 C 0.44448 0.44241 0.05221 0.0
O260 O 0.45665 0.47081 0.85663 0.0
O261 O 0.5228 0.4358 0.86292 0.0
O262 O 0.55772 0.48427 0.02154 0.0
O263 O 0.53581 0.41587 0.9916 0.0
O264 O 0.56827 0.57332 0.02236 0.0
O265 O 0.5426 0.54065 0.92766 0.0
O266 O 0.55605 0.54196 0.15939 0.0
O267 O 0.49002 0.57716 0.15281 0.0
O268 O 0.45523 0.52846 0.99447 0.0
O269 O 0.47718 0.59685 0.02396 0.0
O270 O 0.44457 0.43941 0.99352 0.0
O271 O 0.47016 0.47213 0.08822 0.0
H272 H 0.52619 0.39721 0.73994 0.0
H273 H 0.53458 0.41646 0.63809 0.0
H274 H 0.47934 0.55085 0.68065 0.0
H275 H 0.47117 0.53193 0.78281 0.0
H276 H 0.4858 0.61565 0.27547 0.0
H277 H 0.47713 0.59649 0.37732 0.0
H278 H 0.53341 0.46243 0.3356 0.0
H279 H 0.5418 0.48122 0.23348 0.0
Pr280 Pr 0.01429 0.48631 0.5671 0.0
Pr281 Pr 0.998 0.52707 0.44834 0.0
C282 C 0.03253 0.47448 0.6827 0.0
C283 C 0.01364 0.48468 0.74045 0.0
C284 C 0.99027 0.4502 0.76543 0.0
C285 C 0.98139 0.45602 0.82515 0.0
C286 C 0.99594 0.49626 0.85996 0.0
C287 C 0.01512 0.53242 0.83403 0.0
C288 C 0.02402 0.52672 0.77447 0.0
C289 C 0.94411 0.44402 0.49047 0.0
C290 C 0.94083 0.57338 0.55338 0.0
C291 C 0.97978 0.53876 0.33272 0.0
C292 C 0.99862 0.52815 0.27502 0.0
C293 C 0.02172 0.56249 0.24947 0.0
C294 C 0.03049 0.55625 0.18974 0.0
C295 C 0.0161 0.51571 0.15548 0.0
C296 C 0.99724 0.47968 0.18202 0.0
C297 C 0.98845 0.48581 0.2416 0.0
C298 C 0.06826 0.56927 0.52501 0.0
C299 C 0.07131 0.43984 0.46206 0.0
O300 O 0.04857 0.50918 0.65793 0.0
O301 O 0.01153 0.44322 0.64458 0.0
O302 O 0.9509 0.48662 0.49944 0.0
O303 O 0.97275 0.42112 0.52348 0.0
O304 O 0.94026 0.56664 0.49505 0.0
O305 O 0.96914 0.55127 0.58936 0.0
O306 O 0.9634 0.50433 0.35767 0.0
O307 O 1.00108 0.56993 0.37069 0.0
O308 O 0.06149 0.52667 0.51583 0.0
O309 O 0.03953 0.59224 0.4922 0.0
O310 O 0.072 0.44669 0.52039 0.0
O311 O 0.04298 0.46195 0.4261 0.0
H312 H 0.98156 0.41764 0.74006 0.0
H313 H 0.96628 0.42793 0.84499 0.0
H314 H 0.02623 0.56379 0.86081 0.0
H315 H 0.04167 0.55412 0.75642 0.0
H316 H 0.03027 0.59526 0.27439 0.0
H317 H 0.04536 0.58424 0.16944 0.0
H318 H 0.98626 0.44808 0.15567 0.0
H319 H 0.97103 0.45847 0.26011 0.0
C320 C 0.11732 0.12215 0.4034 0.0
C321 C 0.09656 0.10053 0.43553 0.0
C322 C 0.14053 0.14538 0.36247 0.0
C323 C 0.16213 0.16616 0.33034 0.0
C324 C 0.1108 0.90637 0.61747 0.0
C325 C 0.08912 0.92517 0.57895 0.0
C326 C 0.13634 0.87976 0.6575 0.0
C327 C 0.15985 0.8543 0.68603 0.0
C328 C 0.3599 0.87682 0.85958 0.0
C329 C 0.34023 0.85066 0.82132 0.0
C330 C 0.38651 0.90346 0.90543 0.0
C331 C 0.4125 0.92309 0.94394 0.0
C332 C 0.38287 0.1268 0.10819 0.0
C333 C 0.40834 0.10335 0.07961 0.0
C334 C 0.35627 0.15229 0.14828 0.0
C335 C 0.33747 0.17393 0.18683 0.0
C336 C 0.8953 0.89059 0.61253 0.0
C337 C 0.91609 0.91219 0.58043 0.0
C338 C 0.87209 0.86738 0.65344 0.0
C339 C 0.85049 0.8466 0.68556 0.0
C340 C 0.90158 0.10544 0.39825 0.0
C341 C 0.92335 0.08681 0.43684 0.0
C342 C 0.8761 0.13203 0.35817 0.0
C343 C 0.8528 0.15764 0.32962 0.0
C344 C 0.65383 0.13641 0.15512 0.0
C345 C 0.67332 0.16248 0.19361 0.0
C346 C 0.62721 0.10973 0.10938 0.0
C347 C 0.60093 0.09004 0.07132 0.0
C348 C 0.65719 0.86119 0.86809 0.0
C349 C 0.67582 0.83949 0.82944 0.0
C350 C 0.63062 0.88669 0.90817 0.0
C351 C 0.60503 0.91009 0.93663 0.0
C352 C 0.6173 0.62222 0.90338 0.0
C353 C 0.59657 0.60059 0.93551 0.0
C354 C 0.64043 0.64548 0.86243 0.0
C355 C 0.66199 0.66629 0.83031 0.0
C356 C 0.63697 0.38032 0.15742 0.0
C357 C 0.66041 0.35482 0.18598 0.0
C358 C 0.61133 0.40681 0.11735 0.0
C359 C 0.58948 0.42548 0.07885 0.0
C360 C 0.88668 0.40335 0.40496 0.0
C361 C 0.9125 0.42303 0.44359 0.0
C362 C 0.86028 0.37658 0.35909 0.0
C363 C 0.84068 0.35029 0.32094 0.0
C364 C 0.85545 0.65171 0.64823 0.0
C365 C 0.83681 0.67345 0.68684 0.0
C366 C 0.882 0.62623 0.60809 0.0
C367 C 0.90757 0.60291 0.57952 0.0
C368 C 0.37191 0.36758 0.15332 0.0
C369 C 0.35028 0.34682 0.18542 0.0
C370 C 0.3952 0.39074 0.11242 0.0
C371 C 0.41605 0.4123 0.08033 0.0
C372 C 0.40216 0.60574 0.89784 0.0
C373 C 0.42375 0.58701 0.9365 0.0
C374 C 0.37679 0.63241 0.85775 0.0
C375 C 0.35344 0.65799 0.82924 0.0
C376 C 0.15416 0.63615 0.65458 0.0
C377 C 0.17383 0.66208 0.69309 0.0
C378 C 0.1272 0.60968 0.60893 0.0
C379 C 0.10068 0.59015 0.57101 0.0
C380 C 0.15658 0.36111 0.36745 0.0
C381 C 0.17531 0.33931 0.32897 0.0
C382 C 0.12999 0.38672 0.40742 0.0
C383 C 0.10447 0.41019 0.43591 0.0
C384 C 1.00575 0.01042 0.97752 0.0
C385 C 1.00557 0.01849 0.92595 0.0
C386 C 0.00714 1.00129 0.03825 0.0
C387 C 0.00719 0.9933 0.08984 0.0
C388 C 0.26024 0.7608 0.28887 0.0
C389 C 0.26493 0.76452 0.34218 0.0
C390 C 0.25436 0.75306 0.22677 0.0
C391 C 0.24953 0.74918 0.17347 0.0
C392 C 0.50977 0.01011 0.53886 0.0
C393 C 0.51367 0.01478 0.59217 0.0
C394 C 0.50199 1.00423 0.47677 0.0
C395 C 0.49826 0.99939 0.42346 0.0
C396 C 0.25129 0.25708 0.78805 0.0
C397 C 0.2432 0.25726 0.83962 0.0
C398 C 0.26047 0.2558 0.72734 0.0
C399 C 0.26843 0.2557 0.67574 0.0
C400 C 0.76011 0.25963 0.78872 0.0
C401 C 0.76482 0.26339 0.84203 0.0
C402 C 0.75419 0.25199 0.72661 0.0
C403 C 0.74932 0.24834 0.6733 0.0
C404 C 0.75161 0.75754 0.28837 0.0
C405 C 0.7436 0.75769 0.33996 0.0
C406 C 0.76066 0.75617 0.22761 0.0
C407 C 0.76861 0.75598 0.17599 0.0
C408 C 0.50658 0.50228 0.53837 0.0
C409 C 0.50685 0.49407 0.58989 0.0
C410 C 0.5053 0.51144 0.47766 0.0
C411 C 0.50525 0.51925 0.426 0.0
C412 C 1.00205 0.50271 0.97665 0.0
C413 C 0.99839 0.498 0.92334 0.0
C414 C 0.00967 0.50864 0.03876 0.0
C415 C 0.01341 0.51353 0.09207 0.0
loop_
_geom_bond_atom_site_label_1
_geom_bond_atom_site_label_2
_geom_bond_distance
_geom_bond_site_symmetry_2
_ccdc_geom_bond_type
Pr0 C2 2.880 1_655 S
Pr0 O20 2.562 . S
Pr0 O21 2.490 1_655 S
Pr0 O22 2.695 1_655 S
Pr0 O23 2.512 1_655 S
Pr0 O25 2.437 1_665 S
Pr0 O28 2.436 1_565 S
Pr0 O30 2.438 . S
Pr1 C11 2.880 1_455 S
Pr1 O22 2.436 1_545 S
Pr1 O24 2.438 . S
Pr1 O26 2.562 . S
Pr1 O27 2.490 1_455 S
Pr1 O28 2.695 1_455 S
Pr1 O29 2.512 1_455 S
Pr1 O31 2.437 1_445 S
C2 Pr0 2.880 1_455 S
C2 C3 1.491 . S
C2 O20 1.254 1_455 S
C2 O21 1.225 . S
C3 C2 1.491 . S
C3 C4 1.392 . S
C3 C8 1.356 . S
C4 C3 1.392 . S
C4 C5 1.368 . S
C4 H32 0.929 . S
C5 C4 1.368 . S
C5 C6 1.386 . S
C5 H33 0.929 . S
C6 C5 1.386 . S
C6 C7 1.373 . S
C7 C6 1.373 . S
C7 C8 1.409 . S
C7 H34 0.931 1_565 S
C8 C3 1.356 . S
C8 C7 1.409 . S
C8 H35 0.930 1_465 S
C9 O22 1.270 . S
C9 O23 1.248 . S
C10 O24 1.267 . S
C10 O25 1.278 . S
C11 Pr1 2.880 1_655 S
C11 C12 1.491 . S
C11 O26 1.254 1_655 S
C11 O27 1.225 . S
C12 C11 1.491 . S
C12 C13 1.392 . S
C12 C17 1.356 . S
C13 C12 1.392 . S
C13 C14 1.368 . S
C13 H36 0.929 . S
C14 C13 1.368 . S
C14 C15 1.386 . S
C14 H37 0.929 . S
C15 C14 1.386 . S
C15 C16 1.373 . S
C16 C15 1.373 . S
C16 C17 1.409 . S
C16 H38 0.931 1_545 S
C17 C12 1.356 . S
C17 C16 1.409 . S
C17 H39 0.930 1_645 S
C18 O28 1.270 . S
C18 O29 1.248 . S
C19 O30 1.267 . S
C19 O31 1.278 . S
O20 Pr0 2.562 . S
O20 C2 1.254 1_655 S
O21 Pr0 2.490 1_455 S
O21 C2 1.225 . S
O22 Pr0 2.695 1_455 S
O22 Pr1 2.436 1_565 S
O22 C9 1.270 . S
O23 Pr0 2.512 1_455 S
O23 C9 1.248 . S
O24 Pr1 2.438 . S
O24 C10 1.267 . S
O25 Pr0 2.437 1_445 S
O25 C10 1.278 . S
O26 Pr1 2.562 . S
O26 C11 1.254 1_455 S
O27 Pr1 2.490 1_655 S
O27 C11 1.225 . S
O28 Pr0 2.436 1_545 S
O28 Pr1 2.695 1_655 S
O28 C18 1.270 . S
O29 Pr1 2.512 1_655 S
O29 C18 1.248 . S
O30 Pr0 2.438 . S
O30 C19 1.267 . S
O31 Pr1 2.437 1_665 S
O31 C19 1.278 . S
H32 C4 0.929 . S
H33 C5 0.929 . S
H34 C7 0.931 1_545 S
H35 C8 0.930 1_645 S
H36 C13 0.929 . S
H37 C14 0.929 . S
H38 C16 0.931 1_565 S
H39 C17 0.930 1_465 S
Pr40 C42 2.880 . S
Pr40 O60 2.562 . S
Pr40 O61 2.490 . S
Pr40 O62 2.695 . S
Pr40 O63 2.512 . S
Pr40 O65 2.437 . S
Pr40 O68 2.436 . S
Pr40 O70 2.438 . S
Pr41 C51 2.880 . S
Pr41 O62 2.436 . S
Pr41 O64 2.438 . S
Pr41 O66 2.562 . S
Pr41 O67 2.490 . S
Pr41 O68 2.695 . S
Pr41 O69 2.512 . S
Pr41 O71 2.437 . S
C42 Pr40 2.880 . S
C42 C43 1.491 . S
C42 O60 1.254 . S
C42 O61 1.225 . S
C43 C42 1.491 . S
C43 C44 1.392 . S
C43 C48 1.356 . S
C44 C43 1.392 . S
C44 C45 1.368 . S
C44 H72 0.929 . S
C45 C44 1.368 . S
C45 C46 1.386 . S
C45 H73 0.929 . S
C46 C45 1.386 . S
C46 C47 1.373 . S
C47 C46 1.373 . S
C47 C48 1.409 . S
C47 H74 0.931 . S
C48 C43 1.356 . S
C48 C47 1.409 . S
C48 H75 0.930 . S
C49 O62 1.270 . S
C49 O63 1.248 . S
C50 O64 1.267 . S
C50 O65 1.278 . S
C51 Pr41 2.880 . S
C51 C52 1.491 . S
C51 O66 1.254 . S
C51 O67 1.225 . S
C52 C51 1.491 . S
C52 C53 1.392 1_556 S
C52 C57 1.356 1_556 S
C53 C52 1.392 1_554 S
C53 C54 1.368 . S
C53 H76 0.929 1_554 S
C54 C53 1.368 . S
C54 C55 1.386 . S
C54 H77 0.929 . S
C55 C54 1.386 . S
C55 C56 1.373 . S
C56 C55 1.373 . S
C56 C57 1.409 . S
C56 H78 0.931 . S
C57 C52 1.356 1_554 S
C57 C56 1.409 . S
C57 H79 0.930 . S
C58 O68 1.270 . S
C58 O69 1.248 . S
C59 O70 1.267 . S
C59 O71 1.278 . S
O60 Pr40 2.562 . S
O60 C42 1.254 . S
O61 Pr40 2.490 . S
O61 C42 1.225 . S
O62 Pr40 2.695 . S
O62 Pr41 2.436 . S
O62 C49 1.270 . S
O63 Pr40 2.512 . S
O63 C49 1.248 . S
O64 Pr41 2.438 . S
O64 C50 1.267 . S
O65 Pr40 2.437 . S
O65 C50 1.278 . S
O66 Pr41 2.562 . S
O66 C51 1.254 . S
O67 Pr41 2.490 . S
O67 C51 1.225 . S
O68 Pr40 2.436 . S
O68 Pr41 2.695 . S
O68 C58 1.270 . S
O69 Pr41 2.512 . S
O69 C58 1.248 . S
O70 Pr40 2.438 . S
O70 C59 1.267 . S
O71 Pr41 2.437 . S
O71 C59 1.278 . S
H72 C44 0.929 . S
H73 C45 0.929 . S
H74 C47 0.931 . S
H75 C48 0.930 . S
H76 C53 0.929 1_556 S
H77 C54 0.929 . S
H78 C56 0.931 . S
H79 C57 0.930 . S
Pr80 C82 2.880 . S
Pr80 O100 2.562 1_565 S
Pr80 O101 2.490 . S
Pr80 O102 2.695 1_554 S
Pr80 O103 2.512 . S
Pr80 O105 2.437 1_565 S
Pr80 O108 2.436 1_565 S
Pr80 O110 2.438 1_554 S
Pr81 C91 2.880 . S
Pr81 O102 2.436 1_545 S
Pr81 O104 2.438 1_556 S
Pr81 O106 2.562 1_545 S
Pr81 O107 2.490 . S
Pr81 O108 2.695 1_556 S
Pr81 O109 2.512 . S
Pr81 O111 2.437 1_545 S
C82 Pr80 2.880 . S
C82 C83 1.491 . S
C82 O100 1.254 1_565 S
C82 O101 1.225 . S
C83 C82 1.491 . S
C83 C84 1.392 . S
C83 C88 1.356 1_565 S
C84 C83 1.392 . S
C84 C85 1.368 . S
C84 H112 0.929 . S
C85 C84 1.368 . S
C85 C86 1.386 . S
C85 H113 0.929 . S
C86 C85 1.386 . S
C86 C87 1.373 1_565 S
C87 C86 1.373 1_545 S
C87 C88 1.409 . S
C87 H114 0.931 . S
C88 C83 1.356 1_545 S
C88 C87 1.409 . S
C88 H115 0.930 . S
C89 O102 1.270 . S
C89 O103 1.248 1_556 S
C90 O104 1.267 . S
C90 O105 1.278 . S
C91 Pr81 2.880 . S
C91 C92 1.491 . S
C91 O106 1.254 1_545 S
C91 O107 1.225 . S
C92 C91 1.491 . S
C92 C93 1.392 . S
C92 C97 1.356 1_545 S
C93 C92 1.392 . S
C93 C94 1.368 . S
C93 H116 0.929 . S
C94 C93 1.368 . S
C94 C95 1.386 . S
C94 H117 0.929 . S
C95 C94 1.386 . S
C95 C96 1.373 1_545 S
C96 C95 1.373 1_565 S
C96 C97 1.409 . S
C96 H118 0.931 . S
C97 C92 1.356 1_565 S
C97 C96 1.409 . S
C97 H119 0.930 . S
C98 O108 1.270 . S
C98 O109 1.248 1_554 S
C99 O110 1.267 . S
C99 O111 1.278 . S
O100 Pr80 2.562 1_545 S
O100 C82 1.254 1_545 S
O101 Pr80 2.490 . S
O101 C82 1.225 . S
O102 Pr80 2.695 1_556 S
O102 Pr81 2.436 1_565 S
O102 C89 1.270 . S
O103 Pr80 2.512 . S
O103 C89 1.248 1_554 S
O104 Pr81 2.438 1_554 S
O104 C90 1.267 . S
O105 Pr80 2.437 1_545 S
O105 C90 1.278 . S
O106 Pr81 2.562 1_565 S
O106 C91 1.254 1_565 S
O107 Pr81 2.490 . S
O107 C91 1.225 . S
O108 Pr80 2.436 1_545 S
O108 Pr81 2.695 1_554 S
O108 C98 1.270 . S
O109 Pr81 2.512 . S
O109 C98 1.248 1_556 S
O110 Pr80 2.438 1_556 S
O110 C99 1.267 . S
O111 Pr81 2.437 1_565 S
O111 C99 1.278 . S
H112 C84 0.929 . S
H113 C85 0.929 . S
H114 C87 0.931 . S
H115 C88 0.930 . S
H116 C93 0.929 . S
H117 C94 0.929 . S
H118 C96 0.931 . S
H119 C97 0.930 . S
Pr120 C122 2.880 . S
Pr120 O140 2.562 . S
Pr120 O141 2.490 . S
Pr120 O142 2.695 . S
Pr120 O143 2.512 . S
Pr120 O145 2.437 . S
Pr120 O148 2.436 . S
Pr120 O150 2.438 . S
Pr121 C131 2.880 . S
Pr121 O142 2.436 . S
Pr121 O144 2.438 . S
Pr121 O146 2.562 . S
Pr121 O147 2.490 . S
Pr121 O148 2.695 . S
Pr121 O149 2.512 . S
Pr121 O151 2.437 . S
C122 Pr120 2.880 . S
C122 C123 1.491 . S
C122 O140 1.254 . S
C122 O141 1.225 . S
C123 C122 1.491 . S
C123 C124 1.392 . S
C123 C128 1.356 . S
C124 C123 1.392 . S
C124 C125 1.368 . S
C124 H152 0.929 . S
C125 C124 1.368 . S
C125 C126 1.386 . S
C125 H153 0.929 . S
C126 C125 1.386 . S
C126 C127 1.373 . S
C127 C126 1.373 . S
C127 C128 1.409 . S
C127 H154 0.931 . S
C128 C123 1.356 . S
C128 C127 1.409 . S
C128 H155 0.930 . S
C129 O142 1.270 . S
C129 O143 1.248 . S
C130 O144 1.267 . S
C130 O145 1.278 . S
C131 Pr121 2.880 . S
C131 C132 1.491 1_554 S
C131 O146 1.254 . S
C131 O147 1.225 . S
C132 C131 1.491 1_556 S
C132 C133 1.392 . S
C132 C137 1.356 . S
C133 C132 1.392 . S
C133 C134 1.368 . S
C133 H156 0.929 . S
C134 C133 1.368 . S
C134 C135 1.386 . S
C134 H157 0.929 . S
C135 C134 1.386 . S
C135 C136 1.373 . S
C136 C135 1.373 . S
C136 C137 1.409 . S
C136 H158 0.931 . S
C137 C132 1.356 . S
C137 C136 1.409 . S
C137 H159 0.930 . S
C138 O148 1.270 . S
C138 O149 1.248 . S
C139 O150 1.267 . S
C139 O151 1.278 . S
O140 Pr120 2.562 . S
O140 C122 1.254 . S
O141 Pr120 2.490 . S
O141 C122 1.225 . S
O142 Pr120 2.695 . S
O142 Pr121 2.436 . S
O142 C129 1.270 . S
O143 Pr120 2.512 . S
O143 C129 1.248 . S
O144 Pr121 2.438 . S
O144 C130 1.267 . S
O145 Pr120 2.437 . S
O145 C130 1.278 . S
O146 Pr121 2.562 . S
O146 C131 1.254 . S
O147 Pr121 2.490 . S
O147 C131 1.225 . S
O148 Pr120 2.436 . S
O148 Pr121 2.695 . S
O148 C138 1.270 . S
O149 Pr121 2.512 . S
O149 C138 1.248 . S
O150 Pr120 2.438 . S
O150 C139 1.267 . S
O151 Pr121 2.437 . S
O151 C139 1.278 . S
H152 C124 0.929 . S
H153 C125 0.929 . S
H154 C127 0.931 . S
H155 C128 0.930 . S
H156 C133 0.929 . S
H157 C134 0.929 . S
H158 C136 0.931 . S
H159 C137 0.930 . S
Pr160 C162 2.880 . S
Pr160 O180 2.562 . S
Pr160 O181 2.490 . S
Pr160 O182 2.695 . S
Pr160 O183 2.512 . S
Pr160 O185 2.437 . S
Pr160 O188 2.436 . S
Pr160 O190 2.438 . S
Pr161 C171 2.880 . S
Pr161 O182 2.436 . S
Pr161 O184 2.438 . S
Pr161 O186 2.562 . S
Pr161 O187 2.490 . S
Pr161 O188 2.695 . S
Pr161 O189 2.512 . S
Pr161 O191 2.437 . S
C162 Pr160 2.880 . S
C162 C163 1.491 . S
C162 O180 1.254 . S
C162 O181 1.225 . S
C163 C162 1.491 . S
C163 C164 1.392 1_554 S
C163 C168 1.356 1_554 S
C164 C163 1.392 1_556 S
C164 C165 1.368 . S
C164 H192 0.929 1_556 S
C165 C164 1.368 . S
C165 C166 1.386 . S
C165 H193 0.929 . S
C166 C165 1.386 . S
C166 C167 1.373 . S
C167 C166 1.373 . S
C167 C168 1.409 . S
C167 H194 0.931 . S
C168 C163 1.356 1_556 S
C168 C167 1.409 . S
C168 H195 0.930 . S
C169 O182 1.270 . S
C169 O183 1.248 . S
C170 O184 1.267 . S
C170 O185 1.278 . S
C171 Pr161 2.880 . S
C171 C172 1.491 . S
C171 O186 1.254 . S
C171 O187 1.225 . S
C172 C171 1.491 . S
C172 C173 1.392 . S
C172 C177 1.356 . S
C173 C172 1.392 . S
C173 C174 1.368 . S
C173 H196 0.929 . S
C174 C173 1.368 . S
C174 C175 1.386 . S
C174 H197 0.929 . S
C175 C174 1.386 . S
C175 C176 1.373 . S
C176 C175 1.373 . S
C176 C177 1.409 . S
C176 H198 0.931 . S
C177 C172 1.356 . S
C177 C176 1.409 . S
C177 H199 0.930 . S
C178 O188 1.270 . S
C178 O189 1.248 . S
C179 O190 1.267 . S
C179 O191 1.278 . S
O180 Pr160 2.562 . S
O180 C162 1.254 . S
O181 Pr160 2.490 . S
O181 C162 1.225 . S
O182 Pr160 2.695 . S
O182 Pr161 2.436 . S
O182 C169 1.270 . S
O183 Pr160 2.512 . S
O183 C169 1.248 . S
O184 Pr161 2.438 . S
O184 C170 1.267 . S
O185 Pr160 2.437 . S
O185 C170 1.278 . S
O186 Pr161 2.562 . S
O186 C171 1.254 . S
O187 Pr161 2.490 . S
O187 C171 1.225 . S
O188 Pr160 2.436 . S
O188 Pr161 2.695 . S
O188 C178 1.270 . S
O189 Pr161 2.512 . S
O189 C178 1.248 . S
O190 Pr160 2.438 . S
O190 C179 1.267 . S
O191 Pr161 2.437 . S
O191 C179 1.278 . S
H192 C164 0.929 1_554 S
H193 C165 0.929 . S
H194 C167 0.931 . S
H195 C168 0.930 . S
H196 C173 0.929 . S
H197 C174 0.929 . S
H198 C176 0.931 . S
H199 C177 0.930 . S
Pr200 C202 2.880 . S
Pr200 O220 2.562 . S
Pr200 O221 2.490 . S
Pr200 O222 2.695 . S
Pr200 O223 2.512 . S
Pr200 O225 2.437 . S
Pr200 O228 2.436 . S
Pr200 O230 2.438 . S
Pr201 C211 2.880 . S
Pr201 O222 2.436 . S
Pr201 O224 2.438 . S
Pr201 O226 2.562 . S
Pr201 O227 2.490 . S
Pr201 O228 2.695 . S
Pr201 O229 2.512 . S
Pr201 O231 2.437 . S
C202 Pr200 2.880 . S
C202 C203 1.491 1_556 S
C202 O220 1.254 . S
C202 O221 1.225 . S
C203 C202 1.491 1_554 S
C203 C204 1.392 . S
C203 C208 1.356 . S
C204 C203 1.392 . S
C204 C205 1.368 . S
C204 H232 0.929 . S
C205 C204 1.368 . S
C205 C206 1.386 . S
C205 H233 0.929 . S
C206 C205 1.386 . S
C206 C207 1.373 . S
C207 C206 1.373 . S
C207 C208 1.409 . S
C207 H234 0.931 . S
C208 C203 1.356 . S
C208 C207 1.409 . S
C208 H235 0.930 . S
C209 O222 1.270 . S
C209 O223 1.248 . S
C210 O224 1.267 . S
C210 O225 1.278 . S
C211 Pr201 2.880 . S
C211 C212 1.491 . S
C211 O226 1.254 . S
C211 O227 1.225 . S
C212 C211 1.491 . S
C212 C213 1.392 . S
C212 C217 1.356 . S
C213 C212 1.392 . S
C213 C214 1.368 . S
C213 H236 0.929 . S
C214 C213 1.368 . S
C214 C215 1.386 . S
C214 H237 0.929 . S
C215 C214 1.386 . S
C215 C216 1.373 . S
C216 C215 1.373 . S
C216 C217 1.409 . S
C216 H238 0.931 . S
C217 C212 1.356 . S
C217 C216 1.409 . S
C217 H239 0.930 . S
C218 O228 1.270 . S
C218 O229 1.248 . S
C219 O230 1.267 . S
C219 O231 1.278 . S
O220 Pr200 2.562 . S
O220 C202 1.254 . S
O221 Pr200 2.490 . S
O221 C202 1.225 . S
O222 Pr200 2.695 . S
O222 Pr201 2.436 . S
O222 C209 1.270 . S
O223 Pr200 2.512 . S
O223 C209 1.248 . S
O224 Pr201 2.438 . S
O224 C210 1.267 . S
O225 Pr200 2.437 . S
O225 C210 1.278 . S
O226 Pr201 2.562 . S
O226 C211 1.254 . S
O227 Pr201 2.490 . S
O227 C211 1.225 . S
O228 Pr200 2.436 . S
O228 Pr201 2.695 . S
O228 C218 1.270 . S
O229 Pr201 2.512 . S
O229 C218 1.248 . S
O230 Pr200 2.438 . S
O230 C219 1.267 . S
O231 Pr201 2.437 . S
O231 C219 1.278 . S
H232 C204 0.929 . S
H233 C205 0.929 . S
H234 C207 0.931 . S
H235 C208 0.930 . S
H236 C213 0.929 . S
H237 C214 0.929 . S
H238 C216 0.931 . S
H239 C217 0.930 . S
Pr240 C242 2.880 . S
Pr240 O260 2.562 . S
Pr240 O261 2.490 . S
Pr240 O262 2.695 1_556 S
Pr240 O263 2.512 . S
Pr240 O265 2.437 . S
Pr240 O268 2.436 . S
Pr240 O270 2.438 . S
Pr241 C251 2.880 . S
Pr241 O262 2.436 . S
Pr241 O264 2.438 . S
Pr241 O266 2.562 . S
Pr241 O267 2.490 . S
Pr241 O268 2.695 1_554 S
Pr241 O269 2.512 . S
Pr241 O271 2.437 . S
C242 Pr240 2.880 . S
C242 C243 1.491 . S
C242 O260 1.254 . S
C242 O261 1.225 . S
C243 C242 1.491 . S
C243 C244 1.392 . S
C243 C248 1.356 . S
C244 C243 1.392 . S
C244 C245 1.368 . S
C244 H272 0.929 . S
C245 C244 1.368 . S
C245 C246 1.386 . S
C245 H273 0.929 . S
C246 C245 1.386 . S
C246 C247 1.373 . S
C247 C246 1.373 . S
C247 C248 1.409 . S
C247 H274 0.931 . S
C248 C243 1.356 . S
C248 C247 1.409 . S
C248 H275 0.930 . S
C249 O262 1.270 . S
C249 O263 1.248 1_554 S
C250 O264 1.267 1_556 S
C250 O265 1.278 . S
C251 Pr241 2.880 . S
C251 C252 1.491 . S
C251 O266 1.254 . S
C251 O267 1.225 . S
C252 C251 1.491 . S
C252 C253 1.392 . S
C252 C257 1.356 . S
C253 C252 1.392 . S
C253 C254 1.368 . S
C253 H276 0.929 . S
C254 C253 1.368 . S
C254 C255 1.386 . S
C254 H277 0.929 . S
C255 C254 1.386 . S
C255 C256 1.373 . S
C256 C255 1.373 . S
C256 C257 1.409 . S
C256 H278 0.931 . S
C257 C252 1.356 . S
C257 C256 1.409 . S
C257 H279 0.930 . S
C258 O268 1.270 . S
C258 O269 1.248 1_556 S
C259 O270 1.267 1_554 S
C259 O271 1.278 . S
O260 Pr240 2.562 . S
O260 C242 1.254 . S
O261 Pr240 2.490 . S
O261 C242 1.225 . S
O262 Pr240 2.695 1_554 S
O262 Pr241 2.436 . S
O262 C249 1.270 . S
O263 Pr240 2.512 . S
O263 C249 1.248 1_556 S
O264 Pr241 2.438 . S
O264 C250 1.267 1_554 S
O265 Pr240 2.437 . S
O265 C250 1.278 . S
O266 Pr241 2.562 . S
O266 C251 1.254 . S
O267 Pr241 2.490 . S
O267 C251 1.225 . S
O268 Pr240 2.436 . S
O268 Pr241 2.695 1_556 S
O268 C258 1.270 . S
O269 Pr241 2.512 . S
O269 C258 1.248 1_554 S
O270 Pr240 2.438 . S
O270 C259 1.267 1_556 S
O271 Pr241 2.437 . S
O271 C259 1.278 . S
H272 C244 0.929 . S
H273 C245 0.929 . S
H274 C247 0.931 . S
H275 C248 0.930 . S
H276 C253 0.929 . S
H277 C254 0.929 . S
H278 C256 0.931 . S
H279 C257 0.930 . S
Pr280 C282 2.880 1_455 S
Pr280 O300 2.562 . S
Pr280 O301 2.490 1_455 S
Pr280 O302 2.695 1_455 S
Pr280 O303 2.512 1_455 S
Pr280 O305 2.437 1_455 S
Pr280 O308 2.436 . S
Pr280 O310 2.438 . S
Pr281 C291 2.880 1_655 S
Pr281 O302 2.436 . S
Pr281 O304 2.438 . S
Pr281 O306 2.562 . S
Pr281 O307 2.490 1_655 S
Pr281 O308 2.695 1_655 S
Pr281 O309 2.512 1_655 S
Pr281 O311 2.437 1_655 S
C282 Pr280 2.880 1_655 S
C282 C283 1.491 . S
C282 O300 1.254 1_655 S
C282 O301 1.225 . S
C283 C282 1.491 . S
C283 C284 1.392 . S
C283 C288 1.356 . S
C284 C283 1.392 . S
C284 C285 1.368 . S
C284 H312 0.929 . S
C285 C284 1.368 . S
C285 C286 1.386 . S
C285 H313 0.929 . S
C286 C285 1.386 . S
C286 C287 1.373 . S
C287 C286 1.373 . S
C287 C288 1.409 . S
C287 H314 0.931 . S
C288 C283 1.356 . S
C288 C287 1.409 . S
C288 H315 0.930 1_655 S
C289 O302 1.270 . S
C289 O303 1.248 . S
C290 O304 1.267 . S
C290 O305 1.278 . S
C291 Pr281 2.880 1_455 S
C291 C292 1.491 . S
C291 O306 1.254 1_455 S
C291 O307 1.225 . S
C292 C291 1.491 . S
C292 C293 1.392 . S
C292 C297 1.356 . S
C293 C292 1.392 . S
C293 C294 1.368 . S
C293 H316 0.929 . S
C294 C293 1.368 . S
C294 C295 1.386 . S
C294 H317 0.929 . S
C295 C294 1.386 . S
C295 C296 1.373 . S
C296 C295 1.373 . S
C296 C297 1.409 . S
C296 H318 0.931 . S
C297 C292 1.356 . S
C297 C296 1.409 . S
C297 H319 0.930 1_455 S
C298 O308 1.270 . S
C298 O309 1.248 . S
C299 O310 1.267 . S
C299 O311 1.278 . S
O300 Pr280 2.562 . S
O300 C282 1.254 1_455 S
O301 Pr280 2.490 1_655 S
O301 C282 1.225 . S
O302 Pr280 2.695 1_655 S
O302 Pr281 2.436 . S
O302 C289 1.270 . S
O303 Pr280 2.512 1_655 S
O303 C289 1.248 . S
O304 Pr281 2.438 . S
O304 C290 1.267 . S
O305 Pr280 2.437 1_655 S
O305 C290 1.278 . S
O306 Pr281 2.562 . S
O306 C291 1.254 1_655 S
O307 Pr281 2.490 1_455 S
O307 C291 1.225 . S
O308 Pr280 2.436 . S
O308 Pr281 2.695 1_455 S
O308 C298 1.270 . S
O309 Pr281 2.512 1_455 S
O309 C298 1.248 . S
O310 Pr280 2.438 . S
O310 C299 1.267 . S
O311 Pr281 2.437 1_455 S
O311 C299 1.278 . S
H312 C284 0.929 . S
H313 C285 0.929 . S
H314 C287 0.931 . S
H315 C288 0.930 1_455 S
H316 C293 0.929 . S
H317 C294 0.929 . S
H318 C296 0.931 . S
H319 C297 0.930 1_655 S
C320 C321 1.170 . S
C320 C322 1.380 . S
C321 C320 1.170 . S
C322 C320 1.380 . S
C322 C323 1.170 . S
C323 C322 1.170 . S
C324 C325 1.170 . S
C324 C326 1.380 . S
C325 C324 1.170 . S
C326 C324 1.380 . S
C326 C327 1.170 . S
C327 C326 1.170 . S
C328 C329 1.170 . S
C328 C330 1.380 . S
C329 C328 1.170 . S
C330 C328 1.380 . S
C330 C331 1.170 . S
C331 C330 1.170 . S
C332 C333 1.170 . S
C332 C334 1.380 . S
C333 C332 1.170 . S
C334 C332 1.380 . S
C334 C335 1.170 . S
C335 C334 1.170 . S
C336 C337 1.170 . S
C336 C338 1.380 . S
C337 C336 1.170 . S
C338 C336 1.380 . S
C338 C339 1.170 . S
C339 C338 1.170 . S
C340 C341 1.170 . S
C340 C342 1.380 . S
C341 C340 1.170 . S
C342 C340 1.380 . S
C342 C343 1.170 . S
C343 C342 1.170 . S
C344 C345 1.170 . S
C344 C346 1.380 . S
C345 C344 1.170 . S
C346 C344 1.380 . S
C346 C347 1.170 . S
C347 C346 1.170 . S
C348 C349 1.170 . S
C348 C350 1.380 . S
C349 C348 1.170 . S
C350 C348 1.380 . S
C350 C351 1.170 . S
C351 C350 1.170 . S
C352 C353 1.170 . S
C352 C354 1.380 . S
C353 C352 1.170 . S
C354 C352 1.380 . S
C354 C355 1.170 . S
C355 C354 1.170 . S
C356 C357 1.170 . S
C356 C358 1.380 . S
C357 C356 1.170 . S
C358 C356 1.380 . S
C358 C359 1.170 . S
C359 C358 1.170 . S
C360 C361 1.170 . S
C360 C362 1.380 . S
C361 C360 1.170 . S
C362 C360 1.380 . S
C362 C363 1.170 . S
C363 C362 1.170 . S
C364 C365 1.170 . S
C364 C366 1.380 . S
C365 C364 1.170 . S
C366 C364 1.380 . S
C366 C367 1.170 . S
C367 C366 1.170 . S
C368 C369 1.170 . S
C368 C370 1.380 . S
C369 C368 1.170 . S
C370 C368 1.380 . S
C370 C371 1.170 . S
C371 C370 1.170 . S
C372 C373 1.170 . S
C372 C374 1.380 . S
C373 C372 1.170 . S
C374 C372 1.380 . S
C374 C375 1.170 . S
C375 C374 1.170 . S
C376 C377 1.170 . S
C376 C378 1.380 . S
C377 C376 1.170 . S
C378 C376 1.380 . S
C378 C379 1.170 . S
C379 C378 1.170 . S
C380 C381 1.170 . S
C380 C382 1.380 . S
C381 C380 1.170 . S
C382 C380 1.380 . S
C382 C383 1.170 . S
C383 C382 1.170 . S
C384 C385 1.170 . S
C384 C386 1.380 1_646 S
C385 C384 1.170 . S
C386 C384 1.380 1_464 S
C386 C387 1.170 . S
C387 C386 1.170 . S
C388 C389 1.170 . S
C388 C390 1.380 . S
C389 C388 1.170 . S
C390 C388 1.380 . S
C390 C391 1.170 . S
C391 C390 1.170 . S
C392 C393 1.170 . S
C392 C394 1.380 . S
C393 C392 1.170 . S
C394 C392 1.380 . S
C394 C395 1.170 1_545 S
C395 C394 1.170 1_565 S
C396 C397 1.170 . S
C396 C398 1.380 . S
C397 C396 1.170 . S
C398 C396 1.380 . S
C398 C399 1.170 . S
C399 C398 1.170 . S
C400 C401 1.170 . S
C400 C402 1.380 . S
C401 C400 1.170 . S
C402 C400 1.380 . S
C402 C403 1.170 . S
C403 C402 1.170 . S
C404 C405 1.170 . S
C404 C406 1.380 . S
C405 C404 1.170 . S
C406 C404 1.380 . S
C406 C407 1.170 . S
C407 C406 1.170 . S
C408 C409 1.170 . S
C408 C410 1.380 . S
C409 C408 1.170 . S
C410 C408 1.380 . S
C410 C411 1.170 . S
C411 C410 1.170 . S
C412 C413 1.170 . S
C412 C414 1.380 1_656 S
C413 C412 1.170 . S
C414 C412 1.380 1_454 S
C414 C415 1.170 . S
C415 C414 1.170 . S
C321 C10 1.983 . S
C323 C130 1.984 . S
C325 C9 1.522 . S
C327 C50 1.562 . S
C329 C49 0.994 . S
C331 C89 1.000 . S
C333 C90 1.558 . S
C335 C129 1.522 . S
C337 C19 1.981 . S
C339 C219 1.984 . S
C341 C18 1.545 . S
C343 C179 1.549 . S
C345 C178 1.012 . S
C347 C98 0.990 . S
C349 C218 1.548 . S
C351 C99 1.553 . S
C353 C250 1.984 . S
C355 C210 1.982 . S
C357 C170 1.557 . S
C359 C249 1.543 . S
C361 C289 0.999 . S
C363 C169 0.995 . S
C365 C209 1.548 . S
C367 C290 1.550 . S
C369 C139 1.982 . S
C371 C259 1.980 . S
C373 C258 1.541 . S
C375 C59 1.556 . S
C377 C58 1.012 . S
C379 C298 0.990 . S
C381 C138 1.523 . S
C383 C299 1.560 . S
C385 C15 1.793 . S
C387 C6 1.824 . S
C389 C46 1.469 . S
C391 C55 1.445 . S
C393 C95 1.457 . S
C395 C86 1.477 . S
C397 C135 1.834 . S
C399 C126 1.797 . S
C401 C166 1.445 . S
C403 C175 1.469 . S
C405 C215 1.831 . S
C407 C206 1.791 . S
C409 C246 1.791 . S
C411 C255 1.832 . S
C413 C286 1.477 . S
C415 C295 1.441 . S
