# Generated by pormake.
# Topology wli, (5)-cn, num edge types: 1
# Building blocks:
#     Node 0, Type 0, BuildingBlock: XOMCOT_clean_sbu_0, # of connection points: 5
#     Node 1, Type 0, BuildingBlock: XOMCOT_clean_sbu_0, # of connection points: 5
#     Node 2, Type 0, BuildingBlock: XOMCOT_clean_sbu_0, # of connection points: 5
#     Node 3, Type 0, BuildingBlock: XOMCOT_clean_sbu_0, # of connection points: 5
#     Node 4, Type 0, BuildingBlock: XOMCOT_clean_sbu_0, # of connection points: 5
#     Node 5, Type 0, BuildingBlock: XOMCOT_clean_sbu_0, # of connection points: 5
#     Edge 6, Type (0, 0), BuildingBlock: XUDNAN_clean_linker_2, # of connection points: 2
#     Edge 7, Type (0, 0), BuildingBlock: XUDNAN_clean_linker_2, # of connection points: 2
#     Edge 8, Type (0, 0), BuildingBlock: XUDNAN_clean_linker_2, # of connection points: 2
#     Edge 9, Type (0, 0), BuildingBlock: XUDNAN_clean_linker_2, # of connection points: 2
#     Edge 10, Type (0, 0), BuildingBlock: XUDNAN_clean_linker_2, # of connection points: 2
#     Edge 11, Type (0, 0), BuildingBlock: XUDNAN_clean_linker_2, # of connection points: 2
#     Edge 12, Type (0, 0), BuildingBlock: XUDNAN_clean_linker_2, # of connection points: 2
#     Edge 13, Type (0, 0), BuildingBlock: XUDNAN_clean_linker_2, # of connection points: 2
#     Edge 14, Type (0, 0), BuildingBlock: XUDNAN_clean_linker_2, # of connection points: 2
#     Edge 15, Type (0, 0), BuildingBlock: XUDNAN_clean_linker_2, # of connection points: 2
#     Edge 16, Type (0, 0), BuildingBlock: XUDNAN_clean_linker_2, # of connection points: 2
#     Edge 17, Type (0, 0), BuildingBlock: XUDNAN_clean_linker_2, # of connection points: 2
#     Edge 18, Type (0, 0), BuildingBlock: XUDNAN_clean_linker_2, # of connection points: 2
#     Edge 19, Type (0, 0), BuildingBlock: XUDNAN_clean_linker_2, # of connection points: 2
#     Edge 20, Type (0, 0), BuildingBlock: XUDNAN_clean_linker_2, # of connection points: 2
# Relax obj value: 0.131
# Max RMSD: 0.157
# Mean RMSD: 0.157
data_MOF--net-wli--node1-XOMCOT_clean_sbu_0--edge1-XUDNAN_clean_linker_2
_symmetry_space_group_name_H-M    P1
_symmetry_Int_Tables_number       1
_symmetry_cell_setting            triclinic
loop_
_symmetry_equiv_pos_as_xyz
'x, y, z'
_cell_length_a     36.498523
_cell_length_b     36.599842
_cell_length_c     26.433763
_cell_angle_alpha  89.942486
_cell_angle_beta   90.564817
_cell_angle_gamma 120.00672
loop_
_atom_site_label
_atom_site_type_symbol
_atom_site_fract_x
_atom_site_fract_y
_atom_site_fract_z
_atom_type_partial_charge
Co0 Co 0.23249 0.43475 0.11931 0.0
C1 C 0.16281 0.39418 0.19184 0.0
C2 C 0.20817 0.37383 0.20319 0.0
C3 C 0.17652 0.35421 0.23837 0.0
N4 N 0.19938 0.39877 0.1741 0.0
N5 N 0.14822 0.36727 0.23127 0.0
H6 H 0.14727 0.41033 0.17625 0.0
H7 H 0.23591 0.3706 0.19973 0.0
C8 C 0.29772 0.41149 0.10302 0.0
O9 O 0.32527 0.45162 0.11026 0.0
N10 N 0.26544 0.46993 0.06323 0.0
C11 C 0.26575 0.45477 0.01681 0.0
C12 C 0.29621 0.48648 0.98829 0.0
C13 C 0.29617 0.51101 0.06224 0.0
N14 N 0.31554 0.52174 0.01685 0.0
C15 C 0.1685 0.42017 0.04663 0.0
C16 C 0.14273 0.33638 0.02733 0.0
C17 C 0.12541 0.35635 0.99846 0.0
C18 C 0.13789 0.39848 1.00932 0.0
C19 C 0.17292 0.3591 0.0649 0.0
N20 N 0.18645 0.40084 0.07276 0.0
H21 H 0.17923 0.45317 0.05312 0.0
H22 H 0.18597 0.34333 0.08688 0.0
H23 H 0.24636 0.42226 1.00499 0.0
H24 H 0.3058 0.53207 0.0945 0.0
O25 O 0.21583 0.47506 0.1381 0.0
O26 O 0.27235 0.47474 0.16875 0.0
O27 O 0.25827 0.39825 0.10744 0.0
C28 C 0.24801 0.49141 0.16904 0.0
H29 H 0.17519 0.3331 0.26792 0.0
H30 H 0.30407 0.48354 0.94969 0.0
H31 H 0.13335 0.30365 0.02055 0.0
H32 H 0.12552 0.41514 0.98765 0.0
Co33 Co 0.59606 0.79492 0.78 0.0
C34 C 0.657 0.78696 0.85023 0.0
C35 C 0.65683 0.845 0.85997 0.0
C36 C 0.68343 0.84326 0.89579 0.0
N37 N 0.64127 0.81048 0.83 0.0
N38 N 0.68338 0.80671 0.88984 0.0
H39 H 0.64841 0.75557 0.83785 0.0
H40 H 0.6482 0.86923 0.85723 0.0
C41 C 0.65969 0.88353 0.75298 0.0
O42 O 0.68811 0.87175 0.75862 0.0
N43 N 0.54966 0.77811 0.73213 0.0
C44 C 0.53618 0.74564 0.69922 0.0
C45 C 0.5012 0.74094 0.6737 0.0
C46 C 0.52165 0.79193 0.72738 0.0
N47 N 0.49195 0.76981 0.69148 0.0
C48 C 0.63373 0.75228 0.72745 0.0
C49 C 0.64797 0.79724 0.63876 0.0
C50 C 0.65235 0.76137 0.63833 0.0
C51 C 0.64622 0.7394 0.68399 0.0
C52 C 0.63408 0.80797 0.68198 0.0
N53 N 0.6275 0.78614 0.72618 0.0
H54 H 0.62538 0.73261 0.76051 0.0
H55 H 0.62521 0.83182 0.67796 0.0
H56 H 0.55017 0.72589 0.69479 0.0
H57 H 0.52269 0.81714 0.74987 0.0
O58 O 0.56644 0.73876 0.80797 0.0
O59 O 0.55992 0.79279 0.83412 0.0
O60 O 0.62048 0.85668 0.76027 0.0
C61 C 0.54878 0.75315 0.83853 0.0
H62 H 0.70021 0.86629 0.92537 0.0
H63 H 0.48297 0.71715 0.6454 0.0
H64 H 0.65282 0.81582 0.60499 0.0
H65 H 0.64829 0.71092 0.68547 0.0
Co66 Co 0.23062 0.80061 0.45531 0.0
C67 C 0.26037 0.87533 0.52319 0.0
C68 C 0.19543 0.82841 0.53515 0.0
C69 C 0.20609 0.86138 0.56796 0.0
N70 N 0.22931 0.8372 0.50699 0.0
N71 N 0.24703 0.89101 0.56079 0.0
H72 H 0.29202 0.89078 0.50806 0.0
H73 H 0.16499 0.79989 0.53211 0.0
C74 C 0.13903 0.7459 0.43126 0.0
O75 O 0.14341 0.71317 0.44165 0.0
N76 N 0.23058 0.76368 0.40223 0.0
C77 C 0.21502 0.76222 0.35533 0.0
C78 C 0.21808 0.73255 0.32718 0.0
C79 C 0.24319 0.73453 0.4018 0.0
N80 N 0.23556 0.71492 0.35624 0.0
C81 C 0.28964 0.85732 0.38544 0.0
C82 C 0.24073 0.88946 0.34724 0.0
C83 C 0.27779 0.8978 0.32203 0.0
C84 C 0.30337 0.88321 0.34329 0.0
C85 C 0.2283 0.86364 0.39016 0.0
N86 N 0.25164 0.84613 0.40677 0.0
H87 H 0.30828 0.84376 0.39875 0.0
H88 H 0.19901 0.85614 0.40835 0.0
H89 H 0.20181 0.7813 0.34245 0.0
H90 H 0.25664 0.72701 0.43402 0.0
O91 O 0.28422 0.81048 0.48064 0.0
O92 O 0.22223 0.75954 0.50779 0.0
O93 O 0.17054 0.78313 0.43632 0.0
C94 C 0.26348 0.77932 0.51124 0.0
H95 H 0.18482 0.86321 0.59466 0.0
H96 H 0.2083 0.72468 0.28802 0.0
H97 H 0.22042 0.90073 0.33241 0.0
H98 H 0.33289 0.89001 0.32597 0.0
Co99 Co 0.44656 0.19646 0.91292 0.0
C100 C 0.40204 0.15132 0.81827 0.0
C101 C 0.36103 0.16057 0.86744 0.0
C102 C 0.33732 0.13515 0.82752 0.0
N103 N 0.40171 0.17056 0.86185 0.0
N104 N 0.36328 0.12943 0.79674 0.0
H105 H 0.42917 0.15032 0.80422 0.0
H106 H 0.34882 0.16881 0.89991 0.0
C107 C 0.42682 0.26546 0.93168 0.0
O108 O 0.45657 0.29007 0.90012 0.0
N109 N 0.49124 0.22181 0.96341 0.0
C110 C 0.50801 0.20144 0.98847 0.0
C111 C 0.54356 0.23057 0.0144 0.0
C112 C 0.51683 0.26313 0.97439 0.0
N113 N 0.549 0.26922 1.0055 0.0
C114 C 0.39713 0.11053 0.94245 0.0
C115 C 0.38727 0.12613 0.04234 0.0
C116 C 0.37182 0.08423 0.02653 0.0
C117 C 0.37577 0.07674 0.97529 0.0
C118 C 0.40729 0.15903 1.00773 0.0
N119 N 0.41283 0.15095 0.95886 0.0
H120 H 0.40189 0.10428 0.90385 0.0
H121 H 0.42024 0.19117 0.02082 0.0
H122 H 0.49625 0.16786 0.98612 0.0
H123 H 0.51375 0.2884 0.95759 0.0
O124 O 0.47661 0.17225 0.88175 0.0
O125 O 0.48541 0.23522 0.86272 0.0
O126 O 0.41955 0.22821 0.94019 0.0
C127 C 0.49603 0.20648 0.85524 0.0
H128 H 0.3034 0.12068 0.8226 0.0
H129 H 0.56458 0.22404 0.03688 0.0
H130 H 0.38571 0.13384 0.08147 0.0
H131 H 0.3634 0.04508 0.96063 0.0
Co132 Co 0.83377 0.2574 0.57724 0.0
C133 C 0.89968 0.27376 0.50161 0.0
C134 C 0.85215 0.20858 0.50109 0.0
C135 C 0.8803 0.21544 0.46275 0.0
N136 N 0.86508 0.24499 0.52683 0.0
N137 N 0.91001 0.2566 0.46309 0.0
H138 H 0.91595 0.30724 0.50931 0.0
H139 H 0.82288 0.1795 0.50724 0.0
C140 C 0.80935 0.16913 0.60724 0.0
O141 O 0.84978 0.18093 0.60623 0.0
N142 N 0.80232 0.27049 0.62489 0.0
C143 C 0.81723 0.30477 0.65494 0.0
C144 C 0.78387 0.30277 0.68124 0.0
C145 C 0.76035 0.24845 0.63256 0.0
N146 N 0.7481 0.2673 0.66711 0.0
C147 C 0.91651 0.29069 0.62448 0.0
C148 C 0.88735 0.25131 0.7166 0.0
C149 C 0.93095 0.27527 0.70882 0.0
C150 C 0.94553 0.29542 0.66234 0.0
C151 C 0.85943 0.2466 0.67731 0.0
N152 N 0.87407 0.26499 0.63119 0.0
H153 H 0.92844 0.30844 0.59036 0.0
H154 H 0.82583 0.22781 0.68394 0.0
H155 H 0.85004 0.3294 0.65754 0.0
H156 H 0.73927 0.21962 0.61242 0.0
O157 O 0.85967 0.31469 0.55288 0.0
O158 O 0.79967 0.26097 0.52305 0.0
O159 O 0.79724 0.19526 0.59457 0.0
C160 C 0.82786 0.30093 0.52138 0.0
H161 H 0.87753 0.19258 0.43478 0.0
H162 H 0.78604 0.3254 0.70913 0.0
H163 H 0.87498 0.23583 0.75244 0.0
H164 H 0.97909 0.31539 0.65573 0.0
Co165 Co 0.7834 0.58781 0.22749 0.0
C166 C 0.77459 0.646 0.15255 0.0
C167 C 0.83148 0.64301 0.14462 0.0
C168 C 0.83124 0.66991 0.10855 0.0
N169 N 0.79661 0.62871 0.17329 0.0
N170 N 0.79549 0.67169 0.11341 0.0
H171 H 0.74429 0.64045 0.16531 0.0
H172 H 0.85565 0.63444 0.14978 0.0
C173 C 0.86692 0.66104 0.25789 0.0
O174 O 0.85108 0.68498 0.24463 0.0
N175 N 0.77074 0.54633 0.2796 0.0
C176 C 0.7344 0.52523 0.30533 0.0
C177 C 0.73666 0.49568 0.33543 0.0
C178 C 0.79451 0.52934 0.29398 0.0
N179 N 0.77444 0.49815 0.32823 0.0
C180 C 0.72803 0.61657 0.26417 0.0
C181 C 0.77048 0.64954 0.35465 0.0
C182 C 0.73325 0.65074 0.34492 0.0
C183 C 0.71171 0.63333 0.29901 0.0
C184 C 0.78498 0.63148 0.31941 0.0
N185 N 0.76521 0.61728 0.27352 0.0
H186 H 0.70958 0.60119 0.23072 0.0
H187 H 0.81144 0.62769 0.33027 0.0
H188 H 0.70764 0.53012 0.30131 0.0
H189 H 0.82553 0.53929 0.2789 0.0
O190 O 0.72972 0.55004 0.19487 0.0
O191 O 0.79009 0.55155 0.17996 0.0
O192 O 0.84412 0.62088 0.25359 0.0
C193 C 0.74968 0.53439 0.17073 0.0
H194 H 0.85537 0.68672 0.08053 0.0
H195 H 0.7116 0.47307 0.35923 0.0
H196 H 0.78832 0.66194 0.38946 0.0
H197 H 0.68167 0.63126 0.29049 0.0
H198 H 0.18798 0.65235 0.29022 0.0
H199 H 0.30006 0.70187 0.38562 0.0
H200 H 0.31597 0.6485 0.35002 0.0
H201 H 0.15912 0.54193 0.29617 0.0
H202 H 0.14109 0.53233 0.23127 0.0
H203 H 0.13782 0.57219 0.26758 0.0
H204 H 0.18105 0.6277 0.19918 0.0
H205 H 0.1848 0.58814 0.16292 0.0
H206 H 0.23221 0.63582 0.18165 0.0
H207 H 0.32101 0.59104 0.29782 0.0
H208 H 0.31276 0.53457 0.23871 0.0
H209 H 0.19782 0.52614 0.17838 0.0
C210 C 0.21585 0.65198 0.30385 0.0
C211 C 0.24299 0.68148 0.34038 0.0
C212 C 0.27871 0.67937 0.35786 0.0
C213 C 0.28805 0.64933 0.33761 0.0
C214 C 0.26111 0.6215 0.30035 0.0
C215 C 0.22548 0.62247 0.2842 0.0
C216 C 0.20187 0.59032 0.24305 0.0
C217 C 0.15734 0.55723 0.26059 0.0
C218 C 0.1999 0.61179 0.1938 0.0
C219 C 0.23004 0.57135 0.23761 0.0
C220 C 0.26401 0.58935 0.27095 0.0
C221 C 0.29436 0.5767 0.27181 0.0
C222 C 0.28953 0.54473 0.23803 0.0
C223 C 0.25475 0.52603 0.20381 0.0
C224 C 0.22488 0.5398 0.20387 0.0
H225 H 0.51312 0.66771 0.84779 0.0
H226 H 0.51066 0.77576 0.91116 0.0
H227 H 0.45354 0.72849 0.96892 0.0
H228 H 0.40329 0.59949 0.84621 0.0
H229 H 0.40584 0.55293 0.86228 0.0
H230 H 0.44904 0.59564 0.82958 0.0
H231 H 0.50105 0.60031 0.90019 0.0
H232 H 0.45795 0.55746 0.9331 0.0
H233 H 0.49071 0.60703 0.96507 0.0
H234 H 0.39358 0.66823 0.01678 0.0
H235 H 0.33484 0.60025 0.04782 0.0
H236 H 0.37727 0.53289 0.95205 0.0
C237 C 0.50103 0.68155 0.87432 0.0
C238 C 0.51644 0.72541 0.87518 0.0
C239 C 0.49938 0.74221 0.90999 0.0
C240 C 0.46701 0.71563 0.94302 0.0
C241 C 0.45214 0.67239 0.94076 0.0
C242 C 0.46868 0.65552 0.90728 0.0
C243 C 0.44569 0.6079 0.91013 0.0
C244 C 0.42472 0.58783 0.85902 0.0
C245 C 0.47564 0.59226 0.92821 0.0
C246 C 0.41307 0.60049 0.9497 0.0
C247 C 0.41749 0.63798 0.96747 0.0
C248 C 0.39003 0.6387 1.00334 0.0
C249 C 0.35689 0.60003 0.0209 0.0
C250 C 0.35132 0.56136 1.00208 0.0
C251 C 0.3803 0.5619 0.96664 0.0
H252 H 0.3302 0.7697 0.49034 0.0
H253 H 0.25216 0.76777 0.61373 0.0
H254 H 0.30319 0.76598 0.6754 0.0
H255 H 0.36281 0.69868 0.54961 0.0
H256 H 0.41475 0.72718 0.52234 0.0
H257 H 0.37008 0.72485 0.48966 0.0
H258 H 0.40973 0.80656 0.48675 0.0
H259 H 0.45403 0.80923 0.52059 0.0
H260 H 0.42801 0.83626 0.54495 0.0
H261 H 0.36871 0.77317 0.72302 0.0
H262 H 0.43553 0.77643 0.75147 0.0
H263 H 0.46706 0.77008 0.59561 0.0
C264 C 0.32328 0.76765 0.53036 0.0
C265 C 0.28723 0.76835 0.54757 0.0
C266 C 0.27929 0.76634 0.60003 0.0
C267 C 0.30833 0.7658 0.63517 0.0
C268 C 0.34456 0.76662 0.6169 0.0
C269 C 0.35137 0.76636 0.56555 0.0
C270 C 0.3926 0.76757 0.55506 0.0
C271 C 0.38457 0.72716 0.52756 0.0
C272 C 0.42286 0.80727 0.52508 0.0
C273 C 0.4086 0.76946 0.60846 0.0
C274 C 0.38086 0.76933 0.64382 0.0
C275 C 0.39029 0.77271 0.69558 0.0
C276 C 0.42839 0.77503 0.71143 0.0
C277 C 0.45612 0.77345 0.67561 0.0
C278 C 0.44614 0.77109 0.62364 0.0
H279 H 0.56769 0.2781 0.82277 0.0
H280 H 0.49414 0.14221 0.80336 0.0
H281 H 0.54819 0.14449 0.74669 0.0
H282 H 0.61272 0.30296 0.69237 0.0
H283 H 0.66366 0.34389 0.71487 0.0
H284 H 0.61639 0.33285 0.74826 0.0
H285 H 0.6482 0.32152 0.83082 0.0
H286 H 0.69533 0.33215 0.79767 0.0
H287 H 0.66566 0.28334 0.83159 0.0
H288 H 0.61211 0.15934 0.70017 0.0
H289 H 0.68307 0.18631 0.66526 0.0
H290 H 0.71725 0.31304 0.71355 0.0
C291 C 0.56261 0.24915 0.80531 0.0
C292 C 0.52664 0.21006 0.8169 0.0
C293 C 0.52143 0.17252 0.79474 0.0
C294 C 0.55188 0.17346 0.76237 0.0
C295 C 0.58757 0.21219 0.75268 0.0
C296 C 0.5932 0.24945 0.77321 0.0
C297 C 0.63637 0.28612 0.75989 0.0
C298 C 0.63201 0.31836 0.72687 0.0
C299 C 0.66295 0.30699 0.80785 0.0
C300 C 0.65426 0.26331 0.72997 0.0
C301 C 0.62527 0.2208 0.72585 0.0
C302 C 0.63492 0.19273 0.70227 0.0
C303 C 0.67541 0.20846 0.68232 0.0
C304 C 0.70596 0.25194 0.6861 0.0
C305 C 0.69488 0.27965 0.71004 0.0
H306 H 0.74585 0.45099 0.41415 0.0
H307 H 0.83558 0.48325 0.29202 0.0
H308 H 0.85872 0.43602 0.32824 0.0
H309 H 0.81067 0.44356 0.51225 0.0
H310 H 0.767 0.39938 0.54274 0.0
H311 H 0.75827 0.43673 0.50792 0.0
H312 H 0.70108 0.37591 0.45308 0.0
H313 H 0.70972 0.33838 0.48762 0.0
H314 H 0.71441 0.34125 0.41972 0.0
H315 H 0.8723 0.38507 0.37782 0.0
H316 H 0.87469 0.33395 0.43748 0.0
H317 H 0.77428 0.33247 0.52471 0.0
C318 C 0.77015 0.44805 0.39464 0.0
C319 C 0.78881 0.47117 0.35004 0.0
C320 C 0.82106 0.46659 0.3265 0.0
C321 C 0.83429 0.43952 0.34663 0.0
C322 C 0.81493 0.41705 0.39029 0.0
C323 C 0.78355 0.42101 0.41402 0.0
C324 C 0.76768 0.39313 0.46039 0.0
C325 C 0.77644 0.4198 0.50868 0.0
C326 C 0.72042 0.36021 0.45484 0.0
C327 C 0.79483 0.37261 0.45882 0.0
C328 C 0.82209 0.38706 0.41824 0.0
C329 C 0.85102 0.37347 0.40959 0.0
C330 C 0.85227 0.3446 0.44351 0.0
C331 C 0.82459 0.32947 0.48501 0.0
C332 C 0.79536 0.34338 0.49267 0.0
H333 H 0.54736 0.33711 0.04406 0.0
H334 H 0.63086 0.28983 1.00385 0.0
H335 H 0.69238 0.35578 0.03546 0.0
H336 H 0.62057 0.44941 0.01623 0.0
H337 H 0.60438 0.46775 0.07018 0.0
H338 H 0.56738 0.41881 0.03957 0.0
H339 H 0.55446 0.37968 0.12493 0.0
H340 H 0.59135 0.42841 0.15581 0.0
H341 H 0.59884 0.38341 0.16002 0.0
H342 H 0.74407 0.42471 0.07495 0.0
H343 H 0.7825 0.4907 0.12427 0.0
H344 H 0.66554 0.49288 0.14274 0.0
C345 C 0.57877 0.34122 0.04118 0.0
C346 C 0.58465 0.30872 0.02134 0.0
C347 C 0.62592 0.31446 0.01909 0.0
C348 C 0.66097 0.35184 0.03666 0.0
C349 C 0.65417 0.38309 0.05677 0.0
C350 C 0.61412 0.37818 0.05943 0.0
C351 C 0.61531 0.4153 0.08653 0.0
C352 C 0.60107 0.43923 0.05099 0.0
C353 C 0.5884 0.40082 0.13468 0.0
C354 C 0.66214 0.44146 0.09923 0.0
C355 C 0.684 0.42253 0.08103 0.0
C356 C 0.72737 0.43999 0.08914 0.0
C357 C 0.74894 0.47752 0.11719 0.0
C358 C 0.7271 0.49701 0.13729 0.0
C359 C 0.68318 0.47887 0.12762 0.0
H360 H 0.93708 0.30618 0.80444 0.0
H361 H 0.99344 0.25553 0.70311 0.0
H362 H 0.04574 0.26485 0.76966 0.0
H363 H 0.03398 0.38675 0.85542 0.0
H364 H 1.01422 0.38378 0.91841 0.0
H365 H 0.97872 0.36899 0.86488 0.0
H366 H 0.93069 0.29565 0.90483 0.0
H367 H 0.96614 0.31021 0.95852 0.0
H368 H 0.95306 0.26329 0.92267 0.0
H369 H 0.09302 0.28181 0.84609 0.0
H370 H 0.13612 0.31112 0.92392 0.0
H371 H 0.05097 0.35391 0.97398 0.0
C372 C 0.96008 0.29649 0.79676 0.0
C373 C 0.96122 0.27974 0.74914 0.0
C374 C 0.99222 0.26829 0.73962 0.0
C375 C 0.02179 0.27326 0.77718 0.0
C376 C 1.02007 0.29012 0.82378 0.0
C377 C 0.99027 0.30193 0.83354 0.0
C378 C 0.99741 0.32244 0.88518 0.0
C379 C 1.00665 0.3682 0.88067 0.0
C380 C 0.95957 0.29633 0.91984 0.0
C381 C 0.03619 0.3208 0.90268 0.0
C382 C 0.0483 0.30137 0.8671 0.0
C383 C 0.08371 0.29687 0.87436 0.0
C384 C 0.10785 0.31339 0.91876 0.0
C385 C 0.09677 0.33463 0.95492 0.0
C386 C 0.06015 0.33784 0.94691 0.0
H387 H 0.74098 0.65259 0.44981 0.0
H388 H 0.68774 0.69096 0.32668 0.0
H389 H 0.65893 0.71967 0.38862 0.0
H390 H 0.65921 0.62593 0.54024 0.0
H391 H 0.69499 0.64811 0.59345 0.0
H392 H 0.70958 0.62794 0.53986 0.0
H393 H 0.7783 0.69997 0.52976 0.0
H394 H 0.76408 0.72029 0.58352 0.0
H395 H 0.77495 0.74729 0.52373 0.0
H396 H 0.63431 0.74255 0.46306 0.0
H397 H 0.62082 0.76463 0.54487 0.0
H398 H 0.69751 0.72003 0.62014 0.0
C399 C 0.72378 0.66743 0.43542 0.0
C400 C 0.71643 0.66884 0.38279 0.0
C401 C 0.693 0.68817 0.3665 0.0
C402 C 0.67671 0.70496 0.40146 0.0
C403 C 0.68459 0.70292 0.45272 0.0
C404 C 0.70803 0.68521 0.46973 0.0
C405 C 0.7135 0.68893 0.52687 0.0
C406 C 0.6931 0.64511 0.55154 0.0
C407 C 0.7605 0.71572 0.54184 0.0
C408 C 0.68936 0.7115 0.53924 0.0
C409 C 0.67257 0.7187 0.49582 0.0
C410 C 0.64799 0.73786 0.49724 0.0
C411 C 0.64094 0.75075 0.54413 0.0
C412 C 0.65917 0.74544 0.58932 0.0
C413 C 0.68327 0.7249 0.5866 0.0
H414 H 0.32741 0.07565 0.11469 0.0
H415 H 0.37917 0.01321 0.02415 0.0
H416 H 0.35396 0.95615 0.08603 0.0
H417 H 0.36143 0.05537 0.23185 0.0
H418 H 0.31589 0.04757 0.26673 0.0
H419 H 0.33272 0.08126 0.21209 0.0
H420 H 0.25806 0.03695 0.17186 0.0
H421 H 0.24099 1.00304 0.22642 0.0
H422 H 0.2357 0.98081 0.16414 0.0
H423 H 0.32744 0.90794 0.15829 0.0
H424 H 0.30439 0.87273 0.24047 0.0
H425 H 0.27479 0.96821 0.28944 0.0
C426 C 0.33337 0.04998 0.1076 0.0
C427 C 0.35466 0.04889 0.06356 0.0
C428 C 0.36167 0.01444 0.05626 0.0
C429 C 0.34775 0.98185 0.09153 0.0
C430 C 0.32727 0.98417 0.13441 0.0
C431 C 0.32031 0.01738 0.14296 0.0
C432 C 0.30059 0.01365 0.19438 0.0
C433 C 0.32939 0.05172 0.22826 0.0
C434 C 0.25619 1.00829 0.18884 0.0
C435 C 0.29838 0.97354 0.21358 0.0
C436 C 0.31342 0.9569 0.17785 0.0
C437 C 0.31566 0.92064 0.18667 0.0
C438 C 0.30282 0.90111 0.23366 0.0
C439 C 0.28846 0.91813 0.27166 0.0
C440 C 0.2855 0.95444 0.26107 0.0
H441 H 0.44568 0.34757 0.94946 0.0
H442 H 0.35062 0.21691 0.97633 0.0
H443 H 0.30838 0.24015 0.02427 0.0
H444 H 0.43916 0.38568 0.07302 0.0
H445 H 0.44653 0.43534 0.05029 0.0
H446 H 0.4692 0.40879 0.01653 0.0
H447 H 0.43032 0.40998 0.93451 0.0
H448 H 0.40776 0.43676 0.96797 0.0
H449 H 0.37374 0.38799 0.93507 0.0
H450 H 0.27532 0.27688 0.06758 0.0
H451 H 0.25443 0.32538 0.10537 0.0
H452 H 0.37201 0.43245 0.05478 0.0
C453 C 0.41583 0.32392 0.9651 0.0
C454 C 0.40138 0.2804 0.95883 0.0
C455 C 0.36239 0.25042 0.98054 0.0
C456 C 0.33811 0.26328 1.00789 0.0
C457 C 0.35333 0.30629 0.01378 0.0
C458 C 0.39132 0.33624 0.99324 0.0
C459 C 0.40064 0.38048 1.00625 0.0
C460 C 0.44129 0.40395 0.03844 0.0
C461 C 0.40325 0.40525 0.95808 0.0
C462 C 0.36179 0.37059 0.03686 0.0
C463 C 0.33486 0.32758 0.04051 0.0
C464 C 0.29628 0.31064 0.06535 0.0
C465 C 0.28468 0.33841 0.0867 0.0
C466 C 0.31176 0.38263 0.08354 0.0
C467 C 0.35098 0.39879 0.05862 0.0
H468 H 0.82599 0.10827 0.64176 0.0
H469 H 0.72299 0.13357 0.61741 0.0
H470 H 0.67283 0.06354 0.65292 0.0
H471 H 0.76824 0.99784 0.61028 0.0
H472 H 0.79448 0.98386 0.6582 0.0
H473 H 0.82146 0.03548 0.63011 0.0
H474 H 0.83453 0.06961 0.7192 0.0
H475 H 0.80737 0.01808 0.74754 0.0
H476 H 0.79021 0.05557 0.76007 0.0
H477 H 0.6338 0.98939 0.69218 0.0
H478 H 0.61028 0.9191 0.7299 0.0
H479 H 0.73996 0.9448 0.72904 0.0
C480 C 0.79286 0.09915 0.64352 0.0
C481 C 0.77849 0.12648 0.62646 0.0
C482 C 0.73482 0.11316 0.62993 0.0
C483 C 0.70608 0.07344 0.65018 0.0
C484 C 0.72147 0.04741 0.66696 0.0
C485 C 0.76391 0.05985 0.66371 0.0
C486 C 0.77281 0.02652 0.68463 0.0
C487 C 0.79026 1.00995 0.64334 0.0
C488 C 0.80301 0.04347 0.73059 0.0
C489 C 0.72877 0.9932 0.70012 0.0
C490 C 0.69944 1.00562 0.68972 0.0
C491 C 0.65661 0.97948 0.7005 0.0
C492 C 0.64353 0.93962 0.72204 0.0
C493 C 0.67319 0.92631 0.73265 0.0
C494 C 0.71635 0.95384 0.72167 0.0
H495 H 0.06796 0.6717 0.40042 0.0
H496 H 0.11959 0.80728 0.40986 0.0
H497 H 0.05615 0.79968 0.36668 0.0
H498 H 1.02112 0.65767 0.27738 0.0
H499 H 0.97448 0.60811 0.29146 0.0
H500 H 0.02335 0.6234 0.32483 0.0
H501 H 0.98596 0.6147 0.41042 0.0
H502 H 0.9369 0.5991 0.37728 0.0
H503 H 0.95775 0.64267 0.42132 0.0
H504 H 0.98908 0.77861 0.32002 0.0
H505 H 0.92019 0.74482 0.27597 0.0
H506 H 0.90978 0.62218 0.29659 0.0
C507 C 0.06572 0.69973 0.3939 0.0
C508 C 0.099 0.74015 0.40862 0.0
C509 C 0.09479 0.776 0.39897 0.0
C510 C 0.05879 0.77203 0.37439 0.0
C511 C 0.02698 0.73198 0.35971 0.0
C512 C 0.02979 0.69635 0.36935 0.0
C513 C 0.99095 0.6571 0.34895 0.0
C514 C 1.00322 0.63529 0.30823 0.0
C515 C 0.96644 0.62659 0.39207 0.0
C516 C 0.96614 0.67639 0.32617 0.0
C517 C 0.9877 0.71965 0.33283 0.0
C518 C 0.97176 0.74473 0.31477 0.0
C519 C 0.93253 0.72514 0.28964 0.0
C520 C 0.90934 0.68076 0.28272 0.0
C521 C 0.92664 0.65615 0.30117 0.0
H522 H 0.95613 0.22751 0.41506 0.0
H523 H 0.93986 0.33655 0.42958 0.0
H524 H 0.9972 0.37539 0.36906 0.0
H525 H 0.06916 0.28625 0.41013 0.0
H526 H 0.07346 0.25177 0.36493 0.0
H527 H 0.02916 0.23122 0.40715 0.0
H528 H 0.97742 0.20346 0.3305 0.0
H529 H 0.02159 0.22388 0.28803 0.0
H530 H 0.98213 0.23944 0.28101 0.0
H531 H 0.05651 0.40291 0.30759 0.0
H532 H 0.11701 0.41872 0.25281 0.0
H533 H 0.09752 0.29331 0.27964 0.0
C534 C 0.96437 0.25936 0.40495 0.0
C535 C 0.9432 0.27883 0.42685 0.0
C536 C 0.95549 0.32091 0.41349 0.0
C537 C 0.98799 0.34323 0.37891 0.0
C538 C 1.00835 0.32327 0.35825 0.0
C539 C 0.99731 0.28241 0.37095 0.0
C540 C 0.02584 0.26923 0.34505 0.0
C541 C 0.05089 0.25903 0.38415 0.0
C542 C 1.00021 0.23178 0.309 0.0
C543 C 0.05462 0.30912 0.31606 0.0
C544 C 0.04361 0.3397 0.32382 0.0
C545 C 0.0654 0.37919 0.3011 0.0
C546 C 0.09956 0.38781 0.26981 0.0
C547 C 0.11193 0.35725 0.26186 0.0
C548 C 0.08898 0.31737 0.28532 0.0
H549 H 0.65494 0.7279 0.92915 0.0
H550 H 0.76378 0.8539 0.92192 0.0
H551 H 0.80346 0.8327 0.97953 0.0
H552 H 0.66666 0.71233 0.06183 0.0
H553 H 0.65032 0.6572 0.05565 0.0
H554 H 0.63058 0.68118 0.01178 0.0
H555 H 0.65823 0.65682 0.93665 0.0
H556 H 0.67773 0.63245 0.98025 0.0
H557 H 0.71312 0.67084 0.93557 0.0
H558 H 0.83174 0.79859 0.03649 0.0
H559 H 0.84709 0.75327 0.09162 0.0
H560 H 0.71953 0.64945 0.0677 0.0
C561 C 0.68731 0.75068 0.9393 0.0
C562 C 0.70655 0.79255 0.92088 0.0
C563 C 0.74862 0.8218 0.93571 0.0
C564 C 0.77134 0.81001 0.96834 0.0
C565 C 0.75144 0.76884 0.98649 0.0
C566 C 0.71037 0.73953 0.97277 0.0
C567 C 0.69637 0.69772 0.99933 0.0
C568 C 0.65875 0.68645 0.03422 0.0
C569 C 0.68574 0.66237 0.96064 0.0
C570 C 0.73608 0.70818 0.02974 0.0
C571 C 0.76742 0.74939 0.02134 0.0
C572 C 0.80741 0.76635 0.04359 0.0
C573 C 0.81587 0.74044 0.07478 0.0
C574 C 0.78448 0.69814 0.08413 0.0
C575 C 0.74383 0.68192 0.06176 0.0
H576 H 0.29091 0.05403 0.78445 0.0
H577 H 0.41034 0.13939 0.71377 0.0
H578 H 0.39328 0.08813 0.64394 0.0
H579 H 0.29265 0.96014 0.75659 0.0
H580 H 0.23643 0.92859 0.74549 0.0
H581 H 0.25694 0.97313 0.78788 0.0
H582 H 0.21888 1.00463 0.73572 0.0
H583 H 0.19807 0.96004 0.69329 0.0
H584 H 0.22828 1.01281 0.66874 0.0
H585 H 0.36316 0.02614 0.58244 0.0
H586 H 0.32332 0.95913 0.53539 0.0
H587 H 0.22535 0.91374 0.64943 0.0
C588 C 0.31306 0.06229 0.75377 0.0
C589 C 0.3518 0.10088 0.75427 0.0
C590 C 0.38051 0.10999 0.71409 0.0
C591 C 0.37103 0.08112 0.67425 0.0
C592 C 0.33279 0.04309 0.67526 0.0
C593 C 0.3043 0.03365 0.71406 0.0
C594 C 0.2663 0.9899 0.70752 0.0
C595 C 0.26291 0.96126 0.75201 0.0
C596 C 0.22547 0.99199 0.70092 0.0
C597 C 0.2778 0.97618 0.65903 0.0
C598 C 0.31611 1.00728 0.64078 0.0
C599 C 0.3331 1.00155 0.59647 0.0
C600 C 0.31024 0.96309 0.57008 0.0
C601 C 0.27081 0.93056 0.58815 0.0
C602 C 0.25484 0.93762 0.63354 0.0
loop_
_geom_bond_atom_site_label_1
_geom_bond_atom_site_label_2
_geom_bond_distance
_geom_bond_site_symmetry_2
_ccdc_geom_bond_type
Co0 N4 2.148 . S
Co0 N10 2.128 . S
Co0 N20 2.194 . S
Co0 O25 2.351 . S
Co0 O26 2.155 . S
Co0 O27 2.096 . S
C1 N4 1.301 . S
C1 N5 1.328 . S
C1 H6 0.930 . S
C2 C3 1.333 . S
C2 N4 1.317 . S
C2 H7 0.930 . S
C3 C2 1.333 . S
C3 N5 1.350 . S
C3 H29 0.931 . S
N4 Co0 2.148 . S
N4 C1 1.301 . S
N4 C2 1.317 . S
N5 C1 1.328 . S
N5 C3 1.350 . S
H6 C1 0.930 . S
H7 C2 0.930 . S
C8 O9 1.224 . S
C8 O27 1.247 . S
O9 C8 1.224 . S
N10 Co0 2.128 . S
N10 C11 1.355 1_554 S
N10 C13 1.311 1_554 S
C11 N10 1.355 1_556 S
C11 C12 1.363 . S
C11 H23 0.929 . S
C12 C11 1.363 . S
C12 N14 1.375 . S
C12 H30 0.931 . S
C13 N10 1.311 1_556 S
C13 N14 1.347 . S
C13 H24 0.929 1_556 S
N14 C12 1.375 . S
N14 C13 1.347 . S
C15 C18 1.365 1_554 S
C15 N20 1.328 . S
C15 H21 0.929 . S
C16 C17 1.362 . S
C16 C19 1.378 . S
C16 H31 0.929 . S
C17 C16 1.362 . S
C17 C18 1.366 . S
C18 C15 1.365 1_556 S
C18 C17 1.366 . S
C18 H32 0.930 . S
C19 C16 1.378 . S
C19 N20 1.315 1_556 S
C19 H22 0.930 . S
N20 Co0 2.194 . S
N20 C15 1.328 . S
N20 C19 1.315 1_554 S
H21 C15 0.929 . S
H22 C19 0.930 . S
H23 C11 0.929 . S
H24 C13 0.929 1_554 S
O25 Co0 2.351 . S
O25 C28 1.244 . S
O26 Co0 2.155 . S
O26 C28 1.240 . S
O27 Co0 2.096 . S
O27 C8 1.247 . S
C28 O25 1.244 . S
C28 O26 1.240 . S
H29 C3 0.931 . S
H30 C12 0.931 . S
H31 C16 0.929 . S
H32 C18 0.930 . S
Co33 N37 2.148 . S
Co33 N43 2.128 . S
Co33 N53 2.194 . S
Co33 O58 2.351 . S
Co33 O59 2.155 . S
Co33 O60 2.096 . S
C34 N37 1.301 . S
C34 N38 1.328 . S
C34 H39 0.930 . S
C35 C36 1.333 . S
C35 N37 1.317 . S
C35 H40 0.930 . S
C36 C35 1.333 . S
C36 N38 1.350 . S
C36 H62 0.931 . S
N37 Co33 2.148 . S
N37 C34 1.301 . S
N37 C35 1.317 . S
N38 C34 1.328 . S
N38 C36 1.350 . S
H39 C34 0.930 . S
H40 C35 0.930 . S
C41 O42 1.224 . S
C41 O60 1.247 . S
O42 C41 1.224 . S
N43 Co33 2.128 . S
N43 C44 1.355 . S
N43 C46 1.311 . S
C44 N43 1.355 . S
C44 C45 1.363 . S
C44 H56 0.929 . S
C45 C44 1.363 . S
C45 N47 1.375 . S
C45 H63 0.931 . S
C46 N43 1.311 . S
C46 N47 1.347 . S
C46 H57 0.929 . S
N47 C45 1.375 . S
N47 C46 1.347 . S
C48 C51 1.365 . S
C48 N53 1.328 . S
C48 H54 0.929 . S
C49 C50 1.362 . S
C49 C52 1.378 . S
C49 H64 0.929 . S
C50 C49 1.362 . S
C50 C51 1.366 . S
C51 C48 1.365 . S
C51 C50 1.366 . S
C51 H65 0.930 . S
C52 C49 1.378 . S
C52 N53 1.315 . S
C52 H55 0.930 . S
N53 Co33 2.194 . S
N53 C48 1.328 . S
N53 C52 1.315 . S
H54 C48 0.929 . S
H55 C52 0.930 . S
H56 C44 0.929 . S
H57 C46 0.929 . S
O58 Co33 2.351 . S
O58 C61 1.244 . S
O59 Co33 2.155 . S
O59 C61 1.240 . S
O60 Co33 2.096 . S
O60 C41 1.247 . S
C61 O58 1.244 . S
C61 O59 1.240 . S
H62 C36 0.931 . S
H63 C45 0.931 . S
H64 C49 0.929 . S
H65 C51 0.930 . S
Co66 N70 2.148 . S
Co66 N76 2.128 . S
Co66 N86 2.194 . S
Co66 O91 2.351 . S
Co66 O92 2.155 . S
Co66 O93 2.096 . S
C67 N70 1.301 . S
C67 N71 1.328 . S
C67 H72 0.930 . S
C68 C69 1.333 . S
C68 N70 1.317 . S
C68 H73 0.930 . S
C69 C68 1.333 . S
C69 N71 1.350 . S
C69 H95 0.931 . S
N70 Co66 2.148 . S
N70 C67 1.301 . S
N70 C68 1.317 . S
N71 C67 1.328 . S
N71 C69 1.350 . S
H72 C67 0.930 . S
H73 C68 0.930 . S
C74 O75 1.224 . S
C74 O93 1.247 . S
O75 C74 1.224 . S
N76 Co66 2.128 . S
N76 C77 1.355 . S
N76 C79 1.311 . S
C77 N76 1.355 . S
C77 C78 1.363 . S
C77 H89 0.929 . S
C78 C77 1.363 . S
C78 N80 1.375 . S
C78 H96 0.931 . S
C79 N76 1.311 . S
C79 N80 1.347 . S
C79 H90 0.929 . S
N80 C78 1.375 . S
N80 C79 1.347 . S
C81 C84 1.365 . S
C81 N86 1.328 . S
C81 H87 0.929 . S
C82 C83 1.362 . S
C82 C85 1.378 . S
C82 H97 0.929 . S
C83 C82 1.362 . S
C83 C84 1.366 . S
C84 C81 1.365 . S
C84 C83 1.366 . S
C84 H98 0.930 . S
C85 C82 1.378 . S
C85 N86 1.315 . S
C85 H88 0.930 . S
N86 Co66 2.194 . S
N86 C81 1.328 . S
N86 C85 1.315 . S
H87 C81 0.929 . S
H88 C85 0.930 . S
H89 C77 0.929 . S
H90 C79 0.929 . S
O91 Co66 2.351 . S
O91 C94 1.244 . S
O92 Co66 2.155 . S
O92 C94 1.240 . S
O93 Co66 2.096 . S
O93 C74 1.247 . S
C94 O91 1.244 . S
C94 O92 1.240 . S
H95 C69 0.931 . S
H96 C78 0.931 . S
H97 C82 0.929 . S
H98 C84 0.930 . S
Co99 N103 2.148 . S
Co99 N109 2.128 . S
Co99 N119 2.194 . S
Co99 O124 2.351 . S
Co99 O125 2.155 . S
Co99 O126 2.096 . S
C100 N103 1.301 . S
C100 N104 1.328 . S
C100 H105 0.930 . S
C101 C102 1.333 . S
C101 N103 1.317 . S
C101 H106 0.930 . S
C102 C101 1.333 . S
C102 N104 1.350 . S
C102 H128 0.931 . S
N103 Co99 2.148 . S
N103 C100 1.301 . S
N103 C101 1.317 . S
N104 C100 1.328 . S
N104 C102 1.350 . S
H105 C100 0.930 . S
H106 C101 0.930 . S
C107 O108 1.224 . S
C107 O126 1.247 . S
O108 C107 1.224 . S
N109 Co99 2.128 . S
N109 C110 1.355 1_556 S
N109 C112 1.311 1_556 S
C110 N109 1.355 1_554 S
C110 C111 1.363 . S
C110 H122 0.929 . S
C111 C110 1.363 . S
C111 N113 1.375 . S
C111 H129 0.931 . S
C112 N109 1.311 1_554 S
C112 N113 1.347 . S
C112 H123 0.929 1_554 S
N113 C111 1.375 . S
N113 C112 1.347 . S
C114 C117 1.365 1_556 S
C114 N119 1.328 . S
C114 H120 0.929 . S
C115 C116 1.362 . S
C115 C118 1.378 . S
C115 H130 0.929 . S
C116 C115 1.362 . S
C116 C117 1.366 . S
C117 C114 1.365 1_554 S
C117 C116 1.366 . S
C117 H131 0.930 . S
C118 C115 1.378 . S
C118 N119 1.315 1_554 S
C118 H121 0.930 . S
N119 Co99 2.194 . S
N119 C114 1.328 . S
N119 C118 1.315 1_556 S
H120 C114 0.929 . S
H121 C118 0.930 . S
H122 C110 0.929 . S
H123 C112 0.929 1_556 S
O124 Co99 2.351 . S
O124 C127 1.244 . S
O125 Co99 2.155 . S
O125 C127 1.240 . S
O126 Co99 2.096 . S
O126 C107 1.247 . S
C127 O124 1.244 . S
C127 O125 1.240 . S
H128 C102 0.931 . S
H129 C111 0.931 . S
H130 C115 0.929 . S
H131 C117 0.930 . S
Co132 N136 2.148 . S
Co132 N142 2.128 . S
Co132 N152 2.194 . S
Co132 O157 2.351 . S
Co132 O158 2.155 . S
Co132 O159 2.096 . S
C133 N136 1.301 . S
C133 N137 1.328 . S
C133 H138 0.930 . S
C134 C135 1.333 . S
C134 N136 1.317 . S
C134 H139 0.930 . S
C135 C134 1.333 . S
C135 N137 1.350 . S
C135 H161 0.931 . S
N136 Co132 2.148 . S
N136 C133 1.301 . S
N136 C134 1.317 . S
N137 C133 1.328 . S
N137 C135 1.350 . S
H138 C133 0.930 . S
H139 C134 0.930 . S
C140 O141 1.224 . S
C140 O159 1.247 . S
O141 C140 1.224 . S
N142 Co132 2.128 . S
N142 C143 1.355 . S
N142 C145 1.311 . S
C143 N142 1.355 . S
C143 C144 1.363 . S
C143 H155 0.929 . S
C144 C143 1.363 . S
C144 N146 1.375 . S
C144 H162 0.931 . S
C145 N142 1.311 . S
C145 N146 1.347 . S
C145 H156 0.929 . S
N146 C144 1.375 . S
N146 C145 1.347 . S
C147 C150 1.365 . S
C147 N152 1.328 . S
C147 H153 0.929 . S
C148 C149 1.362 . S
C148 C151 1.378 . S
C148 H163 0.929 . S
C149 C148 1.362 . S
C149 C150 1.366 . S
C150 C147 1.365 . S
C150 C149 1.366 . S
C150 H164 0.930 . S
C151 C148 1.378 . S
C151 N152 1.315 . S
C151 H154 0.930 . S
N152 Co132 2.194 . S
N152 C147 1.328 . S
N152 C151 1.315 . S
H153 C147 0.929 . S
H154 C151 0.930 . S
H155 C143 0.929 . S
H156 C145 0.929 . S
O157 Co132 2.351 . S
O157 C160 1.244 . S
O158 Co132 2.155 . S
O158 C160 1.240 . S
O159 Co132 2.096 . S
O159 C140 1.247 . S
C160 O157 1.244 . S
C160 O158 1.240 . S
H161 C135 0.931 . S
H162 C144 0.931 . S
H163 C148 0.929 . S
H164 C150 0.930 . S
Co165 N169 2.148 . S
Co165 N175 2.128 . S
Co165 N185 2.194 . S
Co165 O190 2.351 . S
Co165 O191 2.155 . S
Co165 O192 2.096 . S
C166 N169 1.301 . S
C166 N170 1.328 . S
C166 H171 0.930 . S
C167 C168 1.333 . S
C167 N169 1.317 . S
C167 H172 0.930 . S
C168 C167 1.333 . S
C168 N170 1.350 . S
C168 H194 0.931 . S
N169 Co165 2.148 . S
N169 C166 1.301 . S
N169 C167 1.317 . S
N170 C166 1.328 . S
N170 C168 1.350 . S
H171 C166 0.930 . S
H172 C167 0.930 . S
C173 O174 1.224 . S
C173 O192 1.247 . S
O174 C173 1.224 . S
N175 Co165 2.128 . S
N175 C176 1.355 . S
N175 C178 1.311 . S
C176 N175 1.355 . S
C176 C177 1.363 . S
C176 H188 0.929 . S
C177 C176 1.363 . S
C177 N179 1.375 . S
C177 H195 0.931 . S
C178 N175 1.311 . S
C178 N179 1.347 . S
C178 H189 0.929 . S
N179 C177 1.375 . S
N179 C178 1.347 . S
C180 C183 1.365 . S
C180 N185 1.328 . S
C180 H186 0.929 . S
C181 C182 1.362 . S
C181 C184 1.378 . S
C181 H196 0.929 . S
C182 C181 1.362 . S
C182 C183 1.366 . S
C183 C180 1.365 . S
C183 C182 1.366 . S
C183 H197 0.930 . S
C184 C181 1.378 . S
C184 N185 1.315 . S
C184 H187 0.930 . S
N185 Co165 2.194 . S
N185 C180 1.328 . S
N185 C184 1.315 . S
H186 C180 0.929 . S
H187 C184 0.930 . S
H188 C176 0.929 . S
H189 C178 0.929 . S
O190 Co165 2.351 . S
O190 C193 1.244 . S
O191 Co165 2.155 . S
O191 C193 1.240 . S
O192 Co165 2.096 . S
O192 C173 1.247 . S
C193 O190 1.244 . S
C193 O191 1.240 . S
H194 C168 0.931 . S
H195 C177 0.931 . S
H196 C181 0.929 . S
H197 C183 0.930 . S
H198 C210 0.930 . S
H199 C212 0.930 . S
H200 C213 0.930 . S
H201 C217 0.959 . S
H202 C217 0.959 . S
H203 C217 0.961 . S
H204 C218 0.960 . S
H205 C218 0.961 . S
H206 C218 0.959 . S
H207 C221 0.929 . S
H208 C222 0.931 . S
H209 C224 0.930 . S
C210 H198 0.930 . S
C210 C211 1.399 . S
C210 C215 1.399 . S
C211 C210 1.399 . S
C211 C212 1.376 . S
C212 H199 0.930 . S
C212 C211 1.376 . S
C212 C213 1.388 . S
C213 H200 0.930 . S
C213 C212 1.388 . S
C213 C214 1.390 . S
C214 C213 1.390 . S
C214 C215 1.394 . S
C214 C220 1.465 . S
C215 C210 1.399 . S
C215 C214 1.394 . S
C215 C216 1.516 . S
C216 C215 1.516 . S
C216 C217 1.502 . S
C216 C218 1.561 . S
C216 C219 1.526 . S
C217 H201 0.959 . S
C217 H202 0.959 . S
C217 H203 0.961 . S
C217 C216 1.502 . S
C218 H204 0.960 . S
C218 H205 0.961 . S
C218 H206 0.959 . S
C218 C216 1.561 . S
C219 C216 1.526 . S
C219 C220 1.396 . S
C219 C224 1.390 . S
C220 C214 1.465 . S
C220 C219 1.396 . S
C220 C221 1.399 . S
C221 H207 0.929 . S
C221 C220 1.399 . S
C221 C222 1.385 . S
C222 H208 0.931 . S
C222 C221 1.385 . S
C222 C223 1.389 . S
C223 C222 1.389 . S
C223 C224 1.387 . S
C224 H209 0.930 . S
C224 C219 1.390 . S
C224 C223 1.387 . S
H225 C237 0.930 . S
H226 C239 0.930 . S
H227 C240 0.930 . S
H228 C244 0.959 . S
H229 C244 0.959 . S
H230 C244 0.961 . S
H231 C245 0.960 . S
H232 C245 0.961 . S
H233 C245 0.959 . S
H234 C248 0.929 . S
H235 C249 0.931 . S
H236 C251 0.930 . S
C237 H225 0.930 . S
C237 C238 1.399 . S
C237 C242 1.399 . S
C238 C237 1.399 . S
C238 C239 1.376 . S
C239 H226 0.930 . S
C239 C238 1.376 . S
C239 C240 1.388 . S
C240 H227 0.930 . S
C240 C239 1.388 . S
C240 C241 1.390 . S
C241 C240 1.390 . S
C241 C242 1.394 . S
C241 C247 1.465 . S
C242 C237 1.399 . S
C242 C241 1.394 . S
C242 C243 1.516 . S
C243 C242 1.516 . S
C243 C244 1.502 . S
C243 C245 1.561 . S
C243 C246 1.526 . S
C244 H228 0.959 . S
C244 H229 0.959 . S
C244 H230 0.961 . S
C244 C243 1.502 . S
C245 H231 0.960 . S
C245 H232 0.961 . S
C245 H233 0.959 . S
C245 C243 1.561 . S
C246 C243 1.526 . S
C246 C247 1.396 . S
C246 C251 1.390 . S
C247 C241 1.465 . S
C247 C246 1.396 . S
C247 C248 1.399 . S
C248 H234 0.929 . S
C248 C247 1.399 . S
C248 C249 1.385 . S
C249 H235 0.931 . S
C249 C248 1.385 . S
C249 C250 1.389 . S
C250 C249 1.389 . S
C250 C251 1.387 . S
C251 H236 0.930 . S
C251 C246 1.390 . S
C251 C250 1.387 . S
H252 C264 0.930 . S
H253 C266 0.930 . S
H254 C267 0.930 . S
H255 C271 0.959 . S
H256 C271 0.959 . S
H257 C271 0.961 . S
H258 C272 0.960 . S
H259 C272 0.961 . S
H260 C272 0.959 . S
H261 C275 0.929 . S
H262 C276 0.931 . S
H263 C278 0.930 . S
C264 H252 0.930 . S
C264 C265 1.399 . S
C264 C269 1.399 . S
C265 C264 1.399 . S
C265 C266 1.376 . S
C266 H253 0.930 . S
C266 C265 1.376 . S
C266 C267 1.388 . S
C267 H254 0.930 . S
C267 C266 1.388 . S
C267 C268 1.390 . S
C268 C267 1.390 . S
C268 C269 1.394 . S
C268 C274 1.465 . S
C269 C264 1.399 . S
C269 C268 1.394 . S
C269 C270 1.516 . S
C270 C269 1.516 . S
C270 C271 1.502 . S
C270 C272 1.561 . S
C270 C273 1.526 . S
C271 H255 0.959 . S
C271 H256 0.959 . S
C271 H257 0.961 . S
C271 C270 1.502 . S
C272 H258 0.960 . S
C272 H259 0.961 . S
C272 H260 0.959 . S
C272 C270 1.561 . S
C273 C270 1.526 . S
C273 C274 1.396 . S
C273 C278 1.390 . S
C274 C268 1.465 . S
C274 C273 1.396 . S
C274 C275 1.399 . S
C275 H261 0.929 . S
C275 C274 1.399 . S
C275 C276 1.385 . S
C276 H262 0.931 . S
C276 C275 1.385 . S
C276 C277 1.389 . S
C277 C276 1.389 . S
C277 C278 1.387 . S
C278 H263 0.930 . S
C278 C273 1.390 . S
C278 C277 1.387 . S
H279 C291 0.930 . S
H280 C293 0.930 . S
H281 C294 0.930 . S
H282 C298 0.959 . S
H283 C298 0.959 . S
H284 C298 0.961 . S
H285 C299 0.960 . S
H286 C299 0.961 . S
H287 C299 0.959 . S
H288 C302 0.929 . S
H289 C303 0.931 . S
H290 C305 0.930 . S
C291 H279 0.930 . S
C291 C292 1.399 . S
C291 C296 1.399 . S
C292 C291 1.399 . S
C292 C293 1.376 . S
C293 H280 0.930 . S
C293 C292 1.376 . S
C293 C294 1.388 . S
C294 H281 0.930 . S
C294 C293 1.388 . S
C294 C295 1.390 . S
C295 C294 1.390 . S
C295 C296 1.394 . S
C295 C301 1.465 . S
C296 C291 1.399 . S
C296 C295 1.394 . S
C296 C297 1.516 . S
C297 C296 1.516 . S
C297 C298 1.502 . S
C297 C299 1.561 . S
C297 C300 1.526 . S
C298 H282 0.959 . S
C298 H283 0.959 . S
C298 H284 0.961 . S
C298 C297 1.502 . S
C299 H285 0.960 . S
C299 H286 0.961 . S
C299 H287 0.959 . S
C299 C297 1.561 . S
C300 C297 1.526 . S
C300 C301 1.396 . S
C300 C305 1.390 . S
C301 C295 1.465 . S
C301 C300 1.396 . S
C301 C302 1.399 . S
C302 H288 0.929 . S
C302 C301 1.399 . S
C302 C303 1.385 . S
C303 H289 0.931 . S
C303 C302 1.385 . S
C303 C304 1.389 . S
C304 C303 1.389 . S
C304 C305 1.387 . S
C305 H290 0.930 . S
C305 C300 1.390 . S
C305 C304 1.387 . S
H306 C318 0.930 . S
H307 C320 0.930 . S
H308 C321 0.930 . S
H309 C325 0.959 . S
H310 C325 0.959 . S
H311 C325 0.961 . S
H312 C326 0.960 . S
H313 C326 0.961 . S
H314 C326 0.959 . S
H315 C329 0.929 . S
H316 C330 0.931 . S
H317 C332 0.930 . S
C318 H306 0.930 . S
C318 C319 1.399 . S
C318 C323 1.399 . S
C319 C318 1.399 . S
C319 C320 1.376 . S
C320 H307 0.930 . S
C320 C319 1.376 . S
C320 C321 1.388 . S
C321 H308 0.930 . S
C321 C320 1.388 . S
C321 C322 1.390 . S
C322 C321 1.390 . S
C322 C323 1.394 . S
C322 C328 1.465 . S
C323 C318 1.399 . S
C323 C322 1.394 . S
C323 C324 1.516 . S
C324 C323 1.516 . S
C324 C325 1.502 . S
C324 C326 1.561 . S
C324 C327 1.526 . S
C325 H309 0.959 . S
C325 H310 0.959 . S
C325 H311 0.961 . S
C325 C324 1.502 . S
C326 H312 0.960 . S
C326 H313 0.961 . S
C326 H314 0.959 . S
C326 C324 1.561 . S
C327 C324 1.526 . S
C327 C328 1.396 . S
C327 C332 1.390 . S
C328 C322 1.465 . S
C328 C327 1.396 . S
C328 C329 1.399 . S
C329 H315 0.929 . S
C329 C328 1.399 . S
C329 C330 1.385 . S
C330 H316 0.931 . S
C330 C329 1.385 . S
C330 C331 1.389 . S
C331 C330 1.389 . S
C331 C332 1.387 . S
C332 H317 0.930 . S
C332 C327 1.390 . S
C332 C331 1.387 . S
H333 C345 0.930 . S
H334 C347 0.930 . S
H335 C348 0.930 . S
H336 C352 0.959 . S
H337 C352 0.959 . S
H338 C352 0.961 . S
H339 C353 0.960 . S
H340 C353 0.961 . S
H341 C353 0.959 . S
H342 C356 0.929 . S
H343 C357 0.931 . S
H344 C359 0.930 . S
C345 H333 0.930 . S
C345 C346 1.399 . S
C345 C350 1.399 . S
C346 C345 1.399 . S
C346 C347 1.376 . S
C347 H334 0.930 . S
C347 C346 1.376 . S
C347 C348 1.388 . S
C348 H335 0.930 . S
C348 C347 1.388 . S
C348 C349 1.390 . S
C349 C348 1.390 . S
C349 C350 1.394 . S
C349 C355 1.465 . S
C350 C345 1.399 . S
C350 C349 1.394 . S
C350 C351 1.516 . S
C351 C350 1.516 . S
C351 C352 1.502 . S
C351 C353 1.561 . S
C351 C354 1.526 . S
C352 H336 0.959 . S
C352 H337 0.959 . S
C352 H338 0.961 . S
C352 C351 1.502 . S
C353 H339 0.960 . S
C353 H340 0.961 . S
C353 H341 0.959 . S
C353 C351 1.561 . S
C354 C351 1.526 . S
C354 C355 1.396 . S
C354 C359 1.390 . S
C355 C349 1.465 . S
C355 C354 1.396 . S
C355 C356 1.399 . S
C356 H342 0.929 . S
C356 C355 1.399 . S
C356 C357 1.385 . S
C357 H343 0.931 . S
C357 C356 1.385 . S
C357 C358 1.389 . S
C358 C357 1.389 . S
C358 C359 1.387 . S
C359 H344 0.930 . S
C359 C354 1.390 . S
C359 C358 1.387 . S
H360 C372 0.930 . S
H361 C374 0.930 . S
H362 C375 0.930 . S
H363 C379 0.959 . S
H364 C379 0.959 . S
H365 C379 0.961 . S
H366 C380 0.960 . S
H367 C380 0.961 . S
H368 C380 0.959 . S
H369 C383 0.929 . S
H370 C384 0.931 . S
H371 C386 0.930 . S
C372 H360 0.930 . S
C372 C373 1.399 . S
C372 C377 1.399 . S
C373 C372 1.399 . S
C373 C374 1.376 . S
C374 H361 0.930 . S
C374 C373 1.376 . S
C374 C375 1.388 1_655 S
C375 H362 0.930 . S
C375 C374 1.388 1_455 S
C375 C376 1.390 . S
C376 C375 1.390 . S
C376 C377 1.385 1_455 S
C376 C382 1.472 . S
C377 C372 1.399 . S
C377 C376 1.385 1_655 S
C377 C378 1.516 . S
C378 C377 1.516 . S
C378 C379 1.502 . S
C378 C380 1.561 . S
C378 C381 1.526 1_655 S
C379 H363 0.959 . S
C379 H364 0.959 . S
C379 H365 0.961 . S
C379 C378 1.502 . S
C380 H366 0.960 . S
C380 H367 0.961 . S
C380 H368 0.959 . S
C380 C378 1.561 . S
C381 C378 1.526 1_455 S
C381 C382 1.396 . S
C381 C386 1.390 . S
C382 C376 1.472 . S
C382 C381 1.396 . S
C382 C383 1.399 . S
C383 H369 0.929 . S
C383 C382 1.399 . S
C383 C384 1.385 . S
C384 H370 0.931 . S
C384 C383 1.385 . S
C384 C385 1.389 . S
C385 C384 1.389 . S
C385 C386 1.387 . S
C386 H371 0.930 . S
C386 C381 1.390 . S
C386 C385 1.387 . S
H387 C399 0.930 . S
H388 C401 0.930 . S
H389 C402 0.930 . S
H390 C406 0.959 . S
H391 C406 0.959 . S
H392 C406 0.961 . S
H393 C407 0.960 . S
H394 C407 0.961 . S
H395 C407 0.959 . S
H396 C410 0.929 . S
H397 C411 0.931 . S
H398 C413 0.930 . S
C399 H387 0.930 . S
C399 C400 1.399 . S
C399 C404 1.399 . S
C400 C399 1.399 . S
C400 C401 1.376 . S
C401 H388 0.930 . S
C401 C400 1.376 . S
C401 C402 1.388 . S
C402 H389 0.930 . S
C402 C401 1.388 . S
C402 C403 1.390 . S
C403 C402 1.390 . S
C403 C404 1.394 . S
C403 C409 1.465 . S
C404 C399 1.399 . S
C404 C403 1.394 . S
C404 C405 1.516 . S
C405 C404 1.516 . S
C405 C406 1.502 . S
C405 C407 1.561 . S
C405 C408 1.526 . S
C406 H390 0.959 . S
C406 H391 0.959 . S
C406 H392 0.961 . S
C406 C405 1.502 . S
C407 H393 0.960 . S
C407 H394 0.961 . S
C407 H395 0.959 . S
C407 C405 1.561 . S
C408 C405 1.526 . S
C408 C409 1.396 . S
C408 C413 1.390 . S
C409 C403 1.465 . S
C409 C408 1.396 . S
C409 C410 1.399 . S
C410 H396 0.929 . S
C410 C409 1.399 . S
C410 C411 1.385 . S
C411 H397 0.931 . S
C411 C410 1.385 . S
C411 C412 1.389 . S
C412 C411 1.389 . S
C412 C413 1.387 . S
C413 H398 0.930 . S
C413 C408 1.390 . S
C413 C412 1.387 . S
H414 C426 0.930 . S
H415 C428 0.930 . S
H416 C429 0.930 1_565 S
H417 C433 0.959 . S
H418 C433 0.959 . S
H419 C433 0.961 . S
H420 C434 0.960 . S
H421 C434 0.961 . S
H422 C434 0.959 1_565 S
H423 C437 0.929 . S
H424 C438 0.931 . S
H425 C440 0.930 . S
C426 H414 0.930 . S
C426 C427 1.399 . S
C426 C431 1.399 . S
C427 C426 1.399 . S
C427 C428 1.376 . S
C428 H415 0.930 . S
C428 C427 1.376 . S
C428 C429 1.388 . S
C429 H416 0.930 1_545 S
C429 C428 1.388 . S
C429 C430 1.390 . S
C430 C429 1.390 . S
C430 C431 1.394 . S
C430 C436 1.465 1_545 S
C431 C426 1.399 . S
C431 C430 1.394 . S
C431 C432 1.516 . S
C432 C431 1.516 . S
C432 C433 1.502 . S
C432 C434 1.561 . S
C432 C435 1.526 1_545 S
C433 H417 0.959 . S
C433 H418 0.959 . S
C433 H419 0.961 . S
C433 C432 1.502 . S
C434 H420 0.960 . S
C434 H421 0.961 . S
C434 H422 0.959 1_545 S
C434 C432 1.561 . S
C435 C432 1.526 1_565 S
C435 C436 1.396 . S
C435 C440 1.390 . S
C436 C430 1.465 1_565 S
C436 C435 1.396 . S
C436 C437 1.399 . S
C437 H423 0.929 . S
C437 C436 1.399 . S
C437 C438 1.385 . S
C438 H424 0.931 . S
C438 C437 1.385 . S
C438 C439 1.389 . S
C439 C438 1.389 . S
C439 C440 1.387 . S
C440 H425 0.930 . S
C440 C435 1.390 . S
C440 C439 1.387 . S
H441 C453 0.930 . S
H442 C455 0.930 . S
H443 C456 0.930 1_554 S
H444 C460 0.959 1_554 S
H445 C460 0.959 . S
H446 C460 0.961 . S
H447 C461 0.960 . S
H448 C461 0.961 . S
H449 C461 0.959 . S
H450 C464 0.929 . S
H451 C465 0.931 . S
H452 C467 0.930 . S
C453 H441 0.930 . S
C453 C454 1.399 . S
C453 C458 1.399 . S
C454 C453 1.399 . S
C454 C455 1.376 . S
C455 H442 0.930 . S
C455 C454 1.376 . S
C455 C456 1.388 . S
C456 H443 0.930 1_556 S
C456 C455 1.388 . S
C456 C457 1.390 . S
C457 C456 1.390 . S
C457 C458 1.394 . S
C457 C463 1.465 1_556 S
C458 C453 1.399 . S
C458 C457 1.394 . S
C458 C459 1.516 . S
C459 C458 1.516 . S
C459 C460 1.502 . S
C459 C461 1.561 . S
C459 C462 1.526 1_556 S
C460 H444 0.959 1_556 S
C460 H445 0.959 . S
C460 H446 0.961 . S
C460 C459 1.502 . S
C461 H447 0.960 . S
C461 H448 0.961 . S
C461 H449 0.959 . S
C461 C459 1.561 . S
C462 C459 1.526 1_554 S
C462 C463 1.396 . S
C462 C467 1.390 . S
C463 C457 1.465 1_554 S
C463 C462 1.396 . S
C463 C464 1.399 . S
C464 H450 0.929 . S
C464 C463 1.399 . S
C464 C465 1.385 . S
C465 H451 0.931 . S
C465 C464 1.385 . S
C465 C466 1.389 . S
C466 C465 1.389 . S
C466 C467 1.387 . S
C467 H452 0.930 . S
C467 C462 1.390 . S
C467 C466 1.387 . S
H468 C480 0.930 . S
H469 C482 0.930 . S
H470 C483 0.930 . S
H471 C487 0.959 . S
H472 C487 0.959 . S
H473 C487 0.961 . S
H474 C488 0.960 . S
H475 C488 0.961 . S
H476 C488 0.959 . S
H477 C491 0.929 . S
H478 C492 0.931 . S
H479 C494 0.930 . S
C480 H468 0.930 . S
C480 C481 1.399 . S
C480 C485 1.399 . S
C481 C480 1.399 . S
C481 C482 1.376 . S
C482 H469 0.930 . S
C482 C481 1.376 . S
C482 C483 1.388 . S
C483 H470 0.930 . S
C483 C482 1.388 . S
C483 C484 1.390 . S
C484 C483 1.390 . S
C484 C485 1.394 . S
C484 C490 1.465 1_545 S
C485 C480 1.399 . S
C485 C484 1.394 . S
C485 C486 1.516 . S
C486 C485 1.516 . S
C486 C487 1.502 . S
C486 C488 1.561 . S
C486 C489 1.526 1_545 S
C487 H471 0.959 . S
C487 H472 0.959 . S
C487 H473 0.961 . S
C487 C486 1.502 . S
C488 H474 0.960 . S
C488 H475 0.961 . S
C488 H476 0.959 . S
C488 C486 1.561 . S
C489 C486 1.526 1_565 S
C489 C490 1.396 . S
C489 C494 1.390 . S
C490 C484 1.465 1_565 S
C490 C489 1.396 . S
C490 C491 1.399 . S
C491 H477 0.929 . S
C491 C490 1.399 . S
C491 C492 1.385 . S
C492 H478 0.931 . S
C492 C491 1.385 . S
C492 C493 1.389 . S
C493 C492 1.389 . S
C493 C494 1.387 . S
C494 H479 0.930 . S
C494 C489 1.390 . S
C494 C493 1.387 . S
H495 C507 0.930 . S
H496 C509 0.930 . S
H497 C510 0.930 . S
H498 C514 0.959 . S
H499 C514 0.959 . S
H500 C514 0.961 . S
H501 C515 0.960 . S
H502 C515 0.957 1_655 S
H503 C515 0.959 . S
H504 C518 0.929 . S
H505 C519 0.931 . S
H506 C521 0.930 . S
C507 H495 0.930 . S
C507 C508 1.399 . S
C507 C512 1.399 . S
C508 C507 1.399 . S
C508 C509 1.376 . S
C509 H496 0.930 . S
C509 C508 1.376 . S
C509 C510 1.388 . S
C510 H497 0.930 . S
C510 C509 1.388 . S
C510 C511 1.390 . S
C511 C510 1.390 . S
C511 C512 1.394 . S
C511 C517 1.465 1_455 S
C512 C507 1.399 . S
C512 C511 1.394 . S
C512 C513 1.516 . S
C513 C512 1.516 . S
C513 C514 1.502 . S
C513 C515 1.561 . S
C513 C516 1.526 1_455 S
C514 H498 0.959 . S
C514 H499 0.959 . S
C514 H500 0.961 . S
C514 C513 1.502 . S
C515 H501 0.960 . S
C515 H502 0.957 1_455 S
C515 H503 0.959 . S
C515 C513 1.561 . S
C516 C513 1.526 1_655 S
C516 C517 1.396 . S
C516 C521 1.390 . S
C517 C511 1.465 1_655 S
C517 C516 1.396 . S
C517 C518 1.399 . S
C518 H504 0.929 . S
C518 C517 1.399 . S
C518 C519 1.385 . S
C519 H505 0.931 . S
C519 C518 1.385 . S
C519 C520 1.389 . S
C520 C519 1.389 . S
C520 C521 1.387 . S
C521 H506 0.930 . S
C521 C516 1.390 . S
C521 C520 1.387 . S
H522 C534 0.930 . S
H523 C536 0.930 . S
H524 C537 0.930 . S
H525 C541 0.959 . S
H526 C541 0.959 . S
H527 C541 0.961 . S
H528 C542 0.960 . S
H529 C542 0.961 . S
H530 C542 0.959 . S
H531 C545 0.929 . S
H532 C546 0.931 . S
H533 C548 0.930 . S
C534 H522 0.930 . S
C534 C535 1.399 . S
C534 C539 1.399 . S
C535 C534 1.399 . S
C535 C536 1.376 . S
C536 H523 0.930 . S
C536 C535 1.376 . S
C536 C537 1.388 . S
C537 H524 0.930 . S
C537 C536 1.388 . S
C537 C538 1.390 . S
C538 C537 1.390 . S
C538 C539 1.394 . S
C538 C544 1.465 1_655 S
C539 C534 1.399 . S
C539 C538 1.394 . S
C539 C540 1.516 . S
C540 C539 1.516 . S
C540 C541 1.502 1_655 S
C540 C542 1.561 . S
C540 C543 1.526 1_655 S
C541 H525 0.959 . S
C541 H526 0.959 . S
C541 H527 0.961 . S
C541 C540 1.502 1_455 S
C542 H528 0.960 . S
C542 H529 0.961 . S
C542 H530 0.959 . S
C542 C540 1.561 . S
C543 C540 1.526 1_455 S
C543 C544 1.396 . S
C543 C548 1.390 . S
C544 C538 1.465 1_455 S
C544 C543 1.396 . S
C544 C545 1.399 . S
C545 H531 0.929 . S
C545 C544 1.399 . S
C545 C546 1.385 . S
C546 H532 0.931 . S
C546 C545 1.385 . S
C546 C547 1.389 . S
C547 C546 1.389 . S
C547 C548 1.387 . S
C548 H533 0.930 . S
C548 C543 1.390 . S
C548 C547 1.387 . S
H549 C561 0.930 . S
H550 C563 0.930 . S
H551 C564 0.930 . S
H552 C568 0.959 . S
H553 C568 0.959 . S
H554 C568 0.961 1_556 S
H555 C569 0.960 . S
H556 C569 0.961 . S
H557 C569 0.959 . S
H558 C572 0.929 . S
H559 C573 0.931 . S
H560 C575 0.930 . S
C561 H549 0.930 . S
C561 C562 1.399 . S
C561 C566 1.399 . S
C562 C561 1.399 . S
C562 C563 1.376 . S
C563 H550 0.930 . S
C563 C562 1.376 . S
C563 C564 1.388 . S
C564 H551 0.930 . S
C564 C563 1.388 . S
C564 C565 1.390 . S
C565 C564 1.390 . S
C565 C566 1.394 . S
C565 C571 1.465 1_556 S
C566 C561 1.399 . S
C566 C565 1.394 . S
C566 C567 1.516 . S
C567 C566 1.516 . S
C567 C568 1.502 1_556 S
C567 C569 1.561 . S
C567 C570 1.526 1_556 S
C568 H552 0.959 . S
C568 H553 0.959 . S
C568 H554 0.961 1_554 S
C568 C567 1.502 1_554 S
C569 H555 0.960 . S
C569 H556 0.961 . S
C569 H557 0.959 . S
C569 C567 1.561 . S
C570 C567 1.526 1_554 S
C570 C571 1.396 . S
C570 C575 1.390 . S
C571 C565 1.465 1_554 S
C571 C570 1.396 . S
C571 C572 1.399 . S
C572 H558 0.929 . S
C572 C571 1.399 . S
C572 C573 1.385 . S
C573 H559 0.931 . S
C573 C572 1.385 . S
C573 C574 1.389 . S
C574 C573 1.389 . S
C574 C575 1.387 . S
C575 H560 0.930 . S
C575 C570 1.390 . S
C575 C574 1.387 . S
H576 C588 0.930 . S
H577 C590 0.930 . S
H578 C591 0.930 . S
H579 C595 0.959 . S
H580 C595 0.959 . S
H581 C595 0.961 . S
H582 C596 0.960 . S
H583 C596 0.961 . S
H584 C596 0.959 . S
H585 C599 0.929 . S
H586 C600 0.931 . S
H587 C602 0.930 . S
C588 H576 0.930 . S
C588 C589 1.399 . S
C588 C593 1.399 . S
C589 C588 1.399 . S
C589 C590 1.376 . S
C590 H577 0.930 . S
C590 C589 1.376 . S
C590 C591 1.388 . S
C591 H578 0.930 . S
C591 C590 1.388 . S
C591 C592 1.390 . S
C592 C591 1.390 . S
C592 C593 1.394 . S
C592 C598 1.462 1_545 S
C593 C588 1.399 . S
C593 C592 1.394 . S
C593 C594 1.516 1_545 S
C594 C593 1.516 1_565 S
C594 C595 1.502 . S
C594 C596 1.561 . S
C594 C597 1.526 . S
C595 H579 0.959 . S
C595 H580 0.959 . S
C595 H581 0.961 . S
C595 C594 1.502 . S
C596 H582 0.960 . S
C596 H583 0.961 . S
C596 H584 0.959 . S
C596 C594 1.561 . S
C597 C594 1.526 . S
C597 C598 1.401 . S
C597 C602 1.390 . S
C598 C592 1.462 1_565 S
C598 C597 1.401 . S
C598 C599 1.397 1_565 S
C599 H585 0.929 . S
C599 C598 1.397 1_545 S
C599 C600 1.385 1_545 S
C600 H586 0.931 . S
C600 C599 1.385 1_565 S
C600 C601 1.389 . S
C601 C600 1.389 . S
C601 C602 1.387 . S
C602 H587 0.930 . S
C602 C597 1.390 . S
C602 C601 1.387 . S
C211 N80 1.103 . S
C223 C28 1.218 . S
C238 C61 1.218 . S
C250 N14 1.086 . S
C265 C94 1.179 . S
C277 N47 1.201 . S
C292 C127 1.181 . S
C304 N146 1.202 . S
C319 N179 1.147 . S
C331 C160 1.208 . S
C346 N113 1.087 . S
C358 C193 1.219 . S
C373 C149 0.690 . S
C385 C17 0.701 . S
C400 C182 0.687 . S
C412 C50 0.691 . S
C427 C116 0.696 . S
C439 C83 0.706 . S
C454 C107 1.788 . S
C466 C8 1.794 . S
C481 C140 1.812 . S
C493 C41 1.773 . S
C508 C74 1.819 . S
C520 C173 1.765 . S
C535 N137 2.011 . S
C547 N5 2.019 . S
C562 N38 2.003 . S
C574 N170 1.999 . S
C589 N104 1.992 . S
C601 N71 2.015 . S
