# Generated by pormake.
# Topology rob, (6)-cn, num edge types: 1
# Building blocks:
#     Node 0, Type 0, BuildingBlock: BETGAK_clean_sbu_0, # of connection points: 6
#     Node 1, Type 0, BuildingBlock: BETGAK_clean_sbu_0, # of connection points: 6
#     Node 2, Type 0, BuildingBlock: BETGAK_clean_sbu_0, # of connection points: 6
#     Node 3, Type 0, BuildingBlock: BETGAK_clean_sbu_0, # of connection points: 6
#     Edge 4, Type (0, 0), BuildingBlock: AJUNOK_clean_linker_0, # of connection points: 2
#     Edge 5, Type (0, 0), BuildingBlock: AJUNOK_clean_linker_0, # of connection points: 2
#     Edge 6, Type (0, 0), BuildingBlock: AJUNOK_clean_linker_0, # of connection points: 2
#     Edge 7, Type (0, 0), BuildingBlock: AJUNOK_clean_linker_0, # of connection points: 2
#     Edge 8, Type (0, 0), BuildingBlock: AJUNOK_clean_linker_0, # of connection points: 2
#     Edge 9, Type (0, 0), BuildingBlock: AJUNOK_clean_linker_0, # of connection points: 2
#     Edge 10, Type (0, 0), BuildingBlock: AJUNOK_clean_linker_0, # of connection points: 2
#     Edge 11, Type (0, 0), BuildingBlock: AJUNOK_clean_linker_0, # of connection points: 2
#     Edge 12, Type (0, 0), BuildingBlock: AJUNOK_clean_linker_0, # of connection points: 2
#     Edge 13, Type (0, 0), BuildingBlock: AJUNOK_clean_linker_0, # of connection points: 2
#     Edge 14, Type (0, 0), BuildingBlock: AJUNOK_clean_linker_0, # of connection points: 2
#     Edge 15, Type (0, 0), BuildingBlock: AJUNOK_clean_linker_0, # of connection points: 2
# Relax obj value: 0.255
# Max RMSD: 0.247
# Mean RMSD: 0.247
data_MOF--net-rob--node1-BETGAK_clean_sbu_0--edge1-AJUNOK_clean_linker_0
_symmetry_space_group_name_H-M    P1
_symmetry_Int_Tables_number       1
_symmetry_cell_setting            triclinic
loop_
_symmetry_equiv_pos_as_xyz
'x, y, z'
_cell_length_a     13.963691
_cell_length_b     16.237722
_cell_length_c     29.167062
_cell_angle_alpha  89.909272
_cell_angle_beta   131.4104
_cell_angle_gamma 90.300342
loop_
_atom_site_label
_atom_site_type_symbol
_atom_site_fract_x
_atom_site_fract_y
_atom_site_fract_z
_atom_type_partial_charge
La0 La 0.20839 0.30068 1.01209 0.0
La1 La 0.39908 0.19766 0.02865 0.0
C2 C 0.06375 0.36389 0.02586 0.0
C3 C 1.05507 0.35649 0.07381 0.0
C4 C 1.04915 0.42819 0.09865 0.0
C5 C 1.05037 0.42381 0.14696 0.0
C6 C 1.05764 0.34738 0.17182 0.0
C7 C 0.06254 0.27527 0.14668 0.0
C8 C 0.0616 0.27975 0.09827 0.0
C9 C 0.37686 0.38628 1.01534 0.0
C10 C 0.44248 0.23189 0.14361 0.0
C11 C 0.54712 0.13817 1.0158 0.0
C12 C 0.54881 0.13986 0.96522 0.0
C13 C 0.52373 0.0672 0.93266 0.0
C14 C 0.52186 0.06725 0.88406 0.0
C15 C 0.54485 0.14008 0.86648 0.0
C16 C 0.56878 0.21315 0.8986 0.0
C17 C 0.57128 0.21306 0.94755 0.0
C18 C 0.23311 0.1104 0.02634 0.0
C19 C 0.16408 0.26714 0.89606 0.0
O20 O 0.16765 0.3992 0.04341 0.0
O21 O 1.03224 0.29949 0.99128 0.0
O22 O 0.25648 0.40282 0.98085 0.0
O23 O 0.40106 0.32514 0.04883 0.0
O24 O 0.32109 0.25219 0.10479 0.0
O25 O 0.50539 0.2177 0.12519 0.0
O26 O 0.45285 0.09728 1.0047 0.0
O27 O 0.56986 0.2072 0.04475 0.0
O28 O 0.35332 0.094 0.05934 0.0
O29 O 0.20685 0.17249 0.99292 0.0
O30 O 0.28244 0.24048 0.93484 0.0
O31 O 0.10305 0.28699 0.9148 0.0
H32 H 1.04631 0.48801 0.08155 0.0
H33 H 1.04625 0.48048 0.16515 0.0
H34 H 0.07057 0.21553 0.1655 0.0
H35 H 0.0687 0.22334 0.08094 0.0
H36 H 0.50376 0.01019 0.94426 0.0
H37 H 0.5007 0.01029 0.85969 0.0
H38 H 0.58714 0.2703 0.88631 0.0
H39 H 0.59008 0.27045 0.97121 0.0
La40 La 0.70779 0.80314 1.00963 0.0
La41 La 0.89354 0.69534 0.02831 0.0
C42 C 0.56432 0.86564 0.02389 0.0
C43 C 0.569 0.86138 0.07626 0.0
C44 C 0.59481 0.93314 0.10971 0.0
C45 C 0.60548 0.93035 0.16087 0.0
C46 C 0.59068 0.85556 0.18008 0.0
C47 C 0.56763 0.78326 0.1474 0.0
C48 C 0.5568 0.78611 0.09607 0.0
C49 C 0.87507 0.88795 1.01227 0.0
C50 C 0.94363 0.73883 0.14427 0.0
C51 C 1.02708 0.6206 1.01199 0.0
C52 C 1.04043 0.62984 0.96582 0.0
C53 C 1.02928 0.56021 0.93412 0.0
C54 C 1.03271 0.56788 0.8874 0.0
C55 C 1.04796 0.64557 0.87129 0.0
C56 C 0.05995 0.71526 0.90344 0.0
C57 C 1.05419 0.70758 0.94941 0.0
C58 C 0.72807 0.61527 0.0297 0.0
C59 C 0.67019 0.76862 0.89602 0.0
O60 O 0.65942 0.90497 0.03487 0.0
O61 O 0.5356 0.79805 0.99247 0.0
O62 O 0.75541 0.9058 0.97918 0.0
O63 O 0.90057 0.82567 0.04563 0.0
O64 O 0.82567 0.76602 0.10488 0.0
O65 O 1.00318 0.7143 0.12562 0.0
O66 O 0.91507 0.59516 0.99034 0.0
O67 O 0.07144 0.67981 0.05208 0.0
O68 O 0.84832 0.59923 0.0641 0.0
O69 O 0.70154 0.67299 0.99321 0.0
O70 O 0.78947 0.7443 0.93668 0.0
O71 O 0.60532 0.78718 0.91288 0.0
H72 H 0.60773 0.99163 0.09653 0.0
H73 H 0.62424 0.9871 0.18517 0.0
H74 H 0.55286 0.72487 0.15994 0.0
H75 H 0.53872 0.72931 0.07196 0.0
H76 H 1.01513 0.49981 0.94458 0.0
H77 H 1.0217 0.51285 0.86333 0.0
H78 H 0.07462 0.77589 0.89347 0.0
H79 H 1.05834 0.76277 0.97123 0.0
La80 La 0.39352 0.81663 0.52526 0.0
La81 La 0.21452 0.71031 0.51393 0.0
C82 C 0.52315 0.89012 0.5054 0.0
C83 C 0.54341 0.87842 0.46208 0.0
C84 C 0.56701 0.94752 0.44202 0.0
C85 C 0.57777 0.93996 0.39791 0.0
C86 C 0.56482 0.86279 0.37246 0.0
C87 C 0.5408 0.79325 0.39248 0.0
C88 C 0.52897 0.80113 0.43645 0.0
C89 C 0.23021 0.90011 0.52674 0.0
C90 C 0.16514 0.73774 0.39704 0.0
C91 C 0.07441 0.64672 0.53072 0.0
C92 C 0.07267 0.6528 0.58087 0.0
C93 C 0.06853 0.58042 0.60574 0.0
C94 C 0.07067 0.58358 0.65431 0.0
C95 C 0.07752 0.65953 0.67971 0.0
C96 C 0.08552 0.73211 0.65579 0.0
C97 C 0.08273 0.72886 0.60682 0.0
C98 C 0.3777 0.62387 0.51395 0.0
C99 C 0.45302 0.78194 0.64427 0.0
O100 O 0.40747 0.91074 0.48046 0.0
O101 O 0.57064 0.83534 0.54845 0.0
O102 O 0.35008 0.91647 0.55966 0.0
O103 O 0.20329 0.83908 0.49244 0.0
O104 O 0.28612 0.75964 0.43544 0.0
O105 O 0.10339 0.7252 0.4163 0.0
O106 O 0.17475 0.61092 0.54532 0.0
O107 O 1.04268 0.71215 0.49709 0.0
O108 O 0.25886 0.6054 0.48336 0.0
O109 O 0.40477 0.68752 0.54647 0.0
O110 O 0.33312 0.7576 0.60715 0.0
O111 O 0.51046 0.79957 0.62334 0.0
H112 H 0.57366 0.00798 0.45921 0.0
H113 H 0.59484 0.995 0.38321 0.0
H114 H 0.52727 0.73325 0.37284 0.0
H115 H 0.50548 0.74725 0.44918 0.0
H116 H 0.06356 0.52104 0.58756 0.0
H117 H 0.06286 0.52618 0.6706 0.0
H118 H 0.09447 0.79154 0.67498 0.0
H119 H 0.08944 0.78579 0.58966 0.0
La120 La 0.90121 0.31723 0.52921 0.0
La121 La 0.71182 0.21077 0.51146 0.0
C122 C 1.05228 0.37828 0.51835 0.0
C123 C 0.06602 0.3686 0.47228 0.0
C124 C 0.06825 0.43887 0.4449 0.0
C125 C 0.07305 0.43167 0.39861 0.0
C126 C 0.07452 0.35377 0.37801 0.0
C127 C 0.07443 0.28324 0.40616 0.0
C128 C 0.06972 0.29051 0.4526 0.0
C129 C 0.73321 0.40178 0.52664 0.0
C130 C 0.66537 0.25156 0.39578 0.0
C131 C 0.56735 0.14198 0.52408 0.0
C132 C 0.55189 0.14544 0.56979 0.0
C133 C 0.54041 0.07146 0.59064 0.0
C134 C 0.53421 0.07095 0.63653 0.0
C135 C 0.54229 0.1446 0.66418 0.0
C136 C 0.55032 0.21937 0.64216 0.0
C137 C 0.5557 0.21984 0.59565 0.0
C138 C 0.87849 0.12901 0.51147 0.0
C139 C 0.94247 0.28263 0.64353 0.0
O140 O 0.94765 0.41413 0.49885 0.0
O141 O 0.0803 0.31489 0.55306 0.0
O142 O 0.85304 0.41995 0.55927 0.0
O143 O 0.70821 0.33974 0.49346 0.0
O144 O 0.78563 0.27513 0.43525 0.0
O145 O 0.6045 0.22879 0.41421 0.0
O146 O 0.67515 0.11116 0.54397 0.0
O147 O 0.53424 0.20645 0.48941 0.0
O148 O 0.7581 0.11203 0.47746 0.0
O149 O 0.90388 0.18814 0.54672 0.0
O150 O 0.82213 0.25906 0.60412 0.0
O151 O 1.00606 0.29938 0.62576 0.0
H152 H 0.06294 0.4996 0.45823 0.0
H153 H 0.07171 0.48728 0.37761 0.0
H154 H 0.07781 0.22231 0.39226 0.0
H155 H 0.06712 0.23497 0.47239 0.0
H156 H 0.5388 0.01343 0.57227 0.0
H157 H 0.52394 0.01237 0.65064 0.0
H158 H 0.55571 0.27742 0.66196 0.0
H159 H 0.56547 0.27807 0.58091 0.0
C160 C 0.51141 0.54448 0.97183 0.0
C161 C 0.63714 0.55944 0.02674 0.0
C162 C 0.43106 0.48661 0.96893 0.0
C163 C 0.47076 0.44195 1.02052 0.0
H164 H 0.47575 0.576 0.93042 0.0
H165 H 0.33723 0.47499 0.92548 0.0
S166 S 0.78783 0.46236 0.17641 0.0
N167 N 0.79596 0.52599 0.13483 0.0
N168 N 0.64445 0.41955 0.12897 0.0
C169 C 0.59587 0.45669 0.07573 0.0
C170 C 0.67839 0.51497 0.07883 0.0
C171 C 0.43674 0.48446 0.49779 0.0
C172 C 0.46975 0.56742 0.51813 0.0
C173 C 0.51943 0.43128 0.49919 0.0
C174 C 0.63908 0.45858 0.52053 0.0
H175 H 0.34644 0.45987 0.4811 0.0
H176 H 0.48971 0.36822 0.48406 0.0
S177 S 0.76135 0.6729 0.56902 0.0
N178 N 0.62758 0.674 0.55634 0.0
N179 N 0.7771 0.57789 0.55511 0.0
C180 C 0.67024 0.54204 0.53862 0.0
C181 C 0.5877 0.59515 0.53853 0.0
C182 C 1.01733 0.07877 0.99589 0.0
C183 C 0.14063 0.05351 0.02181 0.0
C184 C 0.93409 0.02603 0.9946 0.0
C185 C 0.9692 0.94502 1.0185 0.0
H186 H 0.98486 0.13993 0.97683 0.0
H187 H 0.84128 0.04926 0.97484 0.0
S188 S 0.27614 0.84636 0.08788 0.0
N189 N 0.28948 0.93902 0.06917 0.0
N190 N 0.13596 0.8436 0.06894 0.0
C191 C 0.09191 0.91972 0.04487 0.0
C192 C 0.17618 0.97257 0.04565 0.0
C193 C 0.09916 0.06449 0.56873 0.0
C194 C 0.97092 0.07481 0.51454 0.0
C195 C 0.18121 0.00835 0.5719 0.0
C196 C 0.13889 0.9584 0.52159 0.0
H197 H 0.1361 0.09908 0.60927 0.0
H198 H 0.27909 1.00379 0.61456 0.0
S199 S 0.82329 0.97675 0.3656 0.0
N200 N 0.81382 0.04011 0.40666 0.0
N201 N 0.96547 0.93377 0.41355 0.0
C202 C 1.01312 0.97115 0.46661 0.0
C203 C 0.93031 0.02923 0.46298 0.0
C204 C 0.50862 0.18952 0.29016 0.0
C205 C 0.60556 0.24708 0.33079 0.0
C206 C 0.45917 0.18228 0.22979 0.0
C207 C 0.50709 0.23105 0.20878 0.0
H208 H 0.47162 0.14954 0.30514 0.0
H209 H 0.38255 0.13861 0.19919 0.0
S210 S 0.74733 0.39768 0.29369 0.0
N211 N 0.7384 0.35894 0.34312 0.0
N212 N 0.64757 0.34262 0.23074 0.0
C213 C 0.60226 0.28907 0.24843 0.0
C214 C 0.65097 0.29774 0.30919 0.0
C215 C 0.51696 0.9157 0.23138 0.0
C216 C 0.58687 0.85489 0.23013 0.0
C217 C 0.5077 0.91602 0.27634 0.0
C218 C 0.57049 0.85676 0.32321 0.0
H219 H 0.4673 0.96327 0.19683 0.0
H220 H 0.45117 0.9637 0.27445 0.0
S221 S 0.77438 0.68784 0.34395 0.0
N222 N 0.72353 0.73511 0.28118 0.0
N223 N 0.71005 0.73747 0.36716 0.0
C224 C 0.64175 0.79583 0.32302 0.0
C225 C 0.64943 0.79471 0.2764 0.0
C226 C 0.68105 0.74438 0.81462 0.0
C227 C 0.61593 0.77858 0.83196 0.0
C228 C 0.63287 0.75058 0.75457 0.0
C229 C 0.51749 0.7909 0.70946 0.0
H230 H 0.76864 0.71039 0.84724 0.0
H231 H 0.68273 0.71994 0.74272 0.0
S232 S 0.3192 0.90148 0.7319 0.0
N233 N 0.43634 0.86171 0.79961 0.0
N234 N 0.34507 0.87221 0.68672 0.0
C235 C 0.45426 0.82844 0.72648 0.0
C236 C 0.50345 0.82252 0.78765 0.0
C237 C 0.47495 0.20072 0.72003 0.0
C238 C 0.54457 0.14277 0.71636 0.0
C239 C 0.47549 0.19953 0.76849 0.0
C240 C 0.5443 0.13974 0.81497 0.0
H241 H 0.41826 0.2469 0.68481 0.0
H242 H 0.42003 0.24519 0.7691 0.0
S243 S 0.74824 0.97691 0.82918 0.0
N244 N 0.69096 0.02685 0.7663 0.0
N245 N 0.68571 0.02206 0.85469 0.0
C246 C 0.61375 0.08129 0.81174 0.0
C247 C 0.61551 0.08347 0.76326 0.0
C248 C 0.93662 0.76827 0.22624 0.0
C249 C 1.00157 0.7328 0.20916 0.0
C250 C 0.98603 0.76515 0.28649 0.0
C251 C 0.1029 0.72702 0.33233 0.0
H252 H 0.84757 0.80062 0.19312 0.0
H253 H 0.93545 0.79633 0.29775 0.0
S254 S 0.30466 0.61645 0.31204 0.0
N255 N 0.18454 0.65195 0.24318 0.0
N256 N 0.2784 0.64726 0.35682 0.0
C257 C 0.16707 0.6887 0.31604 0.0
C258 C 0.11629 0.69131 0.25443 0.0
C259 C 0.1532 0.39809 0.32507 0.0
C260 C 0.07303 0.3471 0.32635 0.0
C261 C 0.14898 0.39648 0.27562 0.0
C262 C 0.06425 0.34406 0.22508 0.0
H263 H 0.21982 0.43987 0.3626 0.0
H264 H 0.21281 0.43675 0.27694 0.0
S265 S 0.82875 0.20168 0.20381 0.0
N266 N 0.90306 0.24437 0.2713 0.0
N267 N 0.89549 0.2415 0.17857 0.0
C268 C 0.98418 0.29222 0.22583 0.0
C269 C 0.98837 0.29381 0.27627 0.0
C270 C 0.12401 0.25538 0.75386 0.0
C271 C 1.00329 0.28942 0.70827 0.0
C272 C 0.17418 0.24904 0.81412 0.0
C273 C 0.10624 0.27732 0.83145 0.0
H274 H 0.17773 0.23014 0.74246 0.0
H275 H 0.26651 0.22007 0.84704 0.0
S276 S 0.79403 0.38384 0.72988 0.0
N277 N 0.82179 0.35949 0.68463 0.0
N278 N 0.91711 0.34893 0.79833 0.0
C279 C 0.98795 0.31549 0.78658 0.0
C280 C 0.93632 0.32122 0.72494 0.0
C281 C 0.13478 0.59944 0.77458 0.0
C282 C 0.07306 0.66151 0.72973 0.0
C283 C 0.12454 0.59488 0.81913 0.0
C284 C 1.05481 0.65289 0.82233 0.0
H285 H 0.19163 0.55331 0.77539 0.0
H286 H 0.17176 0.54514 0.85143 0.0
S287 S 0.86842 0.82585 0.71427 0.0
N288 N 0.93495 0.78169 0.69041 0.0
N289 N 0.91738 0.77284 0.77471 0.0
C290 C 0.99261 0.71572 0.77806 0.0
C291 C 1.00195 0.72028 0.73202 0.0
loop_
_geom_bond_atom_site_label_1
_geom_bond_atom_site_label_2
_geom_bond_distance
_geom_bond_site_symmetry_2
_ccdc_geom_bond_type
La0 C2 2.928 1_556 S
La0 O20 2.521 1_556 S
La0 O21 2.628 1_556 S
La0 O22 2.554 1_556 S
La0 O23 2.757 . S
La0 O24 2.470 1_556 S
La0 O29 2.482 1_556 S
La0 O31 2.503 . S
La1 C11 2.928 1_554 S
La1 O23 2.482 1_554 S
La1 O25 2.503 . S
La1 O26 2.521 1_554 S
La1 O27 2.628 1_554 S
La1 O28 2.554 1_554 S
La1 O29 2.757 . S
La1 O30 2.470 1_554 S
C2 La0 2.928 1_554 S
C2 C3 1.503 . S
C2 O20 1.261 . S
C2 O21 1.243 . S
C3 C2 1.503 . S
C3 C4 1.394 . S
C3 C8 1.373 . S
C4 C3 1.394 . S
C4 C5 1.380 . S
C4 H32 0.930 . S
C5 C4 1.380 . S
C5 C6 1.376 . S
C5 H33 0.930 . S
C6 C5 1.376 . S
C6 C7 1.370 . S
C7 C6 1.370 . S
C7 C8 1.396 . S
C7 H34 0.929 . S
C8 C3 1.373 . S
C8 C7 1.396 . S
C8 H35 0.929 . S
C9 O22 1.240 . S
C9 O23 1.289 1_554 S
C10 O24 1.258 . S
C10 O25 1.256 . S
C11 La1 2.928 1_556 S
C11 C12 1.503 . S
C11 O26 1.261 . S
C11 O27 1.243 . S
C12 C11 1.503 . S
C12 C13 1.394 . S
C12 C17 1.373 . S
C13 C12 1.394 . S
C13 C14 1.380 . S
C13 H36 0.930 . S
C14 C13 1.380 . S
C14 C15 1.376 . S
C14 H37 0.930 1_545 S
C15 C14 1.376 . S
C15 C16 1.370 . S
C16 C15 1.370 . S
C16 C17 1.396 . S
C16 H38 0.929 . S
C17 C12 1.373 . S
C17 C16 1.396 . S
C17 H39 0.929 . S
C18 O28 1.240 . S
C18 O29 1.289 1_556 S
C19 O30 1.258 . S
C19 O31 1.256 . S
O20 La0 2.521 1_554 S
O20 C2 1.261 . S
O21 La0 2.628 1_554 S
O21 C2 1.243 . S
O22 La0 2.554 1_554 S
O22 C9 1.240 . S
O23 La0 2.757 . S
O23 La1 2.482 1_556 S
O23 C9 1.289 1_556 S
O24 La0 2.470 1_554 S
O24 C10 1.258 . S
O25 La1 2.503 . S
O25 C10 1.256 . S
O26 La1 2.521 1_556 S
O26 C11 1.261 . S
O27 La1 2.628 1_556 S
O27 C11 1.243 . S
O28 La1 2.554 1_556 S
O28 C18 1.240 . S
O29 La0 2.482 1_554 S
O29 La1 2.757 . S
O29 C18 1.289 1_554 S
O30 La1 2.470 1_556 S
O30 C19 1.258 . S
O31 La0 2.503 . S
O31 C19 1.256 . S
H32 C4 0.930 . S
H33 C5 0.930 . S
H34 C7 0.929 . S
H35 C8 0.929 . S
H36 C13 0.930 . S
H37 C14 0.930 1_565 S
H38 C16 0.929 . S
H39 C17 0.929 . S
La40 C42 2.928 1_556 S
La40 O60 2.521 1_556 S
La40 O61 2.628 1_556 S
La40 O62 2.554 1_556 S
La40 O63 2.757 . S
La40 O64 2.470 1_556 S
La40 O69 2.482 1_556 S
La40 O71 2.503 . S
La41 C51 2.928 1_554 S
La41 O63 2.482 1_554 S
La41 O65 2.503 . S
La41 O66 2.521 1_554 S
La41 O67 2.628 1_554 S
La41 O68 2.554 1_554 S
La41 O69 2.757 . S
La41 O70 2.470 1_554 S
C42 La40 2.928 1_554 S
C42 C43 1.503 . S
C42 O60 1.261 . S
C42 O61 1.243 . S
C43 C42 1.503 . S
C43 C44 1.394 . S
C43 C48 1.373 . S
C44 C43 1.394 . S
C44 C45 1.380 . S
C44 H72 0.930 . S
C45 C44 1.380 . S
C45 C46 1.376 . S
C45 H73 0.930 1_565 S
C46 C45 1.376 . S
C46 C47 1.370 . S
C47 C46 1.370 . S
C47 C48 1.396 . S
C47 H74 0.929 . S
C48 C43 1.373 . S
C48 C47 1.396 . S
C48 H75 0.929 . S
C49 O62 1.240 . S
C49 O63 1.289 1_554 S
C50 O64 1.258 . S
C50 O65 1.256 . S
C51 La41 2.928 1_556 S
C51 C52 1.503 . S
C51 O66 1.261 . S
C51 O67 1.243 . S
C52 C51 1.503 . S
C52 C53 1.394 . S
C52 C57 1.373 . S
C53 C52 1.394 . S
C53 C54 1.380 . S
C53 H76 0.930 . S
C54 C53 1.380 . S
C54 C55 1.376 . S
C54 H77 0.930 . S
C55 C54 1.376 . S
C55 C56 1.370 . S
C56 C55 1.370 . S
C56 C57 1.396 . S
C56 H78 0.929 . S
C57 C52 1.373 . S
C57 C56 1.396 . S
C57 H79 0.929 . S
C58 O68 1.240 . S
C58 O69 1.289 1_556 S
C59 O70 1.258 . S
C59 O71 1.256 . S
O60 La40 2.521 1_554 S
O60 C42 1.261 . S
O61 La40 2.628 1_554 S
O61 C42 1.243 . S
O62 La40 2.554 1_554 S
O62 C49 1.240 . S
O63 La40 2.757 . S
O63 La41 2.482 1_556 S
O63 C49 1.289 1_556 S
O64 La40 2.470 1_554 S
O64 C50 1.258 . S
O65 La41 2.503 . S
O65 C50 1.256 . S
O66 La41 2.521 1_556 S
O66 C51 1.261 . S
O67 La41 2.628 1_556 S
O67 C51 1.243 . S
O68 La41 2.554 1_556 S
O68 C58 1.240 . S
O69 La40 2.482 1_554 S
O69 La41 2.757 . S
O69 C58 1.289 1_554 S
O70 La41 2.470 1_556 S
O70 C59 1.258 . S
O71 La40 2.503 . S
O71 C59 1.256 . S
H72 C44 0.930 . S
H73 C45 0.930 1_545 S
H74 C47 0.929 . S
H75 C48 0.929 . S
H76 C53 0.930 . S
H77 C54 0.930 . S
H78 C56 0.929 . S
H79 C57 0.929 . S
La80 C82 2.928 . S
La80 O100 2.521 . S
La80 O101 2.628 . S
La80 O102 2.554 . S
La80 O103 2.757 . S
La80 O104 2.470 . S
La80 O109 2.482 . S
La80 O111 2.503 . S
La81 C91 2.928 . S
La81 O103 2.482 . S
La81 O105 2.503 . S
La81 O106 2.521 . S
La81 O107 2.628 . S
La81 O108 2.554 . S
La81 O109 2.757 . S
La81 O110 2.470 . S
C82 La80 2.928 . S
C82 C83 1.503 . S
C82 O100 1.261 . S
C82 O101 1.243 . S
C83 C82 1.503 . S
C83 C84 1.394 . S
C83 C88 1.373 . S
C84 C83 1.394 . S
C84 C85 1.380 . S
C84 H112 0.930 . S
C85 C84 1.380 . S
C85 C86 1.376 . S
C85 H113 0.930 1_565 S
C86 C85 1.376 . S
C86 C87 1.370 . S
C87 C86 1.370 . S
C87 C88 1.396 . S
C87 H114 0.929 . S
C88 C83 1.373 . S
C88 C87 1.396 . S
C88 H115 0.929 . S
C89 O102 1.240 . S
C89 O103 1.289 . S
C90 O104 1.258 . S
C90 O105 1.256 . S
C91 La81 2.928 . S
C91 C92 1.503 . S
C91 O106 1.261 . S
C91 O107 1.243 . S
C92 C91 1.503 . S
C92 C93 1.394 . S
C92 C97 1.373 . S
C93 C92 1.394 . S
C93 C94 1.380 . S
C93 H116 0.930 . S
C94 C93 1.380 . S
C94 C95 1.376 . S
C94 H117 0.930 . S
C95 C94 1.376 . S
C95 C96 1.370 . S
C96 C95 1.370 . S
C96 C97 1.396 . S
C96 H118 0.929 . S
C97 C92 1.373 . S
C97 C96 1.396 . S
C97 H119 0.929 . S
C98 O108 1.240 . S
C98 O109 1.289 . S
C99 O110 1.258 . S
C99 O111 1.256 . S
O100 La80 2.521 . S
O100 C82 1.261 . S
O101 La80 2.628 . S
O101 C82 1.243 . S
O102 La80 2.554 . S
O102 C89 1.240 . S
O103 La80 2.757 . S
O103 La81 2.482 . S
O103 C89 1.289 . S
O104 La80 2.470 . S
O104 C90 1.258 . S
O105 La81 2.503 . S
O105 C90 1.256 . S
O106 La81 2.521 . S
O106 C91 1.261 . S
O107 La81 2.628 . S
O107 C91 1.243 . S
O108 La81 2.554 . S
O108 C98 1.240 . S
O109 La80 2.482 . S
O109 La81 2.757 . S
O109 C98 1.289 . S
O110 La81 2.470 . S
O110 C99 1.258 . S
O111 La80 2.503 . S
O111 C99 1.256 . S
H112 C84 0.930 . S
H113 C85 0.930 1_545 S
H114 C87 0.929 . S
H115 C88 0.929 . S
H116 C93 0.930 . S
H117 C94 0.930 . S
H118 C96 0.929 . S
H119 C97 0.929 . S
La120 C122 2.928 . S
La120 O140 2.521 . S
La120 O141 2.628 . S
La120 O142 2.554 . S
La120 O143 2.757 . S
La120 O144 2.470 . S
La120 O149 2.482 . S
La120 O151 2.503 . S
La121 C131 2.928 . S
La121 O143 2.482 . S
La121 O145 2.503 . S
La121 O146 2.521 . S
La121 O147 2.628 . S
La121 O148 2.554 . S
La121 O149 2.757 . S
La121 O150 2.470 . S
C122 La120 2.928 . S
C122 C123 1.503 . S
C122 O140 1.261 . S
C122 O141 1.243 . S
C123 C122 1.503 . S
C123 C124 1.394 . S
C123 C128 1.373 . S
C124 C123 1.394 . S
C124 C125 1.380 . S
C124 H152 0.930 . S
C125 C124 1.380 . S
C125 C126 1.376 . S
C125 H153 0.930 . S
C126 C125 1.376 . S
C126 C127 1.370 . S
C127 C126 1.370 . S
C127 C128 1.396 . S
C127 H154 0.929 . S
C128 C123 1.373 . S
C128 C127 1.396 . S
C128 H155 0.929 . S
C129 O142 1.240 . S
C129 O143 1.289 . S
C130 O144 1.258 . S
C130 O145 1.256 . S
C131 La121 2.928 . S
C131 C132 1.503 . S
C131 O146 1.261 . S
C131 O147 1.243 . S
C132 C131 1.503 . S
C132 C133 1.394 . S
C132 C137 1.373 . S
C133 C132 1.394 . S
C133 C134 1.380 . S
C133 H156 0.930 . S
C134 C133 1.380 . S
C134 C135 1.376 . S
C134 H157 0.930 1_545 S
C135 C134 1.376 . S
C135 C136 1.370 . S
C136 C135 1.370 . S
C136 C137 1.396 . S
C136 H158 0.929 . S
C137 C132 1.373 . S
C137 C136 1.396 . S
C137 H159 0.929 . S
C138 O148 1.240 . S
C138 O149 1.289 . S
C139 O150 1.258 . S
C139 O151 1.256 . S
O140 La120 2.521 . S
O140 C122 1.261 . S
O141 La120 2.628 . S
O141 C122 1.243 . S
O142 La120 2.554 . S
O142 C129 1.240 . S
O143 La120 2.757 . S
O143 La121 2.482 . S
O143 C129 1.289 . S
O144 La120 2.470 . S
O144 C130 1.258 . S
O145 La121 2.503 . S
O145 C130 1.256 . S
O146 La121 2.521 . S
O146 C131 1.261 . S
O147 La121 2.628 . S
O147 C131 1.243 . S
O148 La121 2.554 . S
O148 C138 1.240 . S
O149 La120 2.482 . S
O149 La121 2.757 . S
O149 C138 1.289 . S
O150 La121 2.470 . S
O150 C139 1.258 . S
O151 La120 2.503 . S
O151 C139 1.256 . S
H152 C124 0.930 . S
H153 C125 0.930 . S
H154 C127 0.929 . S
H155 C128 0.929 . S
H156 C133 0.930 . S
H157 C134 0.930 1_565 S
H158 C136 0.929 . S
H159 C137 0.929 . S
C160 C161 1.369 . S
C160 C162 1.419 . S
C160 H164 0.930 . S
C161 C160 1.369 . S
C161 C170 1.429 1_556 S
C162 C160 1.419 . S
C162 C163 1.363 1_556 S
C162 H165 0.929 . S
C163 C162 1.363 1_554 S
C163 C169 1.428 . S
H164 C160 0.930 . S
H165 C162 0.929 . S
S166 N167 1.613 . S
S166 N168 1.610 . S
N167 S166 1.613 . S
N167 C170 1.350 . S
N168 S166 1.610 . S
N168 C169 1.351 . S
C169 C163 1.428 . S
C169 N168 1.351 . S
C169 C170 1.434 . S
C170 C161 1.429 1_554 S
C170 N167 1.350 . S
C170 C169 1.434 . S
C171 C172 1.369 . S
C171 C173 1.419 . S
C171 H175 0.930 . S
C172 C171 1.369 . S
C172 C181 1.429 . S
C173 C171 1.419 . S
C173 C174 1.363 . S
C173 H176 0.929 . S
C174 C173 1.363 . S
C174 C180 1.428 . S
H175 C171 0.930 . S
H176 C173 0.929 . S
S177 N178 1.613 . S
S177 N179 1.610 . S
N178 S177 1.613 . S
N178 C181 1.350 . S
N179 S177 1.610 . S
N179 C180 1.351 . S
C180 C174 1.428 . S
C180 N179 1.351 . S
C180 C181 1.434 . S
C181 C172 1.429 . S
C181 N178 1.350 . S
C181 C180 1.434 . S
C182 C183 1.369 1_655 S
C182 C184 1.419 . S
C182 H186 0.930 . S
C183 C182 1.369 1_455 S
C183 C192 1.429 1_546 S
C184 C182 1.419 . S
C184 C185 1.363 1_546 S
C184 H187 0.929 . S
C185 C184 1.363 1_564 S
C185 C191 1.428 1_655 S
H186 C182 0.930 . S
H187 C184 0.929 . S
S188 N189 1.613 . S
S188 N190 1.610 . S
N189 S188 1.613 . S
N189 C192 1.350 . S
N190 S188 1.610 . S
N190 C191 1.351 . S
C191 C185 1.428 1_455 S
C191 N190 1.351 . S
C191 C192 1.434 . S
C192 C183 1.429 1_564 S
C192 N189 1.350 . S
C192 C191 1.434 . S
C193 C194 1.369 1_455 S
C193 C195 1.419 1_545 S
C193 H197 0.930 . S
C194 C193 1.369 1_655 S
C194 C203 1.429 . S
C195 C193 1.419 1_565 S
C195 C196 1.363 . S
C195 H198 0.929 . S
C196 C195 1.363 . S
C196 C202 1.428 1_455 S
H197 C193 0.930 . S
H198 C195 0.929 . S
S199 N200 1.613 . S
S199 N201 1.610 1_545 S
N200 S199 1.613 . S
N200 C203 1.350 . S
N201 S199 1.610 1_565 S
N201 C202 1.351 . S
C202 C196 1.428 1_655 S
C202 N201 1.351 . S
C202 C203 1.434 1_565 S
C203 C194 1.429 . S
C203 N200 1.350 . S
C203 C202 1.434 1_545 S
C204 C205 1.369 . S
C204 C206 1.419 . S
C204 H208 0.930 . S
C205 C204 1.369 . S
C205 C214 1.429 . S
C206 C204 1.419 . S
C206 C207 1.363 . S
C206 H209 0.929 . S
C207 C206 1.363 . S
C207 C213 1.428 . S
H208 C204 0.930 . S
H209 C206 0.929 . S
S210 N211 1.613 . S
S210 N212 1.610 . S
N211 S210 1.613 . S
N211 C214 1.350 . S
N212 S210 1.610 . S
N212 C213 1.351 . S
C213 C207 1.428 . S
C213 N212 1.351 . S
C213 C214 1.434 . S
C214 C205 1.429 . S
C214 N211 1.350 . S
C214 C213 1.434 . S
C215 C216 1.369 . S
C215 C217 1.419 . S
C215 H219 0.930 1_565 S
C216 C215 1.369 . S
C216 C225 1.429 . S
C217 C215 1.419 . S
C217 C218 1.363 . S
C217 H220 0.929 1_565 S
C218 C217 1.363 . S
C218 C224 1.428 . S
H219 C215 0.930 1_545 S
H220 C217 0.929 1_545 S
S221 N222 1.613 . S
S221 N223 1.610 . S
N222 S221 1.613 . S
N222 C225 1.350 . S
N223 S221 1.610 . S
N223 C224 1.351 . S
C224 C218 1.428 . S
C224 N223 1.351 . S
C224 C225 1.434 . S
C225 C216 1.429 . S
C225 N222 1.350 . S
C225 C224 1.434 . S
C226 C227 1.369 . S
C226 C228 1.419 . S
C226 H230 0.930 . S
C227 C226 1.369 . S
C227 C236 1.429 . S
C228 C226 1.419 . S
C228 C229 1.363 . S
C228 H231 0.929 . S
C229 C228 1.363 . S
C229 C235 1.428 . S
H230 C226 0.930 . S
H231 C228 0.929 . S
S232 N233 1.613 . S
S232 N234 1.610 . S
N233 S232 1.613 . S
N233 C236 1.350 . S
N234 S232 1.610 . S
N234 C235 1.351 . S
C235 C229 1.428 . S
C235 N234 1.351 . S
C235 C236 1.434 . S
C236 C227 1.429 . S
C236 N233 1.350 . S
C236 C235 1.434 . S
C237 C238 1.369 . S
C237 C239 1.419 . S
C237 H241 0.930 . S
C238 C237 1.369 . S
C238 C247 1.429 . S
C239 C237 1.419 . S
C239 C240 1.363 . S
C239 H242 0.929 . S
C240 C239 1.363 . S
C240 C246 1.428 . S
H241 C237 0.930 . S
H242 C239 0.929 . S
S243 N244 1.613 . S
S243 N245 1.610 . S
N244 S243 1.613 . S
N244 C247 1.350 . S
N245 S243 1.610 . S
N245 C246 1.351 . S
C246 C240 1.428 . S
C246 N245 1.351 . S
C246 C247 1.434 . S
C247 C238 1.429 . S
C247 N244 1.350 . S
C247 C246 1.434 . S
C248 C249 1.369 . S
C248 C250 1.419 . S
C248 H252 0.930 . S
C249 C248 1.369 . S
C249 C258 1.429 1_655 S
C250 C248 1.419 . S
C250 C251 1.363 1_655 S
C250 H253 0.929 . S
C251 C250 1.363 1_455 S
C251 C257 1.428 . S
H252 C248 0.930 . S
H253 C250 0.929 . S
S254 N255 1.613 . S
S254 N256 1.610 . S
N255 S254 1.613 . S
N255 C258 1.350 . S
N256 S254 1.610 . S
N256 C257 1.351 . S
C257 C251 1.428 . S
C257 N256 1.351 . S
C257 C258 1.434 . S
C258 C249 1.429 1_455 S
C258 N255 1.350 . S
C258 C257 1.434 . S
C259 C260 1.369 . S
C259 C261 1.419 . S
C259 H263 0.930 . S
C260 C259 1.369 . S
C260 C269 1.429 1_455 S
C261 C259 1.419 . S
C261 C262 1.363 1_455 S
C261 H264 0.929 . S
C262 C261 1.363 1_655 S
C262 C268 1.428 . S
H263 C259 0.930 . S
H264 C261 0.929 . S
S265 N266 1.613 . S
S265 N267 1.610 . S
N266 S265 1.613 . S
N266 C269 1.350 . S
N267 S265 1.610 . S
N267 C268 1.351 . S
C268 C262 1.428 . S
C268 N267 1.351 . S
C268 C269 1.434 . S
C269 C260 1.429 1_655 S
C269 N266 1.350 . S
C269 C268 1.434 . S
C270 C271 1.369 1_455 S
C270 C272 1.419 . S
C270 H274 0.930 . S
C271 C270 1.369 1_655 S
C271 C280 1.429 . S
C272 C270 1.419 . S
C272 C273 1.363 . S
C272 H275 0.929 . S
C273 C272 1.363 . S
C273 C279 1.428 1_455 S
H274 C270 0.930 . S
H275 C272 0.929 . S
S276 N277 1.613 . S
S276 N278 1.610 . S
N277 S276 1.613 . S
N277 C280 1.350 . S
N278 S276 1.610 . S
N278 C279 1.351 . S
C279 C273 1.428 1_655 S
C279 N278 1.351 . S
C279 C280 1.434 . S
C280 C271 1.429 . S
C280 N277 1.350 . S
C280 C279 1.434 . S
C281 C282 1.369 1_455 S
C281 C283 1.419 . S
C281 H285 0.930 . S
C282 C281 1.369 1_655 S
C282 C291 1.429 . S
C283 C281 1.419 . S
C283 C284 1.363 . S
C283 H286 0.929 . S
C284 C283 1.363 . S
C284 C290 1.428 1_455 S
H285 C281 0.930 . S
H286 C283 0.929 . S
S287 N288 1.613 . S
S287 N289 1.610 . S
N288 S287 1.613 . S
N288 C291 1.350 . S
N289 S287 1.610 . S
N289 C290 1.351 . S
C290 C284 1.428 1_655 S
C290 N289 1.351 . S
C290 C291 1.434 . S
C291 C282 1.429 . S
C291 N288 1.350 . S
C291 C290 1.434 . S
C161 C58 1.731 . S
C163 C9 1.735 . S
C172 C98 1.731 . S
C174 C129 1.735 . S
C183 C18 1.733 . S
C185 C49 1.734 . S
C194 C138 1.732 . S
C196 C89 1.735 . S
C205 C130 1.854 . S
C207 C10 1.855 . S
C216 C46 1.178 . S
C218 C86 1.179 . S
C227 C59 1.857 . S
C229 C99 1.857 . S
C238 C135 1.179 . S
C240 C15 1.184 . S
C249 C50 1.858 . S
C251 C90 1.857 . S
C260 C126 1.177 1_455 S
C262 C6 1.180 1_655 S
C271 C139 1.858 . S
C273 C19 1.858 . S
C282 C95 1.180 1_655 S
C284 C55 1.178 1_455 S
