# Generated by pormake.
# Topology zft, (5)-cn, num edge types: 1
# Building blocks:
#     Node 0, Type 0, BuildingBlock: XOMCOT_clean_sbu_1, # of connection points: 5
#     Node 1, Type 0, BuildingBlock: XOMCOT_clean_sbu_1, # of connection points: 5
#     Node 2, Type 0, BuildingBlock: XOMCOT_clean_sbu_1, # of connection points: 5
#     Node 3, Type 0, BuildingBlock: XOMCOT_clean_sbu_1, # of connection points: 5
#     Node 4, Type 0, BuildingBlock: XOMCOT_clean_sbu_1, # of connection points: 5
#     Node 5, Type 0, BuildingBlock: XOMCOT_clean_sbu_1, # of connection points: 5
#     Node 6, Type 0, BuildingBlock: XOMCOT_clean_sbu_1, # of connection points: 5
#     Node 7, Type 0, BuildingBlock: XOMCOT_clean_sbu_1, # of connection points: 5
#     Edge 8, Type (0, 0), BuildingBlock: XUDNAN_clean_linker_2, # of connection points: 2
#     Edge 9, Type (0, 0), BuildingBlock: XUDNAN_clean_linker_2, # of connection points: 2
#     Edge 10, Type (0, 0), BuildingBlock: XUDNAN_clean_linker_2, # of connection points: 2
#     Edge 11, Type (0, 0), BuildingBlock: XUDNAN_clean_linker_2, # of connection points: 2
#     Edge 12, Type (0, 0), BuildingBlock: XUDNAN_clean_linker_2, # of connection points: 2
#     Edge 13, Type (0, 0), BuildingBlock: XUDNAN_clean_linker_2, # of connection points: 2
#     Edge 14, Type (0, 0), BuildingBlock: XUDNAN_clean_linker_2, # of connection points: 2
#     Edge 15, Type (0, 0), BuildingBlock: XUDNAN_clean_linker_2, # of connection points: 2
#     Edge 16, Type (0, 0), BuildingBlock: XUDNAN_clean_linker_2, # of connection points: 2
#     Edge 17, Type (0, 0), BuildingBlock: XUDNAN_clean_linker_2, # of connection points: 2
#     Edge 18, Type (0, 0), BuildingBlock: XUDNAN_clean_linker_2, # of connection points: 2
#     Edge 19, Type (0, 0), BuildingBlock: XUDNAN_clean_linker_2, # of connection points: 2
#     Edge 20, Type (0, 0), BuildingBlock: XUDNAN_clean_linker_2, # of connection points: 2
#     Edge 21, Type (0, 0), BuildingBlock: XUDNAN_clean_linker_2, # of connection points: 2
#     Edge 22, Type (0, 0), BuildingBlock: XUDNAN_clean_linker_2, # of connection points: 2
#     Edge 23, Type (0, 0), BuildingBlock: XUDNAN_clean_linker_2, # of connection points: 2
#     Edge 24, Type (0, 0), BuildingBlock: XUDNAN_clean_linker_2, # of connection points: 2
#     Edge 25, Type (0, 0), BuildingBlock: XUDNAN_clean_linker_2, # of connection points: 2
#     Edge 26, Type (0, 0), BuildingBlock: XUDNAN_clean_linker_2, # of connection points: 2
#     Edge 27, Type (0, 0), BuildingBlock: XUDNAN_clean_linker_2, # of connection points: 2
# Relax obj value: 0.081
# Max RMSD: 0.114
# Mean RMSD: 0.114
data_MOF--net-zft--node1-XOMCOT_clean_sbu_1--edge1-XUDNAN_clean_linker_2
_symmetry_space_group_name_H-M    P1
_symmetry_Int_Tables_number       1
_symmetry_cell_setting            triclinic
loop_
_symmetry_equiv_pos_as_xyz
'x, y, z'
_cell_length_a     29.514939
_cell_length_b     29.439843
_cell_length_c     46.894492
_cell_angle_alpha  90.243761
_cell_angle_beta   89.931884
_cell_angle_gamma 89.935895
loop_
_atom_site_label
_atom_site_type_symbol
_atom_site_fract_x
_atom_site_fract_y
_atom_site_fract_z
_atom_type_partial_charge
C0 C 0.07867 0.26064 0.25687 0.0
C1 C 0.04414 0.23184 0.26422 0.0
N2 N 0.0168 0.2267 0.2415 0.0
N3 N 0.07341 0.27386 0.2296 0.0
C4 C 0.0351 0.25269 0.2207 0.0
H5 H 0.10719 0.26948 0.2702 0.0
Co6 Co 0.11856 0.30614 0.21056 0.0
C7 C 0.07561 0.35042 0.15975 0.0
O8 O 0.11487 0.35225 0.14662 0.0
N9 N 0.16619 0.33851 0.19232 0.0
C10 C 0.23012 0.35635 0.16961 0.0
C11 C 0.20225 0.32149 0.17797 0.0
C12 C 0.17354 0.38402 0.19259 0.0
N13 N 0.21213 0.39569 0.17892 0.0
O14 O 0.11038 0.35596 0.23701 0.0
H15 H 0.20878 0.28598 0.17395 0.0
H16 H 0.15079 0.40833 0.2024 0.0
O17 O 0.07286 0.33243 0.18458 0.0
C18 C 0.14144 0.35702 0.25592 0.0
O19 O 0.17394 0.32652 0.25442 0.0
N20 N 0.12851 0.25496 0.1872 0.0
C21 C 0.1558 0.17545 0.15937 0.0
C22 C 0.12459 0.20507 0.14663 0.0
C23 C 0.11074 0.2444 0.16111 0.0
C24 C 0.1571 0.22541 0.20042 0.0
C25 C 0.17134 0.18558 0.18689 0.0
H26 H 0.08576 0.26561 0.15115 0.0
H27 H 0.17003 0.2337 0.22138 0.0
H28 H 0.02261 0.2539 0.19902 0.0
H29 H 0.04023 0.21466 0.28444 0.0
H30 H 0.2619 0.35286 0.15825 0.0
H31 H 0.11083 0.19778 0.1257 0.0
H32 H 0.19547 0.16372 0.19753 0.0
C33 C 0.29729 0.59492 0.49414 0.0
C34 C 0.32518 0.55914 0.50028 0.0
N35 N 0.30551 0.521 0.49071 0.0
N36 N 0.26051 0.58031 0.4796 0.0
C37 C 0.2656 0.53429 0.47921 0.0
H38 H 0.30352 0.62934 0.50084 0.0
Co39 Co 0.21423 0.62082 0.46654 0.0
C40 C 0.21551 0.55059 0.42052 0.0
O41 O 0.26004 0.55179 0.4209 0.0
N42 N 0.16957 0.66169 0.45564 0.0
C43 C 0.13207 0.72703 0.45479 0.0
C44 C 0.16976 0.70501 0.46492 0.0
C45 C 0.13131 0.6579 0.43995 0.0
N46 N 0.10773 0.69741 0.43908 0.0
O47 O 0.17332 0.59654 0.49438 0.0
H48 H 0.19571 0.71953 0.47842 0.0
H49 H 0.1204 0.62664 0.42994 0.0
O50 O 0.19298 0.57625 0.43758 0.0
C51 C 0.1787 0.61354 0.51923 0.0
O52 O 0.21291 0.64126 0.5235 0.0
N53 N 0.2545 0.6491 0.44039 0.0
C54 C 0.32031 0.69304 0.40768 0.0
C55 C 0.28538 0.66848 0.39448 0.0
C56 C 0.25191 0.64789 0.41125 0.0
C57 C 0.28433 0.67811 0.45303 0.0
C58 C 0.31823 0.69937 0.43729 0.0
H59 H 0.2241 0.63123 0.40062 0.0
H60 H 0.2814 0.68555 0.47549 0.0
H61 H 0.24124 0.51095 0.47012 0.0
H62 H 0.35747 0.56087 0.51117 0.0
H63 H 0.12359 0.76235 0.45847 0.0
H64 H 0.28422 0.66457 0.37152 0.0
H65 H 0.34239 0.72091 0.44824 0.0
C66 C 0.91801 0.76286 0.7532 0.0
C67 C 0.94918 0.79458 0.76184 0.0
N68 N 0.98457 0.79305 0.74377 0.0
N69 N 0.93348 0.74108 0.72978 0.0
C70 C 0.97429 0.76043 0.72443 0.0
H71 H 0.8852 0.75735 0.76279 0.0
Co72 Co 0.89694 0.70029 0.70958 0.0
C73 C 0.98532 0.66368 0.68641 0.0
O74 O 1.00483 0.65804 0.7113 0.0
N75 N 0.85949 0.6594 0.6888 0.0
C76 C 0.82877 0.62411 0.65139 0.0
C77 C 0.85455 0.66022 0.66014 0.0
C78 C 0.83602 0.62191 0.69687 0.0
N79 N 0.81727 0.59975 0.67447 0.0
O80 O 0.91057 0.65392 0.73731 0.0
H81 H 0.87008 0.68456 0.64604 0.0
H82 H 0.83412 0.60962 0.71847 0.0
O83 O 0.94574 0.68075 0.68485 0.0
C84 C 0.88037 0.654 0.75685 0.0
O85 O 0.84529 0.68114 0.75401 0.0
N86 N 0.88109 0.74756 0.68501 0.0
C87 C 0.84844 0.82304 0.6553 0.0
C88 C 0.88968 0.80222 0.64753 0.0
C89 C 0.90586 0.76492 0.66299 0.0
C90 C 0.84128 0.76714 0.69291 0.0
C91 C 0.82456 0.80498 0.67861 0.0
H92 H 0.93808 0.75015 0.65713 0.0
H93 H 0.82284 0.75367 0.71095 0.0
H94 H 0.99494 0.75273 0.70597 0.0
H95 H 0.94579 0.81759 0.77979 0.0
H96 H 0.81978 0.61612 0.62957 0.0
H97 H 0.9094 0.81441 0.62968 0.0
H98 H 0.79359 0.82038 0.68638 0.0
C99 C 0.72914 0.41832 1.00991 0.0
C100 C 0.70607 0.45153 0.0244 0.0
N101 N 0.71852 0.49205 1.01386 0.0
N102 N 0.7566 0.43747 0.99039 0.0
C103 C 0.74905 0.48276 0.99301 0.0
H104 H 0.72598 0.38216 1.01329 0.0
Co105 Co 0.79416 0.40032 0.96826 0.0
C106 C 0.81286 0.45307 0.91586 0.0
O107 O 0.79695 0.41903 0.90087 0.0
N108 N 0.83286 0.36055 0.94639 0.0
C109 C 0.86066 0.31243 0.91372 0.0
C110 C 0.82306 0.33565 0.92275 0.0
C111 C 0.87721 0.35077 0.95127 0.0
N112 N 0.89465 0.32185 0.9317 0.0
O113 O 0.84319 0.41341 0.99407 0.0
H114 H 0.79096 0.33473 0.9118 0.0
H115 H 0.89701 0.36495 0.96849 0.0
O116 O 0.81245 0.45167 0.94322 0.0
C117 C 0.8407 0.38626 0.01517 0.0
O118 O 0.8099 0.3541 0.01459 0.0
N119 N 0.74316 0.38502 0.9463 0.0
C120 C 0.66382 0.35337 0.92068 0.0
C121 C 0.6764 0.39924 0.91844 0.0
C122 C 0.71573 0.41469 0.93207 0.0
C123 C 0.72951 0.34139 0.95053 0.0
C124 C 0.69086 0.3245 0.93726 0.0
H125 H 0.72386 0.45046 0.93142 0.0
H126 H 0.74963 0.31918 0.9638 0.0
H127 H 0.76584 0.50829 0.98027 0.0
H128 H 0.68132 0.44631 0.04113 0.0
H129 H 0.86277 0.28995 0.89542 0.0
H130 H 0.6555 0.4232 0.90693 0.0
H131 H 0.68256 0.28895 0.93988 0.0
C132 C 0.59875 0.28666 0.54484 0.0
C133 C 0.56919 0.31486 0.53095 0.0
N134 N 0.53002 0.2924 0.52664 0.0
N135 N 0.57846 0.24653 0.55003 0.0
C136 C 0.53713 0.25045 0.53765 0.0
H137 H 0.6327 0.29547 0.55143 0.0
Co138 Co 0.60749 0.19946 0.57024 0.0
C139 C 0.51266 0.19609 0.59931 0.0
O140 O 0.4965 0.23469 0.58977 0.0
N141 N 0.63714 0.15296 0.59011 0.0
C142 C 0.65533 0.10584 0.62522 0.0
C143 C 0.62997 0.14302 0.61786 0.0
C144 C 0.66817 0.12203 0.58126 0.0
N145 N 0.67929 0.09276 0.60224 0.0
O146 O 0.59311 0.15729 0.53983 0.0
H147 H 0.60758 0.16166 0.63194 0.0
H148 H 0.68171 0.12031 0.55984 0.0
O149 O 0.55238 0.18302 0.59195 0.0
C150 C 0.62274 0.16185 0.52013 0.0
O151 O 0.65398 0.19319 0.52362 0.0
N152 N 0.62627 0.24153 0.59835 0.0
C153 C 0.66497 0.31262 0.62964 0.0
C154 C 0.6183 0.30385 0.63128 0.0
C155 C 0.59951 0.26824 0.61531 0.0
C156 C 0.67195 0.24828 0.59761 0.0
C157 C 0.69199 0.28345 0.6131 0.0
H158 H 0.56342 0.26418 0.61557 0.0
H159 H 0.69275 0.2275 0.58372 0.0
H160 H 0.51236 0.22339 0.53727 0.0
H161 H 0.57553 0.35006 0.52576 0.0
H162 H 0.65647 0.08978 0.64595 0.0
H163 H 0.59609 0.32584 0.64352 0.0
H164 H 0.72822 0.2886 0.61142 0.0
C165 C 0.22048 0.10782 0.78126 0.0
C166 C 0.19093 0.0773 0.76918 0.0
N167 N 0.20353 0.03517 0.77696 0.0
N168 N 0.25149 0.0852 0.7968 0.0
C169 C 0.24055 0.0408 0.79358 0.0
H170 H 0.21856 0.14441 0.77969 0.0
Co171 Co 0.29395 0.1145 0.81987 0.0
C172 C 0.33915 0.04053 0.85116 0.0
O173 O 0.37886 0.05586 0.84298 0.0
N174 N 0.33584 0.14453 0.84352 0.0
C175 C 0.3691 0.16883 0.8832 0.0
C176 C 0.33449 0.14332 0.87229 0.0
C177 C 0.37175 0.17141 0.83745 0.0
N178 N 0.39285 0.18642 0.86134 0.0
O179 O 0.34106 0.0986 0.79303 0.0
H180 H 0.30986 0.12478 0.88473 0.0
H181 H 0.38259 0.17934 0.81603 0.0
O182 O 0.30302 0.05951 0.84206 0.0
C183 C 0.34048 0.12851 0.77338 0.0
O184 O 0.31176 0.16244 0.77605 0.0
N185 N 0.24693 0.13365 0.8438 0.0
C186 C 0.17592 0.1729 0.8743 0.0
C187 C 0.18618 0.12665 0.87754 0.0
C188 C 0.22162 0.10736 0.86168 0.0
C189 C 0.23753 0.17861 0.84059 0.0
C190 C 0.20209 0.19893 0.85558 0.0
H191 H 0.22814 0.07143 0.86352 0.0
H192 H 0.25753 0.19866 0.82597 0.0
H193 H 0.25793 0.01331 0.80424 0.0
H194 H 0.16189 0.08547 0.75608 0.0
H195 H 0.37575 0.17434 0.90562 0.0
H196 H 0.16614 0.1054 0.8915 0.0
H197 H 0.19514 0.23472 0.85251 0.0
C198 C 0.44373 0.76706 0.02167 0.0
C199 C 0.48181 0.74247 0.01517 0.0
N200 N 0.50658 0.73728 0.03908 0.0
N201 N 0.44397 0.77798 0.04958 0.0
C202 C 0.48267 0.7593 0.05974 0.0
H203 H 0.41654 0.77456 1.00705 0.0
Co204 Co 0.39488 0.80644 0.06757 0.0
C205 C 0.43012 0.85848 0.11835 0.0
O206 O 0.38983 0.8572 0.13014 0.0
N207 N 0.34361 0.83489 0.08458 0.0
C208 C 0.27824 0.84957 0.10673 0.0
C209 C 0.30845 0.8161 0.09884 0.0
C210 C 0.3332 0.87972 0.08363 0.0
N211 N 0.29389 0.88947 0.097 0.0
O212 O 0.3979 0.85526 0.03987 0.0
H213 H 0.30452 0.78039 0.10333 0.0
H214 H 0.35473 0.90515 0.07401 0.0
O215 O 0.43725 0.83868 0.09425 0.0
C216 C 0.36567 0.84882 0.0221 0.0
O217 O 0.33975 0.81296 0.02557 0.0
N218 N 0.38873 0.75589 0.09159 0.0
C219 C 0.36092 0.67757 0.12013 0.0
C220 C 0.38815 0.71012 0.13388 0.0
C221 C 0.40227 0.74897 0.11909 0.0
C222 C 0.36454 0.72343 0.07753 0.0
C223 C 0.35017 0.68419 0.09134 0.0
H224 H 0.42324 0.77323 0.13005 0.0
H225 H 0.35453 0.72919 0.05566 0.0
H226 H 0.49215 0.76062 0.082 0.0
H227 H 0.48905 0.72745 0.99458 0.0
H228 H 0.24685 0.84485 0.11831 0.0
H229 H 0.39809 0.70579 0.15592 0.0
H230 H 0.32905 0.6603 0.07984 0.0
C231 C 0.79167 0.90678 0.28021 0.0
C232 C 0.82101 0.93657 0.2675 0.0
N233 N 0.80324 0.97859 0.26938 0.0
N234 N 0.7558 0.92974 0.29083 0.0
C235 C 0.763 0.9734 0.28289 0.0
H236 H 0.79685 0.87059 0.28237 0.0
Co237 Co 0.71044 0.90042 0.31212 0.0
C238 C 0.71626 0.98919 0.34921 0.0
O239 O 0.75501 1.00615 0.34055 0.0
N240 N 0.66536 0.87074 0.33327 0.0
C241 C 0.62735 0.84574 0.37096 0.0
C242 C 0.66496 0.86884 0.36203 0.0
C243 C 0.62731 0.84851 0.32518 0.0
N244 N 0.60359 0.83286 0.34782 0.0
O245 O 0.66509 0.92362 0.28642 0.0
H246 H 0.69027 0.88394 0.37577 0.0
H247 H 0.61718 0.84379 0.30321 0.0
O248 O 0.70157 0.95196 0.33855 0.0
C249 C 0.66298 0.89902 0.26392 0.0
O250 O 0.69105 0.86449 0.26164 0.0
N251 N 0.75553 0.87347 0.33522 0.0
C252 C 0.82799 0.82357 0.35774 0.0
C253 C 0.82568 0.87101 0.36124 0.0
C254 C 0.78916 0.89538 0.34975 0.0
C255 C 0.75653 0.82736 0.33244 0.0
C256 C 0.79191 0.80181 0.34383 0.0
H257 H 0.78963 0.93182 0.35106 0.0
H258 H 0.73045 0.81035 0.32024 0.0
H259 H 0.74009 1.00108 0.28776 0.0
H260 H 0.8535 0.92814 0.25812 0.0
H261 H 0.61761 0.84004 0.39292 0.0
H262 H 0.85297 0.8895 0.37141 0.0
H263 H 0.79149 0.7653 0.34098 0.0
H264 H 0.2115 0.37521 0.29164 0.0
H265 H 0.07298 0.4151 0.27365 0.0
H266 H 0.07489 0.468 0.31509 0.0
H267 H 0.20361 0.3765 0.36735 0.0
H268 H 0.25998 0.39866 0.37228 0.0
H269 H 0.24711 0.3647 0.34132 0.0
H270 H 0.27526 0.42935 0.30837 0.0
H271 H 0.28861 0.46334 0.33922 0.0
H272 H 0.25141 0.48546 0.31215 0.0
H273 H 0.09305 0.51571 0.36031 0.0
H274 H 0.12694 0.55654 0.40146 0.0
H275 H 0.25322 0.48413 0.38775 0.0
C276 C 0.18141 0.39501 0.29629 0.0
C277 C 0.14197 0.39084 0.27947 0.0
C278 C 0.10361 0.41779 0.28623 0.0
C279 C 0.10436 0.44775 0.30979 0.0
C280 C 0.14382 0.45046 0.32619 0.0
C281 C 0.18171 0.42496 0.31943 0.0
C282 C 0.22034 0.43414 0.33977 0.0
C283 C 0.23351 0.39093 0.35615 0.0
C284 C 0.26131 0.45428 0.32393 0.0
C285 C 0.19848 0.4688 0.35924 0.0
C286 C 0.15427 0.47779 0.35134 0.0
C287 C 0.12768 0.50888 0.36654 0.0
C288 C 0.14713 0.53178 0.38998 0.0
C289 C 0.1928 0.52369 0.39783 0.0
C290 C 0.21829 0.49133 0.38232 0.0
H291 H 0.07675 0.66038 0.67422 0.0
H292 H 0.94432 0.6332 0.63806 0.0
H293 H 0.98005 0.60954 0.5928 0.0
H294 H 0.12224 0.7099 0.61179 0.0
H295 H 0.17849 0.68731 0.61656 0.0
H296 H 0.14281 0.69736 0.64708 0.0
H297 H 0.15273 0.61342 0.66231 0.0
H298 H 0.18827 0.60306 0.63168 0.0
H299 H 0.1387 0.56862 0.63754 0.0
H300 H 0.03002 0.59122 0.55063 0.0
H301 H 0.08978 0.58751 0.5136 0.0
H302 H 0.18931 0.63009 0.57622 0.0
C303 C 0.05542 0.64875 0.6569 0.0
C304 C 0.00776 0.64833 0.65974 0.0
C305 C 0.98089 0.6339 0.63636 0.0
C306 C 1.00089 0.62006 0.61061 0.0
C307 C 0.04792 0.62116 0.60835 0.0
C308 C 0.07487 0.63557 0.63077 0.0
C309 C 0.12427 0.63724 0.62193 0.0
C310 C 0.14303 0.68584 0.62449 0.0
C311 C 0.15266 0.60357 0.63941 0.0
C312 C 0.12074 0.62224 0.59102 0.0
C313 C 0.07654 0.61225 0.58373 0.0
C314 C 0.06482 0.59873 0.55613 0.0
C315 C 0.099 0.59646 0.53525 0.0
C316 C 0.14419 0.60838 0.542 0.0
C317 C 0.1551 0.62059 0.57041 0.0
H318 H 0.76747 0.50179 0.87671 0.0
H319 H 0.89871 0.48839 0.91682 0.0
H320 H 0.93225 0.53873 0.87995 0.0
H321 H 0.80365 0.49697 0.80685 0.0
H322 H 0.76424 0.53833 0.79324 0.0
H323 H 0.74992 0.50581 0.82437 0.0
H324 H 0.73664 0.57963 0.85354 0.0
H325 H 0.74956 0.61246 0.82225 0.0
H326 H 0.78043 0.62223 0.85484 0.0
H327 H 0.95231 0.58287 0.83387 0.0
H328 H 0.95421 0.62676 0.7886 0.0
H329 H 0.80864 0.61242 0.78119 0.0
C330 C 0.80293 0.51094 0.87832 0.0
C331 C 0.83044 0.49221 0.89982 0.0
C332 C 0.87695 0.50361 0.90091 0.0
C333 C 0.89629 0.53164 0.87984 0.0
C334 C 0.86841 0.54823 0.85815 0.0
C335 C 0.82242 0.53917 0.8578 0.0
C336 C 0.79964 0.55984 0.83207 0.0
C337 C 0.77811 0.52304 0.81302 0.0
C338 C 0.7645 0.59568 0.84123 0.0
C339 C 0.83995 0.58142 0.8176 0.0
C340 C 0.87955 0.57412 0.83262 0.0
C341 C 0.92132 0.58931 0.82225 0.0
C342 C 0.92224 0.61373 0.79642 0.0
C343 C 0.88158 0.62304 0.78158 0.0
C344 C 0.84022 0.60614 0.79226 0.0
H345 H 0.9328 0.40173 0.01878 0.0
H346 H 0.81224 0.37831 0.06945 0.0
H347 H 0.85877 0.37412 0.11301 0.0
H348 H 0.99987 0.32261 0.05422 0.0
H349 H 0.05186 0.35457 0.05261 0.0
H350 H 0.00889 0.36293 0.02595 0.0
H351 H 0.00706 0.44906 0.03752 0.0
H352 H 0.05031 0.44099 0.06413 0.0
H353 H 0.9974 0.46765 0.0737 0.0
H354 H 0.91831 0.36397 0.1502 0.0
H355 H 0.98733 0.34917 0.17851 0.0
H356 H 0.06989 0.37796 0.10403 0.0
C357 C 0.91629 0.39727 0.03921 0.0
C358 C 0.86897 0.39099 0.04093 0.0
C359 C 0.84849 0.38351 0.06782 0.0
C360 C 0.8746 0.38117 0.09267 0.0
C361 C 0.92132 0.3861 0.09032 0.0
C362 C 0.94209 0.39418 0.06433 0.0
C363 C 0.99323 0.39391 0.06745 0.0
C364 C 0.01471 0.35627 0.04897 0.0
C365 C 0.01317 0.44069 0.06028 0.0
C366 C 0.99777 0.38355 0.09902 0.0
C367 C 0.95588 0.3796 0.11186 0.0
C368 C 0.95138 0.36763 0.1405 0.0
C369 C 0.99077 0.35921 0.15642 0.0
C370 C 0.0341 0.36265 0.14365 0.0
C371 C 0.03737 0.37552 0.11462 0.0
H372 H 0.68661 0.16388 0.47821 0.0
H373 H 0.56604 0.0908 0.50435 0.0
H374 H 0.57458 0.03987 0.46225 0.0
H375 H 0.66824 0.158 0.40229 0.0
H376 H 0.72762 0.15077 0.39444 0.0
H377 H 0.71035 0.18189 0.42577 0.0
H378 H 0.75867 0.1284 0.45729 0.0
H379 H 0.7761 0.09713 0.42609 0.0
H380 H 0.74955 0.06793 0.45538 0.0
H381 H 0.59877 0.99572 0.41688 0.0
H382 H 0.63614 0.96237 0.37443 0.0
H383 H 0.74124 0.065 0.37975 0.0
C384 C 0.6616 0.13745 0.47513 0.0
C385 C 0.62544 0.13155 0.49464 0.0
C386 C 0.59389 0.09616 0.48969 0.0
C387 C 0.59853 0.0671 0.46582 0.0
C388 C 0.6349 0.07387 0.44714 0.0
C389 C 0.66583 0.10829 0.45167 0.0
C390 C 0.70279 0.10807 0.42924 0.0
C391 C 0.70219 0.15231 0.41191 0.0
C392 C 0.74953 0.09988 0.44281 0.0
C393 C 0.6882 0.06793 0.41123 0.0
C394 C 0.64888 0.04865 0.42171 0.0
C395 C 0.62953 0.01072 0.4086 0.0
C396 C 0.6511 0.99193 0.38445 0.0
C397 C 0.69187 0.01082 0.37365 0.0
C398 C 0.71016 0.04962 0.38727 0.0
H399 H 0.34052 0.18762 0.72911 0.0
H400 H 0.40806 0.06627 0.75965 0.0
H401 H 0.45724 0.06672 0.71652 0.0
H402 H 0.34131 0.15889 0.65432 0.0
H403 H 0.3509 0.21677 0.64349 0.0
H404 H 0.32066 0.20517 0.67604 0.0
H405 H 0.37776 0.25467 0.70438 0.0
H406 H 0.40799 0.26661 0.67194 0.0
H407 H 0.43748 0.24234 0.70188 0.0
H408 H 0.50079 0.08347 0.66961 0.0
H409 H 0.53501 0.11537 0.62583 0.0
H410 H 0.43704 0.22533 0.62779 0.0
C411 C 0.36545 0.16083 0.72687 0.0
C412 C 0.37039 0.12684 0.74786 0.0
C413 C 0.40361 0.09263 0.74386 0.0
C414 C 0.43158 0.09262 0.7194 0.0
C415 C 0.42568 0.12691 0.69915 0.0
C416 C 0.39328 0.16032 0.70279 0.0
C417 C 0.394 0.19433 0.67872 0.0
C418 C 0.34905 0.19372 0.66217 0.0
C419 C 0.40498 0.2423 0.68991 0.0
C420 C 0.43233 0.17541 0.66089 0.0
C421 C 0.45018 0.13638 0.67278 0.0
C422 C 0.48686 0.11394 0.66021 0.0
C423 C 0.50616 0.1324 0.63532 0.0
C424 C 0.489 0.1731 0.62332 0.0
C425 C 0.451 0.19409 0.63616 0.0
H426 H 0.42316 0.90353 0.98982 0.0
H427 H 0.28248 0.86453 1.001 0.0
H428 H 0.26146 0.90785 0.95838 0.0
H429 H 0.39953 0.01922 0.96299 0.0
H430 H 0.44532 0.01774 0.93754 0.0
H431 H 0.44947 0.98584 0.97014 0.0
H432 H 0.46433 0.91261 0.94078 0.0
H433 H 0.45953 0.94416 0.90809 0.0
H434 H 0.42402 0.89532 0.91401 0.0
H435 H 0.25529 0.95036 0.91334 0.0
H436 H 0.26341 0.99687 0.87015 0.0
H437 H 0.40749 0.01072 0.88686 0.0
C438 C 0.3879 0.90501 0.98354 0.0
C439 C 0.35445 0.88056 0.99872 0.0
C440 C 0.30873 0.88271 0.98962 0.0
C441 C 0.29637 0.90722 0.96539 0.0
C442 C 0.33008 0.92963 0.9503 0.0
C443 C 0.37482 0.9294 0.95907 0.0
C444 C 0.40408 0.95597 0.93828 0.0
C445 C 0.42588 0.99714 0.95313 0.0
C446 C 0.44012 0.92517 0.92448 0.0
C447 C 0.36873 0.97071 0.91659 0.0
C448 C 0.32636 0.95488 0.92402 0.0
C449 C 0.28823 0.96338 0.90739 0.0
C450 C 0.2932 0.98983 0.88283 0.0
C451 C 0.33596 1.00779 0.8751 0.0
C452 C 0.37434 0.99737 0.89206 0.0
H453 H 0.64889 0.84671 0.21637 0.0
H454 H 0.59747 0.96582 0.2607 0.0
H455 H 0.53739 0.97342 0.22416 0.0
H456 H 0.62513 0.88487 0.14332 0.0
H457 H 0.60882 0.82886 0.13156 0.0
H458 H 0.65016 0.83544 0.15954 0.0
H459 H 0.60158 0.78506 0.19282 0.0
H460 H 0.56032 0.77816 0.16494 0.0
H461 H 0.54319 0.79998 0.19928 0.0
H462 H 0.47917 0.96374 0.18535 0.0
H463 H 0.42581 0.93654 0.14858 0.0
H464 H 0.51553 0.82412 0.12885 0.0
C465 C 0.62549 0.87491 0.21825 0.0
C466 C 0.62815 0.90593 0.24142 0.0
C467 C 0.59634 0.94184 0.24314 0.0
C468 C 0.56219 0.94645 0.22241 0.0
C469 C 0.56042 0.91501 0.20001 0.0
C470 C 0.59128 0.87993 0.19782 0.0
C471 C 0.58025 0.84882 0.17284 0.0
C472 C 0.61836 0.84956 0.15049 0.0
C473 C 0.57076 0.80014 0.18309 0.0
C474 C 0.53765 0.87126 0.16156 0.0
C475 C 0.5271 0.90965 0.17742 0.0
C476 C 0.48757 0.93425 0.17253 0.0
C477 C 0.45752 0.9186 0.15154 0.0
C478 C 0.46704 0.87884 0.13548 0.0
C479 C 0.50818 0.85547 0.14012 0.0
H480 H 0.24839 0.9214 0.14319 0.0
H481 H 0.29321 0.95718 0.05819 0.0
H482 H 0.2588 0.03342 0.06386 0.0
H483 H 0.14123 0.98274 0.14224 0.0
H484 H 0.14568 1.0006 0.17894 0.0
H485 H 0.17149 0.94811 0.16749 0.0
H486 H 0.24902 0.97555 0.18687 0.0
H487 H 0.22346 0.02806 0.19839 0.0
H488 H 0.27175 0.02897 0.17484 0.0
H489 H 0.22013 0.10597 0.07914 0.0
H490 H 0.18506 0.17132 0.10407 0.0
H491 H 0.16742 0.0888 0.1797 0.0
C492 C 0.25036 0.94515 0.12568 0.0
C493 C 0.27316 0.93348 0.10019 0.0
C494 C 0.27605 0.96568 0.07792 0.0
C495 C 0.25638 0.00887 0.0809 0.0
C496 C 0.23427 0.0194 0.10637 0.0
C497 C 0.23146 0.98859 0.12846 0.0
C498 C 0.20802 0.00922 0.15421 0.0
C499 C 0.16399 0.98364 0.16112 0.0
C500 C 0.23998 0.01053 0.1801 0.0
C501 C 0.19828 0.05652 0.14321 0.0
C502 C 0.21318 0.06155 0.11546 0.0
C503 C 0.20821 0.10238 0.10084 0.0
C504 C 0.18803 0.13922 0.11511 0.0
C505 C 0.1735 0.13513 0.14379 0.0
C506 C 0.17843 0.09302 0.15783 0.0
H507 H 0.57474 0.77316 0.38753 0.0
H508 H 0.53476 0.84017 0.30936 0.0
H509 H 0.45808 0.80654 0.31369 0.0
H510 H 0.50765 0.66927 0.3777 0.0
H511 H 0.49453 0.66581 0.41517 0.0
H512 H 0.54712 0.69088 0.40373 0.0
H513 H 0.52752 0.7643 0.4319 0.0
H514 H 0.4748 0.73965 0.44325 0.0
H515 H 0.47488 0.79324 0.4248 0.0
H516 H 0.38306 0.77084 0.32979 0.0
H517 H 0.31841 0.73597 0.35538 0.0
H518 H 0.40948 0.69353 0.42277 0.0
C519 C 0.55005 0.7805 0.37114 0.0
C520 C 0.56069 0.80945 0.34816 0.0
C521 C 0.52751 0.81772 0.32699 0.0
C522 C 0.48383 0.79891 0.32937 0.0
C523 C 0.47415 0.77159 0.35287 0.0
C524 C 0.50663 0.76213 0.37321 0.0
C525 C 0.48753 0.73404 0.39729 0.0
C526 C 0.51058 0.68722 0.39853 0.0
C527 C 0.49141 0.75934 0.42599 0.0
C528 C 0.43881 0.73009 0.38782 0.0
C529 C 0.4316 0.75148 0.36204 0.0
C530 C 0.38854 0.75357 0.34982 0.0
C531 C 0.35203 0.73358 0.36446 0.0
C532 C 0.35882 0.71217 0.39115 0.0
C533 C 0.403 0.71006 0.40259 0.0
H534 H 0.66086 1.00761 0.61883 0.0
H535 H 0.76643 0.09302 0.58429 0.0
H536 H 0.82195 0.03009 0.58995 0.0
H537 H 0.72322 0.95578 0.67126 0.0
H538 H 0.69816 0.90027 0.66755 0.0
H539 H 0.66641 0.94989 0.65764 0.0
H540 H 0.65429 0.91691 0.60689 0.0
H541 H 0.68559 0.86679 0.61675 0.0
H542 H 0.70264 0.89927 0.58606 0.0
H543 H 0.86722 0.96138 0.60686 0.0
H544 H 0.89701 0.89164 0.62889 0.0
H545 H 0.75928 0.84856 0.64737 0.0
C546 C 0.69549 0.01245 0.61183 0.0
C547 C 0.70971 0.05473 0.60109 0.0
C548 C 0.75513 0.06047 0.59226 0.0
C549 C 0.78673 0.02504 0.59551 0.0
C550 C 0.77185 0.98393 0.60697 0.0
C551 C 0.72698 0.97723 0.61435 0.0
C552 C 0.71967 0.93075 0.62715 0.0
C553 C 0.70077 0.93443 0.6577 0.0
C554 C 0.68872 0.90171 0.60807 0.0
C555 C 0.76773 0.91291 0.62701 0.0
C556 C 0.79743 0.94391 0.6153 0.0
C557 C 0.84407 0.93635 0.61535 0.0
C558 C 0.86069 0.8963 0.62784 0.0
C559 C 0.83075 0.86394 0.63999 0.0
C560 C 0.78355 0.87239 0.63879 0.0
H561 H 0.45073 0.1908 0.90619 0.0
H562 H 0.4259 0.24631 0.82204 0.0
H563 H 0.4927 0.29639 0.82769 0.0
H564 H 0.48222 0.29542 0.93941 0.0
H565 H 0.52434 0.26928 0.96181 0.0
H566 H 0.47572 0.23717 0.95038 0.0
H567 H 0.52857 0.17539 0.92894 0.0
H568 H 0.57737 0.20727 0.94033 0.0
H569 H 0.57124 0.19147 0.90336 0.0
H570 H 0.56298 0.3413 0.84362 0.0
H571 H 0.63007 0.37456 0.86751 0.0
H572 H 0.60345 0.29147 0.94191 0.0
C573 C 0.45875 0.2137 0.88895 0.0
C574 C 0.43262 0.21471 0.86373 0.0
C575 C 0.44547 0.24458 0.8415 0.0
C576 C 0.48321 0.27337 0.8446 0.0
C577 C 0.50765 0.27188 0.87004 0.0
C578 C 0.49579 0.24267 0.89177 0.0
C579 C 0.52695 0.24736 0.91713 0.0
C580 C 0.50073 0.26327 0.94375 0.0
C581 C 0.55254 0.20273 0.92275 0.0
C582 C 0.55843 0.28387 0.9064 0.0
C583 C 0.54702 0.29768 0.8792 0.0
C584 C 0.57203 0.33077 0.86496 0.0
C585 C 0.60989 0.34971 0.87878 0.0
C586 C 0.6223 0.33552 0.90657 0.0
C587 C 0.59558 0.30259 0.9205 0.0
H588 H 0.72566 0.37129 0.60584 0.0
H589 H 0.64846 0.34825 0.68318 0.0
H590 H 0.68054 0.41869 0.70413 0.0
H591 H 0.8265 0.41626 0.63945 0.0
H592 H 0.83619 0.4571 0.61158 0.0
H593 H 0.80816 0.40428 0.60355 0.0
H594 H 0.74009 0.44865 0.58254 0.0
H595 H 0.76781 0.50158 0.59061 0.0
H596 H 0.71171 0.49072 0.60418 0.0
H597 H 0.72172 0.49316 0.71619 0.0
H598 H 0.76514 0.56519 0.71725 0.0
H599 H 0.81437 0.53731 0.63176 0.0
C600 C 0.71602 0.38054 0.62739 0.0
C601 C 0.68492 0.35396 0.643 0.0
C602 C 0.67222 0.36811 0.67082 0.0
C603 C 0.69042 0.40794 0.68292 0.0
C604 C 0.72106 0.43334 0.66686 0.0
C605 C 0.73359 0.4201 0.63965 0.0
C606 C 0.7658 0.45378 0.62629 0.0
C607 C 0.81189 0.43152 0.61985 0.0
C608 C 0.7451 0.47493 0.59932 0.0
C609 C 0.76947 0.48826 0.65015 0.0
C610 C 0.74373 0.47595 0.67349 0.0
C611 C 0.74199 0.50301 0.69799 0.0
C612 C 0.7669 0.54377 0.69847 0.0
C613 C 0.79291 0.55721 0.67452 0.0
C614 C 0.79427 0.52862 0.65025 0.0
H615 H 0.10731 0.2212 0.85044 0.0
H616 H 0.15645 0.17141 0.93154 0.0
H617 H 0.0918 0.20892 0.95613 0.0
H618 H 0.0656 0.3299 0.87508 0.0
H619 H 0.01665 0.32864 0.85215 0.0
H620 H 0.06789 0.29987 0.84152 0.0
H621 H 0.02336 0.22456 0.83555 0.0
H622 H 0.97197 0.25314 0.84596 0.0
H623 H 0.99033 0.20334 0.86497 0.0
H624 H 0.02127 0.25354 0.97153 0.0
H625 H 0.94702 0.29291 0.97556 0.0
H626 H 0.94382 0.30935 0.88387 0.0
C627 C 0.1046 0.21852 0.87341 0.0
C628 C 0.13689 0.1939 0.88922 0.0
C629 C 0.13189 0.19022 0.91915 0.0
C630 C 0.09553 0.21163 0.93324 0.0
C631 C 0.06437 0.23606 0.91698 0.0
C632 C 0.06835 0.23903 0.88766 0.0
C633 C 0.02923 0.26494 0.87477 0.0
C634 C 0.04585 0.30842 0.86002 0.0
C635 C 1.00212 0.23468 0.8541 0.0
C636 C 1.0023 0.2759 0.90134 0.0
C637 C 0.02334 0.25974 0.92559 0.0
C638 C 1.00449 0.26618 0.95265 0.0
C639 C 0.96257 0.28874 0.95479 0.0
C640 C 0.93982 0.30375 0.93 0.0
C641 C 0.96041 0.29777 0.9031 0.0
H642 H 0.35297 0.58927 0.10152 0.0
H643 H 0.32332 0.67719 0.17366 0.0
H644 H 0.28305 0.61401 0.19728 0.0
H645 H 0.24728 0.53329 0.09983 0.0
H646 H 0.27028 0.47859 0.0902 0.0
H647 H 0.29949 0.52964 0.07996 0.0
H648 H 0.37229 0.50137 0.10518 0.0
H649 H 0.3434 0.45001 0.11529 0.0
H650 H 0.36971 0.48507 0.14216 0.0
H651 H 0.2407 0.54231 0.21128 0.0
H652 H 0.20534 0.46649 0.21607 0.0
H653 H 0.26291 0.42621 0.1347 0.0
C654 C 0.33833 0.59518 0.1224 0.0
C655 C 0.34137 0.63823 0.13575 0.0
C656 C 0.32201 0.64437 0.16318 0.0
C657 C 0.29875 0.60877 0.17666 0.0
C658 C 0.29544 0.56711 0.16255 0.0
C659 C 0.3152 0.56004 0.13617 0.0
C660 C 0.30608 0.51245 0.12522 0.0
C661 C 0.27918 0.51359 0.09715 0.0
C662 C 0.35052 0.48565 0.12177 0.0
C663 C 0.27765 0.49393 0.1494 0.0
C664 C 0.27171 0.52594 0.17072 0.0
C665 C 0.24544 0.51691 0.19479 0.0
C666 C 0.22517 0.47391 0.19724 0.0
C667 C 0.23147 0.44039 0.17582 0.0
C668 C 0.25801 0.45085 0.15162 0.0
H669 H 0.88205 0.83593 0.40547 0.0
H670 H 0.86771 0.75177 0.32971 0.0
H671 H 0.93511 0.708 0.34364 0.0
H672 H 1.00307 0.84261 0.40284 0.0
H673 H 0.01019 0.8408 0.44099 0.0
H674 H 0.95909 0.86404 0.426 0.0
H675 H 0.91121 0.80752 0.45561 0.0
H676 H 0.9622 0.78404 0.47066 0.0
H677 H 0.9224 0.74746 0.45268 0.0
H678 H 1.00562 0.67408 0.36508 0.0
H679 H 0.07529 0.65495 0.39167 0.0
H680 H 0.04481 0.76178 0.45283 0.0
C681 C 0.89303 0.80837 0.39176 0.0
C682 C 0.86884 0.7971 0.36665 0.0
C683 C 0.88464 0.76054 0.34944 0.0
C684 C 0.92322 0.73555 0.35705 0.0
C685 C 0.94607 0.74746 0.38191 0.0
C686 C 0.93169 0.78309 0.39897 0.0
C687 C 0.96327 0.78975 0.42412 0.0
C688 C 0.9852 0.83711 0.42343 0.0
C689 C 0.93827 0.7817 0.45244 0.0
C690 C 0.99782 0.75266 0.41832 0.0
C691 C 0.98712 0.7284 0.394 0.0
C692 C 0.01428 0.69276 0.38423 0.0
C693 C 0.05369 0.68194 0.39957 0.0
C694 C 0.0658 0.70686 0.42433 0.0
C695 C 0.03701 0.74238 0.43383 0.0
H696 H 0.89192 0.99637 0.2772 0.0
H697 H 0.76702 0.05508 0.24602 0.0
H698 H 0.80878 0.12526 0.23254 0.0
H699 H 0.93523 0.09815 0.30833 0.0
H700 H 0.99327 0.08501 0.29956 0.0
H701 H 0.95332 0.03981 0.30528 0.0
H702 H 0.97248 1.00659 0.2554 0.0
H703 H 0.01228 0.0519 0.24943 0.0
H704 H 0.96709 0.04207 0.22435 0.0
H705 H 0.86718 0.1889 0.2214 0.0
H706 H 0.93308 0.24162 0.21922 0.0
H707 H 0.01684 0.14035 0.26009 0.0
C708 C 0.8734 0.02381 0.26726 0.0
C709 C 0.8264 0.02016 0.26222 0.0
C710 C 0.80308 0.05729 0.24995 0.0
C711 C 0.82661 0.09705 0.24211 0.0
C712 C 0.87328 0.09923 0.24708 0.0
C713 C 0.89612 0.06363 0.25978 0.0
C714 C 0.94561 0.07463 0.26432 0.0
C715 C 0.95753 0.0744 0.29626 0.0
C716 C 0.97615 0.04185 0.24736 0.0
C717 C 0.94742 0.12206 0.25221 0.0
C718 C 0.90568 0.13573 0.24195 0.0
C719 C 0.89986 0.17845 0.22952 0.0
C720 C 0.93737 0.20806 0.22818 0.0
C721 C 0.97973 0.19501 0.23964 0.0
C722 C 0.98466 0.15126 0.2514 0.0
H723 H 0.5211 0.3654 0.49192 0.0
H724 H 0.44347 0.26664 0.53975 0.0
H725 H 0.37332 0.30954 0.52936 0.0
H726 H 0.46768 0.45915 0.51911 0.0
H727 H 0.46973 0.49203 0.48679 0.0
H728 H 0.51156 0.44888 0.49307 0.0
H729 H 0.49087 0.41007 0.4451 0.0
H730 H 0.44889 0.45332 0.43862 0.0
H731 H 0.43292 0.39425 0.43819 0.0
H732 H 0.31252 0.37016 0.5188 0.0
H733 H 0.26999 0.4421 0.51071 0.0
H734 H 0.38927 0.50125 0.47238 0.0
C735 C 0.48934 0.35218 0.49983 0.0
C736 C 0.4881 0.3125 0.5167 0.0
C737 C 0.4455 0.2965 0.52645 0.0
C738 C 0.40538 0.32083 0.52071 0.0
C739 C 0.40824 0.36094 0.505 0.0
C740 C 0.44931 0.37619 0.49456 0.0
C741 C 0.44475 0.42244 0.48092 0.0
C742 C 0.47521 0.45767 0.49588 0.0
C743 C 0.45496 0.41984 0.4488 0.0
C744 C 0.3951 0.4319 0.4863 0.0
C745 C 0.37408 0.39576 0.49961 0.0
C746 C 0.32861 0.39828 0.50801 0.0
C747 C 0.30461 0.43906 0.50328 0.0
C748 C 0.32646 0.47682 0.49083 0.0
C749 C 0.37185 0.47259 0.48174 0.0
H750 H 0.98465 0.88285 0.75565 0.0
H751 H 0.07228 0.76983 0.73397 0.0
H752 H 0.13962 0.81965 0.74001 0.0
H753 H 0.05061 0.96928 0.71903 0.0
H754 H 0.03857 0.01203 0.74561 0.0
H755 H 0.99829 0.96736 0.73886 0.0
H756 H 0.99987 0.9458 0.79239 0.0
H757 H 0.04041 0.99014 0.79927 0.0
H758 H 0.05324 0.9324 0.80905 0.0
H759 H 0.19756 0.88197 0.75262 0.0
H760 H 0.23976 0.95242 0.76487 0.0
H761 H 0.11268 0.02416 0.77555 0.0
C762 C 0.01804 0.86869 0.75205 0.0
C763 C 0.02349 0.82251 0.74456 0.0
C764 C 0.06758 0.80523 0.73961 0.0
C765 C 0.10588 0.8332 0.74316 0.0
C766 C 0.09931 0.87852 0.75116 0.0
C767 C 0.05632 0.89623 0.75502 0.0
C768 C 0.05792 0.94597 0.76317 0.0
C769 C 0.035 0.97539 0.7403 0.0
C770 C 0.03661 0.95402 0.79273 0.0
C771 C 0.10857 0.95357 0.76376 0.0
C772 C 0.13208 0.91429 0.75705 0.0
C773 C 0.17939 0.91298 0.75753 0.0
C774 C 0.20309 0.95295 0.76466 0.0
C775 C 0.17945 0.99371 0.7708 0.0
C776 C 0.13162 0.99369 0.7704 0.0
H777 H 0.68745 0.56088 0.98075 0.0
H778 H 0.70603 0.51854 0.06821 0.0
H779 H 0.66136 0.58443 0.08499 0.0
H780 H 0.68619 0.6879 0.99545 0.0
H781 H 0.64279 0.69709 0.96908 0.0
H782 H 0.68337 0.65185 0.96434 0.0
H783 H 0.61762 0.5942 0.95927 0.0
H784 H 0.57694 0.63901 0.9643 0.0
H785 H 0.57595 0.59011 0.98729 0.0
H786 H 0.60494 0.6471 0.09179 0.0
H787 H 0.54264 0.70244 0.08811 0.0
H788 H 0.56183 0.70634 0.99626 0.0
C789 C 0.68362 0.56678 1.00342 0.0
C790 C 0.70054 0.53508 0.02326 0.0
C791 C 0.69349 0.54272 0.05277 0.0
C792 C 0.66826 0.58007 0.06247 0.0
C793 C 0.65036 0.60979 0.04239 0.0
C794 C 0.65814 0.60394 1.01347 0.0
C795 C 0.63109 0.63801 0.99628 0.0
C796 C 0.66276 0.67065 0.98035 0.0
C797 C 0.59847 0.61387 0.97558 0.0
C798 C 0.60554 0.6624 0.01993 0.0
C799 C 0.61759 0.6461 0.04639 0.0
C800 C 0.59587 0.66084 0.07121 0.0
C801 C 0.56039 0.69251 0.06889 0.0
C802 C 0.54663 0.70905 0.04189 0.0
C803 C 0.5707 0.69441 0.01728 0.0
loop_
_geom_bond_atom_site_label_1
_geom_bond_atom_site_label_2
_geom_bond_distance
_geom_bond_site_symmetry_2
_ccdc_geom_bond_type
C0 C1 1.351 . S
C0 N3 1.368 . S
C0 H5 0.931 . S
C1 C0 1.351 . S
C1 N2 1.373 1_455 S
C1 H29 0.930 . S
N2 C1 1.373 1_655 S
N2 C4 1.340 . S
N3 C0 1.368 . S
N3 C4 1.321 1_455 S
N3 Co6 2.135 . S
C4 N2 1.340 . S
C4 N3 1.321 1_655 S
C4 H28 0.930 . S
H5 C0 0.931 . S
Co6 N3 2.135 . S
Co6 N9 2.121 . S
Co6 O14 2.055 . S
Co6 O17 2.039 . S
Co6 N20 2.140 . S
C7 O8 1.227 . S
C7 O17 1.265 . S
O8 C7 1.227 . S
N9 Co6 2.121 . S
N9 C11 1.375 . S
N9 C12 1.313 . S
C10 C11 1.338 . S
C10 N13 1.377 . S
C10 H30 0.930 . S
C11 N9 1.375 . S
C11 C10 1.338 . S
C11 H15 0.931 . S
C12 N9 1.313 . S
C12 N13 1.344 . S
C12 H16 0.930 . S
N13 C10 1.377 . S
N13 C12 1.344 . S
O14 Co6 2.055 . S
O14 C18 1.253 . S
H15 C11 0.931 . S
H16 C12 0.930 . S
O17 Co6 2.039 . S
O17 C7 1.265 . S
C18 O14 1.253 . S
C18 O19 1.227 . S
O19 C18 1.227 . S
N20 Co6 2.140 . S
N20 C23 1.346 . S
N20 C24 1.345 . S
C21 C22 1.387 . S
C21 C25 1.391 . S
C22 C21 1.387 . S
C22 C23 1.369 . S
C22 H31 0.929 . S
C23 N20 1.346 . S
C23 C22 1.369 . S
C23 H26 0.928 . S
C24 N20 1.345 . S
C24 C25 1.371 . S
C24 H27 0.931 . S
C25 C21 1.391 . S
C25 C24 1.371 . S
C25 H32 0.930 . S
H26 C23 0.928 . S
H27 C24 0.931 . S
H28 C4 0.930 . S
H29 C1 0.930 . S
H30 C10 0.930 . S
H31 C22 0.929 . S
H32 C25 0.930 . S
C33 C34 1.351 . S
C33 N36 1.368 . S
C33 H38 0.931 . S
C34 C33 1.351 . S
C34 N35 1.373 . S
C34 H62 0.930 . S
N35 C34 1.373 . S
N35 C37 1.340 . S
N36 C33 1.368 . S
N36 C37 1.321 . S
N36 Co39 2.135 . S
C37 N35 1.340 . S
C37 N36 1.321 . S
C37 H61 0.930 . S
H38 C33 0.931 . S
Co39 N36 2.135 . S
Co39 N42 2.121 . S
Co39 O47 2.055 . S
Co39 O50 2.039 . S
Co39 N53 2.140 . S
C40 O41 1.227 . S
C40 O50 1.265 . S
O41 C40 1.227 . S
N42 Co39 2.121 . S
N42 C44 1.375 . S
N42 C45 1.313 . S
C43 C44 1.338 . S
C43 N46 1.377 . S
C43 H63 0.930 . S
C44 N42 1.375 . S
C44 C43 1.338 . S
C44 H48 0.931 . S
C45 N42 1.313 . S
C45 N46 1.344 . S
C45 H49 0.930 . S
N46 C43 1.377 . S
N46 C45 1.344 . S
O47 Co39 2.055 . S
O47 C51 1.253 . S
H48 C44 0.931 . S
H49 C45 0.930 . S
O50 Co39 2.039 . S
O50 C40 1.265 . S
C51 O47 1.253 . S
C51 O52 1.227 . S
O52 C51 1.227 . S
N53 Co39 2.140 . S
N53 C56 1.346 . S
N53 C57 1.345 . S
C54 C55 1.387 . S
C54 C58 1.391 . S
C55 C54 1.387 . S
C55 C56 1.369 . S
C55 H64 0.929 . S
C56 N53 1.346 . S
C56 C55 1.369 . S
C56 H59 0.928 . S
C57 N53 1.345 . S
C57 C58 1.371 . S
C57 H60 0.931 . S
C58 C54 1.391 . S
C58 C57 1.371 . S
C58 H65 0.930 . S
H59 C56 0.928 . S
H60 C57 0.931 . S
H61 C37 0.930 . S
H62 C34 0.930 . S
H63 C43 0.930 . S
H64 C55 0.929 . S
H65 C58 0.930 . S
C66 C67 1.351 . S
C66 N69 1.368 . S
C66 H71 0.931 . S
C67 C66 1.351 . S
C67 N68 1.373 1_655 S
C67 H95 0.930 . S
N68 C67 1.373 1_455 S
N68 C70 1.340 . S
N69 C66 1.368 . S
N69 C70 1.321 1_655 S
N69 Co72 2.135 . S
C70 N68 1.340 . S
C70 N69 1.321 1_455 S
C70 H94 0.930 . S
H71 C66 0.931 . S
Co72 N69 2.135 . S
Co72 N75 2.121 . S
Co72 O80 2.055 . S
Co72 O83 2.039 . S
Co72 N86 2.140 . S
C73 O74 1.227 . S
C73 O83 1.265 . S
O74 C73 1.227 . S
N75 Co72 2.121 . S
N75 C77 1.375 . S
N75 C78 1.313 . S
C76 C77 1.338 . S
C76 N79 1.377 . S
C76 H96 0.930 . S
C77 N75 1.375 . S
C77 C76 1.338 . S
C77 H81 0.931 . S
C78 N75 1.313 . S
C78 N79 1.344 . S
C78 H82 0.930 . S
N79 C76 1.377 . S
N79 C78 1.344 . S
O80 Co72 2.055 . S
O80 C84 1.253 . S
H81 C77 0.931 . S
H82 C78 0.930 . S
O83 Co72 2.039 . S
O83 C73 1.265 . S
C84 O80 1.253 . S
C84 O85 1.227 . S
O85 C84 1.227 . S
N86 Co72 2.140 . S
N86 C89 1.346 . S
N86 C90 1.345 . S
C87 C88 1.387 . S
C87 C91 1.391 . S
C88 C87 1.387 . S
C88 C89 1.369 . S
C88 H97 0.929 . S
C89 N86 1.346 . S
C89 C88 1.369 . S
C89 H92 0.928 . S
C90 N86 1.345 . S
C90 C91 1.371 . S
C90 H93 0.931 . S
C91 C87 1.391 . S
C91 C90 1.371 . S
C91 H98 0.930 . S
H92 C89 0.928 . S
H93 C90 0.931 . S
H94 C70 0.930 . S
H95 C67 0.930 . S
H96 C76 0.930 . S
H97 C88 0.929 . S
H98 C91 0.930 . S
C99 C100 1.351 . S
C99 N102 1.368 . S
C99 H104 0.931 . S
C100 C99 1.351 . S
C100 N101 1.373 . S
C100 H128 0.930 1_556 S
N101 C100 1.373 . S
N101 C103 1.340 . S
N102 C99 1.368 . S
N102 C103 1.321 . S
N102 Co105 2.135 . S
C103 N101 1.340 . S
C103 N102 1.321 . S
C103 H127 0.930 . S
H104 C99 0.931 . S
Co105 N102 2.135 . S
Co105 N108 2.121 . S
Co105 O113 2.055 . S
Co105 O116 2.039 . S
Co105 N119 2.140 . S
C106 O107 1.227 . S
C106 O116 1.265 . S
O107 C106 1.227 . S
N108 Co105 2.121 . S
N108 C110 1.375 . S
N108 C111 1.313 . S
C109 C110 1.338 . S
C109 N112 1.377 . S
C109 H129 0.930 . S
C110 N108 1.375 . S
C110 C109 1.338 . S
C110 H114 0.931 . S
C111 N108 1.313 . S
C111 N112 1.344 . S
C111 H115 0.930 . S
N112 C109 1.377 . S
N112 C111 1.344 . S
O113 Co105 2.055 . S
O113 C117 1.253 . S
H114 C110 0.931 . S
H115 C111 0.930 . S
O116 Co105 2.039 . S
O116 C106 1.265 . S
C117 O113 1.253 . S
C117 O118 1.227 . S
O118 C117 1.227 . S
N119 Co105 2.140 . S
N119 C122 1.346 . S
N119 C123 1.345 . S
C120 C121 1.387 . S
C120 C124 1.391 . S
C121 C120 1.387 . S
C121 C122 1.369 . S
C121 H130 0.929 . S
C122 N119 1.346 . S
C122 C121 1.369 . S
C122 H125 0.928 . S
C123 N119 1.345 . S
C123 C124 1.371 . S
C123 H126 0.931 . S
C124 C120 1.391 . S
C124 C123 1.371 . S
C124 H131 0.930 . S
H125 C122 0.928 . S
H126 C123 0.931 . S
H127 C103 0.930 . S
H128 C100 0.930 1_554 S
H129 C109 0.930 . S
H130 C121 0.929 . S
H131 C124 0.930 . S
C132 C133 1.351 . S
C132 N135 1.368 . S
C132 H137 0.931 . S
C133 C132 1.351 . S
C133 N134 1.373 . S
C133 H161 0.930 . S
N134 C133 1.373 . S
N134 C136 1.340 . S
N135 C132 1.368 . S
N135 C136 1.321 . S
N135 Co138 2.135 . S
C136 N134 1.340 . S
C136 N135 1.321 . S
C136 H160 0.930 . S
H137 C132 0.931 . S
Co138 N135 2.135 . S
Co138 N141 2.121 . S
Co138 O146 2.055 . S
Co138 O149 2.039 . S
Co138 N152 2.140 . S
C139 O140 1.227 . S
C139 O149 1.265 . S
O140 C139 1.227 . S
N141 Co138 2.121 . S
N141 C143 1.375 . S
N141 C144 1.313 . S
C142 C143 1.338 . S
C142 N145 1.377 . S
C142 H162 0.930 . S
C143 N141 1.375 . S
C143 C142 1.338 . S
C143 H147 0.931 . S
C144 N141 1.313 . S
C144 N145 1.344 . S
C144 H148 0.930 . S
N145 C142 1.377 . S
N145 C144 1.344 . S
O146 Co138 2.055 . S
O146 C150 1.253 . S
H147 C143 0.931 . S
H148 C144 0.930 . S
O149 Co138 2.039 . S
O149 C139 1.265 . S
C150 O146 1.253 . S
C150 O151 1.227 . S
O151 C150 1.227 . S
N152 Co138 2.140 . S
N152 C155 1.346 . S
N152 C156 1.345 . S
C153 C154 1.387 . S
C153 C157 1.391 . S
C154 C153 1.387 . S
C154 C155 1.369 . S
C154 H163 0.929 . S
C155 N152 1.346 . S
C155 C154 1.369 . S
C155 H158 0.928 . S
C156 N152 1.345 . S
C156 C157 1.371 . S
C156 H159 0.931 . S
C157 C153 1.391 . S
C157 C156 1.371 . S
C157 H164 0.930 . S
H158 C155 0.928 . S
H159 C156 0.931 . S
H160 C136 0.930 . S
H161 C133 0.930 . S
H162 C142 0.930 . S
H163 C154 0.929 . S
H164 C157 0.930 . S
C165 C166 1.351 . S
C165 N168 1.368 . S
C165 H170 0.931 . S
C166 C165 1.351 . S
C166 N167 1.373 1_545 S
C166 H194 0.930 . S
N167 C166 1.373 1_565 S
N167 C169 1.340 . S
N168 C165 1.368 . S
N168 C169 1.321 1_545 S
N168 Co171 2.135 . S
C169 N167 1.340 . S
C169 N168 1.321 1_565 S
C169 H193 0.930 . S
H170 C165 0.931 . S
Co171 N168 2.135 . S
Co171 N174 2.121 . S
Co171 O179 2.055 . S
Co171 O182 2.039 . S
Co171 N185 2.140 . S
C172 O173 1.227 . S
C172 O182 1.265 . S
O173 C172 1.227 . S
N174 Co171 2.121 . S
N174 C176 1.375 . S
N174 C177 1.313 . S
C175 C176 1.338 . S
C175 N178 1.377 . S
C175 H195 0.930 . S
C176 N174 1.375 . S
C176 C175 1.338 . S
C176 H180 0.931 . S
C177 N174 1.313 . S
C177 N178 1.344 . S
C177 H181 0.930 . S
N178 C175 1.377 . S
N178 C177 1.344 . S
O179 Co171 2.055 . S
O179 C183 1.253 . S
H180 C176 0.931 . S
H181 C177 0.930 . S
O182 Co171 2.039 . S
O182 C172 1.265 . S
C183 O179 1.253 . S
C183 O184 1.227 . S
O184 C183 1.227 . S
N185 Co171 2.140 . S
N185 C188 1.346 . S
N185 C189 1.345 . S
C186 C187 1.387 . S
C186 C190 1.391 . S
C187 C186 1.387 . S
C187 C188 1.369 . S
C187 H196 0.929 . S
C188 N185 1.346 . S
C188 C187 1.369 . S
C188 H191 0.928 . S
C189 N185 1.345 . S
C189 C190 1.371 . S
C189 H192 0.931 . S
C190 C186 1.391 . S
C190 C189 1.371 . S
C190 H197 0.930 . S
H191 C188 0.928 . S
H192 C189 0.931 . S
H193 C169 0.930 . S
H194 C166 0.930 . S
H195 C175 0.930 . S
H196 C187 0.929 . S
H197 C190 0.930 . S
C198 C199 1.351 . S
C198 N201 1.368 . S
C198 H203 0.931 . S
C199 C198 1.351 . S
C199 N200 1.373 . S
C199 H227 0.930 1_554 S
N200 C199 1.373 . S
N200 C202 1.340 . S
N201 C198 1.368 . S
N201 C202 1.321 . S
N201 Co204 2.135 . S
C202 N200 1.340 . S
C202 N201 1.321 . S
C202 H226 0.930 . S
H203 C198 0.931 . S
Co204 N201 2.135 . S
Co204 N207 2.121 . S
Co204 O212 2.055 . S
Co204 O215 2.039 . S
Co204 N218 2.140 . S
C205 O206 1.227 . S
C205 O215 1.265 . S
O206 C205 1.227 . S
N207 Co204 2.121 . S
N207 C209 1.375 . S
N207 C210 1.313 . S
C208 C209 1.338 . S
C208 N211 1.377 . S
C208 H228 0.930 . S
C209 N207 1.375 . S
C209 C208 1.338 . S
C209 H213 0.931 . S
C210 N207 1.313 . S
C210 N211 1.344 . S
C210 H214 0.930 . S
N211 C208 1.377 . S
N211 C210 1.344 . S
O212 Co204 2.055 . S
O212 C216 1.253 . S
H213 C209 0.931 . S
H214 C210 0.930 . S
O215 Co204 2.039 . S
O215 C205 1.265 . S
C216 O212 1.253 . S
C216 O217 1.227 . S
O217 C216 1.227 . S
N218 Co204 2.140 . S
N218 C221 1.346 . S
N218 C222 1.345 . S
C219 C220 1.387 . S
C219 C223 1.391 . S
C220 C219 1.387 . S
C220 C221 1.369 . S
C220 H229 0.929 . S
C221 N218 1.346 . S
C221 C220 1.369 . S
C221 H224 0.928 . S
C222 N218 1.345 . S
C222 C223 1.371 . S
C222 H225 0.931 . S
C223 C219 1.391 . S
C223 C222 1.371 . S
C223 H230 0.930 . S
H224 C221 0.928 . S
H225 C222 0.931 . S
H226 C202 0.930 . S
H227 C199 0.930 1_556 S
H228 C208 0.930 . S
H229 C220 0.929 . S
H230 C223 0.930 . S
C231 C232 1.351 . S
C231 N234 1.368 . S
C231 H236 0.931 . S
C232 C231 1.351 . S
C232 N233 1.373 1_565 S
C232 H260 0.930 . S
N233 C232 1.373 1_545 S
N233 C235 1.340 . S
N234 C231 1.368 . S
N234 C235 1.321 1_565 S
N234 Co237 2.135 . S
C235 N233 1.340 . S
C235 N234 1.321 1_545 S
C235 H259 0.930 . S
H236 C231 0.931 . S
Co237 N234 2.135 . S
Co237 N240 2.121 . S
Co237 O245 2.055 . S
Co237 O248 2.039 . S
Co237 N251 2.140 . S
C238 O239 1.227 . S
C238 O248 1.265 . S
O239 C238 1.227 . S
N240 Co237 2.121 . S
N240 C242 1.375 . S
N240 C243 1.313 . S
C241 C242 1.338 . S
C241 N244 1.377 . S
C241 H261 0.930 . S
C242 N240 1.375 . S
C242 C241 1.338 . S
C242 H246 0.931 . S
C243 N240 1.313 . S
C243 N244 1.344 . S
C243 H247 0.930 . S
N244 C241 1.377 . S
N244 C243 1.344 . S
O245 Co237 2.055 . S
O245 C249 1.253 . S
H246 C242 0.931 . S
H247 C243 0.930 . S
O248 Co237 2.039 . S
O248 C238 1.265 . S
C249 O245 1.253 . S
C249 O250 1.227 . S
O250 C249 1.227 . S
N251 Co237 2.140 . S
N251 C254 1.346 . S
N251 C255 1.345 . S
C252 C253 1.387 . S
C252 C256 1.391 . S
C253 C252 1.387 . S
C253 C254 1.369 . S
C253 H262 0.929 . S
C254 N251 1.346 . S
C254 C253 1.369 . S
C254 H257 0.928 . S
C255 N251 1.345 . S
C255 C256 1.371 . S
C255 H258 0.931 . S
C256 C252 1.391 . S
C256 C255 1.371 . S
C256 H263 0.930 . S
H257 C254 0.928 . S
H258 C255 0.931 . S
H259 C235 0.930 . S
H260 C232 0.930 . S
H261 C241 0.930 . S
H262 C253 0.929 . S
H263 C256 0.930 . S
H264 C276 0.930 . S
H265 C278 0.930 . S
H266 C279 0.930 . S
H267 C283 0.959 . S
H268 C283 0.959 . S
H269 C283 0.961 . S
H270 C284 0.960 . S
H271 C284 0.961 . S
H272 C284 0.959 . S
H273 C287 0.929 . S
H274 C288 0.931 . S
H275 C290 0.930 . S
C276 H264 0.930 . S
C276 C277 1.399 . S
C276 C281 1.399 . S
C277 C276 1.399 . S
C277 C278 1.376 . S
C278 H265 0.930 . S
C278 C277 1.376 . S
C278 C279 1.388 . S
C279 H266 0.930 . S
C279 C278 1.388 . S
C279 C280 1.390 . S
C280 C279 1.390 . S
C280 C281 1.394 . S
C280 C286 1.465 . S
C281 C276 1.399 . S
C281 C280 1.394 . S
C281 C282 1.516 . S
C282 C281 1.516 . S
C282 C283 1.502 . S
C282 C284 1.561 . S
C282 C285 1.526 . S
C283 H267 0.959 . S
C283 H268 0.959 . S
C283 H269 0.961 . S
C283 C282 1.502 . S
C284 H270 0.960 . S
C284 H271 0.961 . S
C284 H272 0.959 . S
C284 C282 1.561 . S
C285 C282 1.526 . S
C285 C286 1.396 . S
C285 C290 1.390 . S
C286 C280 1.465 . S
C286 C285 1.396 . S
C286 C287 1.399 . S
C287 H273 0.929 . S
C287 C286 1.399 . S
C287 C288 1.385 . S
C288 H274 0.931 . S
C288 C287 1.385 . S
C288 C289 1.389 . S
C289 C288 1.389 . S
C289 C290 1.387 . S
C290 H275 0.930 . S
C290 C285 1.390 . S
C290 C289 1.387 . S
H291 C303 0.930 . S
H292 C305 0.930 1_655 S
H293 C306 0.930 . S
H294 C310 0.959 . S
H295 C310 0.959 . S
H296 C310 0.961 . S
H297 C311 0.960 . S
H298 C311 0.961 . S
H299 C311 0.959 . S
H300 C314 0.929 . S
H301 C315 0.931 . S
H302 C317 0.930 . S
C303 H291 0.930 . S
C303 C304 1.399 . S
C303 C308 1.399 . S
C304 C303 1.399 . S
C304 C305 1.376 . S
C305 H292 0.930 1_455 S
C305 C304 1.376 . S
C305 C306 1.388 . S
C306 H293 0.930 . S
C306 C305 1.388 . S
C306 C307 1.390 . S
C307 C306 1.390 . S
C307 C308 1.394 . S
C307 C313 1.465 . S
C308 C303 1.399 . S
C308 C307 1.394 . S
C308 C309 1.516 . S
C309 C308 1.516 . S
C309 C310 1.502 . S
C309 C311 1.561 . S
C309 C312 1.526 . S
C310 H294 0.959 . S
C310 H295 0.959 . S
C310 H296 0.961 . S
C310 C309 1.502 . S
C311 H297 0.960 . S
C311 H298 0.961 . S
C311 H299 0.959 . S
C311 C309 1.561 . S
C312 C309 1.526 . S
C312 C313 1.396 . S
C312 C317 1.390 . S
C313 C307 1.465 . S
C313 C312 1.396 . S
C313 C314 1.399 . S
C314 H300 0.929 . S
C314 C313 1.399 . S
C314 C315 1.385 . S
C315 H301 0.931 . S
C315 C314 1.385 . S
C315 C316 1.389 . S
C316 C315 1.389 . S
C316 C317 1.387 . S
C317 H302 0.930 . S
C317 C312 1.390 . S
C317 C316 1.387 . S
H318 C330 0.930 . S
H319 C332 0.930 . S
H320 C333 0.930 . S
H321 C337 0.959 . S
H322 C337 0.959 . S
H323 C337 0.961 . S
H324 C338 0.960 . S
H325 C338 0.961 . S
H326 C338 0.959 . S
H327 C341 0.929 . S
H328 C342 0.931 . S
H329 C344 0.930 . S
C330 H318 0.930 . S
C330 C331 1.399 . S
C330 C335 1.399 . S
C331 C330 1.399 . S
C331 C332 1.376 . S
C332 H319 0.930 . S
C332 C331 1.376 . S
C332 C333 1.388 . S
C333 H320 0.930 . S
C333 C332 1.388 . S
C333 C334 1.390 . S
C334 C333 1.390 . S
C334 C335 1.394 . S
C334 C340 1.465 . S
C335 C330 1.399 . S
C335 C334 1.394 . S
C335 C336 1.516 . S
C336 C335 1.516 . S
C336 C337 1.502 . S
C336 C338 1.561 . S
C336 C339 1.526 . S
C337 H321 0.959 . S
C337 H322 0.959 . S
C337 H323 0.961 . S
C337 C336 1.502 . S
C338 H324 0.960 . S
C338 H325 0.961 . S
C338 H326 0.959 . S
C338 C336 1.561 . S
C339 C336 1.526 . S
C339 C340 1.396 . S
C339 C344 1.390 . S
C340 C334 1.465 . S
C340 C339 1.396 . S
C340 C341 1.399 . S
C341 H327 0.929 . S
C341 C340 1.399 . S
C341 C342 1.385 . S
C342 H328 0.931 . S
C342 C341 1.385 . S
C342 C343 1.389 . S
C343 C342 1.389 . S
C343 C344 1.387 . S
C344 H329 0.930 . S
C344 C339 1.390 . S
C344 C343 1.387 . S
H345 C357 0.930 . S
H346 C359 0.930 1_556 S
H347 C360 0.930 . S
H348 C364 0.959 1_455 S
H349 C364 0.959 1_455 S
H350 C364 0.961 . S
H351 C365 0.960 . S
H352 C365 0.961 . S
H353 C365 0.959 . S
H354 C368 0.929 . S
H355 C369 0.931 . S
H356 C371 0.936 . S
C357 H345 0.930 . S
C357 C358 1.380 1_554 S
C357 C362 1.399 . S
C358 C357 1.380 1_556 S
C358 C359 1.370 1_556 S
C359 H346 0.930 1_554 S
C359 C358 1.370 1_554 S
C359 C360 1.388 . S
C360 H347 0.930 . S
C360 C359 1.388 . S
C360 C361 1.390 . S
C361 C360 1.390 . S
C361 C362 1.394 . S
C361 C367 1.465 . S
C362 C357 1.399 . S
C362 C361 1.394 . S
C362 C363 1.516 . S
C363 C362 1.516 . S
C363 C364 1.502 . S
C363 C365 1.561 . S
C363 C366 1.526 . S
C364 H348 0.959 1_655 S
C364 H349 0.959 1_655 S
C364 H350 0.961 . S
C364 C363 1.502 . S
C365 H351 0.960 . S
C365 H352 0.961 . S
C365 H353 0.959 . S
C365 C363 1.561 . S
C366 C363 1.526 . S
C366 C367 1.396 . S
C366 C371 1.390 . S
C367 C361 1.465 . S
C367 C366 1.396 . S
C367 C368 1.399 . S
C368 H354 0.929 . S
C368 C367 1.399 . S
C368 C369 1.385 . S
C369 H355 0.931 . S
C369 C368 1.385 . S
C369 C370 1.389 . S
C370 C369 1.389 . S
C370 C371 1.387 . S
C371 H356 0.936 . S
C371 C366 1.390 . S
C371 C370 1.387 . S
H372 C384 0.930 . S
H373 C386 0.930 . S
H374 C387 0.930 . S
H375 C391 0.959 . S
H376 C391 0.959 . S
H377 C391 0.961 . S
H378 C392 0.960 . S
H379 C392 0.961 . S
H380 C392 0.959 . S
H381 C395 0.929 . S
H382 C396 0.931 . S
H383 C398 0.930 . S
C384 H372 0.930 . S
C384 C385 1.399 . S
C384 C389 1.399 . S
C385 C384 1.399 . S
C385 C386 1.376 . S
C386 H373 0.930 . S
C386 C385 1.376 . S
C386 C387 1.388 . S
C387 H374 0.930 . S
C387 C386 1.388 . S
C387 C388 1.390 . S
C388 C387 1.390 . S
C388 C389 1.394 . S
C388 C394 1.465 . S
C389 C384 1.399 . S
C389 C388 1.394 . S
C389 C390 1.516 . S
C390 C389 1.516 . S
C390 C391 1.502 . S
C390 C392 1.561 . S
C390 C393 1.526 . S
C391 H375 0.959 . S
C391 H376 0.959 . S
C391 H377 0.961 . S
C391 C390 1.502 . S
C392 H378 0.960 . S
C392 H379 0.961 . S
C392 H380 0.959 . S
C392 C390 1.561 . S
C393 C390 1.526 . S
C393 C394 1.396 . S
C393 C398 1.390 . S
C394 C388 1.465 . S
C394 C393 1.396 . S
C394 C395 1.399 1_545 S
C395 H381 0.929 . S
C395 C394 1.399 1_565 S
C395 C396 1.385 . S
C396 H382 0.931 . S
C396 C395 1.385 . S
C396 C397 1.389 1_565 S
C397 C396 1.389 1_545 S
C397 C398 1.387 . S
C398 H383 0.930 . S
C398 C393 1.390 . S
C398 C397 1.387 . S
H399 C411 0.930 . S
H400 C413 0.930 . S
H401 C414 0.930 . S
H402 C418 0.959 . S
H403 C418 0.959 . S
H404 C418 0.961 . S
H405 C419 0.960 . S
H406 C419 0.961 . S
H407 C419 0.959 . S
H408 C422 0.929 . S
H409 C423 0.931 . S
H410 C425 0.930 . S
C411 H399 0.930 . S
C411 C412 1.399 . S
C411 C416 1.399 . S
C412 C411 1.399 . S
C412 C413 1.376 . S
C413 H400 0.930 . S
C413 C412 1.376 . S
C413 C414 1.388 . S
C414 H401 0.930 . S
C414 C413 1.388 . S
C414 C415 1.390 . S
C415 C414 1.390 . S
C415 C416 1.394 . S
C415 C421 1.465 . S
C416 C411 1.399 . S
C416 C415 1.394 . S
C416 C417 1.516 . S
C417 C416 1.516 . S
C417 C418 1.502 . S
C417 C419 1.561 . S
C417 C420 1.526 . S
C418 H402 0.959 . S
C418 H403 0.959 . S
C418 H404 0.961 . S
C418 C417 1.502 . S
C419 H405 0.960 . S
C419 H406 0.961 . S
C419 H407 0.959 . S
C419 C417 1.561 . S
C420 C417 1.526 . S
C420 C421 1.396 . S
C420 C425 1.390 . S
C421 C415 1.465 . S
C421 C420 1.396 . S
C421 C422 1.399 . S
C422 H408 0.929 . S
C422 C421 1.399 . S
C422 C423 1.385 . S
C423 H409 0.931 . S
C423 C422 1.385 . S
C423 C424 1.389 . S
C424 C423 1.389 . S
C424 C425 1.387 . S
C425 H410 0.930 . S
C425 C420 1.390 . S
C425 C424 1.387 . S
H426 C438 0.930 . S
H427 C440 0.930 . S
H428 C441 0.930 . S
H429 C445 0.959 . S
H430 C445 0.959 . S
H431 C445 0.961 . S
H432 C446 0.960 . S
H433 C446 0.961 . S
H434 C446 0.959 . S
H435 C449 0.929 . S
H436 C450 0.931 1_545 S
H437 C452 0.930 . S
C438 H426 0.930 . S
C438 C439 1.399 1_556 S
C438 C443 1.399 . S
C439 C438 1.399 1_554 S
C439 C440 1.376 . S
C440 H427 0.930 . S
C440 C439 1.376 . S
C440 C441 1.388 1_554 S
C441 H428 0.930 . S
C441 C440 1.388 1_556 S
C441 C442 1.390 . S
C442 C441 1.390 . S
C442 C443 1.394 . S
C442 C448 1.465 . S
C443 C438 1.399 . S
C443 C442 1.394 . S
C443 C444 1.516 . S
C444 C443 1.516 . S
C444 C445 1.502 . S
C444 C446 1.561 . S
C444 C447 1.526 . S
C445 H429 0.959 . S
C445 H430 0.959 . S
C445 H431 0.961 . S
C445 C444 1.502 . S
C446 H432 0.960 . S
C446 H433 0.961 . S
C446 H434 0.959 . S
C446 C444 1.561 . S
C447 C444 1.526 . S
C447 C448 1.396 . S
C447 C452 1.390 . S
C448 C442 1.465 . S
C448 C447 1.396 . S
C448 C449 1.399 . S
C449 H435 0.929 . S
C449 C448 1.399 . S
C449 C450 1.385 . S
C450 H436 0.931 1_565 S
C450 C449 1.385 . S
C450 C451 1.389 . S
C451 C450 1.389 . S
C451 C452 1.387 . S
C452 H437 0.930 . S
C452 C447 1.390 . S
C452 C451 1.387 . S
H453 C465 0.930 . S
H454 C467 0.930 . S
H455 C468 0.930 . S
H456 C472 0.959 . S
H457 C472 0.959 . S
H458 C472 0.961 . S
H459 C473 0.960 . S
H460 C473 0.961 . S
H461 C473 0.959 . S
H462 C476 0.929 . S
H463 C477 0.931 . S
H464 C479 0.930 . S
C465 H453 0.930 . S
C465 C466 1.399 . S
C465 C470 1.399 . S
C466 C465 1.399 . S
C466 C467 1.376 . S
C467 H454 0.930 . S
C467 C466 1.376 . S
C467 C468 1.388 . S
C468 H455 0.930 . S
C468 C467 1.388 . S
C468 C469 1.390 . S
C469 C468 1.390 . S
C469 C470 1.394 . S
C469 C475 1.465 . S
C470 C465 1.399 . S
C470 C469 1.394 . S
C470 C471 1.516 . S
C471 C470 1.516 . S
C471 C472 1.502 . S
C471 C473 1.561 . S
C471 C474 1.526 . S
C472 H456 0.959 . S
C472 H457 0.959 . S
C472 H458 0.961 . S
C472 C471 1.502 . S
C473 H459 0.960 . S
C473 H460 0.961 . S
C473 H461 0.959 . S
C473 C471 1.561 . S
C474 C471 1.526 . S
C474 C475 1.396 . S
C474 C479 1.390 . S
C475 C469 1.465 . S
C475 C474 1.396 . S
C475 C476 1.399 . S
C476 H462 0.929 . S
C476 C475 1.399 . S
C476 C477 1.385 . S
C477 H463 0.931 . S
C477 C476 1.385 . S
C477 C478 1.389 . S
C478 C477 1.389 . S
C478 C479 1.387 . S
C479 H464 0.930 . S
C479 C474 1.390 . S
C479 C478 1.387 . S
H480 C492 0.930 . S
H481 C494 0.930 . S
H482 C495 0.930 . S
H483 C499 0.959 . S
H484 C499 0.959 . S
H485 C499 0.961 1_565 S
H486 C500 0.960 . S
H487 C500 0.961 . S
H488 C500 0.959 . S
H489 C503 0.929 . S
H490 C504 0.931 . S
H491 C506 0.930 . S
C492 H480 0.930 . S
C492 C493 1.399 . S
C492 C497 1.399 1_565 S
C493 C492 1.399 . S
C493 C494 1.376 . S
C494 H481 0.930 . S
C494 C493 1.376 . S
C494 C495 1.388 1_565 S
C495 H482 0.930 . S
C495 C494 1.388 1_545 S
C495 C496 1.390 . S
C496 C495 1.390 . S
C496 C497 1.394 . S
C496 C502 1.465 . S
C497 C492 1.399 1_545 S
C497 C496 1.394 . S
C497 C498 1.516 . S
C498 C497 1.516 . S
C498 C499 1.502 . S
C498 C500 1.561 . S
C498 C501 1.526 . S
C499 H483 0.959 . S
C499 H484 0.959 . S
C499 H485 0.961 1_545 S
C499 C498 1.502 . S
C500 H486 0.960 . S
C500 H487 0.961 . S
C500 H488 0.959 . S
C500 C498 1.561 . S
C501 C498 1.526 . S
C501 C502 1.396 . S
C501 C506 1.390 . S
C502 C496 1.465 . S
C502 C501 1.396 . S
C502 C503 1.399 . S
C503 H489 0.929 . S
C503 C502 1.399 . S
C503 C504 1.385 . S
C504 H490 0.931 . S
C504 C503 1.385 . S
C504 C505 1.389 . S
C505 C504 1.389 . S
C505 C506 1.387 . S
C506 H491 0.930 . S
C506 C501 1.390 . S
C506 C505 1.387 . S
H507 C519 0.930 . S
H508 C521 0.930 . S
H509 C522 0.930 . S
H510 C526 0.959 . S
H511 C526 0.959 . S
H512 C526 0.961 . S
H513 C527 0.960 . S
H514 C527 0.961 . S
H515 C527 0.959 . S
H516 C530 0.929 . S
H517 C531 0.931 . S
H518 C533 0.930 . S
C519 H507 0.930 . S
C519 C520 1.399 . S
C519 C524 1.399 . S
C520 C519 1.399 . S
C520 C521 1.376 . S
C521 H508 0.930 . S
C521 C520 1.376 . S
C521 C522 1.388 . S
C522 H509 0.930 . S
C522 C521 1.388 . S
C522 C523 1.390 . S
C523 C522 1.390 . S
C523 C524 1.394 . S
C523 C529 1.465 . S
C524 C519 1.399 . S
C524 C523 1.394 . S
C524 C525 1.516 . S
C525 C524 1.516 . S
C525 C526 1.502 . S
C525 C527 1.561 . S
C525 C528 1.526 . S
C526 H510 0.959 . S
C526 H511 0.959 . S
C526 H512 0.961 . S
C526 C525 1.502 . S
C527 H513 0.960 . S
C527 H514 0.961 . S
C527 H515 0.959 . S
C527 C525 1.561 . S
C528 C525 1.526 . S
C528 C529 1.396 . S
C528 C533 1.390 . S
C529 C523 1.465 . S
C529 C528 1.396 . S
C529 C530 1.399 . S
C530 H516 0.929 . S
C530 C529 1.399 . S
C530 C531 1.385 . S
C531 H517 0.931 . S
C531 C530 1.385 . S
C531 C532 1.389 . S
C532 C531 1.389 . S
C532 C533 1.387 . S
C533 H518 0.930 . S
C533 C528 1.390 . S
C533 C532 1.387 . S
H534 C546 0.930 . S
H535 C548 0.930 . S
H536 C549 0.930 . S
H537 C553 0.959 . S
H538 C553 0.959 . S
H539 C553 0.961 . S
H540 C554 0.960 . S
H541 C554 0.961 . S
H542 C554 0.959 . S
H543 C557 0.929 . S
H544 C558 0.931 . S
H545 C560 0.930 . S
C546 H534 0.930 . S
C546 C547 1.399 . S
C546 C551 1.399 1_545 S
C547 C546 1.399 . S
C547 C548 1.376 . S
C548 H535 0.930 . S
C548 C547 1.376 . S
C548 C549 1.388 . S
C549 H536 0.930 . S
C549 C548 1.388 . S
C549 C550 1.390 1_545 S
C550 C549 1.390 1_565 S
C550 C551 1.394 . S
C550 C556 1.465 . S
C551 C546 1.399 1_565 S
C551 C550 1.394 . S
C551 C552 1.516 . S
C552 C551 1.516 . S
C552 C553 1.502 . S
C552 C554 1.561 . S
C552 C555 1.526 . S
C553 H537 0.959 . S
C553 H538 0.959 . S
C553 H539 0.961 . S
C553 C552 1.502 . S
C554 H540 0.960 . S
C554 H541 0.961 . S
C554 H542 0.959 . S
C554 C552 1.561 . S
C555 C552 1.526 . S
C555 C556 1.396 . S
C555 C560 1.390 . S
C556 C550 1.465 . S
C556 C555 1.396 . S
C556 C557 1.399 . S
C557 H543 0.929 . S
C557 C556 1.399 . S
C557 C558 1.385 . S
C558 H544 0.931 . S
C558 C557 1.385 . S
C558 C559 1.389 . S
C559 C558 1.389 . S
C559 C560 1.387 . S
C560 H545 0.930 . S
C560 C555 1.390 . S
C560 C559 1.387 . S
H561 C573 0.930 . S
H562 C575 0.930 . S
H563 C576 0.930 . S
H564 C580 0.959 . S
H565 C580 0.959 . S
H566 C580 0.961 . S
H567 C581 0.960 . S
H568 C581 0.961 . S
H569 C581 0.959 . S
H570 C584 0.929 . S
H571 C585 0.931 . S
H572 C587 0.930 . S
C573 H561 0.930 . S
C573 C574 1.399 . S
C573 C578 1.399 . S
C574 C573 1.399 . S
C574 C575 1.376 . S
C575 H562 0.930 . S
C575 C574 1.376 . S
C575 C576 1.388 . S
C576 H563 0.930 . S
C576 C575 1.388 . S
C576 C577 1.390 . S
C577 C576 1.390 . S
C577 C578 1.394 . S
C577 C583 1.465 . S
C578 C573 1.399 . S
C578 C577 1.394 . S
C578 C579 1.516 . S
C579 C578 1.516 . S
C579 C580 1.502 . S
C579 C581 1.561 . S
C579 C582 1.526 . S
C580 H564 0.959 . S
C580 H565 0.959 . S
C580 H566 0.961 . S
C580 C579 1.502 . S
C581 H567 0.960 . S
C581 H568 0.961 . S
C581 H569 0.959 . S
C581 C579 1.561 . S
C582 C579 1.526 . S
C582 C583 1.396 . S
C582 C587 1.390 . S
C583 C577 1.465 . S
C583 C582 1.396 . S
C583 C584 1.399 . S
C584 H570 0.929 . S
C584 C583 1.399 . S
C584 C585 1.385 . S
C585 H571 0.931 . S
C585 C584 1.385 . S
C585 C586 1.389 . S
C586 C585 1.389 . S
C586 C587 1.387 . S
C587 H572 0.930 . S
C587 C582 1.390 . S
C587 C586 1.387 . S
H588 C600 0.930 . S
H589 C602 0.930 . S
H590 C603 0.930 . S
H591 C607 0.959 . S
H592 C607 0.959 . S
H593 C607 0.961 . S
H594 C608 0.960 . S
H595 C608 0.961 . S
H596 C608 0.959 . S
H597 C611 0.929 . S
H598 C612 0.931 . S
H599 C614 0.930 . S
C600 H588 0.930 . S
C600 C601 1.399 . S
C600 C605 1.399 . S
C601 C600 1.399 . S
C601 C602 1.376 . S
C602 H589 0.930 . S
C602 C601 1.376 . S
C602 C603 1.388 . S
C603 H590 0.930 . S
C603 C602 1.388 . S
C603 C604 1.390 . S
C604 C603 1.390 . S
C604 C605 1.394 . S
C604 C610 1.465 . S
C605 C600 1.399 . S
C605 C604 1.394 . S
C605 C606 1.516 . S
C606 C605 1.516 . S
C606 C607 1.502 . S
C606 C608 1.561 . S
C606 C609 1.526 . S
C607 H591 0.959 . S
C607 H592 0.959 . S
C607 H593 0.961 . S
C607 C606 1.502 . S
C608 H594 0.960 . S
C608 H595 0.961 . S
C608 H596 0.959 . S
C608 C606 1.561 . S
C609 C606 1.526 . S
C609 C610 1.396 . S
C609 C614 1.390 . S
C610 C604 1.465 . S
C610 C609 1.396 . S
C610 C611 1.399 . S
C611 H597 0.929 . S
C611 C610 1.399 . S
C611 C612 1.385 . S
C612 H598 0.931 . S
C612 C611 1.385 . S
C612 C613 1.389 . S
C613 C612 1.389 . S
C613 C614 1.387 . S
C614 H599 0.930 . S
C614 C609 1.390 . S
C614 C613 1.387 . S
H615 C627 0.930 . S
H616 C629 0.930 . S
H617 C630 0.930 . S
H618 C634 0.959 . S
H619 C634 0.959 . S
H620 C634 0.961 . S
H621 C635 0.960 . S
H622 C635 0.961 1_655 S
H623 C635 0.959 . S
H624 C638 0.929 . S
H625 C639 0.931 . S
H626 C641 0.930 . S
C627 H615 0.930 . S
C627 C628 1.399 . S
C627 C632 1.399 . S
C628 C627 1.399 . S
C628 C629 1.376 . S
C629 H616 0.930 . S
C629 C628 1.376 . S
C629 C630 1.388 . S
C630 H617 0.930 . S
C630 C629 1.388 . S
C630 C631 1.390 . S
C631 C630 1.390 . S
C631 C632 1.394 . S
C631 C637 1.465 . S
C632 C627 1.399 . S
C632 C631 1.394 . S
C632 C633 1.516 . S
C633 C632 1.516 . S
C633 C634 1.502 . S
C633 C635 1.561 . S
C633 C636 1.526 . S
C634 H618 0.959 . S
C634 H619 0.959 . S
C634 H620 0.961 . S
C634 C633 1.502 . S
C635 H621 0.960 . S
C635 H622 0.961 1_455 S
C635 H623 0.959 . S
C635 C633 1.561 . S
C636 C633 1.526 . S
C636 C637 1.396 . S
C636 C641 1.390 1_455 S
C637 C631 1.465 . S
C637 C636 1.396 . S
C637 C638 1.399 . S
C638 H624 0.929 . S
C638 C637 1.399 . S
C638 C639 1.385 1_455 S
C639 H625 0.931 . S
C639 C638 1.385 1_655 S
C639 C640 1.389 . S
C640 C639 1.389 . S
C640 C641 1.387 . S
C641 H626 0.930 . S
C641 C636 1.390 1_655 S
C641 C640 1.387 . S
H642 C654 0.930 . S
H643 C656 0.930 . S
H644 C657 0.930 . S
H645 C661 0.959 . S
H646 C661 0.959 . S
H647 C661 0.961 . S
H648 C662 0.960 . S
H649 C662 0.961 . S
H650 C662 0.959 . S
H651 C665 0.929 . S
H652 C666 0.931 . S
H653 C668 0.930 . S
C654 H642 0.930 . S
C654 C655 1.399 . S
C654 C659 1.399 . S
C655 C654 1.399 . S
C655 C656 1.376 . S
C656 H643 0.930 . S
C656 C655 1.376 . S
C656 C657 1.388 . S
C657 H644 0.930 . S
C657 C656 1.388 . S
C657 C658 1.390 . S
C658 C657 1.390 . S
C658 C659 1.394 . S
C658 C664 1.465 . S
C659 C654 1.399 . S
C659 C658 1.394 . S
C659 C660 1.516 . S
C660 C659 1.516 . S
C660 C661 1.502 . S
C660 C662 1.561 . S
C660 C663 1.526 . S
C661 H645 0.959 . S
C661 H646 0.959 . S
C661 H647 0.961 . S
C661 C660 1.502 . S
C662 H648 0.960 . S
C662 H649 0.961 . S
C662 H650 0.959 . S
C662 C660 1.561 . S
C663 C660 1.526 . S
C663 C664 1.396 . S
C663 C668 1.390 . S
C664 C658 1.465 . S
C664 C663 1.396 . S
C664 C665 1.399 . S
C665 H651 0.929 . S
C665 C664 1.399 . S
C665 C666 1.385 . S
C666 H652 0.931 . S
C666 C665 1.385 . S
C666 C667 1.389 . S
C667 C666 1.389 . S
C667 C668 1.387 . S
C668 H653 0.930 . S
C668 C663 1.390 . S
C668 C667 1.387 . S
H669 C681 0.930 . S
H670 C683 0.930 . S
H671 C684 0.930 . S
H672 C688 0.959 . S
H673 C688 0.959 1_455 S
H674 C688 0.961 . S
H675 C689 0.960 . S
H676 C689 0.961 . S
H677 C689 0.959 . S
H678 C692 0.929 . S
H679 C693 0.931 . S
H680 C695 0.930 . S
C681 H669 0.930 . S
C681 C682 1.399 . S
C681 C686 1.399 . S
C682 C681 1.399 . S
C682 C683 1.376 . S
C683 H670 0.930 . S
C683 C682 1.376 . S
C683 C684 1.388 . S
C684 H671 0.930 . S
C684 C683 1.388 . S
C684 C685 1.390 . S
C685 C684 1.390 . S
C685 C686 1.394 . S
C685 C691 1.465 . S
C686 C681 1.399 . S
C686 C685 1.394 . S
C686 C687 1.516 . S
C687 C686 1.516 . S
C687 C688 1.502 . S
C687 C689 1.561 . S
C687 C690 1.526 . S
C688 H672 0.959 . S
C688 H673 0.959 1_655 S
C688 H674 0.961 . S
C688 C687 1.502 . S
C689 H675 0.960 . S
C689 H676 0.961 . S
C689 H677 0.959 . S
C689 C687 1.561 . S
C690 C687 1.526 . S
C690 C691 1.396 . S
C690 C695 1.390 1_655 S
C691 C685 1.465 . S
C691 C690 1.396 . S
C691 C692 1.399 . S
C692 H678 0.929 . S
C692 C691 1.399 . S
C692 C693 1.385 1_655 S
C693 H679 0.931 . S
C693 C692 1.385 1_455 S
C693 C694 1.389 . S
C694 C693 1.389 . S
C694 C695 1.387 . S
C695 H680 0.930 . S
C695 C690 1.390 1_455 S
C695 C694 1.387 . S
H696 C708 0.930 . S
H697 C710 0.930 . S
H698 C711 0.930 . S
H699 C715 0.959 . S
H700 C715 0.959 . S
H701 C715 0.961 . S
H702 C716 0.960 . S
H703 C716 0.961 . S
H704 C716 0.959 . S
H705 C719 0.929 . S
H706 C720 0.931 . S
H707 C722 0.930 . S
C708 H696 0.930 . S
C708 C709 1.399 . S
C708 C713 1.399 . S
C709 C708 1.399 . S
C709 C710 1.376 . S
C710 H697 0.930 . S
C710 C709 1.376 . S
C710 C711 1.388 . S
C711 H698 0.930 . S
C711 C710 1.388 . S
C711 C712 1.390 . S
C712 C711 1.390 . S
C712 C713 1.394 . S
C712 C718 1.465 . S
C713 C708 1.399 . S
C713 C712 1.394 . S
C713 C714 1.516 . S
C714 C713 1.516 . S
C714 C715 1.502 . S
C714 C716 1.561 . S
C714 C717 1.526 . S
C715 H699 0.959 . S
C715 H700 0.959 . S
C715 H701 0.961 . S
C715 C714 1.502 . S
C716 H702 0.960 . S
C716 H703 0.961 . S
C716 H704 0.959 . S
C716 C714 1.561 . S
C717 C714 1.526 . S
C717 C718 1.396 . S
C717 C722 1.390 . S
C718 C712 1.465 . S
C718 C717 1.396 . S
C718 C719 1.399 . S
C719 H705 0.929 . S
C719 C718 1.399 . S
C719 C720 1.385 . S
C720 H706 0.931 . S
C720 C719 1.385 . S
C720 C721 1.389 . S
C721 C720 1.389 . S
C721 C722 1.387 . S
C722 H707 0.930 . S
C722 C717 1.390 . S
C722 C721 1.387 . S
H723 C735 0.930 . S
H724 C737 0.930 . S
H725 C738 0.930 . S
H726 C742 0.959 . S
H727 C742 0.959 . S
H728 C742 0.961 . S
H729 C743 0.960 . S
H730 C743 0.961 . S
H731 C743 0.959 . S
H732 C746 0.929 . S
H733 C747 0.931 . S
H734 C749 0.930 . S
C735 H723 0.930 . S
C735 C736 1.399 . S
C735 C740 1.399 . S
C736 C735 1.399 . S
C736 C737 1.376 . S
C737 H724 0.930 . S
C737 C736 1.376 . S
C737 C738 1.388 . S
C738 H725 0.930 . S
C738 C737 1.388 . S
C738 C739 1.390 . S
C739 C738 1.390 . S
C739 C740 1.394 . S
C739 C745 1.465 . S
C740 C735 1.399 . S
C740 C739 1.394 . S
C740 C741 1.516 . S
C741 C740 1.516 . S
C741 C742 1.502 . S
C741 C743 1.561 . S
C741 C744 1.526 . S
C742 H726 0.959 . S
C742 H727 0.959 . S
C742 H728 0.961 . S
C742 C741 1.502 . S
C743 H729 0.960 . S
C743 H730 0.961 . S
C743 H731 0.959 . S
C743 C741 1.561 . S
C744 C741 1.526 . S
C744 C745 1.396 . S
C744 C749 1.390 . S
C745 C739 1.465 . S
C745 C744 1.396 . S
C745 C746 1.399 . S
C746 H732 0.929 . S
C746 C745 1.399 . S
C746 C747 1.385 . S
C747 H733 0.931 . S
C747 C746 1.385 . S
C747 C748 1.389 . S
C748 C747 1.389 . S
C748 C749 1.387 . S
C749 H734 0.930 . S
C749 C744 1.390 . S
C749 C748 1.387 . S
H750 C762 0.930 . S
H751 C764 0.930 . S
H752 C765 0.930 . S
H753 C769 0.959 . S
H754 C769 0.959 . S
H755 C769 0.961 . S
H756 C770 0.960 . S
H757 C770 0.961 . S
H758 C770 0.959 . S
H759 C773 0.929 . S
H760 C774 0.931 . S
H761 C776 0.930 . S
C762 H750 0.930 . S
C762 C763 1.399 . S
C762 C767 1.399 . S
C763 C762 1.399 . S
C763 C764 1.376 . S
C764 H751 0.930 . S
C764 C763 1.376 . S
C764 C765 1.388 . S
C765 H752 0.930 . S
C765 C764 1.388 . S
C765 C766 1.390 . S
C766 C765 1.390 . S
C766 C767 1.394 . S
C766 C772 1.465 . S
C767 C762 1.399 . S
C767 C766 1.394 . S
C767 C768 1.516 . S
C768 C767 1.516 . S
C768 C769 1.502 . S
C768 C770 1.561 . S
C768 C771 1.526 . S
C769 H753 0.959 . S
C769 H754 0.959 . S
C769 H755 0.961 . S
C769 C768 1.502 . S
C770 H756 0.960 . S
C770 H757 0.961 . S
C770 H758 0.959 . S
C770 C768 1.561 . S
C771 C768 1.526 . S
C771 C772 1.396 . S
C771 C776 1.390 . S
C772 C766 1.465 . S
C772 C771 1.396 . S
C772 C773 1.399 . S
C773 H759 0.929 . S
C773 C772 1.399 . S
C773 C774 1.385 . S
C774 H760 0.931 . S
C774 C773 1.385 . S
C774 C775 1.389 . S
C775 C774 1.389 . S
C775 C776 1.387 . S
C776 H761 0.930 . S
C776 C771 1.390 . S
C776 C775 1.387 . S
H777 C789 0.930 . S
H778 C791 0.930 1_554 S
H779 C792 0.930 . S
H780 C796 0.959 . S
H781 C796 0.959 . S
H782 C796 0.961 . S
H783 C797 0.960 . S
H784 C797 0.961 . S
H785 C797 0.959 . S
H786 C800 0.929 . S
H787 C801 0.931 . S
H788 C803 0.930 1_556 S
C789 H777 0.930 . S
C789 C790 1.399 . S
C789 C794 1.399 . S
C790 C789 1.399 . S
C790 C791 1.376 . S
C791 H778 0.930 1_556 S
C791 C790 1.376 . S
C791 C792 1.388 1_556 S
C792 H779 0.930 . S
C792 C791 1.388 1_554 S
C792 C793 1.390 . S
C793 C792 1.390 . S
C793 C794 1.394 1_554 S
C793 C799 1.465 . S
C794 C789 1.399 . S
C794 C793 1.394 1_556 S
C794 C795 1.516 . S
C795 C794 1.516 . S
C795 C796 1.502 . S
C795 C797 1.561 . S
C795 C798 1.548 . S
C796 H780 0.959 . S
C796 H781 0.959 . S
C796 H782 0.961 . S
C796 C795 1.502 . S
C797 H783 0.960 . S
C797 H784 0.961 . S
C797 H785 0.959 . S
C797 C795 1.561 . S
C798 C795 1.548 . S
C798 C799 1.379 1_556 S
C798 C803 1.383 1_556 S
C799 C793 1.465 . S
C799 C798 1.379 1_554 S
C799 C800 1.399 . S
C800 H786 0.929 . S
C800 C799 1.399 . S
C800 C801 1.385 . S
C801 H787 0.931 . S
C801 C800 1.385 . S
C801 C802 1.389 . S
C802 C801 1.389 . S
C802 C803 1.387 . S
C803 H788 0.930 1_554 S
C803 C798 1.383 1_554 S
C803 C802 1.387 . S
C277 C18 1.181 . S
C289 C40 1.169 . S
C304 C73 1.169 1_455 S
C316 C51 1.175 . S
C331 C106 1.206 . S
C343 C84 1.208 . S
C358 C117 1.205 . S
C370 C7 1.190 1_655 S
C385 C150 1.186 . S
C397 C238 1.170 1_545 S
C412 C183 1.190 . S
C424 C139 1.173 . S
C439 C216 1.172 . S
C451 C172 1.176 1_565 S
C466 C249 1.203 . S
C478 C205 1.186 . S
C493 N211 1.595 . S
C505 C21 1.642 . S
C520 N244 1.596 . S
C532 C54 1.642 . S
C547 N145 1.596 . S
C559 C87 1.635 . S
C574 N178 1.614 . S
C586 C120 1.635 . S
C601 C153 1.626 . S
C613 N79 1.628 . S
C628 C186 1.628 . S
C640 N112 1.626 . S
C655 C219 1.625 . S
C667 N13 1.627 . S
C682 C252 1.649 . S
C694 N46 1.567 . S
C709 N233 1.217 . S
C721 N2 1.238 . S
C736 N134 1.279 . S
C748 N35 1.184 . S
C763 N68 1.279 . S
C775 N167 1.184 . S
C790 N101 1.186 . S
C802 N200 1.278 . S
