# Generated by pormake.
# Topology zfg, (5)-cn, num edge types: 1
# Building blocks:
#     Node 0, Type 0, BuildingBlock: XOMCOT_clean_sbu_1, # of connection points: 5
#     Node 1, Type 0, BuildingBlock: XOMCOT_clean_sbu_1, # of connection points: 5
#     Node 2, Type 0, BuildingBlock: XOMCOT_clean_sbu_1, # of connection points: 5
#     Node 3, Type 0, BuildingBlock: XOMCOT_clean_sbu_1, # of connection points: 5
#     Node 4, Type 0, BuildingBlock: XOMCOT_clean_sbu_1, # of connection points: 5
#     Node 5, Type 0, BuildingBlock: XOMCOT_clean_sbu_1, # of connection points: 5
#     Node 6, Type 0, BuildingBlock: XOMCOT_clean_sbu_1, # of connection points: 5
#     Node 7, Type 0, BuildingBlock: XOMCOT_clean_sbu_1, # of connection points: 5
#     Node 8, Type 0, BuildingBlock: XOMCOT_clean_sbu_1, # of connection points: 5
#     Node 9, Type 0, BuildingBlock: XOMCOT_clean_sbu_1, # of connection points: 5
#     Node 10, Type 0, BuildingBlock: XOMCOT_clean_sbu_1, # of connection points: 5
#     Node 11, Type 0, BuildingBlock: XOMCOT_clean_sbu_1, # of connection points: 5
#     Node 12, Type 0, BuildingBlock: XOMCOT_clean_sbu_1, # of connection points: 5
#     Node 13, Type 0, BuildingBlock: XOMCOT_clean_sbu_1, # of connection points: 5
#     Node 14, Type 0, BuildingBlock: XOMCOT_clean_sbu_1, # of connection points: 5
#     Node 15, Type 0, BuildingBlock: XOMCOT_clean_sbu_1, # of connection points: 5
#     Edge 16, Type (0, 0), BuildingBlock: KIFKEQ_clean_linker_1, # of connection points: 2
#     Edge 17, Type (0, 0), BuildingBlock: KIFKEQ_clean_linker_1, # of connection points: 2
#     Edge 18, Type (0, 0), BuildingBlock: KIFKEQ_clean_linker_1, # of connection points: 2
#     Edge 19, Type (0, 0), BuildingBlock: KIFKEQ_clean_linker_1, # of connection points: 2
#     Edge 20, Type (0, 0), BuildingBlock: KIFKEQ_clean_linker_1, # of connection points: 2
#     Edge 21, Type (0, 0), BuildingBlock: KIFKEQ_clean_linker_1, # of connection points: 2
#     Edge 22, Type (0, 0), BuildingBlock: KIFKEQ_clean_linker_1, # of connection points: 2
#     Edge 23, Type (0, 0), BuildingBlock: KIFKEQ_clean_linker_1, # of connection points: 2
#     Edge 24, Type (0, 0), BuildingBlock: KIFKEQ_clean_linker_1, # of connection points: 2
#     Edge 25, Type (0, 0), BuildingBlock: KIFKEQ_clean_linker_1, # of connection points: 2
#     Edge 26, Type (0, 0), BuildingBlock: KIFKEQ_clean_linker_1, # of connection points: 2
#     Edge 27, Type (0, 0), BuildingBlock: KIFKEQ_clean_linker_1, # of connection points: 2
#     Edge 28, Type (0, 0), BuildingBlock: KIFKEQ_clean_linker_1, # of connection points: 2
#     Edge 29, Type (0, 0), BuildingBlock: KIFKEQ_clean_linker_1, # of connection points: 2
#     Edge 30, Type (0, 0), BuildingBlock: KIFKEQ_clean_linker_1, # of connection points: 2
#     Edge 31, Type (0, 0), BuildingBlock: KIFKEQ_clean_linker_1, # of connection points: 2
#     Edge 32, Type (0, 0), BuildingBlock: KIFKEQ_clean_linker_1, # of connection points: 2
#     Edge 33, Type (0, 0), BuildingBlock: KIFKEQ_clean_linker_1, # of connection points: 2
#     Edge 34, Type (0, 0), BuildingBlock: KIFKEQ_clean_linker_1, # of connection points: 2
#     Edge 35, Type (0, 0), BuildingBlock: KIFKEQ_clean_linker_1, # of connection points: 2
#     Edge 36, Type (0, 0), BuildingBlock: KIFKEQ_clean_linker_1, # of connection points: 2
#     Edge 37, Type (0, 0), BuildingBlock: KIFKEQ_clean_linker_1, # of connection points: 2
#     Edge 38, Type (0, 0), BuildingBlock: KIFKEQ_clean_linker_1, # of connection points: 2
#     Edge 39, Type (0, 0), BuildingBlock: KIFKEQ_clean_linker_1, # of connection points: 2
#     Edge 40, Type (0, 0), BuildingBlock: KIFKEQ_clean_linker_1, # of connection points: 2
#     Edge 41, Type (0, 0), BuildingBlock: KIFKEQ_clean_linker_1, # of connection points: 2
#     Edge 42, Type (0, 0), BuildingBlock: KIFKEQ_clean_linker_1, # of connection points: 2
#     Edge 43, Type (0, 0), BuildingBlock: KIFKEQ_clean_linker_1, # of connection points: 2
#     Edge 44, Type (0, 0), BuildingBlock: KIFKEQ_clean_linker_1, # of connection points: 2
#     Edge 45, Type (0, 0), BuildingBlock: KIFKEQ_clean_linker_1, # of connection points: 2
#     Edge 46, Type (0, 0), BuildingBlock: KIFKEQ_clean_linker_1, # of connection points: 2
#     Edge 47, Type (0, 0), BuildingBlock: KIFKEQ_clean_linker_1, # of connection points: 2
#     Edge 48, Type (0, 0), BuildingBlock: KIFKEQ_clean_linker_1, # of connection points: 2
#     Edge 49, Type (0, 0), BuildingBlock: KIFKEQ_clean_linker_1, # of connection points: 2
#     Edge 50, Type (0, 0), BuildingBlock: KIFKEQ_clean_linker_1, # of connection points: 2
#     Edge 51, Type (0, 0), BuildingBlock: KIFKEQ_clean_linker_1, # of connection points: 2
#     Edge 52, Type (0, 0), BuildingBlock: KIFKEQ_clean_linker_1, # of connection points: 2
#     Edge 53, Type (0, 0), BuildingBlock: KIFKEQ_clean_linker_1, # of connection points: 2
#     Edge 54, Type (0, 0), BuildingBlock: KIFKEQ_clean_linker_1, # of connection points: 2
#     Edge 55, Type (0, 0), BuildingBlock: KIFKEQ_clean_linker_1, # of connection points: 2
# Relax obj value: 0.101
# Max RMSD: 0.139
# Mean RMSD: 0.139
data_MOF--net-zfg--node1-XOMCOT_clean_sbu_1--edge1-KIFKEQ_clean_linker_1
_symmetry_space_group_name_H-M    P1
_symmetry_Int_Tables_number       1
_symmetry_cell_setting            triclinic
loop_
_symmetry_equiv_pos_as_xyz
'x, y, z'
_cell_length_a     43.253747
_cell_length_b     43.051926
_cell_length_c     52.138521
_cell_angle_alpha  89.995681
_cell_angle_beta   90.092239
_cell_angle_gamma 90.18079
loop_
_atom_site_label
_atom_site_type_symbol
_atom_site_fract_x
_atom_site_fract_y
_atom_site_fract_z
_atom_type_partial_charge
C0 C 0.04439 0.23552 0.20907 0.0
C1 C 0.06424 0.21094 0.21196 0.0
N2 N 0.09269 0.22001 0.20447 0.0
N3 N 0.05993 0.25993 0.19917 0.0
C4 C 0.08958 0.25024 0.19788 0.0
H5 H 0.01986 0.23511 0.21298 0.0
Co6 Co 0.04266 0.29821 0.18948 0.0
C7 C 0.07815 0.281 0.13965 0.0
O8 O 0.08586 0.25261 0.14608 0.0
N9 N 0.02544 0.33657 0.17998 0.0
C10 C 0.00343 0.37264 0.15557 0.0
C11 C 0.00943 0.34157 0.1581 0.0
C12 C 0.02861 0.36514 0.19058 0.0
N13 N 0.01563 0.38749 0.17591 0.0
O14 O 0.0771 0.31955 0.20559 0.0
H15 H 0.00342 0.32386 0.14425 0.0
H16 H 0.04159 0.36979 0.20792 0.0
O17 O 0.0627 0.298 0.1552 0.0
C18 C 0.07327 0.31855 0.22992 0.0
O19 O 0.04874 0.30408 0.23885 0.0
N20 N 0.00745 0.27742 0.17666 0.0
C21 C 0.9531 0.24355 0.16839 0.0
C22 C 0.9796 0.23784 0.15361 0.0
C23 C 0.00664 0.25504 0.15807 0.0
C24 C 0.98163 0.28393 0.19055 0.0
C25 C 0.95418 0.26768 0.18648 0.0
H26 H 0.02713 0.24897 0.14762 0.0
H27 H 0.9827 0.30129 0.20553 0.0
H28 H 0.10824 0.26472 0.19089 0.0
H29 H 0.05767 0.18766 0.21759 0.0
H30 H 0.99173 0.38361 0.1396 0.0
H31 H 0.98003 0.2192 0.13968 0.0
H32 H 0.93421 0.27344 0.19801 0.0
C33 C 0.73863 0.07806 0.20624 0.0
C34 C 0.76023 0.10126 0.20511 0.0
N35 N 0.76986 0.10389 0.1807 0.0
N36 N 0.73417 0.06614 0.18261 0.0
C37 C 0.75407 0.08202 0.16737 0.0
H38 H 0.72695 0.07029 0.22338 0.0
Co39 Co 0.70476 0.03504 0.17713 0.0
C40 C 0.6927 0.07157 0.12866 0.0
O41 O 0.68879 0.09811 0.14063 0.0
N42 N 0.67498 0.00419 0.17237 0.0
C43 C 0.64577 0.96248 0.17905 0.0
C44 C 0.67481 0.97521 0.18218 0.0
C45 C 0.64615 0.00843 0.16308 0.0
N46 N 0.62776 0.98355 0.16716 0.0
O47 O 0.67323 0.0629 0.18964 0.0
H48 H 0.69387 0.96485 0.19251 0.0
H49 H 0.63806 0.0304 0.15558 0.0
O50 O 0.69911 0.04714 0.14144 0.0
C51 C 0.66657 0.0548 0.21259 0.0
O52 O 0.67968 0.02967 0.22187 0.0
N53 N 0.7359 0.00721 0.16812 0.0
C54 C 0.78101 0.96138 0.16363 0.0
C55 C 0.76142 0.96832 0.14288 0.0
C56 C 0.73889 0.99151 0.14551 0.0
C57 C 0.75456 1.00055 0.18841 0.0
C58 C 0.77739 0.97803 0.18653 0.0
H59 H 0.72326 0.99597 0.12979 0.0
H60 H 0.75103 0.0122 0.20653 0.0
H61 H 0.75654 0.07808 0.14697 0.0
H62 H 0.76856 0.115 0.22111 0.0
H63 H 0.6381 0.94011 0.18612 0.0
H64 H 0.76329 0.95576 0.12496 0.0
H65 H 0.79132 0.97287 0.20327 0.0
C66 C 0.96429 0.75943 0.21436 0.0
C67 C 0.94681 0.78594 0.21507 0.0
N68 N 0.92515 0.7842 0.19647 0.0
N69 N 0.95383 0.74087 0.19545 0.0
C70 C 0.92992 0.7565 0.18487 0.0
H71 H 0.9841 0.75439 0.22633 0.0
Co72 Co 0.97297 0.70392 0.18621 0.0
C73 C 0.93883 0.68413 0.13991 0.0
O74 O 0.93326 0.65736 0.15113 0.0
N75 N 0.99277 0.66693 0.17687 0.0
C76 C 0.01962 0.63278 0.15415 0.0
C77 C 0.0088 0.66265 0.15497 0.0
C78 C 0.99422 0.63924 0.18909 0.0
N79 N 0.01046 0.61798 0.17561 0.0
O80 O 0.93926 0.68071 0.2016 0.0
H81 H 0.01187 0.68001 0.14019 0.0
H82 H 0.98349 0.63465 0.20742 0.0
O83 O 0.95338 0.70526 0.15223 0.0
C84 C 0.94363 0.68009 0.22589 0.0
O85 O 0.96875 0.6933 0.23505 0.0
N86 N 0.0068 0.72693 0.17449 0.0
C87 C 0.05688 0.76724 0.16913 0.0
C88 C 0.03158 0.769 0.15226 0.0
C89 C 0.00645 0.74871 0.15543 0.0
C90 C 0.0318 0.72398 0.19017 0.0
C91 C 0.05712 0.74381 0.18778 0.0
H92 H 0.98614 0.75171 0.14361 0.0
H93 H 0.03133 0.70709 0.20553 0.0
H94 H 0.91659 0.74795 0.16877 0.0
H95 H 0.95066 0.80552 0.2277 0.0
H96 H 0.03231 0.62245 0.13845 0.0
H97 H 0.03041 0.78706 0.13783 0.0
H98 H 0.07626 0.74157 0.20108 0.0
C99 C 0.25329 0.96635 0.1994 0.0
C100 C 0.22608 0.95006 0.20162 0.0
N101 N 0.225 0.92836 0.18295 0.0
N102 N 0.26951 0.95503 0.1795 0.0
C103 C 0.25181 0.93184 0.16988 0.0
H104 H 0.26076 0.98543 0.21142 0.0
Co105 Co 0.30751 0.9708 0.16888 0.0
C106 C 0.32124 0.93482 0.12255 0.0
O107 O 0.34639 0.92474 0.13397 0.0
N108 N 0.34599 0.98686 0.15792 0.0
C109 C 0.38163 0.01008 0.13375 0.0
C110 C 0.35056 0.00453 0.13682 0.0
C111 C 0.37479 0.98182 0.16722 0.0
N112 N 0.39685 0.99562 0.15281 0.0
O113 O 0.32739 0.93489 0.18356 0.0
H114 H 0.33251 0.01208 0.12389 0.0
H115 H 0.37975 0.96788 0.18394 0.0
O116 O 0.30253 0.95206 0.13497 0.0
C117 C 0.33109 0.94161 0.20728 0.0
O118 O 0.32275 0.96944 0.21496 0.0
N119 N 0.28761 0.00693 0.15817 0.0
C120 C 0.25042 0.05961 0.15686 0.0
C121 C 0.24392 0.03403 0.14095 0.0
C122 C 0.2629 0.00776 0.14187 0.0
C123 C 0.29515 0.0321 0.17272 0.0
C124 C 0.27709 0.05882 0.17215 0.0
H125 H 0.25636 0.98735 0.13105 0.0
H126 H 0.31415 0.03063 0.18618 0.0
H127 H 0.25827 0.91818 0.15335 0.0
H128 H 0.20867 0.95384 0.21614 0.0
H129 H 0.39228 0.02265 0.11809 0.0
H130 H 0.22352 0.03373 0.12888 0.0
H131 H 0.28268 0.07771 0.18509 0.0
C132 C 0.51655 0.25907 0.36654 0.0
C133 C 0.53486 0.28445 0.36157 0.0
N134 N 0.56445 0.27684 0.3666 0.0
N135 N 0.53428 0.23563 0.37539 0.0
C136 C 0.56349 0.24672 0.37387 0.0
H137 H 0.49169 0.25822 0.3645 0.0
Co138 Co 0.52069 0.19621 0.38638 0.0
C139 C 0.5571 0.21885 0.43387 0.0
O140 O 0.56288 0.24689 0.42532 0.0
N141 N 0.5071 0.15695 0.39687 0.0
C142 C 0.48644 0.11897 0.42019 0.0
C143 C 0.49221 0.15031 0.41897 0.0
C144 C 0.51031 0.12922 0.38506 0.0
N145 N 0.49798 0.10578 0.39889 0.0
O146 O 0.55613 0.17771 0.37008 0.0
H147 H 0.48611 0.16719 0.43344 0.0
H148 H 0.52148 0.12611 0.36671 0.0
O149 O 0.54171 0.1995 0.42016 0.0
C150 C 0.55034 0.17733 0.346 0.0
O151 O 0.52375 0.18863 0.33815 0.0
N152 N 0.48444 0.21382 0.39931 0.0
C153 C 0.42932 0.24634 0.40443 0.0
C154 C 0.4547 0.25311 0.42036 0.0
C155 C 0.4822 0.23649 0.41751 0.0
C156 C 0.45936 0.20545 0.38505 0.0
C157 C 0.43146 0.22115 0.38751 0.0
H158 H 0.50209 0.24371 0.4284 0.0
H159 H 0.46164 0.18772 0.37048 0.0
H160 H 0.58356 0.2333 0.37934 0.0
H161 H 0.52668 0.3072 0.35602 0.0
H162 H 0.47545 0.1067 0.43586 0.0
H163 H 0.45418 0.27258 0.4335 0.0
H164 H 0.4123 0.21475 0.37518 0.0
C165 C 0.74521 0.5367 0.36594 0.0
C166 C 0.71815 0.5528 0.36844 0.0
N167 N 0.71907 0.56829 0.39082 0.0
N168 N 0.7631 0.54178 0.38673 0.0
C169 C 0.74667 0.56151 0.40156 0.0
H170 H 0.75103 0.52126 0.35034 0.0
Co171 Co 0.79946 0.51993 0.39169 0.0
C172 C 0.80792 0.51547 0.44799 0.0
O173 O 0.81413 0.48601 0.44413 0.0
N174 N 0.83693 0.4973 0.39584 0.0
C175 C 0.87307 0.4606 0.39821 0.0
C176 C 0.84205 0.46626 0.39625 0.0
C177 C 0.86561 0.50978 0.39803 0.0
N178 N 0.88798 0.48801 0.39924 0.0
O179 O 0.82272 0.55587 0.38026 0.0
H180 H 0.82477 0.44824 0.39566 0.0
H181 H 0.87007 0.53447 0.3989 0.0
O182 O 0.80139 0.53284 0.42868 0.0
C183 C 0.82407 0.55355 0.3558 0.0
O184 O 0.81162 0.52896 0.34497 0.0
N185 N 0.77515 0.48474 0.39837 0.0
C186 C 0.7314 0.43715 0.3939 0.0
C187 C 0.73177 0.45664 0.41556 0.0
C188 C 0.75357 0.48079 0.41722 0.0
C189 C 0.77447 0.46643 0.37706 0.0
C190 C 0.75363 0.44202 0.37481 0.0
H191 H 0.7517 0.49731 0.43271 0.0
H192 H 0.79011 0.47126 0.36138 0.0
H193 H 0.75406 0.56964 0.42024 0.0
H194 H 0.69905 0.5529 0.35499 0.0
H195 H 0.88372 0.4379 0.39836 0.0
H196 H 0.71433 0.45442 0.43033 0.0
H197 H 0.75445 0.42763 0.35779 0.0
C198 C 0.44398 0.7359 0.36189 0.0
C199 C 0.42104 0.71476 0.36704 0.0
N200 N 0.40859 0.722 0.38988 0.0
N201 N 0.44576 0.75653 0.38128 0.0
C202 C 0.424 0.74734 0.39827 0.0
H203 H 0.45817 0.73658 0.34485 0.0
Co204 Co 0.47196 0.79036 0.37986 0.0
C205 C 0.47705 0.81562 0.43253 0.0
O206 O 0.50644 0.82054 0.42755 0.0
N207 N 0.49834 0.82516 0.37693 0.0
C208 C 0.53475 0.85921 0.36559 0.0
C209 C 0.52675 0.82826 0.36638 0.0
C210 C 0.48955 0.85464 0.382 0.0
N211 N 0.5113 0.87565 0.37552 0.0
O212 O 0.43956 0.81431 0.36398 0.0
H213 H 0.54069 0.80972 0.35882 0.0
H214 H 0.4671 0.86064 0.38966 0.0
O215 O 0.45966 0.80337 0.41524 0.0
C216 C 0.4436 0.81262 0.33973 0.0
O217 O 0.46713 0.79632 0.33131 0.0
N218 N 0.50386 0.76499 0.39229 0.0
C219 C 0.54922 0.72036 0.40128 0.0
C220 C 0.52992 0.73028 0.42122 0.0
C221 C 0.50669 0.75204 0.41615 0.0
C222 C 0.52166 0.75453 0.37262 0.0
C223 C 0.54483 0.7328 0.37674 0.0
H224 H 0.4903 0.7571 0.43111 0.0
H225 H 0.51717 0.76254 0.35332 0.0
H226 H 0.41878 0.75943 0.41591 0.0
H227 H 0.4139 0.6956 0.35494 0.0
H228 H 0.55602 0.86888 0.35807 0.0
H229 H 0.53175 0.72017 0.44019 0.0
H230 H 0.55882 0.72534 0.36067 0.0
C231 C 0.26745 0.47158 0.3906 0.0
C232 C 0.29069 0.45065 0.38601 0.0
N233 N 0.27996 0.42203 0.39149 0.0
N234 N 0.2423 0.4563 0.39935 0.0
C235 C 0.25039 0.42604 0.39892 0.0
H236 H 0.269 0.49641 0.38782 0.0
Co237 Co 0.20405 0.47358 0.40767 0.0
C238 C 0.21942 0.43743 0.45703 0.0
O239 O 0.24846 0.43207 0.45133 0.0
N240 N 0.16598 0.49097 0.41573 0.0
C241 C 0.1284 0.51424 0.43736 0.0
C242 C 0.15881 0.50532 0.43797 0.0
C243 C 0.13956 0.49134 0.40194 0.0
N244 N 0.11632 0.5053 0.41473 0.0
O245 O 0.18348 0.4394 0.39028 0.0
H246 H 0.1745 0.50838 0.45395 0.0
H247 H 0.13719 0.48109 0.3831 0.0
O248 O 0.20221 0.45228 0.44123 0.0
C249 C 0.1858 0.44297 0.36598 0.0
O250 O 0.20065 0.46754 0.3574 0.0
N251 N 0.22388 0.50854 0.42173 0.0
C252 C 0.25501 0.56394 0.43245 0.0
C253 C 0.25784 0.53821 0.44882 0.0
C254 C 0.24211 0.51061 0.44309 0.0
C255 C 0.22016 0.53359 0.4061 0.0
C256 C 0.23539 0.56146 0.41109 0.0
H257 H 0.24557 0.49102 0.45547 0.0
H258 H 0.20606 0.53144 0.38903 0.0
H259 H 0.23501 0.40734 0.40448 0.0
H260 H 0.31396 0.45619 0.37987 0.0
H261 H 0.11575 0.52502 0.45287 0.0
H262 H 0.27265 0.53913 0.46557 0.0
H263 H 0.23297 0.58035 0.39753 0.0
C264 C 0.96475 0.76435 0.87144 0.0
C265 C 0.9488 0.79176 0.8696 0.0
N266 N 0.92623 0.79164 0.88738 0.0
N267 N 0.95234 0.74692 0.89027 0.0
C268 C 0.9287 0.76403 0.89955 0.0
H269 H 0.98485 0.75791 0.86036 0.0
Co270 Co 0.9697 0.70989 0.90136 0.0
C271 C 0.93069 0.69278 0.94601 0.0
O272 O 0.92169 0.66732 0.93425 0.0
N273 N 0.98762 0.67279 0.91268 0.0
C274 C 0.011 0.63866 0.93802 0.0
C275 C 0.00153 0.66887 0.93565 0.0
C276 C 0.9889 0.64453 0.90142 0.0
N277 N 0.00301 0.62331 0.9165 0.0
O278 O 0.9369 0.68701 0.88405 0.0
H279 H 0.00394 0.68671 0.95013 0.0
H280 H 0.97944 0.63943 0.88269 0.0
O281 O 0.9478 0.71225 0.93414 0.0
C282 C 0.94424 0.68489 0.86031 0.0
O283 O 0.97099 0.69658 0.85318 0.0
N284 N 0.00273 0.73256 0.91515 0.0
C285 C 0.05291 0.77138 0.92573 0.0
C286 C 0.02467 0.77523 0.93859 0.0
C287 C 0.99971 0.75569 0.93288 0.0
C288 C 0.03019 0.72782 0.90308 0.0
C289 C 0.05564 0.74678 0.9082 0.0
H290 H 0.97759 0.76034 0.94161 0.0
H291 H 0.03189 0.71006 0.88847 0.0
H292 H 0.91449 0.75704 0.91562 0.0
H293 H 0.95369 0.81049 0.85635 0.0
H294 H 0.02177 0.62851 0.95479 0.0
H295 H 0.02149 0.79393 0.95222 0.0
H296 H 0.07666 0.74332 0.89733 0.0
C297 C 0.24671 0.946 0.85402 0.0
C298 C 0.22085 0.92812 0.85788 0.0
N299 N 0.21965 0.92032 0.88287 0.0
N300 N 0.26185 0.9495 0.87643 0.0
C301 C 0.24486 0.93349 0.89375 0.0
H302 H 0.25367 0.95645 0.83608 0.0
Co303 Co 0.29629 0.97485 0.87925 0.0
C304 C 0.31822 0.97201 0.93365 0.0
O305 O 0.32896 1.00045 0.93156 0.0
N306 N 0.33144 1.00082 0.88068 0.0
C307 C 0.36442 0.04029 0.87654 0.0
C308 C 0.33383 0.03157 0.87577 0.0
C309 C 0.36099 0.99145 0.88416 0.0
N310 N 0.38145 0.015 0.88185 0.0
O311 O 0.32115 0.94253 0.86415 0.0
H312 H 0.31486 0.04686 0.87133 0.0
H313 H 0.36744 0.96759 0.88781 0.0
O314 O 0.30427 0.9592 0.91462 0.0
C315 C 0.32475 0.94838 0.8403 0.0
O316 O 0.31261 0.97405 0.83114 0.0
N317 N 0.27044 0.0068 0.89076 0.0
C318 C 0.22561 0.05259 0.89671 0.0
C319 C 0.23689 0.0364 0.91809 0.0
C320 C 0.25893 0.01294 0.91464 0.0
C321 C 0.25944 0.02231 0.86991 0.0
C322 C 0.23722 0.04535 0.87242 0.0
H323 H 0.26548 0.99924 0.93102 0.0
H324 H 0.2679 0.01638 0.85102 0.0
H325 H 0.25016 0.93242 0.914 0.0
H326 H 0.20416 0.92141 0.84339 0.0
H327 H 0.37342 0.06345 0.8733 0.0
H328 H 0.2278 0.04093 0.93707 0.0
H329 H 0.22899 0.05726 0.85544 0.0
C330 C 0.02713 0.24904 0.8745 0.0
C331 C 0.04412 0.2225 0.87083 0.0
N332 N 0.06778 0.22262 0.88766 0.0
N333 N 0.04008 0.26586 0.8935 0.0
C334 C 0.06481 0.24918 0.90121 0.0
H335 H 0.00654 0.25567 0.86409 0.0
Co336 Co 0.02486 0.30367 0.90477 0.0
C337 C 0.06998 0.31038 0.9482 0.0
O338 O 0.08955 0.3272 0.93484 0.0
N339 N 0.00945 0.34172 0.91638 0.0
C340 C 0.9903 0.37738 0.94269 0.0
C341 C 0.99587 0.34631 0.93937 0.0
C342 C 0.01163 0.37041 0.90596 0.0
N343 N 1.00039 0.39254 0.92173 0.0
O344 O 0.05933 0.32446 0.8886 0.0
H345 H 0.9912 0.32829 0.95329 0.0
H346 H 0.0226 0.37532 0.8878 0.0
O347 O 0.04566 0.29953 0.93759 0.0
C348 C 0.05302 0.32774 0.86479 0.0
O349 O 0.02594 0.31789 0.85663 0.0
N350 N 0.99014 0.28313 0.91771 0.0
C351 C 0.93653 0.24914 0.92792 0.0
C352 C 0.96395 0.24337 0.9416 0.0
C353 C 0.99067 0.26051 0.93607 0.0
C354 C 0.96367 0.28954 0.90466 0.0
C355 C 0.93659 0.27296 0.90951 0.0
H356 H 0.01196 0.25466 0.94576 0.0
H357 H 0.96396 0.30689 0.88964 0.0
H358 H 0.08058 0.25649 0.91616 0.0
H359 H 0.03916 0.2043 0.85709 0.0
H360 H 0.98023 0.38805 0.9595 0.0
H361 H 0.96501 0.22523 0.95596 0.0
H362 H 0.91636 0.27779 0.89795 0.0
C363 C 0.74682 0.07137 0.85903 0.0
C364 C 0.76931 0.09341 0.86291 0.0
N365 N 0.76839 0.10211 0.88767 0.0
N366 N 0.73153 0.06644 0.88116 0.0
C367 C 0.74544 0.0853 0.89846 0.0
H368 H 0.74166 0.05988 0.84109 0.0
Co369 Co 0.69784 0.03995 0.88283 0.0
C370 C 0.67808 0.03654 0.93728 0.0
O371 O 0.6718 0.00709 0.93312 0.0
N372 N 0.66306 0.01319 0.8832 0.0
C373 C 0.62917 0.9749 0.87701 0.0
C374 C 0.65989 0.98315 0.87612 0.0
C375 C 0.63384 0.02256 0.88813 0.0
N376 N 0.61272 0.9998 0.88449 0.0
O377 O 0.67225 0.0723 0.86819 0.0
H378 H 0.67821 0.9681 0.8698 0.0
H379 H 0.62829 0.04593 0.89412 0.0
O380 O 0.68902 0.0532 0.91892 0.0
C381 C 0.67003 0.06659 0.84415 0.0
O382 O 0.68348 0.04141 0.83538 0.0
N383 N 0.72456 0.00815 0.89346 0.0
C384 C 0.77002 0.96258 0.89825 0.0
C385 C 0.76173 0.98098 0.91938 0.0
C386 C 0.7394 0.00428 0.91642 0.0
C387 C 0.73325 0.99117 0.87267 0.0
C388 C 0.75538 0.96796 0.87471 0.0
H389 H 0.73532 0.01983 0.93224 0.0
H390 H 0.72298 0.99598 0.85418 0.0
H391 H 0.73849 0.08735 0.9183 0.0
H392 H 0.78519 0.10237 0.84866 0.0
H393 H 0.61969 0.95261 0.87144 0.0
H394 H 0.77337 0.97831 0.93765 0.0
H395 H 0.76119 0.95453 0.85783 0.0
C396 C 0.4665 0.74177 0.69475 0.0
C397 C 0.44949 0.71528 0.6913 0.0
N398 N 0.43114 0.71929 0.67071 0.0
N399 N 0.45924 0.76244 0.67633 0.0
C400 C 0.43721 0.74827 0.66201 0.0
H401 H 0.48337 0.74571 0.70973 0.0
Co402 Co 0.47996 0.79998 0.6747 0.0
C403 C 0.47491 0.82375 0.62135 0.0
O404 O 0.50265 0.8358 0.62397 0.0
N405 N 0.5015 0.83836 0.67478 0.0
C406 C 0.53663 0.87559 0.68055 0.0
C407 C 0.53144 0.84424 0.68062 0.0
C408 C 0.48896 0.86694 0.67172 0.0
N409 N 0.50994 0.88998 0.67489 0.0
O410 O 0.44564 0.82012 0.69114 0.0
H411 H 0.5488 0.82741 0.68543 0.0
H412 H 0.46486 0.87067 0.66709 0.0
O413 O 0.46277 0.80831 0.63986 0.0
C414 C 0.45014 0.82056 0.71535 0.0
O415 O 0.47542 0.80758 0.7243 0.0
N416 N 0.51416 0.7787 0.66129 0.0
C417 C 0.56577 0.74245 0.6507 0.0
C418 C 0.54359 0.74791 0.63163 0.0
C419 C 0.5176 0.76599 0.6374 0.0
C420 C 0.5344 0.77136 0.68035 0.0
C421 C 0.56076 0.75411 0.67536 0.0
H422 H 0.49996 0.76854 0.62296 0.0
H423 H 0.53002 0.77925 0.6997 0.0
H424 H 0.42626 0.75863 0.64542 0.0
H425 H 0.45013 0.69474 0.70328 0.0
H426 H 0.55832 0.88687 0.6852 0.0
H427 H 0.54616 0.73805 0.61264 0.0
H428 H 0.57671 0.74918 0.69087 0.0
C429 C 0.25382 0.46307 0.71835 0.0
C430 C 0.27887 0.44402 0.71536 0.0
N431 N 0.27557 0.4283 0.69316 0.0
N432 N 0.23466 0.45943 0.69821 0.0
C433 C 0.2484 0.43801 0.68314 0.0
H434 H 0.24977 0.47871 0.7342 0.0
Co435 Co 0.19871 0.48206 0.69544 0.0
C436 C 0.17686 0.47688 0.64164 0.0
O437 O 0.16775 0.50587 0.64349 0.0
N438 N 0.16182 0.50526 0.69394 0.0
C439 C 0.12562 0.54183 0.69408 0.0
C440 C 0.15669 0.53606 0.69646 0.0
C441 C 0.13332 0.49291 0.69052 0.0
N442 N 0.11084 0.51462 0.69031 0.0
O443 O 0.17667 0.44913 0.71267 0.0
H444 H 0.17404 0.55365 0.69961 0.0
H445 H 0.12931 0.46829 0.68811 0.0
O446 O 0.18988 0.46386 0.66101 0.0
C447 C 0.17525 0.45473 0.7367 0.0
O448 O 0.18764 0.48069 0.74518 0.0
N449 N 0.22216 0.51473 0.68137 0.0
C450 C 0.26508 0.56135 0.67037 0.0
C451 C 0.25696 0.53939 0.65169 0.0
C452 C 0.23605 0.51565 0.65781 0.0
C453 C 0.23043 0.53559 0.6998 0.0
C454 C 0.25144 0.55933 0.69464 0.0
H455 H 0.23275 0.49727 0.64406 0.0
H456 H 0.22108 0.53325 0.71894 0.0
H457 H 0.23895 0.43 0.6651 0.0
H458 H 0.29777 0.44158 0.72883 0.0
H459 H 0.11498 0.56452 0.6947 0.0
H460 H 0.26809 0.53945 0.63309 0.0
H461 H 0.25758 0.57549 0.70975 0.0
C462 C 0.51375 0.26992 0.69525 0.0
C463 C 0.53102 0.29606 0.70007 0.0
N464 N 0.56028 0.29074 0.69248 0.0
N465 N 0.53179 0.24827 0.68413 0.0
C466 C 0.56037 0.26109 0.68395 0.0
H467 H 0.48935 0.26725 0.6991 0.0
Co468 Co 0.5183 0.20928 0.67245 0.0
C469 C 0.55294 0.23352 0.62473 0.0
O470 O 0.5546 0.26259 0.63221 0.0
N471 N 0.50464 0.17051 0.6612 0.0
C472 C 0.48524 0.13327 0.63641 0.0
C473 C 0.49252 0.16427 0.63788 0.0
C474 C 0.50447 0.14298 0.67359 0.0
N475 N 0.49285 0.1199 0.65888 0.0
O476 O 0.55366 0.19035 0.68886 0.0
H477 H 0.48948 0.18118 0.62274 0.0
H478 H 0.51276 0.13985 0.69299 0.0
O479 O 0.54008 0.21315 0.63914 0.0
C480 C 0.54754 0.18846 0.71282 0.0
O481 O 0.52058 0.19879 0.72065 0.0
N482 N 0.48193 0.22723 0.65947 0.0
C483 C 0.42674 0.25997 0.65539 0.0
C484 C 0.45138 0.26629 0.63869 0.0
C485 C 0.47893 0.24959 0.64105 0.0
C486 C 0.45726 0.21898 0.6742 0.0
C487 C 0.42938 0.23489 0.67238 0.0
H488 H 0.49808 0.25638 0.62929 0.0
H489 H 0.45999 0.20139 0.68884 0.0
H490 H 0.58041 0.24959 0.67602 0.0
H491 H 0.52242 0.31759 0.70801 0.0
H492 H 0.47609 0.12131 0.61977 0.0
H493 H 0.45033 0.28556 0.62537 0.0
H494 H 0.41075 0.22894 0.68536 0.0
C495 C 0.75703 0.56558 0.71819 0.0
C496 C 0.73411 0.58734 0.7158 0.0
N497 N 0.73036 0.59368 0.6907 0.0
N498 N 0.76777 0.55823 0.69472 0.0
C499 C 0.75089 0.57557 0.67828 0.0
H500 H 0.76555 0.55593 0.73598 0.0
Co501 Co 0.80027 0.53107 0.68919 0.0
C502 C 0.8182 0.56121 0.63835 0.0
O503 O 0.83995 0.57885 0.6483 0.0
N504 N 0.83323 0.50376 0.68389 0.0
C505 C 0.86437 0.46281 0.6839 0.0
C506 C 0.83453 0.47278 0.68768 0.0
C507 C 0.86243 0.51198 0.67781 0.0
N508 N 0.882 0.48762 0.67786 0.0
O509 O 0.82857 0.563 0.70149 0.0
H510 H 0.81537 0.45839 0.69374 0.0
H511 H 0.86953 0.5358 0.67497 0.0
O512 O 0.80243 0.54327 0.65287 0.0
C513 C 0.83367 0.5561 0.72505 0.0
O514 O 0.82195 0.52993 0.73375 0.0
N515 N 0.77201 0.49969 0.68134 0.0
C516 C 0.72728 0.45307 0.67891 0.0
C517 C 0.74272 0.46286 0.6566 0.0
C518 C 0.76526 0.48634 0.65823 0.0
C519 C 0.75812 0.48948 0.70318 0.0
C520 C 0.73569 0.46638 0.70242 0.0
H521 H 0.77734 0.49342 0.6411 0.0
H522 H 0.76467 0.49941 0.72144 0.0
H523 H 0.75406 0.57563 0.65771 0.0
H524 H 0.72122 0.59771 0.73136 0.0
H525 H 0.87247 0.43923 0.68619 0.0
H526 H 0.73712 0.45286 0.6381 0.0
H527 H 0.72512 0.45888 0.7202 0.0
H528 H 0.02551 0.29637 0.98335 0.0
H529 H 0.12299 0.31704 0.97693 0.0
H530 H 0.03058 0.29334 1.02984 0.0
H531 H 0.12812 0.31311 1.02378 0.0
H532 H 0.11855 0.25762 0.10442 0.0
H533 H 0.11912 0.26693 0.05811 0.0
H534 H 0.04575 0.33374 0.06658 0.0
H535 H 0.04564 0.32512 0.11292 0.0
C536 C 0.0481 0.30005 0.99181 0.0
C537 C 0.07388 0.30694 0.97637 0.0
C538 C 0.05091 0.29855 1.01849 0.0
C539 C 0.07967 0.30325 1.03041 0.0
C540 C 0.10566 0.30948 1.01505 0.0
C541 C 0.10272 0.31171 0.98828 0.0
C542 C 0.10295 0.27476 0.09649 0.0
C543 C 0.08185 0.29044 0.1124 0.0
C544 C 0.10335 0.28011 0.06999 0.0
C545 C 0.08228 0.30081 0.05877 0.0
C546 C 0.06208 0.31745 0.07474 0.0
C547 C 0.06212 0.3126 0.10131 0.0
H548 H 0.70983 0.08511 0.9605 0.0
H549 H 0.64259 0.01305 0.97532 0.0
H550 H 0.71242 0.09634 1.00671 0.0
H551 H 0.64479 0.02441 1.02085 0.0
H552 H 0.68826 0.01914 0.09952 0.0
H553 H 0.6836 0.01471 0.05332 0.0
H554 H 0.68441 0.11464 0.04639 0.0
H555 H 0.68982 0.11913 0.09316 0.0
C556 C 0.69514 0.07216 0.97348 0.0
C557 C 0.67631 0.04791 0.96421 0.0
C558 C 0.69664 0.07855 0.99997 0.0
C559 C 0.67931 0.06081 1.01763 0.0
C560 C 0.65911 0.03798 1.00799 0.0
C561 C 0.65771 0.03159 0.98177 0.0
C562 C 0.68771 0.04026 0.08828 0.0
C563 C 0.68957 0.06949 0.10021 0.0
C564 C 0.68468 0.03772 0.06167 0.0
C565 C 0.68333 0.06432 0.04602 0.0
C566 C 0.68551 0.09367 0.05783 0.0
C567 C 0.68841 0.09623 0.08464 0.0
H568 H 0.96178 0.7311 0.97931 0.0
H569 H 0.89084 0.66044 0.97711 0.0
H570 H 0.9604 0.73075 1.02584 0.0
H571 H 0.8884 0.66092 1.02384 0.0
H572 H 0.92157 0.63934 0.10551 0.0
H573 H 0.9164 0.64385 0.0593 0.0
H574 H 0.93558 0.74227 0.06443 0.0
H575 H 0.94203 0.73733 0.11076 0.0
C576 C 0.94527 0.71601 0.98871 0.0
C577 C 0.92646 0.69575 0.9743 0.0
C578 C 0.9444 0.71585 1.0156 0.0
C579 C 0.92444 0.69563 1.02897 0.0
C580 C 0.90463 0.67635 1.01445 0.0
C581 C 0.90578 0.67626 0.98754 0.0
C582 C 0.92439 0.66205 0.09686 0.0
C583 C 0.93239 0.68793 0.11197 0.0
C584 C 0.92123 0.66471 0.0702 0.0
C585 C 0.92562 0.69344 0.05775 0.0
C586 C 0.93259 0.71959 0.07305 0.0
C587 C 0.93608 0.71684 0.09974 0.0
H588 H 0.2731 0.93734 0.95755 0.0
H589 H 0.36456 0.97541 0.96828 0.0
H590 H 0.27188 0.92194 1.00298 0.0
H591 H 0.36362 0.95978 1.0132 0.0
H592 H 0.36308 0.9106 0.08881 0.0
H593 H 0.36159 0.91271 0.04211 0.0
H594 H 0.2709 0.95398 0.04506 0.0
H595 H 0.27231 0.95204 0.09196 0.0
C596 C 0.29323 0.9416 0.96941 0.0
C597 C 0.319 0.95743 0.95938 0.0
C598 C 0.29243 0.93309 0.99544 0.0
C599 C 0.31766 0.93965 1.0117 0.0
C600 C 0.34394 0.95408 1.0012 0.0
C601 C 0.34447 0.9631 0.97546 0.0
C602 C 0.34252 0.91961 0.07959 0.0
C603 C 0.31793 0.93144 0.09425 0.0
C604 C 0.34176 0.92091 0.05277 0.0
C605 C 0.31625 0.93373 0.03987 0.0
C606 C 0.29081 0.94379 0.05442 0.0
C607 C 0.2917 0.94281 0.08132 0.0
H608 H 0.60357 0.24223 0.46316 0.0
H609 H 0.5238 0.18204 0.46684 0.0
H610 H 0.60846 0.24026 0.50964 0.0
H611 H 0.52754 0.18125 0.51355 0.0
H612 H 0.54568 0.17787 0.59905 0.0
H613 H 0.55205 0.16847 0.55309 0.0
H614 H 0.58158 0.26371 0.54302 0.0
H615 H 0.57637 0.27261 0.58854 0.0
C616 C 0.58727 0.22826 0.47394 0.0
C617 C 0.56315 0.21252 0.46136 0.0
C618 C 0.58986 0.22734 0.50066 0.0
C619 C 0.56795 0.21124 0.51559 0.0
C620 C 0.54497 0.1938 0.50282 0.0
C621 C 0.54274 0.19427 0.47597 0.0
C622 C 0.55405 0.1966 0.58703 0.0
C623 C 0.56031 0.22607 0.59756 0.0
C624 C 0.55748 0.19128 0.56061 0.0
C625 C 0.56726 0.21531 0.54411 0.0
C626 C 0.57456 0.24437 0.55495 0.0
C627 C 0.57129 0.2496 0.58123 0.0
H628 H 0.79427 0.48081 0.48976 0.0
H629 H 0.81729 0.57472 0.46782 0.0
H630 H 0.79446 0.49574 0.53461 0.0
H631 H 0.81772 0.58987 0.51348 0.0
H632 H 0.85532 0.58532 0.6002 0.0
H633 H 0.85006 0.57834 0.55374 0.0
H634 H 0.76512 0.52757 0.56555 0.0
H635 H 0.7701 0.53482 0.61171 0.0
C636 C 0.79924 0.50481 0.49451 0.0
C637 C 0.80587 0.52653 0.47508 0.0
C638 C 0.79914 0.51343 0.52035 0.0
C639 C 0.80604 0.54404 0.52781 0.0
C640 C 0.81242 0.56605 0.50843 0.0
C641 C 0.81197 0.55745 0.48228 0.0
C642 C 0.8353 0.57301 0.59289 0.0
C643 C 0.81351 0.56002 0.60991 0.0
C644 C 0.83223 0.56912 0.56619 0.0
C645 C 0.80738 0.55202 0.55582 0.0
C646 C 0.78489 0.54034 0.57281 0.0
C647 C 0.78783 0.54439 0.59939 0.0
H648 H 0.45286 0.77512 0.59252 0.0
H649 H 0.46754 0.87414 0.59131 0.0
H650 H 0.44541 0.77537 0.54587 0.0
H651 H 0.45837 0.87495 0.54523 0.0
H652 H 0.50081 0.85632 0.46659 0.0
H653 H 0.49144 0.85953 0.51216 0.0
H654 H 0.42011 0.7894 0.50565 0.0
H655 H 0.43036 0.78569 0.45934 0.0
C656 C 0.45314 0.7971 0.58241 0.0
C657 C 0.46097 0.8246 0.59543 0.0
C658 C 0.44889 0.7973 0.55564 0.0
C659 C 0.45206 0.8251 0.54153 0.0
C660 C 0.45672 0.85295 0.55521 0.0
C661 C 0.4616 0.85261 0.58171 0.0
C662 C 0.48274 0.84189 0.47471 0.0
C663 C 0.46642 0.8207 0.45929 0.0
C664 C 0.47711 0.84391 0.50098 0.0
C665 C 0.45487 0.82481 0.51285 0.0
C666 C 0.43755 0.80435 0.49726 0.0
C667 C 0.44316 0.80244 0.47068 0.0
H668 H 0.20765 0.42433 0.62503 0.0
H669 H 0.14696 0.49741 0.59916 0.0
H670 H 0.21385 0.40696 0.58063 0.0
H671 H 0.15401 0.48116 0.55527 0.0
H672 H 0.16107 0.44482 0.47677 0.0
H673 H 0.14625 0.44618 0.52184 0.0
H674 H 0.24016 0.42421 0.54359 0.0
H675 H 0.25447 0.42138 0.49868 0.0
C676 C 0.19531 0.43642 0.60998 0.0
C677 C 0.17713 0.46252 0.6157 0.0
C678 C 0.19906 0.42666 0.58444 0.0
C679 C 0.18471 0.44278 0.56409 0.0
C680 C 0.16519 0.46776 0.57018 0.0
C681 C 0.16137 0.47735 0.59554 0.0
C682 C 0.17838 0.43964 0.49117 0.0
C683 C 0.20905 0.43338 0.48403 0.0
C684 C 0.16996 0.44066 0.5171 0.0
C685 C 0.19209 0.43591 0.5366 0.0
C686 C 0.22231 0.42777 0.52932 0.0
C687 C 0.23062 0.42635 0.5034 0.0
H688 H 0.26172 0.12223 0.16046 0.0
H689 H 0.18795 0.05442 0.16216 0.0
H690 H 0.22513 0.16282 0.17278 0.0
H691 H 0.15144 0.09495 0.17397 0.0
H692 H 0.10481 0.16437 0.22666 0.0
H693 H 0.14346 0.1267 0.21337 0.0
H694 H 0.17831 0.19157 0.15723 0.0
H695 H 0.13943 0.2292 0.1702 0.0
C696 C 0.23763 0.1161 0.16311 0.0
C697 C 0.22773 0.08511 0.16034 0.0
C698 C 0.21669 0.13934 0.17009 0.0
C699 C 0.18551 0.13198 0.17469 0.0
C700 C 0.17543 0.10123 0.17098 0.0
C701 C 0.19627 0.07809 0.16382 0.0
C702 C 0.12068 0.1707 0.2115 0.0
C703 C 0.11855 0.19976 0.19931 0.0
C704 C 0.1428 0.14905 0.20384 0.0
C705 C 0.16355 0.15597 0.18393 0.0
C706 C 0.16262 0.18557 0.17263 0.0
C707 C 0.14033 0.20722 0.18019 0.0
H708 H 0.81722 0.09387 0.14761 0.0
H709 H 0.7737 0.1637 0.19438 0.0
H710 H 0.86151 0.12899 0.14058 0.0
H711 H 0.8173 0.1986 0.18738 0.0
H712 H 0.91701 0.22294 0.20767 0.0
H713 H 0.87094 0.19094 0.20562 0.0
H714 H 0.88028 0.18376 0.12344 0.0
H715 H 0.92657 0.21695 0.12529 0.0
C716 C 0.81678 0.11702 0.15571 0.0
C717 C 0.79244 0.126 0.17187 0.0
C718 C 0.84203 0.13705 0.15175 0.0
C719 C 0.84307 0.16624 0.16391 0.0
C720 C 0.81744 0.17599 0.17825 0.0
C721 C 0.79248 0.15609 0.18222 0.0
C722 C 0.9091 0.21517 0.18903 0.0
C723 C 0.92524 0.22318 0.16659 0.0
C724 C 0.8827 0.19664 0.18789 0.0
C725 C 0.87174 0.18527 0.16433 0.0
C726 C 0.88823 0.19232 0.14185 0.0
C727 C 0.91471 0.21124 0.14295 0.0
H728 H 0.77353 0.90243 0.14438 0.0
H729 H 0.84044 0.96259 0.18091 0.0
H730 H 0.80866 0.8583 0.1499 0.0
H731 H 0.87519 0.9187 0.18657 0.0
H732 H 0.90325 0.82959 0.22736 0.0
H733 H 0.86977 0.87237 0.21555 0.0
H734 H 0.8624 0.83615 0.1386 0.0
H735 H 0.89679 0.79329 0.15025 0.0
C736 C 0.79599 0.90637 0.15302 0.0
C737 C 0.80405 0.93588 0.16256 0.0
C738 C 0.81603 0.88111 0.15624 0.0
C739 C 0.84438 0.88498 0.16912 0.0
C740 C 0.85319 0.91489 0.1771 0.0
C741 C 0.83332 0.94002 0.17382 0.0
C742 C 0.89486 0.83074 0.20784 0.0
C743 C 0.90321 0.80811 0.18971 0.0
C744 C 0.87559 0.85532 0.20107 0.0
C745 C 0.86387 0.85789 0.17603 0.0
C746 C 0.87115 0.83474 0.15804 0.0
C747 C 0.89075 0.81014 0.16478 0.0
H748 H 0.16546 0.93213 0.19928 0.0
H749 H 0.22774 0.87432 0.15558 0.0
H750 H 0.12485 0.89363 0.19412 0.0
H751 H 0.1864 0.8361 0.14988 0.0
H752 H 0.0905 0.78984 0.12839 0.0
H753 H 0.13134 0.82975 0.12958 0.0
H754 H 0.11887 0.83882 0.21137 0.0
H755 H 0.07848 0.79931 0.21019 0.0
C756 C 0.17068 0.91126 0.18863 0.0
C757 C 0.20029 0.90631 0.17825 0.0
C758 C 0.14722 0.88923 0.18556 0.0
C759 C 0.15254 0.86177 0.17178 0.0
C760 C 0.18163 0.85718 0.16048 0.0
C761 C 0.20532 0.87914 0.16378 0.0
C762 C 0.09655 0.80048 0.14654 0.0
C763 C 0.08149 0.79136 0.16921 0.0
C764 C 0.11997 0.82311 0.14726 0.0
C765 C 0.12819 0.83741 0.17057 0.0
C766 C 0.11287 0.82841 0.19311 0.0
C767 C 0.08992 0.8056 0.19246 0.0
H768 H 0.70153 0.42268 0.34927 0.0
H769 H 0.70536 0.39785 0.42953 0.0
H770 H 0.66355 0.38229 0.34176 0.0
H771 H 0.66554 0.35839 0.42226 0.0
H772 H 0.61614 0.27053 0.39604 0.0
H773 H 0.65699 0.30868 0.40234 0.0
H774 H 0.61113 0.37076 0.34952 0.0
H775 H 0.57129 0.33197 0.34211 0.0
C776 C 0.69433 0.40853 0.36537 0.0
C777 C 0.7069 0.41328 0.38998 0.0
C778 C 0.67212 0.3856 0.3611 0.0
C779 C 0.6614 0.36702 0.38137 0.0
C780 C 0.6736 0.37197 0.40611 0.0
C781 C 0.69612 0.39486 0.41037 0.0
C782 C 0.61505 0.29199 0.38531 0.0
C783 C 0.59024 0.2981 0.36855 0.0
C784 C 0.63828 0.31413 0.38928 0.0
C785 C 0.63727 0.34296 0.37665 0.0
C786 C 0.61288 0.34874 0.35944 0.0
C787 C 0.58978 0.32656 0.35536 0.0
H788 H 0.59247 0.71537 0.43968 0.0
H789 H 0.55821 0.66946 0.37167 0.0
H790 H 0.63318 0.67596 0.44364 0.0
H791 H 0.59879 0.63099 0.37514 0.0
H792 H 0.65904 0.55308 0.39226 0.0
H793 H 0.61601 0.58794 0.40099 0.0
H794 H 0.6807 0.66135 0.41948 0.0
H795 H 0.72382 0.62568 0.41144 0.0
C796 C 0.59348 0.6967 0.42578 0.0
C797 C 0.57242 0.69558 0.40524 0.0
C798 C 0.61684 0.67433 0.42794 0.0
C799 C 0.61916 0.65029 0.40976 0.0
C800 C 0.59743 0.64885 0.38972 0.0
C801 C 0.57436 0.67114 0.38752 0.0
C802 C 0.66392 0.57649 0.39875 0.0
C803 C 0.69453 0.587 0.40085 0.0
C804 C 0.63939 0.59648 0.40365 0.0
C805 C 0.64496 0.62762 0.41034 0.0
C806 C 0.67565 0.63747 0.41441 0.0
C807 C 0.70031 0.61719 0.4098 0.0
H808 H 0.23875 0.62476 0.42489 0.0
H809 H 0.31582 0.56691 0.44699 0.0
H810 H 0.27375 0.66901 0.42039 0.0
H811 H 0.35049 0.61137 0.44314 0.0
H812 H 0.40507 0.70222 0.43895 0.0
H813 H 0.36474 0.66806 0.45694 0.0
H814 H 0.31505 0.67235 0.38511 0.0
H815 H 0.35539 0.70568 0.36732 0.0
C816 C 0.26301 0.62162 0.42932 0.0
C817 C 0.27457 0.59212 0.43576 0.0
C818 C 0.28297 0.64699 0.42689 0.0
C819 C 0.31482 0.64347 0.43115 0.0
C820 C 0.32598 0.61477 0.43992 0.0
C821 C 0.30606 0.58928 0.44214 0.0
C822 C 0.38509 0.69627 0.42738 0.0
C823 C 0.38317 0.70622 0.4018 0.0
C824 C 0.36219 0.67676 0.43756 0.0
C825 C 0.33678 0.66769 0.42242 0.0
C826 C 0.33415 0.67927 0.39733 0.0
C827 C 0.35725 0.6981 0.38707 0.0
H828 H 0.32776 0.40714 0.36074 0.0
H829 H 0.27244 0.37321 0.4237 0.0
H830 H 0.36089 0.36168 0.36411 0.0
H831 H 0.30521 0.32718 0.42673 0.0
H832 H 0.39916 0.27613 0.44376 0.0
H833 H 0.35975 0.31652 0.43991 0.0
H834 H 0.35985 0.30527 0.3576 0.0
H835 H 0.39976 0.26603 0.36127 0.0
C836 C 0.32255 0.38981 0.37515 0.0
C837 C 0.29759 0.39377 0.39197 0.0
C838 C 0.34132 0.36363 0.37695 0.0
C839 C 0.33561 0.34086 0.3957 0.0
C840 C 0.31026 0.34447 0.41221 0.0
C841 C 0.29132 0.37062 0.41029 0.0
C842 C 0.39058 0.28217 0.42489 0.0
C843 C 0.40263 0.26785 0.40285 0.0
C844 C 0.36784 0.30507 0.4227 0.0
C845 C 0.3569 0.31417 0.39842 0.0
C846 C 0.36809 0.29899 0.37653 0.0
C847 C 0.3907 0.27617 0.3787 0.0
H848 H 0.86776 0.78719 0.90589 0.0
H849 H 0.93728 0.85304 0.88171 0.0
H850 H 0.831 0.82974 0.91177 0.0
H851 H 0.90095 0.89537 0.88774 0.0
H852 H 0.81711 0.95329 0.86467 0.0
H853 H 0.8554 0.9122 0.86492 0.0
H854 H 0.81826 0.87744 0.93629 0.0
H855 H 0.779 0.91847 0.9356 0.0
C856 C 0.8753 0.81076 0.90219 0.0
C857 C 0.90522 0.8167 0.89288 0.0
C858 C 0.85431 0.83514 0.90563 0.0
C859 C 0.86293 0.86592 0.89991 0.0
C860 C 0.89333 0.87187 0.89174 0.0
C861 C 0.91415 0.84759 0.88822 0.0
C862 C 0.81704 0.93688 0.88042 0.0
C863 C 0.79484 0.93892 0.89999 0.0
C864 C 0.83923 0.91349 0.88073 0.0
C865 C 0.83994 0.89152 0.90065 0.0
C866 C 0.81814 0.89387 0.92057 0.0
C867 C 0.79589 0.91749 0.92031 0.0
H868 H 0.22587 0.87987 0.92243 0.0
H869 H 0.15918 0.92 0.87061 0.0
H870 H 0.18559 0.84545 0.93972 0.0
H871 H 0.11938 0.88565 0.8873 0.0
H872 H 0.04731 0.83451 0.92873 0.0
H873 H 0.08812 0.8732 0.92478 0.0
H874 H 0.1564 0.80029 0.92221 0.0
H875 H 0.1156 0.76148 0.92722 0.0
C876 C 0.20254 0.88162 0.91504 0.0
C877 C 0.19569 0.90231 0.89499 0.0
C878 C 0.17957 0.86184 0.92478 0.0
C879 C 0.14929 0.8628 0.91487 0.0
C880 C 0.14232 0.88452 0.89561 0.0
C881 C 0.16522 0.90396 0.88578 0.0
C882 C 0.07106 0.82668 0.92818 0.0
C883 C 0.07812 0.79482 0.928 0.0
C884 C 0.09445 0.84889 0.92563 0.0
C885 C 0.12544 0.8398 0.92276 0.0
C886 C 0.13277 0.80808 0.92444 0.0
C887 C 0.10935 0.78582 0.92702 0.0
H888 H 0.22449 0.10425 0.92733 0.0
H889 H 0.17117 0.05373 0.87107 0.0
H890 H 0.18628 0.14621 0.92649 0.0
H891 H 0.13256 0.09469 0.87079 0.0
H892 H 0.09171 0.18719 0.85006 0.0
H893 H 0.12941 0.14583 0.85444 0.0
H894 H 0.13422 0.16263 0.9361 0.0
H895 H 0.09677 0.2048 0.93142 0.0
C896 C 0.20426 0.10193 0.9152 0.0
C897 C 0.20086 0.07606 0.89903 0.0
C898 C 0.18236 0.12587 0.91471 0.0
C899 C 0.15659 0.12413 0.89821 0.0
C900 C 0.15255 0.09731 0.88315 0.0
C901 C 0.17452 0.0737 0.88342 0.0
C902 C 0.10072 0.18197 0.86895 0.0
C903 C 0.0911 0.19904 0.89041 0.0
C904 C 0.12227 0.15816 0.87153 0.0
C905 C 0.13454 0.15048 0.89572 0.0
C906 C 0.1254 0.16801 0.91717 0.0
C907 C 0.10396 0.19214 0.91452 0.0
H908 H 0.79788 0.09853 0.93335 0.0
H909 H 0.78272 0.15777 0.86793 0.0
H910 H 0.83634 0.13571 0.9501 0.0
H911 H 0.82042 0.19495 0.88457 0.0
H912 H 0.87537 0.26587 0.92678 0.0
H913 H 0.83073 0.23143 0.92252 0.0
H914 H 0.89007 0.15179 0.93146 0.0
H915 H 0.9349 0.18598 0.93494 0.0
C916 C 0.80234 0.11983 0.92294 0.0
C917 C 0.78766 0.12537 0.89935 0.0
C918 C 0.82432 0.14095 0.93239 0.0
C919 C 0.83126 0.16821 0.91864 0.0
C920 C 0.8153 0.17434 0.89573 0.0
C921 C 0.79393 0.15302 0.8861 0.0
C922 C 0.87892 0.24103 0.9281 0.0
C923 C 0.90886 0.22873 0.93072 0.0
C924 C 0.85331 0.22136 0.92581 0.0
C925 C 0.85702 0.18898 0.92644 0.0
C926 C 0.88653 0.17668 0.93113 0.0
C927 C 0.91222 0.19635 0.93315 0.0
H928 H 0.43961 0.65783 0.66691 0.0
H929 H 0.37264 0.73024 0.6544 0.0
H930 H 0.3994 0.61856 0.66147 0.0
H931 H 0.33194 0.69073 0.649 0.0
H932 H 0.27099 0.60228 0.63024 0.0
H933 H 0.31236 0.64099 0.62386 0.0
H934 H 0.35631 0.60989 0.69368 0.0
H935 H 0.31542 0.57176 0.69998 0.0
C936 C 0.41631 0.66523 0.66245 0.0
C937 C 0.40901 0.69695 0.66153 0.0
C938 C 0.39333 0.64283 0.65936 0.0
C939 C 0.3625 0.65167 0.65535 0.0
C940 C 0.35557 0.68333 0.65208 0.0
C941 C 0.37876 0.70589 0.65513 0.0
C942 C 0.28966 0.60378 0.64405 0.0
C943 C 0.29 0.58427 0.66568 0.0
C944 C 0.31315 0.6259 0.64047 0.0
C945 C 0.33759 0.62822 0.65817 0.0
C946 C 0.33798 0.60834 0.67954 0.0
C947 C 0.31444 0.58672 0.68329 0.0
H948 H 0.26226 0.38021 0.6609 0.0
H949 H 0.33693 0.42451 0.70237 0.0
H950 H 0.29741 0.33823 0.64831 0.0
H951 H 0.3713 0.38242 0.69046 0.0
H952 H 0.40327 0.28249 0.69974 0.0
H953 H 0.36525 0.3233 0.70531 0.0
H954 H 0.35426 0.33027 0.62325 0.0
H955 H 0.39271 0.28878 0.61745 0.0
C956 C 0.28615 0.38128 0.66702 0.0
C957 C 0.2966 0.4054 0.68314 0.0
C958 C 0.30619 0.35727 0.65983 0.0
C959 C 0.3368 0.35701 0.6688 0.0
C960 C 0.3476 0.38189 0.68369 0.0
C961 C 0.32782 0.40587 0.69064 0.0
C962 C 0.39231 0.29208 0.68282 0.0
C963 C 0.40088 0.28227 0.65814 0.0
C964 C 0.37077 0.31567 0.68604 0.0
C965 C 0.35712 0.32996 0.6647 0.0
C966 C 0.36454 0.31947 0.63997 0.0
C967 C 0.38654 0.29593 0.63669 0.0
H968 H 0.55326 0.35265 0.68591 0.0
H969 H 0.62237 0.28078 0.69182 0.0
H970 H 0.59348 0.39132 0.68033 0.0
H971 H 0.66305 0.31991 0.68628 0.0
H972 H 0.67219 0.4553 0.70373 0.0
H973 H 0.63275 0.41526 0.70646 0.0
H974 H 0.68541 0.35732 0.65498 0.0
H975 H 0.72579 0.39742 0.65295 0.0
C976 C 0.57708 0.34509 0.68643 0.0
C977 C 0.58455 0.31359 0.68976 0.0
C978 C 0.6002 0.36733 0.68308 0.0
C979 C 0.63151 0.35878 0.68304 0.0
C980 C 0.63911 0.32722 0.68598 0.0
C981 C 0.61585 0.30483 0.68928 0.0
C982 C 0.67544 0.43401 0.693 0.0
C983 C 0.70222 0.42943 0.67827 0.0
C984 C 0.65267 0.41114 0.69438 0.0
C985 C 0.6559 0.38306 0.68094 0.0
C986 C 0.68241 0.37859 0.66577 0.0
C987 C 0.70532 0.40165 0.66435 0.0
H988 H 0.62558 0.75863 0.65813 0.0
H989 H 0.56741 0.68231 0.63436 0.0
H990 H 0.66945 0.72344 0.66198 0.0
H991 H 0.61118 0.6467 0.63878 0.0
H992 H 0.70184 0.59159 0.64429 0.0
H993 H 0.66499 0.62959 0.62711 0.0
H994 H 0.67568 0.6846 0.69588 0.0
H995 H 0.71253 0.64735 0.71255 0.0
C996 C 0.6225 0.7344 0.65306 0.0
C997 C 0.59323 0.723 0.64619 0.0
C998 C 0.64748 0.71424 0.6554 0.0
C999 C 0.64355 0.68222 0.65124 0.0
C1000 C 0.61492 0.67127 0.64206 0.0
C1001 C 0.58988 0.69159 0.63952 0.0
C1002 C 0.69654 0.61207 0.65547 0.0
C1003 C 0.70984 0.61641 0.67984 0.0
C1004 C 0.6754 0.63368 0.64572 0.0
C1005 C 0.66762 0.66018 0.66005 0.0
C1006 C 0.68155 0.66473 0.68413 0.0
C1007 C 0.70235 0.64313 0.69389 0.0
H1008 H 0.20431 0.43373 0.31697 0.0
H1009 H 0.13597 0.40347 0.3718 0.0
H1010 H 0.18022 0.40203 0.28397 0.0
H1011 H 0.11075 0.37248 0.33838 0.0
H1012 H 0.08392 0.30133 0.27902 0.0
H1013 H 0.1129 0.32877 0.31194 0.0
H1014 H 0.13746 0.39946 0.25662 0.0
H1015 H 0.1093 0.3709 0.22332 0.0
C1016 C 0.18402 0.42023 0.32198 0.0
C1017 C 0.17204 0.42112 0.34705 0.0
C1018 C 0.16999 0.4022 0.3029 0.0
C1019 C 0.14321 0.38476 0.30817 0.0
C1020 C 0.13156 0.38518 0.33351 0.0
C1021 C 0.14595 0.40298 0.35276 0.0
C1022 C 0.09586 0.32256 0.2738 0.0
C1023 C 0.09434 0.33394 0.24854 0.0
C1024 C 0.11226 0.33853 0.29282 0.0
C1025 C 0.12733 0.36672 0.28729 0.0
C1026 C 0.12653 0.37768 0.26172 0.0
C1027 C 0.11039 0.36135 0.24252 0.0
H1028 H 0.64112 0.03686 0.25759 0.0
H1029 H 0.65112 0.11677 0.20819 0.0
H1030 H 0.61629 0.06874 0.28983 0.0
H1031 H 0.62631 0.14915 0.24094 0.0
H1032 H 0.54835 0.1852 0.29447 0.0
H1033 H 0.57688 0.15738 0.26173 0.0
H1034 H 0.62817 0.10925 0.32068 0.0
H1035 H 0.59883 0.13688 0.35375 0.0
C1036 C 0.63792 0.06133 0.25356 0.0
C1037 C 0.64813 0.07429 0.23028 0.0
C1038 C 0.62397 0.0797 0.27225 0.0
C1039 C 0.61978 0.11165 0.26827 0.0
C1040 C 0.62917 0.12458 0.24464 0.0
C1041 C 0.64322 0.10606 0.2258 0.0
C1042 C 0.56592 0.16888 0.30055 0.0
C1043 C 0.57112 0.16302 0.32677 0.0
C1044 C 0.58246 0.15308 0.28168 0.0
C1045 C 0.60466 0.13086 0.28848 0.0
C1046 C 0.61085 0.12589 0.31476 0.0
C1047 C 0.59429 0.14188 0.33373 0.0
H1048 H 0.80499 0.57002 0.30851 0.0
H1049 H 0.87634 0.58913 0.36422 0.0
H1050 H 0.8312 0.60254 0.27727 0.0
H1051 H 0.90371 0.62092 0.33248 0.0
H1052 H 0.93624 0.69375 0.27616 0.0
H1053 H 0.90571 0.66651 0.30811 0.0
H1054 H 0.87368 0.60268 0.24973 0.0
H1055 H 0.90352 0.63111 0.21745 0.0
C1056 C 0.82634 0.58141 0.31411 0.0
C1057 C 0.83859 0.57709 0.33885 0.0
C1058 C 0.84161 0.59982 0.29603 0.0
C1059 C 0.86997 0.61415 0.30196 0.0
C1060 C 0.88178 0.61061 0.32712 0.0
C1061 C 0.86613 0.59243 0.34543 0.0
C1062 C 0.92243 0.67404 0.27006 0.0
C1063 C 0.92231 0.66458 0.24422 0.0
C1064 C 0.90508 0.65818 0.28852 0.0
C1065 C 0.88731 0.63203 0.28182 0.0
C1066 C 0.88668 0.62294 0.25574 0.0
C1067 C 0.90381 0.63917 0.23713 0.0
H1068 H 0.39244 0.8495 0.3483 0.0
H1069 H 0.45012 0.81289 0.28795 0.0
H1070 H 0.36204 0.87759 0.31615 0.0
H1071 H 0.42077 0.84141 0.25627 0.0
H1072 H 0.35003 0.88072 0.2009 0.0
H1073 H 0.37347 0.84691 0.23339 0.0
H1074 H 0.36801 0.92126 0.28887 0.0
H1075 H 0.34407 0.95419 0.2571 0.0
C1076 C 0.3986 0.84741 0.32825 0.0
C1077 C 0.42382 0.82908 0.3208 0.0
C1078 C 0.3813 0.86359 0.30978 0.0
C1079 C 0.38895 0.8619 0.28348 0.0
C1080 C 0.41377 0.84298 0.27616 0.0
C1081 C 0.43087 0.8268 0.2945 0.0
C1082 C 0.35374 0.88966 0.22008 0.0
C1083 C 0.34523 0.92018 0.22629 0.0
C1084 C 0.36725 0.87037 0.23873 0.0
C1085 C 0.3726 0.88126 0.26392 0.0
C1086 C 0.36375 0.91171 0.26998 0.0
C1087 C 0.35024 0.93079 0.25151 0.0
H1088 H 0.89229 0.64786 0.86692 0.0
H1089 H 0.95251 0.68566 0.80869 0.0
H1090 H 0.86387 0.61924 0.83363 0.0
H1091 H 0.92488 0.65689 0.77588 0.0
H1092 H 0.85418 0.6169 0.71871 0.0
H1093 H 0.87771 0.65054 0.75152 0.0
H1094 H 0.87312 0.57531 0.80619 0.0
H1095 H 0.84968 0.54234 0.77402 0.0
C1096 C 0.89934 0.65025 0.84709 0.0
C1097 C 0.92485 0.6689 0.84062 0.0
C1098 C 0.88321 0.63371 0.82797 0.0
C1099 C 0.89215 0.63555 0.80193 0.0
C1100 C 0.91702 0.65505 0.79554 0.0
C1101 C 0.93309 0.6714 0.81454 0.0
C1102 C 0.85839 0.60761 0.7377 0.0
C1103 C 0.84998 0.57687 0.74359 0.0
C1104 C 0.87182 0.62686 0.75657 0.0
C1105 C 0.87703 0.61582 0.78175 0.0
C1106 C 0.86886 0.58499 0.78735 0.0
C1107 C 0.85563 0.5659 0.76864 0.0
H1108 H 0.45584 0.82419 0.76721 0.0
H1109 H 0.39683 0.85323 0.7048 0.0
H1110 H 0.42428 0.8529 0.79731 0.0
H1111 H 0.36436 0.88142 0.73529 0.0
H1112 H 0.33957 0.95988 0.79062 0.0
H1113 H 0.36726 0.9272 0.76077 0.0
H1114 H 0.376 0.8565 0.81915 0.0
H1115 H 0.34871 0.89001 0.84959 0.0
C1116 C 0.43585 0.83644 0.75989 0.0
C1117 C 0.42902 0.83655 0.73347 0.0
C1118 C 0.41753 0.85274 0.7773 0.0
C1119 C 0.39172 0.86962 0.76887 0.0
C1120 C 0.38434 0.86908 0.74248 0.0
C1121 C 0.40282 0.85277 0.72497 0.0
C1122 C 0.3473 0.93735 0.79722 0.0
C1123 C 0.34193 0.92763 0.82262 0.0
C1124 C 0.36299 0.91841 0.7799 0.0
C1125 C 0.37374 0.88901 0.78734 0.0
C1126 C 0.36831 0.87913 0.81276 0.0
C1127 C 0.35262 0.89826 0.83024 0.0
H1128 H 0.10979 0.35553 0.87373 0.0
H1129 H 0.0436 0.33575 0.81374 0.0
H1130 H 0.14219 0.38317 0.84257 0.0
H1131 H 0.07508 0.36377 0.78316 0.0
H1132 H 0.1475 0.39796 0.72758 0.0
H1133 H 0.12149 0.36437 0.75876 0.0
H1134 H 0.14169 0.43065 0.81877 0.0
H1135 H 0.1682 0.46344 0.78803 0.0
C1136 C 0.1022 0.35698 0.85396 0.0
C1137 C 0.07402 0.34353 0.84634 0.0
C1138 C 0.12065 0.37295 0.83609 0.0
C1139 C 0.1113 0.37579 0.81022 0.0
C1140 C 0.08341 0.36172 0.80268 0.0
C1141 C 0.06513 0.34583 0.82042 0.0
C1142 C 0.1465 0.4052 0.74746 0.0
C1143 C 0.15982 0.43348 0.7552 0.0
C1144 C 0.13151 0.38602 0.76537 0.0
C1145 C 0.12939 0.39474 0.79141 0.0
C1146 C 0.14322 0.42281 0.79908 0.0
C1147 C 0.15822 0.44183 0.78128 0.0
H1148 H 0.53899 0.18479 0.76432 0.0
H1149 H 0.60356 0.15911 0.70494 0.0
H1150 H 0.57002 0.15807 0.796 0.0
H1151 H 0.63551 0.13284 0.73714 0.0
H1152 H 0.65961 0.05516 0.79372 0.0
H1153 H 0.63308 0.08689 0.76248 0.0
H1154 H 0.61665 0.15658 0.82046 0.0
H1155 H 0.64291 0.12398 0.85233 0.0
C1156 C 0.56009 0.17371 0.758 0.0
C1157 C 0.56859 0.1739 0.73192 0.0
C1158 C 0.57811 0.15856 0.77636 0.0
C1159 C 0.60533 0.14313 0.7693 0.0
C1160 C 0.61443 0.14408 0.74329 0.0
C1161 C 0.59625 0.15928 0.72479 0.0
C1162 C 0.65045 0.07728 0.79998 0.0
C1163 C 0.65337 0.08693 0.82569 0.0
C1164 C 0.63544 0.0957 0.78184 0.0
C1165 C 0.62285 0.12453 0.78871 0.0
C1166 C 0.62583 0.13439 0.81446 0.0
C1167 C 0.64091 0.11577 0.83276 0.0
H1168 H 0.97343 0.58003 0.20399 0.0
H1169 H 0.05801 0.58207 0.1601 0.0
H1170 H 0.97772 0.52349 0.20788 0.0
H1171 H 0.06193 0.52584 0.16364 0.0
H1172 H 0.02519 0.42948 0.13862 0.0
H1173 H 0.0267 0.48573 0.14282 0.0
H1174 H 0.0125 0.47739 0.22449 0.0
H1175 H 0.01107 0.42037 0.22016 0.0
C1176 C 0.99324 0.56857 0.19565 0.0
C1177 C 0.01506 0.58551 0.18128 0.0
C1178 C 0.99569 0.53621 0.19789 0.0
C1179 C 0.01992 0.5203 0.18573 0.0
C1180 C 0.04272 0.53747 0.17281 0.0
C1181 C 0.04037 0.56967 0.17069 0.0
C1182 C 0.02237 0.4396 0.15747 0.0
C1183 C 0.01778 0.42064 0.17904 0.0
C1184 C 0.02353 0.47179 0.15993 0.0
C1185 C 0.01984 0.48591 0.18399 0.0
C1186 C 0.01536 0.46704 0.20571 0.0
C1187 C 0.0147 0.43457 0.20328 0.0
H1188 H 0.43918 0.03954 0.14116 0.0
H1189 H 0.42934 0.94645 0.17065 0.0
H1190 H 0.4952 0.03536 0.14432 0.0
H1191 H 0.48545 0.94163 0.1731 0.0
H1192 H 0.58612 0.95574 0.19841 0.0
H1193 H 0.53 0.95828 0.19532 0.0
H1194 H 0.53829 0.0115 0.1253 0.0
H1195 H 0.59449 0.00971 0.12908 0.0
C1196 C 0.44909 0.01809 0.14816 0.0
C1197 C 0.4299 0.99336 0.15568 0.0
C1198 C 0.48123 0.01556 0.14983 0.0
C1199 C 0.49505 0.98803 0.15876 0.0
C1200 C 0.47574 0.96335 0.16647 0.0
C1201 C 0.44354 0.96606 0.16508 0.0
C1202 C 0.57591 0.96758 0.18218 0.0
C1203 C 0.59467 0.98254 0.16397 0.0
C1204 C 0.54368 0.96907 0.18037 0.0
C1205 C 0.52941 0.98528 0.16014 0.0
C1206 C 0.54833 0.99943 0.14149 0.0
C1207 C 0.58055 0.99825 0.1435 0.0
H1208 H 0.54416 0.07436 0.3758 0.0
H1209 H 0.45374 0.06351 0.40938 0.0
H1210 H 0.54738 0.01834 0.36947 0.0
H1211 H 0.4561 0.00764 0.40219 0.0
H1212 H 0.48441 0.90731 0.41397 0.0
H1213 H 0.48084 0.96349 0.41851 0.0
H1214 H 0.52895 0.97507 0.34643 0.0
H1215 H 0.53346 0.91876 0.34264 0.0
C1216 C 0.52474 0.05996 0.38136 0.0
C1217 C 0.49878 0.07313 0.39321 0.0
C1218 C 0.52649 0.02785 0.37771 0.0
C1219 C 0.50209 0.0083 0.38549 0.0
C1220 C 0.47568 0.02179 0.39655 0.0
C1221 C 0.47418 0.0538 0.40055 0.0
C1222 C 0.49409 0.92197 0.39911 0.0
C1223 C 0.50922 0.90881 0.37799 0.0
C1224 C 0.49193 0.95417 0.40159 0.0
C1225 C 0.50445 0.97397 0.38275 0.0
C1226 C 0.51948 0.96065 0.36152 0.0
C1227 C 0.52203 0.92841 0.35928 0.0
H1228 H 0.92035 0.53949 0.38475 0.0
H1229 H 0.93094 0.44711 0.41614 0.0
H1230 H 0.97648 0.54613 0.38533 0.0
H1231 H 0.98667 0.45353 0.41581 0.0
H1232 H 0.07533 0.55016 0.42663 0.0
H1233 H 0.01923 0.54795 0.42053 0.0
H1234 H 0.02866 0.46013 0.38138 0.0
H1235 H 0.0846 0.46225 0.38762 0.0
C1236 C 0.93447 0.52068 0.39189 0.0
C1237 C 0.92099 0.49266 0.40028 0.0
C1238 C 0.9666 0.52446 0.39204 0.0
C1239 C 0.98578 0.50016 0.40025 0.0
C1240 C 0.97238 0.47236 0.40883 0.0
C1241 C 0.94038 0.46871 0.409 0.0
C1242 C 0.06536 0.53063 0.41643 0.0
C1243 C 0.08419 0.50626 0.40778 0.0
C1244 C 0.03339 0.52948 0.4128 0.0
C1245 C 0.01974 0.50373 0.40073 0.0
C1246 C 0.0387 0.48009 0.39097 0.0
C1247 C 0.07067 0.48143 0.39433 0.0
H1248 H 0.04754 0.58599 0.93551 0.0
H1249 H 0.96576 0.58593 0.88786 0.0
H1250 H 0.04881 0.52949 0.93392 0.0
H1251 H 0.96729 0.52916 0.88605 0.0
H1252 H 0.99605 0.4249 0.87722 0.0
H1253 H 0.99935 0.48157 0.87214 0.0
H1254 H 0.01217 0.49124 0.95391 0.0
H1255 H 0.00924 0.43519 0.95887 0.0
C1256 C 0.02996 0.57392 0.92454 0.0
C1257 C 0.00623 0.59042 0.91222 0.0
C1258 C 0.03075 0.54159 0.92358 0.0
C1259 C 0.00788 0.52497 0.91019 0.0
C1260 C 0.98526 0.54143 0.89645 0.0
C1261 C 0.98441 0.57392 0.89748 0.0
C1262 C 0.99973 0.43925 0.894 0.0
C1263 C 0.00221 0.42568 0.91845 0.0
C1264 C 0.00144 0.47158 0.89112 0.0
C1265 C 0.00621 0.49072 0.91261 0.0
C1266 C 0.00887 0.47704 0.93696 0.0
C1267 C 0.00681 0.44495 0.93985 0.0
H1268 H 0.57819 0.05255 0.88287 0.0
H1269 H 0.57119 0.95269 0.88974 0.0
H1270 H 0.52233 0.05648 0.88429 0.0
H1271 H 0.51516 0.95655 0.88958 0.0
H1272 H 0.41511 0.97606 0.91148 0.0
H1273 H 0.47138 0.97275 0.91389 0.0
H1274 H 0.47902 0.04609 0.85758 0.0
H1275 H 0.42294 0.04971 0.8557 0.0
C1276 C 0.56488 0.03139 0.88481 0.0
C1277 C 0.57947 1.00226 0.88614 0.0
C1278 C 0.53268 0.03364 0.88525 0.0
C1279 C 0.51414 0.00683 0.88683 0.0
C1280 C 0.52867 0.97773 0.88858 0.0
C1281 C 0.5609 0.97549 0.88833 0.0
C1282 C 0.42889 0.99137 0.89959 0.0
C1283 C 0.41463 0.01318 0.88344 0.0
C1284 C 0.46113 0.98946 0.90092 0.0
C1285 C 0.47982 0.00918 0.88596 0.0
C1286 C 0.46544 0.03096 0.86978 0.0
C1287 C 0.43326 0.03302 0.86863 0.0
H1288 H 0.55331 0.93374 0.66494 0.0
H1289 H 0.456 0.92164 0.68104 0.0
H1290 H 0.54655 0.98959 0.6642 0.0
H1291 H 0.44917 0.97803 0.67963 0.0
H1292 H 0.45165 0.07777 0.64089 0.0
H1293 H 0.45366 0.02142 0.64643 0.0
H1294 H 0.5334 0.03179 0.69566 0.0
H1295 H 0.53175 0.08796 0.68975 0.0
C1296 C 0.5305 0.94293 0.66857 0.0
C1297 C 0.50527 0.92307 0.67333 0.0
C1298 C 0.52665 0.97501 0.66813 0.0
C1299 C 0.49743 0.98813 0.67219 0.0
C1300 C 0.47196 0.96845 0.67642 0.0
C1301 C 0.47587 0.93618 0.67709 0.0
C1302 C 0.46947 0.06798 0.65301 0.0
C1303 C 0.49174 0.08723 0.66466 0.0
C1304 C 0.47043 0.0358 0.65637 0.0
C1305 C 0.49385 0.02229 0.67128 0.0
C1306 C 0.5153 0.04163 0.68383 0.0
C1307 C 0.51419 0.07379 0.68063 0.0
H1308 H 0.92384 0.44525 0.69514 0.0
H1309 H 0.91629 0.53333 0.65569 0.0
H1310 H 0.97985 0.45081 0.69575 0.0
H1311 H 0.97222 0.53915 0.65723 0.0
H1312 H 0.06441 0.55477 0.70177 0.0
H1313 H 0.00934 0.54679 0.69545 0.0
H1314 H 0.02676 0.45531 0.66509 0.0
H1315 H 0.08212 0.46343 0.67047 0.0
C1316 C 0.93395 0.46556 0.68627 0.0
C1317 C 0.91526 0.48907 0.67573 0.0
C1318 C 0.96611 0.46874 0.6867 0.0
C1319 C 0.98023 0.49557 0.67683 0.0
C1320 C 0.9618 0.51847 0.66537 0.0
C1321 C 0.92972 0.51514 0.66462 0.0
C1322 C 0.05679 0.5331 0.69338 0.0
C1323 C 0.07806 0.5098 0.68666 0.0
C1324 C 0.02513 0.52855 0.6898 0.0
C1325 C 0.0139 0.50049 0.67972 0.0
C1326 C 0.0349 0.47709 0.67307 0.0
C1327 C 0.06665 0.48177 0.67632 0.0
loop_
_geom_bond_atom_site_label_1
_geom_bond_atom_site_label_2
_geom_bond_distance
_geom_bond_site_symmetry_2
_ccdc_geom_bond_type
C0 C1 1.351 . S
C0 N3 1.368 . S
C0 H5 0.931 . S
C1 C0 1.351 . S
C1 N2 1.373 . S
C1 H29 0.930 . S
N2 C1 1.373 . S
N2 C4 1.340 . S
N3 C0 1.368 . S
N3 C4 1.321 . S
N3 Co6 2.135 . S
C4 N2 1.340 . S
C4 N3 1.321 . S
C4 H28 0.930 . S
H5 C0 0.931 . S
Co6 N3 2.135 . S
Co6 N9 2.121 . S
Co6 O14 2.055 . S
Co6 O17 2.039 . S
Co6 N20 2.140 . S
C7 O8 1.227 . S
C7 O17 1.265 . S
O8 C7 1.227 . S
N9 Co6 2.121 . S
N9 C11 1.375 . S
N9 C12 1.313 . S
C10 C11 1.338 . S
C10 N13 1.377 . S
C10 H30 0.930 . S
C11 N9 1.375 . S
C11 C10 1.338 . S
C11 H15 0.931 . S
C12 N9 1.313 . S
C12 N13 1.344 . S
C12 H16 0.930 . S
N13 C10 1.377 . S
N13 C12 1.344 . S
O14 Co6 2.055 . S
O14 C18 1.253 . S
H15 C11 0.931 . S
H16 C12 0.930 . S
O17 Co6 2.039 . S
O17 C7 1.265 . S
C18 O14 1.253 . S
C18 O19 1.227 . S
O19 C18 1.227 . S
N20 Co6 2.140 . S
N20 C23 1.346 . S
N20 C24 1.345 . S
C21 C22 1.387 1_655 S
C21 C25 1.391 . S
C22 C21 1.387 1_455 S
C22 C23 1.369 . S
C22 H31 0.929 . S
C23 N20 1.346 . S
C23 C22 1.369 . S
C23 H26 0.928 . S
C24 N20 1.345 . S
C24 C25 1.371 1_455 S
C24 H27 0.931 . S
C25 C21 1.391 . S
C25 C24 1.371 1_655 S
C25 H32 0.930 . S
H26 C23 0.928 . S
H27 C24 0.931 . S
H28 C4 0.930 . S
H29 C1 0.930 . S
H30 C10 0.930 . S
H31 C22 0.929 . S
H32 C25 0.930 . S
C33 C34 1.351 . S
C33 N36 1.368 . S
C33 H38 0.931 . S
C34 C33 1.351 . S
C34 N35 1.373 . S
C34 H62 0.930 . S
N35 C34 1.373 . S
N35 C37 1.340 . S
N36 C33 1.368 . S
N36 C37 1.321 . S
N36 Co39 2.135 . S
C37 N35 1.340 . S
C37 N36 1.321 . S
C37 H61 0.930 . S
H38 C33 0.931 . S
Co39 N36 2.135 . S
Co39 N42 2.121 . S
Co39 O47 2.055 . S
Co39 O50 2.039 . S
Co39 N53 2.140 . S
C40 O41 1.227 . S
C40 O50 1.265 . S
O41 C40 1.227 . S
N42 Co39 2.121 . S
N42 C44 1.375 . S
N42 C45 1.313 . S
C43 C44 1.338 . S
C43 N46 1.377 . S
C43 H63 0.930 . S
C44 N42 1.375 . S
C44 C43 1.338 . S
C44 H48 0.931 . S
C45 N42 1.313 . S
C45 N46 1.344 . S
C45 H49 0.930 . S
N46 C43 1.377 . S
N46 C45 1.344 . S
O47 Co39 2.055 . S
O47 C51 1.253 . S
H48 C44 0.931 . S
H49 C45 0.930 . S
O50 Co39 2.039 . S
O50 C40 1.265 . S
C51 O47 1.253 . S
C51 O52 1.227 . S
O52 C51 1.227 . S
N53 Co39 2.140 . S
N53 C56 1.346 . S
N53 C57 1.345 . S
C54 C55 1.387 1_565 S
C54 C58 1.391 . S
C55 C54 1.387 1_545 S
C55 C56 1.369 . S
C55 H64 0.929 . S
C56 N53 1.346 . S
C56 C55 1.369 . S
C56 H59 0.928 . S
C57 N53 1.345 . S
C57 C58 1.371 1_545 S
C57 H60 0.931 . S
C58 C54 1.391 . S
C58 C57 1.371 1_565 S
C58 H65 0.930 . S
H59 C56 0.928 . S
H60 C57 0.931 . S
H61 C37 0.930 . S
H62 C34 0.930 . S
H63 C43 0.930 . S
H64 C55 0.929 . S
H65 C58 0.930 . S
C66 C67 1.351 . S
C66 N69 1.368 . S
C66 H71 0.931 . S
C67 C66 1.351 . S
C67 N68 1.373 . S
C67 H95 0.930 . S
N68 C67 1.373 . S
N68 C70 1.340 . S
N69 C66 1.368 . S
N69 C70 1.321 . S
N69 Co72 2.135 . S
C70 N68 1.340 . S
C70 N69 1.321 . S
C70 H94 0.930 . S
H71 C66 0.931 . S
Co72 N69 2.135 . S
Co72 N75 2.121 . S
Co72 O80 2.055 . S
Co72 O83 2.039 . S
Co72 N86 2.140 . S
C73 O74 1.227 . S
C73 O83 1.265 . S
O74 C73 1.227 . S
N75 Co72 2.121 . S
N75 C77 1.375 . S
N75 C78 1.313 . S
C76 C77 1.338 . S
C76 N79 1.377 . S
C76 H96 0.930 . S
C77 N75 1.375 . S
C77 C76 1.338 . S
C77 H81 0.931 . S
C78 N75 1.313 . S
C78 N79 1.344 . S
C78 H82 0.930 . S
N79 C76 1.377 . S
N79 C78 1.344 . S
O80 Co72 2.055 . S
O80 C84 1.253 . S
H81 C77 0.931 . S
H82 C78 0.930 . S
O83 Co72 2.039 . S
O83 C73 1.265 . S
C84 O80 1.253 . S
C84 O85 1.227 . S
O85 C84 1.227 . S
N86 Co72 2.140 . S
N86 C89 1.346 . S
N86 C90 1.345 . S
C87 C88 1.387 1_455 S
C87 C91 1.391 . S
C88 C87 1.387 1_655 S
C88 C89 1.369 . S
C88 H97 0.929 . S
C89 N86 1.346 . S
C89 C88 1.369 . S
C89 H92 0.928 . S
C90 N86 1.345 . S
C90 C91 1.371 1_655 S
C90 H93 0.931 . S
C91 C87 1.391 . S
C91 C90 1.371 1_455 S
C91 H98 0.930 . S
H92 C89 0.928 . S
H93 C90 0.931 . S
H94 C70 0.930 . S
H95 C67 0.930 . S
H96 C76 0.930 . S
H97 C88 0.929 . S
H98 C91 0.930 . S
C99 C100 1.351 . S
C99 N102 1.368 . S
C99 H104 0.931 . S
C100 C99 1.351 . S
C100 N101 1.373 . S
C100 H128 0.930 . S
N101 C100 1.373 . S
N101 C103 1.340 . S
N102 C99 1.368 . S
N102 C103 1.321 . S
N102 Co105 2.135 . S
C103 N101 1.340 . S
C103 N102 1.321 . S
C103 H127 0.930 . S
H104 C99 0.931 . S
Co105 N102 2.135 . S
Co105 N108 2.121 . S
Co105 O113 2.055 . S
Co105 O116 2.039 . S
Co105 N119 2.140 . S
C106 O107 1.227 . S
C106 O116 1.265 . S
O107 C106 1.227 . S
N108 Co105 2.121 . S
N108 C110 1.375 . S
N108 C111 1.313 . S
C109 C110 1.338 . S
C109 N112 1.377 . S
C109 H129 0.930 . S
C110 N108 1.375 . S
C110 C109 1.338 . S
C110 H114 0.931 . S
C111 N108 1.313 . S
C111 N112 1.344 . S
C111 H115 0.930 . S
N112 C109 1.377 . S
N112 C111 1.344 . S
O113 Co105 2.055 . S
O113 C117 1.253 . S
H114 C110 0.931 . S
H115 C111 0.930 . S
O116 Co105 2.039 . S
O116 C106 1.265 . S
C117 O113 1.253 . S
C117 O118 1.227 . S
O118 C117 1.227 . S
N119 Co105 2.140 . S
N119 C122 1.346 . S
N119 C123 1.345 . S
C120 C121 1.387 1_545 S
C120 C124 1.391 . S
C121 C120 1.387 1_565 S
C121 C122 1.369 . S
C121 H130 0.929 . S
C122 N119 1.346 . S
C122 C121 1.369 . S
C122 H125 0.928 . S
C123 N119 1.345 . S
C123 C124 1.371 1_565 S
C123 H126 0.931 . S
C124 C120 1.391 . S
C124 C123 1.371 1_545 S
C124 H131 0.930 . S
H125 C122 0.928 . S
H126 C123 0.931 . S
H127 C103 0.930 . S
H128 C100 0.930 . S
H129 C109 0.930 . S
H130 C121 0.929 . S
H131 C124 0.930 . S
C132 C133 1.351 . S
C132 N135 1.368 . S
C132 H137 0.931 . S
C133 C132 1.351 . S
C133 N134 1.373 . S
C133 H161 0.930 . S
N134 C133 1.373 . S
N134 C136 1.340 . S
N135 C132 1.368 . S
N135 C136 1.321 . S
N135 Co138 2.135 . S
C136 N134 1.340 . S
C136 N135 1.321 . S
C136 H160 0.930 . S
H137 C132 0.931 . S
Co138 N135 2.135 . S
Co138 N141 2.121 . S
Co138 O146 2.055 . S
Co138 O149 2.039 . S
Co138 N152 2.140 . S
C139 O140 1.227 . S
C139 O149 1.265 . S
O140 C139 1.227 . S
N141 Co138 2.121 . S
N141 C143 1.375 . S
N141 C144 1.313 . S
C142 C143 1.338 . S
C142 N145 1.377 . S
C142 H162 0.930 . S
C143 N141 1.375 . S
C143 C142 1.338 . S
C143 H147 0.931 . S
C144 N141 1.313 . S
C144 N145 1.344 . S
C144 H148 0.930 . S
N145 C142 1.377 . S
N145 C144 1.344 . S
O146 Co138 2.055 . S
O146 C150 1.253 . S
H147 C143 0.931 . S
H148 C144 0.930 . S
O149 Co138 2.039 . S
O149 C139 1.265 . S
C150 O146 1.253 . S
C150 O151 1.227 . S
O151 C150 1.227 . S
N152 Co138 2.140 . S
N152 C155 1.346 . S
N152 C156 1.345 . S
C153 C154 1.387 . S
C153 C157 1.391 . S
C154 C153 1.387 . S
C154 C155 1.369 . S
C154 H163 0.929 . S
C155 N152 1.346 . S
C155 C154 1.369 . S
C155 H158 0.928 . S
C156 N152 1.345 . S
C156 C157 1.371 . S
C156 H159 0.931 . S
C157 C153 1.391 . S
C157 C156 1.371 . S
C157 H164 0.930 . S
H158 C155 0.928 . S
H159 C156 0.931 . S
H160 C136 0.930 . S
H161 C133 0.930 . S
H162 C142 0.930 . S
H163 C154 0.929 . S
H164 C157 0.930 . S
C165 C166 1.351 . S
C165 N168 1.368 . S
C165 H170 0.931 . S
C166 C165 1.351 . S
C166 N167 1.373 . S
C166 H194 0.930 . S
N167 C166 1.373 . S
N167 C169 1.340 . S
N168 C165 1.368 . S
N168 C169 1.321 . S
N168 Co171 2.135 . S
C169 N167 1.340 . S
C169 N168 1.321 . S
C169 H193 0.930 . S
H170 C165 0.931 . S
Co171 N168 2.135 . S
Co171 N174 2.121 . S
Co171 O179 2.055 . S
Co171 O182 2.039 . S
Co171 N185 2.140 . S
C172 O173 1.227 . S
C172 O182 1.265 . S
O173 C172 1.227 . S
N174 Co171 2.121 . S
N174 C176 1.375 . S
N174 C177 1.313 . S
C175 C176 1.338 . S
C175 N178 1.377 . S
C175 H195 0.930 . S
C176 N174 1.375 . S
C176 C175 1.338 . S
C176 H180 0.931 . S
C177 N174 1.313 . S
C177 N178 1.344 . S
C177 H181 0.930 . S
N178 C175 1.377 . S
N178 C177 1.344 . S
O179 Co171 2.055 . S
O179 C183 1.253 . S
H180 C176 0.931 . S
H181 C177 0.930 . S
O182 Co171 2.039 . S
O182 C172 1.265 . S
C183 O179 1.253 . S
C183 O184 1.227 . S
O184 C183 1.227 . S
N185 Co171 2.140 . S
N185 C188 1.346 . S
N185 C189 1.345 . S
C186 C187 1.387 . S
C186 C190 1.391 . S
C187 C186 1.387 . S
C187 C188 1.369 . S
C187 H196 0.929 . S
C188 N185 1.346 . S
C188 C187 1.369 . S
C188 H191 0.928 . S
C189 N185 1.345 . S
C189 C190 1.371 . S
C189 H192 0.931 . S
C190 C186 1.391 . S
C190 C189 1.371 . S
C190 H197 0.930 . S
H191 C188 0.928 . S
H192 C189 0.931 . S
H193 C169 0.930 . S
H194 C166 0.930 . S
H195 C175 0.930 . S
H196 C187 0.929 . S
H197 C190 0.930 . S
C198 C199 1.351 . S
C198 N201 1.368 . S
C198 H203 0.931 . S
C199 C198 1.351 . S
C199 N200 1.373 . S
C199 H227 0.930 . S
N200 C199 1.373 . S
N200 C202 1.340 . S
N201 C198 1.368 . S
N201 C202 1.321 . S
N201 Co204 2.135 . S
C202 N200 1.340 . S
C202 N201 1.321 . S
C202 H226 0.930 . S
H203 C198 0.931 . S
Co204 N201 2.135 . S
Co204 N207 2.121 . S
Co204 O212 2.055 . S
Co204 O215 2.039 . S
Co204 N218 2.140 . S
C205 O206 1.227 . S
C205 O215 1.265 . S
O206 C205 1.227 . S
N207 Co204 2.121 . S
N207 C209 1.375 . S
N207 C210 1.313 . S
C208 C209 1.338 . S
C208 N211 1.377 . S
C208 H228 0.930 . S
C209 N207 1.375 . S
C209 C208 1.338 . S
C209 H213 0.931 . S
C210 N207 1.313 . S
C210 N211 1.344 . S
C210 H214 0.930 . S
N211 C208 1.377 . S
N211 C210 1.344 . S
O212 Co204 2.055 . S
O212 C216 1.253 . S
H213 C209 0.931 . S
H214 C210 0.930 . S
O215 Co204 2.039 . S
O215 C205 1.265 . S
C216 O212 1.253 . S
C216 O217 1.227 . S
O217 C216 1.227 . S
N218 Co204 2.140 . S
N218 C221 1.346 . S
N218 C222 1.345 . S
C219 C220 1.387 . S
C219 C223 1.391 . S
C220 C219 1.387 . S
C220 C221 1.369 . S
C220 H229 0.929 . S
C221 N218 1.346 . S
C221 C220 1.369 . S
C221 H224 0.928 . S
C222 N218 1.345 . S
C222 C223 1.371 . S
C222 H225 0.931 . S
C223 C219 1.391 . S
C223 C222 1.371 . S
C223 H230 0.930 . S
H224 C221 0.928 . S
H225 C222 0.931 . S
H226 C202 0.930 . S
H227 C199 0.930 . S
H228 C208 0.930 . S
H229 C220 0.929 . S
H230 C223 0.930 . S
C231 C232 1.351 . S
C231 N234 1.368 . S
C231 H236 0.931 . S
C232 C231 1.351 . S
C232 N233 1.373 . S
C232 H260 0.930 . S
N233 C232 1.373 . S
N233 C235 1.340 . S
N234 C231 1.368 . S
N234 C235 1.321 . S
N234 Co237 2.135 . S
C235 N233 1.340 . S
C235 N234 1.321 . S
C235 H259 0.930 . S
H236 C231 0.931 . S
Co237 N234 2.135 . S
Co237 N240 2.121 . S
Co237 O245 2.055 . S
Co237 O248 2.039 . S
Co237 N251 2.140 . S
C238 O239 1.227 . S
C238 O248 1.265 . S
O239 C238 1.227 . S
N240 Co237 2.121 . S
N240 C242 1.375 . S
N240 C243 1.313 . S
C241 C242 1.338 . S
C241 N244 1.377 . S
C241 H261 0.930 . S
C242 N240 1.375 . S
C242 C241 1.338 . S
C242 H246 0.931 . S
C243 N240 1.313 . S
C243 N244 1.344 . S
C243 H247 0.930 . S
N244 C241 1.377 . S
N244 C243 1.344 . S
O245 Co237 2.055 . S
O245 C249 1.253 . S
H246 C242 0.931 . S
H247 C243 0.930 . S
O248 Co237 2.039 . S
O248 C238 1.265 . S
C249 O245 1.253 . S
C249 O250 1.227 . S
O250 C249 1.227 . S
N251 Co237 2.140 . S
N251 C254 1.346 . S
N251 C255 1.345 . S
C252 C253 1.387 . S
C252 C256 1.391 . S
C253 C252 1.387 . S
C253 C254 1.369 . S
C253 H262 0.929 . S
C254 N251 1.346 . S
C254 C253 1.369 . S
C254 H257 0.928 . S
C255 N251 1.345 . S
C255 C256 1.371 . S
C255 H258 0.931 . S
C256 C252 1.391 . S
C256 C255 1.371 . S
C256 H263 0.930 . S
H257 C254 0.928 . S
H258 C255 0.931 . S
H259 C235 0.930 . S
H260 C232 0.930 . S
H261 C241 0.930 . S
H262 C253 0.929 . S
H263 C256 0.930 . S
C264 C265 1.351 . S
C264 N267 1.368 . S
C264 H269 0.931 . S
C265 C264 1.351 . S
C265 N266 1.373 . S
C265 H293 0.930 . S
N266 C265 1.373 . S
N266 C268 1.340 . S
N267 C264 1.368 . S
N267 C268 1.321 . S
N267 Co270 2.135 . S
C268 N266 1.340 . S
C268 N267 1.321 . S
C268 H292 0.930 . S
H269 C264 0.931 . S
Co270 N267 2.135 . S
Co270 N273 2.121 . S
Co270 O278 2.055 . S
Co270 O281 2.039 . S
Co270 N284 2.140 . S
C271 O272 1.227 . S
C271 O281 1.265 . S
O272 C271 1.227 . S
N273 Co270 2.121 . S
N273 C275 1.375 . S
N273 C276 1.313 . S
C274 C275 1.338 . S
C274 N277 1.377 . S
C274 H294 0.930 . S
C275 N273 1.375 . S
C275 C274 1.338 . S
C275 H279 0.931 . S
C276 N273 1.313 . S
C276 N277 1.344 . S
C276 H280 0.930 . S
N277 C274 1.377 . S
N277 C276 1.344 . S
O278 Co270 2.055 . S
O278 C282 1.253 . S
H279 C275 0.931 . S
H280 C276 0.930 . S
O281 Co270 2.039 . S
O281 C271 1.265 . S
C282 O278 1.253 . S
C282 O283 1.227 . S
O283 C282 1.227 . S
N284 Co270 2.140 . S
N284 C287 1.346 . S
N284 C288 1.345 . S
C285 C286 1.387 1_455 S
C285 C289 1.391 . S
C286 C285 1.387 1_655 S
C286 C287 1.369 . S
C286 H295 0.929 . S
C287 N284 1.346 . S
C287 C286 1.369 . S
C287 H290 0.928 . S
C288 N284 1.345 . S
C288 C289 1.371 1_655 S
C288 H291 0.931 . S
C289 C285 1.391 . S
C289 C288 1.371 1_455 S
C289 H296 0.930 . S
H290 C287 0.928 . S
H291 C288 0.931 . S
H292 C268 0.930 . S
H293 C265 0.930 . S
H294 C274 0.930 . S
H295 C286 0.929 . S
H296 C289 0.930 . S
C297 C298 1.351 . S
C297 N300 1.368 . S
C297 H302 0.931 . S
C298 C297 1.351 . S
C298 N299 1.373 . S
C298 H326 0.930 . S
N299 C298 1.373 . S
N299 C301 1.340 . S
N300 C297 1.368 . S
N300 C301 1.321 . S
N300 Co303 2.135 . S
C301 N299 1.340 . S
C301 N300 1.321 . S
C301 H325 0.930 . S
H302 C297 0.931 . S
Co303 N300 2.135 . S
Co303 N306 2.121 . S
Co303 O311 2.055 . S
Co303 O314 2.039 . S
Co303 N317 2.140 . S
C304 O305 1.227 . S
C304 O314 1.265 . S
O305 C304 1.227 . S
N306 Co303 2.121 . S
N306 C308 1.375 . S
N306 C309 1.313 . S
C307 C308 1.338 . S
C307 N310 1.377 . S
C307 H327 0.930 . S
C308 N306 1.375 . S
C308 C307 1.338 . S
C308 H312 0.931 . S
C309 N306 1.313 . S
C309 N310 1.344 . S
C309 H313 0.930 . S
N310 C307 1.377 . S
N310 C309 1.344 . S
O311 Co303 2.055 . S
O311 C315 1.253 . S
H312 C308 0.931 . S
H313 C309 0.930 . S
O314 Co303 2.039 . S
O314 C304 1.265 . S
C315 O311 1.253 . S
C315 O316 1.227 . S
O316 C315 1.227 . S
N317 Co303 2.140 . S
N317 C320 1.346 . S
N317 C321 1.345 . S
C318 C319 1.387 1_545 S
C318 C322 1.391 . S
C319 C318 1.387 1_565 S
C319 C320 1.369 . S
C319 H328 0.929 . S
C320 N317 1.346 . S
C320 C319 1.369 . S
C320 H323 0.928 . S
C321 N317 1.345 . S
C321 C322 1.371 1_565 S
C321 H324 0.931 . S
C322 C318 1.391 . S
C322 C321 1.371 1_545 S
C322 H329 0.930 . S
H323 C320 0.928 . S
H324 C321 0.931 . S
H325 C301 0.930 . S
H326 C298 0.930 . S
H327 C307 0.930 . S
H328 C319 0.929 . S
H329 C322 0.930 . S
C330 C331 1.351 . S
C330 N333 1.368 . S
C330 H335 0.931 . S
C331 C330 1.351 . S
C331 N332 1.373 . S
C331 H359 0.930 . S
N332 C331 1.373 . S
N332 C334 1.340 . S
N333 C330 1.368 . S
N333 C334 1.321 . S
N333 Co336 2.135 . S
C334 N332 1.340 . S
C334 N333 1.321 . S
C334 H358 0.930 . S
H335 C330 0.931 . S
Co336 N333 2.135 . S
Co336 N339 2.121 . S
Co336 O344 2.055 . S
Co336 O347 2.039 . S
Co336 N350 2.140 . S
C337 O338 1.227 . S
C337 O347 1.265 . S
O338 C337 1.227 . S
N339 Co336 2.121 . S
N339 C341 1.375 . S
N339 C342 1.313 . S
C340 C341 1.338 . S
C340 N343 1.377 . S
C340 H360 0.930 . S
C341 N339 1.375 . S
C341 C340 1.338 . S
C341 H345 0.931 . S
C342 N339 1.313 . S
C342 N343 1.344 . S
C342 H346 0.930 . S
N343 C340 1.377 . S
N343 C342 1.344 . S
O344 Co336 2.055 . S
O344 C348 1.253 . S
H345 C341 0.931 . S
H346 C342 0.930 . S
O347 Co336 2.039 . S
O347 C337 1.265 . S
C348 O344 1.253 . S
C348 O349 1.227 . S
O349 C348 1.227 . S
N350 Co336 2.140 . S
N350 C353 1.346 . S
N350 C354 1.345 . S
C351 C352 1.387 1_655 S
C351 C355 1.391 . S
C352 C351 1.387 1_455 S
C352 C353 1.369 . S
C352 H361 0.929 . S
C353 N350 1.346 . S
C353 C352 1.369 . S
C353 H356 0.928 . S
C354 N350 1.345 . S
C354 C355 1.371 1_455 S
C354 H357 0.931 . S
C355 C351 1.391 . S
C355 C354 1.371 1_655 S
C355 H362 0.930 . S
H356 C353 0.928 . S
H357 C354 0.931 . S
H358 C334 0.930 . S
H359 C331 0.930 . S
H360 C340 0.930 . S
H361 C352 0.929 . S
H362 C355 0.930 . S
C363 C364 1.351 . S
C363 N366 1.368 . S
C363 H368 0.931 . S
C364 C363 1.351 . S
C364 N365 1.373 . S
C364 H392 0.930 . S
N365 C364 1.373 . S
N365 C367 1.340 . S
N366 C363 1.368 . S
N366 C367 1.321 . S
N366 Co369 2.135 . S
C367 N365 1.340 . S
C367 N366 1.321 . S
C367 H391 0.930 . S
H368 C363 0.931 . S
Co369 N366 2.135 . S
Co369 N372 2.121 . S
Co369 O377 2.055 . S
Co369 O380 2.039 . S
Co369 N383 2.140 . S
C370 O371 1.227 . S
C370 O380 1.265 . S
O371 C370 1.227 . S
N372 Co369 2.121 . S
N372 C374 1.375 . S
N372 C375 1.313 . S
C373 C374 1.338 . S
C373 N376 1.377 . S
C373 H393 0.930 . S
C374 N372 1.375 . S
C374 C373 1.338 . S
C374 H378 0.931 . S
C375 N372 1.313 . S
C375 N376 1.344 . S
C375 H379 0.930 . S
N376 C373 1.377 . S
N376 C375 1.344 . S
O377 Co369 2.055 . S
O377 C381 1.253 . S
H378 C374 0.931 . S
H379 C375 0.930 . S
O380 Co369 2.039 . S
O380 C370 1.265 . S
C381 O377 1.253 . S
C381 O382 1.227 . S
O382 C381 1.227 . S
N383 Co369 2.140 . S
N383 C386 1.346 . S
N383 C387 1.345 . S
C384 C385 1.387 1_565 S
C384 C388 1.391 . S
C385 C384 1.387 1_545 S
C385 C386 1.369 . S
C385 H394 0.929 . S
C386 N383 1.346 . S
C386 C385 1.369 . S
C386 H389 0.928 . S
C387 N383 1.345 . S
C387 C388 1.371 1_545 S
C387 H390 0.931 . S
C388 C384 1.391 . S
C388 C387 1.371 1_565 S
C388 H395 0.930 . S
H389 C386 0.928 . S
H390 C387 0.931 . S
H391 C367 0.930 . S
H392 C364 0.930 . S
H393 C373 0.930 . S
H394 C385 0.929 . S
H395 C388 0.930 . S
C396 C397 1.351 . S
C396 N399 1.368 . S
C396 H401 0.931 . S
C397 C396 1.351 . S
C397 N398 1.373 . S
C397 H425 0.930 . S
N398 C397 1.373 . S
N398 C400 1.340 . S
N399 C396 1.368 . S
N399 C400 1.321 . S
N399 Co402 2.135 . S
C400 N398 1.340 . S
C400 N399 1.321 . S
C400 H424 0.930 . S
H401 C396 0.931 . S
Co402 N399 2.135 . S
Co402 N405 2.121 . S
Co402 O410 2.055 . S
Co402 O413 2.039 . S
Co402 N416 2.140 . S
C403 O404 1.227 . S
C403 O413 1.265 . S
O404 C403 1.227 . S
N405 Co402 2.121 . S
N405 C407 1.375 . S
N405 C408 1.313 . S
C406 C407 1.338 . S
C406 N409 1.377 . S
C406 H426 0.930 . S
C407 N405 1.375 . S
C407 C406 1.338 . S
C407 H411 0.931 . S
C408 N405 1.313 . S
C408 N409 1.344 . S
C408 H412 0.930 . S
N409 C406 1.377 . S
N409 C408 1.344 . S
O410 Co402 2.055 . S
O410 C414 1.253 . S
H411 C407 0.931 . S
H412 C408 0.930 . S
O413 Co402 2.039 . S
O413 C403 1.265 . S
C414 O410 1.253 . S
C414 O415 1.227 . S
O415 C414 1.227 . S
N416 Co402 2.140 . S
N416 C419 1.346 . S
N416 C420 1.345 . S
C417 C418 1.387 . S
C417 C421 1.391 . S
C418 C417 1.387 . S
C418 C419 1.369 . S
C418 H427 0.929 . S
C419 N416 1.346 . S
C419 C418 1.369 . S
C419 H422 0.928 . S
C420 N416 1.345 . S
C420 C421 1.371 . S
C420 H423 0.931 . S
C421 C417 1.391 . S
C421 C420 1.371 . S
C421 H428 0.930 . S
H422 C419 0.928 . S
H423 C420 0.931 . S
H424 C400 0.930 . S
H425 C397 0.930 . S
H426 C406 0.930 . S
H427 C418 0.929 . S
H428 C421 0.930 . S
C429 C430 1.351 . S
C429 N432 1.368 . S
C429 H434 0.931 . S
C430 C429 1.351 . S
C430 N431 1.373 . S
C430 H458 0.930 . S
N431 C430 1.373 . S
N431 C433 1.340 . S
N432 C429 1.368 . S
N432 C433 1.321 . S
N432 Co435 2.135 . S
C433 N431 1.340 . S
C433 N432 1.321 . S
C433 H457 0.930 . S
H434 C429 0.931 . S
Co435 N432 2.135 . S
Co435 N438 2.121 . S
Co435 O443 2.055 . S
Co435 O446 2.039 . S
Co435 N449 2.140 . S
C436 O437 1.227 . S
C436 O446 1.265 . S
O437 C436 1.227 . S
N438 Co435 2.121 . S
N438 C440 1.375 . S
N438 C441 1.313 . S
C439 C440 1.338 . S
C439 N442 1.377 . S
C439 H459 0.930 . S
C440 N438 1.375 . S
C440 C439 1.338 . S
C440 H444 0.931 . S
C441 N438 1.313 . S
C441 N442 1.344 . S
C441 H445 0.930 . S
N442 C439 1.377 . S
N442 C441 1.344 . S
O443 Co435 2.055 . S
O443 C447 1.253 . S
H444 C440 0.931 . S
H445 C441 0.930 . S
O446 Co435 2.039 . S
O446 C436 1.265 . S
C447 O443 1.253 . S
C447 O448 1.227 . S
O448 C447 1.227 . S
N449 Co435 2.140 . S
N449 C452 1.346 . S
N449 C453 1.345 . S
C450 C451 1.387 . S
C450 C454 1.391 . S
C451 C450 1.387 . S
C451 C452 1.369 . S
C451 H460 0.929 . S
C452 N449 1.346 . S
C452 C451 1.369 . S
C452 H455 0.928 . S
C453 N449 1.345 . S
C453 C454 1.371 . S
C453 H456 0.931 . S
C454 C450 1.391 . S
C454 C453 1.371 . S
C454 H461 0.930 . S
H455 C452 0.928 . S
H456 C453 0.931 . S
H457 C433 0.930 . S
H458 C430 0.930 . S
H459 C439 0.930 . S
H460 C451 0.929 . S
H461 C454 0.930 . S
C462 C463 1.351 . S
C462 N465 1.368 . S
C462 H467 0.931 . S
C463 C462 1.351 . S
C463 N464 1.373 . S
C463 H491 0.930 . S
N464 C463 1.373 . S
N464 C466 1.340 . S
N465 C462 1.368 . S
N465 C466 1.321 . S
N465 Co468 2.135 . S
C466 N464 1.340 . S
C466 N465 1.321 . S
C466 H490 0.930 . S
H467 C462 0.931 . S
Co468 N465 2.135 . S
Co468 N471 2.121 . S
Co468 O476 2.055 . S
Co468 O479 2.039 . S
Co468 N482 2.140 . S
C469 O470 1.227 . S
C469 O479 1.265 . S
O470 C469 1.227 . S
N471 Co468 2.121 . S
N471 C473 1.375 . S
N471 C474 1.313 . S
C472 C473 1.338 . S
C472 N475 1.377 . S
C472 H492 0.930 . S
C473 N471 1.375 . S
C473 C472 1.338 . S
C473 H477 0.931 . S
C474 N471 1.313 . S
C474 N475 1.344 . S
C474 H478 0.930 . S
N475 C472 1.377 . S
N475 C474 1.344 . S
O476 Co468 2.055 . S
O476 C480 1.253 . S
H477 C473 0.931 . S
H478 C474 0.930 . S
O479 Co468 2.039 . S
O479 C469 1.265 . S
C480 O476 1.253 . S
C480 O481 1.227 . S
O481 C480 1.227 . S
N482 Co468 2.140 . S
N482 C485 1.346 . S
N482 C486 1.345 . S
C483 C484 1.387 . S
C483 C487 1.391 . S
C484 C483 1.387 . S
C484 C485 1.369 . S
C484 H493 0.929 . S
C485 N482 1.346 . S
C485 C484 1.369 . S
C485 H488 0.928 . S
C486 N482 1.345 . S
C486 C487 1.371 . S
C486 H489 0.931 . S
C487 C483 1.391 . S
C487 C486 1.371 . S
C487 H494 0.930 . S
H488 C485 0.928 . S
H489 C486 0.931 . S
H490 C466 0.930 . S
H491 C463 0.930 . S
H492 C472 0.930 . S
H493 C484 0.929 . S
H494 C487 0.930 . S
C495 C496 1.351 . S
C495 N498 1.368 . S
C495 H500 0.931 . S
C496 C495 1.351 . S
C496 N497 1.373 . S
C496 H524 0.930 . S
N497 C496 1.373 . S
N497 C499 1.340 . S
N498 C495 1.368 . S
N498 C499 1.321 . S
N498 Co501 2.135 . S
C499 N497 1.340 . S
C499 N498 1.321 . S
C499 H523 0.930 . S
H500 C495 0.931 . S
Co501 N498 2.135 . S
Co501 N504 2.121 . S
Co501 O509 2.055 . S
Co501 O512 2.039 . S
Co501 N515 2.140 . S
C502 O503 1.227 . S
C502 O512 1.265 . S
O503 C502 1.227 . S
N504 Co501 2.121 . S
N504 C506 1.375 . S
N504 C507 1.313 . S
C505 C506 1.338 . S
C505 N508 1.377 . S
C505 H525 0.930 . S
C506 N504 1.375 . S
C506 C505 1.338 . S
C506 H510 0.931 . S
C507 N504 1.313 . S
C507 N508 1.344 . S
C507 H511 0.930 . S
N508 C505 1.377 . S
N508 C507 1.344 . S
O509 Co501 2.055 . S
O509 C513 1.253 . S
H510 C506 0.931 . S
H511 C507 0.930 . S
O512 Co501 2.039 . S
O512 C502 1.265 . S
C513 O509 1.253 . S
C513 O514 1.227 . S
O514 C513 1.227 . S
N515 Co501 2.140 . S
N515 C518 1.346 . S
N515 C519 1.345 . S
C516 C517 1.387 . S
C516 C520 1.391 . S
C517 C516 1.387 . S
C517 C518 1.369 . S
C517 H526 0.929 . S
C518 N515 1.346 . S
C518 C517 1.369 . S
C518 H521 0.928 . S
C519 N515 1.345 . S
C519 C520 1.371 . S
C519 H522 0.931 . S
C520 C516 1.391 . S
C520 C519 1.371 . S
C520 H527 0.930 . S
H521 C518 0.928 . S
H522 C519 0.931 . S
H523 C499 0.930 . S
H524 C496 0.930 . S
H525 C505 0.930 . S
H526 C517 0.929 . S
H527 C520 0.930 . S
H528 C536 0.950 . S
H529 C541 0.950 . S
H530 C538 0.950 . S
H531 C540 0.950 . S
H532 C542 0.950 . S
H533 C544 0.950 . S
H534 C546 0.950 . S
H535 C547 0.950 . S
C536 H528 0.950 . S
C536 C537 1.386 . S
C536 C538 1.391 . S
C537 C536 1.386 . S
C537 C541 1.393 . S
C538 H530 0.950 . S
C538 C536 1.391 . S
C538 C539 1.400 . S
C539 C538 1.400 . S
C539 C540 1.398 . S
C539 C545 1.491 1_556 S
C540 H531 0.950 . S
C540 C539 1.398 . S
C540 C541 1.391 . S
C541 H529 0.950 . S
C541 C537 1.393 . S
C541 C540 1.391 . S
C542 H532 0.950 . S
C542 C543 1.386 . S
C542 C544 1.391 . S
C543 C542 1.386 . S
C543 C547 1.393 . S
C544 H533 0.950 . S
C544 C542 1.391 . S
C544 C545 1.400 . S
C545 C539 1.491 1_554 S
C545 C544 1.400 . S
C545 C546 1.398 . S
C546 H534 0.950 . S
C546 C545 1.398 . S
C546 C547 1.391 . S
C547 H535 0.950 . S
C547 C543 1.393 . S
C547 C546 1.391 . S
H548 C556 0.950 . S
H549 C561 0.950 . S
H550 C558 0.950 . S
H551 C560 0.950 . S
H552 C562 0.950 . S
H553 C564 0.950 . S
H554 C566 0.950 . S
H555 C567 0.950 . S
C556 H548 0.950 . S
C556 C557 1.386 . S
C556 C558 1.391 . S
C557 C556 1.386 . S
C557 C561 1.393 . S
C558 H550 0.950 . S
C558 C556 1.391 . S
C558 C559 1.400 . S
C559 C558 1.400 . S
C559 C560 1.398 . S
C559 C565 1.491 1_556 S
C560 H551 0.950 . S
C560 C559 1.398 . S
C560 C561 1.391 . S
C561 H549 0.950 . S
C561 C557 1.393 . S
C561 C560 1.391 . S
C562 H552 0.950 . S
C562 C563 1.386 . S
C562 C564 1.391 . S
C563 C562 1.386 . S
C563 C567 1.393 . S
C564 H553 0.950 . S
C564 C562 1.391 . S
C564 C565 1.400 . S
C565 C559 1.491 1_554 S
C565 C564 1.400 . S
C565 C566 1.398 . S
C566 H554 0.950 . S
C566 C565 1.398 . S
C566 C567 1.391 . S
C567 H555 0.950 . S
C567 C563 1.393 . S
C567 C566 1.391 . S
H568 C576 0.950 . S
H569 C581 0.950 . S
H570 C578 0.950 . S
H571 C580 0.950 . S
H572 C582 0.950 . S
H573 C584 0.950 . S
H574 C586 0.950 . S
H575 C587 0.950 . S
C576 H568 0.950 . S
C576 C577 1.386 . S
C576 C578 1.391 . S
C577 C576 1.386 . S
C577 C581 1.393 . S
C578 H570 0.950 . S
C578 C576 1.391 . S
C578 C579 1.400 . S
C579 C578 1.400 . S
C579 C580 1.398 . S
C579 C585 1.491 1_556 S
C580 H571 0.950 . S
C580 C579 1.398 . S
C580 C581 1.391 . S
C581 H569 0.950 . S
C581 C577 1.393 . S
C581 C580 1.391 . S
C582 H572 0.950 . S
C582 C583 1.386 . S
C582 C584 1.391 . S
C583 C582 1.386 . S
C583 C587 1.393 . S
C584 H573 0.950 . S
C584 C582 1.391 . S
C584 C585 1.400 . S
C585 C579 1.491 1_554 S
C585 C584 1.400 . S
C585 C586 1.398 . S
C586 H574 0.950 . S
C586 C585 1.398 . S
C586 C587 1.391 . S
C587 H575 0.950 . S
C587 C583 1.393 . S
C587 C586 1.391 . S
H588 C596 0.950 . S
H589 C601 0.950 . S
H590 C598 0.950 . S
H591 C600 0.950 . S
H592 C602 0.950 . S
H593 C604 0.950 . S
H594 C606 0.950 . S
H595 C607 0.950 . S
C596 H588 0.950 . S
C596 C597 1.386 . S
C596 C598 1.391 . S
C597 C596 1.386 . S
C597 C601 1.393 . S
C598 H590 0.950 . S
C598 C596 1.391 . S
C598 C599 1.400 . S
C599 C598 1.400 . S
C599 C600 1.398 . S
C599 C605 1.491 1_556 S
C600 H591 0.950 . S
C600 C599 1.398 . S
C600 C601 1.391 . S
C601 H589 0.950 . S
C601 C597 1.393 . S
C601 C600 1.391 . S
C602 H592 0.950 . S
C602 C603 1.386 . S
C602 C604 1.391 . S
C603 C602 1.386 . S
C603 C607 1.393 . S
C604 H593 0.950 . S
C604 C602 1.391 . S
C604 C605 1.400 . S
C605 C599 1.491 1_554 S
C605 C604 1.400 . S
C605 C606 1.398 . S
C606 H594 0.950 . S
C606 C605 1.398 . S
C606 C607 1.391 . S
C607 H595 0.950 . S
C607 C603 1.393 . S
C607 C606 1.391 . S
H608 C616 0.950 . S
H609 C621 0.950 . S
H610 C618 0.950 . S
H611 C620 0.950 . S
H612 C622 0.950 . S
H613 C624 0.950 . S
H614 C626 0.950 . S
H615 C627 0.950 . S
C616 H608 0.950 . S
C616 C617 1.386 . S
C616 C618 1.391 . S
C617 C616 1.386 . S
C617 C621 1.393 . S
C618 H610 0.950 . S
C618 C616 1.391 . S
C618 C619 1.400 . S
C619 C618 1.400 . S
C619 C620 1.398 . S
C619 C625 1.491 . S
C620 H611 0.950 . S
C620 C619 1.398 . S
C620 C621 1.391 . S
C621 H609 0.950 . S
C621 C617 1.393 . S
C621 C620 1.391 . S
C622 H612 0.950 . S
C622 C623 1.386 . S
C622 C624 1.391 . S
C623 C622 1.386 . S
C623 C627 1.393 . S
C624 H613 0.950 . S
C624 C622 1.391 . S
C624 C625 1.400 . S
C625 C619 1.491 . S
C625 C624 1.400 . S
C625 C626 1.398 . S
C626 H614 0.950 . S
C626 C625 1.398 . S
C626 C627 1.391 . S
C627 H615 0.950 . S
C627 C623 1.393 . S
C627 C626 1.391 . S
H628 C636 0.950 . S
H629 C641 0.950 . S
H630 C638 0.950 . S
H631 C640 0.950 . S
H632 C642 0.950 . S
H633 C644 0.950 . S
H634 C646 0.950 . S
H635 C647 0.950 . S
C636 H628 0.950 . S
C636 C637 1.386 . S
C636 C638 1.391 . S
C637 C636 1.386 . S
C637 C641 1.393 . S
C638 H630 0.950 . S
C638 C636 1.391 . S
C638 C639 1.400 . S
C639 C638 1.400 . S
C639 C640 1.398 . S
C639 C645 1.491 . S
C640 H631 0.950 . S
C640 C639 1.398 . S
C640 C641 1.391 . S
C641 H629 0.950 . S
C641 C637 1.393 . S
C641 C640 1.391 . S
C642 H632 0.950 . S
C642 C643 1.386 . S
C642 C644 1.391 . S
C643 C642 1.386 . S
C643 C647 1.393 . S
C644 H633 0.950 . S
C644 C642 1.391 . S
C644 C645 1.400 . S
C645 C639 1.491 . S
C645 C644 1.400 . S
C645 C646 1.398 . S
C646 H634 0.950 . S
C646 C645 1.398 . S
C646 C647 1.391 . S
C647 H635 0.950 . S
C647 C643 1.393 . S
C647 C646 1.391 . S
H648 C656 0.950 . S
H649 C661 0.950 . S
H650 C658 0.950 . S
H651 C660 0.950 . S
H652 C662 0.950 . S
H653 C664 0.950 . S
H654 C666 0.950 . S
H655 C667 0.950 . S
C656 H648 0.950 . S
C656 C657 1.386 . S
C656 C658 1.391 . S
C657 C656 1.386 . S
C657 C661 1.393 . S
C658 H650 0.950 . S
C658 C656 1.391 . S
C658 C659 1.400 . S
C659 C658 1.400 . S
C659 C660 1.398 . S
C659 C665 1.491 . S
C660 H651 0.950 . S
C660 C659 1.398 . S
C660 C661 1.391 . S
C661 H649 0.950 . S
C661 C657 1.393 . S
C661 C660 1.391 . S
C662 H652 0.950 . S
C662 C663 1.386 . S
C662 C664 1.391 . S
C663 C662 1.386 . S
C663 C667 1.393 . S
C664 H653 0.950 . S
C664 C662 1.391 . S
C664 C665 1.400 . S
C665 C659 1.491 . S
C665 C664 1.400 . S
C665 C666 1.398 . S
C666 H654 0.950 . S
C666 C665 1.398 . S
C666 C667 1.391 . S
C667 H655 0.950 . S
C667 C663 1.393 . S
C667 C666 1.391 . S
H668 C676 0.950 . S
H669 C681 0.950 . S
H670 C678 0.950 . S
H671 C680 0.950 . S
H672 C682 0.950 . S
H673 C684 0.950 . S
H674 C686 0.950 . S
H675 C687 0.950 . S
C676 H668 0.950 . S
C676 C677 1.386 . S
C676 C678 1.391 . S
C677 C676 1.386 . S
C677 C681 1.393 . S
C678 H670 0.950 . S
C678 C676 1.391 . S
C678 C679 1.400 . S
C679 C678 1.400 . S
C679 C680 1.398 . S
C679 C685 1.491 . S
C680 H671 0.950 . S
C680 C679 1.398 . S
C680 C681 1.391 . S
C681 H669 0.950 . S
C681 C677 1.393 . S
C681 C680 1.391 . S
C682 H672 0.950 . S
C682 C683 1.386 . S
C682 C684 1.391 . S
C683 C682 1.386 . S
C683 C687 1.393 . S
C684 H673 0.950 . S
C684 C682 1.391 . S
C684 C685 1.400 . S
C685 C679 1.491 . S
C685 C684 1.400 . S
C685 C686 1.398 . S
C686 H674 0.950 . S
C686 C685 1.398 . S
C686 C687 1.391 . S
C687 H675 0.950 . S
C687 C683 1.393 . S
C687 C686 1.391 . S
H688 C696 0.950 . S
H689 C701 0.950 . S
H690 C698 0.950 . S
H691 C700 0.950 . S
H692 C702 0.950 . S
H693 C704 0.950 . S
H694 C706 0.950 . S
H695 C707 0.950 . S
C696 H688 0.950 . S
C696 C697 1.386 . S
C696 C698 1.391 . S
C697 C696 1.386 . S
C697 C701 1.393 . S
C698 H690 0.950 . S
C698 C696 1.391 . S
C698 C699 1.400 . S
C699 C698 1.400 . S
C699 C700 1.398 . S
C699 C705 1.491 . S
C700 H691 0.950 . S
C700 C699 1.398 . S
C700 C701 1.391 . S
C701 H689 0.950 . S
C701 C697 1.393 . S
C701 C700 1.391 . S
C702 H692 0.950 . S
C702 C703 1.386 . S
C702 C704 1.391 . S
C703 C702 1.386 . S
C703 C707 1.393 . S
C704 H693 0.950 . S
C704 C702 1.391 . S
C704 C705 1.400 . S
C705 C699 1.491 . S
C705 C704 1.400 . S
C705 C706 1.398 . S
C706 H694 0.950 . S
C706 C705 1.398 . S
C706 C707 1.391 . S
C707 H695 0.950 . S
C707 C703 1.393 . S
C707 C706 1.391 . S
H708 C716 0.950 . S
H709 C721 0.950 . S
H710 C718 0.950 . S
H711 C720 0.950 . S
H712 C722 0.950 . S
H713 C724 0.950 . S
H714 C726 0.950 . S
H715 C727 0.950 . S
C716 H708 0.950 . S
C716 C717 1.386 . S
C716 C718 1.391 . S
C717 C716 1.386 . S
C717 C721 1.393 . S
C718 H710 0.950 . S
C718 C716 1.391 . S
C718 C719 1.400 . S
C719 C718 1.400 . S
C719 C720 1.398 . S
C719 C725 1.491 . S
C720 H711 0.950 . S
C720 C719 1.398 . S
C720 C721 1.391 . S
C721 H709 0.950 . S
C721 C717 1.393 . S
C721 C720 1.391 . S
C722 H712 0.950 . S
C722 C723 1.386 . S
C722 C724 1.391 . S
C723 C722 1.386 . S
C723 C727 1.393 . S
C724 H713 0.950 . S
C724 C722 1.391 . S
C724 C725 1.400 . S
C725 C719 1.491 . S
C725 C724 1.400 . S
C725 C726 1.398 . S
C726 H714 0.950 . S
C726 C725 1.398 . S
C726 C727 1.391 . S
C727 H715 0.950 . S
C727 C723 1.393 . S
C727 C726 1.391 . S
H728 C736 0.950 . S
H729 C741 0.950 . S
H730 C738 0.950 . S
H731 C740 0.950 . S
H732 C742 0.950 . S
H733 C744 0.950 . S
H734 C746 0.950 . S
H735 C747 0.950 . S
C736 H728 0.950 . S
C736 C737 1.386 . S
C736 C738 1.391 . S
C737 C736 1.386 . S
C737 C741 1.393 . S
C738 H730 0.950 . S
C738 C736 1.391 . S
C738 C739 1.400 . S
C739 C738 1.400 . S
C739 C740 1.398 . S
C739 C745 1.491 . S
C740 H731 0.950 . S
C740 C739 1.398 . S
C740 C741 1.391 . S
C741 H729 0.950 . S
C741 C737 1.393 . S
C741 C740 1.391 . S
C742 H732 0.950 . S
C742 C743 1.386 . S
C742 C744 1.391 . S
C743 C742 1.386 . S
C743 C747 1.393 . S
C744 H733 0.950 . S
C744 C742 1.391 . S
C744 C745 1.400 . S
C745 C739 1.491 . S
C745 C744 1.400 . S
C745 C746 1.398 . S
C746 H734 0.950 . S
C746 C745 1.398 . S
C746 C747 1.391 . S
C747 H735 0.950 . S
C747 C743 1.393 . S
C747 C746 1.391 . S
H748 C756 0.950 . S
H749 C761 0.950 . S
H750 C758 0.950 . S
H751 C760 0.950 . S
H752 C762 0.950 . S
H753 C764 0.950 . S
H754 C766 0.950 . S
H755 C767 0.950 . S
C756 H748 0.950 . S
C756 C757 1.386 . S
C756 C758 1.391 . S
C757 C756 1.386 . S
C757 C761 1.393 . S
C758 H750 0.950 . S
C758 C756 1.391 . S
C758 C759 1.400 . S
C759 C758 1.400 . S
C759 C760 1.398 . S
C759 C765 1.491 . S
C760 H751 0.950 . S
C760 C759 1.398 . S
C760 C761 1.391 . S
C761 H749 0.950 . S
C761 C757 1.393 . S
C761 C760 1.391 . S
C762 H752 0.950 . S
C762 C763 1.386 . S
C762 C764 1.391 . S
C763 C762 1.386 . S
C763 C767 1.393 . S
C764 H753 0.950 . S
C764 C762 1.391 . S
C764 C765 1.400 . S
C765 C759 1.491 . S
C765 C764 1.400 . S
C765 C766 1.398 . S
C766 H754 0.950 . S
C766 C765 1.398 . S
C766 C767 1.391 . S
C767 H755 0.950 . S
C767 C763 1.393 . S
C767 C766 1.391 . S
H768 C776 0.950 . S
H769 C781 0.950 . S
H770 C778 0.950 . S
H771 C780 0.950 . S
H772 C782 0.950 . S
H773 C784 0.950 . S
H774 C786 0.950 . S
H775 C787 0.950 . S
C776 H768 0.950 . S
C776 C777 1.386 . S
C776 C778 1.391 . S
C777 C776 1.386 . S
C777 C781 1.393 . S
C778 H770 0.950 . S
C778 C776 1.391 . S
C778 C779 1.400 . S
C779 C778 1.400 . S
C779 C780 1.398 . S
C779 C785 1.491 . S
C780 H771 0.950 . S
C780 C779 1.398 . S
C780 C781 1.391 . S
C781 H769 0.950 . S
C781 C777 1.393 . S
C781 C780 1.391 . S
C782 H772 0.950 . S
C782 C783 1.386 . S
C782 C784 1.391 . S
C783 C782 1.386 . S
C783 C787 1.393 . S
C784 H773 0.950 . S
C784 C782 1.391 . S
C784 C785 1.400 . S
C785 C779 1.491 . S
C785 C784 1.400 . S
C785 C786 1.398 . S
C786 H774 0.950 . S
C786 C785 1.398 . S
C786 C787 1.391 . S
C787 H775 0.950 . S
C787 C783 1.393 . S
C787 C786 1.391 . S
H788 C796 0.950 . S
H789 C801 0.950 . S
H790 C798 0.950 . S
H791 C800 0.950 . S
H792 C802 0.950 . S
H793 C804 0.950 . S
H794 C806 0.950 . S
H795 C807 0.950 . S
C796 H788 0.950 . S
C796 C797 1.386 . S
C796 C798 1.391 . S
C797 C796 1.386 . S
C797 C801 1.393 . S
C798 H790 0.950 . S
C798 C796 1.391 . S
C798 C799 1.400 . S
C799 C798 1.400 . S
C799 C800 1.398 . S
C799 C805 1.491 . S
C800 H791 0.950 . S
C800 C799 1.398 . S
C800 C801 1.391 . S
C801 H789 0.950 . S
C801 C797 1.393 . S
C801 C800 1.391 . S
C802 H792 0.950 . S
C802 C803 1.386 . S
C802 C804 1.391 . S
C803 C802 1.386 . S
C803 C807 1.393 . S
C804 H793 0.950 . S
C804 C802 1.391 . S
C804 C805 1.400 . S
C805 C799 1.491 . S
C805 C804 1.400 . S
C805 C806 1.398 . S
C806 H794 0.950 . S
C806 C805 1.398 . S
C806 C807 1.391 . S
C807 H795 0.950 . S
C807 C803 1.393 . S
C807 C806 1.391 . S
H808 C816 0.950 . S
H809 C821 0.950 . S
H810 C818 0.950 . S
H811 C820 0.950 . S
H812 C822 0.950 . S
H813 C824 0.950 . S
H814 C826 0.950 . S
H815 C827 0.950 . S
C816 H808 0.950 . S
C816 C817 1.386 . S
C816 C818 1.391 . S
C817 C816 1.386 . S
C817 C821 1.393 . S
C818 H810 0.950 . S
C818 C816 1.391 . S
C818 C819 1.400 . S
C819 C818 1.400 . S
C819 C820 1.398 . S
C819 C825 1.491 . S
C820 H811 0.950 . S
C820 C819 1.398 . S
C820 C821 1.391 . S
C821 H809 0.950 . S
C821 C817 1.393 . S
C821 C820 1.391 . S
C822 H812 0.950 . S
C822 C823 1.386 . S
C822 C824 1.391 . S
C823 C822 1.386 . S
C823 C827 1.393 . S
C824 H813 0.950 . S
C824 C822 1.391 . S
C824 C825 1.400 . S
C825 C819 1.491 . S
C825 C824 1.400 . S
C825 C826 1.398 . S
C826 H814 0.950 . S
C826 C825 1.398 . S
C826 C827 1.391 . S
C827 H815 0.950 . S
C827 C823 1.393 . S
C827 C826 1.391 . S
H828 C836 0.950 . S
H829 C841 0.950 . S
H830 C838 0.950 . S
H831 C840 0.950 . S
H832 C842 0.950 . S
H833 C844 0.950 . S
H834 C846 0.950 . S
H835 C847 0.950 . S
C836 H828 0.950 . S
C836 C837 1.386 . S
C836 C838 1.391 . S
C837 C836 1.386 . S
C837 C841 1.393 . S
C838 H830 0.950 . S
C838 C836 1.391 . S
C838 C839 1.400 . S
C839 C838 1.400 . S
C839 C840 1.398 . S
C839 C845 1.491 . S
C840 H831 0.950 . S
C840 C839 1.398 . S
C840 C841 1.391 . S
C841 H829 0.950 . S
C841 C837 1.393 . S
C841 C840 1.391 . S
C842 H832 0.950 . S
C842 C843 1.386 . S
C842 C844 1.391 . S
C843 C842 1.386 . S
C843 C847 1.393 . S
C844 H833 0.950 . S
C844 C842 1.391 . S
C844 C845 1.400 . S
C845 C839 1.491 . S
C845 C844 1.400 . S
C845 C846 1.398 . S
C846 H834 0.950 . S
C846 C845 1.398 . S
C846 C847 1.391 . S
C847 H835 0.950 . S
C847 C843 1.393 . S
C847 C846 1.391 . S
H848 C856 0.950 . S
H849 C861 0.950 . S
H850 C858 0.950 . S
H851 C860 0.950 . S
H852 C862 0.950 . S
H853 C864 0.950 . S
H854 C866 0.950 . S
H855 C867 0.950 . S
C856 H848 0.950 . S
C856 C857 1.386 . S
C856 C858 1.391 . S
C857 C856 1.386 . S
C857 C861 1.393 . S
C858 H850 0.950 . S
C858 C856 1.391 . S
C858 C859 1.400 . S
C859 C858 1.400 . S
C859 C860 1.398 . S
C859 C865 1.491 . S
C860 H851 0.950 . S
C860 C859 1.398 . S
C860 C861 1.391 . S
C861 H849 0.950 . S
C861 C857 1.393 . S
C861 C860 1.391 . S
C862 H852 0.950 . S
C862 C863 1.386 . S
C862 C864 1.391 . S
C863 C862 1.386 . S
C863 C867 1.393 . S
C864 H853 0.950 . S
C864 C862 1.391 . S
C864 C865 1.400 . S
C865 C859 1.491 . S
C865 C864 1.400 . S
C865 C866 1.398 . S
C866 H854 0.950 . S
C866 C865 1.398 . S
C866 C867 1.391 . S
C867 H855 0.950 . S
C867 C863 1.393 . S
C867 C866 1.391 . S
H868 C876 0.950 . S
H869 C881 0.950 . S
H870 C878 0.950 . S
H871 C880 0.950 . S
H872 C882 0.950 . S
H873 C884 0.950 . S
H874 C886 0.950 . S
H875 C887 0.950 . S
C876 H868 0.950 . S
C876 C877 1.386 . S
C876 C878 1.391 . S
C877 C876 1.386 . S
C877 C881 1.393 . S
C878 H870 0.950 . S
C878 C876 1.391 . S
C878 C879 1.400 . S
C879 C878 1.400 . S
C879 C880 1.398 . S
C879 C885 1.491 . S
C880 H871 0.950 . S
C880 C879 1.398 . S
C880 C881 1.391 . S
C881 H869 0.950 . S
C881 C877 1.393 . S
C881 C880 1.391 . S
C882 H872 0.950 . S
C882 C883 1.386 . S
C882 C884 1.391 . S
C883 C882 1.386 . S
C883 C887 1.393 . S
C884 H873 0.950 . S
C884 C882 1.391 . S
C884 C885 1.400 . S
C885 C879 1.491 . S
C885 C884 1.400 . S
C885 C886 1.398 . S
C886 H874 0.950 . S
C886 C885 1.398 . S
C886 C887 1.391 . S
C887 H875 0.950 . S
C887 C883 1.393 . S
C887 C886 1.391 . S
H888 C896 0.950 . S
H889 C901 0.950 . S
H890 C898 0.950 . S
H891 C900 0.950 . S
H892 C902 0.950 . S
H893 C904 0.950 . S
H894 C906 0.950 . S
H895 C907 0.950 . S
C896 H888 0.950 . S
C896 C897 1.386 . S
C896 C898 1.391 . S
C897 C896 1.386 . S
C897 C901 1.393 . S
C898 H890 0.950 . S
C898 C896 1.391 . S
C898 C899 1.400 . S
C899 C898 1.400 . S
C899 C900 1.398 . S
C899 C905 1.491 . S
C900 H891 0.950 . S
C900 C899 1.398 . S
C900 C901 1.391 . S
C901 H889 0.950 . S
C901 C897 1.393 . S
C901 C900 1.391 . S
C902 H892 0.950 . S
C902 C903 1.386 . S
C902 C904 1.391 . S
C903 C902 1.386 . S
C903 C907 1.393 . S
C904 H893 0.950 . S
C904 C902 1.391 . S
C904 C905 1.400 . S
C905 C899 1.491 . S
C905 C904 1.400 . S
C905 C906 1.398 . S
C906 H894 0.950 . S
C906 C905 1.398 . S
C906 C907 1.391 . S
C907 H895 0.950 . S
C907 C903 1.393 . S
C907 C906 1.391 . S
H908 C916 0.950 . S
H909 C921 0.950 . S
H910 C918 0.950 . S
H911 C920 0.950 . S
H912 C922 0.950 . S
H913 C924 0.950 . S
H914 C926 0.950 . S
H915 C927 0.950 . S
C916 H908 0.950 . S
C916 C917 1.386 . S
C916 C918 1.391 . S
C917 C916 1.386 . S
C917 C921 1.393 . S
C918 H910 0.950 . S
C918 C916 1.391 . S
C918 C919 1.400 . S
C919 C918 1.400 . S
C919 C920 1.398 . S
C919 C925 1.491 . S
C920 H911 0.950 . S
C920 C919 1.398 . S
C920 C921 1.391 . S
C921 H909 0.950 . S
C921 C917 1.393 . S
C921 C920 1.391 . S
C922 H912 0.950 . S
C922 C923 1.386 . S
C922 C924 1.391 . S
C923 C922 1.386 . S
C923 C927 1.393 . S
C924 H913 0.950 . S
C924 C922 1.391 . S
C924 C925 1.400 . S
C925 C919 1.491 . S
C925 C924 1.400 . S
C925 C926 1.398 . S
C926 H914 0.950 . S
C926 C925 1.398 . S
C926 C927 1.391 . S
C927 H915 0.950 . S
C927 C923 1.393 . S
C927 C926 1.391 . S
H928 C936 0.950 . S
H929 C941 0.950 . S
H930 C938 0.950 . S
H931 C940 0.950 . S
H932 C942 0.950 . S
H933 C944 0.950 . S
H934 C946 0.950 . S
H935 C947 0.950 . S
C936 H928 0.950 . S
C936 C937 1.386 . S
C936 C938 1.391 . S
C937 C936 1.386 . S
C937 C941 1.393 . S
C938 H930 0.950 . S
C938 C936 1.391 . S
C938 C939 1.400 . S
C939 C938 1.400 . S
C939 C940 1.398 . S
C939 C945 1.491 . S
C940 H931 0.950 . S
C940 C939 1.398 . S
C940 C941 1.391 . S
C941 H929 0.950 . S
C941 C937 1.393 . S
C941 C940 1.391 . S
C942 H932 0.950 . S
C942 C943 1.386 . S
C942 C944 1.391 . S
C943 C942 1.386 . S
C943 C947 1.393 . S
C944 H933 0.950 . S
C944 C942 1.391 . S
C944 C945 1.400 . S
C945 C939 1.491 . S
C945 C944 1.400 . S
C945 C946 1.398 . S
C946 H934 0.950 . S
C946 C945 1.398 . S
C946 C947 1.391 . S
C947 H935 0.950 . S
C947 C943 1.393 . S
C947 C946 1.391 . S
H948 C956 0.950 . S
H949 C961 0.950 . S
H950 C958 0.950 . S
H951 C960 0.950 . S
H952 C962 0.950 . S
H953 C964 0.950 . S
H954 C966 0.950 . S
H955 C967 0.950 . S
C956 H948 0.950 . S
C956 C957 1.386 . S
C956 C958 1.391 . S
C957 C956 1.386 . S
C957 C961 1.393 . S
C958 H950 0.950 . S
C958 C956 1.391 . S
C958 C959 1.400 . S
C959 C958 1.400 . S
C959 C960 1.398 . S
C959 C965 1.491 . S
C960 H951 0.950 . S
C960 C959 1.398 . S
C960 C961 1.391 . S
C961 H949 0.950 . S
C961 C957 1.393 . S
C961 C960 1.391 . S
C962 H952 0.950 . S
C962 C963 1.386 . S
C962 C964 1.391 . S
C963 C962 1.386 . S
C963 C967 1.393 . S
C964 H953 0.950 . S
C964 C962 1.391 . S
C964 C965 1.400 . S
C965 C959 1.491 . S
C965 C964 1.400 . S
C965 C966 1.398 . S
C966 H954 0.950 . S
C966 C965 1.398 . S
C966 C967 1.391 . S
C967 H955 0.950 . S
C967 C963 1.393 . S
C967 C966 1.391 . S
H968 C976 0.950 . S
H969 C981 0.950 . S
H970 C978 0.950 . S
H971 C980 0.950 . S
H972 C982 0.950 . S
H973 C984 0.950 . S
H974 C986 0.950 . S
H975 C987 0.950 . S
C976 H968 0.950 . S
C976 C977 1.386 . S
C976 C978 1.391 . S
C977 C976 1.386 . S
C977 C981 1.393 . S
C978 H970 0.950 . S
C978 C976 1.391 . S
C978 C979 1.400 . S
C979 C978 1.400 . S
C979 C980 1.398 . S
C979 C985 1.491 . S
C980 H971 0.950 . S
C980 C979 1.398 . S
C980 C981 1.391 . S
C981 H969 0.950 . S
C981 C977 1.393 . S
C981 C980 1.391 . S
C982 H972 0.950 . S
C982 C983 1.386 . S
C982 C984 1.391 . S
C983 C982 1.386 . S
C983 C987 1.393 . S
C984 H973 0.950 . S
C984 C982 1.391 . S
C984 C985 1.400 . S
C985 C979 1.491 . S
C985 C984 1.400 . S
C985 C986 1.398 . S
C986 H974 0.950 . S
C986 C985 1.398 . S
C986 C987 1.391 . S
C987 H975 0.950 . S
C987 C983 1.393 . S
C987 C986 1.391 . S
H988 C996 0.950 . S
H989 C1001 0.950 . S
H990 C998 0.950 . S
H991 C1000 0.950 . S
H992 C1002 0.950 . S
H993 C1004 0.950 . S
H994 C1006 0.950 . S
H995 C1007 0.950 . S
C996 H988 0.950 . S
C996 C997 1.386 . S
C996 C998 1.391 . S
C997 C996 1.386 . S
C997 C1001 1.393 . S
C998 H990 0.950 . S
C998 C996 1.391 . S
C998 C999 1.400 . S
C999 C998 1.400 . S
C999 C1000 1.398 . S
C999 C1005 1.491 . S
C1000 H991 0.950 . S
C1000 C999 1.398 . S
C1000 C1001 1.391 . S
C1001 H989 0.950 . S
C1001 C997 1.393 . S
C1001 C1000 1.391 . S
C1002 H992 0.950 . S
C1002 C1003 1.386 . S
C1002 C1004 1.391 . S
C1003 C1002 1.386 . S
C1003 C1007 1.393 . S
C1004 H993 0.950 . S
C1004 C1002 1.391 . S
C1004 C1005 1.400 . S
C1005 C999 1.491 . S
C1005 C1004 1.400 . S
C1005 C1006 1.398 . S
C1006 H994 0.950 . S
C1006 C1005 1.398 . S
C1006 C1007 1.391 . S
C1007 H995 0.950 . S
C1007 C1003 1.393 . S
C1007 C1006 1.391 . S
H1008 C1016 0.950 . S
H1009 C1021 0.950 . S
H1010 C1018 0.950 . S
H1011 C1020 0.950 . S
H1012 C1022 0.950 . S
H1013 C1024 0.950 . S
H1014 C1026 0.950 . S
H1015 C1027 0.950 . S
C1016 H1008 0.950 . S
C1016 C1017 1.386 . S
C1016 C1018 1.391 . S
C1017 C1016 1.386 . S
C1017 C1021 1.393 . S
C1018 H1010 0.950 . S
C1018 C1016 1.391 . S
C1018 C1019 1.400 . S
C1019 C1018 1.400 . S
C1019 C1020 1.398 . S
C1019 C1025 1.491 . S
C1020 H1011 0.950 . S
C1020 C1019 1.398 . S
C1020 C1021 1.391 . S
C1021 H1009 0.950 . S
C1021 C1017 1.393 . S
C1021 C1020 1.391 . S
C1022 H1012 0.950 . S
C1022 C1023 1.386 . S
C1022 C1024 1.391 . S
C1023 C1022 1.386 . S
C1023 C1027 1.393 . S
C1024 H1013 0.950 . S
C1024 C1022 1.391 . S
C1024 C1025 1.400 . S
C1025 C1019 1.491 . S
C1025 C1024 1.400 . S
C1025 C1026 1.398 . S
C1026 H1014 0.950 . S
C1026 C1025 1.398 . S
C1026 C1027 1.391 . S
C1027 H1015 0.950 . S
C1027 C1023 1.393 . S
C1027 C1026 1.391 . S
H1028 C1036 0.950 . S
H1029 C1041 0.950 . S
H1030 C1038 0.950 . S
H1031 C1040 0.950 . S
H1032 C1042 0.950 . S
H1033 C1044 0.950 . S
H1034 C1046 0.950 . S
H1035 C1047 0.950 . S
C1036 H1028 0.950 . S
C1036 C1037 1.386 . S
C1036 C1038 1.391 . S
C1037 C1036 1.386 . S
C1037 C1041 1.393 . S
C1038 H1030 0.950 . S
C1038 C1036 1.391 . S
C1038 C1039 1.400 . S
C1039 C1038 1.400 . S
C1039 C1040 1.398 . S
C1039 C1045 1.491 . S
C1040 H1031 0.950 . S
C1040 C1039 1.398 . S
C1040 C1041 1.391 . S
C1041 H1029 0.950 . S
C1041 C1037 1.393 . S
C1041 C1040 1.391 . S
C1042 H1032 0.950 . S
C1042 C1043 1.386 . S
C1042 C1044 1.391 . S
C1043 C1042 1.386 . S
C1043 C1047 1.393 . S
C1044 H1033 0.950 . S
C1044 C1042 1.391 . S
C1044 C1045 1.400 . S
C1045 C1039 1.491 . S
C1045 C1044 1.400 . S
C1045 C1046 1.398 . S
C1046 H1034 0.950 . S
C1046 C1045 1.398 . S
C1046 C1047 1.391 . S
C1047 H1035 0.950 . S
C1047 C1043 1.393 . S
C1047 C1046 1.391 . S
H1048 C1056 0.950 . S
H1049 C1061 0.950 . S
H1050 C1058 0.950 . S
H1051 C1060 0.950 . S
H1052 C1062 0.950 . S
H1053 C1064 0.950 . S
H1054 C1066 0.950 . S
H1055 C1067 0.950 . S
C1056 H1048 0.950 . S
C1056 C1057 1.386 . S
C1056 C1058 1.391 . S
C1057 C1056 1.386 . S
C1057 C1061 1.393 . S
C1058 H1050 0.950 . S
C1058 C1056 1.391 . S
C1058 C1059 1.400 . S
C1059 C1058 1.400 . S
C1059 C1060 1.398 . S
C1059 C1065 1.491 . S
C1060 H1051 0.950 . S
C1060 C1059 1.398 . S
C1060 C1061 1.391 . S
C1061 H1049 0.950 . S
C1061 C1057 1.393 . S
C1061 C1060 1.391 . S
C1062 H1052 0.950 . S
C1062 C1063 1.386 . S
C1062 C1064 1.391 . S
C1063 C1062 1.386 . S
C1063 C1067 1.393 . S
C1064 H1053 0.950 . S
C1064 C1062 1.391 . S
C1064 C1065 1.400 . S
C1065 C1059 1.491 . S
C1065 C1064 1.400 . S
C1065 C1066 1.398 . S
C1066 H1054 0.950 . S
C1066 C1065 1.398 . S
C1066 C1067 1.391 . S
C1067 H1055 0.950 . S
C1067 C1063 1.393 . S
C1067 C1066 1.391 . S
H1068 C1076 0.950 . S
H1069 C1081 0.950 . S
H1070 C1078 0.950 . S
H1071 C1080 0.950 . S
H1072 C1082 0.950 . S
H1073 C1084 0.950 . S
H1074 C1086 0.950 . S
H1075 C1087 0.950 . S
C1076 H1068 0.950 . S
C1076 C1077 1.386 . S
C1076 C1078 1.391 . S
C1077 C1076 1.386 . S
C1077 C1081 1.393 . S
C1078 H1070 0.950 . S
C1078 C1076 1.391 . S
C1078 C1079 1.400 . S
C1079 C1078 1.400 . S
C1079 C1080 1.398 . S
C1079 C1085 1.491 . S
C1080 H1071 0.950 . S
C1080 C1079 1.398 . S
C1080 C1081 1.391 . S
C1081 H1069 0.950 . S
C1081 C1077 1.393 . S
C1081 C1080 1.391 . S
C1082 H1072 0.950 . S
C1082 C1083 1.386 . S
C1082 C1084 1.391 . S
C1083 C1082 1.386 . S
C1083 C1087 1.393 . S
C1084 H1073 0.950 . S
C1084 C1082 1.391 . S
C1084 C1085 1.400 . S
C1085 C1079 1.491 . S
C1085 C1084 1.400 . S
C1085 C1086 1.398 . S
C1086 H1074 0.950 . S
C1086 C1085 1.398 . S
C1086 C1087 1.391 . S
C1087 H1075 0.950 . S
C1087 C1083 1.393 . S
C1087 C1086 1.391 . S
H1088 C1096 0.950 . S
H1089 C1101 0.950 . S
H1090 C1098 0.950 . S
H1091 C1100 0.950 . S
H1092 C1102 0.950 . S
H1093 C1104 0.950 . S
H1094 C1106 0.950 . S
H1095 C1107 0.950 . S
C1096 H1088 0.950 . S
C1096 C1097 1.386 . S
C1096 C1098 1.391 . S
C1097 C1096 1.386 . S
C1097 C1101 1.393 . S
C1098 H1090 0.950 . S
C1098 C1096 1.391 . S
C1098 C1099 1.400 . S
C1099 C1098 1.400 . S
C1099 C1100 1.398 . S
C1099 C1105 1.491 . S
C1100 H1091 0.950 . S
C1100 C1099 1.398 . S
C1100 C1101 1.391 . S
C1101 H1089 0.950 . S
C1101 C1097 1.393 . S
C1101 C1100 1.391 . S
C1102 H1092 0.950 . S
C1102 C1103 1.386 . S
C1102 C1104 1.391 . S
C1103 C1102 1.386 . S
C1103 C1107 1.393 . S
C1104 H1093 0.950 . S
C1104 C1102 1.391 . S
C1104 C1105 1.400 . S
C1105 C1099 1.491 . S
C1105 C1104 1.400 . S
C1105 C1106 1.398 . S
C1106 H1094 0.950 . S
C1106 C1105 1.398 . S
C1106 C1107 1.391 . S
C1107 H1095 0.950 . S
C1107 C1103 1.393 . S
C1107 C1106 1.391 . S
H1108 C1116 0.950 . S
H1109 C1121 0.950 . S
H1110 C1118 0.950 . S
H1111 C1120 0.950 . S
H1112 C1122 0.950 . S
H1113 C1124 0.950 . S
H1114 C1126 0.950 . S
H1115 C1127 0.950 . S
C1116 H1108 0.950 . S
C1116 C1117 1.386 . S
C1116 C1118 1.391 . S
C1117 C1116 1.386 . S
C1117 C1121 1.393 . S
C1118 H1110 0.950 . S
C1118 C1116 1.391 . S
C1118 C1119 1.400 . S
C1119 C1118 1.400 . S
C1119 C1120 1.398 . S
C1119 C1125 1.491 . S
C1120 H1111 0.950 . S
C1120 C1119 1.398 . S
C1120 C1121 1.391 . S
C1121 H1109 0.950 . S
C1121 C1117 1.393 . S
C1121 C1120 1.391 . S
C1122 H1112 0.950 . S
C1122 C1123 1.386 . S
C1122 C1124 1.391 . S
C1123 C1122 1.386 . S
C1123 C1127 1.393 . S
C1124 H1113 0.950 . S
C1124 C1122 1.391 . S
C1124 C1125 1.400 . S
C1125 C1119 1.491 . S
C1125 C1124 1.400 . S
C1125 C1126 1.398 . S
C1126 H1114 0.950 . S
C1126 C1125 1.398 . S
C1126 C1127 1.391 . S
C1127 H1115 0.950 . S
C1127 C1123 1.393 . S
C1127 C1126 1.391 . S
H1128 C1136 0.950 . S
H1129 C1141 0.950 . S
H1130 C1138 0.950 . S
H1131 C1140 0.950 . S
H1132 C1142 0.950 . S
H1133 C1144 0.950 . S
H1134 C1146 0.950 . S
H1135 C1147 0.950 . S
C1136 H1128 0.950 . S
C1136 C1137 1.386 . S
C1136 C1138 1.391 . S
C1137 C1136 1.386 . S
C1137 C1141 1.393 . S
C1138 H1130 0.950 . S
C1138 C1136 1.391 . S
C1138 C1139 1.400 . S
C1139 C1138 1.400 . S
C1139 C1140 1.398 . S
C1139 C1145 1.491 . S
C1140 H1131 0.950 . S
C1140 C1139 1.398 . S
C1140 C1141 1.391 . S
C1141 H1129 0.950 . S
C1141 C1137 1.393 . S
C1141 C1140 1.391 . S
C1142 H1132 0.950 . S
C1142 C1143 1.386 . S
C1142 C1144 1.391 . S
C1143 C1142 1.386 . S
C1143 C1147 1.393 . S
C1144 H1133 0.950 . S
C1144 C1142 1.391 . S
C1144 C1145 1.400 . S
C1145 C1139 1.491 . S
C1145 C1144 1.400 . S
C1145 C1146 1.398 . S
C1146 H1134 0.950 . S
C1146 C1145 1.398 . S
C1146 C1147 1.391 . S
C1147 H1135 0.950 . S
C1147 C1143 1.393 . S
C1147 C1146 1.391 . S
H1148 C1156 0.950 . S
H1149 C1161 0.950 . S
H1150 C1158 0.950 . S
H1151 C1160 0.950 . S
H1152 C1162 0.950 . S
H1153 C1164 0.950 . S
H1154 C1166 0.950 . S
H1155 C1167 0.950 . S
C1156 H1148 0.950 . S
C1156 C1157 1.386 . S
C1156 C1158 1.391 . S
C1157 C1156 1.386 . S
C1157 C1161 1.393 . S
C1158 H1150 0.950 . S
C1158 C1156 1.391 . S
C1158 C1159 1.400 . S
C1159 C1158 1.400 . S
C1159 C1160 1.398 . S
C1159 C1165 1.491 . S
C1160 H1151 0.950 . S
C1160 C1159 1.398 . S
C1160 C1161 1.391 . S
C1161 H1149 0.950 . S
C1161 C1157 1.393 . S
C1161 C1160 1.391 . S
C1162 H1152 0.950 . S
C1162 C1163 1.386 . S
C1162 C1164 1.391 . S
C1163 C1162 1.386 . S
C1163 C1167 1.393 . S
C1164 H1153 0.950 . S
C1164 C1162 1.391 . S
C1164 C1165 1.400 . S
C1165 C1159 1.491 . S
C1165 C1164 1.400 . S
C1165 C1166 1.398 . S
C1166 H1154 0.950 . S
C1166 C1165 1.398 . S
C1166 C1167 1.391 . S
C1167 H1155 0.950 . S
C1167 C1163 1.393 . S
C1167 C1166 1.391 . S
H1168 C1176 0.950 . S
H1169 C1181 0.950 1_455 S
H1170 C1178 0.950 . S
H1171 C1180 0.950 . S
H1172 C1182 0.950 . S
H1173 C1184 0.950 . S
H1174 C1186 0.950 . S
H1175 C1187 0.950 1_655 S
C1176 H1168 0.950 . S
C1176 C1177 1.386 . S
C1176 C1178 1.391 . S
C1177 C1176 1.386 . S
C1177 C1181 1.393 . S
C1178 H1170 0.950 . S
C1178 C1176 1.391 . S
C1178 C1179 1.400 . S
C1179 C1178 1.400 . S
C1179 C1180 1.398 1_655 S
C1179 C1185 1.491 1_655 S
C1180 H1171 0.950 . S
C1180 C1179 1.398 1_455 S
C1180 C1181 1.391 1_455 S
C1181 H1169 0.950 1_655 S
C1181 C1177 1.393 . S
C1181 C1180 1.391 1_655 S
C1182 H1172 0.950 . S
C1182 C1183 1.386 . S
C1182 C1184 1.391 . S
C1183 C1182 1.386 . S
C1183 C1187 1.393 . S
C1184 H1173 0.950 . S
C1184 C1182 1.391 . S
C1184 C1185 1.400 . S
C1185 C1179 1.491 1_455 S
C1185 C1184 1.400 . S
C1185 C1186 1.398 1_455 S
C1186 H1174 0.950 . S
C1186 C1185 1.398 1_655 S
C1186 C1187 1.391 1_655 S
C1187 H1175 0.950 1_455 S
C1187 C1183 1.393 . S
C1187 C1186 1.391 1_455 S
H1188 C1196 0.948 1_545 S
H1189 C1201 0.950 . S
H1190 C1198 0.950 . S
H1191 C1200 0.950 . S
H1192 C1202 0.948 1_565 S
H1193 C1204 0.950 . S
H1194 C1206 0.950 . S
H1195 C1207 0.950 . S
C1196 H1188 0.948 1_565 S
C1196 C1197 1.386 . S
C1196 C1198 1.391 1_565 S
C1197 C1196 1.386 . S
C1197 C1201 1.393 . S
C1198 H1190 0.950 . S
C1198 C1196 1.391 1_545 S
C1198 C1199 1.400 1_545 S
C1199 C1198 1.400 1_565 S
C1199 C1200 1.398 . S
C1199 C1205 1.491 1_565 S
C1200 H1191 0.950 . S
C1200 C1199 1.398 . S
C1200 C1201 1.391 . S
C1201 H1189 0.950 . S
C1201 C1197 1.393 . S
C1201 C1200 1.391 . S
C1202 H1192 0.948 1_545 S
C1202 C1203 1.386 . S
C1202 C1204 1.391 1_545 S
C1203 C1202 1.386 . S
C1203 C1207 1.393 . S
C1204 H1193 0.950 . S
C1204 C1202 1.391 1_565 S
C1204 C1205 1.400 1_565 S
C1205 C1199 1.491 1_545 S
C1205 C1204 1.400 1_545 S
C1205 C1206 1.398 . S
C1206 H1194 0.950 . S
C1206 C1205 1.398 . S
C1206 C1207 1.391 . S
C1207 H1195 0.950 . S
C1207 C1203 1.393 . S
C1207 C1206 1.391 . S
H1208 C1216 0.950 . S
H1209 C1221 0.950 . S
H1210 C1218 0.950 . S
H1211 C1220 0.950 . S
H1212 C1222 0.950 . S
H1213 C1224 0.950 . S
H1214 C1226 0.950 . S
H1215 C1227 0.950 . S
C1216 H1208 0.950 . S
C1216 C1217 1.386 . S
C1216 C1218 1.391 . S
C1217 C1216 1.386 . S
C1217 C1221 1.393 . S
C1218 H1210 0.950 . S
C1218 C1216 1.391 . S
C1218 C1219 1.400 . S
C1219 C1218 1.400 . S
C1219 C1220 1.398 . S
C1219 C1225 1.491 1_545 S
C1220 H1211 0.950 . S
C1220 C1219 1.398 . S
C1220 C1221 1.391 . S
C1221 H1209 0.950 . S
C1221 C1217 1.393 . S
C1221 C1220 1.391 . S
C1222 H1212 0.950 . S
C1222 C1223 1.386 . S
C1222 C1224 1.391 . S
C1223 C1222 1.386 . S
C1223 C1227 1.393 . S
C1224 H1213 0.950 . S
C1224 C1222 1.391 . S
C1224 C1225 1.400 . S
C1225 C1219 1.491 1_565 S
C1225 C1224 1.400 . S
C1225 C1226 1.398 . S
C1226 H1214 0.950 . S
C1226 C1225 1.398 . S
C1226 C1227 1.391 . S
C1227 H1215 0.950 . S
C1227 C1223 1.393 . S
C1227 C1226 1.391 . S
H1228 C1236 0.950 . S
H1229 C1241 0.950 . S
H1230 C1238 0.950 . S
H1231 C1240 0.950 . S
H1232 C1242 0.950 . S
H1233 C1244 0.950 . S
H1234 C1246 0.950 . S
H1235 C1247 0.950 . S
C1236 H1228 0.950 . S
C1236 C1237 1.386 . S
C1236 C1238 1.391 . S
C1237 C1236 1.386 . S
C1237 C1241 1.393 . S
C1238 H1230 0.950 . S
C1238 C1236 1.391 . S
C1238 C1239 1.400 . S
C1239 C1238 1.400 . S
C1239 C1240 1.398 . S
C1239 C1245 1.491 1_655 S
C1240 H1231 0.950 . S
C1240 C1239 1.398 . S
C1240 C1241 1.391 . S
C1241 H1229 0.950 . S
C1241 C1237 1.393 . S
C1241 C1240 1.391 . S
C1242 H1232 0.950 . S
C1242 C1243 1.386 . S
C1242 C1244 1.391 . S
C1243 C1242 1.386 . S
C1243 C1247 1.393 . S
C1244 H1233 0.950 . S
C1244 C1242 1.391 . S
C1244 C1245 1.400 . S
C1245 C1239 1.491 1_455 S
C1245 C1244 1.400 . S
C1245 C1246 1.398 . S
C1246 H1234 0.950 . S
C1246 C1245 1.398 . S
C1246 C1247 1.391 . S
C1247 H1235 0.950 . S
C1247 C1243 1.393 . S
C1247 C1246 1.391 . S
H1248 C1256 0.950 1_455 S
H1249 C1261 0.950 . S
H1250 C1258 0.950 . S
H1251 C1260 0.950 . S
H1252 C1262 0.950 1_655 S
H1253 C1264 0.950 . S
H1254 C1266 0.950 . S
H1255 C1267 0.950 . S
C1256 H1248 0.950 1_655 S
C1256 C1257 1.386 . S
C1256 C1258 1.391 1_655 S
C1257 C1256 1.386 . S
C1257 C1261 1.393 . S
C1258 H1250 0.950 . S
C1258 C1256 1.391 1_455 S
C1258 C1259 1.400 1_455 S
C1259 C1258 1.400 1_655 S
C1259 C1260 1.398 . S
C1259 C1265 1.491 1_655 S
C1260 H1251 0.950 . S
C1260 C1259 1.398 . S
C1260 C1261 1.391 . S
C1261 H1249 0.950 . S
C1261 C1257 1.393 . S
C1261 C1260 1.391 . S
C1262 H1252 0.950 1_455 S
C1262 C1263 1.386 . S
C1262 C1264 1.391 1_455 S
C1263 C1262 1.386 . S
C1263 C1267 1.393 . S
C1264 H1253 0.950 . S
C1264 C1262 1.391 1_655 S
C1264 C1265 1.400 1_655 S
C1265 C1259 1.491 1_455 S
C1265 C1264 1.400 1_455 S
C1265 C1266 1.398 . S
C1266 H1254 0.950 . S
C1266 C1265 1.398 . S
C1266 C1267 1.391 . S
C1267 H1255 0.950 . S
C1267 C1263 1.393 . S
C1267 C1266 1.391 . S
H1268 C1276 0.950 . S
H1269 C1281 0.950 . S
H1270 C1278 0.950 . S
H1271 C1280 0.950 . S
H1272 C1282 0.950 . S
H1273 C1284 0.950 . S
H1274 C1286 0.950 . S
H1275 C1287 0.950 . S
C1276 H1268 0.950 . S
C1276 C1277 1.386 . S
C1276 C1278 1.391 . S
C1277 C1276 1.386 . S
C1277 C1281 1.393 1_545 S
C1278 H1270 0.950 . S
C1278 C1276 1.391 . S
C1278 C1279 1.400 . S
C1279 C1278 1.400 . S
C1279 C1280 1.398 1_545 S
C1279 C1285 1.491 1_545 S
C1280 H1271 0.950 . S
C1280 C1279 1.398 1_565 S
C1280 C1281 1.391 . S
C1281 H1269 0.950 . S
C1281 C1277 1.393 1_565 S
C1281 C1280 1.391 . S
C1282 H1272 0.950 . S
C1282 C1283 1.386 . S
C1282 C1284 1.391 . S
C1283 C1282 1.386 . S
C1283 C1287 1.393 1_565 S
C1284 H1273 0.950 . S
C1284 C1282 1.391 . S
C1284 C1285 1.400 . S
C1285 C1279 1.491 1_565 S
C1285 C1284 1.400 . S
C1285 C1286 1.398 1_565 S
C1286 H1274 0.950 . S
C1286 C1285 1.398 1_545 S
C1286 C1287 1.391 . S
C1287 H1275 0.950 . S
C1287 C1283 1.393 1_545 S
C1287 C1286 1.391 . S
H1288 C1296 0.950 . S
H1289 C1301 0.950 . S
H1290 C1298 0.950 . S
H1291 C1300 0.950 . S
H1292 C1302 0.950 . S
H1293 C1304 0.950 . S
H1294 C1306 0.950 . S
H1295 C1307 0.950 . S
C1296 H1288 0.950 . S
C1296 C1297 1.386 . S
C1296 C1298 1.391 . S
C1297 C1296 1.386 . S
C1297 C1301 1.393 . S
C1298 H1290 0.950 . S
C1298 C1296 1.391 . S
C1298 C1299 1.400 . S
C1299 C1298 1.400 . S
C1299 C1300 1.398 . S
C1299 C1305 1.491 1_565 S
C1300 H1291 0.950 . S
C1300 C1299 1.398 . S
C1300 C1301 1.391 . S
C1301 H1289 0.950 . S
C1301 C1297 1.393 . S
C1301 C1300 1.391 . S
C1302 H1292 0.950 . S
C1302 C1303 1.386 . S
C1302 C1304 1.391 . S
C1303 C1302 1.386 . S
C1303 C1307 1.393 . S
C1304 H1293 0.950 . S
C1304 C1302 1.391 . S
C1304 C1305 1.400 . S
C1305 C1299 1.491 1_545 S
C1305 C1304 1.400 . S
C1305 C1306 1.398 . S
C1306 H1294 0.950 . S
C1306 C1305 1.398 . S
C1306 C1307 1.391 . S
C1307 H1295 0.950 . S
C1307 C1303 1.393 . S
C1307 C1306 1.391 . S
H1308 C1316 0.950 . S
H1309 C1321 0.950 . S
H1310 C1318 0.950 . S
H1311 C1320 0.950 . S
H1312 C1322 0.950 . S
H1313 C1324 0.950 . S
H1314 C1326 0.950 . S
H1315 C1327 0.950 . S
C1316 H1308 0.950 . S
C1316 C1317 1.386 . S
C1316 C1318 1.391 . S
C1317 C1316 1.386 . S
C1317 C1321 1.393 . S
C1318 H1310 0.950 . S
C1318 C1316 1.391 . S
C1318 C1319 1.400 . S
C1319 C1318 1.400 . S
C1319 C1320 1.398 . S
C1319 C1325 1.491 1_655 S
C1320 H1311 0.950 . S
C1320 C1319 1.398 . S
C1320 C1321 1.391 . S
C1321 H1309 0.950 . S
C1321 C1317 1.393 . S
C1321 C1320 1.391 . S
C1322 H1312 0.950 . S
C1322 C1323 1.386 . S
C1322 C1324 1.391 . S
C1323 C1322 1.386 . S
C1323 C1327 1.393 . S
C1324 H1313 0.950 . S
C1324 C1322 1.391 . S
C1324 C1325 1.400 . S
C1325 C1319 1.491 1_455 S
C1325 C1324 1.400 . S
C1325 C1326 1.398 . S
C1326 H1314 0.950 . S
C1326 C1325 1.398 . S
C1326 C1327 1.391 . S
C1327 H1315 0.950 . S
C1327 C1323 1.393 . S
C1327 C1326 1.391 . S
C537 C337 1.301 . S
C543 C7 1.312 . S
C557 C370 1.303 . S
C563 C40 1.310 . S
C577 C271 1.316 . S
C583 C73 1.297 . S
C597 C304 1.314 . S
C603 C106 1.298 . S
C617 C139 1.303 . S
C623 C469 1.310 . S
C637 C172 1.297 . S
C643 C502 1.316 . S
C657 C403 1.315 . S
C663 C205 1.298 . S
C677 C436 1.309 . S
C683 C238 1.304 . S
C697 C120 1.513 . S
C703 N2 1.452 . S
C717 N35 1.462 . S
C723 C21 1.517 . S
C737 C54 1.513 . S
C743 N68 1.452 . S
C757 N101 1.470 . S
C763 C87 1.519 . S
C777 C186 1.516 . S
C783 N134 1.466 . S
C797 C219 1.509 . S
C803 N167 1.444 . S
C817 C252 1.507 . S
C823 N200 1.442 . S
C837 N233 1.466 . S
C843 C153 1.516 . S
C857 N266 1.461 . S
C863 C384 1.514 . S
C877 N299 1.471 . S
C883 C285 1.519 . S
C897 C318 1.509 . S
C903 N332 1.451 . S
C917 N365 1.442 . S
C923 C351 1.507 . S
C937 N398 1.443 . S
C943 C450 1.507 . S
C957 N431 1.469 . S
C963 C483 1.518 . S
C977 N464 1.457 . S
C983 C516 1.512 . S
C997 C417 1.519 . S
C1003 N497 1.471 . S
C1017 C249 1.047 . S
C1023 C18 1.039 . S
C1037 C51 1.033 . S
C1043 C150 1.031 . S
C1057 C183 1.045 . S
C1063 C84 1.037 . S
C1077 C216 1.045 . S
C1083 C117 1.049 . S
C1097 C282 1.037 . S
C1103 C513 1.031 . S
C1117 C414 1.049 . S
C1123 C315 1.049 . S
C1137 C348 1.038 . S
C1143 C447 1.032 . S
C1157 C480 1.031 . S
C1163 C381 1.037 . S
C1177 N79 1.538 . S
C1183 N13 1.552 . S
C1197 N112 1.549 . S
C1203 N46 1.541 . S
C1217 N145 1.538 . S
C1223 N211 1.552 . S
C1237 N178 1.551 . S
C1243 N244 1.539 . S
C1257 N277 1.539 . S
C1263 N343 1.551 . S
C1277 N376 1.554 . S
C1283 N310 1.538 . S
C1297 N409 1.543 . S
C1303 N475 1.546 . S
C1317 N508 1.539 . S
C1323 N442 1.551 . S
