# Generated by pormake.
# Topology qtz-x, (6)-cn, num edge types: 1
# Building blocks:
#     Node 0, Type 0, BuildingBlock: KUMBUR_clean_sbu_0, # of connection points: 6
#     Node 1, Type 0, BuildingBlock: KUMBUR_clean_sbu_0, # of connection points: 6
#     Node 2, Type 0, BuildingBlock: KUMBUR_clean_sbu_0, # of connection points: 6
#     Edge 3, Type (0, 0), BuildingBlock: ZUJKAS_clean_linker_0, # of connection points: 2
#     Edge 4, Type (0, 0), BuildingBlock: ZUJKAS_clean_linker_0, # of connection points: 2
#     Edge 5, Type (0, 0), BuildingBlock: ZUJKAS_clean_linker_0, # of connection points: 2
#     Edge 6, Type (0, 0), BuildingBlock: ZUJKAS_clean_linker_0, # of connection points: 2
#     Edge 7, Type (0, 0), BuildingBlock: ZUJKAS_clean_linker_0, # of connection points: 2
#     Edge 8, Type (0, 0), BuildingBlock: ZUJKAS_clean_linker_0, # of connection points: 2
#     Edge 9, Type (0, 0), BuildingBlock: ZUJKAS_clean_linker_0, # of connection points: 2
#     Edge 10, Type (0, 0), BuildingBlock: ZUJKAS_clean_linker_0, # of connection points: 2
#     Edge 11, Type (0, 0), BuildingBlock: ZUJKAS_clean_linker_0, # of connection points: 2
# Relax obj value: 0.167
# Max RMSD: 0.276
# Mean RMSD: 0.276
data_MOF--net-qtz-x--node1-KUMBUR_clean_sbu_0--edge1-ZUJKAS_clean_linker_0
_symmetry_space_group_name_H-M    P1
_symmetry_Int_Tables_number       1
_symmetry_cell_setting            triclinic
loop_
_symmetry_equiv_pos_as_xyz
'x, y, z'
_cell_length_a     19.382388
_cell_length_b     19.456096
_cell_length_c     62.273212
_cell_angle_alpha  89.869811
_cell_angle_beta   90.205884
_cell_angle_gamma 120.07543
loop_
_atom_site_label
_atom_site_type_symbol
_atom_site_fract_x
_atom_site_fract_y
_atom_site_fract_z
_atom_type_partial_charge
Tb0 Tb 0.2456 0.50644 0.19051 0.0
C1 C 0.9022 0.44149 0.1802 0.0
C2 C 0.82496 0.33697 0.20568 0.0
C3 C 0.78203 0.43054 0.1956 0.0
C4 C 0.89155 0.37709 0.19207 0.0
C5 C 0.84678 0.4681 0.18142 0.0
C6 C 0.77122 0.36512 0.20774 0.0
C7 C 0.91987 0.56238 0.15331 0.0
N8 N 0.96534 0.47593 0.16669 0.0
C9 C 0.97314 0.53368 0.15266 0.0
C10 C 0.85696 0.53016 0.16795 0.0
Tb11 Tb 0.04893 0.42454 0.16665 0.0
N12 N 0.94411 0.35114 0.18934 0.0
C13 C 0.92973 0.2813 0.19856 0.0
C14 C 0.81305 0.26839 0.21625 0.0
C15 C 0.86506 0.23981 0.21242 0.0
H16 H 0.0216 0.55923 0.14131 0.0
H17 H 0.85548 0.18584 0.22014 0.0
H18 H 0.72003 0.33548 0.21825 0.0
H19 H 0.92745 0.60938 0.14254 0.0
H20 H 0.96922 0.25826 0.19588 0.0
H21 H 0.43039 0.74249 0.13513 0.0
H22 H 0.76281 0.23596 0.22691 0.0
H23 H 0.28157 0.37878 0.21654 0.0
H24 H 0.32035 0.67096 0.16043 0.0
H25 H 0.37737 0.33083 0.21477 0.0
H26 H 0.73907 0.45045 0.19692 0.0
H27 H 0.52417 0.69421 0.12773 0.0
H28 H 0.57052 0.59734 0.13631 0.0
H29 H 0.81566 0.55233 0.16838 0.0
H30 H 0.55656 0.48539 0.15818 0.0
N31 N 0.34875 0.5804 0.16724 0.0
C32 C 0.36045 0.64877 0.15763 0.0
C33 C 0.47567 0.66226 0.13894 0.0
C34 C 0.46657 0.5953 0.14982 0.0
C35 C 0.42303 0.68979 0.14312 0.0
C36 C 0.40206 0.55568 0.16412 0.0
H37 H 0.48536 0.38636 0.18777 0.0
N38 N 0.33318 0.45959 0.1904 0.0
C39 C 0.38259 0.37627 0.20374 0.0
C40 C 0.39414 0.49303 0.17623 0.0
C41 C 0.3284 0.4038 0.20471 0.0
C42 C 0.44332 0.40758 0.18845 0.0
C43 C 0.45044 0.46762 0.17465 0.0
O44 O 0.27409 0.51756 0.22346 0.0
O45 O 0.11888 0.45307 0.19562 0.0
O46 O 0.07255 0.53157 0.1837 0.0
O47 O 0.21158 0.59718 0.18416 0.0
O48 O 0.17947 0.41789 0.2153 0.0
O49 O 0.31362 0.62106 0.20354 0.0
O50 O 0.0234 0.41591 0.13362 0.0
O51 O 0.17508 0.47523 0.16169 0.0
O52 O 0.22042 0.39635 0.17488 0.0
O53 O 0.08112 0.33204 0.17237 0.0
O54 O 0.11726 0.5114 0.1415 0.0
O55 O 0.9731 0.31122 0.15355 0.0
C56 C 0.1104 0.40912 0.21146 0.0
C57 C 0.3949 0.63054 0.23316 0.0
C58 C 0.47457 0.68203 0.26588 0.0
C59 C 0.40038 0.64707 0.25526 0.0
C60 C 0.54315 0.69954 0.25402 0.0
C61 C 0.46394 0.64823 0.22165 0.0
C62 C 0.53764 0.68251 0.23208 0.0
C63 C 0.143 0.59665 0.18567 0.0
C64 C 0.31653 0.5945 0.22255 0.0
C65 C 0.51303 0.50446 0.1598 0.0
C66 C 0.52099 0.56818 0.14736 0.0
C67 C 0.18522 0.51744 0.14536 0.0
C68 C 0.89579 0.31378 0.12396 0.0
C69 C 0.89478 0.32991 0.10197 0.0
C70 C 0.8226 0.30803 0.09125 0.0
C71 C 0.75093 0.26854 0.10287 0.0
C72 C 0.82362 0.27499 0.1353 0.0
C73 C 0.75166 0.25229 0.12473 0.0
C74 C 0.14967 0.33192 0.17216 0.0
C75 C 0.97318 0.3401 0.13461 0.0
H76 H 0.34698 0.63385 0.26408 0.0
H77 H 0.60098 0.72563 0.26175 0.0
H78 H 0.46098 0.63585 0.20464 0.0
H79 H 0.59075 0.69597 0.22313 0.0
H80 H 0.95053 0.35959 0.09321 0.0
H81 H 0.69443 0.25167 0.09519 0.0
H82 H 0.82272 0.26253 0.15229 0.0
H83 H 0.69621 0.22256 0.13356 0.0
Tb84 Tb 0.59806 0.91099 0.52309 0.0
C85 C 0.88146 0.25117 0.51462 0.0
C86 C 0.853 0.32876 0.53953 0.0
C87 C 0.99049 0.36867 0.53119 0.0
C88 C 0.82703 0.26278 0.52578 0.0
C89 C 0.96388 0.30474 0.5168 0.0
C90 C 0.93507 0.38062 0.54256 0.0
C91 C 0.98675 0.23143 0.48921 0.0
N92 N 0.8532 0.18886 0.5009 0.0
C93 C 0.90438 0.18006 0.4876 0.0
C94 C 0.01675 0.2935 0.50407 0.0
Tb95 Tb 0.71753 0.10686 0.49968 0.0
N96 N 0.74845 0.21172 0.52222 0.0
C97 C 0.69263 0.22722 0.53069 0.0
C98 C 0.79576 0.34197 0.54925 0.0
C99 C 0.71526 0.29157 0.54456 0.0
H100 H 0.88213 0.13212 0.47613 0.0
H101 H 0.67049 0.30209 0.55166 0.0
H102 H 0.95622 0.43119 0.55323 0.0
H103 H 0.02703 0.22297 0.47903 0.0
H104 H 0.63015 0.18885 0.52739 0.0
H105 H 0.64533 0.71835 0.47007 0.0
H106 H 0.81316 0.39199 0.55991 0.0
H107 H 0.4335 0.88241 0.5475 0.0
H108 H 0.68557 0.8305 0.49472 0.0
H109 H 0.28882 0.79103 0.54476 0.0
H110 H 0.0536 0.41015 0.53325 0.0
H111 H 0.50259 0.62793 0.46202 0.0
H112 H 0.35949 0.58749 0.46911 0.0
H113 H 0.08055 0.33329 0.50526 0.0
H114 H 0.26211 0.60698 0.48959 0.0
N115 N 0.56711 0.80666 0.50029 0.0
C116 C 0.62305 0.79197 0.4915 0.0
C117 C 0.51996 0.67756 0.47281 0.0
C118 C 0.46267 0.68998 0.48281 0.0
C119 C 0.6005 0.72823 0.47741 0.0
C120 C 0.48856 0.75548 0.49674 0.0
H121 H 0.23522 0.6821 0.51811 0.0
N122 N 0.46245 0.82772 0.52216 0.0
C123 C 0.32902 0.78354 0.53429 0.0
C124 C 0.43413 0.76624 0.50816 0.0
C125 C 0.41135 0.83529 0.5358 0.0
C126 C 0.29897 0.72228 0.51919 0.0
C127 C 0.35178 0.71221 0.50611 0.0
O128 O 0.58034 0.88559 0.55613 0.0
O129 O 0.67271 0.03699 0.52841 0.0
O130 O 0.79808 0.08099 0.51778 0.0
O131 O 0.72323 0.94244 0.51789 0.0
O132 O 0.57498 0.97812 0.54739 0.0
O133 O 0.63798 0.83786 0.53669 0.0
O134 O 0.73959 0.13507 0.46687 0.0
O135 O 0.64232 0.98119 0.49441 0.0
O136 O 0.51638 0.937 0.50564 0.0
O137 O 0.59213 0.07575 0.5044 0.0
O138 O 0.73862 0.03909 0.47503 0.0
O139 O 0.67744 0.17945 0.48586 0.0
C140 C 0.63652 0.04638 0.54386 0.0
C141 C 0.56398 0.76277 0.56684 0.0
C142 C 0.53129 0.68754 0.6004 0.0
C143 C 0.57646 0.75881 0.58893 0.0
C144 C 0.4732 0.62016 0.58932 0.0
C145 C 0.50591 0.69497 0.55609 0.0
C146 C 0.4608 0.62404 0.56732 0.0
C147 C 0.79181 0.01033 0.51979 0.0
C148 C 0.61033 0.83907 0.55564 0.0
C149 C 0.32518 0.64882 0.49155 0.0
C150 C 0.38061 0.63774 0.4799 0.0
C151 C 0.67669 0.97119 0.47862 0.0
C152 C 0.7579 0.2597 0.45699 0.0
C153 C 0.77064 0.26278 0.43472 0.0
C154 C 0.81699 0.3359 0.42418 0.0
C155 C 0.84998 0.40631 0.4363 0.0
C156 C 0.79208 0.33059 0.46884 0.0
C157 C 0.83763 0.40345 0.45848 0.0
C158 C 0.52319 0.00777 0.50316 0.0
C159 C 0.70956 0.18165 0.46732 0.0
H160 H 0.62057 0.81176 0.59723 0.0
H161 H 0.43812 0.5641 0.59757 0.0
H162 H 0.49535 0.69684 0.53909 0.0
H163 H 0.41613 0.5718 0.55895 0.0
H164 H 0.74403 0.20797 0.42559 0.0
H165 H 0.88671 0.46347 0.42873 0.0
H166 H 0.78375 0.32979 0.48605 0.0
H167 H 0.86394 0.45795 0.46768 0.0
Tb168 Tb 0.6766 0.57566 0.85589 0.0
C169 C 0.72016 0.28689 0.84887 0.0
C170 C 0.82515 0.31294 0.87424 0.0
C171 C 0.72379 0.17676 0.86626 0.0
C172 C 0.78718 0.34014 0.86003 0.0
C173 C 0.68836 0.20446 0.85147 0.0
C174 C 0.79208 0.23097 0.87766 0.0
C175 C 0.59296 0.18347 0.82356 0.0
N176 N 0.68788 0.3162 0.8348 0.0
C177 C 0.62667 0.26579 0.82159 0.0
C178 C 0.62322 0.15258 0.83878 0.0
Tb179 Tb 0.74645 0.45188 0.8329 0.0
N180 N 0.81759 0.41862 0.85605 0.0
C181 C 0.88986 0.47286 0.86454 0.0
C182 C 0.89644 0.36878 0.88405 0.0
C183 C 0.92949 0.44904 0.87894 0.0
H184 H 0.60227 0.28852 0.80982 0.0
H185 H 0.98553 0.49266 0.88606 0.0
H186 H 0.81995 0.2089 0.88866 0.0
H187 H 0.54359 0.14394 0.81337 0.0
H188 H 0.91644 0.53508 0.8608 0.0
H189 H 0.41638 0.50679 0.80661 0.0
H190 H 0.92746 0.3504 0.89509 0.0
H191 H 0.82097 0.75089 0.87451 0.0
H192 H 0.49321 0.47592 0.83156 0.0
H193 H 0.87141 0.89224 0.86715 0.0
H194 H 0.69991 0.11365 0.86864 0.0
H195 H 0.46828 0.64423 0.7939 0.0
H196 H 0.57338 0.78744 0.79601 0.0
H197 H 0.597 0.08882 0.84027 0.0
H198 H 0.69661 0.89239 0.81256 0.0
N199 N 0.59209 0.59447 0.83351 0.0
C200 C 0.51826 0.53646 0.82673 0.0
C201 C 0.50309 0.63121 0.80512 0.0
C202 C 0.57592 0.69142 0.81304 0.0
C203 C 0.47357 0.55369 0.8123 0.0
C204 C 0.61925 0.67124 0.82754 0.0
H205 H 0.80691 0.93211 0.83936 0.0
N206 N 0.7277 0.70959 0.85116 0.0
C207 C 0.82021 0.84743 0.85842 0.0
C208 C 0.68909 0.73056 0.83667 0.0
C209 C 0.79076 0.76694 0.8627 0.0
C210 C 0.78386 0.86965 0.84267 0.0
C211 C 0.71682 0.81114 0.83179 0.0
O212 O 0.61586 0.51537 0.88415 0.0
O213 O 0.73013 0.50359 0.86172 0.0
O214 O 0.64071 0.37656 0.85181 0.0
O215 O 0.57755 0.45222 0.8514 0.0
O216 O 0.77873 0.6093 0.87715 0.0
O217 O 0.63755 0.63203 0.87766 0.0
O218 O 0.74928 0.42814 0.80008 0.0
O219 O 0.69843 0.52952 0.82711 0.0
O220 O 0.7871 0.65266 0.83854 0.0
O221 O 0.84672 0.57456 0.83568 0.0
O222 O 0.6547 0.4302 0.80884 0.0
O223 O 0.85695 0.4818 0.81905 0.0
C224 C 0.78109 0.54471 0.87576 0.0
C225 C 0.64211 0.59934 0.91411 0.0
C226 C 0.61764 0.58796 0.95283 0.0
C227 C 0.5891 0.56786 0.93156 0.0
C228 C 0.69963 0.63826 0.95643 0.0
C229 C 0.72308 0.65304 0.91825 0.0
C230 C 0.75176 0.67095 0.93921 0.0
C231 C 0.57643 0.38351 0.85369 0.0
C232 C 0.61285 0.57568 0.89181 0.0
C233 C 0.67568 0.83092 0.81669 0.0
C234 C 0.6055 0.77117 0.80729 0.0
C235 C 0.65098 0.49342 0.81195 0.0
C236 C 0.84751 0.39757 0.79015 0.0
C237 C 0.83823 0.38661 0.76781 0.0
C238 C 0.85725 0.33431 0.75728 0.0
C239 C 0.88672 0.29366 0.76953 0.0
C240 C 0.87632 0.3559 0.8021 0.0
C241 C 0.89608 0.30448 0.79176 0.0
C242 C 0.84949 0.64396 0.83488 0.0
C243 C 0.82489 0.45142 0.8005 0.0
H244 H 0.52608 0.52819 0.92863 0.0
H245 H 0.72302 0.65493 0.97258 0.0
H246 H 0.76463 0.68227 0.90543 0.0
H247 H 0.81449 0.71156 0.94213 0.0
H248 H 0.81618 0.4191 0.75863 0.0
H249 H 0.9009 0.25213 0.762 0.0
H250 H 0.88333 0.3628 0.81935 0.0
H251 H 0.91808 0.27232 0.80104 0.0
H252 H 0.01923 0.62201 0.19419 0.0
H253 H 0.02016 0.74777 0.19156 0.0
H254 H 0.27329 0.8707 0.17962 0.0
H255 H 0.27272 0.74524 0.18149 0.0
H256 H 0.10866 0.89267 0.2141 0.0
H257 H 0.18006 0.92531 0.127 0.0
H258 H 0.14622 0.83304 0.14127 0.0
H259 H 0.2481 0.91157 0.14364 0.0
C260 C 0.07504 0.6757 0.19088 0.0
C261 C 0.14537 0.6733 0.1873 0.0
C262 C 0.0755 0.74745 0.18955 0.0
C263 C 0.1464 0.81773 0.18482 0.0
C264 C 0.21766 0.81644 0.1827 0.0
H265 H 0.27347 0.30543 0.16504 0.0
H266 H 0.2708 0.17886 0.16778 0.0
C267 C 0.2172 0.74472 0.1839 0.0
C268 C 0.14552 0.89221 0.18157 0.0
H269 H 0.18027 0.03415 0.14413 0.0
C270 C 0.12395 0.92358 0.19881 0.0
C271 C 0.16535 0.93177 0.16153 0.0
C272 C 0.18557 0.8985 0.14222 0.0
C273 C 0.12331 -0.0051 0.19667 0.0
C274 C 0.14352 0.03462 0.17667 0.0
C275 C 0.16486 0.00315 0.1594 0.0
C276 C 0.14379 0.10966 0.17348 0.0
C277 C 0.10266 0.02808 0.21592 0.0
C278 C 0.07275 0.11165 0.17505 0.0
C279 C 0.0741 0.1838 0.1737 0.0
C280 C 0.14665 0.25494 0.17077 0.0
C281 C 0.21701 0.25193 0.16792 0.0
C282 C 0.21558 0.17974 0.16933 0.0
H283 H 0.10618 5e-05 0.23114 0.0
H284 H 0.14313 0.0933 0.21712 0.0
H285 H 0.0408 0.01666 0.21414 0.0
H286 H 0.01654 0.05758 0.17776 0.0
H287 H 0.01865 0.18383 0.17563 0.0
H288 H 0.37413 0.88635 0.49328 0.0
H289 H 0.249 0.88763 0.49566 0.0
H290 H 0.37931 0.13731 0.51109 0.0
H291 H 0.5045 0.13673 0.5088 0.0
H292 H 0.19817 0.92824 0.53334 0.0
H293 H 0.22101 0.12266 0.46506 0.0
H294 H 0.28219 0.07707 0.46714 0.0
H295 H 0.30645 0.16446 0.48251 0.0
C296 C 0.37624 0.94169 0.49703 0.0
C297 C 0.44911 0.01109 0.50129 0.0
C298 C 0.30477 0.94232 0.49829 0.0
C299 C 0.30521 0.01258 0.50349 0.0
C300 C 0.37796 0.08276 0.50677 0.0
H301 H 0.94 0.13137 0.53062 0.0
H302 H 0.06563 0.13089 0.52851 0.0
C303 C 0.44946 0.08218 0.50553 0.0
C304 C 0.22947 0.01119 0.50716 0.0
H305 H 0.1177 0.09157 0.4903 0.0
C306 C 0.18017 0.96351 0.52386 0.0
C307 C 0.20691 0.05782 0.49484 0.0
C308 C 0.25649 0.1079 0.47626 0.0
C309 C 0.10896 0.96198 0.52878 0.0
C310 C 0.08641 0.00856 0.51645 0.0
C311 C 0.13574 0.05635 0.49978 0.0
C312 C 0.01035 0.0066 0.52 0.0
C313 C 0.05915 0.91167 0.5473 0.0
C314 C 0.93799 0.93651 0.51624 0.0
C315 C 0.86625 0.9367 0.51727 0.0
C316 C 0.86599 0.00729 0.52182 0.0
C317 C 0.93841 0.07648 0.5266 0.0
C318 C 0.01015 0.07629 0.52551 0.0
H319 H 0.09433 0.89633 0.55844 0.0
H320 H 0.03378 0.94265 0.55649 0.0
H321 H 0.00892 0.85545 0.54097 0.0
H322 H 0.93721 0.88241 0.5117 0.0
H323 H 0.81156 0.88229 0.51361 0.0
H324 H -0.00339 0.66429 0.8441 0.0
H325 H 0.12151 0.79068 0.84747 0.0
H326 H 0.00381 0.91536 0.82473 0.0
H327 H 0.87881 0.78924 0.8212 0.0
H328 H 0.21255 0.9171 0.81817 0.0
H329 H 0.08785 0.0098 0.88498 0.0
H330 H 0.04018 0.90896 0.87518 0.0
H331 H 0.03059 0.98349 0.86057 0.0
C332 C -0.0024 0.7184 0.83944 0.0
C333 C 0.92754 0.71717 0.8329 0.0
C334 C 0.06891 0.79055 0.84146 0.0
C335 C 0.07107 0.86224 0.83691 0.0
C336 C 0.00268 0.86068 0.82885 0.0
H337 H 0.42484 0.35827 0.84709 0.0
H338 H 0.30231 0.23044 0.84428 0.0
C339 C 0.93146 0.78867 0.82683 0.0
C340 C 0.14391 0.93877 0.84145 0.0
H341 H 0.21623 0.10535 0.87247 0.0
C342 C 0.21365 0.95822 0.83009 0.0
C343 C 0.14476 0.99191 0.85706 0.0
C344 C 0.0721 0.97243 0.87031 0.0
C345 C 0.28412 0.03062 0.83356 0.0
C346 C 0.28499 0.08391 0.84915 0.0
C347 C 0.21527 0.06421 0.86058 0.0
C348 C 0.35728 0.16144 0.85331 0.0
C349 C 0.35636 0.05029 0.82009 0.0
C350 C 0.42777 0.1652 0.86043 0.0
C351 C 0.49812 0.2383 0.86189 0.0
C352 C 0.49929 0.30892 0.8562 0.0
C353 C 0.42699 0.30532 0.85093 0.0
C354 C 0.35661 0.23211 0.84939 0.0
H355 H 0.34022 0.0129 0.80543 0.0
H356 H 0.38789 0.11372 0.81519 0.0
H357 H 0.39832 0.03938 0.82967 0.0
H358 H 0.42892 0.11143 0.86424 0.0
H359 H 0.55216 0.23906 0.86679 0.0
H360 H 0.48678 0.60377 0.95823 0.0
H361 H 0.41355 0.58675 0.9917 0.0
H362 H 0.55264 0.49834 0.02297 0.0
H363 H 0.62716 0.51717 0.98969 0.0
H364 H 0.32291 0.4644 0.01843 0.0
H365 H 0.59782 0.68406 0.06096 0.0
H366 H 0.59469 0.66923 0.03231 0.0
H367 H 0.60402 0.60176 0.05029 0.0
C368 C 0.50047 0.57917 0.97214 0.0
C369 C 0.56297 0.5624 0.97148 0.0
C370 C 0.45902 0.56994 0.99129 0.0
C371 C 0.47923 0.54352 1.01003 0.0
C372 C 0.53777 0.52129 1.00893 0.0
H373 H 0.26416 0.43592 0.13685 0.0
H374 H 0.34006 0.44551 0.10461 0.0
C375 C 0.57976 0.53132 0.98988 0.0
C376 C 0.44095 0.54188 0.03082 0.0
H377 H 0.48078 0.61512 0.08209 0.0
C378 C 0.35748 0.49745 0.03231 0.0
C379 C 0.48609 0.58571 0.04893 0.0
C380 C 0.57552 0.63852 0.04805 0.0
C381 C 0.31815 0.49488 0.05145 0.0
C382 C 0.36339 0.53768 0.06952 0.0
C383 C 0.44662 0.58206 0.06815 0.0
C384 C 0.32447 0.53757 0.08989 0.0
C385 C 0.22839 0.44647 0.05238 0.0
C386 C 0.29236 0.58752 0.09242 0.0
C387 C 0.24991 0.58294 0.11098 0.0
C388 C 0.23932 0.52868 0.12733 0.0
C389 C 0.2729 0.47972 0.12488 0.0
C390 C 0.31582 0.48469 0.10637 0.0
H391 H 0.20208 0.4121 0.0374 0.0
H392 H 0.2096 0.40464 0.06616 0.0
H393 H 0.2039 0.48656 0.05499 0.0
H394 H 0.29849 0.62861 0.0798 0.0
H395 H 0.22378 0.62062 0.11237 0.0
H396 H 0.81459 0.43775 0.39401 0.0
H397 H 0.84729 0.44547 0.35574 0.0
H398 H 0.88758 0.24799 0.36311 0.0
H399 H 0.85611 0.24049 0.40136 0.0
H400 H 0.01498 0.39025 0.34321 0.0
H401 H 0.71936 0.2902 0.30513 0.0
H402 H 0.75045 0.36451 0.32581 0.0
H403 H 0.72958 0.26628 0.33259 0.0
C404 C 0.83017 0.39582 0.38745 0.0
C405 C 0.83273 0.33848 0.40073 0.0
C406 C 0.84799 0.39979 0.36555 0.0
C407 C 0.86884 0.34665 0.35656 0.0
C408 C 0.87082 0.28901 0.36971 0.0
H409 H 0.06635 0.2895 0.2395 0.0
H410 H -0.00256 0.27111 0.27369 0.0
C411 C 0.85255 0.28465 0.39154 0.0
C412 C 0.89471 0.35475 0.33386 0.0
H413 H 0.82976 0.33303 0.28184 0.0
C414 C 0.97449 0.37772 0.3298 0.0
C415 C 0.84186 0.33917 0.31643 0.0
C416 C 0.7553 0.31315 0.32006 0.0
C417 C 0.00296 0.38531 0.30877 0.0
C418 C 0.94973 0.36758 0.29129 0.0
C419 C 0.87019 0.3461 0.29529 0.0
C420 C 0.97641 0.36927 0.26892 0.0
C421 C 0.09015 0.41286 0.30542 0.0
C422 C 0.98316 0.42766 0.25438 0.0
C423 C 0.02198 0.43778 0.23468 0.0
C424 C 0.05379 0.38912 0.22932 0.0
C425 C 0.04214 0.32757 0.2433 0.0
C426 C 0.00309 0.31721 0.26282 0.0
H427 H 0.12641 0.44332 0.31986 0.0
H428 H 0.09708 0.36065 0.30207 0.0
H429 H 0.11433 0.45403 0.29152 0.0
H430 H 0.96272 0.46828 0.2588 0.0
H431 H 0.03117 0.48637 0.22433 0.0
H432 H 0.52968 0.41952 0.78392 0.0
H433 H 0.5107 0.47201 0.74998 0.0
H434 H 0.71348 0.70124 0.76449 0.0
H435 H 0.73326 0.64872 0.79843 0.0
H436 H 0.5409 0.67352 0.7426 0.0
H437 H 0.71507 0.55079 0.7039 0.0
H438 H 0.64334 0.49206 0.72419 0.0
H439 H 0.73084 0.58308 0.73156 0.0
C440 C 0.56897 0.48161 0.78008 0.0
C441 C 0.6322 0.53036 0.79387 0.0
C442 C 0.55802 0.51146 0.76077 0.0
C443 C 0.61064 0.59033 0.75483 0.0
C444 C 0.67195 0.64033 0.76894 0.0
H445 H 0.67419 0.75212 0.62175 0.0
H446 H 0.69696 0.74017 0.65991 0.0
C447 C 0.683 0.61039 0.78833 0.0
C448 C 0.60663 0.61683 0.73283 0.0
H449 H 0.65272 0.59997 0.68101 0.0
C450 C 0.56584 0.65826 0.7291 0.0
C451 C 0.63989 0.5972 0.71539 0.0
C452 C 0.68518 0.55363 0.71879 0.0
C453 C 0.55565 0.6788 0.70812 0.0
C454 C 0.58615 0.65623 0.69054 0.0
C455 C 0.62915 0.61704 0.69446 0.0
C456 C 0.57183 0.66964 0.66787 0.0
C457 C 0.51247 0.72451 0.70495 0.0
C458 C 0.49391 0.63389 0.65964 0.0
C459 C 0.48068 0.64073 0.63784 0.0
C460 C 0.54517 0.68319 0.62378 0.0
C461 C 0.62315 0.71983 0.63216 0.0
C462 C 0.6363 0.71281 0.65395 0.0
H463 H 0.51362 0.75676 0.71977 0.0
H464 H 0.53911 0.76792 0.6916 0.0
H465 H 0.44921 0.68239 0.70087 0.0
H466 H 0.44328 0.59892 0.66997 0.0
H467 H 0.41988 0.61242 0.63198 0.0
H468 H 0.89456 0.62584 0.90558 0.0
H469 H 0.90796 0.57932 0.9411 0.0
H470 H 0.71269 0.34536 0.92645 0.0
H471 H 0.69909 0.39168 0.89099 0.0
H472 H 0.78616 0.52012 0.97145 0.0
H473 H 0.87763 0.29748 0.95341 0.0
H474 H 0.88931 0.37285 0.93441 0.0
H475 H 0.79317 0.28647 0.93846 0.0
C476 C 0.85586 0.564 0.90978 0.0
C477 C 0.79668 0.51211 0.89543 0.0
C478 C 0.86337 0.53757 0.93006 0.0
C479 C 0.81191 0.45868 0.93634 0.0
C480 C 0.75417 0.40602 0.92178 0.0
H481 H 0.71997 0.21485 0.05947 0.0
H482 H 0.71732 0.25058 0.02181 0.0
C483 C 0.74648 0.43254 0.90149 0.0
C484 C 0.81397 0.43395 0.95878 0.0
H485 H 0.84265 0.30459 0.98952 0.0
C486 C 0.79903 0.47334 0.97541 0.0
C487 C 0.82997 0.37239 0.96387 0.0
C488 C 0.84908 0.33008 0.94665 0.0
C489 C 0.79925 0.45261 0.997 0.0
C490 C 0.81582 0.39147 1.00213 0.0
C491 C 0.83004 0.35148 0.98551 0.0
C492 C 0.81919 0.36894 0.02473 0.0
C493 C 0.7804 0.49536 0.01415 0.0
C494 C 0.87806 0.42325 0.03874 0.0
C495 C 0.87961 0.40317 0.06024 0.0
C496 C 0.82234 0.32821 0.06817 0.0
C497 C 0.76425 0.27341 0.05396 0.0
C498 C 0.76297 0.29349 0.03241 0.0
H499 H 0.75232 0.52834 1.00736 0.0
H500 H 0.73989 0.45285 0.0264 0.0
H501 H 0.83641 0.53877 0.02234 0.0
H502 H 0.92258 0.48147 0.03307 0.0
H503 H 0.92476 0.44702 0.07077 0.0
H504 H 0.37777 0.58917 0.29854 0.0
H505 H 0.39027 0.62054 0.33703 0.0
H506 H 0.59833 0.84796 0.32435 0.0
H507 H 0.58578 0.81761 0.28597 0.0
H508 H 0.52628 0.6605 0.36435 0.0
H509 H 0.45194 0.90086 0.36083 0.0
H510 H 0.42708 0.82947 0.33946 0.0
H511 H 0.52669 0.9125 0.34187 0.0
C512 C 0.42567 0.64619 0.30395 0.0
C513 C 0.48081 0.70095 0.2892 0.0
C514 C 0.43292 0.66381 0.32593 0.0
C515 C 0.4947 0.73688 0.33349 0.0
C516 C 0.5496 0.79164 0.31881 0.0
H517 H 0.74757 0.92598 0.44925 0.0
H518 H 0.69044 0.85375 0.41577 0.0
C519 C 0.54277 0.7739 0.29691 0.0
C520 C 0.50389 0.75565 0.35677 0.0
H521 H 0.51659 0.89347 0.39282 0.0
C522 C 0.52306 0.71071 0.37067 0.0
C523 C 0.49844 0.82037 0.36505 0.0
C524 C 0.47416 0.86822 0.35109 0.0
C525 C 0.54129 0.73164 0.3924 0.0
C526 C 0.54088 0.7995 0.40033 0.0
C527 C 0.51737 0.84169 0.3867 0.0
C528 C 0.57145 0.83223 0.42203 0.0
C529 C 0.56209 0.68177 0.40662 0.0
C530 C 0.52353 0.84395 0.43675 0.0
C531 C 0.55623 0.88535 0.45591 0.0
C532 C 0.6374 0.91572 0.4606 0.0
C533 C 0.68458 0.90208 0.44612 0.0
C534 C 0.65188 0.86046 0.42707 0.0
H535 H 0.53673 0.62043 0.40028 0.0
H536 H 0.62787 0.7089 0.40732 0.0
H537 H 0.54001 0.67873 0.42322 0.0
H538 H 0.46153 0.82341 0.43307 0.0
H539 H 0.51888 0.89657 0.46648 0.0
H540 H 0.73005 0.31657 0.73359 0.0
H541 H 0.7043 0.28616 0.69534 0.0
H542 H 0.92634 0.2873 0.68938 0.0
H543 H 0.95367 0.31956 0.72764 0.0
H544 H 0.88778 0.36737 0.65429 0.0
H545 H 0.64534 0.06069 0.67273 0.0
H546 H 0.63812 0.13859 0.68611 0.0
H547 H 0.71949 0.12246 0.69231 0.0
C548 C 0.77416 0.31171 0.72412 0.0
C549 C 0.84377 0.32008 0.73374 0.0
C550 C 0.75906 0.29384 0.70227 0.0
C551 C 0.81309 0.28381 0.6896 0.0
C552 C 0.88385 0.29465 0.69892 0.0
H553 H 0.79224 0.12178 0.55786 0.0
H554 H 0.84202 0.1911 0.59216 0.0
C555 C 0.89896 0.31235 0.72081 0.0
C556 C 0.79317 0.25738 0.66697 0.0
H557 H 0.66104 0.1007 0.63646 0.0
C558 C 0.83842 0.30905 0.65031 0.0
C559 C 0.72901 0.18115 0.6619 0.0
C560 C 0.68044 0.12206 0.67916 0.0
C561 C 0.81952 0.28704 0.62861 0.0
C562 C 0.7546 0.21105 0.62359 0.0
C563 C 0.71036 0.15924 0.64032 0.0
C564 C 0.7303 0.18289 0.60119 0.0
C565 C 0.86753 0.34583 0.61128 0.0
C566 C 0.65149 0.15628 0.59469 0.0
C567 C 0.62296 0.11619 0.57526 0.0
C568 C 0.67288 0.10275 0.5618 0.0
C569 C 0.753 0.13291 0.5677 0.0
C570 C 0.7815 0.17266 0.58731 0.0
H571 H 0.90224 0.40732 0.61764 0.0
H572 H 0.91015 0.32967 0.60435 0.0
H573 H 0.82814 0.34471 0.59814 0.0
H574 H 0.61087 0.16331 0.60514 0.0
H575 H 0.5608 0.09285 0.5711 0.0
loop_
_geom_bond_atom_site_label_1
_geom_bond_atom_site_label_2
_geom_bond_distance
_geom_bond_site_symmetry_2
_ccdc_geom_bond_type
Tb0 N31 2.660 . S
Tb0 N38 2.600 . S
Tb0 O44 2.546 . S
Tb0 O45 2.610 1_455 S
Tb0 O47 2.320 . S
Tb0 O48 2.552 . S
Tb0 O49 2.413 . S
Tb0 O51 2.362 . S
Tb0 O52 2.421 . S
Tb0 C64 2.833 . S
C1 C4 1.432 . S
C1 C5 1.414 . S
C1 N8 1.359 . S
C2 C4 1.417 . S
C2 C6 1.432 . S
C2 C14 1.410 . S
C3 C5 1.444 . S
C3 C6 1.317 . S
C3 H26 0.929 . S
C4 C1 1.432 . S
C4 C2 1.417 . S
C4 N12 1.360 . S
C5 C1 1.414 . S
C5 C3 1.444 . S
C5 C10 1.385 . S
C6 C2 1.432 . S
C6 C3 1.317 . S
C6 H18 0.930 . S
C7 C9 1.392 . S
C7 C10 1.370 . S
C7 H19 0.931 . S
N8 C1 1.359 . S
N8 C9 1.327 . S
N8 Tb11 2.600 . S
C9 C7 1.392 . S
C9 N8 1.327 . S
C9 H16 0.930 . S
C10 C5 1.385 . S
C10 C7 1.370 . S
C10 H29 0.930 . S
Tb11 N8 2.600 . S
Tb11 N12 2.660 . S
Tb11 O45 2.362 . S
Tb11 O46 2.421 . S
Tb11 O50 2.546 . S
Tb11 O51 2.610 1_655 S
Tb11 O53 2.320 . S
Tb11 O54 2.552 . S
Tb11 O55 2.413 . S
Tb11 C75 2.833 . S
N12 C4 1.360 . S
N12 Tb11 2.660 . S
N12 C13 1.305 . S
C13 N12 1.305 . S
C13 C15 1.407 . S
C13 H20 0.930 . S
C14 C2 1.410 . S
C14 C15 1.345 . S
C14 H22 0.930 . S
C15 C13 1.407 . S
C15 C14 1.345 . S
C15 H17 0.930 . S
H16 C9 0.930 . S
H17 C15 0.930 . S
H18 C6 0.930 . S
H19 C7 0.931 . S
H20 C13 0.930 . S
H21 C35 0.930 . S
H22 C14 0.930 . S
H23 C41 0.930 . S
H24 C32 0.930 . S
H25 C39 0.931 . S
H26 C3 0.929 . S
H27 C33 0.930 . S
H28 C66 0.930 . S
H29 C10 0.930 . S
H30 C65 0.929 . S
N31 Tb0 2.660 . S
N31 C32 1.305 . S
N31 C36 1.360 . S
C32 H24 0.930 . S
C32 N31 1.305 . S
C32 C35 1.407 . S
C33 H27 0.930 . S
C33 C34 1.410 . S
C33 C35 1.345 . S
C34 C33 1.410 . S
C34 C36 1.417 . S
C34 C66 1.432 . S
C35 H21 0.930 . S
C35 C32 1.407 . S
C35 C33 1.345 . S
C36 N31 1.360 . S
C36 C34 1.417 . S
C36 C40 1.432 . S
H37 C42 0.930 . S
N38 Tb0 2.600 . S
N38 C40 1.359 . S
N38 C41 1.327 . S
C39 H25 0.931 . S
C39 C41 1.392 . S
C39 C42 1.370 . S
C40 C36 1.432 . S
C40 N38 1.359 . S
C40 C43 1.414 . S
C41 H23 0.930 . S
C41 N38 1.327 . S
C41 C39 1.392 . S
C42 H37 0.930 . S
C42 C39 1.370 . S
C42 C43 1.385 . S
C43 C40 1.414 . S
C43 C42 1.385 . S
C43 C65 1.444 . S
O44 Tb0 2.546 . S
O44 C64 1.251 . S
O45 Tb0 2.610 1_655 S
O45 Tb11 2.362 . S
O45 C56 1.283 . S
O46 Tb11 2.421 . S
O46 C63 1.262 1_655 S
O47 Tb0 2.320 . S
O47 C63 1.260 . S
O48 Tb0 2.552 . S
O48 C56 1.243 1_455 S
O49 Tb0 2.413 . S
O49 C64 1.256 . S
O50 Tb11 2.546 . S
O50 C75 1.251 . S
O51 Tb0 2.362 . S
O51 Tb11 2.610 1_455 S
O51 C67 1.283 . S
O52 Tb0 2.421 . S
O52 C74 1.262 1_455 S
O53 Tb11 2.320 . S
O53 C74 1.260 . S
O54 Tb11 2.552 . S
O54 C67 1.243 1_655 S
O55 Tb11 2.413 . S
O55 C75 1.256 . S
C56 O45 1.283 . S
C56 O48 1.243 1_655 S
C57 C59 1.382 . S
C57 C61 1.393 . S
C57 C64 1.500 . S
C58 C59 1.400 . S
C58 C60 1.384 . S
C59 C57 1.382 . S
C59 C58 1.400 . S
C59 H76 0.930 . S
C60 C58 1.384 . S
C60 C62 1.392 . S
C60 H77 0.931 . S
C61 C57 1.393 . S
C61 C62 1.401 . S
C61 H78 0.930 . S
C62 C60 1.392 . S
C62 C61 1.401 . S
C62 H79 0.930 . S
C63 O46 1.262 1_455 S
C63 O47 1.260 . S
C64 Tb0 2.833 . S
C64 O44 1.251 . S
C64 O49 1.256 . S
C64 C57 1.500 . S
C65 H30 0.929 . S
C65 C43 1.444 . S
C65 C66 1.317 . S
C66 H28 0.930 . S
C66 C34 1.432 . S
C66 C65 1.317 . S
C67 O51 1.283 . S
C67 O54 1.243 1_455 S
C68 C69 1.382 . S
C68 C72 1.393 . S
C68 C75 1.500 . S
C69 C68 1.382 . S
C69 C70 1.400 . S
C69 H80 0.930 . S
C70 C69 1.400 . S
C70 C71 1.384 . S
C71 C70 1.384 . S
C71 C73 1.392 . S
C71 H81 0.931 . S
C72 C68 1.393 . S
C72 C73 1.401 . S
C72 H82 0.930 . S
C73 C71 1.392 . S
C73 C72 1.401 . S
C73 H83 0.930 . S
C74 O52 1.262 1_655 S
C74 O53 1.260 . S
C75 Tb11 2.833 . S
C75 O50 1.251 . S
C75 O55 1.256 . S
C75 C68 1.500 . S
H76 C59 0.930 . S
H77 C60 0.931 . S
H78 C61 0.930 . S
H79 C62 0.930 . S
H80 C69 0.930 . S
H81 C71 0.931 . S
H82 C72 0.930 . S
H83 C73 0.930 . S
Tb84 N115 2.660 1_545 S
Tb84 N122 2.600 1_545 S
Tb84 O128 2.546 . S
Tb84 O129 2.610 . S
Tb84 O131 2.320 . S
Tb84 O132 2.552 . S
Tb84 O133 2.413 . S
Tb84 O135 2.362 . S
Tb84 O136 2.421 . S
Tb84 C148 2.833 1_545 S
C85 C88 1.432 . S
C85 C89 1.414 1_655 S
C85 N92 1.359 . S
C86 C88 1.417 . S
C86 C90 1.432 1_655 S
C86 C98 1.410 . S
C87 C89 1.444 . S
C87 C90 1.317 . S
C87 H110 0.929 . S
C88 C85 1.432 . S
C88 C86 1.417 . S
C88 N96 1.360 . S
C89 C85 1.414 1_455 S
C89 C87 1.444 . S
C89 C94 1.385 . S
C90 C86 1.432 1_455 S
C90 C87 1.317 . S
C90 H102 0.930 . S
C91 C93 1.392 . S
C91 C94 1.370 . S
C91 H103 0.931 . S
N92 C85 1.359 . S
N92 C93 1.327 1_655 S
N92 Tb95 2.600 . S
C93 C91 1.392 . S
C93 N92 1.327 1_455 S
C93 H100 0.930 . S
C94 C89 1.385 . S
C94 C91 1.370 . S
C94 H113 0.930 . S
Tb95 N92 2.600 . S
Tb95 N96 2.660 . S
Tb95 O129 2.362 . S
Tb95 O130 2.421 . S
Tb95 O134 2.546 . S
Tb95 O135 2.610 . S
Tb95 O137 2.320 . S
Tb95 O138 2.552 . S
Tb95 O139 2.413 . S
Tb95 C159 2.833 . S
N96 C88 1.360 . S
N96 Tb95 2.660 . S
N96 C97 1.305 . S
C97 N96 1.305 . S
C97 C99 1.407 . S
C97 H104 0.930 . S
C98 C86 1.410 . S
C98 C99 1.345 . S
C98 H106 0.930 . S
C99 C97 1.407 . S
C99 C98 1.345 . S
C99 H101 0.930 . S
H100 C93 0.930 . S
H101 C99 0.930 . S
H102 C90 0.930 . S
H103 C91 0.931 . S
H104 C97 0.930 . S
H105 C119 0.930 . S
H106 C98 0.930 . S
H107 C125 0.930 1_545 S
H108 C116 0.930 1_545 S
H109 C123 0.931 . S
H110 C87 0.929 . S
H111 C117 0.930 . S
H112 C150 0.930 . S
H113 C94 0.930 . S
H114 C149 0.929 . S
N115 Tb84 2.660 1_565 S
N115 C116 1.305 . S
N115 C120 1.360 . S
C116 H108 0.930 1_565 S
C116 N115 1.305 . S
C116 C119 1.407 . S
C117 H111 0.930 . S
C117 C118 1.410 . S
C117 C119 1.345 . S
C118 C117 1.410 . S
C118 C120 1.417 . S
C118 C150 1.432 . S
C119 H105 0.930 . S
C119 C116 1.407 . S
C119 C117 1.345 . S
C120 N115 1.360 . S
C120 C118 1.417 . S
C120 C124 1.432 . S
H121 C126 0.930 . S
N122 Tb84 2.600 1_565 S
N122 C124 1.359 . S
N122 C125 1.327 . S
C123 H109 0.931 . S
C123 C125 1.392 . S
C123 C126 1.370 . S
C124 C120 1.432 . S
C124 N122 1.359 . S
C124 C127 1.414 . S
C125 H107 0.930 1_565 S
C125 N122 1.327 . S
C125 C123 1.392 . S
C126 H121 0.930 . S
C126 C123 1.370 . S
C126 C127 1.385 . S
C127 C124 1.414 . S
C127 C126 1.385 . S
C127 C149 1.444 . S
O128 Tb84 2.546 . S
O128 C148 1.251 1_545 S
O129 Tb84 2.610 . S
O129 Tb95 2.362 . S
O129 C140 1.283 . S
O130 Tb95 2.421 . S
O130 C147 1.262 . S
O131 Tb84 2.320 . S
O131 C147 1.260 . S
O132 Tb84 2.552 . S
O132 C140 1.243 . S
O133 Tb84 2.413 . S
O133 C148 1.256 1_545 S
O134 Tb95 2.546 . S
O134 C159 1.251 . S
O135 Tb84 2.362 . S
O135 Tb95 2.610 . S
O135 C151 1.283 . S
O136 Tb84 2.421 . S
O136 C158 1.262 . S
O137 Tb95 2.320 . S
O137 C158 1.260 . S
O138 Tb95 2.552 . S
O138 C151 1.243 . S
O139 Tb95 2.413 . S
O139 C159 1.256 . S
C140 O129 1.283 . S
C140 O132 1.243 . S
C141 C143 1.382 . S
C141 C145 1.393 . S
C141 C148 1.500 . S
C142 C143 1.400 . S
C142 C144 1.384 . S
C143 C141 1.382 . S
C143 C142 1.400 . S
C143 H160 0.930 . S
C144 C142 1.384 . S
C144 C146 1.392 . S
C144 H161 0.931 . S
C145 C141 1.393 . S
C145 C146 1.401 . S
C145 H162 0.930 . S
C146 C144 1.392 . S
C146 C145 1.401 . S
C146 H163 0.930 . S
C147 O130 1.262 . S
C147 O131 1.260 . S
C148 Tb84 2.833 1_565 S
C148 O128 1.251 1_565 S
C148 O133 1.256 1_565 S
C148 C141 1.500 . S
C149 H114 0.929 . S
C149 C127 1.444 . S
C149 C150 1.317 . S
C150 H112 0.930 . S
C150 C118 1.432 . S
C150 C149 1.317 . S
C151 O135 1.283 . S
C151 O138 1.243 . S
C152 C153 1.382 . S
C152 C156 1.393 . S
C152 C159 1.500 . S
C153 C152 1.382 . S
C153 C154 1.400 . S
C153 H164 0.930 . S
C154 C153 1.400 . S
C154 C155 1.384 . S
C155 C154 1.384 . S
C155 C157 1.392 . S
C155 H165 0.931 . S
C156 C152 1.393 . S
C156 C157 1.401 . S
C156 H166 0.930 1_655 S
C157 C155 1.392 . S
C157 C156 1.401 . S
C157 H167 0.930 1_655 S
C158 O136 1.262 . S
C158 O137 1.260 . S
C159 Tb95 2.833 . S
C159 O134 1.251 . S
C159 O139 1.256 . S
C159 C152 1.500 . S
H160 C143 0.930 . S
H161 C144 0.931 . S
H162 C145 0.930 . S
H163 C146 0.930 . S
H164 C153 0.930 . S
H165 C155 0.931 . S
H166 C156 0.930 1_455 S
H167 C157 0.930 1_455 S
Tb168 N199 2.660 . S
Tb168 N206 2.600 . S
Tb168 O212 2.546 . S
Tb168 O213 2.610 . S
Tb168 O215 2.320 . S
Tb168 O216 2.552 . S
Tb168 O217 2.413 . S
Tb168 O219 2.362 . S
Tb168 O220 2.421 . S
Tb168 C232 2.833 . S
C169 C172 1.432 . S
C169 C173 1.414 . S
C169 N176 1.359 . S
C170 C172 1.417 . S
C170 C174 1.432 . S
C170 C182 1.410 1_655 S
C171 C173 1.444 . S
C171 C174 1.317 . S
C171 H194 0.929 . S
C172 C169 1.432 . S
C172 C170 1.417 . S
C172 N180 1.360 . S
C173 C169 1.414 . S
C173 C171 1.444 . S
C173 C178 1.385 . S
C174 C170 1.432 . S
C174 C171 1.317 . S
C174 H186 0.930 . S
C175 C177 1.392 . S
C175 C178 1.370 . S
C175 H187 0.931 . S
N176 C169 1.359 . S
N176 C177 1.327 . S
N176 Tb179 2.600 . S
C177 C175 1.392 . S
C177 N176 1.327 . S
C177 H184 0.930 . S
C178 C173 1.385 . S
C178 C175 1.370 . S
C178 H197 0.930 1_545 S
Tb179 N176 2.600 . S
Tb179 N180 2.660 . S
Tb179 O213 2.362 . S
Tb179 O214 2.421 . S
Tb179 O218 2.546 . S
Tb179 O219 2.610 . S
Tb179 O221 2.320 . S
Tb179 O222 2.552 . S
Tb179 O223 2.413 . S
Tb179 C243 2.833 . S
N180 C172 1.360 . S
N180 Tb179 2.660 . S
N180 C181 1.305 . S
C181 N180 1.305 . S
C181 C183 1.407 1_655 S
C181 H188 0.930 . S
C182 C170 1.410 1_455 S
C182 C183 1.345 . S
C182 H190 0.930 . S
C183 C181 1.407 1_455 S
C183 C182 1.345 . S
C183 H185 0.930 . S
H184 C177 0.930 . S
H185 C183 0.930 . S
H186 C174 0.930 . S
H187 C175 0.931 . S
H188 C181 0.930 . S
H189 C203 0.930 . S
H190 C182 0.930 . S
H191 C209 0.930 . S
H192 C200 0.930 . S
H193 C207 0.931 . S
H194 C171 0.929 . S
H195 C201 0.930 . S
H196 C234 0.930 . S
H197 C178 0.930 1_565 S
H198 C233 0.929 . S
N199 Tb168 2.660 . S
N199 C200 1.305 . S
N199 C204 1.360 . S
C200 H192 0.930 . S
C200 N199 1.305 . S
C200 C203 1.407 . S
C201 H195 0.930 . S
C201 C202 1.410 . S
C201 C203 1.345 . S
C202 C201 1.410 . S
C202 C204 1.417 . S
C202 C234 1.432 . S
C203 H189 0.930 . S
C203 C200 1.407 . S
C203 C201 1.345 . S
C204 N199 1.360 . S
C204 C202 1.417 . S
C204 C208 1.432 . S
H205 C210 0.930 . S
N206 Tb168 2.600 . S
N206 C208 1.359 . S
N206 C209 1.327 . S
C207 H193 0.931 . S
C207 C209 1.392 . S
C207 C210 1.370 . S
C208 C204 1.432 . S
C208 N206 1.359 . S
C208 C211 1.414 . S
C209 H191 0.930 . S
C209 N206 1.327 . S
C209 C207 1.392 . S
C210 H205 0.930 . S
C210 C207 1.370 . S
C210 C211 1.385 . S
C211 C208 1.414 . S
C211 C210 1.385 . S
C211 C233 1.444 . S
O212 Tb168 2.546 . S
O212 C232 1.251 . S
O213 Tb168 2.610 . S
O213 Tb179 2.362 . S
O213 C224 1.283 . S
O214 Tb179 2.421 . S
O214 C231 1.262 . S
O215 Tb168 2.320 . S
O215 C231 1.260 . S
O216 Tb168 2.552 . S
O216 C224 1.243 . S
O217 Tb168 2.413 . S
O217 C232 1.256 . S
O218 Tb179 2.546 . S
O218 C243 1.251 . S
O219 Tb168 2.362 . S
O219 Tb179 2.610 . S
O219 C235 1.283 . S
O220 Tb168 2.421 . S
O220 C242 1.262 . S
O221 Tb179 2.320 . S
O221 C242 1.260 . S
O222 Tb179 2.552 . S
O222 C235 1.243 . S
O223 Tb179 2.413 . S
O223 C243 1.256 . S
C224 O213 1.283 . S
C224 O216 1.243 . S
C225 C227 1.382 . S
C225 C229 1.393 . S
C225 C232 1.500 . S
C226 C227 1.400 . S
C226 C228 1.384 . S
C227 C225 1.382 . S
C227 C226 1.400 . S
C227 H244 0.930 . S
C228 C226 1.384 . S
C228 C230 1.392 . S
C228 H245 0.931 . S
C229 C225 1.393 . S
C229 C230 1.401 . S
C229 H246 0.930 . S
C230 C228 1.392 . S
C230 C229 1.401 . S
C230 H247 0.930 . S
C231 O214 1.262 . S
C231 O215 1.260 . S
C232 Tb168 2.833 . S
C232 O212 1.251 . S
C232 O217 1.256 . S
C232 C225 1.500 . S
C233 H198 0.929 . S
C233 C211 1.444 . S
C233 C234 1.317 . S
C234 H196 0.930 . S
C234 C202 1.432 . S
C234 C233 1.317 . S
C235 O219 1.283 . S
C235 O222 1.243 . S
C236 C237 1.382 . S
C236 C240 1.393 . S
C236 C243 1.500 . S
C237 C236 1.382 . S
C237 C238 1.400 . S
C237 H248 0.930 . S
C238 C237 1.400 . S
C238 C239 1.384 . S
C239 C238 1.384 . S
C239 C241 1.392 . S
C239 H249 0.931 . S
C240 C236 1.393 . S
C240 C241 1.401 . S
C240 H250 0.930 . S
C241 C239 1.392 . S
C241 C240 1.401 . S
C241 H251 0.930 . S
C242 O220 1.262 . S
C242 O221 1.260 . S
C243 Tb179 2.833 . S
C243 O218 1.251 . S
C243 O223 1.256 . S
C243 C236 1.500 . S
H244 C227 0.930 . S
H245 C228 0.931 . S
H246 C229 0.930 . S
H247 C230 0.930 . S
H248 C237 0.930 . S
H249 C239 0.931 . S
H250 C240 0.930 . S
H251 C241 0.930 . S
H252 C260 0.929 . S
H253 C262 0.930 . S
H254 C264 0.930 . S
H255 C267 0.929 . S
H256 C270 0.930 . S
H257 C272 0.960 . S
H258 C272 0.960 . S
H259 C272 0.960 . S
C260 H252 0.929 . S
C260 C261 1.377 1_655 S
C260 C262 1.384 . S
C261 C260 1.377 1_455 S
C261 C267 1.390 . S
C262 H253 0.930 . S
C262 C260 1.384 . S
C262 C263 1.372 1_655 S
C263 C262 1.372 1_455 S
C263 C264 1.400 . S
C263 C268 1.490 1_455 S
C264 H254 0.930 . S
C264 C263 1.400 . S
C264 C267 1.386 . S
H265 C281 0.930 . S
H266 C282 0.931 . S
C267 H255 0.929 . S
C267 C261 1.390 . S
C267 C264 1.386 . S
C268 C263 1.490 1_655 S
C268 C270 1.395 . S
C268 C271 1.403 1_655 S
H269 C275 0.930 1_545 S
C270 H256 0.930 . S
C270 C268 1.395 . S
C270 C273 1.403 . S
C271 C268 1.403 1_455 S
C271 C272 1.524 . S
C271 C275 1.400 . S
C272 H257 0.960 . S
C272 H258 0.960 . S
C272 H259 0.960 . S
C272 C271 1.524 . S
C273 C270 1.403 . S
C273 C274 1.392 . S
C273 C277 1.495 . S
C274 C273 1.392 . S
C274 C275 1.385 1_655 S
C274 C276 1.478 1_565 S
C275 H269 0.930 1_565 S
C275 C271 1.400 . S
C275 C274 1.385 1_455 S
C276 C274 1.478 1_545 S
C276 C278 1.381 . S
C276 C282 1.383 1_655 S
C277 C273 1.495 . S
C277 H283 0.959 . S
C277 H284 0.961 . S
C277 H285 0.960 . S
C278 C276 1.381 . S
C278 C279 1.394 . S
C278 H286 0.930 . S
C279 C278 1.394 . S
C279 C280 1.383 . S
C279 H287 0.929 . S
C280 C279 1.383 . S
C280 C281 1.377 1_655 S
C281 H265 0.930 . S
C281 C280 1.377 1_455 S
C281 C282 1.379 . S
C282 H266 0.931 . S
C282 C276 1.383 1_455 S
C282 C281 1.379 . S
H283 C277 0.959 . S
H284 C277 0.961 . S
H285 C277 0.960 . S
H286 C278 0.930 . S
H287 C279 0.929 . S
H288 C296 0.929 . S
H289 C298 0.930 . S
H290 C300 0.930 . S
H291 C303 0.929 . S
H292 C306 0.930 . S
H293 C308 0.960 . S
H294 C308 0.960 . S
H295 C308 0.960 . S
C296 H288 0.929 . S
C296 C297 1.377 . S
C296 C298 1.384 . S
C297 C296 1.377 . S
C297 C303 1.390 . S
C298 H289 0.930 . S
C298 C296 1.384 . S
C298 C299 1.372 . S
C299 C298 1.372 . S
C299 C300 1.400 . S
C299 C304 1.490 . S
C300 H290 0.930 . S
C300 C299 1.400 . S
C300 C303 1.386 . S
H301 C317 0.930 . S
H302 C318 0.931 . S
C303 H291 0.929 . S
C303 C297 1.390 . S
C303 C300 1.386 . S
C304 C299 1.490 . S
C304 C306 1.395 . S
C304 C307 1.403 . S
H305 C311 0.930 . S
C306 H292 0.930 . S
C306 C304 1.395 . S
C306 C309 1.403 . S
C307 C304 1.403 . S
C307 C308 1.524 . S
C307 C311 1.400 . S
C308 H293 0.960 . S
C308 H294 0.960 . S
C308 H295 0.960 . S
C308 C307 1.524 . S
C309 C306 1.403 . S
C309 C310 1.392 . S
C309 C313 1.495 . S
C310 C309 1.392 . S
C310 C311 1.385 . S
C310 C312 1.478 . S
C311 H305 0.930 . S
C311 C307 1.400 . S
C311 C310 1.385 . S
C312 C310 1.478 . S
C312 C314 1.381 . S
C312 C318 1.383 . S
C313 C309 1.495 . S
C313 H319 0.959 . S
C313 H320 0.961 . S
C313 H321 0.960 . S
C314 C312 1.381 . S
C314 C315 1.394 1_455 S
C314 H322 0.930 . S
C315 C314 1.394 1_655 S
C315 C316 1.383 . S
C315 H323 0.929 . S
C316 C315 1.383 . S
C316 C317 1.377 1_655 S
C317 H301 0.930 . S
C317 C316 1.377 1_455 S
C317 C318 1.379 . S
C318 H302 0.931 . S
C318 C312 1.383 . S
C318 C317 1.379 . S
H319 C313 0.959 . S
H320 C313 0.961 . S
H321 C313 0.960 . S
H322 C314 0.930 . S
H323 C315 0.929 . S
H324 C332 0.929 . S
H325 C334 0.930 . S
H326 C336 0.930 . S
H327 C339 0.929 . S
H328 C342 0.930 . S
H329 C344 0.960 . S
H330 C344 0.960 . S
H331 C344 0.960 . S
C332 H324 0.929 . S
C332 C333 1.377 1_455 S
C332 C334 1.384 . S
C333 C332 1.377 1_655 S
C333 C339 1.390 . S
C334 H325 0.930 . S
C334 C332 1.384 . S
C334 C335 1.372 . S
C335 C334 1.372 . S
C335 C336 1.400 . S
C335 C340 1.490 . S
C336 H326 0.930 . S
C336 C335 1.400 . S
C336 C339 1.386 1_455 S
H337 C353 0.930 . S
H338 C354 0.931 . S
C339 H327 0.929 . S
C339 C333 1.390 . S
C339 C336 1.386 1_655 S
C340 C335 1.490 . S
C340 C342 1.395 . S
C340 C343 1.403 . S
H341 C347 0.930 . S
C342 H328 0.930 . S
C342 C340 1.395 . S
C342 C345 1.403 . S
C343 C340 1.403 . S
C343 C344 1.524 . S
C343 C347 1.400 . S
C344 H329 0.960 . S
C344 H330 0.960 . S
C344 H331 0.960 . S
C344 C343 1.524 . S
C345 C342 1.403 . S
C345 C346 1.392 . S
C345 C349 1.495 . S
C346 C345 1.392 . S
C346 C347 1.385 . S
C346 C348 1.478 1_565 S
C347 H341 0.930 . S
C347 C343 1.400 . S
C347 C346 1.385 . S
C348 C346 1.478 1_545 S
C348 C350 1.381 . S
C348 C354 1.383 . S
C349 C345 1.495 . S
C349 H355 0.959 . S
C349 H356 0.961 1_565 S
C349 H357 0.960 . S
C350 C348 1.381 . S
C350 C351 1.394 . S
C350 H358 0.930 . S
C351 C350 1.394 . S
C351 C352 1.383 . S
C351 H359 0.929 . S
C352 C351 1.383 . S
C352 C353 1.377 . S
C353 H337 0.930 . S
C353 C352 1.377 . S
C353 C354 1.379 . S
C354 H338 0.931 . S
C354 C348 1.383 . S
C354 C353 1.379 . S
H355 C349 0.959 . S
H356 C349 0.961 1_545 S
H357 C349 0.960 . S
H358 C350 0.930 . S
H359 C351 0.929 . S
H360 C368 0.929 . S
H361 C370 0.930 . S
H362 C372 0.930 . S
H363 C375 0.929 . S
H364 C378 0.930 . S
H365 C380 0.960 . S
H366 C380 0.960 . S
H367 C380 0.960 . S
C368 H360 0.929 . S
C368 C369 1.377 . S
C368 C370 1.384 . S
C369 C368 1.377 . S
C369 C375 1.390 . S
C370 H361 0.930 . S
C370 C368 1.384 . S
C370 C371 1.372 . S
C371 C370 1.372 . S
C371 C372 1.400 . S
C371 C376 1.490 1_556 S
C372 H362 0.930 . S
C372 C371 1.400 . S
C372 C375 1.386 . S
H373 C389 0.930 . S
H374 C390 0.931 . S
C375 H363 0.929 . S
C375 C369 1.390 . S
C375 C372 1.386 . S
C376 C371 1.490 1_554 S
C376 C378 1.395 . S
C376 C379 1.403 . S
H377 C383 0.930 . S
C378 H364 0.930 . S
C378 C376 1.395 . S
C378 C381 1.403 . S
C379 C376 1.403 . S
C379 C380 1.524 . S
C379 C383 1.400 . S
C380 H365 0.960 . S
C380 H366 0.960 . S
C380 H367 0.960 . S
C380 C379 1.524 . S
C381 C378 1.403 . S
C381 C382 1.392 . S
C381 C385 1.495 . S
C382 C381 1.392 . S
C382 C383 1.385 . S
C382 C384 1.478 . S
C383 H377 0.930 . S
C383 C379 1.400 . S
C383 C382 1.385 . S
C384 C382 1.478 . S
C384 C386 1.381 . S
C384 C390 1.383 . S
C385 C381 1.495 . S
C385 H391 0.959 . S
C385 H392 0.961 . S
C385 H393 0.960 . S
C386 C384 1.381 . S
C386 C387 1.394 . S
C386 H394 0.930 . S
C387 C386 1.394 . S
C387 C388 1.383 . S
C387 H395 0.929 . S
C388 C387 1.383 . S
C388 C389 1.377 . S
C389 H373 0.930 . S
C389 C388 1.377 . S
C389 C390 1.379 . S
C390 H374 0.931 . S
C390 C384 1.383 . S
C390 C389 1.379 . S
H391 C385 0.959 . S
H392 C385 0.961 . S
H393 C385 0.960 . S
H394 C386 0.930 . S
H395 C387 0.929 . S
H396 C404 0.929 . S
H397 C406 0.930 . S
H398 C408 0.930 . S
H399 C411 0.929 . S
H400 C414 0.930 . S
H401 C416 0.960 . S
H402 C416 0.960 . S
H403 C416 0.960 . S
C404 H396 0.929 . S
C404 C405 1.377 . S
C404 C406 1.384 . S
C405 C404 1.377 . S
C405 C411 1.390 . S
C406 H397 0.930 . S
C406 C404 1.384 . S
C406 C407 1.372 . S
C407 C406 1.372 . S
C407 C408 1.400 . S
C407 C412 1.490 . S
C408 H398 0.930 . S
C408 C407 1.400 . S
C408 C411 1.386 . S
H409 C425 0.930 . S
H410 C426 0.931 . S
C411 H399 0.929 . S
C411 C405 1.390 . S
C411 C408 1.386 . S
C412 C407 1.490 . S
C412 C414 1.395 . S
C412 C415 1.403 . S
H413 C419 0.930 . S
C414 H400 0.930 . S
C414 C412 1.395 . S
C414 C417 1.403 . S
C415 C412 1.403 . S
C415 C416 1.524 . S
C415 C419 1.400 . S
C416 H401 0.960 . S
C416 H402 0.960 . S
C416 H403 0.960 . S
C416 C415 1.524 . S
C417 C414 1.403 . S
C417 C418 1.392 . S
C417 C421 1.495 . S
C418 C417 1.392 . S
C418 C419 1.385 . S
C418 C420 1.478 . S
C419 H413 0.930 . S
C419 C415 1.400 . S
C419 C418 1.385 . S
C420 C418 1.478 . S
C420 C422 1.381 . S
C420 C426 1.383 . S
C421 C417 1.495 . S
C421 H427 0.959 1_655 S
C421 H428 0.961 . S
C421 H429 0.960 1_655 S
C422 C420 1.381 . S
C422 C423 1.394 . S
C422 H430 0.930 . S
C423 C422 1.394 . S
C423 C424 1.383 . S
C423 H431 0.929 1_655 S
C424 C423 1.383 . S
C424 C425 1.377 . S
C425 H409 0.930 . S
C425 C424 1.377 . S
C425 C426 1.379 . S
C426 H410 0.931 . S
C426 C420 1.383 . S
C426 C425 1.379 . S
H427 C421 0.959 1_455 S
H428 C421 0.961 . S
H429 C421 0.960 1_455 S
H430 C422 0.930 . S
H431 C423 0.929 1_455 S
H432 C440 0.929 . S
H433 C442 0.930 . S
H434 C444 0.930 . S
H435 C447 0.929 . S
H436 C450 0.930 . S
H437 C452 0.960 . S
H438 C452 0.960 . S
H439 C452 0.960 . S
C440 H432 0.929 . S
C440 C441 1.377 . S
C440 C442 1.384 . S
C441 C440 1.377 . S
C441 C447 1.390 . S
C442 H433 0.930 . S
C442 C440 1.384 . S
C442 C443 1.372 . S
C443 C442 1.372 . S
C443 C444 1.400 . S
C443 C448 1.490 . S
C444 H434 0.930 . S
C444 C443 1.400 . S
C444 C447 1.386 . S
H445 C461 0.930 . S
H446 C462 0.931 . S
C447 H435 0.929 . S
C447 C441 1.390 . S
C447 C444 1.386 . S
C448 C443 1.490 . S
C448 C450 1.395 . S
C448 C451 1.403 . S
H449 C455 0.930 . S
C450 H436 0.930 . S
C450 C448 1.395 . S
C450 C453 1.403 . S
C451 C448 1.403 . S
C451 C452 1.524 . S
C451 C455 1.400 . S
C452 H437 0.960 . S
C452 H438 0.960 . S
C452 H439 0.960 . S
C452 C451 1.524 . S
C453 C450 1.403 . S
C453 C454 1.392 . S
C453 C457 1.495 . S
C454 C453 1.392 . S
C454 C455 1.385 . S
C454 C456 1.478 . S
C455 H449 0.930 . S
C455 C451 1.400 . S
C455 C454 1.385 . S
C456 C454 1.478 . S
C456 C458 1.381 . S
C456 C462 1.383 . S
C457 C453 1.495 . S
C457 H463 0.959 . S
C457 H464 0.961 . S
C457 H465 0.960 . S
C458 C456 1.381 . S
C458 C459 1.394 . S
C458 H466 0.930 . S
C459 C458 1.394 . S
C459 C460 1.383 . S
C459 H467 0.929 . S
C460 C459 1.383 . S
C460 C461 1.377 . S
C461 H445 0.930 . S
C461 C460 1.377 . S
C461 C462 1.379 . S
C462 H446 0.931 . S
C462 C456 1.383 . S
C462 C461 1.379 . S
H463 C457 0.959 . S
H464 C457 0.961 . S
H465 C457 0.960 . S
H466 C458 0.930 . S
H467 C459 0.929 . S
H468 C476 0.929 . S
H469 C478 0.930 . S
H470 C480 0.930 . S
H471 C483 0.929 . S
H472 C486 0.930 . S
H473 C488 0.960 . S
H474 C488 0.960 . S
H475 C488 0.960 . S
C476 H468 0.929 . S
C476 C477 1.377 . S
C476 C478 1.384 . S
C477 C476 1.377 . S
C477 C483 1.390 . S
C478 H469 0.930 . S
C478 C476 1.384 . S
C478 C479 1.372 . S
C479 C478 1.372 . S
C479 C480 1.400 . S
C479 C484 1.490 . S
C480 H470 0.930 . S
C480 C479 1.400 . S
C480 C483 1.386 . S
H481 C497 0.930 . S
H482 C498 0.931 . S
C483 H471 0.929 . S
C483 C477 1.390 . S
C483 C480 1.386 . S
C484 C479 1.490 . S
C484 C486 1.395 . S
C484 C487 1.403 . S
H485 C491 0.930 . S
C486 H472 0.930 . S
C486 C484 1.395 . S
C486 C489 1.403 . S
C487 C484 1.403 . S
C487 C488 1.524 . S
C487 C491 1.400 . S
C488 H473 0.960 . S
C488 H474 0.960 . S
C488 H475 0.960 . S
C488 C487 1.524 . S
C489 C486 1.403 . S
C489 C490 1.392 . S
C489 C493 1.495 . S
C490 C489 1.392 . S
C490 C491 1.385 . S
C490 C492 1.478 1_556 S
C491 H485 0.930 . S
C491 C487 1.400 . S
C491 C490 1.385 . S
C492 C490 1.478 1_554 S
C492 C494 1.381 . S
C492 C498 1.383 . S
C493 C489 1.495 . S
C493 H499 0.959 . S
C493 H500 0.961 1_556 S
C493 H501 0.960 1_556 S
C494 C492 1.381 . S
C494 C495 1.394 . S
C494 H502 0.930 . S
C495 C494 1.394 . S
C495 C496 1.383 . S
C495 H503 0.929 . S
C496 C495 1.383 . S
C496 C497 1.377 . S
C497 H481 0.930 . S
C497 C496 1.377 . S
C497 C498 1.379 . S
C498 H482 0.931 . S
C498 C492 1.383 . S
C498 C497 1.379 . S
H499 C493 0.959 . S
H500 C493 0.961 1_554 S
H501 C493 0.960 1_554 S
H502 C494 0.930 . S
H503 C495 0.929 . S
H504 C512 0.929 . S
H505 C514 0.930 . S
H506 C516 0.930 . S
H507 C519 0.929 . S
H508 C522 0.930 . S
H509 C524 0.960 1_545 S
H510 C524 0.960 . S
H511 C524 0.960 . S
C512 H504 0.929 . S
C512 C513 1.377 . S
C512 C514 1.384 . S
C513 C512 1.377 . S
C513 C519 1.390 . S
C514 H505 0.930 . S
C514 C512 1.384 . S
C514 C515 1.372 . S
C515 C514 1.372 . S
C515 C516 1.400 . S
C515 C520 1.490 . S
C516 H506 0.930 . S
C516 C515 1.400 . S
C516 C519 1.386 . S
H517 C533 0.930 . S
H518 C534 0.931 . S
C519 H507 0.929 . S
C519 C513 1.390 . S
C519 C516 1.386 . S
C520 C515 1.490 . S
C520 C522 1.395 . S
C520 C523 1.403 . S
H521 C527 0.930 . S
C522 H508 0.930 . S
C522 C520 1.395 . S
C522 C525 1.403 . S
C523 C520 1.403 . S
C523 C524 1.524 . S
C523 C527 1.400 . S
C524 H509 0.960 1_565 S
C524 H510 0.960 . S
C524 H511 0.960 . S
C524 C523 1.524 . S
C525 C522 1.403 . S
C525 C526 1.392 . S
C525 C529 1.495 . S
C526 C525 1.392 . S
C526 C527 1.385 . S
C526 C528 1.478 . S
C527 H521 0.930 . S
C527 C523 1.400 . S
C527 C526 1.385 . S
C528 C526 1.478 . S
C528 C530 1.381 . S
C528 C534 1.383 . S
C529 C525 1.495 . S
C529 H535 0.959 . S
C529 H536 0.961 . S
C529 H537 0.960 . S
C530 C528 1.381 . S
C530 C531 1.394 . S
C530 H538 0.930 . S
C531 C530 1.394 . S
C531 C532 1.383 1_565 S
C531 H539 0.929 . S
C532 C531 1.383 1_545 S
C532 C533 1.377 . S
C533 H517 0.930 . S
C533 C532 1.377 . S
C533 C534 1.379 1_545 S
C534 H518 0.931 . S
C534 C528 1.383 . S
C534 C533 1.379 1_565 S
H535 C529 0.959 . S
H536 C529 0.961 . S
H537 C529 0.960 . S
H538 C530 0.930 . S
H539 C531 0.929 . S
H540 C548 0.929 . S
H541 C550 0.926 . S
H542 C552 0.930 . S
H543 C555 0.929 . S
H544 C558 0.930 . S
H545 C560 0.960 . S
H546 C560 0.960 . S
H547 C560 0.960 . S
C548 H540 0.929 . S
C548 C549 1.377 . S
C548 C550 1.384 1_455 S
C549 C548 1.377 . S
C549 C555 1.390 1_455 S
C550 H541 0.926 . S
C550 C548 1.384 1_655 S
C550 C551 1.372 . S
C551 C550 1.372 . S
C551 C552 1.400 . S
C551 C556 1.490 . S
C552 H542 0.930 . S
C552 C551 1.400 . S
C552 C555 1.386 . S
H553 C569 0.930 . S
H554 C570 0.931 . S
C555 H543 0.929 . S
C555 C549 1.390 1_655 S
C555 C552 1.386 . S
C556 C551 1.490 . S
C556 C558 1.395 1_655 S
C556 C559 1.403 . S
H557 C563 0.930 . S
C558 H544 0.930 . S
C558 C556 1.395 1_455 S
C558 C561 1.403 1_455 S
C559 C556 1.403 . S
C559 C560 1.524 . S
C559 C563 1.400 . S
C560 H545 0.960 . S
C560 H546 0.960 . S
C560 H547 0.960 . S
C560 C559 1.524 . S
C561 C558 1.403 1_655 S
C561 C562 1.396 . S
C561 C565 1.492 1_655 S
C562 C561 1.396 . S
C562 C563 1.385 . S
C562 C564 1.478 . S
C563 H557 0.930 . S
C563 C559 1.400 . S
C563 C562 1.385 . S
C564 C562 1.478 . S
C564 C566 1.381 . S
C564 C570 1.383 . S
C565 C561 1.492 1_455 S
C565 H571 0.959 . S
C565 H572 0.961 . S
C565 H573 0.960 . S
C566 C564 1.381 . S
C566 C567 1.394 . S
C566 H574 0.930 . S
C567 C566 1.394 . S
C567 C568 1.383 . S
C567 H575 0.929 . S
C568 C567 1.383 . S
C568 C569 1.377 . S
C569 H553 0.930 . S
C569 C568 1.377 . S
C569 C570 1.379 . S
C570 H554 0.931 . S
C570 C564 1.383 . S
C570 C569 1.379 . S
H571 C565 0.959 . S
H572 C565 0.961 . S
H573 C565 0.960 . S
H574 C566 0.930 . S
H575 C567 0.929 . S
C261 C63 1.304 . S
C280 C74 1.301 . S
C297 C158 1.318 . S
C316 C147 1.333 . S
C333 C242 1.305 . S
C352 C231 1.275 . S
C369 C226 1.976 . S
C388 C67 2.125 . S
C405 C154 0.856 . S
C424 C56 0.853 . S
C441 C235 2.142 . S
C460 C142 1.982 . S
C477 C224 0.927 . S
C496 C70 0.791 . S
C513 C58 1.986 . S
C532 C151 2.154 . S
C549 C238 0.852 1_455 S
C568 C140 0.968 . S
