# Generated by pormake.
# Topology unx, (4)-cn, num edge types: 1
# Building blocks:
#     Node 0, Type 0, BuildingBlock: QUQFOY_clean_sbu_1, # of connection points: 4
#     Node 1, Type 0, BuildingBlock: QUQFOY_clean_sbu_1, # of connection points: 4
#     Node 2, Type 0, BuildingBlock: QUQFOY_clean_sbu_1, # of connection points: 4
#     Node 3, Type 0, BuildingBlock: QUQFOY_clean_sbu_1, # of connection points: 4
#     Node 4, Type 0, BuildingBlock: QUQFOY_clean_sbu_1, # of connection points: 4
#     Node 5, Type 0, BuildingBlock: QUQFOY_clean_sbu_1, # of connection points: 4
#     Node 6, Type 0, BuildingBlock: QUQFOY_clean_sbu_1, # of connection points: 4
#     Node 7, Type 0, BuildingBlock: QUQFOY_clean_sbu_1, # of connection points: 4
#     Node 8, Type 0, BuildingBlock: QUQFOY_clean_sbu_1, # of connection points: 4
#     Node 9, Type 0, BuildingBlock: QUQFOY_clean_sbu_1, # of connection points: 4
#     Node 10, Type 0, BuildingBlock: QUQFOY_clean_sbu_1, # of connection points: 4
#     Node 11, Type 0, BuildingBlock: QUQFOY_clean_sbu_1, # of connection points: 4
#     Node 12, Type 0, BuildingBlock: QUQFOY_clean_sbu_1, # of connection points: 4
#     Node 13, Type 0, BuildingBlock: QUQFOY_clean_sbu_1, # of connection points: 4
#     Node 14, Type 0, BuildingBlock: QUQFOY_clean_sbu_1, # of connection points: 4
#     Node 15, Type 0, BuildingBlock: QUQFOY_clean_sbu_1, # of connection points: 4
#     Node 16, Type 0, BuildingBlock: QUQFOY_clean_sbu_1, # of connection points: 4
#     Node 17, Type 0, BuildingBlock: QUQFOY_clean_sbu_1, # of connection points: 4
#     Node 18, Type 0, BuildingBlock: QUQFOY_clean_sbu_1, # of connection points: 4
#     Node 19, Type 0, BuildingBlock: QUQFOY_clean_sbu_1, # of connection points: 4
#     Node 20, Type 0, BuildingBlock: QUQFOY_clean_sbu_1, # of connection points: 4
#     Node 21, Type 0, BuildingBlock: QUQFOY_clean_sbu_1, # of connection points: 4
#     Node 22, Type 0, BuildingBlock: QUQFOY_clean_sbu_1, # of connection points: 4
#     Node 23, Type 0, BuildingBlock: QUQFOY_clean_sbu_1, # of connection points: 4
#     Node 24, Type 0, BuildingBlock: QUQFOY_clean_sbu_1, # of connection points: 4
#     Node 25, Type 0, BuildingBlock: QUQFOY_clean_sbu_1, # of connection points: 4
#     Node 26, Type 0, BuildingBlock: QUQFOY_clean_sbu_1, # of connection points: 4
#     Node 27, Type 0, BuildingBlock: QUQFOY_clean_sbu_1, # of connection points: 4
#     Node 28, Type 0, BuildingBlock: QUQFOY_clean_sbu_1, # of connection points: 4
#     Node 29, Type 0, BuildingBlock: QUQFOY_clean_sbu_1, # of connection points: 4
#     Node 30, Type 0, BuildingBlock: QUQFOY_clean_sbu_1, # of connection points: 4
#     Node 31, Type 0, BuildingBlock: QUQFOY_clean_sbu_1, # of connection points: 4
#     Node 32, Type 0, BuildingBlock: QUQFOY_clean_sbu_1, # of connection points: 4
#     Node 33, Type 0, BuildingBlock: QUQFOY_clean_sbu_1, # of connection points: 4
#     Node 34, Type 0, BuildingBlock: QUQFOY_clean_sbu_1, # of connection points: 4
#     Node 35, Type 0, BuildingBlock: QUQFOY_clean_sbu_1, # of connection points: 4
#     Node 36, Type 0, BuildingBlock: QUQFOY_clean_sbu_1, # of connection points: 4
#     Node 37, Type 0, BuildingBlock: QUQFOY_clean_sbu_1, # of connection points: 4
#     Node 38, Type 0, BuildingBlock: QUQFOY_clean_sbu_1, # of connection points: 4
#     Node 39, Type 0, BuildingBlock: QUQFOY_clean_sbu_1, # of connection points: 4
#     Node 40, Type 0, BuildingBlock: QUQFOY_clean_sbu_1, # of connection points: 4
#     Node 41, Type 0, BuildingBlock: QUQFOY_clean_sbu_1, # of connection points: 4
#     Node 42, Type 0, BuildingBlock: QUQFOY_clean_sbu_1, # of connection points: 4
#     Node 43, Type 0, BuildingBlock: QUQFOY_clean_sbu_1, # of connection points: 4
#     Node 44, Type 0, BuildingBlock: QUQFOY_clean_sbu_1, # of connection points: 4
#     Node 45, Type 0, BuildingBlock: QUQFOY_clean_sbu_1, # of connection points: 4
#     Node 46, Type 0, BuildingBlock: QUQFOY_clean_sbu_1, # of connection points: 4
#     Node 47, Type 0, BuildingBlock: QUQFOY_clean_sbu_1, # of connection points: 4
#     Edge 48, Type (0, 0), BuildingBlock: EZIPEK_clean_linker_0, # of connection points: 2
#     Edge 49, Type (0, 0), BuildingBlock: EZIPEK_clean_linker_0, # of connection points: 2
#     Edge 50, Type (0, 0), BuildingBlock: EZIPEK_clean_linker_0, # of connection points: 2
#     Edge 51, Type (0, 0), BuildingBlock: EZIPEK_clean_linker_0, # of connection points: 2
#     Edge 52, Type (0, 0), BuildingBlock: EZIPEK_clean_linker_0, # of connection points: 2
#     Edge 53, Type (0, 0), BuildingBlock: EZIPEK_clean_linker_0, # of connection points: 2
#     Edge 54, Type (0, 0), BuildingBlock: EZIPEK_clean_linker_0, # of connection points: 2
#     Edge 55, Type (0, 0), BuildingBlock: EZIPEK_clean_linker_0, # of connection points: 2
#     Edge 56, Type (0, 0), BuildingBlock: EZIPEK_clean_linker_0, # of connection points: 2
#     Edge 57, Type (0, 0), BuildingBlock: EZIPEK_clean_linker_0, # of connection points: 2
#     Edge 58, Type (0, 0), BuildingBlock: EZIPEK_clean_linker_0, # of connection points: 2
#     Edge 59, Type (0, 0), BuildingBlock: EZIPEK_clean_linker_0, # of connection points: 2
#     Edge 60, Type (0, 0), BuildingBlock: EZIPEK_clean_linker_0, # of connection points: 2
#     Edge 61, Type (0, 0), BuildingBlock: EZIPEK_clean_linker_0, # of connection points: 2
#     Edge 62, Type (0, 0), BuildingBlock: EZIPEK_clean_linker_0, # of connection points: 2
#     Edge 63, Type (0, 0), BuildingBlock: EZIPEK_clean_linker_0, # of connection points: 2
#     Edge 64, Type (0, 0), BuildingBlock: EZIPEK_clean_linker_0, # of connection points: 2
#     Edge 65, Type (0, 0), BuildingBlock: EZIPEK_clean_linker_0, # of connection points: 2
#     Edge 66, Type (0, 0), BuildingBlock: EZIPEK_clean_linker_0, # of connection points: 2
#     Edge 67, Type (0, 0), BuildingBlock: EZIPEK_clean_linker_0, # of connection points: 2
#     Edge 68, Type (0, 0), BuildingBlock: EZIPEK_clean_linker_0, # of connection points: 2
#     Edge 69, Type (0, 0), BuildingBlock: EZIPEK_clean_linker_0, # of connection points: 2
#     Edge 70, Type (0, 0), BuildingBlock: EZIPEK_clean_linker_0, # of connection points: 2
#     Edge 71, Type (0, 0), BuildingBlock: EZIPEK_clean_linker_0, # of connection points: 2
#     Edge 72, Type (0, 0), BuildingBlock: EZIPEK_clean_linker_0, # of connection points: 2
#     Edge 73, Type (0, 0), BuildingBlock: EZIPEK_clean_linker_0, # of connection points: 2
#     Edge 74, Type (0, 0), BuildingBlock: EZIPEK_clean_linker_0, # of connection points: 2
#     Edge 75, Type (0, 0), BuildingBlock: EZIPEK_clean_linker_0, # of connection points: 2
#     Edge 76, Type (0, 0), BuildingBlock: EZIPEK_clean_linker_0, # of connection points: 2
#     Edge 77, Type (0, 0), BuildingBlock: EZIPEK_clean_linker_0, # of connection points: 2
#     Edge 78, Type (0, 0), BuildingBlock: EZIPEK_clean_linker_0, # of connection points: 2
#     Edge 79, Type (0, 0), BuildingBlock: EZIPEK_clean_linker_0, # of connection points: 2
#     Edge 80, Type (0, 0), BuildingBlock: EZIPEK_clean_linker_0, # of connection points: 2
#     Edge 81, Type (0, 0), BuildingBlock: EZIPEK_clean_linker_0, # of connection points: 2
#     Edge 82, Type (0, 0), BuildingBlock: EZIPEK_clean_linker_0, # of connection points: 2
#     Edge 83, Type (0, 0), BuildingBlock: EZIPEK_clean_linker_0, # of connection points: 2
#     Edge 84, Type (0, 0), BuildingBlock: EZIPEK_clean_linker_0, # of connection points: 2
#     Edge 85, Type (0, 0), BuildingBlock: EZIPEK_clean_linker_0, # of connection points: 2
#     Edge 86, Type (0, 0), BuildingBlock: EZIPEK_clean_linker_0, # of connection points: 2
#     Edge 87, Type (0, 0), BuildingBlock: EZIPEK_clean_linker_0, # of connection points: 2
#     Edge 88, Type (0, 0), BuildingBlock: EZIPEK_clean_linker_0, # of connection points: 2
#     Edge 89, Type (0, 0), BuildingBlock: EZIPEK_clean_linker_0, # of connection points: 2
#     Edge 90, Type (0, 0), BuildingBlock: EZIPEK_clean_linker_0, # of connection points: 2
#     Edge 91, Type (0, 0), BuildingBlock: EZIPEK_clean_linker_0, # of connection points: 2
#     Edge 92, Type (0, 0), BuildingBlock: EZIPEK_clean_linker_0, # of connection points: 2
#     Edge 93, Type (0, 0), BuildingBlock: EZIPEK_clean_linker_0, # of connection points: 2
#     Edge 94, Type (0, 0), BuildingBlock: EZIPEK_clean_linker_0, # of connection points: 2
#     Edge 95, Type (0, 0), BuildingBlock: EZIPEK_clean_linker_0, # of connection points: 2
#     Edge 96, Type (0, 0), BuildingBlock: EZIPEK_clean_linker_0, # of connection points: 2
#     Edge 97, Type (0, 0), BuildingBlock: EZIPEK_clean_linker_0, # of connection points: 2
#     Edge 98, Type (0, 0), BuildingBlock: EZIPEK_clean_linker_0, # of connection points: 2
#     Edge 99, Type (0, 0), BuildingBlock: EZIPEK_clean_linker_0, # of connection points: 2
#     Edge 100, Type (0, 0), BuildingBlock: EZIPEK_clean_linker_0, # of connection points: 2
#     Edge 101, Type (0, 0), BuildingBlock: EZIPEK_clean_linker_0, # of connection points: 2
#     Edge 102, Type (0, 0), BuildingBlock: EZIPEK_clean_linker_0, # of connection points: 2
#     Edge 103, Type (0, 0), BuildingBlock: EZIPEK_clean_linker_0, # of connection points: 2
#     Edge 104, Type (0, 0), BuildingBlock: EZIPEK_clean_linker_0, # of connection points: 2
#     Edge 105, Type (0, 0), BuildingBlock: EZIPEK_clean_linker_0, # of connection points: 2
#     Edge 106, Type (0, 0), BuildingBlock: EZIPEK_clean_linker_0, # of connection points: 2
#     Edge 107, Type (0, 0), BuildingBlock: EZIPEK_clean_linker_0, # of connection points: 2
#     Edge 108, Type (0, 0), BuildingBlock: EZIPEK_clean_linker_0, # of connection points: 2
#     Edge 109, Type (0, 0), BuildingBlock: EZIPEK_clean_linker_0, # of connection points: 2
#     Edge 110, Type (0, 0), BuildingBlock: EZIPEK_clean_linker_0, # of connection points: 2
#     Edge 111, Type (0, 0), BuildingBlock: EZIPEK_clean_linker_0, # of connection points: 2
#     Edge 112, Type (0, 0), BuildingBlock: EZIPEK_clean_linker_0, # of connection points: 2
#     Edge 113, Type (0, 0), BuildingBlock: EZIPEK_clean_linker_0, # of connection points: 2
#     Edge 114, Type (0, 0), BuildingBlock: EZIPEK_clean_linker_0, # of connection points: 2
#     Edge 115, Type (0, 0), BuildingBlock: EZIPEK_clean_linker_0, # of connection points: 2
#     Edge 116, Type (0, 0), BuildingBlock: EZIPEK_clean_linker_0, # of connection points: 2
#     Edge 117, Type (0, 0), BuildingBlock: EZIPEK_clean_linker_0, # of connection points: 2
#     Edge 118, Type (0, 0), BuildingBlock: EZIPEK_clean_linker_0, # of connection points: 2
#     Edge 119, Type (0, 0), BuildingBlock: EZIPEK_clean_linker_0, # of connection points: 2
#     Edge 120, Type (0, 0), BuildingBlock: EZIPEK_clean_linker_0, # of connection points: 2
#     Edge 121, Type (0, 0), BuildingBlock: EZIPEK_clean_linker_0, # of connection points: 2
#     Edge 122, Type (0, 0), BuildingBlock: EZIPEK_clean_linker_0, # of connection points: 2
#     Edge 123, Type (0, 0), BuildingBlock: EZIPEK_clean_linker_0, # of connection points: 2
#     Edge 124, Type (0, 0), BuildingBlock: EZIPEK_clean_linker_0, # of connection points: 2
#     Edge 125, Type (0, 0), BuildingBlock: EZIPEK_clean_linker_0, # of connection points: 2
#     Edge 126, Type (0, 0), BuildingBlock: EZIPEK_clean_linker_0, # of connection points: 2
#     Edge 127, Type (0, 0), BuildingBlock: EZIPEK_clean_linker_0, # of connection points: 2
#     Edge 128, Type (0, 0), BuildingBlock: EZIPEK_clean_linker_0, # of connection points: 2
#     Edge 129, Type (0, 0), BuildingBlock: EZIPEK_clean_linker_0, # of connection points: 2
#     Edge 130, Type (0, 0), BuildingBlock: EZIPEK_clean_linker_0, # of connection points: 2
#     Edge 131, Type (0, 0), BuildingBlock: EZIPEK_clean_linker_0, # of connection points: 2
#     Edge 132, Type (0, 0), BuildingBlock: EZIPEK_clean_linker_0, # of connection points: 2
#     Edge 133, Type (0, 0), BuildingBlock: EZIPEK_clean_linker_0, # of connection points: 2
#     Edge 134, Type (0, 0), BuildingBlock: EZIPEK_clean_linker_0, # of connection points: 2
#     Edge 135, Type (0, 0), BuildingBlock: EZIPEK_clean_linker_0, # of connection points: 2
#     Edge 136, Type (0, 0), BuildingBlock: EZIPEK_clean_linker_0, # of connection points: 2
#     Edge 137, Type (0, 0), BuildingBlock: EZIPEK_clean_linker_0, # of connection points: 2
#     Edge 138, Type (0, 0), BuildingBlock: EZIPEK_clean_linker_0, # of connection points: 2
#     Edge 139, Type (0, 0), BuildingBlock: EZIPEK_clean_linker_0, # of connection points: 2
#     Edge 140, Type (0, 0), BuildingBlock: EZIPEK_clean_linker_0, # of connection points: 2
#     Edge 141, Type (0, 0), BuildingBlock: EZIPEK_clean_linker_0, # of connection points: 2
#     Edge 142, Type (0, 0), BuildingBlock: EZIPEK_clean_linker_0, # of connection points: 2
#     Edge 143, Type (0, 0), BuildingBlock: EZIPEK_clean_linker_0, # of connection points: 2
# Relax obj value: 0.318
# Max RMSD: 0.122
# Mean RMSD: 0.122
data_MOF--net-unx--node1-QUQFOY_clean_sbu_1--edge1-EZIPEK_clean_linker_0
_symmetry_space_group_name_H-M    P1
_symmetry_Int_Tables_number       1
_symmetry_cell_setting            triclinic
loop_
_symmetry_equiv_pos_as_xyz
'x, y, z'
_cell_length_a     46.337811
_cell_length_b     46.328045
_cell_length_c     46.325233
_cell_angle_alpha  89.984422
_cell_angle_beta   89.970313
_cell_angle_gamma 89.981709
loop_
_atom_site_label
_atom_site_type_symbol
_atom_site_fract_x
_atom_site_fract_y
_atom_site_fract_z
_atom_type_partial_charge
O0 O 0.15143 0.55448 0.18994 0.0
Cd1 Cd 0.14132 0.55352 0.23207 0.0
Cd2 Cd 0.10135 0.52425 0.20028 0.0
O3 O 0.13745 0.51106 0.17735 0.0
O4 O 0.17606 0.57458 0.24641 0.0
O5 O 0.17075 0.52726 0.2497 0.0
C6 C 0.18764 0.54949 0.2497 0.0
C7 C 0.05432 0.50809 0.20342 0.0
C8 C 0.1538 0.5328 0.17357 0.0
C9 C 0.09184 0.5844 0.21667 0.0
O10 O 0.0943 0.56713 0.19566 0.0
O11 O 0.10607 0.58018 0.23986 0.0
O12 O 0.06716 0.50935 0.17876 0.0
O13 O 0.07006 0.50994 0.22639 0.0
O14 O 0.68873 0.35333 0.4463 0.0
Cd15 Cd 0.73092 0.36109 0.45043 0.0
Cd16 Cd 0.702 0.39946 0.4807 0.0
O17 O 0.67026 0.36813 0.48744 0.0
O18 O 0.74451 0.32695 0.42737 0.0
O19 O 0.74597 0.3284 0.47493 0.0
C20 C 0.74678 0.31327 0.45149 0.0
C21 C 0.72417 0.43852 0.50283 0.0
C22 C 0.66816 0.35344 0.46421 0.0
C23 C 0.71939 0.41465 0.4226 0.0
O24 O 0.69808 0.4126 0.43952 0.0
O25 O 0.741 0.39792 0.42632 0.0
O26 O 0.69637 0.43719 0.50063 0.0
O27 O 0.73891 0.41539 0.4974 0.0
O28 O 0.8531 0.94707 0.68589 0.0
Cd29 Cd 0.85981 0.94857 0.72891 0.0
Cd30 Cd 0.90052 0.98143 0.70231 0.0
O31 O 0.86527 0.99197 0.67644 0.0
O32 O 0.82549 0.92583 0.74188 0.0
O33 O 0.82796 0.97338 0.74447 0.0
C34 C 0.81237 0.95022 0.7446 0.0
C35 C 0.94489 0.00405 0.71061 0.0
C36 C 0.85028 0.96961 0.67075 0.0
C37 C 0.91285 0.92168 0.71921 0.0
O38 O 0.91141 0.93924 0.69834 0.0
O39 O 0.89633 0.92535 0.74088 0.0
O40 O 0.9366 0.9973 0.68492 0.0
O41 O 0.92592 0.00271 0.73103 0.0
O42 O 0.30313 0.14504 0.97131 0.0
Cd43 Cd 0.27212 0.16074 0.94459 0.0
Cd44 Cd 0.31242 0.09242 0.97366 0.0
O45 O 0.34237 0.12495 0.98488 0.0
O46 O 0.279 0.20137 0.93473 0.0
O47 O 0.24303 0.18639 0.96317 0.0
C48 C 0.25759 0.20726 0.95155 0.0
C49 C 0.304 0.0459 0.98801 0.0
C50 C 0.33014 0.14756 0.97527 0.0
C51 C 0.27727 0.10778 0.91234 0.0
O52 O 0.29062 0.10192 0.93559 0.0
O53 O 0.26423 0.13204 0.91036 0.0
O54 O 0.32661 0.05239 0.97287 0.0
O55 O 0.28838 0.0667 0.99832 0.0
O56 O 0.09636 0.43978 0.80635 0.0
Cd57 Cd 0.10171 0.48248 0.80022 0.0
Cd58 Cd 0.14294 0.45004 0.7715 0.0
O59 O 0.10693 0.42542 0.76257 0.0
O60 O 0.06722 0.49569 0.82239 0.0
O61 O 0.06913 0.49498 0.77469 0.0
C62 C 0.05378 0.49611 0.79801 0.0
C63 C 0.18792 0.44616 0.74861 0.0
C64 C 0.09229 0.42258 0.78555 0.0
C65 C 0.15543 0.47786 0.82721 0.0
O66 O 0.15347 0.45408 0.81392 0.0
O67 O 0.13844 0.49845 0.82062 0.0
O68 O 0.1761 0.42472 0.76167 0.0
O69 O 0.17223 0.46902 0.74576 0.0
O70 O 0.79662 0.41135 0.05906 0.0
Cd71 Cd 0.80663 0.39313 0.02133 0.0
Cd72 Cd 0.76555 0.35242 0.04805 0.0
O73 O 0.76227 0.3854 0.0794 0.0
O74 O 0.82877 0.42728 0.00806 0.0
O75 O 0.78637 0.41525 0.9897 0.0
C76 C 0.80625 0.43444 0.9935 0.0
C77 C 0.74477 0.30723 0.04165 0.0
C78 C 0.77939 0.40707 0.07964 0.0
C79 C 0.8306 0.33887 0.04493 0.0
O80 O 0.80493 0.33534 0.05284 0.0
O81 O 0.83706 0.35999 0.02833 0.0
O82 O 0.74385 0.31958 0.06649 0.0
O83 O 0.74965 0.32355 0.0196 0.0
O84 O 0.90689 0.0631 0.29553 0.0
Cd85 Cd 0.90101 0.02012 0.29568 0.0
Cd86 Cd 0.85485 0.05031 0.26637 0.0
O87 O 0.88881 0.07633 0.2536 0.0
O88 O 0.9362 0.01039 0.319 0.0
O89 O 0.93363 0.00334 0.27206 0.0
C90 C 0.94936 0.00557 0.29498 0.0
C91 C 0.80648 0.04968 0.25271 0.0
C92 C 0.90599 0.08058 0.27461 0.0
C93 C 0.84914 0.03048 0.32612 0.0
O94 O 0.84978 0.05205 0.30945 0.0
O95 O 0.86597 0.00909 0.32181 0.0
O96 O 0.82007 0.07369 0.25579 0.0
O97 O 0.8217 0.02634 0.25172 0.0
O98 O 0.1964 0.09473 0.57084 0.0
Cd99 Cd 0.18797 0.11106 0.53114 0.0
Cd100 Cd 0.22591 0.14733 0.55643 0.0
O101 O 0.24162 0.10868 0.57433 0.0
O102 O 0.16614 0.07737 0.51616 0.0
O103 O 0.20906 0.08957 0.49994 0.0
C104 C 0.18878 0.07052 0.50146 0.0
C105 C 0.2427 0.19418 0.54873 0.0
C106 C 0.22127 0.09156 0.58167 0.0
C107 C 0.16377 0.16003 0.5559 0.0
O108 O 0.18603 0.1561 0.57117 0.0
O109 O 0.16102 0.14651 0.53214 0.0
O110 O 0.24565 0.18187 0.57357 0.0
O111 O 0.23569 0.17805 0.52703 0.0
O112 O 0.19294 0.852 0.44205 0.0
Cd113 Cd 0.23534 0.85233 0.45034 0.0
Cd114 Cd 0.20334 0.9004 0.48107 0.0
O115 O 0.17313 0.8674 0.4825 0.0
O116 O 0.24443 0.8148 0.43071 0.0
O117 O 0.24485 0.81987 0.478 0.0
C118 C 0.24511 0.80298 0.45583 0.0
C119 C 0.19502 0.94674 0.49948 0.0
C120 C 0.17224 0.85199 0.45981 0.0
C121 C 0.23786 0.90548 0.42213 0.0
O122 O 0.21887 0.91042 0.44115 0.0
O123 O 0.25391 0.88327 0.4243 0.0
O124 O 0.21314 0.92975 0.51201 0.0
O125 O 0.17867 0.93552 0.48015 0.0
O126 O 0.33336 0.4669 0.68646 0.0
Cd127 Cd 0.35303 0.45566 0.72407 0.0
Cd128 Cd 0.38752 0.48686 0.69306 0.0
O129 O 0.35295 0.50821 0.67482 0.0
O130 O 0.32098 0.42946 0.73384 0.0
O131 O 0.32977 0.46947 0.75819 0.0
C132 C 0.31187 0.44942 0.75083 0.0
C133 C 0.43406 0.49787 0.70845 0.0
C134 C 0.3332 0.48945 0.67109 0.0
C135 C 0.39527 0.42583 0.69202 0.0
O136 O 0.38892 0.44652 0.67567 0.0
O137 O 0.38823 0.42812 0.71854 0.0
O138 O 0.42589 0.50334 0.68232 0.0
O139 O 0.41449 0.49064 0.72704 0.0
O140 O 0.81322 0.65776 0.94422 0.0
Cd141 Cd 0.77188 0.64934 0.95453 0.0
Cd142 Cd 0.80859 0.60646 0.97613 0.0
O143 O 0.83779 0.64042 0.98093 0.0
O144 O 0.75576 0.68587 0.93798 0.0
O145 O 0.75862 0.67774 0.98487 0.0
C146 C 0.75486 0.69578 0.96393 0.0
C147 C 0.80844 0.55883 0.99218 0.0
C148 C 0.83576 0.65766 0.95958 0.0
C149 C 0.77671 0.59961 0.92055 0.0
O150 O 0.80053 0.59941 0.93387 0.0
O151 O 0.75627 0.6161 0.92879 0.0
O152 O 0.83187 0.57076 0.9832 0.0
O153 O 0.78679 0.57555 0.99768 0.0
O154 O 0.65261 0.05703 0.18777 0.0
Cd155 Cd 0.6387 0.05917 0.22945 0.0
Cd156 Cd 0.60633 0.02036 0.20037 0.0
O157 O 0.642 0.01254 0.17497 0.0
O158 O 0.67304 0.07973 0.24478 0.0
O159 O 0.6626 0.03416 0.25543 0.0
C160 C 0.68137 0.05485 0.25422 0.0
C161 C 0.56303 0.99542 0.2037 0.0
C162 C 0.65607 0.03576 0.17088 0.0
C163 C 0.58351 0.07942 0.21226 0.0
O164 O 0.59033 0.06077 0.19356 0.0
O165 O 0.5995 0.08167 0.23456 0.0
O166 O 0.57362 0.00289 0.17915 0.0
O167 O 0.58021 0.99577 0.22562 0.0
O168 O 0.56434 0.19696 0.09334 0.0
Cd169 Cd 0.52131 0.19811 0.09988 0.0
Cd170 Cd 0.5503 0.22979 0.14361 0.0
O171 O 0.57463 0.24101 0.10773 0.0
O172 O 0.50902 0.17598 0.0648 0.0
O173 O 0.50467 0.22324 0.0684 0.0
C174 C 0.50494 0.20048 0.05224 0.0
C175 C 0.54898 0.25153 0.18939 0.0
C176 C 0.57976 0.2194 0.09155 0.0
C177 C 0.5303 0.16974 0.15327 0.0
O178 O 0.55134 0.18707 0.1536 0.0
O179 O 0.50938 0.17371 0.13579 0.0
O180 O 0.57255 0.2416 0.17847 0.0
O181 O 0.52718 0.25343 0.17219 0.0
O182 O 0.0652 0.8102 0.4028 0.0
Cd183 Cd 0.02303 0.80439 0.39442 0.0
Cd184 Cd 0.05252 0.77201 0.36144 0.0
O185 O 0.07831 0.76509 0.39702 0.0
O186 O 0.00687 0.82455 0.42875 0.0
O187 O 0.0081 0.77682 0.42394 0.0
C188 C 0.00563 0.79925 0.44049 0.0
C189 C 0.04329 0.7433 0.32195 0.0
C190 C 0.08233 0.78968 0.40842 0.0
C191 C 0.03386 0.82769 0.33982 0.0
O192 O 0.05616 0.81286 0.34523 0.0
O193 O 0.01141 0.82351 0.35521 0.0
O194 O 0.06927 0.75062 0.32864 0.0
O195 O 0.02288 0.74842 0.34027 0.0
O196 O 0.4374 0.28745 0.59858 0.0
Cd197 Cd 0.47921 0.29184 0.6104 0.0
Cd198 Cd 0.45062 0.26361 0.65421 0.0
O199 O 0.42212 0.24936 0.62242 0.0
O200 O 0.48917 0.31296 0.57447 0.0
O201 O 0.50624 0.26955 0.58419 0.0
C202 C 0.50185 0.28994 0.56571 0.0
C203 C 0.46602 0.24449 0.69841 0.0
C204 C 0.41867 0.26803 0.60243 0.0
C205 C 0.46154 0.32688 0.65684 0.0
O206 O 0.44394 0.30632 0.66036 0.0
O207 O 0.48436 0.32313 0.64198 0.0
O208 O 0.43906 0.2489 0.69318 0.0
O209 O 0.48407 0.24728 0.6773 0.0
O210 O 0.93558 0.68773 0.83021 0.0
Cd211 Cd 0.94501 0.72893 0.84249 0.0
Cd212 Cd 0.97588 0.69852 0.87509 0.0
O213 O 0.98085 0.67617 0.83657 0.0
O214 O 0.94023 0.75095 0.80596 0.0
O215 O 0.98301 0.74081 0.82525 0.0
C216 C 0.968 0.74925 0.80321 0.0
C217 C 0.99842 0.69739 0.91938 0.0
C218 C 0.95669 0.67137 0.82433 0.0
C219 C 0.91851 0.71743 0.89398 0.0
O220 O 0.93487 0.69625 0.88876 0.0
O221 O 0.92137 0.74048 0.87924 0.0
O222 O 0.99348 0.6738 0.90551 0.0
O223 O 0.99647 0.72146 0.90538 0.0
O224 O 0.0557 0.71107 0.09836 0.0
Cd225 Cd 0.02624 0.67935 0.08815 0.0
Cd226 Cd 0.06742 0.71858 0.15374 0.0
O227 O 0.09572 0.72495 0.1174 0.0
O228 O 0.03148 0.66675 0.04811 0.0
O229 O 0.99534 0.69505 0.06333 0.0
C230 C 0.00976 0.68335 0.04236 0.0
C231 C 0.061 0.73065 0.20144 0.0
C232 C 0.08276 0.71401 0.09556 0.0
C233 C 0.03418 0.66182 0.14447 0.0
O234 O 0.03712 0.68879 0.1419 0.0
O235 O 0.02248 0.64912 0.12298 0.0
O236 O 0.08136 0.71299 0.19382 0.0
O237 O 0.04764 0.74468 0.18122 0.0
O238 O 0.4337 0.79736 0.1015 0.0
Cd239 Cd 0.47528 0.80085 0.11322 0.0
Cd240 Cd 0.44756 0.76855 0.15052 0.0
O241 O 0.42482 0.75293 0.11528 0.0
O242 O 0.48867 0.82431 0.07952 0.0
O243 O 0.49666 0.77743 0.08367 0.0
C244 C 0.49512 0.80007 0.06734 0.0
C245 C 0.46591 0.74974 0.19328 0.0
C246 C 0.41924 0.77435 0.09897 0.0
C247 C 0.45568 0.82764 0.16506 0.0
O248 O 0.43562 0.80999 0.15948 0.0
O249 O 0.47973 0.82451 0.15189 0.0
O250 O 0.43862 0.7486 0.18767 0.0
O251 O 0.48328 0.75698 0.17262 0.0
O252 O 0.42274 0.17769 0.84505 0.0
Cd253 Cd 0.43721 0.21723 0.85861 0.0
Cd254 Cd 0.46397 0.18438 0.89148 0.0
O255 O 0.46696 0.16323 0.85138 0.0
O256 O 0.43543 0.24198 0.82311 0.0
O257 O 0.47644 0.22493 0.84088 0.0
C258 C 0.46265 0.23674 0.81963 0.0
C259 C 0.49532 0.19541 0.92888 0.0
C260 C 0.44316 0.16107 0.83766 0.0
C261 C 0.41106 0.20954 0.91346 0.0
O262 O 0.42409 0.18578 0.90977 0.0
O263 O 0.41675 0.23076 0.89678 0.0
O264 O 0.48752 0.16905 0.9239 0.0
O265 O 0.48919 0.21455 0.90947 0.0
O266 O 0.56107 0.31117 0.40436 0.0
Cd267 Cd 0.51903 0.30315 0.39565 0.0
Cd268 Cd 0.55294 0.27432 0.35813 0.0
O269 O 0.57767 0.26787 0.39486 0.0
O270 O 0.50138 0.32197 0.43001 0.0
O271 O 0.50558 0.27452 0.42492 0.0
C272 C 0.50172 0.29662 0.4416 0.0
C273 C 0.55407 0.24902 0.31406 0.0
C274 C 0.57919 0.29127 0.40912 0.0
C275 C 0.52619 0.32941 0.34208 0.0
O276 O 0.54988 0.31628 0.34565 0.0
O277 O 0.50465 0.32306 0.35795 0.0
O278 O 0.53178 0.2479 0.33077 0.0
O279 O 0.5766 0.26137 0.32464 0.0
O280 O 0.16179 0.06003 0.67919 0.0
Cd281 Cd 0.14222 0.05854 0.71832 0.0
Cd282 Cd 0.11355 0.02401 0.68935 0.0
O283 O 0.15471 0.01376 0.67266 0.0
O284 O 0.17391 0.07132 0.74386 0.0
O285 O 0.15832 0.02612 0.74183 0.0
C286 C 0.17807 0.04428 0.74963 0.0
C287 C 0.06924 0.00588 0.70292 0.0
C288 C 0.16907 0.03666 0.66701 0.0
C289 C 0.09302 0.08196 0.69397 0.0
O290 O 0.10137 0.06339 0.6757 0.0
O291 O 0.10388 0.08179 0.71924 0.0
O292 O 0.07939 0.00053 0.67739 0.0
O293 O 0.08701 0.01536 0.72238 0.0
O294 O 0.69024 0.8423 0.93063 0.0
Cd295 Cd 0.72776 0.85934 0.94595 0.0
Cd296 Cd 0.68754 0.89113 0.96543 0.0
O297 O 0.66906 0.85032 0.97163 0.0
O298 O 0.75284 0.82607 0.93731 0.0
O299 O 0.74053 0.83882 0.98187 0.0
C300 C 0.75034 0.81944 0.96429 0.0
C301 C 0.68694 0.93581 0.98638 0.0
C302 C 0.67214 0.83431 0.94947 0.0
C303 C 0.71892 0.90952 0.91504 0.0
O304 O 0.69389 0.90234 0.92351 0.0
O305 O 0.74091 0.89698 0.92565 0.0
O306 O 0.66293 0.92327 0.97965 0.0
O307 O 0.71009 0.92013 0.98763 0.0
O308 O 0.83418 0.4498 0.19781 0.0
Cd309 Cd 0.84798 0.44644 0.23823 0.0
Cd310 Cd 0.88636 0.48723 0.20333 0.0
O311 O 0.85367 0.48466 0.17205 0.0
O312 O 0.81404 0.42375 0.25281 0.0
O313 O 0.8178 0.47099 0.25713 0.0
C314 C 0.80151 0.44838 0.25602 0.0
C315 C 0.92938 0.51253 0.20458 0.0
C316 C 0.83573 0.4639 0.17471 0.0
C317 C 0.90249 0.42314 0.21709 0.0
O318 O 0.90413 0.44818 0.20693 0.0
O319 O 0.88207 0.41658 0.23448 0.0
O320 O 0.92024 0.50126 0.18097 0.0
O321 O 0.91132 0.51527 0.22564 0.0
O322 O 0.30635 0.65824 0.44847 0.0
Cd323 Cd 0.26849 0.63832 0.44421 0.0
Cd324 Cd 0.30868 0.6024 0.47774 0.0
O325 O 0.33702 0.63805 0.47846 0.0
O326 O 0.25069 0.6728 0.42572 0.0
O327 O 0.23976 0.65864 0.46999 0.0
C328 C 0.2402 0.67886 0.45074 0.0
C329 C 0.30055 0.55722 0.49931 0.0
C330 C 0.33072 0.65798 0.46034 0.0
C331 C 0.29578 0.59037 0.41416 0.0
O332 O 0.3103 0.58979 0.4371 0.0
O333 O 0.2731 0.60607 0.41235 0.0
O334 O 0.32628 0.56573 0.49286 0.0
O335 O 0.28014 0.57628 0.49864 0.0
O336 O 0.0919 0.92964 0.31399 0.0
Cd337 Cd 0.10959 0.96954 0.31594 0.0
Cd338 Cd 0.14149 0.94347 0.28119 0.0
O339 O 0.10194 0.92632 0.2679 0.0
O340 O 0.07617 0.99268 0.32974 0.0
O341 O 0.09293 0.99489 0.28501 0.0
C342 C 0.07243 0.00052 0.30317 0.0
C343 C 0.18525 0.95629 0.26148 0.0
C344 C 0.08685 0.91849 0.28957 0.0
C345 C 0.15972 0.94578 0.34097 0.0
O346 O 0.15394 0.92861 0.32052 0.0
O347 O 0.14745 0.97042 0.34039 0.0
O348 O 0.17458 0.93096 0.25666 0.0
O349 O 0.16824 0.97601 0.27169 0.0
O350 O 0.80459 0.9078 0.56042 0.0
Cd351 Cd 0.80385 0.89355 0.52014 0.0
Cd352 Cd 0.76739 0.85511 0.55941 0.0
O353 O 0.77341 0.88802 0.59037 0.0
O354 O 0.82057 0.92993 0.50421 0.0
O355 O 0.7748 0.91787 0.49822 0.0
C356 C 0.79465 0.93747 0.4975 0.0
C357 C 0.74232 0.81176 0.55883 0.0
C358 C 0.79353 0.90625 0.58515 0.0
C359 C 0.82986 0.83997 0.53765 0.0
O360 O 0.80611 0.83885 0.55066 0.0
O361 O 0.83456 0.86005 0.51928 0.0
O362 O 0.75613 0.81989 0.58148 0.0
O363 O 0.73746 0.83074 0.53897 0.0
O364 O 0.90314 0.56512 0.80272 0.0
Cd365 Cd 0.88967 0.52435 0.81113 0.0
Cd366 Cd 0.85391 0.54507 0.77205 0.0
O367 O 0.89061 0.56626 0.75694 0.0
O368 O 0.92562 0.50884 0.82875 0.0
O369 O 0.90961 0.49512 0.78593 0.0
C370 C 0.9304 0.49589 0.80453 0.0
C371 C 0.80816 0.53635 0.75426 0.0
C372 C 0.90566 0.57606 0.77779 0.0
C373 C 0.83923 0.54658 0.83455 0.0
O374 O 0.84219 0.56018 0.81108 0.0
O375 O 0.85447 0.52412 0.8391 0.0
O376 O 0.82017 0.56116 0.75053 0.0
O377 O 0.82443 0.51496 0.7618 0.0
O378 O 0.19038 0.59708 0.06528 0.0
Cd379 Cd 0.19725 0.60468 0.0234 0.0
Cd380 Cd 0.2207 0.64899 0.05873 0.0
O381 O 0.22687 0.61625 0.08876 0.0
O382 O 0.17895 0.56725 0.01116 0.0
O383 O 0.22565 0.57515 0.00715 0.0
C384 C 0.20444 0.55707 0.00686 0.0
C385 C 0.23951 0.69534 0.05482 0.0
C386 C 0.2058 0.59867 0.08767 0.0
C387 C 0.16332 0.65599 0.03021 0.0
O388 O 0.17812 0.65732 0.05316 0.0
O389 O 0.17003 0.63825 0.01013 0.0
O390 O 0.23222 0.68501 0.07957 0.0
O391 O 0.24158 0.67744 0.03353 0.0
O392 O 0.18406 0.35162 0.93322 0.0
Cd393 Cd 0.22092 0.37151 0.94546 0.0
Cd394 Cd 0.18127 0.39784 0.96981 0.0
O395 O 0.15927 0.35874 0.97259 0.0
O396 O 0.24922 0.34382 0.92904 0.0
O397 O 0.23693 0.34502 0.97534 0.0
C398 C 0.24714 0.33075 0.95357 0.0
C399 C 0.1986 0.43451 0.99839 0.0
C400 C 0.1633 0.34443 0.94942 0.0
C401 C 0.20286 0.42335 0.91814 0.0
O402 O 0.17947 0.41466 0.92934 0.0
O403 O 0.22659 0.41208 0.92638 0.0
O404 O 0.17109 0.43118 0.9946 0.0
O405 O 0.2156 0.41363 0.99078 0.0
O406 O 0.34095 0.94738 0.18871 0.0
Cd407 Cd 0.35239 0.95109 0.23104 0.0
Cd408 Cd 0.3919 0.97785 0.19954 0.0
O409 O 0.35555 0.99063 0.1769 0.0
O410 O 0.3165 0.93477 0.24781 0.0
O411 O 0.32856 0.98069 0.2526 0.0
C412 C 0.30917 0.96074 0.25468 0.0
C413 C 0.43796 0.99943 0.19879 0.0
C414 C 0.33931 0.96906 0.17215 0.0
C415 C 0.40262 0.9196 0.22049 0.0
O416 O 0.40025 0.93484 0.19796 0.0
O417 O 0.3878 0.92599 0.24274 0.0
O418 O 0.42552 0.99007 0.17583 0.0
O419 O 0.42242 0.99942 0.22194 0.0
O420 O 0.80887 0.16023 0.44993 0.0
Cd421 Cd 0.76958 0.14484 0.44151 0.0
Cd422 Cd 0.80583 0.10481 0.47748 0.0
O423 O 0.83627 0.13786 0.48126 0.0
O424 O 0.75759 0.18102 0.42137 0.0
O425 O 0.74062 0.16856 0.46417 0.0
C426 C 0.74463 0.18828 0.44484 0.0
C427 C 0.79615 0.06092 0.4995 0.0
C428 C 0.83235 0.15844 0.46334 0.0
C429 C 0.79391 0.09453 0.41267 0.0
O430 O 0.80673 0.0921 0.43653 0.0
O431 O 0.77342 0.11278 0.40943 0.0
O432 O 0.82214 0.06801 0.49261 0.0
O433 O 0.77657 0.08081 0.49916 0.0
O434 O 0.6514 0.55065 0.69727 0.0
Cd435 Cd 0.63923 0.54488 0.73883 0.0
Cd436 Cd 0.599 0.52138 0.70543 0.0
O437 O 0.6287 0.51697 0.67283 0.0
O438 O 0.67516 0.56157 0.75491 0.0
O439 O 0.66473 0.51502 0.7578 0.0
C440 C 0.6836 0.5355 0.75946 0.0
C441 C 0.55622 0.49711 0.71454 0.0
C442 C 0.64739 0.53705 0.67395 0.0
C443 C 0.58856 0.57891 0.73049 0.0
O444 O 0.58778 0.56312 0.7083 0.0
O445 O 0.6056 0.57255 0.75116 0.0
O446 O 0.56181 0.50782 0.68952 0.0
O447 O 0.57686 0.49595 0.73322 0.0
O448 O 0.57036 0.67809 0.59642 0.0
Cd449 Cd 0.53111 0.68925 0.61083 0.0
Cd450 Cd 0.56625 0.71831 0.63945 0.0
O451 O 0.58961 0.72083 0.60087 0.0
O452 O 0.50709 0.67106 0.57994 0.0
O453 O 0.51711 0.71785 0.58158 0.0
C454 C 0.50898 0.69559 0.5667 0.0
C455 C 0.54627 0.74625 0.67559 0.0
C456 C 0.58929 0.69616 0.58863 0.0
C457 C 0.54735 0.66704 0.66615 0.0
O458 O 0.57057 0.67866 0.6576 0.0
O459 O 0.52398 0.673 0.65272 0.0
O460 O 0.57402 0.74488 0.67225 0.0
O461 O 0.53007 0.7367 0.65489 0.0
O462 O 0.06659 0.30047 0.90712 0.0
Cd463 Cd 0.024 0.30775 0.90039 0.0
Cd464 Cd 0.04265 0.27262 0.85906 0.0
O465 O 0.0695 0.25596 0.89076 0.0
O466 O 0.01518 0.32919 0.93647 0.0
O467 O 0.00381 0.2834 0.92959 0.0
C468 C 0.00807 0.30458 0.94726 0.0
C469 C 0.02876 0.25429 0.81448 0.0
C470 C 0.07907 0.27613 0.9068 0.0
C471 C 0.03871 0.33634 0.85064 0.0
O472 O 0.0538 0.31361 0.84932 0.0
O473 O 0.0175 0.33777 0.86799 0.0
O474 O 0.05554 0.25626 0.82151 0.0
O475 O 0.0096 0.25841 0.83432 0.0
O476 O 0.9422 0.18761 0.34644 0.0
Cd477 Cd 0.95475 0.22626 0.36239 0.0
Cd478 Cd 0.9786 0.18843 0.39422 0.0
O479 O 0.97951 0.16125 0.35887 0.0
O480 O 0.93891 0.24861 0.32966 0.0
O481 O 0.98585 0.24363 0.33757 0.0
C482 C 0.965 0.25004 0.32013 0.0
C483 C 0.00952 0.1997 0.43079 0.0
C484 C 0.95706 0.16488 0.3435 0.0
C485 C 0.92602 0.21632 0.41545 0.0
O486 O 0.93881 0.19241 0.41197 0.0
O487 O 0.9329 0.23788 0.39982 0.0
O488 O 0.00013 0.17361 0.42759 0.0
O489 O 0.00563 0.21787 0.40993 0.0
O490 O 0.05838 0.19811 0.60125 0.0
Cd491 Cd 0.0148 0.19787 0.60107 0.0
Cd492 Cd 0.03337 0.22879 0.6474 0.0
O493 O 0.06383 0.24227 0.61755 0.0
O494 O 0.00903 0.17773 0.5636 0.0
O495 O 0.0023 0.22453 0.56936 0.0
C496 C 0.00587 0.20286 0.55219 0.0
C497 C 0.02527 0.24957 0.69181 0.0
C498 C 0.07295 0.22113 0.60265 0.0
C499 C 0.01699 0.16564 0.65078 0.0
O500 O 0.03456 0.18577 0.65642 0.0
O501 O 0.99865 0.16896 0.63066 0.0
O502 O 0.05051 0.24069 0.68457 0.0
O503 O 0.00532 0.25057 0.67239 0.0
O504 O 0.43581 0.68874 0.35109 0.0
Cd505 Cd 0.44992 0.72904 0.36031 0.0
Cd506 Cd 0.47496 0.69294 0.39804 0.0
O507 O 0.47748 0.66889 0.35915 0.0
O508 O 0.44031 0.74893 0.32301 0.0
O509 O 0.48513 0.7395 0.33643 0.0
C510 C 0.46728 0.74705 0.31633 0.0
C511 C 0.49997 0.6948 0.44127 0.0
C512 C 0.45445 0.67019 0.34402 0.0
C513 C 0.41931 0.72365 0.41167 0.0
O514 O 0.4339 0.70053 0.41117 0.0
O515 O 0.42616 0.74454 0.39503 0.0
O516 O 0.48791 0.67115 0.43282 0.0
O517 O 0.50286 0.7155 0.42268 0.0
O518 O 0.56425 0.79871 0.90255 0.0
Cd519 Cd 0.52099 0.80249 0.89618 0.0
Cd520 Cd 0.54739 0.77379 0.84521 0.0
O521 O 0.57714 0.76088 0.87658 0.0
O522 O 0.51276 0.82094 0.93446 0.0
O523 O 0.49634 0.77783 0.92313 0.0
C524 C 0.50042 0.79744 0.94248 0.0
C525 C 0.54168 0.75653 0.79783 0.0
C526 C 0.58237 0.77915 0.89653 0.0
C527 C 0.52906 0.83703 0.8458 0.0
O528 O 0.54676 0.81714 0.83983 0.0
O529 O 0.51067 0.83391 0.86601 0.0
O530 O 0.5662 0.7656 0.80712 0.0
O531 O 0.52124 0.7532 0.81651 0.0
O532 O 0.59164 0.42891 0.30976 0.0
Cd533 Cd 0.6089 0.46879 0.30155 0.0
Cd534 Cd 0.63879 0.43549 0.27375 0.0
O535 O 0.59858 0.41723 0.26475 0.0
O536 O 0.57812 0.49422 0.31653 0.0
O537 O 0.58749 0.48886 0.26999 0.0
C538 C 0.57031 0.49801 0.29001 0.0
C539 C 0.6785 0.45024 0.24792 0.0
C540 C 0.58442 0.41389 0.28806 0.0
C541 C 0.66092 0.45411 0.32727 0.0
O542 O 0.65349 0.43072 0.31516 0.0
O543 O 0.64889 0.47748 0.31941 0.0
O544 O 0.67222 0.4231 0.25035 0.0
O545 O 0.65911 0.46887 0.25551 0.0
O546 O 0.30918 0.41046 0.56829 0.0
Cd547 Cd 0.30802 0.39123 0.52988 0.0
Cd548 Cd 0.27211 0.35965 0.56484 0.0
O549 O 0.27055 0.39645 0.59174 0.0
O550 O 0.32543 0.42513 0.50958 0.0
O551 O 0.27923 0.41358 0.50581 0.0
C552 C 0.29943 0.43269 0.50302 0.0
C553 C 0.24541 0.31925 0.55332 0.0
C554 C 0.2925 0.41306 0.58966 0.0
C555 C 0.33295 0.33866 0.55316 0.0
O556 O 0.31066 0.34062 0.56874 0.0
O557 O 0.33582 0.35502 0.53104 0.0
O558 O 0.24998 0.32609 0.57996 0.0
O559 O 0.2498 0.3388 0.5338 0.0
O560 O 0.40167 0.06233 0.79397 0.0
Cd561 Cd 0.39177 0.02178 0.80625 0.0
Cd562 Cd 0.34865 0.04663 0.769 0.0
O563 O 0.38257 0.06996 0.75114 0.0
O564 O 0.42672 0.02008 0.83131 0.0
O565 O 0.42227 0.99317 0.79304 0.0
C566 C 0.43876 0.00289 0.8132 0.0
C567 C 0.30072 0.03995 0.75478 0.0
C568 C 0.40082 0.07647 0.77066 0.0
C569 C 0.34233 0.04282 0.8333 0.0
O570 O 0.34321 0.05802 0.81063 0.0
O571 O 0.35796 0.02035 0.83563 0.0
O572 O 0.3122 0.06525 0.75495 0.0
O573 O 0.31773 0.01801 0.75751 0.0
O574 O 0.69252 0.08899 0.05338 0.0
Cd575 Cd 0.68689 0.10381 0.01351 0.0
Cd576 Cd 0.73106 0.14008 0.04222 0.0
O577 O 0.72987 0.10894 0.07519 0.0
O578 O 0.66496 0.0695 0.00034 0.0
O579 O 0.70958 0.07901 0.98591 0.0
C580 C 0.68863 0.06078 0.98866 0.0
C581 C 0.75594 0.18287 0.03716 0.0
C582 C 0.7088 0.09115 0.07504 0.0
C583 C 0.6669 0.15887 0.03316 0.0
O584 O 0.69261 0.15913 0.04136 0.0
O585 O 0.65818 0.13858 0.01669 0.0
O586 O 0.74772 0.17409 0.06216 0.0
O587 O 0.75673 0.16429 0.0164 0.0
O588 O 0.94032 0.30209 0.09843 0.0
Cd589 Cd 0.9818 0.30267 0.11247 0.0
Cd590 Cd 0.95157 0.27275 0.15021 0.0
O591 O 0.9293 0.25876 0.11395 0.0
O592 O 0.99778 0.32186 0.07792 0.0
O593 O 0.00752 0.27649 0.08937 0.0
C594 C 0.00778 0.297 0.07046 0.0
C595 C 0.95904 0.25424 0.1957 0.0
C596 C 0.9243 0.28005 0.09729 0.0
C597 C 0.96522 0.33282 0.16207 0.0
O598 O 0.9447 0.31509 0.1589 0.0
O599 O 0.98841 0.32948 0.1477 0.0
O600 O 0.93333 0.25563 0.18512 0.0
O601 O 0.98067 0.25786 0.17839 0.0
O602 O 0.93616 0.79898 0.59086 0.0
Cd603 Cd 0.97705 0.80066 0.60631 0.0
Cd604 Cd 0.94847 0.77054 0.6414 0.0
O605 O 0.92544 0.7555 0.60593 0.0
O606 O 0.99395 0.82051 0.5726 0.0
O607 O 0.00328 0.7748 0.58361 0.0
C608 C 0.00337 0.79547 0.56479 0.0
C609 C 0.96996 0.75176 0.68256 0.0
C610 C 0.9204 0.77677 0.5892 0.0
C611 C 0.95734 0.82867 0.65719 0.0
O612 O 0.93666 0.81179 0.65153 0.0
O613 O 0.98141 0.82465 0.64438 0.0
O614 O 0.94244 0.74956 0.6785 0.0
O615 O 0.98584 0.76001 0.66107 0.0
O616 O 0.59391 0.94971 0.80265 0.0
Cd617 Cd 0.60808 0.98997 0.80987 0.0
Cd618 Cd 0.64442 0.94927 0.76569 0.0
O619 O 0.61053 0.91973 0.76982 0.0
O620 O 0.57456 0.99918 0.8346 0.0
O621 O 0.5806 0.01833 0.79128 0.0
C622 C 0.5636 0.01187 0.81245 0.0
C623 C 0.68749 0.94958 0.74063 0.0
C624 C 0.593 0.92552 0.79031 0.0
C625 C 0.66193 0.96872 0.82978 0.0
O626 O 0.65961 0.95756 0.80519 0.0
O627 O 0.64366 0.98777 0.83764 0.0
O628 O 0.67899 0.92677 0.75401 0.0
O629 O 0.66896 0.96999 0.73626 0.0
O630 O 0.31555 0.90352 0.06554 0.0
Cd631 Cd 0.31125 0.88798 0.02483 0.0
Cd632 Cd 0.27381 0.86035 0.05133 0.0
O633 O 0.26891 0.90007 0.07222 0.0
O634 O 0.32169 0.92164 0.00109 0.0
O635 O 0.27665 0.90543 0.00561 0.0
C636 C 0.29425 0.92576 0.99795 0.0
C637 C 0.24632 0.81986 0.04538 0.0
C638 C 0.29307 0.9115 0.07885 0.0
C639 C 0.33392 0.83712 0.04279 0.0
O640 O 0.31239 0.84147 0.05906 0.0
O641 O 0.33647 0.85159 0.01958 0.0
O642 O 0.25117 0.82993 0.07088 0.0
O643 O 0.2511 0.83641 0.02336 0.0
O644 O 0.40547 0.561 0.30616 0.0
Cd645 Cd 0.40011 0.51755 0.30216 0.0
Cd646 Cd 0.35649 0.54377 0.26988 0.0
O647 O 0.38993 0.57268 0.26268 0.0
O648 O 0.43601 0.50372 0.32161 0.0
O649 O 0.43002 0.50317 0.2743 0.0
C650 C 0.44724 0.5019 0.29623 0.0
C651 C 0.31185 0.54156 0.24738 0.0
C652 C 0.40506 0.57826 0.28496 0.0
C653 C 0.34653 0.52094 0.32964 0.0
O654 O 0.34445 0.54132 0.31167 0.0
O655 O 0.36604 0.50188 0.32648 0.0
O656 O 0.32108 0.56512 0.25875 0.0
O657 O 0.33001 0.52069 0.24395 0.0
O658 O 0.68714 0.5903 0.55515 0.0
Cd659 Cd 0.70275 0.59938 0.5154 0.0
Cd660 Cd 0.72562 0.63938 0.5494 0.0
O661 O 0.72789 0.60289 0.57582 0.0
O662 O 0.69953 0.561 0.49633 0.0
O663 O 0.74141 0.58041 0.50923 0.0
C664 C 0.72689 0.55801 0.50094 0.0
C665 C 0.74274 0.68648 0.55359 0.0
C666 C 0.7043 0.58862 0.57627 0.0
C667 C 0.67117 0.65011 0.51769 0.0
O668 O 0.68423 0.64939 0.54161 0.0
O669 O 0.67879 0.633 0.4975 0.0
O670 O 0.73384 0.67256 0.57594 0.0
O671 O 0.74785 0.67168 0.53051 0.0
C672 C 0.16462 0.58158 0.11593 0.0
C673 C 0.19506 0.58171 0.11243 0.0
C674 C 0.19824 0.54007 0.1449 0.0
C675 C 0.16766 0.539 0.1459 0.0
N676 N 0.12236 0.55246 0.12485 0.0
N677 N 0.2409 0.55816 0.1203 0.0
C678 C 0.15121 0.55731 0.12821 0.0
C679 C 0.21206 0.56005 0.12594 0.0
N680 N 0.14863 0.60514 0.10814 0.0
N681 N 0.2138 0.52276 0.16295 0.0
H682 H 0.25168 0.57289 0.10715 0.0
H683 H 0.25374 0.54116 0.12747 0.0
H684 H 0.20384 0.50735 0.17606 0.0
H685 H 0.23602 0.52461 0.16577 0.0
H686 H 0.12658 0.60689 0.11226 0.0
H687 H 0.1581 0.62414 0.10057 0.0
H688 H 0.10956 0.56433 0.11065 0.0
H689 H 0.11218 0.53461 0.13412 0.0
C690 C 0.72483 0.42674 0.36965 0.0
C691 C 0.71587 0.43476 0.39771 0.0
C692 C 0.67701 0.46471 0.37792 0.0
C693 C 0.68302 0.45316 0.35027 0.0
N694 N 0.71729 0.43097 0.31803 0.0
N695 N 0.69271 0.47107 0.42707 0.0
C696 C 0.70863 0.4368 0.34558 0.0
C697 C 0.69546 0.45749 0.40109 0.0
N698 N 0.74782 0.40867 0.36606 0.0
N699 N 0.65219 0.47992 0.383 0.0
H700 H 0.70422 0.46466 0.44517 0.0
H701 H 0.68092 0.49 0.43001 0.0
H702 H 0.63744 0.4857 0.36713 0.0
H703 H 0.6449 0.48516 0.40362 0.0
H704 H 0.75253 0.39797 0.34688 0.0
H705 H 0.76288 0.40499 0.38231 0.0
H706 H 0.73695 0.42156 0.31263 0.0
H707 H 0.70545 0.43762 0.30019 0.0
C708 C 0.80412 0.96287 0.64472 0.0
C709 C 0.8345 0.96587 0.64355 0.0
C710 C 0.8376 0.92987 0.60581 0.0
C711 C 0.80687 0.92582 0.60691 0.0
N712 N 0.7605 0.94413 0.62235 0.0
N713 N 0.87815 0.96108 0.61662 0.0
C714 C 0.78987 0.94407 0.62486 0.0
C715 C 0.85033 0.95264 0.62151 0.0
N716 N 0.78925 0.97762 0.66544 0.0
N717 N 0.85515 0.91108 0.59122 0.0
H718 H 0.8878 0.97761 0.62849 0.0
H719 H 0.89031 0.95407 0.59904 0.0
H720 H 0.84798 0.89346 0.57946 0.0
H721 H 0.87756 0.91129 0.59297 0.0
H722 H 0.76732 0.97498 0.66948 0.0
H723 H 0.79954 0.99222 0.67919 0.0
H724 H 0.74711 0.95853 0.6332 0.0
H725 H 0.74945 0.9312 0.60766 0.0
C726 C 0.29933 0.04412 0.86662 0.0
C727 C 0.32627 0.05572 0.85752 0.0
C728 C 0.31005 0.10343 0.87138 0.0
C729 C 0.28646 0.09167 0.88631 0.0
N730 N 0.2564 0.05083 0.8965 0.0
N731 N 0.35953 0.09579 0.85778 0.0
C732 C 0.28039 0.06183 0.88347 0.0
C733 C 0.33249 0.08512 0.86261 0.0
N734 N 0.29153 0.01698 0.85829 0.0
N735 N 0.31013 0.13177 0.86382 0.0
H736 H 0.37673 0.08254 0.85167 0.0
H737 H 0.36512 0.11706 0.86267 0.0
H738 H 0.29215 0.14488 0.86732 0.0
H739 H 0.32634 0.14088 0.85109 0.0
H740 H 0.27103 0.00843 0.86172 0.0
H741 H 0.30539 0.0035 0.84675 0.0
H742 H 0.25148 0.02891 0.89701 0.0
H743 H 0.24185 0.06409 0.9075 0.0
C744 C 0.21315 0.44493 0.86893 0.0
C745 C 0.20099 0.44734 0.89692 0.0
C746 C 0.16713 0.48436 0.87975 0.0
C747 C 0.17652 0.47875 0.8513 0.0
N748 N 0.21587 0.46507 0.82056 0.0
N749 N 0.17515 0.47715 0.93086 0.0
C750 C 0.20255 0.46328 0.84678 0.0
C751 C 0.1811 0.47 0.90292 0.0
N752 N 0.23264 0.42369 0.8627 0.0
N753 N 0.14362 0.50145 0.88451 0.0
H754 H 0.18466 0.46639 0.94808 0.0
H755 H 0.16305 0.49512 0.93684 0.0
H756 H 0.13453 0.51428 0.86846 0.0
H757 H 0.13296 0.50268 0.90427 0.0
H758 H 0.23913 0.4187 0.84175 0.0
H759 H 0.24142 0.41003 0.8782 0.0
H760 H 0.23591 0.45585 0.81618 0.0
H761 H 0.20782 0.47835 0.80421 0.0
C762 C 0.81545 0.40847 0.11875 0.0
C763 C 0.78966 0.42 0.10694 0.0
C764 C 0.79651 0.46362 0.13655 0.0
C765 C 0.8207 0.45033 0.15 0.0
N766 N 0.84639 0.40511 0.1595 0.0
N767 N 0.75408 0.4576 0.10577 0.0
C768 C 0.82787 0.42126 0.14306 0.0
C769 C 0.77959 0.44735 0.11633 0.0
N770 N 0.82991 0.38651 0.10539 0.0
N771 N 0.78972 0.49151 0.14326 0.0
H772 H 0.74171 0.44584 0.09106 0.0
H773 H 0.74422 0.47647 0.11292 0.0
H774 H 0.8013 0.50341 0.15846 0.0
H775 H 0.77381 0.50337 0.13276 0.0
H776 H 0.85078 0.38025 0.1111 0.0
H777 H 0.82268 0.37668 0.08671 0.0
H778 H 0.84861 0.38285 0.15683 0.0
H779 H 0.85793 0.41259 0.17712 0.0
C780 C 0.78948 0.05685 0.37292 0.0
C781 C 0.80641 0.07653 0.38923 0.0
C782 C 0.85033 0.05115 0.37386 0.0
C783 C 0.8342 0.03551 0.35362 0.0
N784 N 0.78847 0.0224 0.33324 0.0
N785 N 0.85403 0.0957 0.40001 0.0
C786 C 0.80364 0.03778 0.35325 0.0
C787 C 0.83718 0.07451 0.38825 0.0
N788 N 0.76027 0.05582 0.37667 0.0
N789 N 0.8787 0.04449 0.37819 0.0
H790 H 0.84561 0.11395 0.40996 0.0
H791 H 0.87633 0.09666 0.3972 0.0
H792 H 0.88868 0.02734 0.36751 0.0
H793 H 0.89115 0.0538 0.39444 0.0
H794 H 0.74719 0.04012 0.36734 0.0
H795 H 0.74929 0.06951 0.39074 0.0
H796 H 0.76649 0.02514 0.32947 0.0
H797 H 0.79856 0.00756 0.31958 0.0
C798 C 0.23006 0.07461 0.63236 0.0
C799 C 0.22406 0.06798 0.60328 0.0
C800 C 0.19226 0.02821 0.61803 0.0
C801 C 0.19418 0.03826 0.64684 0.0
N802 N 0.22399 0.06118 0.68257 0.0
N803 N 0.21125 0.03142 0.56918 0.0
C804 C 0.21662 0.0579 0.6543 0.0
C805 C 0.20949 0.0419 0.59659 0.0
N806 N 0.24647 0.09812 0.63899 0.0
N807 N 0.17272 0.00744 0.61074 0.0
H808 H 0.22402 0.04174 0.55374 0.0
H809 H 0.20266 0.01167 0.56278 0.0
H810 H 0.16122 0.99563 0.62599 0.0
H811 H 0.16761 0.00218 0.58949 0.0
H812 H 0.24835 0.10649 0.65977 0.0
H813 H 0.25789 0.10959 0.62337 0.0
H814 H 0.24153 0.07335 0.6896 0.0
H815 H 0.21376 0.04933 0.69866 0.0
C816 C 0.10642 0.21906 0.56148 0.0
C817 C 0.10251 0.21941 0.59174 0.0
C818 C 0.13747 0.18123 0.59779 0.0
C819 C 0.14175 0.18021 0.56731 0.0
N820 N 0.13689 0.20493 0.52139 0.0
N821 N 0.12201 0.21012 0.63854 0.0
C822 C 0.12831 0.20125 0.54936 0.0
C823 C 0.12143 0.20416 0.60972 0.0
N824 N 0.08822 0.23478 0.54447 0.0
N825 N 0.14668 0.15922 0.61518 0.0
H826 H 0.10947 0.22664 0.64738 0.0
H827 H 0.13692 0.20093 0.65265 0.0
H828 H 0.15473 0.13978 0.60719 0.0
H829 H 0.14268 0.15854 0.6373 0.0
H830 H 0.08759 0.23304 0.52206 0.0
H831 H 0.07284 0.24868 0.55336 0.0
H832 H 0.12916 0.22148 0.50827 0.0
H833 H 0.15378 0.19337 0.51209 0.0
C834 C 0.07986 0.36552 0.83557 0.0
C835 C 0.04971 0.3611 0.83404 0.0
C836 C 0.04763 0.39404 0.79277 0.0
C837 C 0.0782 0.39547 0.79306 0.0
N838 N 0.12335 0.37567 0.80892 0.0
N839 N 0.0047 0.36852 0.80885 0.0
C840 C 0.09419 0.37832 0.81221 0.0
C841 C 0.03334 0.37461 0.81193 0.0
N842 N 0.09463 0.35879 0.86012 0.0
N843 N 0.03247 0.41198 0.77499 0.0
H844 H 0.99364 0.35492 0.82296 0.0
H845 H 0.99244 0.37563 0.79141 0.0
H846 H 0.04277 0.42539 0.76006 0.0
H847 H 0.01015 0.41443 0.776 0.0
H848 H 0.11581 0.36554 0.86332 0.0
H849 H 0.08457 0.35033 0.87842 0.0
H850 H 0.13577 0.36181 0.8216 0.0
H851 H 0.1343 0.38517 0.79165 0.0
C852 C 0.85078 0.31083 0.08784 0.0
C853 C 0.8526 0.31894 0.05781 0.0
C854 C 0.89566 0.28821 0.05298 0.0
C855 C 0.89612 0.28434 0.08324 0.0
N856 N 0.87479 0.29144 0.12995 0.0
N857 N 0.87471 0.31183 0.01109 0.0
C858 C 0.8734 0.2947 0.10058 0.0
C859 C 0.87444 0.30648 0.04013 0.0
N860 N 0.82777 0.31826 0.10487 0.0
N861 N 0.9156 0.27386 0.03674 0.0
H862 H 0.85772 0.32183 0.00027 0.0
H863 H 0.89176 0.30662 0.99746 0.0
H864 H 0.93042 0.25974 0.04613 0.0
H865 H 0.91599 0.27384 0.01433 0.0
H866 H 0.82311 0.30787 0.12426 0.0
H867 H 0.81178 0.33301 0.09995 0.0
H868 H 0.86248 0.3034 0.14448 0.0
H869 H 0.88939 0.27776 0.14018 0.0
C870 C 0.91506 0.13867 0.32374 0.0
C871 C 0.94546 0.14271 0.32365 0.0
C872 C 0.94906 0.11086 0.28156 0.0
C873 C 0.91854 0.10886 0.28092 0.0
N874 N 0.8726 0.12765 0.29556 0.0
N875 N 0.99139 0.13569 0.29971 0.0
C876 C 0.9017 0.12578 0.29967 0.0
C877 C 0.96259 0.12979 0.30167 0.0
N878 N 0.89914 0.14532 0.34773 0.0
N879 N 0.96493 0.09338 0.26391 0.0
H880 H 0.00223 0.14895 0.31424 0.0
H881 H 0.00418 0.12904 0.28246 0.0
H882 H 0.95521 0.08041 0.24824 0.0
H883 H 0.98719 0.0908 0.26568 0.0
H884 H 0.87728 0.14043 0.34971 0.0
H885 H 0.90849 0.15239 0.36696 0.0
H886 H 0.85937 0.1412 0.30772 0.0
H887 H 0.86244 0.11782 0.27802 0.0
C888 C 0.13539 0.81235 0.46514 0.0
C889 C 0.14617 0.83685 0.45018 0.0
C890 C 0.12438 0.81989 0.40575 0.0
C891 C 0.10984 0.79814 0.42117 0.0
N892 N 0.09888 0.77468 0.46619 0.0
N893 N 0.14316 0.86811 0.4087 0.0
C894 C 0.1147 0.79443 0.45113 0.0
C895 C 0.13815 0.84191 0.42121 0.0
N896 N 0.14538 0.80578 0.49204 0.0
N897 N 0.12399 0.81996 0.37627 0.0
H898 H 0.15278 0.88518 0.41985 0.0
H899 H 0.13443 0.87371 0.38876 0.0
H900 H 0.11409 0.80349 0.36448 0.0
H901 H 0.13587 0.8346 0.36397 0.0
H902 H 0.14034 0.78659 0.50264 0.0
H903 H 0.15998 0.81888 0.50305 0.0
H904 H 0.09908 0.7733 0.48864 0.0
H905 H 0.08444 0.7607 0.45602 0.0
C906 C 0.43834 0.3569 0.69394 0.0
C907 C 0.4515 0.35562 0.66644 0.0
C908 C 0.42807 0.40138 0.65374 0.0
C909 C 0.41233 0.40067 0.68068 0.0
N910 N 0.3945 0.36927 0.71851 0.0
N911 N 0.45447 0.37431 0.6178 0.0
C912 C 0.41524 0.37608 0.69865 0.0
C913 C 0.44549 0.37736 0.6458 0.0
N914 N 0.44712 0.33872 0.7153 0.0
N915 N 0.4271 0.42442 0.63524 0.0
H916 H 0.46848 0.35831 0.61072 0.0
H917 H 0.44641 0.38673 0.60087 0.0
H918 H 0.41246 0.44124 0.6355 0.0
H919 H 0.44263 0.42765 0.61927 0.0
H920 H 0.4396 0.34011 0.73649 0.0
H921 H 0.46414 0.32452 0.71209 0.0
H922 H 0.39504 0.35034 0.73068 0.0
H923 H 0.37465 0.37983 0.71944 0.0
C924 C 0.87713 0.68642 0.89872 0.0
C925 C 0.89229 0.71002 0.91037 0.0
C926 C 0.87173 0.69871 0.95797 0.0
C927 C 0.86073 0.67249 0.94655 0.0
N928 N 0.86129 0.63781 0.90791 0.0
N929 N 0.90657 0.73759 0.95195 0.0
C930 C 0.8662 0.66523 0.91747 0.0
C931 C 0.89024 0.71606 0.94035 0.0
N932 N 0.87448 0.68371 0.86952 0.0
N933 N 0.86407 0.70724 0.98508 0.0
H934 H 0.91931 0.75104 0.93912 0.0
H935 H 0.90829 0.74109 0.9741 0.0
H936 H 0.85135 0.69439 0.99854 0.0
H937 H 0.86913 0.7275 0.99343 0.0
H938 H 0.86227 0.66753 0.85989 0.0
H939 H 0.88215 0.69951 0.85536 0.0
H940 H 0.86808 0.63079 0.88766 0.0
H941 H 0.85394 0.62146 0.92158 0.0
C942 C 0.53443 0.11628 0.16069 0.0
C943 C 0.53267 0.1443 0.17245 0.0
C944 C 0.55472 0.1269 0.21776 0.0
C945 C 0.55935 0.09979 0.20429 0.0
N946 N 0.53646 0.06575 0.17206 0.0
N947 N 0.53179 0.17423 0.21483 0.0
C948 C 0.54347 0.09351 0.17873 0.0
C949 C 0.53971 0.14887 0.20205 0.0
N950 N 0.5297 0.11141 0.132 0.0
N951 N 0.56421 0.13153 0.24522 0.0
H952 H 0.52012 0.18994 0.20366 0.0
H953 H 0.53446 0.17872 0.23666 0.0
H954 H 0.57055 0.11471 0.25873 0.0
H955 H 0.56489 0.15175 0.25497 0.0
H956 H 0.53438 0.09167 0.12222 0.0
H957 H 0.52326 0.12741 0.11759 0.0
H958 H 0.5235 0.06025 0.15449 0.0
H959 H 0.54025 0.04905 0.18655 0.0
C960 C 0.05636 0.84434 0.29366 0.0
C961 C 0.03638 0.84994 0.31651 0.0
C962 C 0.03874 0.90126 0.30479 0.0
C963 C 0.0641 0.896 0.28847 0.0
N964 N 0.09378 0.86278 0.26191 0.0
N965 N 0.00396 0.88377 0.33963 0.0
C966 C 0.0713 0.86758 0.28039 0.0
C967 C 0.02542 0.87831 0.32017 0.0
N968 N 0.06156 0.81657 0.2854 0.0
N969 N 0.0282 0.92868 0.30602 0.0
H970 H 0.99105 0.86776 0.34856 0.0
H971 H 0.99863 0.90438 0.34683 0.0
H972 H 0.03858 0.94542 0.29527 0.0
H973 H 0.00853 0.93435 0.3153 0.0
H974 H 0.07395 0.81071 0.26762 0.0
H975 H 0.05148 0.79926 0.29538 0.0
H976 H 0.10325 0.84271 0.25851 0.0
H977 H 0.10328 0.8792 0.24987 0.0
C978 C 0.38863 0.27713 0.5588 0.0
C979 C 0.39031 0.27459 0.58934 0.0
C980 C 0.35879 0.31605 0.59456 0.0
C981 C 0.35538 0.31814 0.56399 0.0
N982 N 0.36291 0.29621 0.51724 0.0
N983 N 0.36854 0.28485 0.63518 0.0
C984 C 0.36904 0.29731 0.54603 0.0
C985 C 0.37201 0.29143 0.60668 0.0
N986 N 0.40659 0.26076 0.5422 0.0
N987 N 0.35098 0.33844 0.61212 0.0
H988 H 0.37791 0.26661 0.64447 0.0
H989 H 0.35377 0.29548 0.64844 0.0
H990 H 0.34329 0.358 0.60421 0.0
H991 H 0.35547 0.3389 0.63416 0.0
H992 H 0.40934 0.26388 0.5201 0.0
H993 H 0.41942 0.2446 0.55126 0.0
H994 H 0.3702 0.27975 0.50376 0.0
H995 H 0.34879 0.31052 0.50719 0.0
C996 C 0.91602 0.62844 0.76914 0.0
C997 C 0.92616 0.60042 0.77526 0.0
C998 C 0.96357 0.61966 0.80708 0.0
C999 C 0.95193 0.64778 0.80306 0.0
N1000 N 0.92561 0.67965 0.77099 0.0
N1001 N 0.96623 0.57086 0.78868 0.0
C1002 C 0.93114 0.6524 0.78076 0.0
C1003 C 0.95268 0.59688 0.78991 0.0
N1004 N 0.89092 0.63221 0.75422 0.0
N1005 N 0.98272 0.61372 0.82873 0.0
H1006 H 0.9577 0.55424 0.77623 0.0
H1007 H 0.98672 0.56709 0.79715 0.0
H1008 H 0.99156 0.629 0.84248 0.0
H1009 H 0.98849 0.59275 0.83449 0.0
H1010 H 0.88032 0.652 0.75277 0.0
H1011 H 0.88017 0.61524 0.74414 0.0
H1012 H 0.91259 0.68393 0.75317 0.0
H1013 H 0.93647 0.6977 0.77878 0.0
C1014 C 0.13779 0.70259 0.03469 0.0
C1015 C 0.13597 0.67234 0.03087 0.0
C1016 C 0.09643 0.66974 0.06506 0.0
C1017 C 0.09923 0.69991 0.07124 0.0
N1018 N 0.11762 0.74622 0.05603 0.0
N1019 N 0.10634 0.63035 0.03193 0.0
C1020 C 0.11825 0.71681 0.05394 0.0
C1021 C 0.11233 0.65732 0.04209 0.0
N1022 N 0.1593 0.71713 0.02076 0.0
N1023 N 0.08089 0.65208 0.08259 0.0
H1024 H 0.1184 0.62107 0.0153 0.0
H1025 H 0.08784 0.6189 0.03764 0.0
H1026 H 0.06941 0.6597 0.09993 0.0
H1027 H 0.08129 0.62963 0.08125 0.0
H1028 H 0.16386 0.73891 0.02373 0.0
H1029 H 0.17303 0.70665 0.00625 0.0
H1030 H 0.12956 0.75995 0.04288 0.0
H1031 H 0.10346 0.7571 0.06975 0.0
C1032 C 0.46106 0.87865 0.18617 0.0
C1033 C 0.44984 0.85007 0.18769 0.0
C1034 C 0.41272 0.86637 0.22211 0.0
C1035 C 0.42275 0.89487 0.21884 0.0
N1036 N 0.46317 0.92569 0.20911 0.0
N1037 N 0.42381 0.81586 0.21772 0.0
C1038 C 0.4495 0.89995 0.20496 0.0
C1039 C 0.42868 0.84365 0.20931 0.0
N1040 N 0.48076 0.88645 0.16566 0.0
N1041 N 0.38708 0.86092 0.2356 0.0
H1042 H 0.43555 0.79865 0.20955 0.0
H1043 H 0.41066 0.81038 0.23514 0.0
H1044 H 0.37533 0.87667 0.24649 0.0
H1045 H 0.37686 0.8409 0.23479 0.0
H1046 H 0.48634 0.90789 0.16174 0.0
H1047 H 0.49026 0.87228 0.15116 0.0
H1048 H 0.48394 0.92988 0.20155 0.0
H1049 H 0.4548 0.94138 0.22297 0.0
C1050 C 0.35936 0.20508 0.92289 0.0
C1051 C 0.38688 0.20948 0.93445 0.0
C1052 C 0.37161 0.1833 0.97813 0.0
C1053 C 0.34784 0.17172 0.96257 0.0
N1054 N 0.32465 0.16783 0.91611 0.0
N1055 N 0.41883 0.20598 0.97485 0.0
C1056 C 0.34253 0.18224 0.93416 0.0
C1057 C 0.3926 0.20009 0.96301 0.0
N1058 N 0.35076 0.22046 0.89932 0.0
N1059 N 0.37417 0.17821 0.00703 0.0
H1060 H 0.4335 0.21939 0.96428 0.0
H1061 H 0.42612 0.19696 0.9941 0.0
H1062 H 0.35883 0.16646 0.0186 0.0
H1063 H 0.38992 0.18783 0.01984 0.0
H1064 H 0.32991 0.2192 0.89095 0.0
H1065 H 0.36355 0.23682 0.89056 0.0
H1066 H 0.32087 0.17465 0.89507 0.0
H1067 H 0.31711 0.1474 0.92103 0.0
C1068 C 0.6224 0.32026 0.40857 0.0
C1069 C 0.60571 0.30015 0.42387 0.0
C1070 C 0.62812 0.31617 0.4692 0.0
C1071 C 0.64158 0.33904 0.45382 0.0
N1072 N 0.64305 0.36777 0.41028 0.0
N1073 N 0.59017 0.27979 0.46905 0.0
C1074 C 0.63587 0.34262 0.42391 0.0
C1075 C 0.60787 0.29822 0.45439 0.0
N1076 N 0.62456 0.31848 0.37921 0.0
N1077 N 0.63512 0.31113 0.49735 0.0
H1078 H 0.57615 0.26573 0.45839 0.0
H1079 H 0.58838 0.27959 0.49146 0.0
H1080 H 0.64917 0.32438 0.50886 0.0
H1081 H 0.62804 0.29309 0.50876 0.0
H1082 H 0.63841 0.33153 0.3672 0.0
H1083 H 0.61482 0.30187 0.36749 0.0
H1084 H 0.63767 0.37207 0.38885 0.0
H1085 H 0.65133 0.38546 0.42149 0.0
C1086 C 0.68953 0.92476 0.84712 0.0
C1087 C 0.68354 0.95518 0.84955 0.0
C1088 C 0.7161 0.95728 0.89124 0.0
C1089 C 0.72044 0.9272 0.88883 0.0
N1090 N 0.72296 0.88605 0.85816 0.0
N1091 N 0.69916 0.00132 0.86824 0.0
C1092 C 0.71183 0.91271 0.86391 0.0
C1093 C 0.69947 0.9719 0.8698 0.0
N1094 N 0.67247 0.90645 0.83139 0.0
N1095 N 0.72714 0.97136 0.91459 0.0
H1096 H 0.68825 0.01248 0.85204 0.0
H1097 H 0.71189 0.0145 0.88123 0.0
H1098 H 0.73993 0.96065 0.92977 0.0
H1099 H 0.72309 0.99297 0.9192 0.0
H1100 H 0.67482 0.88409 0.83204 0.0
H1101 H 0.65383 0.91225 0.82048 0.0
H1102 H 0.71891 0.87496 0.839 0.0
H1103 H 0.73865 0.87675 0.87143 0.0
C1104 C 0.30239 0.52965 0.3583 0.0
C1105 C 0.33282 0.52682 0.35764 0.0
C1106 C 0.33777 0.56792 0.38939 0.0
C1107 C 0.30705 0.57084 0.39124 0.0
N1108 N 0.26027 0.54924 0.38247 0.0
N1109 N 0.37796 0.53566 0.38113 0.0
C1110 C 0.28924 0.55021 0.3771 0.0
C1111 C 0.34983 0.54312 0.37656 0.0
N1112 N 0.28629 0.51299 0.34022 0.0
N1113 N 0.35567 0.58932 0.39896 0.0
H1114 H 0.38707 0.51722 0.37197 0.0
H1115 H 0.39095 0.54572 0.3965 0.0
H1116 H 0.34827 0.6085 0.40786 0.0
H1117 H 0.37787 0.58931 0.39533 0.0
H1118 H 0.26434 0.5162 0.33674 0.0
H1119 H 0.29568 0.49641 0.32818 0.0
H1120 H 0.24694 0.53279 0.37497 0.0
H1121 H 0.24979 0.56353 0.39627 0.0
C1122 C 0.19511 0.90875 0.36023 0.0
C1123 C 0.18319 0.93729 0.36216 0.0
C1124 C 0.22236 0.9493 0.39647 0.0
C1125 C 0.23276 0.92063 0.3943 0.0
N1126 N 0.2384 0.87968 0.36361 0.0
N1127 N 0.18456 0.98401 0.38612 0.0
C1128 C 0.22261 0.90303 0.37203 0.0
C1129 C 0.1969 0.95772 0.38099 0.0
N1130 N 0.1792 0.88614 0.34994 0.0
N1131 N 0.2358 0.96725 0.41561 0.0
H1132 H 0.16288 0.98835 0.38243 0.0
H1133 H 0.19478 0.00097 0.39663 0.0
H1134 H 0.25436 0.96061 0.42659 0.0
H1135 H 0.22948 0.98823 0.42037 0.0
H1136 H 0.18676 0.86494 0.34993 0.0
H1137 H 0.15709 0.88736 0.34615 0.0
H1138 H 0.23258 0.86674 0.34614 0.0
H1139 H 0.25894 0.87576 0.37199 0.0
C1140 C 0.79824 0.54174 0.87109 0.0
C1141 C 0.81852 0.55906 0.85579 0.0
C1142 C 0.79197 0.60225 0.87112 0.0
C1143 C 0.77751 0.58583 0.89202 0.0
N1144 N 0.76423 0.53973 0.91113 0.0
N1145 N 0.8368 0.60705 0.84539 0.0
C1146 C 0.77939 0.55535 0.8913 0.0
C1147 C 0.81573 0.58974 0.85664 0.0
N1148 N 0.79636 0.51279 0.86591 0.0
N1149 N 0.7847 0.63055 0.8675 0.0
H1150 H 0.85705 0.59932 0.83926 0.0
H1151 H 0.83563 0.62944 0.84538 0.0
H1152 H 0.76774 0.63986 0.87908 0.0
H1153 H 0.79325 0.64352 0.85123 0.0
H1154 H 0.78041 0.49974 0.87489 0.0
H1155 H 0.80905 0.50221 0.85068 0.0
H1156 H 0.76692 0.51762 0.91425 0.0
H1157 H 0.74975 0.54965 0.9253 0.0
C1158 C 0.86957 0.80232 0.53271 0.0
C1159 C 0.85277 0.82103 0.55031 0.0
C1160 C 0.87267 0.7979 0.59417 0.0
C1161 C 0.89164 0.78194 0.57659 0.0
N1162 N 0.90535 0.76352 0.53061 0.0
N1163 N 0.83722 0.8355 0.59869 0.0
C1164 C 0.88904 0.78245 0.54618 0.0
C1165 C 0.8539 0.81832 0.58131 0.0
N1166 N 0.86659 0.80336 0.50336 0.0
N1167 N 0.87481 0.7952 0.62356 0.0
H1168 H 0.82686 0.85411 0.59187 0.0
H1169 H 0.833 0.83149 0.62035 0.0
H1170 H 0.88663 0.77869 0.63326 0.0
H1171 H 0.86556 0.80903 0.6386 0.0
H1172 H 0.87845 0.79096 0.48892 0.0
H1173 H 0.85188 0.8169 0.49307 0.0
H1174 H 0.90524 0.76187 0.50826 0.0
H1175 H 0.91811 0.74803 0.54087 0.0
C1176 C 0.1097 0.28106 0.9496 0.0
C1177 C 0.108 0.27563 0.91966 0.0
C1178 C 0.14333 0.31245 0.90989 0.0
C1179 C 0.1447 0.31968 0.93997 0.0
N1180 N 0.13707 0.30215 0.98885 0.0
N1181 N 0.13307 0.27499 0.87477 0.0
C1182 C 0.13043 0.30122 0.96016 0.0
C1183 C 0.12928 0.28677 0.90144 0.0
N1184 N 0.09031 0.26799 0.96747 0.0
N1185 N 0.15258 0.33114 0.88901 0.0
H1186 H 0.12143 0.2568 0.86831 0.0
H1187 H 0.14959 0.28135 0.86086 0.0
H1188 H 0.15699 0.35282 0.89289 0.0
H1189 H 0.15126 0.32656 0.86703 0.0
H1190 H 0.08811 0.27302 0.98928 0.0
H1191 H 0.07562 0.25278 0.95962 0.0
H1192 H 0.12837 0.28788 0.0039 0.0
H1193 H 0.1537 0.31475 0.99714 0.0
C1194 C 0.87386 0.21233 0.41701 0.0
C1195 C 0.89937 0.21555 0.43281 0.0
C1196 C 0.87689 0.18926 0.47304 0.0
C1197 C 0.85537 0.17894 0.45383 0.0
N1198 N 0.83918 0.17695 0.40326 0.0
N1199 N 0.92562 0.20795 0.47674 0.0
C1200 C 0.85501 0.18975 0.42468 0.0
C1201 C 0.9008 0.20467 0.46138 0.0
N1202 N 0.86889 0.22898 0.39324 0.0
N1203 N 0.87442 0.185 0.50207 0.0
H1204 H 0.94278 0.21999 0.46857 0.0
H1205 H 0.92942 0.19775 0.49643 0.0
H1206 H 0.85646 0.17521 0.51144 0.0
H1207 H 0.88866 0.19403 0.51695 0.0
H1208 H 0.84949 0.2283 0.38184 0.0
H1209 H 0.8827 0.24574 0.38731 0.0
H1210 H 0.84086 0.18309 0.38166 0.0
H1211 H 0.82763 0.1579 0.40552 0.0
C1212 C 0.57004 0.6551 0.71374 0.0
C1213 C 0.54897 0.6482 0.69229 0.0
C1214 C 0.54305 0.60133 0.71553 0.0
C1215 C 0.57003 0.605 0.72941 0.0
N1216 N 0.60746 0.63709 0.74551 0.0
N1217 N 0.51397 0.61365 0.67414 0.0
C1218 C 0.58256 0.63267 0.73044 0.0
C1219 C 0.53426 0.62137 0.69408 0.0
N1220 N 0.57824 0.68306 0.71791 0.0
N1221 N 0.5271 0.5774 0.72164 0.0
H1222 H 0.50631 0.62727 0.65809 0.0
H1223 H 0.50575 0.59278 0.67254 0.0
H1224 H 0.53411 0.56261 0.73708 0.0
H1225 H 0.5063 0.57396 0.71382 0.0
H1226 H 0.59138 0.6897 0.73489 0.0
H1227 H 0.5694 0.69994 0.70612 0.0
H1228 H 0.61999 0.65565 0.74344 0.0
H1229 H 0.61586 0.62182 0.75971 0.0
C1230 C 0.38984 0.77719 0.05434 0.0
C1231 C 0.3912 0.77829 0.08493 0.0
C1232 C 0.36133 0.82087 0.08516 0.0
C1233 C 0.35695 0.8186 0.05493 0.0
N1234 N 0.36412 0.79151 0.0109 0.0
N1235 N 0.37051 0.79504 0.12935 0.0
C1236 C 0.37023 0.79572 0.03938 0.0
C1237 C 0.37329 0.79745 0.10013 0.0
N1238 N 0.40828 0.75947 0.03976 0.0
N1239 N 0.35594 0.84622 0.09926 0.0
H1240 H 0.3801 0.77813 0.14077 0.0
H1241 H 0.35662 0.80811 0.14133 0.0
H1242 H 0.3501 0.86503 0.08835 0.0
H1243 H 0.36098 0.84943 0.12096 0.0
H1244 H 0.41083 0.75998 0.01742 0.0
H1245 H 0.42189 0.74513 0.05061 0.0
H1246 H 0.37128 0.77357 0.99938 0.0
H1247 H 0.35032 0.80496 0.99932 0.0
C1248 C 0.37114 0.70436 0.40506 0.0
C1249 C 0.38985 0.71999 0.42314 0.0
C1250 C 0.36816 0.69779 0.46626 0.0
C1251 C 0.35193 0.6791 0.44808 0.0
N1252 N 0.33497 0.66777 0.39925 0.0
N1253 N 0.40112 0.73894 0.46941 0.0
C1254 C 0.35229 0.68357 0.41725 0.0
C1255 C 0.38656 0.71902 0.4534 0.0
N1256 N 0.37392 0.70734 0.37577 0.0
N1257 N 0.36578 0.69541 0.49556 0.0
H1258 H 0.41314 0.75517 0.45936 0.0
H1259 H 0.39987 0.74086 0.49173 0.0
H1260 H 0.35131 0.68139 0.50555 0.0
H1261 H 0.37826 0.70694 0.5102 0.0
H1262 H 0.3654 0.6932 0.36056 0.0
H1263 H 0.38596 0.72399 0.36655 0.0
H1264 H 0.33002 0.67381 0.3782 0.0
H1265 H 0.32472 0.64869 0.40489 0.0
C1266 C 0.65996 0.79212 0.91785 0.0
C1267 C 0.65371 0.80842 0.94306 0.0
C1268 C 0.60616 0.78587 0.94403 0.0
C1269 C 0.6092 0.77932 0.91417 0.0
N1270 N 0.64096 0.77342 0.87313 0.0
N1271 N 0.62441 0.81146 0.98602 0.0
C1272 C 0.63686 0.78082 0.90133 0.0
C1273 C 0.62797 0.80215 0.95831 0.0
N1274 N 0.68792 0.78682 0.9103 0.0
N1275 N 0.58223 0.77636 0.95828 0.0
H1276 H 0.64165 0.81844 0.99863 0.0
H1277 H 0.60473 0.81122 0.99685 0.0
H1278 H 0.56702 0.76348 0.94786 0.0
H1279 H 0.57878 0.77886 0.98033 0.0
H1280 H 0.69365 0.77341 0.89316 0.0
H1281 H 0.70505 0.79267 0.92368 0.0
H1282 H 0.66009 0.77779 0.8621 0.0
H1283 H 0.62502 0.76401 0.86043 0.0
C1284 C 0.68476 0.5443 0.60091 0.0
C1285 C 0.69376 0.57374 0.60236 0.0
C1286 C 0.66567 0.57928 0.64621 0.0
C1287 C 0.66175 0.54885 0.64793 0.0
N1288 N 0.67323 0.50168 0.62871 0.0
N1289 N 0.69626 0.61801 0.6302 0.0
C1290 C 0.67302 0.53101 0.62587 0.0
C1291 C 0.68591 0.59064 0.62654 0.0
N1292 N 0.68589 0.52933 0.57558 0.0
N1293 N 0.64832 0.59764 0.66152 0.0
H1294 H 0.71019 0.62817 0.61582 0.0
H1295 H 0.69284 0.62968 0.64915 0.0
H1296 H 0.63052 0.5906 0.67337 0.0
H1297 H 0.64902 0.62 0.65906 0.0
H1298 H 0.67685 0.50886 0.57318 0.0
H1299 H 0.6931 0.53833 0.55632 0.0
H1300 H 0.6835 0.48819 0.6139 0.0
H1301 H 0.66583 0.4911 0.64713 0.0
C1302 C 0.29412 0.95043 0.15104 0.0
C1303 C 0.31974 0.96664 0.14688 0.0
C1304 C 0.31656 0.95714 0.09524 0.0
C1305 C 0.29644 0.93451 0.10094 0.0
N1306 N 0.2659 0.90962 0.13547 0.0
N1307 N 0.3534 0.989 0.11394 0.0
C1308 C 0.28436 0.93169 0.12895 0.0
C1309 C 0.32989 0.97182 0.11857 0.0
N1310 N 0.28 0.95212 0.17682 0.0
N1311 N 0.32323 0.96432 0.06745 0.0
H1312 H 0.36179 0.00286 0.12944 0.0
H1313 H 0.36489 0.98932 0.09461 0.0
H1314 H 0.31462 0.95349 0.04983 0.0
H1315 H 0.33511 0.98254 0.06178 0.0
H1316 H 0.25984 0.9429 0.18059 0.0
H1317 H 0.28752 0.96531 0.19336 0.0
H1318 H 0.25975 0.90459 0.15651 0.0
H1319 H 0.25813 0.8949 0.12046 0.0
C1320 C 0.28931 0.47675 0.6436 0.0
C1321 C 0.3187 0.48529 0.64302 0.0
C1322 C 0.32978 0.4459 0.61094 0.0
C1323 C 0.30019 0.43699 0.61016 0.0
N1324 N 0.25054 0.45065 0.62005 0.0
N1325 N 0.36233 0.48641 0.61535 0.0
C1326 C 0.27936 0.45443 0.62469 0.0
C1327 C 0.33688 0.47329 0.62206 0.0
N1328 N 0.2714 0.48913 0.66336 0.0
N1329 N 0.35151 0.42752 0.6032 0.0
H1330 H 0.36776 0.50658 0.62378 0.0
H1331 H 0.37599 0.47879 0.59914 0.0
H1332 H 0.34816 0.40569 0.59923 0.0
H1333 H 0.37325 0.43302 0.60449 0.0
H1334 H 0.25063 0.48165 0.6676 0.0
H1335 H 0.27831 0.50635 0.67615 0.0
H1336 H 0.23494 0.4645 0.62844 0.0
H1337 H 0.24224 0.43562 0.6056 0.0
C1338 C 0.69717 0.03686 0.13583 0.0
C1339 C 0.66802 0.0431 0.14239 0.0
C1340 C 0.66732 0.08255 0.10765 0.0
C1341 C 0.69709 0.07717 0.10134 0.0
N1342 N 0.74025 0.04907 0.10803 0.0
N1343 N 0.62326 0.06642 0.13116 0.0
C1344 C 0.71208 0.05421 0.11508 0.0
C1345 C 0.65244 0.06413 0.12684 0.0
N1346 N 0.71001 0.01395 0.14919 0.0
N1347 N 0.65338 0.10545 0.09513 0.0
H1348 H 0.61182 0.05126 0.14326 0.0
H1349 H 0.60979 0.08166 0.12175 0.0
H1350 H 0.66364 0.12028 0.08185 0.0
H1351 H 0.63194 0.11103 0.09846 0.0
H1352 H 0.73128 0.00757 0.14608 0.0
H1353 H 0.69835 0.00021 0.16272 0.0
H1354 H 0.75289 0.03293 0.11714 0.0
H1355 H 0.75143 0.06156 0.09301 0.0
C1356 C 0.63014 0.20402 0.09195 0.0
C1357 C 0.60719 0.21596 0.07615 0.0
C1358 C 0.62581 0.195 0.03114 0.0
C1359 C 0.64728 0.18022 0.04741 0.0
N1360 N 0.67435 0.1777 0.09331 0.0
N1361 N 0.58583 0.22945 0.03124 0.0
C1362 C 0.65111 0.18714 0.0776 0.0
C1363 C 0.60615 0.21374 0.04574 0.0
N1364 N 0.63012 0.20618 0.12146 0.0
N1365 N 0.62449 0.19133 0.00189 0.0
H1366 H 0.5718 0.24343 0.04203 0.0
H1367 H 0.58359 0.23003 0.00892 0.0
H1368 H 0.6402 0.18021 0.99024 0.0
H1369 H 0.60809 0.19933 0.98885 0.0
H1370 H 0.64263 0.19327 0.13497 0.0
H1371 H 0.61637 0.22002 0.13269 0.0
H1372 H 0.68086 0.18772 0.11236 0.0
H1373 H 0.68786 0.16061 0.08831 0.0
C1374 C 0.52215 0.38118 0.32683 0.0
C1375 C 0.52597 0.35192 0.31941 0.0
C1376 C 0.55999 0.36495 0.28112 0.0
C1377 C 0.55938 0.39387 0.29131 0.0
N1378 N 0.53016 0.43096 0.31315 0.0
N1379 N 0.53663 0.31798 0.28192 0.0
C1380 C 0.53692 0.40245 0.31047 0.0
C1381 C 0.54052 0.34475 0.29351 0.0
N1382 N 0.50636 0.38854 0.35058 0.0
N1383 N 0.58024 0.35602 0.26166 0.0
H1384 H 0.5225 0.30313 0.29132 0.0
H1385 H 0.54484 0.3119 0.2619 0.0
H1386 H 0.59414 0.36991 0.25087 0.0
H1387 H 0.5839 0.33435 0.25687 0.0
H1388 H 0.50612 0.40928 0.35926 0.0
H1389 H 0.49407 0.37357 0.362 0.0
H1390 H 0.51266 0.43852 0.32509 0.0
H1391 H 0.54039 0.44658 0.30066 0.0
C1392 C 0.45409 0.11549 0.80783 0.0
C1393 C 0.4393 0.14227 0.81148 0.0
C1394 C 0.40705 0.12967 0.77113 0.0
C1395 C 0.4198 0.10215 0.77016 0.0
N1396 N 0.46324 0.07489 0.77583 0.0
N1397 N 0.41204 0.17924 0.78603 0.0
C1398 C 0.44676 0.09794 0.78379 0.0
C1399 C 0.41907 0.15088 0.78969 0.0
N1400 N 0.4728 0.10521 0.82818 0.0
N1401 N 0.38257 0.13501 0.75573 0.0
H1402 H 0.42207 0.19569 0.79746 0.0
H1403 H 0.39927 0.18665 0.76907 0.0
H1404 H 0.37474 0.12052 0.7404 0.0
H1405 H 0.36991 0.15337 0.75874 0.0
H1406 H 0.48154 0.0845 0.82731 0.0
H1407 H 0.47762 0.11567 0.84738 0.0
H1408 H 0.48395 0.07121 0.78382 0.0
H1409 H 0.45675 0.06118 0.75913 0.0
C1410 C 0.93936 0.38268 0.22017 0.0
C1411 C 0.92187 0.40139 0.20319 0.0
C1412 C 0.94204 0.38017 0.15865 0.0
C1413 C 0.95781 0.36052 0.1756 0.0
N1414 N 0.97696 0.3456 0.22114 0.0
N1415 N 0.91266 0.4224 0.15524 0.0
C1416 C 0.95828 0.36275 0.20606 0.0
C1417 C 0.92521 0.40167 0.17223 0.0
N1418 N 0.93818 0.38439 0.24961 0.0
N1419 N 0.94128 0.37675 0.12927 0.0
H1420 H 0.8962 0.43627 0.16133 0.0
H1421 H 0.91953 0.42675 0.13426 0.0
H1422 H 0.95503 0.36276 0.11819 0.0
H1423 H 0.92602 0.3865 0.11594 0.0
H1424 H 0.94907 0.37063 0.26355 0.0
H1425 H 0.92596 0.39984 0.26048 0.0
H1426 H 0.97968 0.34612 0.24339 0.0
H1427 H 0.99108 0.33141 0.21076 0.0
C1428 C 0.074 0.11355 0.65545 0.0
C1429 C 0.07124 0.10313 0.68414 0.0
C1430 C 0.02464 0.12788 0.68814 0.0
C1431 C 0.02727 0.13681 0.65905 0.0
N1432 N 0.04902 0.12939 0.61254 0.0
N1433 N 0.03993 0.09413 0.72509 0.0
C1434 C 0.04991 0.12609 0.64181 0.0
C1435 C 0.04537 0.10842 0.69988 0.0
N1436 N 0.1001 0.11279 0.64168 0.0
N1437 N 0.00268 0.13857 0.70456 0.0
H1438 H 0.05411 0.07914 0.734 0.0
H1439 H 0.02019 0.09527 0.73579 0.0
H1440 H 0.98634 0.15125 0.69557 0.0
H1441 H 0.00137 0.1357 0.72683 0.0
H1442 H 0.10338 0.1214 0.62119 0.0
H1443 H 0.11915 0.10658 0.65197 0.0
H1444 H 0.06416 0.1202 0.59867 0.0
H1445 H 0.03128 0.13846 0.60211 0.0
C1446 C 0.57759 0.89971 0.83543 0.0
C1447 C 0.57463 0.90348 0.80482 0.0
C1448 C 0.53178 0.87219 0.80562 0.0
C1449 C 0.53735 0.86569 0.83494 0.0
N1450 N 0.56504 0.87249 0.87823 0.0
N1451 N 0.54819 0.89452 0.76093 0.0
C1452 C 0.5596 0.87988 0.85011 0.0
C1453 C 0.5514 0.89011 0.78992 0.0
N1454 N 0.5976 0.91508 0.85081 0.0
N1455 N 0.50751 0.86108 0.79315 0.0
H1456 H 0.56146 0.90835 0.74914 0.0
H1457 H 0.53323 0.88374 0.74816 0.0
H1458 H 0.49304 0.8483 0.80481 0.0
H1459 H 0.50059 0.86592 0.77236 0.0
H1460 H 0.59713 0.91708 0.87319 0.0
H1461 H 0.6141 0.92712 0.84167 0.0
H1462 H 0.58397 0.87768 0.88915 0.0
H1463 H 0.55103 0.85978 0.89044 0.0
C1464 C 0.45096 0.60466 0.29325 0.0
C1465 C 0.4208 0.60563 0.28838 0.0
C1466 C 0.42072 0.65537 0.30418 0.0
C1467 C 0.4473 0.65067 0.31898 0.0
N1468 N 0.49222 0.62397 0.31906 0.0
N1469 N 0.37651 0.63308 0.28846 0.0
C1470 C 0.4641 0.62634 0.31075 0.0
C1471 C 0.40555 0.63148 0.29311 0.0
N1472 N 0.46683 0.58353 0.28028 0.0
N1473 N 0.41079 0.68264 0.29924 0.0
H1474 H 0.36453 0.61613 0.2798 0.0
H1475 H 0.36423 0.65083 0.29491 0.0
H1476 H 0.42343 0.70074 0.30334 0.0
H1477 H 0.39232 0.68687 0.2871 0.0
H1478 H 0.4893 0.5831 0.28032 0.0
H1479 H 0.45724 0.56784 0.26724 0.0
H1480 H 0.50415 0.60505 0.31686 0.0
H1481 H 0.50393 0.64125 0.3273 0.0
C1482 C 0.64191 0.69397 0.52387 0.0
C1483 C 0.64258 0.6637 0.51921 0.0
C1484 C 0.61255 0.65636 0.56077 0.0
C1485 C 0.60952 0.6867 0.56522 0.0
N1486 N 0.61627 0.73459 0.54458 0.0
N1487 N 0.61792 0.61879 0.5251 0.0
C1488 C 0.62245 0.7058 0.54473 0.0
C1489 C 0.62284 0.64634 0.53403 0.0
N1490 N 0.66134 0.71098 0.50976 0.0
N1491 N 0.60865 0.63715 0.58282 0.0
H1492 H 0.62689 0.61094 0.50596 0.0
H1493 H 0.60299 0.60537 0.53533 0.0
H1494 H 0.60618 0.6436 0.60426 0.0
H1495 H 0.61235 0.61506 0.58039 0.0
H1496 H 0.66461 0.73267 0.51475 0.0
H1497 H 0.67514 0.70246 0.49407 0.0
H1498 H 0.62397 0.74854 0.52869 0.0
H1499 H 0.60136 0.74414 0.55836 0.0
C1500 C 0.93463 0.84493 0.70389 0.0
C1501 C 0.95286 0.85122 0.67973 0.0
C1502 C 0.95651 0.90075 0.69707 0.0
C1503 C 0.93212 0.8963 0.71504 0.0
N1504 N 0.90026 0.86273 0.73894 0.0
N1505 N 0.97977 0.8872 0.65265 0.0
C1506 C 0.92226 0.86788 0.72002 0.0
C1507 C 0.96418 0.8795 0.67651 0.0
N1508 N 0.92948 0.81702 0.71184 0.0
N1509 N 0.97123 0.92616 0.6987 0.0
H1510 H 0.98456 0.87332 0.6357 0.0
H1511 H 0.98557 0.90847 0.6482 0.0
H1512 H 0.96517 0.94215 0.71325 0.0
H1513 H 0.99063 0.92996 0.68795 0.0
H1514 H 0.91917 0.81127 0.73098 0.0
H1515 H 0.93829 0.79952 0.70104 0.0
H1516 H 0.88879 0.8434 0.73951 0.0
H1517 H 0.89332 0.87775 0.7541 0.0
C1518 C 0.03184 0.62835 0.18733 0.0
C1519 C 0.04876 0.64543 0.16817 0.0
C1520 C 0.0923 0.63238 0.19569 0.0
C1521 C 0.07636 0.61135 0.21047 0.0
N1522 N 0.03113 0.59082 0.22432 0.0
N1523 N 0.09626 0.6626 0.15395 0.0
C1524 C 0.046 0.61018 0.2078 0.0
C1525 C 0.07927 0.64751 0.17257 0.0
N1526 N 0.0024 0.62992 0.18619 0.0
N1527 N 0.12026 0.63737 0.20361 0.0
H1528 H 0.08799 0.67547 0.13787 0.0
H1529 H 0.11868 0.66117 0.1535 0.0
H1530 H 0.12998 0.62618 0.22058 0.0
H1531 H 0.13261 0.65438 0.19563 0.0
H1532 H 0.98874 0.61985 0.20088 0.0
H1533 H 0.99144 0.64302 0.17152 0.0
H1534 H 0.00916 0.5867 0.22231 0.0
H1535 H 0.04142 0.57831 0.24001 0.0
C1536 C 0.23548 0.56085 0.22557 0.0
C1537 C 0.21969 0.54588 0.24754 0.0
C1538 C 0.26397 0.51958 0.26033 0.0
C1539 C 0.28033 0.53833 0.24232 0.0
N1540 N 0.28203 0.57662 0.20744 0.0
N1541 N 0.2199 0.51288 0.28781 0.0
C1542 C 0.2661 0.55888 0.22485 0.0
C1543 C 0.23416 0.52546 0.26522 0.0
N1544 N 0.22138 0.57563 0.20425 0.0
N1545 N 0.27684 0.49626 0.27297 0.0
H1546 H 0.19871 0.51804 0.29334 0.0
H1547 H 0.22974 0.49938 0.30282 0.0
H1548 H 0.29861 0.49137 0.2706 0.0
H1549 H 0.26535 0.48012 0.28359 0.0
H1550 H 0.23167 0.58432 0.18626 0.0
H1551 H 0.1991 0.57659 0.2023 0.0
H1552 H 0.27366 0.59485 0.19727 0.0
H1553 H 0.30414 0.57374 0.20418 0.0
C1554 C 0.74658 0.48152 0.47894 0.0
C1555 C 0.73819 0.46749 0.50486 0.0
C1556 C 0.74131 0.51418 0.52922 0.0
C1557 C 0.73935 0.52833 0.50208 0.0
N1558 N 0.7423 0.52525 0.45037 0.0
N1559 N 0.73048 0.47039 0.55603 0.0
C1560 C 0.74306 0.51196 0.47663 0.0
C1561 C 0.73681 0.48377 0.53059 0.0
N1562 N 0.75757 0.46581 0.45662 0.0
N1563 N 0.74747 0.52968 0.55345 0.0
H1564 H 0.72822 0.44801 0.55749 0.0
H1565 H 0.72655 0.48157 0.57514 0.0
H1566 H 0.75153 0.55179 0.55275 0.0
H1567 H 0.75109 0.52014 0.5735 0.0
H1568 H 0.76548 0.4752 0.43775 0.0
H1569 H 0.76127 0.4437 0.45837 0.0
H1570 H 0.74181 0.51391 0.43094 0.0
H1571 H 0.74087 0.54765 0.44832 0.0
C1572 C 0.76547 0.93672 0.71983 0.0
C1573 C 0.78011 0.95183 0.74254 0.0
C1574 C 0.73348 0.97085 0.75959 0.0
C1575 C 0.71904 0.95467 0.7378 0.0
N1576 N 0.72052 0.92725 0.69412 0.0
N1577 N 0.77842 0.98568 0.7821 0.0
C1578 C 0.73488 0.93894 0.71713 0.0
C1579 C 0.7642 0.96981 0.76167 0.0
N1580 N 0.78077 0.92055 0.70042 0.0
N1581 N 0.71759 0.98607 0.7793 0.0
H1582 H 0.80015 0.98276 0.78705 0.0
H1583 H 0.76905 0.00238 0.79382 0.0
H1584 H 0.69555 0.98971 0.77704 0.0
H1585 H 0.72583 0.99466 0.79832 0.0
H1586 H 0.77155 0.90545 0.68662 0.0
H1587 H 0.80297 0.92211 0.69764 0.0
H1588 H 0.73046 0.9177 0.67642 0.0
H1589 H 0.69822 0.92923 0.69157 0.0
C1590 C 0.29505 0.99866 0.96324 0.0
C1591 C 0.29397 0.01535 0.98905 0.0
C1592 C 0.27454 0.9731 0.0141 0.0
C1593 C 0.28411 0.95535 0.99105 0.0
N1594 N 0.30015 0.951 0.94213 0.0
N1595 N 0.28254 0.0178 0.04 0.0
C1596 C 0.29301 0.96816 0.96498 0.0
C1597 C 0.28301 0.00263 0.01471 0.0
N1598 N 0.29706 0.01198 0.93704 0.0
N1599 N 0.25827 0.96152 0.03574 0.0
H1600 H 0.28987 0.03897 0.04178 0.0
H1601 H 0.27739 0.00849 0.05982 0.0
H1602 H 0.25111 0.94022 0.0351 0.0
H1603 H 0.24929 0.97375 0.05234 0.0
H1604 H 0.2956 0.00099 0.91751 0.0
H1605 H 0.29683 0.03434 0.93478 0.0
H1606 H 0.3101 0.95868 0.92348 0.0
H1607 H 0.29689 0.92869 0.94254 0.0
C1608 C 0.2346 0.47247 0.73627 0.0
C1609 C 0.22007 0.44643 0.74362 0.0
C1610 C 0.2653 0.42612 0.76203 0.0
C1611 C 0.28009 0.45185 0.75513 0.0
N1612 N 0.27868 0.501 0.73715 0.0
N1613 N 0.22555 0.39504 0.74969 0.0
C1614 C 0.26463 0.47566 0.74295 0.0
C1615 C 0.23652 0.42222 0.75262 0.0
N1616 N 0.22018 0.49302 0.72074 0.0
N1617 N 0.27892 0.40531 0.77785 0.0
H1618 H 0.20627 0.39106 0.73876 0.0
H1619 H 0.23748 0.37644 0.75395 0.0
H1620 H 0.29993 0.40797 0.78555 0.0
H1621 H 0.26832 0.38715 0.78586 0.0
H1622 H 0.22813 0.5133 0.71546 0.0
H1623 H 0.2009 0.4885 0.71009 0.0
H1624 H 0.26893 0.51954 0.72922 0.0
H1625 H 0.30028 0.50471 0.74167 0.0
C1626 C 0.81524 0.48043 0.96639 0.0
C1627 C 0.80069 0.46564 0.98865 0.0
C1628 C 0.79047 0.51156 0.01326 0.0
C1629 C 0.80505 0.52669 0.99093 0.0
N1630 N 0.82341 0.52569 0.9418 0.0
N1631 N 0.76701 0.46727 0.02832 0.0
C1632 C 0.81518 0.51119 0.96616 0.0
C1633 C 0.78574 0.48132 0.01037 0.0
N1634 N 0.82918 0.46497 0.94549 0.0
N1635 N 0.7827 0.52557 0.03806 0.0
H1636 H 0.76274 0.44526 0.0266 0.0
H1637 H 0.75339 0.47787 0.04273 0.0
H1638 H 0.7869 0.54736 0.0417 0.0
H1639 H 0.77471 0.51503 0.05624 0.0
H1640 H 0.84325 0.47408 0.93052 0.0
H1641 H 0.82757 0.44254 0.94401 0.0
H1642 H 0.8288 0.51555 0.9225 0.0
H1643 H 0.82173 0.54793 0.93944 0.0
C1644 C 0.75983 0.06484 0.27698 0.0
C1645 C 0.77423 0.04873 0.25483 0.0
C1646 C 0.72732 0.03066 0.2378 0.0
C1647 C 0.71292 0.04928 0.25764 0.0
N1648 N 0.71448 0.07987 0.29931 0.0
N1649 N 0.77155 0.01831 0.21266 0.0
C1650 C 0.72899 0.06539 0.27801 0.0
C1651 C 0.75797 0.03168 0.23526 0.0
N1652 N 0.77568 0.07936 0.29724 0.0
N1653 N 0.7118 0.01195 0.22111 0.0
H1654 H 0.79368 0.01951 0.20898 0.0
H1655 H 0.76079 0.00814 0.19579 0.0
H1656 H 0.68943 0.01194 0.21969 0.0
H1657 H 0.72106 0.99462 0.21021 0.0
H1658 H 0.76739 0.0945 0.31155 0.0
H1659 H 0.7976 0.07587 0.30059 0.0
H1660 H 0.72411 0.09095 0.31623 0.0
H1661 H 0.69203 0.0795 0.30106 0.0
C1662 C 0.22006 0.02557 0.49648 0.0
C1663 C 0.19289 0.0395 0.49282 0.0
C1664 C 0.16816 0.99326 0.4991 0.0
C1665 C 0.19491 0.97889 0.50312 0.0
N1666 N 0.2472 0.98172 0.50549 0.0
N1667 N 0.14347 0.03446 0.47859 0.0
C1668 C 0.22114 0.99517 0.50204 0.0
C1669 C 0.16773 0.02253 0.49026 0.0
N1670 N 0.24485 0.04145 0.49513 0.0
N1671 N 0.14293 0.97916 0.505 0.0
H1672 H 0.14329 0.05559 0.4707 0.0
H1673 H 0.12505 0.02254 0.47368 0.0
H1674 H 0.14249 0.95827 0.51344 0.0
H1675 H 0.12285 0.98929 0.50473 0.0
H1676 H 0.26461 0.03481 0.50347 0.0
H1677 H 0.24594 0.06112 0.48435 0.0
H1678 H 0.26696 0.99096 0.50025 0.0
H1679 H 0.24973 0.96122 0.5141 0.0
C1680 C 0.26142 0.24169 0.52874 0.0
C1681 C 0.2417 0.22651 0.54657 0.0
C1682 C 0.21846 0.27282 0.55941 0.0
C1683 C 0.24106 0.28808 0.54579 0.0
N1684 N 0.28574 0.28681 0.5186 0.0
N1685 N 0.20138 0.22809 0.57995 0.0
C1686 C 0.26271 0.27251 0.53025 0.0
C1687 C 0.22012 0.24222 0.56209 0.0
N1688 N 0.2793 0.22671 0.51067 0.0
N1689 N 0.19497 0.28773 0.56924 0.0
H1690 H 0.20059 0.20581 0.58185 0.0
H1691 H 0.18773 0.23852 0.59444 0.0
H1692 H 0.19317 0.31009 0.56709 0.0
H1693 H 0.17616 0.27789 0.57661 0.0
H1694 H 0.29157 0.23647 0.49455 0.0
H1695 H 0.28036 0.20423 0.51033 0.0
H1696 H 0.30397 0.2764 0.51059 0.0
H1697 H 0.28777 0.30915 0.51845 0.0
C1698 C 0.0048 0.50616 0.77556 0.0
C1699 C 0.02167 0.49241 0.7971 0.0
C1700 C 0.97726 0.4726 0.81863 0.0
C1701 C 0.96059 0.48683 0.79738 0.0
N1702 N 0.96016 0.50532 0.74853 0.0
N1703 N 0.02371 0.45276 0.83139 0.0
C1704 C 0.97489 0.49945 0.77334 0.0
C1705 C 0.00789 0.47267 0.81643 0.0
N1706 N 0.01666 0.52693 0.7583 0.0
N1707 N 0.96374 0.45887 0.84094 0.0
H1708 H 0.04585 0.45014 0.82882 0.0
H1709 H 0.01441 0.43626 0.84352 0.0
H1710 H 0.94139 0.45607 0.84156 0.0
H1711 H 0.97461 0.45127 0.85911 0.0
H1712 H 0.00446 0.53942 0.74411 0.0
H1713 H 0.03788 0.53404 0.76048 0.0
H1714 H 0.97028 0.51275 0.72986 0.0
H1715 H 0.93873 0.49944 0.74541 0.0
C1716 C 0.73134 0.25931 0.01866 0.0
C1717 C 0.74783 0.27499 0.03923 0.0
C1718 C 0.77628 0.23085 0.04899 0.0
C1719 C 0.75717 0.21456 0.03201 0.0
N1720 N 0.71467 0.21272 0.00176 0.0
N1721 N 0.78449 0.27352 0.07706 0.0
C1722 C 0.73446 0.22867 0.01672 0.0
C1723 C 0.76989 0.2602 0.05522 0.0
N1724 N 0.71225 0.27355 0.00124 0.0
N1725 N 0.80102 0.21816 0.05889 0.0
H1726 H 0.78197 0.29493 0.08273 0.0
H1727 H 0.79762 0.26248 0.09159 0.0
H1728 H 0.80615 0.19669 0.05435 0.0
H1729 H 0.81776 0.22957 0.06864 0.0
H1730 H 0.70258 0.26412 0.98328 0.0
H1731 H 0.70709 0.2953 0.00383 0.0
H1732 H 0.69533 0.22111 0.99397 0.0
H1733 H 0.71667 0.19062 0.99831 0.0
C1734 C 0.99801 0.99032 0.27427 0.0
C1735 C 0.98164 0.00793 0.29329 0.0
C1736 C 0.02685 0.02866 0.31215 0.0
C1737 C 0.04301 0.01038 0.29377 0.0
N1738 N 0.04296 0.98481 0.24821 0.0
N1739 N 0.98127 0.05249 0.32085 0.0
C1740 C 0.02828 0.99516 0.27155 0.0
C1741 C 0.99624 0.02975 0.30946 0.0
N1742 N 0.98532 0.96777 0.26016 0.0
N1743 N 0.04081 0.04508 0.33222 0.0
H1744 H 0.95932 0.05573 0.31736 0.0
H1745 H 0.99121 0.07016 0.33054 0.0
H1746 H 0.06327 0.0469 0.33269 0.0
H1747 H 0.03017 0.05597 0.34879 0.0
H1748 H 0.99706 0.95264 0.24834 0.0
H1749 H 0.96372 0.96217 0.2629 0.0
H1750 H 0.03268 0.97507 0.23073 0.0
H1751 H 0.06456 0.98957 0.24435 0.0
C1752 C 0.26133 0.75446 0.47513 0.0
C1753 C 0.24145 0.77102 0.45877 0.0
C1754 C 0.21506 0.72652 0.44555 0.0
C1755 C 0.23696 0.70991 0.45878 0.0
N1756 N 0.28042 0.70732 0.48748 0.0
N1757 N 0.19671 0.77376 0.432 0.0
C1758 C 0.25954 0.7237 0.47454 0.0
C1759 C 0.21742 0.75727 0.44512 0.0
N1760 N 0.2821 0.76809 0.49108 0.0
N1761 N 0.19178 0.71257 0.43395 0.0
H1762 H 0.19576 0.7961 0.43398 0.0
H1763 H 0.18017 0.76571 0.41919 0.0
H1764 H 0.18951 0.69017 0.43492 0.0
H1765 H 0.17392 0.7227 0.42494 0.0
H1766 H 0.29477 0.75786 0.50653 0.0
H1767 H 0.28593 0.79022 0.49004 0.0
H1768 H 0.29988 0.71546 0.49514 0.0
H1769 H 0.27883 0.68507 0.48997 0.0
C1770 C 0.47945 0.5088 0.73732 0.0
C1771 C 0.46544 0.49341 0.71484 0.0
C1772 C 0.51176 0.47081 0.70134 0.0
C1773 C 0.52594 0.48889 0.72117 0.0
N1774 N 0.52317 0.51593 0.76544 0.0
N1775 N 0.46741 0.45666 0.67795 0.0
C1776 C 0.50973 0.50489 0.74167 0.0
C1777 C 0.48138 0.4732 0.69785 0.0
N1778 N 0.46432 0.52859 0.75311 0.0
N1779 N 0.5277 0.45079 0.68659 0.0
H1780 H 0.4451 0.45563 0.67694 0.0
H1781 H 0.47757 0.44418 0.66233 0.0
H1782 H 0.54984 0.44833 0.69004 0.0
H1783 H 0.51925 0.43524 0.67282 0.0
H1784 H 0.47389 0.54301 0.76743 0.0
H1785 H 0.44226 0.53207 0.75038 0.0
H1786 H 0.51227 0.52567 0.78251 0.0
H1787 H 0.54508 0.51295 0.76943 0.0
C1788 C 0.779 0.74423 0.95825 0.0
C1789 C 0.75536 0.72759 0.96895 0.0
C1790 C 0.73117 0.77216 0.98439 0.0
C1791 C 0.75457 0.78872 0.97298 0.0
N1792 N 0.80394 0.79032 0.95767 0.0
N1793 N 0.71252 0.72513 0.99827 0.0
C1794 C 0.77952 0.77456 0.96274 0.0
C1795 C 0.73275 0.74138 0.98423 0.0
N1796 N 0.80079 0.73126 0.9432 0.0
N1797 N 0.70651 0.78552 0.99353 0.0
H1798 H 0.71197 0.70266 0.9972 0.0
H1799 H 0.69757 0.73374 0.01268 0.0
H1800 H 0.70457 0.80769 0.99612 0.0
H1801 H 0.68725 0.77462 0.99745 0.0
H1802 H 0.81636 0.74256 0.93157 0.0
H1803 H 0.80259 0.70908 0.94087 0.0
H1804 H 0.82391 0.7812 0.95282 0.0
H1805 H 0.80484 0.81253 0.96139 0.0
C1806 C 0.4847 0.01324 0.22505 0.0
C1807 C 0.47029 0.00375 0.1996 0.0
C1808 C 0.51557 0.98254 0.18243 0.0
C1809 C 0.53082 0.99357 0.20647 0.0
N1810 N 0.52979 0.02643 0.24757 0.0
N1811 N 0.4776 0.99343 0.14887 0.0
C1812 C 0.51539 0.01051 0.22729 0.0
C1813 C 0.48729 0.99253 0.17667 0.0
N1814 N 0.46949 0.02637 0.2466 0.0
N1815 N 0.5283 0.96285 0.16457 0.0
H1816 H 0.45944 0.00528 0.14287 0.0
H1817 H 0.4902 0.98684 0.13141 0.0
H1818 H 0.54873 0.9543 0.16874 0.0
H1819 H 0.5172 0.95288 0.14772 0.0
H1820 H 0.47742 0.02863 0.26754 0.0
H1821 H 0.4492 0.03549 0.24335 0.0
H1822 H 0.51983 0.04205 0.26031 0.0
H1823 H 0.55196 0.02638 0.25052 0.0
C1824 C 0.5224 0.24559 0.2377 0.0
C1825 C 0.54697 0.25533 0.22167 0.0
C1826 C 0.57685 0.24975 0.26492 0.0
C1827 C 0.55233 0.24322 0.28196 0.0
N1828 N 0.50251 0.22844 0.28325 0.0
N1829 N 0.59463 0.27586 0.22359 0.0
C1830 C 0.52528 0.23913 0.26789 0.0
C1831 C 0.57321 0.26028 0.2365 0.0
N1832 N 0.49648 0.24181 0.22418 0.0
N1833 N 0.60387 0.24424 0.27526 0.0
H1834 H 0.59189 0.28552 0.2034 0.0
H1835 H 0.61337 0.28204 0.23441 0.0
H1836 H 0.6072 0.23317 0.2946 0.0
H1837 H 0.62244 0.24681 0.2628 0.0
H1838 H 0.47943 0.22993 0.23264 0.0
H1839 H 0.49122 0.25158 0.20471 0.0
H1840 H 0.48109 0.22957 0.27666 0.0
H1841 H 0.50539 0.21693 0.30236 0.0
C1842 C 0.05199 0.71002 0.28066 0.0
C1843 C 0.03749 0.73424 0.29188 0.0
C1844 C 0.03637 0.75622 0.24394 0.0
C1845 C 0.05106 0.73182 0.23233 0.0
N1846 N 0.05765 0.68031 0.23866 0.0
N1847 N 0.00456 0.77329 0.28186 0.0
C1848 C 0.05452 0.70706 0.25037 0.0
C1849 C 0.02538 0.75464 0.27258 0.0
N1850 N 0.06313 0.68972 0.29885 0.0
N1851 N 0.03465 0.78158 0.22899 0.0
H1852 H 0.9962 0.77257 0.30273 0.0
H1853 H 0.99376 0.78733 0.26798 0.0
H1854 H 0.04552 0.78533 0.2097 0.0
H1855 H 0.02555 0.80025 0.23765 0.0
H1856 H 0.07657 0.67311 0.29173 0.0
H1857 H 0.05977 0.69042 0.32113 0.0
H1858 H 0.05845 0.6615 0.251 0.0
H1859 H 0.05435 0.67677 0.21682 0.0
C1860 C 0.52435 0.30939 0.4897 0.0
C1861 C 0.5033 0.29338 0.47366 0.0
C1862 C 0.48918 0.26791 0.51798 0.0
C1863 C 0.5073 0.28649 0.53432 0.0
N1864 N 0.54421 0.32252 0.53672 0.0
N1865 N 0.46371 0.25968 0.473 0.0
C1866 C 0.52552 0.30654 0.52035 0.0
C1867 C 0.4855 0.27292 0.48787 0.0
N1868 N 0.54377 0.32665 0.47561 0.0
N1869 N 0.4754 0.24545 0.53124 0.0
H1870 H 0.45964 0.26352 0.4512 0.0
H1871 H 0.44794 0.24695 0.48268 0.0
H1872 H 0.47675 0.24142 0.55329 0.0
H1873 H 0.46467 0.22919 0.52005 0.0
H1874 H 0.56014 0.33829 0.48553 0.0
H1875 H 0.54525 0.32816 0.45333 0.0
H1876 H 0.55687 0.33938 0.52908 0.0
H1877 H 0.54702 0.31888 0.55878 0.0
C1878 C 0.9862 0.77659 0.72797 0.0
C1879 C 0.98143 0.7504 0.71264 0.0
C1880 C 0.98567 0.7247 0.75842 0.0
C1881 C 0.98082 0.75084 0.77367 0.0
N1882 N 0.97782 0.8026 0.77271 0.0
N1883 N 0.97736 0.69865 0.71383 0.0
C1884 C 0.98177 0.77718 0.75839 0.0
C1885 C 0.98159 0.72408 0.72802 0.0
N1886 N 0.99498 0.8007 0.7136 0.0
N1887 N 0.99469 0.70075 0.77283 0.0
H1888 H 0.97566 0.69755 0.69139 0.0
H1889 H 0.97416 0.67911 0.72455 0.0
H1890 H 0.00083 0.7018 0.79439 0.0
H1891 H -0.00021 0.68139 0.76256 0.0
H1892 H 0.00037 0.81989 0.72401 0.0
H1893 H -5e-05 0.80031 0.6917 0.0
H1894 H 0.97517 0.8223 0.76216 0.0
H1895 H 0.97588 0.80351 0.79515 0.0
C1896 C 0.97752 0.68284 0.96759 0.0
C1897 C -4e-05 0.69693 0.95156 0.0
C1898 C 0.02539 0.70754 0.99681 0.0
C1899 C 0.00417 0.69149 0.01209 0.0
N1900 N 0.95643 0.67146 0.01425 0.0
N1901 N 0.04195 0.72778 0.95131 0.0
C1902 C 0.97905 0.6816 0.99817 0.0
C1903 C 0.02278 0.71111 0.96635 0.0
N1904 N 0.95484 0.67012 0.95369 0.0
N1905 N 0.04826 0.71899 0.01159 0.0
H1906 H 0.04227 0.72903 0.92887 0.0
H1907 H 0.05692 0.74146 0.96091 0.0
H1908 H 0.0494 0.71901 0.03408 0.0
H1909 H 0.06639 0.72802 0.00192 0.0
H1910 H 0.94051 0.65587 0.96349 0.0
H1911 H 0.95056 0.67273 0.93192 0.0
H1912 H 0.93594 0.66752 0.00597 0.0
H1913 H 0.95727 0.66922 0.03662 0.0
C1914 C 0.47807 0.72153 0.26966 0.0
C1915 C 0.47602 0.74789 0.28524 0.0
C1916 C 0.48134 0.77387 0.23947 0.0
C1917 C 0.4757 0.74794 0.22396 0.0
N1918 N 0.46838 0.69654 0.22468 0.0
N1919 N 0.47515 0.79978 0.2846 0.0
C1920 C 0.47413 0.72154 0.23918 0.0
C1921 C 0.47772 0.77431 0.27004 0.0
N1922 N 0.48452 0.69659 0.28384 0.0
N1923 N 0.4902 0.79801 0.22511 0.0
H1924 H 0.47375 0.80073 0.30707 0.0
H1925 H 0.47277 0.81962 0.27426 0.0
H1926 H 0.49396 0.79815 0.20297 0.0
H1927 H 0.49653 0.81689 0.23554 0.0
H1928 H 0.48837 0.67709 0.27331 0.0
H1929 H 0.48965 0.69637 0.3057 0.0
H1930 H 0.46361 0.67718 0.23509 0.0
H1931 H 0.46693 0.69568 0.20221 0.0
C1932 C 0.52629 0.18555 0.00413 0.0
C1933 C 0.50597 0.20261 0.01989 0.0
C1934 C 0.49249 0.22589 0.97416 0.0
C1935 C 0.50611 0.20331 0.95843 0.0
N1936 N 0.53921 0.16337 0.95848 0.0
N1937 N 0.46791 0.23834 0.01855 0.0
C1938 C 0.52405 0.18369 0.97351 0.0
C1939 C 0.4888 0.22291 0.00458 0.0
N1940 N 0.54884 0.17255 0.01803 0.0
N1941 N 0.48344 0.25033 0.96044 0.0
H1942 H 0.46311 0.23559 0.04034 0.0
H1943 H 0.45321 0.25151 0.00777 0.0
H1944 H 0.48806 0.25459 0.93888 0.0
H1945 H 0.47515 0.26812 0.97144 0.0
H1946 H 0.56552 0.16197 0.00729 0.0
H1947 H 0.55316 0.17544 0.03988 0.0
H1948 H 0.54952 0.14594 0.96827 0.0
H1949 H 0.54063 0.16364 0.93599 0.0
C1950 C 0.25349 0.05217 0.77912 0.0
C1951 C 0.26868 0.03676 0.75717 0.0
C1952 C 0.223 0.01405 0.74297 0.0
C1953 C 0.20747 0.03489 0.7594 0.0
N1954 N 0.20776 0.07117 0.79634 0.0
N1955 N 0.26721 0.00393 0.71683 0.0
C1956 C 0.22278 0.05293 0.77869 0.0
C1957 C 0.25332 0.01756 0.73899 0.0
N1958 N 0.26829 0.0652 0.80104 0.0
N1959 N 0.209 0.99104 0.73107 0.0
H1960 H 0.28921 0.00644 0.7128 0.0
H1961 H 0.25641 0.99238 0.70085 0.0
H1962 H 0.18749 0.98635 0.73544 0.0
H1963 H 0.21969 0.9744 0.72037 0.0
H1964 H 0.25844 0.07423 0.81911 0.0
H1965 H 0.29061 0.06453 0.80276 0.0
H1966 H 0.21726 0.08785 0.80802 0.0
H1967 H 0.18536 0.06995 0.79849 0.0
C1968 C 0.70666 0.01345 0.00782 0.0
C1969 C 0.69325 0.02924 0.9851 0.0
C1970 C 0.67705 0.98417 0.96275 0.0
C1971 C 0.68897 0.96812 0.98641 0.0
N1972 N 0.71741 0.96708 0.03002 0.0
N1973 N 0.6714 0.03052 0.93841 0.0
C1974 C 0.70468 0.98268 0.0084 0.0
C1975 C 0.67992 0.0148 0.96193 0.0
N1976 N 0.72031 0.02815 0.02949 0.0
N1977 N 0.66343 0.97018 0.94061 0.0
H1978 H 0.67403 0.05287 0.93722 0.0
H1979 H 0.66396 0.02168 0.91918 0.0
H1980 H 0.66518 0.94817 0.93677 0.0
H1981 H 0.65025 0.98034 0.92555 0.0
H1982 H 0.72736 0.01896 0.0487 0.0
H1983 H 0.72452 0.05019 0.02842 0.0
H1984 H 0.73219 0.97545 0.04466 0.0
H1985 H 0.71362 0.94515 0.03323 0.0
C1986 C 0.75348 0.47129 0.26853 0.0
C1987 C 0.76956 0.45157 0.25135 0.0
C1988 C 0.72532 0.44094 0.22325 0.0
C1989 C 0.70928 0.45842 0.2423 0.0
N1990 N 0.7102 0.50028 0.27325 0.0
N1991 N 0.77098 0.4198 0.20936 0.0
C1992 C 0.72404 0.47697 0.26169 0.0
C1993 C 0.75561 0.43721 0.22761 0.0
N1994 N 0.76563 0.48307 0.29269 0.0
N1995 N 0.7113 0.42917 0.20009 0.0
H1996 H 0.79328 0.41858 0.20882 0.0
H1997 H 0.76181 0.40588 0.19438 0.0
H1998 H 0.68947 0.43323 0.19618 0.0
H1999 H 0.72109 0.41762 0.18354 0.0
H2000 H 0.75397 0.49495 0.30781 0.0
H2001 H 0.78658 0.47839 0.29943 0.0
H2002 H 0.72054 0.51571 0.28589 0.0
H2003 H 0.68963 0.50657 0.2668 0.0
C2004 C 0.29762 0.47912 0.47416 0.0
C2005 C 0.29258 0.46415 0.50022 0.0
C2006 C 0.2886 0.51063 0.52606 0.0
C2007 C 0.29396 0.52551 0.49998 0.0
N2008 N 0.2901 0.52372 0.44824 0.0
N2009 N 0.27208 0.46618 0.54806 0.0
C2010 C 0.29454 0.50969 0.47366 0.0
C2011 C 0.28456 0.48007 0.52533 0.0
N2012 N 0.30525 0.46428 0.44989 0.0
N2013 N 0.28792 0.52542 0.55152 0.0
H2014 H 0.26683 0.44436 0.54727 0.0
H2015 H 0.26356 0.47698 0.56583 0.0
H2016 H 0.28984 0.54785 0.55247 0.0
H2017 H 0.28728 0.51527 0.5716 0.0
H2018 H 0.31208 0.47443 0.431 0.0
H2019 H 0.30618 0.44177 0.44931 0.0
H2020 H 0.28823 0.51318 0.42848 0.0
H2021 H 0.28371 0.54522 0.44793 0.0
C2022 C 0.23034 0.98372 0.24641 0.0
C2023 C 0.21731 0.96056 0.26179 0.0
C2024 C 0.26493 0.94731 0.28151 0.0
C2025 C 0.27836 0.96668 0.26229 0.0
N2026 N 0.27421 0.00609 0.22828 0.0
N2027 N 0.22284 0.91989 0.29452 0.0
C2028 C 0.26117 0.98619 0.24575 0.0
C2029 C 0.23476 0.94237 0.2796 0.0
N2030 N 0.21326 0.00302 0.23202 0.0
N2031 N 0.2812 0.9343 0.30243 0.0
H2032 H 0.20083 0.91651 0.29666 0.0
H2033 H 0.23504 0.90341 0.3037 0.0
H2034 H 0.30326 0.93833 0.30467 0.0
H2035 H 0.27251 0.92231 0.31936 0.0
H2036 H 0.2207 0.02232 0.22329 0.0
H2037 H 0.19102 0.00044 0.22983 0.0
H2038 H 0.26344 0.01816 0.21272 0.0
H2039 H 0.29629 0.00995 0.22829 0.0
C2040 C 0.78929 0.01366 0.52578 0.0
C2041 C 0.78824 0.02979 0.49997 0.0
C2042 C 0.78547 0.98487 0.47165 0.0
C2043 C 0.78715 0.9688 0.49749 0.0
N2044 N 0.77767 0.96818 0.54857 0.0
N2045 N 0.77459 0.03115 0.44976 0.0
C2046 C 0.7851 0.9833 0.52447 0.0
C2047 C 0.78289 0.01549 0.47327 0.0
N2048 N 0.79466 0.02716 0.55141 0.0
N2049 N 0.78685 0.971 0.4457 0.0
H2050 H 0.77049 0.05322 0.45102 0.0
H2051 H 0.76838 0.02187 0.43026 0.0
H2052 H 0.78748 0.94853 0.4441 0.0
H2053 H 0.78884 0.98177 0.42605 0.0
H2054 H 0.79878 0.01598 0.5705 0.0
H2055 H 0.79661 0.04954 0.55309 0.0
H2056 H 0.77412 0.97778 0.5686 0.0
H2057 H 0.77088 0.9468 0.54726 0.0
C2058 C 0.76056 0.5152 0.73778 0.0
C2059 C 0.77605 0.53405 0.75626 0.0
C2060 C 0.73104 0.54462 0.7826 0.0
C2061 C 0.7151 0.52972 0.76143 0.0
N2062 N 0.71443 0.50335 0.71631 0.0
N2063 N 0.77462 0.57014 0.79443 0.0
C2064 C 0.72976 0.51526 0.73853 0.0
C2065 C 0.76094 0.54967 0.77822 0.0
N2066 N 0.77516 0.4977 0.71906 0.0
N2067 N 0.71748 0.55378 0.80717 0.0
H2068 H 0.79622 0.57538 0.79226 0.0
H2069 H 0.76382 0.58417 0.80829 0.0
H2070 H 0.69556 0.55011 0.8109 0.0
H2071 H 0.72842 0.56204 0.82499 0.0
H2072 H 0.76528 0.48114 0.7075 0.0
H2073 H 0.7975 0.49844 0.71647 0.0
H2074 H 0.72394 0.49597 0.69732 0.0
H2075 H 0.69198 0.50265 0.71573 0.0
C2076 C 0.19737 0.4784 0.03004 0.0
C2077 C 0.20973 0.46382 0.00627 0.0
C2078 C 0.22299 0.51047 0.98442 0.0
C2079 C 0.20927 0.52508 0.0075 0.0
N2080 N 0.19378 0.52279 0.05722 0.0
N2081 N 0.24456 0.46595 0.96739 0.0
C2082 C 0.19965 0.50897 0.03189 0.0
C2083 C 0.22617 0.47983 0.98575 0.0
N2084 N 0.18308 0.46296 0.05069 0.0
N2085 N 0.2316 0.5255 0.96056 0.0
H2086 H 0.24888 0.44399 0.96886 0.0
H2087 H 0.25831 0.47674 0.95324 0.0
H2088 H 0.22969 0.54787 0.95893 0.0
H2089 H 0.23844 0.51558 0.94157 0.0
H2090 H 0.17043 0.47242 0.06671 0.0
H2091 H 0.18317 0.44042 0.05104 0.0
H2092 H 0.18932 0.51214 0.07651 0.0
H2093 H 0.1967 0.54486 0.05965 0.0
C2094 C 0.21741 0.74501 0.0608 0.0
C2095 C 0.24041 0.72732 0.05005 0.0
C2096 C 0.26432 0.77065 0.03065 0.0
C2097 C 0.24174 0.7882 0.04207 0.0
N2098 N 0.19454 0.79232 0.0627 0.0
N2099 N 0.28373 0.72289 0.0214 0.0
C2100 C 0.21771 0.77537 0.05573 0.0
C2101 C 0.26303 0.74002 0.03368 0.0
N2102 N 0.19493 0.73287 0.07561 0.0
N2103 N 0.28818 0.7833 0.0187 0.0
H2104 H 0.28639 0.70114 0.02642 0.0
H2105 H 0.29777 0.7299 0.00532 0.0
H2106 H 0.28986 0.80527 0.0145 0.0
H2107 H 0.30715 0.77228 0.01402 0.0
H2108 H 0.18063 0.74456 0.08838 0.0
H2109 H 0.19012 0.71096 0.07521 0.0
H2110 H 0.17489 0.78447 0.0702 0.0
H2111 H 0.19407 0.81446 0.05856 0.0
C2112 C 0.71757 0.73359 0.56567 0.0
C2113 C 0.74165 0.71888 0.55302 0.0
C2114 C 0.76026 0.76579 0.53637 0.0
C2115 C 0.73903 0.78027 0.5533 0.0
N2116 N 0.69868 0.77811 0.58577 0.0
N2117 N 0.78741 0.72172 0.5282 0.0
C2118 C 0.71812 0.76417 0.5685 0.0
C2119 C 0.76325 0.73518 0.53854 0.0
N2120 N 0.69323 0.71874 0.57329 0.0
N2121 N 0.77778 0.78132 0.5184 0.0
H2122 H 0.79124 0.6997 0.53063 0.0
H2123 H 0.80512 0.73265 0.51973 0.0
H2124 H 0.77651 0.80366 0.51632 0.0
H2125 H 0.79173 0.77197 0.50346 0.0
H2126 H 0.67428 0.72875 0.58008 0.0
H2127 H 0.69032 0.69684 0.56946 0.0
H2128 H 0.68528 0.76744 0.60034 0.0
H2129 H 0.6972 0.80057 0.58675 0.0
C2130 C 0.23042 0.28148 0.93698 0.0
C2131 C 0.24908 0.2986 0.95483 0.0
C2132 C 0.26948 0.25412 0.97533 0.0
C2133 C 0.25082 0.23771 0.9575 0.0
N2134 N 0.20771 0.23498 0.92905 0.0
N2135 N 0.28236 0.30102 0.99485 0.0
C2136 C 0.2293 0.25119 0.94097 0.0
C2137 C 0.26717 0.28482 0.97545 0.0
N2138 N 0.21442 0.2936 0.91535 0.0
N2139 N 0.28986 0.24023 0.99155 0.0
H2140 H 0.28292 0.3235 0.99424 0.0
H2141 H 0.29324 0.29229 0.01246 0.0
H2142 H 0.29082 0.21777 0.99315 0.0
H2143 H 0.3064 0.25073 0.00251 0.0
H2144 H 0.20354 0.28152 0.89984 0.0
H2145 H 0.21377 0.31542 0.91068 0.0
H2146 H 0.18932 0.24388 0.91966 0.0
H2147 H 0.20665 0.2126 0.93134 0.0
C2148 C 0.72173 0.26664 0.43736 0.0
C2149 C 0.74482 0.2809 0.45226 0.0
C2150 C 0.76333 0.23362 0.46808 0.0
C2151 C 0.74144 0.21959 0.45167 0.0
N2152 N 0.69686 0.22164 0.42578 0.0
N2153 N 0.78494 0.27822 0.48531 0.0
C2154 C 0.71982 0.23587 0.43773 0.0
C2155 C 0.76466 0.26443 0.46888 0.0
N2156 N 0.70136 0.28252 0.42304 0.0
N2157 N 0.78377 0.21734 0.48183 0.0
H2158 H 0.78881 0.30033 0.48414 0.0
H2159 H 0.7974 0.26809 0.501 0.0
H2160 H 0.78207 0.19506 0.48414 0.0
H2161 H 0.80279 0.22553 0.49045 0.0
H2162 H 0.68658 0.27399 0.4085 0.0
H2163 H 0.69909 0.30469 0.42531 0.0
H2164 H 0.67869 0.23163 0.41723 0.0
H2165 H 0.69495 0.1992 0.42638 0.0
C2166 C 0.54091 0.781 0.74941 0.0
C2167 C 0.53606 0.75563 0.76611 0.0
C2168 C 0.52223 0.73037 0.72179 0.0
C2169 C 0.53448 0.75302 0.70497 0.0
N2170 N 0.55273 0.80139 0.70254 0.0
N2171 N 0.52273 0.70541 0.76787 0.0
C2172 C 0.54274 0.77892 0.71878 0.0
C2173 C 0.52642 0.73017 0.75228 0.0
N2174 N 0.54288 0.80718 0.76279 0.0
N2175 N 0.50663 0.7091 0.70877 0.0
H2176 H 0.5256 0.70452 0.79018 0.0
H2177 H 0.51914 0.68535 0.75835 0.0
H2178 H 0.50112 0.70996 0.68703 0.0
H2179 H 0.49598 0.69289 0.72014 0.0
H2180 H 0.54379 0.82672 0.75174 0.0
H2181 H 0.54052 0.80956 0.78502 0.0
H2182 H 0.56228 0.81975 0.71129 0.0
H2183 H 0.5522 0.80101 0.68 0.0
C2184 C 0.00802 0.22973 0.73873 0.0
C2185 C 0.01885 0.25357 0.72269 0.0
C2186 C 0.02642 0.28013 0.76735 0.0
C2187 C 0.02091 0.25459 0.78343 0.0
N2188 N 0.00651 0.2048 0.78492 0.0
N2189 N 0.03968 0.3011 0.72129 0.0
C2190 C 0.01125 0.22936 0.76931 0.0
C2191 C 0.02828 0.27878 0.73687 0.0
N2192 N 0.9949 0.20739 0.72468 0.0
N2193 N 0.02886 0.30589 0.7813 0.0
H2194 H 0.03991 0.30132 0.69876 0.0
H2195 H 0.05029 0.31855 0.73068 0.0
H2196 H 0.02496 0.30762 0.8033 0.0
H2197 H 0.0309 0.32564 0.77075 0.0
H2198 H 0.984 0.19086 0.7353 0.0
H2199 H 0.99266 0.20672 0.7023 0.0
H2200 H 0.00274 0.1847 0.77562 0.0
H2201 H 0.00792 0.20432 0.8074 0.0
C2202 C 0.5136 0.77811 0.02041 0.0
C2203 C 0.4947 0.79738 0.03499 0.0
C2204 C 0.47516 0.81286 0.98794 0.0
C2205 C 0.49355 0.79312 0.97367 0.0
N2206 N 0.52163 0.74942 0.97748 0.0
N2207 N 0.44945 0.82383 0.03181 0.0
C2208 C 0.5099 0.7732 0.99026 0.0
C2209 C 0.47312 0.81218 0.01858 0.0
N2210 N 0.53607 0.76559 0.0348 0.0
N2211 N 0.45928 0.83211 0.97225 0.0
H2212 H 0.44531 0.82184 0.05376 0.0
H2213 H 0.43193 0.83218 0.02045 0.0
H2214 H 0.4583 0.83157 0.94974 0.0
H2215 H 0.44824 0.84935 0.9816 0.0
H2216 H 0.55195 0.75346 0.02445 0.0
H2217 H 0.54067 0.76987 0.0564 0.0
H2218 H 0.53159 0.73296 0.98915 0.0
H2219 H 0.51876 0.74468 0.9557 0.0
C2220 C 0.98129 0.23085 0.27168 0.0
C2221 C 0.96963 0.25383 0.28856 0.0
C2222 C 0.95109 0.27673 0.24464 0.0
C2223 C 0.96331 0.25411 0.2276 0.0
N2224 N 0.99451 0.2126 0.22434 0.0
N2225 N 0.94988 0.3016 0.29079 0.0
C2226 C 0.98014 0.23233 0.24095 0.0
C2227 C 0.9565 0.27766 0.27484 0.0
N2228 N 0.99145 0.20646 0.28481 0.0
N2229 N 0.934 0.29732 0.23219 0.0
H2230 H 0.95428 0.30301 0.31284 0.0
H2231 H 0.94276 0.32096 0.2819 0.0
H2232 H 0.93151 0.29976 0.21005 0.0
H2233 H 0.92118 0.31156 0.24396 0.0
H2234 H 0.99664 0.1877 0.27362 0.0
H2235 H 0.99295 0.20393 0.30706 0.0
H2236 H 0.01017 0.19868 0.23248 0.0
H2237 H 0.9922 0.21128 0.202 0.0
C2238 C 0.03419 0.19108 0.50729 0.0
C2239 C 0.01137 0.20689 0.52072 0.0
C2240 C 0.00229 0.23073 0.47439 0.0
C2241 C 0.01854 0.20896 0.46018 0.0
N2242 N 0.05286 0.17029 0.46303 0.0
N2243 N 0.97286 0.2419 0.51612 0.0
C2244 C 0.03564 0.18991 0.47672 0.0
C2245 C 0.99549 0.22722 0.50416 0.0
N2246 N 0.05525 0.17831 0.52356 0.0
N2247 N 0.99309 0.25445 0.45954 0.0
H2248 H 0.9655 0.23834 0.53705 0.0
H2249 H 0.95933 0.25544 0.50434 0.0
H2250 H 0.99935 0.25863 0.43838 0.0
H2251 H 0.98273 0.27182 0.46937 0.0
H2252 H 0.07355 0.16872 0.51469 0.0
H2253 H 0.05659 0.18052 0.54587 0.0
H2254 H 0.06294 0.15318 0.4736 0.0
H2255 H 0.05605 0.17073 0.44071 0.0
C2256 C 0.48416 0.26485 0.74521 0.0
C2257 C 0.47572 0.24041 0.7288 0.0
C2258 C 0.4766 0.21227 0.77328 0.0
C2259 C 0.47524 0.23804 0.78983 0.0
N2260 N 0.48007 0.28968 0.79118 0.0
N2261 N 0.46478 0.18964 0.72762 0.0
C2262 C 0.47999 0.26466 0.77571 0.0
C2263 C 0.47233 0.21363 0.74292 0.0
N2264 N 0.49691 0.2877 0.73185 0.0
N2265 N 0.4832 0.18679 0.78627 0.0
H2266 H 0.4627 0.18985 0.70518 0.0
H2267 H 0.45924 0.17019 0.73751 0.0
H2268 H 0.48963 0.18598 0.80776 0.0
H2269 H 0.48629 0.16767 0.7748 0.0
H2270 H 0.50573 0.30504 0.74315 0.0
H2271 H 0.50098 0.28785 0.70969 0.0
H2272 H 0.48062 0.30999 0.78147 0.0
H2273 H 0.47834 0.28984 0.81365 0.0
C2274 C 0.52575 0.67844 0.51735 0.0
C2275 C 0.50764 0.697 0.53425 0.0
C2276 C 0.48879 0.71864 0.48929 0.0
C2277 C 0.50592 0.69907 0.47274 0.0
N2278 N 0.54586 0.6664 0.47031 0.0
N2279 N 0.47386 0.73643 0.53665 0.0
C2280 C 0.5258 0.68067 0.48665 0.0
C2281 C 0.49009 0.71796 0.52024 0.0
N2282 N 0.54299 0.65841 0.5305 0.0
N2283 N 0.47051 0.73716 0.47535 0.0
H2284 H 0.47216 0.73471 0.55902 0.0
H2285 H 0.46212 0.75379 0.52871 0.0
H2286 H 0.4682 0.73788 0.45303 0.0
H2287 H 0.45732 0.75214 0.4855 0.0
H2288 H 0.55294 0.64147 0.51962 0.0
H2289 H 0.54675 0.65766 0.55254 0.0
H2290 H 0.56341 0.65525 0.47881 0.0
H2291 H 0.54664 0.66812 0.44786 0.0
C2292 C 0.49301 0.48621 0.27105 0.0
C2293 C 0.47925 0.50358 0.29222 0.0
C2294 C 0.52633 0.52568 0.30412 0.0
C2295 C 0.53985 0.50703 0.2841 0.0
N2296 N 0.53432 0.48024 0.23973 0.0
N2297 N 0.48238 0.54285 0.32685 0.0
C2298 C 0.52266 0.49078 0.26465 0.0
C2299 C 0.49579 0.52432 0.30813 0.0
N2300 N 0.47837 0.46395 0.2584 0.0
N2301 N 0.54301 0.54563 0.3181 0.0
H2302 H 0.46023 0.54641 0.32712 0.0
H2303 H 0.49297 0.55593 0.34163 0.0
H2304 H 0.56489 0.5482 0.31332 0.0
H2305 H 0.53554 0.56066 0.33296 0.0
H2306 H 0.48833 0.44862 0.24529 0.0
H2307 H 0.45709 0.45877 0.26355 0.0
H2308 H 0.52215 0.46985 0.22394 0.0
H2309 H 0.55493 0.48576 0.2327 0.0
C2310 C 0.48665 0.01129 0.83711 0.0
C2311 C 0.47125 0.99959 0.81328 0.0
C2312 C 0.51787 0.99512 0.78762 0.0
C2313 C 0.53156 0.01198 0.80949 0.0
N2314 N 0.52685 0.04078 0.85236 0.0
N2315 N 0.47388 0.97844 0.76531 0.0
C2316 C 0.51515 0.02167 0.83324 0.0
C2317 C 0.48727 0.99108 0.78829 0.0
N2318 N 0.47481 0.01071 0.86409 0.0
N2319 N 0.53408 0.98082 0.76746 0.0
H2320 H 0.45422 0.96777 0.76679 0.0
H2321 H 0.48313 0.9776 0.7448 0.0
H2322 H 0.55639 0.98244 0.76578 0.0
H2323 H 0.52565 0.9652 0.75366 0.0
H2324 H 0.48604 0.01719 0.88247 0.0
H2325 H 0.45558 0.99983 0.86849 0.0
H2326 H 0.51483 0.05041 0.86877 0.0
H2327 H 0.54759 0.04921 0.84976 0.0
C2328 C 0.00722 0.53195 0.18925 0.0
C2329 C 0.02212 0.51001 0.20519 0.0
C2330 C 0.97579 0.49328 0.2251 0.0
C2331 C 0.96109 0.51498 0.20895 0.0
N2332 N 0.96233 0.55774 0.17999 0.0
N2333 N 0.02101 0.4719 0.24067 0.0
C2334 C 0.97674 0.535 0.19216 0.0
C2335 C 0.00651 0.49151 0.22402 0.0
N2336 N 0.02214 0.55029 0.17154 0.0
N2337 N 0.96025 0.47312 0.24009 0.0
H2338 H 0.04283 0.46715 0.23799 0.0
H2339 H 0.01175 0.46093 0.25796 0.0
H2340 H 0.93808 0.47454 0.24333 0.0
H2341 H 0.96897 0.45417 0.24843 0.0
H2342 H 0.0125 0.5631 0.15581 0.0
H2343 H 0.04438 0.55301 0.1722 0.0
H2344 H 0.97226 0.57496 0.16957 0.0
H2345 H 0.94012 0.56067 0.18241 0.0
C2346 C 0.02404 0.99192 0.73102 0.0
C2347 C 0.03717 0.00733 0.7079 0.0
C2348 C 0.98999 0.02952 0.69665 0.0
C2349 C 0.97623 0.01028 0.71579 0.0
N2350 N 0.98 0.97536 0.75438 0.0
N2351 N 0.03195 0.04151 0.6684 0.0
C2352 C 0.99326 0.99258 0.7344 0.0
C2353 C 0.01997 0.02646 0.69078 0.0
N2354 N 0.04099 0.97624 0.74941 0.0
N2355 N 0.97424 0.05148 0.68478 0.0
H2356 H 0.05384 0.04178 0.66378 0.0
H2357 H 0.01988 0.05265 0.65307 0.0
H2358 H 0.95238 0.05439 0.68944 0.0
H2359 H 0.98328 0.06852 0.67323 0.0
H2360 H 0.03369 0.96718 0.76861 0.0
H2361 H 0.06305 0.97325 0.74617 0.0
H2362 H 0.99036 0.95914 0.76591 0.0
H2363 H 0.95804 0.97631 0.75885 0.0
C2364 C 0.99247 0.27944 0.99337 0.0
C2365 C 0.01059 0.29959 0.97902 0.0
C2366 C 0.03313 0.31209 0.0254 0.0
C2367 C 0.01498 0.2921 0.03958 0.0
N2368 N 0.98604 0.2489 0.0353 0.0
N2369 N 0.05631 0.32541 0.98082 0.0
C2370 C 0.99766 0.273 0.02297 0.0
C2371 C 0.03336 0.31316 0.99481 0.0
N2372 N 0.96938 0.26758 0.97937 0.0
N2373 N 0.05028 0.33008 0.04124 0.0
H2374 H 0.05954 0.32396 0.95866 0.0
H2375 H 0.0744 0.33335 0.99153 0.0
H2376 H 0.05266 0.32795 0.06355 0.0
H2377 H 0.06104 0.34773 0.03236 0.0
H2378 H 0.95478 0.25364 0.98921 0.0
H2379 H 0.96297 0.27382 0.95875 0.0
H2380 H 0.97554 0.23295 0.02343 0.0
H2381 H 0.9898 0.24298 0.05662 0.0
C2382 C 0.029 0.81044 0.48859 0.0
C2383 C 0.00682 0.79612 0.4726 0.0
C2384 C 0.99087 0.77226 0.51722 0.0
C2385 C 0.00949 0.79043 0.5336 0.0
N2386 N 0.0475 0.82553 0.5353 0.0
N2387 N 0.96534 0.76486 0.47207 0.0
C2388 C 0.02901 0.80901 0.5193 0.0
C2389 C 0.98769 0.77707 0.48697 0.0
N2390 N 0.05085 0.82441 0.47451 0.0
N2391 N 0.97611 0.75039 0.53038 0.0
H2392 H 0.96161 0.76871 0.45021 0.0
H2393 H 0.94897 0.75291 0.48173 0.0
H2394 H 0.97689 0.74629 0.55242 0.0
H2395 H 0.96527 0.73433 0.51901 0.0
H2396 H 0.06923 0.83233 0.48469 0.0
H2397 H 0.05222 0.82602 0.45222 0.0
H2398 H 0.05959 0.8425 0.52692 0.0
H2399 H 0.04995 0.8228 0.55754 0.0
loop_
_geom_bond_atom_site_label_1
_geom_bond_atom_site_label_2
_geom_bond_distance
_geom_bond_site_symmetry_2
_ccdc_geom_bond_type
O0 Cd1 2.223 . S
O0 C8 1.315 . S
Cd1 O0 2.223 . S
Cd1 O4 2.297 . S
Cd1 O5 2.439 . S
Cd1 O11 2.240 . S
Cd2 O3 2.240 . S
Cd2 O10 2.223 . S
Cd2 O12 2.297 . S
Cd2 O13 2.439 . S
O3 Cd2 2.240 . S
O3 C8 1.279 . S
O4 Cd1 2.297 . S
O4 C6 1.247 . S
O5 Cd1 2.439 . S
O5 C6 1.208 . S
C6 O4 1.247 . S
C6 O5 1.208 . S
C7 O12 1.247 . S
C7 O13 1.208 . S
C8 O0 1.315 . S
C8 O3 1.279 . S
C9 O10 1.315 . S
C9 O11 1.279 . S
O10 Cd2 2.223 . S
O10 C9 1.315 . S
O11 Cd1 2.240 . S
O11 C9 1.279 . S
O12 Cd2 2.297 . S
O12 C7 1.247 . S
O13 Cd2 2.439 . S
O13 C7 1.208 . S
O14 Cd15 2.223 . S
O14 C22 1.315 . S
Cd15 O14 2.223 . S
Cd15 O18 2.297 . S
Cd15 O19 2.439 . S
Cd15 O25 2.240 . S
Cd16 O17 2.240 . S
Cd16 O24 2.223 . S
Cd16 O26 2.297 . S
Cd16 O27 2.439 . S
O17 Cd16 2.240 . S
O17 C22 1.279 . S
O18 Cd15 2.297 . S
O18 C20 1.247 . S
O19 Cd15 2.439 . S
O19 C20 1.208 . S
C20 O18 1.247 . S
C20 O19 1.208 . S
C21 O26 1.247 . S
C21 O27 1.208 . S
C22 O14 1.315 . S
C22 O17 1.279 . S
C23 O24 1.315 . S
C23 O25 1.279 . S
O24 Cd16 2.223 . S
O24 C23 1.315 . S
O25 Cd15 2.240 . S
O25 C23 1.279 . S
O26 Cd16 2.297 . S
O26 C21 1.247 . S
O27 Cd16 2.439 . S
O27 C21 1.208 . S
O28 Cd29 2.223 . S
O28 C36 1.315 . S
Cd29 O28 2.223 . S
Cd29 O32 2.297 . S
Cd29 O33 2.439 . S
Cd29 O39 2.240 . S
Cd30 O31 2.240 . S
Cd30 O38 2.223 . S
Cd30 O40 2.297 . S
Cd30 O41 2.439 . S
O31 Cd30 2.240 . S
O31 C36 1.279 . S
O32 Cd29 2.297 . S
O32 C34 1.247 . S
O33 Cd29 2.439 . S
O33 C34 1.208 . S
C34 O32 1.247 . S
C34 O33 1.208 . S
C35 O40 1.247 1_545 S
C35 O41 1.208 1_545 S
C36 O28 1.315 . S
C36 O31 1.279 . S
C37 O38 1.315 . S
C37 O39 1.279 . S
O38 Cd30 2.223 . S
O38 C37 1.315 . S
O39 Cd29 2.240 . S
O39 C37 1.279 . S
O40 Cd30 2.297 . S
O40 C35 1.247 1_565 S
O41 Cd30 2.439 . S
O41 C35 1.208 1_565 S
O42 Cd43 2.223 . S
O42 C50 1.315 . S
Cd43 O42 2.223 . S
Cd43 O46 2.297 . S
Cd43 O47 2.439 . S
Cd43 O53 2.240 . S
Cd44 O45 2.240 . S
Cd44 O52 2.223 . S
Cd44 O54 2.297 . S
Cd44 O55 2.439 . S
O45 Cd44 2.240 . S
O45 C50 1.279 . S
O46 Cd43 2.297 . S
O46 C48 1.247 . S
O47 Cd43 2.439 . S
O47 C48 1.208 . S
C48 O46 1.247 . S
C48 O47 1.208 . S
C49 O54 1.247 1_554 S
C49 O55 1.208 1_554 S
C50 O42 1.315 . S
C50 O45 1.279 . S
C51 O52 1.315 . S
C51 O53 1.279 . S
O52 Cd44 2.223 . S
O52 C51 1.315 . S
O53 Cd43 2.240 . S
O53 C51 1.279 . S
O54 Cd44 2.297 . S
O54 C49 1.247 1_556 S
O55 Cd44 2.439 . S
O55 C49 1.208 1_556 S
O56 Cd57 2.223 . S
O56 C64 1.315 . S
Cd57 O56 2.223 . S
Cd57 O60 2.297 . S
Cd57 O61 2.439 . S
Cd57 O67 2.240 . S
Cd58 O59 2.240 . S
Cd58 O66 2.223 . S
Cd58 O68 2.297 . S
Cd58 O69 2.439 . S
O59 Cd58 2.240 . S
O59 C64 1.279 . S
O60 Cd57 2.297 . S
O60 C62 1.247 . S
O61 Cd57 2.439 . S
O61 C62 1.208 . S
C62 O60 1.247 . S
C62 O61 1.208 . S
C63 O68 1.247 . S
C63 O69 1.208 . S
C64 O56 1.315 . S
C64 O59 1.279 . S
C65 O66 1.315 . S
C65 O67 1.279 . S
O66 Cd58 2.223 . S
O66 C65 1.315 . S
O67 Cd57 2.240 . S
O67 C65 1.279 . S
O68 Cd58 2.297 . S
O68 C63 1.247 . S
O69 Cd58 2.439 . S
O69 C63 1.208 . S
O70 Cd71 2.223 . S
O70 C78 1.315 . S
Cd71 O70 2.223 . S
Cd71 O74 2.297 . S
Cd71 O75 2.439 . S
Cd71 O81 2.240 . S
Cd72 O73 2.240 . S
Cd72 O80 2.223 . S
Cd72 O82 2.297 . S
Cd72 O83 2.439 . S
O73 Cd72 2.240 . S
O73 C78 1.279 . S
O74 Cd71 2.297 . S
O74 C76 1.247 1_554 S
O75 Cd71 2.439 . S
O75 C76 1.208 1_554 S
C76 O74 1.247 1_556 S
C76 O75 1.208 1_556 S
C77 O82 1.247 . S
C77 O83 1.208 . S
C78 O70 1.315 . S
C78 O73 1.279 . S
C79 O80 1.315 . S
C79 O81 1.279 . S
O80 Cd72 2.223 . S
O80 C79 1.315 . S
O81 Cd71 2.240 . S
O81 C79 1.279 . S
O82 Cd72 2.297 . S
O82 C77 1.247 . S
O83 Cd72 2.439 . S
O83 C77 1.208 . S
O84 Cd85 2.223 . S
O84 C92 1.315 . S
Cd85 O84 2.223 . S
Cd85 O88 2.297 . S
Cd85 O89 2.439 . S
Cd85 O95 2.240 . S
Cd86 O87 2.240 . S
Cd86 O94 2.223 . S
Cd86 O96 2.297 . S
Cd86 O97 2.439 . S
O87 Cd86 2.240 . S
O87 C92 1.279 . S
O88 Cd85 2.297 . S
O88 C90 1.247 1_545 S
O89 Cd85 2.439 . S
O89 C90 1.208 1_545 S
C90 O88 1.247 1_565 S
C90 O89 1.208 1_565 S
C91 O96 1.247 . S
C91 O97 1.208 . S
C92 O84 1.315 . S
C92 O87 1.279 . S
C93 O94 1.315 . S
C93 O95 1.279 . S
O94 Cd86 2.223 . S
O94 C93 1.315 . S
O95 Cd85 2.240 . S
O95 C93 1.279 . S
O96 Cd86 2.297 . S
O96 C91 1.247 . S
O97 Cd86 2.439 . S
O97 C91 1.208 . S
O98 Cd99 2.223 . S
O98 C106 1.315 . S
Cd99 O98 2.223 . S
Cd99 O102 2.297 . S
Cd99 O103 2.439 . S
Cd99 O109 2.240 . S
Cd100 O101 2.240 . S
Cd100 O108 2.223 . S
Cd100 O110 2.297 . S
Cd100 O111 2.439 . S
O101 Cd100 2.240 . S
O101 C106 1.279 . S
O102 Cd99 2.297 . S
O102 C104 1.247 . S
O103 Cd99 2.439 . S
O103 C104 1.208 . S
C104 O102 1.247 . S
C104 O103 1.208 . S
C105 O110 1.247 . S
C105 O111 1.208 . S
C106 O98 1.315 . S
C106 O101 1.279 . S
C107 O108 1.315 . S
C107 O109 1.279 . S
O108 Cd100 2.223 . S
O108 C107 1.315 . S
O109 Cd99 2.240 . S
O109 C107 1.279 . S
O110 Cd100 2.297 . S
O110 C105 1.247 . S
O111 Cd100 2.439 . S
O111 C105 1.208 . S
O112 Cd113 2.223 . S
O112 C120 1.315 . S
Cd113 O112 2.223 . S
Cd113 O116 2.297 . S
Cd113 O117 2.439 . S
Cd113 O123 2.240 . S
Cd114 O115 2.240 . S
Cd114 O122 2.223 . S
Cd114 O124 2.297 . S
Cd114 O125 2.439 . S
O115 Cd114 2.240 . S
O115 C120 1.279 . S
O116 Cd113 2.297 . S
O116 C118 1.247 . S
O117 Cd113 2.439 . S
O117 C118 1.208 . S
C118 O116 1.247 . S
C118 O117 1.208 . S
C119 O124 1.247 . S
C119 O125 1.208 . S
C120 O112 1.315 . S
C120 O115 1.279 . S
C121 O122 1.315 . S
C121 O123 1.279 . S
O122 Cd114 2.223 . S
O122 C121 1.315 . S
O123 Cd113 2.240 . S
O123 C121 1.279 . S
O124 Cd114 2.297 . S
O124 C119 1.247 . S
O125 Cd114 2.439 . S
O125 C119 1.208 . S
O126 Cd127 2.223 . S
O126 C134 1.315 . S
Cd127 O126 2.223 . S
Cd127 O130 2.297 . S
Cd127 O131 2.439 . S
Cd127 O137 2.240 . S
Cd128 O129 2.240 . S
Cd128 O136 2.223 . S
Cd128 O138 2.297 . S
Cd128 O139 2.439 . S
O129 Cd128 2.240 . S
O129 C134 1.279 . S
O130 Cd127 2.297 . S
O130 C132 1.247 . S
O131 Cd127 2.439 . S
O131 C132 1.208 . S
C132 O130 1.247 . S
C132 O131 1.208 . S
C133 O138 1.247 . S
C133 O139 1.208 . S
C134 O126 1.315 . S
C134 O129 1.279 . S
C135 O136 1.315 . S
C135 O137 1.279 . S
O136 Cd128 2.223 . S
O136 C135 1.315 . S
O137 Cd127 2.240 . S
O137 C135 1.279 . S
O138 Cd128 2.297 . S
O138 C133 1.247 . S
O139 Cd128 2.439 . S
O139 C133 1.208 . S
O140 Cd141 2.223 . S
O140 C148 1.315 . S
Cd141 O140 2.223 . S
Cd141 O144 2.297 . S
Cd141 O145 2.439 . S
Cd141 O151 2.240 . S
Cd142 O143 2.240 . S
Cd142 O150 2.223 . S
Cd142 O152 2.297 . S
Cd142 O153 2.439 . S
O143 Cd142 2.240 . S
O143 C148 1.279 . S
O144 Cd141 2.297 . S
O144 C146 1.247 . S
O145 Cd141 2.439 . S
O145 C146 1.208 . S
C146 O144 1.247 . S
C146 O145 1.208 . S
C147 O152 1.247 1_554 S
C147 O153 1.208 1_554 S
C148 O140 1.315 . S
C148 O143 1.279 . S
C149 O150 1.315 . S
C149 O151 1.279 . S
O150 Cd142 2.223 . S
O150 C149 1.315 . S
O151 Cd141 2.240 . S
O151 C149 1.279 . S
O152 Cd142 2.297 . S
O152 C147 1.247 1_556 S
O153 Cd142 2.439 . S
O153 C147 1.208 1_556 S
O154 Cd155 2.223 . S
O154 C162 1.315 . S
Cd155 O154 2.223 . S
Cd155 O158 2.297 . S
Cd155 O159 2.439 . S
Cd155 O165 2.240 . S
Cd156 O157 2.240 . S
Cd156 O164 2.223 . S
Cd156 O166 2.297 . S
Cd156 O167 2.439 . S
O157 Cd156 2.240 . S
O157 C162 1.279 . S
O158 Cd155 2.297 . S
O158 C160 1.247 . S
O159 Cd155 2.439 . S
O159 C160 1.208 . S
C160 O158 1.247 . S
C160 O159 1.208 . S
C161 O166 1.247 1_565 S
C161 O167 1.208 1_565 S
C162 O154 1.315 . S
C162 O157 1.279 . S
C163 O164 1.315 . S
C163 O165 1.279 . S
O164 Cd156 2.223 . S
O164 C163 1.315 . S
O165 Cd155 2.240 . S
O165 C163 1.279 . S
O166 Cd156 2.297 . S
O166 C161 1.247 1_545 S
O167 Cd156 2.439 . S
O167 C161 1.208 1_545 S
O168 Cd169 2.223 . S
O168 C176 1.315 . S
Cd169 O168 2.223 . S
Cd169 O172 2.297 . S
Cd169 O173 2.439 . S
Cd169 O179 2.240 . S
Cd170 O171 2.240 . S
Cd170 O178 2.223 . S
Cd170 O180 2.297 . S
Cd170 O181 2.439 . S
O171 Cd170 2.240 . S
O171 C176 1.279 . S
O172 Cd169 2.297 . S
O172 C174 1.247 . S
O173 Cd169 2.439 . S
O173 C174 1.208 . S
C174 O172 1.247 . S
C174 O173 1.208 . S
C175 O180 1.247 . S
C175 O181 1.208 . S
C176 O168 1.315 . S
C176 O171 1.279 . S
C177 O178 1.315 . S
C177 O179 1.279 . S
O178 Cd170 2.223 . S
O178 C177 1.315 . S
O179 Cd169 2.240 . S
O179 C177 1.279 . S
O180 Cd170 2.297 . S
O180 C175 1.247 . S
O181 Cd170 2.439 . S
O181 C175 1.208 . S
O182 Cd183 2.223 . S
O182 C190 1.315 . S
Cd183 O182 2.223 . S
Cd183 O186 2.297 . S
Cd183 O187 2.439 . S
Cd183 O193 2.240 . S
Cd184 O185 2.240 . S
Cd184 O192 2.223 . S
Cd184 O194 2.297 . S
Cd184 O195 2.439 . S
O185 Cd184 2.240 . S
O185 C190 1.279 . S
O186 Cd183 2.297 . S
O186 C188 1.247 1_455 S
O187 Cd183 2.439 . S
O187 C188 1.208 1_455 S
C188 O186 1.247 1_655 S
C188 O187 1.208 1_655 S
C189 O194 1.247 . S
C189 O195 1.208 . S
C190 O182 1.315 . S
C190 O185 1.279 . S
C191 O192 1.315 . S
C191 O193 1.279 . S
O192 Cd184 2.223 . S
O192 C191 1.315 . S
O193 Cd183 2.240 . S
O193 C191 1.279 . S
O194 Cd184 2.297 . S
O194 C189 1.247 . S
O195 Cd184 2.439 . S
O195 C189 1.208 . S
O196 Cd197 2.223 . S
O196 C204 1.315 . S
Cd197 O196 2.223 . S
Cd197 O200 2.297 . S
Cd197 O201 2.439 . S
Cd197 O207 2.240 . S
Cd198 O199 2.240 . S
Cd198 O206 2.223 . S
Cd198 O208 2.297 . S
Cd198 O209 2.439 . S
O199 Cd198 2.240 . S
O199 C204 1.279 . S
O200 Cd197 2.297 . S
O200 C202 1.247 . S
O201 Cd197 2.439 . S
O201 C202 1.208 . S
C202 O200 1.247 . S
C202 O201 1.208 . S
C203 O208 1.247 . S
C203 O209 1.208 . S
C204 O196 1.315 . S
C204 O199 1.279 . S
C205 O206 1.315 . S
C205 O207 1.279 . S
O206 Cd198 2.223 . S
O206 C205 1.315 . S
O207 Cd197 2.240 . S
O207 C205 1.279 . S
O208 Cd198 2.297 . S
O208 C203 1.247 . S
O209 Cd198 2.439 . S
O209 C203 1.208 . S
O210 Cd211 2.223 . S
O210 C218 1.315 . S
Cd211 O210 2.223 . S
Cd211 O214 2.297 . S
Cd211 O215 2.439 . S
Cd211 O221 2.240 . S
Cd212 O213 2.240 . S
Cd212 O220 2.223 . S
Cd212 O222 2.297 . S
Cd212 O223 2.439 . S
O213 Cd212 2.240 . S
O213 C218 1.279 . S
O214 Cd211 2.297 . S
O214 C216 1.247 . S
O215 Cd211 2.439 . S
O215 C216 1.208 . S
C216 O214 1.247 . S
C216 O215 1.208 . S
C217 O222 1.247 1_455 S
C217 O223 1.208 1_455 S
C218 O210 1.315 . S
C218 O213 1.279 . S
C219 O220 1.315 . S
C219 O221 1.279 . S
O220 Cd212 2.223 . S
O220 C219 1.315 . S
O221 Cd211 2.240 . S
O221 C219 1.279 . S
O222 Cd212 2.297 . S
O222 C217 1.247 1_655 S
O223 Cd212 2.439 . S
O223 C217 1.208 1_655 S
O224 Cd225 2.223 . S
O224 C232 1.315 . S
Cd225 O224 2.223 . S
Cd225 O228 2.297 . S
Cd225 O229 2.439 . S
Cd225 O235 2.240 . S
Cd226 O227 2.240 . S
Cd226 O234 2.223 . S
Cd226 O236 2.297 . S
Cd226 O237 2.439 . S
O227 Cd226 2.240 . S
O227 C232 1.279 . S
O228 Cd225 2.297 . S
O228 C230 1.247 1_455 S
O229 Cd225 2.439 . S
O229 C230 1.208 1_455 S
C230 O228 1.247 1_655 S
C230 O229 1.208 1_655 S
C231 O236 1.247 . S
C231 O237 1.208 . S
C232 O224 1.315 . S
C232 O227 1.279 . S
C233 O234 1.315 . S
C233 O235 1.279 . S
O234 Cd226 2.223 . S
O234 C233 1.315 . S
O235 Cd225 2.240 . S
O235 C233 1.279 . S
O236 Cd226 2.297 . S
O236 C231 1.247 . S
O237 Cd226 2.439 . S
O237 C231 1.208 . S
O238 Cd239 2.223 . S
O238 C246 1.315 . S
Cd239 O238 2.223 . S
Cd239 O242 2.297 . S
Cd239 O243 2.439 . S
Cd239 O249 2.240 . S
Cd240 O241 2.240 . S
Cd240 O248 2.223 . S
Cd240 O250 2.297 . S
Cd240 O251 2.439 . S
O241 Cd240 2.240 . S
O241 C246 1.279 . S
O242 Cd239 2.297 . S
O242 C244 1.247 . S
O243 Cd239 2.439 . S
O243 C244 1.208 . S
C244 O242 1.247 . S
C244 O243 1.208 . S
C245 O250 1.247 . S
C245 O251 1.208 . S
C246 O238 1.315 . S
C246 O241 1.279 . S
C247 O248 1.315 . S
C247 O249 1.279 . S
O248 Cd240 2.223 . S
O248 C247 1.315 . S
O249 Cd239 2.240 . S
O249 C247 1.279 . S
O250 Cd240 2.297 . S
O250 C245 1.247 . S
O251 Cd240 2.439 . S
O251 C245 1.208 . S
O252 Cd253 2.223 . S
O252 C260 1.315 . S
Cd253 O252 2.223 . S
Cd253 O256 2.297 . S
Cd253 O257 2.439 . S
Cd253 O263 2.240 . S
Cd254 O255 2.240 . S
Cd254 O262 2.223 . S
Cd254 O264 2.297 . S
Cd254 O265 2.439 . S
O255 Cd254 2.240 . S
O255 C260 1.279 . S
O256 Cd253 2.297 . S
O256 C258 1.247 . S
O257 Cd253 2.439 . S
O257 C258 1.208 . S
C258 O256 1.247 . S
C258 O257 1.208 . S
C259 O264 1.247 . S
C259 O265 1.208 . S
C260 O252 1.315 . S
C260 O255 1.279 . S
C261 O262 1.315 . S
C261 O263 1.279 . S
O262 Cd254 2.223 . S
O262 C261 1.315 . S
O263 Cd253 2.240 . S
O263 C261 1.279 . S
O264 Cd254 2.297 . S
O264 C259 1.247 . S
O265 Cd254 2.439 . S
O265 C259 1.208 . S
O266 Cd267 2.223 . S
O266 C274 1.315 . S
Cd267 O266 2.223 . S
Cd267 O270 2.297 . S
Cd267 O271 2.439 . S
Cd267 O277 2.240 . S
Cd268 O269 2.240 . S
Cd268 O276 2.223 . S
Cd268 O278 2.297 . S
Cd268 O279 2.439 . S
O269 Cd268 2.240 . S
O269 C274 1.279 . S
O270 Cd267 2.297 . S
O270 C272 1.247 . S
O271 Cd267 2.439 . S
O271 C272 1.208 . S
C272 O270 1.247 . S
C272 O271 1.208 . S
C273 O278 1.247 . S
C273 O279 1.208 . S
C274 O266 1.315 . S
C274 O269 1.279 . S
C275 O276 1.315 . S
C275 O277 1.279 . S
O276 Cd268 2.223 . S
O276 C275 1.315 . S
O277 Cd267 2.240 . S
O277 C275 1.279 . S
O278 Cd268 2.297 . S
O278 C273 1.247 . S
O279 Cd268 2.439 . S
O279 C273 1.208 . S
O280 Cd281 2.223 . S
O280 C288 1.315 . S
Cd281 O280 2.223 . S
Cd281 O284 2.297 . S
Cd281 O285 2.439 . S
Cd281 O291 2.240 . S
Cd282 O283 2.240 . S
Cd282 O290 2.223 . S
Cd282 O292 2.297 . S
Cd282 O293 2.439 . S
O283 Cd282 2.240 . S
O283 C288 1.279 . S
O284 Cd281 2.297 . S
O284 C286 1.247 . S
O285 Cd281 2.439 . S
O285 C286 1.208 . S
C286 O284 1.247 . S
C286 O285 1.208 . S
C287 O292 1.247 1_565 S
C287 O293 1.208 1_565 S
C288 O280 1.315 . S
C288 O283 1.279 . S
C289 O290 1.315 . S
C289 O291 1.279 . S
O290 Cd282 2.223 . S
O290 C289 1.315 . S
O291 Cd281 2.240 . S
O291 C289 1.279 . S
O292 Cd282 2.297 . S
O292 C287 1.247 1_545 S
O293 Cd282 2.439 . S
O293 C287 1.208 1_545 S
O294 Cd295 2.223 . S
O294 C302 1.315 . S
Cd295 O294 2.223 . S
Cd295 O298 2.297 . S
Cd295 O299 2.439 . S
Cd295 O305 2.240 . S
Cd296 O297 2.240 . S
Cd296 O304 2.223 . S
Cd296 O306 2.297 . S
Cd296 O307 2.439 . S
O297 Cd296 2.240 . S
O297 C302 1.279 . S
O298 Cd295 2.297 . S
O298 C300 1.247 . S
O299 Cd295 2.439 . S
O299 C300 1.208 . S
C300 O298 1.247 . S
C300 O299 1.208 . S
C301 O306 1.247 1_554 S
C301 O307 1.208 1_554 S
C302 O294 1.315 . S
C302 O297 1.279 . S
C303 O304 1.315 . S
C303 O305 1.279 . S
O304 Cd296 2.223 . S
O304 C303 1.315 . S
O305 Cd295 2.240 . S
O305 C303 1.279 . S
O306 Cd296 2.297 . S
O306 C301 1.247 1_556 S
O307 Cd296 2.439 . S
O307 C301 1.208 1_556 S
O308 Cd309 2.223 . S
O308 C316 1.315 . S
Cd309 O308 2.223 . S
Cd309 O312 2.297 . S
Cd309 O313 2.439 . S
Cd309 O319 2.240 . S
Cd310 O311 2.240 . S
Cd310 O318 2.223 . S
Cd310 O320 2.297 . S
Cd310 O321 2.439 . S
O311 Cd310 2.240 . S
O311 C316 1.279 . S
O312 Cd309 2.297 . S
O312 C314 1.247 . S
O313 Cd309 2.439 . S
O313 C314 1.208 . S
C314 O312 1.247 . S
C314 O313 1.208 . S
C315 O320 1.247 . S
C315 O321 1.208 . S
C316 O308 1.315 . S
C316 O311 1.279 . S
C317 O318 1.315 . S
C317 O319 1.279 . S
O318 Cd310 2.223 . S
O318 C317 1.315 . S
O319 Cd309 2.240 . S
O319 C317 1.279 . S
O320 Cd310 2.297 . S
O320 C315 1.247 . S
O321 Cd310 2.439 . S
O321 C315 1.208 . S
O322 Cd323 2.223 . S
O322 C330 1.315 . S
Cd323 O322 2.223 . S
Cd323 O326 2.297 . S
Cd323 O327 2.439 . S
Cd323 O333 2.240 . S
Cd324 O325 2.240 . S
Cd324 O332 2.223 . S
Cd324 O334 2.297 . S
Cd324 O335 2.439 . S
O325 Cd324 2.240 . S
O325 C330 1.279 . S
O326 Cd323 2.297 . S
O326 C328 1.247 . S
O327 Cd323 2.439 . S
O327 C328 1.208 . S
C328 O326 1.247 . S
C328 O327 1.208 . S
C329 O334 1.247 . S
C329 O335 1.208 . S
C330 O322 1.315 . S
C330 O325 1.279 . S
C331 O332 1.315 . S
C331 O333 1.279 . S
O332 Cd324 2.223 . S
O332 C331 1.315 . S
O333 Cd323 2.240 . S
O333 C331 1.279 . S
O334 Cd324 2.297 . S
O334 C329 1.247 . S
O335 Cd324 2.439 . S
O335 C329 1.208 . S
O336 Cd337 2.223 . S
O336 C344 1.315 . S
Cd337 O336 2.223 . S
Cd337 O340 2.297 . S
Cd337 O341 2.439 . S
Cd337 O347 2.240 . S
Cd338 O339 2.240 . S
Cd338 O346 2.223 . S
Cd338 O348 2.297 . S
Cd338 O349 2.439 . S
O339 Cd338 2.240 . S
O339 C344 1.279 . S
O340 Cd337 2.297 . S
O340 C342 1.247 1_565 S
O341 Cd337 2.439 . S
O341 C342 1.208 1_565 S
C342 O340 1.247 1_545 S
C342 O341 1.208 1_545 S
C343 O348 1.247 . S
C343 O349 1.208 . S
C344 O336 1.315 . S
C344 O339 1.279 . S
C345 O346 1.315 . S
C345 O347 1.279 . S
O346 Cd338 2.223 . S
O346 C345 1.315 . S
O347 Cd337 2.240 . S
O347 C345 1.279 . S
O348 Cd338 2.297 . S
O348 C343 1.247 . S
O349 Cd338 2.439 . S
O349 C343 1.208 . S
O350 Cd351 2.223 . S
O350 C358 1.315 . S
Cd351 O350 2.223 . S
Cd351 O354 2.297 . S
Cd351 O355 2.439 . S
Cd351 O361 2.240 . S
Cd352 O353 2.240 . S
Cd352 O360 2.223 . S
Cd352 O362 2.297 . S
Cd352 O363 2.439 . S
O353 Cd352 2.240 . S
O353 C358 1.279 . S
O354 Cd351 2.297 . S
O354 C356 1.247 . S
O355 Cd351 2.439 . S
O355 C356 1.208 . S
C356 O354 1.247 . S
C356 O355 1.208 . S
C357 O362 1.247 . S
C357 O363 1.208 . S
C358 O350 1.315 . S
C358 O353 1.279 . S
C359 O360 1.315 . S
C359 O361 1.279 . S
O360 Cd352 2.223 . S
O360 C359 1.315 . S
O361 Cd351 2.240 . S
O361 C359 1.279 . S
O362 Cd352 2.297 . S
O362 C357 1.247 . S
O363 Cd352 2.439 . S
O363 C357 1.208 . S
O364 Cd365 2.223 . S
O364 C372 1.315 . S
Cd365 O364 2.223 . S
Cd365 O368 2.297 . S
Cd365 O369 2.439 . S
Cd365 O375 2.240 . S
Cd366 O367 2.240 . S
Cd366 O374 2.223 . S
Cd366 O376 2.297 . S
Cd366 O377 2.439 . S
O367 Cd366 2.240 . S
O367 C372 1.279 . S
O368 Cd365 2.297 . S
O368 C370 1.247 . S
O369 Cd365 2.439 . S
O369 C370 1.208 . S
C370 O368 1.247 . S
C370 O369 1.208 . S
C371 O376 1.247 . S
C371 O377 1.208 . S
C372 O364 1.315 . S
C372 O367 1.279 . S
C373 O374 1.315 . S
C373 O375 1.279 . S
O374 Cd366 2.223 . S
O374 C373 1.315 . S
O375 Cd365 2.240 . S
O375 C373 1.279 . S
O376 Cd366 2.297 . S
O376 C371 1.247 . S
O377 Cd366 2.439 . S
O377 C371 1.208 . S
O378 Cd379 2.223 . S
O378 C386 1.315 . S
Cd379 O378 2.223 . S
Cd379 O382 2.297 . S
Cd379 O383 2.439 . S
Cd379 O389 2.240 . S
Cd380 O381 2.240 . S
Cd380 O388 2.223 . S
Cd380 O390 2.297 . S
Cd380 O391 2.439 . S
O381 Cd380 2.240 . S
O381 C386 1.279 . S
O382 Cd379 2.297 . S
O382 C384 1.247 1_554 S
O383 Cd379 2.439 . S
O383 C384 1.208 1_554 S
C384 O382 1.247 1_556 S
C384 O383 1.208 1_556 S
C385 O390 1.247 . S
C385 O391 1.208 . S
C386 O378 1.315 . S
C386 O381 1.279 . S
C387 O388 1.315 . S
C387 O389 1.279 . S
O388 Cd380 2.223 . S
O388 C387 1.315 . S
O389 Cd379 2.240 . S
O389 C387 1.279 . S
O390 Cd380 2.297 . S
O390 C385 1.247 . S
O391 Cd380 2.439 . S
O391 C385 1.208 . S
O392 Cd393 2.223 . S
O392 C400 1.315 . S
Cd393 O392 2.223 . S
Cd393 O396 2.297 . S
Cd393 O397 2.439 . S
Cd393 O403 2.240 . S
Cd394 O395 2.240 . S
Cd394 O402 2.223 . S
Cd394 O404 2.297 . S
Cd394 O405 2.439 . S
O395 Cd394 2.240 . S
O395 C400 1.279 . S
O396 Cd393 2.297 . S
O396 C398 1.247 . S
O397 Cd393 2.439 . S
O397 C398 1.208 . S
C398 O396 1.247 . S
C398 O397 1.208 . S
C399 O404 1.247 1_554 S
C399 O405 1.208 1_554 S
C400 O392 1.315 . S
C400 O395 1.279 . S
C401 O402 1.315 . S
C401 O403 1.279 . S
O402 Cd394 2.223 . S
O402 C401 1.315 . S
O403 Cd393 2.240 . S
O403 C401 1.279 . S
O404 Cd394 2.297 . S
O404 C399 1.247 1_556 S
O405 Cd394 2.439 . S
O405 C399 1.208 1_556 S
O406 Cd407 2.223 . S
O406 C414 1.315 . S
Cd407 O406 2.223 . S
Cd407 O410 2.297 . S
Cd407 O411 2.439 . S
Cd407 O417 2.240 . S
Cd408 O409 2.240 . S
Cd408 O416 2.223 . S
Cd408 O418 2.297 . S
Cd408 O419 2.439 . S
O409 Cd408 2.240 . S
O409 C414 1.279 . S
O410 Cd407 2.297 . S
O410 C412 1.247 . S
O411 Cd407 2.439 . S
O411 C412 1.208 . S
C412 O410 1.247 . S
C412 O411 1.208 . S
C413 O418 1.247 1_545 S
C413 O419 1.208 1_545 S
C414 O406 1.315 . S
C414 O409 1.279 . S
C415 O416 1.315 . S
C415 O417 1.279 . S
O416 Cd408 2.223 . S
O416 C415 1.315 . S
O417 Cd407 2.240 . S
O417 C415 1.279 . S
O418 Cd408 2.297 . S
O418 C413 1.247 1_565 S
O419 Cd408 2.439 . S
O419 C413 1.208 1_565 S
O420 Cd421 2.223 . S
O420 C428 1.315 . S
Cd421 O420 2.223 . S
Cd421 O424 2.297 . S
Cd421 O425 2.439 . S
Cd421 O431 2.240 . S
Cd422 O423 2.240 . S
Cd422 O430 2.223 . S
Cd422 O432 2.297 . S
Cd422 O433 2.439 . S
O423 Cd422 2.240 . S
O423 C428 1.279 . S
O424 Cd421 2.297 . S
O424 C426 1.247 . S
O425 Cd421 2.439 . S
O425 C426 1.208 . S
C426 O424 1.247 . S
C426 O425 1.208 . S
C427 O432 1.247 . S
C427 O433 1.208 . S
C428 O420 1.315 . S
C428 O423 1.279 . S
C429 O430 1.315 . S
C429 O431 1.279 . S
O430 Cd422 2.223 . S
O430 C429 1.315 . S
O431 Cd421 2.240 . S
O431 C429 1.279 . S
O432 Cd422 2.297 . S
O432 C427 1.247 . S
O433 Cd422 2.439 . S
O433 C427 1.208 . S
O434 Cd435 2.223 . S
O434 C442 1.315 . S
Cd435 O434 2.223 . S
Cd435 O438 2.297 . S
Cd435 O439 2.439 . S
Cd435 O445 2.240 . S
Cd436 O437 2.240 . S
Cd436 O444 2.223 . S
Cd436 O446 2.297 . S
Cd436 O447 2.439 . S
O437 Cd436 2.240 . S
O437 C442 1.279 . S
O438 Cd435 2.297 . S
O438 C440 1.247 . S
O439 Cd435 2.439 . S
O439 C440 1.208 . S
C440 O438 1.247 . S
C440 O439 1.208 . S
C441 O446 1.247 . S
C441 O447 1.208 . S
C442 O434 1.315 . S
C442 O437 1.279 . S
C443 O444 1.315 . S
C443 O445 1.279 . S
O444 Cd436 2.223 . S
O444 C443 1.315 . S
O445 Cd435 2.240 . S
O445 C443 1.279 . S
O446 Cd436 2.297 . S
O446 C441 1.247 . S
O447 Cd436 2.439 . S
O447 C441 1.208 . S
O448 Cd449 2.223 . S
O448 C456 1.315 . S
Cd449 O448 2.223 . S
Cd449 O452 2.297 . S
Cd449 O453 2.439 . S
Cd449 O459 2.240 . S
Cd450 O451 2.240 . S
Cd450 O458 2.223 . S
Cd450 O460 2.297 . S
Cd450 O461 2.439 . S
O451 Cd450 2.240 . S
O451 C456 1.279 . S
O452 Cd449 2.297 . S
O452 C454 1.247 . S
O453 Cd449 2.439 . S
O453 C454 1.208 . S
C454 O452 1.247 . S
C454 O453 1.208 . S
C455 O460 1.247 . S
C455 O461 1.208 . S
C456 O448 1.315 . S
C456 O451 1.279 . S
C457 O458 1.315 . S
C457 O459 1.279 . S
O458 Cd450 2.223 . S
O458 C457 1.315 . S
O459 Cd449 2.240 . S
O459 C457 1.279 . S
O460 Cd450 2.297 . S
O460 C455 1.247 . S
O461 Cd450 2.439 . S
O461 C455 1.208 . S
O462 Cd463 2.223 . S
O462 C470 1.315 . S
Cd463 O462 2.223 . S
Cd463 O466 2.297 . S
Cd463 O467 2.439 . S
Cd463 O473 2.240 . S
Cd464 O465 2.240 . S
Cd464 O472 2.223 . S
Cd464 O474 2.297 . S
Cd464 O475 2.439 . S
O465 Cd464 2.240 . S
O465 C470 1.279 . S
O466 Cd463 2.297 . S
O466 C468 1.247 1_455 S
O467 Cd463 2.439 . S
O467 C468 1.208 1_455 S
C468 O466 1.247 1_655 S
C468 O467 1.208 1_655 S
C469 O474 1.247 . S
C469 O475 1.208 . S
C470 O462 1.315 . S
C470 O465 1.279 . S
C471 O472 1.315 . S
C471 O473 1.279 . S
O472 Cd464 2.223 . S
O472 C471 1.315 . S
O473 Cd463 2.240 . S
O473 C471 1.279 . S
O474 Cd464 2.297 . S
O474 C469 1.247 . S
O475 Cd464 2.439 . S
O475 C469 1.208 . S
O476 Cd477 2.223 . S
O476 C484 1.315 . S
Cd477 O476 2.223 . S
Cd477 O480 2.297 . S
Cd477 O481 2.439 . S
Cd477 O487 2.240 . S
Cd478 O479 2.240 . S
Cd478 O486 2.223 . S
Cd478 O488 2.297 . S
Cd478 O489 2.439 . S
O479 Cd478 2.240 . S
O479 C484 1.279 . S
O480 Cd477 2.297 . S
O480 C482 1.247 . S
O481 Cd477 2.439 . S
O481 C482 1.208 . S
C482 O480 1.247 . S
C482 O481 1.208 . S
C483 O488 1.247 1_455 S
C483 O489 1.208 1_455 S
C484 O476 1.315 . S
C484 O479 1.279 . S
C485 O486 1.315 . S
C485 O487 1.279 . S
O486 Cd478 2.223 . S
O486 C485 1.315 . S
O487 Cd477 2.240 . S
O487 C485 1.279 . S
O488 Cd478 2.297 . S
O488 C483 1.247 1_655 S
O489 Cd478 2.439 . S
O489 C483 1.208 1_655 S
O490 Cd491 2.223 . S
O490 C498 1.315 . S
Cd491 O490 2.223 . S
Cd491 O494 2.297 . S
Cd491 O495 2.439 . S
Cd491 O501 2.240 . S
Cd492 O493 2.240 . S
Cd492 O500 2.223 . S
Cd492 O502 2.297 . S
Cd492 O503 2.439 . S
O493 Cd492 2.240 . S
O493 C498 1.279 . S
O494 Cd491 2.297 . S
O494 C496 1.247 1_455 S
O495 Cd491 2.439 . S
O495 C496 1.208 1_455 S
C496 O494 1.247 1_655 S
C496 O495 1.208 1_655 S
C497 O502 1.247 . S
C497 O503 1.208 . S
C498 O490 1.315 . S
C498 O493 1.279 . S
C499 O500 1.315 . S
C499 O501 1.279 . S
O500 Cd492 2.223 . S
O500 C499 1.315 . S
O501 Cd491 2.240 . S
O501 C499 1.279 . S
O502 Cd492 2.297 . S
O502 C497 1.247 . S
O503 Cd492 2.439 . S
O503 C497 1.208 . S
O504 Cd505 2.223 . S
O504 C512 1.315 . S
Cd505 O504 2.223 . S
Cd505 O508 2.297 . S
Cd505 O509 2.439 . S
Cd505 O515 2.240 . S
Cd506 O507 2.240 . S
Cd506 O514 2.223 . S
Cd506 O516 2.297 . S
Cd506 O517 2.439 . S
O507 Cd506 2.240 . S
O507 C512 1.279 . S
O508 Cd505 2.297 . S
O508 C510 1.247 . S
O509 Cd505 2.439 . S
O509 C510 1.208 . S
C510 O508 1.247 . S
C510 O509 1.208 . S
C511 O516 1.247 . S
C511 O517 1.208 . S
C512 O504 1.315 . S
C512 O507 1.279 . S
C513 O514 1.315 . S
C513 O515 1.279 . S
O514 Cd506 2.223 . S
O514 C513 1.315 . S
O515 Cd505 2.240 . S
O515 C513 1.279 . S
O516 Cd506 2.297 . S
O516 C511 1.247 . S
O517 Cd506 2.439 . S
O517 C511 1.208 . S
O518 Cd519 2.223 . S
O518 C526 1.315 . S
Cd519 O518 2.223 . S
Cd519 O522 2.297 . S
Cd519 O523 2.439 . S
Cd519 O529 2.240 . S
Cd520 O521 2.240 . S
Cd520 O528 2.223 . S
Cd520 O530 2.297 . S
Cd520 O531 2.439 . S
O521 Cd520 2.240 . S
O521 C526 1.279 . S
O522 Cd519 2.297 . S
O522 C524 1.247 . S
O523 Cd519 2.439 . S
O523 C524 1.208 . S
C524 O522 1.247 . S
C524 O523 1.208 . S
C525 O530 1.247 . S
C525 O531 1.208 . S
C526 O518 1.315 . S
C526 O521 1.279 . S
C527 O528 1.315 . S
C527 O529 1.279 . S
O528 Cd520 2.223 . S
O528 C527 1.315 . S
O529 Cd519 2.240 . S
O529 C527 1.279 . S
O530 Cd520 2.297 . S
O530 C525 1.247 . S
O531 Cd520 2.439 . S
O531 C525 1.208 . S
O532 Cd533 2.223 . S
O532 C540 1.315 . S
Cd533 O532 2.223 . S
Cd533 O536 2.297 . S
Cd533 O537 2.439 . S
Cd533 O543 2.240 . S
Cd534 O535 2.240 . S
Cd534 O542 2.223 . S
Cd534 O544 2.297 . S
Cd534 O545 2.439 . S
O535 Cd534 2.240 . S
O535 C540 1.279 . S
O536 Cd533 2.297 . S
O536 C538 1.247 . S
O537 Cd533 2.439 . S
O537 C538 1.208 . S
C538 O536 1.247 . S
C538 O537 1.208 . S
C539 O544 1.247 . S
C539 O545 1.208 . S
C540 O532 1.315 . S
C540 O535 1.279 . S
C541 O542 1.315 . S
C541 O543 1.279 . S
O542 Cd534 2.223 . S
O542 C541 1.315 . S
O543 Cd533 2.240 . S
O543 C541 1.279 . S
O544 Cd534 2.297 . S
O544 C539 1.247 . S
O545 Cd534 2.439 . S
O545 C539 1.208 . S
O546 Cd547 2.223 . S
O546 C554 1.315 . S
Cd547 O546 2.223 . S
Cd547 O550 2.297 . S
Cd547 O551 2.439 . S
Cd547 O557 2.240 . S
Cd548 O549 2.240 . S
Cd548 O556 2.223 . S
Cd548 O558 2.297 . S
Cd548 O559 2.439 . S
O549 Cd548 2.240 . S
O549 C554 1.279 . S
O550 Cd547 2.297 . S
O550 C552 1.247 . S
O551 Cd547 2.439 . S
O551 C552 1.208 . S
C552 O550 1.247 . S
C552 O551 1.208 . S
C553 O558 1.247 . S
C553 O559 1.208 . S
C554 O546 1.315 . S
C554 O549 1.279 . S
C555 O556 1.315 . S
C555 O557 1.279 . S
O556 Cd548 2.223 . S
O556 C555 1.315 . S
O557 Cd547 2.240 . S
O557 C555 1.279 . S
O558 Cd548 2.297 . S
O558 C553 1.247 . S
O559 Cd548 2.439 . S
O559 C553 1.208 . S
O560 Cd561 2.223 . S
O560 C568 1.315 . S
Cd561 O560 2.223 . S
Cd561 O564 2.297 . S
Cd561 O565 2.439 . S
Cd561 O571 2.240 . S
Cd562 O563 2.240 . S
Cd562 O570 2.223 . S
Cd562 O572 2.297 . S
Cd562 O573 2.439 . S
O563 Cd562 2.240 . S
O563 C568 1.279 . S
O564 Cd561 2.297 . S
O564 C566 1.247 1_545 S
O565 Cd561 2.439 . S
O565 C566 1.208 1_545 S
C566 O564 1.247 1_565 S
C566 O565 1.208 1_565 S
C567 O572 1.247 . S
C567 O573 1.208 . S
C568 O560 1.315 . S
C568 O563 1.279 . S
C569 O570 1.315 . S
C569 O571 1.279 . S
O570 Cd562 2.223 . S
O570 C569 1.315 . S
O571 Cd561 2.240 . S
O571 C569 1.279 . S
O572 Cd562 2.297 . S
O572 C567 1.247 . S
O573 Cd562 2.439 . S
O573 C567 1.208 . S
O574 Cd575 2.223 . S
O574 C582 1.315 . S
Cd575 O574 2.223 . S
Cd575 O578 2.297 . S
Cd575 O579 2.439 . S
Cd575 O585 2.240 . S
Cd576 O577 2.240 . S
Cd576 O584 2.223 . S
Cd576 O586 2.297 . S
Cd576 O587 2.439 . S
O577 Cd576 2.240 . S
O577 C582 1.279 . S
O578 Cd575 2.297 . S
O578 C580 1.247 1_554 S
O579 Cd575 2.439 . S
O579 C580 1.208 1_554 S
C580 O578 1.247 1_556 S
C580 O579 1.208 1_556 S
C581 O586 1.247 . S
C581 O587 1.208 . S
C582 O574 1.315 . S
C582 O577 1.279 . S
C583 O584 1.315 . S
C583 O585 1.279 . S
O584 Cd576 2.223 . S
O584 C583 1.315 . S
O585 Cd575 2.240 . S
O585 C583 1.279 . S
O586 Cd576 2.297 . S
O586 C581 1.247 . S
O587 Cd576 2.439 . S
O587 C581 1.208 . S
O588 Cd589 2.223 . S
O588 C596 1.315 . S
Cd589 O588 2.223 . S
Cd589 O592 2.297 . S
Cd589 O593 2.439 . S
Cd589 O599 2.240 . S
Cd590 O591 2.240 . S
Cd590 O598 2.223 . S
Cd590 O600 2.297 . S
Cd590 O601 2.439 . S
O591 Cd590 2.240 . S
O591 C596 1.279 . S
O592 Cd589 2.297 . S
O592 C594 1.247 1_655 S
O593 Cd589 2.439 . S
O593 C594 1.208 1_655 S
C594 O592 1.247 1_455 S
C594 O593 1.208 1_455 S
C595 O600 1.247 . S
C595 O601 1.208 . S
C596 O588 1.315 . S
C596 O591 1.279 . S
C597 O598 1.315 . S
C597 O599 1.279 . S
O598 Cd590 2.223 . S
O598 C597 1.315 . S
O599 Cd589 2.240 . S
O599 C597 1.279 . S
O600 Cd590 2.297 . S
O600 C595 1.247 . S
O601 Cd590 2.439 . S
O601 C595 1.208 . S
O602 Cd603 2.223 . S
O602 C610 1.315 . S
Cd603 O602 2.223 . S
Cd603 O606 2.297 . S
Cd603 O607 2.439 . S
Cd603 O613 2.240 . S
Cd604 O605 2.240 . S
Cd604 O612 2.223 . S
Cd604 O614 2.297 . S
Cd604 O615 2.439 . S
O605 Cd604 2.240 . S
O605 C610 1.279 . S
O606 Cd603 2.297 . S
O606 C608 1.247 1_655 S
O607 Cd603 2.439 . S
O607 C608 1.208 1_655 S
C608 O606 1.247 1_455 S
C608 O607 1.208 1_455 S
C609 O614 1.247 . S
C609 O615 1.208 . S
C610 O602 1.315 . S
C610 O605 1.279 . S
C611 O612 1.315 . S
C611 O613 1.279 . S
O612 Cd604 2.223 . S
O612 C611 1.315 . S
O613 Cd603 2.240 . S
O613 C611 1.279 . S
O614 Cd604 2.297 . S
O614 C609 1.247 . S
O615 Cd604 2.439 . S
O615 C609 1.208 . S
O616 Cd617 2.223 . S
O616 C624 1.315 . S
Cd617 O616 2.223 . S
Cd617 O620 2.297 . S
Cd617 O621 2.439 . S
Cd617 O627 2.240 . S
Cd618 O619 2.240 . S
Cd618 O626 2.223 . S
Cd618 O628 2.297 . S
Cd618 O629 2.439 . S
O619 Cd618 2.240 . S
O619 C624 1.279 . S
O620 Cd617 2.297 . S
O620 C622 1.247 1_565 S
O621 Cd617 2.439 . S
O621 C622 1.208 1_565 S
C622 O620 1.247 1_545 S
C622 O621 1.208 1_545 S
C623 O628 1.247 . S
C623 O629 1.208 . S
C624 O616 1.315 . S
C624 O619 1.279 . S
C625 O626 1.315 . S
C625 O627 1.279 . S
O626 Cd618 2.223 . S
O626 C625 1.315 . S
O627 Cd617 2.240 . S
O627 C625 1.279 . S
O628 Cd618 2.297 . S
O628 C623 1.247 . S
O629 Cd618 2.439 . S
O629 C623 1.208 . S
O630 Cd631 2.223 . S
O630 C638 1.315 . S
Cd631 O630 2.223 . S
Cd631 O634 2.297 . S
Cd631 O635 2.439 . S
Cd631 O641 2.240 . S
Cd632 O633 2.240 . S
Cd632 O640 2.223 . S
Cd632 O642 2.297 . S
Cd632 O643 2.439 . S
O633 Cd632 2.240 . S
O633 C638 1.279 . S
O634 Cd631 2.297 . S
O634 C636 1.247 1_554 S
O635 Cd631 2.439 . S
O635 C636 1.208 1_554 S
C636 O634 1.247 1_556 S
C636 O635 1.208 1_556 S
C637 O642 1.247 . S
C637 O643 1.208 . S
C638 O630 1.315 . S
C638 O633 1.279 . S
C639 O640 1.315 . S
C639 O641 1.279 . S
O640 Cd632 2.223 . S
O640 C639 1.315 . S
O641 Cd631 2.240 . S
O641 C639 1.279 . S
O642 Cd632 2.297 . S
O642 C637 1.247 . S
O643 Cd632 2.439 . S
O643 C637 1.208 . S
O644 Cd645 2.223 . S
O644 C652 1.315 . S
Cd645 O644 2.223 . S
Cd645 O648 2.297 . S
Cd645 O649 2.439 . S
Cd645 O655 2.240 . S
Cd646 O647 2.240 . S
Cd646 O654 2.223 . S
Cd646 O656 2.297 . S
Cd646 O657 2.439 . S
O647 Cd646 2.240 . S
O647 C652 1.279 . S
O648 Cd645 2.297 . S
O648 C650 1.247 . S
O649 Cd645 2.439 . S
O649 C650 1.208 . S
C650 O648 1.247 . S
C650 O649 1.208 . S
C651 O656 1.247 . S
C651 O657 1.208 . S
C652 O644 1.315 . S
C652 O647 1.279 . S
C653 O654 1.315 . S
C653 O655 1.279 . S
O654 Cd646 2.223 . S
O654 C653 1.315 . S
O655 Cd645 2.240 . S
O655 C653 1.279 . S
O656 Cd646 2.297 . S
O656 C651 1.247 . S
O657 Cd646 2.439 . S
O657 C651 1.208 . S
O658 Cd659 2.223 . S
O658 C666 1.315 . S
Cd659 O658 2.223 . S
Cd659 O662 2.297 . S
Cd659 O663 2.439 . S
Cd659 O669 2.240 . S
Cd660 O661 2.240 . S
Cd660 O668 2.223 . S
Cd660 O670 2.297 . S
Cd660 O671 2.439 . S
O661 Cd660 2.240 . S
O661 C666 1.279 . S
O662 Cd659 2.297 . S
O662 C664 1.247 . S
O663 Cd659 2.439 . S
O663 C664 1.208 . S
C664 O662 1.247 . S
C664 O663 1.208 . S
C665 O670 1.247 . S
C665 O671 1.208 . S
C666 O658 1.315 . S
C666 O661 1.279 . S
C667 O668 1.315 . S
C667 O669 1.279 . S
O668 Cd660 2.223 . S
O668 C667 1.315 . S
O669 Cd659 2.240 . S
O669 C667 1.279 . S
O670 Cd660 2.297 . S
O670 C665 1.247 . S
O671 Cd660 2.439 . S
O671 C665 1.208 . S
C672 C673 1.363 . S
C672 C678 1.379 . S
C672 N680 1.356 . S
C673 C672 1.363 . S
C673 C679 1.363 . S
C674 C675 1.363 . S
C674 C679 1.379 . S
C674 N681 1.356 . S
C675 C674 1.363 . S
C675 C678 1.363 . S
N676 C678 1.356 . S
N676 H688 0.984 . S
N676 H689 0.985 . S
N677 C679 1.356 . S
N677 H682 0.984 . S
N677 H683 0.985 . S
C678 C672 1.379 . S
C678 C675 1.363 . S
C678 N676 1.356 . S
C679 C673 1.363 . S
C679 C674 1.379 . S
C679 N677 1.356 . S
N680 C672 1.356 . S
N680 H686 0.984 . S
N680 H687 0.984 . S
N681 C674 1.356 . S
N681 H684 0.984 . S
N681 H685 0.985 . S
H682 N677 0.984 . S
H683 N677 0.985 . S
H684 N681 0.984 . S
H685 N681 0.985 . S
H686 N680 0.984 . S
H687 N680 0.984 . S
H688 N676 0.984 . S
H689 N676 0.985 . S
C690 C691 1.363 . S
C690 C696 1.379 . S
C690 N698 1.356 . S
C691 C690 1.363 . S
C691 C697 1.363 . S
C692 C693 1.363 . S
C692 C697 1.379 . S
C692 N699 1.356 . S
C693 C692 1.363 . S
C693 C696 1.363 . S
N694 C696 1.356 . S
N694 H706 0.984 . S
N694 H707 0.985 . S
N695 C697 1.356 . S
N695 H700 0.984 . S
N695 H701 0.985 . S
C696 C690 1.379 . S
C696 C693 1.363 . S
C696 N694 1.356 . S
C697 C691 1.363 . S
C697 C692 1.379 . S
C697 N695 1.356 . S
N698 C690 1.356 . S
N698 H704 0.984 . S
N698 H705 0.984 . S
N699 C692 1.356 . S
N699 H702 0.984 . S
N699 H703 0.985 . S
H700 N695 0.984 . S
H701 N695 0.985 . S
H702 N699 0.984 . S
H703 N699 0.985 . S
H704 N698 0.984 . S
H705 N698 0.984 . S
H706 N694 0.984 . S
H707 N694 0.985 . S
C708 C709 1.363 . S
C708 C714 1.379 . S
C708 N716 1.356 . S
C709 C708 1.363 . S
C709 C715 1.363 . S
C710 C711 1.363 . S
C710 C715 1.379 . S
C710 N717 1.356 . S
C711 C710 1.363 . S
C711 C714 1.363 . S
N712 C714 1.356 . S
N712 H724 0.984 . S
N712 H725 0.985 . S
N713 C715 1.356 . S
N713 H718 0.984 . S
N713 H719 0.985 . S
C714 C708 1.379 . S
C714 C711 1.363 . S
C714 N712 1.356 . S
C715 C709 1.363 . S
C715 C710 1.379 . S
C715 N713 1.356 . S
N716 C708 1.356 . S
N716 H722 0.984 . S
N716 H723 0.984 . S
N717 C710 1.356 . S
N717 H720 0.984 . S
N717 H721 0.985 . S
H718 N713 0.984 . S
H719 N713 0.985 . S
H720 N717 0.984 . S
H721 N717 0.985 . S
H722 N716 0.984 . S
H723 N716 0.984 . S
H724 N712 0.984 . S
H725 N712 0.985 . S
C726 C727 1.363 . S
C726 C732 1.379 . S
C726 N734 1.356 . S
C727 C726 1.363 . S
C727 C733 1.363 . S
C728 C729 1.363 . S
C728 C733 1.379 . S
C728 N735 1.356 . S
C729 C728 1.363 . S
C729 C732 1.363 . S
N730 C732 1.356 . S
N730 H742 0.984 . S
N730 H743 0.985 . S
N731 C733 1.356 . S
N731 H736 0.984 . S
N731 H737 0.985 . S
C732 C726 1.379 . S
C732 C729 1.363 . S
C732 N730 1.356 . S
C733 C727 1.363 . S
C733 C728 1.379 . S
C733 N731 1.356 . S
N734 C726 1.356 . S
N734 H740 0.984 . S
N734 H741 0.984 . S
N735 C728 1.356 . S
N735 H738 0.984 . S
N735 H739 0.985 . S
H736 N731 0.984 . S
H737 N731 0.985 . S
H738 N735 0.984 . S
H739 N735 0.985 . S
H740 N734 0.984 . S
H741 N734 0.984 . S
H742 N730 0.984 . S
H743 N730 0.985 . S
C744 C745 1.363 . S
C744 C750 1.379 . S
C744 N752 1.356 . S
C745 C744 1.363 . S
C745 C751 1.363 . S
C746 C747 1.363 . S
C746 C751 1.379 . S
C746 N753 1.356 . S
C747 C746 1.363 . S
C747 C750 1.363 . S
N748 C750 1.356 . S
N748 H760 0.984 . S
N748 H761 0.985 . S
N749 C751 1.356 . S
N749 H754 0.984 . S
N749 H755 0.985 . S
C750 C744 1.379 . S
C750 C747 1.363 . S
C750 N748 1.356 . S
C751 C745 1.363 . S
C751 C746 1.379 . S
C751 N749 1.356 . S
N752 C744 1.356 . S
N752 H758 0.984 . S
N752 H759 0.984 . S
N753 C746 1.356 . S
N753 H756 0.984 . S
N753 H757 0.985 . S
H754 N749 0.984 . S
H755 N749 0.985 . S
H756 N753 0.984 . S
H757 N753 0.985 . S
H758 N752 0.984 . S
H759 N752 0.984 . S
H760 N748 0.984 . S
H761 N748 0.985 . S
C762 C763 1.363 . S
C762 C768 1.379 . S
C762 N770 1.356 . S
C763 C762 1.363 . S
C763 C769 1.363 . S
C764 C765 1.363 . S
C764 C769 1.379 . S
C764 N771 1.356 . S
C765 C764 1.363 . S
C765 C768 1.363 . S
N766 C768 1.356 . S
N766 H778 0.984 . S
N766 H779 0.985 . S
N767 C769 1.356 . S
N767 H772 0.984 . S
N767 H773 0.985 . S
C768 C762 1.379 . S
C768 C765 1.363 . S
C768 N766 1.356 . S
C769 C763 1.363 . S
C769 C764 1.379 . S
C769 N767 1.356 . S
N770 C762 1.356 . S
N770 H776 0.984 . S
N770 H777 0.984 . S
N771 C764 1.356 . S
N771 H774 0.984 . S
N771 H775 0.985 . S
H772 N767 0.984 . S
H773 N767 0.985 . S
H774 N771 0.984 . S
H775 N771 0.985 . S
H776 N770 0.984 . S
H777 N770 0.984 . S
H778 N766 0.984 . S
H779 N766 0.985 . S
C780 C781 1.363 . S
C780 C786 1.379 . S
C780 N788 1.356 . S
C781 C780 1.363 . S
C781 C787 1.363 . S
C782 C783 1.363 . S
C782 C787 1.379 . S
C782 N789 1.356 . S
C783 C782 1.363 . S
C783 C786 1.363 . S
N784 C786 1.356 . S
N784 H796 0.984 . S
N784 H797 0.985 . S
N785 C787 1.356 . S
N785 H790 0.984 . S
N785 H791 0.985 . S
C786 C780 1.379 . S
C786 C783 1.363 . S
C786 N784 1.356 . S
C787 C781 1.363 . S
C787 C782 1.379 . S
C787 N785 1.356 . S
N788 C780 1.356 . S
N788 H794 0.984 . S
N788 H795 0.984 . S
N789 C782 1.356 . S
N789 H792 0.984 . S
N789 H793 0.985 . S
H790 N785 0.984 . S
H791 N785 0.985 . S
H792 N789 0.984 . S
H793 N789 0.985 . S
H794 N788 0.984 . S
H795 N788 0.984 . S
H796 N784 0.984 . S
H797 N784 0.985 . S
C798 C799 1.363 . S
C798 C804 1.379 . S
C798 N806 1.356 . S
C799 C798 1.363 . S
C799 C805 1.363 . S
C800 C801 1.363 . S
C800 C805 1.379 . S
C800 N807 1.356 . S
C801 C800 1.363 . S
C801 C804 1.363 . S
N802 C804 1.356 . S
N802 H814 0.984 . S
N802 H815 0.985 . S
N803 C805 1.356 . S
N803 H808 0.984 . S
N803 H809 0.985 . S
C804 C798 1.379 . S
C804 C801 1.363 . S
C804 N802 1.356 . S
C805 C799 1.363 . S
C805 C800 1.379 . S
C805 N803 1.356 . S
N806 C798 1.356 . S
N806 H812 0.984 . S
N806 H813 0.984 . S
N807 C800 1.356 . S
N807 H810 0.984 . S
N807 H811 0.985 . S
H808 N803 0.984 . S
H809 N803 0.985 . S
H810 N807 0.984 . S
H811 N807 0.985 . S
H812 N806 0.984 . S
H813 N806 0.984 . S
H814 N802 0.984 . S
H815 N802 0.985 . S
C816 C817 1.363 . S
C816 C822 1.379 . S
C816 N824 1.356 . S
C817 C816 1.363 . S
C817 C823 1.363 . S
C818 C819 1.363 . S
C818 C823 1.379 . S
C818 N825 1.356 . S
C819 C818 1.363 . S
C819 C822 1.363 . S
N820 C822 1.356 . S
N820 H832 0.984 . S
N820 H833 0.985 . S
N821 C823 1.356 . S
N821 H826 0.984 . S
N821 H827 0.985 . S
C822 C816 1.379 . S
C822 C819 1.363 . S
C822 N820 1.356 . S
C823 C817 1.363 . S
C823 C818 1.379 . S
C823 N821 1.356 . S
N824 C816 1.356 . S
N824 H830 0.984 . S
N824 H831 0.984 . S
N825 C818 1.356 . S
N825 H828 0.984 . S
N825 H829 0.985 . S
H826 N821 0.984 . S
H827 N821 0.985 . S
H828 N825 0.984 . S
H829 N825 0.985 . S
H830 N824 0.984 . S
H831 N824 0.984 . S
H832 N820 0.984 . S
H833 N820 0.985 . S
C834 C835 1.363 . S
C834 C840 1.379 . S
C834 N842 1.356 . S
C835 C834 1.363 . S
C835 C841 1.363 . S
C836 C837 1.363 . S
C836 C841 1.379 . S
C836 N843 1.356 . S
C837 C836 1.363 . S
C837 C840 1.363 . S
N838 C840 1.356 . S
N838 H850 0.984 . S
N838 H851 0.985 . S
N839 C841 1.356 . S
N839 H844 0.984 . S
N839 H845 0.985 1_455 S
C840 C834 1.379 . S
C840 C837 1.363 . S
C840 N838 1.356 . S
C841 C835 1.363 . S
C841 C836 1.379 . S
C841 N839 1.356 . S
N842 C834 1.356 . S
N842 H848 0.984 . S
N842 H849 0.984 . S
N843 C836 1.356 . S
N843 H846 0.984 . S
N843 H847 0.985 . S
H844 N839 0.984 . S
H845 N839 0.985 1_655 S
H846 N843 0.984 . S
H847 N843 0.985 . S
H848 N842 0.984 . S
H849 N842 0.984 . S
H850 N838 0.984 . S
H851 N838 0.985 . S
C852 C853 1.363 . S
C852 C858 1.379 . S
C852 N860 1.356 . S
C853 C852 1.363 . S
C853 C859 1.363 . S
C854 C855 1.363 . S
C854 C859 1.379 . S
C854 N861 1.356 . S
C855 C854 1.363 . S
C855 C858 1.363 . S
N856 C858 1.356 . S
N856 H868 0.984 . S
N856 H869 0.985 . S
N857 C859 1.356 . S
N857 H862 0.984 . S
N857 H863 0.985 . S
C858 C852 1.379 . S
C858 C855 1.363 . S
C858 N856 1.356 . S
C859 C853 1.363 . S
C859 C854 1.379 . S
C859 N857 1.356 . S
N860 C852 1.356 . S
N860 H866 0.984 . S
N860 H867 0.984 . S
N861 C854 1.356 . S
N861 H864 0.984 . S
N861 H865 0.985 . S
H862 N857 0.984 . S
H863 N857 0.985 . S
H864 N861 0.984 . S
H865 N861 0.985 . S
H866 N860 0.984 . S
H867 N860 0.984 . S
H868 N856 0.984 . S
H869 N856 0.985 . S
C870 C871 1.363 . S
C870 C876 1.379 . S
C870 N878 1.356 . S
C871 C870 1.363 . S
C871 C877 1.363 . S
C872 C873 1.363 . S
C872 C877 1.379 . S
C872 N879 1.356 . S
C873 C872 1.363 . S
C873 C876 1.363 . S
N874 C876 1.356 . S
N874 H886 0.984 . S
N874 H887 0.985 . S
N875 C877 1.356 . S
N875 H880 0.984 . S
N875 H881 0.985 1_655 S
C876 C870 1.379 . S
C876 C873 1.363 . S
C876 N874 1.356 . S
C877 C871 1.363 . S
C877 C872 1.379 . S
C877 N875 1.356 . S
N878 C870 1.356 . S
N878 H884 0.984 . S
N878 H885 0.984 . S
N879 C872 1.356 . S
N879 H882 0.984 . S
N879 H883 0.985 . S
H880 N875 0.984 . S
H881 N875 0.985 1_455 S
H882 N879 0.984 . S
H883 N879 0.985 . S
H884 N878 0.984 . S
H885 N878 0.984 . S
H886 N874 0.984 . S
H887 N874 0.985 . S
C888 C889 1.363 . S
C888 C894 1.379 . S
C888 N896 1.356 . S
C889 C888 1.363 . S
C889 C895 1.363 . S
C890 C891 1.363 . S
C890 C895 1.379 . S
C890 N897 1.356 . S
C891 C890 1.363 . S
C891 C894 1.363 . S
N892 C894 1.356 . S
N892 H904 0.984 . S
N892 H905 0.985 . S
N893 C895 1.356 . S
N893 H898 0.984 . S
N893 H899 0.985 . S
C894 C888 1.379 . S
C894 C891 1.363 . S
C894 N892 1.356 . S
C895 C889 1.363 . S
C895 C890 1.379 . S
C895 N893 1.356 . S
N896 C888 1.356 . S
N896 H902 0.984 . S
N896 H903 0.984 . S
N897 C890 1.356 . S
N897 H900 0.984 . S
N897 H901 0.985 . S
H898 N893 0.984 . S
H899 N893 0.985 . S
H900 N897 0.984 . S
H901 N897 0.985 . S
H902 N896 0.984 . S
H903 N896 0.984 . S
H904 N892 0.984 . S
H905 N892 0.985 . S
C906 C907 1.363 . S
C906 C912 1.379 . S
C906 N914 1.356 . S
C907 C906 1.363 . S
C907 C913 1.363 . S
C908 C909 1.363 . S
C908 C913 1.379 . S
C908 N915 1.356 . S
C909 C908 1.363 . S
C909 C912 1.363 . S
N910 C912 1.356 . S
N910 H922 0.984 . S
N910 H923 0.985 . S
N911 C913 1.356 . S
N911 H916 0.984 . S
N911 H917 0.985 . S
C912 C906 1.379 . S
C912 C909 1.363 . S
C912 N910 1.356 . S
C913 C907 1.363 . S
C913 C908 1.379 . S
C913 N911 1.356 . S
N914 C906 1.356 . S
N914 H920 0.984 . S
N914 H921 0.984 . S
N915 C908 1.356 . S
N915 H918 0.984 . S
N915 H919 0.985 . S
H916 N911 0.984 . S
H917 N911 0.985 . S
H918 N915 0.984 . S
H919 N915 0.985 . S
H920 N914 0.984 . S
H921 N914 0.984 . S
H922 N910 0.984 . S
H923 N910 0.985 . S
C924 C925 1.363 . S
C924 C930 1.379 . S
C924 N932 1.356 . S
C925 C924 1.363 . S
C925 C931 1.363 . S
C926 C927 1.363 . S
C926 C931 1.379 . S
C926 N933 1.356 . S
C927 C926 1.363 . S
C927 C930 1.363 . S
N928 C930 1.356 . S
N928 H940 0.984 . S
N928 H941 0.985 . S
N929 C931 1.356 . S
N929 H934 0.984 . S
N929 H935 0.985 . S
C930 C924 1.379 . S
C930 C927 1.363 . S
C930 N928 1.356 . S
C931 C925 1.363 . S
C931 C926 1.379 . S
C931 N929 1.356 . S
N932 C924 1.356 . S
N932 H938 0.984 . S
N932 H939 0.984 . S
N933 C926 1.356 . S
N933 H936 0.984 . S
N933 H937 0.985 . S
H934 N929 0.984 . S
H935 N929 0.985 . S
H936 N933 0.984 . S
H937 N933 0.985 . S
H938 N932 0.984 . S
H939 N932 0.984 . S
H940 N928 0.984 . S
H941 N928 0.985 . S
C942 C943 1.363 . S
C942 C948 1.379 . S
C942 N950 1.356 . S
C943 C942 1.363 . S
C943 C949 1.363 . S
C944 C945 1.363 . S
C944 C949 1.379 . S
C944 N951 1.356 . S
C945 C944 1.363 . S
C945 C948 1.363 . S
N946 C948 1.356 . S
N946 H958 0.984 . S
N946 H959 0.985 . S
N947 C949 1.356 . S
N947 H952 0.984 . S
N947 H953 0.985 . S
C948 C942 1.379 . S
C948 C945 1.363 . S
C948 N946 1.356 . S
C949 C943 1.363 . S
C949 C944 1.379 . S
C949 N947 1.356 . S
N950 C942 1.356 . S
N950 H956 0.984 . S
N950 H957 0.984 . S
N951 C944 1.356 . S
N951 H954 0.984 . S
N951 H955 0.985 . S
H952 N947 0.984 . S
H953 N947 0.985 . S
H954 N951 0.984 . S
H955 N951 0.985 . S
H956 N950 0.984 . S
H957 N950 0.984 . S
H958 N946 0.984 . S
H959 N946 0.985 . S
C960 C961 1.363 . S
C960 C966 1.379 . S
C960 N968 1.356 . S
C961 C960 1.363 . S
C961 C967 1.363 . S
C962 C963 1.363 . S
C962 C967 1.379 . S
C962 N969 1.356 . S
C963 C962 1.363 . S
C963 C966 1.363 . S
N964 C966 1.356 . S
N964 H976 0.984 . S
N964 H977 0.985 . S
N965 C967 1.356 . S
N965 H970 0.984 . S
N965 H971 0.985 . S
C966 C960 1.379 . S
C966 C963 1.363 . S
C966 N964 1.356 . S
C967 C961 1.363 . S
C967 C962 1.379 . S
C967 N965 1.356 . S
N968 C960 1.356 . S
N968 H974 0.984 . S
N968 H975 0.984 . S
N969 C962 1.356 . S
N969 H972 0.984 . S
N969 H973 0.985 . S
H970 N965 0.984 . S
H971 N965 0.985 . S
H972 N969 0.984 . S
H973 N969 0.985 . S
H974 N968 0.984 . S
H975 N968 0.984 . S
H976 N964 0.984 . S
H977 N964 0.985 . S
C978 C979 1.363 . S
C978 C984 1.379 . S
C978 N986 1.356 . S
C979 C978 1.363 . S
C979 C985 1.363 . S
C980 C981 1.363 . S
C980 C985 1.379 . S
C980 N987 1.356 . S
C981 C980 1.363 . S
C981 C984 1.363 . S
N982 C984 1.356 . S
N982 H994 0.984 . S
N982 H995 0.985 . S
N983 C985 1.356 . S
N983 H988 0.984 . S
N983 H989 0.985 . S
C984 C978 1.379 . S
C984 C981 1.363 . S
C984 N982 1.356 . S
C985 C979 1.363 . S
C985 C980 1.379 . S
C985 N983 1.356 . S
N986 C978 1.356 . S
N986 H992 0.984 . S
N986 H993 0.984 . S
N987 C980 1.356 . S
N987 H990 0.984 . S
N987 H991 0.985 . S
H988 N983 0.984 . S
H989 N983 0.985 . S
H990 N987 0.984 . S
H991 N987 0.985 . S
H992 N986 0.984 . S
H993 N986 0.984 . S
H994 N982 0.984 . S
H995 N982 0.985 . S
C996 C997 1.363 . S
C996 C1002 1.379 . S
C996 N1004 1.356 . S
C997 C996 1.363 . S
C997 C1003 1.363 . S
C998 C999 1.363 . S
C998 C1003 1.379 . S
C998 N1005 1.356 . S
C999 C998 1.363 . S
C999 C1002 1.363 . S
N1000 C1002 1.356 . S
N1000 H1012 0.984 . S
N1000 H1013 0.985 . S
N1001 C1003 1.356 . S
N1001 H1006 0.984 . S
N1001 H1007 0.985 . S
C1002 C996 1.379 . S
C1002 C999 1.363 . S
C1002 N1000 1.356 . S
C1003 C997 1.363 . S
C1003 C998 1.379 . S
C1003 N1001 1.356 . S
N1004 C996 1.356 . S
N1004 H1010 0.984 . S
N1004 H1011 0.984 . S
N1005 C998 1.356 . S
N1005 H1008 0.984 . S
N1005 H1009 0.985 . S
H1006 N1001 0.984 . S
H1007 N1001 0.985 . S
H1008 N1005 0.984 . S
H1009 N1005 0.985 . S
H1010 N1004 0.984 . S
H1011 N1004 0.984 . S
H1012 N1000 0.984 . S
H1013 N1000 0.985 . S
C1014 C1015 1.363 . S
C1014 C1020 1.379 . S
C1014 N1022 1.356 . S
C1015 C1014 1.363 . S
C1015 C1021 1.363 . S
C1016 C1017 1.363 . S
C1016 C1021 1.379 . S
C1016 N1023 1.356 . S
C1017 C1016 1.363 . S
C1017 C1020 1.363 . S
N1018 C1020 1.356 . S
N1018 H1030 0.984 . S
N1018 H1031 0.985 . S
N1019 C1021 1.356 . S
N1019 H1024 0.984 . S
N1019 H1025 0.985 . S
C1020 C1014 1.379 . S
C1020 C1017 1.363 . S
C1020 N1018 1.356 . S
C1021 C1015 1.363 . S
C1021 C1016 1.379 . S
C1021 N1019 1.356 . S
N1022 C1014 1.356 . S
N1022 H1028 0.984 . S
N1022 H1029 0.984 . S
N1023 C1016 1.356 . S
N1023 H1026 0.984 . S
N1023 H1027 0.985 . S
H1024 N1019 0.984 . S
H1025 N1019 0.985 . S
H1026 N1023 0.984 . S
H1027 N1023 0.985 . S
H1028 N1022 0.984 . S
H1029 N1022 0.984 . S
H1030 N1018 0.984 . S
H1031 N1018 0.985 . S
C1032 C1033 1.363 . S
C1032 C1038 1.379 . S
C1032 N1040 1.356 . S
C1033 C1032 1.363 . S
C1033 C1039 1.363 . S
C1034 C1035 1.363 . S
C1034 C1039 1.379 . S
C1034 N1041 1.356 . S
C1035 C1034 1.363 . S
C1035 C1038 1.363 . S
N1036 C1038 1.356 . S
N1036 H1048 0.984 . S
N1036 H1049 0.985 . S
N1037 C1039 1.356 . S
N1037 H1042 0.984 . S
N1037 H1043 0.985 . S
C1038 C1032 1.379 . S
C1038 C1035 1.363 . S
C1038 N1036 1.356 . S
C1039 C1033 1.363 . S
C1039 C1034 1.379 . S
C1039 N1037 1.356 . S
N1040 C1032 1.356 . S
N1040 H1046 0.984 . S
N1040 H1047 0.984 . S
N1041 C1034 1.356 . S
N1041 H1044 0.984 . S
N1041 H1045 0.985 . S
H1042 N1037 0.984 . S
H1043 N1037 0.985 . S
H1044 N1041 0.984 . S
H1045 N1041 0.985 . S
H1046 N1040 0.984 . S
H1047 N1040 0.984 . S
H1048 N1036 0.984 . S
H1049 N1036 0.985 . S
C1050 C1051 1.363 . S
C1050 C1056 1.379 . S
C1050 N1058 1.356 . S
C1051 C1050 1.363 . S
C1051 C1057 1.363 . S
C1052 C1053 1.363 . S
C1052 C1057 1.379 . S
C1052 N1059 1.356 . S
C1053 C1052 1.363 . S
C1053 C1056 1.363 . S
N1054 C1056 1.356 . S
N1054 H1066 0.984 . S
N1054 H1067 0.985 . S
N1055 C1057 1.356 . S
N1055 H1060 0.984 . S
N1055 H1061 0.985 . S
C1056 C1050 1.379 . S
C1056 C1053 1.363 . S
C1056 N1054 1.356 . S
C1057 C1051 1.363 . S
C1057 C1052 1.379 . S
C1057 N1055 1.356 . S
N1058 C1050 1.356 . S
N1058 H1064 0.984 . S
N1058 H1065 0.984 . S
N1059 C1052 1.356 . S
N1059 H1062 0.984 . S
N1059 H1063 0.985 1_556 S
H1060 N1055 0.984 . S
H1061 N1055 0.985 . S
H1062 N1059 0.984 . S
H1063 N1059 0.985 1_554 S
H1064 N1058 0.984 . S
H1065 N1058 0.984 . S
H1066 N1054 0.984 . S
H1067 N1054 0.985 . S
C1068 C1069 1.363 . S
C1068 C1074 1.379 . S
C1068 N1076 1.356 . S
C1069 C1068 1.363 . S
C1069 C1075 1.363 . S
C1070 C1071 1.363 . S
C1070 C1075 1.379 . S
C1070 N1077 1.356 . S
C1071 C1070 1.363 . S
C1071 C1074 1.363 . S
N1072 C1074 1.356 . S
N1072 H1084 0.984 . S
N1072 H1085 0.985 . S
N1073 C1075 1.356 . S
N1073 H1078 0.984 . S
N1073 H1079 0.985 . S
C1074 C1068 1.379 . S
C1074 C1071 1.363 . S
C1074 N1072 1.356 . S
C1075 C1069 1.363 . S
C1075 C1070 1.379 . S
C1075 N1073 1.356 . S
N1076 C1068 1.356 . S
N1076 H1082 0.984 . S
N1076 H1083 0.984 . S
N1077 C1070 1.356 . S
N1077 H1080 0.984 . S
N1077 H1081 0.985 . S
H1078 N1073 0.984 . S
H1079 N1073 0.985 . S
H1080 N1077 0.984 . S
H1081 N1077 0.985 . S
H1082 N1076 0.984 . S
H1083 N1076 0.984 . S
H1084 N1072 0.984 . S
H1085 N1072 0.985 . S
C1086 C1087 1.363 . S
C1086 C1092 1.379 . S
C1086 N1094 1.356 . S
C1087 C1086 1.363 . S
C1087 C1093 1.363 . S
C1088 C1089 1.363 . S
C1088 C1093 1.379 . S
C1088 N1095 1.356 . S
C1089 C1088 1.363 . S
C1089 C1092 1.363 . S
N1090 C1092 1.356 . S
N1090 H1102 0.984 . S
N1090 H1103 0.985 . S
N1091 C1093 1.356 . S
N1091 H1096 0.984 . S
N1091 H1097 0.985 . S
C1092 C1086 1.379 . S
C1092 C1089 1.363 . S
C1092 N1090 1.356 . S
C1093 C1087 1.363 . S
C1093 C1088 1.379 . S
C1093 N1091 1.356 . S
N1094 C1086 1.356 . S
N1094 H1100 0.984 . S
N1094 H1101 0.984 . S
N1095 C1088 1.356 . S
N1095 H1098 0.984 . S
N1095 H1099 0.985 . S
H1096 N1091 0.984 . S
H1097 N1091 0.985 . S
H1098 N1095 0.984 . S
H1099 N1095 0.985 . S
H1100 N1094 0.984 . S
H1101 N1094 0.984 . S
H1102 N1090 0.984 . S
H1103 N1090 0.985 . S
C1104 C1105 1.363 . S
C1104 C1110 1.379 . S
C1104 N1112 1.356 . S
C1105 C1104 1.363 . S
C1105 C1111 1.363 . S
C1106 C1107 1.363 . S
C1106 C1111 1.379 . S
C1106 N1113 1.356 . S
C1107 C1106 1.363 . S
C1107 C1110 1.363 . S
N1108 C1110 1.356 . S
N1108 H1120 0.984 . S
N1108 H1121 0.985 . S
N1109 C1111 1.356 . S
N1109 H1114 0.984 . S
N1109 H1115 0.985 . S
C1110 C1104 1.379 . S
C1110 C1107 1.363 . S
C1110 N1108 1.356 . S
C1111 C1105 1.363 . S
C1111 C1106 1.379 . S
C1111 N1109 1.356 . S
N1112 C1104 1.356 . S
N1112 H1118 0.984 . S
N1112 H1119 0.984 . S
N1113 C1106 1.356 . S
N1113 H1116 0.984 . S
N1113 H1117 0.985 . S
H1114 N1109 0.984 . S
H1115 N1109 0.985 . S
H1116 N1113 0.984 . S
H1117 N1113 0.985 . S
H1118 N1112 0.984 . S
H1119 N1112 0.984 . S
H1120 N1108 0.984 . S
H1121 N1108 0.985 . S
C1122 C1123 1.363 . S
C1122 C1128 1.379 . S
C1122 N1130 1.356 . S
C1123 C1122 1.363 . S
C1123 C1129 1.363 . S
C1124 C1125 1.363 . S
C1124 C1129 1.379 . S
C1124 N1131 1.356 . S
C1125 C1124 1.363 . S
C1125 C1128 1.363 . S
N1126 C1128 1.356 . S
N1126 H1138 0.984 . S
N1126 H1139 0.985 . S
N1127 C1129 1.356 . S
N1127 H1132 0.984 . S
N1127 H1133 0.985 . S
C1128 C1122 1.379 . S
C1128 C1125 1.363 . S
C1128 N1126 1.356 . S
C1129 C1123 1.363 . S
C1129 C1124 1.379 . S
C1129 N1127 1.356 . S
N1130 C1122 1.356 . S
N1130 H1136 0.984 . S
N1130 H1137 0.984 . S
N1131 C1124 1.356 . S
N1131 H1134 0.984 . S
N1131 H1135 0.985 . S
H1132 N1127 0.984 . S
H1133 N1127 0.985 . S
H1134 N1131 0.984 . S
H1135 N1131 0.985 . S
H1136 N1130 0.984 . S
H1137 N1130 0.984 . S
H1138 N1126 0.984 . S
H1139 N1126 0.985 . S
C1140 C1141 1.363 . S
C1140 C1146 1.379 . S
C1140 N1148 1.356 . S
C1141 C1140 1.363 . S
C1141 C1147 1.363 . S
C1142 C1143 1.363 . S
C1142 C1147 1.379 . S
C1142 N1149 1.356 . S
C1143 C1142 1.363 . S
C1143 C1146 1.363 . S
N1144 C1146 1.356 . S
N1144 H1156 0.984 . S
N1144 H1157 0.985 . S
N1145 C1147 1.356 . S
N1145 H1150 0.984 . S
N1145 H1151 0.985 . S
C1146 C1140 1.379 . S
C1146 C1143 1.363 . S
C1146 N1144 1.356 . S
C1147 C1141 1.363 . S
C1147 C1142 1.379 . S
C1147 N1145 1.356 . S
N1148 C1140 1.356 . S
N1148 H1154 0.984 . S
N1148 H1155 0.984 . S
N1149 C1142 1.356 . S
N1149 H1152 0.984 . S
N1149 H1153 0.985 . S
H1150 N1145 0.984 . S
H1151 N1145 0.985 . S
H1152 N1149 0.984 . S
H1153 N1149 0.985 . S
H1154 N1148 0.984 . S
H1155 N1148 0.984 . S
H1156 N1144 0.984 . S
H1157 N1144 0.985 . S
C1158 C1159 1.363 . S
C1158 C1164 1.379 . S
C1158 N1166 1.356 . S
C1159 C1158 1.363 . S
C1159 C1165 1.363 . S
C1160 C1161 1.363 . S
C1160 C1165 1.379 . S
C1160 N1167 1.356 . S
C1161 C1160 1.363 . S
C1161 C1164 1.363 . S
N1162 C1164 1.356 . S
N1162 H1174 0.984 . S
N1162 H1175 0.985 . S
N1163 C1165 1.356 . S
N1163 H1168 0.984 . S
N1163 H1169 0.985 . S
C1164 C1158 1.379 . S
C1164 C1161 1.363 . S
C1164 N1162 1.356 . S
C1165 C1159 1.363 . S
C1165 C1160 1.379 . S
C1165 N1163 1.356 . S
N1166 C1158 1.356 . S
N1166 H1172 0.984 . S
N1166 H1173 0.984 . S
N1167 C1160 1.356 . S
N1167 H1170 0.984 . S
N1167 H1171 0.985 . S
H1168 N1163 0.984 . S
H1169 N1163 0.985 . S
H1170 N1167 0.984 . S
H1171 N1167 0.985 . S
H1172 N1166 0.984 . S
H1173 N1166 0.984 . S
H1174 N1162 0.984 . S
H1175 N1162 0.985 . S
C1176 C1177 1.363 . S
C1176 C1182 1.379 . S
C1176 N1184 1.356 . S
C1177 C1176 1.363 . S
C1177 C1183 1.363 . S
C1178 C1179 1.363 . S
C1178 C1183 1.379 . S
C1178 N1185 1.356 . S
C1179 C1178 1.363 . S
C1179 C1182 1.363 . S
N1180 C1182 1.356 . S
N1180 H1192 0.984 1_556 S
N1180 H1193 0.985 . S
N1181 C1183 1.356 . S
N1181 H1186 0.984 . S
N1181 H1187 0.985 . S
C1182 C1176 1.379 . S
C1182 C1179 1.363 . S
C1182 N1180 1.356 . S
C1183 C1177 1.363 . S
C1183 C1178 1.379 . S
C1183 N1181 1.356 . S
N1184 C1176 1.356 . S
N1184 H1190 0.984 . S
N1184 H1191 0.984 . S
N1185 C1178 1.356 . S
N1185 H1188 0.984 . S
N1185 H1189 0.985 . S
H1186 N1181 0.984 . S
H1187 N1181 0.985 . S
H1188 N1185 0.984 . S
H1189 N1185 0.985 . S
H1190 N1184 0.984 . S
H1191 N1184 0.984 . S
H1192 N1180 0.984 1_554 S
H1193 N1180 0.985 . S
C1194 C1195 1.363 . S
C1194 C1200 1.379 . S
C1194 N1202 1.356 . S
C1195 C1194 1.363 . S
C1195 C1201 1.363 . S
C1196 C1197 1.363 . S
C1196 C1201 1.379 . S
C1196 N1203 1.356 . S
C1197 C1196 1.363 . S
C1197 C1200 1.363 . S
N1198 C1200 1.356 . S
N1198 H1210 0.984 . S
N1198 H1211 0.985 . S
N1199 C1201 1.356 . S
N1199 H1204 0.984 . S
N1199 H1205 0.985 . S
C1200 C1194 1.379 . S
C1200 C1197 1.363 . S
C1200 N1198 1.356 . S
C1201 C1195 1.363 . S
C1201 C1196 1.379 . S
C1201 N1199 1.356 . S
N1202 C1194 1.356 . S
N1202 H1208 0.984 . S
N1202 H1209 0.984 . S
N1203 C1196 1.356 . S
N1203 H1206 0.984 . S
N1203 H1207 0.985 . S
H1204 N1199 0.984 . S
H1205 N1199 0.985 . S
H1206 N1203 0.984 . S
H1207 N1203 0.985 . S
H1208 N1202 0.984 . S
H1209 N1202 0.984 . S
H1210 N1198 0.984 . S
H1211 N1198 0.985 . S
C1212 C1213 1.363 . S
C1212 C1218 1.379 . S
C1212 N1220 1.356 . S
C1213 C1212 1.363 . S
C1213 C1219 1.363 . S
C1214 C1215 1.363 . S
C1214 C1219 1.379 . S
C1214 N1221 1.356 . S
C1215 C1214 1.363 . S
C1215 C1218 1.363 . S
N1216 C1218 1.356 . S
N1216 H1228 0.984 . S
N1216 H1229 0.985 . S
N1217 C1219 1.356 . S
N1217 H1222 0.984 . S
N1217 H1223 0.985 . S
C1218 C1212 1.379 . S
C1218 C1215 1.363 . S
C1218 N1216 1.356 . S
C1219 C1213 1.363 . S
C1219 C1214 1.379 . S
C1219 N1217 1.356 . S
N1220 C1212 1.356 . S
N1220 H1226 0.984 . S
N1220 H1227 0.984 . S
N1221 C1214 1.356 . S
N1221 H1224 0.984 . S
N1221 H1225 0.985 . S
H1222 N1217 0.984 . S
H1223 N1217 0.985 . S
H1224 N1221 0.984 . S
H1225 N1221 0.985 . S
H1226 N1220 0.984 . S
H1227 N1220 0.984 . S
H1228 N1216 0.984 . S
H1229 N1216 0.985 . S
C1230 C1231 1.363 . S
C1230 C1236 1.379 . S
C1230 N1238 1.356 . S
C1231 C1230 1.363 . S
C1231 C1237 1.363 . S
C1232 C1233 1.363 . S
C1232 C1237 1.379 . S
C1232 N1239 1.356 . S
C1233 C1232 1.363 . S
C1233 C1236 1.363 . S
N1234 C1236 1.356 . S
N1234 H1246 0.984 . S
N1234 H1247 0.985 . S
N1235 C1237 1.356 . S
N1235 H1240 0.984 . S
N1235 H1241 0.985 . S
C1236 C1230 1.379 . S
C1236 C1233 1.363 . S
C1236 N1234 1.356 . S
C1237 C1231 1.363 . S
C1237 C1232 1.379 . S
C1237 N1235 1.356 . S
N1238 C1230 1.356 . S
N1238 H1244 0.984 . S
N1238 H1245 0.984 . S
N1239 C1232 1.356 . S
N1239 H1242 0.984 . S
N1239 H1243 0.985 . S
H1240 N1235 0.984 . S
H1241 N1235 0.985 . S
H1242 N1239 0.984 . S
H1243 N1239 0.985 . S
H1244 N1238 0.984 . S
H1245 N1238 0.984 . S
H1246 N1234 0.984 . S
H1247 N1234 0.985 . S
C1248 C1249 1.363 . S
C1248 C1254 1.379 . S
C1248 N1256 1.356 . S
C1249 C1248 1.363 . S
C1249 C1255 1.363 . S
C1250 C1251 1.363 . S
C1250 C1255 1.379 . S
C1250 N1257 1.356 . S
C1251 C1250 1.363 . S
C1251 C1254 1.363 . S
N1252 C1254 1.356 . S
N1252 H1264 0.984 . S
N1252 H1265 0.985 . S
N1253 C1255 1.356 . S
N1253 H1258 0.984 . S
N1253 H1259 0.985 . S
C1254 C1248 1.379 . S
C1254 C1251 1.363 . S
C1254 N1252 1.356 . S
C1255 C1249 1.363 . S
C1255 C1250 1.379 . S
C1255 N1253 1.356 . S
N1256 C1248 1.356 . S
N1256 H1262 0.984 . S
N1256 H1263 0.984 . S
N1257 C1250 1.356 . S
N1257 H1260 0.984 . S
N1257 H1261 0.985 . S
H1258 N1253 0.984 . S
H1259 N1253 0.985 . S
H1260 N1257 0.984 . S
H1261 N1257 0.985 . S
H1262 N1256 0.984 . S
H1263 N1256 0.984 . S
H1264 N1252 0.984 . S
H1265 N1252 0.985 . S
C1266 C1267 1.363 . S
C1266 C1272 1.379 . S
C1266 N1274 1.356 . S
C1267 C1266 1.363 . S
C1267 C1273 1.363 . S
C1268 C1269 1.363 . S
C1268 C1273 1.379 . S
C1268 N1275 1.356 . S
C1269 C1268 1.363 . S
C1269 C1272 1.363 . S
N1270 C1272 1.356 . S
N1270 H1282 0.984 . S
N1270 H1283 0.985 . S
N1271 C1273 1.356 . S
N1271 H1276 0.984 . S
N1271 H1277 0.978 1_556 S
C1272 C1266 1.379 . S
C1272 C1269 1.363 . S
C1272 N1270 1.356 . S
C1273 C1267 1.363 . S
C1273 C1268 1.379 . S
C1273 N1271 1.356 . S
N1274 C1266 1.356 . S
N1274 H1280 0.984 . S
N1274 H1281 0.984 . S
N1275 C1268 1.356 . S
N1275 H1278 0.984 . S
N1275 H1279 0.985 . S
H1276 N1271 0.984 . S
H1277 N1271 0.978 1_554 S
H1278 N1275 0.984 . S
H1279 N1275 0.985 . S
H1280 N1274 0.984 . S
H1281 N1274 0.984 . S
H1282 N1270 0.984 . S
H1283 N1270 0.985 . S
C1284 C1285 1.363 . S
C1284 C1290 1.379 . S
C1284 N1292 1.356 . S
C1285 C1284 1.363 . S
C1285 C1291 1.363 . S
C1286 C1287 1.363 . S
C1286 C1291 1.379 . S
C1286 N1293 1.356 . S
C1287 C1286 1.363 . S
C1287 C1290 1.363 . S
N1288 C1290 1.356 . S
N1288 H1300 0.984 . S
N1288 H1301 0.985 . S
N1289 C1291 1.356 . S
N1289 H1294 0.984 . S
N1289 H1295 0.985 . S
C1290 C1284 1.379 . S
C1290 C1287 1.363 . S
C1290 N1288 1.356 . S
C1291 C1285 1.363 . S
C1291 C1286 1.379 . S
C1291 N1289 1.356 . S
N1292 C1284 1.356 . S
N1292 H1298 0.984 . S
N1292 H1299 0.984 . S
N1293 C1286 1.356 . S
N1293 H1296 0.984 . S
N1293 H1297 0.985 . S
H1294 N1289 0.984 . S
H1295 N1289 0.985 . S
H1296 N1293 0.984 . S
H1297 N1293 0.985 . S
H1298 N1292 0.984 . S
H1299 N1292 0.984 . S
H1300 N1288 0.984 . S
H1301 N1288 0.985 . S
C1302 C1303 1.363 . S
C1302 C1308 1.379 . S
C1302 N1310 1.356 . S
C1303 C1302 1.363 . S
C1303 C1309 1.363 . S
C1304 C1305 1.363 . S
C1304 C1309 1.379 . S
C1304 N1311 1.356 . S
C1305 C1304 1.363 . S
C1305 C1308 1.363 . S
N1306 C1308 1.356 . S
N1306 H1318 0.984 . S
N1306 H1319 0.985 . S
N1307 C1309 1.356 . S
N1307 H1312 0.984 . S
N1307 H1313 0.985 . S
C1308 C1302 1.379 . S
C1308 C1305 1.363 . S
C1308 N1306 1.356 . S
C1309 C1303 1.363 . S
C1309 C1304 1.379 . S
C1309 N1307 1.356 . S
N1310 C1302 1.356 . S
N1310 H1316 0.984 . S
N1310 H1317 0.984 . S
N1311 C1304 1.356 . S
N1311 H1314 0.984 . S
N1311 H1315 0.985 . S
H1312 N1307 0.984 . S
H1313 N1307 0.985 . S
H1314 N1311 0.984 . S
H1315 N1311 0.985 . S
H1316 N1310 0.984 . S
H1317 N1310 0.984 . S
H1318 N1306 0.984 . S
H1319 N1306 0.985 . S
C1320 C1321 1.363 . S
C1320 C1326 1.379 . S
C1320 N1328 1.356 . S
C1321 C1320 1.363 . S
C1321 C1327 1.363 . S
C1322 C1323 1.363 . S
C1322 C1327 1.379 . S
C1322 N1329 1.356 . S
C1323 C1322 1.363 . S
C1323 C1326 1.363 . S
N1324 C1326 1.356 . S
N1324 H1336 0.984 . S
N1324 H1337 0.985 . S
N1325 C1327 1.356 . S
N1325 H1330 0.984 . S
N1325 H1331 0.985 . S
C1326 C1320 1.379 . S
C1326 C1323 1.363 . S
C1326 N1324 1.356 . S
C1327 C1321 1.363 . S
C1327 C1322 1.379 . S
C1327 N1325 1.356 . S
N1328 C1320 1.356 . S
N1328 H1334 0.984 . S
N1328 H1335 0.984 . S
N1329 C1322 1.356 . S
N1329 H1332 0.984 . S
N1329 H1333 0.985 . S
H1330 N1325 0.984 . S
H1331 N1325 0.985 . S
H1332 N1329 0.984 . S
H1333 N1329 0.985 . S
H1334 N1328 0.984 . S
H1335 N1328 0.984 . S
H1336 N1324 0.984 . S
H1337 N1324 0.985 . S
C1338 C1339 1.363 . S
C1338 C1344 1.379 . S
C1338 N1346 1.356 . S
C1339 C1338 1.363 . S
C1339 C1345 1.363 . S
C1340 C1341 1.363 . S
C1340 C1345 1.379 . S
C1340 N1347 1.356 . S
C1341 C1340 1.363 . S
C1341 C1344 1.363 . S
N1342 C1344 1.356 . S
N1342 H1354 0.984 . S
N1342 H1355 0.985 . S
N1343 C1345 1.356 . S
N1343 H1348 0.984 . S
N1343 H1349 0.985 . S
C1344 C1338 1.379 . S
C1344 C1341 1.363 . S
C1344 N1342 1.356 . S
C1345 C1339 1.363 . S
C1345 C1340 1.379 . S
C1345 N1343 1.356 . S
N1346 C1338 1.356 . S
N1346 H1352 0.984 . S
N1346 H1353 0.984 . S
N1347 C1340 1.356 . S
N1347 H1350 0.984 . S
N1347 H1351 0.985 . S
H1348 N1343 0.984 . S
H1349 N1343 0.985 . S
H1350 N1347 0.984 . S
H1351 N1347 0.985 . S
H1352 N1346 0.984 . S
H1353 N1346 0.984 . S
H1354 N1342 0.984 . S
H1355 N1342 0.985 . S
C1356 C1357 1.363 . S
C1356 C1362 1.379 . S
C1356 N1364 1.356 . S
C1357 C1356 1.363 . S
C1357 C1363 1.363 . S
C1358 C1359 1.363 . S
C1358 C1363 1.379 . S
C1358 N1365 1.356 . S
C1359 C1358 1.363 . S
C1359 C1362 1.363 . S
N1360 C1362 1.356 . S
N1360 H1372 0.984 . S
N1360 H1373 0.985 . S
N1361 C1363 1.356 . S
N1361 H1366 0.984 . S
N1361 H1367 0.985 . S
C1362 C1356 1.379 . S
C1362 C1359 1.363 . S
C1362 N1360 1.356 . S
C1363 C1357 1.363 . S
C1363 C1358 1.379 . S
C1363 N1361 1.356 . S
N1364 C1356 1.356 . S
N1364 H1370 0.984 . S
N1364 H1371 0.984 . S
N1365 C1358 1.356 . S
N1365 H1368 0.984 . S
N1365 H1369 0.985 1_554 S
H1366 N1361 0.984 . S
H1367 N1361 0.985 . S
H1368 N1365 0.984 . S
H1369 N1365 0.985 1_556 S
H1370 N1364 0.984 . S
H1371 N1364 0.984 . S
H1372 N1360 0.984 . S
H1373 N1360 0.985 . S
C1374 C1375 1.363 . S
C1374 C1380 1.379 . S
C1374 N1382 1.356 . S
C1375 C1374 1.363 . S
C1375 C1381 1.363 . S
C1376 C1377 1.363 . S
C1376 C1381 1.379 . S
C1376 N1383 1.356 . S
C1377 C1376 1.363 . S
C1377 C1380 1.363 . S
N1378 C1380 1.356 . S
N1378 H1390 0.984 . S
N1378 H1391 0.985 . S
N1379 C1381 1.356 . S
N1379 H1384 0.984 . S
N1379 H1385 0.985 . S
C1380 C1374 1.379 . S
C1380 C1377 1.363 . S
C1380 N1378 1.356 . S
C1381 C1375 1.363 . S
C1381 C1376 1.379 . S
C1381 N1379 1.356 . S
N1382 C1374 1.356 . S
N1382 H1388 0.984 . S
N1382 H1389 0.984 . S
N1383 C1376 1.356 . S
N1383 H1386 0.984 . S
N1383 H1387 0.985 . S
H1384 N1379 0.984 . S
H1385 N1379 0.985 . S
H1386 N1383 0.984 . S
H1387 N1383 0.985 . S
H1388 N1382 0.984 . S
H1389 N1382 0.984 . S
H1390 N1378 0.984 . S
H1391 N1378 0.985 . S
C1392 C1393 1.363 . S
C1392 C1398 1.379 . S
C1392 N1400 1.356 . S
C1393 C1392 1.363 . S
C1393 C1399 1.363 . S
C1394 C1395 1.363 . S
C1394 C1399 1.379 . S
C1394 N1401 1.356 . S
C1395 C1394 1.363 . S
C1395 C1398 1.363 . S
N1396 C1398 1.356 . S
N1396 H1408 0.984 . S
N1396 H1409 0.985 . S
N1397 C1399 1.356 . S
N1397 H1402 0.984 . S
N1397 H1403 0.985 . S
C1398 C1392 1.379 . S
C1398 C1395 1.363 . S
C1398 N1396 1.356 . S
C1399 C1393 1.363 . S
C1399 C1394 1.379 . S
C1399 N1397 1.356 . S
N1400 C1392 1.356 . S
N1400 H1406 0.984 . S
N1400 H1407 0.984 . S
N1401 C1394 1.356 . S
N1401 H1404 0.984 . S
N1401 H1405 0.985 . S
H1402 N1397 0.984 . S
H1403 N1397 0.985 . S
H1404 N1401 0.984 . S
H1405 N1401 0.985 . S
H1406 N1400 0.984 . S
H1407 N1400 0.984 . S
H1408 N1396 0.984 . S
H1409 N1396 0.985 . S
C1410 C1411 1.363 . S
C1410 C1416 1.379 . S
C1410 N1418 1.356 . S
C1411 C1410 1.363 . S
C1411 C1417 1.363 . S
C1412 C1413 1.363 . S
C1412 C1417 1.379 . S
C1412 N1419 1.356 . S
C1413 C1412 1.363 . S
C1413 C1416 1.363 . S
N1414 C1416 1.356 . S
N1414 H1426 0.984 . S
N1414 H1427 0.985 . S
N1415 C1417 1.356 . S
N1415 H1420 0.984 . S
N1415 H1421 0.985 . S
C1416 C1410 1.379 . S
C1416 C1413 1.363 . S
C1416 N1414 1.356 . S
C1417 C1411 1.363 . S
C1417 C1412 1.379 . S
C1417 N1415 1.356 . S
N1418 C1410 1.356 . S
N1418 H1424 0.984 . S
N1418 H1425 0.984 . S
N1419 C1412 1.356 . S
N1419 H1422 0.984 . S
N1419 H1423 0.985 . S
H1420 N1415 0.984 . S
H1421 N1415 0.985 . S
H1422 N1419 0.984 . S
H1423 N1419 0.985 . S
H1424 N1418 0.984 . S
H1425 N1418 0.984 . S
H1426 N1414 0.984 . S
H1427 N1414 0.985 . S
C1428 C1429 1.363 . S
C1428 C1434 1.379 . S
C1428 N1436 1.356 . S
C1429 C1428 1.363 . S
C1429 C1435 1.363 . S
C1430 C1431 1.363 . S
C1430 C1435 1.379 . S
C1430 N1437 1.356 . S
C1431 C1430 1.363 . S
C1431 C1434 1.363 . S
N1432 C1434 1.356 . S
N1432 H1444 0.984 . S
N1432 H1445 0.985 . S
N1433 C1435 1.356 . S
N1433 H1438 0.984 . S
N1433 H1439 0.985 . S
C1434 C1428 1.379 . S
C1434 C1431 1.363 . S
C1434 N1432 1.356 . S
C1435 C1429 1.363 . S
C1435 C1430 1.379 . S
C1435 N1433 1.356 . S
N1436 C1428 1.356 . S
N1436 H1442 0.984 . S
N1436 H1443 0.984 . S
N1437 C1430 1.356 . S
N1437 H1440 0.984 . S
N1437 H1441 0.985 . S
H1438 N1433 0.984 . S
H1439 N1433 0.985 . S
H1440 N1437 0.984 . S
H1441 N1437 0.985 . S
H1442 N1436 0.984 . S
H1443 N1436 0.984 . S
H1444 N1432 0.984 . S
H1445 N1432 0.985 . S
C1446 C1447 1.363 . S
C1446 C1452 1.379 . S
C1446 N1454 1.356 . S
C1447 C1446 1.363 . S
C1447 C1453 1.363 . S
C1448 C1449 1.363 . S
C1448 C1453 1.379 . S
C1448 N1455 1.356 . S
C1449 C1448 1.363 . S
C1449 C1452 1.363 . S
N1450 C1452 1.356 . S
N1450 H1462 0.984 . S
N1450 H1463 0.985 . S
N1451 C1453 1.356 . S
N1451 H1456 0.984 . S
N1451 H1457 0.985 . S
C1452 C1446 1.379 . S
C1452 C1449 1.363 . S
C1452 N1450 1.356 . S
C1453 C1447 1.363 . S
C1453 C1448 1.379 . S
C1453 N1451 1.356 . S
N1454 C1446 1.356 . S
N1454 H1460 0.984 . S
N1454 H1461 0.984 . S
N1455 C1448 1.356 . S
N1455 H1458 0.984 . S
N1455 H1459 0.985 . S
H1456 N1451 0.984 . S
H1457 N1451 0.985 . S
H1458 N1455 0.984 . S
H1459 N1455 0.985 . S
H1460 N1454 0.984 . S
H1461 N1454 0.984 . S
H1462 N1450 0.984 . S
H1463 N1450 0.985 . S
C1464 C1465 1.363 . S
C1464 C1470 1.379 . S
C1464 N1472 1.356 . S
C1465 C1464 1.363 . S
C1465 C1471 1.363 . S
C1466 C1467 1.363 . S
C1466 C1471 1.379 . S
C1466 N1473 1.356 . S
C1467 C1466 1.363 . S
C1467 C1470 1.363 . S
N1468 C1470 1.356 . S
N1468 H1480 0.984 . S
N1468 H1481 0.985 . S
N1469 C1471 1.356 . S
N1469 H1474 0.984 . S
N1469 H1475 0.985 . S
C1470 C1464 1.379 . S
C1470 C1467 1.363 . S
C1470 N1468 1.356 . S
C1471 C1465 1.363 . S
C1471 C1466 1.379 . S
C1471 N1469 1.356 . S
N1472 C1464 1.356 . S
N1472 H1478 0.984 . S
N1472 H1479 0.984 . S
N1473 C1466 1.356 . S
N1473 H1476 0.984 . S
N1473 H1477 0.985 . S
H1474 N1469 0.984 . S
H1475 N1469 0.985 . S
H1476 N1473 0.984 . S
H1477 N1473 0.985 . S
H1478 N1472 0.984 . S
H1479 N1472 0.984 . S
H1480 N1468 0.984 . S
H1481 N1468 0.985 . S
C1482 C1483 1.363 . S
C1482 C1488 1.379 . S
C1482 N1490 1.356 . S
C1483 C1482 1.363 . S
C1483 C1489 1.363 . S
C1484 C1485 1.363 . S
C1484 C1489 1.379 . S
C1484 N1491 1.356 . S
C1485 C1484 1.363 . S
C1485 C1488 1.363 . S
N1486 C1488 1.356 . S
N1486 H1498 0.984 . S
N1486 H1499 0.985 . S
N1487 C1489 1.356 . S
N1487 H1492 0.984 . S
N1487 H1493 0.985 . S
C1488 C1482 1.379 . S
C1488 C1485 1.363 . S
C1488 N1486 1.356 . S
C1489 C1483 1.363 . S
C1489 C1484 1.379 . S
C1489 N1487 1.356 . S
N1490 C1482 1.356 . S
N1490 H1496 0.984 . S
N1490 H1497 0.984 . S
N1491 C1484 1.356 . S
N1491 H1494 0.984 . S
N1491 H1495 0.985 . S
H1492 N1487 0.984 . S
H1493 N1487 0.985 . S
H1494 N1491 0.984 . S
H1495 N1491 0.985 . S
H1496 N1490 0.984 . S
H1497 N1490 0.984 . S
H1498 N1486 0.984 . S
H1499 N1486 0.985 . S
C1500 C1501 1.363 . S
C1500 C1506 1.379 . S
C1500 N1508 1.356 . S
C1501 C1500 1.363 . S
C1501 C1507 1.363 . S
C1502 C1503 1.363 . S
C1502 C1507 1.379 . S
C1502 N1509 1.356 . S
C1503 C1502 1.363 . S
C1503 C1506 1.363 . S
N1504 C1506 1.356 . S
N1504 H1516 0.984 . S
N1504 H1517 0.985 . S
N1505 C1507 1.356 . S
N1505 H1510 0.984 . S
N1505 H1511 0.985 . S
C1506 C1500 1.379 . S
C1506 C1503 1.363 . S
C1506 N1504 1.356 . S
C1507 C1501 1.363 . S
C1507 C1502 1.379 . S
C1507 N1505 1.356 . S
N1508 C1500 1.356 . S
N1508 H1514 0.984 . S
N1508 H1515 0.984 . S
N1509 C1502 1.356 . S
N1509 H1512 0.984 . S
N1509 H1513 0.985 . S
H1510 N1505 0.984 . S
H1511 N1505 0.985 . S
H1512 N1509 0.984 . S
H1513 N1509 0.985 . S
H1514 N1508 0.984 . S
H1515 N1508 0.984 . S
H1516 N1504 0.984 . S
H1517 N1504 0.985 . S
C1518 C1519 1.363 . S
C1518 C1524 1.379 . S
C1518 N1526 1.356 . S
C1519 C1518 1.363 . S
C1519 C1525 1.363 . S
C1520 C1521 1.363 . S
C1520 C1525 1.379 . S
C1520 N1527 1.356 . S
C1521 C1520 1.363 . S
C1521 C1524 1.363 . S
N1522 C1524 1.356 . S
N1522 H1534 0.984 . S
N1522 H1535 0.985 . S
N1523 C1525 1.356 . S
N1523 H1528 0.984 . S
N1523 H1529 0.985 . S
C1524 C1518 1.379 . S
C1524 C1521 1.363 . S
C1524 N1522 1.356 . S
C1525 C1519 1.363 . S
C1525 C1520 1.379 . S
C1525 N1523 1.356 . S
N1526 C1518 1.356 . S
N1526 H1532 0.984 . S
N1526 H1533 0.984 . S
N1527 C1520 1.356 . S
N1527 H1530 0.984 . S
N1527 H1531 0.985 . S
H1528 N1523 0.984 . S
H1529 N1523 0.985 . S
H1530 N1527 0.984 . S
H1531 N1527 0.985 . S
H1532 N1526 0.984 . S
H1533 N1526 0.984 . S
H1534 N1522 0.984 . S
H1535 N1522 0.985 . S
C1536 C1537 1.363 . S
C1536 C1542 1.379 . S
C1536 N1544 1.356 . S
C1537 C1536 1.363 . S
C1537 C1543 1.363 . S
C1538 C1539 1.363 . S
C1538 C1543 1.379 . S
C1538 N1545 1.356 . S
C1539 C1538 1.363 . S
C1539 C1542 1.363 . S
N1540 C1542 1.356 . S
N1540 H1552 0.984 . S
N1540 H1553 0.985 . S
N1541 C1543 1.356 . S
N1541 H1546 0.984 . S
N1541 H1547 0.985 . S
C1542 C1536 1.379 . S
C1542 C1539 1.363 . S
C1542 N1540 1.356 . S
C1543 C1537 1.363 . S
C1543 C1538 1.379 . S
C1543 N1541 1.356 . S
N1544 C1536 1.356 . S
N1544 H1550 0.984 . S
N1544 H1551 0.984 . S
N1545 C1538 1.356 . S
N1545 H1548 0.984 . S
N1545 H1549 0.985 . S
H1546 N1541 0.984 . S
H1547 N1541 0.985 . S
H1548 N1545 0.984 . S
H1549 N1545 0.985 . S
H1550 N1544 0.984 . S
H1551 N1544 0.984 . S
H1552 N1540 0.984 . S
H1553 N1540 0.985 . S
C1554 C1555 1.363 . S
C1554 C1560 1.379 . S
C1554 N1562 1.356 . S
C1555 C1554 1.363 . S
C1555 C1561 1.363 . S
C1556 C1557 1.363 . S
C1556 C1561 1.379 . S
C1556 N1563 1.356 . S
C1557 C1556 1.363 . S
C1557 C1560 1.363 . S
N1558 C1560 1.356 . S
N1558 H1570 0.984 . S
N1558 H1571 0.985 . S
N1559 C1561 1.356 . S
N1559 H1564 0.984 . S
N1559 H1565 0.985 . S
C1560 C1554 1.379 . S
C1560 C1557 1.363 . S
C1560 N1558 1.356 . S
C1561 C1555 1.363 . S
C1561 C1556 1.379 . S
C1561 N1559 1.356 . S
N1562 C1554 1.356 . S
N1562 H1568 0.984 . S
N1562 H1569 0.984 . S
N1563 C1556 1.356 . S
N1563 H1566 0.984 . S
N1563 H1567 0.985 . S
H1564 N1559 0.984 . S
H1565 N1559 0.985 . S
H1566 N1563 0.984 . S
H1567 N1563 0.985 . S
H1568 N1562 0.984 . S
H1569 N1562 0.984 . S
H1570 N1558 0.984 . S
H1571 N1558 0.985 . S
C1572 C1573 1.363 . S
C1572 C1578 1.379 . S
C1572 N1580 1.356 . S
C1573 C1572 1.363 . S
C1573 C1579 1.363 1_565 S
C1574 C1575 1.363 1_545 S
C1574 C1579 1.379 . S
C1574 N1581 1.356 . S
C1575 C1574 1.363 1_565 S
C1575 C1578 1.363 . S
N1576 C1578 1.356 . S
N1576 H1588 0.984 . S
N1576 H1589 0.985 . S
N1577 C1579 1.356 . S
N1577 H1582 0.984 . S
N1577 H1583 0.985 . S
C1578 C1572 1.379 . S
C1578 C1575 1.363 . S
C1578 N1576 1.356 . S
C1579 C1573 1.363 1_545 S
C1579 C1574 1.379 . S
C1579 N1577 1.356 . S
N1580 C1572 1.356 . S
N1580 H1586 0.984 . S
N1580 H1587 0.984 . S
N1581 C1574 1.356 . S
N1581 H1584 0.984 . S
N1581 H1585 0.985 . S
H1582 N1577 0.984 . S
H1583 N1577 0.985 . S
H1584 N1581 0.984 . S
H1585 N1581 0.985 . S
H1586 N1580 0.984 . S
H1587 N1580 0.984 . S
H1588 N1576 0.984 . S
H1589 N1576 0.985 . S
C1590 C1591 1.363 1_556 S
C1590 C1596 1.379 1_545 S
C1590 N1598 1.356 . S
C1591 C1590 1.363 1_554 S
C1591 C1597 1.363 . S
C1592 C1593 1.363 1_554 S
C1592 C1597 1.379 1_565 S
C1592 N1599 1.356 . S
C1593 C1592 1.363 1_556 S
C1593 C1596 1.363 . S
N1594 C1596 1.356 . S
N1594 H1606 0.984 . S
N1594 H1607 0.985 . S
N1595 C1597 1.356 . S
N1595 H1600 0.984 . S
N1595 H1601 0.985 . S
C1596 C1590 1.379 1_565 S
C1596 C1593 1.363 . S
C1596 N1594 1.356 . S
C1597 C1591 1.363 . S
C1597 C1592 1.379 1_545 S
C1597 N1595 1.356 . S
N1598 C1590 1.356 . S
N1598 H1604 0.984 . S
N1598 H1605 0.984 . S
N1599 C1592 1.356 . S
N1599 H1602 0.984 . S
N1599 H1603 0.985 . S
H1600 N1595 0.984 . S
H1601 N1595 0.985 . S
H1602 N1599 0.984 . S
H1603 N1599 0.985 . S
H1604 N1598 0.984 . S
H1605 N1598 0.984 . S
H1606 N1594 0.984 . S
H1607 N1594 0.985 . S
C1608 C1609 1.363 . S
C1608 C1614 1.379 . S
C1608 N1616 1.356 . S
C1609 C1608 1.363 . S
C1609 C1615 1.363 . S
C1610 C1611 1.363 . S
C1610 C1615 1.379 . S
C1610 N1617 1.356 . S
C1611 C1610 1.363 . S
C1611 C1614 1.363 . S
N1612 C1614 1.356 . S
N1612 H1624 0.984 . S
N1612 H1625 0.985 . S
N1613 C1615 1.356 . S
N1613 H1618 0.984 . S
N1613 H1619 0.985 . S
C1614 C1608 1.379 . S
C1614 C1611 1.363 . S
C1614 N1612 1.356 . S
C1615 C1609 1.363 . S
C1615 C1610 1.379 . S
C1615 N1613 1.356 . S
N1616 C1608 1.356 . S
N1616 H1622 0.984 . S
N1616 H1623 0.984 . S
N1617 C1610 1.356 . S
N1617 H1620 0.984 . S
N1617 H1621 0.985 . S
H1618 N1613 0.984 . S
H1619 N1613 0.985 . S
H1620 N1617 0.984 . S
H1621 N1617 0.985 . S
H1622 N1616 0.984 . S
H1623 N1616 0.984 . S
H1624 N1612 0.984 . S
H1625 N1612 0.985 . S
C1626 C1627 1.363 . S
C1626 C1632 1.379 . S
C1626 N1634 1.356 . S
C1627 C1626 1.363 . S
C1627 C1633 1.363 1_556 S
C1628 C1629 1.363 . S
C1628 C1633 1.379 . S
C1628 N1635 1.356 . S
C1629 C1628 1.363 . S
C1629 C1632 1.363 1_554 S
N1630 C1632 1.356 . S
N1630 H1642 0.984 . S
N1630 H1643 0.985 . S
N1631 C1633 1.356 . S
N1631 H1636 0.984 . S
N1631 H1637 0.985 . S
C1632 C1626 1.379 . S
C1632 C1629 1.363 1_556 S
C1632 N1630 1.356 . S
C1633 C1627 1.363 1_554 S
C1633 C1628 1.379 . S
C1633 N1631 1.356 . S
N1634 C1626 1.356 . S
N1634 H1640 0.984 . S
N1634 H1641 0.984 . S
N1635 C1628 1.356 . S
N1635 H1638 0.984 . S
N1635 H1639 0.985 . S
H1636 N1631 0.984 . S
H1637 N1631 0.985 . S
H1638 N1635 0.984 . S
H1639 N1635 0.985 . S
H1640 N1634 0.984 . S
H1641 N1634 0.984 . S
H1642 N1630 0.984 . S
H1643 N1630 0.985 . S
C1644 C1645 1.363 . S
C1644 C1650 1.379 . S
C1644 N1652 1.356 . S
C1645 C1644 1.363 . S
C1645 C1651 1.363 1_545 S
C1646 C1647 1.363 1_565 S
C1646 C1651 1.379 . S
C1646 N1653 1.356 . S
C1647 C1646 1.363 1_545 S
C1647 C1650 1.363 . S
N1648 C1650 1.356 . S
N1648 H1660 0.984 . S
N1648 H1661 0.985 . S
N1649 C1651 1.356 . S
N1649 H1654 0.984 . S
N1649 H1655 0.985 . S
C1650 C1644 1.379 . S
C1650 C1647 1.363 . S
C1650 N1648 1.356 . S
C1651 C1645 1.363 1_565 S
C1651 C1646 1.379 . S
C1651 N1649 1.356 . S
N1652 C1644 1.356 . S
N1652 H1658 0.984 . S
N1652 H1659 0.984 . S
N1653 C1646 1.356 . S
N1653 H1656 0.984 . S
N1653 H1657 0.985 . S
H1654 N1649 0.984 . S
H1655 N1649 0.985 . S
H1656 N1653 0.984 . S
H1657 N1653 0.985 . S
H1658 N1652 0.984 . S
H1659 N1652 0.984 . S
H1660 N1648 0.984 . S
H1661 N1648 0.985 . S
C1662 C1663 1.363 . S
C1662 C1668 1.379 1_545 S
C1662 N1670 1.356 . S
C1663 C1662 1.363 . S
C1663 C1669 1.363 . S
C1664 C1665 1.363 . S
C1664 C1669 1.379 1_565 S
C1664 N1671 1.356 . S
C1665 C1664 1.363 . S
C1665 C1668 1.363 . S
N1666 C1668 1.356 . S
N1666 H1678 0.984 . S
N1666 H1679 0.985 . S
N1667 C1669 1.356 . S
N1667 H1672 0.984 . S
N1667 H1673 0.985 . S
C1668 C1662 1.379 1_565 S
C1668 C1665 1.363 . S
C1668 N1666 1.356 . S
C1669 C1663 1.363 . S
C1669 C1664 1.379 1_545 S
C1669 N1667 1.356 . S
N1670 C1662 1.356 . S
N1670 H1676 0.984 . S
N1670 H1677 0.984 . S
N1671 C1664 1.356 . S
N1671 H1674 0.984 . S
N1671 H1675 0.985 . S
H1672 N1667 0.984 . S
H1673 N1667 0.985 . S
H1674 N1671 0.984 . S
H1675 N1671 0.985 . S
H1676 N1670 0.984 . S
H1677 N1670 0.984 . S
H1678 N1666 0.984 . S
H1679 N1666 0.985 . S
C1680 C1681 1.363 . S
C1680 C1686 1.379 . S
C1680 N1688 1.356 . S
C1681 C1680 1.363 . S
C1681 C1687 1.363 . S
C1682 C1683 1.363 . S
C1682 C1687 1.379 . S
C1682 N1689 1.356 . S
C1683 C1682 1.363 . S
C1683 C1686 1.363 . S
N1684 C1686 1.356 . S
N1684 H1696 0.984 . S
N1684 H1697 0.985 . S
N1685 C1687 1.356 . S
N1685 H1690 0.984 . S
N1685 H1691 0.985 . S
C1686 C1680 1.379 . S
C1686 C1683 1.363 . S
C1686 N1684 1.356 . S
C1687 C1681 1.363 . S
C1687 C1682 1.379 . S
C1687 N1685 1.356 . S
N1688 C1680 1.356 . S
N1688 H1694 0.984 . S
N1688 H1695 0.984 . S
N1689 C1682 1.356 . S
N1689 H1692 0.984 . S
N1689 H1693 0.985 . S
H1690 N1685 0.984 . S
H1691 N1685 0.985 . S
H1692 N1689 0.984 . S
H1693 N1689 0.985 . S
H1694 N1688 0.984 . S
H1695 N1688 0.984 . S
H1696 N1684 0.984 . S
H1697 N1684 0.985 . S
C1698 C1699 1.363 . S
C1698 C1704 1.379 1_455 S
C1698 N1706 1.356 . S
C1699 C1698 1.363 . S
C1699 C1705 1.363 . S
C1700 C1701 1.363 . S
C1700 C1705 1.379 1_655 S
C1700 N1707 1.356 . S
C1701 C1700 1.363 . S
C1701 C1704 1.363 . S
N1702 C1704 1.356 . S
N1702 H1714 0.984 . S
N1702 H1715 0.985 . S
N1703 C1705 1.356 . S
N1703 H1708 0.984 . S
N1703 H1709 0.985 . S
C1704 C1698 1.379 1_655 S
C1704 C1701 1.363 . S
C1704 N1702 1.356 . S
C1705 C1699 1.363 . S
C1705 C1700 1.379 1_455 S
C1705 N1703 1.356 . S
N1706 C1698 1.356 . S
N1706 H1712 0.984 . S
N1706 H1713 0.984 . S
N1707 C1700 1.356 . S
N1707 H1710 0.984 . S
N1707 H1711 0.985 . S
H1708 N1703 0.984 . S
H1709 N1703 0.985 . S
H1710 N1707 0.984 . S
H1711 N1707 0.985 . S
H1712 N1706 0.984 . S
H1713 N1706 0.984 . S
H1714 N1702 0.984 . S
H1715 N1702 0.985 . S
C1716 C1717 1.363 1_556 S
C1716 C1722 1.379 . S
C1716 N1724 1.356 . S
C1717 C1716 1.363 1_554 S
C1717 C1723 1.363 . S
C1718 C1719 1.363 . S
C1718 C1723 1.379 . S
C1718 N1725 1.356 . S
C1719 C1718 1.363 . S
C1719 C1722 1.363 1_554 S
N1720 C1722 1.356 . S
N1720 H1732 0.984 . S
N1720 H1733 0.985 . S
N1721 C1723 1.356 . S
N1721 H1726 0.984 . S
N1721 H1727 0.985 . S
C1722 C1716 1.379 . S
C1722 C1719 1.363 1_556 S
C1722 N1720 1.356 . S
C1723 C1717 1.363 . S
C1723 C1718 1.379 . S
C1723 N1721 1.356 . S
N1724 C1716 1.356 . S
N1724 H1730 0.984 . S
N1724 H1731 0.984 . S
N1725 C1718 1.356 . S
N1725 H1728 0.984 . S
N1725 H1729 0.985 . S
H1726 N1721 0.984 . S
H1727 N1721 0.985 . S
H1728 N1725 0.984 . S
H1729 N1725 0.985 . S
H1730 N1724 0.984 . S
H1731 N1724 0.984 . S
H1732 N1720 0.984 . S
H1733 N1720 0.985 . S
C1734 C1735 1.363 . S
C1734 C1740 1.379 1_655 S
C1734 N1742 1.356 . S
C1735 C1734 1.363 . S
C1735 C1741 1.363 1_565 S
C1736 C1737 1.363 . S
C1736 C1741 1.379 1_455 S
C1736 N1743 1.356 . S
C1737 C1736 1.363 . S
C1737 C1740 1.363 1_545 S
N1738 C1740 1.356 . S
N1738 H1750 0.984 . S
N1738 H1751 0.985 . S
N1739 C1741 1.356 . S
N1739 H1744 0.984 . S
N1739 H1745 0.985 . S
C1740 C1734 1.379 1_455 S
C1740 C1737 1.363 1_565 S
C1740 N1738 1.356 . S
C1741 C1735 1.363 1_545 S
C1741 C1736 1.379 1_655 S
C1741 N1739 1.356 . S
N1742 C1734 1.356 . S
N1742 H1748 0.984 . S
N1742 H1749 0.984 . S
N1743 C1736 1.356 . S
N1743 H1746 0.984 . S
N1743 H1747 0.985 . S
H1744 N1739 0.984 . S
H1745 N1739 0.985 . S
H1746 N1743 0.984 . S
H1747 N1743 0.985 . S
H1748 N1742 0.984 . S
H1749 N1742 0.984 . S
H1750 N1738 0.984 . S
H1751 N1738 0.985 . S
C1752 C1753 1.363 . S
C1752 C1758 1.379 . S
C1752 N1760 1.356 . S
C1753 C1752 1.363 . S
C1753 C1759 1.363 . S
C1754 C1755 1.363 . S
C1754 C1759 1.379 . S
C1754 N1761 1.356 . S
C1755 C1754 1.363 . S
C1755 C1758 1.363 . S
N1756 C1758 1.356 . S
N1756 H1768 0.984 . S
N1756 H1769 0.985 . S
N1757 C1759 1.356 . S
N1757 H1762 0.984 . S
N1757 H1763 0.985 . S
C1758 C1752 1.379 . S
C1758 C1755 1.363 . S
C1758 N1756 1.356 . S
C1759 C1753 1.363 . S
C1759 C1754 1.379 . S
C1759 N1757 1.356 . S
N1760 C1752 1.356 . S
N1760 H1766 0.984 . S
N1760 H1767 0.984 . S
N1761 C1754 1.356 . S
N1761 H1764 0.984 . S
N1761 H1765 0.985 . S
H1762 N1757 0.984 . S
H1763 N1757 0.985 . S
H1764 N1761 0.984 . S
H1765 N1761 0.985 . S
H1766 N1760 0.984 . S
H1767 N1760 0.984 . S
H1768 N1756 0.984 . S
H1769 N1756 0.985 . S
C1770 C1771 1.363 . S
C1770 C1776 1.379 . S
C1770 N1778 1.356 . S
C1771 C1770 1.363 . S
C1771 C1777 1.363 . S
C1772 C1773 1.363 . S
C1772 C1777 1.379 . S
C1772 N1779 1.356 . S
C1773 C1772 1.363 . S
C1773 C1776 1.363 . S
N1774 C1776 1.356 . S
N1774 H1786 0.984 . S
N1774 H1787 0.985 . S
N1775 C1777 1.356 . S
N1775 H1780 0.984 . S
N1775 H1781 0.985 . S
C1776 C1770 1.379 . S
C1776 C1773 1.363 . S
C1776 N1774 1.356 . S
C1777 C1771 1.363 . S
C1777 C1772 1.379 . S
C1777 N1775 1.356 . S
N1778 C1770 1.356 . S
N1778 H1784 0.984 . S
N1778 H1785 0.984 . S
N1779 C1772 1.356 . S
N1779 H1782 0.984 . S
N1779 H1783 0.985 . S
H1780 N1775 0.984 . S
H1781 N1775 0.985 . S
H1782 N1779 0.984 . S
H1783 N1779 0.985 . S
H1784 N1778 0.984 . S
H1785 N1778 0.984 . S
H1786 N1774 0.984 . S
H1787 N1774 0.985 . S
C1788 C1789 1.363 . S
C1788 C1794 1.379 . S
C1788 N1796 1.356 . S
C1789 C1788 1.363 . S
C1789 C1795 1.363 1_556 S
C1790 C1791 1.363 1_554 S
C1790 C1795 1.379 . S
C1790 N1797 1.356 . S
C1791 C1790 1.363 1_556 S
C1791 C1794 1.363 . S
N1792 C1794 1.356 . S
N1792 H1804 0.984 . S
N1792 H1805 0.985 . S
N1793 C1795 1.356 . S
N1793 H1798 0.984 . S
N1793 H1799 0.985 . S
C1794 C1788 1.379 . S
C1794 C1791 1.363 . S
C1794 N1792 1.356 . S
C1795 C1789 1.363 1_554 S
C1795 C1790 1.379 . S
C1795 N1793 1.356 . S
N1796 C1788 1.356 . S
N1796 H1802 0.984 . S
N1796 H1803 0.984 . S
N1797 C1790 1.356 . S
N1797 H1800 0.984 . S
N1797 H1801 0.985 . S
H1798 N1793 0.984 . S
H1799 N1793 0.985 . S
H1800 N1797 0.984 . S
H1801 N1797 0.985 . S
H1802 N1796 0.984 . S
H1803 N1796 0.984 . S
H1804 N1792 0.984 . S
H1805 N1792 0.985 . S
C1806 C1807 1.363 . S
C1806 C1812 1.379 . S
C1806 N1814 1.356 . S
C1807 C1806 1.363 . S
C1807 C1813 1.363 1_545 S
C1808 C1809 1.363 . S
C1808 C1813 1.379 . S
C1808 N1815 1.356 . S
C1809 C1808 1.363 . S
C1809 C1812 1.363 1_565 S
N1810 C1812 1.356 . S
N1810 H1822 0.984 . S
N1810 H1823 0.985 . S
N1811 C1813 1.356 . S
N1811 H1816 0.984 . S
N1811 H1817 0.985 . S
C1812 C1806 1.379 . S
C1812 C1809 1.363 1_545 S
C1812 N1810 1.356 . S
C1813 C1807 1.363 1_565 S
C1813 C1808 1.379 . S
C1813 N1811 1.356 . S
N1814 C1806 1.356 . S
N1814 H1820 0.984 . S
N1814 H1821 0.984 . S
N1815 C1808 1.356 . S
N1815 H1818 0.984 . S
N1815 H1819 0.985 . S
H1816 N1811 0.984 . S
H1817 N1811 0.985 . S
H1818 N1815 0.984 . S
H1819 N1815 0.985 . S
H1820 N1814 0.984 . S
H1821 N1814 0.984 . S
H1822 N1810 0.984 . S
H1823 N1810 0.985 . S
C1824 C1825 1.363 . S
C1824 C1830 1.379 . S
C1824 N1832 1.356 . S
C1825 C1824 1.363 . S
C1825 C1831 1.363 . S
C1826 C1827 1.363 . S
C1826 C1831 1.379 . S
C1826 N1833 1.356 . S
C1827 C1826 1.363 . S
C1827 C1830 1.363 . S
N1828 C1830 1.356 . S
N1828 H1840 0.984 . S
N1828 H1841 0.985 . S
N1829 C1831 1.356 . S
N1829 H1834 0.984 . S
N1829 H1835 0.985 . S
C1830 C1824 1.379 . S
C1830 C1827 1.363 . S
C1830 N1828 1.356 . S
C1831 C1825 1.363 . S
C1831 C1826 1.379 . S
C1831 N1829 1.356 . S
N1832 C1824 1.356 . S
N1832 H1838 0.984 . S
N1832 H1839 0.984 . S
N1833 C1826 1.356 . S
N1833 H1836 0.984 . S
N1833 H1837 0.985 . S
H1834 N1829 0.984 . S
H1835 N1829 0.985 . S
H1836 N1833 0.984 . S
H1837 N1833 0.985 . S
H1838 N1832 0.984 . S
H1839 N1832 0.984 . S
H1840 N1828 0.984 . S
H1841 N1828 0.985 . S
C1842 C1843 1.363 . S
C1842 C1848 1.379 . S
C1842 N1850 1.356 . S
C1843 C1842 1.363 . S
C1843 C1849 1.363 . S
C1844 C1845 1.363 . S
C1844 C1849 1.379 . S
C1844 N1851 1.356 1_455 S
C1845 C1844 1.363 . S
C1845 C1848 1.363 . S
N1846 C1848 1.356 . S
N1846 H1858 0.984 . S
N1846 H1859 0.985 . S
N1847 C1849 1.356 1_655 S
N1847 H1852 0.984 . S
N1847 H1853 0.985 . S
C1848 C1842 1.379 . S
C1848 C1845 1.363 . S
C1848 N1846 1.356 . S
C1849 C1843 1.363 . S
C1849 C1844 1.379 . S
C1849 N1847 1.356 1_455 S
N1850 C1842 1.356 . S
N1850 H1856 0.984 . S
N1850 H1857 0.984 . S
N1851 C1844 1.356 1_655 S
N1851 H1854 0.984 . S
N1851 H1855 0.985 . S
H1852 N1847 0.984 . S
H1853 N1847 0.985 . S
H1854 N1851 0.984 . S
H1855 N1851 0.985 . S
H1856 N1850 0.984 . S
H1857 N1850 0.984 . S
H1858 N1846 0.984 . S
H1859 N1846 0.985 . S
C1860 C1861 1.363 . S
C1860 C1866 1.379 . S
C1860 N1868 1.356 . S
C1861 C1860 1.363 . S
C1861 C1867 1.363 . S
C1862 C1863 1.363 . S
C1862 C1867 1.379 . S
C1862 N1869 1.356 . S
C1863 C1862 1.363 . S
C1863 C1866 1.363 . S
N1864 C1866 1.356 . S
N1864 H1876 0.984 . S
N1864 H1877 0.985 . S
N1865 C1867 1.356 . S
N1865 H1870 0.984 . S
N1865 H1871 0.985 . S
C1866 C1860 1.379 . S
C1866 C1863 1.363 . S
C1866 N1864 1.356 . S
C1867 C1861 1.363 . S
C1867 C1862 1.379 . S
C1867 N1865 1.356 . S
N1868 C1860 1.356 . S
N1868 H1874 0.984 . S
N1868 H1875 0.984 . S
N1869 C1862 1.356 . S
N1869 H1872 0.984 . S
N1869 H1873 0.985 . S
H1870 N1865 0.984 . S
H1871 N1865 0.985 . S
H1872 N1869 0.984 . S
H1873 N1869 0.985 . S
H1874 N1868 0.984 . S
H1875 N1868 0.984 . S
H1876 N1864 0.984 . S
H1877 N1864 0.985 . S
C1878 C1879 1.363 . S
C1878 C1884 1.379 . S
C1878 N1886 1.347 1_655 S
C1879 C1878 1.363 . S
C1879 C1885 1.363 . S
C1880 C1881 1.363 . S
C1880 C1885 1.379 . S
C1880 N1887 1.356 . S
C1881 C1880 1.363 . S
C1881 C1884 1.363 . S
N1882 C1884 1.347 1_455 S
N1882 H1894 0.999 . S
N1882 H1895 0.981 1_455 S
N1883 C1885 1.356 . S
N1883 H1888 0.984 . S
N1883 H1889 0.985 . S
C1884 C1878 1.379 . S
C1884 C1881 1.363 . S
C1884 N1882 1.347 1_655 S
C1885 C1879 1.363 . S
C1885 C1880 1.379 . S
C1885 N1883 1.356 . S
N1886 C1878 1.347 1_455 S
N1886 H1892 0.999 . S
N1886 H1893 0.981 1_455 S
N1887 C1880 1.356 . S
N1887 H1890 0.984 . S
N1887 H1891 0.985 . S
H1888 N1883 0.984 . S
H1889 N1883 0.985 . S
H1890 N1887 0.984 . S
H1891 N1887 0.985 . S
H1892 N1886 0.999 . S
H1893 N1886 0.981 1_655 S
H1894 N1882 0.999 . S
H1895 N1882 0.981 1_655 S
C1896 C1897 1.363 1_655 S
C1896 C1902 1.379 1_556 S
C1896 N1904 1.356 . S
C1897 C1896 1.363 1_455 S
C1897 C1903 1.363 . S
C1898 C1899 1.363 1_455 S
C1898 C1903 1.379 1_554 S
C1898 N1905 1.356 . S
C1899 C1898 1.363 1_655 S
C1899 C1902 1.363 . S
N1900 C1902 1.356 . S
N1900 H1912 0.984 . S
N1900 H1913 0.985 . S
N1901 C1903 1.356 . S
N1901 H1906 0.984 . S
N1901 H1907 0.985 . S
C1902 C1896 1.379 1_554 S
C1902 C1899 1.363 . S
C1902 N1900 1.356 . S
C1903 C1897 1.363 . S
C1903 C1898 1.379 1_556 S
C1903 N1901 1.356 . S
N1904 C1896 1.356 . S
N1904 H1910 0.984 . S
N1904 H1911 0.984 . S
N1905 C1898 1.356 . S
N1905 H1908 0.984 . S
N1905 H1909 0.985 . S
H1906 N1901 0.984 . S
H1907 N1901 0.985 . S
H1908 N1905 0.984 . S
H1909 N1905 0.985 . S
H1910 N1904 0.984 . S
H1911 N1904 0.984 . S
H1912 N1900 0.984 . S
H1913 N1900 0.985 . S
C1914 C1915 1.363 . S
C1914 C1920 1.379 . S
C1914 N1922 1.356 . S
C1915 C1914 1.363 . S
C1915 C1921 1.363 . S
C1916 C1917 1.363 . S
C1916 C1921 1.379 . S
C1916 N1923 1.356 . S
C1917 C1916 1.363 . S
C1917 C1920 1.363 . S
N1918 C1920 1.356 . S
N1918 H1930 0.984 . S
N1918 H1931 0.985 . S
N1919 C1921 1.356 . S
N1919 H1924 0.984 . S
N1919 H1925 0.985 . S
C1920 C1914 1.379 . S
C1920 C1917 1.363 . S
C1920 N1918 1.356 . S
C1921 C1915 1.363 . S
C1921 C1916 1.379 . S
C1921 N1919 1.356 . S
N1922 C1914 1.356 . S
N1922 H1928 0.984 . S
N1922 H1929 0.984 . S
N1923 C1916 1.356 . S
N1923 H1926 0.984 . S
N1923 H1927 0.985 . S
H1924 N1919 0.984 . S
H1925 N1919 0.985 . S
H1926 N1923 0.984 . S
H1927 N1923 0.985 . S
H1928 N1922 0.984 . S
H1929 N1922 0.984 . S
H1930 N1918 0.984 . S
H1931 N1918 0.985 . S
C1932 C1933 1.363 . S
C1932 C1938 1.379 1_554 S
C1932 N1940 1.356 . S
C1933 C1932 1.363 . S
C1933 C1939 1.363 . S
C1934 C1935 1.363 . S
C1934 C1939 1.379 1_556 S
C1934 N1941 1.356 . S
C1935 C1934 1.363 . S
C1935 C1938 1.363 . S
N1936 C1938 1.356 . S
N1936 H1948 0.984 . S
N1936 H1949 0.985 . S
N1937 C1939 1.356 . S
N1937 H1942 0.984 . S
N1937 H1943 0.985 . S
C1938 C1932 1.379 1_556 S
C1938 C1935 1.363 . S
C1938 N1936 1.356 . S
C1939 C1933 1.363 . S
C1939 C1934 1.379 1_554 S
C1939 N1937 1.356 . S
N1940 C1932 1.356 . S
N1940 H1946 0.984 . S
N1940 H1947 0.984 . S
N1941 C1934 1.356 . S
N1941 H1944 0.984 . S
N1941 H1945 0.985 . S
H1942 N1937 0.984 . S
H1943 N1937 0.985 . S
H1944 N1941 0.984 . S
H1945 N1941 0.985 . S
H1946 N1940 0.984 . S
H1947 N1940 0.984 . S
H1948 N1936 0.984 . S
H1949 N1936 0.985 . S
C1950 C1951 1.363 . S
C1950 C1956 1.379 . S
C1950 N1958 1.356 . S
C1951 C1950 1.363 . S
C1951 C1957 1.363 1_545 S
C1952 C1953 1.363 1_565 S
C1952 C1957 1.379 . S
C1952 N1959 1.356 . S
C1953 C1952 1.363 1_545 S
C1953 C1956 1.363 . S
N1954 C1956 1.356 . S
N1954 H1966 0.984 . S
N1954 H1967 0.985 . S
N1955 C1957 1.356 . S
N1955 H1960 0.984 . S
N1955 H1961 0.985 . S
C1956 C1950 1.379 . S
C1956 C1953 1.363 . S
C1956 N1954 1.356 . S
C1957 C1951 1.363 1_565 S
C1957 C1952 1.379 . S
C1957 N1955 1.356 . S
N1958 C1950 1.356 . S
N1958 H1964 0.984 . S
N1958 H1965 0.984 . S
N1959 C1952 1.356 . S
N1959 H1962 0.984 . S
N1959 H1963 0.985 . S
H1960 N1955 0.984 . S
H1961 N1955 0.985 . S
H1962 N1959 0.984 . S
H1963 N1959 0.985 . S
H1964 N1958 0.984 . S
H1965 N1958 0.984 . S
H1966 N1954 0.984 . S
H1967 N1954 0.985 . S
C1968 C1969 1.363 1_554 S
C1968 C1974 1.379 1_545 S
C1968 N1976 1.356 . S
C1969 C1968 1.363 1_556 S
C1969 C1975 1.363 . S
C1970 C1971 1.363 1_556 S
C1970 C1975 1.379 1_565 S
C1970 N1977 1.356 . S
C1971 C1970 1.363 1_554 S
C1971 C1974 1.363 . S
N1972 C1974 1.356 . S
N1972 H1984 0.984 . S
N1972 H1985 0.985 . S
N1973 C1975 1.356 . S
N1973 H1978 0.984 . S
N1973 H1979 0.985 . S
C1974 C1968 1.379 1_565 S
C1974 C1971 1.363 . S
C1974 N1972 1.356 . S
C1975 C1969 1.363 . S
C1975 C1970 1.379 1_545 S
C1975 N1973 1.356 . S
N1976 C1968 1.356 . S
N1976 H1982 0.984 . S
N1976 H1983 0.984 . S
N1977 C1970 1.356 . S
N1977 H1980 0.984 . S
N1977 H1981 0.985 . S
H1978 N1973 0.984 . S
H1979 N1973 0.985 . S
H1980 N1977 0.984 . S
H1981 N1977 0.985 . S
H1982 N1976 0.984 . S
H1983 N1976 0.984 . S
H1984 N1972 0.984 . S
H1985 N1972 0.985 . S
C1986 C1987 1.363 . S
C1986 C1992 1.379 . S
C1986 N1994 1.356 . S
C1987 C1986 1.363 . S
C1987 C1993 1.363 . S
C1988 C1989 1.363 . S
C1988 C1993 1.379 . S
C1988 N1995 1.356 . S
C1989 C1988 1.363 . S
C1989 C1992 1.363 . S
N1990 C1992 1.356 . S
N1990 H2002 0.984 . S
N1990 H2003 0.985 . S
N1991 C1993 1.356 . S
N1991 H1996 0.984 . S
N1991 H1997 0.985 . S
C1992 C1986 1.379 . S
C1992 C1989 1.363 . S
C1992 N1990 1.356 . S
C1993 C1987 1.363 . S
C1993 C1988 1.379 . S
C1993 N1991 1.356 . S
N1994 C1986 1.356 . S
N1994 H2000 0.984 . S
N1994 H2001 0.984 . S
N1995 C1988 1.356 . S
N1995 H1998 0.984 . S
N1995 H1999 0.985 . S
H1996 N1991 0.984 . S
H1997 N1991 0.985 . S
H1998 N1995 0.984 . S
H1999 N1995 0.985 . S
H2000 N1994 0.984 . S
H2001 N1994 0.984 . S
H2002 N1990 0.984 . S
H2003 N1990 0.985 . S
C2004 C2005 1.363 . S
C2004 C2010 1.379 . S
C2004 N2012 1.356 . S
C2005 C2004 1.363 . S
C2005 C2011 1.363 . S
C2006 C2007 1.363 . S
C2006 C2011 1.379 . S
C2006 N2013 1.356 . S
C2007 C2006 1.363 . S
C2007 C2010 1.363 . S
N2008 C2010 1.356 . S
N2008 H2020 0.984 . S
N2008 H2021 0.985 . S
N2009 C2011 1.356 . S
N2009 H2014 0.984 . S
N2009 H2015 0.985 . S
C2010 C2004 1.379 . S
C2010 C2007 1.363 . S
C2010 N2008 1.356 . S
C2011 C2005 1.363 . S
C2011 C2006 1.379 . S
C2011 N2009 1.356 . S
N2012 C2004 1.356 . S
N2012 H2018 0.984 . S
N2012 H2019 0.984 . S
N2013 C2006 1.356 . S
N2013 H2016 0.984 . S
N2013 H2017 0.985 . S
H2014 N2009 0.984 . S
H2015 N2009 0.985 . S
H2016 N2013 0.984 . S
H2017 N2013 0.985 . S
H2018 N2012 0.984 . S
H2019 N2012 0.984 . S
H2020 N2008 0.984 . S
H2021 N2008 0.985 . S
C2022 C2023 1.363 1_545 S
C2022 C2028 1.379 . S
C2022 N2030 1.356 . S
C2023 C2022 1.363 1_565 S
C2023 C2029 1.363 . S
C2024 C2025 1.363 . S
C2024 C2029 1.379 . S
C2024 N2031 1.356 . S
C2025 C2024 1.363 . S
C2025 C2028 1.363 1_565 S
N2026 C2028 1.356 . S
N2026 H2038 0.984 . S
N2026 H2039 0.985 . S
N2027 C2029 1.356 . S
N2027 H2032 0.984 . S
N2027 H2033 0.985 . S
C2028 C2022 1.379 . S
C2028 C2025 1.363 1_545 S
C2028 N2026 1.356 . S
C2029 C2023 1.363 . S
C2029 C2024 1.379 . S
C2029 N2027 1.356 . S
N2030 C2022 1.356 . S
N2030 H2036 0.984 . S
N2030 H2037 0.984 . S
N2031 C2024 1.356 . S
N2031 H2034 0.984 . S
N2031 H2035 0.985 . S
H2032 N2027 0.984 . S
H2033 N2027 0.985 . S
H2034 N2031 0.984 . S
H2035 N2031 0.985 . S
H2036 N2030 0.984 . S
H2037 N2030 0.984 . S
H2038 N2026 0.984 . S
H2039 N2026 0.985 . S
C2040 C2041 1.363 . S
C2040 C2046 1.379 1_545 S
C2040 N2048 1.356 . S
C2041 C2040 1.363 . S
C2041 C2047 1.363 . S
C2042 C2043 1.363 . S
C2042 C2047 1.379 1_565 S
C2042 N2049 1.356 . S
C2043 C2042 1.363 . S
C2043 C2046 1.363 . S
N2044 C2046 1.356 . S
N2044 H2056 0.984 . S
N2044 H2057 0.985 . S
N2045 C2047 1.356 . S
N2045 H2050 0.984 . S
N2045 H2051 0.985 . S
C2046 C2040 1.379 1_565 S
C2046 C2043 1.363 . S
C2046 N2044 1.356 . S
C2047 C2041 1.363 . S
C2047 C2042 1.379 1_545 S
C2047 N2045 1.356 . S
N2048 C2040 1.356 . S
N2048 H2054 0.984 . S
N2048 H2055 0.984 . S
N2049 C2042 1.356 . S
N2049 H2052 0.984 . S
N2049 H2053 0.985 . S
H2050 N2045 0.984 . S
H2051 N2045 0.985 . S
H2052 N2049 0.984 . S
H2053 N2049 0.985 . S
H2054 N2048 0.984 . S
H2055 N2048 0.984 . S
H2056 N2044 0.984 . S
H2057 N2044 0.985 . S
C2058 C2059 1.363 . S
C2058 C2064 1.379 . S
C2058 N2066 1.356 . S
C2059 C2058 1.363 . S
C2059 C2065 1.363 . S
C2060 C2061 1.363 . S
C2060 C2065 1.379 . S
C2060 N2067 1.356 . S
C2061 C2060 1.363 . S
C2061 C2064 1.363 . S
N2062 C2064 1.356 . S
N2062 H2074 0.984 . S
N2062 H2075 0.985 . S
N2063 C2065 1.356 . S
N2063 H2068 0.984 . S
N2063 H2069 0.985 . S
C2064 C2058 1.379 . S
C2064 C2061 1.363 . S
C2064 N2062 1.356 . S
C2065 C2059 1.363 . S
C2065 C2060 1.379 . S
C2065 N2063 1.356 . S
N2066 C2058 1.356 . S
N2066 H2072 0.984 . S
N2066 H2073 0.984 . S
N2067 C2060 1.356 . S
N2067 H2070 0.984 . S
N2067 H2071 0.985 . S
H2068 N2063 0.984 . S
H2069 N2063 0.985 . S
H2070 N2067 0.984 . S
H2071 N2067 0.985 . S
H2072 N2066 0.984 . S
H2073 N2066 0.984 . S
H2074 N2062 0.984 . S
H2075 N2062 0.985 . S
C2076 C2077 1.363 . S
C2076 C2082 1.379 . S
C2076 N2084 1.356 . S
C2077 C2076 1.363 . S
C2077 C2083 1.363 1_554 S
C2078 C2079 1.363 . S
C2078 C2083 1.379 . S
C2078 N2085 1.356 . S
C2079 C2078 1.363 . S
C2079 C2082 1.363 1_556 S
N2080 C2082 1.356 . S
N2080 H2092 0.984 . S
N2080 H2093 0.985 . S
N2081 C2083 1.356 . S
N2081 H2086 0.984 . S
N2081 H2087 0.985 . S
C2082 C2076 1.379 . S
C2082 C2079 1.363 1_554 S
C2082 N2080 1.356 . S
C2083 C2077 1.363 1_556 S
C2083 C2078 1.379 . S
C2083 N2081 1.356 . S
N2084 C2076 1.356 . S
N2084 H2090 0.984 . S
N2084 H2091 0.984 . S
N2085 C2078 1.356 . S
N2085 H2088 0.984 . S
N2085 H2089 0.985 . S
H2086 N2081 0.984 . S
H2087 N2081 0.985 . S
H2088 N2085 0.984 . S
H2089 N2085 0.985 . S
H2090 N2084 0.984 . S
H2091 N2084 0.984 . S
H2092 N2080 0.984 . S
H2093 N2080 0.985 . S
C2094 C2095 1.363 . S
C2094 C2100 1.379 . S
C2094 N2102 1.356 . S
C2095 C2094 1.363 . S
C2095 C2101 1.363 1_554 S
C2096 C2097 1.363 1_556 S
C2096 C2101 1.379 . S
C2096 N2103 1.356 . S
C2097 C2096 1.363 1_554 S
C2097 C2100 1.363 . S
N2098 C2100 1.356 . S
N2098 H2110 0.984 . S
N2098 H2111 0.985 . S
N2099 C2101 1.356 . S
N2099 H2104 0.984 . S
N2099 H2105 0.985 . S
C2100 C2094 1.379 . S
C2100 C2097 1.363 . S
C2100 N2098 1.356 . S
C2101 C2095 1.363 1_556 S
C2101 C2096 1.379 . S
C2101 N2099 1.356 . S
N2102 C2094 1.356 . S
N2102 H2108 0.984 . S
N2102 H2109 0.984 . S
N2103 C2096 1.356 . S
N2103 H2106 0.984 . S
N2103 H2107 0.985 . S
H2104 N2099 0.984 . S
H2105 N2099 0.985 . S
H2106 N2103 0.984 . S
H2107 N2103 0.985 . S
H2108 N2102 0.984 . S
H2109 N2102 0.984 . S
H2110 N2098 0.984 . S
H2111 N2098 0.985 . S
C2112 C2113 1.363 . S
C2112 C2118 1.379 . S
C2112 N2120 1.356 . S
C2113 C2112 1.363 . S
C2113 C2119 1.363 . S
C2114 C2115 1.363 . S
C2114 C2119 1.379 . S
C2114 N2121 1.356 . S
C2115 C2114 1.363 . S
C2115 C2118 1.363 . S
N2116 C2118 1.356 . S
N2116 H2128 0.984 . S
N2116 H2129 0.985 . S
N2117 C2119 1.356 . S
N2117 H2122 0.984 . S
N2117 H2123 0.985 . S
C2118 C2112 1.379 . S
C2118 C2115 1.363 . S
C2118 N2116 1.356 . S
C2119 C2113 1.363 . S
C2119 C2114 1.379 . S
C2119 N2117 1.356 . S
N2120 C2112 1.356 . S
N2120 H2126 0.984 . S
N2120 H2127 0.984 . S
N2121 C2114 1.356 . S
N2121 H2124 0.984 . S
N2121 H2125 0.985 . S
H2122 N2117 0.984 . S
H2123 N2117 0.985 . S
H2124 N2121 0.984 . S
H2125 N2121 0.985 . S
H2126 N2120 0.984 . S
H2127 N2120 0.984 . S
H2128 N2116 0.984 . S
H2129 N2116 0.985 . S
C2130 C2131 1.363 . S
C2130 C2136 1.379 . S
C2130 N2138 1.356 . S
C2131 C2130 1.363 . S
C2131 C2137 1.363 1_556 S
C2132 C2133 1.363 1_554 S
C2132 C2137 1.379 . S
C2132 N2139 1.356 . S
C2133 C2132 1.363 1_556 S
C2133 C2136 1.363 . S
N2134 C2136 1.356 . S
N2134 H2146 0.984 . S
N2134 H2147 0.985 . S
N2135 C2137 1.356 . S
N2135 H2140 0.984 . S
N2135 H2141 0.985 . S
C2136 C2130 1.379 . S
C2136 C2133 1.363 . S
C2136 N2134 1.356 . S
C2137 C2131 1.363 1_554 S
C2137 C2132 1.379 . S
C2137 N2135 1.356 . S
N2138 C2130 1.356 . S
N2138 H2144 0.984 . S
N2138 H2145 0.984 . S
N2139 C2132 1.356 . S
N2139 H2142 0.984 . S
N2139 H2143 0.985 . S
H2140 N2135 0.984 . S
H2141 N2135 0.985 . S
H2142 N2139 0.984 . S
H2143 N2139 0.985 . S
H2144 N2138 0.984 . S
H2145 N2138 0.984 . S
H2146 N2134 0.984 . S
H2147 N2134 0.985 . S
C2148 C2149 1.363 . S
C2148 C2154 1.379 . S
C2148 N2156 1.356 . S
C2149 C2148 1.363 . S
C2149 C2155 1.363 . S
C2150 C2151 1.363 . S
C2150 C2155 1.379 . S
C2150 N2157 1.356 . S
C2151 C2150 1.363 . S
C2151 C2154 1.363 . S
N2152 C2154 1.356 . S
N2152 H2164 0.984 . S
N2152 H2165 0.985 . S
N2153 C2155 1.356 . S
N2153 H2158 0.984 . S
N2153 H2159 0.985 . S
C2154 C2148 1.379 . S
C2154 C2151 1.363 . S
C2154 N2152 1.356 . S
C2155 C2149 1.363 . S
C2155 C2150 1.379 . S
C2155 N2153 1.356 . S
N2156 C2148 1.356 . S
N2156 H2162 0.984 . S
N2156 H2163 0.984 . S
N2157 C2150 1.356 . S
N2157 H2160 0.984 . S
N2157 H2161 0.985 . S
H2158 N2153 0.984 . S
H2159 N2153 0.985 . S
H2160 N2157 0.984 . S
H2161 N2157 0.985 . S
H2162 N2156 0.984 . S
H2163 N2156 0.984 . S
H2164 N2152 0.984 . S
H2165 N2152 0.985 . S
C2166 C2167 1.363 . S
C2166 C2172 1.379 . S
C2166 N2174 1.356 . S
C2167 C2166 1.363 . S
C2167 C2173 1.363 . S
C2168 C2169 1.363 . S
C2168 C2173 1.379 . S
C2168 N2175 1.356 . S
C2169 C2168 1.363 . S
C2169 C2172 1.363 . S
N2170 C2172 1.356 . S
N2170 H2182 0.984 . S
N2170 H2183 0.985 . S
N2171 C2173 1.356 . S
N2171 H2176 0.984 . S
N2171 H2177 0.985 . S
C2172 C2166 1.379 . S
C2172 C2169 1.363 . S
C2172 N2170 1.356 . S
C2173 C2167 1.363 . S
C2173 C2168 1.379 . S
C2173 N2171 1.356 . S
N2174 C2166 1.356 . S
N2174 H2180 0.984 . S
N2174 H2181 0.984 . S
N2175 C2168 1.356 . S
N2175 H2178 0.984 . S
N2175 H2179 0.985 . S
H2176 N2171 0.984 . S
H2177 N2171 0.985 . S
H2178 N2175 0.984 . S
H2179 N2175 0.985 . S
H2180 N2174 0.984 . S
H2181 N2174 0.984 . S
H2182 N2170 0.984 . S
H2183 N2170 0.985 . S
C2184 C2185 1.363 . S
C2184 C2190 1.379 . S
C2184 N2192 1.356 1_455 S
C2185 C2184 1.363 . S
C2185 C2191 1.363 . S
C2186 C2187 1.363 . S
C2186 C2191 1.379 . S
C2186 N2193 1.356 . S
C2187 C2186 1.363 . S
C2187 C2190 1.363 . S
N2188 C2190 1.356 1_655 S
N2188 H2200 0.984 . S
N2188 H2201 0.985 . S
N2189 C2191 1.356 . S
N2189 H2194 0.984 . S
N2189 H2195 0.985 . S
C2190 C2184 1.379 . S
C2190 C2187 1.363 . S
C2190 N2188 1.356 1_455 S
C2191 C2185 1.363 . S
C2191 C2186 1.379 . S
C2191 N2189 1.356 . S
N2192 C2184 1.356 1_655 S
N2192 H2198 0.984 . S
N2192 H2199 0.984 . S
N2193 C2186 1.356 . S
N2193 H2196 0.984 . S
N2193 H2197 0.985 . S
H2194 N2189 0.984 . S
H2195 N2189 0.985 . S
H2196 N2193 0.984 . S
H2197 N2193 0.985 . S
H2198 N2192 0.984 . S
H2199 N2192 0.984 . S
H2200 N2188 0.984 . S
H2201 N2188 0.985 . S
C2202 C2203 1.363 . S
C2202 C2208 1.379 1_554 S
C2202 N2210 1.356 . S
C2203 C2202 1.363 . S
C2203 C2209 1.363 . S
C2204 C2205 1.363 . S
C2204 C2209 1.379 1_556 S
C2204 N2211 1.356 . S
C2205 C2204 1.363 . S
C2205 C2208 1.363 . S
N2206 C2208 1.356 . S
N2206 H2218 0.984 . S
N2206 H2219 0.985 . S
N2207 C2209 1.356 . S
N2207 H2212 0.984 . S
N2207 H2213 0.985 . S
C2208 C2202 1.379 1_556 S
C2208 C2205 1.363 . S
C2208 N2206 1.356 . S
C2209 C2203 1.363 . S
C2209 C2204 1.379 1_554 S
C2209 N2207 1.356 . S
N2210 C2202 1.356 . S
N2210 H2216 0.984 . S
N2210 H2217 0.984 . S
N2211 C2204 1.356 . S
N2211 H2214 0.984 . S
N2211 H2215 0.985 . S
H2212 N2207 0.984 . S
H2213 N2207 0.985 . S
H2214 N2211 0.984 . S
H2215 N2211 0.985 . S
H2216 N2210 0.984 . S
H2217 N2210 0.984 . S
H2218 N2206 0.984 . S
H2219 N2206 0.985 . S
C2220 C2221 1.363 . S
C2220 C2226 1.379 . S
C2220 N2228 1.356 1_655 S
C2221 C2220 1.363 . S
C2221 C2227 1.363 . S
C2222 C2223 1.363 . S
C2222 C2227 1.379 . S
C2222 N2229 1.356 . S
C2223 C2222 1.363 . S
C2223 C2226 1.363 . S
N2224 C2226 1.356 1_455 S
N2224 H2236 0.984 . S
N2224 H2237 0.985 . S
N2225 C2227 1.356 . S
N2225 H2230 0.984 . S
N2225 H2231 0.985 . S
C2226 C2220 1.379 . S
C2226 C2223 1.363 . S
C2226 N2224 1.356 1_655 S
C2227 C2221 1.363 . S
C2227 C2222 1.379 . S
C2227 N2225 1.356 . S
N2228 C2220 1.356 1_455 S
N2228 H2234 0.984 . S
N2228 H2235 0.985 . S
N2229 C2222 1.356 . S
N2229 H2232 0.984 . S
N2229 H2233 0.985 . S
H2230 N2225 0.984 . S
H2231 N2225 0.985 . S
H2232 N2229 0.984 . S
H2233 N2229 0.985 . S
H2234 N2228 0.984 . S
H2235 N2228 0.985 . S
H2236 N2224 0.984 . S
H2237 N2224 0.985 . S
C2238 C2239 1.363 1_455 S
C2238 C2244 1.379 . S
C2238 N2246 1.356 . S
C2239 C2238 1.363 1_655 S
C2239 C2245 1.363 . S
C2240 C2241 1.363 1_655 S
C2240 C2245 1.379 . S
C2240 N2247 1.356 . S
C2241 C2240 1.363 1_455 S
C2241 C2244 1.363 . S
N2242 C2244 1.356 . S
N2242 H2254 0.984 . S
N2242 H2255 0.985 . S
N2243 C2245 1.356 . S
N2243 H2248 0.984 . S
N2243 H2249 0.985 . S
C2244 C2238 1.379 . S
C2244 C2241 1.363 . S
C2244 N2242 1.356 . S
C2245 C2239 1.363 . S
C2245 C2240 1.379 . S
C2245 N2243 1.356 . S
N2246 C2238 1.356 . S
N2246 H2252 0.984 . S
N2246 H2253 0.984 . S
N2247 C2240 1.356 . S
N2247 H2250 0.984 . S
N2247 H2251 0.985 . S
H2248 N2243 0.984 . S
H2249 N2243 0.985 . S
H2250 N2247 0.984 . S
H2251 N2247 0.985 . S
H2252 N2246 0.984 . S
H2253 N2246 0.984 . S
H2254 N2242 0.984 . S
H2255 N2242 0.985 . S
C2256 C2257 1.363 . S
C2256 C2262 1.379 . S
C2256 N2264 1.356 . S
C2257 C2256 1.363 . S
C2257 C2263 1.363 . S
C2258 C2259 1.363 . S
C2258 C2263 1.379 . S
C2258 N2265 1.356 . S
C2259 C2258 1.363 . S
C2259 C2262 1.363 . S
N2260 C2262 1.356 . S
N2260 H2272 0.984 . S
N2260 H2273 0.985 . S
N2261 C2263 1.356 . S
N2261 H2266 0.984 . S
N2261 H2267 0.985 . S
C2262 C2256 1.379 . S
C2262 C2259 1.363 . S
C2262 N2260 1.356 . S
C2263 C2257 1.363 . S
C2263 C2258 1.379 . S
C2263 N2261 1.356 . S
N2264 C2256 1.356 . S
N2264 H2270 0.984 . S
N2264 H2271 0.984 . S
N2265 C2258 1.356 . S
N2265 H2268 0.984 . S
N2265 H2269 0.985 . S
H2266 N2261 0.984 . S
H2267 N2261 0.985 . S
H2268 N2265 0.984 . S
H2269 N2265 0.985 . S
H2270 N2264 0.984 . S
H2271 N2264 0.984 . S
H2272 N2260 0.984 . S
H2273 N2260 0.985 . S
C2274 C2275 1.363 . S
C2274 C2280 1.379 . S
C2274 N2282 1.356 . S
C2275 C2274 1.363 . S
C2275 C2281 1.363 . S
C2276 C2277 1.363 . S
C2276 C2281 1.379 . S
C2276 N2283 1.356 . S
C2277 C2276 1.363 . S
C2277 C2280 1.363 . S
N2278 C2280 1.356 . S
N2278 H2290 0.984 . S
N2278 H2291 0.985 . S
N2279 C2281 1.356 . S
N2279 H2284 0.984 . S
N2279 H2285 0.985 . S
C2280 C2274 1.379 . S
C2280 C2277 1.363 . S
C2280 N2278 1.356 . S
C2281 C2275 1.363 . S
C2281 C2276 1.379 . S
C2281 N2279 1.356 . S
N2282 C2274 1.356 . S
N2282 H2288 0.984 . S
N2282 H2289 0.984 . S
N2283 C2276 1.356 . S
N2283 H2286 0.984 . S
N2283 H2287 0.985 . S
H2284 N2279 0.984 . S
H2285 N2279 0.985 . S
H2286 N2283 0.984 . S
H2287 N2283 0.985 . S
H2288 N2282 0.984 . S
H2289 N2282 0.984 . S
H2290 N2278 0.984 . S
H2291 N2278 0.985 . S
C2292 C2293 1.363 . S
C2292 C2298 1.379 . S
C2292 N2300 1.356 . S
C2293 C2292 1.363 . S
C2293 C2299 1.363 . S
C2294 C2295 1.363 . S
C2294 C2299 1.379 . S
C2294 N2301 1.356 . S
C2295 C2294 1.363 . S
C2295 C2298 1.363 . S
N2296 C2298 1.356 . S
N2296 H2308 0.984 . S
N2296 H2309 0.985 . S
N2297 C2299 1.356 . S
N2297 H2302 0.984 . S
N2297 H2303 0.985 . S
C2298 C2292 1.379 . S
C2298 C2295 1.363 . S
C2298 N2296 1.356 . S
C2299 C2293 1.363 . S
C2299 C2294 1.379 . S
C2299 N2297 1.356 . S
N2300 C2292 1.356 . S
N2300 H2306 0.984 . S
N2300 H2307 0.984 . S
N2301 C2294 1.356 . S
N2301 H2304 0.984 . S
N2301 H2305 0.985 . S
H2302 N2297 0.984 . S
H2303 N2297 0.985 . S
H2304 N2301 0.984 . S
H2305 N2301 0.985 . S
H2306 N2300 0.984 . S
H2307 N2300 0.984 . S
H2308 N2296 0.984 . S
H2309 N2296 0.985 . S
C2310 C2311 1.363 1_545 S
C2310 C2316 1.379 . S
C2310 N2318 1.356 . S
C2311 C2310 1.363 1_565 S
C2311 C2317 1.363 . S
C2312 C2313 1.363 1_565 S
C2312 C2317 1.379 . S
C2312 N2319 1.356 . S
C2313 C2312 1.363 1_545 S
C2313 C2316 1.363 . S
N2314 C2316 1.356 . S
N2314 H2326 0.984 . S
N2314 H2327 0.985 . S
N2315 C2317 1.356 . S
N2315 H2320 0.984 . S
N2315 H2321 0.985 . S
C2316 C2310 1.379 . S
C2316 C2313 1.363 . S
C2316 N2314 1.356 . S
C2317 C2311 1.363 . S
C2317 C2312 1.379 . S
C2317 N2315 1.356 . S
N2318 C2310 1.356 . S
N2318 H2324 0.984 . S
N2318 H2325 0.984 . S
N2319 C2312 1.356 . S
N2319 H2322 0.984 . S
N2319 H2323 0.985 . S
H2320 N2315 0.984 . S
H2321 N2315 0.985 . S
H2322 N2319 0.984 . S
H2323 N2319 0.985 . S
H2324 N2318 0.984 . S
H2325 N2318 0.984 . S
H2326 N2314 0.984 . S
H2327 N2314 0.985 . S
C2328 C2329 1.363 . S
C2328 C2334 1.379 1_455 S
C2328 N2336 1.356 . S
C2329 C2328 1.363 . S
C2329 C2335 1.363 . S
C2330 C2331 1.363 . S
C2330 C2335 1.379 1_655 S
C2330 N2337 1.356 . S
C2331 C2330 1.363 . S
C2331 C2334 1.363 . S
N2332 C2334 1.356 . S
N2332 H2344 0.984 . S
N2332 H2345 0.985 . S
N2333 C2335 1.356 . S
N2333 H2338 0.984 . S
N2333 H2339 0.985 . S
C2334 C2328 1.379 1_655 S
C2334 C2331 1.363 . S
C2334 N2332 1.356 . S
C2335 C2329 1.363 . S
C2335 C2330 1.379 1_455 S
C2335 N2333 1.356 . S
N2336 C2328 1.356 . S
N2336 H2342 0.984 . S
N2336 H2343 0.984 . S
N2337 C2330 1.356 . S
N2337 H2340 0.984 . S
N2337 H2341 0.985 . S
H2338 N2333 0.984 . S
H2339 N2333 0.985 . S
H2340 N2337 0.984 . S
H2341 N2337 0.985 . S
H2342 N2336 0.984 . S
H2343 N2336 0.984 . S
H2344 N2332 0.984 . S
H2345 N2332 0.985 . S
C2346 C2347 1.363 . S
C2346 C2352 1.379 1_455 S
C2346 N2354 1.356 . S
C2347 C2346 1.363 . S
C2347 C2353 1.363 1_565 S
C2348 C2349 1.363 . S
C2348 C2353 1.379 1_655 S
C2348 N2355 1.356 . S
C2349 C2348 1.363 . S
C2349 C2352 1.363 1_545 S
N2350 C2352 1.356 . S
N2350 H2362 0.984 . S
N2350 H2363 0.985 . S
N2351 C2353 1.356 . S
N2351 H2356 0.984 . S
N2351 H2357 0.985 . S
C2352 C2346 1.379 1_655 S
C2352 C2349 1.363 1_565 S
C2352 N2350 1.356 . S
C2353 C2347 1.363 1_545 S
C2353 C2348 1.379 1_455 S
C2353 N2351 1.356 . S
N2354 C2346 1.356 . S
N2354 H2360 0.984 . S
N2354 H2361 0.984 . S
N2355 C2348 1.356 . S
N2355 H2358 0.984 . S
N2355 H2359 0.985 . S
H2356 N2351 0.984 . S
H2357 N2351 0.985 . S
H2358 N2355 0.984 . S
H2359 N2355 0.985 . S
H2360 N2354 0.984 . S
H2361 N2354 0.984 . S
H2362 N2350 0.984 . S
H2363 N2350 0.985 . S
C2364 C2365 1.363 . S
C2364 C2370 1.379 1_556 S
C2364 N2372 1.356 . S
C2365 C2364 1.363 . S
C2365 C2371 1.363 1_655 S
C2366 C2367 1.363 . S
C2366 C2371 1.379 1_554 S
C2366 N2373 1.356 . S
C2367 C2366 1.363 . S
C2367 C2370 1.363 1_455 S
N2368 C2370 1.356 . S
N2368 H2380 0.984 . S
N2368 H2381 0.985 . S
N2369 C2371 1.356 . S
N2369 H2374 0.984 . S
N2369 H2375 0.985 . S
C2370 C2364 1.379 1_554 S
C2370 C2367 1.363 1_655 S
C2370 N2368 1.356 . S
C2371 C2365 1.363 1_455 S
C2371 C2366 1.379 1_556 S
C2371 N2369 1.356 . S
N2372 C2364 1.356 . S
N2372 H2378 0.984 . S
N2372 H2379 0.984 . S
N2373 C2366 1.356 . S
N2373 H2376 0.984 . S
N2373 H2377 0.985 . S
H2374 N2369 0.984 . S
H2375 N2369 0.985 . S
H2376 N2373 0.984 . S
H2377 N2373 0.985 . S
H2378 N2372 0.984 . S
H2379 N2372 0.984 . S
H2380 N2368 0.984 . S
H2381 N2368 0.985 . S
C2382 C2383 1.363 1_455 S
C2382 C2388 1.379 . S
C2382 N2390 1.356 . S
C2383 C2382 1.363 1_655 S
C2383 C2389 1.363 . S
C2384 C2385 1.363 1_655 S
C2384 C2389 1.379 . S
C2384 N2391 1.356 . S
C2385 C2384 1.363 1_455 S
C2385 C2388 1.363 . S
N2386 C2388 1.356 . S
N2386 H2398 0.984 . S
N2386 H2399 0.985 . S
N2387 C2389 1.356 . S
N2387 H2392 0.984 . S
N2387 H2393 0.985 . S
C2388 C2382 1.379 . S
C2388 C2385 1.363 . S
C2388 N2386 1.356 . S
C2389 C2383 1.363 . S
C2389 C2384 1.379 . S
C2389 N2387 1.356 . S
N2390 C2382 1.356 . S
N2390 H2396 0.984 . S
N2390 H2397 0.984 . S
N2391 C2384 1.356 . S
N2391 H2394 0.984 . S
N2391 H2395 0.985 . S
H2392 N2387 0.984 . S
H2393 N2387 0.985 . S
H2394 N2391 0.984 . S
H2395 N2391 0.985 . S
H2396 N2390 0.984 . S
H2397 N2390 0.984 . S
H2398 N2386 0.984 . S
H2399 N2386 0.985 . S
C673 C386 1.068 . S
C675 C8 1.068 . S
C691 C23 1.068 . S
C693 C541 1.068 . S
C709 C36 1.068 . S
C711 C358 1.068 . S
C727 C569 1.068 . S
C729 C51 1.068 . S
C745 C401 1.068 . S
C747 C65 1.068 . S
C763 C78 1.068 . S
C765 C316 1.068 . S
C781 C429 1.068 . S
C783 C93 1.068 . S
C799 C106 1.068 . S
C801 C288 1.068 . S
C817 C498 1.068 . S
C819 C107 1.068 . S
C835 C471 1.068 . S
C837 C64 1.068 . S
C853 C79 1.068 . S
C855 C596 1.068 . S
C871 C484 1.068 . S
C873 C92 1.068 . S
C889 C120 1.068 . S
C891 C190 1.068 . S
C907 C205 1.068 . S
C909 C135 1.068 . S
C925 C219 1.068 . S
C927 C148 1.068 . S
C943 C177 1.068 . S
C945 C163 1.068 . S
C961 C191 1.068 . S
C963 C344 1.068 . S
C979 C204 1.068 . S
C981 C555 1.068 . S
C997 C372 1.068 . S
C999 C218 1.068 . S
C1015 C387 1.068 . S
C1017 C232 1.068 . S
C1033 C247 1.068 . S
C1035 C415 1.068 . S
C1051 C261 1.068 . S
C1053 C50 1.068 . S
C1069 C274 1.068 . S
C1071 C22 1.068 . S
C1087 C625 1.068 . S
C1089 C303 1.068 . S
C1105 C653 1.068 . S
C1107 C331 1.068 . S
C1123 C345 1.068 . S
C1125 C121 1.068 . S
C1141 C373 1.068 . S
C1143 C149 1.068 . S
C1159 C359 1.068 . S
C1161 C610 1.068 . S
C1177 C470 1.068 . S
C1179 C400 1.068 . S
C1195 C485 1.068 . S
C1197 C428 1.068 . S
C1213 C457 1.068 . S
C1215 C443 1.068 . S
C1231 C246 1.068 . S
C1233 C639 1.068 . S
C1249 C513 1.068 . S
C1251 C330 1.068 . S
C1267 C302 1.068 . S
C1269 C526 1.068 . S
C1285 C666 1.068 . S
C1287 C442 1.068 . S
C1303 C414 1.068 . S
C1305 C638 1.068 . S
C1321 C134 1.068 . S
C1323 C554 1.068 . S
C1339 C162 1.068 . S
C1341 C582 1.068 . S
C1357 C176 1.068 . S
C1359 C583 1.068 . S
C1375 C275 1.068 . S
C1377 C540 1.068 . S
C1393 C260 1.068 . S
C1395 C568 1.068 . S
C1411 C317 1.068 . S
C1413 C597 1.068 . S
C1429 C289 1.068 . S
C1431 C499 1.068 . S
C1447 C624 1.068 . S
C1449 C527 1.068 . S
C1465 C652 1.068 . S
C1467 C512 1.068 . S
C1483 C667 1.068 . S
C1485 C456 1.068 . S
C1501 C611 1.068 . S
C1503 C37 1.068 . S
C1519 C233 1.068 . S
C1521 C9 1.068 . S
C1537 C6 1.602 . S
C1539 C651 1.602 . S
C1555 C21 1.602 . S
C1557 C664 1.602 . S
C1573 C34 1.602 . S
C1575 C623 1.602 . S
C1591 C49 1.602 . S
C1593 C636 1.602 . S
C1609 C63 1.602 . S
C1611 C132 1.602 . S
C1627 C76 1.602 . S
C1629 C147 1.602 . S
C1645 C91 1.602 . S
C1647 C160 1.602 . S
C1663 C104 1.602 . S
C1665 C119 1.602 . S
C1681 C105 1.602 . S
C1683 C553 1.602 . S
C1699 C62 1.602 . S
C1701 C370 1.602 . S
C1717 C77 1.602 . S
C1719 C581 1.602 . S
C1735 C90 1.602 . S
C1737 C342 1.602 . S
C1753 C118 1.602 . S
C1755 C328 1.602 . S
C1771 C133 1.602 . S
C1773 C441 1.602 . S
C1789 C146 1.602 . S
C1791 C300 1.602 . S
C1807 C413 1.602 . S
C1809 C161 1.602 . S
C1825 C175 1.602 . S
C1827 C273 1.602 . S
C1843 C189 1.602 . S
C1845 C231 1.602 . S
C1861 C272 1.602 . S
C1863 C202 1.602 . S
C1879 C609 1.602 . S
C1881 C216 1.602 . S
C1897 C217 1.602 . S
C1899 C230 1.602 . S
C1915 C510 1.602 . S
C1917 C245 1.602 . S
C1933 C174 1.602 . S
C1935 C259 1.602 . S
C1951 C567 1.602 . S
C1953 C286 1.602 . S
C1969 C580 1.602 . S
C1971 C301 1.602 . S
C1987 C314 1.602 . S
C1989 C539 1.602 . S
C2005 C552 1.602 . S
C2007 C329 1.602 . S
C2023 C343 1.602 . S
C2025 C412 1.602 . S
C2041 C427 1.602 . S
C2043 C356 1.602 . S
C2059 C371 1.602 . S
C2061 C440 1.602 . S
C2077 C399 1.602 . S
C2079 C384 1.602 . S
C2095 C385 1.602 . S
C2097 C637 1.602 . S
C2113 C665 1.602 . S
C2115 C357 1.602 . S
C2131 C398 1.602 . S
C2133 C48 1.602 . S
C2149 C20 1.602 . S
C2151 C426 1.602 . S
C2167 C525 1.602 . S
C2169 C455 1.602 . S
C2185 C497 1.602 . S
C2187 C469 1.602 . S
C2203 C244 1.602 . S
C2205 C524 1.602 . S
C2221 C482 1.602 . S
C2223 C595 1.602 . S
C2239 C496 1.602 . S
C2241 C483 1.602 . S
C2257 C203 1.602 . S
C2259 C258 1.602 . S
C2275 C454 1.602 . S
C2277 C511 1.602 . S
C2293 C650 1.602 . S
C2295 C538 1.602 . S
C2311 C566 1.602 . S
C2313 C622 1.602 . S
C2329 C7 1.602 . S
C2331 C315 1.602 . S
C2347 C287 1.602 . S
C2349 C35 1.602 . S
C2365 C468 1.602 . S
C2367 C594 1.602 . S
C2383 C188 1.602 . S
C2385 C608 1.602 . S
