# Generated by pormake.
# Topology lcy, (6)-cn, num edge types: 1
# Building blocks:
#     Node 0, Type 0, BuildingBlock: FUNLAD_clean_sbu_0, # of connection points: 6
#     Node 1, Type 0, BuildingBlock: FUNLAD_clean_sbu_0, # of connection points: 6
#     Node 2, Type 0, BuildingBlock: FUNLAD_clean_sbu_0, # of connection points: 6
#     Node 3, Type 0, BuildingBlock: FUNLAD_clean_sbu_0, # of connection points: 6
#     Edge 4, Type (0, 0), BuildingBlock: KIFKEQ_clean_linker_1, # of connection points: 2
#     Edge 5, Type (0, 0), BuildingBlock: KIFKEQ_clean_linker_1, # of connection points: 2
#     Edge 6, Type (0, 0), BuildingBlock: KIFKEQ_clean_linker_1, # of connection points: 2
#     Edge 7, Type (0, 0), BuildingBlock: KIFKEQ_clean_linker_1, # of connection points: 2
#     Edge 8, Type (0, 0), BuildingBlock: KIFKEQ_clean_linker_1, # of connection points: 2
#     Edge 9, Type (0, 0), BuildingBlock: KIFKEQ_clean_linker_1, # of connection points: 2
#     Edge 10, Type (0, 0), BuildingBlock: KIFKEQ_clean_linker_1, # of connection points: 2
#     Edge 11, Type (0, 0), BuildingBlock: KIFKEQ_clean_linker_1, # of connection points: 2
#     Edge 12, Type (0, 0), BuildingBlock: KIFKEQ_clean_linker_1, # of connection points: 2
#     Edge 13, Type (0, 0), BuildingBlock: KIFKEQ_clean_linker_1, # of connection points: 2
#     Edge 14, Type (0, 0), BuildingBlock: KIFKEQ_clean_linker_1, # of connection points: 2
#     Edge 15, Type (0, 0), BuildingBlock: KIFKEQ_clean_linker_1, # of connection points: 2
# Relax obj value: 0.642
# Max RMSD: 0.351
# Mean RMSD: 0.318
data_MOF--net-lcy--node1-FUNLAD_clean_sbu_0--edge1-KIFKEQ_clean_linker_1
_symmetry_space_group_name_H-M    P1
_symmetry_Int_Tables_number       1
_symmetry_cell_setting            triclinic
loop_
_symmetry_equiv_pos_as_xyz
'x, y, z'
_cell_length_a     28.067452
_cell_length_b     28.164958
_cell_length_c     27.033756
_cell_angle_alpha  80.756499
_cell_angle_beta   80.821367
_cell_angle_gamma 71.678959
loop_
_atom_site_label
_atom_site_type_symbol
_atom_site_fract_x
_atom_site_fract_y
_atom_site_fract_z
_atom_type_partial_charge
C0 C 0.30575 0.46369 0.34297 0.0
N1 N 0.43595 0.49137 0.37484 0.0
C2 C 0.44552 0.50794 0.32525 0.0
C3 C 0.46892 0.54612 0.31116 0.0
C4 C 0.48213 0.56777 0.3485 0.0
C5 C 0.47319 0.54852 0.39918 0.0
C6 C 0.45032 0.51019 0.41146 0.0
Zn7 Zn 0.39427 0.44193 0.39917 0.0
C8 C 0.32087 0.47467 0.49095 0.0
N9 N 0.30632 0.34154 0.45647 0.0
C10 C 0.28632 0.32426 0.42283 0.0
C11 C 0.29191 0.33432 0.50692 0.0
C12 C 0.25353 0.31208 0.52495 0.0
C13 C 0.23035 0.29649 0.49078 0.0
C14 C 0.24833 0.30114 0.43933 0.0
Zn15 Zn 0.3505 0.38798 0.42994 0.0
O16 O 0.34178 0.48059 0.34702 0.0
C17 C 0.42326 0.35041 0.34348 0.0
O18 O 0.29828 0.42733 0.37479 0.0
H19 H 0.30837 0.34811 0.53307 0.0
H20 H 0.43385 0.49251 0.2967 0.0
H21 H 0.29793 0.33071 0.38285 0.0
O22 O 0.43573 0.39057 0.34257 0.0
O23 O 0.38941 0.34105 0.37705 0.0
H24 H 0.44247 0.49671 0.45073 0.0
O25 O 0.40648 0.34798 0.4818 0.0
O26 O 0.44665 0.40313 0.44884 0.0
O27 O 0.31081 0.43525 0.4851 0.0
O28 O 0.35279 0.48962 0.45834 0.0
C29 C 0.4439 0.36509 0.47995 0.0
H30 H 0.4758 0.559 0.2715 0.0
H31 H 0.48174 0.56423 0.4295 0.0
H32 H 0.24095 0.30859 0.56502 0.0
H33 H 0.23116 0.2898 0.41185 0.0
C34 C 0.77414 0.20149 0.626 0.0
N35 N 0.87814 0.0607 0.59984 0.0
C36 C 0.8912 0.01073 0.61729 0.0
C37 C 0.9118 0.97472 0.58374 0.0
C38 C 0.91919 0.99053 0.53199 0.0
C39 C 0.90368 0.04228 0.515 0.0
C40 C 0.88312 0.0769 0.54974 0.0
Zn41 Zn 0.86198 0.11182 0.64926 0.0
C42 C 0.92356 0.17996 0.62365 0.0
N43 N 0.83254 0.21285 0.75737 0.0
C44 C 0.78964 0.25179 0.76488 0.0
C45 C 0.87413 0.20794 0.77995 0.0
C46 C 0.87418 0.2432 0.81042 0.0
C47 C 0.8316 0.285 0.81678 0.0
C48 C 0.78857 0.28897 0.79421 0.0
Zn49 Zn 0.84204 0.16375 0.70569 0.0
O50 O 0.79871 0.1579 0.61379 0.0
C51 C 0.78359 0.09538 0.73485 0.0
O52 O 0.78813 0.21795 0.66085 0.0
H53 H 0.90859 0.17815 0.77225 0.0
H54 H 0.88736 0.99879 0.65741 0.0
H55 H 0.75706 0.25534 0.74638 0.0
O56 O 0.8139 0.07374 0.69921 0.0
O57 O 0.78424 0.1381 0.74334 0.0
H58 H 0.87256 0.11678 0.53684 0.0
O59 O 0.89296 0.10423 0.75116 0.0
O60 O 0.92383 0.06547 0.68422 0.0
O61 O 0.90197 0.19032 0.66717 0.0
O62 O 0.91073 0.14957 0.60238 0.0
C63 C 0.92447 0.06763 0.73036 0.0
H64 H 0.92273 0.93511 0.59813 0.0
H65 H 0.90713 0.05593 0.47518 0.0
H66 H 0.90858 0.23957 0.82603 0.0
H67 H 0.75524 0.32115 0.79792 0.0
C68 C 0.1866 0.56429 0.99612 0.0
N69 N 0.20245 0.7028 0.92467 0.0
C70 C 0.20154 0.71705 0.97067 0.0
C71 C 0.22867 0.74934 0.97612 0.0
C72 C 0.25779 0.76629 0.93405 0.0
C73 C 0.25875 0.7506 0.88714 0.0
C74 C 0.23015 0.71905 0.88315 0.0
Zn75 Zn 0.15988 0.65736 0.91912 0.0
C76 C 0.19842 0.59054 0.84 0.0
N77 N 0.06571 0.56642 0.91814 0.0
C78 C 0.05105 0.53563 0.95771 0.0
C79 C 0.04951 0.57146 0.87226 0.0
C80 C 0.01679 0.54566 0.86488 0.0
C81 C 1.0012 0.51314 0.90472 0.0
C82 C 0.0189 0.50825 0.95172 0.0
Zn83 Zn 0.11083 0.60895 0.92495 0.0
O84 O 0.19596 0.60524 0.97746 0.0
C85 C 0.06446 0.67766 0.99673 0.0
O86 O 0.15427 0.55115 0.9775 0.0
H87 H 0.06169 0.59591 0.84118 0.0
H88 H 0.17979 0.7033 1.00331 0.0
H89 H 0.06422 0.53232 0.99395 0.0
O90 O 0.09966 0.69619 0.97503 0.0
O91 O 0.06336 0.63631 0.9854 0.0
H92 H 0.23 0.70768 0.84684 0.0
O93 O 0.06559 0.67211 0.87711 0.0
O94 O 0.12482 0.70959 0.86367 0.0
O95 O 0.15835 0.58047 0.86095 0.0
O96 O 0.21449 0.61979 0.85996 0.0
C97 C 0.08196 0.70867 0.85588 0.0
H98 H 0.22772 0.76018 0.01304 0.0
H99 H 0.28092 0.76305 0.85394 0.0
H100 H 0.00352 0.55172 0.82825 0.0
H101 H 0.0086 0.48316 0.9834 0.0
C102 C 0.57901 0.02151 0.20272 0.0
N103 N 0.72404 0.92729 0.22912 0.0
C104 C 0.74883 0.96261 0.21506 0.0
C105 C 0.79363 0.9571 0.23436 0.0
C106 C 0.8122 0.91595 0.27032 0.0
C107 C 0.78476 0.88095 0.28525 0.0
C108 C 0.74121 0.88689 0.26348 0.0
Zn109 Zn 0.66713 0.92894 0.19036 0.0
C110 C 0.59954 0.87363 0.23983 0.0
N111 N 0.55888 0.93477 0.09724 0.0
C112 C 0.52132 0.97613 0.08172 0.0
C113 C 0.56247 0.88823 0.08617 0.0
C114 C 0.5278 0.88186 0.05828 0.0
C115 C 0.48834 0.92354 0.04268 0.0
C116 C 0.48492 0.97121 0.05463 0.0
Zn117 Zn 0.61095 0.9386 0.14006 0.0
O118 O 0.62364 0.99874 0.21336 0.0
C119 C 0.67759 0.98883 0.08569 0.0
O120 O 0.55907 1.00194 0.17513 0.0
H121 H 0.5917 0.85563 0.09983 0.0
H122 H 0.73474 0.99454 0.18774 0.0
H123 H 0.51912 0.01278 0.09094 0.0
O124 O 0.70128 0.96594 0.12316 0.0
O125 O 0.63294 0.98826 0.08515 0.0
H126 H 0.72184 0.85846 0.27338 0.0
O127 O 0.67025 0.8778 0.10329 0.0
O128 O 0.71123 0.86114 0.16901 0.0
O129 O 0.5865 0.88734 0.19573 0.0
O130 O 0.63296 0.88934 0.25287 0.0
C131 C 0.70853 0.8519 0.1257 0.0
H132 H 0.81346 0.9848 0.2207 0.0
H133 H 0.79626 0.84933 0.31378 0.0
H134 H 0.5308 0.84445 0.05035 0.0
H135 H 0.45446 0.00399 0.04336 0.0
H136 H 0.14461 0.50869 0.07416 0.0
H137 H 0.27357 0.5643 0.02843 0.0
H138 H 0.16861 0.48492 0.16002 0.0
H139 H 0.29862 0.53917 0.113 0.0
H140 H 0.30237 0.54802 0.27573 0.0
H141 H 0.27354 0.5674 0.19261 0.0
H142 H 0.22466 0.43362 0.21872 0.0
H143 H 0.25206 0.41527 0.303 0.0
C144 C 0.179 0.51432 0.08198 0.0
C145 C 0.20716 0.5384 0.04425 0.0
C146 C 0.19268 0.50098 0.13143 0.0
C147 C 0.23502 0.51114 0.14432 0.0
C148 C 0.26482 0.5322 0.10546 0.0
C149 C 0.25091 0.54592 0.05647 0.0
C150 C 0.28458 0.5232 0.26422 0.0
C151 C 0.27954 0.48012 0.29637 0.0
C152 C 0.26865 0.53389 0.216 0.0
C153 C 0.24773 0.50149 0.19785 0.0
C154 C 0.24044 0.45962 0.23099 0.0
C155 C 0.25603 0.44915 0.2796 0.0
H156 H 0.88147 0.82989 0.31005 0.0
H157 H 0.84593 0.99257 0.28776 0.0
H158 H 0.93943 0.82622 0.36996 0.0
H159 H 0.90622 0.98794 0.34321 0.0
H160 H 0.89264 0.90587 0.52987 0.0
H161 H 0.89916 0.86631 0.45468 0.0
H162 H 0.99534 0.95348 0.37412 0.0
H163 H 0.98943 0.99278 0.4499 0.0
C164 C 0.88674 0.86472 0.31664 0.0
C165 C 0.85723 0.91173 0.29523 0.0
C166 C 0.92081 0.8623 0.35011 0.0
C167 C 0.92716 0.9067 0.36121 0.0
C168 C 0.9027 0.95291 0.33484 0.0
C169 C 0.86767 0.95552 0.30281 0.0
C170 C 0.91745 0.91458 0.49704 0.0
C171 C 0.93874 0.95388 0.49479 0.0
C172 C 0.92159 0.89154 0.45396 0.0
C173 C 0.94653 0.90812 0.40833 0.0
C174 C 0.9753 0.94073 0.40878 0.0
C175 C 0.9713 0.96366 0.45187 0.0
H176 H 0.28769 0.59724 0.78068 0.0
H177 H 0.1567 0.54735 0.78272 0.0
H178 H 0.31769 0.57224 0.69529 0.0
H179 H 0.18419 0.52599 0.69828 0.0
H180 H 0.26402 0.43988 0.5707 0.0
H181 H 0.24025 0.46635 0.65362 0.0
H182 H 0.30775 0.58722 0.60683 0.0
H183 H 0.33492 0.55796 0.52302 0.0
C184 C 0.26545 0.58082 0.7632 0.0
C185 C 0.22027 0.57344 0.78937 0.0
C186 C 0.28227 0.56705 0.71391 0.0
C187 C 0.25391 0.54624 0.68946 0.0
C188 C 0.20836 0.54007 0.71573 0.0
C189 C 0.19228 0.55274 0.7647 0.0
C190 C 0.27355 0.47252 0.57743 0.0
C191 C 0.301 0.49704 0.53945 0.0
C192 C 0.25953 0.48805 0.62551 0.0
C193 C 0.27117 0.52966 0.63755 0.0
C194 C 0.29828 0.55481 0.59945 0.0
C195 C 0.31325 0.53852 0.55105 0.0
H196 H 0.73264 0.92315 0.0228 0.0
H197 H 0.67624 0.0817 0.03785 0.0
H198 H 0.75251 0.94146 0.93256 0.0
H199 H 0.69881 0.10099 0.9474 0.0
H200 H 0.69091 0.13031 0.78581 0.0
H201 H 0.66751 0.09995 0.87289 0.0
H202 H 0.80089 0.97072 0.86446 0.0
H203 H 0.82121 0.99922 0.77618 0.0
C204 C 0.72731 0.962 1.00695 0.0
C205 C 0.70456 1.00109 0.03711 0.0
C206 C 0.73797 0.97261 0.95501 0.0
C207 C 0.72635 0.02271 0.9323 0.0
C208 C 0.70674 0.06189 0.96333 0.0
C209 C 0.69507 0.05111 0.01527 0.0
C210 C 0.71353 0.09406 0.80202 0.0
C211 C 0.75818 0.06738 0.77493 0.0
C212 C 0.70106 0.07733 0.85229 0.0
C213 C 0.73375 0.0343 0.87656 0.0
C214 C 0.77504 0.00436 0.84738 0.0
C215 C 0.78658 0.02042 0.79654 0.0
H216 H 0.96909 0.23136 0.66795 0.0
H217 H 0.97444 0.17316 0.52803 0.0
H218 H 0.04251 0.25877 0.6344 0.0
H219 H 0.0473 0.20295 0.49314 0.0
H220 H 0.21066 0.21302 0.4696 0.0
H221 H 0.13493 0.18635 0.49908 0.0
H222 H 0.07043 0.31854 0.57755 0.0
H223 H 0.14673 0.3435 0.54992 0.0
C224 C 0.98544 0.22519 0.62956 0.0
C225 C 0.96579 0.20013 0.60062 0.0
C226 C 0.02758 0.24123 0.61012 0.0
C227 C 0.05094 0.23339 0.56086 0.0
C228 C 0.03076 0.20904 0.53147 0.0
C229 C 0.98873 0.19236 0.55125 0.0
C230 C 0.1802 0.23608 0.49331 0.0
C231 C 0.18479 0.27981 0.50823 0.0
C232 C 0.13664 0.22112 0.50988 0.0
C233 C 0.09652 0.25006 0.54107 0.0
C234 C 0.10093 0.29452 0.55473 0.0
C235 C 0.14465 0.30895 0.53886 0.0
H236 H 0.99838 0.76866 0.90289 0.0
H237 H 0.09366 0.75663 0.76127 0.0
H238 H 0.96336 0.85847 0.88015 0.0
H239 H 0.05449 0.84524 0.73469 0.0
H240 H 0.02132 0.00997 0.71013 0.0
H241 H 0.05604 0.92196 0.74159 0.0
H242 H 0.91749 0.92959 0.84176 0.0
H243 H 0.88667 0.01902 0.81446 0.0
C244 C 0.00985 0.78511 0.86566 0.0
C245 C 0.04836 0.75592 0.8337 0.0
C246 C 0.98988 0.83699 0.85238 0.0
C247 C 0.00676 0.86065 0.8058 0.0
C248 C 0.04193 0.82977 0.7719 0.0
C249 C 0.06345 0.77837 0.78627 0.0
C250 C 0.99957 0.99302 0.74057 0.0
C251 C 0.9515 0.02117 0.76005 0.0
C252 C 0.01864 0.94192 0.75766 0.0
C253 C 0.98903 0.91692 0.79294 0.0
C254 C 0.94207 0.94642 0.81472 0.0
C255 C 0.92411 0.99812 0.79917 0.0
H256 H 0.35874 0.74927 0.90846 0.0
H257 H 0.22556 0.85556 0.97357 0.0
H258 H 0.41112 0.79669 0.92772 0.0
H259 H 0.27726 0.90521 0.9904 0.0
H260 H 0.39155 0.93112 0.08074 0.0
H261 H 0.33275 0.90019 0.04736 0.0
H262 H 0.43906 0.8674 0.91349 0.0
H263 H 0.49885 0.89555 0.94913 0.0
C264 C 0.34068 0.78365 0.92574 0.0
C265 C 0.28838 0.79869 0.93993 0.0
C266 C 0.37057 0.81118 0.93653 0.0
C267 C 0.34862 0.85492 0.96094 0.0
C268 C 0.29573 0.87121 0.97267 0.0
C269 C 0.26601 0.84305 0.96278 0.0
C270 C 0.40156 0.91833 0.04369 0.0
C271 C 0.44933 0.91558 0.01732 0.0
C272 C 0.36789 0.9007 0.02432 0.0
C273 C 0.38118 0.88064 0.97778 0.0
C274 C 0.42793 0.88132 0.94996 0.0
C275 C 0.46196 0.898 0.9699 0.0
H276 H 0.52324 0.31532 0.30442 0.0
H277 H 0.37554 0.29928 0.30336 0.0
H278 H 0.56146 0.23856 0.26265 0.0
H279 H 0.41305 0.22282 0.26332 0.0
H280 H 0.49361 0.09318 0.1712 0.0
H281 H 0.45826 0.17945 0.19314 0.0
H282 H 0.57306 0.15069 0.29246 0.0
H283 H 0.60863 0.06562 0.26998 0.0
C284 C 0.49896 0.29627 0.29392 0.0
C285 C 0.44657 0.31301 0.30734 0.0
C286 C 0.52073 0.25193 0.2707 0.0
C287 C 0.49038 0.22387 0.26035 0.0
C288 C 0.43771 0.24324 0.27032 0.0
C289 C 0.41617 0.28711 0.29353 0.0
C290 C 0.51095 0.10526 0.198 0.0
C291 C 0.55374 0.0723 0.21901 0.0
C292 C 0.49091 0.1548 0.21041 0.0
C293 C 0.51318 0.17242 0.24415 0.0
C294 C 0.55563 0.1391 0.26538 0.0
C295 C 0.57561 0.08988 0.25298 0.0
H296 H 0.73327 0.17348 0.55436 0.0
H297 H 0.70434 0.29015 0.65092 0.0
H298 H 0.64991 0.21186 0.52654 0.0
H299 H 0.62045 0.32847 0.62311 0.0
H300 H 0.50379 0.41121 0.50979 0.0
H301 H 0.58203 0.37268 0.54739 0.0
H302 H 0.55926 0.22653 0.55779 0.0
H303 H 0.48034 0.26555 0.51922 0.0
C304 C 0.70932 0.2076 0.56941 0.0
C305 C 0.72582 0.22887 0.60473 0.0
C306 C 0.66114 0.22921 0.55391 0.0
C307 C 0.62812 0.27287 0.57304 0.0
C308 C 0.64496 0.29488 0.60751 0.0
C309 C 0.69318 0.27307 0.62327 0.0
C310 C 0.51496 0.37088 0.52081 0.0
C311 C 0.48599 0.34134 0.51124 0.0
C312 C 0.55984 0.34882 0.54262 0.0
C313 C 0.57731 0.29645 0.55521 0.0
C314 C 0.54718 0.26697 0.54784 0.0
C315 C 0.50172 0.28927 0.52632 0.0
H316 H 0.92615 0.4865 0.97178 0.0
H317 H 0.99993 0.47325 0.81917 0.0
H318 H 0.87206 0.43788 0.95736 0.0
H319 H 0.94424 0.42762 0.80452 0.0
H320 H 0.81455 0.38257 0.77625 0.0
H321 H 0.84652 0.44479 0.80265 0.0
H322 H 0.89383 0.34333 0.93527 0.0
H323 H 0.86222 0.28086 0.90862 0.0
C324 C 0.93087 0.4735 0.93524 0.0
C325 C 0.96741 0.48423 0.89657 0.0
C326 C 0.89952 0.44616 0.92695 0.0
C327 C 0.90344 0.42998 0.8796 0.0
C328 C 0.93957 0.44086 0.84099 0.0
C329 C 0.97144 0.46718 0.84948 0.0
C330 C 0.82987 0.37443 0.81205 0.0
C331 C 0.8362 0.32696 0.84035 0.0
C332 C 0.84853 0.40979 0.8269 0.0
C333 C 0.87308 0.39845 0.87062 0.0
C334 C 0.87488 0.35298 0.90152 0.0
C335 C 0.85688 0.31731 0.88629 0.0
H336 H 0.02159 0.77967 0.9857 0.0
H337 H 0.00157 0.64181 0.06897 0.0
H338 H 0.93288 0.82317 1.00981 0.0
H339 H 0.9136 0.68547 0.09511 0.0
H340 H 0.74594 0.75907 0.08928 0.0
H341 H 0.83512 0.71874 0.05958 0.0
H342 H 0.87101 0.85366 0.07549 0.0
H343 H 0.78323 0.89332 0.1029 0.0
C344 C 0.99875 0.7592 1.01088 0.0
C345 C 0.01841 0.70738 0.02526 0.0
C346 C 0.94766 0.78393 0.02433 0.0
C347 C 0.91553 0.75747 0.05334 0.0
C348 C 0.9366 0.70662 0.07126 0.0
C349 C 0.98735 0.68186 0.05726 0.0
C350 C 0.77286 0.78028 0.08455 0.0
C351 C 0.75765 0.82956 0.09718 0.0
C352 C 0.82402 0.75713 0.06851 0.0
C353 C 0.86052 0.78285 0.06553 0.0
C354 C 0.84431 0.83281 0.07643 0.0
C355 C 0.79373 0.85568 0.09207 0.0
H356 H 0.65267 0.78813 0.29341 0.0
H357 H 0.50332 0.86991 0.25389 0.0
H358 H 0.62521 0.71311 0.32285 0.0
H359 H 0.47475 0.79641 0.28573 0.0
H360 H 0.45734 0.64599 0.27326 0.0
H361 H 0.48554 0.7205 0.25488 0.0
H362 H 0.57674 0.66773 0.37858 0.0
H363 H 0.55158 0.59099 0.39448 0.0
C364 C 0.61339 0.79059 0.29315 0.0
C365 C 0.58004 0.83461 0.27149 0.0
C366 C 0.59761 0.74755 0.30973 0.0
C367 C 0.54798 0.74813 0.3055 0.0
C368 C 0.51368 0.79386 0.28796 0.0
C369 C 0.52971 0.83633 0.27054 0.0
C370 C 0.48424 0.64954 0.29597 0.0
C371 C 0.50196 0.61217 0.33548 0.0
C372 C 0.49966 0.69303 0.2861 0.0
C373 C 0.53271 0.70093 0.3159 0.0
C374 C 0.5513 0.66313 0.35479 0.0
C375 C 0.53634 0.61924 0.36426 0.0
loop_
_geom_bond_atom_site_label_1
_geom_bond_atom_site_label_2
_geom_bond_distance
_geom_bond_site_symmetry_2
_ccdc_geom_bond_type
C0 O16 1.251 . S
C0 O18 1.254 . S
N1 C2 1.333 . S
N1 C6 1.307 . S
N1 Zn7 2.020 . S
C2 N1 1.333 . S
C2 C3 1.379 . S
C2 H20 0.952 . S
C3 C2 1.379 . S
C3 C4 1.390 . S
C3 H30 0.949 . S
C4 C3 1.390 . S
C4 C5 1.357 . S
C5 C4 1.357 . S
C5 C6 1.370 . S
C5 H31 0.950 . S
C6 N1 1.307 . S
C6 C5 1.370 . S
C6 H24 0.948 . S
Zn7 N1 2.020 . S
Zn7 O16 2.039 . S
Zn7 O22 2.034 . S
Zn7 O26 2.025 . S
Zn7 O28 2.024 . S
C8 O27 1.246 . S
C8 O28 1.249 . S
N9 C10 1.307 . S
N9 C11 1.333 . S
N9 Zn15 2.020 . S
C10 N9 1.307 . S
C10 C14 1.370 . S
C10 H21 0.948 . S
C11 N9 1.333 . S
C11 C12 1.379 . S
C11 H19 0.952 . S
C12 C11 1.379 . S
C12 C13 1.390 . S
C12 H32 0.949 . S
C13 C12 1.390 . S
C13 C14 1.357 . S
C14 C10 1.370 . S
C14 C13 1.357 . S
C14 H33 0.950 . S
Zn15 N9 2.020 . S
Zn15 O18 2.025 . S
Zn15 O23 2.024 . S
Zn15 O25 2.039 . S
Zn15 O27 2.034 . S
O16 C0 1.251 . S
O16 Zn7 2.039 . S
C17 O22 1.246 . S
C17 O23 1.249 . S
O18 C0 1.254 . S
O18 Zn15 2.025 . S
H19 C11 0.952 . S
H20 C2 0.952 . S
H21 C10 0.948 . S
O22 Zn7 2.034 . S
O22 C17 1.246 . S
O23 Zn15 2.024 . S
O23 C17 1.249 . S
H24 C6 0.948 . S
O25 Zn15 2.039 . S
O25 C29 1.251 . S
O26 Zn7 2.025 . S
O26 C29 1.254 . S
O27 C8 1.246 . S
O27 Zn15 2.034 . S
O28 Zn7 2.024 . S
O28 C8 1.249 . S
C29 O25 1.251 . S
C29 O26 1.254 . S
H30 C3 0.949 . S
H31 C5 0.950 . S
H32 C12 0.949 . S
H33 C14 0.950 . S
C34 O50 1.251 . S
C34 O52 1.254 . S
N35 C36 1.333 . S
N35 C40 1.307 . S
N35 Zn41 2.020 . S
C36 N35 1.333 . S
C36 C37 1.379 . S
C36 H54 0.952 . S
C37 C36 1.379 . S
C37 C38 1.389 1_545 S
C37 H64 0.949 . S
C38 C37 1.389 1_565 S
C38 C39 1.357 . S
C39 C38 1.357 . S
C39 C40 1.370 1_565 S
C39 H65 0.950 . S
C40 N35 1.307 . S
C40 C39 1.370 1_545 S
C40 H58 0.948 . S
Zn41 N35 2.020 . S
Zn41 O50 2.039 . S
Zn41 O56 2.034 . S
Zn41 O60 2.025 . S
Zn41 O62 2.024 . S
C42 O61 1.246 . S
C42 O62 1.249 . S
N43 C44 1.307 . S
N43 C45 1.333 . S
N43 Zn49 2.020 . S
C44 N43 1.307 . S
C44 C48 1.370 . S
C44 H55 0.948 . S
C45 N43 1.333 . S
C45 C46 1.379 . S
C45 H53 0.952 . S
C46 C45 1.379 . S
C46 C47 1.390 . S
C46 H66 0.949 . S
C47 C46 1.390 . S
C47 C48 1.357 . S
C48 C44 1.370 . S
C48 C47 1.357 . S
C48 H67 0.950 . S
Zn49 N43 2.020 . S
Zn49 O52 2.025 . S
Zn49 O57 2.024 . S
Zn49 O59 2.039 . S
Zn49 O61 2.034 . S
O50 C34 1.251 . S
O50 Zn41 2.039 . S
C51 O56 1.246 . S
C51 O57 1.249 . S
O52 C34 1.254 . S
O52 Zn49 2.025 . S
H53 C45 0.952 . S
H54 C36 0.952 . S
H55 C44 0.948 . S
O56 Zn41 2.034 . S
O56 C51 1.246 . S
O57 Zn49 2.024 . S
O57 C51 1.249 . S
H58 C40 0.948 . S
O59 Zn49 2.039 . S
O59 C63 1.251 . S
O60 Zn41 2.025 . S
O60 C63 1.254 . S
O61 C42 1.246 . S
O61 Zn49 2.034 . S
O62 Zn41 2.024 . S
O62 C42 1.249 . S
C63 O59 1.251 . S
C63 O60 1.254 . S
H64 C37 0.949 . S
H65 C39 0.950 . S
H66 C46 0.949 . S
H67 C48 0.950 . S
C68 O84 1.251 . S
C68 O86 1.254 . S
N69 C70 1.333 . S
N69 C74 1.307 . S
N69 Zn75 2.020 . S
C70 N69 1.333 . S
C70 C71 1.379 . S
C70 H88 0.952 . S
C71 C70 1.379 . S
C71 C72 1.390 . S
C71 H98 0.949 1_556 S
C72 C71 1.390 . S
C72 C73 1.357 . S
C73 C72 1.357 . S
C73 C74 1.370 . S
C73 H99 0.950 . S
C74 N69 1.307 . S
C74 C73 1.370 . S
C74 H92 0.948 . S
Zn75 N69 2.020 . S
Zn75 O84 2.039 . S
Zn75 O90 2.034 . S
Zn75 O94 2.025 . S
Zn75 O96 2.024 . S
C76 O95 1.246 . S
C76 O96 1.249 . S
N77 C78 1.307 . S
N77 C79 1.333 . S
N77 Zn83 2.020 . S
C78 N77 1.307 . S
C78 C82 1.370 . S
C78 H89 0.948 . S
C79 N77 1.333 . S
C79 C80 1.379 . S
C79 H87 0.952 . S
C80 C79 1.379 . S
C80 C81 1.390 1_455 S
C80 H100 0.949 1_455 S
C81 C80 1.390 1_655 S
C81 C82 1.357 1_655 S
C82 C78 1.370 . S
C82 C81 1.357 1_455 S
C82 H101 0.950 1_455 S
Zn83 N77 2.020 . S
Zn83 O86 2.025 . S
Zn83 O91 2.024 . S
Zn83 O93 2.039 . S
Zn83 O95 2.034 . S
O84 C68 1.251 . S
O84 Zn75 2.039 . S
C85 O90 1.246 . S
C85 O91 1.249 . S
O86 C68 1.254 . S
O86 Zn83 2.025 . S
H87 C79 0.952 . S
H88 C70 0.952 . S
H89 C78 0.948 . S
O90 Zn75 2.034 . S
O90 C85 1.246 . S
O91 Zn83 2.024 . S
O91 C85 1.249 . S
H92 C74 0.948 . S
O93 Zn83 2.039 . S
O93 C97 1.251 . S
O94 Zn75 2.025 . S
O94 C97 1.254 . S
O95 C76 1.246 . S
O95 Zn83 2.034 . S
O96 Zn75 2.024 . S
O96 C76 1.249 . S
C97 O93 1.251 . S
C97 O94 1.254 . S
H98 C71 0.949 1_554 S
H99 C73 0.950 . S
H100 C80 0.949 1_655 S
H101 C82 0.950 1_655 S
C102 O118 1.251 . S
C102 O120 1.254 . S
N103 C104 1.333 . S
N103 C108 1.307 . S
N103 Zn109 2.020 . S
C104 N103 1.333 . S
C104 C105 1.379 . S
C104 H122 0.952 1_565 S
C105 C104 1.379 . S
C105 C106 1.390 . S
C105 H132 0.949 1_565 S
C106 C105 1.390 . S
C106 C107 1.357 . S
C107 C106 1.357 . S
C107 C108 1.370 . S
C107 H133 0.950 . S
C108 N103 1.307 . S
C108 C107 1.370 . S
C108 H126 0.948 . S
Zn109 N103 2.020 . S
Zn109 O118 2.039 . S
Zn109 O124 2.034 . S
Zn109 O128 2.025 . S
Zn109 O130 2.024 . S
C110 O129 1.246 . S
C110 O130 1.249 . S
N111 C112 1.307 . S
N111 C113 1.333 . S
N111 Zn117 2.020 . S
C112 N111 1.307 . S
C112 C116 1.370 1_554 S
C112 H123 0.948 . S
C113 N111 1.333 . S
C113 C114 1.379 . S
C113 H121 0.952 . S
C114 C113 1.379 . S
C114 C115 1.390 1_554 S
C114 H134 0.949 1_554 S
C115 C114 1.390 1_556 S
C115 C116 1.357 . S
C116 C112 1.370 1_556 S
C116 C115 1.357 . S
C116 H135 0.950 . S
Zn117 N111 2.020 . S
Zn117 O120 2.025 . S
Zn117 O125 2.024 . S
Zn117 O127 2.039 . S
Zn117 O129 2.034 . S
O118 C102 1.251 . S
O118 Zn109 2.039 . S
C119 O124 1.246 . S
C119 O125 1.249 . S
O120 C102 1.254 . S
O120 Zn117 2.025 . S
H121 C113 0.952 . S
H122 C104 0.952 1_545 S
H123 C112 0.948 . S
O124 Zn109 2.034 . S
O124 C119 1.246 . S
O125 Zn117 2.024 . S
O125 C119 1.249 . S
H126 C108 0.948 . S
O127 Zn117 2.039 . S
O127 C131 1.251 . S
O128 Zn109 2.025 . S
O128 C131 1.254 . S
O129 C110 1.246 . S
O129 Zn117 2.034 . S
O130 Zn109 2.024 . S
O130 C110 1.249 . S
C131 O127 1.251 . S
C131 O128 1.254 . S
H132 C105 0.949 1_545 S
H133 C107 0.950 . S
H134 C114 0.949 1_556 S
H135 C116 0.950 . S
H136 C144 0.950 . S
H137 C149 0.950 . S
H138 C146 0.950 . S
H139 C148 0.950 . S
H140 C150 0.950 . S
H141 C152 0.950 . S
H142 C154 0.950 . S
H143 C155 0.950 . S
C144 H136 0.950 . S
C144 C145 1.386 . S
C144 C146 1.391 . S
C145 C144 1.386 . S
C145 C149 1.393 . S
C146 H138 0.950 . S
C146 C144 1.391 . S
C146 C147 1.400 . S
C147 C146 1.400 . S
C147 C148 1.398 . S
C147 C153 1.491 . S
C148 H139 0.950 . S
C148 C147 1.398 . S
C148 C149 1.391 . S
C149 H137 0.950 . S
C149 C145 1.393 . S
C149 C148 1.391 . S
C150 H140 0.950 . S
C150 C151 1.386 . S
C150 C152 1.391 . S
C151 C150 1.386 . S
C151 C155 1.393 . S
C152 H141 0.950 . S
C152 C150 1.391 . S
C152 C153 1.400 . S
C153 C147 1.491 . S
C153 C152 1.400 . S
C153 C154 1.398 . S
C154 H142 0.950 . S
C154 C153 1.398 . S
C154 C155 1.391 . S
C155 H143 0.950 . S
C155 C151 1.393 . S
C155 C154 1.391 . S
H156 C164 0.950 . S
H157 C169 0.950 . S
H158 C166 0.950 . S
H159 C168 0.950 . S
H160 C170 0.950 . S
H161 C172 0.950 . S
H162 C174 0.950 . S
H163 C175 0.950 . S
C164 H156 0.950 . S
C164 C165 1.386 . S
C164 C166 1.391 . S
C165 C164 1.386 . S
C165 C169 1.393 1_565 S
C166 H158 0.950 . S
C166 C164 1.391 . S
C166 C167 1.400 . S
C167 C166 1.400 . S
C167 C168 1.398 1_565 S
C167 C173 1.491 . S
C168 H159 0.950 . S
C168 C167 1.398 1_545 S
C168 C169 1.391 . S
C169 H157 0.950 . S
C169 C165 1.393 1_545 S
C169 C168 1.391 . S
C170 H160 0.950 . S
C170 C171 1.386 1_545 S
C170 C172 1.391 . S
C171 C170 1.386 1_565 S
C171 C175 1.393 . S
C172 H161 0.950 . S
C172 C170 1.391 . S
C172 C173 1.400 1_545 S
C173 C167 1.491 . S
C173 C172 1.400 1_565 S
C173 C174 1.398 . S
C174 H162 0.950 . S
C174 C173 1.398 . S
C174 C175 1.391 . S
C175 H163 0.950 . S
C175 C171 1.393 . S
C175 C174 1.391 . S
H176 C184 0.950 . S
H177 C189 0.950 . S
H178 C186 0.950 . S
H179 C188 0.950 . S
H180 C190 0.950 . S
H181 C192 0.950 . S
H182 C194 0.950 . S
H183 C195 0.950 . S
C184 H176 0.950 . S
C184 C185 1.386 . S
C184 C186 1.391 . S
C185 C184 1.386 . S
C185 C189 1.393 . S
C186 H178 0.950 . S
C186 C184 1.391 . S
C186 C187 1.400 . S
C187 C186 1.400 . S
C187 C188 1.398 . S
C187 C193 1.491 . S
C188 H179 0.950 . S
C188 C187 1.398 . S
C188 C189 1.391 . S
C189 H177 0.950 . S
C189 C185 1.393 . S
C189 C188 1.391 . S
C190 H180 0.950 . S
C190 C191 1.386 . S
C190 C192 1.391 . S
C191 C190 1.386 . S
C191 C195 1.393 . S
C192 H181 0.950 . S
C192 C190 1.391 . S
C192 C193 1.400 . S
C193 C187 1.491 . S
C193 C192 1.400 . S
C193 C194 1.398 . S
C194 H182 0.950 . S
C194 C193 1.398 . S
C194 C195 1.391 . S
C195 H183 0.950 . S
C195 C191 1.393 . S
C195 C194 1.391 . S
H196 C204 0.950 . S
H197 C209 0.950 . S
H198 C206 0.950 . S
H199 C208 0.950 . S
H200 C210 0.950 . S
H201 C212 0.950 . S
H202 C214 0.950 1_565 S
H203 C215 0.950 . S
C204 H196 0.950 . S
C204 C205 1.386 1_566 S
C204 C206 1.391 . S
C205 C204 1.386 1_544 S
C205 C209 1.393 . S
C206 H198 0.950 . S
C206 C204 1.391 . S
C206 C207 1.400 1_565 S
C207 C206 1.400 1_545 S
C207 C208 1.398 . S
C207 C213 1.491 . S
C208 H199 0.950 . S
C208 C207 1.398 . S
C208 C209 1.391 1_556 S
C209 H197 0.950 . S
C209 C205 1.393 . S
C209 C208 1.391 1_554 S
C210 H200 0.950 . S
C210 C211 1.386 . S
C210 C212 1.391 . S
C211 C210 1.386 . S
C211 C215 1.393 . S
C212 H201 0.950 . S
C212 C210 1.391 . S
C212 C213 1.400 . S
C213 C207 1.491 . S
C213 C212 1.400 . S
C213 C214 1.398 . S
C214 H202 0.950 1_545 S
C214 C213 1.398 . S
C214 C215 1.391 . S
C215 H203 0.950 . S
C215 C211 1.393 . S
C215 C214 1.391 . S
H216 C224 0.950 . S
H217 C229 0.950 . S
H218 C226 0.950 . S
H219 C228 0.950 . S
H220 C230 0.950 . S
H221 C232 0.950 . S
H222 C234 0.950 . S
H223 C235 0.950 . S
C224 H216 0.950 . S
C224 C225 1.386 . S
C224 C226 1.391 1_655 S
C225 C224 1.386 . S
C225 C229 1.393 . S
C226 H218 0.950 . S
C226 C224 1.391 1_455 S
C226 C227 1.400 . S
C227 C226 1.400 . S
C227 C228 1.398 . S
C227 C233 1.491 . S
C228 H219 0.950 . S
C228 C227 1.398 . S
C228 C229 1.391 1_455 S
C229 H217 0.950 . S
C229 C225 1.393 . S
C229 C228 1.391 1_655 S
C230 H220 0.950 . S
C230 C231 1.386 . S
C230 C232 1.391 . S
C231 C230 1.386 . S
C231 C235 1.393 . S
C232 H221 0.950 . S
C232 C230 1.391 . S
C232 C233 1.400 . S
C233 C227 1.491 . S
C233 C232 1.400 . S
C233 C234 1.398 . S
C234 H222 0.950 . S
C234 C233 1.398 . S
C234 C235 1.391 . S
C235 H223 0.950 . S
C235 C231 1.393 . S
C235 C234 1.391 . S
H236 C244 0.950 1_655 S
H237 C249 0.950 . S
H238 C246 0.950 . S
H239 C248 0.950 . S
H240 C250 0.950 1_455 S
H241 C252 0.950 . S
H242 C254 0.950 . S
H243 C255 0.950 1_545 S
C244 H236 0.950 1_455 S
C244 C245 1.386 . S
C244 C246 1.391 1_455 S
C245 C244 1.386 . S
C245 C249 1.393 . S
C246 H238 0.950 . S
C246 C244 1.391 1_655 S
C246 C247 1.400 1_655 S
C247 C246 1.400 1_455 S
C247 C248 1.398 . S
C247 C253 1.491 1_455 S
C248 H239 0.950 . S
C248 C247 1.398 . S
C248 C249 1.391 . S
C249 H237 0.950 . S
C249 C245 1.393 . S
C249 C248 1.391 . S
C250 H240 0.950 1_655 S
C250 C251 1.386 . S
C250 C252 1.391 1_645 S
C251 C250 1.386 . S
C251 C255 1.393 1_545 S
C252 H241 0.950 . S
C252 C250 1.391 1_465 S
C252 C253 1.400 1_455 S
C253 C247 1.491 1_655 S
C253 C252 1.400 1_655 S
C253 C254 1.398 . S
C254 H242 0.950 . S
C254 C253 1.398 . S
C254 C255 1.391 . S
C255 H243 0.950 1_565 S
C255 C251 1.393 1_565 S
C255 C254 1.391 . S
H256 C264 0.950 . S
H257 C269 0.950 1_554 S
H258 C266 0.950 . S
H259 C268 0.950 1_554 S
H260 C270 0.950 . S
H261 C272 0.950 . S
H262 C274 0.950 . S
H263 C275 0.950 . S
C264 H256 0.950 . S
C264 C265 1.386 . S
C264 C266 1.391 . S
C265 C264 1.386 . S
C265 C269 1.393 . S
C266 H258 0.950 . S
C266 C264 1.391 . S
C266 C267 1.400 . S
C267 C266 1.400 . S
C267 C268 1.398 . S
C267 C273 1.491 . S
C268 H259 0.950 1_556 S
C268 C267 1.398 . S
C268 C269 1.391 . S
C269 H257 0.950 1_556 S
C269 C265 1.393 . S
C269 C268 1.391 . S
C270 H260 0.950 . S
C270 C271 1.386 1_554 S
C270 C272 1.391 . S
C271 C270 1.386 1_556 S
C271 C275 1.393 . S
C272 H261 0.950 . S
C272 C270 1.391 . S
C272 C273 1.400 1_554 S
C273 C267 1.491 . S
C273 C272 1.400 1_556 S
C273 C274 1.398 . S
C274 H262 0.950 . S
C274 C273 1.398 . S
C274 C275 1.391 . S
C275 H263 0.950 . S
C275 C271 1.393 . S
C275 C274 1.391 . S
H276 C284 0.950 . S
H277 C289 0.950 . S
H278 C286 0.950 . S
H279 C288 0.950 . S
H280 C290 0.950 . S
H281 C292 0.950 . S
H282 C294 0.950 . S
H283 C295 0.950 . S
C284 H276 0.950 . S
C284 C285 1.386 . S
C284 C286 1.391 . S
C285 C284 1.386 . S
C285 C289 1.393 . S
C286 H278 0.950 . S
C286 C284 1.391 . S
C286 C287 1.400 . S
C287 C286 1.400 . S
C287 C288 1.398 . S
C287 C293 1.491 . S
C288 H279 0.950 . S
C288 C287 1.398 . S
C288 C289 1.391 . S
C289 H277 0.950 . S
C289 C285 1.393 . S
C289 C288 1.391 . S
C290 H280 0.950 . S
C290 C291 1.386 . S
C290 C292 1.391 . S
C291 C290 1.386 . S
C291 C295 1.393 . S
C292 H281 0.950 . S
C292 C290 1.391 . S
C292 C293 1.400 . S
C293 C287 1.491 . S
C293 C292 1.400 . S
C293 C294 1.398 . S
C294 H282 0.950 . S
C294 C293 1.398 . S
C294 C295 1.391 . S
C295 H283 0.950 . S
C295 C291 1.393 . S
C295 C294 1.391 . S
H296 C304 0.950 . S
H297 C309 0.950 . S
H298 C306 0.950 . S
H299 C308 0.950 . S
H300 C310 0.950 . S
H301 C312 0.950 . S
H302 C314 0.950 . S
H303 C315 0.950 . S
C304 H296 0.950 . S
C304 C305 1.386 . S
C304 C306 1.391 . S
C305 C304 1.386 . S
C305 C309 1.393 . S
C306 H298 0.950 . S
C306 C304 1.391 . S
C306 C307 1.400 . S
C307 C306 1.400 . S
C307 C308 1.398 . S
C307 C313 1.491 . S
C308 H299 0.950 . S
C308 C307 1.398 . S
C308 C309 1.391 . S
C309 H297 0.950 . S
C309 C305 1.393 . S
C309 C308 1.391 . S
C310 H300 0.950 . S
C310 C311 1.386 . S
C310 C312 1.391 . S
C311 C310 1.386 . S
C311 C315 1.393 . S
C312 H301 0.950 . S
C312 C310 1.391 . S
C312 C313 1.400 . S
C313 C307 1.491 . S
C313 C312 1.400 . S
C313 C314 1.398 . S
C314 H302 0.950 . S
C314 C313 1.398 . S
C314 C315 1.391 . S
C315 H303 0.950 . S
C315 C311 1.393 . S
C315 C314 1.391 . S
H316 C324 0.950 . S
H317 C329 0.950 . S
H318 C326 0.950 . S
H319 C328 0.950 . S
H320 C330 0.950 . S
H321 C332 0.950 . S
H322 C334 0.950 . S
H323 C335 0.950 . S
C324 H316 0.950 . S
C324 C325 1.386 . S
C324 C326 1.391 . S
C325 C324 1.386 . S
C325 C329 1.393 . S
C326 H318 0.950 . S
C326 C324 1.391 . S
C326 C327 1.400 . S
C327 C326 1.400 . S
C327 C328 1.398 . S
C327 C333 1.491 . S
C328 H319 0.950 . S
C328 C327 1.398 . S
C328 C329 1.391 . S
C329 H317 0.950 . S
C329 C325 1.393 . S
C329 C328 1.391 . S
C330 H320 0.950 . S
C330 C331 1.386 . S
C330 C332 1.391 . S
C331 C330 1.386 . S
C331 C335 1.393 . S
C332 H321 0.950 . S
C332 C330 1.391 . S
C332 C333 1.400 . S
C333 C327 1.491 . S
C333 C332 1.400 . S
C333 C334 1.398 . S
C334 H322 0.950 . S
C334 C333 1.398 . S
C334 C335 1.391 . S
C335 H323 0.950 . S
C335 C331 1.393 . S
C335 C334 1.391 . S
H336 C344 0.950 1_455 S
H337 C349 0.950 . S
H338 C346 0.950 . S
H339 C348 0.950 . S
H340 C350 0.950 . S
H341 C352 0.950 . S
H342 C354 0.950 . S
H343 C355 0.950 . S
C344 H336 0.950 1_655 S
C344 C345 1.386 1_654 S
C344 C346 1.391 . S
C345 C344 1.386 1_456 S
C345 C349 1.393 1_455 S
C346 H338 0.950 . S
C346 C344 1.391 . S
C346 C347 1.400 . S
C347 C346 1.400 . S
C347 C348 1.398 1_554 S
C347 C353 1.491 . S
C348 H339 0.950 . S
C348 C347 1.398 1_556 S
C348 C349 1.391 . S
C349 H337 0.950 . S
C349 C345 1.393 1_655 S
C349 C348 1.391 . S
C350 H340 0.950 . S
C350 C351 1.386 . S
C350 C352 1.391 . S
C351 C350 1.386 . S
C351 C355 1.393 . S
C352 H341 0.950 . S
C352 C350 1.391 . S
C352 C353 1.400 . S
C353 C347 1.491 . S
C353 C352 1.400 . S
C353 C354 1.398 . S
C354 H342 0.950 . S
C354 C353 1.398 . S
C354 C355 1.391 . S
C355 H343 0.950 . S
C355 C351 1.393 . S
C355 C354 1.391 . S
H356 C364 0.950 . S
H357 C369 0.950 . S
H358 C366 0.950 . S
H359 C368 0.950 . S
H360 C370 0.950 . S
H361 C372 0.950 . S
H362 C374 0.950 . S
H363 C375 0.950 . S
C364 H356 0.950 . S
C364 C365 1.386 . S
C364 C366 1.391 . S
C365 C364 1.386 . S
C365 C369 1.393 . S
C366 H358 0.950 . S
C366 C364 1.391 . S
C366 C367 1.400 . S
C367 C366 1.400 . S
C367 C368 1.398 . S
C367 C373 1.491 . S
C368 H359 0.950 . S
C368 C367 1.398 . S
C368 C369 1.391 . S
C369 H357 0.950 . S
C369 C365 1.393 . S
C369 C368 1.391 . S
C370 H360 0.950 . S
C370 C371 1.386 . S
C370 C372 1.391 . S
C371 C370 1.386 . S
C371 C375 1.393 . S
C372 H361 0.950 . S
C372 C370 1.391 . S
C372 C373 1.400 . S
C373 C367 1.491 . S
C373 C372 1.400 . S
C373 C374 1.398 . S
C374 H362 0.950 . S
C374 C373 1.398 . S
C374 C375 1.391 . S
C375 H363 0.950 . S
C375 C371 1.393 . S
C375 C374 1.391 . S
C145 C68 2.334 1_554 S
C151 C0 2.353 . S
C165 C106 0.802 . S
C171 C38 0.806 . S
C185 C76 2.252 . S
C191 C8 2.272 . S
C205 C119 0.890 1_545 S
C211 C51 0.884 . S
C225 C42 1.627 . S
C231 C13 1.635 . S
C245 C97 1.068 . S
C251 C63 1.077 . S
C265 C72 0.994 . S
C271 C115 0.951 . S
C285 C17 2.024 . S
C291 C102 1.981 1_545 S
C305 C34 1.992 . S
C311 C29 2.036 . S
C325 C81 1.061 . S
C331 C47 1.032 . S
C345 C85 1.067 . S
C351 C131 1.074 . S
C365 C110 1.561 . S
C371 C4 1.601 . S
