# Generated by pormake.
# Topology uof, (4)-cn, num edge types: 1
# Building blocks:
#     Node 0, Type 0, BuildingBlock: QUQFOY_clean_sbu_1, # of connection points: 4
#     Node 1, Type 0, BuildingBlock: QUQFOY_clean_sbu_1, # of connection points: 4
#     Node 2, Type 0, BuildingBlock: QUQFOY_clean_sbu_1, # of connection points: 4
#     Node 3, Type 0, BuildingBlock: QUQFOY_clean_sbu_1, # of connection points: 4
#     Node 4, Type 0, BuildingBlock: QUQFOY_clean_sbu_1, # of connection points: 4
#     Node 5, Type 0, BuildingBlock: QUQFOY_clean_sbu_1, # of connection points: 4
#     Node 6, Type 0, BuildingBlock: QUQFOY_clean_sbu_1, # of connection points: 4
#     Node 7, Type 0, BuildingBlock: QUQFOY_clean_sbu_1, # of connection points: 4
#     Node 8, Type 0, BuildingBlock: QUQFOY_clean_sbu_1, # of connection points: 4
#     Node 9, Type 0, BuildingBlock: QUQFOY_clean_sbu_1, # of connection points: 4
#     Node 10, Type 0, BuildingBlock: QUQFOY_clean_sbu_1, # of connection points: 4
#     Node 11, Type 0, BuildingBlock: QUQFOY_clean_sbu_1, # of connection points: 4
#     Edge 12, Type (0, 0), BuildingBlock: XIVTED_clean_linker_0, # of connection points: 2
#     Edge 13, Type (0, 0), BuildingBlock: XIVTED_clean_linker_0, # of connection points: 2
#     Edge 14, Type (0, 0), BuildingBlock: XIVTED_clean_linker_0, # of connection points: 2
#     Edge 15, Type (0, 0), BuildingBlock: XIVTED_clean_linker_0, # of connection points: 2
#     Edge 16, Type (0, 0), BuildingBlock: XIVTED_clean_linker_0, # of connection points: 2
#     Edge 17, Type (0, 0), BuildingBlock: XIVTED_clean_linker_0, # of connection points: 2
#     Edge 18, Type (0, 0), BuildingBlock: XIVTED_clean_linker_0, # of connection points: 2
#     Edge 19, Type (0, 0), BuildingBlock: XIVTED_clean_linker_0, # of connection points: 2
#     Edge 20, Type (0, 0), BuildingBlock: XIVTED_clean_linker_0, # of connection points: 2
#     Edge 21, Type (0, 0), BuildingBlock: XIVTED_clean_linker_0, # of connection points: 2
#     Edge 22, Type (0, 0), BuildingBlock: XIVTED_clean_linker_0, # of connection points: 2
#     Edge 23, Type (0, 0), BuildingBlock: XIVTED_clean_linker_0, # of connection points: 2
#     Edge 24, Type (0, 0), BuildingBlock: XIVTED_clean_linker_0, # of connection points: 2
#     Edge 25, Type (0, 0), BuildingBlock: XIVTED_clean_linker_0, # of connection points: 2
#     Edge 26, Type (0, 0), BuildingBlock: XIVTED_clean_linker_0, # of connection points: 2
#     Edge 27, Type (0, 0), BuildingBlock: XIVTED_clean_linker_0, # of connection points: 2
#     Edge 28, Type (0, 0), BuildingBlock: XIVTED_clean_linker_0, # of connection points: 2
#     Edge 29, Type (0, 0), BuildingBlock: XIVTED_clean_linker_0, # of connection points: 2
#     Edge 30, Type (0, 0), BuildingBlock: XIVTED_clean_linker_0, # of connection points: 2
#     Edge 31, Type (0, 0), BuildingBlock: XIVTED_clean_linker_0, # of connection points: 2
#     Edge 32, Type (0, 0), BuildingBlock: XIVTED_clean_linker_0, # of connection points: 2
#     Edge 33, Type (0, 0), BuildingBlock: XIVTED_clean_linker_0, # of connection points: 2
#     Edge 34, Type (0, 0), BuildingBlock: XIVTED_clean_linker_0, # of connection points: 2
#     Edge 35, Type (0, 0), BuildingBlock: XIVTED_clean_linker_0, # of connection points: 2
# Relax obj value: 0.156
# Max RMSD: 0.159
# Mean RMSD: 0.159
data_MOF--net-uof--node1-QUQFOY_clean_sbu_1--edge1-XIVTED_clean_linker_0
_symmetry_space_group_name_H-M    P1
_symmetry_Int_Tables_number       1
_symmetry_cell_setting            triclinic
loop_
_symmetry_equiv_pos_as_xyz
'x, y, z'
_cell_length_a     32.30135
_cell_length_b     32.304189
_cell_length_c     73.497082
_cell_angle_alpha  89.995591
_cell_angle_beta   89.992731
_cell_angle_gamma 119.97196
loop_
_atom_site_label
_atom_site_type_symbol
_atom_site_fract_x
_atom_site_fract_y
_atom_site_fract_z
_atom_type_partial_charge
O0 O 0.30891 0.35651 0.23199 0.0
Cd1 Cd 0.24439 0.29602 0.23777 0.0
Cd2 Cd 0.22678 0.33669 0.20397 0.0
O3 O 0.29612 0.39122 0.20834 0.0
O4 O 0.26589 0.26869 0.25754 0.0
O5 O 0.21273 0.29121 0.2622 0.0
C6 C 0.23793 0.27368 0.2686 0.0
C7 C 0.16185 0.34532 0.19541 0.0
C8 C 0.32385 0.39029 0.22044 0.0
C9 C 0.21314 0.2377 0.20287 0.0
O10 O 0.21938 0.2742 0.1941 0.0
O11 O 0.21767 0.2389 0.22006 0.0
O12 O 0.19689 0.35593 0.18441 0.0
O13 O 0.16589 0.33414 0.21195 0.0
O14 O 0.94795 0.30649 0.56323 0.0
Cd15 Cd 0.94395 0.24231 0.56961 0.0
Cd16 Cd 0.88741 0.22383 0.5351 0.0
O17 O 0.90204 0.29329 0.53904 0.0
O18 O 0.99172 0.26459 0.58978 0.0
O19 O 0.91596 0.21124 0.59403 0.0
C20 C 0.9583 0.23681 0.60071 0.0
C21 C 0.81434 0.15941 0.52577 0.0
C22 C 0.92985 0.32122 0.55128 0.0
C23 C 0.97317 0.21041 0.53541 0.0
O24 O 0.94308 0.21597 0.52621 0.0
O25 O 0.97576 0.21563 0.55258 0.0
O26 O 0.84011 0.19433 0.51492 0.0
O27 O 0.82799 0.16324 0.54254 0.0
O28 O 0.65272 0.9623 0.89544 0.0
Cd29 Cd 0.70754 0.95031 0.90284 0.0
Cd30 Cd 0.66424 0.88891 0.87185 0.0
O31 O 0.60843 0.90151 0.87722 0.0
O32 O 0.73709 0.99824 0.92281 0.0
O33 O 0.70576 0.92097 0.92747 0.0
C34 C 0.72679 0.96382 0.93396 0.0
C35 C 0.65725 0.81575 0.86362 0.0
C36 C 0.61494 0.93811 0.88612 0.0
C37 C 0.76343 0.97189 0.86846 0.0
O38 O 0.72448 0.94437 0.86035 0.0
O39 O 0.76515 0.9741 0.8857 0.0
O40 O 0.64362 0.83816 0.85285 0.0
O41 O 0.67057 0.83263 0.87986 0.0
O42 O 0.69379 0.64208 0.23002 0.0
Cd43 Cd 0.75833 0.70257 0.23573 0.0
Cd44 Cd 0.77545 0.66264 0.2017 0.0
O45 O 0.70641 0.60766 0.20624 0.0
O46 O 0.73712 0.72932 0.25581 0.0
O47 O 0.79059 0.70699 0.25999 0.0
C48 C 0.76537 0.72419 0.26666 0.0
C49 C 0.84057 0.65462 0.19284 0.0
C50 C 0.67879 0.60836 0.21844 0.0
C51 C 0.78846 0.76137 0.20095 0.0
O52 O 0.78211 0.72503 0.19204 0.0
O53 O 0.78447 0.75996 0.21816 0.0
O54 O 0.80527 0.64382 0.18196 0.0
O55 O 0.83677 0.66573 0.20942 0.0
O56 O 0.04907 0.69162 0.56308 0.0
Cd57 Cd 0.05377 0.75647 0.56873 0.0
Cd58 Cd 0.11183 0.77328 0.53514 0.0
O59 O 0.09666 0.70381 0.53953 0.0
O60 O 0.00592 0.73589 0.58883 0.0
O61 O 0.08193 0.78866 0.59294 0.0
C62 C 0.03953 0.76384 0.59966 0.0
C63 C 0.18563 0.83817 0.52687 0.0
C64 C 0.06778 0.67632 0.55162 0.0
C65 C 0.02686 0.78762 0.53383 0.0
O66 O 0.05713 0.78119 0.52515 0.0
O67 O 0.02328 0.78313 0.55101 0.0
O68 O 0.16143 0.80335 0.51576 0.0
O69 O 0.17003 0.83386 0.54336 0.0
O70 O 0.34702 0.03724 0.89528 0.0
Cd71 Cd 0.29284 0.0502 0.90273 0.0
Cd72 Cd 0.3371 0.11232 0.87215 0.0
O73 O 0.39245 0.09916 0.87772 0.0
O74 O 0.26257 0.0024 0.9227 0.0
O75 O 0.29525 0.07985 0.92733 0.0
C76 C 0.27355 0.03702 0.93384 0.0
C77 C 0.34472 0.18575 0.86393 0.0
C78 C 0.38527 0.06186 0.88627 0.0
C79 C 0.23774 0.0305 0.86826 0.0
O80 O 0.27708 0.0575 0.8603 0.0
O81 O 0.2356 0.02797 0.8855 0.0
O82 O 0.3591 0.16367 0.85333 0.0
O83 O 0.33032 0.16841 0.88005 0.0
O84 O 0.64401 0.69104 0.43633 0.0
Cd85 Cd 0.70412 0.75563 0.43033 0.0
Cd86 Cd 0.66371 0.7744 0.46376 0.0
O87 O 0.60928 0.70484 0.45971 0.0
O88 O 0.7311 0.73456 0.41028 0.0
O89 O 0.7081 0.78751 0.40604 0.0
C90 C 0.72563 0.76255 0.39939 0.0
C91 C 0.65462 0.83919 0.47215 0.0
C92 C 0.61026 0.67655 0.44788 0.0
C93 C 0.76276 0.78796 0.46507 0.0
O94 O 0.72637 0.78241 0.47374 0.0
O95 O 0.76146 0.78253 0.44793 0.0
O96 O 0.64428 0.80437 0.48323 0.0
O97 O 0.66579 0.83497 0.45563 0.0
O98 O 0.95522 0.6475 0.77069 0.0
Cd99 Cd 0.95032 0.70695 0.76386 0.0
Cd100 Cd 0.89326 0.66906 0.79875 0.0
O101 O 0.90957 0.61519 0.79499 0.0
O102 O 0.99768 0.73213 0.74355 0.0
O103 O 0.92165 0.70892 0.73947 0.0
C104 C 0.96393 0.72595 0.73269 0.0
C105 C 0.82031 0.65878 0.80929 0.0
C106 C 0.93759 0.6151 0.78282 0.0
C107 C 0.97808 0.76934 0.79764 0.0
O108 O 0.94809 0.73391 0.80696 0.0
O109 O 0.98139 0.76603 0.78055 0.0
O110 O 0.84799 0.65118 0.81968 0.0
O111 O 0.83191 0.6678 0.79232 0.0
O112 O 0.30898 0.95193 0.10375 0.0
Cd113 Cd 0.24429 0.94742 0.09794 0.0
Cd114 Cd 0.22742 0.89017 0.13196 0.0
O115 O 0.29685 0.90516 0.12757 0.0
O116 O 0.26548 0.99523 0.07782 0.0
O117 O 0.21226 0.91939 0.07367 0.0
C118 C 0.23746 0.96175 0.06696 0.0
C119 C 0.16294 0.81674 0.14092 0.0
C120 C 0.3243 0.93359 0.11536 0.0
C121 C 0.21332 0.97539 0.13266 0.0
O122 O 0.2197 0.94534 0.14152 0.0
O123 O 0.21773 0.97841 0.11546 0.0
O124 O 0.19813 0.84172 0.15178 0.0
O125 O 0.16657 0.83135 0.1243 0.0
O126 O 0.35834 0.3062 0.43779 0.0
Cd127 Cd 0.29758 0.24166 0.43232 0.0
Cd128 Cd 0.33821 0.22553 0.46642 0.0
O129 O 0.39296 0.29456 0.46174 0.0
O130 O 0.27016 0.26307 0.41256 0.0
O131 O 0.29239 0.20969 0.40792 0.0
C132 C 0.27497 0.23497 0.40152 0.0
C133 C 0.34642 0.16026 0.47478 0.0
C134 C 0.39214 0.32166 0.44934 0.0
C135 C 0.2393 0.21172 0.46731 0.0
O136 O 0.27583 0.21862 0.47622 0.0
O137 O 0.24056 0.21539 0.45009 0.0
O138 O 0.35727 0.19519 0.48587 0.0
O139 O 0.33514 0.16457 0.45828 0.0
O140 O 0.05148 0.36004 0.77087 0.0
Cd141 Cd 0.05295 0.29852 0.76448 0.0
Cd142 Cd 0.11002 0.33561 0.79943 0.0
O143 O 0.09608 0.39103 0.79551 0.0
O144 O 0.00488 0.27421 0.7444 0.0
O145 O 0.07995 0.29397 0.74004 0.0
C146 C 0.03771 0.27839 0.73344 0.0
C147 C 0.18274 0.34319 0.80874 0.0
C148 C 0.06952 0.3924 0.783 0.0
C149 C 0.02335 0.23681 0.79863 0.0
O150 O 0.05404 0.27184 0.80792 0.0
O151 O 0.0203 0.24015 0.78152 0.0
O152 O 0.15708 0.35233 0.81968 0.0
O153 O 0.16923 0.33406 0.79194 0.0
O154 O 0.69398 0.0527 0.10416 0.0
Cd155 Cd 0.75788 0.05585 0.09796 0.0
Cd156 Cd 0.77659 0.11293 0.13235 0.0
O157 O 0.70734 0.09887 0.12828 0.0
O158 O 0.73522 0.00792 0.07785 0.0
O159 O 0.78956 0.08334 0.07358 0.0
C160 C 0.76354 0.04105 0.06693 0.0
C161 C 0.84146 0.18583 0.14157 0.0
C162 C 0.67939 0.07112 0.11603 0.0
C163 C 0.789 0.02657 0.13235 0.0
O164 O 0.78377 0.05703 0.14144 0.0
O165 O 0.78385 0.02375 0.11519 0.0
O166 O 0.80639 0.1605 0.15243 0.0
O167 O 0.83755 0.17188 0.12485 0.0
H168 H 0.92503 0.2429 0.12308 0.0
H169 H 0.07816 0.31679 0.21412 0.0
H170 H 0.86287 0.21711 0.17677 0.0
H171 H 0.1402 0.35771 0.16053 0.0
H172 H 0.99931 0.29031 0.20093 0.0
H173 H 0.0037 0.2949 0.13646 0.0
C174 C 0.92772 0.24892 0.13764 0.0
C175 C 0.88725 0.22508 0.14882 0.0
C176 C 0.03027 0.30585 0.19208 0.0
C177 C 0.9775 0.28399 0.16431 0.0
C178 C 0.0754 0.32117 0.19964 0.0
C179 C 0.1159 0.33901 0.18841 0.0
C180 C 0.02546 0.30789 0.17313 0.0
C181 C 0.11 0.34383 0.16973 0.0
C182 C 0.97275 0.27853 0.1453 0.0
C183 C 0.89305 0.23438 0.16761 0.0
N184 N 0.06563 0.32767 0.16265 0.0
N185 N 0.93734 0.26243 0.17477 0.0
H186 H 0.75636 0.07612 0.54426 0.0
H187 H 0.68328 0.92271 0.45332 0.0
H188 H 0.78352 0.1381 0.49051 0.0
H189 H 0.64163 0.86097 0.50692 0.0
H190 H 0.70965 0.00163 0.46641 0.0
H191 H 0.70409 0.99753 0.53087 0.0
C192 C 0.75058 0.07341 0.52969 0.0
C193 C 0.7749 0.11379 0.5185 0.0
C194 C 0.69396 0.97073 0.47528 0.0
C195 C 0.71568 0.02363 0.50301 0.0
C196 C 0.6787 0.92555 0.46778 0.0
C197 C 0.66072 0.88512 0.47904 0.0
C198 C 0.69172 0.97564 0.49422 0.0
C199 C 0.65564 0.89112 0.4977 0.0
C200 C 0.72081 0.02842 0.52202 0.0
C201 C 0.76589 0.10798 0.49969 0.0
N202 N 0.67176 0.93553 0.50473 0.0
N203 N 0.73768 0.06372 0.49252 0.0
H204 H 0.63908 0.77767 0.8293 0.0
H205 H 0.79206 0.64834 0.84493 0.0
H206 H 0.69328 0.76583 0.88154 0.0
H207 H 0.76013 0.68342 0.79205 0.0
H208 H 0.73992 0.67406 0.8588 0.0
H209 H 0.66681 0.72641 0.81611 0.0
C210 C 0.65591 0.7635 0.83811 0.0
C211 C 0.66434 0.77664 0.85655 0.0
C212 C 0.7437 0.67543 0.84414 0.0
C213 C 0.69668 0.71814 0.84141 0.0
C214 C 0.77333 0.6605 0.83617 0.0
C215 C 0.78104 0.66424 0.81727 0.0
C216 C 0.72148 0.69428 0.83318 0.0
C217 C 0.75558 0.68018 0.80667 0.0
C218 C 0.67197 0.73438 0.83052 0.0
C219 C 0.68626 0.75697 0.86725 0.0
N220 N 0.72744 0.69516 0.81478 0.0
N221 N 0.70218 0.72922 0.85948 0.0
H222 H 0.86114 0.64072 0.158 0.0
H223 H 0.14269 0.78284 0.17584 0.0
H224 H 0.92517 0.68497 0.21114 0.0
H225 H 0.07853 0.76148 0.12266 0.0
H226 H 0.06372 0.73044 0.18881 0.0
H227 H 0.94027 0.6678 0.14507 0.0
C228 C 0.89168 0.6552 0.16704 0.0
C229 C 0.88644 0.66109 0.18569 0.0
C230 C 0.06698 0.73658 0.17426 0.0
C231 C 0.97744 0.69268 0.17087 0.0
C232 C 0.11216 0.76635 0.1668 0.0
C233 C 0.1173 0.77714 0.14813 0.0
C234 C 0.02648 0.71733 0.163 0.0
C235 C 0.07633 0.75451 0.13713 0.0
C236 C 0.93695 0.6709 0.1596 0.0
C237 C 0.92745 0.68001 0.19668 0.0
N238 N 0.03261 0.72619 0.14476 0.0
N239 N 0.97124 0.69566 0.18908 0.0
H240 H 0.31877 0.07725 0.45574 0.0
H241 H 0.24107 0.92111 0.54593 0.0
H242 H 0.35776 0.13759 0.50963 0.0
H243 H 0.21966 0.86082 0.49202 0.0
H244 H 0.29356 1.00032 0.53306 0.0
H245 H 0.29225 0.99806 0.4686 0.0
C246 C 0.32271 0.07405 0.47022 0.0
C247 C 0.34002 0.11416 0.48162 0.0
C248 C 0.27807 0.96967 0.52407 0.0
C249 C 0.30885 0.02333 0.49653 0.0
C250 C 0.24818 0.92433 0.53144 0.0
C251 C 0.22539 0.88422 0.52004 0.0
C252 C 0.28483 0.97508 0.50512 0.0
C253 C 0.23608 0.8907 0.50135 0.0
C254 C 0.30739 0.02872 0.47759 0.0
C255 C 0.3443 0.1077 0.5003 0.0
N256 N 0.26433 0.93528 0.49446 0.0
N257 N 0.32811 0.06314 0.5072 0.0
H258 H 0.37499 0.23223 0.83127 0.0
H259 H 0.23991 0.31737 0.79003 0.0
H260 H 0.29771 0.2276 0.87982 0.0
H261 H 0.21346 0.35139 0.844 0.0
H262 H 0.29169 0.29041 0.80297 0.0
H263 H 0.34918 0.28359 0.81695 0.0
C264 C 0.35295 0.24244 0.839 0.0
C265 C 0.33788 0.22485 0.85669 0.0
C266 C 0.27599 0.30512 0.81204 0.0
C267 C 0.30619 0.28223 0.84003 0.0
C268 C 0.24607 0.32044 0.80458 0.0
C269 C 0.22199 0.33647 0.81591 0.0
C270 C 0.2819 0.3057 0.83105 0.0
C271 C 0.23111 0.33919 0.8347 0.0
C272 C 0.33756 0.27132 0.83069 0.0
C273 C 0.30991 0.23992 0.86611 0.0
N274 N 0.25963 0.32324 0.84168 0.0
N275 N 0.29448 0.26717 0.85758 0.0
H276 H 0.6222 0.5555 0.18984 0.0
H277 H 0.38478 0.41938 0.24928 0.0
H278 H 0.61789 0.5803 0.24732 0.0
H279 H 0.38052 0.44125 0.19156 0.0
H280 H 0.47156 0.47067 0.2487 0.0
H281 H 0.53479 0.50391 0.19006 0.0
C282 C 0.60299 0.54948 0.20254 0.0
C283 C 0.62731 0.57216 0.21859 0.0
C284 C 0.45165 0.46458 0.23618 0.0
C285 C 0.52776 0.51371 0.2189 0.0
C286 C 0.40211 0.43542 0.2365 0.0
C287 C 0.37538 0.42625 0.22046 0.0
C288 C 0.47492 0.48406 0.21962 0.0
C289 C 0.39975 0.44783 0.20427 0.0
C290 C 0.55316 0.52055 0.20261 0.0
C291 C 0.60059 0.56362 0.23463 0.0
N292 N 0.4483 0.47538 0.20421 0.0
N293 N 0.55236 0.53503 0.23438 0.0
H294 H 0.03549 0.61607 0.58063 0.0
H295 H 0.93487 0.37705 0.52217 0.0
H296 H 0.06202 0.61888 0.52298 0.0
H297 H 0.96164 0.38291 0.57989 0.0
H298 H 0.97092 0.46451 0.52194 0.0
H299 H 0.99967 0.5293 0.58038 0.0
C300 C 0.0342 0.59841 0.56794 0.0
C301 C 0.05197 0.62473 0.55182 0.0
C302 C 0.96862 0.44646 0.53463 0.0
C303 C 0.00991 0.52516 0.55136 0.0
C304 C 0.94759 0.39661 0.53482 0.0
C305 C 0.94524 0.37272 0.55108 0.0
C306 C 0.98661 0.4723 0.55088 0.0
C307 C 0.96283 0.39987 0.56704 0.0
C308 C 0.01365 0.54887 0.5678 0.0
C309 C 0.04921 0.59995 0.53575 0.0
N310 N 0.98263 0.4481 0.56654 0.0
N311 N 0.02806 0.55139 0.53587 0.0
H312 H 0.4815 0.1133 0.87852 0.0
H313 H 0.51897 0.88683 0.87783 0.0
H314 H 0.36783 0.97103 0.89133 0.0
H315 H 0.63189 0.02849 0.89183 0.0
H316 H 0.46276 0.91728 0.87681 0.0
H317 H 0.53758 0.08275 0.87742 0.0
C318 C 0.46835 0.07572 0.88103 0.0
C319 C 0.42007 0.04478 0.88519 0.0
C320 C 0.49992 0.94155 0.88008 0.0
C321 C 0.48353 0.00959 0.88363 0.0
C322 C 0.53193 0.92425 0.88062 0.0
C323 C 0.58003 0.95505 0.88509 0.0
C324 C 0.51646 0.99013 0.88361 0.0
C325 C 0.59499 0.00333 0.88854 0.0
C326 C 0.50029 0.05835 0.88044 0.0
C327 C 0.40487 0.99629 0.88829 0.0
N328 N 0.56341 0.01942 0.88765 0.0
N329 N 0.43641 0.98015 0.88736 0.0
H330 H 0.55707 0.62198 0.47683 0.0
H331 H 0.42209 0.38037 0.41985 0.0
H332 H 0.58321 0.61346 0.41974 0.0
H333 H 0.44281 0.38027 0.47783 0.0
H334 H 0.4737 0.4671 0.41957 0.0
H335 H 0.50574 0.53457 0.47749 0.0
C336 C 0.55141 0.60184 0.46439 0.0
C337 C 0.57436 0.62499 0.4482 0.0
C338 C 0.46731 0.44811 0.43234 0.0
C339 C 0.5162 0.52543 0.4489 0.0
C340 C 0.43796 0.39861 0.43251 0.0
C341 C 0.42836 0.37308 0.44888 0.0
C342 C 0.48653 0.47257 0.44872 0.0
C343 C 0.44973 0.39857 0.46489 0.0
C344 C 0.52263 0.55202 0.46483 0.0
C345 C 0.5663 0.59709 0.43253 0.0
N346 N 0.47745 0.44708 0.46445 0.0
N347 N 0.53783 0.54888 0.43326 0.0
H348 H 0.9398 0.56234 0.81187 0.0
H349 H 0.04442 0.4267 0.75381 0.0
H350 H 0.97302 0.58748 0.75465 0.0
H351 H 0.06086 0.44114 0.8121 0.0
H352 H 0.01109 0.4798 0.75399 0.0
H353 H 0.97512 0.51025 0.81237 0.0
C354 C 0.95388 0.5564 0.79939 0.0
C355 C 0.9534 0.57923 0.78319 0.0
C356 C 0.02233 0.47175 0.76674 0.0
C357 C 0.99397 0.52021 0.7837 0.0
C358 C 0.04147 0.44151 0.76665 0.0
C359 C 0.0556 0.42963 0.78296 0.0
C360 C 0.01633 0.48971 0.78331 0.0
C361 C 0.05084 0.44979 0.7992 0.0
C362 C 0.97447 0.52715 0.79973 0.0
C363 C 0.97269 0.57073 0.76746 0.0
N364 N 0.03107 0.47849 0.79901 0.0
N365 N 0.99202 0.54188 0.7681 0.0
H366 H 0.38465 0.96537 0.08636 0.0
H367 H 0.62349 0.06657 0.14504 0.0
H368 H 0.3817 0.93989 0.1441 0.0
H369 H 0.6179 0.03953 0.08735 0.0
H370 H 0.53605 0.03073 0.14519 0.0
H371 H 0.47143 0.00126 0.08668 0.0
C372 C 0.40228 0.96689 0.09909 0.0
C373 C 0.3759 0.9494 0.11522 0.0
C374 C 0.55415 0.03293 0.13252 0.0
C375 C 0.47551 0.99155 0.11575 0.0
C376 C 0.60399 0.05386 0.13238 0.0
C377 C 0.62795 0.05605 0.11615 0.0
C378 C 0.52838 0.01488 0.11627 0.0
C379 C 0.60088 0.03846 0.10017 0.0
C380 C 0.45183 0.9875 0.09927 0.0
C381 C 0.40066 0.95248 0.13133 0.0
N382 N 0.55265 0.01874 0.10063 0.0
N383 N 0.44923 0.97366 0.13124 0.0
H384 H 0.2014 0.04745 0.11872 0.0
H385 H 0.2002 0.15327 0.2167 0.0
H386 H 0.20191 0.97978 0.16936 0.0
H387 H 0.20284 0.22266 0.16611 0.0
H388 H 0.19084 0.08449 0.19954 0.0
H389 H 0.19196 0.10696 0.13581 0.0
C390 C 0.19914 0.04484 0.13341 0.0
C391 C 0.2031 0.00893 0.14263 0.0
C392 C 0.19309 0.11462 0.1922 0.0
C393 C 0.19247 0.07701 0.16226 0.0
C394 C 0.19843 0.15392 0.20199 0.0
C395 C 0.20295 0.19407 0.19282 0.0
C396 C 0.19243 0.11553 0.1731 0.0
C397 C 0.20001 0.19271 0.17375 0.0
C398 C 0.19375 0.07885 0.14317 0.0
C399 C 0.19955 0.00713 0.16168 0.0
N400 N 0.19536 0.15425 0.16452 0.0
N401 N 0.19486 0.04096 0.17087 0.0
H402 H 0.04609 0.2011 0.55011 0.0
H403 H 0.1544 0.19626 0.45304 0.0
H404 H 0.97837 0.19695 0.49892 0.0
H405 H 0.2242 0.20414 0.50412 0.0
H406 H 0.08495 0.18665 0.46978 0.0
H407 H 0.10685 0.19231 0.53364 0.0
C408 C 0.04373 0.19793 0.53543 0.0
C409 C 0.00742 0.2004 0.52586 0.0
C410 C 0.11532 0.19012 0.47732 0.0
C411 C 0.07695 0.19053 0.50695 0.0
C412 C 0.15502 0.19562 0.46777 0.0
C413 C 0.19545 0.20163 0.47719 0.0
C414 C 0.1161 0.1908 0.49643 0.0
C415 C 0.19402 0.2001 0.49628 0.0
C416 C 0.07847 0.19293 0.52603 0.0
C417 C 0.00599 0.19575 0.50685 0.0
N418 N 0.15514 0.19525 0.50527 0.0
N419 N 0.04052 0.19145 0.49801 0.0
H420 H 0.94716 0.15691 0.78406 0.0
H421 H 0.85257 0.03554 0.8812 0.0
H422 H 0.02227 0.21491 0.83462 0.0
H423 H 0.77196 0.98203 0.83141 0.0
H424 H 0.92024 0.09485 0.8636 0.0
H425 H 0.88778 0.08636 0.80049 0.0
C426 C 0.95141 0.15467 0.79858 0.0
C427 C 0.98941 0.19218 0.80802 0.0
C428 C 0.88789 0.06988 0.8565 0.0
C429 C 0.92161 0.11163 0.82687 0.0
C430 C 0.84921 0.03595 0.86654 0.0
C431 C 0.80628 0.00421 0.85779 0.0
C432 C 0.88357 0.07224 0.83758 0.0
C433 C 0.8042 0.00613 0.83875 0.0
C434 C 0.91748 0.11438 0.80795 0.0
C435 C 0.99326 0.18716 0.82681 0.0
N436 N 0.84218 0.03996 0.82929 0.0
N437 N 0.95956 0.1478 0.83563 0.0
H438 H 0.79871 0.95369 0.11787 0.0
H439 H 0.80226 0.84574 0.21517 0.0
H440 H 0.80148 0.02133 0.16892 0.0
H441 H 0.79703 0.77675 0.16418 0.0
H442 H 0.81138 0.91491 0.19836 0.0
H443 H 0.80749 0.89317 0.13451 0.0
C444 C 0.80155 0.95607 0.13257 0.0
C445 C 0.79874 0.99231 0.14203 0.0
C446 C 0.8086 0.88478 0.19085 0.0
C447 C 0.80862 0.92306 0.16115 0.0
C448 C 0.80339 0.84524 0.20044 0.0
C449 C 0.79827 0.80512 0.19106 0.0
C450 C 0.80853 0.88412 0.17175 0.0
C451 C 0.80038 0.80669 0.17198 0.0
C452 C 0.80655 0.92148 0.14206 0.0
C453 C 0.80298 0.99378 0.16106 0.0
N454 N 0.80494 0.84538 0.16295 0.0
N455 N 0.8073 0.95939 0.17 0.0
H456 H 0.77868 0.80225 0.5017 0.0
H457 H 0.02477 0.80097 0.49715 0.0
H458 H 0.84614 0.79738 0.45161 0.0
H459 H 0.95346 0.79805 0.54727 0.0
H460 H 0.96518 0.81062 0.48028 0.0
H461 H 0.84788 0.8117 0.51855 0.0
C462 C 0.80819 0.80353 0.49422 0.0
C463 C 0.80631 0.79835 0.47523 0.0
C464 C 0.96277 0.80824 0.49498 0.0
C465 C 0.88557 0.80903 0.49446 0.0
C466 C 0.99679 0.8027 0.50464 0.0
C467 C 0.99373 0.79803 0.52365 0.0
C468 C 0.92532 0.80895 0.50439 0.0
C469 C 0.95697 0.80104 0.53261 0.0
C470 C 0.84771 0.80894 0.50386 0.0
C471 C 0.84582 0.80077 0.46626 0.0
N472 N 0.92393 0.80588 0.52288 0.0
N473 N 0.88367 0.8055 0.47598 0.0
H474 H 0.14777 0.96833 0.8807 0.0
H475 H 0.0539 0.84979 0.78318 0.0
H476 H 0.22978 0.02153 0.83118 0.0
H477 H 0.97786 0.79127 0.83354 0.0
H478 H 0.11301 0.92015 0.79978 0.0
H479 H 0.07969 0.91076 0.86283 0.0
C480 C 0.15137 0.96822 0.86604 0.0
C481 C 0.1948 0.99929 0.85744 0.0
C482 C 0.08313 0.89208 0.80715 0.0
C483 C 0.11701 0.93328 0.83692 0.0
C484 C 0.04934 0.85191 0.79769 0.0
C485 C 0.01128 0.81424 0.80704 0.0
C486 C 0.07877 0.89451 0.82607 0.0
C487 C 0.00698 0.81912 0.82581 0.0
C488 C 0.11244 0.9353 0.85585 0.0
C489 C 0.19716 0.99786 0.8384 0.0
N490 N 0.04058 0.85832 0.83473 0.0
N491 N 0.15892 0.96498 0.82878 0.0
H492 H 0.22724 0.27543 0.3858 0.0
H493 H 0.27842 0.22596 0.28432 0.0
H494 H 0.29439 0.19232 0.37294 0.0
H495 H 0.19502 0.29282 0.29716 0.0
H496 H 0.2818 0.21052 0.3166 0.0
H497 H 0.21228 0.27928 0.35351 0.0
C498 C 0.2386 0.25769 0.37618 0.0
C499 C 0.26244 0.23377 0.38208 0.0
C500 C 0.26243 0.22824 0.31239 0.0
C501 C 0.24559 0.23834 0.34497 0.0
C502 C 0.26053 0.23717 0.29393 0.0
C503 C 0.23665 0.26105 0.28803 0.0
C504 C 0.24066 0.24364 0.32513 0.0
C505 C 0.21391 0.27443 0.30111 0.0
C506 C 0.22995 0.25987 0.35772 0.0
C507 C 0.27601 0.21122 0.36899 0.0
N508 N 0.21683 0.26591 0.31907 0.0
N509 N 0.26777 0.21443 0.35103 0.0
H510 H 0.89491 0.19506 0.62896 0.0
H511 H 0.1001 0.29461 0.70529 0.0
H512 H 0.04572 0.27728 0.61701 0.0
H513 H 0.95013 0.23558 0.71715 0.0
H514 H 0.08044 0.27909 0.67288 0.0
H515 H 0.91412 0.20007 0.66145 0.0
C516 C 0.93201 0.21378 0.63315 0.0
C517 C 0.96872 0.23606 0.62027 0.0
C518 C 0.05185 0.26935 0.68261 0.0
C519 C 0.99099 0.24197 0.65735 0.0
C520 C 0.06306 0.2781 0.7011 0.0
C521 C 0.02678 0.2667 0.71393 0.0
C522 C 0.00399 0.24882 0.67693 0.0
C523 C 0.97934 0.24529 0.70773 0.0
C524 C 0.94298 0.21678 0.65169 0.0
C525 C 0.01623 0.25988 0.62647 0.0
N526 N 0.96935 0.23719 0.6897 0.0
N527 N 0.02597 0.26232 0.64454 0.0
H528 H 0.81019 0.10379 0.0389 0.0
H529 H 0.70057 0.89975 0.9622 0.0
H530 H 0.7186 0.95376 0.05044 0.0
H531 H 0.77729 0.05085 0.95042 0.0
H532 H 0.71441 0.91834 0.99472 0.0
H533 H 0.80609 0.08458 0.00645 0.0
C534 C 0.78953 0.06683 0.03464 0.0
C535 C 0.76445 0.0304 0.04739 0.0
C536 C 0.72842 0.94741 0.98499 0.0
C537 C 0.75953 0.00813 0.01034 0.0
C538 C 0.72061 0.93678 0.96643 0.0
C539 C 0.73749 0.97377 0.95358 0.0
C540 C 0.75342 0.99536 0.99072 0.0
C541 C 0.76331 0.02115 0.95985 0.0
C542 C 0.7871 0.05587 0.01612 0.0
C543 C 0.73825 0.98308 0.04109 0.0
N544 N 0.77031 0.03057 0.97795 0.0
N545 N 0.73635 0.97336 0.02303 0.0
H546 H 0.80975 0.70528 0.29475 0.0
H547 H 0.70657 0.80679 0.37131 0.0
H548 H 0.72408 0.77034 0.28303 0.0
H549 H 0.77218 0.72162 0.38304 0.0
H550 H 0.72208 0.80319 0.33887 0.0
H551 H 0.80576 0.7204 0.32721 0.0
C552 C 0.79048 0.72309 0.29898 0.0
C553 C 0.76691 0.7362 0.28618 0.0
C554 C 0.73332 0.78554 0.34857 0.0
C555 C 0.76212 0.75358 0.32323 0.0
C556 C 0.72457 0.7877 0.36709 0.0
C557 C 0.73774 0.76417 0.37988 0.0
C558 C 0.75558 0.75985 0.34284 0.0
C559 C 0.76103 0.73998 0.37364 0.0
C560 C 0.78808 0.7316 0.3175 0.0
C561 C 0.74247 0.75924 0.29243 0.0
N562 N 0.76903 0.73829 0.35558 0.0
N563 N 0.74057 0.76701 0.31049 0.0
H564 H 0.10325 0.80788 0.62762 0.0
H565 H 0.90002 0.70585 0.70474 0.0
H566 H 0.95234 0.72279 0.61624 0.0
H567 H 0.05097 0.77139 0.71602 0.0
H568 H 0.91846 0.72057 0.67222 0.0
H569 H 0.08469 0.80385 0.66013 0.0
C570 C 0.06624 0.78873 0.63193 0.0
C571 C 0.02934 0.76536 0.61921 0.0
C572 C 0.94753 0.73193 0.68184 0.0
C573 C 0.00781 0.76049 0.65633 0.0
C574 C 0.937 0.72362 0.7004 0.0
C575 C 0.97395 0.73708 0.7131 0.0
C576 C 0.99535 0.75406 0.67597 0.0
C577 C 0.02128 0.76005 0.7067 0.0
C578 C 0.05564 0.7863 0.65049 0.0
C579 C 0.98199 0.74106 0.62557 0.0
N580 N 0.03059 0.76766 0.68861 0.0
N581 N 0.97261 0.7391 0.64367 0.0
H582 H 0.19135 0.89839 0.03906 0.0
H583 H 0.29992 0.10143 0.96196 0.0
H584 H 0.281 0.04885 0.05031 0.0
H585 H 0.22297 0.95017 0.95046 0.0
H586 H 0.28605 0.08327 0.99449 0.0
H587 H 0.19521 0.91706 0.00656 0.0
C588 C 0.2115 0.93533 0.03472 0.0
C589 C 0.23614 0.97205 0.04741 0.0
C590 C 0.27199 0.05407 0.98483 0.0
C591 C 0.24083 0.99371 0.0103 0.0
C592 C 0.27983 0.06445 0.96626 0.0
C593 C 0.26287 0.0273 0.95348 0.0
C594 C 0.24694 0.00619 0.99065 0.0
C595 C 0.23699 0.98 0.95983 0.0
C596 C 0.21381 0.94599 0.01617 0.0
C597 C 0.26171 0.01932 0.04101 0.0
N598 N 0.23 0.97082 0.97795 0.0
N599 N 0.26353 0.02874 0.02293 0.0
loop_
_geom_bond_atom_site_label_1
_geom_bond_atom_site_label_2
_geom_bond_distance
_geom_bond_site_symmetry_2
_ccdc_geom_bond_type
O0 Cd1 2.223 . S
O0 C8 1.315 . S
Cd1 O0 2.223 . S
Cd1 O4 2.297 . S
Cd1 O5 2.439 . S
Cd1 O11 2.240 . S
Cd2 O3 2.240 . S
Cd2 O10 2.223 . S
Cd2 O12 2.297 . S
Cd2 O13 2.439 . S
O3 Cd2 2.240 . S
O3 C8 1.279 . S
O4 Cd1 2.297 . S
O4 C6 1.247 . S
O5 Cd1 2.439 . S
O5 C6 1.208 . S
C6 O4 1.247 . S
C6 O5 1.208 . S
C7 O12 1.247 . S
C7 O13 1.208 . S
C8 O0 1.315 . S
C8 O3 1.279 . S
C9 O10 1.315 . S
C9 O11 1.279 . S
O10 Cd2 2.223 . S
O10 C9 1.315 . S
O11 Cd1 2.240 . S
O11 C9 1.279 . S
O12 Cd2 2.297 . S
O12 C7 1.247 . S
O13 Cd2 2.439 . S
O13 C7 1.208 . S
O14 Cd15 2.223 . S
O14 C22 1.315 1_455 S
Cd15 O14 2.223 . S
Cd15 O18 2.297 . S
Cd15 O19 2.439 1_455 S
Cd15 O25 2.240 . S
Cd16 O17 2.240 . S
Cd16 O24 2.223 . S
Cd16 O26 2.297 . S
Cd16 O27 2.439 . S
O17 Cd16 2.240 . S
O17 C22 1.279 . S
O18 Cd15 2.297 . S
O18 C20 1.247 1_455 S
O19 Cd15 2.439 1_655 S
O19 C20 1.208 . S
C20 O18 1.247 1_655 S
C20 O19 1.208 . S
C21 O26 1.247 . S
C21 O27 1.208 . S
C22 O14 1.315 1_655 S
C22 O17 1.279 . S
C23 O24 1.315 1_455 S
C23 O25 1.279 . S
O24 Cd16 2.223 . S
O24 C23 1.315 1_655 S
O25 Cd15 2.240 . S
O25 C23 1.279 . S
O26 Cd16 2.297 . S
O26 C21 1.247 . S
O27 Cd16 2.439 . S
O27 C21 1.208 . S
O28 Cd29 2.223 . S
O28 C36 1.315 1_545 S
Cd29 O28 2.223 . S
Cd29 O32 2.297 . S
Cd29 O33 2.439 1_545 S
Cd29 O39 2.240 . S
Cd30 O31 2.240 . S
Cd30 O38 2.223 . S
Cd30 O40 2.297 . S
Cd30 O41 2.439 . S
O31 Cd30 2.240 . S
O31 C36 1.279 . S
O32 Cd29 2.297 . S
O32 C34 1.247 1_545 S
O33 Cd29 2.439 1_565 S
O33 C34 1.208 . S
C34 O32 1.247 1_565 S
C34 O33 1.208 . S
C35 O40 1.247 . S
C35 O41 1.208 . S
C36 O28 1.315 1_565 S
C36 O31 1.279 . S
C37 O38 1.315 1_545 S
C37 O39 1.279 . S
O38 Cd30 2.223 . S
O38 C37 1.315 1_565 S
O39 Cd29 2.240 . S
O39 C37 1.279 . S
O40 Cd30 2.297 . S
O40 C35 1.247 . S
O41 Cd30 2.439 . S
O41 C35 1.208 . S
O42 Cd43 2.223 . S
O42 C50 1.315 . S
Cd43 O42 2.223 . S
Cd43 O46 2.297 . S
Cd43 O47 2.439 . S
Cd43 O53 2.240 . S
Cd44 O45 2.240 . S
Cd44 O52 2.223 . S
Cd44 O54 2.297 . S
Cd44 O55 2.439 . S
O45 Cd44 2.240 . S
O45 C50 1.279 . S
O46 Cd43 2.297 . S
O46 C48 1.247 . S
O47 Cd43 2.439 . S
O47 C48 1.208 . S
C48 O46 1.247 . S
C48 O47 1.208 . S
C49 O54 1.247 . S
C49 O55 1.208 . S
C50 O42 1.315 . S
C50 O45 1.279 . S
C51 O52 1.315 . S
C51 O53 1.279 . S
O52 Cd44 2.223 . S
O52 C51 1.315 . S
O53 Cd43 2.240 . S
O53 C51 1.279 . S
O54 Cd44 2.297 . S
O54 C49 1.247 . S
O55 Cd44 2.439 . S
O55 C49 1.208 . S
O56 Cd57 2.223 . S
O56 C64 1.315 1_655 S
Cd57 O56 2.223 . S
Cd57 O60 2.297 . S
Cd57 O61 2.439 1_655 S
Cd57 O67 2.240 . S
Cd58 O59 2.240 . S
Cd58 O66 2.223 . S
Cd58 O68 2.297 . S
Cd58 O69 2.439 . S
O59 Cd58 2.240 . S
O59 C64 1.279 . S
O60 Cd57 2.297 . S
O60 C62 1.247 1_655 S
O61 Cd57 2.439 1_455 S
O61 C62 1.208 . S
C62 O60 1.247 1_455 S
C62 O61 1.208 . S
C63 O68 1.247 . S
C63 O69 1.208 . S
C64 O56 1.315 1_455 S
C64 O59 1.279 . S
C65 O66 1.315 1_655 S
C65 O67 1.279 . S
O66 Cd58 2.223 . S
O66 C65 1.315 1_455 S
O67 Cd57 2.240 . S
O67 C65 1.279 . S
O68 Cd58 2.297 . S
O68 C63 1.247 . S
O69 Cd58 2.439 . S
O69 C63 1.208 . S
O70 Cd71 2.223 . S
O70 C78 1.315 1_565 S
Cd71 O70 2.223 . S
Cd71 O74 2.297 . S
Cd71 O75 2.439 1_565 S
Cd71 O81 2.240 . S
Cd72 O73 2.240 . S
Cd72 O80 2.223 . S
Cd72 O82 2.297 . S
Cd72 O83 2.439 . S
O73 Cd72 2.240 . S
O73 C78 1.279 . S
O74 Cd71 2.297 . S
O74 C76 1.247 1_565 S
O75 Cd71 2.439 1_545 S
O75 C76 1.208 . S
C76 O74 1.247 1_545 S
C76 O75 1.208 . S
C77 O82 1.247 . S
C77 O83 1.208 . S
C78 O70 1.315 1_545 S
C78 O73 1.279 . S
C79 O80 1.315 1_565 S
C79 O81 1.279 . S
O80 Cd72 2.223 . S
O80 C79 1.315 1_545 S
O81 Cd71 2.240 . S
O81 C79 1.279 . S
O82 Cd72 2.297 . S
O82 C77 1.247 . S
O83 Cd72 2.439 . S
O83 C77 1.208 . S
O84 Cd85 2.223 . S
O84 C92 1.315 . S
Cd85 O84 2.223 . S
Cd85 O88 2.297 . S
Cd85 O89 2.439 . S
Cd85 O95 2.240 . S
Cd86 O87 2.240 . S
Cd86 O94 2.223 . S
Cd86 O96 2.297 . S
Cd86 O97 2.439 . S
O87 Cd86 2.240 . S
O87 C92 1.279 . S
O88 Cd85 2.297 . S
O88 C90 1.247 . S
O89 Cd85 2.439 . S
O89 C90 1.208 . S
C90 O88 1.247 . S
C90 O89 1.208 . S
C91 O96 1.247 . S
C91 O97 1.208 . S
C92 O84 1.315 . S
C92 O87 1.279 . S
C93 O94 1.315 . S
C93 O95 1.279 . S
O94 Cd86 2.223 . S
O94 C93 1.315 . S
O95 Cd85 2.240 . S
O95 C93 1.279 . S
O96 Cd86 2.297 . S
O96 C91 1.247 . S
O97 Cd86 2.439 . S
O97 C91 1.208 . S
O98 Cd99 2.223 . S
O98 C106 1.315 1_455 S
Cd99 O98 2.223 . S
Cd99 O102 2.297 . S
Cd99 O103 2.439 1_455 S
Cd99 O109 2.240 . S
Cd100 O101 2.240 . S
Cd100 O108 2.223 . S
Cd100 O110 2.297 . S
Cd100 O111 2.439 . S
O101 Cd100 2.240 . S
O101 C106 1.279 . S
O102 Cd99 2.297 . S
O102 C104 1.247 1_455 S
O103 Cd99 2.439 1_655 S
O103 C104 1.208 . S
C104 O102 1.247 1_655 S
C104 O103 1.208 . S
C105 O110 1.247 . S
C105 O111 1.208 . S
C106 O98 1.315 1_655 S
C106 O101 1.279 . S
C107 O108 1.315 1_455 S
C107 O109 1.279 . S
O108 Cd100 2.223 . S
O108 C107 1.315 1_655 S
O109 Cd99 2.240 . S
O109 C107 1.279 . S
O110 Cd100 2.297 . S
O110 C105 1.247 . S
O111 Cd100 2.439 . S
O111 C105 1.208 . S
O112 Cd113 2.223 . S
O112 C120 1.315 1_545 S
Cd113 O112 2.223 . S
Cd113 O116 2.297 . S
Cd113 O117 2.439 1_545 S
Cd113 O123 2.240 . S
Cd114 O115 2.240 . S
Cd114 O122 2.223 . S
Cd114 O124 2.297 . S
Cd114 O125 2.439 . S
O115 Cd114 2.240 . S
O115 C120 1.279 . S
O116 Cd113 2.297 . S
O116 C118 1.247 1_545 S
O117 Cd113 2.439 1_565 S
O117 C118 1.208 . S
C118 O116 1.247 1_565 S
C118 O117 1.208 . S
C119 O124 1.247 . S
C119 O125 1.208 . S
C120 O112 1.315 1_565 S
C120 O115 1.279 . S
C121 O122 1.315 1_545 S
C121 O123 1.279 . S
O122 Cd114 2.223 . S
O122 C121 1.315 1_565 S
O123 Cd113 2.240 . S
O123 C121 1.279 . S
O124 Cd114 2.297 . S
O124 C119 1.247 . S
O125 Cd114 2.439 . S
O125 C119 1.208 . S
O126 Cd127 2.223 . S
O126 C134 1.315 . S
Cd127 O126 2.223 . S
Cd127 O130 2.297 . S
Cd127 O131 2.439 . S
Cd127 O137 2.240 . S
Cd128 O129 2.240 . S
Cd128 O136 2.223 . S
Cd128 O138 2.297 . S
Cd128 O139 2.439 . S
O129 Cd128 2.240 . S
O129 C134 1.279 . S
O130 Cd127 2.297 . S
O130 C132 1.247 . S
O131 Cd127 2.439 . S
O131 C132 1.208 . S
C132 O130 1.247 . S
C132 O131 1.208 . S
C133 O138 1.247 . S
C133 O139 1.208 . S
C134 O126 1.315 . S
C134 O129 1.279 . S
C135 O136 1.315 . S
C135 O137 1.279 . S
O136 Cd128 2.223 . S
O136 C135 1.315 . S
O137 Cd127 2.240 . S
O137 C135 1.279 . S
O138 Cd128 2.297 . S
O138 C133 1.247 . S
O139 Cd128 2.439 . S
O139 C133 1.208 . S
O140 Cd141 2.223 . S
O140 C148 1.315 1_655 S
Cd141 O140 2.223 . S
Cd141 O144 2.297 . S
Cd141 O145 2.439 1_655 S
Cd141 O151 2.240 . S
Cd142 O143 2.240 . S
Cd142 O150 2.223 . S
Cd142 O152 2.297 . S
Cd142 O153 2.439 . S
O143 Cd142 2.240 . S
O143 C148 1.279 . S
O144 Cd141 2.297 . S
O144 C146 1.247 1_655 S
O145 Cd141 2.439 1_455 S
O145 C146 1.208 . S
C146 O144 1.247 1_455 S
C146 O145 1.208 . S
C147 O152 1.247 . S
C147 O153 1.208 . S
C148 O140 1.315 1_455 S
C148 O143 1.279 . S
C149 O150 1.315 1_655 S
C149 O151 1.279 . S
O150 Cd142 2.223 . S
O150 C149 1.315 1_455 S
O151 Cd141 2.240 . S
O151 C149 1.279 . S
O152 Cd142 2.297 . S
O152 C147 1.247 . S
O153 Cd142 2.439 . S
O153 C147 1.208 . S
O154 Cd155 2.223 . S
O154 C162 1.315 1_565 S
Cd155 O154 2.223 . S
Cd155 O158 2.297 . S
Cd155 O159 2.439 1_565 S
Cd155 O165 2.240 . S
Cd156 O157 2.240 . S
Cd156 O164 2.223 . S
Cd156 O166 2.297 . S
Cd156 O167 2.439 . S
O157 Cd156 2.240 . S
O157 C162 1.279 . S
O158 Cd155 2.297 . S
O158 C160 1.247 1_565 S
O159 Cd155 2.439 1_545 S
O159 C160 1.208 . S
C160 O158 1.247 1_545 S
C160 O159 1.208 . S
C161 O166 1.247 . S
C161 O167 1.208 . S
C162 O154 1.315 1_545 S
C162 O157 1.279 . S
C163 O164 1.315 1_565 S
C163 O165 1.279 . S
O164 Cd156 2.223 . S
O164 C163 1.315 1_545 S
O165 Cd155 2.240 . S
O165 C163 1.279 . S
O166 Cd156 2.297 . S
O166 C161 1.247 . S
O167 Cd156 2.439 . S
O167 C161 1.208 . S
H168 C174 0.930 . S
H169 C178 0.930 . S
H170 C183 0.929 . S
H171 C181 0.929 . S
H172 C176 0.929 1_655 S
H173 C182 0.929 1_455 S
C174 H168 0.930 . S
C174 C175 1.367 . S
C174 C182 1.378 . S
C175 C174 1.367 . S
C175 C183 1.433 . S
C176 H172 0.929 1_455 S
C176 C178 1.378 . S
C176 C180 1.350 . S
C177 C180 1.463 1_655 S
C177 C182 1.350 . S
C177 N185 1.427 . S
C178 H169 0.930 . S
C178 C176 1.378 . S
C178 C179 1.367 . S
C179 C178 1.367 . S
C179 C181 1.433 . S
C180 C176 1.350 . S
C180 C177 1.463 1_455 S
C180 N184 1.427 . S
C181 H171 0.929 . S
C181 C179 1.433 . S
C181 N184 1.384 . S
C182 H173 0.929 1_655 S
C182 C174 1.378 . S
C182 C177 1.350 . S
C183 H170 0.929 . S
C183 C175 1.433 . S
C183 N185 1.384 . S
N184 C180 1.427 . S
N184 C181 1.384 . S
N185 C177 1.427 . S
N185 C183 1.384 . S
H186 C192 0.930 . S
H187 C196 0.930 . S
H188 C201 0.929 . S
H189 C199 0.929 . S
H190 C194 0.929 . S
H191 C200 0.929 . S
C192 H186 0.930 . S
C192 C193 1.367 . S
C192 C200 1.378 . S
C193 C192 1.367 . S
C193 C201 1.433 . S
C194 H190 0.929 . S
C194 C196 1.378 . S
C194 C198 1.350 . S
C195 C198 1.463 1_545 S
C195 C200 1.350 . S
C195 N203 1.427 . S
C196 H187 0.930 . S
C196 C194 1.378 . S
C196 C197 1.367 . S
C197 C196 1.367 . S
C197 C199 1.433 . S
C198 C194 1.350 . S
C198 C195 1.463 1_565 S
C198 N202 1.427 . S
C199 H189 0.929 . S
C199 C197 1.433 . S
C199 N202 1.384 . S
C200 H191 0.929 . S
C200 C192 1.378 . S
C200 C195 1.350 . S
C201 H188 0.929 . S
C201 C193 1.433 . S
C201 N203 1.384 . S
N202 C198 1.427 . S
N202 C199 1.384 . S
N203 C195 1.427 . S
N203 C201 1.384 . S
H204 C210 0.930 . S
H205 C214 0.930 . S
H206 C219 0.929 . S
H207 C217 0.929 . S
H208 C212 0.929 . S
H209 C218 0.929 . S
C210 H204 0.930 . S
C210 C211 1.367 . S
C210 C218 1.378 . S
C211 C210 1.367 . S
C211 C219 1.433 . S
C212 H208 0.929 . S
C212 C214 1.378 . S
C212 C216 1.350 . S
C213 C216 1.463 . S
C213 C218 1.350 . S
C213 N221 1.427 . S
C214 H205 0.930 . S
C214 C212 1.378 . S
C214 C215 1.367 . S
C215 C214 1.367 . S
C215 C217 1.433 . S
C216 C212 1.350 . S
C216 C213 1.463 . S
C216 N220 1.427 . S
C217 H207 0.929 . S
C217 C215 1.433 . S
C217 N220 1.384 . S
C218 H209 0.929 . S
C218 C210 1.378 . S
C218 C213 1.350 . S
C219 H206 0.929 . S
C219 C211 1.433 . S
C219 N221 1.384 . S
N220 C216 1.427 . S
N220 C217 1.384 . S
N221 C213 1.427 . S
N221 C219 1.384 . S
H222 C228 0.930 . S
H223 C232 0.930 . S
H224 C237 0.929 . S
H225 C235 0.929 . S
H226 C230 0.929 . S
H227 C236 0.929 . S
C228 H222 0.930 . S
C228 C229 1.367 . S
C228 C236 1.378 . S
C229 C228 1.367 . S
C229 C237 1.433 . S
C230 H226 0.929 . S
C230 C232 1.378 . S
C230 C234 1.350 . S
C231 C234 1.463 1_655 S
C231 C236 1.350 . S
C231 N239 1.427 . S
C232 H223 0.930 . S
C232 C230 1.378 . S
C232 C233 1.367 . S
C233 C232 1.367 . S
C233 C235 1.433 . S
C234 C230 1.350 . S
C234 C231 1.463 1_455 S
C234 N238 1.427 . S
C235 H225 0.929 . S
C235 C233 1.433 . S
C235 N238 1.384 . S
C236 H227 0.929 . S
C236 C228 1.378 . S
C236 C231 1.350 . S
C237 H224 0.929 . S
C237 C229 1.433 . S
C237 N239 1.384 . S
N238 C234 1.427 . S
N238 C235 1.384 . S
N239 C231 1.427 . S
N239 C237 1.384 . S
H240 C246 0.930 . S
H241 C250 0.930 . S
H242 C255 0.929 . S
H243 C253 0.929 . S
H244 C248 0.928 1_545 S
H245 C254 0.928 1_565 S
C246 H240 0.930 . S
C246 C247 1.367 . S
C246 C254 1.378 . S
C247 C246 1.367 . S
C247 C255 1.433 . S
C248 H244 0.928 1_565 S
C248 C250 1.378 . S
C248 C252 1.350 . S
C249 C252 1.463 1_545 S
C249 C254 1.350 . S
C249 N257 1.427 . S
C250 H241 0.930 . S
C250 C248 1.378 . S
C250 C251 1.367 . S
C251 C250 1.367 . S
C251 C253 1.433 . S
C252 C248 1.350 . S
C252 C249 1.463 1_565 S
C252 N256 1.427 . S
C253 H243 0.929 . S
C253 C251 1.433 . S
C253 N256 1.384 . S
C254 H245 0.928 1_545 S
C254 C246 1.378 . S
C254 C249 1.350 . S
C255 H242 0.929 . S
C255 C247 1.433 . S
C255 N257 1.384 . S
N256 C252 1.427 . S
N256 C253 1.384 . S
N257 C249 1.427 . S
N257 C255 1.384 . S
H258 C264 0.930 . S
H259 C268 0.930 . S
H260 C273 0.929 . S
H261 C271 0.929 . S
H262 C266 0.929 . S
H263 C272 0.929 . S
C264 H258 0.930 . S
C264 C265 1.367 . S
C264 C272 1.378 . S
C265 C264 1.367 . S
C265 C273 1.433 . S
C266 H262 0.929 . S
C266 C268 1.378 . S
C266 C270 1.350 . S
C267 C270 1.463 . S
C267 C272 1.350 . S
C267 N275 1.427 . S
C268 H259 0.930 . S
C268 C266 1.378 . S
C268 C269 1.367 . S
C269 C268 1.367 . S
C269 C271 1.433 . S
C270 C266 1.350 . S
C270 C267 1.463 . S
C270 N274 1.427 . S
C271 H261 0.929 . S
C271 C269 1.433 . S
C271 N274 1.384 . S
C272 H263 0.929 . S
C272 C264 1.378 . S
C272 C267 1.350 . S
C273 H260 0.929 . S
C273 C265 1.433 . S
C273 N275 1.384 . S
N274 C270 1.427 . S
N274 C271 1.384 . S
N275 C267 1.427 . S
N275 C273 1.384 . S
H276 C282 0.930 . S
H277 C286 0.930 . S
H278 C291 0.929 . S
H279 C289 0.929 . S
H280 C284 0.929 . S
H281 C290 0.929 . S
C282 H276 0.930 . S
C282 C283 1.367 . S
C282 C290 1.378 . S
C283 C282 1.367 . S
C283 C291 1.433 . S
C284 H280 0.929 . S
C284 C286 1.378 . S
C284 C288 1.350 . S
C285 C288 1.463 . S
C285 C290 1.350 . S
C285 N293 1.427 . S
C286 H277 0.930 . S
C286 C284 1.378 . S
C286 C287 1.367 . S
C287 C286 1.367 . S
C287 C289 1.433 . S
C288 C284 1.350 . S
C288 C285 1.463 . S
C288 N292 1.427 . S
C289 H279 0.929 . S
C289 C287 1.433 . S
C289 N292 1.384 . S
C290 H281 0.929 . S
C290 C282 1.378 . S
C290 C285 1.350 . S
C291 H278 0.929 . S
C291 C283 1.433 . S
C291 N293 1.384 . S
N292 C288 1.427 . S
N292 C289 1.384 . S
N293 C285 1.427 . S
N293 C291 1.384 . S
H294 C300 0.930 . S
H295 C304 0.930 . S
H296 C309 0.928 . S
H297 C307 0.928 . S
H298 C302 0.929 . S
H299 C308 0.929 . S
C300 H294 0.930 . S
C300 C301 1.367 . S
C300 C308 1.378 . S
C301 C300 1.367 . S
C301 C309 1.433 . S
C302 H298 0.929 . S
C302 C304 1.378 . S
C302 C306 1.350 . S
C303 C306 1.463 1_455 S
C303 C308 1.350 . S
C303 N311 1.427 1_455 S
C304 H295 0.930 . S
C304 C302 1.378 . S
C304 C305 1.367 . S
C305 C304 1.367 . S
C305 C307 1.433 . S
C306 C302 1.350 . S
C306 C303 1.463 1_655 S
C306 N310 1.427 1_655 S
C307 H297 0.928 . S
C307 C305 1.433 . S
C307 N310 1.384 1_655 S
C308 H299 0.929 . S
C308 C300 1.378 . S
C308 C303 1.350 . S
C309 H296 0.928 . S
C309 C301 1.433 . S
C309 N311 1.384 1_455 S
N310 C306 1.427 1_455 S
N310 C307 1.384 1_455 S
N311 C303 1.427 1_655 S
N311 C309 1.384 1_655 S
H312 C318 0.930 . S
H313 C322 0.930 . S
H314 C327 0.929 . S
H315 C325 0.929 . S
H316 C320 0.929 . S
H317 C326 0.929 . S
C318 H312 0.930 . S
C318 C319 1.367 . S
C318 C326 1.378 . S
C319 C318 1.367 . S
C319 C327 1.433 1_545 S
C320 H316 0.929 . S
C320 C322 1.378 . S
C320 C324 1.350 . S
C321 C324 1.463 1_545 S
C321 C326 1.350 . S
C321 N329 1.427 1_545 S
C322 H313 0.930 . S
C322 C320 1.378 . S
C322 C323 1.367 . S
C323 C322 1.367 . S
C323 C325 1.433 1_565 S
C324 C320 1.350 . S
C324 C321 1.463 1_565 S
C324 N328 1.427 1_565 S
C325 H315 0.929 . S
C325 C323 1.433 1_545 S
C325 N328 1.384 . S
C326 H317 0.929 . S
C326 C318 1.378 . S
C326 C321 1.350 . S
C327 H314 0.929 . S
C327 C319 1.433 1_565 S
C327 N329 1.384 . S
N328 C324 1.427 1_545 S
N328 C325 1.384 . S
N329 C321 1.427 1_565 S
N329 C327 1.384 . S
H330 C336 0.930 . S
H331 C340 0.930 . S
H332 C345 0.929 . S
H333 C343 0.929 . S
H334 C338 0.929 . S
H335 C344 0.929 . S
C336 H330 0.930 . S
C336 C337 1.367 . S
C336 C344 1.378 . S
C337 C336 1.367 . S
C337 C345 1.433 . S
C338 H334 0.929 . S
C338 C340 1.378 . S
C338 C342 1.350 . S
C339 C342 1.463 . S
C339 C344 1.350 . S
C339 N347 1.427 . S
C340 H331 0.930 . S
C340 C338 1.378 . S
C340 C341 1.367 . S
C341 C340 1.367 . S
C341 C343 1.433 . S
C342 C338 1.350 . S
C342 C339 1.463 . S
C342 N346 1.427 . S
C343 H333 0.929 . S
C343 C341 1.433 . S
C343 N346 1.384 . S
C344 H335 0.929 . S
C344 C336 1.378 . S
C344 C339 1.350 . S
C345 H332 0.929 . S
C345 C337 1.433 . S
C345 N347 1.384 . S
N346 C342 1.427 . S
N346 C343 1.384 . S
N347 C339 1.427 . S
N347 C345 1.384 . S
H348 C354 0.930 . S
H349 C358 0.930 . S
H350 C363 0.929 . S
H351 C361 0.929 . S
H352 C356 0.929 . S
H353 C362 0.929 . S
C354 H348 0.930 . S
C354 C355 1.367 1_455 S
C354 C362 1.378 . S
C355 C354 1.367 1_655 S
C355 C363 1.433 . S
C356 H352 0.929 . S
C356 C358 1.378 . S
C356 C360 1.350 1_655 S
C357 C360 1.463 1_655 S
C357 C362 1.350 1_655 S
C357 N365 1.427 . S
C358 H349 0.930 . S
C358 C356 1.378 . S
C358 C359 1.367 1_655 S
C359 C358 1.367 1_455 S
C359 C361 1.433 . S
C360 C356 1.350 1_455 S
C360 C357 1.463 1_455 S
C360 N364 1.427 . S
C361 H351 0.929 . S
C361 C359 1.433 . S
C361 N364 1.384 . S
C362 H353 0.929 . S
C362 C354 1.378 . S
C362 C357 1.350 1_455 S
C363 H350 0.929 . S
C363 C355 1.433 . S
C363 N365 1.384 . S
N364 C360 1.427 . S
N364 C361 1.384 . S
N365 C357 1.427 . S
N365 C363 1.384 . S
H366 C372 0.930 . S
H367 C376 0.930 . S
H368 C381 0.929 . S
H369 C379 0.929 . S
H370 C374 0.925 . S
H371 C380 0.925 . S
C372 H366 0.930 . S
C372 C373 1.367 . S
C372 C380 1.378 . S
C373 C372 1.367 . S
C373 C381 1.433 . S
C374 H370 0.925 . S
C374 C376 1.378 . S
C374 C378 1.350 . S
C375 C378 1.463 1_565 S
C375 C380 1.350 . S
C375 N383 1.427 . S
C376 H367 0.930 . S
C376 C374 1.378 . S
C376 C377 1.367 . S
C377 C376 1.367 . S
C377 C379 1.433 . S
C378 C374 1.350 . S
C378 C375 1.463 1_545 S
C378 N382 1.427 . S
C379 H369 0.929 . S
C379 C377 1.433 . S
C379 N382 1.384 . S
C380 H371 0.925 . S
C380 C372 1.378 . S
C380 C375 1.350 . S
C381 H368 0.929 . S
C381 C373 1.433 . S
C381 N383 1.384 . S
N382 C378 1.427 . S
N382 C379 1.384 . S
N383 C375 1.427 . S
N383 C381 1.384 . S
H384 C390 0.930 . S
H385 C394 0.930 . S
H386 C399 0.929 . S
H387 C397 0.929 . S
H388 C392 0.929 . S
H389 C398 0.929 . S
C390 H384 0.930 . S
C390 C391 1.367 . S
C390 C398 1.378 . S
C391 C390 1.367 . S
C391 C399 1.433 . S
C392 H388 0.929 . S
C392 C394 1.378 . S
C392 C396 1.350 . S
C393 C396 1.463 . S
C393 C398 1.350 . S
C393 N401 1.427 . S
C394 H385 0.930 . S
C394 C392 1.378 . S
C394 C395 1.367 . S
C395 C394 1.367 . S
C395 C397 1.433 . S
C396 C392 1.350 . S
C396 C393 1.463 . S
C396 N400 1.427 . S
C397 H387 0.929 . S
C397 C395 1.433 . S
C397 N400 1.384 . S
C398 H389 0.929 . S
C398 C390 1.378 . S
C398 C393 1.350 . S
C399 H386 0.929 . S
C399 C391 1.433 . S
C399 N401 1.384 . S
N400 C396 1.427 . S
N400 C397 1.384 . S
N401 C393 1.427 . S
N401 C399 1.384 . S
H402 C408 0.930 . S
H403 C412 0.930 . S
H404 C417 0.929 . S
H405 C415 0.929 . S
H406 C410 0.929 . S
H407 C416 0.929 . S
C408 H402 0.930 . S
C408 C409 1.367 . S
C408 C416 1.378 . S
C409 C408 1.367 . S
C409 C417 1.433 . S
C410 H406 0.929 . S
C410 C412 1.378 . S
C410 C414 1.350 . S
C411 C414 1.463 . S
C411 C416 1.350 . S
C411 N419 1.427 . S
C412 H403 0.930 . S
C412 C410 1.378 . S
C412 C413 1.367 . S
C413 C412 1.367 . S
C413 C415 1.433 . S
C414 C410 1.350 . S
C414 C411 1.463 . S
C414 N418 1.427 . S
C415 H405 0.929 . S
C415 C413 1.433 . S
C415 N418 1.384 . S
C416 H407 0.929 . S
C416 C408 1.378 . S
C416 C411 1.350 . S
C417 H404 0.929 . S
C417 C409 1.433 . S
C417 N419 1.384 . S
N418 C414 1.427 . S
N418 C415 1.384 . S
N419 C411 1.427 . S
N419 C417 1.384 . S
H420 C426 0.930 . S
H421 C430 0.930 . S
H422 C435 0.929 . S
H423 C433 0.929 . S
H424 C428 0.929 . S
H425 C434 0.929 . S
C426 H420 0.930 . S
C426 C427 1.367 . S
C426 C434 1.378 . S
C427 C426 1.367 . S
C427 C435 1.433 . S
C428 H424 0.929 . S
C428 C430 1.378 . S
C428 C432 1.350 . S
C429 C432 1.463 . S
C429 C434 1.350 . S
C429 N437 1.427 . S
C430 H421 0.930 . S
C430 C428 1.378 . S
C430 C431 1.367 . S
C431 C430 1.367 . S
C431 C433 1.433 . S
C432 C428 1.350 . S
C432 C429 1.463 . S
C432 N436 1.427 . S
C433 H423 0.929 . S
C433 C431 1.433 . S
C433 N436 1.384 . S
C434 H425 0.929 . S
C434 C426 1.378 . S
C434 C429 1.350 . S
C435 H422 0.929 . S
C435 C427 1.433 . S
C435 N437 1.384 . S
N436 C432 1.427 . S
N436 C433 1.384 . S
N437 C429 1.427 . S
N437 C435 1.384 . S
H438 C444 0.930 . S
H439 C448 0.930 . S
H440 C453 0.929 . S
H441 C451 0.929 . S
H442 C446 0.929 . S
H443 C452 0.929 . S
C444 H438 0.930 . S
C444 C445 1.367 . S
C444 C452 1.378 . S
C445 C444 1.367 . S
C445 C453 1.433 . S
C446 H442 0.929 . S
C446 C448 1.378 . S
C446 C450 1.350 . S
C447 C450 1.463 . S
C447 C452 1.350 . S
C447 N455 1.427 . S
C448 H439 0.930 . S
C448 C446 1.378 . S
C448 C449 1.367 . S
C449 C448 1.367 . S
C449 C451 1.433 . S
C450 C446 1.350 . S
C450 C447 1.463 . S
C450 N454 1.427 . S
C451 H441 0.929 . S
C451 C449 1.433 . S
C451 N454 1.384 . S
C452 H443 0.929 . S
C452 C444 1.378 . S
C452 C447 1.350 . S
C453 H440 0.929 . S
C453 C445 1.433 . S
C453 N455 1.384 . S
N454 C450 1.427 . S
N454 C451 1.384 . S
N455 C447 1.427 . S
N455 C453 1.384 . S
H456 C462 0.930 . S
H457 C466 0.930 . S
H458 C471 0.929 . S
H459 C469 0.929 . S
H460 C464 0.929 . S
H461 C470 0.929 . S
C462 H456 0.930 . S
C462 C463 1.367 . S
C462 C470 1.378 . S
C463 C462 1.367 . S
C463 C471 1.433 . S
C464 H460 0.929 . S
C464 C466 1.378 . S
C464 C468 1.350 . S
C465 C468 1.463 . S
C465 C470 1.350 . S
C465 N473 1.427 . S
C466 H457 0.930 . S
C466 C464 1.378 . S
C466 C467 1.367 . S
C467 C466 1.367 . S
C467 C469 1.433 . S
C468 C464 1.350 . S
C468 C465 1.463 . S
C468 N472 1.427 . S
C469 H459 0.929 . S
C469 C467 1.433 . S
C469 N472 1.384 . S
C470 H461 0.929 . S
C470 C462 1.378 . S
C470 C465 1.350 . S
C471 H458 0.929 . S
C471 C463 1.433 . S
C471 N473 1.384 . S
N472 C468 1.427 . S
N472 C469 1.384 . S
N473 C465 1.427 . S
N473 C471 1.384 . S
H474 C480 0.930 . S
H475 C484 0.930 . S
H476 C489 0.929 . S
H477 C487 0.929 . S
H478 C482 0.929 . S
H479 C488 0.929 . S
C480 H474 0.930 . S
C480 C481 1.367 . S
C480 C488 1.378 . S
C481 C480 1.367 . S
C481 C489 1.433 . S
C482 H478 0.929 . S
C482 C484 1.378 . S
C482 C486 1.350 . S
C483 C486 1.463 . S
C483 C488 1.350 . S
C483 N491 1.427 . S
C484 H475 0.930 . S
C484 C482 1.378 . S
C484 C485 1.367 . S
C485 C484 1.367 . S
C485 C487 1.433 . S
C486 C482 1.350 . S
C486 C483 1.463 . S
C486 N490 1.427 . S
C487 H477 0.929 . S
C487 C485 1.433 . S
C487 N490 1.384 . S
C488 H479 0.929 . S
C488 C480 1.378 . S
C488 C483 1.350 . S
C489 H476 0.929 . S
C489 C481 1.433 . S
C489 N491 1.384 . S
N490 C486 1.427 . S
N490 C487 1.384 . S
N491 C483 1.427 . S
N491 C489 1.384 . S
H492 C498 0.930 . S
H493 C502 0.930 . S
H494 C507 0.929 . S
H495 C505 0.929 . S
H496 C500 0.929 . S
H497 C506 0.929 . S
C498 H492 0.930 . S
C498 C499 1.367 . S
C498 C506 1.378 . S
C499 C498 1.367 . S
C499 C507 1.433 . S
C500 H496 0.929 . S
C500 C502 1.378 . S
C500 C504 1.350 . S
C501 C504 1.463 . S
C501 C506 1.350 . S
C501 N509 1.427 . S
C502 H493 0.930 . S
C502 C500 1.378 . S
C502 C503 1.367 . S
C503 C502 1.367 . S
C503 C505 1.433 . S
C504 C500 1.350 . S
C504 C501 1.463 . S
C504 N508 1.427 . S
C505 H495 0.929 . S
C505 C503 1.433 . S
C505 N508 1.384 . S
C506 H497 0.929 . S
C506 C498 1.378 . S
C506 C501 1.350 . S
C507 H494 0.929 . S
C507 C499 1.433 . S
C507 N509 1.384 . S
N508 C504 1.427 . S
N508 C505 1.384 . S
N509 C501 1.427 . S
N509 C507 1.384 . S
H510 C516 0.930 . S
H511 C520 0.930 . S
H512 C525 0.929 . S
H513 C523 0.929 . S
H514 C518 0.929 . S
H515 C524 0.929 . S
C516 H510 0.930 . S
C516 C517 1.367 . S
C516 C524 1.378 . S
C517 C516 1.367 . S
C517 C525 1.433 . S
C518 H514 0.929 . S
C518 C520 1.378 . S
C518 C522 1.350 . S
C519 C522 1.463 1_655 S
C519 C524 1.350 . S
C519 N527 1.427 . S
C520 H511 0.930 . S
C520 C518 1.378 . S
C520 C521 1.367 . S
C521 C520 1.367 . S
C521 C523 1.433 . S
C522 C518 1.350 . S
C522 C519 1.463 1_455 S
C522 N526 1.427 . S
C523 H513 0.929 . S
C523 C521 1.433 . S
C523 N526 1.384 . S
C524 H515 0.929 . S
C524 C516 1.378 . S
C524 C519 1.350 . S
C525 H512 0.929 . S
C525 C517 1.433 . S
C525 N527 1.384 . S
N526 C522 1.427 . S
N526 C523 1.384 . S
N527 C519 1.427 . S
N527 C525 1.384 . S
H528 C534 0.930 . S
H529 C538 0.930 . S
H530 C543 0.929 . S
H531 C541 0.929 . S
H532 C536 0.929 . S
H533 C542 0.929 . S
C534 H528 0.930 . S
C534 C535 1.367 . S
C534 C542 1.378 . S
C535 C534 1.367 . S
C535 C543 1.433 . S
C536 H532 0.929 . S
C536 C538 1.378 . S
C536 C540 1.350 . S
C537 C540 1.463 1_544 S
C537 C542 1.350 . S
C537 N545 1.427 . S
C538 H529 0.930 . S
C538 C536 1.378 . S
C538 C539 1.367 . S
C539 C538 1.367 . S
C539 C541 1.433 . S
C540 C536 1.350 . S
C540 C537 1.463 1_566 S
C540 N544 1.427 . S
C541 H531 0.929 . S
C541 C539 1.433 . S
C541 N544 1.384 . S
C542 H533 0.929 . S
C542 C534 1.378 . S
C542 C537 1.350 . S
C543 H530 0.929 . S
C543 C535 1.433 . S
C543 N545 1.384 . S
N544 C540 1.427 . S
N544 C541 1.384 . S
N545 C537 1.427 . S
N545 C543 1.384 . S
H546 C552 0.930 . S
H547 C556 0.930 . S
H548 C561 0.929 . S
H549 C559 0.929 . S
H550 C554 0.929 . S
H551 C560 0.929 . S
C552 H546 0.930 . S
C552 C553 1.367 . S
C552 C560 1.378 . S
C553 C552 1.367 . S
C553 C561 1.433 . S
C554 H550 0.929 . S
C554 C556 1.378 . S
C554 C558 1.350 . S
C555 C558 1.463 . S
C555 C560 1.350 . S
C555 N563 1.427 . S
C556 H547 0.930 . S
C556 C554 1.378 . S
C556 C557 1.367 . S
C557 C556 1.367 . S
C557 C559 1.433 . S
C558 C554 1.350 . S
C558 C555 1.463 . S
C558 N562 1.427 . S
C559 H549 0.929 . S
C559 C557 1.433 . S
C559 N562 1.384 . S
C560 H551 0.929 . S
C560 C552 1.378 . S
C560 C555 1.350 . S
C561 H548 0.929 . S
C561 C553 1.433 . S
C561 N563 1.384 . S
N562 C558 1.427 . S
N562 C559 1.384 . S
N563 C555 1.427 . S
N563 C561 1.384 . S
H564 C570 0.930 . S
H565 C574 0.930 . S
H566 C579 0.929 1_655 S
H567 C577 0.929 1_455 S
H568 C572 0.929 . S
H569 C578 0.929 . S
C570 H564 0.930 . S
C570 C571 1.367 . S
C570 C578 1.378 . S
C571 C570 1.367 . S
C571 C579 1.433 . S
C572 H568 0.929 . S
C572 C574 1.378 . S
C572 C576 1.350 . S
C573 C576 1.463 1_455 S
C573 C578 1.350 . S
C573 N581 1.427 1_455 S
C574 H565 0.930 . S
C574 C572 1.378 . S
C574 C575 1.367 . S
C575 C574 1.367 . S
C575 C577 1.433 . S
C576 C572 1.350 . S
C576 C573 1.463 1_655 S
C576 N580 1.427 1_655 S
C577 H567 0.929 1_655 S
C577 C575 1.433 . S
C577 N580 1.384 1_655 S
C578 H569 0.929 . S
C578 C570 1.378 . S
C578 C573 1.350 . S
C579 H566 0.929 1_455 S
C579 C571 1.433 . S
C579 N581 1.384 1_455 S
N580 C576 1.427 1_455 S
N580 C577 1.384 1_455 S
N581 C573 1.427 1_655 S
N581 C579 1.384 1_655 S
H582 C588 0.930 . S
H583 C592 0.930 . S
H584 C597 0.929 1_545 S
H585 C595 0.929 1_565 S
H586 C590 0.929 . S
H587 C596 0.929 . S
C588 H582 0.930 . S
C588 C589 1.367 . S
C588 C596 1.378 . S
C589 C588 1.367 . S
C589 C597 1.433 . S
C590 H586 0.929 . S
C590 C592 1.378 . S
C590 C594 1.350 . S
C591 C594 1.463 1_564 S
C591 C596 1.350 . S
C591 N599 1.427 1_565 S
C592 H583 0.930 . S
C592 C590 1.378 . S
C592 C593 1.367 . S
C593 C592 1.367 . S
C593 C595 1.433 . S
C594 C590 1.350 . S
C594 C591 1.463 1_546 S
C594 N598 1.427 1_545 S
C595 H585 0.929 1_545 S
C595 C593 1.433 . S
C595 N598 1.384 1_545 S
C596 H587 0.929 . S
C596 C588 1.378 . S
C596 C591 1.350 . S
C597 H584 0.929 1_565 S
C597 C589 1.433 . S
C597 N599 1.384 1_565 S
N598 C594 1.427 1_565 S
N598 C595 1.384 1_565 S
N599 C591 1.427 1_545 S
N599 C597 1.384 1_545 S
C175 C161 1.551 . S
C179 C7 1.551 . S
C193 C21 1.548 . S
C197 C91 1.548 . S
C211 C35 1.539 . S
C215 C105 1.539 . S
C229 C49 1.539 . S
C233 C119 1.539 . S
C247 C133 1.550 . S
C251 C63 1.550 . S
C265 C77 1.545 . S
C269 C147 1.545 . S
C283 C50 1.152 . S
C287 C8 1.139 . S
C301 C64 1.138 . S
C305 C22 1.152 . S
C319 C78 1.148 . S
C323 C36 1.148 . S
C337 C92 1.152 . S
C341 C134 1.141 . S
C355 C106 1.145 . S
C359 C148 1.136 . S
C373 C120 1.137 . S
C377 C162 1.151 . S
C391 C121 0.969 . S
C395 C9 0.975 . S
C409 C23 0.970 . S
C413 C135 0.973 . S
C427 C149 0.977 . S
C431 C37 0.966 . S
C445 C163 0.967 . S
C449 C51 0.976 . S
C463 C93 0.976 . S
C467 C65 0.965 . S
C481 C79 0.965 . S
C485 C107 0.978 . S
C499 C132 1.623 . S
C503 C6 1.623 . S
C517 C20 1.632 . S
C521 C146 1.633 . S
C535 C160 1.632 . S
C539 C34 1.632 . S
C553 C48 1.640 . S
C557 C90 1.640 . S
C571 C62 1.636 . S
C575 C104 1.635 . S
C589 C118 1.637 . S
C593 C76 1.636 . S
