# Generated by pormake.
# Topology ukk, (4)-cn, num edge types: 1
# Building blocks:
#     Node 0, Type 0, BuildingBlock: QUQFOY_clean_sbu_3, # of connection points: 4
#     Node 1, Type 0, BuildingBlock: QUQFOY_clean_sbu_3, # of connection points: 4
#     Node 2, Type 0, BuildingBlock: QUQFOY_clean_sbu_3, # of connection points: 4
#     Node 3, Type 0, BuildingBlock: QUQFOY_clean_sbu_3, # of connection points: 4
#     Node 4, Type 0, BuildingBlock: QUQFOY_clean_sbu_3, # of connection points: 4
#     Node 5, Type 0, BuildingBlock: QUQFOY_clean_sbu_3, # of connection points: 4
#     Node 6, Type 0, BuildingBlock: QUQFOY_clean_sbu_3, # of connection points: 4
#     Node 7, Type 0, BuildingBlock: QUQFOY_clean_sbu_3, # of connection points: 4
#     Node 8, Type 0, BuildingBlock: QUQFOY_clean_sbu_3, # of connection points: 4
#     Node 9, Type 0, BuildingBlock: QUQFOY_clean_sbu_3, # of connection points: 4
#     Node 10, Type 0, BuildingBlock: QUQFOY_clean_sbu_3, # of connection points: 4
#     Node 11, Type 0, BuildingBlock: QUQFOY_clean_sbu_3, # of connection points: 4
#     Node 12, Type 0, BuildingBlock: QUQFOY_clean_sbu_3, # of connection points: 4
#     Node 13, Type 0, BuildingBlock: QUQFOY_clean_sbu_3, # of connection points: 4
#     Node 14, Type 0, BuildingBlock: QUQFOY_clean_sbu_3, # of connection points: 4
#     Node 15, Type 0, BuildingBlock: QUQFOY_clean_sbu_3, # of connection points: 4
#     Edge 16, Type (0, 0), BuildingBlock: OJICUG_clean_linker_0, # of connection points: 2
#     Edge 17, Type (0, 0), BuildingBlock: OJICUG_clean_linker_0, # of connection points: 2
#     Edge 18, Type (0, 0), BuildingBlock: OJICUG_clean_linker_0, # of connection points: 2
#     Edge 19, Type (0, 0), BuildingBlock: OJICUG_clean_linker_0, # of connection points: 2
#     Edge 20, Type (0, 0), BuildingBlock: OJICUG_clean_linker_0, # of connection points: 2
#     Edge 21, Type (0, 0), BuildingBlock: OJICUG_clean_linker_0, # of connection points: 2
#     Edge 22, Type (0, 0), BuildingBlock: OJICUG_clean_linker_0, # of connection points: 2
#     Edge 23, Type (0, 0), BuildingBlock: OJICUG_clean_linker_0, # of connection points: 2
#     Edge 24, Type (0, 0), BuildingBlock: OJICUG_clean_linker_0, # of connection points: 2
#     Edge 25, Type (0, 0), BuildingBlock: OJICUG_clean_linker_0, # of connection points: 2
#     Edge 26, Type (0, 0), BuildingBlock: OJICUG_clean_linker_0, # of connection points: 2
#     Edge 27, Type (0, 0), BuildingBlock: OJICUG_clean_linker_0, # of connection points: 2
#     Edge 28, Type (0, 0), BuildingBlock: OJICUG_clean_linker_0, # of connection points: 2
#     Edge 29, Type (0, 0), BuildingBlock: OJICUG_clean_linker_0, # of connection points: 2
#     Edge 30, Type (0, 0), BuildingBlock: OJICUG_clean_linker_0, # of connection points: 2
#     Edge 31, Type (0, 0), BuildingBlock: OJICUG_clean_linker_0, # of connection points: 2
#     Edge 32, Type (0, 0), BuildingBlock: OJICUG_clean_linker_0, # of connection points: 2
#     Edge 33, Type (0, 0), BuildingBlock: OJICUG_clean_linker_0, # of connection points: 2
#     Edge 34, Type (0, 0), BuildingBlock: OJICUG_clean_linker_0, # of connection points: 2
#     Edge 35, Type (0, 0), BuildingBlock: OJICUG_clean_linker_0, # of connection points: 2
#     Edge 36, Type (0, 0), BuildingBlock: OJICUG_clean_linker_0, # of connection points: 2
#     Edge 37, Type (0, 0), BuildingBlock: OJICUG_clean_linker_0, # of connection points: 2
#     Edge 38, Type (0, 0), BuildingBlock: OJICUG_clean_linker_0, # of connection points: 2
#     Edge 39, Type (0, 0), BuildingBlock: OJICUG_clean_linker_0, # of connection points: 2
#     Edge 40, Type (0, 0), BuildingBlock: OJICUG_clean_linker_0, # of connection points: 2
#     Edge 41, Type (0, 0), BuildingBlock: OJICUG_clean_linker_0, # of connection points: 2
#     Edge 42, Type (0, 0), BuildingBlock: OJICUG_clean_linker_0, # of connection points: 2
#     Edge 43, Type (0, 0), BuildingBlock: OJICUG_clean_linker_0, # of connection points: 2
#     Edge 44, Type (0, 0), BuildingBlock: OJICUG_clean_linker_0, # of connection points: 2
#     Edge 45, Type (0, 0), BuildingBlock: OJICUG_clean_linker_0, # of connection points: 2
#     Edge 46, Type (0, 0), BuildingBlock: OJICUG_clean_linker_0, # of connection points: 2
#     Edge 47, Type (0, 0), BuildingBlock: OJICUG_clean_linker_0, # of connection points: 2
# Relax obj value: 0.123
# Max RMSD: 0.291
# Mean RMSD: 0.291
data_MOF--net-ukk--node1-QUQFOY_clean_sbu_3--edge1-OJICUG_clean_linker_0
_symmetry_space_group_name_H-M    P1
_symmetry_Int_Tables_number       1
_symmetry_cell_setting            triclinic
loop_
_symmetry_equiv_pos_as_xyz
'x, y, z'
_cell_length_a     42.682643
_cell_length_b     42.563814
_cell_length_c     13.334824
_cell_angle_alpha  90.101853
_cell_angle_beta   89.981536
_cell_angle_gamma 89.624035
loop_
_atom_site_label
_atom_site_type_symbol
_atom_site_fract_x
_atom_site_fract_y
_atom_site_fract_z
_atom_type_partial_charge
C0 C 0.32627 0.0318 0.33293 0.0
O1 O 0.33583 0.05325 0.39138 0.0
Cd2 Cd 0.34291 0.10629 0.32322 0.0
O3 O 0.31953 0.03823 0.24244 0.0
Cd4 Cd 0.31724 0.0811 0.12004 0.0
C5 C 0.39572 0.08815 0.13874 0.0
O6 O 0.30287 0.12897 0.21586 0.0
O7 O 0.32112 0.134 0.06439 0.0
O8 O 0.26365 0.06557 0.08952 0.0
C9 C 0.30951 0.14682 0.14192 0.0
O10 O 0.38937 0.10115 0.22226 0.0
C11 C 0.2667 0.06069 -0.00386 0.0
O12 O 0.3744 0.07566 0.08483 0.0
O13 O 0.29405 0.06411 0.95949 0.0
C14 C 0.03164 0.58874 0.66968 0.0
O15 O 0.05339 0.59008 0.60502 0.0
Cd16 Cd 0.10679 0.58628 0.67306 0.0
O17 O 0.03774 0.59279 0.76194 0.0
Cd18 Cd 0.07995 0.60769 0.87546 0.0
C19 C 0.09408 0.53081 0.85688 0.0
O20 O 0.12695 0.62562 0.78454 0.0
O21 O 0.13227 0.60491 0.93316 0.0
O22 O 0.05966 0.66062 0.89065 0.0
C23 C 0.14472 0.61833 0.85832 0.0
O24 O 0.10621 0.53895 0.77372 0.0
C25 C 0.05573 0.65998 0.98503 0.0
O26 O 0.07946 0.55059 0.91228 0.0
O27 O 0.06118 0.6339 0.02901 0.0
C28 C 0.58942 0.8968 0.28294 0.0
O29 O 0.59524 0.87713 0.35185 0.0
Cd30 Cd 0.58884 0.82253 0.29616 0.0
O31 O 0.5886 0.88758 0.19247 0.0
Cd32 Cd 0.60016 0.84184 0.0891 0.0
C33 C 0.52507 0.82913 0.1391 0.0
O34 O 0.62272 0.79584 0.17822 0.0
O35 O 0.59615 0.78894 0.03973 0.0
O36 O 0.65226 0.86178 0.0683 0.0
C37 C 0.61316 0.77741 0.10872 0.0
O38 O 0.53754 0.82034 0.2212 0.0
C39 C 0.65143 0.86399 0.97341 0.0
O40 O 0.54179 0.84141 0.07001 0.0
O41 O 0.62538 0.8578 0.93062 0.0
C42 C 0.89735 0.33102 0.71855 0.0
O43 O 0.87645 0.3316 0.65089 0.0
Cd44 Cd 0.82174 0.3366 0.70618 0.0
O45 O 0.88927 0.32893 0.80996 0.0
Cd46 Cd 0.84428 0.32203 0.92092 0.0
C47 C 0.82898 0.39817 0.87348 0.0
O48 O 0.7998 0.30013 0.82481 0.0
O49 O 0.79063 0.32333 0.96782 0.0
O50 O 0.86529 0.27022 0.94639 0.0
C51 C 0.78023 0.30809 0.8932 0.0
O52 O 0.8193 0.38647 0.79127 0.0
C53 C 0.86767 0.27168 0.0411 0.0
O54 O 0.84273 0.3809 0.93882 0.0
O55 O 0.86065 0.29793 0.08229 0.0
C56 C 0.32263 0.39907 0.95387 0.0
O57 O 0.3216 0.37786 0.88701 0.0
Cd58 Cd 0.33281 0.32464 0.9471 0.0
O59 O 0.32368 0.39134 0.04577 0.0
Cd60 Cd 0.32087 0.34729 0.16278 0.0
C61 C 0.39654 0.34318 0.096 0.0
O62 O 0.30159 0.29988 0.07616 0.0
O63 O 0.32791 0.29446 0.21539 0.0
O64 O 0.268 0.36528 0.187 0.0
C65 C 0.3123 0.28189 0.14514 0.0
O66 O 0.38416 0.33243 0.01632 0.0
C67 C 0.26945 0.36927 0.28119 0.0
O68 O 0.37951 0.35224 0.16978 0.0
O69 O 0.29603 0.36439 0.32268 0.0
C70 C 0.40162 0.59858 0.02613 0.0
O71 O 0.38511 0.62306 0.04014 0.0
Cd72 Cd 0.3461 0.605 0.91711 0.0
O73 O 0.39274 0.5799 0.95787 0.0
Cd74 Cd 0.34668 0.60166 0.84969 0.0
C75 C 0.33841 0.53219 0.88137 0.0
O76 O 0.29605 0.62249 0.93625 0.0
O77 O 0.29276 0.60106 0.7892 0.0
O78 O 0.36837 0.65472 0.83596 0.0
C79 C 0.2791 0.61501 0.86148 0.0
O80 O 0.33634 0.55009 0.95703 0.0
C81 C 0.37111 0.65439 0.74118 0.0
O82 O 0.34531 0.5449 0.79807 0.0
O83 O 0.36491 0.62858 0.69684 0.0
C84 C 0.60208 0.53055 0.90601 0.0
O85 O 0.59325 0.55253 0.8482 0.0
Cd86 Cd 0.58639 0.60555 0.9185 0.0
O87 O 0.60778 0.53622 -0.00232 0.0
Cd88 Cd 0.60886 0.57777 0.12349 0.0
C89 C 0.53075 0.5887 0.09457 0.0
O90 O 0.62557 0.6253 0.03285 0.0
O91 O 0.60564 0.63037 0.18233 0.0
O92 O 0.66193 0.56033 0.15286 0.0
C93 C 0.61857 0.64303 0.1071 0.0
O94 O 0.53882 0.60282 0.01478 0.0
C95 C 0.65917 0.55595 0.24648 0.0
O96 O 0.55076 0.57377 0.14813 0.0
O97 O 0.63195 0.56006 0.28401 0.0
C98 C 0.53003 0.33587 0.04173 0.0
O99 O 0.55084 0.334 0.10941 0.0
Cd100 Cd 0.60516 0.33783 0.04976 0.0
O101 O 0.53789 0.33332 0.95012 0.0
Cd102 Cd 0.58202 0.3216 0.83844 0.0
C103 C 0.59758 0.39757 0.87474 0.0
O104 O 0.62688 0.29992 0.93449 0.0
O105 O 0.6356 0.32239 0.79053 0.0
O106 O 0.56091 0.26975 0.81323 0.0
C107 C 0.64625 0.3074 0.8654 0.0
O108 O 0.60724 0.38679 0.95836 0.0
C109 C 0.55829 0.27147 0.71859 0.0
O110 O 0.58383 0.37971 0.81147 0.0
O111 O 0.56507 0.29775 0.67824 0.0
C112 C 0.82619 0.53132 0.83085 0.0
O113 O 0.83439 0.55325 0.88953 0.0
Cd114 Cd 0.84525 0.60448 0.81474 0.0
O115 O 0.82187 0.53687 0.73825 0.0
Cd116 Cd 0.82178 0.57783 0.60906 0.0
C117 C 0.90005 0.58024 0.64045 0.0
O118 O 0.8075 0.62673 0.69846 0.0
O119 O 0.82742 0.63018 0.54868 0.0
O120 O 0.76798 0.56275 0.58192 0.0
C121 C 0.81526 0.64383 0.62391 0.0
O122 O 0.89262 0.59357 0.72261 0.0
C123 C 0.77049 0.55708 0.48887 0.0
O124 O 0.87917 0.56978 0.58063 0.0
O125 O 0.79771 0.55978 0.45055 0.0
C126 C 0.52658 0.0988 0.16675 0.0
O127 O 0.54657 0.11053 0.10765 0.0
Cd128 Cd 0.59781 0.09525 0.17083 0.0
O129 O 0.53428 0.09265 0.25666 0.0
Cd130 Cd 0.57803 0.10604 0.36975 0.0
C131 C 0.58172 0.03101 0.32081 0.0
O132 O 0.62645 0.1262 0.28955 0.0
O133 O 0.63008 0.09788 0.42561 0.0
O134 O 0.55863 0.15902 0.39126 0.0
C135 C 0.64334 0.11476 0.35993 0.0
O136 O 0.59038 0.043 0.238 0.0
C137 C 0.55536 0.15768 0.48583 0.0
O138 O 0.5746 0.04852 0.39533 0.0
O139 O 0.56062 0.13113 0.52723 0.0
C140 C 0.10126 0.4015 0.78949 0.0
O141 O 0.12543 0.38423 0.79688 0.0
Cd142 Cd 0.10387 0.3468 0.67409 0.0
O143 O 0.08111 0.39369 0.72454 0.0
Cd144 Cd 0.10031 0.34802 0.60938 0.0
C145 C 0.03075 0.34351 0.6441 0.0
O146 O 0.11932 0.29606 0.69151 0.0
O147 O 0.09759 0.2943 0.54489 0.0
O148 O 0.1539 0.36831 0.59687 0.0
C149 C 0.11112 0.27975 0.61602 0.0
O150 O 0.04886 0.3398 0.71837 0.0
C151 C 0.15367 0.37187 0.50241 0.0
O152 O 0.04344 0.35004 0.56042 0.0
O153 O 0.12779 0.36663 0.45767 0.0
C154 C 0.39179 0.82673 0.18267 0.0
O155 O 0.37007 0.83306 0.12084 0.0
Cd156 Cd 0.31662 0.83945 0.18596 0.0
O157 O 0.38545 0.82268 0.2748 0.0
Cd158 Cd 0.34362 0.82069 0.39954 0.0
C159 C 0.32945 0.89818 0.36034 0.0
O160 O 0.29795 0.80133 0.30513 0.0
O161 O 0.29037 0.82142 0.45337 0.0
O162 O 0.36331 0.76815 0.42398 0.0
C163 C 0.27905 0.80814 0.37641 0.0
O164 O 0.31766 0.88777 0.27926 0.0
C165 C 0.36736 0.76981 0.518 0.0
O166 O 0.34417 0.8798 0.42035 0.0
O167 O 0.36184 0.79638 0.55921 0.0
C168 C 0.82285 0.89836 0.43571 0.0
O169 O 0.82335 0.87775 0.36691 0.0
Cd170 Cd 0.83611 0.82472 0.42606 0.0
O171 O 0.8232 0.8898 0.52682 0.0
Cd172 Cd 0.82066 0.84456 0.63813 0.0
C173 C 0.89707 0.84431 0.58356 0.0
O174 O 0.80471 0.79644 0.54774 0.0
O175 O 0.82992 0.79222 0.68975 0.0
O176 O 0.76665 0.85932 0.65847 0.0
C177 C 0.81548 0.779 0.61814 0.0
O178 O 0.88643 0.83382 0.50103 0.0
C179 C 0.7674 0.86352 0.75266 0.0
O180 O 0.87861 0.85197 0.65524 0.0
O181 O 0.79395 0.86012 0.79575 0.0
C182 C 0.89917 0.09718 0.54128 0.0
O183 O 0.88259 0.12152 0.55661 0.0
Cd184 Cd 0.84427 0.1046 0.42983 0.0
O185 O 0.8906 0.07906 0.47114 0.0
Cd186 Cd 0.84516 0.10206 0.36352 0.0
C187 C 0.83713 0.03235 0.38262 0.0
O188 O 0.79411 0.12108 0.45221 0.0
O189 O 0.79152 0.10225 0.30141 0.0
O190 O 0.8665 0.15543 0.35526 0.0
C191 C 0.77751 0.11472 0.37567 0.0
O192 O 0.83466 0.04903 0.46096 0.0
C193 C 0.86991 0.1557 0.26069 0.0
O194 O 0.84439 0.04636 0.30186 0.0
O195 O 0.8641 0.13018 0.21425 0.0
C196 C 0.09962 0.03303 0.40259 0.0
O197 O 0.08949 0.05496 0.3468 0.0
Cd198 Cd 0.08156 0.1074 0.41938 0.0
O199 O 0.10591 0.03839 0.49405 0.0
Cd200 Cd 0.10646 0.07933 0.62187 0.0
C201 C 0.02819 0.08834 0.60082 0.0
O202 O 0.12116 0.12756 0.53092 0.0
O203 O 0.10161 0.13167 0.68114 0.0
O204 O 0.16006 0.06359 0.65317 0.0
C205 C 0.11382 0.14489 0.60571 0.0
O206 O 0.03515 0.1029 0.52076 0.0
C207 C 0.15694 0.05872 0.74643 0.0
O208 O 0.04899 0.07367 0.65183 0.0
O209 O 0.12944 0.06185 0.78255 0.0
C210 C 0.02997 0.83895 0.53528 0.0
O211 O 0.05101 0.83588 0.60175 0.0
Cd212 Cd 0.10494 0.84013 0.53963 0.0
O213 O 0.03728 0.83712 0.44306 0.0
Cd214 Cd 0.08072 0.82475 0.32957 0.0
C215 C 0.09646 0.90032 0.36613 0.0
O216 O 0.12582 0.80246 0.42262 0.0
O217 O 0.13408 0.82566 0.27955 0.0
O218 O 0.05878 0.77332 0.30589 0.0
C219 C 0.14494 0.81018 0.35311 0.0
O220 O 0.10648 0.88932 0.44903 0.0
C221 C 0.05627 0.77481 0.21118 0.0
O222 O 0.08242 0.88267 0.30301 0.0
O223 O 0.06336 0.80088 0.17008 0.0
C224 C 0.30014 0.94799 0.33524 0.0
C225 C 0.32592 0.93243 0.37884 0.0
H226 H 0.28009 -0.0084 0.28785 0.0
C227 C 0.34945 0.95052 0.42444 0.0
H228 H 0.28133 0.9348 0.30091 0.0
C229 C 0.34844 -0.01643 0.41788 0.0
C230 C 0.32401 -0.00133 0.3653 0.0
H231 H 0.36961 0.93919 0.45834 0.0
H232 H 0.36789 -0.00294 0.44681 0.0
C233 C 0.29932 -0.01941 0.32793 0.0
C234 C -0.01761 0.56084 0.70601 0.0
C235 C -0.00089 0.58086 0.64218 0.0
H236 H 0.93755 0.54413 0.75185 0.0
C237 C -0.01671 0.5957 0.56264 0.0
H238 H -0.0059 0.54887 0.76727 0.0
C239 C 0.95055 0.59291 0.55381 0.0
C240 C 0.93371 0.57488 0.62347 0.0
H241 H -0.00428 0.61133 0.51275 0.0
H242 H 0.93824 0.60681 0.49822 0.0
C243 C 0.95009 0.55784 0.6966 0.0
C244 C 0.56999 0.94899 0.22786 0.0
C245 C 0.58377 0.93062 0.30357 0.0
H246 H 0.55807 -0.00516 0.17597 0.0
C247 C 0.59313 0.94537 0.39329 0.0
H248 H 0.56183 0.93847 0.15866 0.0
C249 C 0.59064 -0.02174 0.40353 0.0
C250 C 0.57882 -0.0035 0.32404 0.0
H251 H 0.60362 0.93178 0.45322 0.0
H252 H 0.59955 -0.01052 0.47055 0.0
C253 C 0.56764 -0.01862 0.23788 0.0
C254 C -0.02527 0.3434 0.57937 0.0
C255 C -0.00359 0.34002 0.65826 0.0
H256 H 0.92613 0.34303 0.53573 0.0
C257 C -0.01489 0.33287 0.75449 0.0
H258 H -0.01729 0.34879 0.50428 0.0
C259 C 0.9532 0.32952 0.77223 0.0
C260 C 0.9313 0.33321 0.69444 0.0
H261 H 0.00095 0.32993 0.81727 0.0
H262 H 0.94576 0.3242 0.84796 0.0
C263 C 0.94239 0.33998 0.59732 0.0
C264 C 0.3183 0.45514 0.00459 0.0
C265 C 0.32382 0.433 0.92835 0.0
H266 H 0.31848 0.50309 0.04934 0.0
C267 C 0.33275 0.44381 0.83276 0.0
H268 H 0.31113 0.44782 0.07887 0.0
C269 C 0.33717 0.47614 0.81551 0.0
C270 C 0.33265 0.49801 0.8936 0.0
H271 H 0.33728 0.4273 0.77252 0.0
H272 H 0.3447 0.48388 0.7421 0.0
C273 C 0.32263 0.48703 0.98755 0.0
C274 C 0.4476 0.56441 0.06961 0.0
C275 C 0.43245 0.59386 0.07511 0.0
H276 H 0.49138 0.53939 0.07648 0.0
C277 C 0.44916 0.61971 0.11218 0.0
H278 H 0.43526 0.54401 0.04181 0.0
C279 C 0.48129 0.61699 0.13144 0.0
C280 C 0.497 0.58826 0.11651 0.0
H281 H 0.43819 0.64268 0.11711 0.0
H282 H 0.49439 0.63799 0.14938 0.0
C283 C 0.47964 0.56161 0.09065 0.0
C284 C 0.6275 0.44633 0.90407 0.0
C285 C 0.60209 0.43157 0.85687 0.0
H286 H 0.64748 0.48938 0.95475 0.0
C287 C 0.57948 0.45027 0.80813 0.0
H288 H 0.64558 0.43259 0.94093 0.0
C289 C 0.5808 0.48325 0.81545 0.0
C290 C 0.60467 0.49762 0.8717 0.0
H291 H 0.55963 0.43949 0.77142 0.0
H292 H 0.56188 0.49725 0.78442 0.0
C293 C 0.62869 0.4789 0.91178 0.0
C294 C 0.44482 0.3559 0.00393 0.0
C295 C 0.431 0.34668 0.09462 0.0
H296 H 0.48642 0.35989 0.91721 0.0
C297 C 0.45043 0.33682 0.17388 0.0
H298 H 0.43049 0.36393 0.94184 0.0
C299 C 0.48312 0.33431 0.15947 0.0
C300 C 0.49648 0.34154 0.06562 0.0
H301 H 0.44029 0.32937 0.24433 0.0
H302 H 0.49763 0.32538 0.21974 0.0
C303 C 0.47697 0.35336 0.98962 0.0
C304 C 0.80042 0.44741 0.83285 0.0
C305 C 0.82467 0.43255 0.8866 0.0
H306 H 0.78187 0.49035 0.77445 0.0
C307 C 0.84643 0.45128 0.93817 0.0
H308 H 0.78292 0.43373 0.79369 0.0
C309 C 0.84551 0.48422 0.92791 0.0
C310 C 0.82292 0.49855 0.86568 0.0
H311 H 0.86537 0.44048 0.98004 0.0
H312 H 0.86381 0.49814 0.96196 0.0
C313 C 0.79969 0.4799 0.82198 0.0
C314 C 0.47707 0.11351 0.0758 0.0
C315 C 0.49419 0.09219 0.13486 0.0
H316 H 0.43114 0.12862 0.02929 0.0
C317 C 0.47893 0.06591 0.17505 0.0
H318 H 0.48833 0.13401 0.04447 0.0
C319 C 0.44667 0.06241 0.164 0.0
C320 C 0.42904 0.08524 0.11334 0.0
H321 H 0.4917 0.04899 0.22022 0.0
H322 H 0.43512 0.04336 0.20287 0.0
C323 C 0.44449 0.11027 0.06627 0.0
C324 C 0.12375 0.48144 0.88322 0.0
C325 C 0.09471 0.4971 0.87995 0.0
H326 H 0.14855 0.4381 0.86027 0.0
C327 C 0.06729 0.4796 0.86767 0.0
H328 H 0.14523 0.49466 0.89094 0.0
C329 C 0.0692 0.44737 0.84737 0.0
C330 C 0.09854 0.43223 0.84064 0.0
H331 H 0.04472 0.49132 0.86288 0.0
H332 H 0.04791 0.43486 0.82918 0.0
C333 C 0.12564 0.4491 0.86517 0.0
C334 C 0.44387 0.80176 0.2006 0.0
C335 C 0.4249 0.82381 0.15127 0.0
H336 H 0.4901 0.78565 0.23237 0.0
C337 C 0.43886 0.84505 0.08411 0.0
H338 H 0.43373 0.78485 0.25173 0.0
C339 C 0.47171 0.84579 0.07351 0.0
C340 C 0.4907 0.82519 0.12971 0.0
H341 H 0.42466 0.86237 0.04539 0.0
H342 H 0.48221 0.86364 0.02678 0.0
C343 C 0.47624 0.80231 0.18955 0.0
C344 C 0.81568 0.95363 0.49135 0.0
C345 C 0.82324 0.93254 0.41385 0.0
H346 H 0.81405 0.00101 0.54188 0.0
C347 C 0.83368 0.94465 0.32154 0.0
H348 H 0.80727 0.94527 0.56312 0.0
C349 C 0.83774 -0.02276 0.30916 0.0
C350 C 0.83138 -0.00195 0.38894 0.0
H351 H 0.83979 0.92896 0.26049 0.0
H352 H 0.84657 -0.01398 0.23849 0.0
C353 C 0.81969 -0.01422 0.47915 0.0
C354 C 0.94657 0.11807 0.62823 0.0
C355 C 0.92997 0.09231 0.59001 0.0
H356 H -0.00818 0.13664 0.66357 0.0
C357 C 0.94537 0.06306 0.58166 0.0
H358 H 0.93539 0.14088 0.63538 0.0
C359 C -0.02244 0.06051 0.60021 0.0
C360 C -0.00524 0.08721 0.62649 0.0
H361 H 0.9331 0.04274 0.55294 0.0
H362 H -0.01053 0.03856 0.58342 0.0
C363 C -0.02116 0.11561 0.64511 0.0
C364 C 0.12612 0.9492 0.39597 0.0
C365 C 0.1007 0.93437 0.34913 0.0
H366 H 0.14581 -0.00774 0.44771 0.0
C367 C 0.07775 0.953 0.30175 0.0
H368 H 0.14445 0.9355 0.43173 0.0
C369 C 0.07874 -0.01405 0.31034 0.0
C370 C 0.10261 0.00034 0.3665 0.0
H371 H 0.05789 0.94215 0.26531 0.0
H372 H 0.05955 -0.00015 0.28054 0.0
C373 C 0.12699 -0.01826 0.40491 0.0
C374 C 0.95012 0.83591 0.66349 0.0
C375 C 0.93122 0.84925 0.5882 0.0
H376 H -0.00305 0.82204 0.70623 0.0
C377 C 0.94556 0.86255 0.50385 0.0
H378 H 0.93951 0.82518 0.72867 0.0
C379 C -0.02221 0.86045 0.49051 0.0
C380 C -0.00329 0.84501 0.56126 0.0
H381 H 0.93153 0.87309 0.44491 0.0
H382 H -0.01225 0.86988 0.42222 0.0
C383 C -0.01715 0.83391 0.65022 0.0
C384 C 0.30276 0.23114 0.0554 0.0
C385 C 0.3072 0.24758 0.14537 0.0
H386 H 0.30023 0.18611 0.98414 0.0
C387 C 0.30921 0.23064 0.23584 0.0
H388 H 0.30117 0.24357 0.98474 0.0
C389 C 0.30806 0.1978 0.2359 0.0
C390 C 0.3056 0.18131 0.14521 0.0
H391 H 0.31242 0.24278 0.30654 0.0
H392 H 0.31071 0.18532 0.30616 0.0
C393 C 0.30233 0.19829 0.05522 0.0
C394 C 0.19541 0.62524 0.94752 0.0
C395 C 0.17894 0.62269 0.85654 0.0
H396 H 0.24015 0.62543 0.02033 0.0
C397 C 0.19574 0.62075 0.76639 0.0
H398 H 0.18295 0.62691 0.01815 0.0
C399 C 0.22849 0.61928 0.76791 0.0
C400 C 0.24491 0.62039 0.8594 0.0
H401 H 0.18359 0.6186 0.69541 0.0
H402 H 0.24093 0.61641 0.69762 0.0
C403 C 0.22812 0.62444 0.94888 0.0
C404 C 0.62416 0.72689 0.19754 0.0
C405 C 0.6203 0.74348 0.10771 0.0
H406 H 0.62645 0.68168 0.26736 0.0
C407 C 0.61983 0.72683 0.01637 0.0
H408 H 0.62454 0.73914 0.2688 0.0
C409 C 0.62147 0.69403 0.01522 0.0
C410 C 0.6229 0.67736 0.10559 0.0
H411 H 0.61708 0.73915 0.94586 0.0
H412 H 0.6197 0.68174 0.94425 0.0
C413 C 0.6251 0.69406 0.19654 0.0
C414 C 0.6951 0.3007 0.96702 0.0
C415 C 0.68032 0.30155 0.87324 0.0
H416 H 0.73865 0.30226 0.0465 0.0
C417 C 0.69881 0.30051 0.78577 0.0
H418 H 0.68145 0.30157 0.03548 0.0
C419 C 0.73153 0.30037 0.79189 0.0
C420 C 0.74628 0.30197 0.8856 0.0
H421 H 0.68794 0.30098 0.71236 0.0
H422 H 0.74516 0.30096 0.72339 0.0
C423 C 0.72781 0.30125 0.97311 0.0
C424 C 0.81169 0.69545 0.71341 0.0
C425 C 0.81125 0.67832 0.6236 0.0
H426 H 0.81366 0.74096 0.78164 0.0
C427 C 0.80936 0.69461 0.53193 0.0
H428 H 0.8132 0.68351 0.78494 0.0
C429 C 0.80902 0.72747 0.52993 0.0
C430 C 0.81132 0.74458 0.61947 0.0
H431 H 0.80878 0.68192 0.46146 0.0
H432 H 0.80844 0.73942 0.45828 0.0
C433 C 0.81209 0.72829 0.71129 0.0
C434 C 0.72774 0.12262 0.28094 0.0
C435 C 0.74331 0.11948 0.37338 0.0
H436 H 0.68357 0.12445 0.20441 0.0
C437 C 0.7257 0.11818 0.46198 0.0
H438 H 0.74087 0.12386 0.21153 0.0
C439 C 0.693 0.11788 0.45761 0.0
C440 C 0.67743 0.11967 0.36481 0.0
H441 H 0.73715 0.11572 0.53407 0.0
H442 H 0.67989 0.11538 0.52669 0.0
C443 C 0.69502 0.12311 0.27679 0.0
C444 C 0.11982 0.22812 0.70022 0.0
C445 C 0.11553 0.24538 0.61183 0.0
H446 H 0.12254 0.18255 0.76702 0.0
C447 C 0.11371 0.22934 0.5196 0.0
H448 H 0.12136 0.23986 0.77219 0.0
C449 C 0.115 0.1965 0.51633 0.0
C450 C 0.11746 0.17927 0.60548 0.0
H451 H 0.11064 0.24215 0.45013 0.0
H452 H 0.11253 0.18463 0.44487 0.0
C453 C 0.12044 0.19536 0.69716 0.0
C454 C 0.19401 0.80189 0.45234 0.0
C455 C 0.17896 0.804 0.3592 0.0
H456 H 0.23782 0.80173 0.53049 0.0
C457 C 0.19714 0.8037 0.27106 0.0
H458 H 0.18059 0.80217 0.52131 0.0
C459 C 0.22985 0.80295 0.27607 0.0
C460 C 0.24493 0.80317 0.3694 0.0
H461 H 0.18605 0.80513 0.19811 0.0
H462 H 0.24327 0.80403 0.20721 0.0
C463 C 0.22674 0.8018 0.45741 0.0
C464 C 0.21493 0.05237 0.76742 0.0
C465 C 0.18481 0.05337 0.81054 0.0
H466 H 0.2645 0.05369 0.79217 0.0
C467 C 0.18207 0.0528 0.91542 0.0
H468 H 0.21788 0.05261 0.68674 0.0
C469 C 0.20886 0.05337 0.97581 0.0
C470 C 0.23893 0.05455 0.93257 0.0
H471 H 0.15925 0.05345 0.95097 0.0
H472 H 0.2059 0.05432 0.05644 0.0
C473 C 0.24171 0.05298 0.82779 0.0
C474 C 0.04645 0.71698 0.20104 0.0
C475 C 0.04949 0.7461 0.15207 0.0
H476 H 0.04586 0.66684 0.18674 0.0
C477 C 0.04997 0.74665 0.04683 0.0
H478 H 0.04582 0.71569 0.28213 0.0
C479 C 0.04972 0.71855 0.99212 0.0
C480 C 0.04924 0.68934 0.04158 0.0
H481 H 0.05216 0.76866 0.00684 0.0
H482 H 0.05172 0.71975 0.91125 0.0
C483 C 0.04646 0.6889 0.14642 0.0
C484 C 0.68067 0.86934 0.81104 0.0
C485 C 0.68067 0.86963 0.91623 0.0
H486 H 0.7081 0.86765 0.67697 0.0
C487 C 0.70956 0.87169 0.96698 0.0
H488 H 0.65889 0.86785 0.76969 0.0
C489 C 0.73786 0.8713 0.91395 0.0
C490 C 0.73789 0.86905 0.80898 0.0
H491 H 0.71043 0.87207 0.04815 0.0
H492 H 0.75968 0.87142 0.9554 0.0
C493 C 0.70896 0.86916 0.75801 0.0
C494 C 0.87935 0.18564 0.10205 0.0
C495 C 0.87594 0.1855 0.20669 0.0
H496 H 0.88009 0.21304 0.96805 0.0
C497 C 0.87424 0.21447 0.25783 0.0
H498 H 0.88089 0.1638 0.06045 0.0
C499 C 0.87345 0.24285 0.20473 0.0
C500 C 0.87462 0.24281 0.09951 0.0
H501 H 0.87166 0.2152 0.33861 0.0
H502 H 0.87033 0.26462 0.2458 0.0
C503 C 0.87885 0.21396 0.04914 0.0
C504 C 0.18328 0.37942 0.34185 0.0
C505 C 0.18325 0.37752 0.44687 0.0
H506 H 0.21056 0.37887 0.20746 0.0
C507 C 0.21221 0.37706 0.4977 0.0
H508 H 0.16146 0.37993 0.3004 0.0
C509 C 0.2405 0.37619 0.44436 0.0
C510 C 0.24042 0.37594 0.33909 0.0
H511 H 0.21305 0.37568 0.57875 0.0
H512 H 0.26229 0.37418 0.4855 0.0
C513 C 0.21153 0.37875 0.28863 0.0
C514 C 0.37749 0.71186 0.5262 0.0
C515 C 0.3746 0.74094 0.57619 0.0
H516 H 0.37891 0.6617 0.5389 0.0
C517 C 0.37515 0.7413 0.68145 0.0
H518 H 0.37739 0.71069 0.44505 0.0
C519 C 0.37633 0.71307 0.73532 0.0
C520 C 0.37675 0.68391 0.68503 0.0
H521 H 0.3731 0.76324 0.72223 0.0
H522 H 0.37511 0.71411 0.8164 0.0
C523 C 0.37842 0.68368 0.57995 0.0
C524 C 0.68522 0.55023 0.41415 0.0
C525 C 0.68729 0.55015 0.30912 0.0
H526 H 0.70998 0.55209 0.55343 0.0
C527 C 0.71711 0.54824 0.26412 0.0
H528 H 0.66265 0.55159 0.45113 0.0
C529 C 0.7443 0.54866 0.32266 0.0
C530 C 0.74224 0.55093 0.42745 0.0
H531 H 0.71956 0.54795 0.18327 0.0
H532 H 0.76687 0.54871 0.28552 0.0
C533 C 0.71241 0.55058 0.4727 0.0
C534 C 0.54983 0.21625 0.49727 0.0
C535 C 0.54981 0.18674 0.54503 0.0
H536 H 0.55242 0.26627 0.51445 0.0
C537 C 0.54832 0.18574 0.65012 0.0
H538 H 0.55085 0.2179 0.41629 0.0
C539 C 0.54897 0.21353 0.70628 0.0
C540 C 0.55139 0.24294 0.65863 0.0
H541 H 0.54814 0.16345 0.68923 0.0
H542 H 0.54924 0.2118 0.78731 0.0
C543 C 0.55074 0.24404 0.55346 0.0
loop_
_geom_bond_atom_site_label_1
_geom_bond_atom_site_label_2
_geom_bond_distance
_geom_bond_site_symmetry_2
_ccdc_geom_bond_type
C0 O1 1.306 . S
C0 O3 1.160 . S
O1 C0 1.306 . S
O1 Cd2 2.228 . S
Cd2 O1 2.228 . S
Cd2 O6 2.273 . S
Cd2 O10 2.277 . S
O3 C0 1.160 . S
O3 Cd4 2.203 . S
Cd4 O3 2.203 . S
Cd4 O6 2.411 . S
Cd4 O7 2.333 . S
Cd4 O8 2.352 . S
Cd4 O12 2.277 . S
Cd4 O13 2.356 1_554 S
C5 O10 1.209 . S
C5 O12 1.226 . S
O6 Cd2 2.273 . S
O6 Cd4 2.411 . S
O6 C9 1.320 . S
O7 Cd4 2.333 . S
O7 C9 1.214 . S
O8 Cd4 2.352 . S
O8 C11 1.258 1_554 S
C9 O6 1.320 . S
C9 O7 1.214 . S
O10 Cd2 2.277 . S
O10 C5 1.209 . S
C11 O8 1.258 1_556 S
C11 O13 1.282 . S
O12 Cd4 2.277 . S
O12 C5 1.226 . S
O13 Cd4 2.356 1_556 S
O13 C11 1.282 . S
C14 O15 1.306 . S
C14 O17 1.160 . S
O15 C14 1.306 . S
O15 Cd16 2.228 . S
Cd16 O15 2.228 . S
Cd16 O20 2.273 . S
Cd16 O24 2.277 . S
O17 C14 1.160 . S
O17 Cd18 2.203 . S
Cd18 O17 2.203 . S
Cd18 O20 2.411 . S
Cd18 O21 2.333 . S
Cd18 O22 2.352 . S
Cd18 O26 2.277 . S
Cd18 O27 2.356 1_556 S
C19 O24 1.209 . S
C19 O26 1.226 . S
O20 Cd16 2.273 . S
O20 Cd18 2.411 . S
O20 C23 1.320 . S
O21 Cd18 2.333 . S
O21 C23 1.214 . S
O22 Cd18 2.352 . S
O22 C25 1.258 1_556 S
C23 O20 1.320 . S
C23 O21 1.214 . S
O24 Cd16 2.277 . S
O24 C19 1.209 . S
C25 O22 1.258 1_554 S
C25 O27 1.282 . S
O26 Cd18 2.277 . S
O26 C19 1.226 . S
O27 Cd18 2.356 1_554 S
O27 C25 1.282 . S
C28 O29 1.306 . S
C28 O31 1.160 . S
O29 C28 1.306 . S
O29 Cd30 2.228 . S
Cd30 O29 2.228 . S
Cd30 O34 2.273 . S
Cd30 O38 2.277 . S
O31 C28 1.160 . S
O31 Cd32 2.203 . S
Cd32 O31 2.203 . S
Cd32 O34 2.411 . S
Cd32 O35 2.333 . S
Cd32 O36 2.352 . S
Cd32 O40 2.277 . S
Cd32 O41 2.356 1_554 S
C33 O38 1.209 . S
C33 O40 1.226 . S
O34 Cd30 2.273 . S
O34 Cd32 2.411 . S
O34 C37 1.320 . S
O35 Cd32 2.333 . S
O35 C37 1.214 . S
O36 Cd32 2.352 . S
O36 C39 1.258 1_554 S
C37 O34 1.320 . S
C37 O35 1.214 . S
O38 Cd30 2.277 . S
O38 C33 1.209 . S
C39 O36 1.258 1_556 S
C39 O41 1.282 . S
O40 Cd32 2.277 . S
O40 C33 1.226 . S
O41 Cd32 2.356 1_556 S
O41 C39 1.282 . S
C42 O43 1.306 . S
C42 O45 1.160 . S
O43 C42 1.306 . S
O43 Cd44 2.228 . S
Cd44 O43 2.228 . S
Cd44 O48 2.273 . S
Cd44 O52 2.277 . S
O45 C42 1.160 . S
O45 Cd46 2.203 . S
Cd46 O45 2.203 . S
Cd46 O48 2.411 . S
Cd46 O49 2.333 . S
Cd46 O50 2.352 . S
Cd46 O54 2.277 . S
Cd46 O55 2.356 1_556 S
C47 O52 1.209 . S
C47 O54 1.226 . S
O48 Cd44 2.273 . S
O48 Cd46 2.411 . S
O48 C51 1.320 . S
O49 Cd46 2.333 . S
O49 C51 1.214 . S
O50 Cd46 2.352 . S
O50 C53 1.258 1_556 S
C51 O48 1.320 . S
C51 O49 1.214 . S
O52 Cd44 2.277 . S
O52 C47 1.209 . S
C53 O50 1.258 1_554 S
C53 O55 1.282 . S
O54 Cd46 2.277 . S
O54 C47 1.226 . S
O55 Cd46 2.356 1_554 S
O55 C53 1.282 . S
C56 O57 1.306 . S
C56 O59 1.160 1_556 S
O57 C56 1.306 . S
O57 Cd58 2.228 . S
Cd58 O57 2.228 . S
Cd58 O62 2.273 . S
Cd58 O66 2.277 1_556 S
O59 C56 1.160 1_554 S
O59 Cd60 2.203 . S
Cd60 O59 2.203 . S
Cd60 O62 2.411 1_554 S
Cd60 O63 2.333 . S
Cd60 O64 2.352 . S
Cd60 O68 2.277 . S
Cd60 O69 2.356 . S
C61 O66 1.209 . S
C61 O68 1.226 . S
O62 Cd58 2.273 . S
O62 Cd60 2.411 1_556 S
O62 C65 1.320 1_556 S
O63 Cd60 2.333 . S
O63 C65 1.214 . S
O64 Cd60 2.352 . S
O64 C67 1.258 . S
C65 O62 1.320 1_554 S
C65 O63 1.214 . S
O66 Cd58 2.277 1_554 S
O66 C61 1.209 . S
C67 O64 1.258 . S
C67 O69 1.282 . S
O68 Cd60 2.277 . S
O68 C61 1.226 . S
O69 Cd60 2.356 . S
O69 C67 1.282 . S
C70 O71 1.306 . S
C70 O73 1.160 1_554 S
O71 C70 1.306 . S
O71 Cd72 2.228 . S
Cd72 O71 2.228 . S
Cd72 O76 2.273 . S
Cd72 O80 2.277 1_554 S
O73 C70 1.160 1_556 S
O73 Cd74 2.203 . S
Cd74 O73 2.203 . S
Cd74 O76 2.411 1_556 S
Cd74 O77 2.333 . S
Cd74 O78 2.352 . S
Cd74 O82 2.277 . S
Cd74 O83 2.356 . S
C75 O80 1.209 . S
C75 O82 1.226 . S
O76 Cd72 2.273 . S
O76 Cd74 2.411 1_554 S
O76 C79 1.320 1_554 S
O77 Cd74 2.333 . S
O77 C79 1.214 . S
O78 Cd74 2.352 . S
O78 C81 1.258 . S
C79 O76 1.320 1_556 S
C79 O77 1.214 . S
O80 Cd72 2.277 1_556 S
O80 C75 1.209 . S
C81 O78 1.258 . S
C81 O83 1.282 . S
O82 Cd74 2.277 . S
O82 C75 1.226 . S
O83 Cd74 2.356 . S
O83 C81 1.282 . S
C84 O85 1.306 . S
C84 O87 1.160 1_556 S
O85 C84 1.306 . S
O85 Cd86 2.228 . S
Cd86 O85 2.228 . S
Cd86 O90 2.273 . S
Cd86 O94 2.277 1_556 S
O87 C84 1.160 1_554 S
O87 Cd88 2.203 . S
Cd88 O87 2.203 . S
Cd88 O90 2.411 1_554 S
Cd88 O91 2.333 . S
Cd88 O92 2.352 . S
Cd88 O96 2.277 . S
Cd88 O97 2.356 . S
C89 O94 1.209 . S
C89 O96 1.226 . S
O90 Cd86 2.273 . S
O90 Cd88 2.411 1_556 S
O90 C93 1.320 1_556 S
O91 Cd88 2.333 . S
O91 C93 1.214 . S
O92 Cd88 2.352 . S
O92 C95 1.258 . S
C93 O90 1.320 1_554 S
C93 O91 1.214 . S
O94 Cd86 2.277 1_554 S
O94 C89 1.209 . S
C95 O92 1.258 . S
C95 O97 1.282 . S
O96 Cd88 2.277 . S
O96 C89 1.226 . S
O97 Cd88 2.356 . S
O97 C95 1.282 . S
C98 O99 1.306 . S
C98 O101 1.160 1_554 S
O99 C98 1.306 . S
O99 Cd100 2.228 . S
Cd100 O99 2.228 . S
Cd100 O104 2.273 . S
Cd100 O108 2.277 1_554 S
O101 C98 1.160 1_556 S
O101 Cd102 2.203 . S
Cd102 O101 2.203 . S
Cd102 O104 2.411 1_556 S
Cd102 O105 2.333 . S
Cd102 O106 2.352 . S
Cd102 O110 2.277 . S
Cd102 O111 2.356 . S
C103 O108 1.209 . S
C103 O110 1.226 . S
O104 Cd100 2.273 . S
O104 Cd102 2.411 1_554 S
O104 C107 1.320 1_554 S
O105 Cd102 2.333 . S
O105 C107 1.214 . S
O106 Cd102 2.352 . S
O106 C109 1.258 . S
C107 O104 1.320 1_556 S
C107 O105 1.214 . S
O108 Cd100 2.277 1_556 S
O108 C103 1.209 . S
C109 O106 1.258 . S
C109 O111 1.282 . S
O110 Cd102 2.277 . S
O110 C103 1.226 . S
O111 Cd102 2.356 . S
O111 C109 1.282 . S
C112 O113 1.306 . S
C112 O115 1.160 . S
O113 C112 1.306 . S
O113 Cd114 2.228 . S
Cd114 O113 2.228 . S
Cd114 O118 2.273 . S
Cd114 O122 2.277 . S
O115 C112 1.160 . S
O115 Cd116 2.203 . S
Cd116 O115 2.203 . S
Cd116 O118 2.411 . S
Cd116 O119 2.333 . S
Cd116 O120 2.352 . S
Cd116 O124 2.277 . S
Cd116 O125 2.356 . S
C117 O122 1.209 . S
C117 O124 1.226 . S
O118 Cd114 2.273 . S
O118 Cd116 2.411 . S
O118 C121 1.320 . S
O119 Cd116 2.333 . S
O119 C121 1.214 . S
O120 Cd116 2.352 . S
O120 C123 1.258 . S
C121 O118 1.320 . S
C121 O119 1.214 . S
O122 Cd114 2.277 . S
O122 C117 1.209 . S
C123 O120 1.258 . S
C123 O125 1.282 . S
O124 Cd116 2.277 . S
O124 C117 1.226 . S
O125 Cd116 2.356 . S
O125 C123 1.282 . S
C126 O127 1.306 . S
C126 O129 1.160 . S
O127 C126 1.306 . S
O127 Cd128 2.228 . S
Cd128 O127 2.228 . S
Cd128 O132 2.273 . S
Cd128 O136 2.277 . S
O129 C126 1.160 . S
O129 Cd130 2.203 . S
Cd130 O129 2.203 . S
Cd130 O132 2.411 . S
Cd130 O133 2.333 . S
Cd130 O134 2.352 . S
Cd130 O138 2.277 . S
Cd130 O139 2.356 . S
C131 O136 1.209 . S
C131 O138 1.226 . S
O132 Cd128 2.273 . S
O132 Cd130 2.411 . S
O132 C135 1.320 . S
O133 Cd130 2.333 . S
O133 C135 1.214 . S
O134 Cd130 2.352 . S
O134 C137 1.258 . S
C135 O132 1.320 . S
C135 O133 1.214 . S
O136 Cd128 2.277 . S
O136 C131 1.209 . S
C137 O134 1.258 . S
C137 O139 1.282 . S
O138 Cd130 2.277 . S
O138 C131 1.226 . S
O139 Cd130 2.356 . S
O139 C137 1.282 . S
C140 O141 1.306 . S
C140 O143 1.160 . S
O141 C140 1.306 . S
O141 Cd142 2.228 . S
Cd142 O141 2.228 . S
Cd142 O146 2.273 . S
Cd142 O150 2.277 . S
O143 C140 1.160 . S
O143 Cd144 2.203 . S
Cd144 O143 2.203 . S
Cd144 O146 2.411 . S
Cd144 O147 2.333 . S
Cd144 O148 2.352 . S
Cd144 O152 2.277 . S
Cd144 O153 2.356 . S
C145 O150 1.209 . S
C145 O152 1.226 . S
O146 Cd142 2.273 . S
O146 Cd144 2.411 . S
O146 C149 1.320 . S
O147 Cd144 2.333 . S
O147 C149 1.214 . S
O148 Cd144 2.352 . S
O148 C151 1.258 . S
C149 O146 1.320 . S
C149 O147 1.214 . S
O150 Cd142 2.277 . S
O150 C145 1.209 . S
C151 O148 1.258 . S
C151 O153 1.282 . S
O152 Cd144 2.277 . S
O152 C145 1.226 . S
O153 Cd144 2.356 . S
O153 C151 1.282 . S
C154 O155 1.306 . S
C154 O157 1.160 . S
O155 C154 1.306 . S
O155 Cd156 2.228 . S
Cd156 O155 2.228 . S
Cd156 O160 2.273 . S
Cd156 O164 2.277 . S
O157 C154 1.160 . S
O157 Cd158 2.203 . S
Cd158 O157 2.203 . S
Cd158 O160 2.411 . S
Cd158 O161 2.333 . S
Cd158 O162 2.352 . S
Cd158 O166 2.277 . S
Cd158 O167 2.356 . S
C159 O164 1.209 . S
C159 O166 1.226 . S
O160 Cd156 2.273 . S
O160 Cd158 2.411 . S
O160 C163 1.320 . S
O161 Cd158 2.333 . S
O161 C163 1.214 . S
O162 Cd158 2.352 . S
O162 C165 1.258 . S
C163 O160 1.320 . S
C163 O161 1.214 . S
O164 Cd156 2.277 . S
O164 C159 1.209 . S
C165 O162 1.258 . S
C165 O167 1.282 . S
O166 Cd158 2.277 . S
O166 C159 1.226 . S
O167 Cd158 2.356 . S
O167 C165 1.282 . S
C168 O169 1.306 . S
C168 O171 1.160 . S
O169 C168 1.306 . S
O169 Cd170 2.228 . S
Cd170 O169 2.228 . S
Cd170 O174 2.273 . S
Cd170 O178 2.277 . S
O171 C168 1.160 . S
O171 Cd172 2.203 . S
Cd172 O171 2.203 . S
Cd172 O174 2.411 . S
Cd172 O175 2.333 . S
Cd172 O176 2.352 . S
Cd172 O180 2.277 . S
Cd172 O181 2.356 . S
C173 O178 1.209 . S
C173 O180 1.226 . S
O174 Cd170 2.273 . S
O174 Cd172 2.411 . S
O174 C177 1.320 . S
O175 Cd172 2.333 . S
O175 C177 1.214 . S
O176 Cd172 2.352 . S
O176 C179 1.258 . S
C177 O174 1.320 . S
C177 O175 1.214 . S
O178 Cd170 2.277 . S
O178 C173 1.209 . S
C179 O176 1.258 . S
C179 O181 1.282 . S
O180 Cd172 2.277 . S
O180 C173 1.226 . S
O181 Cd172 2.356 . S
O181 C179 1.282 . S
C182 O183 1.306 . S
C182 O185 1.160 . S
O183 C182 1.306 . S
O183 Cd184 2.228 . S
Cd184 O183 2.228 . S
Cd184 O188 2.273 . S
Cd184 O192 2.277 . S
O185 C182 1.160 . S
O185 Cd186 2.203 . S
Cd186 O185 2.203 . S
Cd186 O188 2.411 . S
Cd186 O189 2.333 . S
Cd186 O190 2.352 . S
Cd186 O194 2.277 . S
Cd186 O195 2.356 . S
C187 O192 1.209 . S
C187 O194 1.226 . S
O188 Cd184 2.273 . S
O188 Cd186 2.411 . S
O188 C191 1.320 . S
O189 Cd186 2.333 . S
O189 C191 1.214 . S
O190 Cd186 2.352 . S
O190 C193 1.258 . S
C191 O188 1.320 . S
C191 O189 1.214 . S
O192 Cd184 2.277 . S
O192 C187 1.209 . S
C193 O190 1.258 . S
C193 O195 1.282 . S
O194 Cd186 2.277 . S
O194 C187 1.226 . S
O195 Cd186 2.356 . S
O195 C193 1.282 . S
C196 O197 1.306 . S
C196 O199 1.160 . S
O197 C196 1.306 . S
O197 Cd198 2.228 . S
Cd198 O197 2.228 . S
Cd198 O202 2.273 . S
Cd198 O206 2.277 . S
O199 C196 1.160 . S
O199 Cd200 2.203 . S
Cd200 O199 2.203 . S
Cd200 O202 2.411 . S
Cd200 O203 2.333 . S
Cd200 O204 2.352 . S
Cd200 O208 2.277 . S
Cd200 O209 2.356 . S
C201 O206 1.209 . S
C201 O208 1.226 . S
O202 Cd198 2.273 . S
O202 Cd200 2.411 . S
O202 C205 1.320 . S
O203 Cd200 2.333 . S
O203 C205 1.214 . S
O204 Cd200 2.352 . S
O204 C207 1.258 . S
C205 O202 1.320 . S
C205 O203 1.214 . S
O206 Cd198 2.277 . S
O206 C201 1.209 . S
C207 O204 1.258 . S
C207 O209 1.282 . S
O208 Cd200 2.277 . S
O208 C201 1.226 . S
O209 Cd200 2.356 . S
O209 C207 1.282 . S
C210 O211 1.306 . S
C210 O213 1.160 . S
O211 C210 1.306 . S
O211 Cd212 2.228 . S
Cd212 O211 2.228 . S
Cd212 O216 2.273 . S
Cd212 O220 2.277 . S
O213 C210 1.160 . S
O213 Cd214 2.203 . S
Cd214 O213 2.203 . S
Cd214 O216 2.411 . S
Cd214 O217 2.333 . S
Cd214 O218 2.352 . S
Cd214 O222 2.277 . S
Cd214 O223 2.356 . S
C215 O220 1.209 . S
C215 O222 1.226 . S
O216 Cd212 2.273 . S
O216 Cd214 2.411 . S
O216 C219 1.320 . S
O217 Cd214 2.333 . S
O217 C219 1.214 . S
O218 Cd214 2.352 . S
O218 C221 1.258 . S
C219 O216 1.320 . S
C219 O217 1.214 . S
O220 Cd212 2.277 . S
O220 C215 1.209 . S
C221 O218 1.258 . S
C221 O223 1.282 . S
O222 Cd214 2.277 . S
O222 C215 1.226 . S
O223 Cd214 2.356 . S
O223 C221 1.282 . S
C224 C225 1.387 . S
C224 H228 0.950 . S
C224 C233 1.390 1_565 S
C225 C224 1.387 . S
C225 C227 1.387 . S
H226 C233 0.950 . S
C227 C225 1.387 . S
C227 C229 1.390 1_565 S
C227 H231 0.950 . S
H228 C224 0.950 . S
C229 C227 1.390 1_545 S
C229 C230 1.387 . S
C229 H232 0.950 . S
C230 C229 1.387 . S
C230 C233 1.387 . S
H231 C227 0.950 . S
H232 C229 0.950 . S
C233 C224 1.390 1_545 S
C233 H226 0.950 . S
C233 C230 1.387 . S
C234 C235 1.387 . S
C234 H238 0.950 . S
C234 C243 1.390 1_455 S
C235 C234 1.387 . S
C235 C237 1.387 . S
H236 C243 0.950 . S
C237 C235 1.387 . S
C237 C239 1.390 1_455 S
C237 H241 0.950 . S
H238 C234 0.950 . S
C239 C237 1.390 1_655 S
C239 C240 1.387 . S
C239 H242 0.950 . S
C240 C239 1.387 . S
C240 C243 1.387 . S
H241 C237 0.950 . S
H242 C239 0.950 . S
C243 C234 1.390 1_655 S
C243 H236 0.950 . S
C243 C240 1.387 . S
C244 C245 1.387 . S
C244 H248 0.950 . S
C244 C253 1.390 1_565 S
C245 C244 1.387 . S
C245 C247 1.387 . S
H246 C253 0.950 . S
C247 C245 1.387 . S
C247 C249 1.390 1_565 S
C247 H251 0.950 . S
H248 C244 0.950 . S
C249 C247 1.390 1_545 S
C249 C250 1.387 . S
C249 H252 0.950 . S
C250 C249 1.387 . S
C250 C253 1.387 . S
H251 C247 0.950 . S
H252 C249 0.950 . S
C253 C244 1.390 1_545 S
C253 H246 0.950 . S
C253 C250 1.387 . S
C254 C255 1.387 . S
C254 H258 0.950 . S
C254 C263 1.390 1_455 S
C255 C254 1.387 . S
C255 C257 1.387 . S
H256 C263 0.950 . S
C257 C255 1.387 . S
C257 C259 1.390 1_455 S
C257 H261 0.950 . S
H258 C254 0.950 . S
C259 C257 1.390 1_655 S
C259 C260 1.387 . S
C259 H262 0.950 . S
C260 C259 1.387 . S
C260 C263 1.387 . S
H261 C257 0.950 . S
H262 C259 0.950 . S
C263 C254 1.390 1_655 S
C263 H256 0.950 . S
C263 C260 1.387 . S
C264 C265 1.387 1_554 S
C264 H268 0.950 . S
C264 C273 1.390 1_554 S
C265 C264 1.387 1_556 S
C265 C267 1.387 . S
H266 C273 0.950 1_554 S
C267 C265 1.387 . S
C267 C269 1.390 . S
C267 H271 0.950 . S
H268 C264 0.950 . S
C269 C267 1.390 . S
C269 C270 1.387 . S
C269 H272 0.950 . S
C270 C269 1.387 . S
C270 C273 1.387 . S
H271 C267 0.950 . S
H272 C269 0.950 . S
C273 C264 1.390 1_556 S
C273 H266 0.950 1_556 S
C273 C270 1.387 . S
C274 C275 1.387 . S
C274 H278 0.950 1_554 S
C274 C283 1.390 . S
C275 C274 1.387 . S
C275 C277 1.387 . S
H276 C283 0.950 . S
C277 C275 1.387 . S
C277 C279 1.390 . S
C277 H281 0.950 . S
H278 C274 0.950 1_556 S
C279 C277 1.390 . S
C279 C280 1.387 . S
C279 H282 0.950 . S
C280 C279 1.387 . S
C280 C283 1.387 . S
H281 C277 0.950 . S
H282 C279 0.950 . S
C283 C274 1.390 . S
C283 H276 0.950 . S
C283 C280 1.387 . S
C284 C285 1.387 . S
C284 H288 0.950 1_556 S
C284 C293 1.390 1_556 S
C285 C284 1.387 . S
C285 C287 1.387 . S
H286 C293 0.950 . S
C287 C285 1.387 . S
C287 C289 1.390 . S
C287 H291 0.950 . S
H288 C284 0.950 1_554 S
C289 C287 1.390 . S
C289 C290 1.387 . S
C289 H292 0.950 . S
C290 C289 1.387 . S
C290 C293 1.387 1_556 S
H291 C287 0.950 . S
H292 C289 0.950 . S
C293 C284 1.390 1_554 S
C293 H286 0.950 . S
C293 C290 1.387 1_554 S
C294 C295 1.387 1_556 S
C294 H298 0.950 . S
C294 C303 1.390 . S
C295 C294 1.387 1_554 S
C295 C297 1.387 . S
H296 C303 0.950 . S
C297 C295 1.387 . S
C297 C299 1.390 . S
C297 H301 0.950 . S
H298 C294 0.950 . S
C299 C297 1.390 . S
C299 C300 1.387 . S
C299 H302 0.950 . S
C300 C299 1.387 . S
C300 C303 1.387 1_554 S
H301 C297 0.950 . S
H302 C299 0.950 . S
C303 C294 1.390 . S
C303 H296 0.950 . S
C303 C300 1.387 1_556 S
C304 C305 1.387 . S
C304 H308 0.950 . S
C304 C313 1.390 . S
C305 C304 1.387 . S
C305 C307 1.387 . S
H306 C313 0.950 . S
C307 C305 1.387 . S
C307 C309 1.390 . S
C307 H311 0.950 . S
H308 C304 0.950 . S
C309 C307 1.390 . S
C309 C310 1.387 . S
C309 H312 0.950 . S
C310 C309 1.387 . S
C310 C313 1.387 . S
H311 C307 0.950 . S
H312 C309 0.950 . S
C313 C304 1.390 . S
C313 H306 0.950 . S
C313 C310 1.387 . S
C314 C315 1.387 . S
C314 H318 0.950 . S
C314 C323 1.390 . S
C315 C314 1.387 . S
C315 C317 1.387 . S
H316 C323 0.950 . S
C317 C315 1.387 . S
C317 C319 1.390 . S
C317 H321 0.950 . S
H318 C314 0.950 . S
C319 C317 1.390 . S
C319 C320 1.387 . S
C319 H322 0.950 . S
C320 C319 1.387 . S
C320 C323 1.387 . S
H321 C317 0.950 . S
H322 C319 0.950 . S
C323 C314 1.390 . S
C323 H316 0.950 . S
C323 C320 1.387 . S
C324 C325 1.387 . S
C324 H328 0.950 . S
C324 C333 1.390 . S
C325 C324 1.387 . S
C325 C327 1.387 . S
H326 C333 0.950 . S
C327 C325 1.387 . S
C327 C329 1.390 . S
C327 H331 0.950 . S
H328 C324 0.950 . S
C329 C327 1.390 . S
C329 C330 1.387 . S
C329 H332 0.950 . S
C330 C329 1.387 . S
C330 C333 1.387 . S
H331 C327 0.950 . S
H332 C329 0.950 . S
C333 C324 1.390 . S
C333 H326 0.950 . S
C333 C330 1.387 . S
C334 C335 1.387 . S
C334 H338 0.950 . S
C334 C343 1.390 . S
C335 C334 1.387 . S
C335 C337 1.387 . S
H336 C343 0.950 . S
C337 C335 1.387 . S
C337 C339 1.390 . S
C337 H341 0.950 . S
H338 C334 0.950 . S
C339 C337 1.390 . S
C339 C340 1.387 . S
C339 H342 0.950 . S
C340 C339 1.387 . S
C340 C343 1.387 . S
H341 C337 0.950 . S
H342 C339 0.950 . S
C343 C334 1.390 . S
C343 H336 0.950 . S
C343 C340 1.387 . S
C344 C345 1.387 . S
C344 H348 0.950 . S
C344 C353 1.390 1_565 S
C345 C344 1.387 . S
C345 C347 1.387 . S
H346 C353 0.950 . S
C347 C345 1.387 . S
C347 C349 1.390 1_565 S
C347 H351 0.950 . S
H348 C344 0.950 . S
C349 C347 1.390 1_545 S
C349 C350 1.387 . S
C349 H352 0.950 . S
C350 C349 1.387 . S
C350 C353 1.387 . S
H351 C347 0.950 . S
H352 C349 0.950 . S
C353 C344 1.390 1_545 S
C353 H346 0.950 . S
C353 C350 1.387 . S
C354 C355 1.387 . S
C354 H358 0.950 . S
C354 C363 1.390 1_655 S
C355 C354 1.387 . S
C355 C357 1.387 . S
H356 C363 0.950 . S
C357 C355 1.387 . S
C357 C359 1.390 1_655 S
C357 H361 0.950 . S
H358 C354 0.950 . S
C359 C357 1.390 1_455 S
C359 C360 1.387 . S
C359 H362 0.950 . S
C360 C359 1.387 . S
C360 C363 1.387 . S
H361 C357 0.950 . S
H362 C359 0.950 . S
C363 C354 1.390 1_455 S
C363 H356 0.950 . S
C363 C360 1.387 . S
C364 C365 1.387 . S
C364 H368 0.950 . S
C364 C373 1.390 1_565 S
C365 C364 1.387 . S
C365 C367 1.387 . S
H366 C373 0.950 . S
C367 C365 1.387 . S
C367 C369 1.390 1_565 S
C367 H371 0.950 . S
H368 C364 0.950 . S
C369 C367 1.390 1_545 S
C369 C370 1.387 . S
C369 H372 0.950 . S
C370 C369 1.387 . S
C370 C373 1.387 . S
H371 C367 0.950 . S
H372 C369 0.950 . S
C373 C364 1.390 1_545 S
C373 H366 0.950 . S
C373 C370 1.387 . S
C374 C375 1.387 . S
C374 H378 0.950 . S
C374 C383 1.390 1_655 S
C375 C374 1.387 . S
C375 C377 1.387 . S
H376 C383 0.950 . S
C377 C375 1.387 . S
C377 C379 1.390 1_655 S
C377 H381 0.950 . S
H378 C374 0.950 . S
C379 C377 1.390 1_455 S
C379 C380 1.387 . S
C379 H382 0.950 . S
C380 C379 1.387 . S
C380 C383 1.387 . S
H381 C377 0.950 . S
H382 C379 0.950 . S
C383 C374 1.390 1_455 S
C383 H376 0.950 . S
C383 C380 1.387 . S
C384 C385 1.387 . S
C384 H388 0.950 . S
C384 C393 1.390 . S
C385 C384 1.387 . S
C385 C387 1.387 . S
H386 C393 0.950 . S
C387 C385 1.387 . S
C387 C389 1.390 . S
C387 H391 0.950 . S
H388 C384 0.950 . S
C389 C387 1.390 . S
C389 C390 1.387 . S
C389 H392 0.950 . S
C390 C389 1.387 . S
C390 C393 1.387 . S
H391 C387 0.950 . S
H392 C389 0.950 . S
C393 C384 1.390 . S
C393 H386 0.950 . S
C393 C390 1.387 . S
C394 C395 1.387 . S
C394 H398 0.950 . S
C394 C403 1.390 . S
C395 C394 1.387 . S
C395 C397 1.387 . S
H396 C403 0.950 . S
C397 C395 1.387 . S
C397 C399 1.390 . S
C397 H401 0.950 . S
H398 C394 0.950 . S
C399 C397 1.390 . S
C399 C400 1.387 . S
C399 H402 0.950 . S
C400 C399 1.387 . S
C400 C403 1.387 . S
H401 C397 0.950 . S
H402 C399 0.950 . S
C403 C394 1.390 . S
C403 H396 0.950 . S
C403 C400 1.387 . S
C404 C405 1.387 . S
C404 H408 0.950 . S
C404 C413 1.390 . S
C405 C404 1.387 . S
C405 C407 1.387 . S
H406 C413 0.950 . S
C407 C405 1.387 . S
C407 C409 1.390 . S
C407 H411 0.950 . S
H408 C404 0.950 . S
C409 C407 1.390 . S
C409 C410 1.387 . S
C409 H412 0.950 . S
C410 C409 1.387 . S
C410 C413 1.387 . S
H411 C407 0.950 . S
H412 C409 0.950 . S
C413 C404 1.390 . S
C413 H406 0.950 . S
C413 C410 1.387 . S
C414 C415 1.387 . S
C414 H418 0.950 . S
C414 C423 1.390 . S
C415 C414 1.387 . S
C415 C417 1.387 . S
H416 C423 0.950 . S
C417 C415 1.387 . S
C417 C419 1.390 . S
C417 H421 0.950 . S
H418 C414 0.950 . S
C419 C417 1.390 . S
C419 C420 1.387 . S
C419 H422 0.950 . S
C420 C419 1.387 . S
C420 C423 1.387 . S
H421 C417 0.950 . S
H422 C419 0.950 . S
C423 C414 1.390 . S
C423 H416 0.950 . S
C423 C420 1.387 . S
C424 C425 1.387 . S
C424 H428 0.950 . S
C424 C433 1.390 . S
C425 C424 1.387 . S
C425 C427 1.387 . S
H426 C433 0.950 . S
C427 C425 1.387 . S
C427 C429 1.390 . S
C427 H431 0.950 . S
H428 C424 0.950 . S
C429 C427 1.390 . S
C429 C430 1.387 . S
C429 H432 0.950 . S
C430 C429 1.387 . S
C430 C433 1.387 . S
H431 C427 0.950 . S
H432 C429 0.950 . S
C433 C424 1.390 . S
C433 H426 0.950 . S
C433 C430 1.387 . S
C434 C435 1.387 . S
C434 H438 0.950 . S
C434 C443 1.390 . S
C435 C434 1.387 . S
C435 C437 1.387 . S
H436 C443 0.950 . S
C437 C435 1.387 . S
C437 C439 1.390 . S
C437 H441 0.950 . S
H438 C434 0.950 . S
C439 C437 1.390 . S
C439 C440 1.387 . S
C439 H442 0.950 . S
C440 C439 1.387 . S
C440 C443 1.387 . S
H441 C437 0.950 . S
H442 C439 0.950 . S
C443 C434 1.390 . S
C443 H436 0.950 . S
C443 C440 1.387 . S
C444 C445 1.387 . S
C444 H448 0.950 . S
C444 C453 1.390 . S
C445 C444 1.387 . S
C445 C447 1.387 . S
H446 C453 0.950 . S
C447 C445 1.387 . S
C447 C449 1.390 . S
C447 H451 0.950 . S
H448 C444 0.950 . S
C449 C447 1.390 . S
C449 C450 1.387 . S
C449 H452 0.950 . S
C450 C449 1.387 . S
C450 C453 1.387 . S
H451 C447 0.950 . S
H452 C449 0.950 . S
C453 C444 1.390 . S
C453 H446 0.950 . S
C453 C450 1.387 . S
C454 C455 1.387 . S
C454 H458 0.950 . S
C454 C463 1.390 . S
C455 C454 1.387 . S
C455 C457 1.387 . S
H456 C463 0.950 . S
C457 C455 1.387 . S
C457 C459 1.390 . S
C457 H461 0.950 . S
H458 C454 0.950 . S
C459 C457 1.390 . S
C459 C460 1.387 . S
C459 H462 0.950 . S
C460 C459 1.387 . S
C460 C463 1.387 . S
H461 C457 0.950 . S
H462 C459 0.950 . S
C463 C454 1.390 . S
C463 H456 0.950 . S
C463 C460 1.387 . S
C464 C465 1.387 . S
C464 H468 0.950 . S
C464 C473 1.390 . S
C465 C464 1.387 . S
C465 C467 1.387 . S
H466 C473 0.950 . S
C467 C465 1.387 . S
C467 C469 1.390 . S
C467 H471 0.950 . S
H468 C464 0.950 . S
C469 C467 1.390 . S
C469 C470 1.387 . S
C469 H472 0.950 . S
C470 C469 1.387 . S
C470 C473 1.387 . S
H471 C467 0.950 . S
H472 C469 0.950 . S
C473 C464 1.390 . S
C473 H466 0.950 . S
C473 C470 1.387 . S
C474 C475 1.387 . S
C474 H478 0.950 . S
C474 C483 1.390 . S
C475 C474 1.387 . S
C475 C477 1.387 . S
H476 C483 0.950 . S
C477 C475 1.387 . S
C477 C479 1.390 . S
C477 H481 0.950 . S
H478 C474 0.950 . S
C479 C477 1.390 . S
C479 C480 1.387 . S
C479 H482 0.950 . S
C480 C479 1.387 . S
C480 C483 1.387 . S
H481 C477 0.950 . S
H482 C479 0.950 . S
C483 C474 1.390 . S
C483 H476 0.950 . S
C483 C480 1.387 . S
C484 C485 1.387 . S
C484 H488 0.950 . S
C484 C493 1.390 . S
C485 C484 1.387 . S
C485 C487 1.387 . S
H486 C493 0.950 . S
C487 C485 1.387 . S
C487 C489 1.390 . S
C487 H491 0.950 . S
H488 C484 0.950 . S
C489 C487 1.390 . S
C489 C490 1.387 . S
C489 H492 0.950 . S
C490 C489 1.387 . S
C490 C493 1.387 . S
H491 C487 0.950 . S
H492 C489 0.950 . S
C493 C484 1.390 . S
C493 H486 0.950 . S
C493 C490 1.387 . S
C494 C495 1.387 . S
C494 H498 0.950 . S
C494 C503 1.390 . S
C495 C494 1.387 . S
C495 C497 1.387 . S
H496 C503 0.950 . S
C497 C495 1.387 . S
C497 C499 1.390 . S
C497 H501 0.950 . S
H498 C494 0.950 . S
C499 C497 1.390 . S
C499 C500 1.387 . S
C499 H502 0.950 . S
C500 C499 1.387 . S
C500 C503 1.387 . S
H501 C497 0.950 . S
H502 C499 0.950 . S
C503 C494 1.390 . S
C503 H496 0.950 . S
C503 C500 1.387 . S
C504 C505 1.387 . S
C504 H508 0.950 . S
C504 C513 1.390 . S
C505 C504 1.387 . S
C505 C507 1.387 . S
H506 C513 0.950 . S
C507 C505 1.387 . S
C507 C509 1.390 . S
C507 H511 0.950 . S
H508 C504 0.950 . S
C509 C507 1.390 . S
C509 C510 1.387 . S
C509 H512 0.950 . S
C510 C509 1.387 . S
C510 C513 1.387 . S
H511 C507 0.950 . S
H512 C509 0.950 . S
C513 C504 1.390 . S
C513 H506 0.950 . S
C513 C510 1.387 . S
C514 C515 1.387 . S
C514 H518 0.950 . S
C514 C523 1.390 . S
C515 C514 1.387 . S
C515 C517 1.387 . S
H516 C523 0.950 . S
C517 C515 1.387 . S
C517 C519 1.390 . S
C517 H521 0.950 . S
H518 C514 0.950 . S
C519 C517 1.390 . S
C519 C520 1.387 . S
C519 H522 0.950 . S
C520 C519 1.387 . S
C520 C523 1.387 . S
H521 C517 0.950 . S
H522 C519 0.950 . S
C523 C514 1.390 . S
C523 H516 0.950 . S
C523 C520 1.387 . S
C524 C525 1.387 . S
C524 H528 0.950 . S
C524 C533 1.390 . S
C525 C524 1.387 . S
C525 C527 1.387 . S
H526 C533 0.950 . S
C527 C525 1.387 . S
C527 C529 1.390 . S
C527 H531 0.950 . S
H528 C524 0.950 . S
C529 C527 1.390 . S
C529 C530 1.387 . S
C529 H532 0.950 . S
C530 C529 1.387 . S
C530 C533 1.387 . S
H531 C527 0.950 . S
H532 C529 0.950 . S
C533 C524 1.390 . S
C533 H526 0.950 . S
C533 C530 1.387 . S
C534 C535 1.387 . S
C534 H538 0.950 . S
C534 C543 1.390 . S
C535 C534 1.387 . S
C535 C537 1.387 . S
H536 C543 0.950 . S
C537 C535 1.387 . S
C537 C539 1.390 . S
C537 H541 0.950 . S
H538 C534 0.950 . S
C539 C537 1.390 . S
C539 C540 1.387 . S
C539 H542 0.950 . S
C540 C539 1.387 . S
C540 C543 1.387 . S
H541 C537 0.950 . S
H542 C539 0.950 . S
C543 C534 1.390 . S
C543 H536 0.950 . S
C543 C540 1.387 . S
C225 C159 1.405 . S
C230 C0 1.375 . S
C235 C14 1.372 . S
C240 C117 1.404 . S
C245 C28 1.375 . S
C250 C131 1.406 . S
C255 C145 1.406 . S
C260 C42 1.375 . S
C265 C56 1.375 . S
C270 C75 1.405 . S
C275 C70 1.373 . S
C280 C89 1.404 . S
C285 C103 1.405 . S
C290 C84 1.375 . S
C295 C61 1.404 . S
C300 C98 1.372 . S
C305 C47 1.405 . S
C310 C112 1.375 . S
C315 C126 1.375 . S
C320 C5 1.406 . S
C325 C19 1.404 . S
C330 C140 1.373 . S
C335 C154 1.373 . S
C340 C33 1.405 . S
C345 C168 1.375 . S
C350 C187 1.406 . S
C355 C182 1.374 . S
C360 C201 1.406 . S
C365 C215 1.405 . S
C370 C196 1.375 . S
C375 C173 1.406 . S
C380 C210 1.374 . S
C385 C65 1.384 . S
C390 C9 1.384 . S
C395 C23 1.390 . S
C400 C79 1.390 . S
C405 C37 1.390 . S
C410 C93 1.390 . S
C415 C107 1.384 . S
C420 C51 1.384 . S
C425 C121 1.389 . S
C430 C177 1.389 . S
C435 C191 1.384 . S
C440 C135 1.384 . S
C445 C149 1.384 . S
C450 C205 1.384 . S
C455 C219 1.384 . S
C460 C163 1.384 . S
C465 C207 1.476 . S
C470 C11 1.476 . S
C475 C221 1.476 . S
C480 C25 1.476 . S
C485 C39 1.479 . S
C490 C179 1.479 . S
C495 C193 1.479 . S
C500 C53 1.479 . S
C505 C151 1.476 . S
C510 C67 1.476 . S
C515 C165 1.479 . S
C520 C81 1.479 . S
C525 C95 1.479 . S
C530 C123 1.479 . S
C535 C137 1.476 . S
C540 C109 1.476 . S
