# Generated by pormake.
# Topology fcm, (5)-cn, num edge types: 1
# Building blocks:
#     Node 0, Type 0, BuildingBlock: XOMCOT_clean_sbu_0, # of connection points: 5
#     Node 1, Type 0, BuildingBlock: XOMCOT_clean_sbu_0, # of connection points: 5
#     Node 2, Type 0, BuildingBlock: XOMCOT_clean_sbu_0, # of connection points: 5
#     Node 3, Type 0, BuildingBlock: XOMCOT_clean_sbu_0, # of connection points: 5
#     Node 4, Type 0, BuildingBlock: XOMCOT_clean_sbu_0, # of connection points: 5
#     Node 5, Type 0, BuildingBlock: XOMCOT_clean_sbu_0, # of connection points: 5
#     Node 6, Type 0, BuildingBlock: XOMCOT_clean_sbu_0, # of connection points: 5
#     Node 7, Type 0, BuildingBlock: XOMCOT_clean_sbu_0, # of connection points: 5
#     Node 8, Type 0, BuildingBlock: XOMCOT_clean_sbu_0, # of connection points: 5
#     Node 9, Type 0, BuildingBlock: XOMCOT_clean_sbu_0, # of connection points: 5
#     Node 10, Type 0, BuildingBlock: XOMCOT_clean_sbu_0, # of connection points: 5
#     Node 11, Type 0, BuildingBlock: XOMCOT_clean_sbu_0, # of connection points: 5
#     Node 12, Type 0, BuildingBlock: XOMCOT_clean_sbu_0, # of connection points: 5
#     Node 13, Type 0, BuildingBlock: XOMCOT_clean_sbu_0, # of connection points: 5
#     Node 14, Type 0, BuildingBlock: XOMCOT_clean_sbu_0, # of connection points: 5
#     Node 15, Type 0, BuildingBlock: XOMCOT_clean_sbu_0, # of connection points: 5
#     Node 16, Type 0, BuildingBlock: XOMCOT_clean_sbu_0, # of connection points: 5
#     Node 17, Type 0, BuildingBlock: XOMCOT_clean_sbu_0, # of connection points: 5
#     Node 18, Type 0, BuildingBlock: XOMCOT_clean_sbu_0, # of connection points: 5
#     Node 19, Type 0, BuildingBlock: XOMCOT_clean_sbu_0, # of connection points: 5
#     Node 20, Type 0, BuildingBlock: XOMCOT_clean_sbu_0, # of connection points: 5
#     Node 21, Type 0, BuildingBlock: XOMCOT_clean_sbu_0, # of connection points: 5
#     Node 22, Type 0, BuildingBlock: XOMCOT_clean_sbu_0, # of connection points: 5
#     Node 23, Type 0, BuildingBlock: XOMCOT_clean_sbu_0, # of connection points: 5
#     Node 24, Type 0, BuildingBlock: XOMCOT_clean_sbu_0, # of connection points: 5
#     Node 25, Type 0, BuildingBlock: XOMCOT_clean_sbu_0, # of connection points: 5
#     Node 26, Type 0, BuildingBlock: XOMCOT_clean_sbu_0, # of connection points: 5
#     Node 27, Type 0, BuildingBlock: XOMCOT_clean_sbu_0, # of connection points: 5
#     Node 28, Type 0, BuildingBlock: XOMCOT_clean_sbu_0, # of connection points: 5
#     Node 29, Type 0, BuildingBlock: XOMCOT_clean_sbu_0, # of connection points: 5
#     Node 30, Type 0, BuildingBlock: XOMCOT_clean_sbu_0, # of connection points: 5
#     Node 31, Type 0, BuildingBlock: XOMCOT_clean_sbu_0, # of connection points: 5
#     Node 32, Type 0, BuildingBlock: XOMCOT_clean_sbu_0, # of connection points: 5
#     Node 33, Type 0, BuildingBlock: XOMCOT_clean_sbu_0, # of connection points: 5
#     Node 34, Type 0, BuildingBlock: XOMCOT_clean_sbu_0, # of connection points: 5
#     Node 35, Type 0, BuildingBlock: XOMCOT_clean_sbu_0, # of connection points: 5
#     Node 36, Type 0, BuildingBlock: XOMCOT_clean_sbu_0, # of connection points: 5
#     Node 37, Type 0, BuildingBlock: XOMCOT_clean_sbu_0, # of connection points: 5
#     Node 38, Type 0, BuildingBlock: XOMCOT_clean_sbu_0, # of connection points: 5
#     Node 39, Type 0, BuildingBlock: XOMCOT_clean_sbu_0, # of connection points: 5
#     Node 40, Type 0, BuildingBlock: XOMCOT_clean_sbu_0, # of connection points: 5
#     Node 41, Type 0, BuildingBlock: XOMCOT_clean_sbu_0, # of connection points: 5
#     Node 42, Type 0, BuildingBlock: XOMCOT_clean_sbu_0, # of connection points: 5
#     Node 43, Type 0, BuildingBlock: XOMCOT_clean_sbu_0, # of connection points: 5
#     Node 44, Type 0, BuildingBlock: XOMCOT_clean_sbu_0, # of connection points: 5
#     Node 45, Type 0, BuildingBlock: XOMCOT_clean_sbu_0, # of connection points: 5
#     Node 46, Type 0, BuildingBlock: XOMCOT_clean_sbu_0, # of connection points: 5
#     Node 47, Type 0, BuildingBlock: XOMCOT_clean_sbu_0, # of connection points: 5
#     Edge 48, Type (0, 0), BuildingBlock: KIFKEQ_clean_linker_1, # of connection points: 2
#     Edge 49, Type (0, 0), BuildingBlock: KIFKEQ_clean_linker_1, # of connection points: 2
#     Edge 50, Type (0, 0), BuildingBlock: KIFKEQ_clean_linker_1, # of connection points: 2
#     Edge 51, Type (0, 0), BuildingBlock: KIFKEQ_clean_linker_1, # of connection points: 2
#     Edge 52, Type (0, 0), BuildingBlock: KIFKEQ_clean_linker_1, # of connection points: 2
#     Edge 53, Type (0, 0), BuildingBlock: KIFKEQ_clean_linker_1, # of connection points: 2
#     Edge 54, Type (0, 0), BuildingBlock: KIFKEQ_clean_linker_1, # of connection points: 2
#     Edge 55, Type (0, 0), BuildingBlock: KIFKEQ_clean_linker_1, # of connection points: 2
#     Edge 56, Type (0, 0), BuildingBlock: KIFKEQ_clean_linker_1, # of connection points: 2
#     Edge 57, Type (0, 0), BuildingBlock: KIFKEQ_clean_linker_1, # of connection points: 2
#     Edge 58, Type (0, 0), BuildingBlock: KIFKEQ_clean_linker_1, # of connection points: 2
#     Edge 59, Type (0, 0), BuildingBlock: KIFKEQ_clean_linker_1, # of connection points: 2
#     Edge 60, Type (0, 0), BuildingBlock: KIFKEQ_clean_linker_1, # of connection points: 2
#     Edge 61, Type (0, 0), BuildingBlock: KIFKEQ_clean_linker_1, # of connection points: 2
#     Edge 62, Type (0, 0), BuildingBlock: KIFKEQ_clean_linker_1, # of connection points: 2
#     Edge 63, Type (0, 0), BuildingBlock: KIFKEQ_clean_linker_1, # of connection points: 2
#     Edge 64, Type (0, 0), BuildingBlock: KIFKEQ_clean_linker_1, # of connection points: 2
#     Edge 65, Type (0, 0), BuildingBlock: KIFKEQ_clean_linker_1, # of connection points: 2
#     Edge 66, Type (0, 0), BuildingBlock: KIFKEQ_clean_linker_1, # of connection points: 2
#     Edge 67, Type (0, 0), BuildingBlock: KIFKEQ_clean_linker_1, # of connection points: 2
#     Edge 68, Type (0, 0), BuildingBlock: KIFKEQ_clean_linker_1, # of connection points: 2
#     Edge 69, Type (0, 0), BuildingBlock: KIFKEQ_clean_linker_1, # of connection points: 2
#     Edge 70, Type (0, 0), BuildingBlock: KIFKEQ_clean_linker_1, # of connection points: 2
#     Edge 71, Type (0, 0), BuildingBlock: KIFKEQ_clean_linker_1, # of connection points: 2
#     Edge 72, Type (0, 0), BuildingBlock: KIFKEQ_clean_linker_1, # of connection points: 2
#     Edge 73, Type (0, 0), BuildingBlock: KIFKEQ_clean_linker_1, # of connection points: 2
#     Edge 74, Type (0, 0), BuildingBlock: KIFKEQ_clean_linker_1, # of connection points: 2
#     Edge 75, Type (0, 0), BuildingBlock: KIFKEQ_clean_linker_1, # of connection points: 2
#     Edge 76, Type (0, 0), BuildingBlock: KIFKEQ_clean_linker_1, # of connection points: 2
#     Edge 77, Type (0, 0), BuildingBlock: KIFKEQ_clean_linker_1, # of connection points: 2
#     Edge 78, Type (0, 0), BuildingBlock: KIFKEQ_clean_linker_1, # of connection points: 2
#     Edge 79, Type (0, 0), BuildingBlock: KIFKEQ_clean_linker_1, # of connection points: 2
#     Edge 80, Type (0, 0), BuildingBlock: KIFKEQ_clean_linker_1, # of connection points: 2
#     Edge 81, Type (0, 0), BuildingBlock: KIFKEQ_clean_linker_1, # of connection points: 2
#     Edge 82, Type (0, 0), BuildingBlock: KIFKEQ_clean_linker_1, # of connection points: 2
#     Edge 83, Type (0, 0), BuildingBlock: KIFKEQ_clean_linker_1, # of connection points: 2
#     Edge 84, Type (0, 0), BuildingBlock: KIFKEQ_clean_linker_1, # of connection points: 2
#     Edge 85, Type (0, 0), BuildingBlock: KIFKEQ_clean_linker_1, # of connection points: 2
#     Edge 86, Type (0, 0), BuildingBlock: KIFKEQ_clean_linker_1, # of connection points: 2
#     Edge 87, Type (0, 0), BuildingBlock: KIFKEQ_clean_linker_1, # of connection points: 2
#     Edge 88, Type (0, 0), BuildingBlock: KIFKEQ_clean_linker_1, # of connection points: 2
#     Edge 89, Type (0, 0), BuildingBlock: KIFKEQ_clean_linker_1, # of connection points: 2
#     Edge 90, Type (0, 0), BuildingBlock: KIFKEQ_clean_linker_1, # of connection points: 2
#     Edge 91, Type (0, 0), BuildingBlock: KIFKEQ_clean_linker_1, # of connection points: 2
#     Edge 92, Type (0, 0), BuildingBlock: KIFKEQ_clean_linker_1, # of connection points: 2
#     Edge 93, Type (0, 0), BuildingBlock: KIFKEQ_clean_linker_1, # of connection points: 2
#     Edge 94, Type (0, 0), BuildingBlock: KIFKEQ_clean_linker_1, # of connection points: 2
#     Edge 95, Type (0, 0), BuildingBlock: KIFKEQ_clean_linker_1, # of connection points: 2
#     Edge 96, Type (0, 0), BuildingBlock: KIFKEQ_clean_linker_1, # of connection points: 2
#     Edge 97, Type (0, 0), BuildingBlock: KIFKEQ_clean_linker_1, # of connection points: 2
#     Edge 98, Type (0, 0), BuildingBlock: KIFKEQ_clean_linker_1, # of connection points: 2
#     Edge 99, Type (0, 0), BuildingBlock: KIFKEQ_clean_linker_1, # of connection points: 2
#     Edge 100, Type (0, 0), BuildingBlock: KIFKEQ_clean_linker_1, # of connection points: 2
#     Edge 101, Type (0, 0), BuildingBlock: KIFKEQ_clean_linker_1, # of connection points: 2
#     Edge 102, Type (0, 0), BuildingBlock: KIFKEQ_clean_linker_1, # of connection points: 2
#     Edge 103, Type (0, 0), BuildingBlock: KIFKEQ_clean_linker_1, # of connection points: 2
#     Edge 104, Type (0, 0), BuildingBlock: KIFKEQ_clean_linker_1, # of connection points: 2
#     Edge 105, Type (0, 0), BuildingBlock: KIFKEQ_clean_linker_1, # of connection points: 2
#     Edge 106, Type (0, 0), BuildingBlock: KIFKEQ_clean_linker_1, # of connection points: 2
#     Edge 107, Type (0, 0), BuildingBlock: KIFKEQ_clean_linker_1, # of connection points: 2
#     Edge 108, Type (0, 0), BuildingBlock: KIFKEQ_clean_linker_1, # of connection points: 2
#     Edge 109, Type (0, 0), BuildingBlock: KIFKEQ_clean_linker_1, # of connection points: 2
#     Edge 110, Type (0, 0), BuildingBlock: KIFKEQ_clean_linker_1, # of connection points: 2
#     Edge 111, Type (0, 0), BuildingBlock: KIFKEQ_clean_linker_1, # of connection points: 2
#     Edge 112, Type (0, 0), BuildingBlock: KIFKEQ_clean_linker_1, # of connection points: 2
#     Edge 113, Type (0, 0), BuildingBlock: KIFKEQ_clean_linker_1, # of connection points: 2
#     Edge 114, Type (0, 0), BuildingBlock: KIFKEQ_clean_linker_1, # of connection points: 2
#     Edge 115, Type (0, 0), BuildingBlock: KIFKEQ_clean_linker_1, # of connection points: 2
#     Edge 116, Type (0, 0), BuildingBlock: KIFKEQ_clean_linker_1, # of connection points: 2
#     Edge 117, Type (0, 0), BuildingBlock: KIFKEQ_clean_linker_1, # of connection points: 2
#     Edge 118, Type (0, 0), BuildingBlock: KIFKEQ_clean_linker_1, # of connection points: 2
#     Edge 119, Type (0, 0), BuildingBlock: KIFKEQ_clean_linker_1, # of connection points: 2
#     Edge 120, Type (0, 0), BuildingBlock: KIFKEQ_clean_linker_1, # of connection points: 2
#     Edge 121, Type (0, 0), BuildingBlock: KIFKEQ_clean_linker_1, # of connection points: 2
#     Edge 122, Type (0, 0), BuildingBlock: KIFKEQ_clean_linker_1, # of connection points: 2
#     Edge 123, Type (0, 0), BuildingBlock: KIFKEQ_clean_linker_1, # of connection points: 2
#     Edge 124, Type (0, 0), BuildingBlock: KIFKEQ_clean_linker_1, # of connection points: 2
#     Edge 125, Type (0, 0), BuildingBlock: KIFKEQ_clean_linker_1, # of connection points: 2
#     Edge 126, Type (0, 0), BuildingBlock: KIFKEQ_clean_linker_1, # of connection points: 2
#     Edge 127, Type (0, 0), BuildingBlock: KIFKEQ_clean_linker_1, # of connection points: 2
#     Edge 128, Type (0, 0), BuildingBlock: KIFKEQ_clean_linker_1, # of connection points: 2
#     Edge 129, Type (0, 0), BuildingBlock: KIFKEQ_clean_linker_1, # of connection points: 2
#     Edge 130, Type (0, 0), BuildingBlock: KIFKEQ_clean_linker_1, # of connection points: 2
#     Edge 131, Type (0, 0), BuildingBlock: KIFKEQ_clean_linker_1, # of connection points: 2
#     Edge 132, Type (0, 0), BuildingBlock: KIFKEQ_clean_linker_1, # of connection points: 2
#     Edge 133, Type (0, 0), BuildingBlock: KIFKEQ_clean_linker_1, # of connection points: 2
#     Edge 134, Type (0, 0), BuildingBlock: KIFKEQ_clean_linker_1, # of connection points: 2
#     Edge 135, Type (0, 0), BuildingBlock: KIFKEQ_clean_linker_1, # of connection points: 2
#     Edge 136, Type (0, 0), BuildingBlock: KIFKEQ_clean_linker_1, # of connection points: 2
#     Edge 137, Type (0, 0), BuildingBlock: KIFKEQ_clean_linker_1, # of connection points: 2
#     Edge 138, Type (0, 0), BuildingBlock: KIFKEQ_clean_linker_1, # of connection points: 2
#     Edge 139, Type (0, 0), BuildingBlock: KIFKEQ_clean_linker_1, # of connection points: 2
#     Edge 140, Type (0, 0), BuildingBlock: KIFKEQ_clean_linker_1, # of connection points: 2
#     Edge 141, Type (0, 0), BuildingBlock: KIFKEQ_clean_linker_1, # of connection points: 2
#     Edge 142, Type (0, 0), BuildingBlock: KIFKEQ_clean_linker_1, # of connection points: 2
#     Edge 143, Type (0, 0), BuildingBlock: KIFKEQ_clean_linker_1, # of connection points: 2
#     Edge 144, Type (0, 0), BuildingBlock: KIFKEQ_clean_linker_1, # of connection points: 2
#     Edge 145, Type (0, 0), BuildingBlock: KIFKEQ_clean_linker_1, # of connection points: 2
#     Edge 146, Type (0, 0), BuildingBlock: KIFKEQ_clean_linker_1, # of connection points: 2
#     Edge 147, Type (0, 0), BuildingBlock: KIFKEQ_clean_linker_1, # of connection points: 2
#     Edge 148, Type (0, 0), BuildingBlock: KIFKEQ_clean_linker_1, # of connection points: 2
#     Edge 149, Type (0, 0), BuildingBlock: KIFKEQ_clean_linker_1, # of connection points: 2
#     Edge 150, Type (0, 0), BuildingBlock: KIFKEQ_clean_linker_1, # of connection points: 2
#     Edge 151, Type (0, 0), BuildingBlock: KIFKEQ_clean_linker_1, # of connection points: 2
#     Edge 152, Type (0, 0), BuildingBlock: KIFKEQ_clean_linker_1, # of connection points: 2
#     Edge 153, Type (0, 0), BuildingBlock: KIFKEQ_clean_linker_1, # of connection points: 2
#     Edge 154, Type (0, 0), BuildingBlock: KIFKEQ_clean_linker_1, # of connection points: 2
#     Edge 155, Type (0, 0), BuildingBlock: KIFKEQ_clean_linker_1, # of connection points: 2
#     Edge 156, Type (0, 0), BuildingBlock: KIFKEQ_clean_linker_1, # of connection points: 2
#     Edge 157, Type (0, 0), BuildingBlock: KIFKEQ_clean_linker_1, # of connection points: 2
#     Edge 158, Type (0, 0), BuildingBlock: KIFKEQ_clean_linker_1, # of connection points: 2
#     Edge 159, Type (0, 0), BuildingBlock: KIFKEQ_clean_linker_1, # of connection points: 2
#     Edge 160, Type (0, 0), BuildingBlock: KIFKEQ_clean_linker_1, # of connection points: 2
#     Edge 161, Type (0, 0), BuildingBlock: KIFKEQ_clean_linker_1, # of connection points: 2
#     Edge 162, Type (0, 0), BuildingBlock: KIFKEQ_clean_linker_1, # of connection points: 2
#     Edge 163, Type (0, 0), BuildingBlock: KIFKEQ_clean_linker_1, # of connection points: 2
#     Edge 164, Type (0, 0), BuildingBlock: KIFKEQ_clean_linker_1, # of connection points: 2
#     Edge 165, Type (0, 0), BuildingBlock: KIFKEQ_clean_linker_1, # of connection points: 2
#     Edge 166, Type (0, 0), BuildingBlock: KIFKEQ_clean_linker_1, # of connection points: 2
#     Edge 167, Type (0, 0), BuildingBlock: KIFKEQ_clean_linker_1, # of connection points: 2
# Relax obj value: 0.301
# Max RMSD: 0.287
# Mean RMSD: 0.285
data_MOF--net-fcm--node1-XOMCOT_clean_sbu_0--edge1-KIFKEQ_clean_linker_1
_symmetry_space_group_name_H-M    P1
_symmetry_Int_Tables_number       1
_symmetry_cell_setting            triclinic
loop_
_symmetry_equiv_pos_as_xyz
'x, y, z'
_cell_length_a     68.002241
_cell_length_b     68.008527
_cell_length_c     67.996509
_cell_angle_alpha  90.006621
_cell_angle_beta   89.990339
_cell_angle_gamma 90.006479
loop_
_atom_site_label
_atom_site_type_symbol
_atom_site_fract_x
_atom_site_fract_y
_atom_site_fract_z
_atom_type_partial_charge
Co0 Co 0.99829 0.04419 0.36985 0.0
C1 C 0.02094 0.06049 0.40251 0.0
C2 C 0.99243 0.07363 0.40122 0.0
C3 C 0.00109 0.07865 0.41891 0.0
N4 N 0.005 0.06228 0.39087 0.0
N5 N 0.01903 0.07021 0.41968 0.0
H6 H 0.03262 0.05018 0.39976 0.0
H7 H 0.97737 0.07658 0.39701 0.0
C8 C 0.988 0.08446 0.35381 0.0
O9 O 0.00232 0.09251 0.36397 0.0
N10 N 0.99175 0.02545 0.34934 0.0
C11 C 0.99272 0.00567 0.35057 0.0
C12 C 0.98844 0.99774 0.33253 0.0
C13 C 0.98701 0.02922 0.33044 0.0
N14 N 0.98488 0.01253 0.31982 0.0
C15 C 0.0398 0.03745 0.36441 0.0
C16 C 0.04519 0.06272 0.33311 0.0
C17 C 0.06173 0.05357 0.34132 0.0
C18 C 0.05874 0.04036 0.35688 0.0
C19 C 0.02654 0.0594 0.3411 0.0
N20 N 0.02409 0.04784 0.3574 0.0
H21 H 0.03791 0.02703 0.37622 0.0
H22 H 0.01423 0.06599 0.33373 0.0
H23 H 0.99692 0.99734 0.36342 0.0
H24 H 0.98568 0.04386 0.32446 0.0
O25 O 0.00411 0.0228 0.38792 0.0
O26 O 0.97493 0.03674 0.38406 0.0
O27 O 0.98544 0.06584 0.35404 0.0
C28 C 0.98564 0.0237 0.39297 0.0
H29 H 0.99415 0.08664 0.43079 0.0
H30 H 0.98895 0.98226 0.3289 0.0
H31 H 0.04658 0.07226 0.32043 0.0
H32 H 0.07096 0.03263 0.36354 0.0
Co33 Co 0.20167 0.73992 0.62133 0.0
C34 C 0.18404 0.7626 0.65293 0.0
C35 C 0.17592 0.73231 0.65532 0.0
C36 C 0.17071 0.74173 0.67245 0.0
N37 N 0.18396 0.74552 0.64289 0.0
N38 N 0.17614 0.76078 0.67108 0.0
H39 H 0.19211 0.77537 0.64799 0.0
H40 H 0.17531 0.71663 0.65273 0.0
C41 C 0.16207 0.72364 0.60754 0.0
O42 O 0.15286 0.73142 0.62258 0.0
N43 N 0.22026 0.73461 0.60029 0.0
C44 C 0.24004 0.73319 0.60177 0.0
C45 C 0.2477 0.72859 0.5837 0.0
C46 C 0.2163 0.73125 0.58113 0.0
N47 N 0.23278 0.72728 0.57076 0.0
C48 C 0.21132 0.77921 0.60939 0.0
C49 C 0.17434 0.7898 0.59633 0.0
C50 C 0.18921 0.80413 0.59629 0.0
C51 C 0.20801 0.79848 0.6028 0.0
C52 C 0.17816 0.77092 0.6034 0.0
N53 N 0.19642 0.76575 0.6099 0.0
H54 H 0.2258 0.77519 0.61454 0.0
H55 H 0.16613 0.76078 0.60391 0.0
H56 H 0.24861 0.73543 0.61494 0.0
H57 H 0.20171 0.73166 0.57488 0.0
O58 O 0.22306 0.74666 0.63891 0.0
O59 O 0.21065 0.71673 0.63508 0.0
O60 O 0.18045 0.72674 0.60483 0.0
C61 C 0.22324 0.72814 0.64387 0.0
H62 H 0.16481 0.73465 0.68541 0.0
H63 H 0.26313 0.72675 0.58027 0.0
H64 H 0.15969 0.79306 0.59103 0.0
H65 H 0.22002 0.80891 0.60333 0.0
Co66 Co 0.49926 0.95781 0.87178 0.0
C67 C 0.4846 0.93742 0.90676 0.0
C68 C 0.51542 0.93257 0.90284 0.0
C69 C 0.51037 0.92713 0.92174 0.0
N70 N 0.49923 0.93931 0.89351 0.0
N71 N 0.49094 0.93018 0.92404 0.0
H72 H 0.47022 0.94376 0.90509 0.0
H73 H 0.53023 0.93371 0.89714 0.0
C74 C 0.51305 0.91944 0.85475 0.0
O75 O 0.50116 0.91023 0.86687 0.0
N76 N 0.49896 0.9769 0.85091 0.0
C77 C 0.48631 0.99209 0.84978 0.0
C78 C 0.49021 0.00255 0.833 0.0
C79 C 0.51043 0.97824 0.8348 0.0
N80 N 0.50535 0.99386 0.82359 0.0
C81 C 0.45684 0.95675 0.87219 0.0
C82 C 0.45217 0.93326 0.8394 0.0
C83 C 0.4354 0.93958 0.84951 0.0
C84 C 0.43788 0.95181 0.8659 0.0
C85 C 0.47081 0.93873 0.84605 0.0
N86 N 0.47313 0.94938 0.86298 0.0
H87 H 0.45835 0.9667 0.88446 0.0
H88 H 0.48314 0.93489 0.83695 0.0
H89 H 0.47479 0.99518 0.8603 0.0
H90 H 0.52215 0.96807 0.83135 0.0
O91 O 0.4922 0.97833 0.89045 0.0
O92 O 0.52261 0.96989 0.88241 0.0
O93 O 0.5133 0.93825 0.85422 0.0
C94 C 0.51103 0.98095 0.8928 0.0
H95 H 0.52042 0.92308 0.9334 0.0
H96 H 0.48207 0.01519 0.82778 0.0
H97 H 0.4509 0.92461 0.82608 0.0
H98 H 0.42531 0.95742 0.8739 0.0
Co99 Co 0.2984 0.25362 0.12566 0.0
C100 C 0.31778 0.23166 0.15641 0.0
C101 C 0.32828 0.26139 0.15601 0.0
C102 C 0.33404 0.25265 0.17345 0.0
N103 N 0.31786 0.24819 0.14552 0.0
N104 N 0.32741 0.23396 0.17353 0.0
H105 H 0.30853 0.21911 0.15314 0.0
H106 H 0.32959 0.27681 0.15236 0.0
C107 C 0.31786 0.28381 0.10205 0.0
O108 O 0.30267 0.29481 0.10665 0.0
N109 N 0.27851 0.25859 0.1058 0.0
C110 C 0.25947 0.2636 0.10848 0.0
C111 C 0.25034 0.26451 0.09051 0.0
C112 C 0.28061 0.25647 0.08618 0.0
N113 N 0.26362 0.26 0.07651 0.0
C114 C 0.28907 0.21443 0.11291 0.0
C115 C 0.32652 0.2052 0.09994 0.0
C116 C 0.31193 0.19061 0.09919 0.0
C117 C 0.29289 0.19554 0.10563 0.0
C118 C 0.32217 0.22372 0.10757 0.0
N119 N 0.30366 0.22815 0.11391 0.0
H120 H 0.27447 0.21801 0.11811 0.0
H121 H 0.33392 0.23431 0.10883 0.0
H122 H 0.25237 0.26627 0.12242 0.0
H123 H 0.29419 0.252 0.07919 0.0
O124 O 0.27827 0.24661 0.14471 0.0
O125 O 0.29026 0.27657 0.14017 0.0
O126 O 0.31883 0.26622 0.10848 0.0
C127 C 0.27863 0.26505 0.15 0.0
H128 H 0.34093 0.25995 0.1858 0.0
H129 H 0.23512 0.2684 0.08794 0.0
H130 H 0.34134 0.20236 0.09487 0.0
H131 H 0.28117 0.18477 0.10561 0.0
Co132 Co 0.99609 0.95726 0.12515 0.0
C133 C 0.01277 0.93686 0.09099 0.0
C134 C 0.98224 0.93019 0.09448 0.0
C135 C 0.98806 0.92434 0.07593 0.0
N136 N 0.99775 0.93835 0.10383 0.0
N137 N 0.00731 0.92847 0.07395 0.0
H138 H 0.02668 0.94416 0.09266 0.0
H139 H 0.96727 0.93056 0.09985 0.0
C140 C 0.98595 0.91815 0.14245 0.0
O141 O 0.99952 0.91024 0.13121 0.0
N142 N 0.99463 0.9768 0.14577 0.0
C143 C 0.00253 0.99497 0.14465 0.0
C144 C 0.00069 0.00404 0.16252 0.0
C145 C 0.98818 0.97503 0.16448 0.0
N146 N 0.99182 0.9915 0.17501 0.0
C147 C 0.03852 0.95917 0.12502 0.0
C148 C 0.04439 0.93715 0.15862 0.0
C149 C 0.06086 0.94381 0.1482 0.0
C150 C 0.05772 0.9553 0.13136 0.0
C151 C 0.02552 0.94138 0.15178 0.0
N152 N 0.02267 0.95114 0.13442 0.0
H153 H 0.03646 0.96869 0.11249 0.0
H154 H 0.01337 0.93713 0.16096 0.0
H155 H 0.00988 0.0011 0.13197 0.0
H156 H 0.98193 0.96173 0.17057 0.0
O157 O 0.00168 0.97775 0.10598 0.0
O158 O 0.97196 0.9672 0.1141 0.0
O159 O 0.9835 0.93681 0.14266 0.0
C160 C 0.98272 0.9789 0.10354 0.0
H161 H 0.97855 0.91927 0.06421 0.0
H162 H 0.00593 0.01862 0.16617 0.0
H163 H 0.04597 0.92864 0.17199 0.0
H164 H 0.06996 0.96155 0.12331 0.0
Co165 Co 0.29023 0.73709 0.37852 0.0
C166 C 0.30852 0.75536 0.34483 0.0
C167 C 0.31731 0.72516 0.34673 0.0
C168 C 0.32244 0.73232 0.32838 0.0
N169 N 0.30843 0.73969 0.35691 0.0
N170 N 0.31698 0.75136 0.32744 0.0
H171 H 0.30031 0.76869 0.34773 0.0
H172 H 0.31804 0.70998 0.35143 0.0
C173 C 0.31844 0.73016 0.41208 0.0
O174 O 0.31079 0.74518 0.42154 0.0
N175 N 0.27087 0.73437 0.39962 0.0
C176 C 0.25206 0.74078 0.39883 0.0
C177 C 0.2425 0.73573 0.41582 0.0
C178 C 0.27204 0.72459 0.4169 0.0
N179 N 0.2551 0.72567 0.42725 0.0
C180 C 0.28269 0.77735 0.39009 0.0
C181 C 0.32166 0.78796 0.39467 0.0
C182 C 0.30702 0.80174 0.39925 0.0
C183 C 0.2873 0.79629 0.39656 0.0
C184 C 0.31639 0.76916 0.38835 0.0
N185 N 0.29707 0.76372 0.38695 0.0
H186 H 0.26752 0.77383 0.38743 0.0
H187 H 0.32792 0.75883 0.38476 0.0
H188 H 0.24548 0.74873 0.38676 0.0
H189 H 0.28468 0.7164 0.42182 0.0
O190 O 0.26935 0.74299 0.3601 0.0
O191 O 0.2803 0.71306 0.36727 0.0
O192 O 0.3117 0.72503 0.39527 0.0
C193 C 0.26835 0.72407 0.35718 0.0
H194 H 0.32822 0.72386 0.3162 0.0
H195 H 0.2276 0.73977 0.41973 0.0
H196 H 0.3371 0.79168 0.3958 0.0
H197 H 0.27545 0.80648 0.39961 0.0
Co198 Co 0.51686 0.04735 0.62944 0.0
C199 C 0.4915 0.06077 0.5977 0.0
C200 C 0.52125 0.06968 0.59263 0.0
C201 C 0.51087 0.07194 0.57541 0.0
N202 N 0.50906 0.0628 0.60674 0.0
N203 N 0.4922 0.06618 0.57864 0.0
H204 H 0.47926 0.05284 0.60408 0.0
H205 H 0.53703 0.07101 0.59413 0.0
C206 C 0.53189 0.08838 0.63977 0.0
O207 O 0.52603 0.09586 0.623 0.0
N208 N 0.5246 0.03121 0.6517 0.0
C209 C 0.5333 0.01334 0.65146 0.0
C210 C 0.53651 0.00733 0.67043 0.0
C211 C 0.52264 0.03574 0.67093 0.0
N212 N 0.52984 0.0214 0.68266 0.0
C213 C 0.47993 0.03635 0.64677 0.0
C214 C 0.46543 0.07418 0.65058 0.0
C215 C 0.4533 0.05833 0.65572 0.0
C216 C 0.46087 0.0392 0.65407 0.0
C217 C 0.48438 0.07071 0.64356 0.0
N218 N 0.49136 0.052 0.64153 0.0
H219 H 0.48545 0.02155 0.64493 0.0
H220 H 0.49308 0.0831 0.63896 0.0
H221 H 0.53702 0.00486 0.63859 0.0
H222 H 0.51606 0.04924 0.67619 0.0
O223 O 0.51079 0.02422 0.61417 0.0
O224 O 0.53995 0.03893 0.61528 0.0
O225 O 0.52865 0.07038 0.64401 0.0
C226 C 0.52892 0.02508 0.60799 0.0
H227 H 0.51698 0.07574 0.56121 0.0
H228 H 0.54277 0.99339 0.67486 0.0
H229 H 0.46023 0.08919 0.65174 0.0
H230 H 0.45193 0.02654 0.65773 0.0
Co231 Co 0.20733 0.25639 0.88078 0.0
C232 C 0.19315 0.23133 0.84937 0.0
C233 C 0.17909 0.25955 0.8482 0.0
C234 C 0.17532 0.24967 0.83085 0.0
N235 N 0.19046 0.24804 0.85963 0.0
N236 N 0.18418 0.23195 0.83175 0.0
H237 H 0.20348 0.22 0.85367 0.0
H238 H 0.17559 0.27475 0.85133 0.0
C239 C 0.18381 0.28634 0.90016 0.0
O240 O 0.19852 0.29809 0.89583 0.0
N241 N 0.22459 0.26466 0.90201 0.0
C242 C 0.24144 0.27511 0.9007 0.0
C243 C 0.2492 0.2774 0.91917 0.0
C244 C 0.22234 0.26091 0.92138 0.0
N245 N 0.23723 0.26846 0.93217 0.0
C246 C 0.21808 0.21916 0.8978 0.0
C247 C 0.17999 0.20744 0.90611 0.0
C248 C 0.19546 0.19439 0.91008 0.0
C249 C 0.21478 0.20055 0.90604 0.0
C250 C 0.18391 0.22578 0.89789 0.0
N251 N 0.20273 0.23145 0.89385 0.0
H252 H 0.23293 0.22368 0.89434 0.0
H253 H 0.17167 0.23521 0.89424 0.0
H254 H 0.24798 0.28072 0.88738 0.0
H255 H 0.21 0.25288 0.92743 0.0
O256 O 0.22988 0.24965 0.86471 0.0
O257 O 0.21508 0.2787 0.86509 0.0
O258 O 0.18447 0.26837 0.89492 0.0
C259 C 0.22863 0.26744 0.85769 0.0
H260 H 0.16804 0.25561 0.818 0.0
H261 H 0.2629 0.28472 0.92265 0.0
H262 H 0.16488 0.20348 0.90918 0.0
H263 H 0.22716 0.19091 0.90868 0.0
Co264 Co 0.37439 0.98786 0.04767 0.0
C265 C 0.40468 0.01272 0.06401 0.0
C266 C 0.40789 0.98339 0.07505 0.0
C267 C 0.4249 0.99378 0.07905 0.0
N268 N 0.39531 0.99532 0.06541 0.0
N269 N 0.42272 0.01221 0.07209 0.0
H270 H 0.39957 0.02469 0.05484 0.0
H271 H 0.40595 0.96775 0.07695 0.0
C272 C 0.36066 0.95876 0.07687 0.0
O273 O 0.37447 0.94705 0.07021 0.0
N274 N 0.35353 0.98086 0.02952 0.0
C275 C 0.35522 0.9752 0.01055 0.0
C276 C 0.33677 0.97316 0.00264 0.0
C277 C 0.334 0.98213 0.03284 0.0
N278 N 0.32345 0.97758 0.01663 0.0
C279 C 0.35974 0.02621 0.03734 0.0
C280 C 0.34963 0.03697 0.07526 0.0
C281 C 0.34802 0.05104 0.06026 0.0
C282 C 0.35283 0.04531 0.04096 0.0
C283 C 0.35684 0.01828 0.07109 0.0
N284 N 0.36193 0.01312 0.05237 0.0
H285 H 0.36394 0.02207 0.02257 0.0
H286 H 0.35906 0.00824 0.08318 0.0
H287 H 0.36878 0.97302 0.0026 0.0
H288 H 0.32767 0.987 0.04662 0.0
O289 O 0.39188 0.99451 0.02599 0.0
O290 O 0.38928 0.96509 0.03963 0.0
O291 O 0.3586 0.97594 0.06965 0.0
C292 C 0.39793 0.97634 0.02689 0.0
H293 H 0.43842 0.98779 0.08496 0.0
H294 H 0.33342 0.96884 0.98769 0.0
H295 H 0.34575 0.04045 0.09031 0.0
H296 H 0.352 0.05565 0.02889 0.0
Co297 Co 0.26531 0.11656 0.29462 0.0
C298 C 0.24155 0.14812 0.31079 0.0
C299 C 0.27174 0.15182 0.3189 0.0
C300 C 0.26191 0.16912 0.32267 0.0
N301 N 0.25891 0.13857 0.31151 0.0
N302 N 0.24296 0.16672 0.31745 0.0
H303 H 0.22886 0.14261 0.30293 0.0
H304 H 0.28749 0.14972 0.31968 0.0
C305 C 0.27856 0.10354 0.33543 0.0
O306 O 0.27113 0.11936 0.34357 0.0
N307 N 0.27149 0.09507 0.2768 0.0
C308 C 0.27274 0.09594 0.25702 0.0
C309 C 0.27664 0.07752 0.24984 0.0
C310 C 0.27458 0.07597 0.28132 0.0
N311 N 0.27788 0.06488 0.26509 0.0
C312 C 0.22731 0.1024 0.28277 0.0
C313 C 0.21333 0.09412 0.32004 0.0
C314 C 0.20093 0.09082 0.30392 0.0
C315 C 0.20815 0.0951 0.28504 0.0
C316 C 0.23227 0.10146 0.31713 0.0
N317 N 0.23916 0.10543 0.2987 0.0
H318 H 0.23261 0.10581 0.26818 0.0
H319 H 0.24097 0.10453 0.32989 0.0
H320 H 0.27046 0.10888 0.24811 0.0
H321 H 0.27412 0.07032 0.29615 0.0
O322 O 0.25992 0.13393 0.27267 0.0
O323 O 0.28915 0.12972 0.28657 0.0
O324 O 0.27682 0.10042 0.31695 0.0
C325 C 0.2785 0.13862 0.2734 0.0
H326 H 0.26852 0.18288 0.32718 0.0
H327 H 0.27775 0.07377 0.23443 0.0
H328 H 0.20828 0.09159 0.33493 0.0
H329 H 0.19912 0.09279 0.27213 0.0
Co330 Co 0.12607 0.00722 0.54993 0.0
C331 C 0.09454 0.98256 0.56461 0.0
C332 C 0.09085 0.01221 0.57446 0.0
C333 C 0.07333 0.00238 0.57695 0.0
N334 N 0.10427 0.99976 0.56675 0.0
N335 N 0.07564 0.98379 0.57051 0.0
H336 H 0.10021 0.97038 0.55606 0.0
H337 H 0.09291 0.02791 0.576 0.0
C338 C 0.1391 0.02236 0.59041 0.0
O339 O 0.12307 0.01594 0.59897 0.0
N340 N 0.14738 0.01435 0.53227 0.0
C341 C 0.14614 0.01968 0.51316 0.0
C342 C 0.16465 0.02348 0.50615 0.0
C343 C 0.16679 0.01472 0.53645 0.0
N344 N 0.17763 0.02042 0.52079 0.0
C345 C 0.1406 0.96947 0.53809 0.0
C346 C 0.15087 0.95639 0.57523 0.0
C347 C 0.15321 0.94365 0.55923 0.0
C348 C 0.14797 0.95036 0.54044 0.0
C349 C 0.14308 0.97517 0.57231 0.0
N350 N 0.13812 0.98155 0.55393 0.0
H351 H 0.13655 0.9745 0.52357 0.0
H352 H 0.14049 0.98422 0.585 0.0
H353 H 0.13288 0.02053 0.5045 0.0
H354 H 0.17283 0.01081 0.55063 0.0
O355 O 0.10922 0.00134 0.52774 0.0
O356 O 0.11175 0.03052 0.54207 0.0
O357 O 0.14211 0.01926 0.57209 0.0
C358 C 0.10355 0.01963 0.52864 0.0
H359 H 0.05947 0.00894 0.58124 0.0
H360 H 0.16829 0.02762 0.49122 0.0
H361 H 0.15436 0.95162 0.59003 0.0
H362 H 0.14953 0.94093 0.5277 0.0
Co363 Co 0.23405 0.87364 0.79843 0.0
C364 C 0.25669 0.84138 0.81486 0.0
C365 C 0.22638 0.83883 0.82295 0.0
C366 C 0.2355 0.82111 0.82652 0.0
N367 N 0.23972 0.85165 0.81568 0.0
N368 N 0.25453 0.82277 0.82131 0.0
H369 H 0.26958 0.84645 0.80701 0.0
H370 H 0.21071 0.84149 0.82361 0.0
C371 C 0.21922 0.88759 0.83845 0.0
O372 O 0.22558 0.87164 0.84721 0.0
N373 N 0.22853 0.89503 0.78026 0.0
C374 C 0.22549 0.89358 0.76065 0.0
C375 C 0.22326 0.912 0.75292 0.0
C376 C 0.22813 0.91453 0.7841 0.0
N377 N 0.22498 0.92516 0.76759 0.0
C378 C 0.27207 0.88905 0.78815 0.0
C379 C 0.28558 0.89346 0.82626 0.0
C380 C 0.29828 0.89783 0.81067 0.0
C381 C 0.29126 0.89586 0.79137 0.0
C382 C 0.26653 0.88699 0.82242 0.0
N383 N 0.25997 0.8847 0.80359 0.0
H384 H 0.267 0.8869 0.77324 0.0
H385 H 0.25747 0.88304 0.8347 0.0
H386 H 0.22537 0.88022 0.75211 0.0
H387 H 0.23086 0.92085 0.79845 0.0
O388 O 0.24042 0.85646 0.77673 0.0
O389 O 0.21062 0.86027 0.78962 0.0
O390 O 0.22183 0.8902 0.82001 0.0
C391 C 0.22187 0.85156 0.77681 0.0
H392 H 0.22832 0.80756 0.83081 0.0
H393 H 0.22078 0.91548 0.73758 0.0
H394 H 0.29041 0.89485 0.84139 0.0
H395 H 0.3007 0.89894 0.77892 0.0
Co396 Co 0.36997 0.00059 0.46328 0.0
C397 C 0.40346 0.98261 0.44265 0.0
C398 C 0.39952 0.0125 0.4338 0.0
C399 C 0.41719 0.0058 0.42628 0.0
N400 N 0.39093 0.99786 0.44411 0.0
N401 N 0.41947 0.98693 0.43186 0.0
H402 H 0.40231 0.96934 0.45112 0.0
H403 H 0.3941 0.02744 0.43312 0.0
C404 C 0.352 0.01012 0.42439 0.0
O405 O 0.36149 0.99505 0.41689 0.0
N406 N 0.34962 0.00317 0.48289 0.0
C407 C 0.3495 0.99374 0.50032 0.0
C408 C 0.33228 0.99795 0.50991 0.0
C409 C 0.33234 0.01287 0.48199 0.0
N410 N 0.32147 0.00992 0.49839 0.0
C411 C 0.36892 0.95818 0.46469 0.0
C412 C 0.33472 0.95357 0.44334 0.0
C413 C 0.34551 0.93682 0.4485 0.0
C414 C 0.36246 0.93925 0.45997 0.0
C415 C 0.34169 0.97217 0.44848 0.0
N416 N 0.35953 0.97441 0.45749 0.0
H417 H 0.38166 0.95972 0.47402 0.0
H418 H 0.33248 0.98465 0.44532 0.0
H419 H 0.36082 0.98384 0.50547 0.0
H420 H 0.32762 0.02152 0.4695 0.0
O421 O 0.38881 0.99419 0.48372 0.0
O422 O 0.38224 0.02424 0.47291 0.0
O423 O 0.35293 0.0137 0.44283 0.0
C424 C 0.3922 0.01301 0.48472 0.0
H425 H 0.42804 0.01445 0.41848 0.0
H426 H 0.32763 0.99182 0.52385 0.0
H427 H 0.32089 0.95231 0.43553 0.0
H428 H 0.3709 0.92669 0.46492 0.0
Co429 Co 0.25011 0.11626 0.71031 0.0
C430 C 0.26994 0.14875 0.69042 0.0
C431 C 0.23958 0.14789 0.68235 0.0
C432 C 0.24754 0.16548 0.67592 0.0
N433 N 0.25374 0.1374 0.69149 0.0
N434 N 0.26668 0.1659 0.68109 0.0
H435 H 0.28322 0.14586 0.69845 0.0
H436 H 0.2242 0.14385 0.68193 0.0
C437 C 0.23779 0.09953 0.67112 0.0
O438 O 0.25081 0.11077 0.66233 0.0
N439 N 0.24705 0.09597 0.72984 0.0
C440 C 0.25757 0.09493 0.74658 0.0
C441 C 0.25242 0.07817 0.75648 0.0
C442 C 0.23558 0.0798 0.72973 0.0
N443 N 0.23862 0.06859 0.74591 0.0
C444 C 0.29226 0.11336 0.71418 0.0
C445 C 0.29765 0.08217 0.68879 0.0
C446 C 0.31424 0.09122 0.69697 0.0
C447 C 0.31132 0.10669 0.71027 0.0
C448 C 0.27887 0.08924 0.69319 0.0
N449 N 0.27633 0.10554 0.70471 0.0
H450 H 0.29041 0.12524 0.72454 0.0
H451 H 0.26657 0.08111 0.68753 0.0
H452 H 0.26874 0.10533 0.75102 0.0
H453 H 0.22555 0.07616 0.71797 0.0
O454 O 0.25631 0.135 0.73104 0.0
O455 O 0.22646 0.12871 0.71966 0.0
O456 O 0.23671 0.09916 0.68991 0.0
C457 C 0.23749 0.13848 0.73178 0.0
H458 H 0.23955 0.17753 0.66928 0.0
H459 H 0.25916 0.07295 0.76991 0.0
H460 H 0.29914 0.06952 0.67922 0.0
H461 H 0.32366 0.11393 0.71726 0.0
Co462 Co 0.12956 0.99507 0.9625 0.0
C463 C 0.09938 0.02047 0.94562 0.0
C464 C 0.09994 0.99277 0.93077 0.0
C465 C 0.08325 0.00288 0.92504 0.0
N466 N 0.1101 0.00393 0.94365 0.0
N467 N 0.08297 0.0203 0.93452 0.0
H468 H 0.10204 0.03134 0.95681 0.0
H469 H 0.10349 0.9777 0.9271 0.0
C470 C 0.14759 0.98679 0.92272 0.0
O471 O 0.13932 0.00255 0.91519 0.0
N472 N 0.14865 0.98645 0.9819 0.0
C473 C 0.14568 0.98379 0.00137 0.0
C474 C 0.16343 0.98024 0.01032 0.0
C475 C 0.16824 0.98443 0.97936 0.0
N476 N 0.1776 0.98076 0.9965 0.0
C477 C 0.13598 0.03557 0.97305 0.0
C478 C 0.16712 0.0427 0.94802 0.0
C479 C 0.15863 0.0586 0.95799 0.0
C480 C 0.14329 0.0547 0.9712 0.0
C481 C 0.15929 0.02385 0.95024 0.0
N482 N 0.14296 0.02064 0.96156 0.0
H483 H 0.12406 0.033 0.98321 0.0
H484 H 0.16659 0.01208 0.94269 0.0
H485 H 0.13176 0.98498 0.00892 0.0
H486 H 0.17566 0.98657 0.96546 0.0
O487 O 0.11025 0.99994 0.98306 0.0
O488 O 0.11412 0.97182 0.96711 0.0
O489 O 0.14616 0.98307 0.94108 0.0
C490 C 0.10452 0.98186 0.98018 0.0
H491 H 0.07161 0.99726 0.91576 0.0
H492 H 0.16575 0.97788 0.02589 0.0
H493 H 0.17932 0.04485 0.938 0.0
H494 H 0.13675 0.06639 0.97982 0.0
Co495 Co 0.25847 0.87256 0.20872 0.0
C496 C 0.23762 0.84108 0.18975 0.0
C497 C 0.26728 0.84158 0.17917 0.0
C498 C 0.25842 0.82422 0.17316 0.0
N499 N 0.25409 0.85202 0.18963 0.0
N500 N 0.23973 0.82407 0.1799 0.0
H501 H 0.22508 0.84449 0.19895 0.0
H502 H 0.28265 0.84537 0.17762 0.0
C503 C 0.26857 0.90641 0.18138 0.0
O504 O 0.2545 0.91731 0.18893 0.0
N505 N 0.26252 0.8925 0.22917 0.0
C506 C 0.25615 0.89062 0.24793 0.0
C507 C 0.26037 0.90734 0.25825 0.0
C508 C 0.27148 0.91032 0.2288 0.0
N509 N 0.26975 0.91986 0.24618 0.0
C510 C 0.21895 0.8868 0.21654 0.0
C511 C 0.20924 0.89325 0.17758 0.0
C512 C 0.19539 0.89789 0.19211 0.0
C513 C 0.20037 0.89433 0.21183 0.0
C514 C 0.22759 0.88583 0.18291 0.0
N515 N 0.23259 0.88331 0.20223 0.0
H516 H 0.22215 0.88352 0.23168 0.0
H517 H 0.23786 0.88204 0.17138 0.0
H518 H 0.2483 0.87818 0.25389 0.0
H519 H 0.27892 0.91648 0.21627 0.0
O520 O 0.25148 0.85348 0.22882 0.0
O521 O 0.28165 0.85919 0.21779 0.0
O522 O 0.27181 0.88907 0.18789 0.0
C523 C 0.27019 0.84923 0.22938 0.0
H524 H 0.26557 0.81213 0.16567 0.0
H525 H 0.25639 0.91024 0.27339 0.0
H526 H 0.20587 0.89503 0.16211 0.0
H527 H 0.19006 0.8974 0.22358 0.0
Co528 Co 0.04402 0.37187 0.99191 0.0
C529 C 0.06208 0.40622 0.00919 0.0
C530 C 0.06949 0.40436 0.97861 0.0
C531 C 0.07449 0.42286 0.98544 0.0
N532 N 0.06153 0.39409 0.99358 0.0
N533 N 0.06989 0.4238 0.0047 0.0
H534 H 0.05457 0.4032 0.02291 0.0
H535 H 0.06967 0.39957 0.96344 0.0
C536 C 0.07188 0.33872 0.98252 0.0
O537 O 0.06409 0.32815 0.99671 0.0
N538 N 0.0255 0.35009 0.99016 0.0
C539 C 0.00767 0.34929 0.99893 0.0
C540 C 0.99789 0.33279 0.99275 0.0
C541 C 0.02578 0.33437 0.97798 0.0
N542 N 0.00935 0.32338 0.97969 0.0
C543 C 0.03906 0.3633 0.03318 0.0
C544 C 0.07824 0.35583 0.04093 0.0
C545 C 0.06458 0.35399 0.0563 0.0
C546 C 0.04478 0.3582 0.05224 0.0
C547 C 0.07191 0.36134 0.0222 0.0
N548 N 0.05239 0.36398 0.01821 0.0
H549 H 0.02399 0.36736 0.03071 0.0
H550 H 0.08284 0.3636 0.0109 0.0
H551 H 0.00163 0.36024 0.0087 0.0
H552 H 0.03739 0.33116 0.96763 0.0
O553 O 0.02262 0.38939 0.99858 0.0
O554 O 0.03268 0.38245 0.96827 0.0
O555 O 0.06549 0.35604 0.97897 0.0
C556 C 0.02072 0.39204 0.97969 0.0
H557 H 0.07956 0.43513 0.97664 0.0
H558 H 0.98361 0.32787 0.99778 0.0
H559 H 0.09372 0.35296 0.04318 0.0
H560 H 0.03378 0.35802 0.06375 0.0
Co561 Co 0.53921 0.13367 0.00753 0.0
C562 C 0.55311 0.10019 0.98524 0.0
C563 C 0.56525 0.09964 0.01434 0.0
C564 C 0.56859 0.08162 0.00552 0.0
N565 N 0.5554 0.11115 0.00157 0.0
N566 N 0.56095 0.08214 0.98722 0.0
H567 H 0.54384 0.1045 0.97303 0.0
H568 H 0.568 0.10334 0.02957 0.0
C569 C 0.56967 0.16454 0.01681 0.0
O570 O 0.56142 0.1763 0.00388 0.0
N571 N 0.52187 0.1557 0.01374 0.0
C572 C 0.50285 0.15725 0.00812 0.0
C573 C 0.49448 0.17328 0.01702 0.0
C574 C 0.52441 0.17055 0.02676 0.0
N575 N 0.50807 0.18166 0.02865 0.0
C576 C 0.53073 0.14947 0.9687 0.0
C577 C 0.5695 0.15169 0.95661 0.0
C578 C 0.55472 0.15776 0.9436 0.0
C579 C 0.53511 0.15655 0.94985 0.0
C580 C 0.56451 0.14491 0.97534 0.0
N581 N 0.54535 0.14432 0.98147 0.0
H582 H 0.51556 0.14765 0.9727 0.0
H583 H 0.57616 0.13994 0.98495 0.0
H584 H 0.49518 0.14719 0.99852 0.0
H585 H 0.53757 0.173 0.03528 0.0
O586 O 0.51648 0.11751 0.00136 0.0
O587 O 0.52991 0.12075 0.03093 0.0
O588 O 0.56261 0.14736 0.01981 0.0
C589 C 0.51651 0.11271 0.01994 0.0
H590 H 0.57483 0.06873 0.01246 0.0
H591 H 0.47965 0.17864 0.01476 0.0
H592 H 0.58485 0.15224 0.9524 0.0
H593 H 0.52318 0.16049 0.94006 0.0
Co594 Co 0.12426 0.28631 0.25476 0.0
C595 C 0.15973 0.30397 0.23944 0.0
C596 C 0.15676 0.31052 0.27014 0.0
C597 C 0.17571 0.31504 0.2643 0.0
N598 N 0.14689 0.30338 0.25449 0.0
N599 N 0.17738 0.31096 0.24496 0.0
H600 H 0.15706 0.29699 0.22538 0.0
H601 H 0.15132 0.31037 0.28509 0.0
C602 C 0.09155 0.31488 0.26425 0.0
O603 O 0.08117 0.30814 0.2494 0.0
N604 N 0.10202 0.2682 0.25497 0.0
C605 C 0.10123 0.25078 0.24542 0.0
C606 C 0.08393 0.24146 0.24986 0.0
C607 C 0.08543 0.26861 0.26595 0.0
N608 N 0.07394 0.25275 0.26266 0.0
C609 C 0.1168 0.28305 0.2131 0.0
C610 C 0.10987 0.3226 0.2067 0.0
C611 C 0.10792 0.30943 0.19102 0.0
C612 C 0.11194 0.28951 0.19422 0.0
C613 C 0.11519 0.31556 0.22523 0.0
N614 N 0.11741 0.29585 0.22856 0.0
H615 H 0.12053 0.26783 0.2151 0.0
H616 H 0.11756 0.32604 0.23692 0.0
H617 H 0.11261 0.24477 0.23614 0.0
H618 H 0.08192 0.27991 0.27653 0.0
O619 O 0.14162 0.26484 0.24784 0.0
O620 O 0.13387 0.27387 0.27826 0.0
O621 O 0.10849 0.30766 0.26807 0.0
C622 C 0.14377 0.26229 0.26672 0.0
H623 H 0.18773 0.31939 0.27379 0.0
H624 H 0.07891 0.22763 0.2438 0.0
H625 H 0.1076 0.33822 0.20457 0.0
H626 H 0.11113 0.27899 0.18229 0.0
Co627 Co 0.95254 0.87135 0.50036 0.0
C628 C 0.93524 0.90586 0.48252 0.0
C629 C 0.93102 0.90635 0.51369 0.0
C630 C 0.92813 0.92506 0.50652 0.0
N631 N 0.93557 0.89421 0.4986 0.0
N632 N 0.931 0.9247 0.48693 0.0
H633 H 0.94124 0.90145 0.46847 0.0
H634 H 0.93208 0.90245 0.52907 0.0
C635 C 0.91348 0.85772 0.51756 0.0
O636 O 0.90564 0.87486 0.51361 0.0
N637 N 0.97075 0.84938 0.50144 0.0
C638 C 0.98996 0.85012 0.49635 0.0
C639 C 0.99789 0.83168 0.49769 0.0
C640 C 0.96733 0.83031 0.50589 0.0
N641 N 0.98369 0.81927 0.50363 0.0
C642 C 0.9596 0.86418 0.45943 0.0
C643 C 0.92236 0.85085 0.45004 0.0
C644 C 0.93682 0.85106 0.43538 0.0
C645 C 0.95558 0.85809 0.44017 0.0
C646 C 0.92688 0.8574 0.46899 0.0
N647 N 0.94543 0.86357 0.47365 0.0
H648 H 0.97419 0.86937 0.46293 0.0
H649 H 0.91528 0.85758 0.47968 0.0
H650 H 0.99783 0.86302 0.4915 0.0
H651 H 0.95316 0.82443 0.51003 0.0
O652 O 0.97407 0.8893 0.4949 0.0
O653 O 0.96355 0.8812 0.52467 0.0
O654 O 0.93119 0.85386 0.51233 0.0
C655 C 0.97571 0.89128 0.51388 0.0
H656 H 0.92623 0.93823 0.51526 0.0
H657 H 0.01295 0.82766 0.49443 0.0
H658 H 0.90755 0.84595 0.4468 0.0
H659 H 0.96715 0.85858 0.42923 0.0
Co660 Co 0.87732 0.20656 0.26102 0.0
C661 C 0.84429 0.19061 0.23917 0.0
C662 C 0.84234 0.18277 0.26959 0.0
C663 C 0.82425 0.17977 0.26102 0.0
N664 N 0.85501 0.18957 0.25586 0.0
N665 N 0.82553 0.18485 0.24193 0.0
H666 H 0.84922 0.1983 0.22613 0.0
H667 H 0.84536 0.1822 0.2852 0.0
C668 C 0.89075 0.16653 0.27656 0.0
O669 O 0.87446 0.158 0.27074 0.0
N670 N 0.8991 0.22434 0.26606 0.0
C671 C 0.89829 0.24377 0.27015 0.0
C672 C 0.91699 0.25057 0.27353 0.0
C673 C 0.9184 0.21973 0.26668 0.0
N674 N 0.9296 0.23545 0.27142 0.0
C675 C 0.89116 0.21687 0.22261 0.0
C676 C 0.89802 0.17901 0.20945 0.0
C677 C 0.90172 0.19476 0.19663 0.0
C678 C 0.89817 0.21392 0.20347 0.0
C679 C 0.89101 0.18261 0.22844 0.0
N680 N 0.88775 0.20135 0.23486 0.0
H681 H 0.88837 0.23169 0.22766 0.0
H682 H 0.8877 0.17024 0.2377 0.0
H683 H 0.88517 0.25268 0.27061 0.0
H684 H 0.92413 0.20518 0.26385 0.0
O685 O 0.86006 0.2284 0.25505 0.0
O686 O 0.86467 0.2157 0.28479 0.0
O687 O 0.89386 0.18474 0.27302 0.0
C688 C 0.85558 0.22838 0.2737 0.0
H689 H 0.81076 0.1761 0.26864 0.0
H690 H 0.92101 0.26559 0.27693 0.0
H691 H 0.90007 0.16395 0.20472 0.0
H692 H 0.90091 0.22657 0.19419 0.0
Co693 Co 0.45631 0.63098 0.49501 0.0
C694 C 0.43756 0.59614 0.5126 0.0
C695 C 0.43058 0.59883 0.48204 0.0
C696 C 0.42489 0.5804 0.48835 0.0
N697 N 0.43871 0.60865 0.49727 0.0
N698 N 0.42923 0.57892 0.50761 0.0
H699 H 0.44476 0.59834 0.52651 0.0
H700 H 0.43053 0.60396 0.46698 0.0
C701 C 0.41618 0.64583 0.48481 0.0
O702 O 0.40897 0.63389 0.49816 0.0
N703 N 0.4745 0.65258 0.49282 0.0
C704 C 0.49172 0.65391 0.50253 0.0
C705 C 0.50063 0.67132 0.49763 0.0
C706 C 0.473 0.66931 0.48228 0.0
N707 N 0.48886 0.68098 0.48495 0.0
C708 C 0.4583 0.63187 0.53747 0.0
C709 C 0.4345 0.66434 0.54273 0.0
C710 C 0.4417 0.65461 0.55936 0.0
C711 C 0.45419 0.63845 0.55656 0.0
C712 C 0.43914 0.6574 0.52397 0.0
N713 N 0.4498 0.64052 0.52144 0.0
H714 H 0.46836 0.61973 0.53565 0.0
H715 H 0.43452 0.66616 0.51164 0.0
H716 H 0.49727 0.64315 0.51284 0.0
H717 H 0.46062 0.67299 0.47301 0.0
O718 O 0.47798 0.61332 0.50099 0.0
O719 O 0.46683 0.61984 0.4711 0.0
O720 O 0.43479 0.64718 0.48229 0.0
C721 C 0.47917 0.6103 0.48211 0.0
H722 H 0.41951 0.56851 0.47924 0.0
H723 H 0.51433 0.67684 0.50357 0.0
H724 H 0.42566 0.67752 0.54417 0.0
H725 H 0.46053 0.63078 0.56899 0.0
Co726 Co 0.12017 0.7041 0.23919 0.0
C727 C 0.15108 0.68717 0.26321 0.0
C728 C 0.15076 0.67376 0.23464 0.0
C729 C 0.16773 0.66812 0.24429 0.0
N730 N 0.14051 0.68584 0.24655 0.0
N731 N 0.16774 0.67654 0.26225 0.0
H732 H 0.14776 0.69744 0.27492 0.0
H733 H 0.1471 0.6708 0.21944 0.0
C734 C 0.09816 0.68182 0.20998 0.0
O735 O 0.10244 0.69642 0.19808 0.0
N736 N 0.09976 0.72277 0.23195 0.0
C737 C 0.1019 0.74025 0.22276 0.0
C738 C 0.08386 0.74914 0.22123 0.0
C739 C 0.08031 0.72126 0.23571 0.0
N740 N 0.0703 0.73726 0.22945 0.0
C741 C 0.10455 0.71548 0.27692 0.0
C742 C 0.09626 0.67756 0.28925 0.0
C743 C 0.0931 0.69317 0.30231 0.0
C744 C 0.097 0.7124 0.29587 0.0
C745 C 0.10354 0.68127 0.27047 0.0
N746 N 0.10775 0.69999 0.26456 0.0
H747 H 0.10814 0.73024 0.27221 0.0
H748 H 0.10652 0.66893 0.26092 0.0
H749 H 0.11549 0.74644 0.21742 0.0
H750 H 0.07373 0.70888 0.24323 0.0
O751 O 0.13789 0.72552 0.24552 0.0
O752 O 0.13551 0.71114 0.21634 0.0
O753 O 0.10426 0.6822 0.22767 0.0
C754 C 0.1442 0.72402 0.22748 0.0
H755 H 0.17975 0.65971 0.23812 0.0
H756 H 0.08095 0.76319 0.21435 0.0
H757 H 0.09335 0.66252 0.29361 0.0
H758 H 0.09489 0.72483 0.3056 0.0
Co759 Co 0.38089 0.2906 0.74073 0.0
C760 C 0.34851 0.3041 0.7646 0.0
C761 C 0.34887 0.32004 0.73739 0.0
C762 C 0.33187 0.32479 0.74757 0.0
N763 N 0.35914 0.30703 0.74823 0.0
N764 N 0.33182 0.31472 0.76469 0.0
H765 H 0.35218 0.29308 0.77548 0.0
H766 H 0.35278 0.32471 0.7227 0.0
C767 C 0.41194 0.32125 0.73213 0.0
O768 O 0.4241 0.31256 0.74438 0.0
N769 N 0.40237 0.27307 0.73318 0.0
C770 C 0.40385 0.2539 0.73827 0.0
C771 C 0.42068 0.24613 0.73038 0.0
C772 C 0.41806 0.27628 0.72136 0.0
N773 N 0.42972 0.26027 0.71992 0.0
C774 C 0.39594 0.27955 0.77909 0.0
C775 C 0.40181 0.31754 0.79239 0.0
C776 C 0.40632 0.30184 0.80486 0.0
C777 C 0.40301 0.28264 0.79819 0.0
C778 C 0.39432 0.31382 0.77366 0.0
N779 N 0.3923 0.29501 0.76679 0.0
H780 H 0.3928 0.26474 0.77451 0.0
H781 H 0.38993 0.32618 0.7647 0.0
H782 H 0.39354 0.24589 0.7473 0.0
H783 H 0.42104 0.28984 0.71371 0.0
O784 O 0.36461 0.26786 0.74617 0.0
O785 O 0.36688 0.28295 0.71731 0.0
O786 O 0.39471 0.31426 0.72925 0.0
C787 C 0.35915 0.26897 0.72782 0.0
H788 H 0.32011 0.33417 0.74238 0.0
H789 H 0.42635 0.23149 0.733 0.0
H790 H 0.40351 0.3326 0.79731 0.0
H791 H 0.40578 0.27016 0.80769 0.0
Co792 Co 0.50078 0.54509 0.8709 0.0
C793 C 0.51777 0.56393 0.90579 0.0
C794 C 0.4873 0.57105 0.90264 0.0
C795 C 0.4932 0.57604 0.92141 0.0
N796 N 0.50273 0.56319 0.89288 0.0
N797 N 0.5124 0.5716 0.92321 0.0
H798 H 0.53159 0.55653 0.90377 0.0
H799 H 0.47232 0.57102 0.8973 0.0
C800 C 0.48831 0.58441 0.85499 0.0
O801 O 0.50127 0.59295 0.86649 0.0
N802 N 0.49914 0.52638 0.84967 0.0
C803 C 0.51018 0.50998 0.84836 0.0
C804 C 0.50591 0.50061 0.83105 0.0
C805 C 0.48837 0.52689 0.83302 0.0
N806 N 0.49224 0.51123 0.82139 0.0
C807 C 0.54321 0.5445 0.86966 0.0
C808 C 0.54746 0.56803 0.83684 0.0
C809 C 0.5644 0.56147 0.84653 0.0
C810 C 0.56209 0.54917 0.86292 0.0
C811 C 0.52891 0.56296 0.84404 0.0
N812 N 0.52686 0.55236 0.86102 0.0
H813 H 0.54181 0.53445 0.88185 0.0
H814 H 0.51636 0.56714 0.83537 0.0
H815 H 0.52106 0.50542 0.85901 0.0
H816 H 0.47815 0.5385 0.82937 0.0
O817 O 0.50754 0.52379 0.88877 0.0
O818 O 0.47733 0.53419 0.88251 0.0
O819 O 0.48702 0.56565 0.85441 0.0
C820 C 0.48872 0.52222 0.89204 0.0
H821 H 0.48376 0.58078 0.93333 0.0
H822 H 0.513 0.48745 0.82557 0.0
H823 H 0.5485 0.57667 0.8235 0.0
H824 H 0.57473 0.54332 0.87063 0.0
Co825 Co 0.70363 0.24434 0.1233 0.0
C826 C 0.68898 0.27066 0.15324 0.0
C827 C 0.67264 0.2437 0.15397 0.0
C828 C 0.66771 0.25483 0.1703 0.0
N829 N 0.68605 0.25375 0.14343 0.0
N830 N 0.67811 0.27176 0.16978 0.0
H831 H 0.70039 0.28105 0.14933 0.0
H832 H 0.66799 0.22881 0.15087 0.0
C833 C 0.67986 0.21426 0.10388 0.0
O834 O 0.69383 0.20214 0.10944 0.0
N835 N 0.72185 0.23529 0.10321 0.0
C836 C 0.74078 0.22984 0.10564 0.0
C837 C 0.74876 0.22555 0.08767 0.0
C838 C 0.7187 0.23436 0.08363 0.0
N839 N 0.73491 0.22832 0.07376 0.0
C840 C 0.71597 0.28037 0.10478 0.0
C841 C 0.67833 0.29379 0.09697 0.0
C842 C 0.69433 0.30602 0.09265 0.0
C843 C 0.71341 0.29898 0.09626 0.0
C844 C 0.68152 0.27531 0.10521 0.0
N845 N 0.70012 0.26892 0.10926 0.0
H846 H 0.73064 0.27529 0.10822 0.0
H847 H 0.66893 0.26644 0.1091 0.0
H848 H 0.74876 0.22944 0.11934 0.0
H849 H 0.70486 0.23825 0.07683 0.0
O850 O 0.72542 0.25119 0.14041 0.0
O851 O 0.7104 0.22225 0.13977 0.0
O852 O 0.68107 0.23242 0.1084 0.0
C853 C 0.72378 0.23346 0.14753 0.0
H854 H 0.65812 0.25029 0.18217 0.0
H855 H 0.7639 0.22141 0.08511 0.0
H856 H 0.66338 0.29861 0.0943 0.0
H857 H 0.72614 0.30805 0.09326 0.0
Co858 Co 0.01153 0.45167 0.36629 0.0
C859 C 0.98585 0.43797 0.39737 0.0
C860 C 0.01191 0.42024 0.39642 0.0
C861 C 0.0011 0.41513 0.41288 0.0
N862 N 0.00225 0.43462 0.38686 0.0
N863 N 0.98473 0.4264 0.41343 0.0
H864 H 0.97583 0.44991 0.39418 0.0
H865 H 0.02632 0.41479 0.39244 0.0
C866 C 0.04156 0.42724 0.34775 0.0
O867 O 0.05378 0.44128 0.3529 0.0
N868 N 0.0205 0.46915 0.34552 0.0
C869 C 0.02706 0.48781 0.34727 0.0
C870 C 0.0319 0.49483 0.329 0.0
C871 C 0.02125 0.46523 0.32606 0.0
N872 N 0.02834 0.48063 0.31565 0.0
C873 C 0.97382 0.46327 0.35124 0.0
C874 C 0.96226 0.42607 0.33957 0.0
C875 C 0.94834 0.44131 0.33897 0.0
C876 C 0.95453 0.46026 0.34457 0.0
C877 C 0.98111 0.42958 0.3468 0.0
N878 N 0.98666 0.44794 0.3527 0.0
H879 H 0.97821 0.47776 0.35607 0.0
H880 H 0.99086 0.41718 0.34843 0.0
H881 H 0.02813 0.49615 0.36072 0.0
H882 H 0.01681 0.45133 0.31972 0.0
O883 O 0.00501 0.47407 0.38268 0.0
O884 O 0.03375 0.45874 0.38258 0.0
O885 O 0.02339 0.42872 0.35209 0.0
C886 C 0.02268 0.47248 0.38991 0.0
H887 H 0.00543 0.40464 0.42403 0.0
H888 H 0.03716 0.50951 0.3258 0.0
H889 H 0.95858 0.41129 0.33495 0.0
H890 H 0.94443 0.47255 0.34459 0.0
Co891 Co 0.79321 0.75207 0.61613 0.0
C892 C 0.81239 0.73948 0.65197 0.0
C893 C 0.81828 0.76998 0.64655 0.0
C894 C 0.82417 0.76547 0.66548 0.0
N895 N 0.81073 0.75363 0.63827 0.0
N896 N 0.82051 0.74625 0.66868 0.0
H897 H 0.80558 0.72516 0.65066 0.0
H898 H 0.8177 0.78449 0.64006 0.0
C899 C 0.81988 0.7617 0.58173 0.0
O900 O 0.81268 0.74677 0.57179 0.0
N901 N 0.77487 0.75054 0.59427 0.0
C902 C 0.75921 0.73844 0.59285 0.0
C903 C 0.74903 0.74271 0.576 0.0
C904 C 0.77329 0.76274 0.57867 0.0
N905 N 0.75792 0.75794 0.56698 0.0
C906 C 0.79142 0.70979 0.61319 0.0
C907 C 0.82968 0.70404 0.60084 0.0
C908 C 0.81701 0.68784 0.60184 0.0
C909 C 0.79783 0.6908 0.60869 0.0
C910 C 0.82274 0.72275 0.60587 0.0
N911 N 0.80339 0.7257 0.61054 0.0
H912 H 0.77694 0.71155 0.6193 0.0
H913 H 0.83306 0.73479 0.60611 0.0
H914 H 0.75478 0.72766 0.60356 0.0
H915 H 0.78294 0.77509 0.57608 0.0
O916 O 0.77203 0.74554 0.63417 0.0
O917 O 0.78003 0.77569 0.62477 0.0
O918 O 0.81381 0.76529 0.59919 0.0
C919 C 0.76876 0.76438 0.63528 0.0
H920 H 0.82926 0.77578 0.67649 0.0
H921 H 0.73621 0.73491 0.57073 0.0
H922 H 0.84491 0.70222 0.59653 0.0
H923 H 0.78776 0.67857 0.61038 0.0
Co924 Co 0.48631 0.45856 0.62698 0.0
C925 C 0.51104 0.4438 0.59568 0.0
C926 C 0.48261 0.43017 0.59456 0.0
C927 C 0.49235 0.42636 0.57714 0.0
N928 N 0.49434 0.44131 0.60601 0.0
N929 N 0.51021 0.43493 0.57802 0.0
H930 H 0.52251 0.454 0.59992 0.0
H931 H 0.46735 0.42693 0.59771 0.0
C932 C 0.45741 0.43481 0.64779 0.0
O933 O 0.44517 0.44913 0.64352 0.0
N934 N 0.47843 0.47622 0.64799 0.0
C935 C 0.47022 0.49425 0.64654 0.0
C936 C 0.46716 0.50157 0.6651 0.0
C937 C 0.48028 0.47293 0.66747 0.0
N938 N 0.47347 0.48817 0.67826 0.0
C939 C 0.52339 0.47057 0.64339 0.0
C940 C 0.53656 0.43295 0.65171 0.0
C941 C 0.54894 0.44893 0.65585 0.0
C942 C 0.5421 0.46798 0.65162 0.0
C943 C 0.51804 0.43618 0.64354 0.0
N944 N 0.51166 0.45477 0.63951 0.0
H945 H 0.51828 0.48524 0.64 0.0
H946 H 0.50903 0.42361 0.6399 0.0
H947 H 0.46678 0.50188 0.63307 0.0
H948 H 0.48642 0.45957 0.67355 0.0
O949 O 0.49225 0.48064 0.60993 0.0
O950 O 0.46334 0.46563 0.61195 0.0
O951 O 0.47521 0.43582 0.64203 0.0
C952 C 0.47422 0.47894 0.60361 0.0
H953 H 0.48623 0.4193 0.56425 0.0
H954 H 0.46121 0.51591 0.66858 0.0
H955 H 0.54133 0.41797 0.65422 0.0
H956 H 0.55109 0.48077 0.65465 0.0
Co957 Co 0.79301 0.24916 0.88204 0.0
C958 C 0.80913 0.27623 0.85304 0.0
C959 C 0.82388 0.24853 0.85144 0.0
C960 C 0.82874 0.25947 0.83499 0.0
N961 N 0.81157 0.25916 0.86281 0.0
N962 N 0.81928 0.27688 0.83604 0.0
H963 H 0.798 0.28684 0.85672 0.0
H964 H 0.82753 0.23326 0.85393 0.0
C965 C 0.8329 0.23876 0.89896 0.0
O966 O 0.84078 0.25443 0.89085 0.0
N967 N 0.77377 0.2395 0.90078 0.0
C968 C 0.7541 0.2386 0.89824 0.0
C969 C 0.74543 0.2333 0.91562 0.0
C970 C 0.77671 0.23474 0.91983 0.0
N971 N 0.7596 0.23092 0.92928 0.0
C972 C 0.78388 0.28938 0.89171 0.0
C973 C 0.80963 0.29334 0.92281 0.0
C974 C 0.80034 0.31022 0.9155 0.0
C975 C 0.78668 0.3079 0.90022 0.0
C976 C 0.80643 0.27514 0.9138 0.0
N977 N 0.79488 0.27356 0.89741 0.0
H978 H 0.77343 0.28807 0.87984 0.0
H979 H 0.81335 0.26253 0.92029 0.0
H980 H 0.7462 0.24237 0.885 0.0
H981 H 0.79101 0.23467 0.92674 0.0
O982 O 0.77207 0.25606 0.86395 0.0
O983 O 0.78741 0.22734 0.8648 0.0
O984 O 0.81447 0.23549 0.89737 0.0
C985 C 0.77411 0.23842 0.85675 0.0
H986 H 0.83729 0.25437 0.82257 0.0
H987 H 0.72976 0.2324 0.91815 0.0
H988 H 0.81945 0.29417 0.93532 0.0
H989 H 0.77878 0.32038 0.89429 0.0
Co990 Co 0.00775 0.54104 0.12517 0.0
C991 C 0.9871 0.55989 0.09336 0.0
C992 C 0.01634 0.5715 0.09507 0.0
C993 C 0.00762 0.57814 0.07788 0.0
N994 N 0.00332 0.56001 0.10461 0.0
N995 N 0.98919 0.57079 0.07699 0.0
H996 H 0.97472 0.55026 0.0961 0.0
H997 H 0.03149 0.57357 0.09942 0.0
C998 C 0.01701 0.56803 0.15946 0.0
O999 O 0.00364 0.55938 0.17042 0.0
N1000 N 0.01197 0.52097 0.1453 0.0
C1001 C 0.00478 0.50246 0.14457 0.0
C1002 C 0.01049 0.49238 0.16104 0.0
C1003 C 0.02288 0.52142 0.16194 0.0
N1004 N 0.02173 0.50434 0.17208 0.0
C1005 C 0.96756 0.53223 0.13614 0.0
C1006 C 0.95739 0.57033 0.14608 0.0
C1007 C 0.94335 0.55545 0.148 0.0
C1008 C 0.94844 0.53625 0.1426 0.0
C1009 C 0.97615 0.56576 0.13915 0.0
N1010 N 0.98141 0.54674 0.1352 0.0
H1011 H 0.97094 0.51756 0.13133 0.0
H1012 H 0.9864 0.57764 0.13672 0.0
H1013 H 0.99589 0.49641 0.1329 0.0
H1014 H 0.03176 0.53371 0.16655 0.0
O1015 O 0.00174 0.52061 0.10617 0.0
O1016 O 0.03147 0.53257 0.11233 0.0
O1017 O 0.02013 0.56223 0.14186 0.0
C1018 C 0.02052 0.52058 0.10227 0.0
H1019 H 0.01466 0.58667 0.06643 0.0
H1020 H 0.00602 0.4776 0.1649 0.0
H1021 H 0.95374 0.58548 0.14939 0.0
H1022 H 0.93775 0.52447 0.14335 0.0
Co1023 Co 0.70417 0.7625 0.37375 0.0
C1024 C 0.68766 0.73633 0.34437 0.0
C1025 C 0.67867 0.7659 0.33873 0.0
C1026 C 0.67423 0.75462 0.32252 0.0
N1027 N 0.68676 0.75432 0.35267 0.0
N1028 N 0.68022 0.736 0.32594 0.0
H1029 H 0.69608 0.72443 0.3507 0.0
H1030 H 0.67765 0.78175 0.33957 0.0
C1031 C 0.66459 0.77932 0.3865 0.0
O1032 O 0.65576 0.77278 0.37069 0.0
N1033 N 0.72238 0.77025 0.39432 0.0
C1034 C 0.74129 0.77608 0.39234 0.0
C1035 C 0.74913 0.77928 0.41062 0.0
C1036 C 0.71907 0.77001 0.4139 0.0
N1037 N 0.7352 0.77544 0.42414 0.0
C1038 C 0.7151 0.72477 0.38966 0.0
C1039 C 0.67748 0.71369 0.40042 0.0
C1040 C 0.69272 0.69995 0.40246 0.0
C1041 C 0.71187 0.70586 0.3973 0.0
C1042 C 0.68125 0.73214 0.39245 0.0
N1043 N 0.69981 0.73751 0.38703 0.0
H1044 H 0.72977 0.72902 0.38525 0.0
H1045 H 0.66895 0.74169 0.38993 0.0
H1046 H 0.74926 0.77763 0.37872 0.0
H1047 H 0.7054 0.76524 0.42052 0.0
O1048 O 0.72585 0.75553 0.35666 0.0
O1049 O 0.71178 0.78498 0.35836 0.0
O1050 O 0.68272 0.77559 0.38969 0.0
C1051 C 0.72478 0.77357 0.3502 0.0
H1052 H 0.66852 0.76018 0.30876 0.0
H1053 H 0.76403 0.78395 0.41374 0.0
H1054 H 0.66252 0.71012 0.40456 0.0
H1055 H 0.72414 0.69578 0.39846 0.0
Co1056 Co 0.87671 0.48532 0.54504 0.0
C1057 C 0.90991 0.505 0.56306 0.0
C1058 C 0.91212 0.47392 0.56717 0.0
C1059 C 0.93027 0.48216 0.5707 0.0
N1060 N 0.89923 0.48828 0.56236 0.0
N1061 N 0.92882 0.5017 0.56792 0.0
H1062 H 0.90489 0.5188 0.55695 0.0
H1063 H 0.90919 0.45833 0.56595 0.0
C1064 C 0.86289 0.46733 0.58369 0.0
O1065 O 0.8803 0.46996 0.59149 0.0
N1066 N 0.85493 0.48292 0.52667 0.0
C1067 C 0.85614 0.48244 0.50684 0.0
C1068 C 0.8376 0.48178 0.4991 0.0
C1069 C 0.83545 0.48282 0.53063 0.0
N1070 N 0.82454 0.48195 0.51399 0.0
C1071 C 0.86661 0.52555 0.5376 0.0
C1072 C 0.85794 0.53548 0.57607 0.0
C1073 C 0.85706 0.55022 0.56165 0.0
C1074 C 0.86139 0.54496 0.54212 0.0
C1075 C 0.86349 0.51639 0.57098 0.0
N1076 N 0.86771 0.51159 0.55195 0.0
H1077 H 0.87018 0.52177 0.52257 0.0
H1078 H 0.8649 0.50571 0.58255 0.0
H1079 H 0.86944 0.48312 0.49823 0.0
H1080 H 0.82942 0.48365 0.54531 0.0
O1081 O 0.89438 0.49161 0.52366 0.0
O1082 O 0.88809 0.46148 0.53449 0.0
O1083 O 0.85931 0.47305 0.56611 0.0
C1084 C 0.89768 0.47277 0.52237 0.0
H1085 H 0.94388 0.47422 0.57298 0.0
H1086 H 0.83407 0.4819 0.48358 0.0
H1087 H 0.85444 0.53857 0.59129 0.0
H1088 H 0.86123 0.55578 0.53045 0.0
Co1089 Co 0.76338 0.63506 0.79585 0.0
C1090 C 0.74033 0.66693 0.81234 0.0
C1091 C 0.77061 0.66994 0.82035 0.0
C1092 C 0.7613 0.68759 0.82372 0.0
N1093 N 0.75742 0.65689 0.81321 0.0
N1094 N 0.7423 0.68563 0.81855 0.0
H1095 H 0.72753 0.66169 0.80445 0.0
H1096 H 0.78632 0.66753 0.82095 0.0
C1097 C 0.77827 0.62115 0.8358 0.0
O1098 O 0.77258 0.63741 0.84446 0.0
N1099 N 0.76919 0.61377 0.77768 0.0
C1100 C 0.77397 0.61515 0.75844 0.0
C1101 C 0.77682 0.59661 0.75101 0.0
C1102 C 0.769 0.59429 0.78156 0.0
N1103 N 0.77375 0.5835 0.76553 0.0
C1104 C 0.72554 0.61972 0.7849 0.0
C1105 C 0.71253 0.61247 0.82276 0.0
C1106 C 0.70017 0.60768 0.80698 0.0
C1107 C 0.70684 0.61154 0.7878 0.0
C1108 C 0.73101 0.62058 0.81923 0.0
N1109 N 0.73744 0.62391 0.80051 0.0
H1110 H 0.73056 0.62264 0.7701 0.0
H1111 H 0.73988 0.62462 0.83166 0.0
H1112 H 0.77506 0.62854 0.75001 0.0
H1113 H 0.76537 0.58817 0.79578 0.0
O1114 O 0.75752 0.65266 0.77426 0.0
O1115 O 0.78703 0.64833 0.78762 0.0
O1116 O 0.77512 0.61833 0.81748 0.0
C1117 C 0.77607 0.65754 0.77491 0.0
H1118 H 0.76835 0.70131 0.82769 0.0
H1119 H 0.78036 0.59308 0.7359 0.0
H1120 H 0.70782 0.61036 0.83784 0.0
H1121 H 0.69781 0.60809 0.77515 0.0
Co1122 Co 0.63024 0.50586 0.04071 0.0
C1123 C 0.59973 0.48003 0.05692 0.0
C1124 C 0.6 0.50764 0.07193 0.0
C1125 C 0.58349 0.49726 0.07772 0.0
N1126 N 0.61026 0.49669 0.05892 0.0
N1127 N 0.58347 0.47986 0.0682 0.0
H1128 H 0.60241 0.46918 0.04575 0.0
H1129 H 0.60346 0.52268 0.07579 0.0
C1130 C 0.64755 0.51171 0.08089 0.0
O1131 O 0.63915 0.49522 0.08646 0.0
N1132 N 0.64968 0.51489 0.02187 0.0
C1133 C 0.64799 0.51428 0.0021 0.0
C1134 C 0.66555 0.51965 0.9938 0.0
C1135 C 0.6684 0.5206 0.02527 0.0
N1136 N 0.67845 0.52355 0.00833 0.0
C1137 C 0.63708 0.4648 0.03167 0.0
C1138 C 0.66998 0.46023 0.05497 0.0
C1139 C 0.66113 0.44343 0.04701 0.0
C1140 C 0.64501 0.44598 0.0344 0.0
C1141 C 0.66159 0.47868 0.0518 0.0
N1142 N 0.64421 0.4806 0.04185 0.0
H1143 H 0.62468 0.46648 0.02191 0.0
H1144 H 0.66923 0.49125 0.05759 0.0
H1145 H 0.63524 0.50941 0.994 0.0
H1146 H 0.67472 0.52199 0.03978 0.0
O1147 O 0.61172 0.50074 0.01953 0.0
O1148 O 0.6146 0.52892 0.03564 0.0
O1149 O 0.64607 0.5175 0.06306 0.0
C1150 C 0.60578 0.51879 0.02207 0.0
H1151 H 0.57186 0.50257 0.08719 0.0
H1152 H 0.66883 0.51952 0.97823 0.0
H1153 H 0.68318 0.45911 0.06382 0.0
H1154 H 0.63806 0.4335 0.02736 0.0
Co1155 Co 0.74234 0.38341 0.29594 0.0
C1156 C 0.7649 0.34992 0.30996 0.0
C1157 C 0.7366 0.35083 0.3239 0.0
C1158 C 0.74543 0.33304 0.32823 0.0
N1159 N 0.74885 0.36126 0.31235 0.0
N1160 N 0.76323 0.33266 0.31948 0.0
H1161 H 0.77669 0.35338 0.29983 0.0
H1162 H 0.72171 0.3551 0.3275 0.0
C1163 C 0.73463 0.41501 0.32613 0.0
O1164 O 0.74701 0.42661 0.31685 0.0
N1165 N 0.73551 0.40522 0.27851 0.0
C1166 C 0.74061 0.40669 0.25933 0.0
C1167 C 0.73179 0.4229 0.25124 0.0
C1168 C 0.72285 0.42031 0.28144 0.0
N1169 N 0.72075 0.43149 0.26519 0.0
C1170 C 0.78114 0.39668 0.28478 0.0
C1171 C 0.7949 0.40282 0.32255 0.0
C1172 C 0.80746 0.40648 0.30667 0.0
C1173 C 0.80049 0.40307 0.2876 0.0
C1174 C 0.77582 0.396 0.3191 0.0
N1175 N 0.76879 0.39383 0.30036 0.0
H1176 H 0.7764 0.39339 0.27007 0.0
H1177 H 0.76674 0.39222 0.33158 0.0
H1178 H 0.74983 0.39651 0.25137 0.0
H1179 H 0.71487 0.423 0.29488 0.0
O1180 O 0.74737 0.36712 0.27315 0.0
O1181 O 0.71845 0.37029 0.2879 0.0
O1182 O 0.73131 0.39764 0.31968 0.0
C1183 C 0.72882 0.3624 0.27388 0.0
H1184 H 0.73884 0.32089 0.33613 0.0
H1185 H 0.73381 0.42833 0.23641 0.0
H1186 H 0.79999 0.40461 0.33754 0.0
H1187 H 0.80996 0.40524 0.27496 0.0
Co1188 Co 0.8732 0.51155 0.95449 0.0
C1189 C 0.90351 0.48674 0.93742 0.0
C1190 C 0.90682 0.51655 0.92785 0.0
C1191 C 0.92377 0.50647 0.92334 0.0
N1192 N 0.89402 0.50412 0.93659 0.0
N1193 N 0.92166 0.48777 0.92953 0.0
H1194 H 0.89843 0.47444 0.94616 0.0
H1195 H 0.90476 0.53227 0.92659 0.0
C1196 C 0.85863 0.52494 0.91425 0.0
O1197 O 0.87326 0.5162 0.90523 0.0
N1198 N 0.85285 0.51886 0.97321 0.0
C1199 C 0.85497 0.52183 0.99273 0.0
C1200 C 0.83694 0.52577 0.0008 0.0
C1201 C 0.8334 0.52088 0.96978 0.0
N1202 N 0.82333 0.52524 0.9864 0.0
C1203 C 0.85803 0.47461 0.9679 0.0
C1204 C 0.84742 0.46003 0.93146 0.0
C1205 C 0.84431 0.44827 0.9481 0.0
C1206 C 0.84976 0.4558 0.96654 0.0
C1207 C 0.85575 0.47868 0.93347 0.0
N1208 N 0.86087 0.48585 0.9515 0.0
H1209 H 0.8623 0.48018 0.98216 0.0
H1210 H 0.85855 0.48696 0.92036 0.0
H1211 H 0.8685 0.52069 0.00095 0.0
H1212 H 0.82675 0.51892 0.95547 0.0
O1213 O 0.89117 0.50578 0.97575 0.0
O1214 O 0.88783 0.53489 0.96135 0.0
O1215 O 0.85647 0.52347 0.93289 0.0
C1216 C 0.89672 0.52409 0.9744 0.0
H1217 H 0.93724 0.51282 0.91772 0.0
H1218 H 0.83407 0.52812 0.01627 0.0
H1219 H 0.84396 0.45468 0.91686 0.0
H1220 H 0.8476 0.44728 0.97982 0.0
Co1221 Co 0.74188 0.61707 0.20558 0.0
C1222 C 0.76169 0.65101 0.189 0.0
C1223 C 0.73216 0.64918 0.17806 0.0
C1224 C 0.73986 0.66734 0.1731 0.0
N1225 N 0.7459 0.63908 0.18815 0.0
N1226 N 0.75845 0.6683 0.17996 0.0
H1227 H 0.7745 0.64799 0.19796 0.0
H1228 H 0.71709 0.64447 0.1761 0.0
C1229 C 0.73376 0.58338 0.17848 0.0
O1230 O 0.74716 0.57336 0.18817 0.0
N1231 N 0.73763 0.59556 0.22409 0.0
C1232 C 0.74525 0.59427 0.24242 0.0
C1233 C 0.73711 0.57848 0.25198 0.0
C1234 C 0.72415 0.58094 0.22327 0.0
N1235 N 0.72396 0.57007 0.23986 0.0
C1236 C 0.7825 0.60664 0.2134 0.0
C1237 C 0.79239 0.59934 0.17465 0.0
C1238 C 0.80688 0.59691 0.18914 0.0
C1239 C 0.80173 0.60095 0.20874 0.0
C1240 C 0.77353 0.60541 0.17991 0.0
N1241 N 0.76842 0.60803 0.19918 0.0
H1242 H 0.77926 0.61063 0.22834 0.0
H1243 H 0.763 0.60812 0.16833 0.0
H1244 H 0.75548 0.60448 0.24895 0.0
H1245 H 0.71426 0.57844 0.2111 0.0
O1246 O 0.74763 0.6343 0.22749 0.0
O1247 O 0.71796 0.62897 0.21495 0.0
O1248 O 0.73002 0.60119 0.18331 0.0
C1249 C 0.72881 0.63791 0.22791 0.0
H1250 H 0.73202 0.67936 0.16621 0.0
H1251 H 0.74083 0.57334 0.26658 0.0
H1252 H 0.79544 0.59655 0.15928 0.0
H1253 H 0.81255 0.60024 0.2204 0.0
Co1254 Co 0.62966 0.49833 0.45899 0.0
C1255 C 0.59832 0.51972 0.44012 0.0
C1256 C 0.59852 0.48982 0.43013 0.0
C1257 C 0.58076 0.49831 0.42502 0.0
N1258 N 0.60935 0.50328 0.43984 0.0
N1259 N 0.58077 0.51711 0.43136 0.0
H1260 H 0.60185 0.53242 0.44907 0.0
H1261 H 0.6022 0.47439 0.42899 0.0
C1262 C 0.6525 0.46794 0.43855 0.0
O1263 O 0.64779 0.45652 0.4534 0.0
N1264 N 0.6498 0.49393 0.47879 0.0
C1265 C 0.64717 0.49249 0.49842 0.0
C1266 C 0.6651 0.49052 0.50735 0.0
C1267 C 0.66946 0.4931 0.47616 0.0
N1268 N 0.67917 0.49081 0.49339 0.0
C1269 C 0.64225 0.53786 0.4675 0.0
C1270 C 0.65434 0.54648 0.4296 0.0
C1271 C 0.65529 0.56136 0.44388 0.0
C1272 C 0.64931 0.55675 0.46315 0.0
C1273 C 0.64691 0.52803 0.43446 0.0
N1274 N 0.64101 0.52387 0.45318 0.0
H1275 H 0.63737 0.53452 0.48226 0.0
H1276 H 0.64542 0.51725 0.4229 0.0
H1277 H 0.63329 0.49325 0.50609 0.0
H1278 H 0.67646 0.49424 0.46193 0.0
O1279 O 0.6107 0.50523 0.47932 0.0
O1280 O 0.6158 0.47522 0.46767 0.0
O1281 O 0.64663 0.48575 0.43832 0.0
C1282 C 0.60601 0.48662 0.47943 0.0
H1283 H 0.56817 0.49077 0.41884 0.0
H1284 H 0.66751 0.48951 0.52304 0.0
H1285 H 0.65908 0.54904 0.41463 0.0
H1286 H 0.64951 0.56775 0.47466 0.0
Co1287 Co 0.75145 0.38909 0.71205 0.0
C1288 C 0.73357 0.35433 0.69344 0.0
C1289 C 0.7638 0.35748 0.68531 0.0
C1290 C 0.75748 0.33903 0.67965 0.0
N1291 N 0.74878 0.36702 0.69415 0.0
N1292 N 0.73843 0.33728 0.6847 0.0
H1293 H 0.71995 0.35624 0.70124 0.0
H1294 H 0.77879 0.36278 0.68478 0.0
C1295 C 0.76122 0.4046 0.67198 0.0
O1296 O 0.74707 0.39363 0.6647 0.0
N1297 N 0.75393 0.41049 0.73054 0.0
C1298 C 0.74462 0.4113 0.74802 0.0
C1299 C 0.74881 0.42891 0.75686 0.0
C1300 C 0.76351 0.4278 0.72883 0.0
N1301 N 0.76064 0.43929 0.74483 0.0
C1302 C 0.70909 0.38985 0.71466 0.0
C1303 C 0.70337 0.42258 0.69133 0.0
C1304 C 0.68685 0.41253 0.69845 0.0
C1305 C 0.68992 0.39622 0.7107 0.0
C1306 C 0.72223 0.41573 0.69571 0.0
N1307 N 0.72496 0.39874 0.70612 0.0
H1308 H 0.7111 0.37764 0.72459 0.0
H1309 H 0.7345 0.42458 0.69106 0.0
H1310 H 0.73486 0.40013 0.75374 0.0
H1311 H 0.77209 0.43204 0.71614 0.0
O1312 O 0.74591 0.37127 0.73374 0.0
O1313 O 0.77552 0.37768 0.72179 0.0
O1314 O 0.76402 0.40535 0.69057 0.0
C1315 C 0.76481 0.36814 0.73439 0.0
H1316 H 0.76652 0.32731 0.67379 0.0
H1317 H 0.74282 0.43406 0.77069 0.0
H1318 H 0.70176 0.43588 0.68272 0.0
H1319 H 0.67765 0.38826 0.71698 0.0
Co1320 Co 0.54243 0.87326 0.491 0.0
C1321 C 0.55979 0.90363 0.51628 0.0
C1322 C 0.57326 0.90356 0.48784 0.0
C1323 C 0.5799 0.91977 0.49808 0.0
N1324 N 0.56077 0.89335 0.4994 0.0
N1325 N 0.57134 0.91973 0.51597 0.0
H1326 H 0.54928 0.90075 0.52776 0.0
H1327 H 0.57634 0.90014 0.47261 0.0
C1328 C 0.58271 0.85646 0.48281 0.0
O1329 O 0.59021 0.86591 0.4979 0.0
N1330 N 0.52374 0.85346 0.48248 0.0
C1331 C 0.50421 0.85554 0.47948 0.0
C1332 C 0.49637 0.83758 0.47454 0.0
C1333 C 0.5274 0.83421 0.47944 0.0
N1334 N 0.51096 0.82419 0.4746 0.0
C1335 C 0.5327 0.86678 0.53166 0.0
C1336 C 0.55785 0.83566 0.53843 0.0
C1337 C 0.54774 0.84385 0.55441 0.0
C1338 C 0.53454 0.85922 0.55068 0.0
C1339 C 0.55559 0.8437 0.51964 0.0
N1340 N 0.54411 0.85994 0.51658 0.0
H1341 H 0.52251 0.8787 0.52929 0.0
H1342 H 0.56317 0.83655 0.50779 0.0
H1343 H 0.4959 0.86895 0.48123 0.0
H1344 H 0.54173 0.82757 0.48103 0.0
O1345 O 0.5212 0.89146 0.49629 0.0
O1346 O 0.53684 0.88874 0.46784 0.0
O1347 O 0.56432 0.85732 0.47909 0.0
C1348 C 0.5234 0.89747 0.47823 0.0
H1349 H 0.58935 0.93125 0.4924 0.0
H1350 H 0.48097 0.83448 0.47198 0.0
H1351 H 0.56788 0.82346 0.54044 0.0
H1352 H 0.52579 0.86554 0.5624 0.0
Co1353 Co 0.04108 0.62625 0.5025 0.0
C1354 C 0.05892 0.59513 0.47882 0.0
C1355 C 0.07142 0.59564 0.50765 0.0
C1356 C 0.0773 0.57857 0.49833 0.0
N1357 N 0.05992 0.60609 0.49529 0.0
N1358 N 0.06929 0.57831 0.48019 0.0
H1359 H 0.04877 0.59798 0.46702 0.0
H1360 H 0.07394 0.59933 0.52292 0.0
C1361 C 0.0808 0.64324 0.51261 0.0
O1362 O 0.08885 0.6335 0.49799 0.0
N1363 N 0.02158 0.64587 0.50954 0.0
C1364 C 0.00186 0.64362 0.50937 0.0
C1365 C 0.99318 0.66142 0.5131 0.0
C1366 C 0.02454 0.66511 0.51337 0.0
N1367 N 0.00741 0.67501 0.51555 0.0
C1368 C 0.03403 0.63242 0.46105 0.0
C1369 C 0.05903 0.66405 0.4564 0.0
C1370 C 0.0505 0.65569 0.43964 0.0
C1371 C 0.03724 0.64011 0.4422 0.0
C1372 C 0.05537 0.65596 0.47489 0.0
N1373 N 0.04416 0.63938 0.47696 0.0
H1374 H 0.02384 0.62036 0.46267 0.0
H1375 H 0.06158 0.66341 0.48734 0.0
H1376 H 0.99403 0.63024 0.50593 0.0
H1377 H 0.03892 0.67182 0.51391 0.0
O1378 O 0.02041 0.60746 0.49641 0.0
O1379 O 0.0344 0.61137 0.52559 0.0
O1380 O 0.06222 0.64258 0.51547 0.0
C1381 C 0.02171 0.60209 0.51478 0.0
H1382 H 0.08559 0.56669 0.50491 0.0
H1383 H 0.97752 0.66423 0.51285 0.0
H1384 H 0.06856 0.67676 0.45523 0.0
H1385 H 0.02992 0.63346 0.42972 0.0
Co1386 Co 0.61951 0.80039 0.75432 0.0
C1387 C 0.6496 0.81471 0.72777 0.0
C1388 C 0.65427 0.82601 0.75675 0.0
C1389 C 0.67141 0.8281 0.74618 0.0
N1390 N 0.64045 0.81759 0.74521 0.0
N1391 N 0.66849 0.82074 0.72803 0.0
H1392 H 0.64361 0.80548 0.71626 0.0
H1393 H 0.65283 0.82819 0.77244 0.0
C1394 C 0.60589 0.84076 0.76883 0.0
O1395 O 0.62152 0.84945 0.76166 0.0
N1396 N 0.59915 0.7823 0.76317 0.0
C1397 C 0.60152 0.76586 0.7741 0.0
C1398 C 0.58355 0.75741 0.77736 0.0
C1399 C 0.57955 0.78353 0.75998 0.0
N1400 N 0.56976 0.76847 0.76852 0.0
C1401 C 0.60307 0.7868 0.71782 0.0
C1402 C 0.59257 0.82355 0.70387 0.0
C1403 C 0.58896 0.80706 0.69205 0.0
C1404 C 0.59438 0.78846 0.6992 0.0
C1405 C 0.60139 0.82126 0.72222 0.0
N1406 N 0.60637 0.80309 0.72908 0.0
H1407 H 0.60728 0.77246 0.72324 0.0
H1408 H 0.60474 0.83426 0.73057 0.0
H1409 H 0.61522 0.76008 0.77958 0.0
H1410 H 0.57259 0.79531 0.75184 0.0
O1411 O 0.63702 0.77865 0.74857 0.0
O1412 O 0.63493 0.79416 0.77725 0.0
O1413 O 0.60307 0.82234 0.76618 0.0
C1414 C 0.64343 0.78079 0.76652 0.0
H1415 H 0.68548 0.83272 0.75204 0.0
H1416 H 0.58086 0.74398 0.78548 0.0
H1417 H 0.58916 0.83823 0.69874 0.0
H1418 H 0.59188 0.77534 0.69053 0.0
Co1419 Co 0.45707 0.36765 0.00658 0.0
C1420 C 0.4458 0.40061 0.98252 0.0
C1421 C 0.42915 0.4012 0.00927 0.0
C1422 C 0.42593 0.41857 0.9991 0.0
N1423 N 0.44166 0.39008 0.99872 0.0
N1424 N 0.43653 0.41809 0.98227 0.0
H1425 H 0.45695 0.39623 0.97203 0.0
H1426 H 0.42391 0.39762 0.02386 0.0
C1427 C 0.42661 0.33694 0.0155 0.0
O1428 O 0.43604 0.32491 0.00365 0.0
N1429 N 0.47377 0.34563 0.0144 0.0
C1430 C 0.4927 0.34315 0.00883 0.0
C1431 C 0.50054 0.32732 0.0185 0.0
C1432 C 0.47075 0.33156 0.02816 0.0
N1433 N 0.4867 0.31998 0.03054 0.0
C1434 C 0.46727 0.35244 0.96789 0.0
C1435 C 0.42891 0.34783 0.95528 0.0
C1436 C 0.44416 0.34324 0.94215 0.0
C1437 C 0.4636 0.34578 0.94872 0.0
C1438 C 0.43322 0.35484 0.97405 0.0
N1439 N 0.45219 0.35633 0.98056 0.0
H1440 H 0.48224 0.35524 0.97215 0.0
H1441 H 0.42114 0.35934 0.98332 0.0
H1442 H 0.50069 0.35241 0.99872 0.0
H1443 H 0.45744 0.32985 0.03664 0.0
O1444 O 0.48049 0.38298 0.00122 0.0
O1445 O 0.46516 0.38143 0.02998 0.0
O1446 O 0.4329 0.3545 0.01804 0.0
C1447 C 0.47953 0.38851 0.01956 0.0
H1448 H 0.4173 0.43092 0.0042 0.0
H1449 H 0.5151 0.32125 0.01636 0.0
H1450 H 0.41362 0.34615 0.9512 0.0
H1451 H 0.47595 0.34325 0.939 0.0
Co1452 Co 0.37598 0.70406 0.76111 0.0
C1453 C 0.34493 0.68795 0.73679 0.0
C1454 C 0.34154 0.67807 0.76642 0.0
C1455 C 0.32447 0.67405 0.75629 0.0
N1456 N 0.35459 0.68649 0.75407 0.0
N1457 N 0.32648 0.6806 0.73766 0.0
H1458 H 0.35037 0.69674 0.72471 0.0
H1459 H 0.34357 0.67664 0.78214 0.0
C1460 C 0.39026 0.66438 0.77679 0.0
O1461 O 0.37443 0.65536 0.77053 0.0
N1462 N 0.39678 0.72253 0.76791 0.0
C1463 C 0.39485 0.73992 0.77737 0.0
C1464 C 0.413 0.74832 0.77955 0.0
C1465 C 0.41629 0.72071 0.76447 0.0
N1466 N 0.42646 0.7363 0.77147 0.0
C1467 C 0.39169 0.7152 0.72335 0.0
C1468 C 0.39799 0.67725 0.71008 0.0
C1469 C 0.40157 0.69294 0.69727 0.0
C1470 C 0.39872 0.71218 0.70418 0.0
C1471 C 0.39127 0.6809 0.72909 0.0
N1472 N 0.38799 0.69963 0.73549 0.0
H1473 H 0.38881 0.73001 0.72837 0.0
H1474 H 0.38784 0.66851 0.73826 0.0
H1475 H 0.38134 0.7464 0.78253 0.0
H1476 H 0.4229 0.70816 0.75724 0.0
O1477 O 0.35834 0.72549 0.75472 0.0
O1478 O 0.36152 0.71187 0.78424 0.0
O1479 O 0.39285 0.68272 0.77346 0.0
C1480 C 0.35262 0.72456 0.773 0.0
H1481 H 0.31113 0.66825 0.76272 0.0
H1482 H 0.41606 0.76237 0.78639 0.0
H1483 H 0.40007 0.66218 0.70535 0.0
H1484 H 0.4012 0.72469 0.69465 0.0
Co1485 Co 0.95533 0.13234 0.99436 0.0
C1486 C 0.93873 0.09934 0.01669 0.0
C1487 C 0.92681 0.10071 0.98761 0.0
C1488 C 0.92206 0.0827 0.9957 0.0
N1489 N 0.9374 0.11112 0.00079 0.0
N1490 N 0.92957 0.08202 0.014 0.0
H1491 H 0.94838 0.102 0.02895 0.0
H1492 H 0.92453 0.10501 0.97247 0.0
C1493 C 0.91507 0.14832 0.98421 0.0
O1494 O 0.90728 0.1388 0.99911 0.0
N1495 N 0.97369 0.15314 0.98776 0.0
C1496 C 0.99353 0.15238 0.98866 0.0
C1497 C 0.00109 0.16999 0.98235 0.0
C1498 C 0.96952 0.17139 0.98116 0.0
N1499 N 0.98599 0.18189 0.97766 0.0
C1500 C 0.96062 0.13751 0.03606 0.0
C1501 C 0.93569 0.16917 0.04081 0.0
C1502 C 0.94379 0.16041 0.05763 0.0
C1503 C 0.9569 0.14472 0.05497 0.0
C1504 C 0.93983 0.16147 0.02216 0.0
N1505 N 0.95106 0.14492 0.02001 0.0
H1506 H 0.97093 0.12557 0.03449 0.0
H1507 H 0.93406 0.16915 0.0096 0.0
H1508 H 0.00213 0.14004 0.99375 0.0
H1509 H 0.95481 0.17702 0.97902 0.0
O1510 O 0.97704 0.115 0.00082 0.0
O1511 O 0.96354 0.11783 0.97133 0.0
O1512 O 0.93358 0.14756 0.9811 0.0
C1513 C 0.97666 0.10955 0.98246 0.0
H1514 H 0.91516 0.07049 0.98816 0.0
H1515 H 0.0165 0.17399 0.98189 0.0
H1516 H 0.92631 0.18198 0.04199 0.0
H1517 H 0.96389 0.13764 0.0674 0.0
Co1518 Co 0.62168 0.2153 0.74428 0.0
C1519 C 0.65397 0.19878 0.76748 0.0
C1520 C 0.65313 0.18595 0.7388 0.0
C1521 C 0.67048 0.18047 0.74783 0.0
N1522 N 0.64273 0.19739 0.75125 0.0
N1523 N 0.6709 0.18863 0.76589 0.0
H1524 H 0.6512 0.20897 0.77925 0.0
H1525 H 0.64916 0.18315 0.72365 0.0
C1526 C 0.60622 0.17485 0.73481 0.0
O1527 O 0.6157 0.16748 0.74994 0.0
N1528 N 0.60107 0.23369 0.73723 0.0
C1529 C 0.60161 0.25347 0.73887 0.0
C1530 C 0.5841 0.2611 0.73226 0.0
C1531 C 0.5831 0.2296 0.72988 0.0
N1532 N 0.5725 0.24607 0.72663 0.0
C1533 C 0.61588 0.22121 0.78596 0.0
C1534 C 0.58447 0.19586 0.79024 0.0
C1535 C 0.59311 0.2038 0.80717 0.0
C1536 C 0.60854 0.21727 0.80479 0.0
C1537 C 0.59221 0.20028 0.77172 0.0
N1538 N 0.60878 0.21153 0.76983 0.0
H1539 H 0.62773 0.23166 0.78448 0.0
H1540 H 0.58462 0.1946 0.75907 0.0
H1541 H 0.61371 0.26195 0.74471 0.0
H1542 H 0.57773 0.21493 0.72711 0.0
O1543 O 0.63935 0.23691 0.75039 0.0
O1544 O 0.63619 0.22282 0.72117 0.0
O1545 O 0.60654 0.19332 0.73141 0.0
C1546 C 0.6448 0.23594 0.73203 0.0
H1547 H 0.6824 0.1723 0.74114 0.0
H1548 H 0.58 0.27648 0.73224 0.0
H1549 H 0.5718 0.18626 0.79127 0.0
H1550 H 0.61535 0.22423 0.8174 0.0
Co1551 Co 0.87439 0.79498 0.23349 0.0
C1552 C 0.84289 0.81347 0.25534 0.0
C1553 C 0.83978 0.81968 0.22469 0.0
C1554 C 0.82254 0.82469 0.23405 0.0
N1555 N 0.85272 0.8129 0.23815 0.0
N1556 N 0.82442 0.82045 0.25335 0.0
H1557 H 0.84814 0.80618 0.26845 0.0
H1558 H 0.84207 0.81936 0.20895 0.0
C1559 C 0.88855 0.83378 0.21608 0.0
O1560 O 0.87237 0.8426 0.2217 0.0
N1561 N 0.89547 0.77616 0.22932 0.0
C1562 C 0.89372 0.75678 0.22529 0.0
C1563 C 0.91209 0.74863 0.22402 0.0
C1564 C 0.91503 0.77941 0.23068 0.0
N1565 N 0.92549 0.76281 0.22738 0.0
C1566 C 0.88642 0.78652 0.27311 0.0
C1567 C 0.89702 0.82448 0.28305 0.0
C1568 C 0.89788 0.80992 0.29764 0.0
C1569 C 0.89265 0.79062 0.29235 0.0
C1570 C 0.89042 0.81985 0.26421 0.0
N1571 N 0.88518 0.8011 0.25936 0.0
H1572 H 0.88214 0.77169 0.2693 0.0
H1573 H 0.88903 0.83163 0.25383 0.0
H1574 H 0.88017 0.74871 0.22369 0.0
H1575 H 0.92143 0.79358 0.23406 0.0
O1576 O 0.85632 0.77404 0.24045 0.0
O1577 O 0.8612 0.78534 0.21023 0.0
O1578 O 0.89161 0.8157 0.22037 0.0
C1579 C 0.85167 0.7735 0.22185 0.0
H1580 H 0.80917 0.82945 0.22686 0.0
H1581 H 0.9153 0.73327 0.22138 0.0
H1582 H 0.90126 0.83952 0.2861 0.0
H1583 H 0.89283 0.77883 0.30304 0.0
H1584 H 0.05804 0.06281 0.41938 0.0
H1585 H 0.00855 0.07082 0.45843 0.0
H1586 H 0.07791 0.05136 0.44692 0.0
H1587 H 0.02883 0.05999 0.48616 0.0
H1588 H 0.08355 0.05448 0.53066 0.0
H1589 H 0.06276 0.06931 0.50513 0.0
H1590 H 0.07258 0.01884 0.46794 0.0
H1591 H 0.09297 0.00387 0.49343 0.0
C1592 C 0.05146 0.06238 0.43388 0.0
C1593 C 0.03157 0.06739 0.43659 0.0
C1594 C 0.06286 0.05584 0.44962 0.0
C1595 C 0.05476 0.0545 0.46854 0.0
C1596 C 0.03536 0.06087 0.47166 0.0
C1597 C 0.02381 0.06718 0.45579 0.0
C1598 C 0.0811 0.04651 0.51708 0.0
C1599 C 0.08991 0.02805 0.51398 0.0
C1600 C 0.06921 0.05497 0.50255 0.0
C1601 C 0.06628 0.04528 0.48456 0.0
C1602 C 0.07481 0.0267 0.48163 0.0
C1603 C 0.08636 0.01809 0.49625 0.0
H1604 H 0.23832 0.84094 0.74196 0.0
H1605 H 0.18694 0.83187 0.77823 0.0
H1606 H 0.22412 0.81984 0.71658 0.0
H1607 H 0.17291 0.81037 0.75287 0.0
H1608 H 0.17527 0.75342 0.71061 0.0
H1609 H 0.18434 0.77608 0.73675 0.0
H1610 H 0.19187 0.82248 0.6942 0.0
H1611 H 0.18196 0.8002 0.66796 0.0
C1612 C 0.22406 0.83432 0.74455 0.0
C1613 C 0.2137 0.83802 0.76201 0.0
C1614 C 0.21589 0.82241 0.72999 0.0
C1615 C 0.19739 0.81369 0.73278 0.0
C1616 C 0.18718 0.81701 0.75042 0.0
C1617 C 0.19519 0.82927 0.76485 0.0
C1618 C 0.17831 0.76852 0.70672 0.0
C1619 C 0.17828 0.77477 0.68695 0.0
C1620 C 0.18358 0.78148 0.72178 0.0
C1621 C 0.18911 0.80084 0.71737 0.0
C1622 C 0.18799 0.80746 0.69787 0.0
C1623 C 0.1824 0.79464 0.68286 0.0
H1624 H 0.42424 0.99687 0.00437 0.0
H1625 H 0.40613 0.93791 0.01958 0.0
H1626 H 0.44898 0.98336 0.98189 0.0
H1627 H 0.43065 0.9245 0.99703 0.0
H1628 H 0.45525 0.91574 0.93221 0.0
H1629 H 0.43383 0.92587 0.95936 0.0
H1630 H 0.48064 0.96189 0.98269 0.0
H1631 H 0.50207 0.9514 0.95558 0.0
C1632 C 0.42558 0.98106 0.00294 0.0
C1633 C 0.4132 0.96845 0.01361 0.0
C1634 C 0.43983 0.97334 0.99023 0.0
C1635 C 0.44172 0.95288 0.98778 0.0
C1636 C 0.42946 0.94031 0.99861 0.0
C1637 C 0.41545 0.94801 0.01151 0.0
C1638 C 0.46107 0.92526 0.94357 0.0
C1639 C 0.4803 0.93254 0.9421 0.0
C1640 C 0.44887 0.93113 0.95902 0.0
C1641 C 0.45557 0.94475 0.97304 0.0
C1642 C 0.4751 0.95144 0.97201 0.0
C1643 C 0.48743 0.94526 0.95673 0.0
H1644 H 0.31688 0.14195 0.26247 0.0
H1645 H 0.25971 0.16828 0.25409 0.0
H1646 H 0.33127 0.16592 0.23973 0.0
H1647 H 0.27423 0.19253 0.23172 0.0
H1648 H 0.3124 0.24396 0.20878 0.0
H1649 H 0.30158 0.22114 0.2346 0.0
H1650 H 0.32477 0.17245 0.20113 0.0
H1651 H 0.33508 0.19531 0.17514 0.0
C1652 C 0.30744 0.15294 0.25587 0.0
C1653 C 0.28718 0.15323 0.25992 0.0
C1654 C 0.31567 0.1666 0.24288 0.0
C1655 C 0.30386 0.18108 0.23412 0.0
C1656 C 0.28366 0.1816 0.23846 0.0
C1657 C 0.27535 0.16766 0.2511 0.0
C1658 C 0.31566 0.22845 0.2073 0.0
C1659 C 0.32478 0.2213 0.1902 0.0
C1660 C 0.3093 0.21541 0.22189 0.0
C1661 C 0.31233 0.19509 0.21977 0.0
C1662 C 0.32239 0.18807 0.20315 0.0
C1663 C 0.32834 0.20107 0.18837 0.0
H1664 H 0.07695 0.00016 0.00307 0.0
H1665 H 0.09569 0.94297 0.98271 0.0
H1666 H 0.05091 0.98457 0.0225 0.0
H1667 H 0.06986 0.92748 0.00224 0.0
H1668 H 0.04265 0.91347 0.06553 0.0
H1669 H 0.06499 0.92526 0.03983 0.0
H1670 H 0.01928 0.96342 0.01779 0.0
H1671 H 0.99692 0.95123 0.0434 0.0
C1672 C 0.07545 0.9843 0.00269 0.0
C1673 C 0.0884 0.97277 0.9915 0.0
C1674 C 0.06046 0.97541 0.01364 0.0
C1675 C 0.05837 0.95483 0.01378 0.0
C1676 C 0.07118 0.94336 0.00239 0.0
C1677 C 0.08594 0.95225 0.99124 0.0
C1678 C 0.03724 0.92373 0.05462 0.0
C1679 C 0.01809 0.93119 0.05607 0.0
C1680 C 0.04997 0.93058 0.04004 0.0
C1681 C 0.04386 0.94535 0.02695 0.0
C1682 C 0.02434 0.95209 0.02777 0.0
C1683 C 0.0115 0.94494 0.04216 0.0
H1684 H 0.29875 0.7416 0.29365 0.0
H1685 H 0.32853 0.78873 0.32367 0.0
H1686 H 0.28814 0.76464 0.2679 0.0
H1687 H 0.31833 0.81176 0.29793 0.0
H1688 H 0.30847 0.84358 0.23931 0.0
H1689 H 0.32216 0.81833 0.26083 0.0
H1690 H 0.26403 0.79451 0.26994 0.0
H1691 H 0.25021 0.81997 0.24848 0.0
C1692 C 0.30359 0.75675 0.29429 0.0
C1693 C 0.31467 0.76347 0.31035 0.0
C1694 C 0.29733 0.76995 0.27978 0.0
C1695 C 0.30236 0.78997 0.28101 0.0
C1696 C 0.31438 0.79639 0.29654 0.0
C1697 C 0.32029 0.78328 0.31118 0.0
C1698 C 0.2986 0.83293 0.24586 0.0
C1699 C 0.27825 0.83381 0.24234 0.0
C1700 C 0.30645 0.8185 0.25816 0.0
C1701 C 0.29416 0.80445 0.26695 0.0
C1702 C 0.27384 0.80506 0.26315 0.0
C1703 C 0.26593 0.81971 0.25106 0.0
H1704 H 0.4229 0.9942 0.50238 0.0
H1705 H 0.39424 0.0507 0.49793 0.0
H1706 H 0.44744 0.00848 0.52457 0.0
H1707 H 0.41854 0.06483 0.52041 0.0
H1708 H 0.45295 0.07059 0.58121 0.0
H1709 H 0.42826 0.05824 0.55791 0.0
H1710 H 0.47462 0.03638 0.52048 0.0
H1711 H 0.49919 0.04895 0.54356 0.0
C1712 C 0.42179 0.00961 0.50624 0.0
C1713 C 0.40671 0.02136 0.49847 0.0
C1714 C 0.43586 0.01778 0.51881 0.0
C1715 C 0.43482 0.03773 0.5241 0.0
C1716 C 0.41958 0.0494 0.51657 0.0
C1717 C 0.40576 0.04133 0.50369 0.0
C1718 C 0.45776 0.06342 0.56783 0.0
C1719 C 0.47789 0.06088 0.56404 0.0
C1720 C 0.44372 0.05638 0.55456 0.0
C1721 C 0.44962 0.0463 0.53751 0.0
C1722 C 0.46975 0.04402 0.53358 0.0
C1723 C 0.48377 0.05139 0.54665 0.0
H1724 H 0.19986 0.13928 0.74505 0.0
H1725 H 0.25548 0.16956 0.74986 0.0
H1726 H 0.18519 0.16241 0.76837 0.0
H1727 H 0.24056 0.19306 0.77287 0.0
H1728 H 0.19752 0.24204 0.79581 0.0
H1729 H 0.2101 0.21951 0.77052 0.0
H1730 H 0.19389 0.16997 0.80672 0.0
H1731 H 0.18183 0.19258 0.83219 0.0
C1732 C 0.2089 0.15096 0.75101 0.0
C1733 C 0.22882 0.15262 0.74574 0.0
C1734 C 0.20051 0.16413 0.76434 0.0
C1735 C 0.21175 0.17948 0.77228 0.0
C1736 C 0.23159 0.18138 0.76679 0.0
C1737 C 0.24013 0.16791 0.75377 0.0
C1738 C 0.19628 0.22633 0.79809 0.0
C1739 C 0.18854 0.21892 0.81574 0.0
C1740 C 0.20365 0.2135 0.78379 0.0
C1741 C 0.20298 0.19308 0.78679 0.0
C1742 C 0.19447 0.18567 0.80408 0.0
C1743 C 0.18755 0.19851 0.81856 0.0
H1744 H 0.42096 0.05115 0.0782 0.0
H1745 H 0.4579 0.00505 0.05529 0.0
H1746 H 0.44436 0.07592 0.06622 0.0
H1747 H 0.48111 0.02976 0.04283 0.0
H1748 H 0.49753 0.08297 0.00077 0.0
H1749 H 0.47588 0.05798 0.01524 0.0
H1750 H 0.48242 0.08516 0.0722 0.0
H1751 H 0.50441 0.10983 0.05791 0.0
C1752 C 0.43432 0.0464 0.07094 0.0
C1753 C 0.43788 0.0263 0.06791 0.0
C1754 C 0.44761 0.06048 0.06404 0.0
C1755 C 0.46442 0.05469 0.05352 0.0
C1756 C 0.46819 0.03456 0.05083 0.0
C1757 C 0.45511 0.02046 0.05814 0.0
C1758 C 0.49424 0.08364 0.01635 0.0
C1759 C 0.50256 0.09833 0.02823 0.0
C1760 C 0.48203 0.06928 0.02463 0.0
C1761 C 0.47761 0.06966 0.04483 0.0
C1762 C 0.48562 0.08459 0.05661 0.0
C1763 C 0.49817 0.09865 0.04843 0.0
H1764 H 0.20387 0.16454 0.32289 0.0
H1765 H 0.25012 0.20259 0.30204 0.0
H1766 H 0.17919 0.18817 0.31133 0.0
H1767 H 0.22556 0.22613 0.29034 0.0
H1768 H 0.17498 0.24538 0.24817 0.0
H1769 H 0.19935 0.22307 0.26243 0.0
H1770 H 0.16834 0.22448 0.31783 0.0
H1771 H 0.14411 0.247 0.30368 0.0
C1772 C 0.20868 0.17814 0.31617 0.0
C1773 C 0.22881 0.18187 0.31348 0.0
C1774 C 0.19465 0.1916 0.30956 0.0
C1775 C 0.20054 0.20884 0.29983 0.0
C1776 C 0.22068 0.21285 0.29767 0.0
C1777 C 0.23471 0.19954 0.30457 0.0
C1778 C 0.17331 0.24079 0.26333 0.0
C1779 C 0.15767 0.24782 0.27482 0.0
C1780 C 0.18731 0.22821 0.27153 0.0
C1781 C 0.18572 0.2222 0.29124 0.0
C1782 C 0.16984 0.22889 0.30259 0.0
C1783 C 0.15603 0.24175 0.2945 0.0
H1784 H 0.99383 0.92272 0.49685 0.0
H1785 H 0.99047 0.8899 0.55111 0.0
H1786 H 0.01753 0.94523 0.51199 0.0
H1787 H 0.01446 0.91222 0.56611 0.0
H1788 H 0.0765 0.94419 0.57258 0.0
H1789 H 0.05181 0.92128 0.55948 0.0
H1790 H 0.01599 0.97041 0.54132 0.0
H1791 H 0.04045 0.99317 0.5546 0.0
C1792 C 0.99827 0.92025 0.51195 0.0
C1793 C 0.99037 0.90457 0.52281 0.0
C1794 C 0.01171 0.93318 0.52064 0.0
C1795 C 0.01777 0.93044 0.54021 0.0
C1796 C 0.01008 0.91459 0.55097 0.0
C1797 C 0.99633 0.9019 0.54242 0.0
C1798 C 0.06318 0.94999 0.56606 0.0
C1799 C 0.06027 0.9704 0.56479 0.0
C1800 C 0.0491 0.93695 0.55859 0.0
C1801 C 0.03208 0.94413 0.54932 0.0
C1802 C 0.02904 0.96452 0.5483 0.0
C1803 C 0.04292 0.97752 0.5561 0.0
H1804 H 0.24602 0.78807 0.80408 0.0
H1805 H 0.29345 0.82247 0.82831 0.0
H1806 H 0.26964 0.76323 0.79293 0.0
H1807 H 0.31713 0.79739 0.81754 0.0
H1808 H 0.34778 0.73561 0.81115 0.0
H1809 H 0.3235 0.75864 0.82445 0.0
H1810 H 0.29916 0.76653 0.76639 0.0
H1811 H 0.32376 0.74385 0.75293 0.0
C1812 C 0.26145 0.79002 0.80744 0.0
C1813 C 0.26799 0.80702 0.8172 0.0
C1814 C 0.27494 0.77596 0.80091 0.0
C1815 C 0.29513 0.77849 0.80437 0.0
C1816 C 0.3016 0.7951 0.8148 0.0
C1817 C 0.28814 0.80938 0.82095 0.0
C1818 C 0.33721 0.74223 0.80124 0.0
C1819 C 0.33763 0.73803 0.78101 0.0
C1820 C 0.3234 0.75541 0.80885 0.0
C1821 C 0.30951 0.76425 0.79643 0.0
C1822 C 0.30969 0.75978 0.77625 0.0
C1823 C 0.32378 0.74693 0.76856 0.0
H1824 H 0.52855 0.91783 0.44392 0.0
H1825 H 0.48859 0.91055 0.49282 0.0
H1826 H 0.50532 0.94083 0.42847 0.0
H1827 H 0.46543 0.9331 0.47716 0.0
H1828 H 0.42093 0.9477 0.42829 0.0
H1829 H 0.44859 0.92675 0.43759 0.0
H1830 H 0.48523 0.97802 0.44465 0.0
H1831 H 0.45729 0.99917 0.43578 0.0
C1832 C 0.5149 0.92123 0.45139 0.0
C1833 C 0.5103 0.91238 0.46953 0.0
C1834 C 0.50172 0.93437 0.44258 0.0
C1835 C 0.48369 0.9385 0.45166 0.0
C1836 C 0.47928 0.92999 0.46993 0.0
C1837 C 0.49254 0.91717 0.47887 0.0
C1838 C 0.43504 0.95446 0.43129 0.0
C1839 C 0.43693 0.97502 0.43156 0.0
C1840 C 0.45079 0.94251 0.43662 0.0
C1841 C 0.46881 0.9509 0.44199 0.0
C1842 C 0.47139 0.97132 0.44048 0.0
C1843 C 0.45549 0.98336 0.4353 0.0
H1844 H 0.30624 0.16474 0.67986 0.0
H1845 H 0.25709 0.2046 0.68498 0.0
H1846 H 0.3286 0.19096 0.68985 0.0
H1847 H 0.27973 0.23111 0.69428 0.0
H1848 H 0.33645 0.27396 0.69511 0.0
H1849 H 0.31354 0.25022 0.68043 0.0
H1850 H 0.32766 0.20852 0.72611 0.0
H1851 H 0.35014 0.23231 0.74107 0.0
C1852 C 0.30027 0.17922 0.68269 0.0
C1853 C 0.27986 0.18249 0.68198 0.0
C1854 C 0.31306 0.19418 0.68841 0.0
C1855 C 0.30578 0.21287 0.69312 0.0
C1856 C 0.28563 0.21675 0.69074 0.0
C1857 C 0.27272 0.20162 0.68529 0.0
C1858 C 0.33459 0.25973 0.70202 0.0
C1859 C 0.34507 0.25491 0.7192 0.0
C1860 C 0.32147 0.24624 0.69367 0.0
C1861 C 0.31902 0.22759 0.7021 0.0
C1862 C 0.32946 0.2228 0.71928 0.0
C1863 C 0.34222 0.23641 0.72787 0.0
H1864 H 0.04378 0.01246 0.9315 0.0
H1865 H 0.0855 0.05889 0.94324 0.0
H1866 H 0.0169 0.03416 0.94173 0.0
H1867 H 0.05877 0.08024 0.95396 0.0
H1868 H 0.01113 0.09782 0.9991 0.0
H1869 H 0.03623 0.0765 0.98475 0.0
H1870 H 1.00015 0.06836 0.93317 0.0
H1871 H 0.97503 0.08997 0.94742 0.0
C1872 C 0.04719 0.02739 0.93581 0.0
C1873 C 0.06682 0.03386 0.93683 0.0
C1874 C 0.03182 0.03975 0.94178 0.0
C1875 C 0.03586 0.05869 0.949 0.0
C1876 C 0.05532 0.06555 0.94885 0.0
C1877 C 0.07059 0.05333 0.94268 0.0
C1878 C 0.00849 0.0914 0.98476 0.0
C1879 C 0.99118 0.09561 0.97434 0.0
C1880 C 0.02289 0.07932 0.9765 0.0
C1881 C 0.02016 0.07096 0.95779 0.0
C1882 C 0.00259 0.07465 0.94761 0.0
C1883 C 0.98829 0.08702 0.95574 0.0
H1884 H 0.16668 0.71843 0.19472 0.0
H1885 H 0.15599 0.75939 0.24208 0.0
H1886 H 0.19057 0.74133 0.1803 0.0
H1887 H 0.17948 0.78235 0.22742 0.0
H1888 H 0.2003 0.82647 0.18113 0.0
H1889 H 0.17771 0.80076 0.19188 0.0
H1890 H 0.22547 0.75905 0.19286 0.0
H1891 H 0.24838 0.78506 0.1827 0.0
C1892 C 0.16949 0.73229 0.20206 0.0
C1893 C 0.15946 0.73721 0.21947 0.0
C1894 C 0.18317 0.74529 0.19385 0.0
C1895 C 0.18667 0.76358 0.2027 0.0
C1896 C 0.17687 0.76836 0.22026 0.0
C1897 C 0.16353 0.75521 0.22868 0.0
C1898 C 0.20595 0.81175 0.18337 0.0
C1899 C 0.22616 0.80787 0.18137 0.0
C1900 C 0.19304 0.7971 0.18956 0.0
C1901 C 0.19998 0.77811 0.19351 0.0
C1902 C 0.21984 0.77366 0.18994 0.0
C1903 C 0.2329 0.78848 0.18398 0.0
H1904 H 0.05113 0.45726 0.99484 0.0
H1905 H 0.08177 0.42806 0.04195 0.0
H1906 H 0.04013 0.48287 0.01782 0.0
H1907 H 0.07114 0.45368 0.06492 0.0
H1908 H 0.05918 0.51187 0.09694 0.0
H1909 H 0.07373 0.49085 0.0717 0.0
H1910 H 0.01607 0.47996 0.04749 0.0
H1911 H 0.00142 0.50088 0.07289 0.0
C1912 C 0.05609 0.45679 0.00996 0.0
C1913 C 0.06747 0.44095 0.0167 0.0
C1914 C 0.04961 0.47122 0.02313 0.0
C1915 C 0.05471 0.47015 0.04313 0.0
C1916 C 0.06711 0.45494 0.04956 0.0
C1917 C 0.07326 0.44036 0.03648 0.0
C1918 C 0.04961 0.50503 0.0862 0.0
C1919 C 0.02915 0.50788 0.08694 0.0
C1920 C 0.05795 0.49302 0.07178 0.0
C1921 C 0.04604 0.4839 0.05762 0.0
C1922 C 0.0256 0.48703 0.05812 0.0
C1923 C 0.01721 0.49882 0.07274 0.0
H1924 H 0.54775 0.99669 0.89299 0.0
H1925 H 0.49268 0.99732 0.92464 0.0
H1926 H 0.56159 0.02009 0.91651 0.0
H1927 H 0.50671 0.02058 0.94839 0.0
H1928 H 0.54712 0.04627 0.99721 0.0
H1929 H 0.53542 0.02074 0.97448 0.0
H1930 H 0.55349 0.05648 0.92522 0.0
H1931 H 0.56482 0.08203 0.94797 0.0
C1932 C 0.53862 0.00182 0.905 0.0
C1933 C 0.5191 0.99532 0.90693 0.0
C1934 C 0.54655 0.0152 0.91842 0.0
C1935 C 0.53523 0.02206 0.93427 0.0
C1936 C 0.51578 0.01537 0.93638 0.0
C1937 C 0.50772 0.00224 0.92271 0.0
C1938 C 0.54896 0.04839 0.98153 0.0
C1939 C 0.55702 0.06595 0.97424 0.0
C1940 C 0.54208 0.03395 0.96856 0.0
C1941 C 0.5435 0.03671 0.94812 0.0
C1942 C 0.55231 0.05394 0.9409 0.0
C1943 C 0.55881 0.0685 0.95385 0.0
H1944 H 0.27014 0.30341 0.15733 0.0
H1945 H 0.25826 0.24453 0.17801 0.0
H1946 H 0.24794 0.31669 0.18221 0.0
H1947 H 0.23611 0.25793 0.20311 0.0
H1948 H 0.20994 0.29115 0.25584 0.0
H1949 H 0.23677 0.28074 0.23397 0.0
H1950 H 0.21048 0.31358 0.18641 0.0
H1951 H 0.18365 0.32361 0.20824 0.0
C1952 C 0.26291 0.29331 0.1673 0.0
C1953 C 0.2658 0.27291 0.16565 0.0
C1954 C 0.2502 0.30093 0.18151 0.0
C1955 C 0.24036 0.28834 0.19457 0.0
C1956 C 0.24368 0.26797 0.19332 0.0
C1957 C 0.25619 0.2603 0.17888 0.0
C1958 C 0.21034 0.29658 0.24088 0.0
C1959 C 0.195 0.30837 0.23368 0.0
C1960 C 0.22547 0.29045 0.22833 0.0
C1961 C 0.22563 0.29632 0.20851 0.0
C1962 C 0.21081 0.30898 0.20166 0.0
C1963 C 0.19553 0.31477 0.21409 0.0
H1964 H 0.94684 0.01586 0.39856 0.0
H1965 H 0.0047 0.00115 0.42027 0.0
H1966 H 0.93213 0.99312 0.42217 0.0
H1967 H 0.98987 0.97856 0.44413 0.0
H1968 H 0.95348 0.9559 0.4968 0.0
H1969 H 0.9663 0.98103 0.47443 0.0
H1970 H 0.93356 0.9551 0.42662 0.0
H1971 H 0.92094 0.9298 0.44905 0.0
C1972 C 0.9564 0.00785 0.40846 0.0
C1973 C 0.97692 0.01022 0.40757 0.0
C1974 C 0.94798 0.99481 0.4219 0.0
C1975 C 0.95987 0.98415 0.43495 0.0
C1976 C 0.98038 0.98674 0.43431 0.0
C1977 C 0.98885 0.99955 0.42061 0.0
C1978 C 0.94866 0.9559 0.48162 0.0
C1979 C 0.93603 0.94112 0.47462 0.0
C1980 C 0.95618 0.97009 0.4688 0.0
C1981 C 0.95096 0.96993 0.44882 0.0
C1982 C 0.93771 0.95561 0.44199 0.0
C1983 C 0.93048 0.94121 0.45475 0.0
H1984 H 0.82262 0.17662 0.20337 0.0
H1985 H 0.79283 0.20504 0.25158 0.0
H1986 H 0.7967 0.18782 0.18078 0.0
H1987 H 0.7672 0.21663 0.22903 0.0
H1988 H 0.74576 0.25434 0.17386 0.0
H1989 H 0.76955 0.24132 0.19766 0.0
H1990 H 0.75717 0.18233 0.17784 0.0
H1991 H 0.73307 0.19522 0.15443 0.0
C1992 C 0.81037 0.18504 0.20908 0.0
C1993 C 0.80947 0.18974 0.22915 0.0
C1994 C 0.79562 0.19144 0.19626 0.0
C1995 C 0.78005 0.20308 0.20324 0.0
C1996 C 0.77909 0.20769 0.22334 0.0
C1997 C 0.79359 0.20091 0.23622 0.0
C1998 C 0.74805 0.2386 0.17471 0.0
C1999 C 0.73759 0.22577 0.16238 0.0
C2000 C 0.76156 0.23117 0.18833 0.0
C2001 C 0.76513 0.21085 0.18948 0.0
C2002 C 0.75468 0.19805 0.17715 0.0
C2003 C 0.74086 0.20542 0.16386 0.0
H2004 H 0.44782 0.54559 0.49721 0.0
H2005 H 0.41609 0.57363 0.54432 0.0
H2006 H 0.45768 0.51902 0.51961 0.0
H2007 H 0.4255 0.54696 0.56668 0.0
H2008 H 0.43572 0.4867 0.59622 0.0
H2009 H 0.42215 0.50863 0.57114 0.0
H2010 H 0.48085 0.52177 0.55087 0.0
H2011 H 0.4945 0.50007 0.57619 0.0
C2012 C 0.44237 0.5456 0.51218 0.0
C2013 C 0.43102 0.56138 0.51912 0.0
C2014 C 0.44817 0.53061 0.525 0.0
C2015 C 0.44239 0.53106 0.54484 0.0
C2016 C 0.43002 0.54622 0.55142 0.0
C2017 C 0.42458 0.56138 0.5387 0.0
C2018 C 0.44571 0.49421 0.58635 0.0
C2019 C 0.46616 0.49184 0.58819 0.0
C2020 C 0.43794 0.50672 0.57204 0.0
C2021 C 0.45046 0.51675 0.55907 0.0
C2022 C 0.47089 0.51402 0.56059 0.0
C2023 C 0.47869 0.50178 0.57516 0.0
H2024 H 0.25227 0.74171 0.32504 0.0
H2025 H 0.25354 0.68691 0.35711 0.0
H2026 H 0.22947 0.72717 0.30121 0.0
H2027 H 0.23035 0.67257 0.33353 0.0
H2028 H 0.1667 0.67328 0.30154 0.0
H2029 H 0.19275 0.68299 0.32457 0.0
H2030 H 0.2309 0.69634 0.27564 0.0
H2031 H 0.20497 0.68612 0.25267 0.0
C2032 C 0.2476 0.7266 0.32701 0.0
C2033 C 0.25454 0.71543 0.34292 0.0
C2034 C 0.23474 0.71826 0.31333 0.0
C2035 C 0.2283 0.69876 0.31557 0.0
C2036 C 0.23517 0.68762 0.33152 0.0
C2037 C 0.24839 0.69582 0.34495 0.0
C2038 C 0.18088 0.67776 0.29583 0.0
C2039 C 0.18401 0.6788 0.27547 0.0
C2040 C 0.1957 0.68333 0.30892 0.0
C2041 C 0.21371 0.69047 0.30179 0.0
C2042 C 0.21709 0.6909 0.28142 0.0
C2043 C 0.2024 0.68489 0.26834 0.0
H2044 H 0.22573 0.30125 0.83639 0.0
H2045 H 0.26336 0.25102 0.84623 0.0
H2046 H 0.25008 0.31508 0.81378 0.0
H2047 H 0.28769 0.26493 0.82375 0.0
H2048 H 0.33551 0.30654 0.80324 0.0
H2049 H 0.30954 0.29572 0.82543 0.0
H2050 H 0.26634 0.30636 0.78016 0.0
H2051 H 0.29251 0.31682 0.75768 0.0
C2052 C 0.23916 0.29314 0.83365 0.0
C2053 C 0.24273 0.27511 0.84312 0.0
C2054 C 0.25302 0.30103 0.82068 0.0
C2055 C 0.27079 0.29116 0.81721 0.0
C2056 C 0.27418 0.27296 0.8264 0.0
C2057 C 0.26023 0.26494 0.83915 0.0
C2058 C 0.32046 0.30671 0.79806 0.0
C2059 C 0.31608 0.31222 0.77863 0.0
C2060 C 0.30563 0.30048 0.81073 0.0
C2061 C 0.28603 0.29984 0.80434 0.0
C2062 C 0.28138 0.30667 0.78539 0.0
C2063 C 0.29632 0.31277 0.77259 0.0
H2064 H 0.5488 0.58441 0.93099 0.0
H2065 H 0.50096 0.55021 0.95448 0.0
H2066 H 0.57027 0.57281 0.95754 0.0
H2067 H 0.52246 0.53816 0.98088 0.0
H2068 H 0.57871 0.50014 0.99889 0.0
H2069 H 0.55391 0.51541 0.97765 0.0
H2070 H 0.57346 0.57291 0.99604 0.0
H2071 H 0.59798 0.55774 0.01748 0.0
C2072 C 0.5428 0.57489 0.94226 0.0
C2073 C 0.52326 0.56844 0.941 0.0
C2074 C 0.55502 0.56819 0.95735 0.0
C2075 C 0.548 0.55451 0.97116 0.0
C2076 C 0.5282 0.54865 0.97036 0.0
C2077 C 0.51587 0.55571 0.95548 0.0
C2078 C 0.57759 0.51602 0.99849 0.0
C2079 C 0.59031 0.52775 0.00976 0.0
C2080 C 0.56333 0.52474 0.98648 0.0
C2081 C 0.56178 0.54532 0.98529 0.0
C2082 C 0.57437 0.55702 0.9967 0.0
C2083 C 0.58837 0.54832 0.00896 0.0
H2084 H 0.68896 0.30969 0.16538 0.0
H2085 H 0.67408 0.26626 0.20926 0.0
H2086 H 0.69994 0.33203 0.19116 0.0
H2087 H 0.68469 0.2889 0.23515 0.0
H2088 H 0.69286 0.34443 0.27548 0.0
H2089 H 0.67786 0.32309 0.2506 0.0
H2090 H 0.72947 0.32946 0.21418 0.0
H2091 H 0.7445 0.35059 0.23899 0.0
C2092 C 0.68783 0.30499 0.18054 0.0
C2093 C 0.68095 0.28605 0.18521 0.0
C2094 C 0.69413 0.31778 0.19529 0.0
C2095 C 0.69348 0.31205 0.21511 0.0
C2096 C 0.68535 0.29368 0.21996 0.0
C2097 C 0.67919 0.28075 0.20514 0.0
C2098 C 0.70098 0.34123 0.26216 0.0
C2099 C 0.71984 0.34918 0.25915 0.0
C2100 C 0.69242 0.32899 0.24798 0.0
C2101 C 0.70244 0.32476 0.23041 0.0
C2102 C 0.72131 0.33269 0.22747 0.0
C2103 C 0.72996 0.34467 0.24173 0.0
H2104 H 0.91297 0.43564 0.52038 0.0
H2105 H 0.91181 0.49135 0.4899 0.0
H2106 H 0.93361 0.42181 0.49421 0.0
H2107 H 0.93212 0.47748 0.46377 0.0
H2108 H 0.94747 0.43995 0.41076 0.0
H2109 H 0.9263 0.45002 0.43785 0.0
H2110 H 0.969 0.42838 0.47947 0.0
H2111 H 0.99061 0.41879 0.45233 0.0
C2112 C 0.91714 0.44491 0.50812 0.0
C2113 C 0.91075 0.46455 0.50712 0.0
C2114 C 0.92896 0.43701 0.49322 0.0
C2115 C 0.93426 0.44854 0.47693 0.0
C2116 C 0.92802 0.46821 0.47606 0.0
C2117 C 0.91651 0.47618 0.49107 0.0
C2118 C 0.95237 0.43727 0.42567 0.0
C2119 C 0.97093 0.42891 0.42935 0.0
C2120 C 0.94022 0.44302 0.44115 0.0
C2121 C 0.94619 0.44026 0.4607 0.0
C2122 C 0.96409 0.43067 0.46449 0.0
C2123 C 0.97641 0.4251 0.44894 0.0
H2124 H 0.75647 0.68557 0.75402 0.0
H2125 H 0.81467 0.66302 0.76582 0.0
H2126 H 0.77045 0.70943 0.731 0.0
H2127 H 0.82858 0.68673 0.74263 0.0
H2128 H 0.83335 0.70984 0.67631 0.0
H2129 H 0.82452 0.68971 0.70483 0.0
H2130 H 0.79441 0.73939 0.73047 0.0
H2131 H 0.80359 0.75954 0.70196 0.0
C2132 C 0.77223 0.68577 0.75173 0.0
C2133 C 0.78448 0.67238 0.76155 0.0
C2134 C 0.78024 0.69953 0.73874 0.0
C2135 C 0.80059 0.69992 0.73513 0.0
C2136 C 0.81285 0.6867 0.74517 0.0
C2137 C 0.80488 0.67317 0.75841 0.0
C2138 C 0.82545 0.71654 0.68841 0.0
C2139 C 0.81929 0.73618 0.68715 0.0
C2140 C 0.82037 0.70508 0.70466 0.0
C2141 C 0.80869 0.713 0.71975 0.0
C2142 C 0.80336 0.73295 0.71897 0.0
C2143 C 0.80878 0.74452 0.70284 0.0
H2144 H 0.60326 0.44887 0.49188 0.0
H2145 H 0.57538 0.50568 0.49734 0.0
H2146 H 0.57931 0.43484 0.51467 0.0
H2147 H 0.55105 0.4914 0.51994 0.0
H2148 H 0.50038 0.45012 0.54278 0.0
H2149 H 0.52324 0.46258 0.51769 0.0
H2150 H 0.57229 0.44268 0.55272 0.0
H2151 H 0.54938 0.43074 0.57794 0.0
C2152 C 0.59191 0.45832 0.49785 0.0
C2153 C 0.59119 0.47838 0.49294 0.0
C2154 C 0.57827 0.45028 0.5109 0.0
C2155 C 0.56338 0.46205 0.51896 0.0
C2156 C 0.56236 0.48204 0.51377 0.0
C2157 C 0.57631 0.49021 0.501 0.0
C2158 C 0.51604 0.44806 0.5448 0.0
C2159 C 0.52325 0.43925 0.56203 0.0
C2160 C 0.52906 0.45537 0.53065 0.0
C2161 C 0.54946 0.4536 0.53337 0.0
C2162 C 0.55661 0.44412 0.55027 0.0
C2163 C 0.5436 0.43724 0.56459 0.0
H2164 H 0.74925 0.35472 0.76888 0.0
H2165 H 0.80078 0.35072 0.73196 0.0
H2166 H 0.76497 0.33308 0.793 0.0
H2167 H 0.8163 0.32878 0.75594 0.0
H2168 H 0.82079 0.2708 0.79639 0.0
H2169 H 0.80875 0.29324 0.77094 0.0
H2170 H 0.79668 0.33705 0.8152 0.0
H2171 H 0.80937 0.31507 0.84051 0.0
C2172 C 0.76386 0.34912 0.76588 0.0
C2173 C 0.77384 0.35447 0.74863 0.0
C2174 C 0.77288 0.33684 0.7797 0.0
C2175 C 0.79188 0.32939 0.77633 0.0
C2176 C 0.80166 0.33433 0.75885 0.0
C2177 C 0.7928 0.34692 0.74521 0.0
C2178 C 0.81612 0.2854 0.80065 0.0
C2179 C 0.81578 0.29101 0.82057 0.0
C2180 C 0.80909 0.29818 0.78608 0.0
C2181 C 0.80143 0.31667 0.79122 0.0
C2182 C 0.80213 0.3227 0.81092 0.0
C2183 C 0.80942 0.31011 0.82539 0.0
H2184 H 0.90907 0.50905 0.00929 0.0
H2185 H 0.9174 0.55827 0.97 0.0
H2186 H 0.93161 0.5241 0.03286 0.0
H2187 H 0.94039 0.57314 0.99358 0.0
H2188 H 0.9984 0.57031 0.03805 0.0
H2189 H 0.97602 0.56099 0.01126 0.0
H2190 H 0.92771 0.55918 0.05233 0.0
H2191 H 0.94977 0.56903 0.07885 0.0
C2192 C 0.91589 0.52297 0.00561 0.0
C2193 C 0.91142 0.53256 0.9879 0.0
C2194 C 0.92868 0.53161 0.01911 0.0
C2195 C 0.93754 0.54981 0.01501 0.0
C2196 C 0.93368 0.55911 0.99701 0.0
C2197 C 0.92053 0.55064 0.98362 0.0
C2198 C 0.98289 0.56863 0.04118 0.0
C2199 C 0.97585 0.57011 0.06057 0.0
C2200 C 0.97015 0.56319 0.02591 0.0
C2201 C 0.95031 0.55904 0.02993 0.0
C2202 C 0.94303 0.56202 0.04898 0.0
C2203 C 0.95563 0.56766 0.0641 0.0
H2204 H 0.67946 0.7391 0.28584 0.0
H2205 H 0.68785 0.69738 0.33319 0.0
H2206 H 0.68939 0.71418 0.26225 0.0
H2207 H 0.69861 0.67283 0.30943 0.0
H2208 H 0.74471 0.65019 0.26259 0.0
H2209 H 0.73014 0.67275 0.28656 0.0
H2210 H 0.67888 0.67901 0.24967 0.0
H2211 H 0.69325 0.65619 0.22583 0.0
C2212 C 0.6831 0.72464 0.29132 0.0
C2213 C 0.68321 0.72053 0.31164 0.0
C2214 C 0.68887 0.71036 0.27771 0.0
C2215 C 0.69505 0.69175 0.2841 0.0
C2216 C 0.69424 0.68724 0.3042 0.0
C2217 C 0.68815 0.70138 0.31779 0.0
C2218 C 0.73031 0.65635 0.25965 0.0
C2219 C 0.7201 0.65148 0.24238 0.0
C2220 C 0.72194 0.66911 0.2734 0.0
C2221 C 0.70338 0.6775 0.26994 0.0
C2222 C 0.69321 0.67272 0.25263 0.0
C2223 C 0.70142 0.65966 0.23906 0.0
H2224 H 0.93117 0.53974 0.57825 0.0
H2225 H 0.96126 0.4939 0.54642 0.0
H2226 H 0.95504 0.56389 0.56604 0.0
H2227 H 0.98496 0.51799 0.53398 0.0
H2228 H 0.00092 0.57362 0.49545 0.0
H2229 H 0.97996 0.5482 0.51012 0.0
H2230 H 0.99295 0.57078 0.56801 0.0
H2231 H 0.01408 0.59592 0.55347 0.0
C2232 C 0.94316 0.53485 0.56899 0.0
C2233 C 0.94458 0.51502 0.56347 0.0
C2234 C 0.95674 0.54858 0.56198 0.0
C2235 C 0.97171 0.54274 0.54899 0.0
C2236 C 0.97346 0.52282 0.54389 0.0
C2237 C 0.9601 0.50904 0.5512 0.0
C2238 C 0.9993 0.57309 0.51129 0.0
C2239 C 0.00907 0.58671 0.52333 0.0
C2240 C 0.98745 0.55851 0.51967 0.0
C2241 C 0.98493 0.55758 0.54018 0.0
C2242 C 0.99464 0.57125 0.55217 0.0
C2243 C 0.00674 0.58557 0.54384 0.0
H2244 H 0.67184 0.76039 0.74685 0.0
H2245 H 0.64927 0.77216 0.80506 0.0
H2246 H 0.6968 0.73854 0.76106 0.0
H2247 H 0.67388 0.75002 0.81913 0.0
H2248 H 0.70361 0.68662 0.82642 0.0
H2249 H 0.67982 0.71105 0.8145 0.0
H2250 H 0.72693 0.7432 0.78662 0.0
H2251 H 0.75066 0.719 0.79891 0.0
C2252 C 0.67222 0.75827 0.76264 0.0
C2253 C 0.65866 0.76788 0.77488 0.0
C2254 C 0.68651 0.74591 0.77075 0.0
C2255 C 0.68716 0.74268 0.79115 0.0
C2256 C 0.67359 0.75227 0.80336 0.0
C2257 C 0.6596 0.76495 0.79531 0.0
C2258 C 0.70881 0.69917 0.81811 0.0
C2259 C 0.72887 0.70118 0.8138 0.0
C2260 C 0.6953 0.71306 0.81129 0.0
C2261 C 0.70163 0.72889 0.79963 0.0
C2262 C 0.72174 0.73107 0.79555 0.0
C2263 C 0.73529 0.71741 0.80274 0.0
H2264 H 0.5441 0.48671 0.07052 0.0
H2265 H 0.58724 0.44115 0.06093 0.0
H2266 H 0.518 0.46399 0.06042 0.0
H2267 H 0.56132 0.4187 0.05046 0.0
H2268 H 0.51523 0.3988 0.00455 0.0
H2269 H 0.53983 0.42037 0.01938 0.0
H2270 H 0.50148 0.43032 0.069 0.0
H2271 H 0.47686 0.40854 0.05425 0.0
C2272 C 0.54796 0.47174 0.06675 0.0
C2273 C 0.56775 0.46578 0.06625 0.0
C2274 C 0.53305 0.45878 0.06087 0.0
C2275 C 0.53774 0.43975 0.05429 0.0
C2276 C 0.55736 0.43343 0.05506 0.0
C2277 C 0.57216 0.44625 0.06109 0.0
C2278 C 0.51203 0.4056 0.0186 0.0
C2279 C 0.49418 0.40195 0.02827 0.0
C2280 C 0.52614 0.41784 0.02714 0.0
C2281 C 0.52258 0.42688 0.0454 0.0
C2282 C 0.50457 0.42354 0.05491 0.0
C2283 C 0.49056 0.41104 0.0465 0.0
H2284 H 0.75242 0.29588 0.30929 0.0
H2285 H 0.80261 0.33237 0.32221 0.0
H2286 H 0.77447 0.26905 0.2993 0.0
H2287 H 0.8247 0.3054 0.31279 0.0
H2288 H 0.85435 0.24273 0.31105 0.0
H2289 H 0.83128 0.267 0.32448 0.0
H2290 H 0.80129 0.26939 0.26862 0.0
H2291 H 0.82467 0.24556 0.25498 0.0
C2292 C 0.76817 0.2979 0.3105 0.0
C2293 C 0.77592 0.31604 0.31662 0.0
C2294 C 0.78073 0.28269 0.30465 0.0
C2295 C 0.80121 0.28526 0.3053 0.0
C2296 C 0.80895 0.30307 0.31229 0.0
C2297 C 0.79639 0.31843 0.31766 0.0
C2298 C 0.84277 0.24841 0.30169 0.0
C2299 C 0.84131 0.24242 0.28197 0.0
C2300 C 0.82965 0.26226 0.30935 0.0
C2301 C 0.81454 0.26992 0.29757 0.0
C2302 C 0.81276 0.26356 0.278 0.0
C2303 C 0.82618 0.25008 0.27019 0.0
H2304 H 0.91967 0.44843 0.92593 0.0
H2305 H 0.95812 0.49599 0.94278 0.0
H2306 H 0.94434 0.42456 0.93715 0.0
H2307 H 0.98258 0.47225 0.95423 0.0
H2308 H 0.00326 0.42302 0.99804 0.0
H2309 H 0.97993 0.44646 0.98378 0.0
H2310 H 0.98178 0.41498 0.92869 0.0
H2311 H 0.00541 0.39175 0.94277 0.0
C2312 C 0.93355 0.45369 0.9317 0.0
C2313 C 0.93713 0.47395 0.93335 0.0
C2314 C 0.94758 0.44012 0.93811 0.0
C2315 C 0.9652 0.44667 0.94664 0.0
C2316 C 0.96902 0.46691 0.94779 0.0
C2317 C 0.95516 0.48044 0.94105 0.0
C2318 C 0.99861 0.42109 0.98292 0.0
C2319 C 0.00607 0.40563 0.97148 0.0
C2320 C 0.98541 0.43453 0.97475 0.0
C2321 C 0.97921 0.43248 0.95515 0.0
C2322 C 0.98638 0.4168 0.94383 0.0
C2323 C 0.99988 0.40359 0.95187 0.0
H2324 H 0.79727 0.6703 0.17327 0.0
H2325 H 0.74736 0.70429 0.19248 0.0
H2326 H 0.81926 0.69762 0.1818 0.0
H2327 H 0.76936 0.73151 0.20152 0.0
H2328 H 0.82174 0.7559 0.24192 0.0
H2329 H 0.79783 0.73209 0.22923 0.0
H2330 H 0.8248 0.73548 0.17188 0.0
H2331 H 0.84842 0.75964 0.18441 0.0
C2332 C 0.79105 0.68382 0.17896 0.0
C2333 C 0.77071 0.68537 0.18205 0.0
C2334 C 0.80356 0.69938 0.18384 0.0
C2335 C 0.79596 0.71659 0.19236 0.0
C2336 C 0.77554 0.71835 0.195 0.0
C2337 C 0.76298 0.70293 0.18967 0.0
C2338 C 0.82247 0.75163 0.22659 0.0
C2339 C 0.83694 0.75953 0.21415 0.0
C2340 C 0.80873 0.73815 0.21931 0.0
C2341 C 0.8095 0.73204 0.19958 0.0
C2342 C 0.82392 0.73999 0.18714 0.0
C2343 C 0.83738 0.7538 0.1943 0.0
H2344 H 0.49807 0.57996 0.50042 0.0
H2345 H 0.49217 0.60901 0.44426 0.0
H2346 H 0.52112 0.55645 0.48576 0.0
H2347 H 0.51549 0.58574 0.42974 0.0
H2348 H 0.57892 0.55597 0.42476 0.0
H2349 H 0.553 0.57847 0.43588 0.0
H2350 H 0.51987 0.52912 0.45817 0.0
H2351 H 0.54569 0.50667 0.44665 0.0
C2352 C 0.50177 0.58137 0.48499 0.0
C2353 C 0.49341 0.59634 0.47349 0.0
C2354 C 0.51481 0.56784 0.47658 0.0
C2355 C 0.51999 0.56927 0.45661 0.0
C2356 C 0.51174 0.58433 0.44516 0.0
C2357 C 0.49841 0.59761 0.45347 0.0
C2358 C 0.56581 0.54999 0.43154 0.0
C2359 C 0.56409 0.52966 0.43461 0.0
C2360 C 0.55105 0.56279 0.43794 0.0
C2361 C 0.53452 0.5555 0.44797 0.0
C2362 C 0.53253 0.53509 0.45055 0.0
C2363 C 0.54712 0.52226 0.44376 0.0
H2364 H 0.67248 0.25741 0.75172 0.0
H2365 H 0.6511 0.24403 0.69341 0.0
H2366 H 0.69717 0.2795 0.73748 0.0
H2367 H 0.67551 0.26633 0.67929 0.0
H2368 H 0.70141 0.33161 0.67264 0.0
H2369 H 0.6796 0.30471 0.68268 0.0
H2370 H 0.72788 0.27718 0.71334 0.0
H2371 H 0.74972 0.30397 0.70284 0.0
C2372 C 0.67308 0.25919 0.7359 0.0
C2373 C 0.65985 0.24912 0.72367 0.0
C2374 C 0.68728 0.27166 0.72776 0.0
C2375 C 0.68824 0.27449 0.7073 0.0
C2376 C 0.67506 0.26435 0.69509 0.0
C2377 C 0.66112 0.25163 0.70319 0.0
C2378 C 0.7074 0.31941 0.68092 0.0
C2379 C 0.72717 0.31958 0.68676 0.0
C2380 C 0.69499 0.30412 0.68673 0.0
C2381 C 0.70208 0.289 0.69888 0.0
C2382 C 0.72209 0.28873 0.70404 0.0
C2383 C 0.7346 0.30385 0.69785 0.0
H2384 H 0.57513 0.95893 0.50914 0.0
H2385 H 0.56532 0.91606 0.55496 0.0
H2386 H 0.56703 0.98533 0.5322 0.0
H2387 H 0.55682 0.94237 0.57779 0.0
H2388 H 0.51256 0.99005 0.59788 0.0
H2389 H 0.52632 0.9649 0.57633 0.0
H2390 H 0.57714 0.00146 0.56575 0.0
H2391 H 0.56343 0.0267 0.58755 0.0
C2392 C 0.57176 0.95517 0.52422 0.0
C2393 C 0.57054 0.9354 0.53017 0.0
C2394 C 0.56704 0.97026 0.53738 0.0
C2395 C 0.56095 0.96578 0.55661 0.0
C2396 C 0.5611 0.94615 0.56291 0.0
C2397 C 0.56596 0.93113 0.54986 0.0
C2398 C 0.52664 0.99275 0.59095 0.0
C2399 C 0.53696 0.01027 0.59441 0.0
C2400 C 0.53458 0.97831 0.57875 0.0
C2401 C 0.55286 0.98122 0.56958 0.0
C2402 C 0.56303 0.9989 0.5727 0.0
C2403 C 0.55521 0.01326 0.58517 0.0
H2404 H 0.05609 0.46941 0.41203 0.0
H2405 H 0.00701 0.50789 0.4 0.0
H2406 H 0.07011 0.49425 0.43411 0.0
H2407 H 0.02115 0.53269 0.42177 0.0
H2408 H 0.06386 0.5802 0.44097 0.0
H2409 H 0.05345 0.55345 0.4195 0.0
H2410 H 0.0599 0.51234 0.46738 0.0
H2411 H 0.0698 0.53927 0.48917 0.0
C2412 C 0.04827 0.48312 0.41418 0.0
C2413 C 0.03048 0.48676 0.40427 0.0
C2414 C 0.05628 0.49726 0.42681 0.0
C2415 C 0.0468 0.51541 0.42943 0.0
C2416 C 0.02886 0.51889 0.41979 0.0
C2417 C 0.02071 0.50466 0.40745 0.0
C2418 C 0.06323 0.56544 0.4469 0.0
C2419 C 0.06734 0.56194 0.46686 0.0
C2420 C 0.05725 0.55016 0.43462 0.0
C2421 C 0.05555 0.53095 0.44192 0.0
C2422 C 0.06108 0.52707 0.46144 0.0
C2423 C 0.06686 0.54247 0.47386 0.0
H2424 H 0.66659 0.82144 0.68841 0.0
H2425 H 0.70376 0.80478 0.73701 0.0
H2426 H 0.69083 0.8079 0.66527 0.0
H2427 H 0.7278 0.79107 0.71403 0.0
H2428 H 0.75132 0.74704 0.66704 0.0
H2429 H 0.72713 0.76158 0.68945 0.0
H2430 H 0.72745 0.81502 0.65522 0.0
H2431 H 0.75187 0.80065 0.63301 0.0
C2432 C 0.68004 0.81507 0.69407 0.0
C2433 C 0.68344 0.8144 0.71443 0.0
C2434 C 0.69387 0.80734 0.6809 0.0
C2435 C 0.71114 0.79838 0.6879 0.0
C2436 C 0.71457 0.7978 0.70826 0.0
C2437 C 0.70094 0.80585 0.72138 0.0
C2438 C 0.74614 0.76185 0.66425 0.0
C2439 C 0.75346 0.77272 0.64829 0.0
C2440 C 0.73241 0.7702 0.67713 0.0
C2441 C 0.72547 0.78943 0.67406 0.0
C2442 C 0.73249 0.80014 0.65786 0.0
C2443 C 0.74649 0.79193 0.64521 0.0
H2444 H 0.43411 0.45759 0.98889 0.0
H2445 H 0.44863 0.41443 0.94456 0.0
H2446 H 0.44606 0.4837 0.96713 0.0
H2447 H 0.4612 0.44037 0.92335 0.0
H2448 H 0.5061 0.48878 0.90589 0.0
H2449 H 0.4916 0.46405 0.92772 0.0
H2450 H 0.43842 0.49845 0.93163 0.0
H2451 H 0.45274 0.52301 0.90955 0.0
C2452 C 0.43954 0.45366 0.97446 0.0
C2453 C 0.44069 0.43384 0.96864 0.0
C2454 C 0.4465 0.4686 0.96207 0.0
C2455 C 0.45491 0.46394 0.94377 0.0
C2456 C 0.4552 0.44429 0.93758 0.0
C2457 C 0.448 0.42945 0.94977 0.0
C2458 C 0.49136 0.49107 0.91147 0.0
C2459 C 0.48049 0.50771 0.90594 0.0
C2460 C 0.48305 0.47692 0.92387 0.0
C2461 C 0.46387 0.47935 0.93125 0.0
C2462 C 0.45323 0.49627 0.92617 0.0
C2463 C 0.4614 0.51023 0.91348 0.0
H2464 H 0.25769 0.74499 0.65542 0.0
H2465 H 0.22171 0.69332 0.66374 0.0
H2466 H 0.28253 0.73122 0.67749 0.0
H2467 H 0.24646 0.67972 0.68614 0.0
H2468 H 0.2867 0.68017 0.74371 0.0
H2469 H 0.26135 0.69033 0.7206 0.0
H2470 H 0.30549 0.69989 0.67608 0.0
H2471 H 0.33092 0.68892 0.69877 0.0
C2472 C 0.25504 0.73076 0.66207 0.0
C2473 C 0.2378 0.72021 0.65787 0.0
C2474 C 0.2693 0.72284 0.67456 0.0
C2475 C 0.26641 0.70438 0.68338 0.0
C2476 C 0.249 0.69399 0.67951 0.0
C2477 C 0.2349 0.70175 0.66669 0.0
C2478 C 0.29111 0.68396 0.72893 0.0
C2479 C 0.31108 0.68402 0.72336 0.0
C2480 C 0.27651 0.68988 0.7157 0.0
C2481 C 0.28155 0.69618 0.69671 0.0
C2482 C 0.30129 0.69543 0.6908 0.0
C2483 C 0.31585 0.68921 0.70387 0.0
H2484 H 0.92473 0.07929 0.05302 0.0
H2485 H 0.9435 0.04692 0.00188 0.0
H2486 H 0.93635 0.0526 0.07428 0.0
H2487 H 0.95554 0.02029 0.0231 0.0
H2488 H 0.99991 0.9972 0.07213 0.0
H2489 H 0.98449 0.02043 0.04925 0.0
H2490 H 0.92966 0.01517 0.08081 0.0
H2491 H 0.9449 0.99177 0.10344 0.0
C2492 C 0.93093 0.0662 0.04639 0.0
C2493 C 0.93302 0.06495 0.02591 0.0
C2494 C 0.93762 0.051 0.05848 0.0
C2495 C 0.94692 0.03448 0.05029 0.0
C2496 C 0.94848 0.03294 0.02974 0.0
C2497 C 0.94141 0.04799 0.01763 0.0
C2498 C 0.98457 0.00099 0.07412 0.0
C2499 C 0.97362 0.9928 0.08959 0.0
C2500 C 0.97571 0.01412 0.06096 0.0
C2501 C 0.95589 0.01951 0.0633 0.0
C2502 C 0.94497 0.01126 0.07874 0.0
C2503 C 0.95369 0.99788 0.09164 0.0
H2504 H 0.66935 0.19334 0.80513 0.0
H2505 H 0.70975 0.18967 0.75627 0.0
H2506 H 0.69591 0.20486 0.82629 0.0
H2507 H 0.73656 0.20067 0.77775 0.0
H2508 H 0.77892 0.20534 0.83451 0.0
H2509 H 0.75506 0.19061 0.81184 0.0
H2510 H 0.7152 0.23878 0.82267 0.0
H2511 H 0.73905 0.25368 0.84502 0.0
C2512 C 0.68399 0.19466 0.79902 0.0
C2513 C 0.68739 0.19092 0.77897 0.0
C2514 C 0.69914 0.20128 0.81109 0.0
C2515 C 0.7181 0.20399 0.80348 0.0
C2516 C 0.72198 0.19875 0.78388 0.0
C2517 C 0.70669 0.19232 0.77166 0.0
C2518 C 0.76515 0.21288 0.83184 0.0
C2519 C 0.76076 0.2306 0.84157 0.0
C2520 C 0.75157 0.20447 0.81888 0.0
C2521 C 0.73329 0.21348 0.81577 0.0
C2522 C 0.72915 0.23146 0.82505 0.0
C2523 C 0.74283 0.24004 0.83772 0.0
H2524 H 0.76066 0.75889 0.34016 0.0
H2525 H 0.71986 0.80577 0.32703 0.0
H2526 H 0.78429 0.77305 0.31698 0.0
H2527 H 0.74339 0.81968 0.30354 0.0
H2528 H 0.78508 0.81647 0.24635 0.0
H2529 H 0.76014 0.80651 0.27007 0.0
H2530 H 0.80343 0.80771 0.31639 0.0
H2531 H 0.82832 0.81856 0.29297 0.0
C2532 C 0.7567 0.7721 0.33218 0.0
C2533 C 0.73851 0.78128 0.33536 0.0
C2534 C 0.77023 0.78026 0.31908 0.0
C2535 C 0.76562 0.7975 0.30868 0.0
C2536 C 0.74723 0.80639 0.31145 0.0
C2537 C 0.73385 0.79846 0.32486 0.0
C2538 C 0.78927 0.8152 0.26163 0.0
C2539 C 0.8089 0.818 0.26763 0.0
C2540 C 0.77495 0.80937 0.27518 0.0
C2541 C 0.78004 0.80601 0.29488 0.0
C2542 C 0.7993 0.80985 0.30115 0.0
C2543 C 0.81351 0.81602 0.28771 0.0
H2544 H 0.16705 0.10291 0.28556 0.0
H2545 H 0.1884 0.06249 0.32964 0.0
H2546 H 0.13333 0.09278 0.29267 0.0
H2547 H 0.15476 0.05292 0.33725 0.0
H2548 H 0.09272 0.02811 0.33599 0.0
H2549 H 0.12603 0.03589 0.32513 0.0
H2550 H 0.10975 0.09698 0.31905 0.0
H2551 H 0.07653 0.08922 0.32988 0.0
C2552 C 0.16458 0.09172 0.29662 0.0
C2553 C 0.18046 0.08361 0.3071 0.0
C2554 C 0.14522 0.08608 0.30087 0.0
C2555 C 0.14127 0.07212 0.31565 0.0
C2556 C 0.1572 0.06358 0.32568 0.0
C2557 C 0.17652 0.06924 0.32146 0.0
C2558 C 0.09626 0.04321 0.3324 0.0
C2559 C 0.08189 0.05803 0.33387 0.0
C2560 C 0.11537 0.04768 0.32614 0.0
C2561 C 0.12063 0.06708 0.32121 0.0
C2562 C 0.10618 0.08182 0.32239 0.0
C2563 C 0.08709 0.07736 0.32863 0.0
H2564 H 0.15464 0.82477 0.60057 0.0
H2565 H 0.21379 0.83089 0.57788 0.0
H2566 H 0.14702 0.85786 0.58952 0.0
H2567 H 0.20624 0.86461 0.56792 0.0
H2568 H 0.18586 0.93145 0.57924 0.0
H2569 H 0.19559 0.89757 0.58697 0.0
H2570 H 0.14531 0.87587 0.55494 0.0
H2571 H 0.13579 0.9097 0.5469 0.0
C2572 C 0.16602 0.83297 0.59307 0.0
C2573 C 0.18483 0.8248 0.58996 0.0
C2574 C 0.16162 0.85206 0.58685 0.0
C2575 C 0.17599 0.86374 0.57776 0.0
C2576 C 0.1949 0.8559 0.57495 0.0
C2577 C 0.19923 0.8366 0.58081 0.0
C2578 C 0.17705 0.9194 0.57367 0.0
C2579 C 0.16009 0.92317 0.56246 0.0
C2580 C 0.18266 0.90006 0.57802 0.0
C2581 C 0.17116 0.88414 0.5716 0.0
C2582 C 0.15438 0.8879 0.56012 0.0
C2583 C 0.14901 0.90721 0.55543 0.0
H2584 H 0.31889 0.92892 0.79538 0.0
H2585 H 0.3241 0.8799 0.83537 0.0
H2586 H 0.35245 0.93926 0.80381 0.0
H2587 H 0.35742 0.89019 0.84379 0.0
H2588 H 0.42326 0.90302 0.8384 0.0
H2589 H 0.39054 0.89294 0.82753 0.0
H2590 H 0.36981 0.95254 0.83446 0.0
H2591 H 0.40265 0.96269 0.84522 0.0
C2592 C 0.32728 0.9203 0.80583 0.0
C2593 C 0.3189 0.90368 0.81479 0.0
C2594 C 0.34637 0.92628 0.81076 0.0
C2595 C 0.35753 0.91554 0.82448 0.0
C2596 C 0.34925 0.89868 0.83307 0.0
C2597 C 0.33013 0.89288 0.82836 0.0
C2598 C 0.41175 0.914 0.83747 0.0
C2599 C 0.4155 0.93363 0.84273 0.0
C2600 C 0.39301 0.90821 0.83136 0.0
C2601 C 0.37762 0.92195 0.83016 0.0
C2602 C 0.38142 0.94166 0.8351 0.0
C2603 C 0.40014 0.94742 0.84145 0.0
H2604 H 0.35809 0.07215 0.09296 0.0
H2605 H 0.32545 0.07699 0.03863 0.0
H2606 H 0.34836 0.1051 0.10191 0.0
H2607 H 0.31681 0.11086 0.04703 0.0
H2608 H 0.289 0.16444 0.07821 0.0
H2609 H 0.29725 0.13089 0.06845 0.0
H2610 H 0.35493 0.13777 0.09424 0.0
H2611 H 0.34624 0.17041 0.10524 0.0
C2612 C 0.34877 0.08021 0.08288 0.0
C2613 C 0.34239 0.07169 0.06513 0.0
C2614 C 0.34345 0.09936 0.08789 0.0
C2615 C 0.33189 0.11084 0.07516 0.0
C2616 C 0.32557 0.10243 0.05731 0.0
C2617 C 0.33074 0.08308 0.05236 0.0
C2618 C 0.30335 0.15869 0.08202 0.0
C2619 C 0.31692 0.17027 0.09254 0.0
C2620 C 0.3082 0.13952 0.07616 0.0
C2621 C 0.32675 0.13148 0.0806 0.0
C2622 C 0.34036 0.14322 0.09083 0.0
C2623 C 0.33547 0.1622 0.09687 0.0
H2624 H 0.0928 0.93405 0.12567 0.0
H2625 H 0.07479 0.94214 0.18608 0.0
H2626 H 0.1254 0.92408 0.13678 0.0
H2627 H 0.10731 0.93193 0.19715 0.0
H2628 H 0.1593 0.88919 0.20804 0.0
H2629 H 0.1272 0.90153 0.19784 0.0
H2630 H 0.15501 0.93707 0.15316 0.0
H2631 H 0.18712 0.92495 0.16347 0.0
C2632 C 0.09585 0.93395 0.1413 0.0
C2633 C 0.08109 0.9388 0.15496 0.0
C2634 C 0.11454 0.9282 0.14767 0.0
C2635 C 0.11892 0.92711 0.16786 0.0
C2636 C 0.1043 0.93229 0.18151 0.0
C2637 C 0.08564 0.93812 0.17515 0.0
C2638 C 0.15862 0.89985 0.19624 0.0
C2639 C 0.17582 0.90599 0.18653 0.0
C2640 C 0.1402 0.90691 0.19037 0.0
C2641 C 0.13855 0.92022 0.17462 0.0
C2642 C 0.15576 0.92658 0.16512 0.0
C2643 C 0.17416 0.9196 0.17103 0.0
H2644 H 0.3364 0.81147 0.42503 0.0
H2645 H 0.2896 0.83709 0.3905 0.0
H2646 H 0.34546 0.844 0.43689 0.0
H2647 H 0.29796 0.86947 0.40323 0.0
H2648 H 0.33243 0.92646 0.41208 0.0
H2649 H 0.32295 0.89397 0.40043 0.0
H2650 H 0.3346 0.86993 0.45811 0.0
H2651 H 0.34443 0.90247 0.46964 0.0
C2652 C 0.32803 0.82403 0.41995 0.0
C2653 C 0.3123 0.82162 0.40673 0.0
C2654 C 0.33305 0.84268 0.42699 0.0
C2655 C 0.32243 0.85939 0.42106 0.0
C2656 C 0.30662 0.85697 0.40794 0.0
C2657 C 0.30166 0.83834 0.40082 0.0
C2658 C 0.33278 0.91426 0.42232 0.0
C2659 C 0.33917 0.91703 0.44178 0.0
C2660 C 0.32731 0.89562 0.41565 0.0
C2661 C 0.32798 0.87929 0.42832 0.0
C2662 C 0.33421 0.88211 0.44786 0.0
C2663 C 0.33981 0.90076 0.45449 0.0
H2664 H 0.34642 0.08591 0.72084 0.0
H2665 H 0.32767 0.08211 0.66027 0.0
H2666 H 0.37984 0.07685 0.711 0.0
H2667 H 0.36089 0.07275 0.65054 0.0
H2668 H 0.42668 0.08291 0.63866 0.0
H2669 H 0.39308 0.08977 0.64901 0.0
H2670 H 0.39929 0.04854 0.6969 0.0
H2671 H 0.43321 0.04182 0.68662 0.0
C2672 C 0.34941 0.08309 0.70545 0.0
C2673 C 0.33439 0.08479 0.69133 0.0
C2674 C 0.3685 0.07772 0.69985 0.0
C2675 C 0.37301 0.07415 0.67999 0.0
C2676 C 0.35792 0.07559 0.66594 0.0
C2677 C 0.33885 0.08078 0.67154 0.0
C2678 C 0.42092 0.07536 0.65145 0.0
C2679 C 0.43263 0.0619 0.66189 0.0
C2680 C 0.4016 0.07915 0.65727 0.0
C2681 C 0.3935 0.06968 0.67376 0.0
C2682 C 0.40517 0.05617 0.68421 0.0
C2683 C 0.42451 0.0522 0.67825 0.0
H2684 H 0.21564 0.17334 0.93818 0.0
H2685 H 0.16562 0.16986 0.89915 0.0
H2686 H 0.20742 0.14085 0.9514 0.0
H2687 H 0.15738 0.13775 0.91244 0.0
H2688 H 0.13531 0.09094 0.95354 0.0
H2689 H 0.14496 0.12386 0.94332 0.0
H2690 H 0.20575 0.1056 0.94141 0.0
H2691 H 0.19615 0.07269 0.95226 0.0
C2692 C 0.20299 0.16562 0.93233 0.0
C2693 C 0.19116 0.17434 0.91777 0.0
C2694 C 0.19826 0.14704 0.93994 0.0
C2695 C 0.18158 0.13684 0.93317 0.0
C2696 C 0.17004 0.14541 0.91834 0.0
C2697 C 0.17478 0.16386 0.91071 0.0
C2698 C 0.15078 0.09401 0.95135 0.0
C2699 C 0.16494 0.07912 0.95367 0.0
C2700 C 0.15629 0.11283 0.94524 0.0
C2701 C 0.1761 0.11728 0.94131 0.0
C2702 C 0.19038 0.10265 0.94436 0.0
C2703 C 0.18485 0.08375 0.95041 0.0
H2704 H 0.07541 0.33081 0.18191 0.0
H2705 H 0.1267 0.30381 0.15604 0.0
H2706 H 0.06477 0.34188 0.14927 0.0
H2707 H 0.11628 0.31526 0.12344 0.0
H2708 H 0.09955 0.36226 0.07509 0.0
H2709 H 0.11026 0.35128 0.10748 0.0
H2710 H 0.05463 0.32215 0.11625 0.0
H2711 H 0.04416 0.332 0.08341 0.0
C2712 C 0.08444 0.32739 0.16923 0.0
C2713 C 0.10183 0.31648 0.17138 0.0
C2714 C 0.07833 0.33362 0.15063 0.0
C2715 C 0.08974 0.3294 0.13395 0.0
C2716 C 0.1073 0.31875 0.13613 0.0
C2717 C 0.11319 0.31215 0.15469 0.0
C2718 C 0.08966 0.35322 0.08367 0.0
C2719 C 0.07096 0.34797 0.07642 0.0
C2720 C 0.09579 0.34708 0.1023 0.0
C2721 C 0.08324 0.33592 0.11426 0.0
C2722 C 0.06449 0.33091 0.1073 0.0
C2723 C 0.05848 0.3367 0.08852 0.0
H2724 H 0.58111 0.14173 0.91786 0.0
H2725 H 0.5398 0.18957 0.92382 0.0
H2726 H 0.58987 0.15331 0.88506 0.0
H2727 H 0.54841 0.20105 0.89077 0.0
H2728 H 0.58702 0.22668 0.84 0.0
H2729 H 0.57732 0.21577 0.87293 0.0
H2730 H 0.57435 0.15585 0.85215 0.0
H2731 H 0.5843 0.16665 0.81944 0.0
C2732 C 0.57394 0.15476 0.91218 0.0
C2733 C 0.55979 0.16475 0.92347 0.0
C2734 C 0.57883 0.1613 0.89331 0.0
C2735 C 0.56981 0.17809 0.88529 0.0
C2736 C 0.55571 0.18815 0.89659 0.0
C2737 C 0.55066 0.18148 0.91543 0.0
C2738 C 0.58432 0.21118 0.84249 0.0
C2739 C 0.58643 0.19754 0.82708 0.0
C2740 C 0.57861 0.20496 0.8613 0.0
C2741 C 0.57512 0.18493 0.86517 0.0
C2742 C 0.57711 0.17135 0.84971 0.0
C2743 C 0.58262 0.17758 0.83091 0.0
H2744 H 0.91847 0.78755 0.32464 0.0
H2745 H 0.89035 0.84419 0.31771 0.0
H2746 H 0.92826 0.79674 0.35803 0.0
H2747 H 0.90106 0.85351 0.3505 0.0
H2748 H 0.94409 0.86995 0.4007 0.0
H2749 H 0.93507 0.85932 0.36747 0.0
H2750 H 0.91018 0.80599 0.39121 0.0
H2751 H 0.91897 0.81675 0.4245 0.0
C2752 C 0.91429 0.80189 0.33015 0.0
C2753 C 0.90375 0.81515 0.31822 0.0
C2754 C 0.92002 0.80717 0.34925 0.0
C2755 C 0.91561 0.82592 0.35674 0.0
C2756 C 0.90498 0.8391 0.34496 0.0
C2757 C 0.89896 0.83373 0.32607 0.0
C2758 C 0.93682 0.85591 0.39878 0.0
C2759 C 0.93217 0.8442 0.41516 0.0
C2760 C 0.93158 0.84988 0.37982 0.0
C2761 C 0.92191 0.83185 0.3768 0.0
C2762 C 0.91771 0.8199 0.39312 0.0
C2763 C 0.92262 0.82611 0.41213 0.0
H2764 H 0.92894 0.16769 0.18426 0.0
H2765 H 0.8906 0.21344 0.16258 0.0
H2766 H 0.93936 0.16052 0.15074 0.0
H2767 H 0.90159 0.20675 0.12908 0.0
H2768 H 0.90759 0.17211 0.0709 0.0
H2769 H 0.89815 0.1815 0.10416 0.0
H2770 H 0.95814 0.17355 0.12345 0.0
H2771 H 0.9676 0.16417 0.09015 0.0
C2772 C 0.92276 0.17627 0.17236 0.0
C2773 C 0.90884 0.1911 0.17618 0.0
C2774 C 0.92893 0.17231 0.15312 0.0
C2775 C 0.92133 0.18304 0.13714 0.0
C2776 C 0.9076 0.19804 0.14098 0.0
C2777 C 0.90147 0.20204 0.16024 0.0
C2778 C 0.91885 0.17265 0.08215 0.0
C2779 C 0.93836 0.1673 0.07778 0.0
C2780 C 0.91342 0.17804 0.10127 0.0
C2781 C 0.92735 0.17822 0.11657 0.0
C2782 C 0.94694 0.17324 0.11213 0.0
C2783 C 0.95237 0.16786 0.093 0.0
H2784 H 0.43197 0.70903 0.67612 0.0
H2785 H 0.38407 0.6676 0.67182 0.0
H2786 H 0.44208 0.7007 0.64243 0.0
H2787 H 0.3941 0.65932 0.63839 0.0
H2788 H 0.40525 0.66495 0.5724 0.0
H2789 H 0.39569 0.6757 0.60528 0.0
H2790 H 0.45589 0.67028 0.62466 0.0
H2791 H 0.46554 0.6596 0.5916 0.0
C2792 C 0.42355 0.69828 0.66792 0.0
C2793 C 0.4073 0.6889 0.67658 0.0
C2794 C 0.4294 0.69341 0.64874 0.0
C2795 C 0.41889 0.67934 0.6378 0.0
C2796 C 0.40241 0.6703 0.64638 0.0
C2797 C 0.39675 0.67496 0.66556 0.0
C2798 C 0.41648 0.6662 0.58362 0.0
C2799 C 0.43614 0.66139 0.57941 0.0
C2800 C 0.41098 0.67224 0.60248 0.0
C2801 C 0.42503 0.67381 0.61755 0.0
C2802 C 0.44477 0.66934 0.61329 0.0
C2803 C 0.45025 0.66304 0.59444 0.0
H2804 H 0.02662 0.66293 0.40778 0.0
H2805 H 0.08731 0.66413 0.42644 0.0
H2806 H 0.03669 0.6733 0.37471 0.0
H2807 H 0.09726 0.67461 0.39365 0.0
H2808 H 0.10837 0.66612 0.32743 0.0
H2809 H 0.09751 0.65812 0.36064 0.0
H2810 H 0.05257 0.70281 0.35686 0.0
H2811 H 0.06349 0.71082 0.32335 0.0
C2812 C 0.04207 0.66546 0.40484 0.0
C2813 C 0.05617 0.66271 0.41972 0.0
C2814 C 0.0478 0.67155 0.38599 0.0
C2815 C 0.06777 0.67472 0.3816 0.0
C2816 C 0.08179 0.67215 0.39655 0.0
C2817 C 0.07606 0.6663 0.41537 0.0
C2818 C 0.09615 0.67423 0.33366 0.0
C2819 C 0.08672 0.68905 0.32278 0.0
C2820 C 0.09002 0.66974 0.35273 0.0
C2821 C 0.0742 0.67984 0.36135 0.0
C2822 C 0.06473 0.6947 0.35052 0.0
C2823 C 0.07106 0.69939 0.33145 0.0
H2824 H 0.38931 0.2907 0.83936 0.0
H2825 H 0.43905 0.32219 0.8157 0.0
H2826 H 0.39938 0.3 0.87281 0.0
H2827 H 0.44946 0.33094 0.84921 0.0
H2828 H 0.46539 0.31772 0.91866 0.0
H2829 H 0.45753 0.30667 0.88531 0.0
H2830 H 0.40447 0.34125 0.88616 0.0
H2831 H 0.41272 0.35349 0.91873 0.0
C2832 C 0.40259 0.29927 0.84138 0.0
C2833 C 0.41345 0.30573 0.82506 0.0
C2834 C 0.40829 0.30461 0.86043 0.0
C2835 C 0.42519 0.31608 0.86344 0.0
C2836 C 0.43645 0.32197 0.84718 0.0
C2837 C 0.43049 0.31703 0.8281 0.0
C2838 C 0.45221 0.3233 0.9117 0.0
C2839 C 0.43965 0.33645 0.92169 0.0
C2840 C 0.44767 0.3168 0.89267 0.0
C2841 C 0.43031 0.32298 0.8834 0.0
C2842 C 0.4178 0.33608 0.89319 0.0
C2843 C 0.42251 0.34293 0.91197 0.0
H2844 H 0.57625 0.59758 0.83347 0.0
H2845 H 0.59752 0.53857 0.84338 0.0
H2846 H 0.60881 0.60751 0.82238 0.0
H2847 H 0.63012 0.54846 0.83212 0.0
H2848 H 0.69006 0.57991 0.83429 0.0
H2849 H 0.65733 0.56825 0.84279 0.0
H2850 H 0.63259 0.60385 0.79635 0.0
H2851 H 0.66534 0.61622 0.7884 0.0
C2852 C 0.58783 0.58665 0.83305 0.0
C2853 C 0.58427 0.56729 0.83938 0.0
C2854 C 0.60651 0.59234 0.82663 0.0
C2855 C 0.62214 0.5788 0.82632 0.0
C2856 C 0.61852 0.55936 0.83244 0.0
C2857 C 0.59983 0.55368 0.83892 0.0
C2858 C 0.67764 0.58532 0.82591 0.0
C2859 C 0.68034 0.59918 0.81079 0.0
C2860 C 0.65886 0.57843 0.83064 0.0
C2861 C 0.64226 0.58516 0.82033 0.0
C2862 C 0.64501 0.59857 0.80479 0.0
C2863 C 0.66382 0.60548 0.80007 0.0
H2864 H 0.67104 0.43099 0.08371 0.0
H2865 H 0.66647 0.41071 0.02368 0.0
H2866 H 0.68055 0.3981 0.09417 0.0
H2867 H 0.67587 0.37752 0.03431 0.0
H2868 H 0.7119 0.32509 0.06164 0.0
H2869 H 0.70515 0.35857 0.0498 0.0
H2870 H 0.66214 0.36605 0.09591 0.0
H2871 H 0.66886 0.33287 0.10766 0.0
C2872 C 0.67231 0.41956 0.07269 0.0
C2873 C 0.66801 0.42349 0.05285 0.0
C2874 C 0.6776 0.40067 0.07873 0.0
C2875 C 0.67887 0.38522 0.06508 0.0
C2876 C 0.67511 0.38918 0.04513 0.0
C2877 C 0.66958 0.40811 0.03909 0.0
C2878 C 0.70109 0.33398 0.06925 0.0
C2879 C 0.69085 0.32637 0.08552 0.0
C2880 C 0.69713 0.35304 0.0624 0.0
C2881 C 0.68314 0.36492 0.07195 0.0
C2882 C 0.67311 0.35732 0.08834 0.0
C2883 C 0.67685 0.33827 0.09498 0.0
H2884 H 0.84093 0.38916 0.29311 0.0
H2885 H 0.82031 0.43793 0.32809 0.0
H2886 H 0.87503 0.39847 0.30024 0.0
H2887 H 0.8545 0.44754 0.3348 0.0
H2888 H 0.92143 0.46557 0.32031 0.0
H2889 H 0.88716 0.45826 0.31206 0.0
H2890 H 0.89363 0.4 0.33612 0.0
H2891 H 0.92722 0.40745 0.34562 0.0
C2892 C 0.84373 0.40202 0.30209 0.0
C2893 C 0.82805 0.41283 0.31008 0.0
C2894 C 0.86318 0.40729 0.3062 0.0
C2895 C 0.86731 0.42373 0.31801 0.0
C2896 C 0.85166 0.43489 0.32555 0.0
C2897 C 0.83217 0.42934 0.32181 0.0
C2898 C 0.91556 0.45129 0.32413 0.0
C2899 C 0.92742 0.43708 0.33349 0.0
C2900 C 0.89595 0.4471 0.31927 0.0
C2901 C 0.88791 0.42852 0.32329 0.0
C2902 C 0.89961 0.41435 0.33259 0.0
C2903 C 0.91899 0.41863 0.33785 0.0
H2904 H 0.83581 0.6772 0.56801 0.0
H2905 H 0.81329 0.65356 0.62245 0.0
H2906 H 0.84591 0.64411 0.55782 0.0
H2907 H 0.82357 0.62056 0.61237 0.0
H2908 H 0.86637 0.57006 0.59565 0.0
H2909 H 0.85685 0.60318 0.60527 0.0
H2910 H 0.82768 0.61119 0.54953 0.0
H2911 H 0.83632 0.57763 0.54008 0.0
C2912 C 0.83317 0.66494 0.57784 0.0
C2913 C 0.82377 0.66792 0.59601 0.0
C2914 C 0.83881 0.64603 0.57195 0.0
C2915 C 0.8355 0.6298 0.58431 0.0
C2916 C 0.82638 0.63283 0.60261 0.0
C2917 C 0.82042 0.65167 0.60833 0.0
C2918 C 0.85764 0.57865 0.58548 0.0
C2919 C 0.85196 0.57091 0.56712 0.0
C2920 C 0.85232 0.59772 0.591 0.0
C2921 C 0.84149 0.60972 0.57817 0.0
C2922 C 0.83617 0.60229 0.55964 0.0
C2923 C 0.84122 0.58306 0.55422 0.0
H2924 H 0.67367 0.42502 0.66261 0.0
H2925 H 0.65429 0.41495 0.72225 0.0
H2926 H 0.64057 0.43515 0.65352 0.0
H2927 H 0.62114 0.42531 0.71322 0.0
H2928 H 0.56029 0.42207 0.68367 0.0
H2929 H 0.59349 0.41418 0.69441 0.0
H2930 H 0.61643 0.46058 0.65756 0.0
H2931 H 0.58325 0.46784 0.64608 0.0
C2932 C 0.66239 0.42521 0.67386 0.0
C2933 C 0.66665 0.41914 0.69316 0.0
C2934 C 0.64339 0.43109 0.66865 0.0
C2935 C 0.62813 0.43111 0.68262 0.0
C2936 C 0.63244 0.42521 0.70199 0.0
C2937 C 0.65145 0.41926 0.70719 0.0
C2938 C 0.57241 0.43055 0.67778 0.0
C2939 C 0.56906 0.44548 0.66385 0.0
C2940 C 0.59147 0.42618 0.68414 0.0
C2941 C 0.60772 0.43666 0.6768 0.0
C2942 C 0.60432 0.45199 0.66331 0.0
C2943 C 0.58524 0.45635 0.65692 0.0
H2944 H 0.85572 0.41456 0.96711 0.0
H2945 H 0.81431 0.4362 0.92409 0.0
H2946 H 0.84376 0.38114 0.96175 0.0
H2947 H 0.80289 0.40278 0.91821 0.0
H2948 H 0.77595 0.34186 0.92213 0.0
H2949 H 0.78528 0.37506 0.93216 0.0
H2950 H 0.84602 0.35684 0.93579 0.0
H2951 H 0.83675 0.3238 0.92578 0.0
C2952 C 0.84392 0.41223 0.95667 0.0
C2953 C 0.83607 0.42808 0.94595 0.0
C2954 C 0.83722 0.39304 0.95343 0.0
C2955 C 0.82244 0.38922 0.93944 0.0
C2956 C 0.81416 0.40515 0.9292 0.0
C2957 C 0.82088 0.42432 0.93241 0.0
C2958 C 0.79129 0.34494 0.92508 0.0
C2959 C 0.80558 0.33011 0.9231 0.0
C2960 C 0.79664 0.36398 0.93084 0.0
C2961 C 0.81642 0.36866 0.93476 0.0
C2962 C 0.83061 0.35371 0.93323 0.0
C2963 C 0.82527 0.33472 0.92747 0.0
H2964 H 0.9087 0.54783 0.12942 0.0
H2965 H 0.93293 0.57406 0.18188 0.0
H2966 H 0.87556 0.55761 0.13987 0.0
H2967 H 0.89974 0.58342 0.19256 0.0
H2968 H 0.83272 0.57421 0.21058 0.0
H2969 H 0.86584 0.56378 0.20134 0.0
H2970 H 0.86005 0.59388 0.14585 0.0
H2971 H 0.82754 0.60542 0.15534 0.0
C2972 C 0.90686 0.55546 0.14329 0.0
C2973 C 0.92327 0.56022 0.15487 0.0
C2974 C 0.88799 0.56111 0.1492 0.0
C2975 C 0.8852 0.57124 0.16699 0.0
C2976 C 0.90155 0.57554 0.17883 0.0
C2977 C 0.92047 0.57027 0.17271 0.0
C2978 C 0.83856 0.57894 0.19654 0.0
C2979 C 0.82723 0.59062 0.18371 0.0
C2980 C 0.85748 0.57282 0.19123 0.0
C2981 C 0.86532 0.57789 0.17284 0.0
C2982 C 0.85415 0.58953 0.16001 0.0
C2983 C 0.83544 0.59601 0.16545 0.0
H2984 H 0.67642 0.5884 0.46573 0.0
H2985 H 0.64841 0.58061 0.40918 0.0
H2986 H 0.68591 0.62173 0.45626 0.0
H2987 H 0.65919 0.61291 0.39927 0.0
H2988 H 0.66019 0.67812 0.39351 0.0
H2989 H 0.65156 0.6456 0.40471 0.0
H2990 H 0.70684 0.64142 0.43579 0.0
H2991 H 0.7149 0.675 0.42572 0.0
C2992 C 0.67234 0.59369 0.45128 0.0
C2993 C 0.66165 0.58164 0.43826 0.0
C2994 C 0.67805 0.61273 0.44573 0.0
C2995 C 0.67328 0.62016 0.42699 0.0
C2996 C 0.66285 0.60797 0.41395 0.0
C2997 C 0.65694 0.58915 0.41956 0.0
C2998 C 0.67043 0.67053 0.40305 0.0
C2999 C 0.68817 0.67944 0.40888 0.0
C3000 C 0.66561 0.65159 0.40921 0.0
C3001 C 0.67854 0.64066 0.42106 0.0
C3002 C 0.6964 0.64943 0.42683 0.0
C3003 C 0.70116 0.66861 0.42083 0.0
H3004 H 0.60039 0.78978 0.65746 0.0
H3005 H 0.55804 0.83043 0.68163 0.0
H3006 H 0.58869 0.79731 0.62432 0.0
H3007 H 0.5462 0.83782 0.64863 0.0
H3008 H 0.551 0.86622 0.58759 0.0
H3009 H 0.55901 0.85559 0.62074 0.0
H3010 H 0.56152 0.79529 0.60093 0.0
H3011 H 0.55344 0.80597 0.56758 0.0
C3012 C 0.58831 0.80001 0.65572 0.0
C3013 C 0.58029 0.80967 0.67214 0.0
C3014 C 0.58159 0.80434 0.63673 0.0
C3015 C 0.56666 0.81837 0.63377 0.0
C3016 C 0.55803 0.82729 0.65031 0.0
C3017 C 0.56478 0.82302 0.66924 0.0
C3018 C 0.5529 0.85064 0.59032 0.0
C3019 C 0.55152 0.83697 0.57488 0.0
C3020 C 0.55751 0.84453 0.60938 0.0
C3021 C 0.56087 0.82455 0.61356 0.0
C3022 C 0.55926 0.81081 0.59818 0.0
C3023 C 0.55463 0.81694 0.57907 0.0
H3024 H 0.88686 0.12932 0.29104 0.0
H3025 H 0.92856 0.17702 0.28631 0.0
H3026 H 0.91083 0.1101 0.30917 0.0
H3027 H 0.95294 0.15742 0.30384 0.0
H3028 H 0.98397 0.12457 0.35436 0.0
H3029 H 0.96104 0.14456 0.33534 0.0
H3030 H 0.94024 0.09231 0.30571 0.0
H3031 H 0.96248 0.07237 0.32524 0.0
C3032 C 0.90124 0.13565 0.29366 0.0
C3033 C 0.90576 0.15473 0.28714 0.0
C3034 C 0.91509 0.12454 0.30399 0.0
C3035 C 0.93395 0.13209 0.30792 0.0
C3036 C 0.93851 0.15118 0.30132 0.0
C3037 C 0.92455 0.16239 0.29113 0.0
C3038 C 0.97455 0.11738 0.34372 0.0
C3039 C 0.975 0.09685 0.34143 0.0
C3040 C 0.96145 0.12887 0.33272 0.0
C3041 C 0.94862 0.12009 0.31903 0.0
C3042 C 0.94953 0.09959 0.3164 0.0
C3043 C 0.96243 0.08812 0.32753 0.0
H3044 H 0.12506 0.70904 0.61186 0.0
H3045 H 0.17314 0.71197 0.57043 0.0
H3046 H 0.10603 0.68995 0.58851 0.0
H3047 H 0.15373 0.69353 0.54661 0.0
H3048 H 0.12077 0.6424 0.51701 0.0
H3049 H 0.14072 0.66193 0.53953 0.0
H3050 H 0.08853 0.69267 0.55889 0.0
H3051 H 0.06861 0.67259 0.53708 0.0
C3052 C 0.13151 0.7058 0.59766 0.0
C3053 C 0.15062 0.71213 0.59301 0.0
C3054 C 0.12052 0.69493 0.58417 0.0
C3055 C 0.12822 0.6903 0.56554 0.0
C3056 C 0.14737 0.69661 0.56088 0.0
C3057 C 0.15849 0.70731 0.57451 0.0
C3058 C 0.1136 0.65339 0.52604 0.0
C3059 C 0.0931 0.65585 0.52536 0.0
C3060 C 0.12505 0.66468 0.53889 0.0
C3061 C 0.11626 0.67883 0.55119 0.0
C3062 C 0.09579 0.68161 0.55002 0.0
C3063 C 0.08434 0.67018 0.53739 0.0
H3064 H 0.53454 0.93293 0.8234 0.0
H3065 H 0.52016 0.87988 0.85523 0.0
H3066 H 0.55573 0.91407 0.80152 0.0
H3067 H 0.54184 0.86111 0.83381 0.0
H3068 H 0.60935 0.87879 0.78135 0.0
H3069 H 0.58643 0.8976 0.80131 0.0
H3070 H 0.54622 0.84838 0.80157 0.0
H3071 H 0.56952 0.82929 0.78209 0.0
C3072 C 0.53595 0.91725 0.82579 0.0
C3073 C 0.52566 0.90794 0.84112 0.0
C3074 C 0.54821 0.90642 0.81329 0.0
C3075 C 0.55063 0.88601 0.81588 0.0
C3076 C 0.54015 0.87671 0.83112 0.0
C3077 C 0.52778 0.88752 0.84352 0.0
C3078 C 0.59558 0.87198 0.78557 0.0
C3079 C 0.59133 0.85249 0.78013 0.0
C3080 C 0.58234 0.88284 0.79696 0.0
C3081 C 0.5644 0.87458 0.80312 0.0
C3082 C 0.56001 0.85516 0.79739 0.0
C3083 C 0.57333 0.84423 0.7861 0.0
H3084 H 0.4049 0.35686 0.04298 0.0
H3085 H 0.41032 0.30018 0.01476 0.0
H3086 H 0.37856 0.34403 0.06364 0.0
H3087 H 0.38369 0.2875 0.03509 0.0
H3088 H 0.35169 0.26548 0.09014 0.0
H3089 H 0.37744 0.27853 0.06888 0.0
H3090 H 0.3449 0.33275 0.06273 0.0
H3091 H 0.31938 0.31988 0.08434 0.0
C3092 C 0.40035 0.34172 0.04104 0.0
C3093 C 0.40977 0.32955 0.02723 0.0
C3094 C 0.38517 0.33438 0.05284 0.0
C3095 C 0.37903 0.31469 0.0511 0.0
C3096 C 0.38825 0.30263 0.03706 0.0
C3097 C 0.40343 0.30996 0.02528 0.0
C3098 C 0.35003 0.28019 0.08427 0.0
C3099 C 0.33348 0.29164 0.08901 0.0
C3100 C 0.36474 0.28764 0.07196 0.0
C3101 C 0.36326 0.3067 0.06406 0.0
C3102 C 0.34666 0.31812 0.06876 0.0
C3103 C 0.33197 0.31068 0.08109 0.0
H3104 H 0.88473 0.87071 0.20129 0.0
H3105 H 0.92684 0.82356 0.20777 0.0
H3106 H 0.90926 0.8905 0.18469 0.0
H3107 H 0.95178 0.84377 0.19153 0.0
H3108 H 0.98285 0.87809 0.14136 0.0
H3109 H 0.96028 0.85733 0.1599 0.0
H3110 H 0.93858 0.90855 0.19065 0.0
H3111 H 0.96067 0.92934 0.17166 0.0
C3112 C 0.89931 0.8646 0.19933 0.0
C3113 C 0.90381 0.84554 0.20592 0.0
C3114 C 0.91346 0.87606 0.18991 0.0
C3115 C 0.9326 0.86886 0.18693 0.0
C3116 C 0.93714 0.84973 0.19345 0.0
C3117 C 0.92288 0.83817 0.20281 0.0
C3118 C 0.97336 0.8849 0.15218 0.0
C3119 C 0.97343 0.9054 0.1549 0.0
C3120 C 0.96048 0.87297 0.1629 0.0
C3121 C 0.94746 0.88126 0.17666 0.0
C3122 C 0.94809 0.9017 0.17987 0.0
C3123 C 0.96085 0.91363 0.16905 0.0
H3124 H 0.3777 0.63878 0.47664 0.0
H3125 H 0.424 0.68123 0.4672 0.0
H3126 H 0.35495 0.65942 0.45799 0.0
H3127 H 0.40102 0.70209 0.44882 0.0
H3128 H 0.34324 0.7412 0.44168 0.0
H3129 H 0.3679 0.72097 0.4584 0.0
H3130 H 0.35287 0.67184 0.42117 0.0
H3131 H 0.32848 0.69209 0.40417 0.0
C3132 C 0.383 0.65254 0.47061 0.0
C3133 C 0.40262 0.65839 0.47336 0.0
C3134 C 0.37001 0.66427 0.45986 0.0
C3135 C 0.37627 0.68229 0.45197 0.0
C3136 C 0.39585 0.68826 0.45481 0.0
C3137 C 0.40899 0.6763 0.46523 0.0
C3138 C 0.34529 0.72612 0.43699 0.0
C3139 C 0.3339 0.71821 0.42165 0.0
C3140 C 0.35946 0.71461 0.44648 0.0
C3141 C 0.36221 0.69487 0.44107 0.0
C3142 C 0.35094 0.687 0.42566 0.0
C3143 C 0.33706 0.69861 0.4159 0.0
H3144 H 0.54765 0.12476 0.63365 0.0
H3145 H 0.53934 0.08053 0.67853 0.0
H3146 H 0.56534 0.14518 0.65705 0.0
H3147 H 0.55638 0.10132 0.7022 0.0
H3148 H 0.60634 0.13461 0.73319 0.0
H3149 H 0.58811 0.11361 0.71052 0.0
H3150 H 0.56068 0.16501 0.68509 0.0
H3151 H 0.57948 0.1859 0.70701 0.0
C3152 C 0.5494 0.11949 0.64858 0.0
C3153 C 0.54208 0.10103 0.65422 0.0
C3154 C 0.55946 0.13126 0.66206 0.0
C3155 C 0.56225 0.12496 0.68158 0.0
C3156 C 0.55478 0.10653 0.68724 0.0
C3157 C 0.54489 0.09465 0.67369 0.0
C3158 C 0.59636 0.14139 0.72279 0.0
C3159 C 0.59442 0.16193 0.72189 0.0
C3160 C 0.58582 0.12935 0.70985 0.0
C3161 C 0.57298 0.1376 0.69587 0.0
C3162 C 0.57074 0.15814 0.69535 0.0
C3163 C 0.58142 0.17014 0.70808 0.0
H3164 H 0.17869 0.32332 0.91484 0.0
H3165 H 0.15112 0.26611 0.91224 0.0
H3166 H 0.15165 0.33546 0.93484 0.0
H3167 H 0.12377 0.27844 0.93197 0.0
H3168 H 0.08941 0.30252 0.98535 0.0
H3169 H 0.1163 0.28961 0.96535 0.0
H3170 H 0.11718 0.34353 0.93176 0.0
H3171 H 0.09072 0.35658 0.95193 0.0
C3172 C 0.16679 0.31335 0.91841 0.0
C3173 C 0.16705 0.29375 0.91189 0.0
C3174 C 0.15122 0.32036 0.92982 0.0
C3175 C 0.13551 0.30794 0.93496 0.0
C3176 C 0.13576 0.28832 0.92844 0.0
C3177 C 0.15136 0.2813 0.91702 0.0
C3178 C 0.09536 0.31161 0.97371 0.0
C3179 C 0.08797 0.33061 0.97031 0.0
C3180 C 0.11069 0.30416 0.96216 0.0
C3181 C 0.11893 0.31556 0.947 0.0
C3182 C 0.11139 0.33448 0.94352 0.0
C3183 C 0.09612 0.34192 0.95504 0.0
H3184 H 0.29258 0.88604 0.1566 0.0
H3185 H 0.27375 0.94497 0.17092 0.0
H3186 H 0.31426 0.89901 0.13133 0.0
H3187 H 0.29614 0.95813 0.14616 0.0
H3188 H 0.32485 0.97393 0.08729 0.0
H3189 H 0.30215 0.96147 0.11212 0.0
H3190 H 0.34391 0.91594 0.1272 0.0
H3191 H 0.36608 0.92788 0.10182 0.0
C3192 C 0.29319 0.90181 0.15444 0.0
C3193 C 0.28147 0.91447 0.16579 0.0
C3194 C 0.30575 0.90929 0.14001 0.0
C3195 C 0.30717 0.92968 0.13673 0.0
C3196 C 0.2953 0.94234 0.14804 0.0
C3197 C 0.28251 0.93481 0.16232 0.0
C3198 C 0.32916 0.96128 0.09596 0.0
C3199 C 0.34721 0.95182 0.09252 0.0
C3200 C 0.31618 0.95417 0.11028 0.0
C3201 C 0.32107 0.93759 0.12168 0.0
C3202 C 0.33936 0.92844 0.11845 0.0
C3203 C 0.35218 0.93537 0.10396 0.0
H3204 H 0.30448 0.07471 0.32463 0.0
H3205 H 0.27402 0.09877 0.37491 0.0
H3206 H 0.32164 0.05166 0.34608 0.0
H3207 H 0.29025 0.07515 0.39619 0.0
H3208 H 0.33867 0.04706 0.43221 0.0
H3209 H 0.32061 0.06889 0.41047 0.0
H3210 H 0.31948 0.02354 0.36587 0.0
H3211 H 0.33851 0.00209 0.38737 0.0
C3212 C 0.30127 0.07488 0.34024 0.0
C3213 C 0.28809 0.08868 0.34812 0.0
C3214 C 0.311 0.06158 0.35256 0.0
C3215 C 0.30751 0.06157 0.37299 0.0
C3216 C 0.29377 0.07501 0.38067 0.0
C3217 C 0.28434 0.0885 0.36842 0.0
C3218 C 0.33449 0.04173 0.41778 0.0
C3219 C 0.34004 0.02288 0.41149 0.0
C3220 C 0.324 0.05422 0.40531 0.0
C3221 C 0.31846 0.04804 0.38633 0.0
C3222 C 0.32376 0.02899 0.3802 0.0
C3223 C 0.33455 0.01661 0.39259 0.0
H3224 H 0.13614 0.03508 0.62846 0.0
H3225 H 0.17632 0.03336 0.57927 0.0
H3226 H 0.16041 0.05297 0.64769 0.0
H3227 H 0.20091 0.05062 0.59875 0.0
H3228 H 0.23152 0.10101 0.63142 0.0
H3229 H 0.20819 0.08196 0.61209 0.0
H3230 H 0.19082 0.05025 0.66438 0.0
H3231 H 0.21367 0.06981 0.68379 0.0
C3232 C 0.15023 0.03833 0.62179 0.0
C3233 C 0.15422 0.03276 0.60228 0.0
C3234 C 0.16425 0.04851 0.6329 0.0
C3235 C 0.18272 0.05327 0.62485 0.0
C3236 C 0.18677 0.04751 0.60538 0.0
C3237 C 0.17268 0.03746 0.59422 0.0
C3238 C 0.2228 0.0899 0.63879 0.0
C3239 C 0.22444 0.08702 0.6592 0.0
C3240 C 0.20945 0.07887 0.62766 0.0
C3241 C 0.19749 0.06454 0.63661 0.0
C3242 C 0.19947 0.06139 0.65699 0.0
C3243 C 0.2127 0.07254 0.66814 0.0
H3244 H 0.1625 0.9935 0.88578 0.0
H3245 H 0.15822 0.94924 0.93112 0.0
H3246 H 0.18107 0.97061 0.86523 0.0
H3247 H 0.17572 0.92615 0.91041 0.0
H3248 H 0.22209 0.89312 0.87798 0.0
H3249 H 0.20633 0.9182 0.89788 0.0
H3250 H 0.17864 0.94207 0.84582 0.0
H3251 H 0.19542 0.91749 0.82576 0.0
C3252 C 0.16545 0.97886 0.8913 0.0
C3253 C 0.159 0.97323 0.91011 0.0
C3254 C 0.17598 0.96566 0.87948 0.0
C3255 C 0.18004 0.94646 0.88612 0.0
C3256 C 0.17339 0.9409 0.90491 0.0
C3257 C 0.16319 0.95414 0.91679 0.0
C3258 C 0.21267 0.90375 0.87077 0.0
C3259 C 0.20984 0.9032 0.85033 0.0
C3260 C 0.2035 0.91811 0.88221 0.0
C3261 C 0.19091 0.93209 0.87358 0.0
C3262 C 0.18836 0.93173 0.85302 0.0
C3263 C 0.19786 0.91754 0.84151 0.0
H3264 H 0.67479 0.17728 0.08905 0.0
H3265 H 0.64808 0.23491 0.09006 0.0
H3266 H 0.64867 0.16548 0.06766 0.0
H3267 H 0.62157 0.22294 0.06903 0.0
H3268 H 0.58829 0.20025 0.01502 0.0
H3269 H 0.61487 0.21227 0.03588 0.0
H3270 H 0.61446 0.1574 0.06792 0.0
H3271 H 0.58831 0.14521 0.04676 0.0
C3272 C 0.66325 0.18741 0.08484 0.0
C3273 C 0.66353 0.20704 0.09133 0.0
C3274 C 0.64818 0.18061 0.07262 0.0
C3275 C 0.63294 0.19322 0.06661 0.0
C3276 C 0.6332 0.21286 0.07314 0.0
C3277 C 0.64833 0.2197 0.08533 0.0
C3278 C 0.59394 0.19071 0.02645 0.0
C3279 C 0.58617 0.17174 0.02916 0.0
C3280 C 0.60909 0.19767 0.03854 0.0
C3281 C 0.61683 0.18584 0.05365 0.0
C3282 C 0.60909 0.16684 0.05628 0.0
C3283 C 0.59399 0.15987 0.04418 0.0
H3284 H 0.10915 0.33191 0.29607 0.0
H3285 H 0.05633 0.33422 0.26078 0.0
H3286 H 0.09671 0.35846 0.31652 0.0
H3287 H 0.04405 0.36118 0.28108 0.0
H3288 H 0.02028 0.39588 0.33402 0.0
H3289 H 0.03202 0.36843 0.31411 0.0
H3290 H 0.09047 0.39335 0.31431 0.0
H3291 H 0.07887 0.42052 0.3345 0.0
C3292 C 0.09489 0.33811 0.29262 0.0
C3293 C 0.08375 0.33094 0.27673 0.0
C3294 C 0.08781 0.35344 0.3043 0.0
C3295 C 0.06942 0.36203 0.30039 0.0
C3296 C 0.05818 0.35475 0.28462 0.0
C3297 C 0.06528 0.33938 0.27291 0.0
C3298 C 0.03565 0.39547 0.32987 0.0
C3299 C 0.04865 0.41038 0.33592 0.0
C3300 C 0.04235 0.3798 0.31834 0.0
C3301 C 0.06219 0.37867 0.31262 0.0
C3302 C 0.07516 0.3936 0.31869 0.0
C3303 C 0.06848 0.40924 0.33021 0.0
H3304 H 0.91907 0.81753 0.51973 0.0
H3305 H 0.87945 0.86392 0.53746 0.0
H3306 H 0.89752 0.7933 0.53561 0.0
H3307 H 0.85814 0.83992 0.55308 0.0
H3308 H 0.83544 0.79544 0.59698 0.0
H3309 H 0.85929 0.81749 0.58195 0.0
H3310 H 0.86271 0.77953 0.53118 0.0
H3311 H 0.83875 0.75727 0.54625 0.0
C3312 C 0.90588 0.82257 0.52706 0.0
C3313 C 0.90102 0.84268 0.52733 0.0
C3314 C 0.89348 0.80869 0.53603 0.0
C3315 C 0.87617 0.81472 0.54567 0.0
C3316 C 0.87147 0.83481 0.546 0.0
C3317 C 0.88366 0.84857 0.5369 0.0
C3318 C 0.8413 0.79168 0.58265 0.0
C3319 C 0.83504 0.77462 0.57277 0.0
C3320 C 0.85495 0.80438 0.57401 0.0
C3321 C 0.86281 0.80031 0.55533 0.0
C3322 C 0.85701 0.78299 0.54565 0.0
C3323 C 0.84319 0.77032 0.55424 0.0
H3324 H 0.08719 0.64883 0.23034 0.0
H3325 H 0.08133 0.67727 0.1738 0.0
H3326 H 0.06743 0.62131 0.21851 0.0
H3327 H 0.06127 0.65002 0.16217 0.0
H3328 H 0.04583 0.58867 0.1407 0.0
H3329 H 0.0652 0.61589 0.15332 0.0
H3330 H 0.03405 0.61256 0.20861 0.0
H3331 H 0.01486 0.58488 0.19609 0.0
C3332 C 0.08163 0.64926 0.21542 0.0
C3333 C 0.08594 0.66521 0.20297 0.0
C3334 C 0.07019 0.63354 0.20869 0.0
C3335 C 0.06282 0.63342 0.18937 0.0
C3336 C 0.06698 0.64948 0.17703 0.0
C3337 C 0.07842 0.66517 0.18373 0.0
C3338 C 0.04308 0.59368 0.15557 0.0
C3339 C 0.02875 0.58458 0.16738 0.0
C3340 C 0.05412 0.60941 0.16276 0.0
C3341 C 0.05111 0.6165 0.18194 0.0
C3342 C 0.03687 0.60733 0.19383 0.0
C3343 C 0.02579 0.59154 0.18662 0.0
H3344 H 0.42154 0.42985 0.66513 0.0
H3345 H 0.47845 0.40228 0.65877 0.0
H3346 H 0.41083 0.40296 0.68616 0.0
H3347 H 0.46753 0.37507 0.67944 0.0
H3348 H 0.44783 0.33956 0.73313 0.0
H3349 H 0.45889 0.36721 0.71312 0.0
H3350 H 0.40238 0.36874 0.6841 0.0
H3351 H 0.39117 0.34154 0.70439 0.0
C3352 C 0.43173 0.41798 0.6681 0.0
C3353 C 0.45083 0.41819 0.66021 0.0
C3354 C 0.42556 0.4025 0.68011 0.0
C3355 C 0.4383 0.38682 0.68446 0.0
C3356 C 0.45743 0.38704 0.67659 0.0
C3357 C 0.46363 0.40257 0.66461 0.0
C3358 C 0.43774 0.34587 0.72255 0.0
C3359 C 0.41861 0.33834 0.7204 0.0
C3360 C 0.44413 0.36163 0.71098 0.0
C3361 C 0.43153 0.37019 0.69698 0.0
C3362 C 0.41237 0.3627 0.69493 0.0
C3363 C 0.40598 0.347 0.70651 0.0
H3364 H 0.4649 0.57206 0.82472 0.0
H3365 H 0.48221 0.62417 0.85664 0.0
H3366 H 0.44248 0.59159 0.80488 0.0
H3367 H 0.45925 0.64368 0.8372 0.0
H3368 H 0.42734 0.67617 0.78771 0.0
H3369 H 0.45208 0.65708 0.80542 0.0
H3370 H 0.41191 0.60791 0.80828 0.0
H3371 H 0.38758 0.62666 0.79014 0.0
C3372 C 0.46389 0.58769 0.82755 0.0
C3373 C 0.47529 0.59651 0.84236 0.0
C3374 C 0.45093 0.5989 0.81622 0.0
C3375 C 0.44886 0.61923 0.81952 0.0
C3376 C 0.46058 0.62813 0.83408 0.0
C3377 C 0.47369 0.61691 0.84531 0.0
C3378 C 0.42385 0.66125 0.79207 0.0
C3379 C 0.40548 0.65294 0.78744 0.0
C3380 C 0.438 0.65033 0.80232 0.0
C3381 C 0.43407 0.63089 0.80827 0.0
C3382 C 0.41566 0.62266 0.80363 0.0
C3383 C 0.40161 0.6335 0.7933 0.0
H3384 H 0.92622 0.1684 0.95125 0.0
H3385 H 0.87618 0.15802 0.98902 0.0
H3386 H 0.90643 0.19006 0.93086 0.0
H3387 H 0.85646 0.18022 0.96889 0.0
H3388 H 0.87157 0.24311 0.90961 0.0
H3389 H 0.89111 0.2216 0.93061 0.0
H3390 H 0.84119 0.18285 0.93736 0.0
H3391 H 0.82153 0.20462 0.9169 0.0
C3392 C 0.911 0.17081 0.95528 0.0
C3393 C 0.9028 0.16142 0.9718 0.0
C3394 C 0.89966 0.18338 0.94363 0.0
C3395 C 0.87982 0.187 0.94821 0.0
C3396 C 0.87161 0.17759 0.96474 0.0
C3397 C 0.88295 0.16492 0.97636 0.0
C3398 C 0.86476 0.23001 0.91559 0.0
C3399 C 0.84497 0.22562 0.91154 0.0
C3400 C 0.876 0.21759 0.92756 0.0
C3401 C 0.86777 0.20042 0.9357 0.0
C3402 C 0.84797 0.19607 0.93162 0.0
C3403 C 0.83671 0.20852 0.91974 0.0
H3404 H 0.62282 0.85716 0.47952 0.0
H3405 H 0.57099 0.82742 0.45793 0.0
H3406 H 0.64312 0.83812 0.45679 0.0
H3407 H 0.59119 0.80794 0.43592 0.0
H3408 H 0.62798 0.79487 0.38227 0.0
H3409 H 0.60893 0.81299 0.4064 0.0
H3410 H 0.6558 0.80609 0.44879 0.0
H3411 H 0.67524 0.7885 0.42429 0.0
C3412 C 0.61582 0.84636 0.47014 0.0
C3413 C 0.59531 0.84393 0.47036 0.0
C3414 C 0.62744 0.83539 0.45718 0.0
C3415 C 0.61876 0.82165 0.44435 0.0
C3416 C 0.59832 0.81874 0.44521 0.0
C3417 C 0.58673 0.82984 0.45794 0.0
C3418 C 0.63423 0.79717 0.39674 0.0
C3419 C 0.65308 0.79018 0.40138 0.0
C3420 C 0.62324 0.80747 0.41065 0.0
C3421 C 0.63074 0.81085 0.42962 0.0
C3422 C 0.64966 0.80391 0.43426 0.0
C3423 C 0.66076 0.79374 0.42025 0.0
H3424 H 0.86628 0.45252 0.62076 0.0
H3425 H 0.82363 0.46275 0.57476 0.0
H3426 H 0.84076 0.43869 0.64145 0.0
H3427 H 0.79782 0.44926 0.59583 0.0
H3428 H 0.76308 0.40255 0.6318 0.0
H3429 H 0.78676 0.41851 0.61012 0.0
H3430 H 0.81248 0.4481 0.66013 0.0
H3431 H 0.7892 0.43175 0.68183 0.0
C3432 C 0.85141 0.45196 0.61507 0.0
C3433 C 0.84704 0.45882 0.59606 0.0
C3434 C 0.83671 0.44414 0.62705 0.0
C3435 C 0.81716 0.44302 0.62043 0.0
C3436 C 0.81275 0.44978 0.60136 0.0
C3437 C 0.82753 0.45759 0.5893 0.0
C3438 C 0.77368 0.4126 0.63815 0.0
C3439 C 0.77434 0.41573 0.65859 0.0
C3440 C 0.78722 0.42183 0.62569 0.0
C3441 C 0.80168 0.43445 0.63337 0.0
C3442 C 0.80182 0.43814 0.65374 0.0
C3443 C 0.78837 0.42885 0.66619 0.0
H3444 H 0.82588 0.54454 0.9273 0.0
H3445 H 0.85999 0.53278 0.87493 0.0
H3446 H 0.80445 0.56619 0.9084 0.0
H3447 H 0.83897 0.55478 0.85626 0.0
H3448 H 0.78943 0.58435 0.82383 0.0
H3449 H 0.80656 0.55939 0.84295 0.0
H3450 H 0.80691 0.59819 0.89329 0.0
H3451 H 0.78929 0.6229 0.87439 0.0
C3452 C 0.82877 0.54648 0.91176 0.0
C3453 C 0.84472 0.53699 0.90266 0.0
C3454 C 0.81655 0.55899 0.90095 0.0
C3455 C 0.82006 0.56231 0.88083 0.0
C3456 C 0.83568 0.55237 0.87165 0.0
C3457 C 0.84783 0.53984 0.88242 0.0
C3458 C 0.79302 0.58751 0.83902 0.0
C3459 C 0.78805 0.60567 0.84755 0.0
C3460 C 0.80293 0.57322 0.84995 0.0
C3461 C 0.80818 0.57681 0.86963 0.0
C3462 C 0.80285 0.59483 0.87826 0.0
C3463 C 0.79287 0.60907 0.86735 0.0
H3464 H 0.65711 0.50154 0.11858 0.0
H3465 H 0.6667 0.54668 0.07487 0.0
H3466 H 0.67817 0.51926 0.1415 0.0
H3467 H 0.68793 0.56435 0.09786 0.0
H3468 H 0.70658 0.59968 0.15352 0.0
H3469 H 0.68583 0.58266 0.12958 0.0
H3470 H 0.71333 0.52753 0.14497 0.0
H3471 H 0.73389 0.54441 0.16893 0.0
C3472 C 0.66371 0.51524 0.11384 0.0
C3473 C 0.66021 0.52266 0.09487 0.0
C3474 C 0.67588 0.52534 0.12695 0.0
C3475 C 0.68479 0.54317 0.12147 0.0
C3476 C 0.68116 0.55072 0.10257 0.0
C3477 C 0.66906 0.54054 0.08938 0.0
C3478 C 0.70826 0.58394 0.15172 0.0
C3479 C 0.72188 0.57341 0.16317 0.0
C3480 C 0.69643 0.57421 0.13795 0.0
C3481 C 0.69787 0.55373 0.13546 0.0
C3482 C 0.71168 0.54328 0.14672 0.0
C3483 C 0.72357 0.553 0.16036 0.0
H3484 H 0.73687 0.45148 0.34307 0.0
H3485 H 0.70674 0.39575 0.34786 0.0
H3486 H 0.71767 0.46421 0.37054 0.0
H3487 H 0.68722 0.40863 0.375 0.0
H3488 H 0.66902 0.4314 0.43536 0.0
H3489 H 0.68951 0.41872 0.40885 0.0
H3490 H 0.68453 0.47425 0.37841 0.0
H3491 H 0.6644 0.4871 0.40515 0.0
C3492 C 0.72616 0.44193 0.34997 0.0
C3493 C 0.72337 0.42258 0.34324 0.0
C3494 C 0.71503 0.44929 0.36565 0.0
C3495 C 0.70083 0.43749 0.37499 0.0
C3496 C 0.69819 0.41807 0.36835 0.0
C3497 C 0.70932 0.4107 0.35269 0.0
C3498 C 0.67231 0.44094 0.42303 0.0
C3499 C 0.66502 0.46027 0.4224 0.0
C3500 C 0.68399 0.43361 0.40776 0.0
C3501 C 0.68867 0.44543 0.39143 0.0
C3502 C 0.68145 0.46481 0.39086 0.0
C3503 C 0.66979 0.47215 0.40615 0.0
H3504 H 0.96243 0.97717 0.19785 0.0
H3505 H 0.01501 0.01269 0.19912 0.0
H3506 H 0.95746 0.98345 0.23302 0.0
H3507 H 0.01038 0.01867 0.23392 0.0
H3508 H 0.99121 0.04042 0.2918 0.0
H3509 H 0.98988 0.03599 0.25646 0.0
H3510 H 0.9717 0.97565 0.26455 0.0
H3511 H 0.9718 0.98041 0.29995 0.0
C3512 C 0.97293 0.98622 0.20568 0.0
C3513 C 0.98896 0.99462 0.19573 0.0
C3514 C 0.97011 0.98984 0.22576 0.0
C3515 C 0.98338 0.00181 0.23623 0.0
C3516 C 0.99954 0.0099 0.22623 0.0
C3517 C 0.00225 0.00641 0.20626 0.0
C3518 C 0.98647 0.02633 0.28616 0.0
C3519 C 0.98198 0.01067 0.29887 0.0
C3520 C 0.98595 0.02371 0.26581 0.0
C3521 C 0.9811 0.00533 0.25766 0.0
C3522 C 0.97551 0.99 0.27031 0.0
C3523 C 0.97586 0.99267 0.29067 0.0
H3524 H 0.28222 0.72403 0.45628 0.0
H3525 H 0.22053 0.71535 0.44402 0.0
H3526 H 0.27574 0.72076 0.49131 0.0
H3527 H 0.21399 0.71195 0.47914 0.0
H3528 H 0.20903 0.74008 0.54146 0.0
H3529 H 0.21391 0.73535 0.50626 0.0
H3530 H 0.2652 0.69975 0.51811 0.0
H3531 H 0.26036 0.70464 0.55328 0.0
C3532 C 0.26736 0.72086 0.46103 0.0
C3533 C 0.25185 0.72019 0.44742 0.0
C3534 C 0.26362 0.71901 0.48113 0.0
C3535 C 0.24429 0.71635 0.48802 0.0
C3536 C 0.22897 0.71441 0.47431 0.0
C3537 C 0.23271 0.71631 0.45421 0.0
C3538 C 0.22113 0.73098 0.53655 0.0
C3539 C 0.23447 0.72298 0.55011 0.0
C3540 C 0.22391 0.7282 0.51638 0.0
C3541 C 0.24004 0.71727 0.50939 0.0
C3542 C 0.25285 0.70854 0.52302 0.0
C3543 C 0.2501 0.71138 0.54315 0.0
H3544 H 0.50314 0.03813 0.70703 0.0
H3545 H 0.55542 0.0021 0.70616 0.0
H3546 H 0.50022 0.03299 0.74239 0.0
H3547 H 0.55253 0.99694 0.74151 0.0
H3548 H 0.521 0.96974 0.79604 0.0
H3549 H 0.52968 0.9785 0.76238 0.0
H3550 H 0.51541 0.03922 0.77445 0.0
H3551 H 0.50671 0.03042 0.8081 0.0
C3552 C 0.51423 0.02945 0.71445 0.0
C3553 C 0.52936 0.02032 0.70378 0.0
C3554 C 0.51258 0.0265 0.73471 0.0
C3555 C 0.52607 0.01441 0.74469 0.0
C3556 C 0.54171 0.00602 0.73416 0.0
C3557 C 0.54335 0.00897 0.71392 0.0
C3558 C 0.52013 0.98501 0.79163 0.0
C3559 C 0.51294 0.99934 0.80462 0.0
C3560 C 0.5251 0.99005 0.77234 0.0
C3561 C 0.52303 0.00954 0.76572 0.0
C3562 C 0.51678 0.02403 0.77902 0.0
C3563 C 0.51181 0.01898 0.79827 0.0
H3564 H 0.22411 0.23957 0.95641 0.0
H3565 H 0.2576 0.29355 0.95535 0.0
H3566 H 0.23091 0.23614 0.99152 0.0
H3567 H 0.2645 0.29004 0.99025 0.0
H3568 H 0.28996 0.2675 0.04762 0.0
H3569 H 0.28354 0.26841 0.01229 0.0
H3570 H 0.22291 0.25268 0.0229 0.0
H3571 H 0.22948 0.25122 0.0581 0.0
C3572 C 0.23275 0.25079 0.96368 0.0
C3573 C 0.24039 0.26678 0.95304 0.0
C3574 C 0.23671 0.24879 0.98376 0.0
C3575 C 0.24841 0.26272 0.99357 0.0
C3576 C 0.2558 0.27883 0.983 0.0
C3577 C 0.25181 0.28085 0.96299 0.0
C3578 C 0.27536 0.26395 0.04237 0.0
C3579 C 0.2602 0.25943 0.05564 0.0
C3580 C 0.27162 0.26467 0.02218 0.0
C3581 C 0.25268 0.26076 0.01486 0.0
C3582 C 0.23767 0.25566 0.02809 0.0
C3583 C 0.24139 0.25504 0.04826 0.0
H3584 H 0.19745 0.99225 0.029 0.0
H3585 H 0.20509 0.96693 0.97129 0.0
H3586 H 0.23283 0.99133 0.03422 0.0
H3587 H 0.24055 0.96561 0.97659 0.0
H3588 H 0.30357 0.98678 0.98353 0.0
H3589 H 0.26813 0.98714 0.97893 0.0
H3590 H 0.26013 0.96978 0.03957 0.0
H3591 H 0.29578 0.96984 0.0442 0.0
C3592 C 0.20669 0.9862 0.01754 0.0
C3593 C 0.19849 0.97963 0.99973 0.0
C3594 C 0.22699 0.98565 0.02054 0.0
C3595 C 0.23958 0.97841 0.00584 0.0
C3596 C 0.23133 0.97161 0.9881 0.0
C3597 C 0.21102 0.97231 0.98505 0.0
C3598 C 0.29425 0.98291 0.99584 0.0
C3599 C 0.30244 0.97816 0.0142 0.0
C3600 C 0.27391 0.98306 0.99319 0.0
C3601 C 0.26124 0.97832 0.00882 0.0
C3602 C 0.26945 0.97372 0.02727 0.0
C3603 C 0.28985 0.97373 0.02995 0.0
H3604 H 0.29045 0.04366 0.23343 0.0
H3605 H 0.27196 0.03765 0.29405 0.0
H3606 H 0.29078 0.0083 0.23002 0.0
H3607 H 0.27371 0.00224 0.29093 0.0
H3608 H 0.24878 0.94376 0.26979 0.0
H3609 H 0.2539 0.97841 0.27566 0.0
H3610 H 0.30493 0.97735 0.23771 0.0
H3611 H 0.29935 0.94231 0.23144 0.0
C3612 C 0.28657 0.03493 0.24613 0.0
C3613 C 0.28058 0.0438 0.26388 0.0
C3614 C 0.28712 0.0145 0.24423 0.0
C3615 C 0.282 0.00234 0.2601 0.0
C3616 C 0.27727 0.01115 0.27822 0.0
C3617 C 0.27645 0.03159 0.28006 0.0
C3618 C 0.26133 0.95077 0.26297 0.0
C3619 C 0.27377 0.94024 0.25026 0.0
C3620 C 0.26432 0.97072 0.26639 0.0
C3621 C 0.27995 0.98073 0.25733 0.0
C3622 C 0.29263 0.97015 0.2448 0.0
C3623 C 0.28949 0.9501 0.24121 0.0
H3624 H 0.19816 0.04419 0.49636 0.0
H3625 H 0.20492 0.00042 0.54189 0.0
H3626 H 0.23366 0.04483 0.49161 0.0
H3627 H 0.24045 0.00113 0.53721 0.0
H3628 H 0.30474 0.0165 0.53381 0.0
H3629 H 0.26992 0.02182 0.54052 0.0
H3630 H 0.25803 0.0218 0.47811 0.0
H3631 H 0.29285 0.01645 0.47144 0.0
C3632 C 0.20722 0.0347 0.50536 0.0
C3633 C 0.19869 0.02206 0.51934 0.0
C3634 C 0.22755 0.03511 0.50266 0.0
C3635 C 0.23983 0.02295 0.51393 0.0
C3636 C 0.23138 0.01085 0.52844 0.0
C3637 C 0.21102 0.01043 0.53113 0.0
C3638 C 0.29469 0.01776 0.52154 0.0
C3639 C 0.30149 0.01583 0.5021 0.0
C3640 C 0.27477 0.02078 0.52538 0.0
C3641 C 0.26122 0.022 0.50986 0.0
C3642 C 0.26815 0.02109 0.49039 0.0
C3643 C 0.2881 0.01805 0.48654 0.0
H3644 H 0.22389 0.04229 0.71962 0.0
H3645 H 0.23661 0.05044 0.78137 0.0
H3646 H 0.21687 0.0078 0.7257 0.0
H3647 H 0.23089 0.01571 0.78719 0.0
H3648 H 0.21077 0.9521 0.79329 0.0
H3649 H 0.20949 0.98782 0.78844 0.0
H3650 H 0.23818 0.9809 0.7321 0.0
H3651 H 0.23897 0.94561 0.73682 0.0
C3652 C 0.22495 0.03686 0.73453 0.0
C3653 C 0.23132 0.0491 0.74991 0.0
C3654 C 0.22116 0.01698 0.73799 0.0
C3655 C 0.22384 0.00886 0.75684 0.0
C3656 C 0.22873 0.02141 0.77248 0.0
C3657 C 0.2323 0.04132 0.76906 0.0
C3658 C 0.21679 0.95836 0.77993 0.0
C3659 C 0.22482 0.94615 0.76536 0.0
C3660 C 0.21602 0.97875 0.77711 0.0
C3661 C 0.22346 0.98722 0.75973 0.0
C3662 C 0.23173 0.9749 0.74536 0.0
C3663 C 0.23232 0.95465 0.74811 0.0
H3664 H 0.03617 0.29473 0.97439 0.0
H3665 H 0.97457 0.30834 0.96798 0.0
H3666 H 0.02923 0.26014 0.96864 0.0
H3667 H 0.96751 0.27376 0.96143 0.0
H3668 H 0.96126 0.21119 0.98781 0.0
H3669 H 0.96625 0.24615 0.98245 0.0
H3670 H 0.01883 0.23351 0.94893 0.0
H3671 H 0.01401 0.19845 0.95497 0.0
C3672 C 0.02123 0.29037 0.97102 0.0
C3673 C 0.00585 0.30408 0.97191 0.0
C3674 C 0.0172 0.27052 0.96768 0.0
C3675 C 0.99773 0.26407 0.9649 0.0
C3676 C 0.9826 0.27814 0.96405 0.0
C3677 C 0.98661 0.29793 0.96767 0.0
C3678 C 0.97363 0.21589 0.97895 0.0
C3679 C 0.98739 0.20219 0.97202 0.0
C3680 C 0.97648 0.23595 0.97577 0.0
C3681 C 0.99307 0.24272 0.96536 0.0
C3682 C 0.00614 0.22885 0.95735 0.0
C3683 C 0.00339 0.2088 0.96077 0.0
H3684 H 0.47619 0.19543 0.04785 0.0
H3685 H 0.53536 0.21024 0.03062 0.0
H3686 H 0.47028 0.22955 0.05735 0.0
H3687 H 0.52941 0.24439 0.03907 0.0
H3688 H 0.51742 0.30558 0.05098 0.0
H3689 H 0.52275 0.27109 0.0594 0.0
H3690 H 0.46423 0.25742 0.03844 0.0
H3691 H 0.45882 0.29194 0.03115 0.0
C3692 C 0.48802 0.206 0.04645 0.0
C3693 C 0.50612 0.20036 0.03827 0.0
C3694 C 0.48464 0.22555 0.05175 0.0
C3695 C 0.49917 0.23994 0.04859 0.0
C3696 C 0.51785 0.23384 0.04195 0.0
C3697 C 0.52132 0.21422 0.037 0.0
C3698 C 0.50554 0.29519 0.04888 0.0
C3699 C 0.48783 0.30126 0.04021 0.0
C3700 C 0.50861 0.27542 0.05351 0.0
C3701 C 0.49416 0.26127 0.04911 0.0
C3702 C 0.47573 0.26777 0.04219 0.0
C3703 C 0.47256 0.28761 0.03794 0.0
H3704 H 0.95654 0.21307 0.2525 0.0
H3705 H 0.95033 0.25966 0.29518 0.0
H3706 H 0.99218 0.21634 0.25413 0.0
H3707 H 0.98597 0.26285 0.297 0.0
H3708 H 0.04657 0.28049 0.27044 0.0
H3709 H 0.01156 0.27505 0.27561 0.0
H3710 H 0.02112 0.21223 0.27442 0.0
H3711 H 0.05615 0.21777 0.26901 0.0
C3712 C 0.9628 0.22376 0.26248 0.0
C3713 C 0.95064 0.23626 0.27353 0.0
C3714 C 0.98323 0.22562 0.26348 0.0
C3715 C 0.99193 0.23994 0.27564 0.0
C3716 C 0.97974 0.25193 0.28723 0.0
C3717 C 0.95933 0.25012 0.28617 0.0
C3718 C 0.04126 0.26554 0.27178 0.0
C3719 C 0.05405 0.24956 0.2691 0.0
C3720 C 0.02118 0.2624 0.27473 0.0
C3721 C 0.01351 0.24319 0.27517 0.0
C3722 C 0.02651 0.2272 0.2737 0.0
C3723 C 0.04656 0.23036 0.27067 0.0
H3724 H 0.97418 0.69422 0.52693 0.0
H3725 H 0.03417 0.70391 0.50805 0.0
H3726 H 0.96788 0.72925 0.52478 0.0
H3727 H 0.0282 0.73897 0.50731 0.0
H3728 H 0.00506 0.79512 0.4809 0.0
H3729 H 0.01099 0.76028 0.48593 0.0
H3730 H 0.97372 0.76144 0.53748 0.0
H3731 H 0.96733 0.79648 0.53185 0.0
C3732 C 0.98611 0.70375 0.52248 0.0
C3733 C 0.00457 0.696 0.51717 0.0
C3734 C 0.98253 0.72394 0.52154 0.0
C3735 C 0.99742 0.73692 0.51551 0.0
C3736 C 0.01623 0.72933 0.51147 0.0
C3737 C 0.01974 0.70913 0.51217 0.0
C3738 C 0.99816 0.7879 0.4933 0.0
C3739 C 0.98588 0.79843 0.50609 0.0
C3740 C 0.00166 0.76797 0.4963 0.0
C3741 C 0.99316 0.75811 0.51235 0.0
C3742 C 0.98045 0.76857 0.52493 0.0
C3743 C 0.97676 0.78857 0.52175 0.0
H3744 H 0.53348 0.79584 0.49108 0.0
H3745 H 0.48365 0.80505 0.45279 0.0
H3746 H 0.52837 0.76058 0.48933 0.0
H3747 H 0.47854 0.76955 0.45091 0.0
H3748 H 0.46125 0.70901 0.47926 0.0
H3749 H 0.4673 0.74385 0.47306 0.0
H3750 H 0.52961 0.73211 0.4684 0.0
H3751 H 0.52347 0.69741 0.47503 0.0
C3752 C 0.52168 0.79032 0.48193 0.0
C3753 C 0.50892 0.80326 0.47214 0.0
C3754 C 0.51875 0.77006 0.48089 0.0
C3755 C 0.50303 0.76223 0.46996 0.0
C3756 C 0.49062 0.77514 0.45966 0.0
C3757 C 0.49354 0.79545 0.46074 0.0
C3758 C 0.47615 0.71386 0.47645 0.0
C3759 C 0.49194 0.70064 0.4779 0.0
C3760 C 0.47965 0.7338 0.47287 0.0
C3761 C 0.49899 0.7408 0.47055 0.0
C3762 C 0.5146 0.72726 0.47061 0.0
C3763 C 0.5111 0.70742 0.47434 0.0
H3764 H 0.05255 0.77285 0.23133 0.0
H3765 H 0.04087 0.71042 0.23111 0.0
H3766 H 0.0174 0.77952 0.23128 0.0
H3767 H 0.00562 0.71709 0.23184 0.0
H3768 H 0.94651 0.73631 0.20665 0.0
H3769 H 0.98164 0.73013 0.20865 0.0
H3770 H 0.98748 0.77703 0.25112 0.0
H3771 H 0.95209 0.78323 0.24906 0.0
C3772 C 0.04248 0.76053 0.23133 0.0
C3773 C 0.04952 0.74109 0.23097 0.0
C3774 C 0.02232 0.76437 0.23156 0.0
C3775 C 0.00872 0.74885 0.23142 0.0
C3776 C 0.01575 0.72938 0.23165 0.0
C3777 C 0.03594 0.72554 0.23145 0.0
C3778 C 0.95524 0.74522 0.21652 0.0
C3779 C 0.94649 0.76016 0.22782 0.0
C3780 C 0.97538 0.74164 0.21772 0.0
C3781 C 0.98731 0.75291 0.23024 0.0
C3782 C 0.97868 0.76815 0.24126 0.0
C3783 C 0.95844 0.77176 0.24005 0.0
H3784 H 0.55575 0.27595 0.70637 0.0
H3785 H 0.54368 0.21924 0.73221 0.0
H3786 H 0.52097 0.2797 0.69831 0.0
H3787 H 0.50904 0.223 0.72448 0.0
H3788 H 0.44825 0.22893 0.70413 0.0
H3789 H 0.48373 0.22517 0.7001 0.0
H3790 H 0.49187 0.28583 0.71727 0.0
H3791 H 0.45651 0.28958 0.7208 0.0
C3792 C 0.54567 0.26425 0.71024 0.0
C3793 C 0.55241 0.24739 0.7201 0.0
C3794 C 0.52577 0.26638 0.7056 0.0
C3795 C 0.51218 0.25171 0.71081 0.0
C3796 C 0.51911 0.23446 0.71991 0.0
C3797 C 0.539 0.23231 0.72444 0.0
C3798 C 0.45766 0.24154 0.70655 0.0
C3799 C 0.44969 0.25944 0.71304 0.0
C3800 C 0.47796 0.23939 0.70435 0.0
C3801 C 0.49069 0.25507 0.70878 0.0
C3802 C 0.48254 0.27346 0.71362 0.0
C3803 C 0.46222 0.27564 0.71565 0.0
H3804 H 0.49795 0.47013 0.70405 0.0
H3805 H 0.44946 0.51105 0.70044 0.0
H3806 H 0.49943 0.47509 0.73944 0.0
H3807 H 0.45111 0.51615 0.73588 0.0
H3808 H 0.48138 0.53805 0.79396 0.0
H3809 H 0.47437 0.53155 0.75934 0.0
H3810 H 0.48059 0.46921 0.76978 0.0
H3811 H 0.48756 0.47572 0.80432 0.0
C3812 C 0.48741 0.47995 0.71081 0.0
C3813 C 0.47365 0.49025 0.69935 0.0
C3814 C 0.48826 0.48281 0.73112 0.0
C3815 C 0.47539 0.49604 0.74043 0.0
C3816 C 0.46138 0.50606 0.72907 0.0
C3817 C 0.46049 0.50315 0.70876 0.0
C3818 C 0.48081 0.52296 0.78894 0.0
C3819 C 0.48529 0.50741 0.80178 0.0
C3820 C 0.47683 0.51923 0.76912 0.0
C3821 C 0.47722 0.49988 0.76181 0.0
C3822 C 0.48062 0.48429 0.7749 0.0
C3823 C 0.48459 0.48802 0.79466 0.0
H3824 H 0.71185 0.24339 0.0446 0.0
H3825 H 0.76403 0.2084 0.05487 0.0
H3826 H 0.71782 0.24153 0.00932 0.0
H3827 H 0.77024 0.20739 0.01973 0.0
H3828 H 0.7853 0.23814 0.95923 0.0
H3829 H 0.77877 0.23527 0.99429 0.0
H3830 H 0.72028 0.21406 0.98195 0.0
H3831 H 0.72689 0.21604 0.94685 0.0
C3832 C 0.72446 0.23518 0.03948 0.0
C3833 C 0.73757 0.22629 0.05279 0.0
C3834 C 0.72788 0.23417 0.01924 0.0
C3835 C 0.74457 0.22447 0.01194 0.0
C3836 C 0.75741 0.2152 0.02508 0.0
C3837 C 0.75386 0.21592 0.04526 0.0
C3838 C 0.77118 0.23247 0.96383 0.0
C3839 C 0.75655 0.22758 0.95003 0.0
C3840 C 0.76744 0.23091 0.98396 0.0
C3841 C 0.74896 0.22466 0.9907 0.0
C3842 C 0.73454 0.21922 0.97704 0.0
C3843 C 0.73836 0.22046 0.95693 0.0
H3844 H 0.05335 0.50489 0.29625 0.0
H3845 H 0.00926 0.46002 0.28724 0.0
H3846 H 0.05548 0.50996 0.26087 0.0
H3847 H 0.01166 0.46491 0.25182 0.0
H3848 H 0.02981 0.46883 0.18825 0.0
H3849 H 0.03438 0.46176 0.2231 0.0
H3850 H 0.03258 0.52393 0.23591 0.0
H3851 H 0.02772 0.53101 0.20114 0.0
C3852 C 0.04411 0.49609 0.28676 0.0
C3853 C 0.0309 0.48223 0.29466 0.0
C3854 C 0.04541 0.49895 0.26648 0.0
C3855 C 0.03368 0.48791 0.2536 0.0
C3856 C 0.02106 0.47349 0.26139 0.0
C3857 C 0.01967 0.47069 0.28171 0.0
C3858 C 0.03054 0.481 0.19847 0.0
C3859 C 0.0281 0.50047 0.19192 0.0
C3860 C 0.03315 0.47693 0.21842 0.0
C3861 C 0.03357 0.49226 0.23224 0.0
C3862 C 0.03243 0.5118 0.22558 0.0
C3863 C 0.02971 0.51587 0.20562 0.0
H3864 H 0.72282 0.75576 0.54806 0.0
H3865 H 0.78218 0.77774 0.54213 0.0
H3866 H 0.71676 0.76271 0.51364 0.0
H3867 H 0.77564 0.78601 0.50801 0.0
H3868 H 0.76825 0.76666 0.44407 0.0
H3869 H 0.77282 0.7665 0.47941 0.0
H3870 H 0.71255 0.78521 0.48732 0.0
H3871 H 0.70792 0.7848 0.45161 0.0
C3872 C 0.73451 0.76235 0.53953 0.0
C3873 C 0.75318 0.76566 0.54781 0.0
C3874 C 0.73091 0.76664 0.51979 0.0
C3875 C 0.74583 0.77459 0.50791 0.0
C3876 C 0.76398 0.7794 0.51661 0.0
C3877 C 0.76765 0.77489 0.5363 0.0
C3878 C 0.75605 0.77097 0.45334 0.0
C3879 C 0.73774 0.77576 0.44512 0.0
C3880 C 0.75869 0.77101 0.47364 0.0
C3881 C 0.74312 0.77603 0.48627 0.0
C3882 C 0.72481 0.78108 0.47803 0.0
C3883 C 0.72212 0.78084 0.45762 0.0
H3884 H 0.79762 0.49566 0.54028 0.0
H3885 H 0.80335 0.4684 0.48311 0.0
H3886 H 0.76203 0.4976 0.53558 0.0
H3887 H 0.76807 0.47091 0.4783 0.0
H3888 H 0.7085 0.50186 0.46844 0.0
H3889 H 0.74377 0.49915 0.47407 0.0
H3890 H 0.7329 0.47399 0.5313 0.0
H3891 H 0.69772 0.47606 0.5256 0.0
C3892 C 0.79136 0.48995 0.52682 0.0
C3893 C 0.80344 0.48211 0.51198 0.0
C3894 C 0.771 0.49114 0.5241 0.0
C3895 C 0.76241 0.48465 0.50646 0.0
C3896 C 0.77439 0.47641 0.49186 0.0
C3897 C 0.79463 0.47503 0.49464 0.0
C3898 C 0.71353 0.49555 0.48214 0.0
C3899 C 0.7001 0.48925 0.49655 0.0
C3900 C 0.73376 0.49408 0.48538 0.0
C3901 C 0.741 0.48644 0.50316 0.0
C3902 C 0.72768 0.4802 0.51759 0.0
C3903 C 0.70748 0.48146 0.51428 0.0
H3904 H 0.75374 0.55661 0.78715 0.0
H3905 H 0.79571 0.56246 0.73982 0.0
H3906 H 0.75349 0.52109 0.78246 0.0
H3907 H 0.79541 0.52696 0.73508 0.0
H3908 H 0.76649 0.46729 0.71706 0.0
H3909 H 0.77207 0.50229 0.72285 0.0
H3910 H 0.77391 0.49164 0.78547 0.0
H3911 H 0.76829 0.45673 0.77963 0.0
C3912 C 0.76313 0.55031 0.77596 0.0
C3913 C 0.7746 0.5624 0.76376 0.0
C3914 C 0.76301 0.52995 0.77326 0.0
C3915 C 0.77438 0.52123 0.75833 0.0
C3916 C 0.78625 0.53326 0.74649 0.0
C3917 C 0.78639 0.55361 0.7492 0.0
C3918 C 0.76851 0.47238 0.732 0.0
C3919 C 0.76671 0.45933 0.7479 0.0
C3920 C 0.77168 0.49242 0.73535 0.0
C3921 C 0.77316 0.49975 0.75465 0.0
C3922 C 0.77238 0.48651 0.77046 0.0
C3923 C 0.76921 0.46653 0.76712 0.0
H3924 H 0.80451 0.54366 0.01645 0.0
H3925 H 0.79428 0.51257 0.96189 0.0
H3926 H 0.76925 0.54539 0.02207 0.0
H3927 H 0.75895 0.51493 0.96736 0.0
H3928 H 0.6966 0.53876 0.97622 0.0
H3929 H 0.73187 0.541 0.97042 0.0
H3930 H 0.74291 0.51946 0.02908 0.0
H3931 H 0.70768 0.51659 0.03479 0.0
C3932 C 0.79483 0.53716 0.00564 0.0
C3933 C 0.80238 0.5277 0.98882 0.0
C3934 C 0.77461 0.53826 0.00886 0.0
C3935 C 0.76143 0.53021 0.99521 0.0
C3936 C 0.76883 0.52141 0.97805 0.0
C3937 C 0.7891 0.52009 0.97491 0.0
C3938 C 0.70649 0.53443 0.9879 0.0
C3939 C 0.69921 0.52722 0.00589 0.0
C3940 C 0.72669 0.53578 0.98456 0.0
C3941 C 0.74006 0.53025 0.99924 0.0
C3942 C 0.73288 0.52393 0.01755 0.0
C3943 C 0.71266 0.52236 0.02083 0.0
H3944 H 0.6999 0.44599 0.23477 0.0
H3945 H 0.72279 0.4604 0.29206 0.0
H3946 H 0.6922 0.48058 0.229 0.0
H3947 H 0.71638 0.49498 0.28611 0.0
H3948 H 0.70744 0.55698 0.27346 0.0
H3949 H 0.69811 0.52307 0.2807 0.0
H3950 H 0.7118 0.50699 0.22063 0.0
H3951 H 0.71988 0.54097 0.21342 0.0
C3952 C 0.70292 0.45661 0.24625 0.0
C3953 C 0.7121 0.45068 0.26374 0.0
C3954 C 0.69871 0.47644 0.24293 0.0
C3955 C 0.70411 0.49079 0.25684 0.0
C3956 C 0.71179 0.48451 0.27504 0.0
C3957 C 0.71557 0.46463 0.27851 0.0
C3958 C 0.70785 0.54618 0.26176 0.0
C3959 C 0.71456 0.55143 0.24297 0.0
C3960 C 0.70267 0.52673 0.2659 0.0
C3961 C 0.70461 0.51205 0.25143 0.0
C3962 C 0.70987 0.51775 0.23219 0.0
C3963 C 0.71461 0.53728 0.22799 0.0
H3964 H 0.45178 0.72693 0.7421 0.0
H3965 H 0.4481 0.75401 0.79937 0.0
H3966 H 0.48696 0.73524 0.74056 0.0
H3967 H 0.48282 0.76248 0.79779 0.0
H3968 H 0.54896 0.75256 0.79813 0.0
H3969 H 0.51429 0.74377 0.79804 0.0
H3970 H 0.50852 0.76674 0.73911 0.0
H3971 H 0.54366 0.77535 0.73914 0.0
C3972 C 0.45854 0.73449 0.75437 0.0
C3973 C 0.44728 0.73986 0.77084 0.0
C3974 C 0.47853 0.73944 0.7534 0.0
C3975 C 0.48755 0.74955 0.76903 0.0
C3976 C 0.47629 0.7546 0.78557 0.0
C3977 C 0.4564 0.74985 0.78644 0.0
C3978 C 0.54033 0.75569 0.78513 0.0
C3979 C 0.54897 0.7646 0.76863 0.0
C3980 C 0.52046 0.75076 0.78511 0.0
C3981 C 0.50875 0.75454 0.76856 0.0
C3982 C 0.51731 0.76351 0.752 0.0
C3983 C 0.53727 0.76865 0.75209 0.0
loop_
_geom_bond_atom_site_label_1
_geom_bond_atom_site_label_2
_geom_bond_distance
_geom_bond_site_symmetry_2
_ccdc_geom_bond_type
Co0 N4 2.148 . S
Co0 N10 2.128 . S
Co0 N20 2.194 1_655 S
Co0 O25 2.351 1_655 S
Co0 O26 2.155 . S
Co0 O27 2.096 . S
C1 N4 1.301 1_455 S
C1 N5 1.328 . S
C1 H6 0.930 . S
C2 C3 1.333 . S
C2 N4 1.317 . S
C2 H7 0.930 . S
C3 C2 1.333 . S
C3 N5 1.350 1_655 S
C3 H29 0.931 . S
N4 Co0 2.148 . S
N4 C1 1.301 1_655 S
N4 C2 1.317 . S
N5 C1 1.328 . S
N5 C3 1.350 1_455 S
H6 C1 0.930 . S
H7 C2 0.930 . S
C8 O9 1.224 . S
C8 O27 1.247 . S
O9 C8 1.224 . S
N10 Co0 2.128 . S
N10 C11 1.355 1_655 S
N10 C13 1.311 . S
C11 N10 1.355 1_455 S
C11 C12 1.363 . S
C11 H23 0.929 . S
C12 C11 1.363 . S
C12 N14 1.375 1_455 S
C12 H30 0.931 . S
C13 N10 1.311 . S
C13 N14 1.347 . S
C13 H24 0.929 . S
N14 C12 1.375 1_655 S
N14 C13 1.347 . S
C15 C18 1.365 . S
C15 N20 1.328 . S
C15 H21 0.929 . S
C16 C17 1.362 . S
C16 C19 1.378 . S
C16 H31 0.929 . S
C17 C16 1.362 . S
C17 C18 1.366 . S
C18 C15 1.365 . S
C18 C17 1.366 . S
C18 H32 0.930 . S
C19 C16 1.378 . S
C19 N20 1.315 . S
C19 H22 0.930 . S
N20 Co0 2.194 1_455 S
N20 C15 1.328 . S
N20 C19 1.315 . S
H21 C15 0.929 . S
H22 C19 0.930 . S
H23 C11 0.929 . S
H24 C13 0.929 . S
O25 Co0 2.351 1_455 S
O25 C28 1.244 1_455 S
O26 Co0 2.155 . S
O26 C28 1.240 . S
O27 Co0 2.096 . S
O27 C8 1.247 . S
C28 O25 1.244 1_655 S
C28 O26 1.240 . S
H29 C3 0.931 . S
H30 C12 0.931 . S
H31 C16 0.929 . S
H32 C18 0.930 . S
Co33 N37 2.148 . S
Co33 N43 2.128 . S
Co33 N53 2.194 . S
Co33 O58 2.351 . S
Co33 O59 2.155 . S
Co33 O60 2.096 . S
C34 N37 1.301 . S
C34 N38 1.328 . S
C34 H39 0.930 . S
C35 C36 1.333 . S
C35 N37 1.317 . S
C35 H40 0.930 . S
C36 C35 1.333 . S
C36 N38 1.350 . S
C36 H62 0.931 . S
N37 Co33 2.148 . S
N37 C34 1.301 . S
N37 C35 1.317 . S
N38 C34 1.328 . S
N38 C36 1.350 . S
H39 C34 0.930 . S
H40 C35 0.930 . S
C41 O42 1.224 . S
C41 O60 1.247 . S
O42 C41 1.224 . S
N43 Co33 2.128 . S
N43 C44 1.355 . S
N43 C46 1.311 . S
C44 N43 1.355 . S
C44 C45 1.363 . S
C44 H56 0.929 . S
C45 C44 1.363 . S
C45 N47 1.375 . S
C45 H63 0.931 . S
C46 N43 1.311 . S
C46 N47 1.347 . S
C46 H57 0.929 . S
N47 C45 1.375 . S
N47 C46 1.347 . S
C48 C51 1.365 . S
C48 N53 1.328 . S
C48 H54 0.929 . S
C49 C50 1.362 . S
C49 C52 1.378 . S
C49 H64 0.929 . S
C50 C49 1.362 . S
C50 C51 1.366 . S
C51 C48 1.365 . S
C51 C50 1.366 . S
C51 H65 0.930 . S
C52 C49 1.378 . S
C52 N53 1.315 . S
C52 H55 0.930 . S
N53 Co33 2.194 . S
N53 C48 1.328 . S
N53 C52 1.315 . S
H54 C48 0.929 . S
H55 C52 0.930 . S
H56 C44 0.929 . S
H57 C46 0.929 . S
O58 Co33 2.351 . S
O58 C61 1.244 . S
O59 Co33 2.155 . S
O59 C61 1.240 . S
O60 Co33 2.096 . S
O60 C41 1.247 . S
C61 O58 1.244 . S
C61 O59 1.240 . S
H62 C36 0.931 . S
H63 C45 0.931 . S
H64 C49 0.929 . S
H65 C51 0.930 . S
Co66 N70 2.148 . S
Co66 N76 2.128 . S
Co66 N86 2.194 . S
Co66 O91 2.351 . S
Co66 O92 2.155 . S
Co66 O93 2.096 . S
C67 N70 1.301 . S
C67 N71 1.328 . S
C67 H72 0.930 . S
C68 C69 1.333 . S
C68 N70 1.317 . S
C68 H73 0.930 . S
C69 C68 1.333 . S
C69 N71 1.350 . S
C69 H95 0.931 . S
N70 Co66 2.148 . S
N70 C67 1.301 . S
N70 C68 1.317 . S
N71 C67 1.328 . S
N71 C69 1.350 . S
H72 C67 0.930 . S
H73 C68 0.930 . S
C74 O75 1.224 . S
C74 O93 1.247 . S
O75 C74 1.224 . S
N76 Co66 2.128 . S
N76 C77 1.355 . S
N76 C79 1.311 . S
C77 N76 1.355 . S
C77 C78 1.363 . S
C77 H89 0.929 . S
C78 C77 1.363 . S
C78 N80 1.375 . S
C78 H96 0.931 . S
C79 N76 1.311 . S
C79 N80 1.347 . S
C79 H90 0.929 . S
N80 C78 1.375 . S
N80 C79 1.347 . S
C81 C84 1.365 . S
C81 N86 1.328 . S
C81 H87 0.929 . S
C82 C83 1.362 . S
C82 C85 1.378 . S
C82 H97 0.929 . S
C83 C82 1.362 . S
C83 C84 1.366 . S
C84 C81 1.365 . S
C84 C83 1.366 . S
C84 H98 0.930 . S
C85 C82 1.378 . S
C85 N86 1.315 . S
C85 H88 0.930 . S
N86 Co66 2.194 . S
N86 C81 1.328 . S
N86 C85 1.315 . S
H87 C81 0.929 . S
H88 C85 0.930 . S
H89 C77 0.929 . S
H90 C79 0.929 . S
O91 Co66 2.351 . S
O91 C94 1.244 . S
O92 Co66 2.155 . S
O92 C94 1.240 . S
O93 Co66 2.096 . S
O93 C74 1.247 . S
C94 O91 1.244 . S
C94 O92 1.240 . S
H95 C69 0.931 . S
H96 C78 0.931 . S
H97 C82 0.929 . S
H98 C84 0.930 . S
Co99 N103 2.148 . S
Co99 N109 2.128 . S
Co99 N119 2.194 . S
Co99 O124 2.351 . S
Co99 O125 2.155 . S
Co99 O126 2.096 . S
C100 N103 1.301 . S
C100 N104 1.328 . S
C100 H105 0.930 . S
C101 C102 1.333 . S
C101 N103 1.317 . S
C101 H106 0.930 . S
C102 C101 1.333 . S
C102 N104 1.350 . S
C102 H128 0.931 . S
N103 Co99 2.148 . S
N103 C100 1.301 . S
N103 C101 1.317 . S
N104 C100 1.328 . S
N104 C102 1.350 . S
H105 C100 0.930 . S
H106 C101 0.930 . S
C107 O108 1.224 . S
C107 O126 1.247 . S
O108 C107 1.224 . S
N109 Co99 2.128 . S
N109 C110 1.355 . S
N109 C112 1.311 . S
C110 N109 1.355 . S
C110 C111 1.363 . S
C110 H122 0.929 . S
C111 C110 1.363 . S
C111 N113 1.375 . S
C111 H129 0.931 . S
C112 N109 1.311 . S
C112 N113 1.347 . S
C112 H123 0.929 . S
N113 C111 1.375 . S
N113 C112 1.347 . S
C114 C117 1.365 . S
C114 N119 1.328 . S
C114 H120 0.929 . S
C115 C116 1.362 . S
C115 C118 1.378 . S
C115 H130 0.929 . S
C116 C115 1.362 . S
C116 C117 1.366 . S
C117 C114 1.365 . S
C117 C116 1.366 . S
C117 H131 0.930 . S
C118 C115 1.378 . S
C118 N119 1.315 . S
C118 H121 0.930 . S
N119 Co99 2.194 . S
N119 C114 1.328 . S
N119 C118 1.315 . S
H120 C114 0.929 . S
H121 C118 0.930 . S
H122 C110 0.929 . S
H123 C112 0.929 . S
O124 Co99 2.351 . S
O124 C127 1.244 . S
O125 Co99 2.155 . S
O125 C127 1.240 . S
O126 Co99 2.096 . S
O126 C107 1.247 . S
C127 O124 1.244 . S
C127 O125 1.240 . S
H128 C102 0.931 . S
H129 C111 0.931 . S
H130 C115 0.929 . S
H131 C117 0.930 . S
Co132 N136 2.148 . S
Co132 N142 2.128 . S
Co132 N152 2.194 1_655 S
Co132 O157 2.351 1_655 S
Co132 O158 2.155 . S
Co132 O159 2.096 . S
C133 N136 1.301 1_455 S
C133 N137 1.328 . S
C133 H138 0.930 . S
C134 C135 1.333 . S
C134 N136 1.317 . S
C134 H139 0.930 . S
C135 C134 1.333 . S
C135 N137 1.350 1_655 S
C135 H161 0.931 . S
N136 Co132 2.148 . S
N136 C133 1.301 1_655 S
N136 C134 1.317 . S
N137 C133 1.328 . S
N137 C135 1.350 1_455 S
H138 C133 0.930 . S
H139 C134 0.930 . S
C140 O141 1.224 . S
C140 O159 1.247 . S
O141 C140 1.224 . S
N142 Co132 2.128 . S
N142 C143 1.355 1_655 S
N142 C145 1.311 . S
C143 N142 1.355 1_455 S
C143 C144 1.363 . S
C143 H155 0.929 . S
C144 C143 1.363 . S
C144 N146 1.375 1_455 S
C144 H162 0.931 . S
C145 N142 1.311 . S
C145 N146 1.347 . S
C145 H156 0.929 . S
N146 C144 1.375 1_655 S
N146 C145 1.347 . S
C147 C150 1.365 . S
C147 N152 1.328 . S
C147 H153 0.929 . S
C148 C149 1.362 . S
C148 C151 1.378 . S
C148 H163 0.929 . S
C149 C148 1.362 . S
C149 C150 1.366 . S
C150 C147 1.365 . S
C150 C149 1.366 . S
C150 H164 0.930 . S
C151 C148 1.378 . S
C151 N152 1.315 . S
C151 H154 0.930 . S
N152 Co132 2.194 1_455 S
N152 C147 1.328 . S
N152 C151 1.315 . S
H153 C147 0.929 . S
H154 C151 0.930 . S
H155 C143 0.929 . S
H156 C145 0.929 . S
O157 Co132 2.351 1_455 S
O157 C160 1.244 1_455 S
O158 Co132 2.155 . S
O158 C160 1.240 . S
O159 Co132 2.096 . S
O159 C140 1.247 . S
C160 O157 1.244 1_655 S
C160 O158 1.240 . S
H161 C135 0.931 . S
H162 C144 0.931 . S
H163 C148 0.929 . S
H164 C150 0.930 . S
Co165 N169 2.148 . S
Co165 N175 2.128 . S
Co165 N185 2.194 . S
Co165 O190 2.351 . S
Co165 O191 2.155 . S
Co165 O192 2.096 . S
C166 N169 1.301 . S
C166 N170 1.328 . S
C166 H171 0.930 . S
C167 C168 1.333 . S
C167 N169 1.317 . S
C167 H172 0.930 . S
C168 C167 1.333 . S
C168 N170 1.350 . S
C168 H194 0.931 . S
N169 Co165 2.148 . S
N169 C166 1.301 . S
N169 C167 1.317 . S
N170 C166 1.328 . S
N170 C168 1.350 . S
H171 C166 0.930 . S
H172 C167 0.930 . S
C173 O174 1.224 . S
C173 O192 1.247 . S
O174 C173 1.224 . S
N175 Co165 2.128 . S
N175 C176 1.355 . S
N175 C178 1.311 . S
C176 N175 1.355 . S
C176 C177 1.363 . S
C176 H188 0.929 . S
C177 C176 1.363 . S
C177 N179 1.375 . S
C177 H195 0.931 . S
C178 N175 1.311 . S
C178 N179 1.347 . S
C178 H189 0.929 . S
N179 C177 1.375 . S
N179 C178 1.347 . S
C180 C183 1.365 . S
C180 N185 1.328 . S
C180 H186 0.929 . S
C181 C182 1.362 . S
C181 C184 1.378 . S
C181 H196 0.929 . S
C182 C181 1.362 . S
C182 C183 1.366 . S
C183 C180 1.365 . S
C183 C182 1.366 . S
C183 H197 0.930 . S
C184 C181 1.378 . S
C184 N185 1.315 . S
C184 H187 0.930 . S
N185 Co165 2.194 . S
N185 C180 1.328 . S
N185 C184 1.315 . S
H186 C180 0.929 . S
H187 C184 0.930 . S
H188 C176 0.929 . S
H189 C178 0.929 . S
O190 Co165 2.351 . S
O190 C193 1.244 . S
O191 Co165 2.155 . S
O191 C193 1.240 . S
O192 Co165 2.096 . S
O192 C173 1.247 . S
C193 O190 1.244 . S
C193 O191 1.240 . S
H194 C168 0.931 . S
H195 C177 0.931 . S
H196 C181 0.929 . S
H197 C183 0.930 . S
Co198 N202 2.148 . S
Co198 N208 2.128 . S
Co198 N218 2.194 . S
Co198 O223 2.351 . S
Co198 O224 2.155 . S
Co198 O225 2.096 . S
C199 N202 1.301 . S
C199 N203 1.328 . S
C199 H204 0.930 . S
C200 C201 1.333 . S
C200 N202 1.317 . S
C200 H205 0.930 . S
C201 C200 1.333 . S
C201 N203 1.350 . S
C201 H227 0.931 . S
N202 Co198 2.148 . S
N202 C199 1.301 . S
N202 C200 1.317 . S
N203 C199 1.328 . S
N203 C201 1.350 . S
H204 C199 0.930 . S
H205 C200 0.930 . S
C206 O207 1.224 . S
C206 O225 1.247 . S
O207 C206 1.224 . S
N208 Co198 2.128 . S
N208 C209 1.355 . S
N208 C211 1.311 . S
C209 N208 1.355 . S
C209 C210 1.363 . S
C209 H221 0.929 . S
C210 C209 1.363 . S
C210 N212 1.375 . S
C210 H228 0.931 . S
C211 N208 1.311 . S
C211 N212 1.347 . S
C211 H222 0.929 . S
N212 C210 1.375 . S
N212 C211 1.347 . S
C213 C216 1.365 . S
C213 N218 1.328 . S
C213 H219 0.929 . S
C214 C215 1.362 . S
C214 C217 1.378 . S
C214 H229 0.929 . S
C215 C214 1.362 . S
C215 C216 1.366 . S
C216 C213 1.365 . S
C216 C215 1.366 . S
C216 H230 0.930 . S
C217 C214 1.378 . S
C217 N218 1.315 . S
C217 H220 0.930 . S
N218 Co198 2.194 . S
N218 C213 1.328 . S
N218 C217 1.315 . S
H219 C213 0.929 . S
H220 C217 0.930 . S
H221 C209 0.929 . S
H222 C211 0.929 . S
O223 Co198 2.351 . S
O223 C226 1.244 . S
O224 Co198 2.155 . S
O224 C226 1.240 . S
O225 Co198 2.096 . S
O225 C206 1.247 . S
C226 O223 1.244 . S
C226 O224 1.240 . S
H227 C201 0.931 . S
H228 C210 0.931 . S
H229 C214 0.929 . S
H230 C216 0.930 . S
Co231 N235 2.148 . S
Co231 N241 2.128 . S
Co231 N251 2.194 . S
Co231 O256 2.351 . S
Co231 O257 2.155 . S
Co231 O258 2.096 . S
C232 N235 1.301 . S
C232 N236 1.328 . S
C232 H237 0.930 . S
C233 C234 1.333 . S
C233 N235 1.317 . S
C233 H238 0.930 . S
C234 C233 1.333 . S
C234 N236 1.350 . S
C234 H260 0.931 . S
N235 Co231 2.148 . S
N235 C232 1.301 . S
N235 C233 1.317 . S
N236 C232 1.328 . S
N236 C234 1.350 . S
H237 C232 0.930 . S
H238 C233 0.930 . S
C239 O240 1.224 . S
C239 O258 1.247 . S
O240 C239 1.224 . S
N241 Co231 2.128 . S
N241 C242 1.355 . S
N241 C244 1.311 . S
C242 N241 1.355 . S
C242 C243 1.363 . S
C242 H254 0.929 . S
C243 C242 1.363 . S
C243 N245 1.375 . S
C243 H261 0.931 . S
C244 N241 1.311 . S
C244 N245 1.347 . S
C244 H255 0.929 . S
N245 C243 1.375 . S
N245 C244 1.347 . S
C246 C249 1.365 . S
C246 N251 1.328 . S
C246 H252 0.929 . S
C247 C248 1.362 . S
C247 C250 1.378 . S
C247 H262 0.929 . S
C248 C247 1.362 . S
C248 C249 1.366 . S
C249 C246 1.365 . S
C249 C248 1.366 . S
C249 H263 0.930 . S
C250 C247 1.378 . S
C250 N251 1.315 . S
C250 H253 0.930 . S
N251 Co231 2.194 . S
N251 C246 1.328 . S
N251 C250 1.315 . S
H252 C246 0.929 . S
H253 C250 0.930 . S
H254 C242 0.929 . S
H255 C244 0.929 . S
O256 Co231 2.351 . S
O256 C259 1.244 . S
O257 Co231 2.155 . S
O257 C259 1.240 . S
O258 Co231 2.096 . S
O258 C239 1.247 . S
C259 O256 1.244 . S
C259 O257 1.240 . S
H260 C234 0.931 . S
H261 C243 0.931 . S
H262 C247 0.929 . S
H263 C249 0.930 . S
Co264 N268 2.148 . S
Co264 N274 2.128 . S
Co264 N284 2.194 1_565 S
Co264 O289 2.351 1_565 S
Co264 O290 2.155 . S
Co264 O291 2.096 . S
C265 N268 1.301 1_545 S
C265 N269 1.328 . S
C265 H270 0.930 . S
C266 C267 1.333 . S
C266 N268 1.317 . S
C266 H271 0.930 . S
C267 C266 1.333 . S
C267 N269 1.350 1_565 S
C267 H293 0.931 . S
N268 Co264 2.148 . S
N268 C265 1.301 1_565 S
N268 C266 1.317 . S
N269 C265 1.328 . S
N269 C267 1.350 1_545 S
H270 C265 0.930 . S
H271 C266 0.930 . S
C272 O273 1.224 . S
C272 O291 1.247 . S
O273 C272 1.224 . S
N274 Co264 2.128 . S
N274 C275 1.355 1_565 S
N274 C277 1.311 . S
C275 N274 1.355 1_545 S
C275 C276 1.363 . S
C275 H287 0.929 . S
C276 C275 1.363 . S
C276 N278 1.375 1_545 S
C276 H294 0.931 . S
C277 N274 1.311 . S
C277 N278 1.347 . S
C277 H288 0.929 . S
N278 C276 1.375 1_565 S
N278 C277 1.347 . S
C279 C282 1.365 . S
C279 N284 1.328 . S
C279 H285 0.929 . S
C280 C281 1.362 . S
C280 C283 1.378 . S
C280 H295 0.929 . S
C281 C280 1.362 . S
C281 C282 1.366 . S
C282 C279 1.365 . S
C282 C281 1.366 . S
C282 H296 0.930 . S
C283 C280 1.378 . S
C283 N284 1.315 . S
C283 H286 0.930 . S
N284 Co264 2.194 1_545 S
N284 C279 1.328 . S
N284 C283 1.315 . S
H285 C279 0.929 . S
H286 C283 0.930 . S
H287 C275 0.929 . S
H288 C277 0.929 . S
O289 Co264 2.351 1_545 S
O289 C292 1.244 1_545 S
O290 Co264 2.155 . S
O290 C292 1.240 . S
O291 Co264 2.096 . S
O291 C272 1.247 . S
C292 O289 1.244 1_565 S
C292 O290 1.240 . S
H293 C267 0.931 . S
H294 C276 0.931 . S
H295 C280 0.929 . S
H296 C282 0.930 . S
Co297 N301 2.148 . S
Co297 N307 2.128 . S
Co297 N317 2.194 . S
Co297 O322 2.351 . S
Co297 O323 2.155 . S
Co297 O324 2.096 . S
C298 N301 1.301 . S
C298 N302 1.328 . S
C298 H303 0.930 . S
C299 C300 1.333 . S
C299 N301 1.317 . S
C299 H304 0.930 . S
C300 C299 1.333 . S
C300 N302 1.350 . S
C300 H326 0.931 . S
N301 Co297 2.148 . S
N301 C298 1.301 . S
N301 C299 1.317 . S
N302 C298 1.328 . S
N302 C300 1.350 . S
H303 C298 0.930 . S
H304 C299 0.930 . S
C305 O306 1.224 . S
C305 O324 1.247 . S
O306 C305 1.224 . S
N307 Co297 2.128 . S
N307 C308 1.355 . S
N307 C310 1.311 . S
C308 N307 1.355 . S
C308 C309 1.363 . S
C308 H320 0.929 . S
C309 C308 1.363 . S
C309 N311 1.375 . S
C309 H327 0.931 . S
C310 N307 1.311 . S
C310 N311 1.347 . S
C310 H321 0.929 . S
N311 C309 1.375 . S
N311 C310 1.347 . S
C312 C315 1.365 . S
C312 N317 1.328 . S
C312 H318 0.929 . S
C313 C314 1.362 . S
C313 C316 1.378 . S
C313 H328 0.929 . S
C314 C313 1.362 . S
C314 C315 1.366 . S
C315 C312 1.365 . S
C315 C314 1.366 . S
C315 H329 0.930 . S
C316 C313 1.378 . S
C316 N317 1.315 . S
C316 H319 0.930 . S
N317 Co297 2.194 . S
N317 C312 1.328 . S
N317 C316 1.315 . S
H318 C312 0.929 . S
H319 C316 0.930 . S
H320 C308 0.929 . S
H321 C310 0.929 . S
O322 Co297 2.351 . S
O322 C325 1.244 . S
O323 Co297 2.155 . S
O323 C325 1.240 . S
O324 Co297 2.096 . S
O324 C305 1.247 . S
C325 O322 1.244 . S
C325 O323 1.240 . S
H326 C300 0.931 . S
H327 C309 0.931 . S
H328 C313 0.929 . S
H329 C315 0.930 . S
Co330 N334 2.148 . S
Co330 N340 2.128 . S
Co330 N350 2.194 1_545 S
Co330 O355 2.351 1_545 S
Co330 O356 2.155 . S
Co330 O357 2.096 . S
C331 N334 1.301 1_565 S
C331 N335 1.328 . S
C331 H336 0.930 . S
C332 C333 1.333 . S
C332 N334 1.317 . S
C332 H337 0.930 . S
C333 C332 1.333 . S
C333 N335 1.350 1_545 S
C333 H359 0.931 . S
N334 Co330 2.148 . S
N334 C331 1.301 1_545 S
N334 C332 1.317 . S
N335 C331 1.328 . S
N335 C333 1.350 1_565 S
H336 C331 0.930 . S
H337 C332 0.930 . S
C338 O339 1.224 . S
C338 O357 1.247 . S
O339 C338 1.224 . S
N340 Co330 2.128 . S
N340 C341 1.355 1_545 S
N340 C343 1.311 . S
C341 N340 1.355 1_565 S
C341 C342 1.363 . S
C341 H353 0.929 . S
C342 C341 1.363 . S
C342 N344 1.375 1_565 S
C342 H360 0.931 . S
C343 N340 1.311 . S
C343 N344 1.347 . S
C343 H354 0.929 . S
N344 C342 1.375 1_545 S
N344 C343 1.347 . S
C345 C348 1.365 . S
C345 N350 1.328 . S
C345 H351 0.929 . S
C346 C347 1.362 . S
C346 C349 1.378 . S
C346 H361 0.929 . S
C347 C346 1.362 . S
C347 C348 1.366 . S
C348 C345 1.365 . S
C348 C347 1.366 . S
C348 H362 0.930 . S
C349 C346 1.378 . S
C349 N350 1.315 . S
C349 H352 0.930 . S
N350 Co330 2.194 1_565 S
N350 C345 1.328 . S
N350 C349 1.315 . S
H351 C345 0.929 . S
H352 C349 0.930 . S
H353 C341 0.929 . S
H354 C343 0.929 . S
O355 Co330 2.351 1_565 S
O355 C358 1.244 1_565 S
O356 Co330 2.155 . S
O356 C358 1.240 . S
O357 Co330 2.096 . S
O357 C338 1.247 . S
C358 O355 1.244 1_545 S
C358 O356 1.240 . S
H359 C333 0.931 . S
H360 C342 0.931 . S
H361 C346 0.929 . S
H362 C348 0.930 . S
Co363 N367 2.148 . S
Co363 N373 2.128 . S
Co363 N383 2.194 . S
Co363 O388 2.351 . S
Co363 O389 2.155 . S
Co363 O390 2.096 . S
C364 N367 1.301 . S
C364 N368 1.328 . S
C364 H369 0.930 . S
C365 C366 1.333 . S
C365 N367 1.317 . S
C365 H370 0.930 . S
C366 C365 1.333 . S
C366 N368 1.350 . S
C366 H392 0.931 . S
N367 Co363 2.148 . S
N367 C364 1.301 . S
N367 C365 1.317 . S
N368 C364 1.328 . S
N368 C366 1.350 . S
H369 C364 0.930 . S
H370 C365 0.930 . S
C371 O372 1.224 . S
C371 O390 1.247 . S
O372 C371 1.224 . S
N373 Co363 2.128 . S
N373 C374 1.355 . S
N373 C376 1.311 . S
C374 N373 1.355 . S
C374 C375 1.363 . S
C374 H386 0.929 . S
C375 C374 1.363 . S
C375 N377 1.375 . S
C375 H393 0.931 . S
C376 N373 1.311 . S
C376 N377 1.347 . S
C376 H387 0.929 . S
N377 C375 1.375 . S
N377 C376 1.347 . S
C378 C381 1.365 . S
C378 N383 1.328 . S
C378 H384 0.929 . S
C379 C380 1.362 . S
C379 C382 1.378 . S
C379 H394 0.929 . S
C380 C379 1.362 . S
C380 C381 1.366 . S
C381 C378 1.365 . S
C381 C380 1.366 . S
C381 H395 0.930 . S
C382 C379 1.378 . S
C382 N383 1.315 . S
C382 H385 0.930 . S
N383 Co363 2.194 . S
N383 C378 1.328 . S
N383 C382 1.315 . S
H384 C378 0.929 . S
H385 C382 0.930 . S
H386 C374 0.929 . S
H387 C376 0.929 . S
O388 Co363 2.351 . S
O388 C391 1.244 . S
O389 Co363 2.155 . S
O389 C391 1.240 . S
O390 Co363 2.096 . S
O390 C371 1.247 . S
C391 O388 1.244 . S
C391 O389 1.240 . S
H392 C366 0.931 . S
H393 C375 0.931 . S
H394 C379 0.929 . S
H395 C381 0.930 . S
Co396 N400 2.148 . S
Co396 N406 2.128 . S
Co396 N416 2.194 1_545 S
Co396 O421 2.351 1_545 S
Co396 O422 2.155 . S
Co396 O423 2.096 . S
C397 N400 1.301 1_565 S
C397 N401 1.328 . S
C397 H402 0.930 . S
C398 C399 1.333 . S
C398 N400 1.317 . S
C398 H403 0.930 . S
C399 C398 1.333 . S
C399 N401 1.350 1_545 S
C399 H425 0.931 . S
N400 Co396 2.148 . S
N400 C397 1.301 1_545 S
N400 C398 1.317 . S
N401 C397 1.328 . S
N401 C399 1.350 1_565 S
H402 C397 0.930 . S
H403 C398 0.930 . S
C404 O405 1.224 . S
C404 O423 1.247 . S
O405 C404 1.224 . S
N406 Co396 2.128 . S
N406 C407 1.355 1_545 S
N406 C409 1.311 . S
C407 N406 1.355 1_565 S
C407 C408 1.363 . S
C407 H419 0.929 . S
C408 C407 1.363 . S
C408 N410 1.375 1_565 S
C408 H426 0.931 . S
C409 N406 1.311 . S
C409 N410 1.347 . S
C409 H420 0.929 . S
N410 C408 1.375 1_545 S
N410 C409 1.347 . S
C411 C414 1.365 . S
C411 N416 1.328 . S
C411 H417 0.929 . S
C412 C413 1.362 . S
C412 C415 1.378 . S
C412 H427 0.929 . S
C413 C412 1.362 . S
C413 C414 1.366 . S
C414 C411 1.365 . S
C414 C413 1.366 . S
C414 H428 0.930 . S
C415 C412 1.378 . S
C415 N416 1.315 . S
C415 H418 0.930 . S
N416 Co396 2.194 1_565 S
N416 C411 1.328 . S
N416 C415 1.315 . S
H417 C411 0.929 . S
H418 C415 0.930 . S
H419 C407 0.929 . S
H420 C409 0.929 . S
O421 Co396 2.351 1_565 S
O421 C424 1.244 1_565 S
O422 Co396 2.155 . S
O422 C424 1.240 . S
O423 Co396 2.096 . S
O423 C404 1.247 . S
C424 O421 1.244 1_545 S
C424 O422 1.240 . S
H425 C399 0.931 . S
H426 C408 0.931 . S
H427 C412 0.929 . S
H428 C414 0.930 . S
Co429 N433 2.148 . S
Co429 N439 2.128 . S
Co429 N449 2.194 . S
Co429 O454 2.351 . S
Co429 O455 2.155 . S
Co429 O456 2.096 . S
C430 N433 1.301 . S
C430 N434 1.328 . S
C430 H435 0.930 . S
C431 C432 1.333 . S
C431 N433 1.317 . S
C431 H436 0.930 . S
C432 C431 1.333 . S
C432 N434 1.350 . S
C432 H458 0.931 . S
N433 Co429 2.148 . S
N433 C430 1.301 . S
N433 C431 1.317 . S
N434 C430 1.328 . S
N434 C432 1.350 . S
H435 C430 0.930 . S
H436 C431 0.930 . S
C437 O438 1.224 . S
C437 O456 1.247 . S
O438 C437 1.224 . S
N439 Co429 2.128 . S
N439 C440 1.355 . S
N439 C442 1.311 . S
C440 N439 1.355 . S
C440 C441 1.363 . S
C440 H452 0.929 . S
C441 C440 1.363 . S
C441 N443 1.375 . S
C441 H459 0.931 . S
C442 N439 1.311 . S
C442 N443 1.347 . S
C442 H453 0.929 . S
N443 C441 1.375 . S
N443 C442 1.347 . S
C444 C447 1.365 . S
C444 N449 1.328 . S
C444 H450 0.929 . S
C445 C446 1.362 . S
C445 C448 1.378 . S
C445 H460 0.929 . S
C446 C445 1.362 . S
C446 C447 1.366 . S
C447 C444 1.365 . S
C447 C446 1.366 . S
C447 H461 0.930 . S
C448 C445 1.378 . S
C448 N449 1.315 . S
C448 H451 0.930 . S
N449 Co429 2.194 . S
N449 C444 1.328 . S
N449 C448 1.315 . S
H450 C444 0.929 . S
H451 C448 0.930 . S
H452 C440 0.929 . S
H453 C442 0.929 . S
O454 Co429 2.351 . S
O454 C457 1.244 . S
O455 Co429 2.155 . S
O455 C457 1.240 . S
O456 Co429 2.096 . S
O456 C437 1.247 . S
C457 O454 1.244 . S
C457 O455 1.240 . S
H458 C432 0.931 . S
H459 C441 0.931 . S
H460 C445 0.929 . S
H461 C447 0.930 . S
Co462 N466 2.148 . S
Co462 N472 2.128 . S
Co462 N482 2.194 1_565 S
Co462 O487 2.351 1_565 S
Co462 O488 2.155 . S
Co462 O489 2.096 . S
C463 N466 1.301 1_545 S
C463 N467 1.328 . S
C463 H468 0.930 . S
C464 C465 1.333 . S
C464 N466 1.317 . S
C464 H469 0.930 . S
C465 C464 1.333 . S
C465 N467 1.350 1_565 S
C465 H491 0.931 . S
N466 Co462 2.148 . S
N466 C463 1.301 1_565 S
N466 C464 1.317 . S
N467 C463 1.328 . S
N467 C465 1.350 1_545 S
H468 C463 0.930 . S
H469 C464 0.930 . S
C470 O471 1.224 . S
C470 O489 1.247 . S
O471 C470 1.224 . S
N472 Co462 2.128 . S
N472 C473 1.355 1_565 S
N472 C475 1.311 . S
C473 N472 1.355 1_545 S
C473 C474 1.363 . S
C473 H485 0.929 . S
C474 C473 1.363 . S
C474 N476 1.375 1_545 S
C474 H492 0.931 . S
C475 N472 1.311 . S
C475 N476 1.347 . S
C475 H486 0.929 . S
N476 C474 1.375 1_565 S
N476 C475 1.347 . S
C477 C480 1.365 . S
C477 N482 1.328 . S
C477 H483 0.929 . S
C478 C479 1.362 . S
C478 C481 1.378 . S
C478 H493 0.929 . S
C479 C478 1.362 . S
C479 C480 1.366 . S
C480 C477 1.365 . S
C480 C479 1.366 . S
C480 H494 0.930 . S
C481 C478 1.378 . S
C481 N482 1.315 . S
C481 H484 0.930 . S
N482 Co462 2.194 1_545 S
N482 C477 1.328 . S
N482 C481 1.315 . S
H483 C477 0.929 . S
H484 C481 0.930 . S
H485 C473 0.929 . S
H486 C475 0.929 . S
O487 Co462 2.351 1_545 S
O487 C490 1.244 1_545 S
O488 Co462 2.155 . S
O488 C490 1.240 . S
O489 Co462 2.096 . S
O489 C470 1.247 . S
C490 O487 1.244 1_565 S
C490 O488 1.240 . S
H491 C465 0.931 . S
H492 C474 0.931 . S
H493 C478 0.929 . S
H494 C480 0.930 . S
Co495 N499 2.148 . S
Co495 N505 2.128 . S
Co495 N515 2.194 . S
Co495 O520 2.351 . S
Co495 O521 2.155 . S
Co495 O522 2.096 . S
C496 N499 1.301 . S
C496 N500 1.328 . S
C496 H501 0.930 . S
C497 C498 1.333 . S
C497 N499 1.317 . S
C497 H502 0.930 . S
C498 C497 1.333 . S
C498 N500 1.350 . S
C498 H524 0.931 . S
N499 Co495 2.148 . S
N499 C496 1.301 . S
N499 C497 1.317 . S
N500 C496 1.328 . S
N500 C498 1.350 . S
H501 C496 0.930 . S
H502 C497 0.930 . S
C503 O504 1.224 . S
C503 O522 1.247 . S
O504 C503 1.224 . S
N505 Co495 2.128 . S
N505 C506 1.355 . S
N505 C508 1.311 . S
C506 N505 1.355 . S
C506 C507 1.363 . S
C506 H518 0.929 . S
C507 C506 1.363 . S
C507 N509 1.375 . S
C507 H525 0.931 . S
C508 N505 1.311 . S
C508 N509 1.347 . S
C508 H519 0.929 . S
N509 C507 1.375 . S
N509 C508 1.347 . S
C510 C513 1.365 . S
C510 N515 1.328 . S
C510 H516 0.929 . S
C511 C512 1.362 . S
C511 C514 1.378 . S
C511 H526 0.929 . S
C512 C511 1.362 . S
C512 C513 1.366 . S
C513 C510 1.365 . S
C513 C512 1.366 . S
C513 H527 0.930 . S
C514 C511 1.378 . S
C514 N515 1.315 . S
C514 H517 0.930 . S
N515 Co495 2.194 . S
N515 C510 1.328 . S
N515 C514 1.315 . S
H516 C510 0.929 . S
H517 C514 0.930 . S
H518 C506 0.929 . S
H519 C508 0.929 . S
O520 Co495 2.351 . S
O520 C523 1.244 . S
O521 Co495 2.155 . S
O521 C523 1.240 . S
O522 Co495 2.096 . S
O522 C503 1.247 . S
C523 O520 1.244 . S
C523 O521 1.240 . S
H524 C498 0.931 . S
H525 C507 0.931 . S
H526 C511 0.929 . S
H527 C513 0.930 . S
Co528 N532 2.148 . S
Co528 N538 2.128 . S
Co528 N548 2.194 1_556 S
Co528 O553 2.351 1_556 S
Co528 O554 2.155 . S
Co528 O555 2.096 . S
C529 N532 1.301 1_554 S
C529 N533 1.328 . S
C529 H534 0.930 . S
C530 C531 1.333 . S
C530 N532 1.317 . S
C530 H535 0.930 . S
C531 C530 1.333 . S
C531 N533 1.350 1_556 S
C531 H557 0.931 . S
N532 Co528 2.148 . S
N532 C529 1.301 1_556 S
N532 C530 1.317 . S
N533 C529 1.328 . S
N533 C531 1.350 1_554 S
H534 C529 0.930 . S
H535 C530 0.930 . S
C536 O537 1.224 . S
C536 O555 1.247 . S
O537 C536 1.224 . S
N538 Co528 2.128 . S
N538 C539 1.355 1_556 S
N538 C541 1.311 . S
C539 N538 1.355 1_554 S
C539 C540 1.363 . S
C539 H551 0.929 . S
C540 C539 1.363 . S
C540 N542 1.375 1_554 S
C540 H558 0.931 . S
C541 N538 1.311 . S
C541 N542 1.347 . S
C541 H552 0.929 . S
N542 C540 1.375 1_556 S
N542 C541 1.347 . S
C543 C546 1.365 . S
C543 N548 1.328 . S
C543 H549 0.929 . S
C544 C545 1.362 . S
C544 C547 1.378 . S
C544 H559 0.929 . S
C545 C544 1.362 . S
C545 C546 1.366 . S
C546 C543 1.365 . S
C546 C545 1.366 . S
C546 H560 0.930 . S
C547 C544 1.378 . S
C547 N548 1.315 . S
C547 H550 0.930 . S
N548 Co528 2.194 1_554 S
N548 C543 1.328 . S
N548 C547 1.315 . S
H549 C543 0.929 . S
H550 C547 0.930 . S
H551 C539 0.929 . S
H552 C541 0.929 . S
O553 Co528 2.351 1_554 S
O553 C556 1.244 1_554 S
O554 Co528 2.155 . S
O554 C556 1.240 . S
O555 Co528 2.096 . S
O555 C536 1.247 . S
C556 O553 1.244 1_556 S
C556 O554 1.240 . S
H557 C531 0.931 . S
H558 C540 0.931 . S
H559 C544 0.929 . S
H560 C546 0.930 . S
Co561 N565 2.148 . S
Co561 N571 2.128 . S
Co561 N581 2.194 1_554 S
Co561 O586 2.351 1_554 S
Co561 O587 2.155 . S
Co561 O588 2.096 . S
C562 N565 1.301 1_556 S
C562 N566 1.328 . S
C562 H567 0.930 . S
C563 C564 1.333 . S
C563 N565 1.317 . S
C563 H568 0.930 . S
C564 C563 1.333 . S
C564 N566 1.350 1_554 S
C564 H590 0.931 . S
N565 Co561 2.148 . S
N565 C562 1.301 1_554 S
N565 C563 1.317 . S
N566 C562 1.328 . S
N566 C564 1.350 1_556 S
H567 C562 0.930 . S
H568 C563 0.930 . S
C569 O570 1.224 . S
C569 O588 1.247 . S
O570 C569 1.224 . S
N571 Co561 2.128 . S
N571 C572 1.355 1_554 S
N571 C574 1.311 . S
C572 N571 1.355 1_556 S
C572 C573 1.363 . S
C572 H584 0.929 . S
C573 C572 1.363 . S
C573 N575 1.375 1_556 S
C573 H591 0.931 . S
C574 N571 1.311 . S
C574 N575 1.347 . S
C574 H585 0.929 . S
N575 C573 1.375 1_554 S
N575 C574 1.347 . S
C576 C579 1.365 . S
C576 N581 1.328 . S
C576 H582 0.929 . S
C577 C578 1.362 . S
C577 C580 1.378 . S
C577 H592 0.929 . S
C578 C577 1.362 . S
C578 C579 1.366 . S
C579 C576 1.365 . S
C579 C578 1.366 . S
C579 H593 0.930 . S
C580 C577 1.378 . S
C580 N581 1.315 . S
C580 H583 0.930 . S
N581 Co561 2.194 1_556 S
N581 C576 1.328 . S
N581 C580 1.315 . S
H582 C576 0.929 . S
H583 C580 0.930 . S
H584 C572 0.929 . S
H585 C574 0.929 . S
O586 Co561 2.351 1_556 S
O586 C589 1.244 1_556 S
O587 Co561 2.155 . S
O587 C589 1.240 . S
O588 Co561 2.096 . S
O588 C569 1.247 . S
C589 O586 1.244 1_554 S
C589 O587 1.240 . S
H590 C564 0.931 . S
H591 C573 0.931 . S
H592 C577 0.929 . S
H593 C579 0.930 . S
Co594 N598 2.148 . S
Co594 N604 2.128 . S
Co594 N614 2.194 . S
Co594 O619 2.351 . S
Co594 O620 2.155 . S
Co594 O621 2.096 . S
C595 N598 1.301 . S
C595 N599 1.328 . S
C595 H600 0.930 . S
C596 C597 1.333 . S
C596 N598 1.317 . S
C596 H601 0.930 . S
C597 C596 1.333 . S
C597 N599 1.350 . S
C597 H623 0.931 . S
N598 Co594 2.148 . S
N598 C595 1.301 . S
N598 C596 1.317 . S
N599 C595 1.328 . S
N599 C597 1.350 . S
H600 C595 0.930 . S
H601 C596 0.930 . S
C602 O603 1.224 . S
C602 O621 1.247 . S
O603 C602 1.224 . S
N604 Co594 2.128 . S
N604 C605 1.355 . S
N604 C607 1.311 . S
C605 N604 1.355 . S
C605 C606 1.363 . S
C605 H617 0.929 . S
C606 C605 1.363 . S
C606 N608 1.375 . S
C606 H624 0.931 . S
C607 N604 1.311 . S
C607 N608 1.347 . S
C607 H618 0.929 . S
N608 C606 1.375 . S
N608 C607 1.347 . S
C609 C612 1.365 . S
C609 N614 1.328 . S
C609 H615 0.929 . S
C610 C611 1.362 . S
C610 C613 1.378 . S
C610 H625 0.929 . S
C611 C610 1.362 . S
C611 C612 1.366 . S
C612 C609 1.365 . S
C612 C611 1.366 . S
C612 H626 0.930 . S
C613 C610 1.378 . S
C613 N614 1.315 . S
C613 H616 0.930 . S
N614 Co594 2.194 . S
N614 C609 1.328 . S
N614 C613 1.315 . S
H615 C609 0.929 . S
H616 C613 0.930 . S
H617 C605 0.929 . S
H618 C607 0.929 . S
O619 Co594 2.351 . S
O619 C622 1.244 . S
O620 Co594 2.155 . S
O620 C622 1.240 . S
O621 Co594 2.096 . S
O621 C602 1.247 . S
C622 O619 1.244 . S
C622 O620 1.240 . S
H623 C597 0.931 . S
H624 C606 0.931 . S
H625 C610 0.929 . S
H626 C612 0.930 . S
Co627 N631 2.148 . S
Co627 N637 2.128 . S
Co627 N647 2.194 . S
Co627 O652 2.351 . S
Co627 O653 2.155 . S
Co627 O654 2.096 . S
C628 N631 1.301 . S
C628 N632 1.328 . S
C628 H633 0.930 . S
C629 C630 1.333 . S
C629 N631 1.317 . S
C629 H634 0.930 . S
C630 C629 1.333 . S
C630 N632 1.350 . S
C630 H656 0.931 . S
N631 Co627 2.148 . S
N631 C628 1.301 . S
N631 C629 1.317 . S
N632 C628 1.328 . S
N632 C630 1.350 . S
H633 C628 0.930 . S
H634 C629 0.930 . S
C635 O636 1.224 . S
C635 O654 1.247 . S
O636 C635 1.224 . S
N637 Co627 2.128 . S
N637 C638 1.355 . S
N637 C640 1.311 . S
C638 N637 1.355 . S
C638 C639 1.363 . S
C638 H650 0.929 . S
C639 C638 1.363 . S
C639 N641 1.375 . S
C639 H657 0.931 . S
C640 N637 1.311 . S
C640 N641 1.347 . S
C640 H651 0.929 . S
N641 C639 1.375 . S
N641 C640 1.347 . S
C642 C645 1.365 . S
C642 N647 1.328 . S
C642 H648 0.929 . S
C643 C644 1.362 . S
C643 C646 1.378 . S
C643 H658 0.929 . S
C644 C643 1.362 . S
C644 C645 1.366 . S
C645 C642 1.365 . S
C645 C644 1.366 . S
C645 H659 0.930 . S
C646 C643 1.378 . S
C646 N647 1.315 . S
C646 H649 0.930 . S
N647 Co627 2.194 . S
N647 C642 1.328 . S
N647 C646 1.315 . S
H648 C642 0.929 . S
H649 C646 0.930 . S
H650 C638 0.929 . S
H651 C640 0.929 . S
O652 Co627 2.351 . S
O652 C655 1.244 . S
O653 Co627 2.155 . S
O653 C655 1.240 . S
O654 Co627 2.096 . S
O654 C635 1.247 . S
C655 O652 1.244 . S
C655 O653 1.240 . S
H656 C630 0.931 . S
H657 C639 0.931 . S
H658 C643 0.929 . S
H659 C645 0.930 . S
Co660 N664 2.148 . S
Co660 N670 2.128 . S
Co660 N680 2.194 . S
Co660 O685 2.351 . S
Co660 O686 2.155 . S
Co660 O687 2.096 . S
C661 N664 1.301 . S
C661 N665 1.328 . S
C661 H666 0.930 . S
C662 C663 1.333 . S
C662 N664 1.317 . S
C662 H667 0.930 . S
C663 C662 1.333 . S
C663 N665 1.350 . S
C663 H689 0.931 . S
N664 Co660 2.148 . S
N664 C661 1.301 . S
N664 C662 1.317 . S
N665 C661 1.328 . S
N665 C663 1.350 . S
H666 C661 0.930 . S
H667 C662 0.930 . S
C668 O669 1.224 . S
C668 O687 1.247 . S
O669 C668 1.224 . S
N670 Co660 2.128 . S
N670 C671 1.355 . S
N670 C673 1.311 . S
C671 N670 1.355 . S
C671 C672 1.363 . S
C671 H683 0.929 . S
C672 C671 1.363 . S
C672 N674 1.375 . S
C672 H690 0.931 . S
C673 N670 1.311 . S
C673 N674 1.347 . S
C673 H684 0.929 . S
N674 C672 1.375 . S
N674 C673 1.347 . S
C675 C678 1.365 . S
C675 N680 1.328 . S
C675 H681 0.929 . S
C676 C677 1.362 . S
C676 C679 1.378 . S
C676 H691 0.929 . S
C677 C676 1.362 . S
C677 C678 1.366 . S
C678 C675 1.365 . S
C678 C677 1.366 . S
C678 H692 0.930 . S
C679 C676 1.378 . S
C679 N680 1.315 . S
C679 H682 0.930 . S
N680 Co660 2.194 . S
N680 C675 1.328 . S
N680 C679 1.315 . S
H681 C675 0.929 . S
H682 C679 0.930 . S
H683 C671 0.929 . S
H684 C673 0.929 . S
O685 Co660 2.351 . S
O685 C688 1.244 . S
O686 Co660 2.155 . S
O686 C688 1.240 . S
O687 Co660 2.096 . S
O687 C668 1.247 . S
C688 O685 1.244 . S
C688 O686 1.240 . S
H689 C663 0.931 . S
H690 C672 0.931 . S
H691 C676 0.929 . S
H692 C678 0.930 . S
Co693 N697 2.148 . S
Co693 N703 2.128 . S
Co693 N713 2.194 . S
Co693 O718 2.351 . S
Co693 O719 2.155 . S
Co693 O720 2.096 . S
C694 N697 1.301 . S
C694 N698 1.328 . S
C694 H699 0.930 . S
C695 C696 1.333 . S
C695 N697 1.317 . S
C695 H700 0.930 . S
C696 C695 1.333 . S
C696 N698 1.350 . S
C696 H722 0.931 . S
N697 Co693 2.148 . S
N697 C694 1.301 . S
N697 C695 1.317 . S
N698 C694 1.328 . S
N698 C696 1.350 . S
H699 C694 0.930 . S
H700 C695 0.930 . S
C701 O702 1.224 . S
C701 O720 1.247 . S
O702 C701 1.224 . S
N703 Co693 2.128 . S
N703 C704 1.355 . S
N703 C706 1.311 . S
C704 N703 1.355 . S
C704 C705 1.363 . S
C704 H716 0.929 . S
C705 C704 1.363 . S
C705 N707 1.375 . S
C705 H723 0.931 . S
C706 N703 1.311 . S
C706 N707 1.347 . S
C706 H717 0.929 . S
N707 C705 1.375 . S
N707 C706 1.347 . S
C708 C711 1.365 . S
C708 N713 1.328 . S
C708 H714 0.929 . S
C709 C710 1.362 . S
C709 C712 1.378 . S
C709 H724 0.929 . S
C710 C709 1.362 . S
C710 C711 1.366 . S
C711 C708 1.365 . S
C711 C710 1.366 . S
C711 H725 0.930 . S
C712 C709 1.378 . S
C712 N713 1.315 . S
C712 H715 0.930 . S
N713 Co693 2.194 . S
N713 C708 1.328 . S
N713 C712 1.315 . S
H714 C708 0.929 . S
H715 C712 0.930 . S
H716 C704 0.929 . S
H717 C706 0.929 . S
O718 Co693 2.351 . S
O718 C721 1.244 . S
O719 Co693 2.155 . S
O719 C721 1.240 . S
O720 Co693 2.096 . S
O720 C701 1.247 . S
C721 O718 1.244 . S
C721 O719 1.240 . S
H722 C696 0.931 . S
H723 C705 0.931 . S
H724 C709 0.929 . S
H725 C711 0.930 . S
Co726 N730 2.148 . S
Co726 N736 2.128 . S
Co726 N746 2.194 . S
Co726 O751 2.351 . S
Co726 O752 2.155 . S
Co726 O753 2.096 . S
C727 N730 1.301 . S
C727 N731 1.328 . S
C727 H732 0.930 . S
C728 C729 1.333 . S
C728 N730 1.317 . S
C728 H733 0.930 . S
C729 C728 1.333 . S
C729 N731 1.350 . S
C729 H755 0.931 . S
N730 Co726 2.148 . S
N730 C727 1.301 . S
N730 C728 1.317 . S
N731 C727 1.328 . S
N731 C729 1.350 . S
H732 C727 0.930 . S
H733 C728 0.930 . S
C734 O735 1.224 . S
C734 O753 1.247 . S
O735 C734 1.224 . S
N736 Co726 2.128 . S
N736 C737 1.355 . S
N736 C739 1.311 . S
C737 N736 1.355 . S
C737 C738 1.363 . S
C737 H749 0.929 . S
C738 C737 1.363 . S
C738 N740 1.375 . S
C738 H756 0.931 . S
C739 N736 1.311 . S
C739 N740 1.347 . S
C739 H750 0.929 . S
N740 C738 1.375 . S
N740 C739 1.347 . S
C741 C744 1.365 . S
C741 N746 1.328 . S
C741 H747 0.929 . S
C742 C743 1.362 . S
C742 C745 1.378 . S
C742 H757 0.929 . S
C743 C742 1.362 . S
C743 C744 1.366 . S
C744 C741 1.365 . S
C744 C743 1.366 . S
C744 H758 0.930 . S
C745 C742 1.378 . S
C745 N746 1.315 . S
C745 H748 0.930 . S
N746 Co726 2.194 . S
N746 C741 1.328 . S
N746 C745 1.315 . S
H747 C741 0.929 . S
H748 C745 0.930 . S
H749 C737 0.929 . S
H750 C739 0.929 . S
O751 Co726 2.351 . S
O751 C754 1.244 . S
O752 Co726 2.155 . S
O752 C754 1.240 . S
O753 Co726 2.096 . S
O753 C734 1.247 . S
C754 O751 1.244 . S
C754 O752 1.240 . S
H755 C729 0.931 . S
H756 C738 0.931 . S
H757 C742 0.929 . S
H758 C744 0.930 . S
Co759 N763 2.148 . S
Co759 N769 2.128 . S
Co759 N779 2.194 . S
Co759 O784 2.351 . S
Co759 O785 2.155 . S
Co759 O786 2.096 . S
C760 N763 1.301 . S
C760 N764 1.328 . S
C760 H765 0.930 . S
C761 C762 1.333 . S
C761 N763 1.317 . S
C761 H766 0.930 . S
C762 C761 1.333 . S
C762 N764 1.350 . S
C762 H788 0.931 . S
N763 Co759 2.148 . S
N763 C760 1.301 . S
N763 C761 1.317 . S
N764 C760 1.328 . S
N764 C762 1.350 . S
H765 C760 0.930 . S
H766 C761 0.930 . S
C767 O768 1.224 . S
C767 O786 1.247 . S
O768 C767 1.224 . S
N769 Co759 2.128 . S
N769 C770 1.355 . S
N769 C772 1.311 . S
C770 N769 1.355 . S
C770 C771 1.363 . S
C770 H782 0.929 . S
C771 C770 1.363 . S
C771 N773 1.375 . S
C771 H789 0.931 . S
C772 N769 1.311 . S
C772 N773 1.347 . S
C772 H783 0.929 . S
N773 C771 1.375 . S
N773 C772 1.347 . S
C774 C777 1.365 . S
C774 N779 1.328 . S
C774 H780 0.929 . S
C775 C776 1.362 . S
C775 C778 1.378 . S
C775 H790 0.929 . S
C776 C775 1.362 . S
C776 C777 1.366 . S
C777 C774 1.365 . S
C777 C776 1.366 . S
C777 H791 0.930 . S
C778 C775 1.378 . S
C778 N779 1.315 . S
C778 H781 0.930 . S
N779 Co759 2.194 . S
N779 C774 1.328 . S
N779 C778 1.315 . S
H780 C774 0.929 . S
H781 C778 0.930 . S
H782 C770 0.929 . S
H783 C772 0.929 . S
O784 Co759 2.351 . S
O784 C787 1.244 . S
O785 Co759 2.155 . S
O785 C787 1.240 . S
O786 Co759 2.096 . S
O786 C767 1.247 . S
C787 O784 1.244 . S
C787 O785 1.240 . S
H788 C762 0.931 . S
H789 C771 0.931 . S
H790 C775 0.929 . S
H791 C777 0.930 . S
Co792 N796 2.148 . S
Co792 N802 2.128 . S
Co792 N812 2.194 . S
Co792 O817 2.351 . S
Co792 O818 2.155 . S
Co792 O819 2.096 . S
C793 N796 1.301 . S
C793 N797 1.328 . S
C793 H798 0.930 . S
C794 C795 1.333 . S
C794 N796 1.317 . S
C794 H799 0.930 . S
C795 C794 1.333 . S
C795 N797 1.350 . S
C795 H821 0.931 . S
N796 Co792 2.148 . S
N796 C793 1.301 . S
N796 C794 1.317 . S
N797 C793 1.328 . S
N797 C795 1.350 . S
H798 C793 0.930 . S
H799 C794 0.930 . S
C800 O801 1.224 . S
C800 O819 1.247 . S
O801 C800 1.224 . S
N802 Co792 2.128 . S
N802 C803 1.355 . S
N802 C805 1.311 . S
C803 N802 1.355 . S
C803 C804 1.363 . S
C803 H815 0.929 . S
C804 C803 1.363 . S
C804 N806 1.375 . S
C804 H822 0.931 . S
C805 N802 1.311 . S
C805 N806 1.347 . S
C805 H816 0.929 . S
N806 C804 1.375 . S
N806 C805 1.347 . S
C807 C810 1.365 . S
C807 N812 1.328 . S
C807 H813 0.929 . S
C808 C809 1.362 . S
C808 C811 1.378 . S
C808 H823 0.929 . S
C809 C808 1.362 . S
C809 C810 1.366 . S
C810 C807 1.365 . S
C810 C809 1.366 . S
C810 H824 0.930 . S
C811 C808 1.378 . S
C811 N812 1.315 . S
C811 H814 0.930 . S
N812 Co792 2.194 . S
N812 C807 1.328 . S
N812 C811 1.315 . S
H813 C807 0.929 . S
H814 C811 0.930 . S
H815 C803 0.929 . S
H816 C805 0.929 . S
O817 Co792 2.351 . S
O817 C820 1.244 . S
O818 Co792 2.155 . S
O818 C820 1.240 . S
O819 Co792 2.096 . S
O819 C800 1.247 . S
C820 O817 1.244 . S
C820 O818 1.240 . S
H821 C795 0.931 . S
H822 C804 0.931 . S
H823 C808 0.929 . S
H824 C810 0.930 . S
Co825 N829 2.148 . S
Co825 N835 2.128 . S
Co825 N845 2.194 . S
Co825 O850 2.351 . S
Co825 O851 2.155 . S
Co825 O852 2.096 . S
C826 N829 1.301 . S
C826 N830 1.328 . S
C826 H831 0.930 . S
C827 C828 1.333 . S
C827 N829 1.317 . S
C827 H832 0.930 . S
C828 C827 1.333 . S
C828 N830 1.350 . S
C828 H854 0.931 . S
N829 Co825 2.148 . S
N829 C826 1.301 . S
N829 C827 1.317 . S
N830 C826 1.328 . S
N830 C828 1.350 . S
H831 C826 0.930 . S
H832 C827 0.930 . S
C833 O834 1.224 . S
C833 O852 1.247 . S
O834 C833 1.224 . S
N835 Co825 2.128 . S
N835 C836 1.355 . S
N835 C838 1.311 . S
C836 N835 1.355 . S
C836 C837 1.363 . S
C836 H848 0.929 . S
C837 C836 1.363 . S
C837 N839 1.375 . S
C837 H855 0.931 . S
C838 N835 1.311 . S
C838 N839 1.347 . S
C838 H849 0.929 . S
N839 C837 1.375 . S
N839 C838 1.347 . S
C840 C843 1.365 . S
C840 N845 1.328 . S
C840 H846 0.929 . S
C841 C842 1.362 . S
C841 C844 1.378 . S
C841 H856 0.929 . S
C842 C841 1.362 . S
C842 C843 1.366 . S
C843 C840 1.365 . S
C843 C842 1.366 . S
C843 H857 0.930 . S
C844 C841 1.378 . S
C844 N845 1.315 . S
C844 H847 0.930 . S
N845 Co825 2.194 . S
N845 C840 1.328 . S
N845 C844 1.315 . S
H846 C840 0.929 . S
H847 C844 0.930 . S
H848 C836 0.929 . S
H849 C838 0.929 . S
O850 Co825 2.351 . S
O850 C853 1.244 . S
O851 Co825 2.155 . S
O851 C853 1.240 . S
O852 Co825 2.096 . S
O852 C833 1.247 . S
C853 O850 1.244 . S
C853 O851 1.240 . S
H854 C828 0.931 . S
H855 C837 0.931 . S
H856 C841 0.929 . S
H857 C843 0.930 . S
Co858 N862 2.148 . S
Co858 N868 2.128 . S
Co858 N878 2.194 1_455 S
Co858 O883 2.351 1_455 S
Co858 O884 2.155 . S
Co858 O885 2.096 . S
C859 N862 1.301 1_655 S
C859 N863 1.328 . S
C859 H864 0.930 . S
C860 C861 1.333 . S
C860 N862 1.317 . S
C860 H865 0.930 . S
C861 C860 1.333 . S
C861 N863 1.350 1_455 S
C861 H887 0.931 . S
N862 Co858 2.148 . S
N862 C859 1.301 1_455 S
N862 C860 1.317 . S
N863 C859 1.328 . S
N863 C861 1.350 1_655 S
H864 C859 0.930 . S
H865 C860 0.930 . S
C866 O867 1.224 . S
C866 O885 1.247 . S
O867 C866 1.224 . S
N868 Co858 2.128 . S
N868 C869 1.355 1_455 S
N868 C871 1.311 . S
C869 N868 1.355 1_655 S
C869 C870 1.363 . S
C869 H881 0.929 . S
C870 C869 1.363 . S
C870 N872 1.375 1_655 S
C870 H888 0.931 . S
C871 N868 1.311 . S
C871 N872 1.347 . S
C871 H882 0.929 . S
N872 C870 1.375 1_455 S
N872 C871 1.347 . S
C873 C876 1.365 . S
C873 N878 1.328 . S
C873 H879 0.929 . S
C874 C875 1.362 . S
C874 C877 1.378 . S
C874 H889 0.929 . S
C875 C874 1.362 . S
C875 C876 1.366 . S
C876 C873 1.365 . S
C876 C875 1.366 . S
C876 H890 0.930 . S
C877 C874 1.378 . S
C877 N878 1.315 . S
C877 H880 0.930 . S
N878 Co858 2.194 1_655 S
N878 C873 1.328 . S
N878 C877 1.315 . S
H879 C873 0.929 . S
H880 C877 0.930 . S
H881 C869 0.929 . S
H882 C871 0.929 . S
O883 Co858 2.351 1_655 S
O883 C886 1.244 1_655 S
O884 Co858 2.155 . S
O884 C886 1.240 . S
O885 Co858 2.096 . S
O885 C866 1.247 . S
C886 O883 1.244 1_455 S
C886 O884 1.240 . S
H887 C861 0.931 . S
H888 C870 0.931 . S
H889 C874 0.929 . S
H890 C876 0.930 . S
Co891 N895 2.148 . S
Co891 N901 2.128 . S
Co891 N911 2.194 . S
Co891 O916 2.351 . S
Co891 O917 2.155 . S
Co891 O918 2.096 . S
C892 N895 1.301 . S
C892 N896 1.328 . S
C892 H897 0.930 . S
C893 C894 1.333 . S
C893 N895 1.317 . S
C893 H898 0.930 . S
C894 C893 1.333 . S
C894 N896 1.350 . S
C894 H920 0.931 . S
N895 Co891 2.148 . S
N895 C892 1.301 . S
N895 C893 1.317 . S
N896 C892 1.328 . S
N896 C894 1.350 . S
H897 C892 0.930 . S
H898 C893 0.930 . S
C899 O900 1.224 . S
C899 O918 1.247 . S
O900 C899 1.224 . S
N901 Co891 2.128 . S
N901 C902 1.355 . S
N901 C904 1.311 . S
C902 N901 1.355 . S
C902 C903 1.363 . S
C902 H914 0.929 . S
C903 C902 1.363 . S
C903 N905 1.375 . S
C903 H921 0.931 . S
C904 N901 1.311 . S
C904 N905 1.347 . S
C904 H915 0.929 . S
N905 C903 1.375 . S
N905 C904 1.347 . S
C906 C909 1.365 . S
C906 N911 1.328 . S
C906 H912 0.929 . S
C907 C908 1.362 . S
C907 C910 1.378 . S
C907 H922 0.929 . S
C908 C907 1.362 . S
C908 C909 1.366 . S
C909 C906 1.365 . S
C909 C908 1.366 . S
C909 H923 0.930 . S
C910 C907 1.378 . S
C910 N911 1.315 . S
C910 H913 0.930 . S
N911 Co891 2.194 . S
N911 C906 1.328 . S
N911 C910 1.315 . S
H912 C906 0.929 . S
H913 C910 0.930 . S
H914 C902 0.929 . S
H915 C904 0.929 . S
O916 Co891 2.351 . S
O916 C919 1.244 . S
O917 Co891 2.155 . S
O917 C919 1.240 . S
O918 Co891 2.096 . S
O918 C899 1.247 . S
C919 O916 1.244 . S
C919 O917 1.240 . S
H920 C894 0.931 . S
H921 C903 0.931 . S
H922 C907 0.929 . S
H923 C909 0.930 . S
Co924 N928 2.148 . S
Co924 N934 2.128 . S
Co924 N944 2.194 . S
Co924 O949 2.351 . S
Co924 O950 2.155 . S
Co924 O951 2.096 . S
C925 N928 1.301 . S
C925 N929 1.328 . S
C925 H930 0.930 . S
C926 C927 1.333 . S
C926 N928 1.317 . S
C926 H931 0.930 . S
C927 C926 1.333 . S
C927 N929 1.350 . S
C927 H953 0.931 . S
N928 Co924 2.148 . S
N928 C925 1.301 . S
N928 C926 1.317 . S
N929 C925 1.328 . S
N929 C927 1.350 . S
H930 C925 0.930 . S
H931 C926 0.930 . S
C932 O933 1.224 . S
C932 O951 1.247 . S
O933 C932 1.224 . S
N934 Co924 2.128 . S
N934 C935 1.355 . S
N934 C937 1.311 . S
C935 N934 1.355 . S
C935 C936 1.363 . S
C935 H947 0.929 . S
C936 C935 1.363 . S
C936 N938 1.375 . S
C936 H954 0.931 . S
C937 N934 1.311 . S
C937 N938 1.347 . S
C937 H948 0.929 . S
N938 C936 1.375 . S
N938 C937 1.347 . S
C939 C942 1.365 . S
C939 N944 1.328 . S
C939 H945 0.929 . S
C940 C941 1.362 . S
C940 C943 1.378 . S
C940 H955 0.929 . S
C941 C940 1.362 . S
C941 C942 1.366 . S
C942 C939 1.365 . S
C942 C941 1.366 . S
C942 H956 0.930 . S
C943 C940 1.378 . S
C943 N944 1.315 . S
C943 H946 0.930 . S
N944 Co924 2.194 . S
N944 C939 1.328 . S
N944 C943 1.315 . S
H945 C939 0.929 . S
H946 C943 0.930 . S
H947 C935 0.929 . S
H948 C937 0.929 . S
O949 Co924 2.351 . S
O949 C952 1.244 . S
O950 Co924 2.155 . S
O950 C952 1.240 . S
O951 Co924 2.096 . S
O951 C932 1.247 . S
C952 O949 1.244 . S
C952 O950 1.240 . S
H953 C927 0.931 . S
H954 C936 0.931 . S
H955 C940 0.929 . S
H956 C942 0.930 . S
Co957 N961 2.148 . S
Co957 N967 2.128 . S
Co957 N977 2.194 . S
Co957 O982 2.351 . S
Co957 O983 2.155 . S
Co957 O984 2.096 . S
C958 N961 1.301 . S
C958 N962 1.328 . S
C958 H963 0.930 . S
C959 C960 1.333 . S
C959 N961 1.317 . S
C959 H964 0.930 . S
C960 C959 1.333 . S
C960 N962 1.350 . S
C960 H986 0.931 . S
N961 Co957 2.148 . S
N961 C958 1.301 . S
N961 C959 1.317 . S
N962 C958 1.328 . S
N962 C960 1.350 . S
H963 C958 0.930 . S
H964 C959 0.930 . S
C965 O966 1.224 . S
C965 O984 1.247 . S
O966 C965 1.224 . S
N967 Co957 2.128 . S
N967 C968 1.355 . S
N967 C970 1.311 . S
C968 N967 1.355 . S
C968 C969 1.363 . S
C968 H980 0.929 . S
C969 C968 1.363 . S
C969 N971 1.375 . S
C969 H987 0.931 . S
C970 N967 1.311 . S
C970 N971 1.347 . S
C970 H981 0.929 . S
N971 C969 1.375 . S
N971 C970 1.347 . S
C972 C975 1.365 . S
C972 N977 1.328 . S
C972 H978 0.929 . S
C973 C974 1.362 . S
C973 C976 1.378 . S
C973 H988 0.929 . S
C974 C973 1.362 . S
C974 C975 1.366 . S
C975 C972 1.365 . S
C975 C974 1.366 . S
C975 H989 0.930 . S
C976 C973 1.378 . S
C976 N977 1.315 . S
C976 H979 0.930 . S
N977 Co957 2.194 . S
N977 C972 1.328 . S
N977 C976 1.315 . S
H978 C972 0.929 . S
H979 C976 0.930 . S
H980 C968 0.929 . S
H981 C970 0.929 . S
O982 Co957 2.351 . S
O982 C985 1.244 . S
O983 Co957 2.155 . S
O983 C985 1.240 . S
O984 Co957 2.096 . S
O984 C965 1.247 . S
C985 O982 1.244 . S
C985 O983 1.240 . S
H986 C960 0.931 . S
H987 C969 0.931 . S
H988 C973 0.929 . S
H989 C975 0.930 . S
Co990 N994 2.148 . S
Co990 N1000 2.128 . S
Co990 N1010 2.194 1_455 S
Co990 O1015 2.351 1_455 S
Co990 O1016 2.155 . S
Co990 O1017 2.096 . S
C991 N994 1.301 1_655 S
C991 N995 1.328 . S
C991 H996 0.930 . S
C992 C993 1.333 . S
C992 N994 1.317 . S
C992 H997 0.930 . S
C993 C992 1.333 . S
C993 N995 1.350 1_455 S
C993 H1019 0.931 . S
N994 Co990 2.148 . S
N994 C991 1.301 1_455 S
N994 C992 1.317 . S
N995 C991 1.328 . S
N995 C993 1.350 1_655 S
H996 C991 0.930 . S
H997 C992 0.930 . S
C998 O999 1.224 . S
C998 O1017 1.247 . S
O999 C998 1.224 . S
N1000 Co990 2.128 . S
N1000 C1001 1.355 1_455 S
N1000 C1003 1.311 . S
C1001 N1000 1.355 1_655 S
C1001 C1002 1.363 . S
C1001 H1013 0.929 . S
C1002 C1001 1.363 . S
C1002 N1004 1.375 1_655 S
C1002 H1020 0.931 . S
C1003 N1000 1.311 . S
C1003 N1004 1.347 . S
C1003 H1014 0.929 . S
N1004 C1002 1.375 1_455 S
N1004 C1003 1.347 . S
C1005 C1008 1.365 . S
C1005 N1010 1.328 . S
C1005 H1011 0.929 . S
C1006 C1007 1.362 . S
C1006 C1009 1.378 . S
C1006 H1021 0.929 . S
C1007 C1006 1.362 . S
C1007 C1008 1.366 . S
C1008 C1005 1.365 . S
C1008 C1007 1.366 . S
C1008 H1022 0.930 . S
C1009 C1006 1.378 . S
C1009 N1010 1.315 . S
C1009 H1012 0.930 . S
N1010 Co990 2.194 1_655 S
N1010 C1005 1.328 . S
N1010 C1009 1.315 . S
H1011 C1005 0.929 . S
H1012 C1009 0.930 . S
H1013 C1001 0.929 . S
H1014 C1003 0.929 . S
O1015 Co990 2.351 1_655 S
O1015 C1018 1.244 1_655 S
O1016 Co990 2.155 . S
O1016 C1018 1.240 . S
O1017 Co990 2.096 . S
O1017 C998 1.247 . S
C1018 O1015 1.244 1_455 S
C1018 O1016 1.240 . S
H1019 C993 0.931 . S
H1020 C1002 0.931 . S
H1021 C1006 0.929 . S
H1022 C1008 0.930 . S
Co1023 N1027 2.148 . S
Co1023 N1033 2.128 . S
Co1023 N1043 2.194 . S
Co1023 O1048 2.351 . S
Co1023 O1049 2.155 . S
Co1023 O1050 2.096 . S
C1024 N1027 1.301 . S
C1024 N1028 1.328 . S
C1024 H1029 0.930 . S
C1025 C1026 1.333 . S
C1025 N1027 1.317 . S
C1025 H1030 0.930 . S
C1026 C1025 1.333 . S
C1026 N1028 1.350 . S
C1026 H1052 0.931 . S
N1027 Co1023 2.148 . S
N1027 C1024 1.301 . S
N1027 C1025 1.317 . S
N1028 C1024 1.328 . S
N1028 C1026 1.350 . S
H1029 C1024 0.930 . S
H1030 C1025 0.930 . S
C1031 O1032 1.224 . S
C1031 O1050 1.247 . S
O1032 C1031 1.224 . S
N1033 Co1023 2.128 . S
N1033 C1034 1.355 . S
N1033 C1036 1.311 . S
C1034 N1033 1.355 . S
C1034 C1035 1.363 . S
C1034 H1046 0.929 . S
C1035 C1034 1.363 . S
C1035 N1037 1.375 . S
C1035 H1053 0.931 . S
C1036 N1033 1.311 . S
C1036 N1037 1.347 . S
C1036 H1047 0.929 . S
N1037 C1035 1.375 . S
N1037 C1036 1.347 . S
C1038 C1041 1.365 . S
C1038 N1043 1.328 . S
C1038 H1044 0.929 . S
C1039 C1040 1.362 . S
C1039 C1042 1.378 . S
C1039 H1054 0.929 . S
C1040 C1039 1.362 . S
C1040 C1041 1.366 . S
C1041 C1038 1.365 . S
C1041 C1040 1.366 . S
C1041 H1055 0.930 . S
C1042 C1039 1.378 . S
C1042 N1043 1.315 . S
C1042 H1045 0.930 . S
N1043 Co1023 2.194 . S
N1043 C1038 1.328 . S
N1043 C1042 1.315 . S
H1044 C1038 0.929 . S
H1045 C1042 0.930 . S
H1046 C1034 0.929 . S
H1047 C1036 0.929 . S
O1048 Co1023 2.351 . S
O1048 C1051 1.244 . S
O1049 Co1023 2.155 . S
O1049 C1051 1.240 . S
O1050 Co1023 2.096 . S
O1050 C1031 1.247 . S
C1051 O1048 1.244 . S
C1051 O1049 1.240 . S
H1052 C1026 0.931 . S
H1053 C1035 0.931 . S
H1054 C1039 0.929 . S
H1055 C1041 0.930 . S
Co1056 N1060 2.148 . S
Co1056 N1066 2.128 . S
Co1056 N1076 2.194 . S
Co1056 O1081 2.351 . S
Co1056 O1082 2.155 . S
Co1056 O1083 2.096 . S
C1057 N1060 1.301 . S
C1057 N1061 1.328 . S
C1057 H1062 0.930 . S
C1058 C1059 1.333 . S
C1058 N1060 1.317 . S
C1058 H1063 0.930 . S
C1059 C1058 1.333 . S
C1059 N1061 1.350 . S
C1059 H1085 0.931 . S
N1060 Co1056 2.148 . S
N1060 C1057 1.301 . S
N1060 C1058 1.317 . S
N1061 C1057 1.328 . S
N1061 C1059 1.350 . S
H1062 C1057 0.930 . S
H1063 C1058 0.930 . S
C1064 O1065 1.224 . S
C1064 O1083 1.247 . S
O1065 C1064 1.224 . S
N1066 Co1056 2.128 . S
N1066 C1067 1.355 . S
N1066 C1069 1.311 . S
C1067 N1066 1.355 . S
C1067 C1068 1.363 . S
C1067 H1079 0.929 . S
C1068 C1067 1.363 . S
C1068 N1070 1.375 . S
C1068 H1086 0.931 . S
C1069 N1066 1.311 . S
C1069 N1070 1.347 . S
C1069 H1080 0.929 . S
N1070 C1068 1.375 . S
N1070 C1069 1.347 . S
C1071 C1074 1.365 . S
C1071 N1076 1.328 . S
C1071 H1077 0.929 . S
C1072 C1073 1.362 . S
C1072 C1075 1.378 . S
C1072 H1087 0.929 . S
C1073 C1072 1.362 . S
C1073 C1074 1.366 . S
C1074 C1071 1.365 . S
C1074 C1073 1.366 . S
C1074 H1088 0.930 . S
C1075 C1072 1.378 . S
C1075 N1076 1.315 . S
C1075 H1078 0.930 . S
N1076 Co1056 2.194 . S
N1076 C1071 1.328 . S
N1076 C1075 1.315 . S
H1077 C1071 0.929 . S
H1078 C1075 0.930 . S
H1079 C1067 0.929 . S
H1080 C1069 0.929 . S
O1081 Co1056 2.351 . S
O1081 C1084 1.244 . S
O1082 Co1056 2.155 . S
O1082 C1084 1.240 . S
O1083 Co1056 2.096 . S
O1083 C1064 1.247 . S
C1084 O1081 1.244 . S
C1084 O1082 1.240 . S
H1085 C1059 0.931 . S
H1086 C1068 0.931 . S
H1087 C1072 0.929 . S
H1088 C1074 0.930 . S
Co1089 N1093 2.148 . S
Co1089 N1099 2.128 . S
Co1089 N1109 2.194 . S
Co1089 O1114 2.351 . S
Co1089 O1115 2.155 . S
Co1089 O1116 2.096 . S
C1090 N1093 1.301 . S
C1090 N1094 1.328 . S
C1090 H1095 0.930 . S
C1091 C1092 1.333 . S
C1091 N1093 1.317 . S
C1091 H1096 0.930 . S
C1092 C1091 1.333 . S
C1092 N1094 1.350 . S
C1092 H1118 0.931 . S
N1093 Co1089 2.148 . S
N1093 C1090 1.301 . S
N1093 C1091 1.317 . S
N1094 C1090 1.328 . S
N1094 C1092 1.350 . S
H1095 C1090 0.930 . S
H1096 C1091 0.930 . S
C1097 O1098 1.224 . S
C1097 O1116 1.247 . S
O1098 C1097 1.224 . S
N1099 Co1089 2.128 . S
N1099 C1100 1.355 . S
N1099 C1102 1.311 . S
C1100 N1099 1.355 . S
C1100 C1101 1.363 . S
C1100 H1112 0.929 . S
C1101 C1100 1.363 . S
C1101 N1103 1.375 . S
C1101 H1119 0.931 . S
C1102 N1099 1.311 . S
C1102 N1103 1.347 . S
C1102 H1113 0.929 . S
N1103 C1101 1.375 . S
N1103 C1102 1.347 . S
C1104 C1107 1.365 . S
C1104 N1109 1.328 . S
C1104 H1110 0.929 . S
C1105 C1106 1.362 . S
C1105 C1108 1.378 . S
C1105 H1120 0.929 . S
C1106 C1105 1.362 . S
C1106 C1107 1.366 . S
C1107 C1104 1.365 . S
C1107 C1106 1.366 . S
C1107 H1121 0.930 . S
C1108 C1105 1.378 . S
C1108 N1109 1.315 . S
C1108 H1111 0.930 . S
N1109 Co1089 2.194 . S
N1109 C1104 1.328 . S
N1109 C1108 1.315 . S
H1110 C1104 0.929 . S
H1111 C1108 0.930 . S
H1112 C1100 0.929 . S
H1113 C1102 0.929 . S
O1114 Co1089 2.351 . S
O1114 C1117 1.244 . S
O1115 Co1089 2.155 . S
O1115 C1117 1.240 . S
O1116 Co1089 2.096 . S
O1116 C1097 1.247 . S
C1117 O1114 1.244 . S
C1117 O1115 1.240 . S
H1118 C1092 0.931 . S
H1119 C1101 0.931 . S
H1120 C1105 0.929 . S
H1121 C1107 0.930 . S
Co1122 N1126 2.148 . S
Co1122 N1132 2.128 . S
Co1122 N1142 2.194 . S
Co1122 O1147 2.351 . S
Co1122 O1148 2.155 . S
Co1122 O1149 2.096 . S
C1123 N1126 1.301 . S
C1123 N1127 1.328 . S
C1123 H1128 0.930 . S
C1124 C1125 1.333 . S
C1124 N1126 1.317 . S
C1124 H1129 0.930 . S
C1125 C1124 1.333 . S
C1125 N1127 1.350 . S
C1125 H1151 0.931 . S
N1126 Co1122 2.148 . S
N1126 C1123 1.301 . S
N1126 C1124 1.317 . S
N1127 C1123 1.328 . S
N1127 C1125 1.350 . S
H1128 C1123 0.930 . S
H1129 C1124 0.930 . S
C1130 O1131 1.224 . S
C1130 O1149 1.247 . S
O1131 C1130 1.224 . S
N1132 Co1122 2.128 . S
N1132 C1133 1.355 . S
N1132 C1135 1.311 . S
C1133 N1132 1.355 . S
C1133 C1134 1.363 . S
C1133 H1145 0.929 . S
C1134 C1133 1.363 . S
C1134 N1136 1.375 . S
C1134 H1152 0.931 . S
C1135 N1132 1.311 . S
C1135 N1136 1.347 . S
C1135 H1146 0.929 . S
N1136 C1134 1.375 . S
N1136 C1135 1.347 . S
C1137 C1140 1.365 . S
C1137 N1142 1.328 . S
C1137 H1143 0.929 . S
C1138 C1139 1.362 . S
C1138 C1141 1.378 . S
C1138 H1153 0.929 . S
C1139 C1138 1.362 . S
C1139 C1140 1.366 . S
C1140 C1137 1.365 . S
C1140 C1139 1.366 . S
C1140 H1154 0.930 . S
C1141 C1138 1.378 . S
C1141 N1142 1.315 . S
C1141 H1144 0.930 . S
N1142 Co1122 2.194 . S
N1142 C1137 1.328 . S
N1142 C1141 1.315 . S
H1143 C1137 0.929 . S
H1144 C1141 0.930 . S
H1145 C1133 0.929 . S
H1146 C1135 0.929 . S
O1147 Co1122 2.351 . S
O1147 C1150 1.244 . S
O1148 Co1122 2.155 . S
O1148 C1150 1.240 . S
O1149 Co1122 2.096 . S
O1149 C1130 1.247 . S
C1150 O1147 1.244 . S
C1150 O1148 1.240 . S
H1151 C1125 0.931 . S
H1152 C1134 0.931 . S
H1153 C1138 0.929 . S
H1154 C1140 0.930 . S
Co1155 N1159 2.148 . S
Co1155 N1165 2.128 . S
Co1155 N1175 2.194 . S
Co1155 O1180 2.351 . S
Co1155 O1181 2.155 . S
Co1155 O1182 2.096 . S
C1156 N1159 1.301 . S
C1156 N1160 1.328 . S
C1156 H1161 0.930 . S
C1157 C1158 1.333 . S
C1157 N1159 1.317 . S
C1157 H1162 0.930 . S
C1158 C1157 1.333 . S
C1158 N1160 1.350 . S
C1158 H1184 0.931 . S
N1159 Co1155 2.148 . S
N1159 C1156 1.301 . S
N1159 C1157 1.317 . S
N1160 C1156 1.328 . S
N1160 C1158 1.350 . S
H1161 C1156 0.930 . S
H1162 C1157 0.930 . S
C1163 O1164 1.224 . S
C1163 O1182 1.247 . S
O1164 C1163 1.224 . S
N1165 Co1155 2.128 . S
N1165 C1166 1.355 . S
N1165 C1168 1.311 . S
C1166 N1165 1.355 . S
C1166 C1167 1.363 . S
C1166 H1178 0.929 . S
C1167 C1166 1.363 . S
C1167 N1169 1.375 . S
C1167 H1185 0.931 . S
C1168 N1165 1.311 . S
C1168 N1169 1.347 . S
C1168 H1179 0.929 . S
N1169 C1167 1.375 . S
N1169 C1168 1.347 . S
C1170 C1173 1.365 . S
C1170 N1175 1.328 . S
C1170 H1176 0.929 . S
C1171 C1172 1.362 . S
C1171 C1174 1.378 . S
C1171 H1186 0.929 . S
C1172 C1171 1.362 . S
C1172 C1173 1.366 . S
C1173 C1170 1.365 . S
C1173 C1172 1.366 . S
C1173 H1187 0.930 . S
C1174 C1171 1.378 . S
C1174 N1175 1.315 . S
C1174 H1177 0.930 . S
N1175 Co1155 2.194 . S
N1175 C1170 1.328 . S
N1175 C1174 1.315 . S
H1176 C1170 0.929 . S
H1177 C1174 0.930 . S
H1178 C1166 0.929 . S
H1179 C1168 0.929 . S
O1180 Co1155 2.351 . S
O1180 C1183 1.244 . S
O1181 Co1155 2.155 . S
O1181 C1183 1.240 . S
O1182 Co1155 2.096 . S
O1182 C1163 1.247 . S
C1183 O1180 1.244 . S
C1183 O1181 1.240 . S
H1184 C1158 0.931 . S
H1185 C1167 0.931 . S
H1186 C1171 0.929 . S
H1187 C1173 0.930 . S
Co1188 N1192 2.148 . S
Co1188 N1198 2.128 . S
Co1188 N1208 2.194 . S
Co1188 O1213 2.351 . S
Co1188 O1214 2.155 . S
Co1188 O1215 2.096 . S
C1189 N1192 1.301 . S
C1189 N1193 1.328 . S
C1189 H1194 0.930 . S
C1190 C1191 1.333 . S
C1190 N1192 1.317 . S
C1190 H1195 0.930 . S
C1191 C1190 1.333 . S
C1191 N1193 1.350 . S
C1191 H1217 0.931 . S
N1192 Co1188 2.148 . S
N1192 C1189 1.301 . S
N1192 C1190 1.317 . S
N1193 C1189 1.328 . S
N1193 C1191 1.350 . S
H1194 C1189 0.930 . S
H1195 C1190 0.930 . S
C1196 O1197 1.224 . S
C1196 O1215 1.247 . S
O1197 C1196 1.224 . S
N1198 Co1188 2.128 . S
N1198 C1199 1.355 . S
N1198 C1201 1.311 . S
C1199 N1198 1.355 . S
C1199 C1200 1.363 . S
C1199 H1211 0.929 . S
C1200 C1199 1.363 . S
C1200 N1202 1.375 . S
C1200 H1218 0.931 . S
C1201 N1198 1.311 . S
C1201 N1202 1.347 . S
C1201 H1212 0.929 . S
N1202 C1200 1.375 . S
N1202 C1201 1.347 . S
C1203 C1206 1.365 . S
C1203 N1208 1.328 . S
C1203 H1209 0.929 . S
C1204 C1205 1.362 . S
C1204 C1207 1.378 . S
C1204 H1219 0.929 . S
C1205 C1204 1.362 . S
C1205 C1206 1.366 . S
C1206 C1203 1.365 . S
C1206 C1205 1.366 . S
C1206 H1220 0.930 . S
C1207 C1204 1.378 . S
C1207 N1208 1.315 . S
C1207 H1210 0.930 . S
N1208 Co1188 2.194 . S
N1208 C1203 1.328 . S
N1208 C1207 1.315 . S
H1209 C1203 0.929 . S
H1210 C1207 0.930 . S
H1211 C1199 0.929 . S
H1212 C1201 0.929 . S
O1213 Co1188 2.351 . S
O1213 C1216 1.244 . S
O1214 Co1188 2.155 . S
O1214 C1216 1.240 . S
O1215 Co1188 2.096 . S
O1215 C1196 1.247 . S
C1216 O1213 1.244 . S
C1216 O1214 1.240 . S
H1217 C1191 0.931 . S
H1218 C1200 0.931 . S
H1219 C1204 0.929 . S
H1220 C1206 0.930 . S
Co1221 N1225 2.148 . S
Co1221 N1231 2.128 . S
Co1221 N1241 2.194 . S
Co1221 O1246 2.351 . S
Co1221 O1247 2.155 . S
Co1221 O1248 2.096 . S
C1222 N1225 1.301 . S
C1222 N1226 1.328 . S
C1222 H1227 0.930 . S
C1223 C1224 1.333 . S
C1223 N1225 1.317 . S
C1223 H1228 0.930 . S
C1224 C1223 1.333 . S
C1224 N1226 1.350 . S
C1224 H1250 0.931 . S
N1225 Co1221 2.148 . S
N1225 C1222 1.301 . S
N1225 C1223 1.317 . S
N1226 C1222 1.328 . S
N1226 C1224 1.350 . S
H1227 C1222 0.930 . S
H1228 C1223 0.930 . S
C1229 O1230 1.224 . S
C1229 O1248 1.247 . S
O1230 C1229 1.224 . S
N1231 Co1221 2.128 . S
N1231 C1232 1.355 . S
N1231 C1234 1.311 . S
C1232 N1231 1.355 . S
C1232 C1233 1.363 . S
C1232 H1244 0.929 . S
C1233 C1232 1.363 . S
C1233 N1235 1.375 . S
C1233 H1251 0.931 . S
C1234 N1231 1.311 . S
C1234 N1235 1.347 . S
C1234 H1245 0.929 . S
N1235 C1233 1.375 . S
N1235 C1234 1.347 . S
C1236 C1239 1.365 . S
C1236 N1241 1.328 . S
C1236 H1242 0.929 . S
C1237 C1238 1.362 . S
C1237 C1240 1.378 . S
C1237 H1252 0.929 . S
C1238 C1237 1.362 . S
C1238 C1239 1.366 . S
C1239 C1236 1.365 . S
C1239 C1238 1.366 . S
C1239 H1253 0.930 . S
C1240 C1237 1.378 . S
C1240 N1241 1.315 . S
C1240 H1243 0.930 . S
N1241 Co1221 2.194 . S
N1241 C1236 1.328 . S
N1241 C1240 1.315 . S
H1242 C1236 0.929 . S
H1243 C1240 0.930 . S
H1244 C1232 0.929 . S
H1245 C1234 0.929 . S
O1246 Co1221 2.351 . S
O1246 C1249 1.244 . S
O1247 Co1221 2.155 . S
O1247 C1249 1.240 . S
O1248 Co1221 2.096 . S
O1248 C1229 1.247 . S
C1249 O1246 1.244 . S
C1249 O1247 1.240 . S
H1250 C1224 0.931 . S
H1251 C1233 0.931 . S
H1252 C1237 0.929 . S
H1253 C1239 0.930 . S
Co1254 N1258 2.148 . S
Co1254 N1264 2.128 . S
Co1254 N1274 2.194 . S
Co1254 O1279 2.351 . S
Co1254 O1280 2.155 . S
Co1254 O1281 2.096 . S
C1255 N1258 1.301 . S
C1255 N1259 1.328 . S
C1255 H1260 0.930 . S
C1256 C1257 1.333 . S
C1256 N1258 1.317 . S
C1256 H1261 0.930 . S
C1257 C1256 1.333 . S
C1257 N1259 1.350 . S
C1257 H1283 0.931 . S
N1258 Co1254 2.148 . S
N1258 C1255 1.301 . S
N1258 C1256 1.317 . S
N1259 C1255 1.328 . S
N1259 C1257 1.350 . S
H1260 C1255 0.930 . S
H1261 C1256 0.930 . S
C1262 O1263 1.224 . S
C1262 O1281 1.247 . S
O1263 C1262 1.224 . S
N1264 Co1254 2.128 . S
N1264 C1265 1.355 . S
N1264 C1267 1.311 . S
C1265 N1264 1.355 . S
C1265 C1266 1.363 . S
C1265 H1277 0.929 . S
C1266 C1265 1.363 . S
C1266 N1268 1.375 . S
C1266 H1284 0.931 . S
C1267 N1264 1.311 . S
C1267 N1268 1.347 . S
C1267 H1278 0.929 . S
N1268 C1266 1.375 . S
N1268 C1267 1.347 . S
C1269 C1272 1.365 . S
C1269 N1274 1.328 . S
C1269 H1275 0.929 . S
C1270 C1271 1.362 . S
C1270 C1273 1.378 . S
C1270 H1285 0.929 . S
C1271 C1270 1.362 . S
C1271 C1272 1.366 . S
C1272 C1269 1.365 . S
C1272 C1271 1.366 . S
C1272 H1286 0.930 . S
C1273 C1270 1.378 . S
C1273 N1274 1.315 . S
C1273 H1276 0.930 . S
N1274 Co1254 2.194 . S
N1274 C1269 1.328 . S
N1274 C1273 1.315 . S
H1275 C1269 0.929 . S
H1276 C1273 0.930 . S
H1277 C1265 0.929 . S
H1278 C1267 0.929 . S
O1279 Co1254 2.351 . S
O1279 C1282 1.244 . S
O1280 Co1254 2.155 . S
O1280 C1282 1.240 . S
O1281 Co1254 2.096 . S
O1281 C1262 1.247 . S
C1282 O1279 1.244 . S
C1282 O1280 1.240 . S
H1283 C1257 0.931 . S
H1284 C1266 0.931 . S
H1285 C1270 0.929 . S
H1286 C1272 0.930 . S
Co1287 N1291 2.148 . S
Co1287 N1297 2.128 . S
Co1287 N1307 2.194 . S
Co1287 O1312 2.351 . S
Co1287 O1313 2.155 . S
Co1287 O1314 2.096 . S
C1288 N1291 1.301 . S
C1288 N1292 1.328 . S
C1288 H1293 0.930 . S
C1289 C1290 1.333 . S
C1289 N1291 1.317 . S
C1289 H1294 0.930 . S
C1290 C1289 1.333 . S
C1290 N1292 1.350 . S
C1290 H1316 0.931 . S
N1291 Co1287 2.148 . S
N1291 C1288 1.301 . S
N1291 C1289 1.317 . S
N1292 C1288 1.328 . S
N1292 C1290 1.350 . S
H1293 C1288 0.930 . S
H1294 C1289 0.930 . S
C1295 O1296 1.224 . S
C1295 O1314 1.247 . S
O1296 C1295 1.224 . S
N1297 Co1287 2.128 . S
N1297 C1298 1.355 . S
N1297 C1300 1.311 . S
C1298 N1297 1.355 . S
C1298 C1299 1.363 . S
C1298 H1310 0.929 . S
C1299 C1298 1.363 . S
C1299 N1301 1.375 . S
C1299 H1317 0.931 . S
C1300 N1297 1.311 . S
C1300 N1301 1.347 . S
C1300 H1311 0.929 . S
N1301 C1299 1.375 . S
N1301 C1300 1.347 . S
C1302 C1305 1.365 . S
C1302 N1307 1.328 . S
C1302 H1308 0.929 . S
C1303 C1304 1.362 . S
C1303 C1306 1.378 . S
C1303 H1318 0.929 . S
C1304 C1303 1.362 . S
C1304 C1305 1.366 . S
C1305 C1302 1.365 . S
C1305 C1304 1.366 . S
C1305 H1319 0.930 . S
C1306 C1303 1.378 . S
C1306 N1307 1.315 . S
C1306 H1309 0.930 . S
N1307 Co1287 2.194 . S
N1307 C1302 1.328 . S
N1307 C1306 1.315 . S
H1308 C1302 0.929 . S
H1309 C1306 0.930 . S
H1310 C1298 0.929 . S
H1311 C1300 0.929 . S
O1312 Co1287 2.351 . S
O1312 C1315 1.244 . S
O1313 Co1287 2.155 . S
O1313 C1315 1.240 . S
O1314 Co1287 2.096 . S
O1314 C1295 1.247 . S
C1315 O1312 1.244 . S
C1315 O1313 1.240 . S
H1316 C1290 0.931 . S
H1317 C1299 0.931 . S
H1318 C1303 0.929 . S
H1319 C1305 0.930 . S
Co1320 N1324 2.148 . S
Co1320 N1330 2.128 . S
Co1320 N1340 2.194 . S
Co1320 O1345 2.351 . S
Co1320 O1346 2.155 . S
Co1320 O1347 2.096 . S
C1321 N1324 1.301 . S
C1321 N1325 1.328 . S
C1321 H1326 0.930 . S
C1322 C1323 1.333 . S
C1322 N1324 1.317 . S
C1322 H1327 0.930 . S
C1323 C1322 1.333 . S
C1323 N1325 1.350 . S
C1323 H1349 0.931 . S
N1324 Co1320 2.148 . S
N1324 C1321 1.301 . S
N1324 C1322 1.317 . S
N1325 C1321 1.328 . S
N1325 C1323 1.350 . S
H1326 C1321 0.930 . S
H1327 C1322 0.930 . S
C1328 O1329 1.224 . S
C1328 O1347 1.247 . S
O1329 C1328 1.224 . S
N1330 Co1320 2.128 . S
N1330 C1331 1.355 . S
N1330 C1333 1.311 . S
C1331 N1330 1.355 . S
C1331 C1332 1.363 . S
C1331 H1343 0.929 . S
C1332 C1331 1.363 . S
C1332 N1334 1.375 . S
C1332 H1350 0.931 . S
C1333 N1330 1.311 . S
C1333 N1334 1.347 . S
C1333 H1344 0.929 . S
N1334 C1332 1.375 . S
N1334 C1333 1.347 . S
C1335 C1338 1.365 . S
C1335 N1340 1.328 . S
C1335 H1341 0.929 . S
C1336 C1337 1.362 . S
C1336 C1339 1.378 . S
C1336 H1351 0.929 . S
C1337 C1336 1.362 . S
C1337 C1338 1.366 . S
C1338 C1335 1.365 . S
C1338 C1337 1.366 . S
C1338 H1352 0.930 . S
C1339 C1336 1.378 . S
C1339 N1340 1.315 . S
C1339 H1342 0.930 . S
N1340 Co1320 2.194 . S
N1340 C1335 1.328 . S
N1340 C1339 1.315 . S
H1341 C1335 0.929 . S
H1342 C1339 0.930 . S
H1343 C1331 0.929 . S
H1344 C1333 0.929 . S
O1345 Co1320 2.351 . S
O1345 C1348 1.244 . S
O1346 Co1320 2.155 . S
O1346 C1348 1.240 . S
O1347 Co1320 2.096 . S
O1347 C1328 1.247 . S
C1348 O1345 1.244 . S
C1348 O1346 1.240 . S
H1349 C1323 0.931 . S
H1350 C1332 0.931 . S
H1351 C1336 0.929 . S
H1352 C1338 0.930 . S
Co1353 N1357 2.148 . S
Co1353 N1363 2.128 . S
Co1353 N1373 2.194 . S
Co1353 O1378 2.351 . S
Co1353 O1379 2.155 . S
Co1353 O1380 2.096 . S
C1354 N1357 1.301 . S
C1354 N1358 1.328 . S
C1354 H1359 0.930 . S
C1355 C1356 1.333 . S
C1355 N1357 1.317 . S
C1355 H1360 0.930 . S
C1356 C1355 1.333 . S
C1356 N1358 1.350 . S
C1356 H1382 0.931 . S
N1357 Co1353 2.148 . S
N1357 C1354 1.301 . S
N1357 C1355 1.317 . S
N1358 C1354 1.328 . S
N1358 C1356 1.350 . S
H1359 C1354 0.930 . S
H1360 C1355 0.930 . S
C1361 O1362 1.224 . S
C1361 O1380 1.247 . S
O1362 C1361 1.224 . S
N1363 Co1353 2.128 . S
N1363 C1364 1.355 . S
N1363 C1366 1.311 . S
C1364 N1363 1.355 . S
C1364 C1365 1.363 . S
C1364 H1376 0.929 . S
C1365 C1364 1.363 . S
C1365 N1367 1.375 . S
C1365 H1383 0.931 . S
C1366 N1363 1.311 . S
C1366 N1367 1.347 . S
C1366 H1377 0.929 . S
N1367 C1365 1.375 . S
N1367 C1366 1.347 . S
C1368 C1371 1.365 . S
C1368 N1373 1.328 . S
C1368 H1374 0.929 . S
C1369 C1370 1.362 . S
C1369 C1372 1.378 . S
C1369 H1384 0.929 . S
C1370 C1369 1.362 . S
C1370 C1371 1.366 . S
C1371 C1368 1.365 . S
C1371 C1370 1.366 . S
C1371 H1385 0.930 . S
C1372 C1369 1.378 . S
C1372 N1373 1.315 . S
C1372 H1375 0.930 . S
N1373 Co1353 2.194 . S
N1373 C1368 1.328 . S
N1373 C1372 1.315 . S
H1374 C1368 0.929 . S
H1375 C1372 0.930 . S
H1376 C1364 0.929 . S
H1377 C1366 0.929 . S
O1378 Co1353 2.351 . S
O1378 C1381 1.244 . S
O1379 Co1353 2.155 . S
O1379 C1381 1.240 . S
O1380 Co1353 2.096 . S
O1380 C1361 1.247 . S
C1381 O1378 1.244 . S
C1381 O1379 1.240 . S
H1382 C1356 0.931 . S
H1383 C1365 0.931 . S
H1384 C1369 0.929 . S
H1385 C1371 0.930 . S
Co1386 N1390 2.148 . S
Co1386 N1396 2.128 . S
Co1386 N1406 2.194 . S
Co1386 O1411 2.351 . S
Co1386 O1412 2.155 . S
Co1386 O1413 2.096 . S
C1387 N1390 1.301 . S
C1387 N1391 1.328 . S
C1387 H1392 0.930 . S
C1388 C1389 1.333 . S
C1388 N1390 1.317 . S
C1388 H1393 0.930 . S
C1389 C1388 1.333 . S
C1389 N1391 1.350 . S
C1389 H1415 0.931 . S
N1390 Co1386 2.148 . S
N1390 C1387 1.301 . S
N1390 C1388 1.317 . S
N1391 C1387 1.328 . S
N1391 C1389 1.350 . S
H1392 C1387 0.930 . S
H1393 C1388 0.930 . S
C1394 O1395 1.224 . S
C1394 O1413 1.247 . S
O1395 C1394 1.224 . S
N1396 Co1386 2.128 . S
N1396 C1397 1.355 . S
N1396 C1399 1.311 . S
C1397 N1396 1.355 . S
C1397 C1398 1.363 . S
C1397 H1409 0.929 . S
C1398 C1397 1.363 . S
C1398 N1400 1.375 . S
C1398 H1416 0.931 . S
C1399 N1396 1.311 . S
C1399 N1400 1.347 . S
C1399 H1410 0.929 . S
N1400 C1398 1.375 . S
N1400 C1399 1.347 . S
C1401 C1404 1.365 . S
C1401 N1406 1.328 . S
C1401 H1407 0.929 . S
C1402 C1403 1.362 . S
C1402 C1405 1.378 . S
C1402 H1417 0.929 . S
C1403 C1402 1.362 . S
C1403 C1404 1.366 . S
C1404 C1401 1.365 . S
C1404 C1403 1.366 . S
C1404 H1418 0.930 . S
C1405 C1402 1.378 . S
C1405 N1406 1.315 . S
C1405 H1408 0.930 . S
N1406 Co1386 2.194 . S
N1406 C1401 1.328 . S
N1406 C1405 1.315 . S
H1407 C1401 0.929 . S
H1408 C1405 0.930 . S
H1409 C1397 0.929 . S
H1410 C1399 0.929 . S
O1411 Co1386 2.351 . S
O1411 C1414 1.244 . S
O1412 Co1386 2.155 . S
O1412 C1414 1.240 . S
O1413 Co1386 2.096 . S
O1413 C1394 1.247 . S
C1414 O1411 1.244 . S
C1414 O1412 1.240 . S
H1415 C1389 0.931 . S
H1416 C1398 0.931 . S
H1417 C1402 0.929 . S
H1418 C1404 0.930 . S
Co1419 N1423 2.148 . S
Co1419 N1429 2.128 . S
Co1419 N1439 2.194 1_554 S
Co1419 O1444 2.351 1_554 S
Co1419 O1445 2.155 . S
Co1419 O1446 2.096 . S
C1420 N1423 1.301 1_556 S
C1420 N1424 1.328 . S
C1420 H1425 0.930 . S
C1421 C1422 1.333 . S
C1421 N1423 1.317 . S
C1421 H1426 0.930 . S
C1422 C1421 1.333 . S
C1422 N1424 1.350 1_554 S
C1422 H1448 0.931 . S
N1423 Co1419 2.148 . S
N1423 C1420 1.301 1_554 S
N1423 C1421 1.317 . S
N1424 C1420 1.328 . S
N1424 C1422 1.350 1_556 S
H1425 C1420 0.930 . S
H1426 C1421 0.930 . S
C1427 O1428 1.224 . S
C1427 O1446 1.247 . S
O1428 C1427 1.224 . S
N1429 Co1419 2.128 . S
N1429 C1430 1.355 1_554 S
N1429 C1432 1.311 . S
C1430 N1429 1.355 1_556 S
C1430 C1431 1.363 . S
C1430 H1442 0.929 . S
C1431 C1430 1.363 . S
C1431 N1433 1.375 1_556 S
C1431 H1449 0.931 . S
C1432 N1429 1.311 . S
C1432 N1433 1.347 . S
C1432 H1443 0.929 . S
N1433 C1431 1.375 1_554 S
N1433 C1432 1.347 . S
C1434 C1437 1.365 . S
C1434 N1439 1.328 . S
C1434 H1440 0.929 . S
C1435 C1436 1.362 . S
C1435 C1438 1.378 . S
C1435 H1450 0.929 . S
C1436 C1435 1.362 . S
C1436 C1437 1.366 . S
C1437 C1434 1.365 . S
C1437 C1436 1.366 . S
C1437 H1451 0.930 . S
C1438 C1435 1.378 . S
C1438 N1439 1.315 . S
C1438 H1441 0.930 . S
N1439 Co1419 2.194 1_556 S
N1439 C1434 1.328 . S
N1439 C1438 1.315 . S
H1440 C1434 0.929 . S
H1441 C1438 0.930 . S
H1442 C1430 0.929 . S
H1443 C1432 0.929 . S
O1444 Co1419 2.351 1_556 S
O1444 C1447 1.244 1_556 S
O1445 Co1419 2.155 . S
O1445 C1447 1.240 . S
O1446 Co1419 2.096 . S
O1446 C1427 1.247 . S
C1447 O1444 1.244 1_554 S
C1447 O1445 1.240 . S
H1448 C1422 0.931 . S
H1449 C1431 0.931 . S
H1450 C1435 0.929 . S
H1451 C1437 0.930 . S
Co1452 N1456 2.148 . S
Co1452 N1462 2.128 . S
Co1452 N1472 2.194 . S
Co1452 O1477 2.351 . S
Co1452 O1478 2.155 . S
Co1452 O1479 2.096 . S
C1453 N1456 1.301 . S
C1453 N1457 1.328 . S
C1453 H1458 0.930 . S
C1454 C1455 1.333 . S
C1454 N1456 1.317 . S
C1454 H1459 0.930 . S
C1455 C1454 1.333 . S
C1455 N1457 1.350 . S
C1455 H1481 0.931 . S
N1456 Co1452 2.148 . S
N1456 C1453 1.301 . S
N1456 C1454 1.317 . S
N1457 C1453 1.328 . S
N1457 C1455 1.350 . S
H1458 C1453 0.930 . S
H1459 C1454 0.930 . S
C1460 O1461 1.224 . S
C1460 O1479 1.247 . S
O1461 C1460 1.224 . S
N1462 Co1452 2.128 . S
N1462 C1463 1.355 . S
N1462 C1465 1.311 . S
C1463 N1462 1.355 . S
C1463 C1464 1.363 . S
C1463 H1475 0.929 . S
C1464 C1463 1.363 . S
C1464 N1466 1.375 . S
C1464 H1482 0.931 . S
C1465 N1462 1.311 . S
C1465 N1466 1.347 . S
C1465 H1476 0.929 . S
N1466 C1464 1.375 . S
N1466 C1465 1.347 . S
C1467 C1470 1.365 . S
C1467 N1472 1.328 . S
C1467 H1473 0.929 . S
C1468 C1469 1.362 . S
C1468 C1471 1.378 . S
C1468 H1483 0.929 . S
C1469 C1468 1.362 . S
C1469 C1470 1.366 . S
C1470 C1467 1.365 . S
C1470 C1469 1.366 . S
C1470 H1484 0.930 . S
C1471 C1468 1.378 . S
C1471 N1472 1.315 . S
C1471 H1474 0.930 . S
N1472 Co1452 2.194 . S
N1472 C1467 1.328 . S
N1472 C1471 1.315 . S
H1473 C1467 0.929 . S
H1474 C1471 0.930 . S
H1475 C1463 0.929 . S
H1476 C1465 0.929 . S
O1477 Co1452 2.351 . S
O1477 C1480 1.244 . S
O1478 Co1452 2.155 . S
O1478 C1480 1.240 . S
O1479 Co1452 2.096 . S
O1479 C1460 1.247 . S
C1480 O1477 1.244 . S
C1480 O1478 1.240 . S
H1481 C1455 0.931 . S
H1482 C1464 0.931 . S
H1483 C1468 0.929 . S
H1484 C1470 0.930 . S
Co1485 N1489 2.148 . S
Co1485 N1495 2.128 . S
Co1485 N1505 2.194 1_556 S
Co1485 O1510 2.351 1_556 S
Co1485 O1511 2.155 . S
Co1485 O1512 2.096 . S
C1486 N1489 1.301 1_554 S
C1486 N1490 1.328 . S
C1486 H1491 0.930 . S
C1487 C1488 1.333 . S
C1487 N1489 1.317 . S
C1487 H1492 0.930 . S
C1488 C1487 1.333 . S
C1488 N1490 1.350 1_556 S
C1488 H1514 0.931 . S
N1489 Co1485 2.148 . S
N1489 C1486 1.301 1_556 S
N1489 C1487 1.317 . S
N1490 C1486 1.328 . S
N1490 C1488 1.350 1_554 S
H1491 C1486 0.930 . S
H1492 C1487 0.930 . S
C1493 O1494 1.224 . S
C1493 O1512 1.247 . S
O1494 C1493 1.224 . S
N1495 Co1485 2.128 . S
N1495 C1496 1.355 1_556 S
N1495 C1498 1.311 . S
C1496 N1495 1.355 1_554 S
C1496 C1497 1.363 . S
C1496 H1508 0.929 . S
C1497 C1496 1.363 . S
C1497 N1499 1.375 1_554 S
C1497 H1515 0.931 . S
C1498 N1495 1.311 . S
C1498 N1499 1.347 . S
C1498 H1509 0.929 . S
N1499 C1497 1.375 1_556 S
N1499 C1498 1.347 . S
C1500 C1503 1.365 . S
C1500 N1505 1.328 . S
C1500 H1506 0.929 . S
C1501 C1502 1.362 . S
C1501 C1504 1.378 . S
C1501 H1516 0.929 . S
C1502 C1501 1.362 . S
C1502 C1503 1.366 . S
C1503 C1500 1.365 . S
C1503 C1502 1.366 . S
C1503 H1517 0.930 . S
C1504 C1501 1.378 . S
C1504 N1505 1.315 . S
C1504 H1507 0.930 . S
N1505 Co1485 2.194 1_554 S
N1505 C1500 1.328 . S
N1505 C1504 1.315 . S
H1506 C1500 0.929 . S
H1507 C1504 0.930 . S
H1508 C1496 0.929 . S
H1509 C1498 0.929 . S
O1510 Co1485 2.351 1_554 S
O1510 C1513 1.244 1_554 S
O1511 Co1485 2.155 . S
O1511 C1513 1.240 . S
O1512 Co1485 2.096 . S
O1512 C1493 1.247 . S
C1513 O1510 1.244 1_556 S
C1513 O1511 1.240 . S
H1514 C1488 0.931 . S
H1515 C1497 0.931 . S
H1516 C1501 0.929 . S
H1517 C1503 0.930 . S
Co1518 N1522 2.148 . S
Co1518 N1528 2.128 . S
Co1518 N1538 2.194 . S
Co1518 O1543 2.351 . S
Co1518 O1544 2.155 . S
Co1518 O1545 2.096 . S
C1519 N1522 1.301 . S
C1519 N1523 1.328 . S
C1519 H1524 0.930 . S
C1520 C1521 1.333 . S
C1520 N1522 1.317 . S
C1520 H1525 0.930 . S
C1521 C1520 1.333 . S
C1521 N1523 1.350 . S
C1521 H1547 0.931 . S
N1522 Co1518 2.148 . S
N1522 C1519 1.301 . S
N1522 C1520 1.317 . S
N1523 C1519 1.328 . S
N1523 C1521 1.350 . S
H1524 C1519 0.930 . S
H1525 C1520 0.930 . S
C1526 O1527 1.224 . S
C1526 O1545 1.247 . S
O1527 C1526 1.224 . S
N1528 Co1518 2.128 . S
N1528 C1529 1.355 . S
N1528 C1531 1.311 . S
C1529 N1528 1.355 . S
C1529 C1530 1.363 . S
C1529 H1541 0.929 . S
C1530 C1529 1.363 . S
C1530 N1532 1.375 . S
C1530 H1548 0.931 . S
C1531 N1528 1.311 . S
C1531 N1532 1.347 . S
C1531 H1542 0.929 . S
N1532 C1530 1.375 . S
N1532 C1531 1.347 . S
C1533 C1536 1.365 . S
C1533 N1538 1.328 . S
C1533 H1539 0.929 . S
C1534 C1535 1.362 . S
C1534 C1537 1.378 . S
C1534 H1549 0.929 . S
C1535 C1534 1.362 . S
C1535 C1536 1.366 . S
C1536 C1533 1.365 . S
C1536 C1535 1.366 . S
C1536 H1550 0.930 . S
C1537 C1534 1.378 . S
C1537 N1538 1.315 . S
C1537 H1540 0.930 . S
N1538 Co1518 2.194 . S
N1538 C1533 1.328 . S
N1538 C1537 1.315 . S
H1539 C1533 0.929 . S
H1540 C1537 0.930 . S
H1541 C1529 0.929 . S
H1542 C1531 0.929 . S
O1543 Co1518 2.351 . S
O1543 C1546 1.244 . S
O1544 Co1518 2.155 . S
O1544 C1546 1.240 . S
O1545 Co1518 2.096 . S
O1545 C1526 1.247 . S
C1546 O1543 1.244 . S
C1546 O1544 1.240 . S
H1547 C1521 0.931 . S
H1548 C1530 0.931 . S
H1549 C1534 0.929 . S
H1550 C1536 0.930 . S
Co1551 N1555 2.148 . S
Co1551 N1561 2.128 . S
Co1551 N1571 2.194 . S
Co1551 O1576 2.351 . S
Co1551 O1577 2.155 . S
Co1551 O1578 2.096 . S
C1552 N1555 1.301 . S
C1552 N1556 1.328 . S
C1552 H1557 0.930 . S
C1553 C1554 1.333 . S
C1553 N1555 1.317 . S
C1553 H1558 0.930 . S
C1554 C1553 1.333 . S
C1554 N1556 1.350 . S
C1554 H1580 0.931 . S
N1555 Co1551 2.148 . S
N1555 C1552 1.301 . S
N1555 C1553 1.317 . S
N1556 C1552 1.328 . S
N1556 C1554 1.350 . S
H1557 C1552 0.930 . S
H1558 C1553 0.930 . S
C1559 O1560 1.224 . S
C1559 O1578 1.247 . S
O1560 C1559 1.224 . S
N1561 Co1551 2.128 . S
N1561 C1562 1.355 . S
N1561 C1564 1.311 . S
C1562 N1561 1.355 . S
C1562 C1563 1.363 . S
C1562 H1574 0.929 . S
C1563 C1562 1.363 . S
C1563 N1565 1.375 . S
C1563 H1581 0.931 . S
C1564 N1561 1.311 . S
C1564 N1565 1.347 . S
C1564 H1575 0.929 . S
N1565 C1563 1.375 . S
N1565 C1564 1.347 . S
C1566 C1569 1.365 . S
C1566 N1571 1.328 . S
C1566 H1572 0.929 . S
C1567 C1568 1.362 . S
C1567 C1570 1.378 . S
C1567 H1582 0.929 . S
C1568 C1567 1.362 . S
C1568 C1569 1.366 . S
C1569 C1566 1.365 . S
C1569 C1568 1.366 . S
C1569 H1583 0.930 . S
C1570 C1567 1.378 . S
C1570 N1571 1.315 . S
C1570 H1573 0.930 . S
N1571 Co1551 2.194 . S
N1571 C1566 1.328 . S
N1571 C1570 1.315 . S
H1572 C1566 0.929 . S
H1573 C1570 0.930 . S
H1574 C1562 0.929 . S
H1575 C1564 0.929 . S
O1576 Co1551 2.351 . S
O1576 C1579 1.244 . S
O1577 Co1551 2.155 . S
O1577 C1579 1.240 . S
O1578 Co1551 2.096 . S
O1578 C1559 1.247 . S
C1579 O1576 1.244 . S
C1579 O1577 1.240 . S
H1580 C1554 0.931 . S
H1581 C1563 0.931 . S
H1582 C1567 0.929 . S
H1583 C1569 0.930 . S
H1584 C1592 0.950 . S
H1585 C1597 0.950 . S
H1586 C1594 0.950 . S
H1587 C1596 0.950 . S
H1588 C1598 0.950 . S
H1589 C1600 0.950 . S
H1590 C1602 0.950 . S
H1591 C1603 0.950 . S
C1592 H1584 0.950 . S
C1592 C1593 1.386 . S
C1592 C1594 1.391 . S
C1593 C1592 1.386 . S
C1593 C1597 1.393 . S
C1594 H1586 0.950 . S
C1594 C1592 1.391 . S
C1594 C1595 1.400 . S
C1595 C1594 1.400 . S
C1595 C1596 1.398 . S
C1595 C1601 1.491 . S
C1596 H1587 0.950 . S
C1596 C1595 1.398 . S
C1596 C1597 1.391 . S
C1597 H1585 0.950 . S
C1597 C1593 1.393 . S
C1597 C1596 1.391 . S
C1598 H1588 0.950 . S
C1598 C1599 1.386 . S
C1598 C1600 1.391 . S
C1599 C1598 1.386 . S
C1599 C1603 1.393 . S
C1600 H1589 0.950 . S
C1600 C1598 1.391 . S
C1600 C1601 1.400 . S
C1601 C1595 1.491 . S
C1601 C1600 1.400 . S
C1601 C1602 1.398 . S
C1602 H1590 0.950 . S
C1602 C1601 1.398 . S
C1602 C1603 1.391 . S
C1603 H1591 0.950 . S
C1603 C1599 1.393 . S
C1603 C1602 1.391 . S
H1604 C1612 0.950 . S
H1605 C1617 0.950 . S
H1606 C1614 0.950 . S
H1607 C1616 0.950 . S
H1608 C1618 0.950 . S
H1609 C1620 0.950 . S
H1610 C1622 0.950 . S
H1611 C1623 0.950 . S
C1612 H1604 0.950 . S
C1612 C1613 1.386 . S
C1612 C1614 1.391 . S
C1613 C1612 1.386 . S
C1613 C1617 1.393 . S
C1614 H1606 0.950 . S
C1614 C1612 1.391 . S
C1614 C1615 1.400 . S
C1615 C1614 1.400 . S
C1615 C1616 1.398 . S
C1615 C1621 1.491 . S
C1616 H1607 0.950 . S
C1616 C1615 1.398 . S
C1616 C1617 1.391 . S
C1617 H1605 0.950 . S
C1617 C1613 1.393 . S
C1617 C1616 1.391 . S
C1618 H1608 0.950 . S
C1618 C1619 1.386 . S
C1618 C1620 1.391 . S
C1619 C1618 1.386 . S
C1619 C1623 1.393 . S
C1620 H1609 0.950 . S
C1620 C1618 1.391 . S
C1620 C1621 1.400 . S
C1621 C1615 1.491 . S
C1621 C1620 1.400 . S
C1621 C1622 1.398 . S
C1622 H1610 0.950 . S
C1622 C1621 1.398 . S
C1622 C1623 1.391 . S
C1623 H1611 0.950 . S
C1623 C1619 1.393 . S
C1623 C1622 1.391 . S
H1624 C1632 0.950 . S
H1625 C1637 0.950 . S
H1626 C1634 0.950 . S
H1627 C1636 0.950 . S
H1628 C1638 0.950 . S
H1629 C1640 0.950 . S
H1630 C1642 0.950 . S
H1631 C1643 0.950 . S
C1632 H1624 0.950 . S
C1632 C1633 1.386 1_556 S
C1632 C1634 1.391 . S
C1633 C1632 1.386 1_554 S
C1633 C1637 1.393 . S
C1634 H1626 0.950 . S
C1634 C1632 1.391 . S
C1634 C1635 1.400 . S
C1635 C1634 1.400 . S
C1635 C1636 1.398 1_556 S
C1635 C1641 1.491 . S
C1636 H1627 0.950 . S
C1636 C1635 1.398 1_554 S
C1636 C1637 1.391 . S
C1637 H1625 0.950 . S
C1637 C1633 1.393 . S
C1637 C1636 1.391 . S
C1638 H1628 0.950 . S
C1638 C1639 1.386 . S
C1638 C1640 1.391 . S
C1639 C1638 1.386 . S
C1639 C1643 1.393 . S
C1640 H1629 0.950 . S
C1640 C1638 1.391 . S
C1640 C1641 1.400 . S
C1641 C1635 1.491 . S
C1641 C1640 1.400 . S
C1641 C1642 1.398 . S
C1642 H1630 0.950 . S
C1642 C1641 1.398 . S
C1642 C1643 1.391 . S
C1643 H1631 0.950 . S
C1643 C1639 1.393 . S
C1643 C1642 1.391 . S
H1644 C1652 0.950 . S
H1645 C1657 0.950 . S
H1646 C1654 0.950 . S
H1647 C1656 0.950 . S
H1648 C1658 0.950 . S
H1649 C1660 0.950 . S
H1650 C1662 0.950 . S
H1651 C1663 0.950 . S
C1652 H1644 0.950 . S
C1652 C1653 1.386 . S
C1652 C1654 1.391 . S
C1653 C1652 1.386 . S
C1653 C1657 1.393 . S
C1654 H1646 0.950 . S
C1654 C1652 1.391 . S
C1654 C1655 1.400 . S
C1655 C1654 1.400 . S
C1655 C1656 1.398 . S
C1655 C1661 1.491 . S
C1656 H1647 0.950 . S
C1656 C1655 1.398 . S
C1656 C1657 1.391 . S
C1657 H1645 0.950 . S
C1657 C1653 1.393 . S
C1657 C1656 1.391 . S
C1658 H1648 0.950 . S
C1658 C1659 1.386 . S
C1658 C1660 1.391 . S
C1659 C1658 1.386 . S
C1659 C1663 1.393 . S
C1660 H1649 0.950 . S
C1660 C1658 1.391 . S
C1660 C1661 1.400 . S
C1661 C1655 1.491 . S
C1661 C1660 1.400 . S
C1661 C1662 1.398 . S
C1662 H1650 0.950 . S
C1662 C1661 1.398 . S
C1662 C1663 1.391 . S
C1663 H1651 0.950 . S
C1663 C1659 1.393 . S
C1663 C1662 1.391 . S
H1664 C1672 0.950 . S
H1665 C1677 0.954 . S
H1666 C1674 0.950 . S
H1667 C1676 0.950 . S
H1668 C1678 0.950 . S
H1669 C1680 0.950 . S
H1670 C1682 0.950 . S
H1671 C1683 0.950 1_655 S
C1672 H1664 0.950 . S
C1672 C1673 1.386 . S
C1672 C1674 1.391 . S
C1673 C1672 1.386 . S
C1673 C1677 1.369 1_556 S
C1674 H1666 0.950 . S
C1674 C1672 1.391 . S
C1674 C1675 1.400 1_556 S
C1675 C1674 1.400 1_554 S
C1675 C1676 1.398 . S
C1675 C1681 1.491 . S
C1676 H1667 0.950 . S
C1676 C1675 1.398 . S
C1676 C1677 1.411 . S
C1677 H1665 0.954 . S
C1677 C1673 1.369 1_554 S
C1677 C1676 1.411 . S
C1678 H1668 0.950 . S
C1678 C1679 1.386 . S
C1678 C1680 1.391 . S
C1679 C1678 1.386 . S
C1679 C1683 1.393 . S
C1680 H1669 0.950 . S
C1680 C1678 1.391 . S
C1680 C1681 1.400 . S
C1681 C1675 1.491 . S
C1681 C1680 1.400 . S
C1681 C1682 1.398 . S
C1682 H1670 0.950 . S
C1682 C1681 1.398 . S
C1682 C1683 1.391 . S
C1683 H1671 0.950 1_455 S
C1683 C1679 1.393 . S
C1683 C1682 1.391 . S
H1684 C1692 0.950 . S
H1685 C1697 0.950 . S
H1686 C1694 0.950 . S
H1687 C1696 0.950 . S
H1688 C1698 0.950 . S
H1689 C1700 0.950 . S
H1690 C1702 0.950 . S
H1691 C1703 0.950 . S
C1692 H1684 0.950 . S
C1692 C1693 1.386 . S
C1692 C1694 1.391 . S
C1693 C1692 1.386 . S
C1693 C1697 1.393 . S
C1694 H1686 0.950 . S
C1694 C1692 1.391 . S
C1694 C1695 1.400 . S
C1695 C1694 1.400 . S
C1695 C1696 1.398 . S
C1695 C1701 1.491 . S
C1696 H1687 0.950 . S
C1696 C1695 1.398 . S
C1696 C1697 1.391 . S
C1697 H1685 0.950 . S
C1697 C1693 1.393 . S
C1697 C1696 1.391 . S
C1698 H1688 0.950 . S
C1698 C1699 1.386 . S
C1698 C1700 1.391 . S
C1699 C1698 1.386 . S
C1699 C1703 1.393 . S
C1700 H1689 0.950 . S
C1700 C1698 1.391 . S
C1700 C1701 1.400 . S
C1701 C1695 1.491 . S
C1701 C1700 1.400 . S
C1701 C1702 1.398 . S
C1702 H1690 0.950 . S
C1702 C1701 1.398 . S
C1702 C1703 1.391 . S
C1703 H1691 0.950 . S
C1703 C1699 1.393 . S
C1703 C1702 1.391 . S
H1704 C1712 0.950 . S
H1705 C1717 0.950 . S
H1706 C1714 0.950 . S
H1707 C1716 0.950 . S
H1708 C1718 0.950 . S
H1709 C1720 0.950 . S
H1710 C1722 0.950 . S
H1711 C1723 0.950 . S
C1712 H1704 0.950 . S
C1712 C1713 1.386 . S
C1712 C1714 1.391 . S
C1713 C1712 1.386 . S
C1713 C1717 1.393 . S
C1714 H1706 0.950 . S
C1714 C1712 1.391 . S
C1714 C1715 1.400 . S
C1715 C1714 1.400 . S
C1715 C1716 1.398 . S
C1715 C1721 1.491 . S
C1716 H1707 0.950 . S
C1716 C1715 1.398 . S
C1716 C1717 1.391 . S
C1717 H1705 0.950 . S
C1717 C1713 1.393 . S
C1717 C1716 1.391 . S
C1718 H1708 0.950 . S
C1718 C1719 1.386 . S
C1718 C1720 1.391 . S
C1719 C1718 1.386 . S
C1719 C1723 1.393 . S
C1720 H1709 0.950 . S
C1720 C1718 1.391 . S
C1720 C1721 1.400 . S
C1721 C1715 1.491 . S
C1721 C1720 1.400 . S
C1721 C1722 1.398 . S
C1722 H1710 0.950 . S
C1722 C1721 1.398 . S
C1722 C1723 1.391 . S
C1723 H1711 0.950 . S
C1723 C1719 1.393 . S
C1723 C1722 1.391 . S
H1724 C1732 0.950 . S
H1725 C1737 0.950 . S
H1726 C1734 0.950 . S
H1727 C1736 0.950 . S
H1728 C1738 0.950 . S
H1729 C1740 0.950 . S
H1730 C1742 0.950 . S
H1731 C1743 0.950 . S
C1732 H1724 0.950 . S
C1732 C1733 1.386 . S
C1732 C1734 1.391 . S
C1733 C1732 1.386 . S
C1733 C1737 1.393 . S
C1734 H1726 0.950 . S
C1734 C1732 1.391 . S
C1734 C1735 1.400 . S
C1735 C1734 1.400 . S
C1735 C1736 1.398 . S
C1735 C1741 1.491 . S
C1736 H1727 0.950 . S
C1736 C1735 1.398 . S
C1736 C1737 1.391 . S
C1737 H1725 0.950 . S
C1737 C1733 1.393 . S
C1737 C1736 1.391 . S
C1738 H1728 0.950 . S
C1738 C1739 1.386 . S
C1738 C1740 1.391 . S
C1739 C1738 1.386 . S
C1739 C1743 1.393 . S
C1740 H1729 0.950 . S
C1740 C1738 1.391 . S
C1740 C1741 1.400 . S
C1741 C1735 1.491 . S
C1741 C1740 1.400 . S
C1741 C1742 1.398 . S
C1742 H1730 0.950 . S
C1742 C1741 1.398 . S
C1742 C1743 1.391 . S
C1743 H1731 0.950 . S
C1743 C1739 1.393 . S
C1743 C1742 1.391 . S
H1744 C1752 0.950 . S
H1745 C1757 0.950 . S
H1746 C1754 0.950 . S
H1747 C1756 0.950 . S
H1748 C1758 0.950 . S
H1749 C1760 0.950 . S
H1750 C1762 0.950 . S
H1751 C1763 0.950 . S
C1752 H1744 0.950 . S
C1752 C1753 1.386 . S
C1752 C1754 1.391 . S
C1753 C1752 1.386 . S
C1753 C1757 1.393 . S
C1754 H1746 0.950 . S
C1754 C1752 1.391 . S
C1754 C1755 1.400 . S
C1755 C1754 1.400 . S
C1755 C1756 1.398 . S
C1755 C1761 1.491 . S
C1756 H1747 0.950 . S
C1756 C1755 1.398 . S
C1756 C1757 1.391 . S
C1757 H1745 0.950 . S
C1757 C1753 1.393 . S
C1757 C1756 1.391 . S
C1758 H1748 0.950 . S
C1758 C1759 1.386 . S
C1758 C1760 1.391 . S
C1759 C1758 1.386 . S
C1759 C1763 1.393 . S
C1760 H1749 0.950 . S
C1760 C1758 1.391 . S
C1760 C1761 1.400 . S
C1761 C1755 1.491 . S
C1761 C1760 1.400 . S
C1761 C1762 1.398 . S
C1762 H1750 0.950 . S
C1762 C1761 1.398 . S
C1762 C1763 1.391 . S
C1763 H1751 0.950 . S
C1763 C1759 1.393 . S
C1763 C1762 1.391 . S
H1764 C1772 0.950 . S
H1765 C1777 0.950 . S
H1766 C1774 0.950 . S
H1767 C1776 0.950 . S
H1768 C1778 0.950 . S
H1769 C1780 0.950 . S
H1770 C1782 0.950 . S
H1771 C1783 0.950 . S
C1772 H1764 0.950 . S
C1772 C1773 1.386 . S
C1772 C1774 1.391 . S
C1773 C1772 1.386 . S
C1773 C1777 1.393 . S
C1774 H1766 0.950 . S
C1774 C1772 1.391 . S
C1774 C1775 1.400 . S
C1775 C1774 1.400 . S
C1775 C1776 1.398 . S
C1775 C1781 1.491 . S
C1776 H1767 0.950 . S
C1776 C1775 1.398 . S
C1776 C1777 1.391 . S
C1777 H1765 0.950 . S
C1777 C1773 1.393 . S
C1777 C1776 1.391 . S
C1778 H1768 0.950 . S
C1778 C1779 1.386 . S
C1778 C1780 1.391 . S
C1779 C1778 1.386 . S
C1779 C1783 1.393 . S
C1780 H1769 0.950 . S
C1780 C1778 1.391 . S
C1780 C1781 1.400 . S
C1781 C1775 1.491 . S
C1781 C1780 1.400 . S
C1781 C1782 1.398 . S
C1782 H1770 0.950 . S
C1782 C1781 1.398 . S
C1782 C1783 1.391 . S
C1783 H1771 0.950 . S
C1783 C1779 1.393 . S
C1783 C1782 1.391 . S
H1784 C1792 0.950 . S
H1785 C1797 0.950 . S
H1786 C1794 0.950 . S
H1787 C1796 0.950 . S
H1788 C1798 0.950 . S
H1789 C1800 0.950 . S
H1790 C1802 0.950 . S
H1791 C1803 0.950 . S
C1792 H1784 0.950 . S
C1792 C1793 1.386 . S
C1792 C1794 1.391 1_655 S
C1793 C1792 1.386 . S
C1793 C1797 1.393 . S
C1794 H1786 0.950 . S
C1794 C1792 1.391 1_455 S
C1794 C1795 1.400 . S
C1795 C1794 1.400 . S
C1795 C1796 1.398 . S
C1795 C1801 1.491 . S
C1796 H1787 0.950 . S
C1796 C1795 1.398 . S
C1796 C1797 1.391 1_455 S
C1797 H1785 0.950 . S
C1797 C1793 1.393 . S
C1797 C1796 1.391 1_655 S
C1798 H1788 0.950 . S
C1798 C1799 1.386 . S
C1798 C1800 1.391 . S
C1799 C1798 1.386 . S
C1799 C1803 1.393 . S
C1800 H1789 0.950 . S
C1800 C1798 1.391 . S
C1800 C1801 1.400 . S
C1801 C1795 1.491 . S
C1801 C1800 1.400 . S
C1801 C1802 1.398 . S
C1802 H1790 0.950 . S
C1802 C1801 1.398 . S
C1802 C1803 1.391 . S
C1803 H1791 0.950 . S
C1803 C1799 1.393 . S
C1803 C1802 1.391 . S
H1804 C1812 0.950 . S
H1805 C1817 0.950 . S
H1806 C1814 0.950 . S
H1807 C1816 0.950 . S
H1808 C1818 0.950 . S
H1809 C1820 0.950 . S
H1810 C1822 0.950 . S
H1811 C1823 0.950 . S
C1812 H1804 0.950 . S
C1812 C1813 1.386 . S
C1812 C1814 1.391 . S
C1813 C1812 1.386 . S
C1813 C1817 1.393 . S
C1814 H1806 0.950 . S
C1814 C1812 1.391 . S
C1814 C1815 1.400 . S
C1815 C1814 1.400 . S
C1815 C1816 1.398 . S
C1815 C1821 1.491 . S
C1816 H1807 0.950 . S
C1816 C1815 1.398 . S
C1816 C1817 1.391 . S
C1817 H1805 0.950 . S
C1817 C1813 1.393 . S
C1817 C1816 1.391 . S
C1818 H1808 0.950 . S
C1818 C1819 1.386 . S
C1818 C1820 1.391 . S
C1819 C1818 1.386 . S
C1819 C1823 1.393 . S
C1820 H1809 0.950 . S
C1820 C1818 1.391 . S
C1820 C1821 1.400 . S
C1821 C1815 1.491 . S
C1821 C1820 1.400 . S
C1821 C1822 1.398 . S
C1822 H1810 0.950 . S
C1822 C1821 1.398 . S
C1822 C1823 1.391 . S
C1823 H1811 0.950 . S
C1823 C1819 1.393 . S
C1823 C1822 1.391 . S
H1824 C1832 0.950 . S
H1825 C1837 0.950 . S
H1826 C1834 0.950 . S
H1827 C1836 0.950 . S
H1828 C1838 0.950 . S
H1829 C1840 0.950 . S
H1830 C1842 0.950 . S
H1831 C1843 0.950 . S
C1832 H1824 0.950 . S
C1832 C1833 1.386 . S
C1832 C1834 1.391 . S
C1833 C1832 1.386 . S
C1833 C1837 1.393 . S
C1834 H1826 0.950 . S
C1834 C1832 1.391 . S
C1834 C1835 1.400 . S
C1835 C1834 1.400 . S
C1835 C1836 1.398 . S
C1835 C1841 1.491 . S
C1836 H1827 0.950 . S
C1836 C1835 1.398 . S
C1836 C1837 1.391 . S
C1837 H1825 0.950 . S
C1837 C1833 1.393 . S
C1837 C1836 1.391 . S
C1838 H1828 0.950 . S
C1838 C1839 1.386 . S
C1838 C1840 1.391 . S
C1839 C1838 1.386 . S
C1839 C1843 1.393 . S
C1840 H1829 0.950 . S
C1840 C1838 1.391 . S
C1840 C1841 1.400 . S
C1841 C1835 1.491 . S
C1841 C1840 1.400 . S
C1841 C1842 1.398 . S
C1842 H1830 0.950 . S
C1842 C1841 1.398 . S
C1842 C1843 1.391 . S
C1843 H1831 0.950 . S
C1843 C1839 1.393 . S
C1843 C1842 1.391 . S
H1844 C1852 0.950 . S
H1845 C1857 0.950 . S
H1846 C1854 0.950 . S
H1847 C1856 0.950 . S
H1848 C1858 0.950 . S
H1849 C1860 0.950 . S
H1850 C1862 0.950 . S
H1851 C1863 0.950 . S
C1852 H1844 0.950 . S
C1852 C1853 1.386 . S
C1852 C1854 1.391 . S
C1853 C1852 1.386 . S
C1853 C1857 1.393 . S
C1854 H1846 0.950 . S
C1854 C1852 1.391 . S
C1854 C1855 1.400 . S
C1855 C1854 1.400 . S
C1855 C1856 1.398 . S
C1855 C1861 1.491 . S
C1856 H1847 0.950 . S
C1856 C1855 1.398 . S
C1856 C1857 1.391 . S
C1857 H1845 0.950 . S
C1857 C1853 1.393 . S
C1857 C1856 1.391 . S
C1858 H1848 0.950 . S
C1858 C1859 1.386 . S
C1858 C1860 1.391 . S
C1859 C1858 1.386 . S
C1859 C1863 1.393 . S
C1860 H1849 0.950 . S
C1860 C1858 1.391 . S
C1860 C1861 1.400 . S
C1861 C1855 1.491 . S
C1861 C1860 1.400 . S
C1861 C1862 1.398 . S
C1862 H1850 0.950 . S
C1862 C1861 1.398 . S
C1862 C1863 1.391 . S
C1863 H1851 0.950 . S
C1863 C1859 1.393 . S
C1863 C1862 1.391 . S
H1864 C1872 0.950 . S
H1865 C1877 0.950 . S
H1866 C1874 0.905 1_655 S
H1867 C1876 0.950 . S
H1868 C1878 0.950 . S
H1869 C1880 0.950 . S
H1870 C1882 0.950 . S
H1871 C1883 0.950 . S
C1872 H1864 0.950 . S
C1872 C1873 1.386 . S
C1872 C1874 1.391 . S
C1873 C1872 1.386 . S
C1873 C1877 1.393 . S
C1874 H1866 0.905 1_455 S
C1874 C1872 1.391 . S
C1874 C1875 1.400 . S
C1875 C1874 1.400 . S
C1875 C1876 1.398 . S
C1875 C1881 1.491 . S
C1876 H1867 0.950 . S
C1876 C1875 1.398 . S
C1876 C1877 1.391 . S
C1877 H1865 0.950 . S
C1877 C1873 1.393 . S
C1877 C1876 1.391 . S
C1878 H1868 0.950 . S
C1878 C1879 1.386 1_455 S
C1878 C1880 1.391 . S
C1879 C1878 1.386 1_655 S
C1879 C1883 1.393 . S
C1880 H1869 0.950 . S
C1880 C1878 1.391 . S
C1880 C1881 1.400 . S
C1881 C1875 1.491 . S
C1881 C1880 1.400 . S
C1881 C1882 1.398 1_455 S
C1882 H1870 0.950 . S
C1882 C1881 1.398 1_655 S
C1882 C1883 1.391 . S
C1883 H1871 0.950 . S
C1883 C1879 1.393 . S
C1883 C1882 1.391 . S
H1884 C1892 0.950 . S
H1885 C1897 0.950 . S
H1886 C1894 0.950 . S
H1887 C1896 0.950 . S
H1888 C1898 0.950 . S
H1889 C1900 0.950 . S
H1890 C1902 0.950 . S
H1891 C1903 0.950 . S
C1892 H1884 0.950 . S
C1892 C1893 1.386 . S
C1892 C1894 1.391 . S
C1893 C1892 1.386 . S
C1893 C1897 1.393 . S
C1894 H1886 0.950 . S
C1894 C1892 1.391 . S
C1894 C1895 1.400 . S
C1895 C1894 1.400 . S
C1895 C1896 1.398 . S
C1895 C1901 1.491 . S
C1896 H1887 0.950 . S
C1896 C1895 1.398 . S
C1896 C1897 1.391 . S
C1897 H1885 0.950 . S
C1897 C1893 1.393 . S
C1897 C1896 1.391 . S
C1898 H1888 0.950 . S
C1898 C1899 1.386 . S
C1898 C1900 1.391 . S
C1899 C1898 1.386 . S
C1899 C1903 1.393 . S
C1900 H1889 0.950 . S
C1900 C1898 1.391 . S
C1900 C1901 1.400 . S
C1901 C1895 1.491 . S
C1901 C1900 1.400 . S
C1901 C1902 1.398 . S
C1902 H1890 0.950 . S
C1902 C1901 1.398 . S
C1902 C1903 1.391 . S
C1903 H1891 0.950 . S
C1903 C1899 1.393 . S
C1903 C1902 1.391 . S
H1904 C1912 0.950 1_556 S
H1905 C1917 0.950 . S
H1906 C1914 0.950 . S
H1907 C1916 0.950 . S
H1908 C1918 0.950 . S
H1909 C1920 0.950 . S
H1910 C1922 0.950 . S
H1911 C1923 0.950 . S
C1912 H1904 0.950 1_554 S
C1912 C1913 1.386 . S
C1912 C1914 1.391 . S
C1913 C1912 1.386 . S
C1913 C1917 1.393 . S
C1914 H1906 0.950 . S
C1914 C1912 1.391 . S
C1914 C1915 1.400 . S
C1915 C1914 1.400 . S
C1915 C1916 1.398 . S
C1915 C1921 1.491 . S
C1916 H1907 0.950 . S
C1916 C1915 1.398 . S
C1916 C1917 1.391 . S
C1917 H1905 0.950 . S
C1917 C1913 1.393 . S
C1917 C1916 1.391 . S
C1918 H1908 0.950 . S
C1918 C1919 1.386 . S
C1918 C1920 1.391 . S
C1919 C1918 1.386 . S
C1919 C1923 1.393 . S
C1920 H1909 0.950 . S
C1920 C1918 1.391 . S
C1920 C1921 1.400 . S
C1921 C1915 1.491 . S
C1921 C1920 1.400 . S
C1921 C1922 1.398 . S
C1922 H1910 0.950 . S
C1922 C1921 1.398 . S
C1922 C1923 1.391 . S
C1923 H1911 0.950 . S
C1923 C1919 1.393 . S
C1923 C1922 1.391 . S
H1924 C1932 0.950 . S
H1925 C1937 0.950 . S
H1926 C1934 0.950 . S
H1927 C1936 0.950 . S
H1928 C1938 0.927 1_554 S
H1929 C1940 0.950 . S
H1930 C1942 0.950 . S
H1931 C1943 0.950 . S
C1932 H1924 0.950 . S
C1932 C1933 1.386 . S
C1932 C1934 1.391 1_565 S
C1933 C1932 1.386 . S
C1933 C1937 1.393 . S
C1934 H1926 0.950 . S
C1934 C1932 1.391 1_545 S
C1934 C1935 1.400 . S
C1935 C1934 1.400 . S
C1935 C1936 1.398 . S
C1935 C1941 1.491 . S
C1936 H1927 0.950 . S
C1936 C1935 1.398 . S
C1936 C1937 1.391 1_545 S
C1937 H1925 0.950 . S
C1937 C1933 1.393 . S
C1937 C1936 1.391 1_565 S
C1938 H1928 0.927 1_556 S
C1938 C1939 1.386 . S
C1938 C1940 1.391 . S
C1939 C1938 1.386 . S
C1939 C1943 1.393 . S
C1940 H1929 0.950 . S
C1940 C1938 1.391 . S
C1940 C1941 1.400 . S
C1941 C1935 1.491 . S
C1941 C1940 1.400 . S
C1941 C1942 1.398 . S
C1942 H1930 0.950 . S
C1942 C1941 1.398 . S
C1942 C1943 1.391 . S
C1943 H1931 0.950 . S
C1943 C1939 1.393 . S
C1943 C1942 1.391 . S
H1944 C1952 0.950 . S
H1945 C1957 0.950 . S
H1946 C1954 0.950 . S
H1947 C1956 0.950 . S
H1948 C1958 0.950 . S
H1949 C1960 0.950 . S
H1950 C1962 0.950 . S
H1951 C1963 0.950 . S
C1952 H1944 0.950 . S
C1952 C1953 1.386 . S
C1952 C1954 1.391 . S
C1953 C1952 1.386 . S
C1953 C1957 1.393 . S
C1954 H1946 0.950 . S
C1954 C1952 1.391 . S
C1954 C1955 1.400 . S
C1955 C1954 1.400 . S
C1955 C1956 1.398 . S
C1955 C1961 1.491 . S
C1956 H1947 0.950 . S
C1956 C1955 1.398 . S
C1956 C1957 1.391 . S
C1957 H1945 0.950 . S
C1957 C1953 1.393 . S
C1957 C1956 1.391 . S
C1958 H1948 0.950 . S
C1958 C1959 1.386 . S
C1958 C1960 1.391 . S
C1959 C1958 1.386 . S
C1959 C1963 1.393 . S
C1960 H1949 0.950 . S
C1960 C1958 1.391 . S
C1960 C1961 1.400 . S
C1961 C1955 1.491 . S
C1961 C1960 1.400 . S
C1961 C1962 1.398 . S
C1962 H1950 0.950 . S
C1962 C1961 1.398 . S
C1962 C1963 1.391 . S
C1963 H1951 0.950 . S
C1963 C1959 1.393 . S
C1963 C1962 1.391 . S
H1964 C1972 0.950 . S
H1965 C1977 0.950 . S
H1966 C1974 0.950 . S
H1967 C1976 0.950 . S
H1968 C1978 0.950 . S
H1969 C1980 0.950 . S
H1970 C1982 0.950 . S
H1971 C1983 0.950 . S
C1972 H1964 0.950 . S
C1972 C1973 1.386 . S
C1972 C1974 1.391 . S
C1973 C1972 1.386 . S
C1973 C1977 1.393 1_545 S
C1974 H1966 0.950 . S
C1974 C1972 1.391 . S
C1974 C1975 1.400 1_545 S
C1975 C1974 1.400 1_565 S
C1975 C1976 1.398 . S
C1975 C1981 1.491 . S
C1976 H1967 0.950 . S
C1976 C1975 1.398 . S
C1976 C1977 1.391 . S
C1977 H1965 0.950 . S
C1977 C1973 1.393 1_565 S
C1977 C1976 1.391 . S
C1978 H1968 0.950 . S
C1978 C1979 1.386 . S
C1978 C1980 1.391 . S
C1979 C1978 1.386 . S
C1979 C1983 1.393 . S
C1980 H1969 0.950 . S
C1980 C1978 1.391 . S
C1980 C1981 1.400 . S
C1981 C1975 1.491 . S
C1981 C1980 1.400 . S
C1981 C1982 1.398 . S
C1982 H1970 0.950 . S
C1982 C1981 1.398 . S
C1982 C1983 1.391 . S
C1983 H1971 0.950 . S
C1983 C1979 1.393 . S
C1983 C1982 1.391 . S
H1984 C1992 0.950 . S
H1985 C1997 0.950 . S
H1986 C1994 0.950 . S
H1987 C1996 0.950 . S
H1988 C1998 0.950 . S
H1989 C2000 0.950 . S
H1990 C2002 0.950 . S
H1991 C2003 0.950 . S
C1992 H1984 0.950 . S
C1992 C1993 1.386 . S
C1992 C1994 1.391 . S
C1993 C1992 1.386 . S
C1993 C1997 1.393 . S
C1994 H1986 0.950 . S
C1994 C1992 1.391 . S
C1994 C1995 1.400 . S
C1995 C1994 1.400 . S
C1995 C1996 1.398 . S
C1995 C2001 1.491 . S
C1996 H1987 0.950 . S
C1996 C1995 1.398 . S
C1996 C1997 1.391 . S
C1997 H1985 0.950 . S
C1997 C1993 1.393 . S
C1997 C1996 1.391 . S
C1998 H1988 0.950 . S
C1998 C1999 1.386 . S
C1998 C2000 1.391 . S
C1999 C1998 1.386 . S
C1999 C2003 1.393 . S
C2000 H1989 0.950 . S
C2000 C1998 1.391 . S
C2000 C2001 1.400 . S
C2001 C1995 1.491 . S
C2001 C2000 1.400 . S
C2001 C2002 1.398 . S
C2002 H1990 0.950 . S
C2002 C2001 1.398 . S
C2002 C2003 1.391 . S
C2003 H1991 0.950 . S
C2003 C1999 1.393 . S
C2003 C2002 1.391 . S
H2004 C2012 0.950 . S
H2005 C2017 0.950 . S
H2006 C2014 0.950 . S
H2007 C2016 0.950 . S
H2008 C2018 0.950 . S
H2009 C2020 0.950 . S
H2010 C2022 0.950 . S
H2011 C2023 0.950 . S
C2012 H2004 0.950 . S
C2012 C2013 1.386 . S
C2012 C2014 1.391 . S
C2013 C2012 1.386 . S
C2013 C2017 1.393 . S
C2014 H2006 0.950 . S
C2014 C2012 1.391 . S
C2014 C2015 1.400 . S
C2015 C2014 1.400 . S
C2015 C2016 1.398 . S
C2015 C2021 1.491 . S
C2016 H2007 0.950 . S
C2016 C2015 1.398 . S
C2016 C2017 1.391 . S
C2017 H2005 0.950 . S
C2017 C2013 1.393 . S
C2017 C2016 1.391 . S
C2018 H2008 0.950 . S
C2018 C2019 1.386 . S
C2018 C2020 1.391 . S
C2019 C2018 1.386 . S
C2019 C2023 1.393 . S
C2020 H2009 0.950 . S
C2020 C2018 1.391 . S
C2020 C2021 1.400 . S
C2021 C2015 1.491 . S
C2021 C2020 1.400 . S
C2021 C2022 1.398 . S
C2022 H2010 0.950 . S
C2022 C2021 1.398 . S
C2022 C2023 1.391 . S
C2023 H2011 0.950 . S
C2023 C2019 1.393 . S
C2023 C2022 1.391 . S
H2024 C2032 0.950 . S
H2025 C2037 0.950 . S
H2026 C2034 0.950 . S
H2027 C2036 0.950 . S
H2028 C2038 0.950 . S
H2029 C2040 0.950 . S
H2030 C2042 0.950 . S
H2031 C2043 0.950 . S
C2032 H2024 0.950 . S
C2032 C2033 1.386 . S
C2032 C2034 1.391 . S
C2033 C2032 1.386 . S
C2033 C2037 1.393 . S
C2034 H2026 0.950 . S
C2034 C2032 1.391 . S
C2034 C2035 1.400 . S
C2035 C2034 1.400 . S
C2035 C2036 1.398 . S
C2035 C2041 1.491 . S
C2036 H2027 0.950 . S
C2036 C2035 1.398 . S
C2036 C2037 1.391 . S
C2037 H2025 0.950 . S
C2037 C2033 1.393 . S
C2037 C2036 1.391 . S
C2038 H2028 0.950 . S
C2038 C2039 1.386 . S
C2038 C2040 1.391 . S
C2039 C2038 1.386 . S
C2039 C2043 1.393 . S
C2040 H2029 0.950 . S
C2040 C2038 1.391 . S
C2040 C2041 1.400 . S
C2041 C2035 1.491 . S
C2041 C2040 1.400 . S
C2041 C2042 1.398 . S
C2042 H2030 0.950 . S
C2042 C2041 1.398 . S
C2042 C2043 1.391 . S
C2043 H2031 0.950 . S
C2043 C2039 1.393 . S
C2043 C2042 1.391 . S
H2044 C2052 0.950 . S
H2045 C2057 0.950 . S
H2046 C2054 0.950 . S
H2047 C2056 0.950 . S
H2048 C2058 0.950 . S
H2049 C2060 0.950 . S
H2050 C2062 0.950 . S
H2051 C2063 0.950 . S
C2052 H2044 0.950 . S
C2052 C2053 1.386 . S
C2052 C2054 1.391 . S
C2053 C2052 1.386 . S
C2053 C2057 1.393 . S
C2054 H2046 0.950 . S
C2054 C2052 1.391 . S
C2054 C2055 1.400 . S
C2055 C2054 1.400 . S
C2055 C2056 1.398 . S
C2055 C2061 1.491 . S
C2056 H2047 0.950 . S
C2056 C2055 1.398 . S
C2056 C2057 1.391 . S
C2057 H2045 0.950 . S
C2057 C2053 1.393 . S
C2057 C2056 1.391 . S
C2058 H2048 0.950 . S
C2058 C2059 1.386 . S
C2058 C2060 1.391 . S
C2059 C2058 1.386 . S
C2059 C2063 1.393 . S
C2060 H2049 0.950 . S
C2060 C2058 1.391 . S
C2060 C2061 1.400 . S
C2061 C2055 1.491 . S
C2061 C2060 1.400 . S
C2061 C2062 1.398 . S
C2062 H2050 0.950 . S
C2062 C2061 1.398 . S
C2062 C2063 1.391 . S
C2063 H2051 0.950 . S
C2063 C2059 1.393 . S
C2063 C2062 1.391 . S
H2064 C2072 0.950 . S
H2065 C2077 0.950 . S
H2066 C2074 0.950 . S
H2067 C2076 0.950 . S
H2068 C2078 0.950 . S
H2069 C2080 0.950 . S
H2070 C2082 0.950 . S
H2071 C2083 0.950 . S
C2072 H2064 0.950 . S
C2072 C2073 1.386 . S
C2072 C2074 1.391 . S
C2073 C2072 1.386 . S
C2073 C2077 1.393 . S
C2074 H2066 0.950 . S
C2074 C2072 1.391 . S
C2074 C2075 1.400 . S
C2075 C2074 1.400 . S
C2075 C2076 1.398 . S
C2075 C2081 1.491 . S
C2076 H2067 0.950 . S
C2076 C2075 1.398 . S
C2076 C2077 1.391 . S
C2077 H2065 0.950 . S
C2077 C2073 1.393 . S
C2077 C2076 1.391 . S
C2078 H2068 0.950 . S
C2078 C2079 1.386 1_556 S
C2078 C2080 1.391 . S
C2079 C2078 1.386 1_554 S
C2079 C2083 1.393 . S
C2080 H2069 0.950 . S
C2080 C2078 1.391 . S
C2080 C2081 1.400 . S
C2081 C2075 1.491 . S
C2081 C2080 1.400 . S
C2081 C2082 1.398 1_556 S
C2082 H2070 0.950 . S
C2082 C2081 1.398 1_554 S
C2082 C2083 1.391 . S
C2083 H2071 0.950 . S
C2083 C2079 1.393 . S
C2083 C2082 1.391 . S
H2084 C2092 0.950 . S
H2085 C2097 0.950 . S
H2086 C2094 0.950 . S
H2087 C2096 0.950 . S
H2088 C2098 0.950 . S
H2089 C2100 0.950 . S
H2090 C2102 0.950 . S
H2091 C2103 0.950 . S
C2092 H2084 0.950 . S
C2092 C2093 1.386 . S
C2092 C2094 1.391 . S
C2093 C2092 1.386 . S
C2093 C2097 1.393 . S
C2094 H2086 0.950 . S
C2094 C2092 1.391 . S
C2094 C2095 1.400 . S
C2095 C2094 1.400 . S
C2095 C2096 1.398 . S
C2095 C2101 1.491 . S
C2096 H2087 0.950 . S
C2096 C2095 1.398 . S
C2096 C2097 1.391 . S
C2097 H2085 0.950 . S
C2097 C2093 1.393 . S
C2097 C2096 1.391 . S
C2098 H2088 0.950 . S
C2098 C2099 1.386 . S
C2098 C2100 1.391 . S
C2099 C2098 1.386 . S
C2099 C2103 1.393 . S
C2100 H2089 0.950 . S
C2100 C2098 1.391 . S
C2100 C2101 1.400 . S
C2101 C2095 1.491 . S
C2101 C2100 1.400 . S
C2101 C2102 1.398 . S
C2102 H2090 0.950 . S
C2102 C2101 1.398 . S
C2102 C2103 1.391 . S
C2103 H2091 0.950 . S
C2103 C2099 1.393 . S
C2103 C2102 1.391 . S
H2104 C2112 0.950 . S
H2105 C2117 0.950 . S
H2106 C2114 0.950 . S
H2107 C2116 0.950 . S
H2108 C2118 0.950 . S
H2109 C2120 0.950 . S
H2110 C2122 0.950 . S
H2111 C2123 0.951 . S
C2112 H2104 0.950 . S
C2112 C2113 1.386 . S
C2112 C2114 1.391 . S
C2113 C2112 1.386 . S
C2113 C2117 1.393 . S
C2114 H2106 0.950 . S
C2114 C2112 1.391 . S
C2114 C2115 1.400 . S
C2115 C2114 1.400 . S
C2115 C2116 1.398 . S
C2115 C2121 1.491 . S
C2116 H2107 0.950 . S
C2116 C2115 1.398 . S
C2116 C2117 1.391 . S
C2117 H2105 0.950 . S
C2117 C2113 1.393 . S
C2117 C2116 1.391 . S
C2118 H2108 0.950 . S
C2118 C2119 1.386 . S
C2118 C2120 1.391 . S
C2119 C2118 1.386 . S
C2119 C2123 1.393 . S
C2120 H2109 0.950 . S
C2120 C2118 1.391 . S
C2120 C2121 1.400 . S
C2121 C2115 1.491 . S
C2121 C2120 1.400 . S
C2121 C2122 1.398 . S
C2122 H2110 0.950 . S
C2122 C2121 1.398 . S
C2122 C2123 1.391 . S
C2123 H2111 0.951 . S
C2123 C2119 1.393 . S
C2123 C2122 1.391 . S
H2124 C2132 0.950 . S
H2125 C2137 0.950 . S
H2126 C2134 0.950 . S
H2127 C2136 0.950 . S
H2128 C2138 0.950 . S
H2129 C2140 0.950 . S
H2130 C2142 0.950 . S
H2131 C2143 0.950 . S
C2132 H2124 0.950 . S
C2132 C2133 1.386 . S
C2132 C2134 1.391 . S
C2133 C2132 1.386 . S
C2133 C2137 1.393 . S
C2134 H2126 0.950 . S
C2134 C2132 1.391 . S
C2134 C2135 1.400 . S
C2135 C2134 1.400 . S
C2135 C2136 1.398 . S
C2135 C2141 1.491 . S
C2136 H2127 0.950 . S
C2136 C2135 1.398 . S
C2136 C2137 1.391 . S
C2137 H2125 0.950 . S
C2137 C2133 1.393 . S
C2137 C2136 1.391 . S
C2138 H2128 0.950 . S
C2138 C2139 1.386 . S
C2138 C2140 1.391 . S
C2139 C2138 1.386 . S
C2139 C2143 1.393 . S
C2140 H2129 0.950 . S
C2140 C2138 1.391 . S
C2140 C2141 1.400 . S
C2141 C2135 1.491 . S
C2141 C2140 1.400 . S
C2141 C2142 1.398 . S
C2142 H2130 0.950 . S
C2142 C2141 1.398 . S
C2142 C2143 1.391 . S
C2143 H2131 0.950 . S
C2143 C2139 1.393 . S
C2143 C2142 1.391 . S
H2144 C2152 0.950 . S
H2145 C2157 0.950 . S
H2146 C2154 0.950 . S
H2147 C2156 0.950 . S
H2148 C2158 0.950 . S
H2149 C2160 0.950 . S
H2150 C2162 0.950 . S
H2151 C2163 0.950 . S
C2152 H2144 0.950 . S
C2152 C2153 1.386 . S
C2152 C2154 1.391 . S
C2153 C2152 1.386 . S
C2153 C2157 1.393 . S
C2154 H2146 0.950 . S
C2154 C2152 1.391 . S
C2154 C2155 1.400 . S
C2155 C2154 1.400 . S
C2155 C2156 1.398 . S
C2155 C2161 1.491 . S
C2156 H2147 0.950 . S
C2156 C2155 1.398 . S
C2156 C2157 1.391 . S
C2157 H2145 0.950 . S
C2157 C2153 1.393 . S
C2157 C2156 1.391 . S
C2158 H2148 0.950 . S
C2158 C2159 1.386 . S
C2158 C2160 1.391 . S
C2159 C2158 1.386 . S
C2159 C2163 1.393 . S
C2160 H2149 0.950 . S
C2160 C2158 1.391 . S
C2160 C2161 1.400 . S
C2161 C2155 1.491 . S
C2161 C2160 1.400 . S
C2161 C2162 1.398 . S
C2162 H2150 0.950 . S
C2162 C2161 1.398 . S
C2162 C2163 1.391 . S
C2163 H2151 0.950 . S
C2163 C2159 1.393 . S
C2163 C2162 1.391 . S
H2164 C2172 0.950 . S
H2165 C2177 0.950 . S
H2166 C2174 0.950 . S
H2167 C2176 0.950 . S
H2168 C2178 0.950 . S
H2169 C2180 0.950 . S
H2170 C2182 0.950 . S
H2171 C2183 0.950 . S
C2172 H2164 0.950 . S
C2172 C2173 1.386 . S
C2172 C2174 1.391 . S
C2173 C2172 1.386 . S
C2173 C2177 1.393 . S
C2174 H2166 0.950 . S
C2174 C2172 1.391 . S
C2174 C2175 1.400 . S
C2175 C2174 1.400 . S
C2175 C2176 1.398 . S
C2175 C2181 1.491 . S
C2176 H2167 0.950 . S
C2176 C2175 1.398 . S
C2176 C2177 1.391 . S
C2177 H2165 0.950 . S
C2177 C2173 1.393 . S
C2177 C2176 1.391 . S
C2178 H2168 0.950 . S
C2178 C2179 1.386 . S
C2178 C2180 1.391 . S
C2179 C2178 1.386 . S
C2179 C2183 1.393 . S
C2180 H2169 0.950 . S
C2180 C2178 1.391 . S
C2180 C2181 1.400 . S
C2181 C2175 1.491 . S
C2181 C2180 1.400 . S
C2181 C2182 1.398 . S
C2182 H2170 0.950 . S
C2182 C2181 1.398 . S
C2182 C2183 1.391 . S
C2183 H2171 0.950 . S
C2183 C2179 1.393 . S
C2183 C2182 1.391 . S
H2184 C2192 0.950 . S
H2185 C2197 0.950 . S
H2186 C2194 0.950 . S
H2187 C2196 0.950 . S
H2188 C2198 0.950 . S
H2189 C2200 1.005 . S
H2190 C2202 0.950 . S
H2191 C2203 0.950 . S
C2192 H2184 0.950 . S
C2192 C2193 1.386 1_554 S
C2192 C2194 1.391 . S
C2193 C2192 1.386 1_556 S
C2193 C2197 1.393 . S
C2194 H2186 0.950 . S
C2194 C2192 1.391 . S
C2194 C2195 1.400 . S
C2195 C2194 1.400 . S
C2195 C2196 1.398 1_554 S
C2195 C2201 1.491 . S
C2196 H2187 0.950 . S
C2196 C2195 1.398 1_556 S
C2196 C2197 1.391 . S
C2197 H2185 0.950 . S
C2197 C2193 1.393 . S
C2197 C2196 1.391 . S
C2198 H2188 0.950 . S
C2198 C2199 1.386 . S
C2198 C2200 1.391 . S
C2199 C2198 1.386 . S
C2199 C2203 1.393 . S
C2200 H2189 1.005 . S
C2200 C2198 1.391 . S
C2200 C2201 1.400 . S
C2201 C2195 1.491 . S
C2201 C2200 1.400 . S
C2201 C2202 1.398 . S
C2202 H2190 0.950 . S
C2202 C2201 1.398 . S
C2202 C2203 1.391 . S
C2203 H2191 0.950 . S
C2203 C2199 1.393 . S
C2203 C2202 1.391 . S
H2204 C2212 0.950 . S
H2205 C2217 0.950 . S
H2206 C2214 0.950 . S
H2207 C2216 0.950 . S
H2208 C2218 0.950 . S
H2209 C2220 0.950 . S
H2210 C2222 0.950 . S
H2211 C2223 0.950 . S
C2212 H2204 0.950 . S
C2212 C2213 1.386 . S
C2212 C2214 1.391 . S
C2213 C2212 1.386 . S
C2213 C2217 1.393 . S
C2214 H2206 0.950 . S
C2214 C2212 1.391 . S
C2214 C2215 1.400 . S
C2215 C2214 1.400 . S
C2215 C2216 1.398 . S
C2215 C2221 1.491 . S
C2216 H2207 0.950 . S
C2216 C2215 1.398 . S
C2216 C2217 1.391 . S
C2217 H2205 0.950 . S
C2217 C2213 1.393 . S
C2217 C2216 1.391 . S
C2218 H2208 0.950 . S
C2218 C2219 1.386 . S
C2218 C2220 1.391 . S
C2219 C2218 1.386 . S
C2219 C2223 1.393 . S
C2220 H2209 0.950 . S
C2220 C2218 1.391 . S
C2220 C2221 1.400 . S
C2221 C2215 1.491 . S
C2221 C2220 1.400 . S
C2221 C2222 1.398 . S
C2222 H2210 0.950 . S
C2222 C2221 1.398 . S
C2222 C2223 1.391 . S
C2223 H2211 0.950 . S
C2223 C2219 1.393 . S
C2223 C2222 1.391 . S
H2224 C2232 0.950 . S
H2225 C2237 0.950 . S
H2226 C2234 0.950 . S
H2227 C2236 0.950 . S
H2228 C2238 0.950 . S
H2229 C2240 0.950 . S
H2230 C2242 0.950 . S
H2231 C2243 0.950 1_455 S
C2232 H2224 0.950 . S
C2232 C2233 1.386 . S
C2232 C2234 1.391 . S
C2233 C2232 1.386 . S
C2233 C2237 1.393 . S
C2234 H2226 0.950 . S
C2234 C2232 1.391 . S
C2234 C2235 1.400 . S
C2235 C2234 1.400 . S
C2235 C2236 1.398 . S
C2235 C2241 1.491 . S
C2236 H2227 0.950 . S
C2236 C2235 1.398 . S
C2236 C2237 1.391 . S
C2237 H2225 0.950 . S
C2237 C2233 1.393 . S
C2237 C2236 1.391 . S
C2238 H2228 0.950 . S
C2238 C2239 1.386 . S
C2238 C2240 1.382 1_455 S
C2239 C2238 1.386 . S
C2239 C2243 1.394 1_455 S
C2240 H2229 0.950 . S
C2240 C2238 1.382 1_655 S
C2240 C2241 1.409 . S
C2241 C2235 1.491 . S
C2241 C2240 1.409 . S
C2241 C2242 1.398 . S
C2242 H2230 0.950 . S
C2242 C2241 1.398 . S
C2242 C2243 1.389 . S
C2243 H2231 0.950 1_655 S
C2243 C2239 1.394 1_655 S
C2243 C2242 1.389 . S
H2244 C2252 0.950 . S
H2245 C2257 0.950 . S
H2246 C2254 0.950 . S
H2247 C2256 0.950 . S
H2248 C2258 0.950 . S
H2249 C2260 0.950 . S
H2250 C2262 0.950 . S
H2251 C2263 0.950 . S
C2252 H2244 0.950 . S
C2252 C2253 1.386 . S
C2252 C2254 1.391 . S
C2253 C2252 1.386 . S
C2253 C2257 1.393 . S
C2254 H2246 0.950 . S
C2254 C2252 1.391 . S
C2254 C2255 1.400 . S
C2255 C2254 1.400 . S
C2255 C2256 1.398 . S
C2255 C2261 1.491 . S
C2256 H2247 0.950 . S
C2256 C2255 1.398 . S
C2256 C2257 1.391 . S
C2257 H2245 0.950 . S
C2257 C2253 1.393 . S
C2257 C2256 1.391 . S
C2258 H2248 0.950 . S
C2258 C2259 1.386 . S
C2258 C2260 1.391 . S
C2259 C2258 1.386 . S
C2259 C2263 1.393 . S
C2260 H2249 0.950 . S
C2260 C2258 1.391 . S
C2260 C2261 1.400 . S
C2261 C2255 1.491 . S
C2261 C2260 1.400 . S
C2261 C2262 1.398 . S
C2262 H2250 0.950 . S
C2262 C2261 1.398 . S
C2262 C2263 1.391 . S
C2263 H2251 0.950 . S
C2263 C2259 1.393 . S
C2263 C2262 1.391 . S
H2264 C2272 0.950 . S
H2265 C2277 0.950 . S
H2266 C2274 0.950 . S
H2267 C2276 0.950 . S
H2268 C2278 0.950 . S
H2269 C2280 0.950 . S
H2270 C2282 0.950 . S
H2271 C2283 0.950 . S
C2272 H2264 0.950 . S
C2272 C2273 1.386 . S
C2272 C2274 1.391 . S
C2273 C2272 1.386 . S
C2273 C2277 1.393 . S
C2274 H2266 0.950 . S
C2274 C2272 1.391 . S
C2274 C2275 1.400 . S
C2275 C2274 1.400 . S
C2275 C2276 1.398 . S
C2275 C2281 1.491 . S
C2276 H2267 0.950 . S
C2276 C2275 1.398 . S
C2276 C2277 1.391 . S
C2277 H2265 0.950 . S
C2277 C2273 1.393 . S
C2277 C2276 1.391 . S
C2278 H2268 0.950 . S
C2278 C2279 1.386 . S
C2278 C2280 1.391 . S
C2279 C2278 1.386 . S
C2279 C2283 1.393 . S
C2280 H2269 0.950 . S
C2280 C2278 1.391 . S
C2280 C2281 1.400 . S
C2281 C2275 1.491 . S
C2281 C2280 1.400 . S
C2281 C2282 1.398 . S
C2282 H2270 0.950 . S
C2282 C2281 1.398 . S
C2282 C2283 1.391 . S
C2283 H2271 0.950 . S
C2283 C2279 1.393 . S
C2283 C2282 1.391 . S
H2284 C2292 0.950 . S
H2285 C2297 0.950 . S
H2286 C2294 0.950 . S
H2287 C2296 0.950 . S
H2288 C2298 0.950 . S
H2289 C2300 0.950 . S
H2290 C2302 0.950 . S
H2291 C2303 0.950 . S
C2292 H2284 0.950 . S
C2292 C2293 1.386 . S
C2292 C2294 1.391 . S
C2293 C2292 1.386 . S
C2293 C2297 1.393 . S
C2294 H2286 0.950 . S
C2294 C2292 1.391 . S
C2294 C2295 1.400 . S
C2295 C2294 1.400 . S
C2295 C2296 1.398 . S
C2295 C2301 1.491 . S
C2296 H2287 0.950 . S
C2296 C2295 1.398 . S
C2296 C2297 1.391 . S
C2297 H2285 0.950 . S
C2297 C2293 1.393 . S
C2297 C2296 1.391 . S
C2298 H2288 0.950 . S
C2298 C2299 1.386 . S
C2298 C2300 1.391 . S
C2299 C2298 1.386 . S
C2299 C2303 1.393 . S
C2300 H2289 0.950 . S
C2300 C2298 1.391 . S
C2300 C2301 1.400 . S
C2301 C2295 1.491 . S
C2301 C2300 1.400 . S
C2301 C2302 1.398 . S
C2302 H2290 0.950 . S
C2302 C2301 1.398 . S
C2302 C2303 1.391 . S
C2303 H2291 0.950 . S
C2303 C2299 1.393 . S
C2303 C2302 1.391 . S
H2304 C2312 0.950 . S
H2305 C2317 0.950 . S
H2306 C2314 0.950 . S
H2307 C2316 0.950 . S
H2308 C2318 0.950 . S
H2309 C2320 0.950 . S
H2310 C2322 0.950 . S
H2311 C2323 0.950 . S
C2312 H2304 0.950 . S
C2312 C2313 1.386 . S
C2312 C2314 1.391 . S
C2313 C2312 1.386 . S
C2313 C2317 1.393 . S
C2314 H2306 0.950 . S
C2314 C2312 1.391 . S
C2314 C2315 1.400 . S
C2315 C2314 1.400 . S
C2315 C2316 1.398 . S
C2315 C2321 1.491 . S
C2316 H2307 0.950 . S
C2316 C2315 1.398 . S
C2316 C2317 1.391 . S
C2317 H2305 0.950 . S
C2317 C2313 1.393 . S
C2317 C2316 1.391 . S
C2318 H2308 0.950 . S
C2318 C2319 1.386 . S
C2318 C2320 1.391 1_455 S
C2319 C2318 1.386 . S
C2319 C2323 1.393 . S
C2320 H2309 0.950 . S
C2320 C2318 1.391 1_655 S
C2320 C2321 1.400 . S
C2321 C2315 1.491 . S
C2321 C2320 1.400 . S
C2321 C2322 1.398 . S
C2322 H2310 0.950 . S
C2322 C2321 1.398 . S
C2322 C2323 1.391 1_655 S
C2323 H2311 0.950 . S
C2323 C2319 1.393 . S
C2323 C2322 1.391 1_455 S
H2324 C2332 0.950 . S
H2325 C2337 0.950 . S
H2326 C2334 0.950 . S
H2327 C2336 0.950 . S
H2328 C2338 0.950 . S
H2329 C2340 0.950 . S
H2330 C2342 0.950 . S
H2331 C2343 0.950 . S
C2332 H2324 0.950 . S
C2332 C2333 1.386 . S
C2332 C2334 1.391 . S
C2333 C2332 1.386 . S
C2333 C2337 1.393 . S
C2334 H2326 0.950 . S
C2334 C2332 1.391 . S
C2334 C2335 1.400 . S
C2335 C2334 1.400 . S
C2335 C2336 1.398 . S
C2335 C2341 1.491 . S
C2336 H2327 0.950 . S
C2336 C2335 1.398 . S
C2336 C2337 1.391 . S
C2337 H2325 0.950 . S
C2337 C2333 1.393 . S
C2337 C2336 1.391 . S
C2338 H2328 0.950 . S
C2338 C2339 1.386 . S
C2338 C2340 1.391 . S
C2339 C2338 1.386 . S
C2339 C2343 1.393 . S
C2340 H2329 0.950 . S
C2340 C2338 1.391 . S
C2340 C2341 1.400 . S
C2341 C2335 1.491 . S
C2341 C2340 1.400 . S
C2341 C2342 1.398 . S
C2342 H2330 0.950 . S
C2342 C2341 1.398 . S
C2342 C2343 1.391 . S
C2343 H2331 0.950 . S
C2343 C2339 1.393 . S
C2343 C2342 1.391 . S
H2344 C2352 0.950 . S
H2345 C2357 0.950 . S
H2346 C2354 0.950 . S
H2347 C2356 0.950 . S
H2348 C2358 0.950 . S
H2349 C2360 0.950 . S
H2350 C2362 0.950 . S
H2351 C2363 0.950 . S
C2352 H2344 0.950 . S
C2352 C2353 1.386 . S
C2352 C2354 1.391 . S
C2353 C2352 1.386 . S
C2353 C2357 1.393 . S
C2354 H2346 0.950 . S
C2354 C2352 1.391 . S
C2354 C2355 1.400 . S
C2355 C2354 1.400 . S
C2355 C2356 1.398 . S
C2355 C2361 1.491 . S
C2356 H2347 0.950 . S
C2356 C2355 1.398 . S
C2356 C2357 1.391 . S
C2357 H2345 0.950 . S
C2357 C2353 1.393 . S
C2357 C2356 1.391 . S
C2358 H2348 0.950 . S
C2358 C2359 1.386 . S
C2358 C2360 1.391 . S
C2359 C2358 1.386 . S
C2359 C2363 1.393 . S
C2360 H2349 0.950 . S
C2360 C2358 1.391 . S
C2360 C2361 1.400 . S
C2361 C2355 1.491 . S
C2361 C2360 1.400 . S
C2361 C2362 1.398 . S
C2362 H2350 0.950 . S
C2362 C2361 1.398 . S
C2362 C2363 1.391 . S
C2363 H2351 0.950 . S
C2363 C2359 1.393 . S
C2363 C2362 1.391 . S
H2364 C2372 0.950 . S
H2365 C2377 0.950 . S
H2366 C2374 0.950 . S
H2367 C2376 0.950 . S
H2368 C2378 0.950 . S
H2369 C2380 0.950 . S
H2370 C2382 0.950 . S
H2371 C2383 0.950 . S
C2372 H2364 0.950 . S
C2372 C2373 1.386 . S
C2372 C2374 1.391 . S
C2373 C2372 1.386 . S
C2373 C2377 1.393 . S
C2374 H2366 0.950 . S
C2374 C2372 1.391 . S
C2374 C2375 1.400 . S
C2375 C2374 1.400 . S
C2375 C2376 1.398 . S
C2375 C2381 1.491 . S
C2376 H2367 0.950 . S
C2376 C2375 1.398 . S
C2376 C2377 1.391 . S
C2377 H2365 0.950 . S
C2377 C2373 1.393 . S
C2377 C2376 1.391 . S
C2378 H2368 0.950 . S
C2378 C2379 1.386 . S
C2378 C2380 1.391 . S
C2379 C2378 1.386 . S
C2379 C2383 1.393 . S
C2380 H2369 0.950 . S
C2380 C2378 1.391 . S
C2380 C2381 1.400 . S
C2381 C2375 1.491 . S
C2381 C2380 1.400 . S
C2381 C2382 1.398 . S
C2382 H2370 0.950 . S
C2382 C2381 1.398 . S
C2382 C2383 1.391 . S
C2383 H2371 0.950 . S
C2383 C2379 1.393 . S
C2383 C2382 1.391 . S
H2384 C2392 0.950 . S
H2385 C2397 0.950 . S
H2386 C2394 0.989 . S
H2387 C2396 0.950 . S
H2388 C2398 0.950 . S
H2389 C2400 0.950 . S
H2390 C2402 0.950 . S
H2391 C2403 0.950 . S
C2392 H2384 0.950 . S
C2392 C2393 1.386 . S
C2392 C2394 1.391 . S
C2393 C2392 1.386 . S
C2393 C2397 1.393 . S
C2394 H2386 0.989 . S
C2394 C2392 1.391 . S
C2394 C2395 1.400 . S
C2395 C2394 1.400 . S
C2395 C2396 1.398 . S
C2395 C2401 1.491 . S
C2396 H2387 0.950 . S
C2396 C2395 1.398 . S
C2396 C2397 1.391 . S
C2397 H2385 0.950 . S
C2397 C2393 1.393 . S
C2397 C2396 1.391 . S
C2398 H2388 0.950 . S
C2398 C2399 1.386 1_565 S
C2398 C2400 1.391 . S
C2399 C2398 1.386 1_545 S
C2399 C2403 1.393 . S
C2400 H2389 0.950 . S
C2400 C2398 1.391 . S
C2400 C2401 1.400 . S
C2401 C2395 1.491 . S
C2401 C2400 1.400 . S
C2401 C2402 1.398 1_565 S
C2402 H2390 0.950 . S
C2402 C2401 1.398 1_545 S
C2402 C2403 1.391 . S
C2403 H2391 0.950 . S
C2403 C2399 1.393 . S
C2403 C2402 1.391 . S
H2404 C2412 0.950 . S
H2405 C2417 0.950 . S
H2406 C2414 0.950 . S
H2407 C2416 0.950 . S
H2408 C2418 0.950 . S
H2409 C2420 0.950 . S
H2410 C2422 0.950 . S
H2411 C2423 0.950 . S
C2412 H2404 0.950 . S
C2412 C2413 1.386 . S
C2412 C2414 1.391 . S
C2413 C2412 1.386 . S
C2413 C2417 1.393 . S
C2414 H2406 0.950 . S
C2414 C2412 1.391 . S
C2414 C2415 1.400 . S
C2415 C2414 1.400 . S
C2415 C2416 1.398 . S
C2415 C2421 1.491 . S
C2416 H2407 0.950 . S
C2416 C2415 1.398 . S
C2416 C2417 1.391 . S
C2417 H2405 0.950 . S
C2417 C2413 1.393 . S
C2417 C2416 1.391 . S
C2418 H2408 0.950 . S
C2418 C2419 1.386 . S
C2418 C2420 1.391 . S
C2419 C2418 1.386 . S
C2419 C2423 1.393 . S
C2420 H2409 0.950 . S
C2420 C2418 1.391 . S
C2420 C2421 1.400 . S
C2421 C2415 1.491 . S
C2421 C2420 1.400 . S
C2421 C2422 1.398 . S
C2422 H2410 0.950 . S
C2422 C2421 1.398 . S
C2422 C2423 1.391 . S
C2423 H2411 0.950 . S
C2423 C2419 1.393 . S
C2423 C2422 1.391 . S
H2424 C2432 0.950 . S
H2425 C2437 0.950 . S
H2426 C2434 0.950 . S
H2427 C2436 0.950 . S
H2428 C2438 0.950 . S
H2429 C2440 0.950 . S
H2430 C2442 0.950 . S
H2431 C2443 0.950 . S
C2432 H2424 0.950 . S
C2432 C2433 1.386 . S
C2432 C2434 1.391 . S
C2433 C2432 1.386 . S
C2433 C2437 1.393 . S
C2434 H2426 0.950 . S
C2434 C2432 1.391 . S
C2434 C2435 1.400 . S
C2435 C2434 1.400 . S
C2435 C2436 1.398 . S
C2435 C2441 1.491 . S
C2436 H2427 0.950 . S
C2436 C2435 1.398 . S
C2436 C2437 1.391 . S
C2437 H2425 0.950 . S
C2437 C2433 1.393 . S
C2437 C2436 1.391 . S
C2438 H2428 0.950 . S
C2438 C2439 1.386 . S
C2438 C2440 1.391 . S
C2439 C2438 1.386 . S
C2439 C2443 1.393 . S
C2440 H2429 0.950 . S
C2440 C2438 1.391 . S
C2440 C2441 1.400 . S
C2441 C2435 1.491 . S
C2441 C2440 1.400 . S
C2441 C2442 1.398 . S
C2442 H2430 0.950 . S
C2442 C2441 1.398 . S
C2442 C2443 1.391 . S
C2443 H2431 0.950 . S
C2443 C2439 1.393 . S
C2443 C2442 1.391 . S
H2444 C2452 0.950 1_554 S
H2445 C2457 0.950 . S
H2446 C2454 0.950 . S
H2447 C2456 0.950 . S
H2448 C2458 0.950 . S
H2449 C2460 0.950 . S
H2450 C2462 0.950 . S
H2451 C2463 0.950 . S
C2452 H2444 0.950 1_556 S
C2452 C2453 1.386 . S
C2452 C2454 1.391 . S
C2453 C2452 1.386 . S
C2453 C2457 1.393 . S
C2454 H2446 0.950 . S
C2454 C2452 1.391 . S
C2454 C2455 1.400 . S
C2455 C2454 1.400 . S
C2455 C2456 1.398 . S
C2455 C2461 1.491 . S
C2456 H2447 0.950 . S
C2456 C2455 1.398 . S
C2456 C2457 1.391 . S
C2457 H2445 0.950 . S
C2457 C2453 1.393 . S
C2457 C2456 1.391 . S
C2458 H2448 0.950 . S
C2458 C2459 1.386 . S
C2458 C2460 1.391 . S
C2459 C2458 1.386 . S
C2459 C2463 1.393 . S
C2460 H2449 0.950 . S
C2460 C2458 1.391 . S
C2460 C2461 1.400 . S
C2461 C2455 1.491 . S
C2461 C2460 1.400 . S
C2461 C2462 1.398 . S
C2462 H2450 0.950 . S
C2462 C2461 1.398 . S
C2462 C2463 1.391 . S
C2463 H2451 0.950 . S
C2463 C2459 1.393 . S
C2463 C2462 1.391 . S
H2464 C2472 0.950 . S
H2465 C2477 0.950 . S
H2466 C2474 0.950 . S
H2467 C2476 0.950 . S
H2468 C2478 0.950 . S
H2469 C2480 0.950 . S
H2470 C2482 0.950 . S
H2471 C2483 0.950 . S
C2472 H2464 0.950 . S
C2472 C2473 1.386 . S
C2472 C2474 1.391 . S
C2473 C2472 1.386 . S
C2473 C2477 1.393 . S
C2474 H2466 0.950 . S
C2474 C2472 1.391 . S
C2474 C2475 1.400 . S
C2475 C2474 1.400 . S
C2475 C2476 1.398 . S
C2475 C2481 1.491 . S
C2476 H2467 0.950 . S
C2476 C2475 1.398 . S
C2476 C2477 1.391 . S
C2477 H2465 0.950 . S
C2477 C2473 1.393 . S
C2477 C2476 1.391 . S
C2478 H2468 0.950 . S
C2478 C2479 1.386 . S
C2478 C2480 1.391 . S
C2479 C2478 1.386 . S
C2479 C2483 1.393 . S
C2480 H2469 0.950 . S
C2480 C2478 1.391 . S
C2480 C2481 1.400 . S
C2481 C2475 1.491 . S
C2481 C2480 1.400 . S
C2481 C2482 1.398 . S
C2482 H2470 0.950 . S
C2482 C2481 1.398 . S
C2482 C2483 1.391 . S
C2483 H2471 0.950 . S
C2483 C2479 1.393 . S
C2483 C2482 1.391 . S
H2484 C2492 0.950 . S
H2485 C2497 0.950 . S
H2486 C2494 0.950 . S
H2487 C2496 0.950 . S
H2488 C2498 0.950 . S
H2489 C2500 0.950 . S
H2490 C2502 0.950 . S
H2491 C2503 0.950 . S
C2492 H2484 0.950 . S
C2492 C2493 1.386 . S
C2492 C2494 1.391 . S
C2493 C2492 1.386 . S
C2493 C2497 1.393 . S
C2494 H2486 0.950 . S
C2494 C2492 1.391 . S
C2494 C2495 1.400 . S
C2495 C2494 1.400 . S
C2495 C2496 1.398 . S
C2495 C2501 1.491 . S
C2496 H2487 0.950 . S
C2496 C2495 1.398 . S
C2496 C2497 1.391 . S
C2497 H2485 0.950 . S
C2497 C2493 1.393 . S
C2497 C2496 1.391 . S
C2498 H2488 0.950 . S
C2498 C2499 1.386 1_545 S
C2498 C2500 1.391 . S
C2499 C2498 1.386 1_565 S
C2499 C2503 1.393 . S
C2500 H2489 0.950 . S
C2500 C2498 1.391 . S
C2500 C2501 1.400 . S
C2501 C2495 1.491 . S
C2501 C2500 1.400 . S
C2501 C2502 1.398 1_545 S
C2502 H2490 0.950 . S
C2502 C2501 1.398 1_565 S
C2502 C2503 1.391 . S
C2503 H2491 0.950 . S
C2503 C2499 1.393 . S
C2503 C2502 1.391 . S
H2504 C2512 0.950 . S
H2505 C2517 0.950 . S
H2506 C2514 0.950 . S
H2507 C2516 0.950 . S
H2508 C2518 0.950 . S
H2509 C2520 0.950 . S
H2510 C2522 0.950 . S
H2511 C2523 0.950 . S
C2512 H2504 0.950 . S
C2512 C2513 1.386 . S
C2512 C2514 1.391 . S
C2513 C2512 1.386 . S
C2513 C2517 1.393 . S
C2514 H2506 0.950 . S
C2514 C2512 1.391 . S
C2514 C2515 1.400 . S
C2515 C2514 1.400 . S
C2515 C2516 1.398 . S
C2515 C2521 1.491 . S
C2516 H2507 0.950 . S
C2516 C2515 1.398 . S
C2516 C2517 1.391 . S
C2517 H2505 0.950 . S
C2517 C2513 1.393 . S
C2517 C2516 1.391 . S
C2518 H2508 0.950 . S
C2518 C2519 1.386 . S
C2518 C2520 1.391 . S
C2519 C2518 1.386 . S
C2519 C2523 1.393 . S
C2520 H2509 0.950 . S
C2520 C2518 1.391 . S
C2520 C2521 1.400 . S
C2521 C2515 1.491 . S
C2521 C2520 1.400 . S
C2521 C2522 1.398 . S
C2522 H2510 0.950 . S
C2522 C2521 1.398 . S
C2522 C2523 1.391 . S
C2523 H2511 0.950 . S
C2523 C2519 1.393 . S
C2523 C2522 1.391 . S
H2524 C2532 0.950 . S
H2525 C2537 0.950 . S
H2526 C2534 0.950 . S
H2527 C2536 0.950 . S
H2528 C2538 0.950 . S
H2529 C2540 0.950 . S
H2530 C2542 0.950 . S
H2531 C2543 0.950 . S
C2532 H2524 0.950 . S
C2532 C2533 1.386 . S
C2532 C2534 1.391 . S
C2533 C2532 1.386 . S
C2533 C2537 1.393 . S
C2534 H2526 0.950 . S
C2534 C2532 1.391 . S
C2534 C2535 1.400 . S
C2535 C2534 1.400 . S
C2535 C2536 1.398 . S
C2535 C2541 1.491 . S
C2536 H2527 0.950 . S
C2536 C2535 1.398 . S
C2536 C2537 1.391 . S
C2537 H2525 0.950 . S
C2537 C2533 1.393 . S
C2537 C2536 1.391 . S
C2538 H2528 0.950 . S
C2538 C2539 1.386 . S
C2538 C2540 1.391 . S
C2539 C2538 1.386 . S
C2539 C2543 1.393 . S
C2540 H2529 0.950 . S
C2540 C2538 1.391 . S
C2540 C2541 1.400 . S
C2541 C2535 1.491 . S
C2541 C2540 1.400 . S
C2541 C2542 1.398 . S
C2542 H2530 0.950 . S
C2542 C2541 1.398 . S
C2542 C2543 1.391 . S
C2543 H2531 0.950 . S
C2543 C2539 1.393 . S
C2543 C2542 1.391 . S
H2544 C2552 0.950 . S
H2545 C2557 0.950 . S
H2546 C2554 0.950 . S
H2547 C2556 0.950 . S
H2548 C2558 0.950 . S
H2549 C2560 0.950 . S
H2550 C2562 0.950 . S
H2551 C2563 0.950 . S
C2552 H2544 0.950 . S
C2552 C2553 1.386 . S
C2552 C2554 1.391 . S
C2553 C2552 1.386 . S
C2553 C2557 1.393 . S
C2554 H2546 0.950 . S
C2554 C2552 1.391 . S
C2554 C2555 1.400 . S
C2555 C2554 1.400 . S
C2555 C2556 1.398 . S
C2555 C2561 1.491 . S
C2556 H2547 0.950 . S
C2556 C2555 1.398 . S
C2556 C2557 1.391 . S
C2557 H2545 0.950 . S
C2557 C2553 1.393 . S
C2557 C2556 1.391 . S
C2558 H2548 0.950 . S
C2558 C2559 1.386 . S
C2558 C2560 1.391 . S
C2559 C2558 1.386 . S
C2559 C2563 1.393 . S
C2560 H2549 0.950 . S
C2560 C2558 1.391 . S
C2560 C2561 1.400 . S
C2561 C2555 1.491 . S
C2561 C2560 1.400 . S
C2561 C2562 1.398 . S
C2562 H2550 0.950 . S
C2562 C2561 1.398 . S
C2562 C2563 1.391 . S
C2563 H2551 0.950 . S
C2563 C2559 1.393 . S
C2563 C2562 1.391 . S
H2564 C2572 0.950 . S
H2565 C2577 0.950 . S
H2566 C2574 0.950 . S
H2567 C2576 0.950 . S
H2568 C2578 0.950 . S
H2569 C2580 0.950 . S
H2570 C2582 0.950 . S
H2571 C2583 0.950 . S
C2572 H2564 0.950 . S
C2572 C2573 1.386 . S
C2572 C2574 1.391 . S
C2573 C2572 1.386 . S
C2573 C2577 1.393 . S
C2574 H2566 0.950 . S
C2574 C2572 1.391 . S
C2574 C2575 1.400 . S
C2575 C2574 1.400 . S
C2575 C2576 1.398 . S
C2575 C2581 1.491 . S
C2576 H2567 0.950 . S
C2576 C2575 1.398 . S
C2576 C2577 1.391 . S
C2577 H2565 0.950 . S
C2577 C2573 1.393 . S
C2577 C2576 1.391 . S
C2578 H2568 0.950 . S
C2578 C2579 1.386 . S
C2578 C2580 1.391 . S
C2579 C2578 1.386 . S
C2579 C2583 1.393 . S
C2580 H2569 0.950 . S
C2580 C2578 1.391 . S
C2580 C2581 1.400 . S
C2581 C2575 1.491 . S
C2581 C2580 1.400 . S
C2581 C2582 1.398 . S
C2582 H2570 0.950 . S
C2582 C2581 1.398 . S
C2582 C2583 1.391 . S
C2583 H2571 0.950 . S
C2583 C2579 1.393 . S
C2583 C2582 1.391 . S
H2584 C2592 0.950 . S
H2585 C2597 0.950 . S
H2586 C2594 0.950 . S
H2587 C2596 0.950 . S
H2588 C2598 0.950 . S
H2589 C2600 0.950 . S
H2590 C2602 0.950 . S
H2591 C2603 0.950 . S
C2592 H2584 0.950 . S
C2592 C2593 1.386 . S
C2592 C2594 1.391 . S
C2593 C2592 1.386 . S
C2593 C2597 1.393 . S
C2594 H2586 0.950 . S
C2594 C2592 1.391 . S
C2594 C2595 1.400 . S
C2595 C2594 1.400 . S
C2595 C2596 1.398 . S
C2595 C2601 1.491 . S
C2596 H2587 0.950 . S
C2596 C2595 1.398 . S
C2596 C2597 1.391 . S
C2597 H2585 0.950 . S
C2597 C2593 1.393 . S
C2597 C2596 1.391 . S
C2598 H2588 0.950 . S
C2598 C2599 1.386 . S
C2598 C2600 1.391 . S
C2599 C2598 1.386 . S
C2599 C2603 1.393 . S
C2600 H2589 0.950 . S
C2600 C2598 1.391 . S
C2600 C2601 1.400 . S
C2601 C2595 1.491 . S
C2601 C2600 1.400 . S
C2601 C2602 1.398 . S
C2602 H2590 0.950 . S
C2602 C2601 1.398 . S
C2602 C2603 1.391 . S
C2603 H2591 0.950 . S
C2603 C2599 1.393 . S
C2603 C2602 1.391 . S
H2604 C2612 0.950 . S
H2605 C2617 0.950 . S
H2606 C2614 0.950 . S
H2607 C2616 0.950 . S
H2608 C2618 0.950 . S
H2609 C2620 0.950 . S
H2610 C2622 0.950 . S
H2611 C2623 0.950 . S
C2612 H2604 0.950 . S
C2612 C2613 1.386 . S
C2612 C2614 1.391 . S
C2613 C2612 1.386 . S
C2613 C2617 1.393 . S
C2614 H2606 0.950 . S
C2614 C2612 1.391 . S
C2614 C2615 1.400 . S
C2615 C2614 1.400 . S
C2615 C2616 1.398 . S
C2615 C2621 1.491 . S
C2616 H2607 0.950 . S
C2616 C2615 1.398 . S
C2616 C2617 1.391 . S
C2617 H2605 0.950 . S
C2617 C2613 1.393 . S
C2617 C2616 1.391 . S
C2618 H2608 0.950 . S
C2618 C2619 1.386 . S
C2618 C2620 1.391 . S
C2619 C2618 1.386 . S
C2619 C2623 1.393 . S
C2620 H2609 0.950 . S
C2620 C2618 1.391 . S
C2620 C2621 1.400 . S
C2621 C2615 1.491 . S
C2621 C2620 1.400 . S
C2621 C2622 1.398 . S
C2622 H2610 0.950 . S
C2622 C2621 1.398 . S
C2622 C2623 1.391 . S
C2623 H2611 0.950 . S
C2623 C2619 1.393 . S
C2623 C2622 1.391 . S
H2624 C2632 0.950 . S
H2625 C2637 0.950 . S
H2626 C2634 0.950 . S
H2627 C2636 0.950 . S
H2628 C2638 0.950 . S
H2629 C2640 0.950 . S
H2630 C2642 0.950 . S
H2631 C2643 0.950 . S
C2632 H2624 0.950 . S
C2632 C2633 1.386 . S
C2632 C2634 1.391 . S
C2633 C2632 1.386 . S
C2633 C2637 1.393 . S
C2634 H2626 0.950 . S
C2634 C2632 1.391 . S
C2634 C2635 1.400 . S
C2635 C2634 1.400 . S
C2635 C2636 1.398 . S
C2635 C2641 1.491 . S
C2636 H2627 0.950 . S
C2636 C2635 1.398 . S
C2636 C2637 1.391 . S
C2637 H2625 0.950 . S
C2637 C2633 1.393 . S
C2637 C2636 1.391 . S
C2638 H2628 0.950 . S
C2638 C2639 1.386 . S
C2638 C2640 1.391 . S
C2639 C2638 1.386 . S
C2639 C2643 1.393 . S
C2640 H2629 0.950 . S
C2640 C2638 1.391 . S
C2640 C2641 1.400 . S
C2641 C2635 1.491 . S
C2641 C2640 1.400 . S
C2641 C2642 1.398 . S
C2642 H2630 0.950 . S
C2642 C2641 1.398 . S
C2642 C2643 1.391 . S
C2643 H2631 0.950 . S
C2643 C2639 1.393 . S
C2643 C2642 1.391 . S
H2644 C2652 0.950 . S
H2645 C2657 0.950 . S
H2646 C2654 0.950 . S
H2647 C2656 0.950 . S
H2648 C2658 0.950 . S
H2649 C2660 0.950 . S
H2650 C2662 0.950 . S
H2651 C2663 0.950 . S
C2652 H2644 0.950 . S
C2652 C2653 1.386 . S
C2652 C2654 1.391 . S
C2653 C2652 1.386 . S
C2653 C2657 1.393 . S
C2654 H2646 0.950 . S
C2654 C2652 1.391 . S
C2654 C2655 1.400 . S
C2655 C2654 1.400 . S
C2655 C2656 1.398 . S
C2655 C2661 1.491 . S
C2656 H2647 0.950 . S
C2656 C2655 1.398 . S
C2656 C2657 1.391 . S
C2657 H2645 0.950 . S
C2657 C2653 1.393 . S
C2657 C2656 1.391 . S
C2658 H2648 0.950 . S
C2658 C2659 1.386 . S
C2658 C2660 1.391 . S
C2659 C2658 1.386 . S
C2659 C2663 1.393 . S
C2660 H2649 0.950 . S
C2660 C2658 1.391 . S
C2660 C2661 1.400 . S
C2661 C2655 1.491 . S
C2661 C2660 1.400 . S
C2661 C2662 1.398 . S
C2662 H2650 0.950 . S
C2662 C2661 1.398 . S
C2662 C2663 1.391 . S
C2663 H2651 0.950 . S
C2663 C2659 1.393 . S
C2663 C2662 1.391 . S
H2664 C2672 0.950 . S
H2665 C2677 0.950 . S
H2666 C2674 0.950 . S
H2667 C2676 0.950 . S
H2668 C2678 0.950 . S
H2669 C2680 0.950 . S
H2670 C2682 0.950 . S
H2671 C2683 0.950 . S
C2672 H2664 0.950 . S
C2672 C2673 1.386 . S
C2672 C2674 1.391 . S
C2673 C2672 1.386 . S
C2673 C2677 1.393 . S
C2674 H2666 0.950 . S
C2674 C2672 1.391 . S
C2674 C2675 1.400 . S
C2675 C2674 1.400 . S
C2675 C2676 1.398 . S
C2675 C2681 1.491 . S
C2676 H2667 0.950 . S
C2676 C2675 1.398 . S
C2676 C2677 1.391 . S
C2677 H2665 0.950 . S
C2677 C2673 1.393 . S
C2677 C2676 1.391 . S
C2678 H2668 0.950 . S
C2678 C2679 1.386 . S
C2678 C2680 1.391 . S
C2679 C2678 1.386 . S
C2679 C2683 1.393 . S
C2680 H2669 0.950 . S
C2680 C2678 1.391 . S
C2680 C2681 1.400 . S
C2681 C2675 1.491 . S
C2681 C2680 1.400 . S
C2681 C2682 1.398 . S
C2682 H2670 0.950 . S
C2682 C2681 1.398 . S
C2682 C2683 1.391 . S
C2683 H2671 0.950 . S
C2683 C2679 1.393 . S
C2683 C2682 1.391 . S
H2684 C2692 0.950 . S
H2685 C2697 0.950 . S
H2686 C2694 0.950 . S
H2687 C2696 0.950 . S
H2688 C2698 0.950 . S
H2689 C2700 0.950 . S
H2690 C2702 0.950 . S
H2691 C2703 0.950 . S
C2692 H2684 0.950 . S
C2692 C2693 1.386 . S
C2692 C2694 1.391 . S
C2693 C2692 1.386 . S
C2693 C2697 1.393 . S
C2694 H2686 0.950 . S
C2694 C2692 1.391 . S
C2694 C2695 1.400 . S
C2695 C2694 1.400 . S
C2695 C2696 1.398 . S
C2695 C2701 1.491 . S
C2696 H2687 0.950 . S
C2696 C2695 1.398 . S
C2696 C2697 1.391 . S
C2697 H2685 0.950 . S
C2697 C2693 1.393 . S
C2697 C2696 1.391 . S
C2698 H2688 0.950 . S
C2698 C2699 1.386 . S
C2698 C2700 1.391 . S
C2699 C2698 1.386 . S
C2699 C2703 1.393 . S
C2700 H2689 0.950 . S
C2700 C2698 1.391 . S
C2700 C2701 1.400 . S
C2701 C2695 1.491 . S
C2701 C2700 1.400 . S
C2701 C2702 1.398 . S
C2702 H2690 0.950 . S
C2702 C2701 1.398 . S
C2702 C2703 1.391 . S
C2703 H2691 0.950 . S
C2703 C2699 1.393 . S
C2703 C2702 1.391 . S
H2704 C2712 0.950 . S
H2705 C2717 0.950 . S
H2706 C2714 0.950 . S
H2707 C2716 0.950 . S
H2708 C2718 0.950 . S
H2709 C2720 0.950 . S
H2710 C2722 0.950 . S
H2711 C2723 0.950 . S
C2712 H2704 0.950 . S
C2712 C2713 1.386 . S
C2712 C2714 1.391 . S
C2713 C2712 1.386 . S
C2713 C2717 1.393 . S
C2714 H2706 0.950 . S
C2714 C2712 1.391 . S
C2714 C2715 1.400 . S
C2715 C2714 1.400 . S
C2715 C2716 1.398 . S
C2715 C2721 1.491 . S
C2716 H2707 0.950 . S
C2716 C2715 1.398 . S
C2716 C2717 1.391 . S
C2717 H2705 0.950 . S
C2717 C2713 1.393 . S
C2717 C2716 1.391 . S
C2718 H2708 0.950 . S
C2718 C2719 1.386 . S
C2718 C2720 1.391 . S
C2719 C2718 1.386 . S
C2719 C2723 1.393 . S
C2720 H2709 0.950 . S
C2720 C2718 1.391 . S
C2720 C2721 1.400 . S
C2721 C2715 1.491 . S
C2721 C2720 1.400 . S
C2721 C2722 1.398 . S
C2722 H2710 0.950 . S
C2722 C2721 1.398 . S
C2722 C2723 1.391 . S
C2723 H2711 0.950 . S
C2723 C2719 1.393 . S
C2723 C2722 1.391 . S
H2724 C2732 0.950 . S
H2725 C2737 0.950 . S
H2726 C2734 0.950 . S
H2727 C2736 0.950 . S
H2728 C2738 0.950 . S
H2729 C2740 0.950 . S
H2730 C2742 0.950 . S
H2731 C2743 0.950 . S
C2732 H2724 0.950 . S
C2732 C2733 1.386 . S
C2732 C2734 1.391 . S
C2733 C2732 1.386 . S
C2733 C2737 1.393 . S
C2734 H2726 0.950 . S
C2734 C2732 1.391 . S
C2734 C2735 1.400 . S
C2735 C2734 1.400 . S
C2735 C2736 1.398 . S
C2735 C2741 1.491 . S
C2736 H2727 0.950 . S
C2736 C2735 1.398 . S
C2736 C2737 1.391 . S
C2737 H2725 0.950 . S
C2737 C2733 1.393 . S
C2737 C2736 1.391 . S
C2738 H2728 0.950 . S
C2738 C2739 1.386 . S
C2738 C2740 1.391 . S
C2739 C2738 1.386 . S
C2739 C2743 1.393 . S
C2740 H2729 0.950 . S
C2740 C2738 1.391 . S
C2740 C2741 1.400 . S
C2741 C2735 1.491 . S
C2741 C2740 1.400 . S
C2741 C2742 1.398 . S
C2742 H2730 0.950 . S
C2742 C2741 1.398 . S
C2742 C2743 1.391 . S
C2743 H2731 0.950 . S
C2743 C2739 1.393 . S
C2743 C2742 1.391 . S
H2744 C2752 0.950 . S
H2745 C2757 0.950 . S
H2746 C2754 0.950 . S
H2747 C2756 0.950 . S
H2748 C2758 0.950 . S
H2749 C2760 0.950 . S
H2750 C2762 0.950 . S
H2751 C2763 0.950 . S
C2752 H2744 0.950 . S
C2752 C2753 1.386 . S
C2752 C2754 1.391 . S
C2753 C2752 1.386 . S
C2753 C2757 1.393 . S
C2754 H2746 0.950 . S
C2754 C2752 1.391 . S
C2754 C2755 1.400 . S
C2755 C2754 1.400 . S
C2755 C2756 1.398 . S
C2755 C2761 1.491 . S
C2756 H2747 0.950 . S
C2756 C2755 1.398 . S
C2756 C2757 1.391 . S
C2757 H2745 0.950 . S
C2757 C2753 1.393 . S
C2757 C2756 1.391 . S
C2758 H2748 0.950 . S
C2758 C2759 1.386 . S
C2758 C2760 1.391 . S
C2759 C2758 1.386 . S
C2759 C2763 1.393 . S
C2760 H2749 0.950 . S
C2760 C2758 1.391 . S
C2760 C2761 1.400 . S
C2761 C2755 1.491 . S
C2761 C2760 1.400 . S
C2761 C2762 1.398 . S
C2762 H2750 0.950 . S
C2762 C2761 1.398 . S
C2762 C2763 1.391 . S
C2763 H2751 0.950 . S
C2763 C2759 1.393 . S
C2763 C2762 1.391 . S
H2764 C2772 0.950 . S
H2765 C2777 0.950 . S
H2766 C2774 0.950 . S
H2767 C2776 0.950 . S
H2768 C2778 0.950 . S
H2769 C2780 0.950 . S
H2770 C2782 0.950 . S
H2771 C2783 0.950 . S
C2772 H2764 0.950 . S
C2772 C2773 1.386 . S
C2772 C2774 1.391 . S
C2773 C2772 1.386 . S
C2773 C2777 1.393 . S
C2774 H2766 0.950 . S
C2774 C2772 1.391 . S
C2774 C2775 1.400 . S
C2775 C2774 1.400 . S
C2775 C2776 1.398 . S
C2775 C2781 1.491 . S
C2776 H2767 0.950 . S
C2776 C2775 1.398 . S
C2776 C2777 1.391 . S
C2777 H2765 0.950 . S
C2777 C2773 1.393 . S
C2777 C2776 1.391 . S
C2778 H2768 0.950 . S
C2778 C2779 1.386 . S
C2778 C2780 1.391 . S
C2779 C2778 1.386 . S
C2779 C2783 1.393 . S
C2780 H2769 0.950 . S
C2780 C2778 1.391 . S
C2780 C2781 1.400 . S
C2781 C2775 1.491 . S
C2781 C2780 1.400 . S
C2781 C2782 1.398 . S
C2782 H2770 0.950 . S
C2782 C2781 1.398 . S
C2782 C2783 1.391 . S
C2783 H2771 0.950 . S
C2783 C2779 1.393 . S
C2783 C2782 1.391 . S
H2784 C2792 0.950 . S
H2785 C2797 0.950 . S
H2786 C2794 0.950 . S
H2787 C2796 0.950 . S
H2788 C2798 0.950 . S
H2789 C2800 0.950 . S
H2790 C2802 0.950 . S
H2791 C2803 0.950 . S
C2792 H2784 0.950 . S
C2792 C2793 1.386 . S
C2792 C2794 1.391 . S
C2793 C2792 1.386 . S
C2793 C2797 1.393 . S
C2794 H2786 0.950 . S
C2794 C2792 1.391 . S
C2794 C2795 1.400 . S
C2795 C2794 1.400 . S
C2795 C2796 1.398 . S
C2795 C2801 1.491 . S
C2796 H2787 0.950 . S
C2796 C2795 1.398 . S
C2796 C2797 1.391 . S
C2797 H2785 0.950 . S
C2797 C2793 1.393 . S
C2797 C2796 1.391 . S
C2798 H2788 0.950 . S
C2798 C2799 1.386 . S
C2798 C2800 1.391 . S
C2799 C2798 1.386 . S
C2799 C2803 1.393 . S
C2800 H2789 0.950 . S
C2800 C2798 1.391 . S
C2800 C2801 1.400 . S
C2801 C2795 1.491 . S
C2801 C2800 1.400 . S
C2801 C2802 1.398 . S
C2802 H2790 0.950 . S
C2802 C2801 1.398 . S
C2802 C2803 1.391 . S
C2803 H2791 0.950 . S
C2803 C2799 1.393 . S
C2803 C2802 1.391 . S
H2804 C2812 0.950 . S
H2805 C2817 0.950 . S
H2806 C2814 0.950 . S
H2807 C2816 0.950 . S
H2808 C2818 0.950 . S
H2809 C2820 0.950 . S
H2810 C2822 0.950 . S
H2811 C2823 0.950 . S
C2812 H2804 0.950 . S
C2812 C2813 1.386 . S
C2812 C2814 1.391 . S
C2813 C2812 1.386 . S
C2813 C2817 1.393 . S
C2814 H2806 0.950 . S
C2814 C2812 1.391 . S
C2814 C2815 1.400 . S
C2815 C2814 1.400 . S
C2815 C2816 1.398 . S
C2815 C2821 1.491 . S
C2816 H2807 0.950 . S
C2816 C2815 1.398 . S
C2816 C2817 1.391 . S
C2817 H2805 0.950 . S
C2817 C2813 1.393 . S
C2817 C2816 1.391 . S
C2818 H2808 0.950 . S
C2818 C2819 1.386 . S
C2818 C2820 1.391 . S
C2819 C2818 1.386 . S
C2819 C2823 1.393 . S
C2820 H2809 0.950 . S
C2820 C2818 1.391 . S
C2820 C2821 1.400 . S
C2821 C2815 1.491 . S
C2821 C2820 1.400 . S
C2821 C2822 1.398 . S
C2822 H2810 0.950 . S
C2822 C2821 1.398 . S
C2822 C2823 1.391 . S
C2823 H2811 0.950 . S
C2823 C2819 1.393 . S
C2823 C2822 1.391 . S
H2824 C2832 0.950 . S
H2825 C2837 0.950 . S
H2826 C2834 0.950 . S
H2827 C2836 0.950 . S
H2828 C2838 0.950 . S
H2829 C2840 0.950 . S
H2830 C2842 0.950 . S
H2831 C2843 0.950 . S
C2832 H2824 0.950 . S
C2832 C2833 1.386 . S
C2832 C2834 1.391 . S
C2833 C2832 1.386 . S
C2833 C2837 1.393 . S
C2834 H2826 0.950 . S
C2834 C2832 1.391 . S
C2834 C2835 1.400 . S
C2835 C2834 1.400 . S
C2835 C2836 1.398 . S
C2835 C2841 1.491 . S
C2836 H2827 0.950 . S
C2836 C2835 1.398 . S
C2836 C2837 1.391 . S
C2837 H2825 0.950 . S
C2837 C2833 1.393 . S
C2837 C2836 1.391 . S
C2838 H2828 0.950 . S
C2838 C2839 1.386 . S
C2838 C2840 1.391 . S
C2839 C2838 1.386 . S
C2839 C2843 1.393 . S
C2840 H2829 0.950 . S
C2840 C2838 1.391 . S
C2840 C2841 1.400 . S
C2841 C2835 1.491 . S
C2841 C2840 1.400 . S
C2841 C2842 1.398 . S
C2842 H2830 0.950 . S
C2842 C2841 1.398 . S
C2842 C2843 1.391 . S
C2843 H2831 0.950 . S
C2843 C2839 1.393 . S
C2843 C2842 1.391 . S
H2844 C2852 0.950 . S
H2845 C2857 0.950 . S
H2846 C2854 0.950 . S
H2847 C2856 0.950 . S
H2848 C2858 0.950 . S
H2849 C2860 0.950 . S
H2850 C2862 0.950 . S
H2851 C2863 0.950 . S
C2852 H2844 0.950 . S
C2852 C2853 1.386 . S
C2852 C2854 1.391 . S
C2853 C2852 1.386 . S
C2853 C2857 1.393 . S
C2854 H2846 0.950 . S
C2854 C2852 1.391 . S
C2854 C2855 1.400 . S
C2855 C2854 1.400 . S
C2855 C2856 1.398 . S
C2855 C2861 1.491 . S
C2856 H2847 0.950 . S
C2856 C2855 1.398 . S
C2856 C2857 1.391 . S
C2857 H2845 0.950 . S
C2857 C2853 1.393 . S
C2857 C2856 1.391 . S
C2858 H2848 0.950 . S
C2858 C2859 1.386 . S
C2858 C2860 1.391 . S
C2859 C2858 1.386 . S
C2859 C2863 1.393 . S
C2860 H2849 0.950 . S
C2860 C2858 1.391 . S
C2860 C2861 1.400 . S
C2861 C2855 1.491 . S
C2861 C2860 1.400 . S
C2861 C2862 1.398 . S
C2862 H2850 0.950 . S
C2862 C2861 1.398 . S
C2862 C2863 1.391 . S
C2863 H2851 0.950 . S
C2863 C2859 1.393 . S
C2863 C2862 1.391 . S
H2864 C2872 0.950 . S
H2865 C2877 0.950 . S
H2866 C2874 0.950 . S
H2867 C2876 0.950 . S
H2868 C2878 0.950 . S
H2869 C2880 0.950 . S
H2870 C2882 0.950 . S
H2871 C2883 0.950 . S
C2872 H2864 0.950 . S
C2872 C2873 1.386 . S
C2872 C2874 1.391 . S
C2873 C2872 1.386 . S
C2873 C2877 1.393 . S
C2874 H2866 0.950 . S
C2874 C2872 1.391 . S
C2874 C2875 1.400 . S
C2875 C2874 1.400 . S
C2875 C2876 1.398 . S
C2875 C2881 1.491 . S
C2876 H2867 0.950 . S
C2876 C2875 1.398 . S
C2876 C2877 1.391 . S
C2877 H2865 0.950 . S
C2877 C2873 1.393 . S
C2877 C2876 1.391 . S
C2878 H2868 0.950 . S
C2878 C2879 1.386 . S
C2878 C2880 1.391 . S
C2879 C2878 1.386 . S
C2879 C2883 1.393 . S
C2880 H2869 0.950 . S
C2880 C2878 1.391 . S
C2880 C2881 1.400 . S
C2881 C2875 1.491 . S
C2881 C2880 1.400 . S
C2881 C2882 1.398 . S
C2882 H2870 0.950 . S
C2882 C2881 1.398 . S
C2882 C2883 1.391 . S
C2883 H2871 0.950 . S
C2883 C2879 1.393 . S
C2883 C2882 1.391 . S
H2884 C2892 0.950 . S
H2885 C2897 0.950 . S
H2886 C2894 0.950 . S
H2887 C2896 0.950 . S
H2888 C2898 0.950 . S
H2889 C2900 0.950 . S
H2890 C2902 0.950 . S
H2891 C2903 0.950 . S
C2892 H2884 0.950 . S
C2892 C2893 1.386 . S
C2892 C2894 1.391 . S
C2893 C2892 1.386 . S
C2893 C2897 1.393 . S
C2894 H2886 0.950 . S
C2894 C2892 1.391 . S
C2894 C2895 1.400 . S
C2895 C2894 1.400 . S
C2895 C2896 1.398 . S
C2895 C2901 1.491 . S
C2896 H2887 0.950 . S
C2896 C2895 1.398 . S
C2896 C2897 1.391 . S
C2897 H2885 0.950 . S
C2897 C2893 1.393 . S
C2897 C2896 1.391 . S
C2898 H2888 0.950 . S
C2898 C2899 1.386 . S
C2898 C2900 1.391 . S
C2899 C2898 1.386 . S
C2899 C2903 1.393 . S
C2900 H2889 0.950 . S
C2900 C2898 1.391 . S
C2900 C2901 1.400 . S
C2901 C2895 1.491 . S
C2901 C2900 1.400 . S
C2901 C2902 1.398 . S
C2902 H2890 0.950 . S
C2902 C2901 1.398 . S
C2902 C2903 1.391 . S
C2903 H2891 0.950 . S
C2903 C2899 1.393 . S
C2903 C2902 1.391 . S
H2904 C2912 0.950 . S
H2905 C2917 0.950 . S
H2906 C2914 0.950 . S
H2907 C2916 0.950 . S
H2908 C2918 0.950 . S
H2909 C2920 0.950 . S
H2910 C2922 0.950 . S
H2911 C2923 0.950 . S
C2912 H2904 0.950 . S
C2912 C2913 1.386 . S
C2912 C2914 1.391 . S
C2913 C2912 1.386 . S
C2913 C2917 1.393 . S
C2914 H2906 0.950 . S
C2914 C2912 1.391 . S
C2914 C2915 1.400 . S
C2915 C2914 1.400 . S
C2915 C2916 1.398 . S
C2915 C2921 1.491 . S
C2916 H2907 0.950 . S
C2916 C2915 1.398 . S
C2916 C2917 1.391 . S
C2917 H2905 0.950 . S
C2917 C2913 1.393 . S
C2917 C2916 1.391 . S
C2918 H2908 0.950 . S
C2918 C2919 1.386 . S
C2918 C2920 1.391 . S
C2919 C2918 1.386 . S
C2919 C2923 1.393 . S
C2920 H2909 0.950 . S
C2920 C2918 1.391 . S
C2920 C2921 1.400 . S
C2921 C2915 1.491 . S
C2921 C2920 1.400 . S
C2921 C2922 1.398 . S
C2922 H2910 0.950 . S
C2922 C2921 1.398 . S
C2922 C2923 1.391 . S
C2923 H2911 0.950 . S
C2923 C2919 1.393 . S
C2923 C2922 1.391 . S
H2924 C2932 0.950 . S
H2925 C2937 0.950 . S
H2926 C2934 0.950 . S
H2927 C2936 0.950 . S
H2928 C2938 0.950 . S
H2929 C2940 0.950 . S
H2930 C2942 0.950 . S
H2931 C2943 0.950 . S
C2932 H2924 0.950 . S
C2932 C2933 1.386 . S
C2932 C2934 1.391 . S
C2933 C2932 1.386 . S
C2933 C2937 1.393 . S
C2934 H2926 0.950 . S
C2934 C2932 1.391 . S
C2934 C2935 1.400 . S
C2935 C2934 1.400 . S
C2935 C2936 1.398 . S
C2935 C2941 1.491 . S
C2936 H2927 0.950 . S
C2936 C2935 1.398 . S
C2936 C2937 1.391 . S
C2937 H2925 0.950 . S
C2937 C2933 1.393 . S
C2937 C2936 1.391 . S
C2938 H2928 0.950 . S
C2938 C2939 1.386 . S
C2938 C2940 1.391 . S
C2939 C2938 1.386 . S
C2939 C2943 1.393 . S
C2940 H2929 0.950 . S
C2940 C2938 1.391 . S
C2940 C2941 1.400 . S
C2941 C2935 1.491 . S
C2941 C2940 1.400 . S
C2941 C2942 1.398 . S
C2942 H2930 0.950 . S
C2942 C2941 1.398 . S
C2942 C2943 1.391 . S
C2943 H2931 0.950 . S
C2943 C2939 1.393 . S
C2943 C2942 1.391 . S
H2944 C2952 0.950 . S
H2945 C2957 0.950 . S
H2946 C2954 0.950 . S
H2947 C2956 0.950 . S
H2948 C2958 0.950 . S
H2949 C2960 0.950 . S
H2950 C2962 0.950 . S
H2951 C2963 0.950 . S
C2952 H2944 0.950 . S
C2952 C2953 1.386 . S
C2952 C2954 1.391 . S
C2953 C2952 1.386 . S
C2953 C2957 1.393 . S
C2954 H2946 0.950 . S
C2954 C2952 1.391 . S
C2954 C2955 1.400 . S
C2955 C2954 1.400 . S
C2955 C2956 1.398 . S
C2955 C2961 1.491 . S
C2956 H2947 0.950 . S
C2956 C2955 1.398 . S
C2956 C2957 1.391 . S
C2957 H2945 0.950 . S
C2957 C2953 1.393 . S
C2957 C2956 1.391 . S
C2958 H2948 0.950 . S
C2958 C2959 1.386 . S
C2958 C2960 1.391 . S
C2959 C2958 1.386 . S
C2959 C2963 1.393 . S
C2960 H2949 0.950 . S
C2960 C2958 1.391 . S
C2960 C2961 1.400 . S
C2961 C2955 1.491 . S
C2961 C2960 1.400 . S
C2961 C2962 1.398 . S
C2962 H2950 0.950 . S
C2962 C2961 1.398 . S
C2962 C2963 1.391 . S
C2963 H2951 0.950 . S
C2963 C2959 1.393 . S
C2963 C2962 1.391 . S
H2964 C2972 0.950 . S
H2965 C2977 0.950 . S
H2966 C2974 0.950 . S
H2967 C2976 0.950 . S
H2968 C2978 0.950 . S
H2969 C2980 0.950 . S
H2970 C2982 0.950 . S
H2971 C2983 0.950 . S
C2972 H2964 0.950 . S
C2972 C2973 1.386 . S
C2972 C2974 1.391 . S
C2973 C2972 1.386 . S
C2973 C2977 1.393 . S
C2974 H2966 0.950 . S
C2974 C2972 1.391 . S
C2974 C2975 1.400 . S
C2975 C2974 1.400 . S
C2975 C2976 1.398 . S
C2975 C2981 1.491 . S
C2976 H2967 0.950 . S
C2976 C2975 1.398 . S
C2976 C2977 1.391 . S
C2977 H2965 0.950 . S
C2977 C2973 1.393 . S
C2977 C2976 1.391 . S
C2978 H2968 0.950 . S
C2978 C2979 1.386 . S
C2978 C2980 1.391 . S
C2979 C2978 1.386 . S
C2979 C2983 1.393 . S
C2980 H2969 0.950 . S
C2980 C2978 1.391 . S
C2980 C2981 1.400 . S
C2981 C2975 1.491 . S
C2981 C2980 1.400 . S
C2981 C2982 1.398 . S
C2982 H2970 0.950 . S
C2982 C2981 1.398 . S
C2982 C2983 1.391 . S
C2983 H2971 0.950 . S
C2983 C2979 1.393 . S
C2983 C2982 1.391 . S
H2984 C2992 0.950 . S
H2985 C2997 0.950 . S
H2986 C2994 0.950 . S
H2987 C2996 0.950 . S
H2988 C2998 0.950 . S
H2989 C3000 0.950 . S
H2990 C3002 0.950 . S
H2991 C3003 0.950 . S
C2992 H2984 0.950 . S
C2992 C2993 1.386 . S
C2992 C2994 1.391 . S
C2993 C2992 1.386 . S
C2993 C2997 1.393 . S
C2994 H2986 0.950 . S
C2994 C2992 1.391 . S
C2994 C2995 1.400 . S
C2995 C2994 1.400 . S
C2995 C2996 1.398 . S
C2995 C3001 1.491 . S
C2996 H2987 0.950 . S
C2996 C2995 1.398 . S
C2996 C2997 1.391 . S
C2997 H2985 0.950 . S
C2997 C2993 1.393 . S
C2997 C2996 1.391 . S
C2998 H2988 0.950 . S
C2998 C2999 1.386 . S
C2998 C3000 1.391 . S
C2999 C2998 1.386 . S
C2999 C3003 1.393 . S
C3000 H2989 0.950 . S
C3000 C2998 1.391 . S
C3000 C3001 1.400 . S
C3001 C2995 1.491 . S
C3001 C3000 1.400 . S
C3001 C3002 1.398 . S
C3002 H2990 0.950 . S
C3002 C3001 1.398 . S
C3002 C3003 1.391 . S
C3003 H2991 0.950 . S
C3003 C2999 1.393 . S
C3003 C3002 1.391 . S
H3004 C3012 0.950 . S
H3005 C3017 0.950 . S
H3006 C3014 0.950 . S
H3007 C3016 0.950 . S
H3008 C3018 0.950 . S
H3009 C3020 0.950 . S
H3010 C3022 0.950 . S
H3011 C3023 0.950 . S
C3012 H3004 0.950 . S
C3012 C3013 1.386 . S
C3012 C3014 1.391 . S
C3013 C3012 1.386 . S
C3013 C3017 1.393 . S
C3014 H3006 0.950 . S
C3014 C3012 1.391 . S
C3014 C3015 1.400 . S
C3015 C3014 1.400 . S
C3015 C3016 1.398 . S
C3015 C3021 1.491 . S
C3016 H3007 0.950 . S
C3016 C3015 1.398 . S
C3016 C3017 1.391 . S
C3017 H3005 0.950 . S
C3017 C3013 1.393 . S
C3017 C3016 1.391 . S
C3018 H3008 0.950 . S
C3018 C3019 1.386 . S
C3018 C3020 1.391 . S
C3019 C3018 1.386 . S
C3019 C3023 1.393 . S
C3020 H3009 0.950 . S
C3020 C3018 1.391 . S
C3020 C3021 1.400 . S
C3021 C3015 1.491 . S
C3021 C3020 1.400 . S
C3021 C3022 1.398 . S
C3022 H3010 0.950 . S
C3022 C3021 1.398 . S
C3022 C3023 1.391 . S
C3023 H3011 0.950 . S
C3023 C3019 1.393 . S
C3023 C3022 1.391 . S
H3024 C3032 0.950 . S
H3025 C3037 0.950 . S
H3026 C3034 0.950 . S
H3027 C3036 0.950 . S
H3028 C3038 0.950 . S
H3029 C3040 0.950 . S
H3030 C3042 0.950 . S
H3031 C3043 0.950 . S
C3032 H3024 0.950 . S
C3032 C3033 1.386 . S
C3032 C3034 1.391 . S
C3033 C3032 1.386 . S
C3033 C3037 1.393 . S
C3034 H3026 0.950 . S
C3034 C3032 1.391 . S
C3034 C3035 1.400 . S
C3035 C3034 1.400 . S
C3035 C3036 1.398 . S
C3035 C3041 1.491 . S
C3036 H3027 0.950 . S
C3036 C3035 1.398 . S
C3036 C3037 1.391 . S
C3037 H3025 0.950 . S
C3037 C3033 1.393 . S
C3037 C3036 1.391 . S
C3038 H3028 0.950 . S
C3038 C3039 1.386 . S
C3038 C3040 1.391 . S
C3039 C3038 1.386 . S
C3039 C3043 1.393 . S
C3040 H3029 0.950 . S
C3040 C3038 1.391 . S
C3040 C3041 1.400 . S
C3041 C3035 1.491 . S
C3041 C3040 1.400 . S
C3041 C3042 1.398 . S
C3042 H3030 0.950 . S
C3042 C3041 1.398 . S
C3042 C3043 1.391 . S
C3043 H3031 0.950 . S
C3043 C3039 1.393 . S
C3043 C3042 1.391 . S
H3044 C3052 0.950 . S
H3045 C3057 0.950 . S
H3046 C3054 0.950 . S
H3047 C3056 0.950 . S
H3048 C3058 0.950 . S
H3049 C3060 0.950 . S
H3050 C3062 0.950 . S
H3051 C3063 0.950 . S
C3052 H3044 0.950 . S
C3052 C3053 1.386 . S
C3052 C3054 1.391 . S
C3053 C3052 1.386 . S
C3053 C3057 1.393 . S
C3054 H3046 0.950 . S
C3054 C3052 1.391 . S
C3054 C3055 1.400 . S
C3055 C3054 1.400 . S
C3055 C3056 1.398 . S
C3055 C3061 1.491 . S
C3056 H3047 0.950 . S
C3056 C3055 1.398 . S
C3056 C3057 1.391 . S
C3057 H3045 0.950 . S
C3057 C3053 1.393 . S
C3057 C3056 1.391 . S
C3058 H3048 0.950 . S
C3058 C3059 1.386 . S
C3058 C3060 1.391 . S
C3059 C3058 1.386 . S
C3059 C3063 1.393 . S
C3060 H3049 0.950 . S
C3060 C3058 1.391 . S
C3060 C3061 1.400 . S
C3061 C3055 1.491 . S
C3061 C3060 1.400 . S
C3061 C3062 1.398 . S
C3062 H3050 0.950 . S
C3062 C3061 1.398 . S
C3062 C3063 1.391 . S
C3063 H3051 0.950 . S
C3063 C3059 1.393 . S
C3063 C3062 1.391 . S
H3064 C3072 0.950 . S
H3065 C3077 0.950 . S
H3066 C3074 0.950 . S
H3067 C3076 0.950 . S
H3068 C3078 0.950 . S
H3069 C3080 0.950 . S
H3070 C3082 0.950 . S
H3071 C3083 0.950 . S
C3072 H3064 0.950 . S
C3072 C3073 1.386 . S
C3072 C3074 1.391 . S
C3073 C3072 1.386 . S
C3073 C3077 1.393 . S
C3074 H3066 0.950 . S
C3074 C3072 1.391 . S
C3074 C3075 1.400 . S
C3075 C3074 1.400 . S
C3075 C3076 1.398 . S
C3075 C3081 1.491 . S
C3076 H3067 0.950 . S
C3076 C3075 1.398 . S
C3076 C3077 1.391 . S
C3077 H3065 0.950 . S
C3077 C3073 1.393 . S
C3077 C3076 1.391 . S
C3078 H3068 0.950 . S
C3078 C3079 1.386 . S
C3078 C3080 1.391 . S
C3079 C3078 1.386 . S
C3079 C3083 1.393 . S
C3080 H3069 0.950 . S
C3080 C3078 1.391 . S
C3080 C3081 1.400 . S
C3081 C3075 1.491 . S
C3081 C3080 1.400 . S
C3081 C3082 1.398 . S
C3082 H3070 0.950 . S
C3082 C3081 1.398 . S
C3082 C3083 1.391 . S
C3083 H3071 0.950 . S
C3083 C3079 1.393 . S
C3083 C3082 1.391 . S
H3084 C3092 0.950 . S
H3085 C3097 0.950 . S
H3086 C3094 0.950 . S
H3087 C3096 0.950 . S
H3088 C3098 0.950 . S
H3089 C3100 0.950 . S
H3090 C3102 0.950 . S
H3091 C3103 0.950 . S
C3092 H3084 0.950 . S
C3092 C3093 1.386 . S
C3092 C3094 1.391 . S
C3093 C3092 1.386 . S
C3093 C3097 1.393 . S
C3094 H3086 0.950 . S
C3094 C3092 1.391 . S
C3094 C3095 1.400 . S
C3095 C3094 1.400 . S
C3095 C3096 1.398 . S
C3095 C3101 1.491 . S
C3096 H3087 0.950 . S
C3096 C3095 1.398 . S
C3096 C3097 1.391 . S
C3097 H3085 0.950 . S
C3097 C3093 1.393 . S
C3097 C3096 1.391 . S
C3098 H3088 0.950 . S
C3098 C3099 1.386 . S
C3098 C3100 1.391 . S
C3099 C3098 1.386 . S
C3099 C3103 1.393 . S
C3100 H3089 0.950 . S
C3100 C3098 1.391 . S
C3100 C3101 1.400 . S
C3101 C3095 1.491 . S
C3101 C3100 1.400 . S
C3101 C3102 1.398 . S
C3102 H3090 0.950 . S
C3102 C3101 1.398 . S
C3102 C3103 1.391 . S
C3103 H3091 0.950 . S
C3103 C3099 1.393 . S
C3103 C3102 1.391 . S
H3104 C3112 0.950 . S
H3105 C3117 0.950 . S
H3106 C3114 0.950 . S
H3107 C3116 0.950 . S
H3108 C3118 0.950 . S
H3109 C3120 0.950 . S
H3110 C3122 0.950 . S
H3111 C3123 0.950 . S
C3112 H3104 0.950 . S
C3112 C3113 1.386 . S
C3112 C3114 1.391 . S
C3113 C3112 1.386 . S
C3113 C3117 1.393 . S
C3114 H3106 0.950 . S
C3114 C3112 1.391 . S
C3114 C3115 1.400 . S
C3115 C3114 1.400 . S
C3115 C3116 1.398 . S
C3115 C3121 1.491 . S
C3116 H3107 0.950 . S
C3116 C3115 1.398 . S
C3116 C3117 1.391 . S
C3117 H3105 0.950 . S
C3117 C3113 1.393 . S
C3117 C3116 1.391 . S
C3118 H3108 0.950 . S
C3118 C3119 1.386 . S
C3118 C3120 1.391 . S
C3119 C3118 1.386 . S
C3119 C3123 1.393 . S
C3120 H3109 0.950 . S
C3120 C3118 1.391 . S
C3120 C3121 1.400 . S
C3121 C3115 1.491 . S
C3121 C3120 1.400 . S
C3121 C3122 1.398 . S
C3122 H3110 0.950 . S
C3122 C3121 1.398 . S
C3122 C3123 1.391 . S
C3123 H3111 0.950 . S
C3123 C3119 1.393 . S
C3123 C3122 1.391 . S
H3124 C3132 0.950 . S
H3125 C3137 0.950 . S
H3126 C3134 0.950 . S
H3127 C3136 0.950 . S
H3128 C3138 0.950 . S
H3129 C3140 0.950 . S
H3130 C3142 0.950 . S
H3131 C3143 0.950 . S
C3132 H3124 0.950 . S
C3132 C3133 1.386 . S
C3132 C3134 1.391 . S
C3133 C3132 1.386 . S
C3133 C3137 1.393 . S
C3134 H3126 0.950 . S
C3134 C3132 1.391 . S
C3134 C3135 1.400 . S
C3135 C3134 1.400 . S
C3135 C3136 1.398 . S
C3135 C3141 1.491 . S
C3136 H3127 0.950 . S
C3136 C3135 1.398 . S
C3136 C3137 1.391 . S
C3137 H3125 0.950 . S
C3137 C3133 1.393 . S
C3137 C3136 1.391 . S
C3138 H3128 0.950 . S
C3138 C3139 1.386 . S
C3138 C3140 1.391 . S
C3139 C3138 1.386 . S
C3139 C3143 1.393 . S
C3140 H3129 0.950 . S
C3140 C3138 1.391 . S
C3140 C3141 1.400 . S
C3141 C3135 1.491 . S
C3141 C3140 1.400 . S
C3141 C3142 1.398 . S
C3142 H3130 0.950 . S
C3142 C3141 1.398 . S
C3142 C3143 1.391 . S
C3143 H3131 0.950 . S
C3143 C3139 1.393 . S
C3143 C3142 1.391 . S
H3144 C3152 0.950 . S
H3145 C3157 0.950 . S
H3146 C3154 0.950 . S
H3147 C3156 0.950 . S
H3148 C3158 0.950 . S
H3149 C3160 0.950 . S
H3150 C3162 0.950 . S
H3151 C3163 0.950 . S
C3152 H3144 0.950 . S
C3152 C3153 1.386 . S
C3152 C3154 1.391 . S
C3153 C3152 1.386 . S
C3153 C3157 1.393 . S
C3154 H3146 0.950 . S
C3154 C3152 1.391 . S
C3154 C3155 1.400 . S
C3155 C3154 1.400 . S
C3155 C3156 1.398 . S
C3155 C3161 1.491 . S
C3156 H3147 0.950 . S
C3156 C3155 1.398 . S
C3156 C3157 1.391 . S
C3157 H3145 0.950 . S
C3157 C3153 1.393 . S
C3157 C3156 1.391 . S
C3158 H3148 0.950 . S
C3158 C3159 1.386 . S
C3158 C3160 1.391 . S
C3159 C3158 1.386 . S
C3159 C3163 1.393 . S
C3160 H3149 0.950 . S
C3160 C3158 1.391 . S
C3160 C3161 1.400 . S
C3161 C3155 1.491 . S
C3161 C3160 1.400 . S
C3161 C3162 1.398 . S
C3162 H3150 0.950 . S
C3162 C3161 1.398 . S
C3162 C3163 1.391 . S
C3163 H3151 0.950 . S
C3163 C3159 1.393 . S
C3163 C3162 1.391 . S
H3164 C3172 0.950 . S
H3165 C3177 0.950 . S
H3166 C3174 0.950 . S
H3167 C3176 0.950 . S
H3168 C3178 0.950 . S
H3169 C3180 0.950 . S
H3170 C3182 0.950 . S
H3171 C3183 0.950 . S
C3172 H3164 0.950 . S
C3172 C3173 1.386 . S
C3172 C3174 1.391 . S
C3173 C3172 1.386 . S
C3173 C3177 1.393 . S
C3174 H3166 0.950 . S
C3174 C3172 1.391 . S
C3174 C3175 1.400 . S
C3175 C3174 1.400 . S
C3175 C3176 1.398 . S
C3175 C3181 1.491 . S
C3176 H3167 0.950 . S
C3176 C3175 1.398 . S
C3176 C3177 1.391 . S
C3177 H3165 0.950 . S
C3177 C3173 1.393 . S
C3177 C3176 1.391 . S
C3178 H3168 0.950 . S
C3178 C3179 1.386 . S
C3178 C3180 1.391 . S
C3179 C3178 1.386 . S
C3179 C3183 1.393 . S
C3180 H3169 0.950 . S
C3180 C3178 1.391 . S
C3180 C3181 1.400 . S
C3181 C3175 1.491 . S
C3181 C3180 1.400 . S
C3181 C3182 1.398 . S
C3182 H3170 0.950 . S
C3182 C3181 1.398 . S
C3182 C3183 1.391 . S
C3183 H3171 0.950 . S
C3183 C3179 1.393 . S
C3183 C3182 1.391 . S
H3184 C3192 0.950 . S
H3185 C3197 0.950 . S
H3186 C3194 0.950 . S
H3187 C3196 0.950 . S
H3188 C3198 0.950 . S
H3189 C3200 0.950 . S
H3190 C3202 0.950 . S
H3191 C3203 0.950 . S
C3192 H3184 0.950 . S
C3192 C3193 1.386 . S
C3192 C3194 1.391 . S
C3193 C3192 1.386 . S
C3193 C3197 1.393 . S
C3194 H3186 0.950 . S
C3194 C3192 1.391 . S
C3194 C3195 1.400 . S
C3195 C3194 1.400 . S
C3195 C3196 1.398 . S
C3195 C3201 1.491 . S
C3196 H3187 0.950 . S
C3196 C3195 1.398 . S
C3196 C3197 1.391 . S
C3197 H3185 0.950 . S
C3197 C3193 1.393 . S
C3197 C3196 1.391 . S
C3198 H3188 0.950 . S
C3198 C3199 1.386 . S
C3198 C3200 1.391 . S
C3199 C3198 1.386 . S
C3199 C3203 1.393 . S
C3200 H3189 0.950 . S
C3200 C3198 1.391 . S
C3200 C3201 1.400 . S
C3201 C3195 1.491 . S
C3201 C3200 1.400 . S
C3201 C3202 1.398 . S
C3202 H3190 0.950 . S
C3202 C3201 1.398 . S
C3202 C3203 1.391 . S
C3203 H3191 0.950 . S
C3203 C3199 1.393 . S
C3203 C3202 1.391 . S
H3204 C3212 0.950 . S
H3205 C3217 0.950 . S
H3206 C3214 0.950 . S
H3207 C3216 0.950 . S
H3208 C3218 0.950 . S
H3209 C3220 0.950 . S
H3210 C3222 0.950 . S
H3211 C3223 0.950 . S
C3212 H3204 0.950 . S
C3212 C3213 1.386 . S
C3212 C3214 1.391 . S
C3213 C3212 1.386 . S
C3213 C3217 1.393 . S
C3214 H3206 0.950 . S
C3214 C3212 1.391 . S
C3214 C3215 1.400 . S
C3215 C3214 1.400 . S
C3215 C3216 1.398 . S
C3215 C3221 1.491 . S
C3216 H3207 0.950 . S
C3216 C3215 1.398 . S
C3216 C3217 1.391 . S
C3217 H3205 0.950 . S
C3217 C3213 1.393 . S
C3217 C3216 1.391 . S
C3218 H3208 0.950 . S
C3218 C3219 1.386 . S
C3218 C3220 1.391 . S
C3219 C3218 1.386 . S
C3219 C3223 1.393 . S
C3220 H3209 0.950 . S
C3220 C3218 1.391 . S
C3220 C3221 1.400 . S
C3221 C3215 1.491 . S
C3221 C3220 1.400 . S
C3221 C3222 1.398 . S
C3222 H3210 0.950 . S
C3222 C3221 1.398 . S
C3222 C3223 1.391 . S
C3223 H3211 0.950 . S
C3223 C3219 1.393 . S
C3223 C3222 1.391 . S
H3224 C3232 0.950 . S
H3225 C3237 0.950 . S
H3226 C3234 0.950 . S
H3227 C3236 0.950 . S
H3228 C3238 0.950 . S
H3229 C3240 0.950 . S
H3230 C3242 0.950 . S
H3231 C3243 0.950 . S
C3232 H3224 0.950 . S
C3232 C3233 1.386 . S
C3232 C3234 1.391 . S
C3233 C3232 1.386 . S
C3233 C3237 1.393 . S
C3234 H3226 0.950 . S
C3234 C3232 1.391 . S
C3234 C3235 1.400 . S
C3235 C3234 1.400 . S
C3235 C3236 1.398 . S
C3235 C3241 1.491 . S
C3236 H3227 0.950 . S
C3236 C3235 1.398 . S
C3236 C3237 1.391 . S
C3237 H3225 0.950 . S
C3237 C3233 1.393 . S
C3237 C3236 1.391 . S
C3238 H3228 0.950 . S
C3238 C3239 1.386 . S
C3238 C3240 1.391 . S
C3239 C3238 1.386 . S
C3239 C3243 1.393 . S
C3240 H3229 0.950 . S
C3240 C3238 1.391 . S
C3240 C3241 1.400 . S
C3241 C3235 1.491 . S
C3241 C3240 1.400 . S
C3241 C3242 1.398 . S
C3242 H3230 0.950 . S
C3242 C3241 1.398 . S
C3242 C3243 1.391 . S
C3243 H3231 0.950 . S
C3243 C3239 1.393 . S
C3243 C3242 1.391 . S
H3244 C3252 0.950 . S
H3245 C3257 0.950 . S
H3246 C3254 0.950 . S
H3247 C3256 0.950 . S
H3248 C3258 0.950 . S
H3249 C3260 0.950 . S
H3250 C3262 0.950 . S
H3251 C3263 0.950 . S
C3252 H3244 0.950 . S
C3252 C3253 1.386 . S
C3252 C3254 1.391 . S
C3253 C3252 1.386 . S
C3253 C3257 1.393 . S
C3254 H3246 0.950 . S
C3254 C3252 1.391 . S
C3254 C3255 1.400 . S
C3255 C3254 1.400 . S
C3255 C3256 1.398 . S
C3255 C3261 1.491 . S
C3256 H3247 0.950 . S
C3256 C3255 1.398 . S
C3256 C3257 1.391 . S
C3257 H3245 0.950 . S
C3257 C3253 1.393 . S
C3257 C3256 1.391 . S
C3258 H3248 0.950 . S
C3258 C3259 1.386 . S
C3258 C3260 1.391 . S
C3259 C3258 1.386 . S
C3259 C3263 1.393 . S
C3260 H3249 0.950 . S
C3260 C3258 1.391 . S
C3260 C3261 1.400 . S
C3261 C3255 1.491 . S
C3261 C3260 1.400 . S
C3261 C3262 1.398 . S
C3262 H3250 0.950 . S
C3262 C3261 1.398 . S
C3262 C3263 1.391 . S
C3263 H3251 0.950 . S
C3263 C3259 1.393 . S
C3263 C3262 1.391 . S
H3264 C3272 0.950 . S
H3265 C3277 0.950 . S
H3266 C3274 0.950 . S
H3267 C3276 0.950 . S
H3268 C3278 0.950 . S
H3269 C3280 0.950 . S
H3270 C3282 0.950 . S
H3271 C3283 0.950 . S
C3272 H3264 0.950 . S
C3272 C3273 1.386 . S
C3272 C3274 1.391 . S
C3273 C3272 1.386 . S
C3273 C3277 1.393 . S
C3274 H3266 0.950 . S
C3274 C3272 1.391 . S
C3274 C3275 1.400 . S
C3275 C3274 1.400 . S
C3275 C3276 1.398 . S
C3275 C3281 1.491 . S
C3276 H3267 0.950 . S
C3276 C3275 1.398 . S
C3276 C3277 1.391 . S
C3277 H3265 0.950 . S
C3277 C3273 1.393 . S
C3277 C3276 1.391 . S
C3278 H3268 0.950 . S
C3278 C3279 1.386 . S
C3278 C3280 1.391 . S
C3279 C3278 1.386 . S
C3279 C3283 1.393 . S
C3280 H3269 0.950 . S
C3280 C3278 1.391 . S
C3280 C3281 1.400 . S
C3281 C3275 1.491 . S
C3281 C3280 1.400 . S
C3281 C3282 1.398 . S
C3282 H3270 0.950 . S
C3282 C3281 1.398 . S
C3282 C3283 1.391 . S
C3283 H3271 0.950 . S
C3283 C3279 1.393 . S
C3283 C3282 1.391 . S
H3284 C3292 0.950 . S
H3285 C3297 0.950 . S
H3286 C3294 0.950 . S
H3287 C3296 0.950 . S
H3288 C3298 0.950 . S
H3289 C3300 0.950 . S
H3290 C3302 0.950 . S
H3291 C3303 0.950 . S
C3292 H3284 0.950 . S
C3292 C3293 1.386 . S
C3292 C3294 1.391 . S
C3293 C3292 1.386 . S
C3293 C3297 1.393 . S
C3294 H3286 0.950 . S
C3294 C3292 1.391 . S
C3294 C3295 1.400 . S
C3295 C3294 1.400 . S
C3295 C3296 1.398 . S
C3295 C3301 1.491 . S
C3296 H3287 0.950 . S
C3296 C3295 1.398 . S
C3296 C3297 1.391 . S
C3297 H3285 0.950 . S
C3297 C3293 1.393 . S
C3297 C3296 1.391 . S
C3298 H3288 0.950 . S
C3298 C3299 1.386 . S
C3298 C3300 1.391 . S
C3299 C3298 1.386 . S
C3299 C3303 1.393 . S
C3300 H3289 0.950 . S
C3300 C3298 1.391 . S
C3300 C3301 1.400 . S
C3301 C3295 1.491 . S
C3301 C3300 1.400 . S
C3301 C3302 1.398 . S
C3302 H3290 0.950 . S
C3302 C3301 1.398 . S
C3302 C3303 1.391 . S
C3303 H3291 0.950 . S
C3303 C3299 1.393 . S
C3303 C3302 1.391 . S
H3304 C3312 0.950 . S
H3305 C3317 0.950 . S
H3306 C3314 0.950 . S
H3307 C3316 0.950 . S
H3308 C3318 0.950 . S
H3309 C3320 0.950 . S
H3310 C3322 0.950 . S
H3311 C3323 0.950 . S
C3312 H3304 0.950 . S
C3312 C3313 1.386 . S
C3312 C3314 1.391 . S
C3313 C3312 1.386 . S
C3313 C3317 1.393 . S
C3314 H3306 0.950 . S
C3314 C3312 1.391 . S
C3314 C3315 1.400 . S
C3315 C3314 1.400 . S
C3315 C3316 1.398 . S
C3315 C3321 1.491 . S
C3316 H3307 0.950 . S
C3316 C3315 1.398 . S
C3316 C3317 1.391 . S
C3317 H3305 0.950 . S
C3317 C3313 1.393 . S
C3317 C3316 1.391 . S
C3318 H3308 0.950 . S
C3318 C3319 1.386 . S
C3318 C3320 1.391 . S
C3319 C3318 1.386 . S
C3319 C3323 1.393 . S
C3320 H3309 0.950 . S
C3320 C3318 1.391 . S
C3320 C3321 1.400 . S
C3321 C3315 1.491 . S
C3321 C3320 1.400 . S
C3321 C3322 1.398 . S
C3322 H3310 0.950 . S
C3322 C3321 1.398 . S
C3322 C3323 1.391 . S
C3323 H3311 0.950 . S
C3323 C3319 1.393 . S
C3323 C3322 1.391 . S
H3324 C3332 0.950 . S
H3325 C3337 0.950 . S
H3326 C3334 0.950 . S
H3327 C3336 0.950 . S
H3328 C3338 0.950 . S
H3329 C3340 0.950 . S
H3330 C3342 0.950 . S
H3331 C3343 0.950 . S
C3332 H3324 0.950 . S
C3332 C3333 1.386 . S
C3332 C3334 1.391 . S
C3333 C3332 1.386 . S
C3333 C3337 1.393 . S
C3334 H3326 0.950 . S
C3334 C3332 1.391 . S
C3334 C3335 1.400 . S
C3335 C3334 1.400 . S
C3335 C3336 1.398 . S
C3335 C3341 1.491 . S
C3336 H3327 0.950 . S
C3336 C3335 1.398 . S
C3336 C3337 1.391 . S
C3337 H3325 0.950 . S
C3337 C3333 1.393 . S
C3337 C3336 1.391 . S
C3338 H3328 0.950 . S
C3338 C3339 1.386 . S
C3338 C3340 1.391 . S
C3339 C3338 1.386 . S
C3339 C3343 1.393 . S
C3340 H3329 0.950 . S
C3340 C3338 1.391 . S
C3340 C3341 1.400 . S
C3341 C3335 1.491 . S
C3341 C3340 1.400 . S
C3341 C3342 1.398 . S
C3342 H3330 0.950 . S
C3342 C3341 1.398 . S
C3342 C3343 1.391 . S
C3343 H3331 0.950 . S
C3343 C3339 1.393 . S
C3343 C3342 1.391 . S
H3344 C3352 0.950 . S
H3345 C3357 0.950 . S
H3346 C3354 0.950 . S
H3347 C3356 0.950 . S
H3348 C3358 0.950 . S
H3349 C3360 0.950 . S
H3350 C3362 0.950 . S
H3351 C3363 0.950 . S
C3352 H3344 0.950 . S
C3352 C3353 1.386 . S
C3352 C3354 1.391 . S
C3353 C3352 1.386 . S
C3353 C3357 1.393 . S
C3354 H3346 0.950 . S
C3354 C3352 1.391 . S
C3354 C3355 1.400 . S
C3355 C3354 1.400 . S
C3355 C3356 1.398 . S
C3355 C3361 1.491 . S
C3356 H3347 0.950 . S
C3356 C3355 1.398 . S
C3356 C3357 1.391 . S
C3357 H3345 0.950 . S
C3357 C3353 1.393 . S
C3357 C3356 1.391 . S
C3358 H3348 0.950 . S
C3358 C3359 1.386 . S
C3358 C3360 1.391 . S
C3359 C3358 1.386 . S
C3359 C3363 1.393 . S
C3360 H3349 0.950 . S
C3360 C3358 1.391 . S
C3360 C3361 1.400 . S
C3361 C3355 1.491 . S
C3361 C3360 1.400 . S
C3361 C3362 1.398 . S
C3362 H3350 0.950 . S
C3362 C3361 1.398 . S
C3362 C3363 1.391 . S
C3363 H3351 0.950 . S
C3363 C3359 1.393 . S
C3363 C3362 1.391 . S
H3364 C3372 0.950 . S
H3365 C3377 0.950 . S
H3366 C3374 0.950 . S
H3367 C3376 0.950 . S
H3368 C3378 0.950 . S
H3369 C3380 0.950 . S
H3370 C3382 0.950 . S
H3371 C3383 0.950 . S
C3372 H3364 0.950 . S
C3372 C3373 1.386 . S
C3372 C3374 1.391 . S
C3373 C3372 1.386 . S
C3373 C3377 1.393 . S
C3374 H3366 0.950 . S
C3374 C3372 1.391 . S
C3374 C3375 1.400 . S
C3375 C3374 1.400 . S
C3375 C3376 1.398 . S
C3375 C3381 1.491 . S
C3376 H3367 0.950 . S
C3376 C3375 1.398 . S
C3376 C3377 1.391 . S
C3377 H3365 0.950 . S
C3377 C3373 1.393 . S
C3377 C3376 1.391 . S
C3378 H3368 0.950 . S
C3378 C3379 1.386 . S
C3378 C3380 1.391 . S
C3379 C3378 1.386 . S
C3379 C3383 1.393 . S
C3380 H3369 0.950 . S
C3380 C3378 1.391 . S
C3380 C3381 1.400 . S
C3381 C3375 1.491 . S
C3381 C3380 1.400 . S
C3381 C3382 1.398 . S
C3382 H3370 0.950 . S
C3382 C3381 1.398 . S
C3382 C3383 1.391 . S
C3383 H3371 0.950 . S
C3383 C3379 1.393 . S
C3383 C3382 1.391 . S
H3384 C3392 0.950 . S
H3385 C3397 0.950 . S
H3386 C3394 0.950 . S
H3387 C3396 0.950 . S
H3388 C3398 0.950 . S
H3389 C3400 0.950 . S
H3390 C3402 0.950 . S
H3391 C3403 0.950 . S
C3392 H3384 0.950 . S
C3392 C3393 1.386 . S
C3392 C3394 1.391 . S
C3393 C3392 1.386 . S
C3393 C3397 1.393 . S
C3394 H3386 0.950 . S
C3394 C3392 1.391 . S
C3394 C3395 1.400 . S
C3395 C3394 1.400 . S
C3395 C3396 1.398 . S
C3395 C3401 1.491 . S
C3396 H3387 0.950 . S
C3396 C3395 1.398 . S
C3396 C3397 1.391 . S
C3397 H3385 0.950 . S
C3397 C3393 1.393 . S
C3397 C3396 1.391 . S
C3398 H3388 0.950 . S
C3398 C3399 1.386 . S
C3398 C3400 1.391 . S
C3399 C3398 1.386 . S
C3399 C3403 1.393 . S
C3400 H3389 0.950 . S
C3400 C3398 1.391 . S
C3400 C3401 1.400 . S
C3401 C3395 1.491 . S
C3401 C3400 1.400 . S
C3401 C3402 1.398 . S
C3402 H3390 0.950 . S
C3402 C3401 1.398 . S
C3402 C3403 1.391 . S
C3403 H3391 0.950 . S
C3403 C3399 1.393 . S
C3403 C3402 1.391 . S
H3404 C3412 0.950 . S
H3405 C3417 0.950 . S
H3406 C3414 0.950 . S
H3407 C3416 0.950 . S
H3408 C3418 0.950 . S
H3409 C3420 0.950 . S
H3410 C3422 0.950 . S
H3411 C3423 0.950 . S
C3412 H3404 0.950 . S
C3412 C3413 1.386 . S
C3412 C3414 1.391 . S
C3413 C3412 1.386 . S
C3413 C3417 1.393 . S
C3414 H3406 0.950 . S
C3414 C3412 1.391 . S
C3414 C3415 1.400 . S
C3415 C3414 1.400 . S
C3415 C3416 1.398 . S
C3415 C3421 1.491 . S
C3416 H3407 0.950 . S
C3416 C3415 1.398 . S
C3416 C3417 1.391 . S
C3417 H3405 0.950 . S
C3417 C3413 1.393 . S
C3417 C3416 1.391 . S
C3418 H3408 0.950 . S
C3418 C3419 1.386 . S
C3418 C3420 1.391 . S
C3419 C3418 1.386 . S
C3419 C3423 1.393 . S
C3420 H3409 0.950 . S
C3420 C3418 1.391 . S
C3420 C3421 1.400 . S
C3421 C3415 1.491 . S
C3421 C3420 1.400 . S
C3421 C3422 1.398 . S
C3422 H3410 0.950 . S
C3422 C3421 1.398 . S
C3422 C3423 1.391 . S
C3423 H3411 0.950 . S
C3423 C3419 1.393 . S
C3423 C3422 1.391 . S
H3424 C3432 0.950 . S
H3425 C3437 0.950 . S
H3426 C3434 0.950 . S
H3427 C3436 0.950 . S
H3428 C3438 0.950 . S
H3429 C3440 0.950 . S
H3430 C3442 0.950 . S
H3431 C3443 0.950 . S
C3432 H3424 0.950 . S
C3432 C3433 1.386 . S
C3432 C3434 1.391 . S
C3433 C3432 1.386 . S
C3433 C3437 1.393 . S
C3434 H3426 0.950 . S
C3434 C3432 1.391 . S
C3434 C3435 1.400 . S
C3435 C3434 1.400 . S
C3435 C3436 1.398 . S
C3435 C3441 1.491 . S
C3436 H3427 0.950 . S
C3436 C3435 1.398 . S
C3436 C3437 1.391 . S
C3437 H3425 0.950 . S
C3437 C3433 1.393 . S
C3437 C3436 1.391 . S
C3438 H3428 0.950 . S
C3438 C3439 1.386 . S
C3438 C3440 1.391 . S
C3439 C3438 1.386 . S
C3439 C3443 1.393 . S
C3440 H3429 0.950 . S
C3440 C3438 1.391 . S
C3440 C3441 1.400 . S
C3441 C3435 1.491 . S
C3441 C3440 1.400 . S
C3441 C3442 1.398 . S
C3442 H3430 0.950 . S
C3442 C3441 1.398 . S
C3442 C3443 1.391 . S
C3443 H3431 0.950 . S
C3443 C3439 1.393 . S
C3443 C3442 1.391 . S
H3444 C3452 0.950 . S
H3445 C3457 0.950 . S
H3446 C3454 0.950 . S
H3447 C3456 0.950 . S
H3448 C3458 0.950 . S
H3449 C3460 0.950 . S
H3450 C3462 0.950 . S
H3451 C3463 0.950 . S
C3452 H3444 0.950 . S
C3452 C3453 1.386 . S
C3452 C3454 1.391 . S
C3453 C3452 1.386 . S
C3453 C3457 1.393 . S
C3454 H3446 0.950 . S
C3454 C3452 1.391 . S
C3454 C3455 1.400 . S
C3455 C3454 1.400 . S
C3455 C3456 1.398 . S
C3455 C3461 1.491 . S
C3456 H3447 0.950 . S
C3456 C3455 1.398 . S
C3456 C3457 1.391 . S
C3457 H3445 0.950 . S
C3457 C3453 1.393 . S
C3457 C3456 1.391 . S
C3458 H3448 0.950 . S
C3458 C3459 1.386 . S
C3458 C3460 1.391 . S
C3459 C3458 1.386 . S
C3459 C3463 1.393 . S
C3460 H3449 0.950 . S
C3460 C3458 1.391 . S
C3460 C3461 1.400 . S
C3461 C3455 1.491 . S
C3461 C3460 1.400 . S
C3461 C3462 1.398 . S
C3462 H3450 0.950 . S
C3462 C3461 1.398 . S
C3462 C3463 1.391 . S
C3463 H3451 0.950 . S
C3463 C3459 1.393 . S
C3463 C3462 1.391 . S
H3464 C3472 0.950 . S
H3465 C3477 0.950 . S
H3466 C3474 0.950 . S
H3467 C3476 0.950 . S
H3468 C3478 0.950 . S
H3469 C3480 0.950 . S
H3470 C3482 0.950 . S
H3471 C3483 0.950 . S
C3472 H3464 0.950 . S
C3472 C3473 1.386 . S
C3472 C3474 1.391 . S
C3473 C3472 1.386 . S
C3473 C3477 1.393 . S
C3474 H3466 0.950 . S
C3474 C3472 1.391 . S
C3474 C3475 1.400 . S
C3475 C3474 1.400 . S
C3475 C3476 1.398 . S
C3475 C3481 1.491 . S
C3476 H3467 0.950 . S
C3476 C3475 1.398 . S
C3476 C3477 1.391 . S
C3477 H3465 0.950 . S
C3477 C3473 1.393 . S
C3477 C3476 1.391 . S
C3478 H3468 0.950 . S
C3478 C3479 1.386 . S
C3478 C3480 1.391 . S
C3479 C3478 1.386 . S
C3479 C3483 1.393 . S
C3480 H3469 0.950 . S
C3480 C3478 1.391 . S
C3480 C3481 1.400 . S
C3481 C3475 1.491 . S
C3481 C3480 1.400 . S
C3481 C3482 1.398 . S
C3482 H3470 0.950 . S
C3482 C3481 1.398 . S
C3482 C3483 1.391 . S
C3483 H3471 0.950 . S
C3483 C3479 1.393 . S
C3483 C3482 1.391 . S
H3484 C3492 0.950 . S
H3485 C3497 0.950 . S
H3486 C3494 0.950 . S
H3487 C3496 0.950 . S
H3488 C3498 0.950 . S
H3489 C3500 0.950 . S
H3490 C3502 0.950 . S
H3491 C3503 0.950 . S
C3492 H3484 0.950 . S
C3492 C3493 1.386 . S
C3492 C3494 1.391 . S
C3493 C3492 1.386 . S
C3493 C3497 1.393 . S
C3494 H3486 0.950 . S
C3494 C3492 1.391 . S
C3494 C3495 1.400 . S
C3495 C3494 1.400 . S
C3495 C3496 1.398 . S
C3495 C3501 1.491 . S
C3496 H3487 0.950 . S
C3496 C3495 1.398 . S
C3496 C3497 1.391 . S
C3497 H3485 0.950 . S
C3497 C3493 1.393 . S
C3497 C3496 1.391 . S
C3498 H3488 0.950 . S
C3498 C3499 1.386 . S
C3498 C3500 1.391 . S
C3499 C3498 1.386 . S
C3499 C3503 1.393 . S
C3500 H3489 0.950 . S
C3500 C3498 1.391 . S
C3500 C3501 1.400 . S
C3501 C3495 1.491 . S
C3501 C3500 1.400 . S
C3501 C3502 1.398 . S
C3502 H3490 0.950 . S
C3502 C3501 1.398 . S
C3502 C3503 1.391 . S
C3503 H3491 0.950 . S
C3503 C3499 1.393 . S
C3503 C3502 1.391 . S
H3504 C3512 0.950 . S
H3505 C3517 0.950 1_455 S
H3506 C3514 0.950 . S
H3507 C3516 0.950 1_455 S
H3508 C3518 0.950 1_455 S
H3509 C3520 0.950 1_455 S
H3510 C3522 0.982 . S
H3511 C3523 0.950 . S
C3512 H3504 0.950 . S
C3512 C3513 1.386 . S
C3512 C3514 1.391 . S
C3513 C3512 1.386 . S
C3513 C3517 1.393 . S
C3514 H3506 0.950 . S
C3514 C3512 1.391 . S
C3514 C3515 1.400 . S
C3515 C3514 1.400 . S
C3515 C3516 1.398 . S
C3515 C3521 1.491 1_565 S
C3516 H3507 0.950 1_655 S
C3516 C3515 1.398 . S
C3516 C3517 1.391 . S
C3517 H3505 0.950 1_655 S
C3517 C3513 1.393 . S
C3517 C3516 1.391 . S
C3518 H3508 0.950 1_655 S
C3518 C3519 1.386 . S
C3518 C3520 1.391 . S
C3519 C3518 1.386 . S
C3519 C3523 1.393 . S
C3520 H3509 0.950 1_655 S
C3520 C3518 1.391 . S
C3520 C3521 1.400 . S
C3521 C3515 1.491 1_545 S
C3521 C3520 1.400 . S
C3521 C3522 1.398 . S
C3522 H3510 0.982 . S
C3522 C3521 1.398 . S
C3522 C3523 1.391 . S
C3523 H3511 0.950 . S
C3523 C3519 1.393 . S
C3523 C3522 1.391 . S
H3524 C3532 0.950 . S
H3525 C3537 0.950 . S
H3526 C3534 0.950 . S
H3527 C3536 0.950 . S
H3528 C3538 0.950 . S
H3529 C3540 0.950 . S
H3530 C3542 0.950 . S
H3531 C3543 0.950 . S
C3532 H3524 0.950 . S
C3532 C3533 1.386 . S
C3532 C3534 1.391 . S
C3533 C3532 1.386 . S
C3533 C3537 1.393 . S
C3534 H3526 0.950 . S
C3534 C3532 1.391 . S
C3534 C3535 1.400 . S
C3535 C3534 1.400 . S
C3535 C3536 1.398 . S
C3535 C3541 1.491 . S
C3536 H3527 0.950 . S
C3536 C3535 1.398 . S
C3536 C3537 1.391 . S
C3537 H3525 0.950 . S
C3537 C3533 1.393 . S
C3537 C3536 1.391 . S
C3538 H3528 0.950 . S
C3538 C3539 1.386 . S
C3538 C3540 1.391 . S
C3539 C3538 1.386 . S
C3539 C3543 1.393 . S
C3540 H3529 0.950 . S
C3540 C3538 1.391 . S
C3540 C3541 1.400 . S
C3541 C3535 1.491 . S
C3541 C3540 1.400 . S
C3541 C3542 1.398 . S
C3542 H3530 0.950 . S
C3542 C3541 1.398 . S
C3542 C3543 1.391 . S
C3543 H3531 0.950 . S
C3543 C3539 1.393 . S
C3543 C3542 1.391 . S
H3544 C3552 0.950 . S
H3545 C3557 0.950 . S
H3546 C3554 0.950 . S
H3547 C3556 0.955 1_565 S
H3548 C3558 0.950 . S
H3549 C3560 0.950 . S
H3550 C3562 0.923 1_545 S
H3551 C3563 0.950 . S
C3552 H3544 0.950 . S
C3552 C3553 1.386 . S
C3552 C3554 1.391 . S
C3553 C3552 1.386 . S
C3553 C3557 1.393 . S
C3554 H3546 0.950 . S
C3554 C3552 1.391 . S
C3554 C3555 1.400 . S
C3555 C3554 1.400 . S
C3555 C3556 1.397 . S
C3555 C3561 1.491 1_545 S
C3556 H3547 0.955 1_545 S
C3556 C3555 1.397 . S
C3556 C3557 1.388 . S
C3557 H3545 0.950 . S
C3557 C3553 1.393 . S
C3557 C3556 1.388 . S
C3558 H3548 0.950 . S
C3558 C3559 1.386 . S
C3558 C3560 1.391 . S
C3559 C3558 1.386 . S
C3559 C3563 1.393 . S
C3560 H3549 0.950 . S
C3560 C3558 1.391 . S
C3560 C3561 1.400 . S
C3561 C3555 1.491 1_565 S
C3561 C3560 1.400 . S
C3561 C3562 1.407 . S
C3562 H3550 0.923 1_565 S
C3562 C3561 1.407 . S
C3562 C3563 1.408 . S
C3563 H3551 0.950 . S
C3563 C3559 1.393 . S
C3563 C3562 1.408 . S
H3564 C3572 0.950 . S
H3565 C3577 0.950 . S
H3566 C3574 0.950 1_554 S
H3567 C3576 0.950 . S
H3568 C3578 0.950 . S
H3569 C3580 0.950 1_556 S
H3570 C3582 0.950 . S
H3571 C3583 0.950 . S
C3572 H3564 0.950 . S
C3572 C3573 1.386 . S
C3572 C3574 1.391 . S
C3573 C3572 1.386 . S
C3573 C3577 1.393 . S
C3574 H3566 0.950 1_556 S
C3574 C3572 1.391 . S
C3574 C3575 1.400 . S
C3575 C3574 1.400 . S
C3575 C3576 1.398 . S
C3575 C3581 1.491 1_556 S
C3576 H3567 0.950 . S
C3576 C3575 1.398 . S
C3576 C3577 1.391 . S
C3577 H3565 0.950 . S
C3577 C3573 1.393 . S
C3577 C3576 1.391 . S
C3578 H3568 0.950 . S
C3578 C3579 1.386 . S
C3578 C3580 1.391 . S
C3579 C3578 1.386 . S
C3579 C3583 1.393 . S
C3580 H3569 0.950 1_554 S
C3580 C3578 1.391 . S
C3580 C3581 1.400 . S
C3581 C3575 1.491 1_554 S
C3581 C3580 1.400 . S
C3581 C3582 1.398 . S
C3582 H3570 0.950 . S
C3582 C3581 1.398 . S
C3582 C3583 1.391 . S
C3583 H3571 0.950 . S
C3583 C3579 1.393 . S
C3583 C3582 1.391 . S
H3584 C3592 0.950 1_545 S
H3585 C3597 0.950 . S
H3586 C3594 0.950 1_544 S
H3587 C3596 0.950 . S
H3588 C3598 0.950 . S
H3589 C3600 0.950 1_556 S
H3590 C3602 0.950 1_545 S
H3591 C3603 0.950 1_545 S
C3592 H3584 0.950 1_565 S
C3592 C3593 1.386 . S
C3592 C3594 1.391 . S
C3593 C3592 1.386 . S
C3593 C3597 1.393 . S
C3594 H3586 0.950 1_566 S
C3594 C3592 1.391 . S
C3594 C3595 1.400 . S
C3595 C3594 1.400 . S
C3595 C3596 1.398 . S
C3595 C3601 1.491 1_556 S
C3596 H3587 0.950 . S
C3596 C3595 1.398 . S
C3596 C3597 1.391 . S
C3597 H3585 0.950 . S
C3597 C3593 1.393 . S
C3597 C3596 1.391 . S
C3598 H3588 0.950 . S
C3598 C3599 1.386 . S
C3598 C3600 1.391 . S
C3599 C3598 1.386 . S
C3599 C3603 1.393 . S
C3600 H3589 0.950 1_554 S
C3600 C3598 1.391 . S
C3600 C3601 1.400 . S
C3601 C3595 1.491 1_554 S
C3601 C3600 1.400 . S
C3601 C3602 1.398 . S
C3602 H3590 0.950 1_565 S
C3602 C3601 1.398 . S
C3602 C3603 1.391 . S
C3603 H3591 0.950 1_565 S
C3603 C3599 1.393 . S
C3603 C3602 1.391 . S
H3604 C3612 0.950 . S
H3605 C3617 0.950 . S
H3606 C3614 0.950 . S
H3607 C3616 0.950 . S
H3608 C3618 0.950 . S
H3609 C3620 0.950 . S
H3610 C3622 0.950 . S
H3611 C3623 0.950 . S
C3612 H3604 0.950 . S
C3612 C3613 1.386 . S
C3612 C3614 1.391 . S
C3613 C3612 1.386 . S
C3613 C3617 1.393 . S
C3614 H3606 0.950 . S
C3614 C3612 1.391 . S
C3614 C3615 1.400 . S
C3615 C3614 1.400 . S
C3615 C3616 1.398 . S
C3615 C3621 1.491 1_545 S
C3616 H3607 0.950 . S
C3616 C3615 1.398 . S
C3616 C3617 1.391 . S
C3617 H3605 0.950 . S
C3617 C3613 1.393 . S
C3617 C3616 1.391 . S
C3618 H3608 0.950 . S
C3618 C3619 1.386 . S
C3618 C3620 1.391 . S
C3619 C3618 1.386 . S
C3619 C3623 1.393 . S
C3620 H3609 0.950 . S
C3620 C3618 1.391 . S
C3620 C3621 1.400 . S
C3621 C3615 1.491 1_565 S
C3621 C3620 1.400 . S
C3621 C3622 1.398 . S
C3622 H3610 0.950 . S
C3622 C3621 1.398 . S
C3622 C3623 1.391 . S
C3623 H3611 0.950 . S
C3623 C3619 1.393 . S
C3623 C3622 1.391 . S
H3624 C3632 0.950 . S
H3625 C3637 0.950 1_565 S
H3626 C3634 0.950 . S
H3627 C3636 0.950 1_565 S
H3628 C3638 0.950 1_565 S
H3629 C3640 0.950 1_565 S
H3630 C3642 0.950 . S
H3631 C3643 0.950 . S
C3632 H3624 0.950 . S
C3632 C3633 1.386 . S
C3632 C3634 1.391 . S
C3633 C3632 1.386 . S
C3633 C3637 1.393 . S
C3634 H3626 0.950 . S
C3634 C3632 1.391 . S
C3634 C3635 1.400 . S
C3635 C3634 1.400 . S
C3635 C3636 1.398 . S
C3635 C3641 1.491 . S
C3636 H3627 0.950 1_545 S
C3636 C3635 1.398 . S
C3636 C3637 1.391 . S
C3637 H3625 0.950 1_545 S
C3637 C3633 1.393 . S
C3637 C3636 1.391 . S
C3638 H3628 0.950 1_545 S
C3638 C3639 1.386 . S
C3638 C3640 1.391 . S
C3639 C3638 1.386 . S
C3639 C3643 1.393 . S
C3640 H3629 0.950 1_545 S
C3640 C3638 1.391 . S
C3640 C3641 1.400 . S
C3641 C3635 1.491 . S
C3641 C3640 1.400 . S
C3641 C3642 1.398 . S
C3642 H3630 0.950 . S
C3642 C3641 1.398 . S
C3642 C3643 1.391 . S
C3643 H3631 0.950 . S
C3643 C3639 1.393 . S
C3643 C3642 1.391 . S
H3644 C3652 0.950 . S
H3645 C3657 0.950 . S
H3646 C3654 0.950 . S
H3647 C3656 0.950 . S
H3648 C3658 0.950 . S
H3649 C3660 0.950 . S
H3650 C3662 0.950 . S
H3651 C3663 0.950 . S
C3652 H3644 0.950 . S
C3652 C3653 1.386 . S
C3652 C3654 1.391 . S
C3653 C3652 1.386 . S
C3653 C3657 1.393 . S
C3654 H3646 0.950 . S
C3654 C3652 1.391 . S
C3654 C3655 1.400 . S
C3655 C3654 1.400 . S
C3655 C3656 1.398 . S
C3655 C3661 1.491 1_545 S
C3656 H3647 0.950 . S
C3656 C3655 1.398 . S
C3656 C3657 1.391 . S
C3657 H3645 0.950 . S
C3657 C3653 1.393 . S
C3657 C3656 1.391 . S
C3658 H3648 0.950 . S
C3658 C3659 1.386 . S
C3658 C3660 1.391 . S
C3659 C3658 1.386 . S
C3659 C3663 1.393 . S
C3660 H3649 0.950 . S
C3660 C3658 1.391 . S
C3660 C3661 1.400 . S
C3661 C3655 1.491 1_565 S
C3661 C3660 1.400 . S
C3661 C3662 1.398 . S
C3662 H3650 0.950 . S
C3662 C3661 1.398 . S
C3662 C3663 1.391 . S
C3663 H3651 0.950 . S
C3663 C3659 1.393 . S
C3663 C3662 1.391 . S
H3664 C3672 0.950 . S
H3665 C3677 0.950 . S
H3666 C3674 0.950 . S
H3667 C3676 0.994 . S
H3668 C3678 0.950 . S
H3669 C3680 0.950 . S
H3670 C3682 0.963 . S
H3671 C3683 0.950 . S
C3672 H3664 0.950 . S
C3672 C3673 1.386 . S
C3672 C3674 1.391 . S
C3673 C3672 1.386 . S
C3673 C3677 1.393 . S
C3674 H3666 0.950 . S
C3674 C3672 1.391 . S
C3674 C3675 1.400 . S
C3675 C3674 1.400 . S
C3675 C3676 1.383 1_455 S
C3675 C3681 1.491 1_455 S
C3676 H3667 0.994 . S
C3676 C3675 1.383 1_655 S
C3676 C3677 1.364 1_655 S
C3677 H3665 0.950 . S
C3677 C3673 1.393 . S
C3677 C3676 1.364 1_455 S
C3678 H3668 0.950 . S
C3678 C3679 1.386 . S
C3678 C3680 1.391 . S
C3679 C3678 1.386 . S
C3679 C3683 1.393 . S
C3680 H3669 0.950 . S
C3680 C3678 1.391 . S
C3680 C3681 1.400 . S
C3681 C3675 1.491 1_655 S
C3681 C3680 1.400 . S
C3681 C3682 1.394 1_655 S
C3682 H3670 0.963 . S
C3682 C3681 1.394 1_455 S
C3682 C3683 1.383 1_455 S
C3683 H3671 0.950 . S
C3683 C3679 1.393 . S
C3683 C3682 1.383 1_655 S
H3684 C3692 0.950 . S
H3685 C3697 0.950 . S
H3686 C3694 0.950 . S
H3687 C3696 0.950 . S
H3688 C3698 0.950 . S
H3689 C3700 0.950 . S
H3690 C3702 0.950 . S
H3691 C3703 0.950 . S
C3692 H3684 0.950 . S
C3692 C3693 1.386 . S
C3692 C3694 1.391 . S
C3693 C3692 1.386 . S
C3693 C3697 1.393 . S
C3694 H3686 0.950 . S
C3694 C3692 1.391 . S
C3694 C3695 1.400 . S
C3695 C3694 1.400 . S
C3695 C3696 1.398 . S
C3695 C3701 1.491 . S
C3696 H3687 0.950 . S
C3696 C3695 1.398 . S
C3696 C3697 1.391 . S
C3697 H3685 0.950 . S
C3697 C3693 1.393 . S
C3697 C3696 1.391 . S
C3698 H3688 0.950 . S
C3698 C3699 1.386 . S
C3698 C3700 1.391 . S
C3699 C3698 1.386 . S
C3699 C3703 1.393 . S
C3700 H3689 0.950 . S
C3700 C3698 1.391 . S
C3700 C3701 1.400 . S
C3701 C3695 1.491 . S
C3701 C3700 1.400 . S
C3701 C3702 1.398 . S
C3702 H3690 0.950 . S
C3702 C3701 1.398 . S
C3702 C3703 1.391 . S
C3703 H3691 0.950 . S
C3703 C3699 1.393 . S
C3703 C3702 1.391 . S
H3704 C3712 0.950 . S
H3705 C3717 0.950 . S
H3706 C3714 0.950 1_455 S
H3707 C3716 0.950 . S
H3708 C3718 0.950 . S
H3709 C3720 0.950 1_655 S
H3710 C3722 0.950 . S
H3711 C3723 0.950 . S
C3712 H3704 0.950 . S
C3712 C3713 1.386 . S
C3712 C3714 1.391 . S
C3713 C3712 1.386 . S
C3713 C3717 1.393 . S
C3714 H3706 0.950 1_655 S
C3714 C3712 1.391 . S
C3714 C3715 1.400 . S
C3715 C3714 1.400 . S
C3715 C3716 1.398 . S
C3715 C3721 1.491 1_655 S
C3716 H3707 0.950 . S
C3716 C3715 1.398 . S
C3716 C3717 1.391 . S
C3717 H3705 0.950 . S
C3717 C3713 1.393 . S
C3717 C3716 1.391 . S
C3718 H3708 0.950 . S
C3718 C3719 1.386 . S
C3718 C3720 1.391 . S
C3719 C3718 1.386 . S
C3719 C3723 1.393 . S
C3720 H3709 0.950 1_455 S
C3720 C3718 1.391 . S
C3720 C3721 1.400 . S
C3721 C3715 1.491 1_455 S
C3721 C3720 1.400 . S
C3721 C3722 1.398 . S
C3722 H3710 0.950 . S
C3722 C3721 1.398 . S
C3722 C3723 1.391 . S
C3723 H3711 0.950 . S
C3723 C3719 1.393 . S
C3723 C3722 1.391 . S
H3724 C3732 0.950 . S
H3725 C3737 0.950 . S
H3726 C3734 0.950 . S
H3727 C3736 0.950 . S
H3728 C3738 0.950 . S
H3729 C3740 0.950 . S
H3730 C3742 0.950 . S
H3731 C3743 0.950 . S
C3732 H3724 0.950 . S
C3732 C3733 1.386 . S
C3732 C3734 1.391 . S
C3733 C3732 1.386 . S
C3733 C3737 1.393 . S
C3734 H3726 0.950 . S
C3734 C3732 1.391 . S
C3734 C3735 1.400 . S
C3735 C3734 1.400 . S
C3735 C3736 1.398 . S
C3735 C3741 1.491 1_455 S
C3736 H3727 0.950 . S
C3736 C3735 1.398 . S
C3736 C3737 1.391 . S
C3737 H3725 0.950 . S
C3737 C3733 1.393 . S
C3737 C3736 1.391 . S
C3738 H3728 0.950 . S
C3738 C3739 1.386 . S
C3738 C3740 1.391 . S
C3739 C3738 1.386 . S
C3739 C3743 1.393 . S
C3740 H3729 0.950 . S
C3740 C3738 1.391 . S
C3740 C3741 1.400 . S
C3741 C3735 1.491 1_655 S
C3741 C3740 1.400 . S
C3741 C3742 1.398 . S
C3742 H3730 0.950 . S
C3742 C3741 1.398 . S
C3742 C3743 1.391 . S
C3743 H3731 0.950 . S
C3743 C3739 1.393 . S
C3743 C3742 1.391 . S
H3744 C3752 0.950 . S
H3745 C3757 0.950 . S
H3746 C3754 0.950 . S
H3747 C3756 0.950 . S
H3748 C3758 0.950 . S
H3749 C3760 0.950 . S
H3750 C3762 0.950 . S
H3751 C3763 0.950 . S
C3752 H3744 0.950 . S
C3752 C3753 1.386 . S
C3752 C3754 1.391 . S
C3753 C3752 1.386 . S
C3753 C3757 1.393 . S
C3754 H3746 0.950 . S
C3754 C3752 1.391 . S
C3754 C3755 1.400 . S
C3755 C3754 1.400 . S
C3755 C3756 1.398 . S
C3755 C3761 1.491 . S
C3756 H3747 0.950 . S
C3756 C3755 1.398 . S
C3756 C3757 1.391 . S
C3757 H3745 0.950 . S
C3757 C3753 1.393 . S
C3757 C3756 1.391 . S
C3758 H3748 0.950 . S
C3758 C3759 1.386 . S
C3758 C3760 1.391 . S
C3759 C3758 1.386 . S
C3759 C3763 1.393 . S
C3760 H3749 0.950 . S
C3760 C3758 1.391 . S
C3760 C3761 1.400 . S
C3761 C3755 1.491 . S
C3761 C3760 1.400 . S
C3761 C3762 1.398 . S
C3762 H3750 0.950 . S
C3762 C3761 1.398 . S
C3762 C3763 1.391 . S
C3763 H3751 0.950 . S
C3763 C3759 1.393 . S
C3763 C3762 1.391 . S
H3764 C3772 0.950 . S
H3765 C3777 0.950 . S
H3766 C3774 0.950 . S
H3767 C3776 0.950 1_655 S
H3768 C3778 0.950 . S
H3769 C3780 0.950 . S
H3770 C3782 0.950 1_455 S
H3771 C3783 0.950 . S
C3772 H3764 0.950 . S
C3772 C3773 1.386 . S
C3772 C3774 1.391 . S
C3773 C3772 1.386 . S
C3773 C3777 1.393 . S
C3774 H3766 0.950 . S
C3774 C3772 1.391 . S
C3774 C3775 1.400 . S
C3775 C3774 1.400 . S
C3775 C3776 1.398 . S
C3775 C3781 1.491 1_455 S
C3776 H3767 0.950 1_455 S
C3776 C3775 1.398 . S
C3776 C3777 1.391 . S
C3777 H3765 0.950 . S
C3777 C3773 1.393 . S
C3777 C3776 1.391 . S
C3778 H3768 0.950 . S
C3778 C3779 1.386 . S
C3778 C3780 1.391 . S
C3779 C3778 1.386 . S
C3779 C3783 1.393 . S
C3780 H3769 0.950 . S
C3780 C3778 1.391 . S
C3780 C3781 1.400 . S
C3781 C3775 1.491 1_655 S
C3781 C3780 1.400 . S
C3781 C3782 1.398 . S
C3782 H3770 0.950 1_655 S
C3782 C3781 1.398 . S
C3782 C3783 1.391 . S
C3783 H3771 0.950 . S
C3783 C3779 1.393 . S
C3783 C3782 1.391 . S
H3784 C3792 0.950 . S
H3785 C3797 0.950 . S
H3786 C3794 0.950 . S
H3787 C3796 0.950 . S
H3788 C3798 0.950 . S
H3789 C3800 0.950 . S
H3790 C3802 0.950 . S
H3791 C3803 0.950 . S
C3792 H3784 0.950 . S
C3792 C3793 1.386 . S
C3792 C3794 1.391 . S
C3793 C3792 1.386 . S
C3793 C3797 1.393 . S
C3794 H3786 0.950 . S
C3794 C3792 1.391 . S
C3794 C3795 1.400 . S
C3795 C3794 1.400 . S
C3795 C3796 1.398 . S
C3795 C3801 1.491 . S
C3796 H3787 0.950 . S
C3796 C3795 1.398 . S
C3796 C3797 1.391 . S
C3797 H3785 0.950 . S
C3797 C3793 1.393 . S
C3797 C3796 1.391 . S
C3798 H3788 0.950 . S
C3798 C3799 1.386 . S
C3798 C3800 1.391 . S
C3799 C3798 1.386 . S
C3799 C3803 1.393 . S
C3800 H3789 0.950 . S
C3800 C3798 1.391 . S
C3800 C3801 1.400 . S
C3801 C3795 1.491 . S
C3801 C3800 1.400 . S
C3801 C3802 1.398 . S
C3802 H3790 0.950 . S
C3802 C3801 1.398 . S
C3802 C3803 1.391 . S
C3803 H3791 0.950 . S
C3803 C3799 1.393 . S
C3803 C3802 1.391 . S
H3804 C3812 0.950 . S
H3805 C3817 0.950 . S
H3806 C3814 0.950 . S
H3807 C3816 0.950 . S
H3808 C3818 0.950 . S
H3809 C3820 0.950 . S
H3810 C3822 0.950 . S
H3811 C3823 0.950 . S
C3812 H3804 0.950 . S
C3812 C3813 1.386 . S
C3812 C3814 1.391 . S
C3813 C3812 1.386 . S
C3813 C3817 1.393 . S
C3814 H3806 0.950 . S
C3814 C3812 1.391 . S
C3814 C3815 1.400 . S
C3815 C3814 1.400 . S
C3815 C3816 1.398 . S
C3815 C3821 1.491 . S
C3816 H3807 0.950 . S
C3816 C3815 1.398 . S
C3816 C3817 1.391 . S
C3817 H3805 0.950 . S
C3817 C3813 1.393 . S
C3817 C3816 1.391 . S
C3818 H3808 0.950 . S
C3818 C3819 1.386 . S
C3818 C3820 1.391 . S
C3819 C3818 1.386 . S
C3819 C3823 1.393 . S
C3820 H3809 0.950 . S
C3820 C3818 1.391 . S
C3820 C3821 1.400 . S
C3821 C3815 1.491 . S
C3821 C3820 1.400 . S
C3821 C3822 1.398 . S
C3822 H3810 0.950 . S
C3822 C3821 1.398 . S
C3822 C3823 1.391 . S
C3823 H3811 0.950 . S
C3823 C3819 1.393 . S
C3823 C3822 1.391 . S
H3824 C3832 0.950 . S
H3825 C3837 0.950 . S
H3826 C3834 0.950 1_556 S
H3827 C3836 0.950 . S
H3828 C3838 0.950 . S
H3829 C3840 0.950 1_554 S
H3830 C3842 0.950 . S
H3831 C3843 0.950 . S
C3832 H3824 0.950 . S
C3832 C3833 1.386 . S
C3832 C3834 1.391 . S
C3833 C3832 1.386 . S
C3833 C3837 1.393 . S
C3834 H3826 0.950 1_554 S
C3834 C3832 1.391 . S
C3834 C3835 1.400 . S
C3835 C3834 1.400 . S
C3835 C3836 1.398 . S
C3835 C3841 1.491 1_554 S
C3836 H3827 0.950 . S
C3836 C3835 1.398 . S
C3836 C3837 1.391 . S
C3837 H3825 0.950 . S
C3837 C3833 1.393 . S
C3837 C3836 1.391 . S
C3838 H3828 0.950 . S
C3838 C3839 1.386 . S
C3838 C3840 1.391 . S
C3839 C3838 1.386 . S
C3839 C3843 1.393 . S
C3840 H3829 0.950 1_556 S
C3840 C3838 1.391 . S
C3840 C3841 1.400 . S
C3841 C3835 1.491 1_556 S
C3841 C3840 1.400 . S
C3841 C3842 1.398 . S
C3842 H3830 0.950 . S
C3842 C3841 1.398 . S
C3842 C3843 1.391 . S
C3843 H3831 0.950 . S
C3843 C3839 1.393 . S
C3843 C3842 1.391 . S
H3844 C3852 0.950 . S
H3845 C3857 0.950 . S
H3846 C3854 0.982 . S
H3847 C3856 0.950 . S
H3848 C3858 0.950 . S
H3849 C3860 0.950 . S
H3850 C3862 0.922 1_655 S
H3851 C3863 0.938 1_655 S
C3852 H3844 0.950 . S
C3852 C3853 1.386 . S
C3852 C3854 1.391 . S
C3853 C3852 1.386 . S
C3853 C3857 1.393 . S
C3854 H3846 0.982 . S
C3854 C3852 1.391 . S
C3854 C3855 1.400 . S
C3855 C3854 1.400 . S
C3855 C3856 1.398 . S
C3855 C3861 1.491 . S
C3856 H3847 0.950 . S
C3856 C3855 1.398 . S
C3856 C3857 1.391 . S
C3857 H3845 0.950 . S
C3857 C3853 1.393 . S
C3857 C3856 1.391 . S
C3858 H3848 0.950 . S
C3858 C3859 1.386 . S
C3858 C3860 1.391 . S
C3859 C3858 1.386 . S
C3859 C3863 1.393 . S
C3860 H3849 0.950 . S
C3860 C3858 1.391 . S
C3860 C3861 1.400 . S
C3861 C3855 1.491 . S
C3861 C3860 1.400 . S
C3861 C3862 1.398 . S
C3862 H3850 0.922 1_455 S
C3862 C3861 1.398 . S
C3862 C3863 1.391 . S
C3863 H3851 0.938 1_455 S
C3863 C3859 1.393 . S
C3863 C3862 1.391 . S
H3864 C3872 0.950 . S
H3865 C3877 0.950 . S
H3866 C3874 0.950 . S
H3867 C3876 0.950 . S
H3868 C3878 0.950 . S
H3869 C3880 0.950 . S
H3870 C3882 0.950 . S
H3871 C3883 0.950 . S
C3872 H3864 0.950 . S
C3872 C3873 1.386 . S
C3872 C3874 1.391 . S
C3873 C3872 1.386 . S
C3873 C3877 1.393 . S
C3874 H3866 0.950 . S
C3874 C3872 1.391 . S
C3874 C3875 1.400 . S
C3875 C3874 1.400 . S
C3875 C3876 1.398 . S
C3875 C3881 1.491 . S
C3876 H3867 0.950 . S
C3876 C3875 1.398 . S
C3876 C3877 1.391 . S
C3877 H3865 0.950 . S
C3877 C3873 1.393 . S
C3877 C3876 1.391 . S
C3878 H3868 0.950 . S
C3878 C3879 1.386 . S
C3878 C3880 1.391 . S
C3879 C3878 1.386 . S
C3879 C3883 1.393 . S
C3880 H3869 0.950 . S
C3880 C3878 1.391 . S
C3880 C3881 1.400 . S
C3881 C3875 1.491 . S
C3881 C3880 1.400 . S
C3881 C3882 1.398 . S
C3882 H3870 0.950 . S
C3882 C3881 1.398 . S
C3882 C3883 1.391 . S
C3883 H3871 0.950 . S
C3883 C3879 1.393 . S
C3883 C3882 1.391 . S
H3884 C3892 0.950 . S
H3885 C3897 0.950 . S
H3886 C3894 0.950 . S
H3887 C3896 0.950 . S
H3888 C3898 0.950 . S
H3889 C3900 0.950 . S
H3890 C3902 0.950 . S
H3891 C3903 0.950 . S
C3892 H3884 0.950 . S
C3892 C3893 1.386 . S
C3892 C3894 1.391 . S
C3893 C3892 1.386 . S
C3893 C3897 1.393 . S
C3894 H3886 0.950 . S
C3894 C3892 1.391 . S
C3894 C3895 1.400 . S
C3895 C3894 1.400 . S
C3895 C3896 1.398 . S
C3895 C3901 1.491 . S
C3896 H3887 0.950 . S
C3896 C3895 1.398 . S
C3896 C3897 1.391 . S
C3897 H3885 0.950 . S
C3897 C3893 1.393 . S
C3897 C3896 1.391 . S
C3898 H3888 0.950 . S
C3898 C3899 1.386 . S
C3898 C3900 1.391 . S
C3899 C3898 1.386 . S
C3899 C3903 1.393 . S
C3900 H3889 0.950 . S
C3900 C3898 1.391 . S
C3900 C3901 1.400 . S
C3901 C3895 1.491 . S
C3901 C3900 1.400 . S
C3901 C3902 1.398 . S
C3902 H3890 0.950 . S
C3902 C3901 1.398 . S
C3902 C3903 1.391 . S
C3903 H3891 0.950 . S
C3903 C3899 1.393 . S
C3903 C3902 1.391 . S
H3904 C3912 0.950 . S
H3905 C3917 0.950 . S
H3906 C3914 0.950 . S
H3907 C3916 0.950 . S
H3908 C3918 0.950 . S
H3909 C3920 0.950 . S
H3910 C3922 0.950 . S
H3911 C3923 0.950 . S
C3912 H3904 0.950 . S
C3912 C3913 1.386 . S
C3912 C3914 1.391 . S
C3913 C3912 1.386 . S
C3913 C3917 1.393 . S
C3914 H3906 0.950 . S
C3914 C3912 1.391 . S
C3914 C3915 1.400 . S
C3915 C3914 1.400 . S
C3915 C3916 1.398 . S
C3915 C3921 1.491 . S
C3916 H3907 0.950 . S
C3916 C3915 1.398 . S
C3916 C3917 1.391 . S
C3917 H3905 0.950 . S
C3917 C3913 1.393 . S
C3917 C3916 1.391 . S
C3918 H3908 0.950 . S
C3918 C3919 1.386 . S
C3918 C3920 1.391 . S
C3919 C3918 1.386 . S
C3919 C3923 1.393 . S
C3920 H3909 0.950 . S
C3920 C3918 1.391 . S
C3920 C3921 1.400 . S
C3921 C3915 1.491 . S
C3921 C3920 1.400 . S
C3921 C3922 1.398 . S
C3922 H3910 0.950 . S
C3922 C3921 1.398 . S
C3922 C3923 1.391 . S
C3923 H3911 0.950 . S
C3923 C3919 1.393 . S
C3923 C3922 1.391 . S
H3924 C3932 0.950 . S
H3925 C3937 0.950 . S
H3926 C3934 0.950 1_554 S
H3927 C3936 0.950 . S
H3928 C3938 0.950 . S
H3929 C3940 0.950 1_556 S
H3930 C3942 0.950 . S
H3931 C3943 0.950 . S
C3932 H3924 0.950 . S
C3932 C3933 1.386 . S
C3932 C3934 1.391 . S
C3933 C3932 1.386 . S
C3933 C3937 1.393 . S
C3934 H3926 0.950 1_556 S
C3934 C3932 1.391 . S
C3934 C3935 1.400 . S
C3935 C3934 1.400 . S
C3935 C3936 1.398 . S
C3935 C3941 1.491 1_556 S
C3936 H3927 0.950 . S
C3936 C3935 1.398 . S
C3936 C3937 1.391 . S
C3937 H3925 0.950 . S
C3937 C3933 1.393 . S
C3937 C3936 1.391 . S
C3938 H3928 0.950 . S
C3938 C3939 1.386 . S
C3938 C3940 1.391 . S
C3939 C3938 1.386 . S
C3939 C3943 1.393 . S
C3940 H3929 0.950 1_554 S
C3940 C3938 1.391 . S
C3940 C3941 1.400 . S
C3941 C3935 1.491 1_554 S
C3941 C3940 1.400 . S
C3941 C3942 1.398 . S
C3942 H3930 0.950 . S
C3942 C3941 1.398 . S
C3942 C3943 1.391 . S
C3943 H3931 0.950 . S
C3943 C3939 1.393 . S
C3943 C3942 1.391 . S
H3944 C3952 0.950 . S
H3945 C3957 0.950 . S
H3946 C3954 0.950 . S
H3947 C3956 0.950 . S
H3948 C3958 0.950 . S
H3949 C3960 0.950 . S
H3950 C3962 0.950 . S
H3951 C3963 0.950 . S
C3952 H3944 0.950 . S
C3952 C3953 1.386 . S
C3952 C3954 1.391 . S
C3953 C3952 1.386 . S
C3953 C3957 1.393 . S
C3954 H3946 0.950 . S
C3954 C3952 1.391 . S
C3954 C3955 1.400 . S
C3955 C3954 1.400 . S
C3955 C3956 1.398 . S
C3955 C3961 1.491 . S
C3956 H3947 0.950 . S
C3956 C3955 1.398 . S
C3956 C3957 1.391 . S
C3957 H3945 0.950 . S
C3957 C3953 1.393 . S
C3957 C3956 1.391 . S
C3958 H3948 0.950 . S
C3958 C3959 1.386 . S
C3958 C3960 1.391 . S
C3959 C3958 1.386 . S
C3959 C3963 1.393 . S
C3960 H3949 0.950 . S
C3960 C3958 1.391 . S
C3960 C3961 1.400 . S
C3961 C3955 1.491 . S
C3961 C3960 1.400 . S
C3961 C3962 1.398 . S
C3962 H3950 0.950 . S
C3962 C3961 1.398 . S
C3962 C3963 1.391 . S
C3963 H3951 0.950 . S
C3963 C3959 1.393 . S
C3963 C3962 1.391 . S
H3964 C3972 0.950 . S
H3965 C3977 0.950 . S
H3966 C3974 0.950 . S
H3967 C3976 0.950 . S
H3968 C3978 0.950 . S
H3969 C3980 0.950 . S
H3970 C3982 0.950 . S
H3971 C3983 0.950 . S
C3972 H3964 0.950 . S
C3972 C3973 1.386 . S
C3972 C3974 1.391 . S
C3973 C3972 1.386 . S
C3973 C3977 1.393 . S
C3974 H3966 0.950 . S
C3974 C3972 1.391 . S
C3974 C3975 1.400 . S
C3975 C3974 1.400 . S
C3975 C3976 1.398 . S
C3975 C3981 1.491 . S
C3976 H3967 0.950 . S
C3976 C3975 1.398 . S
C3976 C3977 1.391 . S
C3977 H3965 0.950 . S
C3977 C3973 1.393 . S
C3977 C3976 1.391 . S
C3978 H3968 0.950 . S
C3978 C3979 1.386 . S
C3978 C3980 1.391 . S
C3979 C3978 1.386 . S
C3979 C3983 1.393 . S
C3980 H3969 0.950 . S
C3980 C3978 1.391 . S
C3980 C3981 1.400 . S
C3981 C3975 1.491 . S
C3981 C3980 1.400 . S
C3981 C3982 1.398 . S
C3982 H3970 0.950 . S
C3982 C3981 1.398 . S
C3982 C3983 1.391 . S
C3983 H3971 0.950 . S
C3983 C3979 1.393 . S
C3983 C3982 1.391 . S
C1593 N5 1.698 . S
C1599 C358 1.745 . S
C1613 C391 1.807 . S
C1619 N38 1.756 . S
C1633 C292 1.788 . S
C1639 N71 1.738 . S
C1653 C325 1.808 . S
C1659 N104 1.757 . S
C1673 C490 1.748 . S
C1679 N137 1.692 . S
C1693 N170 1.722 . S
C1699 C523 1.776 . S
C1713 C424 1.773 . S
C1719 N203 1.722 . S
C1733 C457 1.837 . S
C1739 N236 1.787 . S
C1753 N269 1.696 . S
C1759 C589 1.744 . S
C1773 N302 1.760 . S
C1779 C622 1.811 . S
C1793 C655 1.717 . S
C1799 N335 1.660 . S
C1813 N368 1.727 . S
C1819 C1480 1.784 . S
C1833 C1348 1.715 . S
C1839 N401 1.662 . S
C1853 N434 1.725 . S
C1859 C787 1.774 . S
C1873 N467 1.701 . S
C1879 C1513 1.751 . S
C1893 C754 1.823 . S
C1899 N500 1.766 . S
C1913 N533 1.681 . S
C1919 C1018 1.734 . S
C1933 C94 1.735 . S
C1939 N566 1.686 . S
C1953 C127 1.809 . S
C1959 N599 1.757 . S
C1973 C28 1.797 . S
C1979 N632 1.751 . S
C1993 N665 1.787 . S
C1999 C853 1.837 . S
C2013 N698 1.696 . S
C2019 C952 1.747 . S
C2033 C193 1.759 . S
C2039 N731 1.702 . S
C2053 C259 1.781 . S
C2059 N764 1.728 . S
C2073 N797 1.715 . S
C2079 C1150 1.764 . S
C2093 N830 1.722 . S
C2099 C1183 1.772 . S
C2113 C1084 1.709 . S
C2119 N863 1.654 . S
C2133 C1117 1.759 . S
C2139 N896 1.703 . S
C2153 C1282 1.751 . S
C2159 N929 1.702 . S
C2173 C1315 1.791 . S
C2179 N962 1.737 . S
C2193 C1216 1.725 . S
C2199 N995 1.671 . S
C2213 N1028 1.686 . S
C2219 C1249 1.739 . S
C2233 N1061 1.724 . S
C2239 C1381 1.770 . S
C2253 C1414 1.759 . S
C2259 N1094 1.704 . S
C2273 N1127 1.716 . S
C2279 C1447 1.773 . S
C2293 N1160 1.720 . S
C2299 C688 1.775 . S
C2313 N1193 1.753 . S
C2319 C556 1.803 . S
C2333 N1226 1.762 . S
C2339 C1579 1.812 . S
C2353 C721 1.746 . S
C2359 N1259 1.694 . S
C2373 C1546 1.736 . S
C2379 N1292 1.682 . S
C2393 N1325 1.702 . S
C2399 C226 1.755 . S
C2413 C886 1.773 . S
C2419 N1358 1.722 . S
C2433 N1391 1.729 . S
C2439 C919 1.776 . S
C2453 N1424 1.651 . S
C2459 C820 1.700 . S
C2473 C61 1.744 . S
C2479 N1457 1.694 . S
C2493 N1490 1.709 . S
C2499 C160 1.757 . S
C2513 N1523 1.757 . S
C2519 C985 1.808 . S
C2533 C1051 1.792 . S
C2539 N1556 1.740 . S
C2553 C314 1.318 . S
C2559 C17 1.309 . S
C2573 C50 1.291 . S
C2579 C347 1.289 . S
C2593 C380 1.351 . S
C2599 C83 1.353 . S
C2613 C281 1.316 . S
C2619 C116 1.311 . S
C2633 C149 1.305 . S
C2639 C512 1.292 . S
C2653 C182 1.303 . S
C2659 C413 1.303 . S
C2673 C446 1.365 . S
C2679 C215 1.365 . S
C2693 C248 1.303 . S
C2699 C479 1.293 . S
C2713 C611 1.313 . S
C2719 C545 1.311 . S
C2733 C578 1.295 . S
C2739 C1535 1.285 . S
C2753 C1568 1.355 . S
C2759 C644 1.350 . S
C2773 C677 1.299 . S
C2779 C1502 1.297 . S
C2793 C1469 1.355 . S
C2799 C710 1.358 . S
C2813 C1370 1.365 . S
C2819 C743 1.365 . S
C2833 C776 1.310 . S
C2839 C1436 1.299 . S
C2853 C809 1.342 . S
C2859 C1106 1.346 . S
C2873 C1139 1.367 . S
C2879 C842 1.367 . S
C2893 C1172 1.310 . S
C2899 C875 1.299 . S
C2913 C908 1.341 . S
C2919 C1073 1.345 . S
C2933 C1304 1.355 . S
C2939 C941 1.360 . S
C2953 C1205 1.356 . S
C2959 C974 1.350 . S
C2973 C1007 1.296 . S
C2979 C1238 1.283 . S
C2993 C1271 1.357 . S
C2999 C1040 1.355 . S
C3013 C1403 1.346 . S
C3019 C1337 1.340 . S
C3033 C668 0.921 . S
C3039 C8 0.949 . S
C3053 C41 0.881 . S
C3059 C1361 0.898 . S
C3073 C74 0.867 . S
C3079 C1394 0.865 . S
C3093 C1427 0.920 . S
C3099 C107 0.902 . S
C3113 C1559 0.922 . S
C3119 C140 0.949 . S
C3133 C701 0.841 . S
C3139 C173 0.870 . S
C3153 C206 0.888 . S
C3159 C1526 0.894 . S
C3173 C239 0.921 . S
C3179 C536 0.949 . S
C3193 C503 0.941 . S
C3199 C272 0.921 . S
C3213 C305 0.898 . S
C3219 C404 0.890 . S
C3233 C338 0.911 . S
C3239 C437 0.918 . S
C3253 C470 0.911 . S
C3259 C371 0.920 . S
C3273 C833 0.890 . S
C3279 C569 0.923 . S
C3293 C602 0.919 . S
C3299 C866 0.908 . S
C3313 C635 0.892 . S
C3319 C899 0.863 . S
C3333 C734 0.908 . S
C3339 C998 0.890 . S
C3353 C932 0.851 . S
C3359 C767 0.873 . S
C3373 C800 0.868 . S
C3379 C1460 0.864 . S
C3393 C1493 0.937 . S
C3399 C965 0.939 . S
C3413 C1328 0.834 . S
C3419 C1031 0.853 . S
C3433 C1064 0.858 . S
C3439 C1295 0.871 . S
C3453 C1196 0.890 . S
C3459 C1097 0.892 . S
C3473 C1130 0.873 . S
C3479 C1229 0.898 . S
C3493 C1163 0.834 . S
C3499 C1262 0.857 . S
C3513 N146 2.125 . S
C3519 N14 2.132 . S
C3533 N179 2.141 . S
C3539 N47 2.154 . S
C3553 N212 2.115 . S
C3559 N80 2.129 . S
C3573 N245 2.124 . S
C3579 N113 2.137 . S
C3593 N476 2.116 . S
C3599 N278 2.107 . S
C3613 N311 2.149 . S
C3619 N509 2.144 . S
C3633 N344 2.139 . S
C3639 N410 2.131 . S
C3653 N443 2.110 . S
C3659 N377 2.112 . S
C3673 N542 2.108 . S
C3679 N1499 2.123 . S
C3693 N575 2.138 . S
C3699 N1433 2.123 . S
C3713 N674 2.135 . S
C3719 N608 2.149 . S
C3733 N1367 2.139 . S
C3739 N641 2.137 . S
C3753 N1334 2.125 . S
C3759 N707 2.140 . S
C3773 N740 2.129 . S
C3779 N1565 2.112 . S
C3793 N1532 2.162 . S
C3799 N773 2.149 . S
C3813 N938 2.128 . S
C3819 N806 2.144 . S
C3833 N839 2.111 . S
C3839 N971 2.126 . S
C3853 N872 2.126 . S
C3859 N1004 2.114 . S
C3873 N905 2.147 . S
C3879 N1037 2.142 . S
C3893 N1070 2.122 . S
C3899 N1268 2.133 . S
C3913 N1103 2.135 . S
C3919 N1301 2.148 . S
C3933 N1202 2.141 . S
C3939 N1136 2.131 . S
C3953 N1169 2.165 . S
C3959 N1235 2.155 . S
C3973 N1466 2.128 . S
C3979 N1400 2.124 . S
