# Generated by pormake.
# Topology smu, (6)-cn, num edge types: 1
# Building blocks:
#     Node 0, Type 0, BuildingBlock: NUHQIS_clean_sbu_0, # of connection points: 6
#     Node 1, Type 0, BuildingBlock: NUHQIS_clean_sbu_0, # of connection points: 6
#     Node 2, Type 0, BuildingBlock: NUHQIS_clean_sbu_0, # of connection points: 6
#     Node 3, Type 0, BuildingBlock: NUHQIS_clean_sbu_0, # of connection points: 6
#     Node 4, Type 0, BuildingBlock: NUHQIS_clean_sbu_0, # of connection points: 6
#     Node 5, Type 0, BuildingBlock: NUHQIS_clean_sbu_0, # of connection points: 6
#     Edge 6, Type (0, 0), BuildingBlock: ZUJKAS_clean_linker_0, # of connection points: 2
#     Edge 7, Type (0, 0), BuildingBlock: ZUJKAS_clean_linker_0, # of connection points: 2
#     Edge 8, Type (0, 0), BuildingBlock: ZUJKAS_clean_linker_0, # of connection points: 2
#     Edge 9, Type (0, 0), BuildingBlock: ZUJKAS_clean_linker_0, # of connection points: 2
#     Edge 10, Type (0, 0), BuildingBlock: ZUJKAS_clean_linker_0, # of connection points: 2
#     Edge 11, Type (0, 0), BuildingBlock: ZUJKAS_clean_linker_0, # of connection points: 2
#     Edge 12, Type (0, 0), BuildingBlock: ZUJKAS_clean_linker_0, # of connection points: 2
#     Edge 13, Type (0, 0), BuildingBlock: ZUJKAS_clean_linker_0, # of connection points: 2
#     Edge 14, Type (0, 0), BuildingBlock: ZUJKAS_clean_linker_0, # of connection points: 2
#     Edge 15, Type (0, 0), BuildingBlock: ZUJKAS_clean_linker_0, # of connection points: 2
#     Edge 16, Type (0, 0), BuildingBlock: ZUJKAS_clean_linker_0, # of connection points: 2
#     Edge 17, Type (0, 0), BuildingBlock: ZUJKAS_clean_linker_0, # of connection points: 2
#     Edge 18, Type (0, 0), BuildingBlock: ZUJKAS_clean_linker_0, # of connection points: 2
#     Edge 19, Type (0, 0), BuildingBlock: ZUJKAS_clean_linker_0, # of connection points: 2
#     Edge 20, Type (0, 0), BuildingBlock: ZUJKAS_clean_linker_0, # of connection points: 2
#     Edge 21, Type (0, 0), BuildingBlock: ZUJKAS_clean_linker_0, # of connection points: 2
#     Edge 22, Type (0, 0), BuildingBlock: ZUJKAS_clean_linker_0, # of connection points: 2
#     Edge 23, Type (0, 0), BuildingBlock: ZUJKAS_clean_linker_0, # of connection points: 2
# Relax obj value: 0.213
# Max RMSD: 0.300
# Mean RMSD: 0.300
data_MOF--net-smu--node1-NUHQIS_clean_sbu_0--edge1-ZUJKAS_clean_linker_0
_symmetry_space_group_name_H-M    P1
_symmetry_Int_Tables_number       1
_symmetry_cell_setting            triclinic
loop_
_symmetry_equiv_pos_as_xyz
'x, y, z'
_cell_length_a     47.893241
_cell_length_b     47.903476
_cell_length_c     35.961054
_cell_angle_alpha  89.340584
_cell_angle_beta   90.21178
_cell_angle_gamma 119.9373
loop_
_atom_site_label
_atom_site_type_symbol
_atom_site_fract_x
_atom_site_fract_y
_atom_site_fract_z
_atom_type_partial_charge
Tb0 Tb 0.33447 0.12135 0.26014 0.0
Eu1 Eu 0.38142 0.0897 0.27071 0.0
C2 C 0.34299 0.09738 0.33858 0.0
C3 C 0.40858 0.16459 0.26535 0.0
C4 C 0.27756 0.15613 0.26334 0.0
C5 C 0.26049 0.19206 0.28898 0.0
C6 C 0.28466 0.18465 0.28169 0.0
C7 C 0.24546 0.13455 0.25351 0.0
C8 C 0.22119 0.14196 0.26084 0.0
C9 C 0.22856 0.17117 0.27791 0.0
C10 C 0.30452 0.15194 0.2504 0.0
O11 O 0.35098 0.11711 0.20463 0.0
O12 O 0.35769 0.07374 0.2156 0.0
O13 O 0.33093 0.0463 0.27446 0.0
O14 O 0.29974 0.07043 0.26357 0.0
C15 C 0.35201 0.09171 0.19272 0.0
O16 O 0.4146 0.07597 0.24713 0.0
O17 O 0.40674 0.07235 0.30659 0.0
O18 O 0.37144 0.10316 0.32705 0.0
O19 O 0.32277 0.09985 0.31573 0.0
O20 O 0.38111 0.15774 0.28039 0.0
O21 O 0.41245 0.14149 0.25194 0.0
C22 C 0.30285 0.04495 0.26993 0.0
O23 O 0.32884 0.16087 0.27284 0.0
O24 O 0.29818 0.12599 0.23231 0.0
C25 C 0.45907 0.08761 0.28492 0.0
C26 C 0.52695 0.119 0.29038 0.0
C27 C 0.50816 0.08521 0.29352 0.0
C28 C 0.47456 0.06969 0.29074 0.0
C29 C 0.47753 0.12133 0.28258 0.0
C30 C 0.51114 0.13689 0.28526 0.0
C31 C 0.42395 0.07099 0.27937 0.0
H32 H 0.26719 0.21495 0.30165 0.0
H33 H 0.30926 0.20202 0.28902 0.0
H34 H 0.23922 0.11247 0.23909 0.0
H35 H 0.19676 0.12512 0.2524 0.0
H36 H 0.51943 0.07069 0.29809 0.0
H37 H 0.46068 0.04364 0.29264 0.0
H38 H 0.46598 0.13558 0.27795 0.0
H39 H 0.52476 0.16287 0.28229 0.0
Tb40 Tb 0.81601 0.70309 0.27353 0.0
Eu41 Eu 0.73762 0.65419 0.26611 0.0
C42 C 0.77058 0.68688 0.3431 0.0
C43 C 0.78648 0.62923 0.27509 0.0
C44 C 0.90833 0.75839 0.26751 0.0
C45 C 0.95517 0.81192 0.27342 0.0
C46 C 0.92248 0.79035 0.27974 0.0
C47 C 0.92723 0.74898 0.24715 0.0
C48 C 0.95994 0.77058 0.24081 0.0
C49 C 0.97452 0.80196 0.25499 0.0
C50 C 0.87643 0.73372 0.28194 0.0
O51 O 0.80827 0.69819 0.21307 0.0
O52 O 0.75298 0.67597 0.20944 0.0
O53 O 0.745 0.70494 0.26995 0.0
O54 O 0.79903 0.7347 0.25351 0.0
C55 C 0.78165 0.68999 0.19402 0.0
O56 O 0.6938 0.62566 0.23397 0.0
O57 O 0.69143 0.62324 0.29393 0.0
O58 O 0.74992 0.65982 0.32715 0.0
O59 O 0.79585 0.70905 0.325 0.0
O60 O 0.80232 0.65528 0.2948 0.0
O61 O 0.76226 0.62558 0.25479 0.0
C62 C 0.77068 0.73216 0.25916 0.0
O63 O 0.85713 0.74302 0.2953 0.0
O64 O 0.86084 0.70647 0.26435 0.0
C65 C 0.65798 0.57498 0.26182 0.0
C66 C 0.62242 0.50676 0.2607 0.0
C67 C 0.64905 0.52409 0.23689 0.0
C68 C 0.66671 0.55778 0.23756 0.0
C69 C 0.63159 0.55784 0.28572 0.0
C70 C 0.61407 0.52413 0.28528 0.0
C71 C 0.67638 0.61059 0.26303 0.0
H72 H 0.96557 0.83612 0.28415 0.0
H73 H 0.90873 0.7983 0.29587 0.0
H74 H 0.91723 0.72438 0.23788 0.0
H75 H 0.97419 0.76206 0.22674 0.0
H76 H 0.65601 0.51169 0.21726 0.0
H77 H 0.68713 0.57034 0.21898 0.0
H78 H 0.6246 0.57055 0.30491 0.0
H79 H 0.59415 0.51171 0.30453 0.0
Tb80 Tb 0.91401 0.21799 0.29133 0.0
Eu81 Eu 0.94367 0.29676 0.29455 0.0
C82 C 0.94258 0.2556 0.36573 0.0
C83 C 0.86992 0.24776 0.29746 0.0
C84 C 0.87921 0.12671 0.27538 0.0
C85 C 0.88384 0.07846 0.2807 0.0
C86 C 0.89422 0.11034 0.29039 0.0
C87 C 0.85457 0.11095 0.24904 0.0
C88 C 0.84421 0.07903 0.23929 0.0
C89 C 0.85806 0.06206 0.25586 0.0
C90 C 0.88491 0.15709 0.29254 0.0
O91 O 0.91857 0.23181 0.23219 0.0
O92 O 0.94761 0.28755 0.23459 0.0
O93 O 0.98615 0.28796 0.29872 0.0
O94 O 0.96284 0.23785 0.27125 0.0
C95 C 0.93505 0.2605 0.21603 0.0
O96 O 0.96965 0.34629 0.27299 0.0
O97 O 0.94777 0.33655 0.32754 0.0
O98 O 0.93625 0.27768 0.35336 0.0
O99 O 0.9396 0.23235 0.34416 0.0
O100 O 0.87925 0.22963 0.31466 0.0
O101 O 0.89117 0.2737 0.27987 0.0
C102 C 0.98827 0.26433 0.2828 0.0
O103 O 0.91248 0.17527 0.30879 0.0
O104 O 0.87384 0.17399 0.27598 0.0
C105 C 0.94853 0.37918 0.29374 0.0
C106 C 0.91966 0.41791 0.28386 0.0
C107 C 0.91305 0.39275 0.25909 0.0
C108 C 0.92724 0.37347 0.26408 0.0
C109 C 0.95541 0.40435 0.31821 0.0
C110 C 0.94112 0.42344 0.31343 0.0
C111 C 0.96212 0.358 0.30135 0.0
H112 H 0.89485 0.06613 0.29444 0.0
H113 H 0.91282 0.12151 0.31129 0.0
H114 H 0.84219 0.1227 0.23727 0.0
H115 H 0.82463 0.06732 0.21963 0.0
H116 H 0.89697 0.38794 0.23577 0.0
H117 H 0.92129 0.35393 0.24504 0.0
H118 H 0.97143 0.40887 0.34157 0.0
H119 H 0.94636 0.44207 0.33354 0.0
Tb120 Tb 0.12904 0.32655 0.7926 0.0
Eu121 Eu 0.09856 0.37497 0.79327 0.0
C122 C 0.10389 0.34249 0.71706 0.0
C123 C 0.17294 0.40059 0.7933 0.0
C124 C 0.16131 0.26758 0.7822 0.0
C125 C 0.17961 0.24349 0.73594 0.0
C126 C 0.17168 0.26692 0.74586 0.0
C127 C 0.15806 0.2439 0.8079 0.0
C128 C 0.16606 0.22068 0.79812 0.0
C129 C 0.17751 0.22046 0.76223 0.0
C130 C 0.15818 0.2948 0.79599 0.0
O131 O 0.10444 0.31794 0.84593 0.0
O132 O 0.10897 0.3673 0.85248 0.0
O133 O 0.05644 0.32384 0.80092 0.0
O134 O 0.07949 0.29557 0.77625 0.0
C135 C 0.10222 0.33922 0.86644 0.0
O136 O 0.08812 0.40714 0.82551 0.0
O137 O 0.0771 0.40114 0.76692 0.0
O138 O 0.09003 0.35581 0.7355 0.0
O139 O 0.12294 0.33332 0.73315 0.0
O140 O 0.16464 0.37402 0.81204 0.0
O141 O 0.15078 0.40449 0.77674 0.0
C142 C 0.05423 0.29712 0.78774 0.0
O143 O 0.16718 0.32011 0.77465 0.0
O144 O 0.13275 0.28806 0.81565 0.0
C145 C 0.09471 0.45276 0.79238 0.0
C146 C 0.12492 0.52073 0.78703 0.0
C147 C 0.0984 0.50313 0.81094 0.0
C148 C 0.08346 0.46954 0.81349 0.0
C149 C 0.12123 0.47008 0.76859 0.0
C150 C 0.13609 0.5037 0.76582 0.0
C151 C 0.07933 0.41745 0.79662 0.0
H152 H 0.18794 0.24378 0.70791 0.0
H153 H 0.17464 0.28503 0.72549 0.0
H154 H 0.15067 0.24422 0.83628 0.0
H155 H 0.16466 0.20384 0.81938 0.0
H156 H 0.08947 0.51532 0.82827 0.0
H157 H 0.06327 0.45665 0.83232 0.0
H158 H 0.13054 0.45765 0.75225 0.0
H159 H 0.15616 0.51628 0.7468 0.0
Tb160 Tb 0.22558 0.90982 0.7646 0.0
Eu161 Eu 0.3042 0.93761 0.76431 0.0
C162 C 0.26528 0.93121 0.68849 0.0
C163 C 0.25357 0.86394 0.77273 0.0
C164 C 0.13397 0.87576 0.75118 0.0
C165 C 0.0852 0.83875 0.71775 0.0
C166 C 0.11748 0.84983 0.72675 0.0
C167 C 0.11796 0.89143 0.76473 0.0
C168 C 0.08571 0.88038 0.7557 0.0
C169 C 0.06861 0.85322 0.73311 0.0
C170 C 0.1648 0.88221 0.76826 0.0
O171 O 0.24374 0.9353 0.81689 0.0
O172 O 0.28741 0.92849 0.82392 0.0
O173 O 0.29731 0.98134 0.76644 0.0
O174 O 0.24495 0.95872 0.74433 0.0
C175 C 0.26702 0.93651 0.83751 0.0
O176 O 0.35014 0.95759 0.79404 0.0
O177 O 0.34805 0.947 0.73554 0.0
O178 O 0.2926 0.94631 0.70664 0.0
O179 O 0.23757 0.91184 0.70526 0.0
O180 O 0.23594 0.87417 0.78884 0.0
O181 O 0.27948 0.88423 0.75441 0.0
C182 C 0.27293 0.9838 0.75279 0.0
O183 O 0.18058 0.86948 0.75329 0.0
O184 O 0.18404 0.91072 0.78165 0.0
C185 C 0.38483 0.93954 0.77179 0.0
C186 C 0.42279 0.90967 0.77865 0.0
C187 C 0.43714 0.94348 0.77886 0.0
C188 C 0.41833 0.95823 0.77539 0.0
C189 C 0.37021 0.9058 0.77249 0.0
C190 C 0.389 0.891 0.77588 0.0
C191 C 0.36563 0.95544 0.76549 0.0
H192 H 0.07288 0.81807 0.69983 0.0
H193 H 0.12894 0.83695 0.71611 0.0
H194 H 0.12976 0.91108 0.78414 0.0
H195 H 0.07365 0.89191 0.76836 0.0
H196 H 0.46299 0.95862 0.78162 0.0
H197 H 0.43003 0.98429 0.77501 0.0
H198 H 0.34432 0.89095 0.76966 0.0
H199 H 0.37712 0.86496 0.77527 0.0
Tb200 Tb 0.71129 0.80999 0.76974 0.0
Eu201 Eu 0.66231 0.73128 0.77242 0.0
C202 C 0.69063 0.76875 0.69622 0.0
C203 C 0.63738 0.78073 0.77075 0.0
C204 C 0.76682 0.90132 0.78341 0.0
C205 C 0.82289 0.94293 0.79107 0.0
C206 C 0.79982 0.91134 0.78176 0.0
C207 C 0.75738 0.92297 0.7962 0.0
C208 C 0.78037 0.95447 0.80544 0.0
C209 C 0.81344 0.96516 0.80196 0.0
C210 C 0.74219 0.87084 0.76656 0.0
O211 O 0.70656 0.79734 0.82936 0.0
O212 O 0.68913 0.74306 0.82604 0.0
O213 O 0.7126 0.7393 0.76075 0.0
O214 O 0.74383 0.7919 0.78082 0.0
C215 C 0.70142 0.76996 0.84471 0.0
O216 O 0.62991 0.68798 0.80428 0.0
O217 O 0.63563 0.68461 0.74514 0.0
O218 O 0.66406 0.74736 0.71302 0.0
O219 O 0.71379 0.79284 0.71456 0.0
O220 O 0.66348 0.79835 0.75126 0.0
O221 O 0.6341 0.75541 0.78874 0.0
C222 C 0.7407 0.76429 0.77003 0.0
O223 O 0.75138 0.8526 0.75016 0.0
O224 O 0.7149 0.85405 0.78418 0.0
C225 C 0.58408 0.64969 0.77192 0.0
C226 C 0.51601 0.61183 0.76935 0.0
C227 C 0.53389 0.60481 0.79519 0.0
C228 C 0.5675 0.62347 0.79635 0.0
C229 C 0.56647 0.65698 0.74613 0.0
C230 C 0.5328 0.63816 0.74476 0.0
C231 C 0.61945 0.66976 0.77508 0.0
H232 H 0.84816 0.95021 0.78867 0.0
H233 H 0.8079 0.89528 0.77184 0.0
H234 H 0.73212 0.91604 0.7972 0.0
H235 H 0.77215 0.97094 0.81327 0.0
H236 H 0.52192 0.58521 0.81508 0.0
H237 H 0.58057 0.61764 0.81676 0.0
H238 H 0.5787 0.67729 0.72717 0.0
H239 H 0.51997 0.64414 0.72422 0.0
H240 H 0.23743 0.96654 0.86981 0.0
H241 H 0.25171 0.99633 0.92809 0.0
H242 H 0.32399 0.96949 0.94872 0.0
H243 H 0.3104 0.94025 0.89009 0.0
H244 H 0.25163 0.97935 1.00042 0.0
H245 H 0.3765 0.06638 0.95666 0.0
H246 H 0.34645 0.03919 0.92451 0.0
H247 H 0.36762 0.02538 0.95408 0.0
C248 C 0.25619 0.96669 0.88686 0.0
C249 C 0.27289 0.95111 0.87505 0.0
C250 C 0.26439 0.98386 0.92018 0.0
C251 C 0.28948 0.98588 0.94241 0.0
C252 C 0.30519 0.96911 0.93155 0.0
H253 H 0.37069 0.05449 0.156 0.0
H254 H 0.35524 0.03217 0.09381 0.0
C255 C 0.29715 0.95211 0.89813 0.0
C256 C 0.2993 1.00554 0.97685 0.0
H257 H 0.36438 0.066 1.02116 0.0
C258 C 0.27619 0.99856 1.00476 0.0
C259 C 0.33131 0.03087 0.98243 0.0
C260 C 0.35682 0.04117 0.95268 0.0
C261 C 0.28453 0.01522 0.03863 0.0
C262 C 0.31676 0.03968 0.04466 0.0
C263 C 0.33968 0.04724 1.01645 0.0
C264 C 0.3277 0.05563 0.08124 0.0
C265 C 0.25916 1.00578 0.06838 0.0
C266 C 0.31805 0.07702 0.09452 0.0
C267 C 0.32716 0.09021 0.1302 0.0
C268 C 0.34578 0.08188 0.15319 0.0
C269 C 0.35619 0.06128 0.13915 0.0
C270 C 0.34741 0.04848 0.10355 0.0
H271 H 0.23625 0.98376 0.06109 0.0
H272 H 0.26798 1.00151 0.09527 0.0
H273 H 0.25409 0.02576 0.07241 0.0
H274 H 0.30306 0.08308 0.07754 0.0
H275 H 0.31863 0.10585 0.14029 0.0
H276 H 0.6519 0.71763 0.65168 0.0
H277 H 0.66566 0.70437 0.5915 0.0
H278 H 0.75667 0.79314 0.59223 0.0
H279 H 0.74342 0.80643 0.65263 0.0
H280 H 0.68166 0.73538 0.52261 0.0
H281 H 0.78418 0.7257 0.5803 0.0
H282 H 0.75475 0.72785 0.60949 0.0
H283 H 0.78672 0.76381 0.5884 0.0
C284 C 0.6747 0.73458 0.6389 0.0
C285 C 0.69664 0.76302 0.65726 0.0
C286 C 0.68256 0.72689 0.60448 0.0
C287 C 0.71252 0.74737 0.58775 0.0
C288 C 0.73375 0.77655 0.60504 0.0
H289 H 0.80715 0.74048 0.38511 0.0
H290 H 0.79282 0.75439 0.44456 0.0
C291 C 0.72597 0.78425 0.63948 0.0
C292 C 0.72178 0.73788 0.55264 0.0
H293 H 0.77784 0.72216 0.51475 0.0
C294 C 0.70261 0.73237 0.52092 0.0
C295 C 0.7491 0.73384 0.55048 0.0
C296 C 0.76974 0.7378 0.58403 0.0
C297 C 0.71036 0.72359 0.48694 0.0
C298 C 0.73774 0.7197 0.48476 0.0
C299 C 0.75689 0.72517 0.51647 0.0
C300 C 0.74704 0.71026 0.44967 0.0
C301 C 0.68958 0.71923 0.45343 0.0
C302 C 0.7265 0.6804 0.4333 0.0
C303 C 0.73466 0.67228 0.39935 0.0
C304 C 0.76362 0.69384 0.38108 0.0
C305 C 0.78466 0.72327 0.39829 0.0
C306 C 0.77649 0.73132 0.43228 0.0
H307 H 0.67435 0.73046 0.45735 0.0
H308 H 0.70459 0.72983 0.42811 0.0
H309 H 0.67338 0.69312 0.44868 0.0
H310 H 0.70395 0.6635 0.44659 0.0
H311 H 0.71788 0.64939 0.38704 0.0
H312 H 0.93788 0.21513 0.17241 0.0
H313 H 0.96458 0.22458 0.11161 0.0
H314 H 0.98072 0.32151 0.10946 0.0
H315 H 0.95435 0.31243 0.16986 0.0
H316 H 0.95576 0.24827 0.03884 0.0
H317 H 0.07232 0.33179 0.10578 0.0
H318 H 0.03715 0.30369 0.13204 0.0
H319 H 0.04069 0.34066 0.11468 0.0
C320 C 0.94633 0.23815 0.15852 0.0
C321 C 0.94419 0.2631 0.17618 0.0
C322 C 0.96178 0.24358 0.12389 0.0
C323 C 0.97528 0.27399 0.10646 0.0
C324 C 0.97106 0.29808 0.12278 0.0
H325 H 0.09246 0.37615 0.91672 0.0
H326 H 0.06203 0.35838 0.97496 0.0
C327 C 0.9558 0.29275 0.15726 0.0
C328 C 0.99551 0.28152 0.07247 0.0
H329 H 0.07178 0.33129 0.03974 0.0
C330 C 0.98119 0.26616 0.03902 0.0
C331 C 0.02873 0.30483 0.07284 0.0
C332 C 0.04579 0.32103 0.1083 0.0
C333 C 0.99895 0.27444 1.00561 0.0
C334 C 0.03203 0.29831 1.00586 0.0
C335 C 0.04644 0.31311 0.03951 0.0
C336 C 0.05187 0.30913 0.97133 0.0
C337 C 0.9819 0.25842 0.97009 0.0
C338 C 0.05719 0.28763 0.95044 0.0
C339 C 0.07474 0.29776 0.91715 0.0
C340 C 0.08745 0.32967 0.90409 0.0
C341 C 0.08309 0.35143 0.92585 0.0
C342 C 0.06559 0.34129 0.95915 0.0
H343 H 0.95529 0.24628 0.97309 0.0
H344 H 0.98943 0.27623 0.94688 0.0
H345 H 0.98832 0.23994 0.96247 0.0
H346 H 0.04746 0.26289 0.95968 0.0
H347 H 0.07757 0.28029 0.90117 0.0
H348 H 0.37802 0.08857 0.39305 0.0
H349 H 0.35792 0.05737 0.45065 0.0
H350 H 0.26285 0.04175 0.42751 0.0
H351 H 0.28271 0.07302 0.36953 0.0
H352 H 0.28485 0.05695 0.50546 0.0
H353 H 0.29804 0.95729 0.44749 0.0
H354 H 0.33347 0.99636 0.44342 0.0
H355 H 0.29756 0.98815 0.41862 0.0
C356 C 0.35292 0.07898 0.40033 0.0
C357 C 0.33199 0.08326 0.37641 0.0
C358 C 0.34143 0.06095 0.43324 0.0
C359 C 0.30877 0.04673 0.44301 0.0
C360 C 0.28811 0.05234 0.42035 0.0
H361 H 0.21676 0.93059 0.6465 0.0
H362 H 0.22231 0.95534 0.58464 0.0
C363 C 0.29957 0.07036 0.38728 0.0
C364 C 0.29626 0.02503 0.47612 0.0
H365 H 0.28881 0.95547 0.51271 0.0
C366 C 0.28525 0.03453 0.50696 0.0
C367 C 0.29661 0.99568 0.47788 0.0
C368 C 0.30677 0.98352 0.445 0.0
C369 C 0.27625 0.01629 0.54025 0.0
C370 C 0.27775 0.98751 0.54242 0.0
C371 C 0.28761 0.97747 0.51104 0.0
C372 C 0.27257 0.96937 0.57801 0.0
C373 C 0.26678 0.02879 0.57341 0.0
C374 C 0.29843 0.96765 0.59399 0.0
C375 C 0.29525 0.9534 0.62896 0.0
C376 C 0.26603 0.94025 0.64875 0.0
C377 C 0.2395 0.94028 0.63185 0.0
C378 C 0.24278 0.9548 0.59674 0.0
H379 H 0.27229 0.05405 0.56916 0.0
H380 H 0.24049 1.01354 0.57835 0.0
H381 H 0.27942 0.02759 0.59881 0.0
H382 H 0.32157 0.9785 0.58001 0.0
H383 H 0.31614 0.95371 0.64109 0.0
H384 H 0.75071 0.81883 0.8844 0.0
H385 H 0.77413 0.81292 0.94311 0.0
H386 H 0.70057 0.71281 0.94956 0.0
H387 H 0.67742 0.71837 0.89146 0.0
H388 H 0.74753 0.78933 1.01724 0.0
H389 H 0.78586 0.71084 0.94922 0.0
H390 H 0.77437 0.73599 0.92319 0.0
H391 H 0.74404 0.6977 0.94175 0.0
C392 C 0.7392 0.79578 0.89882 0.0
C393 C 0.71238 0.769 0.88312 0.0
C394 C 0.75271 0.79238 0.93219 0.0
C395 C 0.73957 0.76219 0.95017 0.0
C396 C 0.71161 0.73611 0.9357 0.0
H397 H 0.73762 0.65929 0.13982 0.0
H398 H 0.73433 0.68109 0.07923 0.0
C399 C 0.69829 0.73941 0.90254 0.0
C400 C 0.75512 0.75697 0.98336 0.0
H401 H 0.78257 0.70775 1.01604 0.0
C402 C 0.75592 0.77209 1.01688 0.0
C403 C 0.76631 0.73462 0.98279 0.0
C404 C 0.76795 0.71909 0.94721 0.0
C405 C 0.76549 0.7637 0.05032 0.0
C406 C 0.7746 0.73977 0.05005 0.0
C407 C 0.77549 0.72601 1.0162 0.0
C408 C 0.77927 0.72585 0.08505 0.0
C409 C 0.76399 0.779 0.08613 0.0
C410 C 0.80631 0.74331 0.10785 0.0
C411 C 0.80852 0.73061 0.14243 0.0
C412 C 0.78352 0.70044 0.15475 0.0
C413 C 0.75729 0.68253 0.13103 0.0
C414 C 0.75531 0.69501 0.09646 0.0
H415 H 0.75421 0.79552 0.08202 0.0
H416 H 0.74869 0.76007 0.10673 0.0
H417 H 0.78854 0.79289 0.09808 0.0
H418 H 0.82516 0.76709 0.0994 0.0
H419 H 0.82876 0.74515 0.16037 0.0
H420 H 0.96921 0.22177 0.39729 0.0
H421 H 0.9973 0.23186 0.45703 0.0
H422 H 0.97731 0.30853 0.47847 0.0
H423 H 0.949 0.29849 0.4193 0.0
H424 H 0.05169 0.28916 0.47993 0.0
H425 H 0.94881 0.25591 0.57493 0.0
H426 H 0.94346 0.2444 0.52666 0.0
H427 H 0.95245 0.28424 0.53951 0.0
C428 C 0.97027 0.2404 0.41502 0.0
C429 C 0.95659 0.25915 0.40353 0.0
C430 C 0.98652 0.24625 0.44906 0.0
C431 C 0.98913 0.27071 0.47245 0.0
C432 C 0.97511 0.28913 0.46127 0.0
H433 H 0.07891 0.36992 0.67113 0.0
H434 H 0.05368 0.35093 0.61073 0.0
C435 C 0.95897 0.28339 0.42728 0.0
C436 C 1.00758 0.27812 0.50783 0.0
H437 H 1.00145 0.2875 0.60089 0.0
C438 C 0.04066 0.28837 0.5065 0.0
C439 C 0.99314 0.27695 0.54249 0.0
C440 C 0.95745 0.26447 0.54615 0.0
C441 C 0.05996 0.29901 0.53863 0.0
C442 C 0.0457 0.29906 0.57298 0.0
C443 C 1.01242 0.2877 0.57447 0.0
C444 C 0.06485 0.31252 0.60744 0.0
C445 C 0.09564 0.31141 0.5354 0.0
C446 C 0.08039 0.29778 0.62535 0.0
C447 C 0.0951 0.30875 0.66012 0.0
C448 C 0.09421 0.33444 0.6776 0.0
C449 C 0.07992 0.34997 0.65864 0.0
C450 C 0.0654 0.33911 0.62407 0.0
H451 H 0.10378 0.31492 0.50596 0.0
H452 H 0.10949 0.33464 0.55014 0.0
H453 H 0.10137 0.29383 0.54865 0.0
H454 H 0.07993 0.27696 0.61325 0.0
H455 H 0.10558 0.29603 0.67414 0.0
H456 H 0.56917 0.17611 0.32389 0.0
H457 H 0.6281 0.20329 0.32443 0.0
H458 H 0.62494 0.12577 0.26133 0.0
H459 H 0.56623 0.09911 0.25938 0.0
H460 H 0.66776 0.18296 0.35331 0.0
H461 H 0.68892 0.20414 0.20178 0.0
H462 H 0.65044 0.19242 0.22296 0.0
H463 H 0.66176 0.16262 0.21318 0.0
C464 C 0.58101 0.16504 0.30967 0.0
C465 C 0.56285 0.13542 0.29148 0.0
C466 C 0.61471 0.18053 0.3102 0.0
C467 C 0.63101 0.16687 0.29237 0.0
C468 C 0.61298 0.13716 0.27459 0.0
H469 H 0.82004 0.19434 0.32964 0.0
H470 H 0.76301 0.17799 0.32937 0.0
C471 C 0.57932 0.12169 0.27398 0.0
C472 C 0.66678 0.18301 0.29344 0.0
H473 H 0.73345 0.20994 0.23822 0.0
C474 C 0.68214 0.18915 0.32814 0.0
C475 C 0.68567 0.19166 0.26062 0.0
C476 C 0.67091 0.1877 0.22254 0.0
C477 C 0.71569 0.20246 0.33092 0.0
C478 C 0.73433 0.20927 0.2981 0.0
C479 C 0.71914 0.20438 0.26339 0.0
C480 C 0.76932 0.22009 0.29915 0.0
C481 C 0.73082 0.20913 0.36902 0.0
C482 C 0.79193 0.24891 0.28149 0.0
C483 C 0.82473 0.25829 0.28134 0.0
C484 C 0.83548 0.23888 0.29868 0.0
C485 C 0.81272 0.21006 0.31632 0.0
C486 C 0.78004 0.20072 0.31639 0.0
H487 H 0.71559 0.21235 0.38982 0.0
H488 H 0.73341 0.18835 0.37823 0.0
H489 H 0.75508 0.23102 0.36872 0.0
H490 H 0.78417 0.26413 0.26775 0.0
H491 H 0.84158 0.28056 0.26737 0.0
H492 H 0.64414 0.46387 0.25049 0.0
H493 H 0.61216 0.40513 0.24673 0.0
H494 H 0.52558 0.40924 0.26673 0.0
H495 H 0.55698 0.46785 0.26855 0.0
H496 H 0.57349 0.35995 0.29741 0.0
H497 H 0.50085 0.35467 0.175 0.0
H498 H 0.53626 0.3914 0.18888 0.0
H499 H 0.49811 0.37848 0.21136 0.0
C500 C 0.61823 0.45236 0.25349 0.0
C501 C 0.60321 0.47081 0.25953 0.0
C502 C 0.60001 0.4187 0.25163 0.0
C503 C 0.56637 0.40275 0.25569 0.0
C504 C 0.5514 0.421 0.26257 0.0
H505 H 0.40498 0.21708 0.28627 0.0
H506 H 0.44643 0.27356 0.2821 0.0
C507 C 0.56952 0.4546 0.26418 0.0
C508 C 0.54684 0.36701 0.2535 0.0
H509 H 0.48049 0.30616 0.21169 0.0
C510 C 0.55348 0.34814 0.27826 0.0
C511 C 0.52091 0.35153 0.22823 0.0
C512 C 0.51382 0.37007 0.1991 0.0
C513 C 0.5338 0.3144 0.27978 0.0
C514 C 0.50693 0.29923 0.25586 0.0
C515 C 0.50106 0.31792 0.23013 0.0
C516 C 0.48281 0.26447 0.25937 0.0
C517 C 0.54087 0.29525 0.30801 0.0
C518 C 0.48957 0.24048 0.24801 0.0
C519 C 0.4657 0.20781 0.25022 0.0
C520 C 0.43479 0.19876 0.26393 0.0
C521 C 0.42846 0.22301 0.27564 0.0
C522 C 0.45213 0.25542 0.27324 0.0
H523 H 0.561 0.31094 0.32679 0.0
H524 H 0.51908 0.27996 0.32506 0.0
H525 H 0.54738 0.279 0.29339 0.0
H526 H 0.51309 0.24704 0.23693 0.0
H527 H 0.47134 0.18976 0.24095 0.0
H528 H 0.94583 0.48266 0.29648 0.0
H529 H 0.91929 0.51479 0.29304 0.0
H530 H 0.83194 0.43179 0.25572 0.0
H531 H 0.85773 0.39892 0.26114 0.0
H532 H 0.89367 0.53013 0.23563 0.0
H533 H 0.7977 0.46072 0.3399 0.0
H534 H 0.83162 0.45464 0.33353 0.0
H535 H 0.79815 0.43703 0.30187 0.0
C536 C 0.92081 0.471 0.28809 0.0
C537 C 0.9039 0.43798 0.27954 0.0
C538 C 0.90573 0.48954 0.28581 0.0
C539 C 0.87338 0.47564 0.27482 0.0
C540 C 0.85665 0.44294 0.26518 0.0
H541 H 0.75628 0.56913 0.24349 0.0
H542 H 0.77559 0.53027 0.24183 0.0
C543 C 0.87165 0.42426 0.26774 0.0
C544 C 0.8576 0.4957 0.27308 0.0
H545 H 0.79519 0.50298 0.30811 0.0
C546 C 0.87211 0.5241 0.25145 0.0
C547 C 0.82939 0.48789 0.29369 0.0
C548 C 0.81343 0.45858 0.31884 0.0
C549 C 0.85942 0.54495 0.25013 0.0
C550 C 0.83154 0.53733 0.27105 0.0
C551 C 0.81651 0.50864 0.29199 0.0
C552 C 0.81893 0.55997 0.2732 0.0
C553 C 0.87603 0.57517 0.22652 0.0
C554 C 0.83659 0.58916 0.292 0.0
C555 C 0.82558 0.61121 0.29325 0.0
C556 C 0.79667 0.6046 0.27558 0.0
C557 C 0.77866 0.575 0.25731 0.0
C558 C 0.78963 0.55278 0.25634 0.0
H559 H 0.89297 0.57425 0.20622 0.0
H560 H 0.85808 0.57908 0.21116 0.0
H561 H 0.88994 0.59619 0.24478 0.0
H562 H 0.85909 0.59501 0.3055 0.0
H563 H 0.84012 0.63373 0.30753 0.0
H564 H 0.09664 0.55846 0.78931 0.0
H565 H 0.12301 0.61724 0.78753 0.0
H566 H 0.2155 0.62356 0.77616 0.0
H567 H 0.18958 0.56472 0.77924 0.0
H568 H 0.18095 0.66216 0.84005 0.0
H569 H 0.20314 0.67933 0.68723 0.0
H570 H 0.17046 0.64258 0.70665 0.0
H571 H 0.21117 0.65109 0.71188 0.0
C572 C 0.12263 0.57222 0.78682 0.0
C573 C 0.14091 0.55664 0.78456 0.0
C574 C 0.13761 0.60585 0.78554 0.0
C575 C 0.17113 0.62465 0.78156 0.0
C576 C 0.18954 0.60939 0.77894 0.0
H577 H 0.28739 0.83445 0.75058 0.0
H578 H 0.27012 0.77689 0.75457 0.0
C579 C 0.17461 0.57572 0.78049 0.0
C580 C 0.18678 0.66028 0.78102 0.0
H581 H 0.21901 0.7258 0.72276 0.0
C582 C 0.18944 0.67616 0.81448 0.0
C583 C 0.19813 0.67839 0.74769 0.0
C584 C 0.19563 0.66219 0.71114 0.0
C585 C 0.20287 0.70977 0.81544 0.0
C586 C 0.21305 0.72788 0.78184 0.0
C587 C 0.21114 0.71198 0.74849 0.0
C588 C 0.22419 0.76298 0.78044 0.0
C589 C 0.20628 0.72552 0.85257 0.0
C590 C 0.20405 0.77432 0.79328 0.0
C591 C 0.21392 0.80711 0.79131 0.0
C592 C 0.24402 0.82936 0.77591 0.0
C593 C 0.26411 0.81799 0.76272 0.0
C594 C 0.25426 0.78509 0.76494 0.0
H595 H 0.20778 0.71071 0.87565 0.0
H596 H 0.22804 0.74985 0.85333 0.0
H597 H 0.18478 0.728 0.85762 0.0
H598 H 0.18038 0.75771 0.80435 0.0
H599 H 0.19762 0.81489 0.8013 0.0
H600 H 0.41099 0.8545 0.81651 0.0
H601 H 0.44474 0.82934 0.81861 0.0
H602 H 0.51407 0.90416 0.74645 0.0
H603 H 0.48049 0.9292 0.74379 0.0
H604 H 0.46686 0.80631 0.75986 0.0
H605 H 0.56879 0.90524 0.83506 0.0
H606 H 0.52941 0.90151 0.83265 0.0
H607 H 0.557 0.91863 0.79421 0.0
C608 C 0.43334 0.86553 0.80093 0.0
C609 C 0.44312 0.89411 0.78026 0.0
C610 C 0.45265 0.85116 0.80229 0.0
C611 C 0.48219 0.86517 0.78323 0.0
C612 C 0.49175 0.89335 0.76212 0.0
H613 H 0.63804 0.83212 0.73648 0.0
H614 H 0.59834 0.8496 0.74113 0.0
C615 C 0.47251 0.90768 0.76071 0.0
C616 C 0.503 0.8503 0.7848 0.0
H617 H 0.57907 0.86648 0.80668 0.0
C618 C 0.49127 0.81926 0.77049 0.0
C619 C 0.53479 0.86718 0.79885 0.0
C620 C 0.5482 0.89986 0.81641 0.0
C621 C 0.51101 0.80527 0.7683 0.0
C622 C 0.54314 0.82264 0.78124 0.0
C623 C 0.55449 0.85326 0.79657 0.0
C624 C 0.56607 0.81043 0.77742 0.0
C625 C 0.49778 0.7726 0.75081 0.0
C626 C 0.56112 0.78243 0.79622 0.0
C627 C 0.5839 0.77224 0.79359 0.0
C628 C 0.61206 0.78998 0.7722 0.0
C629 C 0.61665 0.81779 0.75315 0.0
C630 C 0.59398 0.8279 0.75582 0.0
H631 H 0.47497 0.76532 0.73557 0.0
H632 H 0.51557 0.77243 0.73124 0.0
H633 H 0.49282 0.75434 0.7729 0.0
H634 H 0.54001 0.76884 0.81355 0.0
H635 H 0.57969 0.75082 0.80876 0.0
H636 H 0.22466 0.39604 0.81711 0.0
H637 H 0.28175 0.43555 0.80969 0.0
H638 H 0.25726 0.50121 0.75565 0.0
H639 H 0.19968 0.46158 0.76276 0.0
H640 H 0.31271 0.46488 0.73488 0.0
H641 H 0.32463 0.55285 0.84264 0.0
H642 H 0.29316 0.5111 0.8448 0.0
H643 H 0.29104 0.53776 0.81101 0.0
C644 C 0.23127 0.41896 0.80393 0.0
C645 C 0.20751 0.42564 0.7906 0.0
C646 C 0.26396 0.44148 0.79963 0.0
C647 C 0.2737 0.4713 0.78229 0.0
C648 C 0.25018 0.47838 0.76938 0.0
H649 H 0.47182 0.63176 0.75697 0.0
H650 H 0.41301 0.59881 0.75621 0.0
C651 C 0.21733 0.4557 0.77341 0.0
C652 C 0.30855 0.4943 0.77677 0.0
H653 H 0.3717 0.56341 0.81062 0.0
C654 C 0.32563 0.48656 0.75122 0.0
C655 C 0.32519 0.52266 0.79788 0.0
C656 C 0.30779 0.53177 0.82581 0.0
C657 C 0.35908 0.50625 0.74652 0.0
C658 C 0.37609 0.53393 0.76885 0.0
C659 C 0.35877 0.54214 0.79365 0.0
C660 C 0.41191 0.55387 0.76799 0.0
C661 C 0.37573 0.49725 0.71741 0.0
C662 C 0.43097 0.53971 0.77512 0.0
C663 C 0.46459 0.55838 0.77499 0.0
C664 C 0.48008 0.59185 0.76837 0.0
C665 C 0.46087 0.60603 0.76154 0.0
C666 C 0.42718 0.58725 0.76142 0.0
H667 H 0.35882 0.48276 0.695 0.0
H668 H 0.39634 0.51895 0.70467 0.0
H669 H 0.38495 0.48236 0.73054 0.0
H670 H 0.41985 0.51417 0.78118 0.0
H671 H 0.47844 0.54646 0.77997 0.0
H672 H 0.21941 0.20241 0.33624 0.0
H673 H 0.18117 0.22218 0.33995 0.0
H674 H 0.14377 0.18261 0.23206 0.0
H675 H 0.18211 0.16325 0.22779 0.0
H676 H 0.17478 0.26547 0.2892 0.0
H677 H 0.06298 0.14652 0.29886 0.0
H678 H 0.1024 0.15167 0.30778 0.0
H679 H 0.0888 0.15016 0.26079 0.0
C680 C 0.20303 0.19788 0.31329 0.0
C681 C 0.20375 0.18105 0.28178 0.0
C682 C 0.18118 0.20916 0.31551 0.0
C683 C 0.15947 0.20359 0.28645 0.0
C684 C 0.15995 0.18666 0.25511 0.0
H685 H 1.0078 0.23995 0.22787 0.0
H686 H 0.05284 0.22968 0.22963 0.0
C687 C 0.18179 0.17545 0.25281 0.0
C688 C 0.13665 0.21597 0.2883 0.0
H689 H 0.05655 0.19175 0.2858 0.0
C690 C 0.1489 0.24942 0.28882 0.0
C691 C 0.10296 0.19494 0.28798 0.0
C692 C 0.08842 0.15881 0.28918 0.0
C693 C 0.12826 0.26242 0.2874 0.0
C694 C 0.09458 0.24134 0.28595 0.0
C695 C 0.08241 0.2079 0.28657 0.0
C696 C 0.0712 0.25299 0.28243 0.0
C697 C 0.14261 0.2985 0.2861 0.0
C698 C 0.06727 0.27064 0.31089 0.0
C699 C 0.04163 0.27693 0.30969 0.0
C700 C 1.01942 0.26519 0.28029 0.0
C701 C 0.02455 0.24919 0.25091 0.0
C702 C 0.05021 0.24323 0.25193 0.0
H703 H 0.16875 0.31112 0.27936 0.0
H704 H 0.13007 0.30552 0.26516 0.0
H705 H 0.13961 0.30685 0.31367 0.0
H706 H 0.08288 0.27796 0.33498 0.0
H707 H 0.03788 0.28887 0.33295 0.0
H708 H 1.01417 0.8394 0.31032 0.0
H709 H 0.07264 0.87398 0.30859 0.0
H710 H 0.07435 0.84615 0.1954 0.0
H711 H 1.01548 0.81195 0.19654 0.0
H712 H 0.12167 0.85785 0.29331 0.0
H713 H 0.12056 0.94582 0.19143 0.0
H714 H 0.08479 0.91682 0.21604 0.0
H715 H 0.09994 0.9042 0.17807 0.0
C716 C 0.02687 0.84093 0.28484 0.0
C717 C 1.01009 0.82327 0.25337 0.0
C718 C 0.06034 0.86039 0.28408 0.0
C719 C 0.07778 0.86273 0.25184 0.0
C720 C 0.06127 0.84486 0.22046 0.0
H721 H 0.29124 0.98514 0.24802 0.0
H722 H 0.23793 0.9362 0.24229 0.0
C723 C 0.02769 0.82526 0.22122 0.0
C724 C 0.11308 0.88492 0.25109 0.0
H725 H 0.17058 0.95757 0.21609 0.0
C726 C 0.13255 0.87942 0.27602 0.0
C727 C 0.12706 0.91307 0.2286 0.0
C728 C 0.10711 0.92063 0.20215 0.0
C729 C 0.16549 0.902 0.27997 0.0
C730 C 0.17911 0.9306 0.25841 0.0
C731 C 0.15996 0.93543 0.2324 0.0
C732 C 0.21177 0.95788 0.26575 0.0
C733 C 0.18518 0.8961 0.30848 0.0
C734 C 0.21458 0.98573 0.28157 0.0
C735 C 0.2446 1.01335 0.28473 0.0
C736 C 0.27254 1.01378 0.27211 0.0
C737 C 0.27007 0.98534 0.25815 0.0
C738 C 0.23972 0.9575 0.25477 0.0
H739 H 0.17054 0.87332 0.3244 0.0
H740 H 0.20513 0.89489 0.29439 0.0
H741 H 0.19615 0.91643 0.32826 0.0
H742 H 0.19331 0.9864 0.29041 0.0
H743 H 0.2458 0.03481 0.29603 0.0
H744 H 0.89012 0.02823 0.24871 0.0
H745 H 0.8668 0.96976 0.24619 0.0
H746 H 0.77129 0.95738 0.24709 0.0
H747 H 0.79427 0.01576 0.2505 0.0
H748 H 0.82218 0.92539 0.30247 0.0
H749 H 0.77155 0.90029 0.1592 0.0
H750 H 0.80317 0.93971 0.17296 0.0
H751 H 0.76252 0.92531 0.18795 0.0
C752 C 0.86415 1.01314 0.24826 0.0
C753 C 0.84412 0.02681 0.24989 0.0
C754 C 0.85088 0.97973 0.24667 0.0
C755 C 0.81734 0.95929 0.24629 0.0
C756 C 0.79723 0.97277 0.24685 0.0
H757 H 0.73343 0.75165 0.29646 0.0
H758 H 0.73849 0.80538 0.29302 0.0
C759 C 0.81047 1.0062 0.24862 0.0
C760 C 0.80363 0.92387 0.24751 0.0
H761 H 0.76363 0.8557 0.19572 0.0
C762 C 0.80908 0.91005 0.27932 0.0
C763 C 0.78659 0.90405 0.21722 0.0
C764 C 0.78065 0.91793 0.18221 0.0
C765 C 0.7986 0.87698 0.28134 0.0
C766 C 0.782 0.85717 0.25082 0.0
C767 C 0.77597 0.87089 0.21926 0.0
C768 C 0.77459 0.82322 0.24947 0.0
C769 C 0.80665 0.8637 0.31542 0.0
C770 C 0.79217 0.81516 0.22511 0.0
C771 C 0.78942 0.78481 0.22713 0.0
C772 C 0.76878 0.76174 0.25331 0.0
C773 C 0.74946 0.76897 0.276 0.0
C774 C 0.75249 0.79965 0.27421 0.0
H775 H 0.8235 0.88305 0.33429 0.0
H776 H 0.7842 0.8478 0.33109 0.0
H777 H 0.81766 0.84902 0.3073 0.0
H778 H 0.80925 0.83292 0.20574 0.0
H779 H 0.80433 0.77976 0.20897 0.0
H780 H 0.15134 0.15743 0.78476 0.0
H781 H 0.17402 0.12222 0.77747 0.0
H782 H 0.25128 0.19508 0.7108 0.0
H783 H 0.22989 0.23138 0.72 0.0
H784 H 0.18469 0.096 0.71975 0.0
H785 H 0.30192 0.17711 0.78687 0.0
H786 H 0.26862 0.18466 0.78777 0.0
H787 H 0.29367 0.19472 0.74704 0.0
C788 C 0.17335 0.16618 0.76883 0.0
C789 C 0.18902 0.19752 0.7535 0.0
C790 C 0.18618 0.14588 0.76445 0.0
C791 C 0.21483 0.15625 0.74436 0.0
C792 C 0.22968 0.18686 0.72734 0.0
H793 H 0.26391 1.00854 0.68901 0.0
H794 H 0.2551 0.05456 0.68309 0.0
C795 C 0.21705 0.2074 0.73209 0.0
C796 C 0.22882 0.13474 0.74152 0.0
H797 H 0.29568 0.129 0.7614 0.0
C798 C 0.20901 0.10328 0.72874 0.0
C799 C 0.26043 0.14409 0.75376 0.0
C800 C 0.28232 0.17686 0.76998 0.0
C801 C 0.21957 0.08074 0.72842 0.0
C802 C 0.25145 0.09027 0.73981 0.0
C803 C 0.27145 0.12186 0.75218 0.0
C804 C 0.26349 0.06705 0.74136 0.0
C805 C 0.19584 0.04654 0.71751 0.0
C806 C 0.27396 0.06057 0.7753 0.0
C807 C 0.28017 0.035 0.77835 0.0
C808 C 0.27569 0.0155 0.74758 0.0
C809 C 0.26752 0.0234 0.71307 0.0
C810 C 0.26209 0.04938 0.70982 0.0
H811 H 0.17053 0.0413 0.71967 0.0
H812 H 0.2002 0.04284 0.68817 0.0
H813 H 0.19851 0.02891 0.73529 0.0
H814 H 0.27543 0.07401 0.79996 0.0
H815 H 0.28601 0.02897 0.80533 0.0
H816 H 0.02326 0.78915 0.73575 0.0
H817 H 0.96466 0.76486 0.73524 0.0
H818 H 0.97465 0.85904 0.72248 0.0
H819 H 0.03333 0.88349 0.72186 0.0
H820 H 0.92976 0.77636 0.78687 0.0
H821 H 0.9055 0.80669 0.64588 0.0
H822 H 0.94318 0.80892 0.65809 0.0
H823 H 0.93594 0.84116 0.66992 0.0
C824 C 1.01304 0.80467 0.73176 0.0
C825 C 0.03307 0.83831 0.72869 0.0
C826 C 0.9795 0.79073 0.73177 0.0
C827 C 0.96523 0.81006 0.72841 0.0
C828 C 0.98509 0.84356 0.72439 0.0
H829 H 0.79515 0.79738 0.81062 0.0
H830 H 0.84747 0.8019 0.79985 0.0
C831 C 1.01865 0.85755 0.72444 0.0
C832 C 0.9298 0.79563 0.73241 0.0
H833 H 0.86372 0.79226 0.69151 0.0
C834 C 0.91522 0.77939 0.76575 0.0
C835 C 0.91069 0.79911 0.70467 0.0
C836 C 0.92454 0.81463 0.66747 0.0
C837 C 0.8825 0.76819 0.77294 0.0
C838 C 0.86396 0.77367 0.74626 0.0
C839 C 0.87803 0.78825 0.71206 0.0
C840 C 0.83115 0.76772 0.75489 0.0
C841 C 0.86822 0.75119 0.80939 0.0
C842 C 0.80444 0.74682 0.73325 0.0
C843 C 0.77424 0.74403 0.73952 0.0
C844 C 0.7706 0.76262 0.76701 0.0
C845 C 0.79721 0.78276 0.78922 0.0
C846 C 0.82712 0.78525 0.78324 0.0
H847 H 0.88192 0.7401 0.8212 0.0
H848 H 0.86922 0.76894 0.8297 0.0
H849 H 0.84264 0.73216 0.80603 0.0
H850 H 0.80714 0.73328 0.71103 0.0
H851 H 0.75423 0.72864 0.72171 0.0
H852 H 1.00453 0.27716 0.83784 0.0
H853 H 0.95934 0.22176 0.84606 0.0
H854 H 0.98986 0.19272 0.74839 0.0
H855 H 0.03477 0.2475 0.74016 0.0
H856 H 0.90739 0.17497 0.79357 0.0
H857 H 0.99602 0.13896 0.83857 0.0
H858 H 1.00504 0.18036 0.83807 0.0
H859 H 1.00597 0.16143 0.7956 0.0
C860 C 1.00096 0.25912 0.81758 0.0
C861 C 0.02324 0.2665 0.78853 0.0
C862 C 0.97532 0.22751 0.82242 0.0
C863 C 0.97173 0.20313 0.7982 0.0
C864 C 0.99256 0.21111 0.76769 0.0
H865 H 0.86696 1.00206 0.75942 0.0
H866 H 0.90423 0.0599 0.76326 0.0
C867 C 1.01813 0.24243 0.76298 0.0
C868 C 0.948 0.16883 0.80581 0.0
H869 H 0.94341 0.0965 0.82366 0.0
C870 C 0.91508 0.15779 0.80074 0.0
C871 C 0.95823 0.1466 0.81527 0.0
C872 C 0.99321 0.15738 0.82255 0.0
C873 C 0.89223 0.12472 0.80297 0.0
C874 C 0.90269 0.10237 0.81095 0.0
C875 C 0.93548 0.11365 0.81741 0.0
C876 C 0.88043 0.06705 0.81016 0.0
C877 C 0.85733 0.11378 0.79506 0.0
C878 C 0.85511 0.05173 0.83587 0.0
C879 C 0.83386 0.01847 0.83401 0.0
C880 C 0.83762 0.99993 0.80644 0.0
C881 C 0.86358 0.01537 0.78139 0.0
C882 C 0.88478 0.04853 0.78332 0.0
H883 H 0.85412 0.13341 0.78286 0.0
H884 H 0.84705 0.09314 0.77568 0.0
H885 H 0.84338 0.10563 0.82139 0.0
H886 H 0.85174 0.06548 0.85729 0.0
H887 H 0.81441 1.00731 0.85406 0.0
loop_
_geom_bond_atom_site_label_1
_geom_bond_atom_site_label_2
_geom_bond_distance
_geom_bond_site_symmetry_2
_ccdc_geom_bond_type
Tb0 C10 2.825 . S
Tb0 O11 2.347 . S
Tb0 O14 2.366 . S
Tb0 O19 2.418 . S
Tb0 O20 2.384 . S
Tb0 O23 2.479 . S
Tb0 O24 2.471 . S
Eu1 O12 2.418 . S
Eu1 O13 2.384 . S
Eu1 O16 2.479 . S
Eu1 O17 2.471 . S
Eu1 O18 2.347 . S
Eu1 O21 2.366 . S
Eu1 C31 2.825 . S
C2 O18 1.259 . S
C2 O19 1.265 . S
C3 O20 1.255 . S
C3 O21 1.265 . S
C4 C6 1.380 . S
C4 C7 1.374 . S
C4 C10 1.507 . S
C5 C6 1.384 . S
C5 C9 1.387 . S
C5 H32 0.930 . S
C6 C4 1.380 . S
C6 C5 1.384 . S
C6 H33 0.931 . S
C7 C4 1.374 . S
C7 C8 1.390 . S
C7 H34 0.930 . S
C8 C7 1.390 . S
C8 C9 1.391 . S
C8 H35 0.930 . S
C9 C5 1.387 . S
C9 C8 1.391 . S
C10 Tb0 2.825 . S
C10 C4 1.507 . S
C10 O23 1.238 . S
C10 O24 1.247 . S
O11 Tb0 2.347 . S
O11 C15 1.259 . S
O12 Eu1 2.418 . S
O12 C15 1.265 . S
O13 Eu1 2.384 . S
O13 C22 1.255 . S
O14 Tb0 2.366 . S
O14 C22 1.265 . S
C15 O11 1.259 . S
C15 O12 1.265 . S
O16 Eu1 2.479 . S
O16 C31 1.238 . S
O17 Eu1 2.471 . S
O17 C31 1.247 . S
O18 Eu1 2.347 . S
O18 C2 1.259 . S
O19 Tb0 2.418 . S
O19 C2 1.265 . S
O20 Tb0 2.384 . S
O20 C3 1.255 . S
O21 Eu1 2.366 . S
O21 C3 1.265 . S
C22 O13 1.255 . S
C22 O14 1.265 . S
O23 Tb0 2.479 . S
O23 C10 1.238 . S
O24 Tb0 2.471 . S
O24 C10 1.247 . S
C25 C28 1.380 . S
C25 C29 1.374 . S
C25 C31 1.507 . S
C26 C27 1.387 . S
C26 C30 1.391 . S
C27 C26 1.387 . S
C27 C28 1.384 . S
C27 H36 0.930 . S
C28 C25 1.380 . S
C28 C27 1.384 . S
C28 H37 0.931 . S
C29 C25 1.374 . S
C29 C30 1.390 . S
C29 H38 0.930 . S
C30 C26 1.391 . S
C30 C29 1.390 . S
C30 H39 0.930 . S
C31 Eu1 2.825 . S
C31 O16 1.238 . S
C31 O17 1.247 . S
C31 C25 1.507 . S
H32 C5 0.930 . S
H33 C6 0.931 . S
H34 C7 0.930 . S
H35 C8 0.930 . S
H36 C27 0.930 . S
H37 C28 0.931 . S
H38 C29 0.930 . S
H39 C30 0.930 . S
Tb40 C50 2.825 . S
Tb40 O51 2.347 . S
Tb40 O54 2.366 . S
Tb40 O59 2.418 . S
Tb40 O60 2.384 . S
Tb40 O63 2.479 . S
Tb40 O64 2.471 . S
Eu41 O52 2.418 . S
Eu41 O53 2.384 . S
Eu41 O56 2.479 . S
Eu41 O57 2.471 . S
Eu41 O58 2.347 . S
Eu41 O61 2.366 . S
Eu41 C71 2.825 . S
C42 O58 1.259 . S
C42 O59 1.265 . S
C43 O60 1.255 . S
C43 O61 1.265 . S
C44 C46 1.380 . S
C44 C47 1.374 . S
C44 C50 1.507 . S
C45 C46 1.384 . S
C45 C49 1.387 . S
C45 H72 0.930 . S
C46 C44 1.380 . S
C46 C45 1.384 . S
C46 H73 0.931 . S
C47 C44 1.374 . S
C47 C48 1.390 . S
C47 H74 0.930 . S
C48 C47 1.390 . S
C48 C49 1.391 . S
C48 H75 0.930 . S
C49 C45 1.387 . S
C49 C48 1.391 . S
C50 Tb40 2.825 . S
C50 C44 1.507 . S
C50 O63 1.238 . S
C50 O64 1.247 . S
O51 Tb40 2.347 . S
O51 C55 1.259 . S
O52 Eu41 2.418 . S
O52 C55 1.265 . S
O53 Eu41 2.384 . S
O53 C62 1.255 . S
O54 Tb40 2.366 . S
O54 C62 1.265 . S
C55 O51 1.259 . S
C55 O52 1.265 . S
O56 Eu41 2.479 . S
O56 C71 1.238 . S
O57 Eu41 2.471 . S
O57 C71 1.247 . S
O58 Eu41 2.347 . S
O58 C42 1.259 . S
O59 Tb40 2.418 . S
O59 C42 1.265 . S
O60 Tb40 2.384 . S
O60 C43 1.255 . S
O61 Eu41 2.366 . S
O61 C43 1.265 . S
C62 O53 1.255 . S
C62 O54 1.265 . S
O63 Tb40 2.479 . S
O63 C50 1.238 . S
O64 Tb40 2.471 . S
O64 C50 1.247 . S
C65 C68 1.380 . S
C65 C69 1.374 . S
C65 C71 1.507 . S
C66 C67 1.387 . S
C66 C70 1.391 . S
C67 C66 1.387 . S
C67 C68 1.384 . S
C67 H76 0.930 . S
C68 C65 1.380 . S
C68 C67 1.384 . S
C68 H77 0.931 . S
C69 C65 1.374 . S
C69 C70 1.390 . S
C69 H78 0.930 . S
C70 C66 1.391 . S
C70 C69 1.390 . S
C70 H79 0.930 . S
C71 Eu41 2.825 . S
C71 O56 1.238 . S
C71 O57 1.247 . S
C71 C65 1.507 . S
H72 C45 0.930 . S
H73 C46 0.931 . S
H74 C47 0.930 . S
H75 C48 0.930 . S
H76 C67 0.930 . S
H77 C68 0.931 . S
H78 C69 0.930 . S
H79 C70 0.930 . S
Tb80 C90 2.825 . S
Tb80 O91 2.347 . S
Tb80 O94 2.366 . S
Tb80 O99 2.418 . S
Tb80 O100 2.384 . S
Tb80 O103 2.479 . S
Tb80 O104 2.471 . S
Eu81 O92 2.418 . S
Eu81 O93 2.384 . S
Eu81 O96 2.479 . S
Eu81 O97 2.471 . S
Eu81 O98 2.347 . S
Eu81 O101 2.366 . S
Eu81 C111 2.825 . S
C82 O98 1.259 . S
C82 O99 1.265 . S
C83 O100 1.255 . S
C83 O101 1.265 . S
C84 C86 1.380 . S
C84 C87 1.374 . S
C84 C90 1.507 . S
C85 C86 1.384 . S
C85 C89 1.387 . S
C85 H112 0.930 . S
C86 C84 1.380 . S
C86 C85 1.384 . S
C86 H113 0.931 . S
C87 C84 1.374 . S
C87 C88 1.390 . S
C87 H114 0.930 . S
C88 C87 1.390 . S
C88 C89 1.391 . S
C88 H115 0.930 . S
C89 C85 1.387 . S
C89 C88 1.391 . S
C90 Tb80 2.825 . S
C90 C84 1.507 . S
C90 O103 1.238 . S
C90 O104 1.247 . S
O91 Tb80 2.347 . S
O91 C95 1.259 . S
O92 Eu81 2.418 . S
O92 C95 1.265 . S
O93 Eu81 2.384 . S
O93 C102 1.255 . S
O94 Tb80 2.366 . S
O94 C102 1.265 . S
C95 O91 1.259 . S
C95 O92 1.265 . S
O96 Eu81 2.479 . S
O96 C111 1.238 . S
O97 Eu81 2.471 . S
O97 C111 1.247 . S
O98 Eu81 2.347 . S
O98 C82 1.259 . S
O99 Tb80 2.418 . S
O99 C82 1.265 . S
O100 Tb80 2.384 . S
O100 C83 1.255 . S
O101 Eu81 2.366 . S
O101 C83 1.265 . S
C102 O93 1.255 . S
C102 O94 1.265 . S
O103 Tb80 2.479 . S
O103 C90 1.238 . S
O104 Tb80 2.471 . S
O104 C90 1.247 . S
C105 C108 1.380 . S
C105 C109 1.374 . S
C105 C111 1.507 . S
C106 C107 1.387 . S
C106 C110 1.391 . S
C107 C106 1.387 . S
C107 C108 1.384 . S
C107 H116 0.930 . S
C108 C105 1.380 . S
C108 C107 1.384 . S
C108 H117 0.931 . S
C109 C105 1.374 . S
C109 C110 1.390 . S
C109 H118 0.930 . S
C110 C106 1.391 . S
C110 C109 1.390 . S
C110 H119 0.930 . S
C111 Eu81 2.825 . S
C111 O96 1.238 . S
C111 O97 1.247 . S
C111 C105 1.507 . S
H112 C85 0.930 . S
H113 C86 0.931 . S
H114 C87 0.930 . S
H115 C88 0.930 . S
H116 C107 0.930 . S
H117 C108 0.931 . S
H118 C109 0.930 . S
H119 C110 0.930 . S
Tb120 C130 2.825 . S
Tb120 O131 2.347 . S
Tb120 O134 2.366 . S
Tb120 O139 2.418 . S
Tb120 O140 2.384 . S
Tb120 O143 2.479 . S
Tb120 O144 2.471 . S
Eu121 O132 2.418 . S
Eu121 O133 2.384 . S
Eu121 O136 2.479 . S
Eu121 O137 2.471 . S
Eu121 O138 2.347 . S
Eu121 O141 2.366 . S
Eu121 C151 2.825 . S
C122 O138 1.259 . S
C122 O139 1.265 . S
C123 O140 1.255 . S
C123 O141 1.265 . S
C124 C126 1.380 . S
C124 C127 1.374 . S
C124 C130 1.507 . S
C125 C126 1.384 . S
C125 C129 1.387 . S
C125 H152 0.930 . S
C126 C124 1.380 . S
C126 C125 1.384 . S
C126 H153 0.931 . S
C127 C124 1.374 . S
C127 C128 1.390 . S
C127 H154 0.930 . S
C128 C127 1.390 . S
C128 C129 1.391 . S
C128 H155 0.930 . S
C129 C125 1.387 . S
C129 C128 1.391 . S
C130 Tb120 2.825 . S
C130 C124 1.507 . S
C130 O143 1.238 . S
C130 O144 1.247 . S
O131 Tb120 2.347 . S
O131 C135 1.259 . S
O132 Eu121 2.418 . S
O132 C135 1.265 . S
O133 Eu121 2.384 . S
O133 C142 1.255 . S
O134 Tb120 2.366 . S
O134 C142 1.265 . S
C135 O131 1.259 . S
C135 O132 1.265 . S
O136 Eu121 2.479 . S
O136 C151 1.238 . S
O137 Eu121 2.471 . S
O137 C151 1.247 . S
O138 Eu121 2.347 . S
O138 C122 1.259 . S
O139 Tb120 2.418 . S
O139 C122 1.265 . S
O140 Tb120 2.384 . S
O140 C123 1.255 . S
O141 Eu121 2.366 . S
O141 C123 1.265 . S
C142 O133 1.255 . S
C142 O134 1.265 . S
O143 Tb120 2.479 . S
O143 C130 1.238 . S
O144 Tb120 2.471 . S
O144 C130 1.247 . S
C145 C148 1.380 . S
C145 C149 1.374 . S
C145 C151 1.507 . S
C146 C147 1.387 . S
C146 C150 1.391 . S
C147 C146 1.387 . S
C147 C148 1.384 . S
C147 H156 0.930 . S
C148 C145 1.380 . S
C148 C147 1.384 . S
C148 H157 0.931 . S
C149 C145 1.374 . S
C149 C150 1.390 . S
C149 H158 0.930 . S
C150 C146 1.391 . S
C150 C149 1.390 . S
C150 H159 0.930 . S
C151 Eu121 2.825 . S
C151 O136 1.238 . S
C151 O137 1.247 . S
C151 C145 1.507 . S
H152 C125 0.930 . S
H153 C126 0.931 . S
H154 C127 0.930 . S
H155 C128 0.930 . S
H156 C147 0.930 . S
H157 C148 0.931 . S
H158 C149 0.930 . S
H159 C150 0.930 . S
Tb160 C170 2.825 . S
Tb160 O171 2.347 . S
Tb160 O174 2.366 . S
Tb160 O179 2.418 . S
Tb160 O180 2.384 . S
Tb160 O183 2.479 . S
Tb160 O184 2.471 . S
Eu161 O172 2.418 . S
Eu161 O173 2.384 . S
Eu161 O176 2.479 . S
Eu161 O177 2.471 . S
Eu161 O178 2.347 . S
Eu161 O181 2.366 . S
Eu161 C191 2.825 . S
C162 O178 1.259 . S
C162 O179 1.265 . S
C163 O180 1.255 . S
C163 O181 1.265 . S
C164 C166 1.380 . S
C164 C167 1.374 . S
C164 C170 1.507 . S
C165 C166 1.384 . S
C165 C169 1.387 . S
C165 H192 0.930 . S
C166 C164 1.380 . S
C166 C165 1.384 . S
C166 H193 0.931 . S
C167 C164 1.374 . S
C167 C168 1.390 . S
C167 H194 0.930 . S
C168 C167 1.390 . S
C168 C169 1.391 . S
C168 H195 0.930 . S
C169 C165 1.387 . S
C169 C168 1.391 . S
C170 Tb160 2.825 . S
C170 C164 1.507 . S
C170 O183 1.238 . S
C170 O184 1.247 . S
O171 Tb160 2.347 . S
O171 C175 1.259 . S
O172 Eu161 2.418 . S
O172 C175 1.265 . S
O173 Eu161 2.384 . S
O173 C182 1.255 . S
O174 Tb160 2.366 . S
O174 C182 1.265 . S
C175 O171 1.259 . S
C175 O172 1.265 . S
O176 Eu161 2.479 . S
O176 C191 1.238 . S
O177 Eu161 2.471 . S
O177 C191 1.247 . S
O178 Eu161 2.347 . S
O178 C162 1.259 . S
O179 Tb160 2.418 . S
O179 C162 1.265 . S
O180 Tb160 2.384 . S
O180 C163 1.255 . S
O181 Eu161 2.366 . S
O181 C163 1.265 . S
C182 O173 1.255 . S
C182 O174 1.265 . S
O183 Tb160 2.479 . S
O183 C170 1.238 . S
O184 Tb160 2.471 . S
O184 C170 1.247 . S
C185 C188 1.380 . S
C185 C189 1.374 . S
C185 C191 1.507 . S
C186 C187 1.387 . S
C186 C190 1.391 . S
C187 C186 1.387 . S
C187 C188 1.384 . S
C187 H196 0.930 . S
C188 C185 1.380 . S
C188 C187 1.384 . S
C188 H197 0.931 . S
C189 C185 1.374 . S
C189 C190 1.390 . S
C189 H198 0.930 . S
C190 C186 1.391 . S
C190 C189 1.390 . S
C190 H199 0.930 . S
C191 Eu161 2.825 . S
C191 O176 1.238 . S
C191 O177 1.247 . S
C191 C185 1.507 . S
H192 C165 0.930 . S
H193 C166 0.931 . S
H194 C167 0.930 . S
H195 C168 0.930 . S
H196 C187 0.930 . S
H197 C188 0.931 . S
H198 C189 0.930 . S
H199 C190 0.930 . S
Tb200 C210 2.825 . S
Tb200 O211 2.347 . S
Tb200 O214 2.366 . S
Tb200 O219 2.418 . S
Tb200 O220 2.384 . S
Tb200 O223 2.479 . S
Tb200 O224 2.471 . S
Eu201 O212 2.418 . S
Eu201 O213 2.384 . S
Eu201 O216 2.479 . S
Eu201 O217 2.471 . S
Eu201 O218 2.347 . S
Eu201 O221 2.366 . S
Eu201 C231 2.825 . S
C202 O218 1.259 . S
C202 O219 1.265 . S
C203 O220 1.255 . S
C203 O221 1.265 . S
C204 C206 1.380 . S
C204 C207 1.374 . S
C204 C210 1.507 . S
C205 C206 1.384 . S
C205 C209 1.387 . S
C205 H232 0.930 . S
C206 C204 1.380 . S
C206 C205 1.384 . S
C206 H233 0.931 . S
C207 C204 1.374 . S
C207 C208 1.390 . S
C207 H234 0.930 . S
C208 C207 1.390 . S
C208 C209 1.391 . S
C208 H235 0.930 . S
C209 C205 1.387 . S
C209 C208 1.391 . S
C210 Tb200 2.825 . S
C210 C204 1.507 . S
C210 O223 1.238 . S
C210 O224 1.247 . S
O211 Tb200 2.347 . S
O211 C215 1.259 . S
O212 Eu201 2.418 . S
O212 C215 1.265 . S
O213 Eu201 2.384 . S
O213 C222 1.255 . S
O214 Tb200 2.366 . S
O214 C222 1.265 . S
C215 O211 1.259 . S
C215 O212 1.265 . S
O216 Eu201 2.479 . S
O216 C231 1.238 . S
O217 Eu201 2.471 . S
O217 C231 1.247 . S
O218 Eu201 2.347 . S
O218 C202 1.259 . S
O219 Tb200 2.418 . S
O219 C202 1.265 . S
O220 Tb200 2.384 . S
O220 C203 1.255 . S
O221 Eu201 2.366 . S
O221 C203 1.265 . S
C222 O213 1.255 . S
C222 O214 1.265 . S
O223 Tb200 2.479 . S
O223 C210 1.238 . S
O224 Tb200 2.471 . S
O224 C210 1.247 . S
C225 C228 1.380 . S
C225 C229 1.374 . S
C225 C231 1.507 . S
C226 C227 1.387 . S
C226 C230 1.391 . S
C227 C226 1.387 . S
C227 C228 1.384 . S
C227 H236 0.930 . S
C228 C225 1.380 . S
C228 C227 1.384 . S
C228 H237 0.931 . S
C229 C225 1.374 . S
C229 C230 1.390 . S
C229 H238 0.930 . S
C230 C226 1.391 . S
C230 C229 1.390 . S
C230 H239 0.930 . S
C231 Eu201 2.825 . S
C231 O216 1.238 . S
C231 O217 1.247 . S
C231 C225 1.507 . S
H232 C205 0.930 . S
H233 C206 0.931 . S
H234 C207 0.930 . S
H235 C208 0.930 . S
H236 C227 0.930 . S
H237 C228 0.931 . S
H238 C229 0.930 . S
H239 C230 0.930 . S
H240 C248 0.929 . S
H241 C250 0.930 . S
H242 C252 0.930 . S
H243 C255 0.929 . S
H244 C258 0.930 . S
H245 C260 0.960 . S
H246 C260 0.960 . S
H247 C260 0.960 1_565 S
C248 H240 0.929 . S
C248 C249 1.377 . S
C248 C250 1.384 . S
C249 C248 1.377 . S
C249 C255 1.390 . S
C250 H241 0.930 . S
C250 C248 1.384 . S
C250 C251 1.372 . S
C251 C250 1.372 . S
C251 C252 1.400 . S
C251 C256 1.490 . S
C252 H242 0.930 . S
C252 C251 1.400 . S
C252 C255 1.386 . S
H253 C269 0.930 . S
H254 C270 0.931 . S
C255 H243 0.929 . S
C255 C249 1.390 . S
C255 C252 1.386 . S
C256 C251 1.490 . S
C256 C258 1.395 . S
C256 C259 1.403 1_565 S
H257 C263 0.930 . S
C258 H244 0.930 . S
C258 C256 1.395 . S
C258 C261 1.403 1_556 S
C259 C256 1.403 1_545 S
C259 C260 1.524 . S
C259 C263 1.400 1_556 S
C260 H245 0.960 . S
C260 H246 0.960 . S
C260 H247 0.960 1_545 S
C260 C259 1.524 . S
C261 C258 1.403 1_554 S
C261 C262 1.392 1_565 S
C261 C265 1.495 . S
C262 C261 1.392 1_545 S
C262 C263 1.385 . S
C262 C264 1.478 . S
C263 H257 0.930 . S
C263 C259 1.400 1_554 S
C263 C262 1.385 . S
C264 C262 1.478 . S
C264 C266 1.381 . S
C264 C270 1.383 . S
C265 C261 1.495 . S
C265 H271 0.959 . S
C265 H272 0.961 . S
C265 H273 0.960 1_565 S
C266 C264 1.381 . S
C266 C267 1.394 . S
C266 H274 0.930 . S
C267 C266 1.394 . S
C267 C268 1.383 . S
C267 H275 0.929 . S
C268 C267 1.383 . S
C268 C269 1.377 . S
C269 H253 0.930 . S
C269 C268 1.377 . S
C269 C270 1.379 . S
C270 H254 0.931 . S
C270 C264 1.383 . S
C270 C269 1.379 . S
H271 C265 0.959 . S
H272 C265 0.961 . S
H273 C265 0.960 1_545 S
H274 C266 0.930 . S
H275 C267 0.929 . S
H276 C284 0.929 . S
H277 C286 0.930 . S
H278 C288 0.930 . S
H279 C291 0.929 . S
H280 C294 0.930 . S
H281 C296 0.960 . S
H282 C296 0.960 . S
H283 C296 0.960 . S
C284 H276 0.929 . S
C284 C285 1.377 . S
C284 C286 1.384 . S
C285 C284 1.377 . S
C285 C291 1.390 . S
C286 H277 0.930 . S
C286 C284 1.384 . S
C286 C287 1.372 . S
C287 C286 1.372 . S
C287 C288 1.400 . S
C287 C292 1.490 . S
C288 H278 0.930 . S
C288 C287 1.400 . S
C288 C291 1.386 . S
H289 C305 0.930 . S
H290 C306 0.931 . S
C291 H279 0.929 . S
C291 C285 1.390 . S
C291 C288 1.386 . S
C292 C287 1.490 . S
C292 C294 1.395 . S
C292 C295 1.403 . S
H293 C299 0.930 . S
C294 H280 0.930 . S
C294 C292 1.395 . S
C294 C297 1.403 . S
C295 C292 1.403 . S
C295 C296 1.524 . S
C295 C299 1.400 . S
C296 H281 0.960 . S
C296 H282 0.960 . S
C296 H283 0.960 . S
C296 C295 1.524 . S
C297 C294 1.403 . S
C297 C298 1.392 . S
C297 C301 1.495 . S
C298 C297 1.392 . S
C298 C299 1.385 . S
C298 C300 1.478 . S
C299 H293 0.930 . S
C299 C295 1.400 . S
C299 C298 1.385 . S
C300 C298 1.478 . S
C300 C302 1.381 . S
C300 C306 1.383 . S
C301 C297 1.495 . S
C301 H307 0.959 . S
C301 H308 0.961 . S
C301 H309 0.960 . S
C302 C300 1.381 . S
C302 C303 1.394 . S
C302 H310 0.930 . S
C303 C302 1.394 . S
C303 C304 1.383 . S
C303 H311 0.929 . S
C304 C303 1.383 . S
C304 C305 1.377 . S
C305 H289 0.930 . S
C305 C304 1.377 . S
C305 C306 1.379 . S
C306 H290 0.931 . S
C306 C300 1.383 . S
C306 C305 1.379 . S
H307 C301 0.959 . S
H308 C301 0.961 . S
H309 C301 0.960 . S
H310 C302 0.930 . S
H311 C303 0.929 . S
H312 C320 0.929 . S
H313 C322 0.930 . S
H314 C324 0.930 . S
H315 C327 0.929 . S
H316 C330 0.930 . S
H317 C332 0.960 . S
H318 C332 0.960 . S
H319 C332 0.960 . S
C320 H312 0.929 . S
C320 C321 1.377 . S
C320 C322 1.384 . S
C321 C320 1.377 . S
C321 C327 1.390 . S
C322 H313 0.930 . S
C322 C320 1.384 . S
C322 C323 1.372 . S
C323 C322 1.372 . S
C323 C324 1.400 . S
C323 C328 1.490 . S
C324 H314 0.930 . S
C324 C323 1.400 . S
C324 C327 1.386 . S
H325 C341 0.930 . S
H326 C342 0.931 . S
C327 H315 0.929 . S
C327 C321 1.390 . S
C327 C324 1.386 . S
C328 C323 1.490 . S
C328 C330 1.395 1_554 S
C328 C331 1.403 1_655 S
H329 C335 0.932 . S
C330 H316 0.930 . S
C330 C328 1.395 1_556 S
C330 C333 1.403 . S
C331 C328 1.403 1_455 S
C331 C332 1.524 . S
C331 C335 1.400 1_554 S
C332 H317 0.960 . S
C332 H318 0.960 . S
C332 H319 0.960 . S
C332 C331 1.524 . S
C333 C330 1.403 . S
C333 C334 1.392 1_655 S
C333 C337 1.495 . S
C334 C333 1.392 1_455 S
C334 C335 1.385 . S
C334 C336 1.478 . S
C335 H329 0.932 . S
C335 C331 1.400 1_556 S
C335 C334 1.385 . S
C336 C334 1.478 . S
C336 C338 1.381 . S
C336 C342 1.383 . S
C337 C333 1.495 . S
C337 H343 0.959 . S
C337 H344 0.961 . S
C337 H345 0.960 . S
C338 C336 1.381 . S
C338 C339 1.394 . S
C338 H346 0.930 . S
C339 C338 1.394 . S
C339 C340 1.383 . S
C339 H347 0.929 . S
C340 C339 1.383 . S
C340 C341 1.377 . S
C341 H325 0.930 . S
C341 C340 1.377 . S
C341 C342 1.379 . S
C342 H326 0.931 . S
C342 C336 1.383 . S
C342 C341 1.379 . S
H343 C337 0.959 . S
H344 C337 0.961 . S
H345 C337 0.960 . S
H346 C338 0.930 . S
H347 C339 0.929 . S
H348 C356 0.929 . S
H349 C358 0.930 . S
H350 C360 0.930 . S
H351 C363 0.929 . S
H352 C366 0.930 . S
H353 C368 0.960 . S
H354 C368 0.960 . S
H355 C368 0.960 . S
C356 H348 0.929 . S
C356 C357 1.377 . S
C356 C358 1.384 . S
C357 C356 1.377 . S
C357 C363 1.390 . S
C358 H349 0.930 . S
C358 C356 1.384 . S
C358 C359 1.372 . S
C359 C358 1.372 . S
C359 C360 1.400 . S
C359 C364 1.490 . S
C360 H350 0.930 . S
C360 C359 1.400 . S
C360 C363 1.386 . S
H361 C377 0.930 . S
H362 C378 0.931 . S
C363 H351 0.929 . S
C363 C357 1.390 . S
C363 C360 1.386 . S
C364 C359 1.490 . S
C364 C366 1.395 . S
C364 C367 1.403 1_545 S
H365 C371 0.930 . S
C366 H352 0.930 . S
C366 C364 1.395 . S
C366 C369 1.403 . S
C367 C364 1.403 1_565 S
C367 C368 1.524 . S
C367 C371 1.400 . S
C368 H353 0.960 . S
C368 H354 0.960 . S
C368 H355 0.960 . S
C368 C367 1.524 . S
C369 C366 1.403 . S
C369 C370 1.392 1_545 S
C369 C373 1.495 . S
C370 C369 1.392 1_565 S
C370 C371 1.385 . S
C370 C372 1.478 . S
C371 H365 0.930 . S
C371 C367 1.400 . S
C371 C370 1.385 . S
C372 C370 1.478 . S
C372 C374 1.381 . S
C372 C378 1.383 . S
C373 C369 1.495 . S
C373 H379 0.959 . S
C373 H380 0.961 . S
C373 H381 0.960 . S
C374 C372 1.381 . S
C374 C375 1.394 . S
C374 H382 0.930 . S
C375 C374 1.394 . S
C375 C376 1.383 . S
C375 H383 0.929 . S
C376 C375 1.383 . S
C376 C377 1.377 . S
C377 H361 0.930 . S
C377 C376 1.377 . S
C377 C378 1.379 . S
C378 H362 0.931 . S
C378 C372 1.383 . S
C378 C377 1.379 . S
H379 C373 0.959 . S
H380 C373 0.961 . S
H381 C373 0.960 . S
H382 C374 0.930 . S
H383 C375 0.929 . S
H384 C392 0.929 . S
H385 C394 0.930 . S
H386 C396 0.930 . S
H387 C399 0.929 . S
H388 C402 0.930 . S
H389 C404 0.960 . S
H390 C404 0.960 . S
H391 C404 0.960 . S
C392 H384 0.929 . S
C392 C393 1.377 . S
C392 C394 1.384 . S
C393 C392 1.377 . S
C393 C399 1.390 . S
C394 H385 0.930 . S
C394 C392 1.384 . S
C394 C395 1.372 . S
C395 C394 1.372 . S
C395 C396 1.400 . S
C395 C400 1.490 . S
C396 H386 0.930 . S
C396 C395 1.400 . S
C396 C399 1.386 . S
H397 C413 0.930 . S
H398 C414 0.931 . S
C399 H387 0.929 . S
C399 C393 1.390 . S
C399 C396 1.386 . S
C400 C395 1.490 . S
C400 C402 1.395 1_556 S
C400 C403 1.403 . S
H401 C407 0.932 . S
C402 H388 0.930 . S
C402 C400 1.395 1_554 S
C402 C405 1.403 . S
C403 C400 1.403 . S
C403 C404 1.524 . S
C403 C407 1.400 1_556 S
C404 H389 0.960 . S
C404 H390 0.960 . S
C404 H391 0.960 . S
C404 C403 1.524 . S
C405 C402 1.403 . S
C405 C406 1.392 . S
C405 C409 1.495 . S
C406 C405 1.392 . S
C406 C407 1.385 . S
C406 C408 1.478 . S
C407 H401 0.932 . S
C407 C403 1.400 1_554 S
C407 C406 1.385 . S
C408 C406 1.478 . S
C408 C410 1.381 . S
C408 C414 1.383 . S
C409 C405 1.495 . S
C409 H415 0.959 . S
C409 H416 0.961 . S
C409 H417 0.960 . S
C410 C408 1.381 . S
C410 C411 1.394 . S
C410 H418 0.930 . S
C411 C410 1.394 . S
C411 C412 1.383 . S
C411 H419 0.929 . S
C412 C411 1.383 . S
C412 C413 1.377 . S
C413 H397 0.930 . S
C413 C412 1.377 . S
C413 C414 1.379 . S
C414 H398 0.931 . S
C414 C408 1.383 . S
C414 C413 1.379 . S
H415 C409 0.959 . S
H416 C409 0.961 . S
H417 C409 0.960 . S
H418 C410 0.930 . S
H419 C411 0.929 . S
H420 C428 0.929 . S
H421 C430 0.930 . S
H422 C432 0.930 . S
H423 C435 0.929 . S
H424 C438 0.930 . S
H425 C440 0.960 . S
H426 C440 0.960 . S
H427 C440 0.960 . S
C428 H420 0.929 . S
C428 C429 1.377 . S
C428 C430 1.384 . S
C429 C428 1.377 . S
C429 C435 1.390 . S
C430 H421 0.930 . S
C430 C428 1.384 . S
C430 C431 1.372 . S
C431 C430 1.372 . S
C431 C432 1.400 . S
C431 C436 1.490 . S
C432 H422 0.930 . S
C432 C431 1.400 . S
C432 C435 1.386 . S
H433 C449 0.930 . S
H434 C450 0.931 . S
C435 H423 0.929 . S
C435 C429 1.390 . S
C435 C432 1.386 . S
C436 C431 1.490 . S
C436 C438 1.395 1_655 S
C436 C439 1.403 . S
H437 C443 0.930 . S
C438 H424 0.930 . S
C438 C436 1.395 1_455 S
C438 C441 1.403 . S
C439 C436 1.403 . S
C439 C440 1.524 . S
C439 C443 1.400 . S
C440 H425 0.960 . S
C440 H426 0.960 . S
C440 H427 0.960 . S
C440 C439 1.524 . S
C441 C438 1.403 . S
C441 C442 1.392 . S
C441 C445 1.495 . S
C442 C441 1.392 . S
C442 C443 1.385 1_455 S
C442 C444 1.478 . S
C443 H437 0.930 . S
C443 C439 1.400 . S
C443 C442 1.385 1_655 S
C444 C442 1.478 . S
C444 C446 1.381 . S
C444 C450 1.383 . S
C445 C441 1.495 . S
C445 H451 0.959 . S
C445 H452 0.961 . S
C445 H453 0.960 . S
C446 C444 1.381 . S
C446 C447 1.394 . S
C446 H454 0.930 . S
C447 C446 1.394 . S
C447 C448 1.383 . S
C447 H455 0.929 . S
C448 C447 1.383 . S
C448 C449 1.377 . S
C449 H433 0.930 . S
C449 C448 1.377 . S
C449 C450 1.379 . S
C450 H434 0.931 . S
C450 C444 1.383 . S
C450 C449 1.379 . S
H451 C445 0.959 . S
H452 C445 0.961 . S
H453 C445 0.960 . S
H454 C446 0.930 . S
H455 C447 0.929 . S
H456 C464 0.929 . S
H457 C466 0.930 . S
H458 C468 0.930 . S
H459 C471 0.929 . S
H460 C474 0.930 . S
H461 C476 0.960 . S
H462 C476 0.960 . S
H463 C476 0.960 . S
C464 H456 0.929 . S
C464 C465 1.377 . S
C464 C466 1.384 . S
C465 C464 1.377 . S
C465 C471 1.390 . S
C466 H457 0.930 . S
C466 C464 1.384 . S
C466 C467 1.372 . S
C467 C466 1.372 . S
C467 C468 1.400 . S
C467 C472 1.490 . S
C468 H458 0.930 . S
C468 C467 1.400 . S
C468 C471 1.386 . S
H469 C485 0.930 . S
H470 C486 0.931 . S
C471 H459 0.929 . S
C471 C465 1.390 . S
C471 C468 1.386 . S
C472 C467 1.490 . S
C472 C474 1.395 . S
C472 C475 1.403 . S
H473 C479 0.930 . S
C474 H460 0.930 . S
C474 C472 1.395 . S
C474 C477 1.403 . S
C475 C472 1.403 . S
C475 C476 1.524 . S
C475 C479 1.400 . S
C476 H461 0.960 . S
C476 H462 0.960 . S
C476 H463 0.960 . S
C476 C475 1.524 . S
C477 C474 1.403 . S
C477 C478 1.392 . S
C477 C481 1.495 . S
C478 C477 1.392 . S
C478 C479 1.385 . S
C478 C480 1.478 . S
C479 H473 0.930 . S
C479 C475 1.400 . S
C479 C478 1.385 . S
C480 C478 1.478 . S
C480 C482 1.381 . S
C480 C486 1.383 . S
C481 C477 1.495 . S
C481 H487 0.959 . S
C481 H488 0.961 . S
C481 H489 0.960 . S
C482 C480 1.381 . S
C482 C483 1.394 . S
C482 H490 0.930 . S
C483 C482 1.394 . S
C483 C484 1.383 . S
C483 H491 0.929 . S
C484 C483 1.383 . S
C484 C485 1.377 . S
C485 H469 0.930 . S
C485 C484 1.377 . S
C485 C486 1.379 . S
C486 H470 0.931 . S
C486 C480 1.383 . S
C486 C485 1.379 . S
H487 C481 0.959 . S
H488 C481 0.961 . S
H489 C481 0.960 . S
H490 C482 0.930 . S
H491 C483 0.929 . S
H492 C500 0.929 . S
H493 C502 0.930 . S
H494 C504 0.930 . S
H495 C507 0.929 . S
H496 C510 0.930 . S
H497 C512 0.960 . S
H498 C512 0.960 . S
H499 C512 0.960 . S
C500 H492 0.929 . S
C500 C501 1.377 . S
C500 C502 1.384 . S
C501 C500 1.377 . S
C501 C507 1.390 . S
C502 H493 0.930 . S
C502 C500 1.384 . S
C502 C503 1.372 . S
C503 C502 1.372 . S
C503 C504 1.400 . S
C503 C508 1.490 . S
C504 H494 0.930 . S
C504 C503 1.400 . S
C504 C507 1.386 . S
H505 C521 0.930 . S
H506 C522 0.931 . S
C507 H495 0.929 . S
C507 C501 1.390 . S
C507 C504 1.386 . S
C508 C503 1.490 . S
C508 C510 1.395 . S
C508 C511 1.403 . S
H509 C515 0.930 . S
C510 H496 0.930 . S
C510 C508 1.395 . S
C510 C513 1.403 . S
C511 C508 1.403 . S
C511 C512 1.524 . S
C511 C515 1.400 . S
C512 H497 0.960 . S
C512 H498 0.960 . S
C512 H499 0.960 . S
C512 C511 1.524 . S
C513 C510 1.403 . S
C513 C514 1.392 . S
C513 C517 1.495 . S
C514 C513 1.392 . S
C514 C515 1.385 . S
C514 C516 1.478 . S
C515 H509 0.930 . S
C515 C511 1.400 . S
C515 C514 1.385 . S
C516 C514 1.478 . S
C516 C518 1.381 . S
C516 C522 1.383 . S
C517 C513 1.495 . S
C517 H523 0.959 . S
C517 H524 0.961 . S
C517 H525 0.960 . S
C518 C516 1.381 . S
C518 C519 1.394 . S
C518 H526 0.930 . S
C519 C518 1.394 . S
C519 C520 1.383 . S
C519 H527 0.929 . S
C520 C519 1.383 . S
C520 C521 1.377 . S
C521 H505 0.930 . S
C521 C520 1.377 . S
C521 C522 1.379 . S
C522 H506 0.931 . S
C522 C516 1.383 . S
C522 C521 1.379 . S
H523 C517 0.959 . S
H524 C517 0.961 . S
H525 C517 0.960 . S
H526 C518 0.930 . S
H527 C519 0.929 . S
H528 C536 0.929 . S
H529 C538 0.930 . S
H530 C540 0.930 . S
H531 C543 0.929 . S
H532 C546 0.930 . S
H533 C548 0.960 . S
H534 C548 0.960 . S
H535 C548 0.960 . S
C536 H528 0.929 . S
C536 C537 1.377 . S
C536 C538 1.384 . S
C537 C536 1.377 . S
C537 C543 1.390 . S
C538 H529 0.930 . S
C538 C536 1.384 . S
C538 C539 1.372 . S
C539 C538 1.372 . S
C539 C540 1.400 . S
C539 C544 1.490 . S
C540 H530 0.930 . S
C540 C539 1.400 . S
C540 C543 1.386 . S
H541 C557 0.930 . S
H542 C558 0.931 . S
C543 H531 0.929 . S
C543 C537 1.390 . S
C543 C540 1.386 . S
C544 C539 1.490 . S
C544 C546 1.395 . S
C544 C547 1.403 . S
H545 C551 0.930 . S
C546 H532 0.930 . S
C546 C544 1.395 . S
C546 C549 1.403 . S
C547 C544 1.403 . S
C547 C548 1.524 . S
C547 C551 1.400 . S
C548 H533 0.960 . S
C548 H534 0.960 . S
C548 H535 0.960 . S
C548 C547 1.524 . S
C549 C546 1.403 . S
C549 C550 1.392 . S
C549 C553 1.495 . S
C550 C549 1.392 . S
C550 C551 1.385 . S
C550 C552 1.478 . S
C551 H545 0.930 . S
C551 C547 1.400 . S
C551 C550 1.385 . S
C552 C550 1.478 . S
C552 C554 1.381 . S
C552 C558 1.383 . S
C553 C549 1.495 . S
C553 H559 0.959 . S
C553 H560 0.961 . S
C553 H561 0.960 . S
C554 C552 1.381 . S
C554 C555 1.394 . S
C554 H562 0.930 . S
C555 C554 1.394 . S
C555 C556 1.383 . S
C555 H563 0.929 . S
C556 C555 1.383 . S
C556 C557 1.377 . S
C557 H541 0.930 . S
C557 C556 1.377 . S
C557 C558 1.379 . S
C558 H542 0.931 . S
C558 C552 1.383 . S
C558 C557 1.379 . S
H559 C553 0.959 . S
H560 C553 0.961 . S
H561 C553 0.960 . S
H562 C554 0.930 . S
H563 C555 0.929 . S
H564 C572 0.929 . S
H565 C574 0.930 . S
H566 C576 0.930 . S
H567 C579 0.929 . S
H568 C582 0.930 . S
H569 C584 0.960 . S
H570 C584 0.960 . S
H571 C584 0.960 . S
C572 H564 0.929 . S
C572 C573 1.377 . S
C572 C574 1.384 . S
C573 C572 1.377 . S
C573 C579 1.390 . S
C574 H565 0.930 . S
C574 C572 1.384 . S
C574 C575 1.372 . S
C575 C574 1.372 . S
C575 C576 1.400 . S
C575 C580 1.490 . S
C576 H566 0.930 . S
C576 C575 1.400 . S
C576 C579 1.386 . S
H577 C593 0.930 . S
H578 C594 0.931 . S
C579 H567 0.929 . S
C579 C573 1.390 . S
C579 C576 1.386 . S
C580 C575 1.490 . S
C580 C582 1.395 . S
C580 C583 1.403 . S
H581 C587 0.930 . S
C582 H568 0.930 . S
C582 C580 1.395 . S
C582 C585 1.403 . S
C583 C580 1.403 . S
C583 C584 1.524 . S
C583 C587 1.400 . S
C584 H569 0.960 . S
C584 H570 0.960 . S
C584 H571 0.960 . S
C584 C583 1.524 . S
C585 C582 1.403 . S
C585 C586 1.392 . S
C585 C589 1.495 . S
C586 C585 1.392 . S
C586 C587 1.385 . S
C586 C588 1.478 . S
C587 H581 0.930 . S
C587 C583 1.400 . S
C587 C586 1.385 . S
C588 C586 1.478 . S
C588 C590 1.381 . S
C588 C594 1.383 . S
C589 C585 1.495 . S
C589 H595 0.959 . S
C589 H596 0.961 . S
C589 H597 0.960 . S
C590 C588 1.381 . S
C590 C591 1.394 . S
C590 H598 0.930 . S
C591 C590 1.394 . S
C591 C592 1.383 . S
C591 H599 0.929 . S
C592 C591 1.383 . S
C592 C593 1.377 . S
C593 H577 0.930 . S
C593 C592 1.377 . S
C593 C594 1.379 . S
C594 H578 0.931 . S
C594 C588 1.383 . S
C594 C593 1.379 . S
H595 C589 0.959 . S
H596 C589 0.961 . S
H597 C589 0.960 . S
H598 C590 0.930 . S
H599 C591 0.929 . S
H600 C608 0.929 . S
H601 C610 0.930 . S
H602 C612 0.930 . S
H603 C615 0.929 . S
H604 C618 0.930 . S
H605 C620 0.960 . S
H606 C620 0.960 . S
H607 C620 0.960 . S
C608 H600 0.929 . S
C608 C609 1.377 . S
C608 C610 1.384 . S
C609 C608 1.377 . S
C609 C615 1.390 . S
C610 H601 0.930 . S
C610 C608 1.384 . S
C610 C611 1.372 . S
C611 C610 1.372 . S
C611 C612 1.400 . S
C611 C616 1.490 . S
C612 H602 0.930 . S
C612 C611 1.400 . S
C612 C615 1.386 . S
H613 C629 0.930 . S
H614 C630 0.931 . S
C615 H603 0.929 . S
C615 C609 1.390 . S
C615 C612 1.386 . S
C616 C611 1.490 . S
C616 C618 1.395 . S
C616 C619 1.403 . S
H617 C623 0.930 . S
C618 H604 0.930 . S
C618 C616 1.395 . S
C618 C621 1.403 . S
C619 C616 1.403 . S
C619 C620 1.524 . S
C619 C623 1.400 . S
C620 H605 0.960 . S
C620 H606 0.960 . S
C620 H607 0.960 . S
C620 C619 1.524 . S
C621 C618 1.403 . S
C621 C622 1.392 . S
C621 C625 1.495 . S
C622 C621 1.392 . S
C622 C623 1.385 . S
C622 C624 1.478 . S
C623 H617 0.930 . S
C623 C619 1.400 . S
C623 C622 1.385 . S
C624 C622 1.478 . S
C624 C626 1.381 . S
C624 C630 1.383 . S
C625 C621 1.495 . S
C625 H631 0.959 . S
C625 H632 0.961 . S
C625 H633 0.960 . S
C626 C624 1.381 . S
C626 C627 1.394 . S
C626 H634 0.930 . S
C627 C626 1.394 . S
C627 C628 1.383 . S
C627 H635 0.929 . S
C628 C627 1.383 . S
C628 C629 1.377 . S
C629 H613 0.930 . S
C629 C628 1.377 . S
C629 C630 1.379 . S
C630 H614 0.931 . S
C630 C624 1.383 . S
C630 C629 1.379 . S
H631 C625 0.959 . S
H632 C625 0.961 . S
H633 C625 0.960 . S
H634 C626 0.930 . S
H635 C627 0.929 . S
H636 C644 0.929 . S
H637 C646 0.930 . S
H638 C648 0.930 . S
H639 C651 0.929 . S
H640 C654 0.930 . S
H641 C656 0.960 . S
H642 C656 0.960 . S
H643 C656 0.960 . S
C644 H636 0.929 . S
C644 C645 1.377 . S
C644 C646 1.384 . S
C645 C644 1.377 . S
C645 C651 1.390 . S
C646 H637 0.930 . S
C646 C644 1.384 . S
C646 C647 1.372 . S
C647 C646 1.372 . S
C647 C648 1.400 . S
C647 C652 1.490 . S
C648 H638 0.930 . S
C648 C647 1.400 . S
C648 C651 1.386 . S
H649 C665 0.930 . S
H650 C666 0.931 . S
C651 H639 0.929 . S
C651 C645 1.390 . S
C651 C648 1.386 . S
C652 C647 1.490 . S
C652 C654 1.395 . S
C652 C655 1.403 . S
H653 C659 0.930 . S
C654 H640 0.930 . S
C654 C652 1.395 . S
C654 C657 1.403 . S
C655 C652 1.403 . S
C655 C656 1.524 . S
C655 C659 1.400 . S
C656 H641 0.960 . S
C656 H642 0.960 . S
C656 H643 0.960 . S
C656 C655 1.524 . S
C657 C654 1.403 . S
C657 C658 1.392 . S
C657 C661 1.495 . S
C658 C657 1.392 . S
C658 C659 1.385 . S
C658 C660 1.478 . S
C659 H653 0.930 . S
C659 C655 1.400 . S
C659 C658 1.385 . S
C660 C658 1.478 . S
C660 C662 1.381 . S
C660 C666 1.383 . S
C661 C657 1.495 . S
C661 H667 0.959 . S
C661 H668 0.961 . S
C661 H669 0.960 . S
C662 C660 1.381 . S
C662 C663 1.394 . S
C662 H670 0.930 . S
C663 C662 1.394 . S
C663 C664 1.383 . S
C663 H671 0.929 . S
C664 C663 1.383 . S
C664 C665 1.377 . S
C665 H649 0.930 . S
C665 C664 1.377 . S
C665 C666 1.379 . S
C666 H650 0.931 . S
C666 C660 1.383 . S
C666 C665 1.379 . S
H667 C661 0.959 . S
H668 C661 0.961 . S
H669 C661 0.960 . S
H670 C662 0.930 . S
H671 C663 0.929 . S
H672 C680 0.929 . S
H673 C682 0.930 . S
H674 C684 0.930 . S
H675 C687 0.929 . S
H676 C690 0.930 . S
H677 C692 0.960 1_655 S
H678 C692 0.960 . S
H679 C692 0.960 . S
C680 H672 0.929 . S
C680 C681 1.377 . S
C680 C682 1.384 . S
C681 C680 1.377 . S
C681 C687 1.390 . S
C682 H673 0.930 . S
C682 C680 1.384 . S
C682 C683 1.372 . S
C683 C682 1.372 . S
C683 C684 1.400 . S
C683 C688 1.490 . S
C684 H674 0.930 . S
C684 C683 1.400 . S
C684 C687 1.386 . S
H685 C701 0.930 . S
H686 C702 0.931 . S
C687 H675 0.929 . S
C687 C681 1.390 . S
C687 C684 1.386 . S
C688 C683 1.490 . S
C688 C690 1.395 . S
C688 C691 1.403 . S
H689 C695 0.930 1_655 S
C690 H676 0.930 . S
C690 C688 1.395 . S
C690 C693 1.403 . S
C691 C688 1.403 . S
C691 C692 1.524 . S
C691 C695 1.400 . S
C692 H677 0.960 1_455 S
C692 H678 0.960 . S
C692 H679 0.960 . S
C692 C691 1.524 . S
C693 C690 1.403 . S
C693 C694 1.392 . S
C693 C697 1.495 . S
C694 C693 1.392 . S
C694 C695 1.385 . S
C694 C696 1.478 . S
C695 H689 0.930 1_455 S
C695 C691 1.400 . S
C695 C694 1.385 . S
C696 C694 1.478 . S
C696 C698 1.381 . S
C696 C702 1.383 . S
C697 C693 1.495 . S
C697 H703 0.959 . S
C697 H704 0.961 . S
C697 H705 0.960 . S
C698 C696 1.381 . S
C698 C699 1.394 1_455 S
C698 H706 0.930 . S
C699 C698 1.394 1_655 S
C699 C700 1.383 . S
C699 H707 0.929 . S
C700 C699 1.383 . S
C700 C701 1.377 . S
C701 H685 0.930 . S
C701 C700 1.377 . S
C701 C702 1.379 1_655 S
C702 H686 0.931 . S
C702 C696 1.383 . S
C702 C701 1.379 1_455 S
H703 C697 0.959 . S
H704 C697 0.961 . S
H705 C697 0.960 . S
H706 C698 0.930 . S
H707 C699 0.929 . S
H708 C716 0.929 . S
H709 C718 0.930 . S
H710 C720 0.930 . S
H711 C723 0.929 . S
H712 C726 0.930 . S
H713 C728 0.960 1_545 S
H714 C728 0.960 . S
H715 C728 0.960 . S
C716 H708 0.929 . S
C716 C717 1.377 . S
C716 C718 1.384 1_655 S
C717 C716 1.377 . S
C717 C723 1.390 . S
C718 H709 0.930 . S
C718 C716 1.384 1_455 S
C718 C719 1.372 . S
C719 C718 1.372 . S
C719 C720 1.400 . S
C719 C724 1.490 . S
C720 H710 0.930 . S
C720 C719 1.400 . S
C720 C723 1.386 1_455 S
H721 C737 0.930 . S
H722 C738 0.931 . S
C723 H711 0.929 . S
C723 C717 1.390 . S
C723 C720 1.386 1_655 S
C724 C719 1.490 . S
C724 C726 1.395 . S
C724 C727 1.403 . S
H725 C731 0.930 1_545 S
C726 H712 0.930 . S
C726 C724 1.395 . S
C726 C729 1.403 . S
C727 C724 1.403 . S
C727 C728 1.524 . S
C727 C731 1.400 . S
C728 H713 0.960 1_565 S
C728 H714 0.960 . S
C728 H715 0.960 . S
C728 C727 1.524 . S
C729 C726 1.403 . S
C729 C730 1.392 . S
C729 C733 1.495 . S
C730 C729 1.392 . S
C730 C731 1.385 . S
C730 C732 1.478 . S
C731 H725 0.930 1_565 S
C731 C727 1.400 . S
C731 C730 1.385 . S
C732 C730 1.478 . S
C732 C734 1.381 . S
C732 C738 1.383 1_565 S
C733 C729 1.495 . S
C733 H739 0.959 . S
C733 H740 0.961 . S
C733 H741 0.960 . S
C734 C732 1.381 . S
C734 C735 1.394 1_565 S
C734 H742 0.930 . S
C735 C734 1.394 1_545 S
C735 C736 1.383 . S
C735 H743 0.923 1_545 S
C736 C735 1.383 . S
C736 C737 1.377 . S
C737 H721 0.930 . S
C737 C736 1.377 . S
C737 C738 1.379 . S
C738 H722 0.931 . S
C738 C732 1.383 1_545 S
C738 C737 1.379 . S
H739 C733 0.959 . S
H740 C733 0.961 . S
H741 C733 0.960 . S
H742 C734 0.930 . S
H743 C735 0.923 1_565 S
H744 C752 0.929 . S
H745 C754 0.930 . S
H746 C756 0.930 . S
H747 C759 0.929 . S
H748 C762 0.930 . S
H749 C764 0.960 . S
H750 C764 0.960 . S
H751 C764 0.960 . S
C752 H744 0.929 . S
C752 C753 1.377 . S
C752 C754 1.384 1_545 S
C753 C752 1.377 . S
C753 C759 1.390 . S
C754 H745 0.930 . S
C754 C752 1.384 1_565 S
C754 C755 1.372 . S
C755 C754 1.372 . S
C755 C756 1.400 . S
C755 C760 1.490 . S
C756 H746 0.930 . S
C756 C755 1.400 . S
C756 C759 1.386 1_565 S
H757 C773 0.930 . S
H758 C774 0.931 . S
C759 H747 0.929 . S
C759 C753 1.390 . S
C759 C756 1.386 1_545 S
C760 C755 1.490 . S
C760 C762 1.395 . S
C760 C763 1.403 . S
H761 C767 0.930 . S
C762 H748 0.930 . S
C762 C760 1.395 . S
C762 C765 1.403 . S
C763 C760 1.403 . S
C763 C764 1.524 . S
C763 C767 1.400 . S
C764 H749 0.960 . S
C764 H750 0.960 . S
C764 H751 0.960 . S
C764 C763 1.524 . S
C765 C762 1.403 . S
C765 C766 1.392 . S
C765 C769 1.495 . S
C766 C765 1.392 . S
C766 C767 1.385 . S
C766 C768 1.478 . S
C767 H761 0.930 . S
C767 C763 1.400 . S
C767 C766 1.385 . S
C768 C766 1.478 . S
C768 C770 1.381 . S
C768 C774 1.383 . S
C769 C765 1.495 . S
C769 H775 0.959 . S
C769 H776 0.961 . S
C769 H777 0.960 . S
C770 C768 1.381 . S
C770 C771 1.394 . S
C770 H778 0.930 . S
C771 C770 1.394 . S
C771 C772 1.383 . S
C771 H779 0.929 . S
C772 C771 1.383 . S
C772 C773 1.377 . S
C773 H757 0.930 . S
C773 C772 1.377 . S
C773 C774 1.379 . S
C774 H758 0.931 . S
C774 C768 1.383 . S
C774 C773 1.379 . S
H775 C769 0.959 . S
H776 C769 0.961 . S
H777 C769 0.960 . S
H778 C770 0.930 . S
H779 C771 0.929 . S
H780 C788 0.929 . S
H781 C790 0.930 . S
H782 C792 0.930 . S
H783 C795 0.929 . S
H784 C798 0.930 . S
H785 C800 0.960 . S
H786 C800 0.960 . S
H787 C800 0.960 . S
C788 H780 0.929 . S
C788 C789 1.377 . S
C788 C790 1.384 . S
C789 C788 1.377 . S
C789 C795 1.390 . S
C790 H781 0.930 . S
C790 C788 1.384 . S
C790 C791 1.372 . S
C791 C790 1.372 . S
C791 C792 1.400 . S
C791 C796 1.490 . S
C792 H782 0.930 . S
C792 C791 1.400 . S
C792 C795 1.386 . S
H793 C809 0.930 . S
H794 C810 0.931 . S
C795 H783 0.929 . S
C795 C789 1.390 . S
C795 C792 1.386 . S
C796 C791 1.490 . S
C796 C798 1.395 . S
C796 C799 1.403 . S
H797 C803 0.930 . S
C798 H784 0.930 . S
C798 C796 1.395 . S
C798 C801 1.403 . S
C799 C796 1.403 . S
C799 C800 1.524 . S
C799 C803 1.400 . S
C800 H785 0.960 . S
C800 H786 0.960 . S
C800 H787 0.960 . S
C800 C799 1.524 . S
C801 C798 1.403 . S
C801 C802 1.392 . S
C801 C805 1.495 1_545 S
C802 C801 1.392 . S
C802 C803 1.385 . S
C802 C804 1.478 . S
C803 H797 0.930 . S
C803 C799 1.400 . S
C803 C802 1.385 . S
C804 C802 1.478 . S
C804 C806 1.381 1_545 S
C804 C810 1.383 . S
C805 C801 1.495 1_565 S
C805 H811 0.959 . S
C805 H812 0.961 . S
C805 H813 0.960 . S
C806 C804 1.381 1_565 S
C806 C807 1.394 . S
C806 H814 0.930 . S
C807 C806 1.394 . S
C807 C808 1.383 . S
C807 H815 0.929 . S
C808 C807 1.383 . S
C808 C809 1.377 . S
C809 H793 0.930 . S
C809 C808 1.377 . S
C809 C810 1.379 1_565 S
C810 H794 0.931 . S
C810 C804 1.383 . S
C810 C809 1.379 1_545 S
H811 C805 0.959 . S
H812 C805 0.961 . S
H813 C805 0.960 . S
H814 C806 0.930 . S
H815 C807 0.929 . S
H816 C824 0.929 . S
H817 C826 0.930 . S
H818 C828 0.930 . S
H819 C831 0.929 . S
H820 C834 0.930 . S
H821 C836 0.960 . S
H822 C836 0.960 . S
H823 C836 0.960 . S
C824 H816 0.929 . S
C824 C825 1.377 . S
C824 C826 1.384 1_455 S
C825 C824 1.377 . S
C825 C831 1.390 . S
C826 H817 0.930 . S
C826 C824 1.384 1_655 S
C826 C827 1.372 . S
C827 C826 1.372 . S
C827 C828 1.400 . S
C827 C832 1.490 . S
C828 H818 0.930 . S
C828 C827 1.400 . S
C828 C831 1.386 1_655 S
H829 C845 0.930 . S
H830 C846 0.931 . S
C831 H819 0.929 . S
C831 C825 1.390 . S
C831 C828 1.386 1_455 S
C832 C827 1.490 . S
C832 C834 1.395 . S
C832 C835 1.403 . S
H833 C839 0.930 . S
C834 H820 0.930 . S
C834 C832 1.395 . S
C834 C837 1.403 . S
C835 C832 1.403 . S
C835 C836 1.524 . S
C835 C839 1.400 . S
C836 H821 0.960 . S
C836 H822 0.960 . S
C836 H823 0.960 . S
C836 C835 1.524 . S
C837 C834 1.403 . S
C837 C838 1.392 . S
C837 C841 1.495 . S
C838 C837 1.392 . S
C838 C839 1.385 . S
C838 C840 1.478 . S
C839 H833 0.930 . S
C839 C835 1.400 . S
C839 C838 1.385 . S
C840 C838 1.478 . S
C840 C842 1.381 . S
C840 C846 1.383 . S
C841 C837 1.495 . S
C841 H847 0.959 . S
C841 H848 0.961 . S
C841 H849 0.960 . S
C842 C840 1.381 . S
C842 C843 1.394 . S
C842 H850 0.930 . S
C843 C842 1.394 . S
C843 C844 1.383 . S
C843 H851 0.929 . S
C844 C843 1.383 . S
C844 C845 1.377 . S
C845 H829 0.930 . S
C845 C844 1.377 . S
C845 C846 1.379 . S
C846 H830 0.931 . S
C846 C840 1.383 . S
C846 C845 1.379 . S
H847 C841 0.959 . S
H848 C841 0.961 . S
H849 C841 0.960 . S
H850 C842 0.930 . S
H851 C843 0.929 . S
H852 C860 0.929 . S
H853 C862 0.930 . S
H854 C864 0.930 . S
H855 C867 0.929 . S
H856 C870 0.930 . S
H857 C872 0.968 1_655 S
H858 C872 0.977 . S
H859 C872 0.950 1_655 S
C860 H852 0.929 . S
C860 C861 1.377 . S
C860 C862 1.384 . S
C861 C860 1.377 . S
C861 C867 1.390 . S
C862 H853 0.930 . S
C862 C860 1.384 . S
C862 C863 1.372 1_455 S
C863 C862 1.372 1_655 S
C863 C864 1.400 . S
C863 C868 1.490 . S
C864 H854 0.930 . S
C864 C863 1.400 . S
C864 C867 1.386 1_655 S
H865 C881 0.930 . S
H866 C882 0.931 . S
C867 H855 0.929 . S
C867 C861 1.390 . S
C867 C864 1.386 1_455 S
C868 C863 1.490 . S
C868 C870 1.395 . S
C868 C871 1.403 . S
H869 C875 0.930 . S
C870 H856 0.930 . S
C870 C868 1.395 . S
C870 C873 1.403 . S
C871 C868 1.403 . S
C871 C872 1.510 1_655 S
C871 C875 1.400 . S
C872 H857 0.968 1_455 S
C872 H858 0.977 . S
C872 H859 0.950 1_455 S
C872 C871 1.510 1_455 S
C873 C870 1.403 . S
C873 C874 1.392 . S
C873 C877 1.495 . S
C874 C873 1.392 . S
C874 C875 1.385 . S
C874 C876 1.478 . S
C875 H869 0.930 . S
C875 C871 1.400 . S
C875 C874 1.385 . S
C876 C874 1.478 . S
C876 C878 1.381 . S
C876 C882 1.383 . S
C877 C873 1.495 . S
C877 H883 0.959 . S
C877 H884 0.961 . S
C877 H885 0.960 . S
C878 C876 1.381 . S
C878 C879 1.394 1_545 S
C878 H886 0.930 . S
C879 C878 1.394 1_565 S
C879 C880 1.383 . S
C879 H887 0.929 . S
C880 C879 1.383 . S
C880 C881 1.377 . S
C881 H865 0.930 . S
C881 C880 1.377 . S
C881 C882 1.379 1_565 S
C882 H866 0.931 . S
C882 C876 1.383 . S
C882 C881 1.379 1_545 S
H883 C877 0.959 . S
H884 C877 0.961 . S
H885 C877 0.960 . S
H886 C878 0.930 . S
H887 C879 0.929 . S
C249 C175 2.397 . S
C268 C15 2.398 . S
C285 C202 2.441 . S
C304 C42 2.421 . S
C321 C95 2.403 . S
C340 C135 2.373 . S
C357 C2 2.442 . S
C376 C162 2.418 . S
C393 C215 2.402 . S
C412 C55 2.374 . S
C429 C82 2.439 . S
C448 C122 2.434 . S
C465 C26 1.909 . S
C484 C83 1.854 . S
C501 C66 1.909 . S
C520 C3 1.888 . S
C537 C106 1.910 . S
C556 C43 1.852 . S
C573 C146 1.912 . S
C592 C163 1.859 . S
C609 C186 1.908 . S
C628 C203 1.872 . S
C645 C123 1.875 . S
C664 C226 1.913 . S
C681 C9 1.008 . S
C700 C102 1.062 . S
C717 C49 1.001 . S
C736 C22 1.057 . S
C753 C89 1.013 . S
C772 C62 1.041 . S
C789 C129 1.003 . S
C808 C182 1.014 . S
C825 C169 0.997 . S
C844 C222 1.048 . S
C861 C142 1.034 . S
C880 C209 0.981 . S
