# Generated by pormake.
# Topology fny, (5)-cn, num edge types: 1
# Building blocks:
#     Node 0, Type 0, BuildingBlock: XOMCOT_clean_sbu_1, # of connection points: 5
#     Node 1, Type 0, BuildingBlock: XOMCOT_clean_sbu_1, # of connection points: 5
#     Node 2, Type 0, BuildingBlock: XOMCOT_clean_sbu_1, # of connection points: 5
#     Node 3, Type 0, BuildingBlock: XOMCOT_clean_sbu_1, # of connection points: 5
#     Node 4, Type 0, BuildingBlock: XOMCOT_clean_sbu_1, # of connection points: 5
#     Node 5, Type 0, BuildingBlock: XOMCOT_clean_sbu_1, # of connection points: 5
#     Node 6, Type 0, BuildingBlock: XOMCOT_clean_sbu_1, # of connection points: 5
#     Node 7, Type 0, BuildingBlock: XOMCOT_clean_sbu_1, # of connection points: 5
#     Node 8, Type 0, BuildingBlock: XOMCOT_clean_sbu_1, # of connection points: 5
#     Node 9, Type 0, BuildingBlock: XOMCOT_clean_sbu_1, # of connection points: 5
#     Node 10, Type 0, BuildingBlock: XOMCOT_clean_sbu_1, # of connection points: 5
#     Node 11, Type 0, BuildingBlock: XOMCOT_clean_sbu_1, # of connection points: 5
#     Edge 12, Type (0, 0), BuildingBlock: MIFKUJ_clean_linker_0, # of connection points: 2
#     Edge 13, Type (0, 0), BuildingBlock: MIFKUJ_clean_linker_0, # of connection points: 2
#     Edge 14, Type (0, 0), BuildingBlock: MIFKUJ_clean_linker_0, # of connection points: 2
#     Edge 15, Type (0, 0), BuildingBlock: MIFKUJ_clean_linker_0, # of connection points: 2
#     Edge 16, Type (0, 0), BuildingBlock: MIFKUJ_clean_linker_0, # of connection points: 2
#     Edge 17, Type (0, 0), BuildingBlock: MIFKUJ_clean_linker_0, # of connection points: 2
#     Edge 18, Type (0, 0), BuildingBlock: MIFKUJ_clean_linker_0, # of connection points: 2
#     Edge 19, Type (0, 0), BuildingBlock: MIFKUJ_clean_linker_0, # of connection points: 2
#     Edge 20, Type (0, 0), BuildingBlock: MIFKUJ_clean_linker_0, # of connection points: 2
#     Edge 21, Type (0, 0), BuildingBlock: MIFKUJ_clean_linker_0, # of connection points: 2
#     Edge 22, Type (0, 0), BuildingBlock: MIFKUJ_clean_linker_0, # of connection points: 2
#     Edge 23, Type (0, 0), BuildingBlock: MIFKUJ_clean_linker_0, # of connection points: 2
#     Edge 24, Type (0, 0), BuildingBlock: MIFKUJ_clean_linker_0, # of connection points: 2
#     Edge 25, Type (0, 0), BuildingBlock: MIFKUJ_clean_linker_0, # of connection points: 2
#     Edge 26, Type (0, 0), BuildingBlock: MIFKUJ_clean_linker_0, # of connection points: 2
#     Edge 27, Type (0, 0), BuildingBlock: MIFKUJ_clean_linker_0, # of connection points: 2
#     Edge 28, Type (0, 0), BuildingBlock: MIFKUJ_clean_linker_0, # of connection points: 2
#     Edge 29, Type (0, 0), BuildingBlock: MIFKUJ_clean_linker_0, # of connection points: 2
#     Edge 30, Type (0, 0), BuildingBlock: MIFKUJ_clean_linker_0, # of connection points: 2
#     Edge 31, Type (0, 0), BuildingBlock: MIFKUJ_clean_linker_0, # of connection points: 2
#     Edge 32, Type (0, 0), BuildingBlock: MIFKUJ_clean_linker_0, # of connection points: 2
#     Edge 33, Type (0, 0), BuildingBlock: MIFKUJ_clean_linker_0, # of connection points: 2
#     Edge 34, Type (0, 0), BuildingBlock: MIFKUJ_clean_linker_0, # of connection points: 2
#     Edge 35, Type (0, 0), BuildingBlock: MIFKUJ_clean_linker_0, # of connection points: 2
#     Edge 36, Type (0, 0), BuildingBlock: MIFKUJ_clean_linker_0, # of connection points: 2
#     Edge 37, Type (0, 0), BuildingBlock: MIFKUJ_clean_linker_0, # of connection points: 2
#     Edge 38, Type (0, 0), BuildingBlock: MIFKUJ_clean_linker_0, # of connection points: 2
#     Edge 39, Type (0, 0), BuildingBlock: MIFKUJ_clean_linker_0, # of connection points: 2
#     Edge 40, Type (0, 0), BuildingBlock: MIFKUJ_clean_linker_0, # of connection points: 2
#     Edge 41, Type (0, 0), BuildingBlock: MIFKUJ_clean_linker_0, # of connection points: 2
# Relax obj value: 0.243
# Max RMSD: 0.209
# Mean RMSD: 0.209
data_MOF--net-fny--node1-XOMCOT_clean_sbu_1--edge1-MIFKUJ_clean_linker_0
_symmetry_space_group_name_H-M    P1
_symmetry_Int_Tables_number       1
_symmetry_cell_setting            triclinic
loop_
_symmetry_equiv_pos_as_xyz
'x, y, z'
_cell_length_a     78.152214
_cell_length_b     78.246922
_cell_length_c     30.824434
_cell_angle_alpha  90.12504
_cell_angle_beta   89.920099
_cell_angle_gamma 120.02544
loop_
_atom_site_label
_atom_site_type_symbol
_atom_site_fract_x
_atom_site_fract_y
_atom_site_fract_z
_atom_type_partial_charge
C0 C 0.31852 0.49701 0.25065 0.0
C1 C 0.3036 0.49095 0.22066 0.0
N2 N 0.30771 0.50633 0.19462 0.0
N3 N 0.33208 0.51609 0.24338 0.0
C4 C 0.325 0.52138 0.20917 0.0
H5 H 0.31908 0.48815 0.27682 0.0
Co6 Co 0.35398 0.53176 0.27768 0.0
C7 C 0.38245 0.56652 0.22085 0.0
O8 O 0.39697 0.57196 0.24863 0.0
N9 N 0.37565 0.54733 0.31374 0.0
C10 C 0.39698 0.57116 0.35744 0.0
C11 C 0.38048 0.56492 0.33191 0.0
C12 C 0.38923 0.5431 0.32953 0.0
N13 N 0.40247 0.55736 0.3557 0.0
O14 O 0.33983 0.54419 0.30284 0.0
H15 H 0.37267 0.57288 0.32662 0.0
H16 H 0.38914 0.52951 0.32357 0.0
O17 O 0.36546 0.55144 0.22914 0.0
C18 C 0.32921 0.53359 0.33454 0.0
O19 O 0.32944 0.51728 0.34329 0.0
N20 N 0.36633 0.51761 0.25732 0.0
C21 C 0.38539 0.49547 0.24797 0.0
C22 C 0.39032 0.51183 0.22116 0.0
C23 C 0.38049 0.52263 0.22605 0.0
C24 C 0.36065 0.50113 0.28185 0.0
C25 C 0.36995 0.48994 0.27784 0.0
H26 H 0.38479 0.5352 0.20542 0.0
H27 H 0.34982 0.49751 0.30723 0.0
H28 H 0.33192 0.53619 0.19621 0.0
H29 H 0.29069 0.47637 0.21836 0.0
H30 H 0.40423 0.58472 0.376 0.0
H31 H 0.40185 0.51642 0.19697 0.0
H32 H 0.36574 0.47766 0.29972 0.0
C33 C 0.84239 0.32071 0.74295 0.0
C34 C 0.83842 0.30798 0.7086 0.0
N35 N 0.82417 0.30808 0.68421 0.0
N36 N 0.83069 0.32876 0.74005 0.0
C37 C 0.81972 0.32073 0.70413 0.0
H38 H 0.85292 0.32374 0.76873 0.0
Co39 Co 0.82891 0.34575 0.7794 0.0
C40 C 0.83079 0.37656 0.7192 0.0
O41 O 0.84478 0.38987 0.74411 0.0
N42 N 0.82609 0.36168 0.8203 0.0
C43 C 0.8108 0.37409 0.85895 0.0
C44 C 0.81681 0.37232 0.81813 0.0
C45 C 0.82507 0.35686 0.86256 0.0
N46 N 0.81573 0.36404 0.8868 0.0
O47 O 0.80116 0.32632 0.79141 0.0
H48 H 0.81204 0.37622 0.78886 0.0
H49 H 0.82938 0.34654 0.8743 0.0
O50 O 0.82229 0.35828 0.73026 0.0
C51 C 0.79941 0.31245 0.81644 0.0
O52 O 0.81515 0.31092 0.82367 0.0
N53 N 0.85673 0.36389 0.77265 0.0
C54 C 0.8984 0.38587 0.76916 0.0
C55 C 0.887 0.37935 0.73098 0.0
C56 C 0.86626 0.36838 0.73342 0.0
C57 C 0.86764 0.37007 0.80985 0.0
C58 C 0.88822 0.38137 0.80883 0.0
H59 H 0.85787 0.36292 0.70373 0.0
H60 H 0.86061 0.36576 0.84105 0.0
H61 H 0.80816 0.32357 0.69368 0.0
H62 H 0.84541 0.29928 0.70221 0.0
H63 H 0.80155 0.38036 0.86651 0.0
H64 H 0.89398 0.38201 0.69945 0.0
H65 H 0.89603 0.38621 0.83937 0.0
C66 C 0.52762 0.83398 0.22987 0.0
C67 C 0.53399 0.82951 0.19207 0.0
N68 N 0.51814 0.81501 0.17136 0.0
N69 N 0.50784 0.82247 0.23264 0.0
C70 C 0.50257 0.8109 0.19709 0.0
H71 H 0.53669 0.84521 0.25326 0.0
Co72 Co 0.49085 0.82254 0.27442 0.0
C73 C 0.46201 0.82616 0.21643 0.0
O74 O 0.46384 0.84082 0.24072 0.0
N75 N 0.47368 0.8216 0.31722 0.0
C76 C 0.44688 0.80994 0.3587 0.0
C77 C 0.45389 0.81407 0.31694 0.0
C78 C 0.47813 0.82124 0.3593 0.0
N79 N 0.46217 0.81424 0.38525 0.0
O80 O 0.48065 0.79458 0.28643 0.0
H81 H 0.44456 0.80945 0.28861 0.0
H82 H 0.49263 0.8245 0.37003 0.0
O83 O 0.47098 0.81689 0.22759 0.0
C84 C 0.49224 0.79105 0.30924 0.0
O85 O 0.51056 0.8053 0.31469 0.0
N86 N 0.50232 0.85057 0.2673 0.0
C87 C 0.5228 0.89215 0.26363 0.0
C88 C 0.51596 0.88069 0.22559 0.0
C89 C 0.50598 0.85997 0.22807 0.0
C90 C 0.50945 0.86156 0.30421 0.0
C91 C 0.51925 0.88214 0.30324 0.0
H92 H 0.50153 0.85148 0.19833 0.0
H93 H 0.50815 0.85454 0.33493 0.0
H94 H 0.4875 0.79961 0.19042 0.0
H95 H 0.54907 0.83678 0.18039 0.0
H96 H 0.43148 0.80258 0.36816 0.0
H97 H 0.51875 0.88763 0.19403 0.0
H98 H 0.52409 0.89009 0.33365 0.0
C99 C 0.72013 0.52315 0.76609 0.0
C100 C 0.73613 0.53175 0.7385 0.0
N101 N 0.72953 0.52635 0.69755 0.0
N102 N 0.70362 0.51237 0.74257 0.0
C103 C 0.70975 0.51479 0.70103 0.0
H104 H 0.72054 0.52432 0.80108 0.0
Co105 Co 0.67841 0.49698 0.76388 0.0
C106 C 0.65406 0.46899 0.69117 0.0
O107 O 0.63818 0.46893 0.70523 0.0
N108 N 0.65285 0.48138 0.78614 0.0
C109 C 0.62117 0.46958 0.80246 0.0
C110 C 0.63888 0.48635 0.79459 0.0
C111 C 0.64345 0.46159 0.79142 0.0
N112 N 0.62413 0.45414 0.79975 0.0
O113 O 0.68735 0.48091 0.79491 0.0
H114 H 0.64092 0.50102 0.79343 0.0
H115 H 0.65026 0.45265 0.78601 0.0
O116 O 0.67079 0.47964 0.71029 0.0
C117 C 0.68914 0.48482 0.83567 0.0
O118 O 0.68357 0.49708 0.85023 0.0
N119 N 0.67125 0.5146 0.7392 0.0
C120 C 0.65627 0.53999 0.72657 0.0
C121 C 0.65412 0.52627 0.69442 0.0
C122 C 0.66213 0.51395 0.70095 0.0
C123 C 0.6754 0.5293 0.76834 0.0
C124 C 0.66794 0.54205 0.76289 0.0
H125 H 0.66042 0.50373 0.67572 0.0
H126 H 0.68318 0.53004 0.79792 0.0
H127 H 0.69986 0.50815 0.67382 0.0
H128 H 0.75144 0.54069 0.74806 0.0
H129 H 0.60716 0.46871 0.80934 0.0
H130 H 0.64591 0.52476 0.66501 0.0
H131 H 0.67015 0.55247 0.78847 0.0
C132 C 0.19081 0.70344 0.27052 0.0
C133 C 0.19775 0.71866 0.24112 0.0
N134 N 0.20585 0.71413 0.20762 0.0
N135 N 0.19439 0.68936 0.25538 0.0
C136 C 0.20368 0.69633 0.21713 0.0
H137 H 0.18351 0.70259 0.30093 0.0
Co138 Co 0.18674 0.66578 0.28319 0.0
C139 C 0.18629 0.63771 0.21612 0.0
O140 O 0.17041 0.62386 0.23548 0.0
N141 N 0.17907 0.64198 0.31258 0.0
C142 C 0.17903 0.61512 0.33657 0.0
C143 C 0.19025 0.63337 0.31769 0.0
C144 C 0.16147 0.62906 0.33038 0.0
N145 N 0.16096 0.61256 0.34422 0.0
O146 O 0.21291 0.67735 0.31003 0.0
H147 H 0.20535 0.63962 0.30663 0.0
H148 H 0.14888 0.63115 0.33242 0.0
O149 O 0.19475 0.65544 0.23133 0.0
C150 C 0.21159 0.68165 0.34963 0.0
O151 O 0.19408 0.67717 0.36454 0.0
N152 N 0.1607 0.65626 0.26199 0.0
C153 C 0.12022 0.64103 0.24937 0.0
C154 C 0.132 0.63992 0.21627 0.0
C155 C 0.15243 0.64832 0.22265 0.0
C156 C 0.14984 0.65947 0.29219 0.0
C157 C 0.12956 0.65175 0.2869 0.0
H158 H 0.1613 0.64816 0.19606 0.0
H159 H 0.15678 0.66691 0.32217 0.0
H160 H 0.20849 0.68844 0.19619 0.0
H161 H 0.19713 0.73212 0.24439 0.0
H162 H 0.18373 0.60459 0.34417 0.0
H163 H 0.12546 0.63259 0.18588 0.0
H164 H 0.12114 0.65329 0.31303 0.0
C165 C 0.4872 0.17688 0.73963 0.0
C166 C 0.48055 0.18563 0.71066 0.0
N167 N 0.49639 0.20138 0.6936 0.0
N168 N 0.50721 0.1871 0.74057 0.0
C169 C 0.51222 0.20212 0.71255 0.0
H170 H 0.47777 0.16428 0.75938 0.0
Co171 Co 0.52571 0.18519 0.77631 0.0
C172 C 0.53928 0.1851 0.68598 0.0
O173 O 0.52062 0.17261 0.67725 0.0
N174 N 0.5437 0.18415 0.81246 0.0
C175 C 0.57268 0.19452 0.84377 0.0
C176 C 0.56245 0.18849 0.80524 0.0
C177 C 0.54263 0.18677 0.85523 0.0
N178 N 0.56026 0.19394 0.87505 0.0
O179 O 0.53669 0.21294 0.79361 0.0
H180 H 0.56893 0.1896 0.77363 0.0
H181 H 0.52957 0.18557 0.87016 0.0
O182 O 0.54414 0.19181 0.72494 0.0
C183 C 0.52508 0.21414 0.82138 0.0
O184 O 0.50766 0.19839 0.82737 0.0
N185 N 0.51403 0.15773 0.76668 0.0
C186 C 0.4941 0.11639 0.76773 0.0
C187 C 0.51234 0.12718 0.74632 0.0
C188 C 0.52229 0.1479 0.7469 0.0
C189 C 0.49722 0.14743 0.79052 0.0
C190 C 0.48676 0.12685 0.79055 0.0
H191 H 0.53681 0.15589 0.73254 0.0
H192 H 0.49212 0.15531 0.81065 0.0
H193 H 0.52729 0.21371 0.70676 0.0
H194 H 0.4653 0.18082 0.70278 0.0
H195 H 0.5885 0.20095 0.84706 0.0
H196 H 0.51892 0.11971 0.72954 0.0
H197 H 0.47331 0.1192 0.80949 0.0
C198 C 0.53097 0.70131 0.74049 0.0
C199 C 0.5357 0.71848 0.76228 0.0
N200 N 0.52077 0.71471 0.78947 0.0
N201 N 0.51353 0.68648 0.75526 0.0
C202 C 0.50736 0.69549 0.78362 0.0
H203 H 0.53936 0.70025 0.71387 0.0
Co204 Co 0.49886 0.66044 0.73403 0.0
C205 C 0.48632 0.65376 0.827 0.0
O206 O 0.50519 0.66354 0.83713 0.0
N207 N 0.4844 0.63516 0.71184 0.0
C208 C 0.46337 0.60323 0.70214 0.0
C209 C 0.46643 0.62012 0.72298 0.0
C210 C 0.49179 0.62728 0.68386 0.0
N211 N 0.47944 0.60785 0.67782 0.0
O212 O 0.48256 0.66852 0.70192 0.0
H213 H 0.45641 0.62118 0.7456 0.0
H214 H 0.50634 0.63554 0.66942 0.0
O215 O 0.48123 0.652 0.78683 0.0
C216 C 0.48945 0.67259 0.66317 0.0
O217 O 0.50448 0.67017 0.65354 0.0
N218 N 0.51621 0.65264 0.7596 0.0
C219 C 0.54027 0.63575 0.77092 0.0
C220 C 0.52137 0.62707 0.78952 0.0
C221 C 0.50952 0.63561 0.78318 0.0
C222 C 0.53461 0.66116 0.74155 0.0
C223 C 0.54701 0.6533 0.74765 0.0
H224 H 0.49438 0.6275 0.79413 0.0
H225 H 0.5391 0.67283 0.71836 0.0
H226 H 0.49313 0.68824 0.79942 0.0
H227 H 0.54878 0.73275 0.75748 0.0
H228 H 0.4503 0.58876 0.70419 0.0
H229 H 0.51541 0.61326 0.807 0.0
H230 H 0.56113 0.66003 0.73109 0.0
C231 C 0.83121 0.52296 0.24256 0.0
C232 C 0.82594 0.53255 0.27255 0.0
N233 N 0.82652 0.52572 0.31234 0.0
N234 N 0.83499 0.51009 0.26335 0.0
C235 C 0.83229 0.51229 0.30573 0.0
H236 H 0.83175 0.52485 0.20775 0.0
Co237 Co 0.84114 0.49253 0.23774 0.0
C238 C 0.83431 0.46175 0.30653 0.0
O239 O 0.84779 0.45864 0.2888 0.0
N240 N 0.84722 0.4748 0.21105 0.0
C241 C 0.86214 0.45926 0.1844 0.0
C242 C 0.86469 0.47725 0.19709 0.0
C243 C 0.83421 0.45547 0.20486 0.0
N244 N 0.84298 0.44554 0.19002 0.0
O245 O 0.81525 0.47965 0.20866 0.0
H246 H 0.87859 0.49096 0.19757 0.0
H247 H 0.81874 0.44864 0.21338 0.0
O248 O 0.83061 0.47474 0.29037 0.0
C249 C 0.81747 0.48475 0.16857 0.0
O250 O 0.83555 0.49644 0.15447 0.0
N251 N 0.86697 0.5071 0.26055 0.0
C252 C 0.90764 0.53088 0.27379 0.0
C253 C 0.89593 0.51596 0.30345 0.0
C254 C 0.87545 0.50447 0.29681 0.0
C255 C 0.87804 0.52228 0.23291 0.0
C256 C 0.89835 0.53435 0.23889 0.0
H257 H 0.86679 0.49354 0.32068 0.0
H258 H 0.87109 0.52447 0.20479 0.0
H259 H 0.83441 0.50408 0.33126 0.0
H260 H 0.82128 0.54314 0.26531 0.0
H261 H 0.87367 0.45644 0.17357 0.0
H262 H 0.90255 0.51318 0.33142 0.0
H263 H 0.90685 0.54575 0.21532 0.0
C264 C 0.31326 0.82638 0.76015 0.0
C265 C 0.29914 0.81979 0.79225 0.0
N266 N 0.3075 0.81869 0.82961 0.0
N267 N 0.33039 0.82937 0.77714 0.0
C268 C 0.32649 0.82463 0.81949 0.0
H269 H 0.3112 0.82884 0.72653 0.0
Co270 Co 0.35361 0.83874 0.74632 0.0
C271 C 0.38334 0.83878 0.80806 0.0
O272 O 0.39641 0.85587 0.79145 0.0
N273 N 0.37698 0.84811 0.71407 0.0
C274 C 0.40529 0.86593 0.67864 0.0
C275 C 0.38845 0.86542 0.69344 0.0
C276 C 0.38671 0.83805 0.70933 0.0
N277 N 0.40427 0.84882 0.68958 0.0
O278 O 0.34269 0.8133 0.71606 0.0
H279 H 0.38527 0.87725 0.68985 0.0
H280 H 0.38135 0.82333 0.72199 0.0
O281 O 0.36543 0.83013 0.79386 0.0
C282 C 0.33791 0.81491 0.67711 0.0
O283 O 0.34113 0.8323 0.66442 0.0
N284 N 0.36264 0.86395 0.77134 0.0
C285 C 0.37833 0.90403 0.78938 0.0
C286 C 0.37925 0.89137 0.82036 0.0
C287 C 0.37064 0.87114 0.81127 0.0
C288 C 0.35937 0.87554 0.74358 0.0
C289 C 0.36736 0.89568 0.75152 0.0
H290 H 0.3709 0.86157 0.83603 0.0
H291 H 0.35167 0.86934 0.71339 0.0
H292 H 0.33742 0.82582 0.84265 0.0
H293 H 0.28382 0.81577 0.78812 0.0
H294 H 0.4176 0.87817 0.66242 0.0
H295 H 0.38674 0.89708 0.85101 0.0
H296 H 0.36588 0.90475 0.72701 0.0
C297 C 0.49133 0.32066 0.26768 0.0
C298 C 0.48427 0.30797 0.30235 0.0
N299 N 0.49887 0.31399 0.33177 0.0
N300 N 0.51031 0.33448 0.2752 0.0
C301 C 0.51449 0.33006 0.31461 0.0
H302 H 0.48324 0.31976 0.23853 0.0
Co303 Co 0.52581 0.35369 0.23568 0.0
C304 C 0.55975 0.38522 0.28794 0.0
O305 O 0.5595 0.3988 0.26338 0.0
N306 N 0.54079 0.37225 0.19382 0.0
C307 C 0.56398 0.38756 0.14367 0.0
C308 C 0.56018 0.37984 0.1849 0.0
C309 C 0.53313 0.37513 0.15727 0.0
N310 N 0.54682 0.38431 0.12623 0.0
O311 O 0.53648 0.33725 0.21394 0.0
H312 H 0.57047 0.37805 0.20512 0.0
H313 H 0.51753 0.36874 0.1515 0.0
O314 O 0.54741 0.36693 0.28017 0.0
C315 C 0.52567 0.32654 0.18248 0.0
O316 O 0.50985 0.32758 0.17289 0.0
N317 N 0.51341 0.36837 0.25262 0.0
C318 C 0.49291 0.38913 0.26098 0.0
C319 C 0.50688 0.39111 0.29226 0.0
C320 C 0.51674 0.38028 0.28791 0.0
C321 C 0.49825 0.36462 0.2252 0.0
C322 C 0.48818 0.3751 0.22807 0.0
H323 H 0.52685 0.38155 0.31308 0.0
H324 H 0.49403 0.35346 0.20036 0.0
H325 H 0.52881 0.33798 0.32996 0.0
H326 H 0.46958 0.29531 0.3057 0.0
H327 H 0.57779 0.39306 0.12626 0.0
H328 H 0.51044 0.40118 0.31932 0.0
H329 H 0.47671 0.37218 0.20462 0.0
C330 C 0.18987 0.49938 0.75088 0.0
C331 C 0.19751 0.49271 0.7824 0.0
N332 N 0.19989 0.5032 0.81888 0.0
N333 N 0.18759 0.51409 0.76729 0.0
C334 C 0.19361 0.51593 0.80889 0.0
H335 H 0.18623 0.49386 0.71804 0.0
Co336 Co 0.178 0.52791 0.73702 0.0
C337 C 0.18494 0.56261 0.79434 0.0
O338 O 0.1718 0.56486 0.77249 0.0
N339 N 0.16807 0.54142 0.70499 0.0
C340 C 0.16546 0.56291 0.66241 0.0
C341 C 0.17836 0.55904 0.68485 0.0
C342 C 0.14907 0.53487 0.69372 0.0
N343 N 0.147 0.54762 0.66816 0.0
O344 O 0.20274 0.54115 0.70363 0.0
H345 H 0.19425 0.56836 0.68583 0.0
H346 H 0.13687 0.52075 0.70291 0.0
O347 O 0.18856 0.54889 0.78327 0.0
C348 C 0.20014 0.53181 0.66779 0.0
O349 O 0.18239 0.51683 0.65996 0.0
N350 N 0.15331 0.51281 0.76506 0.0
C351 C 0.11259 0.48959 0.77809 0.0
C352 C 0.12393 0.50644 0.80369 0.0
C353 C 0.14442 0.51793 0.79672 0.0
C354 C 0.14282 0.49526 0.74374 0.0
C355 C 0.12243 0.48358 0.74927 0.0
H356 H 0.15262 0.53127 0.81524 0.0
H357 H 0.15003 0.49127 0.719 0.0
H358 H 0.19369 0.52659 0.83131 0.0
H359 H 0.20099 0.48103 0.77869 0.0
H360 H 0.16953 0.57545 0.64148 0.0
H361 H 0.11688 0.51137 0.82686 0.0
H362 H 0.11427 0.47048 0.72947 0.0
C363 C 0.69643 0.16569 0.27602 0.0
C364 C 0.71071 0.17226 0.30793 0.0
N365 N 0.70969 0.18638 0.33097 0.0
N366 N 0.68657 0.17568 0.27912 0.0
C367 C 0.69506 0.18823 0.31263 0.0
H368 H 0.69357 0.15454 0.25184 0.0
Co369 Co 0.66675 0.17396 0.24343 0.0
C370 C 0.63868 0.17812 0.30298 0.0
O371 O 0.62419 0.16468 0.27931 0.0
N372 N 0.64723 0.17302 0.20676 0.0
C373 C 0.62569 0.16793 0.15429 0.0
C374 C 0.63573 0.16021 0.17565 0.0
C375 C 0.64405 0.18841 0.20312 0.0
N376 N 0.63098 0.18566 0.1718 0.0
O377 O 0.68473 0.20051 0.22085 0.0
H378 H 0.63504 0.14651 0.1673 0.0
H379 H 0.65179 0.2018 0.22216 0.0
O380 O 0.65664 0.1836 0.29248 0.0
C381 C 0.69262 0.19761 0.18716 0.0
O382 O 0.6886 0.17942 0.17964 0.0
N383 N 0.65057 0.14714 0.25985 0.0
C384 C 0.62857 0.10604 0.26953 0.0
C385 C 0.63059 0.11861 0.30426 0.0
C386 C 0.64193 0.13923 0.29894 0.0
C387 C 0.6503 0.13503 0.22769 0.0
C388 C 0.63903 0.11457 0.23129 0.0
H389 H 0.64388 0.14864 0.32633 0.0
H390 H 0.65883 0.14139 0.19851 0.0
H391 H 0.69104 0.19902 0.3226 0.0
H392 H 0.72096 0.16703 0.3138 0.0
H393 H 0.61557 0.16119 0.12743 0.0
H394 H 0.62334 0.1126 0.33498 0.0
H395 H 0.63869 0.10546 0.20441 0.0
H396 H 0.36393 0.55123 0.14228 0.0
H397 H 0.37607 0.5652 0.0698 0.0
H398 H 0.42454 0.61684 0.1282 0.0
H399 H 0.41256 0.60307 0.20014 0.0
H400 H 0.41116 0.62708 0.05668 0.0
H401 H 0.43016 0.57881 0.09569 0.0
H402 H 0.4231 0.54561 0.11771 0.0
H403 H 0.38896 0.52091 1.00187 0.0
H404 H 0.39554 0.55395 0.97955 0.0
H405 H 0.49274 0.6402 0.90243 0.0
H406 H 0.47008 0.62425 0.96277 0.0
H407 H 0.42424 0.62821 0.89391 0.0
H408 H 0.44697 0.64388 0.8321 0.0
H409 H 0.43213 0.58862 0.96495 0.0
H410 H 0.40141 0.64112 0.98122 0.0
H411 H 0.41055 0.67534 0.96272 0.0
H412 H 0.47206 0.6932 0.97254 0.0
H413 H 0.46328 0.65914 0.99151 0.0
C414 C 0.37689 0.56576 0.13966 0.0
C415 C 0.38732 0.57596 0.17713 0.0
C416 C 0.3839 0.5737 0.09815 0.0
C417 C 0.4014 0.59205 0.0933 0.0
C418 C 0.41105 0.60271 0.13082 0.0
C419 C 0.40419 0.59474 0.17207 0.0
C420 C 0.41083 0.59949 0.04983 0.0
C421 C 0.41544 0.6185 0.03633 0.0
C422 C 0.41677 0.58856 0.02326 0.0
C423 C 0.41316 0.56879 0.0362 0.0
C424 C 0.42105 0.56627 0.07505 0.0
C425 C 0.41714 0.54749 0.08758 0.0
C426 C 0.40555 0.53115 0.06126 0.0
C427 C 0.3979 0.53358 0.02227 0.0
C428 C 0.40171 0.55232 1.00967 0.0
C429 C 0.47781 0.63764 0.89983 0.0
C430 C 0.47171 0.64343 0.8624 0.0
C431 C 0.46482 0.62839 0.9344 0.0
C432 C 0.44543 0.62501 0.93309 0.0
C433 C 0.43914 0.63066 0.8957 0.0
C434 C 0.4521 0.63958 0.86039 0.0
C435 C 0.43233 0.61611 0.97173 0.0
C436 C 0.42725 0.59692 0.98456 0.0
C437 C 0.4262 0.62697 0.99791 0.0
C438 C 0.43167 0.64753 0.9871 0.0
C439 C 0.41688 0.65236 0.97945 0.0
C440 C 0.422 0.67172 0.96889 0.0
C441 C 0.44187 0.68639 0.96615 0.0
C442 C 0.45668 0.68178 0.97434 0.0
C443 C 0.45163 0.66245 0.98491 0.0
H444 H 0.44579 0.70134 0.95774 0.0
H445 H 0.40253 0.51662 0.07102 0.0
H446 H 0.80859 0.35427 0.64908 0.0
H447 H 0.8034 0.36651 0.57972 0.0
H448 H 0.83696 0.42631 0.62695 0.0
H449 H 0.84191 0.41429 0.69588 0.0
H450 H 0.8061 0.42207 0.58114 0.0
H451 H 0.85769 0.40554 0.56025 0.0
H452 H 0.87095 0.3828 0.56166 0.0
H453 H 0.82595 0.34408 0.47241 0.0
H454 H 0.8123 0.36651 0.47087 0.0
H455 H 0.83837 0.47908 0.38589 0.0
H456 H 0.83303 0.46295 0.45665 0.0
H457 H 0.80723 0.40617 0.39311 0.0
H458 H 0.81388 0.42254 0.32254 0.0
H459 H 0.83066 0.40636 0.44721 0.0
H460 H 0.78121 0.42508 0.4608 0.0
H461 H 0.76782 0.4477 0.46019 0.0
H462 H 0.80693 0.48132 0.5639 0.0
H463 H 0.82102 0.45935 0.5642 0.0
C464 C 0.81462 0.37 0.64486 0.0
C465 C 0.82576 0.38325 0.67818 0.0
C466 C 0.81175 0.37702 0.60504 0.0
C467 C 0.81998 0.39744 0.59763 0.0
C468 C 0.83043 0.41054 0.63153 0.0
C469 C 0.83333 0.40358 0.67106 0.0
C470 C 0.81873 0.40547 0.55425 0.0
C471 C 0.81153 0.41871 0.55182 0.0
C472 C 0.8254 0.40083 0.51562 0.0
C473 C 0.83387 0.38759 0.51577 0.0
C474 C 0.85058 0.39213 0.54107 0.0
C475 C 0.85817 0.37931 0.54189 0.0
C476 C 0.84926 0.36198 0.51723 0.0
C477 C 0.83281 0.35749 0.49154 0.0
C478 C 0.82516 0.37027 0.49064 0.0
C479 C 0.83096 0.46312 0.38726 0.0
C480 C 0.82614 0.45202 0.34877 0.0
C481 C 0.82791 0.45382 0.42784 0.0
C482 C 0.81949 0.43314 0.43091 0.0
C483 C 0.81381 0.42207 0.39219 0.0
C484 C 0.81734 0.43141 0.35174 0.0
C485 C 0.81801 0.42315 0.47366 0.0
C486 C 0.82486 0.40958 0.47612 0.0
C487 C 0.81088 0.42744 0.51222 0.0
C488 C 0.80232 0.44064 0.51222 0.0
C489 C 0.7871 0.43742 0.48319 0.0
C490 C 0.77941 0.45016 0.48283 0.0
C491 C 0.78663 0.46605 0.51175 0.0
C492 C 0.80148 0.46915 0.54122 0.0
C493 C 0.80933 0.45655 0.54149 0.0
H494 H 0.78066 0.4759 0.51146 0.0
H495 H 0.85513 0.35205 0.51796 0.0
H496 H 0.45491 0.79746 0.15498 0.0
H497 H 0.43838 0.79248 0.08455 0.0
H498 H 0.42825 0.84076 0.11249 0.0
H499 H 0.44396 0.84529 0.18278 0.0
H500 H 0.39764 0.81461 0.07343 0.0
H501 H 0.46775 0.84438 0.04692 0.0
H502 H 0.50045 0.84677 0.04789 0.0
H503 H 0.47729 0.79306 0.97437 0.0
H504 H 0.44434 0.79016 0.9736 0.0
H505 H 0.42016 0.85489 0.84287 0.0
H506 H 0.43052 0.8455 0.90835 0.0
H507 H 0.37186 0.79549 0.92374 0.0
H508 H 0.361 0.80546 0.85849 0.0
H509 H 0.43393 0.81649 0.9397 0.0
H510 H 0.36013 0.78792 0.02222 0.0
H511 H 0.3301 0.79014 1.00938 0.0
H512 H 0.36584 0.85018 0.96732 0.0
H513 H 0.39603 0.84826 0.97978 0.0
C514 C 0.44894 0.80684 0.14628 0.0
C515 C 0.45086 0.82181 0.17473 0.0
C516 C 0.43956 0.80406 0.1058 0.0
C517 C 0.43217 0.81639 0.09258 0.0
C518 C 0.43366 0.83095 0.12158 0.0
C519 C 0.4428 0.83359 0.16197 0.0
C520 C 0.42363 0.81497 0.04821 0.0
C521 C 0.40556 0.81478 0.04435 0.0
C522 C 0.43382 0.81537 1.00968 0.0
C523 C 0.45353 0.81693 1.01066 0.0
C524 C 0.46959 0.83298 0.03131 0.0
C525 C 0.48817 0.83444 0.03176 0.0
C526 C 0.49094 0.82008 0.01118 0.0
C527 C 0.47511 0.80417 0.99026 0.0
C528 C 0.45648 0.8026 0.98987 0.0
C529 C 0.40935 0.84181 0.85989 0.0
C530 C 0.38957 0.83115 0.8456 0.0
C531 C 0.41543 0.83633 0.89736 0.0
C532 C 0.40201 0.81994 0.92173 0.0
C533 C 0.38248 0.80847 0.90615 0.0
C534 C 0.37627 0.81412 0.86869 0.0
C535 C 0.40822 0.81638 0.96525 0.0
C536 C 0.42583 0.81574 0.96892 0.0
C537 C 0.39803 0.81587 1.00366 0.0
C538 C 0.38024 0.81792 1.00187 0.0
C539 C 0.36155 0.80167 1.01093 0.0
C540 C 0.34452 0.80282 1.00329 0.0
C541 C 0.3461 0.82023 0.98711 0.0
C542 C 0.36467 0.83668 0.97955 0.0
C543 C 0.38172 0.83558 0.98695 0.0
H544 H 0.33294 0.82107 0.98072 0.0
H545 H 0.50536 0.8213 0.01139 0.0
H546 H 0.58777 0.42274 0.31037 0.0
H547 H 0.60675 0.43432 0.37719 0.0
H548 H 0.57993 0.37446 0.42364 0.0
H549 H 0.56059 0.36266 0.35642 0.0
H550 H 0.57985 0.39867 0.48612 0.0
H551 H 0.62895 0.40028 0.39054 0.0
H552 H 0.6491 0.40871 0.32399 0.0
H553 H 0.67316 0.47045 0.35058 0.0
H554 H 0.65294 0.46239 0.41697 0.0
H555 H 0.63691 0.42967 0.67624 0.0
H556 H 0.62472 0.41286 0.60645 0.0
H557 H 0.6519 0.46928 0.54173 0.0
H558 H 0.66505 0.48592 0.61137 0.0
H559 H 0.65242 0.44395 0.48867 0.0
H560 H 0.6014 0.44313 0.57822 0.0
H561 H 0.58148 0.43585 0.64494 0.0
H562 H 0.56067 0.37398 0.62889 0.0
H563 H 0.58072 0.38093 0.56242 0.0
C564 C 0.58595 0.4119 0.33447 0.0
C565 C 0.57251 0.39167 0.32767 0.0
C566 C 0.59697 0.41861 0.37282 0.0
C567 C 0.59505 0.40533 0.40564 0.0
C568 C 0.58179 0.38507 0.39891 0.0
C569 C 0.57074 0.3783 0.36029 0.0
C570 C 0.6063 0.41284 0.44739 0.0
C571 C 0.59577 0.40825 0.48667 0.0
C572 C 0.62706 0.42582 0.44843 0.0
C573 C 0.6393 0.43071 0.40859 0.0
C574 C 0.63843 0.41565 0.38204 0.0
C575 C 0.64988 0.42037 0.34436 0.0
C576 C 0.66237 0.4401 0.33302 0.0
C577 C 0.66347 0.45517 0.35939 0.0
C578 C 0.65203 0.45053 0.39707 0.0
C579 C 0.641 0.43838 0.64681 0.0
C580 C 0.65225 0.45906 0.64911 0.0
C581 C 0.6337 0.4288 0.60691 0.0
C582 C 0.63676 0.43974 0.56858 0.0
C583 C 0.64915 0.46039 0.57058 0.0
C584 C 0.65682 0.46994 0.61042 0.0
C585 C 0.62595 0.42995 0.52737 0.0
C586 C 0.63653 0.43418 0.48818 0.0
C587 C 0.60519 0.41681 0.52632 0.0
C588 C 0.59271 0.41257 0.5656 0.0
C589 C 0.59263 0.42798 0.58902 0.0
C590 C 0.58133 0.42392 0.6268 0.0
C591 C 0.56986 0.40448 0.64121 0.0
C592 C 0.56959 0.38904 0.61773 0.0
C593 C 0.58091 0.39303 0.58 0.0
H594 H 0.56116 0.40137 0.67053 0.0
H595 H 0.67123 0.44372 0.30384 0.0
H596 H 0.22203 0.65679 0.17126 0.0
H597 H 0.22985 0.64659 0.10169 0.0
H598 H 0.17014 0.59755 0.0948 0.0
H599 H 0.1627 0.607 0.16395 0.0
H600 H 0.19273 0.58483 0.06999 0.0
H601 H 0.19056 0.64547 0.03852 0.0
H602 H 0.20331 0.68114 0.04859 0.0
H603 H 0.2606 0.69373 1.00453 0.0
H604 H 0.24832 0.65811 0.9953 0.0
H605 H 0.17757 0.59065 0.82717 0.0
H606 H 0.18567 0.60599 0.89832 0.0
H607 H 0.21813 0.57625 0.92783 0.0
H608 H 0.20963 0.56033 0.85619 0.0
H609 H 0.21691 0.63001 0.94375 0.0
H610 H 0.21219 0.56552 0.04018 0.0
H611 H 0.2004 0.53001 0.03075 0.0
H612 H 0.1548 0.52473 0.94477 0.0
H613 H 0.16628 0.56018 0.95394 0.0
C614 C 0.21066 0.64383 0.15479 0.0
C615 C 0.19178 0.63271 0.17346 0.0
C616 C 0.2151 0.63799 0.11492 0.0
C617 C 0.20056 0.62124 0.09242 0.0
C618 C 0.18176 0.61035 0.11125 0.0
C619 C 0.17749 0.61589 0.15104 0.0
C620 C 0.20416 0.61488 0.0489 0.0
C621 C 0.1982 0.59482 0.04254 0.0
C622 C 0.21154 0.62776 0.01275 0.0
C623 C 0.21858 0.64915 0.01667 0.0
C624 C 0.20588 0.65586 0.03107 0.0
C625 C 0.21303 0.67606 0.03667 0.0
C626 C 0.23276 0.68969 0.02723 0.0
C627 C 0.24534 0.68316 0.01192 0.0
C628 C 0.2383 0.66297 1.00657 0.0
C629 C 0.1866 0.5874 0.84841 0.0
C630 C 0.19258 0.57385 0.83588 0.0
C631 C 0.19135 0.59637 0.88929 0.0
C632 C 0.2023 0.59216 0.9191 0.0
C633 C 0.20938 0.57955 0.90586 0.0
C634 C 0.2045 0.57042 0.86476 0.0
C635 C 0.20464 0.59985 0.96466 0.0
C636 C 0.21177 0.62012 0.97139 0.0
C637 C 0.19816 0.58713 1.00115 0.0
C638 C 0.1904 0.56559 0.997 0.0
C639 C 0.19967 0.55677 0.01923 0.0
C640 C 0.19303 0.53666 0.01397 0.0
C641 C 0.17695 0.52515 0.98693 0.0
C642 C 0.16733 0.53369 0.9655 0.0
C643 C 0.17391 0.5538 0.97072 0.0
H644 H 0.17189 0.5096 0.98272 0.0
H645 H 0.23835 0.70531 0.03181 0.0
H646 H 0.66159 0.19559 0.37622 0.0
H647 H 0.65071 0.203 0.44529 0.0
H648 H 0.59288 0.18276 0.39085 0.0
H649 H 0.60362 0.17566 0.32245 0.0
H650 H 0.60321 0.21468 0.43819 0.0
H651 H 0.60398 0.15338 0.45778 0.0
H652 H 0.62019 0.13326 0.4595 0.0
H653 H 0.66021 0.17116 0.5577 0.0
H654 H 0.64437 0.19166 0.55614 0.0
H655 H 0.53168 0.17901 0.59983 0.0
H656 H 0.55411 0.18364 0.54076 0.0
H657 H 0.60298 0.20647 0.63036 0.0
H658 H 0.58016 0.2015 0.69083 0.0
H659 H 0.60414 0.17996 0.57186 0.0
H660 H 0.5985 0.23747 0.56129 0.0
H661 H 0.58088 0.25622 0.56045 0.0
H662 H 0.54983 0.22555 0.44517 0.0
H663 H 0.56696 0.2063 0.44579 0.0
C664 C 0.64666 0.19303 0.37885 0.0
C665 C 0.63348 0.18493 0.34369 0.0
C666 C 0.64038 0.19712 0.41852 0.0
C667 C 0.62082 0.19324 0.42378 0.0
C668 C 0.608 0.18591 0.38802 0.0
C669 C 0.61419 0.18176 0.34876 0.0
C670 C 0.61308 0.19597 0.46639 0.0
C671 C 0.60344 0.20708 0.46736 0.0
C672 C 0.61381 0.18661 0.50518 0.0
C673 C 0.62315 0.17417 0.50648 0.0
C674 C 0.61632 0.15749 0.47954 0.0
C675 C 0.62543 0.14601 0.4805 0.0
C676 C 0.64126 0.15096 0.50859 0.0
C677 C 0.64797 0.16736 0.53589 0.0
C678 C 0.63893 0.17891 0.53499 0.0
C679 C 0.5472 0.18513 0.60734 0.0
C680 C 0.55403 0.18989 0.65039 0.0
C681 C 0.5601 0.18787 0.57321 0.0
C682 C 0.58038 0.19563 0.58065 0.0
C683 C 0.58742 0.20052 0.62359 0.0
C684 C 0.57439 0.19781 0.65812 0.0
C685 C 0.59372 0.19813 0.54311 0.0
C686 C 0.60434 0.18798 0.54303 0.0
C687 C 0.5939 0.20838 0.50504 0.0
C688 C 0.58398 0.22036 0.50371 0.0
C689 C 0.58786 0.23466 0.53583 0.0
C690 C 0.57794 0.24537 0.53542 0.0
C691 C 0.56423 0.24206 0.50279 0.0
C692 C 0.56046 0.22809 0.47042 0.0
C693 C 0.57029 0.21729 0.47076 0.0
H694 H 0.55651 0.25031 0.50257 0.0
H695 H 0.6483 0.14206 0.50929 0.0
H696 H 0.51409 0.35854 0.08087 0.0
H697 H 0.51045 0.3568 1.0021 0.0
H698 H 0.56754 0.40927 0.98971 0.0
H699 H 0.57116 0.4114 0.06866 0.0
H700 H 0.52883 0.39877 0.92587 0.0
H701 H 0.58651 0.38113 0.95808 0.0
H702 H 0.59612 0.36779 0.01979 0.0
H703 H 0.53559 0.32264 0.03759 0.0
H704 H 0.52571 0.33545 0.9752 0.0
H705 H 0.6249 0.43023 0.8599 0.0
H706 H 0.59603 0.40096 0.88726 0.0
H707 H 0.56155 0.4026 0.77936 0.0
H708 H 0.59052 0.43319 0.75429 0.0
H709 H 0.56696 0.36678 0.87962 0.0
H710 H 0.5201 0.3932 0.81258 0.0
H711 H 0.52055 0.42058 0.77171 0.0
H712 H 0.57221 0.46243 0.8418 0.0
H713 H 0.57198 0.43526 0.883 0.0
C714 C 0.52555 0.37018 0.0616 0.0
C715 C 0.54306 0.38511 0.0809 0.0
C716 C 0.52338 0.3691 0.01657 0.0
C717 C 0.53872 0.38287 0.99049 0.0
C718 C 0.55551 0.39859 1.00967 0.0
C719 C 0.55768 0.39969 0.05457 0.0
C720 C 0.53949 0.37927 0.94389 0.0
C721 C 0.53634 0.39105 0.91477 0.0
C722 C 0.54937 0.36926 0.92999 0.0
C723 C 0.5554 0.35918 0.96198 0.0
C724 C 0.57534 0.36802 0.97443 0.0
C725 C 0.58081 0.36067 1.00973 0.0
C726 C 0.56646 0.34453 0.03286 0.0
C727 C 0.54669 0.33522 0.01978 0.0
C728 C 0.54115 0.34243 0.98427 0.0
C729 C 0.6113 0.42387 0.84139 0.0
C730 C 0.6095 0.43399 0.80615 0.0
C731 C 0.59474 0.40701 0.85669 0.0
C732 C 0.57624 0.39994 0.83636 0.0
C733 C 0.5754 0.4082 0.79657 0.0
C734 C 0.59188 0.42556 0.78218 0.0
C735 C 0.55827 0.38808 0.86298 0.0
C736 C 0.55776 0.373 0.88854 0.0
C737 C 0.546 0.39598 0.87465 0.0
C738 C 0.54608 0.41229 0.85047 0.0
C739 C 0.5315 0.40826 0.81921 0.0
C740 C 0.53174 0.42372 0.796 0.0
C741 C 0.54643 0.44323 0.80408 0.0
C742 C 0.56086 0.44733 0.83553 0.0
C743 C 0.56067 0.43193 0.85884 0.0
H744 H 0.54661 0.45517 0.78603 0.0
H745 H 0.57073 0.33926 0.06086 0.0
H746 H 0.14779 0.57407 0.32776 0.0
H747 H 0.12187 0.54587 0.36767 0.0
H748 H 0.11219 0.58613 0.44624 0.0
H749 H 0.13688 0.61372 0.40452 0.0
H750 H 0.12739 0.53998 0.44129 0.0
H751 H 0.07515 0.56953 0.50716 0.0
H752 H 0.0519 0.57886 0.47657 0.0
H753 H 0.04896 0.54859 0.35812 0.0
H754 H 0.07193 0.53872 0.38811 0.0
H755 H 0.13863 0.57458 0.63498 0.0
H756 H 0.11599 0.56839 0.57508 0.0
H757 H 0.09255 0.50576 0.58857 0.0
H758 H 0.11535 0.51173 0.64765 0.0
H759 H 0.0756 0.54099 0.53253 0.0
H760 H 0.10781 0.49586 0.51197 0.0
H761 H 0.13124 0.48713 0.545 0.0
H762 H 0.17286 0.54853 0.56624 0.0
H763 H 0.14969 0.55755 0.53309 0.0
C764 C 0.13963 0.57663 0.3529 0.0
C765 C 0.14445 0.59592 0.36395 0.0
C766 C 0.12471 0.56058 0.37536 0.0
C767 C 0.11489 0.56368 0.41017 0.0
C768 C 0.11892 0.583 0.41894 0.0
C769 C 0.13337 0.59892 0.39565 0.0
C770 C 0.10483 0.54828 0.44396 0.0
C771 C 0.11526 0.53931 0.45981 0.0
C772 C 0.08881 0.54691 0.4685 0.0
C773 C 0.07522 0.5532 0.45015 0.0
C774 C 0.06941 0.56463 0.47477 0.0
C775 C 0.05631 0.57008 0.45746 0.0
C776 C 0.04885 0.56419 0.41558 0.0
C777 C 0.05469 0.55307 0.39064 0.0
C778 C 0.0678 0.54758 0.40776 0.0
C779 C 0.12819 0.55946 0.62623 0.0
C780 C 0.12955 0.54378 0.64453 0.0
C781 C 0.1149 0.55589 0.59261 0.0
C782 C 0.10304 0.53663 0.57672 0.0
C783 C 0.10174 0.52073 0.60022 0.0
C784 C 0.11505 0.52427 0.63385 0.0
C785 C 0.09929 0.53463 0.52964 0.0
C786 C 0.08646 0.54035 0.51175 0.0
C787 C 0.11276 0.53263 0.50245 0.0
C788 C 0.12712 0.52733 0.52004 0.0
C789 C 0.12205 0.50746 0.52334 0.0
C790 C 0.13524 0.50247 0.54217 0.0
C791 C 0.15354 0.51727 0.55767 0.0
C792 C 0.15873 0.5371 0.5541 0.0
C793 C 0.14561 0.54215 0.53519 0.0
H794 H 0.16368 0.51339 0.57244 0.0
H795 H 0.03853 0.56822 0.40246 0.0
H796 H 0.62585 0.21124 0.22207 0.0
H797 H 0.61424 0.23369 0.1978 0.0
H798 H 0.6118 0.21368 0.06619 0.0
H799 H 0.62343 0.19164 0.09003 0.0
H800 H 0.62837 0.26032 0.08798 0.0
H801 H 0.55646 0.18473 0.1043 0.0
H802 H 0.53754 0.16136 0.16277 0.0
H803 H 0.56132 0.20876 0.25542 0.0
H804 H 0.58021 0.23247 0.19736 0.0
H805 H 0.59382 0.20465 0.9203 0.0
H806 H 0.60418 0.22336 0.98729 0.0
H807 H 0.5498 0.22488 0.99216 0.0
H808 H 0.53929 0.20634 0.92472 0.0
H809 H 0.55687 0.21355 0.06759 0.0
H810 H 0.59134 0.26941 0.98859 0.0
H811 H 0.60984 0.29095 0.92729 0.0
H812 H 0.66011 0.28509 0.9588 0.0
H813 H 0.64173 0.26281 0.0188 0.0
C814 C 0.62309 0.21196 0.1879 0.0
C815 C 0.62522 0.19954 0.15786 0.0
C816 C 0.61653 0.22477 0.17419 0.0
C817 C 0.61227 0.22536 0.13028 0.0
C818 C 0.61518 0.21353 0.10024 0.0
C819 C 0.62153 0.20073 0.11388 0.0
C820 C 0.60219 0.23581 0.11454 0.0
C821 C 0.61259 0.25074 0.08393 0.0
C822 C 0.58139 0.22463 0.11186 0.0
C823 C 0.56969 0.21039 0.14647 0.0
C824 C 0.5575 0.19021 0.13705 0.0
C825 C 0.54683 0.17689 0.17015 0.0
C826 C 0.54821 0.18357 0.21277 0.0
C827 C 0.56026 0.2036 0.22239 0.0
C828 C 0.57096 0.21698 0.18942 0.0
C829 C 0.58413 0.20917 0.93498 0.0
C830 C 0.56578 0.20398 0.91641 0.0
C831 C 0.59017 0.22009 0.97321 0.0
C832 C 0.57802 0.22611 0.99396 0.0
C833 C 0.55955 0.22073 0.97619 0.0
C834 C 0.55349 0.20982 0.93773 0.0
C835 C 0.58388 0.23539 0.03726 0.0
C836 C 0.57232 0.22439 0.07253 0.0
C837 C 0.60354 0.25064 0.0445 0.0
C838 C 0.61515 0.26454 1.00894 0.0
C839 C 0.60633 0.27266 0.98251 0.0
C840 C 0.61679 0.28499 0.94783 0.0
C841 C 0.63618 0.28955 0.93944 0.0
C842 C 0.64513 0.28168 0.96553 0.0
C843 C 0.63468 0.26918 0.99997 0.0
H844 H 0.64425 0.29911 0.91259 0.0
H845 H 0.53995 0.17324 0.23835 0.0
H846 H 0.46875 0.56954 0.68997 0.0
H847 H 0.46797 0.54677 0.63421 0.0
H848 H 0.49421 0.59524 0.5431 0.0
H849 H 0.49609 0.61767 0.5991 0.0
H850 H 0.44521 0.53609 0.57616 0.0
H851 H 0.50898 0.59118 0.45429 0.0
H852 H 0.54529 0.60969 0.45496 0.0
H853 H 0.54582 0.57393 0.55975 0.0
H854 H 0.50945 0.55484 0.55931 0.0
H855 H 0.41842 0.5761 0.43139 0.0
H856 H 0.44024 0.57086 0.47853 0.0
H857 H 0.44226 0.53075 0.38538 0.0
H858 H 0.42082 0.5364 0.33679 0.0
H859 H 0.4812 0.5609 0.43722 0.0
H860 H 0.41966 0.50493 0.45448 0.0
H861 H 0.38328 0.48506 0.45353 0.0
H862 H 0.38018 0.51928 0.55915 0.0
H863 H 0.4165 0.53957 0.56023 0.0
C864 C 0.47491 0.57524 0.65825 0.0
C865 C 0.48211 0.59519 0.6483 0.0
C866 C 0.47462 0.5623 0.62648 0.0
C867 C 0.48093 0.56904 0.58393 0.0
C868 C 0.48971 0.58941 0.57551 0.0
C869 C 0.4905 0.60234 0.60751 0.0
C870 C 0.47364 0.55508 0.54653 0.0
C871 C 0.45336 0.54106 0.54601 0.0
C872 C 0.48429 0.55994 0.50689 0.0
C873 C 0.50631 0.57136 0.5065 0.0
C874 C 0.51674 0.58696 0.47706 0.0
C875 C 0.53739 0.59766 0.47755 0.0
C876 C 0.54786 0.59296 0.5073 0.0
C877 C 0.53769 0.57755 0.53669 0.0
C878 C 0.51704 0.5668 0.53637 0.0
C879 C 0.42385 0.56657 0.42018 0.0
C880 C 0.41754 0.55643 0.38062 0.0
C881 C 0.43625 0.5635 0.44728 0.0
C882 C 0.44255 0.55019 0.43553 0.0
C883 C 0.43741 0.54094 0.39499 0.0
C884 C 0.42499 0.54407 0.36759 0.0
C885 C 0.45292 0.54518 0.46847 0.0
C886 C 0.4736 0.5552 0.46777 0.0
C887 C 0.44279 0.53605 0.50707 0.0
C888 C 0.42087 0.52366 0.50763 0.0
C889 C 0.41122 0.50822 0.47749 0.0
C890 C 0.3906 0.4969 0.47689 0.0
C891 C 0.37943 0.50087 0.50635 0.0
C892 C 0.38886 0.51617 0.53647 0.0
C893 C 0.40949 0.52755 0.53718 0.0
H894 H 0.36346 0.49211 0.5058 0.0
H895 H 0.56385 0.60128 0.50763 0.0
H896 H 0.81001 0.4166 0.22974 0.0
H897 H 0.79259 0.38143 0.21155 0.0
H898 H 0.83824 0.39209 0.11847 0.0
H899 H 0.8553 0.4268 0.13593 0.0
H900 H 0.77587 0.36658 0.13915 0.0
H901 H 0.84722 0.35977 0.10016 0.0
H902 H 0.87435 0.36106 0.14296 0.0
H903 H 0.84094 0.35151 0.25998 0.0
H904 H 0.81334 0.34977 0.21792 0.0
H905 H 0.80598 0.38458 0.94199 0.0
H906 H 0.7951 0.37641 0.01649 0.0
H907 H 0.79885 0.32342 1.00702 0.0
H908 H 0.80997 0.33155 0.93192 0.0
H909 H 0.8152 0.33914 0.07506 0.0
H910 H 0.75377 0.31987 0.03324 0.0
H911 H 0.72503 0.31593 0.99222 0.0
H912 H 0.73394 0.37087 0.04278 0.0
H913 H 0.76341 0.3759 0.08231 0.0
C914 C 0.81638 0.41135 0.20565 0.0
C915 C 0.83388 0.42458 0.18356 0.0
C916 C 0.80654 0.39119 0.19586 0.0
C917 C 0.81419 0.38393 0.16425 0.0
C918 C 0.83225 0.39704 0.14411 0.0
C919 C 0.84199 0.41708 0.15374 0.0
C920 C 0.80199 0.36408 0.14487 0.0
C921 C 0.78412 0.36013 0.12547 0.0
C922 C 0.8113 0.35358 0.13058 0.0
C923 C 0.82797 0.35437 0.15564 0.0
C924 C 0.84541 0.35758 0.1349 0.0
C925 C 0.86097 0.35852 0.15911 0.0
C926 C 0.85935 0.3563 0.20413 0.0
C927 C 0.84217 0.35319 0.22508 0.0
C928 C 0.82656 0.35225 0.20106 0.0
C929 C 0.80412 0.37097 0.95529 0.0
C930 C 0.80893 0.35883 0.93082 0.0
C931 C 0.79763 0.36612 0.9979 0.0
C932 C 0.79555 0.34887 0.01702 0.0
C933 C 0.80003 0.33654 0.99254 0.0
C934 C 0.80668 0.34145 0.94984 0.0
C935 C 0.79201 0.34596 0.06435 0.0
C936 C 0.80631 0.34472 0.08949 0.0
C937 C 0.77879 0.35083 0.08475 0.0
C938 C 0.76086 0.34814 0.06149 0.0
C939 C 0.74974 0.33124 0.03561 0.0
C940 C 0.73334 0.32885 0.01239 0.0
C941 C 0.72761 0.34308 0.01517 0.0
C942 C 0.73839 0.35984 0.04087 0.0
C943 C 0.75499 0.36247 0.06374 0.0
H944 H 0.71486 0.34116 0.9973 0.0
H945 H 0.87143 0.35705 0.2228 0.0
H946 H 0.43446 0.81118 0.44181 0.0
H947 H 0.43389 0.80628 0.51961 0.0
H948 H 0.4871 0.80287 0.51075 0.0
H949 H 0.48765 0.80729 0.43231 0.0
H950 H 0.43346 0.77862 0.57624 0.0
H951 H 0.51347 0.82967 0.60703 0.0
H952 H 0.54437 0.85299 0.5693 0.0
H953 H 0.51196 0.87066 0.48605 0.0
H954 H 0.48095 0.84748 0.52346 0.0
H955 H 0.41205 0.8257 0.74189 0.0
H956 H 0.43419 0.81282 0.72545 0.0
H957 H 0.45191 0.84687 0.60714 0.0
H958 H 0.43019 0.85983 0.62372 0.0
H959 H 0.48244 0.84227 0.64272 0.0
H960 H 0.40596 0.79428 0.59897 0.0
H961 H 0.37245 0.77481 0.63011 0.0
H962 H 0.3955 0.75544 0.73342 0.0
H963 H 0.42913 0.77486 0.70278 0.0
C964 C 0.44579 0.80888 0.45608 0.0
C965 C 0.46121 0.80993 0.4308 0.0
C966 C 0.4454 0.80595 0.50059 0.0
C967 C 0.46044 0.80405 0.52085 0.0
C968 C 0.47536 0.80414 0.4956 0.0
C969 C 0.47578 0.80704 0.45086 0.0
C970 C 0.4616 0.80515 0.5686 0.0
C971 C 0.44459 0.79209 0.59177 0.0
C972 C 0.47644 0.82233 0.58947 0.0
C973 C 0.49493 0.83656 0.56729 0.0
C974 C 0.51299 0.83851 0.58057 0.0
C975 C 0.5305 0.85171 0.55931 0.0
C976 C 0.53011 0.86321 0.52511 0.0
C977 C 0.51223 0.86165 0.51235 0.0
C978 C 0.49469 0.84848 0.53353 0.0
C979 C 0.42091 0.83057 0.71267 0.0
C980 C 0.41908 0.84334 0.68333 0.0
C981 C 0.43369 0.82338 0.70365 0.0
C982 C 0.44456 0.82872 0.66496 0.0
C983 C 0.44386 0.8427 0.63755 0.0
C984 C 0.43129 0.84999 0.64673 0.0
C985 C 0.45311 0.81712 0.64701 0.0
C986 C 0.47221 0.8278 0.62957 0.0
C987 C 0.44006 0.79799 0.6309 0.0
C988 C 0.41991 0.78589 0.64863 0.0
C989 C 0.40379 0.78574 0.62816 0.0
C990 C 0.38482 0.77479 0.64577 0.0
C991 C 0.38185 0.76388 0.6837 0.0
C992 C 0.39783 0.76388 0.70404 0.0
C993 C 0.41683 0.77484 0.68658 0.0
H994 H 0.36716 0.75544 0.69734 0.0
H995 H 0.54368 0.87339 0.50863 0.0
H996 H 0.19377 0.51352 0.8992 0.0
H997 H 0.21062 0.51383 0.96624 0.0
H998 H 0.24281 0.49092 0.89687 0.0
H999 H 0.22622 0.49068 0.82985 0.0
H1000 H 0.23023 0.47298 0.97333 0.0
H1001 H 0.26308 0.53913 0.91857 0.0
H1002 H 0.2655 0.57011 0.89315 0.0
H1003 H 0.24666 0.57881 0.01799 0.0
H1004 H 0.24334 0.54744 0.04375 0.0
H1005 H 0.32064 0.5294 0.12306 0.0
H1006 H 0.30067 0.52906 0.06171 0.0
H1007 H 0.24808 0.48399 0.1248 0.0
H1008 H 0.26795 0.48427 0.18621 0.0
H1009 H 0.27036 0.53606 0.05251 0.0
H1010 H 0.21806 0.4516 0.04797 0.0
H1011 H 0.21806 0.42114 0.0687 0.0
H1012 H 0.28115 0.45087 0.05441 0.0
H1013 H 0.2815 0.4814 0.03304 0.0
C1014 C 0.20445 0.50858 0.89818 0.0
C1015 C 0.20873 0.50217 0.85904 0.0
C1016 C 0.21401 0.50871 0.93655 0.0
C1017 C 0.22808 0.50257 0.93637 0.0
C1018 C 0.23194 0.49565 0.8977 0.0
C1019 C 0.22239 0.49547 0.85941 0.0
C1020 C 0.23931 0.50388 0.97604 0.0
C1021 C 0.23889 0.48674 0.99082 0.0
C1022 C 0.25085 0.52194 0.99836 0.0
C1023 C 0.25272 0.54078 0.98293 0.0
C1024 C 0.25917 0.54749 0.94046 0.0
C1025 C 0.26068 0.56511 0.92597 0.0
C1026 C 0.25609 0.57633 0.95386 0.0
C1027 C 0.25001 0.56998 0.99633 0.0
C1028 C 0.24828 0.55226 1.01087 0.0
C1029 C 0.3048 0.5196 0.1241 0.0
C1030 C 0.29589 0.50673 0.1593 0.0
C1031 C 0.29342 0.51942 0.08904 0.0
C1032 C 0.27294 0.50636 0.08855 0.0
C1033 C 0.26392 0.49396 0.12425 0.0
C1034 C 0.2753 0.49407 0.15921 0.0
C1035 C 0.26117 0.50513 0.04986 0.0
C1036 C 0.26148 0.52227 0.03531 0.0
C1037 C 0.24985 0.48717 0.02712 0.0
C1038 C 0.24981 0.46882 0.0394 0.0
C1039 C 0.23192 0.4516 0.04913 0.0
C1040 C 0.23186 0.43434 0.061 0.0
C1041 C 0.2496 0.43409 0.06302 0.0
C1042 C 0.26743 0.4511 0.053 0.0
C1043 C 0.26757 0.46839 0.04106 0.0
H1044 H 0.24953 0.42072 0.07226 0.0
H1045 H 0.25732 0.59001 0.94264 0.0
H1046 H 0.80827 0.3176 0.61707 0.0
H1047 H 0.79005 0.29653 0.5555 0.0
H1048 H 0.80065 0.25093 0.60364 0.0
H1049 H 0.81857 0.27177 0.66567 0.0
H1050 H 0.79982 0.27908 0.49011 0.0
H1051 H 0.75805 0.20653 0.58704 0.0
H1052 H 0.74671 0.19553 0.66191 0.0
H1053 H 0.74373 0.24807 0.68561 0.0
H1054 H 0.75476 0.25924 0.61074 0.0
H1055 H 0.74813 0.19757 0.34495 0.0
H1056 H 0.76902 0.2181 0.40481 0.0
H1057 H 0.71959 0.22127 0.45795 0.0
H1058 H 0.69867 0.20064 0.39865 0.0
H1059 H 0.7401 0.2144 0.52053 0.0
H1060 H 0.75351 0.25901 0.40149 0.0
H1061 H 0.76336 0.2714 0.32687 0.0
H1062 H 0.82031 0.27706 0.34745 0.0
H1063 H 0.81068 0.26442 0.42204 0.0
C1064 C 0.80669 0.30307 0.61454 0.0
C1065 C 0.81468 0.29626 0.64642 0.0
C1066 C 0.79645 0.29114 0.57917 0.0
C1067 C 0.79385 0.27211 0.57528 0.0
C1068 C 0.80235 0.2655 0.60629 0.0
C1069 C 0.81268 0.27747 0.64155 0.0
C1070 C 0.78149 0.25888 0.53986 0.0
C1071 C 0.78684 0.26488 0.49671 0.0
C1072 C 0.76439 0.24051 0.54856 0.0
C1073 C 0.75745 0.23381 0.59346 0.0
C1074 C 0.75491 0.2157 0.60821 0.0
C1075 C 0.74854 0.20944 0.65064 0.0
C1076 C 0.74457 0.22113 0.67854 0.0
C1077 C 0.74688 0.23907 0.66402 0.0
C1078 C 0.75321 0.24538 0.62161 0.0
C1079 C 0.74171 0.20248 0.36968 0.0
C1080 C 0.72182 0.19763 0.36701 0.0
C1081 C 0.75366 0.2143 0.40363 0.0
C1082 C 0.74587 0.22133 0.43555 0.0
C1083 C 0.72589 0.21604 0.43357 0.0
C1084 C 0.71401 0.20439 0.39952 0.0
C1085 C 0.75854 0.23448 0.47073 0.0
C1086 C 0.75323 0.22848 0.51388 0.0
C1087 C 0.77549 0.25298 0.462 0.0
C1088 C 0.78129 0.26055 0.41717 0.0
C1089 C 0.76807 0.26272 0.38997 0.0
C1090 C 0.77362 0.26982 0.34771 0.0
C1091 C 0.79243 0.27496 0.33239 0.0
C1092 C 0.80573 0.27304 0.35934 0.0
C1093 C 0.80024 0.26591 0.40161 0.0
H1094 H 0.79671 0.28047 0.29967 0.0
H1095 H 0.73967 0.21627 0.71139 0.0
H1096 H 0.48634 0.79488 0.1182 0.0
H1097 H 0.48536 0.77907 0.04953 0.0
H1098 H 0.54775 0.79983 0.05955 0.0
H1099 H 0.54881 0.81507 0.12938 0.0
H1100 H 0.53684 0.80593 0.97811 0.0
H1101 H 0.51478 0.75259 0.08228 0.0
H1102 H 0.49338 0.73033 0.13999 0.0
H1103 H 0.44256 0.71083 0.05793 0.0
H1104 H 0.46363 0.73333 1.00012 0.0
H1105 H 0.55131 0.74444 0.83227 0.0
H1106 H 0.54927 0.76396 0.89181 0.0
H1107 H 0.48587 0.73423 0.87728 0.0
H1108 H 0.48787 0.7145 0.81798 0.0
H1109 H 0.49469 0.73359 0.95793 0.0
H1110 H 0.51602 0.78398 0.85148 0.0
H1111 H 0.53656 0.80567 0.79218 0.0
H1112 H 0.58737 0.83083 0.87559 0.0
H1113 H 0.56719 0.80909 0.93525 0.0
C1114 C 0.49985 0.79588 0.10643 0.0
C1115 C 0.51764 0.80613 0.12993 0.0
C1116 C 0.49925 0.78692 0.06685 0.0
C1117 C 0.51645 0.78822 0.0496 0.0
C1118 C 0.53431 0.79873 0.07232 0.0
C1119 C 0.53489 0.8075 0.11223 0.0
C1120 C 0.51584 0.77847 1.00799 0.0
C1121 C 0.52779 0.79009 0.9737 0.0
C1122 C 0.50343 0.75793 1.00187 0.0
C1123 C 0.49074 0.74475 0.03703 0.0
C1124 C 0.49901 0.74372 0.07674 0.0
C1125 C 0.48695 0.73104 0.10945 0.0
C1126 C 0.46662 0.71921 0.10268 0.0
C1127 C 0.4583 0.72004 0.06319 0.0
C1128 C 0.4703 0.73275 0.03046 0.0
C1129 C 0.537 0.7424 0.84111 0.0
C1130 C 0.51975 0.72788 0.82064 0.0
C1131 C 0.53583 0.75358 0.87513 0.0
C1132 C 0.51742 0.75068 0.88885 0.0
C1133 C 0.50023 0.73669 0.86733 0.0
C1134 C 0.50138 0.72539 0.83356 0.0
C1135 C 0.51601 0.76097 0.92797 0.0
C1136 C 0.50363 0.74947 0.96191 0.0
C1137 C 0.52789 0.78165 0.93354 0.0
C1138 C 0.5401 0.79478 0.89776 0.0
C1139 C 0.5316 0.79402 0.85709 0.0
C1140 C 0.54318 0.80635 0.82343 0.0
C1141 C 0.56327 0.81959 0.83009 0.0
C1142 C 0.57181 0.82056 0.87047 0.0
C1143 C 0.5603 0.80825 0.90425 0.0
H1144 H 0.5722 0.82912 0.80398 0.0
H1145 H 0.45731 0.70937 0.128 0.0
H1146 H 0.76637 0.5574 0.68313 0.0
H1147 H 0.78646 0.56364 0.6177 0.0
H1148 H 0.7393 0.51121 0.5585 0.0
H1149 H 0.71936 0.50469 0.62349 0.0
H1150 H 0.79948 0.54039 0.58033 0.0
H1151 H 0.73775 0.51855 0.45202 0.0
H1152 H 0.70713 0.51994 0.44282 0.0
H1153 H 0.72943 0.56968 0.52911 0.0
H1154 H 0.76029 0.56876 0.53839 0.0
H1155 H 0.81403 0.50296 0.38486 0.0
H1156 H 0.80189 0.50974 0.45155 0.0
H1157 H 0.81189 0.56502 0.3989 0.0
H1158 H 0.82456 0.55858 0.33194 0.0
H1159 H 0.77478 0.54279 0.43351 0.0
H1160 H 0.84131 0.56597 0.47723 0.0
H1161 H 0.87178 0.56431 0.48635 0.0
H1162 H 0.84098 0.51383 0.56921 0.0
H1163 H 0.81022 0.51502 0.56009 0.0
C1164 C 0.76029 0.54719 0.65622 0.0
C1165 C 0.74118 0.5306 0.65859 0.0
C1166 C 0.77176 0.55083 0.61884 0.0
C1167 C 0.76424 0.53803 0.58314 0.0
C1168 C 0.74521 0.5215 0.58538 0.0
C1169 C 0.73379 0.51784 0.62263 0.0
C1170 C 0.77644 0.5413 0.54397 0.0
C1171 C 0.79422 0.54114 0.54823 0.0
C1172 C 0.76964 0.54255 0.50222 0.0
C1173 C 0.75131 0.54352 0.49605 0.0
C1174 C 0.73619 0.52988 0.46879 0.0
C1175 C 0.71877 0.53056 0.46363 0.0
C1176 C 0.71632 0.54487 0.48542 0.0
C1177 C 0.73132 0.55857 0.51233 0.0
C1178 C 0.74877 0.55796 0.51759 0.0
C1179 C 0.81411 0.51678 0.38751 0.0
C1180 C 0.82035 0.53025 0.35279 0.0
C1181 C 0.80708 0.5206 0.42577 0.0
C1182 C 0.80616 0.53795 0.43022 0.0
C1183 C 0.81252 0.55154 0.396 0.0
C1184 C 0.81966 0.54778 0.3577 0.0
C1185 C 0.79747 0.54121 0.46982 0.0
C1186 C 0.78028 0.54249 0.46562 0.0
C1187 C 0.80487 0.54108 0.51161 0.0
C1188 C 0.82342 0.54051 0.51773 0.0
C1189 C 0.84099 0.55444 0.49718 0.0
C1190 C 0.85832 0.55359 0.50237 0.0
C1191 C 0.8583 0.53894 0.52826 0.0
C1192 C 0.84096 0.52515 0.54913 0.0
C1193 C 0.82358 0.52593 0.54401 0.0
H1194 H 0.87172 0.5383 0.53222 0.0
H1195 H 0.70281 0.54535 0.48143 0.0
H1196 H 0.19609 0.7387 0.16706 0.0
H1197 H 0.21248 0.75941 0.10359 0.0
H1198 H 0.25288 0.737 0.09951 0.0
H1199 H 0.23657 0.71629 0.16276 0.0
H1200 H 0.27011 0.78035 0.09779 0.0
H1201 H 0.21753 0.71984 0.03188 0.0
H1202 H 0.18263 0.69478 0.01919 0.0
H1203 H 0.17086 0.7398 0.97455 0.0
H1204 H 0.20564 0.76515 0.98747 0.0
H1205 H 0.31782 0.80214 0.89437 0.0
H1206 H 0.30017 0.78859 0.96234 0.0
H1207 H 0.25768 0.80599 0.92725 0.0
H1208 H 0.27529 0.81967 0.85918 0.0
H1209 H 0.23953 0.76891 0.95201 0.0
H1210 H 0.2891 0.82862 1.00661 0.0
H1211 H 0.32112 0.85742 0.02606 0.0
H1212 H 0.33618 0.82027 0.09951 0.0
H1213 H 0.30461 0.79107 0.07909 0.0
C1214 C 0.20849 0.73825 0.15264 0.0
C1215 C 0.21511 0.72594 0.16984 0.0
C1216 C 0.21774 0.74997 0.11635 0.0
C1217 C 0.23384 0.74967 0.09708 0.0
C1218 C 0.24046 0.73739 0.1141 0.0
C1219 C 0.23107 0.7255 0.14997 0.0
C1220 C 0.24419 0.76244 0.05967 0.0
C1221 C 0.26367 0.77778 0.06561 0.0
C1222 C 0.23508 0.75973 0.01874 0.0
C1223 C 0.21417 0.74441 0.01108 0.0
C1224 C 0.20748 0.72441 0.01972 0.0
C1225 C 0.18772 0.71015 0.0124 0.0
C1226 C 0.17453 0.7157 0.9962 0.0
C1227 C 0.18108 0.73552 0.98717 0.0
C1228 C 0.20082 0.74983 0.99445 0.0
C1229 C 0.30495 0.80344 0.90137 0.0
C1230 C 0.29792 0.81191 0.8711 0.0
C1231 C 0.29489 0.79571 0.94034 0.0
C1232 C 0.27772 0.79644 0.95005 0.0
C1233 C 0.2709 0.80527 0.9204 0.0
C1234 C 0.28093 0.81297 0.88138 0.0
C1235 C 0.26603 0.78647 0.98935 0.0
C1236 C 0.24619 0.77168 0.98398 0.0
C1237 C 0.27465 0.79018 0.03122 0.0
C1238 C 0.29445 0.8075 0.04075 0.0
C1239 C 0.29937 0.82645 0.02609 0.0
C1240 C 0.31744 0.84291 0.0375 0.0
C1241 C 0.33066 0.84069 0.06409 0.0
C1242 C 0.32589 0.82199 0.07909 0.0
C1243 C 0.30794 0.80545 0.06736 0.0
H1244 H 0.34462 0.85345 0.07297 0.0
H1245 H 0.15925 0.70464 0.99056 0.0
H1246 H 0.5207 0.2156 0.62496 0.0
H1247 H 0.52088 0.23786 0.56921 0.0
H1248 H 0.47331 0.24015 0.63556 0.0
H1249 H 0.4725 0.21694 0.68998 0.0
H1250 H 0.46574 0.23717 0.55656 0.0
H1251 H 0.5233 0.27932 0.63619 0.0
H1252 H 0.55523 0.29053 0.67272 0.0
H1253 H 0.582 0.29079 0.55081 0.0
H1254 H 0.55016 0.27925 0.51362 0.0
H1255 H 0.516 0.33189 0.40722 0.0
H1256 H 0.51465 0.31571 0.47624 0.0
H1257 H 0.47992 0.25876 0.41506 0.0
H1258 H 0.48057 0.27493 0.34696 0.0
H1259 H 0.52787 0.29381 0.50122 0.0
H1260 H 0.44925 0.22437 0.48197 0.0
H1261 H 0.41678 0.21612 0.45184 0.0
H1262 H 0.43119 0.27648 0.46594 0.0
H1263 H 0.46362 0.28505 0.49673 0.0
C1264 C 0.51038 0.22099 0.62754 0.0
C1265 C 0.49661 0.2147 0.66152 0.0
C1266 C 0.51056 0.2338 0.59595 0.0
C1267 C 0.49738 0.24106 0.5986 0.0
C1268 C 0.48364 0.23479 0.6328 0.0
C1269 C 0.48315 0.22156 0.6638 0.0
C1270 C 0.49735 0.25443 0.56456 0.0
C1271 C 0.47933 0.24964 0.54474 0.0
C1272 C 0.51499 0.27113 0.54991 0.0
C1273 C 0.53425 0.2782 0.57215 0.0
C1274 C 0.53595 0.2816 0.61719 0.0
C1275 C 0.55405 0.28804 0.63803 0.0
C1276 C 0.57061 0.2913 0.61413 0.0
C1277 C 0.56914 0.28821 0.56931 0.0
C1278 C 0.55107 0.28173 0.54833 0.0
C1279 C 0.50802 0.31592 0.40884 0.0
C1280 C 0.49822 0.3046 0.37213 0.0
C1281 C 0.50724 0.3067 0.44814 0.0
C1282 C 0.49686 0.28601 0.45112 0.0
C1283 C 0.48748 0.27473 0.41404 0.0
C1284 C 0.48791 0.28394 0.37509 0.0
C1285 C 0.49637 0.27607 0.49241 0.0
C1286 C 0.51428 0.28151 0.51356 0.0
C1287 C 0.47855 0.26047 0.50941 0.0
C1288 C 0.45894 0.25537 0.49139 0.0
C1289 C 0.44545 0.23586 0.47888 0.0
C1290 C 0.42706 0.23113 0.46163 0.0
C1291 C 0.42194 0.24577 0.45689 0.0
C1292 C 0.43519 0.26516 0.46951 0.0
C1293 C 0.45359 0.26997 0.48681 0.0
H1294 H 0.4077 0.24208 0.44349 0.0
H1295 H 0.58461 0.29628 0.63032 0.0
H1296 H 0.67927 0.4755 0.91996 0.0
H1297 H 0.69797 0.4703 0.97654 0.0
H1298 H 0.74 0.47388 0.88104 0.0
H1299 H 0.72077 0.47858 0.82362 0.0
H1300 H 0.73542 0.44757 0.94379 0.0
H1301 H 0.74857 0.51432 0.94337 0.0
H1302 H 0.74014 0.54077 0.9447 0.0
H1303 H 0.71248 0.52083 0.0691 0.0
H1304 H 0.7205 0.49407 0.06822 0.0
H1305 H 0.81905 0.48128 0.08149 0.0
H1306 H 0.79437 0.47622 0.02717 0.0
H1307 H 0.75356 0.47005 0.12842 0.0
H1308 H 0.77858 0.47521 0.18362 0.0
H1309 H 0.75592 0.49576 0.06489 0.0
H1310 H 0.7466 0.43093 0.06791 0.0
H1311 H 0.75709 0.40606 0.06667 0.0
H1312 H 0.77876 0.4229 0.93666 0.0
H1313 H 0.76903 0.44842 0.93764 0.0
C1314 C 0.69226 0.47474 0.91073 0.0
C1315 C 0.69851 0.47748 0.86716 0.0
C1316 C 0.70308 0.47192 0.94331 0.0
C1317 C 0.72081 0.47223 0.93363 0.0
C1318 C 0.72647 0.4737 0.88967 0.0
C1319 C 0.71541 0.47628 0.85672 0.0
C1320 C 0.73384 0.4723 0.96972 0.0
C1321 C 0.74006 0.45825 0.96997 0.0
C1322 C 0.73969 0.48592 1.00477 0.0
C1323 C 0.73496 0.50208 1.00553 0.0
C1324 C 0.74057 0.5155 0.97088 0.0
C1325 C 0.73588 0.53055 0.97156 0.0
C1326 C 0.72574 0.53245 1.00691 0.0
C1327 C 0.72031 0.51932 0.04171 0.0
C1328 C 0.72494 0.50421 0.04115 0.0
C1329 C 0.80472 0.47854 0.09246 0.0
C1330 C 0.80084 0.47861 0.13712 0.0
C1331 C 0.79053 0.47558 0.06115 0.0
C1332 C 0.77193 0.47261 0.07332 0.0
C1333 C 0.76776 0.47224 0.11801 0.0
C1334 C 0.782 0.47502 0.14963 0.0
C1335 C 0.75751 0.47105 0.03904 0.0
C1336 C 0.75112 0.48492 0.03898 0.0
C1337 C 0.75169 0.45736 1.00412 0.0
C1338 C 0.75722 0.44175 1.00301 0.0
C1339 C 0.75376 0.42948 0.03915 0.0
C1340 C 0.75957 0.41524 0.0385 0.0
C1341 C 0.76856 0.41287 1.00158 0.0
C1342 C 0.77179 0.42476 0.96525 0.0
C1343 C 0.76616 0.43915 0.96587 0.0
H1344 H 0.77302 0.4018 1.00112 0.0
H1345 H 0.72212 0.54411 1.00739 0.0
H1346 H 0.24845 0.7143 0.33557 0.0
H1347 H 0.27265 0.73444 0.39157 0.0
H1348 H 0.23692 0.69169 0.4887 0.0
H1349 H 0.21258 0.67221 0.43334 0.0
H1350 H 0.24559 0.72497 0.51842 0.0
H1351 H 0.2851 0.70107 0.45246 0.0
H1352 H 0.30208 0.69437 0.393 0.0
H1353 H 0.33722 0.75646 0.36723 0.0
H1354 H 0.32027 0.76353 0.42619 0.0
H1355 H 0.31354 0.77478 0.6923 0.0
H1356 H 0.29475 0.74904 0.63758 0.0
H1357 H 0.32246 0.79198 0.5357 0.0
H1358 H 0.34102 0.81743 0.58963 0.0
H1359 H 0.31858 0.75697 0.51097 0.0
H1360 H 0.27694 0.77998 0.57374 0.0
H1361 H 0.26012 0.78648 0.63389 0.0
H1362 H 0.229 0.72486 0.6663 0.0
H1363 H 0.24587 0.71804 0.60666 0.0
C1364 C 0.24613 0.70897 0.36866 0.0
C1365 C 0.22868 0.69157 0.37993 0.0
C1366 C 0.25995 0.72053 0.40088 0.0
C1367 C 0.25679 0.71473 0.44491 0.0
C1368 C 0.23981 0.69676 0.4554 0.0
C1369 C 0.22594 0.68547 0.42353 0.0
C1370 C 0.27014 0.72782 0.48061 0.0
C1371 C 0.26153 0.73159 0.51692 0.0
C1372 C 0.29105 0.737 0.47896 0.0
C1373 C 0.30127 0.73281 0.44348 0.0
C1374 C 0.29634 0.71329 0.4339 0.0
C1375 C 0.30598 0.70942 0.40032 0.0
C1376 C 0.32068 0.72497 0.37628 0.0
C1377 C 0.32581 0.74443 0.38584 0.0
C1378 C 0.3162 0.74837 0.41936 0.0
C1379 C 0.31589 0.77858 0.6582 0.0
C1380 C 0.32871 0.79821 0.64545 0.0
C1381 C 0.30504 0.7639 0.62688 0.0
C1382 C 0.30695 0.76854 0.58223 0.0
C1383 C 0.32061 0.7879 0.56966 0.0
C1384 C 0.3312 0.8025 0.60074 0.0
C1385 C 0.29394 0.75388 0.54851 0.0
C1386 C 0.30261 0.75 0.51252 0.0
C1387 C 0.27306 0.74447 0.55048 0.0
C1388 C 0.26283 0.74854 0.5861 0.0
C1389 C 0.26662 0.76784 0.59391 0.0
C1390 C 0.25706 0.77158 0.62787 0.0
C1391 C 0.24354 0.7561 0.65398 0.0
C1392 C 0.23951 0.73684 0.6461 0.0
C1393 C 0.24906 0.73303 0.61223 0.0
H1394 H 0.23616 0.75902 0.68026 0.0
H1395 H 0.32813 0.72195 0.3503 0.0
H1396 H 0.50012 0.29569 0.13303 0.0
H1397 H 0.50703 0.27761 0.0785 0.0
H1398 H 0.56892 0.31009 0.11136 0.0
H1399 H 0.56199 0.32887 0.16644 0.0
H1400 H 0.5643 0.30893 0.02412 0.0
H1401 H 0.54216 0.25989 0.1309 0.0
H1402 H 0.52157 0.23814 0.19008 0.0
H1403 H 0.4715 0.21107 0.1047 0.0
H1404 H 0.49172 0.23281 0.04511 0.0
H1405 H 0.56258 0.24053 0.85368 0.0
H1406 H 0.56979 0.26131 0.91916 0.0
H1407 H 0.50832 0.24461 0.92786 0.0
H1408 H 0.5012 0.22438 0.86314 0.0
H1409 H 0.52181 0.23686 1.0033 0.0
H1410 H 0.54325 0.29031 0.89979 0.0
H1411 H 0.56413 0.31322 0.84249 0.0
H1412 H 0.61542 0.33294 0.92307 0.0
H1413 H 0.59487 0.30991 0.98063 0.0
C1414 C 0.51523 0.29891 0.12939 0.0
C1415 C 0.53048 0.31382 0.15443 0.0
C1416 C 0.51916 0.28835 0.09813 0.0
C1417 C 0.5385 0.2922 0.09063 0.0
C1418 C 0.55382 0.30669 0.11645 0.0
C1419 C 0.54985 0.31736 0.14819 0.0
C1420 C 0.54226 0.28191 0.05356 0.0
C1421 C 0.55515 0.29317 0.01992 0.0
C1422 C 0.53077 0.26118 0.04786 0.0
C1423 C 0.51846 0.24806 0.08356 0.0
C1424 C 0.52673 0.24939 0.12481 0.0
C1425 C 0.51512 0.23704 0.15842 0.0
C1426 C 0.49523 0.22325 0.15117 0.0
C1427 C 0.48691 0.22176 0.11026 0.0
C1428 C 0.49845 0.23406 0.07652 0.0
C1429 C 0.55079 0.24192 0.86868 0.0
C1430 C 0.53128 0.23071 0.85305 0.0
C1431 C 0.55488 0.25365 0.90645 0.0
C1432 C 0.53953 0.25432 0.92914 0.0
C1433 C 0.52041 0.24418 0.91162 0.0
C1434 C 0.51637 0.23266 0.87423 0.0
C1435 C 0.54247 0.26421 0.97253 0.0
C1436 C 0.53098 0.25269 1.00762 0.0
C1437 C 0.55519 0.28471 0.97935 0.0
C1438 C 0.56759 0.29804 0.94414 0.0
C1439 C 0.55903 0.29926 0.90501 0.0
C1440 C 0.57079 0.31236 0.87256 0.0
C1441 C 0.59111 0.32445 0.87902 0.0
C1442 C 0.59969 0.32352 0.91803 0.0
C1443 C 0.58799 0.31045 0.95056 0.0
H1444 H 0.60019 0.3346 0.85389 0.0
H1445 H 0.48627 0.21371 0.17724 0.0
H1446 H 0.29393 0.50791 0.36971 0.0
H1447 H 0.27472 0.51409 0.4233 0.0
H1448 H 0.31691 0.5764 0.41883 0.0
H1449 H 0.33634 0.5702 0.364 0.0
H1450 H 0.30604 0.55993 0.50643 0.0
H1451 H 0.27403 0.56259 0.37685 0.0
H1452 H 0.25855 0.55137 0.30498 0.0
H1453 H 0.21356 0.49704 0.36064 0.0
H1454 H 0.22894 0.5078 0.43276 0.0
H1455 H 0.23655 0.56627 0.656 0.0
H1456 H 0.26076 0.57295 0.5976 0.0
H1457 H 0.22379 0.51393 0.54832 0.0
H1458 H 0.19976 0.50755 0.60473 0.0
H1459 H 0.23497 0.53692 0.48365 0.0
H1460 H 0.26938 0.53101 0.60876 0.0
H1461 H 0.28503 0.54035 0.68093 0.0
H1462 H 0.32514 0.59881 0.63478 0.0
H1463 H 0.30955 0.58987 0.56244 0.0
C1464 C 0.29903 0.52301 0.37949 0.0
C1465 C 0.31661 0.53857 0.36218 0.0
C1466 C 0.288 0.52653 0.41033 0.0
C1467 C 0.29426 0.54571 0.42534 0.0
C1468 C 0.31173 0.56145 0.40783 0.0
C1469 C 0.32271 0.55794 0.37614 0.0
C1470 C 0.28241 0.54875 0.45975 0.0
C1471 C 0.2906 0.55534 0.50124 0.0
C1472 C 0.26215 0.54244 0.45349 0.0
C1473 C 0.25271 0.53598 0.41022 0.0
C1474 C 0.26091 0.5482 0.37374 0.0
C1475 C 0.25214 0.54193 0.33295 0.0
C1476 C 0.2351 0.5235 0.32824 0.0
C1477 C 0.22676 0.51132 0.36434 0.0
C1478 C 0.23548 0.51751 0.4052 0.0
C1479 C 0.23372 0.55475 0.63279 0.0
C1480 C 0.21609 0.53641 0.63516 0.0
C1481 C 0.2476 0.55854 0.59935 0.0
C1482 C 0.24426 0.54396 0.56803 0.0
C1483 C 0.22682 0.5256 0.57132 0.0
C1484 C 0.21301 0.52194 0.60402 0.0
C1485 C 0.2583 0.54733 0.53113 0.0
C1486 C 0.25049 0.54191 0.48894 0.0
C1487 C 0.27881 0.55449 0.53699 0.0
C1488 C 0.28814 0.55985 0.58041 0.0
C1489 C 0.28143 0.5459 0.61412 0.0
C1490 C 0.29031 0.55111 0.65503 0.0
C1491 C 0.30602 0.57018 0.66248 0.0
C1492 C 0.31293 0.58406 0.629 0.0
C1493 C 0.30409 0.57893 0.58804 0.0
H1494 H 0.31288 0.57419 0.69417 0.0
H1495 H 0.22834 0.51866 0.29663 0.0
H1496 H 0.69955 0.2362 0.17786 0.0
H1497 H 0.71695 0.25911 0.11747 0.0
H1498 H 0.72866 0.21579 0.05934 0.0
H1499 H 0.71245 0.1937 0.11935 0.0
H1500 H 0.75929 0.24879 0.04899 0.0
H1501 H 0.6896 0.22549 0.02132 0.0
H1502 H 0.65733 0.22018 0.04678 0.0
H1503 H 0.68267 0.2825 0.06773 0.0
H1504 H 0.71517 0.28804 0.04321 0.0
H1505 H 0.78136 0.27328 0.83329 0.0
H1506 H 0.76094 0.25617 0.89619 0.0
H1507 H 0.75991 0.30888 0.93269 0.0
H1508 H 0.7794 0.32567 0.86765 0.0
H1509 H 0.72613 0.27656 0.96028 0.0
H1510 H 0.79524 0.29751 0.96678 0.0
H1511 H 0.82659 0.29971 0.94524 0.0
H1512 H 0.80096 0.23726 0.9638 0.0
H1513 H 0.76937 0.23472 0.98511 0.0
C1514 C 0.70612 0.23175 0.15249 0.0
C1515 C 0.70448 0.21299 0.15377 0.0
C1516 C 0.71589 0.24478 0.11756 0.0
C1517 C 0.724 0.23921 0.08293 0.0
C1518 C 0.72271 0.22069 0.08518 0.0
C1519 C 0.71324 0.20791 0.11985 0.0
C1520 C 0.73364 0.25205 0.04372 0.0
C1521 C 0.75189 0.25467 0.02946 0.0
C1522 C 0.72445 0.26033 0.01842 0.0
C1523 C 0.70474 0.25721 0.0303 0.0
C1524 C 0.68822 0.23805 0.03113 0.0
C1525 C 0.66994 0.23498 0.04561 0.0
C1526 C 0.66798 0.25098 0.05905 0.0
C1527 C 0.68422 0.27012 0.05737 0.0
C1528 C 0.70256 0.27325 0.04306 0.0
C1529 C 0.77607 0.28098 0.85364 0.0
C1530 C 0.78202 0.30084 0.84531 0.0
C1531 C 0.76459 0.27126 0.89013 0.0
C1532 C 0.75941 0.28136 0.92054 0.0
C1533 C 0.76381 0.3007 0.91026 0.0
C1534 C 0.7749 0.3103 0.87282 0.0
C1535 C 0.75133 0.27234 0.96439 0.0
C1536 C 0.73354 0.27069 0.97975 0.0
C1537 C 0.76076 0.26445 0.99038 0.0
C1538 C 0.77988 0.266 0.97773 0.0
C1539 C 0.79629 0.28429 0.96648 0.0
C1540 C 0.8141 0.28557 0.95414 0.0
C1541 C 0.81579 0.26863 0.95321 0.0
C1542 C 0.79965 0.25038 0.9646 0.0
C1543 C 0.78178 0.24903 0.97685 0.0
H1544 H 0.8296 0.26964 0.94363 0.0
H1545 H 0.6539 0.24853 0.07092 0.0
H1546 H 0.46337 0.77891 0.37113 0.0
H1547 H 0.45875 0.75727 0.43317 0.0
H1548 H 0.49987 0.74224 0.37618 0.0
H1549 H 0.5058 0.7652 0.31618 0.0
H1550 H 0.45589 0.70936 0.42015 0.0
H1551 H 0.52094 0.76748 0.43379 0.0
H1552 H 0.54549 0.80274 0.44078 0.0
H1553 H 0.51762 0.80587 0.55817 0.0
H1554 H 0.49186 0.77105 0.54983 0.0
H1555 H 0.48834 0.66563 0.57713 0.0
H1556 H 0.48286 0.68289 0.51797 0.0
H1557 H 0.46941 0.71595 0.61041 0.0
H1558 H 0.47503 0.69849 0.67044 0.0
H1559 H 0.49652 0.74004 0.55149 0.0
H1560 H 0.43342 0.68156 0.54189 0.0
H1561 H 0.41005 0.64575 0.53771 0.0
H1562 H 0.43651 0.64253 0.41808 0.0
H1563 H 0.46023 0.67828 0.42182 0.0
C1564 C 0.47114 0.77072 0.37145 0.0
C1565 C 0.48486 0.77368 0.33855 0.0
C1566 C 0.4686 0.75845 0.40713 0.0
C1567 C 0.47926 0.74839 0.40987 0.0
C1568 C 0.49169 0.75005 0.37517 0.0
C1569 C 0.49489 0.76298 0.34057 0.0
C1570 C 0.47788 0.73656 0.44923 0.0
C1571 C 0.46483 0.71607 0.4488 0.0
C1572 C 0.48926 0.7453 0.48715 0.0
C1573 C 0.5039 0.76672 0.4901 0.0
C1574 C 0.51942 0.77585 0.45993 0.0
C1575 C 0.53366 0.7958 0.46429 0.0
C1576 C 0.53293 0.80668 0.49951 0.0
C1577 C 0.518 0.79758 0.53046 0.0
C1578 C 0.50342 0.77778 0.52564 0.0
C1579 C 0.48376 0.67625 0.58502 0.0
C1580 C 0.48202 0.68058 0.62864 0.0
C1581 C 0.48056 0.68612 0.55096 0.0
C1582 C 0.47557 0.70073 0.5593 0.0
C1583 C 0.47316 0.70469 0.60291 0.0
C1584 C 0.47618 0.69458 0.63728 0.0
C1585 C 0.4746 0.7128 0.52249 0.0
C1586 C 0.48728 0.73335 0.5232 0.0
C1587 C 0.46301 0.70411 0.48479 0.0
C1588 C 0.4487 0.6826 0.4823 0.0
C1589 C 0.43435 0.6732 0.51484 0.0
C1590 C 0.42102 0.65291 0.51252 0.0
C1591 C 0.42182 0.64187 0.47769 0.0
C1592 C 0.43592 0.65111 0.44505 0.0
C1593 C 0.44929 0.67139 0.44722 0.0
H1594 H 0.41149 0.62617 0.47596 0.0
H1595 H 0.54408 0.82207 0.50313 0.0
H1596 H 0.37102 0.4556 0.25463 0.0
H1597 H 0.38969 0.43831 0.25959 0.0
H1598 H 0.44411 0.49343 0.24278 0.0
H1599 H 0.42551 0.51094 0.2393 0.0
H1600 H 0.41218 0.43271 0.20674 0.0
H1601 H 0.48147 0.49196 0.29945 0.0
H1602 H 0.49035 0.51834 0.35366 0.0
H1603 H 0.43036 0.48958 0.39896 0.0
H1604 H 0.42118 0.46291 0.34554 0.0
H1605 H 0.48644 0.40732 0.19276 0.0
H1606 H 0.46894 0.42583 0.19231 0.0
H1607 H 0.45974 0.41742 0.33042 0.0
H1608 H 0.4776 0.39902 0.33112 0.0
H1609 H 0.46781 0.45354 0.31 0.0
H1610 H 0.42261 0.38902 0.25749 0.0
H1611 H 0.41109 0.35947 0.21141 0.0
H1612 H 0.41787 0.39407 0.09798 0.0
H1613 H 0.4297 0.42391 0.14335 0.0
C1614 C 0.38697 0.4641 0.25215 0.0
C1615 C 0.39672 0.48472 0.24678 0.0
C1616 C 0.39765 0.45415 0.25474 0.0
C1617 C 0.41839 0.46453 0.25216 0.0
C1618 C 0.42816 0.48507 0.2456 0.0
C1619 C 0.41747 0.49505 0.24302 0.0
C1620 C 0.42963 0.45377 0.25613 0.0
C1621 C 0.42438 0.43735 0.22925 0.0
C1622 C 0.44529 0.45942 0.28621 0.0
C1623 C 0.45061 0.47554 0.31812 0.0
C1624 C 0.47018 0.49126 0.32101 0.0
C1625 C 0.47527 0.50626 0.35164 0.0
C1626 C 0.46092 0.50565 0.37973 0.0
C1627 C 0.44145 0.49007 0.37716 0.0
C1628 C 0.43629 0.47503 0.34664 0.0
C1629 C 0.48067 0.40936 0.22309 0.0
C1630 C 0.48322 0.40144 0.26191 0.0
C1631 C 0.47064 0.41997 0.22279 0.0
C1632 C 0.46261 0.42273 0.26117 0.0
C1633 C 0.46571 0.41545 0.30031 0.0
C1634 C 0.47594 0.40494 0.3007 0.0
C1635 C 0.4506 0.43278 0.25997 0.0
C1636 C 0.45569 0.44901 0.28734 0.0
C1637 C 0.43442 0.42665 0.23119 0.0
C1638 C 0.42721 0.40873 0.20379 0.0
C1639 C 0.42177 0.39035 0.22269 0.0
C1640 C 0.41517 0.37355 0.19671 0.0
C1641 C 0.41379 0.3749 0.15179 0.0
C1642 C 0.41896 0.39306 0.13278 0.0
C1643 C 0.4256 0.40991 0.15861 0.0
H1644 H 0.40867 0.36188 0.13172 0.0
H1645 H 0.46492 0.51723 0.40355 0.0
H1646 H 0.08852 0.48193 0.70849 0.0
H1647 H 0.05233 0.46482 0.7069 0.0
H1648 H 0.0507 0.4567 0.84543 0.0
H1649 H 0.08711 0.47426 0.8473 0.0
H1650 H 0.02446 0.42111 0.79082 0.0
H1651 H 0.04121 0.48906 0.81493 0.0
H1652 H 0.05895 0.52454 0.79723 0.0
H1653 H 0.03219 0.5117 0.67094 0.0
H1654 H 0.01448 0.4761 0.68771 0.0
H1655 H 0.9237 0.38436 0.82933 0.0
H1656 H 0.95945 0.40254 0.83027 0.0
H1657 H 0.96014 0.42842 0.70643 0.0
H1658 H 0.92403 0.41158 0.70708 0.0
H1659 H 0.98756 0.45519 0.75137 0.0
H1660 H 0.97116 0.38924 0.72132 0.0
H1661 H 0.95468 0.35313 0.73023 0.0
H1662 H 0.98171 0.36066 0.8553 0.0
H1663 H 0.99815 0.39684 0.84741 0.0
C1664 C 0.08044 0.47647 0.73862 0.0
C1665 C 0.09061 0.47931 0.77803 0.0
C1666 C 0.05978 0.46677 0.73766 0.0
C1667 C 0.04881 0.45947 0.77601 0.0
C1668 C 0.05889 0.4622 0.81545 0.0
C1669 C 0.07964 0.47227 0.81654 0.0
C1670 C 0.02682 0.4489 0.77461 0.0
C1671 C 0.01632 0.42857 0.78293 0.0
C1672 C 0.0163 0.45848 0.76224 0.0
C1673 C 0.02666 0.4799 0.75245 0.0
C1674 C 0.03921 0.49379 0.78328 0.0
C1675 C 0.04925 0.51392 0.77343 0.0
C1676 C 0.04674 0.52037 0.73295 0.0
C1677 C 0.03413 0.50669 0.70228 0.0
C1678 C 0.02407 0.48653 0.71196 0.0
C1679 C 0.93126 0.39419 0.80252 0.0
C1680 C 0.92063 0.39651 0.76829 0.0
C1681 C 0.95193 0.40435 0.80272 0.0
C1682 C 0.96274 0.41664 0.76801 0.0
C1683 C 0.95226 0.41899 0.73363 0.0
C1684 C 0.9315 0.40911 0.7338 0.0
C1685 C 0.98491 0.42721 0.76823 0.0
C1686 C 0.99553 0.44758 0.75944 0.0
C1687 C 0.99561 0.41752 0.77898 0.0
C1688 C 0.98574 0.39576 0.78393 0.0
C1689 C 0.97347 0.3832 0.75087 0.0
C1690 C 0.96416 0.36272 0.75572 0.0
C1691 C 0.96711 0.35461 0.79335 0.0
C1692 C 0.97942 0.36697 0.82619 0.0
C1693 C 0.98875 0.38747 0.82153 0.0
H1694 H 0.95989 0.33874 0.79704 0.0
H1695 H 0.05453 0.53596 0.72537 0.0
H1696 H 0.62769 0.08132 0.33394 0.0
H1697 H 0.60913 0.04502 0.33408 0.0
H1698 H 0.58271 0.04512 0.21146 0.0
H1699 H 0.60123 0.08125 0.21108 0.0
H1700 H 0.55553 0.01736 0.26999 0.0
H1701 H 0.62013 0.03725 0.21164 0.0
H1702 H 0.65656 0.05494 0.21264 0.0
H1703 H 0.65563 0.02386 0.32807 0.0
H1704 H 0.61916 0.00618 0.32811 0.0
H1705 H 0.51755 0.91712 0.20896 0.0
H1706 H 0.53512 0.95321 0.20971 0.0
H1707 H 0.57021 0.95358 0.31798 0.0
H1708 H 0.55374 0.91775 0.31558 0.0
H1709 H 0.59292 0.98152 0.26749 0.0
H1710 H 0.52907 0.9616 0.32777 0.0
H1711 H 0.49265 0.94418 0.32991 0.0
H1712 H 0.49185 0.97525 0.21597 0.0
H1713 H 0.52828 0.99268 0.21283 0.0
C1714 C 0.61771 0.07358 0.30736 0.0
C1715 C 0.616 0.08414 0.2724 0.0
C1716 C 0.60721 0.05285 0.30731 0.0
C1717 C 0.59463 0.04231 0.27256 0.0
C1718 C 0.59232 0.05288 0.23856 0.0
C1719 C 0.60298 0.07353 0.23831 0.0
C1720 C 0.58442 0.02032 0.27061 0.0
C1721 C 0.56369 0.0095 0.26904 0.0
C1722 C 0.59502 0.01002 0.27025 0.0
C1723 C 0.61693 0.02056 0.27014 0.0
C1724 C 0.62769 0.03431 0.23745 0.0
C1725 C 0.64835 0.04431 0.23778 0.0
C1726 C 0.65841 0.04057 0.27046 0.0
C1727 C 0.64782 0.02677 0.30281 0.0
C1728 C 0.62716 0.01675 0.30266 0.0
C1729 C 0.52919 0.92485 0.23256 0.0
C1730 C 0.53393 0.9143 0.26259 0.0
C1731 C 0.53908 0.94557 0.23336 0.0
C1732 C 0.55376 0.95629 0.2646 0.0
C1733 C 0.55887 0.9458 0.29375 0.0
C1734 C 0.54919 0.92516 0.29266 0.0
C1735 C 0.56388 0.97835 0.26712 0.0
C1736 C 0.58465 0.98926 0.26865 0.0
C1737 C 0.55328 0.98871 0.26797 0.0
C1738 C 0.53139 0.97829 0.26981 0.0
C1739 C 0.52112 0.96461 0.30299 0.0
C1740 C 0.50048 0.95476 0.30441 0.0
C1741 C 0.48994 0.95857 0.27302 0.0
C1742 C 0.50003 0.97229 0.24021 0.0
C1743 C 0.52068 0.98217 0.23862 0.0
H1744 H 0.47396 0.95092 0.27418 0.0
H1745 H 0.6744 0.04832 0.27066 0.0
H1746 H 0.52724 0.59685 0.75389 0.0
H1747 H 0.54699 0.58077 0.74578 0.0
H1748 H 0.59964 0.6354 0.7787 0.0
H1749 H 0.57992 0.65166 0.78588 0.0
H1750 H 0.60689 0.61994 0.71145 0.0
H1751 H 0.57702 0.59464 0.8499 0.0
H1752 H 0.54969 0.5783 0.90239 0.0
H1753 H 0.52424 0.52521 0.82615 0.0
H1754 H 0.55129 0.54132 0.77287 0.0
H1755 H 0.6693 0.57874 0.7474 0.0
H1756 H 0.64959 0.59501 0.7534 0.0
H1757 H 0.5982 0.542 0.70818 0.0
H1758 H 0.61775 0.52553 0.70281 0.0
H1759 H 0.59031 0.55643 0.78127 0.0
H1760 H 0.62092 0.58215 0.6434 0.0
H1761 H 0.64872 0.59875 0.59213 0.0
H1762 H 0.67344 0.65148 0.66951 0.0
H1763 H 0.64591 0.6351 0.7216 0.0
C1764 C 0.54296 0.60534 0.76029 0.0
C1765 C 0.55199 0.6255 0.77091 0.0
C1766 C 0.55428 0.59613 0.75555 0.0
C1767 C 0.57484 0.60677 0.76206 0.0
C1768 C 0.58383 0.62684 0.77341 0.0
C1769 C 0.57254 0.63611 0.77767 0.0
C1770 C 0.58707 0.59721 0.75541 0.0
C1771 C 0.60341 0.6062 0.7273 0.0
C1772 C 0.58233 0.57901 0.77511 0.0
C1773 C 0.56609 0.56926 0.80718 0.0
C1774 C 0.56552 0.57953 0.84416 0.0
C1775 C 0.55009 0.5703 0.87408 0.0
C1776 C 0.53521 0.55075 0.86755 0.0
C1777 C 0.53576 0.54036 0.83114 0.0
C1778 C 0.55115 0.54953 0.80109 0.0
C1779 C 0.65385 0.5706 0.73835 0.0
C1780 C 0.64513 0.55083 0.72455 0.0
C1781 C 0.6426 0.57996 0.7416 0.0
C1782 C 0.62239 0.56976 0.73115 0.0
C1783 C 0.61376 0.55017 0.71641 0.0
C1784 C 0.62502 0.54085 0.71291 0.0
C1785 C 0.61009 0.57921 0.73747 0.0
C1786 C 0.59376 0.57018 0.7655 0.0
C1787 C 0.61491 0.59743 0.71794 0.0
C1788 C 0.63145 0.60733 0.68663 0.0
C1789 C 0.63237 0.59723 0.64968 0.0
C1790 C 0.64806 0.60661 0.62043 0.0
C1791 C 0.66286 0.62614 0.62762 0.0
C1792 C 0.66197 0.63635 0.66402 0.0
C1793 C 0.64632 0.62702 0.69339 0.0
H1794 H 0.67499 0.63338 0.60493 0.0
H1795 H 0.52328 0.54363 0.89075 0.0
H1796 H 0.09512 0.65501 0.26721 0.0
H1797 H 0.05902 0.63617 0.27113 0.0
H1798 H 0.05967 0.5836 0.23116 0.0
H1799 H 0.09578 0.60261 0.2259 0.0
H1800 H 0.02954 0.5832 0.19564 0.0
H1801 H 0.05502 0.59396 0.33854 0.0
H1802 H 0.07461 0.61248 0.4022 0.0
H1803 H 0.04226 0.64344 0.40969 0.0
H1804 H 0.02264 0.62528 0.34562 0.0
H1805 H 0.93281 0.51636 0.28016 0.0
H1806 H 0.96909 0.53499 0.27675 0.0
H1807 H 0.96806 0.58952 0.27175 0.0
H1808 H 0.93178 0.57093 0.27402 0.0
H1809 H 0.99797 0.58758 0.33184 0.0
H1810 H 0.97364 0.57582 0.18313 0.0
H1811 H 0.95362 0.55429 0.12298 0.0
H1812 H 0.98408 0.52152 0.13213 0.0
H1813 H 1.00408 0.54268 0.19286 0.0
C1814 C 0.08752 0.63949 0.25878 0.0
C1815 C 0.09828 0.63027 0.24641 0.0
C1816 C 0.06688 0.62868 0.26128 0.0
C1817 C 0.05655 0.6083 0.25246 0.0
C1818 C 0.06723 0.59926 0.23829 0.0
C1819 C 0.08788 0.61015 0.23516 0.0
C1820 C 0.03473 0.59637 0.25928 0.0
C1821 C 0.02274 0.58405 0.22567 0.0
C1822 C 0.02566 0.59735 0.29845 0.0
C1823 C 0.03746 0.60836 0.33699 0.0
C1824 C 0.05218 0.60483 0.35351 0.0
C1825 C 0.06328 0.61525 0.38972 0.0
C1826 C 0.05971 0.62916 0.40992 0.0
C1827 C 0.04501 0.63266 0.39398 0.0
C1828 C 0.03388 0.62229 0.35774 0.0
C1829 C 0.94036 0.53234 0.27906 0.0
C1830 C 0.92953 0.54223 0.27743 0.0
C1831 C 0.96105 0.54293 0.27691 0.0
C1832 C 0.97123 0.56361 0.27387 0.0
C1833 C 0.96047 0.57357 0.27415 0.0
C1834 C 0.93979 0.56296 0.27538 0.0
C1835 C 0.99302 0.57481 0.26807 0.0
C1836 C 1.00492 0.58686 0.30193 0.0
C1837 C 1.00205 0.57325 0.22962 0.0
C1838 C 0.99019 0.56068 0.19284 0.0
C1839 C 0.97594 0.56391 0.17259 0.0
C1840 C 0.96462 0.5518 0.13834 0.0
C1841 C 0.96754 0.53651 0.12383 0.0
C1842 C 0.98182 0.53334 0.14345 0.0
C1843 C 0.99316 0.5454 0.17777 0.0
H1844 H 0.95876 0.52715 0.0973 0.0
H1845 H 0.06831 0.6372 0.43798 0.0
H1846 H 0.41674 0.92686 0.81498 0.0
H1847 H 0.43689 0.96287 0.81349 0.0
H1848 H 0.386 0.96665 0.77338 0.0
H1849 H 0.36593 0.93061 0.77389 0.0
H1850 H 0.41563 0.98923 0.72412 0.0
H1851 H 0.4073 0.98029 0.87813 0.0
H1852 H 0.40832 0.96656 0.94938 0.0
H1853 H 0.47103 0.99103 0.93696 0.0
H1854 H 0.47034 1.0047 0.86534 0.0
H1855 H 0.45444 0.09189 0.75675 0.0
H1856 H 0.43567 0.05591 0.76189 0.0
H1857 H 0.48961 0.05497 0.78487 0.0
H1858 H 0.50853 0.09114 0.78025 0.0
H1859 H 0.45974 0.03118 0.84237 0.0
H1860 H 0.46762 0.04084 0.68853 0.0
H1861 H 0.4661 0.05487 0.61807 0.0
H1862 H 0.40328 0.02919 0.63157 0.0
H1863 H 0.40447 0.01523 0.70245 0.0
C1864 C 0.40975 0.93539 0.80677 0.0
C1865 C 0.38973 0.92588 0.79461 0.0
C1866 C 0.42131 0.95602 0.80587 0.0
C1867 C 0.413 0.9676 0.79354 0.0
C1868 C 0.39283 0.9581 0.78279 0.0
C1869 C 0.38134 0.93749 0.78321 0.0
C1870 C 0.4255 0.98949 0.78952 0.0
C1871 C 0.42503 0.99839 0.75031 0.0
C1872 C 0.43827 1.00151 0.82308 0.0
C1873 C 0.43873 0.99335 0.86617 0.0
C1874 C 0.42128 0.98262 0.89044 0.0
C1875 C 0.4218 0.97487 0.93092 0.0
C1876 C 0.43972 0.97788 0.94763 0.0
C1877 C 0.45716 0.98869 0.92394 0.0
C1878 C 0.45671 0.99646 0.88343 0.0
C1879 C 0.46233 0.08404 0.76285 0.0
C1880 C 0.48299 0.0944 0.76808 0.0
C1881 C 0.45159 0.06345 0.76555 0.0
C1882 C 0.46123 0.05271 0.77355 0.0
C1883 C 0.48187 0.06296 0.77863 0.0
C1884 C 0.49267 0.0836 0.7756 0.0
C1885 C 0.44962 0.03081 0.77727 0.0
C1886 C 0.45031 0.02195 0.8163 0.0
C1887 C 0.43693 0.01882 0.74369 0.0
C1888 C 0.43617 0.02714 0.701 0.0
C1889 C 0.45351 0.03832 0.67665 0.0
C1890 C 0.4527 0.04623 0.6366 0.0
C1891 C 0.43461 0.04296 0.6204 0.0
C1892 C 0.41729 0.03173 0.64418 0.0
C1893 C 0.41801 0.02379 0.68428 0.0
H1894 H 0.43402 0.0491 0.58939 0.0
H1895 H 0.44009 0.97187 0.97898 0.0
loop_
_geom_bond_atom_site_label_1
_geom_bond_atom_site_label_2
_geom_bond_distance
_geom_bond_site_symmetry_2
_ccdc_geom_bond_type
C0 C1 1.351 . S
C0 N3 1.368 . S
C0 H5 0.931 . S
C1 C0 1.351 . S
C1 N2 1.373 . S
C1 H29 0.930 . S
N2 C1 1.373 . S
N2 C4 1.340 . S
N3 C0 1.368 . S
N3 C4 1.321 . S
N3 Co6 2.135 . S
C4 N2 1.340 . S
C4 N3 1.321 . S
C4 H28 0.930 . S
H5 C0 0.931 . S
Co6 N3 2.135 . S
Co6 N9 2.121 . S
Co6 O14 2.055 . S
Co6 O17 2.039 . S
Co6 N20 2.140 . S
C7 O8 1.227 . S
C7 O17 1.265 . S
O8 C7 1.227 . S
N9 Co6 2.121 . S
N9 C11 1.375 . S
N9 C12 1.313 . S
C10 C11 1.338 . S
C10 N13 1.377 . S
C10 H30 0.930 . S
C11 N9 1.375 . S
C11 C10 1.338 . S
C11 H15 0.931 . S
C12 N9 1.313 . S
C12 N13 1.344 . S
C12 H16 0.930 . S
N13 C10 1.377 . S
N13 C12 1.344 . S
O14 Co6 2.055 . S
O14 C18 1.253 . S
H15 C11 0.931 . S
H16 C12 0.930 . S
O17 Co6 2.039 . S
O17 C7 1.265 . S
C18 O14 1.253 . S
C18 O19 1.227 . S
O19 C18 1.227 . S
N20 Co6 2.140 . S
N20 C23 1.346 . S
N20 C24 1.345 . S
C21 C22 1.387 . S
C21 C25 1.391 . S
C22 C21 1.387 . S
C22 C23 1.369 . S
C22 H31 0.929 . S
C23 N20 1.346 . S
C23 C22 1.369 . S
C23 H26 0.928 . S
C24 N20 1.345 . S
C24 C25 1.371 . S
C24 H27 0.931 . S
C25 C21 1.391 . S
C25 C24 1.371 . S
C25 H32 0.930 . S
H26 C23 0.928 . S
H27 C24 0.931 . S
H28 C4 0.930 . S
H29 C1 0.930 . S
H30 C10 0.930 . S
H31 C22 0.929 . S
H32 C25 0.930 . S
C33 C34 1.351 . S
C33 N36 1.368 . S
C33 H38 0.931 . S
C34 C33 1.351 . S
C34 N35 1.373 . S
C34 H62 0.930 . S
N35 C34 1.373 . S
N35 C37 1.340 . S
N36 C33 1.368 . S
N36 C37 1.321 . S
N36 Co39 2.135 . S
C37 N35 1.340 . S
C37 N36 1.321 . S
C37 H61 0.930 . S
H38 C33 0.931 . S
Co39 N36 2.135 . S
Co39 N42 2.121 . S
Co39 O47 2.055 . S
Co39 O50 2.039 . S
Co39 N53 2.140 . S
C40 O41 1.227 . S
C40 O50 1.265 . S
O41 C40 1.227 . S
N42 Co39 2.121 . S
N42 C44 1.375 . S
N42 C45 1.313 . S
C43 C44 1.338 . S
C43 N46 1.377 . S
C43 H63 0.930 . S
C44 N42 1.375 . S
C44 C43 1.338 . S
C44 H48 0.931 . S
C45 N42 1.313 . S
C45 N46 1.344 . S
C45 H49 0.930 . S
N46 C43 1.377 . S
N46 C45 1.344 . S
O47 Co39 2.055 . S
O47 C51 1.253 . S
H48 C44 0.931 . S
H49 C45 0.930 . S
O50 Co39 2.039 . S
O50 C40 1.265 . S
C51 O47 1.253 . S
C51 O52 1.227 . S
O52 C51 1.227 . S
N53 Co39 2.140 . S
N53 C56 1.346 . S
N53 C57 1.345 . S
C54 C55 1.387 . S
C54 C58 1.391 . S
C55 C54 1.387 . S
C55 C56 1.369 . S
C55 H64 0.929 . S
C56 N53 1.346 . S
C56 C55 1.369 . S
C56 H59 0.928 . S
C57 N53 1.345 . S
C57 C58 1.371 . S
C57 H60 0.931 . S
C58 C54 1.391 . S
C58 C57 1.371 . S
C58 H65 0.930 . S
H59 C56 0.928 . S
H60 C57 0.931 . S
H61 C37 0.930 . S
H62 C34 0.930 . S
H63 C43 0.930 . S
H64 C55 0.929 . S
H65 C58 0.930 . S
C66 C67 1.351 . S
C66 N69 1.368 . S
C66 H71 0.931 . S
C67 C66 1.351 . S
C67 N68 1.373 . S
C67 H95 0.930 . S
N68 C67 1.373 . S
N68 C70 1.340 . S
N69 C66 1.368 . S
N69 C70 1.321 . S
N69 Co72 2.135 . S
C70 N68 1.340 . S
C70 N69 1.321 . S
C70 H94 0.930 . S
H71 C66 0.931 . S
Co72 N69 2.135 . S
Co72 N75 2.121 . S
Co72 O80 2.055 . S
Co72 O83 2.039 . S
Co72 N86 2.140 . S
C73 O74 1.227 . S
C73 O83 1.265 . S
O74 C73 1.227 . S
N75 Co72 2.121 . S
N75 C77 1.375 . S
N75 C78 1.313 . S
C76 C77 1.338 . S
C76 N79 1.377 . S
C76 H96 0.930 . S
C77 N75 1.375 . S
C77 C76 1.338 . S
C77 H81 0.931 . S
C78 N75 1.313 . S
C78 N79 1.344 . S
C78 H82 0.930 . S
N79 C76 1.377 . S
N79 C78 1.344 . S
O80 Co72 2.055 . S
O80 C84 1.253 . S
H81 C77 0.931 . S
H82 C78 0.930 . S
O83 Co72 2.039 . S
O83 C73 1.265 . S
C84 O80 1.253 . S
C84 O85 1.227 . S
O85 C84 1.227 . S
N86 Co72 2.140 . S
N86 C89 1.346 . S
N86 C90 1.345 . S
C87 C88 1.387 . S
C87 C91 1.391 . S
C88 C87 1.387 . S
C88 C89 1.369 . S
C88 H97 0.929 . S
C89 N86 1.346 . S
C89 C88 1.369 . S
C89 H92 0.928 . S
C90 N86 1.345 . S
C90 C91 1.371 . S
C90 H93 0.931 . S
C91 C87 1.391 . S
C91 C90 1.371 . S
C91 H98 0.930 . S
H92 C89 0.928 . S
H93 C90 0.931 . S
H94 C70 0.930 . S
H95 C67 0.930 . S
H96 C76 0.930 . S
H97 C88 0.929 . S
H98 C91 0.930 . S
C99 C100 1.351 . S
C99 N102 1.368 . S
C99 H104 0.931 . S
C100 C99 1.351 . S
C100 N101 1.373 . S
C100 H128 0.930 . S
N101 C100 1.373 . S
N101 C103 1.340 . S
N102 C99 1.368 . S
N102 C103 1.321 . S
N102 Co105 2.135 . S
C103 N101 1.340 . S
C103 N102 1.321 . S
C103 H127 0.930 . S
H104 C99 0.931 . S
Co105 N102 2.135 . S
Co105 N108 2.121 . S
Co105 O113 2.055 . S
Co105 O116 2.039 . S
Co105 N119 2.140 . S
C106 O107 1.227 . S
C106 O116 1.265 . S
O107 C106 1.227 . S
N108 Co105 2.121 . S
N108 C110 1.375 . S
N108 C111 1.313 . S
C109 C110 1.338 . S
C109 N112 1.377 . S
C109 H129 0.930 . S
C110 N108 1.375 . S
C110 C109 1.338 . S
C110 H114 0.931 . S
C111 N108 1.313 . S
C111 N112 1.344 . S
C111 H115 0.930 . S
N112 C109 1.377 . S
N112 C111 1.344 . S
O113 Co105 2.055 . S
O113 C117 1.253 . S
H114 C110 0.931 . S
H115 C111 0.930 . S
O116 Co105 2.039 . S
O116 C106 1.265 . S
C117 O113 1.253 . S
C117 O118 1.227 . S
O118 C117 1.227 . S
N119 Co105 2.140 . S
N119 C122 1.346 . S
N119 C123 1.345 . S
C120 C121 1.387 . S
C120 C124 1.391 . S
C121 C120 1.387 . S
C121 C122 1.369 . S
C121 H130 0.929 . S
C122 N119 1.346 . S
C122 C121 1.369 . S
C122 H125 0.928 . S
C123 N119 1.345 . S
C123 C124 1.371 . S
C123 H126 0.931 . S
C124 C120 1.391 . S
C124 C123 1.371 . S
C124 H131 0.930 . S
H125 C122 0.928 . S
H126 C123 0.931 . S
H127 C103 0.930 . S
H128 C100 0.930 . S
H129 C109 0.930 . S
H130 C121 0.929 . S
H131 C124 0.930 . S
C132 C133 1.351 . S
C132 N135 1.368 . S
C132 H137 0.931 . S
C133 C132 1.351 . S
C133 N134 1.373 . S
C133 H161 0.930 . S
N134 C133 1.373 . S
N134 C136 1.340 . S
N135 C132 1.368 . S
N135 C136 1.321 . S
N135 Co138 2.135 . S
C136 N134 1.340 . S
C136 N135 1.321 . S
C136 H160 0.930 . S
H137 C132 0.931 . S
Co138 N135 2.135 . S
Co138 N141 2.121 . S
Co138 O146 2.055 . S
Co138 O149 2.039 . S
Co138 N152 2.140 . S
C139 O140 1.227 . S
C139 O149 1.265 . S
O140 C139 1.227 . S
N141 Co138 2.121 . S
N141 C143 1.375 . S
N141 C144 1.313 . S
C142 C143 1.338 . S
C142 N145 1.377 . S
C142 H162 0.930 . S
C143 N141 1.375 . S
C143 C142 1.338 . S
C143 H147 0.931 . S
C144 N141 1.313 . S
C144 N145 1.344 . S
C144 H148 0.930 . S
N145 C142 1.377 . S
N145 C144 1.344 . S
O146 Co138 2.055 . S
O146 C150 1.253 . S
H147 C143 0.931 . S
H148 C144 0.930 . S
O149 Co138 2.039 . S
O149 C139 1.265 . S
C150 O146 1.253 . S
C150 O151 1.227 . S
O151 C150 1.227 . S
N152 Co138 2.140 . S
N152 C155 1.346 . S
N152 C156 1.345 . S
C153 C154 1.387 . S
C153 C157 1.391 . S
C154 C153 1.387 . S
C154 C155 1.369 . S
C154 H163 0.929 . S
C155 N152 1.346 . S
C155 C154 1.369 . S
C155 H158 0.928 . S
C156 N152 1.345 . S
C156 C157 1.371 . S
C156 H159 0.931 . S
C157 C153 1.391 . S
C157 C156 1.371 . S
C157 H164 0.930 . S
H158 C155 0.928 . S
H159 C156 0.931 . S
H160 C136 0.930 . S
H161 C133 0.930 . S
H162 C142 0.930 . S
H163 C154 0.929 . S
H164 C157 0.930 . S
C165 C166 1.351 . S
C165 N168 1.368 . S
C165 H170 0.931 . S
C166 C165 1.351 . S
C166 N167 1.373 . S
C166 H194 0.930 . S
N167 C166 1.373 . S
N167 C169 1.340 . S
N168 C165 1.368 . S
N168 C169 1.321 . S
N168 Co171 2.135 . S
C169 N167 1.340 . S
C169 N168 1.321 . S
C169 H193 0.930 . S
H170 C165 0.931 . S
Co171 N168 2.135 . S
Co171 N174 2.121 . S
Co171 O179 2.055 . S
Co171 O182 2.039 . S
Co171 N185 2.140 . S
C172 O173 1.227 . S
C172 O182 1.265 . S
O173 C172 1.227 . S
N174 Co171 2.121 . S
N174 C176 1.375 . S
N174 C177 1.313 . S
C175 C176 1.338 . S
C175 N178 1.377 . S
C175 H195 0.930 . S
C176 N174 1.375 . S
C176 C175 1.338 . S
C176 H180 0.931 . S
C177 N174 1.313 . S
C177 N178 1.344 . S
C177 H181 0.930 . S
N178 C175 1.377 . S
N178 C177 1.344 . S
O179 Co171 2.055 . S
O179 C183 1.253 . S
H180 C176 0.931 . S
H181 C177 0.930 . S
O182 Co171 2.039 . S
O182 C172 1.265 . S
C183 O179 1.253 . S
C183 O184 1.227 . S
O184 C183 1.227 . S
N185 Co171 2.140 . S
N185 C188 1.346 . S
N185 C189 1.345 . S
C186 C187 1.387 . S
C186 C190 1.391 . S
C187 C186 1.387 . S
C187 C188 1.369 . S
C187 H196 0.929 . S
C188 N185 1.346 . S
C188 C187 1.369 . S
C188 H191 0.928 . S
C189 N185 1.345 . S
C189 C190 1.371 . S
C189 H192 0.931 . S
C190 C186 1.391 . S
C190 C189 1.371 . S
C190 H197 0.930 . S
H191 C188 0.928 . S
H192 C189 0.931 . S
H193 C169 0.930 . S
H194 C166 0.930 . S
H195 C175 0.930 . S
H196 C187 0.929 . S
H197 C190 0.930 . S
C198 C199 1.351 . S
C198 N201 1.368 . S
C198 H203 0.931 . S
C199 C198 1.351 . S
C199 N200 1.373 . S
C199 H227 0.930 . S
N200 C199 1.373 . S
N200 C202 1.340 . S
N201 C198 1.368 . S
N201 C202 1.321 . S
N201 Co204 2.135 . S
C202 N200 1.340 . S
C202 N201 1.321 . S
C202 H226 0.930 . S
H203 C198 0.931 . S
Co204 N201 2.135 . S
Co204 N207 2.121 . S
Co204 O212 2.055 . S
Co204 O215 2.039 . S
Co204 N218 2.140 . S
C205 O206 1.227 . S
C205 O215 1.265 . S
O206 C205 1.227 . S
N207 Co204 2.121 . S
N207 C209 1.375 . S
N207 C210 1.313 . S
C208 C209 1.338 . S
C208 N211 1.377 . S
C208 H228 0.930 . S
C209 N207 1.375 . S
C209 C208 1.338 . S
C209 H213 0.931 . S
C210 N207 1.313 . S
C210 N211 1.344 . S
C210 H214 0.930 . S
N211 C208 1.377 . S
N211 C210 1.344 . S
O212 Co204 2.055 . S
O212 C216 1.253 . S
H213 C209 0.931 . S
H214 C210 0.930 . S
O215 Co204 2.039 . S
O215 C205 1.265 . S
C216 O212 1.253 . S
C216 O217 1.227 . S
O217 C216 1.227 . S
N218 Co204 2.140 . S
N218 C221 1.346 . S
N218 C222 1.345 . S
C219 C220 1.387 . S
C219 C223 1.391 . S
C220 C219 1.387 . S
C220 C221 1.369 . S
C220 H229 0.929 . S
C221 N218 1.346 . S
C221 C220 1.369 . S
C221 H224 0.928 . S
C222 N218 1.345 . S
C222 C223 1.371 . S
C222 H225 0.931 . S
C223 C219 1.391 . S
C223 C222 1.371 . S
C223 H230 0.930 . S
H224 C221 0.928 . S
H225 C222 0.931 . S
H226 C202 0.930 . S
H227 C199 0.930 . S
H228 C208 0.930 . S
H229 C220 0.929 . S
H230 C223 0.930 . S
C231 C232 1.351 . S
C231 N234 1.368 . S
C231 H236 0.931 . S
C232 C231 1.351 . S
C232 N233 1.373 . S
C232 H260 0.930 . S
N233 C232 1.373 . S
N233 C235 1.340 . S
N234 C231 1.368 . S
N234 C235 1.321 . S
N234 Co237 2.135 . S
C235 N233 1.340 . S
C235 N234 1.321 . S
C235 H259 0.930 . S
H236 C231 0.931 . S
Co237 N234 2.135 . S
Co237 N240 2.121 . S
Co237 O245 2.055 . S
Co237 O248 2.039 . S
Co237 N251 2.140 . S
C238 O239 1.227 . S
C238 O248 1.265 . S
O239 C238 1.227 . S
N240 Co237 2.121 . S
N240 C242 1.375 . S
N240 C243 1.313 . S
C241 C242 1.338 . S
C241 N244 1.377 . S
C241 H261 0.930 . S
C242 N240 1.375 . S
C242 C241 1.338 . S
C242 H246 0.931 . S
C243 N240 1.313 . S
C243 N244 1.344 . S
C243 H247 0.930 . S
N244 C241 1.377 . S
N244 C243 1.344 . S
O245 Co237 2.055 . S
O245 C249 1.253 . S
H246 C242 0.931 . S
H247 C243 0.930 . S
O248 Co237 2.039 . S
O248 C238 1.265 . S
C249 O245 1.253 . S
C249 O250 1.227 . S
O250 C249 1.227 . S
N251 Co237 2.140 . S
N251 C254 1.346 . S
N251 C255 1.345 . S
C252 C253 1.387 . S
C252 C256 1.391 . S
C253 C252 1.387 . S
C253 C254 1.369 . S
C253 H262 0.929 . S
C254 N251 1.346 . S
C254 C253 1.369 . S
C254 H257 0.928 . S
C255 N251 1.345 . S
C255 C256 1.371 . S
C255 H258 0.931 . S
C256 C252 1.391 . S
C256 C255 1.371 . S
C256 H263 0.930 . S
H257 C254 0.928 . S
H258 C255 0.931 . S
H259 C235 0.930 . S
H260 C232 0.930 . S
H261 C241 0.930 . S
H262 C253 0.929 . S
H263 C256 0.930 . S
C264 C265 1.351 . S
C264 N267 1.368 . S
C264 H269 0.931 . S
C265 C264 1.351 . S
C265 N266 1.373 . S
C265 H293 0.930 . S
N266 C265 1.373 . S
N266 C268 1.340 . S
N267 C264 1.368 . S
N267 C268 1.321 . S
N267 Co270 2.135 . S
C268 N266 1.340 . S
C268 N267 1.321 . S
C268 H292 0.930 . S
H269 C264 0.931 . S
Co270 N267 2.135 . S
Co270 N273 2.121 . S
Co270 O278 2.055 . S
Co270 O281 2.039 . S
Co270 N284 2.140 . S
C271 O272 1.227 . S
C271 O281 1.265 . S
O272 C271 1.227 . S
N273 Co270 2.121 . S
N273 C275 1.375 . S
N273 C276 1.313 . S
C274 C275 1.338 . S
C274 N277 1.377 . S
C274 H294 0.930 . S
C275 N273 1.375 . S
C275 C274 1.338 . S
C275 H279 0.931 . S
C276 N273 1.313 . S
C276 N277 1.344 . S
C276 H280 0.930 . S
N277 C274 1.377 . S
N277 C276 1.344 . S
O278 Co270 2.055 . S
O278 C282 1.253 . S
H279 C275 0.931 . S
H280 C276 0.930 . S
O281 Co270 2.039 . S
O281 C271 1.265 . S
C282 O278 1.253 . S
C282 O283 1.227 . S
O283 C282 1.227 . S
N284 Co270 2.140 . S
N284 C287 1.346 . S
N284 C288 1.345 . S
C285 C286 1.387 . S
C285 C289 1.391 . S
C286 C285 1.387 . S
C286 C287 1.369 . S
C286 H295 0.929 . S
C287 N284 1.346 . S
C287 C286 1.369 . S
C287 H290 0.928 . S
C288 N284 1.345 . S
C288 C289 1.371 . S
C288 H291 0.931 . S
C289 C285 1.391 . S
C289 C288 1.371 . S
C289 H296 0.930 . S
H290 C287 0.928 . S
H291 C288 0.931 . S
H292 C268 0.930 . S
H293 C265 0.930 . S
H294 C274 0.930 . S
H295 C286 0.929 . S
H296 C289 0.930 . S
C297 C298 1.351 . S
C297 N300 1.368 . S
C297 H302 0.931 . S
C298 C297 1.351 . S
C298 N299 1.373 . S
C298 H326 0.930 . S
N299 C298 1.373 . S
N299 C301 1.340 . S
N300 C297 1.368 . S
N300 C301 1.321 . S
N300 Co303 2.135 . S
C301 N299 1.340 . S
C301 N300 1.321 . S
C301 H325 0.930 . S
H302 C297 0.931 . S
Co303 N300 2.135 . S
Co303 N306 2.121 . S
Co303 O311 2.055 . S
Co303 O314 2.039 . S
Co303 N317 2.140 . S
C304 O305 1.227 . S
C304 O314 1.265 . S
O305 C304 1.227 . S
N306 Co303 2.121 . S
N306 C308 1.375 . S
N306 C309 1.313 . S
C307 C308 1.338 . S
C307 N310 1.377 . S
C307 H327 0.930 . S
C308 N306 1.375 . S
C308 C307 1.338 . S
C308 H312 0.931 . S
C309 N306 1.313 . S
C309 N310 1.344 . S
C309 H313 0.930 . S
N310 C307 1.377 . S
N310 C309 1.344 . S
O311 Co303 2.055 . S
O311 C315 1.253 . S
H312 C308 0.931 . S
H313 C309 0.930 . S
O314 Co303 2.039 . S
O314 C304 1.265 . S
C315 O311 1.253 . S
C315 O316 1.227 . S
O316 C315 1.227 . S
N317 Co303 2.140 . S
N317 C320 1.346 . S
N317 C321 1.345 . S
C318 C319 1.387 . S
C318 C322 1.391 . S
C319 C318 1.387 . S
C319 C320 1.369 . S
C319 H328 0.929 . S
C320 N317 1.346 . S
C320 C319 1.369 . S
C320 H323 0.928 . S
C321 N317 1.345 . S
C321 C322 1.371 . S
C321 H324 0.931 . S
C322 C318 1.391 . S
C322 C321 1.371 . S
C322 H329 0.930 . S
H323 C320 0.928 . S
H324 C321 0.931 . S
H325 C301 0.930 . S
H326 C298 0.930 . S
H327 C307 0.930 . S
H328 C319 0.929 . S
H329 C322 0.930 . S
C330 C331 1.351 . S
C330 N333 1.368 . S
C330 H335 0.931 . S
C331 C330 1.351 . S
C331 N332 1.373 . S
C331 H359 0.930 . S
N332 C331 1.373 . S
N332 C334 1.340 . S
N333 C330 1.368 . S
N333 C334 1.321 . S
N333 Co336 2.135 . S
C334 N332 1.340 . S
C334 N333 1.321 . S
C334 H358 0.930 . S
H335 C330 0.931 . S
Co336 N333 2.135 . S
Co336 N339 2.121 . S
Co336 O344 2.055 . S
Co336 O347 2.039 . S
Co336 N350 2.140 . S
C337 O338 1.227 . S
C337 O347 1.265 . S
O338 C337 1.227 . S
N339 Co336 2.121 . S
N339 C341 1.375 . S
N339 C342 1.313 . S
C340 C341 1.338 . S
C340 N343 1.377 . S
C340 H360 0.930 . S
C341 N339 1.375 . S
C341 C340 1.338 . S
C341 H345 0.931 . S
C342 N339 1.313 . S
C342 N343 1.344 . S
C342 H346 0.930 . S
N343 C340 1.377 . S
N343 C342 1.344 . S
O344 Co336 2.055 . S
O344 C348 1.253 . S
H345 C341 0.931 . S
H346 C342 0.930 . S
O347 Co336 2.039 . S
O347 C337 1.265 . S
C348 O344 1.253 . S
C348 O349 1.227 . S
O349 C348 1.227 . S
N350 Co336 2.140 . S
N350 C353 1.346 . S
N350 C354 1.345 . S
C351 C352 1.387 . S
C351 C355 1.391 . S
C352 C351 1.387 . S
C352 C353 1.369 . S
C352 H361 0.929 . S
C353 N350 1.346 . S
C353 C352 1.369 . S
C353 H356 0.928 . S
C354 N350 1.345 . S
C354 C355 1.371 . S
C354 H357 0.931 . S
C355 C351 1.391 . S
C355 C354 1.371 . S
C355 H362 0.930 . S
H356 C353 0.928 . S
H357 C354 0.931 . S
H358 C334 0.930 . S
H359 C331 0.930 . S
H360 C340 0.930 . S
H361 C352 0.929 . S
H362 C355 0.930 . S
C363 C364 1.351 . S
C363 N366 1.368 . S
C363 H368 0.931 . S
C364 C363 1.351 . S
C364 N365 1.373 . S
C364 H392 0.930 . S
N365 C364 1.373 . S
N365 C367 1.340 . S
N366 C363 1.368 . S
N366 C367 1.321 . S
N366 Co369 2.135 . S
C367 N365 1.340 . S
C367 N366 1.321 . S
C367 H391 0.930 . S
H368 C363 0.931 . S
Co369 N366 2.135 . S
Co369 N372 2.121 . S
Co369 O377 2.055 . S
Co369 O380 2.039 . S
Co369 N383 2.140 . S
C370 O371 1.227 . S
C370 O380 1.265 . S
O371 C370 1.227 . S
N372 Co369 2.121 . S
N372 C374 1.375 . S
N372 C375 1.313 . S
C373 C374 1.338 . S
C373 N376 1.377 . S
C373 H393 0.930 . S
C374 N372 1.375 . S
C374 C373 1.338 . S
C374 H378 0.931 . S
C375 N372 1.313 . S
C375 N376 1.344 . S
C375 H379 0.930 . S
N376 C373 1.377 . S
N376 C375 1.344 . S
O377 Co369 2.055 . S
O377 C381 1.253 . S
H378 C374 0.931 . S
H379 C375 0.930 . S
O380 Co369 2.039 . S
O380 C370 1.265 . S
C381 O377 1.253 . S
C381 O382 1.227 . S
O382 C381 1.227 . S
N383 Co369 2.140 . S
N383 C386 1.346 . S
N383 C387 1.345 . S
C384 C385 1.387 . S
C384 C388 1.391 . S
C385 C384 1.387 . S
C385 C386 1.369 . S
C385 H394 0.929 . S
C386 N383 1.346 . S
C386 C385 1.369 . S
C386 H389 0.928 . S
C387 N383 1.345 . S
C387 C388 1.371 . S
C387 H390 0.931 . S
C388 C384 1.391 . S
C388 C387 1.371 . S
C388 H395 0.930 . S
H389 C386 0.928 . S
H390 C387 0.931 . S
H391 C367 0.930 . S
H392 C364 0.930 . S
H393 C373 0.930 . S
H394 C385 0.929 . S
H395 C388 0.930 . S
H396 C414 0.951 . S
H397 C416 0.951 . S
H398 C418 0.950 . S
H399 C419 0.950 . S
H400 C421 0.950 . S
H401 C424 0.950 . S
H402 C425 0.950 . S
H403 C427 0.950 . S
H404 C428 0.950 1_556 S
H405 C429 0.951 . S
H406 C431 0.951 . S
H407 C433 0.950 . S
H408 C434 0.950 . S
H409 C436 0.950 . S
H410 C439 0.950 . S
H411 C440 0.950 . S
H412 C442 0.950 . S
H413 C443 0.950 1_554 S
C414 H396 0.951 . S
C414 C415 1.366 . S
C414 C416 1.388 . S
C415 C414 1.366 . S
C415 C419 1.385 . S
C416 H397 0.951 . S
C416 C414 1.388 . S
C416 C417 1.366 . S
C417 C416 1.366 . S
C417 C418 1.414 . S
C417 C420 1.499 . S
C418 H398 0.950 . S
C418 C417 1.414 . S
C418 C419 1.374 . S
C419 H399 0.950 . S
C419 C415 1.385 . S
C419 C418 1.374 . S
C420 C417 1.499 . S
C420 C421 1.373 . S
C420 C422 1.389 . S
C421 H400 0.950 . S
C421 C420 1.373 . S
C421 C437 1.377 1_554 S
C422 C420 1.389 . S
C422 C423 1.524 . S
C422 C436 1.377 1_554 S
C423 C422 1.524 . S
C423 C424 1.397 . S
C423 C428 1.363 . S
C424 H401 0.950 . S
C424 C423 1.397 . S
C424 C425 1.334 . S
C425 H402 0.950 . S
C425 C424 1.334 . S
C425 C426 1.287 . S
C426 C425 1.287 . S
C426 C427 1.524 . S
C426 H445 0.913 . S
C427 H403 0.950 . S
C427 C426 1.524 . S
C427 C428 1.415 . S
C428 H404 0.950 1_554 S
C428 C423 1.363 . S
C428 C427 1.415 . S
C429 H405 0.951 . S
C429 C430 1.366 . S
C429 C431 1.388 . S
C430 C429 1.366 . S
C430 C434 1.385 . S
C431 H406 0.951 . S
C431 C429 1.388 . S
C431 C432 1.366 . S
C432 C431 1.366 . S
C432 C433 1.414 . S
C432 C435 1.499 . S
C433 H407 0.950 . S
C433 C432 1.414 . S
C433 C434 1.374 . S
C434 H408 0.950 . S
C434 C430 1.385 . S
C434 C433 1.374 . S
C435 C432 1.499 . S
C435 C436 1.373 . S
C435 C437 1.389 . S
C436 H409 0.950 . S
C436 C422 1.377 1_556 S
C436 C435 1.373 . S
C437 C421 1.377 1_556 S
C437 C435 1.389 . S
C437 C438 1.524 . S
C438 C437 1.524 . S
C438 C439 1.397 . S
C438 C443 1.363 . S
C439 H410 0.950 . S
C439 C438 1.397 . S
C439 C440 1.334 . S
C440 H411 0.950 . S
C440 C439 1.334 . S
C440 C441 1.287 . S
C441 C440 1.287 . S
C441 C442 1.524 . S
C441 H444 0.999 . S
C442 H412 0.950 . S
C442 C441 1.524 . S
C442 C443 1.415 . S
C443 H413 0.950 1_556 S
C443 C438 1.363 . S
C443 C442 1.415 . S
H444 C441 0.999 . S
H445 C426 0.913 . S
H446 C464 0.951 . S
H447 C466 0.951 . S
H448 C468 0.950 . S
H449 C469 0.950 . S
H450 C471 0.950 . S
H451 C474 0.950 . S
H452 C475 0.950 . S
H453 C477 0.950 . S
H454 C478 0.950 . S
H455 C479 0.951 . S
H456 C481 0.951 . S
H457 C483 0.950 . S
H458 C484 0.950 . S
H459 C486 0.950 . S
H460 C489 0.950 . S
H461 C490 0.950 . S
H462 C492 0.950 . S
H463 C493 0.950 . S
C464 H446 0.951 . S
C464 C465 1.366 . S
C464 C466 1.388 . S
C465 C464 1.366 . S
C465 C469 1.385 . S
C466 H447 0.951 . S
C466 C464 1.388 . S
C466 C467 1.366 . S
C467 C466 1.366 . S
C467 C468 1.414 . S
C467 C470 1.499 . S
C468 H448 0.950 . S
C468 C467 1.414 . S
C468 C469 1.374 . S
C469 H449 0.950 . S
C469 C465 1.385 . S
C469 C468 1.374 . S
C470 C467 1.499 . S
C470 C471 1.373 . S
C470 C472 1.389 . S
C471 H450 0.950 . S
C471 C470 1.373 . S
C471 C487 1.377 . S
C472 C470 1.389 . S
C472 C473 1.524 . S
C472 C486 1.377 . S
C473 C472 1.524 . S
C473 C474 1.397 . S
C473 C478 1.363 . S
C474 H451 0.950 . S
C474 C473 1.397 . S
C474 C475 1.334 . S
C475 H452 0.950 . S
C475 C474 1.334 . S
C475 C476 1.287 . S
C476 C475 1.287 . S
C476 C477 1.524 . S
C476 H495 0.913 . S
C477 H453 0.950 . S
C477 C476 1.524 . S
C477 C478 1.415 . S
C478 H454 0.950 . S
C478 C473 1.363 . S
C478 C477 1.415 . S
C479 H455 0.951 . S
C479 C480 1.366 . S
C479 C481 1.388 . S
C480 C479 1.366 . S
C480 C484 1.385 . S
C481 H456 0.951 . S
C481 C479 1.388 . S
C481 C482 1.366 . S
C482 C481 1.366 . S
C482 C483 1.414 . S
C482 C485 1.499 . S
C483 H457 0.950 . S
C483 C482 1.414 . S
C483 C484 1.374 . S
C484 H458 0.950 . S
C484 C480 1.385 . S
C484 C483 1.374 . S
C485 C482 1.499 . S
C485 C486 1.373 . S
C485 C487 1.389 . S
C486 H459 0.950 . S
C486 C472 1.377 . S
C486 C485 1.373 . S
C487 C471 1.377 . S
C487 C485 1.389 . S
C487 C488 1.524 . S
C488 C487 1.524 . S
C488 C489 1.397 . S
C488 C493 1.363 . S
C489 H460 0.950 . S
C489 C488 1.397 . S
C489 C490 1.334 . S
C490 H461 0.950 . S
C490 C489 1.334 . S
C490 C491 1.287 . S
C491 C490 1.287 . S
C491 C492 1.524 . S
C491 H494 0.999 . S
C492 H462 0.950 . S
C492 C491 1.524 . S
C492 C493 1.415 . S
C493 H463 0.950 . S
C493 C488 1.363 . S
C493 C492 1.415 . S
H494 C491 0.999 . S
H495 C476 0.913 . S
H496 C514 0.951 . S
H497 C516 0.951 . S
H498 C518 0.950 . S
H499 C519 0.950 . S
H500 C521 0.950 . S
H501 C524 0.950 . S
H502 C525 0.950 . S
H503 C527 0.950 . S
H504 C528 0.950 1_554 S
H505 C529 0.951 . S
H506 C531 0.951 . S
H507 C533 0.950 . S
H508 C534 0.950 . S
H509 C536 0.950 . S
H510 C539 0.950 . S
H511 C540 0.950 . S
H512 C542 0.950 . S
H513 C543 0.950 1_556 S
C514 H496 0.951 . S
C514 C515 1.366 . S
C514 C516 1.388 . S
C515 C514 1.366 . S
C515 C519 1.385 . S
C516 H497 0.951 . S
C516 C514 1.388 . S
C516 C517 1.366 . S
C517 C516 1.366 . S
C517 C518 1.414 . S
C517 C520 1.499 . S
C518 H498 0.950 . S
C518 C517 1.414 . S
C518 C519 1.374 . S
C519 H499 0.950 . S
C519 C515 1.385 . S
C519 C518 1.374 . S
C520 C517 1.499 . S
C520 C521 1.373 . S
C520 C522 1.389 . S
C521 H500 0.950 . S
C521 C520 1.373 . S
C521 C537 1.377 1_554 S
C522 C520 1.389 . S
C522 C523 1.524 . S
C522 C536 1.377 1_554 S
C523 C522 1.524 . S
C523 C524 1.397 1_554 S
C523 C528 1.362 1_554 S
C524 H501 0.950 . S
C524 C523 1.397 1_556 S
C524 C525 1.334 . S
C525 H502 0.950 . S
C525 C524 1.334 . S
C525 C526 1.287 . S
C526 C525 1.287 . S
C526 C527 1.524 . S
C526 H545 0.913 . S
C527 H503 0.950 . S
C527 C526 1.524 . S
C527 C528 1.416 . S
C528 H504 0.950 1_556 S
C528 C523 1.362 1_556 S
C528 C527 1.416 . S
C529 H505 0.951 . S
C529 C530 1.366 . S
C529 C531 1.388 . S
C530 C529 1.366 . S
C530 C534 1.385 . S
C531 H506 0.951 . S
C531 C529 1.388 . S
C531 C532 1.366 . S
C532 C531 1.366 . S
C532 C533 1.414 . S
C532 C535 1.499 . S
C533 H507 0.950 . S
C533 C532 1.414 . S
C533 C534 1.374 . S
C534 H508 0.950 . S
C534 C530 1.385 . S
C534 C533 1.374 . S
C535 C532 1.499 . S
C535 C536 1.373 . S
C535 C537 1.389 . S
C536 H509 0.950 . S
C536 C522 1.377 1_556 S
C536 C535 1.373 . S
C537 C521 1.377 1_556 S
C537 C535 1.389 . S
C537 C538 1.524 . S
C538 C537 1.524 . S
C538 C539 1.397 1_556 S
C538 C543 1.362 1_556 S
C539 H510 0.950 . S
C539 C538 1.397 1_554 S
C539 C540 1.334 . S
C540 H511 0.950 . S
C540 C539 1.334 . S
C540 C541 1.287 . S
C541 C540 1.287 . S
C541 C542 1.524 . S
C541 H544 0.999 . S
C542 H512 0.950 . S
C542 C541 1.524 . S
C542 C543 1.416 . S
C543 H513 0.950 1_554 S
C543 C538 1.362 1_554 S
C543 C542 1.416 . S
H544 C541 0.999 . S
H545 C526 0.913 . S
H546 C564 0.951 . S
H547 C566 0.951 . S
H548 C568 0.950 . S
H549 C569 0.950 . S
H550 C571 0.950 . S
H551 C574 0.950 . S
H552 C575 0.950 . S
H553 C577 0.950 . S
H554 C578 0.950 . S
H555 C579 0.951 . S
H556 C581 0.951 . S
H557 C583 0.950 . S
H558 C584 0.950 . S
H559 C586 0.950 . S
H560 C589 0.950 . S
H561 C590 0.950 . S
H562 C592 0.950 . S
H563 C593 0.950 . S
C564 H546 0.951 . S
C564 C565 1.366 . S
C564 C566 1.388 . S
C565 C564 1.366 . S
C565 C569 1.385 . S
C566 H547 0.951 . S
C566 C564 1.388 . S
C566 C567 1.366 . S
C567 C566 1.366 . S
C567 C568 1.414 . S
C567 C570 1.499 . S
C568 H548 0.950 . S
C568 C567 1.414 . S
C568 C569 1.374 . S
C569 H549 0.950 . S
C569 C565 1.385 . S
C569 C568 1.374 . S
C570 C567 1.499 . S
C570 C571 1.373 . S
C570 C572 1.389 . S
C571 H550 0.950 . S
C571 C570 1.373 . S
C571 C587 1.377 . S
C572 C570 1.389 . S
C572 C573 1.524 . S
C572 C586 1.377 . S
C573 C572 1.524 . S
C573 C574 1.397 . S
C573 C578 1.363 . S
C574 H551 0.950 . S
C574 C573 1.397 . S
C574 C575 1.334 . S
C575 H552 0.950 . S
C575 C574 1.334 . S
C575 C576 1.287 . S
C576 C575 1.287 . S
C576 C577 1.524 . S
C576 H595 0.913 . S
C577 H553 0.950 . S
C577 C576 1.524 . S
C577 C578 1.415 . S
C578 H554 0.950 . S
C578 C573 1.363 . S
C578 C577 1.415 . S
C579 H555 0.951 . S
C579 C580 1.366 . S
C579 C581 1.388 . S
C580 C579 1.366 . S
C580 C584 1.385 . S
C581 H556 0.951 . S
C581 C579 1.388 . S
C581 C582 1.366 . S
C582 C581 1.366 . S
C582 C583 1.414 . S
C582 C585 1.499 . S
C583 H557 0.950 . S
C583 C582 1.414 . S
C583 C584 1.374 . S
C584 H558 0.950 . S
C584 C580 1.385 . S
C584 C583 1.374 . S
C585 C582 1.499 . S
C585 C586 1.373 . S
C585 C587 1.389 . S
C586 H559 0.950 . S
C586 C572 1.377 . S
C586 C585 1.373 . S
C587 C571 1.377 . S
C587 C585 1.389 . S
C587 C588 1.524 . S
C588 C587 1.524 . S
C588 C589 1.397 . S
C588 C593 1.363 . S
C589 H560 0.950 . S
C589 C588 1.397 . S
C589 C590 1.334 . S
C590 H561 0.950 . S
C590 C589 1.334 . S
C590 C591 1.287 . S
C591 C590 1.287 . S
C591 C592 1.524 . S
C591 H594 0.999 . S
C592 H562 0.950 . S
C592 C591 1.524 . S
C592 C593 1.415 . S
C593 H563 0.950 . S
C593 C588 1.363 . S
C593 C592 1.415 . S
H594 C591 0.999 . S
H595 C576 0.913 . S
H596 C614 0.951 . S
H597 C616 0.951 . S
H598 C618 0.950 . S
H599 C619 0.950 . S
H600 C621 0.950 . S
H601 C624 0.950 1_554 S
H602 C625 0.950 . S
H603 C627 0.950 . S
H604 C628 0.950 . S
H605 C629 0.951 . S
H606 C631 0.951 . S
H607 C633 0.950 . S
H608 C634 0.950 . S
H609 C636 0.950 . S
H610 C639 0.950 1_556 S
H611 C640 0.950 . S
H612 C642 0.950 . S
H613 C643 0.950 . S
C614 H596 0.951 . S
C614 C615 1.366 . S
C614 C616 1.388 . S
C615 C614 1.366 . S
C615 C619 1.385 . S
C616 H597 0.951 . S
C616 C614 1.388 . S
C616 C617 1.366 . S
C617 C616 1.366 . S
C617 C618 1.414 . S
C617 C620 1.499 . S
C618 H598 0.950 . S
C618 C617 1.414 . S
C618 C619 1.374 . S
C619 H599 0.950 . S
C619 C615 1.385 . S
C619 C618 1.374 . S
C620 C617 1.499 . S
C620 C621 1.373 . S
C620 C622 1.389 1_554 S
C621 H600 0.950 . S
C621 C620 1.373 . S
C621 C637 1.377 . S
C622 C620 1.389 1_556 S
C622 C623 1.524 . S
C622 C636 1.377 . S
C623 C622 1.524 . S
C623 C624 1.397 . S
C623 C628 1.363 . S
C624 H601 0.950 1_556 S
C624 C623 1.397 . S
C624 C625 1.334 . S
C625 H602 0.950 . S
C625 C624 1.334 . S
C625 C626 1.287 . S
C626 C625 1.287 . S
C626 C627 1.524 . S
C626 H645 0.913 . S
C627 H603 0.950 . S
C627 C626 1.524 . S
C627 C628 1.415 . S
C628 H604 0.950 . S
C628 C623 1.363 . S
C628 C627 1.415 . S
C629 H605 0.951 . S
C629 C630 1.366 . S
C629 C631 1.388 . S
C630 C629 1.366 . S
C630 C634 1.385 . S
C631 H606 0.951 . S
C631 C629 1.388 . S
C631 C632 1.366 . S
C632 C631 1.366 . S
C632 C633 1.414 . S
C632 C635 1.499 . S
C633 H607 0.950 . S
C633 C632 1.414 . S
C633 C634 1.374 . S
C634 H608 0.950 . S
C634 C630 1.385 . S
C634 C633 1.374 . S
C635 C632 1.499 . S
C635 C636 1.373 . S
C635 C637 1.389 1_556 S
C636 H609 0.950 . S
C636 C622 1.377 . S
C636 C635 1.373 . S
C637 C621 1.377 . S
C637 C635 1.389 1_554 S
C637 C638 1.524 . S
C638 C637 1.524 . S
C638 C639 1.397 . S
C638 C643 1.363 . S
C639 H610 0.950 1_554 S
C639 C638 1.397 . S
C639 C640 1.334 . S
C640 H611 0.950 . S
C640 C639 1.334 . S
C640 C641 1.287 . S
C641 C640 1.287 . S
C641 C642 1.524 . S
C641 H644 0.999 . S
C642 H612 0.950 . S
C642 C641 1.524 . S
C642 C643 1.415 . S
C643 H613 0.950 . S
C643 C638 1.363 . S
C643 C642 1.415 . S
H644 C641 0.999 . S
H645 C626 0.913 . S
H646 C664 0.951 . S
H647 C666 0.951 . S
H648 C668 0.950 . S
H649 C669 0.950 . S
H650 C671 0.950 . S
H651 C674 0.950 . S
H652 C675 0.950 . S
H653 C677 0.950 . S
H654 C678 0.950 . S
H655 C679 0.951 . S
H656 C681 0.951 . S
H657 C683 0.950 . S
H658 C684 0.950 . S
H659 C686 0.950 . S
H660 C689 0.950 . S
H661 C690 0.950 . S
H662 C692 0.950 . S
H663 C693 0.950 . S
C664 H646 0.951 . S
C664 C665 1.366 . S
C664 C666 1.388 . S
C665 C664 1.366 . S
C665 C669 1.385 . S
C666 H647 0.951 . S
C666 C664 1.388 . S
C666 C667 1.366 . S
C667 C666 1.366 . S
C667 C668 1.414 . S
C667 C670 1.499 . S
C668 H648 0.950 . S
C668 C667 1.414 . S
C668 C669 1.374 . S
C669 H649 0.950 . S
C669 C665 1.385 . S
C669 C668 1.374 . S
C670 C667 1.499 . S
C670 C671 1.373 . S
C670 C672 1.389 . S
C671 H650 0.950 . S
C671 C670 1.373 . S
C671 C687 1.377 . S
C672 C670 1.389 . S
C672 C673 1.524 . S
C672 C686 1.377 . S
C673 C672 1.524 . S
C673 C674 1.397 . S
C673 C678 1.363 . S
C674 H651 0.950 . S
C674 C673 1.397 . S
C674 C675 1.334 . S
C675 H652 0.950 . S
C675 C674 1.334 . S
C675 C676 1.287 . S
C676 C675 1.287 . S
C676 C677 1.524 . S
C676 H695 0.913 . S
C677 H653 0.950 . S
C677 C676 1.524 . S
C677 C678 1.415 . S
C678 H654 0.950 . S
C678 C673 1.363 . S
C678 C677 1.415 . S
C679 H655 0.951 . S
C679 C680 1.366 . S
C679 C681 1.388 . S
C680 C679 1.366 . S
C680 C684 1.385 . S
C681 H656 0.951 . S
C681 C679 1.388 . S
C681 C682 1.366 . S
C682 C681 1.366 . S
C682 C683 1.414 . S
C682 C685 1.499 . S
C683 H657 0.950 . S
C683 C682 1.414 . S
C683 C684 1.374 . S
C684 H658 0.950 . S
C684 C680 1.385 . S
C684 C683 1.374 . S
C685 C682 1.499 . S
C685 C686 1.373 . S
C685 C687 1.389 . S
C686 H659 0.950 . S
C686 C672 1.377 . S
C686 C685 1.373 . S
C687 C671 1.377 . S
C687 C685 1.389 . S
C687 C688 1.524 . S
C688 C687 1.524 . S
C688 C689 1.397 . S
C688 C693 1.363 . S
C689 H660 0.950 . S
C689 C688 1.397 . S
C689 C690 1.334 . S
C690 H661 0.950 . S
C690 C689 1.334 . S
C690 C691 1.287 . S
C691 C690 1.287 . S
C691 C692 1.524 . S
C691 H694 0.999 . S
C692 H662 0.950 . S
C692 C691 1.524 . S
C692 C693 1.415 . S
C693 H663 0.950 . S
C693 C688 1.363 . S
C693 C692 1.415 . S
H694 C691 0.999 . S
H695 C676 0.913 . S
H696 C714 0.951 . S
H697 C716 0.951 . S
H698 C718 0.950 . S
H699 C719 0.950 . S
H700 C721 0.950 . S
H701 C724 0.950 . S
H702 C725 0.950 . S
H703 C727 0.950 . S
H704 C728 0.950 1_556 S
H705 C729 0.951 . S
H706 C731 0.951 . S
H707 C733 0.950 . S
H708 C734 0.950 . S
H709 C736 0.950 . S
H710 C739 0.950 . S
H711 C740 0.950 . S
H712 C742 0.950 . S
H713 C743 0.950 1_554 S
C714 H696 0.951 . S
C714 C715 1.366 . S
C714 C716 1.388 . S
C715 C714 1.366 . S
C715 C719 1.385 . S
C716 H697 0.951 . S
C716 C714 1.388 . S
C716 C717 1.366 . S
C717 C716 1.366 . S
C717 C718 1.414 . S
C717 C720 1.499 . S
C718 H698 0.950 . S
C718 C717 1.414 . S
C718 C719 1.374 . S
C719 H699 0.950 . S
C719 C715 1.385 . S
C719 C718 1.374 . S
C720 C717 1.499 . S
C720 C721 1.373 . S
C720 C722 1.389 . S
C721 H700 0.950 . S
C721 C720 1.373 . S
C721 C737 1.377 1_554 S
C722 C720 1.389 . S
C722 C723 1.524 . S
C722 C736 1.377 1_554 S
C723 C722 1.524 . S
C723 C724 1.397 . S
C723 C728 1.363 . S
C724 H701 0.950 . S
C724 C723 1.397 . S
C724 C725 1.334 . S
C725 H702 0.950 . S
C725 C724 1.334 . S
C725 C726 1.287 . S
C726 C725 1.287 . S
C726 C727 1.524 . S
C726 H745 0.913 . S
C727 H703 0.950 . S
C727 C726 1.524 . S
C727 C728 1.415 . S
C728 H704 0.950 1_554 S
C728 C723 1.363 . S
C728 C727 1.415 . S
C729 H705 0.951 . S
C729 C730 1.366 . S
C729 C731 1.388 . S
C730 C729 1.366 . S
C730 C734 1.385 . S
C731 H706 0.951 . S
C731 C729 1.388 . S
C731 C732 1.366 . S
C732 C731 1.366 . S
C732 C733 1.414 . S
C732 C735 1.499 . S
C733 H707 0.950 . S
C733 C732 1.414 . S
C733 C734 1.374 . S
C734 H708 0.950 . S
C734 C730 1.385 . S
C734 C733 1.374 . S
C735 C732 1.499 . S
C735 C736 1.373 . S
C735 C737 1.389 . S
C736 H709 0.950 . S
C736 C722 1.377 1_556 S
C736 C735 1.373 . S
C737 C721 1.377 1_556 S
C737 C735 1.389 . S
C737 C738 1.524 . S
C738 C737 1.524 . S
C738 C739 1.397 . S
C738 C743 1.363 . S
C739 H710 0.950 . S
C739 C738 1.397 . S
C739 C740 1.334 . S
C740 H711 0.950 . S
C740 C739 1.334 . S
C740 C741 1.287 . S
C741 C740 1.287 . S
C741 C742 1.524 . S
C741 H744 0.999 . S
C742 H712 0.950 . S
C742 C741 1.524 . S
C742 C743 1.415 . S
C743 H713 0.950 1_556 S
C743 C738 1.363 . S
C743 C742 1.415 . S
H744 C741 0.999 . S
H745 C726 0.913 . S
H746 C764 0.951 . S
H747 C766 0.951 . S
H748 C768 0.950 . S
H749 C769 0.950 . S
H750 C771 0.950 . S
H751 C774 0.950 . S
H752 C775 0.950 . S
H753 C777 0.950 . S
H754 C778 0.950 . S
H755 C779 0.951 . S
H756 C781 0.951 . S
H757 C783 0.950 . S
H758 C784 0.950 . S
H759 C786 0.950 . S
H760 C789 0.950 . S
H761 C790 0.950 . S
H762 C792 0.950 . S
H763 C793 0.950 . S
C764 H746 0.951 . S
C764 C765 1.366 . S
C764 C766 1.388 . S
C765 C764 1.366 . S
C765 C769 1.385 . S
C766 H747 0.951 . S
C766 C764 1.388 . S
C766 C767 1.366 . S
C767 C766 1.366 . S
C767 C768 1.414 . S
C767 C770 1.499 . S
C768 H748 0.950 . S
C768 C767 1.414 . S
C768 C769 1.374 . S
C769 H749 0.950 . S
C769 C765 1.385 . S
C769 C768 1.374 . S
C770 C767 1.499 . S
C770 C771 1.373 . S
C770 C772 1.389 . S
C771 H750 0.950 . S
C771 C770 1.373 . S
C771 C787 1.377 . S
C772 C770 1.389 . S
C772 C773 1.524 . S
C772 C786 1.377 . S
C773 C772 1.524 . S
C773 C774 1.397 . S
C773 C778 1.363 . S
C774 H751 0.950 . S
C774 C773 1.397 . S
C774 C775 1.334 . S
C775 H752 0.950 . S
C775 C774 1.334 . S
C775 C776 1.287 . S
C776 C775 1.287 . S
C776 C777 1.524 . S
C776 H795 0.913 . S
C777 H753 0.950 . S
C777 C776 1.524 . S
C777 C778 1.415 . S
C778 H754 0.950 . S
C778 C773 1.363 . S
C778 C777 1.415 . S
C779 H755 0.951 . S
C779 C780 1.366 . S
C779 C781 1.388 . S
C780 C779 1.366 . S
C780 C784 1.385 . S
C781 H756 0.951 . S
C781 C779 1.388 . S
C781 C782 1.366 . S
C782 C781 1.366 . S
C782 C783 1.414 . S
C782 C785 1.499 . S
C783 H757 0.950 . S
C783 C782 1.414 . S
C783 C784 1.374 . S
C784 H758 0.950 . S
C784 C780 1.385 . S
C784 C783 1.374 . S
C785 C782 1.499 . S
C785 C786 1.373 . S
C785 C787 1.389 . S
C786 H759 0.950 . S
C786 C772 1.377 . S
C786 C785 1.373 . S
C787 C771 1.377 . S
C787 C785 1.389 . S
C787 C788 1.524 . S
C788 C787 1.524 . S
C788 C789 1.397 . S
C788 C793 1.363 . S
C789 H760 0.950 . S
C789 C788 1.397 . S
C789 C790 1.334 . S
C790 H761 0.950 . S
C790 C789 1.334 . S
C790 C791 1.287 . S
C791 C790 1.287 . S
C791 C792 1.524 . S
C791 H794 0.999 . S
C792 H762 0.950 . S
C792 C791 1.524 . S
C792 C793 1.415 . S
C793 H763 0.950 . S
C793 C788 1.363 . S
C793 C792 1.415 . S
H794 C791 0.999 . S
H795 C776 0.913 . S
H796 C814 0.951 . S
H797 C816 0.951 . S
H798 C818 0.950 . S
H799 C819 0.950 . S
H800 C821 0.950 . S
H801 C824 0.950 . S
H802 C825 0.950 . S
H803 C827 0.950 . S
H804 C828 0.950 . S
H805 C829 0.951 . S
H806 C831 0.951 . S
H807 C833 0.950 . S
H808 C834 0.950 . S
H809 C836 0.950 . S
H810 C839 0.950 . S
H811 C840 0.950 . S
H812 C842 0.950 . S
H813 C843 0.950 . S
C814 H796 0.951 . S
C814 C815 1.366 . S
C814 C816 1.388 . S
C815 C814 1.366 . S
C815 C819 1.385 . S
C816 H797 0.951 . S
C816 C814 1.388 . S
C816 C817 1.366 . S
C817 C816 1.366 . S
C817 C818 1.414 . S
C817 C820 1.499 . S
C818 H798 0.950 . S
C818 C817 1.414 . S
C818 C819 1.374 . S
C819 H799 0.950 . S
C819 C815 1.385 . S
C819 C818 1.374 . S
C820 C817 1.499 . S
C820 C821 1.373 1_554 S
C820 C822 1.389 . S
C821 H800 0.950 . S
C821 C820 1.373 1_556 S
C821 C837 1.377 . S
C822 C820 1.389 . S
C822 C823 1.524 . S
C822 C836 1.377 . S
C823 C822 1.524 . S
C823 C824 1.397 . S
C823 C828 1.363 . S
C824 H801 0.950 . S
C824 C823 1.397 . S
C824 C825 1.334 . S
C825 H802 0.950 . S
C825 C824 1.334 . S
C825 C826 1.287 . S
C826 C825 1.287 . S
C826 C827 1.524 . S
C826 H845 0.913 . S
C827 H803 0.950 . S
C827 C826 1.524 . S
C827 C828 1.415 . S
C828 H804 0.950 . S
C828 C823 1.363 . S
C828 C827 1.415 . S
C829 H805 0.951 . S
C829 C830 1.366 . S
C829 C831 1.388 . S
C830 C829 1.366 . S
C830 C834 1.385 . S
C831 H806 0.951 . S
C831 C829 1.388 . S
C831 C832 1.366 . S
C832 C831 1.366 . S
C832 C833 1.414 . S
C832 C835 1.499 . S
C833 H807 0.950 . S
C833 C832 1.414 . S
C833 C834 1.374 . S
C834 H808 0.950 . S
C834 C830 1.385 . S
C834 C833 1.374 . S
C835 C832 1.499 . S
C835 C836 1.373 1_556 S
C835 C837 1.389 . S
C836 H809 0.950 . S
C836 C822 1.377 . S
C836 C835 1.373 1_554 S
C837 C821 1.377 . S
C837 C835 1.389 . S
C837 C838 1.524 . S
C838 C837 1.524 . S
C838 C839 1.397 . S
C838 C843 1.363 . S
C839 H810 0.950 . S
C839 C838 1.397 . S
C839 C840 1.334 . S
C840 H811 0.950 . S
C840 C839 1.334 . S
C840 C841 1.287 . S
C841 C840 1.287 . S
C841 C842 1.524 . S
C841 H844 0.999 . S
C842 H812 0.950 . S
C842 C841 1.524 . S
C842 C843 1.415 . S
C843 H813 0.950 . S
C843 C838 1.363 . S
C843 C842 1.415 . S
H844 C841 0.999 . S
H845 C826 0.913 . S
H846 C864 0.951 . S
H847 C866 0.951 . S
H848 C868 0.950 . S
H849 C869 0.950 . S
H850 C871 0.950 . S
H851 C874 0.950 . S
H852 C875 0.950 . S
H853 C877 0.950 . S
H854 C878 0.950 . S
H855 C879 0.951 . S
H856 C881 0.951 . S
H857 C883 0.950 . S
H858 C884 0.950 . S
H859 C886 0.950 . S
H860 C889 0.950 . S
H861 C890 0.950 . S
H862 C892 0.950 . S
H863 C893 0.950 . S
C864 H846 0.951 . S
C864 C865 1.366 . S
C864 C866 1.388 . S
C865 C864 1.366 . S
C865 C869 1.385 . S
C866 H847 0.951 . S
C866 C864 1.388 . S
C866 C867 1.366 . S
C867 C866 1.366 . S
C867 C868 1.414 . S
C867 C870 1.499 . S
C868 H848 0.950 . S
C868 C867 1.414 . S
C868 C869 1.374 . S
C869 H849 0.950 . S
C869 C865 1.385 . S
C869 C868 1.374 . S
C870 C867 1.499 . S
C870 C871 1.373 . S
C870 C872 1.389 . S
C871 H850 0.950 . S
C871 C870 1.373 . S
C871 C887 1.377 . S
C872 C870 1.389 . S
C872 C873 1.524 . S
C872 C886 1.377 . S
C873 C872 1.524 . S
C873 C874 1.397 . S
C873 C878 1.363 . S
C874 H851 0.950 . S
C874 C873 1.397 . S
C874 C875 1.334 . S
C875 H852 0.950 . S
C875 C874 1.334 . S
C875 C876 1.287 . S
C876 C875 1.287 . S
C876 C877 1.524 . S
C876 H895 0.913 . S
C877 H853 0.950 . S
C877 C876 1.524 . S
C877 C878 1.415 . S
C878 H854 0.950 . S
C878 C873 1.363 . S
C878 C877 1.415 . S
C879 H855 0.951 . S
C879 C880 1.366 . S
C879 C881 1.388 . S
C880 C879 1.366 . S
C880 C884 1.385 . S
C881 H856 0.951 . S
C881 C879 1.388 . S
C881 C882 1.366 . S
C882 C881 1.366 . S
C882 C883 1.414 . S
C882 C885 1.499 . S
C883 H857 0.950 . S
C883 C882 1.414 . S
C883 C884 1.374 . S
C884 H858 0.950 . S
C884 C880 1.385 . S
C884 C883 1.374 . S
C885 C882 1.499 . S
C885 C886 1.373 . S
C885 C887 1.389 . S
C886 H859 0.950 . S
C886 C872 1.377 . S
C886 C885 1.373 . S
C887 C871 1.377 . S
C887 C885 1.389 . S
C887 C888 1.524 . S
C888 C887 1.524 . S
C888 C889 1.397 . S
C888 C893 1.363 . S
C889 H860 0.950 . S
C889 C888 1.397 . S
C889 C890 1.334 . S
C890 H861 0.950 . S
C890 C889 1.334 . S
C890 C891 1.287 . S
C891 C890 1.287 . S
C891 C892 1.524 . S
C891 H894 0.999 . S
C892 H862 0.950 . S
C892 C891 1.524 . S
C892 C893 1.415 . S
C893 H863 0.950 . S
C893 C888 1.363 . S
C893 C892 1.415 . S
H894 C891 0.999 . S
H895 C876 0.913 . S
H896 C914 0.951 . S
H897 C916 0.951 . S
H898 C918 0.950 . S
H899 C919 0.950 . S
H900 C921 0.950 . S
H901 C924 0.950 . S
H902 C925 0.950 . S
H903 C927 0.950 . S
H904 C928 0.950 . S
H905 C929 0.951 . S
H906 C931 0.951 . S
H907 C933 0.950 . S
H908 C934 0.950 . S
H909 C936 0.950 . S
H910 C939 0.950 . S
H911 C940 0.950 . S
H912 C942 0.950 . S
H913 C943 0.950 . S
C914 H896 0.951 . S
C914 C915 1.366 . S
C914 C916 1.388 . S
C915 C914 1.366 . S
C915 C919 1.385 . S
C916 H897 0.951 . S
C916 C914 1.388 . S
C916 C917 1.366 . S
C917 C916 1.366 . S
C917 C918 1.414 . S
C917 C920 1.499 . S
C918 H898 0.950 . S
C918 C917 1.414 . S
C918 C919 1.374 . S
C919 H899 0.950 . S
C919 C915 1.385 . S
C919 C918 1.374 . S
C920 C917 1.499 . S
C920 C921 1.373 1_554 S
C920 C922 1.389 . S
C921 H900 0.950 . S
C921 C920 1.373 1_556 S
C921 C937 1.377 . S
C922 C920 1.389 . S
C922 C923 1.524 . S
C922 C936 1.377 . S
C923 C922 1.524 . S
C923 C924 1.397 . S
C923 C928 1.363 . S
C924 H901 0.950 . S
C924 C923 1.397 . S
C924 C925 1.334 . S
C925 H902 0.950 . S
C925 C924 1.334 . S
C925 C926 1.287 . S
C926 C925 1.287 . S
C926 C927 1.524 . S
C926 H945 0.913 . S
C927 H903 0.950 . S
C927 C926 1.524 . S
C927 C928 1.415 . S
C928 H904 0.950 . S
C928 C923 1.363 . S
C928 C927 1.415 . S
C929 H905 0.951 . S
C929 C930 1.366 . S
C929 C931 1.388 . S
C930 C929 1.366 . S
C930 C934 1.385 . S
C931 H906 0.951 . S
C931 C929 1.388 . S
C931 C932 1.366 . S
C932 C931 1.366 . S
C932 C933 1.414 . S
C932 C935 1.499 . S
C933 H907 0.950 . S
C933 C932 1.414 . S
C933 C934 1.374 . S
C934 H908 0.950 . S
C934 C930 1.385 . S
C934 C933 1.374 . S
C935 C932 1.499 . S
C935 C936 1.373 1_556 S
C935 C937 1.389 . S
C936 H909 0.950 . S
C936 C922 1.377 . S
C936 C935 1.373 1_554 S
C937 C921 1.377 . S
C937 C935 1.389 . S
C937 C938 1.524 . S
C938 C937 1.524 . S
C938 C939 1.397 . S
C938 C943 1.363 . S
C939 H910 0.950 . S
C939 C938 1.397 . S
C939 C940 1.334 . S
C940 H911 0.950 . S
C940 C939 1.334 . S
C940 C941 1.287 . S
C941 C940 1.287 . S
C941 C942 1.524 . S
C941 H944 0.999 . S
C942 H912 0.950 . S
C942 C941 1.524 . S
C942 C943 1.415 . S
C943 H913 0.950 . S
C943 C938 1.363 . S
C943 C942 1.415 . S
H944 C941 0.999 . S
H945 C926 0.913 . S
H946 C964 0.951 . S
H947 C966 0.951 . S
H948 C968 0.950 . S
H949 C969 0.950 . S
H950 C971 0.950 . S
H951 C974 0.950 . S
H952 C975 0.950 . S
H953 C977 0.950 . S
H954 C978 0.950 . S
H955 C979 0.951 . S
H956 C981 0.951 . S
H957 C983 0.950 . S
H958 C984 0.950 . S
H959 C986 0.950 . S
H960 C989 0.950 . S
H961 C990 0.950 . S
H962 C992 0.950 . S
H963 C993 0.950 . S
C964 H946 0.951 . S
C964 C965 1.366 . S
C964 C966 1.388 . S
C965 C964 1.366 . S
C965 C969 1.385 . S
C966 H947 0.951 . S
C966 C964 1.388 . S
C966 C967 1.366 . S
C967 C966 1.366 . S
C967 C968 1.414 . S
C967 C970 1.499 . S
C968 H948 0.950 . S
C968 C967 1.414 . S
C968 C969 1.374 . S
C969 H949 0.950 . S
C969 C965 1.385 . S
C969 C968 1.374 . S
C970 C967 1.499 . S
C970 C971 1.373 . S
C970 C972 1.389 . S
C971 H950 0.950 . S
C971 C970 1.373 . S
C971 C987 1.377 . S
C972 C970 1.389 . S
C972 C973 1.524 . S
C972 C986 1.377 . S
C973 C972 1.524 . S
C973 C974 1.397 . S
C973 C978 1.363 . S
C974 H951 0.950 . S
C974 C973 1.397 . S
C974 C975 1.334 . S
C975 H952 0.950 . S
C975 C974 1.334 . S
C975 C976 1.287 . S
C976 C975 1.287 . S
C976 C977 1.524 . S
C976 H995 0.913 . S
C977 H953 0.950 . S
C977 C976 1.524 . S
C977 C978 1.415 . S
C978 H954 0.950 . S
C978 C973 1.363 . S
C978 C977 1.415 . S
C979 H955 0.951 . S
C979 C980 1.366 . S
C979 C981 1.388 . S
C980 C979 1.366 . S
C980 C984 1.385 . S
C981 H956 0.951 . S
C981 C979 1.388 . S
C981 C982 1.366 . S
C982 C981 1.366 . S
C982 C983 1.414 . S
C982 C985 1.499 . S
C983 H957 0.950 . S
C983 C982 1.414 . S
C983 C984 1.374 . S
C984 H958 0.950 . S
C984 C980 1.385 . S
C984 C983 1.374 . S
C985 C982 1.499 . S
C985 C986 1.373 . S
C985 C987 1.389 . S
C986 H959 0.950 . S
C986 C972 1.377 . S
C986 C985 1.373 . S
C987 C971 1.377 . S
C987 C985 1.389 . S
C987 C988 1.524 . S
C988 C987 1.524 . S
C988 C989 1.397 . S
C988 C993 1.363 . S
C989 H960 0.950 . S
C989 C988 1.397 . S
C989 C990 1.334 . S
C990 H961 0.950 . S
C990 C989 1.334 . S
C990 C991 1.287 . S
C991 C990 1.287 . S
C991 C992 1.524 . S
C991 H994 0.999 . S
C992 H962 0.950 . S
C992 C991 1.524 . S
C992 C993 1.415 . S
C993 H963 0.950 . S
C993 C988 1.363 . S
C993 C992 1.415 . S
H994 C991 0.999 . S
H995 C976 0.913 . S
H996 C1014 0.951 . S
H997 C1016 0.951 . S
H998 C1018 0.950 . S
H999 C1019 0.950 . S
H1000 C1021 0.950 . S
H1001 C1024 0.950 . S
H1002 C1025 0.950 . S
H1003 C1027 0.950 . S
H1004 C1028 0.950 . S
H1005 C1029 0.951 . S
H1006 C1031 0.951 . S
H1007 C1033 0.950 . S
H1008 C1034 0.950 . S
H1009 C1036 0.950 . S
H1010 C1039 0.950 . S
H1011 C1040 0.950 . S
H1012 C1042 0.950 . S
H1013 C1043 0.950 . S
C1014 H996 0.951 . S
C1014 C1015 1.366 . S
C1014 C1016 1.388 . S
C1015 C1014 1.366 . S
C1015 C1019 1.385 . S
C1016 H997 0.951 . S
C1016 C1014 1.388 . S
C1016 C1017 1.366 . S
C1017 C1016 1.366 . S
C1017 C1018 1.414 . S
C1017 C1020 1.499 . S
C1018 H998 0.950 . S
C1018 C1017 1.414 . S
C1018 C1019 1.374 . S
C1019 H999 0.950 . S
C1019 C1015 1.385 . S
C1019 C1018 1.374 . S
C1020 C1017 1.499 . S
C1020 C1021 1.373 . S
C1020 C1022 1.389 1_556 S
C1021 H1000 0.950 . S
C1021 C1020 1.373 . S
C1021 C1037 1.377 . S
C1022 C1020 1.389 1_554 S
C1022 C1023 1.524 . S
C1022 C1036 1.377 . S
C1023 C1022 1.524 . S
C1023 C1024 1.397 1_554 S
C1023 C1028 1.363 . S
C1024 H1001 0.950 . S
C1024 C1023 1.397 1_556 S
C1024 C1025 1.334 . S
C1025 H1002 0.950 . S
C1025 C1024 1.334 . S
C1025 C1026 1.287 1_556 S
C1026 C1025 1.287 1_554 S
C1026 C1027 1.524 . S
C1026 H1045 0.913 . S
C1027 H1003 0.950 . S
C1027 C1026 1.524 . S
C1027 C1028 1.415 . S
C1028 H1004 0.950 . S
C1028 C1023 1.363 . S
C1028 C1027 1.415 . S
C1029 H1005 0.951 . S
C1029 C1030 1.366 . S
C1029 C1031 1.388 . S
C1030 C1029 1.366 . S
C1030 C1034 1.385 . S
C1031 H1006 0.951 . S
C1031 C1029 1.388 . S
C1031 C1032 1.366 . S
C1032 C1031 1.366 . S
C1032 C1033 1.414 . S
C1032 C1035 1.499 . S
C1033 H1007 0.950 . S
C1033 C1032 1.414 . S
C1033 C1034 1.374 . S
C1034 H1008 0.950 . S
C1034 C1030 1.385 . S
C1034 C1033 1.374 . S
C1035 C1032 1.499 . S
C1035 C1036 1.373 . S
C1035 C1037 1.389 1_554 S
C1036 H1009 0.950 . S
C1036 C1022 1.377 . S
C1036 C1035 1.373 . S
C1037 C1021 1.377 . S
C1037 C1035 1.389 1_556 S
C1037 C1038 1.524 . S
C1038 C1037 1.524 . S
C1038 C1039 1.397 1_556 S
C1038 C1043 1.363 . S
C1039 H1010 0.950 . S
C1039 C1038 1.397 1_554 S
C1039 C1040 1.334 . S
C1040 H1011 0.950 . S
C1040 C1039 1.334 . S
C1040 C1041 1.287 1_554 S
C1041 C1040 1.287 1_556 S
C1041 C1042 1.524 . S
C1041 H1044 0.999 . S
C1042 H1012 0.950 . S
C1042 C1041 1.524 . S
C1042 C1043 1.415 . S
C1043 H1013 0.950 . S
C1043 C1038 1.363 . S
C1043 C1042 1.415 . S
H1044 C1041 0.999 . S
H1045 C1026 0.913 . S
H1046 C1064 0.951 . S
H1047 C1066 0.951 . S
H1048 C1068 0.950 . S
H1049 C1069 0.950 . S
H1050 C1071 0.950 . S
H1051 C1074 0.950 . S
H1052 C1075 0.950 . S
H1053 C1077 0.950 . S
H1054 C1078 0.950 . S
H1055 C1079 0.951 . S
H1056 C1081 0.951 . S
H1057 C1083 0.950 . S
H1058 C1084 0.950 . S
H1059 C1086 0.950 . S
H1060 C1089 0.950 . S
H1061 C1090 0.950 . S
H1062 C1092 0.950 . S
H1063 C1093 0.950 . S
C1064 H1046 0.951 . S
C1064 C1065 1.366 . S
C1064 C1066 1.388 . S
C1065 C1064 1.366 . S
C1065 C1069 1.385 . S
C1066 H1047 0.951 . S
C1066 C1064 1.388 . S
C1066 C1067 1.366 . S
C1067 C1066 1.366 . S
C1067 C1068 1.414 . S
C1067 C1070 1.499 . S
C1068 H1048 0.950 . S
C1068 C1067 1.414 . S
C1068 C1069 1.374 . S
C1069 H1049 0.950 . S
C1069 C1065 1.385 . S
C1069 C1068 1.374 . S
C1070 C1067 1.499 . S
C1070 C1071 1.373 . S
C1070 C1072 1.389 . S
C1071 H1050 0.950 . S
C1071 C1070 1.373 . S
C1071 C1087 1.377 . S
C1072 C1070 1.389 . S
C1072 C1073 1.524 . S
C1072 C1086 1.377 . S
C1073 C1072 1.524 . S
C1073 C1074 1.397 . S
C1073 C1078 1.363 . S
C1074 H1051 0.950 . S
C1074 C1073 1.397 . S
C1074 C1075 1.334 . S
C1075 H1052 0.950 . S
C1075 C1074 1.334 . S
C1075 C1076 1.287 . S
C1076 C1075 1.287 . S
C1076 C1077 1.524 . S
C1076 H1095 0.913 . S
C1077 H1053 0.950 . S
C1077 C1076 1.524 . S
C1077 C1078 1.415 . S
C1078 H1054 0.950 . S
C1078 C1073 1.363 . S
C1078 C1077 1.415 . S
C1079 H1055 0.951 . S
C1079 C1080 1.366 . S
C1079 C1081 1.388 . S
C1080 C1079 1.366 . S
C1080 C1084 1.385 . S
C1081 H1056 0.951 . S
C1081 C1079 1.388 . S
C1081 C1082 1.366 . S
C1082 C1081 1.366 . S
C1082 C1083 1.414 . S
C1082 C1085 1.499 . S
C1083 H1057 0.950 . S
C1083 C1082 1.414 . S
C1083 C1084 1.374 . S
C1084 H1058 0.950 . S
C1084 C1080 1.385 . S
C1084 C1083 1.374 . S
C1085 C1082 1.499 . S
C1085 C1086 1.373 . S
C1085 C1087 1.389 . S
C1086 H1059 0.950 . S
C1086 C1072 1.377 . S
C1086 C1085 1.373 . S
C1087 C1071 1.377 . S
C1087 C1085 1.389 . S
C1087 C1088 1.524 . S
C1088 C1087 1.524 . S
C1088 C1089 1.397 . S
C1088 C1093 1.363 . S
C1089 H1060 0.950 . S
C1089 C1088 1.397 . S
C1089 C1090 1.334 . S
C1090 H1061 0.950 . S
C1090 C1089 1.334 . S
C1090 C1091 1.287 . S
C1091 C1090 1.287 . S
C1091 C1092 1.524 . S
C1091 H1094 0.999 . S
C1092 H1062 0.950 . S
C1092 C1091 1.524 . S
C1092 C1093 1.415 . S
C1093 H1063 0.950 . S
C1093 C1088 1.363 . S
C1093 C1092 1.415 . S
H1094 C1091 0.999 . S
H1095 C1076 0.913 . S
H1096 C1114 0.951 . S
H1097 C1116 0.951 . S
H1098 C1118 0.950 . S
H1099 C1119 0.950 . S
H1100 C1121 0.950 . S
H1101 C1124 0.950 . S
H1102 C1125 0.950 . S
H1103 C1127 0.950 . S
H1104 C1128 0.950 . S
H1105 C1129 0.951 . S
H1106 C1131 0.951 . S
H1107 C1133 0.950 . S
H1108 C1134 0.950 . S
H1109 C1136 0.950 . S
H1110 C1139 0.950 . S
H1111 C1140 0.950 . S
H1112 C1142 0.950 . S
H1113 C1143 0.950 . S
C1114 H1096 0.951 . S
C1114 C1115 1.366 . S
C1114 C1116 1.388 . S
C1115 C1114 1.366 . S
C1115 C1119 1.385 . S
C1116 H1097 0.951 . S
C1116 C1114 1.388 . S
C1116 C1117 1.366 . S
C1117 C1116 1.366 . S
C1117 C1118 1.414 . S
C1117 C1120 1.499 . S
C1118 H1098 0.950 . S
C1118 C1117 1.414 . S
C1118 C1119 1.374 . S
C1119 H1099 0.950 . S
C1119 C1115 1.385 . S
C1119 C1118 1.374 . S
C1120 C1117 1.499 . S
C1120 C1121 1.373 1_554 S
C1120 C1122 1.389 . S
C1121 H1100 0.950 . S
C1121 C1120 1.373 1_556 S
C1121 C1137 1.377 . S
C1122 C1120 1.389 . S
C1122 C1123 1.524 . S
C1122 C1136 1.377 . S
C1123 C1122 1.524 . S
C1123 C1124 1.397 . S
C1123 C1128 1.363 . S
C1124 H1101 0.950 . S
C1124 C1123 1.397 . S
C1124 C1125 1.334 . S
C1125 H1102 0.950 . S
C1125 C1124 1.334 . S
C1125 C1126 1.287 . S
C1126 C1125 1.287 . S
C1126 C1127 1.524 . S
C1126 H1145 0.913 . S
C1127 H1103 0.950 . S
C1127 C1126 1.524 . S
C1127 C1128 1.415 . S
C1128 H1104 0.950 . S
C1128 C1123 1.363 . S
C1128 C1127 1.415 . S
C1129 H1105 0.951 . S
C1129 C1130 1.366 . S
C1129 C1131 1.388 . S
C1130 C1129 1.366 . S
C1130 C1134 1.385 . S
C1131 H1106 0.951 . S
C1131 C1129 1.388 . S
C1131 C1132 1.366 . S
C1132 C1131 1.366 . S
C1132 C1133 1.414 . S
C1132 C1135 1.499 . S
C1133 H1107 0.950 . S
C1133 C1132 1.414 . S
C1133 C1134 1.374 . S
C1134 H1108 0.950 . S
C1134 C1130 1.385 . S
C1134 C1133 1.374 . S
C1135 C1132 1.499 . S
C1135 C1136 1.373 1_556 S
C1135 C1137 1.389 . S
C1136 H1109 0.950 . S
C1136 C1122 1.377 . S
C1136 C1135 1.373 1_554 S
C1137 C1121 1.377 . S
C1137 C1135 1.389 . S
C1137 C1138 1.524 . S
C1138 C1137 1.524 . S
C1138 C1139 1.397 . S
C1138 C1143 1.363 . S
C1139 H1110 0.950 . S
C1139 C1138 1.397 . S
C1139 C1140 1.334 . S
C1140 H1111 0.950 . S
C1140 C1139 1.334 . S
C1140 C1141 1.287 . S
C1141 C1140 1.287 . S
C1141 C1142 1.524 . S
C1141 H1144 0.999 . S
C1142 H1112 0.950 . S
C1142 C1141 1.524 . S
C1142 C1143 1.415 . S
C1143 H1113 0.950 . S
C1143 C1138 1.363 . S
C1143 C1142 1.415 . S
H1144 C1141 0.999 . S
H1145 C1126 0.913 . S
H1146 C1164 0.951 . S
H1147 C1166 0.951 . S
H1148 C1168 0.950 . S
H1149 C1169 0.950 . S
H1150 C1171 0.950 . S
H1151 C1174 0.950 . S
H1152 C1175 0.950 . S
H1153 C1177 0.950 . S
H1154 C1178 0.950 . S
H1155 C1179 0.951 . S
H1156 C1181 0.951 . S
H1157 C1183 0.950 . S
H1158 C1184 0.950 . S
H1159 C1186 0.950 . S
H1160 C1189 0.950 . S
H1161 C1190 0.950 . S
H1162 C1192 0.950 . S
H1163 C1193 0.950 . S
C1164 H1146 0.951 . S
C1164 C1165 1.366 . S
C1164 C1166 1.388 . S
C1165 C1164 1.366 . S
C1165 C1169 1.385 . S
C1166 H1147 0.951 . S
C1166 C1164 1.388 . S
C1166 C1167 1.366 . S
C1167 C1166 1.366 . S
C1167 C1168 1.414 . S
C1167 C1170 1.499 . S
C1168 H1148 0.950 . S
C1168 C1167 1.414 . S
C1168 C1169 1.374 . S
C1169 H1149 0.950 . S
C1169 C1165 1.385 . S
C1169 C1168 1.374 . S
C1170 C1167 1.499 . S
C1170 C1171 1.373 . S
C1170 C1172 1.389 . S
C1171 H1150 0.950 . S
C1171 C1170 1.373 . S
C1171 C1187 1.377 . S
C1172 C1170 1.389 . S
C1172 C1173 1.524 . S
C1172 C1186 1.377 . S
C1173 C1172 1.524 . S
C1173 C1174 1.397 . S
C1173 C1178 1.363 . S
C1174 H1151 0.950 . S
C1174 C1173 1.397 . S
C1174 C1175 1.334 . S
C1175 H1152 0.950 . S
C1175 C1174 1.334 . S
C1175 C1176 1.287 . S
C1176 C1175 1.287 . S
C1176 C1177 1.524 . S
C1176 H1195 0.913 . S
C1177 H1153 0.950 . S
C1177 C1176 1.524 . S
C1177 C1178 1.415 . S
C1178 H1154 0.950 . S
C1178 C1173 1.363 . S
C1178 C1177 1.415 . S
C1179 H1155 0.951 . S
C1179 C1180 1.366 . S
C1179 C1181 1.388 . S
C1180 C1179 1.366 . S
C1180 C1184 1.385 . S
C1181 H1156 0.951 . S
C1181 C1179 1.388 . S
C1181 C1182 1.366 . S
C1182 C1181 1.366 . S
C1182 C1183 1.414 . S
C1182 C1185 1.499 . S
C1183 H1157 0.950 . S
C1183 C1182 1.414 . S
C1183 C1184 1.374 . S
C1184 H1158 0.950 . S
C1184 C1180 1.385 . S
C1184 C1183 1.374 . S
C1185 C1182 1.499 . S
C1185 C1186 1.373 . S
C1185 C1187 1.389 . S
C1186 H1159 0.950 . S
C1186 C1172 1.377 . S
C1186 C1185 1.373 . S
C1187 C1171 1.377 . S
C1187 C1185 1.389 . S
C1187 C1188 1.524 . S
C1188 C1187 1.524 . S
C1188 C1189 1.397 . S
C1188 C1193 1.363 . S
C1189 H1160 0.950 . S
C1189 C1188 1.397 . S
C1189 C1190 1.334 . S
C1190 H1161 0.950 . S
C1190 C1189 1.334 . S
C1190 C1191 1.287 . S
C1191 C1190 1.287 . S
C1191 C1192 1.524 . S
C1191 H1194 0.999 . S
C1192 H1162 0.950 . S
C1192 C1191 1.524 . S
C1192 C1193 1.415 . S
C1193 H1163 0.950 . S
C1193 C1188 1.363 . S
C1193 C1192 1.415 . S
H1194 C1191 0.999 . S
H1195 C1176 0.913 . S
H1196 C1214 0.951 . S
H1197 C1216 0.951 . S
H1198 C1218 0.950 . S
H1199 C1219 0.950 . S
H1200 C1221 0.950 . S
H1201 C1224 0.950 . S
H1202 C1225 0.950 . S
H1203 C1227 0.950 . S
H1204 C1228 0.950 . S
H1205 C1229 0.951 . S
H1206 C1231 0.951 . S
H1207 C1233 0.950 . S
H1208 C1234 0.950 . S
H1209 C1236 0.950 . S
H1210 C1239 0.950 . S
H1211 C1240 0.950 . S
H1212 C1242 0.950 . S
H1213 C1243 0.950 . S
C1214 H1196 0.951 . S
C1214 C1215 1.366 . S
C1214 C1216 1.388 . S
C1215 C1214 1.366 . S
C1215 C1219 1.385 . S
C1216 H1197 0.951 . S
C1216 C1214 1.388 . S
C1216 C1217 1.366 . S
C1217 C1216 1.366 . S
C1217 C1218 1.414 . S
C1217 C1220 1.499 . S
C1218 H1198 0.950 . S
C1218 C1217 1.414 . S
C1218 C1219 1.374 . S
C1219 H1199 0.950 . S
C1219 C1215 1.385 . S
C1219 C1218 1.374 . S
C1220 C1217 1.499 . S
C1220 C1221 1.373 . S
C1220 C1222 1.389 1_554 S
C1221 H1200 0.950 . S
C1221 C1220 1.373 . S
C1221 C1237 1.377 . S
C1222 C1220 1.389 1_556 S
C1222 C1223 1.524 . S
C1222 C1236 1.377 . S
C1223 C1222 1.524 . S
C1223 C1224 1.397 . S
C1223 C1228 1.363 . S
C1224 H1201 0.950 . S
C1224 C1223 1.397 . S
C1224 C1225 1.334 . S
C1225 H1202 0.950 . S
C1225 C1224 1.334 . S
C1225 C1226 1.287 . S
C1226 C1225 1.287 . S
C1226 C1227 1.524 . S
C1226 H1245 0.913 . S
C1227 H1203 0.950 . S
C1227 C1226 1.524 . S
C1227 C1228 1.415 . S
C1228 H1204 0.950 . S
C1228 C1223 1.363 . S
C1228 C1227 1.415 . S
C1229 H1205 0.951 . S
C1229 C1230 1.366 . S
C1229 C1231 1.388 . S
C1230 C1229 1.366 . S
C1230 C1234 1.385 . S
C1231 H1206 0.951 . S
C1231 C1229 1.388 . S
C1231 C1232 1.366 . S
C1232 C1231 1.366 . S
C1232 C1233 1.414 . S
C1232 C1235 1.499 . S
C1233 H1207 0.950 . S
C1233 C1232 1.414 . S
C1233 C1234 1.374 . S
C1234 H1208 0.950 . S
C1234 C1230 1.385 . S
C1234 C1233 1.374 . S
C1235 C1232 1.499 . S
C1235 C1236 1.373 . S
C1235 C1237 1.389 1_556 S
C1236 H1209 0.950 . S
C1236 C1222 1.377 . S
C1236 C1235 1.373 . S
C1237 C1221 1.377 . S
C1237 C1235 1.389 1_554 S
C1237 C1238 1.524 . S
C1238 C1237 1.524 . S
C1238 C1239 1.397 . S
C1238 C1243 1.363 . S
C1239 H1210 0.950 . S
C1239 C1238 1.397 . S
C1239 C1240 1.334 . S
C1240 H1211 0.950 . S
C1240 C1239 1.334 . S
C1240 C1241 1.287 . S
C1241 C1240 1.287 . S
C1241 C1242 1.524 . S
C1241 H1244 0.999 . S
C1242 H1212 0.950 . S
C1242 C1241 1.524 . S
C1242 C1243 1.415 . S
C1243 H1213 0.950 . S
C1243 C1238 1.363 . S
C1243 C1242 1.415 . S
H1244 C1241 0.999 . S
H1245 C1226 0.913 . S
H1246 C1264 0.951 . S
H1247 C1266 0.951 . S
H1248 C1268 0.950 . S
H1249 C1269 0.950 . S
H1250 C1271 0.950 . S
H1251 C1274 0.950 . S
H1252 C1275 0.950 . S
H1253 C1277 0.950 . S
H1254 C1278 0.950 . S
H1255 C1279 0.951 . S
H1256 C1281 0.951 . S
H1257 C1283 0.950 . S
H1258 C1284 0.950 . S
H1259 C1286 0.950 . S
H1260 C1289 0.950 . S
H1261 C1290 0.950 . S
H1262 C1292 0.950 . S
H1263 C1293 0.950 . S
C1264 H1246 0.951 . S
C1264 C1265 1.366 . S
C1264 C1266 1.388 . S
C1265 C1264 1.366 . S
C1265 C1269 1.385 . S
C1266 H1247 0.951 . S
C1266 C1264 1.388 . S
C1266 C1267 1.366 . S
C1267 C1266 1.366 . S
C1267 C1268 1.414 . S
C1267 C1270 1.499 . S
C1268 H1248 0.950 . S
C1268 C1267 1.414 . S
C1268 C1269 1.374 . S
C1269 H1249 0.950 . S
C1269 C1265 1.385 . S
C1269 C1268 1.374 . S
C1270 C1267 1.499 . S
C1270 C1271 1.373 . S
C1270 C1272 1.389 . S
C1271 H1250 0.950 . S
C1271 C1270 1.373 . S
C1271 C1287 1.377 . S
C1272 C1270 1.389 . S
C1272 C1273 1.524 . S
C1272 C1286 1.377 . S
C1273 C1272 1.524 . S
C1273 C1274 1.397 . S
C1273 C1278 1.363 . S
C1274 H1251 0.950 . S
C1274 C1273 1.397 . S
C1274 C1275 1.334 . S
C1275 H1252 0.950 . S
C1275 C1274 1.334 . S
C1275 C1276 1.287 . S
C1276 C1275 1.287 . S
C1276 C1277 1.524 . S
C1276 H1295 0.913 . S
C1277 H1253 0.950 . S
C1277 C1276 1.524 . S
C1277 C1278 1.415 . S
C1278 H1254 0.950 . S
C1278 C1273 1.363 . S
C1278 C1277 1.415 . S
C1279 H1255 0.951 . S
C1279 C1280 1.366 . S
C1279 C1281 1.388 . S
C1280 C1279 1.366 . S
C1280 C1284 1.385 . S
C1281 H1256 0.951 . S
C1281 C1279 1.388 . S
C1281 C1282 1.366 . S
C1282 C1281 1.366 . S
C1282 C1283 1.414 . S
C1282 C1285 1.499 . S
C1283 H1257 0.950 . S
C1283 C1282 1.414 . S
C1283 C1284 1.374 . S
C1284 H1258 0.950 . S
C1284 C1280 1.385 . S
C1284 C1283 1.374 . S
C1285 C1282 1.499 . S
C1285 C1286 1.373 . S
C1285 C1287 1.389 . S
C1286 H1259 0.950 . S
C1286 C1272 1.377 . S
C1286 C1285 1.373 . S
C1287 C1271 1.377 . S
C1287 C1285 1.389 . S
C1287 C1288 1.524 . S
C1288 C1287 1.524 . S
C1288 C1289 1.397 . S
C1288 C1293 1.363 . S
C1289 H1260 0.950 . S
C1289 C1288 1.397 . S
C1289 C1290 1.334 . S
C1290 H1261 0.950 . S
C1290 C1289 1.334 . S
C1290 C1291 1.287 . S
C1291 C1290 1.287 . S
C1291 C1292 1.524 . S
C1291 H1294 0.999 . S
C1292 H1262 0.950 . S
C1292 C1291 1.524 . S
C1292 C1293 1.415 . S
C1293 H1263 0.950 . S
C1293 C1288 1.363 . S
C1293 C1292 1.415 . S
H1294 C1291 0.999 . S
H1295 C1276 0.913 . S
H1296 C1314 0.951 . S
H1297 C1316 0.951 . S
H1298 C1318 0.950 . S
H1299 C1319 0.950 . S
H1300 C1321 0.950 . S
H1301 C1324 0.950 . S
H1302 C1325 0.950 . S
H1303 C1327 0.950 . S
H1304 C1328 0.950 . S
H1305 C1329 0.951 . S
H1306 C1331 0.951 . S
H1307 C1333 0.950 . S
H1308 C1334 0.950 . S
H1309 C1336 0.950 . S
H1310 C1339 0.950 . S
H1311 C1340 0.950 . S
H1312 C1342 0.950 . S
H1313 C1343 0.950 . S
C1314 H1296 0.951 . S
C1314 C1315 1.366 . S
C1314 C1316 1.388 . S
C1315 C1314 1.366 . S
C1315 C1319 1.385 . S
C1316 H1297 0.951 . S
C1316 C1314 1.388 . S
C1316 C1317 1.366 . S
C1317 C1316 1.366 . S
C1317 C1318 1.414 . S
C1317 C1320 1.499 . S
C1318 H1298 0.950 . S
C1318 C1317 1.414 . S
C1318 C1319 1.374 . S
C1319 H1299 0.950 . S
C1319 C1315 1.385 . S
C1319 C1318 1.374 . S
C1320 C1317 1.499 . S
C1320 C1321 1.373 . S
C1320 C1322 1.389 . S
C1321 H1300 0.950 . S
C1321 C1320 1.373 . S
C1321 C1337 1.377 1_556 S
C1322 C1320 1.389 . S
C1322 C1323 1.524 . S
C1322 C1336 1.377 1_556 S
C1323 C1322 1.524 . S
C1323 C1324 1.397 . S
C1323 C1328 1.363 1_556 S
C1324 H1301 0.950 . S
C1324 C1323 1.397 . S
C1324 C1325 1.334 . S
C1325 H1302 0.950 . S
C1325 C1324 1.334 . S
C1325 C1326 1.287 . S
C1326 C1325 1.287 . S
C1326 C1327 1.524 1_556 S
C1326 H1345 0.913 . S
C1327 H1303 0.950 . S
C1327 C1326 1.524 1_554 S
C1327 C1328 1.415 . S
C1328 H1304 0.950 . S
C1328 C1323 1.363 1_554 S
C1328 C1327 1.415 . S
C1329 H1305 0.951 . S
C1329 C1330 1.366 . S
C1329 C1331 1.388 . S
C1330 C1329 1.366 . S
C1330 C1334 1.385 . S
C1331 H1306 0.951 . S
C1331 C1329 1.388 . S
C1331 C1332 1.366 . S
C1332 C1331 1.366 . S
C1332 C1333 1.414 . S
C1332 C1335 1.499 . S
C1333 H1307 0.950 . S
C1333 C1332 1.414 . S
C1333 C1334 1.374 . S
C1334 H1308 0.950 . S
C1334 C1330 1.385 . S
C1334 C1333 1.374 . S
C1335 C1332 1.499 . S
C1335 C1336 1.373 . S
C1335 C1337 1.389 . S
C1336 H1309 0.950 . S
C1336 C1322 1.377 1_554 S
C1336 C1335 1.373 . S
C1337 C1321 1.377 1_554 S
C1337 C1335 1.389 . S
C1337 C1338 1.524 . S
C1338 C1337 1.524 . S
C1338 C1339 1.397 . S
C1338 C1343 1.363 1_554 S
C1339 H1310 0.950 . S
C1339 C1338 1.397 . S
C1339 C1340 1.334 . S
C1340 H1311 0.950 . S
C1340 C1339 1.334 . S
C1340 C1341 1.287 . S
C1341 C1340 1.287 . S
C1341 C1342 1.524 1_554 S
C1341 H1344 0.999 . S
C1342 H1312 0.950 . S
C1342 C1341 1.524 1_556 S
C1342 C1343 1.415 . S
C1343 H1313 0.950 . S
C1343 C1338 1.363 1_556 S
C1343 C1342 1.415 . S
H1344 C1341 0.999 . S
H1345 C1326 0.913 . S
H1346 C1364 0.951 . S
H1347 C1366 0.951 . S
H1348 C1368 0.950 . S
H1349 C1369 0.950 . S
H1350 C1371 0.950 . S
H1351 C1374 0.950 . S
H1352 C1375 0.950 . S
H1353 C1377 0.950 . S
H1354 C1378 0.950 . S
H1355 C1379 0.951 . S
H1356 C1381 0.951 . S
H1357 C1383 0.950 . S
H1358 C1384 0.950 . S
H1359 C1386 0.950 . S
H1360 C1389 0.950 . S
H1361 C1390 0.950 . S
H1362 C1392 0.950 . S
H1363 C1393 0.950 . S
C1364 H1346 0.951 . S
C1364 C1365 1.366 . S
C1364 C1366 1.388 . S
C1365 C1364 1.366 . S
C1365 C1369 1.385 . S
C1366 H1347 0.951 . S
C1366 C1364 1.388 . S
C1366 C1367 1.366 . S
C1367 C1366 1.366 . S
C1367 C1368 1.414 . S
C1367 C1370 1.499 . S
C1368 H1348 0.950 . S
C1368 C1367 1.414 . S
C1368 C1369 1.374 . S
C1369 H1349 0.950 . S
C1369 C1365 1.385 . S
C1369 C1368 1.374 . S
C1370 C1367 1.499 . S
C1370 C1371 1.373 . S
C1370 C1372 1.389 . S
C1371 H1350 0.950 . S
C1371 C1370 1.373 . S
C1371 C1387 1.377 . S
C1372 C1370 1.389 . S
C1372 C1373 1.524 . S
C1372 C1386 1.377 . S
C1373 C1372 1.524 . S
C1373 C1374 1.397 . S
C1373 C1378 1.363 . S
C1374 H1351 0.950 . S
C1374 C1373 1.397 . S
C1374 C1375 1.334 . S
C1375 H1352 0.950 . S
C1375 C1374 1.334 . S
C1375 C1376 1.287 . S
C1376 C1375 1.287 . S
C1376 C1377 1.524 . S
C1376 H1395 0.913 . S
C1377 H1353 0.950 . S
C1377 C1376 1.524 . S
C1377 C1378 1.415 . S
C1378 H1354 0.950 . S
C1378 C1373 1.363 . S
C1378 C1377 1.415 . S
C1379 H1355 0.951 . S
C1379 C1380 1.366 . S
C1379 C1381 1.388 . S
C1380 C1379 1.366 . S
C1380 C1384 1.385 . S
C1381 H1356 0.951 . S
C1381 C1379 1.388 . S
C1381 C1382 1.366 . S
C1382 C1381 1.366 . S
C1382 C1383 1.414 . S
C1382 C1385 1.499 . S
C1383 H1357 0.950 . S
C1383 C1382 1.414 . S
C1383 C1384 1.374 . S
C1384 H1358 0.950 . S
C1384 C1380 1.385 . S
C1384 C1383 1.374 . S
C1385 C1382 1.499 . S
C1385 C1386 1.373 . S
C1385 C1387 1.389 . S
C1386 H1359 0.950 . S
C1386 C1372 1.377 . S
C1386 C1385 1.373 . S
C1387 C1371 1.377 . S
C1387 C1385 1.389 . S
C1387 C1388 1.524 . S
C1388 C1387 1.524 . S
C1388 C1389 1.397 . S
C1388 C1393 1.363 . S
C1389 H1360 0.950 . S
C1389 C1388 1.397 . S
C1389 C1390 1.334 . S
C1390 H1361 0.950 . S
C1390 C1389 1.334 . S
C1390 C1391 1.287 . S
C1391 C1390 1.287 . S
C1391 C1392 1.524 . S
C1391 H1394 0.999 . S
C1392 H1362 0.950 . S
C1392 C1391 1.524 . S
C1392 C1393 1.415 . S
C1393 H1363 0.950 . S
C1393 C1388 1.363 . S
C1393 C1392 1.415 . S
H1394 C1391 0.999 . S
H1395 C1376 0.913 . S
H1396 C1414 0.951 . S
H1397 C1416 0.951 . S
H1398 C1418 0.950 . S
H1399 C1419 0.950 . S
H1400 C1421 0.950 . S
H1401 C1424 0.950 . S
H1402 C1425 0.950 . S
H1403 C1427 0.950 . S
H1404 C1428 0.967 . S
H1405 C1429 0.951 . S
H1406 C1431 0.951 . S
H1407 C1433 0.950 . S
H1408 C1434 0.950 . S
H1409 C1436 0.950 . S
H1410 C1439 0.950 . S
H1411 C1440 0.950 . S
H1412 C1442 0.950 . S
H1413 C1443 0.967 . S
C1414 H1396 0.951 . S
C1414 C1415 1.366 . S
C1414 C1416 1.388 . S
C1415 C1414 1.366 . S
C1415 C1419 1.385 . S
C1416 H1397 0.951 . S
C1416 C1414 1.388 . S
C1416 C1417 1.366 . S
C1417 C1416 1.366 . S
C1417 C1418 1.414 . S
C1417 C1420 1.499 . S
C1418 H1398 0.950 . S
C1418 C1417 1.414 . S
C1418 C1419 1.374 . S
C1419 H1399 0.950 . S
C1419 C1415 1.385 . S
C1419 C1418 1.374 . S
C1420 C1417 1.499 . S
C1420 C1421 1.373 . S
C1420 C1422 1.389 . S
C1421 H1400 0.950 . S
C1421 C1420 1.373 . S
C1421 C1437 1.377 1_554 S
C1422 C1420 1.389 . S
C1422 C1423 1.524 . S
C1422 C1436 1.377 1_554 S
C1423 C1422 1.524 . S
C1423 C1424 1.397 . S
C1423 C1428 1.363 . S
C1424 H1401 0.950 . S
C1424 C1423 1.397 . S
C1424 C1425 1.334 . S
C1425 H1402 0.950 . S
C1425 C1424 1.334 . S
C1425 C1426 1.287 . S
C1426 C1425 1.287 . S
C1426 C1427 1.524 . S
C1426 H1445 0.913 . S
C1427 H1403 0.950 . S
C1427 C1426 1.524 . S
C1427 C1428 1.415 . S
C1428 H1404 0.967 . S
C1428 C1423 1.363 . S
C1428 C1427 1.415 . S
C1429 H1405 0.951 . S
C1429 C1430 1.366 . S
C1429 C1431 1.388 . S
C1430 C1429 1.366 . S
C1430 C1434 1.385 . S
C1431 H1406 0.951 . S
C1431 C1429 1.388 . S
C1431 C1432 1.366 . S
C1432 C1431 1.366 . S
C1432 C1433 1.414 . S
C1432 C1435 1.499 . S
C1433 H1407 0.950 . S
C1433 C1432 1.414 . S
C1433 C1434 1.374 . S
C1434 H1408 0.950 . S
C1434 C1430 1.385 . S
C1434 C1433 1.374 . S
C1435 C1432 1.499 . S
C1435 C1436 1.373 . S
C1435 C1437 1.389 . S
C1436 H1409 0.950 . S
C1436 C1422 1.377 1_556 S
C1436 C1435 1.373 . S
C1437 C1421 1.377 1_556 S
C1437 C1435 1.389 . S
C1437 C1438 1.524 . S
C1438 C1437 1.524 . S
C1438 C1439 1.397 . S
C1438 C1443 1.363 . S
C1439 H1410 0.950 . S
C1439 C1438 1.397 . S
C1439 C1440 1.334 . S
C1440 H1411 0.950 . S
C1440 C1439 1.334 . S
C1440 C1441 1.287 . S
C1441 C1440 1.287 . S
C1441 C1442 1.524 . S
C1441 H1444 0.999 . S
C1442 H1412 0.950 . S
C1442 C1441 1.524 . S
C1442 C1443 1.415 . S
C1443 H1413 0.967 . S
C1443 C1438 1.363 . S
C1443 C1442 1.415 . S
H1444 C1441 0.999 . S
H1445 C1426 0.913 . S
H1446 C1464 0.951 . S
H1447 C1466 0.951 . S
H1448 C1468 0.950 . S
H1449 C1469 0.950 . S
H1450 C1471 0.950 . S
H1451 C1474 0.950 . S
H1452 C1475 0.950 . S
H1453 C1477 0.950 . S
H1454 C1478 0.950 . S
H1455 C1479 0.951 . S
H1456 C1481 0.951 . S
H1457 C1483 0.950 . S
H1458 C1484 0.950 . S
H1459 C1486 0.950 . S
H1460 C1489 0.950 . S
H1461 C1490 0.950 . S
H1462 C1492 0.950 . S
H1463 C1493 0.950 . S
C1464 H1446 0.951 . S
C1464 C1465 1.366 . S
C1464 C1466 1.388 . S
C1465 C1464 1.366 . S
C1465 C1469 1.385 . S
C1466 H1447 0.951 . S
C1466 C1464 1.388 . S
C1466 C1467 1.366 . S
C1467 C1466 1.366 . S
C1467 C1468 1.414 . S
C1467 C1470 1.499 . S
C1468 H1448 0.950 . S
C1468 C1467 1.414 . S
C1468 C1469 1.374 . S
C1469 H1449 0.950 . S
C1469 C1465 1.385 . S
C1469 C1468 1.374 . S
C1470 C1467 1.499 . S
C1470 C1471 1.373 . S
C1470 C1472 1.389 . S
C1471 H1450 0.950 . S
C1471 C1470 1.373 . S
C1471 C1487 1.377 . S
C1472 C1470 1.389 . S
C1472 C1473 1.524 . S
C1472 C1486 1.377 . S
C1473 C1472 1.524 . S
C1473 C1474 1.397 . S
C1473 C1478 1.363 . S
C1474 H1451 0.950 . S
C1474 C1473 1.397 . S
C1474 C1475 1.334 . S
C1475 H1452 0.950 . S
C1475 C1474 1.334 . S
C1475 C1476 1.287 . S
C1476 C1475 1.287 . S
C1476 C1477 1.524 . S
C1476 H1495 0.913 . S
C1477 H1453 0.950 . S
C1477 C1476 1.524 . S
C1477 C1478 1.415 . S
C1478 H1454 0.950 . S
C1478 C1473 1.363 . S
C1478 C1477 1.415 . S
C1479 H1455 0.951 . S
C1479 C1480 1.366 . S
C1479 C1481 1.388 . S
C1480 C1479 1.366 . S
C1480 C1484 1.385 . S
C1481 H1456 0.951 . S
C1481 C1479 1.388 . S
C1481 C1482 1.366 . S
C1482 C1481 1.366 . S
C1482 C1483 1.414 . S
C1482 C1485 1.499 . S
C1483 H1457 0.950 . S
C1483 C1482 1.414 . S
C1483 C1484 1.374 . S
C1484 H1458 0.950 . S
C1484 C1480 1.385 . S
C1484 C1483 1.374 . S
C1485 C1482 1.499 . S
C1485 C1486 1.373 . S
C1485 C1487 1.389 . S
C1486 H1459 0.950 . S
C1486 C1472 1.377 . S
C1486 C1485 1.373 . S
C1487 C1471 1.377 . S
C1487 C1485 1.389 . S
C1487 C1488 1.524 . S
C1488 C1487 1.524 . S
C1488 C1489 1.397 . S
C1488 C1493 1.363 . S
C1489 H1460 0.950 . S
C1489 C1488 1.397 . S
C1489 C1490 1.334 . S
C1490 H1461 0.950 . S
C1490 C1489 1.334 . S
C1490 C1491 1.287 . S
C1491 C1490 1.287 . S
C1491 C1492 1.524 . S
C1491 H1494 0.999 . S
C1492 H1462 0.950 . S
C1492 C1491 1.524 . S
C1492 C1493 1.415 . S
C1493 H1463 0.950 . S
C1493 C1488 1.363 . S
C1493 C1492 1.415 . S
H1494 C1491 0.999 . S
H1495 C1476 0.913 . S
H1496 C1514 0.951 . S
H1497 C1516 0.951 . S
H1498 C1518 0.950 . S
H1499 C1519 0.950 . S
H1500 C1521 0.950 . S
H1501 C1524 0.950 . S
H1502 C1525 0.950 . S
H1503 C1527 0.950 . S
H1504 C1528 0.950 . S
H1505 C1529 0.951 . S
H1506 C1531 0.951 . S
H1507 C1533 0.950 . S
H1508 C1534 0.950 . S
H1509 C1536 0.950 . S
H1510 C1539 0.950 . S
H1511 C1540 0.950 . S
H1512 C1542 0.950 . S
H1513 C1543 0.950 . S
C1514 H1496 0.951 . S
C1514 C1515 1.366 . S
C1514 C1516 1.388 . S
C1515 C1514 1.366 . S
C1515 C1519 1.385 . S
C1516 H1497 0.951 . S
C1516 C1514 1.388 . S
C1516 C1517 1.366 . S
C1517 C1516 1.366 . S
C1517 C1518 1.414 . S
C1517 C1520 1.499 . S
C1518 H1498 0.950 . S
C1518 C1517 1.414 . S
C1518 C1519 1.374 . S
C1519 H1499 0.950 . S
C1519 C1515 1.385 . S
C1519 C1518 1.374 . S
C1520 C1517 1.499 . S
C1520 C1521 1.373 . S
C1520 C1522 1.389 . S
C1521 H1500 0.950 . S
C1521 C1520 1.373 . S
C1521 C1537 1.377 1_554 S
C1522 C1520 1.389 . S
C1522 C1523 1.524 . S
C1522 C1536 1.377 1_554 S
C1523 C1522 1.524 . S
C1523 C1524 1.397 . S
C1523 C1528 1.363 1_554 S
C1524 H1501 0.950 . S
C1524 C1523 1.397 . S
C1524 C1525 1.334 . S
C1525 H1502 0.950 . S
C1525 C1524 1.334 . S
C1525 C1526 1.285 1_554 S
C1526 C1525 1.285 1_556 S
C1526 C1527 1.524 . S
C1526 H1545 0.913 . S
C1527 H1503 0.950 . S
C1527 C1526 1.524 . S
C1527 C1528 1.415 . S
C1528 H1504 0.950 . S
C1528 C1523 1.363 1_556 S
C1528 C1527 1.415 . S
C1529 H1505 0.951 . S
C1529 C1530 1.366 . S
C1529 C1531 1.388 . S
C1530 C1529 1.366 . S
C1530 C1534 1.385 . S
C1531 H1506 0.951 . S
C1531 C1529 1.388 . S
C1531 C1532 1.366 . S
C1532 C1531 1.366 . S
C1532 C1533 1.414 . S
C1532 C1535 1.499 . S
C1533 H1507 0.950 . S
C1533 C1532 1.414 . S
C1533 C1534 1.374 . S
C1534 H1508 0.950 . S
C1534 C1530 1.385 . S
C1534 C1533 1.374 . S
C1535 C1532 1.499 . S
C1535 C1536 1.373 . S
C1535 C1537 1.389 . S
C1536 H1509 0.950 . S
C1536 C1522 1.377 1_556 S
C1536 C1535 1.373 . S
C1537 C1521 1.377 1_556 S
C1537 C1535 1.389 . S
C1537 C1538 1.524 . S
C1538 C1537 1.524 . S
C1538 C1539 1.397 . S
C1538 C1543 1.363 1_556 S
C1539 H1510 0.950 . S
C1539 C1538 1.397 . S
C1539 C1540 1.334 . S
C1540 H1511 0.950 . S
C1540 C1539 1.334 . S
C1540 C1541 1.285 1_556 S
C1541 C1540 1.285 1_554 S
C1541 C1542 1.524 . S
C1541 H1544 0.999 . S
C1542 H1512 0.950 . S
C1542 C1541 1.524 . S
C1542 C1543 1.415 . S
C1543 H1513 0.950 . S
C1543 C1538 1.363 1_554 S
C1543 C1542 1.415 . S
H1544 C1541 0.999 . S
H1545 C1526 0.913 . S
H1546 C1564 0.951 . S
H1547 C1566 0.951 . S
H1548 C1568 0.950 . S
H1549 C1569 0.950 . S
H1550 C1571 0.950 . S
H1551 C1574 0.950 . S
H1552 C1575 0.950 . S
H1553 C1577 0.950 . S
H1554 C1578 0.950 . S
H1555 C1579 0.951 . S
H1556 C1581 0.951 . S
H1557 C1583 0.950 . S
H1558 C1584 0.950 . S
H1559 C1586 0.950 . S
H1560 C1589 0.950 . S
H1561 C1590 0.950 . S
H1562 C1592 0.950 . S
H1563 C1593 0.950 . S
C1564 H1546 0.951 . S
C1564 C1565 1.366 . S
C1564 C1566 1.388 . S
C1565 C1564 1.366 . S
C1565 C1569 1.385 . S
C1566 H1547 0.951 . S
C1566 C1564 1.388 . S
C1566 C1567 1.366 . S
C1567 C1566 1.366 . S
C1567 C1568 1.414 . S
C1567 C1570 1.499 . S
C1568 H1548 0.950 . S
C1568 C1567 1.414 . S
C1568 C1569 1.374 . S
C1569 H1549 0.950 . S
C1569 C1565 1.385 . S
C1569 C1568 1.374 . S
C1570 C1567 1.499 . S
C1570 C1571 1.373 . S
C1570 C1572 1.389 . S
C1571 H1550 0.950 . S
C1571 C1570 1.373 . S
C1571 C1587 1.377 . S
C1572 C1570 1.389 . S
C1572 C1573 1.524 . S
C1572 C1586 1.377 . S
C1573 C1572 1.524 . S
C1573 C1574 1.397 . S
C1573 C1578 1.363 . S
C1574 H1551 0.950 . S
C1574 C1573 1.397 . S
C1574 C1575 1.334 . S
C1575 H1552 0.950 . S
C1575 C1574 1.334 . S
C1575 C1576 1.287 . S
C1576 C1575 1.287 . S
C1576 C1577 1.524 . S
C1576 H1595 0.913 . S
C1577 H1553 0.950 . S
C1577 C1576 1.524 . S
C1577 C1578 1.415 . S
C1578 H1554 0.950 . S
C1578 C1573 1.363 . S
C1578 C1577 1.415 . S
C1579 H1555 0.951 . S
C1579 C1580 1.366 . S
C1579 C1581 1.388 . S
C1580 C1579 1.366 . S
C1580 C1584 1.385 . S
C1581 H1556 0.951 . S
C1581 C1579 1.388 . S
C1581 C1582 1.366 . S
C1582 C1581 1.366 . S
C1582 C1583 1.414 . S
C1582 C1585 1.499 . S
C1583 H1557 0.950 . S
C1583 C1582 1.414 . S
C1583 C1584 1.374 . S
C1584 H1558 0.950 . S
C1584 C1580 1.385 . S
C1584 C1583 1.374 . S
C1585 C1582 1.499 . S
C1585 C1586 1.373 . S
C1585 C1587 1.389 . S
C1586 H1559 0.950 . S
C1586 C1572 1.377 . S
C1586 C1585 1.373 . S
C1587 C1571 1.377 . S
C1587 C1585 1.389 . S
C1587 C1588 1.524 . S
C1588 C1587 1.524 . S
C1588 C1589 1.397 . S
C1588 C1593 1.363 . S
C1589 H1560 0.950 . S
C1589 C1588 1.397 . S
C1589 C1590 1.334 . S
C1590 H1561 0.950 . S
C1590 C1589 1.334 . S
C1590 C1591 1.287 . S
C1591 C1590 1.287 . S
C1591 C1592 1.524 . S
C1591 H1594 0.999 . S
C1592 H1562 0.950 . S
C1592 C1591 1.524 . S
C1592 C1593 1.415 . S
C1593 H1563 0.950 . S
C1593 C1588 1.363 . S
C1593 C1592 1.415 . S
H1594 C1591 0.999 . S
H1595 C1576 0.913 . S
H1596 C1614 0.951 . S
H1597 C1616 0.951 . S
H1598 C1618 0.950 . S
H1599 C1619 0.950 . S
H1600 C1621 0.950 . S
H1601 C1624 0.950 . S
H1602 C1625 0.950 . S
H1603 C1627 0.950 . S
H1604 C1628 0.950 . S
H1605 C1629 0.951 . S
H1606 C1631 0.951 . S
H1607 C1633 0.950 . S
H1608 C1634 0.950 . S
H1609 C1636 0.950 . S
H1610 C1639 0.950 . S
H1611 C1640 0.950 . S
H1612 C1642 0.950 . S
H1613 C1643 0.950 . S
C1614 H1596 0.951 . S
C1614 C1615 1.366 . S
C1614 C1616 1.388 . S
C1615 C1614 1.366 . S
C1615 C1619 1.385 . S
C1616 H1597 0.951 . S
C1616 C1614 1.388 . S
C1616 C1617 1.366 . S
C1617 C1616 1.366 . S
C1617 C1618 1.414 . S
C1617 C1620 1.499 . S
C1618 H1598 0.950 . S
C1618 C1617 1.414 . S
C1618 C1619 1.374 . S
C1619 H1599 0.950 . S
C1619 C1615 1.385 . S
C1619 C1618 1.374 . S
C1620 C1617 1.499 . S
C1620 C1621 1.373 . S
C1620 C1622 1.389 . S
C1621 H1600 0.950 . S
C1621 C1620 1.373 . S
C1621 C1637 1.377 . S
C1622 C1620 1.389 . S
C1622 C1623 1.524 . S
C1622 C1636 1.377 . S
C1623 C1622 1.524 . S
C1623 C1624 1.397 . S
C1623 C1628 1.363 . S
C1624 H1601 0.950 . S
C1624 C1623 1.397 . S
C1624 C1625 1.334 . S
C1625 H1602 0.950 . S
C1625 C1624 1.334 . S
C1625 C1626 1.287 . S
C1626 C1625 1.287 . S
C1626 C1627 1.524 . S
C1626 H1645 0.913 . S
C1627 H1603 0.950 . S
C1627 C1626 1.524 . S
C1627 C1628 1.415 . S
C1628 H1604 0.950 . S
C1628 C1623 1.363 . S
C1628 C1627 1.415 . S
C1629 H1605 0.951 . S
C1629 C1630 1.366 . S
C1629 C1631 1.388 . S
C1630 C1629 1.366 . S
C1630 C1634 1.385 . S
C1631 H1606 0.951 . S
C1631 C1629 1.388 . S
C1631 C1632 1.366 . S
C1632 C1631 1.366 . S
C1632 C1633 1.414 . S
C1632 C1635 1.499 . S
C1633 H1607 0.950 . S
C1633 C1632 1.414 . S
C1633 C1634 1.374 . S
C1634 H1608 0.950 . S
C1634 C1630 1.385 . S
C1634 C1633 1.374 . S
C1635 C1632 1.499 . S
C1635 C1636 1.373 . S
C1635 C1637 1.389 . S
C1636 H1609 0.950 . S
C1636 C1622 1.377 . S
C1636 C1635 1.373 . S
C1637 C1621 1.377 . S
C1637 C1635 1.389 . S
C1637 C1638 1.524 . S
C1638 C1637 1.524 . S
C1638 C1639 1.397 . S
C1638 C1643 1.363 . S
C1639 H1610 0.950 . S
C1639 C1638 1.397 . S
C1639 C1640 1.334 . S
C1640 H1611 0.950 . S
C1640 C1639 1.334 . S
C1640 C1641 1.287 . S
C1641 C1640 1.287 . S
C1641 C1642 1.524 . S
C1641 H1644 0.999 . S
C1642 H1612 0.950 . S
C1642 C1641 1.524 . S
C1642 C1643 1.415 . S
C1643 H1613 0.950 . S
C1643 C1638 1.363 . S
C1643 C1642 1.415 . S
H1644 C1641 0.999 . S
H1645 C1626 0.913 . S
H1646 C1664 0.951 . S
H1647 C1666 0.951 . S
H1648 C1668 0.950 . S
H1649 C1669 0.950 . S
H1650 C1671 0.950 . S
H1651 C1674 0.950 . S
H1652 C1675 0.950 . S
H1653 C1677 0.950 . S
H1654 C1678 0.950 . S
H1655 C1679 0.951 . S
H1656 C1681 0.951 . S
H1657 C1683 0.950 . S
H1658 C1684 0.950 . S
H1659 C1686 0.950 . S
H1660 C1689 0.950 . S
H1661 C1690 0.950 . S
H1662 C1692 0.950 . S
H1663 C1693 0.950 . S
C1664 H1646 0.951 . S
C1664 C1665 1.366 . S
C1664 C1666 1.388 . S
C1665 C1664 1.366 . S
C1665 C1669 1.385 . S
C1666 H1647 0.951 . S
C1666 C1664 1.388 . S
C1666 C1667 1.366 . S
C1667 C1666 1.366 . S
C1667 C1668 1.414 . S
C1667 C1670 1.499 . S
C1668 H1648 0.950 . S
C1668 C1667 1.414 . S
C1668 C1669 1.374 . S
C1669 H1649 0.950 . S
C1669 C1665 1.385 . S
C1669 C1668 1.374 . S
C1670 C1667 1.499 . S
C1670 C1671 1.373 . S
C1670 C1672 1.389 . S
C1671 H1650 0.950 . S
C1671 C1670 1.373 . S
C1671 C1687 1.377 1_455 S
C1672 C1670 1.389 . S
C1672 C1673 1.524 . S
C1672 C1686 1.377 1_455 S
C1673 C1672 1.524 . S
C1673 C1674 1.397 . S
C1673 C1678 1.363 . S
C1674 H1651 0.950 . S
C1674 C1673 1.397 . S
C1674 C1675 1.334 . S
C1675 H1652 0.950 . S
C1675 C1674 1.334 . S
C1675 C1676 1.287 . S
C1676 C1675 1.287 . S
C1676 C1677 1.524 . S
C1676 H1695 0.913 . S
C1677 H1653 0.950 . S
C1677 C1676 1.524 . S
C1677 C1678 1.415 . S
C1678 H1654 0.950 . S
C1678 C1673 1.363 . S
C1678 C1677 1.415 . S
C1679 H1655 0.951 . S
C1679 C1680 1.366 . S
C1679 C1681 1.388 . S
C1680 C1679 1.366 . S
C1680 C1684 1.385 . S
C1681 H1656 0.951 . S
C1681 C1679 1.388 . S
C1681 C1682 1.366 . S
C1682 C1681 1.366 . S
C1682 C1683 1.414 . S
C1682 C1685 1.499 . S
C1683 H1657 0.950 . S
C1683 C1682 1.414 . S
C1683 C1684 1.374 . S
C1684 H1658 0.950 . S
C1684 C1680 1.385 . S
C1684 C1683 1.374 . S
C1685 C1682 1.499 . S
C1685 C1686 1.373 . S
C1685 C1687 1.389 . S
C1686 H1659 0.950 . S
C1686 C1672 1.377 1_655 S
C1686 C1685 1.373 . S
C1687 C1671 1.377 1_655 S
C1687 C1685 1.389 . S
C1687 C1688 1.524 . S
C1688 C1687 1.524 . S
C1688 C1689 1.397 . S
C1688 C1693 1.363 . S
C1689 H1660 0.950 . S
C1689 C1688 1.397 . S
C1689 C1690 1.334 . S
C1690 H1661 0.950 . S
C1690 C1689 1.334 . S
C1690 C1691 1.287 . S
C1691 C1690 1.287 . S
C1691 C1692 1.524 . S
C1691 H1694 0.999 . S
C1692 H1662 0.950 . S
C1692 C1691 1.524 . S
C1692 C1693 1.415 . S
C1693 H1663 0.950 . S
C1693 C1688 1.363 . S
C1693 C1692 1.415 . S
H1694 C1691 0.999 . S
H1695 C1676 0.913 . S
H1696 C1714 0.951 . S
H1697 C1716 0.951 . S
H1698 C1718 0.950 . S
H1699 C1719 0.950 . S
H1700 C1721 0.950 . S
H1701 C1724 0.950 . S
H1702 C1725 0.950 . S
H1703 C1727 0.950 . S
H1704 C1728 0.950 . S
H1705 C1729 0.951 . S
H1706 C1731 0.951 . S
H1707 C1733 0.950 . S
H1708 C1734 0.950 . S
H1709 C1736 0.950 . S
H1710 C1739 0.950 . S
H1711 C1740 0.950 . S
H1712 C1742 0.950 . S
H1713 C1743 0.950 . S
C1714 H1696 0.951 . S
C1714 C1715 1.366 . S
C1714 C1716 1.388 . S
C1715 C1714 1.366 . S
C1715 C1719 1.385 . S
C1716 H1697 0.951 . S
C1716 C1714 1.388 . S
C1716 C1717 1.366 . S
C1717 C1716 1.366 . S
C1717 C1718 1.414 . S
C1717 C1720 1.499 . S
C1718 H1698 0.950 . S
C1718 C1717 1.414 . S
C1718 C1719 1.374 . S
C1719 H1699 0.950 . S
C1719 C1715 1.385 . S
C1719 C1718 1.374 . S
C1720 C1717 1.499 . S
C1720 C1721 1.373 . S
C1720 C1722 1.389 . S
C1721 H1700 0.950 . S
C1721 C1720 1.373 . S
C1721 C1737 1.377 1_545 S
C1722 C1720 1.389 . S
C1722 C1723 1.524 . S
C1722 C1736 1.377 1_545 S
C1723 C1722 1.524 . S
C1723 C1724 1.397 . S
C1723 C1728 1.363 . S
C1724 H1701 0.950 . S
C1724 C1723 1.397 . S
C1724 C1725 1.334 . S
C1725 H1702 0.950 . S
C1725 C1724 1.334 . S
C1725 C1726 1.287 . S
C1726 C1725 1.287 . S
C1726 C1727 1.524 . S
C1726 H1745 0.913 . S
C1727 H1703 0.950 . S
C1727 C1726 1.524 . S
C1727 C1728 1.415 . S
C1728 H1704 0.950 . S
C1728 C1723 1.363 . S
C1728 C1727 1.415 . S
C1729 H1705 0.951 . S
C1729 C1730 1.366 . S
C1729 C1731 1.388 . S
C1730 C1729 1.366 . S
C1730 C1734 1.385 . S
C1731 H1706 0.951 . S
C1731 C1729 1.388 . S
C1731 C1732 1.366 . S
C1732 C1731 1.366 . S
C1732 C1733 1.414 . S
C1732 C1735 1.499 . S
C1733 H1707 0.950 . S
C1733 C1732 1.414 . S
C1733 C1734 1.374 . S
C1734 H1708 0.950 . S
C1734 C1730 1.385 . S
C1734 C1733 1.374 . S
C1735 C1732 1.499 . S
C1735 C1736 1.373 . S
C1735 C1737 1.389 . S
C1736 H1709 0.950 . S
C1736 C1722 1.377 1_565 S
C1736 C1735 1.373 . S
C1737 C1721 1.377 1_565 S
C1737 C1735 1.389 . S
C1737 C1738 1.524 . S
C1738 C1737 1.524 . S
C1738 C1739 1.397 . S
C1738 C1743 1.363 . S
C1739 H1710 0.950 . S
C1739 C1738 1.397 . S
C1739 C1740 1.334 . S
C1740 H1711 0.950 . S
C1740 C1739 1.334 . S
C1740 C1741 1.287 . S
C1741 C1740 1.287 . S
C1741 C1742 1.524 . S
C1741 H1744 0.999 . S
C1742 H1712 0.950 . S
C1742 C1741 1.524 . S
C1742 C1743 1.415 . S
C1743 H1713 0.950 . S
C1743 C1738 1.363 . S
C1743 C1742 1.415 . S
H1744 C1741 0.999 . S
H1745 C1726 0.913 . S
H1746 C1764 0.951 . S
H1747 C1766 0.951 . S
H1748 C1768 0.950 . S
H1749 C1769 0.950 . S
H1750 C1771 0.950 . S
H1751 C1774 0.950 . S
H1752 C1775 0.950 . S
H1753 C1777 0.950 . S
H1754 C1778 0.950 . S
H1755 C1779 0.951 . S
H1756 C1781 0.951 . S
H1757 C1783 0.950 . S
H1758 C1784 0.950 . S
H1759 C1786 0.950 . S
H1760 C1789 0.950 . S
H1761 C1790 0.950 . S
H1762 C1792 0.950 . S
H1763 C1793 0.950 . S
C1764 H1746 0.951 . S
C1764 C1765 1.366 . S
C1764 C1766 1.388 . S
C1765 C1764 1.366 . S
C1765 C1769 1.385 . S
C1766 H1747 0.951 . S
C1766 C1764 1.388 . S
C1766 C1767 1.366 . S
C1767 C1766 1.366 . S
C1767 C1768 1.414 . S
C1767 C1770 1.499 . S
C1768 H1748 0.950 . S
C1768 C1767 1.414 . S
C1768 C1769 1.374 . S
C1769 H1749 0.950 . S
C1769 C1765 1.385 . S
C1769 C1768 1.374 . S
C1770 C1767 1.499 . S
C1770 C1771 1.373 . S
C1770 C1772 1.389 . S
C1771 H1750 0.950 . S
C1771 C1770 1.373 . S
C1771 C1787 1.377 . S
C1772 C1770 1.389 . S
C1772 C1773 1.524 . S
C1772 C1786 1.377 . S
C1773 C1772 1.524 . S
C1773 C1774 1.397 . S
C1773 C1778 1.363 . S
C1774 H1751 0.950 . S
C1774 C1773 1.397 . S
C1774 C1775 1.334 . S
C1775 H1752 0.950 . S
C1775 C1774 1.334 . S
C1775 C1776 1.287 . S
C1776 C1775 1.287 . S
C1776 C1777 1.524 . S
C1776 H1795 0.913 . S
C1777 H1753 0.950 . S
C1777 C1776 1.524 . S
C1777 C1778 1.415 . S
C1778 H1754 0.950 . S
C1778 C1773 1.363 . S
C1778 C1777 1.415 . S
C1779 H1755 0.951 . S
C1779 C1780 1.366 . S
C1779 C1781 1.388 . S
C1780 C1779 1.366 . S
C1780 C1784 1.385 . S
C1781 H1756 0.951 . S
C1781 C1779 1.388 . S
C1781 C1782 1.366 . S
C1782 C1781 1.366 . S
C1782 C1783 1.414 . S
C1782 C1785 1.499 . S
C1783 H1757 0.950 . S
C1783 C1782 1.414 . S
C1783 C1784 1.374 . S
C1784 H1758 0.950 . S
C1784 C1780 1.385 . S
C1784 C1783 1.374 . S
C1785 C1782 1.499 . S
C1785 C1786 1.373 . S
C1785 C1787 1.389 . S
C1786 H1759 0.950 . S
C1786 C1772 1.377 . S
C1786 C1785 1.373 . S
C1787 C1771 1.377 . S
C1787 C1785 1.389 . S
C1787 C1788 1.524 . S
C1788 C1787 1.524 . S
C1788 C1789 1.397 . S
C1788 C1793 1.363 . S
C1789 H1760 0.950 . S
C1789 C1788 1.397 . S
C1789 C1790 1.334 . S
C1790 H1761 0.950 . S
C1790 C1789 1.334 . S
C1790 C1791 1.287 . S
C1791 C1790 1.287 . S
C1791 C1792 1.524 . S
C1791 H1794 0.999 . S
C1792 H1762 0.950 . S
C1792 C1791 1.524 . S
C1792 C1793 1.415 . S
C1793 H1763 0.950 . S
C1793 C1788 1.363 . S
C1793 C1792 1.415 . S
H1794 C1791 0.999 . S
H1795 C1776 0.913 . S
H1796 C1814 0.951 . S
H1797 C1816 0.951 . S
H1798 C1818 0.950 . S
H1799 C1819 0.950 . S
H1800 C1821 0.950 . S
H1801 C1824 0.950 . S
H1802 C1825 0.950 . S
H1803 C1827 0.950 . S
H1804 C1828 0.950 . S
H1805 C1829 0.951 . S
H1806 C1831 0.951 . S
H1807 C1833 0.950 . S
H1808 C1834 0.950 . S
H1809 C1836 0.950 . S
H1810 C1839 0.950 . S
H1811 C1840 0.950 . S
H1812 C1842 0.950 . S
H1813 C1843 0.950 . S
C1814 H1796 0.951 . S
C1814 C1815 1.366 . S
C1814 C1816 1.388 . S
C1815 C1814 1.366 . S
C1815 C1819 1.385 . S
C1816 H1797 0.951 . S
C1816 C1814 1.388 . S
C1816 C1817 1.366 . S
C1817 C1816 1.366 . S
C1817 C1818 1.414 . S
C1817 C1820 1.499 . S
C1818 H1798 0.950 . S
C1818 C1817 1.414 . S
C1818 C1819 1.374 . S
C1819 H1799 0.950 . S
C1819 C1815 1.385 . S
C1819 C1818 1.374 . S
C1820 C1817 1.499 . S
C1820 C1821 1.373 . S
C1820 C1822 1.389 . S
C1821 H1800 0.950 . S
C1821 C1820 1.373 . S
C1821 C1837 1.377 1_455 S
C1822 C1820 1.389 . S
C1822 C1823 1.524 . S
C1822 C1836 1.377 1_455 S
C1823 C1822 1.524 . S
C1823 C1824 1.397 . S
C1823 C1828 1.363 . S
C1824 H1801 0.950 . S
C1824 C1823 1.397 . S
C1824 C1825 1.334 . S
C1825 H1802 0.950 . S
C1825 C1824 1.334 . S
C1825 C1826 1.287 . S
C1826 C1825 1.287 . S
C1826 C1827 1.524 . S
C1826 H1845 0.913 . S
C1827 H1803 0.950 . S
C1827 C1826 1.524 . S
C1827 C1828 1.415 . S
C1828 H1804 0.950 . S
C1828 C1823 1.363 . S
C1828 C1827 1.415 . S
C1829 H1805 0.951 . S
C1829 C1830 1.366 . S
C1829 C1831 1.388 . S
C1830 C1829 1.366 . S
C1830 C1834 1.385 . S
C1831 H1806 0.951 . S
C1831 C1829 1.388 . S
C1831 C1832 1.366 . S
C1832 C1831 1.366 . S
C1832 C1833 1.414 . S
C1832 C1835 1.499 . S
C1833 H1807 0.950 . S
C1833 C1832 1.414 . S
C1833 C1834 1.374 . S
C1834 H1808 0.950 . S
C1834 C1830 1.385 . S
C1834 C1833 1.374 . S
C1835 C1832 1.499 . S
C1835 C1836 1.373 . S
C1835 C1837 1.389 . S
C1836 H1809 0.950 . S
C1836 C1822 1.377 1_655 S
C1836 C1835 1.373 . S
C1837 C1821 1.377 1_655 S
C1837 C1835 1.389 . S
C1837 C1838 1.524 . S
C1838 C1837 1.524 . S
C1838 C1839 1.397 . S
C1838 C1843 1.363 . S
C1839 H1810 0.950 . S
C1839 C1838 1.397 . S
C1839 C1840 1.334 . S
C1840 H1811 0.950 . S
C1840 C1839 1.334 . S
C1840 C1841 1.287 . S
C1841 C1840 1.287 . S
C1841 C1842 1.524 . S
C1841 H1844 0.999 . S
C1842 H1812 0.950 . S
C1842 C1841 1.524 . S
C1842 C1843 1.415 . S
C1843 H1813 0.950 . S
C1843 C1838 1.363 . S
C1843 C1842 1.415 . S
H1844 C1841 0.999 . S
H1845 C1826 0.913 . S
H1846 C1864 0.951 . S
H1847 C1866 0.951 . S
H1848 C1868 0.950 . S
H1849 C1869 0.950 . S
H1850 C1871 0.950 . S
H1851 C1874 0.950 . S
H1852 C1875 0.950 . S
H1853 C1877 0.950 . S
H1854 C1878 0.950 . S
H1855 C1879 0.951 . S
H1856 C1881 0.951 . S
H1857 C1883 0.950 . S
H1858 C1884 0.950 . S
H1859 C1886 0.950 . S
H1860 C1889 0.950 . S
H1861 C1890 0.950 . S
H1862 C1892 0.950 . S
H1863 C1893 0.950 . S
C1864 H1846 0.951 . S
C1864 C1865 1.366 . S
C1864 C1866 1.388 . S
C1865 C1864 1.366 . S
C1865 C1869 1.385 . S
C1866 H1847 0.951 . S
C1866 C1864 1.388 . S
C1866 C1867 1.366 . S
C1867 C1866 1.366 . S
C1867 C1868 1.414 . S
C1867 C1870 1.499 . S
C1868 H1848 0.950 . S
C1868 C1867 1.414 . S
C1868 C1869 1.374 . S
C1869 H1849 0.950 . S
C1869 C1865 1.385 . S
C1869 C1868 1.374 . S
C1870 C1867 1.499 . S
C1870 C1871 1.373 . S
C1870 C1872 1.389 . S
C1871 H1850 0.950 . S
C1871 C1870 1.373 . S
C1871 C1887 1.377 1_565 S
C1872 C1870 1.389 . S
C1872 C1873 1.524 . S
C1872 C1886 1.377 1_565 S
C1873 C1872 1.524 . S
C1873 C1874 1.397 . S
C1873 C1878 1.363 . S
C1874 H1851 0.950 . S
C1874 C1873 1.397 . S
C1874 C1875 1.334 . S
C1875 H1852 0.950 . S
C1875 C1874 1.334 . S
C1875 C1876 1.287 . S
C1876 C1875 1.287 . S
C1876 C1877 1.524 . S
C1876 H1895 0.913 . S
C1877 H1853 0.950 . S
C1877 C1876 1.524 . S
C1877 C1878 1.415 . S
C1878 H1854 0.950 . S
C1878 C1873 1.363 . S
C1878 C1877 1.415 . S
C1879 H1855 0.951 . S
C1879 C1880 1.366 . S
C1879 C1881 1.388 . S
C1880 C1879 1.366 . S
C1880 C1884 1.385 . S
C1881 H1856 0.951 . S
C1881 C1879 1.388 . S
C1881 C1882 1.366 . S
C1882 C1881 1.366 . S
C1882 C1883 1.414 . S
C1882 C1885 1.499 . S
C1883 H1857 0.950 . S
C1883 C1882 1.414 . S
C1883 C1884 1.374 . S
C1884 H1858 0.950 . S
C1884 C1880 1.385 . S
C1884 C1883 1.374 . S
C1885 C1882 1.499 . S
C1885 C1886 1.373 . S
C1885 C1887 1.389 . S
C1886 H1859 0.950 . S
C1886 C1872 1.377 1_545 S
C1886 C1885 1.373 . S
C1887 C1871 1.377 1_545 S
C1887 C1885 1.389 . S
C1887 C1888 1.524 . S
C1888 C1887 1.524 . S
C1888 C1889 1.397 . S
C1888 C1893 1.363 . S
C1889 H1860 0.950 . S
C1889 C1888 1.397 . S
C1889 C1890 1.334 . S
C1890 H1861 0.950 . S
C1890 C1889 1.334 . S
C1890 C1891 1.287 . S
C1891 C1890 1.287 . S
C1891 C1892 1.524 . S
C1891 H1894 0.999 . S
C1892 H1862 0.950 . S
C1892 C1891 1.524 . S
C1892 C1893 1.415 . S
C1893 H1863 0.950 . S
C1893 C1888 1.363 . S
C1893 C1892 1.415 . S
H1894 C1891 0.999 . S
H1895 C1876 0.913 . S
C415 C7 2.317 . S
C430 C205 2.317 . S
C465 C40 2.318 . S
C480 C238 2.317 . S
C515 C73 2.317 . S
C530 C271 2.318 . S
C565 C304 2.317 . S
C580 C106 2.317 . S
C615 C139 2.317 . S
C630 C337 2.317 . S
C665 C370 2.318 . S
C680 C172 2.317 . S
C715 N310 0.940 . S
C730 N112 0.940 . S
C765 N145 0.939 . S
C780 N343 0.939 . S
C815 N376 0.940 . S
C830 N178 0.940 . S
C865 N211 0.939 . S
C880 N13 0.939 . S
C915 N244 0.941 . S
C930 N46 0.941 . S
C965 N79 0.939 . S
C980 N277 0.939 . S
C1015 N332 0.744 . S
C1030 N2 0.743 . S
C1065 N35 0.744 . S
C1080 N365 0.745 . S
C1115 N68 0.745 . S
C1130 N200 0.745 . S
C1165 N101 0.743 . S
C1180 N233 0.743 . S
C1215 N134 0.743 . S
C1230 N266 0.743 . S
C1265 N167 0.744 . S
C1280 N299 0.743 . S
C1315 C117 1.667 . S
C1330 C249 1.667 . S
C1365 C150 1.667 . S
C1380 C282 1.667 . S
C1415 C315 1.667 . S
C1430 C183 1.667 . S
C1465 C18 1.667 . S
C1480 C348 1.667 . S
C1515 C381 1.667 . S
C1530 C51 1.667 . S
C1565 C84 1.667 . S
C1580 C216 1.667 . S
C1615 C21 1.117 . S
C1630 C318 1.117 . S
C1665 C351 1.117 . S
C1680 C54 1.116 . S
C1715 C384 1.116 . S
C1730 C87 1.117 . S
C1765 C219 1.117 . S
C1780 C120 1.116 . S
C1815 C153 1.117 . S
C1830 C252 1.117 . S
C1865 C285 1.117 . S
C1880 C186 1.117 . S
