# Generated by pormake.
# Topology swd, (7)-cn, num edge types: 1
# Building blocks:
#     Node 0, Type 0, BuildingBlock: HICVOG_clean_sbu_0, # of connection points: 7
#     Node 1, Type 0, BuildingBlock: HICVOG_clean_sbu_0, # of connection points: 7
#     Node 2, Type 0, BuildingBlock: HICVOG_clean_sbu_0, # of connection points: 7
#     Node 3, Type 0, BuildingBlock: HICVOG_clean_sbu_0, # of connection points: 7
#     Node 4, Type 0, BuildingBlock: HICVOG_clean_sbu_0, # of connection points: 7
#     Node 5, Type 0, BuildingBlock: HICVOG_clean_sbu_0, # of connection points: 7
#     Node 6, Type 0, BuildingBlock: HICVOG_clean_sbu_0, # of connection points: 7
#     Node 7, Type 0, BuildingBlock: HICVOG_clean_sbu_0, # of connection points: 7
#     Node 8, Type 0, BuildingBlock: HICVOG_clean_sbu_0, # of connection points: 7
#     Node 9, Type 0, BuildingBlock: HICVOG_clean_sbu_0, # of connection points: 7
#     Node 10, Type 0, BuildingBlock: HICVOG_clean_sbu_0, # of connection points: 7
#     Node 11, Type 0, BuildingBlock: HICVOG_clean_sbu_0, # of connection points: 7
#     Node 12, Type 0, BuildingBlock: HICVOG_clean_sbu_0, # of connection points: 7
#     Node 13, Type 0, BuildingBlock: HICVOG_clean_sbu_0, # of connection points: 7
#     Node 14, Type 0, BuildingBlock: HICVOG_clean_sbu_0, # of connection points: 7
#     Node 15, Type 0, BuildingBlock: HICVOG_clean_sbu_0, # of connection points: 7
#     Node 16, Type 0, BuildingBlock: HICVOG_clean_sbu_0, # of connection points: 7
#     Node 17, Type 0, BuildingBlock: HICVOG_clean_sbu_0, # of connection points: 7
#     Edge 18, Type (0, 0), None
#     Edge 19, Type (0, 0), None
#     Edge 20, Type (0, 0), None
#     Edge 21, Type (0, 0), None
#     Edge 22, Type (0, 0), None
#     Edge 23, Type (0, 0), None
#     Edge 24, Type (0, 0), None
#     Edge 25, Type (0, 0), None
#     Edge 26, Type (0, 0), None
#     Edge 27, Type (0, 0), None
#     Edge 28, Type (0, 0), None
#     Edge 29, Type (0, 0), None
#     Edge 30, Type (0, 0), None
#     Edge 31, Type (0, 0), None
#     Edge 32, Type (0, 0), None
#     Edge 33, Type (0, 0), None
#     Edge 34, Type (0, 0), None
#     Edge 35, Type (0, 0), None
#     Edge 36, Type (0, 0), None
#     Edge 37, Type (0, 0), None
#     Edge 38, Type (0, 0), None
#     Edge 39, Type (0, 0), None
#     Edge 40, Type (0, 0), None
#     Edge 41, Type (0, 0), None
#     Edge 42, Type (0, 0), None
#     Edge 43, Type (0, 0), None
#     Edge 44, Type (0, 0), None
#     Edge 45, Type (0, 0), None
#     Edge 46, Type (0, 0), None
#     Edge 47, Type (0, 0), None
#     Edge 48, Type (0, 0), None
#     Edge 49, Type (0, 0), None
#     Edge 50, Type (0, 0), None
#     Edge 51, Type (0, 0), None
#     Edge 52, Type (0, 0), None
#     Edge 53, Type (0, 0), None
#     Edge 54, Type (0, 0), None
#     Edge 55, Type (0, 0), None
#     Edge 56, Type (0, 0), None
#     Edge 57, Type (0, 0), None
#     Edge 58, Type (0, 0), None
#     Edge 59, Type (0, 0), None
#     Edge 60, Type (0, 0), None
#     Edge 61, Type (0, 0), None
#     Edge 62, Type (0, 0), None
#     Edge 63, Type (0, 0), None
#     Edge 64, Type (0, 0), None
#     Edge 65, Type (0, 0), None
#     Edge 66, Type (0, 0), None
#     Edge 67, Type (0, 0), None
#     Edge 68, Type (0, 0), None
#     Edge 69, Type (0, 0), None
#     Edge 70, Type (0, 0), None
#     Edge 71, Type (0, 0), None
#     Edge 72, Type (0, 0), None
#     Edge 73, Type (0, 0), None
#     Edge 74, Type (0, 0), None
#     Edge 75, Type (0, 0), None
#     Edge 76, Type (0, 0), None
#     Edge 77, Type (0, 0), None
#     Edge 78, Type (0, 0), None
#     Edge 79, Type (0, 0), None
#     Edge 80, Type (0, 0), None
# Relax obj value: 0.576
# Max RMSD: 0.388
# Mean RMSD: 0.379
data_MOF--net-swd--node1-HICVOG_clean_sbu_0--edge1-none
_symmetry_space_group_name_H-M    P1
_symmetry_Int_Tables_number       1
_symmetry_cell_setting            triclinic
loop_
_symmetry_equiv_pos_as_xyz
'x, y, z'
_cell_length_a     27.244753
_cell_length_b     27.243914
_cell_length_c     12.572684
_cell_angle_alpha  90.001637
_cell_angle_beta   89.99993
_cell_angle_gamma 119.99809
loop_
_atom_site_label
_atom_site_type_symbol
_atom_site_fract_x
_atom_site_fract_y
_atom_site_fract_z
_atom_type_partial_charge
Zn0 Zn 0.2395 0.19417 0.33932 0.0
C1 C 0.15804 0.04441 0.51095 0.0
N2 N 0.13334 0.07128 0.55628 0.0
C3 C 0.16073 0.12417 0.51434 0.0
N4 N 0.20158 0.13093 0.44546 0.0
N5 N 0.19811 0.08063 0.44007 0.0
C6 C 0.15664 0.98147 0.20043 0.0
O7 O 0.17945 0.02253 0.1305 0.0
O8 O 0.26631 0.27498 0.39364 0.0
Zn9 Zn 0.2391 0.06275 0.34177 0.0
N10 N 0.18053 0.17539 0.24009 0.0
C11 C 0.11768 0.09985 0.12927 0.0
C12 C 0.16899 0.1291 0.18226 0.0
C13 C 0.14399 0.19557 0.24471 0.0
N14 N 0.08108 0.11984 0.13244 0.0
C15 C 0.09308 0.16748 0.18736 0.0
O16 O 0.29656 0.1173 0.22603 0.0
C17 C 0.32503 0.17096 0.21148 0.0
O18 O 0.3094 0.20305 0.25579 0.0
H19 H 0.1983 0.11364 0.18426 0.0
H20 H 0.15278 0.23037 0.29763 0.0
C21 C 0.31651 0.03677 0.3732 0.0
C22 C 0.37507 0.06172 0.37461 0.0
C23 C 0.38034 0.13007 0.49711 0.0
C24 C 0.32183 0.10572 0.49327 0.0
N25 N 0.29191 0.06056 0.4286 0.0
N26 N 0.40623 0.10811 0.43643 0.0
H27 H 0.29123 1.00369 0.31699 0.0
C28 C 0.28467 0.31533 0.32556 0.0
O29 O 0.28221 0.3034 0.22382 0.0
O30 O 0.18098 0.98667 0.28901 0.0
H31 H 0.30166 0.1268 0.53075 0.0
H32 H 0.10618 0.06076 0.08841 0.0
H33 H 0.40445 0.16765 0.5442 0.0
Zn34 Zn 0.96688 0.1826 0.34176 0.0
C35 C 0.90548 0.04284 0.51439 0.0
N36 N 0.95839 0.06833 0.55625 0.0
C37 C 0.98525 0.1199 0.51096 0.0
N38 N 0.949 0.12375 0.44014 0.0
N39 N 0.89868 0.07697 0.44566 0.0
C40 C 0.71432 0.97559 0.32554 0.0
O41 O 0.72625 0.98507 0.2238 0.0
O42 O 0.04294 0.20052 0.28898 0.0
Zn43 Zn 0.83549 0.0516 0.33937 0.0
N44 N 0.96911 0.23767 0.4284 0.0
C45 C 0.89962 0.25657 0.4971 0.0
C46 C 0.92393 0.22239 0.49306 0.0
C47 C 0.99297 0.28616 0.37329 0.0
N48 N 0.92161 0.30449 0.43661 0.0
C49 C 0.96803 0.31977 0.37484 0.0
O50 O 0.82658 0.1126 0.25583 0.0
C51 C 0.85867 0.16031 0.21149 0.0
O52 O 0.91233 0.18549 0.22601 0.0
H53 H 0.90283 0.1811 0.53036 0.0
H54 H 0.02606 0.29399 0.3171 0.0
C55 C 0.83413 0.95472 0.24475 0.0
C56 C 0.8622 0.93189 0.18737 0.0
C57 C 0.92985 0.0241 0.12929 0.0
C58 C 0.90063 0.04619 0.18234 0.0
N59 N 0.85436 0.01146 0.24021 0.0
N60 N 0.90984 0.96751 0.13245 0.0
H61 H 0.79933 0.92871 0.29764 0.0
C62 C 0.04818 0.18145 0.20035 0.0
O63 O 1.00715 0.16323 0.13035 0.0
O64 O 0.75468 0.99758 0.39362 0.0
H65 H 0.9161 0.09096 0.18434 0.0
H66 H 0.86202 0.24306 0.54418 0.0
H67 H 0.96893 0.05168 0.0884 0.0
Zn68 Zn 0.97806 0.79015 0.33927 0.0
C69 C 0.90979 0.87163 0.51091 0.0
N70 N 0.96136 0.89632 0.55622 0.0
C71 C 0.98685 0.86892 0.51429 0.0
N72 N 0.95275 0.82807 0.44543 0.0
N73 N 0.90593 0.83155 0.44003 0.0
C74 C 0.84822 0.87301 0.20036 0.0
O75 O 0.86647 0.85021 0.13039 0.0
O76 O 0.03205 0.76333 0.39361 0.0
Zn77 Zn 0.84706 0.79056 0.3417 0.0
N78 N 0.01824 0.84911 0.24005 0.0
C79 C 1.00558 0.91199 0.12926 0.0
C80 C 0.9835 0.86066 0.18222 0.0
C81 C 0.07496 0.88565 0.24469 0.0
N82 N 0.06216 0.94858 0.13246 0.0
C83 C 0.09778 0.93657 0.18738 0.0
O84 O 0.84416 0.7331 0.22596 0.0
C85 C 0.86934 0.70462 0.21142 0.0
O86 O 0.91705 0.72023 0.25574 0.0
H87 H 0.93873 0.83136 0.1842 0.0
H88 H 0.10096 0.87686 0.29762 0.0
C89 C 0.74368 0.71314 0.37309 0.0
C90 C 0.71005 0.65459 0.3746 0.0
C91 C 0.77309 0.64934 0.49722 0.0
C92 C 0.80727 0.70784 0.49327 0.0
N93 N 0.79207 0.73776 0.4285 0.0
N94 N 0.72524 0.62344 0.43655 0.0
H95 H 0.7359 0.73841 0.31682 0.0
C96 C 0.05403 0.74495 0.32554 0.0
O97 O 0.04455 0.7474 0.2238 0.0
O98 O 0.82911 0.84869 0.28896 0.0
H99 H 0.84852 0.72801 0.53076 0.0
H100 H 0.97799 0.92349 0.08839 0.0
H101 H 0.78653 0.62524 0.54443 0.0
Zn102 Zn 0.19989 0.23381 0.67942 0.0
C103 C 0.0501 0.15229 0.50796 0.0
N104 N 0.07695 0.12758 0.46256 0.0
C105 C 0.12984 0.155 0.5045 0.0
N106 N 0.13665 0.19591 0.57328 0.0
N107 N 0.08635 0.19244 0.57869 0.0
C108 C 0.98719 0.15093 0.81836 0.0
O109 O 0.02824 0.17373 0.88832 0.0
O110 O 0.28069 0.26061 0.62508 0.0
Zn111 Zn 0.06847 0.23343 0.67703 0.0
N112 N 0.1811 0.17483 0.77864 0.0
C113 C 0.10555 0.11197 0.88943 0.0
C114 C 0.1348 0.16329 0.83643 0.0
C115 C 0.20128 0.13828 0.77405 0.0
N116 N 0.12554 0.07538 0.88629 0.0
C117 C 0.17318 0.08737 0.8314 0.0
O118 O 0.12306 0.29089 0.79274 0.0
C119 C 0.17671 0.31935 0.80727 0.0
O120 O 0.20879 0.30372 0.76297 0.0
H121 H 0.11934 0.19259 0.8344 0.0
H122 H 0.23608 0.14707 0.72116 0.0
C123 C 0.04247 0.31086 0.64563 0.0
C124 C 0.06739 0.36941 0.6441 0.0
C125 C 0.13571 0.37465 0.52158 0.0
C126 C 0.11139 0.31615 0.52551 0.0
N127 N 0.06626 0.28624 0.59025 0.0
N128 N 0.11376 0.40056 0.58221 0.0
H129 H 1.00941 0.28559 0.70188 0.0
C130 C 0.32105 0.27895 0.69314 0.0
O131 O 0.30913 0.27648 0.79489 0.0
O132 O 0.9924 0.17529 0.72979 0.0
H133 H 0.13247 0.29597 0.48806 0.0
H134 H 0.06646 0.10048 0.93028 0.0
H135 H 0.17328 0.39874 0.47444 0.0
Zn136 Zn 0.79626 0.84135 0.67697 0.0
C137 C 0.87466 0.98112 0.50444 0.0
N138 N 0.90212 0.95567 0.46256 0.0
C139 C 0.87741 0.90412 0.50793 0.0
N140 N 0.83723 0.90021 0.57861 0.0
N141 N 0.83368 0.94698 0.57307 0.0
C142 C 0.7507 0.04836 0.69318 0.0
O143 O 0.75314 0.03888 0.79491 0.0
O144 O 0.8544 0.82342 0.72974 0.0
Zn145 Zn 0.79586 0.97235 0.67935 0.0
N146 N 0.74342 0.7863 0.59029 0.0
C147 C 0.65502 0.76742 0.52169 0.0
C148 C 0.71352 0.80159 0.52566 0.0
C149 C 0.71881 0.73783 0.64545 0.0
N150 N 0.62911 0.71952 0.58222 0.0
C151 C 0.66026 0.70424 0.64399 0.0
O152 O 0.72594 0.91135 0.76291 0.0
C153 C 0.71033 0.86363 0.80724 0.0
O154 O 0.73881 0.83846 0.79272 0.0
H155 H 0.73371 0.84287 0.48832 0.0
H156 H 0.74409 0.73001 0.70162 0.0
C157 C 0.89139 0.06924 0.77397 0.0
C158 C 0.9423 0.09206 0.83133 0.0
C159 C 0.91772 0.99984 0.88941 0.0
C160 C 0.86641 0.97776 0.83637 0.0
N161 N 0.85488 0.0125 0.77852 0.0
N162 N 0.9543 0.05643 0.88626 0.0
H163 H 0.88259 0.09525 0.72108 0.0
C164 C 0.87872 0.8425 0.81834 0.0
O165 O 0.85591 0.86072 0.88834 0.0
O166 O 0.76906 0.02637 0.6251 0.0
H167 H 0.83711 0.93299 0.83438 0.0
H168 H 0.63093 0.78092 0.47462 0.0
H169 H 0.92921 0.97225 0.93031 0.0
Zn170 Zn 0.1883 0.96115 0.67705 0.0
C171 C 0.04857 0.89981 0.50441 0.0
N172 N 0.07402 0.95271 0.46254 0.0
C173 C 0.12557 0.97955 0.50795 0.0
N174 N 0.12946 0.94328 0.57864 0.0
N175 N 0.08269 0.89295 0.57307 0.0
C176 C 0.98131 0.7086 0.69315 0.0
O177 O 0.9908 0.72052 0.79489 0.0
O178 O 0.20622 0.03721 0.72983 0.0
Zn179 Zn 0.05731 0.82976 0.67934 0.0
N180 N 0.24338 0.96338 0.59042 0.0
C181 C 0.2623 0.89393 0.52161 0.0
C182 C 0.2281 0.91822 0.52571 0.0
C183 C 0.29186 0.98724 0.64555 0.0
N184 N 0.31022 0.91591 0.5821 0.0
C185 C 0.32548 0.9623 0.64395 0.0
O186 O 0.11829 0.82083 0.76292 0.0
C187 C 0.166 0.85292 0.80728 0.0
O188 O 0.19117 0.90658 0.79278 0.0
H189 H 0.18682 0.89713 0.4884 0.0
H190 H 0.29968 0.02031 0.70177 0.0
C191 C 0.96042 0.82841 0.77394 0.0
C192 C 0.9376 0.85649 0.83131 0.0
C193 C 0.02981 0.92414 0.88939 0.0
C194 C 0.05189 0.89492 0.83635 0.0
N195 N 0.01716 0.84864 0.77849 0.0
N196 N 0.97322 0.90413 0.88624 0.0
H197 H 0.93441 0.7936 0.72106 0.0
C198 C 0.18715 0.04247 0.81845 0.0
O199 O 0.16892 1.00144 0.88846 0.0
O200 O 1.00329 0.74895 0.62508 0.0
H201 H 0.09666 0.91039 0.83434 0.0
H202 H 0.24881 0.85635 0.47446 0.0
H203 H 0.05739 0.96322 0.93029 0.0
Zn204 Zn 0.90612 0.52749 0.67249 0.0
C205 C 0.82471 0.37774 0.84412 0.0
N206 N 0.80003 0.40463 0.88949 0.0
C207 C 0.8274 0.45751 0.84754 0.0
N208 N 0.86823 0.46426 0.77862 0.0
N209 N 0.86475 0.41396 0.77319 0.0
C210 C 0.82329 0.3148 0.53331 0.0
O211 O 0.8461 0.35585 0.46336 0.0
O212 O 0.93289 0.60829 0.72683 0.0
Zn213 Zn 0.90571 0.39609 0.67475 0.0
N214 N 0.84718 0.50869 0.57316 0.0
C215 C 0.78441 0.4332 0.46216 0.0
C216 C 0.83567 0.46241 0.51532 0.0
C217 C 0.81064 0.52888 0.57768 0.0
N218 N 0.74782 0.4532 0.46522 0.0
C219 C 0.75978 0.50082 0.52019 0.0
O220 O 0.96318 0.45069 0.55914 0.0
C221 C 0.99168 0.50435 0.54476 0.0
O222 O 0.97606 0.53643 0.58912 0.0
H223 H 0.86497 0.44694 0.5174 0.0
H224 H 0.8194 0.56365 0.63063 0.0
C225 C 0.98327 0.37022 0.70594 0.0
C226 C 0.04178 0.39486 0.70869 0.0
C227 C 0.04663 0.4626 0.83226 0.0
C228 C 0.98819 0.43857 0.82711 0.0
N229 N 0.95851 0.39383 0.76142 0.0
N230 N 0.07271 0.44079 0.77173 0.0
H231 H 0.95823 0.33755 0.64887 0.0
C232 C 0.95133 0.64865 0.65875 0.0
O233 O 0.94896 0.63673 0.55702 0.0
O234 O 0.84761 0.32003 0.62193 0.0
H235 H 0.96794 0.45956 0.86465 0.0
H236 H 0.77293 0.39411 0.4213 0.0
H237 H 0.07057 0.4998 0.88043 0.0
Zn238 Zn 0.63351 0.5158 0.67468 0.0
C239 C 0.57214 0.37617 0.84768 0.0
N240 N 0.62505 0.40168 0.88953 0.0
C241 C 0.65192 0.45322 0.84412 0.0
N242 N 0.61567 0.45702 0.77323 0.0
N243 N 0.56534 0.41026 0.77885 0.0
C244 C 0.381 0.30892 0.65874 0.0
O245 O 0.39292 0.31851 0.55702 0.0
O246 O 0.70957 0.53375 0.62184 0.0
Zn247 Zn 0.50216 0.38487 0.67258 0.0
N248 N 0.63578 0.57091 0.76118 0.0
C249 C 0.56694 0.5902 0.83186 0.0
C250 C 0.59097 0.55579 0.82672 0.0
C251 C 0.65947 0.61934 0.7059 0.0
N252 N 0.5888 0.63813 0.77142 0.0
C253 C 0.6348 0.65318 0.70855 0.0
O254 O 0.49317 0.44585 0.58919 0.0
C255 C 0.52525 0.49352 0.54475 0.0
O256 O 0.57892 0.51865 0.55905 0.0
H257 H 0.56996 0.51453 0.86415 0.0
H258 H 0.69219 0.62699 0.64894 0.0
C259 C 0.50083 0.28806 0.57774 0.0
C260 C 0.52888 0.26524 0.52026 0.0
C261 C 0.59654 0.35747 0.46232 0.0
C262 C 0.56736 0.37955 0.5155 0.0
N263 N 0.52108 0.3448 0.57332 0.0
N264 N 0.57651 0.30088 0.46534 0.0
H265 H 0.46603 0.26204 0.63063 0.0
C266 C 0.71486 0.51476 0.53316 0.0
O267 O 0.67386 0.49656 0.46311 0.0
O268 O 0.42136 0.33081 0.72682 0.0
H269 H 0.58286 0.42433 0.51762 0.0
H270 H 0.52969 0.57691 0.87989 0.0
H271 H 0.63563 0.38507 0.42145 0.0
Zn272 Zn 0.64478 0.12355 0.67252 0.0
C273 C 0.57643 0.20496 0.84411 0.0
N274 N 0.62797 0.22963 0.88953 0.0
C275 C 0.65349 0.20226 0.84759 0.0
N276 N 0.61943 0.16144 0.77864 0.0
N277 N 0.57262 0.16493 0.77316 0.0
C278 C 0.5149 0.20637 0.53321 0.0
O279 O 0.53314 0.18357 0.46322 0.0
O280 O 0.69881 0.09678 0.72686 0.0
Zn281 Zn 0.51383 0.12398 0.67467 0.0
N282 N 0.6849 0.18248 0.5732 0.0
C283 C 0.67221 0.2453 0.46227 0.0
C284 C 0.65014 0.19401 0.51538 0.0
C285 C 0.74163 0.21901 0.57774 0.0
N286 N 0.7288 0.28188 0.46535 0.0
C287 C 0.76443 0.26989 0.5203 0.0
O288 O 0.51097 0.06651 0.55905 0.0
C289 C 0.53611 0.03798 0.54473 0.0
O290 O 0.58379 0.05358 0.58915 0.0
H291 H 0.60537 0.16473 0.51747 0.0
H292 H 0.76764 0.21024 0.63067 0.0
C293 C 0.41043 0.04641 0.70574 0.0
C294 C 0.37655 0.9879 0.7085 0.0
C295 C 0.43938 0.98305 0.83219 0.0
C296 C 0.4738 0.04148 0.82703 0.0
N297 N 0.45877 0.07117 0.76129 0.0
N298 N 0.3915 0.95697 0.77162 0.0
H299 H 0.40282 0.07144 0.64863 0.0
C300 C 0.72072 0.07833 0.65878 0.0
O301 O 0.71117 0.0807 0.55705 0.0
O302 O 0.49585 0.18206 0.62184 0.0
H303 H 0.51502 0.06173 0.86462 0.0
H304 H 0.64461 0.25679 0.42141 0.0
H305 H 0.45261 0.9591 0.88043 0.0
Zn306 Zn 0.73515 0.56679 0.01007 0.0
C307 C 0.7965 0.48833 0.83763 0.0
N308 N 0.7436 0.46088 0.79575 0.0
C309 C 0.71677 0.4856 0.84109 0.0
N310 N 0.75304 0.52579 0.91175 0.0
N311 N 0.80336 0.52933 0.90625 0.0
C312 C 0.9877 0.61234 0.02651 0.0
O313 O 0.97574 0.60992 0.12822 0.0
O314 O 0.65908 0.50864 0.0629 0.0
Zn315 Zn 0.86653 0.56711 0.01257 0.0
N316 N 0.73292 0.61963 0.92337 0.0
C317 C 0.80229 0.70797 0.85433 0.0
C318 C 0.77803 0.64949 0.85857 0.0
C319 C 0.70907 0.64428 0.97847 0.0
N320 N 0.78032 0.73393 0.91482 0.0
C321 C 0.73396 0.70283 0.97676 0.0
O322 O 0.87543 0.63699 0.09623 0.0
C323 C 0.84335 0.65265 0.14048 0.0
O324 O 0.78971 0.62423 0.12582 0.0
H325 H 0.79912 0.62929 0.82127 0.0
H326 H 0.67607 0.61905 0.03477 0.0
C327 C 0.86799 0.47164 0.10729 0.0
C328 C 0.83992 0.42071 0.16458 0.0
C329 C 0.77206 0.44509 0.22224 0.0
C330 C 0.80125 0.49639 0.16922 0.0
N331 N 0.84764 0.50805 0.11164 0.0
N332 N 0.79219 0.4086 0.21927 0.0
H333 H 0.9029 0.48052 0.0546 0.0
C334 C 0.65378 0.48441 0.15164 0.0
O335 O 0.69481 0.50725 0.22164 0.0
O336 O 0.94737 0.59394 0.95838 0.0
H337 H 0.78566 0.5256 0.16701 0.0
H338 H 0.83983 0.73203 0.80712 0.0
H339 H 0.73293 0.43351 0.263 0.0
Zn340 Zn 0.46252 0.30568 0.01269 0.0
C341 C 0.54404 0.23743 0.84115 0.0
N342 N 0.56875 0.289 0.79581 0.0
C343 C 0.54133 0.31445 0.83779 0.0
N344 N 0.5004 0.28033 0.90652 0.0
N345 N 0.50387 0.2335 0.91187 0.0
C346 C 0.54526 0.17566 0.15161 0.0
O347 O 0.52244 0.1939 0.22154 0.0
O348 O 0.43566 0.35964 0.95839 0.0
Zn349 Zn 0.46286 0.17459 0.01012 0.0
N350 N 0.52153 0.34592 0.11183 0.0
C351 C 0.58451 0.3333 0.22239 0.0
C352 C 0.53319 0.31118 0.16942 0.0
C353 C 0.55798 0.40267 0.10736 0.0
N354 N 0.62102 0.3899 0.21936 0.0
C355 C 0.60892 0.42552 0.16463 0.0
O356 O 0.40541 0.1717 0.12586 0.0
C357 C 0.37699 0.19694 0.14054 0.0
O358 O 0.39266 0.24468 0.09633 0.0
H359 H 0.50397 0.26639 0.16725 0.0
H360 H 0.54912 0.42868 0.05461 0.0
C361 C 0.38541 0.0712 0.97869 0.0
C362 C 0.32687 0.03753 0.97704 0.0
C363 C 0.32169 0.10057 0.85429 0.0
C364 C 0.38018 0.13477 0.85837 0.0
N365 N 0.41006 0.11959 0.92327 0.0
N366 N 0.29575 0.05271 0.91496 0.0
H367 H 0.41065 0.06348 0.03507 0.0
C368 C 0.41727 0.38159 0.0265 0.0
O369 O 0.41972 0.37209 0.12823 0.0
O370 O 0.52099 0.15666 0.06292 0.0
H371 H 0.40036 0.17601 0.82087 0.0
H372 H 0.59608 0.30572 0.26314 0.0
H373 H 0.29762 0.11401 0.80698 0.0
Zn374 Zn 0.72397 0.16311 0.01269 0.0
C375 C 0.79224 0.31289 0.84116 0.0
N376 N 0.74068 0.28604 0.7958 0.0
C377 C 0.71522 0.23316 0.83777 0.0
N378 N 0.74932 0.22635 0.90652 0.0
N379 N 0.79615 0.27664 0.91189 0.0
C380 C 0.85399 0.37587 0.15166 0.0
O381 O 0.83574 0.33483 0.22164 0.0
O382 O 0.67 0.08229 0.9584 0.0
Zn383 Zn 0.85505 0.29452 0.01019 0.0
N384 N 0.68375 0.18191 0.11183 0.0
C385 C 0.69637 0.25752 0.22237 0.0
C386 C 0.71849 0.22831 0.1694 0.0
C387 C 0.627 0.16161 0.10736 0.0
N388 N 0.63976 0.23743 0.21932 0.0
C389 C 0.60415 0.1897 0.1646 0.0
O390 O 0.85792 0.23995 0.12593 0.0
C391 C 0.83269 0.1863 0.14057 0.0
O392 O 0.78496 0.15422 0.09632 0.0
H393 H 0.76327 0.24388 0.16723 0.0
H394 H 0.60099 0.12672 0.05461 0.0
C395 C 0.95845 0.32046 0.97884 0.0
C396 C 0.99211 0.29558 0.97721 0.0
C397 C 0.92908 0.22735 0.85447 0.0
C398 C 0.89488 0.25165 0.85852 0.0
N399 N 0.91006 0.29672 0.9234 0.0
N400 N 0.97693 0.24927 0.91515 0.0
H401 H 0.96617 0.35343 0.0352 0.0
C402 C 0.64807 0.04195 0.02651 0.0
O403 O 0.65759 0.0539 0.12823 0.0
O404 O 0.87298 0.37059 0.06298 0.0
H405 H 0.85364 0.23059 0.82101 0.0
H406 H 0.72393 0.29666 0.26311 0.0
H407 H 0.91563 0.18983 0.8072 0.0
Zn408 Zn 0.57281 0.86083 1.00599 0.0
C409 C 0.49138 0.71109 0.17771 0.0
N410 N 0.46667 0.73796 0.22296 0.0
C411 C 0.49405 0.79085 0.181 0.0
N412 N 0.53492 0.7976 0.11217 0.0
N413 N 0.53147 0.74731 0.10684 0.0
C414 C 0.4901 0.64808 0.86706 0.0
O415 O 0.51293 0.68913 0.79711 0.0
O416 O 0.59966 0.94165 0.06028 0.0
Zn417 Zn 0.57248 0.72942 1.00856 0.0
N418 N 0.5138 0.84204 0.90684 0.0
C419 C 0.45082 0.76644 0.79629 0.0
C420 C 0.50214 0.79564 0.84927 0.0
C421 C 0.47735 0.86235 0.91129 0.0
N422 N 0.41432 0.78654 0.7993 0.0
C423 C 0.42642 0.83426 0.85401 0.0
O424 O 0.62994 0.78399 0.89283 0.0
C425 C 0.65836 0.83764 0.87816 0.0
O426 O 0.64269 0.86972 0.92238 0.0
H427 H 0.53136 0.78007 0.85147 0.0
H428 H 0.48622 0.89723 0.96403 0.0
C429 C 0.64993 0.70348 0.03996 0.0
C430 C 0.70848 0.72835 0.04158 0.0
C431 C 0.71367 0.79658 0.16433 0.0
C432 C 0.65518 0.77229 0.16027 0.0
N433 N 0.62529 0.72723 0.09539 0.0
N434 N 0.7396 0.77466 0.10365 0.0
H435 H 0.62468 0.67051 0.98358 0.0
C436 C 0.61809 0.98199 0.99216 0.0
O437 O 0.61567 0.97004 0.89044 0.0
O438 O 0.51436 0.65335 0.95576 0.0
H439 H 0.635 0.79335 0.19777 0.0
H440 H 0.43925 0.72729 0.75555 0.0
H441 H 0.73775 0.83409 0.21162 0.0
Zn442 Zn 0.3002 0.84929 1.00858 0.0
C443 C 0.23883 0.70951 0.18115 0.0
N444 N 0.29173 0.735 0.22303 0.0
C445 C 0.31858 0.78657 0.17774 0.0
N446 N 0.28233 0.79042 0.10693 0.0
N447 N 0.23201 0.74364 0.11244 0.0
C448 C 0.04766 0.64232 0.99219 0.0
O449 O 0.05962 0.65187 0.89048 0.0
O450 O 0.37626 0.86721 0.95574 0.0
Zn451 Zn 0.16883 0.71824 1.00612 0.0
N452 N 0.30242 0.90437 0.09525 0.0
C453 C 0.23306 0.92335 0.16429 0.0
C454 C 0.25731 0.88912 0.16006 0.0
C455 C 0.32626 0.95286 0.04013 0.0
N456 N 0.25502 0.97127 0.10381 0.0
C457 C 0.30137 0.98652 0.04185 0.0
O458 O 0.15991 0.77921 0.92248 0.0
C459 C 0.19198 0.82694 0.87821 0.0
O460 O 0.24563 0.85216 0.89284 0.0
H461 H 0.23622 0.84783 0.19736 0.0
H462 H 0.35926 0.96063 0.98382 0.0
C463 C 0.16737 0.62131 0.91141 0.0
C464 C 0.19543 0.59844 0.8541 0.0
C465 C 0.26328 0.69067 0.79641 0.0
C466 C 0.23411 0.7128 0.84945 0.0
N467 N 0.18772 0.67807 0.90704 0.0
N468 N 0.24315 0.63405 0.79939 0.0
H469 H 0.13247 0.5953 0.96411 0.0
C470 C 0.38157 0.84831 0.86698 0.0
O471 O 0.34054 0.83011 0.79696 0.0
O472 O 0.088 0.66423 0.06032 0.0
H473 H 0.2497 0.75759 0.85166 0.0
H474 H 0.19551 0.90986 0.21152 0.0
H475 H 0.30242 0.71822 0.75564 0.0
Zn476 Zn 0.18037 0.45718 1.0086 0.0
C477 C 0.32018 0.53561 0.18109 0.0
N478 N 0.29471 0.56303 0.22297 0.0
C479 C 0.24312 0.53831 0.17773 0.0
N480 N 0.23925 0.49819 0.10693 0.0
N481 N 0.28604 0.49466 0.1124 0.0
C482 C 0.38729 0.41157 0.99217 0.0
O483 O 0.37773 0.41397 0.89045 0.0
O484 O 0.16244 0.51532 0.95579 0.0
Zn485 Zn 0.31141 0.45686 1.00608 0.0
N486 N 0.1253 0.40432 0.09527 0.0
C487 C 0.1063 0.316 0.16451 0.0
C488 C 0.14055 0.37448 0.16015 0.0
C489 C 0.07681 0.37966 0.04017 0.0
N490 N 0.05837 0.29003 0.10404 0.0
C491 C 0.04313 0.32111 0.04199 0.0
O492 O 0.25043 0.38697 0.92247 0.0
C493 C 0.2027 0.37132 0.8782 0.0
O494 O 0.17749 0.39976 0.89282 0.0
H495 H 0.18184 0.39469 0.19745 0.0
H496 H 0.06905 0.40487 0.9838 0.0
C497 C 0.40834 0.55231 0.91139 0.0
C498 C 0.4312 0.60324 0.85408 0.0
C499 C 0.33899 0.57885 0.79628 0.0
C500 C 0.31686 0.52754 0.84933 0.0
N501 N 0.35158 0.5159 0.90699 0.0
N502 N 0.3956 0.61534 0.7993 0.0
H503 H 0.43435 0.54344 0.96414 0.0
C504 C 0.18136 0.53954 0.86704 0.0
O505 O 0.19955 0.5167 0.79703 0.0
O506 O 0.3654 0.43002 0.06029 0.0
H507 H 0.27207 0.49833 0.85149 0.0
H508 H 0.11977 0.29196 0.21182 0.0
H509 H 0.31144 0.59041 0.75548 0.0
Zn510 Zn 0.40183 0.90001 0.34398 0.0
C511 C 0.46317 0.82169 0.17111 0.0
N512 N 0.41027 0.79425 0.12924 0.0
C513 C 0.38343 0.81895 0.17471 0.0
N514 N 0.4197 0.85908 0.24545 0.0
N515 N 0.47002 0.86264 0.23983 0.0
C516 C 0.65437 0.94561 0.35993 0.0
O517 O 0.64245 0.94325 0.46165 0.0
O518 O 0.32578 0.84188 0.39684 0.0
Zn519 Zn 0.53321 0.90041 0.34609 0.0
N520 N 0.39953 0.95283 0.25747 0.0
C521 C 0.46838 0.04095 0.18677 0.0
C522 C 0.44434 0.98252 0.19193 0.0
C523 C 0.37583 0.97758 0.3127 0.0
N524 N 0.44651 0.06704 0.24717 0.0
C525 C 0.4005 0.03609 0.31002 0.0
O526 O 0.54218 0.97037 0.42952 0.0
C527 C 0.51011 0.98598 0.47393 0.0
O528 O 0.45644 0.95747 0.45959 0.0
H529 H 0.46536 0.96227 0.15454 0.0
H530 H 0.34311 0.95253 0.36967 0.0
C531 C 0.53455 0.80492 0.44093 0.0
C532 C 0.5065 0.75406 0.49843 0.0
C533 C 0.43884 0.77865 0.55636 0.0
C534 C 0.46803 0.8299 0.50316 0.0
N535 N 0.51431 0.84142 0.44533 0.0
N536 N 0.45887 0.74208 0.55336 0.0
H537 H 0.56935 0.81369 0.38805 0.0
C538 C 0.32051 0.81758 0.48548 0.0
O539 O 0.36153 0.84039 0.5555 0.0
O540 O 0.61402 0.92717 0.29184 0.0
H541 H 0.45253 0.85918 0.50103 0.0
H542 H 0.50563 0.0649 0.13875 0.0
H543 H 0.39975 0.76716 0.59723 0.0
Zn544 Zn 0.12923 0.63905 0.3462 0.0
C545 C 0.21073 0.57078 0.17474 0.0
N546 N 0.23541 0.62232 0.1293 0.0
C547 C 0.20799 0.64779 0.17125 0.0
N548 N 0.16711 0.6137 0.24007 0.0
N549 N 0.1706 0.56689 0.24552 0.0
C550 C 0.21208 0.50919 0.48537 0.0
O551 O 0.18928 0.52744 0.55534 0.0
O552 O 0.10245 0.69307 0.29187 0.0
Zn553 Zn 0.12966 0.50807 0.34395 0.0
N554 N 0.18817 0.67919 0.44552 0.0
C555 C 0.25097 0.66649 0.55648 0.0
C556 C 0.19969 0.64443 0.50335 0.0
C557 C 0.22471 0.73592 0.441 0.0
N558 N 0.28756 0.72307 0.55341 0.0
C559 C 0.27559 0.75872 0.49845 0.0
O560 O 0.07219 0.50519 0.45957 0.0
C561 C 0.04368 0.53035 0.47395 0.0
O562 O 0.05929 0.57805 0.42959 0.0
H563 H 0.1704 0.59966 0.50126 0.0
H564 H 0.21596 0.76194 0.38806 0.0
C565 C 0.05213 0.40466 0.31277 0.0
C566 C 0.99361 0.37083 0.31025 0.0
C567 C 0.98869 0.43373 0.18681 0.0
C568 C 0.04713 0.4681 0.19173 0.0
N569 N 0.07686 0.45302 0.25726 0.0
N570 N 0.96264 0.38585 0.24738 0.0
H571 H 0.07721 0.39703 0.36973 0.0
C572 C 0.084 0.71498 0.35995 0.0
O573 O 0.08637 0.70544 0.46168 0.0
O574 O 0.18776 0.49011 0.39676 0.0
H575 H 0.06737 0.50933 0.15417 0.0
H576 H 0.26245 0.63888 0.59734 0.0
H577 H 0.96472 0.44702 0.13881 0.0
Zn578 Zn 0.52156 0.62782 0.34403 0.0
C579 C 0.3819 0.56648 0.17115 0.0
N580 N 0.40737 0.61938 0.12927 0.0
C581 C 0.4589 0.64623 0.17473 0.0
N582 N 0.46277 0.60997 0.24547 0.0
N583 N 0.41601 0.55963 0.23985 0.0
C584 C 0.31465 0.37529 0.35995 0.0
O585 O 0.32423 0.38721 0.46167 0.0
O586 O 0.5395 0.70388 0.39689 0.0
Zn587 Zn 0.3906 0.49644 0.34611 0.0
N588 N 0.5767 0.63013 0.25755 0.0
C589 C 0.59602 0.56136 0.18662 0.0
C590 C 0.56159 0.58536 0.1919 0.0
C591 C 0.62513 0.6538 0.31282 0.0
N592 N 0.64396 0.5832 0.24704 0.0
C593 C 0.65899 0.62916 0.31003 0.0
O594 O 0.45157 0.48746 0.42954 0.0
C595 C 0.49925 0.51953 0.47396 0.0
O596 O 0.5244 0.5732 0.45962 0.0
H597 H 0.52033 0.56436 0.15446 0.0
H598 H 0.63278 0.68649 0.36987 0.0
C599 C 0.29377 0.49511 0.4409 0.0
C600 C 0.27095 0.52317 0.49834 0.0
C601 C 0.36318 0.59083 0.55634 0.0
C602 C 0.38526 0.56164 0.50318 0.0
N603 N 0.35051 0.51535 0.44535 0.0
N604 N 0.30659 0.5708 0.55328 0.0
H605 H 0.26775 0.4603 0.38802 0.0
C606 C 0.52048 0.70916 0.48553 0.0
O607 O 0.50225 0.66814 0.55556 0.0
O608 O 0.33655 0.41564 0.29186 0.0
H609 H 0.43003 0.57714 0.50108 0.0
H610 H 0.58275 0.52415 0.13847 0.0
H611 H 0.39077 0.62992 0.59721 0.0
loop_
_geom_bond_atom_site_label_1
_geom_bond_atom_site_label_2
_geom_bond_distance
_geom_bond_site_symmetry_2
_ccdc_geom_bond_type
Zn0 N4 2.020 . S
Zn0 O8 2.019 . S
Zn0 N10 2.119 . S
Zn0 O18 1.975 . S
C1 N2 1.334 . S
C1 N5 1.336 . S
N2 C1 1.334 . S
N2 C3 1.334 . S
C3 N2 1.334 . S
C3 N4 1.336 . S
N4 Zn0 2.020 . S
N4 C3 1.336 . S
N4 N5 1.354 . S
N5 C1 1.336 . S
N5 N4 1.354 . S
N5 Zn9 2.020 . S
C6 O7 1.244 . S
C6 O30 1.257 . S
O7 C6 1.244 . S
O8 Zn0 2.019 . S
O8 C28 1.257 . S
Zn9 N5 2.020 . S
Zn9 O16 1.975 . S
Zn9 N25 2.119 . S
Zn9 O30 2.019 1_545 S
N10 Zn0 2.119 . S
N10 C12 1.334 . S
N10 C13 1.328 . S
C11 C12 1.391 . S
C11 N14 1.329 . S
C11 H32 0.930 . S
C12 N10 1.334 . S
C12 C11 1.391 . S
C12 H19 0.930 . S
C13 N10 1.328 . S
C13 C15 1.392 . S
C13 H20 0.930 . S
N14 C11 1.329 . S
N14 C15 1.331 . S
C15 C13 1.392 . S
C15 N14 1.331 . S
O16 Zn9 1.975 . S
O16 C17 1.252 . S
C17 O16 1.252 . S
C17 O18 1.252 . S
O18 Zn0 1.975 . S
O18 C17 1.252 . S
H19 C12 0.930 . S
H20 C13 0.930 . S
C21 C22 1.392 . S
C21 N25 1.328 . S
C21 H27 0.930 . S
C22 C21 1.392 . S
C22 N26 1.331 . S
C23 C24 1.391 . S
C23 N26 1.329 . S
C23 H33 0.930 . S
C24 C23 1.391 . S
C24 N25 1.334 . S
C24 H31 0.930 . S
N25 Zn9 2.119 . S
N25 C21 1.328 . S
N25 C24 1.334 . S
N26 C22 1.331 . S
N26 C23 1.329 . S
H27 C21 0.930 . S
C28 O8 1.257 . S
C28 O29 1.244 . S
O29 C28 1.244 . S
O30 C6 1.257 . S
O30 Zn9 2.019 1_565 S
H31 C24 0.930 . S
H32 C11 0.930 . S
H33 C23 0.930 . S
Zn34 N38 2.020 . S
Zn34 O42 2.019 1_655 S
Zn34 N44 2.119 . S
Zn34 O52 1.975 . S
C35 N36 1.334 . S
C35 N39 1.336 . S
N36 C35 1.334 . S
N36 C37 1.334 . S
C37 N36 1.334 . S
C37 N38 1.336 . S
N38 Zn34 2.020 . S
N38 C37 1.336 . S
N38 N39 1.354 . S
N39 C35 1.336 . S
N39 N38 1.354 . S
N39 Zn43 2.020 . S
C40 O41 1.244 . S
C40 O64 1.257 1_545 S
O41 C40 1.244 . S
O42 Zn34 2.019 1_455 S
O42 C62 1.257 . S
Zn43 N39 2.020 . S
Zn43 O50 1.975 . S
Zn43 N59 2.119 1_545 S
Zn43 O64 2.019 1_545 S
N44 Zn34 2.119 . S
N44 C46 1.334 . S
N44 C47 1.328 . S
C45 C46 1.391 . S
C45 N48 1.329 . S
C45 H66 0.930 . S
C46 N44 1.334 . S
C46 C45 1.391 . S
C46 H53 0.930 . S
C47 N44 1.328 . S
C47 C49 1.392 . S
C47 H54 0.930 . S
N48 C45 1.329 . S
N48 C49 1.331 . S
C49 C47 1.392 . S
C49 N48 1.331 . S
O50 Zn43 1.975 . S
O50 C51 1.252 . S
C51 O50 1.252 . S
C51 O52 1.252 . S
O52 Zn34 1.975 . S
O52 C51 1.252 . S
H53 C46 0.930 . S
H54 C47 0.930 . S
C55 C56 1.392 . S
C55 N59 1.328 . S
C55 H61 0.930 . S
C56 C55 1.392 . S
C56 N60 1.331 . S
C57 C58 1.391 . S
C57 N60 1.329 . S
C57 H67 0.930 . S
C58 C57 1.391 . S
C58 N59 1.334 . S
C58 H65 0.930 1_565 S
N59 Zn43 2.119 1_565 S
N59 C55 1.328 . S
N59 C58 1.334 . S
N60 C56 1.331 . S
N60 C57 1.329 . S
H61 C55 0.930 . S
C62 O42 1.257 . S
C62 O63 1.244 . S
O63 C62 1.244 . S
O64 C40 1.257 1_565 S
O64 Zn43 2.019 1_565 S
H65 C58 0.930 1_545 S
H66 C45 0.930 . S
H67 C57 0.930 . S
Zn68 N72 2.020 . S
Zn68 O76 2.019 1_655 S
Zn68 N78 2.119 1_655 S
Zn68 O86 1.975 . S
C69 N70 1.334 . S
C69 N73 1.336 . S
N70 C69 1.334 . S
N70 C71 1.334 . S
C71 N70 1.334 . S
C71 N72 1.336 . S
N72 Zn68 2.020 . S
N72 C71 1.336 . S
N72 N73 1.354 . S
N73 C69 1.336 . S
N73 N72 1.354 . S
N73 Zn77 2.020 . S
C74 O75 1.244 . S
C74 O98 1.257 . S
O75 C74 1.244 . S
O76 Zn68 2.019 1_455 S
O76 C96 1.257 1_455 S
Zn77 N73 2.020 . S
Zn77 O84 1.975 . S
Zn77 N93 2.119 . S
Zn77 O98 2.019 . S
N78 Zn68 2.119 1_455 S
N78 C80 1.334 . S
N78 C81 1.328 . S
C79 C80 1.391 . S
C79 N82 1.329 . S
C79 H100 0.930 . S
C80 N78 1.334 . S
C80 C79 1.391 . S
C80 H87 0.930 1_455 S
C81 N78 1.328 . S
C81 C83 1.392 . S
C81 H88 0.930 . S
N82 C79 1.329 . S
N82 C83 1.331 . S
C83 C81 1.392 . S
C83 N82 1.331 . S
O84 Zn77 1.975 . S
O84 C85 1.252 . S
C85 O84 1.252 . S
C85 O86 1.252 . S
O86 Zn68 1.975 . S
O86 C85 1.252 . S
H87 C80 0.930 1_655 S
H88 C81 0.930 . S
C89 C90 1.392 . S
C89 N93 1.328 . S
C89 H95 0.930 . S
C90 C89 1.392 . S
C90 N94 1.331 . S
C91 C92 1.391 . S
C91 N94 1.329 . S
C91 H101 0.930 . S
C92 C91 1.391 . S
C92 N93 1.334 . S
C92 H99 0.930 . S
N93 Zn77 2.119 . S
N93 C89 1.328 . S
N93 C92 1.334 . S
N94 C90 1.331 . S
N94 C91 1.329 . S
H95 C89 0.930 . S
C96 O76 1.257 1_655 S
C96 O97 1.244 . S
O97 C96 1.244 . S
O98 C74 1.257 . S
O98 Zn77 2.019 . S
H99 C92 0.930 . S
H100 C79 0.930 . S
H101 C91 0.930 . S
Zn102 N106 2.020 . S
Zn102 O110 2.019 . S
Zn102 N112 2.119 . S
Zn102 O120 1.975 . S
C103 N104 1.334 . S
C103 N107 1.336 . S
N104 C103 1.334 . S
N104 C105 1.334 . S
C105 N104 1.334 . S
C105 N106 1.336 . S
N106 Zn102 2.020 . S
N106 C105 1.336 . S
N106 N107 1.354 . S
N107 C103 1.336 . S
N107 N106 1.354 . S
N107 Zn111 2.020 . S
C108 O109 1.244 . S
C108 O132 1.257 . S
O109 C108 1.244 . S
O110 Zn102 2.019 . S
O110 C130 1.257 . S
Zn111 N107 2.020 . S
Zn111 O118 1.975 . S
Zn111 N127 2.119 . S
Zn111 O132 2.019 1_455 S
N112 Zn102 2.119 . S
N112 C114 1.334 . S
N112 C115 1.328 . S
C113 C114 1.391 . S
C113 N116 1.329 . S
C113 H134 0.930 . S
C114 N112 1.334 . S
C114 C113 1.391 . S
C114 H121 0.930 . S
C115 N112 1.328 . S
C115 C117 1.392 . S
C115 H122 0.930 . S
N116 C113 1.329 . S
N116 C117 1.331 . S
C117 C115 1.392 . S
C117 N116 1.331 . S
O118 Zn111 1.975 . S
O118 C119 1.252 . S
C119 O118 1.252 . S
C119 O120 1.252 . S
O120 Zn102 1.975 . S
O120 C119 1.252 . S
H121 C114 0.930 . S
H122 C115 0.930 . S
C123 C124 1.392 . S
C123 N127 1.328 . S
C123 H129 0.930 . S
C124 C123 1.392 . S
C124 N128 1.331 . S
C125 C126 1.391 . S
C125 N128 1.329 . S
C125 H135 0.930 . S
C126 C125 1.391 . S
C126 N127 1.334 . S
C126 H133 0.930 . S
N127 Zn111 2.119 . S
N127 C123 1.328 . S
N127 C126 1.334 . S
N128 C124 1.331 . S
N128 C125 1.329 . S
H129 C123 0.930 . S
C130 O110 1.257 . S
C130 O131 1.244 . S
O131 C130 1.244 . S
O132 C108 1.257 . S
O132 Zn111 2.019 1_655 S
H133 C126 0.930 . S
H134 C113 0.930 . S
H135 C125 0.930 . S
Zn136 N140 2.020 . S
Zn136 O144 2.019 . S
Zn136 N146 2.119 . S
Zn136 O154 1.975 . S
C137 N138 1.334 . S
C137 N141 1.336 . S
N138 C137 1.334 . S
N138 C139 1.334 . S
C139 N138 1.334 . S
C139 N140 1.336 . S
N140 Zn136 2.020 . S
N140 C139 1.336 . S
N140 N141 1.354 . S
N141 C137 1.336 . S
N141 N140 1.354 . S
N141 Zn145 2.020 . S
C142 O143 1.244 . S
C142 O166 1.257 1_565 S
O143 C142 1.244 . S
O144 Zn136 2.019 . S
O144 C164 1.257 . S
Zn145 N141 2.020 . S
Zn145 O152 1.975 . S
Zn145 N161 2.119 1_565 S
Zn145 O166 2.019 1_565 S
N146 Zn136 2.119 . S
N146 C148 1.334 . S
N146 C149 1.328 . S
C147 C148 1.391 . S
C147 N150 1.329 . S
C147 H168 0.930 . S
C148 N146 1.334 . S
C148 C147 1.391 . S
C148 H155 0.930 . S
C149 N146 1.328 . S
C149 C151 1.392 . S
C149 H156 0.930 . S
N150 C147 1.329 . S
N150 C151 1.331 . S
C151 C149 1.392 . S
C151 N150 1.331 . S
O152 Zn145 1.975 . S
O152 C153 1.252 . S
C153 O152 1.252 . S
C153 O154 1.252 . S
O154 Zn136 1.975 . S
O154 C153 1.252 . S
H155 C148 0.930 . S
H156 C149 0.930 . S
C157 C158 1.392 . S
C157 N161 1.328 . S
C157 H163 0.930 . S
C158 C157 1.392 . S
C158 N162 1.331 . S
C159 C160 1.391 . S
C159 N162 1.329 . S
C159 H169 0.930 . S
C160 C159 1.391 . S
C160 N161 1.334 . S
C160 H167 0.930 1_545 S
N161 Zn145 2.119 1_545 S
N161 C157 1.328 . S
N161 C160 1.334 . S
N162 C158 1.331 . S
N162 C159 1.329 . S
H163 C157 0.930 . S
C164 O144 1.257 . S
C164 O165 1.244 . S
O165 C164 1.244 . S
O166 C142 1.257 1_545 S
O166 Zn145 2.019 1_545 S
H167 C160 0.930 1_565 S
H168 C147 0.930 . S
H169 C159 0.930 . S
Zn170 N174 2.020 . S
Zn170 O178 2.019 1_565 S
Zn170 N180 2.119 . S
Zn170 O188 1.975 . S
C171 N172 1.334 . S
C171 N175 1.336 . S
N172 C171 1.334 . S
N172 C173 1.334 . S
C173 N172 1.334 . S
C173 N174 1.336 . S
N174 Zn170 2.020 . S
N174 C173 1.336 . S
N174 N175 1.354 . S
N175 C171 1.336 . S
N175 N174 1.354 . S
N175 Zn179 2.020 . S
C176 O177 1.244 . S
C176 O200 1.257 1_455 S
O177 C176 1.244 . S
O178 Zn170 2.019 1_545 S
O178 C198 1.257 . S
Zn179 N175 2.020 . S
Zn179 O186 1.975 . S
Zn179 N195 2.119 1_455 S
Zn179 O200 2.019 1_455 S
N180 Zn170 2.119 . S
N180 C182 1.334 . S
N180 C183 1.328 . S
C181 C182 1.391 . S
C181 N184 1.329 . S
C181 H202 0.930 . S
C182 N180 1.334 . S
C182 C181 1.391 . S
C182 H189 0.930 . S
C183 N180 1.328 . S
C183 C185 1.392 . S
C183 H190 0.930 . S
N184 C181 1.329 . S
N184 C185 1.331 . S
C185 C183 1.392 . S
C185 N184 1.331 . S
O186 Zn179 1.975 . S
O186 C187 1.252 . S
C187 O186 1.252 . S
C187 O188 1.252 . S
O188 Zn170 1.975 . S
O188 C187 1.252 . S
H189 C182 0.930 . S
H190 C183 0.930 . S
C191 C192 1.392 . S
C191 N195 1.328 . S
C191 H197 0.930 . S
C192 C191 1.392 . S
C192 N196 1.331 . S
C193 C194 1.391 . S
C193 N196 1.329 . S
C193 H203 0.930 . S
C194 C193 1.391 . S
C194 N195 1.334 . S
C194 H201 0.930 1_655 S
N195 Zn179 2.119 1_655 S
N195 C191 1.328 . S
N195 C194 1.334 . S
N196 C192 1.331 . S
N196 C193 1.329 . S
H197 C191 0.930 . S
C198 O178 1.257 . S
C198 O199 1.244 . S
O199 C198 1.244 . S
O200 C176 1.257 1_655 S
O200 Zn179 2.019 1_655 S
H201 C194 0.930 1_455 S
H202 C181 0.930 . S
H203 C193 0.930 . S
Zn204 N208 2.020 . S
Zn204 O212 2.019 . S
Zn204 N214 2.119 . S
Zn204 O222 1.975 . S
C205 N206 1.334 . S
C205 N209 1.336 . S
N206 C205 1.334 . S
N206 C207 1.334 . S
C207 N206 1.334 . S
C207 N208 1.336 . S
N208 Zn204 2.020 . S
N208 C207 1.336 . S
N208 N209 1.354 . S
N209 C205 1.336 . S
N209 N208 1.354 . S
N209 Zn213 2.020 . S
C210 O211 1.244 . S
C210 O234 1.257 . S
O211 C210 1.244 . S
O212 Zn204 2.019 . S
O212 C232 1.257 . S
Zn213 N209 2.020 . S
Zn213 O220 1.975 . S
Zn213 N229 2.119 . S
Zn213 O234 2.019 . S
N214 Zn204 2.119 . S
N214 C216 1.334 . S
N214 C217 1.328 . S
C215 C216 1.391 . S
C215 N218 1.329 . S
C215 H236 0.930 . S
C216 N214 1.334 . S
C216 C215 1.391 . S
C216 H223 0.930 . S
C217 N214 1.328 . S
C217 C219 1.392 . S
C217 H224 0.930 . S
N218 C215 1.329 . S
N218 C219 1.331 . S
C219 C217 1.392 . S
C219 N218 1.331 . S
O220 Zn213 1.975 . S
O220 C221 1.252 . S
C221 O220 1.252 . S
C221 O222 1.252 . S
O222 Zn204 1.975 . S
O222 C221 1.252 . S
H223 C216 0.930 . S
H224 C217 0.930 . S
C225 C226 1.392 1_655 S
C225 N229 1.328 . S
C225 H231 0.930 . S
C226 C225 1.392 1_455 S
C226 N230 1.331 . S
C227 C228 1.391 . S
C227 N230 1.329 . S
C227 H237 0.930 . S
C228 C227 1.391 . S
C228 N229 1.334 1_455 S
C228 H235 0.930 . S
N229 Zn213 2.119 . S
N229 C225 1.328 . S
N229 C228 1.334 1_655 S
N230 C226 1.331 . S
N230 C227 1.329 . S
H231 C225 0.930 . S
C232 O212 1.257 . S
C232 O233 1.244 . S
O233 C232 1.244 . S
O234 C210 1.257 . S
O234 Zn213 2.019 . S
H235 C228 0.930 . S
H236 C215 0.930 . S
H237 C227 0.930 . S
Zn238 N242 2.020 . S
Zn238 O246 2.019 . S
Zn238 N248 2.119 . S
Zn238 O256 1.975 . S
C239 N240 1.334 . S
C239 N243 1.336 . S
N240 C239 1.334 . S
N240 C241 1.334 . S
C241 N240 1.334 . S
C241 N242 1.336 . S
N242 Zn238 2.020 . S
N242 C241 1.336 . S
N242 N243 1.354 . S
N243 C239 1.336 . S
N243 N242 1.354 . S
N243 Zn247 2.020 . S
C244 O245 1.244 . S
C244 O268 1.257 . S
O245 C244 1.244 . S
O246 Zn238 2.019 . S
O246 C266 1.257 . S
Zn247 N243 2.020 . S
Zn247 O254 1.975 . S
Zn247 N263 2.119 . S
Zn247 O268 2.019 . S
N248 Zn238 2.119 . S
N248 C250 1.334 . S
N248 C251 1.328 . S
C249 C250 1.391 . S
C249 N252 1.329 . S
C249 H270 0.930 . S
C250 N248 1.334 . S
C250 C249 1.391 . S
C250 H257 0.930 . S
C251 N248 1.328 . S
C251 C253 1.392 . S
C251 H258 0.930 . S
N252 C249 1.329 . S
N252 C253 1.331 . S
C253 C251 1.392 . S
C253 N252 1.331 . S
O254 Zn247 1.975 . S
O254 C255 1.252 . S
C255 O254 1.252 . S
C255 O256 1.252 . S
O256 Zn238 1.975 . S
O256 C255 1.252 . S
H257 C250 0.930 . S
H258 C251 0.930 . S
C259 C260 1.392 . S
C259 N263 1.328 . S
C259 H265 0.930 . S
C260 C259 1.392 . S
C260 N264 1.331 . S
C261 C262 1.391 . S
C261 N264 1.329 . S
C261 H271 0.930 . S
C262 C261 1.391 . S
C262 N263 1.334 . S
C262 H269 0.930 . S
N263 Zn247 2.119 . S
N263 C259 1.328 . S
N263 C262 1.334 . S
N264 C260 1.331 . S
N264 C261 1.329 . S
H265 C259 0.930 . S
C266 O246 1.257 . S
C266 O267 1.244 . S
O267 C266 1.244 . S
O268 C244 1.257 . S
O268 Zn247 2.019 . S
H269 C262 0.930 . S
H270 C249 0.930 . S
H271 C261 0.930 . S
Zn272 N276 2.020 . S
Zn272 O280 2.019 . S
Zn272 N282 2.119 . S
Zn272 O290 1.975 . S
C273 N274 1.334 . S
C273 N277 1.336 . S
N274 C273 1.334 . S
N274 C275 1.334 . S
C275 N274 1.334 . S
C275 N276 1.336 . S
N276 Zn272 2.020 . S
N276 C275 1.336 . S
N276 N277 1.354 . S
N277 C273 1.336 . S
N277 N276 1.354 . S
N277 Zn281 2.020 . S
C278 O279 1.244 . S
C278 O302 1.257 . S
O279 C278 1.244 . S
O280 Zn272 2.019 . S
O280 C300 1.257 . S
Zn281 N277 2.020 . S
Zn281 O288 1.975 . S
Zn281 N297 2.119 . S
Zn281 O302 2.019 . S
N282 Zn272 2.119 . S
N282 C284 1.334 . S
N282 C285 1.328 . S
C283 C284 1.391 . S
C283 N286 1.329 . S
C283 H304 0.930 . S
C284 N282 1.334 . S
C284 C283 1.391 . S
C284 H291 0.930 . S
C285 N282 1.328 . S
C285 C287 1.392 . S
C285 H292 0.930 . S
N286 C283 1.329 . S
N286 C287 1.331 . S
C287 C285 1.392 . S
C287 N286 1.331 . S
O288 Zn281 1.975 . S
O288 C289 1.252 . S
C289 O288 1.252 . S
C289 O290 1.252 . S
O290 Zn272 1.975 . S
O290 C289 1.252 . S
H291 C284 0.930 . S
H292 C285 0.930 . S
C293 C294 1.392 1_545 S
C293 N297 1.328 . S
C293 H299 0.930 . S
C294 C293 1.392 1_565 S
C294 N298 1.331 . S
C295 C296 1.391 . S
C295 N298 1.329 . S
C295 H305 0.930 . S
C296 C295 1.391 . S
C296 N297 1.334 1_565 S
C296 H303 0.930 . S
N297 Zn281 2.119 . S
N297 C293 1.328 . S
N297 C296 1.334 1_545 S
N298 C294 1.331 . S
N298 C295 1.329 . S
H299 C293 0.930 . S
C300 O280 1.257 . S
C300 O301 1.244 . S
O301 C300 1.244 . S
O302 C278 1.257 . S
O302 Zn281 2.019 . S
H303 C296 0.930 . S
H304 C283 0.930 . S
H305 C295 0.930 . S
Zn306 N310 2.020 1_554 S
Zn306 O314 2.019 . S
Zn306 N316 2.119 1_554 S
Zn306 O324 1.975 . S
C307 N308 1.334 . S
C307 N311 1.336 . S
N308 C307 1.334 . S
N308 C309 1.334 . S
C309 N308 1.334 . S
C309 N310 1.336 . S
N310 Zn306 2.020 1_556 S
N310 C309 1.336 . S
N310 N311 1.354 . S
N311 C307 1.336 . S
N311 N310 1.354 . S
N311 Zn315 2.020 1_556 S
C312 O313 1.244 . S
C312 O336 1.257 1_556 S
O313 C312 1.244 . S
O314 Zn306 2.019 . S
O314 C334 1.257 . S
Zn315 N311 2.020 1_554 S
Zn315 O322 1.975 . S
Zn315 N331 2.119 . S
Zn315 O336 2.019 . S
N316 Zn306 2.119 1_556 S
N316 C318 1.334 . S
N316 C319 1.328 . S
C317 C318 1.391 . S
C317 N320 1.329 . S
C317 H338 0.930 . S
C318 N316 1.334 . S
C318 C317 1.391 . S
C318 H325 0.930 . S
C319 N316 1.328 . S
C319 C321 1.392 . S
C319 H326 0.930 . S
N320 C317 1.329 . S
N320 C321 1.331 . S
C321 C319 1.392 . S
C321 N320 1.331 . S
O322 Zn315 1.975 . S
O322 C323 1.252 . S
C323 O322 1.252 . S
C323 O324 1.252 . S
O324 Zn306 1.975 . S
O324 C323 1.252 . S
H325 C318 0.930 . S
H326 C319 0.930 . S
C327 C328 1.392 . S
C327 N331 1.328 . S
C327 H333 0.930 . S
C328 C327 1.392 . S
C328 N332 1.331 . S
C329 C330 1.391 . S
C329 N332 1.329 . S
C329 H339 0.930 . S
C330 C329 1.391 . S
C330 N331 1.334 . S
C330 H337 0.930 . S
N331 Zn315 2.119 . S
N331 C327 1.328 . S
N331 C330 1.334 . S
N332 C328 1.331 . S
N332 C329 1.329 . S
H333 C327 0.930 . S
C334 O314 1.257 . S
C334 O335 1.244 . S
O335 C334 1.244 . S
O336 C312 1.257 1_554 S
O336 Zn315 2.019 . S
H337 C330 0.930 . S
H338 C317 0.930 . S
H339 C329 0.930 . S
Zn340 N344 2.020 1_554 S
Zn340 O348 2.019 . S
Zn340 N350 2.119 . S
Zn340 O358 1.975 . S
C341 N342 1.334 . S
C341 N345 1.336 . S
N342 C341 1.334 . S
N342 C343 1.334 . S
C343 N342 1.334 . S
C343 N344 1.336 . S
N344 Zn340 2.020 1_556 S
N344 C343 1.336 . S
N344 N345 1.354 . S
N345 C341 1.336 . S
N345 N344 1.354 . S
N345 Zn349 2.020 1_556 S
C346 O347 1.244 . S
C346 O370 1.257 . S
O347 C346 1.244 . S
O348 Zn340 2.019 . S
O348 C368 1.257 1_554 S
Zn349 N345 2.020 1_554 S
Zn349 O356 1.975 . S
Zn349 N365 2.119 1_554 S
Zn349 O370 2.019 . S
N350 Zn340 2.119 . S
N350 C352 1.334 . S
N350 C353 1.328 . S
C351 C352 1.391 . S
C351 N354 1.329 . S
C351 H372 0.930 . S
C352 N350 1.334 . S
C352 C351 1.391 . S
C352 H359 0.930 . S
C353 N350 1.328 . S
C353 C355 1.392 . S
C353 H360 0.930 . S
N354 C351 1.329 . S
N354 C355 1.331 . S
C355 C353 1.392 . S
C355 N354 1.331 . S
O356 Zn349 1.975 . S
O356 C357 1.252 . S
C357 O356 1.252 . S
C357 O358 1.252 . S
O358 Zn340 1.975 . S
O358 C357 1.252 . S
H359 C352 0.930 . S
H360 C353 0.930 . S
C361 C362 1.392 . S
C361 N365 1.328 . S
C361 H367 0.930 . S
C362 C361 1.392 . S
C362 N366 1.331 . S
C363 C364 1.391 . S
C363 N366 1.329 . S
C363 H373 0.930 . S
C364 C363 1.391 . S
C364 N365 1.334 . S
C364 H371 0.930 . S
N365 Zn349 2.119 1_556 S
N365 C361 1.328 . S
N365 C364 1.334 . S
N366 C362 1.331 . S
N366 C363 1.329 . S
H367 C361 0.930 . S
C368 O348 1.257 1_556 S
C368 O369 1.244 . S
O369 C368 1.244 . S
O370 C346 1.257 . S
O370 Zn349 2.019 . S
H371 C364 0.930 . S
H372 C351 0.930 . S
H373 C363 0.930 . S
Zn374 N378 2.020 1_554 S
Zn374 O382 2.019 . S
Zn374 N384 2.119 . S
Zn374 O392 1.975 . S
C375 N376 1.334 . S
C375 N379 1.336 . S
N376 C375 1.334 . S
N376 C377 1.334 . S
C377 N376 1.334 . S
C377 N378 1.336 . S
N378 Zn374 2.020 1_556 S
N378 C377 1.336 . S
N378 N379 1.354 . S
N379 C375 1.336 . S
N379 N378 1.354 . S
N379 Zn383 2.020 1_556 S
C380 O381 1.244 . S
C380 O404 1.257 . S
O381 C380 1.244 . S
O382 Zn374 2.019 . S
O382 C402 1.257 1_554 S
Zn383 N379 2.020 1_554 S
Zn383 O390 1.975 . S
Zn383 N399 2.119 1_554 S
Zn383 O404 2.019 . S
N384 Zn374 2.119 . S
N384 C386 1.334 . S
N384 C387 1.328 . S
C385 C386 1.391 . S
C385 N388 1.329 . S
C385 H406 0.930 . S
C386 N384 1.334 . S
C386 C385 1.391 . S
C386 H393 0.930 . S
C387 N384 1.328 . S
C387 C389 1.392 . S
C387 H394 0.930 . S
N388 C385 1.329 . S
N388 C389 1.331 . S
C389 C387 1.392 . S
C389 N388 1.331 . S
O390 Zn383 1.975 . S
O390 C391 1.252 . S
C391 O390 1.252 . S
C391 O392 1.252 . S
O392 Zn374 1.975 . S
O392 C391 1.252 . S
H393 C386 0.930 . S
H394 C387 0.930 . S
C395 C396 1.392 . S
C395 N399 1.328 . S
C395 H401 0.930 . S
C396 C395 1.392 . S
C396 N400 1.331 . S
C397 C398 1.391 . S
C397 N400 1.329 . S
C397 H407 0.930 . S
C398 C397 1.391 . S
C398 N399 1.334 . S
C398 H405 0.930 . S
N399 Zn383 2.119 1_556 S
N399 C395 1.328 . S
N399 C398 1.334 . S
N400 C396 1.331 . S
N400 C397 1.329 . S
H401 C395 0.930 . S
C402 O382 1.257 1_556 S
C402 O403 1.244 . S
O403 C402 1.244 . S
O404 C380 1.257 . S
O404 Zn383 2.019 . S
H405 C398 0.930 . S
H406 C385 0.930 . S
H407 C397 0.930 . S
Zn408 N412 2.020 1_556 S
Zn408 O416 2.019 . S
Zn408 N418 2.119 . S
Zn408 O426 1.975 . S
C409 N410 1.334 . S
C409 N413 1.336 . S
N410 C409 1.334 . S
N410 C411 1.334 . S
C411 N410 1.334 . S
C411 N412 1.336 . S
N412 Zn408 2.020 1_554 S
N412 C411 1.336 . S
N412 N413 1.354 . S
N413 C409 1.336 . S
N413 N412 1.354 . S
N413 Zn417 2.020 1_554 S
C414 O415 1.244 . S
C414 O438 1.257 . S
O415 C414 1.244 . S
O416 Zn408 2.019 . S
O416 C436 1.257 1_556 S
Zn417 N413 2.020 1_556 S
Zn417 O424 1.975 . S
Zn417 N433 2.119 1_556 S
Zn417 O438 2.019 . S
N418 Zn408 2.119 . S
N418 C420 1.334 . S
N418 C421 1.328 . S
C419 C420 1.391 . S
C419 N422 1.329 . S
C419 H440 0.930 . S
C420 N418 1.334 . S
C420 C419 1.391 . S
C420 H427 0.930 . S
C421 N418 1.328 . S
C421 C423 1.392 . S
C421 H428 0.930 . S
N422 C419 1.329 . S
N422 C423 1.331 . S
C423 C421 1.392 . S
C423 N422 1.331 . S
O424 Zn417 1.975 . S
O424 C425 1.252 . S
C425 O424 1.252 . S
C425 O426 1.252 . S
O426 Zn408 1.975 . S
O426 C425 1.252 . S
H427 C420 0.930 . S
H428 C421 0.930 . S
C429 C430 1.392 . S
C429 N433 1.328 . S
C429 H435 0.930 . S
C430 C429 1.392 . S
C430 N434 1.331 . S
C431 C432 1.391 . S
C431 N434 1.329 . S
C431 H441 0.930 . S
C432 C431 1.391 . S
C432 N433 1.334 . S
C432 H439 0.930 . S
N433 Zn417 2.119 1_554 S
N433 C429 1.328 . S
N433 C432 1.334 . S
N434 C430 1.331 . S
N434 C431 1.329 . S
H435 C429 0.930 . S
C436 O416 1.257 1_554 S
C436 O437 1.244 . S
O437 C436 1.244 . S
O438 C414 1.257 . S
O438 Zn417 2.019 . S
H439 C432 0.930 . S
H440 C419 0.930 . S
H441 C431 0.930 . S
Zn442 N446 2.020 1_556 S
Zn442 O450 2.019 . S
Zn442 N452 2.119 1_556 S
Zn442 O460 1.975 . S
C443 N444 1.334 . S
C443 N447 1.336 . S
N444 C443 1.334 . S
N444 C445 1.334 . S
C445 N444 1.334 . S
C445 N446 1.336 . S
N446 Zn442 2.020 1_554 S
N446 C445 1.336 . S
N446 N447 1.354 . S
N447 C443 1.336 . S
N447 N446 1.354 . S
N447 Zn451 2.020 1_554 S
C448 O449 1.244 . S
C448 O472 1.257 1_554 S
O449 C448 1.244 . S
O450 Zn442 2.019 . S
O450 C470 1.257 . S
Zn451 N447 2.020 1_556 S
Zn451 O458 1.975 . S
Zn451 N467 2.119 . S
Zn451 O472 2.019 . S
N452 Zn442 2.119 1_554 S
N452 C454 1.334 . S
N452 C455 1.328 . S
C453 C454 1.391 . S
C453 N456 1.329 . S
C453 H474 0.930 . S
C454 N452 1.334 . S
C454 C453 1.391 . S
C454 H461 0.930 . S
C455 N452 1.328 . S
C455 C457 1.392 . S
C455 H462 0.930 . S
N456 C453 1.329 . S
N456 C457 1.331 . S
C457 C455 1.392 . S
C457 N456 1.331 . S
O458 Zn451 1.975 . S
O458 C459 1.252 . S
C459 O458 1.252 . S
C459 O460 1.252 . S
O460 Zn442 1.975 . S
O460 C459 1.252 . S
H461 C454 0.930 . S
H462 C455 0.930 . S
C463 C464 1.392 . S
C463 N467 1.328 . S
C463 H469 0.930 . S
C464 C463 1.392 . S
C464 N468 1.331 . S
C465 C466 1.391 . S
C465 N468 1.329 . S
C465 H475 0.930 . S
C466 C465 1.391 . S
C466 N467 1.334 . S
C466 H473 0.930 . S
N467 Zn451 2.119 . S
N467 C463 1.328 . S
N467 C466 1.334 . S
N468 C464 1.331 . S
N468 C465 1.329 . S
H469 C463 0.930 . S
C470 O450 1.257 . S
C470 O471 1.244 . S
O471 C470 1.244 . S
O472 C448 1.257 1_556 S
O472 Zn451 2.019 . S
H473 C466 0.930 . S
H474 C453 0.930 . S
H475 C465 0.930 . S
Zn476 N480 2.020 1_556 S
Zn476 O484 2.019 . S
Zn476 N486 2.119 1_556 S
Zn476 O494 1.975 . S
C477 N478 1.334 . S
C477 N481 1.336 . S
N478 C477 1.334 . S
N478 C479 1.334 . S
C479 N478 1.334 . S
C479 N480 1.336 . S
N480 Zn476 2.020 1_554 S
N480 C479 1.336 . S
N480 N481 1.354 . S
N481 C477 1.336 . S
N481 N480 1.354 . S
N481 Zn485 2.020 1_554 S
C482 O483 1.244 . S
C482 O506 1.257 1_554 S
O483 C482 1.244 . S
O484 Zn476 2.019 . S
O484 C504 1.257 . S
Zn485 N481 2.020 1_556 S
Zn485 O492 1.975 . S
Zn485 N501 2.119 . S
Zn485 O506 2.019 . S
N486 Zn476 2.119 1_554 S
N486 C488 1.334 . S
N486 C489 1.328 . S
C487 C488 1.391 . S
C487 N490 1.329 . S
C487 H508 0.930 . S
C488 N486 1.334 . S
C488 C487 1.391 . S
C488 H495 0.930 . S
C489 N486 1.328 . S
C489 C491 1.392 . S
C489 H496 0.930 . S
N490 C487 1.329 . S
N490 C491 1.331 . S
C491 C489 1.392 . S
C491 N490 1.331 . S
O492 Zn485 1.975 . S
O492 C493 1.252 . S
C493 O492 1.252 . S
C493 O494 1.252 . S
O494 Zn476 1.975 . S
O494 C493 1.252 . S
H495 C488 0.930 . S
H496 C489 0.930 . S
C497 C498 1.392 . S
C497 N501 1.328 . S
C497 H503 0.930 . S
C498 C497 1.392 . S
C498 N502 1.331 . S
C499 C500 1.391 . S
C499 N502 1.329 . S
C499 H509 0.930 . S
C500 C499 1.391 . S
C500 N501 1.334 . S
C500 H507 0.930 . S
N501 Zn485 2.119 . S
N501 C497 1.328 . S
N501 C500 1.334 . S
N502 C498 1.331 . S
N502 C499 1.329 . S
H503 C497 0.930 . S
C504 O484 1.257 . S
C504 O505 1.244 . S
O505 C504 1.244 . S
O506 C482 1.257 1_556 S
O506 Zn485 2.019 . S
H507 C500 0.930 . S
H508 C487 0.930 . S
H509 C499 0.930 . S
Zn510 N514 2.020 . S
Zn510 O518 2.019 . S
Zn510 N520 2.119 . S
Zn510 O528 1.975 . S
C511 N512 1.334 . S
C511 N515 1.336 . S
N512 C511 1.334 . S
N512 C513 1.334 . S
C513 N512 1.334 . S
C513 N514 1.336 . S
N514 Zn510 2.020 . S
N514 C513 1.336 . S
N514 N515 1.354 . S
N515 C511 1.336 . S
N515 N514 1.354 . S
N515 Zn519 2.020 . S
C516 O517 1.244 . S
C516 O540 1.257 . S
O517 C516 1.244 . S
O518 Zn510 2.019 . S
O518 C538 1.257 . S
Zn519 N515 2.020 . S
Zn519 O526 1.975 . S
Zn519 N535 2.119 . S
Zn519 O540 2.019 . S
N520 Zn510 2.119 . S
N520 C522 1.334 1_565 S
N520 C523 1.328 . S
C521 C522 1.391 . S
C521 N524 1.329 . S
C521 H542 0.930 . S
C522 N520 1.334 1_545 S
C522 C521 1.391 . S
C522 H529 0.930 . S
C523 N520 1.328 . S
C523 C525 1.392 1_565 S
C523 H530 0.930 . S
N524 C521 1.329 . S
N524 C525 1.331 . S
C525 C523 1.392 1_545 S
C525 N524 1.331 . S
O526 Zn519 1.975 . S
O526 C527 1.252 . S
C527 O526 1.252 . S
C527 O528 1.252 . S
O528 Zn510 1.975 . S
O528 C527 1.252 . S
H529 C522 0.930 . S
H530 C523 0.930 . S
C531 C532 1.392 . S
C531 N535 1.328 . S
C531 H537 0.930 . S
C532 C531 1.392 . S
C532 N536 1.331 . S
C533 C534 1.391 . S
C533 N536 1.329 . S
C533 H543 0.930 . S
C534 C533 1.391 . S
C534 N535 1.334 . S
C534 H541 0.930 . S
N535 Zn519 2.119 . S
N535 C531 1.328 . S
N535 C534 1.334 . S
N536 C532 1.331 . S
N536 C533 1.329 . S
H537 C531 0.930 . S
C538 O518 1.257 . S
C538 O539 1.244 . S
O539 C538 1.244 . S
O540 C516 1.257 . S
O540 Zn519 2.019 . S
H541 C534 0.930 . S
H542 C521 0.930 . S
H543 C533 0.930 . S
Zn544 N548 2.020 . S
Zn544 O552 2.019 . S
Zn544 N554 2.119 . S
Zn544 O562 1.975 . S
C545 N546 1.334 . S
C545 N549 1.336 . S
N546 C545 1.334 . S
N546 C547 1.334 . S
C547 N546 1.334 . S
C547 N548 1.336 . S
N548 Zn544 2.020 . S
N548 C547 1.336 . S
N548 N549 1.354 . S
N549 C545 1.336 . S
N549 N548 1.354 . S
N549 Zn553 2.020 . S
C550 O551 1.244 . S
C550 O574 1.257 . S
O551 C550 1.244 . S
O552 Zn544 2.019 . S
O552 C572 1.257 . S
Zn553 N549 2.020 . S
Zn553 O560 1.975 . S
Zn553 N569 2.119 . S
Zn553 O574 2.019 . S
N554 Zn544 2.119 . S
N554 C556 1.334 . S
N554 C557 1.328 . S
C555 C556 1.391 . S
C555 N558 1.329 . S
C555 H576 0.930 . S
C556 N554 1.334 . S
C556 C555 1.391 . S
C556 H563 0.930 . S
C557 N554 1.328 . S
C557 C559 1.392 . S
C557 H564 0.930 . S
N558 C555 1.329 . S
N558 C559 1.331 . S
C559 C557 1.392 . S
C559 N558 1.331 . S
O560 Zn553 1.975 . S
O560 C561 1.252 . S
C561 O560 1.252 . S
C561 O562 1.252 . S
O562 Zn544 1.975 . S
O562 C561 1.252 . S
H563 C556 0.930 . S
H564 C557 0.930 . S
C565 C566 1.392 1_455 S
C565 N569 1.328 . S
C565 H571 0.930 . S
C566 C565 1.392 1_655 S
C566 N570 1.331 . S
C567 C568 1.391 . S
C567 N570 1.329 . S
C567 H577 0.930 . S
C568 C567 1.391 . S
C568 N569 1.334 1_655 S
C568 H575 0.930 . S
N569 Zn553 2.119 . S
N569 C565 1.328 . S
N569 C568 1.334 1_455 S
N570 C566 1.331 . S
N570 C567 1.329 . S
H571 C565 0.930 . S
C572 O552 1.257 . S
C572 O573 1.244 . S
O573 C572 1.244 . S
O574 C550 1.257 . S
O574 Zn553 2.019 . S
H575 C568 0.930 . S
H576 C555 0.930 . S
H577 C567 0.930 . S
Zn578 N582 2.020 . S
Zn578 O586 2.019 . S
Zn578 N588 2.119 . S
Zn578 O596 1.975 . S
C579 N580 1.334 . S
C579 N583 1.336 . S
N580 C579 1.334 . S
N580 C581 1.334 . S
C581 N580 1.334 . S
C581 N582 1.336 . S
N582 Zn578 2.020 . S
N582 C581 1.336 . S
N582 N583 1.354 . S
N583 C579 1.336 . S
N583 N582 1.354 . S
N583 Zn587 2.020 . S
C584 O585 1.244 . S
C584 O608 1.257 . S
O585 C584 1.244 . S
O586 Zn578 2.019 . S
O586 C606 1.257 . S
Zn587 N583 2.020 . S
Zn587 O594 1.975 . S
Zn587 N603 2.119 . S
Zn587 O608 2.019 . S
N588 Zn578 2.119 . S
N588 C590 1.334 . S
N588 C591 1.328 . S
C589 C590 1.391 . S
C589 N592 1.329 . S
C589 H610 0.930 . S
C590 N588 1.334 . S
C590 C589 1.391 . S
C590 H597 0.930 . S
C591 N588 1.328 . S
C591 C593 1.392 . S
C591 H598 0.930 . S
N592 C589 1.329 . S
N592 C593 1.331 . S
C593 C591 1.392 . S
C593 N592 1.331 . S
O594 Zn587 1.975 . S
O594 C595 1.252 . S
C595 O594 1.252 . S
C595 O596 1.252 . S
O596 Zn578 1.975 . S
O596 C595 1.252 . S
H597 C590 0.930 . S
H598 C591 0.930 . S
C599 C600 1.392 . S
C599 N603 1.328 . S
C599 H605 0.930 . S
C600 C599 1.392 . S
C600 N604 1.331 . S
C601 C602 1.391 . S
C601 N604 1.329 . S
C601 H611 0.930 . S
C602 C601 1.391 . S
C602 N603 1.334 . S
C602 H609 0.930 . S
N603 Zn587 2.119 . S
N603 C599 1.328 . S
N603 C602 1.334 . S
N604 C600 1.331 . S
N604 C601 1.329 . S
H605 C599 0.930 . S
C606 O586 1.257 . S
C606 O607 1.244 . S
O607 C606 1.244 . S
O608 C584 1.257 . S
O608 Zn587 2.019 . S
H609 C602 0.930 . S
H610 C589 0.930 . S
H611 C601 0.930 . S
C17 C357 3.117 . S
C51 C391 3.117 . S
C85 C323 3.117 . S
C119 C493 3.117 . S
C153 C425 3.117 . S
C459 C187 3.117 . S
C561 C221 3.171 1_455 S
C255 C595 3.170 . S
C289 C527 3.171 1_545 S
C1 C173 3.478 1_545 S
C103 C37 3.478 1_455 S
C139 C69 3.478 . S
C35 C137 2.365 1_545 S
C171 C71 2.365 1_455 S
C105 C3 2.365 . S
C375 C205 3.464 . S
C309 C241 3.464 . S
C341 C273 3.464 . S
C239 C343 2.350 . S
C275 C377 2.350 . S
C307 C207 2.349 . S
C581 C409 3.464 . S
C445 C513 3.464 . S
C479 C545 3.464 . S
C547 C443 2.350 . S
C579 C477 2.350 . S
C511 C411 2.349 . S
C15 C62 2.020 . S
C74 C56 2.020 . S
C83 C6 2.019 . S
C117 C198 2.020 . S
C158 C108 2.019 . S
C192 C164 2.020 . S
C266 C219 2.093 . S
C260 C278 2.092 . S
C210 C287 2.093 . S
C328 C380 1.939 . S
C334 C355 1.939 . S
C389 C346 1.939 . S
C470 C423 1.939 . S
C504 C464 1.939 . S
C414 C498 1.939 . S
C606 C532 2.093 . S
C538 C559 2.093 . S
C600 C550 2.092 . S
C22 C525 0.385 . S
C566 C49 0.385 . S
C593 C90 0.385 . S
C124 C226 0.385 . S
C253 C151 0.385 . S
C294 C185 0.385 . S
C142 C300 1.214 1_565 S
C232 C176 1.214 1_655 S
C130 C244 1.214 . S
C572 C96 1.214 1_455 S
C28 C584 1.214 . S
C516 C40 1.214 1_565 S
C430 C321 0.988 1_554 S
C457 C362 0.989 1_564 S
C396 C491 0.989 1_656 S
C368 C482 1.334 1_556 S
C436 C402 1.335 1_564 S
C312 C448 1.335 1_656 S
