# Generated by pormake.
# Topology zga, (5)-cn, num edge types: 1
# Building blocks:
#     Node 0, Type 0, BuildingBlock: XOMCOT_clean_sbu_0, # of connection points: 5
#     Node 1, Type 0, BuildingBlock: XOMCOT_clean_sbu_0, # of connection points: 5
#     Node 2, Type 0, BuildingBlock: XOMCOT_clean_sbu_0, # of connection points: 5
#     Node 3, Type 0, BuildingBlock: XOMCOT_clean_sbu_0, # of connection points: 5
#     Node 4, Type 0, BuildingBlock: XOMCOT_clean_sbu_0, # of connection points: 5
#     Node 5, Type 0, BuildingBlock: XOMCOT_clean_sbu_0, # of connection points: 5
#     Node 6, Type 0, BuildingBlock: XOMCOT_clean_sbu_0, # of connection points: 5
#     Node 7, Type 0, BuildingBlock: XOMCOT_clean_sbu_0, # of connection points: 5
#     Node 8, Type 0, BuildingBlock: XOMCOT_clean_sbu_0, # of connection points: 5
#     Node 9, Type 0, BuildingBlock: XOMCOT_clean_sbu_0, # of connection points: 5
#     Node 10, Type 0, BuildingBlock: XOMCOT_clean_sbu_0, # of connection points: 5
#     Node 11, Type 0, BuildingBlock: XOMCOT_clean_sbu_0, # of connection points: 5
#     Node 12, Type 0, BuildingBlock: XOMCOT_clean_sbu_0, # of connection points: 5
#     Node 13, Type 0, BuildingBlock: XOMCOT_clean_sbu_0, # of connection points: 5
#     Node 14, Type 0, BuildingBlock: XOMCOT_clean_sbu_0, # of connection points: 5
#     Node 15, Type 0, BuildingBlock: XOMCOT_clean_sbu_0, # of connection points: 5
#     Edge 16, Type (0, 0), None
#     Edge 17, Type (0, 0), None
#     Edge 18, Type (0, 0), None
#     Edge 19, Type (0, 0), None
#     Edge 20, Type (0, 0), None
#     Edge 21, Type (0, 0), None
#     Edge 22, Type (0, 0), None
#     Edge 23, Type (0, 0), None
#     Edge 24, Type (0, 0), None
#     Edge 25, Type (0, 0), None
#     Edge 26, Type (0, 0), None
#     Edge 27, Type (0, 0), None
#     Edge 28, Type (0, 0), None
#     Edge 29, Type (0, 0), None
#     Edge 30, Type (0, 0), None
#     Edge 31, Type (0, 0), None
#     Edge 32, Type (0, 0), None
#     Edge 33, Type (0, 0), None
#     Edge 34, Type (0, 0), None
#     Edge 35, Type (0, 0), None
#     Edge 36, Type (0, 0), None
#     Edge 37, Type (0, 0), None
#     Edge 38, Type (0, 0), None
#     Edge 39, Type (0, 0), None
#     Edge 40, Type (0, 0), None
#     Edge 41, Type (0, 0), None
#     Edge 42, Type (0, 0), None
#     Edge 43, Type (0, 0), None
#     Edge 44, Type (0, 0), None
#     Edge 45, Type (0, 0), None
#     Edge 46, Type (0, 0), None
#     Edge 47, Type (0, 0), None
#     Edge 48, Type (0, 0), None
#     Edge 49, Type (0, 0), None
#     Edge 50, Type (0, 0), None
#     Edge 51, Type (0, 0), None
#     Edge 52, Type (0, 0), None
#     Edge 53, Type (0, 0), None
#     Edge 54, Type (0, 0), None
#     Edge 55, Type (0, 0), None
# Relax obj value: 0.039
# Max RMSD: 0.086
# Mean RMSD: 0.086
data_MOF--net-zga--node1-XOMCOT_clean_sbu_0--edge1-none
_symmetry_space_group_name_H-M    P1
_symmetry_Int_Tables_number       1
_symmetry_cell_setting            triclinic
loop_
_symmetry_equiv_pos_as_xyz
'x, y, z'
_cell_length_a     22.822134
_cell_length_b     53.251812
_cell_length_c     9.4073747
_cell_angle_alpha  91.555378
_cell_angle_beta   90.004736
_cell_angle_gamma 89.996594
loop_
_atom_site_label
_atom_site_type_symbol
_atom_site_fract_x
_atom_site_fract_y
_atom_site_fract_z
_atom_type_partial_charge
Co0 Co 0.12891 0.55117 0.09392 0.0
C1 C 0.11851 0.55673 0.78653 0.0
C2 C 0.18003 0.52764 0.83342 0.0
C3 C 0.17026 0.52728 0.68808 0.0
N4 N 0.14768 0.54624 0.89455 0.0
N5 N 0.13112 0.54547 0.66079 0.0
H6 H 0.08591 0.57126 0.79972 0.0
H7 H 0.20659 0.51447 0.89064 0.0
C8 C 0.23984 0.53631 0.26118 0.0
O9 O 0.23148 0.55332 0.36277 0.0
N10 N 0.1078 0.55602 0.29211 0.0
C11 C 0.08672 0.57743 0.35267 0.0
C12 C 0.08798 0.57538 0.49787 0.0
C13 C 0.11815 0.5406 0.40098 0.0
N14 N 0.10909 0.55248 0.5275 0.0
C15 C 0.11757 0.6032 0.0358 0.0
C16 C 0.21913 0.62114 0.16105 0.0
C17 C 0.17569 0.63832 0.12204 0.0
C18 C 0.12618 0.62894 0.05144 0.0
C19 C 0.20918 0.59507 0.14035 0.0
N20 N 0.15685 0.58629 0.08723 0.0
H21 H 0.0766 0.59723 0.99018 0.0
H22 H 0.24319 0.58237 0.17035 0.0
H23 H 0.0746 0.59403 0.29636 0.0
H24 H 0.13719 0.52207 0.38825 0.0
O25 O 0.04755 0.55688 0.04228 0.0
O26 O 0.08562 0.51969 0.0842 0.0
O27 O 0.20838 0.53595 0.14749 0.0
C28 C 0.04074 0.53277 0.04382 0.0
H29 H 0.18965 0.51453 0.60985 0.0
H30 H 0.07868 0.59028 0.57502 0.0
H31 H 0.25891 0.62766 0.21284 0.0
H32 H 0.0921 0.6415 1.016 0.0
Co33 Co 0.12893 0.75254 0.19569 0.0
C34 C 0.11853 0.74698 0.50308 0.0
C35 C 0.18005 0.77607 0.45621 0.0
C36 C 0.17028 0.77643 0.60155 0.0
N37 N 0.1477 0.75747 0.39507 0.0
N38 N 0.13114 0.75825 0.62883 0.0
H39 H 0.08594 0.73245 0.48987 0.0
H40 H 0.20661 0.78924 0.399 0.0
C41 C 0.23986 0.76741 0.02845 0.0
O42 O 0.2315 0.75039 0.92686 0.0
N43 N 0.10781 0.74769 0.99749 0.0
C44 C 0.08672 0.72629 0.93692 0.0
C45 C 0.08799 0.72834 0.79173 0.0
C46 C 0.11816 0.76312 0.88863 0.0
N47 N 0.1091 0.75123 0.7621 0.0
C48 C 0.11759 0.70052 0.25378 0.0
C49 C 0.21914 0.68257 0.12849 0.0
C50 C 0.17569 0.66539 0.16747 0.0
C51 C 0.1262 0.67478 0.23811 0.0
C52 C 0.2092 0.70864 0.14922 0.0
N53 N 0.15687 0.71742 0.20236 0.0
H54 H 0.07663 0.70649 0.29943 0.0
H55 H 0.2432 0.72134 0.11924 0.0
H56 H 0.0746 0.70969 0.99323 0.0
H57 H 0.13721 0.78165 0.90136 0.0
O58 O 0.04757 0.74683 0.24732 0.0
O59 O 0.08563 0.78403 0.20543 0.0
O60 O 0.20839 0.76776 0.14213 0.0
C61 C 0.04075 0.77094 0.24581 0.0
H62 H 0.18966 0.78918 0.67978 0.0
H63 H 0.07868 0.71344 0.71457 0.0
H64 H 0.25891 0.67605 0.0767 0.0
H65 H 0.09212 0.66222 0.27355 0.0
Co66 Co 0.89763 0.50254 0.94574 0.0
C67 C 0.90803 0.49698 0.25313 0.0
C68 C 0.84651 0.52607 0.20624 0.0
C69 C 0.85628 0.52644 0.35158 0.0
N70 N 0.87886 0.50747 0.14511 0.0
N71 N 0.89542 0.50825 0.37887 0.0
H72 H 0.94062 0.48245 0.23993 0.0
H73 H 0.81996 0.53924 0.14901 0.0
C74 C 0.7867 0.51741 0.77847 0.0
O75 O 0.79506 0.50039 0.67689 0.0
N76 N 0.91874 0.49769 0.74755 0.0
C77 C 0.93983 0.47629 0.68698 0.0
C78 C 0.93856 0.47834 0.54179 0.0
C79 C 0.90839 0.51312 0.63868 0.0
N80 N 0.91745 0.50123 0.51215 0.0
C81 C 0.90897 0.45052 1.00385 0.0
C82 C 0.80741 0.43257 0.8786 0.0
C83 C 0.85085 0.41539 0.91761 0.0
C84 C 0.90036 0.42478 0.98821 0.0
C85 C 0.81736 0.45864 0.8993 0.0
N86 N 0.86969 0.46742 0.95242 0.0
H87 H 0.94994 0.45649 0.04947 0.0
H88 H 0.78336 0.47134 0.86931 0.0
H89 H 0.95195 0.45968 0.7433 0.0
H90 H 0.88935 0.53164 0.6514 0.0
O91 O 0.97899 0.49683 0.99738 0.0
O92 O 0.94092 0.53403 0.95546 0.0
O93 O 0.81816 0.51776 0.89216 0.0
C94 C 0.9858 0.52094 0.99586 0.0
H95 H 0.8369 0.53918 0.42981 0.0
H96 H 0.94787 0.46343 0.46464 0.0
H97 H 0.76764 0.42606 0.82682 0.0
H98 H 0.93444 0.41221 0.02365 0.0
Co99 Co 0.89761 0.30117 0.84396 0.0
C100 C 0.90801 0.30673 0.53657 0.0
C101 C 0.84649 0.27765 0.58344 0.0
C102 C 0.85626 0.27728 0.4381 0.0
N103 N 0.87884 0.29624 0.64458 0.0
N104 N 0.8954 0.29547 0.41082 0.0
H105 H 0.9406 0.32126 0.54978 0.0
H106 H 0.81993 0.26448 0.64065 0.0
C107 C 0.78668 0.28631 1.0112 0.0
O108 O 0.79505 0.30332 0.11279 0.0
N109 N 0.91873 0.30602 0.04216 0.0
C110 C 0.93982 0.32742 0.10273 0.0
C111 C 0.93855 0.32537 0.24792 0.0
C112 C 0.90838 0.29059 0.15102 0.0
N113 N 0.91744 0.30248 0.27755 0.0
C114 C 0.90895 0.35319 0.78587 0.0
C115 C 0.80741 0.37115 0.91116 0.0
C116 C 0.85085 0.38832 0.87218 0.0
C117 C 0.90034 0.37894 0.80154 0.0
C118 C 0.81735 0.34507 0.89043 0.0
N119 N 0.86967 0.33629 0.83729 0.0
H120 H 0.94991 0.34722 0.74022 0.0
H121 H 0.78334 0.33237 0.92041 0.0
H122 H 0.95195 0.34403 0.04642 0.0
H123 H 0.88933 0.27207 0.13829 0.0
O124 O 0.97898 0.30688 0.79233 0.0
O125 O 0.94091 0.26968 0.83422 0.0
O126 O 0.81815 0.28595 0.89752 0.0
C127 C 0.98579 0.28277 0.79384 0.0
H128 H 0.83688 0.26453 0.35987 0.0
H129 H 0.94786 0.34027 0.32508 0.0
H130 H 0.76764 0.37766 0.96295 0.0
H131 H 0.93442 0.3915 0.76609 0.0
Co132 Co 0.12891 0.05117 0.59392 0.0
C133 C 0.1185 0.05673 0.28653 0.0
C134 C 0.18003 0.02765 0.33342 0.0
C135 C 0.17027 0.02728 0.18808 0.0
N136 N 0.14768 0.04624 0.39455 0.0
N137 N 0.13111 0.04547 0.16079 0.0
H138 H 0.08591 0.07126 0.29973 0.0
H139 H 0.20659 1.01448 0.39065 0.0
C140 C 0.23984 0.03631 0.76118 0.0
O141 O 0.23148 0.05332 0.86278 0.0
N142 N 0.1078 0.05602 0.79212 0.0
C143 C 0.08671 0.07742 0.85268 0.0
C144 C 0.08798 0.07538 0.99787 0.0
C145 C 0.11815 0.0406 0.90098 0.0
N146 N 0.10908 0.05248 0.02751 0.0
C147 C 0.11757 0.1032 0.5358 0.0
C148 C 0.21912 0.12115 0.66108 0.0
C149 C 0.17568 0.13832 0.62206 0.0
C150 C 0.12618 0.12894 0.55144 0.0
C151 C 0.20918 0.09507 0.64038 0.0
N152 N 0.15685 0.08629 0.58724 0.0
H153 H 0.0766 0.09723 0.49017 0.0
H154 H 0.24318 0.08237 0.67039 0.0
H155 H 0.07459 0.09403 0.79637 0.0
H156 H 0.13719 1.02207 0.88826 0.0
O157 O 0.04755 0.05688 0.54229 0.0
O158 O 0.08562 1.01969 0.5842 0.0
O159 O 0.20838 0.03595 0.64749 0.0
C160 C 0.04074 0.03277 0.54382 0.0
H161 H 0.18965 1.01453 0.10985 0.0
H162 H 0.07867 0.09028 0.07503 0.0
H163 H 0.25889 0.12766 0.71288 0.0
H164 H 0.0921 0.1415 0.51599 0.0
Co165 Co 0.1289 0.25254 0.69572 0.0
C166 C 0.11851 0.24698 1.0031 0.0
C167 C 0.18002 0.27607 0.95623 0.0
C168 C 0.17025 0.27644 0.10157 0.0
N169 N 0.14768 0.25747 0.89509 0.0
N170 N 0.13111 0.25825 0.12885 0.0
H171 H 0.08592 0.23245 0.98989 0.0
H172 H 0.20657 0.28924 0.89902 0.0
C173 C 0.23983 0.26741 0.52847 0.0
O174 O 0.23147 0.25039 0.42688 0.0
N175 N 0.10778 0.24769 0.49751 0.0
C176 C 0.08669 0.2263 0.43694 0.0
C177 C 0.08796 0.22834 0.29175 0.0
C178 C 0.11813 0.26312 0.38865 0.0
N179 N 0.10907 0.25123 0.26212 0.0
C180 C 0.11757 0.20052 0.75379 0.0
C181 C 0.21912 0.18257 0.62852 0.0
C182 C 0.17567 0.16539 0.66749 0.0
C183 C 0.12618 0.17478 0.73812 0.0
C184 C 0.20917 0.20864 0.64925 0.0
N185 N 0.15684 0.21742 0.70238 0.0
H186 H 0.0766 0.20649 0.79943 0.0
H187 H 0.24318 0.22134 0.61928 0.0
H188 H 0.07456 0.20969 0.49326 0.0
H189 H 0.13719 0.28165 0.40138 0.0
O190 O 0.04754 0.24683 0.74734 0.0
O191 O 0.0856 0.28403 0.70546 0.0
O192 O 0.20836 0.26777 0.64215 0.0
C193 C 0.04073 0.27094 0.74585 0.0
H194 H 0.18962 0.28919 0.1798 0.0
H195 H 0.07865 0.21344 0.2146 0.0
H196 H 0.25889 0.17605 0.57674 0.0
H197 H 0.0921 0.16222 0.77355 0.0
Co198 Co 0.89763 1.00254 0.44574 0.0
C199 C 0.90804 0.99698 0.75312 0.0
C200 C 0.84651 1.02607 0.70623 0.0
C201 C 0.85628 1.02643 0.85158 0.0
N202 N 0.87886 1.00747 0.64511 0.0
N203 N 0.89542 1.00825 0.87887 0.0
H204 H 0.94063 0.98245 0.73993 0.0
H205 H 0.81995 0.03924 0.64901 0.0
C206 C 0.7867 1.01741 0.27847 0.0
O207 O 0.79506 1.00039 0.17688 0.0
N208 N 0.91874 0.99769 0.24754 0.0
C209 C 0.93983 0.97629 0.18698 0.0
C210 C 0.93856 0.97834 0.04179 0.0
C211 C 0.90839 1.01312 0.13868 0.0
N212 N 0.91746 1.00123 1.01215 0.0
C213 C 0.90897 0.95052 0.50385 0.0
C214 C 0.80742 0.93257 0.37857 0.0
C215 C 0.85087 0.91539 0.41759 0.0
C216 C 0.90036 0.92478 0.48821 0.0
C217 C 0.81737 0.95864 0.39927 0.0
N218 N 0.86969 0.96742 0.45242 0.0
H219 H 0.94994 0.95649 0.54948 0.0
H220 H 0.78336 0.97134 0.36927 0.0
H221 H 0.95195 0.95968 0.24329 0.0
H222 H 0.88935 0.03164 0.1514 0.0
O223 O 0.979 0.99683 0.49737 0.0
O224 O 0.94092 0.03403 0.45546 0.0
O225 O 0.81817 1.01776 0.39216 0.0
C226 C 0.9858 1.02094 0.49585 0.0
H227 H 0.83689 0.03918 0.9298 0.0
H228 H 0.94787 0.96343 0.96463 0.0
H229 H 0.76765 0.92605 0.32677 0.0
H230 H 0.93444 0.91221 0.52366 0.0
Co231 Co 0.89764 0.80117 0.34393 0.0
C232 C 0.90803 0.80673 0.03655 0.0
C233 C 0.84652 0.77765 0.08342 0.0
C234 C 0.85629 0.77728 0.93808 0.0
N235 N 0.87886 0.79624 0.14456 0.0
N236 N 0.89543 0.79547 0.9108 0.0
H237 H 0.94062 0.82126 0.04976 0.0
H238 H 0.81997 0.76447 0.14063 0.0
C239 C 0.78671 0.78631 0.51118 0.0
O240 O 0.79507 0.80332 0.61277 0.0
N241 N 0.91876 0.80602 0.54213 0.0
C242 C 0.93985 0.82742 0.6027 0.0
C243 C 0.93858 0.82537 0.7479 0.0
C244 C 0.90841 0.79059 0.651 0.0
N245 N 0.91747 0.80248 0.77753 0.0
C246 C 0.90897 0.85319 0.28586 0.0
C247 C 0.80742 0.87115 0.41113 0.0
C248 C 0.85087 0.88832 0.37216 0.0
C249 C 0.90036 0.87894 0.30153 0.0
C250 C 0.81737 0.84507 0.3904 0.0
N251 N 0.8697 0.83629 0.33727 0.0
H252 H 0.94994 0.84723 0.24022 0.0
H253 H 0.78337 0.83237 0.42037 0.0
H254 H 0.95198 0.84402 0.54639 0.0
H255 H 0.88936 0.77207 0.63827 0.0
O256 O 0.979 0.80688 0.29231 0.0
O257 O 0.94094 0.76968 0.33419 0.0
O258 O 0.81818 0.78595 0.3975 0.0
C259 C 0.98581 0.78277 0.2938 0.0
H260 H 0.83692 0.76453 0.85985 0.0
H261 H 0.94789 0.84027 0.82505 0.0
H262 H 0.76765 0.87766 0.46291 0.0
H263 H 0.93444 0.8915 0.2661 0.0
Co264 Co 0.62891 0.55117 0.59392 0.0
C265 C 0.61851 0.55673 0.28653 0.0
C266 C 0.68003 0.52764 0.33342 0.0
C267 C 0.67026 0.52728 0.18808 0.0
N268 N 0.64768 0.54624 0.39455 0.0
N269 N 0.63112 0.54547 0.16079 0.0
H270 H 0.58591 0.57126 0.29972 0.0
H271 H 0.70659 0.51447 0.39064 0.0
C272 C 0.73984 0.53631 0.76118 0.0
O273 O 0.73148 0.55332 0.86277 0.0
N274 N 0.6078 0.55602 0.79211 0.0
C275 C 0.58672 0.57743 0.85267 0.0
C276 C 0.58798 0.57538 0.99787 0.0
C277 C 0.61815 0.5406 0.90098 0.0
N278 N 0.60909 0.55248 0.0275 0.0
C279 C 0.61757 0.6032 0.5358 0.0
C280 C 0.71913 0.62114 0.66105 0.0
C281 C 0.67569 0.63832 0.62205 0.0
C282 C 0.62618 0.62894 0.55144 0.0
C283 C 0.70918 0.59507 0.64035 0.0
N284 N 0.65685 0.58629 0.58723 0.0
H285 H 0.5766 0.59723 0.49018 0.0
H286 H 0.74319 0.58237 0.67035 0.0
H287 H 0.5746 0.59403 0.79636 0.0
H288 H 0.63719 0.52207 0.88825 0.0
O289 O 0.54755 0.55688 0.54228 0.0
O290 O 0.58562 0.51969 0.5842 0.0
O291 O 0.70838 0.53595 0.64749 0.0
C292 C 0.54074 0.53277 0.54382 0.0
H293 H 0.68965 0.51453 0.10985 0.0
H294 H 0.57868 0.59028 0.07502 0.0
H295 H 0.75891 0.62766 0.71284 0.0
H296 H 0.5921 0.6415 0.516 0.0
Co297 Co 0.62893 0.75254 0.69569 0.0
C298 C 0.61853 0.74698 1.00308 0.0
C299 C 0.68005 0.77607 0.95621 0.0
C300 C 0.67028 0.77643 0.10155 0.0
N301 N 0.6477 0.75747 0.89507 0.0
N302 N 0.63114 0.75825 0.12883 0.0
H303 H 0.58594 0.73245 0.98987 0.0
H304 H 0.70661 0.78924 0.899 0.0
C305 C 0.73986 0.76741 0.52845 0.0
O306 O 0.7315 0.75039 0.42686 0.0
N307 N 0.60781 0.74769 0.49749 0.0
C308 C 0.58672 0.72629 0.43692 0.0
C309 C 0.58799 0.72834 0.29173 0.0
C310 C 0.61816 0.76312 0.38863 0.0
N311 N 0.6091 0.75123 0.2621 0.0
C312 C 0.61759 0.70052 0.75378 0.0
C313 C 0.71914 0.68257 0.62849 0.0
C314 C 0.67569 0.66539 0.66747 0.0
C315 C 0.6262 0.67478 0.73811 0.0
C316 C 0.7092 0.70864 0.64922 0.0
N317 N 0.65687 0.71742 0.70236 0.0
H318 H 0.57663 0.70649 0.79943 0.0
H319 H 0.7432 0.72134 0.61924 0.0
H320 H 0.5746 0.70969 0.49323 0.0
H321 H 0.63721 0.78165 0.40136 0.0
O322 O 0.54757 0.74683 0.74732 0.0
O323 O 0.58563 0.78403 0.70543 0.0
O324 O 0.70839 0.76776 0.64213 0.0
C325 C 0.54075 0.77094 0.74581 0.0
H326 H 0.68966 0.78918 0.17978 0.0
H327 H 0.57868 0.71344 0.21457 0.0
H328 H 0.75891 0.67605 0.5767 0.0
H329 H 0.59212 0.66222 0.77355 0.0
Co330 Co 0.39763 0.50254 0.44574 0.0
C331 C 0.40803 0.49698 0.75313 0.0
C332 C 0.34651 0.52607 0.70624 0.0
C333 C 0.35628 0.52644 0.85158 0.0
N334 N 0.37886 0.50747 0.64511 0.0
N335 N 0.39542 0.50825 0.87887 0.0
H336 H 0.44062 0.48245 0.73993 0.0
H337 H 0.31996 0.53924 0.64901 0.0
C338 C 0.2867 0.51741 0.27847 0.0
O339 O 0.29506 0.50039 0.17689 0.0
N340 N 0.41874 0.49769 0.24755 0.0
C341 C 0.43983 0.47629 0.18698 0.0
C342 C 0.43856 0.47834 0.04179 0.0
C343 C 0.40839 0.51312 0.13868 0.0
N344 N 0.41745 0.50123 1.01215 0.0
C345 C 0.40897 0.45052 0.50385 0.0
C346 C 0.30741 0.43257 0.3786 0.0
C347 C 0.35085 0.41539 0.41761 0.0
C348 C 0.40036 0.42478 0.48821 0.0
C349 C 0.31736 0.45864 0.3993 0.0
N350 N 0.36969 0.46742 0.45242 0.0
H351 H 0.44994 0.45649 0.54947 0.0
H352 H 0.28336 0.47134 0.36931 0.0
H353 H 0.45195 0.45968 0.2433 0.0
H354 H 0.38935 0.53164 0.1514 0.0
O355 O 0.47899 0.49683 0.49738 0.0
O356 O 0.44092 0.53403 0.45546 0.0
O357 O 0.31816 0.51776 0.39216 0.0
C358 C 0.4858 0.52094 0.49586 0.0
H359 H 0.3369 0.53918 0.92981 0.0
H360 H 0.44787 0.46343 0.96464 0.0
H361 H 0.26764 0.42606 0.32682 0.0
H362 H 0.43444 0.41221 0.52365 0.0
Co363 Co 0.39761 0.30117 0.34396 0.0
C364 C 0.40801 0.30673 0.03657 0.0
C365 C 0.34649 0.27765 0.08344 0.0
C366 C 0.35626 0.27728 0.9381 0.0
N367 N 0.37884 0.29624 0.14458 0.0
N368 N 0.3954 0.29547 0.91082 0.0
H369 H 0.4406 0.32126 0.04978 0.0
H370 H 0.31993 0.26448 0.14065 0.0
C371 C 0.28668 0.28631 0.5112 0.0
O372 O 0.29505 0.30332 0.61279 0.0
N373 N 0.41873 0.30602 0.54216 0.0
C374 C 0.43982 0.32742 0.60273 0.0
C375 C 0.43855 0.32537 0.74792 0.0
C376 C 0.40838 0.29059 0.65102 0.0
N377 N 0.41744 0.30248 0.77755 0.0
C378 C 0.40895 0.35319 0.28587 0.0
C379 C 0.30741 0.37115 0.41116 0.0
C380 C 0.35085 0.38832 0.37218 0.0
C381 C 0.40034 0.37894 0.30154 0.0
C382 C 0.31735 0.34507 0.39043 0.0
N383 N 0.36967 0.33629 0.33729 0.0
H384 H 0.44991 0.34722 0.24022 0.0
H385 H 0.28334 0.33237 0.42041 0.0
H386 H 0.45195 0.34403 0.54642 0.0
H387 H 0.38933 0.27207 0.63829 0.0
O388 O 0.47898 0.30688 0.29233 0.0
O389 O 0.44091 0.26968 0.33422 0.0
O390 O 0.31815 0.28595 0.39752 0.0
C391 C 0.48579 0.28277 0.29384 0.0
H392 H 0.33688 0.26453 0.85987 0.0
H393 H 0.44786 0.34027 0.82508 0.0
H394 H 0.26764 0.37766 0.46295 0.0
H395 H 0.43442 0.3915 0.26609 0.0
Co396 Co 0.62891 0.05117 0.09392 0.0
C397 C 0.6185 0.05673 0.78653 0.0
C398 C 0.68003 0.02765 0.83342 0.0
C399 C 0.67027 0.02728 0.68808 0.0
N400 N 0.64768 0.04624 0.89455 0.0
N401 N 0.63111 0.04547 0.66079 0.0
H402 H 0.58591 0.07126 0.79973 0.0
H403 H 0.70659 1.01448 0.89065 0.0
C404 C 0.73984 0.03631 0.26118 0.0
O405 O 0.73148 0.05332 0.36278 0.0
N406 N 0.6078 0.05602 0.29212 0.0
C407 C 0.58671 0.07743 0.35268 0.0
C408 C 0.58798 0.07538 0.49787 0.0
C409 C 0.61815 0.0406 0.40098 0.0
N410 N 0.60908 0.05248 0.52751 0.0
C411 C 0.61757 0.1032 0.0358 0.0
C412 C 0.71912 0.12115 0.16108 0.0
C413 C 0.67568 0.13832 0.12206 0.0
C414 C 0.62618 0.12894 0.05144 0.0
C415 C 0.70918 0.09507 0.14038 0.0
N416 N 0.65685 0.08629 0.08724 0.0
H417 H 0.5766 0.09723 0.99017 0.0
H418 H 0.74318 0.08237 0.17039 0.0
H419 H 0.57459 0.09403 0.29637 0.0
H420 H 0.63719 1.02207 0.38826 0.0
O421 O 0.54755 0.05688 0.04229 0.0
O422 O 0.58562 1.01969 0.0842 0.0
O423 O 0.70838 0.03595 0.14749 0.0
C424 C 0.54074 0.03277 0.04382 0.0
H425 H 0.68965 1.01453 0.60985 0.0
H426 H 0.57867 0.09028 0.57503 0.0
H427 H 0.75889 0.12766 0.21288 0.0
H428 H 0.5921 0.1415 1.01599 0.0
Co429 Co 0.6289 0.25254 0.19572 0.0
C430 C 0.61851 0.24698 0.5031 0.0
C431 C 0.68002 0.27607 0.45623 0.0
C432 C 0.67025 0.27644 0.60157 0.0
N433 N 0.64768 0.25747 0.39509 0.0
N434 N 0.63111 0.25825 0.62885 0.0
H435 H 0.58592 0.23245 0.48989 0.0
H436 H 0.70657 0.28924 0.39902 0.0
C437 C 0.73983 0.26741 0.02847 0.0
O438 O 0.73147 0.25039 0.92688 0.0
N439 N 0.60778 0.24769 0.99751 0.0
C440 C 0.58669 0.2263 0.93694 0.0
C441 C 0.58796 0.22834 0.79175 0.0
C442 C 0.61813 0.26312 0.88865 0.0
N443 N 0.60907 0.25123 0.76212 0.0
C444 C 0.61757 0.20052 0.25379 0.0
C445 C 0.71912 0.18257 0.12852 0.0
C446 C 0.67567 0.16539 0.16749 0.0
C447 C 0.62618 0.17478 0.23812 0.0
C448 C 0.70917 0.20864 0.14925 0.0
N449 N 0.65684 0.21742 0.20238 0.0
H450 H 0.5766 0.20649 0.29943 0.0
H451 H 0.74318 0.22134 0.11928 0.0
H452 H 0.57456 0.20969 0.99326 0.0
H453 H 0.63718 0.28165 0.90138 0.0
O454 O 0.54754 0.24683 0.24734 0.0
O455 O 0.5856 0.28403 0.20546 0.0
O456 O 0.70836 0.26777 0.14215 0.0
C457 C 0.54073 0.27094 0.24585 0.0
H458 H 0.68962 0.28919 0.6798 0.0
H459 H 0.57865 0.21344 0.7146 0.0
H460 H 0.75889 0.17605 0.07674 0.0
H461 H 0.5921 0.16222 0.27355 0.0
Co462 Co 0.39763 1.00254 0.94574 0.0
C463 C 0.40804 0.99698 0.25312 0.0
C464 C 0.34651 1.02607 0.20623 0.0
C465 C 0.35628 1.02643 0.35158 0.0
N466 N 0.37886 1.00747 0.14511 0.0
N467 N 0.39542 1.00825 0.37887 0.0
H468 H 0.44063 0.98245 0.23993 0.0
H469 H 0.31995 0.03924 0.14901 0.0
C470 C 0.2867 1.01741 0.77847 0.0
O471 O 0.29506 1.00039 0.67688 0.0
N472 N 0.41874 0.99769 0.74754 0.0
C473 C 0.43983 0.97629 0.68698 0.0
C474 C 0.43856 0.97834 0.54179 0.0
C475 C 0.40839 1.01312 0.63868 0.0
N476 N 0.41746 1.00123 0.51215 0.0
C477 C 0.40897 0.95052 1.00385 0.0
C478 C 0.30742 0.93257 0.87857 0.0
C479 C 0.35087 0.91539 0.91759 0.0
C480 C 0.40036 0.92478 0.98821 0.0
C481 C 0.31737 0.95864 0.89927 0.0
N482 N 0.36969 0.96742 0.95242 0.0
H483 H 0.44994 0.95649 0.04948 0.0
H484 H 0.28336 0.97134 0.86927 0.0
H485 H 0.45195 0.95968 0.74329 0.0
H486 H 0.38935 0.03164 0.6514 0.0
O487 O 0.479 0.99683 0.99737 0.0
O488 O 0.44092 0.03403 0.95546 0.0
O489 O 0.31817 1.01776 0.89216 0.0
C490 C 0.4858 1.02094 0.99585 0.0
H491 H 0.33689 0.03918 0.4298 0.0
H492 H 0.44787 0.96343 0.46463 0.0
H493 H 0.26765 0.92605 0.82677 0.0
H494 H 0.43444 0.91221 0.02366 0.0
Co495 Co 0.39764 0.80117 0.84393 0.0
C496 C 0.40803 0.80673 0.53655 0.0
C497 C 0.34652 0.77765 0.58342 0.0
C498 C 0.35629 0.77728 0.43808 0.0
N499 N 0.37886 0.79624 0.64456 0.0
N500 N 0.39543 0.79547 0.4108 0.0
H501 H 0.44062 0.82126 0.54976 0.0
H502 H 0.31997 0.76447 0.64063 0.0
C503 C 0.28671 0.78631 1.01118 0.0
O504 O 0.29507 0.80332 0.11277 0.0
N505 N 0.41876 0.80602 0.04213 0.0
C506 C 0.43985 0.82742 0.1027 0.0
C507 C 0.43858 0.82537 0.2479 0.0
C508 C 0.40841 0.79059 0.151 0.0
N509 N 0.41747 0.80248 0.27753 0.0
C510 C 0.40897 0.85319 0.78586 0.0
C511 C 0.30742 0.87115 0.91113 0.0
C512 C 0.35087 0.88832 0.87216 0.0
C513 C 0.40036 0.87894 0.80153 0.0
C514 C 0.31737 0.84507 0.8904 0.0
N515 N 0.3697 0.83629 0.83727 0.0
H516 H 0.44994 0.84723 0.74022 0.0
H517 H 0.28337 0.83237 0.92037 0.0
H518 H 0.45198 0.84402 0.04639 0.0
H519 H 0.38936 0.77207 0.13827 0.0
O520 O 0.479 0.80688 0.79231 0.0
O521 O 0.44094 0.76968 0.83419 0.0
O522 O 0.31818 0.78595 0.8975 0.0
C523 C 0.48581 0.78277 0.7938 0.0
H524 H 0.33692 0.76453 0.35985 0.0
H525 H 0.44789 0.84027 0.32505 0.0
H526 H 0.26765 0.87766 0.96291 0.0
H527 H 0.43444 0.8915 0.7661 0.0
loop_
_geom_bond_atom_site_label_1
_geom_bond_atom_site_label_2
_geom_bond_distance
_geom_bond_site_symmetry_2
_ccdc_geom_bond_type
Co0 N4 2.148 1_554 S
Co0 N10 2.128 . S
Co0 N20 2.194 . S
Co0 O25 2.351 . S
Co0 O26 2.155 . S
Co0 O27 2.096 . S
C1 N4 1.301 . S
C1 N5 1.328 . S
C1 H6 0.930 . S
C2 C3 1.333 . S
C2 N4 1.317 . S
C2 H7 0.930 . S
C3 C2 1.333 . S
C3 N5 1.350 . S
C3 H29 0.931 . S
N4 Co0 2.148 1_556 S
N4 C1 1.301 . S
N4 C2 1.317 . S
N5 C1 1.328 . S
N5 C3 1.350 . S
H6 C1 0.930 . S
H7 C2 0.930 . S
C8 O9 1.224 . S
C8 O27 1.247 . S
O9 C8 1.224 . S
N10 Co0 2.128 . S
N10 C11 1.355 . S
N10 C13 1.311 . S
C11 N10 1.355 . S
C11 C12 1.363 . S
C11 H23 0.929 . S
C12 C11 1.363 . S
C12 N14 1.375 . S
C12 H30 0.931 . S
C13 N10 1.311 . S
C13 N14 1.347 . S
C13 H24 0.929 . S
N14 C12 1.375 . S
N14 C13 1.347 . S
C15 C18 1.365 . S
C15 N20 1.328 . S
C15 H21 0.929 . S
C16 C17 1.362 . S
C16 C19 1.378 . S
C16 H31 0.929 . S
C17 C16 1.362 . S
C17 C18 1.366 . S
C18 C15 1.365 . S
C18 C17 1.366 . S
C18 H32 0.930 . S
C19 C16 1.378 . S
C19 N20 1.315 . S
C19 H22 0.930 . S
N20 Co0 2.194 . S
N20 C15 1.328 . S
N20 C19 1.315 . S
H21 C15 0.929 . S
H22 C19 0.930 . S
H23 C11 0.929 . S
H24 C13 0.929 . S
O25 Co0 2.351 . S
O25 C28 1.244 . S
O26 Co0 2.155 . S
O26 C28 1.240 . S
O27 Co0 2.096 . S
O27 C8 1.247 . S
C28 O25 1.244 . S
C28 O26 1.240 . S
H29 C3 0.931 . S
H30 C12 0.931 . S
H31 C16 0.929 . S
H32 C18 0.930 . S
Co33 N37 2.148 . S
Co33 N43 2.128 1_554 S
Co33 N53 2.194 . S
Co33 O58 2.351 . S
Co33 O59 2.155 . S
Co33 O60 2.096 . S
C34 N37 1.301 . S
C34 N38 1.328 . S
C34 H39 0.930 . S
C35 C36 1.333 . S
C35 N37 1.317 . S
C35 H40 0.930 . S
C36 C35 1.333 . S
C36 N38 1.350 . S
C36 H62 0.931 . S
N37 Co33 2.148 . S
N37 C34 1.301 . S
N37 C35 1.317 . S
N38 C34 1.328 . S
N38 C36 1.350 . S
H39 C34 0.930 . S
H40 C35 0.930 . S
C41 O42 1.224 . S
C41 O60 1.247 . S
O42 C41 1.224 . S
N43 Co33 2.128 1_556 S
N43 C44 1.355 . S
N43 C46 1.311 . S
C44 N43 1.355 . S
C44 C45 1.363 . S
C44 H56 0.929 . S
C45 C44 1.363 . S
C45 N47 1.375 . S
C45 H63 0.931 . S
C46 N43 1.311 . S
C46 N47 1.347 . S
C46 H57 0.929 . S
N47 C45 1.375 . S
N47 C46 1.347 . S
C48 C51 1.365 . S
C48 N53 1.328 . S
C48 H54 0.929 . S
C49 C50 1.362 . S
C49 C52 1.378 . S
C49 H64 0.929 . S
C50 C49 1.362 . S
C50 C51 1.366 . S
C51 C48 1.365 . S
C51 C50 1.366 . S
C51 H65 0.930 . S
C52 C49 1.378 . S
C52 N53 1.315 . S
C52 H55 0.930 . S
N53 Co33 2.194 . S
N53 C48 1.328 . S
N53 C52 1.315 . S
H54 C48 0.929 . S
H55 C52 0.930 . S
H56 C44 0.929 . S
H57 C46 0.929 . S
O58 Co33 2.351 . S
O58 C61 1.244 . S
O59 Co33 2.155 . S
O59 C61 1.240 . S
O60 Co33 2.096 . S
O60 C41 1.247 . S
C61 O58 1.244 . S
C61 O59 1.240 . S
H62 C36 0.931 . S
H63 C45 0.931 . S
H64 C49 0.929 . S
H65 C51 0.930 . S
Co66 N70 2.148 1_556 S
Co66 N76 2.128 . S
Co66 N86 2.194 . S
Co66 O91 2.351 . S
Co66 O92 2.155 . S
Co66 O93 2.096 . S
C67 N70 1.301 . S
C67 N71 1.328 . S
C67 H72 0.930 . S
C68 C69 1.333 . S
C68 N70 1.317 . S
C68 H73 0.930 . S
C69 C68 1.333 . S
C69 N71 1.350 . S
C69 H95 0.931 . S
N70 Co66 2.148 1_554 S
N70 C67 1.301 . S
N70 C68 1.317 . S
N71 C67 1.328 . S
N71 C69 1.350 . S
H72 C67 0.930 . S
H73 C68 0.930 . S
C74 O75 1.224 . S
C74 O93 1.247 . S
O75 C74 1.224 . S
N76 Co66 2.128 . S
N76 C77 1.355 . S
N76 C79 1.311 . S
C77 N76 1.355 . S
C77 C78 1.363 . S
C77 H89 0.929 . S
C78 C77 1.363 . S
C78 N80 1.375 . S
C78 H96 0.931 . S
C79 N76 1.311 . S
C79 N80 1.347 . S
C79 H90 0.929 . S
N80 C78 1.375 . S
N80 C79 1.347 . S
C81 C84 1.365 . S
C81 N86 1.328 . S
C81 H87 0.929 . S
C82 C83 1.362 . S
C82 C85 1.378 . S
C82 H97 0.929 . S
C83 C82 1.362 . S
C83 C84 1.366 . S
C84 C81 1.365 . S
C84 C83 1.366 . S
C84 H98 0.930 . S
C85 C82 1.378 . S
C85 N86 1.315 . S
C85 H88 0.930 . S
N86 Co66 2.194 . S
N86 C81 1.328 . S
N86 C85 1.315 . S
H87 C81 0.929 . S
H88 C85 0.930 . S
H89 C77 0.929 . S
H90 C79 0.929 . S
O91 Co66 2.351 . S
O91 C94 1.244 . S
O92 Co66 2.155 . S
O92 C94 1.240 . S
O93 Co66 2.096 . S
O93 C74 1.247 . S
C94 O91 1.244 . S
C94 O92 1.240 . S
H95 C69 0.931 . S
H96 C78 0.931 . S
H97 C82 0.929 . S
H98 C84 0.930 . S
Co99 N103 2.148 . S
Co99 N109 2.128 1_556 S
Co99 N119 2.194 . S
Co99 O124 2.351 . S
Co99 O125 2.155 . S
Co99 O126 2.096 . S
C100 N103 1.301 . S
C100 N104 1.328 . S
C100 H105 0.930 . S
C101 C102 1.333 . S
C101 N103 1.317 . S
C101 H106 0.930 . S
C102 C101 1.333 . S
C102 N104 1.350 . S
C102 H128 0.931 . S
N103 Co99 2.148 . S
N103 C100 1.301 . S
N103 C101 1.317 . S
N104 C100 1.328 . S
N104 C102 1.350 . S
H105 C100 0.930 . S
H106 C101 0.930 . S
C107 O108 1.224 . S
C107 O126 1.247 . S
O108 C107 1.224 . S
N109 Co99 2.128 1_554 S
N109 C110 1.355 . S
N109 C112 1.311 . S
C110 N109 1.355 . S
C110 C111 1.363 . S
C110 H122 0.929 . S
C111 C110 1.363 . S
C111 N113 1.375 . S
C111 H129 0.931 . S
C112 N109 1.311 . S
C112 N113 1.347 . S
C112 H123 0.929 . S
N113 C111 1.375 . S
N113 C112 1.347 . S
C114 C117 1.365 . S
C114 N119 1.328 . S
C114 H120 0.929 . S
C115 C116 1.362 . S
C115 C118 1.378 . S
C115 H130 0.929 . S
C116 C115 1.362 . S
C116 C117 1.366 . S
C117 C114 1.365 . S
C117 C116 1.366 . S
C117 H131 0.930 . S
C118 C115 1.378 . S
C118 N119 1.315 . S
C118 H121 0.930 . S
N119 Co99 2.194 . S
N119 C114 1.328 . S
N119 C118 1.315 . S
H120 C114 0.929 . S
H121 C118 0.930 . S
H122 C110 0.929 . S
H123 C112 0.929 . S
O124 Co99 2.351 . S
O124 C127 1.244 . S
O125 Co99 2.155 . S
O125 C127 1.240 . S
O126 Co99 2.096 . S
O126 C107 1.247 . S
C127 O124 1.244 . S
C127 O125 1.240 . S
H128 C102 0.931 . S
H129 C111 0.931 . S
H130 C115 0.929 . S
H131 C117 0.930 . S
Co132 N136 2.148 . S
Co132 N142 2.128 . S
Co132 N152 2.194 . S
Co132 O157 2.351 . S
Co132 O158 2.155 1_545 S
Co132 O159 2.096 1_545 S
C133 N136 1.301 . S
C133 N137 1.328 . S
C133 H138 0.930 . S
C134 C135 1.333 . S
C134 N136 1.317 . S
C134 H139 0.930 . S
C135 C134 1.333 . S
C135 N137 1.350 . S
C135 H161 0.931 . S
N136 Co132 2.148 . S
N136 C133 1.301 . S
N136 C134 1.317 . S
N137 C133 1.328 . S
N137 C135 1.350 . S
H138 C133 0.930 . S
H139 C134 0.930 . S
C140 O141 1.224 . S
C140 O159 1.247 1_545 S
O141 C140 1.224 . S
N142 Co132 2.128 . S
N142 C143 1.355 . S
N142 C145 1.311 . S
C143 N142 1.355 . S
C143 C144 1.363 1_556 S
C143 H155 0.929 . S
C144 C143 1.363 1_554 S
C144 N146 1.375 . S
C144 H162 0.931 . S
C145 N142 1.311 . S
C145 N146 1.347 1_556 S
C145 H156 0.929 . S
N146 C144 1.375 . S
N146 C145 1.347 1_554 S
C147 C150 1.365 . S
C147 N152 1.328 . S
C147 H153 0.929 . S
C148 C149 1.362 . S
C148 C151 1.378 . S
C148 H163 0.929 . S
C149 C148 1.362 . S
C149 C150 1.366 . S
C150 C147 1.365 . S
C150 C149 1.366 . S
C150 H164 0.930 . S
C151 C148 1.378 . S
C151 N152 1.315 . S
C151 H154 0.930 . S
N152 Co132 2.194 . S
N152 C147 1.328 . S
N152 C151 1.315 . S
H153 C147 0.929 . S
H154 C151 0.930 . S
H155 C143 0.929 . S
H156 C145 0.929 . S
O157 Co132 2.351 . S
O157 C160 1.244 . S
O158 Co132 2.155 1_565 S
O158 C160 1.240 1_565 S
O159 Co132 2.096 1_565 S
O159 C140 1.247 1_565 S
C160 O157 1.244 . S
C160 O158 1.240 1_545 S
H161 C135 0.931 . S
H162 C144 0.931 . S
H163 C148 0.929 . S
H164 C150 0.930 . S
Co165 N169 2.148 . S
Co165 N175 2.128 . S
Co165 N185 2.194 . S
Co165 O190 2.351 . S
Co165 O191 2.155 . S
Co165 O192 2.096 . S
C166 N169 1.301 . S
C166 N170 1.328 1_556 S
C166 H171 0.930 . S
C167 C168 1.333 1_556 S
C167 N169 1.317 . S
C167 H172 0.930 . S
C168 C167 1.333 1_554 S
C168 N170 1.350 . S
C168 H194 0.931 . S
N169 Co165 2.148 . S
N169 C166 1.301 . S
N169 C167 1.317 . S
N170 C166 1.328 1_554 S
N170 C168 1.350 . S
H171 C166 0.930 . S
H172 C167 0.930 . S
C173 O174 1.224 . S
C173 O192 1.247 . S
O174 C173 1.224 . S
N175 Co165 2.128 . S
N175 C176 1.355 . S
N175 C178 1.311 . S
C176 N175 1.355 . S
C176 C177 1.363 . S
C176 H188 0.929 . S
C177 C176 1.363 . S
C177 N179 1.375 . S
C177 H195 0.931 . S
C178 N175 1.311 . S
C178 N179 1.347 . S
C178 H189 0.929 . S
N179 C177 1.375 . S
N179 C178 1.347 . S
C180 C183 1.365 . S
C180 N185 1.328 . S
C180 H186 0.929 . S
C181 C182 1.362 . S
C181 C184 1.378 . S
C181 H196 0.929 . S
C182 C181 1.362 . S
C182 C183 1.366 . S
C183 C180 1.365 . S
C183 C182 1.366 . S
C183 H197 0.930 . S
C184 C181 1.378 . S
C184 N185 1.315 . S
C184 H187 0.930 . S
N185 Co165 2.194 . S
N185 C180 1.328 . S
N185 C184 1.315 . S
H186 C180 0.929 . S
H187 C184 0.930 . S
H188 C176 0.929 . S
H189 C178 0.929 . S
O190 Co165 2.351 . S
O190 C193 1.244 . S
O191 Co165 2.155 . S
O191 C193 1.240 . S
O192 Co165 2.096 . S
O192 C173 1.247 . S
C193 O190 1.244 . S
C193 O191 1.240 . S
H194 C168 0.931 . S
H195 C177 0.931 . S
H196 C181 0.929 . S
H197 C183 0.930 . S
Co198 N202 2.148 . S
Co198 N208 2.128 . S
Co198 N218 2.194 . S
Co198 O223 2.351 . S
Co198 O224 2.155 1_565 S
Co198 O225 2.096 1_565 S
C199 N202 1.301 . S
C199 N203 1.328 . S
C199 H204 0.930 . S
C200 C201 1.333 . S
C200 N202 1.317 . S
C200 H205 0.930 . S
C201 C200 1.333 . S
C201 N203 1.350 . S
C201 H227 0.931 . S
N202 Co198 2.148 . S
N202 C199 1.301 . S
N202 C200 1.317 . S
N203 C199 1.328 . S
N203 C201 1.350 . S
H204 C199 0.930 . S
H205 C200 0.930 . S
C206 O207 1.224 . S
C206 O225 1.247 1_565 S
O207 C206 1.224 . S
N208 Co198 2.128 . S
N208 C209 1.355 . S
N208 C211 1.311 . S
C209 N208 1.355 . S
C209 C210 1.363 1_554 S
C209 H221 0.929 . S
C210 C209 1.363 1_556 S
C210 N212 1.375 . S
C210 H228 0.931 . S
C211 N208 1.311 . S
C211 N212 1.347 1_554 S
C211 H222 0.929 . S
N212 C210 1.375 . S
N212 C211 1.347 1_556 S
C213 C216 1.365 . S
C213 N218 1.328 . S
C213 H219 0.929 . S
C214 C215 1.362 . S
C214 C217 1.378 . S
C214 H229 0.929 . S
C215 C214 1.362 . S
C215 C216 1.366 . S
C216 C213 1.365 . S
C216 C215 1.366 . S
C216 H230 0.930 . S
C217 C214 1.378 . S
C217 N218 1.315 . S
C217 H220 0.930 . S
N218 Co198 2.194 . S
N218 C213 1.328 . S
N218 C217 1.315 . S
H219 C213 0.929 . S
H220 C217 0.930 . S
H221 C209 0.929 . S
H222 C211 0.929 . S
O223 Co198 2.351 . S
O223 C226 1.244 . S
O224 Co198 2.155 1_545 S
O224 C226 1.240 1_545 S
O225 Co198 2.096 1_545 S
O225 C206 1.247 1_545 S
C226 O223 1.244 . S
C226 O224 1.240 1_565 S
H227 C201 0.931 . S
H228 C210 0.931 . S
H229 C214 0.929 . S
H230 C216 0.930 . S
Co231 N235 2.148 . S
Co231 N241 2.128 . S
Co231 N251 2.194 . S
Co231 O256 2.351 . S
Co231 O257 2.155 . S
Co231 O258 2.096 . S
C232 N235 1.301 . S
C232 N236 1.328 1_554 S
C232 H237 0.930 . S
C233 C234 1.333 1_554 S
C233 N235 1.317 . S
C233 H238 0.930 . S
C234 C233 1.333 1_556 S
C234 N236 1.350 . S
C234 H260 0.931 . S
N235 Co231 2.148 . S
N235 C232 1.301 . S
N235 C233 1.317 . S
N236 C232 1.328 1_556 S
N236 C234 1.350 . S
H237 C232 0.930 . S
H238 C233 0.930 . S
C239 O240 1.224 . S
C239 O258 1.247 . S
O240 C239 1.224 . S
N241 Co231 2.128 . S
N241 C242 1.355 . S
N241 C244 1.311 . S
C242 N241 1.355 . S
C242 C243 1.363 . S
C242 H254 0.929 . S
C243 C242 1.363 . S
C243 N245 1.375 . S
C243 H261 0.931 . S
C244 N241 1.311 . S
C244 N245 1.347 . S
C244 H255 0.929 . S
N245 C243 1.375 . S
N245 C244 1.347 . S
C246 C249 1.365 . S
C246 N251 1.328 . S
C246 H252 0.929 . S
C247 C248 1.362 . S
C247 C250 1.378 . S
C247 H262 0.929 . S
C248 C247 1.362 . S
C248 C249 1.366 . S
C249 C246 1.365 . S
C249 C248 1.366 . S
C249 H263 0.930 . S
C250 C247 1.378 . S
C250 N251 1.315 . S
C250 H253 0.930 . S
N251 Co231 2.194 . S
N251 C246 1.328 . S
N251 C250 1.315 . S
H252 C246 0.929 . S
H253 C250 0.930 . S
H254 C242 0.929 . S
H255 C244 0.929 . S
O256 Co231 2.351 . S
O256 C259 1.244 . S
O257 Co231 2.155 . S
O257 C259 1.240 . S
O258 Co231 2.096 . S
O258 C239 1.247 . S
C259 O256 1.244 . S
C259 O257 1.240 . S
H260 C234 0.931 . S
H261 C243 0.931 . S
H262 C247 0.929 . S
H263 C249 0.930 . S
Co264 N268 2.148 . S
Co264 N274 2.128 . S
Co264 N284 2.194 . S
Co264 O289 2.351 . S
Co264 O290 2.155 . S
Co264 O291 2.096 . S
C265 N268 1.301 . S
C265 N269 1.328 . S
C265 H270 0.930 . S
C266 C267 1.333 . S
C266 N268 1.317 . S
C266 H271 0.930 . S
C267 C266 1.333 . S
C267 N269 1.350 . S
C267 H293 0.931 . S
N268 Co264 2.148 . S
N268 C265 1.301 . S
N268 C266 1.317 . S
N269 C265 1.328 . S
N269 C267 1.350 . S
H270 C265 0.930 . S
H271 C266 0.930 . S
C272 O273 1.224 . S
C272 O291 1.247 . S
O273 C272 1.224 . S
N274 Co264 2.128 . S
N274 C275 1.355 . S
N274 C277 1.311 . S
C275 N274 1.355 . S
C275 C276 1.363 1_556 S
C275 H287 0.929 . S
C276 C275 1.363 1_554 S
C276 N278 1.375 . S
C276 H294 0.931 . S
C277 N274 1.311 . S
C277 N278 1.347 1_556 S
C277 H288 0.929 . S
N278 C276 1.375 . S
N278 C277 1.347 1_554 S
C279 C282 1.365 . S
C279 N284 1.328 . S
C279 H285 0.929 . S
C280 C281 1.362 . S
C280 C283 1.378 . S
C280 H295 0.929 . S
C281 C280 1.362 . S
C281 C282 1.366 . S
C282 C279 1.365 . S
C282 C281 1.366 . S
C282 H296 0.930 . S
C283 C280 1.378 . S
C283 N284 1.315 . S
C283 H286 0.930 . S
N284 Co264 2.194 . S
N284 C279 1.328 . S
N284 C283 1.315 . S
H285 C279 0.929 . S
H286 C283 0.930 . S
H287 C275 0.929 . S
H288 C277 0.929 . S
O289 Co264 2.351 . S
O289 C292 1.244 . S
O290 Co264 2.155 . S
O290 C292 1.240 . S
O291 Co264 2.096 . S
O291 C272 1.247 . S
C292 O289 1.244 . S
C292 O290 1.240 . S
H293 C267 0.931 . S
H294 C276 0.931 . S
H295 C280 0.929 . S
H296 C282 0.930 . S
Co297 N301 2.148 . S
Co297 N307 2.128 . S
Co297 N317 2.194 . S
Co297 O322 2.351 . S
Co297 O323 2.155 . S
Co297 O324 2.096 . S
C298 N301 1.301 . S
C298 N302 1.328 1_556 S
C298 H303 0.930 . S
C299 C300 1.333 1_556 S
C299 N301 1.317 . S
C299 H304 0.930 . S
C300 C299 1.333 1_554 S
C300 N302 1.350 . S
C300 H326 0.931 . S
N301 Co297 2.148 . S
N301 C298 1.301 . S
N301 C299 1.317 . S
N302 C298 1.328 1_554 S
N302 C300 1.350 . S
H303 C298 0.930 . S
H304 C299 0.930 . S
C305 O306 1.224 . S
C305 O324 1.247 . S
O306 C305 1.224 . S
N307 Co297 2.128 . S
N307 C308 1.355 . S
N307 C310 1.311 . S
C308 N307 1.355 . S
C308 C309 1.363 . S
C308 H320 0.929 . S
C309 C308 1.363 . S
C309 N311 1.375 . S
C309 H327 0.931 . S
C310 N307 1.311 . S
C310 N311 1.347 . S
C310 H321 0.929 . S
N311 C309 1.375 . S
N311 C310 1.347 . S
C312 C315 1.365 . S
C312 N317 1.328 . S
C312 H318 0.929 . S
C313 C314 1.362 . S
C313 C316 1.378 . S
C313 H328 0.929 . S
C314 C313 1.362 . S
C314 C315 1.366 . S
C315 C312 1.365 . S
C315 C314 1.366 . S
C315 H329 0.930 . S
C316 C313 1.378 . S
C316 N317 1.315 . S
C316 H319 0.930 . S
N317 Co297 2.194 . S
N317 C312 1.328 . S
N317 C316 1.315 . S
H318 C312 0.929 . S
H319 C316 0.930 . S
H320 C308 0.929 . S
H321 C310 0.929 . S
O322 Co297 2.351 . S
O322 C325 1.244 . S
O323 Co297 2.155 . S
O323 C325 1.240 . S
O324 Co297 2.096 . S
O324 C305 1.247 . S
C325 O322 1.244 . S
C325 O323 1.240 . S
H326 C300 0.931 . S
H327 C309 0.931 . S
H328 C313 0.929 . S
H329 C315 0.930 . S
Co330 N334 2.148 . S
Co330 N340 2.128 . S
Co330 N350 2.194 . S
Co330 O355 2.351 . S
Co330 O356 2.155 . S
Co330 O357 2.096 . S
C331 N334 1.301 . S
C331 N335 1.328 . S
C331 H336 0.930 . S
C332 C333 1.333 . S
C332 N334 1.317 . S
C332 H337 0.930 . S
C333 C332 1.333 . S
C333 N335 1.350 . S
C333 H359 0.931 . S
N334 Co330 2.148 . S
N334 C331 1.301 . S
N334 C332 1.317 . S
N335 C331 1.328 . S
N335 C333 1.350 . S
H336 C331 0.930 . S
H337 C332 0.930 . S
C338 O339 1.224 . S
C338 O357 1.247 . S
O339 C338 1.224 . S
N340 Co330 2.128 . S
N340 C341 1.355 . S
N340 C343 1.311 . S
C341 N340 1.355 . S
C341 C342 1.363 1_554 S
C341 H353 0.929 . S
C342 C341 1.363 1_556 S
C342 N344 1.375 . S
C342 H360 0.931 . S
C343 N340 1.311 . S
C343 N344 1.347 1_554 S
C343 H354 0.929 . S
N344 C342 1.375 . S
N344 C343 1.347 1_556 S
C345 C348 1.365 . S
C345 N350 1.328 . S
C345 H351 0.929 . S
C346 C347 1.362 . S
C346 C349 1.378 . S
C346 H361 0.929 . S
C347 C346 1.362 . S
C347 C348 1.366 . S
C348 C345 1.365 . S
C348 C347 1.366 . S
C348 H362 0.930 . S
C349 C346 1.378 . S
C349 N350 1.315 . S
C349 H352 0.930 . S
N350 Co330 2.194 . S
N350 C345 1.328 . S
N350 C349 1.315 . S
H351 C345 0.929 . S
H352 C349 0.930 . S
H353 C341 0.929 . S
H354 C343 0.929 . S
O355 Co330 2.351 . S
O355 C358 1.244 . S
O356 Co330 2.155 . S
O356 C358 1.240 . S
O357 Co330 2.096 . S
O357 C338 1.247 . S
C358 O355 1.244 . S
C358 O356 1.240 . S
H359 C333 0.931 . S
H360 C342 0.931 . S
H361 C346 0.929 . S
H362 C348 0.930 . S
Co363 N367 2.148 . S
Co363 N373 2.128 . S
Co363 N383 2.194 . S
Co363 O388 2.351 . S
Co363 O389 2.155 . S
Co363 O390 2.096 . S
C364 N367 1.301 . S
C364 N368 1.328 1_554 S
C364 H369 0.930 . S
C365 C366 1.333 1_554 S
C365 N367 1.317 . S
C365 H370 0.930 . S
C366 C365 1.333 1_556 S
C366 N368 1.350 . S
C366 H392 0.931 . S
N367 Co363 2.148 . S
N367 C364 1.301 . S
N367 C365 1.317 . S
N368 C364 1.328 1_556 S
N368 C366 1.350 . S
H369 C364 0.930 . S
H370 C365 0.930 . S
C371 O372 1.224 . S
C371 O390 1.247 . S
O372 C371 1.224 . S
N373 Co363 2.128 . S
N373 C374 1.355 . S
N373 C376 1.311 . S
C374 N373 1.355 . S
C374 C375 1.363 . S
C374 H386 0.929 . S
C375 C374 1.363 . S
C375 N377 1.375 . S
C375 H393 0.931 . S
C376 N373 1.311 . S
C376 N377 1.347 . S
C376 H387 0.929 . S
N377 C375 1.375 . S
N377 C376 1.347 . S
C378 C381 1.365 . S
C378 N383 1.328 . S
C378 H384 0.929 . S
C379 C380 1.362 . S
C379 C382 1.378 . S
C379 H394 0.929 . S
C380 C379 1.362 . S
C380 C381 1.366 . S
C381 C378 1.365 . S
C381 C380 1.366 . S
C381 H395 0.930 . S
C382 C379 1.378 . S
C382 N383 1.315 . S
C382 H385 0.930 . S
N383 Co363 2.194 . S
N383 C378 1.328 . S
N383 C382 1.315 . S
H384 C378 0.929 . S
H385 C382 0.930 . S
H386 C374 0.929 . S
H387 C376 0.929 . S
O388 Co363 2.351 . S
O388 C391 1.244 . S
O389 Co363 2.155 . S
O389 C391 1.240 . S
O390 Co363 2.096 . S
O390 C371 1.247 . S
C391 O388 1.244 . S
C391 O389 1.240 . S
H392 C366 0.931 . S
H393 C375 0.931 . S
H394 C379 0.929 . S
H395 C381 0.930 . S
Co396 N400 2.148 1_554 S
Co396 N406 2.128 . S
Co396 N416 2.194 . S
Co396 O421 2.351 . S
Co396 O422 2.155 1_545 S
Co396 O423 2.096 1_545 S
C397 N400 1.301 . S
C397 N401 1.328 . S
C397 H402 0.930 . S
C398 C399 1.333 . S
C398 N400 1.317 . S
C398 H403 0.930 . S
C399 C398 1.333 . S
C399 N401 1.350 . S
C399 H425 0.931 . S
N400 Co396 2.148 1_556 S
N400 C397 1.301 . S
N400 C398 1.317 . S
N401 C397 1.328 . S
N401 C399 1.350 . S
H402 C397 0.930 . S
H403 C398 0.930 . S
C404 O405 1.224 . S
C404 O423 1.247 1_545 S
O405 C404 1.224 . S
N406 Co396 2.128 . S
N406 C407 1.355 . S
N406 C409 1.311 . S
C407 N406 1.355 . S
C407 C408 1.363 . S
C407 H419 0.929 . S
C408 C407 1.363 . S
C408 N410 1.375 . S
C408 H426 0.931 . S
C409 N406 1.311 . S
C409 N410 1.347 . S
C409 H420 0.929 . S
N410 C408 1.375 . S
N410 C409 1.347 . S
C411 C414 1.365 . S
C411 N416 1.328 . S
C411 H417 0.929 . S
C412 C413 1.362 . S
C412 C415 1.378 . S
C412 H427 0.929 . S
C413 C412 1.362 . S
C413 C414 1.366 . S
C414 C411 1.365 . S
C414 C413 1.366 . S
C414 H428 0.930 . S
C415 C412 1.378 . S
C415 N416 1.315 . S
C415 H418 0.930 . S
N416 Co396 2.194 . S
N416 C411 1.328 . S
N416 C415 1.315 . S
H417 C411 0.929 . S
H418 C415 0.930 . S
H419 C407 0.929 . S
H420 C409 0.929 . S
O421 Co396 2.351 . S
O421 C424 1.244 . S
O422 Co396 2.155 1_565 S
O422 C424 1.240 1_565 S
O423 Co396 2.096 1_565 S
O423 C404 1.247 1_565 S
C424 O421 1.244 . S
C424 O422 1.240 1_545 S
H425 C399 0.931 . S
H426 C408 0.931 . S
H427 C412 0.929 . S
H428 C414 0.930 . S
Co429 N433 2.148 . S
Co429 N439 2.128 1_554 S
Co429 N449 2.194 . S
Co429 O454 2.351 . S
Co429 O455 2.155 . S
Co429 O456 2.096 . S
C430 N433 1.301 . S
C430 N434 1.328 . S
C430 H435 0.930 . S
C431 C432 1.333 . S
C431 N433 1.317 . S
C431 H436 0.930 . S
C432 C431 1.333 . S
C432 N434 1.350 . S
C432 H458 0.931 . S
N433 Co429 2.148 . S
N433 C430 1.301 . S
N433 C431 1.317 . S
N434 C430 1.328 . S
N434 C432 1.350 . S
H435 C430 0.930 . S
H436 C431 0.930 . S
C437 O438 1.224 . S
C437 O456 1.247 . S
O438 C437 1.224 . S
N439 Co429 2.128 1_556 S
N439 C440 1.355 . S
N439 C442 1.311 . S
C440 N439 1.355 . S
C440 C441 1.363 . S
C440 H452 0.929 . S
C441 C440 1.363 . S
C441 N443 1.375 . S
C441 H459 0.931 . S
C442 N439 1.311 . S
C442 N443 1.347 . S
C442 H453 0.929 . S
N443 C441 1.375 . S
N443 C442 1.347 . S
C444 C447 1.365 . S
C444 N449 1.328 . S
C444 H450 0.929 . S
C445 C446 1.362 . S
C445 C448 1.378 . S
C445 H460 0.929 . S
C446 C445 1.362 . S
C446 C447 1.366 . S
C447 C444 1.365 . S
C447 C446 1.366 . S
C447 H461 0.930 . S
C448 C445 1.378 . S
C448 N449 1.315 . S
C448 H451 0.930 . S
N449 Co429 2.194 . S
N449 C444 1.328 . S
N449 C448 1.315 . S
H450 C444 0.929 . S
H451 C448 0.930 . S
H452 C440 0.929 . S
H453 C442 0.929 . S
O454 Co429 2.351 . S
O454 C457 1.244 . S
O455 Co429 2.155 . S
O455 C457 1.240 . S
O456 Co429 2.096 . S
O456 C437 1.247 . S
C457 O454 1.244 . S
C457 O455 1.240 . S
H458 C432 0.931 . S
H459 C441 0.931 . S
H460 C445 0.929 . S
H461 C447 0.930 . S
Co462 N466 2.148 1_556 S
Co462 N472 2.128 . S
Co462 N482 2.194 . S
Co462 O487 2.351 . S
Co462 O488 2.155 1_565 S
Co462 O489 2.096 1_565 S
C463 N466 1.301 . S
C463 N467 1.328 . S
C463 H468 0.930 . S
C464 C465 1.333 . S
C464 N466 1.317 . S
C464 H469 0.930 . S
C465 C464 1.333 . S
C465 N467 1.350 . S
C465 H491 0.931 . S
N466 Co462 2.148 1_554 S
N466 C463 1.301 . S
N466 C464 1.317 . S
N467 C463 1.328 . S
N467 C465 1.350 . S
H468 C463 0.930 . S
H469 C464 0.930 . S
C470 O471 1.224 . S
C470 O489 1.247 1_565 S
O471 C470 1.224 . S
N472 Co462 2.128 . S
N472 C473 1.355 . S
N472 C475 1.311 . S
C473 N472 1.355 . S
C473 C474 1.363 . S
C473 H485 0.929 . S
C474 C473 1.363 . S
C474 N476 1.375 . S
C474 H492 0.931 . S
C475 N472 1.311 . S
C475 N476 1.347 . S
C475 H486 0.929 . S
N476 C474 1.375 . S
N476 C475 1.347 . S
C477 C480 1.365 . S
C477 N482 1.328 . S
C477 H483 0.929 . S
C478 C479 1.362 . S
C478 C481 1.378 . S
C478 H493 0.929 . S
C479 C478 1.362 . S
C479 C480 1.366 . S
C480 C477 1.365 . S
C480 C479 1.366 . S
C480 H494 0.930 . S
C481 C478 1.378 . S
C481 N482 1.315 . S
C481 H484 0.930 . S
N482 Co462 2.194 . S
N482 C477 1.328 . S
N482 C481 1.315 . S
H483 C477 0.929 . S
H484 C481 0.930 . S
H485 C473 0.929 . S
H486 C475 0.929 . S
O487 Co462 2.351 . S
O487 C490 1.244 . S
O488 Co462 2.155 1_545 S
O488 C490 1.240 1_545 S
O489 Co462 2.096 1_545 S
O489 C470 1.247 1_545 S
C490 O487 1.244 . S
C490 O488 1.240 1_565 S
H491 C465 0.931 . S
H492 C474 0.931 . S
H493 C478 0.929 . S
H494 C480 0.930 . S
Co495 N499 2.148 . S
Co495 N505 2.128 1_556 S
Co495 N515 2.194 . S
Co495 O520 2.351 . S
Co495 O521 2.155 . S
Co495 O522 2.096 . S
C496 N499 1.301 . S
C496 N500 1.328 . S
C496 H501 0.930 . S
C497 C498 1.333 . S
C497 N499 1.317 . S
C497 H502 0.930 . S
C498 C497 1.333 . S
C498 N500 1.350 . S
C498 H524 0.931 . S
N499 Co495 2.148 . S
N499 C496 1.301 . S
N499 C497 1.317 . S
N500 C496 1.328 . S
N500 C498 1.350 . S
H501 C496 0.930 . S
H502 C497 0.930 . S
C503 O504 1.224 . S
C503 O522 1.247 . S
O504 C503 1.224 . S
N505 Co495 2.128 1_554 S
N505 C506 1.355 . S
N505 C508 1.311 . S
C506 N505 1.355 . S
C506 C507 1.363 . S
C506 H518 0.929 . S
C507 C506 1.363 . S
C507 N509 1.375 . S
C507 H525 0.931 . S
C508 N505 1.311 . S
C508 N509 1.347 . S
C508 H519 0.929 . S
N509 C507 1.375 . S
N509 C508 1.347 . S
C510 C513 1.365 . S
C510 N515 1.328 . S
C510 H516 0.929 . S
C511 C512 1.362 . S
C511 C514 1.378 . S
C511 H526 0.929 . S
C512 C511 1.362 . S
C512 C513 1.366 . S
C513 C510 1.365 . S
C513 C512 1.366 . S
C513 H527 0.930 . S
C514 C511 1.378 . S
C514 N515 1.315 . S
C514 H517 0.930 . S
N515 Co495 2.194 . S
N515 C510 1.328 . S
N515 C514 1.315 . S
H516 C510 0.929 . S
H517 C514 0.930 . S
H518 C506 0.929 . S
H519 C508 0.929 . S
O520 Co495 2.351 . S
O520 C523 1.244 . S
O521 Co495 2.155 . S
O521 C523 1.240 . S
O522 Co495 2.096 . S
O522 C503 1.247 . S
C523 O520 1.244 . S
C523 O521 1.240 . S
H524 C498 0.931 . S
H525 C507 0.931 . S
H526 C511 0.929 . S
H527 C513 0.930 . S
C338 C8 1.595 . S
C61 C259 1.626 1_455 S
C503 C41 1.595 1_556 S
C94 C28 1.627 1_656 S
C74 C272 1.595 . S
C193 C127 1.626 1_455 S
C437 C107 1.595 1_554 S
C470 C140 1.595 1_565 S
C173 C371 1.595 . S
C226 C160 1.626 1_665 S
C404 C206 1.595 1_545 S
C305 C239 1.595 . S
C523 C325 1.626 . S
C292 C358 1.627 . S
C391 C457 1.626 . S
C490 C424 1.626 1_566 S
N14 N5 1.719 . S
N47 N38 1.719 . S
N80 N71 1.719 . S
N113 N104 1.719 . S
N137 N146 1.719 . S
N179 N170 1.719 . S
N212 N203 1.719 . S
N236 N245 1.719 . S
N278 N269 1.719 . S
N302 N311 1.719 . S
N344 N335 1.719 . S
N368 N377 1.719 . S
N410 N401 1.719 . S
N443 N434 1.719 . S
N476 N467 1.719 . S
N509 N500 1.719 . S
C17 C50 1.502 . S
C83 C116 1.502 . S
C149 C182 1.502 . S
C215 C248 1.502 . S
C314 C281 1.502 . S
C347 C380 1.502 . S
C446 C413 1.502 . S
C512 C479 1.502 . S
