# Generated by pormake.
# Topology uku, (4)-cn, num edge types: 1
# Building blocks:
#     Node 0, Type 0, BuildingBlock: CEKHIL_clean_sbu_0, # of connection points: 4
#     Node 1, Type 0, BuildingBlock: CEKHIL_clean_sbu_0, # of connection points: 4
#     Node 2, Type 0, BuildingBlock: CEKHIL_clean_sbu_0, # of connection points: 4
#     Node 3, Type 0, BuildingBlock: CEKHIL_clean_sbu_0, # of connection points: 4
#     Node 4, Type 0, BuildingBlock: CEKHIL_clean_sbu_0, # of connection points: 4
#     Node 5, Type 0, BuildingBlock: CEKHIL_clean_sbu_0, # of connection points: 4
#     Node 6, Type 0, BuildingBlock: CEKHIL_clean_sbu_0, # of connection points: 4
#     Node 7, Type 0, BuildingBlock: CEKHIL_clean_sbu_0, # of connection points: 4
#     Node 8, Type 0, BuildingBlock: CEKHIL_clean_sbu_0, # of connection points: 4
#     Node 9, Type 0, BuildingBlock: CEKHIL_clean_sbu_0, # of connection points: 4
#     Node 10, Type 0, BuildingBlock: CEKHIL_clean_sbu_0, # of connection points: 4
#     Node 11, Type 0, BuildingBlock: CEKHIL_clean_sbu_0, # of connection points: 4
#     Edge 12, Type (0, 0), BuildingBlock: OJICUG_clean_linker_0, # of connection points: 2
#     Edge 13, Type (0, 0), BuildingBlock: OJICUG_clean_linker_0, # of connection points: 2
#     Edge 14, Type (0, 0), BuildingBlock: OJICUG_clean_linker_0, # of connection points: 2
#     Edge 15, Type (0, 0), BuildingBlock: OJICUG_clean_linker_0, # of connection points: 2
#     Edge 16, Type (0, 0), BuildingBlock: OJICUG_clean_linker_0, # of connection points: 2
#     Edge 17, Type (0, 0), BuildingBlock: OJICUG_clean_linker_0, # of connection points: 2
#     Edge 18, Type (0, 0), BuildingBlock: OJICUG_clean_linker_0, # of connection points: 2
#     Edge 19, Type (0, 0), BuildingBlock: OJICUG_clean_linker_0, # of connection points: 2
#     Edge 20, Type (0, 0), BuildingBlock: OJICUG_clean_linker_0, # of connection points: 2
#     Edge 21, Type (0, 0), BuildingBlock: OJICUG_clean_linker_0, # of connection points: 2
#     Edge 22, Type (0, 0), BuildingBlock: OJICUG_clean_linker_0, # of connection points: 2
#     Edge 23, Type (0, 0), BuildingBlock: OJICUG_clean_linker_0, # of connection points: 2
#     Edge 24, Type (0, 0), BuildingBlock: OJICUG_clean_linker_0, # of connection points: 2
#     Edge 25, Type (0, 0), BuildingBlock: OJICUG_clean_linker_0, # of connection points: 2
#     Edge 26, Type (0, 0), BuildingBlock: OJICUG_clean_linker_0, # of connection points: 2
#     Edge 27, Type (0, 0), BuildingBlock: OJICUG_clean_linker_0, # of connection points: 2
#     Edge 28, Type (0, 0), BuildingBlock: OJICUG_clean_linker_0, # of connection points: 2
#     Edge 29, Type (0, 0), BuildingBlock: OJICUG_clean_linker_0, # of connection points: 2
#     Edge 30, Type (0, 0), BuildingBlock: OJICUG_clean_linker_0, # of connection points: 2
#     Edge 31, Type (0, 0), BuildingBlock: OJICUG_clean_linker_0, # of connection points: 2
#     Edge 32, Type (0, 0), BuildingBlock: OJICUG_clean_linker_0, # of connection points: 2
#     Edge 33, Type (0, 0), BuildingBlock: OJICUG_clean_linker_0, # of connection points: 2
#     Edge 34, Type (0, 0), BuildingBlock: OJICUG_clean_linker_0, # of connection points: 2
#     Edge 35, Type (0, 0), BuildingBlock: OJICUG_clean_linker_0, # of connection points: 2
# Relax obj value: 0.372
# Max RMSD: 0.262
# Mean RMSD: 0.262
data_MOF--net-uku--node1-CEKHIL_clean_sbu_0--edge1-OJICUG_clean_linker_0
_symmetry_space_group_name_H-M    P1
_symmetry_Int_Tables_number       1
_symmetry_cell_setting            triclinic
loop_
_symmetry_equiv_pos_as_xyz
'x, y, z'
_cell_length_a     30.098286
_cell_length_b     29.925816
_cell_length_c     30.057165
_cell_angle_alpha  89.310414
_cell_angle_beta   90.475436
_cell_angle_gamma 90.9437
loop_
_atom_site_label
_atom_site_type_symbol
_atom_site_fract_x
_atom_site_fract_y
_atom_site_fract_z
_atom_type_partial_charge
Co0 Co 0.09685 0.19097 0.61581 0.0
O1 O 0.04687 0.20531 0.57883 0.0
O2 O 0.10311 0.16329 0.55848 0.0
C3 C 0.10975 0.26064 0.64147 0.0
O4 O 0.15425 0.16969 0.64501 0.0
Co5 Co 0.09235 0.2048 0.71812 0.0
O6 O 0.15731 0.19485 0.71532 0.0
C7 C 0.04834 0.12569 0.67778 0.0
C8 C 0.06499 0.18103 0.54871 0.0
C9 C 0.17499 0.1764 0.682 0.0
O10 O 0.06425 0.1362 0.63935 0.0
O11 O 0.05319 0.15042 0.71202 0.0
O12 O 0.12565 0.24915 0.60326 0.0
O13 O 0.08373 0.23157 0.66012 0.0
Co14 Co 0.932 0.8619 0.67471 0.0
O15 O 0.98479 0.84152 0.64573 0.0
O16 O 0.92441 0.8669 0.6115 0.0
C17 C 0.92327 0.80496 0.72408 0.0
O18 O 0.87106 0.88394 0.69175 0.0
Co19 Co 0.93337 0.88626 0.77529 0.0
O20 O 0.86862 0.8927 0.76605 0.0
C21 C 0.97123 0.94978 0.70961 0.0
C22 C 0.96392 0.8504 0.6087 0.0
C23 C 0.85038 0.89277 0.72767 0.0
O24 O 0.95769 0.9249 0.67735 0.0
O25 O 0.96784 0.93824 0.75059 0.0
O26 O 0.91032 0.80036 0.68303 0.0
O27 O 0.94596 0.84101 0.73213 0.0
Co28 Co 0.05799 0.80241 0.36665 0.0
O29 O 0.01305 0.78696 0.4092 0.0
O30 O 0.07274 0.82935 0.42297 0.0
C31 C 0.06623 0.7336 0.33809 0.0
O32 O 0.1113 0.82522 0.33164 0.0
Co33 Co 0.0402 0.79068 0.26521 0.0
O34 O 0.10476 0.80446 0.26007 0.0
C35 C 0.00422 0.86871 0.31164 0.0
C36 C 0.03579 0.81124 0.43705 0.0
C37 C 0.12665 0.8219 0.29209 0.0
O38 O 0.02415 0.85723 0.34796 0.0
O39 O 0.00387 0.84478 0.27658 0.0
O40 O 0.08697 0.74447 0.37461 0.0
O41 O 0.03838 0.76249 0.32325 0.0
Co42 Co 0.93372 0.14422 0.31912 0.0
O43 O -0.00874 0.15607 0.34537 0.0
O44 O 0.92912 0.14253 0.38281 0.0
C45 C 0.93647 0.1999 0.2681 0.0
O46 O 0.86861 0.13163 0.30488 0.0
Co47 Co 0.92021 0.12009 0.21961 0.0
O48 O 0.85755 0.13602 0.23105 0.0
C49 C 0.94879 0.05072 0.28508 0.0
C50 C 0.97149 0.15168 0.38347 0.0
C51 C 0.84292 0.13401 0.27065 0.0
O52 O 0.9462 0.07822 0.31758 0.0
O53 O 0.94212 0.06193 0.24432 0.0
O54 O 0.92428 0.20825 0.30852 0.0
O55 O 0.94932 0.15982 0.26107 0.0
Co56 Co 0.63767 0.04679 0.17691 0.0
O57 O 0.59588 0.00389 0.20088 0.0
O58 O 0.57943 0.05822 0.15274 0.0
C59 C 0.67354 0.06523 0.24021 0.0
O60 O 0.67167 0.09714 0.14533 0.0
Co61 Co 0.73864 0.0265 0.18205 0.0
O62 O 0.7453 0.0866 0.15393 0.0
C63 C 0.68299 0.98199 0.11462 0.0
C64 C 0.56644 0.02352 0.17598 0.0
C65 C 0.71247 0.10919 0.1397 0.0
O66 O 0.6498 0.00567 0.12605 0.0
O67 O 0.72021 0.98249 0.13551 0.0
O68 O 0.63588 0.08367 0.23018 0.0
O69 O 0.68443 0.03241 0.21536 0.0
Co70 Co 0.31734 0.92817 0.16121 0.0
O71 O 0.35694 0.97326 0.1841 0.0
O72 O 0.37725 0.91651 0.1423 0.0
C73 C 0.27949 0.91255 0.22362 0.0
O74 O 0.28486 0.87499 0.13298 0.0
Co75 Co 0.21649 0.94969 0.15876 0.0
O76 O 0.21127 0.88673 0.13961 0.0
C77 C 0.27459 0.98878 0.09028 0.0
C78 C 0.38827 0.95254 0.16391 0.0
C79 C 0.24385 0.86266 0.1285 0.0
O80 O 0.30705 0.96583 0.10597 0.0
O81 O 0.23648 0.98977 0.10876 0.0
O82 O 0.31804 0.89489 0.21734 0.0
O83 O 0.26886 0.94393 0.19584 0.0
Co84 Co 0.64005 0.91513 0.8443 0.0
O85 O 0.61264 0.97246 0.84401 0.0
O86 O 0.57669 0.9076 0.85209 0.0
C87 C 0.68306 0.9292 0.78491 0.0
O88 O 0.65716 0.8495 0.84528 0.0
Co89 Co 0.74222 0.90544 0.85603 0.0
O90 O 0.73027 0.84503 0.83188 0.0
C91 C 0.68565 0.92172 0.93447 0.0
C92 C 0.57527 0.95102 0.84957 0.0
C93 C 0.69181 0.82707 0.83554 0.0
O94 O 0.65001 0.91896 0.91056 0.0
O95 O 0.72486 0.91963 0.91842 0.0
O96 O 0.64228 0.91539 0.77898 0.0
O97 O 0.69505 0.93634 0.82541 0.0
Co98 Co 0.35131 0.09095 0.83538 0.0
O99 O 0.37738 0.03351 0.82655 0.0
O100 O 0.41205 0.0923 0.85586 0.0
C101 C 0.31869 0.09684 0.76781 0.0
O102 O 0.33647 0.15559 0.84862 0.0
Co103 Co 0.24937 0.10389 0.83268 0.0
O104 O 0.26671 0.16785 0.82503 0.0
C105 C 0.29165 0.06537 0.91343 0.0
C106 C 0.41337 0.05076 0.84376 0.0
C107 C 0.30469 0.18196 0.83818 0.0
O108 O 0.3304 0.07133 0.89628 0.0
O109 O 0.25547 0.07396 0.89249 0.0
O110 O 0.3604 0.10774 0.77283 0.0
O111 O 0.29966 0.07946 0.80233 0.0
Co112 Co 0.11193 0.64354 0.07833 0.0
O113 O 0.12061 0.62185 0.01905 0.0
O114 O 0.11439 0.57927 0.07963 0.0
C115 C 0.16407 0.69852 0.0743 0.0
O116 O 0.10425 0.65305 0.1449 0.0
Co117 Co 0.08296 0.74032 0.09781 0.0
O118 O 0.10895 0.72672 0.15725 0.0
C119 C 0.01599 0.67261 0.06826 0.0
C120 C 0.12019 0.58209 0.03685 0.0
C121 C 0.1098 0.68637 0.17106 0.0
O122 O 0.04527 0.64162 0.06885 0.0
O123 O 0.02512 0.71361 0.0768 0.0
O124 O 0.17571 0.65794 0.0843 0.0
O125 O 0.12268 0.70359 0.06464 0.0
Co126 Co 0.17043 0.36581 0.89174 0.0
O127 O 0.17346 0.39215 0.94966 0.0
O128 O 0.14703 0.42543 0.88889 0.0
C129 C 0.23964 0.33791 0.89293 0.0
O130 O 0.1628 0.35007 0.82634 0.0
Co131 Co 0.1799 0.26347 0.87918 0.0
O132 O 0.18689 0.28036 0.81555 0.0
C133 C 0.09483 0.29959 0.91065 0.0
C134 C 0.15558 0.42709 0.93136 0.0
C135 C 0.1739 0.31806 0.80076 0.0
O136 O 0.10954 0.33997 0.90536 0.0
O137 O 0.11871 0.26515 0.90478 0.0
O138 O 0.23371 0.37936 0.88118 0.0
O139 O 0.20473 0.3165 0.90634 0.0
Co140 Co 0.79616 0.6194 0.90346 0.0
O141 O 0.77074 0.56735 0.93172 0.0
O142 O 0.82855 0.56741 0.88614 0.0
C143 C 0.7328 0.65202 0.88127 0.0
O144 O 0.82976 0.66638 0.86682 0.0
Co145 Co 0.7778 0.71257 0.94297 0.0
O146 O 0.81133 0.73484 0.89035 0.0
C147 C 0.84458 0.65609 0.98596 0.0
C148 C 0.80158 0.54523 0.91221 0.0
C149 C 0.83183 0.70931 0.86406 0.0
O150 O 0.83946 0.6276 0.95457 0.0
O151 O 0.82016 0.69042 0.9896 0.0
O152 O 0.7493 0.62 0.85797 0.0
O153 O 0.75131 0.65821 0.91962 0.0
Co154 Co 0.83576 0.30451 0.02076 0.0
O155 O 0.80973 0.33395 0.9698 0.0
O156 O 0.8463 0.36787 0.02477 0.0
C157 C 0.77887 0.25755 0.03718 0.0
O158 O 0.86499 0.28605 0.07921 0.0
Co159 Co 0.85488 0.20263 0.01814 0.0
O160 O 0.86686 0.21081 0.08259 0.0
C161 C 0.91626 0.26598 0.97375 0.0
C162 C 0.82526 0.37071 0.98691 0.0
C163 C 0.87228 0.24914 0.10004 0.0
O164 O 0.894 0.29884 0.98868 0.0
O165 O 0.90415 0.22507 0.97903 0.0
O166 O 0.77784 0.29896 0.04982 0.0
O167 O 0.81059 0.2482 0.01044 0.0
C168 C 0.04224 0.15395 0.42786 0.0
C169 C -0.0042 0.158 0.42569 0.0
H170 H 0.1008 0.15733 0.4691 0.0
C171 C 0.97256 0.169 0.46417 0.0
H172 H 0.06088 0.14533 0.3986 0.0
C173 C -0.00465 0.17674 0.50395 0.0
C174 C 0.04173 0.17265 0.50628 0.0
H175 H 0.93678 0.17246 0.46339 0.0
H176 H 0.97654 0.18558 0.53304 0.0
C177 C 0.06502 0.16068 0.46808 0.0
C178 C 0.04679 0.83131 0.51712 0.0
C179 C 0.0183 0.82045 0.48149 0.0
H180 H 0.05174 0.84848 0.5862 0.0
C181 C 0.97219 0.81962 0.48806 0.0
H182 H 0.08249 0.8322 0.51273 0.0
C183 C 0.95473 0.83008 0.52935 0.0
C184 C 0.98308 0.84039 0.56518 0.0
H185 H 0.94949 0.81174 0.461 0.0
H186 H 0.91898 0.8295 0.53339 0.0
C187 C 0.02928 0.84053 0.55897 0.0
C188 C 0.44171 0.01668 0.16421 0.0
C189 C 0.43405 0.97025 0.1652 0.0
H190 H 0.49018 0.07003 0.1658 0.0
C191 C 0.47013 0.94143 0.1692 0.0
H192 H 0.41425 0.03949 0.16099 0.0
C193 C 0.51328 0.95894 0.17351 0.0
C194 C 0.52093 0.0054 0.17232 0.0
H195 H 0.46485 0.90554 0.17022 0.0
H196 H 0.54073 0.93618 0.17718 0.0
C197 C 0.48495 0.03413 0.16693 0.0
C198 C 0.49234 0.95363 0.84405 0.0
C199 C 0.53327 0.97548 0.85158 0.0
H200 H 0.42208 0.96056 0.83525 0.0
C201 C 0.53415 0.02177 0.85893 0.0
H202 H 0.49075 0.91797 0.83832 0.0
C203 C 0.49498 0.04602 0.85763 0.0
C204 C 0.45423 0.02454 0.84835 0.0
H205 H 0.56524 0.03944 0.86518 0.0
H206 H 0.49681 0.08178 0.86275 0.0
C207 C 0.45314 0.97804 0.84212 0.0
C208 C 0.13463 0.5074 0.93741 0.0
C209 C 0.1451 0.46654 0.95806 0.0
H210 H 0.11876 0.57622 0.94626 0.0
C211 C 0.14585 0.46362 0.00476 0.0
H212 H 0.13372 0.51058 0.90148 0.0
C213 C 0.13676 0.50095 0.03036 0.0
C214 C 0.12734 0.54209 0.00976 0.0
H215 H 0.15349 0.43245 0.02162 0.0
H216 H 0.13794 0.49774 0.06628 0.0
C217 C 0.12613 0.54495 0.96305 0.0
C218 C 0.77305 0.46812 0.92699 0.0
C219 C 0.809 0.49847 0.92466 0.0
H220 H 0.7506 0.40271 0.94763 0.0
C221 C 0.85087 0.48573 0.94068 0.0
H222 H 0.74039 0.47768 0.91525 0.0
C223 C 0.8562 0.44387 0.96089 0.0
C224 C 0.82007 0.4138 0.96389 0.0
H225 H 0.8788 0.50905 0.93984 0.0
H226 H 0.8884 0.43511 0.97449 0.0
C227 C 0.77881 0.42558 0.94563 0.0
C228 C 0.25492 0.18181 0.70336 0.0
C229 C 0.21824 0.15572 0.68965 0.0
H230 H 0.31808 0.1825 0.73692 0.0
C231 C 0.22005 0.10905 0.69317 0.0
H232 H 0.25384 0.21793 0.70138 0.0
C233 C 0.25588 0.08899 0.71486 0.0
C234 C 0.29093 0.11529 0.7319 0.0
H235 H 0.19175 0.08845 0.68337 0.0
H236 H 0.25451 0.05332 0.7215 0.0
C237 C 0.29165 0.16154 0.72348 0.0
C238 C 0.72653 0.88421 0.73269 0.0
C239 C 0.71775 0.92588 0.75142 0.0
H240 H 0.77747 0.84052 0.7102 0.0
C241 C 0.75078 0.95945 0.75107 0.0
H242 H 0.70166 0.85762 0.7335 0.0
C243 C 0.79377 0.94966 0.73819 0.0
C244 C 0.80401 0.90633 0.72515 0.0
H245 H 0.74467 0.99166 0.76577 0.0
H246 H 0.81985 0.97468 0.74254 0.0
C247 C 0.76986 0.87432 0.71978 0.0
C248 C 0.24122 0.84189 0.24621 0.0
C249 C 0.24497 0.88863 0.24905 0.0
H250 H 0.19959 0.78395 0.25688 0.0
C251 C 0.21171 0.91243 0.27035 0.0
H252 H 0.26617 0.82295 0.22921 0.0
C253 C 0.17445 0.88991 0.28741 0.0
C254 C 0.16934 0.84363 0.28181 0.0
H255 H 0.21382 0.94853 0.27239 0.0
H256 H 0.14833 0.90899 0.30243 0.0
C257 C 0.20317 0.81962 0.26172 0.0
C258 C 0.72001 0.13345 0.24907 0.0
C259 C 0.70909 0.08985 0.26346 0.0
H260 H 0.77279 0.18153 0.23864 0.0
C261 C 0.73991 0.06578 0.28899 0.0
H262 H 0.69675 0.1524 0.22903 0.0
C263 C 0.78266 0.08317 0.29607 0.0
C264 C 0.79542 0.12401 0.27621 0.0
H265 H 0.73227 0.03191 0.29993 0.0
H266 H 0.80701 0.06248 0.3128 0.0
C267 C 0.76343 0.15 0.25432 0.0
C268 C 0.74065 0.14147 0.06941 0.0
C269 C 0.72251 0.14827 0.11147 0.0
H270 H 0.77134 0.17116 0.01225 0.0
C271 C 0.71816 0.19192 0.12718 0.0
H272 H 0.74412 0.10794 0.05679 0.0
C273 C 0.73406 0.22834 0.10181 0.0
C274 C 0.75428 0.22129 0.06049 0.0
H275 H 0.70449 0.19769 0.15978 0.0
H276 H 0.73262 0.26158 0.11552 0.0
C277 C 0.75613 0.17763 0.04402 0.0
C278 C 0.18003 0.7788 0.06155 0.0
C279 C 0.19267 0.7383 0.08157 0.0
H280 H 0.18713 0.8499 0.06068 0.0
C281 C 0.22802 0.73833 0.11248 0.0
H282 H 0.15319 0.77975 0.03731 0.0
C283 C 0.24789 0.77896 0.12568 0.0
C284 C 0.23233 0.81957 0.10808 0.0
H285 H 0.23816 0.70753 0.12858 0.0
H286 H 0.27295 0.77884 0.15175 0.0
C287 C 0.19948 0.81896 0.07482 0.0
C288 C 0.72563 0.70826 0.82069 0.0
C289 C 0.70897 0.68916 0.86017 0.0
H290 H 0.73367 0.76853 0.78206 0.0
C291 C 0.67836 0.71287 0.88526 0.0
H292 H 0.74973 0.69075 0.8011 0.0
C293 C 0.66806 0.75683 0.87359 0.0
C294 C 0.68957 0.77797 0.83761 0.0
H295 H 0.66545 0.6988 0.91603 0.0
H296 H 0.64727 0.77567 0.89558 0.0
C297 C 0.71667 0.75279 0.80993 0.0
C298 C 0.29691 0.26249 0.81896 0.0
C299 C 0.30815 0.22924 0.85022 0.0
H300 H 0.26997 0.32767 0.80896 0.0
C301 C 0.31084 0.24001 0.89541 0.0
H302 H 0.29458 0.25471 0.78389 0.0
C303 C 0.29508 0.28096 0.90979 0.0
C304 C 0.27774 0.31177 0.87895 0.0
H305 H 0.31925 0.21472 0.92004 0.0
H306 H 0.29104 0.28599 0.94516 0.0
C307 C 0.28308 0.3043 0.83333 0.0
C308 C 0.12787 0.70783 0.29173 0.0
C309 C 0.08402 0.70163 0.30643 0.0
H310 H 0.17065 0.70832 0.23489 0.0
C311 C 0.05364 0.67766 0.27983 0.0
H312 H 0.15176 0.72652 0.31159 0.0
C313 C 0.06489 0.66607 0.23655 0.0
C314 C 0.10621 0.67939 0.21928 0.0
H315 H 0.01956 0.67283 0.29044 0.0
H316 H 0.03932 0.65218 0.21493 0.0
C317 C 0.13862 0.69774 0.2478 0.0
C318 C 0.17649 0.2904 0.67986 0.0
C319 C 0.13113 0.29447 0.66974 0.0
H320 H 0.22598 0.29391 0.73157 0.0
C321 C 0.1041 0.3186 0.69836 0.0
H322 H 0.1979 0.27177 0.65829 0.0
C323 C 0.12048 0.33254 0.73959 0.0
C324 C 0.16363 0.3212 0.75295 0.0
H325 H 0.06895 0.32192 0.69119 0.0
H326 H 0.09767 0.34678 0.76303 0.0
C327 C 0.19246 0.3027 0.72189 0.0
C328 C 0.858 0.71419 0.78526 0.0
C329 C 0.85884 0.73059 0.82883 0.0
H330 H 0.87749 0.72536 0.71745 0.0
C331 C 0.88394 0.76926 0.83826 0.0
H332 H 0.83871 0.68443 0.77725 0.0
C333 C 0.90703 0.79183 0.80457 0.0
C334 C 0.90427 0.77708 0.76041 0.0
H335 H 0.8854 0.78228 0.87174 0.0
H336 H 0.92572 0.82174 0.81307 0.0
C337 C 0.88011 0.7376 0.75115 0.0
C338 C 0.95246 0.22735 0.19245 0.0
C339 C 0.92449 0.22784 0.22954 0.0
H340 H 0.95727 0.23452 0.12172 0.0
C341 C 0.88111 0.24397 0.2247 0.0
H342 H 0.98586 0.21459 0.19544 0.0
C343 C 0.86459 0.25493 0.18226 0.0
C344 C 0.89162 0.2503 0.14482 0.0
H345 H 0.85867 0.24356 0.2527 0.0
H346 H 0.8299 0.26339 0.17831 0.0
C347 C 0.93612 0.23846 0.15037 0.0
C348 C 0.01242 0.06823 0.72701 0.0
C349 C 0.026 0.08155 0.68418 0.0
H350 H 0.9851 0.01684 0.76842 0.0
C351 C 0.02038 0.05132 0.64894 0.0
H352 H 0.01606 0.09041 0.75506 0.0
C353 C 0.00228 0.00844 0.65672 0.0
C354 C 0.98988 -0.00502 0.69993 0.0
H355 H 0.0305 0.0605 0.61552 0.0
H356 H -0.00135 0.98571 0.62912 0.0
C357 C -0.00518 0.02563 0.73477 0.0
C358 C 0.95229 0.97148 0.2611 0.0
C359 C 0.95945 0.00341 0.29441 0.0
H360 H 0.95961 0.90417 0.24075 0.0
C361 C 0.9774 0.98959 0.33556 0.0
H362 H 0.93778 0.98066 0.22924 0.0
C363 C -0.00991 0.94514 0.34227 0.0
C364 C 0.98475 0.91377 0.30801 0.0
H365 H 0.98299 0.01334 0.36202 0.0
H366 H 0.00546 0.93583 0.37366 0.0
C367 C 0.9646 0.92731 0.26784 0.0
C368 C 0.64257 0.94598 0.00088 0.0
C369 C 0.68196 0.92983 0.9827 0.0
H370 H 0.61167 0.97472 0.0574 0.0
C371 C 0.71934 0.92462 0.01051 0.0
H372 H 0.61307 0.94996 0.98042 0.0
C373 C 0.7185 0.93844 0.05456 0.0
C374 C 0.68034 0.95812 0.07181 0.0
H375 H 0.74999 0.91146 -0.00219 0.0
H376 H 0.7487 0.93593 0.07422 0.0
C377 C 0.64179 0.96011 0.04505 0.0
C378 C 0.32166 0.01328 0.02537 0.0
C379 C 0.28024 0.01199 0.04678 0.0
H380 H 0.35789 0.03111 0.96655 0.0
C381 C 0.24328 0.0302 0.02464 0.0
H382 H 0.35087 -0.00035 0.04147 0.0
C383 C 0.24723 0.04783 0.98167 0.0
C384 C 0.28831 0.04803 0.95972 0.0
H385 H 0.21083 0.02981 0.03997 0.0
H386 H 0.21779 0.06091 0.96553 0.0
C387 C 0.32569 0.03125 0.98235 0.0
C388 C 0.8935 0.68668 0.04632 0.0
C389 C 0.88465 0.6532 0.01492 0.0
H390 H 0.94181 0.71876 0.08794 0.0
C391 C 0.91761 0.62144 0.00687 0.0
H392 H 0.86886 0.71139 0.05391 0.0
C393 C 0.95978 0.62568 0.02667 0.0
C394 C 0.96969 0.66185 0.05463 0.0
H395 H 0.91186 0.59495 0.98316 0.0
H396 H 0.98534 0.60242 0.01775 0.0
C397 C 0.93552 0.69105 0.06575 0.0
C398 C 0.02049 0.3276 0.93493 0.0
C399 C 0.04799 0.29188 0.924 0.0
H400 H 0.95706 0.34762 0.95875 0.0
C401 C 0.03043 0.24807 0.92631 0.0
H402 H 0.03281 0.36178 0.93319 0.0
C403 C 0.9871 0.23997 0.9406 0.0
C404 C 0.96007 0.27544 0.95317 0.0
H405 H 0.05036 0.21967 0.9177 0.0
H406 H 0.97532 0.20564 0.94294 0.0
C407 C 0.97698 0.31946 0.94942 0.0
loop_
_geom_bond_atom_site_label_1
_geom_bond_atom_site_label_2
_geom_bond_distance
_geom_bond_site_symmetry_2
_ccdc_geom_bond_type
Co0 O1 2.216 . S
Co0 O2 2.091 . S
Co0 O4 2.004 . S
Co0 O10 2.021 . S
Co0 O12 2.137 . S
Co0 O13 2.244 . S
O1 Co0 2.216 . S
O1 C8 1.247 . S
O2 Co0 2.091 . S
O2 C8 1.261 . S
C3 O12 1.247 . S
C3 O13 1.272 . S
O4 Co0 2.004 . S
O4 C9 1.259 . S
Co5 O6 2.061 . S
Co5 O11 2.052 . S
Co5 O13 2.135 . S
O6 Co5 2.061 . S
O6 C9 1.235 . S
C7 O10 1.238 . S
C7 O11 1.241 . S
C8 O1 1.247 . S
C8 O2 1.261 . S
C9 O4 1.259 . S
C9 O6 1.235 . S
O10 Co0 2.021 . S
O10 C7 1.238 . S
O11 Co5 2.052 . S
O11 C7 1.241 . S
O12 Co0 2.137 . S
O12 C3 1.247 . S
O13 Co0 2.244 . S
O13 C3 1.272 . S
O13 Co5 2.135 . S
Co14 O15 2.216 . S
Co14 O16 2.091 . S
Co14 O18 2.004 . S
Co14 O24 2.021 . S
Co14 O26 2.137 . S
Co14 O27 2.244 . S
O15 Co14 2.216 . S
O15 C22 1.247 . S
O16 Co14 2.091 . S
O16 C22 1.261 . S
C17 O26 1.247 . S
C17 O27 1.272 . S
O18 Co14 2.004 . S
O18 C23 1.259 . S
Co19 O20 2.061 . S
Co19 O25 2.052 . S
Co19 O27 2.135 . S
O20 Co19 2.061 . S
O20 C23 1.235 . S
C21 O24 1.238 . S
C21 O25 1.241 . S
C22 O15 1.247 . S
C22 O16 1.261 . S
C23 O18 1.259 . S
C23 O20 1.235 . S
O24 Co14 2.021 . S
O24 C21 1.238 . S
O25 Co19 2.052 . S
O25 C21 1.241 . S
O26 Co14 2.137 . S
O26 C17 1.247 . S
O27 Co14 2.244 . S
O27 C17 1.272 . S
O27 Co19 2.135 . S
Co28 O29 2.216 . S
Co28 O30 2.091 . S
Co28 O32 2.004 . S
Co28 O38 2.021 . S
Co28 O40 2.137 . S
Co28 O41 2.244 . S
O29 Co28 2.216 . S
O29 C36 1.247 . S
O30 Co28 2.091 . S
O30 C36 1.261 . S
C31 O40 1.247 . S
C31 O41 1.272 . S
O32 Co28 2.004 . S
O32 C37 1.259 . S
Co33 O34 2.061 . S
Co33 O39 2.052 . S
Co33 O41 2.135 . S
O34 Co33 2.061 . S
O34 C37 1.235 . S
C35 O38 1.238 . S
C35 O39 1.241 . S
C36 O29 1.247 . S
C36 O30 1.261 . S
C37 O32 1.259 . S
C37 O34 1.235 . S
O38 Co28 2.021 . S
O38 C35 1.238 . S
O39 Co33 2.052 . S
O39 C35 1.241 . S
O40 Co28 2.137 . S
O40 C31 1.247 . S
O41 Co28 2.244 . S
O41 C31 1.272 . S
O41 Co33 2.135 . S
Co42 O43 2.216 . S
Co42 O44 2.091 . S
Co42 O46 2.004 . S
Co42 O52 2.021 . S
Co42 O54 2.137 . S
Co42 O55 2.244 . S
O43 Co42 2.216 . S
O43 C50 1.247 . S
O44 Co42 2.091 . S
O44 C50 1.261 . S
C45 O54 1.247 . S
C45 O55 1.272 . S
O46 Co42 2.004 . S
O46 C51 1.259 . S
Co47 O48 2.061 . S
Co47 O53 2.052 . S
Co47 O55 2.135 . S
O48 Co47 2.061 . S
O48 C51 1.235 . S
C49 O52 1.238 . S
C49 O53 1.241 . S
C50 O43 1.247 . S
C50 O44 1.261 . S
C51 O46 1.259 . S
C51 O48 1.235 . S
O52 Co42 2.021 . S
O52 C49 1.238 . S
O53 Co47 2.052 . S
O53 C49 1.241 . S
O54 Co42 2.137 . S
O54 C45 1.247 . S
O55 Co42 2.244 . S
O55 C45 1.272 . S
O55 Co47 2.135 . S
Co56 O57 2.216 . S
Co56 O58 2.091 . S
Co56 O60 2.004 . S
Co56 O66 2.021 . S
Co56 O68 2.137 . S
Co56 O69 2.244 . S
O57 Co56 2.216 . S
O57 C64 1.247 . S
O58 Co56 2.091 . S
O58 C64 1.261 . S
C59 O68 1.247 . S
C59 O69 1.272 . S
O60 Co56 2.004 . S
O60 C65 1.259 . S
Co61 O62 2.061 . S
Co61 O67 2.052 . S
Co61 O69 2.135 . S
O62 Co61 2.061 . S
O62 C65 1.235 . S
C63 O66 1.238 . S
C63 O67 1.241 . S
C64 O57 1.247 . S
C64 O58 1.261 . S
C65 O60 1.259 . S
C65 O62 1.235 . S
O66 Co56 2.021 . S
O66 C63 1.238 . S
O67 Co61 2.052 . S
O67 C63 1.241 . S
O68 Co56 2.137 . S
O68 C59 1.247 . S
O69 Co56 2.244 . S
O69 C59 1.272 . S
O69 Co61 2.135 . S
Co70 O71 2.216 . S
Co70 O72 2.091 . S
Co70 O74 2.004 . S
Co70 O80 2.021 . S
Co70 O82 2.137 . S
Co70 O83 2.244 . S
O71 Co70 2.216 . S
O71 C78 1.247 . S
O72 Co70 2.091 . S
O72 C78 1.261 . S
C73 O82 1.247 . S
C73 O83 1.272 . S
O74 Co70 2.004 . S
O74 C79 1.259 . S
Co75 O76 2.061 . S
Co75 O81 2.052 . S
Co75 O83 2.135 . S
O76 Co75 2.061 . S
O76 C79 1.235 . S
C77 O80 1.238 . S
C77 O81 1.241 . S
C78 O71 1.247 . S
C78 O72 1.261 . S
C79 O74 1.259 . S
C79 O76 1.235 . S
O80 Co70 2.021 . S
O80 C77 1.238 . S
O81 Co75 2.052 . S
O81 C77 1.241 . S
O82 Co70 2.137 . S
O82 C73 1.247 . S
O83 Co70 2.244 . S
O83 C73 1.272 . S
O83 Co75 2.135 . S
Co84 O85 2.216 . S
Co84 O86 2.091 . S
Co84 O88 2.004 . S
Co84 O94 2.021 . S
Co84 O96 2.137 . S
Co84 O97 2.244 . S
O85 Co84 2.216 . S
O85 C92 1.247 . S
O86 Co84 2.091 . S
O86 C92 1.261 . S
C87 O96 1.247 . S
C87 O97 1.272 . S
O88 Co84 2.004 . S
O88 C93 1.259 . S
Co89 O90 2.061 . S
Co89 O95 2.052 . S
Co89 O97 2.135 . S
O90 Co89 2.061 . S
O90 C93 1.235 . S
C91 O94 1.238 . S
C91 O95 1.241 . S
C92 O85 1.247 . S
C92 O86 1.261 . S
C93 O88 1.259 . S
C93 O90 1.235 . S
O94 Co84 2.021 . S
O94 C91 1.238 . S
O95 Co89 2.052 . S
O95 C91 1.241 . S
O96 Co84 2.137 . S
O96 C87 1.247 . S
O97 Co84 2.244 . S
O97 C87 1.272 . S
O97 Co89 2.135 . S
Co98 O99 2.216 . S
Co98 O100 2.091 . S
Co98 O102 2.004 . S
Co98 O108 2.021 . S
Co98 O110 2.137 . S
Co98 O111 2.244 . S
O99 Co98 2.216 . S
O99 C106 1.247 . S
O100 Co98 2.091 . S
O100 C106 1.261 . S
C101 O110 1.247 . S
C101 O111 1.272 . S
O102 Co98 2.004 . S
O102 C107 1.259 . S
Co103 O104 2.061 . S
Co103 O109 2.052 . S
Co103 O111 2.135 . S
O104 Co103 2.061 . S
O104 C107 1.235 . S
C105 O108 1.238 . S
C105 O109 1.241 . S
C106 O99 1.247 . S
C106 O100 1.261 . S
C107 O102 1.259 . S
C107 O104 1.235 . S
O108 Co98 2.021 . S
O108 C105 1.238 . S
O109 Co103 2.052 . S
O109 C105 1.241 . S
O110 Co98 2.137 . S
O110 C101 1.247 . S
O111 Co98 2.244 . S
O111 C101 1.272 . S
O111 Co103 2.135 . S
Co112 O113 2.216 . S
Co112 O114 2.091 . S
Co112 O116 2.004 . S
Co112 O122 2.021 . S
Co112 O124 2.137 . S
Co112 O125 2.244 . S
O113 Co112 2.216 . S
O113 C120 1.247 . S
O114 Co112 2.091 . S
O114 C120 1.261 . S
C115 O124 1.247 . S
C115 O125 1.272 . S
O116 Co112 2.004 . S
O116 C121 1.259 . S
Co117 O118 2.061 . S
Co117 O123 2.052 . S
Co117 O125 2.135 . S
O118 Co117 2.061 . S
O118 C121 1.235 . S
C119 O122 1.238 . S
C119 O123 1.241 . S
C120 O113 1.247 . S
C120 O114 1.261 . S
C121 O116 1.259 . S
C121 O118 1.235 . S
O122 Co112 2.021 . S
O122 C119 1.238 . S
O123 Co117 2.052 . S
O123 C119 1.241 . S
O124 Co112 2.137 . S
O124 C115 1.247 . S
O125 Co112 2.244 . S
O125 C115 1.272 . S
O125 Co117 2.135 . S
Co126 O127 2.216 . S
Co126 O128 2.091 . S
Co126 O130 2.004 . S
Co126 O136 2.021 . S
Co126 O138 2.137 . S
Co126 O139 2.244 . S
O127 Co126 2.216 . S
O127 C134 1.247 . S
O128 Co126 2.091 . S
O128 C134 1.261 . S
C129 O138 1.247 . S
C129 O139 1.272 . S
O130 Co126 2.004 . S
O130 C135 1.259 . S
Co131 O132 2.061 . S
Co131 O137 2.052 . S
Co131 O139 2.135 . S
O132 Co131 2.061 . S
O132 C135 1.235 . S
C133 O136 1.238 . S
C133 O137 1.241 . S
C134 O127 1.247 . S
C134 O128 1.261 . S
C135 O130 1.259 . S
C135 O132 1.235 . S
O136 Co126 2.021 . S
O136 C133 1.238 . S
O137 Co131 2.052 . S
O137 C133 1.241 . S
O138 Co126 2.137 . S
O138 C129 1.247 . S
O139 Co126 2.244 . S
O139 C129 1.272 . S
O139 Co131 2.135 . S
Co140 O141 2.216 . S
Co140 O142 2.091 . S
Co140 O144 2.004 . S
Co140 O150 2.021 . S
Co140 O152 2.137 . S
Co140 O153 2.244 . S
O141 Co140 2.216 . S
O141 C148 1.247 . S
O142 Co140 2.091 . S
O142 C148 1.261 . S
C143 O152 1.247 . S
C143 O153 1.272 . S
O144 Co140 2.004 . S
O144 C149 1.259 . S
Co145 O146 2.061 . S
Co145 O151 2.052 . S
Co145 O153 2.135 . S
O146 Co145 2.061 . S
O146 C149 1.235 . S
C147 O150 1.238 . S
C147 O151 1.241 . S
C148 O141 1.247 . S
C148 O142 1.261 . S
C149 O144 1.259 . S
C149 O146 1.235 . S
O150 Co140 2.021 . S
O150 C147 1.238 . S
O151 Co145 2.052 . S
O151 C147 1.241 . S
O152 Co140 2.137 . S
O152 C143 1.247 . S
O153 Co140 2.244 . S
O153 C143 1.272 . S
O153 Co145 2.135 . S
Co154 O155 2.216 . S
Co154 O156 2.091 . S
Co154 O158 2.004 . S
Co154 O164 2.021 . S
Co154 O166 2.137 . S
Co154 O167 2.244 . S
O155 Co154 2.216 . S
O155 C162 1.247 . S
O156 Co154 2.091 . S
O156 C162 1.261 . S
C157 O166 1.247 . S
C157 O167 1.272 . S
O158 Co154 2.004 . S
O158 C163 1.259 . S
Co159 O160 2.061 . S
Co159 O165 2.052 . S
Co159 O167 2.135 . S
O160 Co159 2.061 . S
O160 C163 1.235 . S
C161 O164 1.238 . S
C161 O165 1.241 . S
C162 O155 1.247 . S
C162 O156 1.261 . S
C163 O158 1.259 . S
C163 O160 1.235 . S
O164 Co154 2.021 . S
O164 C161 1.238 . S
O165 Co159 2.052 . S
O165 C161 1.241 . S
O166 Co154 2.137 . S
O166 C157 1.247 . S
O167 Co154 2.244 . S
O167 C157 1.272 . S
O167 Co159 2.135 . S
C168 C169 1.387 . S
C168 H172 0.950 . S
C168 C177 1.390 1_655 S
C169 C168 1.387 . S
C169 C171 1.387 . S
H170 C177 0.950 . S
C171 C169 1.387 . S
C171 C173 1.390 1_655 S
C171 H175 0.950 . S
H172 C168 0.950 . S
C173 C171 1.390 1_455 S
C173 C174 1.387 . S
C173 H176 0.950 . S
C174 C173 1.387 . S
C174 C177 1.387 . S
H175 C171 0.950 . S
H176 C173 0.950 . S
C177 C168 1.390 1_455 S
C177 H170 0.950 . S
C177 C174 1.387 . S
C178 C179 1.387 . S
C178 H182 0.950 . S
C178 C187 1.390 1_455 S
C179 C178 1.387 . S
C179 C181 1.387 . S
H180 C187 0.950 . S
C181 C179 1.387 . S
C181 C183 1.390 1_455 S
C181 H185 0.950 . S
H182 C178 0.950 . S
C183 C181 1.390 1_655 S
C183 C184 1.387 . S
C183 H186 0.950 . S
C184 C183 1.387 . S
C184 C187 1.387 . S
H185 C181 0.950 . S
H186 C183 0.950 . S
C187 C178 1.390 1_655 S
C187 H180 0.950 . S
C187 C184 1.387 . S
C188 C189 1.387 . S
C188 H192 0.950 . S
C188 C197 1.390 1_565 S
C189 C188 1.387 . S
C189 C191 1.387 . S
H190 C197 0.950 . S
C191 C189 1.387 . S
C191 C193 1.390 1_565 S
C191 H195 0.950 . S
H192 C188 0.950 . S
C193 C191 1.390 1_545 S
C193 C194 1.387 . S
C193 H196 0.950 . S
C194 C193 1.387 . S
C194 C197 1.387 . S
H195 C191 0.950 . S
H196 C193 0.950 . S
C197 C188 1.390 1_545 S
C197 H190 0.950 . S
C197 C194 1.387 . S
C198 C199 1.387 . S
C198 H202 0.950 . S
C198 C207 1.390 1_565 S
C199 C198 1.387 . S
C199 C201 1.387 . S
H200 C207 0.950 . S
C201 C199 1.387 . S
C201 C203 1.390 1_565 S
C201 H205 0.950 . S
H202 C198 0.950 . S
C203 C201 1.390 1_545 S
C203 C204 1.387 . S
C203 H206 0.950 . S
C204 C203 1.387 . S
C204 C207 1.387 . S
H205 C201 0.950 . S
H206 C203 0.950 . S
C207 C198 1.390 1_545 S
C207 H200 0.950 . S
C207 C204 1.387 . S
C208 C209 1.387 . S
C208 H212 0.950 . S
C208 C217 1.390 1_556 S
C209 C208 1.387 . S
C209 C211 1.387 . S
H210 C217 0.950 . S
C211 C209 1.387 . S
C211 C213 1.390 1_556 S
C211 H215 0.950 . S
H212 C208 0.950 . S
C213 C211 1.390 1_554 S
C213 C214 1.387 . S
C213 H216 0.950 . S
C214 C213 1.387 . S
C214 C217 1.387 . S
H215 C211 0.950 . S
H216 C213 0.950 . S
C217 C208 1.390 1_554 S
C217 H210 0.950 . S
C217 C214 1.387 . S
C218 C219 1.387 . S
C218 H222 0.950 . S
C218 C227 1.390 1_556 S
C219 C218 1.387 . S
C219 C221 1.387 . S
H220 C227 0.950 . S
C221 C219 1.387 . S
C221 C223 1.390 1_556 S
C221 H225 0.950 . S
H222 C218 0.950 . S
C223 C221 1.390 1_554 S
C223 C224 1.387 . S
C223 H226 0.950 . S
C224 C223 1.387 . S
C224 C227 1.387 . S
H225 C221 0.950 . S
H226 C223 0.950 . S
C227 C218 1.390 1_554 S
C227 H220 0.950 . S
C227 C224 1.387 . S
C228 C229 1.387 . S
C228 H232 0.950 . S
C228 C237 1.390 . S
C229 C228 1.387 . S
C229 C231 1.387 . S
H230 C237 0.950 . S
C231 C229 1.387 . S
C231 C233 1.390 . S
C231 H235 0.950 . S
H232 C228 0.950 . S
C233 C231 1.390 . S
C233 C234 1.387 . S
C233 H236 0.950 . S
C234 C233 1.387 . S
C234 C237 1.387 . S
H235 C231 0.950 . S
H236 C233 0.950 . S
C237 C228 1.390 . S
C237 H230 0.950 . S
C237 C234 1.387 . S
C238 C239 1.387 . S
C238 H242 0.950 . S
C238 C247 1.390 . S
C239 C238 1.387 . S
C239 C241 1.387 . S
H240 C247 0.950 . S
C241 C239 1.387 . S
C241 C243 1.390 . S
C241 H245 0.950 . S
H242 C238 0.950 . S
C243 C241 1.390 . S
C243 C244 1.387 . S
C243 H246 0.950 . S
C244 C243 1.387 . S
C244 C247 1.387 . S
H245 C241 0.950 . S
H246 C243 0.950 . S
C247 C238 1.390 . S
C247 H240 0.950 . S
C247 C244 1.387 . S
C248 C249 1.387 . S
C248 H252 0.950 . S
C248 C257 1.390 . S
C249 C248 1.387 . S
C249 C251 1.387 . S
H250 C257 0.950 . S
C251 C249 1.387 . S
C251 C253 1.390 . S
C251 H255 0.950 . S
H252 C248 0.950 . S
C253 C251 1.390 . S
C253 C254 1.387 . S
C253 H256 0.950 . S
C254 C253 1.387 . S
C254 C257 1.387 . S
H255 C251 0.950 . S
H256 C253 0.950 . S
C257 C248 1.390 . S
C257 H250 0.950 . S
C257 C254 1.387 . S
C258 C259 1.387 . S
C258 H262 0.950 . S
C258 C267 1.390 . S
C259 C258 1.387 . S
C259 C261 1.387 . S
H260 C267 0.950 . S
C261 C259 1.387 . S
C261 C263 1.390 . S
C261 H265 0.950 . S
H262 C258 0.950 . S
C263 C261 1.390 . S
C263 C264 1.387 . S
C263 H266 0.950 . S
C264 C263 1.387 . S
C264 C267 1.387 . S
H265 C261 0.950 . S
H266 C263 0.950 . S
C267 C258 1.390 . S
C267 H260 0.950 . S
C267 C264 1.387 . S
C268 C269 1.387 . S
C268 H272 0.950 . S
C268 C277 1.390 . S
C269 C268 1.387 . S
C269 C271 1.387 . S
H270 C277 0.950 . S
C271 C269 1.387 . S
C271 C273 1.390 . S
C271 H275 0.950 . S
H272 C268 0.950 . S
C273 C271 1.390 . S
C273 C274 1.387 . S
C273 H276 0.950 . S
C274 C273 1.387 . S
C274 C277 1.387 . S
H275 C271 0.950 . S
H276 C273 0.950 . S
C277 C268 1.390 . S
C277 H270 0.950 . S
C277 C274 1.387 . S
C278 C279 1.387 . S
C278 H282 0.950 . S
C278 C287 1.390 . S
C279 C278 1.387 . S
C279 C281 1.387 . S
H280 C287 0.950 . S
C281 C279 1.387 . S
C281 C283 1.390 . S
C281 H285 0.950 . S
H282 C278 0.950 . S
C283 C281 1.390 . S
C283 C284 1.387 . S
C283 H286 0.950 . S
C284 C283 1.387 . S
C284 C287 1.387 . S
H285 C281 0.950 . S
H286 C283 0.950 . S
C287 C278 1.390 . S
C287 H280 0.950 . S
C287 C284 1.387 . S
C288 C289 1.387 . S
C288 H292 0.950 . S
C288 C297 1.390 . S
C289 C288 1.387 . S
C289 C291 1.387 . S
H290 C297 0.950 . S
C291 C289 1.387 . S
C291 C293 1.390 . S
C291 H295 0.950 . S
H292 C288 0.950 . S
C293 C291 1.390 . S
C293 C294 1.387 . S
C293 H296 0.950 . S
C294 C293 1.387 . S
C294 C297 1.387 . S
H295 C291 0.950 . S
H296 C293 0.950 . S
C297 C288 1.390 . S
C297 H290 0.950 . S
C297 C294 1.387 . S
C298 C299 1.387 . S
C298 H302 0.950 . S
C298 C307 1.390 . S
C299 C298 1.387 . S
C299 C301 1.387 . S
H300 C307 0.950 . S
C301 C299 1.387 . S
C301 C303 1.390 . S
C301 H305 0.950 . S
H302 C298 0.950 . S
C303 C301 1.390 . S
C303 C304 1.387 . S
C303 H306 0.950 . S
C304 C303 1.387 . S
C304 C307 1.387 . S
H305 C301 0.950 . S
H306 C303 0.950 . S
C307 C298 1.390 . S
C307 H300 0.950 . S
C307 C304 1.387 . S
C308 C309 1.387 . S
C308 H312 0.950 . S
C308 C317 1.390 . S
C309 C308 1.387 . S
C309 C311 1.387 . S
H310 C317 0.950 . S
C311 C309 1.387 . S
C311 C313 1.390 . S
C311 H315 0.950 . S
H312 C308 0.950 . S
C313 C311 1.390 . S
C313 C314 1.387 . S
C313 H316 0.950 . S
C314 C313 1.387 . S
C314 C317 1.387 . S
H315 C311 0.950 . S
H316 C313 0.950 . S
C317 C308 1.390 . S
C317 H310 0.950 . S
C317 C314 1.387 . S
C318 C319 1.387 . S
C318 H322 0.950 . S
C318 C327 1.390 . S
C319 C318 1.387 . S
C319 C321 1.387 . S
H320 C327 0.950 . S
C321 C319 1.387 . S
C321 C323 1.390 . S
C321 H325 0.950 . S
H322 C318 0.950 . S
C323 C321 1.390 . S
C323 C324 1.387 . S
C323 H326 0.950 . S
C324 C323 1.387 . S
C324 C327 1.387 . S
H325 C321 0.950 . S
H326 C323 0.950 . S
C327 C318 1.390 . S
C327 H320 0.950 . S
C327 C324 1.387 . S
C328 C329 1.387 . S
C328 H332 0.950 . S
C328 C337 1.390 . S
C329 C328 1.387 . S
C329 C331 1.387 . S
H330 C337 0.950 . S
C331 C329 1.387 . S
C331 C333 1.390 . S
C331 H335 0.950 . S
H332 C328 0.950 . S
C333 C331 1.390 . S
C333 C334 1.387 . S
C333 H336 0.950 . S
C334 C333 1.387 . S
C334 C337 1.387 . S
H335 C331 0.950 . S
H336 C333 0.950 . S
C337 C328 1.390 . S
C337 H330 0.950 . S
C337 C334 1.387 . S
C338 C339 1.387 . S
C338 H342 0.950 . S
C338 C347 1.390 . S
C339 C338 1.387 . S
C339 C341 1.387 . S
H340 C347 0.950 . S
C341 C339 1.387 . S
C341 C343 1.390 . S
C341 H345 0.950 . S
H342 C338 0.950 . S
C343 C341 1.390 . S
C343 C344 1.387 . S
C343 H346 0.950 . S
C344 C343 1.387 . S
C344 C347 1.387 . S
H345 C341 0.950 . S
H346 C343 0.950 . S
C347 C338 1.390 . S
C347 H340 0.950 . S
C347 C344 1.387 . S
C348 C349 1.387 . S
C348 H352 0.950 . S
C348 C357 1.390 1_445 S
C349 C348 1.387 . S
C349 C351 1.387 . S
H350 C357 0.950 . S
C351 C349 1.387 . S
C351 C353 1.390 1_445 S
C351 H355 0.950 . S
H352 C348 0.950 . S
C353 C351 1.390 1_665 S
C353 C354 1.387 . S
C353 H356 0.950 . S
C354 C353 1.387 . S
C354 C357 1.387 . S
H355 C351 0.950 . S
H356 C353 0.950 . S
C357 C348 1.390 1_665 S
C357 H350 0.950 . S
C357 C354 1.387 . S
C358 C359 1.387 . S
C358 H362 0.950 . S
C358 C367 1.390 1_645 S
C359 C358 1.387 . S
C359 C361 1.387 . S
H360 C367 0.950 . S
C361 C359 1.387 . S
C361 C363 1.390 1_645 S
C361 H365 0.950 . S
H362 C358 0.950 . S
C363 C361 1.390 1_465 S
C363 C364 1.387 . S
C363 H366 0.950 . S
C364 C363 1.387 . S
C364 C367 1.387 . S
H365 C361 0.950 . S
H366 C363 0.950 . S
C367 C358 1.390 1_465 S
C367 H360 0.950 . S
C367 C364 1.387 . S
C368 C369 1.387 . S
C368 H372 0.950 . S
C368 C377 1.390 1_566 S
C369 C368 1.387 . S
C369 C371 1.387 . S
H370 C377 0.950 . S
C371 C369 1.387 . S
C371 C373 1.390 1_566 S
C371 H375 0.950 . S
H372 C368 0.950 . S
C373 C371 1.390 1_544 S
C373 C374 1.387 . S
C373 H376 0.950 . S
C374 C373 1.387 . S
C374 C377 1.387 . S
H375 C371 0.950 . S
H376 C373 0.950 . S
C377 C368 1.390 1_544 S
C377 H370 0.950 . S
C377 C374 1.387 . S
C378 C379 1.387 . S
C378 H382 0.950 . S
C378 C387 1.390 1_564 S
C379 C378 1.387 . S
C379 C381 1.387 . S
H380 C387 0.950 . S
C381 C379 1.387 . S
C381 C383 1.390 1_564 S
C381 H385 0.950 . S
H382 C378 0.950 . S
C383 C381 1.390 1_546 S
C383 C384 1.387 . S
C383 H386 0.950 . S
C384 C383 1.387 . S
C384 C387 1.387 . S
H385 C381 0.950 . S
H386 C383 0.950 . S
C387 C378 1.390 1_546 S
C387 H380 0.950 . S
C387 C384 1.387 . S
C388 C389 1.387 . S
C388 H392 0.950 . S
C388 C397 1.390 1_656 S
C389 C388 1.387 . S
C389 C391 1.387 . S
H390 C397 0.950 . S
C391 C389 1.387 . S
C391 C393 1.390 1_656 S
C391 H395 0.950 . S
H392 C388 0.950 . S
C393 C391 1.390 1_454 S
C393 C394 1.387 . S
C393 H396 0.950 . S
C394 C393 1.387 . S
C394 C397 1.387 . S
H395 C391 0.950 . S
H396 C393 0.950 . S
C397 C388 1.390 1_454 S
C397 H390 0.950 . S
C397 C394 1.387 . S
C398 C399 1.387 . S
C398 H402 0.950 . S
C398 C407 1.390 1_456 S
C399 C398 1.387 . S
C399 C401 1.387 . S
H400 C407 0.950 . S
C401 C399 1.387 . S
C401 C403 1.390 1_456 S
C401 H405 0.950 . S
H402 C398 0.950 . S
C403 C401 1.390 1_654 S
C403 C404 1.387 . S
C403 H406 0.950 . S
C404 C403 1.387 . S
C404 C407 1.387 . S
H405 C401 0.950 . S
H406 C403 0.950 . S
C407 C398 1.390 1_654 S
C407 H400 0.950 . S
C407 C404 1.387 . S
C169 C50 1.191 . S
C174 C8 1.191 . S
C179 C36 1.191 . S
C184 C22 1.191 . S
C189 C78 1.189 . S
C194 C64 1.189 . S
C199 C92 1.189 . S
C204 C106 1.189 . S
C209 C134 1.191 . S
C214 C120 1.191 . S
C219 C148 1.189 . S
C224 C162 1.189 . S
C229 C9 1.151 . S
C234 C101 1.133 . S
C239 C87 1.135 . S
C244 C23 1.152 . S
C249 C73 1.137 . S
C254 C37 1.151 . S
C259 C59 1.135 . S
C264 C51 1.152 . S
C269 C65 1.148 . S
C274 C157 1.138 . S
C279 C115 1.136 . S
C284 C79 1.148 . S
C289 C143 1.135 . S
C294 C93 1.152 . S
C299 C107 1.152 . S
C304 C129 1.134 . S
C309 C31 1.137 . S
C314 C121 1.151 . S
C319 C3 1.137 . S
C324 C135 1.151 . S
C329 C149 1.151 . S
C334 C17 1.137 . S
C339 C45 1.135 . S
C344 C163 1.148 . S
C349 C7 1.300 . S
C354 C21 1.300 . S
C359 C49 1.300 . S
C364 C35 1.300 . S
C369 C91 1.301 . S
C374 C63 1.301 . S
C379 C77 1.301 . S
C384 C105 1.301 . S
C389 C147 1.300 . S
C394 C119 1.300 . S
C399 C133 1.301 . S
C404 C161 1.301 . S
