# Generated by pormake.
# Topology wlt, (5)-cn, num edge types: 1
# Building blocks:
#     Node 0, Type 0, BuildingBlock: XOMCOT_clean_sbu_0, # of connection points: 5
#     Node 1, Type 0, BuildingBlock: XOMCOT_clean_sbu_0, # of connection points: 5
#     Node 2, Type 0, BuildingBlock: XOMCOT_clean_sbu_0, # of connection points: 5
#     Node 3, Type 0, BuildingBlock: XOMCOT_clean_sbu_0, # of connection points: 5
#     Node 4, Type 0, BuildingBlock: XOMCOT_clean_sbu_0, # of connection points: 5
#     Node 5, Type 0, BuildingBlock: XOMCOT_clean_sbu_0, # of connection points: 5
#     Node 6, Type 0, BuildingBlock: XOMCOT_clean_sbu_0, # of connection points: 5
#     Node 7, Type 0, BuildingBlock: XOMCOT_clean_sbu_0, # of connection points: 5
#     Node 8, Type 0, BuildingBlock: XOMCOT_clean_sbu_0, # of connection points: 5
#     Node 9, Type 0, BuildingBlock: XOMCOT_clean_sbu_0, # of connection points: 5
#     Node 10, Type 0, BuildingBlock: XOMCOT_clean_sbu_0, # of connection points: 5
#     Node 11, Type 0, BuildingBlock: XOMCOT_clean_sbu_0, # of connection points: 5
#     Node 12, Type 0, BuildingBlock: XOMCOT_clean_sbu_0, # of connection points: 5
#     Node 13, Type 0, BuildingBlock: XOMCOT_clean_sbu_0, # of connection points: 5
#     Node 14, Type 0, BuildingBlock: XOMCOT_clean_sbu_0, # of connection points: 5
#     Node 15, Type 0, BuildingBlock: XOMCOT_clean_sbu_0, # of connection points: 5
#     Node 16, Type 0, BuildingBlock: XOMCOT_clean_sbu_0, # of connection points: 5
#     Node 17, Type 0, BuildingBlock: XOMCOT_clean_sbu_0, # of connection points: 5
#     Node 18, Type 0, BuildingBlock: XOMCOT_clean_sbu_0, # of connection points: 5
#     Node 19, Type 0, BuildingBlock: XOMCOT_clean_sbu_0, # of connection points: 5
#     Node 20, Type 0, BuildingBlock: XOMCOT_clean_sbu_0, # of connection points: 5
#     Node 21, Type 0, BuildingBlock: XOMCOT_clean_sbu_0, # of connection points: 5
#     Node 22, Type 0, BuildingBlock: XOMCOT_clean_sbu_0, # of connection points: 5
#     Node 23, Type 0, BuildingBlock: XOMCOT_clean_sbu_0, # of connection points: 5
#     Node 24, Type 0, BuildingBlock: XOMCOT_clean_sbu_0, # of connection points: 5
#     Node 25, Type 0, BuildingBlock: XOMCOT_clean_sbu_0, # of connection points: 5
#     Node 26, Type 0, BuildingBlock: XOMCOT_clean_sbu_0, # of connection points: 5
#     Node 27, Type 0, BuildingBlock: XOMCOT_clean_sbu_0, # of connection points: 5
#     Node 28, Type 0, BuildingBlock: XOMCOT_clean_sbu_0, # of connection points: 5
#     Node 29, Type 0, BuildingBlock: XOMCOT_clean_sbu_0, # of connection points: 5
#     Node 30, Type 0, BuildingBlock: XOMCOT_clean_sbu_0, # of connection points: 5
#     Node 31, Type 0, BuildingBlock: XOMCOT_clean_sbu_0, # of connection points: 5
#     Node 32, Type 0, BuildingBlock: XOMCOT_clean_sbu_0, # of connection points: 5
#     Node 33, Type 0, BuildingBlock: XOMCOT_clean_sbu_0, # of connection points: 5
#     Node 34, Type 0, BuildingBlock: XOMCOT_clean_sbu_0, # of connection points: 5
#     Node 35, Type 0, BuildingBlock: XOMCOT_clean_sbu_0, # of connection points: 5
#     Edge 36, Type (0, 0), None
#     Edge 37, Type (0, 0), None
#     Edge 38, Type (0, 0), None
#     Edge 39, Type (0, 0), None
#     Edge 40, Type (0, 0), None
#     Edge 41, Type (0, 0), None
#     Edge 42, Type (0, 0), None
#     Edge 43, Type (0, 0), None
#     Edge 44, Type (0, 0), None
#     Edge 45, Type (0, 0), None
#     Edge 46, Type (0, 0), None
#     Edge 47, Type (0, 0), None
#     Edge 48, Type (0, 0), None
#     Edge 49, Type (0, 0), None
#     Edge 50, Type (0, 0), None
#     Edge 51, Type (0, 0), None
#     Edge 52, Type (0, 0), None
#     Edge 53, Type (0, 0), None
#     Edge 54, Type (0, 0), None
#     Edge 55, Type (0, 0), None
#     Edge 56, Type (0, 0), None
#     Edge 57, Type (0, 0), None
#     Edge 58, Type (0, 0), None
#     Edge 59, Type (0, 0), None
#     Edge 60, Type (0, 0), None
#     Edge 61, Type (0, 0), None
#     Edge 62, Type (0, 0), None
#     Edge 63, Type (0, 0), None
#     Edge 64, Type (0, 0), None
#     Edge 65, Type (0, 0), None
#     Edge 66, Type (0, 0), None
#     Edge 67, Type (0, 0), None
#     Edge 68, Type (0, 0), None
#     Edge 69, Type (0, 0), None
#     Edge 70, Type (0, 0), None
#     Edge 71, Type (0, 0), None
#     Edge 72, Type (0, 0), None
#     Edge 73, Type (0, 0), None
#     Edge 74, Type (0, 0), None
#     Edge 75, Type (0, 0), None
#     Edge 76, Type (0, 0), None
#     Edge 77, Type (0, 0), None
#     Edge 78, Type (0, 0), None
#     Edge 79, Type (0, 0), None
#     Edge 80, Type (0, 0), None
#     Edge 81, Type (0, 0), None
#     Edge 82, Type (0, 0), None
#     Edge 83, Type (0, 0), None
#     Edge 84, Type (0, 0), None
#     Edge 85, Type (0, 0), None
#     Edge 86, Type (0, 0), None
#     Edge 87, Type (0, 0), None
#     Edge 88, Type (0, 0), None
#     Edge 89, Type (0, 0), None
#     Edge 90, Type (0, 0), None
#     Edge 91, Type (0, 0), None
#     Edge 92, Type (0, 0), None
#     Edge 93, Type (0, 0), None
#     Edge 94, Type (0, 0), None
#     Edge 95, Type (0, 0), None
#     Edge 96, Type (0, 0), None
#     Edge 97, Type (0, 0), None
#     Edge 98, Type (0, 0), None
#     Edge 99, Type (0, 0), None
#     Edge 100, Type (0, 0), None
#     Edge 101, Type (0, 0), None
#     Edge 102, Type (0, 0), None
#     Edge 103, Type (0, 0), None
#     Edge 104, Type (0, 0), None
#     Edge 105, Type (0, 0), None
#     Edge 106, Type (0, 0), None
#     Edge 107, Type (0, 0), None
#     Edge 108, Type (0, 0), None
#     Edge 109, Type (0, 0), None
#     Edge 110, Type (0, 0), None
#     Edge 111, Type (0, 0), None
#     Edge 112, Type (0, 0), None
#     Edge 113, Type (0, 0), None
#     Edge 114, Type (0, 0), None
#     Edge 115, Type (0, 0), None
#     Edge 116, Type (0, 0), None
#     Edge 117, Type (0, 0), None
#     Edge 118, Type (0, 0), None
#     Edge 119, Type (0, 0), None
#     Edge 120, Type (0, 0), None
#     Edge 121, Type (0, 0), None
#     Edge 122, Type (0, 0), None
#     Edge 123, Type (0, 0), None
#     Edge 124, Type (0, 0), None
#     Edge 125, Type (0, 0), None
# Relax obj value: 0.235
# Max RMSD: 0.217
# Mean RMSD: 0.217
data_MOF--net-wlt--node1-XOMCOT_clean_sbu_0--edge1-none
_symmetry_space_group_name_H-M    P1
_symmetry_Int_Tables_number       1
_symmetry_cell_setting            triclinic
loop_
_symmetry_equiv_pos_as_xyz
'x, y, z'
_cell_length_a     30.716792
_cell_length_b     30.938447
_cell_length_c     28.232162
_cell_angle_alpha  90.055899
_cell_angle_beta   90.014156
_cell_angle_gamma 120.20138
loop_
_atom_site_label
_atom_site_type_symbol
_atom_site_fract_x
_atom_site_fract_y
_atom_site_fract_z
_atom_type_partial_charge
Co0 Co 0.30933 0.26033 0.04934 0.0
C1 C 0.3672 0.24087 0.12046 0.0
C2 C 0.4183 0.29523 0.07081 0.0
C3 C 0.44593 0.28559 0.10394 0.0
N4 N 0.36891 0.26717 0.08146 0.0
N5 N 0.41339 0.25162 0.13512 0.0
H6 H 0.33248 0.2139 0.13741 0.0
H7 H 0.43317 0.32042 0.04096 0.0
C8 C 0.3344 0.368 0.05046 0.0
O9 O 0.28951 0.35155 0.06887 0.0
N10 N 0.24644 0.2493 0.01731 0.0
C11 C 0.20729 0.2027 0.00858 0.0
C12 C 0.17284 0.20475 0.97958 0.0
C13 C 0.23284 0.27959 -0.00614 0.0
N14 N 0.18786 0.25283 0.97094 0.0
C15 C 0.24572 0.23118 0.12984 0.0
C16 C 0.3137 0.308 0.18661 0.0
C17 C 0.27729 0.26361 0.20835 0.0
C18 C 0.24084 0.22595 0.17901 0.0
C19 C 0.32059 0.309 0.13835 0.0
N20 N 0.28727 0.27065 0.11026 0.0
H21 H 0.21958 0.20038 0.10788 0.0
H22 H 0.35587 0.3385 0.1247 0.0
H23 H 0.20315 0.16809 0.02161 0.0
H24 H 0.2564 0.31954 -0.00994 0.0
O25 O 0.28124 0.19 0.05618 0.0
O26 O 0.32387 0.23055 -0.00729 0.0
O27 O 0.3473 0.33651 0.03566 0.0
C28 C 0.29917 0.188 0.01543 0.0
H29 H 0.48642 0.3019 0.1047 0.0
H30 H 0.13794 0.17297 0.96729 0.0
H31 H 0.34029 0.34073 0.20616 0.0
H32 H 0.21076 0.19122 0.19294 0.0
Co33 Co 0.87104 0.06789 0.05479 0.0
C34 C 0.9114 0.16452 0.10204 0.0
C35 C 0.84588 0.15013 0.06242 0.0
C36 C 0.86052 0.19213 0.09065 0.0
N37 N 0.87752 0.1325 0.07045 0.0
N38 N 0.90147 0.20045 0.11564 0.0
H39 H 0.93988 0.15851 0.11801 0.0
H40 H 0.81238 0.13171 0.04067 0.0
C41 C 0.75805 0.99971 0.06764 0.0
O42 O 0.76791 0.97787 0.10228 0.0
N43 N 0.86583 1.00314 0.03863 0.0
C44 C 0.84697 0.96177 0.06613 0.0
C45 C 0.84502 0.92281 0.0409 0.0
C46 C 0.87645 0.98828 -0.00319 0.0
N47 N 0.86382 0.93933 -0.00258 0.0
C48 C 0.89563 1.04485 0.14669 0.0
C49 C 0.83733 0.07467 0.19525 0.0
C50 C 0.86963 0.06402 0.2215 0.0
C51 C 0.89885 0.04837 0.19634 0.0
C52 C 0.83244 0.06692 0.14687 0.0
N53 N 0.86196 0.05318 0.1225 0.0
H54 H 0.92111 1.03666 0.12751 0.0
H55 H 0.80751 0.07623 0.12838 0.0
H56 H 0.83502 0.95904 0.10241 0.0
H57 H 0.89161 1.01216 0.96608 0.0
O58 O 0.94267 0.09969 0.05566 0.0
O59 O 0.90017 0.09647 -0.00845 0.0
O60 O 0.79414 1.03561 0.04381 0.0
C61 C 0.94393 0.11481 0.0127 0.0
H62 H 0.8408 0.21268 0.09465 0.0
H63 H 0.83134 0.88521 0.05389 0.0
H64 H 0.81615 0.09012 0.21124 0.0
H65 H 0.92441 1.03947 0.21439 0.0
Co66 Co 1.0563 0.81708 0.05675 0.0
C67 C 0.96068 0.76419 0.11164 0.0
C68 C 0.97462 0.71315 0.07192 0.0
C69 C 0.93691 0.68611 0.10441 0.0
N70 N 0.99061 0.76225 0.07727 0.0
N71 N 0.92913 0.71842 0.13001 0.0
H72 H 0.96641 0.79882 0.12675 0.0
H73 H 0.99242 0.69832 0.04929 0.0
C74 C 0.11585 0.76425 0.08823 0.0
O75 O 0.13191 0.7903 0.12736 0.0
N76 N 0.12342 0.87142 0.03637 0.0
C77 C 0.16625 0.88479 0.06078 0.0
C78 C 0.20746 0.91703 0.03446 0.0
C79 C 0.14 0.89783 -0.00484 0.0
N80 N 0.19134 0.9259 -0.00663 0.0
C81 C 0.08339 0.88441 0.1337 0.0
C82 C 1.04965 0.81166 0.2029 0.0
C83 C 1.05707 0.85893 0.2143 0.0
C84 C 0.07611 0.89632 0.17964 0.0
C85 C 1.05672 0.8013 0.15693 0.0
N86 N 1.07214 0.83693 0.12245 0.0
H87 H 0.09428 0.91229 0.10622 0.0
H88 H 1.04506 0.76297 0.14823 0.0
H89 H 0.1681 0.8727 0.09602 0.0
H90 H 0.11542 0.89579 0.96671 0.0
O91 O 1.02609 0.85786 0.04384 0.0
O92 O 1.02929 0.807 -0.00882 0.0
O93 O 0.08726 0.77069 0.05856 0.0
C94 C 1.01369 0.83814 0.00207 0.0
H95 H 0.91966 0.64642 0.11111 0.0
H96 H 0.24642 0.93429 0.04566 0.0
H97 H 1.03699 0.78207 0.22895 0.0
H98 H 0.08342 0.93367 0.18743 0.0
Co99 Co 0.27623 0.26524 0.42399 0.0
C100 C 0.25689 0.33191 0.36932 0.0
C101 C 0.32696 0.37649 0.40547 0.0
C102 C 0.32054 0.40633 0.37247 0.0
N103 N 0.28681 0.32961 0.40283 0.0
N104 N 0.27646 0.37739 0.34996 0.0
H105 H 0.2235 0.2995 0.3559 0.0
H106 H 0.36032 0.38728 0.42651 0.0
C107 C 0.38839 0.29303 0.41853 0.0
O108 O 0.37697 0.25507 0.39022 0.0
N109 N 0.2617 0.19797 0.44299 0.0
C110 C 0.21474 0.15745 0.44367 0.0
C111 C 0.21639 0.11689 0.46033 0.0
C112 C 0.29147 0.18021 0.45911 0.0
N113 N 0.26457 0.1303 0.46857 0.0
C114 C 0.2449 0.21594 0.33518 0.0
C115 C 0.32501 0.28882 0.28506 0.0
C116 C 0.28079 0.2563 0.2602 0.0
C117 C 0.24098 0.21796 0.28604 0.0
C118 C 0.32533 0.28839 0.33382 0.0
N119 N 0.28572 0.25236 0.3588 0.0
H120 H 0.21254 0.18827 0.35444 0.0
H121 H 0.35586 0.32031 0.35099 0.0
H122 H 0.18035 0.1568 0.43436 0.0
H123 H 0.33094 0.20366 0.46766 0.0
O124 O 0.20531 0.24116 0.41909 0.0
O125 O 0.24719 0.2735 0.48493 0.0
O126 O 0.35299 0.29793 0.43844 0.0
C127 C 0.20466 0.25586 0.4617 0.0
H128 H 0.34766 0.44458 0.36323 0.0
H129 H 0.18413 0.08051 0.46805 0.0
H130 H 0.35895 0.31704 0.26814 0.0
H131 H 0.20592 0.19108 0.26957 0.0
Co132 Co 0.83441 1.01619 0.4316 0.0
C133 C 0.78234 0.94407 0.35482 0.0
C134 C 0.72815 0.94686 0.40088 0.0
C135 C 0.70277 0.91533 0.36317 0.0
N136 N 0.77802 0.96509 0.39518 0.0
N137 N 0.73727 0.91438 0.33431 0.0
H138 H 0.81808 0.95202 0.34001 0.0
H139 H 0.71151 0.95691 0.42948 0.0
C140 C 0.80142 0.09366 0.43572 0.0
O141 O 0.84412 0.12581 0.41586 0.0
N142 N 0.89218 0.06648 0.47009 0.0
C143 C 0.90706 0.05339 0.51009 0.0
C144 C 0.94523 0.09429 0.53128 0.0
C145 C 0.92341 0.11745 0.46823 0.0
N146 N 0.95551 0.13505 0.506 0.0
C147 C 0.90186 0.064 0.35279 0.0
C148 C 0.82582 0.05988 0.29712 0.0
C149 C 0.86916 0.06615 0.2745 0.0
C150 C 0.90868 0.07039 0.30336 0.0
C151 C 0.82122 0.05508 0.34555 0.0
N152 N 0.85758 0.05458 0.37307 0.0
H153 H 0.93019 0.06223 0.3741 0.0
H154 H 0.78447 1.04403 0.35965 0.0
H155 H 0.89128 1.01655 0.525 0.0
H156 H 0.92404 0.14108 0.43991 0.0
O157 O 0.86709 0.97749 0.42317 0.0
O158 O 0.81622 0.96585 0.48311 0.0
O159 O 0.79288 0.04985 0.4482 0.0
C160 C 0.84405 0.95158 0.46045 0.0
H161 H 0.66255 0.89576 0.35701 0.0
H162 H 0.96312 0.094 0.5643 0.0
H163 H 0.79269 0.05363 0.27799 0.0
H164 H 0.94343 0.07602 0.28806 0.0
Co165 Co 0.09585 0.84603 0.41156 0.0
C166 C 0.16579 0.85942 0.33189 0.0
C167 C 0.15813 0.80308 0.38078 0.0
C168 C 0.18906 0.80538 0.34406 0.0
N169 N 0.14279 0.83641 0.3727 0.0
N170 N 0.19304 0.84049 0.31336 0.0
H171 H 0.16472 0.89047 0.31646 0.0
H172 H 0.14673 0.77808 0.41085 0.0
C173 C 1.03419 0.73754 0.37396 0.0
O174 O 1.06036 0.75038 0.33455 0.0
N175 N 1.04892 0.85523 0.45015 0.0
C176 C 1.06036 0.89704 0.47468 0.0
C177 C 1.01943 0.88883 0.50038 0.0
C178 C 0.99965 0.82249 0.4599 0.0
N179 N 0.9812 0.8423 0.49112 0.0
C180 C 0.0952 0.90587 0.33497 0.0
C181 C 1.01195 0.83005 0.29088 0.0
C182 C 1.04944 0.86887 0.26368 0.0
C183 C 0.08779 0.91043 0.28707 0.0
C184 C 1.02199 0.82665 0.33826 0.0
N185 N 1.06765 0.86058 0.35666 0.0
H186 H 0.12829 0.93573 0.35165 0.0
H187 H 0.99512 0.79469 0.35832 0.0
H188 H 0.09604 0.93156 0.47475 0.0
H189 H 0.97852 0.78472 0.44631 0.0
O190 O 0.14994 0.91444 0.42552 0.0
O191 O 0.13366 0.84901 0.46898 0.0
O192 O 1.04409 0.77015 0.40716 0.0
C193 C 0.16056 0.89745 0.46297 0.0
H194 H 0.20702 0.78315 0.34033 0.0
H195 H 1.01778 0.91559 0.52402 0.0
H196 H 0.97917 0.79915 0.27446 0.0
H197 H 0.11619 0.94256 0.26783 0.0
Co198 Co 0.87317 0.86235 0.90362 0.0
C199 C 0.80988 0.88533 0.83684 0.0
C200 C 0.76462 0.82576 0.88465 0.0
C201 C 0.73313 0.8307 0.85271 0.0
N202 N 0.81317 0.85871 0.87367 0.0
N203 N 0.76201 0.8679 0.82248 0.0
H204 H 0.84082 0.91755 0.82108 0.0
H205 H 0.75292 0.79821 0.91257 0.0
C206 C 0.81158 0.75734 0.86089 0.0
O207 O 0.7987 0.77585 0.82534 0.0
N208 N 0.93414 0.86786 0.93325 0.0
C209 C 0.97679 0.91223 0.93907 0.0
C210 C 1.01194 0.90535 0.96258 0.0
C211 C 0.9452 0.83384 0.95235 0.0
N212 N 0.99328 0.85613 0.96988 0.0
C213 C 0.92105 0.91894 0.81969 0.0
C214 C 0.91335 0.83716 0.7731 0.0
C215 C 0.90922 0.87363 0.74733 0.0
C216 C 0.91962 0.918 0.77024 0.0
C217 C 0.9138 0.8397 0.82215 0.0
N218 N 0.90778 0.87581 0.84351 0.0
H219 H 0.92357 0.95076 0.83812 0.0
H220 H 0.91262 0.80951 0.84235 0.0
H221 H 0.98186 0.94794 0.92812 0.0
H222 H 0.91795 0.79441 0.95597 0.0
O223 O 0.89343 0.93065 0.92377 0.0
O224 O 0.84596 0.86248 0.96571 0.0
O225 O 0.84172 0.78618 0.8938 0.0
C226 C 0.86777 0.911 0.96225 0.0
H227 H 0.69249 0.80812 0.85144 0.0
H228 H 1.0485 0.93476 0.97456 0.0
H229 H 0.91033 0.80438 0.75598 0.0
H230 H 0.92006 0.94856 0.75116 0.0
Co231 Co 0.27465 1.02464 0.91045 0.0
C232 C 0.24131 0.94617 0.83021 0.0
C233 C 0.30416 0.95618 0.87182 0.0
C234 C 0.29478 0.92091 0.83777 0.0
N235 N 0.27191 0.97354 0.86679 0.0
N236 N 0.2555 0.91473 0.81146 0.0
H237 H 0.20891 0.94766 0.81801 0.0
H238 H 0.33318 0.96882 0.89866 0.0
C239 C 0.37412 0.07165 0.85861 0.0
O240 O 0.34693 0.04954 0.82087 0.0
N241 N 0.27894 0.07468 0.95775 0.0
C242 C 0.26718 0.06284 0.00396 0.0
C243 C 0.2737 0.10313 0.02878 0.0
C244 C 0.29461 0.12491 0.9564 0.0
N245 N 0.2911 0.14264 -0.00033 0.0
C246 C 0.21641 1.03245 0.83614 0.0
C247 C 0.29612 0.11303 0.79302 0.0
C248 C 0.25716 0.07673 0.76483 0.0
C249 C 0.21403 1.03954 0.78766 0.0
C250 C 0.29752 0.10308 0.84092 0.0
N251 N 0.26115 0.05876 0.85946 0.0
H252 H 0.18513 1.0003 0.85246 0.0
H253 H 0.33145 0.12728 0.86036 0.0
H254 H 0.25519 1.02745 0.02068 0.0
H255 H 0.3068 0.14786 0.92511 0.0
O256 O 0.20462 0.97789 0.9288 0.0
O257 O 0.27108 0.98097 0.96213 0.0
O258 O 0.35202 0.06682 0.89895 0.0
C259 C 0.22194 0.95975 0.96005 0.0
H260 H 0.31489 0.90081 0.83353 0.0
H261 H 0.26674 0.10334 0.06641 0.0
H262 H 0.3285 0.14494 0.77732 0.0
H263 H 0.18162 1.01199 0.76799 0.0
Co264 Co 0.09403 0.27391 0.91226 0.0
C265 C 0.1657 0.31768 0.83163 0.0
C266 C 0.15097 0.37157 0.86496 0.0
C267 C 0.18186 0.39383 0.82662 0.0
N268 N 0.14052 0.32381 0.86802 0.0
N269 N 0.19094 0.35992 0.80572 0.0
H270 H 0.16537 0.28322 0.82424 0.0
H271 H 0.13692 0.38922 0.88863 0.0
C272 C 1.01539 0.30539 0.92658 0.0
O273 O 0.97981 0.25893 0.91922 0.0
N274 N 1.04764 0.22339 0.95797 0.0
C275 C 1.06075 0.22512 0.00383 0.0
C276 C 1.02557 0.18364 0.02682 0.0
C277 C 1.00179 0.18026 0.95458 0.0
N278 N 0.98764 0.15532 -0.0032 0.0
C279 C 1.05794 0.20589 0.83602 0.0
C280 C 1.03658 0.26641 0.78167 0.0
C281 C 1.05888 0.24194 0.75944 0.0
C282 C 1.06518 0.20745 0.78673 0.0
C283 C 1.03545 0.26793 0.83058 0.0
N284 N 1.05044 0.24115 0.8578 0.0
H285 H 1.06718 0.18233 0.85683 0.0
H286 H 1.03142 0.29791 0.84421 0.0
H287 H 0.09382 0.25478 0.02072 0.0
H288 H 0.97967 0.16746 0.92242 0.0
O289 O 0.13198 0.2394 0.91052 0.0
O290 O 0.14935 0.30106 0.95977 0.0
O291 O 1.06203 0.31725 0.92595 0.0
C292 C 0.15971 0.26727 0.94504 0.0
H293 H 0.1966 0.4321 0.81539 0.0
H294 H 1.02668 0.17642 0.06424 0.0
H295 H 1.02566 0.28957 0.7622 0.0
H296 H 0.07949 0.18501 0.77142 0.0
Co297 Co 0.86186 0.80061 0.55042 0.0
C298 C 0.90514 0.75658 0.6184 0.0
C299 C 0.84036 0.70138 0.58027 0.0
C300 C 0.85823 0.67693 0.60763 0.0
N301 N 0.8692 0.7512 0.58717 0.0
N302 N 0.89883 0.71154 0.63144 0.0
H303 H 0.9355 0.79237 0.63037 0.0
H304 H 0.80931 0.68376 0.5556 0.0
C305 C 0.75307 0.76002 0.56055 0.0
O306 O 0.76736 0.80585 0.57398 0.0
N307 N 0.85347 0.84792 0.50832 0.0
C308 C 0.8599 0.84693 0.46099 0.0
C309 C 0.85804 0.88529 0.43942 0.0
C310 C 0.84393 0.88658 0.51388 0.0
N311 N 0.84748 0.91032 0.47195 0.0
C312 C 0.88876 0.87827 0.61671 0.0
C313 C 0.84489 0.81341 0.69157 0.0
C314 C 0.88631 0.86119 0.69989 0.0
C315 C 0.90594 0.8951 0.66248 0.0
C316 C 0.82928 0.79799 0.64544 0.0
N317 N 0.8538 0.8292 0.60843 0.0
H318 H 0.90885 0.90298 0.58762 0.0
H319 H 0.80211 0.759 0.63935 0.0
H320 H 0.86579 0.82006 0.44202 0.0
H321 H 0.83672 0.8985 0.54754 0.0
O322 O 0.93247 0.84431 0.55019 0.0
O323 O 0.89384 0.78427 0.49735 0.0
O324 O 0.78622 0.75015 0.54469 0.0
C325 C 0.93584 0.82235 0.51305 0.0
H326 H 0.84324 0.63696 0.60885 0.0
H327 H 0.86265 0.8933 0.40179 0.0
H328 H 0.82719 0.78681 0.72013 0.0
H329 H 0.93717 0.9327 0.66784 0.0
Co330 Co 0.30212 0.06835 0.55376 0.0
C331 C 0.35232 0.16895 0.59849 0.0
C332 C 0.40557 0.15601 0.56108 0.0
C333 C 0.43178 0.20054 0.58581 0.0
N334 N 0.35588 0.13584 0.56976 0.0
N335 N 0.39812 0.20813 0.60953 0.0
H336 H 0.31725 0.1622 0.61399 0.0
H337 H 0.42194 0.1383 0.54044 0.0
C338 C 0.36062 1.01629 0.58291 0.0
O339 O 0.3364 1.00059 0.62307 0.0
N340 N 0.24858 0.99934 0.5369 0.0
C341 C 0.23442 0.95845 0.56418 0.0
C342 C 0.2013 0.9158 0.5397 0.0
C343 C 0.22294 0.98009 0.49551 0.0
N344 N 0.19374 0.92912 0.49652 0.0
C345 C 0.23833 1.04292 0.63415 0.0
C346 C 0.31508 0.08257 0.70018 0.0
C347 C 0.2666 0.07095 0.71429 0.0
C348 C 0.22762 0.0498 0.68076 0.0
C349 C 0.3242 0.07588 0.65343 0.0
N350 N 0.28625 0.05641 0.62075 0.0
H351 H 0.20864 1.02966 0.60796 0.0
H352 H 0.36272 0.08922 0.64289 0.0
H353 H 0.247 0.95898 0.59993 0.0
H354 H 0.22585 1.00267 0.46511 0.0
O355 O 0.25813 0.0942 0.5411 0.0
O356 O 0.30972 0.09054 0.48809 0.0
O357 O 0.35163 1.04284 0.55395 0.0
C358 C 0.2778 0.10513 0.49912 0.0
H359 H 0.47229 0.22397 0.58796 0.0
H360 H 0.1834 0.87789 0.5531 0.0
H361 H 0.34633 0.09733 0.72482 0.0
H362 H 0.18955 1.04008 0.68992 0.0
Co363 Co 1.04654 0.25837 0.55468 0.0
C364 C 0.96762 0.22393 0.63084 0.0
C365 C 0.96908 0.28103 0.58643 0.0
C366 C 0.93222 0.26824 0.62019 0.0
N367 N 0.99158 0.25368 0.59315 0.0
N368 N 0.93145 0.23253 0.64809 0.0
H369 H 0.97628 0.19664 0.64501 0.0
H370 H 0.97834 0.30813 0.55846 0.0
C371 C 0.11565 0.36923 0.54733 0.0
O372 O 0.15193 0.36019 0.55792 0.0
N373 N 0.10092 0.26364 0.51355 0.0
C374 C 0.09677 0.26765 0.46653 0.0
C375 C 0.1338 0.26414 0.4436 0.0
C376 C 0.14381 0.26063 0.51865 0.0
N377 N 0.16413 0.26017 0.47566 0.0
C378 C 0.0898 0.23388 0.63045 0.0
C379 C 0.08711 0.30194 0.69107 0.0
C380 C 0.07752 0.25579 0.70965 0.0
C381 C 0.08332 0.22331 0.67903 0.0
C382 C 0.0888 0.30875 0.6424 0.0
N383 N 0.08622 0.27298 0.61231 0.0
H384 H 0.08942 0.20604 0.60707 0.0
H385 H 0.08404 0.33899 0.63 0.0
H386 H 1.06782 0.27215 0.44943 0.0
H387 H 0.15838 0.25666 0.55222 0.0
O388 O 1.01728 0.18728 0.55784 0.0
O389 O 0.99693 0.22371 0.50229 0.0
O390 O 1.07049 0.33254 0.54207 0.0
C391 C 0.99032 0.18218 0.52092 0.0
H392 H 0.90728 0.28329 0.62311 0.0
H393 H 0.13873 0.26564 0.40551 0.0
H394 H 0.08808 0.33095 0.71323 0.0
H395 H 0.07881 0.18819 0.6913 0.0
Co396 Co 0.95785 0.57238 0.38388 0.0
C397 C 1.01508 0.55748 0.45813 0.0
C398 C 1.0647 0.62339 0.41848 0.0
C399 C 0.09059 0.62017 0.45733 0.0
N400 N 1.01723 0.58406 0.41928 0.0
N401 N 1.05878 0.57899 0.48226 0.0
H402 H 0.98132 0.52425 0.46967 0.0
H403 H 0.07895 0.65346 0.39292 0.0
C404 C 0.99045 0.68572 0.37859 0.0
O405 O 0.95137 0.6794 0.40308 0.0
N406 N 0.8954 0.55737 0.34917 0.0
C407 C 0.86814 0.51519 0.32321 0.0
C408 C 0.83114 0.51755 0.29879 0.0
C409 C 0.87154 0.58398 0.34116 0.0
N410 N 0.83257 0.56033 0.31002 0.0
C411 C 0.89579 0.5402 0.46536 0.0
C412 C 0.96239 0.62019 0.51977 0.0
C413 C 0.93376 0.57385 0.54203 0.0
C414 C 0.89703 0.5342 0.51467 0.0
C415 C 0.964 0.62269 0.47098 0.0
N416 N 0.93251 0.58239 0.44368 0.0
H417 H 0.87063 0.50803 0.44421 0.0
H418 H 0.99705 0.65422 0.45666 0.0
H419 H 0.87444 0.48413 0.32017 0.0
H420 H 0.88414 0.621 0.35444 0.0
O421 O 0.93367 0.50171 0.39131 0.0
O422 O 0.97842 0.54521 0.3298 0.0
O423 O 0.9945 0.64776 0.36572 0.0
C424 C 0.95672 0.50266 0.35249 0.0
H425 H 0.12918 0.64655 0.46688 0.0
H426 H 0.80542 0.48998 0.27368 0.0
H427 H 0.98861 0.65346 0.53911 0.0
H428 H 0.87235 0.49791 0.53008 0.0
Co429 Co 0.55157 0.39642 0.38247 0.0
C430 C 0.56331 0.47759 0.44403 0.0
C431 C 0.49599 0.4505 0.40302 0.0
C432 C 0.49686 0.48358 0.43675 0.0
N433 N 0.53661 0.44501 0.40966 0.0
N434 N 0.53905 0.49936 0.46251 0.0
H435 H 0.60001 0.48603 0.45563 0.0
H436 H 0.46598 0.42916 0.37801 0.0
C437 C 0.44217 0.33462 0.42128 0.0
O438 O 0.45556 0.36438 0.45826 0.0
N439 N 0.56777 0.34852 0.35479 0.0
C440 C 0.61389 0.36011 0.33901 0.0
C441 C 0.61029 0.32029 0.31447 0.0
C442 C 0.53699 0.30018 0.34169 0.0
N443 N 0.56237 0.28242 0.31668 0.0
C444 C 0.61091 0.41299 0.46673 0.0
C445 C 0.5323 0.34083 0.51885 0.0
C446 C 0.57028 0.38327 0.54196 0.0
C447 C 0.61289 0.4166 0.51613 0.0
C448 C 0.53271 0.33882 0.46953 0.0
N449 N 0.56685 0.37979 0.44485 0.0
H450 H 0.64171 0.44184 0.44665 0.0
H451 H 0.50292 0.30673 0.45168 0.0
H452 H 0.64794 0.3959 0.34274 0.0
H453 H 0.49651 0.28022 0.34615 0.0
O454 O 0.61931 0.4521 0.3665 0.0
O455 O 0.5539 0.42473 0.31917 0.0
O456 O 0.47507 0.34158 0.38855 0.0
C457 C 0.60176 0.45654 0.32626 0.0
H458 H 0.46786 0.49289 0.44349 0.0
H459 H 0.64044 0.31962 0.29517 0.0
H460 H 0.50076 0.31174 0.5383 0.0
H461 H 0.64458 0.44814 0.53313 0.0
Co462 Co 0.70833 0.15639 0.38784 0.0
C463 C 0.63527 0.10145 0.46679 0.0
C464 C 0.6418 0.05254 0.41716 0.0
C465 C 0.61143 1.02408 0.45397 0.0
N466 N 0.6579 0.10129 0.42572 0.0
N467 N 0.60816 0.0553 0.48514 0.0
H468 H 0.63723 0.13353 0.48317 0.0
H469 H 0.65331 1.03887 0.38717 0.0
C470 C 0.76046 0.10543 0.43414 0.0
O471 O 0.73361 0.09834 0.47251 0.0
N472 N 0.75867 0.21092 0.34908 0.0
C473 C 0.74959 0.24319 0.32505 0.0
C474 C 0.79116 0.2748 0.29966 0.0
C475 C 0.80758 0.22518 0.339 0.0
N476 N 0.82798 0.26424 0.30837 0.0
C477 C 0.70995 0.21591 0.46676 0.0
C478 C 0.79647 0.22531 0.50559 0.0
C479 C 0.75987 0.22489 0.53556 0.0
C480 C 0.7193 0.22674 0.51492 0.0
C481 C 0.78412 0.21228 0.45842 0.0
N482 N 0.73721 0.19947 0.44256 0.0
H483 H 0.67599 0.2123 0.45155 0.0
H484 H 0.81008 0.20733 0.4366 0.0
H485 H 0.7151 0.24439 0.32532 0.0
H486 H 0.82701 0.20661 0.35219 0.0
O487 O 0.65723 0.17379 0.37043 0.0
O488 O 0.67185 0.12117 0.33033 0.0
O489 O 0.75557 0.12791 0.39753 0.0
C490 C 0.6463 0.14436 0.33409 0.0
H491 H 0.59384 0.98395 0.45763 0.0
H492 H 0.79432 0.30444 0.27688 0.0
H493 H 0.83087 0.22859 0.51956 0.0
H494 H 0.69139 0.22934 0.53619 0.0
Co495 Co 0.95534 0.60839 0.74719 0.0
C496 C 0.92083 0.65642 0.67647 0.0
C497 C 0.986 0.71026 0.71497 0.0
C498 C 0.97011 0.7358 0.68629 0.0
N499 N 0.95526 0.66058 0.70874 0.0
N500 N 0.92917 0.70182 0.66236 0.0
H501 H 0.88936 0.62105 0.66514 0.0
H502 H 1.01663 0.72692 0.7402 0.0
C503 C 1.06269 0.63553 0.75144 0.0
O504 O 1.04488 0.58726 0.74718 0.0
N505 N 0.95664 0.55888 0.78949 0.0
C506 C 0.97134 0.57288 0.83458 0.0
C507 C 0.96595 0.5331 0.85998 0.0
C508 C 0.94385 0.5097 0.78769 0.0
N509 N 0.94966 0.49346 0.8309 0.0
C510 C 0.92098 0.53805 0.67212 0.0
C511 C 0.99419 0.60143 0.61016 0.0
C512 C 0.94606 0.56813 0.59206 0.0
C513 C 0.91038 0.53321 0.62345 0.0
C514 C 1.00117 0.60833 0.65864 0.0
N515 N 0.96353 0.57877 0.6894 0.0
H516 H 0.89142 0.51325 0.69593 0.0
H517 H 1.03414 0.64216 0.66988 0.0
H518 H 0.98425 0.60995 0.84854 0.0
H519 H 0.92844 0.486 0.75684 0.0
O520 O 0.88365 0.57201 0.74588 0.0
O521 O 0.92584 0.6287 0.8003 0.0
O522 O 1.03208 0.65235 0.75505 0.0
C523 C 0.88215 0.59675 0.78183 0.0
H524 H 0.98636 0.77593 0.68443 0.0
H525 H 0.97334 0.53319 0.89753 0.0
H526 H 1.02511 0.62632 0.58747 0.0
H527 H 0.87333 0.50507 0.61148 0.0
Co528 Co 0.50154 0.35599 0.73938 0.0
C529 C 0.45424 0.27837 0.66295 0.0
C530 C 0.39973 0.28638 0.70389 0.0
C531 C 0.3744 0.2494 0.67065 0.0
N532 N 0.4497 0.30484 0.69897 0.0
N533 N 0.40867 0.24453 0.64499 0.0
H534 H 0.48987 0.28333 0.65079 0.0
H535 H 0.38264 0.29824 0.73052 0.0
C536 C 0.46791 0.43196 0.73651 0.0
O537 O 0.51399 0.46384 0.72317 0.0
N538 N 0.55278 0.40635 0.78346 0.0
C539 C 0.55774 0.3943 0.82844 0.0
C540 C 0.59697 0.43391 0.85042 0.0
C541 C 0.58956 0.4558 0.77998 0.0
N542 N 0.61697 0.4731 0.82078 0.0
C543 C 0.5809 0.40551 0.67375 0.0
C544 C 0.51648 0.39428 0.6005 0.0
C545 C 0.56163 0.39535 0.59036 0.0
C546 C 0.59586 0.40496 0.62707 0.0
C547 C 0.5031 0.39513 0.6474 0.0
N548 N 0.53329 0.39612 0.68346 0.0
H549 H 0.6049 0.40625 0.70212 0.0
H550 H 0.46515 0.38702 0.65441 0.0
H551 H 0.53453 0.35894 0.84572 0.0
H552 H 0.59764 0.47804 0.74822 0.0
O553 O 0.53884 0.32193 0.73663 0.0
O554 O 0.47977 0.30305 0.78973 0.0
O555 O 0.45624 0.38715 0.74843 0.0
C556 C 0.51445 0.29467 0.77236 0.0
H557 H 0.33396 0.22725 0.66647 0.0
H558 H 0.60885 0.43421 0.88664 0.0
H559 H 0.48988 0.38868 0.57261 0.0
H560 H 0.63168 0.40728 0.62024 0.0
Co561 Co 0.75803 0.16474 0.74346 0.0
C562 C 0.85926 0.21479 0.69953 0.0
C563 C 0.84303 0.14536 0.73155 0.0
C564 C 0.88706 0.16355 0.70551 0.0
N565 N 0.82519 0.1771 0.72703 0.0
N566 N 0.89659 0.20678 0.68499 0.0
H567 H 0.85396 0.2448 0.68684 0.0
H568 H 0.82359 0.10971 0.74953 0.0
C569 C 0.70022 0.05422 0.70793 0.0
O570 O 0.69046 0.06633 0.66652 0.0
N571 N 0.68991 0.15091 0.76001 0.0
C572 C 0.64837 0.12216 0.73366 0.0
C573 C 0.60605 0.11373 0.75784 0.0
C574 C 0.67163 0.16023 0.80025 0.0
N575 N 0.62051 0.13788 0.79952 0.0
C576 C 0.73232 0.20667 0.66687 0.0
C577 C 0.7707 0.17333 0.5966 0.0
C578 C 0.7572 0.20923 0.5854 0.0
C579 C 0.73691 0.2253 0.62102 0.0
C580 C 0.76596 0.15621 0.64264 0.0
N581 N 0.74677 0.17257 0.6773 0.0
H582 H 0.71957 0.22166 0.69471 0.0
H583 H 0.77961 0.13098 0.65085 0.0
H584 H 0.64828 0.10836 0.69864 0.0
H585 H 0.69481 0.18202 0.82972 0.0
O586 O 0.78712 0.23479 0.75932 0.0
O587 O 0.77944 0.17716 0.81027 0.0
O588 O 0.72713 0.08788 0.73921 0.0
C589 C 0.79598 0.22443 0.80135 0.0
H590 H 0.90817 0.14467 0.69953 0.0
H591 H 0.56765 0.0928 0.74497 0.0
H592 H 0.78498 0.15832 0.57009 0.0
H593 H 0.72589 0.25285 0.61391 0.0
Co594 Co 0.51021 0.17626 0.2372 0.0
C595 C 0.46828 0.23091 0.18346 0.0
C596 C 0.41405 0.17598 0.23104 0.0
C597 C 0.3903 0.19523 0.20404 0.0
N598 N 0.46266 0.19756 0.21767 0.0
N599 N 0.42425 0.22919 0.17376 0.0
H600 H 0.50273 0.25291 0.16369 0.0
H601 H 0.3964 0.14639 0.25695 0.0
C602 C 0.44116 0.06421 0.2145 0.0
O603 O 0.46656 0.06696 0.17626 0.0
N604 N 0.55812 0.15458 0.25754 0.0
C605 C 0.56971 0.12411 0.23308 0.0
C606 C 0.60283 0.11563 0.25893 0.0
C607 C 0.58513 0.16423 0.29848 0.0
N608 N 0.61282 0.14098 0.30001 0.0
C609 C 0.5724 0.20408 0.15615 0.0
C610 C 0.4939 0.16736 0.09199 0.0
C611 C 0.54239 0.20269 0.07662 0.0
C612 C 0.58231 0.22001 0.10915 0.0
C613 C 0.48549 0.1541 0.13924 0.0
N614 N 0.52425 0.17284 0.17103 0.0
H615 H 0.60288 0.22024 0.18155 0.0
H616 H 0.44689 0.13214 0.15099 0.0
H617 H 0.55612 0.10951 0.19812 0.0
H618 H 0.58486 0.18788 0.3266 0.0
O619 O 0.56114 0.24478 0.24627 0.0
O620 O 0.50604 0.19771 0.3014 0.0
O621 O 0.45354 0.10302 0.24049 0.0
C622 C 0.54306 0.24138 0.28844 0.0
H623 H 0.35066 0.18342 0.2053 0.0
H624 H 0.61915 0.09335 0.24777 0.0
H625 H 0.46187 0.15095 0.06825 0.0
H626 H 0.6205 0.24714 0.09918 0.0
Co627 Co 0.94928 0.3446 0.25154 0.0
C628 C 0.91419 0.26806 0.17229 0.0
C629 C 0.97044 0.26851 0.21806 0.0
C630 C 0.95902 0.23316 0.18361 0.0
N631 N 0.94313 0.29097 0.21092 0.0
N632 N 0.92391 0.23293 0.15478 0.0
H633 H 0.88732 0.27713 0.15734 0.0
H634 H 0.99692 0.27714 0.24673 0.0
C635 C 1.05685 0.41662 0.24785 0.0
O636 O 1.03926 0.44723 0.24365 0.0
N637 N 0.95606 0.39702 0.29699 0.0
C638 C 0.95605 0.38904 0.34405 0.0
C639 C 0.95535 0.42656 0.3689 0.0
C640 C 0.95854 0.44255 0.29441 0.0
N641 N 0.9578 0.46087 0.33825 0.0
C642 C 0.92177 0.39472 0.18568 0.0
C643 C 0.9735 0.38035 0.11338 0.0
C644 C 0.92836 0.37934 0.10342 0.0
C645 C 0.90469 0.39096 0.13936 0.0
C646 C 0.98847 0.38304 0.16007 0.0
N647 N 0.95953 0.38503 0.19582 0.0
H648 H 0.89904 0.3969 0.21372 0.0
H649 H 1.01776 0.37436 0.16714 0.0
H650 H 0.95625 0.35749 0.36011 0.0
H651 H 0.95929 0.46115 0.26177 0.0
O652 O 0.8784 0.31701 0.25108 0.0
O653 O 0.91568 0.29308 0.30254 0.0
O654 O 1.02568 0.37038 0.25667 0.0
C655 C 0.87393 0.28983 0.28701 0.0
H656 H 0.97511 0.20922 0.18061 0.0
H657 H 0.95458 0.42914 0.40715 0.0
H658 H 0.99438 0.37414 0.08588 0.0
H659 H 0.87065 0.39225 0.13265 0.0
Co660 Co 0.76918 0.61059 0.23938 0.0
C661 C 0.86623 0.6616 0.18834 0.0
C662 C 0.85802 0.71341 0.23283 0.0
C663 C 0.89688 0.74024 0.20112 0.0
N664 N 0.83766 0.66408 0.22375 0.0
N665 N 0.90106 0.70747 0.17266 0.0
H666 H 0.8569 0.62719 0.17017 0.0
H667 H 0.84241 0.72907 0.25713 0.0
C668 C 0.7148 0.66863 0.22199 0.0
O669 O 0.6909 0.63748 0.18732 0.0
N670 N 0.69967 0.55518 0.25536 0.0
C671 C 0.65851 0.53593 0.22699 0.0
C672 C 0.61748 0.49772 0.24989 0.0
C673 C 0.68197 0.52714 0.29579 0.0
N674 N 0.63191 0.49176 0.29319 0.0
C675 C 0.74245 0.56126 0.14808 0.0
C676 C 0.78265 0.6501 0.09868 0.0
C677 C 0.76697 0.60592 0.07325 0.0
C678 C 0.74632 0.56068 0.09852 0.0
C679 C 0.7743 0.64844 0.1466 0.0
N680 N 0.75551 0.60482 0.17153 0.0
H681 H 0.73014 0.52708 0.16777 0.0
H682 H 0.78756 0.68373 0.16439 0.0
H683 H 0.65762 0.54761 0.19123 0.0
H684 H 0.7052 0.53219 0.32647 0.0
O685 O 0.7932 0.56422 0.24217 0.0
O686 O 0.79424 0.60966 0.30337 0.0
O687 O 0.74533 0.66196 0.2483 0.0
C688 C 0.8063 0.57798 0.28575 0.0
H689 H 0.91768 0.78047 0.19722 0.0
H690 H 0.57994 0.47549 0.23534 0.0
H691 H 0.80182 0.68652 0.08201 0.0
H692 H 0.73361 0.52543 0.08051 0.0
Co693 Co 0.53697 0.15656 0.87842 0.0
C694 C 0.56861 0.10885 0.95415 0.0
C695 C 0.49232 0.06099 0.93122 0.0
C696 C 0.50284 1.03693 0.96661 0.0
N697 N 0.53319 0.1064 0.92347 0.0
N698 N 0.55059 0.06714 0.98115 0.0
H699 H 0.60684 0.13972 0.95619 0.0
H700 H 0.45698 1.04586 0.91246 0.0
C701 C 0.42968 0.10127 0.85142 0.0
O702 O 0.44739 0.10062 0.80928 0.0
N703 N 0.54092 0.20747 0.8334 0.0
C704 C 0.57726 0.22945 0.80023 0.0
C705 C 0.56975 0.26213 0.77441 0.0
C706 C 0.51181 0.22919 0.82729 0.0
N707 N 0.52905 0.26293 0.79099 0.0
C708 C 0.59313 0.21978 0.95408 0.0
C709 C 0.51069 0.21393 -0.00143 0.0
C710 C 0.55058 0.21761 0.0261 0.0
C711 C 0.59454 0.2263 0.00286 0.0
C712 C 0.51002 0.20492 0.95028 0.0
N713 N 0.5486 0.20153 0.93045 0.0
H714 H 0.62544 0.22149 0.93721 0.0
H715 H 0.47643 0.19576 0.93046 0.0
H716 H 0.60864 0.22372 0.79463 0.0
H717 H 0.4791 0.22057 0.84849 0.0
O718 O 0.60677 0.17527 0.86474 0.0
O719 O 0.54054 0.11729 0.82614 0.0
O720 O 0.46066 0.12535 0.88463 0.0
C721 C 0.58932 0.14186 0.8314 0.0
H722 H 0.47723 1.00011 0.98052 0.0
H723 H 0.5939 0.28497 0.74582 0.0
H724 H 0.47776 0.21201 0.01468 0.0
H725 H 0.62745 0.23172 0.02197 0.0
Co726 Co 0.93488 0.38784 0.89806 0.0
C727 C 0.99895 0.47197 0.96618 0.0
C728 C 1.04304 0.46454 0.91144 0.0
C729 C 0.07504 0.503 0.94144 0.0
N730 N 0.99525 0.44384 0.92762 0.0
N731 N 1.04705 0.50725 0.97587 0.0
H732 H 0.96773 0.46849 -0.0138 0.0
H733 H 1.05402 0.45196 0.88029 0.0
C734 C 1.00171 0.34505 0.92796 0.0
O735 O 1.01948 0.37727 0.96298 0.0
N736 N 0.87373 0.33301 0.86951 0.0
C737 C 0.82879 0.33081 0.86971 0.0
C738 C 0.79361 0.28764 0.84761 0.0
C739 C 0.86455 0.28979 0.84797 0.0
N740 N 0.81521 0.26063 0.8354 0.0
C741 C 0.88562 0.38914 -0.01688 0.0
C742 C 0.90924 0.32651 0.03138 0.0
C743 C 0.90609 0.36428 0.05599 0.0
C744 C 0.88777 0.39146 0.03231 0.0
C745 C 0.90669 0.32587 -0.01774 0.0
N746 N 0.90428 0.36339 0.95954 0.0
H747 H 0.87741 0.41477 0.9648 0.0
H748 H 0.91141 0.2984 0.96304 0.0
H749 H 0.82201 0.35931 0.88405 0.0
H750 H 0.8936 0.28093 0.83966 0.0
O751 O 0.91072 0.43355 0.88749 0.0
O752 O 0.95748 0.42216 0.83598 0.0
O753 O 0.96838 0.34413 0.89917 0.0
C754 C 0.93473 0.44671 0.84772 0.0
H755 H 0.11546 0.52608 0.93785 0.0
H756 H 0.75514 0.27756 0.83959 0.0
H757 H 0.91838 0.30117 0.04939 0.0
H758 H 0.88181 0.41891 0.05045 0.0
Co759 Co 0.71767 0.59405 0.86523 0.0
C760 C 0.6412 0.56484 0.9417 0.0
C761 C 0.64415 0.62325 0.89808 0.0
C762 C 0.60918 0.61236 0.93363 0.0
N763 N 0.66444 0.59375 0.90332 0.0
N764 N 0.60758 0.57579 0.96096 0.0
H765 H 0.64939 0.5371 0.95554 0.0
H766 H 0.65436 0.65104 0.8706 0.0
C767 C 0.79562 0.70353 0.85991 0.0
O768 O 0.82801 0.69092 0.87513 0.0
N769 N 0.7699 0.59311 0.82523 0.0
C770 C 0.76123 0.58108 0.77885 0.0
C771 C 0.80115 0.58027 0.75942 0.0
C772 C 0.81792 0.60211 0.83251 0.0
N773 N 0.83744 0.59408 0.79233 0.0
C774 C 0.76584 0.57432 0.94262 0.0
C775 C 0.76187 0.64532 -0.00111 0.0
C776 C 0.76831 0.60835 0.02072 0.0
C777 C 0.7722 0.57338 -0.00818 0.0
C778 C 0.75698 0.64558 0.95064 0.0
N779 N 0.75666 0.60927 0.92293 0.0
H780 H 0.76383 0.54451 0.92097 0.0
H781 H 0.74545 0.67078 0.93693 0.0
H782 H 0.72818 0.57357 0.75901 0.0
H783 H 0.8373 0.6124 0.86622 0.0
O784 O 0.6829 0.52245 0.87078 0.0
O785 O 0.66711 0.56113 0.81364 0.0
O786 O 0.74945 0.66949 0.85107 0.0
C787 C 0.65631 0.51888 0.8338 0.0
H788 H 0.58665 0.62987 0.93865 0.0
H789 H 0.80395 0.57179 0.72265 0.0
H790 H 0.75572 0.67169 0.01875 0.0
H791 H 0.77752 0.54427 0.00705 0.0
Co792 Co 0.63264 0.89 0.71022 0.0
C793 C 0.69808 0.86714 0.76838 0.0
C794 C 0.74347 0.92858 0.72183 0.0
C795 C 0.77486 0.92229 0.75295 0.0
N796 N 0.69528 0.89439 0.73205 0.0
N797 N 0.74595 0.88409 0.78247 0.0
H798 H 0.66536 0.83791 0.78629 0.0
H799 H 0.75492 0.95772 0.69555 0.0
C800 C 0.66856 1.00142 0.72216 0.0
O801 O 0.6335 0.99109 0.75393 0.0
N802 N 0.56744 0.88131 0.68933 0.0
C803 C 0.52573 0.83614 0.68199 0.0
C804 C 0.48734 0.84236 0.66612 0.0
C805 C 0.55268 0.9146 0.67755 0.0
N806 N 0.50335 0.89144 0.66457 0.0
C807 C 0.57153 0.86727 0.79336 0.0
C808 C 0.64961 0.93383 0.85035 0.0
C809 C 0.60109 0.90629 0.86915 0.0
C810 C 0.56166 0.8719 0.84055 0.0
C811 C 0.65699 0.93024 0.80305 0.0
N812 N 0.61822 0.89781 0.77479 0.0
H813 H 0.5417 0.83897 0.77214 0.0
H814 H 0.69426 0.95419 0.78901 0.0
H815 H 0.52269 0.80012 0.68671 0.0
H816 H 0.57804 0.95445 0.67463 0.0
O817 O 0.60458 0.81925 0.71068 0.0
O818 O 0.6412 0.86768 0.64829 0.0
O819 O 0.66949 0.96609 0.69874 0.0
C820 C 0.61908 0.82303 0.66685 0.0
H821 H 0.81543 0.94533 0.75474 0.0
H822 H 0.45084 0.8129 0.65405 0.0
H823 H 0.68191 0.95888 0.8717 0.0
H824 H 0.52383 0.84916 0.8542 0.0
Co825 Co 0.21731 0.75138 0.71689 0.0
C826 C 0.24926 0.8496 0.75722 0.0
C827 C 0.17567 0.8209 0.72712 0.0
C828 C 0.187 0.86278 0.75447 0.0
N829 N 0.21452 0.81219 0.72992 0.0
N830 N 0.23306 0.88001 0.77375 0.0
H831 H 0.28339 0.85091 0.76897 0.0
H832 H 0.13982 0.796 0.71057 0.0
C833 C 0.11804 0.66815 0.7493 0.0
O834 O 0.14493 0.65189 0.77086 0.0
N835 N 0.2234 0.69185 0.7028 0.0
C836 C 0.26673 0.69055 0.70397 0.0
C837 C 0.25908 0.64646 0.6849 0.0
C838 C 0.19069 0.64857 0.68014 0.0
N839 N 0.21077 0.61885 0.6712 0.0
C840 C 0.26063 0.74038 0.80378 0.0
C841 C 0.19426 0.75241 0.86019 0.0
C842 C 0.2263 0.73801 0.88059 0.0
C843 C 0.26169 0.73424 0.85241 0.0
C844 C 0.19108 0.75289 0.81197 0.0
N845 N 0.22304 0.74559 0.78401 0.0
H846 H 0.28944 0.74021 0.78262 0.0
H847 H 0.16214 0.75872 0.7971 0.0
H848 H 0.30334 0.72156 0.71306 0.0
H849 H 0.15431 0.64072 0.66698 0.0
O850 O 0.28766 0.79389 0.70318 0.0
O851 O 0.2255 0.76737 0.65037 0.0
O852 O 0.14014 0.7071 0.72247 0.0
C853 C 0.27362 0.79424 0.65997 0.0
H854 H 0.1618 0.87668 0.7625 0.0
H855 H 0.28828 0.63758 0.67723 0.0
H856 H 0.16863 0.75914 0.88105 0.0
H857 H 0.28837 0.72481 0.86718 0.0
Co858 Co 0.35464 0.47606 0.70825 0.0
C859 C 0.25558 0.41448 0.74892 0.0
C860 C 0.28134 0.36657 0.7214 0.0
C861 C 0.23923 0.33833 0.74953 0.0
N862 N 0.29203 0.41458 0.72218 0.0
N863 N 0.22389 0.36907 0.76712 0.0
H864 H 0.2565 0.44843 0.75979 0.0
H865 H 0.30521 0.35395 0.70591 0.0
C866 C 0.4335 0.45222 0.74217 0.0
O867 O 0.45079 0.49313 0.76765 0.0
N868 N 0.41654 0.53942 0.69361 0.0
C869 C 0.41871 0.58394 0.68908 0.0
C870 C 0.46434 0.6184 0.67091 0.0
C871 C 0.46169 0.54804 0.6765 0.0
N872 N 0.49219 0.59658 0.66391 0.0
C873 C 0.37151 0.53568 0.79202 0.0
C874 C 0.35617 0.46047 0.85368 0.0
C875 C 0.37547 0.50919 0.87071 0.0
C876 C 0.38049 0.54671 0.84001 0.0
C877 C 0.35214 0.45242 0.80568 0.0
N878 N 0.36188 0.49032 0.77513 0.0
H879 H 0.37355 0.56402 0.76883 0.0
H880 H 0.34291 0.41589 0.79304 0.0
H881 H 0.38783 0.59065 0.69462 0.0
H882 H 0.46991 0.51871 0.66829 0.0
O883 O 0.31429 0.5061 0.69383 0.0
O884 O 0.3375 0.46825 0.64122 0.0
O885 O 0.396 0.44006 0.7138 0.0
C886 C 0.31294 0.4917 0.65054 0.0
H887 H 0.22401 0.29956 0.75932 0.0
H888 H 0.47481 0.65594 0.65983 0.0
H889 H 0.34905 0.42971 0.87691 0.0
H890 H 0.39357 0.58445 0.85233 0.0
Co891 Co 0.59646 0.94773 0.08022 0.0
C892 C 0.56235 1.00955 0.03274 0.0
C893 C 0.63449 0.05776 0.06449 0.0
C894 C 0.62152 0.08642 0.03619 0.0
N895 N 0.59756 1.00936 0.06151 0.0
N896 N 0.57629 0.05562 0.01624 0.0
H897 H 0.52923 0.9758 0.02077 0.0
H898 H 0.66976 0.07086 0.08304 0.0
C899 C 0.70453 0.977 0.05419 0.0
O900 O 0.68684 0.93947 0.02425 0.0
N901 N 0.59124 0.88334 0.09911 0.0
C902 C 0.54634 0.84112 0.10582 0.0
C903 C 0.55333 0.80469 0.12509 0.0
C904 C 0.62554 0.87067 0.1148 0.0
N905 N 0.6029 0.82222 0.13009 0.0
C906 C 0.56082 0.88609 -0.00353 0.0
C907 C 0.62252 0.96331 0.93654 0.0
C908 C 0.59323 0.91514 0.91834 0.0
C909 C 0.56073 0.87621 0.94837 0.0
C910 C 0.62432 0.97042 -0.01554 0.0
N911 N 0.59442 0.93209 0.01415 0.0
H912 H 0.53437 0.85669 0.01908 0.0
H913 H 0.65093 1.00706 -0.00225 0.0
H914 H 0.50976 0.83678 0.09914 0.0
H915 H 0.66521 0.89722 0.11942 0.0
O916 O 0.52475 0.91932 0.09129 0.0
O917 O 0.58521 0.95932 0.14476 0.0
O918 O 0.67404 0.98332 0.08083 0.0
C919 C 0.53738 0.93683 0.13406 0.0
H920 H 0.64434 0.12613 0.02947 0.0
H921 H 0.52371 0.7683 0.13683 0.0
H922 H 0.64617 0.99513 0.91427 0.0
H923 H 0.53664 0.83857 0.9353 0.0
Co924 Co 0.17875 0.66347 0.08488 0.0
C925 C 0.11263 0.57524 0.02534 0.0
C926 C 1.06807 0.59036 0.07398 0.0
C927 C 1.03604 0.5509 0.04475 0.0
N928 N 0.1161 0.60599 0.06137 0.0
N929 N 1.06432 0.54201 0.01401 0.0
H930 H 0.14494 0.57875 0.00654 0.0
H931 H 1.05702 0.60732 0.10142 0.0
C932 C 0.14387 0.73961 0.07299 0.0
O933 O 0.17934 0.7637 0.04146 0.0
N934 N 0.24335 0.71942 0.10869 0.0
C935 C 0.28302 0.71431 0.12153 0.0
C936 C 0.32072 0.75845 0.13913 0.0
C937 C 0.25907 0.76837 0.11827 0.0
N938 N 0.30668 0.79303 0.13623 0.0
C939 C 0.2433 0.70857 0.00553 0.0
C940 C 0.16684 0.6952 0.94531 0.0
C941 C 0.21669 0.72027 0.92931 0.0
C942 C 0.25537 0.72636 0.95953 0.0
C943 C 0.15705 0.68101 -0.00831 0.0
N944 N 0.19502 0.68836 0.02154 0.0
H945 H 0.27281 0.71106 0.02799 0.0
H946 H 0.11877 0.66543 0.00391 0.0
H947 H 0.28495 0.68051 0.11968 0.0
H948 H 0.2351 0.78453 0.11656 0.0
O949 O 0.20692 0.62121 0.08109 0.0
O950 O 0.16942 0.62875 0.14535 0.0
O951 O 0.14228 0.70326 0.09707 0.0
C952 C 0.19116 0.60703 0.12398 0.0
H953 H 0.99531 0.53141 0.04539 0.0
H954 H 0.35539 0.76425 0.15504 0.0
H955 H 0.1352 0.68696 0.92252 0.0
H956 H 0.29422 0.74447 0.94797 0.0
Co957 Co 0.44958 0.52646 0.07452 0.0
C958 C 0.54226 0.56433 0.01874 0.0
C959 C 0.52679 0.4965 0.05393 0.0
C960 C 0.56683 0.51051 0.02291 0.0
N961 N 0.511 0.52996 0.05057 0.0
N962 N 0.57583 0.55283 0.00062 0.0
H963 H 0.53761 0.59485 0.00643 0.0
H964 H 0.50845 0.46265 0.07482 0.0
C965 C 0.36691 0.4231 0.04645 0.0
O966 O 0.34518 0.44638 0.02788 0.0
N967 N 0.38969 0.52609 0.09926 0.0
C968 C 0.38699 0.56791 0.10596 0.0
C969 C 0.34432 0.55642 0.13052 0.0
C970 C 0.34779 0.48931 0.12107 0.0
N971 N 0.3189 0.50699 0.13919 0.0
C972 C 0.41271 0.55901 -0.00517 0.0
C973 C 0.42381 0.49674 0.93211 0.0
C974 C 0.398 0.52084 0.91784 0.0
C975 C 0.39425 0.5542 0.94877 0.0
C976 C 0.43837 0.50008 0.97825 0.0
N977 N 0.43134 0.52948 0.00974 0.0
H978 H 0.41075 0.58534 0.01823 0.0
H979 H 0.45314 0.47656 -0.01088 0.0
H980 H 0.41555 0.60538 0.09626 0.0
H981 H 0.34116 0.45207 0.12783 0.0
O982 O 0.48999 0.59757 0.08788 0.0
O983 O 0.47786 0.53852 0.13844 0.0
O984 O 0.40878 0.4486 0.06978 0.0
C985 C 0.4991 0.58639 0.12961 0.0
H986 H 0.58561 0.48961 0.01543 0.0
H987 H 0.33385 0.583 0.14329 0.0
H988 H 0.43053 0.47309 0.90846 0.0
H989 H 0.3763 0.57508 0.93802 0.0
Co990 Co 0.17316 0.52859 0.57517 0.0
C991 C 0.11563 0.57365 0.54002 0.0
C992 C 1.06628 0.50233 0.57203 0.0
C993 C 1.03782 0.51637 0.54516 0.0
N994 N 0.11519 0.53746 0.56728 0.0
N995 N 1.06926 0.56045 0.52397 0.0
H996 H 0.1499 0.60448 0.52576 0.0
H997 H 1.05277 0.46636 0.58872 0.0
C998 C 0.13008 0.42156 0.53617 0.0
O999 O 0.15698 0.43974 0.49773 0.0
N1000 N 0.23191 0.51948 0.58303 0.0
C1001 C 0.25272 0.50381 0.54964 0.0
C1002 C 0.28585 0.49197 0.57037 0.0
C1003 C 0.25382 0.51722 0.62396 0.0
N1004 N 0.28651 0.50041 0.617 0.0
C1005 C 0.23109 0.57464 0.49201 0.0
C1006 C 0.15145 0.52828 0.42983 0.0
C1007 C 0.2006 0.55453 0.41227 0.0
C1008 C 0.24065 0.58127 0.44353 0.0
C1009 C 0.14466 0.51806 0.47756 0.0
N1010 N 0.18465 0.53916 0.50794 0.0
H1011 H 0.26177 0.59458 0.51673 0.0
H1012 H 0.10731 0.49158 0.48997 0.0
H1013 H 0.24403 0.49956 0.51239 0.0
H1014 H 0.24425 0.52515 0.65852 0.0
O1015 O 0.21214 0.59826 0.59297 0.0
O1016 O 0.16886 0.53633 0.64354 0.0
O1017 O 0.12998 0.4512 0.5686 0.0
C1018 C 0.19625 0.58441 0.63586 0.0
H1019 H 0.998 0.49324 0.53785 0.0
H1020 H 0.30725 0.47764 0.5526 0.0
H1021 H 0.11945 0.50848 0.40628 0.0
H1022 H 0.27907 0.60289 0.43093 0.0
Co1023 Co 0.59381 0.65527 0.57873 0.0
C1024 C 0.54713 0.56557 0.5161 0.0
C1025 C 0.60001 0.5661 0.56672 0.0
C1026 C 0.58474 0.52573 0.53746 0.0
N1027 N 0.57747 0.59155 0.55267 0.0
N1028 N 0.5524 0.52613 0.50536 0.0
H1029 H 0.52575 0.57778 0.4952 0.0
H1030 H 0.62773 0.57781 0.59472 0.0
C1031 C 0.69852 0.72778 0.55357 0.0
O1032 O 0.67691 0.75257 0.53848 0.0
N1033 N 0.61312 0.71758 0.6113 0.0
C1034 C 0.64362 0.72683 0.64905 0.0
C1035 C 0.65071 0.76822 0.67213 0.0
C1036 C 0.60221 0.75501 0.61166 0.0
N1037 N 0.62582 0.78663 0.64848 0.0
C1038 C 0.56389 0.69707 0.50095 0.0
C1039 C 0.61613 0.67482 0.43473 0.0
C1040 C 0.58985 0.69821 0.41989 0.0
C1041 C 0.5624 0.70869 0.45305 0.0
C1042 C 0.61893 0.66678 0.48202 0.0
N1043 N 0.59366 0.67824 0.51491 0.0
H1044 H 0.54125 0.70293 0.52652 0.0
H1045 H 0.64079 0.64978 0.4923 0.0
H1046 H 0.65851 0.70336 0.66018 0.0
H1047 H 0.57572 0.75748 0.58826 0.0
O1048 O 0.52409 0.63065 0.59144 0.0
O1049 O 0.5751 0.62237 0.64122 0.0
O1050 O 0.67102 0.68381 0.57249 0.0
C1051 C 0.52994 0.61425 0.6316 0.0
H1052 H 0.5987 0.4999 0.53796 0.0
H1053 H 0.67175 0.78321 0.70467 0.0
H1054 H 0.63675 0.665 0.40994 0.0
H1055 H 0.54124 0.72639 0.44233 0.0
Co1056 Co 0.44725 0.94 0.58424 0.0
C1057 C 0.54556 0.99567 0.5406 0.0
C1058 C 0.53151 1.04426 0.58435 0.0
C1059 C 0.57243 0.07322 0.55566 0.0
N1060 N 0.51414 0.9958 0.57383 0.0
N1061 N 0.58013 1.04231 0.5276 0.0
H1062 H 0.53864 0.96233 0.52179 0.0
H1063 H 0.51274 0.05775 0.60733 0.0
C1064 C 0.38545 0.98998 0.56499 0.0
O1065 O 0.36582 0.96251 0.52712 0.0
N1066 N 0.37877 0.88308 0.59339 0.0
C1067 C 0.34069 0.86405 0.56121 0.0
C1068 C 0.29729 0.82763 0.58162 0.0
C1069 C 0.35703 0.85728 0.63347 0.0
N1070 N 0.30754 0.82354 0.62692 0.0
C1071 C 0.42779 0.88866 0.49725 0.0
C1072 C 0.43985 0.96681 0.44087 0.0
C1073 C 0.41979 0.91878 0.42184 0.0
C1074 C 0.41648 0.87996 0.44956 0.0
C1075 C 0.45023 0.97359 0.48878 0.0
N1076 N 0.43905 0.93345 0.51682 0.0
H1077 H 0.42309 0.85811 0.51936 0.0
H1078 H 0.46416 1.01032 0.50394 0.0
H1079 H 0.34272 0.87587 0.52503 0.0
H1080 H 0.37631 0.86419 0.66713 0.0
O1081 O 0.47525 0.8973 0.59108 0.0
O1082 O 0.46551 0.93923 0.65023 0.0
O1083 O 0.41819 0.98633 0.59036 0.0
C1084 C 0.48224 0.9103 0.6353 0.0
H1085 H 0.5917 0.11353 0.55282 0.0
H1086 H 0.26072 0.80677 0.56479 0.0
H1087 H 0.44542 0.99819 0.41936 0.0
H1088 H 0.40252 0.84274 0.43533 0.0
Co1089 Co 0.21674 0.46844 0.22222 0.0
C1090 C 0.26163 0.43071 0.29443 0.0
C1091 C 0.20974 0.37453 0.24585 0.0
C1092 C 0.22653 0.35227 0.27704 0.0
N1093 N 0.23099 0.42327 0.25697 0.0
N1094 N 0.25858 0.38739 0.30773 0.0
H1095 H 0.28329 0.46597 0.31284 0.0
H1096 H 0.18311 0.35636 0.21732 0.0
C1097 C 0.11229 0.44096 0.24259 0.0
O1098 O 0.1348 0.48953 0.24854 0.0
N1099 N 0.20074 0.50984 0.18156 0.0
C1100 C 0.18 0.49039 0.13899 0.0
C1101 C 0.17454 0.52446 0.11337 0.0
C1102 C 0.20489 0.55585 0.18211 0.0
N1103 N 0.18888 0.56498 0.14054 0.0
C1104 C 0.245 0.5496 0.2889 0.0
C1105 C 0.18571 0.48604 0.36002 0.0
C1106 C 0.20937 0.53768 0.3669 0.0
C1107 C 0.24123 0.57009 0.33185 0.0
C1108 C 0.18915 0.46777 0.31703 0.0
N1109 N 0.21612 0.49934 0.28114 0.0
H1110 H 0.27058 0.57379 0.26196 0.0
H1111 H 0.16892 0.42769 0.31212 0.0
H1112 H 0.16957 0.45326 0.12688 0.0
H1113 H 0.22031 0.58256 0.21068 0.0
O1114 O 0.28681 0.51138 0.21043 0.0
O1115 O 0.23771 0.44766 0.1642 0.0
O1116 O 0.13882 0.4211 0.22888 0.0
C1117 C 0.28234 0.48619 0.17258 0.0
H1118 H 0.21504 0.31299 0.27769 0.0
H1119 H 0.15995 0.51947 0.07759 0.0
H1120 H 0.16359 0.45957 0.38751 0.0
H1121 H 0.26224 0.61016 0.33742 0.0
Co1122 Co 0.64552 0.76 0.21215 0.0
C1123 C 0.6846 0.84965 0.27541 0.0
C1124 C 0.74165 0.85154 0.22983 0.0
C1125 C 0.76451 0.89015 0.26199 0.0
N1126 N 0.69186 0.82547 0.23891 0.0
N1127 N 0.7287 0.88824 0.29101 0.0
H1128 H 0.64881 0.83617 0.29309 0.0
H1129 H 0.76047 0.84107 0.20374 0.0
C1130 C 0.69105 0.69694 0.23864 0.0
O1131 O 0.64819 0.66893 0.26057 0.0
N1132 N 0.60188 0.69476 0.18149 0.0
C1133 C 0.62286 0.67574 0.15232 0.0
C1134 C 0.58714 0.63002 0.13588 0.0
C1135 C 0.55152 0.66114 0.17827 0.0
N1136 N 0.54201 0.61985 0.15246 0.0
C1137 C 0.57401 0.71412 0.28957 0.0
C1138 C 0.64924 0.74342 0.35672 0.0
C1139 C 0.5991 0.71703 0.37117 0.0
C1140 C 0.56077 0.70289 0.33747 0.0
C1141 C 0.6604 0.75089 0.30937 0.0
N1142 N 0.62333 0.73611 0.27601 0.0
H1143 H 0.54495 0.70564 0.26375 0.0
H1144 H 0.69967 0.76993 0.29941 0.0
H1145 H 0.66196 0.69501 0.14173 0.0
H1146 H 0.52241 0.6674 0.1923 0.0
O1147 O 0.59795 0.78144 0.19958 0.0
O1148 O 0.65847 0.79316 0.14969 0.0
O1149 O 0.6987 0.73735 0.21708 0.0
C1150 C 0.62102 0.80032 0.16004 0.0
H1151 H 0.8046 0.91562 0.26538 0.0
H1152 H 0.59339 0.60782 0.11 0.0
H1153 H 0.67994 0.75581 0.3819 0.0
H1154 H 0.5215 0.68265 0.34782 0.0
Co1155 Co 0.36072 0.90135 0.21359 0.0
C1156 C 0.26237 0.85133 0.26173 0.0
C1157 C 0.26896 0.90902 0.21473 0.0
C1158 C 0.22629 0.89296 0.24201 0.0
N1159 N 0.29208 0.88378 0.228 0.0
N1160 N 0.22302 0.8575 0.27206 0.0
H1161 H 0.27276 0.82826 0.28208 0.0
H1162 H 0.28412 0.93968 0.18978 0.0
C1163 C 0.41031 1.0144 0.2351 0.0
O1164 O 0.42286 1.00933 0.27807 0.0
N1165 N 0.43086 0.92056 0.1995 0.0
C1166 C 0.47059 0.95048 0.2276 0.0
C1167 C 0.51428 0.95811 0.20747 0.0
C1168 C 0.45202 0.91196 0.16111 0.0
N1169 N 0.50288 0.93441 0.1656 0.0
C1170 C 0.39683 0.87825 0.29582 0.0
C1171 C 0.36911 0.92785 0.35936 0.0
C1172 C 0.39984 0.90903 0.37398 0.0
C1173 C 0.41163 0.88166 0.34256 0.0
C1174 C 0.35567 0.92391 0.31218 0.0
N1175 N 0.37409 0.90387 0.2804 0.0
H1176 H 0.40666 0.85781 0.27114 0.0
H1177 H 0.33391 0.9406 0.30054 0.0
H1178 H 0.46872 0.96607 0.26112 0.0
H1179 H 0.43107 0.89057 0.13045 0.0
O1180 O 0.33926 0.83188 0.20714 0.0
O1181 O 0.33846 0.87898 0.14832 0.0
O1182 O 0.38391 0.97626 0.20798 0.0
C1183 C 0.32765 0.83477 0.16369 0.0
H1184 H 0.20183 0.90871 0.24195 0.0
H1185 H 0.55184 0.98087 0.22187 0.0
H1186 H 0.35708 0.94683 0.38378 0.0
H1187 H 0.4337 0.86496 0.35343 0.0
loop_
_geom_bond_atom_site_label_1
_geom_bond_atom_site_label_2
_geom_bond_distance
_geom_bond_site_symmetry_2
_ccdc_geom_bond_type
Co0 N4 2.148 . S
Co0 N10 2.128 . S
Co0 N20 2.194 . S
Co0 O25 2.351 . S
Co0 O26 2.155 . S
Co0 O27 2.096 . S
C1 N4 1.301 . S
C1 N5 1.328 . S
C1 H6 0.930 . S
C2 C3 1.333 . S
C2 N4 1.317 . S
C2 H7 0.930 . S
C3 C2 1.333 . S
C3 N5 1.350 . S
C3 H29 0.931 . S
N4 Co0 2.148 . S
N4 C1 1.301 . S
N4 C2 1.317 . S
N5 C1 1.328 . S
N5 C3 1.350 . S
H6 C1 0.930 . S
H7 C2 0.930 . S
C8 O9 1.224 . S
C8 O27 1.247 . S
O9 C8 1.224 . S
N10 Co0 2.128 . S
N10 C11 1.355 . S
N10 C13 1.311 . S
C11 N10 1.355 . S
C11 C12 1.363 . S
C11 H23 0.929 . S
C12 C11 1.363 . S
C12 N14 1.375 . S
C12 H30 0.931 . S
C13 N10 1.311 . S
C13 N14 1.347 . S
C13 H24 0.929 . S
N14 C12 1.375 . S
N14 C13 1.347 . S
C15 C18 1.365 . S
C15 N20 1.328 . S
C15 H21 0.929 . S
C16 C17 1.362 . S
C16 C19 1.378 . S
C16 H31 0.929 . S
C17 C16 1.362 . S
C17 C18 1.366 . S
C18 C15 1.365 . S
C18 C17 1.366 . S
C18 H32 0.930 . S
C19 C16 1.378 . S
C19 N20 1.315 . S
C19 H22 0.930 . S
N20 Co0 2.194 . S
N20 C15 1.328 . S
N20 C19 1.315 . S
H21 C15 0.929 . S
H22 C19 0.930 . S
H23 C11 0.929 . S
H24 C13 0.929 . S
O25 Co0 2.351 . S
O25 C28 1.244 . S
O26 Co0 2.155 . S
O26 C28 1.240 . S
O27 Co0 2.096 . S
O27 C8 1.247 . S
C28 O25 1.244 . S
C28 O26 1.240 . S
H29 C3 0.931 . S
H30 C12 0.931 . S
H31 C16 0.929 . S
H32 C18 0.930 . S
Co33 N37 2.148 . S
Co33 N43 2.128 1_545 S
Co33 N53 2.194 . S
Co33 O58 2.351 . S
Co33 O59 2.155 . S
Co33 O60 2.096 . S
C34 N37 1.301 . S
C34 N38 1.328 . S
C34 H39 0.930 . S
C35 C36 1.333 . S
C35 N37 1.317 . S
C35 H40 0.930 . S
C36 C35 1.333 . S
C36 N38 1.350 . S
C36 H62 0.931 . S
N37 Co33 2.148 . S
N37 C34 1.301 . S
N37 C35 1.317 . S
N38 C34 1.328 . S
N38 C36 1.350 . S
H39 C34 0.930 . S
H40 C35 0.930 . S
C41 O42 1.224 . S
C41 O60 1.247 1_565 S
O42 C41 1.224 . S
N43 Co33 2.128 1_565 S
N43 C44 1.355 . S
N43 C46 1.311 . S
C44 N43 1.355 . S
C44 C45 1.363 . S
C44 H56 0.929 . S
C45 C44 1.363 . S
C45 N47 1.375 . S
C45 H63 0.931 . S
C46 N43 1.311 . S
C46 N47 1.347 . S
C46 H57 0.929 . S
N47 C45 1.375 . S
N47 C46 1.347 . S
C48 C51 1.365 . S
C48 N53 1.328 . S
C48 H54 0.929 . S
C49 C50 1.362 . S
C49 C52 1.378 . S
C49 H64 0.929 . S
C50 C49 1.362 . S
C50 C51 1.366 1_565 S
C51 C48 1.365 . S
C51 C50 1.366 1_545 S
C51 H65 0.930 . S
C52 C49 1.378 . S
C52 N53 1.315 1_565 S
C52 H55 0.930 . S
N53 Co33 2.194 . S
N53 C48 1.328 . S
N53 C52 1.315 1_545 S
H54 C48 0.929 . S
H55 C52 0.930 . S
H56 C44 0.929 . S
H57 C46 0.929 . S
O58 Co33 2.351 . S
O58 C61 1.244 . S
O59 Co33 2.155 . S
O59 C61 1.240 . S
O60 Co33 2.096 . S
O60 C41 1.247 1_545 S
C61 O58 1.244 . S
C61 O59 1.240 . S
H62 C36 0.931 . S
H63 C45 0.931 . S
H64 C49 0.929 . S
H65 C51 0.930 . S
Co66 N70 2.148 . S
Co66 N76 2.128 1_655 S
Co66 N86 2.194 . S
Co66 O91 2.351 . S
Co66 O92 2.155 . S
Co66 O93 2.096 . S
C67 N70 1.301 . S
C67 N71 1.328 . S
C67 H72 0.930 . S
C68 C69 1.333 . S
C68 N70 1.317 . S
C68 H73 0.930 . S
C69 C68 1.333 . S
C69 N71 1.350 . S
C69 H95 0.931 . S
N70 Co66 2.148 . S
N70 C67 1.301 . S
N70 C68 1.317 . S
N71 C67 1.328 . S
N71 C69 1.350 . S
H72 C67 0.930 . S
H73 C68 0.930 . S
C74 O75 1.224 . S
C74 O93 1.247 1_455 S
O75 C74 1.224 . S
N76 Co66 2.128 1_455 S
N76 C77 1.355 . S
N76 C79 1.311 . S
C77 N76 1.355 . S
C77 C78 1.363 . S
C77 H89 0.929 . S
C78 C77 1.363 . S
C78 N80 1.375 . S
C78 H96 0.931 . S
C79 N76 1.311 . S
C79 N80 1.347 . S
C79 H90 0.929 . S
N80 C78 1.375 . S
N80 C79 1.347 . S
C81 C84 1.365 . S
C81 N86 1.328 . S
C81 H87 0.929 . S
C82 C83 1.362 . S
C82 C85 1.378 . S
C82 H97 0.929 . S
C83 C82 1.362 . S
C83 C84 1.366 1_455 S
C84 C81 1.365 . S
C84 C83 1.366 1_655 S
C84 H98 0.930 . S
C85 C82 1.378 . S
C85 N86 1.315 1_455 S
C85 H88 0.930 . S
N86 Co66 2.194 . S
N86 C81 1.328 . S
N86 C85 1.315 1_655 S
H87 C81 0.929 . S
H88 C85 0.930 . S
H89 C77 0.929 . S
H90 C79 0.929 . S
O91 Co66 2.351 . S
O91 C94 1.244 . S
O92 Co66 2.155 . S
O92 C94 1.240 . S
O93 Co66 2.096 . S
O93 C74 1.247 1_655 S
C94 O91 1.244 . S
C94 O92 1.240 . S
H95 C69 0.931 . S
H96 C78 0.931 . S
H97 C82 0.929 . S
H98 C84 0.930 . S
Co99 N103 2.148 . S
Co99 N109 2.128 . S
Co99 N119 2.194 . S
Co99 O124 2.351 . S
Co99 O125 2.155 . S
Co99 O126 2.096 . S
C100 N103 1.301 . S
C100 N104 1.328 . S
C100 H105 0.930 . S
C101 C102 1.333 . S
C101 N103 1.317 . S
C101 H106 0.930 . S
C102 C101 1.333 . S
C102 N104 1.350 . S
C102 H128 0.931 . S
N103 Co99 2.148 . S
N103 C100 1.301 . S
N103 C101 1.317 . S
N104 C100 1.328 . S
N104 C102 1.350 . S
H105 C100 0.930 . S
H106 C101 0.930 . S
C107 O108 1.224 . S
C107 O126 1.247 . S
O108 C107 1.224 . S
N109 Co99 2.128 . S
N109 C110 1.355 . S
N109 C112 1.311 . S
C110 N109 1.355 . S
C110 C111 1.363 . S
C110 H122 0.929 . S
C111 C110 1.363 . S
C111 N113 1.375 . S
C111 H129 0.931 . S
C112 N109 1.311 . S
C112 N113 1.347 . S
C112 H123 0.929 . S
N113 C111 1.375 . S
N113 C112 1.347 . S
C114 C117 1.365 . S
C114 N119 1.328 . S
C114 H120 0.929 . S
C115 C116 1.362 . S
C115 C118 1.378 . S
C115 H130 0.929 . S
C116 C115 1.362 . S
C116 C117 1.366 . S
C117 C114 1.365 . S
C117 C116 1.366 . S
C117 H131 0.930 . S
C118 C115 1.378 . S
C118 N119 1.315 . S
C118 H121 0.930 . S
N119 Co99 2.194 . S
N119 C114 1.328 . S
N119 C118 1.315 . S
H120 C114 0.929 . S
H121 C118 0.930 . S
H122 C110 0.929 . S
H123 C112 0.929 . S
O124 Co99 2.351 . S
O124 C127 1.244 . S
O125 Co99 2.155 . S
O125 C127 1.240 . S
O126 Co99 2.096 . S
O126 C107 1.247 . S
C127 O124 1.244 . S
C127 O125 1.240 . S
H128 C102 0.931 . S
H129 C111 0.931 . S
H130 C115 0.929 . S
H131 C117 0.930 . S
Co132 N136 2.148 . S
Co132 N142 2.128 1_565 S
Co132 N152 2.194 . S
Co132 O157 2.351 . S
Co132 O158 2.155 . S
Co132 O159 2.096 . S
C133 N136 1.301 . S
C133 N137 1.328 . S
C133 H138 0.930 . S
C134 C135 1.333 . S
C134 N136 1.317 . S
C134 H139 0.930 . S
C135 C134 1.333 . S
C135 N137 1.350 . S
C135 H161 0.931 . S
N136 Co132 2.148 . S
N136 C133 1.301 . S
N136 C134 1.317 . S
N137 C133 1.328 . S
N137 C135 1.350 . S
H138 C133 0.930 . S
H139 C134 0.930 . S
C140 O141 1.224 . S
C140 O159 1.247 1_545 S
O141 C140 1.224 . S
N142 Co132 2.128 1_545 S
N142 C143 1.355 . S
N142 C145 1.311 . S
C143 N142 1.355 . S
C143 C144 1.363 . S
C143 H155 0.929 . S
C144 C143 1.363 . S
C144 N146 1.375 . S
C144 H162 0.931 . S
C145 N142 1.311 . S
C145 N146 1.347 . S
C145 H156 0.929 . S
N146 C144 1.375 . S
N146 C145 1.347 . S
C147 C150 1.365 . S
C147 N152 1.328 . S
C147 H153 0.929 . S
C148 C149 1.362 . S
C148 C151 1.378 . S
C148 H163 0.929 . S
C149 C148 1.362 . S
C149 C150 1.366 1_545 S
C150 C147 1.365 . S
C150 C149 1.366 1_565 S
C150 H164 0.930 . S
C151 C148 1.378 . S
C151 N152 1.315 1_545 S
C151 H154 0.930 . S
N152 Co132 2.194 . S
N152 C147 1.328 . S
N152 C151 1.315 1_565 S
H153 C147 0.929 . S
H154 C151 0.930 . S
H155 C143 0.929 . S
H156 C145 0.929 . S
O157 Co132 2.351 . S
O157 C160 1.244 . S
O158 Co132 2.155 . S
O158 C160 1.240 . S
O159 Co132 2.096 . S
O159 C140 1.247 1_565 S
C160 O157 1.244 . S
C160 O158 1.240 . S
H161 C135 0.931 . S
H162 C144 0.931 . S
H163 C148 0.929 . S
H164 C150 0.930 . S
Co165 N169 2.148 . S
Co165 N175 2.128 1_455 S
Co165 N185 2.194 . S
Co165 O190 2.351 . S
Co165 O191 2.155 . S
Co165 O192 2.096 . S
C166 N169 1.301 . S
C166 N170 1.328 . S
C166 H171 0.930 . S
C167 C168 1.333 . S
C167 N169 1.317 . S
C167 H172 0.930 . S
C168 C167 1.333 . S
C168 N170 1.350 . S
C168 H194 0.931 . S
N169 Co165 2.148 . S
N169 C166 1.301 . S
N169 C167 1.317 . S
N170 C166 1.328 . S
N170 C168 1.350 . S
H171 C166 0.930 . S
H172 C167 0.930 . S
C173 O174 1.224 . S
C173 O192 1.247 1_655 S
O174 C173 1.224 . S
N175 Co165 2.128 1_655 S
N175 C176 1.355 . S
N175 C178 1.311 . S
C176 N175 1.355 . S
C176 C177 1.363 . S
C176 H188 0.929 . S
C177 C176 1.363 . S
C177 N179 1.375 . S
C177 H195 0.931 . S
C178 N175 1.311 . S
C178 N179 1.347 . S
C178 H189 0.929 . S
N179 C177 1.375 . S
N179 C178 1.347 . S
C180 C183 1.365 . S
C180 N185 1.328 . S
C180 H186 0.929 . S
C181 C182 1.362 . S
C181 C184 1.378 . S
C181 H196 0.929 . S
C182 C181 1.362 . S
C182 C183 1.366 1_655 S
C183 C180 1.365 . S
C183 C182 1.366 1_455 S
C183 H197 0.930 . S
C184 C181 1.378 . S
C184 N185 1.315 1_655 S
C184 H187 0.930 . S
N185 Co165 2.194 . S
N185 C180 1.328 . S
N185 C184 1.315 1_455 S
H186 C180 0.929 . S
H187 C184 0.930 . S
H188 C176 0.929 . S
H189 C178 0.929 . S
O190 Co165 2.351 . S
O190 C193 1.244 . S
O191 Co165 2.155 . S
O191 C193 1.240 . S
O192 Co165 2.096 . S
O192 C173 1.247 1_455 S
C193 O190 1.244 . S
C193 O191 1.240 . S
H194 C168 0.931 . S
H195 C177 0.931 . S
H196 C181 0.929 . S
H197 C183 0.930 . S
Co198 N202 2.148 . S
Co198 N208 2.128 . S
Co198 N218 2.194 . S
Co198 O223 2.351 . S
Co198 O224 2.155 . S
Co198 O225 2.096 . S
C199 N202 1.301 . S
C199 N203 1.328 . S
C199 H204 0.930 . S
C200 C201 1.333 . S
C200 N202 1.317 . S
C200 H205 0.930 . S
C201 C200 1.333 . S
C201 N203 1.350 . S
C201 H227 0.931 . S
N202 Co198 2.148 . S
N202 C199 1.301 . S
N202 C200 1.317 . S
N203 C199 1.328 . S
N203 C201 1.350 . S
H204 C199 0.930 . S
H205 C200 0.930 . S
C206 O207 1.224 . S
C206 O225 1.247 . S
O207 C206 1.224 . S
N208 Co198 2.128 . S
N208 C209 1.355 . S
N208 C211 1.311 . S
C209 N208 1.355 . S
C209 C210 1.363 . S
C209 H221 0.929 . S
C210 C209 1.363 . S
C210 N212 1.375 . S
C210 H228 0.931 . S
C211 N208 1.311 . S
C211 N212 1.347 . S
C211 H222 0.929 . S
N212 C210 1.375 . S
N212 C211 1.347 . S
C213 C216 1.365 . S
C213 N218 1.328 . S
C213 H219 0.929 . S
C214 C215 1.362 . S
C214 C217 1.378 . S
C214 H229 0.929 . S
C215 C214 1.362 . S
C215 C216 1.366 . S
C216 C213 1.365 . S
C216 C215 1.366 . S
C216 H230 0.930 . S
C217 C214 1.378 . S
C217 N218 1.315 . S
C217 H220 0.930 . S
N218 Co198 2.194 . S
N218 C213 1.328 . S
N218 C217 1.315 . S
H219 C213 0.929 . S
H220 C217 0.930 . S
H221 C209 0.929 . S
H222 C211 0.929 . S
O223 Co198 2.351 . S
O223 C226 1.244 . S
O224 Co198 2.155 . S
O224 C226 1.240 . S
O225 Co198 2.096 . S
O225 C206 1.247 . S
C226 O223 1.244 . S
C226 O224 1.240 . S
H227 C201 0.931 . S
H228 C210 0.931 . S
H229 C214 0.929 . S
H230 C216 0.930 . S
Co231 N235 2.148 . S
Co231 N241 2.128 1_565 S
Co231 N251 2.194 . S
Co231 O256 2.351 . S
Co231 O257 2.155 . S
Co231 O258 2.096 . S
C232 N235 1.301 . S
C232 N236 1.328 . S
C232 H237 0.930 . S
C233 C234 1.333 . S
C233 N235 1.317 . S
C233 H238 0.930 . S
C234 C233 1.333 . S
C234 N236 1.350 . S
C234 H260 0.931 . S
N235 Co231 2.148 . S
N235 C232 1.301 . S
N235 C233 1.317 . S
N236 C232 1.328 . S
N236 C234 1.350 . S
H237 C232 0.930 . S
H238 C233 0.930 . S
C239 O240 1.224 . S
C239 O258 1.247 1_545 S
O240 C239 1.224 . S
N241 Co231 2.128 1_545 S
N241 C242 1.355 . S
N241 C244 1.311 . S
C242 N241 1.355 . S
C242 C243 1.363 . S
C242 H254 0.929 . S
C243 C242 1.363 . S
C243 N245 1.375 . S
C243 H261 0.931 . S
C244 N241 1.311 . S
C244 N245 1.347 . S
C244 H255 0.929 . S
N245 C243 1.375 . S
N245 C244 1.347 . S
C246 C249 1.365 . S
C246 N251 1.328 . S
C246 H252 0.929 . S
C247 C248 1.362 . S
C247 C250 1.378 . S
C247 H262 0.929 . S
C248 C247 1.362 . S
C248 C249 1.366 1_545 S
C249 C246 1.365 . S
C249 C248 1.366 1_565 S
C249 H263 0.930 . S
C250 C247 1.378 . S
C250 N251 1.315 1_545 S
C250 H253 0.930 . S
N251 Co231 2.194 . S
N251 C246 1.328 . S
N251 C250 1.315 1_565 S
H252 C246 0.929 . S
H253 C250 0.930 . S
H254 C242 0.929 . S
H255 C244 0.929 . S
O256 Co231 2.351 . S
O256 C259 1.244 . S
O257 Co231 2.155 . S
O257 C259 1.240 . S
O258 Co231 2.096 . S
O258 C239 1.247 1_565 S
C259 O256 1.244 . S
C259 O257 1.240 . S
H260 C234 0.931 . S
H261 C243 0.931 . S
H262 C247 0.929 . S
H263 C249 0.930 . S
Co264 N268 2.148 . S
Co264 N274 2.128 1_455 S
Co264 N284 2.194 . S
Co264 O289 2.351 . S
Co264 O290 2.155 . S
Co264 O291 2.096 . S
C265 N268 1.301 . S
C265 N269 1.328 . S
C265 H270 0.930 . S
C266 C267 1.333 . S
C266 N268 1.317 . S
C266 H271 0.930 . S
C267 C266 1.333 . S
C267 N269 1.350 . S
C267 H293 0.931 . S
N268 Co264 2.148 . S
N268 C265 1.301 . S
N268 C266 1.317 . S
N269 C265 1.328 . S
N269 C267 1.350 . S
H270 C265 0.930 . S
H271 C266 0.930 . S
C272 O273 1.224 . S
C272 O291 1.247 1_655 S
O273 C272 1.224 . S
N274 Co264 2.128 1_655 S
N274 C275 1.355 . S
N274 C277 1.311 . S
C275 N274 1.355 . S
C275 C276 1.363 . S
C275 H287 0.929 . S
C276 C275 1.363 . S
C276 N278 1.375 . S
C276 H294 0.931 . S
C277 N274 1.311 . S
C277 N278 1.347 . S
C277 H288 0.929 . S
N278 C276 1.375 . S
N278 C277 1.347 . S
C279 C282 1.365 . S
C279 N284 1.328 . S
C279 H285 0.929 . S
C280 C281 1.362 . S
C280 C283 1.378 . S
C280 H295 0.929 . S
C281 C280 1.362 . S
C281 C282 1.366 1_655 S
C282 C279 1.365 . S
C282 C281 1.366 1_455 S
C282 H296 0.930 . S
C283 C280 1.378 . S
C283 N284 1.315 1_655 S
C283 H286 0.930 . S
N284 Co264 2.194 . S
N284 C279 1.328 . S
N284 C283 1.315 1_455 S
H285 C279 0.929 . S
H286 C283 0.930 . S
H287 C275 0.929 . S
H288 C277 0.929 . S
O289 Co264 2.351 . S
O289 C292 1.244 . S
O290 Co264 2.155 . S
O290 C292 1.240 . S
O291 Co264 2.096 . S
O291 C272 1.247 1_455 S
C292 O289 1.244 . S
C292 O290 1.240 . S
H293 C267 0.931 . S
H294 C276 0.931 . S
H295 C280 0.929 . S
H296 C282 0.930 . S
Co297 N301 2.148 . S
Co297 N307 2.128 . S
Co297 N317 2.194 . S
Co297 O322 2.351 . S
Co297 O323 2.155 . S
Co297 O324 2.096 . S
C298 N301 1.301 . S
C298 N302 1.328 . S
C298 H303 0.930 . S
C299 C300 1.333 . S
C299 N301 1.317 . S
C299 H304 0.930 . S
C300 C299 1.333 . S
C300 N302 1.350 . S
C300 H326 0.931 . S
N301 Co297 2.148 . S
N301 C298 1.301 . S
N301 C299 1.317 . S
N302 C298 1.328 . S
N302 C300 1.350 . S
H303 C298 0.930 . S
H304 C299 0.930 . S
C305 O306 1.224 . S
C305 O324 1.247 . S
O306 C305 1.224 . S
N307 Co297 2.128 . S
N307 C308 1.355 . S
N307 C310 1.311 . S
C308 N307 1.355 . S
C308 C309 1.363 . S
C308 H320 0.929 . S
C309 C308 1.363 . S
C309 N311 1.375 . S
C309 H327 0.931 . S
C310 N307 1.311 . S
C310 N311 1.347 . S
C310 H321 0.929 . S
N311 C309 1.375 . S
N311 C310 1.347 . S
C312 C315 1.365 . S
C312 N317 1.328 . S
C312 H318 0.929 . S
C313 C314 1.362 . S
C313 C316 1.378 . S
C313 H328 0.929 . S
C314 C313 1.362 . S
C314 C315 1.366 . S
C315 C312 1.365 . S
C315 C314 1.366 . S
C315 H329 0.930 . S
C316 C313 1.378 . S
C316 N317 1.315 . S
C316 H319 0.930 . S
N317 Co297 2.194 . S
N317 C312 1.328 . S
N317 C316 1.315 . S
H318 C312 0.929 . S
H319 C316 0.930 . S
H320 C308 0.929 . S
H321 C310 0.929 . S
O322 Co297 2.351 . S
O322 C325 1.244 . S
O323 Co297 2.155 . S
O323 C325 1.240 . S
O324 Co297 2.096 . S
O324 C305 1.247 . S
C325 O322 1.244 . S
C325 O323 1.240 . S
H326 C300 0.931 . S
H327 C309 0.931 . S
H328 C313 0.929 . S
H329 C315 0.930 . S
Co330 N334 2.148 . S
Co330 N340 2.128 1_545 S
Co330 N350 2.194 . S
Co330 O355 2.351 . S
Co330 O356 2.155 . S
Co330 O357 2.096 . S
C331 N334 1.301 . S
C331 N335 1.328 . S
C331 H336 0.930 . S
C332 C333 1.333 . S
C332 N334 1.317 . S
C332 H337 0.930 . S
C333 C332 1.333 . S
C333 N335 1.350 . S
C333 H359 0.931 . S
N334 Co330 2.148 . S
N334 C331 1.301 . S
N334 C332 1.317 . S
N335 C331 1.328 . S
N335 C333 1.350 . S
H336 C331 0.930 . S
H337 C332 0.930 . S
C338 O339 1.224 . S
C338 O357 1.247 1_565 S
O339 C338 1.224 . S
N340 Co330 2.128 1_565 S
N340 C341 1.355 . S
N340 C343 1.311 . S
C341 N340 1.355 . S
C341 C342 1.363 . S
C341 H353 0.929 . S
C342 C341 1.363 . S
C342 N344 1.375 . S
C342 H360 0.931 . S
C343 N340 1.311 . S
C343 N344 1.347 . S
C343 H354 0.929 . S
N344 C342 1.375 . S
N344 C343 1.347 . S
C345 C348 1.365 . S
C345 N350 1.328 . S
C345 H351 0.929 . S
C346 C347 1.362 . S
C346 C349 1.378 . S
C346 H361 0.929 . S
C347 C346 1.362 . S
C347 C348 1.366 1_565 S
C348 C345 1.365 . S
C348 C347 1.366 1_545 S
C348 H362 0.930 . S
C349 C346 1.378 . S
C349 N350 1.315 1_565 S
C349 H352 0.930 . S
N350 Co330 2.194 . S
N350 C345 1.328 . S
N350 C349 1.315 1_545 S
H351 C345 0.929 . S
H352 C349 0.930 . S
H353 C341 0.929 . S
H354 C343 0.929 . S
O355 Co330 2.351 . S
O355 C358 1.244 . S
O356 Co330 2.155 . S
O356 C358 1.240 . S
O357 Co330 2.096 . S
O357 C338 1.247 1_545 S
C358 O355 1.244 . S
C358 O356 1.240 . S
H359 C333 0.931 . S
H360 C342 0.931 . S
H361 C346 0.929 . S
H362 C348 0.930 . S
Co363 N367 2.148 . S
Co363 N373 2.128 1_655 S
Co363 N383 2.194 . S
Co363 O388 2.351 . S
Co363 O389 2.155 . S
Co363 O390 2.096 . S
C364 N367 1.301 . S
C364 N368 1.328 . S
C364 H369 0.930 . S
C365 C366 1.333 . S
C365 N367 1.317 . S
C365 H370 0.930 . S
C366 C365 1.333 . S
C366 N368 1.350 . S
C366 H392 0.931 . S
N367 Co363 2.148 . S
N367 C364 1.301 . S
N367 C365 1.317 . S
N368 C364 1.328 . S
N368 C366 1.350 . S
H369 C364 0.930 . S
H370 C365 0.930 . S
C371 O372 1.224 . S
C371 O390 1.247 1_455 S
O372 C371 1.224 . S
N373 Co363 2.128 1_455 S
N373 C374 1.355 . S
N373 C376 1.311 . S
C374 N373 1.355 . S
C374 C375 1.363 . S
C374 H386 0.929 . S
C375 C374 1.363 . S
C375 N377 1.375 . S
C375 H393 0.931 . S
C376 N373 1.311 . S
C376 N377 1.347 . S
C376 H387 0.929 . S
N377 C375 1.375 . S
N377 C376 1.347 . S
C378 C381 1.365 . S
C378 N383 1.328 . S
C378 H384 0.929 . S
C379 C380 1.362 . S
C379 C382 1.378 . S
C379 H394 0.929 . S
C380 C379 1.362 . S
C380 C381 1.366 1_455 S
C381 C378 1.365 . S
C381 C380 1.366 1_655 S
C381 H395 0.930 . S
C382 C379 1.378 . S
C382 N383 1.315 1_455 S
C382 H385 0.930 . S
N383 Co363 2.194 . S
N383 C378 1.328 . S
N383 C382 1.315 1_655 S
H384 C378 0.929 . S
H385 C382 0.930 . S
H386 C374 0.929 . S
H387 C376 0.929 . S
O388 Co363 2.351 . S
O388 C391 1.244 . S
O389 Co363 2.155 . S
O389 C391 1.240 . S
O390 Co363 2.096 . S
O390 C371 1.247 1_655 S
C391 O388 1.244 . S
C391 O389 1.240 . S
H392 C366 0.931 . S
H393 C375 0.931 . S
H394 C379 0.929 . S
H395 C381 0.930 . S
Co396 N400 2.148 . S
Co396 N406 2.128 . S
Co396 N416 2.194 . S
Co396 O421 2.351 . S
Co396 O422 2.155 . S
Co396 O423 2.096 . S
C397 N400 1.301 . S
C397 N401 1.328 1_655 S
C397 H402 0.930 . S
C398 C399 1.333 . S
C398 N400 1.317 1_455 S
C398 H403 0.930 . S
C399 C398 1.333 . S
C399 N401 1.350 . S
C399 H425 0.931 . S
N400 Co396 2.148 . S
N400 C397 1.301 . S
N400 C398 1.317 1_655 S
N401 C397 1.328 1_455 S
N401 C399 1.350 . S
H402 C397 0.930 . S
H403 C398 0.930 . S
C404 O405 1.224 . S
C404 O423 1.247 . S
O405 C404 1.224 . S
N406 Co396 2.128 . S
N406 C407 1.355 . S
N406 C409 1.311 . S
C407 N406 1.355 . S
C407 C408 1.363 . S
C407 H419 0.929 . S
C408 C407 1.363 . S
C408 N410 1.375 . S
C408 H426 0.931 . S
C409 N406 1.311 . S
C409 N410 1.347 . S
C409 H420 0.929 . S
N410 C408 1.375 . S
N410 C409 1.347 . S
C411 C414 1.365 . S
C411 N416 1.328 . S
C411 H417 0.929 . S
C412 C413 1.362 . S
C412 C415 1.378 . S
C412 H427 0.929 . S
C413 C412 1.362 . S
C413 C414 1.366 . S
C414 C411 1.365 . S
C414 C413 1.366 . S
C414 H428 0.930 . S
C415 C412 1.378 . S
C415 N416 1.315 . S
C415 H418 0.930 . S
N416 Co396 2.194 . S
N416 C411 1.328 . S
N416 C415 1.315 . S
H417 C411 0.929 . S
H418 C415 0.930 . S
H419 C407 0.929 . S
H420 C409 0.929 . S
O421 Co396 2.351 . S
O421 C424 1.244 . S
O422 Co396 2.155 . S
O422 C424 1.240 . S
O423 Co396 2.096 . S
O423 C404 1.247 . S
C424 O421 1.244 . S
C424 O422 1.240 . S
H425 C399 0.931 . S
H426 C408 0.931 . S
H427 C412 0.929 . S
H428 C414 0.930 . S
Co429 N433 2.148 . S
Co429 N439 2.128 . S
Co429 N449 2.194 . S
Co429 O454 2.351 . S
Co429 O455 2.155 . S
Co429 O456 2.096 . S
C430 N433 1.301 . S
C430 N434 1.328 . S
C430 H435 0.930 . S
C431 C432 1.333 . S
C431 N433 1.317 . S
C431 H436 0.930 . S
C432 C431 1.333 . S
C432 N434 1.350 . S
C432 H458 0.931 . S
N433 Co429 2.148 . S
N433 C430 1.301 . S
N433 C431 1.317 . S
N434 C430 1.328 . S
N434 C432 1.350 . S
H435 C430 0.930 . S
H436 C431 0.930 . S
C437 O438 1.224 . S
C437 O456 1.247 . S
O438 C437 1.224 . S
N439 Co429 2.128 . S
N439 C440 1.355 . S
N439 C442 1.311 . S
C440 N439 1.355 . S
C440 C441 1.363 . S
C440 H452 0.929 . S
C441 C440 1.363 . S
C441 N443 1.375 . S
C441 H459 0.931 . S
C442 N439 1.311 . S
C442 N443 1.347 . S
C442 H453 0.929 . S
N443 C441 1.375 . S
N443 C442 1.347 . S
C444 C447 1.365 . S
C444 N449 1.328 . S
C444 H450 0.929 . S
C445 C446 1.362 . S
C445 C448 1.378 . S
C445 H460 0.929 . S
C446 C445 1.362 . S
C446 C447 1.366 . S
C447 C444 1.365 . S
C447 C446 1.366 . S
C447 H461 0.930 . S
C448 C445 1.378 . S
C448 N449 1.315 . S
C448 H451 0.930 . S
N449 Co429 2.194 . S
N449 C444 1.328 . S
N449 C448 1.315 . S
H450 C444 0.929 . S
H451 C448 0.930 . S
H452 C440 0.929 . S
H453 C442 0.929 . S
O454 Co429 2.351 . S
O454 C457 1.244 . S
O455 Co429 2.155 . S
O455 C457 1.240 . S
O456 Co429 2.096 . S
O456 C437 1.247 . S
C457 O454 1.244 . S
C457 O455 1.240 . S
H458 C432 0.931 . S
H459 C441 0.931 . S
H460 C445 0.929 . S
H461 C447 0.930 . S
Co462 N466 2.148 . S
Co462 N472 2.128 . S
Co462 N482 2.194 . S
Co462 O487 2.351 . S
Co462 O488 2.155 . S
Co462 O489 2.096 . S
C463 N466 1.301 . S
C463 N467 1.328 1_545 S
C463 H468 0.930 . S
C464 C465 1.333 . S
C464 N466 1.317 1_565 S
C464 H469 0.930 . S
C465 C464 1.333 . S
C465 N467 1.350 . S
C465 H491 0.931 . S
N466 Co462 2.148 . S
N466 C463 1.301 . S
N466 C464 1.317 1_545 S
N467 C463 1.328 1_565 S
N467 C465 1.350 . S
H468 C463 0.930 . S
H469 C464 0.930 . S
C470 O471 1.224 . S
C470 O489 1.247 . S
O471 C470 1.224 . S
N472 Co462 2.128 . S
N472 C473 1.355 . S
N472 C475 1.311 . S
C473 N472 1.355 . S
C473 C474 1.363 . S
C473 H485 0.929 . S
C474 C473 1.363 . S
C474 N476 1.375 . S
C474 H492 0.931 . S
C475 N472 1.311 . S
C475 N476 1.347 . S
C475 H486 0.929 . S
N476 C474 1.375 . S
N476 C475 1.347 . S
C477 C480 1.365 . S
C477 N482 1.328 . S
C477 H483 0.929 . S
C478 C479 1.362 . S
C478 C481 1.378 . S
C478 H493 0.929 . S
C479 C478 1.362 . S
C479 C480 1.366 . S
C480 C477 1.365 . S
C480 C479 1.366 . S
C480 H494 0.930 . S
C481 C478 1.378 . S
C481 N482 1.315 . S
C481 H484 0.930 . S
N482 Co462 2.194 . S
N482 C477 1.328 . S
N482 C481 1.315 . S
H483 C477 0.929 . S
H484 C481 0.930 . S
H485 C473 0.929 . S
H486 C475 0.929 . S
O487 Co462 2.351 . S
O487 C490 1.244 . S
O488 Co462 2.155 . S
O488 C490 1.240 . S
O489 Co462 2.096 . S
O489 C470 1.247 . S
C490 O487 1.244 . S
C490 O488 1.240 . S
H491 C465 0.931 . S
H492 C474 0.931 . S
H493 C478 0.929 . S
H494 C480 0.930 . S
Co495 N499 2.148 . S
Co495 N505 2.128 . S
Co495 N515 2.194 . S
Co495 O520 2.351 . S
Co495 O521 2.155 . S
Co495 O522 2.096 . S
C496 N499 1.301 . S
C496 N500 1.328 . S
C496 H501 0.930 . S
C497 C498 1.333 . S
C497 N499 1.317 . S
C497 H502 0.930 . S
C498 C497 1.333 . S
C498 N500 1.350 . S
C498 H524 0.931 . S
N499 Co495 2.148 . S
N499 C496 1.301 . S
N499 C497 1.317 . S
N500 C496 1.328 . S
N500 C498 1.350 . S
H501 C496 0.930 . S
H502 C497 0.930 . S
C503 O504 1.224 . S
C503 O522 1.247 . S
O504 C503 1.224 . S
N505 Co495 2.128 . S
N505 C506 1.355 . S
N505 C508 1.311 . S
C506 N505 1.355 . S
C506 C507 1.363 . S
C506 H518 0.929 . S
C507 C506 1.363 . S
C507 N509 1.375 . S
C507 H525 0.931 . S
C508 N505 1.311 . S
C508 N509 1.347 . S
C508 H519 0.929 . S
N509 C507 1.375 . S
N509 C508 1.347 . S
C510 C513 1.365 . S
C510 N515 1.328 . S
C510 H516 0.929 . S
C511 C512 1.362 . S
C511 C514 1.378 . S
C511 H526 0.929 . S
C512 C511 1.362 . S
C512 C513 1.366 . S
C513 C510 1.365 . S
C513 C512 1.366 . S
C513 H527 0.930 . S
C514 C511 1.378 . S
C514 N515 1.315 . S
C514 H517 0.930 . S
N515 Co495 2.194 . S
N515 C510 1.328 . S
N515 C514 1.315 . S
H516 C510 0.929 . S
H517 C514 0.930 . S
H518 C506 0.929 . S
H519 C508 0.929 . S
O520 Co495 2.351 . S
O520 C523 1.244 . S
O521 Co495 2.155 . S
O521 C523 1.240 . S
O522 Co495 2.096 . S
O522 C503 1.247 . S
C523 O520 1.244 . S
C523 O521 1.240 . S
H524 C498 0.931 . S
H525 C507 0.931 . S
H526 C511 0.929 . S
H527 C513 0.930 . S
Co528 N532 2.148 . S
Co528 N538 2.128 . S
Co528 N548 2.194 . S
Co528 O553 2.351 . S
Co528 O554 2.155 . S
Co528 O555 2.096 . S
C529 N532 1.301 . S
C529 N533 1.328 . S
C529 H534 0.930 . S
C530 C531 1.333 . S
C530 N532 1.317 . S
C530 H535 0.930 . S
C531 C530 1.333 . S
C531 N533 1.350 . S
C531 H557 0.931 . S
N532 Co528 2.148 . S
N532 C529 1.301 . S
N532 C530 1.317 . S
N533 C529 1.328 . S
N533 C531 1.350 . S
H534 C529 0.930 . S
H535 C530 0.930 . S
C536 O537 1.224 . S
C536 O555 1.247 . S
O537 C536 1.224 . S
N538 Co528 2.128 . S
N538 C539 1.355 . S
N538 C541 1.311 . S
C539 N538 1.355 . S
C539 C540 1.363 . S
C539 H551 0.929 . S
C540 C539 1.363 . S
C540 N542 1.375 . S
C540 H558 0.931 . S
C541 N538 1.311 . S
C541 N542 1.347 . S
C541 H552 0.929 . S
N542 C540 1.375 . S
N542 C541 1.347 . S
C543 C546 1.365 . S
C543 N548 1.328 . S
C543 H549 0.929 . S
C544 C545 1.362 . S
C544 C547 1.378 . S
C544 H559 0.929 . S
C545 C544 1.362 . S
C545 C546 1.366 . S
C546 C543 1.365 . S
C546 C545 1.366 . S
C546 H560 0.930 . S
C547 C544 1.378 . S
C547 N548 1.315 . S
C547 H550 0.930 . S
N548 Co528 2.194 . S
N548 C543 1.328 . S
N548 C547 1.315 . S
H549 C543 0.929 . S
H550 C547 0.930 . S
H551 C539 0.929 . S
H552 C541 0.929 . S
O553 Co528 2.351 . S
O553 C556 1.244 . S
O554 Co528 2.155 . S
O554 C556 1.240 . S
O555 Co528 2.096 . S
O555 C536 1.247 . S
C556 O553 1.244 . S
C556 O554 1.240 . S
H557 C531 0.931 . S
H558 C540 0.931 . S
H559 C544 0.929 . S
H560 C546 0.930 . S
Co561 N565 2.148 . S
Co561 N571 2.128 . S
Co561 N581 2.194 . S
Co561 O586 2.351 . S
Co561 O587 2.155 . S
Co561 O588 2.096 . S
C562 N565 1.301 . S
C562 N566 1.328 . S
C562 H567 0.930 . S
C563 C564 1.333 . S
C563 N565 1.317 . S
C563 H568 0.930 . S
C564 C563 1.333 . S
C564 N566 1.350 . S
C564 H590 0.931 . S
N565 Co561 2.148 . S
N565 C562 1.301 . S
N565 C563 1.317 . S
N566 C562 1.328 . S
N566 C564 1.350 . S
H567 C562 0.930 . S
H568 C563 0.930 . S
C569 O570 1.224 . S
C569 O588 1.247 . S
O570 C569 1.224 . S
N571 Co561 2.128 . S
N571 C572 1.355 . S
N571 C574 1.311 . S
C572 N571 1.355 . S
C572 C573 1.363 . S
C572 H584 0.929 . S
C573 C572 1.363 . S
C573 N575 1.375 . S
C573 H591 0.931 . S
C574 N571 1.311 . S
C574 N575 1.347 . S
C574 H585 0.929 . S
N575 C573 1.375 . S
N575 C574 1.347 . S
C576 C579 1.365 . S
C576 N581 1.328 . S
C576 H582 0.929 . S
C577 C578 1.362 . S
C577 C580 1.378 . S
C577 H592 0.929 . S
C578 C577 1.362 . S
C578 C579 1.366 . S
C579 C576 1.365 . S
C579 C578 1.366 . S
C579 H593 0.930 . S
C580 C577 1.378 . S
C580 N581 1.315 . S
C580 H583 0.930 . S
N581 Co561 2.194 . S
N581 C576 1.328 . S
N581 C580 1.315 . S
H582 C576 0.929 . S
H583 C580 0.930 . S
H584 C572 0.929 . S
H585 C574 0.929 . S
O586 Co561 2.351 . S
O586 C589 1.244 . S
O587 Co561 2.155 . S
O587 C589 1.240 . S
O588 Co561 2.096 . S
O588 C569 1.247 . S
C589 O586 1.244 . S
C589 O587 1.240 . S
H590 C564 0.931 . S
H591 C573 0.931 . S
H592 C577 0.929 . S
H593 C579 0.930 . S
Co594 N598 2.148 . S
Co594 N604 2.128 . S
Co594 N614 2.194 . S
Co594 O619 2.351 . S
Co594 O620 2.155 . S
Co594 O621 2.096 . S
C595 N598 1.301 . S
C595 N599 1.328 . S
C595 H600 0.930 . S
C596 C597 1.333 . S
C596 N598 1.317 . S
C596 H601 0.930 . S
C597 C596 1.333 . S
C597 N599 1.350 . S
C597 H623 0.931 . S
N598 Co594 2.148 . S
N598 C595 1.301 . S
N598 C596 1.317 . S
N599 C595 1.328 . S
N599 C597 1.350 . S
H600 C595 0.930 . S
H601 C596 0.930 . S
C602 O603 1.224 . S
C602 O621 1.247 . S
O603 C602 1.224 . S
N604 Co594 2.128 . S
N604 C605 1.355 . S
N604 C607 1.311 . S
C605 N604 1.355 . S
C605 C606 1.363 . S
C605 H617 0.929 . S
C606 C605 1.363 . S
C606 N608 1.375 . S
C606 H624 0.931 . S
C607 N604 1.311 . S
C607 N608 1.347 . S
C607 H618 0.929 . S
N608 C606 1.375 . S
N608 C607 1.347 . S
C609 C612 1.365 . S
C609 N614 1.328 . S
C609 H615 0.929 . S
C610 C611 1.362 . S
C610 C613 1.378 . S
C610 H625 0.929 . S
C611 C610 1.362 . S
C611 C612 1.366 . S
C612 C609 1.365 . S
C612 C611 1.366 . S
C612 H626 0.930 . S
C613 C610 1.378 . S
C613 N614 1.315 . S
C613 H616 0.930 . S
N614 Co594 2.194 . S
N614 C609 1.328 . S
N614 C613 1.315 . S
H615 C609 0.929 . S
H616 C613 0.930 . S
H617 C605 0.929 . S
H618 C607 0.929 . S
O619 Co594 2.351 . S
O619 C622 1.244 . S
O620 Co594 2.155 . S
O620 C622 1.240 . S
O621 Co594 2.096 . S
O621 C602 1.247 . S
C622 O619 1.244 . S
C622 O620 1.240 . S
H623 C597 0.931 . S
H624 C606 0.931 . S
H625 C610 0.929 . S
H626 C612 0.930 . S
Co627 N631 2.148 . S
Co627 N637 2.128 . S
Co627 N647 2.194 . S
Co627 O652 2.351 . S
Co627 O653 2.155 . S
Co627 O654 2.096 . S
C628 N631 1.301 . S
C628 N632 1.328 . S
C628 H633 0.930 . S
C629 C630 1.333 . S
C629 N631 1.317 . S
C629 H634 0.930 . S
C630 C629 1.333 . S
C630 N632 1.350 . S
C630 H656 0.931 . S
N631 Co627 2.148 . S
N631 C628 1.301 . S
N631 C629 1.317 . S
N632 C628 1.328 . S
N632 C630 1.350 . S
H633 C628 0.930 . S
H634 C629 0.930 . S
C635 O636 1.224 . S
C635 O654 1.247 . S
O636 C635 1.224 . S
N637 Co627 2.128 . S
N637 C638 1.355 . S
N637 C640 1.311 . S
C638 N637 1.355 . S
C638 C639 1.363 . S
C638 H650 0.929 . S
C639 C638 1.363 . S
C639 N641 1.375 . S
C639 H657 0.931 . S
C640 N637 1.311 . S
C640 N641 1.347 . S
C640 H651 0.929 . S
N641 C639 1.375 . S
N641 C640 1.347 . S
C642 C645 1.365 . S
C642 N647 1.328 . S
C642 H648 0.929 . S
C643 C644 1.362 . S
C643 C646 1.378 . S
C643 H658 0.929 . S
C644 C643 1.362 . S
C644 C645 1.366 . S
C645 C642 1.365 . S
C645 C644 1.366 . S
C645 H659 0.930 . S
C646 C643 1.378 . S
C646 N647 1.315 . S
C646 H649 0.930 . S
N647 Co627 2.194 . S
N647 C642 1.328 . S
N647 C646 1.315 . S
H648 C642 0.929 . S
H649 C646 0.930 . S
H650 C638 0.929 . S
H651 C640 0.929 . S
O652 Co627 2.351 . S
O652 C655 1.244 . S
O653 Co627 2.155 . S
O653 C655 1.240 . S
O654 Co627 2.096 . S
O654 C635 1.247 . S
C655 O652 1.244 . S
C655 O653 1.240 . S
H656 C630 0.931 . S
H657 C639 0.931 . S
H658 C643 0.929 . S
H659 C645 0.930 . S
Co660 N664 2.148 . S
Co660 N670 2.128 . S
Co660 N680 2.194 . S
Co660 O685 2.351 . S
Co660 O686 2.155 . S
Co660 O687 2.096 . S
C661 N664 1.301 . S
C661 N665 1.328 . S
C661 H666 0.930 . S
C662 C663 1.333 . S
C662 N664 1.317 . S
C662 H667 0.930 . S
C663 C662 1.333 . S
C663 N665 1.350 . S
C663 H689 0.931 . S
N664 Co660 2.148 . S
N664 C661 1.301 . S
N664 C662 1.317 . S
N665 C661 1.328 . S
N665 C663 1.350 . S
H666 C661 0.930 . S
H667 C662 0.930 . S
C668 O669 1.224 . S
C668 O687 1.247 . S
O669 C668 1.224 . S
N670 Co660 2.128 . S
N670 C671 1.355 . S
N670 C673 1.311 . S
C671 N670 1.355 . S
C671 C672 1.363 . S
C671 H683 0.929 . S
C672 C671 1.363 . S
C672 N674 1.375 . S
C672 H690 0.931 . S
C673 N670 1.311 . S
C673 N674 1.347 . S
C673 H684 0.929 . S
N674 C672 1.375 . S
N674 C673 1.347 . S
C675 C678 1.365 . S
C675 N680 1.328 . S
C675 H681 0.929 . S
C676 C677 1.362 . S
C676 C679 1.378 . S
C676 H691 0.929 . S
C677 C676 1.362 . S
C677 C678 1.366 . S
C678 C675 1.365 . S
C678 C677 1.366 . S
C678 H692 0.930 . S
C679 C676 1.378 . S
C679 N680 1.315 . S
C679 H682 0.930 . S
N680 Co660 2.194 . S
N680 C675 1.328 . S
N680 C679 1.315 . S
H681 C675 0.929 . S
H682 C679 0.930 . S
H683 C671 0.929 . S
H684 C673 0.929 . S
O685 Co660 2.351 . S
O685 C688 1.244 . S
O686 Co660 2.155 . S
O686 C688 1.240 . S
O687 Co660 2.096 . S
O687 C668 1.247 . S
C688 O685 1.244 . S
C688 O686 1.240 . S
H689 C663 0.931 . S
H690 C672 0.931 . S
H691 C676 0.929 . S
H692 C678 0.930 . S
Co693 N697 2.148 . S
Co693 N703 2.128 . S
Co693 N713 2.194 . S
Co693 O718 2.351 . S
Co693 O719 2.155 . S
Co693 O720 2.096 . S
C694 N697 1.301 . S
C694 N698 1.328 1_545 S
C694 H699 0.930 . S
C695 C696 1.333 . S
C695 N697 1.317 1_565 S
C695 H700 0.930 . S
C696 C695 1.333 . S
C696 N698 1.350 . S
C696 H722 0.931 . S
N697 Co693 2.148 . S
N697 C694 1.301 . S
N697 C695 1.317 1_545 S
N698 C694 1.328 1_565 S
N698 C696 1.350 . S
H699 C694 0.930 . S
H700 C695 0.930 . S
C701 O702 1.224 . S
C701 O720 1.247 . S
O702 C701 1.224 . S
N703 Co693 2.128 . S
N703 C704 1.355 . S
N703 C706 1.311 . S
C704 N703 1.355 . S
C704 C705 1.363 . S
C704 H716 0.929 . S
C705 C704 1.363 . S
C705 N707 1.375 . S
C705 H723 0.931 . S
C706 N703 1.311 . S
C706 N707 1.347 . S
C706 H717 0.929 . S
N707 C705 1.375 . S
N707 C706 1.347 . S
C708 C711 1.365 . S
C708 N713 1.328 1_554 S
C708 H714 0.929 1_554 S
C709 C710 1.362 . S
C709 C712 1.378 . S
C709 H724 0.929 . S
C710 C709 1.362 . S
C710 C711 1.366 . S
C711 C708 1.365 . S
C711 C710 1.366 . S
C711 H725 0.930 . S
C712 C709 1.378 . S
C712 N713 1.315 1_554 S
C712 H715 0.930 1_554 S
N713 Co693 2.194 . S
N713 C708 1.328 1_556 S
N713 C712 1.315 1_556 S
H714 C708 0.929 1_556 S
H715 C712 0.930 1_556 S
H716 C704 0.929 . S
H717 C706 0.929 . S
O718 Co693 2.351 . S
O718 C721 1.244 . S
O719 Co693 2.155 . S
O719 C721 1.240 . S
O720 Co693 2.096 . S
O720 C701 1.247 . S
C721 O718 1.244 . S
C721 O719 1.240 . S
H722 C696 0.931 . S
H723 C705 0.931 . S
H724 C709 0.929 . S
H725 C711 0.930 . S
Co726 N730 2.148 . S
Co726 N736 2.128 . S
Co726 N746 2.194 . S
Co726 O751 2.351 . S
Co726 O752 2.155 . S
Co726 O753 2.096 . S
C727 N730 1.301 . S
C727 N731 1.328 1_655 S
C727 H732 0.930 . S
C728 C729 1.333 . S
C728 N730 1.317 1_455 S
C728 H733 0.930 . S
C729 C728 1.333 . S
C729 N731 1.350 . S
C729 H755 0.931 . S
N730 Co726 2.148 . S
N730 C727 1.301 . S
N730 C728 1.317 1_655 S
N731 C727 1.328 1_455 S
N731 C729 1.350 . S
H732 C727 0.930 . S
H733 C728 0.930 . S
C734 O735 1.224 . S
C734 O753 1.247 . S
O735 C734 1.224 . S
N736 Co726 2.128 . S
N736 C737 1.355 . S
N736 C739 1.311 . S
C737 N736 1.355 . S
C737 C738 1.363 . S
C737 H749 0.929 . S
C738 C737 1.363 . S
C738 N740 1.375 . S
C738 H756 0.931 . S
C739 N736 1.311 . S
C739 N740 1.347 . S
C739 H750 0.929 . S
N740 C738 1.375 . S
N740 C739 1.347 . S
C741 C744 1.365 . S
C741 N746 1.328 1_554 S
C741 H747 0.929 1_554 S
C742 C743 1.362 . S
C742 C745 1.378 . S
C742 H757 0.929 . S
C743 C742 1.362 . S
C743 C744 1.366 . S
C744 C741 1.365 . S
C744 C743 1.366 . S
C744 H758 0.930 . S
C745 C742 1.378 . S
C745 N746 1.315 1_554 S
C745 H748 0.930 1_554 S
N746 Co726 2.194 . S
N746 C741 1.328 1_556 S
N746 C745 1.315 1_556 S
H747 C741 0.929 1_556 S
H748 C745 0.930 1_556 S
H749 C737 0.929 . S
H750 C739 0.929 . S
O751 Co726 2.351 . S
O751 C754 1.244 . S
O752 Co726 2.155 . S
O752 C754 1.240 . S
O753 Co726 2.096 . S
O753 C734 1.247 . S
C754 O751 1.244 . S
C754 O752 1.240 . S
H755 C729 0.931 . S
H756 C738 0.931 . S
H757 C742 0.929 . S
H758 C744 0.930 . S
Co759 N763 2.148 . S
Co759 N769 2.128 . S
Co759 N779 2.194 . S
Co759 O784 2.351 . S
Co759 O785 2.155 . S
Co759 O786 2.096 . S
C760 N763 1.301 . S
C760 N764 1.328 . S
C760 H765 0.930 . S
C761 C762 1.333 . S
C761 N763 1.317 . S
C761 H766 0.930 . S
C762 C761 1.333 . S
C762 N764 1.350 . S
C762 H788 0.931 . S
N763 Co759 2.148 . S
N763 C760 1.301 . S
N763 C761 1.317 . S
N764 C760 1.328 . S
N764 C762 1.350 . S
H765 C760 0.930 . S
H766 C761 0.930 . S
C767 O768 1.224 . S
C767 O786 1.247 . S
O768 C767 1.224 . S
N769 Co759 2.128 . S
N769 C770 1.355 . S
N769 C772 1.311 . S
C770 N769 1.355 . S
C770 C771 1.363 . S
C770 H782 0.929 . S
C771 C770 1.363 . S
C771 N773 1.375 . S
C771 H789 0.931 . S
C772 N769 1.311 . S
C772 N773 1.347 . S
C772 H783 0.929 . S
N773 C771 1.375 . S
N773 C772 1.347 . S
C774 C777 1.365 . S
C774 N779 1.328 1_554 S
C774 H780 0.929 1_554 S
C775 C776 1.362 . S
C775 C778 1.378 . S
C775 H790 0.929 . S
C776 C775 1.362 . S
C776 C777 1.366 . S
C777 C774 1.365 . S
C777 C776 1.366 . S
C777 H791 0.930 . S
C778 C775 1.378 . S
C778 N779 1.315 1_554 S
C778 H781 0.930 1_554 S
N779 Co759 2.194 . S
N779 C774 1.328 1_556 S
N779 C778 1.315 1_556 S
H780 C774 0.929 1_556 S
H781 C778 0.930 1_556 S
H782 C770 0.929 . S
H783 C772 0.929 . S
O784 Co759 2.351 . S
O784 C787 1.244 . S
O785 Co759 2.155 . S
O785 C787 1.240 . S
O786 Co759 2.096 . S
O786 C767 1.247 . S
C787 O784 1.244 . S
C787 O785 1.240 . S
H788 C762 0.931 . S
H789 C771 0.931 . S
H790 C775 0.929 . S
H791 C777 0.930 . S
Co792 N796 2.148 . S
Co792 N802 2.128 . S
Co792 N812 2.194 . S
Co792 O817 2.351 . S
Co792 O818 2.155 . S
Co792 O819 2.096 . S
C793 N796 1.301 . S
C793 N797 1.328 . S
C793 H798 0.930 . S
C794 C795 1.333 . S
C794 N796 1.317 . S
C794 H799 0.930 . S
C795 C794 1.333 . S
C795 N797 1.350 . S
C795 H821 0.931 . S
N796 Co792 2.148 . S
N796 C793 1.301 . S
N796 C794 1.317 . S
N797 C793 1.328 . S
N797 C795 1.350 . S
H798 C793 0.930 . S
H799 C794 0.930 . S
C800 O801 1.224 . S
C800 O819 1.247 . S
O801 C800 1.224 . S
N802 Co792 2.128 . S
N802 C803 1.355 . S
N802 C805 1.311 . S
C803 N802 1.355 . S
C803 C804 1.363 . S
C803 H815 0.929 . S
C804 C803 1.363 . S
C804 N806 1.375 . S
C804 H822 0.931 . S
C805 N802 1.311 . S
C805 N806 1.347 . S
C805 H816 0.929 . S
N806 C804 1.375 . S
N806 C805 1.347 . S
C807 C810 1.365 . S
C807 N812 1.328 . S
C807 H813 0.929 . S
C808 C809 1.362 . S
C808 C811 1.378 . S
C808 H823 0.929 . S
C809 C808 1.362 . S
C809 C810 1.366 . S
C810 C807 1.365 . S
C810 C809 1.366 . S
C810 H824 0.930 . S
C811 C808 1.378 . S
C811 N812 1.315 . S
C811 H814 0.930 . S
N812 Co792 2.194 . S
N812 C807 1.328 . S
N812 C811 1.315 . S
H813 C807 0.929 . S
H814 C811 0.930 . S
H815 C803 0.929 . S
H816 C805 0.929 . S
O817 Co792 2.351 . S
O817 C820 1.244 . S
O818 Co792 2.155 . S
O818 C820 1.240 . S
O819 Co792 2.096 . S
O819 C800 1.247 . S
C820 O817 1.244 . S
C820 O818 1.240 . S
H821 C795 0.931 . S
H822 C804 0.931 . S
H823 C808 0.929 . S
H824 C810 0.930 . S
Co825 N829 2.148 . S
Co825 N835 2.128 . S
Co825 N845 2.194 . S
Co825 O850 2.351 . S
Co825 O851 2.155 . S
Co825 O852 2.096 . S
C826 N829 1.301 . S
C826 N830 1.328 . S
C826 H831 0.930 . S
C827 C828 1.333 . S
C827 N829 1.317 . S
C827 H832 0.930 . S
C828 C827 1.333 . S
C828 N830 1.350 . S
C828 H854 0.931 . S
N829 Co825 2.148 . S
N829 C826 1.301 . S
N829 C827 1.317 . S
N830 C826 1.328 . S
N830 C828 1.350 . S
H831 C826 0.930 . S
H832 C827 0.930 . S
C833 O834 1.224 . S
C833 O852 1.247 . S
O834 C833 1.224 . S
N835 Co825 2.128 . S
N835 C836 1.355 . S
N835 C838 1.311 . S
C836 N835 1.355 . S
C836 C837 1.363 . S
C836 H848 0.929 . S
C837 C836 1.363 . S
C837 N839 1.375 . S
C837 H855 0.931 . S
C838 N835 1.311 . S
C838 N839 1.347 . S
C838 H849 0.929 . S
N839 C837 1.375 . S
N839 C838 1.347 . S
C840 C843 1.365 . S
C840 N845 1.328 . S
C840 H846 0.929 . S
C841 C842 1.362 . S
C841 C844 1.378 . S
C841 H856 0.929 . S
C842 C841 1.362 . S
C842 C843 1.366 . S
C843 C840 1.365 . S
C843 C842 1.366 . S
C843 H857 0.930 . S
C844 C841 1.378 . S
C844 N845 1.315 . S
C844 H847 0.930 . S
N845 Co825 2.194 . S
N845 C840 1.328 . S
N845 C844 1.315 . S
H846 C840 0.929 . S
H847 C844 0.930 . S
H848 C836 0.929 . S
H849 C838 0.929 . S
O850 Co825 2.351 . S
O850 C853 1.244 . S
O851 Co825 2.155 . S
O851 C853 1.240 . S
O852 Co825 2.096 . S
O852 C833 1.247 . S
C853 O850 1.244 . S
C853 O851 1.240 . S
H854 C828 0.931 . S
H855 C837 0.931 . S
H856 C841 0.929 . S
H857 C843 0.930 . S
Co858 N862 2.148 . S
Co858 N868 2.128 . S
Co858 N878 2.194 . S
Co858 O883 2.351 . S
Co858 O884 2.155 . S
Co858 O885 2.096 . S
C859 N862 1.301 . S
C859 N863 1.328 . S
C859 H864 0.930 . S
C860 C861 1.333 . S
C860 N862 1.317 . S
C860 H865 0.930 . S
C861 C860 1.333 . S
C861 N863 1.350 . S
C861 H887 0.931 . S
N862 Co858 2.148 . S
N862 C859 1.301 . S
N862 C860 1.317 . S
N863 C859 1.328 . S
N863 C861 1.350 . S
H864 C859 0.930 . S
H865 C860 0.930 . S
C866 O867 1.224 . S
C866 O885 1.247 . S
O867 C866 1.224 . S
N868 Co858 2.128 . S
N868 C869 1.355 . S
N868 C871 1.311 . S
C869 N868 1.355 . S
C869 C870 1.363 . S
C869 H881 0.929 . S
C870 C869 1.363 . S
C870 N872 1.375 . S
C870 H888 0.931 . S
C871 N868 1.311 . S
C871 N872 1.347 . S
C871 H882 0.929 . S
N872 C870 1.375 . S
N872 C871 1.347 . S
C873 C876 1.365 . S
C873 N878 1.328 . S
C873 H879 0.929 . S
C874 C875 1.362 . S
C874 C877 1.378 . S
C874 H889 0.929 . S
C875 C874 1.362 . S
C875 C876 1.366 . S
C876 C873 1.365 . S
C876 C875 1.366 . S
C876 H890 0.930 . S
C877 C874 1.378 . S
C877 N878 1.315 . S
C877 H880 0.930 . S
N878 Co858 2.194 . S
N878 C873 1.328 . S
N878 C877 1.315 . S
H879 C873 0.929 . S
H880 C877 0.930 . S
H881 C869 0.929 . S
H882 C871 0.929 . S
O883 Co858 2.351 . S
O883 C886 1.244 . S
O884 Co858 2.155 . S
O884 C886 1.240 . S
O885 Co858 2.096 . S
O885 C866 1.247 . S
C886 O883 1.244 . S
C886 O884 1.240 . S
H887 C861 0.931 . S
H888 C870 0.931 . S
H889 C874 0.929 . S
H890 C876 0.930 . S
Co891 N895 2.148 . S
Co891 N901 2.128 . S
Co891 N911 2.194 . S
Co891 O916 2.351 . S
Co891 O917 2.155 . S
Co891 O918 2.096 . S
C892 N895 1.301 . S
C892 N896 1.328 1_565 S
C892 H897 0.930 . S
C893 C894 1.333 . S
C893 N895 1.317 1_545 S
C893 H898 0.930 . S
C894 C893 1.333 . S
C894 N896 1.350 . S
C894 H920 0.931 . S
N895 Co891 2.148 . S
N895 C892 1.301 . S
N895 C893 1.317 1_565 S
N896 C892 1.328 1_545 S
N896 C894 1.350 . S
H897 C892 0.930 . S
H898 C893 0.930 . S
C899 O900 1.224 . S
C899 O918 1.247 . S
O900 C899 1.224 . S
N901 Co891 2.128 . S
N901 C902 1.355 . S
N901 C904 1.311 . S
C902 N901 1.355 . S
C902 C903 1.363 . S
C902 H914 0.929 . S
C903 C902 1.363 . S
C903 N905 1.375 . S
C903 H921 0.931 . S
C904 N901 1.311 . S
C904 N905 1.347 . S
C904 H915 0.929 . S
N905 C903 1.375 . S
N905 C904 1.347 . S
C906 C909 1.365 . S
C906 N911 1.328 1_556 S
C906 H912 0.929 1_556 S
C907 C908 1.362 . S
C907 C910 1.378 . S
C907 H922 0.929 . S
C908 C907 1.362 . S
C908 C909 1.366 . S
C909 C906 1.365 . S
C909 C908 1.366 . S
C909 H923 0.930 . S
C910 C907 1.378 . S
C910 N911 1.315 1_556 S
C910 H913 0.930 1_556 S
N911 Co891 2.194 . S
N911 C906 1.328 1_554 S
N911 C910 1.315 1_554 S
H912 C906 0.929 1_554 S
H913 C910 0.930 1_554 S
H914 C902 0.929 . S
H915 C904 0.929 . S
O916 Co891 2.351 . S
O916 C919 1.244 . S
O917 Co891 2.155 . S
O917 C919 1.240 . S
O918 Co891 2.096 . S
O918 C899 1.247 . S
C919 O916 1.244 . S
C919 O917 1.240 . S
H920 C894 0.931 . S
H921 C903 0.931 . S
H922 C907 0.929 . S
H923 C909 0.930 . S
Co924 N928 2.148 . S
Co924 N934 2.128 . S
Co924 N944 2.194 . S
Co924 O949 2.351 . S
Co924 O950 2.155 . S
Co924 O951 2.096 . S
C925 N928 1.301 . S
C925 N929 1.328 1_455 S
C925 H930 0.930 . S
C926 C927 1.333 . S
C926 N928 1.317 1_655 S
C926 H931 0.930 . S
C927 C926 1.333 . S
C927 N929 1.350 . S
C927 H953 0.931 . S
N928 Co924 2.148 . S
N928 C925 1.301 . S
N928 C926 1.317 1_455 S
N929 C925 1.328 1_655 S
N929 C927 1.350 . S
H930 C925 0.930 . S
H931 C926 0.930 . S
C932 O933 1.224 . S
C932 O951 1.247 . S
O933 C932 1.224 . S
N934 Co924 2.128 . S
N934 C935 1.355 . S
N934 C937 1.311 . S
C935 N934 1.355 . S
C935 C936 1.363 . S
C935 H947 0.929 . S
C936 C935 1.363 . S
C936 N938 1.375 . S
C936 H954 0.931 . S
C937 N934 1.311 . S
C937 N938 1.347 . S
C937 H948 0.929 . S
N938 C936 1.375 . S
N938 C937 1.347 . S
C939 C942 1.365 . S
C939 N944 1.328 1_556 S
C939 H945 0.929 1_556 S
C940 C941 1.362 . S
C940 C943 1.378 . S
C940 H955 0.929 . S
C941 C940 1.362 . S
C941 C942 1.366 . S
C942 C939 1.365 . S
C942 C941 1.366 . S
C942 H956 0.930 . S
C943 C940 1.378 . S
C943 N944 1.315 1_556 S
C943 H946 0.930 1_556 S
N944 Co924 2.194 . S
N944 C939 1.328 1_554 S
N944 C943 1.315 1_554 S
H945 C939 0.929 1_554 S
H946 C943 0.930 1_554 S
H947 C935 0.929 . S
H948 C937 0.929 . S
O949 Co924 2.351 . S
O949 C952 1.244 . S
O950 Co924 2.155 . S
O950 C952 1.240 . S
O951 Co924 2.096 . S
O951 C932 1.247 . S
C952 O949 1.244 . S
C952 O950 1.240 . S
H953 C927 0.931 . S
H954 C936 0.931 . S
H955 C940 0.929 . S
H956 C942 0.930 . S
Co957 N961 2.148 . S
Co957 N967 2.128 . S
Co957 N977 2.194 . S
Co957 O982 2.351 . S
Co957 O983 2.155 . S
Co957 O984 2.096 . S
C958 N961 1.301 . S
C958 N962 1.328 . S
C958 H963 0.930 . S
C959 C960 1.333 . S
C959 N961 1.317 . S
C959 H964 0.930 . S
C960 C959 1.333 . S
C960 N962 1.350 . S
C960 H986 0.931 . S
N961 Co957 2.148 . S
N961 C958 1.301 . S
N961 C959 1.317 . S
N962 C958 1.328 . S
N962 C960 1.350 . S
H963 C958 0.930 . S
H964 C959 0.930 . S
C965 O966 1.224 . S
C965 O984 1.247 . S
O966 C965 1.224 . S
N967 Co957 2.128 . S
N967 C968 1.355 . S
N967 C970 1.311 . S
C968 N967 1.355 . S
C968 C969 1.363 . S
C968 H980 0.929 . S
C969 C968 1.363 . S
C969 N971 1.375 . S
C969 H987 0.931 . S
C970 N967 1.311 . S
C970 N971 1.347 . S
C970 H981 0.929 . S
N971 C969 1.375 . S
N971 C970 1.347 . S
C972 C975 1.365 . S
C972 N977 1.328 1_556 S
C972 H978 0.929 1_556 S
C973 C974 1.362 . S
C973 C976 1.378 . S
C973 H988 0.929 . S
C974 C973 1.362 . S
C974 C975 1.366 . S
C975 C972 1.365 . S
C975 C974 1.366 . S
C975 H989 0.930 . S
C976 C973 1.378 . S
C976 N977 1.315 1_556 S
C976 H979 0.930 1_556 S
N977 Co957 2.194 . S
N977 C972 1.328 1_554 S
N977 C976 1.315 1_554 S
H978 C972 0.929 1_554 S
H979 C976 0.930 1_554 S
H980 C968 0.929 . S
H981 C970 0.929 . S
O982 Co957 2.351 . S
O982 C985 1.244 . S
O983 Co957 2.155 . S
O983 C985 1.240 . S
O984 Co957 2.096 . S
O984 C965 1.247 . S
C985 O982 1.244 . S
C985 O983 1.240 . S
H986 C960 0.931 . S
H987 C969 0.931 . S
H988 C973 0.929 . S
H989 C975 0.930 . S
Co990 N994 2.148 . S
Co990 N1000 2.128 . S
Co990 N1010 2.194 . S
Co990 O1015 2.351 . S
Co990 O1016 2.155 . S
Co990 O1017 2.096 . S
C991 N994 1.301 . S
C991 N995 1.328 1_455 S
C991 H996 0.930 . S
C992 C993 1.333 . S
C992 N994 1.317 1_655 S
C992 H997 0.930 . S
C993 C992 1.333 . S
C993 N995 1.350 . S
C993 H1019 0.931 . S
N994 Co990 2.148 . S
N994 C991 1.301 . S
N994 C992 1.317 1_455 S
N995 C991 1.328 1_655 S
N995 C993 1.350 . S
H996 C991 0.930 . S
H997 C992 0.930 . S
C998 O999 1.224 . S
C998 O1017 1.247 . S
O999 C998 1.224 . S
N1000 Co990 2.128 . S
N1000 C1001 1.355 . S
N1000 C1003 1.311 . S
C1001 N1000 1.355 . S
C1001 C1002 1.363 . S
C1001 H1013 0.929 . S
C1002 C1001 1.363 . S
C1002 N1004 1.375 . S
C1002 H1020 0.931 . S
C1003 N1000 1.311 . S
C1003 N1004 1.347 . S
C1003 H1014 0.929 . S
N1004 C1002 1.375 . S
N1004 C1003 1.347 . S
C1005 C1008 1.365 . S
C1005 N1010 1.328 . S
C1005 H1011 0.929 . S
C1006 C1007 1.362 . S
C1006 C1009 1.378 . S
C1006 H1021 0.929 . S
C1007 C1006 1.362 . S
C1007 C1008 1.366 . S
C1008 C1005 1.365 . S
C1008 C1007 1.366 . S
C1008 H1022 0.930 . S
C1009 C1006 1.378 . S
C1009 N1010 1.315 . S
C1009 H1012 0.930 . S
N1010 Co990 2.194 . S
N1010 C1005 1.328 . S
N1010 C1009 1.315 . S
H1011 C1005 0.929 . S
H1012 C1009 0.930 . S
H1013 C1001 0.929 . S
H1014 C1003 0.929 . S
O1015 Co990 2.351 . S
O1015 C1018 1.244 . S
O1016 Co990 2.155 . S
O1016 C1018 1.240 . S
O1017 Co990 2.096 . S
O1017 C998 1.247 . S
C1018 O1015 1.244 . S
C1018 O1016 1.240 . S
H1019 C993 0.931 . S
H1020 C1002 0.931 . S
H1021 C1006 0.929 . S
H1022 C1008 0.930 . S
Co1023 N1027 2.148 . S
Co1023 N1033 2.128 . S
Co1023 N1043 2.194 . S
Co1023 O1048 2.351 . S
Co1023 O1049 2.155 . S
Co1023 O1050 2.096 . S
C1024 N1027 1.301 . S
C1024 N1028 1.328 . S
C1024 H1029 0.930 . S
C1025 C1026 1.333 . S
C1025 N1027 1.317 . S
C1025 H1030 0.930 . S
C1026 C1025 1.333 . S
C1026 N1028 1.350 . S
C1026 H1052 0.931 . S
N1027 Co1023 2.148 . S
N1027 C1024 1.301 . S
N1027 C1025 1.317 . S
N1028 C1024 1.328 . S
N1028 C1026 1.350 . S
H1029 C1024 0.930 . S
H1030 C1025 0.930 . S
C1031 O1032 1.224 . S
C1031 O1050 1.247 . S
O1032 C1031 1.224 . S
N1033 Co1023 2.128 . S
N1033 C1034 1.355 . S
N1033 C1036 1.311 . S
C1034 N1033 1.355 . S
C1034 C1035 1.363 . S
C1034 H1046 0.929 . S
C1035 C1034 1.363 . S
C1035 N1037 1.375 . S
C1035 H1053 0.931 . S
C1036 N1033 1.311 . S
C1036 N1037 1.347 . S
C1036 H1047 0.929 . S
N1037 C1035 1.375 . S
N1037 C1036 1.347 . S
C1038 C1041 1.365 . S
C1038 N1043 1.328 . S
C1038 H1044 0.929 . S
C1039 C1040 1.362 . S
C1039 C1042 1.378 . S
C1039 H1054 0.929 . S
C1040 C1039 1.362 . S
C1040 C1041 1.366 . S
C1041 C1038 1.365 . S
C1041 C1040 1.366 . S
C1041 H1055 0.930 . S
C1042 C1039 1.378 . S
C1042 N1043 1.315 . S
C1042 H1045 0.930 . S
N1043 Co1023 2.194 . S
N1043 C1038 1.328 . S
N1043 C1042 1.315 . S
H1044 C1038 0.929 . S
H1045 C1042 0.930 . S
H1046 C1034 0.929 . S
H1047 C1036 0.929 . S
O1048 Co1023 2.351 . S
O1048 C1051 1.244 . S
O1049 Co1023 2.155 . S
O1049 C1051 1.240 . S
O1050 Co1023 2.096 . S
O1050 C1031 1.247 . S
C1051 O1048 1.244 . S
C1051 O1049 1.240 . S
H1052 C1026 0.931 . S
H1053 C1035 0.931 . S
H1054 C1039 0.929 . S
H1055 C1041 0.930 . S
Co1056 N1060 2.148 . S
Co1056 N1066 2.128 . S
Co1056 N1076 2.194 . S
Co1056 O1081 2.351 . S
Co1056 O1082 2.155 . S
Co1056 O1083 2.096 . S
C1057 N1060 1.301 . S
C1057 N1061 1.328 1_565 S
C1057 H1062 0.930 . S
C1058 C1059 1.333 . S
C1058 N1060 1.317 1_545 S
C1058 H1063 0.930 . S
C1059 C1058 1.333 . S
C1059 N1061 1.350 . S
C1059 H1085 0.931 . S
N1060 Co1056 2.148 . S
N1060 C1057 1.301 . S
N1060 C1058 1.317 1_565 S
N1061 C1057 1.328 1_545 S
N1061 C1059 1.350 . S
H1062 C1057 0.930 . S
H1063 C1058 0.930 . S
C1064 O1065 1.224 . S
C1064 O1083 1.247 . S
O1065 C1064 1.224 . S
N1066 Co1056 2.128 . S
N1066 C1067 1.355 . S
N1066 C1069 1.311 . S
C1067 N1066 1.355 . S
C1067 C1068 1.363 . S
C1067 H1079 0.929 . S
C1068 C1067 1.363 . S
C1068 N1070 1.375 . S
C1068 H1086 0.931 . S
C1069 N1066 1.311 . S
C1069 N1070 1.347 . S
C1069 H1080 0.929 . S
N1070 C1068 1.375 . S
N1070 C1069 1.347 . S
C1071 C1074 1.365 . S
C1071 N1076 1.328 . S
C1071 H1077 0.929 . S
C1072 C1073 1.362 . S
C1072 C1075 1.378 . S
C1072 H1087 0.929 . S
C1073 C1072 1.362 . S
C1073 C1074 1.366 . S
C1074 C1071 1.365 . S
C1074 C1073 1.366 . S
C1074 H1088 0.930 . S
C1075 C1072 1.378 . S
C1075 N1076 1.315 . S
C1075 H1078 0.930 . S
N1076 Co1056 2.194 . S
N1076 C1071 1.328 . S
N1076 C1075 1.315 . S
H1077 C1071 0.929 . S
H1078 C1075 0.930 . S
H1079 C1067 0.929 . S
H1080 C1069 0.929 . S
O1081 Co1056 2.351 . S
O1081 C1084 1.244 . S
O1082 Co1056 2.155 . S
O1082 C1084 1.240 . S
O1083 Co1056 2.096 . S
O1083 C1064 1.247 . S
C1084 O1081 1.244 . S
C1084 O1082 1.240 . S
H1085 C1059 0.931 . S
H1086 C1068 0.931 . S
H1087 C1072 0.929 . S
H1088 C1074 0.930 . S
Co1089 N1093 2.148 . S
Co1089 N1099 2.128 . S
Co1089 N1109 2.194 . S
Co1089 O1114 2.351 . S
Co1089 O1115 2.155 . S
Co1089 O1116 2.096 . S
C1090 N1093 1.301 . S
C1090 N1094 1.328 . S
C1090 H1095 0.930 . S
C1091 C1092 1.333 . S
C1091 N1093 1.317 . S
C1091 H1096 0.930 . S
C1092 C1091 1.333 . S
C1092 N1094 1.350 . S
C1092 H1118 0.931 . S
N1093 Co1089 2.148 . S
N1093 C1090 1.301 . S
N1093 C1091 1.317 . S
N1094 C1090 1.328 . S
N1094 C1092 1.350 . S
H1095 C1090 0.930 . S
H1096 C1091 0.930 . S
C1097 O1098 1.224 . S
C1097 O1116 1.247 . S
O1098 C1097 1.224 . S
N1099 Co1089 2.128 . S
N1099 C1100 1.355 . S
N1099 C1102 1.311 . S
C1100 N1099 1.355 . S
C1100 C1101 1.363 . S
C1100 H1112 0.929 . S
C1101 C1100 1.363 . S
C1101 N1103 1.375 . S
C1101 H1119 0.931 . S
C1102 N1099 1.311 . S
C1102 N1103 1.347 . S
C1102 H1113 0.929 . S
N1103 C1101 1.375 . S
N1103 C1102 1.347 . S
C1104 C1107 1.365 . S
C1104 N1109 1.328 . S
C1104 H1110 0.929 . S
C1105 C1106 1.362 . S
C1105 C1108 1.378 . S
C1105 H1120 0.929 . S
C1106 C1105 1.362 . S
C1106 C1107 1.366 . S
C1107 C1104 1.365 . S
C1107 C1106 1.366 . S
C1107 H1121 0.930 . S
C1108 C1105 1.378 . S
C1108 N1109 1.315 . S
C1108 H1111 0.930 . S
N1109 Co1089 2.194 . S
N1109 C1104 1.328 . S
N1109 C1108 1.315 . S
H1110 C1104 0.929 . S
H1111 C1108 0.930 . S
H1112 C1100 0.929 . S
H1113 C1102 0.929 . S
O1114 Co1089 2.351 . S
O1114 C1117 1.244 . S
O1115 Co1089 2.155 . S
O1115 C1117 1.240 . S
O1116 Co1089 2.096 . S
O1116 C1097 1.247 . S
C1117 O1114 1.244 . S
C1117 O1115 1.240 . S
H1118 C1092 0.931 . S
H1119 C1101 0.931 . S
H1120 C1105 0.929 . S
H1121 C1107 0.930 . S
Co1122 N1126 2.148 . S
Co1122 N1132 2.128 . S
Co1122 N1142 2.194 . S
Co1122 O1147 2.351 . S
Co1122 O1148 2.155 . S
Co1122 O1149 2.096 . S
C1123 N1126 1.301 . S
C1123 N1127 1.328 . S
C1123 H1128 0.930 . S
C1124 C1125 1.333 . S
C1124 N1126 1.317 . S
C1124 H1129 0.930 . S
C1125 C1124 1.333 . S
C1125 N1127 1.350 . S
C1125 H1151 0.931 . S
N1126 Co1122 2.148 . S
N1126 C1123 1.301 . S
N1126 C1124 1.317 . S
N1127 C1123 1.328 . S
N1127 C1125 1.350 . S
H1128 C1123 0.930 . S
H1129 C1124 0.930 . S
C1130 O1131 1.224 . S
C1130 O1149 1.247 . S
O1131 C1130 1.224 . S
N1132 Co1122 2.128 . S
N1132 C1133 1.355 . S
N1132 C1135 1.311 . S
C1133 N1132 1.355 . S
C1133 C1134 1.363 . S
C1133 H1145 0.929 . S
C1134 C1133 1.363 . S
C1134 N1136 1.375 . S
C1134 H1152 0.931 . S
C1135 N1132 1.311 . S
C1135 N1136 1.347 . S
C1135 H1146 0.929 . S
N1136 C1134 1.375 . S
N1136 C1135 1.347 . S
C1137 C1140 1.365 . S
C1137 N1142 1.328 . S
C1137 H1143 0.929 . S
C1138 C1139 1.362 . S
C1138 C1141 1.378 . S
C1138 H1153 0.929 . S
C1139 C1138 1.362 . S
C1139 C1140 1.366 . S
C1140 C1137 1.365 . S
C1140 C1139 1.366 . S
C1140 H1154 0.930 . S
C1141 C1138 1.378 . S
C1141 N1142 1.315 . S
C1141 H1144 0.930 . S
N1142 Co1122 2.194 . S
N1142 C1137 1.328 . S
N1142 C1141 1.315 . S
H1143 C1137 0.929 . S
H1144 C1141 0.930 . S
H1145 C1133 0.929 . S
H1146 C1135 0.929 . S
O1147 Co1122 2.351 . S
O1147 C1150 1.244 . S
O1148 Co1122 2.155 . S
O1148 C1150 1.240 . S
O1149 Co1122 2.096 . S
O1149 C1130 1.247 . S
C1150 O1147 1.244 . S
C1150 O1148 1.240 . S
H1151 C1125 0.931 . S
H1152 C1134 0.931 . S
H1153 C1138 0.929 . S
H1154 C1140 0.930 . S
Co1155 N1159 2.148 . S
Co1155 N1165 2.128 . S
Co1155 N1175 2.194 . S
Co1155 O1180 2.351 . S
Co1155 O1181 2.155 . S
Co1155 O1182 2.096 . S
C1156 N1159 1.301 . S
C1156 N1160 1.328 . S
C1156 H1161 0.930 . S
C1157 C1158 1.333 . S
C1157 N1159 1.317 . S
C1157 H1162 0.930 . S
C1158 C1157 1.333 . S
C1158 N1160 1.350 . S
C1158 H1184 0.931 . S
N1159 Co1155 2.148 . S
N1159 C1156 1.301 . S
N1159 C1157 1.317 . S
N1160 C1156 1.328 . S
N1160 C1158 1.350 . S
H1161 C1156 0.930 . S
H1162 C1157 0.930 . S
C1163 O1164 1.224 . S
C1163 O1182 1.247 . S
O1164 C1163 1.224 . S
N1165 Co1155 2.128 . S
N1165 C1166 1.355 . S
N1165 C1168 1.311 . S
C1166 N1165 1.355 . S
C1166 C1167 1.363 . S
C1166 H1178 0.929 . S
C1167 C1166 1.363 . S
C1167 N1169 1.375 . S
C1167 H1185 0.931 . S
C1168 N1165 1.311 . S
C1168 N1169 1.347 . S
C1168 H1179 0.929 . S
N1169 C1167 1.375 . S
N1169 C1168 1.347 . S
C1170 C1173 1.365 . S
C1170 N1175 1.328 . S
C1170 H1176 0.929 . S
C1171 C1172 1.362 . S
C1171 C1174 1.378 . S
C1171 H1186 0.929 . S
C1172 C1171 1.362 . S
C1172 C1173 1.366 . S
C1173 C1170 1.365 . S
C1173 C1172 1.366 . S
C1173 H1187 0.930 . S
C1174 C1171 1.378 . S
C1174 N1175 1.315 . S
C1174 H1177 0.930 . S
N1175 Co1155 2.194 . S
N1175 C1170 1.328 . S
N1175 C1174 1.315 . S
H1176 C1170 0.929 . S
H1177 C1174 0.930 . S
H1178 C1166 0.929 . S
H1179 C1168 0.929 . S
O1180 Co1155 2.351 . S
O1180 C1183 1.244 . S
O1181 Co1155 2.155 . S
O1181 C1183 1.240 . S
O1182 Co1155 2.096 . S
O1182 C1163 1.247 . S
C1183 O1180 1.244 . S
C1183 O1181 1.240 . S
H1184 C1158 0.931 . S
H1185 C1167 0.931 . S
H1186 C1171 0.929 . S
H1187 C1173 0.930 . S
C116 C17 0.810 . S
C50 C149 0.810 1_565 S
C182 C83 0.810 1_655 S
C314 C215 0.810 . S
C248 C347 0.810 1_545 S
C380 C281 0.810 1_455 S
C512 C413 0.810 . S
C446 C545 0.810 . S
C578 C479 0.810 . S
C611 C710 0.810 . S
C644 C743 0.810 . S
C776 C677 0.810 . S
C908 C809 0.810 . S
C941 C842 0.810 . S
C974 C875 0.810 . S
C1106 C1007 0.810 . S
C1040 C1139 0.810 . S
C1172 C1073 0.810 . S
C8 C965 2.642 . S
C899 C41 2.643 . S
C74 C932 2.642 . S
C437 C107 2.642 . S
C140 C470 2.642 . S
C404 C173 2.642 . S
C767 C206 2.642 . S
C701 C239 2.643 . S
C734 C272 2.642 . S
C305 C1031 2.642 . S
C1064 C338 2.642 . S
C371 C998 2.642 . S
C833 C503 2.642 1_455 S
C866 C536 2.642 . S
C800 C569 2.642 1_565 S
C602 C1163 2.642 1_545 S
C635 C1097 2.642 1_655 S
C1130 C668 2.642 . S
N5 N599 2.406 . S
N632 N38 2.406 . S
N71 N665 2.406 . S
N1094 N104 2.406 . S
N137 N1127 2.406 . S
N1160 N170 2.406 . S
N203 N797 2.406 . S
N236 N830 2.406 . S
N269 N863 2.406 . S
N500 N302 2.406 . S
N533 N335 2.406 . S
N368 N566 2.406 . S
N401 N995 2.406 1_455 S
N1028 N434 2.406 . S
N467 N1061 2.406 1_565 S
N896 N698 2.406 1_544 S
N731 N929 2.406 1_456 S
N962 N764 2.406 1_554 S
N245 C28 1.720 1_556 S
C61 N278 1.720 1_554 S
C94 N212 1.720 1_554 S
C127 N377 1.720 . S
C160 N311 1.720 . S
C193 N344 1.720 . S
N47 C226 1.720 1_554 S
N80 C259 1.720 1_554 S
N14 C292 1.720 1_554 S
C325 N179 1.720 . S
C358 N113 1.720 . S
C391 N146 1.720 . S
C424 N641 1.720 . S
N674 C457 1.720 . S
N608 C490 1.720 . S
C523 N773 1.720 . S
N707 C556 1.720 . S
N740 C589 1.720 . S
C622 N443 1.720 . S
C655 N476 1.720 . S
N410 C688 1.720 . S
N575 C721 1.720 . S
N509 C754 1.720 . S
N542 C787 1.720 . S
C820 N1037 1.720 . S
N1070 C853 1.720 . S
N1004 C886 1.720 . S
C919 N1169 1.720 . S
C952 N1103 1.720 . S
C985 N1136 1.720 . S
N839 C1018 1.720 . S
N872 C1051 1.720 . S
C1084 N806 1.720 . S
C1117 N971 1.720 . S
C1150 N905 1.720 . S
C1183 N938 1.720 . S
