# Generated by pormake.
# Topology crs, (6)-cn, num edge types: 1
# Building blocks:
#     Node 0, Type 0, BuildingBlock: KUMJIN_clean_sbu_1, # of connection points: 6
#     Node 1, Type 0, BuildingBlock: KUMJIN_clean_sbu_1, # of connection points: 6
#     Node 2, Type 0, BuildingBlock: KUMJIN_clean_sbu_1, # of connection points: 6
#     Node 3, Type 0, BuildingBlock: KUMJIN_clean_sbu_1, # of connection points: 6
#     Node 4, Type 0, BuildingBlock: KUMJIN_clean_sbu_1, # of connection points: 6
#     Node 5, Type 0, BuildingBlock: KUMJIN_clean_sbu_1, # of connection points: 6
#     Node 6, Type 0, BuildingBlock: KUMJIN_clean_sbu_1, # of connection points: 6
#     Node 7, Type 0, BuildingBlock: KUMJIN_clean_sbu_1, # of connection points: 6
#     Node 8, Type 0, BuildingBlock: KUMJIN_clean_sbu_1, # of connection points: 6
#     Node 9, Type 0, BuildingBlock: KUMJIN_clean_sbu_1, # of connection points: 6
#     Node 10, Type 0, BuildingBlock: KUMJIN_clean_sbu_1, # of connection points: 6
#     Node 11, Type 0, BuildingBlock: KUMJIN_clean_sbu_1, # of connection points: 6
#     Node 12, Type 0, BuildingBlock: KUMJIN_clean_sbu_1, # of connection points: 6
#     Node 13, Type 0, BuildingBlock: KUMJIN_clean_sbu_1, # of connection points: 6
#     Node 14, Type 0, BuildingBlock: KUMJIN_clean_sbu_1, # of connection points: 6
#     Node 15, Type 0, BuildingBlock: KUMJIN_clean_sbu_1, # of connection points: 6
#     Edge 16, Type (0, 0), BuildingBlock: XIVTED_clean_linker_0, # of connection points: 2
#     Edge 17, Type (0, 0), BuildingBlock: XIVTED_clean_linker_0, # of connection points: 2
#     Edge 18, Type (0, 0), BuildingBlock: XIVTED_clean_linker_0, # of connection points: 2
#     Edge 19, Type (0, 0), BuildingBlock: XIVTED_clean_linker_0, # of connection points: 2
#     Edge 20, Type (0, 0), BuildingBlock: XIVTED_clean_linker_0, # of connection points: 2
#     Edge 21, Type (0, 0), BuildingBlock: XIVTED_clean_linker_0, # of connection points: 2
#     Edge 22, Type (0, 0), BuildingBlock: XIVTED_clean_linker_0, # of connection points: 2
#     Edge 23, Type (0, 0), BuildingBlock: XIVTED_clean_linker_0, # of connection points: 2
#     Edge 24, Type (0, 0), BuildingBlock: XIVTED_clean_linker_0, # of connection points: 2
#     Edge 25, Type (0, 0), BuildingBlock: XIVTED_clean_linker_0, # of connection points: 2
#     Edge 26, Type (0, 0), BuildingBlock: XIVTED_clean_linker_0, # of connection points: 2
#     Edge 27, Type (0, 0), BuildingBlock: XIVTED_clean_linker_0, # of connection points: 2
#     Edge 28, Type (0, 0), BuildingBlock: XIVTED_clean_linker_0, # of connection points: 2
#     Edge 29, Type (0, 0), BuildingBlock: XIVTED_clean_linker_0, # of connection points: 2
#     Edge 30, Type (0, 0), BuildingBlock: XIVTED_clean_linker_0, # of connection points: 2
#     Edge 31, Type (0, 0), BuildingBlock: XIVTED_clean_linker_0, # of connection points: 2
#     Edge 32, Type (0, 0), BuildingBlock: XIVTED_clean_linker_0, # of connection points: 2
#     Edge 33, Type (0, 0), BuildingBlock: XIVTED_clean_linker_0, # of connection points: 2
#     Edge 34, Type (0, 0), BuildingBlock: XIVTED_clean_linker_0, # of connection points: 2
#     Edge 35, Type (0, 0), BuildingBlock: XIVTED_clean_linker_0, # of connection points: 2
#     Edge 36, Type (0, 0), BuildingBlock: XIVTED_clean_linker_0, # of connection points: 2
#     Edge 37, Type (0, 0), BuildingBlock: XIVTED_clean_linker_0, # of connection points: 2
#     Edge 38, Type (0, 0), BuildingBlock: XIVTED_clean_linker_0, # of connection points: 2
#     Edge 39, Type (0, 0), BuildingBlock: XIVTED_clean_linker_0, # of connection points: 2
#     Edge 40, Type (0, 0), BuildingBlock: XIVTED_clean_linker_0, # of connection points: 2
#     Edge 41, Type (0, 0), BuildingBlock: XIVTED_clean_linker_0, # of connection points: 2
#     Edge 42, Type (0, 0), BuildingBlock: XIVTED_clean_linker_0, # of connection points: 2
#     Edge 43, Type (0, 0), BuildingBlock: XIVTED_clean_linker_0, # of connection points: 2
#     Edge 44, Type (0, 0), BuildingBlock: XIVTED_clean_linker_0, # of connection points: 2
#     Edge 45, Type (0, 0), BuildingBlock: XIVTED_clean_linker_0, # of connection points: 2
#     Edge 46, Type (0, 0), BuildingBlock: XIVTED_clean_linker_0, # of connection points: 2
#     Edge 47, Type (0, 0), BuildingBlock: XIVTED_clean_linker_0, # of connection points: 2
#     Edge 48, Type (0, 0), BuildingBlock: XIVTED_clean_linker_0, # of connection points: 2
#     Edge 49, Type (0, 0), BuildingBlock: XIVTED_clean_linker_0, # of connection points: 2
#     Edge 50, Type (0, 0), BuildingBlock: XIVTED_clean_linker_0, # of connection points: 2
#     Edge 51, Type (0, 0), BuildingBlock: XIVTED_clean_linker_0, # of connection points: 2
#     Edge 52, Type (0, 0), BuildingBlock: XIVTED_clean_linker_0, # of connection points: 2
#     Edge 53, Type (0, 0), BuildingBlock: XIVTED_clean_linker_0, # of connection points: 2
#     Edge 54, Type (0, 0), BuildingBlock: XIVTED_clean_linker_0, # of connection points: 2
#     Edge 55, Type (0, 0), BuildingBlock: XIVTED_clean_linker_0, # of connection points: 2
#     Edge 56, Type (0, 0), BuildingBlock: XIVTED_clean_linker_0, # of connection points: 2
#     Edge 57, Type (0, 0), BuildingBlock: XIVTED_clean_linker_0, # of connection points: 2
#     Edge 58, Type (0, 0), BuildingBlock: XIVTED_clean_linker_0, # of connection points: 2
#     Edge 59, Type (0, 0), BuildingBlock: XIVTED_clean_linker_0, # of connection points: 2
#     Edge 60, Type (0, 0), BuildingBlock: XIVTED_clean_linker_0, # of connection points: 2
#     Edge 61, Type (0, 0), BuildingBlock: XIVTED_clean_linker_0, # of connection points: 2
#     Edge 62, Type (0, 0), BuildingBlock: XIVTED_clean_linker_0, # of connection points: 2
#     Edge 63, Type (0, 0), BuildingBlock: XIVTED_clean_linker_0, # of connection points: 2
# Relax obj value: 0.245
# Max RMSD: 0.301
# Mean RMSD: 0.261
data_MOF--net-crs--node1-KUMJIN_clean_sbu_1--edge1-XIVTED_clean_linker_0
_symmetry_space_group_name_H-M    P1
_symmetry_Int_Tables_number       1
_symmetry_cell_setting            triclinic
loop_
_symmetry_equiv_pos_as_xyz
'x, y, z'
_cell_length_a     55.204434
_cell_length_b     55.135224
_cell_length_c     41.630933
_cell_angle_alpha  76.698874
_cell_angle_beta   76.422501
_cell_angle_gamma 68.199579
loop_
_atom_site_label
_atom_site_type_symbol
_atom_site_fract_x
_atom_site_fract_y
_atom_site_fract_z
_atom_type_partial_charge
Eu0 Eu 0.97962 0.99788 0.05301 0.0
C1 C 0.01863 0.04606 0.88465 0.0
N2 N 0.02979 0.02336 0.90498 0.0
C3 C 0.04431 0.99924 0.85897 0.0
C4 C 0.01935 0.04601 0.85057 0.0
C5 C 0.04336 1.00034 0.89248 0.0
C6 C 0.03196 0.02211 0.83801 0.0
C7 C 0.99776 0.09381 0.87641 0.0
C8 C 0.0078 0.06968 0.89749 0.0
C9 C 0.99749 0.0937 0.8428 0.0
C10 C 0.00822 0.06986 0.82993 0.0
Eu11 Eu 0.02548 0.02701 0.96151 0.0
N12 N 0.00853 0.06926 0.93003 0.0
C13 C 0.98923 0.11743 0.8894 0.0
C14 C 0.00248 0.09228 0.94183 0.0
C15 C 0.99212 0.11667 0.92207 0.0
H16 H 0.05399 0.98296 0.9082 0.0
H17 H 0.98688 0.13486 0.93183 0.0
H18 H 0.94586 0.04324 0.10295 0.0
H19 H 0.05336 0.89949 0.08 0.0
H20 H 0.0064 0.09208 0.96601 0.0
H21 H 0.98147 0.13638 0.874 0.0
H22 H 0.02893 0.93816 0.04405 0.0
H23 H 0.05486 0.98085 0.84923 0.0
H24 H 0.98967 0.11203 0.82632 0.0
H25 H 0.00846 0.07018 0.80374 0.0
H26 H 0.93869 0.047 0.16273 0.0
H27 H 0.03295 0.02126 0.81196 0.0
H28 H 0.04588 0.89881 0.14102 0.0
N29 N 0.97235 1.00364 0.109 0.0
C30 C 0.98506 0.98254 0.13026 0.0
C31 C 0.95177 0.02877 0.15393 0.0
C32 C 0.98136 0.98376 0.16463 0.0
C33 C 0.95599 0.02663 0.1201 0.0
C34 C 0.9644 1.0072 0.17634 0.0
N35 N 0.00626 0.95958 0.08407 0.0
C36 C 0.02465 0.93836 0.07053 0.0
C37 C 0.01647 0.93801 0.13903 0.0
C38 C 0.0024 0.95988 0.11752 0.0
C39 C 0.03467 0.91596 0.12534 0.0
C40 C 0.03893 0.91625 0.09092 0.0
H41 H 0.96108 0.0089 0.20256 0.0
H42 H 0.99215 0.96229 0.21263 0.0
H43 H 0.0229 0.92228 0.19023 0.0
O44 O 0.95668 0.97858 0.04025 0.0
O45 O 0.01755 1.00027 0.06124 0.0
O46 O 0.03335 0.99601 0.00749 0.0
O47 O 0.93776 1.00562 0.0761 0.0
O48 O 0.99846 0.97125 0.01362 0.0
O49 O 0.02471 0.9848 0.96385 0.0
O50 O 0.0526 0.04056 0.97615 0.0
O51 O 0.98385 0.03734 0.95077 0.0
O52 O 0.98348 0.01922 1.00192 0.0
O53 O 0.06627 0.01865 0.93467 0.0
O54 O 0.0046 0.05306 0.00301 0.0
O55 O 0.97032 0.04251 0.04372 0.0
C56 C 0.03653 1.00036 0.03569 0.0
C57 C 0.92322 0.96904 0.07975 0.0
C58 C 0.90695 0.93452 0.07614 0.0
C59 C 0.9052 0.92679 0.11103 0.0
C60 C 0.92159 0.96121 0.11447 0.0
C61 C 0.91238 0.94019 0.13004 0.0
C62 C 0.91581 0.95577 0.06095 0.0
C63 C 0.01315 0.96796 0.98374 0.0
C64 C 0.93548 0.98854 0.06096 0.0
C65 C 0.99486 0.96176 0.18614 0.0
C66 C 0.01236 0.93896 0.17338 0.0
C67 C 0.97016 0.02833 0.9772 0.0
C68 C 0.08223 0.05366 0.93283 0.0
C69 C 0.097 0.08932 0.93614 0.0
C70 C 0.09702 0.09791 0.90157 0.0
C71 C 0.08214 0.06245 0.89842 0.0
C72 C 0.08987 0.06699 0.95134 0.0
C73 C 0.08973 0.08442 0.88286 0.0
C74 C 0.98481 0.0578 0.02875 0.0
C75 C 0.07141 0.03296 0.95138 0.0
H76 H 0.89811 0.9106 0.12361 0.0
H77 H 0.92786 0.97088 0.12929 0.0
H78 H 0.9111 0.93408 0.15684 0.0
H79 H 0.9181 0.9614 0.03396 0.0
H80 H 0.10287 0.11487 0.88896 0.0
H81 H 0.07574 0.05276 0.88376 0.0
H82 H 0.08908 0.06056 0.97813 0.0
H83 H 0.08967 0.09122 0.85632 0.0
Eu84 Eu 0.98685 0.25106 0.21604 0.0
C85 C 0.07437 0.2704 0.26709 0.0
N86 N 0.06124 0.25301 0.28118 0.0
C87 C 0.10191 0.21929 0.29347 0.0
C88 C 0.10212 0.26244 0.26421 0.0
C89 C 0.07437 0.2283 0.29624 0.0
C90 C 0.11593 0.23628 0.27675 0.0
C91 C 0.07268 0.31563 0.24478 0.0
C92 C 0.05989 0.29667 0.25747 0.0
C93 C 0.10038 0.30756 0.24056 0.0
C94 C 0.11507 0.281 0.25014 0.0
Eu95 Eu 0.01475 0.26972 0.28271 0.0
N96 N 0.03316 0.3038 0.26109 0.0
C97 C 0.05721 0.34217 0.23692 0.0
C98 C 0.0179 0.32978 0.25481 0.0
C99 C 0.02969 0.3493 0.24233 0.0
H100 H 0.06358 0.21578 0.31139 0.0
H101 H 0.01754 0.36983 0.23699 0.0
H102 H 0.92914 0.29654 0.20354 0.0
H103 H 0.00894 0.14391 0.26071 0.0
H104 H 0.99663 0.33555 0.25942 0.0
H105 H 0.06629 0.35733 0.22719 0.0
H106 H 0.01909 0.18318 0.22922 0.0
H107 H 0.11222 0.19944 0.30486 0.0
H108 H 0.11058 0.32178 0.23043 0.0
H109 H 0.13639 0.27517 0.24743 0.0
H110 H 0.88143 0.30203 0.21892 0.0
H111 H 0.13724 0.22938 0.27502 0.0
H112 H 0.96296 0.14731 0.28678 0.0
N113 N 0.94145 0.25715 0.2291 0.0
C114 C 0.9344 0.23592 0.24585 0.0
C115 C 0.8961 0.28343 0.22693 0.0
C116 C 0.90751 0.23813 0.25539 0.0
C117 C 0.923 0.28038 0.21843 0.0
C118 C 0.88828 0.26233 0.24594 0.0
N119 N 0.98001 0.21009 0.24155 0.0
C120 C -0.00074 0.18571 0.24237 0.0
C121 C 0.94731 0.18947 0.26987 0.0
C122 C 0.9542 0.2119 0.25299 0.0
C123 C 0.96744 0.16499 0.27395 0.0
C124 C 0.99343 0.16302 0.25942 0.0
H125 H 0.86742 0.26479 0.2527 0.0
H126 H 0.88013 0.21755 0.28161 0.0
H127 H 0.91495 0.17493 0.29429 0.0
O128 O 0.97898 0.23362 0.17964 0.0
O129 O 0.96014 0.26332 0.26423 0.0
O130 O 0.98867 0.24375 0.30102 0.0
O131 O 0.98673 0.2705 0.16373 0.0
O132 O 0.02717 0.222 0.22843 0.0
O133 O 0.02701 0.22507 0.28275 0.0
O134 O 0.98906 0.2945 0.32005 0.0
O135 O 0.02777 0.2832 0.22657 0.0
O136 O 0.02956 0.24979 0.20136 0.0
O137 O 0.02616 0.26367 0.33173 0.0
O138 O 0.97629 0.30086 0.26806 0.0
O139 O 0.97434 0.29613 0.21484 0.0
C140 C 0.96446 0.2523 0.29465 0.0
C141 C 0.00192 0.23942 0.12573 0.0
C142 C 0.01439 0.20608 0.08982 0.0
C143 C 0.03946 0.20887 0.07944 0.0
C144 C 0.02695 0.24228 0.11498 0.0
C145 C 0.0455 0.22724 0.09159 0.0
C146 C 0.99557 0.22187 0.11231 0.0
C147 C 0.03689 0.2125 0.25671 0.0
C148 C 0.98357 0.25102 0.15436 0.0
C149 C 0.90069 0.21615 0.27363 0.0
C150 C 0.92054 0.1919 0.28094 0.0
C151 C 0.03915 0.26779 0.20346 0.0
C152 C -0.00071 0.28944 0.37507 0.0
C153 C 0.99332 0.32152 0.41005 0.0
C154 C 0.9863 0.3044 0.43839 0.0
C155 C 0.99278 0.27224 0.40346 0.0
C156 C -0.00033 0.31395 0.37838 0.0
C157 C 0.98618 0.27981 0.43505 0.0
C158 C 0.96656 0.31006 0.23977 0.0
C159 C 0.00485 0.28232 0.34185 0.0
H160 H 0.05437 0.19666 0.0623 0.0
H161 H 0.03247 0.25541 0.12537 0.0
H162 H 0.0649 0.22923 0.08368 0.0
H163 H 0.97652 0.21908 0.12128 0.0
H164 H 0.98136 0.30987 0.4631 0.0
H165 H 0.99241 0.25321 0.4011 0.0
H166 H 0.00473 0.32718 0.35629 0.0
H167 H 0.98095 0.26661 0.45696 0.0
Eu168 Eu 0.77284 0.27121 0.53985 0.0
C169 C 0.75625 0.25778 0.39896 0.0
N170 N 0.73986 0.27501 0.41985 0.0
C171 C 0.72908 0.3093 0.37306 0.0
C172 C 0.75975 0.26586 0.36399 0.0
C173 C 0.72609 0.30037 0.40753 0.0
C174 C 0.746 0.292 0.35118 0.0
C175 C 0.7869 0.21375 0.3915 0.0
C176 C 0.76975 0.23199 0.41261 0.0
C177 C 0.79033 0.22174 0.35666 0.0
C178 C 0.77684 0.24771 0.34296 0.0
Eu179 Eu 0.73599 0.25801 0.47741 0.0
N180 N 0.76658 0.22496 0.44653 0.0
C181 C 0.80014 0.188 0.40602 0.0
C182 C 0.77888 0.19967 0.46072 0.0
C183 C 0.79599 0.18091 0.44076 0.0
H184 H 0.71243 0.3136 0.42428 0.0
H185 H 0.80581 0.16091 0.45218 0.0
H186 H 0.78073 0.22076 0.60333 0.0
H187 H 0.7122 0.37606 0.53978 0.0
H188 H 0.77538 0.19359 0.48733 0.0
H189 H 0.81342 0.17339 0.39065 0.0
H190 H 0.74662 0.3384 0.51666 0.0
H191 H 0.71819 0.32947 0.36337 0.0
H192 H 0.80344 0.20798 0.34008 0.0
H193 H 0.77975 0.25357 0.31603 0.0
H194 H 0.76212 0.21202 0.66322 0.0
H195 H 0.7482 0.29896 0.32446 0.0
H196 H 0.68901 0.36994 0.59794 0.0
N197 N 0.75652 0.26119 0.59704 0.0
C198 C 0.73822 0.28166 0.6118 0.0
C199 C 0.75514 0.23164 0.64901 0.0
C200 C 0.72708 0.27756 0.64588 0.0
C201 C 0.7655 0.23657 0.6151 0.0
C202 C 0.73575 0.25218 0.66444 0.0
N203 N 0.74075 0.30991 0.55926 0.0
C204 C 0.73553 0.33477 0.54107 0.0
C205 C 0.71063 0.32794 0.60705 0.0
C206 C 0.72986 0.30654 0.59231 0.0
C207 C 0.70364 0.35301 0.58751 0.0
C208 C 0.71651 0.3565 0.55458 0.0
H209 H 0.72765 0.24825 0.69068 0.0
H210 H 0.69862 0.29592 0.68636 0.0
H211 H 0.68442 0.34003 0.65252 0.0
O212 O 0.79415 0.2963 0.54391 0.0
O213 O 0.73378 0.26341 0.55987 0.0
O214 O 0.71163 0.28424 0.51639 0.0
O215 O 0.80699 0.25512 0.56589 0.0
O216 O 0.76853 0.29933 0.48982 0.0
O217 O 0.72873 0.30093 0.47985 0.0
O218 O 0.71286 0.23128 0.49046 0.0
O219 O 0.77801 0.25876 0.45522 0.0
O220 O 0.80122 0.24882 0.49887 0.0
O221 O 0.69949 0.26849 0.45776 0.0
O222 O 0.74561 0.22649 0.52349 0.0
O223 O 0.7829 0.22742 0.53886 0.0
C224 C 0.71139 0.27505 0.54834 0.0
C225 C 0.83993 0.27589 0.54661 0.0
C226 C 0.87169 0.29985 0.52688 0.0
C227 C 0.89232 0.27557 0.53238 0.0
C228 C 0.86088 0.25209 0.55182 0.0
C229 C 0.88692 0.25194 0.54416 0.0
C230 C 0.84559 0.29938 0.53296 0.0
C231 C 0.74814 0.31059 0.47375 0.0
C232 C 0.81214 0.27712 0.55871 0.0
C233 C 0.70751 0.29873 0.66026 0.0
C234 C 0.69934 0.32383 0.64093 0.0
C235 C 0.80033 0.25205 0.4668 0.0
C236 C 0.68846 0.2329 0.44976 0.0
C237 C 0.66424 0.20542 0.44393 0.0
C238 C 0.67246 0.20951 0.40908 0.0
C239 C 0.69655 0.23657 0.4149 0.0
C240 C 0.67255 0.217 0.46424 0.0
C241 C 0.68863 0.22485 0.39476 0.0
C242 C 0.76565 0.21575 0.54022 0.0
C243 C 0.69562 0.24618 0.47121 0.0
H244 H 0.91266 0.27462 0.52892 0.0
H245 H 0.85717 0.23368 0.56248 0.0
H246 H 0.90296 0.23353 0.54859 0.0
H247 H 0.82929 0.31741 0.52811 0.0
H248 H 0.66667 0.20051 0.39292 0.0
H249 H 0.70873 0.2487 0.40314 0.0
H250 H 0.66622 0.2141 0.49112 0.0
H251 H 0.69494 0.22775 0.36792 0.0
Eu252 Eu 0.76698 0.02989 0.79117 0.0
C253 C 0.74424 0.94597 0.7271 0.0
N254 N 0.76228 0.95856 0.71462 0.0
C255 C 0.79262 0.92046 0.69104 0.0
C256 C 0.75007 0.91969 0.72248 0.0
C257 C 0.78601 0.94644 0.69633 0.0
C258 C 0.77462 0.90698 0.70427 0.0
C259 C 0.70139 0.94615 0.75936 0.0
C260 C 0.72004 0.95918 0.74519 0.0
C261 C 0.70713 0.92006 0.75465 0.0
C262 C 0.73137 0.90689 0.73622 0.0
Eu263 Eu 0.74864 1.00299 0.72235 0.0
N264 N 0.71517 0.98435 0.74998 0.0
C265 C 0.67756 0.95963 0.77818 0.0
C266 C 0.69175 0.99759 0.76805 0.0
C267 C 0.67275 0.98543 0.78252 0.0
H268 H 0.79947 0.95716 0.68471 0.0
H269 H 0.6543 0.99605 0.79692 0.0
H270 H 0.72121 0.08612 0.81151 0.0
H271 H 0.8702 0.01243 0.72673 0.0
H272 H 0.68728 0.01752 0.77148 0.0
H273 H 0.66276 0.95029 0.78947 0.0
H274 H 0.83387 0.99968 0.763 0.0
H275 H 0.81146 0.91098 0.67641 0.0
H276 H 0.69299 0.90982 0.76531 0.0
H277 H 0.73552 0.88672 0.73291 0.0
H278 H 0.71432 0.13409 0.79922 0.0
H279 H 0.77978 0.88685 0.70009 0.0
H280 H 0.86461 0.05962 0.70641 0.0
N281 N 0.75929 0.07565 0.78167 0.0
C282 C 0.7795 0.08385 0.76316 0.0
C283 C 0.73262 0.1202 0.78867 0.0
C284 C 0.77638 0.11101 0.75538 0.0
C285 C 0.73644 0.09312 0.79538 0.0
C286 C 0.75254 0.12922 0.76827 0.0
N287 N 0.80563 0.03875 0.75909 0.0
C288 C 0.82996 0.02012 0.75226 0.0
C289 C 0.82402 0.07328 0.73142 0.0
C290 C 0.80303 0.06501 0.75105 0.0
C291 C 0.84803 0.05407 0.72144 0.0
C292 C 0.85118 0.0274 0.73259 0.0
H293 H 0.74943 0.15024 0.76292 0.0
H294 H 0.79486 0.13996 0.72851 0.0
H295 H 0.83656 0.10698 0.7077 0.0
O296 O 0.79374 0.02915 0.8227 0.0
O297 O 0.75473 0.05791 0.74378 0.0
O298 O 0.77371 0.02979 0.70616 0.0
O299 O 0.75262 0.03649 0.84343 0.0
O300 O 0.7947 0.98851 0.77971 0.0
O301 O 0.79278 0.98743 0.72512 0.0
O302 O 0.72018 0.01457 0.6877 0.0
O303 O 0.75248 0.97471 0.77167 0.0
O304 O 0.74988 0.99653 0.81467 0.0
O305 O 0.76189 1.00385 0.66875 0.0
O306 O 0.71727 0.04129 0.73891 0.0
O307 O 0.72191 0.04503 0.79169 0.0
C308 C 0.76498 0.05381 0.71307 0.0
C309 C 0.78429 0.01679 0.88074 0.0
C310 C 0.81335 1.00515 0.92234 0.0
C311 C 0.80336 0.98458 0.93853 0.0
C312 C 0.77467 0.99616 0.89725 0.0
C313 C 0.78412 0.98023 0.92609 0.0
C314 C 0.80347 0.02127 0.89349 0.0
C315 C 0.80402 0.97748 0.75216 0.0
C316 C 0.77592 0.03311 0.84925 0.0
C317 C 0.79698 0.11916 0.73497 0.0
C318 C 0.8207 0.10037 0.72302 0.0
C319 C 0.74929 0.97613 0.80366 0.0
C320 C 0.73641 0.99245 0.63983 0.0
C321 C 0.71036 0.98231 0.60794 0.0
C322 C 0.73331 0.96297 0.59501 0.0
C323 C 0.7592 0.97334 0.62583 0.0
C324 C 0.7119 0.99673 0.63085 0.0
C325 C 0.75751 0.95847 0.60406 0.0
C326 C 0.70827 0.05222 0.76662 0.0
C327 C 0.73857 0.00904 0.66178 0.0
H328 H 0.81033 0.97189 0.96089 0.0
H329 H 0.76012 0.99219 0.88769 0.0
H330 H 0.77667 0.96429 0.93871 0.0
H331 H 0.81131 0.03685 0.8802 0.0
H332 H 0.73252 0.95145 0.57765 0.0
H333 H 0.77851 0.97004 0.63119 0.0
H334 H 0.69429 0.01186 0.64064 0.0
H335 H 0.77515 0.94374 0.59366 0.0
Eu336 Eu 0.48692 0.75145 0.22371 0.0
C337 C 0.57542 0.7749 0.26972 0.0
N338 N 0.5628 0.7577 0.2873 0.0
C339 C 0.60249 0.72857 0.30774 0.0
C340 C 0.60255 0.76903 0.26989 0.0
C341 C 0.57567 0.7351 0.3067 0.0
C342 C 0.61603 0.74554 0.28914 0.0
C343 C 0.57452 0.81558 0.23121 0.0
C344 C 0.56138 0.79811 0.2507 0.0
C345 C 0.6015 0.80974 0.23145 0.0
C346 C 0.61544 0.78659 0.25076 0.0
Eu347 Eu 0.51741 0.77089 0.28547 0.0
N348 N 0.53527 0.80308 0.25024 0.0
C349 C 0.56027 0.83837 0.21171 0.0
C350 C 0.5213 0.82566 0.23167 0.0
C351 C 0.53356 0.84343 0.21203 0.0
H352 H 0.56512 0.7223 0.32189 0.0
H353 H 0.52232 0.86114 0.19721 0.0
H354 H 0.435 0.79752 0.19344 0.0
H355 H 0.49341 0.65462 0.3034 0.0
H356 H 0.50071 0.83054 0.23169 0.0
H357 H 0.56968 0.85221 0.19637 0.0
H358 H 0.51108 0.68657 0.26463 0.0
H359 H 0.61266 0.71054 0.32305 0.0
H360 H 0.61181 0.82297 0.21662 0.0
H361 H 0.63627 0.78236 0.25057 0.0
H362 H 0.38679 0.80741 0.20003 0.0
H363 H 0.63685 0.74038 0.28994 0.0
H364 H 0.4452 0.66367 0.31699 0.0
N365 N 0.44107 0.76193 0.2283 0.0
C366 C 0.43038 0.74387 0.2481 0.0
C367 C 0.39876 0.78965 0.21399 0.0
C368 C 0.40293 0.74876 0.25269 0.0
C369 C 0.42597 0.78417 0.21057 0.0
C370 C 0.38712 0.77201 0.23542 0.0
N371 N 0.47352 0.71619 0.25905 0.0
C372 C 0.4901 0.69219 0.27167 0.0
C373 C 0.43595 0.70198 0.28546 0.0
C374 C 0.44691 0.72063 0.26424 0.0
C375 C 0.45287 0.67843 0.30051 0.0
C376 C 0.48006 0.67335 0.29311 0.0
H377 H 0.36599 0.77637 0.23815 0.0
H378 H 0.37104 0.73392 0.27825 0.0
H379 H 0.39987 0.69307 0.30702 0.0
O380 O 0.48797 0.72361 0.19354 0.0
O381 O 0.45967 0.7643 0.2713 0.0
O382 O 0.48778 0.74928 0.30928 0.0
O383 O 0.48194 0.76435 0.17117 0.0
O384 O 0.52756 0.72154 0.23456 0.0
O385 O 0.53166 0.72603 0.28682 0.0
O386 O 0.51338 0.80076 0.3144 0.0
O387 O 0.54493 0.76044 0.23708 0.0
O388 O 0.5177 0.77139 0.19823 0.0
O389 O 0.52049 0.76027 0.33871 0.0
O390 O 0.47795 0.80235 0.27262 0.0
O391 O 0.472 0.79645 0.22188 0.0
C392 C 0.46394 0.7563 0.30219 0.0
C393 C 0.50369 0.73136 0.13642 0.0
C394 C 0.51822 0.69985 0.09776 0.0
C395 C 0.53997 0.70837 0.0832 0.0
C396 C 0.52532 0.73993 0.12172 0.0
C397 C 0.54332 0.72854 0.09502 0.0
C398 C 0.50013 0.71164 0.12416 0.0
C399 C 0.53964 0.713 0.26113 0.0
C400 C 0.48555 0.74074 0.16624 0.0
C401 C 0.39211 0.73039 0.27424 0.0
C402 C 0.40854 0.70715 0.29066 0.0
C403 C 0.54102 0.76644 0.20594 0.0
C404 C 0.4978 0.79432 0.37182 0.0
C405 C 0.48473 0.82505 0.41137 0.0
C406 C 0.46204 0.81787 0.42497 0.0
C407 C 0.47519 0.78717 0.38551 0.0
C408 C 0.50256 0.81295 0.38498 0.0
C409 C 0.45746 0.79884 0.41221 0.0
C410 C 0.46553 0.81055 0.24634 0.0
C411 C 0.51604 0.78443 0.34234 0.0
H412 H 0.55428 0.69945 0.06285 0.0
H413 H 0.52847 0.75499 0.13118 0.0
H414 H 0.5601 0.73506 0.08383 0.0
H415 H 0.48375 0.70462 0.13631 0.0
H416 H 0.44791 0.82697 0.44532 0.0
H417 H 0.47108 0.77297 0.37532 0.0
H418 H 0.51974 0.81886 0.3736 0.0
H419 H 0.43995 0.79341 0.42271 0.0
Eu420 Eu 0.24778 0.74772 0.47094 0.0
C421 C 0.26108 0.74778 0.61502 0.0
N422 N 0.24399 0.76794 0.59714 0.0
C423 C 0.21099 0.77447 0.64627 0.0
C424 C 0.25333 0.73973 0.6494 0.0
C425 C 0.21948 0.78167 0.61223 0.0
C426 C 0.22792 0.75331 0.66491 0.0
C427 C 0.30403 0.71336 0.61666 0.0
C428 C 0.28619 0.73466 0.59868 0.0
C429 C 0.29625 0.7052 0.65082 0.0
C430 C 0.271 0.71834 0.66714 0.0
Eu431 Eu 0.25981 0.77842 0.53995 0.0
N432 N 0.29304 0.7425 0.56525 0.0
C433 C 0.32927 0.70093 0.59984 0.0
C434 C 0.31819 0.73142 0.54937 0.0
C435 C 0.33648 0.71025 0.56619 0.0
H436 H 0.2066 0.79841 0.59809 0.0
H437 H 0.35628 0.70136 0.55326 0.0
H438 H 0.3033 0.72584 0.41652 0.0
H439 H 0.15392 0.82659 0.4505 0.0
H440 H 0.32479 0.73913 0.52414 0.0
H441 H 0.34354 0.68453 0.61278 0.0
H442 H 0.18438 0.7905 0.48322 0.0
H443 H 0.19144 0.7853 0.65814 0.0
H444 H 0.30967 0.68879 0.66492 0.0
H445 H 0.26534 0.71181 0.69352 0.0
H446 H 0.32022 0.73589 0.35632 0.0
H447 H 0.22125 0.74773 0.69128 0.0
H448 H 0.16776 0.83893 0.38989 0.0
N449 N 0.26561 0.75549 0.41389 0.0
C450 C 0.24918 0.77459 0.39412 0.0
C451 C 0.30025 0.74697 0.36665 0.0
C452 C 0.25799 0.78086 0.3596 0.0
C453 C 0.29071 0.74149 0.40075 0.0
C454 C 0.28385 0.76676 0.34599 0.0
N455 N 0.21618 0.78297 0.44238 0.0
C456 C 0.1912 0.7959 0.45719 0.0
C457 C 0.20673 0.80916 0.38887 0.0
C458 C 0.22379 0.78866 0.40869 0.0
C459 C 0.18145 0.82307 0.40426 0.0
C460 C 0.17361 0.81626 0.4385 0.0
H461 H 0.29134 0.77102 0.31959 0.0
H462 H 0.24739 0.8063 0.31333 0.0
H463 H 0.20256 0.83101 0.33891 0.0
O464 O 0.21863 0.73067 0.46899 0.0
O465 O 0.25443 0.78736 0.45324 0.0
O466 O 0.23853 0.80852 0.49916 0.0
O467 O 0.2596 0.71216 0.44822 0.0
O468 O 0.21541 0.75442 0.51718 0.0
O469 O 0.21616 0.7895 0.538 0.0
O470 O 0.28853 0.79366 0.54801 0.0
O471 O 0.25124 0.73961 0.55685 0.0
O472 O 0.27038 0.71898 0.51115 0.0
O473 O 0.24688 0.81469 0.5616 0.0
O474 O 0.29079 0.77349 0.49223 0.0
O475 O 0.29073 0.7364 0.47604 0.0
C476 C 0.24561 0.80903 0.46665 0.0
C477 C 0.23438 0.68428 0.47595 0.0
C478 C 0.20631 0.65733 0.5022 0.0
C479 C 0.22921 0.63549 0.50826 0.0
C480 C 0.25694 0.66222 0.48172 0.0
C481 C 0.25424 0.63812 0.4985 0.0
C482 C 0.20929 0.6819 0.48748 0.0
C483 C 0.20448 0.77293 0.53654 0.0
C484 C 0.23622 0.70989 0.45741 0.0
C485 C 0.24095 0.80119 0.33988 0.0
C486 C 0.21541 0.81528 0.35446 0.0
C487 C 0.26125 0.71798 0.54328 0.0
C488 C 0.27544 0.83982 0.53767 0.0
C489 C 0.307 0.86295 0.51193 0.0
C490 C 0.28636 0.88466 0.49936 0.0
C491 C 0.25501 0.86183 0.52547 0.0
C492 C 0.3013 0.84047 0.5305 0.0
C493 C 0.26058 0.88399 0.50605 0.0
C494 C 0.30177 0.75418 0.4742 0.0
C495 C 0.27078 0.81546 0.55662 0.0
H496 H 0.22813 0.61603 0.51905 0.0
H497 H 0.27659 0.66352 0.47329 0.0
H498 H 0.27168 0.62114 0.50292 0.0
H499 H 0.19206 0.6993 0.48382 0.0
H500 H 0.28986 0.90256 0.48546 0.0
H501 H 0.23484 0.86188 0.53069 0.0
H502 H 0.31706 0.82331 0.53963 0.0
H503 H 0.24479 0.90088 0.49659 0.0
Eu504 Eu 0.26216 0.52795 0.78311 0.0
C505 C 0.24165 0.43762 0.73834 0.0
N506 N 0.25886 0.45018 0.72059 0.0
C507 C 0.28966 0.4095 0.70384 0.0
C508 C 0.24836 0.41006 0.74028 0.0
C509 C 0.28229 0.43677 0.70282 0.0
C510 C 0.27271 0.39605 0.72281 0.0
C511 C 0.19991 0.43926 0.77505 0.0
C512 C 0.21756 0.4522 0.75555 0.0
C513 C 0.20669 0.41182 0.77709 0.0
C514 C 0.23079 0.39729 0.75974 0.0
Eu515 Eu 0.2445 0.49618 0.71968 0.0
N516 N 0.21171 0.47877 0.75394 0.0
C517 C 0.17592 0.45424 0.79204 0.0
C518 C 0.18771 0.49352 0.7693 0.0
C519 C 0.16972 0.48149 0.78888 0.0
H520 H 0.29516 0.44717 0.6874 0.0
H521 H 0.15088 0.49334 0.80124 0.0
H522 H 0.21249 0.57973 0.81026 0.0
H523 H 0.35944 0.52425 0.70675 0.0
H524 H 0.18172 0.51458 0.76621 0.0
H525 H 0.16188 0.44502 0.80726 0.0
H526 H 0.32701 0.50563 0.74285 0.0
H527 H 0.30836 0.3989 0.68987 0.0
H528 H 0.19338 0.40162 0.79206 0.0
H529 H 0.23569 0.37612 0.76163 0.0
H530 H 0.20076 0.6282 0.80361 0.0
H531 H 0.27854 0.37488 0.72367 0.0
H532 H 0.34955 0.57261 0.6949 0.0
N533 N 0.24956 0.57424 0.77827 0.0
C534 C 0.26765 0.58552 0.75995 0.0
C535 C 0.21952 0.61648 0.79096 0.0
C536 C 0.26181 0.61315 0.75557 0.0
C537 C 0.22606 0.58908 0.79436 0.0
C538 C 0.23739 0.6286 0.77129 0.0
N539 N 0.29679 0.54281 0.7488 0.0
C540 C 0.32125 0.52667 0.73657 0.0
C541 C 0.31041 0.581 0.72468 0.0
C542 C 0.29172 0.56948 0.74454 0.0
C543 C 0.33469 0.56453 0.71025 0.0
C544 C 0.34026 0.53724 0.71666 0.0
H545 H 0.23221 0.64986 0.76856 0.0
H546 H 0.27606 0.64572 0.73168 0.0
H547 H 0.31859 0.61762 0.70475 0.0
O548 O 0.29116 0.52315 0.81374 0.0
O549 O 0.25093 0.55419 0.73467 0.0
O550 O 0.26458 0.52702 0.69502 0.0
O551 O 0.24954 0.5366 0.83431 0.0
O552 O 0.2924 0.48762 0.77171 0.0
O553 O 0.28929 0.4835 0.71874 0.0
O554 O 0.21456 0.50067 0.69066 0.0
O555 O 0.25418 0.47007 0.76907 0.0
O556 O 0.24173 0.49763 0.80821 0.0
O557 O 0.25549 0.49026 0.66721 0.0
O558 O 0.21347 0.53584 0.7325 0.0
O559 O 0.21743 0.53977 0.78516 0.0
C560 C 0.25861 0.55038 0.70345 0.0
C561 C 0.28007 0.5152 0.87243 0.0
C562 C 0.30744 0.50549 0.91524 0.0
C563 C 0.29206 0.49071 0.93629 0.0
C564 C 0.26508 0.5003 0.89356 0.0
C565 C 0.27125 0.48795 0.92531 0.0
C566 C 0.30142 0.51718 0.88302 0.0
C567 C 0.30184 0.47582 0.74478 0.0
C568 C 0.27356 0.53014 0.83977 0.0
C569 C 0.28029 0.62453 0.73547 0.0
C570 C 0.30448 0.60852 0.72006 0.0
C571 C 0.24692 0.4743 0.80022 0.0
C572 C 0.22265 0.51308 0.6325 0.0
C573 C 0.19386 0.52558 0.59069 0.0
C574 C 0.2025 0.54733 0.57655 0.0
C575 C 0.23109 0.53482 0.61813 0.0
C576 C 0.20428 0.50842 0.61855 0.0
C577 C 0.22113 0.55177 0.59011 0.0
C578 C 0.20437 0.5474 0.75964 0.0
C579 C 0.23122 0.49581 0.66323 0.0
H580 H 0.29563 0.48168 0.96148 0.0
H581 H 0.24857 0.49843 0.88573 0.0
H582 H 0.25957 0.47659 0.94173 0.0
H583 H 0.31323 0.5281 0.86586 0.0
H584 H 0.19484 0.56089 0.55506 0.0
H585 H 0.24504 0.53886 0.62879 0.0
H586 H 0.19735 0.49194 0.63024 0.0
H587 H 0.22761 0.56859 0.57911 0.0
Eu588 Eu 0.98227 0.49519 0.55748 0.0
C589 C 0.00657 0.53086 0.39358 0.0
N590 N 0.02225 0.51247 0.4147 0.0
C591 C 0.04023 0.4833 0.37384 0.0
C592 C 0.00703 0.52603 0.36157 0.0
C593 C 0.03926 0.48909 0.40521 0.0
C594 C 0.02399 0.50182 0.35195 0.0
C595 C 0.97383 0.57435 0.38241 0.0
C596 C 0.99013 0.55471 0.40388 0.0
C597 C 0.97421 0.56959 0.35055 0.0
C598 C 0.99073 0.54549 0.34018 0.0
Eu599 Eu 0.01878 0.52385 0.46726 0.0
N600 N 0.98979 0.55858 0.43509 0.0
C601 C 0.95762 0.5982 0.39363 0.0
C602 C 0.97454 0.582 0.44582 0.0
C603 C 0.95809 0.60207 0.42543 0.0
H604 H 0.05239 0.47509 0.42169 0.0
H605 H 0.94585 0.62053 0.43423 0.0
H606 H 0.96181 0.53348 0.61691 0.0
H607 H 0.0596 0.39798 0.55108 0.0
H608 H 0.97498 0.58526 0.47005 0.0
H609 H 0.94484 0.61378 0.37789 0.0
H610 H 0.02246 0.436 0.53285 0.0
H611 H 0.05364 0.46467 0.36647 0.0
H612 H 0.96181 0.58445 0.33373 0.0
H613 H 0.99084 0.54214 0.3155 0.0
H614 H 0.97365 0.53329 0.67071 0.0
H615 H 0.02489 0.49734 0.3276 0.0
H616 H 0.07502 0.39569 0.60318 0.0
N617 N 0.99183 0.49679 0.6088 0.0
C618 C 0.01189 0.47583 0.62062 0.0
C619 C 0.98457 0.51705 0.65685 0.0
C620 C 0.01917 0.47486 0.6513 0.0
C621 C 0.97799 0.51716 0.62637 0.0
C622 C 0.00525 0.49583 0.66938 0.0
N623 N 0.01814 0.45689 0.57205 0.0
C624 C 0.02961 0.43621 0.55454 0.0
C625 C 0.04624 0.43345 0.61371 0.0
C626 C 0.02541 0.45541 0.60178 0.0
C627 C 0.05897 0.4129 0.59482 0.0
C628 C 0.05043 0.41418 0.56531 0.0
H629 H 0.01027 0.49579 0.69304 0.0
H630 H 0.04587 0.452 0.68651 0.0
H631 H 0.06945 0.41575 0.65374 0.0
O632 O 0.96598 0.4634 0.57744 0.0
O633 O 0.01935 0.50454 0.55554 0.0
O634 O 0.03921 0.49151 0.5057 0.0
O635 O 0.94419 0.50207 0.59127 0.0
O636 O 0.98628 0.47767 0.51171 0.0
O637 O 0.02559 0.48013 0.4804 0.0
O638 O 0.04022 0.54911 0.47034 0.0
O639 O 0.97699 0.52617 0.46752 0.0
O640 O 0.95602 0.52676 0.52266 0.0
O641 O 0.05537 0.52296 0.43216 0.0
O642 O 0.00206 0.55074 0.50728 0.0
O643 O 0.97234 0.53919 0.55352 0.0
C644 C 0.04065 0.49815 0.53313 0.0
C645 C 0.91943 0.47783 0.58195 0.0
C646 C 0.89812 0.45858 0.55372 0.0
C647 C 0.87337 0.47578 0.56682 0.0
C648 C 0.89449 0.49453 0.59465 0.0
C649 C 0.87167 0.49371 0.58674 0.0
C650 C 0.92113 0.46023 0.56096 0.0
C651 C 0.0053 0.4719 0.48617 0.0
C652 C 0.94342 0.47879 0.59095 0.0
C653 C 0.04003 0.4531 0.66297 0.0
C654 C 0.0535 0.43247 0.64426 0.0
C655 C 0.95578 0.52861 0.49062 0.0
C656 C 0.08098 0.55025 0.43325 0.0
C657 C 0.10545 0.57724 0.43883 0.0
C658 C 0.12213 0.57105 0.40853 0.0
C659 C 0.09792 0.54395 0.40319 0.0
C660 C 0.08506 0.5666 0.45124 0.0
C661 C 0.11845 0.55431 0.39096 0.0
C662 C 0.98471 0.55535 0.53505 0.0
C663 C 0.05854 0.54061 0.44534 0.0
H664 H 0.85507 0.47491 0.5628 0.0
H665 H 0.89264 0.50825 0.61073 0.0
H666 H 0.8525 0.50664 0.59675 0.0
H667 H 0.94036 0.44767 0.55051 0.0
H668 H 0.13815 0.57895 0.39866 0.0
H669 H 0.09513 0.53131 0.38895 0.0
H670 H 0.0721 0.57155 0.47452 0.0
H671 H 0.13143 0.5495 0.36772 0.0
Eu672 Eu 0.24742 0.24841 0.97091 0.0
C673 C 0.26521 0.25096 0.11416 0.0
N674 N 0.24842 0.27107 0.09582 0.0
C675 C 0.21671 0.28105 0.14541 0.0
C676 C 0.25799 0.24483 0.1491 0.0
C677 C 0.22465 0.28633 0.11085 0.0
C678 C 0.2334 0.26014 0.16461 0.0
C679 C 0.3068 0.21452 0.11625 0.0
C680 C 0.2894 0.23593 0.09783 0.0
C681 C 0.29964 0.20844 0.15103 0.0
C682 C 0.27533 0.22353 0.16739 0.0
Eu683 Eu 0.26337 0.2783 0.03775 0.0
N684 N 0.29548 0.24166 0.06386 0.0
C685 C 0.33087 0.19971 0.09917 0.0
C686 C 0.31938 0.22781 0.04737 0.0
C687 C 0.33725 0.20653 0.06464 0.0
H688 H 0.21198 0.30291 0.09622 0.0
H689 H 0.35605 0.19549 0.05129 0.0
H690 H 0.29772 0.23192 0.90818 0.0
H691 H 0.14759 0.32171 0.96692 0.0
H692 H 0.32516 0.23309 0.02105 0.0
H693 H 0.34476 0.18313 0.11243 0.0
H694 H 0.18151 0.284 0.99201 0.0
H695 H 0.19778 0.29316 0.15722 0.0
H696 H 0.31275 0.19201 0.16551 0.0
H697 H 0.27007 0.2185 0.19422 0.0
H698 H 0.30946 0.24749 0.84799 0.0
H699 H 0.22715 0.25604 0.19139 0.0
H700 H 0.15706 0.34157 0.90787 0.0
N701 N 0.25971 0.2613 0.91315 0.0
C702 C 0.24122 0.28154 0.8974 0.0
C703 C 0.29029 0.25738 0.86163 0.0
C704 C 0.247 0.29102 0.86301 0.0
C705 C 0.28373 0.24879 0.89578 0.0
C706 C 0.27192 0.27871 0.8452 0.0
N707 N 0.21168 0.28383 0.94929 0.0
C708 C 0.18684 0.29314 0.96704 0.0
C709 C 0.1973 0.31451 0.9002 0.0
C710 C 0.21666 0.29324 0.91598 0.0
C711 C 0.17246 0.32527 0.91908 0.0
C712 C 0.1671 0.31424 0.95248 0.0
H713 H 0.27709 0.2854 0.81875 0.0
H714 H 0.23205 0.32011 0.82117 0.0
H715 H 0.18853 0.3406 0.85366 0.0
O716 O 0.2195 0.23096 0.96559 0.0
O717 O 0.25628 0.28677 0.95302 0.0
O718 O 0.23978 0.30799 0.99861 0.0
O719 O 0.26102 0.21305 0.94733 0.0
O720 O 0.21766 0.25352 0.01992 0.0
O721 O 0.21904 0.2889 0.0395 0.0
O722 O 0.29475 0.29308 0.03832 0.0
O723 O 0.25599 0.23903 0.05636 0.0
O724 O 0.27013 0.21832 0.01029 0.0
O725 O 0.25452 0.3139 0.0592 0.0
O726 O 0.29384 0.27196 0.98964 0.0
O727 O 0.29164 0.23738 0.96929 0.0
C728 C 0.24701 0.30856 0.96612 0.0
C729 C 0.23622 0.18452 0.97267 0.0
C730 C 0.20851 0.15748 1.00003 0.0
C731 C 0.23153 0.13547 0.00469 0.0
C732 C 0.25895 0.16227 0.97693 0.0
C733 C 0.25652 0.13803 0.99355 0.0
C734 C 0.21125 0.18212 0.98535 0.0
C735 C 0.20735 0.27187 0.03963 0.0
C736 C 0.23786 0.21034 0.95467 0.0
C737 C 0.2279 0.31247 0.84752 0.0
C738 C 0.20314 0.32418 0.86605 0.0
C739 C 0.26348 0.21757 0.04279 0.0
C740 C 0.28232 0.33919 0.0317 0.0
C741 C 0.31143 0.36567 0.01044 0.0
C742 C 0.29083 0.3857 0.99543 0.0
C743 C 0.262 0.35954 0.01692 0.0
C744 C 0.307 0.34224 0.02808 0.0
C745 C 0.26638 0.38254 0.99858 0.0
C746 C 0.30379 0.25381 0.96973 0.0
C747 C 0.27862 0.31431 0.05018 0.0
H748 H 0.23046 0.11599 0.0154 0.0
H749 H 0.27854 0.16356 0.96752 0.0
H750 H 0.27409 0.12093 0.99682 0.0
H751 H 0.19384 0.1995 0.98268 0.0
H752 H 0.29319 0.40425 0.98222 0.0
H753 H 0.24277 0.35769 0.01955 0.0
H754 H 0.3227 0.32627 0.03921 0.0
H755 H 0.25062 0.39817 0.98723 0.0
Eu756 Eu 0.26207 0.02778 0.28332 0.0
C757 C 0.23432 0.941 0.23989 0.0
N758 N 0.25195 0.95252 0.22066 0.0
C759 C 0.27957 0.91142 0.20219 0.0
C760 C 0.2393 0.91372 0.24183 0.0
C761 C 0.27396 0.93843 0.20129 0.0
C762 C 0.26228 0.89895 0.22275 0.0
C763 C 0.19335 0.94454 0.27909 0.0
C764 C 0.21146 0.9564 0.25829 0.0
C765 C 0.19852 0.91733 0.28137 0.0
C766 C 0.22136 0.90199 0.26275 0.0
Eu767 Eu 0.24079 0.9981 0.22018 0.0
N768 N 0.20713 0.98276 0.25621 0.0
C769 C 0.17042 0.96038 0.29693 0.0
C770 C 0.18393 0.99841 0.2721 0.0
C771 C 0.16556 0.98746 0.29306 0.0
H772 H 0.28698 0.94815 0.1847 0.0
H773 H 0.14742 1.00004 0.30587 0.0
H774 H 0.21241 0.07777 0.31544 0.0
H775 H 0.35442 0.02886 0.19744 0.0
H776 H 0.17873 0.01942 0.26826 0.0
H777 H 0.15607 0.95201 0.31316 0.0
H778 H 0.32277 0.00859 0.23241 0.0
H779 H 0.29715 0.90026 0.18691 0.0
H780 H 0.18485 0.90796 0.29735 0.0
H781 H 0.22497 0.88104 0.26469 0.0
H782 H 0.20116 0.12563 0.31415 0.0
H783 H 0.26674 0.87798 0.22349 0.0
H784 H 0.34589 0.07655 0.19395 0.0
N785 N 0.24898 0.07371 0.28249 0.0
C786 C 0.2668 0.08561 0.26497 0.0
C787 C 0.21957 0.11467 0.3 0.0
C788 C 0.26121 0.11292 0.26376 0.0
C789 C 0.22582 0.08764 0.3003 0.0
C790 C 0.23729 0.12739 0.28158 0.0
N791 N 0.29493 0.04441 0.24776 0.0
C792 C 0.31795 0.02943 0.23075 0.0
C793 C 0.30841 0.083 0.22751 0.0
C794 C 0.29028 0.07066 0.24706 0.0
C795 C 0.33154 0.06778 0.20928 0.0
C796 C 0.33636 0.04089 0.21105 0.0
H797 H 0.23234 0.14838 0.28132 0.0
H798 H 0.27541 0.14598 0.24336 0.0
H799 H 0.31661 0.11986 0.21158 0.0
O800 O 0.29356 0.01946 0.31201 0.0
O801 O 0.25192 0.05443 0.23455 0.0
O802 O 0.26258 0.02745 0.19509 0.0
O803 O 0.25282 0.03607 0.33451 0.0
O804 O 0.29175 0.98784 0.2695 0.0
O805 O 0.28587 0.98247 0.21824 0.0
O806 O 0.20956 1.00417 0.19231 0.0
O807 O 0.25181 0.97111 0.26855 0.0
O808 O 0.24125 0.99769 0.30853 0.0
O809 O 0.25005 0.99331 0.16734 0.0
O810 O 0.21226 0.0384 0.23344 0.0
O811 O 0.21709 0.04053 0.28641 0.0
C812 C 0.25822 0.05055 0.20329 0.0
C813 C 0.28412 0.01342 0.37115 0.0
C814 C 0.30921 1.00555 0.41603 0.0
C815 C 0.29659 0.98739 0.43439 0.0
C816 C 0.27208 0.99505 0.38964 0.0
C817 C 0.27829 0.98215 0.42118 0.0
C818 C 0.30268 0.01853 0.3843 0.0
C819 C 0.29969 0.97548 0.24303 0.0
C820 C 0.27742 0.02803 0.33839 0.0
C821 C 0.27941 0.12503 0.24458 0.0
C822 C 0.30288 0.11014 0.22648 0.0
C823 C 0.24579 0.97467 0.29996 0.0
C824 C 0.21644 0.01791 0.13421 0.0
C825 C 0.18788 0.0317 0.09177 0.0
C826 C 0.19593 0.05398 0.07954 0.0
C827 C 0.22415 0.0403 0.12175 0.0
C828 C 0.19851 0.01358 0.119 0.0
C829 C 0.21405 0.05813 0.09436 0.0
C830 C 0.20403 0.04958 0.26079 0.0
C831 C 0.22543 0.99965 0.16424 0.0
H832 H 0.30067 0.97729 0.45911 0.0
H833 H 0.25781 0.99083 0.3798 0.0
H834 H 0.26884 0.96808 0.43551 0.0
H835 H 0.31228 0.03237 0.36944 0.0
H836 H 0.18823 0.06815 0.0585 0.0
H837 H 0.23769 0.04411 0.1334 0.0
H838 H 0.1921 0.99658 0.12916 0.0
H839 H 0.22004 0.07541 0.08482 0.0
Eu840 Eu 0.49347 0.25895 0.72084 0.0
C841 C 0.57295 0.29043 0.76369 0.0
N842 N 0.56655 0.2684 0.77805 0.0
C843 C 0.61231 0.24236 0.77711 0.0
C844 C 0.59963 0.28888 0.75357 0.0
C845 C 0.58557 0.24482 0.78628 0.0
C846 C 0.6194 0.26438 0.7601 0.0
C847 C 0.55888 0.33789 0.74618 0.0
C848 C 0.55268 0.31458 0.76001 0.0
C849 C 0.58537 0.33626 0.73421 0.0
C850 C 0.60571 0.31181 0.73797 0.0
Eu851 Eu 0.52131 0.2734 0.79123 0.0
N852 N 0.52721 0.31553 0.77227 0.0
C853 C 0.53842 0.36226 0.74614 0.0
C854 C 0.50779 0.33947 0.77561 0.0
C855 C 0.5129 0.36307 0.76172 0.0
H856 H 0.57995 0.22791 0.79942 0.0
H857 H 0.49722 0.3819 0.76361 0.0
H858 H 0.43809 0.31177 0.70939 0.0
H859 H 0.50381 0.15415 0.74271 0.0
H860 H 0.48835 0.34082 0.78951 0.0
H861 H 0.54235 0.3806 0.73575 0.0
H862 H 0.51921 0.19242 0.72634 0.0
H863 H 0.62742 0.2235 0.78299 0.0
H864 H 0.59041 0.35393 0.72307 0.0
H865 H 0.62609 0.31097 0.72952 0.0
H866 H 0.38987 0.32255 0.72293 0.0
H867 H 0.64014 0.26239 0.75281 0.0
H868 H 0.45597 0.16089 0.75876 0.0
N869 N 0.4467 0.27104 0.72929 0.0
C870 C 0.43675 0.25084 0.7394 0.0
C871 C 0.40278 0.30233 0.72844 0.0
C872 C 0.40919 0.25584 0.74617 0.0
C873 C 0.43022 0.29632 0.72179 0.0
C874 C 0.39218 0.28205 0.74136 0.0
N875 N 0.48061 0.22083 0.73457 0.0
C876 C 0.49833 0.19579 0.73403 0.0
C877 C 0.44449 0.2036 0.751 0.0
C878 C 0.45418 0.22502 0.74169 0.0
C879 C 0.46263 0.17785 0.75184 0.0
C880 C 0.48965 0.17396 0.74291 0.0
H881 H 0.37091 0.28671 0.74623 0.0
H882 H 0.37839 0.23808 0.76216 0.0
H883 H 0.40931 0.19233 0.76641 0.0
O884 O 0.51376 0.23978 0.67656 0.0
O885 O 0.47877 0.24466 0.77617 0.0
O886 O 0.47833 0.27634 0.80361 0.0
O887 O 0.47974 0.27558 0.67323 0.0
O888 O 0.53281 0.22739 0.73299 0.0
O889 O 0.53273 0.22912 0.7881 0.0
O890 O 0.53115 0.28496 0.83132 0.0
O891 O 0.5486 0.26301 0.74295 0.0
O892 O 0.52014 0.2843 0.70659 0.0
O893 O 0.51968 0.25026 0.84191 0.0
O894 O 0.48143 0.30444 0.77913 0.0
O895 O 0.48036 0.30308 0.72449 0.0
C896 C 0.46827 0.25904 0.80047 0.0
C897 C 0.48891 0.24876 0.63231 0.0
C898 C 0.49178 0.21565 0.60057 0.0
C899 C 0.4761 0.23553 0.57888 0.0
C900 C 0.47314 0.26839 0.61042 0.0
C901 C 0.46668 0.26175 0.58399 0.0
C902 C 0.49797 0.22221 0.62756 0.0
C903 C 0.54166 0.2166 0.76179 0.0
C904 C 0.49751 0.25719 0.65748 0.0
C905 C 0.39949 0.23459 0.75657 0.0
C906 C 0.41709 0.20853 0.75891 0.0
C907 C 0.54432 0.27502 0.71292 0.0
C908 C 0.50811 0.27627 0.88541 0.0
C909 C 0.49244 0.30947 0.92248 0.0
C910 C 0.48112 0.29273 0.94699 0.0
C911 C 0.49698 0.25968 0.91026 0.0
C912 C 0.50503 0.30136 0.89146 0.0
C913 C 0.4832 0.2681 0.9407 0.0
C914 C 0.4715 0.31509 0.75102 0.0
C915 C 0.52492 0.267 0.8544 0.0
H916 H 0.47098 0.2307 0.55813 0.0
H917 H 0.46621 0.28902 0.61337 0.0
H918 H 0.45461 0.27699 0.5672 0.0
H919 H 0.5103 0.20686 0.64405 0.0
H920 H 0.47147 0.2982 0.97136 0.0
H921 H 0.49927 0.24013 0.90636 0.0
H922 H 0.51317 0.31447 0.8722 0.0
H923 H 0.47479 0.25516 0.95987 0.0
Eu924 Eu 0.98599 0.75023 0.72358 0.0
C925 C 0.07532 0.78125 0.74386 0.0
N926 N 0.06642 0.76073 0.75888 0.0
C927 C 0.111 0.7305 0.7542 0.0
C928 C 0.10247 0.77673 0.73149 0.0
C929 C 0.08399 0.73604 0.76637 0.0
C930 C 0.12023 0.75085 0.73601 0.0
C931 C 0.06623 0.82861 0.72668 0.0
C932 C 0.05739 0.80703 0.74169 0.0
C933 C 0.09312 0.82401 0.71351 0.0
C934 C 0.11117 0.79816 0.71586 0.0
Eu935 Eu 0.02033 0.77248 0.77823 0.0
N936 N 0.03132 0.81098 0.75408 0.0
C937 C 0.04774 0.85423 0.72527 0.0
C938 C 0.01331 0.83596 0.75345 0.0
C939 C 0.02122 0.85791 0.7389 0.0
H940 H 0.07755 0.72078 0.78291 0.0
H941 H 0.00688 0.87768 0.73838 0.0
H942 H 0.92957 0.80263 0.71589 0.0
H943 H 0.99684 0.64579 0.76544 0.0
H944 H 0.99291 0.83914 0.76469 0.0
H945 H 0.05378 0.87131 0.71398 0.0
H946 H 0.01191 0.68357 0.73844 0.0
H947 H 0.12474 0.71068 0.75962 0.0
H948 H 0.10021 0.84034 0.70168 0.0
H949 H 0.13192 0.79498 0.70598 0.0
H950 H 0.88213 0.81398 0.73837 0.0
H951 H 0.14122 0.74657 0.72688 0.0
H952 H 0.94963 0.65338 0.7892 0.0
N953 N 0.93968 0.76309 0.7415 0.0
C954 C 0.93017 0.74306 0.757 0.0
C955 C 0.89547 0.79409 0.7446 0.0
C956 C 0.90287 0.74828 0.76893 0.0
C957 C 0.9226 0.78785 0.73288 0.0
C958 C 0.88561 0.77432 0.76342 0.0
N959 N 0.97378 0.71245 0.74783 0.0
C960 C 0.99136 0.68725 0.74924 0.0
C961 C 0.93812 0.69596 0.77531 0.0
C962 C 0.94758 0.71707 0.75988 0.0
C963 C 0.95614 0.67011 0.77752 0.0
C964 C 0.98283 0.66574 0.76424 0.0
H965 H 0.86452 0.77914 0.77219 0.0
H966 H 0.87267 0.73106 0.79463 0.0
H967 H 0.90352 0.68532 0.80036 0.0
O968 O 0.97962 0.72914 0.68993 0.0
O969 O 0.97935 0.73765 0.78051 0.0
O970 O 0.97882 0.77242 0.80166 0.0
O971 O 0.97946 0.76921 0.67253 0.0
O972 O 0.02757 0.72118 0.72905 0.0
O973 O 0.03288 0.72724 0.77974 0.0
O974 O 0.02649 0.79387 0.81148 0.0
O975 O 0.02734 0.78433 0.72114 0.0
O976 O 0.02788 0.74918 0.70097 0.0
O977 O 0.02898 0.75306 0.82848 0.0
O978 O 0.97841 0.80081 0.77418 0.0
O979 O 0.9734 0.79549 0.72301 0.0
C980 C 0.96913 0.7538 0.80266 0.0
C981 C 0.99681 0.73877 0.63375 0.0
C982 C 0.00994 0.70788 0.5944 0.0
C983 C 0.03329 0.71395 0.58184 0.0
C984 C 0.02006 0.745 0.6208 0.0
C985 C 0.0381 0.73276 0.59471 0.0
C986 C 0.99161 0.72072 0.6199 0.0
C987 C 0.03955 0.71285 0.75555 0.0
C988 C 0.97938 0.74778 0.66436 0.0
C989 C 0.89353 0.72734 0.78503 0.0
C990 C 0.91109 0.70127 0.78817 0.0
C991 C 0.03764 0.76782 0.69943 0.0
C992 C 0.01379 0.78221 0.86912 0.0
C993 C 0.00105 0.8133 0.90853 0.0
C994 C 0.98859 0.79689 0.93198 0.0
C995 C 0.0013 0.76609 0.89279 0.0
C996 C 0.01312 0.80587 0.87698 0.0
C997 C 0.98857 0.77359 0.92397 0.0
C998 C 0.96638 0.80943 0.74777 0.0
C999 C 0.02873 0.77465 0.83658 0.0
H1000 H 0.04782 0.70403 0.56235 0.0
H1001 H 0.02465 0.75868 0.63136 0.0
H1002 H 0.05616 0.73735 0.58506 0.0
H1003 H 0.97399 0.71539 0.63047 0.0
H1004 H 0.97942 0.80158 0.95679 0.0
H1005 H 0.0015 0.74772 0.88737 0.0
H1006 H 0.02229 0.81846 0.85826 0.0
H1007 H 0.97908 0.76106 0.94226 0.0
Eu1008 Eu 0.76137 0.52437 0.28776 0.0
C1009 C 0.73074 0.44148 0.25001 0.0
N1010 N 0.7511 0.44955 0.23189 0.0
C1011 C 0.77835 0.40477 0.22701 0.0
C1012 C 0.73398 0.41431 0.25864 0.0
C1013 C 0.77436 0.43187 0.21945 0.0
C1014 C 0.75817 0.39592 0.24699 0.0
C1015 C 0.6857 0.45241 0.28001 0.0
C1016 C 0.7069 0.46051 0.26076 0.0
C1017 C 0.68908 0.42533 0.28926 0.0
C1018 C 0.71312 0.40636 0.27857 0.0
Eu1019 Eu 0.74305 0.49539 0.22008 0.0
N1020 N 0.70419 0.48674 0.25169 0.0
C1021 C 0.66144 0.47176 0.28876 0.0
C1022 C 0.67976 0.50544 0.25753 0.0
C1023 C 0.65833 0.49834 0.27687 0.0
H1024 H 0.78977 0.43876 0.20366 0.0
H1025 H 0.63922 0.51338 0.28192 0.0
H1026 H 0.70955 0.57364 0.31852 0.0
H1027 H 0.85971 0.52567 0.22106 0.0
H1028 H 0.676 0.52579 0.24636 0.0
H1029 H 0.6447 0.46635 0.3035 0.0
H1030 H 0.82533 0.50601 0.24529 0.0
H1031 H 0.79695 0.39074 0.21744 0.0
H1032 H 0.67303 0.41886 0.30425 0.0
H1033 H 0.7153 0.38556 0.28565 0.0
H1034 H 0.69844 0.62032 0.32363 0.0
H1035 H 0.76138 0.37488 0.253 0.0
H1036 H 0.85183 0.57199 0.22538 0.0
N1037 N 0.74839 0.5696 0.29214 0.0
C1038 C 0.76746 0.58102 0.28097 0.0
C1039 C 0.71782 0.60962 0.31122 0.0
C1040 C 0.76206 0.60765 0.28379 0.0
C1041 C 0.72399 0.58329 0.30769 0.0
C1042 C 0.73689 0.6219 0.29909 0.0
N1043 N 0.79672 0.54095 0.26221 0.0
C1044 C 0.82084 0.52632 0.24694 0.0
C1045 C 0.81192 0.5783 0.25236 0.0
C1046 C 0.79227 0.56636 0.26564 0.0
C1047 C 0.83631 0.56349 0.236 0.0
C1048 C 0.84078 0.53739 0.23336 0.0
H1049 H 0.73203 0.64234 0.30181 0.0
H1050 H 0.77791 0.63972 0.273 0.0
H1051 H 0.82145 0.61412 0.24528 0.0
O1052 O 0.78872 0.50954 0.32494 0.0
O1053 O 0.76117 0.55067 0.23658 0.0
O1054 O 0.75448 0.53199 0.19594 0.0
O1055 O 0.74664 0.53076 0.33924 0.0
O1056 O 0.79225 0.48553 0.27214 0.0
O1057 O 0.78787 0.48361 0.21858 0.0
O1058 O 0.71796 0.49542 0.18657 0.0
O1059 O 0.75544 0.46841 0.26798 0.0
O1060 O 0.737 0.49674 0.30557 0.0
O1061 O 0.76003 0.48565 0.16965 0.0
O1062 O 0.71509 0.53685 0.2303 0.0
O1063 O 0.7173 0.53881 0.28439 0.0
C1064 C 0.75959 0.55064 0.20543 0.0
C1065 C 0.77245 0.51687 0.38353 0.0
C1066 C 0.79664 0.51835 0.42505 0.0
C1067 C 0.77414 0.51867 0.44968 0.0
C1068 C 0.75056 0.51683 0.40877 0.0
C1069 C 0.75151 0.51756 0.44162 0.0
C1070 C 0.79564 0.51713 0.39182 0.0
C1071 C 0.80133 0.47536 0.24386 0.0
C1072 C 0.76966 0.51955 0.34841 0.0
C1073 C 0.78175 0.61931 0.27106 0.0
C1074 C 0.80656 0.60472 0.25532 0.0
C1075 C 0.74561 0.47263 0.29876 0.0
C1076 C 0.73193 0.50247 0.12795 0.0
C1077 C 0.70706 0.50916 0.08302 0.0
C1078 C 0.72323 0.52302 0.06179 0.0
C1079 C 0.74764 0.51645 0.10637 0.0
C1080 C 0.71146 0.49941 0.11638 0.0
C1081 C 0.7431 0.52684 0.07356 0.0
C1082 C 0.70604 0.54844 0.25735 0.0
C1083 C 0.73729 0.48924 0.16189 0.0
H1084 H 0.77359 0.52044 0.47521 0.0
H1085 H 0.73246 0.51673 0.40298 0.0
H1086 H 0.73438 0.5179 0.46082 0.0
H1087 H 0.8125 0.51704 0.37224 0.0
H1088 H 0.72103 0.53053 0.03587 0.0
H1089 H 0.76357 0.51906 0.11466 0.0
H1090 H 0.69908 0.48919 0.1337 0.0
H1091 H 0.75539 0.53747 0.05692 0.0
Eu1092 Eu 0.74563 0.74826 0.96353 0.0
C1093 C 0.76605 0.75318 0.1103 0.0
N1094 N 0.74757 0.77028 0.09171 0.0
C1095 C 0.71627 0.7803 0.14178 0.0
C1096 C 0.75983 0.74818 0.14554 0.0
C1097 C 0.72335 0.78475 0.10699 0.0
C1098 C 0.73445 0.76165 0.16112 0.0
C1099 C 0.81135 0.72415 0.11312 0.0
C1100 C 0.79163 0.74142 0.09428 0.0
C1101 C 0.80493 0.7185 0.14805 0.0
C1102 C 0.77926 0.73047 0.16421 0.0
Eu1103 Eu 0.76192 0.77643 0.03309 0.0
N1104 N 0.79732 0.74688 0.06036 0.0
C1105 C 0.83704 0.71317 0.09631 0.0
C1106 C 0.82261 0.73707 0.04401 0.0
C1107 C 0.84273 0.71987 0.06165 0.0
H1108 H 0.70929 0.79971 0.09235 0.0
H1109 H 0.86266 0.71193 0.0485 0.0
H1110 H 0.79755 0.73258 0.9035 0.0
H1111 H 0.65086 0.83115 0.9589 0.0
H1112 H 0.8275 0.74252 0.01742 0.0
H1113 H 0.8527 0.69985 0.10991 0.0
H1114 H 0.6846 0.79566 0.9864 0.0
H1115 H 0.69684 0.79139 0.15366 0.0
H1116 H 0.81978 0.70515 0.16286 0.0
H1117 H 0.77474 0.72626 0.19125 0.0
H1118 H 0.80951 0.74538 0.84254 0.0
H1119 H 0.72894 0.75834 0.18811 0.0
H1120 H 0.65804 0.84335 0.89744 0.0
N1121 N 0.75878 0.76064 0.90623 0.0
C1122 C 0.74019 0.77968 0.88945 0.0
C1123 C 0.79 0.75525 0.85542 0.0
C1124 C 0.7461 0.78754 0.85462 0.0
C1125 C 0.78329 0.74821 0.88993 0.0
C1126 C 0.77131 0.77499 0.83766 0.0
N1127 N 0.71094 0.78511 0.94135 0.0
C1128 C 0.68816 0.79936 0.95969 0.0
C1129 C 0.69675 0.81339 0.89065 0.0
C1130 C 0.71566 0.7923 0.90742 0.0
C1131 C 0.67299 0.82702 0.90939 0.0
C1132 C 0.66885 0.82017 0.94406 0.0
H1133 H 0.77658 0.78049 0.81092 0.0
H1134 H 0.73111 0.81415 0.81115 0.0
H1135 H 0.68799 0.83686 0.84267 0.0
O1136 O 0.7239 0.73028 0.94426 0.0
O1137 O 0.75617 0.78557 0.9465 0.0
O1138 O 0.73712 0.80404 0.99349 0.0
O1139 O 0.76557 0.71031 0.94606 0.0
O1140 O 0.71178 0.75441 0.00839 0.0
O1141 O 0.72074 0.77386 0.04669 0.0
O1142 O 0.7885 0.79647 0.03555 0.0
O1143 O 0.77356 0.73119 0.04094 0.0
O1144 O 0.74544 0.72306 0.0148 0.0
O1145 O 0.74632 0.81533 0.0487 0.0
O1146 O 0.7915 0.77227 0.98499 0.0
O1147 O 0.78941 0.73641 0.96788 0.0
C1148 C 0.74633 0.80652 0.9612 0.0
C1149 C 0.73869 0.68348 0.95866 0.0
C1150 C 0.7079 0.65921 0.9838 0.0
C1151 C 0.72941 0.63666 0.99242 0.0
C1152 C 0.75985 0.66048 0.96688 0.0
C1153 C 0.75514 0.63736 0.98397 0.0
C1154 C 0.71275 0.68265 0.96713 0.0
C1155 C 0.70555 0.76461 0.03639 0.0
C1156 C 0.74377 0.70827 0.94192 0.0
C1157 C 0.72694 0.8079 0.8379 0.0
C1158 C 0.70236 0.8208 0.85586 0.0
C1159 C 0.7606 0.71626 0.03767 0.0
C1160 C 0.77195 0.84306 0.02277 0.0
C1161 C 0.80076 0.86902 0.99562 0.0
C1162 C 0.77815 0.89168 0.99174 0.0
C1163 C 0.74973 0.86603 0.01978 0.0
C1164 C 0.7972 0.84455 0.00919 0.0
C1165 C 0.75285 0.89001 0.0033 0.0
C1166 C 0.80187 0.75291 0.96715 0.0
C1167 C 0.76947 0.81804 0.04267 0.0
H1168 H 0.72654 0.61811 0.00459 0.0
H1169 H 0.78006 0.66039 0.96045 0.0
H1170 H 0.77154 0.61979 0.99034 0.0
H1171 H 0.69632 0.70021 0.96069 0.0
H1172 H 0.77977 0.91105 0.98176 0.0
H1173 H 0.72999 0.86555 0.03037 0.0
H1174 H 0.81427 0.82673 0.01119 0.0
H1175 H 0.73564 0.90765 1.00095 0.0
Eu1176 Eu 0.48833 0.99654 0.54961 0.0
C1177 C 0.49077 0.04146 0.39369 0.0
N1178 N 0.50902 0.02077 0.40924 0.0
C1179 C 0.51517 0.99479 0.36728 0.0
C1180 C 0.48351 0.03922 0.36448 0.0
C1181 C 0.52175 0.99792 0.39615 0.0
C1182 C 0.49586 0.01547 0.35146 0.0
C1183 C 0.45981 0.08642 0.39173 0.0
C1184 C 0.47914 0.0649 0.40719 0.0
C1185 C 0.45248 0.08416 0.36273 0.0
C1186 C 0.46432 0.06067 0.34912 0.0
Eu1187 Eu 0.51958 0.02819 0.45669 0.0
N1188 N 0.48657 0.06662 0.4354 0.0
C1189 C 0.44841 0.10968 0.40579 0.0
C1190 C 0.47583 0.08951 0.44876 0.0
C1191 C 0.45651 0.11123 0.43434 0.0
H1192 H 0.5372 0.98218 0.4078 0.0
H1193 H 0.448 0.12926 0.44515 0.0
H1194 H 0.45852 0.03645 0.60775 0.0
H1195 H 0.56016 0.89643 0.56171 0.0
H1196 H 0.48206 0.09158 0.47027 0.0
H1197 H 0.43349 0.12661 0.39466 0.0
H1198 H 0.52744 0.93537 0.53496 0.0
H1199 H 0.52512 0.97652 0.35711 0.0
H1200 H 0.43771 0.10054 0.35054 0.0
H1201 H 0.45851 0.05932 0.32665 0.0
H1202 H 0.46371 0.0393 0.66402 0.0
H1203 H 0.49085 0.01302 0.32902 0.0
H1204 H 0.57003 0.89695 0.61648 0.0
N1205 N 0.49127 1.00094 0.60352 0.0
C1206 C 0.50933 0.98043 0.61955 0.0
C1207 C 0.4769 0.02279 0.65165 0.0
C1208 C 0.5126 0.9809 0.652 0.0
C1209 C 0.47425 0.02131 0.61963 0.0
C1210 C 0.49641 1.00267 0.66774 0.0
N1211 N 0.52007 0.9583 0.57306 0.0
C1212 C 0.53199 0.93601 0.55845 0.0
C1213 C 0.54235 0.93651 0.62042 0.0
C1214 C 0.52403 0.95845 0.60399 0.0
C1215 C 0.55584 0.91421 0.60464 0.0
C1216 C 0.55038 0.91384 0.5737 0.0
H1217 H 0.49831 1.00376 0.69264 0.0
H1218 H 0.53429 0.95951 0.69283 0.0
H1219 H 0.56033 0.92068 0.66517 0.0
O1220 O 0.47166 0.96491 0.56397 0.0
O1221 O 0.53304 0.98666 0.53739 0.0
O1222 O 0.54086 0.02193 0.49943 0.0
O1223 O 0.44887 1.00266 0.57973 0.0
O1224 O 0.4938 0.97803 0.5044 0.0
O1225 O 0.53165 0.98349 0.47108 0.0
O1226 O 0.53859 0.05546 0.42428 0.0
O1227 O 0.48066 0.02175 0.46224 0.0
O1228 O 0.4638 0.03067 0.51522 0.0
O1229 O 0.55903 0.01319 0.42782 0.0
O1230 O 0.50906 0.05271 0.49812 0.0
O1231 O 0.4873 0.03796 0.55034 0.0
C1232 C 0.54692 1.00249 0.52431 0.0
C1233 C 0.42566 0.97794 0.56778 0.0
C1234 C 0.40639 0.95338 0.54577 0.0
C1235 C 0.38287 0.97514 0.54533 0.0
C1236 C 0.40201 0.99965 0.56719 0.0
C1237 C 0.38072 0.99816 0.55604 0.0
C1238 C 0.42746 0.95461 0.55764 0.0
C1239 C 0.51447 0.9709 0.48113 0.0
C1240 C 0.44882 0.97941 0.57794 0.0
C1241 C 0.53141 0.95942 0.668 0.0
C1242 C 0.54623 0.93729 0.65226 0.0
C1243 C 0.4604 0.02841 0.48601 0.0
C1244 C 0.58476 0.03969 0.42524 0.0
C1245 C 0.60555 0.06169 0.45004 0.0
C1246 C 0.6302 0.04243 0.44128 0.0
C1247 C 0.60966 0.02108 0.41643 0.0
C1248 C 0.58278 0.05993 0.44225 0.0
C1249 C 0.63216 0.02234 0.42469 0.0
C1250 C 0.49736 0.05515 0.52945 0.0
C1251 C 0.56112 0.03669 0.41807 0.0
H1252 H 0.36612 0.97419 0.53697 0.0
H1253 H 0.40004 0.01782 0.57499 0.0
H1254 H 0.36258 0.01493 0.55551 0.0
H1255 H 0.44538 0.9375 0.5584 0.0
H1256 H 0.64825 0.04335 0.44613 0.0
H1257 H 0.61165 1.0053 0.40351 0.0
H1258 H 0.56361 0.07423 0.44951 0.0
H1259 H 0.65128 0.00783 0.41786 0.0
Eu1260 Eu 0.4879 0.4928 0.06 0.0
C1261 C 0.49578 0.53755 0.89674 0.0
N1262 N 0.51397 0.51736 0.91301 0.0
C1263 C 0.52714 0.49387 0.86647 0.0
C1264 C 0.49209 0.53625 0.86484 0.0
C1265 C 0.53028 0.49617 0.89788 0.0
C1266 C 0.50777 0.51387 0.85001 0.0
C1267 C 0.46297 0.58165 0.89468 0.0
C1268 C 0.48134 0.56002 0.91147 0.0
C1269 C 0.45884 0.58013 0.8633 0.0
C1270 C 0.47333 0.55749 0.84844 0.0
Eu1271 Eu 0.51805 0.52361 0.96552 0.0
N1272 N 0.48541 0.56087 0.94208 0.0
C1273 C 0.44958 0.60435 0.90971 0.0
C1274 C 0.47359 0.58354 0.95593 0.0
C1275 C 0.45515 0.6054 0.94029 0.0
H1276 H 0.54613 0.48126 0.90972 0.0
H1277 H 0.4454 0.62311 0.9517 0.0
H1278 H 0.46954 0.54055 0.10671 0.0
H1279 H 0.5603 0.39255 0.07436 0.0
H1280 H 0.47822 0.58464 0.97919 0.0
H1281 H 0.43534 0.62138 0.89758 0.0
H1282 H 0.52634 0.42965 0.04789 0.0
H1283 H 0.53991 0.47687 0.85476 0.0
H1284 H 0.44472 0.5965 0.8501 0.0
H1285 H 0.47019 0.55679 0.82398 0.0
H1286 H 0.4812 0.54775 0.15675 0.0
H1287 H 0.50555 0.51216 0.82553 0.0
H1288 H 0.57394 0.39653 0.12481 0.0
N1289 N 0.49795 0.50197 0.1066 0.0
C1290 C 0.51598 0.48165 0.12295 0.0
C1291 C 0.49129 0.52918 0.14733 0.0
C1292 C 0.52293 0.48474 0.15191 0.0
C1293 C 0.48501 0.5252 0.11875 0.0
C1294 C 0.51045 0.50891 0.16388 0.0
N1295 N 0.52111 0.45533 0.08212 0.0
C1296 C 0.53225 0.43216 0.06942 0.0
C1297 C 0.54725 0.43675 0.12644 0.0
C1298 C 0.52797 0.4578 0.11032 0.0
C1299 C 0.55906 0.41315 0.11314 0.0
C1300 C 0.55147 0.41084 0.08459 0.0
H1301 H 0.51524 0.51203 0.18607 0.0
H1302 H 0.54765 0.46575 0.19022 0.0
H1303 H 0.56895 0.42384 0.16792 0.0
O1304 O 0.47036 0.4649 0.09362 0.0
O1305 O 0.52735 0.49842 0.05264 0.0
O1306 O 0.54429 0.4903 0.99898 0.0
O1307 O 0.44839 0.50693 0.08914 0.0
O1308 O 0.49798 0.46793 0.01935 0.0
O1309 O 0.52242 0.48045 0.96808 0.0
O1310 O 0.53402 0.55558 0.95575 0.0
O1311 O 0.47331 0.53325 0.97877 0.0
O1312 O 0.46707 0.49769 0.01743 0.0
O1313 O 0.55469 0.52204 0.92992 0.0
O1314 O 0.51359 0.54181 0.0103 0.0
O1315 O 0.47574 0.53735 0.04455 0.0
C1316 C 0.54752 0.49246 0.02841 0.0
C1317 C 0.42423 0.47845 0.0943 0.0
C1318 C 0.40461 0.45641 0.06822 0.0
C1319 C 0.37951 0.47436 0.07812 0.0
C1320 C 0.39889 0.49591 0.10435 0.0
C1321 C 0.37668 0.49387 0.09624 0.0
C1322 C 0.42698 0.45828 0.07662 0.0
C1323 C 0.51094 0.46427 0.98883 0.0
C1324 C 0.44744 0.48306 0.10006 0.0
C1325 C 0.54207 0.46373 0.16795 0.0
C1326 C 0.5542 0.43984 0.15525 0.0
C1327 C 0.45941 0.51773 0.99379 0.0
C1328 C 0.5802 0.54526 0.94074 0.0
C1329 C 0.60397 0.5674 0.9596 0.0
C1330 C 0.62797 0.54825 0.94895 0.0
C1331 C 0.60449 0.52669 0.92935 0.0
C1332 C 0.58014 0.56589 0.95551 0.0
C1333 C 0.62819 0.528 0.93393 0.0
C1334 C 0.49322 0.54954 0.03362 0.0
C1335 C 0.55506 0.54416 0.93567 0.0
H1336 H 0.36201 0.4731 0.07203 0.0
H1337 H 0.39635 0.51155 0.11783 0.0
H1338 H 0.35724 0.50759 0.10378 0.0
H1339 H 0.44633 0.44452 0.06875 0.0
H1340 H 0.64658 0.54938 0.95153 0.0
H1341 H 0.60517 0.51099 0.91724 0.0
H1342 H 0.56171 0.58104 0.96328 0.0
H1343 H 0.64681 0.51347 0.92544 0.0
H1344 H 0.96467 0.10949 1.00033 0.0
H1345 H 0.0408 0.15317 0.10055 0.0
H1346 H 0.9934 0.06018 0.08922 0.0
H1347 H 0.97369 0.21118 0.05919 0.0
H1348 H 0.02791 0.11792 0.09016 0.0
H1349 H 0.96959 0.14725 0.01682 0.0
C1350 C 0.97184 0.10674 0.02343 0.0
C1351 C 0.9798 0.08164 0.04277 0.0
C1352 C 0.01603 0.13838 0.08338 0.0
C1353 C 0.98583 0.12416 0.06139 0.0
C1354 C 0.02357 0.15841 0.08884 0.0
C1355 C 0.00839 0.18497 0.08034 0.0
C1356 C 0.99347 0.14504 0.06873 0.0
C1357 C 0.98594 0.19085 0.06582 0.0
C1358 C 0.97458 0.1282 0.03284 0.0
C1359 C 0.98801 0.07912 0.07309 0.0
N1360 N 0.97927 0.17101 0.06011 0.0
N1361 N 0.99155 0.09998 0.0811 0.0
H1362 H 0.85177 0.23358 0.47913 0.0
H1363 H 0.91247 0.27988 0.29102 0.0
H1364 H 0.80657 0.2664 0.39826 0.0
H1365 H 0.96249 0.22525 0.36029 0.0
H1366 H 0.87367 0.27796 0.33215 0.0
H1367 H 0.89223 0.23292 0.43856 0.0
C1368 C 0.85028 0.24042 0.45287 0.0
C1369 C 0.82549 0.24984 0.44227 0.0
C1370 C 0.89306 0.26626 0.3385 0.0
C1371 C 0.87199 0.2495 0.39562 0.0
C1372 C 0.9154 0.26719 0.3148 0.0
C1373 C 0.94104 0.2521 0.32158 0.0
C1374 C 0.89596 0.25062 0.37003 0.0
C1375 C 0.94322 0.237 0.35367 0.0
C1376 C 0.87347 0.24003 0.42971 0.0
C1377 C 0.82504 0.25866 0.40783 0.0
N1378 N 0.92101 0.23665 0.3767 0.0
N1379 N 0.84777 0.25841 0.38596 0.0
H1380 H 0.80217 0.05595 0.65611 0.0
H1381 H 0.72365 0.20204 0.57727 0.0
H1382 H 0.73065 0.10448 0.71025 0.0
H1383 H 0.80893 0.17392 0.56003 0.0
H1384 H 0.72414 0.16265 0.61921 0.0
H1385 H 0.80359 0.09526 0.61392 0.0
C1386 C 0.78667 0.07477 0.65894 0.0
C1387 C 0.76615 0.07688 0.68659 0.0
C1388 C 0.74275 0.16504 0.60618 0.0
C1389 C 0.76748 0.1217 0.63834 0.0
C1390 C 0.74252 0.18742 0.58204 0.0
C1391 C 0.76632 0.19125 0.56491 0.0
C1392 C 0.76695 0.1458 0.61281 0.0
C1393 C 0.79015 0.17175 0.5726 0.0
C1394 C 0.78761 0.09719 0.63506 0.0
C1395 C 0.74679 0.1019 0.68929 0.0
N1396 N 0.78988 0.14972 0.59572 0.0
N1397 N 0.74774 0.12318 0.66535 0.0
H1398 H 0.96346 0.9826 0.97334 0.0
H1399 H 0.81871 0.05201 0.92661 0.0
H1400 H 0.92122 0.06566 0.97383 0.0
H1401 H 0.85691 0.96739 0.94606 0.0
H1402 H 0.85534 0.05786 0.94412 0.0
H1403 H 0.92414 0.97689 0.96457 0.0
C1404 C 0.94567 0.99955 0.97267 0.0
C1405 C 0.94533 0.02439 0.97599 0.0
C1406 C 0.85558 0.03803 0.94479 0.0
C1407 C 0.9002 0.01842 0.96359 0.0
C1408 C 0.83476 0.03465 0.93458 0.0
C1409 C 0.8347 0.00915 0.93467 0.0
C1410 C 0.8767 0.01576 0.95489 0.0
C1411 C 0.85589 0.98742 0.94579 0.0
C1412 C 0.92316 0.99635 0.96717 0.0
C1413 C 0.92201 0.04599 0.97253 0.0
N1414 N 0.87605 0.99124 0.95515 0.0
N1415 N 0.90035 0.04255 0.96642 0.0
H1416 H 0.03619 0.03708 0.06942 0.0
H1417 H 0.18847 0.98687 0.0729 0.0
H1418 H 0.08901 0.97805 0.00992 0.0
H1419 H 0.14032 0.06823 0.07884 0.0
H1420 H 0.15253 0.98069 0.05381 0.0
H1421 H 0.07389 0.04684 0.07732 0.0
C1422 C 0.05575 0.02633 0.05783 0.0
C1423 C 0.05945 1.00694 0.03884 0.0
C1424 C 0.15004 0.99996 0.05888 0.0
C1425 C 0.10296 0.01722 0.0487 0.0
C1426 C 0.17042 1.00345 0.06995 0.0
C1427 C 0.16733 0.02808 0.07755 0.0
C1428 C 0.12618 0.02105 0.05623 0.0
C1429 C 0.14359 0.04897 0.0731 0.0
C1430 C 0.07728 0.0319 0.06227 0.0
C1431 C 0.08535 0.99328 0.0246 0.0
N1432 N 0.12379 0.04487 0.06325 0.0
N1433 N 0.10624 0.99838 0.03025 0.0
H1434 H 0.96078 0.46994 0.47219 0.0
H1435 H 0.0339 0.34106 0.38507 0.0
H1436 H 0.04577 0.43424 0.45366 0.0
H1437 H 0.95527 0.35982 0.44288 0.0
H1438 H 0.03663 0.38214 0.395 0.0
H1439 H 0.95697 0.43683 0.44539 0.0
C1440 C 0.97868 0.45528 0.46205 0.0
C1441 C 0.00365 0.45449 0.46545 0.0
C1442 C 0.01872 0.37733 0.40515 0.0
C1443 C -0.00062 0.4167 0.4349 0.0
C1444 C 0.01712 0.35404 0.39947 0.0
C1445 C 0.99445 0.34705 0.4136 0.0
C1446 C 0.99734 0.39377 0.42463 0.0
C1447 C 0.97323 0.36439 0.43205 0.0
C1448 C 0.97646 0.43648 0.44675 0.0
C1449 C 0.02619 0.43548 0.45141 0.0
N1450 N 0.97522 0.38696 0.43713 0.0
N1451 N 0.02353 0.41703 0.43699 0.0
H1452 H 0.7054 0.24773 0.61161 0.0
H1453 H 0.54656 0.30682 0.65057 0.0
H1454 H 0.65971 0.30311 0.5383 0.0
H1455 H 0.59558 0.24367 0.71419 0.0
H1456 H 0.5867 0.30756 0.60938 0.0
H1457 H 0.66468 0.24841 0.65015 0.0
C1458 C 0.68678 0.26024 0.6036 0.0
C1459 C 0.68615 0.27558 0.5716 0.0
C1460 C 0.58857 0.2936 0.63244 0.0
C1461 C 0.6388 0.27612 0.61596 0.0
C1462 C 0.56566 0.29313 0.65589 0.0
C1463 C 0.56764 0.27546 0.68624 0.0
C1464 C 0.61359 0.27628 0.63942 0.0
C1465 C 0.59297 0.25812 0.69167 0.0
C1466 C 0.66338 0.26047 0.62568 0.0
C1467 C 0.6612 0.29097 0.56269 0.0
N1468 N 0.61476 0.25907 0.66874 0.0
N1469 N 0.63853 0.2909 0.58474 0.0
H1470 H 0.76277 0.92599 0.79046 0.0
H1471 H 0.72156 0.85737 0.97718 0.0
H1472 H 0.73263 0.97027 0.87272 0.0
H1473 H 0.76911 0.81543 0.89597 0.0
H1474 H 0.72194 0.89941 0.94038 0.0
H1475 H 0.76088 0.88622 0.82915 0.0
C1476 C 0.75549 0.92753 0.81667 0.0
C1477 C 0.74767 0.95187 0.82806 0.0
C1478 C 0.7323 0.88094 0.93077 0.0
C1479 C 0.74585 0.90549 0.87332 0.0
C1480 C 0.73222 0.85693 0.95184 0.0
C1481 C 0.74554 0.83266 0.93999 0.0
C1482 C 0.7454 0.8807 0.89737 0.0
C1483 C 0.75847 0.83346 0.90651 0.0
C1484 C 0.75464 0.90456 0.83895 0.0
C1485 C 0.73896 0.95205 0.86269 0.0
N1486 N 0.75797 0.85689 0.88659 0.0
N1487 N 0.73822 0.92928 0.88406 0.0
H1488 H 0.18404 0.23352 0.05685 0.0
H1489 H 0.05991 0.30882 0.18616 0.0
H1490 H 0.17236 0.31079 0.07683 0.0
H1491 H 0.07415 0.23151 0.16444 0.0
H1492 H 0.10077 0.31027 0.14744 0.0
H1493 H 0.14368 0.23309 0.09612 0.0
C1494 C 0.17305 0.25049 0.06945 0.0
C1495 C 0.18207 0.27215 0.06346 0.0
C1496 C 0.095 0.29294 0.15125 0.0
C1497 C 0.1352 0.27168 0.10928 0.0
C1498 C 0.07176 0.29199 0.17374 0.0
C1499 C 0.06365 0.26978 0.17943 0.0
C1500 C 0.11027 0.27163 0.13384 0.0
C1501 C 0.07946 0.24903 0.16131 0.0
C1502 C 0.14989 0.25016 0.09211 0.0
C1503 C 0.16666 0.29342 0.08091 0.0
N1504 N 0.1018 0.25047 0.13957 0.0
N1505 N 0.14412 0.29263 0.10294 0.0
H1506 H 0.7797 0.42196 0.2986 0.0
H1507 H 0.70463 0.35416 0.46014 0.0
H1508 H 0.71242 0.46967 0.35979 0.0
H1509 H 0.78915 0.3229 0.43057 0.0
H1510 H 0.70369 0.39428 0.4186 0.0
H1511 H 0.78007 0.3831 0.3414 0.0
C1512 C 0.76498 0.42431 0.32109 0.0
C1513 C 0.74608 0.44928 0.32563 0.0
C1514 C 0.72242 0.37864 0.42131 0.0
C1515 C 0.7462 0.40445 0.37472 0.0
C1516 C 0.72296 0.35571 0.44486 0.0
C1517 C 0.74701 0.33514 0.44888 0.0
C1518 C 0.74601 0.38078 0.40097 0.0
C1519 C 0.77019 0.33831 0.42849 0.0
C1520 C 0.76529 0.40207 0.34557 0.0
C1521 C 0.72751 0.45094 0.35536 0.0
N1522 N 0.76908 0.36047 0.40523 0.0
N1523 N 0.72786 0.42881 0.37861 0.0
H1524 H 0.55445 0.98998 0.58977 0.0
H1525 H 0.70236 0.99289 0.54353 0.0
H1526 H 0.59304 0.0081 0.48936 0.0
H1527 H 0.66172 0.98411 0.6452 0.0
H1528 H 0.66219 0.99846 0.52348 0.0
H1529 H 0.59349 0.98643 0.61105 0.0
C1530 C 0.57133 0.99264 0.57217 0.0
C1531 C 0.57073 0.99876 0.53774 0.0
C1532 C 0.66193 0.99541 0.55019 0.0
C1533 C 0.61517 0.99576 0.56174 0.0
C1534 C 0.68486 0.99221 0.56161 0.0
C1535 C 0.68531 0.98787 0.59603 0.0
C1536 C 0.63929 0.99395 0.57336 0.0
C1537 C 0.66207 0.98748 0.61845 0.0
C1538 C 0.59347 0.9911 0.58432 0.0
C1539 C 0.59274 1.00334 0.51607 0.0
N1540 N 0.64 0.99022 0.60672 0.0
N1541 N 0.61408 1.00167 0.52838 0.0
H1542 H 0.9958 0.92765 0.01956 0.0
H1543 H 0.04116 0.8347 0.88638 0.0
H1544 H 0.03162 0.95398 0.92009 0.0
H1545 H 0.96487 0.84735 0.95039 0.0
H1546 H 0.04383 0.87363 0.90139 0.0
H1547 H 0.99133 0.89223 0.9988 0.0
C1548 C 0.00313 0.92597 0.99337 0.0
C1549 C 0.01436 0.94412 0.97159 0.0
C1550 C 0.02647 0.86789 0.91183 0.0
C1551 C 0.00919 0.90304 0.94792 0.0
C1552 C 0.02471 0.84573 0.90317 0.0
C1553 C 0.00263 0.83746 0.91704 0.0
C1554 C 0.00651 0.88144 0.93537 0.0
C1555 C 0.98255 0.85239 0.93956 0.0
C1556 C 0.00027 0.90576 0.9816 0.0
C1557 C 0.02333 0.94046 0.93798 0.0
N1558 N 0.98515 0.87343 0.94839 0.0
N1559 N 0.0207 0.92019 0.92714 0.0
H1560 H 0.08413 0.1428 0.93263 0.0
H1561 H 0.18894 0.12158 0.04684 0.0
H1562 H 0.1261 0.06774 0.9871 0.0
H1563 H 0.16738 0.18578 0.96513 0.0
H1564 H 0.15157 0.10912 0.04327 0.0
H1565 H 0.10075 0.16503 0.9626 0.0
C1566 C 0.0967 0.13102 0.95099 0.0
C1567 C 0.10443 0.10334 0.95658 0.0
C1568 C 0.15484 0.12633 0.02684 0.0
C1569 C 0.123 0.12861 0.99129 0.0
C1570 C 0.17627 0.13335 0.02861 0.0
C1571 C 0.18224 0.15412 0.00535 0.0
C1572 C 0.13932 0.14027 1.00186 0.0
C1573 C 0.16416 0.16944 0.98351 0.0
C1574 C 0.10585 0.14373 0.9684 0.0
C1575 C 0.11987 0.08911 0.98166 0.0
N1576 N 0.14388 0.16187 0.98191 0.0
N1577 N 0.12905 0.10188 0.99768 0.0
H1578 H 0.68249 0.58102 0.20399 0.0
H1579 H 0.56407 0.68122 0.31465 0.0
H1580 H 0.67108 0.57009 0.31167 0.0
H1581 H 0.57002 0.68694 0.20827 0.0
H1582 H 0.60389 0.64171 0.31378 0.0
H1583 H 0.64219 0.62006 0.20482 0.0
C1584 C 0.67167 0.5868 0.22788 0.0
C1585 C 0.68088 0.57222 0.25779 0.0
C1586 C 0.59651 0.65155 0.29059 0.0
C1587 C 0.63419 0.61758 0.25889 0.0
C1588 C 0.57373 0.67435 0.29103 0.0
C1589 C 0.56347 0.68791 0.26147 0.0
C1590 C 0.60948 0.64188 0.26033 0.0
C1591 C 0.57691 0.67736 0.23181 0.0
C1592 C 0.64856 0.60926 0.2283 0.0
C1593 C 0.66556 0.58094 0.28785 0.0
N1594 N 0.59907 0.65523 0.232 0.0
N1595 N 0.64327 0.60293 0.28759 0.0
H1596 H 0.33489 0.88764 0.45917 0.0
H1597 H 0.40237 0.90891 0.58685 0.0
H1598 H 0.3402 0.84225 0.55839 0.0
H1599 H 0.41504 0.94175 0.48261 0.0
H1600 H 0.3913 0.87448 0.57202 0.0
H1601 H 0.37328 0.89886 0.46148 0.0
C1602 C 0.34435 0.87964 0.48117 0.0
C1603 C 0.33362 0.86477 0.50909 0.0
C1604 C 0.39681 0.88895 0.55213 0.0
C1605 C 0.37765 0.87721 0.51173 0.0
C1606 C 0.4032 0.9085 0.56071 0.0
C1607 C 0.40792 0.92886 0.53599 0.0
C1608 C 0.3942 0.89055 0.5188 0.0
C1609 C 0.40951 0.9273 0.50243 0.0
C1610 C 0.36648 0.88578 0.48231 0.0
C1611 C 0.34738 0.85403 0.53631 0.0
N1612 N 0.4017 0.90898 0.49475 0.0
N1613 N 0.36829 0.86091 0.53719 0.0
H1614 H 0.06873 0.68518 0.7039 0.0
H1615 H 0.17241 0.5719 0.81349 0.0
H1616 H 0.0632 0.68127 0.80986 0.0
H1617 H 0.17756 0.5765 0.70745 0.0
H1618 H 0.13244 0.61127 0.81295 0.0
H1619 H 0.10771 0.645 0.70514 0.0
C1620 C 0.07554 0.67586 0.72755 0.0
C1621 C 0.06248 0.68707 0.75678 0.0
C1622 C 0.14225 0.60366 0.78978 0.0
C1623 C 0.10777 0.64046 0.75836 0.0
C1624 C 0.16529 0.58113 0.79003 0.0
C1625 C 0.17886 0.57068 0.76044 0.0
C1626 C 0.13227 0.61604 0.75974 0.0
C1627 C 0.168 0.58355 0.73101 0.0
C1628 C 0.098 0.65283 0.72819 0.0
C1629 C 0.07256 0.67371 0.78657 0.0
N1630 N 0.14559 0.60538 0.73142 0.0
N1631 N 0.09451 0.65137 0.78654 0.0
H1632 H 0.83727 0.34959 0.53922 0.0
H1633 H 0.93546 0.4084 0.55177 0.0
H1634 H 0.91822 0.3103 0.4953 0.0
H1635 H 0.86401 0.45991 0.51358 0.0
H1636 H 0.93194 0.37187 0.53168 0.0
H1637 H 0.847 0.38976 0.53105 0.0
C1638 C 0.85697 0.34912 0.52709 0.0
C1639 C 0.8769 0.32568 0.51826 0.0
C1640 C 0.91745 0.3914 0.52703 0.0
C1641 C 0.88838 0.37235 0.51078 0.0
C1642 C 0.9194 0.41246 0.53845 0.0
C1643 C 0.89953 0.43752 0.53542 0.0
C1644 C 0.8952 0.39523 0.51332 0.0
C1645 C 0.87924 0.44097 0.51793 0.0
C1646 C 0.8625 0.37239 0.52271 0.0
C1647 C 0.90225 0.32722 0.50378 0.0
N1648 N 0.87717 0.41994 0.50845 0.0
N1649 N 0.90746 0.34993 0.50138 0.0
H1650 H 0.32791 0.94667 0.19129 0.0
H1651 H 0.43989 0.84159 0.29606 0.0
H1652 H 0.33045 0.95041 0.2927 0.0
H1653 H 0.43765 0.83861 0.19427 0.0
H1654 H 0.40062 0.88162 0.29504 0.0
H1655 H 0.36778 0.90733 0.19201 0.0
C1656 C 0.33662 0.93926 0.21383 0.0
C1657 C 0.32517 0.95206 0.2421 0.0
C1658 C 0.40865 0.8722 0.27291 0.0
C1659 C 0.37189 0.90674 0.24282 0.0
C1660 C 0.43128 0.84926 0.2734 0.0
C1661 C 0.4423 0.83615 0.2453 0.0
C1662 C 0.39657 0.88246 0.2441 0.0
C1663 C 0.42986 0.84743 0.21682 0.0
C1664 C 0.35967 0.91675 0.21413 0.0
C1665 C 0.33822 0.94148 0.27019 0.0
N1666 N 0.40782 0.86965 0.21702 0.0
N1667 N 0.36064 0.91963 0.26983 0.0
H1668 H 0.33602 0.45208 0.69134 0.0
H1669 H 0.43633 0.33749 0.80422 0.0
H1670 H 0.32708 0.44658 0.79818 0.0
H1671 H 0.45225 0.35097 0.69641 0.0
H1672 H 0.39598 0.37643 0.80269 0.0
H1673 H 0.37732 0.41413 0.69281 0.0
C1674 C 0.34256 0.44292 0.71516 0.0
C1675 C 0.32762 0.45279 0.74466 0.0
C1676 C 0.40829 0.37096 0.77931 0.0
C1677 C 0.37559 0.40896 0.74652 0.0
C1678 C 0.43154 0.34866 0.78016 0.0
C1679 C 0.44791 0.34045 0.75038 0.0
C1680 C 0.40095 0.38545 0.74843 0.0
C1681 C 0.4403 0.35611 0.72008 0.0
C1682 C 0.36636 0.42124 0.71595 0.0
C1683 C 0.3377 0.43998 0.77465 0.0
N1684 N 0.41745 0.3775 0.7199 0.0
N1685 N 0.36078 0.41889 0.77479 0.0
H1686 H 0.16857 0.81305 0.57027 0.0
H1687 H 0.07409 0.72839 0.6663 0.0
H1688 H 0.18155 0.73428 0.55432 0.0
H1689 H 0.05498 0.81043 0.67323 0.0
H1690 H 0.1139 0.73004 0.62617 0.0
H1691 H 0.12789 0.81219 0.60937 0.0
C1692 C 0.16293 0.79556 0.57494 0.0
C1693 C 0.17877 0.77366 0.55898 0.0
C1694 C 0.10109 0.74771 0.6365 0.0
C1695 C 0.13181 0.77265 0.60364 0.0
C1696 C 0.07825 0.7468 0.65942 0.0
C1697 C 0.0613 0.7692 0.67377 0.0
C1698 C 0.10723 0.77122 0.62762 0.0
C1699 C 0.06778 0.79249 0.66361 0.0
C1700 C 0.13958 0.79514 0.5972 0.0
C1701 C 0.17007 0.75172 0.56581 0.0
N1702 N 0.09023 0.79286 0.64139 0.0
N1703 N 0.14736 0.75176 0.5876 0.0
H1704 H 0.26737 0.92295 0.29144 0.0
H1705 H 0.2208 0.86058 0.47952 0.0
H1706 H 0.22442 0.97173 0.3678 0.0
H1707 H 0.26854 0.81563 0.40101 0.0
H1708 H 0.22081 0.90159 0.44041 0.0
H1709 H 0.26629 0.88392 0.33202 0.0
C1710 C 0.2575 0.92557 0.31678 0.0
C1711 C 0.24566 0.95093 0.32593 0.0
C1712 C 0.23121 0.88271 0.43182 0.0
C1713 C 0.24488 0.90552 0.37344 0.0
C1714 C 0.23132 0.85927 0.4542 0.0
C1715 C 0.24466 0.83447 0.44372 0.0
C1716 C 0.24441 0.88135 0.39862 0.0
C1717 C 0.25767 0.83412 0.41037 0.0
C1718 C 0.25707 0.90307 0.34016 0.0
C1719 C 0.23381 0.95266 0.35954 0.0
N1720 N 0.25716 0.85705 0.38922 0.0
N1721 N 0.23366 0.93028 0.38207 0.0
H1722 H 0.96747 0.71088 0.569 0.0
H1723 H 0.00548 0.5549 0.58786 0.0
H1724 H 0.04141 0.65627 0.59703 0.0
H1725 H 0.95936 0.60791 0.51372 0.0
H1726 H 0.01133 0.59277 0.60254 0.0
H1727 H 0.9579 0.67387 0.55745 0.0
C1728 C 0.98177 0.6911 0.57234 0.0
C1729 C 0.00537 0.6865 0.58355 0.0
C1730 C -0.00025 0.59609 0.58325 0.0
C1731 C 0.99421 0.6443 0.57165 0.0
C1732 C 0.9962 0.57461 0.5751 0.0
C1733 C 0.98253 0.57837 0.54897 0.0
C1734 C 0.98884 0.62152 0.56573 0.0
C1735 C 0.9707 0.60419 0.53332 0.0
C1736 C 0.97627 0.67009 0.56592 0.0
C1737 C 0.02319 0.66058 0.58793 0.0
N1738 N 0.97415 0.62489 0.54191 0.0
N1739 N 0.01713 0.64035 0.58226 0.0
H1740 H 0.34454 0.71088 0.4571 0.0
H1741 H 0.41305 0.78907 0.30201 0.0
H1742 H 0.31522 0.79607 0.43619 0.0
H1743 H 0.46165 0.72278 0.3627 0.0
H1744 H 0.37418 0.78818 0.34456 0.0
H1745 H 0.38506 0.71099 0.41642 0.0
C1746 C 0.34665 0.72956 0.44397 0.0
C1747 C 0.32658 0.75351 0.45017 0.0
C1748 C 0.39336 0.77391 0.34864 0.0
C1749 C 0.37243 0.75372 0.40328 0.0
C1750 C 0.41557 0.77434 0.32437 0.0
C1751 C 0.44074 0.7561 0.32894 0.0
C1752 C 0.39604 0.75465 0.37744 0.0
C1753 C 0.4427 0.73738 0.35837 0.0
C1754 C 0.36976 0.7296 0.42094 0.0
C1755 C 0.3303 0.77718 0.43243 0.0
N1756 N 0.4206 0.73694 0.38138 0.0
N1757 N 0.35257 0.77668 0.40954 0.0
H1758 H 0.28156 0.05277 0.13609 0.0
H1759 H 0.24292 0.21093 0.10928 0.0
H1760 H 0.23643 0.10237 0.21097 0.0
H1761 H 0.28395 0.16632 0.0284 0.0
H1762 H 0.24209 0.17026 0.14653 0.0
H1763 H 0.28345 0.09285 0.09568 0.0
C1764 C 0.27207 0.07196 0.14406 0.0
C1765 C 0.25914 0.07402 0.17722 0.0
C1766 C 0.25128 0.16918 0.12064 0.0
C1767 C 0.26141 0.11985 0.13131 0.0
C1768 C 0.25192 0.19255 0.09925 0.0
C1769 C 0.26359 0.19223 0.06544 0.0
C1770 C 0.26229 0.14494 0.10846 0.0
C1771 C 0.27456 0.16759 0.05414 0.0
C1772 C 0.27323 0.09482 0.12103 0.0
C1773 C 0.24716 0.0995 0.18603 0.0
N1774 N 0.27365 0.14494 0.07556 0.0
N1775 N 0.24869 0.12118 0.16342 0.0
H1776 H 0.82466 0.7914 0.94759 0.0
H1777 H 0.9523 0.71082 0.82844 0.0
H1778 H 0.83697 0.71256 0.93242 0.0
H1779 H 0.93214 0.79293 0.83572 0.0
H1780 H 0.9116 0.70986 0.86766 0.0
H1781 H 0.8652 0.79095 0.9087 0.0
C1782 C 0.83589 0.77385 0.93617 0.0
C1783 C 0.82712 0.75195 0.94345 0.0
C1784 C 0.91607 0.72809 0.86065 0.0
C1785 C 0.87418 0.75141 0.89821 0.0
C1786 C 0.93922 0.7287 0.83804 0.0
C1787 C 0.94547 0.75213 0.82812 0.0
C1788 C 0.89913 0.751 0.87398 0.0
C1789 C 0.92821 0.77443 0.84242 0.0
C1790 C 0.85913 0.7737 0.91372 0.0
C1791 C 0.84274 0.72997 0.92749 0.0
N1792 N 0.90594 0.77332 0.86444 0.0
N1793 N 0.86547 0.73025 0.90568 0.0
H1794 H 0.23137 0.60167 0.71068 0.0
H1795 H 0.28712 0.66701 0.52908 0.0
H1796 H 0.28489 0.55397 0.63751 0.0
H1797 H 0.23606 0.71031 0.60764 0.0
H1798 H 0.28629 0.62543 0.56626 0.0
H1799 H 0.23282 0.64127 0.67163 0.0
C1800 C 0.24359 0.59944 0.68632 0.0
C1801 C 0.2584 0.57424 0.67771 0.0
C1802 C 0.27535 0.64406 0.5753 0.0
C1803 C 0.25969 0.62027 0.63189 0.0
C1804 C 0.27572 0.66783 0.55404 0.0
C1805 C 0.26166 0.69231 0.56513 0.0
C1806 C 0.26084 0.64479 0.60793 0.0
C1807 C 0.24745 0.69205 0.5979 0.0
C1808 C 0.24428 0.62225 0.66382 0.0
C1809 C 0.27321 0.57294 0.64529 0.0
N1810 N 0.24744 0.66882 0.61796 0.0
N1811 N 0.27356 0.59564 0.62356 0.0
H1812 H 0.34583 0.96963 0.45347 0.0
H1813 H 0.41889 0.06894 0.46222 0.0
H1814 H 0.31973 0.0521 0.40935 0.0
H1815 H 0.446 0.98504 0.49646 0.0
H1816 H 0.3801 0.06497 0.44693 0.0
H1817 H 0.37942 0.97709 0.47437 0.0
C1818 C 0.34699 0.98937 0.44828 0.0
C1819 C 0.32971 0.01023 0.42946 0.0
C1820 C 0.39437 0.04749 0.45822 0.0
C1821 C 0.36955 0.01846 0.45258 0.0
C1822 C 0.41628 0.04981 0.46724 0.0
C1823 C 0.43514 0.02735 0.48153 0.0
C1824 C 0.39164 0.02245 0.46318 0.0
C1825 C 0.4316 1.00288 0.48625 0.0
C1826 C 0.36659 0.99348 0.45995 0.0
C1827 C 0.33283 0.03524 0.42322 0.0
N1828 N 0.4104 1.00106 0.47702 0.0
N1829 N 0.35243 0.03864 0.43461 0.0
H1830 H 0.82161 0.90578 0.95279 0.0
H1831 H 0.91743 0.88121 0.0808 0.0
H1832 H 0.84117 0.83813 0.03101 0.0
H1833 H 0.88069 0.95661 0.02269 0.0
H1834 H 0.90268 0.85965 0.0476 0.0
H1835 H 0.85733 0.91797 0.96226 0.0
C1836 C 0.83357 0.89316 0.97141 0.0
C1837 C 0.82723 0.87161 0.99219 0.0
C1838 C 0.89827 0.88088 0.04182 0.0
C1839 C 0.86844 0.88513 0.00247 0.0
C1840 C 0.90634 0.8932 0.06105 0.0
C1841 C 0.89971 0.92079 0.0551 0.0
C1842 C 0.88328 0.8963 0.0167 0.0
C1843 C 0.88612 0.93529 0.02836 0.0
C1844 C 0.85411 0.90005 0.97659 0.0
C1845 C 0.84455 0.85523 0.01456 0.0
N1846 N 0.87803 0.92291 0.01048 0.0
N1847 N 0.86393 0.86268 0.01957 0.0
H1848 H 0.67205 0.16325 0.49509 0.0
H1849 H 0.57394 0.11365 0.43691 0.0
H1850 H 0.61863 0.20906 0.42552 0.0
H1851 H 0.63444 0.0628 0.49533 0.0
H1852 H 0.58014 0.15201 0.44862 0.0
H1853 H 0.64942 0.13036 0.50994 0.0
C1854 C 0.65515 0.16668 0.48357 0.0
C1855 C 0.64756 0.18851 0.45846 0.0
C1856 C 0.59182 0.13246 0.4593 0.0
C1857 C 0.62174 0.1511 0.47509 0.0
C1858 C 0.58813 0.11043 0.45285 0.0
C1859 C 0.60441 0.08479 0.46403 0.0
C1860 C 0.61216 0.12891 0.47666 0.0
C1861 C 0.62226 0.08216 0.48486 0.0
C1862 C 0.64231 0.14789 0.49194 0.0
C1863 C 0.62549 0.19213 0.44441 0.0
N1864 N 0.62612 0.10391 0.48984 0.0
N1865 N 0.61361 0.17345 0.45255 0.0
H1866 H 0.83081 0.44772 0.29394 0.0
H1867 H 0.9396 0.33848 0.18672 0.0
H1868 H 0.83063 0.44915 0.18998 0.0
H1869 H 0.93997 0.34051 0.28955 0.0
H1870 H 0.90022 0.37864 0.18685 0.0
H1871 H 0.87086 0.40881 0.29211 0.0
C1872 C 0.83915 0.44003 0.27057 0.0
C1873 C 0.82688 0.45207 0.24208 0.0
C1874 C 0.90899 0.37035 0.20935 0.0
C1875 C 0.87341 0.40664 0.23992 0.0
C1876 C 0.93158 0.34731 0.20931 0.0
C1877 C 0.94344 0.33571 0.23817 0.0
C1878 C 0.89792 0.38219 0.23844 0.0
C1879 C 0.93186 0.34846 0.26656 0.0
C1880 C 0.86215 0.41758 0.26961 0.0
C1881 C 0.839 0.44068 0.21273 0.0
N1882 N 0.90994 0.37073 0.26596 0.0
N1883 N 0.86137 0.41872 0.21246 0.0
H1884 H 0.11085 0.56824 0.50445 0.0
H1885 H 0.16539 0.68638 0.46667 0.0
H1886 H 0.10848 0.62634 0.41512 0.0
H1887 H 0.18644 0.62027 0.54649 0.0
H1888 H 0.12903 0.67401 0.46307 0.0
H1889 H 0.12391 0.59535 0.5321 0.0
C1890 C 0.11264 0.58692 0.491 0.0
C1891 C 0.10939 0.59486 0.45733 0.0
C1892 C 0.14136 0.6624 0.48175 0.0
C1893 C 0.12415 0.62561 0.48841 0.0
C1894 C 0.16227 0.66964 0.48427 0.0
C1895 C 0.18018 0.65378 0.50614 0.0
C1896 C 0.13873 0.6386 0.50015 0.0
C1897 C 0.17425 0.63232 0.52788 0.0
C1898 C 0.12009 0.60228 0.50668 0.0
C1899 C 0.11158 0.61926 0.44085 0.0
N1900 N 0.15452 0.62481 0.5236 0.0
N1901 N 0.11916 0.63362 0.45643 0.0
H1902 H 0.6787 0.07966 0.81936 0.0
H1903 H 0.57063 0.18766 0.71089 0.0
H1904 H 0.6787 0.07848 0.71615 0.0
H1905 H 0.56688 0.18694 0.81571 0.0
H1906 H 0.60995 0.14783 0.71268 0.0
H1907 H 0.63831 0.11872 0.81874 0.0
C1908 C 0.67033 0.08747 0.79654 0.0
C1909 C 0.68256 0.0754 0.76776 0.0
C1910 C 0.60054 0.15628 0.73537 0.0
C1911 C 0.63566 0.12061 0.76694 0.0
C1912 C 0.57787 0.17914 0.73442 0.0
C1913 C 0.56502 0.19106 0.7632 0.0
C1914 C 0.61093 0.1449 0.76532 0.0
C1915 C 0.57587 0.17877 0.79277 0.0
C1916 C 0.64709 0.10987 0.79624 0.0
C1917 C 0.67025 0.08671 0.73912 0.0
N1918 N 0.59805 0.15663 0.79301 0.0
N1919 N 0.64777 0.10848 0.73946 0.0
H1920 H 0.76599 0.59585 0.21433 0.0
H1921 H 0.74313 0.67682 0.03267 0.0
H1922 H 0.7556 0.56099 0.1381 0.0
H1923 H 0.78046 0.69756 0.09729 0.0
H1924 H 0.74403 0.63612 0.07196 0.0
H1925 H 0.76769 0.63473 0.17347 0.0
C1926 C 0.76449 0.596 0.18899 0.0
C1927 C 0.76124 0.57446 0.17996 0.0
C1928 C 0.75216 0.64952 0.07747 0.0
C1929 C 0.76231 0.62002 0.13249 0.0
C1930 C 0.75173 0.67285 0.05496 0.0
C1931 C 0.76201 0.69087 0.06127 0.0
C1932 C 0.76244 0.6442 0.10714 0.0
C1933 C 0.77249 0.68449 0.091 0.0
C1934 C 0.7653 0.61849 0.16553 0.0
C1935 C 0.75845 0.57677 0.14647 0.0
N1936 N 0.77224 0.66191 0.11284 0.0
N1937 N 0.75892 0.5991 0.1241 0.0
H1938 H 0.94571 0.5369 0.42673 0.0
H1939 H 0.81553 0.49919 0.48493 0.0
H1940 H 0.90935 0.52605 0.53037 0.0
H1941 H 0.8324 0.5422 0.38631 0.0
H1942 H 0.85172 0.50611 0.50102 0.0
H1943 H 0.90655 0.53592 0.41022 0.0
C1944 C 0.92938 0.53472 0.44606 0.0
C1945 C 0.93088 0.53161 0.48009 0.0
C1946 C 0.84763 0.51373 0.47577 0.0
C1947 C 0.88626 0.52979 0.46122 0.0
C1948 C 0.82669 0.51011 0.46653 0.0
C1949 C 0.8204 0.52036 0.43415 0.0
C1950 C 0.86326 0.52674 0.45223 0.0
C1951 C 0.83652 0.5335 0.41136 0.0
C1952 C 0.90706 0.53407 0.43654 0.0
C1953 C 0.90913 0.52851 0.5039 0.0
N1954 N 0.85732 0.53613 0.42076 0.0
N1955 N 0.88786 0.52737 0.49404 0.0
H1956 H 0.19241 0.47939 0.57809 0.0
H1957 H 0.04319 0.54349 0.54466 0.0
H1958 H 0.1474 0.56243 0.57494 0.0
H1959 H 0.09171 0.46429 0.52879 0.0
H1960 H 0.08125 0.55061 0.55599 0.0
H1961 H 0.15614 0.47299 0.56034 0.0
C1962 C 0.17494 0.4963 0.57345 0.0
C1963 C 0.17294 0.52154 0.57781 0.0
C1964 C 0.08375 0.53167 0.54989 0.0
C1965 C 0.13133 0.51434 0.55774 0.0
C1966 C 0.06191 0.52757 0.54376 0.0
C1967 C 0.06429 0.5032 0.53639 0.0
C1968 C 0.10822 0.51107 0.54894 0.0
C1969 C 0.08919 0.4834 0.53437 0.0
C1970 C 0.1543 0.49265 0.56321 0.0
C1971 C 0.14992 0.54274 0.57138 0.0
N1972 N 0.11021 0.48765 0.54098 0.0
N1973 N 0.12996 0.53862 0.56198 0.0
H1974 H 0.54267 0.78857 0.13882 0.0
H1975 H 0.70058 0.74895 0.10349 0.0
H1976 H 0.59313 0.74422 0.21237 0.0
H1977 H 0.65504 0.77588 0.02329 0.0
H1978 H 0.66045 0.74991 0.14377 0.0
H1979 H 0.58239 0.78678 0.09612 0.0
C1980 C 0.56201 0.77827 0.14596 0.0
C1981 C 0.56442 0.76631 0.17926 0.0
C1982 C 0.65907 0.75573 0.11741 0.0
C1983 C 0.60994 0.76477 0.13075 0.0
C1984 C 0.682 0.75551 0.09438 0.0
C1985 C 0.68109 0.7633 0.06003 0.0
C1986 C 0.63475 0.76377 0.1062 0.0
C1987 C 0.65662 0.7702 0.04956 0.0
C1988 C 0.58467 0.77738 0.12161 0.0
C1989 C 0.59008 0.75388 0.18717 0.0
N1990 N 0.63435 0.77055 0.07259 0.0
N1991 N 0.61167 0.75352 0.16325 0.0
H1992 H 0.67813 0.53968 0.03255 0.0
H1993 H 0.56146 0.49045 0.08786 0.0
H1994 H 0.68755 0.46754 0.10435 0.0
H1995 H 0.59274 0.4919 0.98265 0.0
H1996 H 0.6026 0.4919 0.09746 0.0
H1997 H 0.64295 0.53176 0.01466 0.0
C1998 C 0.67316 0.52214 0.04451 0.0
C1999 C 0.68596 0.50451 0.07062 0.0
C2000 C 0.60043 0.49189 0.07226 0.0
C2001 C 0.64455 0.49652 0.05106 0.0
C2002 C 0.57696 0.49096 0.06666 0.0
C2003 C 0.57347 0.49128 0.0342 0.0
C2004 C 0.62039 0.49395 0.04514 0.0
C2005 C 0.59446 0.49219 0.00785 0.0
C2006 C 0.65287 0.51787 0.0343 0.0
C2007 C 0.67787 0.48242 0.0852 0.0
N2008 N 0.61699 0.49401 0.01373 0.0
N2009 N 0.65733 0.47943 0.07578 0.0
H2010 H 0.41618 0.40376 0.0917 0.0
H2011 H 0.33851 0.39326 0.9605 0.0
H2012 H 0.39644 0.46165 0.00452 0.0
H2013 H 0.34176 0.34853 0.06027 0.0
H2014 H 0.37365 0.40813 0.96628 0.0
H2015 H 0.40458 0.37287 0.06917 0.0
C2016 C 0.41024 0.40962 0.06727 0.0
C2017 C 0.40653 0.43543 0.05023 0.0
C2018 C 0.36703 0.39456 0.98654 0.0
C2019 C 0.39263 0.40075 0.02479 0.0
C2020 C 0.34677 0.38625 0.98343 0.0
C2021 C 0.33642 0.37027 0.01034 0.0
C2022 C 0.37708 0.38673 0.01672 0.0
C2023 C 0.34878 0.36097 0.03885 0.0
C2024 C 0.40344 0.39211 0.05451 0.0
C2025 C 0.39884 0.44215 0.0187 0.0
N2026 N 0.36809 0.3697 0.04147 0.0
N2027 N 0.39157 0.42513 0.00723 0.0
H2028 H 0.07217 0.19024 0.20413 0.0
H2029 H 0.17088 0.07248 0.31553 0.0
H2030 H 0.05589 0.17668 0.31193 0.0
H2031 H 0.17911 0.08081 0.20835 0.0
H2032 H 0.13025 0.11141 0.31522 0.0
H2033 H 0.11196 0.15103 0.20564 0.0
C2034 C 0.07691 0.17911 0.22822 0.0
C2035 C 0.06064 0.18743 0.25797 0.0
C2036 C 0.14094 0.10468 0.29178 0.0
C2037 C 0.10691 0.1419 0.25991 0.0
C2038 C 0.16433 0.08247 0.29191 0.0
C2039 C 0.17882 0.07314 0.26193 0.0
C2040 C 0.13176 0.11791 0.26143 0.0
C2041 C 0.1688 0.08695 0.23221 0.0
C2042 C 0.09981 0.15661 0.22905 0.0
C2043 C 0.06802 0.17168 0.28831 0.0
N2044 N 0.14616 0.10846 0.23274 0.0
N2045 N 0.09057 0.14995 0.2885 0.0
H2046 H 0.27345 0.31402 0.90239 0.0
H2047 H 0.22298 0.47289 0.86697 0.0
H2048 H 0.21943 0.36055 0.97641 0.0
H2049 H 0.27032 0.42217 0.79405 0.0
H2050 H 0.22238 0.43318 0.9087 0.0
H2051 H 0.27285 0.35433 0.86357 0.0
C2052 C 0.26136 0.33277 0.9106 0.0
C2053 C 0.24651 0.33374 0.94298 0.0
C2054 C 0.23276 0.43087 0.88348 0.0
C2055 C 0.24608 0.38065 0.89817 0.0
C2056 C 0.23321 0.45352 0.85969 0.0
C2057 C 0.24643 0.45101 0.82672 0.0
C2058 C 0.24578 0.40556 0.87424 0.0
C2059 C 0.25937 0.42532 0.81882 0.0
C2060 C 0.26114 0.35593 0.8883 0.0
C2061 C 0.23153 0.35881 0.95196 0.0
N2062 N 0.25868 0.40381 0.84224 0.0
N2063 N 0.23172 0.3813 0.92972 0.0
H2064 H 0.32785 0.29147 0.95295 0.0
H2065 H 0.44461 0.22032 0.8133 0.0
H2066 H 0.33725 0.21531 0.93136 0.0
H2067 H 0.43669 0.29276 0.84418 0.0
H2068 H 0.40479 0.21836 0.85405 0.0
H2069 H 0.36729 0.29213 0.912 0.0
C2070 C 0.3382 0.27477 0.93971 0.0
C2071 C 0.32884 0.25337 0.94567 0.0
C2072 C 0.4118 0.23468 0.85182 0.0
C2073 C 0.37447 0.25416 0.89786 0.0
C2074 C 0.43447 0.23592 0.82831 0.0
C2075 C 0.44409 0.25686 0.82483 0.0
C2076 C 0.39862 0.25449 0.87218 0.0
C2077 C 0.43024 0.27618 0.84571 0.0
C2078 C 0.3608 0.27523 0.91607 0.0
C2079 C 0.34334 0.23245 0.92735 0.0
N2080 N 0.4084 0.27452 0.86824 0.0
N2081 N 0.36528 0.23341 0.90426 0.0
H2082 H 0.41562 0.50926 0.03198 0.0
H2083 H 0.32505 0.54842 0.89701 0.0
H2084 H 0.44736 0.53319 0.92993 0.0
H2085 H 0.33984 0.47186 0.96023 0.0
H2086 H 0.36153 0.55374 0.91486 0.0
H2087 H 0.37734 0.50811 0.01294 0.0
C2088 C 0.41448 0.51436 0.00561 0.0
C2089 C 0.43479 0.52113 0.98249 0.0
C2090 C 0.35658 0.53588 0.92469 0.0
C2091 C 0.39144 0.51963 0.96069 0.0
C2092 C 0.33593 0.53255 0.91434 0.0
C2093 C 0.32922 0.50941 0.92675 0.0
C2094 C 0.37001 0.51649 0.94855 0.0
C2095 C 0.3437 0.49024 0.95028 0.0
C2096 C 0.39278 0.51363 0.99485 0.0
C2097 C 0.43207 0.52826 0.94861 0.0
N2098 N 0.36323 0.49435 0.96065 0.0
N2099 N 0.41078 0.5272 0.93858 0.0
H2100 H 0.67091 0.68152 0.94199 0.0
H2101 H 0.6071 0.57101 0.02288 0.0
H2102 H 0.68348 0.6323 0.03769 0.0
H2103 H 0.6026 0.61518 0.92343 0.0
H2104 H 0.62171 0.60362 0.03714 0.0
H2105 H 0.63264 0.66898 0.94436 0.0
C2106 C 0.66528 0.66861 0.96398 0.0
C2107 C 0.68109 0.65717 0.98913 0.0
C2108 C 0.61688 0.60657 0.01246 0.0
C2109 C 0.63765 0.64205 0.99138 0.0
C2110 C 0.60868 0.58793 0.00435 0.0
C2111 C 0.60455 0.5902 0.97171 0.0
C2112 C 0.62112 0.62733 0.98753 0.0
C2113 C 0.60603 0.61271 0.94874 0.0
C2114 C 0.64344 0.66129 0.96519 0.0
C2115 C 0.67253 0.6407 0.01704 0.0
N2116 N 0.61472 0.63018 0.95687 0.0
N2117 N 0.65179 0.63308 0.01704 0.0
H2118 H 0.94331 0.84257 0.69377 0.0
H2119 H 0.82712 0.94392 0.80533 0.0
H2120 H 0.93683 0.83574 0.80043 0.0
H2121 H 0.8383 0.95576 0.69761 0.0
H2122 H 0.86664 0.90412 0.80408 0.0
H2123 H 0.90452 0.88323 0.69464 0.0
C2124 C 0.93381 0.84953 0.7174 0.0
C2125 C 0.94346 0.83524 0.7471 0.0
C2126 C 0.86041 0.91532 0.78067 0.0
C2127 C 0.8987 0.88236 0.74828 0.0
C2128 C 0.83776 0.93821 0.78135 0.0
C2129 C 0.82875 0.9533 0.75154 0.0
C2130 C 0.8745 0.90708 0.74994 0.0
C2131 C 0.84373 0.94459 0.72135 0.0
C2132 C 0.91159 0.87288 0.71787 0.0
C2133 C 0.93026 0.84576 0.77683 0.0
N2134 N 0.8656 0.92219 0.72135 0.0
N2135 N 0.90868 0.86839 0.77667 0.0
H2136 H 0.52233 0.19603 0.5449 0.0
H2137 H 0.47846 0.06885 0.59272 0.0
H2138 H 0.48173 0.17338 0.64252 0.0
H2139 H 0.5219 0.09105 0.49673 0.0
H2140 H 0.48476 0.10314 0.61424 0.0
H2141 H 0.5292 0.15324 0.53031 0.0
C2142 C 0.51531 0.18172 0.56342 0.0
C2143 C 0.5011 0.18814 0.59466 0.0
C2144 C 0.493 0.10038 0.5885 0.0
C2145 C 0.50803 0.1397 0.578 0.0
C2146 C 0.4893 0.08078 0.57611 0.0
C2147 C 0.49936 0.07697 0.54273 0.0
C2148 C 0.5066 0.11658 0.56722 0.0
C2149 C 0.51334 0.09331 0.52252 0.0
C2150 C 0.5191 0.15738 0.55512 0.0
C2151 C 0.4926 0.16904 0.61806 0.0
N2152 N 0.51636 0.11246 0.53501 0.0
N2153 N 0.49573 0.14576 0.60902 0.0
H2154 H 0.4542 0.34567 0.95986 0.0
H2155 H 0.53983 0.44053 0.93339 0.0
H2156 H 0.53279 0.33003 0.90161 0.0
H2157 H 0.47578 0.43822 0.01551 0.0
H2158 H 0.53304 0.40532 0.91347 0.0
H2159 H 0.45758 0.38521 0.97311 0.0
C2160 C 0.47209 0.35051 0.94979 0.0
C2161 C 0.49321 0.33437 0.92963 0.0
C2162 C 0.52057 0.41262 0.93589 0.0
C2163 C 0.49703 0.37975 0.94418 0.0
C2164 C 0.5244 0.43275 0.9472 0.0
C2165 C 0.50861 0.44226 0.97637 0.0
C2166 C 0.5007 0.40216 0.95381 0.0
C2167 C 0.48886 0.43129 0.99327 0.0
C2168 C 0.47395 0.37315 0.95718 0.0
C2169 C 0.51575 0.342 0.91676 0.0
N2170 N 0.4855 0.41189 0.98178 0.0
N2171 N 0.51706 0.36408 0.92429 0.0
H2172 H 0.44939 0.87372 0.42232 0.0
H2173 H 0.55208 0.92242 0.47431 0.0
H2174 H 0.5309 0.82483 0.4251 0.0
H2175 H 0.47731 0.97453 0.44658 0.0
H2176 H 0.54575 0.88614 0.45592 0.0
H2177 H 0.45891 0.91032 0.43441 0.0
C2178 C 0.46921 0.87062 0.42591 0.0
C2179 C 0.4894 0.84628 0.42267 0.0
C2180 C 0.53085 0.90561 0.45356 0.0
C2181 C 0.50062 0.88812 0.4358 0.0
C2182 C 0.53464 0.92628 0.46367 0.0
C2183 C 0.51489 0.95115 0.4625 0.0
C2184 C 0.50706 0.91005 0.44262 0.0
C2185 C 0.49253 0.95531 0.44881 0.0
C2186 C 0.47474 0.89159 0.43234 0.0
C2187 C 0.51483 0.8434 0.42713 0.0
N2188 N 0.48902 0.9349 0.4398 0.0
N2189 N 0.51974 0.86408 0.43349 0.0
H2190 H 0.45298 0.59361 0.0524 0.0
H2191 H 0.55549 0.65187 0.088 0.0
H2192 H 0.53565 0.54967 0.05468 0.0
H2193 H 0.47296 0.69691 0.08581 0.0
H2194 H 0.54796 0.61332 0.07844 0.0
H2195 H 0.45848 0.63039 0.07063 0.0
C2196 C 0.47206 0.59156 0.05755 0.0
C2197 C 0.49396 0.56901 0.05169 0.0
C2198 C 0.53147 0.63164 0.08002 0.0
C2199 C 0.50062 0.61063 0.07158 0.0
C2200 C 0.53588 0.65371 0.08499 0.0
C2201 C 0.51482 0.67753 0.08761 0.0
C2202 C 0.50584 0.6335 0.07754 0.0
C2203 C 0.48967 0.67878 0.08415 0.0
C2204 C 0.47531 0.61253 0.06756 0.0
C2205 C 0.51838 0.56707 0.05845 0.0
N2206 N 0.48585 0.65705 0.07932 0.0
N2207 N 0.52113 0.58775 0.06771 0.0
loop_
_geom_bond_atom_site_label_1
_geom_bond_atom_site_label_2
_geom_bond_distance
_geom_bond_site_symmetry_2
_ccdc_geom_bond_type
Eu0 N29 2.600 . S
Eu0 N35 2.562 1_655 S
Eu0 O44 2.462 . S
Eu0 O45 2.373 1_655 S
Eu0 O47 2.432 . S
Eu0 O48 2.291 1_654 S
Eu0 O52 2.335 1_564 S
Eu0 O55 2.372 1_565 S
Eu0 C64 2.787 . S
C1 N2 1.365 . S
C1 C4 1.405 . S
C1 C8 1.448 . S
N2 C1 1.365 . S
N2 C5 1.319 . S
N2 Eu11 2.600 . S
C3 C5 1.397 . S
C3 C6 1.367 . S
C3 H23 0.931 1_545 S
C4 C1 1.405 . S
C4 C6 1.403 . S
C4 C10 1.449 . S
C5 N2 1.319 . S
C5 C3 1.397 . S
C5 H16 0.930 1_545 S
C6 C3 1.367 . S
C6 C4 1.403 . S
C6 H27 0.929 . S
C7 C8 1.430 1_655 S
C7 C9 1.387 . S
C7 C13 1.404 . S
C8 C1 1.448 . S
C8 C7 1.430 1_455 S
C8 N12 1.351 . S
C9 C7 1.387 . S
C9 C10 1.370 1_655 S
C9 H24 0.931 . S
C10 C4 1.449 . S
C10 C9 1.370 1_455 S
C10 H25 0.926 . S
Eu11 N2 2.600 . S
Eu11 N12 2.562 . S
Eu11 O46 2.335 1_556 S
Eu11 O49 2.372 1_545 S
Eu11 O50 2.462 . S
Eu11 O51 2.373 1_455 S
Eu11 O53 2.432 . S
Eu11 O54 2.291 1_456 S
Eu11 C75 2.787 . S
N12 C8 1.351 . S
N12 Eu11 2.562 . S
N12 C14 1.325 1_455 S
C13 C7 1.404 . S
C13 C15 1.366 . S
C13 H21 0.930 . S
C14 N12 1.325 1_655 S
C14 C15 1.416 . S
C14 H20 0.929 . S
C15 C13 1.366 . S
C15 C14 1.416 . S
C15 H17 0.930 . S
H16 C5 0.930 1_565 S
H17 C15 0.930 . S
H18 C33 0.930 . S
H19 C40 0.930 . S
H20 C14 0.929 . S
H21 C13 0.930 . S
H22 C36 0.929 . S
H23 C3 0.931 1_565 S
H24 C9 0.931 . S
H25 C10 0.926 . S
H26 C31 0.931 . S
H27 C6 0.929 . S
H28 C39 0.930 . S
N29 Eu0 2.600 . S
N29 C30 1.365 . S
N29 C33 1.319 1_565 S
C30 N29 1.365 . S
C30 C32 1.405 . S
C30 C38 1.448 1_655 S
C31 H26 0.931 . S
C31 C33 1.397 . S
C31 C34 1.367 1_545 S
C32 C30 1.405 . S
C32 C34 1.403 . S
C32 C65 1.439 1_655 S
C33 H18 0.930 . S
C33 N29 1.319 1_545 S
C33 C31 1.397 . S
C34 C31 1.367 1_565 S
C34 C32 1.403 . S
C34 H41 0.929 . S
N35 Eu0 2.562 1_455 S
N35 C36 1.325 . S
N35 C38 1.351 . S
C36 H22 0.929 . S
C36 N35 1.325 . S
C36 C40 1.416 . S
C37 C38 1.430 . S
C37 C39 1.404 . S
C37 C66 1.387 . S
C38 C30 1.448 1_455 S
C38 N35 1.351 . S
C38 C37 1.430 . S
C39 H28 0.930 . S
C39 C37 1.404 . S
C39 C40 1.366 . S
C40 H19 0.930 . S
C40 C36 1.416 . S
C40 C39 1.366 . S
H41 C34 0.929 . S
H42 C65 0.931 . S
H43 C66 0.931 . S
O44 Eu0 2.462 . S
O44 C64 1.252 . S
O45 Eu0 2.373 1_455 S
O45 C56 1.249 . S
O46 Eu11 2.335 1_554 S
O46 C56 1.264 1_545 S
O47 Eu0 2.432 . S
O47 C64 1.268 . S
O48 Eu0 2.291 1_456 S
O48 C63 1.255 . S
O49 Eu11 2.372 1_565 S
O49 C63 1.257 . S
O50 Eu11 2.462 . S
O50 C75 1.252 . S
O51 Eu11 2.373 1_655 S
O51 C67 1.249 . S
O52 Eu0 2.335 1_546 S
O52 C67 1.264 . S
O53 Eu11 2.432 . S
O53 C75 1.268 . S
O54 Eu11 2.291 1_654 S
O54 C74 1.255 . S
O55 Eu0 2.372 1_545 S
O55 C74 1.257 . S
C56 O45 1.249 . S
C56 O46 1.264 1_565 S
C57 C60 1.382 . S
C57 C62 1.390 . S
C57 C64 1.506 . S
C58 C59 1.398 . S
C58 C62 1.392 . S
C59 C58 1.398 . S
C59 C61 1.372 . S
C59 H76 0.931 . S
C60 C57 1.382 . S
C60 C61 1.390 . S
C60 H77 0.931 . S
C61 C59 1.372 . S
C61 C60 1.390 . S
C61 H78 0.929 . S
C62 C57 1.390 . S
C62 C58 1.392 . S
C62 H79 0.930 . S
C63 O48 1.255 . S
C63 O49 1.257 . S
C64 Eu0 2.787 . S
C64 O44 1.252 . S
C64 O47 1.268 . S
C64 C57 1.506 . S
C65 C32 1.439 1_455 S
C65 H42 0.931 . S
C65 C66 1.374 . S
C66 C37 1.387 . S
C66 H43 0.931 . S
C66 C65 1.374 . S
C67 O51 1.249 . S
C67 O52 1.264 . S
C68 C71 1.382 . S
C68 C72 1.390 . S
C68 C75 1.506 . S
C69 C70 1.398 . S
C69 C72 1.392 . S
C70 C69 1.398 . S
C70 C73 1.372 . S
C70 H80 0.931 . S
C71 C68 1.382 . S
C71 C73 1.390 . S
C71 H81 0.931 . S
C72 C68 1.390 . S
C72 C69 1.392 . S
C72 H82 0.930 . S
C73 C70 1.372 . S
C73 C71 1.390 . S
C73 H83 0.929 . S
C74 O54 1.255 . S
C74 O55 1.257 . S
C75 Eu11 2.787 . S
C75 O50 1.252 . S
C75 O53 1.268 . S
C75 C68 1.506 . S
H76 C59 0.931 . S
H77 C60 0.931 . S
H78 C61 0.929 . S
H79 C62 0.930 . S
H80 C70 0.931 . S
H81 C71 0.931 . S
H82 C72 0.930 . S
H83 C73 0.929 . S
Eu84 N113 2.600 . S
Eu84 N119 2.562 . S
Eu84 O128 2.462 1_655 S
Eu84 O129 2.373 . S
Eu84 O131 2.432 . S
Eu84 O132 2.291 1_655 S
Eu84 O136 2.335 1_655 S
Eu84 O139 2.372 . S
Eu84 C148 2.787 . S
C85 N86 1.365 . S
C85 C88 1.405 . S
C85 C92 1.448 . S
N86 C85 1.365 . S
N86 C89 1.319 . S
N86 Eu95 2.600 . S
C87 C89 1.397 . S
C87 C90 1.367 . S
C87 H107 0.931 . S
C88 C85 1.405 . S
C88 C90 1.403 . S
C88 C94 1.439 . S
C89 N86 1.319 . S
C89 C87 1.397 . S
C89 H100 0.930 . S
C90 C87 1.367 . S
C90 C88 1.403 . S
C90 H111 0.929 . S
C91 C92 1.430 . S
C91 C93 1.387 . S
C91 C97 1.404 . S
C92 C85 1.448 . S
C92 C91 1.430 . S
C92 N96 1.351 . S
C93 C91 1.387 . S
C93 C94 1.374 . S
C93 H108 0.931 . S
C94 C88 1.439 . S
C94 C93 1.374 . S
C94 H109 0.931 . S
Eu95 N86 2.600 . S
Eu95 N96 2.562 . S
Eu95 O130 2.335 1_455 S
Eu95 O133 2.372 . S
Eu95 O134 2.462 . S
Eu95 O135 2.373 . S
Eu95 O137 2.432 . S
Eu95 O138 2.291 1_455 S
Eu95 C159 2.787 . S
N96 C92 1.351 . S
N96 Eu95 2.562 . S
N96 C98 1.325 . S
C97 C91 1.404 . S
C97 C99 1.366 . S
C97 H105 0.930 . S
C98 N96 1.325 . S
C98 C99 1.416 . S
C98 H104 0.929 . S
C99 C97 1.366 . S
C99 C98 1.416 . S
C99 H101 0.930 . S
H100 C89 0.930 . S
H101 C99 0.930 . S
H102 C117 0.930 . S
H103 C124 0.930 . S
H104 C98 0.929 . S
H105 C97 0.930 . S
H106 C120 0.929 . S
H107 C87 0.931 . S
H108 C93 0.931 . S
H109 C94 0.931 . S
H110 C115 0.931 . S
H111 C90 0.929 . S
H112 C123 0.930 . S
N113 Eu84 2.600 . S
N113 C114 1.365 . S
N113 C117 1.319 . S
C114 N113 1.365 . S
C114 C116 1.405 . S
C114 C122 1.448 . S
C115 H110 0.931 . S
C115 C117 1.397 . S
C115 C118 1.367 . S
C116 C114 1.405 . S
C116 C118 1.403 . S
C116 C149 1.439 . S
C117 H102 0.930 . S
C117 N113 1.319 . S
C117 C115 1.397 . S
C118 C115 1.367 . S
C118 C116 1.403 . S
C118 H125 0.929 . S
N119 Eu84 2.562 . S
N119 C120 1.325 . S
N119 C122 1.351 . S
C120 H106 0.929 . S
C120 N119 1.325 . S
C120 C124 1.416 . S
C121 C122 1.430 . S
C121 C123 1.404 . S
C121 C150 1.387 . S
C122 C114 1.448 . S
C122 N119 1.351 . S
C122 C121 1.430 . S
C123 H112 0.930 . S
C123 C121 1.404 . S
C123 C124 1.366 . S
C124 H103 0.930 . S
C124 C120 1.416 . S
C124 C123 1.366 . S
H125 C118 0.929 . S
H126 C149 0.931 . S
H127 C150 0.931 . S
O128 Eu84 2.462 1_455 S
O128 C148 1.252 1_455 S
O129 Eu84 2.373 . S
O129 C140 1.249 . S
O130 Eu95 2.335 1_655 S
O130 C140 1.264 . S
O131 Eu84 2.432 . S
O131 C148 1.268 . S
O132 Eu84 2.291 1_455 S
O132 C147 1.255 . S
O133 Eu95 2.372 . S
O133 C147 1.257 . S
O134 Eu95 2.462 . S
O134 C159 1.252 . S
O135 Eu95 2.373 . S
O135 C151 1.249 . S
O136 Eu84 2.335 1_455 S
O136 C151 1.264 . S
O137 Eu95 2.432 . S
O137 C159 1.268 . S
O138 Eu95 2.291 1_655 S
O138 C158 1.255 . S
O139 Eu84 2.372 . S
O139 C158 1.257 . S
C140 O129 1.249 . S
C140 O130 1.264 . S
C141 C144 1.382 1_455 S
C141 C146 1.390 . S
C141 C148 1.506 1_455 S
C142 C143 1.398 . S
C142 C146 1.392 . S
C143 C142 1.398 . S
C143 C145 1.372 1_455 S
C143 H160 0.931 . S
C144 C141 1.382 1_655 S
C144 C145 1.390 . S
C144 H161 0.931 . S
C145 C143 1.372 1_655 S
C145 C144 1.390 . S
C145 H162 0.929 . S
C146 C141 1.390 . S
C146 C142 1.392 . S
C146 H163 0.930 . S
C147 O132 1.255 . S
C147 O133 1.257 . S
C148 Eu84 2.787 . S
C148 O128 1.252 1_655 S
C148 O131 1.268 . S
C148 C141 1.506 1_655 S
C149 C116 1.439 . S
C149 H126 0.931 . S
C149 C150 1.374 . S
C150 C121 1.387 . S
C150 H127 0.931 . S
C150 C149 1.374 . S
C151 O135 1.249 . S
C151 O136 1.264 . S
C152 C155 1.382 . S
C152 C156 1.390 1_455 S
C152 C159 1.506 . S
C153 C154 1.398 1_655 S
C153 C156 1.392 . S
C154 C153 1.398 1_455 S
C154 C157 1.372 . S
C154 H164 0.934 1_455 S
C155 C152 1.382 . S
C155 C157 1.390 . S
C155 H165 0.931 . S
C156 C152 1.390 1_655 S
C156 C153 1.392 . S
C156 H166 0.930 . S
C157 C154 1.372 . S
C157 C155 1.390 . S
C157 H167 0.929 . S
C158 O138 1.255 . S
C158 O139 1.257 . S
C159 Eu95 2.787 . S
C159 O134 1.252 . S
C159 O137 1.268 . S
C159 C152 1.506 . S
H160 C143 0.931 . S
H161 C144 0.931 . S
H162 C145 0.929 . S
H163 C146 0.930 . S
H164 C154 0.934 1_655 S
H165 C155 0.931 . S
H166 C156 0.930 . S
H167 C157 0.929 . S
Eu168 N197 2.600 . S
Eu168 N203 2.562 . S
Eu168 O212 2.462 . S
Eu168 O213 2.373 . S
Eu168 O215 2.432 . S
Eu168 O216 2.291 . S
Eu168 O220 2.335 . S
Eu168 O223 2.372 . S
Eu168 C232 2.787 . S
C169 N170 1.365 . S
C169 C172 1.405 . S
C169 C176 1.448 . S
N170 C169 1.365 . S
N170 C173 1.319 . S
N170 Eu179 2.600 . S
C171 C173 1.397 . S
C171 C174 1.367 . S
C171 H191 0.931 . S
C172 C169 1.405 . S
C172 C174 1.403 . S
C172 C178 1.439 . S
C173 N170 1.319 . S
C173 C171 1.397 . S
C173 H184 0.930 . S
C174 C171 1.367 . S
C174 C172 1.403 . S
C174 H195 0.929 . S
C175 C176 1.430 . S
C175 C177 1.387 . S
C175 C181 1.404 . S
C176 C169 1.448 . S
C176 C175 1.430 . S
C176 N180 1.351 . S
C177 C175 1.387 . S
C177 C178 1.374 . S
C177 H192 0.931 . S
C178 C172 1.439 . S
C178 C177 1.374 . S
C178 H193 0.931 . S
Eu179 N170 2.600 . S
Eu179 N180 2.562 . S
Eu179 O214 2.335 . S
Eu179 O217 2.372 . S
Eu179 O218 2.462 . S
Eu179 O219 2.373 . S
Eu179 O221 2.432 . S
Eu179 O222 2.291 . S
Eu179 C243 2.787 . S
N180 C176 1.351 . S
N180 Eu179 2.562 . S
N180 C182 1.325 . S
C181 C175 1.404 . S
C181 C183 1.366 . S
C181 H189 0.930 . S
C182 N180 1.325 . S
C182 C183 1.416 . S
C182 H188 0.929 . S
C183 C181 1.366 . S
C183 C182 1.416 . S
C183 H185 0.930 . S
H184 C173 0.930 . S
H185 C183 0.930 . S
H186 C201 0.930 . S
H187 C208 0.930 . S
H188 C182 0.929 . S
H189 C181 0.930 . S
H190 C204 0.929 . S
H191 C171 0.931 . S
H192 C177 0.931 . S
H193 C178 0.931 . S
H194 C199 0.931 . S
H195 C174 0.929 . S
H196 C207 0.930 . S
N197 Eu168 2.600 . S
N197 C198 1.365 . S
N197 C201 1.319 . S
C198 N197 1.365 . S
C198 C200 1.405 . S
C198 C206 1.448 . S
C199 H194 0.931 . S
C199 C201 1.397 . S
C199 C202 1.367 . S
C200 C198 1.405 . S
C200 C202 1.403 . S
C200 C233 1.439 . S
C201 H186 0.930 . S
C201 N197 1.319 . S
C201 C199 1.397 . S
C202 C199 1.367 . S
C202 C200 1.403 . S
C202 H209 0.929 . S
N203 Eu168 2.562 . S
N203 C204 1.325 . S
N203 C206 1.351 . S
C204 H190 0.929 . S
C204 N203 1.325 . S
C204 C208 1.416 . S
C205 C206 1.430 . S
C205 C207 1.404 . S
C205 C234 1.387 . S
C206 C198 1.448 . S
C206 N203 1.351 . S
C206 C205 1.430 . S
C207 H196 0.930 . S
C207 C205 1.404 . S
C207 C208 1.366 . S
C208 H187 0.930 . S
C208 C204 1.416 . S
C208 C207 1.366 . S
H209 C202 0.929 . S
H210 C233 0.931 . S
H211 C234 0.931 . S
O212 Eu168 2.462 . S
O212 C232 1.252 . S
O213 Eu168 2.373 . S
O213 C224 1.249 . S
O214 Eu179 2.335 . S
O214 C224 1.264 . S
O215 Eu168 2.432 . S
O215 C232 1.268 . S
O216 Eu168 2.291 . S
O216 C231 1.255 . S
O217 Eu179 2.372 . S
O217 C231 1.257 . S
O218 Eu179 2.462 . S
O218 C243 1.252 . S
O219 Eu179 2.373 . S
O219 C235 1.249 . S
O220 Eu168 2.335 . S
O220 C235 1.264 . S
O221 Eu179 2.432 . S
O221 C243 1.268 . S
O222 Eu179 2.291 . S
O222 C242 1.255 . S
O223 Eu168 2.372 . S
O223 C242 1.257 . S
C224 O213 1.249 . S
C224 O214 1.264 . S
C225 C228 1.382 . S
C225 C230 1.390 . S
C225 C232 1.506 . S
C226 C227 1.398 . S
C226 C230 1.392 . S
C227 C226 1.398 . S
C227 C229 1.372 . S
C227 H244 0.931 . S
C228 C225 1.382 . S
C228 C229 1.390 . S
C228 H245 0.931 . S
C229 C227 1.372 . S
C229 C228 1.390 . S
C229 H246 0.929 . S
C230 C225 1.390 . S
C230 C226 1.392 . S
C230 H247 0.930 . S
C231 O216 1.255 . S
C231 O217 1.257 . S
C232 Eu168 2.787 . S
C232 O212 1.252 . S
C232 O215 1.268 . S
C232 C225 1.506 . S
C233 C200 1.439 . S
C233 H210 0.931 . S
C233 C234 1.374 . S
C234 C205 1.387 . S
C234 H211 0.931 . S
C234 C233 1.374 . S
C235 O219 1.249 . S
C235 O220 1.264 . S
C236 C239 1.382 . S
C236 C240 1.390 . S
C236 C243 1.506 . S
C237 C238 1.398 . S
C237 C240 1.392 . S
C238 C237 1.398 . S
C238 C241 1.372 . S
C238 H248 0.931 . S
C239 C236 1.382 . S
C239 C241 1.390 . S
C239 H249 0.931 . S
C240 C236 1.390 . S
C240 C237 1.392 . S
C240 H250 0.930 . S
C241 C238 1.372 . S
C241 C239 1.390 . S
C241 H251 0.929 . S
C242 O222 1.255 . S
C242 O223 1.257 . S
C243 Eu179 2.787 . S
C243 O218 1.252 . S
C243 O221 1.268 . S
C243 C236 1.506 . S
H244 C227 0.931 . S
H245 C228 0.931 . S
H246 C229 0.929 . S
H247 C230 0.930 . S
H248 C238 0.931 . S
H249 C239 0.931 . S
H250 C240 0.930 . S
H251 C241 0.929 . S
Eu252 N281 2.600 . S
Eu252 N287 2.562 . S
Eu252 O296 2.462 . S
Eu252 O297 2.373 . S
Eu252 O299 2.432 . S
Eu252 O300 2.291 1_545 S
Eu252 O304 2.335 1_545 S
Eu252 O307 2.372 . S
Eu252 C316 2.787 . S
C253 N254 1.365 . S
C253 C256 1.405 . S
C253 C260 1.448 . S
N254 C253 1.365 . S
N254 C257 1.319 . S
N254 Eu263 2.600 . S
C255 C257 1.397 . S
C255 C258 1.367 . S
C255 H275 0.931 . S
C256 C253 1.405 . S
C256 C258 1.403 . S
C256 C262 1.439 . S
C257 N254 1.319 . S
C257 C255 1.397 . S
C257 H268 0.930 . S
C258 C255 1.367 . S
C258 C256 1.403 . S
C258 H279 0.929 . S
C259 C260 1.430 . S
C259 C261 1.387 . S
C259 C265 1.404 . S
C260 C253 1.448 . S
C260 C259 1.430 . S
C260 N264 1.351 . S
C261 C259 1.387 . S
C261 C262 1.374 . S
C261 H276 0.931 . S
C262 C256 1.439 . S
C262 C261 1.374 . S
C262 H277 0.931 . S
Eu263 N254 2.600 . S
Eu263 N264 2.562 . S
Eu263 O298 2.335 1_565 S
Eu263 O301 2.372 . S
Eu263 O302 2.462 1_565 S
Eu263 O303 2.373 . S
Eu263 O305 2.432 . S
Eu263 O306 2.291 1_565 S
Eu263 C327 2.787 . S
N264 C260 1.351 . S
N264 Eu263 2.562 . S
N264 C266 1.325 . S
C265 C259 1.404 . S
C265 C267 1.366 . S
C265 H273 0.930 . S
C266 N264 1.325 . S
C266 C267 1.416 . S
C266 H272 0.929 . S
C267 C265 1.366 . S
C267 C266 1.416 . S
C267 H269 0.930 . S
H268 C257 0.930 . S
H269 C267 0.930 . S
H270 C285 0.930 . S
H271 C292 0.930 . S
H272 C266 0.929 . S
H273 C265 0.930 . S
H274 C288 0.929 . S
H275 C255 0.931 . S
H276 C261 0.931 . S
H277 C262 0.931 . S
H278 C283 0.931 . S
H279 C258 0.929 . S
H280 C291 0.930 . S
N281 Eu252 2.600 . S
N281 C282 1.365 . S
N281 C285 1.319 . S
C282 N281 1.365 . S
C282 C284 1.405 . S
C282 C290 1.448 . S
C283 H278 0.931 . S
C283 C285 1.397 . S
C283 C286 1.367 . S
C284 C282 1.405 . S
C284 C286 1.403 . S
C284 C317 1.439 . S
C285 H270 0.930 . S
C285 N281 1.319 . S
C285 C283 1.397 . S
C286 C283 1.367 . S
C286 C284 1.403 . S
C286 H293 0.929 . S
N287 Eu252 2.562 . S
N287 C288 1.325 . S
N287 C290 1.351 . S
C288 H274 0.929 . S
C288 N287 1.325 . S
C288 C292 1.416 . S
C289 C290 1.430 . S
C289 C291 1.404 . S
C289 C318 1.387 . S
C290 C282 1.448 . S
C290 N287 1.351 . S
C290 C289 1.430 . S
C291 H280 0.930 . S
C291 C289 1.404 . S
C291 C292 1.366 . S
C292 H271 0.930 . S
C292 C288 1.416 . S
C292 C291 1.366 . S
H293 C286 0.929 . S
H294 C317 0.931 . S
H295 C318 0.931 . S
O296 Eu252 2.462 . S
O296 C316 1.252 . S
O297 Eu252 2.373 . S
O297 C308 1.249 . S
O298 Eu263 2.335 1_545 S
O298 C308 1.264 . S
O299 Eu252 2.432 . S
O299 C316 1.268 . S
O300 Eu252 2.291 1_565 S
O300 C315 1.255 . S
O301 Eu263 2.372 . S
O301 C315 1.257 . S
O302 Eu263 2.462 1_545 S
O302 C327 1.252 1_545 S
O303 Eu263 2.373 . S
O303 C319 1.249 . S
O304 Eu252 2.335 1_565 S
O304 C319 1.264 . S
O305 Eu263 2.432 . S
O305 C327 1.268 . S
O306 Eu263 2.291 1_545 S
O306 C326 1.255 . S
O307 Eu252 2.372 . S
O307 C326 1.257 . S
C308 O297 1.249 . S
C308 O298 1.264 . S
C309 C312 1.382 . S
C309 C314 1.390 1_545 S
C309 C316 1.506 . S
C310 C311 1.398 1_565 S
C310 C314 1.392 . S
C311 C310 1.398 1_545 S
C311 C313 1.372 . S
C311 H328 0.927 . S
C312 C309 1.382 . S
C312 C313 1.390 . S
C312 H329 0.931 . S
C313 C311 1.372 . S
C313 C312 1.390 . S
C313 H330 0.929 . S
C314 C309 1.390 1_565 S
C314 C310 1.392 . S
C314 H331 0.930 . S
C315 O300 1.255 . S
C315 O301 1.257 . S
C316 Eu252 2.787 . S
C316 O296 1.252 . S
C316 O299 1.268 . S
C316 C309 1.506 . S
C317 C284 1.439 . S
C317 H294 0.931 . S
C317 C318 1.374 . S
C318 C289 1.387 . S
C318 H295 0.931 . S
C318 C317 1.374 . S
C319 O303 1.249 . S
C319 O304 1.264 . S
C320 C323 1.382 1_545 S
C320 C324 1.390 . S
C320 C327 1.506 1_545 S
C321 C322 1.398 . S
C321 C324 1.392 . S
C322 C321 1.398 . S
C322 C325 1.372 1_545 S
C322 H332 0.931 . S
C323 C320 1.382 1_565 S
C323 C325 1.390 . S
C323 H333 0.931 . S
C324 C320 1.390 . S
C324 C321 1.392 . S
C324 H334 0.930 . S
C325 C322 1.372 1_565 S
C325 C323 1.390 . S
C325 H335 0.929 . S
C326 O306 1.255 . S
C326 O307 1.257 . S
C327 Eu263 2.787 . S
C327 O302 1.252 1_565 S
C327 O305 1.268 . S
C327 C320 1.506 1_565 S
H328 C311 0.927 . S
H329 C312 0.931 . S
H330 C313 0.929 . S
H331 C314 0.930 . S
H332 C322 0.931 . S
H333 C323 0.931 . S
H334 C324 0.930 . S
H335 C325 0.929 . S
Eu336 N365 2.600 . S
Eu336 N371 2.562 . S
Eu336 O380 2.462 . S
Eu336 O381 2.373 . S
Eu336 O383 2.432 . S
Eu336 O384 2.291 . S
Eu336 O388 2.335 . S
Eu336 O391 2.372 . S
Eu336 C400 2.787 . S
C337 N338 1.365 . S
C337 C340 1.405 . S
C337 C344 1.448 . S
N338 C337 1.365 . S
N338 C341 1.319 . S
N338 Eu347 2.600 . S
C339 C341 1.397 . S
C339 C342 1.367 . S
C339 H359 0.931 . S
C340 C337 1.405 . S
C340 C342 1.403 . S
C340 C346 1.439 . S
C341 N338 1.319 . S
C341 C339 1.397 . S
C341 H352 0.930 . S
C342 C339 1.367 . S
C342 C340 1.403 . S
C342 H363 0.929 . S
C343 C344 1.430 . S
C343 C345 1.387 . S
C343 C349 1.404 . S
C344 C337 1.448 . S
C344 C343 1.430 . S
C344 N348 1.351 . S
C345 C343 1.387 . S
C345 C346 1.374 . S
C345 H360 0.931 . S
C346 C340 1.439 . S
C346 C345 1.374 . S
C346 H361 0.931 . S
Eu347 N338 2.600 . S
Eu347 N348 2.562 . S
Eu347 O382 2.335 . S
Eu347 O385 2.372 . S
Eu347 O386 2.462 . S
Eu347 O387 2.373 . S
Eu347 O389 2.432 . S
Eu347 O390 2.291 . S
Eu347 C411 2.787 . S
N348 C344 1.351 . S
N348 Eu347 2.562 . S
N348 C350 1.325 . S
C349 C343 1.404 . S
C349 C351 1.366 . S
C349 H357 0.930 . S
C350 N348 1.325 . S
C350 C351 1.416 . S
C350 H356 0.929 . S
C351 C349 1.366 . S
C351 C350 1.416 . S
C351 H353 0.930 . S
H352 C341 0.930 . S
H353 C351 0.930 . S
H354 C369 0.930 . S
H355 C376 0.930 . S
H356 C350 0.929 . S
H357 C349 0.930 . S
H358 C372 0.929 . S
H359 C339 0.931 . S
H360 C345 0.931 . S
H361 C346 0.931 . S
H362 C367 0.931 . S
H363 C342 0.929 . S
H364 C375 0.930 . S
N365 Eu336 2.600 . S
N365 C366 1.365 . S
N365 C369 1.319 . S
C366 N365 1.365 . S
C366 C368 1.405 . S
C366 C374 1.448 . S
C367 H362 0.931 . S
C367 C369 1.397 . S
C367 C370 1.367 . S
C368 C366 1.405 . S
C368 C370 1.403 . S
C368 C401 1.439 . S
C369 H354 0.930 . S
C369 N365 1.319 . S
C369 C367 1.397 . S
C370 C367 1.367 . S
C370 C368 1.403 . S
C370 H377 0.929 . S
N371 Eu336 2.562 . S
N371 C372 1.325 . S
N371 C374 1.351 . S
C372 H358 0.929 . S
C372 N371 1.325 . S
C372 C376 1.416 . S
C373 C374 1.430 . S
C373 C375 1.404 . S
C373 C402 1.387 . S
C374 C366 1.448 . S
C374 N371 1.351 . S
C374 C373 1.430 . S
C375 H364 0.930 . S
C375 C373 1.404 . S
C375 C376 1.366 . S
C376 H355 0.930 . S
C376 C372 1.416 . S
C376 C375 1.366 . S
H377 C370 0.929 . S
H378 C401 0.931 . S
H379 C402 0.931 . S
O380 Eu336 2.462 . S
O380 C400 1.252 . S
O381 Eu336 2.373 . S
O381 C392 1.249 . S
O382 Eu347 2.335 . S
O382 C392 1.264 . S
O383 Eu336 2.432 . S
O383 C400 1.268 . S
O384 Eu336 2.291 . S
O384 C399 1.255 . S
O385 Eu347 2.372 . S
O385 C399 1.257 . S
O386 Eu347 2.462 . S
O386 C411 1.252 . S
O387 Eu347 2.373 . S
O387 C403 1.249 . S
O388 Eu336 2.335 . S
O388 C403 1.264 . S
O389 Eu347 2.432 . S
O389 C411 1.268 . S
O390 Eu347 2.291 . S
O390 C410 1.255 . S
O391 Eu336 2.372 . S
O391 C410 1.257 . S
C392 O381 1.249 . S
C392 O382 1.264 . S
C393 C396 1.382 . S
C393 C398 1.390 . S
C393 C400 1.506 . S
C394 C395 1.398 . S
C394 C398 1.392 . S
C395 C394 1.398 . S
C395 C397 1.372 . S
C395 H412 0.931 . S
C396 C393 1.382 . S
C396 C397 1.390 . S
C396 H413 0.931 . S
C397 C395 1.372 . S
C397 C396 1.390 . S
C397 H414 0.929 . S
C398 C393 1.390 . S
C398 C394 1.392 . S
C398 H415 0.930 . S
C399 O384 1.255 . S
C399 O385 1.257 . S
C400 Eu336 2.787 . S
C400 O380 1.252 . S
C400 O383 1.268 . S
C400 C393 1.506 . S
C401 C368 1.439 . S
C401 H378 0.931 . S
C401 C402 1.374 . S
C402 C373 1.387 . S
C402 H379 0.931 . S
C402 C401 1.374 . S
C403 O387 1.249 . S
C403 O388 1.264 . S
C404 C407 1.382 . S
C404 C408 1.390 . S
C404 C411 1.506 . S
C405 C406 1.398 . S
C405 C408 1.392 . S
C406 C405 1.398 . S
C406 C409 1.372 . S
C406 H416 0.931 . S
C407 C404 1.382 . S
C407 C409 1.390 . S
C407 H417 0.931 . S
C408 C404 1.390 . S
C408 C405 1.392 . S
C408 H418 0.930 . S
C409 C406 1.372 . S
C409 C407 1.390 . S
C409 H419 0.929 . S
C410 O390 1.255 . S
C410 O391 1.257 . S
C411 Eu347 2.787 . S
C411 O386 1.252 . S
C411 O389 1.268 . S
C411 C404 1.506 . S
H412 C395 0.931 . S
H413 C396 0.931 . S
H414 C397 0.929 . S
H415 C398 0.930 . S
H416 C406 0.931 . S
H417 C407 0.931 . S
H418 C408 0.930 . S
H419 C409 0.929 . S
Eu420 N449 2.600 . S
Eu420 N455 2.562 . S
Eu420 O464 2.462 . S
Eu420 O465 2.373 . S
Eu420 O467 2.432 . S
Eu420 O468 2.291 . S
Eu420 O472 2.335 . S
Eu420 O475 2.372 . S
Eu420 C484 2.787 . S
C421 N422 1.365 . S
C421 C424 1.405 . S
C421 C428 1.448 . S
N422 C421 1.365 . S
N422 C425 1.319 . S
N422 Eu431 2.600 . S
C423 C425 1.397 . S
C423 C426 1.367 . S
C423 H443 0.931 . S
C424 C421 1.405 . S
C424 C426 1.403 . S
C424 C430 1.439 . S
C425 N422 1.319 . S
C425 C423 1.397 . S
C425 H436 0.930 . S
C426 C423 1.367 . S
C426 C424 1.403 . S
C426 H447 0.929 . S
C427 C428 1.430 . S
C427 C429 1.387 . S
C427 C433 1.404 . S
C428 C421 1.448 . S
C428 C427 1.430 . S
C428 N432 1.351 . S
C429 C427 1.387 . S
C429 C430 1.374 . S
C429 H444 0.931 . S
C430 C424 1.439 . S
C430 C429 1.374 . S
C430 H445 0.931 . S
Eu431 N422 2.600 . S
Eu431 N432 2.562 . S
Eu431 O466 2.335 . S
Eu431 O469 2.372 . S
Eu431 O470 2.462 . S
Eu431 O471 2.373 . S
Eu431 O473 2.432 . S
Eu431 O474 2.291 . S
Eu431 C495 2.787 . S
N432 C428 1.351 . S
N432 Eu431 2.562 . S
N432 C434 1.325 . S
C433 C427 1.404 . S
C433 C435 1.366 . S
C433 H441 0.930 . S
C434 N432 1.325 . S
C434 C435 1.416 . S
C434 H440 0.929 . S
C435 C433 1.366 . S
C435 C434 1.416 . S
C435 H437 0.930 . S
H436 C425 0.930 . S
H437 C435 0.930 . S
H438 C453 0.930 . S
H439 C460 0.930 . S
H440 C434 0.929 . S
H441 C433 0.930 . S
H442 C456 0.929 . S
H443 C423 0.931 . S
H444 C429 0.931 . S
H445 C430 0.931 . S
H446 C451 0.931 . S
H447 C426 0.929 . S
H448 C459 0.930 . S
N449 Eu420 2.600 . S
N449 C450 1.365 . S
N449 C453 1.319 . S
C450 N449 1.365 . S
C450 C452 1.405 . S
C450 C458 1.448 . S
C451 H446 0.931 . S
C451 C453 1.397 . S
C451 C454 1.367 . S
C452 C450 1.405 . S
C452 C454 1.403 . S
C452 C485 1.439 . S
C453 H438 0.930 . S
C453 N449 1.319 . S
C453 C451 1.397 . S
C454 C451 1.367 . S
C454 C452 1.403 . S
C454 H461 0.929 . S
N455 Eu420 2.562 . S
N455 C456 1.325 . S
N455 C458 1.351 . S
C456 H442 0.929 . S
C456 N455 1.325 . S
C456 C460 1.416 . S
C457 C458 1.430 . S
C457 C459 1.404 . S
C457 C486 1.387 . S
C458 C450 1.448 . S
C458 N455 1.351 . S
C458 C457 1.430 . S
C459 H448 0.930 . S
C459 C457 1.404 . S
C459 C460 1.366 . S
C460 H439 0.930 . S
C460 C456 1.416 . S
C460 C459 1.366 . S
H461 C454 0.929 . S
H462 C485 0.931 . S
H463 C486 0.931 . S
O464 Eu420 2.462 . S
O464 C484 1.252 . S
O465 Eu420 2.373 . S
O465 C476 1.249 . S
O466 Eu431 2.335 . S
O466 C476 1.264 . S
O467 Eu420 2.432 . S
O467 C484 1.268 . S
O468 Eu420 2.291 . S
O468 C483 1.255 . S
O469 Eu431 2.372 . S
O469 C483 1.257 . S
O470 Eu431 2.462 . S
O470 C495 1.252 . S
O471 Eu431 2.373 . S
O471 C487 1.249 . S
O472 Eu420 2.335 . S
O472 C487 1.264 . S
O473 Eu431 2.432 . S
O473 C495 1.268 . S
O474 Eu431 2.291 . S
O474 C494 1.255 . S
O475 Eu420 2.372 . S
O475 C494 1.257 . S
C476 O465 1.249 . S
C476 O466 1.264 . S
C477 C480 1.382 . S
C477 C482 1.390 . S
C477 C484 1.506 . S
C478 C479 1.398 . S
C478 C482 1.392 . S
C479 C478 1.398 . S
C479 C481 1.372 . S
C479 H496 0.931 . S
C480 C477 1.382 . S
C480 C481 1.390 . S
C480 H497 0.931 . S
C481 C479 1.372 . S
C481 C480 1.390 . S
C481 H498 0.929 . S
C482 C477 1.390 . S
C482 C478 1.392 . S
C482 H499 0.930 . S
C483 O468 1.255 . S
C483 O469 1.257 . S
C484 Eu420 2.787 . S
C484 O464 1.252 . S
C484 O467 1.268 . S
C484 C477 1.506 . S
C485 C452 1.439 . S
C485 H462 0.931 . S
C485 C486 1.374 . S
C486 C457 1.387 . S
C486 H463 0.931 . S
C486 C485 1.374 . S
C487 O471 1.249 . S
C487 O472 1.264 . S
C488 C491 1.382 . S
C488 C492 1.390 . S
C488 C495 1.506 . S
C489 C490 1.398 . S
C489 C492 1.392 . S
C490 C489 1.398 . S
C490 C493 1.372 . S
C490 H500 0.931 . S
C491 C488 1.382 . S
C491 C493 1.390 . S
C491 H501 0.931 . S
C492 C488 1.390 . S
C492 C489 1.392 . S
C492 H502 0.930 . S
C493 C490 1.372 . S
C493 C491 1.390 . S
C493 H503 0.929 . S
C494 O474 1.255 . S
C494 O475 1.257 . S
C495 Eu431 2.787 . S
C495 O470 1.252 . S
C495 O473 1.268 . S
C495 C488 1.506 . S
H496 C479 0.931 . S
H497 C480 0.931 . S
H498 C481 0.929 . S
H499 C482 0.930 . S
H500 C490 0.931 . S
H501 C491 0.931 . S
H502 C492 0.930 . S
H503 C493 0.929 . S
Eu504 N533 2.600 . S
Eu504 N539 2.562 . S
Eu504 O548 2.462 . S
Eu504 O549 2.373 . S
Eu504 O551 2.432 . S
Eu504 O552 2.291 . S
Eu504 O556 2.335 . S
Eu504 O559 2.372 . S
Eu504 C568 2.787 . S
C505 N506 1.365 . S
C505 C508 1.405 . S
C505 C512 1.448 . S
N506 C505 1.365 . S
N506 C509 1.319 . S
N506 Eu515 2.600 . S
C507 C509 1.397 . S
C507 C510 1.367 . S
C507 H527 0.931 . S
C508 C505 1.405 . S
C508 C510 1.403 . S
C508 C514 1.439 . S
C509 N506 1.319 . S
C509 C507 1.397 . S
C509 H520 0.930 . S
C510 C507 1.367 . S
C510 C508 1.403 . S
C510 H531 0.929 . S
C511 C512 1.430 . S
C511 C513 1.387 . S
C511 C517 1.404 . S
C512 C505 1.448 . S
C512 C511 1.430 . S
C512 N516 1.351 . S
C513 C511 1.387 . S
C513 C514 1.374 . S
C513 H528 0.931 . S
C514 C508 1.439 . S
C514 C513 1.374 . S
C514 H529 0.931 . S
Eu515 N506 2.600 . S
Eu515 N516 2.562 . S
Eu515 O550 2.335 . S
Eu515 O553 2.372 . S
Eu515 O554 2.462 . S
Eu515 O555 2.373 . S
Eu515 O557 2.432 . S
Eu515 O558 2.291 . S
Eu515 C579 2.787 . S
N516 C512 1.351 . S
N516 Eu515 2.562 . S
N516 C518 1.325 . S
C517 C511 1.404 . S
C517 C519 1.366 . S
C517 H525 0.930 . S
C518 N516 1.325 . S
C518 C519 1.416 . S
C518 H524 0.929 . S
C519 C517 1.366 . S
C519 C518 1.416 . S
C519 H521 0.930 . S
H520 C509 0.930 . S
H521 C519 0.930 . S
H522 C537 0.930 . S
H523 C544 0.930 . S
H524 C518 0.929 . S
H525 C517 0.930 . S
H526 C540 0.929 . S
H527 C507 0.931 . S
H528 C513 0.931 . S
H529 C514 0.931 . S
H530 C535 0.931 . S
H531 C510 0.929 . S
H532 C543 0.930 . S
N533 Eu504 2.600 . S
N533 C534 1.365 . S
N533 C537 1.319 . S
C534 N533 1.365 . S
C534 C536 1.405 . S
C534 C542 1.448 . S
C535 H530 0.931 . S
C535 C537 1.397 . S
C535 C538 1.367 . S
C536 C534 1.405 . S
C536 C538 1.403 . S
C536 C569 1.439 . S
C537 H522 0.930 . S
C537 N533 1.319 . S
C537 C535 1.397 . S
C538 C535 1.367 . S
C538 C536 1.403 . S
C538 H545 0.929 . S
N539 Eu504 2.562 . S
N539 C540 1.325 . S
N539 C542 1.351 . S
C540 H526 0.929 . S
C540 N539 1.325 . S
C540 C544 1.416 . S
C541 C542 1.430 . S
C541 C543 1.404 . S
C541 C570 1.387 . S
C542 C534 1.448 . S
C542 N539 1.351 . S
C542 C541 1.430 . S
C543 H532 0.930 . S
C543 C541 1.404 . S
C543 C544 1.366 . S
C544 H523 0.930 . S
C544 C540 1.416 . S
C544 C543 1.366 . S
H545 C538 0.929 . S
H546 C569 0.931 . S
H547 C570 0.931 . S
O548 Eu504 2.462 . S
O548 C568 1.252 . S
O549 Eu504 2.373 . S
O549 C560 1.249 . S
O550 Eu515 2.335 . S
O550 C560 1.264 . S
O551 Eu504 2.432 . S
O551 C568 1.268 . S
O552 Eu504 2.291 . S
O552 C567 1.255 . S
O553 Eu515 2.372 . S
O553 C567 1.257 . S
O554 Eu515 2.462 . S
O554 C579 1.252 . S
O555 Eu515 2.373 . S
O555 C571 1.249 . S
O556 Eu504 2.335 . S
O556 C571 1.264 . S
O557 Eu515 2.432 . S
O557 C579 1.268 . S
O558 Eu515 2.291 . S
O558 C578 1.255 . S
O559 Eu504 2.372 . S
O559 C578 1.257 . S
C560 O549 1.249 . S
C560 O550 1.264 . S
C561 C564 1.382 . S
C561 C566 1.390 . S
C561 C568 1.506 . S
C562 C563 1.398 . S
C562 C566 1.392 . S
C563 C562 1.398 . S
C563 C565 1.372 . S
C563 H580 0.931 . S
C564 C561 1.382 . S
C564 C565 1.390 . S
C564 H581 0.931 . S
C565 C563 1.372 . S
C565 C564 1.390 . S
C565 H582 0.929 . S
C566 C561 1.390 . S
C566 C562 1.392 . S
C566 H583 0.930 . S
C567 O552 1.255 . S
C567 O553 1.257 . S
C568 Eu504 2.787 . S
C568 O548 1.252 . S
C568 O551 1.268 . S
C568 C561 1.506 . S
C569 C536 1.439 . S
C569 H546 0.931 . S
C569 C570 1.374 . S
C570 C541 1.387 . S
C570 H547 0.931 . S
C570 C569 1.374 . S
C571 O555 1.249 . S
C571 O556 1.264 . S
C572 C575 1.382 . S
C572 C576 1.390 . S
C572 C579 1.506 . S
C573 C574 1.398 . S
C573 C576 1.392 . S
C574 C573 1.398 . S
C574 C577 1.372 . S
C574 H584 0.931 . S
C575 C572 1.382 . S
C575 C577 1.390 . S
C575 H585 0.931 . S
C576 C572 1.390 . S
C576 C573 1.392 . S
C576 H586 0.930 . S
C577 C574 1.372 . S
C577 C575 1.390 . S
C577 H587 0.929 . S
C578 O558 1.255 . S
C578 O559 1.257 . S
C579 Eu515 2.787 . S
C579 O554 1.252 . S
C579 O557 1.268 . S
C579 C572 1.506 . S
H580 C563 0.931 . S
H581 C564 0.931 . S
H582 C565 0.929 . S
H583 C566 0.930 . S
H584 C574 0.931 . S
H585 C575 0.931 . S
H586 C576 0.930 . S
H587 C577 0.929 . S
Eu588 N617 2.600 . S
Eu588 N623 2.562 1_655 S
Eu588 O632 2.462 . S
Eu588 O633 2.373 1_655 S
Eu588 O635 2.432 . S
Eu588 O636 2.291 1_655 S
Eu588 O640 2.335 . S
Eu588 O643 2.372 . S
Eu588 C652 2.787 . S
C589 N590 1.365 . S
C589 C592 1.405 . S
C589 C596 1.448 . S
N590 C589 1.365 . S
N590 C593 1.319 . S
N590 Eu599 2.600 . S
C591 C593 1.397 . S
C591 C594 1.367 . S
C591 H611 0.931 . S
C592 C589 1.405 . S
C592 C594 1.403 . S
C592 C598 1.439 . S
C593 N590 1.319 . S
C593 C591 1.397 . S
C593 H604 0.930 . S
C594 C591 1.367 . S
C594 C592 1.403 . S
C594 H615 0.929 . S
C595 C596 1.430 1_655 S
C595 C597 1.387 . S
C595 C601 1.404 . S
C596 C589 1.448 . S
C596 C595 1.430 1_455 S
C596 N600 1.351 . S
C597 C595 1.387 . S
C597 C598 1.374 1_655 S
C597 H612 0.931 . S
C598 C592 1.439 . S
C598 C597 1.374 1_455 S
C598 H613 0.937 . S
Eu599 N590 2.600 . S
Eu599 N600 2.562 . S
Eu599 O634 2.335 . S
Eu599 O637 2.372 . S
Eu599 O638 2.462 . S
Eu599 O639 2.373 1_455 S
Eu599 O641 2.432 . S
Eu599 O642 2.291 1_455 S
Eu599 C663 2.787 . S
N600 C596 1.351 . S
N600 Eu599 2.562 . S
N600 C602 1.325 1_455 S
C601 C595 1.404 . S
C601 C603 1.366 . S
C601 H609 0.930 . S
C602 N600 1.325 1_655 S
C602 C603 1.416 . S
C602 H608 0.929 . S
C603 C601 1.366 . S
C603 C602 1.416 . S
C603 H605 0.930 . S
H604 C593 0.930 . S
H605 C603 0.930 . S
H606 C621 0.930 . S
H607 C628 0.930 . S
H608 C602 0.929 . S
H609 C601 0.930 . S
H610 C624 0.929 . S
H611 C591 0.931 . S
H612 C597 0.931 . S
H613 C598 0.937 . S
H614 C619 0.931 . S
H615 C594 0.929 . S
H616 C627 0.930 . S
N617 Eu588 2.600 . S
N617 C618 1.365 . S
N617 C621 1.319 . S
C618 N617 1.365 . S
C618 C620 1.405 . S
C618 C626 1.448 1_655 S
C619 H614 0.931 . S
C619 C621 1.397 . S
C619 C622 1.367 . S
C620 C618 1.405 . S
C620 C622 1.403 . S
C620 C653 1.439 1_655 S
C621 H606 0.930 . S
C621 N617 1.319 . S
C621 C619 1.397 . S
C622 C619 1.367 . S
C622 C620 1.403 . S
C622 H629 0.929 . S
N623 Eu588 2.562 1_455 S
N623 C624 1.325 . S
N623 C626 1.351 . S
C624 H610 0.929 . S
C624 N623 1.325 . S
C624 C628 1.416 . S
C625 C626 1.430 . S
C625 C627 1.404 . S
C625 C654 1.387 . S
C626 C618 1.448 1_455 S
C626 N623 1.351 . S
C626 C625 1.430 . S
C627 H616 0.930 . S
C627 C625 1.404 . S
C627 C628 1.366 . S
C628 H607 0.930 . S
C628 C624 1.416 . S
C628 C627 1.366 . S
H629 C622 0.929 . S
H630 C653 0.931 . S
H631 C654 0.931 . S
O632 Eu588 2.462 . S
O632 C652 1.252 . S
O633 Eu588 2.373 1_455 S
O633 C644 1.249 . S
O634 Eu599 2.335 . S
O634 C644 1.264 . S
O635 Eu588 2.432 . S
O635 C652 1.268 . S
O636 Eu588 2.291 1_455 S
O636 C651 1.255 . S
O637 Eu599 2.372 . S
O637 C651 1.257 . S
O638 Eu599 2.462 . S
O638 C663 1.252 . S
O639 Eu599 2.373 1_655 S
O639 C655 1.249 . S
O640 Eu588 2.335 . S
O640 C655 1.264 . S
O641 Eu599 2.432 . S
O641 C663 1.268 . S
O642 Eu599 2.291 1_655 S
O642 C662 1.255 . S
O643 Eu588 2.372 . S
O643 C662 1.257 . S
C644 O633 1.249 . S
C644 O634 1.264 . S
C645 C648 1.382 . S
C645 C650 1.390 . S
C645 C652 1.506 . S
C646 C647 1.398 . S
C646 C650 1.392 . S
C647 C646 1.398 . S
C647 C649 1.372 . S
C647 H664 0.931 . S
C648 C645 1.382 . S
C648 C649 1.390 . S
C648 H665 0.931 . S
C649 C647 1.372 . S
C649 C648 1.390 . S
C649 H666 0.929 . S
C650 C645 1.390 . S
C650 C646 1.392 . S
C650 H667 0.930 . S
C651 O636 1.255 . S
C651 O637 1.257 . S
C652 Eu588 2.787 . S
C652 O632 1.252 . S
C652 O635 1.268 . S
C652 C645 1.506 . S
C653 C620 1.439 1_455 S
C653 H630 0.931 . S
C653 C654 1.374 . S
C654 C625 1.387 . S
C654 H631 0.931 . S
C654 C653 1.374 . S
C655 O639 1.249 . S
C655 O640 1.264 . S
C656 C659 1.382 . S
C656 C660 1.390 . S
C656 C663 1.506 . S
C657 C658 1.398 . S
C657 C660 1.392 . S
C658 C657 1.398 . S
C658 C661 1.372 . S
C658 H668 0.931 . S
C659 C656 1.382 . S
C659 C661 1.390 . S
C659 H669 0.931 . S
C660 C656 1.390 . S
C660 C657 1.392 . S
C660 H670 0.930 . S
C661 C658 1.372 . S
C661 C659 1.390 . S
C661 H671 0.929 . S
C662 O642 1.255 . S
C662 O643 1.257 . S
C663 Eu599 2.787 . S
C663 O638 1.252 . S
C663 O641 1.268 . S
C663 C656 1.506 . S
H664 C647 0.931 . S
H665 C648 0.931 . S
H666 C649 0.929 . S
H667 C650 0.930 . S
H668 C658 0.931 . S
H669 C659 0.931 . S
H670 C660 0.930 . S
H671 C661 0.929 . S
Eu672 N701 2.600 . S
Eu672 N707 2.562 . S
Eu672 O716 2.462 . S
Eu672 O717 2.373 . S
Eu672 O719 2.432 . S
Eu672 O720 2.291 1_556 S
Eu672 O724 2.335 1_556 S
Eu672 O727 2.372 . S
Eu672 C736 2.787 . S
C673 N674 1.365 . S
C673 C676 1.405 . S
C673 C680 1.448 . S
N674 C673 1.365 . S
N674 C677 1.319 . S
N674 Eu683 2.600 . S
C675 C677 1.397 . S
C675 C678 1.367 . S
C675 H695 0.931 . S
C676 C673 1.405 . S
C676 C678 1.403 . S
C676 C682 1.439 . S
C677 N674 1.319 . S
C677 C675 1.397 . S
C677 H688 0.930 . S
C678 C675 1.367 . S
C678 C676 1.403 . S
C678 H699 0.929 . S
C679 C680 1.430 . S
C679 C681 1.387 . S
C679 C685 1.404 . S
C680 C673 1.448 . S
C680 C679 1.430 . S
C680 N684 1.351 . S
C681 C679 1.387 . S
C681 C682 1.374 . S
C681 H696 0.931 . S
C682 C676 1.439 . S
C682 C681 1.374 . S
C682 H697 0.931 . S
Eu683 N674 2.600 . S
Eu683 N684 2.562 . S
Eu683 O718 2.335 1_554 S
Eu683 O721 2.372 . S
Eu683 O722 2.462 . S
Eu683 O723 2.373 . S
Eu683 O725 2.432 . S
Eu683 O726 2.291 1_554 S
Eu683 C747 2.787 . S
N684 C680 1.351 . S
N684 Eu683 2.562 . S
N684 C686 1.325 . S
C685 C679 1.404 . S
C685 C687 1.366 . S
C685 H693 0.930 . S
C686 N684 1.325 . S
C686 C687 1.416 . S
C686 H692 0.929 . S
C687 C685 1.366 . S
C687 C686 1.416 . S
C687 H689 0.930 . S
H688 C677 0.930 . S
H689 C687 0.930 . S
H690 C705 0.930 . S
H691 C712 0.930 . S
H692 C686 0.929 . S
H693 C685 0.930 . S
H694 C708 0.929 . S
H695 C675 0.931 . S
H696 C681 0.931 . S
H697 C682 0.931 . S
H698 C703 0.931 . S
H699 C678 0.929 . S
H700 C711 0.930 . S
N701 Eu672 2.600 . S
N701 C702 1.365 . S
N701 C705 1.319 . S
C702 N701 1.365 . S
C702 C704 1.405 . S
C702 C710 1.448 . S
C703 H698 0.931 . S
C703 C705 1.397 . S
C703 C706 1.367 . S
C704 C702 1.405 . S
C704 C706 1.403 . S
C704 C737 1.439 . S
C705 H690 0.930 . S
C705 N701 1.319 . S
C705 C703 1.397 . S
C706 C703 1.367 . S
C706 C704 1.403 . S
C706 H713 0.929 . S
N707 Eu672 2.562 . S
N707 C708 1.325 . S
N707 C710 1.351 . S
C708 H694 0.929 . S
C708 N707 1.325 . S
C708 C712 1.416 . S
C709 C710 1.430 . S
C709 C711 1.404 . S
C709 C738 1.387 . S
C710 C702 1.448 . S
C710 N707 1.351 . S
C710 C709 1.430 . S
C711 H700 0.930 . S
C711 C709 1.404 . S
C711 C712 1.366 . S
C712 H691 0.930 . S
C712 C708 1.416 . S
C712 C711 1.366 . S
H713 C706 0.929 . S
H714 C737 0.931 . S
H715 C738 0.931 . S
O716 Eu672 2.462 . S
O716 C736 1.252 . S
O717 Eu672 2.373 . S
O717 C728 1.249 . S
O718 Eu683 2.335 1_556 S
O718 C728 1.264 . S
O719 Eu672 2.432 . S
O719 C736 1.268 . S
O720 Eu672 2.291 1_554 S
O720 C735 1.255 . S
O721 Eu683 2.372 . S
O721 C735 1.257 . S
O722 Eu683 2.462 . S
O722 C747 1.252 . S
O723 Eu683 2.373 . S
O723 C739 1.249 . S
O724 Eu672 2.335 1_554 S
O724 C739 1.264 . S
O725 Eu683 2.432 . S
O725 C747 1.268 . S
O726 Eu683 2.291 1_556 S
O726 C746 1.255 . S
O727 Eu672 2.372 . S
O727 C746 1.257 . S
C728 O717 1.249 . S
C728 O718 1.264 . S
C729 C732 1.382 . S
C729 C734 1.390 . S
C729 C736 1.506 . S
C730 C731 1.398 . S
C730 C734 1.392 . S
C731 C730 1.398 . S
C731 C733 1.372 . S
C731 H748 0.931 . S
C732 C729 1.382 . S
C732 C733 1.390 . S
C732 H749 0.931 . S
C733 C731 1.372 . S
C733 C732 1.390 . S
C733 H750 0.929 . S
C734 C729 1.390 . S
C734 C730 1.392 . S
C734 H751 0.930 1_556 S
C735 O720 1.255 . S
C735 O721 1.257 . S
C736 Eu672 2.787 . S
C736 O716 1.252 . S
C736 O719 1.268 . S
C736 C729 1.506 . S
C737 C704 1.439 . S
C737 H714 0.931 . S
C737 C738 1.374 . S
C738 C709 1.387 . S
C738 H715 0.931 . S
C738 C737 1.374 . S
C739 O723 1.249 . S
C739 O724 1.264 . S
C740 C743 1.382 . S
C740 C744 1.390 . S
C740 C747 1.506 . S
C741 C742 1.398 . S
C741 C744 1.392 . S
C742 C741 1.398 . S
C742 C745 1.372 . S
C742 H752 0.931 . S
C743 C740 1.382 . S
C743 C745 1.390 . S
C743 H753 0.931 . S
C744 C740 1.390 . S
C744 C741 1.392 . S
C744 H754 0.930 . S
C745 C742 1.372 . S
C745 C743 1.390 . S
C745 H755 0.929 . S
C746 O726 1.255 . S
C746 O727 1.257 . S
C747 Eu683 2.787 . S
C747 O722 1.252 . S
C747 O725 1.268 . S
C747 C740 1.506 . S
H748 C731 0.931 . S
H749 C732 0.931 . S
H750 C733 0.929 . S
H751 C734 0.930 1_554 S
H752 C742 0.931 . S
H753 C743 0.931 . S
H754 C744 0.930 . S
H755 C745 0.929 . S
Eu756 N785 2.600 . S
Eu756 N791 2.562 . S
Eu756 O800 2.462 . S
Eu756 O801 2.373 . S
Eu756 O803 2.432 . S
Eu756 O804 2.291 1_545 S
Eu756 O808 2.335 1_545 S
Eu756 O811 2.372 . S
Eu756 C820 2.787 . S
C757 N758 1.365 . S
C757 C760 1.405 . S
C757 C764 1.448 . S
N758 C757 1.365 . S
N758 C761 1.319 . S
N758 Eu767 2.600 . S
C759 C761 1.397 . S
C759 C762 1.367 . S
C759 H779 0.931 . S
C760 C757 1.405 . S
C760 C762 1.403 . S
C760 C766 1.439 . S
C761 N758 1.319 . S
C761 C759 1.397 . S
C761 H772 0.930 . S
C762 C759 1.367 . S
C762 C760 1.403 . S
C762 H783 0.929 . S
C763 C764 1.430 . S
C763 C765 1.387 . S
C763 C769 1.404 . S
C764 C757 1.448 . S
C764 C763 1.430 . S
C764 N768 1.351 . S
C765 C763 1.387 . S
C765 C766 1.374 . S
C765 H780 0.931 . S
C766 C760 1.439 . S
C766 C765 1.374 . S
C766 H781 0.931 . S
Eu767 N758 2.600 . S
Eu767 N768 2.562 . S
Eu767 O802 2.335 1_565 S
Eu767 O805 2.372 . S
Eu767 O806 2.462 1_565 S
Eu767 O807 2.373 . S
Eu767 O809 2.432 . S
Eu767 O810 2.291 1_565 S
Eu767 C831 2.787 . S
N768 C764 1.351 . S
N768 Eu767 2.562 . S
N768 C770 1.325 . S
C769 C763 1.404 . S
C769 C771 1.366 . S
C769 H777 0.930 . S
C770 N768 1.325 . S
C770 C771 1.416 . S
C770 H776 0.929 . S
C771 C769 1.366 . S
C771 C770 1.416 . S
C771 H773 0.930 . S
H772 C761 0.930 . S
H773 C771 0.930 . S
H774 C789 0.930 . S
H775 C796 0.930 . S
H776 C770 0.929 . S
H777 C769 0.930 . S
H778 C792 0.929 . S
H779 C759 0.931 . S
H780 C765 0.931 . S
H781 C766 0.931 . S
H782 C787 0.931 . S
H783 C762 0.929 . S
H784 C795 0.930 . S
N785 Eu756 2.600 . S
N785 C786 1.365 . S
N785 C789 1.319 . S
C786 N785 1.365 . S
C786 C788 1.405 . S
C786 C794 1.448 . S
C787 H782 0.931 . S
C787 C789 1.397 . S
C787 C790 1.367 . S
C788 C786 1.405 . S
C788 C790 1.403 . S
C788 C821 1.439 . S
C789 H774 0.930 . S
C789 N785 1.319 . S
C789 C787 1.397 . S
C790 C787 1.367 . S
C790 C788 1.403 . S
C790 H797 0.929 . S
N791 Eu756 2.562 . S
N791 C792 1.325 . S
N791 C794 1.351 . S
C792 H778 0.929 . S
C792 N791 1.325 . S
C792 C796 1.416 . S
C793 C794 1.430 . S
C793 C795 1.404 . S
C793 C822 1.387 . S
C794 C786 1.448 . S
C794 N791 1.351 . S
C794 C793 1.430 . S
C795 H784 0.930 . S
C795 C793 1.404 . S
C795 C796 1.366 . S
C796 H775 0.930 . S
C796 C792 1.416 . S
C796 C795 1.366 . S
H797 C790 0.929 . S
H798 C821 0.931 . S
H799 C822 0.931 . S
O800 Eu756 2.462 . S
O800 C820 1.252 . S
O801 Eu756 2.373 . S
O801 C812 1.249 . S
O802 Eu767 2.335 1_545 S
O802 C812 1.264 . S
O803 Eu756 2.432 . S
O803 C820 1.268 . S
O804 Eu756 2.291 1_565 S
O804 C819 1.255 . S
O805 Eu767 2.372 . S
O805 C819 1.257 . S
O806 Eu767 2.462 1_545 S
O806 C831 1.252 1_545 S
O807 Eu767 2.373 . S
O807 C823 1.249 . S
O808 Eu756 2.335 1_565 S
O808 C823 1.264 . S
O809 Eu767 2.432 . S
O809 C831 1.268 . S
O810 Eu767 2.291 1_545 S
O810 C830 1.255 . S
O811 Eu756 2.372 . S
O811 C830 1.257 . S
C812 O801 1.249 . S
C812 O802 1.264 . S
C813 C816 1.382 . S
C813 C818 1.390 1_545 S
C813 C820 1.506 . S
C814 C815 1.398 1_565 S
C814 C818 1.392 . S
C815 C814 1.398 1_545 S
C815 C817 1.372 . S
C815 H832 0.930 1_545 S
C816 C813 1.382 . S
C816 C817 1.390 . S
C816 H833 0.931 . S
C817 C815 1.372 . S
C817 C816 1.390 . S
C817 H834 0.929 . S
C818 C813 1.390 1_565 S
C818 C814 1.392 . S
C818 H835 0.930 . S
C819 O804 1.255 . S
C819 O805 1.257 . S
C820 Eu756 2.787 . S
C820 O800 1.252 . S
C820 O803 1.268 . S
C820 C813 1.506 . S
C821 C788 1.439 . S
C821 H798 0.931 . S
C821 C822 1.374 . S
C822 C793 1.387 . S
C822 H799 0.931 . S
C822 C821 1.374 . S
C823 O807 1.249 . S
C823 O808 1.264 . S
C824 C827 1.380 1_545 S
C824 C828 1.392 . S
C824 C831 1.507 1_545 S
C825 C826 1.398 . S
C825 C828 1.392 . S
C826 C825 1.398 . S
C826 C829 1.372 1_545 S
C826 H836 0.931 . S
C827 C824 1.380 1_565 S
C827 C829 1.390 . S
C827 H837 0.931 . S
C828 C824 1.392 . S
C828 C825 1.392 . S
C828 H838 0.930 . S
C829 C826 1.372 1_565 S
C829 C827 1.390 . S
C829 H839 0.929 . S
C830 O810 1.255 . S
C830 O811 1.257 . S
C831 Eu767 2.787 . S
C831 O806 1.252 1_565 S
C831 O809 1.268 . S
C831 C824 1.507 1_565 S
H832 C815 0.930 1_565 S
H833 C816 0.931 . S
H834 C817 0.929 . S
H835 C818 0.930 . S
H836 C826 0.931 . S
H837 C827 0.931 . S
H838 C828 0.930 . S
H839 C829 0.929 . S
Eu840 N869 2.600 . S
Eu840 N875 2.562 . S
Eu840 O884 2.462 . S
Eu840 O885 2.373 . S
Eu840 O887 2.432 . S
Eu840 O888 2.291 . S
Eu840 O892 2.335 . S
Eu840 O895 2.372 . S
Eu840 C904 2.787 . S
C841 N842 1.365 . S
C841 C844 1.405 . S
C841 C848 1.448 . S
N842 C841 1.365 . S
N842 C845 1.319 . S
N842 Eu851 2.600 . S
C843 C845 1.397 . S
C843 C846 1.367 . S
C843 H863 0.931 . S
C844 C841 1.405 . S
C844 C846 1.403 . S
C844 C850 1.439 . S
C845 N842 1.319 . S
C845 C843 1.397 . S
C845 H856 0.930 . S
C846 C843 1.367 . S
C846 C844 1.403 . S
C846 H867 0.929 . S
C847 C848 1.430 . S
C847 C849 1.387 . S
C847 C853 1.404 . S
C848 C841 1.448 . S
C848 C847 1.430 . S
C848 N852 1.351 . S
C849 C847 1.387 . S
C849 C850 1.374 . S
C849 H864 0.931 . S
C850 C844 1.439 . S
C850 C849 1.374 . S
C850 H865 0.931 . S
Eu851 N842 2.600 . S
Eu851 N852 2.562 . S
Eu851 O886 2.335 . S
Eu851 O889 2.372 . S
Eu851 O890 2.462 . S
Eu851 O891 2.373 . S
Eu851 O893 2.432 . S
Eu851 O894 2.291 . S
Eu851 C915 2.787 . S
N852 C848 1.351 . S
N852 Eu851 2.562 . S
N852 C854 1.325 . S
C853 C847 1.404 . S
C853 C855 1.366 . S
C853 H861 0.930 . S
C854 N852 1.325 . S
C854 C855 1.416 . S
C854 H860 0.929 . S
C855 C853 1.366 . S
C855 C854 1.416 . S
C855 H857 0.930 . S
H856 C845 0.930 . S
H857 C855 0.930 . S
H858 C873 0.930 . S
H859 C880 0.930 . S
H860 C854 0.929 . S
H861 C853 0.930 . S
H862 C876 0.929 . S
H863 C843 0.931 . S
H864 C849 0.931 . S
H865 C850 0.931 . S
H866 C871 0.931 . S
H867 C846 0.929 . S
H868 C879 0.930 . S
N869 Eu840 2.600 . S
N869 C870 1.365 . S
N869 C873 1.319 . S
C870 N869 1.365 . S
C870 C872 1.405 . S
C870 C878 1.448 . S
C871 H866 0.931 . S
C871 C873 1.397 . S
C871 C874 1.367 . S
C872 C870 1.405 . S
C872 C874 1.403 . S
C872 C905 1.439 . S
C873 H858 0.930 . S
C873 N869 1.319 . S
C873 C871 1.397 . S
C874 C871 1.367 . S
C874 C872 1.403 . S
C874 H881 0.929 . S
N875 Eu840 2.562 . S
N875 C876 1.325 . S
N875 C878 1.351 . S
C876 H862 0.929 . S
C876 N875 1.325 . S
C876 C880 1.416 . S
C877 C878 1.430 . S
C877 C879 1.404 . S
C877 C906 1.387 . S
C878 C870 1.448 . S
C878 N875 1.351 . S
C878 C877 1.430 . S
C879 H868 0.930 . S
C879 C877 1.404 . S
C879 C880 1.366 . S
C880 H859 0.930 . S
C880 C876 1.416 . S
C880 C879 1.366 . S
H881 C874 0.929 . S
H882 C905 0.931 . S
H883 C906 0.931 . S
O884 Eu840 2.462 . S
O884 C904 1.252 . S
O885 Eu840 2.373 . S
O885 C896 1.249 . S
O886 Eu851 2.335 . S
O886 C896 1.264 . S
O887 Eu840 2.432 . S
O887 C904 1.268 . S
O888 Eu840 2.291 . S
O888 C903 1.255 . S
O889 Eu851 2.372 . S
O889 C903 1.257 . S
O890 Eu851 2.462 . S
O890 C915 1.252 . S
O891 Eu851 2.373 . S
O891 C907 1.249 . S
O892 Eu840 2.335 . S
O892 C907 1.264 . S
O893 Eu851 2.432 . S
O893 C915 1.268 . S
O894 Eu851 2.291 . S
O894 C914 1.255 . S
O895 Eu840 2.372 . S
O895 C914 1.257 . S
C896 O885 1.249 . S
C896 O886 1.264 . S
C897 C900 1.382 . S
C897 C902 1.390 . S
C897 C904 1.506 . S
C898 C899 1.398 . S
C898 C902 1.392 . S
C899 C898 1.398 . S
C899 C901 1.372 . S
C899 H916 0.931 . S
C900 C897 1.382 . S
C900 C901 1.390 . S
C900 H917 0.931 . S
C901 C899 1.372 . S
C901 C900 1.390 . S
C901 H918 0.929 . S
C902 C897 1.390 . S
C902 C898 1.392 . S
C902 H919 0.930 . S
C903 O888 1.255 . S
C903 O889 1.257 . S
C904 Eu840 2.787 . S
C904 O884 1.252 . S
C904 O887 1.268 . S
C904 C897 1.506 . S
C905 C872 1.439 . S
C905 H882 0.931 . S
C905 C906 1.374 . S
C906 C877 1.387 . S
C906 H883 0.931 . S
C906 C905 1.374 . S
C907 O891 1.249 . S
C907 O892 1.264 . S
C908 C911 1.382 . S
C908 C912 1.390 . S
C908 C915 1.506 . S
C909 C910 1.398 . S
C909 C912 1.392 . S
C910 C909 1.398 . S
C910 C913 1.372 . S
C910 H920 0.931 . S
C911 C908 1.382 . S
C911 C913 1.390 . S
C911 H921 0.931 . S
C912 C908 1.390 . S
C912 C909 1.392 . S
C912 H922 0.930 . S
C913 C910 1.372 . S
C913 C911 1.390 . S
C913 H923 0.929 . S
C914 O894 1.255 . S
C914 O895 1.257 . S
C915 Eu851 2.787 . S
C915 O890 1.252 . S
C915 O893 1.268 . S
C915 C908 1.506 . S
H916 C899 0.931 . S
H917 C900 0.931 . S
H918 C901 0.929 . S
H919 C902 0.930 . S
H920 C910 0.931 . S
H921 C911 0.931 . S
H922 C912 0.930 . S
H923 C913 0.929 . S
Eu924 N953 2.600 . S
Eu924 N959 2.562 . S
Eu924 O968 2.462 1_655 S
Eu924 O969 2.373 . S
Eu924 O971 2.432 . S
Eu924 O972 2.291 1_655 S
Eu924 O976 2.335 1_655 S
Eu924 O979 2.372 . S
Eu924 C988 2.787 . S
C925 N926 1.365 . S
C925 C928 1.405 . S
C925 C932 1.448 . S
N926 C925 1.365 . S
N926 C929 1.319 . S
N926 Eu935 2.600 . S
C927 C929 1.397 . S
C927 C930 1.367 . S
C927 H947 0.931 . S
C928 C925 1.405 . S
C928 C930 1.403 . S
C928 C934 1.439 . S
C929 N926 1.319 . S
C929 C927 1.397 . S
C929 H940 0.930 . S
C930 C927 1.367 . S
C930 C928 1.403 . S
C930 H951 0.929 . S
C931 C932 1.430 . S
C931 C933 1.387 . S
C931 C937 1.404 . S
C932 C925 1.448 . S
C932 C931 1.430 . S
C932 N936 1.351 . S
C933 C931 1.387 . S
C933 C934 1.374 . S
C933 H948 0.931 . S
C934 C928 1.439 . S
C934 C933 1.374 . S
C934 H949 0.931 . S
Eu935 N926 2.600 . S
Eu935 N936 2.562 . S
Eu935 O970 2.335 1_455 S
Eu935 O973 2.372 . S
Eu935 O974 2.462 . S
Eu935 O975 2.373 . S
Eu935 O977 2.432 . S
Eu935 O978 2.291 1_455 S
Eu935 C999 2.787 . S
N936 C932 1.351 . S
N936 Eu935 2.562 . S
N936 C938 1.325 . S
C937 C931 1.404 . S
C937 C939 1.366 . S
C937 H945 0.930 . S
C938 N936 1.325 . S
C938 C939 1.416 . S
C938 H944 0.929 . S
C939 C937 1.366 . S
C939 C938 1.416 . S
C939 H941 0.930 . S
H940 C929 0.930 . S
H941 C939 0.930 . S
H942 C957 0.930 . S
H943 C964 0.930 . S
H944 C938 0.929 . S
H945 C937 0.930 . S
H946 C960 0.929 . S
H947 C927 0.931 . S
H948 C933 0.931 . S
H949 C934 0.931 . S
H950 C955 0.931 . S
H951 C930 0.929 . S
H952 C963 0.930 . S
N953 Eu924 2.600 . S
N953 C954 1.365 . S
N953 C957 1.319 . S
C954 N953 1.365 . S
C954 C956 1.405 . S
C954 C962 1.448 . S
C955 H950 0.931 . S
C955 C957 1.397 . S
C955 C958 1.367 . S
C956 C954 1.405 . S
C956 C958 1.403 . S
C956 C989 1.439 . S
C957 H942 0.930 . S
C957 N953 1.319 . S
C957 C955 1.397 . S
C958 C955 1.367 . S
C958 C956 1.403 . S
C958 H965 0.929 . S
N959 Eu924 2.562 . S
N959 C960 1.325 . S
N959 C962 1.351 . S
C960 H946 0.929 . S
C960 N959 1.325 . S
C960 C964 1.416 . S
C961 C962 1.430 . S
C961 C963 1.404 . S
C961 C990 1.387 . S
C962 C954 1.448 . S
C962 N959 1.351 . S
C962 C961 1.430 . S
C963 H952 0.930 . S
C963 C961 1.404 . S
C963 C964 1.366 . S
C964 H943 0.930 . S
C964 C960 1.416 . S
C964 C963 1.366 . S
H965 C958 0.929 . S
H966 C989 0.931 . S
H967 C990 0.931 . S
O968 Eu924 2.462 1_455 S
O968 C988 1.252 1_455 S
O969 Eu924 2.373 . S
O969 C980 1.249 . S
O970 Eu935 2.335 1_655 S
O970 C980 1.264 . S
O971 Eu924 2.432 . S
O971 C988 1.268 . S
O972 Eu924 2.291 1_455 S
O972 C987 1.255 . S
O973 Eu935 2.372 . S
O973 C987 1.257 . S
O974 Eu935 2.462 . S
O974 C999 1.252 . S
O975 Eu935 2.373 . S
O975 C991 1.249 . S
O976 Eu924 2.335 1_455 S
O976 C991 1.264 . S
O977 Eu935 2.432 . S
O977 C999 1.268 . S
O978 Eu935 2.291 1_655 S
O978 C998 1.255 . S
O979 Eu924 2.372 . S
O979 C998 1.257 . S
C980 O969 1.249 . S
C980 O970 1.264 . S
C981 C984 1.382 1_455 S
C981 C986 1.390 . S
C981 C988 1.506 1_455 S
C982 C983 1.398 . S
C982 C986 1.392 . S
C983 C982 1.398 . S
C983 C985 1.372 1_455 S
C983 H1000 0.931 . S
C984 C981 1.382 1_655 S
C984 C985 1.390 . S
C984 H1001 0.931 . S
C985 C983 1.372 1_655 S
C985 C984 1.390 . S
C985 H1002 0.929 . S
C986 C981 1.390 . S
C986 C982 1.392 . S
C986 H1003 0.930 . S
C987 O972 1.255 . S
C987 O973 1.257 . S
C988 Eu924 2.787 . S
C988 O968 1.252 1_655 S
C988 O971 1.268 . S
C988 C981 1.506 1_655 S
C989 C956 1.439 . S
C989 H966 0.931 . S
C989 C990 1.374 . S
C990 C961 1.387 . S
C990 H967 0.931 . S
C990 C989 1.374 . S
C991 O975 1.249 . S
C991 O976 1.264 . S
C992 C995 1.382 . S
C992 C996 1.390 1_455 S
C992 C999 1.506 . S
C993 C994 1.381 1_655 S
C993 C996 1.392 . S
C994 C993 1.381 1_455 S
C994 C997 1.383 . S
C994 H1004 0.937 1_455 S
C995 C992 1.382 . S
C995 C997 1.390 . S
C995 H1005 0.931 . S
C996 C992 1.390 1_655 S
C996 C993 1.392 . S
C996 H1006 0.930 . S
C997 C994 1.383 . S
C997 C995 1.390 . S
C997 H1007 0.929 . S
C998 O978 1.255 . S
C998 O979 1.257 . S
C999 Eu935 2.787 . S
C999 O974 1.252 . S
C999 O977 1.268 . S
C999 C992 1.506 . S
H1000 C983 0.931 . S
H1001 C984 0.931 . S
H1002 C985 0.929 . S
H1003 C986 0.930 . S
H1004 C994 0.937 1_655 S
H1005 C995 0.931 . S
H1006 C996 0.930 . S
H1007 C997 0.929 . S
Eu1008 N1037 2.600 . S
Eu1008 N1043 2.562 . S
Eu1008 O1052 2.462 . S
Eu1008 O1053 2.373 . S
Eu1008 O1055 2.432 . S
Eu1008 O1056 2.291 . S
Eu1008 O1060 2.335 . S
Eu1008 O1063 2.372 . S
Eu1008 C1072 2.787 . S
C1009 N1010 1.365 . S
C1009 C1012 1.405 . S
C1009 C1016 1.448 . S
N1010 C1009 1.365 . S
N1010 C1013 1.319 . S
N1010 Eu1019 2.600 . S
C1011 C1013 1.397 . S
C1011 C1014 1.367 . S
C1011 H1031 0.931 . S
C1012 C1009 1.405 . S
C1012 C1014 1.403 . S
C1012 C1018 1.439 . S
C1013 N1010 1.319 . S
C1013 C1011 1.397 . S
C1013 H1024 0.930 . S
C1014 C1011 1.367 . S
C1014 C1012 1.403 . S
C1014 H1035 0.929 . S
C1015 C1016 1.430 . S
C1015 C1017 1.387 . S
C1015 C1021 1.404 . S
C1016 C1009 1.448 . S
C1016 C1015 1.430 . S
C1016 N1020 1.351 . S
C1017 C1015 1.387 . S
C1017 C1018 1.374 . S
C1017 H1032 0.931 . S
C1018 C1012 1.439 . S
C1018 C1017 1.374 . S
C1018 H1033 0.931 . S
Eu1019 N1010 2.600 . S
Eu1019 N1020 2.562 . S
Eu1019 O1054 2.335 . S
Eu1019 O1057 2.372 . S
Eu1019 O1058 2.462 . S
Eu1019 O1059 2.373 . S
Eu1019 O1061 2.432 . S
Eu1019 O1062 2.291 . S
Eu1019 C1083 2.787 . S
N1020 C1016 1.351 . S
N1020 Eu1019 2.562 . S
N1020 C1022 1.325 . S
C1021 C1015 1.404 . S
C1021 C1023 1.366 . S
C1021 H1029 0.930 . S
C1022 N1020 1.325 . S
C1022 C1023 1.416 . S
C1022 H1028 0.929 . S
C1023 C1021 1.366 . S
C1023 C1022 1.416 . S
C1023 H1025 0.930 . S
H1024 C1013 0.930 . S
H1025 C1023 0.930 . S
H1026 C1041 0.930 . S
H1027 C1048 0.930 . S
H1028 C1022 0.929 . S
H1029 C1021 0.930 . S
H1030 C1044 0.929 . S
H1031 C1011 0.931 . S
H1032 C1017 0.931 . S
H1033 C1018 0.931 . S
H1034 C1039 0.931 . S
H1035 C1014 0.929 . S
H1036 C1047 0.930 . S
N1037 Eu1008 2.600 . S
N1037 C1038 1.365 . S
N1037 C1041 1.319 . S
C1038 N1037 1.365 . S
C1038 C1040 1.405 . S
C1038 C1046 1.448 . S
C1039 H1034 0.931 . S
C1039 C1041 1.397 . S
C1039 C1042 1.367 . S
C1040 C1038 1.405 . S
C1040 C1042 1.403 . S
C1040 C1073 1.439 . S
C1041 H1026 0.930 . S
C1041 N1037 1.319 . S
C1041 C1039 1.397 . S
C1042 C1039 1.367 . S
C1042 C1040 1.403 . S
C1042 H1049 0.929 . S
N1043 Eu1008 2.562 . S
N1043 C1044 1.325 . S
N1043 C1046 1.351 . S
C1044 H1030 0.929 . S
C1044 N1043 1.325 . S
C1044 C1048 1.416 . S
C1045 C1046 1.430 . S
C1045 C1047 1.404 . S
C1045 C1074 1.387 . S
C1046 C1038 1.448 . S
C1046 N1043 1.351 . S
C1046 C1045 1.430 . S
C1047 H1036 0.930 . S
C1047 C1045 1.404 . S
C1047 C1048 1.366 . S
C1048 H1027 0.930 . S
C1048 C1044 1.416 . S
C1048 C1047 1.366 . S
H1049 C1042 0.929 . S
H1050 C1073 0.931 . S
H1051 C1074 0.931 . S
O1052 Eu1008 2.462 . S
O1052 C1072 1.252 . S
O1053 Eu1008 2.373 . S
O1053 C1064 1.249 . S
O1054 Eu1019 2.335 . S
O1054 C1064 1.264 . S
O1055 Eu1008 2.432 . S
O1055 C1072 1.268 . S
O1056 Eu1008 2.291 . S
O1056 C1071 1.255 . S
O1057 Eu1019 2.372 . S
O1057 C1071 1.257 . S
O1058 Eu1019 2.462 . S
O1058 C1083 1.252 . S
O1059 Eu1019 2.373 . S
O1059 C1075 1.249 . S
O1060 Eu1008 2.335 . S
O1060 C1075 1.264 . S
O1061 Eu1019 2.432 . S
O1061 C1083 1.268 . S
O1062 Eu1019 2.291 . S
O1062 C1082 1.255 . S
O1063 Eu1008 2.372 . S
O1063 C1082 1.257 . S
C1064 O1053 1.249 . S
C1064 O1054 1.264 . S
C1065 C1068 1.382 . S
C1065 C1070 1.390 . S
C1065 C1072 1.506 . S
C1066 C1067 1.398 . S
C1066 C1070 1.392 . S
C1067 C1066 1.398 . S
C1067 C1069 1.372 . S
C1067 H1084 0.931 . S
C1068 C1065 1.382 . S
C1068 C1069 1.390 . S
C1068 H1085 0.931 . S
C1069 C1067 1.372 . S
C1069 C1068 1.390 . S
C1069 H1086 0.929 . S
C1070 C1065 1.390 . S
C1070 C1066 1.392 . S
C1070 H1087 0.930 . S
C1071 O1056 1.255 . S
C1071 O1057 1.257 . S
C1072 Eu1008 2.787 . S
C1072 O1052 1.252 . S
C1072 O1055 1.268 . S
C1072 C1065 1.506 . S
C1073 C1040 1.439 . S
C1073 H1050 0.931 . S
C1073 C1074 1.374 . S
C1074 C1045 1.387 . S
C1074 H1051 0.931 . S
C1074 C1073 1.374 . S
C1075 O1059 1.249 . S
C1075 O1060 1.264 . S
C1076 C1079 1.382 . S
C1076 C1080 1.390 . S
C1076 C1083 1.506 . S
C1077 C1078 1.398 . S
C1077 C1080 1.392 . S
C1078 C1077 1.398 . S
C1078 C1081 1.372 . S
C1078 H1088 0.931 . S
C1079 C1076 1.382 . S
C1079 C1081 1.390 . S
C1079 H1089 0.931 . S
C1080 C1076 1.390 . S
C1080 C1077 1.392 . S
C1080 H1090 0.930 . S
C1081 C1078 1.372 . S
C1081 C1079 1.390 . S
C1081 H1091 0.929 . S
C1082 O1062 1.255 . S
C1082 O1063 1.257 . S
C1083 Eu1019 2.787 . S
C1083 O1058 1.252 . S
C1083 O1061 1.268 . S
C1083 C1076 1.506 . S
H1084 C1067 0.931 . S
H1085 C1068 0.931 . S
H1086 C1069 0.929 . S
H1087 C1070 0.930 . S
H1088 C1078 0.931 . S
H1089 C1079 0.931 . S
H1090 C1080 0.930 . S
H1091 C1081 0.929 . S
Eu1092 N1121 2.600 . S
Eu1092 N1127 2.562 . S
Eu1092 O1136 2.462 . S
Eu1092 O1137 2.373 . S
Eu1092 O1139 2.432 . S
Eu1092 O1140 2.291 1_556 S
Eu1092 O1144 2.335 1_556 S
Eu1092 O1147 2.372 . S
Eu1092 C1156 2.787 . S
C1093 N1094 1.365 . S
C1093 C1096 1.405 . S
C1093 C1100 1.448 . S
N1094 C1093 1.365 . S
N1094 C1097 1.319 . S
N1094 Eu1103 2.600 . S
C1095 C1097 1.397 . S
C1095 C1098 1.367 . S
C1095 H1115 0.931 . S
C1096 C1093 1.405 . S
C1096 C1098 1.403 . S
C1096 C1102 1.439 . S
C1097 N1094 1.319 . S
C1097 C1095 1.397 . S
C1097 H1108 0.930 . S
C1098 C1095 1.367 . S
C1098 C1096 1.403 . S
C1098 H1119 0.929 . S
C1099 C1100 1.430 . S
C1099 C1101 1.387 . S
C1099 C1105 1.404 . S
C1100 C1093 1.448 . S
C1100 C1099 1.430 . S
C1100 N1104 1.351 . S
C1101 C1099 1.387 . S
C1101 C1102 1.374 . S
C1101 H1116 0.931 . S
C1102 C1096 1.439 . S
C1102 C1101 1.374 . S
C1102 H1117 0.931 . S
Eu1103 N1094 2.600 . S
Eu1103 N1104 2.562 . S
Eu1103 O1138 2.335 1_554 S
Eu1103 O1141 2.372 . S
Eu1103 O1142 2.462 . S
Eu1103 O1143 2.373 . S
Eu1103 O1145 2.432 . S
Eu1103 O1146 2.291 1_554 S
Eu1103 C1167 2.787 . S
N1104 C1100 1.351 . S
N1104 Eu1103 2.562 . S
N1104 C1106 1.325 . S
C1105 C1099 1.404 . S
C1105 C1107 1.366 . S
C1105 H1113 0.930 . S
C1106 N1104 1.325 . S
C1106 C1107 1.416 . S
C1106 H1112 0.929 . S
C1107 C1105 1.366 . S
C1107 C1106 1.416 . S
C1107 H1109 0.930 . S
H1108 C1097 0.930 . S
H1109 C1107 0.930 . S
H1110 C1125 0.930 . S
H1111 C1132 0.930 . S
H1112 C1106 0.929 . S
H1113 C1105 0.930 . S
H1114 C1128 0.929 . S
H1115 C1095 0.931 . S
H1116 C1101 0.931 . S
H1117 C1102 0.931 . S
H1118 C1123 0.931 . S
H1119 C1098 0.929 . S
H1120 C1131 0.930 . S
N1121 Eu1092 2.600 . S
N1121 C1122 1.365 . S
N1121 C1125 1.319 . S
C1122 N1121 1.365 . S
C1122 C1124 1.405 . S
C1122 C1130 1.448 . S
C1123 H1118 0.931 . S
C1123 C1125 1.397 . S
C1123 C1126 1.367 . S
C1124 C1122 1.405 . S
C1124 C1126 1.403 . S
C1124 C1157 1.439 . S
C1125 H1110 0.930 . S
C1125 N1121 1.319 . S
C1125 C1123 1.397 . S
C1126 C1123 1.367 . S
C1126 C1124 1.403 . S
C1126 H1133 0.929 . S
N1127 Eu1092 2.562 . S
N1127 C1128 1.325 . S
N1127 C1130 1.351 . S
C1128 H1114 0.929 . S
C1128 N1127 1.325 . S
C1128 C1132 1.416 . S
C1129 C1130 1.430 . S
C1129 C1131 1.404 . S
C1129 C1158 1.387 . S
C1130 C1122 1.448 . S
C1130 N1127 1.351 . S
C1130 C1129 1.430 . S
C1131 H1120 0.930 . S
C1131 C1129 1.404 . S
C1131 C1132 1.366 . S
C1132 H1111 0.930 . S
C1132 C1128 1.416 . S
C1132 C1131 1.366 . S
H1133 C1126 0.929 . S
H1134 C1157 0.931 . S
H1135 C1158 0.931 . S
O1136 Eu1092 2.462 . S
O1136 C1156 1.252 . S
O1137 Eu1092 2.373 . S
O1137 C1148 1.249 . S
O1138 Eu1103 2.335 1_556 S
O1138 C1148 1.264 . S
O1139 Eu1092 2.432 . S
O1139 C1156 1.268 . S
O1140 Eu1092 2.291 1_554 S
O1140 C1155 1.255 . S
O1141 Eu1103 2.372 . S
O1141 C1155 1.257 . S
O1142 Eu1103 2.462 . S
O1142 C1167 1.252 . S
O1143 Eu1103 2.373 . S
O1143 C1159 1.249 . S
O1144 Eu1092 2.335 1_554 S
O1144 C1159 1.264 . S
O1145 Eu1103 2.432 . S
O1145 C1167 1.268 . S
O1146 Eu1103 2.291 1_556 S
O1146 C1166 1.255 . S
O1147 Eu1092 2.372 . S
O1147 C1166 1.257 . S
C1148 O1137 1.249 . S
C1148 O1138 1.264 . S
C1149 C1152 1.382 . S
C1149 C1154 1.390 . S
C1149 C1156 1.506 . S
C1150 C1151 1.398 . S
C1150 C1154 1.392 . S
C1151 C1150 1.398 . S
C1151 C1153 1.372 . S
C1151 H1168 0.931 . S
C1152 C1149 1.382 . S
C1152 C1153 1.390 . S
C1152 H1169 0.931 . S
C1153 C1151 1.372 . S
C1153 C1152 1.390 . S
C1153 H1170 0.929 . S
C1154 C1149 1.390 . S
C1154 C1150 1.392 . S
C1154 H1171 0.930 1_556 S
C1155 O1140 1.255 . S
C1155 O1141 1.257 . S
C1156 Eu1092 2.787 . S
C1156 O1136 1.252 . S
C1156 O1139 1.268 . S
C1156 C1149 1.506 . S
C1157 C1124 1.439 . S
C1157 H1134 0.931 . S
C1157 C1158 1.374 . S
C1158 C1129 1.387 . S
C1158 H1135 0.931 . S
C1158 C1157 1.374 . S
C1159 O1143 1.249 . S
C1159 O1144 1.264 . S
C1160 C1163 1.382 . S
C1160 C1164 1.390 . S
C1160 C1167 1.506 . S
C1161 C1162 1.398 . S
C1161 C1164 1.392 . S
C1162 C1161 1.398 . S
C1162 C1165 1.372 . S
C1162 H1172 0.931 . S
C1163 C1160 1.382 . S
C1163 C1165 1.390 . S
C1163 H1173 0.931 . S
C1164 C1160 1.390 . S
C1164 C1161 1.392 . S
C1164 H1174 0.930 . S
C1165 C1162 1.372 . S
C1165 C1163 1.390 . S
C1165 H1175 0.929 . S
C1166 O1146 1.255 . S
C1166 O1147 1.257 . S
C1167 Eu1103 2.787 . S
C1167 O1142 1.252 . S
C1167 O1145 1.268 . S
C1167 C1160 1.506 . S
H1168 C1151 0.931 . S
H1169 C1152 0.931 . S
H1170 C1153 0.929 . S
H1171 C1154 0.930 1_554 S
H1172 C1162 0.931 . S
H1173 C1163 0.931 . S
H1174 C1164 0.930 . S
H1175 C1165 0.929 . S
Eu1176 N1205 2.600 . S
Eu1176 N1211 2.562 . S
Eu1176 O1220 2.462 . S
Eu1176 O1221 2.373 . S
Eu1176 O1223 2.432 . S
Eu1176 O1224 2.291 . S
Eu1176 O1228 2.335 1_565 S
Eu1176 O1231 2.372 1_565 S
Eu1176 C1240 2.787 . S
C1177 N1178 1.365 . S
C1177 C1180 1.405 . S
C1177 C1184 1.448 . S
N1178 C1177 1.365 . S
N1178 C1181 1.319 . S
N1178 Eu1187 2.600 . S
C1179 C1181 1.397 . S
C1179 C1182 1.367 . S
C1179 H1199 0.931 1_545 S
C1180 C1177 1.405 . S
C1180 C1182 1.403 . S
C1180 C1186 1.439 . S
C1181 N1178 1.319 . S
C1181 C1179 1.397 . S
C1181 H1192 0.930 1_545 S
C1182 C1179 1.367 . S
C1182 C1180 1.403 . S
C1182 H1203 0.929 . S
C1183 C1184 1.430 . S
C1183 C1185 1.387 . S
C1183 C1189 1.404 . S
C1184 C1177 1.448 . S
C1184 C1183 1.430 . S
C1184 N1188 1.351 . S
C1185 C1183 1.387 . S
C1185 C1186 1.374 . S
C1185 H1200 0.931 . S
C1186 C1180 1.439 . S
C1186 C1185 1.374 . S
C1186 H1201 0.931 . S
Eu1187 N1178 2.600 . S
Eu1187 N1188 2.562 . S
Eu1187 O1222 2.335 . S
Eu1187 O1225 2.372 1_545 S
Eu1187 O1226 2.462 . S
Eu1187 O1227 2.373 . S
Eu1187 O1229 2.432 . S
Eu1187 O1230 2.291 . S
Eu1187 C1251 2.787 . S
N1188 C1184 1.351 . S
N1188 Eu1187 2.562 . S
N1188 C1190 1.325 . S
C1189 C1183 1.404 . S
C1189 C1191 1.366 . S
C1189 H1197 0.930 . S
C1190 N1188 1.325 . S
C1190 C1191 1.416 . S
C1190 H1196 0.929 . S
C1191 C1189 1.366 . S
C1191 C1190 1.416 . S
C1191 H1193 0.930 . S
H1192 C1181 0.930 1_565 S
H1193 C1191 0.930 . S
H1194 C1209 0.930 . S
H1195 C1216 0.930 . S
H1196 C1190 0.929 . S
H1197 C1189 0.930 . S
H1198 C1212 0.929 . S
H1199 C1179 0.931 1_565 S
H1200 C1185 0.931 . S
H1201 C1186 0.931 . S
H1202 C1207 0.931 . S
H1203 C1182 0.929 . S
H1204 C1215 0.930 . S
N1205 Eu1176 2.600 . S
N1205 C1206 1.365 . S
N1205 C1209 1.319 1_565 S
C1206 N1205 1.365 . S
C1206 C1208 1.405 . S
C1206 C1214 1.448 . S
C1207 H1202 0.931 . S
C1207 C1209 1.397 . S
C1207 C1210 1.367 1_545 S
C1208 C1206 1.405 . S
C1208 C1210 1.403 . S
C1208 C1241 1.439 . S
C1209 H1194 0.930 . S
C1209 N1205 1.319 1_545 S
C1209 C1207 1.397 . S
C1210 C1207 1.367 1_565 S
C1210 C1208 1.403 . S
C1210 H1217 0.929 . S
N1211 Eu1176 2.562 . S
N1211 C1212 1.325 . S
N1211 C1214 1.351 . S
C1212 H1198 0.929 . S
C1212 N1211 1.325 . S
C1212 C1216 1.416 . S
C1213 C1214 1.430 . S
C1213 C1215 1.404 . S
C1213 C1242 1.387 . S
C1214 C1206 1.448 . S
C1214 N1211 1.351 . S
C1214 C1213 1.430 . S
C1215 H1204 0.930 . S
C1215 C1213 1.404 . S
C1215 C1216 1.366 . S
C1216 H1195 0.930 . S
C1216 C1212 1.416 . S
C1216 C1215 1.366 . S
H1217 C1210 0.929 . S
H1218 C1241 0.931 . S
H1219 C1242 0.931 . S
O1220 Eu1176 2.462 . S
O1220 C1240 1.252 . S
O1221 Eu1176 2.373 . S
O1221 C1232 1.249 . S
O1222 Eu1187 2.335 . S
O1222 C1232 1.264 1_545 S
O1223 Eu1176 2.432 . S
O1223 C1240 1.268 . S
O1224 Eu1176 2.291 . S
O1224 C1239 1.255 . S
O1225 Eu1187 2.372 1_565 S
O1225 C1239 1.257 . S
O1226 Eu1187 2.462 . S
O1226 C1251 1.252 . S
O1227 Eu1187 2.373 . S
O1227 C1243 1.249 . S
O1228 Eu1176 2.335 1_545 S
O1228 C1243 1.264 . S
O1229 Eu1187 2.432 . S
O1229 C1251 1.268 . S
O1230 Eu1187 2.291 . S
O1230 C1250 1.255 . S
O1231 Eu1176 2.372 1_545 S
O1231 C1250 1.257 . S
C1232 O1221 1.249 . S
C1232 O1222 1.264 1_565 S
C1233 C1236 1.382 . S
C1233 C1238 1.390 . S
C1233 C1240 1.506 . S
C1234 C1235 1.398 . S
C1234 C1238 1.392 . S
C1235 C1234 1.398 . S
C1235 C1237 1.372 . S
C1235 H1252 0.931 . S
C1236 C1233 1.382 . S
C1236 C1237 1.390 . S
C1236 H1253 0.931 . S
C1237 C1235 1.372 . S
C1237 C1236 1.390 . S
C1237 H1254 0.929 . S
C1238 C1233 1.390 . S
C1238 C1234 1.392 . S
C1238 H1255 0.930 . S
C1239 O1224 1.255 . S
C1239 O1225 1.257 . S
C1240 Eu1176 2.787 . S
C1240 O1220 1.252 . S
C1240 O1223 1.268 . S
C1240 C1233 1.506 . S
C1241 C1208 1.439 . S
C1241 H1218 0.931 . S
C1241 C1242 1.374 . S
C1242 C1213 1.387 . S
C1242 H1219 0.931 . S
C1242 C1241 1.374 . S
C1243 O1227 1.249 . S
C1243 O1228 1.264 . S
C1244 C1247 1.382 . S
C1244 C1248 1.390 . S
C1244 C1251 1.506 . S
C1245 C1246 1.398 . S
C1245 C1248 1.392 . S
C1246 C1245 1.398 . S
C1246 C1249 1.372 . S
C1246 H1256 0.931 . S
C1247 C1244 1.382 . S
C1247 C1249 1.390 . S
C1247 H1257 0.931 . S
C1248 C1244 1.390 . S
C1248 C1245 1.392 . S
C1248 H1258 0.930 . S
C1249 C1246 1.372 . S
C1249 C1247 1.390 . S
C1249 H1259 0.929 . S
C1250 O1230 1.255 . S
C1250 O1231 1.257 . S
C1251 Eu1187 2.787 . S
C1251 O1226 1.252 . S
C1251 O1229 1.268 . S
C1251 C1244 1.506 . S
H1252 C1235 0.931 . S
H1253 C1236 0.931 . S
H1254 C1237 0.929 . S
H1255 C1238 0.930 . S
H1256 C1246 0.931 . S
H1257 C1247 0.931 . S
H1258 C1248 0.930 . S
H1259 C1249 0.929 . S
Eu1260 N1289 2.600 . S
Eu1260 N1295 2.562 . S
Eu1260 O1304 2.462 . S
Eu1260 O1305 2.373 . S
Eu1260 O1307 2.432 . S
Eu1260 O1308 2.291 1_554 S
Eu1260 O1312 2.335 1_554 S
Eu1260 O1315 2.372 . S
Eu1260 C1324 2.787 . S
C1261 N1262 1.365 . S
C1261 C1264 1.405 . S
C1261 C1268 1.448 . S
N1262 C1261 1.365 . S
N1262 C1265 1.319 . S
N1262 Eu1271 2.600 . S
C1263 C1265 1.397 . S
C1263 C1266 1.367 . S
C1263 H1283 0.931 . S
C1264 C1261 1.405 . S
C1264 C1266 1.403 . S
C1264 C1270 1.439 . S
C1265 N1262 1.319 . S
C1265 C1263 1.397 . S
C1265 H1276 0.930 . S
C1266 C1263 1.367 . S
C1266 C1264 1.403 . S
C1266 H1287 0.929 . S
C1267 C1268 1.430 . S
C1267 C1269 1.387 . S
C1267 C1273 1.404 . S
C1268 C1261 1.448 . S
C1268 C1267 1.430 . S
C1268 N1272 1.351 . S
C1269 C1267 1.387 . S
C1269 C1270 1.374 . S
C1269 H1284 0.931 . S
C1270 C1264 1.439 . S
C1270 C1269 1.374 . S
C1270 H1285 0.931 . S
Eu1271 N1262 2.600 . S
Eu1271 N1272 2.562 . S
Eu1271 O1306 2.335 1_556 S
Eu1271 O1309 2.372 . S
Eu1271 O1310 2.462 . S
Eu1271 O1311 2.373 . S
Eu1271 O1313 2.432 . S
Eu1271 O1314 2.291 1_556 S
Eu1271 C1335 2.787 . S
N1272 C1268 1.351 . S
N1272 Eu1271 2.562 . S
N1272 C1274 1.325 . S
C1273 C1267 1.404 . S
C1273 C1275 1.366 . S
C1273 H1281 0.930 . S
C1274 N1272 1.325 . S
C1274 C1275 1.416 . S
C1274 H1280 0.929 . S
C1275 C1273 1.366 . S
C1275 C1274 1.416 . S
C1275 H1277 0.930 . S
H1276 C1265 0.930 . S
H1277 C1275 0.930 . S
H1278 C1293 0.930 . S
H1279 C1300 0.930 . S
H1280 C1274 0.929 . S
H1281 C1273 0.930 . S
H1282 C1296 0.929 . S
H1283 C1263 0.931 . S
H1284 C1269 0.931 . S
H1285 C1270 0.931 . S
H1286 C1291 0.931 . S
H1287 C1266 0.929 . S
H1288 C1299 0.930 . S
N1289 Eu1260 2.600 . S
N1289 C1290 1.365 . S
N1289 C1293 1.319 . S
C1290 N1289 1.365 . S
C1290 C1292 1.405 . S
C1290 C1298 1.448 . S
C1291 H1286 0.931 . S
C1291 C1293 1.397 . S
C1291 C1294 1.367 . S
C1292 C1290 1.405 . S
C1292 C1294 1.403 . S
C1292 C1325 1.439 . S
C1293 H1278 0.930 . S
C1293 N1289 1.319 . S
C1293 C1291 1.397 . S
C1294 C1291 1.367 . S
C1294 C1292 1.403 . S
C1294 H1301 0.929 . S
N1295 Eu1260 2.562 . S
N1295 C1296 1.325 . S
N1295 C1298 1.351 . S
C1296 H1282 0.929 . S
C1296 N1295 1.325 . S
C1296 C1300 1.416 . S
C1297 C1298 1.430 . S
C1297 C1299 1.404 . S
C1297 C1326 1.387 . S
C1298 C1290 1.448 . S
C1298 N1295 1.351 . S
C1298 C1297 1.430 . S
C1299 H1288 0.930 . S
C1299 C1297 1.404 . S
C1299 C1300 1.366 . S
C1300 H1279 0.930 . S
C1300 C1296 1.416 . S
C1300 C1299 1.366 . S
H1301 C1294 0.929 . S
H1302 C1325 0.931 . S
H1303 C1326 0.931 . S
O1304 Eu1260 2.462 . S
O1304 C1324 1.252 . S
O1305 Eu1260 2.373 . S
O1305 C1316 1.249 . S
O1306 Eu1271 2.335 1_554 S
O1306 C1316 1.264 . S
O1307 Eu1260 2.432 . S
O1307 C1324 1.268 . S
O1308 Eu1260 2.291 1_556 S
O1308 C1323 1.255 . S
O1309 Eu1271 2.372 . S
O1309 C1323 1.257 . S
O1310 Eu1271 2.462 . S
O1310 C1335 1.252 . S
O1311 Eu1271 2.373 . S
O1311 C1327 1.249 . S
O1312 Eu1260 2.335 1_556 S
O1312 C1327 1.264 . S
O1313 Eu1271 2.432 . S
O1313 C1335 1.268 . S
O1314 Eu1271 2.291 1_554 S
O1314 C1334 1.255 . S
O1315 Eu1260 2.372 . S
O1315 C1334 1.257 . S
C1316 O1305 1.249 . S
C1316 O1306 1.264 . S
C1317 C1320 1.382 . S
C1317 C1322 1.390 . S
C1317 C1324 1.506 . S
C1318 C1319 1.398 . S
C1318 C1322 1.392 . S
C1319 C1318 1.398 . S
C1319 C1321 1.372 . S
C1319 H1336 0.931 . S
C1320 C1317 1.382 . S
C1320 C1321 1.390 . S
C1320 H1337 0.931 . S
C1321 C1319 1.372 . S
C1321 C1320 1.390 . S
C1321 H1338 0.929 . S
C1322 C1317 1.390 . S
C1322 C1318 1.392 . S
C1322 H1339 0.930 . S
C1323 O1308 1.255 . S
C1323 O1309 1.257 . S
C1324 Eu1260 2.787 . S
C1324 O1304 1.252 . S
C1324 O1307 1.268 . S
C1324 C1317 1.506 . S
C1325 C1292 1.439 . S
C1325 H1302 0.931 . S
C1325 C1326 1.374 . S
C1326 C1297 1.387 . S
C1326 H1303 0.931 . S
C1326 C1325 1.374 . S
C1327 O1311 1.249 . S
C1327 O1312 1.264 . S
C1328 C1331 1.382 . S
C1328 C1332 1.390 . S
C1328 C1335 1.506 . S
C1329 C1330 1.398 . S
C1329 C1332 1.392 . S
C1330 C1329 1.398 . S
C1330 C1333 1.372 . S
C1330 H1340 0.931 . S
C1331 C1328 1.382 . S
C1331 C1333 1.390 . S
C1331 H1341 0.931 . S
C1332 C1328 1.390 . S
C1332 C1329 1.392 . S
C1332 H1342 0.930 . S
C1333 C1330 1.372 . S
C1333 C1331 1.390 . S
C1333 H1343 0.929 . S
C1334 O1314 1.255 . S
C1334 O1315 1.257 . S
C1335 Eu1271 2.787 . S
C1335 O1310 1.252 . S
C1335 O1313 1.268 . S
C1335 C1328 1.506 . S
H1336 C1319 0.931 . S
H1337 C1320 0.931 . S
H1338 C1321 0.929 . S
H1339 C1322 0.930 . S
H1340 C1330 0.931 . S
H1341 C1331 0.931 . S
H1342 C1332 0.930 . S
H1343 C1333 0.929 . S
H1344 C1350 0.930 . S
H1345 C1354 0.930 . S
H1346 C1359 0.929 . S
H1347 C1357 0.929 . S
H1348 C1352 0.929 . S
H1349 C1358 0.929 . S
C1350 H1344 0.930 . S
C1350 C1351 1.367 . S
C1350 C1358 1.378 . S
C1351 C1350 1.367 . S
C1351 C1359 1.433 1_655 S
C1352 H1348 0.929 . S
C1352 C1354 1.378 . S
C1352 C1356 1.350 . S
C1353 C1356 1.463 . S
C1353 C1358 1.350 1_455 S
C1353 N1361 1.427 . S
C1354 H1345 0.930 . S
C1354 C1352 1.378 . S
C1354 C1355 1.367 . S
C1355 C1354 1.367 . S
C1355 C1357 1.433 . S
C1356 C1352 1.350 . S
C1356 C1353 1.463 . S
C1356 N1360 1.427 . S
C1357 H1347 0.929 . S
C1357 C1355 1.433 . S
C1357 N1360 1.384 . S
C1358 H1349 0.929 . S
C1358 C1350 1.378 . S
C1358 C1353 1.350 1_655 S
C1359 H1346 0.929 . S
C1359 C1351 1.433 1_455 S
C1359 N1361 1.384 . S
N1360 C1356 1.427 . S
N1360 C1357 1.384 . S
N1361 C1353 1.427 . S
N1361 C1359 1.384 . S
H1362 C1368 0.930 . S
H1363 C1372 0.930 . S
H1364 C1377 0.929 . S
H1365 C1375 0.929 . S
H1366 C1370 0.929 . S
H1367 C1376 0.929 . S
C1368 H1362 0.930 . S
C1368 C1369 1.367 . S
C1368 C1376 1.378 . S
C1369 C1368 1.367 . S
C1369 C1377 1.433 . S
C1370 H1366 0.929 . S
C1370 C1372 1.378 . S
C1370 C1374 1.350 . S
C1371 C1374 1.463 . S
C1371 C1376 1.350 . S
C1371 N1379 1.427 . S
C1372 H1363 0.930 . S
C1372 C1370 1.378 . S
C1372 C1373 1.367 . S
C1373 C1372 1.367 . S
C1373 C1375 1.433 . S
C1374 C1370 1.350 . S
C1374 C1371 1.463 . S
C1374 N1378 1.427 . S
C1375 H1365 0.929 . S
C1375 C1373 1.433 . S
C1375 N1378 1.384 . S
C1376 H1367 0.929 . S
C1376 C1368 1.378 . S
C1376 C1371 1.350 . S
C1377 H1364 0.929 . S
C1377 C1369 1.433 . S
C1377 N1379 1.384 . S
N1378 C1374 1.427 . S
N1378 C1375 1.384 . S
N1379 C1371 1.427 . S
N1379 C1377 1.384 . S
H1380 C1386 0.930 . S
H1381 C1390 0.930 . S
H1382 C1395 0.929 . S
H1383 C1393 0.929 . S
H1384 C1388 0.929 . S
H1385 C1394 0.929 . S
C1386 H1380 0.930 . S
C1386 C1387 1.367 . S
C1386 C1394 1.378 . S
C1387 C1386 1.367 . S
C1387 C1395 1.433 . S
C1388 H1384 0.929 . S
C1388 C1390 1.378 . S
C1388 C1392 1.350 . S
C1389 C1392 1.463 . S
C1389 C1394 1.350 . S
C1389 N1397 1.427 . S
C1390 H1381 0.930 . S
C1390 C1388 1.378 . S
C1390 C1391 1.367 . S
C1391 C1390 1.367 . S
C1391 C1393 1.433 . S
C1392 C1388 1.350 . S
C1392 C1389 1.463 . S
C1392 N1396 1.427 . S
C1393 H1383 0.929 . S
C1393 C1391 1.433 . S
C1393 N1396 1.384 . S
C1394 H1385 0.929 . S
C1394 C1386 1.378 . S
C1394 C1389 1.350 . S
C1395 H1382 0.929 . S
C1395 C1387 1.433 . S
C1395 N1397 1.384 . S
N1396 C1392 1.427 . S
N1396 C1393 1.384 . S
N1397 C1389 1.427 . S
N1397 C1395 1.384 . S
H1398 C1404 0.930 . S
H1399 C1408 0.930 . S
H1400 C1413 0.929 . S
H1401 C1411 0.929 . S
H1402 C1406 0.929 . S
H1403 C1412 0.929 . S
C1404 H1398 0.930 . S
C1404 C1405 1.367 1_565 S
C1404 C1412 1.378 . S
C1405 C1404 1.367 1_545 S
C1405 C1413 1.433 . S
C1406 H1402 0.929 . S
C1406 C1408 1.378 . S
C1406 C1410 1.350 1_545 S
C1407 C1410 1.463 1_545 S
C1407 C1412 1.350 1_545 S
C1407 N1415 1.427 . S
C1408 H1399 0.930 . S
C1408 C1406 1.378 . S
C1408 C1409 1.367 1_545 S
C1409 C1408 1.367 1_565 S
C1409 C1411 1.433 . S
C1410 C1406 1.350 1_565 S
C1410 C1407 1.463 1_565 S
C1410 N1414 1.427 . S
C1411 H1401 0.929 . S
C1411 C1409 1.433 . S
C1411 N1414 1.384 . S
C1412 H1403 0.929 . S
C1412 C1404 1.378 . S
C1412 C1407 1.350 1_565 S
C1413 H1400 0.929 . S
C1413 C1405 1.433 . S
C1413 N1415 1.384 . S
N1414 C1410 1.427 . S
N1414 C1411 1.384 . S
N1415 C1407 1.427 . S
N1415 C1413 1.384 . S
H1416 C1422 0.930 . S
H1417 C1426 0.930 1_565 S
H1418 C1431 0.929 . S
H1419 C1429 0.929 . S
H1420 C1424 0.929 . S
H1421 C1430 0.929 . S
C1422 H1416 0.930 . S
C1422 C1423 1.367 1_545 S
C1422 C1430 1.378 . S
C1423 C1422 1.367 1_565 S
C1423 C1431 1.433 . S
C1424 H1420 0.929 . S
C1424 C1426 1.378 1_565 S
C1424 C1428 1.350 1_565 S
C1425 C1428 1.463 . S
C1425 C1430 1.350 . S
C1425 N1433 1.427 1_545 S
C1426 H1417 0.930 1_545 S
C1426 C1424 1.378 1_545 S
C1426 C1427 1.367 . S
C1427 C1426 1.367 . S
C1427 C1429 1.433 . S
C1428 C1424 1.350 1_545 S
C1428 C1425 1.463 . S
C1428 N1432 1.427 . S
C1429 H1419 0.929 . S
C1429 C1427 1.433 . S
C1429 N1432 1.384 . S
C1430 H1421 0.929 . S
C1430 C1422 1.378 . S
C1430 C1425 1.350 . S
C1431 H1418 0.929 . S
C1431 C1423 1.433 . S
C1431 N1433 1.384 . S
N1432 C1428 1.427 . S
N1432 C1429 1.384 . S
N1433 C1425 1.427 1_565 S
N1433 C1431 1.384 . S
H1434 C1440 0.930 . S
H1435 C1444 0.930 . S
H1436 C1449 0.929 . S
H1437 C1447 0.929 . S
H1438 C1442 0.929 . S
H1439 C1448 0.929 . S
C1440 H1434 0.930 . S
C1440 C1441 1.367 1_655 S
C1440 C1448 1.378 . S
C1441 C1440 1.367 1_455 S
C1441 C1449 1.433 . S
C1442 H1438 0.929 . S
C1442 C1444 1.378 . S
C1442 C1446 1.350 1_455 S
C1443 C1446 1.463 1_455 S
C1443 C1448 1.350 1_455 S
C1443 N1451 1.427 . S
C1444 H1435 0.930 . S
C1444 C1442 1.378 . S
C1444 C1445 1.367 1_455 S
C1445 C1444 1.367 1_655 S
C1445 C1447 1.433 . S
C1446 C1442 1.350 1_655 S
C1446 C1443 1.463 1_655 S
C1446 N1450 1.427 . S
C1447 H1437 0.929 . S
C1447 C1445 1.433 . S
C1447 N1450 1.384 . S
C1448 H1439 0.929 . S
C1448 C1440 1.378 . S
C1448 C1443 1.350 1_655 S
C1449 H1436 0.929 . S
C1449 C1441 1.433 . S
C1449 N1451 1.384 . S
N1450 C1446 1.427 . S
N1450 C1447 1.384 . S
N1451 C1443 1.427 . S
N1451 C1449 1.384 . S
H1452 C1458 0.930 . S
H1453 C1462 0.930 . S
H1454 C1467 0.929 . S
H1455 C1465 0.929 . S
H1456 C1460 0.929 . S
H1457 C1466 0.929 . S
C1458 H1452 0.930 . S
C1458 C1459 1.367 . S
C1458 C1466 1.378 . S
C1459 C1458 1.367 . S
C1459 C1467 1.433 . S
C1460 H1456 0.929 . S
C1460 C1462 1.378 . S
C1460 C1464 1.350 . S
C1461 C1464 1.463 . S
C1461 C1466 1.350 . S
C1461 N1469 1.427 . S
C1462 H1453 0.930 . S
C1462 C1460 1.378 . S
C1462 C1463 1.367 . S
C1463 C1462 1.367 . S
C1463 C1465 1.433 . S
C1464 C1460 1.350 . S
C1464 C1461 1.463 . S
C1464 N1468 1.427 . S
C1465 H1455 0.929 . S
C1465 C1463 1.433 . S
C1465 N1468 1.384 . S
C1466 H1457 0.929 . S
C1466 C1458 1.378 . S
C1466 C1461 1.350 . S
C1467 H1454 0.929 . S
C1467 C1459 1.433 . S
C1467 N1469 1.384 . S
N1468 C1464 1.427 . S
N1468 C1465 1.384 . S
N1469 C1461 1.427 . S
N1469 C1467 1.384 . S
H1470 C1476 0.930 . S
H1471 C1480 0.930 . S
H1472 C1485 0.929 . S
H1473 C1483 0.929 . S
H1474 C1478 0.929 . S
H1475 C1484 0.929 . S
C1476 H1470 0.930 . S
C1476 C1477 1.367 . S
C1476 C1484 1.378 . S
C1477 C1476 1.367 . S
C1477 C1485 1.433 . S
C1478 H1474 0.929 . S
C1478 C1480 1.378 . S
C1478 C1482 1.350 . S
C1479 C1482 1.463 . S
C1479 C1484 1.350 . S
C1479 N1487 1.427 . S
C1480 H1471 0.930 . S
C1480 C1478 1.378 . S
C1480 C1481 1.367 . S
C1481 C1480 1.367 . S
C1481 C1483 1.433 . S
C1482 C1478 1.350 . S
C1482 C1479 1.463 . S
C1482 N1486 1.427 . S
C1483 H1473 0.929 . S
C1483 C1481 1.433 . S
C1483 N1486 1.384 . S
C1484 H1475 0.929 . S
C1484 C1476 1.378 . S
C1484 C1479 1.350 . S
C1485 H1472 0.929 . S
C1485 C1477 1.433 . S
C1485 N1487 1.384 . S
N1486 C1482 1.427 . S
N1486 C1483 1.384 . S
N1487 C1479 1.427 . S
N1487 C1485 1.384 . S
H1488 C1494 0.930 . S
H1489 C1498 0.930 . S
H1490 C1503 0.929 . S
H1491 C1501 0.929 . S
H1492 C1496 0.929 . S
H1493 C1502 0.929 . S
C1494 H1488 0.930 . S
C1494 C1495 1.367 . S
C1494 C1502 1.378 . S
C1495 C1494 1.367 . S
C1495 C1503 1.433 . S
C1496 H1492 0.929 . S
C1496 C1498 1.378 . S
C1496 C1500 1.350 . S
C1497 C1500 1.463 . S
C1497 C1502 1.350 . S
C1497 N1505 1.427 . S
C1498 H1489 0.930 . S
C1498 C1496 1.378 . S
C1498 C1499 1.367 . S
C1499 C1498 1.367 . S
C1499 C1501 1.433 . S
C1500 C1496 1.350 . S
C1500 C1497 1.463 . S
C1500 N1504 1.427 . S
C1501 H1491 0.929 . S
C1501 C1499 1.433 . S
C1501 N1504 1.384 . S
C1502 H1493 0.929 . S
C1502 C1494 1.378 . S
C1502 C1497 1.350 . S
C1503 H1490 0.929 . S
C1503 C1495 1.433 . S
C1503 N1505 1.384 . S
N1504 C1500 1.427 . S
N1504 C1501 1.384 . S
N1505 C1497 1.427 . S
N1505 C1503 1.384 . S
H1506 C1512 0.930 . S
H1507 C1516 0.930 . S
H1508 C1521 0.929 . S
H1509 C1519 0.929 . S
H1510 C1514 0.929 . S
H1511 C1520 0.929 . S
C1512 H1506 0.930 . S
C1512 C1513 1.367 . S
C1512 C1520 1.378 . S
C1513 C1512 1.367 . S
C1513 C1521 1.433 . S
C1514 H1510 0.929 . S
C1514 C1516 1.378 . S
C1514 C1518 1.350 . S
C1515 C1518 1.463 . S
C1515 C1520 1.350 . S
C1515 N1523 1.427 . S
C1516 H1507 0.930 . S
C1516 C1514 1.378 . S
C1516 C1517 1.367 . S
C1517 C1516 1.367 . S
C1517 C1519 1.433 . S
C1518 C1514 1.350 . S
C1518 C1515 1.463 . S
C1518 N1522 1.427 . S
C1519 H1509 0.929 . S
C1519 C1517 1.433 . S
C1519 N1522 1.384 . S
C1520 H1511 0.929 . S
C1520 C1512 1.378 . S
C1520 C1515 1.350 . S
C1521 H1508 0.929 . S
C1521 C1513 1.433 . S
C1521 N1523 1.384 . S
N1522 C1518 1.427 . S
N1522 C1519 1.384 . S
N1523 C1515 1.427 . S
N1523 C1521 1.384 . S
H1524 C1530 0.930 . S
H1525 C1534 0.930 . S
H1526 C1539 0.929 . S
H1527 C1537 0.929 . S
H1528 C1532 0.929 . S
H1529 C1538 0.929 . S
C1530 H1524 0.930 . S
C1530 C1531 1.367 . S
C1530 C1538 1.378 1_565 S
C1531 C1530 1.367 . S
C1531 C1539 1.433 . S
C1532 H1528 0.929 . S
C1532 C1534 1.378 . S
C1532 C1536 1.350 . S
C1533 C1536 1.463 . S
C1533 C1538 1.350 . S
C1533 N1541 1.427 1_545 S
C1534 H1525 0.930 . S
C1534 C1532 1.378 . S
C1534 C1535 1.367 . S
C1535 C1534 1.367 . S
C1535 C1537 1.433 . S
C1536 C1532 1.350 . S
C1536 C1533 1.463 . S
C1536 N1540 1.427 . S
C1537 H1527 0.929 . S
C1537 C1535 1.433 . S
C1537 N1540 1.384 . S
C1538 H1529 0.929 . S
C1538 C1530 1.378 1_545 S
C1538 C1533 1.350 . S
C1539 H1526 0.929 . S
C1539 C1531 1.433 . S
C1539 N1541 1.384 . S
N1540 C1536 1.427 . S
N1540 C1537 1.384 . S
N1541 C1533 1.427 1_565 S
N1541 C1539 1.384 . S
H1542 C1548 0.930 1_554 S
H1543 C1552 0.930 . S
H1544 C1557 0.929 . S
H1545 C1555 0.929 . S
H1546 C1550 0.951 . S
H1547 C1556 0.929 1_655 S
C1548 H1542 0.930 1_556 S
C1548 C1549 1.367 . S
C1548 C1556 1.378 . S
C1549 C1548 1.367 . S
C1549 C1557 1.433 . S
C1550 H1546 0.951 . S
C1550 C1552 1.354 1_455 S
C1550 C1554 1.352 1_455 S
C1551 C1554 1.463 1_455 S
C1551 C1556 1.350 . S
C1551 N1559 1.427 . S
C1552 H1543 0.930 . S
C1552 C1550 1.354 1_655 S
C1552 C1553 1.367 . S
C1553 C1552 1.367 . S
C1553 C1555 1.433 . S
C1554 C1550 1.352 1_655 S
C1554 C1551 1.463 1_655 S
C1554 N1558 1.427 . S
C1555 H1545 0.929 . S
C1555 C1553 1.433 . S
C1555 N1558 1.384 . S
C1556 H1547 0.929 1_455 S
C1556 C1548 1.378 . S
C1556 C1551 1.350 . S
C1557 H1544 0.929 . S
C1557 C1549 1.433 . S
C1557 N1559 1.384 . S
N1558 C1554 1.427 . S
N1558 C1555 1.384 . S
N1559 C1551 1.427 . S
N1559 C1557 1.384 . S
H1560 C1566 0.930 . S
H1561 C1570 0.930 . S
H1562 C1575 0.929 . S
H1563 C1573 0.929 . S
H1564 C1568 0.929 . S
H1565 C1574 0.929 . S
C1566 H1560 0.930 . S
C1566 C1567 1.367 . S
C1566 C1574 1.378 . S
C1567 C1566 1.367 . S
C1567 C1575 1.433 . S
C1568 H1564 0.929 . S
C1568 C1570 1.378 . S
C1568 C1572 1.350 1_554 S
C1569 C1572 1.463 . S
C1569 C1574 1.350 . S
C1569 N1577 1.427 . S
C1570 H1561 0.930 . S
C1570 C1568 1.378 . S
C1570 C1571 1.367 1_554 S
C1571 C1570 1.367 1_556 S
C1571 C1573 1.433 . S
C1572 C1568 1.350 1_556 S
C1572 C1569 1.463 . S
C1572 N1576 1.427 . S
C1573 H1563 0.929 . S
C1573 C1571 1.433 . S
C1573 N1576 1.384 . S
C1574 H1565 0.929 . S
C1574 C1566 1.378 . S
C1574 C1569 1.350 . S
C1575 H1562 0.929 . S
C1575 C1567 1.433 . S
C1575 N1577 1.384 . S
N1576 C1572 1.427 . S
N1576 C1573 1.384 . S
N1577 C1569 1.427 . S
N1577 C1575 1.384 . S
H1578 C1584 0.930 . S
H1579 C1588 0.930 . S
H1580 C1593 0.929 . S
H1581 C1591 0.929 . S
H1582 C1586 0.929 . S
H1583 C1592 0.929 . S
C1584 H1578 0.930 . S
C1584 C1585 1.367 . S
C1584 C1592 1.378 . S
C1585 C1584 1.367 . S
C1585 C1593 1.433 . S
C1586 H1582 0.929 . S
C1586 C1588 1.378 . S
C1586 C1590 1.350 . S
C1587 C1590 1.463 . S
C1587 C1592 1.350 . S
C1587 N1595 1.427 . S
C1588 H1579 0.930 . S
C1588 C1586 1.378 . S
C1588 C1589 1.367 . S
C1589 C1588 1.367 . S
C1589 C1591 1.433 . S
C1590 C1586 1.350 . S
C1590 C1587 1.463 . S
C1590 N1594 1.427 . S
C1591 H1581 0.929 . S
C1591 C1589 1.433 . S
C1591 N1594 1.384 . S
C1592 H1583 0.929 . S
C1592 C1584 1.378 . S
C1592 C1587 1.350 . S
C1593 H1580 0.929 . S
C1593 C1585 1.433 . S
C1593 N1595 1.384 . S
N1594 C1590 1.427 . S
N1594 C1591 1.384 . S
N1595 C1587 1.427 . S
N1595 C1593 1.384 . S
H1596 C1602 0.930 . S
H1597 C1606 0.930 . S
H1598 C1611 0.929 . S
H1599 C1609 0.929 . S
H1600 C1604 0.929 . S
H1601 C1610 0.929 . S
C1602 H1596 0.930 . S
C1602 C1603 1.367 . S
C1602 C1610 1.378 . S
C1603 C1602 1.367 . S
C1603 C1611 1.433 . S
C1604 H1600 0.929 . S
C1604 C1606 1.378 . S
C1604 C1608 1.350 . S
C1605 C1608 1.463 . S
C1605 C1610 1.350 . S
C1605 N1613 1.427 . S
C1606 H1597 0.930 . S
C1606 C1604 1.378 . S
C1606 C1607 1.367 . S
C1607 C1606 1.367 . S
C1607 C1609 1.433 . S
C1608 C1604 1.350 . S
C1608 C1605 1.463 . S
C1608 N1612 1.427 . S
C1609 H1599 0.929 . S
C1609 C1607 1.433 . S
C1609 N1612 1.384 . S
C1610 H1601 0.929 . S
C1610 C1602 1.378 . S
C1610 C1605 1.350 . S
C1611 H1598 0.929 . S
C1611 C1603 1.433 . S
C1611 N1613 1.384 . S
N1612 C1608 1.427 . S
N1612 C1609 1.384 . S
N1613 C1605 1.427 . S
N1613 C1611 1.384 . S
H1614 C1620 0.930 . S
H1615 C1624 0.930 . S
H1616 C1629 0.929 . S
H1617 C1627 0.929 . S
H1618 C1622 0.929 . S
H1619 C1628 0.929 . S
C1620 H1614 0.930 . S
C1620 C1621 1.367 . S
C1620 C1628 1.378 . S
C1621 C1620 1.367 . S
C1621 C1629 1.433 . S
C1622 H1618 0.929 . S
C1622 C1624 1.378 . S
C1622 C1626 1.350 . S
C1623 C1626 1.463 . S
C1623 C1628 1.350 . S
C1623 N1631 1.427 . S
C1624 H1615 0.930 . S
C1624 C1622 1.378 . S
C1624 C1625 1.367 . S
C1625 C1624 1.367 . S
C1625 C1627 1.433 . S
C1626 C1622 1.350 . S
C1626 C1623 1.463 . S
C1626 N1630 1.427 . S
C1627 H1617 0.929 . S
C1627 C1625 1.433 . S
C1627 N1630 1.384 . S
C1628 H1619 0.929 . S
C1628 C1620 1.378 . S
C1628 C1623 1.350 . S
C1629 H1616 0.929 . S
C1629 C1621 1.433 . S
C1629 N1631 1.384 . S
N1630 C1626 1.427 . S
N1630 C1627 1.384 . S
N1631 C1623 1.427 . S
N1631 C1629 1.384 . S
H1632 C1638 0.930 . S
H1633 C1642 0.930 . S
H1634 C1647 0.929 . S
H1635 C1645 0.929 . S
H1636 C1640 0.929 . S
H1637 C1646 0.929 . S
C1638 H1632 0.930 . S
C1638 C1639 1.367 . S
C1638 C1646 1.378 . S
C1639 C1638 1.367 . S
C1639 C1647 1.433 . S
C1640 H1636 0.929 . S
C1640 C1642 1.378 . S
C1640 C1644 1.350 . S
C1641 C1644 1.463 . S
C1641 C1646 1.350 . S
C1641 N1649 1.427 . S
C1642 H1633 0.930 . S
C1642 C1640 1.378 . S
C1642 C1643 1.367 . S
C1643 C1642 1.367 . S
C1643 C1645 1.433 . S
C1644 C1640 1.350 . S
C1644 C1641 1.463 . S
C1644 N1648 1.427 . S
C1645 H1635 0.929 . S
C1645 C1643 1.433 . S
C1645 N1648 1.384 . S
C1646 H1637 0.929 . S
C1646 C1638 1.378 . S
C1646 C1641 1.350 . S
C1647 H1634 0.929 . S
C1647 C1639 1.433 . S
C1647 N1649 1.384 . S
N1648 C1644 1.427 . S
N1648 C1645 1.384 . S
N1649 C1641 1.427 . S
N1649 C1647 1.384 . S
H1650 C1656 0.930 . S
H1651 C1660 0.930 . S
H1652 C1665 0.929 . S
H1653 C1663 0.929 . S
H1654 C1658 0.929 . S
H1655 C1664 0.929 . S
C1656 H1650 0.930 . S
C1656 C1657 1.367 . S
C1656 C1664 1.378 . S
C1657 C1656 1.367 . S
C1657 C1665 1.433 . S
C1658 H1654 0.929 . S
C1658 C1660 1.378 . S
C1658 C1662 1.350 . S
C1659 C1662 1.463 . S
C1659 C1664 1.350 . S
C1659 N1667 1.427 . S
C1660 H1651 0.930 . S
C1660 C1658 1.378 . S
C1660 C1661 1.367 . S
C1661 C1660 1.367 . S
C1661 C1663 1.433 . S
C1662 C1658 1.350 . S
C1662 C1659 1.463 . S
C1662 N1666 1.427 . S
C1663 H1653 0.929 . S
C1663 C1661 1.433 . S
C1663 N1666 1.384 . S
C1664 H1655 0.929 . S
C1664 C1656 1.378 . S
C1664 C1659 1.350 . S
C1665 H1652 0.929 . S
C1665 C1657 1.433 . S
C1665 N1667 1.384 . S
N1666 C1662 1.427 . S
N1666 C1663 1.384 . S
N1667 C1659 1.427 . S
N1667 C1665 1.384 . S
H1668 C1674 0.930 . S
H1669 C1678 0.930 . S
H1670 C1683 0.929 . S
H1671 C1681 0.929 . S
H1672 C1676 0.929 . S
H1673 C1682 0.929 . S
C1674 H1668 0.930 . S
C1674 C1675 1.367 . S
C1674 C1682 1.378 . S
C1675 C1674 1.367 . S
C1675 C1683 1.433 . S
C1676 H1672 0.929 . S
C1676 C1678 1.378 . S
C1676 C1680 1.350 . S
C1677 C1680 1.463 . S
C1677 C1682 1.350 . S
C1677 N1685 1.427 . S
C1678 H1669 0.930 . S
C1678 C1676 1.378 . S
C1678 C1679 1.367 . S
C1679 C1678 1.367 . S
C1679 C1681 1.433 . S
C1680 C1676 1.350 . S
C1680 C1677 1.463 . S
C1680 N1684 1.427 . S
C1681 H1671 0.929 . S
C1681 C1679 1.433 . S
C1681 N1684 1.384 . S
C1682 H1673 0.929 . S
C1682 C1674 1.378 . S
C1682 C1677 1.350 . S
C1683 H1670 0.929 . S
C1683 C1675 1.433 . S
C1683 N1685 1.384 . S
N1684 C1680 1.427 . S
N1684 C1681 1.384 . S
N1685 C1677 1.427 . S
N1685 C1683 1.384 . S
H1686 C1692 0.930 . S
H1687 C1696 0.930 . S
H1688 C1701 0.929 . S
H1689 C1699 0.929 . S
H1690 C1694 0.929 . S
H1691 C1700 0.929 . S
C1692 H1686 0.930 . S
C1692 C1693 1.367 . S
C1692 C1700 1.378 . S
C1693 C1692 1.367 . S
C1693 C1701 1.433 . S
C1694 H1690 0.929 . S
C1694 C1696 1.378 . S
C1694 C1698 1.350 . S
C1695 C1698 1.463 . S
C1695 C1700 1.350 . S
C1695 N1703 1.427 . S
C1696 H1687 0.930 . S
C1696 C1694 1.378 . S
C1696 C1697 1.367 . S
C1697 C1696 1.367 . S
C1697 C1699 1.433 . S
C1698 C1694 1.350 . S
C1698 C1695 1.463 . S
C1698 N1702 1.427 . S
C1699 H1689 0.929 . S
C1699 C1697 1.433 . S
C1699 N1702 1.384 . S
C1700 H1691 0.929 . S
C1700 C1692 1.378 . S
C1700 C1695 1.350 . S
C1701 H1688 0.929 . S
C1701 C1693 1.433 . S
C1701 N1703 1.384 . S
N1702 C1698 1.427 . S
N1702 C1699 1.384 . S
N1703 C1695 1.427 . S
N1703 C1701 1.384 . S
H1704 C1710 0.930 . S
H1705 C1714 0.930 . S
H1706 C1719 0.929 . S
H1707 C1717 0.929 . S
H1708 C1712 0.929 . S
H1709 C1718 0.929 . S
C1710 H1704 0.930 . S
C1710 C1711 1.367 . S
C1710 C1718 1.378 . S
C1711 C1710 1.367 . S
C1711 C1719 1.433 . S
C1712 H1708 0.929 . S
C1712 C1714 1.378 . S
C1712 C1716 1.350 . S
C1713 C1716 1.463 . S
C1713 C1718 1.350 . S
C1713 N1721 1.427 . S
C1714 H1705 0.930 . S
C1714 C1712 1.378 . S
C1714 C1715 1.367 . S
C1715 C1714 1.367 . S
C1715 C1717 1.433 . S
C1716 C1712 1.350 . S
C1716 C1713 1.463 . S
C1716 N1720 1.427 . S
C1717 H1707 0.929 . S
C1717 C1715 1.433 . S
C1717 N1720 1.384 . S
C1718 H1709 0.929 . S
C1718 C1710 1.378 . S
C1718 C1713 1.350 . S
C1719 H1706 0.929 . S
C1719 C1711 1.433 . S
C1719 N1721 1.384 . S
N1720 C1716 1.427 . S
N1720 C1717 1.384 . S
N1721 C1713 1.427 . S
N1721 C1719 1.384 . S
H1722 C1728 0.930 . S
H1723 C1732 0.930 . S
H1724 C1737 0.929 . S
H1725 C1735 0.929 . S
H1726 C1730 0.929 . S
H1727 C1736 0.929 1_655 S
C1728 H1722 0.930 . S
C1728 C1729 1.367 . S
C1728 C1736 1.378 . S
C1729 C1728 1.367 . S
C1729 C1737 1.433 . S
C1730 H1726 0.929 . S
C1730 C1732 1.378 . S
C1730 C1734 1.350 . S
C1731 C1734 1.463 . S
C1731 C1736 1.350 . S
C1731 N1739 1.427 . S
C1732 H1723 0.930 . S
C1732 C1730 1.378 . S
C1732 C1733 1.367 1_455 S
C1733 C1732 1.367 1_655 S
C1733 C1735 1.433 . S
C1734 C1730 1.350 . S
C1734 C1731 1.463 . S
C1734 N1738 1.427 1_455 S
C1735 H1725 0.929 . S
C1735 C1733 1.433 . S
C1735 N1738 1.384 . S
C1736 H1727 0.929 1_455 S
C1736 C1728 1.378 . S
C1736 C1731 1.350 . S
C1737 H1724 0.929 . S
C1737 C1729 1.433 . S
C1737 N1739 1.384 . S
N1738 C1734 1.427 1_655 S
N1738 C1735 1.384 . S
N1739 C1731 1.427 . S
N1739 C1737 1.384 . S
H1740 C1746 0.930 . S
H1741 C1750 0.930 . S
H1742 C1755 0.929 . S
H1743 C1753 0.929 . S
H1744 C1748 0.929 . S
H1745 C1754 0.929 . S
C1746 H1740 0.930 . S
C1746 C1747 1.367 . S
C1746 C1754 1.378 . S
C1747 C1746 1.367 . S
C1747 C1755 1.433 . S
C1748 H1744 0.929 . S
C1748 C1750 1.378 . S
C1748 C1752 1.350 . S
C1749 C1752 1.463 . S
C1749 C1754 1.350 . S
C1749 N1757 1.427 . S
C1750 H1741 0.930 . S
C1750 C1748 1.378 . S
C1750 C1751 1.367 . S
C1751 C1750 1.367 . S
C1751 C1753 1.433 . S
C1752 C1748 1.350 . S
C1752 C1749 1.463 . S
C1752 N1756 1.427 . S
C1753 H1743 0.929 . S
C1753 C1751 1.433 . S
C1753 N1756 1.384 . S
C1754 H1745 0.929 . S
C1754 C1746 1.378 . S
C1754 C1749 1.350 . S
C1755 H1742 0.929 . S
C1755 C1747 1.433 . S
C1755 N1757 1.384 . S
N1756 C1752 1.427 . S
N1756 C1753 1.384 . S
N1757 C1749 1.427 . S
N1757 C1755 1.384 . S
H1758 C1764 0.930 . S
H1759 C1768 0.930 . S
H1760 C1773 0.929 . S
H1761 C1771 0.929 . S
H1762 C1766 0.929 . S
H1763 C1772 0.929 . S
C1764 H1758 0.930 . S
C1764 C1765 1.367 . S
C1764 C1772 1.378 . S
C1765 C1764 1.367 . S
C1765 C1773 1.433 . S
C1766 H1762 0.929 . S
C1766 C1768 1.378 . S
C1766 C1770 1.350 . S
C1767 C1770 1.463 . S
C1767 C1772 1.350 . S
C1767 N1775 1.427 . S
C1768 H1759 0.930 . S
C1768 C1766 1.378 . S
C1768 C1769 1.367 . S
C1769 C1768 1.367 . S
C1769 C1771 1.433 . S
C1770 C1766 1.350 . S
C1770 C1767 1.463 . S
C1770 N1774 1.427 . S
C1771 H1761 0.929 . S
C1771 C1769 1.433 . S
C1771 N1774 1.384 . S
C1772 H1763 0.929 . S
C1772 C1764 1.378 . S
C1772 C1767 1.350 . S
C1773 H1760 0.929 . S
C1773 C1765 1.433 . S
C1773 N1775 1.384 . S
N1774 C1770 1.427 . S
N1774 C1771 1.384 . S
N1775 C1767 1.427 . S
N1775 C1773 1.384 . S
H1776 C1782 0.930 . S
H1777 C1786 0.930 . S
H1778 C1791 0.929 . S
H1779 C1789 0.929 . S
H1780 C1784 0.929 . S
H1781 C1790 0.929 . S
C1782 H1776 0.930 . S
C1782 C1783 1.367 . S
C1782 C1790 1.378 . S
C1783 C1782 1.367 . S
C1783 C1791 1.433 . S
C1784 H1780 0.929 . S
C1784 C1786 1.378 . S
C1784 C1788 1.350 . S
C1785 C1788 1.463 . S
C1785 C1790 1.350 . S
C1785 N1793 1.427 . S
C1786 H1777 0.930 . S
C1786 C1784 1.378 . S
C1786 C1787 1.367 . S
C1787 C1786 1.367 . S
C1787 C1789 1.433 . S
C1788 C1784 1.350 . S
C1788 C1785 1.463 . S
C1788 N1792 1.427 . S
C1789 H1779 0.929 . S
C1789 C1787 1.433 . S
C1789 N1792 1.384 . S
C1790 H1781 0.929 . S
C1790 C1782 1.378 . S
C1790 C1785 1.350 . S
C1791 H1778 0.929 . S
C1791 C1783 1.433 . S
C1791 N1793 1.384 . S
N1792 C1788 1.427 . S
N1792 C1789 1.384 . S
N1793 C1785 1.427 . S
N1793 C1791 1.384 . S
H1794 C1800 0.930 . S
H1795 C1804 0.930 . S
H1796 C1809 0.929 . S
H1797 C1807 0.929 . S
H1798 C1802 0.929 . S
H1799 C1808 0.929 . S
C1800 H1794 0.930 . S
C1800 C1801 1.367 . S
C1800 C1808 1.378 . S
C1801 C1800 1.367 . S
C1801 C1809 1.433 . S
C1802 H1798 0.929 . S
C1802 C1804 1.378 . S
C1802 C1806 1.350 . S
C1803 C1806 1.463 . S
C1803 C1808 1.350 . S
C1803 N1811 1.427 . S
C1804 H1795 0.930 . S
C1804 C1802 1.378 . S
C1804 C1805 1.367 . S
C1805 C1804 1.367 . S
C1805 C1807 1.433 . S
C1806 C1802 1.350 . S
C1806 C1803 1.463 . S
C1806 N1810 1.427 . S
C1807 H1797 0.929 . S
C1807 C1805 1.433 . S
C1807 N1810 1.384 . S
C1808 H1799 0.929 . S
C1808 C1800 1.378 . S
C1808 C1803 1.350 . S
C1809 H1796 0.929 . S
C1809 C1801 1.433 . S
C1809 N1811 1.384 . S
N1810 C1806 1.427 . S
N1810 C1807 1.384 . S
N1811 C1803 1.427 . S
N1811 C1809 1.384 . S
H1812 C1818 0.930 . S
H1813 C1822 0.930 . S
H1814 C1827 0.929 . S
H1815 C1825 0.929 . S
H1816 C1820 0.929 . S
H1817 C1826 0.929 . S
C1818 H1812 0.930 . S
C1818 C1819 1.367 . S
C1818 C1826 1.378 . S
C1819 C1818 1.367 . S
C1819 C1827 1.433 1_565 S
C1820 H1816 0.929 . S
C1820 C1822 1.378 . S
C1820 C1824 1.350 . S
C1821 C1824 1.463 1_565 S
C1821 C1826 1.350 . S
C1821 N1829 1.427 1_565 S
C1822 H1813 0.930 . S
C1822 C1820 1.378 . S
C1822 C1823 1.367 . S
C1823 C1822 1.367 . S
C1823 C1825 1.433 1_545 S
C1824 C1820 1.350 . S
C1824 C1821 1.463 1_545 S
C1824 N1828 1.427 1_545 S
C1825 H1815 0.929 . S
C1825 C1823 1.433 1_565 S
C1825 N1828 1.384 . S
C1826 H1817 0.929 . S
C1826 C1818 1.378 . S
C1826 C1821 1.350 . S
C1827 H1814 0.929 . S
C1827 C1819 1.433 1_545 S
C1827 N1829 1.384 . S
N1828 C1824 1.427 1_565 S
N1828 C1825 1.384 . S
N1829 C1821 1.427 1_545 S
N1829 C1827 1.384 . S
H1830 C1836 0.936 . S
H1831 C1840 0.930 . S
H1832 C1845 0.929 . S
H1833 C1843 0.929 . S
H1834 C1838 0.929 . S
H1835 C1844 0.929 . S
C1836 H1830 0.936 . S
C1836 C1837 1.366 1_556 S
C1836 C1844 1.373 1_556 S
C1837 C1836 1.366 1_554 S
C1837 C1845 1.433 . S
C1838 H1834 0.929 . S
C1838 C1840 1.378 . S
C1838 C1842 1.350 . S
C1839 C1842 1.463 . S
C1839 C1844 1.350 . S
C1839 N1847 1.427 . S
C1840 H1831 0.930 . S
C1840 C1838 1.378 . S
C1840 C1841 1.367 . S
C1841 C1840 1.367 . S
C1841 C1843 1.433 . S
C1842 C1838 1.350 . S
C1842 C1839 1.463 . S
C1842 N1846 1.427 . S
C1843 H1833 0.929 . S
C1843 C1841 1.433 . S
C1843 N1846 1.384 . S
C1844 H1835 0.929 . S
C1844 C1836 1.373 1_554 S
C1844 C1839 1.350 . S
C1845 H1832 0.929 . S
C1845 C1837 1.433 . S
C1845 N1847 1.384 . S
N1846 C1842 1.427 . S
N1846 C1843 1.384 . S
N1847 C1839 1.427 . S
N1847 C1845 1.384 . S
H1848 C1854 0.930 . S
H1849 C1858 0.930 . S
H1850 C1863 0.929 . S
H1851 C1861 0.929 . S
H1852 C1856 0.929 . S
H1853 C1862 0.929 . S
C1854 H1848 0.930 . S
C1854 C1855 1.367 . S
C1854 C1862 1.378 . S
C1855 C1854 1.367 . S
C1855 C1863 1.433 . S
C1856 H1852 0.929 . S
C1856 C1858 1.378 . S
C1856 C1860 1.350 . S
C1857 C1860 1.463 . S
C1857 C1862 1.350 . S
C1857 N1865 1.427 . S
C1858 H1849 0.930 . S
C1858 C1856 1.378 . S
C1858 C1859 1.367 . S
C1859 C1858 1.367 . S
C1859 C1861 1.433 . S
C1860 C1856 1.350 . S
C1860 C1857 1.463 . S
C1860 N1864 1.427 . S
C1861 H1851 0.929 . S
C1861 C1859 1.433 . S
C1861 N1864 1.384 . S
C1862 H1853 0.929 . S
C1862 C1854 1.378 . S
C1862 C1857 1.350 . S
C1863 H1850 0.929 . S
C1863 C1855 1.433 . S
C1863 N1865 1.384 . S
N1864 C1860 1.427 . S
N1864 C1861 1.384 . S
N1865 C1857 1.427 . S
N1865 C1863 1.384 . S
H1866 C1872 0.930 . S
H1867 C1876 0.930 . S
H1868 C1881 0.929 . S
H1869 C1879 0.929 . S
H1870 C1874 0.929 . S
H1871 C1880 0.929 . S
C1872 H1866 0.930 . S
C1872 C1873 1.367 . S
C1872 C1880 1.378 . S
C1873 C1872 1.367 . S
C1873 C1881 1.433 . S
C1874 H1870 0.929 . S
C1874 C1876 1.378 . S
C1874 C1878 1.350 . S
C1875 C1878 1.463 . S
C1875 C1880 1.350 . S
C1875 N1883 1.427 . S
C1876 H1867 0.930 . S
C1876 C1874 1.378 . S
C1876 C1877 1.367 . S
C1877 C1876 1.367 . S
C1877 C1879 1.433 . S
C1878 C1874 1.350 . S
C1878 C1875 1.463 . S
C1878 N1882 1.427 . S
C1879 H1869 0.929 . S
C1879 C1877 1.433 . S
C1879 N1882 1.384 . S
C1880 H1871 0.929 . S
C1880 C1872 1.378 . S
C1880 C1875 1.350 . S
C1881 H1868 0.929 . S
C1881 C1873 1.433 . S
C1881 N1883 1.384 . S
N1882 C1878 1.427 . S
N1882 C1879 1.384 . S
N1883 C1875 1.427 . S
N1883 C1881 1.384 . S
H1884 C1890 0.930 . S
H1885 C1894 0.930 . S
H1886 C1899 0.929 . S
H1887 C1897 0.929 . S
H1888 C1892 0.929 . S
H1889 C1898 0.929 . S
C1890 H1884 0.930 . S
C1890 C1891 1.367 . S
C1890 C1898 1.378 . S
C1891 C1890 1.367 . S
C1891 C1899 1.433 . S
C1892 H1888 0.929 . S
C1892 C1894 1.378 . S
C1892 C1896 1.350 . S
C1893 C1896 1.463 . S
C1893 C1898 1.350 . S
C1893 N1901 1.427 . S
C1894 H1885 0.930 . S
C1894 C1892 1.378 . S
C1894 C1895 1.367 . S
C1895 C1894 1.367 . S
C1895 C1897 1.433 . S
C1896 C1892 1.350 . S
C1896 C1893 1.463 . S
C1896 N1900 1.427 . S
C1897 H1887 0.929 . S
C1897 C1895 1.433 . S
C1897 N1900 1.384 . S
C1898 H1889 0.929 . S
C1898 C1890 1.378 . S
C1898 C1893 1.350 . S
C1899 H1886 0.929 . S
C1899 C1891 1.433 . S
C1899 N1901 1.384 . S
N1900 C1896 1.427 . S
N1900 C1897 1.384 . S
N1901 C1893 1.427 . S
N1901 C1899 1.384 . S
H1902 C1908 0.930 . S
H1903 C1912 0.930 . S
H1904 C1917 0.929 . S
H1905 C1915 0.929 . S
H1906 C1910 0.929 . S
H1907 C1916 0.929 . S
C1908 H1902 0.930 . S
C1908 C1909 1.367 . S
C1908 C1916 1.378 . S
C1909 C1908 1.367 . S
C1909 C1917 1.433 . S
C1910 H1906 0.929 . S
C1910 C1912 1.378 . S
C1910 C1914 1.350 . S
C1911 C1914 1.463 . S
C1911 C1916 1.350 . S
C1911 N1919 1.427 . S
C1912 H1903 0.930 . S
C1912 C1910 1.378 . S
C1912 C1913 1.367 . S
C1913 C1912 1.367 . S
C1913 C1915 1.433 . S
C1914 C1910 1.350 . S
C1914 C1911 1.463 . S
C1914 N1918 1.427 . S
C1915 H1905 0.929 . S
C1915 C1913 1.433 . S
C1915 N1918 1.384 . S
C1916 H1907 0.929 . S
C1916 C1908 1.378 . S
C1916 C1911 1.350 . S
C1917 H1904 0.929 . S
C1917 C1909 1.433 . S
C1917 N1919 1.384 . S
N1918 C1914 1.427 . S
N1918 C1915 1.384 . S
N1919 C1911 1.427 . S
N1919 C1917 1.384 . S
H1920 C1926 0.930 . S
H1921 C1930 0.930 . S
H1922 C1935 0.929 . S
H1923 C1933 0.929 . S
H1924 C1928 0.929 . S
H1925 C1934 0.929 . S
C1926 H1920 0.930 . S
C1926 C1927 1.367 . S
C1926 C1934 1.378 . S
C1927 C1926 1.367 . S
C1927 C1935 1.433 . S
C1928 H1924 0.929 . S
C1928 C1930 1.378 . S
C1928 C1932 1.350 . S
C1929 C1932 1.463 . S
C1929 C1934 1.350 . S
C1929 N1937 1.427 . S
C1930 H1921 0.930 . S
C1930 C1928 1.378 . S
C1930 C1931 1.367 . S
C1931 C1930 1.367 . S
C1931 C1933 1.433 . S
C1932 C1928 1.350 . S
C1932 C1929 1.463 . S
C1932 N1936 1.427 . S
C1933 H1923 0.929 . S
C1933 C1931 1.433 . S
C1933 N1936 1.384 . S
C1934 H1925 0.929 . S
C1934 C1926 1.378 . S
C1934 C1929 1.350 . S
C1935 H1922 0.929 . S
C1935 C1927 1.433 . S
C1935 N1937 1.384 . S
N1936 C1932 1.427 . S
N1936 C1933 1.384 . S
N1937 C1929 1.427 . S
N1937 C1935 1.384 . S
H1938 C1944 0.930 . S
H1939 C1948 0.930 . S
H1940 C1953 0.929 . S
H1941 C1951 0.929 . S
H1942 C1946 0.929 . S
H1943 C1952 0.929 . S
C1944 H1938 0.930 . S
C1944 C1945 1.367 . S
C1944 C1952 1.378 . S
C1945 C1944 1.367 . S
C1945 C1953 1.433 . S
C1946 H1942 0.929 . S
C1946 C1948 1.378 . S
C1946 C1950 1.350 . S
C1947 C1950 1.463 . S
C1947 C1952 1.350 . S
C1947 N1955 1.427 . S
C1948 H1939 0.930 . S
C1948 C1946 1.378 . S
C1948 C1949 1.367 . S
C1949 C1948 1.367 . S
C1949 C1951 1.433 . S
C1950 C1946 1.350 . S
C1950 C1947 1.463 . S
C1950 N1954 1.427 . S
C1951 H1941 0.929 . S
C1951 C1949 1.433 . S
C1951 N1954 1.384 . S
C1952 H1943 0.929 . S
C1952 C1944 1.378 . S
C1952 C1947 1.350 . S
C1953 H1940 0.929 . S
C1953 C1945 1.433 . S
C1953 N1955 1.384 . S
N1954 C1950 1.427 . S
N1954 C1951 1.384 . S
N1955 C1947 1.427 . S
N1955 C1953 1.384 . S
H1956 C1962 0.930 . S
H1957 C1966 0.930 . S
H1958 C1971 0.929 . S
H1959 C1969 0.929 . S
H1960 C1964 0.929 . S
H1961 C1970 0.929 . S
C1962 H1956 0.930 . S
C1962 C1963 1.367 . S
C1962 C1970 1.378 . S
C1963 C1962 1.367 . S
C1963 C1971 1.433 . S
C1964 H1960 0.929 . S
C1964 C1966 1.378 . S
C1964 C1968 1.350 . S
C1965 C1968 1.463 . S
C1965 C1970 1.350 . S
C1965 N1973 1.427 . S
C1966 H1957 0.930 . S
C1966 C1964 1.378 . S
C1966 C1967 1.367 . S
C1967 C1966 1.367 . S
C1967 C1969 1.433 . S
C1968 C1964 1.350 . S
C1968 C1965 1.463 . S
C1968 N1972 1.427 . S
C1969 H1959 0.929 . S
C1969 C1967 1.433 . S
C1969 N1972 1.384 . S
C1970 H1961 0.929 . S
C1970 C1962 1.378 . S
C1970 C1965 1.350 . S
C1971 H1958 0.929 . S
C1971 C1963 1.433 . S
C1971 N1973 1.384 . S
N1972 C1968 1.427 . S
N1972 C1969 1.384 . S
N1973 C1965 1.427 . S
N1973 C1971 1.384 . S
H1974 C1980 0.930 . S
H1975 C1984 0.930 . S
H1976 C1989 0.929 . S
H1977 C1987 0.929 . S
H1978 C1982 0.929 . S
H1979 C1988 0.929 . S
C1980 H1974 0.930 . S
C1980 C1981 1.367 . S
C1980 C1988 1.378 . S
C1981 C1980 1.367 . S
C1981 C1989 1.433 . S
C1982 H1978 0.929 . S
C1982 C1984 1.378 . S
C1982 C1986 1.350 . S
C1983 C1986 1.463 . S
C1983 C1988 1.350 . S
C1983 N1991 1.427 . S
C1984 H1975 0.930 . S
C1984 C1982 1.378 . S
C1984 C1985 1.367 . S
C1985 C1984 1.367 . S
C1985 C1987 1.433 . S
C1986 C1982 1.350 . S
C1986 C1983 1.463 . S
C1986 N1990 1.427 . S
C1987 H1977 0.929 . S
C1987 C1985 1.433 . S
C1987 N1990 1.384 . S
C1988 H1979 0.929 . S
C1988 C1980 1.378 . S
C1988 C1983 1.350 . S
C1989 H1976 0.929 . S
C1989 C1981 1.433 . S
C1989 N1991 1.384 . S
N1990 C1986 1.427 . S
N1990 C1987 1.384 . S
N1991 C1983 1.427 . S
N1991 C1989 1.384 . S
H1992 C1998 0.930 . S
H1993 C2002 0.930 . S
H1994 C2007 0.929 . S
H1995 C2005 0.929 . S
H1996 C2000 0.929 . S
H1997 C2006 0.929 . S
C1998 H1992 0.930 . S
C1998 C1999 1.367 . S
C1998 C2006 1.378 . S
C1999 C1998 1.367 . S
C1999 C2007 1.433 . S
C2000 H1996 0.929 . S
C2000 C2002 1.378 . S
C2000 C2004 1.350 . S
C2001 C2004 1.463 . S
C2001 C2006 1.350 . S
C2001 N2009 1.427 . S
C2002 H1993 0.930 . S
C2002 C2000 1.378 . S
C2002 C2003 1.367 . S
C2003 C2002 1.367 . S
C2003 C2005 1.433 . S
C2004 C2000 1.350 . S
C2004 C2001 1.463 . S
C2004 N2008 1.427 . S
C2005 H1995 0.929 . S
C2005 C2003 1.433 . S
C2005 N2008 1.384 . S
C2006 H1997 0.929 . S
C2006 C1998 1.378 . S
C2006 C2001 1.350 . S
C2007 H1994 0.929 . S
C2007 C1999 1.433 . S
C2007 N2009 1.384 . S
N2008 C2004 1.427 . S
N2008 C2005 1.384 . S
N2009 C2001 1.427 . S
N2009 C2007 1.384 . S
H2010 C2016 0.930 . S
H2011 C2020 0.930 . S
H2012 C2025 0.929 1_556 S
H2013 C2023 0.929 . S
H2014 C2018 0.929 . S
H2015 C2024 0.929 . S
C2016 H2010 0.930 . S
C2016 C2017 1.367 . S
C2016 C2024 1.378 . S
C2017 C2016 1.367 . S
C2017 C2025 1.433 . S
C2018 H2014 0.929 . S
C2018 C2020 1.378 . S
C2018 C2022 1.350 1_556 S
C2019 C2022 1.463 . S
C2019 C2024 1.350 . S
C2019 N2027 1.432 . S
C2020 H2011 0.930 . S
C2020 C2018 1.378 . S
C2020 C2021 1.367 1_556 S
C2021 C2020 1.367 1_554 S
C2021 C2023 1.433 . S
C2022 C2018 1.350 1_554 S
C2022 C2019 1.463 . S
C2022 N2026 1.427 . S
C2023 H2013 0.929 . S
C2023 C2021 1.433 . S
C2023 N2026 1.384 . S
C2024 H2015 0.929 . S
C2024 C2016 1.378 . S
C2024 C2019 1.350 . S
C2025 H2012 0.929 1_554 S
C2025 C2017 1.433 . S
C2025 N2027 1.387 . S
N2026 C2022 1.427 . S
N2026 C2023 1.384 . S
N2027 C2019 1.432 . S
N2027 C2025 1.387 . S
H2028 C2034 0.930 . S
H2029 C2038 0.930 . S
H2030 C2043 0.929 . S
H2031 C2041 0.929 . S
H2032 C2036 0.929 . S
H2033 C2042 0.929 . S
C2034 H2028 0.930 . S
C2034 C2035 1.367 . S
C2034 C2042 1.378 . S
C2035 C2034 1.367 . S
C2035 C2043 1.433 . S
C2036 H2032 0.929 . S
C2036 C2038 1.378 . S
C2036 C2040 1.350 . S
C2037 C2040 1.463 . S
C2037 C2042 1.350 . S
C2037 N2045 1.427 . S
C2038 H2029 0.930 . S
C2038 C2036 1.378 . S
C2038 C2039 1.367 . S
C2039 C2038 1.367 . S
C2039 C2041 1.433 . S
C2040 C2036 1.350 . S
C2040 C2037 1.463 . S
C2040 N2044 1.427 . S
C2041 H2031 0.929 . S
C2041 C2039 1.433 . S
C2041 N2044 1.384 . S
C2042 H2033 0.929 . S
C2042 C2034 1.378 . S
C2042 C2037 1.350 . S
C2043 H2030 0.929 . S
C2043 C2035 1.433 . S
C2043 N2045 1.384 . S
N2044 C2040 1.427 . S
N2044 C2041 1.384 . S
N2045 C2037 1.427 . S
N2045 C2043 1.384 . S
H2046 C2052 0.930 . S
H2047 C2056 0.930 . S
H2048 C2061 0.929 . S
H2049 C2059 0.929 . S
H2050 C2054 0.929 . S
H2051 C2060 0.929 . S
C2052 H2046 0.930 . S
C2052 C2053 1.367 . S
C2052 C2060 1.378 . S
C2053 C2052 1.367 . S
C2053 C2061 1.433 . S
C2054 H2050 0.929 . S
C2054 C2056 1.378 . S
C2054 C2058 1.350 . S
C2055 C2058 1.463 . S
C2055 C2060 1.350 . S
C2055 N2063 1.427 . S
C2056 H2047 0.930 . S
C2056 C2054 1.378 . S
C2056 C2057 1.367 . S
C2057 C2056 1.367 . S
C2057 C2059 1.433 . S
C2058 C2054 1.350 . S
C2058 C2055 1.463 . S
C2058 N2062 1.427 . S
C2059 H2049 0.929 . S
C2059 C2057 1.433 . S
C2059 N2062 1.384 . S
C2060 H2051 0.929 . S
C2060 C2052 1.378 . S
C2060 C2055 1.350 . S
C2061 H2048 0.929 . S
C2061 C2053 1.433 . S
C2061 N2063 1.384 . S
N2062 C2058 1.427 . S
N2062 C2059 1.384 . S
N2063 C2055 1.427 . S
N2063 C2061 1.384 . S
H2064 C2070 0.930 . S
H2065 C2074 0.930 . S
H2066 C2079 0.929 . S
H2067 C2077 0.929 . S
H2068 C2072 0.929 . S
H2069 C2078 0.929 . S
C2070 H2064 0.930 . S
C2070 C2071 1.367 . S
C2070 C2078 1.378 . S
C2071 C2070 1.367 . S
C2071 C2079 1.433 . S
C2072 H2068 0.929 . S
C2072 C2074 1.378 . S
C2072 C2076 1.350 . S
C2073 C2076 1.463 . S
C2073 C2078 1.350 . S
C2073 N2081 1.427 . S
C2074 H2065 0.930 . S
C2074 C2072 1.378 . S
C2074 C2075 1.367 . S
C2075 C2074 1.367 . S
C2075 C2077 1.433 . S
C2076 C2072 1.350 . S
C2076 C2073 1.463 . S
C2076 N2080 1.427 . S
C2077 H2067 0.929 . S
C2077 C2075 1.433 . S
C2077 N2080 1.384 . S
C2078 H2069 0.929 . S
C2078 C2070 1.378 . S
C2078 C2073 1.350 . S
C2079 H2066 0.929 . S
C2079 C2071 1.433 . S
C2079 N2081 1.384 . S
N2080 C2076 1.427 . S
N2080 C2077 1.384 . S
N2081 C2073 1.427 . S
N2081 C2079 1.384 . S
H2082 C2088 0.930 1_554 S
H2083 C2092 0.930 . S
H2084 C2097 0.929 . S
H2085 C2095 0.929 . S
H2086 C2090 0.929 . S
H2087 C2096 0.929 . S
C2088 H2082 0.930 1_556 S
C2088 C2089 1.367 . S
C2088 C2096 1.378 . S
C2089 C2088 1.367 . S
C2089 C2097 1.433 . S
C2090 H2086 0.929 . S
C2090 C2092 1.378 . S
C2090 C2094 1.350 . S
C2091 C2094 1.463 . S
C2091 C2096 1.350 . S
C2091 N2099 1.427 . S
C2092 H2083 0.930 . S
C2092 C2090 1.378 . S
C2092 C2093 1.367 . S
C2093 C2092 1.367 . S
C2093 C2095 1.433 . S
C2094 C2090 1.350 . S
C2094 C2091 1.463 . S
C2094 N2098 1.427 . S
C2095 H2085 0.929 . S
C2095 C2093 1.433 . S
C2095 N2098 1.384 . S
C2096 H2087 0.929 . S
C2096 C2088 1.378 . S
C2096 C2091 1.350 . S
C2097 H2084 0.929 . S
C2097 C2089 1.433 . S
C2097 N2099 1.384 . S
N2098 C2094 1.427 . S
N2098 C2095 1.384 . S
N2099 C2091 1.427 . S
N2099 C2097 1.384 . S
H2100 C2106 0.930 . S
H2101 C2110 0.930 1_554 S
H2102 C2115 0.929 . S
H2103 C2113 0.929 . S
H2104 C2108 0.929 . S
H2105 C2114 0.929 . S
C2106 H2100 0.930 . S
C2106 C2107 1.367 . S
C2106 C2114 1.378 . S
C2107 C2106 1.367 . S
C2107 C2115 1.433 1_556 S
C2108 H2104 0.929 . S
C2108 C2110 1.378 1_554 S
C2108 C2112 1.350 1_554 S
C2109 C2112 1.463 . S
C2109 C2114 1.350 . S
C2109 N2117 1.427 1_556 S
C2110 H2101 0.930 1_556 S
C2110 C2108 1.378 1_556 S
C2110 C2111 1.367 . S
C2111 C2110 1.367 . S
C2111 C2113 1.433 . S
C2112 C2108 1.350 1_556 S
C2112 C2109 1.463 . S
C2112 N2116 1.427 . S
C2113 H2103 0.929 . S
C2113 C2111 1.433 . S
C2113 N2116 1.384 . S
C2114 H2105 0.929 . S
C2114 C2106 1.378 . S
C2114 C2109 1.350 . S
C2115 H2102 0.929 . S
C2115 C2107 1.433 1_554 S
C2115 N2117 1.384 . S
N2116 C2112 1.427 . S
N2116 C2113 1.384 . S
N2117 C2109 1.427 1_554 S
N2117 C2115 1.384 . S
H2118 C2124 0.930 . S
H2119 C2128 0.930 . S
H2120 C2133 0.929 . S
H2121 C2131 0.929 . S
H2122 C2126 0.929 . S
H2123 C2132 0.929 . S
C2124 H2118 0.930 . S
C2124 C2125 1.367 . S
C2124 C2132 1.378 . S
C2125 C2124 1.367 . S
C2125 C2133 1.433 . S
C2126 H2122 0.929 . S
C2126 C2128 1.378 . S
C2126 C2130 1.350 . S
C2127 C2130 1.463 . S
C2127 C2132 1.350 . S
C2127 N2135 1.427 . S
C2128 H2119 0.930 . S
C2128 C2126 1.378 . S
C2128 C2129 1.367 . S
C2129 C2128 1.367 . S
C2129 C2131 1.433 . S
C2130 C2126 1.350 . S
C2130 C2127 1.463 . S
C2130 N2134 1.427 . S
C2131 H2121 0.929 . S
C2131 C2129 1.433 . S
C2131 N2134 1.384 . S
C2132 H2123 0.929 . S
C2132 C2124 1.378 . S
C2132 C2127 1.350 . S
C2133 H2120 0.929 . S
C2133 C2125 1.433 . S
C2133 N2135 1.384 . S
N2134 C2130 1.427 . S
N2134 C2131 1.384 . S
N2135 C2127 1.427 . S
N2135 C2133 1.384 . S
H2136 C2142 0.930 . S
H2137 C2146 0.930 . S
H2138 C2151 0.929 . S
H2139 C2149 0.929 . S
H2140 C2144 0.929 . S
H2141 C2150 0.929 . S
C2142 H2136 0.930 . S
C2142 C2143 1.367 . S
C2142 C2150 1.378 . S
C2143 C2142 1.367 . S
C2143 C2151 1.433 . S
C2144 H2140 0.929 . S
C2144 C2146 1.378 . S
C2144 C2148 1.350 . S
C2145 C2148 1.463 . S
C2145 C2150 1.350 . S
C2145 N2153 1.427 . S
C2146 H2137 0.930 . S
C2146 C2144 1.378 . S
C2146 C2147 1.367 . S
C2147 C2146 1.367 . S
C2147 C2149 1.433 . S
C2148 C2144 1.350 . S
C2148 C2145 1.463 . S
C2148 N2152 1.427 . S
C2149 H2139 0.929 . S
C2149 C2147 1.433 . S
C2149 N2152 1.384 . S
C2150 H2141 0.929 . S
C2150 C2142 1.378 . S
C2150 C2145 1.350 . S
C2151 H2138 0.929 . S
C2151 C2143 1.433 . S
C2151 N2153 1.384 . S
N2152 C2148 1.427 . S
N2152 C2149 1.384 . S
N2153 C2145 1.427 . S
N2153 C2151 1.384 . S
H2154 C2160 0.930 . S
H2155 C2164 0.930 . S
H2156 C2169 0.929 . S
H2157 C2167 0.929 . S
H2158 C2162 0.929 . S
H2159 C2168 0.929 . S
C2160 H2154 0.930 . S
C2160 C2161 1.367 . S
C2160 C2168 1.378 . S
C2161 C2160 1.367 . S
C2161 C2169 1.433 . S
C2162 H2158 0.929 . S
C2162 C2164 1.378 . S
C2162 C2166 1.350 . S
C2163 C2166 1.463 . S
C2163 C2168 1.350 . S
C2163 N2171 1.427 . S
C2164 H2155 0.930 . S
C2164 C2162 1.378 . S
C2164 C2165 1.367 . S
C2165 C2164 1.367 . S
C2165 C2167 1.433 . S
C2166 C2162 1.350 . S
C2166 C2163 1.463 . S
C2166 N2170 1.427 . S
C2167 H2157 0.929 . S
C2167 C2165 1.433 . S
C2167 N2170 1.384 . S
C2168 H2159 0.929 . S
C2168 C2160 1.378 . S
C2168 C2163 1.350 . S
C2169 H2156 0.929 . S
C2169 C2161 1.433 . S
C2169 N2171 1.384 . S
N2170 C2166 1.427 . S
N2170 C2167 1.384 . S
N2171 C2163 1.427 . S
N2171 C2169 1.384 . S
H2172 C2178 0.930 . S
H2173 C2182 0.930 . S
H2174 C2187 0.929 . S
H2175 C2185 0.929 . S
H2176 C2180 0.929 . S
H2177 C2186 0.929 . S
C2178 H2172 0.930 . S
C2178 C2179 1.367 . S
C2178 C2186 1.378 . S
C2179 C2178 1.367 . S
C2179 C2187 1.433 . S
C2180 H2176 0.929 . S
C2180 C2182 1.378 . S
C2180 C2184 1.350 . S
C2181 C2184 1.463 . S
C2181 C2186 1.350 . S
C2181 N2189 1.427 . S
C2182 H2173 0.930 . S
C2182 C2180 1.378 . S
C2182 C2183 1.367 . S
C2183 C2182 1.367 . S
C2183 C2185 1.433 . S
C2184 C2180 1.350 . S
C2184 C2181 1.463 . S
C2184 N2188 1.427 . S
C2185 H2175 0.929 . S
C2185 C2183 1.433 . S
C2185 N2188 1.384 . S
C2186 H2177 0.929 . S
C2186 C2178 1.378 . S
C2186 C2181 1.350 . S
C2187 H2174 0.929 . S
C2187 C2179 1.433 . S
C2187 N2189 1.384 . S
N2188 C2184 1.427 . S
N2188 C2185 1.384 . S
N2189 C2181 1.427 . S
N2189 C2187 1.384 . S
H2190 C2196 0.930 . S
H2191 C2200 0.930 . S
H2192 C2205 0.929 . S
H2193 C2203 0.929 . S
H2194 C2198 0.929 . S
H2195 C2204 0.929 . S
C2196 H2190 0.930 . S
C2196 C2197 1.367 . S
C2196 C2204 1.378 . S
C2197 C2196 1.367 . S
C2197 C2205 1.433 . S
C2198 H2194 0.929 . S
C2198 C2200 1.378 . S
C2198 C2202 1.350 . S
C2199 C2202 1.463 . S
C2199 C2204 1.350 . S
C2199 N2207 1.427 . S
C2200 H2191 0.930 . S
C2200 C2198 1.378 . S
C2200 C2201 1.367 . S
C2201 C2200 1.367 . S
C2201 C2203 1.433 . S
C2202 C2198 1.350 . S
C2202 C2199 1.463 . S
C2202 N2206 1.427 . S
C2203 H2193 0.929 . S
C2203 C2201 1.433 . S
C2203 N2206 1.384 . S
C2204 H2195 0.929 . S
C2204 C2196 1.378 . S
C2204 C2199 1.350 . S
C2205 H2192 0.929 . S
C2205 C2197 1.433 . S
C2205 N2207 1.384 . S
N2206 C2202 1.427 . S
N2206 C2203 1.384 . S
N2207 C2199 1.427 . S
N2207 C2205 1.384 . S
C1351 C74 1.204 . S
C1355 C142 1.042 . S
C1369 C235 1.811 . S
C1373 C140 1.791 . S
C1387 C308 1.796 . S
C1391 C242 1.842 . S
C1405 C67 1.081 . S
C1409 C310 0.983 . S
C1423 C56 1.085 . S
C1427 C825 0.988 . S
C1441 C651 1.169 . S
C1445 C153 0.988 . S
C1459 C224 1.802 . S
C1463 C907 1.801 . S
C1477 C319 1.790 . S
C1481 C1148 1.805 . S
C1495 C735 1.846 . S
C1499 C151 1.794 . S
C1513 C1075 1.789 . S
C1517 C231 1.842 . S
C1531 C1232 1.112 . S
C1535 C321 1.010 . S
C1549 C63 1.192 . S
C1553 C993 1.020 . S
C1567 C69 0.458 . S
C1571 C730 0.654 . S
C1585 C1082 2.113 . S
C1589 C399 2.112 . S
C1603 C489 0.680 . S
C1607 C1234 0.424 . S
C1621 C987 2.103 . S
C1625 C578 2.106 . S
C1639 C226 0.680 . S
C1643 C646 0.454 . S
C1657 C819 2.103 . S
C1661 C410 2.106 . S
C1675 C567 2.097 . S
C1679 C914 2.097 . S
C1693 C483 1.870 . S
C1697 C991 1.822 . S
C1711 C823 1.763 . S
C1715 C476 1.783 . S
C1729 C982 1.005 . S
C1733 C662 1.189 . S
C1747 C494 1.872 . S
C1751 C392 1.817 . S
C1765 C812 1.772 . S
C1769 C739 1.778 . S
C1783 C1166 1.872 . S
C1787 C980 1.824 . S
C1801 C560 1.763 . S
C1805 C487 1.782 . S
C1819 C814 1.019 . S
C1823 C1243 1.112 . S
C1837 C1161 0.646 . S
C1841 C58 0.465 . S
C1855 C237 0.680 . S
C1859 C1245 0.454 . S
C1873 C1071 2.108 . S
C1877 C158 2.101 . S
C1891 C657 0.459 . S
C1895 C478 0.634 . S
C1909 C326 2.104 . S
C1913 C903 2.105 . S
C1927 C1064 1.791 . S
C1931 C1159 1.804 . S
C1945 C655 1.109 . S
C1949 C1066 1.006 . S
C1963 C573 0.990 . S
C1967 C644 1.086 . S
C1981 C403 1.827 . S
C1985 C1155 1.870 . S
C1999 C1077 1.013 . S
C2003 C1316 1.106 . S
C2017 C1318 0.432 . S
C2021 C741 0.677 . S
C2035 C147 2.099 . S
C2039 C830 2.095 . S
C2053 C728 1.778 . S
C2057 C571 1.773 . S
C2071 C746 1.846 . S
C2075 C896 1.795 . S
C2089 C1327 1.096 . S
C2093 C562 1.008 . S
C2107 C1150 0.627 . S
C2111 C1329 0.471 . S
C2125 C998 2.112 . S
C2129 C315 2.112 . S
C2143 C898 0.994 . S
C2147 C1250 1.174 . S
C2161 C909 1.011 . S
C2165 C1323 1.196 . S
C2179 C405 1.040 . S
C2183 C1239 1.198 . S
C2197 C1334 1.201 . S
C2201 C394 1.039 . S
