# Generated by pormake.
# Topology smc, (6)-cn, num edge types: 1
# Building blocks:
#     Node 0, Type 0, BuildingBlock: IZENUY_clean_sbu_0, # of connection points: 6
#     Node 1, Type 0, BuildingBlock: IZENUY_clean_sbu_0, # of connection points: 6
#     Node 2, Type 0, BuildingBlock: IZENUY_clean_sbu_0, # of connection points: 6
#     Node 3, Type 0, BuildingBlock: IZENUY_clean_sbu_0, # of connection points: 6
#     Node 4, Type 0, BuildingBlock: IZENUY_clean_sbu_0, # of connection points: 6
#     Node 5, Type 0, BuildingBlock: IZENUY_clean_sbu_0, # of connection points: 6
#     Node 6, Type 0, BuildingBlock: IZENUY_clean_sbu_0, # of connection points: 6
#     Node 7, Type 0, BuildingBlock: IZENUY_clean_sbu_0, # of connection points: 6
#     Node 8, Type 0, BuildingBlock: IZENUY_clean_sbu_0, # of connection points: 6
#     Edge 9, Type (0, 0), BuildingBlock: XUDNAN_clean_linker_2, # of connection points: 2
#     Edge 10, Type (0, 0), BuildingBlock: XUDNAN_clean_linker_2, # of connection points: 2
#     Edge 11, Type (0, 0), BuildingBlock: XUDNAN_clean_linker_2, # of connection points: 2
#     Edge 12, Type (0, 0), BuildingBlock: XUDNAN_clean_linker_2, # of connection points: 2
#     Edge 13, Type (0, 0), BuildingBlock: XUDNAN_clean_linker_2, # of connection points: 2
#     Edge 14, Type (0, 0), BuildingBlock: XUDNAN_clean_linker_2, # of connection points: 2
#     Edge 15, Type (0, 0), BuildingBlock: XUDNAN_clean_linker_2, # of connection points: 2
#     Edge 16, Type (0, 0), BuildingBlock: XUDNAN_clean_linker_2, # of connection points: 2
#     Edge 17, Type (0, 0), BuildingBlock: XUDNAN_clean_linker_2, # of connection points: 2
#     Edge 18, Type (0, 0), BuildingBlock: XUDNAN_clean_linker_2, # of connection points: 2
#     Edge 19, Type (0, 0), BuildingBlock: XUDNAN_clean_linker_2, # of connection points: 2
#     Edge 20, Type (0, 0), BuildingBlock: XUDNAN_clean_linker_2, # of connection points: 2
#     Edge 21, Type (0, 0), BuildingBlock: XUDNAN_clean_linker_2, # of connection points: 2
#     Edge 22, Type (0, 0), BuildingBlock: XUDNAN_clean_linker_2, # of connection points: 2
#     Edge 23, Type (0, 0), BuildingBlock: XUDNAN_clean_linker_2, # of connection points: 2
#     Edge 24, Type (0, 0), BuildingBlock: XUDNAN_clean_linker_2, # of connection points: 2
#     Edge 25, Type (0, 0), BuildingBlock: XUDNAN_clean_linker_2, # of connection points: 2
#     Edge 26, Type (0, 0), BuildingBlock: XUDNAN_clean_linker_2, # of connection points: 2
#     Edge 27, Type (0, 0), BuildingBlock: XUDNAN_clean_linker_2, # of connection points: 2
#     Edge 28, Type (0, 0), BuildingBlock: XUDNAN_clean_linker_2, # of connection points: 2
#     Edge 29, Type (0, 0), BuildingBlock: XUDNAN_clean_linker_2, # of connection points: 2
#     Edge 30, Type (0, 0), BuildingBlock: XUDNAN_clean_linker_2, # of connection points: 2
#     Edge 31, Type (0, 0), BuildingBlock: XUDNAN_clean_linker_2, # of connection points: 2
#     Edge 32, Type (0, 0), BuildingBlock: XUDNAN_clean_linker_2, # of connection points: 2
#     Edge 33, Type (0, 0), BuildingBlock: XUDNAN_clean_linker_2, # of connection points: 2
#     Edge 34, Type (0, 0), BuildingBlock: XUDNAN_clean_linker_2, # of connection points: 2
#     Edge 35, Type (0, 0), BuildingBlock: XUDNAN_clean_linker_2, # of connection points: 2
# Relax obj value: 0.289
# Max RMSD: 0.292
# Mean RMSD: 0.291
data_MOF--net-smc--node1-IZENUY_clean_sbu_0--edge1-XUDNAN_clean_linker_2
_symmetry_space_group_name_H-M    P1
_symmetry_Int_Tables_number       1
_symmetry_cell_setting            triclinic
loop_
_symmetry_equiv_pos_as_xyz
'x, y, z'
_cell_length_a     29.125505
_cell_length_b     29.136921
_cell_length_c     44.439473
_cell_angle_alpha  89.899377
_cell_angle_beta   90.366504
_cell_angle_gamma 120.3045
loop_
_atom_site_label
_atom_site_type_symbol
_atom_site_fract_x
_atom_site_fract_y
_atom_site_fract_z
_atom_type_partial_charge
Fe0 Fe 0.0446 0.48176 1.00231 0.0
Fe1 Fe 1.00563 0.37681 0.03567 0.0
O2 O 1.00153 0.4342 0.0286 0.0
Fe3 Fe 0.95479 0.44507 0.04731 0.0
O4 O 0.9245 0.44518 0.01212 0.0
O5 O 0.99777 0.50587 0.99169 0.0
O6 O 0.0162 0.43449 0.97227 0.0
C7 C 1.01514 0.39076 0.97186 0.0
C8 C 0.05008 0.548 0.04564 0.0
O9 O 0.02279 0.37139 0.99595 0.0
C10 C 0.98844 0.40768 0.09373 0.0
O11 O 0.1001 0.46837 0.00817 0.0
O12 O 0.07401 0.41621 0.04747 0.0
O13 O 0.99947 0.51974 0.0483 0.0
O14 O 0.07469 0.52994 0.03158 0.0
C15 C 0.89762 0.33399 0.03419 0.0
O16 O 0.98865 0.37308 0.07627 0.0
O17 O 0.98188 0.44426 0.08349 0.0
C18 C 0.11096 0.4503 0.03154 0.0
O19 O 0.93774 0.33341 0.02454 0.0
O20 O 0.90255 0.37349 0.04916 0.0
C21 C 0.94729 0.48227 0.99369 0.0
Fe22 Fe 0.6578 0.66573 0.0211 0.0
Fe23 Fe 0.55185 0.59813 0.98682 0.0
O24 O 0.59628 0.60585 0.01639 0.0
Fe25 Fe 0.57937 0.55234 0.04135 0.0
O26 O 0.6181 0.59338 0.07273 0.0
O27 O 0.64164 0.67461 0.05992 0.0
O28 O 0.63252 0.70883 0.00886 0.0
C29 C 0.58566 0.70088 1.00716 0.0
C30 C 0.68358 0.58573 0.02708 0.0
O31 O 0.54701 0.65524 1.00043 0.0
C32 C 0.54334 0.49938 0.98736 0.0
O33 O 0.67853 0.66117 0.98311 0.0
O34 O 0.6034 0.63925 0.9598 0.0
O35 O 0.6361 0.5469 0.02783 0.0
O36 O 0.6933 0.63211 0.03372 0.0
C37 C 0.48618 0.55401 0.03719 0.0
O38 O 0.55372 0.53973 0.97146 0.0
O39 O 0.53731 0.50064 0.01517 0.0
C40 C 0.65217 0.65358 0.95908 0.0
O41 O 0.49279 0.55634 0.00897 0.0
O42 O 0.52162 0.55595 0.05498 0.0
C43 C 0.62925 0.63957 0.08003 0.0
Fe44 Fe 0.42973 0.97281 0.983 0.0
Fe45 Fe 0.36101 0.01943 1.00197 0.0
O46 O 0.42043 0.01763 1.00496 0.0
Fe47 Fe 0.47123 0.06135 0.02967 0.0
O48 O 0.51536 0.09177 0.99881 0.0
O49 O 0.50406 0.01778 0.97965 0.0
O50 O 0.42313 1.00199 0.94856 0.0
C51 C 0.38203 1.00378 0.94183 0.0
C52 C 0.47415 0.96393 0.03398 0.0
O53 O 0.34923 0.99937 0.9619 0.0
C54 C 0.38469 0.03176 0.06444 0.0
O55 O 0.35795 0.91979 0.98344 0.0
O56 O 0.32219 0.95187 0.0144 0.0
O57 O 0.49666 0.01431 0.03757 0.0
O58 O 0.43573 0.94114 0.01611 0.0
C59 C 0.43407 0.12539 1.00307 0.0
O60 O 0.36226 0.03898 0.04172 0.0
O61 O 0.42848 0.03332 0.06176 0.0
C62 C 0.32135 0.91293 1.00172 0.0
O63 O 0.39671 0.0872 0.98905 0.0
O64 O 0.45628 0.11632 0.02533 0.0
C65 C 0.5327 0.06807 0.98336 0.0
Fe66 Fe 0.64961 0.78524 0.37787 0.0
Fe67 Fe 0.69872 0.72224 0.35246 0.0
O68 O 0.69515 0.78095 0.35369 0.0
Fe69 Fe 0.73723 0.83543 0.33064 0.0
O70 O 0.76755 0.8762 0.36305 0.0
O71 O 0.69325 0.8582 0.38517 0.0
O72 O 0.67931 0.77381 0.41085 0.0
C73 C 0.68268 0.73275 0.41454 0.0
C74 C 0.63895 0.83574 0.32962 0.0
O75 O 0.67959 0.70423 0.39217 0.0
C76 C 0.70796 0.75348 0.29165 0.0
O77 O 0.59774 0.71376 0.37385 0.0
O78 O 0.63059 0.68424 0.33956 0.0
O79 O 0.68913 0.85969 0.3259 0.0
O80 O 0.61691 0.79619 0.34667 0.0
C81 C 0.80413 0.79822 0.35238 0.0
O82 O 0.71763 0.72964 0.31252 0.0
O83 O 0.70922 0.79661 0.29674 0.0
C84 C 0.59099 0.68176 0.35245 0.0
O85 O 0.76751 0.75757 0.36515 0.0
O86 O 0.79312 0.82222 0.33214 0.0
C87 C 0.74325 0.88823 0.38169 0.0
Fe88 Fe 0.26209 0.89011 0.37156 0.0
Fe89 Fe 0.31557 0.99271 0.33398 0.0
O90 O 0.25987 0.92964 0.34204 0.0
Fe91 Fe 0.19989 0.90659 0.32121 0.0
O92 O 0.15577 0.86469 0.35072 0.0
O93 O 0.20623 0.89109 0.39075 0.0
O94 O 0.30695 0.94503 0.39578 0.0
C95 C 0.31972 0.99326 0.39606 0.0
C96 C 0.20909 0.81765 0.32432 0.0
O97 O 0.3189 0.01639 0.37225 0.0
C98 C 0.27801 0.96073 0.27692 0.0
O99 O 0.31794 0.88777 0.35432 0.0
O100 O 0.36464 0.9727 0.34217 0.0
O101 O 0.20438 0.84974 0.30677 0.0
O102 O 0.21846 0.82778 0.35213 0.0
C103 C 0.23004 1.01058 0.3353 0.0
O104 O 0.31673 0.97448 0.29475 0.0
O105 O 0.23181 0.94348 0.28708 0.0
C106 C 0.36083 0.92768 0.34535 0.0
O107 O 0.27513 0.02273 0.3248 0.0
O108 O 0.19313 0.96214 0.33606 0.0
C109 C 0.16098 0.87335 0.37848 0.0
Fe110 Fe 0.05544 0.3613 0.36773 0.0
Fe111 Fe 0.11838 0.32053 0.33215 0.0
O112 O 0.1137 0.35742 0.36229 0.0
Fe113 Fe 0.16863 0.39237 0.38701 0.0
O114 O 0.12911 0.38945 0.41921 0.0
O115 O 0.0468 0.3338 0.40595 0.0
O116 O 1.00982 0.29433 0.35439 0.0
C117 C 1.01521 0.25415 0.35212 0.0
C118 C 0.13736 0.46517 0.37334 0.0
O119 O 0.05997 0.25916 0.34577 0.0
C120 C 0.219 0.40967 0.33246 0.0
O121 O 0.05965 0.38851 0.33003 0.0
O122 O 0.07769 0.33349 0.3061 0.0
O123 O 0.17562 0.456 0.37399 0.0
O124 O 0.09184 0.4294 0.38178 0.0
C125 C 0.16318 0.29568 0.38128 0.0
O126 O 0.17768 0.38056 0.31676 0.0
O127 O 0.21865 0.40155 0.36015 0.0
C128 C 0.06378 0.36812 0.3058 0.0
O129 O 0.15904 0.3003 0.35323 0.0
O130 O 0.16382 0.32963 0.39965 0.0
C131 C 0.08257 0.35406 0.42607 0.0
Fe132 Fe 0.40966 0.17638 0.65367 0.0
Fe133 Fe 0.36508 0.05724 0.66457 0.0
O134 O 0.36589 0.1172 0.6727 0.0
Fe135 Fe 0.32314 0.11816 0.70024 0.0
O136 O 0.29043 0.13697 0.67288 0.0
O137 O 0.36329 0.20329 0.65412 0.0
O138 O 0.38093 0.14723 0.61795 0.0
C139 C 0.37902 0.10636 0.60735 0.0
C140 C 0.419 0.21725 0.70921 0.0
O141 O 0.38319 0.07359 0.62446 0.0
C142 C 0.35489 0.05596 0.72787 0.0
O143 O 0.46341 0.16032 0.65073 0.0
O144 O 0.43383 0.08602 0.67635 0.0
O145 O 0.36886 0.18875 0.71223 0.0
O146 O 0.44166 0.20875 0.68802 0.0
C147 C 0.25899 0.02128 0.66888 0.0
O148 O 0.34675 0.03064 0.70331 0.0
O149 O 0.35385 0.09856 0.72887 0.0
C150 C 0.47194 0.12953 0.66718 0.0
O151 O 0.29609 0.0252 0.65259 0.0
O152 O 0.2691 0.0488 0.6928 0.0
C153 C 0.31301 0.1789 0.65772 0.0
Fe154 Fe 0.91587 0.19014 0.71822 0.0
Fe155 Fe 0.98584 0.30712 0.7017 0.0
O156 O 0.92795 0.24472 0.6955 0.0
Fe157 Fe 0.88181 0.23631 0.66665 0.0
O158 O 0.82413 0.1856 0.68682 0.0
O159 O 0.85438 0.18624 0.73238 0.0
O160 O 0.95038 0.22906 0.75133 0.0
C161 C 0.96135 0.27462 0.76007 0.0
C162 C 0.88462 0.14389 0.6614 0.0
O163 O 0.96855 0.31 0.74107 0.0
C164 C 0.98049 0.30191 0.6396 0.0
O165 O 0.97702 0.19321 0.70435 0.0
O166 O 0.02683 0.27901 0.71265 0.0
O167 O 0.89085 0.18499 0.64776 0.0
O168 O 0.8795 0.14035 0.68956 0.0
C169 C 0.90577 0.33206 0.69306 0.0
O170 O 1.00765 0.30816 0.66314 0.0
O171 O 0.93136 0.28556 0.64128 0.0
C172 C 0.02251 0.23526 0.70503 0.0
O173 O 0.95426 0.34541 0.69178 0.0
O174 O 0.86979 0.28634 0.68435 0.0
C175 C 0.81708 0.18042 0.71486 0.0
Fe176 Fe 0.80055 0.64236 0.65653 0.0
Fe177 Fe 0.73117 0.68043 0.68738 0.0
O178 O 0.79254 0.68183 0.68371 0.0
Fe179 Fe 0.84716 0.72269 0.70761 0.0
O180 O 0.89807 0.73187 0.68087 0.0
O181 O 0.85484 0.70214 0.63819 0.0
O182 O 0.75414 0.64287 0.6293 0.0
C183 C 0.73462 0.67245 0.62578 0.0
C184 C 0.84812 0.6291 0.70729 0.0
O185 O 0.73022 0.69743 0.6477 0.0
C186 C 0.76169 0.68801 0.74698 0.0
O187 O 0.74787 0.58194 0.67395 0.0
O188 O 0.68969 0.60863 0.67987 0.0
O189 O 0.84555 0.66328 0.72389 0.0
O190 O 0.84752 0.63312 0.67906 0.0
C191 C 0.81031 0.78891 0.68868 0.0
O192 O 0.72599 0.66285 0.72745 0.0
O193 O 0.80769 0.72263 0.73902 0.0
C194 C 0.70179 0.57249 0.68097 0.0
O195 O 0.76372 0.75194 0.69529 0.0
O196 O 0.85004 0.78229 0.69171 0.0
C197 C 0.89695 0.73385 0.65259 0.0
H198 H 0.42439 0.58631 0.00989 0.0
H199 H 0.42787 0.4959 0.08658 0.0
H200 H 0.33272 0.46555 0.09615 0.0
H201 H 0.32786 0.62286 0.04102 0.0
H202 H 0.29832 0.61636 1.00436 0.0
H203 H 0.36781 0.63708 0.00773 0.0
H204 H 0.35199 0.55997 0.97209 0.0
H205 H 0.28226 0.53807 0.96964 0.0
H206 H 0.30338 0.49264 0.98206 0.0
H207 H 0.23463 0.43632 0.09273 0.0
H208 H 0.14361 0.41346 0.07889 0.0
H209 H 0.20467 0.52222 1.00322 0.0
C210 C 0.40554 0.5611 0.0292 0.0
C211 C 0.43341 0.54332 0.04754 0.0
C212 C 0.40742 0.51038 0.07249 0.0
C213 C 0.35338 0.49285 0.07793 0.0
C214 C 0.32649 0.50932 0.05845 0.0
C215 C 0.35209 0.54345 0.03485 0.0
C216 C 0.31388 0.55227 0.01572 0.0
C217 C 0.32778 0.61061 0.01733 0.0
C218 C 0.31283 0.53466 0.98295 0.0
C219 C 0.26199 0.51602 0.03145 0.0
C220 C 0.27022 0.4922 0.05628 0.0
C221 C 0.22799 0.45528 0.07357 0.0
C222 C 0.17624 0.44236 0.06534 0.0
C223 C 0.16663 0.46582 0.03978 0.0
C224 C 0.21044 0.50354 0.02283 0.0
H225 H 0.42751 0.85605 0.03691 0.0
H226 H 0.5806 1.00089 0.04518 0.0
H227 H 0.62518 0.94775 0.04185 0.0
H228 H 0.46283 0.76458 0.07664 0.0
H229 H 0.42412 0.71107 0.0507 0.0
H230 H 0.40393 0.75873 0.05932 0.0
H231 H 0.40386 0.77847 1.0029 0.0
H232 H 0.42555 0.73243 0.99342 0.0
H233 H 0.46357 0.80055 0.98126 0.0
H234 H 0.65298 0.88037 0.0303 0.0
H235 H 0.6629 0.80436 0.01626 0.0
H236 H 0.49107 0.70246 0.01344 0.0
C237 C 0.47041 0.87653 0.03925 0.0
C238 C 0.50054 0.93288 0.0417 0.0
C239 C 0.55656 0.95796 0.044 0.0
C240 C 0.5822 0.928 0.04177 0.0
C241 C 0.55127 0.87296 0.03745 0.0
C242 C 0.49646 0.84733 0.03676 0.0
C243 C 0.47239 0.78861 0.02924 0.0
C244 C 0.43883 0.75369 0.05555 0.0
C245 C 0.4394 0.7742 0.99998 0.0
C246 C 0.52228 0.78519 0.02514 0.0
C247 C 0.56725 0.83427 0.03017 0.0
C248 C 0.61801 0.84173 0.02673 0.0
C249 C 0.62312 0.79804 0.01853 0.0
C250 C 0.57779 0.74691 0.01361 0.0
C251 C 0.5266 0.74077 0.01687 0.0
H252 H 0.31585 0.81829 0.01646 0.0
H253 H 0.21913 0.89015 0.99986 0.0
H254 H 0.13881 0.80705 0.01529 0.0
H255 H 0.21978 0.68533 0.99129 0.0
H256 H 0.23685 0.65321 0.02035 0.0
H257 H 0.28608 0.71785 1.00701 0.0
H258 H 0.30159 0.75372 0.06151 0.0
H259 H 0.25162 0.6894 0.07503 0.0
H260 H 0.24629 0.74717 0.08301 0.0
H261 H 0.06794 0.71452 0.03139 0.0
H262 H 1.01284 0.61836 0.04275 0.0
H263 H 0.15654 0.60996 0.0535 0.0
C264 C 0.27755 0.81595 0.0155 0.0
C265 C 0.27344 0.86024 1.0065 0.0
C266 C 0.22291 0.85635 1.00638 0.0
C267 C 0.17714 0.80949 0.01533 0.0
C268 C 0.1825 0.76692 0.02492 0.0
C269 C 0.23139 0.76961 0.02495 0.0
C270 C 0.22623 0.71829 0.03652 0.0
C271 C 0.24321 0.69213 0.01234 0.0
C272 C 0.25834 0.72775 0.06576 0.0
C273 C 0.16681 0.68616 0.04235 0.0
C274 C 0.14217 0.71484 0.03566 0.0
C275 C 0.08686 0.69182 0.03712 0.0
C276 C 0.05576 0.63731 0.04403 0.0
C277 C 0.08022 0.60666 0.04937 0.0
C278 C 0.13658 0.63245 0.04998 0.0
H279 H 0.51116 0.22214 0.02731 0.0
H280 H 0.3924 0.15389 0.95617 0.0
H281 H 0.41659 0.24352 0.93895 0.0
H282 H 0.48754 0.32715 0.04502 0.0
H283 H 0.55639 0.37463 0.05287 0.0
H284 H 0.53181 0.30481 0.05793 0.0
H285 H 0.60557 0.31297 0.02293 0.0
H286 H 0.62861 0.38207 0.0159 0.0
H287 H 0.60963 0.33618 0.98483 0.0
H288 H 0.4486 0.34231 0.93191 0.0
H289 H 0.48203 0.43891 0.93881 0.0
H290 H 0.58186 0.44192 0.0123 0.0
C291 C 0.49046 0.22599 0.00801 0.0
C292 C 0.44968 0.1805 0.99331 0.0
C293 C 0.42367 0.18777 0.96809 0.0
C294 C 0.43733 0.23874 0.95789 0.0
C295 C 0.47754 0.28271 0.97287 0.0
C296 C 0.50364 0.27677 0.99744 0.0
C297 C 0.54301 0.33034 0.01074 0.0
C298 C 0.52881 0.33446 0.04357 0.0
C299 C 0.60012 0.34093 0.00841 0.0
C300 C 0.53438 0.36704 0.99021 0.0
C301 C 0.49674 0.33915 0.9683 0.0
C302 C 0.47897 0.36472 0.94862 0.0
C303 C 0.49855 0.41975 0.95236 0.0
C304 C 0.53533 0.44819 0.97563 0.0
C305 C 0.55475 0.42155 0.9938 0.0
H306 H 0.59533 0.17488 0.97808 0.0
H307 H 0.60259 0.0301 0.98384 0.0
H308 H 0.69872 0.08375 0.99608 0.0
H309 H 0.73314 0.26656 0.95055 0.0
H310 H 0.73974 0.31997 0.97404 0.0
H311 H 0.67543 0.27153 0.95934 0.0
H312 H 0.63772 0.25095 0.01345 0.0
H313 H 0.70192 0.29947 0.02811 0.0
H314 H 0.66965 0.23198 0.04168 0.0
H315 H 0.79123 0.15286 0.01411 0.0
H316 H 0.87394 0.23118 0.03224 0.0
H317 H 0.8033 0.32997 0.01931 0.0
C318 C 0.61762 0.1545 0.98059 0.0
C319 C 0.59142 0.09813 0.97956 0.0
C320 C 0.62181 0.07306 0.98374 0.0
C321 C 0.67635 0.10333 0.99115 0.0
C322 C 0.69975 0.1585 0.99426 0.0
C323 C 0.67142 0.1839 0.98864 0.0
C324 C 0.70371 0.24266 0.99655 0.0
C325 C 0.7136 0.27721 0.96844 0.0
C326 C 0.67665 0.2571 0.02143 0.0
C327 C 0.7547 0.24655 0.00792 0.0
C328 C 0.75175 0.19766 1.00614 0.0
C329 C 0.79389 0.19121 0.01541 0.0
C330 C 0.84059 0.23593 0.0259 0.0
C331 C 0.84488 0.28659 0.02759 0.0
C332 C 0.80089 0.29164 0.01887 0.0
H333 H 0.83999 0.43374 0.98737 0.0
H334 H 0.98357 0.58825 0.98288 0.0
H335 H 0.92915 0.63129 0.98635 0.0
H336 H 0.7467 0.4696 0.94886 0.0
H337 H 0.69357 0.42955 0.97438 0.0
H338 H 0.74111 0.40985 0.96448 0.0
H339 H 0.76183 0.40628 0.02013 0.0
H340 H 0.71722 0.42824 0.03215 0.0
H341 H 0.78598 0.46486 0.04328 0.0
H342 H 0.86138 0.65691 0.9998 0.0
H343 H 0.78564 0.6645 0.01712 0.0
H344 H 0.68527 0.49254 0.01538 0.0
C345 C 0.85985 0.47665 0.98558 0.0
C346 C 0.91616 0.50765 0.98449 0.0
C347 C 0.94064 0.56365 0.98303 0.0
C348 C 0.90993 0.5884 0.98534 0.0
C349 C 0.85486 0.55656 0.98878 0.0
C350 C 0.82991 0.50179 0.98825 0.0
C351 C 0.77138 0.47653 0.99614 0.0
C352 C 0.7361 0.44446 0.96938 0.0
C353 C 0.75834 0.44192 0.02457 0.0
C354 C 0.76734 0.5256 1.00202 0.0
C355 C 0.81589 0.57128 0.99739 0.0
C356 C 0.82308 0.62142 1.003 0.0
C357 C 0.77962 0.62517 0.01316 0.0
C358 C 0.72908 0.57907 0.01783 0.0
C359 C 0.72309 0.52856 0.01204 0.0
H360 H 0.85375 0.74098 0.36459 0.0
H361 H 0.88124 0.9014 0.36081 0.0
H362 H 0.97347 0.9362 0.37939 0.0
H363 H 0.93916 0.75642 0.42966 0.0
H364 H 0.96405 0.71694 0.41298 0.0
H365 H 0.89813 0.70379 0.40369 0.0
H366 H 0.92123 0.71551 0.34687 0.0
H367 H 0.98636 0.72695 0.35607 0.0
H368 H 0.9794 0.77538 0.3343 0.0
H369 H 0.06418 0.95366 0.39675 0.0
H370 H 0.14963 0.95493 0.39827 0.0
H371 H 0.06552 0.78423 0.38665 0.0
C372 C 0.87913 0.78337 0.368 0.0
C373 C 0.86028 0.81858 0.36164 0.0
C374 C 0.89498 0.87387 0.36565 0.0
C375 C 0.94717 0.89386 0.37652 0.0
C376 C 0.96454 0.8581 0.38285 0.0
C377 C 0.93191 0.80411 0.37795 0.0
C378 C 0.96233 0.77495 0.38238 0.0
C379 C 0.93954 0.7357 0.40875 0.0
C380 C 0.96236 0.74657 0.35317 0.0
C381 C 0.01741 0.82097 0.38993 0.0
C382 C 0.01747 0.86841 0.39115 0.0
C383 C 0.06442 0.9167 0.39605 0.0
C384 C 0.11286 0.917 0.39756 0.0
C385 C 0.11414 0.8695 0.39352 0.0
C386 C 0.0655 0.82076 0.39109 0.0
H387 H 0.10087 0.19019 0.37158 0.0
H388 H 0.25455 0.30822 0.40672 0.0
H389 H 0.28521 0.24307 0.40317 0.0
H390 H 0.1002 0.06672 0.40723 0.0
H391 H 0.06396 0.02943 0.37434 0.0
H392 H 0.05516 0.08243 0.38825 0.0
H393 H 0.07757 0.12078 0.33347 0.0
H394 H 0.09207 0.07036 0.32189 0.0
H395 H 0.142 0.13958 0.31831 0.0
H396 H 0.30475 0.17404 0.38435 0.0
H397 H 0.30895 0.1007 0.36027 0.0
H398 H 0.13971 0.021 0.34096 0.0
C399 C 0.13981 0.20109 0.3803 0.0
C400 C 0.17484 0.25371 0.39037 0.0
C401 C 0.22657 0.26769 0.40005 0.0
C402 C 0.24439 0.231 0.39772 0.0
C403 C 0.20961 0.18023 0.38621 0.0
C404 C 0.15773 0.16455 0.37862 0.0
C405 C 0.12978 0.10925 0.36453 0.0
C406 C 0.08461 0.06955 0.38481 0.0
C407 C 0.10917 0.1101 0.33266 0.0
C408 C 0.17489 0.0974 0.36371 0.0
C409 C 0.22047 0.13902 0.37641 0.0
C410 C 0.26887 0.14052 0.37537 0.0
C411 C 0.27079 0.09845 0.36145 0.0
C412 C 0.22448 0.05419 0.34917 0.0
C413 C 0.1756 0.05356 0.35063 0.0
H414 H 1.00895 0.15918 0.36828 0.0
H415 H 0.91201 0.23028 0.34941 0.0
H416 H 0.83181 0.14723 0.36411 0.0
H417 H 0.91536 0.02803 0.34024 0.0
H418 H 0.93496 0.9974 0.36893 0.0
H419 H 0.98115 0.06347 0.35628 0.0
H420 H 0.99069 0.09354 0.41389 0.0
H421 H 0.94213 0.02601 0.42362 0.0
H422 H 0.93149 0.07982 0.43371 0.0
H423 H 0.76081 0.05466 0.37833 0.0
H424 H 0.70522 0.95709 0.38397 0.0
H425 H 0.84769 0.94711 0.39601 0.0
C426 C 0.9709 0.15718 0.36706 0.0
C427 C 0.96713 0.20149 0.35769 0.0
C428 C 0.91626 0.19706 0.35661 0.0
C429 C 0.87031 0.15012 0.36516 0.0
C430 C 0.87554 0.1077 0.37508 0.0
C431 C 0.92444 0.11058 0.3758 0.0
C432 C 0.91868 0.05831 0.38588 0.0
C433 C 0.9387 0.03545 0.36139 0.0
C434 C 0.94748 0.06478 0.41604 0.0
C435 C 0.85883 0.02514 0.38962 0.0
C436 C 0.83464 0.05459 0.38386 0.0
C437 C 0.77929 0.03131 0.38342 0.0
C438 C 0.74786 0.97591 0.38712 0.0
C439 C 0.77208 0.94468 0.39091 0.0
C440 C 0.82812 0.97021 0.39382 0.0
H441 H 0.27007 0.77245 0.32913 0.0
H442 H 0.11235 0.73923 0.30418 0.0
H443 H 0.07879 0.64281 0.30946 0.0
H444 H 0.25611 0.64704 0.29247 0.0
H445 H 0.29347 0.63783 0.32176 0.0
H446 H 0.3098 0.70396 0.31097 0.0
H447 H 0.29848 0.72797 0.36501 0.0
H448 H 0.28467 0.66345 0.3773 0.0
H449 H 0.23787 0.68518 0.3849 0.0
H450 H 0.0594 0.55429 0.32859 0.0
H451 H 0.05624 0.47687 0.35232 0.0
H452 H 0.228 0.56467 0.36329 0.0
C453 C 0.22917 0.74456 0.32305 0.0
C454 C 0.19399 0.76304 0.31538 0.0
C455 C 0.1402 0.72579 0.30893 0.0
C456 C 0.12078 0.671 0.3123 0.0
C457 C 0.15595 0.65425 0.32162 0.0
C458 C 0.20942 0.68978 0.32597 0.0
C459 C 0.23794 0.6618 0.33802 0.0
C460 C 0.27667 0.66274 0.31442 0.0
C461 C 0.26641 0.68605 0.36808 0.0
C462 C 0.19153 0.60579 0.34219 0.0
C463 C 0.14479 0.60236 0.33215 0.0
C464 C 0.09593 0.55627 0.3358 0.0
C465 C 0.09466 0.51249 0.34968 0.0
C466 C 0.14196 0.51426 0.35978 0.0
C467 C 0.19123 0.56169 0.35565 0.0
H468 H 0.27447 0.5068 0.35679 0.0
H469 H 0.28102 0.40988 0.28512 0.0
H470 H 0.37775 0.47444 0.27956 0.0
H471 H 0.38007 0.64114 0.33068 0.0
H472 H 0.40342 0.66085 0.36875 0.0
H473 H 0.33421 0.61429 0.36174 0.0
H474 H 0.33945 0.54829 0.39834 0.0
H475 H 0.40907 0.5938 0.40478 0.0
H476 H 0.38712 0.52733 0.39168 0.0
H477 H 0.47651 0.54302 0.28793 0.0
H478 H 0.56535 0.61033 0.3063 0.0
H479 H 0.49305 0.65884 0.37495 0.0
C480 C 0.29556 0.50041 0.33883 0.0
C481 C 0.26981 0.45393 0.3208 0.0
C482 C 0.2994 0.44597 0.29845 0.0
C483 C 0.35452 0.4822 0.29549 0.0
C484 C 0.37915 0.52593 0.31508 0.0
C485 C 0.35018 0.5354 0.33606 0.0
C486 C 0.38602 0.5807 0.35711 0.0
C487 C 0.37528 0.62701 0.35434 0.0
C488 C 0.38004 0.56134 0.3899 0.0
C489 C 0.44012 0.59562 0.34489 0.0
C490 C 0.43544 0.56374 0.32061 0.0
C491 C 0.48028 0.56845 0.30664 0.0
C492 C 0.53078 0.60679 0.31746 0.0
C493 C 0.53663 0.64019 0.34225 0.0
C494 C 0.49031 0.63426 0.356 0.0
H495 H 0.36841 0.8372 0.33763 0.0
H496 H 0.46301 1.00956 0.33927 0.0
H497 H 0.54351 1.00519 0.32861 0.0
H498 H 0.45979 0.81101 0.37347 0.0
H499 H 0.44737 0.75516 0.35029 0.0
H500 H 0.39587 0.77114 0.35552 0.0
H501 H 0.38766 0.78028 0.29726 0.0
H502 H 0.43606 0.75947 0.29305 0.0
H503 H 0.44708 0.82043 0.27605 0.0
H504 H 0.61566 0.9823 0.32103 0.0
H505 H 0.67266 0.94169 0.32088 0.0
H506 H 0.53146 0.78501 0.32234 0.0
C507 C 0.40598 0.874 0.33565 0.0
C508 C 0.40903 0.92368 0.33939 0.0
C509 C 0.45924 0.97089 0.33647 0.0
C510 C 0.50539 0.96893 0.33026 0.0
C511 C 0.50102 0.91947 0.32653 0.0
C512 C 0.45258 0.87284 0.32905 0.0
C513 C 0.45918 0.82485 0.32496 0.0
C514 C 0.43939 0.78843 0.35273 0.0
C515 C 0.43081 0.79439 0.29613 0.0
C516 C 0.51907 0.85172 0.32162 0.0
C517 C 0.54248 0.90636 0.32181 0.0
C518 C 0.59769 0.9395 0.32043 0.0
C519 C 0.62985 0.91614 0.32003 0.0
C520 C 0.60662 0.86023 0.32133 0.0
C521 C 0.55044 0.8279 0.32103 0.0
H522 H 0.71864 0.09332 0.70937 0.0
H523 H 0.80255 0.2577 0.738 0.0
H524 H 0.72085 0.26232 0.7304 0.0
H525 H 0.65045 0.10466 0.65243 0.0
H526 H 0.58813 0.04366 0.65733 0.0
H527 H 0.64877 0.04872 0.67096 0.0
H528 H 0.61084 0.02359 0.72482 0.0
H529 H 0.549 0.01612 0.71119 0.0
H530 H 0.58315 0.05986 0.74242 0.0
H531 H 0.63653 0.25435 0.7082 0.0
H532 H 0.54946 0.22871 0.68473 0.0
H533 H 0.51725 0.06718 0.67434 0.0
C534 C 0.71861 0.129 0.71613 0.0
C535 C 0.76645 0.17463 0.72527 0.0
C536 C 0.76586 0.22173 0.73217 0.0
C537 C 0.71975 0.22492 0.72738 0.0
C538 C 0.6741 0.18016 0.71643 0.0
C539 C 0.6725 0.13236 0.7121 0.0
C540 C 0.61959 0.09108 0.69849 0.0
C541 C 0.62725 0.07088 0.66801 0.0
C542 C 0.58881 0.04493 0.72055 0.0
C543 C 0.59263 0.12368 0.69452 0.0
C544 C 0.62486 0.17511 0.70477 0.0
C545 C 0.61045 0.21379 0.70089 0.0
C546 C 0.56125 0.19907 0.68713 0.0
C547 C 0.52661 0.14599 0.67772 0.0
C548 C 0.54276 0.10797 0.68151 0.0
H549 H 0.82774 0.35406 0.67486 0.0
H550 H 0.95736 0.40119 0.73849 0.0
H551 H 0.94596 0.47482 0.75628 0.0
H552 H 0.86549 0.48038 0.65181 0.0
H553 H 0.79944 0.47017 0.64716 0.0
H554 H 0.81013 0.41483 0.64409 0.0
H555 H 0.73995 0.36514 0.68575 0.0
H556 H 0.72941 0.42086 0.68878 0.0
H557 H 0.74731 0.39691 0.72165 0.0
H558 H 0.92831 0.55113 0.76284 0.0
H559 H 0.91012 0.62491 0.75389 0.0
H560 H 0.79687 0.53042 0.68428 0.0
C561 C 0.85249 0.37894 0.69314 0.0
C562 C 0.8932 0.37174 0.70536 0.0
C563 C 0.92587 0.40602 0.72874 0.0
C564 C 0.91947 0.44781 0.73921 0.0
C565 C 0.88019 0.4552 0.7261 0.0
C566 C 0.8472 0.42165 0.70354 0.0
C567 C 0.81307 0.44234 0.6904 0.0
C568 C 0.82266 0.45256 0.65637 0.0
C569 C 0.75393 0.40403 0.69705 0.0
C570 C 0.83395 0.49377 0.70795 0.0
C571 C 0.87136 0.49993 0.72917 0.0
C572 C 0.8983 0.5463 0.74663 0.0
C573 C 0.88769 0.58796 0.74158 0.0
C574 C 0.85152 0.58313 0.71877 0.0
C575 C 0.82384 0.53493 0.70239 0.0
H576 H 0.59315 0.51676 0.67157 0.0
H577 H 0.72059 0.50848 0.71732 0.0
H578 H 0.65568 0.42146 0.73867 0.0
H579 H 0.49045 0.44916 0.72972 0.0
H580 H 0.43798 0.41325 0.7026 0.0
H581 H 0.49355 0.47759 0.6932 0.0
H582 H 0.51324 0.43784 0.64618 0.0
H583 H 0.45686 0.37408 0.65507 0.0
H584 H 0.52147 0.38087 0.65056 0.0
H585 H 0.57832 0.33294 0.7523 0.0
H586 H 0.49778 0.24409 0.74973 0.0
H587 H 0.41914 0.30789 0.69569 0.0
C588 C 0.60718 0.4967 0.68629 0.0
C589 C 0.66211 0.51916 0.69253 0.0
C590 C 0.679 0.49152 0.71163 0.0
C591 C 0.6422 0.44246 0.72435 0.0
C592 C 0.58834 0.42137 0.71787 0.0
C593 C 0.57086 0.44717 0.6989 0.0
C594 C 0.51149 0.41311 0.69302 0.0
C595 C 0.48161 0.4399 0.70538 0.0
C596 C 0.50012 0.40073 0.65921 0.0
C597 C 0.49859 0.36364 0.711 0.0
C598 C 0.54332 0.36985 0.72578 0.0
C599 C 0.54274 0.32801 0.74143 0.0
C600 C 0.49645 0.27775 0.74034 0.0
C601 C 0.45144 0.26955 0.72359 0.0
C602 C 0.45183 0.31367 0.71001 0.0
H603 H 0.90102 0.88935 0.68647 0.0
H604 H 0.73335 0.80273 0.66271 0.0
H605 H 0.74069 0.88436 0.64185 0.0
H606 H 0.90307 1.00358 0.71226 0.0
H607 H 0.96836 0.04984 0.69819 0.0
H608 H 0.95144 0.98299 0.70715 0.0
H609 H 0.97718 0.97159 0.65318 0.0
H610 H 0.99288 0.03812 0.64381 0.0
H611 H 0.94546 0.98287 0.62134 0.0
H612 H 0.76277 0.97668 0.62857 0.0
H613 H 0.79528 0.07312 0.63094 0.0
H614 H 0.94775 0.10137 0.66298 0.0
C615 C 0.86607 0.88751 0.67655 0.0
C616 C 0.81658 0.83943 0.67641 0.0
C617 C 0.77168 0.839 0.66343 0.0
C618 C 0.77554 0.88515 0.65112 0.0
C619 C 0.82463 0.93196 0.65178 0.0
C620 C 0.86903 0.93367 0.66443 0.0
C621 C 0.91556 0.99028 0.66517 0.0
C622 C 0.93575 1.00768 0.69761 0.0
C623 C 0.96042 0.99602 0.64465 0.0
C624 C 0.88954 0.02026 0.65247 0.0
C625 C 0.8375 0.98569 0.64397 0.0
C626 C 0.80386 1.00418 0.63443 0.0
C627 C 0.82283 0.05918 0.63535 0.0
C628 C 0.87468 0.09488 0.64602 0.0
C629 C 0.90893 0.07517 0.65336 0.0
H630 H 0.99166 0.74051 0.66077 0.0
H631 H 0.91647 0.81886 0.61738 0.0
H632 H 1.00427 0.90141 0.61336 0.0
H633 H 0.07073 0.84199 0.70665 0.0
H634 H 0.12792 0.83357 0.70615 0.0
H635 H 0.06274 0.77756 0.69913 0.0
H636 H 0.09296 0.76014 0.64788 0.0
H637 H 0.15897 0.81505 0.65512 0.0
H638 H 0.12442 0.8134 0.62097 0.0
H639 H 0.09809 0.97952 0.6227 0.0
H640 H 0.19038 0.04286 0.63932 0.0
H641 H 0.20321 0.91353 0.67804 0.0
C642 C 0.99429 0.77408 0.64868 0.0
C643 C 0.94758 0.77274 0.63833 0.0
C644 C 0.95196 0.8183 0.6242 0.0
C645 C 1.00166 0.86562 0.62233 0.0
C646 C 0.04653 0.86647 0.63453 0.0
C647 C 0.04335 0.82138 0.64686 0.0
C648 C 0.09563 0.83364 0.66145 0.0
C649 C 0.0888 0.82093 0.69534 0.0
C650 C 0.11941 0.80379 0.64538 0.0
C651 C 0.12864 0.89295 0.65611 0.0
C652 C 0.09975 0.91124 0.64048 0.0
C653 C 0.12107 0.96528 0.63453 0.0
C654 C 0.17322 1.00111 0.64434 0.0
C655 C 0.20338 0.98304 0.66014 0.0
C656 C 0.18084 0.92825 0.66596 0.0
H657 H 0.20858 0.12903 0.64296 0.0
H658 H 0.34325 0.28437 0.66331 0.0
H659 H 0.28165 0.31739 0.67391 0.0
H660 H 0.11934 0.17783 0.61139 0.0
H661 H 0.06071 0.12388 0.62795 0.0
H662 H 0.11351 0.11349 0.61526 0.0
H663 H 0.12139 0.07992 0.66727 0.0
H664 H 0.06876 0.08885 0.68144 0.0
H665 H 0.13263 0.12081 0.70004 0.0
H666 H 0.20638 0.3272 0.69258 0.0
H667 H 0.12339 0.31898 0.71074 0.0
H668 H 0.0358 0.15537 0.67943 0.0
C669 C 0.22517 0.17064 0.64821 0.0
C670 C 0.2807 0.2042 0.65228 0.0
C671 C 0.30104 0.25824 0.65967 0.0
C672 C 0.26618 0.27708 0.66601 0.0
C673 C 0.21139 0.24151 0.66427 0.0
C674 C 0.19095 0.18976 0.65469 0.0
C675 C 0.13075 0.1581 0.65745 0.0
C676 C 0.10453 0.14235 0.62616 0.0
C677 C 0.11235 0.10905 0.67775 0.0
C678 C 0.12067 0.19911 0.67201 0.0
C679 C 0.16768 0.24711 0.67523 0.0
C680 C 0.16928 0.29021 0.68952 0.0
C681 C 0.12162 0.28476 0.70004 0.0
C682 C 0.07242 0.23639 0.69646 0.0
C683 C 0.07231 0.19284 0.68244 0.0
H684 H 0.06823 0.32972 0.25034 0.0
H685 H 0.02587 0.43624 0.29425 0.0
H686 H 1.00009 0.45583 0.24477 0.0
H687 H 0.12408 0.40823 0.18392 0.0
H688 H 0.0993 0.35148 0.15925 0.0
H689 H 0.114 0.34578 0.19804 0.0
H690 H 0.01803 0.267 0.20505 0.0
H691 H 1.00291 0.27254 0.16631 0.0
H692 H 0.96247 0.27564 0.19588 0.0
H693 H 0.97916 0.46352 0.19069 0.0
H694 H 0.96654 0.46157 0.13594 0.0
H695 H 0.02255 0.34947 0.12694 0.0
C696 C 0.05347 0.35718 0.24973 0.0
C697 C 0.04885 0.38129 0.27636 0.0
C698 C 0.02964 0.41717 0.27428 0.0
C699 C 1.01485 0.42845 0.24627 0.0
C700 C 0.0196 0.40359 0.22059 0.0
C701 C 0.03862 0.36885 0.22207 0.0
C702 C 0.04046 0.34782 0.19113 0.0
C703 C 0.09787 0.36433 0.18259 0.0
C704 C 1.00377 0.28715 0.18951 0.0
C705 C 0.01935 0.37611 0.17186 0.0
C706 C 1.00757 0.40802 0.18938 0.0
C707 C 0.98823 0.43868 0.17681 0.0
C708 C 0.98125 0.43722 0.14556 0.0
C709 C 0.99349 0.40526 0.12694 0.0
C710 C 1.0124 0.37393 0.14045 0.0
H711 H 0.72455 0.80322 0.23635 0.0
H712 H 0.65681 0.64846 0.27903 0.0
H713 H 0.62491 0.60507 0.22979 0.0
H714 H 0.62328 0.76801 0.17879 0.0
H715 H 0.66928 0.80647 0.14948 0.0
H716 H 0.68538 0.82685 0.18823 0.0
H717 H 0.77333 0.82565 0.18344 0.0
H718 H 0.75775 0.80578 0.14462 0.0
H719 H 0.77144 0.76619 0.17033 0.0
H720 H 0.59752 0.57806 0.17808 0.0
H721 H 0.58644 0.56604 0.12376 0.0
H722 H 0.67777 0.73739 0.11091 0.0
C723 C 0.70305 0.76022 0.23518 0.0
C724 C 0.69291 0.72904 0.26149 0.0
C725 C 0.6652 0.67299 0.25917 0.0
C726 C 0.64656 0.648 0.23135 0.0
C727 C 0.65674 0.67963 0.20593 0.0
C728 C 0.68517 0.73441 0.20728 0.0
C729 C 0.693 0.75825 0.17588 0.0
C730 C 0.66613 0.79189 0.17293 0.0
C731 C 0.75242 0.79089 0.16811 0.0
C732 C 0.6645 0.70808 0.15682 0.0
C733 C 0.64324 0.66356 0.17502 0.0
C734 C 0.61453 0.61248 0.1635 0.0
C735 C 0.60864 0.60626 0.13244 0.0
C736 C 0.63214 0.65075 0.11279 0.0
C737 C 0.65957 0.70263 0.12523 0.0
H738 H 0.42854 0.02757 0.11861 0.0
H739 H 0.28672 0.0168 0.07887 0.0
H740 H 0.2454 0.99879 0.12907 0.0
H741 H 0.3625 0.92319 0.17188 0.0
H742 H 0.41129 0.95588 0.20129 0.0
H743 H 0.43072 0.96962 0.16243 0.0
H744 H 0.46881 0.0702 0.17185 0.0
H745 H 0.44971 0.05682 0.21078 0.0
H746 H 0.42678 0.09254 0.18794 0.0
H747 H 0.21809 0.97819 0.18251 0.0
H748 H 0.20688 0.96004 0.23669 0.0
H749 H 0.36726 0.98591 0.24284 0.0
C750 C 0.38891 0.02181 0.12043 0.0
C751 C 0.36087 0.02373 0.09473 0.0
C752 C 0.30908 0.01582 0.09818 0.0
C753 C 0.28524 1.00544 0.12659 0.0
C754 C 0.31383 1.00339 0.15133 0.0
C755 C 0.36463 0.01169 0.14863 0.0
C756 C 0.38642 1.00688 0.17887 0.0
C757 C 0.39842 0.96117 0.17859 0.0
C758 C 0.43586 0.05976 0.18789 0.0
C759 C 0.33966 0.99416 0.199 0.0
C760 C 0.29827 0.99222 0.18251 0.0
C761 C 0.2503 0.97992 0.1957 0.0
C762 C 0.24437 0.96948 0.22657 0.0
C763 C 0.28628 0.97164 0.24419 0.0
C764 C 0.33466 0.98429 0.2301 0.0
H765 H 0.44484 0.06944 0.8976 0.0
H766 H 0.28886 0.93335 0.91435 0.0
H767 H 0.26898 0.92521 0.85961 0.0
H768 H 0.39999 0.12639 0.84129 0.0
H769 H 0.4598 0.15221 0.81933 0.0
H770 H 0.46238 0.14395 0.85932 0.0
H771 H 0.50499 0.08566 0.85011 0.0
H772 H 0.50149 0.09292 0.81002 0.0
H773 H 0.47104 0.02755 0.82649 0.0
H774 H 0.26743 0.93132 0.80281 0.0
H775 H 0.27703 0.96143 0.74977 0.0
H776 H 0.43053 0.09812 0.7713 0.0
C777 C 0.40656 0.038 0.8896 0.0
C778 C 0.36833 1.00182 0.90984 0.0
C779 C 0.31836 0.96152 0.89896 0.0
C780 C 0.30706 0.9563 0.86798 0.0
C781 C 0.34591 0.99228 0.84844 0.0
C782 C 0.39415 0.03315 0.85892 0.0
C783 C 0.42713 0.06948 0.83365 0.0
C784 C 0.43793 0.12635 0.8387 0.0
C785 C 0.47924 0.06883 0.82985 0.0
C786 C 0.38986 0.04288 0.8073 0.0
C787 C 0.3438 0.9976 0.81612 0.0
C788 C 0.30331 0.96666 0.79564 0.0
C789 C 0.30924 0.98364 0.7656 0.0
C790 C 0.35473 0.03152 0.75673 0.0
C791 C 0.3958 0.06091 0.77766 0.0
H792 H 0.99974 0.42467 0.91718 0.0
H793 H 0.01679 0.29911 0.95903 0.0
H794 H 1.00669 0.25769 0.90903 0.0
H795 H 0.90063 0.34289 0.863 0.0
H796 H 0.9267 0.39239 0.83373 0.0
H797 H 0.93602 0.41253 0.87263 0.0
H798 H 0.03786 0.46785 0.86462 0.0
H799 H 0.02886 0.4478 0.82569 0.0
H800 H 0.07217 0.43604 0.84955 0.0
H801 H 0.99369 0.22978 0.85526 0.0
H802 H 0.97807 0.2153 0.80104 0.0
H803 H 0.96984 0.35974 0.79323 0.0
C804 C 1.00158 0.38852 0.91597 0.0
C805 C 1.0093 0.36519 0.94215 0.0
C806 C 1.01107 0.31776 0.93939 0.0
C807 C 1.00541 0.29403 0.91108 0.0
C808 C 0.99802 0.31827 0.88585 0.0
C809 C 0.99606 0.36442 0.88799 0.0
C810 C 0.98709 0.38209 0.85741 0.0
C811 C 0.93448 0.38248 0.85666 0.0
C812 C 0.03432 0.43668 0.84882 0.0
C813 C 0.98419 0.33846 0.83759 0.0
C814 C 0.99061 0.30219 0.85459 0.0
C815 C 0.98868 0.2579 0.84175 0.0
C816 C 0.9796 0.25009 0.81079 0.0
C817 C 0.97256 0.28639 0.79267 0.0
C818 C 0.97534 0.33149 0.80634 0.0
H819 H 0.66756 0.65482 0.77851 0.0
H820 H 0.83412 0.703 0.78972 0.0
H821 H 0.82381 0.69792 0.84463 0.0
H822 H 0.66217 0.72957 0.84021 0.0
H823 H 0.5963 0.68035 0.85208 0.0
H824 H 0.61487 0.68365 0.81322 0.0
H825 H 0.58941 0.58468 0.81475 0.0
H826 H 0.57031 0.58097 0.85357 0.0
H827 H 0.61869 0.56276 0.84306 0.0
H828 H 0.79786 0.69211 0.89826 0.0
H829 H 0.75606 0.68313 0.94773 0.0
H830 H 0.60656 0.64013 0.90291 0.0
C831 C 0.70148 0.66343 0.79257 0.0
C832 C 0.75168 0.6795 0.77976 0.0
C833 C 0.79535 0.69106 0.79897 0.0
C834 C 0.78996 0.68817 0.83025 0.0
C835 C 0.74056 0.67367 0.84226 0.0
C836 C 0.69692 0.66119 0.82415 0.0
C837 C 0.64892 0.64862 0.84323 0.0
C838 C 0.62944 0.6879 0.83679 0.0
C839 C 0.60419 0.59082 0.83836 0.0
C840 C 0.6728 0.65668 0.87463 0.0
C841 C 0.72564 0.67086 0.8735 0.0
C842 C 0.75639 0.68089 0.8995 0.0
C843 C 0.73236 0.67593 0.92752 0.0
C844 C 0.67812 0.66128 0.92935 0.0
C845 C 0.64819 0.65167 0.9024 0.0
H846 H 0.71574 0.79175 0.4669 0.0
H847 H 0.65013 0.63127 0.43225 0.0
H848 H 0.64761 0.59859 0.48373 0.0
H849 H 0.80146 0.78211 0.52124 0.0
H850 H 0.79316 0.82185 0.54933 0.0
H851 H 0.78612 0.83241 0.51004 0.0
H852 H 0.69217 0.81769 0.52023 0.0
H853 H 0.69877 0.80653 0.55954 0.0
H854 H 0.64304 0.75708 0.53802 0.0
H855 H 0.65415 0.58303 0.53764 0.0
H856 H 0.67833 0.58616 0.59101 0.0
H857 H 0.74233 0.75672 0.59242 0.0
C858 C 0.70045 0.74967 0.47024 0.0
C859 C 0.68277 0.71394 0.44554 0.0
C860 C 0.66393 0.65936 0.45074 0.0
C861 C 0.66195 0.64036 0.47995 0.0
C862 C 0.67933 0.67643 0.50377 0.0
C863 C 0.69887 0.73004 0.49933 0.0
C864 C 0.7186 0.76057 0.52881 0.0
C865 C 0.77838 0.80165 0.52725 0.0
C866 C 0.6862 0.78703 0.53714 0.0
C867 C 0.70765 0.71571 0.55039 0.0
C868 C 0.68422 0.66752 0.53534 0.0
C869 C 0.6722 0.6204 0.54972 0.0
C870 C 0.68606 0.62262 0.58005 0.0
C871 C 0.71186 0.67159 0.59583 0.0
C872 C 0.72163 0.71866 0.58103 0.0
H873 H 0.32506 0.95357 0.45093 0.0
H874 H 0.35057 0.09795 0.40712 0.0
H875 H 0.37178 0.14327 0.45644 0.0
H876 H 0.26167 0.9643 0.51556 0.0
H877 H 0.29173 0.9387 0.54104 0.0
H878 H 0.28151 0.91854 0.50216 0.0
H879 H 0.38179 0.95041 0.49693 0.0
H880 H 0.39235 0.97051 0.53586 0.0
H881 H 0.43051 0.01779 0.50696 0.0
H882 H 0.38525 0.17093 0.5105 0.0
H883 H 0.3922 0.1806 0.56552 0.0
H884 H 0.35907 0.01811 0.57419 0.0
C885 C 0.33565 0.99493 0.45153 0.0
C886 C 0.33602 0.0222 0.42506 0.0
C887 C 0.34985 0.07618 0.42702 0.0
C888 C 0.36207 0.10227 0.45493 0.0
C889 C 0.36062 0.07387 0.48056 0.0
C890 C 0.34806 0.0215 0.47909 0.0
C891 C 0.34779 0.99945 0.51003 0.0
C892 C 0.29238 0.95248 0.51764 0.0
C893 C 0.39067 0.98362 0.51259 0.0
C894 C 0.36151 0.04749 0.52929 0.0
C895 C 0.36885 0.08996 0.51178 0.0
C896 C 0.38003 0.13813 0.52441 0.0
C897 C 0.38371 0.14307 0.55575 0.0
C898 C 0.37632 0.10008 0.57425 0.0
C899 C 0.3654 0.05179 0.56071 0.0
H900 H 0.93487 0.3004 0.58489 0.0
H901 H 0.0819 0.32593 0.62578 0.0
H902 H 0.12079 0.33667 0.57526 0.0
H903 H 0.93587 0.22524 0.52098 0.0
H904 H 0.90983 0.25428 0.49507 0.0
H905 H 0.89302 0.24869 0.53438 0.0
H906 H 0.92855 0.34995 0.53704 0.0
H907 H 0.94489 0.35577 0.49768 0.0
H908 H 0.99544 0.39576 0.52499 0.0
H909 H 0.14359 0.3441 0.52107 0.0
H910 H 0.1523 0.35451 0.46619 0.0
H911 H 0.99053 0.32406 0.45917 0.0
C912 C 0.97541 0.30857 0.58329 0.0
C913 C 1.00545 0.31257 0.60944 0.0
C914 C 0.05824 0.32315 0.60622 0.0
C915 C 0.08054 0.32894 0.57758 0.0
C916 C 0.04958 0.32405 0.55237 0.0
C917 C 0.99833 0.31454 0.55488 0.0
C918 C 0.97406 0.31201 0.52408 0.0
C919 C 0.9253 0.25676 0.5183 0.0
C920 C 0.95992 0.356 0.52076 0.0
C921 C 0.01992 0.32199 0.50381 0.0
C922 C 0.06282 0.32841 0.52077 0.0
C923 C 0.11033 0.3392 0.50758 0.0
C924 C 0.1148 0.34504 0.47635 0.0
C925 C 0.07213 0.34021 0.45838 0.0
C926 C 0.02355 0.32737 0.47227 0.0
loop_
_geom_bond_atom_site_label_1
_geom_bond_atom_site_label_2
_geom_bond_distance
_geom_bond_site_symmetry_2
_ccdc_geom_bond_type
Fe0 O2 1.918 1_556 S
Fe0 O5 1.997 1_455 S
Fe0 O6 2.002 . S
Fe0 O11 1.976 . S
Fe0 O14 1.996 1_556 S
Fe1 O2 1.918 . S
Fe1 O9 1.997 1_454 S
Fe1 O12 1.996 1_554 S
Fe1 O16 1.976 . S
Fe1 O19 2.002 1_455 S
O2 Fe0 1.918 1_554 S
O2 Fe1 1.918 . S
O2 Fe3 1.918 1_455 S
Fe3 O2 1.918 1_655 S
Fe3 O4 2.002 . S
Fe3 O13 1.976 1_655 S
Fe3 O17 1.996 . S
Fe3 O20 1.997 . S
O4 Fe3 2.002 . S
O4 C21 1.295 1_554 S
O5 Fe0 1.997 1_655 S
O5 C21 1.235 . S
O6 Fe0 2.002 . S
O6 C7 1.295 1_455 S
C7 O6 1.295 1_655 S
C7 O9 1.235 . S
C8 O13 1.287 . S
C8 O14 1.255 . S
O9 Fe1 1.997 1_656 S
O9 C7 1.235 . S
C10 O16 1.287 . S
C10 O17 1.255 1_455 S
O11 Fe0 1.976 . S
O11 C18 1.287 . S
O12 Fe1 1.996 1_556 S
O12 C18 1.255 . S
O13 Fe3 1.976 1_455 S
O13 C8 1.287 . S
O14 Fe0 1.996 1_554 S
O14 C8 1.255 . S
C15 O19 1.295 . S
C15 O20 1.235 . S
O16 Fe1 1.976 . S
O16 C10 1.287 . S
O17 Fe3 1.996 . S
O17 C10 1.255 1_655 S
C18 O11 1.287 . S
C18 O12 1.255 . S
O19 Fe1 2.002 1_655 S
O19 C15 1.295 . S
O20 Fe3 1.997 . S
O20 C15 1.235 . S
C21 O4 1.295 1_556 S
C21 O5 1.235 . S
Fe22 O24 1.918 . S
Fe22 O27 1.997 . S
Fe22 O28 2.002 1_554 S
Fe22 O33 1.976 1_554 S
Fe22 O36 1.996 . S
Fe23 O24 1.918 1_556 S
Fe23 O31 1.997 . S
Fe23 O34 1.996 . S
Fe23 O38 1.976 . S
Fe23 O41 2.002 1_556 S
O24 Fe22 1.918 . S
O24 Fe23 1.918 1_554 S
O24 Fe25 1.918 . S
Fe25 O24 1.918 . S
Fe25 O26 2.002 . S
Fe25 O35 1.976 . S
Fe25 O39 1.996 . S
Fe25 O42 1.997 . S
O26 Fe25 2.002 . S
O26 C43 1.295 . S
O27 Fe22 1.997 . S
O27 C43 1.235 . S
O28 Fe22 2.002 1_556 S
O28 C29 1.295 . S
C29 O28 1.295 . S
C29 O31 1.235 . S
C30 O35 1.287 . S
C30 O36 1.255 . S
O31 Fe23 1.997 . S
O31 C29 1.235 . S
C32 O38 1.287 . S
C32 O39 1.255 1_556 S
O33 Fe22 1.976 1_556 S
O33 C40 1.287 . S
O34 Fe23 1.996 . S
O34 C40 1.255 . S
O35 Fe25 1.976 . S
O35 C30 1.287 . S
O36 Fe22 1.996 . S
O36 C30 1.255 . S
C37 O41 1.295 . S
C37 O42 1.235 . S
O38 Fe23 1.976 . S
O38 C32 1.287 . S
O39 Fe25 1.996 . S
O39 C32 1.255 1_554 S
C40 O33 1.287 . S
C40 O34 1.255 . S
O41 Fe23 2.002 1_554 S
O41 C37 1.295 . S
O42 Fe25 1.997 . S
O42 C37 1.235 . S
C43 O26 1.295 . S
C43 O27 1.235 . S
Fe44 O46 1.918 1_566 S
Fe44 O49 1.997 1_565 S
Fe44 O50 2.002 . S
Fe44 O55 1.976 . S
Fe44 O58 1.996 1_556 S
Fe45 O46 1.918 . S
Fe45 O53 1.997 1_554 S
Fe45 O56 1.993 1_544 S
Fe45 O60 1.976 1_545 S
Fe45 O63 2.002 . S
O46 Fe44 1.918 1_544 S
O46 Fe45 1.918 . S
O46 Fe47 1.918 . S
Fe47 O46 1.918 . S
Fe47 O48 2.002 . S
Fe47 O57 1.976 1_545 S
Fe47 O61 1.996 . S
Fe47 O64 1.997 . S
O48 Fe47 2.002 . S
O48 C65 1.295 1_554 S
O49 Fe44 1.997 1_545 S
O49 C65 1.235 . S
O50 Fe44 2.002 . S
O50 C51 1.295 1_565 S
C51 O50 1.295 1_545 S
C51 O53 1.235 . S
C52 O57 1.287 . S
C52 O58 1.255 . S
O53 Fe45 1.997 1_556 S
O53 C51 1.235 . S
C54 O60 1.287 . S
C54 O61 1.255 1_565 S
O55 Fe44 1.976 . S
O55 C62 1.287 . S
O56 Fe45 1.993 1_566 S
O56 C62 1.260 . S
O57 Fe47 1.976 1_565 S
O57 C52 1.287 . S
O58 Fe44 1.996 1_554 S
O58 C52 1.255 . S
C59 O63 1.295 . S
C59 O64 1.235 . S
O60 Fe45 1.976 1_565 S
O60 C54 1.287 . S
O61 Fe47 1.996 . S
O61 C54 1.255 1_545 S
C62 O55 1.287 . S
C62 O56 1.260 . S
O63 Fe45 2.002 . S
O63 C59 1.295 . S
O64 Fe47 1.997 . S
O64 C59 1.235 . S
C65 O48 1.295 1_556 S
C65 O49 1.235 . S
Fe66 O68 1.918 . S
Fe66 O71 1.997 . S
Fe66 O72 2.002 . S
Fe66 O77 1.976 . S
Fe66 O80 1.996 . S
Fe67 O68 1.918 . S
Fe67 O75 1.997 . S
Fe67 O78 1.996 . S
Fe67 O82 1.976 . S
Fe67 O85 2.002 . S
O68 Fe66 1.918 . S
O68 Fe67 1.918 . S
O68 Fe69 1.918 . S
Fe69 O68 1.918 . S
Fe69 O70 2.002 . S
Fe69 O79 1.976 . S
Fe69 O83 1.996 . S
Fe69 O86 1.997 . S
O70 Fe69 2.002 . S
O70 C87 1.295 . S
O71 Fe66 1.997 . S
O71 C87 1.235 . S
O72 Fe66 2.002 . S
O72 C73 1.295 . S
C73 O72 1.295 . S
C73 O75 1.235 . S
C74 O79 1.287 . S
C74 O80 1.255 . S
O75 Fe67 1.997 . S
O75 C73 1.235 . S
C76 O82 1.287 . S
C76 O83 1.255 . S
O77 Fe66 1.976 . S
O77 C84 1.287 . S
O78 Fe67 1.996 . S
O78 C84 1.255 . S
O79 Fe69 1.976 . S
O79 C74 1.287 . S
O80 Fe66 1.996 . S
O80 C74 1.255 . S
C81 O85 1.295 . S
C81 O86 1.235 . S
O82 Fe67 1.976 . S
O82 C76 1.287 . S
O83 Fe69 1.996 . S
O83 C76 1.255 . S
C84 O77 1.287 . S
C84 O78 1.255 . S
O85 Fe67 2.002 . S
O85 C81 1.295 . S
O86 Fe69 1.997 . S
O86 C81 1.235 . S
C87 O70 1.295 . S
C87 O71 1.235 . S
Fe88 O90 1.918 . S
Fe88 O93 1.997 . S
Fe88 O94 2.002 . S
Fe88 O99 1.976 . S
Fe88 O102 1.996 . S
Fe89 O90 1.918 . S
Fe89 O97 1.997 . S
Fe89 O100 1.996 . S
Fe89 O104 1.976 . S
Fe89 O107 2.002 1_565 S
O90 Fe88 1.918 . S
O90 Fe89 1.918 . S
O90 Fe91 1.918 . S
Fe91 O90 1.918 . S
Fe91 O92 2.002 . S
Fe91 O101 1.976 . S
Fe91 O105 1.996 . S
Fe91 O108 1.997 . S
O92 Fe91 2.002 . S
O92 C109 1.295 . S
O93 Fe88 1.997 . S
O93 C109 1.235 . S
O94 Fe88 2.002 . S
O94 C95 1.295 . S
C95 O94 1.295 . S
C95 O97 1.235 . S
C96 O101 1.287 . S
C96 O102 1.255 . S
O97 Fe89 1.997 . S
O97 C95 1.235 . S
C98 O104 1.287 . S
C98 O105 1.255 . S
O99 Fe88 1.976 . S
O99 C106 1.287 . S
O100 Fe89 1.996 . S
O100 C106 1.255 . S
O101 Fe91 1.976 . S
O101 C96 1.287 . S
O102 Fe88 1.996 . S
O102 C96 1.255 . S
C103 O107 1.295 . S
C103 O108 1.235 1_545 S
O104 Fe89 1.976 . S
O104 C98 1.287 . S
O105 Fe91 1.996 . S
O105 C98 1.255 . S
C106 O99 1.287 . S
C106 O100 1.255 . S
O107 Fe89 2.002 1_545 S
O107 C103 1.295 . S
O108 Fe91 1.997 . S
O108 C103 1.235 1_565 S
C109 O92 1.295 . S
C109 O93 1.235 . S
Fe110 O112 1.918 . S
Fe110 O115 1.997 . S
Fe110 O116 2.002 1_455 S
Fe110 O121 1.976 . S
Fe110 O124 1.996 . S
Fe111 O112 1.918 . S
Fe111 O119 1.997 . S
Fe111 O122 1.996 . S
Fe111 O126 1.976 . S
Fe111 O129 2.002 . S
O112 Fe110 1.918 . S
O112 Fe111 1.918 . S
O112 Fe113 1.918 . S
Fe113 O112 1.918 . S
Fe113 O114 2.002 . S
Fe113 O123 1.976 . S
Fe113 O127 1.996 . S
Fe113 O130 1.997 . S
O114 Fe113 2.002 . S
O114 C131 1.295 . S
O115 Fe110 1.997 . S
O115 C131 1.235 . S
O116 Fe110 2.002 1_655 S
O116 C117 1.295 . S
C117 O116 1.295 . S
C117 O119 1.235 1_655 S
C118 O123 1.287 . S
C118 O124 1.255 . S
O119 Fe111 1.997 . S
O119 C117 1.235 1_455 S
C120 O126 1.287 . S
C120 O127 1.255 . S
O121 Fe110 1.976 . S
O121 C128 1.287 . S
O122 Fe111 1.996 . S
O122 C128 1.255 . S
O123 Fe113 1.976 . S
O123 C118 1.287 . S
O124 Fe110 1.996 . S
O124 C118 1.255 . S
C125 O129 1.295 . S
C125 O130 1.235 . S
O126 Fe111 1.976 . S
O126 C120 1.287 . S
O127 Fe113 1.996 . S
O127 C120 1.255 . S
C128 O121 1.287 . S
C128 O122 1.255 . S
O129 Fe111 2.002 . S
O129 C125 1.295 . S
O130 Fe113 1.997 . S
O130 C125 1.235 . S
C131 O114 1.295 . S
C131 O115 1.235 . S
Fe132 O134 1.918 . S
Fe132 O137 1.997 . S
Fe132 O138 2.002 . S
Fe132 O143 1.976 . S
Fe132 O146 1.996 . S
Fe133 O134 1.918 . S
Fe133 O141 1.997 . S
Fe133 O144 1.996 . S
Fe133 O148 1.976 . S
Fe133 O151 2.002 1_545 S
O134 Fe132 1.918 . S
O134 Fe133 1.918 . S
O134 Fe135 1.918 . S
Fe135 O134 1.918 . S
Fe135 O136 2.002 . S
Fe135 O145 1.976 . S
Fe135 O149 1.996 . S
Fe135 O152 1.997 . S
O136 Fe135 2.002 . S
O136 C153 1.295 . S
O137 Fe132 1.997 . S
O137 C153 1.235 . S
O138 Fe132 2.002 . S
O138 C139 1.295 . S
C139 O138 1.295 . S
C139 O141 1.235 . S
C140 O145 1.287 . S
C140 O146 1.255 . S
O141 Fe133 1.997 . S
O141 C139 1.235 . S
C142 O148 1.287 . S
C142 O149 1.255 . S
O143 Fe132 1.976 . S
O143 C150 1.287 . S
O144 Fe133 1.996 . S
O144 C150 1.255 . S
O145 Fe135 1.976 . S
O145 C140 1.287 . S
O146 Fe132 1.996 . S
O146 C140 1.255 . S
C147 O151 1.295 1_545 S
C147 O152 1.235 . S
O148 Fe133 1.976 . S
O148 C142 1.287 . S
O149 Fe135 1.996 . S
O149 C142 1.255 . S
C150 O143 1.287 . S
C150 O144 1.255 . S
O151 Fe133 2.002 1_565 S
O151 C147 1.295 1_565 S
O152 Fe135 1.997 . S
O152 C147 1.235 . S
C153 O136 1.295 . S
C153 O137 1.235 . S
Fe154 O156 1.918 . S
Fe154 O159 1.997 . S
Fe154 O160 2.002 . S
Fe154 O165 1.976 . S
Fe154 O168 1.996 . S
Fe155 O156 1.918 . S
Fe155 O163 1.997 . S
Fe155 O166 1.996 1_655 S
Fe155 O170 1.976 . S
Fe155 O173 2.002 . S
O156 Fe154 1.918 . S
O156 Fe155 1.918 . S
O156 Fe157 1.918 . S
Fe157 O156 1.918 . S
Fe157 O158 2.002 . S
Fe157 O167 1.976 . S
Fe157 O171 1.996 . S
Fe157 O174 1.997 . S
O158 Fe157 2.002 . S
O158 C175 1.295 . S
O159 Fe154 1.997 . S
O159 C175 1.235 . S
O160 Fe154 2.002 . S
O160 C161 1.295 . S
C161 O160 1.295 . S
C161 O163 1.235 . S
C162 O167 1.287 . S
C162 O168 1.255 . S
O163 Fe155 1.997 . S
O163 C161 1.235 . S
C164 O170 1.287 . S
C164 O171 1.255 . S
O165 Fe154 1.976 . S
O165 C172 1.287 1_655 S
O166 Fe155 1.996 1_455 S
O166 C172 1.255 . S
O167 Fe157 1.976 . S
O167 C162 1.287 . S
O168 Fe154 1.996 . S
O168 C162 1.255 . S
C169 O173 1.295 . S
C169 O174 1.235 . S
O170 Fe155 1.976 . S
O170 C164 1.287 . S
O171 Fe157 1.996 . S
O171 C164 1.255 . S
C172 O165 1.287 1_455 S
C172 O166 1.255 . S
O173 Fe155 2.002 . S
O173 C169 1.295 . S
O174 Fe157 1.997 . S
O174 C169 1.235 . S
C175 O158 1.295 . S
C175 O159 1.235 . S
Fe176 O178 1.918 . S
Fe176 O181 1.997 . S
Fe176 O182 2.002 . S
Fe176 O187 1.976 . S
Fe176 O190 1.996 . S
Fe177 O178 1.918 . S
Fe177 O185 1.997 . S
Fe177 O188 1.996 . S
Fe177 O192 1.976 . S
Fe177 O195 2.002 . S
O178 Fe176 1.918 . S
O178 Fe177 1.918 . S
O178 Fe179 1.918 . S
Fe179 O178 1.918 . S
Fe179 O180 2.002 . S
Fe179 O189 1.976 . S
Fe179 O193 1.996 . S
Fe179 O196 1.997 . S
O180 Fe179 2.002 . S
O180 C197 1.295 . S
O181 Fe176 1.997 . S
O181 C197 1.235 . S
O182 Fe176 2.002 . S
O182 C183 1.295 . S
C183 O182 1.295 . S
C183 O185 1.235 . S
C184 O189 1.287 . S
C184 O190 1.255 . S
O185 Fe177 1.997 . S
O185 C183 1.235 . S
C186 O192 1.287 . S
C186 O193 1.255 . S
O187 Fe176 1.976 . S
O187 C194 1.287 . S
O188 Fe177 1.996 . S
O188 C194 1.255 . S
O189 Fe179 1.976 . S
O189 C184 1.287 . S
O190 Fe176 1.996 . S
O190 C184 1.255 . S
C191 O195 1.295 . S
C191 O196 1.235 . S
O192 Fe177 1.976 . S
O192 C186 1.287 . S
O193 Fe179 1.996 . S
O193 C186 1.255 . S
C194 O187 1.287 . S
C194 O188 1.255 . S
O195 Fe177 2.002 . S
O195 C191 1.295 . S
O196 Fe179 1.997 . S
O196 C191 1.235 . S
C197 O180 1.295 . S
C197 O181 1.235 . S
H198 C210 0.930 . S
H199 C212 0.930 . S
H200 C213 0.930 . S
H201 C217 0.959 . S
H202 C217 0.959 . S
H203 C217 0.961 . S
H204 C218 0.960 . S
H205 C218 0.961 . S
H206 C218 0.959 . S
H207 C221 0.929 . S
H208 C222 0.931 . S
H209 C224 0.930 . S
C210 H198 0.930 . S
C210 C211 1.399 . S
C210 C215 1.399 . S
C211 C210 1.399 . S
C211 C212 1.376 . S
C212 H199 0.930 . S
C212 C211 1.376 . S
C212 C213 1.388 . S
C213 H200 0.930 . S
C213 C212 1.388 . S
C213 C214 1.390 . S
C214 C213 1.390 . S
C214 C215 1.394 . S
C214 C220 1.465 . S
C215 C210 1.399 . S
C215 C214 1.394 . S
C215 C216 1.516 . S
C216 C215 1.516 . S
C216 C217 1.502 . S
C216 C218 1.561 1_554 S
C216 C219 1.523 1_554 S
C217 H201 0.959 . S
C217 H202 0.959 . S
C217 H203 0.961 . S
C217 C216 1.502 . S
C218 H204 0.960 . S
C218 H205 0.961 . S
C218 H206 0.959 . S
C218 C216 1.561 1_556 S
C219 C216 1.523 1_556 S
C219 C220 1.391 1_556 S
C219 C224 1.398 . S
C220 C214 1.465 . S
C220 C219 1.391 1_554 S
C220 C221 1.399 . S
C221 H207 0.929 . S
C221 C220 1.399 . S
C221 C222 1.385 1_554 S
C222 H208 0.931 . S
C222 C221 1.385 1_556 S
C222 C223 1.389 . S
C223 C222 1.389 . S
C223 C224 1.387 . S
C224 H209 0.930 . S
C224 C219 1.398 . S
C224 C223 1.387 . S
H225 C237 0.930 1_556 S
H226 C239 0.930 . S
H227 C240 0.930 . S
H228 C244 0.959 . S
H229 C244 0.959 . S
H230 C244 0.961 . S
H231 C245 0.960 . S
H232 C245 0.961 . S
H233 C245 0.959 . S
H234 C248 0.929 . S
H235 C249 0.931 . S
H236 C251 0.930 . S
C237 H225 0.930 1_554 S
C237 C238 1.399 . S
C237 C242 1.399 . S
C238 C237 1.399 . S
C238 C239 1.376 . S
C239 H226 0.930 . S
C239 C238 1.376 . S
C239 C240 1.388 . S
C240 H227 0.930 . S
C240 C239 1.388 . S
C240 C241 1.390 . S
C241 C240 1.390 . S
C241 C242 1.394 . S
C241 C247 1.465 . S
C242 C237 1.399 . S
C242 C241 1.394 . S
C242 C243 1.516 1_554 S
C243 C242 1.516 1_556 S
C243 C244 1.502 . S
C243 C245 1.561 . S
C243 C246 1.526 . S
C244 H228 0.959 . S
C244 H229 0.959 . S
C244 H230 0.961 . S
C244 C243 1.502 . S
C245 H231 0.960 . S
C245 H232 0.961 . S
C245 H233 0.959 . S
C245 C243 1.561 . S
C246 C243 1.526 . S
C246 C247 1.396 1_556 S
C246 C251 1.390 . S
C247 C241 1.465 . S
C247 C246 1.396 1_554 S
C247 C248 1.399 . S
C248 H234 0.929 . S
C248 C247 1.399 . S
C248 C249 1.385 . S
C249 H235 0.931 . S
C249 C248 1.385 . S
C249 C250 1.389 1_554 S
C250 C249 1.389 1_556 S
C250 C251 1.387 . S
C251 H236 0.930 . S
C251 C246 1.390 . S
C251 C250 1.387 . S
H252 C264 0.930 . S
H253 C266 0.930 . S
H254 C267 0.930 . S
H255 C271 0.959 . S
H256 C271 0.959 . S
H257 C271 0.961 . S
H258 C272 0.960 . S
H259 C272 0.961 . S
H260 C272 0.959 . S
H261 C275 0.929 . S
H262 C276 0.931 . S
H263 C278 0.930 . S
C264 H252 0.930 . S
C264 C265 1.399 1_554 S
C264 C269 1.399 . S
C265 C264 1.399 1_556 S
C265 C266 1.376 . S
C266 H253 0.930 . S
C266 C265 1.376 . S
C266 C267 1.388 . S
C267 H254 0.930 . S
C267 C266 1.388 . S
C267 C268 1.390 . S
C268 C267 1.390 . S
C268 C269 1.394 1_556 S
C268 C274 1.458 1_556 S
C269 C264 1.399 . S
C269 C268 1.394 1_554 S
C269 C270 1.516 . S
C270 C269 1.516 . S
C270 C271 1.502 . S
C270 C272 1.561 . S
C270 C273 1.526 . S
C271 H255 0.959 . S
C271 H256 0.959 . S
C271 H257 0.961 . S
C271 C270 1.502 . S
C272 H258 0.960 . S
C272 H259 0.961 . S
C272 H260 0.959 . S
C272 C270 1.561 . S
C273 C270 1.526 . S
C273 C274 1.422 . S
C273 C278 1.390 . S
C274 C268 1.458 1_554 S
C274 C273 1.422 . S
C274 C275 1.385 1_554 S
C275 H261 0.929 . S
C275 C274 1.385 1_556 S
C275 C276 1.385 . S
C276 H262 0.931 . S
C276 C275 1.385 . S
C276 C277 1.389 1_556 S
C277 C276 1.389 1_554 S
C277 C278 1.387 . S
C278 H263 0.930 . S
C278 C273 1.390 . S
C278 C277 1.387 . S
H279 C291 0.930 . S
H280 C293 0.930 . S
H281 C294 0.930 . S
H282 C298 0.959 . S
H283 C298 0.959 . S
H284 C298 0.961 . S
H285 C299 0.960 . S
H286 C299 0.961 . S
H287 C299 0.959 . S
H288 C302 0.929 . S
H289 C303 0.931 . S
H290 C305 0.930 . S
C291 H279 0.930 . S
C291 C292 1.399 . S
C291 C296 1.399 . S
C292 C291 1.399 . S
C292 C293 1.376 1_554 S
C293 H280 0.930 . S
C293 C292 1.376 1_556 S
C293 C294 1.388 . S
C294 H281 0.930 . S
C294 C293 1.388 . S
C294 C295 1.390 . S
C295 C294 1.390 . S
C295 C296 1.394 1_556 S
C295 C301 1.465 . S
C296 C291 1.399 . S
C296 C295 1.394 1_554 S
C296 C297 1.516 . S
C297 C296 1.516 . S
C297 C298 1.502 . S
C297 C299 1.561 . S
C297 C300 1.526 . S
C298 H282 0.959 . S
C298 H283 0.959 . S
C298 H284 0.961 . S
C298 C297 1.502 . S
C299 H285 0.960 . S
C299 H286 0.961 . S
C299 H287 0.959 . S
C299 C297 1.561 . S
C300 C297 1.526 . S
C300 C301 1.396 1_554 S
C300 C305 1.390 . S
C301 C295 1.465 . S
C301 C300 1.396 1_556 S
C301 C302 1.399 . S
C302 H288 0.929 . S
C302 C301 1.399 . S
C302 C303 1.385 . S
C303 H289 0.931 . S
C303 C302 1.385 . S
C303 C304 1.389 . S
C304 C303 1.389 . S
C304 C305 1.387 1_556 S
C305 H290 0.930 . S
C305 C300 1.390 . S
C305 C304 1.387 1_554 S
H306 C318 0.930 . S
H307 C320 0.930 . S
H308 C321 0.930 . S
H309 C325 0.959 . S
H310 C325 0.959 . S
H311 C325 0.961 . S
H312 C326 0.960 . S
H313 C326 0.961 . S
H314 C326 0.959 . S
H315 C329 0.929 . S
H316 C330 0.931 . S
H317 C332 0.930 . S
C318 H306 0.930 . S
C318 C319 1.399 1_554 S
C318 C323 1.399 . S
C319 C318 1.399 1_556 S
C319 C320 1.376 . S
C320 H307 0.930 . S
C320 C319 1.376 . S
C320 C321 1.388 . S
C321 H308 0.930 . S
C321 C320 1.388 . S
C321 C322 1.390 . S
C322 C321 1.390 . S
C322 C323 1.394 1_556 S
C322 C328 1.465 . S
C323 C318 1.399 . S
C323 C322 1.394 1_554 S
C323 C324 1.516 . S
C324 C323 1.516 . S
C324 C325 1.502 . S
C324 C326 1.561 . S
C324 C327 1.526 . S
C325 H309 0.959 . S
C325 H310 0.959 . S
C325 H311 0.961 . S
C325 C324 1.502 . S
C326 H312 0.960 . S
C326 H313 0.961 . S
C326 H314 0.959 . S
C326 C324 1.561 . S
C327 C324 1.526 . S
C327 C328 1.396 1_554 S
C327 C332 1.390 . S
C328 C322 1.465 . S
C328 C327 1.396 1_556 S
C328 C329 1.399 . S
C329 H315 0.929 . S
C329 C328 1.399 . S
C329 C330 1.385 . S
C330 H316 0.931 . S
C330 C329 1.385 . S
C330 C331 1.389 1_556 S
C331 C330 1.389 1_554 S
C331 C332 1.387 . S
C332 H317 0.930 . S
C332 C327 1.390 . S
C332 C331 1.387 . S
H333 C345 0.930 1_554 S
H334 C347 0.930 . S
H335 C348 0.930 . S
H336 C352 0.959 1_556 S
H337 C352 0.959 . S
H338 C352 0.961 . S
H339 C353 0.960 . S
H340 C353 0.961 . S
H341 C353 0.959 . S
H342 C356 0.929 1_556 S
H343 C357 0.931 . S
H344 C359 0.930 . S
C345 H333 0.930 1_556 S
C345 C346 1.399 . S
C345 C350 1.399 1_556 S
C346 C345 1.399 . S
C346 C347 1.376 . S
C347 H334 0.930 . S
C347 C346 1.376 . S
C347 C348 1.388 . S
C348 H335 0.930 . S
C348 C347 1.388 . S
C348 C349 1.390 . S
C349 C348 1.390 . S
C349 C350 1.394 1_556 S
C349 C355 1.465 1_556 S
C350 C345 1.399 1_554 S
C350 C349 1.394 1_554 S
C350 C351 1.516 . S
C351 C350 1.516 . S
C351 C352 1.502 . S
C351 C353 1.561 . S
C351 C354 1.526 . S
C352 H336 0.959 1_554 S
C352 H337 0.959 . S
C352 H338 0.961 . S
C352 C351 1.502 . S
C353 H339 0.960 . S
C353 H340 0.961 . S
C353 H341 0.959 . S
C353 C351 1.561 . S
C354 C351 1.526 . S
C354 C355 1.396 . S
C354 C359 1.390 . S
C355 C349 1.465 1_554 S
C355 C354 1.396 . S
C355 C356 1.399 . S
C356 H342 0.929 1_554 S
C356 C355 1.399 . S
C356 C357 1.385 . S
C357 H343 0.931 . S
C357 C356 1.385 . S
C357 C358 1.389 . S
C358 C357 1.389 . S
C358 C359 1.387 . S
C359 H344 0.930 . S
C359 C354 1.390 . S
C359 C358 1.387 . S
H360 C372 0.930 . S
H361 C374 0.930 . S
H362 C375 0.930 . S
H363 C379 0.959 . S
H364 C379 0.959 . S
H365 C379 0.961 . S
H366 C380 0.960 . S
H367 C380 0.961 . S
H368 C380 0.959 . S
H369 C383 0.929 . S
H370 C384 0.931 . S
H371 C386 0.930 . S
C372 H360 0.930 . S
C372 C373 1.399 . S
C372 C377 1.399 . S
C373 C372 1.399 . S
C373 C374 1.376 . S
C374 H361 0.930 . S
C374 C373 1.376 . S
C374 C375 1.388 . S
C375 H362 0.930 . S
C375 C374 1.388 . S
C375 C376 1.390 . S
C376 C375 1.390 . S
C376 C377 1.394 . S
C376 C382 1.465 . S
C377 C372 1.399 . S
C377 C376 1.394 . S
C377 C378 1.516 . S
C378 C377 1.516 . S
C378 C379 1.502 . S
C378 C380 1.561 . S
C378 C381 1.526 . S
C379 H363 0.959 . S
C379 H364 0.959 . S
C379 H365 0.961 . S
C379 C378 1.502 . S
C380 H366 0.960 . S
C380 H367 0.961 . S
C380 H368 0.959 . S
C380 C378 1.561 . S
C381 C378 1.526 . S
C381 C382 1.396 . S
C381 C386 1.390 1_655 S
C382 C376 1.465 . S
C382 C381 1.396 . S
C382 C383 1.399 1_655 S
C383 H369 0.929 . S
C383 C382 1.399 1_455 S
C383 C384 1.385 . S
C384 H370 0.931 . S
C384 C383 1.385 . S
C384 C385 1.389 . S
C385 C384 1.389 . S
C385 C386 1.387 . S
C386 H371 0.930 . S
C386 C381 1.390 1_455 S
C386 C385 1.387 . S
H387 C399 0.930 . S
H388 C401 0.930 . S
H389 C402 0.930 . S
H390 C406 0.959 . S
H391 C406 0.959 . S
H392 C406 0.961 . S
H393 C407 0.960 . S
H394 C407 0.961 . S
H395 C407 0.959 . S
H396 C410 0.929 . S
H397 C411 0.931 . S
H398 C413 0.930 . S
C399 H387 0.930 . S
C399 C400 1.399 . S
C399 C404 1.399 . S
C400 C399 1.399 . S
C400 C401 1.376 . S
C401 H388 0.930 . S
C401 C400 1.376 . S
C401 C402 1.388 . S
C402 H389 0.930 . S
C402 C401 1.388 . S
C402 C403 1.390 . S
C403 C402 1.390 . S
C403 C404 1.394 . S
C403 C409 1.465 . S
C404 C399 1.399 . S
C404 C403 1.394 . S
C404 C405 1.516 . S
C405 C404 1.516 . S
C405 C406 1.502 . S
C405 C407 1.561 . S
C405 C408 1.526 . S
C406 H390 0.959 . S
C406 H391 0.959 . S
C406 H392 0.961 . S
C406 C405 1.502 . S
C407 H393 0.960 . S
C407 H394 0.961 . S
C407 H395 0.959 . S
C407 C405 1.561 . S
C408 C405 1.526 . S
C408 C409 1.396 . S
C408 C413 1.390 . S
C409 C403 1.465 . S
C409 C408 1.396 . S
C409 C410 1.399 . S
C410 H396 0.929 . S
C410 C409 1.399 . S
C410 C411 1.385 . S
C411 H397 0.931 . S
C411 C410 1.385 . S
C411 C412 1.389 . S
C412 C411 1.389 . S
C412 C413 1.387 . S
C413 H398 0.930 . S
C413 C408 1.390 . S
C413 C412 1.387 . S
H414 C426 0.930 . S
H415 C428 0.930 . S
H416 C429 0.930 . S
H417 C433 0.959 . S
H418 C433 0.959 . S
H419 C433 0.961 . S
H420 C434 0.960 . S
H421 C434 0.961 . S
H422 C434 0.959 . S
H423 C437 0.929 . S
H424 C438 0.931 . S
H425 C440 0.930 . S
C426 H414 0.930 . S
C426 C427 1.399 . S
C426 C431 1.399 . S
C427 C426 1.399 . S
C427 C428 1.376 . S
C428 H415 0.930 . S
C428 C427 1.376 . S
C428 C429 1.388 . S
C429 H416 0.930 . S
C429 C428 1.388 . S
C429 C430 1.390 . S
C430 C429 1.390 . S
C430 C431 1.394 . S
C430 C436 1.465 . S
C431 C426 1.399 . S
C431 C430 1.394 . S
C431 C432 1.516 . S
C432 C431 1.516 . S
C432 C433 1.502 . S
C432 C434 1.561 . S
C432 C435 1.526 . S
C433 H417 0.959 . S
C433 H418 0.959 . S
C433 H419 0.961 . S
C433 C432 1.502 . S
C434 H420 0.960 . S
C434 H421 0.961 . S
C434 H422 0.959 . S
C434 C432 1.561 . S
C435 C432 1.526 . S
C435 C436 1.396 . S
C435 C440 1.390 1_545 S
C436 C430 1.465 . S
C436 C435 1.396 . S
C436 C437 1.399 1_545 S
C437 H423 0.929 . S
C437 C436 1.399 1_565 S
C437 C438 1.385 . S
C438 H424 0.931 . S
C438 C437 1.385 . S
C438 C439 1.389 . S
C439 C438 1.389 . S
C439 C440 1.387 . S
C440 H425 0.930 . S
C440 C435 1.390 1_565 S
C440 C439 1.387 . S
H441 C453 0.930 . S
H442 C455 0.930 . S
H443 C456 0.930 . S
H444 C460 0.959 . S
H445 C460 0.959 . S
H446 C460 0.961 . S
H447 C461 0.960 . S
H448 C461 0.961 . S
H449 C461 0.959 . S
H450 C464 0.929 . S
H451 C465 0.931 . S
H452 C467 0.930 . S
C453 H441 0.930 . S
C453 C454 1.399 . S
C453 C458 1.399 . S
C454 C453 1.399 . S
C454 C455 1.376 . S
C455 H442 0.930 . S
C455 C454 1.376 . S
C455 C456 1.388 . S
C456 H443 0.930 . S
C456 C455 1.388 . S
C456 C457 1.390 . S
C457 C456 1.390 . S
C457 C458 1.394 . S
C457 C463 1.465 . S
C458 C453 1.399 . S
C458 C457 1.394 . S
C458 C459 1.516 . S
C459 C458 1.516 . S
C459 C460 1.502 . S
C459 C461 1.561 . S
C459 C462 1.526 . S
C460 H444 0.959 . S
C460 H445 0.959 . S
C460 H446 0.961 . S
C460 C459 1.502 . S
C461 H447 0.960 . S
C461 H448 0.961 . S
C461 H449 0.959 . S
C461 C459 1.561 . S
C462 C459 1.526 . S
C462 C463 1.396 . S
C462 C467 1.390 . S
C463 C457 1.465 . S
C463 C462 1.396 . S
C463 C464 1.399 . S
C464 H450 0.929 . S
C464 C463 1.399 . S
C464 C465 1.385 . S
C465 H451 0.931 . S
C465 C464 1.385 . S
C465 C466 1.389 . S
C466 C465 1.389 . S
C466 C467 1.387 . S
C467 H452 0.930 . S
C467 C462 1.390 . S
C467 C466 1.387 . S
H468 C480 0.930 . S
H469 C482 0.930 . S
H470 C483 0.930 . S
H471 C487 0.959 . S
H472 C487 0.959 . S
H473 C487 0.961 . S
H474 C488 0.960 . S
H475 C488 0.961 . S
H476 C488 0.959 . S
H477 C491 0.929 . S
H478 C492 0.931 . S
H479 C494 0.930 . S
C480 H468 0.930 . S
C480 C481 1.399 . S
C480 C485 1.399 . S
C481 C480 1.399 . S
C481 C482 1.376 . S
C482 H469 0.930 . S
C482 C481 1.376 . S
C482 C483 1.388 . S
C483 H470 0.930 . S
C483 C482 1.388 . S
C483 C484 1.390 . S
C484 C483 1.390 . S
C484 C485 1.394 . S
C484 C490 1.465 . S
C485 C480 1.399 . S
C485 C484 1.394 . S
C485 C486 1.516 . S
C486 C485 1.516 . S
C486 C487 1.502 . S
C486 C488 1.561 . S
C486 C489 1.526 . S
C487 H471 0.959 . S
C487 H472 0.959 . S
C487 H473 0.961 . S
C487 C486 1.502 . S
C488 H474 0.960 . S
C488 H475 0.961 . S
C488 H476 0.959 . S
C488 C486 1.561 . S
C489 C486 1.526 . S
C489 C490 1.396 . S
C489 C494 1.390 . S
C490 C484 1.465 . S
C490 C489 1.396 . S
C490 C491 1.399 . S
C491 H477 0.929 . S
C491 C490 1.399 . S
C491 C492 1.385 . S
C492 H478 0.931 . S
C492 C491 1.385 . S
C492 C493 1.389 . S
C493 C492 1.389 . S
C493 C494 1.387 . S
C494 H479 0.930 . S
C494 C489 1.390 . S
C494 C493 1.387 . S
H495 C507 0.930 . S
H496 C509 0.930 . S
H497 C510 0.930 . S
H498 C514 0.959 . S
H499 C514 0.959 . S
H500 C514 0.961 . S
H501 C515 0.960 . S
H502 C515 0.961 . S
H503 C515 0.959 . S
H504 C518 0.929 . S
H505 C519 0.931 . S
H506 C521 0.930 . S
C507 H495 0.930 . S
C507 C508 1.399 . S
C507 C512 1.399 . S
C508 C507 1.399 . S
C508 C509 1.376 . S
C509 H496 0.930 . S
C509 C508 1.376 . S
C509 C510 1.388 . S
C510 H497 0.930 . S
C510 C509 1.388 . S
C510 C511 1.390 . S
C511 C510 1.390 . S
C511 C512 1.394 . S
C511 C517 1.465 . S
C512 C507 1.399 . S
C512 C511 1.394 . S
C512 C513 1.516 . S
C513 C512 1.516 . S
C513 C514 1.502 . S
C513 C515 1.561 . S
C513 C516 1.526 . S
C514 H498 0.959 . S
C514 H499 0.959 . S
C514 H500 0.961 . S
C514 C513 1.502 . S
C515 H501 0.960 . S
C515 H502 0.961 . S
C515 H503 0.959 . S
C515 C513 1.561 . S
C516 C513 1.526 . S
C516 C517 1.396 . S
C516 C521 1.390 . S
C517 C511 1.465 . S
C517 C516 1.396 . S
C517 C518 1.399 . S
C518 H504 0.929 . S
C518 C517 1.399 . S
C518 C519 1.385 . S
C519 H505 0.931 . S
C519 C518 1.385 . S
C519 C520 1.389 . S
C520 C519 1.389 . S
C520 C521 1.387 . S
C521 H506 0.930 . S
C521 C516 1.390 . S
C521 C520 1.387 . S
H522 C534 0.930 . S
H523 C536 0.930 . S
H524 C537 0.930 . S
H525 C541 0.959 . S
H526 C541 0.959 . S
H527 C541 0.961 . S
H528 C542 0.960 . S
H529 C542 0.961 . S
H530 C542 0.959 . S
H531 C545 0.929 . S
H532 C546 0.931 . S
H533 C548 0.930 . S
C534 H522 0.930 . S
C534 C535 1.399 . S
C534 C539 1.399 . S
C535 C534 1.399 . S
C535 C536 1.376 . S
C536 H523 0.930 . S
C536 C535 1.376 . S
C536 C537 1.388 . S
C537 H524 0.930 . S
C537 C536 1.388 . S
C537 C538 1.390 . S
C538 C537 1.390 . S
C538 C539 1.394 . S
C538 C544 1.465 . S
C539 C534 1.399 . S
C539 C538 1.394 . S
C539 C540 1.516 . S
C540 C539 1.516 . S
C540 C541 1.502 . S
C540 C542 1.561 . S
C540 C543 1.526 . S
C541 H525 0.959 . S
C541 H526 0.959 . S
C541 H527 0.961 . S
C541 C540 1.502 . S
C542 H528 0.960 . S
C542 H529 0.961 . S
C542 H530 0.959 . S
C542 C540 1.561 . S
C543 C540 1.526 . S
C543 C544 1.396 . S
C543 C548 1.390 . S
C544 C538 1.465 . S
C544 C543 1.396 . S
C544 C545 1.399 . S
C545 H531 0.929 . S
C545 C544 1.399 . S
C545 C546 1.385 . S
C546 H532 0.931 . S
C546 C545 1.385 . S
C546 C547 1.389 . S
C547 C546 1.389 . S
C547 C548 1.387 . S
C548 H533 0.930 . S
C548 C543 1.390 . S
C548 C547 1.387 . S
H549 C561 0.930 . S
H550 C563 0.930 . S
H551 C564 0.930 . S
H552 C568 0.959 . S
H553 C568 0.959 . S
H554 C568 0.961 . S
H555 C569 0.960 . S
H556 C569 0.961 . S
H557 C569 0.959 . S
H558 C572 0.929 . S
H559 C573 0.931 . S
H560 C575 0.930 . S
C561 H549 0.930 . S
C561 C562 1.399 . S
C561 C566 1.399 . S
C562 C561 1.399 . S
C562 C563 1.376 . S
C563 H550 0.930 . S
C563 C562 1.376 . S
C563 C564 1.388 . S
C564 H551 0.930 . S
C564 C563 1.388 . S
C564 C565 1.390 . S
C565 C564 1.390 . S
C565 C566 1.394 . S
C565 C571 1.465 . S
C566 C561 1.399 . S
C566 C565 1.394 . S
C566 C567 1.516 . S
C567 C566 1.516 . S
C567 C568 1.502 . S
C567 C569 1.561 . S
C567 C570 1.526 . S
C568 H552 0.959 . S
C568 H553 0.959 . S
C568 H554 0.961 . S
C568 C567 1.502 . S
C569 H555 0.960 . S
C569 H556 0.961 . S
C569 H557 0.959 . S
C569 C567 1.561 . S
C570 C567 1.526 . S
C570 C571 1.396 . S
C570 C575 1.390 . S
C571 C565 1.465 . S
C571 C570 1.396 . S
C571 C572 1.399 . S
C572 H558 0.929 . S
C572 C571 1.399 . S
C572 C573 1.385 . S
C573 H559 0.931 . S
C573 C572 1.385 . S
C573 C574 1.389 . S
C574 C573 1.389 . S
C574 C575 1.387 . S
C575 H560 0.930 . S
C575 C570 1.390 . S
C575 C574 1.387 . S
H576 C588 0.930 . S
H577 C590 0.930 . S
H578 C591 0.930 . S
H579 C595 0.959 . S
H580 C595 0.959 . S
H581 C595 0.961 . S
H582 C596 0.960 . S
H583 C596 0.961 . S
H584 C596 0.959 . S
H585 C599 0.929 . S
H586 C600 0.931 . S
H587 C602 0.930 . S
C588 H576 0.930 . S
C588 C589 1.399 . S
C588 C593 1.399 . S
C589 C588 1.399 . S
C589 C590 1.376 . S
C590 H577 0.930 . S
C590 C589 1.376 . S
C590 C591 1.388 . S
C591 H578 0.930 . S
C591 C590 1.388 . S
C591 C592 1.390 . S
C592 C591 1.390 . S
C592 C593 1.394 . S
C592 C598 1.465 . S
C593 C588 1.399 . S
C593 C592 1.394 . S
C593 C594 1.516 . S
C594 C593 1.516 . S
C594 C595 1.502 . S
C594 C596 1.561 . S
C594 C597 1.526 . S
C595 H579 0.959 . S
C595 H580 0.959 . S
C595 H581 0.961 . S
C595 C594 1.502 . S
C596 H582 0.960 . S
C596 H583 0.961 . S
C596 H584 0.959 . S
C596 C594 1.561 . S
C597 C594 1.526 . S
C597 C598 1.396 . S
C597 C602 1.390 . S
C598 C592 1.465 . S
C598 C597 1.396 . S
C598 C599 1.399 . S
C599 H585 0.929 . S
C599 C598 1.399 . S
C599 C600 1.385 . S
C600 H586 0.931 . S
C600 C599 1.385 . S
C600 C601 1.389 . S
C601 C600 1.389 . S
C601 C602 1.387 . S
C602 H587 0.930 . S
C602 C597 1.390 . S
C602 C601 1.387 . S
H603 C615 0.930 . S
H604 C617 0.930 . S
H605 C618 0.930 . S
H606 C622 0.959 . S
H607 C622 0.959 1_545 S
H608 C622 0.961 . S
H609 C623 0.960 . S
H610 C623 0.961 1_545 S
H611 C623 0.959 . S
H612 C626 0.929 . S
H613 C627 0.931 . S
H614 C629 0.930 . S
C615 H603 0.930 . S
C615 C616 1.399 . S
C615 C620 1.399 . S
C616 C615 1.399 . S
C616 C617 1.376 . S
C617 H604 0.930 . S
C617 C616 1.376 . S
C617 C618 1.388 . S
C618 H605 0.930 . S
C618 C617 1.388 . S
C618 C619 1.390 . S
C619 C618 1.390 . S
C619 C620 1.394 . S
C619 C625 1.465 . S
C620 C615 1.399 . S
C620 C619 1.394 . S
C620 C621 1.516 . S
C621 C620 1.516 . S
C621 C622 1.502 . S
C621 C623 1.561 . S
C621 C624 1.526 1_565 S
C622 H606 0.959 . S
C622 H607 0.959 1_565 S
C622 H608 0.961 . S
C622 C621 1.502 . S
C623 H609 0.960 . S
C623 H610 0.961 1_565 S
C623 H611 0.959 . S
C623 C621 1.561 . S
C624 C621 1.526 1_545 S
C624 C625 1.396 1_545 S
C624 C629 1.390 . S
C625 C619 1.465 . S
C625 C624 1.396 1_565 S
C625 C626 1.399 . S
C626 H612 0.929 . S
C626 C625 1.399 . S
C626 C627 1.385 1_565 S
C627 H613 0.931 . S
C627 C626 1.385 1_545 S
C627 C628 1.389 . S
C628 C627 1.389 . S
C628 C629 1.387 . S
C629 H614 0.930 . S
C629 C624 1.390 . S
C629 C628 1.387 . S
H630 C642 0.930 . S
H631 C644 0.930 . S
H632 C645 0.930 . S
H633 C649 0.959 . S
H634 C649 0.959 . S
H635 C649 0.961 . S
H636 C650 0.960 . S
H637 C650 0.961 . S
H638 C650 0.959 . S
H639 C653 0.929 . S
H640 C654 0.931 . S
H641 C656 0.930 . S
C642 H630 0.930 . S
C642 C643 1.399 . S
C642 C647 1.399 1_655 S
C643 C642 1.399 . S
C643 C644 1.376 . S
C644 H631 0.930 . S
C644 C643 1.376 . S
C644 C645 1.388 . S
C645 H632 0.930 . S
C645 C644 1.388 . S
C645 C646 1.390 1_655 S
C646 C645 1.390 1_455 S
C646 C647 1.394 . S
C646 C652 1.465 . S
C647 C642 1.399 1_455 S
C647 C646 1.394 . S
C647 C648 1.516 . S
C648 C647 1.516 . S
C648 C649 1.502 . S
C648 C650 1.561 . S
C648 C651 1.526 . S
C649 H633 0.959 . S
C649 H634 0.959 . S
C649 H635 0.961 . S
C649 C648 1.502 . S
C650 H636 0.960 . S
C650 H637 0.961 . S
C650 H638 0.959 . S
C650 C648 1.561 . S
C651 C648 1.526 . S
C651 C652 1.396 . S
C651 C656 1.390 . S
C652 C646 1.465 . S
C652 C651 1.396 . S
C652 C653 1.399 . S
C653 H639 0.929 . S
C653 C652 1.399 . S
C653 C654 1.385 . S
C654 H640 0.931 . S
C654 C653 1.385 . S
C654 C655 1.389 . S
C655 C654 1.389 . S
C655 C656 1.387 . S
C656 H641 0.930 . S
C656 C651 1.390 . S
C656 C655 1.387 . S
H657 C669 0.930 . S
H658 C671 0.930 . S
H659 C672 0.930 . S
H660 C676 0.959 . S
H661 C676 0.959 . S
H662 C676 0.961 . S
H663 C677 0.960 . S
H664 C677 0.961 . S
H665 C677 0.959 . S
H666 C680 0.929 . S
H667 C681 0.931 . S
H668 C683 0.930 . S
C669 H657 0.930 . S
C669 C670 1.399 . S
C669 C674 1.399 . S
C670 C669 1.399 . S
C670 C671 1.376 . S
C671 H658 0.930 . S
C671 C670 1.376 . S
C671 C672 1.388 . S
C672 H659 0.930 . S
C672 C671 1.388 . S
C672 C673 1.390 . S
C673 C672 1.390 . S
C673 C674 1.394 . S
C673 C679 1.465 . S
C674 C669 1.399 . S
C674 C673 1.394 . S
C674 C675 1.516 . S
C675 C674 1.516 . S
C675 C676 1.502 . S
C675 C677 1.561 . S
C675 C678 1.526 . S
C676 H660 0.959 . S
C676 H661 0.959 . S
C676 H662 0.961 . S
C676 C675 1.502 . S
C677 H663 0.960 . S
C677 H664 0.961 . S
C677 H665 0.959 . S
C677 C675 1.561 . S
C678 C675 1.526 . S
C678 C679 1.396 . S
C678 C683 1.390 . S
C679 C673 1.465 . S
C679 C678 1.396 . S
C679 C680 1.399 . S
C680 H666 0.929 . S
C680 C679 1.399 . S
C680 C681 1.385 . S
C681 H667 0.931 . S
C681 C680 1.385 . S
C681 C682 1.389 . S
C682 C681 1.389 . S
C682 C683 1.387 . S
C683 H668 0.930 . S
C683 C678 1.390 . S
C683 C682 1.387 . S
H684 C696 0.930 . S
H685 C698 0.930 . S
H686 C699 0.930 . S
H687 C703 0.959 . S
H688 C703 0.959 . S
H689 C703 0.961 . S
H690 C704 0.960 . S
H691 C704 0.961 . S
H692 C704 0.959 . S
H693 C707 0.929 . S
H694 C708 0.931 . S
H695 C710 0.930 1_655 S
C696 H684 0.930 . S
C696 C697 1.399 . S
C696 C701 1.399 . S
C697 C696 1.399 . S
C697 C698 1.376 . S
C698 H685 0.930 . S
C698 C697 1.376 . S
C698 C699 1.388 . S
C699 H686 0.930 . S
C699 C698 1.388 . S
C699 C700 1.390 . S
C700 C699 1.390 . S
C700 C701 1.394 . S
C700 C706 1.465 . S
C701 C696 1.399 . S
C701 C700 1.394 . S
C701 C702 1.516 . S
C702 C701 1.516 . S
C702 C703 1.502 . S
C702 C704 1.561 1_455 S
C702 C705 1.526 . S
C703 H687 0.959 . S
C703 H688 0.959 . S
C703 H689 0.961 . S
C703 C702 1.502 . S
C704 H690 0.960 . S
C704 H691 0.961 . S
C704 H692 0.959 . S
C704 C702 1.561 1_655 S
C705 C702 1.526 . S
C705 C706 1.396 . S
C705 C710 1.390 . S
C706 C700 1.465 . S
C706 C705 1.396 . S
C706 C707 1.399 . S
C707 H693 0.929 . S
C707 C706 1.399 . S
C707 C708 1.385 . S
C708 H694 0.931 . S
C708 C707 1.385 . S
C708 C709 1.389 . S
C709 C708 1.389 . S
C709 C710 1.387 . S
C710 H695 0.930 1_455 S
C710 C705 1.390 . S
C710 C709 1.387 . S
H711 C723 0.930 . S
H712 C725 0.930 . S
H713 C726 0.930 . S
H714 C730 0.959 . S
H715 C730 0.959 . S
H716 C730 0.961 . S
H717 C731 0.960 . S
H718 C731 0.961 . S
H719 C731 0.959 . S
H720 C734 0.929 . S
H721 C735 0.931 . S
H722 C737 0.930 . S
C723 H711 0.930 . S
C723 C724 1.399 . S
C723 C728 1.399 . S
C724 C723 1.399 . S
C724 C725 1.376 . S
C725 H712 0.930 . S
C725 C724 1.376 . S
C725 C726 1.388 . S
C726 H713 0.930 . S
C726 C725 1.388 . S
C726 C727 1.390 . S
C727 C726 1.390 . S
C727 C728 1.394 . S
C727 C733 1.465 . S
C728 C723 1.399 . S
C728 C727 1.394 . S
C728 C729 1.516 . S
C729 C728 1.516 . S
C729 C730 1.502 . S
C729 C731 1.561 . S
C729 C732 1.526 . S
C730 H714 0.959 . S
C730 H715 0.959 . S
C730 H716 0.961 . S
C730 C729 1.502 . S
C731 H717 0.960 . S
C731 H718 0.961 . S
C731 H719 0.959 . S
C731 C729 1.561 . S
C732 C729 1.526 . S
C732 C733 1.396 . S
C732 C737 1.390 . S
C733 C727 1.465 . S
C733 C732 1.396 . S
C733 C734 1.399 . S
C734 H720 0.929 . S
C734 C733 1.399 . S
C734 C735 1.385 . S
C735 H721 0.931 . S
C735 C734 1.385 . S
C735 C736 1.389 . S
C736 C735 1.389 . S
C736 C737 1.387 . S
C737 H722 0.930 . S
C737 C732 1.390 . S
C737 C736 1.387 . S
H738 C750 0.930 . S
H739 C752 0.930 . S
H740 C753 0.930 . S
H741 C757 0.959 1_565 S
H742 C757 0.959 . S
H743 C757 0.961 . S
H744 C758 0.960 . S
H745 C758 0.961 . S
H746 C758 0.959 . S
H747 C761 0.929 . S
H748 C762 0.931 . S
H749 C764 0.930 1_545 S
C750 H738 0.930 . S
C750 C751 1.399 1_545 S
C750 C755 1.399 1_545 S
C751 C750 1.399 1_565 S
C751 C752 1.376 . S
C752 H739 0.930 . S
C752 C751 1.376 . S
C752 C753 1.388 . S
C753 H740 0.930 . S
C753 C752 1.388 . S
C753 C754 1.390 . S
C754 C753 1.390 . S
C754 C755 1.394 . S
C754 C760 1.465 . S
C755 C750 1.399 1_565 S
C755 C754 1.394 . S
C755 C756 1.516 1_565 S
C756 C755 1.516 1_545 S
C756 C757 1.502 . S
C756 C758 1.561 . S
C756 C759 1.526 1_545 S
C757 H741 0.959 1_545 S
C757 H742 0.959 . S
C757 H743 0.961 . S
C757 C756 1.502 . S
C758 H744 0.960 . S
C758 H745 0.961 . S
C758 H746 0.959 . S
C758 C756 1.561 . S
C759 C756 1.526 1_565 S
C759 C760 1.396 . S
C759 C764 1.390 . S
C760 C754 1.465 . S
C760 C759 1.396 . S
C760 C761 1.399 . S
C761 H747 0.929 . S
C761 C760 1.399 . S
C761 C762 1.385 . S
C762 H748 0.931 . S
C762 C761 1.385 . S
C762 C763 1.389 . S
C763 C762 1.389 . S
C763 C764 1.387 . S
C764 H749 0.930 1_565 S
C764 C759 1.390 . S
C764 C763 1.387 . S
H765 C777 0.930 . S
H766 C779 0.930 . S
H767 C780 0.930 . S
H768 C784 0.959 . S
H769 C784 0.959 . S
H770 C784 0.961 . S
H771 C785 0.960 . S
H772 C785 0.961 . S
H773 C785 0.959 . S
H774 C788 0.929 . S
H775 C789 0.931 1_565 S
H776 C791 0.930 . S
C777 H765 0.930 . S
C777 C778 1.399 . S
C777 C782 1.399 . S
C778 C777 1.399 . S
C778 C779 1.376 1_545 S
C779 H766 0.930 . S
C779 C778 1.376 1_565 S
C779 C780 1.388 . S
C780 H767 0.930 . S
C780 C779 1.388 . S
C780 C781 1.390 1_565 S
C781 C780 1.390 1_545 S
C781 C782 1.394 . S
C781 C787 1.465 . S
C782 C777 1.399 . S
C782 C781 1.394 . S
C782 C783 1.516 . S
C783 C782 1.516 . S
C783 C784 1.502 . S
C783 C785 1.561 . S
C783 C786 1.526 . S
C784 H768 0.959 . S
C784 H769 0.959 . S
C784 H770 0.961 . S
C784 C783 1.502 . S
C785 H771 0.960 . S
C785 H772 0.961 . S
C785 H773 0.959 . S
C785 C783 1.561 . S
C786 C783 1.526 . S
C786 C787 1.396 . S
C786 C791 1.390 . S
C787 C781 1.465 . S
C787 C786 1.396 . S
C787 C788 1.399 1_545 S
C788 H774 0.929 . S
C788 C787 1.399 1_565 S
C788 C789 1.385 1_565 S
C789 H775 0.931 1_545 S
C789 C788 1.385 1_545 S
C789 C790 1.389 . S
C790 C789 1.389 . S
C790 C791 1.387 . S
C791 H776 0.930 . S
C791 C786 1.390 . S
C791 C790 1.387 . S
H792 C804 0.930 . S
H793 C806 0.930 . S
H794 C807 0.930 . S
H795 C811 0.959 . S
H796 C811 0.959 . S
H797 C811 0.961 . S
H798 C812 0.960 . S
H799 C812 0.961 . S
H800 C812 0.959 . S
H801 C815 0.929 . S
H802 C816 0.931 . S
H803 C818 0.930 . S
C804 H792 0.930 . S
C804 C805 1.399 . S
C804 C809 1.399 . S
C805 C804 1.399 . S
C805 C806 1.376 . S
C806 H793 0.930 . S
C806 C805 1.376 . S
C806 C807 1.388 . S
C807 H794 0.930 . S
C807 C806 1.388 . S
C807 C808 1.390 . S
C808 C807 1.390 . S
C808 C809 1.394 . S
C808 C814 1.465 . S
C809 C804 1.399 . S
C809 C808 1.394 . S
C809 C810 1.516 . S
C810 C809 1.516 . S
C810 C811 1.502 . S
C810 C812 1.561 1_655 S
C810 C813 1.526 . S
C811 H795 0.959 . S
C811 H796 0.959 . S
C811 H797 0.961 . S
C811 C810 1.502 . S
C812 H798 0.960 . S
C812 H799 0.961 . S
C812 H800 0.959 . S
C812 C810 1.561 1_455 S
C813 C810 1.526 . S
C813 C814 1.396 . S
C813 C818 1.390 . S
C814 C808 1.465 . S
C814 C813 1.396 . S
C814 C815 1.399 . S
C815 H801 0.929 . S
C815 C814 1.399 . S
C815 C816 1.385 . S
C816 H802 0.931 . S
C816 C815 1.385 . S
C816 C817 1.389 . S
C817 C816 1.389 . S
C817 C818 1.387 . S
C818 H803 0.930 . S
C818 C813 1.390 . S
C818 C817 1.387 . S
H819 C831 0.930 . S
H820 C833 0.930 . S
H821 C834 0.930 . S
H822 C838 0.959 . S
H823 C838 0.959 . S
H824 C838 0.961 . S
H825 C839 0.960 . S
H826 C839 0.961 . S
H827 C839 0.959 . S
H828 C842 0.929 . S
H829 C843 0.931 . S
H830 C845 0.930 . S
C831 H819 0.930 . S
C831 C832 1.399 . S
C831 C836 1.399 . S
C832 C831 1.399 . S
C832 C833 1.376 . S
C833 H820 0.930 . S
C833 C832 1.376 . S
C833 C834 1.388 . S
C834 H821 0.930 . S
C834 C833 1.388 . S
C834 C835 1.390 . S
C835 C834 1.390 . S
C835 C836 1.394 . S
C835 C841 1.465 . S
C836 C831 1.399 . S
C836 C835 1.394 . S
C836 C837 1.516 . S
C837 C836 1.516 . S
C837 C838 1.502 . S
C837 C839 1.561 . S
C837 C840 1.526 . S
C838 H822 0.959 . S
C838 H823 0.959 . S
C838 H824 0.961 . S
C838 C837 1.502 . S
C839 H825 0.960 . S
C839 H826 0.961 . S
C839 H827 0.959 . S
C839 C837 1.561 . S
C840 C837 1.526 . S
C840 C841 1.396 . S
C840 C845 1.390 . S
C841 C835 1.465 . S
C841 C840 1.396 . S
C841 C842 1.399 . S
C842 H828 0.929 . S
C842 C841 1.399 . S
C842 C843 1.385 . S
C843 H829 0.931 . S
C843 C842 1.385 . S
C843 C844 1.389 . S
C844 C843 1.389 . S
C844 C845 1.387 . S
C845 H830 0.930 . S
C845 C840 1.390 . S
C845 C844 1.387 . S
H846 C858 0.930 . S
H847 C860 0.930 . S
H848 C861 0.930 . S
H849 C865 0.959 . S
H850 C865 0.959 . S
H851 C865 0.961 . S
H852 C866 0.960 . S
H853 C866 0.961 . S
H854 C866 0.959 . S
H855 C869 0.929 . S
H856 C870 0.931 . S
H857 C872 0.930 . S
C858 H846 0.930 . S
C858 C859 1.399 . S
C858 C863 1.399 . S
C859 C858 1.399 . S
C859 C860 1.376 . S
C860 H847 0.930 . S
C860 C859 1.376 . S
C860 C861 1.388 . S
C861 H848 0.930 . S
C861 C860 1.388 . S
C861 C862 1.390 . S
C862 C861 1.390 . S
C862 C863 1.394 . S
C862 C868 1.465 . S
C863 C858 1.399 . S
C863 C862 1.394 . S
C863 C864 1.516 . S
C864 C863 1.516 . S
C864 C865 1.502 . S
C864 C866 1.561 . S
C864 C867 1.526 . S
C865 H849 0.959 . S
C865 H850 0.959 . S
C865 H851 0.961 . S
C865 C864 1.502 . S
C866 H852 0.960 . S
C866 H853 0.961 . S
C866 H854 0.959 . S
C866 C864 1.561 . S
C867 C864 1.526 . S
C867 C868 1.396 . S
C867 C872 1.390 . S
C868 C862 1.465 . S
C868 C867 1.396 . S
C868 C869 1.399 . S
C869 H855 0.929 . S
C869 C868 1.399 . S
C869 C870 1.385 . S
C870 H856 0.931 . S
C870 C869 1.385 . S
C870 C871 1.389 . S
C871 C870 1.389 . S
C871 C872 1.387 . S
C872 H857 0.930 . S
C872 C867 1.390 . S
C872 C871 1.387 . S
H873 C885 0.930 . S
H874 C887 0.930 . S
H875 C888 0.930 . S
H876 C892 0.959 . S
H877 C892 0.959 . S
H878 C892 0.961 . S
H879 C893 0.960 . S
H880 C893 0.961 . S
H881 C893 0.959 . S
H882 C896 0.929 . S
H883 C897 0.931 . S
H884 C899 0.930 . S
C885 H873 0.930 . S
C885 C886 1.399 1_545 S
C885 C890 1.399 . S
C886 C885 1.399 1_565 S
C886 C887 1.376 . S
C887 H874 0.930 . S
C887 C886 1.376 . S
C887 C888 1.388 . S
C888 H875 0.930 . S
C888 C887 1.388 . S
C888 C889 1.390 . S
C889 C888 1.390 . S
C889 C890 1.394 1_565 S
C889 C895 1.465 . S
C890 C885 1.399 . S
C890 C889 1.394 1_545 S
C890 C891 1.516 . S
C891 C890 1.516 . S
C891 C892 1.502 . S
C891 C893 1.561 . S
C891 C894 1.526 . S
C892 H876 0.959 . S
C892 H877 0.959 . S
C892 H878 0.961 . S
C892 C891 1.502 . S
C893 H879 0.960 . S
C893 H880 0.961 . S
C893 H881 0.959 . S
C893 C891 1.561 . S
C894 C891 1.526 . S
C894 C895 1.396 1_545 S
C894 C899 1.390 . S
C895 C889 1.465 . S
C895 C894 1.396 1_565 S
C895 C896 1.399 . S
C896 H882 0.929 . S
C896 C895 1.399 . S
C896 C897 1.385 . S
C897 H883 0.931 . S
C897 C896 1.385 . S
C897 C898 1.389 1_565 S
C898 C897 1.389 1_545 S
C898 C899 1.387 . S
C899 H884 0.930 . S
C899 C894 1.390 . S
C899 C898 1.387 . S
H900 C912 0.930 . S
H901 C914 0.930 1_455 S
H902 C915 0.930 . S
H903 C919 0.959 1_455 S
H904 C919 0.959 . S
H905 C919 0.961 . S
H906 C920 0.960 . S
H907 C920 0.961 . S
H908 C920 0.959 . S
H909 C923 0.929 . S
H910 C924 0.931 . S
H911 C926 0.930 1_655 S
C912 H900 0.930 . S
C912 C913 1.399 . S
C912 C917 1.399 . S
C913 C912 1.399 . S
C913 C914 1.376 . S
C914 H901 0.930 1_655 S
C914 C913 1.376 . S
C914 C915 1.388 1_655 S
C915 H902 0.930 . S
C915 C914 1.388 1_455 S
C915 C916 1.390 . S
C916 C915 1.390 . S
C916 C917 1.394 1_455 S
C916 C922 1.465 . S
C917 C912 1.399 . S
C917 C916 1.394 1_655 S
C917 C918 1.516 . S
C918 C917 1.516 . S
C918 C919 1.502 . S
C918 C920 1.561 . S
C918 C921 1.526 . S
C919 H903 0.959 1_655 S
C919 H904 0.959 . S
C919 H905 0.961 . S
C919 C918 1.502 . S
C920 H906 0.960 . S
C920 H907 0.961 . S
C920 H908 0.959 . S
C920 C918 1.561 . S
C921 C918 1.526 . S
C921 C922 1.396 1_655 S
C921 C926 1.390 1_655 S
C922 C916 1.465 . S
C922 C921 1.396 1_455 S
C922 C923 1.399 . S
C923 H909 0.929 . S
C923 C922 1.399 . S
C923 C924 1.385 . S
C924 H910 0.931 . S
C924 C923 1.385 . S
C924 C925 1.389 . S
C925 C924 1.389 . S
C925 C926 1.387 . S
C926 H911 0.930 1_455 S
C926 C921 1.390 1_455 S
C926 C925 1.387 . S
C211 C37 1.311 . S
C223 C18 1.391 . S
C238 C52 1.366 . S
C250 C29 1.380 . S
C265 C62 1.360 . S
C277 C8 1.226 . S
C292 C59 1.356 . S
C304 C32 1.360 . S
C319 C65 1.391 . S
C331 C15 1.393 . S
C346 C21 1.296 . S
C358 C30 1.350 . S
C373 C81 1.423 . S
C385 C109 1.267 . S
C400 C125 1.372 . S
C412 C103 1.373 . S
C427 C117 1.421 . S
C439 C87 1.279 . S
C454 C96 1.346 . S
C466 C118 1.318 . S
C481 C120 1.334 . S
C493 C84 1.314 . S
C508 C106 1.339 . S
C520 C74 1.318 . S
C535 C175 1.271 . S
C547 C150 1.396 . S
C562 C169 1.401 . S
C574 C184 1.292 . S
C589 C194 1.302 . S
C601 C140 1.321 . S
C616 C191 1.334 . S
C628 C162 1.346 . S
C643 C197 1.300 . S
C655 C147 1.444 1_565 S
C670 C153 1.328 . S
C682 C172 1.319 . S
C697 C128 1.302 . S
C709 C10 1.267 . S
C724 C76 1.364 . S
C736 C43 1.315 . S
C751 C54 1.314 . S
C763 C98 1.269 . S
C778 C51 1.266 . S
C790 C142 1.320 . S
C805 C7 1.358 . S
C817 C161 1.322 . S
C832 C186 1.228 . S
C844 C40 1.272 . S
C859 C73 1.300 . S
C871 C183 1.298 . S
C886 C95 1.309 . S
C898 C139 1.333 . S
C913 C164 1.262 . S
C925 C131 1.233 . S
