# Generated by pormake.
# Topology mon, (4)-cn, num edge types: 1
# Building blocks:
#     Node 0, Type 0, BuildingBlock: CEKHIL_clean_sbu_0, # of connection points: 4
#     Node 1, Type 0, BuildingBlock: CEKHIL_clean_sbu_0, # of connection points: 4
#     Node 2, Type 0, BuildingBlock: CEKHIL_clean_sbu_0, # of connection points: 4
#     Node 3, Type 0, BuildingBlock: CEKHIL_clean_sbu_0, # of connection points: 4
#     Node 4, Type 0, BuildingBlock: CEKHIL_clean_sbu_0, # of connection points: 4
#     Node 5, Type 0, BuildingBlock: CEKHIL_clean_sbu_0, # of connection points: 4
#     Node 6, Type 0, BuildingBlock: CEKHIL_clean_sbu_0, # of connection points: 4
#     Node 7, Type 0, BuildingBlock: CEKHIL_clean_sbu_0, # of connection points: 4
#     Node 8, Type 0, BuildingBlock: CEKHIL_clean_sbu_0, # of connection points: 4
#     Node 9, Type 0, BuildingBlock: CEKHIL_clean_sbu_0, # of connection points: 4
#     Node 10, Type 0, BuildingBlock: CEKHIL_clean_sbu_0, # of connection points: 4
#     Node 11, Type 0, BuildingBlock: CEKHIL_clean_sbu_0, # of connection points: 4
#     Node 12, Type 0, BuildingBlock: CEKHIL_clean_sbu_0, # of connection points: 4
#     Node 13, Type 0, BuildingBlock: CEKHIL_clean_sbu_0, # of connection points: 4
#     Node 14, Type 0, BuildingBlock: CEKHIL_clean_sbu_0, # of connection points: 4
#     Node 15, Type 0, BuildingBlock: CEKHIL_clean_sbu_0, # of connection points: 4
#     Edge 16, Type (0, 0), BuildingBlock: MIFKUJ_clean_linker_0, # of connection points: 2
#     Edge 17, Type (0, 0), BuildingBlock: MIFKUJ_clean_linker_0, # of connection points: 2
#     Edge 18, Type (0, 0), BuildingBlock: MIFKUJ_clean_linker_0, # of connection points: 2
#     Edge 19, Type (0, 0), BuildingBlock: MIFKUJ_clean_linker_0, # of connection points: 2
#     Edge 20, Type (0, 0), BuildingBlock: MIFKUJ_clean_linker_0, # of connection points: 2
#     Edge 21, Type (0, 0), BuildingBlock: MIFKUJ_clean_linker_0, # of connection points: 2
#     Edge 22, Type (0, 0), BuildingBlock: MIFKUJ_clean_linker_0, # of connection points: 2
#     Edge 23, Type (0, 0), BuildingBlock: MIFKUJ_clean_linker_0, # of connection points: 2
#     Edge 24, Type (0, 0), BuildingBlock: MIFKUJ_clean_linker_0, # of connection points: 2
#     Edge 25, Type (0, 0), BuildingBlock: MIFKUJ_clean_linker_0, # of connection points: 2
#     Edge 26, Type (0, 0), BuildingBlock: MIFKUJ_clean_linker_0, # of connection points: 2
#     Edge 27, Type (0, 0), BuildingBlock: MIFKUJ_clean_linker_0, # of connection points: 2
#     Edge 28, Type (0, 0), BuildingBlock: MIFKUJ_clean_linker_0, # of connection points: 2
#     Edge 29, Type (0, 0), BuildingBlock: MIFKUJ_clean_linker_0, # of connection points: 2
#     Edge 30, Type (0, 0), BuildingBlock: MIFKUJ_clean_linker_0, # of connection points: 2
#     Edge 31, Type (0, 0), BuildingBlock: MIFKUJ_clean_linker_0, # of connection points: 2
#     Edge 32, Type (0, 0), BuildingBlock: MIFKUJ_clean_linker_0, # of connection points: 2
#     Edge 33, Type (0, 0), BuildingBlock: MIFKUJ_clean_linker_0, # of connection points: 2
#     Edge 34, Type (0, 0), BuildingBlock: MIFKUJ_clean_linker_0, # of connection points: 2
#     Edge 35, Type (0, 0), BuildingBlock: MIFKUJ_clean_linker_0, # of connection points: 2
#     Edge 36, Type (0, 0), BuildingBlock: MIFKUJ_clean_linker_0, # of connection points: 2
#     Edge 37, Type (0, 0), BuildingBlock: MIFKUJ_clean_linker_0, # of connection points: 2
#     Edge 38, Type (0, 0), BuildingBlock: MIFKUJ_clean_linker_0, # of connection points: 2
#     Edge 39, Type (0, 0), BuildingBlock: MIFKUJ_clean_linker_0, # of connection points: 2
#     Edge 40, Type (0, 0), BuildingBlock: MIFKUJ_clean_linker_0, # of connection points: 2
#     Edge 41, Type (0, 0), BuildingBlock: MIFKUJ_clean_linker_0, # of connection points: 2
#     Edge 42, Type (0, 0), BuildingBlock: MIFKUJ_clean_linker_0, # of connection points: 2
#     Edge 43, Type (0, 0), BuildingBlock: MIFKUJ_clean_linker_0, # of connection points: 2
#     Edge 44, Type (0, 0), BuildingBlock: MIFKUJ_clean_linker_0, # of connection points: 2
#     Edge 45, Type (0, 0), BuildingBlock: MIFKUJ_clean_linker_0, # of connection points: 2
#     Edge 46, Type (0, 0), BuildingBlock: MIFKUJ_clean_linker_0, # of connection points: 2
#     Edge 47, Type (0, 0), BuildingBlock: MIFKUJ_clean_linker_0, # of connection points: 2
# Relax obj value: 0.188
# Max RMSD: 0.178
# Mean RMSD: 0.178
data_MOF--net-mon--node1-CEKHIL_clean_sbu_0--edge1-MIFKUJ_clean_linker_0
_symmetry_space_group_name_H-M    P1
_symmetry_Int_Tables_number       1
_symmetry_cell_setting            triclinic
loop_
_symmetry_equiv_pos_as_xyz
'x, y, z'
_cell_length_a     43.344715
_cell_length_b     43.358468
_cell_length_c     110.18982
_cell_angle_alpha  89.999563
_cell_angle_beta   89.982744
_cell_angle_gamma 89.990362
loop_
_atom_site_label
_atom_site_type_symbol
_atom_site_fract_x
_atom_site_fract_y
_atom_site_fract_z
_atom_type_partial_charge
Co0 Co 0.02024 0.03617 0.58678 0.0
O1 O 0.0392 0.07463 0.5823 0.0
O2 O 0.99038 0.06951 0.58778 0.0
C3 C 0.05929 0.02078 0.59886 0.0
O4 O 0.99304 0.00057 0.59261 0.0
Co5 Co 0.05172 0.97308 0.5811 0.0
O6 O 0.02142 0.95711 0.59305 0.0
C7 C 0.02163 0.00917 0.56155 0.0
C8 C 0.01283 0.08761 0.58448 0.0
C9 C 0.99702 0.97213 0.59565 0.0
O10 O 0.0091 0.02767 0.56927 0.0
O11 O 0.04116 0.98827 0.56447 0.0
O12 O 0.03823 0.03919 0.60313 0.0
O13 O 0.05698 0.01401 0.58755 0.0
Co14 Co 0.22877 0.7659 0.83604 0.0
O15 O 0.19191 0.7858 0.83013 0.0
O16 O 0.19365 0.73864 0.83779 0.0
C17 C 0.2463 0.80676 0.84677 0.0
O18 O 0.26176 0.73814 0.84363 0.0
Co19 Co 0.29456 0.7909 0.82997 0.0
O20 O 0.3076 0.76234 0.84295 0.0
C21 C 0.26058 0.75372 0.81186 0.0
C22 C 0.17721 0.76098 0.83328 0.0
C23 C 0.29054 0.74017 0.84649 0.0
O24 O 0.23811 0.74877 0.8193 0.0
O25 O 0.28351 0.77126 0.81425 0.0
O26 O 0.22527 0.78889 0.85139 0.0
O27 O 0.25382 0.80092 0.83571 0.0
Co28 Co 0.4941 0.96692 0.08366 0.0
O29 O 0.47425 0.9294 0.0784 0.0
O30 O 0.52034 0.93178 0.08696 0.0
C31 C 0.4524 0.98726 0.09301 0.0
O32 O 0.52166 0.00071 0.09077 0.0
Co33 Co 0.47141 0.03182 0.07516 0.0
O34 O 0.5005 0.04737 0.08753 0.0
C35 C 0.5108 0.99383 0.05904 0.0
C36 C 0.49847 0.91492 0.08234 0.0
C37 C 0.52121 0.03023 0.09219 0.0
O38 O 0.51344 0.97247 0.06709 0.0
O39 O 0.49416 0.01797 0.06037 0.0
O40 O 0.46938 0.967 0.09859 0.0
O41 O 0.45964 0.99244 0.08187 0.0
Co42 Co 0.28846 0.24045 0.33399 0.0
O43 O 0.32608 0.21786 0.331 0.0
O44 O 0.32385 0.26703 0.33641 0.0
C45 C 0.26503 0.20357 0.34516 0.0
O46 O 0.25437 0.27101 0.33856 0.0
Co47 Co 0.22499 0.21576 0.32465 0.0
O48 O 0.20785 0.25188 0.3333 0.0
C49 C 0.2695 0.24255 0.30749 0.0
C50 C 0.3406 0.24315 0.33364 0.0
C51 C 0.2247 0.27265 0.33809 0.0
O52 O 0.28604 0.25306 0.31629 0.0
O53 O 0.24665 0.22432 0.30907 0.0
O54 O 0.28528 0.22159 0.35022 0.0
O55 O 0.26207 0.20658 0.33361 0.0
Co56 Co 0.02124 0.9656 0.41032 0.0
O57 O 0.04036 0.92662 0.41388 0.0
O58 O 0.99195 0.93227 0.40791 0.0
C59 C 0.06096 0.98407 0.39932 0.0
O60 O 0.99415 0.00196 0.40522 0.0
Co61 Co 0.05129 0.02722 0.41886 0.0
O62 O 0.02035 0.04621 0.40791 0.0
C63 C 0.02026 0.98635 0.43647 0.0
C64 C 0.01429 0.91385 0.41106 0.0
C65 C 0.99703 0.03139 0.40394 0.0
O66 O 0.00828 0.97023 0.42785 0.0
O67 O 0.04024 0.00763 0.43473 0.0
O68 O 0.04067 0.96621 0.39421 0.0
O69 O 0.0577 0.98828 0.4108 0.0
Co70 Co 0.28929 0.76555 0.66228 0.0
O71 O 0.32677 0.78632 0.667 0.0
O72 O 0.32485 0.74045 0.65825 0.0
C73 C 0.26672 0.80697 0.65353 0.0
O74 O 0.25533 0.73724 0.65569 0.0
Co75 Co 0.22506 0.78671 0.67231 0.0
O76 O 0.20858 0.75591 0.66085 0.0
C77 C 0.26611 0.74793 0.68741 0.0
C78 C 0.34154 0.76265 0.66272 0.0
C79 C 0.2256 0.73625 0.65547 0.0
O80 O 0.28619 0.74557 0.67884 0.0
O81 O 0.24173 0.76446 0.68672 0.0
O82 O 0.28684 0.79083 0.6475 0.0
O83 O 0.26309 0.7992 0.66471 0.0
Co84 Co 0.49412 0.03389 0.91026 0.0
O85 O 0.47563 0.0713 0.91626 0.0
O86 O 0.5233 0.06766 0.90919 0.0
C87 C 0.45305 0.01998 0.89906 0.0
O88 O 0.52081 0.99999 0.90276 0.0
Co89 Co 0.46551 0.96922 0.91508 0.0
O90 O 0.49419 0.95555 0.90216 0.0
C91 C 0.50184 0.00058 0.9343 0.0
C92 C 0.50141 0.0849 0.91359 0.0
C93 C 0.51759 0.97178 0.8993 0.0
O94 O 0.50906 0.02279 0.92706 0.0
O95 O 0.48344 0.97868 0.9314 0.0
O96 O 0.47302 0.03933 0.89466 0.0
O97 O 0.45756 0.0111 0.91006 0.0
Co98 Co 0.2282 0.24328 0.16015 0.0
O99 O 0.19031 0.22446 0.16552 0.0
O100 O 0.19358 0.27027 0.15678 0.0
C101 C 0.24717 0.20079 0.15096 0.0
O102 O 0.26272 0.26961 0.15284 0.0
Co103 Co 0.2925 0.21926 0.16863 0.0
O104 O 0.30757 0.24405 0.15478 0.0
C105 C 0.25598 0.26037 0.18458 0.0
C106 C 0.17629 0.24879 0.16145 0.0
C107 C 0.29161 0.26608 0.15042 0.0
O108 O 0.2344 0.2629 0.17661 0.0
O109 O 0.27991 0.24342 0.18327 0.0
O110 O 0.22748 0.21832 0.14533 0.0
O111 O 0.25275 0.20809 0.16208 0.0
Co112 Co 0.79142 0.25592 0.16239 0.0
O113 O 0.82808 0.27752 0.16755 0.0
O114 O 0.82779 0.23195 0.1585 0.0
C115 C 0.76861 0.29739 0.1538 0.0
O116 O 0.75899 0.22695 0.15519 0.0
Co117 Co 0.72544 0.27332 0.17122 0.0
O118 O 0.71213 0.24859 0.15707 0.0
C119 C 0.7662 0.23507 0.18675 0.0
C120 C 0.84365 0.25448 0.16316 0.0
C121 C 0.72998 0.22807 0.15271 0.0
O122 O 0.78778 0.23509 0.17872 0.0
O123 O 0.74065 0.24959 0.18561 0.0
O124 O 0.78926 0.28179 0.14783 0.0
O125 O 0.76399 0.28873 0.16484 0.0
Co126 Co 0.72523 0.73544 0.65957 0.0
O127 O 0.68678 0.71732 0.66464 0.0
O128 O 0.69222 0.76563 0.65853 0.0
C129 C 0.73957 0.69548 0.64774 0.0
O130 O 0.76073 0.76175 0.65301 0.0
Co131 Co 0.78835 0.70365 0.66502 0.0
O132 O 0.8049 0.73451 0.65351 0.0
C133 C 0.75636 0.73941 0.68425 0.0
C134 C 0.67402 0.74366 0.66221 0.0
C135 C 0.78959 0.75838 0.65046 0.0
O136 O 0.73506 0.7482 0.67684 0.0
O137 O 0.7777 0.72033 0.68138 0.0
O138 O 0.72092 0.71633 0.6435 0.0
O139 O 0.74701 0.69833 0.65898 0.0
Co140 Co 0.72532 0.26004 0.33451 0.0
O141 O 0.68715 0.27819 0.32905 0.0
O142 O 0.69141 0.23156 0.33701 0.0
C143 C 0.74215 0.30193 0.34476 0.0
O144 O 0.76025 0.23393 0.34163 0.0
Co145 Co 0.78933 0.288 0.32743 0.0
O146 O 0.80504 0.25988 0.34016 0.0
C147 C 0.75301 0.25222 0.30946 0.0
C148 C 0.67369 0.25299 0.33256 0.0
C149 C 0.7892 0.23717 0.34405 0.0
O150 O 0.73358 0.24338 0.31763 0.0
O151 O 0.77455 0.27174 0.31152 0.0
O152 O 0.72269 0.28313 0.34986 0.0
O153 O 0.74861 0.29604 0.33361 0.0
Co154 Co 0.79285 0.7399 0.83496 0.0
O155 O 0.83071 0.72071 0.82974 0.0
O156 O 0.82754 0.76699 0.83809 0.0
C157 C 0.77378 0.69791 0.84447 0.0
O158 O 0.75829 0.76676 0.84202 0.0
Co159 Co 0.7285 0.71554 0.82667 0.0
O160 O 0.71308 0.74193 0.83997 0.0
C161 C 0.76558 0.75481 0.8102 0.0
C162 C 0.84478 0.74528 0.83356 0.0
C163 C 0.72917 0.76401 0.84421 0.0
O164 O 0.78678 0.7584 0.81827 0.0
O165 O 0.74174 0.73781 0.81168 0.0
O166 O 0.79352 0.7156 0.84999 0.0
O167 O 0.76825 0.70483 0.83332 0.0
Co168 Co 0.52958 0.53195 0.08418 0.0
O169 O 0.54797 0.57058 0.07949 0.0
O170 O 0.50008 0.5652 0.08614 0.0
C171 C 0.57004 0.51521 0.09528 0.0
O172 O 0.50311 0.49632 0.09041 0.0
Co173 Co 0.5595 0.46902 0.07702 0.0
O174 O 0.52964 0.45191 0.08885 0.0
C175 C 0.52319 0.50428 0.05893 0.0
C176 C 0.52195 0.58342 0.08239 0.0
C177 C 0.50625 0.46719 0.09245 0.0
O178 O 0.51508 0.5243 0.06699 0.0
O179 O 0.54233 0.48246 0.06104 0.0
O180 O 0.55017 0.53416 0.10004 0.0
O181 O 0.56614 0.50927 0.08394 0.0
Co182 Co 0.99738 0.47211 0.58173 0.0
O183 O 0.97701 0.43487 0.57647 0.0
O184 O 0.02178 0.43631 0.58608 0.0
C185 C 0.9551 0.49463 0.58986 0.0
O186 O 0.02489 0.50574 0.58902 0.0
Co187 Co 0.97772 0.53664 0.57158 0.0
O188 O 0.0059 0.55251 0.58418 0.0
C189 C 0.01934 0.49645 0.5573 0.0
C190 C 0.99997 0.41986 0.58119 0.0
C191 C 0.02526 0.53545 0.58971 0.0
O192 O 0.01963 0.47562 0.56563 0.0
O193 O 0.00316 0.52109 0.55779 0.0
O194 O 0.97043 0.47417 0.59602 0.0
O195 O 0.96405 0.49857 0.57882 0.0
Co196 Co 0.5239 0.46829 0.91151 0.0
O197 O 0.54396 0.43152 0.91738 0.0
O198 O 0.4978 0.43273 0.9088 0.0
C199 C 0.56565 0.48746 0.90189 0.0
O200 O 0.49615 0.50106 0.90384 0.0
Co201 Co 0.54572 0.53421 0.91865 0.0
O202 O 0.52009 0.54694 0.90467 0.0
C203 C 0.50632 0.49823 0.93547 0.0
C204 C 0.51982 0.41652 0.91367 0.0
C205 C 0.49839 0.52969 0.90084 0.0
O206 O 0.50461 0.47557 0.92795 0.0
O207 O 0.52215 0.52268 0.9336 0.0
O208 O 0.54852 0.46684 0.8966 0.0
O209 O 0.55832 0.49406 0.91292 0.0
Co210 Co 0.99107 0.53045 0.41162 0.0
O211 O 0.97302 0.56795 0.41774 0.0
O212 O 0.01833 0.56503 0.40856 0.0
C213 C 0.9478 0.51324 0.40248 0.0
O214 O 0.01658 0.49641 0.40357 0.0
Co215 Co 0.96601 0.46579 0.41925 0.0
O216 O 0.99342 0.45047 0.40623 0.0
C217 C 0.00713 0.50073 0.4358 0.0
C218 C 0.99723 0.5821 0.41362 0.0
C219 C 0.01455 0.46717 0.40159 0.0
O220 O 0.01134 0.52209 0.42782 0.0
O221 O 0.98852 0.47812 0.4343 0.0
O222 O 0.96541 0.53312 0.397 0.0
O223 O 0.95561 0.50638 0.41342 0.0
H224 H 0.95944 0.12195 0.58404 0.0
H225 H 0.95507 0.17851 0.58323 0.0
H226 H 0.05423 0.1862 0.58285 0.0
H227 H 0.05879 0.1301 0.58341 0.0
H228 H 0.02324 0.22503 0.60028 0.0
H229 H 0.01957 0.19679 0.55772 0.0
H230 H 0.99823 0.16886 0.54012 0.0
H231 H 0.91024 0.21205 0.54578 0.0
H232 H 0.93094 0.23987 0.56354 0.0
H233 H 0.04873 0.38178 0.58628 0.0
H234 H 0.04909 0.32536 0.58659 0.0
H235 H 0.95253 0.32431 0.57703 0.0
H236 H 0.95246 0.38061 0.5762 0.0
H237 H 0.97901 0.28126 0.56515 0.0
H238 H 0.9799 0.31014 0.60689 0.0
H239 H 0.99769 0.33695 0.62534 0.0
H240 H 0.08566 0.29194 0.62258 0.0
H241 H 0.06853 0.26516 0.60401 0.0
C242 C 0.98026 0.13574 0.58373 0.0
C243 C 0.00944 0.12157 0.58375 0.0
C244 C 0.97774 0.16799 0.58326 0.0
C245 C 0.00436 0.18649 0.58298 0.0
C246 C 0.03343 0.17235 0.58308 0.0
C247 C 0.03596 0.14025 0.58335 0.0
C248 C 0.00223 0.22065 0.58269 0.0
C249 C 0.01383 0.23742 0.59256 0.0
C250 C 0.98906 0.23665 0.57278 0.0
C251 C 0.97671 0.22014 0.56204 0.0
C252 C 0.9956 0.20012 0.55528 0.0
C253 C 0.98364 0.18435 0.54526 0.0
C254 C 0.95288 0.18861 0.54186 0.0
C255 C 0.93405 0.20873 0.54844 0.0
C256 C 0.94589 0.22451 0.55848 0.0
C257 C 0.02761 0.3695 0.58423 0.0
C258 C 1.00056 0.38567 0.58126 0.0
C259 C 0.02776 0.3372 0.58448 0.0
C260 C 1.00066 0.32039 0.58206 0.0
C261 C 0.97374 0.3366 0.57895 0.0
C262 C 0.97372 0.36885 0.57851 0.0
C263 C 1.00038 0.28599 0.58274 0.0
C264 C 0.98829 0.26908 0.57293 0.0
C265 C 0.0126 0.26979 0.59283 0.0
C266 C 0.02302 0.28587 0.60399 0.0
C267 C 0.00312 0.30614 0.61017 0.0
C268 C 0.01307 0.3213 0.62065 0.0
C269 C 0.04282 0.31621 0.62511 0.0
C270 C 0.06265 0.29589 0.6191 0.0
C271 C 0.05282 0.28069 0.6086 0.0
H272 H 0.05048 0.32797 0.63323 0.0
H273 H 0.94366 0.17639 0.5341 0.0
H274 H 0.88591 0.69981 0.82806 0.0
H275 H 0.94219 0.703 0.82769 0.0
H276 H 0.93738 0.79921 0.8374 0.0
H277 H 0.88081 0.79615 0.8379 0.0
H278 H 0.97924 0.78557 0.81801 0.0
H279 H 0.95589 0.75029 0.85856 0.0
H280 H 0.9317 0.71581 0.8736 0.0
H281 H 0.98043 0.63849 0.85857 0.0
H282 H 0.00458 0.67246 0.84332 0.0
H283 H 0.1365 0.80864 0.83221 0.0
H284 H 0.08031 0.80616 0.83196 0.0
H285 H 0.08465 0.70667 0.83168 0.0
H286 H 0.14108 0.7092 0.83268 0.0
H287 H 0.04212 0.72189 0.84607 0.0
H288 H 0.06523 0.75393 0.80558 0.0
H289 H 0.08882 0.78584 0.78954 0.0
H290 H 0.04037 0.86544 0.80275 0.0
H291 H 0.01679 0.83408 0.81897 0.0
C292 C 0.89676 0.7217 0.83009 0.0
C293 C 0.87888 0.74773 0.83304 0.0
C294 C 0.92896 0.72344 0.82991 0.0
C295 C 0.94397 0.75127 0.8326 0.0
C296 C 0.92622 0.77749 0.83531 0.0
C297 C 0.89394 0.77569 0.83563 0.0
C298 C 0.97822 0.75282 0.83266 0.0
C299 C 0.99307 0.772 0.82424 0.0
C300 C 0.99618 0.73428 0.84051 0.0
C301 C 0.98181 0.71388 0.84973 0.0
C302 C 0.96125 0.7259 0.8584 0.0
C303 C 0.94759 0.70645 0.86697 0.0
C304 C 0.95447 0.67496 0.86702 0.0
C305 C 0.9751 0.66287 0.85852 0.0
C306 C 0.9888 0.68222 0.84991 0.0
C307 C 0.12548 0.78623 0.83201 0.0
C308 C 0.14319 0.7591 0.83239 0.0
C309 C 0.09326 0.78481 0.83179 0.0
C310 C 0.07797 0.75622 0.83154 0.0
C311 C 0.09574 0.72905 0.83185 0.0
C312 C 0.12801 0.73048 0.83237 0.0
C313 C 0.04354 0.75469 0.83136 0.0
C314 C 0.02851 0.73549 0.83978 0.0
C315 C 0.02543 0.77281 0.82334 0.0
C316 C 0.03946 0.7917 0.81356 0.0
C317 C 0.05977 0.77828 0.80511 0.0
C318 C 0.07311 0.79626 0.79598 0.0
C319 C 0.06615 0.82766 0.79514 0.0
C320 C 0.04576 0.84112 0.80342 0.0
C321 C 0.03238 0.82325 0.81257 0.0
H322 H 0.07652 0.84154 0.78807 0.0
H323 H 0.94386 0.65995 0.87367 0.0
H324 H 0.46823 0.61688 0.08168 0.0
H325 H 0.46299 0.67337 0.08116 0.0
H326 H 0.56197 0.6827 0.082 0.0
H327 H 0.56743 0.62655 0.08217 0.0
H328 H 0.52572 0.7201 0.09979 0.0
H329 H 0.53415 0.69501 0.05713 0.0
H330 H 0.51895 0.66736 0.03853 0.0
H331 H 0.42796 0.70608 0.0409 0.0
H332 H 0.4425 0.73356 0.05966 0.0
H333 H 0.54814 0.87847 0.08783 0.0
H334 H 0.55087 0.82212 0.08745 0.0
H335 H 0.45604 0.81789 0.07566 0.0
H336 H 0.45348 0.87421 0.07569 0.0
H337 H 0.48786 0.77701 0.06367 0.0
H338 H 0.47753 0.80292 0.10553 0.0
H339 H 0.48979 0.82928 0.12476 0.0
H340 H 0.57993 0.7882 0.12482 0.0
H341 H 0.56837 0.76191 0.10549 0.0
C342 C 0.48883 0.63102 0.0817 0.0
C343 C 0.51823 0.61733 0.08193 0.0
C344 C 0.48581 0.6632 0.0814 0.0
C345 C 0.51212 0.68211 0.08156 0.0
C346 C 0.54142 0.66847 0.08189 0.0
C347 C 0.54447 0.6364 0.08193 0.0
C348 C 0.50927 0.71618 0.08144 0.0
C349 C 0.51775 0.73265 0.09186 0.0
C350 C 0.49801 0.73231 0.07121 0.0
C351 C 0.4893 0.71603 0.05988 0.0
C352 C 0.51081 0.69738 0.05376 0.0
C353 C 0.50233 0.68179 0.04317 0.0
C354 C 0.47248 0.68487 0.03855 0.0
C355 C 0.45107 0.70365 0.0445 0.0
C356 C 0.45941 0.71925 0.05511 0.0
C357 C 0.5279 0.86553 0.08513 0.0
C358 C 0.50056 0.88082 0.08185 0.0
C359 C 0.52943 0.83329 0.08497 0.0
C360 C 0.50349 0.81563 0.08172 0.0
C361 C 0.47635 0.83092 0.07823 0.0
C362 C 0.4749 0.86315 0.07828 0.0
C363 C 0.50462 0.78127 0.08203 0.0
C364 C 0.49575 0.76464 0.07164 0.0
C365 C 0.51511 0.76491 0.09237 0.0
C366 C 0.52218 0.78069 0.104 0.0
C367 C 0.50006 0.7997 0.10959 0.0
C368 C 0.50686 0.8146 0.12052 0.0
C369 C 0.53565 0.81049 0.12599 0.0
C370 C 0.55766 0.7914 0.12056 0.0
C371 C 0.55098 0.77647 0.10962 0.0
H372 H 0.54087 0.82203 0.13445 0.0
H373 H 0.46596 0.67278 0.03035 0.0
H374 H 0.63742 0.20899 0.34336 0.0
H375 H 0.58096 0.20647 0.34361 0.0
H376 H 0.57666 0.28707 0.3207 0.0
H377 H 0.63291 0.29022 0.32074 0.0
H378 H 0.53716 0.29258 0.33863 0.0
H379 H 0.5622 0.21096 0.31012 0.0
H380 H 0.58797 0.16278 0.30386 0.0
H381 H 0.54316 0.11391 0.33281 0.0
H382 H 0.51739 0.16188 0.33933 0.0
H383 H 0.37757 0.28892 0.32489 0.0
H384 H 0.43401 0.28957 0.32412 0.0
H385 H 0.4365 0.20152 0.34246 0.0
H386 H 0.3801 0.19975 0.34218 0.0
H387 H 0.47761 0.19943 0.32718 0.0
H388 H 0.45326 0.27863 0.35631 0.0
H389 H 0.4282 0.32609 0.36377 0.0
H390 H 0.47222 0.37854 0.33561 0.0
H391 H 0.49728 0.33134 0.3279 0.0
C392 C 0.62443 0.22599 0.33829 0.0
C393 C 0.63965 0.24977 0.33202 0.0
C394 C 0.59212 0.22449 0.33841 0.0
C395 C 0.57442 0.24642 0.33207 0.0
C396 C 0.5897 0.26991 0.32568 0.0
C397 C 0.62191 0.27161 0.32567 0.0
C398 C 0.54002 0.24564 0.33235 0.0
C399 C 0.52411 0.27231 0.33599 0.0
C400 C 0.5229 0.21894 0.32931 0.0
C401 C 0.53807 0.19005 0.32526 0.0
C402 C 0.55797 0.18997 0.31519 0.0
C403 C 0.57256 0.1627 0.31159 0.0
C404 C 0.56726 0.13532 0.31795 0.0
C405 C 0.54727 0.13513 0.3279 0.0
C406 C 0.53263 0.16234 0.33154 0.0
C407 C 0.39031 0.2698 0.32876 0.0
C408 C 0.37463 0.24436 0.33364 0.0
C409 C 0.42262 0.27025 0.32843 0.0
C410 C 0.43992 0.24595 0.33352 0.0
C411 C 0.42399 0.2206 0.33846 0.0
C412 C 0.39173 0.21963 0.33836 0.0
C413 C 0.47448 0.24646 0.33348 0.0
C414 C 0.4905 0.21974 0.32988 0.0
C415 C 0.49174 0.27298 0.33677 0.0
C416 C 0.47693 0.30142 0.34148 0.0
C417 C 0.45747 0.30027 0.35168 0.0
C418 C 0.44328 0.32712 0.35595 0.0
C419 C 0.44856 0.35529 0.35015 0.0
C420 C 0.46813 0.3567 0.34009 0.0
C421 C 0.48236 0.32992 0.33577 0.0
H422 H 0.43753 0.37604 0.35347 0.0
H423 H 0.5786 0.11424 0.31516 0.0
H424 H 0.06028 0.8713 0.41107 0.0
H425 H 0.05567 0.81516 0.4114 0.0
H426 H 0.95654 0.82302 0.41204 0.0
H427 H 0.96095 0.8796 0.41145 0.0
H428 H 0.98527 0.78052 0.43008 0.0
H429 H 0.98346 0.80238 0.38723 0.0
H430 H 0.00263 0.826 0.36832 0.0
H431 H 0.0885 0.77759 0.37218 0.0
H432 H 0.07 0.75402 0.39122 0.0
H433 H 0.95213 0.62285 0.41988 0.0
H434 H 0.9544 0.67899 0.41959 0.0
H435 H 0.04974 0.67494 0.4084 0.0
H436 H 0.04721 0.61846 0.40824 0.0
H437 H 0.0218 0.71642 0.39565 0.0
H438 H 0.02654 0.69527 0.43811 0.0
H439 H 0.01066 0.67243 0.45762 0.0
H440 H 0.92386 0.71988 0.45554 0.0
H441 H 0.93906 0.74269 0.43591 0.0
C442 C 0.03745 0.86115 0.41127 0.0
C443 C 0.01094 0.87987 0.41123 0.0
C444 C 0.03489 0.82906 0.41143 0.0
C445 C 0.0058 0.81498 0.41171 0.0
C446 C 0.97921 0.83352 0.41182 0.0
C447 C 0.98175 0.86576 0.41144 0.0
C448 C 0.00348 0.78086 0.41193 0.0
C449 C 0.99273 0.76642 0.4225 0.0
C450 C 0.01432 0.76261 0.40218 0.0
C451 C 0.02545 0.77668 0.39072 0.0
C452 C 0.00654 0.79699 0.38411 0.0
C453 C 0.01726 0.81033 0.37335 0.0
C454 C 0.04679 0.80337 0.36907 0.0
C455 C 0.06564 0.78299 0.37552 0.0
C456 C 0.05504 0.76962 0.38629 0.0
C457 C 0.97369 0.63386 0.41744 0.0
C458 C 0.99955 0.61617 0.41412 0.0
C459 C 0.97499 0.66605 0.41734 0.0
C460 C 0.00238 0.68137 0.41416 0.0
C461 C 0.02834 0.66372 0.41091 0.0
C462 C 0.02692 0.63143 0.41086 0.0
C463 C 0.00355 0.71573 0.41385 0.0
C464 C 0.01419 0.73034 0.40326 0.0
C465 C 0.99306 0.73413 0.42367 0.0
C466 C 0.98383 0.72044 0.43547 0.0
C467 C 0.00397 0.70064 0.44176 0.0
C468 C 0.9951 0.68774 0.45285 0.0
C469 C 0.96624 0.69463 0.4578 0.0
C470 C 0.9462 0.71452 0.45168 0.0
C471 C 0.95493 0.72747 0.44058 0.0
H472 H 0.95942 0.68462 0.46639 0.0
H473 H 0.05505 0.81371 0.36074 0.0
H474 H 0.37906 0.71417 0.65656 0.0
H475 H 0.43559 0.71259 0.65697 0.0
H476 H 0.43783 0.80671 0.66958 0.0
H477 H 0.38144 0.80848 0.66921 0.0
H478 H 0.47995 0.79568 0.6511 0.0
H479 H 0.45028 0.74983 0.68922 0.0
H480 H 0.42224 0.71287 0.70217 0.0
H481 H 0.46714 0.63734 0.68417 0.0
H482 H 0.49513 0.67387 0.67099 0.0
H483 H 0.64059 0.79704 0.66504 0.0
H484 H 0.58429 0.80217 0.66602 0.0
H485 H 0.57494 0.70381 0.66108 0.0
H486 H 0.63087 0.69853 0.66091 0.0
H487 H 0.53557 0.71916 0.6764 0.0
H488 H 0.56286 0.76235 0.63752 0.0
H489 H 0.58994 0.79764 0.62355 0.0
H490 H 0.54914 0.87556 0.64148 0.0
H491 H 0.5221 0.84073 0.65564 0.0
C492 C 0.39159 0.73452 0.65942 0.0
C493 C 0.37574 0.7614 0.6629 0.0
C494 C 0.42389 0.73356 0.65968 0.0
C495 C 0.44095 0.75948 0.66339 0.0
C496 C 0.42517 0.78646 0.66669 0.0
C497 C 0.39291 0.78736 0.66652 0.0
C498 C 0.47523 0.75845 0.66388 0.0
C499 C 0.49219 0.7792 0.65674 0.0
C500 C 0.49115 0.73654 0.67103 0.0
C501 C 0.47459 0.71458 0.67905 0.0
C502 C 0.45401 0.72534 0.68796 0.0
C503 C 0.43815 0.70446 0.69535 0.0
C504 C 0.44285 0.67277 0.69397 0.0
C505 C 0.46349 0.6619 0.68522 0.0
C506 C 0.47939 0.68267 0.67779 0.0
C507 C 0.62642 0.77658 0.66422 0.0
C508 C 0.64011 0.7474 0.66291 0.0
C509 C 0.5942 0.77951 0.66468 0.0
C510 C 0.57506 0.75344 0.66339 0.0
C511 C 0.58894 0.72433 0.66213 0.0
C512 C 0.62102 0.72132 0.662 0.0
C513 C 0.54066 0.75607 0.66342 0.0
C514 C 0.52354 0.73568 0.67073 0.0
C515 C 0.5246 0.77801 0.65625 0.0
C516 C 0.54072 0.79895 0.64771 0.0
C517 C 0.55983 0.78702 0.63852 0.0
C518 C 0.57514 0.80693 0.63057 0.0
C519 C 0.57134 0.83882 0.63165 0.0
C520 C 0.55212 0.85086 0.64066 0.0
C521 C 0.53677 0.83104 0.64865 0.0
H522 H 0.58322 0.8542 0.62548 0.0
H523 H 0.43054 0.65665 0.6997 0.0
H524 H 0.46956 0.37931 0.91008 0.0
H525 H 0.46757 0.32284 0.91127 0.0
H526 H 0.56428 0.32048 0.92038 0.0
H527 H 0.56639 0.3768 0.91936 0.0
H528 H 0.54707 0.27896 0.90169 0.0
H529 H 0.51502 0.30802 0.94201 0.0
H530 H 0.48288 0.33598 0.95685 0.0
H531 H 0.4018 0.29127 0.94303 0.0
H532 H 0.43341 0.26337 0.92798 0.0
H533 H 0.55465 0.11897 0.91467 0.0
H534 H 0.55922 0.17518 0.91607 0.0
H535 H 0.45992 0.18323 0.91599 0.0
H536 H 0.45538 0.12722 0.91529 0.0
H537 H 0.48012 0.22275 0.93074 0.0
H538 H 0.50856 0.19653 0.88986 0.0
H539 H 0.53799 0.16989 0.87381 0.0
H540 H 0.62203 0.21014 0.88703 0.0
H541 H 0.59312 0.23674 0.90325 0.0
C542 C 0.49035 0.36675 0.91239 0.0
C543 C 0.51811 0.3825 0.91465 0.0
C544 C 0.48917 0.33453 0.91309 0.0
C545 C 0.51577 0.31752 0.91596 0.0
C546 C 0.54351 0.33318 0.91816 0.0
C547 C 0.54462 0.36537 0.91761 0.0
C548 C 0.51485 0.28333 0.91644 0.0
C549 C 0.53277 0.26658 0.90814 0.0
C550 C 0.49555 0.26732 0.92465 0.0
C551 C 0.47656 0.28382 0.93379 0.0
C552 C 0.49031 0.30433 0.94207 0.0
C553 C 0.47219 0.32013 0.95053 0.0
C554 C 0.44031 0.31546 0.95086 0.0
C555 C 0.42649 0.29489 0.94276 0.0
C556 C 0.4445 0.27905 0.93427 0.0
C557 C 0.53385 0.1328 0.91503 0.0
C558 C 0.50468 0.11872 0.91483 0.0
C559 C 0.53645 0.16496 0.91574 0.0
C560 C 0.5099 0.1837 0.91589 0.0
C561 C 0.48079 0.16947 0.9159 0.0
C562 C 0.47821 0.13738 0.91547 0.0
C563 C 0.5122 0.21805 0.91587 0.0
C564 C 0.49453 0.23494 0.92428 0.0
C565 C 0.53132 0.23425 0.90759 0.0
C566 C 0.54873 0.21835 0.89784 0.0
C567 C 0.53334 0.19952 0.88939 0.0
C568 C 0.54992 0.18446 0.88026 0.0
C569 C 0.58187 0.18825 0.87942 0.0
C570 C 0.59729 0.20718 0.8877 0.0
C571 C 0.58082 0.22228 0.89685 0.0
H572 H 0.59466 0.17656 0.87235 0.0
H573 H 0.42632 0.32774 0.95742 0.0
H574 H 0.13519 0.2025 0.16558 0.0
H575 H 0.07887 0.2054 0.16554 0.0
H576 H 0.08362 0.30291 0.15814 0.0
H577 H 0.14027 0.30011 0.15794 0.0
H578 H 0.04099 0.28401 0.17756 0.0
H579 H 0.06564 0.26118 0.13586 0.0
H580 H 0.0909 0.23195 0.11943 0.0
H581 H 0.04382 0.14961 0.13065 0.0
H582 H 0.01861 0.17827 0.14726 0.0
H583 H 0.88192 0.30402 0.16528 0.0
H584 H 0.93821 0.30458 0.16467 0.0
H585 H 0.939 0.20547 0.16091 0.0
H586 H 0.8825 0.2051 0.16083 0.0
H587 H 0.97987 0.2269 0.14683 0.0
H588 H 0.95682 0.24619 0.18866 0.0
H589 H 0.93242 0.2725 0.20603 0.0
H590 H 0.97697 0.35727 0.19609 0.0
H591 H 0.00133 0.33156 0.17856 0.0
C592 C 0.12431 0.22461 0.16397 0.0
C593 C 0.14219 0.2511 0.16175 0.0
C594 C 0.09211 0.22619 0.16391 0.0
C595 C 0.0771 0.25432 0.16178 0.0
C596 C 0.09482 0.28097 0.15979 0.0
C597 C 0.12712 0.27932 0.15965 0.0
C598 C 0.04289 0.25564 0.16157 0.0
C599 C 0.02753 0.27195 0.17074 0.0
C600 C 0.02547 0.23905 0.1529 0.0
C601 C 0.04047 0.22182 0.14288 0.0
C602 C 0.06088 0.23679 0.13489 0.0
C603 C 0.07515 0.22033 0.12553 0.0
C604 C 0.06903 0.18893 0.12402 0.0
C605 C 0.04857 0.17393 0.13184 0.0
C606 C 0.03426 0.19028 0.14122 0.0
C607 C 0.89411 0.28233 0.16437 0.0
C608 C 0.87781 0.25448 0.16318 0.0
C609 C 0.92637 0.28264 0.16409 0.0
C610 C 0.94311 0.255 0.163 0.0
C611 C 0.92676 0.22714 0.16178 0.0
C612 C 0.89445 0.22691 0.16178 0.0
C613 C 0.97758 0.25516 0.16292 0.0
C614 C 0.99311 0.23908 0.15367 0.0
C615 C 0.99517 0.27152 0.17167 0.0
C616 C 0.98065 0.28702 0.18223 0.0
C617 C 0.96125 0.2705 0.19013 0.0
C618 C 0.94745 0.28529 0.20001 0.0
C619 C 0.95308 0.31655 0.20215 0.0
C620 C 0.9726 0.33307 0.19442 0.0
C621 C 0.98643 0.31839 0.18452 0.0
H622 H 0.94237 0.32797 0.2098 0.0
H623 H 0.0801 0.17623 0.11676 0.0
H624 H 0.05704 0.98546 0.45613 0.0
H625 H 0.04149 0.98417 0.4774 0.0
H626 H 0.94608 0.97618 0.46674 0.0
H627 H 0.96177 0.97671 0.44519 0.0
H628 H 0.96558 0.02777 0.48475 0.0
H629 H 0.96548 0.9187 0.47941 0.0
H630 H 0.98531 0.86906 0.47178 0.0
H631 H 0.06847 0.88115 0.4924 0.0
H632 H 0.04937 0.93109 0.50001 0.0
H633 H 0.96492 0.02249 0.55161 0.0
H634 H 0.94982 0.01515 0.53023 0.0
H635 H 0.04388 0.99149 0.52133 0.0
H636 H 0.05872 0.99816 0.54243 0.0
H637 H 0.00433 0.94839 0.51334 0.0
H638 H 0.01137 0.0612 0.5138 0.0
H639 H 0.99552 0.11288 0.5208 0.0
H640 H 0.90271 0.09523 0.50909 0.0
H641 H 0.91796 0.04326 0.50216 0.0
C642 C 0.03279 0.98288 0.45831 0.0
C643 C 0.01058 0.9811 0.44909 0.0
C644 C 0.02394 0.98219 0.47043 0.0
C645 C 0.99269 0.98017 0.47358 0.0
C646 C 0.97032 0.97774 0.46442 0.0
C647 C 0.97929 0.97778 0.45219 0.0
C648 C 0.98434 0.98199 0.48654 0.0
C649 C 0.97302 0.01007 0.49106 0.0
C650 C 0.99447 0.95899 0.49468 0.0
C651 C 0.00595 0.9287 0.49028 0.0
C652 C 0.98806 0.91086 0.48227 0.0
C653 C 0.99917 0.88265 0.47795 0.0
C654 C 0.02813 0.87196 0.4816 0.0
C655 C 0.04602 0.88944 0.48959 0.0
C656 C 0.03502 0.91767 0.49394 0.0
C657 C 0.98235 0.01632 0.54499 0.0
C658 C 0.0129 0.0106 0.54864 0.0
C659 C 0.9737 0.01199 0.53283 0.0
C660 C 0.99567 0.0023 0.52425 0.0
C661 C 0.02645 0.99841 0.52784 0.0
C662 C 0.03494 0.0024 0.53989 0.0
C663 C 0.98731 0.99488 0.51155 0.0
C664 C 0.99556 0.96566 0.5071 0.0
C665 C 0.97473 0.01698 0.50351 0.0
C666 C 0.96569 0.04822 0.50762 0.0
C667 C 0.98753 0.06825 0.51281 0.0
C668 C 0.97867 0.09761 0.51675 0.0
C669 C 0.9481 0.10729 0.51543 0.0
C670 C 0.92636 0.08767 0.51014 0.0
C671 C 0.93509 0.05827 0.5062 0.0
H672 H 0.94129 0.13002 0.51848 0.0
H673 H 0.0367 0.85012 0.47824 0.0
H674 H 0.31109 0.7375 0.79906 0.0
H675 H 0.31363 0.72249 0.77783 0.0
H676 H 0.21428 0.72104 0.77599 0.0
H677 H 0.21143 0.73639 0.7975 0.0
H678 H 0.25069 0.67213 0.76139 0.0
H679 H 0.239 0.78177 0.76769 0.0
H680 H 0.25089 0.83173 0.7773 0.0
H681 H 0.34474 0.82511 0.76508 0.0
H682 H 0.3335 0.7748 0.75557 0.0
H683 H 0.22271 0.71923 0.70081 0.0
H684 H 0.2267 0.70441 0.72206 0.0
H685 H 0.32386 0.72613 0.7216 0.0
H686 H 0.31988 0.74105 0.70014 0.0
H687 H 0.29154 0.76053 0.73768 0.0
H688 H 0.30049 0.65382 0.72864 0.0
H689 H 0.2877 0.6044 0.71882 0.0
H690 H 0.19817 0.60553 0.73549 0.0
H691 H 0.21022 0.65522 0.74529 0.0
C692 C 0.28968 0.73348 0.79423 0.0
C693 C 0.26101 0.73877 0.79984 0.0
C694 C 0.29124 0.72468 0.78213 0.0
C695 C 0.26419 0.72104 0.77537 0.0
C696 C 0.23539 0.72373 0.78114 0.0
C697 C 0.23378 0.73255 0.79337 0.0
C698 C 0.2666 0.71908 0.76205 0.0
C699 C 0.25922 0.69146 0.75612 0.0
C700 C 0.27865 0.74412 0.75534 0.0
C701 C 0.28551 0.77434 0.76106 0.0
C702 C 0.26226 0.7908 0.76717 0.0
C703 C 0.26886 0.81921 0.77257 0.0
C704 C 0.29858 0.83154 0.77183 0.0
C705 C 0.32174 0.8155 0.76567 0.0
C706 C 0.31527 0.78704 0.76027 0.0
C707 C 0.24514 0.71987 0.70514 0.0
C708 C 0.27093 0.73163 0.69895 0.0
C709 C 0.24745 0.71116 0.71726 0.0
C710 C 0.27555 0.71421 0.72341 0.0
C711 C 0.30198 0.72353 0.71697 0.0
C712 C 0.29974 0.73196 0.70474 0.0
C713 C 0.27558 0.71349 0.73683 0.0
C714 C 0.28333 0.74087 0.74286 0.0
C715 C 0.26364 0.68829 0.74353 0.0
C716 C 0.25621 0.65841 0.73764 0.0
C717 C 0.27797 0.64369 0.73014 0.0
C718 C 0.27087 0.61558 0.72459 0.0
C719 C 0.24212 0.60186 0.72651 0.0
C720 C 0.22043 0.6162 0.73401 0.0
C721 C 0.2274 0.64432 0.73958 0.0
H722 H 0.23667 0.58009 0.72221 0.0
H723 H 0.30364 0.85356 0.77601 0.0
H724 H 0.51302 0.94405 0.04389 0.0
H725 H 0.52825 0.94513 0.02246 0.0
H726 H 0.56047 0.03873 0.02673 0.0
H727 H 0.54412 0.03801 0.04792 0.0
H728 H 0.51926 0.03656 0.00997 0.0
H729 H 0.60986 0.97825 0.01836 0.0
H730 H 0.64083 0.93584 0.02694 0.0
H731 H 0.58969 0.87018 0.00583 0.0
H732 H 0.55809 0.91214 0.99724 0.0
H733 H 0.53499 0.04573 0.9461 0.0
H734 H 0.55285 0.04488 0.96721 0.0
H735 H 0.51632 0.95297 0.97149 0.0
H736 H 0.49899 0.95331 0.95055 0.0
H737 H 0.57019 0.95909 0.98361 0.0
H738 H 0.47354 0.01516 0.97928 0.0
H739 H 0.44032 0.05632 0.97101 0.0
H740 H 0.50202 0.12503 0.9851 0.0
H741 H 0.53581 0.0842 0.99332 0.0
C742 C 0.52433 0.96439 0.04031 0.0
C743 C 0.52717 0.99104 0.04742 0.0
C744 C 0.53313 0.96502 0.02808 0.0
C745 C 0.54543 0.99211 0.02296 0.0
C746 C 0.55086 0.01769 0.03045 0.0
C747 C 0.54157 0.01725 0.04254 0.0
C748 C 0.54762 0.99563 0.00959 0.0
C749 C 0.53122 0.02005 0.00425 0.0
C750 C 0.56248 0.97373 0.00208 0.0
C751 C 0.58147 0.94838 0.00721 0.0
C752 C 0.60505 0.95475 0.01561 0.0
C753 C 0.62276 0.93079 0.02046 0.0
C754 C 0.6172 0.90033 0.01694 0.0
C755 C 0.59397 0.89378 0.00855 0.0
C756 C 0.57619 0.91766 0.00367 0.0
C757 C 0.53114 0.02521 0.95149 0.0
C758 C 0.51508 0.99982 0.94668 0.0
C759 C 0.54139 0.02474 0.96354 0.0
C760 C 0.53563 0.99895 0.97093 0.0
C761 C 0.52107 0.97307 0.96594 0.0
C762 C 0.51087 0.97349 0.95397 0.0
C763 C 0.54161 0.99971 0.98415 0.0
C764 C 0.5592 0.97604 0.98943 0.0
C765 C 0.5277 0.02216 0.99166 0.0
C766 C 0.50737 0.04667 0.98676 0.0
C767 C 0.48012 0.03905 0.98053 0.0
C768 C 0.46118 0.0623 0.97587 0.0
C769 C 0.46911 0.09327 0.97749 0.0
C770 C 0.49595 0.10103 0.98382 0.0
C771 C 0.515 0.07786 0.98848 0.0
H772 H 0.45442 0.11124 0.97388 0.0
H773 H 0.63093 0.88181 0.02071 0.0
H774 H 0.29449 0.30408 0.19325 0.0
H775 H 0.29882 0.32061 0.21444 0.0
H776 H 0.21805 0.26685 0.22334 0.0
H777 H 0.21279 0.25191 0.20202 0.0
H778 H 0.22144 0.31345 0.23822 0.0
H779 H 0.29395 0.23602 0.22342 0.0
H780 H 0.33568 0.21714 0.21011 0.0
H781 H 0.39487 0.29005 0.22252 0.0
H782 H 0.3533 0.30954 0.2358 0.0
H783 H 0.24501 0.21851 0.28691 0.0
H784 H 0.24679 0.23971 0.26658 0.0
H785 H 0.30772 0.31194 0.27872 0.0
H786 H 0.30567 0.29105 0.29952 0.0
H787 H 0.32087 0.27446 0.25451 0.0
H788 H 0.24712 0.33956 0.27434 0.0
H789 H 0.20373 0.34969 0.28826 0.0
H790 H 0.14495 0.29165 0.26677 0.0
H791 H 0.18811 0.28076 0.25283 0.0
C792 C 0.27699 0.29695 0.19969 0.0
C793 C 0.25334 0.27679 0.19614 0.0
C794 C 0.27959 0.30616 0.21179 0.0
C795 C 0.25933 0.29423 0.22055 0.0
C796 C 0.23405 0.27629 0.21676 0.0
C797 C 0.23099 0.26774 0.20459 0.0
C798 C 0.26667 0.29638 0.23368 0.0
C799 C 0.24332 0.30532 0.24177 0.0
C800 C 0.29546 0.28625 0.23837 0.0
C801 C 0.32045 0.27445 0.23046 0.0
C802 C 0.31582 0.2481 0.22325 0.0
C803 C 0.33943 0.23729 0.21572 0.0
C804 C 0.36787 0.25245 0.21544 0.0
C805 C 0.37279 0.27839 0.22272 0.0
C806 C 0.34923 0.28933 0.23024 0.0
C807 C 0.259 0.23883 0.28536 0.0
C808 C 0.27488 0.25334 0.29492 0.0
C809 C 0.25992 0.25091 0.2737 0.0
C810 C 0.27687 0.27762 0.27127 0.0
C811 C 0.29426 0.29141 0.28054 0.0
C812 C 0.29316 0.27938 0.29236 0.0
C813 C 0.27535 0.29059 0.25892 0.0
C814 C 0.29962 0.28415 0.25095 0.0
C815 C 0.2472 0.30228 0.25435 0.0
C816 C 0.22091 0.30933 0.26254 0.0
C817 C 0.22498 0.32884 0.27261 0.0
C818 C 0.20042 0.33472 0.28051 0.0
C819 C 0.1716 0.32132 0.2784 0.0
C820 C 0.16727 0.30205 0.26838 0.0
C821 C 0.19177 0.29607 0.26046 0.0
H822 H 0.15263 0.32587 0.28453 0.0
H823 H 0.38612 0.24405 0.2096 0.0
H824 H 0.73248 0.1876 0.19554 0.0
H825 H 0.73137 0.16966 0.21663 0.0
H826 H 0.80692 0.23091 0.22512 0.0
H827 H 0.80921 0.24721 0.20388 0.0
H828 H 0.80956 0.18346 0.23951 0.0
H829 H 0.72673 0.2532 0.22631 0.0
H830 H 0.68176 0.26665 0.21363 0.0
H831 H 0.63399 0.18606 0.2263 0.0
H832 H 0.67886 0.17201 0.23896 0.0
H833 H 0.78587 0.27118 0.28986 0.0
H834 H 0.78728 0.24903 0.26977 0.0
H835 H 0.71928 0.18148 0.28021 0.0
H836 H 0.71761 0.20377 0.30079 0.0
H837 H 0.70832 0.21157 0.25746 0.0
H838 H 0.78925 0.15524 0.27623 0.0
H839 H 0.8347 0.14846 0.28941 0.0
H840 H 0.88707 0.20957 0.2667 0.0
H841 H 0.84184 0.2171 0.25348 0.0
C842 C 0.74959 0.19619 0.20186 0.0
C843 C 0.7709 0.21872 0.19823 0.0
C844 C 0.7488 0.18617 0.2139 0.0
C845 C 0.7684 0.19964 0.22255 0.0
C846 C 0.79145 0.22024 0.21865 0.0
C847 C 0.79281 0.22958 0.20652 0.0
C848 C 0.76247 0.19601 0.23575 0.0
C849 C 0.78738 0.18933 0.24344 0.0
C850 C 0.73323 0.20274 0.24092 0.0
C851 C 0.7062 0.21139 0.23345 0.0
C852 C 0.70666 0.23832 0.22634 0.0
C853 C 0.68121 0.24603 0.21916 0.0
C854 C 0.65507 0.22716 0.21913 0.0
C855 C 0.65428 0.2006 0.22631 0.0
C856 C 0.6797 0.19276 0.23349 0.0
C857 C 0.77118 0.25152 0.28804 0.0
C858 C 0.75181 0.23908 0.29705 0.0
C859 C 0.7722 0.23877 0.2765 0.0
C860 C 0.75402 0.21314 0.27361 0.0
C861 C 0.73383 0.20102 0.28237 0.0
C862 C 0.73283 0.21383 0.29407 0.0
C863 C 0.75581 0.20064 0.26114 0.0
C864 C 0.73016 0.20433 0.25357 0.0
C865 C 0.78449 0.19172 0.25609 0.0
C866 C 0.81209 0.18668 0.26384 0.0
C867 C 0.81043 0.1673 0.27406 0.0
C868 C 0.83616 0.16334 0.28155 0.0
C869 C 0.86376 0.17856 0.27889 0.0
C870 C 0.8657 0.19773 0.26873 0.0
C871 C 0.84003 0.20178 0.26122 0.0
H872 H 0.88363 0.1755 0.28471 0.0
H873 H 0.6354 0.23316 0.21356 0.0
H874 H 0.80569 0.74012 0.69935 0.0
H875 H 0.80723 0.75459 0.7206 0.0
H876 H 0.71158 0.78159 0.71909 0.0
H877 H 0.70968 0.76701 0.69748 0.0
H878 H 0.75342 0.82142 0.73417 0.0
H879 H 0.72083 0.71672 0.72951 0.0
H880 H 0.7224 0.66394 0.72121 0.0
H881 H 0.81328 0.65119 0.73587 0.0
H882 H 0.81246 0.70413 0.74409 0.0
H883 H 0.72116 0.78323 0.79706 0.0
H884 H 0.72276 0.79448 0.77532 0.0
H885 H 0.81859 0.76786 0.77427 0.0
H886 H 0.81729 0.75729 0.79617 0.0
H887 H 0.77509 0.73086 0.76038 0.0
H888 H 0.80513 0.8359 0.76629 0.0
H889 H 0.80156 0.88834 0.7748 0.0
H890 H 0.71235 0.89997 0.7585 0.0
H891 H 0.71516 0.84737 0.75004 0.0
C892 C 0.7849 0.74933 0.70343 0.0
C893 C 0.75731 0.75177 0.69677 0.0
C894 C 0.78596 0.75781 0.71558 0.0
C895 C 0.75947 0.76879 0.72141 0.0
C896 C 0.73227 0.77314 0.71469 0.0
C897 C 0.73118 0.76468 0.7024 0.0
C898 C 0.76 0.77222 0.73475 0.0
C899 C 0.75765 0.80165 0.73996 0.0
C900 C 0.76608 0.7464 0.74222 0.0
C901 C 0.76671 0.71451 0.7373 0.0
C902 C 0.74128 0.70277 0.73086 0.0
C903 C 0.742 0.67281 0.72619 0.0
C904 C 0.76796 0.65425 0.72799 0.0
C905 C 0.79321 0.66561 0.73448 0.0
C906 C 0.79262 0.69559 0.73915 0.0
C907 C 0.74286 0.78092 0.79226 0.0
C908 C 0.76907 0.76923 0.7982 0.0
C909 C 0.74377 0.78747 0.77988 0.0
C910 C 0.77075 0.78191 0.77323 0.0
C911 C 0.79762 0.77245 0.77931 0.0
C912 C 0.7969 0.76651 0.79179 0.0
C913 C 0.76902 0.78014 0.75987 0.0
C914 C 0.77093 0.75076 0.75463 0.0
C915 C 0.76207 0.80595 0.75251 0.0
C916 C 0.76022 0.83753 0.75763 0.0
C917 C 0.78459 0.84949 0.76463 0.0
C918 C 0.78274 0.87929 0.76942 0.0
C919 C 0.75671 0.89745 0.76722 0.0
C920 C 0.73249 0.88586 0.76021 0.0
C921 C 0.73421 0.85606 0.7554 0.0
H922 H 0.75533 0.92052 0.77093 0.0
H923 H 0.76847 0.63104 0.72437 0.0
H924 H 0.50903 0.45136 0.95177 0.0
H925 H 0.49332 0.4538 0.97302 0.0
H926 H 0.45139 0.54279 0.96669 0.0
H927 H 0.46916 0.54115 0.94563 0.0
H928 H 0.48626 0.54854 0.98432 0.0
H929 H 0.40869 0.4748 0.97624 0.0
H930 H 0.38562 0.42767 0.96763 0.0
H931 H 0.44711 0.37183 0.98884 0.0
H932 H 0.47084 0.41859 0.99748 0.0
H933 H 0.48193 0.54671 0.04956 0.0
H934 H 0.4601 0.54737 0.02898 0.0
H935 H 0.51132 0.46506 0.02014 0.0
H936 H 0.53269 0.4639 0.04041 0.0
H937 H 0.45335 0.46249 0.01095 0.0
H938 H 0.53879 0.53809 0.0132 0.0
H939 H 0.5627 0.58548 0.02131 0.0
H940 H 0.4831 0.63793 0.0107 0.0
H941 H 0.45865 0.59075 0.00262 0.0
C942 C 0.49566 0.47095 0.95487 0.0
C943 C 0.49036 0.49611 0.94719 0.0
C944 C 0.48644 0.47231 0.96701 0.0
C945 C 0.47087 0.49844 0.97153 0.0
C946 C 0.46345 0.52247 0.96349 0.0
C947 C 0.47348 0.52149 0.95147 0.0
C948 C 0.46679 0.50266 0.98483 0.0
C949 C 0.47806 0.52999 0.99009 0.0
C950 C 0.45623 0.47862 0.99247 0.0
C951 C 0.44159 0.4503 0.9875 0.0
C952 C 0.41737 0.45248 0.97905 0.0
C953 C 0.40417 0.42581 0.97416 0.0
C954 C 0.41491 0.39678 0.97768 0.0
C955 C 0.43879 0.39434 0.98614 0.0
C956 C 0.45206 0.42094 0.99106 0.0
C957 C 0.4884 0.52868 0.04323 0.0
C958 C 0.50933 0.50543 0.04664 0.0
C959 C 0.47582 0.52907 0.03151 0.0
C960 C 0.4841 0.50624 0.02305 0.0
C961 C 0.50437 0.48274 0.02655 0.0
C962 C 0.51686 0.48232 0.03816 0.0
C963 C 0.47413 0.50754 0.0102 0.0
C964 C 0.46024 0.48134 0.00507 0.0
C965 C 0.48201 0.53265 0.00265 0.0
C966 C 0.49679 0.56092 0.00745 0.0
C967 C 0.52635 0.55972 0.01267 0.0
C968 C 0.53999 0.58652 0.01725 0.0
C969 C 0.52439 0.61468 0.01655 0.0
C970 C 0.49513 0.6161 0.01126 0.0
C971 C 0.48138 0.58935 0.00667 0.0
H972 H 0.53503 0.63541 0.02007 0.0
H973 H 0.40472 0.37616 0.97386 0.0
H974 H 0.0585 0.53818 0.54785 0.0
H975 H 0.07759 0.53932 0.527 0.0
H976 H 0.04008 0.44846 0.52093 0.0
H977 H 0.02163 0.44694 0.54201 0.0
H978 H 0.09331 0.46224 0.50626 0.0
H979 H 0.9937 0.50664 0.51741 0.0
H980 H 0.96056 0.54115 0.52954 0.0
H981 H 0.01291 0.61947 0.51749 0.0
H982 H 0.04667 0.58529 0.50544 0.0
H983 H 0.01617 0.4532 0.45141 0.0
H984 H 0.03841 0.4549 0.47154 0.0
H985 H 0.06012 0.55128 0.46677 0.0
H986 H 0.03701 0.54993 0.44642 0.0
H987 H 0.0282 0.54232 0.48673 0.0
H988 H 0.1184 0.49708 0.47079 0.0
H989 H 0.15005 0.4616 0.45853 0.0
H990 H 0.11553 0.38452 0.47887 0.0
H991 H 0.08328 0.41944 0.49115 0.0
C992 C 0.05549 0.51795 0.5422 0.0
C993 C 0.03833 0.49263 0.54638 0.0
C994 C 0.06644 0.5186 0.53032 0.0
C995 C 0.05963 0.49427 0.52239 0.0
C996 C 0.04551 0.46747 0.52694 0.0
C997 C 0.03493 0.46661 0.53895 0.0
C998 C 0.06125 0.49936 0.50914 0.0
C999 C 0.07921 0.47971 0.50193 0.0
C1000 C 0.04347 0.52283 0.50358 0.0
C1001 C 0.0229 0.54342 0.51066 0.0
C1002 C 0.99825 0.5312 0.51742 0.0
C1003 C 0.97935 0.55069 0.52427 0.0
C1004 C 0.98468 0.58247 0.52431 0.0
C1005 C 0.00886 0.59484 0.51747 0.0
C1006 C 0.02788 0.57543 0.51063 0.0
C1007 C 0.02598 0.47477 0.45453 0.0
C1008 C 0.02434 0.50161 0.44738 0.0
C1009 C 0.03918 0.47555 0.46602 0.0
C1010 C 0.05134 0.50309 0.47063 0.0
C1011 C 0.05107 0.5297 0.46333 0.0
C1012 C 0.03783 0.52893 0.45173 0.0
C1013 C 0.05969 0.50464 0.48366 0.0
C1014 C 0.04331 0.52547 0.49094 0.0
C1015 C 0.07885 0.48218 0.4892 0.0
C1016 C 0.09832 0.46095 0.48189 0.0
C1017 C 0.11739 0.47255 0.47261 0.0
C1018 C 0.13547 0.45253 0.46566 0.0
C1019 C 0.13479 0.42083 0.46792 0.0
C1020 C 0.11606 0.40909 0.47714 0.0
C1021 C 0.09791 0.42901 0.48412 0.0
H1022 H 0.1488 0.40536 0.46252 0.0
H1023 H 0.97004 0.59753 0.52962 0.0
H1024 H 0.21642 0.83426 0.66352 0.0
H1025 H 0.18283 0.87299 0.65455 0.0
H1026 H 0.2387 0.87362 0.62218 0.0
H1027 H 0.27243 0.83384 0.63104 0.0
H1028 H 0.22162 0.93473 0.63273 0.0
H1029 H 0.17741 0.83976 0.61908 0.0
H1030 H 0.15777 0.78673 0.62137 0.0
H1031 H 0.08719 0.81908 0.64558 0.0
H1032 H 0.1068 0.87228 0.64362 0.0
H1033 H 0.11645 0.00482 0.5918 0.0
H1034 H 0.15343 0.97255 0.60264 0.0
H1035 H 0.0917 0.96809 0.63331 0.0
H1036 H 0.05454 0.00116 0.62247 0.0
H1037 H 0.11194 0.90976 0.62424 0.0
H1038 H 0.15506 0.00533 0.63719 0.0
H1039 H 0.17515 0.05819 0.63495 0.0
H1040 H 0.24775 0.02487 0.6119 0.0
H1041 H 0.22782 0.97182 0.61385 0.0
C1042 C 0.22163 0.84242 0.65447 0.0
C1043 C 0.24698 0.83081 0.64794 0.0
C1044 C 0.20238 0.86463 0.64938 0.0
C1045 C 0.20827 0.87599 0.63772 0.0
C1046 C 0.23388 0.86501 0.63121 0.0
C1047 C 0.25298 0.84229 0.63625 0.0
C1048 C 0.18712 0.89905 0.63242 0.0
C1049 C 0.19776 0.92926 0.63069 0.0
C1050 C 0.15582 0.89191 0.63015 0.0
C1051 C 0.14382 0.85997 0.63131 0.0
C1052 C 0.15791 0.83554 0.625 0.0
C1053 C 0.14674 0.80545 0.62622 0.0
C1054 C 0.1213 0.79952 0.63365 0.0
C1055 C 0.10693 0.8237 0.63985 0.0
C1056 C 0.11806 0.85383 0.63868 0.0
C1057 C 0.11105 0.99751 0.60096 0.0
C1058 C 0.0828 0.00548 0.60635 0.0
C1059 C 0.13219 0.97914 0.60714 0.0
C1060 C 0.12531 0.96804 0.61877 0.0
C1061 C 0.09741 0.97661 0.62434 0.0
C1062 C 0.07637 0.99559 0.61821 0.0
C1063 C 0.14639 0.94556 0.62453 0.0
C1064 C 0.13576 0.91536 0.62633 0.0
C1065 C 0.1777 0.95271 0.62682 0.0
C1066 C 0.18975 0.98461 0.62558 0.0
C1067 C 0.17513 0.00929 0.63155 0.0
C1068 C 0.18654 0.03929 0.63035 0.0
C1069 C 0.21267 0.0449 0.62326 0.0
C1070 C 0.22749 0.0205 0.61738 0.0
C1071 C 0.21616 0.99045 0.61854 0.0
H1072 H 0.22147 0.06814 0.62235 0.0
H1073 H 0.11268 0.77621 0.63458 0.0
H1074 H 0.30323 0.82946 0.84192 0.0
H1075 H 0.3319 0.86829 0.85298 0.0
H1076 H 0.25691 0.87767 0.87841 0.0
H1077 H 0.22805 0.83707 0.86752 0.0
H1078 H 0.29206 0.93605 0.8625 0.0
H1079 H 0.29931 0.85751 0.89333 0.0
H1080 H 0.30675 0.80444 0.90081 0.0
H1081 H 0.39759 0.8025 0.88527 0.0
H1082 H 0.39044 0.8554 0.8775 0.0
H1083 H 0.39195 0.02598 0.90272 0.0
H1084 H 0.3511 0.99345 0.89411 0.0
H1085 H 0.41856 0.94715 0.87182 0.0
H1086 H 0.45931 0.98049 0.88014 0.0
H1087 H 0.38084 0.90897 0.88886 0.0
H1088 H 0.37319 0.98476 0.85718 0.0
H1089 H 0.3665 0.03677 0.84855 0.0
H1090 H 0.27705 0.04358 0.86509 0.0
H1091 H 0.28342 0.99173 0.87399 0.0
C1092 C 0.29275 0.83932 0.84991 0.0
C1093 C 0.26339 0.83 0.85388 0.0
C1094 C 0.30924 0.86163 0.85622 0.0
C1095 C 0.29651 0.87565 0.86648 0.0
C1096 C 0.26708 0.86682 0.87051 0.0
C1097 C 0.25073 0.8437 0.86433 0.0
C1098 C 0.31458 0.89992 0.87256 0.0
C1099 C 0.31091 0.93044 0.86859 0.0
C1100 C 0.33974 0.89213 0.8801 0.0
C1101 C 0.34416 0.86027 0.88469 0.0
C1102 C 0.32071 0.84562 0.89136 0.0
C1103 C 0.32491 0.8156 0.89569 0.0
C1104 C 0.35258 0.80006 0.89348 0.0
C1105 C 0.37614 0.81455 0.88696 0.0
C1106 C 0.37202 0.84455 0.88259 0.0
C1107 C 0.39773 0.00961 0.89564 0.0
C1108 C 0.42842 0.00591 0.89188 0.0
C1109 C 0.37452 0.99101 0.8908 0.0
C1110 C 0.38194 0.96795 0.88238 0.0
C1111 C 0.41249 0.96497 0.87829 0.0
C1112 C 0.43561 0.98411 0.88293 0.0
C1113 C 0.3584 0.94514 0.87877 0.0
C1114 C 0.36142 0.91486 0.88309 0.0
C1115 C 0.33267 0.9532 0.87157 0.0
C1116 C 0.32899 0.98457 0.86641 0.0
C1117 C 0.35227 0.99752 0.85913 0.0
C1118 C 0.34849 0.02692 0.85414 0.0
C1119 C 0.32142 0.04353 0.85631 0.0
C1120 C 0.29805 0.03073 0.86345 0.0
C1121 C 0.30173 0.00133 0.86846 0.0
H1122 H 0.31851 0.06627 0.85243 0.0
H1123 H 0.35581 0.77683 0.89684 0.0
H1124 H 0.43627 0.98728 0.11715 0.0
H1125 H 0.39869 0.02129 0.12712 0.0
H1126 H 0.37776 0.06357 0.09265 0.0
H1127 H 0.41512 0.0301 0.08271 0.0
H1128 H 0.38814 0.10624 0.10972 0.0
H1129 H 0.32754 0.01402 0.10582 0.0
H1130 H 0.31581 0.95875 0.10836 0.0
H1131 H 0.32017 0.9688 0.14709 0.0
H1132 H 0.33236 0.02408 0.14477 0.0
H1133 H 0.25438 0.19128 0.12654 0.0
H1134 H 0.28743 0.15265 0.11671 0.0
H1135 H 0.31329 0.11686 0.15179 0.0
H1136 H 0.28067 0.15545 0.16164 0.0
H1137 H 0.29979 0.07045 0.13467 0.0
H1138 H 0.36455 0.1602 0.13872 0.0
H1139 H 0.37847 0.21503 0.13665 0.0
H1140 H 0.36623 0.20922 0.09803 0.0
H1141 H 0.35259 0.15417 0.0999 0.0
C1142 C 0.42345 0.00368 0.11171 0.0
C1143 C 0.42871 0.0061 0.09917 0.0
C1144 C 0.40196 0.02302 0.1174 0.0
C1145 C 0.38537 0.0449 0.11061 0.0
C1146 C 0.39036 0.04695 0.09807 0.0
C1147 C 0.41172 0.02773 0.09241 0.0
C1148 C 0.36361 0.06658 0.11652 0.0
C1149 C 0.36857 0.09835 0.11503 0.0
C1150 C 0.33852 0.05633 0.12369 0.0
C1151 C 0.33119 0.02312 0.12511 0.0
C1152 C 0.32627 0.00439 0.11487 0.0
C1153 C 0.31948 0.97307 0.11628 0.0
C1154 C 0.31733 0.96025 0.12788 0.0
C1155 C 0.32189 0.97875 0.13811 0.0
C1156 C 0.32872 0.01008 0.13675 0.0
C1157 C 0.26689 0.17498 0.13213 0.0
C1158 C 0.26506 0.17638 0.14484 0.0
C1159 C 0.28582 0.15304 0.12652 0.0
C1160 C 0.30287 0.13205 0.13355 0.0
C1161 C 0.30028 0.13283 0.14622 0.0
C1162 C 0.28173 0.15495 0.15182 0.0
C1163 C 0.32427 0.10992 0.12774 0.0
C1164 C 0.31929 0.07819 0.1293 0.0
C1165 C 0.34941 0.12011 0.12064 0.0
C1166 C 0.35719 0.15324 0.11946 0.0
C1167 C 0.36456 0.17072 0.1298 0.0
C1168 C 0.37245 0.20183 0.12866 0.0
C1169 C 0.37285 0.21579 0.11723 0.0
C1170 C 0.36571 0.1985 0.1069 0.0
C1171 C 0.35804 0.1673 0.10798 0.0
H1172 H 0.37888 0.23992 0.11638 0.0
H1173 H 0.31207 0.93601 0.12895 0.0
H1174 H 0.0567 0.01103 0.37695 0.0
H1175 H 0.09435 0.04624 0.36775 0.0
H1176 H 0.15683 0.02964 0.39759 0.0
H1177 H 0.11856 0.99608 0.40704 0.0
H1178 H 0.15381 0.0872 0.39425 0.0
H1179 H 0.16851 0.00152 0.3671 0.0
H1180 H 0.15247 0.96098 0.35272 0.0
H1181 H 0.11625 0.02983 0.3286 0.0
H1182 H 0.13174 0.07076 0.3429 0.0
H1183 H 0.27745 0.17362 0.36657 0.0
H1184 H 0.24587 0.13331 0.3762 0.0
H1185 H 0.17617 0.14565 0.34864 0.0
H1186 H 0.20785 0.18445 0.33887 0.0
H1187 H 0.18679 0.08756 0.35119 0.0
H1188 H 0.16913 0.17269 0.37902 0.0
H1189 H 0.18502 0.21319 0.39345 0.0
H1190 H 0.22715 0.14486 0.41628 0.0
H1191 H 0.21181 0.10399 0.40191 0.0
C1192 C 0.07876 0.01452 0.38136 0.0
C1193 C 0.08492 0.00093 0.39264 0.0
C1194 C 0.10031 0.03457 0.37612 0.0
C1195 C 0.12865 0.04048 0.38193 0.0
C1196 C 0.13515 0.02566 0.39295 0.0
C1197 C 0.11338 0.00636 0.39831 0.0
C1198 C 0.15069 0.06365 0.37704 0.0
C1199 C 0.1614 0.08692 0.38487 0.0
C1200 C 0.16023 0.06378 0.36476 0.0
C1201 C 0.15109 0.03918 0.35612 0.0
C1202 C 0.15696 0.00799 0.35876 0.0
C1203 C 0.14799 0.98495 0.35062 0.0
C1204 C 0.13329 0.99282 0.33976 0.0
C1205 C 0.12761 0.02376 0.33701 0.0
C1206 C 0.13653 0.04689 0.34513 0.0
C1207 C 0.25522 0.16785 0.3627 0.0
C1208 C 0.24518 0.18201 0.35194 0.0
C1209 C 0.23719 0.14488 0.36818 0.0
C1210 C 0.20858 0.13641 0.36313 0.0
C1211 C 0.19825 0.15147 0.35264 0.0
C1212 C 0.2164 0.1738 0.34707 0.0
C1213 C 0.18947 0.11128 0.36836 0.0
C1214 C 0.17936 0.08762 0.3606 0.0
C1215 C 0.18052 0.11077 0.38069 0.0
C1216 C 0.18961 0.13535 0.38933 0.0
C1217 C 0.18197 0.16634 0.38708 0.0
C1218 C 0.19084 0.18935 0.39525 0.0
C1219 C 0.20716 0.18162 0.40576 0.0
C1220 C 0.21456 0.15083 0.40813 0.0
C1221 C 0.20576 0.12774 0.39998 0.0
H1222 H 0.21401 0.19946 0.41207 0.0
H1223 H 0.12636 0.97495 0.33348 0.0
H1224 H 0.94164 0.01021 0.39489 0.0
H1225 H 0.90038 0.04069 0.38551 0.0
H1226 H 0.95476 0.12322 0.38995 0.0
H1227 H 0.99567 0.09331 0.39939 0.0
H1228 H 0.89688 0.1331 0.39696 0.0
H1229 H 0.94786 0.08702 0.36246 0.0
H1230 H 0.96732 0.04405 0.34995 0.0
H1231 H 0.87545 0.00789 0.34674 0.0
H1232 H 0.85551 0.05047 0.35938 0.0
H1233 H 0.84633 0.24115 0.35418 0.0
H1234 H 0.8745 0.20175 0.36533 0.0
H1235 H 0.79824 0.13885 0.36109 0.0
H1236 H 0.76937 0.17866 0.34998 0.0
H1237 H 0.85857 0.11364 0.35523 0.0
H1238 H 0.80752 0.16562 0.38773 0.0
H1239 H 0.78985 0.21087 0.39937 0.0
H1240 H 0.88383 0.23773 0.40567 0.0
H1241 H 0.90209 0.19288 0.39392 0.0
C1242 C 0.94484 0.03484 0.39384 0.0
C1243 C 0.97204 0.04924 0.39793 0.0
C1244 C 0.92124 0.05222 0.38845 0.0
C1245 C 0.92449 0.08426 0.387 0.0
C1246 C 0.95162 0.09858 0.39104 0.0
C1247 C 0.9751 0.08133 0.39641 0.0
C1248 C 0.89983 0.1033 0.38135 0.0
C1249 C 0.88858 0.12884 0.38782 0.0
C1250 C 0.8883 0.09732 0.36955 0.0
C1251 C 0.90026 0.07168 0.362 0.0
C1252 C 0.93186 0.06974 0.35918 0.0
C1253 C 0.94296 0.0455 0.35205 0.0
C1254 C 0.92265 0.02319 0.34759 0.0
C1255 C 0.89117 0.02514 0.35023 0.0
C1256 C 0.87995 0.04933 0.35737 0.0
C1257 C 0.8353 0.21911 0.35569 0.0
C1258 C 0.80546 0.21321 0.35124 0.0
C1259 C 0.85149 0.19657 0.36208 0.0
C1260 C 0.83839 0.16746 0.3641 0.0
C1261 C 0.80869 0.16124 0.35964 0.0
C1262 C 0.7922 0.18405 0.35335 0.0
C1263 C 0.85637 0.14375 0.37073 0.0
C1264 C 0.86638 0.11742 0.36446 0.0
C1265 C 0.86701 0.14912 0.38268 0.0
C1266 C 0.85617 0.17595 0.38988 0.0
C1267 C 0.82443 0.18128 0.39153 0.0
C1268 C 0.8143 0.20685 0.39816 0.0
C1269 C 0.8357 0.22719 0.40324 0.0
C1270 C 0.86728 0.22195 0.40173 0.0
C1271 C 0.87753 0.19643 0.3951 0.0
H1272 H 0.82781 0.24698 0.40836 0.0
H1273 H 0.93129 0.00445 0.34206 0.0
H1274 H 0.56274 0.00471 0.10825 0.0
H1275 H 0.60541 0.03113 0.11867 0.0
H1276 H 0.58035 0.11639 0.1011 0.0
H1277 H 0.53784 0.09061 0.09087 0.0
H1278 H 0.64375 0.10391 0.10007 0.0
H1279 H 0.55963 0.10676 0.1289 0.0
H1280 H 0.51957 0.08398 0.14202 0.0
H1281 H 0.58887 0.03336 0.16148 0.0
H1282 H 0.62933 0.05553 0.14833 0.0
H1283 H 0.68054 0.23279 0.13769 0.0
H1284 H 0.65348 0.191 0.12723 0.0
H1285 H 0.719 0.12531 0.1413 0.0
H1286 H 0.74694 0.16732 0.15153 0.0
H1287 H 0.64387 0.11856 0.14473 0.0
H1288 H 0.72912 0.12251 0.11685 0.0
H1289 H 0.7674 0.14872 0.1039 0.0
H1290 H 0.69446 0.18897 0.08282 0.0
H1291 H 0.65572 0.16335 0.09577 0.0
C1292 C 0.56635 0.02909 0.10664 0.0
C1293 C 0.54677 0.04557 0.09878 0.0
C1294 C 0.5907 0.04411 0.11258 0.0
C1295 C 0.59604 0.07567 0.11061 0.0
C1296 C 0.57672 0.09199 0.1027 0.0
C1297 C 0.55225 0.07721 0.09693 0.0
C1298 C 0.62121 0.09235 0.1169 0.0
C1299 C 0.64392 0.10691 0.10984 0.0
C1300 C 0.6217 0.09586 0.12966 0.0
C1301 C 0.59743 0.08241 0.13752 0.0
C1302 C 0.56628 0.0905 0.13589 0.0
C1303 C 0.54351 0.07776 0.14334 0.0
C1304 C 0.55165 0.05713 0.15254 0.0
C1305 C 0.58259 0.04927 0.15432 0.0
C1306 C 0.60545 0.0619 0.14687 0.0
C1307 C 0.68946 0.20952 0.13841 0.0
C1308 C 0.71585 0.20328 0.14539 0.0
C1309 C 0.674 0.18572 0.13245 0.0
C1310 C 0.68428 0.1552 0.13354 0.0
C1311 C 0.71084 0.14881 0.14036 0.0
C1312 C 0.72682 0.17279 0.14611 0.0
C1313 C 0.66608 0.13027 0.12787 0.0
C1314 C 0.6444 0.11455 0.13501 0.0
C1315 C 0.66641 0.1258 0.11519 0.0
C1316 C 0.68954 0.14125 0.10735 0.0
C1317 C 0.72124 0.13721 0.10953 0.0
C1318 C 0.74303 0.1519 0.10217 0.0
C1319 C 0.73337 0.17057 0.09256 0.0
C1320 C 0.70191 0.17453 0.09028 0.0
C1321 C 0.68003 0.1599 0.09762 0.0
H1322 H 0.75027 0.18191 0.08687 0.0
H1323 H 0.53399 0.04732 0.15832 0.0
H1324 H 0.66789 0.76607 0.84976 0.0
H1325 H 0.63915 0.80817 0.85888 0.0
H1326 H 0.72315 0.86015 0.86333 0.0
H1327 H 0.75259 0.81778 0.85403 0.0
H1328 H 0.67971 0.8617 0.88401 0.0
H1329 H 0.68298 0.88206 0.84158 0.0
H1330 H 0.67964 0.86922 0.81983 0.0
H1331 H 0.58432 0.84462 0.82414 0.0
H1332 H 0.58721 0.85682 0.84598 0.0
H1333 H 0.57844 0.98906 0.89774 0.0
H1334 H 0.62065 0.96051 0.88801 0.0
H1335 H 0.55591 0.89163 0.87583 0.0
H1336 H 0.51383 0.91979 0.88549 0.0
H1337 H 0.59797 0.90749 0.8581 0.0
H1338 H 0.59744 0.87939 0.90077 0.0
H1339 H 0.60054 0.89031 0.9227 0.0
H1340 H 0.69085 0.92918 0.91791 0.0
H1341 H 0.68807 0.91886 0.89591 0.0
C1342 C 0.68053 0.78622 0.85275 0.0
C1343 C 0.71264 0.78856 0.85103 0.0
C1344 C 0.66395 0.81034 0.85796 0.0
C1345 C 0.67896 0.8374 0.86161 0.0
C1346 C 0.71117 0.83944 0.8605 0.0
C1347 C 0.7279 0.81524 0.85518 0.0
C1348 C 0.66025 0.86369 0.86606 0.0
C1349 C 0.66234 0.87234 0.87829 0.0
C1350 C 0.6374 0.87725 0.85861 0.0
C1351 C 0.63538 0.87019 0.84544 0.0
C1352 C 0.66136 0.8737 0.83791 0.0
C1353 C 0.65954 0.86656 0.82556 0.0
C1354 C 0.6318 0.85607 0.82061 0.0
C1355 C 0.6058 0.85275 0.82799 0.0
C1356 C 0.6075 0.85982 0.84036 0.0
C1357 C 0.57317 0.96804 0.89285 0.0
C1358 C 0.5428 0.95659 0.89245 0.0
C1359 C 0.59732 0.9517 0.88736 0.0
C1360 C 0.59143 0.92382 0.88129 0.0
C1361 C 0.56098 0.91307 0.88047 0.0
C1362 C 0.53696 0.92915 0.88605 0.0
C1363 C 0.6168 0.90491 0.87615 0.0
C1364 C 0.61587 0.89754 0.86376 0.0
C1365 C 0.64069 0.89261 0.88347 0.0
C1366 C 0.64238 0.89875 0.89668 0.0
C1367 C 0.61784 0.89053 0.90438 0.0
C1368 C 0.61956 0.89656 0.91683 0.0
C1369 C 0.64583 0.91054 0.92169 0.0
C1370 C 0.67048 0.91843 0.91413 0.0
C1371 C 0.66885 0.9125 0.90167 0.0
H1372 H 0.64713 0.91517 0.93133 0.0
H1373 H 0.63044 0.85055 0.81104 0.0
H1374 H 0.85184 0.76658 0.64943 0.0
H1375 H 0.8803 0.80893 0.64022 0.0
H1376 H 0.79503 0.85026 0.62835 0.0
H1377 H 0.76595 0.80781 0.63777 0.0
H1378 H 0.84549 0.847 0.61015 0.0
H1379 H 0.82453 0.88431 0.64988 0.0
H1380 H 0.8208 0.88198 0.67218 0.0
H1381 H 0.91857 0.86738 0.67467 0.0
H1382 H 0.92283 0.8691 0.65235 0.0
H1383 H 0.93465 0.98237 0.59432 0.0
H1384 H 0.89347 0.95142 0.60365 0.0
H1385 H 0.96186 0.89362 0.62069 0.0
H1386 H 0.00292 0.92388 0.61124 0.0
H1387 H 0.91206 0.91224 0.63631 0.0
H1388 H 0.93119 0.86754 0.59676 0.0
H1389 H 0.93535 0.86853 0.57444 0.0
H1390 H 0.8407 0.89697 0.57173 0.0
H1391 H 0.83614 0.89659 0.59407 0.0
C1392 C 0.83898 0.78452 0.64483 0.0
C1393 C 0.80653 0.78379 0.64438 0.0
C1394 C 0.85534 0.8088 0.63961 0.0
C1395 C 0.83975 0.83281 0.6337 0.0
C1396 C 0.80743 0.83194 0.63292 0.0
C1397 C 0.7909 0.80775 0.63833 0.0
C1398 C 0.85774 0.85871 0.62851 0.0
C1399 C 0.85946 0.86183 0.61586 0.0
C1400 C 0.87631 0.87767 0.63599 0.0
C1401 C 0.87395 0.87658 0.64942 0.0
C1402 C 0.8452 0.88031 0.65517 0.0
C1403 C 0.843 0.87915 0.66782 0.0
C1404 C 0.86942 0.87447 0.67484 0.0
C1405 C 0.89812 0.87098 0.66922 0.0
C1406 C 0.90045 0.87208 0.65657 0.0
C1407 C 0.94084 0.96325 0.60015 0.0
C1408 C 0.97199 0.95544 0.60201 0.0
C1409 C 0.91734 0.94556 0.60543 0.0
C1410 C 0.92467 0.9202 0.61282 0.0
C1411 C 0.95573 0.91311 0.61503 0.0
C1412 C 0.97915 0.93034 0.60958 0.0
C1413 C 0.90024 0.90013 0.61795 0.0
C1414 C 0.89749 0.89799 0.63061 0.0
C1415 C 0.88073 0.88213 0.61048 0.0
C1416 C 0.88346 0.88249 0.59707 0.0
C1417 C 0.91137 0.87435 0.59141 0.0
C1418 C 0.91378 0.87472 0.57876 0.0
C1419 C 0.88834 0.88293 0.57167 0.0
C1420 C 0.86041 0.8907 0.57723 0.0
C1421 C 0.8579 0.89042 0.58988 0.0
H1422 H 0.89024 0.88318 0.56188 0.0
H1423 H 0.86768 0.8736 0.68463 0.0
H1424 H 0.76708 0.31593 0.13 0.0
H1425 H 0.73483 0.35658 0.12115 0.0
H1426 H 0.69597 0.37555 0.15644 0.0
H1427 H 0.72746 0.33466 0.16523 0.0
H1428 H 0.65187 0.37427 0.14018 0.0
H1429 H 0.7504 0.42359 0.14335 0.0
H1430 H 0.80648 0.42946 0.14037 0.0
H1431 H 0.79389 0.42841 0.10172 0.0
H1432 H 0.73776 0.42211 0.10446 0.0
H1433 H 0.57546 0.51117 0.12009 0.0
H1434 H 0.6115 0.47828 0.13147 0.0
H1435 H 0.65204 0.44744 0.09783 0.0
H1436 H 0.61663 0.48017 0.08651 0.0
H1437 H 0.69576 0.45812 0.11486 0.0
H1438 H 0.59798 0.40426 0.11191 0.0
H1439 H 0.5418 0.39941 0.11485 0.0
H1440 H 0.55325 0.41025 0.15331 0.0
H1441 H 0.60956 0.41543 0.15059 0.0
C1442 C 0.75171 0.32884 0.13585 0.0
C1443 C 0.74984 0.32215 0.14829 0.0
C1444 C 0.73339 0.35214 0.13081 0.0
C1445 C 0.71321 0.36938 0.13817 0.0
C1446 C 0.71133 0.36259 0.15058 0.0
C1447 C 0.72943 0.33924 0.15559 0.0
C1448 C 0.69362 0.39414 0.13292 0.0
C1449 C 0.66157 0.39288 0.13481 0.0
C1450 C 0.70614 0.41825 0.1258 0.0
C1451 C 0.73989 0.4221 0.12412 0.0
C1452 C 0.75961 0.42438 0.13421 0.0
C1453 C 0.79141 0.42782 0.13257 0.0
C1454 C 0.80375 0.42923 0.12086 0.0
C1455 C 0.78431 0.42728 0.11078 0.0
C1456 C 0.75249 0.4238 0.11238 0.0
C1457 C 0.59235 0.49766 0.11517 0.0
C1458 C 0.59312 0.49804 0.10243 0.0
C1459 C 0.6128 0.47882 0.12166 0.0
C1460 C 0.63422 0.4602 0.11547 0.0
C1461 C 0.63573 0.4616 0.10278 0.0
C1462 C 0.61535 0.48023 0.09633 0.0
C1463 C 0.65416 0.43796 0.12201 0.0
C1464 C 0.68621 0.43968 0.12036 0.0
C1465 C 0.64167 0.41431 0.12936 0.0
C1466 C 0.60792 0.41056 0.13103 0.0
C1467 C 0.58849 0.40577 0.12099 0.0
C1468 C 0.55663 0.40296 0.12261 0.0
C1469 C 0.54392 0.40467 0.13425 0.0
C1470 C 0.56311 0.409 0.1443 0.0
C1471 C 0.59501 0.41184 0.14272 0.0
H1472 H 0.51923 0.40256 0.13548 0.0
H1473 H 0.82837 0.4319 0.11961 0.0
H1474 H 0.78219 0.34301 0.33515 0.0
H1475 H 0.81411 0.38043 0.34569 0.0
H1476 H 0.77386 0.35321 0.37986 0.0
H1477 H 0.74145 0.31513 0.36925 0.0
H1478 H 0.78015 0.41752 0.37726 0.0
H1479 H 0.84371 0.32834 0.37436 0.0
H1480 H 0.86954 0.28378 0.36492 0.0
H1481 H 0.91598 0.34404 0.33997 0.0
H1482 H 0.89047 0.38907 0.34931 0.0
H1483 H 0.902 0.48074 0.41321 0.0
H1484 H 0.86314 0.44846 0.40343 0.0
H1485 H 0.89828 0.47462 0.36828 0.0
H1486 H 0.93731 0.50736 0.37806 0.0
H1487 H 0.89371 0.41056 0.37205 0.0
H1488 H 0.83031 0.50066 0.37651 0.0
H1489 H 0.80637 0.54381 0.38763 0.0
H1490 H 0.76037 0.47977 0.41121 0.0
H1491 H 0.7844 0.43621 0.40034 0.0
C1492 C 0.77996 0.3449 0.34491 0.0
C1493 C 0.75948 0.32591 0.35139 0.0
C1494 C 0.79832 0.36631 0.35092 0.0
C1495 C 0.79668 0.36924 0.36356 0.0
C1496 C 0.77551 0.35113 0.37008 0.0
C1497 C 0.75706 0.32944 0.36403 0.0
C1498 C 0.81764 0.39106 0.36977 0.0
C1499 C 0.805 0.41579 0.3763 0.0
C1500 C 0.85001 0.38902 0.3683 0.0
C1501 C 0.86488 0.36203 0.36244 0.0
C1502 C 0.85915 0.33206 0.36677 0.0
C1503 C 0.8738 0.30672 0.36145 0.0
C1504 C 0.89416 0.31102 0.35177 0.0
C1505 C 0.90009 0.34073 0.34743 0.0
C1506 C 0.88563 0.36618 0.35276 0.0
C1507 C 0.9012 0.47996 0.40338 0.0
C1508 C 0.92268 0.49645 0.39637 0.0
C1509 C 0.8789 0.46163 0.39783 0.0
C1510 C 0.87778 0.45932 0.38516 0.0
C1511 C 0.89877 0.47627 0.37809 0.0
C1512 C 0.92093 0.49498 0.38366 0.0
C1513 C 0.85625 0.43728 0.37941 0.0
C1514 C 0.86885 0.41239 0.37299 0.0
C1515 C 0.82395 0.43901 0.38114 0.0
C1516 C 0.80939 0.46517 0.38767 0.0
C1517 C 0.81531 0.49577 0.38413 0.0
C1518 C 0.80167 0.52031 0.39038 0.0
C1519 C 0.78192 0.51454 0.40014 0.0
C1520 C 0.7757 0.48421 0.40366 0.0
C1521 C 0.7893 0.45958 0.39745 0.0
H1522 H 0.77139 0.53357 0.40496 0.0
H1523 H 0.90547 0.29135 0.34767 0.0
H1524 H 0.92749 0.48883 0.61213 0.0
H1525 H 0.88724 0.52207 0.6208 0.0
H1526 H 0.88849 0.57828 0.58852 0.0
H1527 H 0.92811 0.54513 0.57976 0.0
H1528 H 0.88992 0.61269 0.61005 0.0
H1529 H 0.83171 0.53099 0.59174 0.0
H1530 H 0.81715 0.47698 0.58773 0.0
H1531 H 0.79493 0.4644 0.62539 0.0
H1532 H 0.80981 0.51825 0.62965 0.0
H1533 H 0.75448 0.69936 0.62361 0.0
H1534 H 0.78784 0.66361 0.61226 0.0
H1535 H 0.79311 0.6042 0.64359 0.0
H1536 H 0.76045 0.63989 0.65496 0.0
H1537 H 0.78687 0.57187 0.6214 0.0
H1538 H 0.84797 0.65175 0.64001 0.0
H1539 H 0.86226 0.70566 0.64437 0.0
H1540 H 0.87926 0.72143 0.60648 0.0
H1541 H 0.8646 0.66766 0.60188 0.0
C1542 C 0.91913 0.50826 0.6069 0.0
C1543 C 0.93096 0.51436 0.59527 0.0
C1544 C 0.89615 0.52716 0.61184 0.0
C1545 C 0.88488 0.55254 0.60526 0.0
C1546 C 0.89693 0.55884 0.59373 0.0
C1547 C 0.91954 0.53979 0.58874 0.0
C1548 C 0.86051 0.57263 0.61037 0.0
C1549 C 0.86724 0.60388 0.61237 0.0
C1550 C 0.83113 0.56096 0.61355 0.0
C1551 C 0.8222 0.52856 0.61104 0.0
C1552 C 0.82401 0.51662 0.59919 0.0
C1553 C 0.81564 0.48606 0.59686 0.0
C1554 C 0.80521 0.46724 0.60631 0.0
C1555 C 0.80306 0.47899 0.61809 0.0
C1556 C 0.81144 0.50954 0.62046 0.0
C1557 C 0.76225 0.67832 0.62794 0.0
C1558 C 0.75508 0.67231 0.64013 0.0
C1559 C 0.78135 0.65805 0.6215 0.0
C1560 C 0.79303 0.63142 0.62715 0.0
C1561 C 0.7843 0.62458 0.63908 0.0
C1562 C 0.76575 0.64502 0.64556 0.0
C1563 C 0.81632 0.61185 0.62108 0.0
C1564 C 0.80946 0.5807 0.61896 0.0
C1565 C 0.84563 0.62357 0.61783 0.0
C1566 C 0.85479 0.65581 0.62058 0.0
C1567 C 0.85447 0.66679 0.63259 0.0
C1568 C 0.86268 0.69731 0.63511 0.0
C1569 C 0.87152 0.71701 0.6257 0.0
C1570 C 0.87231 0.70617 0.61376 0.0
C1571 C 0.86407 0.67567 0.61119 0.0
H1572 H 0.87787 0.74063 0.62766 0.0
H1573 H 0.79872 0.44358 0.60449 0.0
H1574 H 0.73187 0.65947 0.83428 0.0
H1575 H 0.69939 0.62149 0.84432 0.0
H1576 H 0.74206 0.64299 0.87865 0.0
H1577 H 0.77506 0.6814 0.86857 0.0
H1578 H 0.73288 0.5793 0.87497 0.0
H1579 H 0.67485 0.67248 0.87336 0.0
H1580 H 0.65308 0.7189 0.86371 0.0
H1581 H 0.60037 0.66219 0.83941 0.0
H1582 H 0.62223 0.61536 0.8488 0.0
H1583 H 0.61183 0.52027 0.9122 0.0
H1584 H 0.65006 0.55271 0.9021 0.0
H1585 H 0.61211 0.52785 0.86728 0.0
H1586 H 0.57381 0.49477 0.87737 0.0
H1587 H 0.61949 0.593 0.87145 0.0
H1588 H 0.67816 0.49928 0.87396 0.0
H1589 H 0.70056 0.45399 0.88422 0.0
H1590 H 0.75192 0.51344 0.90794 0.0
H1591 H 0.72946 0.55912 0.89793 0.0
C1592 C 0.73453 0.65612 0.84396 0.0
C1593 C 0.75582 0.67365 0.85067 0.0
C1594 C 0.71591 0.63438 0.84968 0.0
C1595 C 0.71806 0.62975 0.86223 0.0
C1596 C 0.74005 0.64635 0.86894 0.0
C1597 C 0.75878 0.66829 0.8632 0.0
C1598 C 0.69635 0.60833 0.86827 0.0
C1599 C 0.7081 0.58248 0.87436 0.0
C1600 C 0.66403 0.61232 0.86727 0.0
C1601 C 0.65041 0.64039 0.86171 0.0
C1602 C 0.65879 0.66989 0.86589 0.0
C1603 C 0.64642 0.69629 0.86048 0.0
C1604 C 0.62543 0.69351 0.85092 0.0
C1605 C 0.61667 0.6643 0.8468 0.0
C1606 C 0.62903 0.63782 0.85218 0.0
C1607 C 0.6118 0.52144 0.90238 0.0
C1608 C 0.5899 0.50502 0.89555 0.0
C1609 C 0.63371 0.53991 0.89664 0.0
C1610 C 0.63394 0.54254 0.88397 0.0
C1611 C 0.61228 0.52598 0.87708 0.0
C1612 C 0.59057 0.50705 0.88283 0.0
C1613 C 0.656 0.56379 0.87805 0.0
C1614 C 0.64427 0.58975 0.87202 0.0
C1615 C 0.68829 0.56006 0.87924 0.0
C1616 C 0.70188 0.53263 0.88527 0.0
C1617 C 0.694 0.5027 0.88144 0.0
C1618 C 0.70676 0.47696 0.88719 0.0
C1619 C 0.72759 0.48083 0.89675 0.0
C1620 C 0.73576 0.51047 0.90055 0.0
C1621 C 0.72304 0.5363 0.89483 0.0
H1622 H 0.73745 0.46087 0.90119 0.0
H1623 H 0.6159 0.71398 0.84673 0.0
H1624 H 0.50051 0.5848 0.88904 0.0
H1625 H 0.45754 0.61338 0.88034 0.0
H1626 H 0.3963 0.53747 0.88796 0.0
H1627 H 0.43952 0.50832 0.89671 0.0
H1628 H 0.38468 0.56885 0.86507 0.0
H1629 H 0.39493 0.5918 0.90731 0.0
H1630 H 0.42338 0.60492 0.92599 0.0
H1631 H 0.45262 0.69041 0.91003 0.0
H1632 H 0.42477 0.67758 0.89118 0.0
H1633 H 0.26669 0.68342 0.85296 0.0
H1634 H 0.29403 0.64107 0.86316 0.0
H1635 H 0.37569 0.69764 0.86553 0.0
H1636 H 0.34873 0.7398 0.85575 0.0
H1637 H 0.36657 0.66842 0.88612 0.0
H1638 H 0.3644 0.64127 0.84301 0.0
H1639 H 0.33823 0.62786 0.82384 0.0
H1640 H 0.29449 0.55073 0.84121 0.0
H1641 H 0.32015 0.56393 0.86052 0.0
C1642 C 0.47805 0.57389 0.88874 0.0
C1643 C 0.47337 0.54445 0.89376 0.0
C1644 C 0.4535 0.59029 0.88375 0.0
C1645 C 0.42368 0.57776 0.88374 0.0
C1646 C 0.41916 0.54756 0.88795 0.0
C1647 C 0.44387 0.53098 0.89294 0.0
C1648 C 0.39731 0.59757 0.88021 0.0
C1649 C 0.38018 0.59034 0.8698 0.0
C1650 C 0.39151 0.62556 0.8864 0.0
C1651 C 0.40785 0.63365 0.89781 0.0
C1652 C 0.40756 0.61332 0.90776 0.0
C1653 C 0.42358 0.62071 0.91838 0.0
C1654 C 0.43982 0.64847 0.91919 0.0
C1655 C 0.44002 0.66892 0.90939 0.0
C1656 C 0.42408 0.66162 0.89875 0.0
C1657 C 0.29036 0.68689 0.85579 0.0
C1658 C 0.30552 0.71502 0.85347 0.0
C1659 C 0.306 0.6626 0.86154 0.0
C1660 C 0.33702 0.66607 0.865 0.0
C1661 C 0.35177 0.69438 0.86296 0.0
C1662 C 0.33627 0.71851 0.8573 0.0
C1663 C 0.35494 0.64057 0.8706 0.0
C1664 C 0.37044 0.64664 0.88151 0.0
C1665 C 0.35922 0.61166 0.86483 0.0
C1666 C 0.34385 0.60382 0.85323 0.0
C1667 C 0.349 0.62161 0.84276 0.0
C1668 C 0.3343 0.61401 0.83186 0.0
C1669 C 0.31462 0.58852 0.83132 0.0
C1670 C 0.30967 0.57051 0.84165 0.0
C1671 C 0.32429 0.57803 0.85257 0.0
H1672 H 0.30327 0.58268 0.82288 0.0
H1673 H 0.45222 0.65414 0.92742 0.0
H1674 H 0.06106 0.51261 0.60838 0.0
H1675 H 0.09938 0.54125 0.62043 0.0
H1676 H 0.08419 0.62173 0.59821 0.0
H1677 H 0.04579 0.59393 0.58648 0.0
H1678 H 0.15376 0.57272 0.61584 0.0
H1679 H 0.0795 0.68422 0.61534 0.0
H1680 H 0.02459 0.69896 0.61426 0.0
H1681 H 0.99866 0.61164 0.62955 0.0
H1682 H 0.05341 0.59657 0.63089 0.0
H1683 H 0.24161 0.7056 0.63449 0.0
H1684 H 0.21142 0.66543 0.62411 0.0
H1685 H 0.14481 0.66717 0.65325 0.0
H1686 H 0.17384 0.70792 0.6632 0.0
H1687 H 0.11576 0.67061 0.63374 0.0
H1688 H 0.19658 0.60499 0.64789 0.0
H1689 H 0.25015 0.58732 0.65079 0.0
H1690 H 0.26107 0.5778 0.61224 0.0
H1691 H 0.20768 0.59582 0.60909 0.0
C1692 C 0.06607 0.53637 0.60607 0.0
C1693 C 0.04991 0.55119 0.59666 0.0
C1694 C 0.08803 0.55263 0.6129 0.0
C1695 C 0.09421 0.58378 0.61034 0.0
C1696 C 0.07933 0.59793 0.60052 0.0
C1697 C 0.05725 0.58197 0.59384 0.0
C1698 C 0.11453 0.60255 0.61827 0.0
C1699 C 0.14554 0.59406 0.61983 0.0
C1700 C 0.10358 0.63006 0.62367 0.0
C1701 C 0.07057 0.63918 0.62312 0.0
C1702 C 0.06209 0.66824 0.61853 0.0
C1703 C 0.03099 0.67663 0.61786 0.0
C1704 C 0.00815 0.65622 0.6218 0.0
C1705 C 0.01637 0.6274 0.62647 0.0
C1706 C 0.04743 0.6189 0.62717 0.0
C1707 C 0.22064 0.69711 0.63867 0.0
C1708 C 0.20978 0.71014 0.64953 0.0
C1709 C 0.2035 0.67404 0.6328 0.0
C1710 C 0.17574 0.66318 0.63789 0.0
C1711 C 0.16588 0.67531 0.64904 0.0
C1712 C 0.1825 0.69867 0.65472 0.0
C1713 C 0.1554 0.64116 0.6313 0.0
C1714 C 0.12421 0.64917 0.6299 0.0
C1715 C 0.16609 0.61287 0.6264 0.0
C1716 C 0.19821 0.60204 0.62825 0.0
C1717 C 0.21048 0.59937 0.64002 0.0
C1718 C 0.2408 0.58924 0.64171 0.0
C1719 C 0.25903 0.58152 0.6317 0.0
C1720 C 0.24694 0.58383 0.61998 0.0
C1721 C 0.21664 0.59397 0.61824 0.0
H1722 H 0.28249 0.57368 0.63303 0.0
H1723 H 0.98408 0.66274 0.62126 0.0
H1724 H 0.05814 0.49345 0.38658 0.0
H1725 H 0.09672 0.46663 0.37412 0.0
H1726 H 0.06409 0.37918 0.38769 0.0
H1727 H 0.02529 0.40543 0.39977 0.0
H1728 H 0.14431 0.42971 0.37883 0.0
H1729 H 0.06565 0.32517 0.36661 0.0
H1730 H 0.0105 0.31472 0.3629 0.0
H1731 H 0.99631 0.4094 0.35295 0.0
H1732 H 0.05144 0.42032 0.35641 0.0
H1733 H 0.23291 0.29937 0.36032 0.0
H1734 H 0.2003 0.33907 0.36965 0.0
H1735 H 0.14883 0.34727 0.33623 0.0
H1736 H 0.18004 0.30628 0.32728 0.0
H1737 H 0.11055 0.34307 0.35262 0.0
H1738 H 0.19957 0.40621 0.34836 0.0
H1739 H 0.25432 0.42098 0.35016 0.0
H1740 H 0.24767 0.41692 0.38901 0.0
H1741 H 0.19298 0.40173 0.38744 0.0
C1742 C 0.05915 0.4685 0.38686 0.0
C1743 C 0.03831 0.45161 0.39406 0.0
C1744 C 0.08128 0.45322 0.37978 0.0
C1745 C 0.08297 0.42085 0.37981 0.0
C1746 C 0.06279 0.40412 0.38727 0.0
C1747 C 0.04057 0.41924 0.39421 0.0
C1748 C 0.10542 0.40414 0.372 0.0
C1749 C 0.13701 0.41087 0.37302 0.0
C1750 C 0.09583 0.38012 0.36417 0.0
C1751 C 0.06268 0.3736 0.36186 0.0
C1752 C 0.05081 0.34372 0.36356 0.0
C1753 C 0.01954 0.33773 0.36151 0.0
C1754 C 0.9999 0.3614 0.35772 0.0
C1755 C 0.01152 0.3911 0.35592 0.0
C1756 C 0.04278 0.39721 0.35793 0.0
C1757 C 0.21494 0.31013 0.35496 0.0
C1758 C 0.20881 0.29982 0.34313 0.0
C1759 C 0.19638 0.33294 0.36025 0.0
C1760 C 0.17203 0.34646 0.35365 0.0
C1761 C 0.16717 0.33714 0.34159 0.0
C1762 C 0.18509 0.31381 0.33645 0.0
C1763 C 0.14982 0.36805 0.35957 0.0
C1764 C 0.1181 0.36213 0.35826 0.0
C1765 C 0.15933 0.39341 0.36678 0.0
C1766 C 0.19222 0.4026 0.36777 0.0
C1767 C 0.20984 0.40826 0.35729 0.0
C1768 C 0.24085 0.41674 0.35827 0.0
C1769 C 0.25448 0.41982 0.36969 0.0
C1770 C 0.23709 0.41451 0.38016 0.0
C1771 C 0.20607 0.406 0.37923 0.0
H1772 H 0.2785 0.42639 0.37043 0.0
H1773 H 0.97569 0.35671 0.35616 0.0
H1774 H 0.45062 0.48947 0.10083 0.0
H1775 H 0.40816 0.45974 0.10972 0.0
H1776 H 0.46239 0.37663 0.10685 0.0
H1777 H 0.50437 0.40574 0.09778 0.0
H1778 H 0.40547 0.36744 0.09844 0.0
H1779 H 0.45179 0.41331 0.13398 0.0
H1780 H 0.46991 0.45643 0.1467 0.0
H1781 H 0.37818 0.49382 0.14765 0.0
H1782 H 0.35959 0.45108 0.13479 0.0
H1783 H 0.34779 0.26009 0.13977 0.0
H1784 H 0.37713 0.29873 0.12873 0.0
H1785 H 0.30267 0.36378 0.13308 0.0
H1786 H 0.27279 0.32475 0.14423 0.0
H1787 H 0.36124 0.38787 0.13919 0.0
H1788 H 0.3145 0.33526 0.10593 0.0
H1789 H 0.29829 0.29005 0.09396 0.0
H1790 H 0.39295 0.26347 0.08925 0.0
H1791 H 0.40975 0.30819 0.10138 0.0
C1792 C 0.45357 0.46488 0.10216 0.0
C1793 C 0.48101 0.45006 0.09859 0.0
C1794 C 0.42928 0.44795 0.10726 0.0
C1795 C 0.4321 0.41595 0.10895 0.0
C1796 C 0.45959 0.40126 0.10556 0.0
C1797 C 0.48373 0.41805 0.10044 0.0
C1798 C 0.40646 0.3973 0.11406 0.0
C1799 C 0.39588 0.37186 0.10737 0.0
C1800 C 0.39325 0.4036 0.12555 0.0
C1801 C 0.40438 0.42924 0.1333 0.0
C1802 C 0.43553 0.43087 0.13681 0.0
C1803 C 0.44588 0.45521 0.14406 0.0
C1804 C 0.42523 0.47792 0.14795 0.0
C1805 C 0.39416 0.47626 0.14462 0.0
C1806 C 0.38371 0.45198 0.13735 0.0
C1807 C 0.33741 0.28244 0.13829 0.0
C1808 C 0.3079 0.28924 0.14287 0.0
C1809 C 0.35423 0.30454 0.13195 0.0
C1810 C 0.34201 0.33406 0.13002 0.0
C1811 C 0.31245 0.34106 0.13446 0.0
C1812 C 0.29537 0.31871 0.14075 0.0
C1813 C 0.36101 0.35754 0.12371 0.0
C1814 C 0.37035 0.38386 0.13015 0.0
C1815 C 0.37335 0.3519 0.11203 0.0
C1816 C 0.36338 0.32507 0.10462 0.0
C1817 C 0.33187 0.31968 0.10241 0.0
C1818 C 0.32257 0.29414 0.09559 0.0
C1819 C 0.34457 0.27392 0.09084 0.0
C1820 C 0.37593 0.2792 0.0929 0.0
C1821 C 0.38536 0.30465 0.09975 0.0
H1822 H 0.33732 0.25415 0.08557 0.0
H1823 H 0.43328 0.49674 0.15356 0.0
loop_
_geom_bond_atom_site_label_1
_geom_bond_atom_site_label_2
_geom_bond_distance
_geom_bond_site_symmetry_2
_ccdc_geom_bond_type
Co0 O1 2.216 . S
Co0 O2 2.091 1_455 S
Co0 O4 2.004 1_455 S
Co0 O10 2.021 1_455 S
Co0 O12 2.137 . S
Co0 O13 2.218 1_545 S
O1 Co0 2.216 . S
O1 C8 1.247 . S
O2 Co0 2.091 1_655 S
O2 C8 1.261 1_655 S
C3 O12 1.247 . S
C3 O13 1.261 1_545 S
O4 Co0 2.004 1_655 S
O4 C9 1.259 1_545 S
Co5 O6 2.061 1_455 S
Co5 O11 2.052 . S
Co5 O13 2.161 . S
O6 Co5 2.061 1_655 S
O6 C9 1.235 . S
C7 O10 1.238 1_455 S
C7 O11 1.241 1_545 S
C8 O1 1.247 . S
C8 O2 1.261 1_455 S
C9 O4 1.259 1_565 S
C9 O6 1.235 . S
O10 Co0 2.021 1_655 S
O10 C7 1.238 1_655 S
O11 Co5 2.052 . S
O11 C7 1.241 1_565 S
O12 Co0 2.137 . S
O12 C3 1.247 . S
O13 Co0 2.218 1_565 S
O13 C3 1.261 1_565 S
O13 Co5 2.161 . S
Co14 O15 2.216 . S
Co14 O16 2.091 . S
Co14 O18 2.004 . S
Co14 O24 2.021 . S
Co14 O26 2.137 . S
Co14 O27 2.244 . S
O15 Co14 2.216 . S
O15 C22 1.247 . S
O16 Co14 2.091 . S
O16 C22 1.261 . S
C17 O26 1.247 . S
C17 O27 1.272 . S
O18 Co14 2.004 . S
O18 C23 1.259 . S
Co19 O20 2.061 . S
Co19 O25 2.052 . S
Co19 O27 2.135 . S
O20 Co19 2.061 . S
O20 C23 1.235 . S
C21 O24 1.238 . S
C21 O25 1.241 . S
C22 O15 1.247 . S
C22 O16 1.261 . S
C23 O18 1.259 . S
C23 O20 1.235 . S
O24 Co14 2.021 . S
O24 C21 1.238 . S
O25 Co19 2.052 . S
O25 C21 1.241 . S
O26 Co14 2.137 . S
O26 C17 1.247 . S
O27 Co14 2.244 . S
O27 C17 1.272 . S
O27 Co19 2.135 . S
Co28 O29 2.216 . S
Co28 O30 2.091 . S
Co28 O32 2.004 . S
Co28 O38 2.021 . S
Co28 O40 2.137 . S
Co28 O41 2.218 1_565 S
O29 Co28 2.216 . S
O29 C36 1.247 . S
O30 Co28 2.091 . S
O30 C36 1.261 . S
C31 O40 1.247 . S
C31 O41 1.261 1_565 S
O32 Co28 2.004 . S
O32 C37 1.259 1_565 S
Co33 O34 2.061 . S
Co33 O39 2.052 . S
Co33 O41 2.161 . S
O34 Co33 2.061 . S
O34 C37 1.235 . S
C35 O38 1.238 . S
C35 O39 1.241 1_565 S
C36 O29 1.247 . S
C36 O30 1.261 . S
C37 O32 1.259 1_545 S
C37 O34 1.235 . S
O38 Co28 2.021 . S
O38 C35 1.238 . S
O39 Co33 2.052 . S
O39 C35 1.241 1_545 S
O40 Co28 2.137 . S
O40 C31 1.247 . S
O41 Co28 2.218 1_545 S
O41 C31 1.261 1_545 S
O41 Co33 2.161 . S
Co42 O43 2.216 . S
Co42 O44 2.091 . S
Co42 O46 2.004 . S
Co42 O52 2.021 . S
Co42 O54 2.137 . S
Co42 O55 2.244 . S
O43 Co42 2.216 . S
O43 C50 1.247 . S
O44 Co42 2.091 . S
O44 C50 1.261 . S
C45 O54 1.247 . S
C45 O55 1.272 . S
O46 Co42 2.004 . S
O46 C51 1.259 . S
Co47 O48 2.061 . S
Co47 O53 2.052 . S
Co47 O55 2.135 . S
O48 Co47 2.061 . S
O48 C51 1.235 . S
C49 O52 1.238 . S
C49 O53 1.241 . S
C50 O43 1.247 . S
C50 O44 1.261 . S
C51 O46 1.259 . S
C51 O48 1.235 . S
O52 Co42 2.021 . S
O52 C49 1.238 . S
O53 Co47 2.052 . S
O53 C49 1.241 . S
O54 Co42 2.137 . S
O54 C45 1.247 . S
O55 Co42 2.244 . S
O55 C45 1.272 . S
O55 Co47 2.135 . S
Co56 O57 2.216 . S
Co56 O58 2.091 1_455 S
Co56 O60 2.004 1_455 S
Co56 O66 2.021 1_455 S
Co56 O68 2.137 . S
Co56 O69 2.218 1_565 S
O57 Co56 2.216 . S
O57 C64 1.247 . S
O58 Co56 2.091 1_655 S
O58 C64 1.261 1_655 S
C59 O68 1.247 . S
C59 O69 1.261 1_565 S
O60 Co56 2.004 1_655 S
O60 C65 1.259 1_565 S
Co61 O62 2.061 1_455 S
Co61 O67 2.052 . S
Co61 O69 2.161 . S
O62 Co61 2.061 1_655 S
O62 C65 1.235 . S
C63 O66 1.238 1_455 S
C63 O67 1.241 1_565 S
C64 O57 1.247 . S
C64 O58 1.261 1_455 S
C65 O60 1.259 1_545 S
C65 O62 1.235 . S
O66 Co56 2.021 1_655 S
O66 C63 1.238 1_655 S
O67 Co61 2.052 . S
O67 C63 1.241 1_545 S
O68 Co56 2.137 . S
O68 C59 1.247 . S
O69 Co56 2.218 1_545 S
O69 C59 1.261 1_545 S
O69 Co61 2.161 . S
Co70 O71 2.216 . S
Co70 O72 2.091 . S
Co70 O74 2.004 . S
Co70 O80 2.021 . S
Co70 O82 2.137 . S
Co70 O83 2.244 . S
O71 Co70 2.216 . S
O71 C78 1.247 . S
O72 Co70 2.091 . S
O72 C78 1.261 . S
C73 O82 1.247 . S
C73 O83 1.272 . S
O74 Co70 2.004 . S
O74 C79 1.259 . S
Co75 O76 2.061 . S
Co75 O81 2.052 . S
Co75 O83 2.135 . S
O76 Co75 2.061 . S
O76 C79 1.235 . S
C77 O80 1.238 . S
C77 O81 1.241 . S
C78 O71 1.247 . S
C78 O72 1.261 . S
C79 O74 1.259 . S
C79 O76 1.235 . S
O80 Co70 2.021 . S
O80 C77 1.238 . S
O81 Co75 2.052 . S
O81 C77 1.241 . S
O82 Co70 2.137 . S
O82 C73 1.247 . S
O83 Co70 2.244 . S
O83 C73 1.272 . S
O83 Co75 2.135 . S
Co84 O85 2.216 . S
Co84 O86 2.091 . S
Co84 O88 2.004 . S
Co84 O94 2.021 . S
Co84 O96 2.137 . S
Co84 O97 2.218 1_545 S
O85 Co84 2.216 . S
O85 C92 1.247 . S
O86 Co84 2.091 . S
O86 C92 1.261 . S
C87 O96 1.247 . S
C87 O97 1.261 1_545 S
O88 Co84 2.004 . S
O88 C93 1.259 1_545 S
Co89 O90 2.061 . S
Co89 O95 2.052 . S
Co89 O97 2.161 . S
O90 Co89 2.061 . S
O90 C93 1.235 . S
C91 O94 1.238 . S
C91 O95 1.241 1_545 S
C92 O85 1.247 . S
C92 O86 1.261 . S
C93 O88 1.259 1_565 S
C93 O90 1.235 . S
O94 Co84 2.021 . S
O94 C91 1.238 . S
O95 Co89 2.052 . S
O95 C91 1.241 1_565 S
O96 Co84 2.137 . S
O96 C87 1.247 . S
O97 Co84 2.218 1_565 S
O97 C87 1.261 1_565 S
O97 Co89 2.161 . S
Co98 O99 2.216 . S
Co98 O100 2.091 . S
Co98 O102 2.004 . S
Co98 O108 2.021 . S
Co98 O110 2.137 . S
Co98 O111 2.244 . S
O99 Co98 2.216 . S
O99 C106 1.247 . S
O100 Co98 2.091 . S
O100 C106 1.261 . S
C101 O110 1.247 . S
C101 O111 1.272 . S
O102 Co98 2.004 . S
O102 C107 1.259 . S
Co103 O104 2.061 . S
Co103 O109 2.052 . S
Co103 O111 2.135 . S
O104 Co103 2.061 . S
O104 C107 1.235 . S
C105 O108 1.238 . S
C105 O109 1.241 . S
C106 O99 1.247 . S
C106 O100 1.261 . S
C107 O102 1.259 . S
C107 O104 1.235 . S
O108 Co98 2.021 . S
O108 C105 1.238 . S
O109 Co103 2.052 . S
O109 C105 1.241 . S
O110 Co98 2.137 . S
O110 C101 1.247 . S
O111 Co98 2.244 . S
O111 C101 1.272 . S
O111 Co103 2.135 . S
Co112 O113 2.216 . S
Co112 O114 2.091 . S
Co112 O116 2.004 . S
Co112 O122 2.021 . S
Co112 O124 2.137 . S
Co112 O125 2.244 . S
O113 Co112 2.216 . S
O113 C120 1.247 . S
O114 Co112 2.091 . S
O114 C120 1.261 . S
C115 O124 1.247 . S
C115 O125 1.272 . S
O116 Co112 2.004 . S
O116 C121 1.259 . S
Co117 O118 2.061 . S
Co117 O123 2.052 . S
Co117 O125 2.135 . S
O118 Co117 2.061 . S
O118 C121 1.235 . S
C119 O122 1.238 . S
C119 O123 1.241 . S
C120 O113 1.247 . S
C120 O114 1.261 . S
C121 O116 1.259 . S
C121 O118 1.235 . S
O122 Co112 2.021 . S
O122 C119 1.238 . S
O123 Co117 2.052 . S
O123 C119 1.241 . S
O124 Co112 2.137 . S
O124 C115 1.247 . S
O125 Co112 2.244 . S
O125 C115 1.272 . S
O125 Co117 2.135 . S
Co126 O127 2.216 . S
Co126 O128 2.091 . S
Co126 O130 2.004 . S
Co126 O136 2.021 . S
Co126 O138 2.137 . S
Co126 O139 2.244 . S
O127 Co126 2.216 . S
O127 C134 1.247 . S
O128 Co126 2.091 . S
O128 C134 1.261 . S
C129 O138 1.247 . S
C129 O139 1.272 . S
O130 Co126 2.004 . S
O130 C135 1.259 . S
Co131 O132 2.061 . S
Co131 O137 2.052 . S
Co131 O139 2.135 . S
O132 Co131 2.061 . S
O132 C135 1.235 . S
C133 O136 1.238 . S
C133 O137 1.241 . S
C134 O127 1.247 . S
C134 O128 1.261 . S
C135 O130 1.259 . S
C135 O132 1.235 . S
O136 Co126 2.021 . S
O136 C133 1.238 . S
O137 Co131 2.052 . S
O137 C133 1.241 . S
O138 Co126 2.137 . S
O138 C129 1.247 . S
O139 Co126 2.244 . S
O139 C129 1.272 . S
O139 Co131 2.135 . S
Co140 O141 2.216 . S
Co140 O142 2.091 . S
Co140 O144 2.004 . S
Co140 O150 2.021 . S
Co140 O152 2.137 . S
Co140 O153 2.244 . S
O141 Co140 2.216 . S
O141 C148 1.247 . S
O142 Co140 2.091 . S
O142 C148 1.261 . S
C143 O152 1.247 . S
C143 O153 1.272 . S
O144 Co140 2.004 . S
O144 C149 1.259 . S
Co145 O146 2.061 . S
Co145 O151 2.052 . S
Co145 O153 2.135 . S
O146 Co145 2.061 . S
O146 C149 1.235 . S
C147 O150 1.238 . S
C147 O151 1.241 . S
C148 O141 1.247 . S
C148 O142 1.261 . S
C149 O144 1.259 . S
C149 O146 1.235 . S
O150 Co140 2.021 . S
O150 C147 1.238 . S
O151 Co145 2.052 . S
O151 C147 1.241 . S
O152 Co140 2.137 . S
O152 C143 1.247 . S
O153 Co140 2.244 . S
O153 C143 1.272 . S
O153 Co145 2.135 . S
Co154 O155 2.216 . S
Co154 O156 2.091 . S
Co154 O158 2.004 . S
Co154 O164 2.021 . S
Co154 O166 2.137 . S
Co154 O167 2.244 . S
O155 Co154 2.216 . S
O155 C162 1.247 . S
O156 Co154 2.091 . S
O156 C162 1.261 . S
C157 O166 1.247 . S
C157 O167 1.272 . S
O158 Co154 2.004 . S
O158 C163 1.259 . S
Co159 O160 2.061 . S
Co159 O165 2.052 . S
Co159 O167 2.135 . S
O160 Co159 2.061 . S
O160 C163 1.235 . S
C161 O164 1.238 . S
C161 O165 1.241 . S
C162 O155 1.247 . S
C162 O156 1.261 . S
C163 O158 1.259 . S
C163 O160 1.235 . S
O164 Co154 2.021 . S
O164 C161 1.238 . S
O165 Co159 2.052 . S
O165 C161 1.241 . S
O166 Co154 2.137 . S
O166 C157 1.247 . S
O167 Co154 2.244 . S
O167 C157 1.272 . S
O167 Co159 2.135 . S
Co168 O169 2.216 . S
Co168 O170 2.091 . S
Co168 O172 2.004 . S
Co168 O178 2.021 . S
Co168 O180 2.137 . S
Co168 O181 2.244 . S
O169 Co168 2.216 . S
O169 C176 1.247 . S
O170 Co168 2.091 . S
O170 C176 1.261 . S
C171 O180 1.247 . S
C171 O181 1.272 . S
O172 Co168 2.004 . S
O172 C177 1.259 . S
Co173 O174 2.061 . S
Co173 O179 2.052 . S
Co173 O181 2.135 . S
O174 Co173 2.061 . S
O174 C177 1.235 . S
C175 O178 1.238 . S
C175 O179 1.241 . S
C176 O169 1.247 . S
C176 O170 1.261 . S
C177 O172 1.259 . S
C177 O174 1.235 . S
O178 Co168 2.021 . S
O178 C175 1.238 . S
O179 Co173 2.052 . S
O179 C175 1.241 . S
O180 Co168 2.137 . S
O180 C171 1.247 . S
O181 Co168 2.244 . S
O181 C171 1.272 . S
O181 Co173 2.135 . S
Co182 O183 2.216 1_455 S
Co182 O184 2.091 . S
Co182 O186 2.004 . S
Co182 O192 2.021 . S
Co182 O194 2.137 1_455 S
Co182 O195 2.244 1_455 S
O183 Co182 2.216 1_655 S
O183 C190 1.247 . S
O184 Co182 2.091 . S
O184 C190 1.261 1_455 S
C185 O194 1.247 . S
C185 O195 1.272 . S
O186 Co182 2.004 . S
O186 C191 1.259 . S
Co187 O188 2.061 1_655 S
Co187 O193 2.052 . S
Co187 O195 2.135 . S
O188 Co187 2.061 1_455 S
O188 C191 1.235 . S
C189 O192 1.238 . S
C189 O193 1.241 1_455 S
C190 O183 1.247 . S
C190 O184 1.261 1_655 S
C191 O186 1.259 . S
C191 O188 1.235 . S
O192 Co182 2.021 . S
O192 C189 1.238 . S
O193 Co187 2.052 . S
O193 C189 1.241 1_655 S
O194 Co182 2.137 1_655 S
O194 C185 1.247 . S
O195 Co182 2.244 1_655 S
O195 C185 1.272 . S
O195 Co187 2.135 . S
Co196 O197 2.216 . S
Co196 O198 2.091 . S
Co196 O200 2.004 . S
Co196 O206 2.021 . S
Co196 O208 2.137 . S
Co196 O209 2.244 . S
O197 Co196 2.216 . S
O197 C204 1.247 . S
O198 Co196 2.091 . S
O198 C204 1.261 . S
C199 O208 1.247 . S
C199 O209 1.272 . S
O200 Co196 2.004 . S
O200 C205 1.259 . S
Co201 O202 2.061 . S
Co201 O207 2.052 . S
Co201 O209 2.135 . S
O202 Co201 2.061 . S
O202 C205 1.235 . S
C203 O206 1.238 . S
C203 O207 1.241 . S
C204 O197 1.247 . S
C204 O198 1.261 . S
C205 O200 1.259 . S
C205 O202 1.235 . S
O206 Co196 2.021 . S
O206 C203 1.238 . S
O207 Co201 2.052 . S
O207 C203 1.241 . S
O208 Co196 2.137 . S
O208 C199 1.247 . S
O209 Co196 2.244 . S
O209 C199 1.272 . S
O209 Co201 2.135 . S
Co210 O211 2.216 1_455 S
Co210 O212 2.091 . S
Co210 O214 2.004 . S
Co210 O220 2.021 . S
Co210 O222 2.137 1_455 S
Co210 O223 2.244 1_455 S
O211 Co210 2.216 1_655 S
O211 C218 1.247 . S
O212 Co210 2.091 . S
O212 C218 1.261 1_455 S
C213 O222 1.247 . S
C213 O223 1.272 . S
O214 Co210 2.004 . S
O214 C219 1.259 . S
Co215 O216 2.061 1_655 S
Co215 O221 2.052 . S
Co215 O223 2.135 . S
O216 Co215 2.061 1_455 S
O216 C219 1.235 . S
C217 O220 1.238 . S
C217 O221 1.241 1_455 S
C218 O211 1.247 . S
C218 O212 1.261 1_655 S
C219 O214 1.259 . S
C219 O216 1.235 . S
O220 Co210 2.021 . S
O220 C217 1.238 . S
O221 Co215 2.052 . S
O221 C217 1.241 1_655 S
O222 Co210 2.137 1_655 S
O222 C213 1.247 . S
O223 Co210 2.244 1_655 S
O223 C213 1.272 . S
O223 Co215 2.135 . S
H224 C242 0.951 . S
H225 C244 0.951 . S
H226 C246 0.950 . S
H227 C247 0.950 . S
H228 C249 0.950 . S
H229 C252 0.950 . S
H230 C253 0.950 1_455 S
H231 C255 0.950 . S
H232 C256 0.950 . S
H233 C257 0.951 . S
H234 C259 0.951 . S
H235 C261 0.950 . S
H236 C262 0.950 . S
H237 C264 0.950 . S
H238 C267 0.950 1_655 S
H239 C268 0.950 . S
H240 C270 0.950 . S
H241 C271 0.950 . S
C242 H224 0.951 . S
C242 C243 1.366 1_655 S
C242 C244 1.388 . S
C243 C242 1.366 1_455 S
C243 C247 1.385 . S
C244 H225 0.951 . S
C244 C242 1.388 . S
C244 C245 1.366 1_655 S
C245 C244 1.366 1_455 S
C245 C246 1.414 . S
C245 C248 1.499 . S
C246 H226 0.950 . S
C246 C245 1.414 . S
C246 C247 1.374 . S
C247 H227 0.950 . S
C247 C243 1.385 . S
C247 C246 1.374 . S
C248 C245 1.499 . S
C248 C249 1.373 . S
C248 C250 1.389 1_455 S
C249 H228 0.950 . S
C249 C248 1.373 . S
C249 C265 1.377 . S
C250 C248 1.389 1_655 S
C250 C251 1.524 . S
C250 C264 1.377 . S
C251 C250 1.524 . S
C251 C252 1.397 1_655 S
C251 C256 1.363 . S
C252 H229 0.950 . S
C252 C251 1.397 1_455 S
C252 C253 1.334 1_455 S
C253 H230 0.950 1_655 S
C253 C252 1.334 1_655 S
C253 C254 1.287 . S
C254 C253 1.287 . S
C254 C255 1.524 . S
C254 H273 0.913 . S
C255 H231 0.950 . S
C255 C254 1.524 . S
C255 C256 1.415 . S
C256 H232 0.950 . S
C256 C251 1.363 . S
C256 C255 1.415 . S
C257 H233 0.951 . S
C257 C258 1.366 1_455 S
C257 C259 1.388 . S
C258 C257 1.366 1_655 S
C258 C262 1.385 . S
C259 H234 0.951 . S
C259 C257 1.388 . S
C259 C260 1.366 . S
C260 C259 1.366 . S
C260 C261 1.414 1_455 S
C260 C263 1.499 . S
C261 H235 0.950 . S
C261 C260 1.414 1_655 S
C261 C262 1.374 . S
C262 H236 0.950 . S
C262 C258 1.385 . S
C262 C261 1.374 . S
C263 C260 1.499 . S
C263 C264 1.373 1_455 S
C263 C265 1.389 . S
C264 H237 0.950 . S
C264 C250 1.377 . S
C264 C263 1.373 1_655 S
C265 C249 1.377 . S
C265 C263 1.389 . S
C265 C266 1.524 . S
C266 C265 1.524 . S
C266 C267 1.397 . S
C266 C271 1.363 . S
C267 H238 0.950 1_455 S
C267 C266 1.397 . S
C267 C268 1.334 . S
C268 H239 0.950 . S
C268 C267 1.334 . S
C268 C269 1.287 . S
C269 C268 1.287 . S
C269 C270 1.524 . S
C269 H272 0.999 . S
C270 H240 0.950 . S
C270 C269 1.524 . S
C270 C271 1.415 . S
C271 H241 0.950 . S
C271 C266 1.363 . S
C271 C270 1.415 . S
H272 C269 0.999 . S
H273 C254 0.913 . S
H274 C292 0.951 . S
H275 C294 0.951 . S
H276 C296 0.950 . S
H277 C297 0.950 . S
H278 C299 0.950 . S
H279 C302 0.950 . S
H280 C303 0.950 . S
H281 C305 0.950 . S
H282 C306 0.950 1_455 S
H283 C307 0.951 . S
H284 C309 0.951 . S
H285 C311 0.950 . S
H286 C312 0.950 . S
H287 C314 0.950 . S
H288 C317 0.950 . S
H289 C318 0.950 . S
H290 C320 0.950 . S
H291 C321 0.950 . S
C292 H274 0.951 . S
C292 C293 1.366 . S
C292 C294 1.388 . S
C293 C292 1.366 . S
C293 C297 1.385 . S
C294 H275 0.951 . S
C294 C292 1.388 . S
C294 C295 1.366 . S
C295 C294 1.366 . S
C295 C296 1.414 . S
C295 C298 1.499 . S
C296 H276 0.950 . S
C296 C295 1.414 . S
C296 C297 1.374 . S
C297 H277 0.950 . S
C297 C293 1.385 . S
C297 C296 1.374 . S
C298 C295 1.499 . S
C298 C299 1.373 . S
C298 C300 1.389 . S
C299 H278 0.950 . S
C299 C298 1.373 . S
C299 C315 1.377 1_655 S
C300 C298 1.389 . S
C300 C301 1.524 . S
C300 C314 1.377 1_655 S
C301 C300 1.524 . S
C301 C302 1.397 . S
C301 C306 1.363 . S
C302 H279 0.950 . S
C302 C301 1.397 . S
C302 C303 1.334 . S
C303 H280 0.950 . S
C303 C302 1.334 . S
C303 C304 1.287 . S
C304 C303 1.287 . S
C304 C305 1.524 . S
C304 H323 0.913 . S
C305 H281 0.950 . S
C305 C304 1.524 . S
C305 C306 1.415 . S
C306 H282 0.950 1_655 S
C306 C301 1.363 . S
C306 C305 1.415 . S
C307 H283 0.951 . S
C307 C308 1.366 . S
C307 C309 1.388 . S
C308 C307 1.366 . S
C308 C312 1.385 . S
C309 H284 0.951 . S
C309 C307 1.388 . S
C309 C310 1.366 . S
C310 C309 1.366 . S
C310 C311 1.414 . S
C310 C313 1.499 . S
C311 H285 0.950 . S
C311 C310 1.414 . S
C311 C312 1.374 . S
C312 H286 0.950 . S
C312 C308 1.385 . S
C312 C311 1.374 . S
C313 C310 1.499 . S
C313 C314 1.373 . S
C313 C315 1.389 . S
C314 H287 0.950 . S
C314 C300 1.377 1_455 S
C314 C313 1.373 . S
C315 C299 1.377 1_455 S
C315 C313 1.389 . S
C315 C316 1.524 . S
C316 C315 1.524 . S
C316 C317 1.397 . S
C316 C321 1.363 . S
C317 H288 0.950 . S
C317 C316 1.397 . S
C317 C318 1.334 . S
C318 H289 0.950 . S
C318 C317 1.334 . S
C318 C319 1.287 . S
C319 C318 1.287 . S
C319 C320 1.524 . S
C319 H322 0.999 . S
C320 H290 0.950 . S
C320 C319 1.524 . S
C320 C321 1.415 . S
C321 H291 0.950 . S
C321 C316 1.363 . S
C321 C320 1.415 . S
H322 C319 0.999 . S
H323 C304 0.913 . S
H324 C342 0.951 . S
H325 C344 0.951 . S
H326 C346 0.950 . S
H327 C347 0.950 . S
H328 C349 0.950 . S
H329 C352 0.950 . S
H330 C353 0.950 . S
H331 C355 0.950 . S
H332 C356 0.950 . S
H333 C357 0.951 . S
H334 C359 0.951 . S
H335 C361 0.950 . S
H336 C362 0.950 . S
H337 C364 0.950 . S
H338 C367 0.950 . S
H339 C368 0.950 . S
H340 C370 0.950 . S
H341 C371 0.950 . S
C342 H324 0.951 . S
C342 C343 1.366 . S
C342 C344 1.388 . S
C343 C342 1.366 . S
C343 C347 1.385 . S
C344 H325 0.951 . S
C344 C342 1.388 . S
C344 C345 1.366 . S
C345 C344 1.366 . S
C345 C346 1.414 . S
C345 C348 1.499 . S
C346 H326 0.950 . S
C346 C345 1.414 . S
C346 C347 1.374 . S
C347 H327 0.950 . S
C347 C343 1.385 . S
C347 C346 1.374 . S
C348 C345 1.499 . S
C348 C349 1.373 . S
C348 C350 1.389 . S
C349 H328 0.950 . S
C349 C348 1.373 . S
C349 C365 1.377 . S
C350 C348 1.389 . S
C350 C351 1.524 . S
C350 C364 1.377 . S
C351 C350 1.524 . S
C351 C352 1.397 . S
C351 C356 1.363 . S
C352 H329 0.950 . S
C352 C351 1.397 . S
C352 C353 1.334 . S
C353 H330 0.950 . S
C353 C352 1.334 . S
C353 C354 1.287 . S
C354 C353 1.287 . S
C354 C355 1.524 . S
C354 H373 0.913 . S
C355 H331 0.950 . S
C355 C354 1.524 . S
C355 C356 1.415 . S
C356 H332 0.950 . S
C356 C351 1.363 . S
C356 C355 1.415 . S
C357 H333 0.951 . S
C357 C358 1.366 . S
C357 C359 1.388 . S
C358 C357 1.366 . S
C358 C362 1.385 . S
C359 H334 0.951 . S
C359 C357 1.388 . S
C359 C360 1.366 . S
C360 C359 1.366 . S
C360 C361 1.414 . S
C360 C363 1.499 . S
C361 H335 0.950 . S
C361 C360 1.414 . S
C361 C362 1.374 . S
C362 H336 0.950 . S
C362 C358 1.385 . S
C362 C361 1.374 . S
C363 C360 1.499 . S
C363 C364 1.373 . S
C363 C365 1.389 . S
C364 H337 0.950 . S
C364 C350 1.377 . S
C364 C363 1.373 . S
C365 C349 1.377 . S
C365 C363 1.389 . S
C365 C366 1.524 . S
C366 C365 1.524 . S
C366 C367 1.397 . S
C366 C371 1.363 . S
C367 H338 0.950 . S
C367 C366 1.397 . S
C367 C368 1.334 . S
C368 H339 0.950 . S
C368 C367 1.334 . S
C368 C369 1.287 . S
C369 C368 1.287 . S
C369 C370 1.524 . S
C369 H372 0.999 . S
C370 H340 0.950 . S
C370 C369 1.524 . S
C370 C371 1.415 . S
C371 H341 0.950 . S
C371 C366 1.363 . S
C371 C370 1.415 . S
H372 C369 0.999 . S
H373 C354 0.913 . S
H374 C392 0.951 . S
H375 C394 0.951 . S
H376 C396 0.950 . S
H377 C397 0.950 . S
H378 C399 0.950 . S
H379 C402 0.950 . S
H380 C403 0.950 . S
H381 C405 0.950 . S
H382 C406 0.950 . S
H383 C407 0.951 . S
H384 C409 0.951 . S
H385 C411 0.950 . S
H386 C412 0.950 . S
H387 C414 0.950 . S
H388 C417 0.950 . S
H389 C418 0.950 . S
H390 C420 0.950 . S
H391 C421 0.950 . S
C392 H374 0.951 . S
C392 C393 1.366 . S
C392 C394 1.388 . S
C393 C392 1.366 . S
C393 C397 1.385 . S
C394 H375 0.951 . S
C394 C392 1.388 . S
C394 C395 1.366 . S
C395 C394 1.366 . S
C395 C396 1.414 . S
C395 C398 1.499 . S
C396 H376 0.950 . S
C396 C395 1.414 . S
C396 C397 1.374 . S
C397 H377 0.950 . S
C397 C393 1.385 . S
C397 C396 1.374 . S
C398 C395 1.499 . S
C398 C399 1.373 . S
C398 C400 1.389 . S
C399 H378 0.950 . S
C399 C398 1.373 . S
C399 C415 1.377 . S
C400 C398 1.389 . S
C400 C401 1.524 . S
C400 C414 1.377 . S
C401 C400 1.524 . S
C401 C402 1.397 . S
C401 C406 1.363 . S
C402 H379 0.950 . S
C402 C401 1.397 . S
C402 C403 1.334 . S
C403 H380 0.950 . S
C403 C402 1.334 . S
C403 C404 1.287 . S
C404 C403 1.287 . S
C404 C405 1.524 . S
C404 H423 0.913 . S
C405 H381 0.950 . S
C405 C404 1.524 . S
C405 C406 1.415 . S
C406 H382 0.950 . S
C406 C401 1.363 . S
C406 C405 1.415 . S
C407 H383 0.951 . S
C407 C408 1.366 . S
C407 C409 1.388 . S
C408 C407 1.366 . S
C408 C412 1.385 . S
C409 H384 0.951 . S
C409 C407 1.388 . S
C409 C410 1.366 . S
C410 C409 1.366 . S
C410 C411 1.414 . S
C410 C413 1.499 . S
C411 H385 0.950 . S
C411 C410 1.414 . S
C411 C412 1.374 . S
C412 H386 0.950 . S
C412 C408 1.385 . S
C412 C411 1.374 . S
C413 C410 1.499 . S
C413 C414 1.373 . S
C413 C415 1.389 . S
C414 H387 0.950 . S
C414 C400 1.377 . S
C414 C413 1.373 . S
C415 C399 1.377 . S
C415 C413 1.389 . S
C415 C416 1.524 . S
C416 C415 1.524 . S
C416 C417 1.397 . S
C416 C421 1.363 . S
C417 H388 0.950 . S
C417 C416 1.397 . S
C417 C418 1.334 . S
C418 H389 0.950 . S
C418 C417 1.334 . S
C418 C419 1.287 . S
C419 C418 1.287 . S
C419 C420 1.524 . S
C419 H422 0.999 . S
C420 H390 0.950 . S
C420 C419 1.524 . S
C420 C421 1.415 . S
C421 H391 0.950 . S
C421 C416 1.363 . S
C421 C420 1.415 . S
H422 C419 0.999 . S
H423 C404 0.913 . S
H424 C442 0.951 . S
H425 C444 0.951 . S
H426 C446 0.950 . S
H427 C447 0.950 . S
H428 C449 0.946 1_655 S
H429 C452 0.950 1_655 S
H430 C453 0.950 1_655 S
H431 C455 0.950 . S
H432 C456 0.950 . S
H433 C457 0.951 . S
H434 C459 0.951 . S
H435 C461 0.950 . S
H436 C462 0.950 . S
H437 C464 0.950 . S
H438 C467 0.950 . S
H439 C468 0.950 . S
H440 C470 0.950 . S
H441 C471 0.950 . S
C442 H424 0.951 . S
C442 C443 1.366 . S
C442 C444 1.388 . S
C443 C442 1.366 . S
C443 C447 1.385 1_455 S
C444 H425 0.951 . S
C444 C442 1.388 . S
C444 C445 1.366 . S
C445 C444 1.366 . S
C445 C446 1.414 1_455 S
C445 C448 1.499 . S
C446 H426 0.950 . S
C446 C445 1.414 1_655 S
C446 C447 1.374 . S
C447 H427 0.950 . S
C447 C443 1.385 1_655 S
C447 C446 1.374 . S
C448 C445 1.499 . S
C448 C449 1.379 . S
C448 C450 1.389 . S
C449 H428 0.946 1_455 S
C449 C448 1.379 . S
C449 C465 1.375 1_455 S
C450 C448 1.389 . S
C450 C451 1.524 . S
C450 C464 1.377 . S
C451 C450 1.524 . S
C451 C452 1.397 . S
C451 C456 1.363 . S
C452 H429 0.950 1_455 S
C452 C451 1.397 . S
C452 C453 1.334 . S
C453 H430 0.950 1_455 S
C453 C452 1.334 . S
C453 C454 1.287 . S
C454 C453 1.287 . S
C454 C455 1.524 . S
C454 H473 0.913 . S
C455 H431 0.950 . S
C455 C454 1.524 . S
C455 C456 1.415 . S
C456 H432 0.950 . S
C456 C451 1.363 . S
C456 C455 1.415 . S
C457 H433 0.951 . S
C457 C458 1.366 . S
C457 C459 1.388 . S
C458 C457 1.366 . S
C458 C462 1.385 1_655 S
C459 H434 0.951 . S
C459 C457 1.388 . S
C459 C460 1.366 1_655 S
C460 C459 1.366 1_455 S
C460 C461 1.414 . S
C460 C463 1.499 . S
C461 H435 0.950 . S
C461 C460 1.414 . S
C461 C462 1.374 . S
C462 H436 0.950 . S
C462 C458 1.385 1_455 S
C462 C461 1.374 . S
C463 C460 1.499 . S
C463 C464 1.373 . S
C463 C465 1.381 1_455 S
C464 H437 0.950 . S
C464 C450 1.377 . S
C464 C463 1.373 . S
C465 C449 1.375 1_655 S
C465 C463 1.381 1_655 S
C465 C466 1.534 . S
C466 C465 1.534 . S
C466 C467 1.397 1_655 S
C466 C471 1.363 . S
C467 H438 0.950 . S
C467 C466 1.397 1_455 S
C467 C468 1.334 . S
C468 H439 0.950 . S
C468 C467 1.334 . S
C468 C469 1.287 1_455 S
C469 C468 1.287 1_655 S
C469 C470 1.524 . S
C469 H472 0.999 . S
C470 H440 0.950 . S
C470 C469 1.524 . S
C470 C471 1.415 . S
C471 H441 0.950 . S
C471 C466 1.363 . S
C471 C470 1.415 . S
H472 C469 0.999 . S
H473 C454 0.913 . S
H474 C492 0.951 . S
H475 C494 0.951 . S
H476 C496 0.950 . S
H477 C497 0.950 . S
H478 C499 0.950 . S
H479 C502 0.950 . S
H480 C503 0.950 . S
H481 C505 0.950 . S
H482 C506 0.950 . S
H483 C507 0.951 . S
H484 C509 0.951 . S
H485 C511 0.950 . S
H486 C512 0.950 . S
H487 C514 0.950 . S
H488 C517 0.950 . S
H489 C518 0.950 . S
H490 C520 0.950 . S
H491 C521 0.950 . S
C492 H474 0.951 . S
C492 C493 1.366 . S
C492 C494 1.388 . S
C493 C492 1.366 . S
C493 C497 1.385 . S
C494 H475 0.951 . S
C494 C492 1.388 . S
C494 C495 1.366 . S
C495 C494 1.366 . S
C495 C496 1.414 . S
C495 C498 1.499 . S
C496 H476 0.950 . S
C496 C495 1.414 . S
C496 C497 1.374 . S
C497 H477 0.950 . S
C497 C493 1.385 . S
C497 C496 1.374 . S
C498 C495 1.499 . S
C498 C499 1.373 . S
C498 C500 1.389 . S
C499 H478 0.950 . S
C499 C498 1.373 . S
C499 C515 1.377 . S
C500 C498 1.389 . S
C500 C501 1.524 . S
C500 C514 1.377 . S
C501 C500 1.524 . S
C501 C502 1.397 . S
C501 C506 1.363 . S
C502 H479 0.950 . S
C502 C501 1.397 . S
C502 C503 1.334 . S
C503 H480 0.950 . S
C503 C502 1.334 . S
C503 C504 1.287 . S
C504 C503 1.287 . S
C504 C505 1.524 . S
C504 H523 0.913 . S
C505 H481 0.950 . S
C505 C504 1.524 . S
C505 C506 1.415 . S
C506 H482 0.950 . S
C506 C501 1.363 . S
C506 C505 1.415 . S
C507 H483 0.951 . S
C507 C508 1.366 . S
C507 C509 1.388 . S
C508 C507 1.366 . S
C508 C512 1.385 . S
C509 H484 0.951 . S
C509 C507 1.388 . S
C509 C510 1.366 . S
C510 C509 1.366 . S
C510 C511 1.414 . S
C510 C513 1.499 . S
C511 H485 0.950 . S
C511 C510 1.414 . S
C511 C512 1.374 . S
C512 H486 0.950 . S
C512 C508 1.385 . S
C512 C511 1.374 . S
C513 C510 1.499 . S
C513 C514 1.373 . S
C513 C515 1.389 . S
C514 H487 0.950 . S
C514 C500 1.377 . S
C514 C513 1.373 . S
C515 C499 1.377 . S
C515 C513 1.389 . S
C515 C516 1.524 . S
C516 C515 1.524 . S
C516 C517 1.397 . S
C516 C521 1.363 . S
C517 H488 0.950 . S
C517 C516 1.397 . S
C517 C518 1.334 . S
C518 H489 0.950 . S
C518 C517 1.334 . S
C518 C519 1.287 . S
C519 C518 1.287 . S
C519 C520 1.524 . S
C519 H522 0.999 . S
C520 H490 0.950 . S
C520 C519 1.524 . S
C520 C521 1.415 . S
C521 H491 0.950 . S
C521 C516 1.363 . S
C521 C520 1.415 . S
H522 C519 0.999 . S
H523 C504 0.913 . S
H524 C542 0.951 . S
H525 C544 0.951 . S
H526 C546 0.950 . S
H527 C547 0.950 . S
H528 C549 0.950 . S
H529 C552 0.950 . S
H530 C553 0.950 . S
H531 C555 0.950 . S
H532 C556 0.950 . S
H533 C557 0.951 . S
H534 C559 0.951 . S
H535 C561 0.950 . S
H536 C562 0.950 . S
H537 C564 0.950 . S
H538 C567 0.950 . S
H539 C568 0.950 . S
H540 C570 0.950 . S
H541 C571 0.950 . S
C542 H524 0.951 . S
C542 C543 1.366 . S
C542 C544 1.388 . S
C543 C542 1.366 . S
C543 C547 1.385 . S
C544 H525 0.951 . S
C544 C542 1.388 . S
C544 C545 1.366 . S
C545 C544 1.366 . S
C545 C546 1.414 . S
C545 C548 1.499 . S
C546 H526 0.950 . S
C546 C545 1.414 . S
C546 C547 1.374 . S
C547 H527 0.950 . S
C547 C543 1.385 . S
C547 C546 1.374 . S
C548 C545 1.499 . S
C548 C549 1.373 . S
C548 C550 1.389 . S
C549 H528 0.950 . S
C549 C548 1.373 . S
C549 C565 1.377 . S
C550 C548 1.389 . S
C550 C551 1.524 . S
C550 C564 1.377 . S
C551 C550 1.524 . S
C551 C552 1.397 . S
C551 C556 1.363 . S
C552 H529 0.950 . S
C552 C551 1.397 . S
C552 C553 1.334 . S
C553 H530 0.950 . S
C553 C552 1.334 . S
C553 C554 1.287 . S
C554 C553 1.287 . S
C554 C555 1.524 . S
C554 H573 0.913 . S
C555 H531 0.950 . S
C555 C554 1.524 . S
C555 C556 1.415 . S
C556 H532 0.950 . S
C556 C551 1.363 . S
C556 C555 1.415 . S
C557 H533 0.951 . S
C557 C558 1.366 . S
C557 C559 1.388 . S
C558 C557 1.366 . S
C558 C562 1.385 . S
C559 H534 0.951 . S
C559 C557 1.388 . S
C559 C560 1.366 . S
C560 C559 1.366 . S
C560 C561 1.414 . S
C560 C563 1.499 . S
C561 H535 0.950 . S
C561 C560 1.414 . S
C561 C562 1.374 . S
C562 H536 0.950 . S
C562 C558 1.385 . S
C562 C561 1.374 . S
C563 C560 1.499 . S
C563 C564 1.373 . S
C563 C565 1.389 . S
C564 H537 0.950 . S
C564 C550 1.377 . S
C564 C563 1.373 . S
C565 C549 1.377 . S
C565 C563 1.389 . S
C565 C566 1.524 . S
C566 C565 1.524 . S
C566 C567 1.397 . S
C566 C571 1.363 . S
C567 H538 0.950 . S
C567 C566 1.397 . S
C567 C568 1.334 . S
C568 H539 0.950 . S
C568 C567 1.334 . S
C568 C569 1.287 . S
C569 C568 1.287 . S
C569 C570 1.524 . S
C569 H572 0.999 . S
C570 H540 0.950 . S
C570 C569 1.524 . S
C570 C571 1.415 . S
C571 H541 0.950 . S
C571 C566 1.363 . S
C571 C570 1.415 . S
H572 C569 0.999 . S
H573 C554 0.913 . S
H574 C592 0.951 . S
H575 C594 0.951 . S
H576 C596 0.950 . S
H577 C597 0.950 . S
H578 C599 0.950 . S
H579 C602 0.950 . S
H580 C603 0.950 . S
H581 C605 0.950 . S
H582 C606 0.950 . S
H583 C607 0.951 . S
H584 C609 0.951 . S
H585 C611 0.950 . S
H586 C612 0.950 . S
H587 C614 0.950 . S
H588 C617 0.950 . S
H589 C618 0.950 . S
H590 C620 0.950 . S
H591 C621 0.950 1_455 S
C592 H574 0.951 . S
C592 C593 1.366 . S
C592 C594 1.388 . S
C593 C592 1.366 . S
C593 C597 1.385 . S
C594 H575 0.951 . S
C594 C592 1.388 . S
C594 C595 1.366 . S
C595 C594 1.366 . S
C595 C596 1.414 . S
C595 C598 1.499 . S
C596 H576 0.950 . S
C596 C595 1.414 . S
C596 C597 1.374 . S
C597 H577 0.950 . S
C597 C593 1.385 . S
C597 C596 1.374 . S
C598 C595 1.499 . S
C598 C599 1.373 . S
C598 C600 1.389 . S
C599 H578 0.950 . S
C599 C598 1.373 . S
C599 C615 1.377 1_455 S
C600 C598 1.389 . S
C600 C601 1.524 . S
C600 C614 1.377 1_455 S
C601 C600 1.524 . S
C601 C602 1.397 . S
C601 C606 1.363 . S
C602 H579 0.950 . S
C602 C601 1.397 . S
C602 C603 1.334 . S
C603 H580 0.950 . S
C603 C602 1.334 . S
C603 C604 1.287 . S
C604 C603 1.287 . S
C604 C605 1.524 . S
C604 H623 0.913 . S
C605 H581 0.950 . S
C605 C604 1.524 . S
C605 C606 1.415 . S
C606 H582 0.950 . S
C606 C601 1.363 . S
C606 C605 1.415 . S
C607 H583 0.951 . S
C607 C608 1.366 . S
C607 C609 1.388 . S
C608 C607 1.366 . S
C608 C612 1.385 . S
C609 H584 0.951 . S
C609 C607 1.388 . S
C609 C610 1.366 . S
C610 C609 1.366 . S
C610 C611 1.414 . S
C610 C613 1.499 . S
C611 H585 0.950 . S
C611 C610 1.414 . S
C611 C612 1.374 . S
C612 H586 0.950 . S
C612 C608 1.385 . S
C612 C611 1.374 . S
C613 C610 1.499 . S
C613 C614 1.373 . S
C613 C615 1.389 . S
C614 H587 0.950 . S
C614 C600 1.377 1_655 S
C614 C613 1.373 . S
C615 C599 1.377 1_655 S
C615 C613 1.389 . S
C615 C616 1.524 . S
C616 C615 1.524 . S
C616 C617 1.397 . S
C616 C621 1.363 . S
C617 H588 0.950 . S
C617 C616 1.397 . S
C617 C618 1.334 . S
C618 H589 0.950 . S
C618 C617 1.334 . S
C618 C619 1.287 . S
C619 C618 1.287 . S
C619 C620 1.524 . S
C619 H622 0.999 . S
C620 H590 0.950 . S
C620 C619 1.524 . S
C620 C621 1.415 . S
C621 H591 0.950 1_655 S
C621 C616 1.363 . S
C621 C620 1.415 . S
H622 C619 0.999 . S
H623 C604 0.913 . S
H624 C642 0.951 . S
H625 C644 0.951 . S
H626 C646 0.950 . S
H627 C647 0.950 . S
H628 C649 0.950 . S
H629 C652 0.950 1_655 S
H630 C653 0.950 . S
H631 C655 0.950 . S
H632 C656 0.950 . S
H633 C657 0.951 . S
H634 C659 0.951 . S
H635 C661 0.950 . S
H636 C662 0.950 . S
H637 C664 0.950 . S
H638 C667 0.950 1_455 S
H639 C668 0.950 . S
H640 C670 0.950 . S
H641 C671 0.950 . S
C642 H624 0.951 . S
C642 C643 1.373 . S
C642 C644 1.388 . S
C643 C642 1.373 . S
C643 C647 1.378 1_455 S
C644 H625 0.951 . S
C644 C642 1.388 . S
C644 C645 1.370 . S
C645 C644 1.370 . S
C645 C646 1.410 1_455 S
C645 C648 1.498 1_455 S
C646 H626 0.950 . S
C646 C645 1.410 1_655 S
C646 C647 1.374 . S
C647 H627 0.950 . S
C647 C643 1.378 1_655 S
C647 C646 1.374 . S
C648 C645 1.498 1_655 S
C648 C649 1.389 1_565 S
C648 C650 1.374 1_655 S
C649 H628 0.950 . S
C649 C648 1.389 1_545 S
C649 C665 1.377 . S
C650 C648 1.374 1_455 S
C650 C651 1.524 . S
C650 C664 1.377 . S
C651 C650 1.524 . S
C651 C652 1.397 . S
C651 C656 1.363 . S
C652 H629 0.950 1_455 S
C652 C651 1.397 . S
C652 C653 1.334 . S
C653 H630 0.950 . S
C653 C652 1.334 . S
C653 C654 1.287 . S
C654 C653 1.287 . S
C654 C655 1.524 . S
C654 H673 0.913 . S
C655 H631 0.950 . S
C655 C654 1.524 . S
C655 C656 1.415 . S
C656 H632 0.950 . S
C656 C651 1.363 . S
C656 C655 1.415 . S
C657 H633 0.951 . S
C657 C658 1.358 1_655 S
C657 C659 1.388 . S
C658 C657 1.358 1_455 S
C658 C662 1.393 . S
C659 H634 0.951 . S
C659 C657 1.388 . S
C659 C660 1.355 1_655 S
C660 C659 1.355 1_455 S
C660 C661 1.425 . S
C660 C663 1.499 . S
C661 H635 0.950 . S
C661 C660 1.425 . S
C661 C662 1.374 . S
C662 H636 0.950 . S
C662 C658 1.393 . S
C662 C661 1.374 . S
C663 C660 1.499 . S
C663 C664 1.373 1_545 S
C663 C665 1.389 1_455 S
C664 H637 0.950 . S
C664 C650 1.377 . S
C664 C663 1.373 1_565 S
C665 C649 1.377 . S
C665 C663 1.389 1_655 S
C665 C666 1.524 . S
C666 C665 1.524 . S
C666 C667 1.397 . S
C666 C671 1.363 . S
C667 H638 0.950 1_655 S
C667 C666 1.397 . S
C667 C668 1.334 . S
C668 H639 0.950 . S
C668 C667 1.334 . S
C668 C669 1.287 . S
C669 C668 1.287 . S
C669 C670 1.524 . S
C669 H672 0.999 . S
C670 H640 0.950 . S
C670 C669 1.524 . S
C670 C671 1.415 . S
C671 H641 0.950 . S
C671 C666 1.363 . S
C671 C670 1.415 . S
H672 C669 0.999 . S
H673 C654 0.913 . S
H674 C692 0.951 . S
H675 C694 0.951 . S
H676 C696 0.950 . S
H677 C697 0.950 . S
H678 C699 0.950 . S
H679 C702 0.950 . S
H680 C703 0.950 . S
H681 C705 0.950 . S
H682 C706 0.950 . S
H683 C707 0.951 . S
H684 C709 0.951 . S
H685 C711 0.950 . S
H686 C712 0.950 . S
H687 C714 0.950 . S
H688 C717 0.950 . S
H689 C718 0.950 . S
H690 C720 0.950 . S
H691 C721 0.950 . S
C692 H674 0.951 . S
C692 C693 1.366 . S
C692 C694 1.388 . S
C693 C692 1.366 . S
C693 C697 1.385 . S
C694 H675 0.951 . S
C694 C692 1.388 . S
C694 C695 1.366 . S
C695 C694 1.366 . S
C695 C696 1.414 . S
C695 C698 1.499 . S
C696 H676 0.950 . S
C696 C695 1.414 . S
C696 C697 1.374 . S
C697 H677 0.950 . S
C697 C693 1.385 . S
C697 C696 1.374 . S
C698 C695 1.499 . S
C698 C699 1.373 . S
C698 C700 1.389 . S
C699 H678 0.950 . S
C699 C698 1.373 . S
C699 C715 1.377 . S
C700 C698 1.389 . S
C700 C701 1.524 . S
C700 C714 1.377 . S
C701 C700 1.524 . S
C701 C702 1.397 . S
C701 C706 1.363 . S
C702 H679 0.950 . S
C702 C701 1.397 . S
C702 C703 1.334 . S
C703 H680 0.950 . S
C703 C702 1.334 . S
C703 C704 1.287 . S
C704 C703 1.287 . S
C704 C705 1.524 . S
C704 H723 0.913 . S
C705 H681 0.950 . S
C705 C704 1.524 . S
C705 C706 1.415 . S
C706 H682 0.950 . S
C706 C701 1.363 . S
C706 C705 1.415 . S
C707 H683 0.951 . S
C707 C708 1.366 . S
C707 C709 1.388 . S
C708 C707 1.366 . S
C708 C712 1.385 . S
C709 H684 0.951 . S
C709 C707 1.388 . S
C709 C710 1.366 . S
C710 C709 1.366 . S
C710 C711 1.414 . S
C710 C713 1.499 . S
C711 H685 0.950 . S
C711 C710 1.414 . S
C711 C712 1.374 . S
C712 H686 0.950 . S
C712 C708 1.385 . S
C712 C711 1.374 . S
C713 C710 1.499 . S
C713 C714 1.373 . S
C713 C715 1.389 . S
C714 H687 0.950 . S
C714 C700 1.377 . S
C714 C713 1.373 . S
C715 C699 1.377 . S
C715 C713 1.389 . S
C715 C716 1.524 . S
C716 C715 1.524 . S
C716 C717 1.397 . S
C716 C721 1.363 . S
C717 H688 0.950 . S
C717 C716 1.397 . S
C717 C718 1.334 . S
C718 H689 0.950 . S
C718 C717 1.334 . S
C718 C719 1.287 . S
C719 C718 1.287 . S
C719 C720 1.524 . S
C719 H722 0.999 . S
C720 H690 0.950 . S
C720 C719 1.524 . S
C720 C721 1.415 . S
C721 H691 0.950 . S
C721 C716 1.363 . S
C721 C720 1.415 . S
H722 C719 0.999 . S
H723 C704 0.913 . S
H724 C742 0.951 . S
H725 C744 0.951 . S
H726 C746 0.950 . S
H727 C747 0.950 . S
H728 C749 0.950 . S
H729 C752 0.950 . S
H730 C753 0.950 . S
H731 C755 0.950 . S
H732 C756 0.950 1_556 S
H733 C757 0.951 . S
H734 C759 0.951 . S
H735 C761 0.950 . S
H736 C762 0.950 . S
H737 C764 0.950 . S
H738 C767 0.950 . S
H739 C768 0.950 . S
H740 C770 0.950 . S
H741 C771 0.950 1_554 S
C742 H724 0.951 . S
C742 C743 1.366 . S
C742 C744 1.388 . S
C743 C742 1.366 . S
C743 C747 1.385 1_565 S
C744 H725 0.951 . S
C744 C742 1.388 . S
C744 C745 1.366 . S
C745 C744 1.366 . S
C745 C746 1.414 1_565 S
C745 C748 1.499 . S
C746 H726 0.950 . S
C746 C745 1.414 1_545 S
C746 C747 1.374 . S
C747 H727 0.950 . S
C747 C743 1.385 1_545 S
C747 C746 1.374 . S
C748 C745 1.499 . S
C748 C749 1.373 1_565 S
C748 C750 1.389 . S
C749 H728 0.950 . S
C749 C748 1.373 1_545 S
C749 C765 1.377 1_554 S
C750 C748 1.389 . S
C750 C751 1.524 . S
C750 C764 1.377 1_554 S
C751 C750 1.524 . S
C751 C752 1.397 . S
C751 C756 1.363 . S
C752 H729 0.950 . S
C752 C751 1.397 . S
C752 C753 1.334 . S
C753 H730 0.950 . S
C753 C752 1.334 . S
C753 C754 1.287 . S
C754 C753 1.287 . S
C754 C755 1.524 . S
C754 H773 0.913 . S
C755 H731 0.950 . S
C755 C754 1.524 . S
C755 C756 1.415 . S
C756 H732 0.950 1_554 S
C756 C751 1.363 . S
C756 C755 1.415 . S
C757 H733 0.951 . S
C757 C758 1.366 . S
C757 C759 1.388 . S
C758 C757 1.366 . S
C758 C762 1.385 1_545 S
C759 H734 0.951 . S
C759 C757 1.388 . S
C759 C760 1.366 . S
C760 C759 1.366 . S
C760 C761 1.414 1_545 S
C760 C763 1.499 . S
C761 H735 0.950 . S
C761 C760 1.414 1_565 S
C761 C762 1.374 . S
C762 H736 0.950 . S
C762 C758 1.385 1_565 S
C762 C761 1.374 . S
C763 C760 1.499 . S
C763 C764 1.373 1_545 S
C763 C765 1.389 . S
C764 H737 0.950 . S
C764 C750 1.377 1_556 S
C764 C763 1.373 1_565 S
C765 C749 1.377 1_556 S
C765 C763 1.389 . S
C765 C766 1.524 . S
C766 C765 1.524 . S
C766 C767 1.397 . S
C766 C771 1.363 . S
C767 H738 0.950 . S
C767 C766 1.397 . S
C767 C768 1.334 . S
C768 H739 0.950 . S
C768 C767 1.334 . S
C768 C769 1.287 . S
C769 C768 1.287 . S
C769 C770 1.524 . S
C769 H772 0.999 . S
C770 H740 0.950 . S
C770 C769 1.524 . S
C770 C771 1.415 . S
C771 H741 0.950 1_556 S
C771 C766 1.363 . S
C771 C770 1.415 . S
H772 C769 0.999 . S
H773 C754 0.913 . S
H774 C792 0.951 . S
H775 C794 0.951 . S
H776 C796 0.950 . S
H777 C797 0.950 . S
H778 C799 0.950 . S
H779 C802 0.950 . S
H780 C803 0.950 . S
H781 C805 0.950 . S
H782 C806 0.950 . S
H783 C807 0.951 . S
H784 C809 0.951 . S
H785 C811 0.950 . S
H786 C812 0.950 . S
H787 C814 0.950 . S
H788 C817 0.950 . S
H789 C818 0.950 . S
H790 C820 0.950 . S
H791 C821 0.950 . S
C792 H774 0.951 . S
C792 C793 1.366 . S
C792 C794 1.388 . S
C793 C792 1.366 . S
C793 C797 1.385 . S
C794 H775 0.951 . S
C794 C792 1.388 . S
C794 C795 1.366 . S
C795 C794 1.366 . S
C795 C796 1.414 . S
C795 C798 1.499 . S
C796 H776 0.950 . S
C796 C795 1.414 . S
C796 C797 1.374 . S
C797 H777 0.950 . S
C797 C793 1.385 . S
C797 C796 1.374 . S
C798 C795 1.499 . S
C798 C799 1.373 . S
C798 C800 1.389 . S
C799 H778 0.950 . S
C799 C798 1.373 . S
C799 C815 1.377 . S
C800 C798 1.389 . S
C800 C801 1.524 . S
C800 C814 1.377 . S
C801 C800 1.524 . S
C801 C802 1.397 . S
C801 C806 1.363 . S
C802 H779 0.950 . S
C802 C801 1.397 . S
C802 C803 1.334 . S
C803 H780 0.950 . S
C803 C802 1.334 . S
C803 C804 1.287 . S
C804 C803 1.287 . S
C804 C805 1.524 . S
C804 H823 0.913 . S
C805 H781 0.950 . S
C805 C804 1.524 . S
C805 C806 1.415 . S
C806 H782 0.950 . S
C806 C801 1.363 . S
C806 C805 1.415 . S
C807 H783 0.951 . S
C807 C808 1.366 . S
C807 C809 1.388 . S
C808 C807 1.366 . S
C808 C812 1.385 . S
C809 H784 0.951 . S
C809 C807 1.388 . S
C809 C810 1.366 . S
C810 C809 1.366 . S
C810 C811 1.414 . S
C810 C813 1.499 . S
C811 H785 0.950 . S
C811 C810 1.414 . S
C811 C812 1.374 . S
C812 H786 0.950 . S
C812 C808 1.385 . S
C812 C811 1.374 . S
C813 C810 1.499 . S
C813 C814 1.373 . S
C813 C815 1.389 . S
C814 H787 0.950 . S
C814 C800 1.377 . S
C814 C813 1.373 . S
C815 C799 1.377 . S
C815 C813 1.389 . S
C815 C816 1.524 . S
C816 C815 1.524 . S
C816 C817 1.397 . S
C816 C821 1.363 . S
C817 H788 0.950 . S
C817 C816 1.397 . S
C817 C818 1.334 . S
C818 H789 0.950 . S
C818 C817 1.334 . S
C818 C819 1.287 . S
C819 C818 1.287 . S
C819 C820 1.524 . S
C819 H822 0.999 . S
C820 H790 0.950 . S
C820 C819 1.524 . S
C820 C821 1.415 . S
C821 H791 0.950 . S
C821 C816 1.363 . S
C821 C820 1.415 . S
H822 C819 0.999 . S
H823 C804 0.913 . S
H824 C842 0.951 . S
H825 C844 0.951 . S
H826 C846 0.950 . S
H827 C847 0.950 . S
H828 C849 0.950 . S
H829 C852 0.950 . S
H830 C853 0.950 . S
H831 C855 0.950 . S
H832 C856 0.950 . S
H833 C857 0.951 . S
H834 C859 0.951 . S
H835 C861 0.950 . S
H836 C862 0.950 . S
H837 C864 0.950 . S
H838 C867 0.950 . S
H839 C868 0.950 . S
H840 C870 0.950 . S
H841 C871 0.950 . S
C842 H824 0.951 . S
C842 C843 1.366 . S
C842 C844 1.388 . S
C843 C842 1.366 . S
C843 C847 1.385 . S
C844 H825 0.951 . S
C844 C842 1.388 . S
C844 C845 1.366 . S
C845 C844 1.366 . S
C845 C846 1.414 . S
C845 C848 1.499 . S
C846 H826 0.950 . S
C846 C845 1.414 . S
C846 C847 1.374 . S
C847 H827 0.950 . S
C847 C843 1.385 . S
C847 C846 1.374 . S
C848 C845 1.499 . S
C848 C849 1.373 . S
C848 C850 1.389 . S
C849 H828 0.950 . S
C849 C848 1.373 . S
C849 C865 1.377 . S
C850 C848 1.389 . S
C850 C851 1.524 . S
C850 C864 1.377 . S
C851 C850 1.524 . S
C851 C852 1.397 . S
C851 C856 1.363 . S
C852 H829 0.950 . S
C852 C851 1.397 . S
C852 C853 1.334 . S
C853 H830 0.950 . S
C853 C852 1.334 . S
C853 C854 1.287 . S
C854 C853 1.287 . S
C854 C855 1.524 . S
C854 H873 0.913 . S
C855 H831 0.950 . S
C855 C854 1.524 . S
C855 C856 1.415 . S
C856 H832 0.950 . S
C856 C851 1.363 . S
C856 C855 1.415 . S
C857 H833 0.951 . S
C857 C858 1.366 . S
C857 C859 1.388 . S
C858 C857 1.366 . S
C858 C862 1.385 . S
C859 H834 0.951 . S
C859 C857 1.388 . S
C859 C860 1.366 . S
C860 C859 1.366 . S
C860 C861 1.414 . S
C860 C863 1.499 . S
C861 H835 0.950 . S
C861 C860 1.414 . S
C861 C862 1.374 . S
C862 H836 0.950 . S
C862 C858 1.385 . S
C862 C861 1.374 . S
C863 C860 1.499 . S
C863 C864 1.373 . S
C863 C865 1.389 . S
C864 H837 0.950 . S
C864 C850 1.377 . S
C864 C863 1.373 . S
C865 C849 1.377 . S
C865 C863 1.389 . S
C865 C866 1.524 . S
C866 C865 1.524 . S
C866 C867 1.397 . S
C866 C871 1.363 . S
C867 H838 0.950 . S
C867 C866 1.397 . S
C867 C868 1.334 . S
C868 H839 0.950 . S
C868 C867 1.334 . S
C868 C869 1.287 . S
C869 C868 1.287 . S
C869 C870 1.524 . S
C869 H872 0.999 . S
C870 H840 0.950 . S
C870 C869 1.524 . S
C870 C871 1.415 . S
C871 H841 0.950 . S
C871 C866 1.363 . S
C871 C870 1.415 . S
H872 C869 0.999 . S
H873 C854 0.913 . S
H874 C892 0.951 . S
H875 C894 0.951 . S
H876 C896 0.950 . S
H877 C897 0.950 . S
H878 C899 0.950 . S
H879 C902 0.950 . S
H880 C903 0.950 . S
H881 C905 0.950 . S
H882 C906 0.950 . S
H883 C907 0.951 . S
H884 C909 0.951 . S
H885 C911 0.950 . S
H886 C912 0.950 . S
H887 C914 0.950 . S
H888 C917 0.950 . S
H889 C918 0.950 . S
H890 C920 0.950 . S
H891 C921 0.950 . S
C892 H874 0.951 . S
C892 C893 1.366 . S
C892 C894 1.388 . S
C893 C892 1.366 . S
C893 C897 1.385 . S
C894 H875 0.951 . S
C894 C892 1.388 . S
C894 C895 1.366 . S
C895 C894 1.366 . S
C895 C896 1.414 . S
C895 C898 1.499 . S
C896 H876 0.950 . S
C896 C895 1.414 . S
C896 C897 1.374 . S
C897 H877 0.950 . S
C897 C893 1.385 . S
C897 C896 1.374 . S
C898 C895 1.499 . S
C898 C899 1.373 . S
C898 C900 1.389 . S
C899 H878 0.950 . S
C899 C898 1.373 . S
C899 C915 1.377 . S
C900 C898 1.389 . S
C900 C901 1.524 . S
C900 C914 1.377 . S
C901 C900 1.524 . S
C901 C902 1.397 . S
C901 C906 1.363 . S
C902 H879 0.950 . S
C902 C901 1.397 . S
C902 C903 1.334 . S
C903 H880 0.950 . S
C903 C902 1.334 . S
C903 C904 1.287 . S
C904 C903 1.287 . S
C904 C905 1.524 . S
C904 H923 0.913 . S
C905 H881 0.950 . S
C905 C904 1.524 . S
C905 C906 1.415 . S
C906 H882 0.950 . S
C906 C901 1.363 . S
C906 C905 1.415 . S
C907 H883 0.951 . S
C907 C908 1.366 . S
C907 C909 1.388 . S
C908 C907 1.366 . S
C908 C912 1.385 . S
C909 H884 0.951 . S
C909 C907 1.388 . S
C909 C910 1.366 . S
C910 C909 1.366 . S
C910 C911 1.414 . S
C910 C913 1.499 . S
C911 H885 0.950 . S
C911 C910 1.414 . S
C911 C912 1.374 . S
C912 H886 0.950 . S
C912 C908 1.385 . S
C912 C911 1.374 . S
C913 C910 1.499 . S
C913 C914 1.373 . S
C913 C915 1.389 . S
C914 H887 0.950 . S
C914 C900 1.377 . S
C914 C913 1.373 . S
C915 C899 1.377 . S
C915 C913 1.389 . S
C915 C916 1.524 . S
C916 C915 1.524 . S
C916 C917 1.397 . S
C916 C921 1.363 . S
C917 H888 0.950 . S
C917 C916 1.397 . S
C917 C918 1.334 . S
C918 H889 0.950 . S
C918 C917 1.334 . S
C918 C919 1.287 . S
C919 C918 1.287 . S
C919 C920 1.524 . S
C919 H922 0.999 . S
C920 H890 0.950 . S
C920 C919 1.524 . S
C920 C921 1.415 . S
C921 H891 0.950 . S
C921 C916 1.363 . S
C921 C920 1.415 . S
H922 C919 0.999 . S
H923 C904 0.913 . S
H924 C942 0.951 . S
H925 C944 0.951 . S
H926 C946 0.950 . S
H927 C947 0.950 . S
H928 C949 0.950 . S
H929 C952 0.950 . S
H930 C953 0.950 . S
H931 C955 0.950 . S
H932 C956 0.950 1_554 S
H933 C957 0.951 . S
H934 C959 0.951 . S
H935 C961 0.950 . S
H936 C962 0.950 . S
H937 C964 0.950 . S
H938 C967 0.950 . S
H939 C968 0.950 . S
H940 C970 0.950 . S
H941 C971 0.950 1_556 S
C942 H924 0.951 . S
C942 C943 1.366 . S
C942 C944 1.388 . S
C943 C942 1.366 . S
C943 C947 1.385 . S
C944 H925 0.951 . S
C944 C942 1.388 . S
C944 C945 1.366 . S
C945 C944 1.366 . S
C945 C946 1.414 . S
C945 C948 1.499 . S
C946 H926 0.950 . S
C946 C945 1.414 . S
C946 C947 1.374 . S
C947 H927 0.950 . S
C947 C943 1.385 . S
C947 C946 1.374 . S
C948 C945 1.499 . S
C948 C949 1.373 . S
C948 C950 1.389 . S
C949 H928 0.950 . S
C949 C948 1.373 . S
C949 C965 1.377 1_556 S
C950 C948 1.389 . S
C950 C951 1.524 . S
C950 C964 1.377 1_556 S
C951 C950 1.524 . S
C951 C952 1.397 . S
C951 C956 1.363 . S
C952 H929 0.950 . S
C952 C951 1.397 . S
C952 C953 1.334 . S
C953 H930 0.950 . S
C953 C952 1.334 . S
C953 C954 1.287 . S
C954 C953 1.287 . S
C954 C955 1.524 . S
C954 H973 0.913 . S
C955 H931 0.950 . S
C955 C954 1.524 . S
C955 C956 1.415 . S
C956 H932 0.950 1_556 S
C956 C951 1.363 . S
C956 C955 1.415 . S
C957 H933 0.951 . S
C957 C958 1.366 . S
C957 C959 1.388 . S
C958 C957 1.366 . S
C958 C962 1.385 . S
C959 H934 0.951 . S
C959 C957 1.388 . S
C959 C960 1.366 . S
C960 C959 1.366 . S
C960 C961 1.414 . S
C960 C963 1.499 . S
C961 H935 0.950 . S
C961 C960 1.414 . S
C961 C962 1.374 . S
C962 H936 0.950 . S
C962 C958 1.385 . S
C962 C961 1.374 . S
C963 C960 1.499 . S
C963 C964 1.373 . S
C963 C965 1.389 . S
C964 H937 0.950 . S
C964 C950 1.377 1_554 S
C964 C963 1.373 . S
C965 C949 1.377 1_554 S
C965 C963 1.389 . S
C965 C966 1.524 . S
C966 C965 1.524 . S
C966 C967 1.397 . S
C966 C971 1.363 . S
C967 H938 0.950 . S
C967 C966 1.397 . S
C967 C968 1.334 . S
C968 H939 0.950 . S
C968 C967 1.334 . S
C968 C969 1.287 . S
C969 C968 1.287 . S
C969 C970 1.524 . S
C969 H972 0.999 . S
C970 H940 0.950 . S
C970 C969 1.524 . S
C970 C971 1.415 . S
C971 H941 0.950 1_554 S
C971 C966 1.363 . S
C971 C970 1.415 . S
H972 C969 0.999 . S
H973 C954 0.913 . S
H974 C992 0.951 . S
H975 C994 0.951 . S
H976 C996 0.950 . S
H977 C997 0.950 . S
H978 C999 0.950 . S
H979 C1002 0.950 . S
H980 C1003 0.950 . S
H981 C1005 0.950 . S
H982 C1006 0.950 1_455 S
H983 C1007 0.951 . S
H984 C1009 0.951 . S
H985 C1011 0.950 . S
H986 C1012 0.950 . S
H987 C1014 0.950 1_655 S
H988 C1017 0.950 . S
H989 C1018 0.950 . S
H990 C1020 0.950 . S
H991 C1021 0.950 . S
C992 H974 0.951 . S
C992 C993 1.366 . S
C992 C994 1.388 . S
C993 C992 1.366 . S
C993 C997 1.385 . S
C994 H975 0.951 . S
C994 C992 1.388 . S
C994 C995 1.366 . S
C995 C994 1.366 . S
C995 C996 1.414 . S
C995 C998 1.499 . S
C996 H976 0.950 . S
C996 C995 1.414 . S
C996 C997 1.374 . S
C997 H977 0.950 . S
C997 C993 1.385 . S
C997 C996 1.374 . S
C998 C995 1.499 . S
C998 C999 1.373 . S
C998 C1000 1.389 . S
C999 H978 0.950 . S
C999 C998 1.373 . S
C999 C1015 1.377 . S
C1000 C998 1.389 . S
C1000 C1001 1.524 1_455 S
C1000 C1014 1.377 . S
C1001 C1000 1.524 1_655 S
C1001 C1002 1.397 . S
C1001 C1006 1.363 . S
C1002 H979 0.950 . S
C1002 C1001 1.397 . S
C1002 C1003 1.334 . S
C1003 H980 0.950 . S
C1003 C1002 1.334 . S
C1003 C1004 1.287 . S
C1004 C1003 1.287 . S
C1004 C1005 1.524 . S
C1004 H1023 0.913 . S
C1005 H981 0.950 . S
C1005 C1004 1.524 . S
C1005 C1006 1.415 . S
C1006 H982 0.950 1_655 S
C1006 C1001 1.363 . S
C1006 C1005 1.415 . S
C1007 H983 0.951 . S
C1007 C1008 1.366 . S
C1007 C1009 1.388 . S
C1008 C1007 1.366 . S
C1008 C1012 1.385 . S
C1009 H984 0.951 . S
C1009 C1007 1.388 . S
C1009 C1010 1.366 . S
C1010 C1009 1.366 . S
C1010 C1011 1.414 . S
C1010 C1013 1.499 . S
C1011 H985 0.950 . S
C1011 C1010 1.414 . S
C1011 C1012 1.374 . S
C1012 H986 0.950 . S
C1012 C1008 1.385 . S
C1012 C1011 1.374 . S
C1013 C1010 1.499 . S
C1013 C1014 1.373 . S
C1013 C1015 1.389 . S
C1014 H987 0.950 1_455 S
C1014 C1000 1.377 . S
C1014 C1013 1.373 . S
C1015 C999 1.377 . S
C1015 C1013 1.389 . S
C1015 C1016 1.524 . S
C1016 C1015 1.524 . S
C1016 C1017 1.397 . S
C1016 C1021 1.363 . S
C1017 H988 0.950 . S
C1017 C1016 1.397 . S
C1017 C1018 1.334 . S
C1018 H989 0.950 . S
C1018 C1017 1.334 . S
C1018 C1019 1.287 . S
C1019 C1018 1.287 . S
C1019 C1020 1.524 . S
C1019 H1022 0.999 . S
C1020 H990 0.950 . S
C1020 C1019 1.524 . S
C1020 C1021 1.415 . S
C1021 H991 0.950 . S
C1021 C1016 1.363 . S
C1021 C1020 1.415 . S
H1022 C1019 0.999 . S
H1023 C1004 0.913 . S
H1024 C1042 0.951 . S
H1025 C1044 0.951 . S
H1026 C1046 0.950 . S
H1027 C1047 0.950 . S
H1028 C1049 0.950 . S
H1029 C1052 0.950 . S
H1030 C1053 0.950 . S
H1031 C1055 0.950 . S
H1032 C1056 0.950 . S
H1033 C1057 0.951 1_545 S
H1034 C1059 0.951 . S
H1035 C1061 0.950 . S
H1036 C1062 0.950 . S
H1037 C1064 0.950 . S
H1038 C1067 0.950 . S
H1039 C1068 0.950 . S
H1040 C1070 0.950 . S
H1041 C1071 0.950 . S
C1042 H1024 0.951 . S
C1042 C1043 1.366 . S
C1042 C1044 1.388 . S
C1043 C1042 1.366 . S
C1043 C1047 1.385 . S
C1044 H1025 0.951 . S
C1044 C1042 1.388 . S
C1044 C1045 1.366 . S
C1045 C1044 1.366 . S
C1045 C1046 1.414 . S
C1045 C1048 1.499 . S
C1046 H1026 0.950 . S
C1046 C1045 1.414 . S
C1046 C1047 1.374 . S
C1047 H1027 0.950 . S
C1047 C1043 1.385 . S
C1047 C1046 1.374 . S
C1048 C1045 1.499 . S
C1048 C1049 1.373 . S
C1048 C1050 1.389 . S
C1049 H1028 0.950 . S
C1049 C1048 1.373 . S
C1049 C1065 1.377 . S
C1050 C1048 1.389 . S
C1050 C1051 1.524 . S
C1050 C1064 1.377 . S
C1051 C1050 1.524 . S
C1051 C1052 1.397 . S
C1051 C1056 1.363 . S
C1052 H1029 0.950 . S
C1052 C1051 1.397 . S
C1052 C1053 1.334 . S
C1053 H1030 0.950 . S
C1053 C1052 1.334 . S
C1053 C1054 1.287 . S
C1054 C1053 1.287 . S
C1054 C1055 1.524 . S
C1054 H1073 0.913 . S
C1055 H1031 0.950 . S
C1055 C1054 1.524 . S
C1055 C1056 1.415 . S
C1056 H1032 0.950 . S
C1056 C1051 1.363 . S
C1056 C1055 1.415 . S
C1057 H1033 0.951 1_565 S
C1057 C1058 1.366 . S
C1057 C1059 1.388 . S
C1058 C1057 1.366 . S
C1058 C1062 1.385 . S
C1059 H1034 0.951 . S
C1059 C1057 1.388 . S
C1059 C1060 1.366 . S
C1060 C1059 1.366 . S
C1060 C1061 1.414 . S
C1060 C1063 1.499 . S
C1061 H1035 0.950 . S
C1061 C1060 1.414 . S
C1061 C1062 1.374 . S
C1062 H1036 0.950 . S
C1062 C1058 1.385 . S
C1062 C1061 1.374 . S
C1063 C1060 1.499 . S
C1063 C1064 1.373 . S
C1063 C1065 1.389 . S
C1064 H1037 0.950 . S
C1064 C1050 1.377 . S
C1064 C1063 1.373 . S
C1065 C1049 1.377 . S
C1065 C1063 1.389 . S
C1065 C1066 1.524 . S
C1066 C1065 1.524 . S
C1066 C1067 1.397 . S
C1066 C1071 1.363 . S
C1067 H1038 0.950 . S
C1067 C1066 1.397 . S
C1067 C1068 1.334 1_565 S
C1068 H1039 0.950 . S
C1068 C1067 1.334 1_545 S
C1068 C1069 1.287 . S
C1069 C1068 1.287 . S
C1069 C1070 1.524 . S
C1069 H1072 0.999 . S
C1070 H1040 0.950 . S
C1070 C1069 1.524 . S
C1070 C1071 1.415 1_545 S
C1071 H1041 0.950 . S
C1071 C1066 1.363 . S
C1071 C1070 1.415 1_565 S
H1072 C1069 0.999 . S
H1073 C1054 0.913 . S
H1074 C1092 0.951 . S
H1075 C1094 0.951 . S
H1076 C1096 0.950 . S
H1077 C1097 0.950 . S
H1078 C1099 0.950 . S
H1079 C1102 0.950 . S
H1080 C1103 0.950 . S
H1081 C1105 0.950 . S
H1082 C1106 0.950 . S
H1083 C1107 0.951 1_545 S
H1084 C1109 0.951 . S
H1085 C1111 0.950 . S
H1086 C1112 0.950 . S
H1087 C1114 0.950 . S
H1088 C1117 0.950 . S
H1089 C1118 0.950 1_545 S
H1090 C1120 0.950 . S
H1091 C1121 0.950 . S
C1092 H1074 0.951 . S
C1092 C1093 1.366 . S
C1092 C1094 1.388 . S
C1093 C1092 1.366 . S
C1093 C1097 1.385 . S
C1094 H1075 0.951 . S
C1094 C1092 1.388 . S
C1094 C1095 1.366 . S
C1095 C1094 1.366 . S
C1095 C1096 1.414 . S
C1095 C1098 1.499 . S
C1096 H1076 0.950 . S
C1096 C1095 1.414 . S
C1096 C1097 1.374 . S
C1097 H1077 0.950 . S
C1097 C1093 1.385 . S
C1097 C1096 1.374 . S
C1098 C1095 1.499 . S
C1098 C1099 1.373 . S
C1098 C1100 1.389 . S
C1099 H1078 0.950 . S
C1099 C1098 1.373 . S
C1099 C1115 1.377 . S
C1100 C1098 1.389 . S
C1100 C1101 1.524 . S
C1100 C1114 1.377 . S
C1101 C1100 1.524 . S
C1101 C1102 1.397 . S
C1101 C1106 1.363 . S
C1102 H1079 0.950 . S
C1102 C1101 1.397 . S
C1102 C1103 1.334 . S
C1103 H1080 0.950 . S
C1103 C1102 1.334 . S
C1103 C1104 1.287 . S
C1104 C1103 1.287 . S
C1104 C1105 1.524 . S
C1104 H1123 0.913 . S
C1105 H1081 0.950 . S
C1105 C1104 1.524 . S
C1105 C1106 1.415 . S
C1106 H1082 0.950 . S
C1106 C1101 1.363 . S
C1106 C1105 1.415 . S
C1107 H1083 0.951 1_565 S
C1107 C1108 1.366 . S
C1107 C1109 1.388 . S
C1108 C1107 1.366 . S
C1108 C1112 1.385 . S
C1109 H1084 0.951 . S
C1109 C1107 1.388 . S
C1109 C1110 1.366 . S
C1110 C1109 1.366 . S
C1110 C1111 1.414 . S
C1110 C1113 1.499 . S
C1111 H1085 0.950 . S
C1111 C1110 1.414 . S
C1111 C1112 1.374 . S
C1112 H1086 0.950 . S
C1112 C1108 1.385 . S
C1112 C1111 1.374 . S
C1113 C1110 1.499 . S
C1113 C1114 1.373 . S
C1113 C1115 1.389 . S
C1114 H1087 0.950 . S
C1114 C1100 1.377 . S
C1114 C1113 1.373 . S
C1115 C1099 1.377 . S
C1115 C1113 1.389 . S
C1115 C1116 1.524 . S
C1116 C1115 1.524 . S
C1116 C1117 1.397 . S
C1116 C1121 1.363 . S
C1117 H1088 0.950 . S
C1117 C1116 1.397 . S
C1117 C1118 1.334 . S
C1118 H1089 0.950 1_565 S
C1118 C1117 1.334 . S
C1118 C1119 1.287 1_565 S
C1119 C1118 1.287 1_545 S
C1119 C1120 1.524 . S
C1119 H1122 0.999 . S
C1120 H1090 0.950 . S
C1120 C1119 1.524 . S
C1120 C1121 1.415 1_545 S
C1121 H1091 0.950 . S
C1121 C1116 1.363 . S
C1121 C1120 1.415 1_565 S
H1122 C1119 0.999 . S
H1123 C1104 0.913 . S
H1124 C1142 0.951 1_565 S
H1125 C1144 0.951 . S
H1126 C1146 0.950 . S
H1127 C1147 0.950 . S
H1128 C1149 0.950 . S
H1129 C1152 0.950 . S
H1130 C1153 0.950 . S
H1131 C1155 0.950 . S
H1132 C1156 0.950 . S
H1133 C1157 0.951 . S
H1134 C1159 0.951 . S
H1135 C1161 0.950 . S
H1136 C1162 0.950 . S
H1137 C1164 0.950 . S
H1138 C1167 0.950 . S
H1139 C1168 0.950 . S
H1140 C1170 0.950 . S
H1141 C1171 0.950 . S
C1142 H1124 0.951 1_545 S
C1142 C1143 1.366 . S
C1142 C1144 1.388 . S
C1143 C1142 1.366 . S
C1143 C1147 1.385 . S
C1144 H1125 0.951 . S
C1144 C1142 1.388 . S
C1144 C1145 1.366 . S
C1145 C1144 1.366 . S
C1145 C1146 1.414 . S
C1145 C1148 1.499 . S
C1146 H1126 0.950 . S
C1146 C1145 1.414 . S
C1146 C1147 1.374 . S
C1147 H1127 0.950 . S
C1147 C1143 1.385 . S
C1147 C1146 1.374 . S
C1148 C1145 1.499 . S
C1148 C1149 1.373 . S
C1148 C1150 1.389 . S
C1149 H1128 0.950 . S
C1149 C1148 1.373 . S
C1149 C1165 1.377 . S
C1150 C1148 1.389 . S
C1150 C1151 1.524 . S
C1150 C1164 1.377 . S
C1151 C1150 1.524 . S
C1151 C1152 1.397 . S
C1151 C1156 1.363 . S
C1152 H1129 0.950 . S
C1152 C1151 1.397 . S
C1152 C1153 1.334 1_545 S
C1153 H1130 0.950 . S
C1153 C1152 1.334 1_565 S
C1153 C1154 1.287 . S
C1154 C1153 1.287 . S
C1154 C1155 1.524 . S
C1154 H1173 0.913 . S
C1155 H1131 0.950 . S
C1155 C1154 1.524 . S
C1155 C1156 1.415 1_565 S
C1156 H1132 0.950 . S
C1156 C1151 1.363 . S
C1156 C1155 1.415 1_545 S
C1157 H1133 0.951 . S
C1157 C1158 1.366 . S
C1157 C1159 1.388 . S
C1158 C1157 1.366 . S
C1158 C1162 1.385 . S
C1159 H1134 0.951 . S
C1159 C1157 1.388 . S
C1159 C1160 1.366 . S
C1160 C1159 1.366 . S
C1160 C1161 1.414 . S
C1160 C1163 1.499 . S
C1161 H1135 0.950 . S
C1161 C1160 1.414 . S
C1161 C1162 1.374 . S
C1162 H1136 0.950 . S
C1162 C1158 1.385 . S
C1162 C1161 1.374 . S
C1163 C1160 1.499 . S
C1163 C1164 1.373 . S
C1163 C1165 1.389 . S
C1164 H1137 0.950 . S
C1164 C1150 1.377 . S
C1164 C1163 1.373 . S
C1165 C1149 1.377 . S
C1165 C1163 1.389 . S
C1165 C1166 1.524 . S
C1166 C1165 1.524 . S
C1166 C1167 1.397 . S
C1166 C1171 1.363 . S
C1167 H1138 0.950 . S
C1167 C1166 1.397 . S
C1167 C1168 1.334 . S
C1168 H1139 0.950 . S
C1168 C1167 1.334 . S
C1168 C1169 1.287 . S
C1169 C1168 1.287 . S
C1169 C1170 1.524 . S
C1169 H1172 0.999 . S
C1170 H1140 0.950 . S
C1170 C1169 1.524 . S
C1170 C1171 1.415 . S
C1171 H1141 0.950 . S
C1171 C1166 1.363 . S
C1171 C1170 1.415 . S
H1172 C1169 0.999 . S
H1173 C1154 0.913 . S
H1174 C1192 0.951 . S
H1175 C1194 0.951 . S
H1176 C1196 0.950 . S
H1177 C1197 0.950 1_565 S
H1178 C1199 0.950 . S
H1179 C1202 0.950 . S
H1180 C1203 0.950 1_565 S
H1181 C1205 0.950 . S
H1182 C1206 0.950 . S
H1183 C1207 0.951 . S
H1184 C1209 0.951 . S
H1185 C1211 0.950 . S
H1186 C1212 0.950 . S
H1187 C1214 0.950 . S
H1188 C1217 0.950 . S
H1189 C1218 0.950 . S
H1190 C1220 0.950 . S
H1191 C1221 0.950 . S
C1192 H1174 0.951 . S
C1192 C1193 1.366 . S
C1192 C1194 1.388 . S
C1193 C1192 1.366 . S
C1193 C1197 1.385 . S
C1194 H1175 0.951 . S
C1194 C1192 1.388 . S
C1194 C1195 1.366 . S
C1195 C1194 1.366 . S
C1195 C1196 1.414 . S
C1195 C1198 1.499 . S
C1196 H1176 0.950 . S
C1196 C1195 1.414 . S
C1196 C1197 1.374 . S
C1197 H1177 0.950 1_545 S
C1197 C1193 1.385 . S
C1197 C1196 1.374 . S
C1198 C1195 1.499 . S
C1198 C1199 1.373 . S
C1198 C1200 1.389 . S
C1199 H1178 0.950 . S
C1199 C1198 1.373 . S
C1199 C1215 1.377 . S
C1200 C1198 1.389 . S
C1200 C1201 1.524 . S
C1200 C1214 1.377 . S
C1201 C1200 1.524 . S
C1201 C1202 1.397 . S
C1201 C1206 1.363 . S
C1202 H1179 0.950 . S
C1202 C1201 1.397 . S
C1202 C1203 1.334 . S
C1203 H1180 0.950 1_545 S
C1203 C1202 1.334 . S
C1203 C1204 1.287 . S
C1204 C1203 1.287 . S
C1204 C1205 1.524 . S
C1204 H1223 0.913 . S
C1205 H1181 0.950 . S
C1205 C1204 1.524 . S
C1205 C1206 1.415 . S
C1206 H1182 0.950 . S
C1206 C1201 1.363 . S
C1206 C1205 1.415 . S
C1207 H1183 0.951 . S
C1207 C1208 1.366 . S
C1207 C1209 1.388 . S
C1208 C1207 1.366 . S
C1208 C1212 1.385 . S
C1209 H1184 0.951 . S
C1209 C1207 1.388 . S
C1209 C1210 1.366 . S
C1210 C1209 1.366 . S
C1210 C1211 1.414 . S
C1210 C1213 1.499 . S
C1211 H1185 0.950 . S
C1211 C1210 1.414 . S
C1211 C1212 1.374 . S
C1212 H1186 0.950 . S
C1212 C1208 1.385 . S
C1212 C1211 1.374 . S
C1213 C1210 1.499 . S
C1213 C1214 1.373 . S
C1213 C1215 1.389 . S
C1214 H1187 0.950 . S
C1214 C1200 1.377 . S
C1214 C1213 1.373 . S
C1215 C1199 1.377 . S
C1215 C1213 1.389 . S
C1215 C1216 1.524 . S
C1216 C1215 1.524 . S
C1216 C1217 1.397 . S
C1216 C1221 1.363 . S
C1217 H1188 0.950 . S
C1217 C1216 1.397 . S
C1217 C1218 1.334 . S
C1218 H1189 0.950 . S
C1218 C1217 1.334 . S
C1218 C1219 1.287 . S
C1219 C1218 1.287 . S
C1219 C1220 1.524 . S
C1219 H1222 0.999 . S
C1220 H1190 0.950 . S
C1220 C1219 1.524 . S
C1220 C1221 1.415 . S
C1221 H1191 0.950 . S
C1221 C1216 1.363 . S
C1221 C1220 1.415 . S
H1222 C1219 0.999 . S
H1223 C1204 0.913 . S
H1224 C1242 0.951 1_565 S
H1225 C1244 0.951 . S
H1226 C1246 0.950 . S
H1227 C1247 0.950 . S
H1228 C1249 0.950 . S
H1229 C1252 0.950 . S
H1230 C1253 0.950 . S
H1231 C1255 0.950 . S
H1232 C1256 0.950 . S
H1233 C1257 0.951 . S
H1234 C1259 0.951 . S
H1235 C1261 0.950 . S
H1236 C1262 0.950 . S
H1237 C1264 0.950 . S
H1238 C1267 0.950 . S
H1239 C1268 0.950 . S
H1240 C1270 0.950 . S
H1241 C1271 0.950 . S
C1242 H1224 0.951 1_545 S
C1242 C1243 1.366 . S
C1242 C1244 1.388 . S
C1243 C1242 1.366 . S
C1243 C1247 1.385 . S
C1244 H1225 0.951 . S
C1244 C1242 1.388 . S
C1244 C1245 1.366 . S
C1245 C1244 1.366 . S
C1245 C1246 1.414 . S
C1245 C1248 1.499 . S
C1246 H1226 0.950 . S
C1246 C1245 1.414 . S
C1246 C1247 1.374 . S
C1247 H1227 0.950 . S
C1247 C1243 1.385 . S
C1247 C1246 1.374 . S
C1248 C1245 1.499 . S
C1248 C1249 1.373 . S
C1248 C1250 1.389 . S
C1249 H1228 0.950 . S
C1249 C1248 1.373 . S
C1249 C1265 1.377 . S
C1250 C1248 1.389 . S
C1250 C1251 1.524 . S
C1250 C1264 1.377 . S
C1251 C1250 1.524 . S
C1251 C1252 1.397 . S
C1251 C1256 1.363 . S
C1252 H1229 0.950 . S
C1252 C1251 1.397 . S
C1252 C1253 1.334 . S
C1253 H1230 0.950 . S
C1253 C1252 1.334 . S
C1253 C1254 1.287 . S
C1254 C1253 1.287 . S
C1254 C1255 1.524 . S
C1254 H1273 0.913 . S
C1255 H1231 0.950 . S
C1255 C1254 1.524 . S
C1255 C1256 1.415 . S
C1256 H1232 0.950 . S
C1256 C1251 1.363 . S
C1256 C1255 1.415 . S
C1257 H1233 0.951 . S
C1257 C1258 1.366 . S
C1257 C1259 1.388 . S
C1258 C1257 1.366 . S
C1258 C1262 1.385 . S
C1259 H1234 0.951 . S
C1259 C1257 1.388 . S
C1259 C1260 1.366 . S
C1260 C1259 1.366 . S
C1260 C1261 1.414 . S
C1260 C1263 1.499 . S
C1261 H1235 0.950 . S
C1261 C1260 1.414 . S
C1261 C1262 1.374 . S
C1262 H1236 0.950 . S
C1262 C1258 1.385 . S
C1262 C1261 1.374 . S
C1263 C1260 1.499 . S
C1263 C1264 1.373 . S
C1263 C1265 1.389 . S
C1264 H1237 0.950 . S
C1264 C1250 1.377 . S
C1264 C1263 1.373 . S
C1265 C1249 1.377 . S
C1265 C1263 1.389 . S
C1265 C1266 1.524 . S
C1266 C1265 1.524 . S
C1266 C1267 1.397 . S
C1266 C1271 1.363 . S
C1267 H1238 0.950 . S
C1267 C1266 1.397 . S
C1267 C1268 1.334 . S
C1268 H1239 0.950 . S
C1268 C1267 1.334 . S
C1268 C1269 1.287 . S
C1269 C1268 1.287 . S
C1269 C1270 1.524 . S
C1269 H1272 0.999 . S
C1270 H1240 0.950 . S
C1270 C1269 1.524 . S
C1270 C1271 1.415 . S
C1271 H1241 0.950 . S
C1271 C1266 1.363 . S
C1271 C1270 1.415 . S
H1272 C1269 0.999 . S
H1273 C1254 0.913 . S
H1274 C1292 0.951 . S
H1275 C1294 0.951 . S
H1276 C1296 0.950 . S
H1277 C1297 0.950 . S
H1278 C1299 0.950 . S
H1279 C1302 0.950 . S
H1280 C1303 0.950 . S
H1281 C1305 0.950 . S
H1282 C1306 0.950 . S
H1283 C1307 0.951 . S
H1284 C1309 0.951 . S
H1285 C1311 0.950 . S
H1286 C1312 0.950 . S
H1287 C1314 0.950 . S
H1288 C1317 0.950 . S
H1289 C1318 0.950 . S
H1290 C1320 0.950 . S
H1291 C1321 0.950 . S
C1292 H1274 0.951 . S
C1292 C1293 1.366 . S
C1292 C1294 1.388 . S
C1293 C1292 1.366 . S
C1293 C1297 1.385 . S
C1294 H1275 0.951 . S
C1294 C1292 1.388 . S
C1294 C1295 1.366 . S
C1295 C1294 1.366 . S
C1295 C1296 1.414 . S
C1295 C1298 1.499 . S
C1296 H1276 0.950 . S
C1296 C1295 1.414 . S
C1296 C1297 1.374 . S
C1297 H1277 0.950 . S
C1297 C1293 1.385 . S
C1297 C1296 1.374 . S
C1298 C1295 1.499 . S
C1298 C1299 1.373 . S
C1298 C1300 1.389 . S
C1299 H1278 0.950 . S
C1299 C1298 1.373 . S
C1299 C1315 1.377 . S
C1300 C1298 1.389 . S
C1300 C1301 1.524 . S
C1300 C1314 1.377 . S
C1301 C1300 1.524 . S
C1301 C1302 1.397 . S
C1301 C1306 1.363 . S
C1302 H1279 0.950 . S
C1302 C1301 1.397 . S
C1302 C1303 1.334 . S
C1303 H1280 0.950 . S
C1303 C1302 1.334 . S
C1303 C1304 1.287 . S
C1304 C1303 1.287 . S
C1304 C1305 1.524 . S
C1304 H1323 0.913 . S
C1305 H1281 0.950 . S
C1305 C1304 1.524 . S
C1305 C1306 1.415 . S
C1306 H1282 0.950 . S
C1306 C1301 1.363 . S
C1306 C1305 1.415 . S
C1307 H1283 0.951 . S
C1307 C1308 1.366 . S
C1307 C1309 1.388 . S
C1308 C1307 1.366 . S
C1308 C1312 1.385 . S
C1309 H1284 0.951 . S
C1309 C1307 1.388 . S
C1309 C1310 1.366 . S
C1310 C1309 1.366 . S
C1310 C1311 1.414 . S
C1310 C1313 1.499 . S
C1311 H1285 0.950 . S
C1311 C1310 1.414 . S
C1311 C1312 1.374 . S
C1312 H1286 0.950 . S
C1312 C1308 1.385 . S
C1312 C1311 1.374 . S
C1313 C1310 1.499 . S
C1313 C1314 1.373 . S
C1313 C1315 1.389 . S
C1314 H1287 0.950 . S
C1314 C1300 1.377 . S
C1314 C1313 1.373 . S
C1315 C1299 1.377 . S
C1315 C1313 1.389 . S
C1315 C1316 1.524 . S
C1316 C1315 1.524 . S
C1316 C1317 1.397 . S
C1316 C1321 1.363 . S
C1317 H1288 0.950 . S
C1317 C1316 1.397 . S
C1317 C1318 1.334 . S
C1318 H1289 0.950 . S
C1318 C1317 1.334 . S
C1318 C1319 1.287 . S
C1319 C1318 1.287 . S
C1319 C1320 1.524 . S
C1319 H1322 0.999 . S
C1320 H1290 0.950 . S
C1320 C1319 1.524 . S
C1320 C1321 1.415 . S
C1321 H1291 0.950 . S
C1321 C1316 1.363 . S
C1321 C1320 1.415 . S
H1322 C1319 0.999 . S
H1323 C1304 0.913 . S
H1324 C1342 0.951 . S
H1325 C1344 0.951 . S
H1326 C1346 0.950 . S
H1327 C1347 0.950 . S
H1328 C1349 0.950 . S
H1329 C1352 0.950 . S
H1330 C1353 0.950 . S
H1331 C1355 0.950 . S
H1332 C1356 0.950 . S
H1333 C1357 0.951 . S
H1334 C1359 0.951 . S
H1335 C1361 0.950 . S
H1336 C1362 0.950 . S
H1337 C1364 0.950 . S
H1338 C1367 0.950 . S
H1339 C1368 0.950 . S
H1340 C1370 0.950 . S
H1341 C1371 0.950 . S
C1342 H1324 0.951 . S
C1342 C1343 1.366 . S
C1342 C1344 1.388 . S
C1343 C1342 1.366 . S
C1343 C1347 1.385 . S
C1344 H1325 0.951 . S
C1344 C1342 1.388 . S
C1344 C1345 1.366 . S
C1345 C1344 1.366 . S
C1345 C1346 1.414 . S
C1345 C1348 1.499 . S
C1346 H1326 0.950 . S
C1346 C1345 1.414 . S
C1346 C1347 1.374 . S
C1347 H1327 0.950 . S
C1347 C1343 1.385 . S
C1347 C1346 1.374 . S
C1348 C1345 1.499 . S
C1348 C1349 1.373 . S
C1348 C1350 1.389 . S
C1349 H1328 0.950 . S
C1349 C1348 1.373 . S
C1349 C1365 1.377 . S
C1350 C1348 1.389 . S
C1350 C1351 1.524 . S
C1350 C1364 1.377 . S
C1351 C1350 1.524 . S
C1351 C1352 1.397 . S
C1351 C1356 1.363 . S
C1352 H1329 0.950 . S
C1352 C1351 1.397 . S
C1352 C1353 1.334 . S
C1353 H1330 0.950 . S
C1353 C1352 1.334 . S
C1353 C1354 1.287 . S
C1354 C1353 1.287 . S
C1354 C1355 1.524 . S
C1354 H1373 0.913 . S
C1355 H1331 0.950 . S
C1355 C1354 1.524 . S
C1355 C1356 1.415 . S
C1356 H1332 0.950 . S
C1356 C1351 1.363 . S
C1356 C1355 1.415 . S
C1357 H1333 0.951 . S
C1357 C1358 1.366 . S
C1357 C1359 1.388 . S
C1358 C1357 1.366 . S
C1358 C1362 1.385 . S
C1359 H1334 0.951 . S
C1359 C1357 1.388 . S
C1359 C1360 1.366 . S
C1360 C1359 1.366 . S
C1360 C1361 1.414 . S
C1360 C1363 1.499 . S
C1361 H1335 0.950 . S
C1361 C1360 1.414 . S
C1361 C1362 1.374 . S
C1362 H1336 0.950 . S
C1362 C1358 1.385 . S
C1362 C1361 1.374 . S
C1363 C1360 1.499 . S
C1363 C1364 1.373 . S
C1363 C1365 1.389 . S
C1364 H1337 0.950 . S
C1364 C1350 1.377 . S
C1364 C1363 1.373 . S
C1365 C1349 1.377 . S
C1365 C1363 1.389 . S
C1365 C1366 1.524 . S
C1366 C1365 1.524 . S
C1366 C1367 1.397 . S
C1366 C1371 1.363 . S
C1367 H1338 0.950 . S
C1367 C1366 1.397 . S
C1367 C1368 1.334 . S
C1368 H1339 0.950 . S
C1368 C1367 1.334 . S
C1368 C1369 1.287 . S
C1369 C1368 1.287 . S
C1369 C1370 1.524 . S
C1369 H1372 0.999 . S
C1370 H1340 0.950 . S
C1370 C1369 1.524 . S
C1370 C1371 1.415 . S
C1371 H1341 0.950 . S
C1371 C1366 1.363 . S
C1371 C1370 1.415 . S
H1372 C1369 0.999 . S
H1373 C1354 0.913 . S
H1374 C1392 0.951 . S
H1375 C1394 0.951 . S
H1376 C1396 0.950 . S
H1377 C1397 0.950 . S
H1378 C1399 0.950 . S
H1379 C1402 0.950 . S
H1380 C1403 0.950 . S
H1381 C1405 0.950 . S
H1382 C1406 0.950 . S
H1383 C1407 0.951 . S
H1384 C1409 0.951 . S
H1385 C1411 0.950 . S
H1386 C1412 0.950 . S
H1387 C1414 0.950 . S
H1388 C1417 0.950 . S
H1389 C1418 0.950 . S
H1390 C1420 0.950 . S
H1391 C1421 0.950 . S
C1392 H1374 0.951 . S
C1392 C1393 1.366 . S
C1392 C1394 1.388 . S
C1393 C1392 1.366 . S
C1393 C1397 1.385 . S
C1394 H1375 0.951 . S
C1394 C1392 1.388 . S
C1394 C1395 1.366 . S
C1395 C1394 1.366 . S
C1395 C1396 1.414 . S
C1395 C1398 1.499 . S
C1396 H1376 0.950 . S
C1396 C1395 1.414 . S
C1396 C1397 1.374 . S
C1397 H1377 0.950 . S
C1397 C1393 1.385 . S
C1397 C1396 1.374 . S
C1398 C1395 1.499 . S
C1398 C1399 1.373 . S
C1398 C1400 1.389 . S
C1399 H1378 0.950 . S
C1399 C1398 1.373 . S
C1399 C1415 1.377 . S
C1400 C1398 1.389 . S
C1400 C1401 1.524 . S
C1400 C1414 1.377 . S
C1401 C1400 1.524 . S
C1401 C1402 1.397 . S
C1401 C1406 1.363 . S
C1402 H1379 0.950 . S
C1402 C1401 1.397 . S
C1402 C1403 1.334 . S
C1403 H1380 0.950 . S
C1403 C1402 1.334 . S
C1403 C1404 1.287 . S
C1404 C1403 1.287 . S
C1404 C1405 1.524 . S
C1404 H1423 0.913 . S
C1405 H1381 0.950 . S
C1405 C1404 1.524 . S
C1405 C1406 1.415 . S
C1406 H1382 0.950 . S
C1406 C1401 1.363 . S
C1406 C1405 1.415 . S
C1407 H1383 0.951 . S
C1407 C1408 1.366 . S
C1407 C1409 1.388 . S
C1408 C1407 1.366 . S
C1408 C1412 1.385 . S
C1409 H1384 0.951 . S
C1409 C1407 1.388 . S
C1409 C1410 1.366 . S
C1410 C1409 1.366 . S
C1410 C1411 1.414 . S
C1410 C1413 1.499 . S
C1411 H1385 0.950 . S
C1411 C1410 1.414 . S
C1411 C1412 1.374 . S
C1412 H1386 0.950 . S
C1412 C1408 1.385 . S
C1412 C1411 1.374 . S
C1413 C1410 1.499 . S
C1413 C1414 1.373 . S
C1413 C1415 1.389 . S
C1414 H1387 0.950 . S
C1414 C1400 1.377 . S
C1414 C1413 1.373 . S
C1415 C1399 1.377 . S
C1415 C1413 1.389 . S
C1415 C1416 1.524 . S
C1416 C1415 1.524 . S
C1416 C1417 1.397 . S
C1416 C1421 1.363 . S
C1417 H1388 0.950 . S
C1417 C1416 1.397 . S
C1417 C1418 1.334 . S
C1418 H1389 0.950 . S
C1418 C1417 1.334 . S
C1418 C1419 1.287 . S
C1419 C1418 1.287 . S
C1419 C1420 1.524 . S
C1419 H1422 0.999 . S
C1420 H1390 0.950 . S
C1420 C1419 1.524 . S
C1420 C1421 1.415 . S
C1421 H1391 0.950 . S
C1421 C1416 1.363 . S
C1421 C1420 1.415 . S
H1422 C1419 0.999 . S
H1423 C1404 0.913 . S
H1424 C1442 0.951 . S
H1425 C1444 0.951 . S
H1426 C1446 0.950 . S
H1427 C1447 0.950 . S
H1428 C1449 0.950 . S
H1429 C1452 0.950 . S
H1430 C1453 0.950 . S
H1431 C1455 0.950 . S
H1432 C1456 0.950 . S
H1433 C1457 0.951 . S
H1434 C1459 0.951 . S
H1435 C1461 0.950 . S
H1436 C1462 0.950 . S
H1437 C1464 0.950 . S
H1438 C1467 0.950 . S
H1439 C1468 0.950 . S
H1440 C1470 0.950 . S
H1441 C1471 0.950 . S
C1442 H1424 0.951 . S
C1442 C1443 1.366 . S
C1442 C1444 1.388 . S
C1443 C1442 1.366 . S
C1443 C1447 1.385 . S
C1444 H1425 0.951 . S
C1444 C1442 1.388 . S
C1444 C1445 1.366 . S
C1445 C1444 1.366 . S
C1445 C1446 1.414 . S
C1445 C1448 1.499 . S
C1446 H1426 0.950 . S
C1446 C1445 1.414 . S
C1446 C1447 1.374 . S
C1447 H1427 0.950 . S
C1447 C1443 1.385 . S
C1447 C1446 1.374 . S
C1448 C1445 1.499 . S
C1448 C1449 1.373 . S
C1448 C1450 1.389 . S
C1449 H1428 0.950 . S
C1449 C1448 1.373 . S
C1449 C1465 1.377 . S
C1450 C1448 1.389 . S
C1450 C1451 1.524 . S
C1450 C1464 1.377 . S
C1451 C1450 1.524 . S
C1451 C1452 1.397 . S
C1451 C1456 1.363 . S
C1452 H1429 0.950 . S
C1452 C1451 1.397 . S
C1452 C1453 1.334 . S
C1453 H1430 0.950 . S
C1453 C1452 1.334 . S
C1453 C1454 1.287 . S
C1454 C1453 1.287 . S
C1454 C1455 1.524 . S
C1454 H1473 0.913 . S
C1455 H1431 0.950 . S
C1455 C1454 1.524 . S
C1455 C1456 1.415 . S
C1456 H1432 0.950 . S
C1456 C1451 1.363 . S
C1456 C1455 1.415 . S
C1457 H1433 0.951 . S
C1457 C1458 1.366 . S
C1457 C1459 1.388 . S
C1458 C1457 1.366 . S
C1458 C1462 1.385 . S
C1459 H1434 0.951 . S
C1459 C1457 1.388 . S
C1459 C1460 1.366 . S
C1460 C1459 1.366 . S
C1460 C1461 1.414 . S
C1460 C1463 1.499 . S
C1461 H1435 0.950 . S
C1461 C1460 1.414 . S
C1461 C1462 1.374 . S
C1462 H1436 0.950 . S
C1462 C1458 1.385 . S
C1462 C1461 1.374 . S
C1463 C1460 1.499 . S
C1463 C1464 1.373 . S
C1463 C1465 1.389 . S
C1464 H1437 0.950 . S
C1464 C1450 1.377 . S
C1464 C1463 1.373 . S
C1465 C1449 1.377 . S
C1465 C1463 1.389 . S
C1465 C1466 1.524 . S
C1466 C1465 1.524 . S
C1466 C1467 1.397 . S
C1466 C1471 1.363 . S
C1467 H1438 0.950 . S
C1467 C1466 1.397 . S
C1467 C1468 1.334 . S
C1468 H1439 0.950 . S
C1468 C1467 1.334 . S
C1468 C1469 1.287 . S
C1469 C1468 1.287 . S
C1469 C1470 1.524 . S
C1469 H1472 0.999 . S
C1470 H1440 0.950 . S
C1470 C1469 1.524 . S
C1470 C1471 1.415 . S
C1471 H1441 0.950 . S
C1471 C1466 1.363 . S
C1471 C1470 1.415 . S
H1472 C1469 0.999 . S
H1473 C1454 0.913 . S
H1474 C1492 0.951 . S
H1475 C1494 0.951 . S
H1476 C1496 0.950 . S
H1477 C1497 0.950 . S
H1478 C1499 0.950 . S
H1479 C1502 0.950 . S
H1480 C1503 0.950 . S
H1481 C1505 0.950 . S
H1482 C1506 0.950 . S
H1483 C1507 0.951 . S
H1484 C1509 0.951 . S
H1485 C1511 0.950 . S
H1486 C1512 0.950 . S
H1487 C1514 0.950 . S
H1488 C1517 0.950 . S
H1489 C1518 0.950 . S
H1490 C1520 0.950 . S
H1491 C1521 0.950 . S
C1492 H1474 0.951 . S
C1492 C1493 1.366 . S
C1492 C1494 1.388 . S
C1493 C1492 1.366 . S
C1493 C1497 1.385 . S
C1494 H1475 0.951 . S
C1494 C1492 1.388 . S
C1494 C1495 1.366 . S
C1495 C1494 1.366 . S
C1495 C1496 1.414 . S
C1495 C1498 1.499 . S
C1496 H1476 0.950 . S
C1496 C1495 1.414 . S
C1496 C1497 1.374 . S
C1497 H1477 0.950 . S
C1497 C1493 1.385 . S
C1497 C1496 1.374 . S
C1498 C1495 1.499 . S
C1498 C1499 1.373 . S
C1498 C1500 1.389 . S
C1499 H1478 0.950 . S
C1499 C1498 1.373 . S
C1499 C1515 1.377 . S
C1500 C1498 1.389 . S
C1500 C1501 1.524 . S
C1500 C1514 1.377 . S
C1501 C1500 1.524 . S
C1501 C1502 1.397 . S
C1501 C1506 1.363 . S
C1502 H1479 0.950 . S
C1502 C1501 1.397 . S
C1502 C1503 1.334 . S
C1503 H1480 0.950 . S
C1503 C1502 1.334 . S
C1503 C1504 1.287 . S
C1504 C1503 1.287 . S
C1504 C1505 1.524 . S
C1504 H1523 0.913 . S
C1505 H1481 0.950 . S
C1505 C1504 1.524 . S
C1505 C1506 1.415 . S
C1506 H1482 0.950 . S
C1506 C1501 1.363 . S
C1506 C1505 1.415 . S
C1507 H1483 0.951 . S
C1507 C1508 1.366 . S
C1507 C1509 1.388 . S
C1508 C1507 1.366 . S
C1508 C1512 1.385 . S
C1509 H1484 0.951 . S
C1509 C1507 1.388 . S
C1509 C1510 1.366 . S
C1510 C1509 1.366 . S
C1510 C1511 1.414 . S
C1510 C1513 1.499 . S
C1511 H1485 0.950 . S
C1511 C1510 1.414 . S
C1511 C1512 1.374 . S
C1512 H1486 0.950 . S
C1512 C1508 1.385 . S
C1512 C1511 1.374 . S
C1513 C1510 1.499 . S
C1513 C1514 1.373 . S
C1513 C1515 1.389 . S
C1514 H1487 0.950 . S
C1514 C1500 1.377 . S
C1514 C1513 1.373 . S
C1515 C1499 1.377 . S
C1515 C1513 1.389 . S
C1515 C1516 1.524 . S
C1516 C1515 1.524 . S
C1516 C1517 1.397 . S
C1516 C1521 1.363 . S
C1517 H1488 0.950 . S
C1517 C1516 1.397 . S
C1517 C1518 1.334 . S
C1518 H1489 0.950 . S
C1518 C1517 1.334 . S
C1518 C1519 1.287 . S
C1519 C1518 1.287 . S
C1519 C1520 1.524 . S
C1519 H1522 0.999 . S
C1520 H1490 0.950 . S
C1520 C1519 1.524 . S
C1520 C1521 1.415 . S
C1521 H1491 0.950 . S
C1521 C1516 1.363 . S
C1521 C1520 1.415 . S
H1522 C1519 0.999 . S
H1523 C1504 0.913 . S
H1524 C1542 0.951 . S
H1525 C1544 0.951 . S
H1526 C1546 0.950 . S
H1527 C1547 0.950 . S
H1528 C1549 0.950 . S
H1529 C1552 0.950 . S
H1530 C1553 0.950 . S
H1531 C1555 0.950 . S
H1532 C1556 0.950 . S
H1533 C1557 0.951 . S
H1534 C1559 0.951 . S
H1535 C1561 0.950 . S
H1536 C1562 0.950 . S
H1537 C1564 0.950 . S
H1538 C1567 0.950 . S
H1539 C1568 0.950 . S
H1540 C1570 0.950 . S
H1541 C1571 0.950 . S
C1542 H1524 0.951 . S
C1542 C1543 1.366 . S
C1542 C1544 1.388 . S
C1543 C1542 1.366 . S
C1543 C1547 1.385 . S
C1544 H1525 0.951 . S
C1544 C1542 1.388 . S
C1544 C1545 1.366 . S
C1545 C1544 1.366 . S
C1545 C1546 1.414 . S
C1545 C1548 1.499 . S
C1546 H1526 0.950 . S
C1546 C1545 1.414 . S
C1546 C1547 1.374 . S
C1547 H1527 0.950 . S
C1547 C1543 1.385 . S
C1547 C1546 1.374 . S
C1548 C1545 1.499 . S
C1548 C1549 1.373 . S
C1548 C1550 1.389 . S
C1549 H1528 0.950 . S
C1549 C1548 1.373 . S
C1549 C1565 1.377 . S
C1550 C1548 1.389 . S
C1550 C1551 1.524 . S
C1550 C1564 1.377 . S
C1551 C1550 1.524 . S
C1551 C1552 1.397 . S
C1551 C1556 1.363 . S
C1552 H1529 0.950 . S
C1552 C1551 1.397 . S
C1552 C1553 1.334 . S
C1553 H1530 0.950 . S
C1553 C1552 1.334 . S
C1553 C1554 1.287 . S
C1554 C1553 1.287 . S
C1554 C1555 1.524 . S
C1554 H1573 0.913 . S
C1555 H1531 0.950 . S
C1555 C1554 1.524 . S
C1555 C1556 1.415 . S
C1556 H1532 0.950 . S
C1556 C1551 1.363 . S
C1556 C1555 1.415 . S
C1557 H1533 0.951 . S
C1557 C1558 1.366 . S
C1557 C1559 1.388 . S
C1558 C1557 1.366 . S
C1558 C1562 1.385 . S
C1559 H1534 0.951 . S
C1559 C1557 1.388 . S
C1559 C1560 1.366 . S
C1560 C1559 1.366 . S
C1560 C1561 1.414 . S
C1560 C1563 1.499 . S
C1561 H1535 0.950 . S
C1561 C1560 1.414 . S
C1561 C1562 1.374 . S
C1562 H1536 0.950 . S
C1562 C1558 1.385 . S
C1562 C1561 1.374 . S
C1563 C1560 1.499 . S
C1563 C1564 1.373 . S
C1563 C1565 1.389 . S
C1564 H1537 0.950 . S
C1564 C1550 1.377 . S
C1564 C1563 1.373 . S
C1565 C1549 1.377 . S
C1565 C1563 1.389 . S
C1565 C1566 1.524 . S
C1566 C1565 1.524 . S
C1566 C1567 1.397 . S
C1566 C1571 1.363 . S
C1567 H1538 0.950 . S
C1567 C1566 1.397 . S
C1567 C1568 1.334 . S
C1568 H1539 0.950 . S
C1568 C1567 1.334 . S
C1568 C1569 1.287 . S
C1569 C1568 1.287 . S
C1569 C1570 1.524 . S
C1569 H1572 0.999 . S
C1570 H1540 0.950 . S
C1570 C1569 1.524 . S
C1570 C1571 1.415 . S
C1571 H1541 0.950 . S
C1571 C1566 1.363 . S
C1571 C1570 1.415 . S
H1572 C1569 0.999 . S
H1573 C1554 0.913 . S
H1574 C1592 0.951 . S
H1575 C1594 0.951 . S
H1576 C1596 0.950 . S
H1577 C1597 0.950 . S
H1578 C1599 0.950 . S
H1579 C1602 0.950 . S
H1580 C1603 0.950 . S
H1581 C1605 0.950 . S
H1582 C1606 0.950 . S
H1583 C1607 0.951 . S
H1584 C1609 0.951 . S
H1585 C1611 0.950 . S
H1586 C1612 0.950 . S
H1587 C1614 0.950 . S
H1588 C1617 0.950 . S
H1589 C1618 0.950 . S
H1590 C1620 0.950 . S
H1591 C1621 0.950 . S
C1592 H1574 0.951 . S
C1592 C1593 1.366 . S
C1592 C1594 1.388 . S
C1593 C1592 1.366 . S
C1593 C1597 1.385 . S
C1594 H1575 0.951 . S
C1594 C1592 1.388 . S
C1594 C1595 1.366 . S
C1595 C1594 1.366 . S
C1595 C1596 1.414 . S
C1595 C1598 1.499 . S
C1596 H1576 0.950 . S
C1596 C1595 1.414 . S
C1596 C1597 1.374 . S
C1597 H1577 0.950 . S
C1597 C1593 1.385 . S
C1597 C1596 1.374 . S
C1598 C1595 1.499 . S
C1598 C1599 1.373 . S
C1598 C1600 1.389 . S
C1599 H1578 0.950 . S
C1599 C1598 1.373 . S
C1599 C1615 1.377 . S
C1600 C1598 1.389 . S
C1600 C1601 1.524 . S
C1600 C1614 1.377 . S
C1601 C1600 1.524 . S
C1601 C1602 1.397 . S
C1601 C1606 1.363 . S
C1602 H1579 0.950 . S
C1602 C1601 1.397 . S
C1602 C1603 1.334 . S
C1603 H1580 0.950 . S
C1603 C1602 1.334 . S
C1603 C1604 1.287 . S
C1604 C1603 1.287 . S
C1604 C1605 1.524 . S
C1604 H1623 0.913 . S
C1605 H1581 0.950 . S
C1605 C1604 1.524 . S
C1605 C1606 1.415 . S
C1606 H1582 0.950 . S
C1606 C1601 1.363 . S
C1606 C1605 1.415 . S
C1607 H1583 0.951 . S
C1607 C1608 1.366 . S
C1607 C1609 1.388 . S
C1608 C1607 1.366 . S
C1608 C1612 1.385 . S
C1609 H1584 0.951 . S
C1609 C1607 1.388 . S
C1609 C1610 1.366 . S
C1610 C1609 1.366 . S
C1610 C1611 1.414 . S
C1610 C1613 1.499 . S
C1611 H1585 0.950 . S
C1611 C1610 1.414 . S
C1611 C1612 1.374 . S
C1612 H1586 0.950 . S
C1612 C1608 1.385 . S
C1612 C1611 1.374 . S
C1613 C1610 1.499 . S
C1613 C1614 1.373 . S
C1613 C1615 1.389 . S
C1614 H1587 0.950 . S
C1614 C1600 1.377 . S
C1614 C1613 1.373 . S
C1615 C1599 1.377 . S
C1615 C1613 1.389 . S
C1615 C1616 1.524 . S
C1616 C1615 1.524 . S
C1616 C1617 1.397 . S
C1616 C1621 1.363 . S
C1617 H1588 0.950 . S
C1617 C1616 1.397 . S
C1617 C1618 1.334 . S
C1618 H1589 0.950 . S
C1618 C1617 1.334 . S
C1618 C1619 1.287 . S
C1619 C1618 1.287 . S
C1619 C1620 1.524 . S
C1619 H1622 0.999 . S
C1620 H1590 0.950 . S
C1620 C1619 1.524 . S
C1620 C1621 1.415 . S
C1621 H1591 0.950 . S
C1621 C1616 1.363 . S
C1621 C1620 1.415 . S
H1622 C1619 0.999 . S
H1623 C1604 0.913 . S
H1624 C1642 0.951 . S
H1625 C1644 0.951 . S
H1626 C1646 0.950 . S
H1627 C1647 0.950 . S
H1628 C1649 0.950 . S
H1629 C1652 0.950 . S
H1630 C1653 0.950 . S
H1631 C1655 0.950 . S
H1632 C1656 0.950 . S
H1633 C1657 0.951 . S
H1634 C1659 0.951 . S
H1635 C1661 0.950 . S
H1636 C1662 0.950 . S
H1637 C1664 0.950 . S
H1638 C1667 0.950 . S
H1639 C1668 0.950 . S
H1640 C1670 0.950 . S
H1641 C1671 0.950 . S
C1642 H1624 0.951 . S
C1642 C1643 1.366 . S
C1642 C1644 1.388 . S
C1643 C1642 1.366 . S
C1643 C1647 1.385 . S
C1644 H1625 0.951 . S
C1644 C1642 1.388 . S
C1644 C1645 1.366 . S
C1645 C1644 1.366 . S
C1645 C1646 1.414 . S
C1645 C1648 1.499 . S
C1646 H1626 0.950 . S
C1646 C1645 1.414 . S
C1646 C1647 1.374 . S
C1647 H1627 0.950 . S
C1647 C1643 1.385 . S
C1647 C1646 1.374 . S
C1648 C1645 1.499 . S
C1648 C1649 1.373 . S
C1648 C1650 1.389 . S
C1649 H1628 0.950 . S
C1649 C1648 1.373 . S
C1649 C1665 1.377 . S
C1650 C1648 1.389 . S
C1650 C1651 1.524 . S
C1650 C1664 1.377 . S
C1651 C1650 1.524 . S
C1651 C1652 1.397 . S
C1651 C1656 1.363 . S
C1652 H1629 0.950 . S
C1652 C1651 1.397 . S
C1652 C1653 1.334 . S
C1653 H1630 0.950 . S
C1653 C1652 1.334 . S
C1653 C1654 1.287 . S
C1654 C1653 1.287 . S
C1654 C1655 1.524 . S
C1654 H1673 0.913 . S
C1655 H1631 0.950 . S
C1655 C1654 1.524 . S
C1655 C1656 1.415 . S
C1656 H1632 0.950 . S
C1656 C1651 1.363 . S
C1656 C1655 1.415 . S
C1657 H1633 0.951 . S
C1657 C1658 1.366 . S
C1657 C1659 1.388 . S
C1658 C1657 1.366 . S
C1658 C1662 1.385 . S
C1659 H1634 0.951 . S
C1659 C1657 1.388 . S
C1659 C1660 1.366 . S
C1660 C1659 1.366 . S
C1660 C1661 1.414 . S
C1660 C1663 1.499 . S
C1661 H1635 0.950 . S
C1661 C1660 1.414 . S
C1661 C1662 1.374 . S
C1662 H1636 0.950 . S
C1662 C1658 1.385 . S
C1662 C1661 1.374 . S
C1663 C1660 1.499 . S
C1663 C1664 1.373 . S
C1663 C1665 1.389 . S
C1664 H1637 0.950 . S
C1664 C1650 1.377 . S
C1664 C1663 1.373 . S
C1665 C1649 1.377 . S
C1665 C1663 1.389 . S
C1665 C1666 1.524 . S
C1666 C1665 1.524 . S
C1666 C1667 1.397 . S
C1666 C1671 1.363 . S
C1667 H1638 0.950 . S
C1667 C1666 1.397 . S
C1667 C1668 1.334 . S
C1668 H1639 0.950 . S
C1668 C1667 1.334 . S
C1668 C1669 1.287 . S
C1669 C1668 1.287 . S
C1669 C1670 1.524 . S
C1669 H1672 0.999 . S
C1670 H1640 0.950 . S
C1670 C1669 1.524 . S
C1670 C1671 1.415 . S
C1671 H1641 0.950 . S
C1671 C1666 1.363 . S
C1671 C1670 1.415 . S
H1672 C1669 0.999 . S
H1673 C1654 0.913 . S
H1674 C1692 0.951 . S
H1675 C1694 0.951 . S
H1676 C1696 0.950 . S
H1677 C1697 0.950 . S
H1678 C1699 0.950 . S
H1679 C1702 0.950 . S
H1680 C1703 0.950 . S
H1681 C1705 0.950 . S
H1682 C1706 0.950 . S
H1683 C1707 0.951 . S
H1684 C1709 0.951 . S
H1685 C1711 0.950 . S
H1686 C1712 0.950 . S
H1687 C1714 0.950 . S
H1688 C1717 0.950 . S
H1689 C1718 0.950 . S
H1690 C1720 0.950 . S
H1691 C1721 0.950 . S
C1692 H1674 0.951 . S
C1692 C1693 1.366 . S
C1692 C1694 1.388 . S
C1693 C1692 1.366 . S
C1693 C1697 1.385 . S
C1694 H1675 0.951 . S
C1694 C1692 1.388 . S
C1694 C1695 1.366 . S
C1695 C1694 1.366 . S
C1695 C1696 1.414 . S
C1695 C1698 1.499 . S
C1696 H1676 0.950 . S
C1696 C1695 1.414 . S
C1696 C1697 1.374 . S
C1697 H1677 0.950 . S
C1697 C1693 1.385 . S
C1697 C1696 1.374 . S
C1698 C1695 1.499 . S
C1698 C1699 1.373 . S
C1698 C1700 1.389 . S
C1699 H1678 0.950 . S
C1699 C1698 1.373 . S
C1699 C1715 1.377 . S
C1700 C1698 1.389 . S
C1700 C1701 1.524 . S
C1700 C1714 1.377 . S
C1701 C1700 1.524 . S
C1701 C1702 1.397 . S
C1701 C1706 1.363 . S
C1702 H1679 0.950 . S
C1702 C1701 1.397 . S
C1702 C1703 1.334 . S
C1703 H1680 0.950 . S
C1703 C1702 1.334 . S
C1703 C1704 1.287 . S
C1704 C1703 1.287 . S
C1704 C1705 1.524 . S
C1704 H1723 0.913 . S
C1705 H1681 0.950 . S
C1705 C1704 1.524 . S
C1705 C1706 1.415 . S
C1706 H1682 0.950 . S
C1706 C1701 1.363 . S
C1706 C1705 1.415 . S
C1707 H1683 0.951 . S
C1707 C1708 1.366 . S
C1707 C1709 1.388 . S
C1708 C1707 1.366 . S
C1708 C1712 1.385 . S
C1709 H1684 0.951 . S
C1709 C1707 1.388 . S
C1709 C1710 1.366 . S
C1710 C1709 1.366 . S
C1710 C1711 1.414 . S
C1710 C1713 1.499 . S
C1711 H1685 0.950 . S
C1711 C1710 1.414 . S
C1711 C1712 1.374 . S
C1712 H1686 0.950 . S
C1712 C1708 1.385 . S
C1712 C1711 1.374 . S
C1713 C1710 1.499 . S
C1713 C1714 1.373 . S
C1713 C1715 1.389 . S
C1714 H1687 0.950 . S
C1714 C1700 1.377 . S
C1714 C1713 1.373 . S
C1715 C1699 1.377 . S
C1715 C1713 1.389 . S
C1715 C1716 1.524 . S
C1716 C1715 1.524 . S
C1716 C1717 1.397 . S
C1716 C1721 1.363 . S
C1717 H1688 0.950 . S
C1717 C1716 1.397 . S
C1717 C1718 1.334 . S
C1718 H1689 0.950 . S
C1718 C1717 1.334 . S
C1718 C1719 1.287 . S
C1719 C1718 1.287 . S
C1719 C1720 1.524 . S
C1719 H1722 0.999 . S
C1720 H1690 0.950 . S
C1720 C1719 1.524 . S
C1720 C1721 1.415 . S
C1721 H1691 0.950 . S
C1721 C1716 1.363 . S
C1721 C1720 1.415 . S
H1722 C1719 0.999 . S
H1723 C1704 0.913 . S
H1724 C1742 0.951 . S
H1725 C1744 0.951 . S
H1726 C1746 0.950 . S
H1727 C1747 0.950 . S
H1728 C1749 0.950 . S
H1729 C1752 0.950 . S
H1730 C1753 0.950 . S
H1731 C1755 0.950 . S
H1732 C1756 0.950 . S
H1733 C1757 0.951 . S
H1734 C1759 0.951 . S
H1735 C1761 0.950 . S
H1736 C1762 0.950 . S
H1737 C1764 0.950 . S
H1738 C1767 0.950 . S
H1739 C1768 0.950 . S
H1740 C1770 0.950 . S
H1741 C1771 0.950 . S
C1742 H1724 0.951 . S
C1742 C1743 1.366 . S
C1742 C1744 1.388 . S
C1743 C1742 1.366 . S
C1743 C1747 1.385 . S
C1744 H1725 0.951 . S
C1744 C1742 1.388 . S
C1744 C1745 1.366 . S
C1745 C1744 1.366 . S
C1745 C1746 1.414 . S
C1745 C1748 1.499 . S
C1746 H1726 0.950 . S
C1746 C1745 1.414 . S
C1746 C1747 1.374 . S
C1747 H1727 0.950 . S
C1747 C1743 1.385 . S
C1747 C1746 1.374 . S
C1748 C1745 1.499 . S
C1748 C1749 1.373 . S
C1748 C1750 1.389 . S
C1749 H1728 0.950 . S
C1749 C1748 1.373 . S
C1749 C1765 1.377 . S
C1750 C1748 1.389 . S
C1750 C1751 1.524 . S
C1750 C1764 1.377 . S
C1751 C1750 1.524 . S
C1751 C1752 1.397 . S
C1751 C1756 1.363 . S
C1752 H1729 0.950 . S
C1752 C1751 1.397 . S
C1752 C1753 1.334 . S
C1753 H1730 0.950 . S
C1753 C1752 1.334 . S
C1753 C1754 1.287 . S
C1754 C1753 1.287 . S
C1754 C1755 1.524 . S
C1754 H1773 0.913 . S
C1755 H1731 0.950 . S
C1755 C1754 1.524 . S
C1755 C1756 1.415 . S
C1756 H1732 0.950 . S
C1756 C1751 1.363 . S
C1756 C1755 1.415 . S
C1757 H1733 0.951 . S
C1757 C1758 1.366 . S
C1757 C1759 1.388 . S
C1758 C1757 1.366 . S
C1758 C1762 1.385 . S
C1759 H1734 0.951 . S
C1759 C1757 1.388 . S
C1759 C1760 1.366 . S
C1760 C1759 1.366 . S
C1760 C1761 1.414 . S
C1760 C1763 1.499 . S
C1761 H1735 0.950 . S
C1761 C1760 1.414 . S
C1761 C1762 1.374 . S
C1762 H1736 0.950 . S
C1762 C1758 1.385 . S
C1762 C1761 1.374 . S
C1763 C1760 1.499 . S
C1763 C1764 1.373 . S
C1763 C1765 1.389 . S
C1764 H1737 0.950 . S
C1764 C1750 1.377 . S
C1764 C1763 1.373 . S
C1765 C1749 1.377 . S
C1765 C1763 1.389 . S
C1765 C1766 1.524 . S
C1766 C1765 1.524 . S
C1766 C1767 1.397 . S
C1766 C1771 1.363 . S
C1767 H1738 0.950 . S
C1767 C1766 1.397 . S
C1767 C1768 1.334 . S
C1768 H1739 0.950 . S
C1768 C1767 1.334 . S
C1768 C1769 1.287 . S
C1769 C1768 1.287 . S
C1769 C1770 1.524 . S
C1769 H1772 0.999 . S
C1770 H1740 0.950 . S
C1770 C1769 1.524 . S
C1770 C1771 1.415 . S
C1771 H1741 0.950 . S
C1771 C1766 1.363 . S
C1771 C1770 1.415 . S
H1772 C1769 0.999 . S
H1773 C1754 0.913 . S
H1774 C1792 0.951 . S
H1775 C1794 0.951 . S
H1776 C1796 0.950 . S
H1777 C1797 0.950 . S
H1778 C1799 0.950 . S
H1779 C1802 0.950 . S
H1780 C1803 0.950 . S
H1781 C1805 0.950 . S
H1782 C1806 0.950 . S
H1783 C1807 0.951 . S
H1784 C1809 0.951 . S
H1785 C1811 0.950 . S
H1786 C1812 0.950 . S
H1787 C1814 0.950 . S
H1788 C1817 0.950 . S
H1789 C1818 0.950 . S
H1790 C1820 0.950 . S
H1791 C1821 0.950 . S
C1792 H1774 0.951 . S
C1792 C1793 1.366 . S
C1792 C1794 1.388 . S
C1793 C1792 1.366 . S
C1793 C1797 1.385 . S
C1794 H1775 0.951 . S
C1794 C1792 1.388 . S
C1794 C1795 1.366 . S
C1795 C1794 1.366 . S
C1795 C1796 1.414 . S
C1795 C1798 1.499 . S
C1796 H1776 0.950 . S
C1796 C1795 1.414 . S
C1796 C1797 1.374 . S
C1797 H1777 0.950 . S
C1797 C1793 1.385 . S
C1797 C1796 1.374 . S
C1798 C1795 1.499 . S
C1798 C1799 1.373 . S
C1798 C1800 1.389 . S
C1799 H1778 0.950 . S
C1799 C1798 1.373 . S
C1799 C1815 1.377 . S
C1800 C1798 1.389 . S
C1800 C1801 1.524 . S
C1800 C1814 1.377 . S
C1801 C1800 1.524 . S
C1801 C1802 1.397 . S
C1801 C1806 1.363 . S
C1802 H1779 0.950 . S
C1802 C1801 1.397 . S
C1802 C1803 1.334 . S
C1803 H1780 0.950 . S
C1803 C1802 1.334 . S
C1803 C1804 1.287 . S
C1804 C1803 1.287 . S
C1804 C1805 1.524 . S
C1804 H1823 0.913 . S
C1805 H1781 0.950 . S
C1805 C1804 1.524 . S
C1805 C1806 1.415 . S
C1806 H1782 0.950 . S
C1806 C1801 1.363 . S
C1806 C1805 1.415 . S
C1807 H1783 0.951 . S
C1807 C1808 1.366 . S
C1807 C1809 1.388 . S
C1808 C1807 1.366 . S
C1808 C1812 1.385 . S
C1809 H1784 0.951 . S
C1809 C1807 1.388 . S
C1809 C1810 1.366 . S
C1810 C1809 1.366 . S
C1810 C1811 1.414 . S
C1810 C1813 1.499 . S
C1811 H1785 0.950 . S
C1811 C1810 1.414 . S
C1811 C1812 1.374 . S
C1812 H1786 0.950 . S
C1812 C1808 1.385 . S
C1812 C1811 1.374 . S
C1813 C1810 1.499 . S
C1813 C1814 1.373 . S
C1813 C1815 1.389 . S
C1814 H1787 0.950 . S
C1814 C1800 1.377 . S
C1814 C1813 1.373 . S
C1815 C1799 1.377 . S
C1815 C1813 1.389 . S
C1815 C1816 1.524 . S
C1816 C1815 1.524 . S
C1816 C1817 1.397 . S
C1816 C1821 1.363 . S
C1817 H1788 0.950 . S
C1817 C1816 1.397 . S
C1817 C1818 1.334 . S
C1818 H1789 0.950 . S
C1818 C1817 1.334 . S
C1818 C1819 1.287 . S
C1819 C1818 1.287 . S
C1819 C1820 1.524 . S
C1819 H1822 0.999 . S
C1820 H1790 0.950 . S
C1820 C1819 1.524 . S
C1820 C1821 1.415 . S
C1821 H1791 0.950 . S
C1821 C1816 1.363 . S
C1821 C1820 1.415 . S
H1822 C1819 0.999 . S
H1823 C1804 0.913 . S
C243 C8 1.204 . S
C258 C190 1.204 . S
C293 C162 1.203 . S
C308 C22 1.203 . S
C343 C176 1.204 . S
C358 C36 1.204 . S
C393 C148 1.204 . S
C408 C50 1.204 . S
C443 C64 1.204 . S
C458 C218 1.204 . S
C493 C78 1.204 . S
C508 C134 1.204 . S
C543 C204 1.204 . S
C558 C92 1.204 . S
C593 C106 1.203 . S
C608 C120 1.203 . S
C643 C63 1.620 . S
C658 C7 1.620 . S
C693 C21 1.620 . S
C708 C77 1.620 . S
C743 C35 1.620 . S
C758 C91 1.620 . S
C793 C105 1.621 . S
C808 C49 1.620 . S
C843 C119 1.621 . S
C858 C147 1.620 . S
C893 C133 1.620 . S
C908 C161 1.620 . S
C943 C203 1.620 . S
C958 C175 1.620 . S
C993 C189 1.620 . S
C1008 C217 1.620 . S
C1043 C73 1.367 . S
C1058 C3 1.367 1_565 S
C1093 C17 1.367 . S
C1108 C87 1.367 1_565 S
C1143 C31 1.367 1_545 S
C1158 C101 1.367 . S
C1193 C59 1.367 1_545 S
C1208 C45 1.367 . S
C1243 C65 1.112 . S
C1258 C149 1.112 . S
C1293 C37 1.112 . S
C1308 C121 1.111 . S
C1343 C163 1.111 . S
C1358 C93 1.112 . S
C1393 C135 1.111 . S
C1408 C9 1.112 . S
C1443 C115 1.367 . S
C1458 C171 1.367 . S
C1493 C143 1.367 . S
C1508 C213 1.367 . S
C1543 C185 1.367 . S
C1558 C129 1.367 . S
C1593 C157 1.367 . S
C1608 C199 1.367 . S
C1643 C205 1.112 . S
C1658 C23 1.111 . S
C1693 C191 1.112 . S
C1708 C79 1.111 . S
C1743 C219 1.112 . S
C1758 C51 1.111 . S
C1793 C177 1.112 . S
C1808 C107 1.112 . S
