# Generated by pormake.
# Topology wkj, (6)-cn, num edge types: 1
# Building blocks:
#     Node 0, Type 0, BuildingBlock: BETDIP_clean_sbu_0, # of connection points: 6
#     Node 1, Type 0, BuildingBlock: BETDIP_clean_sbu_0, # of connection points: 6
#     Node 2, Type 0, BuildingBlock: BETDIP_clean_sbu_0, # of connection points: 6
#     Node 3, Type 0, BuildingBlock: BETDIP_clean_sbu_0, # of connection points: 6
#     Node 4, Type 0, BuildingBlock: BETDIP_clean_sbu_0, # of connection points: 6
#     Node 5, Type 0, BuildingBlock: BETDIP_clean_sbu_0, # of connection points: 6
#     Node 6, Type 0, BuildingBlock: BETDIP_clean_sbu_0, # of connection points: 6
#     Node 7, Type 0, BuildingBlock: BETDIP_clean_sbu_0, # of connection points: 6
#     Node 8, Type 0, BuildingBlock: BETDIP_clean_sbu_0, # of connection points: 6
#     Node 9, Type 0, BuildingBlock: BETDIP_clean_sbu_0, # of connection points: 6
#     Node 10, Type 0, BuildingBlock: BETDIP_clean_sbu_0, # of connection points: 6
#     Node 11, Type 0, BuildingBlock: BETDIP_clean_sbu_0, # of connection points: 6
#     Edge 12, Type (0, 0), BuildingBlock: CIFDUS_clean_linker_0, # of connection points: 2
#     Edge 13, Type (0, 0), BuildingBlock: CIFDUS_clean_linker_0, # of connection points: 2
#     Edge 14, Type (0, 0), BuildingBlock: CIFDUS_clean_linker_0, # of connection points: 2
#     Edge 15, Type (0, 0), BuildingBlock: CIFDUS_clean_linker_0, # of connection points: 2
#     Edge 16, Type (0, 0), BuildingBlock: CIFDUS_clean_linker_0, # of connection points: 2
#     Edge 17, Type (0, 0), BuildingBlock: CIFDUS_clean_linker_0, # of connection points: 2
#     Edge 18, Type (0, 0), BuildingBlock: CIFDUS_clean_linker_0, # of connection points: 2
#     Edge 19, Type (0, 0), BuildingBlock: CIFDUS_clean_linker_0, # of connection points: 2
#     Edge 20, Type (0, 0), BuildingBlock: CIFDUS_clean_linker_0, # of connection points: 2
#     Edge 21, Type (0, 0), BuildingBlock: CIFDUS_clean_linker_0, # of connection points: 2
#     Edge 22, Type (0, 0), BuildingBlock: CIFDUS_clean_linker_0, # of connection points: 2
#     Edge 23, Type (0, 0), BuildingBlock: CIFDUS_clean_linker_0, # of connection points: 2
#     Edge 24, Type (0, 0), BuildingBlock: CIFDUS_clean_linker_0, # of connection points: 2
#     Edge 25, Type (0, 0), BuildingBlock: CIFDUS_clean_linker_0, # of connection points: 2
#     Edge 26, Type (0, 0), BuildingBlock: CIFDUS_clean_linker_0, # of connection points: 2
#     Edge 27, Type (0, 0), BuildingBlock: CIFDUS_clean_linker_0, # of connection points: 2
#     Edge 28, Type (0, 0), BuildingBlock: CIFDUS_clean_linker_0, # of connection points: 2
#     Edge 29, Type (0, 0), BuildingBlock: CIFDUS_clean_linker_0, # of connection points: 2
#     Edge 30, Type (0, 0), BuildingBlock: CIFDUS_clean_linker_0, # of connection points: 2
#     Edge 31, Type (0, 0), BuildingBlock: CIFDUS_clean_linker_0, # of connection points: 2
#     Edge 32, Type (0, 0), BuildingBlock: CIFDUS_clean_linker_0, # of connection points: 2
#     Edge 33, Type (0, 0), BuildingBlock: CIFDUS_clean_linker_0, # of connection points: 2
#     Edge 34, Type (0, 0), BuildingBlock: CIFDUS_clean_linker_0, # of connection points: 2
#     Edge 35, Type (0, 0), BuildingBlock: CIFDUS_clean_linker_0, # of connection points: 2
#     Edge 36, Type (0, 0), BuildingBlock: CIFDUS_clean_linker_0, # of connection points: 2
#     Edge 37, Type (0, 0), BuildingBlock: CIFDUS_clean_linker_0, # of connection points: 2
#     Edge 38, Type (0, 0), BuildingBlock: CIFDUS_clean_linker_0, # of connection points: 2
#     Edge 39, Type (0, 0), BuildingBlock: CIFDUS_clean_linker_0, # of connection points: 2
#     Edge 40, Type (0, 0), BuildingBlock: CIFDUS_clean_linker_0, # of connection points: 2
#     Edge 41, Type (0, 0), BuildingBlock: CIFDUS_clean_linker_0, # of connection points: 2
#     Edge 42, Type (0, 0), BuildingBlock: CIFDUS_clean_linker_0, # of connection points: 2
#     Edge 43, Type (0, 0), BuildingBlock: CIFDUS_clean_linker_0, # of connection points: 2
#     Edge 44, Type (0, 0), BuildingBlock: CIFDUS_clean_linker_0, # of connection points: 2
#     Edge 45, Type (0, 0), BuildingBlock: CIFDUS_clean_linker_0, # of connection points: 2
#     Edge 46, Type (0, 0), BuildingBlock: CIFDUS_clean_linker_0, # of connection points: 2
#     Edge 47, Type (0, 0), BuildingBlock: CIFDUS_clean_linker_0, # of connection points: 2
# Relax obj value: 0.906
# Max RMSD: 0.175
# Mean RMSD: 0.175
data_MOF--net-wkj--node1-BETDIP_clean_sbu_0--edge1-CIFDUS_clean_linker_0
_symmetry_space_group_name_H-M    P1
_symmetry_Int_Tables_number       1
_symmetry_cell_setting            triclinic
loop_
_symmetry_equiv_pos_as_xyz
'x, y, z'
_cell_length_a     43.44764
_cell_length_b     43.148723
_cell_length_c     26.808665
_cell_angle_alpha  90.310797
_cell_angle_beta   89.230458
_cell_angle_gamma 119.63628
loop_
_atom_site_label
_atom_site_type_symbol
_atom_site_fract_x
_atom_site_fract_y
_atom_site_fract_z
_atom_type_partial_charge
Tb0 Tb 0.47217 0.09595 0.39156 0.0
Tb1 Tb 0.54164 0.11087 0.37897 0.0
C2 C 0.41039 0.08362 0.41363 0.0
C3 C 0.38038 0.06137 0.44692 0.0
C4 C 0.38197 0.06897 0.49801 0.0
C5 C 0.35329 0.04819 0.5291 0.0
C6 C 0.32234 0.01937 0.50988 0.0
C7 C 0.32043 0.01202 0.45864 0.0
C8 C 0.34917 0.03315 0.42727 0.0
C9 C 0.51105 0.16013 0.34548 0.0
C10 C 0.52232 0.11249 0.49681 0.0
C11 C 0.60535 0.14347 0.34978 0.0
C12 C 0.62324 0.17266 0.31391 0.0
C13 C 0.60296 0.18382 0.28731 0.0
C14 C 0.61939 0.21411 0.25752 0.0
C15 C 0.65658 0.23399 0.25349 0.0
C16 C 0.67695 0.22264 0.28004 0.0
C17 C 0.66032 0.19228 0.31054 0.0
C18 C 0.50344 0.05133 0.42739 0.0
C19 C 0.48327 0.05858 0.29028 0.0
O20 O 0.41741 0.0673 0.37806 0.0
O21 O 0.43915 0.10843 0.43422 0.0
O22 O 0.51996 0.14746 0.38194 0.0
O23 O 0.48141 0.13412 0.33103 0.0
O24 O 0.49009 0.10231 0.47599 0.0
O25 O 0.54846 0.11954 0.46368 0.0
O26 O 0.59334 0.1524 0.38878 0.0
O27 O 0.58176 0.11255 0.33201 0.0
O28 O 0.49453 0.06298 0.391 0.0
O29 O 0.53745 0.07037 0.43247 0.0
O30 O 0.51765 0.08176 0.3024 0.0
O31 O 0.45968 0.05755 0.32441 0.0
H32 H 0.40551 0.09067 0.51429 0.0
H33 H 0.35599 0.05388 0.56871 0.0
H34 H 0.297 -0.01027 0.44311 0.0
H35 H 0.3472 0.02716 0.38776 0.0
H36 H 0.57431 0.1692 0.28997 0.0
H37 H 0.60275 0.22125 0.23633 0.0
H38 H 0.70558 0.23712 0.27702 0.0
H39 H 0.67631 0.18429 0.33172 0.0
Tb40 Tb 0.36868 0.47481 0.72676 0.0
Tb41 Tb 0.39577 0.54449 0.70382 0.0
C42 C 0.34231 0.41155 0.75781 0.0
C43 C 0.31388 0.38902 0.79295 0.0
C44 C 0.30799 0.40346 0.83657 0.0
C45 C 0.2856 0.38103 0.87392 0.0
C46 C 0.26856 0.34372 0.86812 0.0
C47 C 0.27096 0.32974 0.82157 0.0
C48 C 0.29384 0.35227 0.78444 0.0
C49 C 0.31957 0.49064 0.68715 0.0
C50 C 0.38827 0.52762 0.82651 0.0
C51 C 0.39883 0.60102 0.67241 0.0
C52 C 0.37855 0.61176 0.64089 0.0
C53 C 0.35286 0.58735 0.60873 0.0
C54 C 0.33343 0.59789 0.57932 0.0
C55 C 0.3397 0.63321 0.58129 0.0
C56 C 0.36434 0.65708 0.61549 0.0
C57 C 0.38354 0.64633 0.64525 0.0
C58 C 0.44588 0.54076 0.74513 0.0
C59 C 0.40617 0.49006 0.6183 0.0
O60 O 0.37023 0.4385 0.77684 0.0
O61 O 0.33243 0.42029 0.71723 0.0
O62 O 0.34183 0.50639 0.72134 0.0
O63 O 0.32559 0.46544 0.67348 0.0
O64 O 0.37263 0.49415 0.80835 0.0
O65 O 0.39836 0.55306 0.79086 0.0
O66 O 0.38222 0.58431 0.71288 0.0
O67 O 0.41526 0.58596 0.65077 0.0
O68 O 0.42306 0.516 0.71744 0.0
O69 O 0.4444 0.56976 0.74248 0.0
O70 O 0.40277 0.51975 0.62676 0.0
O71 O 0.39786 0.46923 0.65859 0.0
H72 H 0.32248 0.43189 0.84334 0.0
H73 H 0.28464 0.39302 0.90906 0.0
H74 H 0.25752 0.30122 0.81539 0.0
H75 H 0.29741 0.34079 0.7503 0.0
H76 H 0.34861 0.56051 0.60551 0.0
H77 H 0.31518 0.57897 0.5527 0.0
H78 H 0.36965 0.68435 0.61787 0.0
H79 H 0.40275 0.6652 0.67101 0.0
Tb80 Tb 0.88729 0.39244 1.06194 0.0
Tb81 Tb 0.83673 0.40496 1.0299 0.0
C82 C 0.93865 0.38188 1.07568 0.0
C83 C 0.94672 0.35917 1.10696 0.0
C84 C 0.93054 0.34765 0.15382 0.0
C85 C 0.94101 0.32897 0.18511 0.0
C86 C 0.96762 0.32111 0.1699 0.0
C87 C -0.018 0.33072 1.12144 0.0
C88 C 0.97168 0.34973 1.09028 0.0
C89 C 0.82435 0.33177 1.04377 0.0
C90 C 0.85165 0.40629 0.15794 0.0
C91 C 0.77342 0.39035 1.01674 0.0
C92 C 0.74476 0.36906 0.98207 0.0
C93 C 0.7098 0.36068 0.99342 0.0
C94 C 0.68263 0.34139 0.9594 0.0
C95 C 0.69029 0.32969 0.91449 0.0
C96 C 0.72522 0.33784 0.90369 0.0
C97 C 0.75226 0.3575 0.93705 0.0
C98 C 0.88452 0.46627 1.05423 0.0
C99 C 0.90229 0.4218 0.94774 0.0
O100 O 0.93478 0.4066 1.0985 0.0
O101 O 0.91455 0.36533 1.04208 0.0
O102 O 0.84074 0.359 1.01618 0.0
O103 O 0.84296 0.33888 1.08387 0.0
O104 O 0.87662 0.39865 1.14348 0.0
O105 O 0.83319 0.40949 1.1189 0.0
O106 O 0.78253 0.37233 1.04619 0.0
O107 O 0.80102 0.41814 0.99763 0.0
O108 O 0.87911 0.43771 1.07577 0.0
O109 O 0.86524 0.46065 1.01516 0.0
O110 O 0.86729 0.41181 0.95331 0.0
O111 O 0.91714 0.42163 0.99079 0.0
H112 H 0.91088 0.35436 0.16705 0.0
H113 H 0.92973 0.32275 0.22242 0.0
H114 H 0.00223 0.32481 1.10836 0.0
H115 H -0.01599 0.35805 1.05376 0.0
H116 H 0.70365 0.36954 1.02814 0.0
H117 H 0.65595 0.3359 0.96782 0.0
H118 H 0.73171 0.3297 0.8686 0.0
H119 H 0.77912 0.36405 0.92748 0.0
Tb120 Tb 0.49689 0.9027 0.39841 0.0
Tb121 Tb 0.43131 0.85779 0.37093 0.0
C122 C 0.56102 0.94833 0.41036 0.0
C123 C 0.58947 0.95041 0.44115 0.0
C124 C 0.58157 0.9284 0.48304 0.0
C125 C 0.60835 0.93351 0.51569 0.0
C126 C 0.6435 0.96063 0.50679 0.0
C127 C 0.65165 0.98033 0.46216 0.0
C128 C 0.62472 0.97536 0.42969 0.0
C129 C 0.48616 0.83571 0.3812 0.0
C130 C 0.44852 0.8703 0.49734 0.0
C131 C 0.37672 0.79764 0.35974 0.0
C132 C 0.36593 0.7673 0.32621 0.0
C133 C 0.33472 0.73507 0.33577 0.0
C134 C 0.32456 0.70608 0.30355 0.0
C135 C 0.34621 0.70877 0.26259 0.0
C136 C 0.37761 0.74112 0.25367 0.0
C137 C 0.38718 0.77021 0.28495 0.0
C138 C 0.42841 0.91301 0.39738 0.0
C139 C 0.48126 0.91872 0.28555 0.0
O140 O 0.53489 0.94888 0.43433 0.0
O141 O 0.5499 0.92402 0.37572 0.0
O142 O 0.47701 0.85363 0.35385 0.0
O143 O 0.50049 0.8551 0.42014 0.0
O144 O 0.48136 0.89242 0.48056 0.0
O145 O 0.42467 0.85386 0.45993 0.0
O146 O 0.40267 0.80353 0.38932 0.0
O147 O 0.38109 0.82703 0.33946 0.0
O148 O 0.44831 0.9027 0.4168 0.0
O149 O 0.41206 0.89418 0.35884 0.0
O150 O 0.45397 0.88494 0.29278 0.0
O151 O 0.49893 0.93324 0.32736 0.0
H152 H 0.55446 0.90854 0.49189 0.0
H153 H 0.6009 0.91809 0.54987 0.0
H154 H 0.6785 0.00107 0.45394 0.0
H155 H 0.63121 -0.00795 0.39681 0.0
H156 H 0.31802 0.73253 0.36763 0.0
H157 H 0.29976 0.68177 0.31026 0.0
H158 H 0.39401 0.74447 0.22111 0.0
H159 H 0.41093 0.7952 0.27659 0.0
Tb160 Tb 0.59227 0.50015 0.7217 0.0
Tb161 Tb 0.54572 0.42896 0.69923 0.0
C162 C 0.63649 0.56327 0.74598 0.0
C163 C 0.65228 0.58841 0.78752 0.0
C164 C 0.63667 0.60803 0.8053 0.0
C165 C 0.65233 0.63246 0.84376 0.0
C166 C 0.68439 0.63836 0.86456 0.0
C167 C 0.7009 0.61995 0.84505 0.0
C168 C 0.68501 0.59524 0.80678 0.0
C169 C 0.62487 0.46756 0.67585 0.0
C170 C 0.5625 0.44477 0.82006 0.0
C171 C 0.52751 0.36991 0.65835 0.0
C172 C 0.54667 0.35011 0.65378 0.0
C173 C 0.5779 0.36152 0.68066 0.0
C174 C 0.60356 0.35346 0.66349 0.0
C175 C 0.59854 0.33429 0.61883 0.0
C176 C 0.56462 0.31813 0.59711 0.0
C177 C 0.53903 0.32634 0.61422 0.0
C178 C 0.5124 0.45245 0.75019 0.0
C179 C 0.54747 0.49047 0.61806 0.0
O180 O 0.60385 0.55308 0.73369 0.0
O181 O 0.64343 0.53719 0.74365 0.0
O182 O 0.60226 0.45575 0.71138 0.0
O183 O 0.62542 0.49623 0.66098 0.0
O184 O 0.57978 0.47902 0.80382 0.0
O185 O 0.55073 0.41996 0.78329 0.0
O186 O 0.51737 0.37297 0.70321 0.0
O187 O 0.54285 0.40035 0.63459 0.0
O188 O 0.53638 0.47066 0.71823 0.0
O189 O 0.50055 0.41863 0.74439 0.0
O190 O 0.5347 0.45543 0.62958 0.0
O191 O 0.5702 0.51328 0.65187 0.0
H192 H 0.61221 0.60433 0.78984 0.0
H193 H 0.63844 0.64563 0.85845 0.0
H194 H 0.7257 0.62413 0.85999 0.0
H195 H 0.69829 0.58135 0.79243 0.0
H196 H 0.58419 0.37993 0.71153 0.0
H197 H 0.62883 0.36613 0.68173 0.0
H198 H 0.55912 0.30307 0.56281 0.0
H199 H 0.51496 0.31727 0.59315 0.0
Tb200 Tb 0.07369 0.60011 1.06209 0.0
Tb201 Tb 0.1084 0.56536 1.03151 0.0
C202 C 0.0362 0.62862 1.07846 0.0
C203 C 0.03816 0.65565 1.11345 0.0
C204 C 0.00682 0.65185 1.13414 0.0
C205 C 0.0081 0.6736 0.1735 0.0
C206 C 0.04087 0.69962 0.19286 0.0
C207 C 0.07226 0.70542 0.1689 0.0
C208 C 0.07092 0.6834 1.12966 0.0
C209 C 0.14307 0.64705 1.04647 0.0
C210 C 0.10048 0.57489 0.15916 0.0
C211 C 0.16083 0.55611 1.01664 0.0
C212 C 0.19359 0.57299 0.98608 0.0
C213 C 0.21723 0.60976 0.989 0.0
C214 C 0.24787 0.62568 0.95944 0.0
C215 C 0.25555 0.60541 0.92541 0.0
C216 C 0.23201 0.56823 0.92365 0.0
C217 C 0.2016 0.55226 0.9539 0.0
C218 C 0.04617 0.51905 1.06364 0.0
C219 C 0.05214 0.56484 0.94712 0.0
O220 O 0.02974 0.59837 1.09841 0.0
O221 O 0.06123 0.63976 1.04457 0.0
O222 O 0.12323 0.62088 1.0179 0.0
O223 O 0.1239 0.64505 1.08483 0.0
O224 O 0.08325 0.59172 1.14356 0.0
O225 O 0.11242 0.56226 1.12066 0.0
O226 O 0.15873 0.57571 1.05223 0.0
O227 O 0.13093 0.53836 0.99313 0.0
O228 O 0.06633 0.54925 1.08048 0.0
O229 O 0.06029 0.5131 1.02454 0.0
O230 O 0.08072 0.56043 0.95413 0.0
O231 O 0.04423 0.5782 0.98765 0.0
H232 H -0.01865 0.63062 1.12189 0.0
H233 H -0.0167 0.66778 0.19132 0.0
H234 H 0.09785 0.7254 0.18254 0.0
H235 H 0.09551 0.68698 1.11376 0.0
H236 H 0.21174 0.62644 1.01358 0.0
H237 H 0.26484 0.65415 0.96248 0.0
H238 H 0.23577 0.55135 0.89718 0.0
H239 H 0.1838 0.52378 0.95112 0.0
Tb240 Tb 0.88044 0.50843 0.57415 0.0
Tb241 Tb 0.85822 0.43723 0.59641 0.0
C242 C 0.90103 0.57191 0.54816 0.0
C243 C 0.91977 0.59953 0.51002 0.0
C244 C 0.95192 0.62991 0.52221 0.0
C245 C 0.96887 0.65792 0.48823 0.0
C246 C 0.9537 0.65616 0.44169 0.0
C247 C 0.92131 0.62589 0.42978 0.0
C248 C 0.90446 0.59784 0.46363 0.0
C249 C 0.81544 0.47495 0.62081 0.0
C250 C 0.8536 0.45238 0.47688 0.0
C251 C 0.82062 0.37776 0.63753 0.0
C252 C 0.78247 0.35301 0.6379 0.0
C253 C 0.75974 0.36127 0.61159 0.0
C254 C 0.72376 0.34461 0.62427 0.0
C255 C 0.71043 0.32025 0.66422 0.0
C256 C 0.73257 0.30846 0.685 0.0
C257 C 0.76839 0.32495 0.67212 0.0
C258 C 0.91357 0.46238 0.54191 0.0
C259 C 0.91779 0.49846 0.67614 0.0
O260 O 0.9199 0.56235 0.57465 0.0
O261 O 0.87016 0.54494 0.53719 0.0
O262 O 0.82719 0.46353 0.58576 0.0
O263 O 0.84245 0.50503 0.6328 0.0
O264 O 0.87116 0.48673 0.4925 0.0
O265 O 0.84143 0.42773 0.51387 0.0
O266 O 0.83729 0.38169 0.59519 0.0
O267 O 0.82973 0.40829 0.65919 0.0
O268 O 0.90779 0.47957 0.57567 0.0
O269 O 0.89233 0.42841 0.54653 0.0
O270 O 0.89651 0.46345 0.6645 0.0
O271 O 0.91626 0.52123 0.64329 0.0
H272 H 0.96386 0.63209 0.55822 0.0
H273 H -0.0061 0.68086 0.49818 0.0
H274 H 0.90944 0.62338 0.39363 0.0
H275 H 0.87949 0.57494 0.4534 0.0
H276 H 0.77032 0.38284 0.58464 0.0
H277 H 0.70742 0.35369 0.60666 0.0
H278 H 0.72368 0.28981 0.71584 0.0
H279 H 0.78564 0.31819 0.69251 0.0
Tb280 Tb 0.36887 0.89542 0.91888 0.0
Tb281 Tb 0.40301 0.85819 0.93536 0.0
C282 C 0.3333 0.92433 0.89367 0.0
C283 C 0.32157 0.93561 0.85026 0.0
C284 C 0.33306 0.93304 0.80225 0.0
C285 C 0.31825 0.93993 0.76098 0.0
C286 C 0.29167 0.94936 0.7672 0.0
C287 C 0.28063 0.95237 0.81551 0.0
C288 C 0.29543 0.94537 0.8568 0.0
C289 C 0.32715 0.83069 0.96424 0.0
C290 C 0.39313 0.8678 0.81436 0.0
C291 C 0.40819 0.8034 0.95056 0.0
C292 C 0.38104 0.7689 0.97056 0.0
C293 C 0.35526 0.76797 1.0033 0.0
C294 C 0.32953 0.73594 1.02362 0.0
C295 C 0.32926 0.7039 1.01245 0.0
C296 C 0.35379 0.70448 0.97704 0.0
C297 C 0.3795 0.73689 0.95601 0.0
C298 C 0.45123 0.91927 0.90488 0.0
C299 C 0.40974 0.91853 1.0234 0.0
O300 O 0.36683 0.94241 0.9052 0.0
O301 O 0.32069 0.89005 0.8969 0.0
O302 O 0.34789 0.83849 0.92756 0.0
O303 O 0.33216 0.86107 0.98054 0.0
O304 O 0.37558 0.88367 0.83497 0.0
O305 O 0.40768 0.85596 0.84848 0.0
O306 O 0.40085 0.81153 0.90745 0.0
O307 O 0.41959 0.83019 0.9815 0.0
O308 O 0.41917 0.9043 0.89251 0.0
O309 O 0.45622 0.90125 0.93905 0.0
O310 O 0.40753 0.88624 1.0139 0.0
O311 O 0.3991 0.93033 0.98512 0.0
H312 H 0.3531 0.92536 0.79667 0.0
H313 H 0.32802 0.93841 0.72417 0.0
H314 H 0.26042 0.95982 0.82127 0.0
H315 H 0.28603 0.94695 0.89386 0.0
H316 H 0.3557 0.7923 1.01464 0.0
H317 H 0.31167 0.73699 1.05128 0.0
H318 H 0.35424 0.68025 0.96774 0.0
H319 H 0.39877 0.73709 0.92975 0.0
Tb320 Tb 0.46697 0.37351 0.24466 0.0
Tb321 Tb 0.53857 0.42269 0.2628 0.0
C322 C 0.40426 0.32982 0.22003 0.0
C323 C 0.37978 0.32134 0.17864 0.0
C324 C 0.39204 0.32695 1.12912 0.0
C325 C 0.36799 0.31563 1.0902 0.0
C326 C 0.33138 0.29884 1.1002 0.0
C327 C 0.3192 0.29423 0.14978 0.0
C328 C 0.34333 0.30523 0.18882 0.0
C329 C 0.50133 0.34289 0.29118 0.0
C330 C 0.52133 0.40455 1.14282 0.0
C331 C 0.60008 0.44449 0.29563 0.0
C332 C 0.61382 0.42549 0.32497 0.0
C333 C 0.65025 0.43733 0.32648 0.0
C334 C 0.66257 0.41719 0.35151 0.0
C335 C 0.63845 0.38461 0.37421 0.0
C336 C 0.60198 0.37275 0.37153 0.0
C337 C 0.58987 0.39304 0.34742 0.0
C338 C 0.51022 0.45261 0.21224 0.0
C339 C 0.47833 0.41936 0.3494 0.0
O340 O 0.41297 0.35912 0.24459 0.0
O341 O 0.4313 0.32507 0.21185 0.0
O342 O 0.51197 0.3652 0.25551 0.0
O343 O 0.4712 0.33985 0.30382 0.0
O344 O 0.48766 0.38509 0.16115 0.0
O345 O 0.54652 0.41983 0.17794 0.0
O346 O 0.58993 0.43121 0.25135 0.0
O347 O 0.57672 0.4508 0.31769 0.0
O348 O 0.49541 0.42962 0.24618 0.0
O349 O 0.54417 0.46525 0.2137 0.0
O350 O 0.51276 0.42944 0.33761 0.0
O351 O 0.45498 0.39762 0.31516 0.0
H352 H 0.42011 0.33959 1.12051 0.0
H353 H 0.37806 0.32039 1.05218 0.0
H354 H 0.29113 0.28175 0.15825 0.0
H355 H 0.33353 0.30071 0.22698 0.0
H356 H 0.66907 0.46211 0.30853 0.0
H357 H 0.69081 0.42725 0.35388 0.0
H358 H 0.58277 0.3485 0.3902 0.0
H359 H 0.5617 0.38349 0.34661 0.0
Tb360 Tb 0.06752 0.47128 0.57447 0.0
Tb361 Tb 0.11204 0.5403 0.59917 0.0
C362 C 0.02712 0.40898 0.54319 0.0
C363 C 0.02843 0.38416 0.50679 0.0
C364 C 0.04635 0.39647 0.46114 0.0
C365 C 0.0427 0.37232 0.42388 0.0
C366 C 0.02128 0.33528 0.43168 0.0
C367 C 0.00611 0.32312 0.47926 0.0
C368 C 0.0095 0.34743 0.51643 0.0
C369 C 0.13284 0.48463 0.60733 0.0
C370 C 0.10276 0.52356 0.47618 0.0
C371 C 0.16733 0.5895 0.63767 0.0
C372 C 0.20265 0.59379 0.64676 0.0
C373 C 0.20594 0.56749 0.67262 0.0
C374 C 0.23908 0.57307 0.68605 0.0
C375 C 0.26991 0.60562 0.67522 0.0
C376 C 0.26682 0.63072 0.64544 0.0
C377 C 0.23341 0.62479 0.63125 0.0
C378 C 0.06051 0.54227 0.56279 0.0
C379 C 0.04531 0.48742 0.68269 0.0
O380 O 0.02791 0.43746 0.52529 0.0
O381 O 0.04722 0.41607 0.58198 0.0
O382 O 0.12538 0.50129 0.57557 0.0
O383 O 0.10252 0.46024 0.62427 0.0
O384 O 0.0831 0.49019 0.49359 0.0
O385 O 0.11919 0.5485 0.51211 0.0
O386 O 0.15914 0.58946 0.59117 0.0
O387 O 0.14095 0.56477 0.66343 0.0
O388 O 0.05707 0.51497 0.58667 0.0
O389 O 0.09038 0.57076 0.57052 0.0
O390 O 0.07762 0.51726 0.67427 0.0
O391 O 0.03368 0.46591 0.64324 0.0
H392 H 0.06153 0.42474 0.45315 0.0
H393 H 0.05447 0.38304 0.38774 0.0
H394 H -0.01004 0.29487 0.48689 0.0
H395 H -0.00404 0.33751 0.55191 0.0
H396 H 0.18275 0.54334 0.68518 0.0
H397 H 0.23988 0.55325 0.70973 0.0
H398 H 0.28994 0.65608 0.63653 0.0
H399 H 0.2315 0.64525 0.61055 0.0
Tb400 Tb 0.60547 0.08993 0.91468 0.0
Tb401 Tb 0.55832 0.11527 0.93089 0.0
C402 C 0.65122 0.07241 0.89011 0.0
C403 C 0.66558 0.06273 0.84638 0.0
C404 C 0.6478 0.0284 0.82597 0.0
C405 C 0.661 0.02034 0.78315 0.0
C406 C 0.69265 0.04635 0.76036 0.0
C407 C 0.71165 0.08001 0.78281 0.0
C408 C 0.69825 0.08808 0.82546 0.0
C409 C 0.63651 0.15352 0.96274 0.0
C410 C 0.57713 0.1143 0.81209 0.0
C411 C 0.53697 0.15556 0.96695 0.0
C412 C 0.55636 0.19339 0.98072 0.0
C413 C 0.59036 0.21579 0.961 0.0
C414 C 0.61245 0.24868 0.98324 0.0
C415 C 0.60124 0.2594 1.02619 0.0
C416 C 0.56558 0.23851 1.04192 0.0
C417 C 0.54344 0.20573 1.01946 0.0
C418 C 0.52738 0.0568 0.88163 0.0
C419 C 0.55681 0.05627 1.01681 0.0
O420 O 0.61945 0.04975 0.90648 0.0
O421 O 0.65687 0.10499 0.89062 0.0
O422 O 0.61598 0.14455 0.92527 0.0
O423 O 0.63535 0.12459 0.97759 0.0
O424 O 0.59493 0.09867 0.8316 0.0
O425 O 0.56329 0.12715 0.84627 0.0
O426 O 0.53644 0.14852 0.91962 0.0
O427 O 0.54429 0.13499 0.9938 0.0
O428 O 0.54978 0.06389 0.91555 0.0
O429 O 0.51542 0.07893 0.88357 0.0
O430 O 0.54605 0.07982 1.00317 0.0
O431 O 0.58033 0.05478 0.98485 0.0
H432 H 0.62334 0.00803 0.84238 0.0
H433 H 0.64539 -0.00576 0.76659 0.0
H434 H 0.73632 0.10044 0.76654 0.0
H435 H 0.71313 0.11449 0.84147 0.0
H436 H 0.60082 0.20669 0.93092 0.0
H437 H 0.63943 0.26401 0.9699 0.0
H438 H 0.55562 0.24529 1.075 0.0
H439 H 0.51723 0.18876 1.0351 0.0
Tb440 Tb 0.49489 0.60554 0.24558 0.0
Tb441 Tb 0.42567 0.56568 0.26697 0.0
C442 C 0.55787 0.64701 0.21892 0.0
C443 C 0.58366 0.66065 0.178 0.0
C444 C 0.61944 0.67369 0.18884 0.0
C445 C 0.64517 0.689 0.15136 0.0
C446 C 0.63537 0.69167 1.10262 0.0
C447 C 0.59946 0.67911 1.09212 0.0
C448 C 0.57373 0.66363 1.12956 0.0
C449 C 0.46928 0.64306 0.29714 0.0
C450 C 0.44245 0.57963 1.14426 0.0
C451 C 0.36241 0.54652 0.29103 0.0
C452 C 0.33818 0.56092 0.29192 0.0
C453 C 0.3506 0.59707 0.28246 0.0
C454 C 0.3315 0.61313 0.30025 0.0
C455 C 0.30021 0.59357 0.32892 0.0
C456 C 0.28546 0.55612 0.33083 0.0
C457 C 0.30446 0.54008 0.31278 0.0
C458 C 0.44472 0.5222 0.23333 0.0
C459 C 0.4825 0.56104 0.34826 0.0
O460 O 0.54674 0.61442 0.23442 0.0
O461 O 0.53266 0.65511 0.2178 0.0
O462 O 0.45608 0.62277 0.25998 0.0
O463 O 0.49505 0.63832 0.31054 0.0
O464 O 0.47587 0.5972 0.16263 0.0
O465 O 0.41702 0.5654 0.18048 0.0
O466 O 0.37172 0.53981 0.24771 0.0
O467 O 0.38923 0.56242 0.32105 0.0
O468 O 0.45749 0.55406 0.2197 0.0
O469 O 0.42461 0.51561 0.27231 0.0
O470 O 0.44995 0.55777 0.34176 0.0
O471 O 0.50411 0.57598 0.30901 0.0
H472 H 0.62747 0.67201 0.22638 0.0
H473 H 0.67261 0.69817 0.16018 0.0
H474 H 0.59107 0.67995 1.05451 0.0
H475 H 0.5462 0.65391 1.12067 0.0
H476 H 0.37655 0.61352 0.26571 0.0
H477 H 0.34354 0.64157 0.29611 0.0
H478 H 0.26137 0.53925 0.35149 0.0
H479 H 0.29433 0.51195 0.31984 0.0
H480 H 0.50497 0.19597 0.26351 0.0
H481 H 0.52834 0.21069 0.42024 0.0
H482 H 0.52771 0.26728 0.4182 0.0
H483 H 0.51607 0.31165 0.37284 0.0
H484 H 0.49854 0.29935 0.21449 0.0
H485 H 0.50115 0.24392 0.21635 0.0
C486 C 0.51055 0.21176 0.2972 0.0
C487 C 0.51676 0.19823 0.34212 0.0
C488 C 0.51068 0.24511 0.29557 0.0
C489 C 0.52379 0.21978 0.38497 0.0
C490 C 0.5231 0.25233 0.38386 0.0
C491 C 0.51334 0.29719 0.33852 0.0
C492 C 0.50704 0.31046 0.29334 0.0
C493 C 0.51593 0.26517 0.33959 0.0
C494 C 0.50357 0.29061 0.24973 0.0
C495 C 0.50494 0.25852 0.25084 0.0
H496 H 0.29255 0.50881 0.60457 0.0
H497 H 0.26384 0.46801 0.7542 0.0
H498 H 0.20451 0.4606 0.74307 0.0
H499 H 0.15905 0.46476 0.69003 0.0
H500 H 0.19121 0.51362 0.54494 0.0
H501 H 0.24969 0.51926 0.55532 0.0
C502 C 0.27369 0.4989 0.63526 0.0
C503 C 0.28366 0.4892 0.68062 0.0
C504 C 0.23941 0.49584 0.62912 0.0
C505 C 0.2578 0.47595 0.71906 0.0
C506 C 0.22346 0.47155 0.71252 0.0
C507 C 0.1787 0.47648 0.66043 0.0
C508 C 0.16951 0.48805 0.61596 0.0
C509 C 0.21359 0.48108 0.66755 0.0
C510 C 0.19647 0.504 0.57922 0.0
C511 C 0.23034 0.5073 0.58524 0.0
H512 H 0.77691 0.31061 0.96207 0.0
H513 H 0.79224 0.27225 1.10231 0.0
H514 H 0.73742 0.21594 1.09085 0.0
H515 H 0.68348 0.1763 1.04203 0.0
H516 H 0.66673 0.21336 0.90198 0.0
H517 H 0.7218 0.27036 0.91278 0.0
C518 C 0.76809 0.29024 0.99053 0.0
C519 C 0.78954 0.29682 1.03359 0.0
C520 C 0.7353 0.25723 0.98407 0.0
C521 C 0.77715 0.26892 1.06892 0.0
C522 C 0.7454 0.23628 1.06234 0.0
C523 C 0.69149 0.19695 1.01397 0.0
C524 C 0.66961 0.19012 0.9715 0.0
C525 C 0.7239 0.23001 1.02036 0.0
C526 C 0.68166 0.21767 0.93576 0.0
C527 C 0.71367 0.25045 0.94185 0.0
H528 H 0.49593 0.69096 0.37686 0.0
H529 H 0.44028 0.67453 0.23894 0.0
H530 H 0.44142 0.73154 0.25004 0.0
H531 H 0.45896 0.78797 0.29885 0.0
H532 H 0.51085 0.8015 0.43951 0.0
H533 H 0.51046 0.74525 0.42734 0.0
C534 C 0.48368 0.69955 0.34931 0.0
C535 C 0.468 0.67759 0.30684 0.0
C536 C 0.48371 0.73258 0.3565 0.0
C537 C 0.45241 0.69003 0.2721 0.0
C538 C 0.45306 0.723 0.27849 0.0
C539 C 0.46964 0.77846 0.32729 0.0
C540 C 0.48469 0.79986 0.37055 0.0
C541 C 0.46866 0.74481 0.32054 0.0
C542 C 0.49903 0.78647 0.40589 0.0
C543 C 0.49878 0.75387 0.39897 0.0
H544 H 0.67363 0.48607 0.59713 0.0
H545 H 0.65144 0.43897 0.74371 0.0
H546 H 0.70702 0.43717 0.74049 0.0
H547 H 0.76351 0.44957 0.69672 0.0
H548 H 0.78375 0.49342 0.54827 0.0
H549 H 0.72811 0.49501 0.55128 0.0
C550 C 0.68053 0.47485 0.62822 0.0
C551 C 0.65752 0.46268 0.67079 0.0
C552 C 0.7126 0.47292 0.62563 0.0
C553 C 0.66775 0.44835 0.71028 0.0
C554 C 0.69982 0.44724 0.70842 0.0
C555 C 0.75557 0.459 0.66466 0.0
C556 C 0.77841 0.47111 0.62193 0.0
C557 C 0.72269 0.45946 0.6664 0.0
C558 C 0.76712 0.48349 0.58136 0.0
C559 C 0.73514 0.48466 0.58326 0.0
H560 H 0.27459 0.808 1.03881 0.0
H561 H 0.30507 0.76881 0.91026 0.0
H562 H 0.25266 0.70983 0.92156 0.0
H563 H 0.19569 0.66791 0.96771 0.0
H564 H 0.16845 0.70848 1.09858 0.0
H565 H 0.22025 0.7664 1.08611 0.0
C566 C 0.26991 0.78669 1.0131 0.0
C567 C 0.29441 0.79385 0.97331 0.0
C568 C 0.23933 0.75211 1.02002 0.0
C569 C 0.28715 0.76498 0.94107 0.0
C570 C 0.25683 0.73082 0.94755 0.0
C571 C 0.20098 0.68929 0.9936 0.0
C572 C 0.17688 0.68261 1.03421 0.0
C573 C 0.23226 0.72378 0.9868 0.0
C574 C 0.18545 0.71162 1.06685 0.0
C575 C 0.21557 0.74538 1.05984 0.0
H576 H 0.66848 0.27176 1.04187 0.0
H577 H 0.59508 0.30566 1.0926 0.0
H578 H 0.61875 0.31387 0.17656 0.0
H579 H 0.64144 0.28718 0.23665 0.0
H580 H 0.70742 0.24491 0.1838 0.0
H581 H 0.70762 0.26681 1.10032 0.0
C582 C 0.65857 0.28266 1.0703 0.0
C583 C 0.62777 0.28496 1.06204 0.0
C584 C 0.67084 0.2852 1.11897 0.0
C585 C 0.6172 0.30126 1.0989 0.0
C586 C 0.63063 0.3058 1.1471 0.0
C587 C 0.65711 0.28416 0.20716 0.0
C588 C 0.67256 0.26265 0.21545 0.0
C589 C 0.65448 0.29387 0.15827 0.0
C590 C 0.6943 0.26036 0.17805 0.0
C591 C 0.69398 0.27238 1.12996 0.0
H592 H 0.33958 0.6617 0.36759 0.0
H593 H 0.23532 0.56899 0.37962 0.0
H594 H 0.23421 0.57984 0.46865 0.0
H595 H 0.27289 0.60193 0.54284 0.0
H596 H 0.3771 0.69391 0.52704 0.0
H597 H 0.36685 0.69831 0.43939 0.0
C598 C 0.31564 0.64432 0.38819 0.0
C599 C 0.28943 0.61184 0.36764 0.0
C600 C 0.31532 0.65056 0.43936 0.0
C601 C 0.25775 0.59214 0.39541 0.0
C602 C 0.2569 0.59843 0.4465 0.0
C603 C 0.29264 0.62391 0.52064 0.0
C604 C 0.3264 0.64628 0.54052 0.0
C605 C 0.28729 0.62528 0.46941 0.0
C606 C 0.35122 0.67564 0.51232 0.0
C607 C 0.34556 0.67794 0.46181 0.0
H608 H 0.66916 0.36214 0.8501 0.0
H609 H 0.6557 0.25974 0.8886 0.0
H610 H 0.64344 0.24034 0.8023 0.0
H611 H 0.66126 0.26185 0.71674 0.0
H612 H 0.69069 0.37059 0.68193 0.0
H613 H 0.66894 0.377 0.76263 0.0
C614 C 0.66131 0.33487 0.83979 0.0
C615 C 0.66387 0.31249 0.8751 0.0
C616 C 0.65805 0.32542 0.78925 0.0
C617 C 0.65386 0.27728 0.86187 0.0
C618 C 0.64751 0.26649 0.81215 0.0
C619 C 0.66165 0.28652 0.72619 0.0
C620 C 0.67964 0.31623 0.69445 0.0
C621 C 0.65336 0.29171 0.77518 0.0
C622 C 0.67812 0.34735 0.70587 0.0
C623 C 0.66641 0.35149 0.75279 0.0
H624 H 0.35473 0.66502 1.0559 0.0
H625 H 0.26153 0.67589 1.05035 0.0
H626 H 0.25048 0.66222 1.1386 0.0
H627 H 0.28304 0.67652 0.21692 0.0
H628 H 0.38317 0.67883 0.2215 0.0
H629 H 0.37598 0.65762 1.1358 0.0
C630 C 0.33085 0.66232 1.07333 0.0
C631 C 0.31022 0.67363 1.04756 0.0
C632 C 0.3271 0.65859 1.12523 0.0
C633 C 0.27844 0.66828 1.06989 0.0
C634 C 0.27261 0.66134 1.12087 0.0
C635 C 0.30228 0.6705 0.19993 0.0
C636 C 0.33429 0.68067 0.22418 0.0
C637 C 0.2992 0.66103 0.14945 0.0
C638 C 0.35889 0.67229 0.20247 0.0
C639 C 0.3548 0.66029 0.15342 0.0
H640 H 0.68579 0.41424 0.44782 0.0
H641 H 0.61609 0.31305 0.37977 0.0
H642 H 0.60877 0.28281 0.45928 0.0
H643 H 0.60397 0.28975 0.54953 0.0
H644 H 0.66459 0.39422 0.61492 0.0
H645 H 0.69604 0.41732 0.53716 0.0
C646 C 0.6707 0.38535 0.44973 0.0
C647 C 0.65017 0.36603 0.40893 0.0
C648 C 0.66448 0.36859 0.49631 0.0
C649 C 0.6313 0.32855 0.41141 0.0
C650 C 0.6268 0.31129 0.45708 0.0
C651 C 0.62488 0.31734 0.54716 0.0
C652 C 0.62963 0.34067 0.58701 0.0
C653 C 0.64025 0.33165 0.50049 0.0
C654 C 0.65874 0.37561 0.58458 0.0
C655 C 0.67661 0.38925 0.53951 0.0
H656 H 0.29319 0.57865 0.8746 0.0
H657 H 0.28447 0.67409 0.88759 0.0
H658 H 0.30932 0.69232 0.80539 0.0
H659 H 0.30748 0.66885 0.72261 0.0
H660 H 0.30313 0.56771 0.70415 0.0
H661 H 0.31121 0.56488 0.79353 0.0
C662 C 0.297 0.60365 0.8598 0.0
C663 C 0.28402 0.62321 0.88643 0.0
C664 C 0.30856 0.61277 0.81016 0.0
C665 C 0.29246 0.65717 0.86814 0.0
C666 C 0.30665 0.66779 0.82032 0.0
C667 C 0.31015 0.64701 0.73759 0.0
C668 C 0.30096 0.61671 0.7081 0.0
C669 C 0.31087 0.6439 0.78945 0.0
C670 C 0.30771 0.59031 0.72708 0.0
C671 C 0.31153 0.58831 0.77851 0.0
H672 H 0.44919 -0.0038 1.05194 0.0
H673 H 0.39773 0.89376 1.12442 0.0
H674 H 0.41159 0.92371 0.20592 0.0
H675 H 0.4402 0.98028 0.26276 0.0
H676 H 0.49689 0.08231 0.18969 0.0
H677 H 0.4797 0.05244 1.10844 0.0
C678 C 0.44067 0.97962 1.08502 0.0
C679 C 0.42142 0.94058 1.07741 0.0
C680 C 0.4502 -0.00205 1.13483 0.0
C681 C 0.41219 0.92261 1.12457 0.0
C682 C 0.4203 0.9404 0.17294 0.0
C683 C 0.44922 -0.00324 0.22959 0.0
C684 C 0.47103 0.03573 0.23693 0.0
C685 C 0.43972 0.97834 0.17975 0.0
C686 C 0.48091 0.05353 0.18969 0.0
C687 C 0.47064 0.03581 1.14147 0.0
H688 H 0.43683 0.45699 0.37783 0.0
H689 H 0.48966 0.40784 0.45029 0.0
H690 H 0.47212 0.42085 0.53168 0.0
H691 H 0.44262 0.44824 0.58878 0.0
H692 H 0.39644 0.50419 0.51687 0.0
H693 H 0.40978 0.48708 0.43526 0.0
C694 C 0.44488 0.44867 0.41086 0.0
C695 C 0.46566 0.43017 0.40307 0.0
C696 C 0.43538 0.45803 0.46094 0.0
C697 C 0.47445 0.42152 0.45038 0.0
C698 C 0.46394 0.42918 0.49877 0.0
C699 C 0.43511 0.45718 0.55583 0.0
C700 C 0.41743 0.47871 0.56388 0.0
C701 C 0.44459 0.44789 0.50579 0.0
C702 C 0.40962 0.48848 0.51665 0.0
C703 C 0.41742 0.47817 0.46813 0.0
H704 H 0.96765 0.44852 0.70978 0.0
H705 H 0.06805 0.50016 0.78399 0.0
H706 H 0.03683 0.48405 0.86494 0.0
H707 H 0.97978 0.4568 0.92062 0.0
H708 H 0.8795 0.41076 0.84628 0.0
H709 H 0.91063 0.42306 0.76542 0.0
C710 C -0.01651 0.45672 0.74315 0.0
C711 C 0.0224 0.47676 0.73626 0.0
C712 C 0.96435 0.44809 0.79262 0.0
C713 C 0.0394 0.48563 0.78366 0.0
C714 C 0.02086 0.47595 0.83167 0.0
C715 C 0.96394 0.44909 0.88724 0.0
C716 C 0.92509 0.43194 0.89408 0.0
C717 C -0.01693 0.45751 0.83778 0.0
C718 C 0.90811 0.42363 0.84666 0.0
C719 C 0.92658 0.43079 0.7987 0.0
H720 H 0.52356 -0.00419 0.25576 0.0
H721 H 0.46855 0.89296 0.18526 0.0
H722 H 0.48633 0.92207 1.10321 0.0
H723 H 0.5171 0.97806 1.04542 0.0
H724 H 0.56781 0.08091 1.11645 0.0
H725 H 0.55295 0.05157 0.19832 0.0
C726 C 0.51501 0.97899 0.22299 0.0
C727 C 0.49339 0.94017 0.23121 0.0
C728 C 0.52514 -0.00315 0.1729 0.0
C729 C 0.48427 0.92175 0.18451 0.0
C730 C 0.49491 0.93902 1.13586 0.0
C731 C 0.52528 -0.00521 1.07828 0.0
C732 C 0.5447 0.03378 1.07031 0.0
C733 C 0.51523 0.97683 1.1284 0.0
C734 C 0.55339 0.05205 1.11709 0.0
C735 C 0.54466 0.03467 0.16561 0.0
H736 H 0.55071 0.48766 0.50494 0.0
H737 H 0.51189 0.53036 0.61927 0.0
H738 H 0.4895 0.554 0.55481 0.0
H739 H 0.47762 0.56312 0.46222 0.0
H740 H 0.52084 0.52446 0.34831 0.0
H741 H 0.543 0.50082 0.41279 0.0
C742 C 0.53728 0.50193 0.51695 0.0
C743 C 0.53332 0.50516 0.57117 0.0
C744 C 0.5243 0.51714 0.47746 0.0
C745 C 0.51603 0.52556 0.58074 0.0
C746 C 0.50284 0.5397 0.54251 0.0
C747 C 0.49162 0.54941 0.45031 0.0
C748 C 0.49548 0.54592 0.39606 0.0
C749 C 0.50607 0.53567 0.48995 0.0
C750 C 0.51559 0.52831 0.38677 0.0
C751 C 0.52888 0.51437 0.42501 0.0
H752 H 0.05985 0.56698 0.83167 0.0
H753 H 0.97755 0.53174 0.94349 0.0
H754 H 0.93322 0.51029 0.87994 0.0
H755 H 0.91259 0.4974 0.78871 0.0
H756 H -0.00688 0.53615 0.67396 0.0
H757 H 0.03895 0.55858 0.73827 0.0
C758 C 0.03238 0.55457 0.84345 0.0
C759 C 0.02491 0.5515 0.8979 0.0
C760 C 0.0045 0.54193 0.80343 0.0
C761 C -0.01258 0.53549 0.90604 0.0
C762 C 0.96065 0.52265 0.86783 0.0
C763 C 0.94001 0.51055 0.77649 0.0
C764 C 0.94691 0.51301 0.72235 0.0
C765 C 0.96804 0.52494 0.81571 0.0
C766 C -0.01566 0.532 0.71255 0.0
C767 C 0.01158 0.54543 0.75073 0.0
H768 H 0.43666 0.03709 0.43585 0.0
H769 H 0.51483 0.02484 0.51525 0.0
H770 H 0.46849 0.96881 0.55022 0.0
H771 H 0.43205 0.91916 0.49766 0.0
H772 H 0.38026 0.93475 0.37302 0.0
H773 H 0.3813 0.98517 0.4156 0.0
C774 C 0.44301 0.02226 0.46193 0.0
C775 C 0.4786 0.0318 0.46809 0.0
C776 C 0.4178 0.9871 0.47162 0.0
C777 C 0.48745 0.01582 0.50628 0.0
C778 C 0.46069 0.98381 0.52615 0.0
C779 C 0.42033 0.93321 0.4804 0.0
C780 C 0.41058 0.92678 0.43008 0.0
C781 C 0.4289 0.96646 0.49935 0.0
C782 C 0.3911 0.94158 0.41018 0.0
C783 C 0.39185 0.97047 0.43487 0.0
H784 H 0.42377 0.48789 0.81263 0.0
H785 H 0.51272 0.5887 0.77089 0.0
H786 H 0.55208 0.57324 0.81449 0.0
H787 H 0.55219 0.51806 0.7896 0.0
H788 H 0.46041 0.41628 0.81967 0.0
H789 H 0.43244 0.44547 0.86315 0.0
C790 C 0.45136 0.50726 0.81551 0.0
C791 C 0.4663 0.53703 0.7843 0.0
C792 C 0.47351 0.49807 0.84046 0.0
C793 C 0.50156 0.56365 0.79099 0.0
C794 C 0.52383 0.55524 0.81721 0.0
C795 C 0.52696 0.50231 0.80831 0.0
C796 C 0.5061 0.46622 0.79649 0.0
C797 C 0.51032 0.51946 0.83033 0.0
C798 C 0.47522 0.44495 0.82444 0.0
C799 C 0.45956 0.4617 0.85011 0.0
H800 H 0.90293 0.48395 0.1562 0.0
H801 H 0.9025 0.53635 1.02367 0.0
H802 H 0.96508 0.55527 1.00745 0.0
H803 H -0.00046 0.52128 1.00783 0.0
H804 H 0.01247 0.48365 0.14874 0.0
H805 H 0.95683 0.48024 0.17944 0.0
C806 C 0.91727 0.50002 1.12412 0.0
C807 C 0.89853 0.50013 1.08198 0.0
C808 C 0.95132 0.50599 1.11354 0.0
C809 C 0.91669 0.52918 1.0499 0.0
C810 C 0.95165 0.53852 1.03925 0.0
C811 C -0.0081 0.5152 1.04609 0.0
C812 C 0.00926 0.5027 1.07539 0.0
C813 C 0.96643 0.52154 1.06678 0.0
C814 C -0.0023 0.49149 1.12459 0.0
C815 C 0.96748 0.4915 1.14302 0.0
H816 H 0.03123 0.49384 0.49004 0.0
H817 H 0.04477 0.59408 0.54191 0.0
H818 H -0.00556 0.58522 0.4923 0.0
H819 H 0.93777 0.52948 0.50767 0.0
H820 H 0.92881 0.42892 0.46645 0.0
H821 H -0.01349 0.45976 0.4261 0.0
C822 C 0.02529 0.51516 0.48735 0.0
C823 C 0.03864 0.5424 0.52269 0.0
C824 C -0.00236 0.51061 0.45704 0.0
C825 C 0.03186 0.57084 0.51809 0.0
C826 C 0.00407 0.56645 0.48817 0.0
C827 C 0.94784 0.51454 0.48727 0.0
C828 C 0.93242 0.47776 0.49527 0.0
C829 C -0.01757 0.53235 0.4687 0.0
C830 C 0.94254 0.45778 0.46471 0.0
C831 C 0.97545 0.47559 0.44112 0.0
H832 H 0.44124 0.939 0.81435 0.0
H833 H 0.51801 0.92661 0.89906 0.0
H834 H 0.56475 0.97015 0.8462 0.0
H835 H 0.5687 0.02919 0.85504 0.0
H836 H 0.48493 0.04422 0.79981 0.0
H837 H 0.46153 0.98836 0.7542 0.0
C838 C 0.4683 0.94498 0.81999 0.0
C839 C 0.47708 0.93379 0.86412 0.0
C840 C 0.4953 0.97299 0.79301 0.0
C841 C 0.5112 0.93838 0.86859 0.0
C842 C 0.53782 0.9627 0.83716 0.0
C843 C 0.54604 0.02054 0.83142 0.0
C844 C 0.5254 0.03706 0.83615 0.0
C845 C 0.53013 0.98622 0.81156 0.0
C846 C 0.49887 0.02924 0.80109 0.0
C847 C 0.48596 -0.0025 0.77444 0.0
H848 H 0.47015 0.53301 1.13962 0.0
H849 H 0.38783 0.45314 0.23242 0.0
H850 H 0.3868 0.40679 0.17935 0.0
H851 H 0.44337 0.40724 0.18588 0.0
H852 H 0.53846 0.49673 1.13003 0.0
H853 H 0.50324 0.51543 1.08212 0.0
C854 C 0.45127 0.50523 0.14731 0.0
C855 C 0.43289 0.49589 0.19324 0.0
C856 C 0.45502 0.47903 1.12175 0.0
C857 C 0.40546 0.4607 0.2003 0.0
C858 C 0.40449 0.43437 0.169 0.0
C859 C 0.45605 0.43035 0.16201 0.0
C860 C 0.49246 0.45356 0.16675 0.0
C861 C 0.43573 0.44391 1.1419 0.0
C862 C 0.50985 0.48066 1.13123 0.0
C863 C 0.48946 0.49087 1.10336 0.0
H864 H 0.27102 0.91362 0.67982 0.0
H865 H 0.28249 0.00702 0.75592 0.0
H866 H 0.27989 0.03292 0.67664 0.0
H867 H 0.29289 0.03633 0.58719 0.0
H868 H 0.29165 0.94703 0.51247 0.0
H869 H 0.27012 0.9116 0.58854 0.0
C870 C 0.27197 0.93922 0.67896 0.0
C871 C 0.27823 0.959 0.7231 0.0
C872 C 0.2726 0.9548 0.63312 0.0
C873 C 0.27818 -0.00848 0.7222 0.0
C874 C 0.27699 0.00648 0.67681 0.0
C875 C 0.28655 0.00864 0.58728 0.0
C876 C 0.29504 -0.00536 0.54526 0.0
C877 C 0.27699 -0.01047 0.63206 0.0
C878 C 0.2858 0.95852 0.54475 0.0
C879 C 0.27402 0.93843 0.5885 0.0
H880 H 0.27963 0.31563 1.08706 0.0
H881 H 0.32838 0.25946 1.01923 0.0
H882 H 0.30147 0.25849 0.93956 0.0
H883 H 0.27934 0.2883 0.88693 0.0
H884 H 0.23387 0.34836 0.95253 0.0
H885 H 0.24299 0.33188 1.0358 0.0
C886 C 0.28315 0.30198 1.05525 0.0
C887 C 0.30667 0.28856 1.05821 0.0
C888 C 0.26865 0.30272 1.00914 0.0
C889 C 0.31099 0.27072 1.01712 0.0
C890 C 0.29565 0.27019 0.97166 0.0
C891 C 0.26973 0.29648 0.91909 0.0
C892 C 0.25747 0.32095 0.91353 0.0
C893 C 0.27658 0.28832 0.96659 0.0
C894 C 0.24468 0.3306 0.95591 0.0
C895 C 0.25012 0.32139 1.00356 0.0
H896 H 0.93486 0.27278 0.24483 0.0
H897 H 0.03801 0.34257 0.18044 0.0
H898 H 0.06591 0.34175 0.25785 0.0
H899 H 0.05961 0.33743 0.3487 0.0
H900 H 0.95517 0.27834 0.41504 0.0
H901 H 0.92979 0.25765 0.33343 0.0
C902 C 0.96351 0.28713 0.24742 0.0
C903 C -0.01589 0.30895 0.20763 0.0
C904 C 0.9793 0.28897 0.29336 0.0
C905 C 0.02126 0.32596 0.21061 0.0
C906 C 0.03735 0.32591 0.25528 0.0
C907 C 0.03138 0.31934 0.34536 0.0
C908 C 0.00926 0.31105 0.38778 0.0
C909 C 0.01643 0.31008 0.29787 0.0
C910 C 0.97301 0.28596 0.3832 0.0
C911 C 0.95825 0.27443 0.3362 0.0
H912 H 0.69016 0.98576 0.72486 0.0
H913 H 0.71645 0.09242 0.68171 0.0
H914 H 0.71376 0.07647 0.59431 0.0
H915 H 0.68748 0.02895 0.53332 0.0
H916 H 0.65543 0.92069 0.57556 0.0
H917 H 0.67708 0.94055 0.6599 0.0
C918 C 0.69612 0.00569 0.69624 0.0
C919 C 0.70238 0.03985 0.70978 0.0
C920 C 0.69274 -0.00415 0.64585 0.0
C921 C 0.71128 0.06582 0.67249 0.0
C922 C 0.70937 0.05661 0.62231 0.0
C923 C 0.68665 0.0098 0.56009 0.0
C924 C 0.66875 0.97322 0.54869 0.0
C925 C 0.69771 0.02115 0.60882 0.0
C926 C 0.66818 0.94891 0.58396 0.0
C927 C 0.68039 0.96023 0.63224 0.0
H928 H 0.68066 0.66726 1.08565 0.0
H929 H 0.64649 0.73767 1.02586 0.0
H930 H 0.67129 0.73597 0.94418 0.0
H931 H 0.68619 0.70075 0.88713 0.0
H932 H 0.71077 0.62292 0.94681 0.0
H933 H 0.70859 0.6428 1.03102 0.0
C934 C 0.68009 0.68351 1.05532 0.0
C935 C 0.66105 0.70177 1.061 0.0
C936 C 0.69244 0.68064 1.00808 0.0
C937 C 0.66045 0.72281 1.02167 0.0
C938 C 0.67446 0.72169 0.97503 0.0
C939 C 0.69196 0.68883 0.9186 0.0
C940 C 0.69708 0.65944 0.91095 0.0
C941 C 0.68792 0.69846 0.96711 0.0
C942 C 0.70615 0.64523 0.95161 0.0
C943 C 0.70444 0.65627 0.99998 0.0
H944 H -0.00319 0.72171 0.23266 0.0
H945 H 0.08647 0.70883 0.26811 0.0
H946 H 0.07135 0.70447 0.35607 0.0
H947 H 0.02266 0.68412 0.41644 0.0
H948 H 0.92846 0.68816 0.37926 0.0
H949 H 0.95484 0.71562 0.29896 0.0
C950 C 0.01361 0.71903 0.25988 0.0
C951 C 0.04166 0.71391 0.24358 0.0
C952 C 0.00311 0.71357 0.31015 0.0
C953 C 0.06426 0.7122 0.27925 0.0
C954 C 0.05529 0.70908 0.32978 0.0
C955 C 0.00852 0.69243 0.3917 0.0
C956 C 0.97335 0.68322 0.40281 0.0
C957 C 0.02316 0.70657 0.34485 0.0
C958 C 0.9553 0.69421 0.37063 0.0
C959 C 0.97035 0.70985 0.32477 0.0
H960 H 0.57775 0.11103 0.55978 0.0
H961 H 0.48154 0.11558 0.57859 0.0
H962 H 0.48895 0.11791 0.66946 0.0
H963 H 0.52256 0.11873 0.74947 0.0
H964 H 0.61611 0.10928 0.73029 0.0
H965 H 0.60965 0.1089 0.63954 0.0
C966 C 0.55802 0.11266 0.58297 0.0
C967 C 0.52867 0.11354 0.55752 0.0
C968 C 0.56212 0.11323 0.63828 0.0
C969 C 0.50448 0.11504 0.59277 0.0
C970 C 0.50886 0.1164 0.6465 0.0
C971 C 0.54211 0.11684 0.72619 0.0
C972 C 0.5709 0.11476 0.75152 0.0
C973 C 0.5376 0.11563 0.67084 0.0
C974 C 0.59401 0.11143 0.71621 0.0
C975 C 0.59015 0.11113 0.66252 0.0
H976 H 0.44369 0.58595 0.89105 0.0
H977 H 0.34746 0.48547 0.90772 0.0
H978 H 0.35283 0.49122 0.99857 0.0
H979 H 0.38467 0.52404 1.07971 0.0
H980 H 0.48363 0.62183 1.06305 0.0
H981 H 0.47699 0.61741 0.97221 0.0
C982 C 0.42323 0.56505 0.91372 0.0
C983 C 0.39406 0.53502 0.88739 0.0
C984 C 0.42707 0.56804 0.96938 0.0
C985 C 0.36994 0.50918 0.92233 0.0
C986 C 0.37314 0.51251 0.97621 0.0
C987 C 0.4051 0.54499 1.05708 0.0
C988 C 0.43501 0.57423 1.0834 0.0
C989 C 0.40154 0.54177 1.00142 0.0
C990 C 0.46013 0.59915 1.04845 0.0
C991 C 0.45624 0.59653 0.99459 0.0
H992 H 0.86254 0.38191 0.25623 0.0
H993 H 0.83525 0.45758 0.19713 0.0
H994 H 0.8349 0.47916 0.28203 0.0
H995 H 0.84292 0.4787 0.37802 0.0
H996 H 0.86246 0.39743 0.43679 0.0
H997 H 0.86501 0.37769 0.35186 0.0
C998 C 0.85612 0.40301 0.26098 0.0
C999 C 0.84889 0.41727 0.21588 0.0
C1000 C 0.85466 0.41518 0.3126 0.0
C1001 C 0.84077 0.44477 0.22761 0.0
C1002 C 0.84071 0.45761 0.27771 0.0
C1003 C 0.84765 0.45647 0.3732 0.0
C1004 C 0.8528 0.44053 0.41835 0.0
C1005 C 0.84768 0.44341 0.32148 0.0
C1006 C 0.85832 0.41135 0.40642 0.0
C1007 C 0.85986 0.39968 0.35627 0.0
H1008 H 0.38925 0.86678 0.56207 0.0
H1009 H 0.48893 0.86916 0.57678 0.0
H1010 H 0.48207 0.86734 0.66769 0.0
H1011 H 0.44858 0.86569 0.74898 0.0
H1012 H 0.35187 0.86934 0.73497 0.0
H1013 H 0.35716 0.86827 0.64383 0.0
C1014 C 0.40969 0.86647 0.58435 0.0
C1015 C 0.43986 0.86722 0.55775 0.0
C1016 C 0.40612 0.86664 0.63994 0.0
C1017 C 0.46517 0.868 0.59195 0.0
C1018 C 0.46121 0.86706 0.64572 0.0
C1019 C 0.4281 0.86599 0.72679 0.0
C1020 C 0.39888 0.86693 0.75359 0.0
C1021 C 0.43187 0.86639 0.6713 0.0
C1022 C 0.37447 0.86821 0.71961 0.0
C1023 C 0.3776 0.86762 0.66572 0.0
H1024 H 0.59259 0.47933 0.91924 0.0
H1025 H 0.50605 0.38253 0.86166 0.0
H1026 H 0.48515 0.36229 0.94699 0.0
H1027 H 0.48935 0.37005 1.04343 0.0
H1028 H 0.57913 0.46452 1.10049 0.0
H1029 H 0.59875 0.48547 1.01525 0.0
C1030 C 0.56913 0.45355 0.92429 0.0
C1031 C 0.5518 0.43325 0.87914 0.0
C1032 C 0.5569 0.44073 0.97643 0.0
C1033 C 0.52135 0.3999 0.8918 0.0
C1034 C 0.50888 0.38792 0.94232 0.0
C1035 C 0.51341 0.39533 1.03827 0.0
C1036 C 0.5319 0.4149 1.08337 0.0
C1037 C 0.52607 0.40772 0.98603 0.0
C1038 C 0.56317 0.4475 1.07049 0.0
C1039 C 0.57482 0.46 1.02001 0.0
H1040 H 0.10686 0.5825 0.41119 0.0
H1041 H 0.10176 0.48072 0.39632 0.0
H1042 H 0.10226 0.48599 0.30537 0.0
H1043 H 0.10316 0.51863 0.22373 0.0
H1044 H 0.10309 0.61795 0.23914 0.0
H1045 H 0.10557 0.61402 0.32985 0.0
C1046 C 0.10635 0.56127 0.38886 0.0
C1047 C 0.10517 0.53103 0.41551 0.0
C1048 C 0.10557 0.56397 0.33329 0.0
C1049 C 0.10327 0.50465 0.3812 0.0
C1050 C 0.10346 0.50769 0.32734 0.0
C1051 C 0.10404 0.54002 0.24607 0.0
C1052 C 0.10351 0.5695 0.21955 0.0
C1053 C 0.10455 0.53715 0.3017 0.0
C1054 C 0.10377 0.59504 0.25406 0.0
C1055 C 0.10518 0.59273 0.3078 0.0
loop_
_geom_bond_atom_site_label_1
_geom_bond_atom_site_label_2
_geom_bond_distance
_geom_bond_site_symmetry_2
_ccdc_geom_bond_type
Tb0 C2 2.809 . S
Tb0 O20 2.484 . S
Tb0 O21 2.440 . S
Tb0 O22 2.658 . S
Tb0 O23 2.409 . S
Tb0 O24 2.378 . S
Tb0 O28 2.325 . S
Tb0 O31 2.341 . S
Tb1 C11 2.809 . S
Tb1 O22 2.325 . S
Tb1 O25 2.341 . S
Tb1 O26 2.484 . S
Tb1 O27 2.440 . S
Tb1 O28 2.658 . S
Tb1 O29 2.409 . S
Tb1 O30 2.378 . S
C2 Tb0 2.809 . S
C2 C3 1.514 . S
C2 O20 1.248 . S
C2 O21 1.266 . S
C3 C2 1.514 . S
C3 C4 1.359 . S
C3 C8 1.348 . S
C4 C3 1.359 . S
C4 C5 1.380 . S
C4 H32 0.929 . S
C5 C4 1.380 . S
C5 C6 1.347 . S
C5 H33 0.931 . S
C6 C5 1.347 . S
C6 C7 1.369 . S
C7 C6 1.369 . S
C7 C8 1.408 . S
C7 H34 0.930 . S
C8 C3 1.348 . S
C8 C7 1.408 . S
C8 H35 0.930 . S
C9 O22 1.281 . S
C9 O23 1.254 . S
C10 O24 1.236 . S
C10 O25 1.266 . S
C11 Tb1 2.809 . S
C11 C12 1.514 . S
C11 O26 1.248 . S
C11 O27 1.266 . S
C12 C11 1.514 . S
C12 C13 1.359 . S
C12 C17 1.348 . S
C13 C12 1.359 . S
C13 C14 1.380 . S
C13 H36 0.929 . S
C14 C13 1.380 . S
C14 C15 1.347 . S
C14 H37 0.931 . S
C15 C14 1.347 . S
C15 C16 1.369 . S
C16 C15 1.369 . S
C16 C17 1.408 . S
C16 H38 0.930 . S
C17 C12 1.348 . S
C17 C16 1.408 . S
C17 H39 0.930 . S
C18 O28 1.281 . S
C18 O29 1.254 . S
C19 O30 1.236 . S
C19 O31 1.266 . S
O20 Tb0 2.484 . S
O20 C2 1.248 . S
O21 Tb0 2.440 . S
O21 C2 1.266 . S
O22 Tb0 2.658 . S
O22 Tb1 2.325 . S
O22 C9 1.281 . S
O23 Tb0 2.409 . S
O23 C9 1.254 . S
O24 Tb0 2.378 . S
O24 C10 1.236 . S
O25 Tb1 2.341 . S
O25 C10 1.266 . S
O26 Tb1 2.484 . S
O26 C11 1.248 . S
O27 Tb1 2.440 . S
O27 C11 1.266 . S
O28 Tb0 2.325 . S
O28 Tb1 2.658 . S
O28 C18 1.281 . S
O29 Tb1 2.409 . S
O29 C18 1.254 . S
O30 Tb1 2.378 . S
O30 C19 1.236 . S
O31 Tb0 2.341 . S
O31 C19 1.266 . S
H32 C4 0.929 . S
H33 C5 0.931 . S
H34 C7 0.930 . S
H35 C8 0.930 . S
H36 C13 0.929 . S
H37 C14 0.931 . S
H38 C16 0.930 . S
H39 C17 0.930 . S
Tb40 C42 2.809 . S
Tb40 O60 2.484 . S
Tb40 O61 2.440 . S
Tb40 O62 2.658 . S
Tb40 O63 2.409 . S
Tb40 O64 2.378 . S
Tb40 O68 2.325 . S
Tb40 O71 2.341 . S
Tb41 C51 2.809 . S
Tb41 O62 2.325 . S
Tb41 O65 2.341 . S
Tb41 O66 2.484 . S
Tb41 O67 2.440 . S
Tb41 O68 2.658 . S
Tb41 O69 2.409 . S
Tb41 O70 2.378 . S
C42 Tb40 2.809 . S
C42 C43 1.514 . S
C42 O60 1.248 . S
C42 O61 1.266 . S
C43 C42 1.514 . S
C43 C44 1.359 . S
C43 C48 1.348 . S
C44 C43 1.359 . S
C44 C45 1.380 . S
C44 H72 0.929 . S
C45 C44 1.380 . S
C45 C46 1.347 . S
C45 H73 0.931 . S
C46 C45 1.347 . S
C46 C47 1.369 . S
C47 C46 1.369 . S
C47 C48 1.408 . S
C47 H74 0.930 . S
C48 C43 1.348 . S
C48 C47 1.408 . S
C48 H75 0.930 . S
C49 O62 1.281 . S
C49 O63 1.254 . S
C50 O64 1.236 . S
C50 O65 1.266 . S
C51 Tb41 2.809 . S
C51 C52 1.514 . S
C51 O66 1.248 . S
C51 O67 1.266 . S
C52 C51 1.514 . S
C52 C53 1.359 . S
C52 C57 1.348 . S
C53 C52 1.359 . S
C53 C54 1.380 . S
C53 H76 0.929 . S
C54 C53 1.380 . S
C54 C55 1.347 . S
C54 H77 0.931 . S
C55 C54 1.347 . S
C55 C56 1.369 . S
C56 C55 1.369 . S
C56 C57 1.408 . S
C56 H78 0.930 . S
C57 C52 1.348 . S
C57 C56 1.408 . S
C57 H79 0.930 . S
C58 O68 1.281 . S
C58 O69 1.254 . S
C59 O70 1.236 . S
C59 O71 1.266 . S
O60 Tb40 2.484 . S
O60 C42 1.248 . S
O61 Tb40 2.440 . S
O61 C42 1.266 . S
O62 Tb40 2.658 . S
O62 Tb41 2.325 . S
O62 C49 1.281 . S
O63 Tb40 2.409 . S
O63 C49 1.254 . S
O64 Tb40 2.378 . S
O64 C50 1.236 . S
O65 Tb41 2.341 . S
O65 C50 1.266 . S
O66 Tb41 2.484 . S
O66 C51 1.248 . S
O67 Tb41 2.440 . S
O67 C51 1.266 . S
O68 Tb40 2.325 . S
O68 Tb41 2.658 . S
O68 C58 1.281 . S
O69 Tb41 2.409 . S
O69 C58 1.254 . S
O70 Tb41 2.378 . S
O70 C59 1.236 . S
O71 Tb40 2.341 . S
O71 C59 1.266 . S
H72 C44 0.929 . S
H73 C45 0.931 . S
H74 C47 0.930 . S
H75 C48 0.930 . S
H76 C53 0.929 . S
H77 C54 0.931 . S
H78 C56 0.930 . S
H79 C57 0.930 . S
Tb80 C82 2.809 1_556 S
Tb80 O100 2.512 . S
Tb80 O101 2.440 . S
Tb80 O102 2.658 . S
Tb80 O103 2.409 . S
Tb80 O104 2.378 . S
Tb80 O108 2.325 . S
Tb80 O111 2.341 . S
Tb81 C91 2.809 . S
Tb81 O102 2.325 . S
Tb81 O105 2.341 . S
Tb81 O106 2.484 . S
Tb81 O107 2.440 . S
Tb81 O108 2.658 . S
Tb81 O109 2.409 . S
Tb81 O110 2.378 . S
C82 Tb80 2.809 1_554 S
C82 C83 1.514 . S
C82 O100 1.236 1_554 S
C82 O101 1.266 1_554 S
C83 C82 1.514 . S
C83 C84 1.359 . S
C83 C88 1.348 . S
C84 C83 1.359 . S
C84 C85 1.380 . S
C84 H112 0.929 . S
C85 C84 1.380 . S
C85 C86 1.347 . S
C85 H113 0.931 . S
C86 C85 1.347 . S
C86 C87 1.369 . S
C87 C86 1.369 . S
C87 C88 1.408 . S
C87 H114 0.930 . S
C88 C83 1.348 . S
C88 C87 1.408 . S
C88 H115 0.930 . S
C89 O102 1.281 . S
C89 O103 1.254 . S
C90 O104 1.236 . S
C90 O105 1.266 . S
C91 Tb81 2.809 . S
C91 C92 1.514 . S
C91 O106 1.248 . S
C91 O107 1.266 . S
C92 C91 1.514 . S
C92 C93 1.359 . S
C92 C97 1.348 . S
C93 C92 1.359 . S
C93 C94 1.380 . S
C93 H116 0.929 . S
C94 C93 1.380 . S
C94 C95 1.347 . S
C94 H117 0.931 . S
C95 C94 1.347 . S
C95 C96 1.369 . S
C96 C95 1.369 . S
C96 C97 1.408 . S
C96 H118 0.930 . S
C97 C92 1.348 . S
C97 C96 1.408 . S
C97 H119 0.930 . S
C98 O108 1.281 . S
C98 O109 1.254 . S
C99 O110 1.236 . S
C99 O111 1.266 . S
O100 Tb80 2.512 . S
O100 C82 1.236 1_556 S
O101 Tb80 2.440 . S
O101 C82 1.266 1_556 S
O102 Tb80 2.658 . S
O102 Tb81 2.325 . S
O102 C89 1.281 . S
O103 Tb80 2.409 . S
O103 C89 1.254 . S
O104 Tb80 2.378 . S
O104 C90 1.236 . S
O105 Tb81 2.341 . S
O105 C90 1.266 . S
O106 Tb81 2.484 . S
O106 C91 1.248 . S
O107 Tb81 2.440 . S
O107 C91 1.266 . S
O108 Tb80 2.325 . S
O108 Tb81 2.658 . S
O108 C98 1.281 . S
O109 Tb81 2.409 . S
O109 C98 1.254 . S
O110 Tb81 2.378 . S
O110 C99 1.236 . S
O111 Tb80 2.341 . S
O111 C99 1.266 . S
H112 C84 0.929 . S
H113 C85 0.931 . S
H114 C87 0.930 . S
H115 C88 0.930 . S
H116 C93 0.929 . S
H117 C94 0.931 . S
H118 C96 0.930 . S
H119 C97 0.930 . S
Tb120 C122 2.809 . S
Tb120 O140 2.484 . S
Tb120 O141 2.440 . S
Tb120 O142 2.658 . S
Tb120 O143 2.409 . S
Tb120 O144 2.378 . S
Tb120 O148 2.325 . S
Tb120 O151 2.341 . S
Tb121 C131 2.809 . S
Tb121 O142 2.325 . S
Tb121 O145 2.341 . S
Tb121 O146 2.484 . S
Tb121 O147 2.440 . S
Tb121 O148 2.658 . S
Tb121 O149 2.409 . S
Tb121 O150 2.378 . S
C122 Tb120 2.809 . S
C122 C123 1.514 . S
C122 O140 1.248 . S
C122 O141 1.266 . S
C123 C122 1.514 . S
C123 C124 1.359 . S
C123 C128 1.348 . S
C124 C123 1.359 . S
C124 C125 1.380 . S
C124 H152 0.929 . S
C125 C124 1.380 . S
C125 C126 1.347 . S
C125 H153 0.931 . S
C126 C125 1.347 . S
C126 C127 1.369 . S
C127 C126 1.369 . S
C127 C128 1.408 . S
C127 H154 0.930 . S
C128 C123 1.348 . S
C128 C127 1.408 . S
C128 H155 0.930 . S
C129 O142 1.281 . S
C129 O143 1.254 . S
C130 O144 1.236 . S
C130 O145 1.266 . S
C131 Tb121 2.809 . S
C131 C132 1.514 . S
C131 O146 1.248 . S
C131 O147 1.266 . S
C132 C131 1.514 . S
C132 C133 1.359 . S
C132 C137 1.348 . S
C133 C132 1.359 . S
C133 C134 1.380 . S
C133 H156 0.929 . S
C134 C133 1.380 . S
C134 C135 1.347 . S
C134 H157 0.931 . S
C135 C134 1.347 . S
C135 C136 1.369 . S
C136 C135 1.369 . S
C136 C137 1.408 . S
C136 H158 0.930 . S
C137 C132 1.348 . S
C137 C136 1.408 . S
C137 H159 0.930 . S
C138 O148 1.281 . S
C138 O149 1.254 . S
C139 O150 1.236 . S
C139 O151 1.266 . S
O140 Tb120 2.484 . S
O140 C122 1.248 . S
O141 Tb120 2.440 . S
O141 C122 1.266 . S
O142 Tb120 2.658 . S
O142 Tb121 2.325 . S
O142 C129 1.281 . S
O143 Tb120 2.409 . S
O143 C129 1.254 . S
O144 Tb120 2.378 . S
O144 C130 1.236 . S
O145 Tb121 2.341 . S
O145 C130 1.266 . S
O146 Tb121 2.484 . S
O146 C131 1.248 . S
O147 Tb121 2.440 . S
O147 C131 1.266 . S
O148 Tb120 2.325 . S
O148 Tb121 2.658 . S
O148 C138 1.281 . S
O149 Tb121 2.409 . S
O149 C138 1.254 . S
O150 Tb121 2.378 . S
O150 C139 1.236 . S
O151 Tb120 2.341 . S
O151 C139 1.266 . S
H152 C124 0.929 . S
H153 C125 0.931 . S
H154 C127 0.930 . S
H155 C128 0.930 . S
H156 C133 0.929 . S
H157 C134 0.931 . S
H158 C136 0.930 . S
H159 C137 0.930 . S
Tb160 C162 2.809 . S
Tb160 O180 2.484 . S
Tb160 O181 2.440 . S
Tb160 O182 2.658 . S
Tb160 O183 2.409 . S
Tb160 O184 2.378 . S
Tb160 O188 2.325 . S
Tb160 O191 2.341 . S
Tb161 C171 2.809 . S
Tb161 O182 2.325 . S
Tb161 O185 2.341 . S
Tb161 O186 2.484 . S
Tb161 O187 2.440 . S
Tb161 O188 2.658 . S
Tb161 O189 2.409 . S
Tb161 O190 2.378 . S
C162 Tb160 2.809 . S
C162 C163 1.514 . S
C162 O180 1.248 . S
C162 O181 1.266 . S
C163 C162 1.514 . S
C163 C164 1.359 . S
C163 C168 1.348 . S
C164 C163 1.359 . S
C164 C165 1.380 . S
C164 H192 0.929 . S
C165 C164 1.380 . S
C165 C166 1.347 . S
C165 H193 0.931 . S
C166 C165 1.347 . S
C166 C167 1.369 . S
C167 C166 1.369 . S
C167 C168 1.408 . S
C167 H194 0.930 . S
C168 C163 1.348 . S
C168 C167 1.408 . S
C168 H195 0.930 . S
C169 O182 1.281 . S
C169 O183 1.254 . S
C170 O184 1.236 . S
C170 O185 1.266 . S
C171 Tb161 2.809 . S
C171 C172 1.514 . S
C171 O186 1.248 . S
C171 O187 1.266 . S
C172 C171 1.514 . S
C172 C173 1.359 . S
C172 C177 1.348 . S
C173 C172 1.359 . S
C173 C174 1.380 . S
C173 H196 0.929 . S
C174 C173 1.380 . S
C174 C175 1.347 . S
C174 H197 0.931 . S
C175 C174 1.347 . S
C175 C176 1.369 . S
C176 C175 1.369 . S
C176 C177 1.408 . S
C176 H198 0.930 . S
C177 C172 1.348 . S
C177 C176 1.408 . S
C177 H199 0.930 . S
C178 O188 1.281 . S
C178 O189 1.254 . S
C179 O190 1.236 . S
C179 O191 1.266 . S
O180 Tb160 2.484 . S
O180 C162 1.248 . S
O181 Tb160 2.440 . S
O181 C162 1.266 . S
O182 Tb160 2.658 . S
O182 Tb161 2.325 . S
O182 C169 1.281 . S
O183 Tb160 2.409 . S
O183 C169 1.254 . S
O184 Tb160 2.378 . S
O184 C170 1.236 . S
O185 Tb161 2.341 . S
O185 C170 1.266 . S
O186 Tb161 2.484 . S
O186 C171 1.248 . S
O187 Tb161 2.440 . S
O187 C171 1.266 . S
O188 Tb160 2.325 . S
O188 Tb161 2.658 . S
O188 C178 1.281 . S
O189 Tb161 2.409 . S
O189 C178 1.254 . S
O190 Tb161 2.378 . S
O190 C179 1.236 . S
O191 Tb160 2.341 . S
O191 C179 1.266 . S
H192 C164 0.929 . S
H193 C165 0.931 . S
H194 C167 0.930 . S
H195 C168 0.930 . S
H196 C173 0.929 . S
H197 C174 0.931 . S
H198 C176 0.930 . S
H199 C177 0.930 . S
Tb200 C202 2.809 1_556 S
Tb200 O220 2.512 . S
Tb200 O221 2.440 . S
Tb200 O222 2.658 . S
Tb200 O223 2.409 . S
Tb200 O224 2.378 . S
Tb200 O228 2.325 . S
Tb200 O231 2.341 . S
Tb201 C211 2.809 . S
Tb201 O222 2.325 . S
Tb201 O225 2.341 . S
Tb201 O226 2.484 . S
Tb201 O227 2.440 . S
Tb201 O228 2.658 . S
Tb201 O229 2.409 . S
Tb201 O230 2.378 . S
C202 Tb200 2.809 1_554 S
C202 C203 1.514 . S
C202 O220 1.236 1_554 S
C202 O221 1.266 1_554 S
C203 C202 1.514 . S
C203 C204 1.359 . S
C203 C208 1.348 . S
C204 C203 1.359 . S
C204 C205 1.380 . S
C204 H232 0.929 . S
C205 C204 1.380 . S
C205 C206 1.347 . S
C205 H233 0.931 . S
C206 C205 1.347 . S
C206 C207 1.369 . S
C207 C206 1.369 . S
C207 C208 1.408 . S
C207 H234 0.930 . S
C208 C203 1.348 . S
C208 C207 1.408 . S
C208 H235 0.930 . S
C209 O222 1.281 . S
C209 O223 1.254 . S
C210 O224 1.236 . S
C210 O225 1.266 . S
C211 Tb201 2.809 . S
C211 C212 1.514 . S
C211 O226 1.248 . S
C211 O227 1.266 . S
C212 C211 1.514 . S
C212 C213 1.359 . S
C212 C217 1.348 . S
C213 C212 1.359 . S
C213 C214 1.380 . S
C213 H236 0.929 . S
C214 C213 1.380 . S
C214 C215 1.347 . S
C214 H237 0.931 . S
C215 C214 1.347 . S
C215 C216 1.369 . S
C216 C215 1.369 . S
C216 C217 1.408 . S
C216 H238 0.930 . S
C217 C212 1.348 . S
C217 C216 1.408 . S
C217 H239 0.930 . S
C218 O228 1.281 . S
C218 O229 1.254 . S
C219 O230 1.236 . S
C219 O231 1.266 . S
O220 Tb200 2.512 . S
O220 C202 1.236 1_556 S
O221 Tb200 2.440 . S
O221 C202 1.266 1_556 S
O222 Tb200 2.658 . S
O222 Tb201 2.325 . S
O222 C209 1.281 . S
O223 Tb200 2.409 . S
O223 C209 1.254 . S
O224 Tb200 2.378 . S
O224 C210 1.236 . S
O225 Tb201 2.341 . S
O225 C210 1.266 . S
O226 Tb201 2.484 . S
O226 C211 1.248 . S
O227 Tb201 2.440 . S
O227 C211 1.266 . S
O228 Tb200 2.325 . S
O228 Tb201 2.658 . S
O228 C218 1.281 . S
O229 Tb201 2.409 . S
O229 C218 1.254 . S
O230 Tb201 2.378 . S
O230 C219 1.236 . S
O231 Tb200 2.341 . S
O231 C219 1.266 . S
H232 C204 0.929 . S
H233 C205 0.931 . S
H234 C207 0.930 . S
H235 C208 0.930 . S
H236 C213 0.929 . S
H237 C214 0.931 . S
H238 C216 0.930 . S
H239 C217 0.930 . S
Tb240 C242 2.809 . S
Tb240 O260 2.484 . S
Tb240 O261 2.440 . S
Tb240 O262 2.658 . S
Tb240 O263 2.409 . S
Tb240 O264 2.378 . S
Tb240 O268 2.325 . S
Tb240 O271 2.341 . S
Tb241 C251 2.809 . S
Tb241 O262 2.325 . S
Tb241 O265 2.341 . S
Tb241 O266 2.484 . S
Tb241 O267 2.440 . S
Tb241 O268 2.658 . S
Tb241 O269 2.409 . S
Tb241 O270 2.378 . S
C242 Tb240 2.809 . S
C242 C243 1.514 . S
C242 O260 1.248 . S
C242 O261 1.266 . S
C243 C242 1.514 . S
C243 C244 1.359 . S
C243 C248 1.348 . S
C244 C243 1.359 . S
C244 C245 1.380 . S
C244 H272 0.929 . S
C245 C244 1.380 . S
C245 C246 1.347 . S
C245 H273 0.931 . S
C246 C245 1.347 . S
C246 C247 1.369 . S
C247 C246 1.369 . S
C247 C248 1.408 . S
C247 H274 0.930 . S
C248 C243 1.348 . S
C248 C247 1.408 . S
C248 H275 0.930 . S
C249 O262 1.281 . S
C249 O263 1.254 . S
C250 O264 1.236 . S
C250 O265 1.266 . S
C251 Tb241 2.809 . S
C251 C252 1.514 . S
C251 O266 1.248 . S
C251 O267 1.266 . S
C252 C251 1.514 . S
C252 C253 1.359 . S
C252 C257 1.348 . S
C253 C252 1.359 . S
C253 C254 1.380 . S
C253 H276 0.929 . S
C254 C253 1.380 . S
C254 C255 1.347 . S
C254 H277 0.931 . S
C255 C254 1.347 . S
C255 C256 1.369 . S
C256 C255 1.369 . S
C256 C257 1.408 . S
C256 H278 0.930 . S
C257 C252 1.348 . S
C257 C256 1.408 . S
C257 H279 0.930 . S
C258 O268 1.281 . S
C258 O269 1.254 . S
C259 O270 1.236 . S
C259 O271 1.266 . S
O260 Tb240 2.484 . S
O260 C242 1.248 . S
O261 Tb240 2.440 . S
O261 C242 1.266 . S
O262 Tb240 2.658 . S
O262 Tb241 2.325 . S
O262 C249 1.281 . S
O263 Tb240 2.409 . S
O263 C249 1.254 . S
O264 Tb240 2.378 . S
O264 C250 1.236 . S
O265 Tb241 2.341 . S
O265 C250 1.266 . S
O266 Tb241 2.484 . S
O266 C251 1.248 . S
O267 Tb241 2.440 . S
O267 C251 1.266 . S
O268 Tb240 2.325 . S
O268 Tb241 2.658 . S
O268 C258 1.281 . S
O269 Tb241 2.409 . S
O269 C258 1.254 . S
O270 Tb241 2.378 . S
O270 C259 1.236 . S
O271 Tb240 2.341 . S
O271 C259 1.266 . S
H272 C244 0.929 . S
H273 C245 0.931 . S
H274 C247 0.930 . S
H275 C248 0.930 . S
H276 C253 0.929 . S
H277 C254 0.931 . S
H278 C256 0.930 . S
H279 C257 0.930 . S
Tb280 C282 2.809 . S
Tb280 O300 2.484 . S
Tb280 O301 2.440 . S
Tb280 O302 2.658 . S
Tb280 O303 2.409 . S
Tb280 O304 2.378 . S
Tb280 O308 2.325 . S
Tb280 O311 2.341 . S
Tb281 C291 2.809 . S
Tb281 O302 2.325 . S
Tb281 O305 2.341 . S
Tb281 O306 2.484 . S
Tb281 O307 2.440 . S
Tb281 O308 2.658 . S
Tb281 O309 2.409 . S
Tb281 O310 2.378 . S
C282 Tb280 2.809 . S
C282 C283 1.514 . S
C282 O300 1.248 . S
C282 O301 1.266 . S
C283 C282 1.514 . S
C283 C284 1.359 . S
C283 C288 1.348 . S
C284 C283 1.359 . S
C284 C285 1.380 . S
C284 H312 0.929 . S
C285 C284 1.380 . S
C285 C286 1.347 . S
C285 H313 0.931 . S
C286 C285 1.347 . S
C286 C287 1.369 . S
C287 C286 1.369 . S
C287 C288 1.408 . S
C287 H314 0.930 . S
C288 C283 1.348 . S
C288 C287 1.408 . S
C288 H315 0.930 . S
C289 O302 1.281 . S
C289 O303 1.254 . S
C290 O304 1.236 . S
C290 O305 1.266 . S
C291 Tb281 2.809 . S
C291 C292 1.514 . S
C291 O306 1.248 . S
C291 O307 1.266 . S
C292 C291 1.514 . S
C292 C293 1.359 . S
C292 C297 1.348 . S
C293 C292 1.359 . S
C293 C294 1.380 . S
C293 H316 0.929 . S
C294 C293 1.380 . S
C294 C295 1.347 . S
C294 H317 0.931 . S
C295 C294 1.347 . S
C295 C296 1.369 . S
C296 C295 1.369 . S
C296 C297 1.408 . S
C296 H318 0.930 . S
C297 C292 1.348 . S
C297 C296 1.408 . S
C297 H319 0.930 . S
C298 O308 1.281 . S
C298 O309 1.254 . S
C299 O310 1.236 . S
C299 O311 1.266 . S
O300 Tb280 2.484 . S
O300 C282 1.248 . S
O301 Tb280 2.440 . S
O301 C282 1.266 . S
O302 Tb280 2.658 . S
O302 Tb281 2.325 . S
O302 C289 1.281 . S
O303 Tb280 2.409 . S
O303 C289 1.254 . S
O304 Tb280 2.378 . S
O304 C290 1.236 . S
O305 Tb281 2.341 . S
O305 C290 1.266 . S
O306 Tb281 2.484 . S
O306 C291 1.248 . S
O307 Tb281 2.440 . S
O307 C291 1.266 . S
O308 Tb280 2.325 . S
O308 Tb281 2.658 . S
O308 C298 1.281 . S
O309 Tb281 2.409 . S
O309 C298 1.254 . S
O310 Tb281 2.378 . S
O310 C299 1.236 . S
O311 Tb280 2.341 . S
O311 C299 1.266 . S
H312 C284 0.929 . S
H313 C285 0.931 . S
H314 C287 0.930 . S
H315 C288 0.930 . S
H316 C293 0.929 . S
H317 C294 0.931 . S
H318 C296 0.930 . S
H319 C297 0.930 . S
Tb320 C322 2.809 1_554 S
Tb320 O340 2.512 . S
Tb320 O341 2.440 . S
Tb320 O342 2.658 . S
Tb320 O343 2.409 . S
Tb320 O344 2.378 . S
Tb320 O348 2.325 . S
Tb320 O351 2.341 . S
Tb321 C331 2.809 . S
Tb321 O342 2.325 . S
Tb321 O345 2.341 . S
Tb321 O346 2.484 . S
Tb321 O347 2.440 . S
Tb321 O348 2.658 . S
Tb321 O349 2.409 . S
Tb321 O350 2.378 . S
C322 Tb320 2.809 1_556 S
C322 C323 1.514 . S
C322 O340 1.236 1_556 S
C322 O341 1.266 1_556 S
C323 C322 1.514 . S
C323 C324 1.359 . S
C323 C328 1.348 . S
C324 C323 1.359 . S
C324 C325 1.380 . S
C324 H352 0.929 . S
C325 C324 1.380 . S
C325 C326 1.347 . S
C325 H353 0.931 . S
C326 C325 1.347 . S
C326 C327 1.369 . S
C327 C326 1.369 . S
C327 C328 1.408 . S
C327 H354 0.930 . S
C328 C323 1.348 . S
C328 C327 1.408 . S
C328 H355 0.930 . S
C329 O342 1.281 . S
C329 O343 1.254 . S
C330 O344 1.236 . S
C330 O345 1.266 . S
C331 Tb321 2.809 . S
C331 C332 1.514 . S
C331 O346 1.248 . S
C331 O347 1.266 . S
C332 C331 1.514 . S
C332 C333 1.359 . S
C332 C337 1.348 . S
C333 C332 1.359 . S
C333 C334 1.380 . S
C333 H356 0.929 . S
C334 C333 1.380 . S
C334 C335 1.347 . S
C334 H357 0.931 . S
C335 C334 1.347 . S
C335 C336 1.369 . S
C336 C335 1.369 . S
C336 C337 1.408 . S
C336 H358 0.930 . S
C337 C332 1.348 . S
C337 C336 1.408 . S
C337 H359 0.930 . S
C338 O348 1.281 . S
C338 O349 1.254 . S
C339 O350 1.236 . S
C339 O351 1.266 . S
O340 Tb320 2.512 . S
O340 C322 1.236 1_554 S
O341 Tb320 2.440 . S
O341 C322 1.266 1_554 S
O342 Tb320 2.658 . S
O342 Tb321 2.325 . S
O342 C329 1.281 . S
O343 Tb320 2.409 . S
O343 C329 1.254 . S
O344 Tb320 2.378 . S
O344 C330 1.236 . S
O345 Tb321 2.341 . S
O345 C330 1.266 . S
O346 Tb321 2.484 . S
O346 C331 1.248 . S
O347 Tb321 2.440 . S
O347 C331 1.266 . S
O348 Tb320 2.325 . S
O348 Tb321 2.658 . S
O348 C338 1.281 . S
O349 Tb321 2.409 . S
O349 C338 1.254 . S
O350 Tb321 2.378 . S
O350 C339 1.236 . S
O351 Tb320 2.341 . S
O351 C339 1.266 . S
H352 C324 0.929 . S
H353 C325 0.931 . S
H354 C327 0.930 . S
H355 C328 0.930 . S
H356 C333 0.929 . S
H357 C334 0.931 . S
H358 C336 0.930 . S
H359 C337 0.930 . S
Tb360 C362 2.809 . S
Tb360 O380 2.484 . S
Tb360 O381 2.440 . S
Tb360 O382 2.658 . S
Tb360 O383 2.409 . S
Tb360 O384 2.378 . S
Tb360 O388 2.325 . S
Tb360 O391 2.341 . S
Tb361 C371 2.809 . S
Tb361 O382 2.325 . S
Tb361 O385 2.341 . S
Tb361 O386 2.484 . S
Tb361 O387 2.440 . S
Tb361 O388 2.658 . S
Tb361 O389 2.409 . S
Tb361 O390 2.378 . S
C362 Tb360 2.809 . S
C362 C363 1.514 . S
C362 O380 1.248 . S
C362 O381 1.266 . S
C363 C362 1.514 . S
C363 C364 1.359 . S
C363 C368 1.348 . S
C364 C363 1.359 . S
C364 C365 1.380 . S
C364 H392 0.929 . S
C365 C364 1.380 . S
C365 C366 1.347 . S
C365 H393 0.931 . S
C366 C365 1.347 . S
C366 C367 1.369 . S
C367 C366 1.369 . S
C367 C368 1.408 . S
C367 H394 0.930 . S
C368 C363 1.348 . S
C368 C367 1.408 . S
C368 H395 0.930 . S
C369 O382 1.281 . S
C369 O383 1.254 . S
C370 O384 1.236 . S
C370 O385 1.266 . S
C371 Tb361 2.809 . S
C371 C372 1.514 . S
C371 O386 1.248 . S
C371 O387 1.266 . S
C372 C371 1.514 . S
C372 C373 1.359 . S
C372 C377 1.348 . S
C373 C372 1.359 . S
C373 C374 1.380 . S
C373 H396 0.929 . S
C374 C373 1.380 . S
C374 C375 1.347 . S
C374 H397 0.931 . S
C375 C374 1.347 . S
C375 C376 1.369 . S
C376 C375 1.369 . S
C376 C377 1.408 . S
C376 H398 0.930 . S
C377 C372 1.348 . S
C377 C376 1.408 . S
C377 H399 0.930 . S
C378 O388 1.281 . S
C378 O389 1.254 . S
C379 O390 1.236 . S
C379 O391 1.266 . S
O380 Tb360 2.484 . S
O380 C362 1.248 . S
O381 Tb360 2.440 . S
O381 C362 1.266 . S
O382 Tb360 2.658 . S
O382 Tb361 2.325 . S
O382 C369 1.281 . S
O383 Tb360 2.409 . S
O383 C369 1.254 . S
O384 Tb360 2.378 . S
O384 C370 1.236 . S
O385 Tb361 2.341 . S
O385 C370 1.266 . S
O386 Tb361 2.484 . S
O386 C371 1.248 . S
O387 Tb361 2.440 . S
O387 C371 1.266 . S
O388 Tb360 2.325 . S
O388 Tb361 2.658 . S
O388 C378 1.281 . S
O389 Tb361 2.409 . S
O389 C378 1.254 . S
O390 Tb361 2.378 . S
O390 C379 1.236 . S
O391 Tb360 2.341 . S
O391 C379 1.266 . S
H392 C364 0.929 . S
H393 C365 0.931 . S
H394 C367 0.930 . S
H395 C368 0.930 . S
H396 C373 0.929 . S
H397 C374 0.931 . S
H398 C376 0.930 . S
H399 C377 0.930 . S
Tb400 C402 2.809 . S
Tb400 O420 2.484 . S
Tb400 O421 2.440 . S
Tb400 O422 2.658 . S
Tb400 O423 2.409 . S
Tb400 O424 2.378 . S
Tb400 O428 2.325 . S
Tb400 O431 2.341 . S
Tb401 C411 2.809 . S
Tb401 O422 2.325 . S
Tb401 O425 2.341 . S
Tb401 O426 2.484 . S
Tb401 O427 2.440 . S
Tb401 O428 2.658 . S
Tb401 O429 2.409 . S
Tb401 O430 2.378 . S
C402 Tb400 2.809 . S
C402 C403 1.514 . S
C402 O420 1.248 . S
C402 O421 1.266 . S
C403 C402 1.514 . S
C403 C404 1.359 . S
C403 C408 1.348 . S
C404 C403 1.359 . S
C404 C405 1.380 . S
C404 H432 0.929 . S
C405 C404 1.380 . S
C405 C406 1.347 . S
C405 H433 0.931 . S
C406 C405 1.347 . S
C406 C407 1.369 . S
C407 C406 1.369 . S
C407 C408 1.408 . S
C407 H434 0.930 . S
C408 C403 1.348 . S
C408 C407 1.408 . S
C408 H435 0.930 . S
C409 O422 1.281 . S
C409 O423 1.254 . S
C410 O424 1.236 . S
C410 O425 1.266 . S
C411 Tb401 2.809 . S
C411 C412 1.514 . S
C411 O426 1.248 . S
C411 O427 1.266 . S
C412 C411 1.514 . S
C412 C413 1.359 . S
C412 C417 1.348 . S
C413 C412 1.359 . S
C413 C414 1.380 . S
C413 H436 0.929 . S
C414 C413 1.380 . S
C414 C415 1.347 . S
C414 H437 0.931 . S
C415 C414 1.347 . S
C415 C416 1.369 . S
C416 C415 1.369 . S
C416 C417 1.408 . S
C416 H438 0.930 . S
C417 C412 1.348 . S
C417 C416 1.408 . S
C417 H439 0.930 . S
C418 O428 1.281 . S
C418 O429 1.254 . S
C419 O430 1.236 . S
C419 O431 1.266 . S
O420 Tb400 2.484 . S
O420 C402 1.248 . S
O421 Tb400 2.440 . S
O421 C402 1.266 . S
O422 Tb400 2.658 . S
O422 Tb401 2.325 . S
O422 C409 1.281 . S
O423 Tb400 2.409 . S
O423 C409 1.254 . S
O424 Tb400 2.378 . S
O424 C410 1.236 . S
O425 Tb401 2.341 . S
O425 C410 1.266 . S
O426 Tb401 2.484 . S
O426 C411 1.248 . S
O427 Tb401 2.440 . S
O427 C411 1.266 . S
O428 Tb400 2.325 . S
O428 Tb401 2.658 . S
O428 C418 1.281 . S
O429 Tb401 2.409 . S
O429 C418 1.254 . S
O430 Tb401 2.378 . S
O430 C419 1.236 . S
O431 Tb400 2.341 . S
O431 C419 1.266 . S
H432 C404 0.929 . S
H433 C405 0.931 . S
H434 C407 0.930 . S
H435 C408 0.930 . S
H436 C413 0.929 . S
H437 C414 0.931 . S
H438 C416 0.930 . S
H439 C417 0.930 . S
Tb440 C442 2.809 1_554 S
Tb440 O460 2.512 . S
Tb440 O461 2.440 . S
Tb440 O462 2.658 . S
Tb440 O463 2.409 . S
Tb440 O464 2.378 . S
Tb440 O468 2.325 . S
Tb440 O471 2.341 . S
Tb441 C451 2.809 . S
Tb441 O462 2.325 . S
Tb441 O465 2.341 . S
Tb441 O466 2.484 . S
Tb441 O467 2.440 . S
Tb441 O468 2.658 . S
Tb441 O469 2.409 . S
Tb441 O470 2.378 . S
C442 Tb440 2.809 1_556 S
C442 C443 1.514 . S
C442 O460 1.236 1_556 S
C442 O461 1.266 1_556 S
C443 C442 1.514 . S
C443 C444 1.359 . S
C443 C448 1.348 . S
C444 C443 1.359 . S
C444 C445 1.380 . S
C444 H472 0.929 . S
C445 C444 1.380 . S
C445 C446 1.347 . S
C445 H473 0.931 . S
C446 C445 1.347 . S
C446 C447 1.369 . S
C447 C446 1.369 . S
C447 C448 1.408 . S
C447 H474 0.930 . S
C448 C443 1.348 . S
C448 C447 1.408 . S
C448 H475 0.930 . S
C449 O462 1.281 . S
C449 O463 1.254 . S
C450 O464 1.236 . S
C450 O465 1.266 . S
C451 Tb441 2.809 . S
C451 C452 1.514 . S
C451 O466 1.248 . S
C451 O467 1.266 . S
C452 C451 1.514 . S
C452 C453 1.359 . S
C452 C457 1.348 . S
C453 C452 1.359 . S
C453 C454 1.380 . S
C453 H476 0.929 . S
C454 C453 1.380 . S
C454 C455 1.347 . S
C454 H477 0.931 . S
C455 C454 1.347 . S
C455 C456 1.369 . S
C456 C455 1.369 . S
C456 C457 1.408 . S
C456 H478 0.930 . S
C457 C452 1.348 . S
C457 C456 1.408 . S
C457 H479 0.930 . S
C458 O468 1.281 . S
C458 O469 1.254 . S
C459 O470 1.236 . S
C459 O471 1.266 . S
O460 Tb440 2.512 . S
O460 C442 1.236 1_554 S
O461 Tb440 2.440 . S
O461 C442 1.266 1_554 S
O462 Tb440 2.658 . S
O462 Tb441 2.325 . S
O462 C449 1.281 . S
O463 Tb440 2.409 . S
O463 C449 1.254 . S
O464 Tb440 2.378 . S
O464 C450 1.236 . S
O465 Tb441 2.341 . S
O465 C450 1.266 . S
O466 Tb441 2.484 . S
O466 C451 1.248 . S
O467 Tb441 2.440 . S
O467 C451 1.266 . S
O468 Tb440 2.325 . S
O468 Tb441 2.658 . S
O468 C458 1.281 . S
O469 Tb441 2.409 . S
O469 C458 1.254 . S
O470 Tb441 2.378 . S
O470 C459 1.236 . S
O471 Tb440 2.341 . S
O471 C459 1.266 . S
H472 C444 0.929 . S
H473 C445 0.931 . S
H474 C447 0.930 . S
H475 C448 0.930 . S
H476 C453 0.929 . S
H477 C454 0.931 . S
H478 C456 0.930 . S
H479 C457 0.930 . S
H480 C486 0.930 . S
H481 C489 0.930 . S
H482 C490 0.930 . S
H483 C491 0.930 . S
H484 C494 0.930 . S
H485 C495 0.930 . S
C486 H480 0.930 . S
C486 C487 1.355 . S
C486 C488 1.415 . S
C487 C486 1.355 . S
C487 C489 1.419 . S
C488 C486 1.415 . S
C488 C493 1.425 . S
C488 C495 1.409 . S
C489 H481 0.930 . S
C489 C487 1.419 . S
C489 C490 1.362 . S
C490 H482 0.930 . S
C490 C489 1.362 . S
C490 C493 1.409 . S
C491 H483 0.930 . S
C491 C492 1.355 . S
C491 C493 1.415 . S
C492 C491 1.355 . S
C492 C494 1.419 . S
C493 C488 1.425 . S
C493 C490 1.409 . S
C493 C491 1.415 . S
C494 H484 0.930 . S
C494 C492 1.419 . S
C494 C495 1.362 . S
C495 H485 0.930 . S
C495 C488 1.409 . S
C495 C494 1.362 . S
H496 C502 0.930 . S
H497 C505 0.930 . S
H498 C506 0.930 . S
H499 C507 0.930 . S
H500 C510 0.930 . S
H501 C511 0.930 . S
C502 H496 0.930 . S
C502 C503 1.355 . S
C502 C504 1.415 . S
C503 C502 1.355 . S
C503 C505 1.419 . S
C504 C502 1.415 . S
C504 C509 1.425 . S
C504 C511 1.409 . S
C505 H497 0.930 . S
C505 C503 1.419 . S
C505 C506 1.362 . S
C506 H498 0.930 . S
C506 C505 1.362 . S
C506 C509 1.409 . S
C507 H499 0.930 . S
C507 C508 1.355 . S
C507 C509 1.415 . S
C508 C507 1.355 . S
C508 C510 1.419 . S
C509 C504 1.425 . S
C509 C506 1.409 . S
C509 C507 1.415 . S
C510 H500 0.930 . S
C510 C508 1.419 . S
C510 C511 1.362 . S
C511 H501 0.930 . S
C511 C504 1.409 . S
C511 C510 1.362 . S
H512 C518 0.930 . S
H513 C521 0.930 . S
H514 C522 0.930 . S
H515 C523 0.930 . S
H516 C526 0.930 . S
H517 C527 0.930 . S
C518 H512 0.930 . S
C518 C519 1.355 . S
C518 C520 1.415 . S
C519 C518 1.355 . S
C519 C521 1.419 . S
C520 C518 1.415 . S
C520 C525 1.425 . S
C520 C527 1.409 . S
C521 H513 0.930 . S
C521 C519 1.419 . S
C521 C522 1.362 . S
C522 H514 0.930 . S
C522 C521 1.362 . S
C522 C525 1.409 . S
C523 H515 0.930 . S
C523 C524 1.355 . S
C523 C525 1.415 . S
C524 C523 1.355 . S
C524 C526 1.419 . S
C525 C520 1.425 . S
C525 C522 1.409 . S
C525 C523 1.415 . S
C526 H516 0.930 . S
C526 C524 1.419 . S
C526 C527 1.362 . S
C527 H517 0.930 . S
C527 C520 1.409 . S
C527 C526 1.362 . S
H528 C534 0.930 . S
H529 C537 0.930 . S
H530 C538 0.930 . S
H531 C539 0.930 . S
H532 C542 0.930 . S
H533 C543 0.930 . S
C534 H528 0.930 . S
C534 C535 1.355 . S
C534 C536 1.415 . S
C535 C534 1.355 . S
C535 C537 1.419 . S
C536 C534 1.415 . S
C536 C541 1.425 . S
C536 C543 1.409 . S
C537 H529 0.930 . S
C537 C535 1.419 . S
C537 C538 1.362 . S
C538 H530 0.930 . S
C538 C537 1.362 . S
C538 C541 1.409 . S
C539 H531 0.930 . S
C539 C540 1.355 . S
C539 C541 1.415 . S
C540 C539 1.355 . S
C540 C542 1.419 . S
C541 C536 1.425 . S
C541 C538 1.409 . S
C541 C539 1.415 . S
C542 H532 0.930 . S
C542 C540 1.419 . S
C542 C543 1.362 . S
C543 H533 0.930 . S
C543 C536 1.409 . S
C543 C542 1.362 . S
H544 C550 0.930 . S
H545 C553 0.930 . S
H546 C554 0.930 . S
H547 C555 0.930 . S
H548 C558 0.930 . S
H549 C559 0.930 . S
C550 H544 0.930 . S
C550 C551 1.355 . S
C550 C552 1.415 . S
C551 C550 1.355 . S
C551 C553 1.419 . S
C552 C550 1.415 . S
C552 C557 1.425 . S
C552 C559 1.409 . S
C553 H545 0.930 . S
C553 C551 1.419 . S
C553 C554 1.362 . S
C554 H546 0.930 . S
C554 C553 1.362 . S
C554 C557 1.409 . S
C555 H547 0.930 . S
C555 C556 1.355 . S
C555 C557 1.415 . S
C556 C555 1.355 . S
C556 C558 1.419 . S
C557 C552 1.425 . S
C557 C554 1.409 . S
C557 C555 1.415 . S
C558 H548 0.930 . S
C558 C556 1.419 . S
C558 C559 1.362 . S
C559 H549 0.930 . S
C559 C552 1.409 . S
C559 C558 1.362 . S
H560 C566 0.930 . S
H561 C569 0.930 . S
H562 C570 0.930 . S
H563 C571 0.930 . S
H564 C574 0.930 . S
H565 C575 0.930 . S
C566 H560 0.930 . S
C566 C567 1.355 . S
C566 C568 1.415 . S
C567 C566 1.355 . S
C567 C569 1.419 . S
C568 C566 1.415 . S
C568 C573 1.425 . S
C568 C575 1.409 . S
C569 H561 0.930 . S
C569 C567 1.419 . S
C569 C570 1.362 . S
C570 H562 0.930 . S
C570 C569 1.362 . S
C570 C573 1.409 . S
C571 H563 0.930 . S
C571 C572 1.355 . S
C571 C573 1.415 . S
C572 C571 1.355 . S
C572 C574 1.419 . S
C573 C568 1.425 . S
C573 C570 1.409 . S
C573 C571 1.415 . S
C574 H564 0.930 . S
C574 C572 1.419 . S
C574 C575 1.362 . S
C575 H565 0.930 . S
C575 C568 1.409 . S
C575 C574 1.362 . S
H576 C582 0.930 . S
H577 C585 0.930 . S
H578 C586 0.930 . S
H579 C587 0.930 . S
H580 C590 0.930 . S
H581 C591 0.930 . S
C582 H576 0.930 . S
C582 C583 1.355 1_554 S
C582 C584 1.415 . S
C583 C582 1.355 1_556 S
C583 C585 1.419 . S
C584 C582 1.415 . S
C584 C589 1.425 1_554 S
C584 C591 1.409 . S
C585 H577 0.930 . S
C585 C583 1.419 . S
C585 C586 1.362 . S
C586 H578 0.930 . S
C586 C585 1.362 . S
C586 C589 1.409 . S
C587 H579 0.930 . S
C587 C588 1.355 1_556 S
C587 C589 1.415 . S
C588 C587 1.355 1_554 S
C588 C590 1.419 . S
C589 C584 1.425 1_556 S
C589 C586 1.409 . S
C589 C587 1.415 . S
C590 H580 0.930 . S
C590 C588 1.419 . S
C590 C591 1.362 . S
C591 H581 0.930 . S
C591 C584 1.409 . S
C591 C590 1.362 . S
H592 C598 0.930 . S
H593 C601 0.930 . S
H594 C602 0.930 . S
H595 C603 0.930 . S
H596 C606 0.930 . S
H597 C607 0.930 . S
C598 H592 0.930 . S
C598 C599 1.355 . S
C598 C600 1.415 . S
C599 C598 1.355 . S
C599 C601 1.419 . S
C600 C598 1.415 . S
C600 C605 1.425 . S
C600 C607 1.409 . S
C601 H593 0.930 . S
C601 C599 1.419 . S
C601 C602 1.362 . S
C602 H594 0.930 . S
C602 C601 1.362 . S
C602 C605 1.409 . S
C603 H595 0.930 . S
C603 C604 1.355 . S
C603 C605 1.415 . S
C604 C603 1.355 . S
C604 C606 1.419 . S
C605 C600 1.425 . S
C605 C602 1.409 . S
C605 C603 1.415 . S
C606 H596 0.930 . S
C606 C604 1.419 . S
C606 C607 1.362 . S
C607 H597 0.930 . S
C607 C600 1.409 . S
C607 C606 1.362 . S
H608 C614 0.930 . S
H609 C617 0.930 . S
H610 C618 0.930 . S
H611 C619 0.930 . S
H612 C622 0.930 . S
H613 C623 0.930 . S
C614 H608 0.930 . S
C614 C615 1.355 . S
C614 C616 1.415 . S
C615 C614 1.355 . S
C615 C617 1.419 . S
C616 C614 1.415 . S
C616 C621 1.425 . S
C616 C623 1.409 . S
C617 H609 0.930 . S
C617 C615 1.419 . S
C617 C618 1.362 . S
C618 H610 0.930 . S
C618 C617 1.362 . S
C618 C621 1.409 . S
C619 H611 0.930 . S
C619 C620 1.355 . S
C619 C621 1.415 . S
C620 C619 1.355 . S
C620 C622 1.419 . S
C621 C616 1.425 . S
C621 C618 1.409 . S
C621 C619 1.415 . S
C622 H612 0.930 . S
C622 C620 1.419 . S
C622 C623 1.362 . S
C623 H613 0.930 . S
C623 C616 1.409 . S
C623 C622 1.362 . S
H624 C630 0.930 . S
H625 C633 0.930 . S
H626 C634 0.930 . S
H627 C635 0.930 . S
H628 C638 0.930 . S
H629 C639 0.930 . S
C630 H624 0.930 . S
C630 C631 1.355 . S
C630 C632 1.415 . S
C631 C630 1.355 . S
C631 C633 1.419 1_556 S
C632 C630 1.415 . S
C632 C637 1.425 1_556 S
C632 C639 1.409 . S
C633 H625 0.930 . S
C633 C631 1.419 1_554 S
C633 C634 1.362 . S
C634 H626 0.930 . S
C634 C633 1.362 . S
C634 C637 1.409 . S
C635 H627 0.930 . S
C635 C636 1.355 . S
C635 C637 1.415 . S
C636 C635 1.355 . S
C636 C638 1.419 1_554 S
C637 C632 1.425 1_554 S
C637 C634 1.409 . S
C637 C635 1.415 . S
C638 H628 0.930 . S
C638 C636 1.419 1_556 S
C638 C639 1.362 . S
C639 H629 0.930 . S
C639 C632 1.409 . S
C639 C638 1.362 . S
H640 C646 0.930 . S
H641 C649 0.930 . S
H642 C650 0.930 . S
H643 C651 0.930 . S
H644 C654 0.930 . S
H645 C655 0.930 . S
C646 H640 0.930 . S
C646 C647 1.355 . S
C646 C648 1.415 . S
C647 C646 1.355 . S
C647 C649 1.419 . S
C648 C646 1.415 . S
C648 C653 1.425 . S
C648 C655 1.409 . S
C649 H641 0.930 . S
C649 C647 1.419 . S
C649 C650 1.362 . S
C650 H642 0.930 . S
C650 C649 1.362 . S
C650 C653 1.409 . S
C651 H643 0.930 . S
C651 C652 1.355 . S
C651 C653 1.415 . S
C652 C651 1.355 . S
C652 C654 1.419 . S
C653 C648 1.425 . S
C653 C650 1.409 . S
C653 C651 1.415 . S
C654 H644 0.930 . S
C654 C652 1.419 . S
C654 C655 1.362 . S
C655 H645 0.930 . S
C655 C648 1.409 . S
C655 C654 1.362 . S
H656 C662 0.930 . S
H657 C665 0.930 . S
H658 C666 0.930 . S
H659 C667 0.930 . S
H660 C670 0.930 . S
H661 C671 0.930 . S
C662 H656 0.930 . S
C662 C663 1.355 . S
C662 C664 1.415 . S
C663 C662 1.355 . S
C663 C665 1.419 . S
C664 C662 1.415 . S
C664 C669 1.425 . S
C664 C671 1.409 . S
C665 H657 0.930 . S
C665 C663 1.419 . S
C665 C666 1.362 . S
C666 H658 0.930 . S
C666 C665 1.362 . S
C666 C669 1.409 . S
C667 H659 0.930 . S
C667 C668 1.355 . S
C667 C669 1.415 . S
C668 C667 1.355 . S
C668 C670 1.419 . S
C669 C664 1.425 . S
C669 C666 1.409 . S
C669 C667 1.415 . S
C670 H660 0.930 . S
C670 C668 1.419 . S
C670 C671 1.362 . S
C671 H661 0.930 . S
C671 C664 1.409 . S
C671 C670 1.362 . S
H672 C678 0.924 1_545 S
H673 C681 0.930 . S
H674 C682 0.930 . S
H675 C683 0.924 1_565 S
H676 C686 0.930 . S
H677 C687 0.930 . S
C678 H672 0.924 1_565 S
C678 C679 1.365 . S
C678 C680 1.411 1_565 S
C679 C678 1.365 . S
C679 C681 1.419 . S
C680 C678 1.411 1_545 S
C680 C685 1.425 1_546 S
C680 C687 1.409 . S
C681 H673 0.930 . S
C681 C679 1.419 . S
C681 C682 1.362 1_556 S
C682 H674 0.930 . S
C682 C681 1.362 1_554 S
C682 C685 1.409 . S
C683 H675 0.924 1_545 S
C683 C684 1.364 . S
C683 C685 1.411 1_545 S
C684 C683 1.364 . S
C684 C686 1.419 . S
C685 C680 1.425 1_564 S
C685 C682 1.409 . S
C685 C683 1.411 1_565 S
C686 H676 0.930 . S
C686 C684 1.419 . S
C686 C687 1.362 1_554 S
C687 H677 0.930 . S
C687 C680 1.409 . S
C687 C686 1.362 1_556 S
H688 C694 0.930 . S
H689 C697 0.930 . S
H690 C698 0.930 . S
H691 C699 0.930 . S
H692 C702 0.930 . S
H693 C703 0.930 . S
C694 H688 0.930 . S
C694 C695 1.355 . S
C694 C696 1.415 . S
C695 C694 1.355 . S
C695 C697 1.419 . S
C696 C694 1.415 . S
C696 C701 1.425 . S
C696 C703 1.409 . S
C697 H689 0.930 . S
C697 C695 1.419 . S
C697 C698 1.362 . S
C698 H690 0.930 . S
C698 C697 1.362 . S
C698 C701 1.409 . S
C699 H691 0.930 . S
C699 C700 1.355 . S
C699 C701 1.415 . S
C700 C699 1.355 . S
C700 C702 1.419 . S
C701 C696 1.425 . S
C701 C698 1.409 . S
C701 C699 1.415 . S
C702 H692 0.930 . S
C702 C700 1.419 . S
C702 C703 1.362 . S
C703 H693 0.930 . S
C703 C696 1.409 . S
C703 C702 1.362 . S
H704 C710 0.930 1_655 S
H705 C713 0.930 . S
H706 C714 0.930 . S
H707 C715 0.930 1_455 S
H708 C718 0.930 . S
H709 C719 0.930 . S
C710 H704 0.930 1_455 S
C710 C711 1.355 . S
C710 C712 1.415 1_455 S
C711 C710 1.355 . S
C711 C713 1.419 . S
C712 C710 1.415 1_655 S
C712 C717 1.425 1_655 S
C712 C719 1.409 . S
C713 H705 0.930 . S
C713 C711 1.419 . S
C713 C714 1.362 . S
C714 H706 0.930 . S
C714 C713 1.362 . S
C714 C717 1.409 . S
C715 H707 0.930 1_655 S
C715 C716 1.355 . S
C715 C717 1.415 1_655 S
C716 C715 1.355 . S
C716 C718 1.419 . S
C717 C712 1.425 1_455 S
C717 C714 1.409 . S
C717 C715 1.415 1_455 S
C718 H708 0.930 . S
C718 C716 1.419 . S
C718 C719 1.362 . S
C719 H709 0.930 . S
C719 C712 1.409 . S
C719 C718 1.362 . S
H720 C726 0.930 1_545 S
H721 C729 0.930 . S
H722 C730 0.930 . S
H723 C731 0.930 1_565 S
H724 C734 0.930 . S
H725 C735 0.930 . S
C726 H720 0.930 1_565 S
C726 C727 1.355 . S
C726 C728 1.415 1_565 S
C727 C726 1.355 . S
C727 C729 1.419 . S
C728 C726 1.415 1_545 S
C728 C733 1.425 1_544 S
C728 C735 1.409 . S
C729 H721 0.930 . S
C729 C727 1.419 . S
C729 C730 1.362 1_554 S
C730 H722 0.930 . S
C730 C729 1.362 1_556 S
C730 C733 1.409 . S
C731 H723 0.930 1_545 S
C731 C732 1.355 . S
C731 C733 1.415 1_545 S
C732 C731 1.355 . S
C732 C734 1.419 . S
C733 C728 1.425 1_566 S
C733 C730 1.409 . S
C733 C731 1.415 1_565 S
C734 H724 0.930 . S
C734 C732 1.419 . S
C734 C735 1.362 1_556 S
C735 H725 0.930 . S
C735 C728 1.409 . S
C735 C734 1.362 1_554 S
H736 C742 0.930 . S
H737 C745 0.930 . S
H738 C746 0.930 . S
H739 C747 0.930 . S
H740 C750 0.930 . S
H741 C751 0.930 . S
C742 H736 0.930 . S
C742 C743 1.355 . S
C742 C744 1.415 . S
C743 C742 1.355 . S
C743 C745 1.419 . S
C744 C742 1.415 . S
C744 C749 1.425 . S
C744 C751 1.409 . S
C745 H737 0.930 . S
C745 C743 1.419 . S
C745 C746 1.362 . S
C746 H738 0.930 . S
C746 C745 1.362 . S
C746 C749 1.409 . S
C747 H739 0.930 . S
C747 C748 1.355 . S
C747 C749 1.415 . S
C748 C747 1.355 . S
C748 C750 1.419 . S
C749 C744 1.425 . S
C749 C746 1.409 . S
C749 C747 1.415 . S
C750 H740 0.930 . S
C750 C748 1.419 . S
C750 C751 1.362 . S
C751 H741 0.930 . S
C751 C744 1.409 . S
C751 C750 1.362 . S
H752 C758 0.930 . S
H753 C761 0.916 1_655 S
H754 C762 0.930 . S
H755 C763 0.930 . S
H756 C766 0.916 1_455 S
H757 C767 0.930 . S
C758 H752 0.930 . S
C758 C759 1.355 . S
C758 C760 1.415 . S
C759 C758 1.355 . S
C759 C761 1.454 . S
C760 C758 1.415 . S
C760 C765 1.425 1_455 S
C760 C767 1.409 . S
C761 H753 0.916 1_455 S
C761 C759 1.454 . S
C761 C762 1.342 1_455 S
C762 H754 0.930 . S
C762 C761 1.342 1_655 S
C762 C765 1.409 . S
C763 H755 0.930 . S
C763 C764 1.355 . S
C763 C765 1.415 . S
C764 C763 1.355 . S
C764 C766 1.453 . S
C765 C760 1.425 1_655 S
C765 C762 1.409 . S
C765 C763 1.415 . S
C766 H756 0.916 1_655 S
C766 C764 1.453 . S
C766 C767 1.343 1_655 S
C767 H757 0.930 . S
C767 C760 1.409 . S
C767 C766 1.343 1_455 S
H768 C774 0.930 . S
H769 C777 0.930 . S
H770 C778 0.930 . S
H771 C779 0.930 . S
H772 C782 0.930 . S
H773 C783 0.930 . S
C774 H768 0.930 . S
C774 C775 1.355 . S
C774 C776 1.415 1_545 S
C775 C774 1.355 . S
C775 C777 1.419 . S
C776 C774 1.415 1_565 S
C776 C781 1.425 1_565 S
C776 C783 1.409 . S
C777 H769 0.930 . S
C777 C775 1.419 . S
C777 C778 1.362 . S
C778 H770 0.930 . S
C778 C777 1.362 . S
C778 C781 1.409 . S
C779 H771 0.930 . S
C779 C780 1.355 . S
C779 C781 1.415 1_565 S
C780 C779 1.355 . S
C780 C782 1.419 . S
C781 C776 1.425 1_545 S
C781 C778 1.409 . S
C781 C779 1.415 1_545 S
C782 H772 0.930 . S
C782 C780 1.419 . S
C782 C783 1.362 . S
C783 H773 0.930 . S
C783 C776 1.409 . S
C783 C782 1.362 . S
H784 C790 0.930 . S
H785 C793 0.930 . S
H786 C794 0.930 . S
H787 C795 0.930 . S
H788 C798 0.930 . S
H789 C799 0.930 . S
C790 H784 0.930 . S
C790 C791 1.355 . S
C790 C792 1.415 . S
C791 C790 1.355 . S
C791 C793 1.419 . S
C792 C790 1.415 . S
C792 C797 1.425 . S
C792 C799 1.409 . S
C793 H785 0.930 . S
C793 C791 1.419 . S
C793 C794 1.362 . S
C794 H786 0.930 . S
C794 C793 1.362 . S
C794 C797 1.409 . S
C795 H787 0.930 . S
C795 C796 1.355 . S
C795 C797 1.415 . S
C796 C795 1.355 . S
C796 C798 1.419 . S
C797 C792 1.425 . S
C797 C794 1.409 . S
C797 C795 1.415 . S
C798 H788 0.930 . S
C798 C796 1.419 . S
C798 C799 1.362 . S
C799 H789 0.930 . S
C799 C792 1.409 . S
C799 C798 1.362 . S
H800 C806 0.930 . S
H801 C809 0.930 . S
H802 C810 0.930 . S
H803 C811 0.930 . S
H804 C814 0.930 . S
H805 C815 0.930 . S
C806 H800 0.930 . S
C806 C807 1.355 . S
C806 C808 1.415 1_655 S
C807 C806 1.355 . S
C807 C809 1.419 . S
C808 C806 1.415 1_455 S
C808 C813 1.425 1_455 S
C808 C815 1.409 . S
C809 H801 0.930 . S
C809 C807 1.419 . S
C809 C810 1.362 . S
C810 H802 0.930 . S
C810 C809 1.362 . S
C810 C813 1.409 . S
C811 H803 0.930 . S
C811 C812 1.355 . S
C811 C813 1.415 1_455 S
C812 C811 1.355 . S
C812 C814 1.419 . S
C813 C808 1.425 1_655 S
C813 C810 1.409 . S
C813 C811 1.415 1_655 S
C814 H804 0.930 . S
C814 C812 1.419 . S
C814 C815 1.362 . S
C815 H805 0.930 . S
C815 C808 1.409 . S
C815 C814 1.362 . S
H816 C822 0.930 . S
H817 C825 0.930 . S
H818 C826 0.930 . S
H819 C827 0.930 . S
H820 C830 0.930 . S
H821 C831 0.930 . S
C822 H816 0.930 . S
C822 C823 1.355 . S
C822 C824 1.415 1_455 S
C823 C822 1.355 . S
C823 C825 1.419 . S
C824 C822 1.415 1_655 S
C824 C829 1.425 1_655 S
C824 C831 1.409 . S
C825 H817 0.930 . S
C825 C823 1.419 . S
C825 C826 1.362 . S
C826 H818 0.930 . S
C826 C825 1.362 . S
C826 C829 1.409 . S
C827 H819 0.930 . S
C827 C828 1.355 . S
C827 C829 1.415 1_655 S
C828 C827 1.355 . S
C828 C830 1.419 . S
C829 C824 1.425 1_455 S
C829 C826 1.409 . S
C829 C827 1.415 1_455 S
C830 H820 0.930 . S
C830 C828 1.419 . S
C830 C831 1.362 . S
C831 H821 0.930 . S
C831 C824 1.409 . S
C831 C830 1.362 . S
H832 C838 0.930 . S
H833 C841 0.930 . S
H834 C842 0.930 . S
H835 C843 0.930 . S
H836 C846 0.930 . S
H837 C847 0.930 . S
C838 H832 0.930 . S
C838 C839 1.355 . S
C838 C840 1.415 1_565 S
C839 C838 1.355 . S
C839 C841 1.419 . S
C840 C838 1.415 1_545 S
C840 C845 1.425 1_545 S
C840 C847 1.409 . S
C841 H833 0.930 . S
C841 C839 1.419 . S
C841 C842 1.362 . S
C842 H834 0.930 . S
C842 C841 1.362 . S
C842 C845 1.409 . S
C843 H835 0.930 . S
C843 C844 1.355 . S
C843 C845 1.415 1_545 S
C844 C843 1.355 . S
C844 C846 1.419 . S
C845 C840 1.425 1_565 S
C845 C842 1.409 . S
C845 C843 1.415 1_565 S
C846 H836 0.930 . S
C846 C844 1.419 . S
C846 C847 1.362 . S
C847 H837 0.930 . S
C847 C840 1.409 . S
C847 C846 1.362 . S
H848 C854 0.930 . S
H849 C857 0.930 . S
H850 C858 0.930 . S
H851 C859 0.930 . S
H852 C862 0.930 . S
H853 C863 0.930 . S
C854 H848 0.930 . S
C854 C855 1.355 . S
C854 C856 1.415 . S
C855 C854 1.355 . S
C855 C857 1.419 . S
C856 C854 1.415 . S
C856 C861 1.425 . S
C856 C863 1.409 . S
C857 H849 0.930 . S
C857 C855 1.419 . S
C857 C858 1.362 . S
C858 H850 0.930 . S
C858 C857 1.362 . S
C858 C861 1.409 . S
C859 H851 0.930 . S
C859 C860 1.355 . S
C859 C861 1.415 . S
C860 C859 1.355 . S
C860 C862 1.419 . S
C861 C856 1.425 . S
C861 C858 1.409 . S
C861 C859 1.415 . S
C862 H852 0.930 . S
C862 C860 1.419 . S
C862 C863 1.362 . S
C863 H853 0.930 . S
C863 C856 1.409 . S
C863 C862 1.362 . S
H864 C870 0.930 . S
H865 C873 0.930 . S
H866 C874 0.930 1_545 S
H867 C875 0.930 . S
H868 C878 0.930 . S
H869 C879 0.930 1_565 S
C870 H864 0.930 . S
C870 C871 1.355 . S
C870 C872 1.415 . S
C871 C870 1.355 . S
C871 C873 1.419 . S
C872 C870 1.415 . S
C872 C877 1.425 1_565 S
C872 C879 1.409 1_565 S
C873 H865 0.930 . S
C873 C871 1.419 . S
C873 C874 1.362 . S
C874 H866 0.930 1_565 S
C874 C873 1.362 . S
C874 C877 1.409 1_565 S
C875 H867 0.930 . S
C875 C876 1.355 . S
C875 C877 1.415 . S
C876 C875 1.355 . S
C876 C878 1.419 . S
C877 C872 1.425 1_545 S
C877 C874 1.409 1_545 S
C877 C875 1.415 . S
C878 H868 0.930 . S
C878 C876 1.419 . S
C878 C879 1.362 . S
C879 H869 0.930 1_545 S
C879 C872 1.409 1_545 S
C879 C878 1.362 . S
H880 C886 0.930 . S
H881 C889 0.930 . S
H882 C890 0.930 . S
H883 C891 0.930 . S
H884 C894 0.930 . S
H885 C895 0.930 . S
C886 H880 0.930 . S
C886 C887 1.355 . S
C886 C888 1.415 . S
C887 C886 1.355 . S
C887 C889 1.419 . S
C888 C886 1.415 . S
C888 C893 1.425 . S
C888 C895 1.409 . S
C889 H881 0.930 . S
C889 C887 1.419 . S
C889 C890 1.362 . S
C890 H882 0.930 . S
C890 C889 1.362 . S
C890 C893 1.409 . S
C891 H883 0.930 . S
C891 C892 1.355 . S
C891 C893 1.415 . S
C892 C891 1.355 . S
C892 C894 1.419 . S
C893 C888 1.425 . S
C893 C890 1.409 . S
C893 C891 1.415 . S
C894 H884 0.930 . S
C894 C892 1.419 . S
C894 C895 1.362 . S
C895 H885 0.930 . S
C895 C888 1.409 . S
C895 C894 1.362 . S
H896 C902 0.930 . S
H897 C905 0.930 . S
H898 C906 0.930 1_455 S
H899 C907 0.930 . S
H900 C910 0.930 . S
H901 C911 0.930 1_655 S
C902 H896 0.930 . S
C902 C903 1.355 . S
C902 C904 1.415 . S
C903 C902 1.355 . S
C903 C905 1.419 . S
C904 C902 1.415 . S
C904 C909 1.425 1_655 S
C904 C911 1.409 1_655 S
C905 H897 0.930 . S
C905 C903 1.419 . S
C905 C906 1.362 . S
C906 H898 0.930 1_655 S
C906 C905 1.362 . S
C906 C909 1.409 1_655 S
C907 H899 0.930 . S
C907 C908 1.355 . S
C907 C909 1.415 . S
C908 C907 1.355 . S
C908 C910 1.419 . S
C909 C904 1.425 1_455 S
C909 C906 1.409 1_455 S
C909 C907 1.415 . S
C910 H900 0.930 . S
C910 C908 1.419 . S
C910 C911 1.362 . S
C911 H901 0.930 1_455 S
C911 C904 1.409 1_455 S
C911 C910 1.362 . S
H912 C918 0.930 . S
H913 C921 0.930 . S
H914 C922 0.930 . S
H915 C923 0.930 . S
H916 C926 0.930 . S
H917 C927 0.930 . S
C918 H912 0.930 . S
C918 C919 1.355 . S
C918 C920 1.415 . S
C919 C918 1.355 . S
C919 C921 1.419 . S
C920 C918 1.415 . S
C920 C925 1.425 1_545 S
C920 C927 1.409 1_545 S
C921 H913 0.930 . S
C921 C919 1.419 . S
C921 C922 1.362 . S
C922 H914 0.930 . S
C922 C921 1.362 . S
C922 C925 1.409 1_545 S
C923 H915 0.930 . S
C923 C924 1.355 . S
C923 C925 1.415 . S
C924 C923 1.355 . S
C924 C926 1.419 . S
C925 C920 1.425 1_565 S
C925 C922 1.409 1_565 S
C925 C923 1.415 . S
C926 H916 0.930 . S
C926 C924 1.419 . S
C926 C927 1.362 . S
C927 H917 0.930 . S
C927 C920 1.409 1_565 S
C927 C926 1.362 . S
H928 C934 0.930 . S
H929 C937 0.930 . S
H930 C938 0.930 . S
H931 C939 0.930 . S
H932 C942 0.930 . S
H933 C943 0.930 . S
C934 H928 0.930 . S
C934 C935 1.355 . S
C934 C936 1.415 . S
C935 C934 1.355 . S
C935 C937 1.419 . S
C936 C934 1.415 . S
C936 C941 1.425 . S
C936 C943 1.409 . S
C937 H929 0.930 . S
C937 C935 1.419 . S
C937 C938 1.362 . S
C938 H930 0.930 . S
C938 C937 1.362 . S
C938 C941 1.409 . S
C939 H931 0.930 . S
C939 C940 1.355 . S
C939 C941 1.415 . S
C940 C939 1.355 . S
C940 C942 1.419 . S
C941 C936 1.425 . S
C941 C938 1.409 . S
C941 C939 1.415 . S
C942 H932 0.930 . S
C942 C940 1.419 . S
C942 C943 1.362 . S
C943 H933 0.930 . S
C943 C936 1.409 . S
C943 C942 1.362 . S
H944 C950 0.930 . S
H945 C953 0.930 . S
H946 C954 0.930 1_655 S
H947 C955 0.930 . S
H948 C958 0.930 . S
H949 C959 0.930 1_455 S
C950 H944 0.930 . S
C950 C951 1.355 . S
C950 C952 1.415 . S
C951 C950 1.355 . S
C951 C953 1.419 . S
C952 C950 1.415 . S
C952 C957 1.425 1_455 S
C952 C959 1.409 1_455 S
C953 H945 0.930 . S
C953 C951 1.419 . S
C953 C954 1.362 . S
C954 H946 0.930 1_455 S
C954 C953 1.362 . S
C954 C957 1.409 1_455 S
C955 H947 0.930 . S
C955 C956 1.355 . S
C955 C957 1.415 . S
C956 C955 1.355 . S
C956 C958 1.419 . S
C957 C952 1.425 1_655 S
C957 C954 1.409 1_655 S
C957 C955 1.415 . S
C958 H948 0.930 . S
C958 C956 1.419 . S
C958 C959 1.362 . S
C959 H949 0.930 1_655 S
C959 C952 1.409 1_655 S
C959 C958 1.362 . S
H960 C966 0.930 . S
H961 C969 0.930 . S
H962 C970 0.930 . S
H963 C971 0.930 . S
H964 C974 0.930 . S
H965 C975 0.930 . S
C966 H960 0.930 . S
C966 C967 1.355 . S
C966 C968 1.415 . S
C967 C966 1.355 . S
C967 C969 1.419 . S
C968 C966 1.415 . S
C968 C973 1.425 . S
C968 C975 1.409 . S
C969 H961 0.930 . S
C969 C967 1.419 . S
C969 C970 1.362 . S
C970 H962 0.930 . S
C970 C969 1.362 . S
C970 C973 1.409 . S
C971 H963 0.930 . S
C971 C972 1.355 . S
C971 C973 1.415 . S
C972 C971 1.355 . S
C972 C974 1.419 . S
C973 C968 1.425 . S
C973 C970 1.409 . S
C973 C971 1.415 . S
C974 H964 0.930 . S
C974 C972 1.419 . S
C974 C975 1.362 . S
C975 H965 0.930 . S
C975 C968 1.409 . S
C975 C974 1.362 . S
H976 C982 0.930 . S
H977 C985 0.930 . S
H978 C986 0.930 . S
H979 C987 0.930 . S
H980 C990 0.930 . S
H981 C991 0.930 . S
C982 H976 0.930 . S
C982 C983 1.355 . S
C982 C984 1.415 . S
C983 C982 1.355 . S
C983 C985 1.419 . S
C984 C982 1.415 . S
C984 C989 1.425 . S
C984 C991 1.409 . S
C985 H977 0.930 . S
C985 C983 1.419 . S
C985 C986 1.362 . S
C986 H978 0.930 . S
C986 C985 1.362 . S
C986 C989 1.409 . S
C987 H979 0.930 . S
C987 C988 1.355 . S
C987 C989 1.415 . S
C988 C987 1.355 . S
C988 C990 1.419 . S
C989 C984 1.425 . S
C989 C986 1.409 . S
C989 C987 1.415 . S
C990 H980 0.930 . S
C990 C988 1.419 . S
C990 C991 1.362 . S
C991 H981 0.930 . S
C991 C984 1.409 . S
C991 C990 1.362 . S
H992 C998 0.930 . S
H993 C1001 0.930 . S
H994 C1002 0.930 . S
H995 C1003 0.930 . S
H996 C1006 0.930 . S
H997 C1007 0.930 . S
C998 H992 0.930 . S
C998 C999 1.355 . S
C998 C1000 1.415 . S
C999 C998 1.355 . S
C999 C1001 1.419 . S
C1000 C998 1.415 . S
C1000 C1005 1.425 . S
C1000 C1007 1.409 . S
C1001 H993 0.930 . S
C1001 C999 1.419 . S
C1001 C1002 1.362 . S
C1002 H994 0.930 . S
C1002 C1001 1.362 . S
C1002 C1005 1.409 . S
C1003 H995 0.930 . S
C1003 C1004 1.355 . S
C1003 C1005 1.415 . S
C1004 C1003 1.355 . S
C1004 C1006 1.419 . S
C1005 C1000 1.425 . S
C1005 C1002 1.409 . S
C1005 C1003 1.415 . S
C1006 H996 0.930 . S
C1006 C1004 1.419 . S
C1006 C1007 1.362 . S
C1007 H997 0.930 . S
C1007 C1000 1.409 . S
C1007 C1006 1.362 . S
H1008 C1014 0.930 . S
H1009 C1017 0.930 . S
H1010 C1018 0.930 . S
H1011 C1019 0.930 . S
H1012 C1022 0.930 . S
H1013 C1023 0.930 . S
C1014 H1008 0.930 . S
C1014 C1015 1.355 . S
C1014 C1016 1.415 . S
C1015 C1014 1.355 . S
C1015 C1017 1.419 . S
C1016 C1014 1.415 . S
C1016 C1021 1.425 . S
C1016 C1023 1.409 . S
C1017 H1009 0.930 . S
C1017 C1015 1.419 . S
C1017 C1018 1.362 . S
C1018 H1010 0.930 . S
C1018 C1017 1.362 . S
C1018 C1021 1.409 . S
C1019 H1011 0.930 . S
C1019 C1020 1.355 . S
C1019 C1021 1.415 . S
C1020 C1019 1.355 . S
C1020 C1022 1.419 . S
C1021 C1016 1.425 . S
C1021 C1018 1.409 . S
C1021 C1019 1.415 . S
C1022 H1012 0.930 . S
C1022 C1020 1.419 . S
C1022 C1023 1.362 . S
C1023 H1013 0.930 . S
C1023 C1016 1.409 . S
C1023 C1022 1.362 . S
H1024 C1030 0.930 . S
H1025 C1033 0.930 . S
H1026 C1034 0.930 . S
H1027 C1035 0.930 . S
H1028 C1038 0.930 . S
H1029 C1039 0.930 . S
C1030 H1024 0.930 . S
C1030 C1031 1.355 . S
C1030 C1032 1.415 . S
C1031 C1030 1.355 . S
C1031 C1033 1.419 . S
C1032 C1030 1.415 . S
C1032 C1037 1.425 . S
C1032 C1039 1.409 . S
C1033 H1025 0.930 . S
C1033 C1031 1.419 . S
C1033 C1034 1.362 . S
C1034 H1026 0.930 . S
C1034 C1033 1.362 . S
C1034 C1037 1.409 . S
C1035 H1027 0.930 . S
C1035 C1036 1.355 . S
C1035 C1037 1.415 . S
C1036 C1035 1.355 . S
C1036 C1038 1.419 . S
C1037 C1032 1.425 . S
C1037 C1034 1.409 . S
C1037 C1035 1.415 . S
C1038 H1028 0.930 . S
C1038 C1036 1.419 . S
C1038 C1039 1.362 . S
C1039 H1029 0.930 . S
C1039 C1032 1.409 . S
C1039 C1038 1.362 . S
H1040 C1046 0.930 . S
H1041 C1049 0.930 . S
H1042 C1050 0.930 . S
H1043 C1051 0.930 . S
H1044 C1054 0.930 . S
H1045 C1055 0.930 . S
C1046 H1040 0.930 . S
C1046 C1047 1.355 . S
C1046 C1048 1.415 . S
C1047 C1046 1.355 . S
C1047 C1049 1.419 . S
C1048 C1046 1.415 . S
C1048 C1053 1.425 . S
C1048 C1055 1.409 . S
C1049 H1041 0.930 . S
C1049 C1047 1.419 . S
C1049 C1050 1.362 . S
C1050 H1042 0.930 . S
C1050 C1049 1.362 . S
C1050 C1053 1.409 . S
C1051 H1043 0.930 . S
C1051 C1052 1.355 . S
C1051 C1053 1.415 . S
C1052 C1051 1.355 . S
C1052 C1054 1.419 . S
C1053 C1048 1.425 . S
C1053 C1050 1.409 . S
C1053 C1051 1.415 . S
C1054 H1044 0.930 . S
C1054 C1052 1.419 . S
C1054 C1055 1.362 . S
C1055 H1045 0.930 . S
C1055 C1048 1.409 . S
C1055 C1054 1.362 . S
C487 C9 1.228 . S
C492 C329 1.209 . S
C503 C49 1.229 . S
C508 C369 1.204 . S
C519 C89 1.225 . S
C524 C409 1.217 . S
C535 C449 1.221 . S
C540 C129 1.168 . S
C551 C169 1.227 . S
C556 C249 1.212 . S
C567 C289 1.191 . S
C572 C209 1.136 . S
C583 C415 1.698 . S
C588 C15 1.706 . S
C599 C455 1.763 . S
C604 C55 1.734 . S
C615 C95 1.802 . S
C620 C255 1.796 . S
C631 C295 1.774 . S
C636 C135 1.746 . S
C647 C335 1.798 . S
C652 C175 1.801 . S
C663 C215 1.753 . S
C668 C375 1.780 . S
C679 C299 4.301 . S
C684 C19 4.304 . S
C695 C339 4.293 . S
C700 C59 4.306 . S
C711 C379 4.293 . S
C716 C99 4.306 . S
C727 C139 4.294 . S
C732 C419 4.306 . S
C743 C179 4.287 . S
C748 C459 4.305 . S
C759 C219 4.299 . S
C764 C259 4.283 . S
C775 C18 0.670 . S
C780 C138 0.692 . S
C791 C58 0.676 . S
C796 C178 0.732 . S
C807 C98 0.681 . S
C812 C218 0.675 . S
C823 C378 0.671 . S
C828 C258 0.716 . S
C839 C298 0.744 . S
C844 C418 0.682 . S
C855 C458 0.747 . S
C860 C338 0.683 . S
C871 C286 0.650 . S
C876 C6 0.699 . S
C887 C326 0.854 . S
C892 C46 0.795 . S
C903 C86 0.650 . S
C908 C366 0.665 . S
C919 C406 0.790 . S
C924 C126 0.852 . S
C935 C446 0.775 . S
C940 C166 0.696 . S
C951 C206 0.665 . S
C956 C246 0.733 . S
C967 C10 4.743 . S
C972 C410 4.736 . S
C983 C50 4.736 . S
C988 C450 4.741 1_556 S
C999 C90 4.741 1_554 S
C1004 C250 4.736 . S
C1015 C130 4.741 . S
C1020 C290 4.741 . S
C1031 C170 4.737 . S
C1036 C330 4.740 1_556 S
C1047 C370 4.739 . S
C1052 C210 4.742 1_554 S
