# Generated by pormake.
# Topology uox, (4)-cn, num edge types: 1
# Building blocks:
#     Node 0, Type 0, BuildingBlock: CEKHIL_clean_sbu_0, # of connection points: 4
#     Node 1, Type 0, BuildingBlock: CEKHIL_clean_sbu_0, # of connection points: 4
#     Node 2, Type 0, BuildingBlock: CEKHIL_clean_sbu_0, # of connection points: 4
#     Node 3, Type 0, BuildingBlock: CEKHIL_clean_sbu_0, # of connection points: 4
#     Node 4, Type 0, BuildingBlock: CEKHIL_clean_sbu_0, # of connection points: 4
#     Node 5, Type 0, BuildingBlock: CEKHIL_clean_sbu_0, # of connection points: 4
#     Node 6, Type 0, BuildingBlock: CEKHIL_clean_sbu_0, # of connection points: 4
#     Node 7, Type 0, BuildingBlock: CEKHIL_clean_sbu_0, # of connection points: 4
#     Node 8, Type 0, BuildingBlock: CEKHIL_clean_sbu_0, # of connection points: 4
#     Node 9, Type 0, BuildingBlock: CEKHIL_clean_sbu_0, # of connection points: 4
#     Node 10, Type 0, BuildingBlock: CEKHIL_clean_sbu_0, # of connection points: 4
#     Node 11, Type 0, BuildingBlock: CEKHIL_clean_sbu_0, # of connection points: 4
#     Node 12, Type 0, BuildingBlock: CEKHIL_clean_sbu_0, # of connection points: 4
#     Node 13, Type 0, BuildingBlock: CEKHIL_clean_sbu_0, # of connection points: 4
#     Node 14, Type 0, BuildingBlock: CEKHIL_clean_sbu_0, # of connection points: 4
#     Node 15, Type 0, BuildingBlock: CEKHIL_clean_sbu_0, # of connection points: 4
#     Node 16, Type 0, BuildingBlock: CEKHIL_clean_sbu_0, # of connection points: 4
#     Node 17, Type 0, BuildingBlock: CEKHIL_clean_sbu_0, # of connection points: 4
#     Node 18, Type 0, BuildingBlock: CEKHIL_clean_sbu_0, # of connection points: 4
#     Node 19, Type 0, BuildingBlock: CEKHIL_clean_sbu_0, # of connection points: 4
#     Node 20, Type 0, BuildingBlock: CEKHIL_clean_sbu_0, # of connection points: 4
#     Node 21, Type 0, BuildingBlock: CEKHIL_clean_sbu_0, # of connection points: 4
#     Node 22, Type 0, BuildingBlock: CEKHIL_clean_sbu_0, # of connection points: 4
#     Node 23, Type 0, BuildingBlock: CEKHIL_clean_sbu_0, # of connection points: 4
#     Node 24, Type 0, BuildingBlock: CEKHIL_clean_sbu_0, # of connection points: 4
#     Node 25, Type 0, BuildingBlock: CEKHIL_clean_sbu_0, # of connection points: 4
#     Node 26, Type 0, BuildingBlock: CEKHIL_clean_sbu_0, # of connection points: 4
#     Node 27, Type 0, BuildingBlock: CEKHIL_clean_sbu_0, # of connection points: 4
#     Node 28, Type 0, BuildingBlock: CEKHIL_clean_sbu_0, # of connection points: 4
#     Node 29, Type 0, BuildingBlock: CEKHIL_clean_sbu_0, # of connection points: 4
#     Node 30, Type 0, BuildingBlock: CEKHIL_clean_sbu_0, # of connection points: 4
#     Node 31, Type 0, BuildingBlock: CEKHIL_clean_sbu_0, # of connection points: 4
#     Edge 32, Type (0, 0), BuildingBlock: UVAHIK_clean_linker_0, # of connection points: 2
#     Edge 33, Type (0, 0), BuildingBlock: UVAHIK_clean_linker_0, # of connection points: 2
#     Edge 34, Type (0, 0), BuildingBlock: UVAHIK_clean_linker_0, # of connection points: 2
#     Edge 35, Type (0, 0), BuildingBlock: UVAHIK_clean_linker_0, # of connection points: 2
#     Edge 36, Type (0, 0), BuildingBlock: UVAHIK_clean_linker_0, # of connection points: 2
#     Edge 37, Type (0, 0), BuildingBlock: UVAHIK_clean_linker_0, # of connection points: 2
#     Edge 38, Type (0, 0), BuildingBlock: UVAHIK_clean_linker_0, # of connection points: 2
#     Edge 39, Type (0, 0), BuildingBlock: UVAHIK_clean_linker_0, # of connection points: 2
#     Edge 40, Type (0, 0), BuildingBlock: UVAHIK_clean_linker_0, # of connection points: 2
#     Edge 41, Type (0, 0), BuildingBlock: UVAHIK_clean_linker_0, # of connection points: 2
#     Edge 42, Type (0, 0), BuildingBlock: UVAHIK_clean_linker_0, # of connection points: 2
#     Edge 43, Type (0, 0), BuildingBlock: UVAHIK_clean_linker_0, # of connection points: 2
#     Edge 44, Type (0, 0), BuildingBlock: UVAHIK_clean_linker_0, # of connection points: 2
#     Edge 45, Type (0, 0), BuildingBlock: UVAHIK_clean_linker_0, # of connection points: 2
#     Edge 46, Type (0, 0), BuildingBlock: UVAHIK_clean_linker_0, # of connection points: 2
#     Edge 47, Type (0, 0), BuildingBlock: UVAHIK_clean_linker_0, # of connection points: 2
#     Edge 48, Type (0, 0), BuildingBlock: UVAHIK_clean_linker_0, # of connection points: 2
#     Edge 49, Type (0, 0), BuildingBlock: UVAHIK_clean_linker_0, # of connection points: 2
#     Edge 50, Type (0, 0), BuildingBlock: UVAHIK_clean_linker_0, # of connection points: 2
#     Edge 51, Type (0, 0), BuildingBlock: UVAHIK_clean_linker_0, # of connection points: 2
#     Edge 52, Type (0, 0), BuildingBlock: UVAHIK_clean_linker_0, # of connection points: 2
#     Edge 53, Type (0, 0), BuildingBlock: UVAHIK_clean_linker_0, # of connection points: 2
#     Edge 54, Type (0, 0), BuildingBlock: UVAHIK_clean_linker_0, # of connection points: 2
#     Edge 55, Type (0, 0), BuildingBlock: UVAHIK_clean_linker_0, # of connection points: 2
#     Edge 56, Type (0, 0), BuildingBlock: UVAHIK_clean_linker_0, # of connection points: 2
#     Edge 57, Type (0, 0), BuildingBlock: UVAHIK_clean_linker_0, # of connection points: 2
#     Edge 58, Type (0, 0), BuildingBlock: UVAHIK_clean_linker_0, # of connection points: 2
#     Edge 59, Type (0, 0), BuildingBlock: UVAHIK_clean_linker_0, # of connection points: 2
#     Edge 60, Type (0, 0), BuildingBlock: UVAHIK_clean_linker_0, # of connection points: 2
#     Edge 61, Type (0, 0), BuildingBlock: UVAHIK_clean_linker_0, # of connection points: 2
#     Edge 62, Type (0, 0), BuildingBlock: UVAHIK_clean_linker_0, # of connection points: 2
#     Edge 63, Type (0, 0), BuildingBlock: UVAHIK_clean_linker_0, # of connection points: 2
#     Edge 64, Type (0, 0), BuildingBlock: UVAHIK_clean_linker_0, # of connection points: 2
#     Edge 65, Type (0, 0), BuildingBlock: UVAHIK_clean_linker_0, # of connection points: 2
#     Edge 66, Type (0, 0), BuildingBlock: UVAHIK_clean_linker_0, # of connection points: 2
#     Edge 67, Type (0, 0), BuildingBlock: UVAHIK_clean_linker_0, # of connection points: 2
#     Edge 68, Type (0, 0), BuildingBlock: UVAHIK_clean_linker_0, # of connection points: 2
#     Edge 69, Type (0, 0), BuildingBlock: UVAHIK_clean_linker_0, # of connection points: 2
#     Edge 70, Type (0, 0), BuildingBlock: UVAHIK_clean_linker_0, # of connection points: 2
#     Edge 71, Type (0, 0), BuildingBlock: UVAHIK_clean_linker_0, # of connection points: 2
#     Edge 72, Type (0, 0), BuildingBlock: UVAHIK_clean_linker_0, # of connection points: 2
#     Edge 73, Type (0, 0), BuildingBlock: UVAHIK_clean_linker_0, # of connection points: 2
#     Edge 74, Type (0, 0), BuildingBlock: UVAHIK_clean_linker_0, # of connection points: 2
#     Edge 75, Type (0, 0), BuildingBlock: UVAHIK_clean_linker_0, # of connection points: 2
#     Edge 76, Type (0, 0), BuildingBlock: UVAHIK_clean_linker_0, # of connection points: 2
#     Edge 77, Type (0, 0), BuildingBlock: UVAHIK_clean_linker_0, # of connection points: 2
#     Edge 78, Type (0, 0), BuildingBlock: UVAHIK_clean_linker_0, # of connection points: 2
#     Edge 79, Type (0, 0), BuildingBlock: UVAHIK_clean_linker_0, # of connection points: 2
#     Edge 80, Type (0, 0), BuildingBlock: UVAHIK_clean_linker_0, # of connection points: 2
#     Edge 81, Type (0, 0), BuildingBlock: UVAHIK_clean_linker_0, # of connection points: 2
#     Edge 82, Type (0, 0), BuildingBlock: UVAHIK_clean_linker_0, # of connection points: 2
#     Edge 83, Type (0, 0), BuildingBlock: UVAHIK_clean_linker_0, # of connection points: 2
#     Edge 84, Type (0, 0), BuildingBlock: UVAHIK_clean_linker_0, # of connection points: 2
#     Edge 85, Type (0, 0), BuildingBlock: UVAHIK_clean_linker_0, # of connection points: 2
#     Edge 86, Type (0, 0), BuildingBlock: UVAHIK_clean_linker_0, # of connection points: 2
#     Edge 87, Type (0, 0), BuildingBlock: UVAHIK_clean_linker_0, # of connection points: 2
#     Edge 88, Type (0, 0), BuildingBlock: UVAHIK_clean_linker_0, # of connection points: 2
#     Edge 89, Type (0, 0), BuildingBlock: UVAHIK_clean_linker_0, # of connection points: 2
#     Edge 90, Type (0, 0), BuildingBlock: UVAHIK_clean_linker_0, # of connection points: 2
#     Edge 91, Type (0, 0), BuildingBlock: UVAHIK_clean_linker_0, # of connection points: 2
#     Edge 92, Type (0, 0), BuildingBlock: UVAHIK_clean_linker_0, # of connection points: 2
#     Edge 93, Type (0, 0), BuildingBlock: UVAHIK_clean_linker_0, # of connection points: 2
#     Edge 94, Type (0, 0), BuildingBlock: UVAHIK_clean_linker_0, # of connection points: 2
#     Edge 95, Type (0, 0), BuildingBlock: UVAHIK_clean_linker_0, # of connection points: 2
# Relax obj value: 0.061
# Max RMSD: 0.089
# Mean RMSD: 0.089
data_MOF--net-uox--node1-CEKHIL_clean_sbu_0--edge1-UVAHIK_clean_linker_0
_symmetry_space_group_name_H-M    P1
_symmetry_Int_Tables_number       1
_symmetry_cell_setting            triclinic
loop_
_symmetry_equiv_pos_as_xyz
'x, y, z'
_cell_length_a     59.516608
_cell_length_b     59.497854
_cell_length_c     98.980067
_cell_angle_alpha  90.002092
_cell_angle_beta   90.003064
_cell_angle_gamma 90.008359
loop_
_atom_site_label
_atom_site_type_symbol
_atom_site_fract_x
_atom_site_fract_y
_atom_site_fract_z
_atom_type_partial_charge
Co0 Co 0.41907 0.05095 0.16246 0.0
O1 O 0.42561 0.02817 0.17577 0.0
O2 O 0.40076 0.05555 0.17836 0.0
C3 C 0.45495 0.05971 0.1574 0.0
O4 O 0.40828 0.07796 0.15144 0.0
Co5 Co 0.43325 0.04569 0.13242 0.0
O6 O 0.42599 0.0781 0.1314 0.0
C7 C 0.39334 0.0215 0.14253 0.0
C8 C 0.41087 0.03808 0.18339 0.0
C9 C 0.41349 0.08751 0.14018 0.0
O10 O 0.39545 0.03088 0.15417 0.0
O11 O 0.40705 0.0245 0.13273 0.0
O12 O 0.44534 0.06817 0.16803 0.0
O13 O 0.44344 0.04468 0.15099 0.0
Co14 Co 0.19944 0.1707 0.41119 0.0
O15 O 0.22255 0.17733 0.42425 0.0
O16 O 0.19594 0.15167 0.42691 0.0
C17 C 0.1894 0.20645 0.40665 0.0
O18 O 0.17241 0.15969 0.40032 0.0
Co19 Co 0.20394 0.18624 0.38131 0.0
O20 O 0.17181 0.17766 0.38033 0.0
C21 C 0.22988 0.14703 0.39082 0.0
C22 C 0.21339 0.162 0.43179 0.0
C23 C 0.16272 0.16483 0.38908 0.0
O24 O 0.21972 0.14786 0.4023 0.0
O25 O 0.22697 0.16164 0.38148 0.0
O26 O 0.18168 0.19631 0.41731 0.0
O27 O 0.20465 0.19564 0.40002 0.0
Co28 Co 0.07864 0.9486 0.66222 0.0
O29 O 0.07217 0.97083 0.67585 0.0
O30 O 0.09832 0.94451 0.67759 0.0
C31 C 0.04289 0.93821 0.65795 0.0
O32 O 0.08956 0.92235 0.65067 0.0
Co33 Co 0.06173 0.95485 0.63267 0.0
O34 O 0.07367 0.92406 0.63004 0.0
C35 C 0.09984 0.98184 0.64256 0.0
C36 C 0.08785 0.96144 0.68301 0.0
C37 C 0.08589 0.91421 0.63881 0.0
O38 O 0.1008 0.96979 0.65337 0.0
O39 O 0.08422 0.97984 0.63375 0.0
O40 O 0.05352 0.93005 0.66831 0.0
O41 O 0.05322 0.95401 0.65152 0.0
Co42 Co 0.30025 0.8279 0.91125 0.0
O43 O 0.27722 0.82036 0.92413 0.0
O44 O 0.30274 0.84696 0.92706 0.0
C45 C 0.31113 0.79233 0.90681 0.0
O46 O 0.32719 0.8397 0.90058 0.0
Co47 Co 0.2969 0.81219 0.88134 0.0
O48 O 0.32894 0.82116 0.88082 0.0
C49 C 0.2699 0.85092 0.89056 0.0
C50 C 0.2857 0.83582 0.93185 0.0
C51 C 0.33743 0.83443 0.88955 0.0
O52 O 0.27948 0.85019 0.90222 0.0
O53 O 0.27358 0.83649 0.88122 0.0
O54 O 0.31857 0.80271 0.91747 0.0
O55 O 0.29588 0.80286 0.90003 0.0
Co56 Co 0.42047 0.94876 0.34159 0.0
O57 O 0.42676 0.97219 0.32868 0.0
O58 O 0.40162 0.94514 0.32581 0.0
C59 C 0.45644 0.93945 0.34607 0.0
O60 O 0.40986 0.92132 0.35224 0.0
Co61 Co 0.4359 0.95261 0.37152 0.0
O62 O 0.42784 0.92033 0.3722 0.0
C63 C 0.3963 0.97825 0.3622 0.0
C64 C 0.41172 0.96281 0.32103 0.0
C65 C 0.41511 0.91135 0.36337 0.0
O66 O 0.39727 0.96852 0.35058 0.0
O67 O 0.41089 0.97518 0.37153 0.0
O68 O 0.44645 0.93161 0.33539 0.0
O69 O 0.44526 0.95425 0.35284 0.0
Co70 Co 0.30105 0.1685 0.59015 0.0
O71 O 0.27891 0.17514 0.57649 0.0
O72 O 0.3051 0.14885 0.57476 0.0
C73 C 0.31143 0.20431 0.59439 0.0
O74 O 0.32716 0.15732 0.60172 0.0
Co75 Co 0.29534 0.18545 0.6197 0.0
O76 O 0.32689 0.1753 0.6217 0.0
C77 C 0.2681 0.14725 0.60994 0.0
C78 C 0.28826 0.15944 0.56932 0.0
C79 C 0.33618 0.16216 0.6132 0.0
O80 O 0.2797 0.14647 0.59895 0.0
O81 O 0.27058 0.16264 0.61886 0.0
O82 O 0.3197 0.19359 0.58409 0.0
O83 O 0.2957 0.19395 0.60086 0.0
Co84 Co 0.07917 0.04979 0.84134 0.0
O85 O 0.0724 0.02688 0.82818 0.0
O86 O 0.09814 0.05343 0.8256 0.0
C87 C 0.04347 0.05989 0.84597 0.0
O88 O 0.09031 0.07664 0.85235 0.0
Co89 Co 0.06363 0.04492 0.87121 0.0
O90 O 0.07239 0.07699 0.87235 0.0
C91 C 0.10266 0.01887 0.86153 0.0
C92 C 0.0877 0.03608 0.82065 0.0
C93 C 0.08523 0.08617 0.86365 0.0
O94 O 0.10194 0.02925 0.85011 0.0
O95 O 0.08805 0.02171 0.87087 0.0
O96 O 0.05361 0.06775 0.83534 0.0
O97 O 0.05425 0.04451 0.85251 0.0
Co98 Co 0.19933 0.82748 0.09113 0.0
O99 O 0.22236 0.81972 0.07828 0.0
O100 O 0.19678 0.84621 0.07519 0.0
C101 C 0.18847 0.79206 0.09588 0.0
O102 O 0.17235 0.83951 0.10169 0.0
Co103 Co 0.20255 0.81268 0.12119 0.0
O104 O 0.17039 0.82107 0.12147 0.0
C105 C 0.22865 0.85186 0.1118 0.0
C106 C 0.21386 0.83505 0.07047 0.0
C107 C 0.16197 0.83426 0.11268 0.0
O108 O 0.22005 0.85004 0.09992 0.0
O109 O 0.2245 0.83825 0.1215 0.0
O110 O 0.18106 0.80217 0.08513 0.0
O111 O 0.20374 0.80272 0.10259 0.0
Co112 Co 0.579 0.94835 0.84084 0.0
O113 O 0.57248 0.97067 0.82727 0.0
O114 O 0.59843 0.94418 0.82539 0.0
C115 C 0.54323 0.93824 0.84522 0.0
O116 O 0.59 0.92197 0.85227 0.0
Co117 Co 0.56272 0.95394 0.8705 0.0
O118 O 0.57169 0.92199 0.87213 0.0
C119 C 0.60181 0.98 0.86088 0.0
C120 C 0.58801 0.9612 0.82003 0.0
C121 C 0.58478 0.91269 0.86361 0.0
O122 O 0.60141 0.96933 0.84956 0.0
O123 O 0.58702 0.97729 0.87014 0.0
O124 O 0.55373 0.93004 0.83482 0.0
O125 O 0.55374 0.95387 0.85171 0.0
Co126 Co 0.7998 0.82885 0.59175 0.0
O127 O 0.77724 0.82078 0.57869 0.0
O128 O 0.80237 0.84779 0.57589 0.0
C129 C 0.81133 0.79361 0.59649 0.0
O130 O 0.82629 0.84116 0.60261 0.0
Co131 Co 0.79568 0.8136 0.62169 0.0
O132 O 0.82759 0.823 0.62251 0.0
C133 C 0.76829 0.85163 0.61195 0.0
C134 C 0.78562 0.83633 0.57099 0.0
C135 C 0.83624 0.83615 0.61378 0.0
O136 O 0.77845 0.85092 0.60046 0.0
O137 O 0.77178 0.83735 0.6214 0.0
O138 O 0.81874 0.80396 0.58582 0.0
O139 O 0.79561 0.80386 0.60304 0.0
Co140 Co 0.9207 0.05101 0.34098 0.0
O141 O 0.92699 0.02801 0.32777 0.0
O142 O 0.90116 0.05455 0.32553 0.0
C143 C 0.95659 0.0611 0.34505 0.0
O144 O 0.90994 0.07803 0.35194 0.0
Co145 Co 0.93726 0.04711 0.37068 0.0
O146 O 0.92864 0.07923 0.37165 0.0
C147 C 0.89795 0.02065 0.36174 0.0
C148 C 0.91148 0.03728 0.32041 0.0
C149 C 0.91543 0.08803 0.36301 0.0
O150 O 0.89828 0.03056 0.35017 0.0
O151 O 0.9128 0.02394 0.37089 0.0
O152 O 0.94603 0.06886 0.33456 0.0
O153 O 0.94602 0.0459 0.35187 0.0
Co154 Co 0.69783 0.16889 0.09089 0.0
O155 O 0.71962 0.17799 0.07761 0.0
O156 O 0.69548 0.15004 0.07498 0.0
C157 C 0.68523 0.2036 0.09589 0.0
O158 O 0.67219 0.15534 0.10197 0.0
Co159 Co 0.70194 0.1839 0.12084 0.0
O160 O 0.6704 0.17349 0.12185 0.0
C161 C 0.72953 0.14615 0.11095 0.0
C162 C 0.71164 0.16217 0.06995 0.0
C163 C 0.6622 0.15992 0.11319 0.0
O164 O 0.72031 0.14755 0.09922 0.0
O165 O 0.72512 0.15947 0.12074 0.0
O166 O 0.67767 0.19302 0.08535 0.0
O167 O 0.70155 0.19393 0.10224 0.0
Co168 Co 0.57895 0.05057 0.66207 0.0
O169 O 0.57272 0.02691 0.67485 0.0
O170 O 0.59799 0.05382 0.67777 0.0
C171 C 0.54297 0.06015 0.65779 0.0
O172 O 0.58954 0.07822 0.65161 0.0
Co173 Co 0.56329 0.04754 0.63216 0.0
O174 O 0.57137 0.07983 0.63173 0.0
C175 C 0.60265 0.02125 0.64117 0.0
C176 C 0.58788 0.03611 0.6825 0.0
C177 C 0.58417 0.08854 0.64063 0.0
O178 O 0.60194 0.03085 0.65283 0.0
O179 O 0.58799 0.02462 0.63192 0.0
O180 O 0.5531 0.0677 0.66849 0.0
O181 O 0.55402 0.04545 0.65086 0.0
Co182 Co 0.69986 0.82934 0.41144 0.0
O183 O 0.72239 0.82106 0.42447 0.0
O184 O 0.69747 0.84823 0.42733 0.0
C185 C 0.68813 0.79416 0.40666 0.0
O186 O 0.67348 0.84194 0.4006 0.0
Co187 Co 0.70385 0.81412 0.38147 0.0
O188 O 0.67218 0.82423 0.38055 0.0
C189 C 0.73146 0.85198 0.39125 0.0
C190 C 0.71417 0.83665 0.43219 0.0
C191 C 0.66363 0.83736 0.38933 0.0
O192 O 0.72136 0.8513 0.40275 0.0
O193 O 0.72787 0.83776 0.38179 0.0
O194 O 0.68076 0.80453 0.41733 0.0
O195 O 0.70388 0.80437 0.40011 0.0
Co196 Co 0.92123 0.94883 0.16205 0.0
O197 O 0.92819 0.97176 0.17517 0.0
O198 O 0.90243 0.94524 0.17784 0.0
C199 C 0.95688 0.93874 0.15735 0.0
O200 O 0.90988 0.92189 0.15119 0.0
Co201 Co 0.9363 0.95299 0.13209 0.0
O202 O 0.92814 0.92077 0.13133 0.0
C203 C 0.89697 0.97867 0.14164 0.0
C204 C 0.91295 0.96256 0.18276 0.0
C205 C 0.91514 0.91192 0.14006 0.0
O206 O 0.89846 0.96942 0.15336 0.0
O207 O 0.91086 0.97507 0.13201 0.0
O208 O 0.9468 0.9309 0.16799 0.0
O209 O 0.94604 0.95402 0.15074 0.0
Co210 Co 0.79983 0.17012 0.91103 0.0
O211 O 0.77647 0.1777 0.92369 0.0
O212 O 0.80186 0.15106 0.92686 0.0
C213 C 0.81095 0.20563 0.90669 0.0
O214 O 0.82706 0.15828 0.90066 0.0
Co215 Co 0.79733 0.1857 0.88109 0.0
O216 O 0.82936 0.17667 0.88087 0.0
C217 C 0.7698 0.14724 0.89012 0.0
C218 C 0.78471 0.16222 0.93149 0.0
C219 C 0.83761 0.16349 0.88972 0.0
O220 O 0.77924 0.14788 0.90183 0.0
O221 O 0.77374 0.16165 0.88081 0.0
O222 O 0.81804 0.19526 0.91743 0.0
O223 O 0.79584 0.19514 0.89976 0.0
Co224 Co 0.92124 0.55068 0.66254 0.0
O225 O 0.92776 0.52743 0.67554 0.0
O226 O 0.90243 0.55433 0.67832 0.0
C227 C 0.95708 0.56024 0.65794 0.0
O228 O 0.91035 0.57797 0.65182 0.0
Co229 Co 0.93625 0.54675 0.63257 0.0
O230 O 0.92872 0.57914 0.632 0.0
C231 C 0.89652 0.52151 0.64195 0.0
C232 C 0.91265 0.53677 0.68316 0.0
C233 C 0.91584 0.58805 0.64077 0.0
O234 O 0.89815 0.53058 0.65372 0.0
O235 O 0.91046 0.52505 0.63234 0.0
O236 O 0.94707 0.56808 0.66862 0.0
O237 O 0.946 0.54526 0.65122 0.0
Co238 Co 0.698 0.67036 0.91219 0.0
O239 O 0.72098 0.67735 0.92526 0.0
O240 O 0.69518 0.65089 0.92776 0.0
C241 C 0.68731 0.70605 0.908 0.0
O242 O 0.67103 0.65899 0.90138 0.0
Co243 Co 0.70144 0.68659 0.8824 0.0
O244 O 0.66936 0.67776 0.88171 0.0
C245 C 0.72848 0.64775 0.8914 0.0
C246 C 0.71227 0.66169 0.93275 0.0
C247 C 0.66081 0.66445 0.89038 0.0
O248 O 0.71873 0.64818 0.90302 0.0
O249 O 0.72487 0.66239 0.88217 0.0
O250 O 0.67979 0.6955 0.91857 0.0
O251 O 0.70258 0.6956 0.90117 0.0
Co252 Co 0.57954 0.44831 0.16224 0.0
O253 O 0.57311 0.47098 0.17564 0.0
O254 O 0.5989 0.44438 0.17776 0.0
C255 C 0.54372 0.43826 0.15789 0.0
O256 O 0.59037 0.42155 0.15107 0.0
Co257 Co 0.56323 0.45354 0.13251 0.0
O258 O 0.57424 0.42233 0.1305 0.0
C259 C 0.60245 0.47951 0.14198 0.0
C260 C 0.58854 0.46156 0.18298 0.0
C261 C 0.58645 0.41282 0.13939 0.0
O262 O 0.60212 0.46901 0.15336 0.0
O263 O 0.58753 0.47681 0.1328 0.0
O264 O 0.55413 0.43026 0.16838 0.0
O265 O 0.55433 0.45372 0.15131 0.0
Co266 Co 0.799 0.32824 0.41205 0.0
O267 O 0.77646 0.32087 0.4253 0.0
O268 O 0.80201 0.34762 0.42764 0.0
C269 C 0.81013 0.29279 0.40758 0.0
O270 O 0.82551 0.33999 0.401 0.0
Co271 Co 0.79463 0.31229 0.38224 0.0
O272 O 0.82655 0.3216 0.38117 0.0
C273 C 0.7676 0.35078 0.39171 0.0
C274 C 0.78514 0.3366 0.43275 0.0
C275 C 0.83533 0.33482 0.38982 0.0
O276 O 0.77781 0.3503 0.40318 0.0
O277 O 0.77093 0.33623 0.38238 0.0
O278 O 0.81772 0.30329 0.41815 0.0
O279 O 0.79445 0.30305 0.40099 0.0
Co280 Co 0.9194 0.44935 0.84159 0.0
O281 O 0.92615 0.47178 0.82812 0.0
O282 O 0.89998 0.44551 0.8261 0.0
C283 C 0.95508 0.43888 0.84596 0.0
O284 O 0.90817 0.42291 0.85287 0.0
Co285 Co 0.9356 0.45444 0.87128 0.0
O286 O 0.9264 0.42253 0.87275 0.0
C287 C 0.89672 0.48089 0.86175 0.0
C288 C 0.91057 0.46249 0.82082 0.0
C289 C 0.91329 0.41343 0.86416 0.0
O290 O 0.89712 0.47039 0.85038 0.0
O291 O 0.91144 0.47794 0.87102 0.0
O292 O 0.94453 0.43091 0.83551 0.0
O293 O 0.94468 0.45453 0.8525 0.0
Co294 Co 0.79964 0.67082 0.09136 0.0
O295 O 0.77693 0.67797 0.07815 0.0
O296 O 0.80268 0.65144 0.07577 0.0
C297 C 0.81046 0.70641 0.09574 0.0
O298 O 0.82635 0.65928 0.1023 0.0
Co299 Co 0.79563 0.68678 0.12117 0.0
O300 O 0.82761 0.67766 0.12212 0.0
C301 C 0.76871 0.64807 0.11186 0.0
C302 C 0.78571 0.66232 0.07069 0.0
C303 C 0.83632 0.66447 0.11343 0.0
O304 O 0.77872 0.64861 0.10032 0.0
O305 O 0.77211 0.66265 0.12116 0.0
O306 O 0.81808 0.69592 0.08517 0.0
O307 O 0.79499 0.69601 0.10242 0.0
Co308 Co 0.57903 0.55044 0.34116 0.0
O309 O 0.57247 0.52728 0.32811 0.0
O310 O 0.59828 0.55376 0.32553 0.0
C311 C 0.54321 0.56057 0.34544 0.0
O312 O 0.59001 0.57753 0.352 0.0
Co313 Co 0.56284 0.54656 0.37096 0.0
O314 O 0.57157 0.57866 0.37181 0.0
C315 C 0.60199 0.52007 0.36182 0.0
C316 C 0.58788 0.53637 0.3206 0.0
C317 C 0.58467 0.58749 0.36312 0.0
O318 O 0.60157 0.53002 0.35026 0.0
O319 O 0.58723 0.52334 0.37103 0.0
O320 O 0.55356 0.56827 0.33485 0.0
O321 O 0.55392 0.5454 0.35219 0.0
Co322 Co 0.69825 0.32983 0.59161 0.0
O323 O 0.72048 0.322 0.57826 0.0
O324 O 0.69486 0.34864 0.57579 0.0
C325 C 0.68728 0.29453 0.59662 0.0
O326 O 0.67196 0.34199 0.60274 0.0
Co327 Co 0.70321 0.31505 0.62159 0.0
O328 O 0.67119 0.32382 0.62264 0.0
C329 C 0.72907 0.35394 0.61163 0.0
C330 C 0.71164 0.33748 0.5707 0.0
C331 C 0.66226 0.33692 0.61398 0.0
O332 O 0.71967 0.35223 0.59996 0.0
O333 O 0.72542 0.34037 0.62141 0.0
O334 O 0.67943 0.30468 0.586 0.0
O335 O 0.7031 0.30502 0.60297 0.0
Co336 Co 0.07723 0.44912 0.34157 0.0
O337 O 0.06945 0.47221 0.32877 0.0
O338 O 0.09617 0.44686 0.32571 0.0
C339 C 0.04185 0.4379 0.34615 0.0
O340 O 0.08931 0.42213 0.35207 0.0
Co341 Co 0.06197 0.45201 0.37157 0.0
O342 O 0.07119 0.42003 0.37196 0.0
C343 C 0.1002 0.47957 0.36222 0.0
C344 C 0.08493 0.46388 0.321 0.0
C345 C 0.08431 0.41172 0.36309 0.0
O346 O 0.09948 0.46997 0.35056 0.0
O347 O 0.08591 0.47571 0.37161 0.0
O348 O 0.0521 0.43066 0.33541 0.0
O349 O 0.05234 0.4532 0.35292 0.0
Co350 Co 0.30078 0.32967 0.09096 0.0
O351 O 0.27801 0.32262 0.07778 0.0
O352 O 0.3038 0.34911 0.07538 0.0
C353 C 0.31144 0.29399 0.09525 0.0
O354 O 0.32753 0.3411 0.10194 0.0
Co355 Co 0.29677 0.31337 0.12073 0.0
O356 O 0.32882 0.32224 0.12161 0.0
C357 C 0.27004 0.35234 0.11158 0.0
C358 C 0.28677 0.33828 0.07032 0.0
C359 C 0.33753 0.33562 0.11302 0.0
O360 O 0.27989 0.35186 0.09999 0.0
O361 O 0.2735 0.33771 0.12084 0.0
O362 O 0.31913 0.30451 0.08472 0.0
O363 O 0.29604 0.30444 0.10196 0.0
Co364 Co 0.42016 0.54898 0.84115 0.0
O365 O 0.42765 0.52666 0.82777 0.0
O366 O 0.40083 0.55215 0.82553 0.0
C367 C 0.45556 0.56014 0.84576 0.0
O368 O 0.40825 0.57524 0.85235 0.0
Co369 Co 0.43603 0.5441 0.87095 0.0
O370 O 0.42639 0.5759 0.87227 0.0
C371 C 0.39758 0.51721 0.86128 0.0
C372 C 0.41189 0.53537 0.82036 0.0
C373 C 0.41319 0.58481 0.86365 0.0
O374 O 0.39811 0.52757 0.84986 0.0
O375 O 0.41209 0.5204 0.87064 0.0
O376 O 0.4451 0.5679 0.83522 0.0
O377 O 0.44531 0.54431 0.85222 0.0
Co378 Co 0.1987 0.67056 0.59088 0.0
O379 O 0.22073 0.67859 0.57753 0.0
O380 O 0.19634 0.65075 0.57537 0.0
C381 C 0.18635 0.70569 0.59506 0.0
O382 O 0.17294 0.65807 0.60223 0.0
Co383 Co 0.20346 0.6876 0.62042 0.0
O384 O 0.17209 0.67662 0.62203 0.0
C385 C 0.232 0.65031 0.61094 0.0
C386 C 0.21274 0.66239 0.57019 0.0
C387 C 0.16345 0.66296 0.61356 0.0
O388 O 0.22084 0.64955 0.5998 0.0
O389 O 0.22881 0.66539 0.61997 0.0
O390 O 0.17879 0.69455 0.58473 0.0
O391 O 0.20258 0.69626 0.6016 0.0
Co392 Co 0.07773 0.54916 0.16151 0.0
O393 O 0.06985 0.52652 0.17457 0.0
O394 O 0.09674 0.5518 0.17734 0.0
C395 C 0.04242 0.56049 0.15685 0.0
O396 O 0.08989 0.5757 0.15065 0.0
Co397 Co 0.0623 0.54505 0.1316 0.0
O398 O 0.07172 0.57696 0.13075 0.0
C399 C 0.10058 0.51789 0.14122 0.0
C400 C 0.08538 0.53498 0.18224 0.0
C401 C 0.0849 0.58562 0.13947 0.0
O402 O 0.09986 0.52794 0.15274 0.0
O403 O 0.08624 0.52135 0.1318 0.0
O404 O 0.05277 0.56796 0.1675 0.0
O405 O 0.05274 0.54485 0.15027 0.0
Co406 Co 0.19792 0.32889 0.91206 0.0
O407 O 0.22082 0.32198 0.92519 0.0
O408 O 0.19498 0.34841 0.92761 0.0
C409 C 0.18732 0.29315 0.90787 0.0
O410 O 0.17103 0.34022 0.90117 0.0
Co411 Co 0.20157 0.31249 0.88231 0.0
O412 O 0.16951 0.32133 0.88152 0.0
C413 C 0.22839 0.35153 0.89129 0.0
C414 C 0.21207 0.33767 0.93265 0.0
C415 C 0.1609 0.33472 0.89013 0.0
O416 O 0.21867 0.35109 0.90292 0.0
O417 O 0.22483 0.33685 0.88207 0.0
O418 O 0.17968 0.30371 0.91841 0.0
O419 O 0.20261 0.30363 0.90109 0.0
Co420 Co 0.41827 0.44766 0.66176 0.0
O421 O 0.42576 0.46985 0.67518 0.0
O422 O 0.39877 0.44453 0.67733 0.0
C423 C 0.45375 0.43649 0.65736 0.0
O424 O 0.40639 0.42153 0.65041 0.0
Co425 Co 0.43479 0.45285 0.63209 0.0
O426 O 0.42464 0.42122 0.63051 0.0
C427 C 0.39744 0.48096 0.64201 0.0
C428 C 0.40994 0.46121 0.68256 0.0
C429 C 0.41137 0.41218 0.63904 0.0
O430 O 0.39656 0.46932 0.65298 0.0
O431 O 0.41264 0.47819 0.63301 0.0
O432 O 0.44308 0.42859 0.66779 0.0
O433 O 0.44358 0.45231 0.65088 0.0
Co434 Co 0.29972 0.66959 0.41118 0.0
O435 O 0.27695 0.67739 0.42416 0.0
O436 O 0.30219 0.6505 0.42698 0.0
C437 C 0.31104 0.70495 0.40662 0.0
O438 O 0.3264 0.65755 0.4004 0.0
Co439 Co 0.29584 0.68507 0.38127 0.0
O440 O 0.3278 0.67584 0.38053 0.0
C441 C 0.26847 0.6469 0.39082 0.0
C442 C 0.28529 0.66179 0.43183 0.0
C443 C 0.33644 0.66268 0.38927 0.0
O444 O 0.27859 0.6475 0.40232 0.0
O445 O 0.27196 0.66128 0.38143 0.0
O446 O 0.31842 0.69455 0.41728 0.0
O447 O 0.29549 0.69463 0.39995 0.0
C448 C 0.40038 0.95671 0.29696 0.0
C449 C 0.40722 0.97135 0.30728 0.0
C450 C 0.39828 0.96444 0.28365 0.0
C451 C 0.41572 0.01268 0.26164 0.0
H452 H 0.37579 0.98394 0.23594 0.0
C453 C 0.39898 0.04548 0.20724 0.0
C454 C 0.40664 0.03036 0.19735 0.0
C455 C 0.39691 0.03863 0.22072 0.0
C456 C 0.38694 0.99211 0.24307 0.0
H457 H 0.41605 0.00575 0.312 0.0
H458 H 0.41098 0.01964 0.2891 0.0
H459 H 0.37533 0.97208 0.25957 0.0
H460 H 0.41724 0.99605 0.19366 0.0
H461 H 0.41276 0.98389 0.21718 0.0
H462 H 0.42662 0.0332 0.24507 0.0
C463 C 0.4083 0.00193 0.29098 0.0
C464 C 0.38689 0.98522 0.25659 0.0
C465 C 0.41099 0.99405 0.30419 0.0
C466 C 0.41136 0.00806 0.20109 0.0
C467 C 0.40873 0.00108 0.21449 0.0
C468 C 0.41533 0.0199 0.24821 0.0
C469 C 0.40243 0.98715 0.28042 0.0
C470 C 0.40149 0.99522 0.26609 0.0
C471 C 0.40187 0.01641 0.22444 0.0
C472 C 0.40114 0.00953 0.23879 0.0
H473 H 0.39755 0.93907 0.29906 0.0
H474 H 0.39411 0.95235 0.27588 0.0
H475 H 0.42765 0.02051 0.26842 0.0
H476 H 0.39534 0.06279 0.20465 0.0
H477 H 0.39161 0.05072 0.22826 0.0
C478 C 0.29575 0.14628 0.5457 0.0
C479 C 0.28069 0.15479 0.55537 0.0
C480 C 0.28915 0.14408 0.53218 0.0
C481 C 0.24365 0.13465 0.50933 0.0
H482 H 0.27108 0.17701 0.48458 0.0
C483 C 0.20769 0.14963 0.45573 0.0
C484 C 0.22209 0.15727 0.44549 0.0
C485 C 0.21557 0.1471 0.46897 0.0
C486 C 0.26354 0.16463 0.49118 0.0
H487 H 0.24673 0.16674 0.55865 0.0
H488 H 0.23497 0.16201 0.53507 0.0
H489 H 0.28373 0.17541 0.50793 0.0
H490 H 0.25624 0.16709 0.44083 0.0
H491 H 0.2704 0.16134 0.46362 0.0
H492 H 0.22392 0.12321 0.49265 0.0
C493 C 0.25192 0.15742 0.53796 0.0
C494 C 0.27075 0.1639 0.50461 0.0
C495 C 0.25868 0.16018 0.55139 0.0
C496 C 0.24471 0.16143 0.44859 0.0
C497 C 0.25275 0.15833 0.46173 0.0
C498 C 0.23679 0.13496 0.49579 0.0
C499 C 0.26723 0.14976 0.52822 0.0
C500 C 0.26067 0.14913 0.51382 0.0
C501 C 0.23821 0.15161 0.47223 0.0
C502 C 0.2464 0.15019 0.48652 0.0
H503 H 0.31286 0.14214 0.54848 0.0
H504 H 0.30122 0.13819 0.52479 0.0
H505 H 0.2357 0.12308 0.5163 0.0
H506 H 0.19012 0.14646 0.45362 0.0
H507 H 0.20365 0.14228 0.4767 0.0
C508 C 0.09953 0.04211 0.79664 0.0
C509 C 0.09228 0.02755 0.8069 0.0
C510 C 0.10179 0.03437 0.78334 0.0
C511 C 0.08409 0.98635 0.76118 0.0
H512 H 0.12464 0.01473 0.73569 0.0
C513 C 0.10133 0.95413 0.70658 0.0
C514 C 0.09267 0.96911 0.69692 0.0
C515 C 0.10374 0.96083 0.72007 0.0
C516 C 0.11334 0.00664 0.74276 0.0
H517 H 0.08289 0.99327 0.81153 0.0
H518 H 0.0882 0.97935 0.78866 0.0
H519 H 0.12498 0.02648 0.75935 0.0
H520 H 0.08069 0.00307 0.69362 0.0
H521 H 0.08577 0.015 0.71714 0.0
H522 H 0.07313 0.96605 0.74452 0.0
C523 C 0.09109 0.99702 0.79057 0.0
C524 C 0.11331 0.01348 0.75631 0.0
C525 C 0.08825 0.00492 0.80376 0.0
C526 C 0.08735 0.99117 0.70087 0.0
C527 C 0.09031 0.99802 0.71427 0.0
C528 C 0.08456 0.97918 0.74773 0.0
C529 C 0.09738 0.01171 0.78005 0.0
C530 C 0.09846 0.00364 0.76572 0.0
C531 C 0.09812 0.98279 0.72402 0.0
C532 C 0.09897 0.98943 0.7384 0.0
H533 H 0.10259 0.0597 0.79878 0.0
H534 H 0.10629 0.04641 0.77561 0.0
H535 H 0.07198 0.97865 0.76789 0.0
H536 H 0.10543 0.93699 0.70383 0.0
H537 H 0.10974 0.94881 0.72746 0.0
C538 C 0.25928 0.82609 0.95057 0.0
C539 C 0.27704 0.83941 0.94572 0.0
C540 C 0.2522 0.82782 0.96398 0.0
C541 C 0.25328 0.86352 0.99447 0.0
H542 H 0.24456 0.8067 0.01295 0.0
C543 C 0.21284 0.85453 0.04791 0.0
C544 C 0.22262 0.83863 0.05662 0.0
C545 C 0.2202 0.85649 0.0345 0.0
C546 C 0.24706 0.82272 0.00798 0.0
H547 H 0.30074 0.86563 0.95104 0.0
H548 H 0.2883 0.86867 0.97457 0.0
H549 H 0.25553 0.80689 0.98928 0.0
H550 H 0.24833 0.81292 0.05823 0.0
H551 H 0.26109 0.81636 0.03497 0.0
H552 H 0.24486 0.87928 0.01332 0.0
C553 C 0.27985 0.85692 0.96793 0.0
C554 C 0.25311 0.82284 0.99436 0.0
C555 C 0.28703 0.85512 0.95448 0.0
C556 C 0.24032 0.82524 0.05178 0.0
C557 C 0.24758 0.82712 0.03841 0.0
C558 C 0.24703 0.8634 0.00813 0.0
C559 C 0.26266 0.84295 0.97289 0.0
C560 C 0.25626 0.8432 0.98742 0.0
C561 C 0.23736 0.84248 0.02954 0.0
C562 C 0.24394 0.84297 0.01504 0.0
H563 H 0.2511 0.81392 0.94409 0.0
H564 H 0.23865 0.8171 0.96742 0.0
H565 H 0.2555 0.87948 0.98938 0.0
H566 H 0.19919 0.86511 0.05135 0.0
H567 H 0.21192 0.86841 0.0279 0.0
C568 C 0.60129 0.95381 0.79644 0.0
C569 C 0.59271 0.96883 0.80611 0.0
C570 C 0.60367 0.96048 0.78295 0.0
C571 C 0.61335 0.00634 0.7603 0.0
H572 H 0.57231 0.97814 0.73506 0.0
C573 C 0.5996 0.04191 0.70651 0.0
C574 C 0.59249 0.0274 0.6962 0.0
C575 C 0.60186 0.03409 0.71978 0.0
C576 C 0.58433 0.9859 0.7418 0.0
H577 H 0.58082 0.00283 0.80941 0.0
H578 H 0.58585 0.01471 0.78588 0.0
H579 H 0.57332 0.96557 0.75844 0.0
H580 H 0.58332 0.99311 0.69144 0.0
H581 H 0.58863 0.97903 0.71429 0.0
H582 H 0.62504 0.02619 0.74374 0.0
C583 C 0.59036 0.99772 0.78875 0.0
C584 C 0.58472 0.97874 0.75525 0.0
C585 C 0.58742 0.9909 0.80216 0.0
C586 C 0.58859 0.00472 0.69925 0.0
C587 C 0.59143 0.99673 0.71243 0.0
C588 C 0.6134 0.01315 0.74676 0.0
C589 C 0.59811 0.98245 0.77901 0.0
C590 C 0.59901 0.98909 0.76463 0.0
C591 C 0.59759 0.01138 0.72299 0.0
C592 C 0.59865 0.00325 0.73731 0.0
H593 H 0.60538 0.93667 0.7992 0.0
H594 H 0.60964 0.94845 0.77556 0.0
H595 H 0.62457 0.01448 0.7674 0.0
H596 H 0.60254 0.05955 0.70445 0.0
H597 H 0.60623 0.0461 0.72756 0.0
C598 C 0.74048 0.82659 0.45091 0.0
C599 C 0.72283 0.84006 0.44608 0.0
C600 C 0.74769 0.82831 0.46429 0.0
C601 C 0.74696 0.86424 0.49475 0.0
H602 H 0.75595 0.80752 0.51328 0.0
C603 C 0.78689 0.85575 0.5484 0.0
C604 C 0.77711 0.83978 0.55707 0.0
C605 C 0.77976 0.85758 0.53494 0.0
C606 C 0.75339 0.82352 0.5083 0.0
H607 H 0.69942 0.86653 0.45142 0.0
H608 H 0.71204 0.86952 0.47492 0.0
H609 H 0.74491 0.80759 0.48963 0.0
H610 H 0.75162 0.81382 0.55854 0.0
H611 H 0.73924 0.81705 0.5352 0.0
H612 H 0.75532 0.8801 0.51359 0.0
C613 C 0.72033 0.85766 0.46828 0.0
C614 C 0.7473 0.82357 0.49468 0.0
C615 C 0.71305 0.85588 0.45484 0.0
C616 C 0.75964 0.82619 0.55212 0.0
C617 C 0.7526 0.82796 0.53871 0.0
C618 C 0.75323 0.8642 0.50841 0.0
C619 C 0.73746 0.84358 0.47321 0.0
C620 C 0.74401 0.8439 0.48772 0.0
C621 C 0.76282 0.84339 0.52988 0.0
C622 C 0.7564 0.8438 0.51535 0.0
H623 H 0.74851 0.81433 0.44441 0.0
H624 H 0.76119 0.8175 0.4677 0.0
H625 H 0.74467 0.88018 0.48965 0.0
H626 H 0.80038 0.86648 0.55192 0.0
H627 H 0.78803 0.86956 0.52837 0.0
C628 C 0.89823 0.0441 0.29676 0.0
C629 C 0.90686 0.02931 0.30654 0.0
C630 C 0.89608 0.03722 0.2833 0.0
C631 C 0.88696 0.99153 0.26064 0.0
H632 H 0.92915 0.01912 0.23585 0.0
C633 C 0.9011 0.95639 0.20674 0.0
C634 C 0.90853 0.97099 0.19655 0.0
C635 C 0.89885 0.96399 0.22006 0.0
C636 C 0.91682 0.01153 0.24246 0.0
H637 H 0.91905 0.99548 0.31007 0.0
H638 H 0.91444 0.98323 0.28657 0.0
H639 H 0.92772 0.03161 0.25924 0.0
H640 H 0.91831 0.00522 0.19207 0.0
H641 H 0.91304 0.01893 0.215 0.0
H642 H 0.87537 0.97195 0.24393 0.0
C643 C 0.90971 0.0002 0.28934 0.0
C644 C 0.9162 0.01863 0.25592 0.0
C645 C 0.9124 0.00724 0.30273 0.0
C646 C 0.9128 0.99354 0.19979 0.0
C647 C 0.90998 0.00131 0.21301 0.0
C648 C 0.88716 0.98476 0.24709 0.0
C649 C 0.90195 0.01528 0.27949 0.0
C650 C 0.90145 0.00853 0.26512 0.0
C651 C 0.90346 0.98656 0.22344 0.0
C652 C 0.90229 0.99448 0.2378 0.0
H653 H 0.89396 0.06124 0.2994 0.0
H654 H 0.89012 0.0491 0.27582 0.0
H655 H 0.87539 0.98358 0.26761 0.0
H656 H 0.89786 0.93885 0.20453 0.0
H657 H 0.89418 0.95191 0.22773 0.0
C658 C 0.78571 0.14321 0.9542 0.0
C659 C 0.77565 0.15858 0.94526 0.0
C660 C 0.77815 0.1414 0.96757 0.0
C661 C 0.74951 0.17511 0.99351 0.0
H662 H 0.74338 0.11875 0.01285 0.0
C663 C 0.73695 0.17321 0.05094 0.0
C664 C 0.72007 0.15899 0.05599 0.0
C665 C 0.74402 0.17151 0.03753 0.0
C666 C 0.74492 0.1346 0.00755 0.0
H667 H 0.74917 0.18341 0.9432 0.0
H668 H 0.73599 0.18016 0.96638 0.0
H669 H 0.75429 0.11852 0.98896 0.0
H670 H 0.69786 0.13131 0.05102 0.0
H671 H 0.71025 0.12835 0.02748 0.0
H672 H 0.74006 0.19124 0.01194 0.0
C673 C 0.74992 0.16975 0.96316 0.0
C674 C 0.75134 0.13448 0.99391 0.0
C675 C 0.75742 0.17152 0.94984 0.0
C676 C 0.71088 0.14253 0.04742 0.0
C677 C 0.71804 0.14077 0.03396 0.0
C678 C 0.74326 0.17524 0.0071 0.0
C679 C 0.76045 0.15499 0.97227 0.0
C680 C 0.75363 0.15476 0.98673 0.0
C681 C 0.73442 0.15552 0.02882 0.0
C682 C 0.74093 0.15502 0.0143 0.0
H683 H 0.79978 0.133 0.95097 0.0
H684 H 0.78668 0.12995 0.97436 0.0
H685 H 0.75138 0.19105 0.98834 0.0
H686 H 0.7445 0.18598 0.05728 0.0
H687 H 0.75694 0.18286 0.03395 0.0
C688 C 0.90074 0.54285 0.70713 0.0
C689 C 0.90808 0.52826 0.69691 0.0
C690 C 0.89835 0.53517 0.72042 0.0
C691 C 0.91584 0.48737 0.74273 0.0
H692 H 0.87467 0.51565 0.7679 0.0
C693 C 0.89726 0.45537 0.79721 0.0
C694 C 0.90605 0.47024 0.8069 0.0
C695 C 0.89511 0.46207 0.78371 0.0
C696 C 0.88615 0.5076 0.76092 0.0
H697 H 0.91753 0.49397 0.69234 0.0
H698 H 0.91203 0.48014 0.71523 0.0
H699 H 0.87467 0.52724 0.74421 0.0
H700 H 0.91854 0.50401 0.81023 0.0
H701 H 0.91393 0.51596 0.78667 0.0
H702 H 0.92664 0.46725 0.75951 0.0
C703 C 0.90914 0.4978 0.71328 0.0
C704 C 0.88637 0.51434 0.74736 0.0
C705 C 0.9121 0.50564 0.70008 0.0
C706 C 0.91177 0.4922 0.80296 0.0
C707 C 0.90908 0.49906 0.78954 0.0
C708 C 0.91519 0.48029 0.75619 0.0
C709 C 0.90272 0.51253 0.72374 0.0
C710 C 0.90144 0.50454 0.73807 0.0
C711 C 0.90113 0.48392 0.77978 0.0
C712 C 0.90055 0.49052 0.7654 0.0
H713 H 0.89769 0.56044 0.70496 0.0
H714 H 0.89377 0.54723 0.72812 0.0
H715 H 0.9281 0.4797 0.73611 0.0
H716 H 0.89285 0.4383 0.79995 0.0
H717 H 0.889 0.45014 0.77631 0.0
C718 C 0.78842 0.64271 0.04826 0.0
C719 C 0.77731 0.65789 0.05684 0.0
C720 C 0.78124 0.63975 0.0349 0.0
C721 C 0.77196 0.64937 0.0051 0.0
H722 H 0.70862 0.64975 0.99591 0.0
C723 C 0.73969 0.66896 0.95142 0.0
C724 C 0.72084 0.65726 0.94656 0.0
C725 C 0.747 0.66604 0.96472 0.0
C726 C 0.72638 0.64933 0.99829 0.0
H727 H 0.74962 0.68147 0.05823 0.0
H728 H 0.73719 0.67641 0.035 0.0
H729 H 0.71999 0.64956 0.01958 0.0
H730 H 0.69519 0.63288 0.95177 0.0
H731 H 0.70802 0.62771 0.97503 0.0
H732 H 0.77835 0.64923 0.98381 0.0
C733 C 0.75132 0.66661 0.03858 0.0
C734 C 0.7329 0.64948 0.01187 0.0
C735 C 0.75855 0.66962 0.05189 0.0
C736 C 0.70975 0.64217 0.95521 0.0
C737 C 0.71702 0.63931 0.96857 0.0
C738 C 0.76544 0.64929 0.99152 0.0
C739 C 0.76271 0.65183 0.02986 0.0
C740 C 0.75577 0.64982 0.01545 0.0
C741 C 0.73561 0.65139 0.97352 0.0
C742 C 0.74257 0.64959 0.98794 0.0
H743 H 0.80292 0.63339 0.05178 0.0
H744 H 0.79023 0.62805 0.02849 0.0
H745 H 0.78972 0.6498 0.00748 0.0
H746 H 0.74861 0.68073 0.94502 0.0
H747 H 0.76119 0.67583 0.96823 0.0
C748 C 0.58807 0.50527 0.30366 0.0
C749 C 0.59249 0.5278 0.30687 0.0
C750 C 0.59086 0.49741 0.29046 0.0
C751 C 0.6137 0.51361 0.25632 0.0
H752 H 0.57253 0.46721 0.24428 0.0
C753 C 0.58771 0.49144 0.20076 0.0
C754 C 0.59317 0.46938 0.19688 0.0
C755 C 0.59051 0.4984 0.21415 0.0
C756 C 0.58422 0.48006 0.24757 0.0
H757 H 0.60347 0.55981 0.29885 0.0
H758 H 0.60713 0.54659 0.27566 0.0
H759 H 0.5714 0.47974 0.26767 0.0
H760 H 0.60603 0.43737 0.20392 0.0
H761 H 0.61007 0.44938 0.22753 0.0
H762 H 0.62534 0.51464 0.23576 0.0
C763 C 0.60233 0.53459 0.28335 0.0
C764 C 0.58377 0.48718 0.26102 0.0
C765 C 0.60011 0.54228 0.29666 0.0
C766 C 0.60181 0.45451 0.20661 0.0
C767 C 0.60408 0.46131 0.22009 0.0
C768 C 0.61374 0.50682 0.24277 0.0
C769 C 0.59751 0.51206 0.28 0.0
C770 C 0.59852 0.50408 0.26565 0.0
C771 C 0.59832 0.48327 0.22395 0.0
C772 C 0.59902 0.48998 0.23832 0.0
H773 H 0.58241 0.49367 0.31139 0.0
H774 H 0.58763 0.47981 0.28849 0.0
H775 H 0.62565 0.5263 0.25944 0.0
H776 H 0.58105 0.50326 0.19345 0.0
H777 H 0.58586 0.51538 0.21697 0.0
C778 C 0.70882 0.35664 0.54813 0.0
C779 C 0.7199 0.34155 0.55679 0.0
C780 C 0.71601 0.35941 0.53476 0.0
C781 C 0.72539 0.34945 0.50501 0.0
H782 H 0.78878 0.34897 0.49594 0.0
C783 C 0.7579 0.32925 0.45149 0.0
C784 C 0.77669 0.341 0.44658 0.0
C785 C 0.75058 0.33226 0.46478 0.0
C786 C 0.77102 0.34941 0.49829 0.0
H787 H 0.74751 0.31789 0.55828 0.0
H788 H 0.75995 0.32262 0.53502 0.0
H789 H 0.77729 0.34941 0.51959 0.0
H790 H 0.80224 0.36554 0.45169 0.0
H791 H 0.7894 0.37086 0.47495 0.0
H792 H 0.71912 0.34936 0.4837 0.0
C793 C 0.74584 0.33249 0.53856 0.0
C794 C 0.76442 0.34941 0.51185 0.0
C795 C 0.7386 0.32967 0.55188 0.0
C796 C 0.78773 0.3562 0.45518 0.0
C797 C 0.78045 0.35916 0.46852 0.0
C798 C 0.73199 0.34938 0.49144 0.0
C799 C 0.73451 0.34723 0.52978 0.0
C800 C 0.74153 0.3491 0.51538 0.0
C801 C 0.7619 0.34706 0.47352 0.0
C802 C 0.75488 0.34903 0.48791 0.0
H803 H 0.69437 0.36607 0.55162 0.0
H804 H 0.70706 0.37106 0.5283 0.0
H805 H 0.70762 0.34905 0.50736 0.0
H806 H 0.74902 0.31739 0.44513 0.0
H807 H 0.73643 0.32245 0.46832 0.0
C808 C 0.10443 0.46296 0.29845 0.0
C809 C 0.08854 0.47272 0.30717 0.0
C810 C 0.10635 0.47031 0.28504 0.0
C811 C 0.07245 0.49715 0.25856 0.0
H812 H 0.12909 0.50524 0.23979 0.0
C813 C 0.07548 0.50891 0.20111 0.0
C814 C 0.08891 0.52651 0.19616 0.0
C815 C 0.07723 0.50197 0.21454 0.0
C816 C 0.11316 0.50313 0.24493 0.0
H817 H 0.06284 0.49845 0.30881 0.0
H818 H 0.06623 0.51122 0.28554 0.0
H819 H 0.12902 0.49478 0.26376 0.0
H820 H 0.11534 0.55007 0.20133 0.0
H821 H 0.1184 0.53788 0.2249 0.0
H822 H 0.05653 0.50555 0.23988 0.0
C823 C 0.07701 0.4977 0.28897 0.0
C824 C 0.11312 0.49698 0.25861 0.0
C825 C 0.07515 0.49044 0.30234 0.0
C826 C 0.10473 0.53649 0.20484 0.0
C827 C 0.10655 0.52945 0.21832 0.0
C828 C 0.07249 0.5031 0.24492 0.0
C829 C 0.09233 0.48747 0.28009 0.0
C830 C 0.09274 0.494 0.26558 0.0
C831 C 0.09249 0.5124 0.22337 0.0
C832 C 0.09282 0.50613 0.23792 0.0
H833 H 0.115 0.44929 0.30187 0.0
H834 H 0.11824 0.46202 0.27842 0.0
H835 H 0.05646 0.49473 0.26357 0.0
H836 H 0.06322 0.50075 0.19468 0.0
H837 H 0.06643 0.48852 0.21805 0.0
C838 C 0.28934 0.35783 0.04785 0.0
C839 C 0.27824 0.34274 0.0565 0.0
C840 C 0.28201 0.36078 0.03451 0.0
C841 C 0.23335 0.35107 0.01168 0.0
H842 H 0.27849 0.35089 0.98345 0.0
C843 C 0.23957 0.33065 0.95131 0.0
C844 C 0.22067 0.34225 0.94643 0.0
C845 C 0.24698 0.33377 0.96458 0.0
C846 C 0.26567 0.35095 0.99121 0.0
H847 H 0.25042 0.31934 0.05803 0.0
H848 H 0.23775 0.32438 0.03486 0.0
H849 H 0.29012 0.35061 0.00708 0.0
H850 H 0.19502 0.36665 0.95159 0.0
H851 H 0.20802 0.37218 0.97479 0.0
H852 H 0.2089 0.3506 0.99582 0.0
C853 C 0.25198 0.33411 0.03836 0.0
C854 C 0.27234 0.35104 0.00476 0.0
C855 C 0.25935 0.33111 0.05164 0.0
C856 C 0.20961 0.35743 0.95505 0.0
C857 C 0.21699 0.3605 0.96836 0.0
C858 C 0.22668 0.35104 0.99812 0.0
C859 C 0.26335 0.34879 0.02957 0.0
C860 C 0.25626 0.35073 0.01517 0.0
C861 C 0.23565 0.34854 0.97333 0.0
C862 C 0.24276 0.35059 0.98772 0.0
H863 H 0.30394 0.36708 0.0513 0.0
H864 H 0.291 0.3724 0.02805 0.0
H865 H 0.22052 0.3511 0.01944 0.0
H866 H 0.24847 0.31881 0.94495 0.0
H867 H 0.26122 0.32406 0.9681 0.0
C868 C 0.4192 0.50822 0.80155 0.0
C869 C 0.40741 0.52694 0.80653 0.0
C870 C 0.41598 0.50083 0.78829 0.0
C871 C 0.39792 0.52094 0.75486 0.0
H872 H 0.39863 0.45748 0.74591 0.0
C873 C 0.41732 0.48842 0.70129 0.0
C874 C 0.40563 0.46956 0.69643 0.0
C875 C 0.41448 0.49571 0.7146 0.0
C876 C 0.39811 0.47526 0.74823 0.0
H877 H 0.38263 0.55231 0.80154 0.0
H878 H 0.37695 0.53936 0.77834 0.0
H879 H 0.39874 0.46912 0.76955 0.0
H880 H 0.3814 0.44379 0.70167 0.0
H881 H 0.37638 0.45657 0.72499 0.0
H882 H 0.39742 0.52709 0.73355 0.0
C883 C 0.38884 0.53051 0.78469 0.0
C884 C 0.39843 0.48194 0.76178 0.0
C885 C 0.392 0.53786 0.798 0.0
C886 C 0.39067 0.45838 0.70512 0.0
C887 C 0.38789 0.46562 0.71849 0.0
C888 C 0.39768 0.51426 0.74131 0.0
C889 C 0.40093 0.512 0.77964 0.0
C890 C 0.39868 0.50487 0.76527 0.0
C891 C 0.39991 0.48428 0.72342 0.0
C892 C 0.39812 0.49135 0.73782 0.0
H893 H 0.43121 0.49942 0.80784 0.0
H894 H 0.4258 0.48672 0.78469 0.0
H895 H 0.39826 0.53873 0.75717 0.0
H896 H 0.429 0.49742 0.69487 0.0
H897 H 0.42423 0.50994 0.71809 0.0
C898 C 0.21124 0.64272 0.54766 0.0
C899 C 0.22146 0.65833 0.55638 0.0
C900 C 0.21859 0.64055 0.53425 0.0
C901 C 0.24666 0.67387 0.50795 0.0
H902 H 0.25323 0.61733 0.48885 0.0
C903 C 0.28601 0.64182 0.45426 0.0
C904 C 0.27652 0.65807 0.44566 0.0
C905 C 0.27865 0.63978 0.46767 0.0
C906 C 0.25154 0.63322 0.49409 0.0
H907 H 0.24811 0.68307 0.55807 0.0
H908 H 0.26091 0.67919 0.53487 0.0
H909 H 0.24241 0.6173 0.51279 0.0
H910 H 0.25128 0.68428 0.44424 0.0
H911 H 0.23855 0.68071 0.46749 0.0
H912 H 0.25584 0.68985 0.48943 0.0
C913 C 0.24698 0.66891 0.53826 0.0
C914 C 0.24518 0.63321 0.50774 0.0
C915 C 0.23968 0.67106 0.55159 0.0
C916 C 0.25908 0.67169 0.45061 0.0
C917 C 0.25183 0.66972 0.46396 0.0
C918 C 0.25281 0.67388 0.49435 0.0
C919 C 0.23625 0.654 0.52934 0.0
C920 C 0.24279 0.65357 0.51483 0.0
C921 C 0.26179 0.65405 0.47273 0.0
C922 C 0.2553 0.6536 0.48724 0.0
H923 H 0.19718 0.63265 0.55107 0.0
H924 H 0.20993 0.62897 0.52761 0.0
H925 H 0.2447 0.68985 0.51305 0.0
H926 H 0.29945 0.63104 0.45074 0.0
H927 H 0.2867 0.62759 0.4742 0.0
C928 C 0.36099 0.00887 0.12859 0.0
C929 C 0.37418 0.0064 0.14021 0.0
C930 C 0.34357 0.99381 0.12588 0.0
C931 C 0.31087 0.946 0.14116 0.0
H932 H 0.29692 0.93456 0.10356 0.0
C933 C 0.24158 0.88293 0.1267 0.0
C934 C 0.24376 0.87087 0.1146 0.0
C935 C 0.25611 0.90069 0.12963 0.0
C936 C 0.30078 0.93716 0.11412 0.0
H937 H 0.3798 0.98651 0.15817 0.0
H938 H 0.35057 0.95915 0.15306 0.0
H939 H 0.32515 0.96205 0.10922 0.0
H940 H 0.26273 0.86763 0.09608 0.0
H941 H 0.28923 0.89749 0.10153 0.0
H942 H 0.28801 0.91969 0.14602 0.0
C943 C 0.35271 0.97322 0.14626 0.0
C944 C 0.31675 0.95347 0.11743 0.0
C945 C 0.36964 0.98878 0.14919 0.0
C946 C 0.26068 0.87684 0.10544 0.0
C947 C 0.27574 0.89414 0.10856 0.0
C948 C 0.29543 0.9292 0.13784 0.0
C949 C 0.33948 0.97539 0.1345 0.0
C950 C 0.32204 0.95822 0.131 0.0
C951 C 0.27371 0.90634 0.12073 0.0
C952 C 0.29007 0.92452 0.12427 0.0
H953 H 0.3641 0.02256 0.12161 0.0
H954 H 0.33343 0.99667 0.11698 0.0
H955 H 0.31398 0.94931 0.15174 0.0
H956 H 0.2284 0.87879 0.13383 0.0
H957 H 0.25337 0.90998 0.13888 0.0
C958 C 0.25262 0.12361 0.37485 0.0
C959 C 0.24552 0.12818 0.38813 0.0
C960 C 0.2675 0.106 0.37222 0.0
C961 C 0.3119 0.07291 0.38793 0.0
H962 H 0.30234 0.03188 0.35802 0.0
C963 C 0.37184 0.99894 0.37852 0.0
C964 C 0.37741 0.99371 0.36509 0.0
C965 C 0.35458 0.01403 0.38141 0.0
C966 C 0.30541 0.04335 0.36631 0.0
H967 H 0.24841 0.11767 0.40905 0.0
H968 H 0.2747 0.08704 0.40443 0.0
H969 H 0.27431 0.06068 0.36301 0.0
H970 H 0.36896 3e-05 0.34412 0.0
H971 H 0.33921 0.02701 0.34914 0.0
H972 H 0.34322 0.05624 0.39104 0.0
C973 C 0.26866 0.09715 0.39609 0.0
C974 C 0.2893 0.05978 0.36919 0.0
C975 C 0.25355 0.11462 0.39871 0.0
C976 C 0.36504 0.00367 0.35458 0.0
C977 C 0.34789 0.01905 0.35748 0.0
C978 C 0.3281 0.05668 0.38497 0.0
C979 C 0.2758 0.0927 0.38281 0.0
C980 C 0.29241 0.07473 0.38002 0.0
C981 C 0.34259 0.02458 0.37094 0.0
C982 C 0.32509 0.04167 0.37412 0.0
H983 H 0.24668 0.13362 0.36644 0.0
H984 H 0.27288 0.1031 0.36191 0.0
H985 H 0.3149 0.08444 0.39621 0.0
H986 H 0.3808 0.99129 0.38687 0.0
H987 H 0.35063 0.01741 0.39189 0.0
C988 C 0.1154 0.01407 0.6293 0.0
C989 C 0.11798 0.99827 0.63975 0.0
C990 C 0.13274 0.02889 0.62606 0.0
C991 C 0.18465 0.05436 0.63954 0.0
H992 H 0.19439 0.06977 0.60191 0.0
C993 C 0.24992 0.11007 0.6045 0.0
C994 C 0.25146 0.12926 0.61275 0.0
C995 C 0.23476 0.09283 0.60764 0.0
C996 C 0.19209 0.06546 0.61245 0.0
H997 H 0.14088 0.98583 0.65508 0.0
H998 H 0.17136 0.01159 0.64928 0.0
H999 H 0.16639 0.04156 0.60781 0.0
H1000 H 0.23779 0.14551 0.6306 0.0
H1001 H 0.21128 0.11587 0.63586 0.0
H1002 H 0.21061 0.07799 0.64417 0.0
C1003 C 0.15574 0.01266 0.6437 0.0
C1004 C 0.17582 0.0495 0.61585 0.0
C1005 C 0.13828 0.99786 0.64702 0.0
C1006 C 0.23726 0.13093 0.62406 0.0
C1007 C 0.22213 0.1138 0.62716 0.0
C1008 C 0.20097 0.07026 0.63614 0.0
C1009 C 0.15321 0.02824 0.63311 0.0
C1010 C 0.17163 0.04403 0.62946 0.0
C1011 C 0.2208 0.09445 0.61907 0.0
C1012 C 0.20463 0.07629 0.62257 0.0
H1013 H 0.09994 0.01504 0.62356 0.0
H1014 H 0.12998 0.04101 0.61806 0.0
H1015 H 0.18181 0.05066 0.65012 0.0
H1016 H 0.26063 0.10819 0.59572 0.0
H1017 H 0.23424 0.07808 0.60123 0.0
C1018 C 0.13475 0.99481 0.85355 0.0
C1019 C 0.12137 0.00304 0.86416 0.0
C1020 C 0.15202 0.97944 0.85615 0.0
C1021 C 0.18919 0.95834 0.88302 0.0
H1022 H 0.19171 0.90409 0.8614 0.0
C1023 C 0.24418 0.88208 0.89801 0.0
C1024 C 0.2541 0.8695 0.88757 0.0
C1025 C 0.22887 0.89923 0.89502 0.0
C1026 C 0.19155 0.91929 0.86741 0.0
H1027 H 0.11605 0.00197 0.88587 0.0
H1028 H 0.1462 0.97535 0.89034 0.0
H1029 H 0.16405 0.93291 0.85611 0.0
H1030 H 0.25636 0.86568 0.86581 0.0
H1031 H 0.23034 0.89585 0.86062 0.0
H1032 H 0.21682 0.94492 0.89425 0.0
C1033 C 0.14332 0.98077 0.88003 0.0
C1034 C 0.17563 0.93578 0.86437 0.0
C1035 C 0.12593 0.99588 0.87743 0.0
C1036 C 0.24877 0.87479 0.87411 0.0
C1037 C 0.23372 0.89207 0.87113 0.0
C1038 C 0.20529 0.94195 0.88597 0.0
C1039 C 0.15643 0.97225 0.86942 0.0
C1040 C 0.17417 0.95538 0.87221 0.0
C1041 C 0.22336 0.90436 0.88153 0.0
C1042 C 0.20658 0.92213 0.87826 0.0
H1043 H 0.13169 -2e-05 0.84322 0.0
H1044 H 0.16198 0.97323 0.84779 0.0
H1045 H 0.18856 0.97342 0.88914 0.0
H1046 H 0.24789 0.87838 0.90849 0.0
H1047 H 0.22102 0.90814 0.90331 0.0
C1048 C 0.74372 0.11636 0.89749 0.0
C1049 C 0.75381 0.12884 0.88708 0.0
C1050 C 0.72823 0.09938 0.89447 0.0
C1051 C 0.69081 0.07963 0.86681 0.0
H1052 H 0.68736 0.02556 0.88857 0.0
C1053 C 0.63387 0.00414 0.85294 0.0
C1054 C 0.62038 0.99599 0.86353 0.0
C1055 C 0.65108 0.01957 0.85554 0.0
C1056 C 0.68811 0.04062 0.88244 0.0
H1057 H 0.75614 0.13274 0.86532 0.0
H1058 H 0.72979 0.10285 0.86008 0.0
H1059 H 0.71581 0.05385 0.89369 0.0
H1060 H 0.61478 0.99732 0.8852 0.0
H1061 H 0.64487 0.02401 0.88969 0.0
H1062 H 0.66325 0.06618 0.85548 0.0
C1063 C 0.7332 0.10656 0.87059 0.0
C1064 C 0.70432 0.0569 0.88541 0.0
C1065 C 0.74843 0.12367 0.8736 0.0
C1066 C 0.62475 0.00333 0.87678 0.0
C1067 C 0.6421 0.0185 0.87939 0.0
C1068 C 0.67478 0.06324 0.86377 0.0
C1069 C 0.7227 0.09434 0.88097 0.0
C1070 C 0.70579 0.0767 0.87769 0.0
C1071 C 0.65535 0.02688 0.8688 0.0
C1072 C 0.67315 0.04367 0.87161 0.0
H1073 H 0.74745 0.11998 0.90798 0.0
H1074 H 0.72026 0.09054 0.90275 0.0
H1075 H 0.69111 0.09482 0.86079 0.0
H1076 H 0.63095 0.99884 0.84261 0.0
H1077 H 0.66115 0.02568 0.8472 0.0
C1078 C 0.62647 0.00015 0.62467 0.0
C1079 C 0.62127 0.00552 0.63814 0.0
C1080 C 0.64345 0.98478 0.62166 0.0
C1081 C 0.69257 0.95496 0.63649 0.0
H1082 H 0.68233 0.91394 0.60664 0.0
C1083 C 0.74495 0.87459 0.62785 0.0
C1084 C 0.75215 0.87009 0.61458 0.0
C1085 C 0.72993 0.89206 0.63048 0.0
C1086 C 0.68553 0.92544 0.61491 0.0
H1087 H 0.63006 0.9991 0.65904 0.0
H1088 H 0.6593 0.97168 0.65383 0.0
H1089 H 0.65432 0.94244 0.61193 0.0
H1090 H 0.7491 0.88052 0.59365 0.0
H1091 H 0.72252 0.91093 0.59826 0.0
H1092 H 0.72354 0.93735 0.63965 0.0
C1093 C 0.65056 0.97974 0.64555 0.0
C1094 C 0.66952 0.94184 0.61794 0.0
C1095 C 0.63371 0.99538 0.64856 0.0
C1096 C 0.7439 0.88351 0.60399 0.0
C1097 C 0.72864 0.90086 0.60661 0.0
C1098 C 0.70848 0.93838 0.63353 0.0
C1099 C 0.65552 0.9741 0.63205 0.0
C1100 C 0.6728 0.95682 0.62878 0.0
C1101 C 0.72155 0.90532 0.61989 0.0
C1102 C 0.70509 0.92343 0.62273 0.0
H1103 H 0.61744 0.00789 0.61638 0.0
H1104 H 0.64713 0.98131 0.61116 0.0
H1105 H 0.69588 0.96641 0.64475 0.0
H1106 H 0.75102 0.86468 0.63628 0.0
H1107 H 0.72457 0.89496 0.64079 0.0
C1108 C 0.75449 0.87514 0.3753 0.0
C1109 C 0.74768 0.87038 0.38861 0.0
C1110 C 0.76962 0.89253 0.37267 0.0
C1111 C 0.81499 0.92479 0.38799 0.0
H1112 H 0.80419 0.96685 0.35876 0.0
C1113 C 0.87474 0.99898 0.37828 0.0
C1114 C 0.87946 0.00478 0.36481 0.0
C1115 C 0.85773 0.98367 0.38133 0.0
C1116 C 0.80763 0.95508 0.36685 0.0
H1117 H 0.75148 0.88022 0.40959 0.0
H1118 H 0.77826 0.91046 0.40497 0.0
H1119 H 0.77624 0.93808 0.36393 0.0
H1120 H 0.86982 0.99917 0.34396 0.0
H1121 H 0.84052 0.97185 0.34924 0.0
H1122 H 0.8466 0.94117 0.39071 0.0
C1123 C 0.77176 0.90068 0.3966 0.0
C1124 C 0.79155 0.93868 0.36984 0.0
C1125 C 0.75638 0.88344 0.39923 0.0
C1126 C 0.86655 0.9951 0.35444 0.0
C1127 C 0.84966 0.97952 0.35749 0.0
C1128 C 0.83117 0.94101 0.38492 0.0
C1129 C 0.77849 0.9054 0.38328 0.0
C1130 C 0.79511 0.92335 0.38043 0.0
C1131 C 0.84514 0.9735 0.37098 0.0
C1132 C 0.82772 0.95638 0.37429 0.0
H1133 H 0.74805 0.86552 0.36686 0.0
H1134 H 0.77468 0.89565 0.36232 0.0
H1135 H 0.81832 0.91298 0.39608 0.0
H1136 H 0.88414 0.00637 0.38654 0.0
H1137 H 0.85441 0.97989 0.39184 0.0
C1138 C 0.76326 0.12346 0.10465 0.0
C1139 C 0.74548 0.12777 0.11354 0.0
C1140 C 0.77906 0.10678 0.10767 0.0
C1141 C 0.79857 0.0704 0.13645 0.0
H1142 H 0.83161 0.04104 0.10778 0.0
C1143 C 0.87287 0.01116 0.1483 0.0
C1144 C 0.87828 0.99424 0.13901 0.0
C1145 C 0.85622 0.02696 0.14524 0.0
C1146 C 0.82229 0.04864 0.11597 0.0
H1147 H 0.72937 0.11758 0.13214 0.0
H1148 H 0.75565 0.0874 0.13694 0.0
H1149 H 0.80284 0.06799 0.10213 0.0
H1150 H 0.87001 0.97964 0.11963 0.0
H1151 H 0.83983 0.00589 0.11469 0.0
H1152 H 0.81674 0.04979 0.15025 0.0
C1153 C 0.75849 0.09754 0.12803 0.0
C1154 C 0.80599 0.06465 0.11271 0.0
C1155 C 0.7432 0.1147 0.12523 0.0
C1156 C 0.86626 0.99277 0.12687 0.0
C1157 C 0.84911 0.00805 0.124 0.0
C1158 C 0.81435 0.05389 0.1397 0.0
C1159 C 0.77695 0.09355 0.11945 0.0
C1160 C 0.79399 0.07596 0.12289 0.0
C1161 C 0.84409 0.0257 0.133 0.0
C1162 C 0.82665 0.04287 0.12953 0.0
H1163 H 0.76537 0.13349 0.0956 0.0
H1164 H 0.79315 0.1047 0.10088 0.0
H1165 H 0.79018 0.07893 0.14468 0.0
H1166 H 0.8821 0.01269 0.15769 0.0
H1167 H 0.85335 0.04043 0.15237 0.0
C1168 C 0.76215 0.37736 0.60511 0.0
C1169 C 0.74454 0.37278 0.61408 0.0
C1170 C 0.7777 0.39431 0.60804 0.0
C1171 C 0.79709 0.43085 0.63678 0.0
H1172 H 0.83014 0.46008 0.60805 0.0
C1173 C 0.87199 0.48932 0.64856 0.0
C1174 C 0.87763 0.50618 0.63928 0.0
C1175 C 0.85512 0.47376 0.64551 0.0
C1176 C 0.82082 0.45252 0.61627 0.0
H1177 H 0.72846 0.38278 0.63272 0.0
H1178 H 0.75429 0.41344 0.63737 0.0
H1179 H 0.80122 0.43325 0.60245 0.0
H1180 H 0.86958 0.52088 0.6199 0.0
H1181 H 0.83902 0.49504 0.61496 0.0
H1182 H 0.81542 0.45138 0.65055 0.0
C1183 C 0.75718 0.40332 0.62846 0.0
C1184 C 0.80443 0.43658 0.61302 0.0
C1185 C 0.74214 0.38589 0.62575 0.0
C1186 C 0.86564 0.5078 0.62714 0.0
C1187 C 0.84827 0.49276 0.62427 0.0
C1188 C 0.81296 0.4473 0.64 0.0
C1189 C 0.77552 0.40754 0.61981 0.0
C1190 C 0.79246 0.42526 0.62322 0.0
C1191 C 0.84299 0.47518 0.63328 0.0
C1192 C 0.82531 0.45823 0.62981 0.0
H1193 H 0.76435 0.3673 0.59608 0.0
H1194 H 0.7917 0.39656 0.60121 0.0
H1195 H 0.78873 0.42234 0.64502 0.0
H1196 H 0.88119 0.48767 0.65796 0.0
H1197 H 0.85208 0.46033 0.65264 0.0
C1198 C 0.86479 0.50528 0.85389 0.0
C1199 C 0.87821 0.49694 0.86446 0.0
C1200 C 0.8476 0.52071 0.85656 0.0
C1201 C 0.81046 0.54135 0.88352 0.0
H1202 H 0.80749 0.59584 0.86214 0.0
C1203 C 0.75442 0.61672 0.89874 0.0
C1204 C 0.74446 0.62935 0.88835 0.0
C1205 C 0.76999 0.59981 0.89571 0.0
C1206 C 0.80778 0.58057 0.86808 0.0
H1207 H 0.88374 0.49794 0.88614 0.0
H1208 H 0.85369 0.52463 0.89074 0.0
H1209 H 0.83544 0.56733 0.85675 0.0
H1210 H 0.74241 0.63356 0.8666 0.0
H1211 H 0.76885 0.60379 0.86133 0.0
H1212 H 0.78265 0.55435 0.89476 0.0
C1213 C 0.85649 0.51926 0.88041 0.0
C1214 C 0.82386 0.56426 0.86499 0.0
C1215 C 0.87383 0.5041 0.87774 0.0
C1216 C 0.75001 0.62438 0.87487 0.0
C1217 C 0.76531 0.60734 0.87184 0.0
C1218 C 0.79419 0.55755 0.88652 0.0
C1219 C 0.84329 0.52783 0.86985 0.0
C1220 C 0.82548 0.54457 0.87274 0.0
C1221 C 0.77571 0.59499 0.8822 0.0
C1222 C 0.79272 0.57745 0.87889 0.0
H1223 H 0.86772 0.50012 0.84355 0.0
H1224 H 0.83757 0.52697 0.84824 0.0
H1225 H 0.8112 0.5262 0.88957 0.0
H1226 H 0.75056 0.62019 0.90923 0.0
H1227 H 0.77786 0.59086 0.90397 0.0
C1228 C 0.74422 0.61604 0.10426 0.0
C1229 C 0.75277 0.62953 0.11473 0.0
C1230 C 0.72894 0.59879 0.10709 0.0
C1231 C 0.70888 0.5617 0.13426 0.0
H1232 H 0.65418 0.5585 0.11311 0.0
C1233 C 0.63372 0.50508 0.1495 0.0
C1234 C 0.62108 0.49527 0.13906 0.0
C1235 C 0.65066 0.52067 0.14653 0.0
C1236 C 0.66951 0.55885 0.11899 0.0
H1237 H 0.75229 0.63512 0.13642 0.0
H1238 H 0.72582 0.60499 0.14129 0.0
H1239 H 0.68247 0.58657 0.1076 0.0
H1240 H 0.61701 0.49335 0.1173 0.0
H1241 H 0.64681 0.51977 0.11214 0.0
H1242 H 0.69612 0.5338 0.14556 0.0
C1243 C 0.73093 0.60777 0.13091 0.0
C1244 C 0.6857 0.575 0.11583 0.0
C1245 C 0.74596 0.62515 0.12809 0.0
C1246 C 0.62616 0.50088 0.1256 0.0
C1247 C 0.64322 0.51616 0.12264 0.0
C1248 C 0.69279 0.54534 0.13734 0.0
C1249 C 0.72215 0.5945 0.12045 0.0
C1250 C 0.70548 0.57668 0.12347 0.0
C1251 C 0.65548 0.52655 0.13305 0.0
C1252 C 0.67284 0.54375 0.12977 0.0
H1253 H 0.74912 0.61894 0.09387 0.0
H1254 H 0.72252 0.5887 0.09883 0.0
H1255 H 0.7241 0.5625 0.14024 0.0
H1256 H 0.63017 0.50113 0.15997 0.0
H1257 H 0.65959 0.52849 0.15482 0.0
C1258 C 0.7446 0.3737 0.37562 0.0
C1259 C 0.75154 0.36925 0.38894 0.0
C1260 C 0.72955 0.39109 0.37288 0.0
C1261 C 0.68455 0.42399 0.38811 0.0
H1262 H 0.69522 0.46533 0.35849 0.0
C1263 C 0.6254 0.49853 0.37831 0.0
C1264 C 0.62045 0.50416 0.36484 0.0
C1265 C 0.64232 0.48311 0.38132 0.0
C1266 C 0.69182 0.45376 0.36668 0.0
H1267 H 0.74806 0.37968 0.40985 0.0
H1268 H 0.72141 0.40995 0.40503 0.0
H1269 H 0.72302 0.43645 0.36373 0.0
H1270 H 0.6296 0.49813 0.34395 0.0
H1271 H 0.65875 0.4706 0.34918 0.0
H1272 H 0.65312 0.44067 0.39087 0.0
C1273 C 0.72775 0.39991 0.39674 0.0
C1274 C 0.70781 0.4373 0.36972 0.0
C1275 C 0.74306 0.38265 0.39947 0.0
C1276 C 0.63305 0.4942 0.35443 0.0
C1277 C 0.64985 0.4785 0.35745 0.0
C1278 C 0.66845 0.44026 0.38499 0.0
C1279 C 0.72088 0.4043 0.38341 0.0
C1280 C 0.70431 0.42224 0.38045 0.0
C1281 C 0.65458 0.47264 0.37094 0.0
C1282 C 0.67187 0.45538 0.37424 0.0
H1283 H 0.75087 0.3638 0.36725 0.0
H1284 H 0.72437 0.39396 0.36253 0.0
H1285 H 0.68126 0.41239 0.39631 0.0
H1286 H 0.61625 0.50614 0.38659 0.0
H1287 H 0.64582 0.47948 0.39183 0.0
C1288 C 0.12375 0.50131 0.37856 0.0
C1289 C 0.1186 0.49562 0.36513 0.0
C1290 C 0.14088 0.51657 0.38146 0.0
C1291 C 0.19072 0.54486 0.36651 0.0
H1292 H 0.1814 0.58672 0.39604 0.0
C1293 C 0.24512 0.62402 0.37488 0.0
C1294 C 0.25222 0.62856 0.38817 0.0
C1295 C 0.22978 0.60682 0.37228 0.0
C1296 C 0.18434 0.57497 0.38786 0.0
H1297 H 0.12755 0.50146 0.34418 0.0
H1298 H 0.15705 0.52869 0.34921 0.0
H1299 H 0.15263 0.55894 0.39084 0.0
H1300 H 0.24874 0.61845 0.40913 0.0
H1301 H 0.22162 0.58853 0.40455 0.0
H1302 H 0.22223 0.5615 0.36335 0.0
C1303 C 0.14815 0.52095 0.35754 0.0
C1304 C 0.16788 0.55899 0.38488 0.0
C1305 C 0.13114 0.50544 0.35464 0.0
C1306 C 0.24363 0.61541 0.39879 0.0
C1307 C 0.22804 0.59835 0.39618 0.0
C1308 C 0.20708 0.56102 0.36941 0.0
C1309 C 0.15317 0.52679 0.371 0.0
C1310 C 0.17084 0.54371 0.37417 0.0
C1311 C 0.22097 0.5939 0.3829 0.0
C1312 C 0.20403 0.57625 0.3801 0.0
H1313 H 0.11465 0.49383 0.38691 0.0
H1314 H 0.14458 0.52022 0.39194 0.0
H1315 H 0.19377 0.53314 0.35834 0.0
H1316 H 0.25147 0.63372 0.36645 0.0
H1317 H 0.22446 0.6039 0.36196 0.0
C1318 C 0.24871 0.37595 0.12806 0.0
C1319 C 0.25412 0.37081 0.11459 0.0
C1320 C 0.23337 0.39296 0.13107 0.0
C1321 C 0.20383 0.44229 0.11633 0.0
H1322 H 0.16281 0.43206 0.14617 0.0
C1323 C 0.12363 0.49487 0.1252 0.0
C1324 C 0.11913 0.50189 0.1385 0.0
C1325 C 0.14113 0.47991 0.1225 0.0
C1326 C 0.17432 0.43526 0.13791 0.0
H1327 H 0.24784 0.37971 0.09369 0.0
H1328 H 0.22044 0.40899 0.09891 0.0
H1329 H 0.1911 0.40392 0.14078 0.0
H1330 H 0.12962 0.49866 0.15941 0.0
H1331 H 0.16007 0.47219 0.15468 0.0
H1332 H 0.18641 0.47341 0.11327 0.0
C1333 C 0.22844 0.40018 0.10719 0.0
C1334 C 0.1906 0.41917 0.13482 0.0
C1335 C 0.24405 0.3833 0.10417 0.0
C1336 C 0.13261 0.49359 0.14906 0.0
C1337 C 0.14998 0.47839 0.14636 0.0
C1338 C 0.18736 0.45829 0.11934 0.0
C1339 C 0.22278 0.4051 0.12069 0.0
C1340 C 0.20558 0.42245 0.12399 0.0
C1341 C 0.1544 0.47142 0.13305 0.0
C1342 C 0.17242 0.4549 0.13015 0.0
H1343 H 0.25642 0.3669 0.13635 0.0
H1344 H 0.2299 0.39661 0.14158 0.0
H1345 H 0.21529 0.44559 0.10807 0.0
H1346 H 0.11369 0.501 0.11681 0.0
H1347 H 0.14401 0.47466 0.11217 0.0
C1348 C 0.37466 0.494 0.87726 0.0
C1349 C 0.37905 0.50117 0.86397 0.0
C1350 C 0.35717 0.47903 0.87995 0.0
C1351 C 0.32379 0.43455 0.86454 0.0
H1352 H 0.28308 0.4448 0.89452 0.0
C1353 C 0.24958 0.37507 0.8747 0.0
C1354 C 0.24428 0.36999 0.8882 0.0
C1355 C 0.26487 0.39208 0.87161 0.0
C1356 C 0.29447 0.44152 0.88622 0.0
H1357 H 0.36839 0.49819 0.84308 0.0
H1358 H 0.33796 0.47167 0.8478 0.0
H1359 H 0.31191 0.47264 0.88925 0.0
H1360 H 0.25076 0.37898 0.90906 0.0
H1361 H 0.27808 0.40826 0.9037 0.0
H1362 H 0.30699 0.4032 0.8617 0.0
C1363 C 0.34812 0.47777 0.85611 0.0
C1364 C 0.31091 0.45753 0.88317 0.0
C1365 C 0.36548 0.493 0.85342 0.0
C1366 C 0.25445 0.38253 0.89856 0.0
C1367 C 0.27002 0.39941 0.89546 0.0
C1368 C 0.30754 0.41844 0.86767 0.0
C1369 C 0.34379 0.47067 0.86941 0.0
C1370 C 0.32576 0.45417 0.87232 0.0
C1371 C 0.27554 0.40429 0.88194 0.0
C1372 C 0.29267 0.42168 0.87856 0.0
H1373 H 0.38467 0.50003 0.88565 0.0
H1374 H 0.35437 0.47367 0.89027 0.0
H1375 H 0.33522 0.43138 0.85624 0.0
H1376 H 0.24179 0.36598 0.86645 0.0
H1377 H 0.26823 0.3957 0.86108 0.0
C1378 C 0.38236 0.51331 0.62863 0.0
C1379 C 0.37982 0.49803 0.63937 0.0
C1380 C 0.36559 0.52893 0.6257 0.0
C1381 C 0.31601 0.55744 0.64025 0.0
H1382 H 0.30417 0.57177 0.60269 0.0
C1383 C 0.24987 0.61302 0.60574 0.0
C1384 C 0.24876 0.63247 0.61378 0.0
C1385 C 0.26497 0.59578 0.60888 0.0
C1386 C 0.30704 0.56781 0.61323 0.0
H1387 H 0.35758 0.48738 0.65552 0.0
H1388 H 0.32806 0.51449 0.65024 0.0
H1389 H 0.33141 0.54276 0.60826 0.0
H1390 H 0.26308 0.64921 0.63127 0.0
H1391 H 0.28969 0.61953 0.63651 0.0
H1392 H 0.29122 0.58213 0.6452 0.0
C1393 C 0.34323 0.51454 0.64421 0.0
C1394 C 0.32292 0.55136 0.61644 0.0
C1395 C 0.36013 0.49895 0.64721 0.0
C1396 C 0.26334 0.63441 0.6249 0.0
C1397 C 0.27851 0.61727 0.62798 0.0
C1398 C 0.30003 0.57381 0.63704 0.0
C1399 C 0.34572 0.52963 0.63335 0.0
C1400 C 0.32784 0.54619 0.62999 0.0
C1401 C 0.27942 0.59766 0.62009 0.0
C1402 C 0.29556 0.57941 0.62349 0.0
H1403 H 0.39738 0.51327 0.62245 0.0
H1404 H 0.36834 0.54062 0.61748 0.0
H1405 H 0.31944 0.55399 0.65079 0.0
H1406 H 0.2388 0.61089 0.59714 0.0
H1407 H 0.26505 0.5808 0.60266 0.0
C1408 C 0.41054 0.12096 0.12495 0.0
C1409 C 0.40368 0.10973 0.13676 0.0
C1410 C 0.40037 0.14105 0.12104 0.0
C1411 C 0.36599 0.18854 0.13318 0.0
H1412 H 0.3522 0.19519 0.09508 0.0
C1413 C 0.31363 0.26277 0.11215 0.0
C1414 C 0.32127 0.27264 0.10009 0.0
C1415 C 0.32326 0.24287 0.11692 0.0
C1416 C 0.35614 0.19371 0.10573 0.0
H1417 H 0.3811 0.11133 0.15394 0.0
H1418 H 0.3632 0.1465 0.14703 0.0
H1419 H 0.36986 0.1608 0.10312 0.0
H1420 H 0.34496 0.26941 0.08358 0.0
H1421 H 0.36183 0.23471 0.09191 0.0
H1422 H 0.35222 0.22155 0.13575 0.0
C1423 C 0.37658 0.1397 0.14085 0.0
C1424 C 0.36627 0.17399 0.11035 0.0
C1425 C 0.3868 0.11951 0.14479 0.0
C1426 C 0.33865 0.26216 0.09287 0.0
C1427 C 0.34824 0.24222 0.09762 0.0
C1428 C 0.35582 0.20831 0.12856 0.0
C1429 C 0.38303 0.15049 0.12881 0.0
C1430 C 0.37152 0.17124 0.1241 0.0
C1431 C 0.34068 0.23236 0.10971 0.0
C1432 C 0.35094 0.21118 0.11475 0.0
H1433 H 0.42365 0.11412 0.11857 0.0
H1434 H 0.40609 0.14917 0.11187 0.0
H1435 H 0.36999 0.18703 0.14382 0.0
H1436 H 0.30022 0.27044 0.11794 0.0
H1437 H 0.31687 0.23557 0.12618 0.0
C1438 C 0.13124 0.13756 0.39372 0.0
C1439 C 0.14063 0.15469 0.38571 0.0
C1440 C 0.11114 0.12709 0.38986 0.0
C1441 C 0.07646 0.11663 0.35956 0.0
H1442 H 0.02956 0.10172 0.38521 0.0
C1443 C 0.98835 0.08831 0.34253 0.0
C1444 C 0.97804 0.07084 0.34977 0.0
C1445 C 0.00831 0.09795 0.34718 0.0
C1446 C 0.04263 0.10554 0.37795 0.0
H1447 H 0.13567 0.17482 0.36764 0.0
H1448 H 0.10075 0.15682 0.36108 0.0
H1449 H 0.06398 0.11986 0.39312 0.0
H1450 H 0.98059 0.04968 0.36755 0.0
H1451 H 0.01556 0.0664 0.37562 0.0
H1452 H 0.05519 0.10242 0.34438 0.0
C1453 C 0.10912 0.15111 0.37017 0.0
C1454 C 0.06233 0.11593 0.38248 0.0
C1455 C 0.12912 0.16152 0.374 0.0
C1456 C 0.98813 0.06315 0.36175 0.0
C1457 C 0.00808 0.07282 0.36642 0.0
C1458 C 0.05681 0.10627 0.35503 0.0
C1459 C 0.10006 0.13354 0.37792 0.0
C1460 C 0.07938 0.12179 0.37331 0.0
C1461 C 0.0184 0.09036 0.3592 0.0
C1462 C 0.03957 0.10076 0.36415 0.0
H1463 H 0.13964 0.13187 0.40281 0.0
H1464 H 0.10464 0.11354 0.39603 0.0
H1465 H 0.08947 0.12048 0.35226 0.0
H1466 H 0.98093 0.09468 0.3333 0.0
H1467 H 0.01566 0.11163 0.34147 0.0
C1468 C 0.10142 0.88838 0.62129 0.0
C1469 C 0.09658 0.89272 0.63493 0.0
C1470 C 0.11117 0.86806 0.61741 0.0
C1471 C 0.12 0.81995 0.61005 0.0
H1472 H 0.16165 0.7886 0.63348 0.0
C1473 C 0.15383 0.73222 0.59595 0.0
C1474 C 0.17585 0.72673 0.59977 0.0
C1475 C 0.14372 0.7519 0.6007 0.0
C1476 C 0.15029 0.79723 0.6267 0.0
H1477 H 0.09808 0.87917 0.65521 0.0
H1478 H 0.11417 0.84316 0.6484 0.0
H1479 H 0.14589 0.82426 0.64067 0.0
H1480 H 0.20472 0.73753 0.61139 0.0
H1481 H 0.18767 0.77243 0.61911 0.0
H1482 H 0.12541 0.79373 0.59573 0.0
C1483 C 0.11111 0.85571 0.64071 0.0
C1484 C 0.14089 0.81758 0.63095 0.0
C1485 C 0.10176 0.87631 0.64463 0.0
C1486 C 0.18766 0.74134 0.60834 0.0
C1487 C 0.17775 0.76126 0.61286 0.0
C1488 C 0.12972 0.79986 0.60569 0.0
C1489 C 0.11589 0.85127 0.62701 0.0
C1490 C 0.12565 0.82929 0.62267 0.0
C1491 C 0.15559 0.76682 0.60916 0.0
C1492 C 0.14502 0.78817 0.61394 0.0
H1493 H 0.09792 0.90084 0.6136 0.0
H1494 H 0.11516 0.86567 0.60684 0.0
H1495 H 0.10799 0.8281 0.60347 0.0
H1496 H 0.14425 0.72109 0.58948 0.0
H1497 H 0.12649 0.75522 0.59784 0.0
C1498 C 0.51163 0.91075 0.84322 0.0
C1499 C 0.52184 0.92862 0.85014 0.0
C1500 C 0.49168 0.90129 0.84801 0.0
C1501 C 0.45693 0.89523 0.87873 0.0
H1502 H 0.4107 0.87871 0.85298 0.0
C1503 C 0.3682 0.86255 0.89418 0.0
C1504 C 0.35944 0.84487 0.88634 0.0
C1505 C 0.38824 0.87324 0.89041 0.0
C1506 C 0.42353 0.88302 0.8603 0.0
H1507 H 0.51917 0.95066 0.86752 0.0
H1508 H 0.48417 0.93425 0.87584 0.0
H1509 H 0.44494 0.89671 0.84504 0.0
H1510 H 0.36553 0.82395 0.86872 0.0
H1511 H 0.40028 0.84233 0.86231 0.0
H1512 H 0.43539 0.88141 0.89399 0.0
C1513 C 0.49172 0.92739 0.86678 0.0
C1514 C 0.44317 0.89334 0.85574 0.0
C1515 C 0.51168 0.93688 0.86196 0.0
C1516 C 0.37155 0.83769 0.87492 0.0
C1517 C 0.39147 0.84832 0.87118 0.0
C1518 C 0.43722 0.88488 0.8833 0.0
C1519 C 0.48148 0.90949 0.85984 0.0
C1520 C 0.46022 0.89935 0.86487 0.0
C1521 C 0.39987 0.86646 0.87872 0.0
C1522 C 0.42042 0.87841 0.87411 0.0
H1523 H 0.51911 0.90393 0.83412 0.0
H1524 H 0.48441 0.8873 0.84253 0.0
H1525 H 0.46984 0.89948 0.88601 0.0
H1526 H 0.35934 0.86849 0.90304 0.0
H1527 H 0.39427 0.88721 0.89641 0.0
C1528 C 0.31357 0.73627 0.38978 0.0
C1529 C 0.32115 0.72616 0.40178 0.0
C1530 C 0.32338 0.75616 0.38511 0.0
C1531 C 0.35683 0.80475 0.39669 0.0
H1532 H 0.37043 0.81242 0.35864 0.0
C1533 C 0.41203 0.87735 0.37814 0.0
C1534 C 0.40512 0.88911 0.36653 0.0
C1535 C 0.40168 0.85724 0.38182 0.0
C1536 C 0.3665 0.81062 0.36927 0.0
H1537 H 0.345 0.72888 0.41826 0.0
H1538 H 0.3622 0.76348 0.41008 0.0
H1539 H 0.35229 0.77788 0.36639 0.0
H1540 H 0.38227 0.88842 0.34945 0.0
H1541 H 0.36405 0.85321 0.35597 0.0
H1542 H 0.37103 0.83739 0.39962 0.0
C1543 C 0.3485 0.75622 0.40436 0.0
C1544 C 0.35611 0.79085 0.37371 0.0
C1545 C 0.33871 0.73633 0.40901 0.0
C1546 C 0.38802 0.87983 0.35846 0.0
C1547 C 0.37761 0.85962 0.36217 0.0
C1548 C 0.36719 0.82447 0.39226 0.0
C1549 C 0.34094 0.76639 0.39236 0.0
C1550 C 0.35134 0.78762 0.3875 0.0
C1551 C 0.3841 0.84831 0.37402 0.0
C1552 C 0.37236 0.82756 0.37853 0.0
H1553 H 0.30005 0.72882 0.38399 0.0
H1554 H 0.31701 0.76369 0.37592 0.0
H1555 H 0.35297 0.80301 0.40733 0.0
H1556 H 0.42532 0.8838 0.38454 0.0
H1557 H 0.40743 0.84869 0.39085 0.0
C1558 C 0.36819 0.15707 0.62936 0.0
C1559 C 0.35783 0.1515 0.61703 0.0
C1560 C 0.38803 0.14651 0.63337 0.0
C1561 C 0.43661 0.11424 0.62068 0.0
H1562 H 0.44258 0.09725 0.65835 0.0
C1563 C 0.51191 0.0624 0.64077 0.0
C1564 C 0.52131 0.06947 0.65309 0.0
C1565 C 0.49174 0.07166 0.63615 0.0
C1566 C 0.44127 0.10207 0.64782 0.0
H1567 H 0.36059 0.13062 0.59913 0.0
H1568 H 0.39527 0.11205 0.6062 0.0
H1569 H 0.40796 0.11475 0.65052 0.0
H1570 H 0.51693 0.09172 0.67023 0.0
H1571 H 0.48176 0.10792 0.66215 0.0
H1572 H 0.47001 0.10155 0.61803 0.0
C1573 C 0.38802 0.12475 0.61271 0.0
C1574 C 0.42142 0.11211 0.64333 0.0
C1575 C 0.36809 0.13534 0.60869 0.0
C1576 C 0.51006 0.08587 0.66072 0.0
C1577 C 0.48985 0.09507 0.65612 0.0
C1578 C 0.45648 0.10414 0.62518 0.0
C1579 C 0.3981 0.13008 0.62517 0.0
C1580 C 0.41892 0.11853 0.62974 0.0
C1581 C 0.48048 0.08812 0.64376 0.0
C1582 C 0.45911 0.09813 0.63884 0.0
H1583 H 0.36092 0.16954 0.63603 0.0
H1584 H 0.39557 0.15135 0.64289 0.0
H1585 H 0.43532 0.11918 0.61018 0.0
H1586 H 0.52018 0.04977 0.63466 0.0
H1587 H 0.48484 0.06576 0.62666 0.0
C1588 C 0.11219 0.11796 0.85903 0.0
C1589 C 0.09537 0.10823 0.86713 0.0
C1590 C 0.12254 0.1381 0.86294 0.0
C1591 C 0.13321 0.17259 0.89336 0.0
H1592 H 0.14663 0.22007 0.86778 0.0
C1593 C 0.16038 0.26112 0.91047 0.0
C1594 C 0.17759 0.27169 0.90314 0.0
C1595 C 0.1509 0.24106 0.90583 0.0
C1596 C 0.14322 0.20685 0.87502 0.0
H1597 H 0.07573 0.1126 0.88545 0.0
H1598 H 0.09351 0.14757 0.89209 0.0
H1599 H 0.12898 0.18539 0.85987 0.0
H1600 H 0.19845 0.2695 0.88522 0.0
H1601 H 0.182 0.23441 0.87716 0.0
H1602 H 0.14733 0.19398 0.90851 0.0
C1603 C 0.09907 0.13945 0.88289 0.0
C1604 C 0.13312 0.18699 0.87048 0.0
C1605 C 0.08877 0.11941 0.87901 0.0
C1606 C 0.18518 0.26177 0.89109 0.0
C1607 C 0.17566 0.24174 0.88642 0.0
C1608 C 0.14327 0.1924 0.89788 0.0
C1609 C 0.11629 0.14889 0.87502 0.0
C1610 C 0.12781 0.16971 0.87963 0.0
C1611 C 0.15841 0.23115 0.89373 0.0
C1612 C 0.14824 0.20985 0.8888 0.0
H1613 H 0.11769 0.10982 0.84982 0.0
H1614 H 0.13583 0.1449 0.85668 0.0
H1615 H 0.12979 0.15942 0.90063 0.0
H1616 H 0.15412 0.2684 0.91977 0.0
H1617 H 0.13744 0.23348 0.91161 0.0
C1618 C 0.12781 0.83766 0.12724 0.0
C1619 C 0.13995 0.84473 0.11581 0.0
C1620 C 0.10796 0.84841 0.13097 0.0
C1621 C 0.06232 0.885 0.1189 0.0
H1622 H 0.05525 0.89754 0.15713 0.0
C1623 C 0.98804 0.93713 0.14036 0.0
C1624 C 0.97819 0.9291 0.15233 0.0
C1625 C 0.00795 0.92763 0.13547 0.0
C1626 C 0.05684 0.89397 0.14644 0.0
H1627 H 0.14016 0.86826 0.09906 0.0
H1628 H 0.10531 0.88717 0.10567 0.0
H1629 H 0.08933 0.87935 0.1491 0.0
H1630 H 0.98138 0.90481 0.16853 0.0
H1631 H 0.01595 0.88814 0.15999 0.0
H1632 H 0.02965 0.89953 0.1163 0.0
C1633 C 0.11129 0.8732 0.11169 0.0
C1634 C 0.07639 0.88356 0.14183 0.0
C1635 C 0.13127 0.8624 0.10793 0.0
C1636 C 0.98863 0.91145 0.15932 0.0
C1637 C 0.00851 0.90197 0.15445 0.0
C1638 C 0.04268 0.89543 0.12353 0.0
C1639 C 0.09966 0.86655 0.1234 0.0
C1640 C 0.07925 0.87868 0.12804 0.0
C1641 C 0.01843 0.90995 0.14248 0.0
C1642 C 0.03962 0.89979 0.13738 0.0
H1643 H 0.13376 0.82393 0.13347 0.0
H1644 H 0.09913 0.84254 0.13987 0.0
H1645 H 0.06398 0.88133 0.10823 0.0
H1646 H 0.98037 0.95074 0.13474 0.0
H1647 H 0.01527 0.93432 0.1263 0.0
C1648 C 0.66035 0.73801 0.91072 0.0
C1649 C 0.6775 0.72749 0.90331 0.0
C1650 C 0.65077 0.75805 0.90612 0.0
C1651 C 0.64262 0.79217 0.87535 0.0
H1652 H 0.6295 0.83969 0.90096 0.0
C1653 C 0.61172 0.88086 0.85921 0.0
C1654 C 0.59501 0.89078 0.86731 0.0
C1655 C 0.62205 0.86077 0.86321 0.0
C1656 C 0.63283 0.8265 0.8937 0.0
H1657 H 0.69815 0.72974 0.8853 0.0
H1658 H 0.68153 0.7648 0.87733 0.0
H1659 H 0.64712 0.80514 0.90881 0.0
H1660 H 0.5756 0.88686 0.88575 0.0
H1661 H 0.59333 0.85193 0.89255 0.0
H1662 H 0.62821 0.81357 0.86025 0.0
C1663 C 0.67531 0.75745 0.88661 0.0
C1664 C 0.64294 0.80669 0.8982 0.0
C1665 C 0.68493 0.73744 0.89123 0.0
C1666 C 0.58854 0.87988 0.8793 0.0
C1667 C 0.59882 0.85987 0.88327 0.0
C1668 C 0.63246 0.81201 0.87084 0.0
C1669 C 0.65811 0.76798 0.894 0.0
C1670 C 0.64782 0.78924 0.88911 0.0
C1671 C 0.61588 0.8502 0.87537 0.0
C1672 C 0.6273 0.82934 0.87999 0.0
H1673 H 0.65421 0.7307 0.92004 0.0
H1674 H 0.63736 0.76559 0.91197 0.0
H1675 H 0.64594 0.77894 0.86811 0.0
H1676 H 0.61713 0.88878 0.84992 0.0
H1677 H 0.63523 0.85382 0.85693 0.0
C1678 C 0.01165 0.91021 0.6597 0.0
C1679 C 0.02168 0.92836 0.65293 0.0
C1680 C 0.99204 0.90037 0.65467 0.0
C1681 C 0.94378 0.91077 0.63198 0.0
H1682 H 0.93801 0.84589 0.63321 0.0
C1683 C 0.86764 0.86338 0.60881 0.0
C1684 C 0.85837 0.84637 0.61696 0.0
C1685 C 0.8882 0.87334 0.61226 0.0
C1686 C 0.9393 0.86404 0.63287 0.0
H1687 H 0.01894 0.95057 0.63563 0.0
H1688 H 0.98481 0.93327 0.62678 0.0
H1689 H 0.9724 0.86358 0.64127 0.0
H1690 H 0.86374 0.8263 0.63502 0.0
H1691 H 0.89923 0.84366 0.64098 0.0
H1692 H 0.91055 0.91118 0.62365 0.0
C1693 C 0.99196 0.92678 0.63606 0.0
C1694 C 0.95899 0.87419 0.63752 0.0
C1695 C 0.01157 0.93662 0.6411 0.0
C1696 C 0.87029 0.83936 0.62849 0.0
C1697 C 0.89079 0.84921 0.63188 0.0
C1698 C 0.92406 0.90061 0.6273 0.0
C1699 C 0.98203 0.90845 0.64274 0.0
C1700 C 0.96137 0.89769 0.63729 0.0
C1701 C 0.89996 0.86637 0.62386 0.0
C1702 C 0.92149 0.87714 0.62786 0.0
H1703 H 0.01901 0.90351 0.66887 0.0
H1704 H 0.98463 0.88651 0.66019 0.0
H1705 H 0.94498 0.92893 0.63178 0.0
H1706 H 0.85894 0.86917 0.59986 0.0
H1707 H 0.89495 0.88641 0.60581 0.0
C1708 C 0.81291 0.26192 0.39049 0.0
C1709 C 0.82056 0.27189 0.40251 0.0
C1710 C 0.82328 0.24259 0.38542 0.0
C1711 C 0.87627 0.21033 0.38732 0.0
H1712 H 0.84032 0.16164 0.37277 0.0
C1713 C 0.91237 0.12207 0.37779 0.0
C1714 C 0.90543 0.11025 0.3662 0.0
C1715 C 0.90241 0.1425 0.38125 0.0
C1716 C 0.85061 0.17522 0.37661 0.0
H1717 H 0.84491 0.26934 0.41873 0.0
H1718 H 0.86283 0.23545 0.41 0.0
H1719 H 0.8219 0.19568 0.38092 0.0
H1720 H 0.88276 0.11101 0.34903 0.0
H1721 H 0.86541 0.14684 0.35509 0.0
H1722 H 0.90495 0.1898 0.38315 0.0
C1723 C 0.84903 0.24274 0.40436 0.0
C1724 C 0.84006 0.19472 0.3813 0.0
C1725 C 0.83866 0.26206 0.40942 0.0
C1726 C 0.8885 0.11961 0.35804 0.0
C1727 C 0.87845 0.14008 0.36155 0.0
C1728 C 0.88681 0.19085 0.38264 0.0
C1729 C 0.84154 0.23283 0.39227 0.0
C1730 C 0.85275 0.21241 0.38684 0.0
C1731 C 0.88523 0.15168 0.37324 0.0
C1732 C 0.87409 0.17297 0.37737 0.0
H1733 H 0.79903 0.26915 0.38491 0.0
H1734 H 0.81724 0.23552 0.37602 0.0
H1735 H 0.88657 0.22382 0.39127 0.0
H1736 H 0.92538 0.11545 0.38432 0.0
H1737 H 0.90783 0.15084 0.39042 0.0
C1738 C 0.63126 0.13217 0.10806 0.0
C1739 C 0.64076 0.1485 0.11662 0.0
C1740 C 0.61145 0.121 0.11178 0.0
C1741 C 0.57775 0.10701 0.142 0.0
H1742 H 0.52885 0.09775 0.11673 0.0
C1743 C 0.48872 0.08434 0.15971 0.0
C1744 C 0.47672 0.06816 0.15233 0.0
C1745 C 0.50916 0.09261 0.15489 0.0
C1746 C 0.54248 0.09995 0.12385 0.0
H1747 H 0.63642 0.16622 0.13565 0.0
H1748 H 0.60214 0.14699 0.14197 0.0
H1749 H 0.56386 0.11495 0.10892 0.0
H1750 H 0.47667 0.04795 0.13409 0.0
H1751 H 0.51248 0.06241 0.12567 0.0
H1752 H 0.5564 0.09232 0.15697 0.0
C1753 C 0.61014 0.14248 0.13253 0.0
C1754 C 0.56252 0.10978 0.11938 0.0
C1755 C 0.62979 0.15363 0.12883 0.0
C1756 C 0.48556 0.06042 0.14001 0.0
C1757 C 0.50599 0.06878 0.13515 0.0
C1758 C 0.55778 0.09723 0.14646 0.0
C1759 C 0.60085 0.12587 0.12414 0.0
C1760 C 0.58022 0.11379 0.12847 0.0
C1761 C 0.51805 0.08493 0.14256 0.0
C1762 C 0.53977 0.09392 0.1375 0.0
H1763 H 0.63923 0.12783 0.09858 0.0
H1764 H 0.60471 0.10822 0.10512 0.0
H1765 H 0.59125 0.10939 0.14919 0.0
H1766 H 0.4823 0.0907 0.16921 0.0
H1767 H 0.51787 0.10529 0.16074 0.0
C1768 C 0.68498 0.26396 0.61396 0.0
C1769 C 0.67702 0.27372 0.60195 0.0
C1770 C 0.67481 0.24465 0.61922 0.0
C1771 C 0.62193 0.21207 0.61784 0.0
H1772 H 0.65844 0.16336 0.63182 0.0
C1773 C 0.58673 0.12328 0.62642 0.0
C1774 C 0.59387 0.11104 0.6378 0.0
C1775 C 0.59646 0.14396 0.62326 0.0
C1776 C 0.64799 0.17695 0.62815 0.0
H1777 H 0.6523 0.27081 0.58596 0.0
H1778 H 0.63473 0.23701 0.59501 0.0
H1779 H 0.6765 0.19768 0.62378 0.0
H1780 H 0.61665 0.1113 0.65493 0.0
H1781 H 0.6336 0.14758 0.64938 0.0
H1782 H 0.59345 0.19127 0.62204 0.0
C1783 C 0.64861 0.24444 0.6005 0.0
C1784 C 0.65834 0.19661 0.62352 0.0
C1785 C 0.65879 0.26371 0.59525 0.0
C1786 C 0.61076 0.12024 0.64608 0.0
C1787 C 0.62057 0.14096 0.64286 0.0
C1788 C 0.6116 0.19244 0.62246 0.0
C1789 C 0.65643 0.23472 0.61257 0.0
C1790 C 0.64544 0.21427 0.61814 0.0
C1791 C 0.6136 0.15298 0.63136 0.0
C1792 C 0.62452 0.17452 0.62749 0.0
H1793 H 0.69897 0.27133 0.61938 0.0
H1794 H 0.68111 0.23772 0.6286 0.0
H1795 H 0.61147 0.22555 0.61403 0.0
H1796 H 0.57376 0.1168 0.61981 0.0
H1797 H 0.59089 0.15261 0.61423 0.0
C1798 C 0.48741 0.93774 0.36318 0.0
C1799 C 0.47813 0.93039 0.35088 0.0
C1800 C 0.50769 0.92879 0.36787 0.0
C1801 C 0.5585 0.89899 0.3562 0.0
H1802 H 0.56492 0.88177 0.3938 0.0
C1803 C 0.63082 0.84286 0.37387 0.0
C1804 C 0.64192 0.84834 0.38598 0.0
C1805 C 0.61101 0.85375 0.3702 0.0
C1806 C 0.56348 0.88676 0.38331 0.0
H1807 H 0.48281 0.90794 0.33387 0.0
H1808 H 0.51813 0.89228 0.34205 0.0
H1809 H 0.53006 0.89936 0.3861 0.0
H1810 H 0.64043 0.86932 0.40389 0.0
H1811 H 0.60567 0.88848 0.3974 0.0
H1812 H 0.59176 0.88632 0.35334 0.0
C1813 C 0.50987 0.90512 0.34801 0.0
C1814 C 0.54353 0.89683 0.3789 0.0
C1815 C 0.48957 0.91401 0.34335 0.0
C1816 C 0.63236 0.86469 0.39449 0.0
C1817 C 0.61241 0.87562 0.39079 0.0
C1818 C 0.57839 0.88897 0.3606 0.0
C1819 C 0.51916 0.91239 0.36033 0.0
C1820 C 0.54071 0.90277 0.36524 0.0
C1821 C 0.6017 0.87045 0.37851 0.0
C1822 C 0.58101 0.88243 0.37416 0.0
H1823 H 0.47898 0.95037 0.36921 0.0
H1824 H 0.51451 0.93489 0.37733 0.0
H1825 H 0.55705 0.90381 0.34568 0.0
H1826 H 0.63749 0.83022 0.3671 0.0
H1827 H 0.60294 0.84901 0.36081 0.0
C1828 C 0.83807 0.73788 0.09344 0.0
C1829 C 0.82045 0.72767 0.10059 0.0
C1830 C 0.84783 0.75774 0.09817 0.0
C1831 C 0.85525 0.79203 0.12899 0.0
H1832 H 0.87066 0.83878 0.10333 0.0
C1833 C 0.8876 0.88065 0.14473 0.0
C1834 C 0.9049 0.88984 0.13676 0.0
C1835 C 0.87704 0.86058 0.14089 0.0
C1836 C 0.86667 0.8258 0.11062 0.0
H1837 H 0.79917 0.73026 0.11831 0.0
H1838 H 0.81609 0.76506 0.12652 0.0
H1839 H 0.85253 0.80457 0.0954 0.0
H1840 H 0.92524 0.88451 0.11881 0.0
H1841 H 0.90708 0.84967 0.11229 0.0
H1842 H 0.8695 0.81337 0.1442 0.0
C1843 C 0.82253 0.75759 0.11733 0.0
C1844 C 0.85628 0.80618 0.10607 0.0
C1845 C 0.81275 0.73773 0.11258 0.0
C1846 C 0.91181 0.87814 0.12513 0.0
C1847 C 0.90131 0.85817 0.12133 0.0
C1848 C 0.86567 0.81171 0.13355 0.0
C1849 C 0.84019 0.76783 0.11018 0.0
C1850 C 0.85062 0.78897 0.11517 0.0
C1851 C 0.88356 0.84933 0.12902 0.0
C1852 C 0.87171 0.82872 0.12439 0.0
H1853 H 0.84445 0.73047 0.08421 0.0
H1854 H 0.86161 0.76502 0.09252 0.0
H1855 H 0.8513 0.77899 0.13624 0.0
H1856 H 0.88186 0.8892 0.15375 0.0
H1857 H 0.86336 0.85423 0.14701 0.0
C1858 C 0.01234 0.08802 0.84444 0.0
C1859 C 0.02244 0.06987 0.85117 0.0
C1860 C 0.99297 0.09807 0.84966 0.0
C1861 C 0.94511 0.08827 0.87263 0.0
H1862 H 0.94011 0.15321 0.87143 0.0
C1863 C 0.86879 0.13623 0.89513 0.0
C1864 C 0.85991 0.15333 0.8869 0.0
C1865 C 0.88942 0.12618 0.89195 0.0
C1866 C 0.94118 0.13505 0.87177 0.0
H1867 H 0.02005 0.04785 0.86857 0.0
H1868 H 0.98626 0.06546 0.87771 0.0
H1869 H 0.97429 0.13513 0.86336 0.0
H1870 H 0.8661 0.17353 0.86899 0.0
H1871 H 0.90168 0.15601 0.86346 0.0
H1872 H 0.91183 0.08822 0.88088 0.0
C1873 C 0.99322 0.07182 0.86835 0.0
C1874 C 0.96075 0.12469 0.86712 0.0
C1875 C 0.01262 0.06179 0.86314 0.0
C1876 C 0.87233 0.1604 0.87558 0.0
C1877 C 0.89289 0.15045 0.87244 0.0
C1878 C 0.92548 0.09865 0.87727 0.0
C1879 C 0.98326 0.09018 0.86171 0.0
C1880 C 0.96283 0.10116 0.86731 0.0
C1881 C 0.90165 0.13315 0.88052 0.0
C1882 C 0.92316 0.12215 0.87671 0.0
H1883 H 0.01947 0.09459 0.83518 0.0
H1884 H 0.98551 0.11194 0.84418 0.0
H1885 H 0.94611 0.07009 0.87281 0.0
H1886 H 0.8597 0.13038 0.90394 0.0
H1887 H 0.89583 0.11301 0.89844 0.0
C1888 C 0.83957 0.76268 0.59444 0.0
C1889 C 0.82165 0.7726 0.60148 0.0
C1890 C 0.84954 0.74297 0.59923 0.0
C1891 C 0.85669 0.70841 0.62999 0.0
H1892 H 0.87296 0.66211 0.60423 0.0
C1893 C 0.88853 0.61949 0.64547 0.0
C1894 C 0.90595 0.61033 0.63759 0.0
C1895 C 0.87822 0.63971 0.64169 0.0
C1896 C 0.86875 0.67497 0.61155 0.0
H1897 H 0.80014 0.76971 0.61907 0.0
H1898 H 0.81742 0.73515 0.62738 0.0
H1899 H 0.85485 0.69632 0.59632 0.0
H1900 H 0.92685 0.61592 0.61991 0.0
H1901 H 0.90912 0.65104 0.61349 0.0
H1902 H 0.87065 0.68691 0.64522 0.0
C1903 C 0.82392 0.74273 0.61823 0.0
C1904 C 0.85836 0.69459 0.60701 0.0
C1905 C 0.81393 0.76245 0.61343 0.0
C1906 C 0.9133 0.62226 0.62614 0.0
C1907 C 0.90305 0.64239 0.6224 0.0
C1908 C 0.86711 0.68872 0.63454 0.0
C1909 C 0.84182 0.73274 0.61117 0.0
C1910 C 0.85236 0.71164 0.61615 0.0
C1911 C 0.88513 0.65117 0.62997 0.0
C1912 C 0.87344 0.67186 0.62535 0.0
H1913 H 0.84598 0.77017 0.58524 0.0
H1914 H 0.86351 0.7359 0.59366 0.0
H1915 H 0.85248 0.72131 0.63728 0.0
H1916 H 0.88246 0.61077 0.65435 0.0
H1917 H 0.8644 0.64601 0.64772 0.0
C1918 C 0.62945 0.63719 0.89537 0.0
C1919 C 0.63856 0.65439 0.88729 0.0
C1920 C 0.6089 0.6272 0.89195 0.0
C1921 C 0.55759 0.63617 0.87139 0.0
H1922 H 0.55278 0.5712 0.87236 0.0
C1923 C 0.48621 0.58885 0.84423 0.0
C1924 C 0.47644 0.57049 0.85093 0.0
C1925 C 0.50553 0.59909 0.84939 0.0
C1926 C 0.55374 0.58937 0.87219 0.0
H1927 H 0.63283 0.67484 0.86943 0.0
H1928 H 0.59734 0.6574 0.8635 0.0
H1929 H 0.58694 0.58936 0.88054 0.0
H1930 H 0.47931 0.54837 0.86826 0.0
H1931 H 0.51295 0.56633 0.87731 0.0
H1932 H 0.52451 0.63621 0.86293 0.0
C1933 C 0.60592 0.65172 0.87253 0.0
C1934 C 0.57331 0.59978 0.8769 0.0
C1935 C 0.62642 0.66162 0.87589 0.0
C1936 C 0.48649 0.56246 0.86284 0.0
C1937 C 0.50582 0.57269 0.868 0.0
C1938 C 0.53805 0.62577 0.86669 0.0
C1939 C 0.59697 0.6343 0.88045 0.0
C1940 C 0.57557 0.62329 0.8764 0.0
C1941 C 0.51552 0.59119 0.86137 0.0
C1942 C 0.53598 0.60224 0.86688 0.0
H1943 H 0.63831 0.63123 0.90423 0.0
H1944 H 0.60234 0.61396 0.89833 0.0
H1945 H 0.55864 0.65433 0.87109 0.0
H1946 H 0.47888 0.5954 0.83502 0.0
H1947 H 0.51277 0.61309 0.84391 0.0
C1948 C 0.602 0.37498 0.14572 0.0
C1949 C 0.59693 0.39109 0.13581 0.0
C1950 C 0.61102 0.3541 0.14204 0.0
C1951 C 0.64013 0.31515 0.13253 0.0
H1952 H 0.62369 0.29067 0.09762 0.0
C1953 C 0.68647 0.23879 0.10962 0.0
C1954 C 0.67459 0.2243 0.10102 0.0
C1955 C 0.6765 0.25854 0.11438 0.0
C1956 C 0.62826 0.29695 0.1075 0.0
H1957 H 0.59822 0.39841 0.11438 0.0
H1958 H 0.61488 0.36279 0.10803 0.0
H1959 H 0.60669 0.32529 0.10523 0.0
H1960 H 0.64274 0.21852 0.09103 0.0
H1961 H 0.62489 0.25228 0.09982 0.0
H1962 H 0.66078 0.28607 0.13509 0.0
C1963 C 0.61102 0.36561 0.11858 0.0
C1964 C 0.61878 0.31719 0.11178 0.0
C1965 C 0.60161 0.38619 0.12223 0.0
C1966 C 0.6524 0.2296 0.0975 0.0
C1967 C 0.64223 0.24907 0.1025 0.0
C1968 C 0.64929 0.29462 0.12835 0.0
C1969 C 0.61555 0.34908 0.12839 0.0
C1970 C 0.62485 0.32681 0.12425 0.0
C1971 C 0.65421 0.26399 0.11089 0.0
C1972 C 0.64371 0.28536 0.11569 0.0
H1973 H 0.59846 0.37828 0.15627 0.0
H1974 H 0.614 0.34178 0.14988 0.0
H1975 H 0.6454 0.32202 0.14214 0.0
H1976 H 0.70366 0.2351 0.11246 0.0
H1977 H 0.68649 0.2697 0.12058 0.0
C1978 C 0.86902 0.33835 0.37481 0.0
C1979 C 0.85744 0.345 0.38654 0.0
C1980 C 0.88949 0.34821 0.37136 0.0
C1981 C 0.92328 0.3992 0.37651 0.0
H1982 H 0.97105 0.36255 0.36152 0.0
C1983 C 0.01093 0.43518 0.3632 0.0
C1984 C 0.02077 0.42769 0.3511 0.0
C1985 C 0.99132 0.42515 0.3681 0.0
C1986 C 0.9578 0.37305 0.36556 0.0
H1987 H 0.85861 0.36717 0.40394 0.0
H1988 H 0.89456 0.38436 0.39791 0.0
H1989 H 0.93663 0.34472 0.36943 0.0
H1990 H 0.01768 0.40396 0.33459 0.0
H1991 H 0.98331 0.3866 0.34305 0.0
H1992 H 0.94442 0.42757 0.37252 0.0
C1993 C 0.88756 0.3716 0.39133 0.0
C1994 C 0.93808 0.36283 0.37012 0.0
C1995 C 0.86703 0.36165 0.39482 0.0
C1996 C 0.01052 0.41007 0.34395 0.0
C1997 C 0.99092 0.40002 0.34886 0.0
C1998 C 0.94303 0.40944 0.37194 0.0
C1999 C 0.89898 0.365 0.37954 0.0
C2000 C 0.92049 0.3758 0.37552 0.0
C2001 C 0.98114 0.40738 0.36102 0.0
C2002 C 0.96042 0.3965 0.36629 0.0
H2003 H 0.86221 0.32558 0.36816 0.0
H2004 H 0.89767 0.34296 0.36211 0.0
H2005 H 0.90994 0.4097 0.38046 0.0
H2006 H 0.01847 0.44871 0.36895 0.0
H2007 H 0.98436 0.43106 0.37756 0.0
C2008 C 0.88655 0.38158 0.85938 0.0
C2009 C 0.90296 0.39149 0.86769 0.0
C2010 C 0.87622 0.36139 0.86316 0.0
C2011 C 0.86469 0.32663 0.89333 0.0
H2012 H 0.85307 0.2792 0.86739 0.0
C2013 C 0.83766 0.23771 0.90971 0.0
C2014 C 0.82085 0.22707 0.90208 0.0
C2015 C 0.84719 0.25786 0.90526 0.0
C2016 C 0.85597 0.2924 0.87473 0.0
H2017 H 0.92179 0.38748 0.88635 0.0
H2018 H 0.90403 0.35237 0.89279 0.0
H2019 H 0.87067 0.31414 0.8599 0.0
H2020 H 0.80082 0.22917 0.88381 0.0
H2021 H 0.81738 0.26444 0.8761 0.0
H2022 H 0.85011 0.30493 0.90816 0.0
C2023 C 0.8988 0.36039 0.88349 0.0
C2024 C 0.86604 0.31241 0.87043 0.0
C2025 C 0.90909 0.3805 0.87973 0.0
C2026 C 0.81377 0.23697 0.88991 0.0
C2027 C 0.82334 0.2571 0.88545 0.0
C2028 C 0.85465 0.30665 0.89762 0.0
C2029 C 0.88207 0.3507 0.87534 0.0
C2030 C 0.87069 0.32968 0.87971 0.0
C2031 C 0.84015 0.26779 0.89308 0.0
C2032 C 0.85032 0.28924 0.88839 0.0
H2033 H 0.88141 0.38957 0.85004 0.0
H2034 H 0.86329 0.35442 0.8567 0.0
H2035 H 0.86761 0.33977 0.9007 0.0
H2036 H 0.84352 0.23044 0.9191 0.0
H2037 H 0.86031 0.26552 0.91129 0.0
C2038 C 0.01135 0.5886 0.15888 0.0
C2039 C 0.02143 0.57078 0.15183 0.0
C2040 C 0.99185 0.59875 0.15393 0.0
C2041 C 0.94383 0.58947 0.13093 0.0
H2042 H 0.93793 0.65425 0.13331 0.0
C2043 C 0.86789 0.6376 0.10828 0.0
C2044 C 0.85847 0.6543 0.1166 0.0
C2045 C 0.88842 0.62759 0.11169 0.0
C2046 C 0.93925 0.63613 0.13266 0.0
H2047 H 0.01894 0.54954 0.13408 0.0
H2048 H 0.98499 0.56739 0.12538 0.0
H2049 H 0.9723 0.63623 0.14115 0.0
H2050 H 0.86355 0.67376 0.13492 0.0
H2051 H 0.89904 0.65628 0.14082 0.0
H2052 H 0.91066 0.5894 0.12253 0.0
C2053 C 0.99201 0.57336 0.13481 0.0
C2054 C 0.95893 0.6258 0.13717 0.0
C2055 C 0.01153 0.56321 0.13977 0.0
C2056 C 0.87023 0.66096 0.12826 0.0
C2057 C 0.89072 0.65104 0.13162 0.0
C2058 C 0.92412 0.59982 0.1264 0.0
C2059 C 0.982 0.59133 0.14181 0.0
C2060 C 0.96137 0.60232 0.13651 0.0
C2061 C 0.90002 0.63417 0.12342 0.0
C2062 C 0.9215 0.62325 0.12736 0.0
H2063 H 0.01855 0.59477 0.16822 0.0
H2064 H 0.98437 0.61231 0.15968 0.0
H2065 H 0.94507 0.57133 0.1304 0.0
H2066 H 0.85932 0.63207 0.09922 0.0
H2067 H 0.89527 0.61477 0.1051 0.0
C2068 C 0.61185 0.61902 0.35832 0.0
C2069 C 0.59483 0.60961 0.36641 0.0
C2070 C 0.62223 0.63923 0.36207 0.0
C2071 C 0.63268 0.67436 0.3922 0.0
H2072 H 0.64685 0.72119 0.36634 0.0
C2073 C 0.6605 0.76272 0.409 0.0
C2074 C 0.67798 0.77301 0.40176 0.0
C2075 C 0.65079 0.7428 0.40432 0.0
C2076 C 0.64323 0.70816 0.37366 0.0
H2077 H 0.57485 0.61467 0.38453 0.0
H2078 H 0.5927 0.64975 0.39091 0.0
H2079 H 0.62902 0.68648 0.3586 0.0
H2080 H 0.69898 0.77055 0.38391 0.0
H2081 H 0.68212 0.73565 0.37579 0.0
H2082 H 0.64678 0.69593 0.40726 0.0
C2083 C 0.59838 0.64132 0.38183 0.0
C2084 C 0.63302 0.68828 0.36922 0.0
C2085 C 0.58805 0.62121 0.37811 0.0
C2086 C 0.68552 0.76301 0.38972 0.0
C2087 C 0.67577 0.7431 0.38502 0.0
C2088 C 0.64285 0.69418 0.39662 0.0
C2089 C 0.61582 0.65041 0.37399 0.0
C2090 C 0.62743 0.67125 0.37848 0.0
C2091 C 0.65833 0.73272 0.39229 0.0
C2092 C 0.64808 0.7114 0.38744 0.0
H2093 H 0.61749 0.61056 0.34924 0.0
H2094 H 0.63568 0.64576 0.35583 0.0
H2095 H 0.62904 0.66138 0.39955 0.0
H2096 H 0.65426 0.77007 0.41828 0.0
H2097 H 0.63717 0.73542 0.41007 0.0
C2098 C 0.63035 0.36364 0.60913 0.0
C2099 C 0.6403 0.34724 0.61745 0.0
C2100 C 0.61011 0.3739 0.61293 0.0
C2101 C 0.57536 0.38508 0.64318 0.0
H2102 H 0.52751 0.39609 0.61745 0.0
C2103 C 0.48605 0.4099 0.65996 0.0
C2104 C 0.4752 0.42687 0.65257 0.0
C2105 C 0.50629 0.40077 0.65536 0.0
C2106 C 0.54082 0.39334 0.62472 0.0
H2107 H 0.63627 0.32835 0.63609 0.0
H2108 H 0.60117 0.34596 0.64253 0.0
H2109 H 0.5627 0.37919 0.60977 0.0
H2110 H 0.477 0.44755 0.63455 0.0
H2111 H 0.51235 0.43163 0.62655 0.0
H2112 H 0.55351 0.39903 0.65815 0.0
C2113 C 0.60917 0.35127 0.63323 0.0
C2114 C 0.56098 0.38369 0.62032 0.0
C2115 C 0.62929 0.34105 0.62947 0.0
C2116 C 0.48495 0.43448 0.64047 0.0
C2117 C 0.50514 0.42527 0.63584 0.0
C2118 C 0.55524 0.39465 0.64758 0.0
C2119 C 0.59945 0.36799 0.62511 0.0
C2120 C 0.57839 0.37924 0.62954 0.0
C2121 C 0.51607 0.40836 0.64325 0.0
C2122 C 0.53766 0.39872 0.63844 0.0
H2123 H 0.63834 0.36881 0.59981 0.0
H2124 H 0.60308 0.38681 0.60647 0.0
H2125 H 0.58861 0.38231 0.6505 0.0
H2126 H 0.4789 0.40365 0.6693 0.0
H2127 H 0.51417 0.38757 0.66122 0.0
C2128 C 0.11164 0.38063 0.35765 0.0
C2129 C 0.09463 0.38951 0.36595 0.0
C2130 C 0.12184 0.36008 0.36085 0.0
C2131 C 0.11355 0.30845 0.38122 0.0
H2132 H 0.17848 0.30378 0.37977 0.0
C2133 C 0.1613 0.23757 0.40834 0.0
C2134 C 0.17934 0.22748 0.4015 0.0
C2135 C 0.15111 0.25689 0.40317 0.0
C2136 C 0.16032 0.30471 0.38007 0.0
H2137 H 0.07477 0.38341 0.384 0.0
H2138 H 0.09256 0.34796 0.38956 0.0
H2139 H 0.16008 0.33797 0.37176 0.0
H2140 H 0.20103 0.22985 0.38395 0.0
H2141 H 0.18318 0.2636 0.37489 0.0
H2142 H 0.11375 0.27536 0.38967 0.0
C2143 C 0.09792 0.35669 0.38052 0.0
C2144 C 0.14977 0.32428 0.37546 0.0
C2145 C 0.08782 0.37718 0.37737 0.0
C2146 C 0.18718 0.23728 0.38947 0.0
C2147 C 0.17701 0.25665 0.3843 0.0
C2148 C 0.12407 0.28893 0.38583 0.0
C2149 C 0.11513 0.34794 0.37236 0.0
C2150 C 0.12628 0.32649 0.37617 0.0
C2151 C 0.15875 0.26659 0.39105 0.0
C2152 C 0.1476 0.28695 0.38549 0.0
H2153 H 0.11728 0.38966 0.34877 0.0
H2154 H 0.13492 0.35367 0.3543 0.0
H2155 H 0.09539 0.30944 0.38166 0.0
H2156 H 0.1549 0.23044 0.41764 0.0
H2157 H 0.13732 0.26434 0.40873 0.0
C2158 C 0.36861 0.36349 0.10863 0.0
C2159 C 0.35954 0.34591 0.11642 0.0
C2160 C 0.3887 0.37396 0.11252 0.0
C2161 C 0.42384 0.38332 0.14276 0.0
H2162 H 0.47039 0.39945 0.11714 0.0
C2163 C 0.51202 0.41087 0.15996 0.0
C2164 C 0.52231 0.42865 0.15299 0.0
C2165 C 0.49206 0.40142 0.15517 0.0
C2166 C 0.45742 0.39529 0.1244 0.0
H2167 H 0.36509 0.32498 0.1341 0.0
H2168 H 0.39995 0.34299 0.14071 0.0
H2169 H 0.43587 0.38163 0.10909 0.0
H2170 H 0.51974 0.45055 0.13554 0.0
H2171 H 0.48473 0.43418 0.12724 0.0
H2172 H 0.44528 0.39687 0.15806 0.0
C2173 C 0.39134 0.34905 0.13178 0.0
C2174 C 0.43766 0.38508 0.11978 0.0
C2175 C 0.37136 0.33864 0.12792 0.0
C2176 C 0.51221 0.43684 0.14113 0.0
C2177 C 0.49223 0.42737 0.13633 0.0
C2178 C 0.44354 0.3935 0.14736 0.0
C2179 C 0.40009 0.36706 0.12427 0.0
C2180 C 0.42075 0.37876 0.12894 0.0
C2181 C 0.48192 0.40955 0.1433 0.0
C2182 C 0.46066 0.39942 0.13826 0.0
H2183 H 0.35997 0.36951 0.09971 0.0
H2184 H 0.39497 0.38785 0.10654 0.0
H2185 H 0.41094 0.37911 0.15005 0.0
H2186 H 0.51947 0.40411 0.16909 0.0
H2187 H 0.48473 0.3875 0.16068 0.0
C2188 C 0.31344 0.76104 0.88997 0.0
C2189 C 0.32081 0.77084 0.90211 0.0
C2190 C 0.3228 0.74086 0.88541 0.0
C2191 C 0.35397 0.69106 0.89731 0.0
H2192 H 0.36962 0.68375 0.85952 0.0
C2193 C 0.40869 0.61768 0.87921 0.0
C2194 C 0.40262 0.60663 0.86718 0.0
C2195 C 0.39822 0.63768 0.88299 0.0
C2196 C 0.36509 0.68543 0.87006 0.0
H2197 H 0.34375 0.76724 0.91898 0.0
H2198 H 0.36014 0.73208 0.91101 0.0
H2199 H 0.35214 0.71867 0.86714 0.0
H2200 H 0.38097 0.60834 0.84957 0.0
H2201 H 0.36253 0.64332 0.85627 0.0
H2202 H 0.36691 0.65791 0.90027 0.0
C2203 C 0.34697 0.73985 0.90508 0.0
C2204 C 0.35508 0.70543 0.87444 0.0
C2205 C 0.33767 0.76005 0.90961 0.0
C2206 C 0.38607 0.61638 0.85889 0.0
C2207 C 0.37555 0.63647 0.86271 0.0
C2208 C 0.36392 0.67109 0.89294 0.0
C2209 C 0.33966 0.73002 0.89292 0.0
C2210 C 0.34961 0.70854 0.88814 0.0
C2211 C 0.38135 0.6472 0.87489 0.0
C2212 C 0.36983 0.66812 0.8793 0.0
H2213 H 0.30044 0.76895 0.88397 0.0
H2214 H 0.31662 0.73361 0.87609 0.0
H2215 H 0.34955 0.69274 0.90787 0.0
H2216 H 0.4215 0.61085 0.8858 0.0
H2217 H 0.40343 0.64574 0.89229 0.0
C2218 C 0.98978 0.58625 0.66051 0.0
C2219 C 0.97868 0.56946 0.6531 0.0
C2220 C 0.00998 0.59533 0.65583 0.0
C2221 C 0.04387 0.60312 0.62498 0.0
H2222 H 0.09165 0.61534 0.65058 0.0
C2223 C 0.13237 0.63516 0.60903 0.0
C2224 C 0.14194 0.65191 0.61726 0.0
C2225 C 0.11251 0.62432 0.61294 0.0
C2226 C 0.0784 0.61223 0.64331 0.0
H2227 H 0.98004 0.54895 0.63501 0.0
H2228 H 0.01544 0.56473 0.62688 0.0
H2229 H 0.05707 0.59773 0.65835 0.0
H2230 H 0.13765 0.67076 0.63589 0.0
H2231 H 0.10316 0.65211 0.64255 0.0
H2232 H 0.06525 0.61781 0.60995 0.0
C2233 C 0.00841 0.57102 0.63624 0.0
C2234 C 0.05858 0.60213 0.64777 0.0
C2235 C 0.98821 0.56189 0.64093 0.0
C2236 C 0.13096 0.65781 0.62933 0.0
C2237 C 0.11119 0.64701 0.63322 0.0
C2238 C 0.06375 0.61326 0.6205 0.0
C2239 C 0.01953 0.58784 0.64364 0.0
C2240 C 0.04098 0.59767 0.6387 0.0
C2241 C 0.10184 0.62998 0.62516 0.0
C2242 C 0.08113 0.61817 0.62966 0.0
H2243 H 0.98281 0.5925 0.66989 0.0
H2244 H 0.01795 0.60849 0.66168 0.0
H2245 H 0.03054 0.6001 0.61776 0.0
H2246 H 0.14036 0.63019 0.59967 0.0
H2247 H 0.10577 0.61118 0.60654 0.0
C2248 C 0.11243 0.61682 0.14431 0.0
C2249 C 0.09543 0.60755 0.13615 0.0
C2250 C 0.12305 0.63691 0.14057 0.0
C2251 C 0.13419 0.67179 0.11044 0.0
H2252 H 0.14773 0.71895 0.13622 0.0
C2253 C 0.1614 0.76016 0.09349 0.0
C2254 C 0.17864 0.77075 0.10078 0.0
C2255 C 0.15191 0.74016 0.09818 0.0
C2256 C 0.1443 0.70581 0.12893 0.0
H2257 H 0.07573 0.6127 0.11792 0.0
H2258 H 0.094 0.64756 0.11157 0.0
H2259 H 0.12989 0.68424 0.14397 0.0
H2260 H 0.19945 0.76875 0.11873 0.0
H2261 H 0.18297 0.73368 0.12687 0.0
H2262 H 0.14847 0.69325 0.0954 0.0
C2263 C 0.09949 0.63912 0.12068 0.0
C2264 C 0.13409 0.68595 0.13337 0.0
C2265 C 0.08893 0.61914 0.12439 0.0
C2266 C 0.18617 0.76097 0.11288 0.0
C2267 C 0.17665 0.74096 0.11759 0.0
C2268 C 0.14437 0.69159 0.10601 0.0
C2269 C 0.11689 0.64809 0.1286 0.0
C2270 C 0.12869 0.66882 0.12414 0.0
C2271 C 0.15943 0.7303 0.11028 0.0
C2272 C 0.14934 0.70894 0.11517 0.0
H2273 H 0.11785 0.60837 0.15343 0.0
H2274 H 0.13647 0.64338 0.14686 0.0
H2275 H 0.1307 0.65873 0.10311 0.0
H2276 H 0.15516 0.76736 0.08416 0.0
H2277 H 0.13845 0.73256 0.0924 0.0
C2278 C 0.12687 0.33776 0.87539 0.0
C2279 C 0.13886 0.34504 0.88683 0.0
C2280 C 0.10687 0.34823 0.87162 0.0
C2281 C 0.06089 0.38459 0.88378 0.0
H2282 H 0.05292 0.39634 0.84552 0.0
C2283 C 0.98667 0.43711 0.86266 0.0
C2284 C 0.97638 0.42902 0.85084 0.0
C2285 C 0.00656 0.42741 0.86741 0.0
C2286 C 0.05476 0.39299 0.85622 0.0
H2287 H 0.13872 0.36868 0.90352 0.0
H2288 H 0.10371 0.38712 0.89684 0.0
H2289 H 0.08718 0.37828 0.8534 0.0
H2290 H 0.9788 0.40439 0.83476 0.0
H2291 H 0.01337 0.38739 0.84308 0.0
H2292 H 0.02834 0.39929 0.88655 0.0
C2293 C 0.10985 0.37319 0.89084 0.0
C2294 C 0.07441 0.38263 0.86074 0.0
C2295 C 0.12995 0.36266 0.89465 0.0
C2296 C 0.98639 0.41109 0.84386 0.0
C2297 C 0.00626 0.40141 0.8486 0.0
C2298 C 0.04118 0.39498 0.87924 0.0
C2299 C 0.09829 0.3663 0.87915 0.0
C2300 C 0.07763 0.37809 0.87455 0.0
C2301 C 0.01661 0.40945 0.86043 0.0
C2302 C 0.03781 0.39911 0.86539 0.0
H2303 H 0.13302 0.32407 0.8692 0.0
H2304 H 0.09813 0.34217 0.86274 0.0
H2305 H 0.06279 0.38117 0.89446 0.0
H2306 H 0.97935 0.45093 0.86826 0.0
H2307 H 0.01422 0.43416 0.87647 0.0
C2308 C 0.31264 0.23591 0.61107 0.0
C2309 C 0.32083 0.22588 0.59919 0.0
C2310 C 0.32177 0.2561 0.61577 0.0
C2311 C 0.35395 0.30563 0.60447 0.0
H2312 H 0.36703 0.3134 0.64258 0.0
C2313 C 0.40753 0.37923 0.62348 0.0
C2314 C 0.40087 0.39037 0.63536 0.0
C2315 C 0.39724 0.35921 0.61954 0.0
C2316 C 0.36321 0.3116 0.63194 0.0
H2317 H 0.34501 0.22911 0.58293 0.0
H2318 H 0.36099 0.26434 0.59114 0.0
H2319 H 0.34997 0.27842 0.63469 0.0
H2320 H 0.37834 0.38879 0.65257 0.0
H2321 H 0.36018 0.35378 0.64559 0.0
H2322 H 0.36714 0.33872 0.60167 0.0
C2323 C 0.34736 0.25671 0.59676 0.0
C2324 C 0.35346 0.29156 0.62741 0.0
C2325 C 0.33828 0.23648 0.59209 0.0
C2326 C 0.38389 0.38069 0.64336 0.0
C2327 C 0.37353 0.36058 0.63939 0.0
C2328 C 0.36364 0.32564 0.60899 0.0
C2329 C 0.33922 0.26675 0.60866 0.0
C2330 C 0.34892 0.28827 0.6136 0.0
C2331 C 0.37994 0.34975 0.62735 0.0
C2332 C 0.36863 0.32879 0.62275 0.0
H2333 H 0.29918 0.22815 0.61677 0.0
H2334 H 0.31497 0.26352 0.62489 0.0
H2335 H 0.35026 0.30382 0.59381 0.0
H2336 H 0.42069 0.386 0.61711 0.0
H2337 H 0.40294 0.35108 0.61037 0.0
C2338 C 0.51211 0.56261 0.3624 0.0
C2339 C 0.52199 0.57047 0.3504 0.0
C2340 C 0.49251 0.57251 0.3674 0.0
C2341 C 0.45922 0.6248 0.36545 0.0
H2342 H 0.41112 0.58796 0.37991 0.0
C2343 C 0.37047 0.65947 0.37455 0.0
C2344 C 0.35863 0.65258 0.38613 0.0
C2345 C 0.39101 0.64967 0.37118 0.0
C2346 C 0.42454 0.5985 0.37609 0.0
H2347 H 0.51893 0.59467 0.33413 0.0
H2348 H 0.48457 0.61179 0.34276 0.0
H2349 H 0.44555 0.57016 0.37183 0.0
H2350 H 0.35941 0.63008 0.40338 0.0
H2351 H 0.39549 0.61297 0.39749 0.0
H2352 H 0.43816 0.65311 0.36958 0.0
C2353 C 0.49215 0.59819 0.34843 0.0
C2354 C 0.44425 0.5883 0.37144 0.0
C2355 C 0.51175 0.58827 0.34343 0.0
C2356 C 0.36804 0.63577 0.39437 0.0
C2357 C 0.38864 0.62588 0.39096 0.0
C2358 C 0.43954 0.63498 0.37009 0.0
C2359 C 0.48236 0.59051 0.36052 0.0
C2360 C 0.46171 0.60132 0.36592 0.0
C2361 C 0.40031 0.6327 0.3793 0.0
C2362 C 0.42185 0.62194 0.37531 0.0
H2363 H 0.51965 0.54893 0.36803 0.0
H2364 H 0.48553 0.56634 0.3768 0.0
H2365 H 0.47253 0.63536 0.36153 0.0
H2366 H 0.36382 0.67237 0.36794 0.0
H2367 H 0.39937 0.6551 0.36203 0.0
loop_
_geom_bond_atom_site_label_1
_geom_bond_atom_site_label_2
_geom_bond_distance
_geom_bond_site_symmetry_2
_ccdc_geom_bond_type
Co0 O1 2.216 . S
Co0 O2 2.091 . S
Co0 O4 2.004 . S
Co0 O10 2.021 . S
Co0 O12 2.137 . S
Co0 O13 2.244 . S
O1 Co0 2.216 . S
O1 C8 1.247 . S
O2 Co0 2.091 . S
O2 C8 1.261 . S
C3 O12 1.247 . S
C3 O13 1.272 . S
O4 Co0 2.004 . S
O4 C9 1.259 . S
Co5 O6 2.061 . S
Co5 O11 2.052 . S
Co5 O13 2.135 . S
O6 Co5 2.061 . S
O6 C9 1.235 . S
C7 O10 1.238 . S
C7 O11 1.241 . S
C8 O1 1.247 . S
C8 O2 1.261 . S
C9 O4 1.259 . S
C9 O6 1.235 . S
O10 Co0 2.021 . S
O10 C7 1.238 . S
O11 Co5 2.052 . S
O11 C7 1.241 . S
O12 Co0 2.137 . S
O12 C3 1.247 . S
O13 Co0 2.244 . S
O13 C3 1.272 . S
O13 Co5 2.135 . S
Co14 O15 2.216 . S
Co14 O16 2.091 . S
Co14 O18 2.004 . S
Co14 O24 2.021 . S
Co14 O26 2.137 . S
Co14 O27 2.244 . S
O15 Co14 2.216 . S
O15 C22 1.247 . S
O16 Co14 2.091 . S
O16 C22 1.261 . S
C17 O26 1.247 . S
C17 O27 1.272 . S
O18 Co14 2.004 . S
O18 C23 1.259 . S
Co19 O20 2.061 . S
Co19 O25 2.052 . S
Co19 O27 2.135 . S
O20 Co19 2.061 . S
O20 C23 1.235 . S
C21 O24 1.238 . S
C21 O25 1.241 . S
C22 O15 1.247 . S
C22 O16 1.261 . S
C23 O18 1.259 . S
C23 O20 1.235 . S
O24 Co14 2.021 . S
O24 C21 1.238 . S
O25 Co19 2.052 . S
O25 C21 1.241 . S
O26 Co14 2.137 . S
O26 C17 1.247 . S
O27 Co14 2.244 . S
O27 C17 1.272 . S
O27 Co19 2.135 . S
Co28 O29 2.216 . S
Co28 O30 2.091 . S
Co28 O32 2.004 . S
Co28 O38 2.021 . S
Co28 O40 2.137 . S
Co28 O41 2.244 . S
O29 Co28 2.216 . S
O29 C36 1.247 . S
O30 Co28 2.091 . S
O30 C36 1.261 . S
C31 O40 1.247 . S
C31 O41 1.272 . S
O32 Co28 2.004 . S
O32 C37 1.259 . S
Co33 O34 2.061 . S
Co33 O39 2.052 . S
Co33 O41 2.135 . S
O34 Co33 2.061 . S
O34 C37 1.235 . S
C35 O38 1.238 . S
C35 O39 1.241 . S
C36 O29 1.247 . S
C36 O30 1.261 . S
C37 O32 1.259 . S
C37 O34 1.235 . S
O38 Co28 2.021 . S
O38 C35 1.238 . S
O39 Co33 2.052 . S
O39 C35 1.241 . S
O40 Co28 2.137 . S
O40 C31 1.247 . S
O41 Co28 2.244 . S
O41 C31 1.272 . S
O41 Co33 2.135 . S
Co42 O43 2.216 . S
Co42 O44 2.091 . S
Co42 O46 2.004 . S
Co42 O52 2.021 . S
Co42 O54 2.137 . S
Co42 O55 2.244 . S
O43 Co42 2.216 . S
O43 C50 1.247 . S
O44 Co42 2.091 . S
O44 C50 1.261 . S
C45 O54 1.247 . S
C45 O55 1.272 . S
O46 Co42 2.004 . S
O46 C51 1.259 . S
Co47 O48 2.061 . S
Co47 O53 2.052 . S
Co47 O55 2.135 . S
O48 Co47 2.061 . S
O48 C51 1.235 . S
C49 O52 1.238 . S
C49 O53 1.241 . S
C50 O43 1.247 . S
C50 O44 1.261 . S
C51 O46 1.259 . S
C51 O48 1.235 . S
O52 Co42 2.021 . S
O52 C49 1.238 . S
O53 Co47 2.052 . S
O53 C49 1.241 . S
O54 Co42 2.137 . S
O54 C45 1.247 . S
O55 Co42 2.244 . S
O55 C45 1.272 . S
O55 Co47 2.135 . S
Co56 O57 2.216 . S
Co56 O58 2.091 . S
Co56 O60 2.004 . S
Co56 O66 2.021 . S
Co56 O68 2.137 . S
Co56 O69 2.244 . S
O57 Co56 2.216 . S
O57 C64 1.247 . S
O58 Co56 2.091 . S
O58 C64 1.261 . S
C59 O68 1.247 . S
C59 O69 1.272 . S
O60 Co56 2.004 . S
O60 C65 1.259 . S
Co61 O62 2.061 . S
Co61 O67 2.052 . S
Co61 O69 2.135 . S
O62 Co61 2.061 . S
O62 C65 1.235 . S
C63 O66 1.238 . S
C63 O67 1.241 . S
C64 O57 1.247 . S
C64 O58 1.261 . S
C65 O60 1.259 . S
C65 O62 1.235 . S
O66 Co56 2.021 . S
O66 C63 1.238 . S
O67 Co61 2.052 . S
O67 C63 1.241 . S
O68 Co56 2.137 . S
O68 C59 1.247 . S
O69 Co56 2.244 . S
O69 C59 1.272 . S
O69 Co61 2.135 . S
Co70 O71 2.216 . S
Co70 O72 2.091 . S
Co70 O74 2.004 . S
Co70 O80 2.021 . S
Co70 O82 2.137 . S
Co70 O83 2.244 . S
O71 Co70 2.216 . S
O71 C78 1.247 . S
O72 Co70 2.091 . S
O72 C78 1.261 . S
C73 O82 1.247 . S
C73 O83 1.272 . S
O74 Co70 2.004 . S
O74 C79 1.259 . S
Co75 O76 2.061 . S
Co75 O81 2.052 . S
Co75 O83 2.135 . S
O76 Co75 2.061 . S
O76 C79 1.235 . S
C77 O80 1.238 . S
C77 O81 1.241 . S
C78 O71 1.247 . S
C78 O72 1.261 . S
C79 O74 1.259 . S
C79 O76 1.235 . S
O80 Co70 2.021 . S
O80 C77 1.238 . S
O81 Co75 2.052 . S
O81 C77 1.241 . S
O82 Co70 2.137 . S
O82 C73 1.247 . S
O83 Co70 2.244 . S
O83 C73 1.272 . S
O83 Co75 2.135 . S
Co84 O85 2.216 . S
Co84 O86 2.091 . S
Co84 O88 2.004 . S
Co84 O94 2.021 . S
Co84 O96 2.137 . S
Co84 O97 2.244 . S
O85 Co84 2.216 . S
O85 C92 1.247 . S
O86 Co84 2.091 . S
O86 C92 1.261 . S
C87 O96 1.247 . S
C87 O97 1.272 . S
O88 Co84 2.004 . S
O88 C93 1.259 . S
Co89 O90 2.061 . S
Co89 O95 2.052 . S
Co89 O97 2.135 . S
O90 Co89 2.061 . S
O90 C93 1.235 . S
C91 O94 1.238 . S
C91 O95 1.241 . S
C92 O85 1.247 . S
C92 O86 1.261 . S
C93 O88 1.259 . S
C93 O90 1.235 . S
O94 Co84 2.021 . S
O94 C91 1.238 . S
O95 Co89 2.052 . S
O95 C91 1.241 . S
O96 Co84 2.137 . S
O96 C87 1.247 . S
O97 Co84 2.244 . S
O97 C87 1.272 . S
O97 Co89 2.135 . S
Co98 O99 2.216 . S
Co98 O100 2.091 . S
Co98 O102 2.004 . S
Co98 O108 2.021 . S
Co98 O110 2.137 . S
Co98 O111 2.244 . S
O99 Co98 2.216 . S
O99 C106 1.247 . S
O100 Co98 2.091 . S
O100 C106 1.261 . S
C101 O110 1.247 . S
C101 O111 1.272 . S
O102 Co98 2.004 . S
O102 C107 1.259 . S
Co103 O104 2.061 . S
Co103 O109 2.052 . S
Co103 O111 2.135 . S
O104 Co103 2.061 . S
O104 C107 1.235 . S
C105 O108 1.238 . S
C105 O109 1.241 . S
C106 O99 1.247 . S
C106 O100 1.261 . S
C107 O102 1.259 . S
C107 O104 1.235 . S
O108 Co98 2.021 . S
O108 C105 1.238 . S
O109 Co103 2.052 . S
O109 C105 1.241 . S
O110 Co98 2.137 . S
O110 C101 1.247 . S
O111 Co98 2.244 . S
O111 C101 1.272 . S
O111 Co103 2.135 . S
Co112 O113 2.216 . S
Co112 O114 2.091 . S
Co112 O116 2.004 . S
Co112 O122 2.021 . S
Co112 O124 2.137 . S
Co112 O125 2.244 . S
O113 Co112 2.216 . S
O113 C120 1.247 . S
O114 Co112 2.091 . S
O114 C120 1.261 . S
C115 O124 1.247 . S
C115 O125 1.272 . S
O116 Co112 2.004 . S
O116 C121 1.259 . S
Co117 O118 2.061 . S
Co117 O123 2.052 . S
Co117 O125 2.135 . S
O118 Co117 2.061 . S
O118 C121 1.235 . S
C119 O122 1.238 . S
C119 O123 1.241 . S
C120 O113 1.247 . S
C120 O114 1.261 . S
C121 O116 1.259 . S
C121 O118 1.235 . S
O122 Co112 2.021 . S
O122 C119 1.238 . S
O123 Co117 2.052 . S
O123 C119 1.241 . S
O124 Co112 2.137 . S
O124 C115 1.247 . S
O125 Co112 2.244 . S
O125 C115 1.272 . S
O125 Co117 2.135 . S
Co126 O127 2.216 . S
Co126 O128 2.091 . S
Co126 O130 2.004 . S
Co126 O136 2.021 . S
Co126 O138 2.137 . S
Co126 O139 2.244 . S
O127 Co126 2.216 . S
O127 C134 1.247 . S
O128 Co126 2.091 . S
O128 C134 1.261 . S
C129 O138 1.247 . S
C129 O139 1.272 . S
O130 Co126 2.004 . S
O130 C135 1.259 . S
Co131 O132 2.061 . S
Co131 O137 2.052 . S
Co131 O139 2.135 . S
O132 Co131 2.061 . S
O132 C135 1.235 . S
C133 O136 1.238 . S
C133 O137 1.241 . S
C134 O127 1.247 . S
C134 O128 1.261 . S
C135 O130 1.259 . S
C135 O132 1.235 . S
O136 Co126 2.021 . S
O136 C133 1.238 . S
O137 Co131 2.052 . S
O137 C133 1.241 . S
O138 Co126 2.137 . S
O138 C129 1.247 . S
O139 Co126 2.244 . S
O139 C129 1.272 . S
O139 Co131 2.135 . S
Co140 O141 2.216 . S
Co140 O142 2.091 . S
Co140 O144 2.004 . S
Co140 O150 2.021 . S
Co140 O152 2.137 . S
Co140 O153 2.244 . S
O141 Co140 2.216 . S
O141 C148 1.247 . S
O142 Co140 2.091 . S
O142 C148 1.261 . S
C143 O152 1.247 . S
C143 O153 1.272 . S
O144 Co140 2.004 . S
O144 C149 1.259 . S
Co145 O146 2.061 . S
Co145 O151 2.052 . S
Co145 O153 2.135 . S
O146 Co145 2.061 . S
O146 C149 1.235 . S
C147 O150 1.238 . S
C147 O151 1.241 . S
C148 O141 1.247 . S
C148 O142 1.261 . S
C149 O144 1.259 . S
C149 O146 1.235 . S
O150 Co140 2.021 . S
O150 C147 1.238 . S
O151 Co145 2.052 . S
O151 C147 1.241 . S
O152 Co140 2.137 . S
O152 C143 1.247 . S
O153 Co140 2.244 . S
O153 C143 1.272 . S
O153 Co145 2.135 . S
Co154 O155 2.216 . S
Co154 O156 2.091 . S
Co154 O158 2.004 . S
Co154 O164 2.021 . S
Co154 O166 2.137 . S
Co154 O167 2.244 . S
O155 Co154 2.216 . S
O155 C162 1.247 . S
O156 Co154 2.091 . S
O156 C162 1.261 . S
C157 O166 1.247 . S
C157 O167 1.272 . S
O158 Co154 2.004 . S
O158 C163 1.259 . S
Co159 O160 2.061 . S
Co159 O165 2.052 . S
Co159 O167 2.135 . S
O160 Co159 2.061 . S
O160 C163 1.235 . S
C161 O164 1.238 . S
C161 O165 1.241 . S
C162 O155 1.247 . S
C162 O156 1.261 . S
C163 O158 1.259 . S
C163 O160 1.235 . S
O164 Co154 2.021 . S
O164 C161 1.238 . S
O165 Co159 2.052 . S
O165 C161 1.241 . S
O166 Co154 2.137 . S
O166 C157 1.247 . S
O167 Co154 2.244 . S
O167 C157 1.272 . S
O167 Co159 2.135 . S
Co168 O169 2.216 . S
Co168 O170 2.091 . S
Co168 O172 2.004 . S
Co168 O178 2.021 . S
Co168 O180 2.137 . S
Co168 O181 2.244 . S
O169 Co168 2.216 . S
O169 C176 1.247 . S
O170 Co168 2.091 . S
O170 C176 1.261 . S
C171 O180 1.247 . S
C171 O181 1.272 . S
O172 Co168 2.004 . S
O172 C177 1.259 . S
Co173 O174 2.061 . S
Co173 O179 2.052 . S
Co173 O181 2.135 . S
O174 Co173 2.061 . S
O174 C177 1.235 . S
C175 O178 1.238 . S
C175 O179 1.241 . S
C176 O169 1.247 . S
C176 O170 1.261 . S
C177 O172 1.259 . S
C177 O174 1.235 . S
O178 Co168 2.021 . S
O178 C175 1.238 . S
O179 Co173 2.052 . S
O179 C175 1.241 . S
O180 Co168 2.137 . S
O180 C171 1.247 . S
O181 Co168 2.244 . S
O181 C171 1.272 . S
O181 Co173 2.135 . S
Co182 O183 2.216 . S
Co182 O184 2.091 . S
Co182 O186 2.004 . S
Co182 O192 2.021 . S
Co182 O194 2.137 . S
Co182 O195 2.244 . S
O183 Co182 2.216 . S
O183 C190 1.247 . S
O184 Co182 2.091 . S
O184 C190 1.261 . S
C185 O194 1.247 . S
C185 O195 1.272 . S
O186 Co182 2.004 . S
O186 C191 1.259 . S
Co187 O188 2.061 . S
Co187 O193 2.052 . S
Co187 O195 2.135 . S
O188 Co187 2.061 . S
O188 C191 1.235 . S
C189 O192 1.238 . S
C189 O193 1.241 . S
C190 O183 1.247 . S
C190 O184 1.261 . S
C191 O186 1.259 . S
C191 O188 1.235 . S
O192 Co182 2.021 . S
O192 C189 1.238 . S
O193 Co187 2.052 . S
O193 C189 1.241 . S
O194 Co182 2.137 . S
O194 C185 1.247 . S
O195 Co182 2.244 . S
O195 C185 1.272 . S
O195 Co187 2.135 . S
Co196 O197 2.216 . S
Co196 O198 2.091 . S
Co196 O200 2.004 . S
Co196 O206 2.021 . S
Co196 O208 2.137 . S
Co196 O209 2.244 . S
O197 Co196 2.216 . S
O197 C204 1.247 . S
O198 Co196 2.091 . S
O198 C204 1.261 . S
C199 O208 1.247 . S
C199 O209 1.272 . S
O200 Co196 2.004 . S
O200 C205 1.259 . S
Co201 O202 2.061 . S
Co201 O207 2.052 . S
Co201 O209 2.135 . S
O202 Co201 2.061 . S
O202 C205 1.235 . S
C203 O206 1.238 . S
C203 O207 1.241 . S
C204 O197 1.247 . S
C204 O198 1.261 . S
C205 O200 1.259 . S
C205 O202 1.235 . S
O206 Co196 2.021 . S
O206 C203 1.238 . S
O207 Co201 2.052 . S
O207 C203 1.241 . S
O208 Co196 2.137 . S
O208 C199 1.247 . S
O209 Co196 2.244 . S
O209 C199 1.272 . S
O209 Co201 2.135 . S
Co210 O211 2.216 . S
Co210 O212 2.091 . S
Co210 O214 2.004 . S
Co210 O220 2.021 . S
Co210 O222 2.137 . S
Co210 O223 2.244 . S
O211 Co210 2.216 . S
O211 C218 1.247 . S
O212 Co210 2.091 . S
O212 C218 1.261 . S
C213 O222 1.247 . S
C213 O223 1.272 . S
O214 Co210 2.004 . S
O214 C219 1.259 . S
Co215 O216 2.061 . S
Co215 O221 2.052 . S
Co215 O223 2.135 . S
O216 Co215 2.061 . S
O216 C219 1.235 . S
C217 O220 1.238 . S
C217 O221 1.241 . S
C218 O211 1.247 . S
C218 O212 1.261 . S
C219 O214 1.259 . S
C219 O216 1.235 . S
O220 Co210 2.021 . S
O220 C217 1.238 . S
O221 Co215 2.052 . S
O221 C217 1.241 . S
O222 Co210 2.137 . S
O222 C213 1.247 . S
O223 Co210 2.244 . S
O223 C213 1.272 . S
O223 Co215 2.135 . S
Co224 O225 2.216 . S
Co224 O226 2.091 . S
Co224 O228 2.004 . S
Co224 O234 2.021 . S
Co224 O236 2.137 . S
Co224 O237 2.244 . S
O225 Co224 2.216 . S
O225 C232 1.247 . S
O226 Co224 2.091 . S
O226 C232 1.261 . S
C227 O236 1.247 . S
C227 O237 1.272 . S
O228 Co224 2.004 . S
O228 C233 1.259 . S
Co229 O230 2.061 . S
Co229 O235 2.052 . S
Co229 O237 2.135 . S
O230 Co229 2.061 . S
O230 C233 1.235 . S
C231 O234 1.238 . S
C231 O235 1.241 . S
C232 O225 1.247 . S
C232 O226 1.261 . S
C233 O228 1.259 . S
C233 O230 1.235 . S
O234 Co224 2.021 . S
O234 C231 1.238 . S
O235 Co229 2.052 . S
O235 C231 1.241 . S
O236 Co224 2.137 . S
O236 C227 1.247 . S
O237 Co224 2.244 . S
O237 C227 1.272 . S
O237 Co229 2.135 . S
Co238 O239 2.216 . S
Co238 O240 2.091 . S
Co238 O242 2.004 . S
Co238 O248 2.021 . S
Co238 O250 2.137 . S
Co238 O251 2.244 . S
O239 Co238 2.216 . S
O239 C246 1.247 . S
O240 Co238 2.091 . S
O240 C246 1.261 . S
C241 O250 1.247 . S
C241 O251 1.272 . S
O242 Co238 2.004 . S
O242 C247 1.259 . S
Co243 O244 2.061 . S
Co243 O249 2.052 . S
Co243 O251 2.135 . S
O244 Co243 2.061 . S
O244 C247 1.235 . S
C245 O248 1.238 . S
C245 O249 1.241 . S
C246 O239 1.247 . S
C246 O240 1.261 . S
C247 O242 1.259 . S
C247 O244 1.235 . S
O248 Co238 2.021 . S
O248 C245 1.238 . S
O249 Co243 2.052 . S
O249 C245 1.241 . S
O250 Co238 2.137 . S
O250 C241 1.247 . S
O251 Co238 2.244 . S
O251 C241 1.272 . S
O251 Co243 2.135 . S
Co252 O253 2.216 . S
Co252 O254 2.091 . S
Co252 O256 2.004 . S
Co252 O262 2.021 . S
Co252 O264 2.137 . S
Co252 O265 2.244 . S
O253 Co252 2.216 . S
O253 C260 1.247 . S
O254 Co252 2.091 . S
O254 C260 1.261 . S
C255 O264 1.247 . S
C255 O265 1.272 . S
O256 Co252 2.004 . S
O256 C261 1.259 . S
Co257 O258 2.061 . S
Co257 O263 2.052 . S
Co257 O265 2.135 . S
O258 Co257 2.061 . S
O258 C261 1.235 . S
C259 O262 1.238 . S
C259 O263 1.241 . S
C260 O253 1.247 . S
C260 O254 1.261 . S
C261 O256 1.259 . S
C261 O258 1.235 . S
O262 Co252 2.021 . S
O262 C259 1.238 . S
O263 Co257 2.052 . S
O263 C259 1.241 . S
O264 Co252 2.137 . S
O264 C255 1.247 . S
O265 Co252 2.244 . S
O265 C255 1.272 . S
O265 Co257 2.135 . S
Co266 O267 2.216 . S
Co266 O268 2.091 . S
Co266 O270 2.004 . S
Co266 O276 2.021 . S
Co266 O278 2.137 . S
Co266 O279 2.244 . S
O267 Co266 2.216 . S
O267 C274 1.247 . S
O268 Co266 2.091 . S
O268 C274 1.261 . S
C269 O278 1.247 . S
C269 O279 1.272 . S
O270 Co266 2.004 . S
O270 C275 1.259 . S
Co271 O272 2.061 . S
Co271 O277 2.052 . S
Co271 O279 2.135 . S
O272 Co271 2.061 . S
O272 C275 1.235 . S
C273 O276 1.238 . S
C273 O277 1.241 . S
C274 O267 1.247 . S
C274 O268 1.261 . S
C275 O270 1.259 . S
C275 O272 1.235 . S
O276 Co266 2.021 . S
O276 C273 1.238 . S
O277 Co271 2.052 . S
O277 C273 1.241 . S
O278 Co266 2.137 . S
O278 C269 1.247 . S
O279 Co266 2.244 . S
O279 C269 1.272 . S
O279 Co271 2.135 . S
Co280 O281 2.216 . S
Co280 O282 2.091 . S
Co280 O284 2.004 . S
Co280 O290 2.021 . S
Co280 O292 2.137 . S
Co280 O293 2.244 . S
O281 Co280 2.216 . S
O281 C288 1.247 . S
O282 Co280 2.091 . S
O282 C288 1.261 . S
C283 O292 1.247 . S
C283 O293 1.272 . S
O284 Co280 2.004 . S
O284 C289 1.259 . S
Co285 O286 2.061 . S
Co285 O291 2.052 . S
Co285 O293 2.135 . S
O286 Co285 2.061 . S
O286 C289 1.235 . S
C287 O290 1.238 . S
C287 O291 1.241 . S
C288 O281 1.247 . S
C288 O282 1.261 . S
C289 O284 1.259 . S
C289 O286 1.235 . S
O290 Co280 2.021 . S
O290 C287 1.238 . S
O291 Co285 2.052 . S
O291 C287 1.241 . S
O292 Co280 2.137 . S
O292 C283 1.247 . S
O293 Co280 2.244 . S
O293 C283 1.272 . S
O293 Co285 2.135 . S
Co294 O295 2.216 . S
Co294 O296 2.091 . S
Co294 O298 2.004 . S
Co294 O304 2.021 . S
Co294 O306 2.137 . S
Co294 O307 2.244 . S
O295 Co294 2.216 . S
O295 C302 1.247 . S
O296 Co294 2.091 . S
O296 C302 1.261 . S
C297 O306 1.247 . S
C297 O307 1.272 . S
O298 Co294 2.004 . S
O298 C303 1.259 . S
Co299 O300 2.061 . S
Co299 O305 2.052 . S
Co299 O307 2.135 . S
O300 Co299 2.061 . S
O300 C303 1.235 . S
C301 O304 1.238 . S
C301 O305 1.241 . S
C302 O295 1.247 . S
C302 O296 1.261 . S
C303 O298 1.259 . S
C303 O300 1.235 . S
O304 Co294 2.021 . S
O304 C301 1.238 . S
O305 Co299 2.052 . S
O305 C301 1.241 . S
O306 Co294 2.137 . S
O306 C297 1.247 . S
O307 Co294 2.244 . S
O307 C297 1.272 . S
O307 Co299 2.135 . S
Co308 O309 2.216 . S
Co308 O310 2.091 . S
Co308 O312 2.004 . S
Co308 O318 2.021 . S
Co308 O320 2.137 . S
Co308 O321 2.244 . S
O309 Co308 2.216 . S
O309 C316 1.247 . S
O310 Co308 2.091 . S
O310 C316 1.261 . S
C311 O320 1.247 . S
C311 O321 1.272 . S
O312 Co308 2.004 . S
O312 C317 1.259 . S
Co313 O314 2.061 . S
Co313 O319 2.052 . S
Co313 O321 2.135 . S
O314 Co313 2.061 . S
O314 C317 1.235 . S
C315 O318 1.238 . S
C315 O319 1.241 . S
C316 O309 1.247 . S
C316 O310 1.261 . S
C317 O312 1.259 . S
C317 O314 1.235 . S
O318 Co308 2.021 . S
O318 C315 1.238 . S
O319 Co313 2.052 . S
O319 C315 1.241 . S
O320 Co308 2.137 . S
O320 C311 1.247 . S
O321 Co308 2.244 . S
O321 C311 1.272 . S
O321 Co313 2.135 . S
Co322 O323 2.216 . S
Co322 O324 2.091 . S
Co322 O326 2.004 . S
Co322 O332 2.021 . S
Co322 O334 2.137 . S
Co322 O335 2.244 . S
O323 Co322 2.216 . S
O323 C330 1.247 . S
O324 Co322 2.091 . S
O324 C330 1.261 . S
C325 O334 1.247 . S
C325 O335 1.272 . S
O326 Co322 2.004 . S
O326 C331 1.259 . S
Co327 O328 2.061 . S
Co327 O333 2.052 . S
Co327 O335 2.135 . S
O328 Co327 2.061 . S
O328 C331 1.235 . S
C329 O332 1.238 . S
C329 O333 1.241 . S
C330 O323 1.247 . S
C330 O324 1.261 . S
C331 O326 1.259 . S
C331 O328 1.235 . S
O332 Co322 2.021 . S
O332 C329 1.238 . S
O333 Co327 2.052 . S
O333 C329 1.241 . S
O334 Co322 2.137 . S
O334 C325 1.247 . S
O335 Co322 2.244 . S
O335 C325 1.272 . S
O335 Co327 2.135 . S
Co336 O337 2.216 . S
Co336 O338 2.091 . S
Co336 O340 2.004 . S
Co336 O346 2.021 . S
Co336 O348 2.137 . S
Co336 O349 2.244 . S
O337 Co336 2.216 . S
O337 C344 1.247 . S
O338 Co336 2.091 . S
O338 C344 1.261 . S
C339 O348 1.247 . S
C339 O349 1.272 . S
O340 Co336 2.004 . S
O340 C345 1.259 . S
Co341 O342 2.061 . S
Co341 O347 2.052 . S
Co341 O349 2.135 . S
O342 Co341 2.061 . S
O342 C345 1.235 . S
C343 O346 1.238 . S
C343 O347 1.241 . S
C344 O337 1.247 . S
C344 O338 1.261 . S
C345 O340 1.259 . S
C345 O342 1.235 . S
O346 Co336 2.021 . S
O346 C343 1.238 . S
O347 Co341 2.052 . S
O347 C343 1.241 . S
O348 Co336 2.137 . S
O348 C339 1.247 . S
O349 Co336 2.244 . S
O349 C339 1.272 . S
O349 Co341 2.135 . S
Co350 O351 2.216 . S
Co350 O352 2.091 . S
Co350 O354 2.004 . S
Co350 O360 2.021 . S
Co350 O362 2.137 . S
Co350 O363 2.244 . S
O351 Co350 2.216 . S
O351 C358 1.247 . S
O352 Co350 2.091 . S
O352 C358 1.261 . S
C353 O362 1.247 . S
C353 O363 1.272 . S
O354 Co350 2.004 . S
O354 C359 1.259 . S
Co355 O356 2.061 . S
Co355 O361 2.052 . S
Co355 O363 2.135 . S
O356 Co355 2.061 . S
O356 C359 1.235 . S
C357 O360 1.238 . S
C357 O361 1.241 . S
C358 O351 1.247 . S
C358 O352 1.261 . S
C359 O354 1.259 . S
C359 O356 1.235 . S
O360 Co350 2.021 . S
O360 C357 1.238 . S
O361 Co355 2.052 . S
O361 C357 1.241 . S
O362 Co350 2.137 . S
O362 C353 1.247 . S
O363 Co350 2.244 . S
O363 C353 1.272 . S
O363 Co355 2.135 . S
Co364 O365 2.216 . S
Co364 O366 2.091 . S
Co364 O368 2.004 . S
Co364 O374 2.021 . S
Co364 O376 2.137 . S
Co364 O377 2.244 . S
O365 Co364 2.216 . S
O365 C372 1.247 . S
O366 Co364 2.091 . S
O366 C372 1.261 . S
C367 O376 1.247 . S
C367 O377 1.272 . S
O368 Co364 2.004 . S
O368 C373 1.259 . S
Co369 O370 2.061 . S
Co369 O375 2.052 . S
Co369 O377 2.135 . S
O370 Co369 2.061 . S
O370 C373 1.235 . S
C371 O374 1.238 . S
C371 O375 1.241 . S
C372 O365 1.247 . S
C372 O366 1.261 . S
C373 O368 1.259 . S
C373 O370 1.235 . S
O374 Co364 2.021 . S
O374 C371 1.238 . S
O375 Co369 2.052 . S
O375 C371 1.241 . S
O376 Co364 2.137 . S
O376 C367 1.247 . S
O377 Co364 2.244 . S
O377 C367 1.272 . S
O377 Co369 2.135 . S
Co378 O379 2.216 . S
Co378 O380 2.091 . S
Co378 O382 2.004 . S
Co378 O388 2.021 . S
Co378 O390 2.137 . S
Co378 O391 2.244 . S
O379 Co378 2.216 . S
O379 C386 1.247 . S
O380 Co378 2.091 . S
O380 C386 1.261 . S
C381 O390 1.247 . S
C381 O391 1.272 . S
O382 Co378 2.004 . S
O382 C387 1.259 . S
Co383 O384 2.061 . S
Co383 O389 2.052 . S
Co383 O391 2.135 . S
O384 Co383 2.061 . S
O384 C387 1.235 . S
C385 O388 1.238 . S
C385 O389 1.241 . S
C386 O379 1.247 . S
C386 O380 1.261 . S
C387 O382 1.259 . S
C387 O384 1.235 . S
O388 Co378 2.021 . S
O388 C385 1.238 . S
O389 Co383 2.052 . S
O389 C385 1.241 . S
O390 Co378 2.137 . S
O390 C381 1.247 . S
O391 Co378 2.244 . S
O391 C381 1.272 . S
O391 Co383 2.135 . S
Co392 O393 2.216 . S
Co392 O394 2.091 . S
Co392 O396 2.004 . S
Co392 O402 2.021 . S
Co392 O404 2.137 . S
Co392 O405 2.244 . S
O393 Co392 2.216 . S
O393 C400 1.247 . S
O394 Co392 2.091 . S
O394 C400 1.261 . S
C395 O404 1.247 . S
C395 O405 1.272 . S
O396 Co392 2.004 . S
O396 C401 1.259 . S
Co397 O398 2.061 . S
Co397 O403 2.052 . S
Co397 O405 2.135 . S
O398 Co397 2.061 . S
O398 C401 1.235 . S
C399 O402 1.238 . S
C399 O403 1.241 . S
C400 O393 1.247 . S
C400 O394 1.261 . S
C401 O396 1.259 . S
C401 O398 1.235 . S
O402 Co392 2.021 . S
O402 C399 1.238 . S
O403 Co397 2.052 . S
O403 C399 1.241 . S
O404 Co392 2.137 . S
O404 C395 1.247 . S
O405 Co392 2.244 . S
O405 C395 1.272 . S
O405 Co397 2.135 . S
Co406 O407 2.216 . S
Co406 O408 2.091 . S
Co406 O410 2.004 . S
Co406 O416 2.021 . S
Co406 O418 2.137 . S
Co406 O419 2.244 . S
O407 Co406 2.216 . S
O407 C414 1.247 . S
O408 Co406 2.091 . S
O408 C414 1.261 . S
C409 O418 1.247 . S
C409 O419 1.272 . S
O410 Co406 2.004 . S
O410 C415 1.259 . S
Co411 O412 2.061 . S
Co411 O417 2.052 . S
Co411 O419 2.135 . S
O412 Co411 2.061 . S
O412 C415 1.235 . S
C413 O416 1.238 . S
C413 O417 1.241 . S
C414 O407 1.247 . S
C414 O408 1.261 . S
C415 O410 1.259 . S
C415 O412 1.235 . S
O416 Co406 2.021 . S
O416 C413 1.238 . S
O417 Co411 2.052 . S
O417 C413 1.241 . S
O418 Co406 2.137 . S
O418 C409 1.247 . S
O419 Co406 2.244 . S
O419 C409 1.272 . S
O419 Co411 2.135 . S
Co420 O421 2.216 . S
Co420 O422 2.091 . S
Co420 O424 2.004 . S
Co420 O430 2.021 . S
Co420 O432 2.137 . S
Co420 O433 2.244 . S
O421 Co420 2.216 . S
O421 C428 1.247 . S
O422 Co420 2.091 . S
O422 C428 1.261 . S
C423 O432 1.247 . S
C423 O433 1.272 . S
O424 Co420 2.004 . S
O424 C429 1.259 . S
Co425 O426 2.061 . S
Co425 O431 2.052 . S
Co425 O433 2.135 . S
O426 Co425 2.061 . S
O426 C429 1.235 . S
C427 O430 1.238 . S
C427 O431 1.241 . S
C428 O421 1.247 . S
C428 O422 1.261 . S
C429 O424 1.259 . S
C429 O426 1.235 . S
O430 Co420 2.021 . S
O430 C427 1.238 . S
O431 Co425 2.052 . S
O431 C427 1.241 . S
O432 Co420 2.137 . S
O432 C423 1.247 . S
O433 Co420 2.244 . S
O433 C423 1.272 . S
O433 Co425 2.135 . S
Co434 O435 2.216 . S
Co434 O436 2.091 . S
Co434 O438 2.004 . S
Co434 O444 2.021 . S
Co434 O446 2.137 . S
Co434 O447 2.244 . S
O435 Co434 2.216 . S
O435 C442 1.247 . S
O436 Co434 2.091 . S
O436 C442 1.261 . S
C437 O446 1.247 . S
C437 O447 1.272 . S
O438 Co434 2.004 . S
O438 C443 1.259 . S
Co439 O440 2.061 . S
Co439 O445 2.052 . S
Co439 O447 2.135 . S
O440 Co439 2.061 . S
O440 C443 1.235 . S
C441 O444 1.238 . S
C441 O445 1.241 . S
C442 O435 1.247 . S
C442 O436 1.261 . S
C443 O438 1.259 . S
C443 O440 1.235 . S
O444 Co434 2.021 . S
O444 C441 1.238 . S
O445 Co439 2.052 . S
O445 C441 1.241 . S
O446 Co434 2.137 . S
O446 C437 1.247 . S
O447 Co434 2.244 . S
O447 C437 1.272 . S
O447 Co439 2.135 . S
C448 C449 1.349 . S
C448 C450 1.327 . S
C448 H473 0.950 . S
C449 C448 1.349 . S
C449 C465 1.349 . S
C450 C448 1.327 . S
C450 C469 1.429 . S
C450 H474 0.950 . S
C451 C468 1.574 . S
C451 C470 1.368 1_545 S
C451 H475 0.949 . S
H452 C456 0.949 . S
C453 C454 1.349 . S
C453 C455 1.327 . S
C453 H476 0.950 . S
C454 C453 1.349 . S
C454 C466 1.349 . S
C455 C453 1.327 . S
C455 C471 1.429 . S
C455 H477 0.950 . S
C456 H452 0.949 . S
C456 C464 1.574 . S
C456 C472 1.368 1_565 S
H457 C465 0.950 . S
H458 C463 0.950 1_545 S
H459 C464 0.949 . S
H460 C466 0.950 . S
H461 C467 0.950 1_565 S
H462 C468 0.949 . S
C463 H458 0.950 1_565 S
C463 C465 1.327 . S
C463 C469 1.429 . S
C464 C456 1.574 . S
C464 H459 0.949 . S
C464 C470 1.368 . S
C465 C449 1.349 . S
C465 H457 0.950 . S
C465 C463 1.327 . S
C466 C454 1.349 . S
C466 H460 0.950 . S
C466 C467 1.327 . S
C467 H461 0.950 1_545 S
C467 C466 1.327 . S
C467 C471 1.429 . S
C468 C451 1.574 . S
C468 H462 0.949 . S
C468 C472 1.368 . S
C469 C450 1.429 . S
C469 C463 1.429 . S
C469 C470 1.523 . S
C470 C451 1.368 1_565 S
C470 C464 1.368 . S
C470 C469 1.523 . S
C471 C455 1.429 . S
C471 C467 1.429 . S
C471 C472 1.523 . S
C472 C456 1.368 1_545 S
C472 C468 1.368 . S
C472 C471 1.523 . S
H473 C448 0.950 . S
H474 C450 0.950 . S
H475 C451 0.949 . S
H476 C453 0.950 . S
H477 C455 0.950 . S
C478 C479 1.349 . S
C478 C480 1.327 . S
C478 H503 0.950 . S
C479 C478 1.349 . S
C479 C495 1.349 . S
C480 C478 1.327 . S
C480 C499 1.429 . S
C480 H504 0.950 . S
C481 C498 1.574 . S
C481 C500 1.368 . S
C481 H505 0.949 . S
H482 C486 0.949 . S
C483 C484 1.349 . S
C483 C485 1.327 . S
C483 H506 0.950 . S
C484 C483 1.349 . S
C484 C496 1.349 . S
C485 C483 1.327 . S
C485 C501 1.429 . S
C485 H507 0.950 . S
C486 H482 0.949 . S
C486 C494 1.574 . S
C486 C502 1.368 . S
H487 C495 0.950 . S
H488 C493 0.950 . S
H489 C494 0.949 . S
H490 C496 0.950 . S
H491 C497 0.950 . S
H492 C498 0.949 . S
C493 H488 0.950 . S
C493 C495 1.327 . S
C493 C499 1.429 . S
C494 C486 1.574 . S
C494 H489 0.949 . S
C494 C500 1.368 . S
C495 C479 1.349 . S
C495 H487 0.950 . S
C495 C493 1.327 . S
C496 C484 1.349 . S
C496 H490 0.950 . S
C496 C497 1.327 . S
C497 H491 0.950 . S
C497 C496 1.327 . S
C497 C501 1.429 . S
C498 C481 1.574 . S
C498 H492 0.949 . S
C498 C502 1.368 . S
C499 C480 1.429 . S
C499 C493 1.429 . S
C499 C500 1.523 . S
C500 C481 1.368 . S
C500 C494 1.368 . S
C500 C499 1.523 . S
C501 C485 1.429 . S
C501 C497 1.429 . S
C501 C502 1.523 . S
C502 C486 1.368 . S
C502 C498 1.368 . S
C502 C501 1.523 . S
H503 C478 0.950 . S
H504 C480 0.950 . S
H505 C481 0.949 . S
H506 C483 0.950 . S
H507 C485 0.950 . S
C508 C509 1.349 . S
C508 C510 1.327 . S
C508 H533 0.950 . S
C509 C508 1.349 . S
C509 C525 1.349 . S
C510 C508 1.327 . S
C510 C529 1.429 . S
C510 H534 0.950 . S
C511 C528 1.574 . S
C511 C530 1.368 1_565 S
C511 H535 0.949 . S
H512 C516 0.949 . S
C513 C514 1.349 . S
C513 C515 1.327 . S
C513 H536 0.950 . S
C514 C513 1.349 . S
C514 C526 1.349 . S
C515 C513 1.327 . S
C515 C531 1.429 . S
C515 H537 0.950 . S
C516 H512 0.949 . S
C516 C524 1.574 . S
C516 C532 1.368 1_545 S
H517 C525 0.930 1_565 S
H518 C523 0.950 1_565 S
H519 C524 0.949 . S
H520 C526 0.930 1_545 S
H521 C527 0.950 1_545 S
H522 C528 0.949 . S
C523 H518 0.950 1_545 S
C523 C525 1.327 . S
C523 C529 1.429 . S
C524 C516 1.574 . S
C524 H519 0.949 . S
C524 C530 1.368 . S
C525 C509 1.349 . S
C525 H517 0.930 1_545 S
C525 C523 1.327 . S
C526 C514 1.349 . S
C526 H520 0.930 1_565 S
C526 C527 1.327 . S
C527 H521 0.950 1_565 S
C527 C526 1.327 . S
C527 C531 1.429 . S
C528 C511 1.574 . S
C528 H522 0.949 . S
C528 C532 1.368 . S
C529 C510 1.429 . S
C529 C523 1.429 . S
C529 C530 1.523 . S
C530 C511 1.368 1_545 S
C530 C524 1.368 . S
C530 C529 1.523 . S
C531 C515 1.429 . S
C531 C527 1.429 . S
C531 C532 1.523 . S
C532 C516 1.368 1_565 S
C532 C528 1.368 . S
C532 C531 1.523 . S
H533 C508 0.950 . S
H534 C510 0.950 . S
H535 C511 0.949 . S
H536 C513 0.950 . S
H537 C515 0.950 . S
C538 C539 1.349 . S
C538 C540 1.327 . S
C538 H563 0.950 . S
C539 C538 1.349 . S
C539 C555 1.349 . S
C540 C538 1.327 . S
C540 C559 1.429 . S
C540 H564 0.950 . S
C541 C558 1.574 1_556 S
C541 C560 1.368 . S
C541 H565 0.949 . S
H542 C546 0.949 . S
C543 C544 1.349 . S
C543 C545 1.327 . S
C543 H566 0.950 . S
C544 C543 1.349 . S
C544 C556 1.349 . S
C545 C543 1.327 . S
C545 C561 1.429 . S
C545 H567 0.950 . S
C546 H542 0.949 . S
C546 C554 1.574 1_554 S
C546 C562 1.368 . S
H547 C555 0.950 . S
H548 C553 0.950 . S
H549 C554 0.949 . S
H550 C556 0.950 . S
H551 C557 0.950 . S
H552 C558 0.949 . S
C553 H548 0.950 . S
C553 C555 1.327 . S
C553 C559 1.429 . S
C554 C546 1.574 1_556 S
C554 H549 0.949 . S
C554 C560 1.368 . S
C555 C539 1.349 . S
C555 H547 0.950 . S
C555 C553 1.327 . S
C556 C544 1.349 . S
C556 H550 0.950 . S
C556 C557 1.327 . S
C557 H551 0.950 . S
C557 C556 1.327 . S
C557 C561 1.429 . S
C558 C541 1.574 1_554 S
C558 H552 0.949 . S
C558 C562 1.368 . S
C559 C540 1.429 . S
C559 C553 1.429 . S
C559 C560 1.523 . S
C560 C541 1.368 . S
C560 C554 1.368 . S
C560 C559 1.523 . S
C561 C545 1.429 . S
C561 C557 1.429 . S
C561 C562 1.523 . S
C562 C546 1.368 . S
C562 C558 1.368 . S
C562 C561 1.523 . S
H563 C538 0.950 . S
H564 C540 0.950 . S
H565 C541 0.949 . S
H566 C543 0.950 . S
H567 C545 0.950 . S
C568 C569 1.349 . S
C568 C570 1.327 . S
C568 H593 0.950 . S
C569 C568 1.349 . S
C569 C585 1.349 . S
C570 C568 1.327 . S
C570 C589 1.429 . S
C570 H594 0.950 . S
C571 C588 1.574 . S
C571 C590 1.368 1_545 S
C571 H595 0.949 . S
H572 C576 0.949 . S
C573 C574 1.349 . S
C573 C575 1.327 . S
C573 H596 0.950 . S
C574 C573 1.349 . S
C574 C586 1.349 . S
C575 C573 1.327 . S
C575 C591 1.429 . S
C575 H597 0.950 . S
C576 H572 0.949 . S
C576 C584 1.574 . S
C576 C592 1.368 1_565 S
H577 C585 0.927 1_545 S
H578 C583 0.950 1_545 S
H579 C584 0.949 . S
H580 C586 0.926 1_565 S
H581 C587 0.950 1_565 S
H582 C588 0.949 . S
C583 H578 0.950 1_565 S
C583 C585 1.327 . S
C583 C589 1.429 . S
C584 C576 1.574 . S
C584 H579 0.949 . S
C584 C590 1.368 . S
C585 C569 1.349 . S
C585 H577 0.927 1_565 S
C585 C583 1.327 . S
C586 C574 1.349 . S
C586 H580 0.926 1_545 S
C586 C587 1.327 . S
C587 H581 0.950 1_545 S
C587 C586 1.327 . S
C587 C591 1.429 . S
C588 C571 1.574 . S
C588 H582 0.949 . S
C588 C592 1.368 . S
C589 C570 1.429 . S
C589 C583 1.429 . S
C589 C590 1.523 . S
C590 C571 1.368 1_565 S
C590 C584 1.368 . S
C590 C589 1.523 . S
C591 C575 1.429 . S
C591 C587 1.429 . S
C591 C592 1.523 . S
C592 C576 1.368 1_545 S
C592 C588 1.368 . S
C592 C591 1.523 . S
H593 C568 0.950 . S
H594 C570 0.950 . S
H595 C571 0.949 . S
H596 C573 0.950 . S
H597 C575 0.950 . S
C598 C599 1.349 . S
C598 C600 1.327 . S
C598 H623 0.950 . S
C599 C598 1.349 . S
C599 C615 1.349 . S
C600 C598 1.327 . S
C600 C619 1.429 . S
C600 H624 0.950 . S
C601 C618 1.574 . S
C601 C620 1.368 . S
C601 H625 0.949 . S
H602 C606 0.949 . S
C603 C604 1.349 . S
C603 C605 1.327 . S
C603 H626 0.950 . S
C604 C603 1.349 . S
C604 C616 1.349 . S
C605 C603 1.327 . S
C605 C621 1.429 . S
C605 H627 0.950 . S
C606 H602 0.949 . S
C606 C614 1.574 . S
C606 C622 1.368 . S
H607 C615 0.950 . S
H608 C613 0.950 . S
H609 C614 0.949 . S
H610 C616 0.950 . S
H611 C617 0.950 . S
H612 C618 0.949 . S
C613 H608 0.950 . S
C613 C615 1.327 . S
C613 C619 1.429 . S
C614 C606 1.574 . S
C614 H609 0.949 . S
C614 C620 1.368 . S
C615 C599 1.349 . S
C615 H607 0.950 . S
C615 C613 1.327 . S
C616 C604 1.349 . S
C616 H610 0.950 . S
C616 C617 1.327 . S
C617 H611 0.950 . S
C617 C616 1.327 . S
C617 C621 1.429 . S
C618 C601 1.574 . S
C618 H612 0.949 . S
C618 C622 1.368 . S
C619 C600 1.429 . S
C619 C613 1.429 . S
C619 C620 1.523 . S
C620 C601 1.368 . S
C620 C614 1.368 . S
C620 C619 1.523 . S
C621 C605 1.429 . S
C621 C617 1.429 . S
C621 C622 1.523 . S
C622 C606 1.368 . S
C622 C618 1.368 . S
C622 C621 1.523 . S
H623 C598 0.950 . S
H624 C600 0.950 . S
H625 C601 0.949 . S
H626 C603 0.950 . S
H627 C605 0.950 . S
C628 C629 1.349 . S
C628 C630 1.327 . S
C628 H653 0.950 . S
C629 C628 1.349 . S
C629 C645 1.349 . S
C630 C628 1.327 . S
C630 C649 1.429 . S
C630 H654 0.950 . S
C631 C648 1.574 . S
C631 C650 1.368 1_565 S
C631 H655 0.949 . S
H632 C636 0.949 . S
C633 C634 1.349 . S
C633 C635 1.327 . S
C633 H656 0.950 . S
C634 C633 1.349 . S
C634 C646 1.349 . S
C635 C633 1.327 . S
C635 C651 1.429 . S
C635 H657 0.950 . S
C636 H632 0.949 . S
C636 C644 1.574 . S
C636 C652 1.368 1_545 S
H637 C645 0.950 1_565 S
H638 C643 0.945 . S
H639 C644 0.949 . S
H640 C646 0.950 1_545 S
H641 C647 0.945 . S
H642 C648 0.949 . S
C643 H638 0.945 . S
C643 C645 1.329 1_565 S
C643 C649 1.431 1_565 S
C644 C636 1.574 . S
C644 H639 0.949 . S
C644 C650 1.368 . S
C645 C629 1.349 . S
C645 H637 0.950 1_545 S
C645 C643 1.329 1_545 S
C646 C634 1.349 . S
C646 H640 0.950 1_565 S
C646 C647 1.329 1_565 S
C647 H641 0.945 . S
C647 C646 1.329 1_545 S
C647 C651 1.431 1_545 S
C648 C631 1.574 . S
C648 H642 0.949 . S
C648 C652 1.368 . S
C649 C630 1.429 . S
C649 C643 1.431 1_545 S
C649 C650 1.523 . S
C650 C631 1.368 1_545 S
C650 C644 1.368 . S
C650 C649 1.523 . S
C651 C635 1.429 . S
C651 C647 1.431 1_565 S
C651 C652 1.523 . S
C652 C636 1.368 1_565 S
C652 C648 1.368 . S
C652 C651 1.523 . S
H653 C628 0.950 . S
H654 C630 0.950 . S
H655 C631 0.949 . S
H656 C633 0.950 . S
H657 C635 0.950 . S
C658 C659 1.349 . S
C658 C660 1.327 . S
C658 H683 0.950 . S
C659 C658 1.349 . S
C659 C675 1.349 . S
C660 C658 1.327 . S
C660 C679 1.429 . S
C660 H684 0.950 . S
C661 C678 1.574 1_556 S
C661 C680 1.368 . S
C661 H685 0.949 . S
H662 C666 0.949 . S
C663 C664 1.349 . S
C663 C665 1.327 . S
C663 H686 0.950 . S
C664 C663 1.349 . S
C664 C676 1.349 . S
C665 C663 1.327 . S
C665 C681 1.429 . S
C665 H687 0.950 . S
C666 H662 0.949 . S
C666 C674 1.574 1_554 S
C666 C682 1.368 . S
H667 C675 0.950 . S
H668 C673 0.950 . S
H669 C674 0.949 . S
H670 C676 0.950 . S
H671 C677 0.950 . S
H672 C678 0.949 . S
C673 H668 0.950 . S
C673 C675 1.327 . S
C673 C679 1.429 . S
C674 C666 1.574 1_556 S
C674 H669 0.949 . S
C674 C680 1.368 . S
C675 C659 1.349 . S
C675 H667 0.950 . S
C675 C673 1.327 . S
C676 C664 1.349 . S
C676 H670 0.950 . S
C676 C677 1.327 . S
C677 H671 0.950 . S
C677 C676 1.327 . S
C677 C681 1.429 . S
C678 C661 1.574 1_554 S
C678 H672 0.949 . S
C678 C682 1.368 . S
C679 C660 1.429 . S
C679 C673 1.429 . S
C679 C680 1.523 . S
C680 C661 1.368 . S
C680 C674 1.368 . S
C680 C679 1.523 . S
C681 C665 1.429 . S
C681 C677 1.429 . S
C681 C682 1.523 . S
C682 C666 1.368 . S
C682 C678 1.368 . S
C682 C681 1.523 . S
H683 C658 0.950 . S
H684 C660 0.950 . S
H685 C661 0.949 . S
H686 C663 0.950 . S
H687 C665 0.950 . S
C688 C689 1.349 . S
C688 C690 1.327 . S
C688 H713 0.950 . S
C689 C688 1.349 . S
C689 C705 1.349 . S
C690 C688 1.327 . S
C690 C709 1.429 . S
C690 H714 0.950 . S
C691 C708 1.574 . S
C691 C710 1.368 . S
C691 H715 0.949 . S
H692 C696 0.949 . S
C693 C694 1.349 . S
C693 C695 1.327 . S
C693 H716 0.950 . S
C694 C693 1.349 . S
C694 C706 1.349 . S
C695 C693 1.327 . S
C695 C711 1.429 . S
C695 H717 0.950 . S
C696 H692 0.949 . S
C696 C704 1.574 . S
C696 C712 1.368 . S
H697 C705 0.950 . S
H698 C703 0.950 . S
H699 C704 0.949 . S
H700 C706 0.950 . S
H701 C707 0.950 . S
H702 C708 0.949 . S
C703 H698 0.950 . S
C703 C705 1.327 . S
C703 C709 1.429 . S
C704 C696 1.574 . S
C704 H699 0.949 . S
C704 C710 1.368 . S
C705 C689 1.349 . S
C705 H697 0.950 . S
C705 C703 1.327 . S
C706 C694 1.349 . S
C706 H700 0.950 . S
C706 C707 1.327 . S
C707 H701 0.950 . S
C707 C706 1.327 . S
C707 C711 1.429 . S
C708 C691 1.574 . S
C708 H702 0.949 . S
C708 C712 1.368 . S
C709 C690 1.429 . S
C709 C703 1.429 . S
C709 C710 1.523 . S
C710 C691 1.368 . S
C710 C704 1.368 . S
C710 C709 1.523 . S
C711 C695 1.429 . S
C711 C707 1.429 . S
C711 C712 1.523 . S
C712 C696 1.368 . S
C712 C708 1.368 . S
C712 C711 1.523 . S
H713 C688 0.950 . S
H714 C690 0.950 . S
H715 C691 0.949 . S
H716 C693 0.950 . S
H717 C695 0.950 . S
C718 C719 1.349 . S
C718 C720 1.327 . S
C718 H743 0.950 . S
C719 C718 1.349 . S
C719 C735 1.349 . S
C720 C718 1.327 . S
C720 C739 1.429 . S
C720 H744 0.950 . S
C721 C738 1.574 1_554 S
C721 C740 1.368 . S
C721 H745 0.949 . S
H722 C726 0.949 . S
C723 C724 1.349 . S
C723 C725 1.327 . S
C723 H746 0.950 . S
C724 C723 1.349 . S
C724 C736 1.349 . S
C725 C723 1.327 . S
C725 C741 1.429 . S
C725 H747 0.950 . S
C726 H722 0.949 . S
C726 C734 1.574 1_556 S
C726 C742 1.368 . S
H727 C735 0.950 . S
H728 C733 0.950 . S
H729 C734 0.949 . S
H730 C736 0.950 . S
H731 C737 0.950 . S
H732 C738 0.949 . S
C733 H728 0.950 . S
C733 C735 1.327 . S
C733 C739 1.429 . S
C734 C726 1.574 1_554 S
C734 H729 0.949 . S
C734 C740 1.368 . S
C735 C719 1.349 . S
C735 H727 0.950 . S
C735 C733 1.327 . S
C736 C724 1.349 . S
C736 H730 0.950 . S
C736 C737 1.327 . S
C737 H731 0.950 . S
C737 C736 1.327 . S
C737 C741 1.429 . S
C738 C721 1.574 1_556 S
C738 H732 0.949 . S
C738 C742 1.368 . S
C739 C720 1.429 . S
C739 C733 1.429 . S
C739 C740 1.523 . S
C740 C721 1.368 . S
C740 C734 1.368 . S
C740 C739 1.523 . S
C741 C725 1.429 . S
C741 C737 1.429 . S
C741 C742 1.523 . S
C742 C726 1.368 . S
C742 C738 1.368 . S
C742 C741 1.523 . S
H743 C718 0.950 . S
H744 C720 0.950 . S
H745 C721 0.949 . S
H746 C723 0.950 . S
H747 C725 0.950 . S
C748 C749 1.349 . S
C748 C750 1.327 . S
C748 H773 0.950 . S
C749 C748 1.349 . S
C749 C765 1.349 . S
C750 C748 1.327 . S
C750 C769 1.429 . S
C750 H774 0.950 . S
C751 C768 1.574 . S
C751 C770 1.368 . S
C751 H775 0.949 . S
H752 C756 0.949 . S
C753 C754 1.349 . S
C753 C755 1.327 . S
C753 H776 0.950 . S
C754 C753 1.349 . S
C754 C766 1.349 . S
C755 C753 1.327 . S
C755 C771 1.429 . S
C755 H777 0.950 . S
C756 H752 0.949 . S
C756 C764 1.574 . S
C756 C772 1.368 . S
H757 C765 0.950 . S
H758 C763 0.950 . S
H759 C764 0.949 . S
H760 C766 0.950 . S
H761 C767 0.950 . S
H762 C768 0.949 . S
C763 H758 0.950 . S
C763 C765 1.327 . S
C763 C769 1.429 . S
C764 C756 1.574 . S
C764 H759 0.949 . S
C764 C770 1.368 . S
C765 C749 1.349 . S
C765 H757 0.950 . S
C765 C763 1.327 . S
C766 C754 1.349 . S
C766 H760 0.950 . S
C766 C767 1.327 . S
C767 H761 0.950 . S
C767 C766 1.327 . S
C767 C771 1.429 . S
C768 C751 1.574 . S
C768 H762 0.949 . S
C768 C772 1.368 . S
C769 C750 1.429 . S
C769 C763 1.429 . S
C769 C770 1.523 . S
C770 C751 1.368 . S
C770 C764 1.368 . S
C770 C769 1.523 . S
C771 C755 1.429 . S
C771 C767 1.429 . S
C771 C772 1.523 . S
C772 C756 1.368 . S
C772 C768 1.368 . S
C772 C771 1.523 . S
H773 C748 0.950 . S
H774 C750 0.950 . S
H775 C751 0.949 . S
H776 C753 0.950 . S
H777 C755 0.950 . S
C778 C779 1.349 . S
C778 C780 1.327 . S
C778 H803 0.950 . S
C779 C778 1.349 . S
C779 C795 1.349 . S
C780 C778 1.327 . S
C780 C799 1.429 . S
C780 H804 0.950 . S
C781 C798 1.574 . S
C781 C800 1.368 . S
C781 H805 0.949 . S
H782 C786 0.949 . S
C783 C784 1.349 . S
C783 C785 1.327 . S
C783 H806 0.950 . S
C784 C783 1.349 . S
C784 C796 1.349 . S
C785 C783 1.327 . S
C785 C801 1.429 . S
C785 H807 0.950 . S
C786 H782 0.949 . S
C786 C794 1.574 . S
C786 C802 1.368 . S
H787 C795 0.950 . S
H788 C793 0.950 . S
H789 C794 0.949 . S
H790 C796 0.950 . S
H791 C797 0.950 . S
H792 C798 0.949 . S
C793 H788 0.950 . S
C793 C795 1.327 . S
C793 C799 1.429 . S
C794 C786 1.574 . S
C794 H789 0.949 . S
C794 C800 1.368 . S
C795 C779 1.349 . S
C795 H787 0.950 . S
C795 C793 1.327 . S
C796 C784 1.349 . S
C796 H790 0.950 . S
C796 C797 1.327 . S
C797 H791 0.950 . S
C797 C796 1.327 . S
C797 C801 1.429 . S
C798 C781 1.574 . S
C798 H792 0.949 . S
C798 C802 1.368 . S
C799 C780 1.429 . S
C799 C793 1.429 . S
C799 C800 1.523 . S
C800 C781 1.368 . S
C800 C794 1.368 . S
C800 C799 1.523 . S
C801 C785 1.429 . S
C801 C797 1.429 . S
C801 C802 1.523 . S
C802 C786 1.368 . S
C802 C798 1.368 . S
C802 C801 1.523 . S
H803 C778 0.950 . S
H804 C780 0.950 . S
H805 C781 0.949 . S
H806 C783 0.950 . S
H807 C785 0.950 . S
C808 C809 1.349 . S
C808 C810 1.327 . S
C808 H833 0.950 . S
C809 C808 1.349 . S
C809 C825 1.349 . S
C810 C808 1.327 . S
C810 C829 1.429 . S
C810 H834 0.950 . S
C811 C828 1.574 . S
C811 C830 1.368 . S
C811 H835 0.949 . S
H812 C816 0.949 . S
C813 C814 1.349 . S
C813 C815 1.327 . S
C813 H836 0.950 . S
C814 C813 1.349 . S
C814 C826 1.349 . S
C815 C813 1.327 . S
C815 C831 1.429 . S
C815 H837 0.950 . S
C816 H812 0.949 . S
C816 C824 1.574 . S
C816 C832 1.368 . S
H817 C825 0.950 . S
H818 C823 0.950 . S
H819 C824 0.949 . S
H820 C826 0.950 . S
H821 C827 0.950 . S
H822 C828 0.949 . S
C823 H818 0.950 . S
C823 C825 1.327 . S
C823 C829 1.429 . S
C824 C816 1.574 . S
C824 H819 0.949 . S
C824 C830 1.368 . S
C825 C809 1.349 . S
C825 H817 0.950 . S
C825 C823 1.327 . S
C826 C814 1.349 . S
C826 H820 0.950 . S
C826 C827 1.327 . S
C827 H821 0.950 . S
C827 C826 1.327 . S
C827 C831 1.429 . S
C828 C811 1.574 . S
C828 H822 0.949 . S
C828 C832 1.368 . S
C829 C810 1.429 . S
C829 C823 1.429 . S
C829 C830 1.523 . S
C830 C811 1.368 . S
C830 C824 1.368 . S
C830 C829 1.523 . S
C831 C815 1.429 . S
C831 C827 1.429 . S
C831 C832 1.523 . S
C832 C816 1.368 . S
C832 C828 1.368 . S
C832 C831 1.523 . S
H833 C808 0.950 . S
H834 C810 0.950 . S
H835 C811 0.949 . S
H836 C813 0.950 . S
H837 C815 0.950 . S
C838 C839 1.349 . S
C838 C840 1.327 . S
C838 H863 0.950 . S
C839 C838 1.349 . S
C839 C855 1.349 . S
C840 C838 1.327 . S
C840 C859 1.429 . S
C840 H864 0.950 . S
C841 C858 1.574 1_554 S
C841 C860 1.368 . S
C841 H865 0.949 . S
H842 C846 0.949 . S
C843 C844 1.349 . S
C843 C845 1.327 . S
C843 H866 0.950 . S
C844 C843 1.349 . S
C844 C856 1.349 . S
C845 C843 1.327 . S
C845 C861 1.429 . S
C845 H867 0.950 . S
C846 H842 0.949 . S
C846 C854 1.574 1_556 S
C846 C862 1.368 . S
H847 C855 0.950 . S
H848 C853 0.950 . S
H849 C854 0.949 . S
H850 C856 0.950 . S
H851 C857 0.950 . S
H852 C858 0.949 . S
C853 H848 0.950 . S
C853 C855 1.327 . S
C853 C859 1.429 . S
C854 C846 1.574 1_554 S
C854 H849 0.949 . S
C854 C860 1.368 . S
C855 C839 1.349 . S
C855 H847 0.950 . S
C855 C853 1.327 . S
C856 C844 1.349 . S
C856 H850 0.950 . S
C856 C857 1.327 . S
C857 H851 0.950 . S
C857 C856 1.327 . S
C857 C861 1.429 . S
C858 C841 1.574 1_556 S
C858 H852 0.949 . S
C858 C862 1.368 . S
C859 C840 1.429 . S
C859 C853 1.429 . S
C859 C860 1.523 . S
C860 C841 1.368 . S
C860 C854 1.368 . S
C860 C859 1.523 . S
C861 C845 1.429 . S
C861 C857 1.429 . S
C861 C862 1.523 . S
C862 C846 1.368 . S
C862 C858 1.368 . S
C862 C861 1.523 . S
H863 C838 0.950 . S
H864 C840 0.950 . S
H865 C841 0.949 . S
H866 C843 0.950 . S
H867 C845 0.950 . S
C868 C869 1.349 . S
C868 C870 1.327 . S
C868 H893 0.950 . S
C869 C868 1.349 . S
C869 C885 1.349 . S
C870 C868 1.327 . S
C870 C889 1.429 . S
C870 H894 0.950 . S
C871 C888 1.574 . S
C871 C890 1.368 . S
C871 H895 0.949 . S
H872 C876 0.949 . S
C873 C874 1.349 . S
C873 C875 1.327 . S
C873 H896 0.950 . S
C874 C873 1.349 . S
C874 C886 1.349 . S
C875 C873 1.327 . S
C875 C891 1.429 . S
C875 H897 0.950 . S
C876 H872 0.949 . S
C876 C884 1.574 . S
C876 C892 1.368 . S
H877 C885 0.950 . S
H878 C883 0.950 . S
H879 C884 0.949 . S
H880 C886 0.950 . S
H881 C887 0.950 . S
H882 C888 0.949 . S
C883 H878 0.950 . S
C883 C885 1.327 . S
C883 C889 1.429 . S
C884 C876 1.574 . S
C884 H879 0.949 . S
C884 C890 1.368 . S
C885 C869 1.349 . S
C885 H877 0.950 . S
C885 C883 1.327 . S
C886 C874 1.349 . S
C886 H880 0.950 . S
C886 C887 1.327 . S
C887 H881 0.950 . S
C887 C886 1.327 . S
C887 C891 1.429 . S
C888 C871 1.574 . S
C888 H882 0.949 . S
C888 C892 1.368 . S
C889 C870 1.429 . S
C889 C883 1.429 . S
C889 C890 1.523 . S
C890 C871 1.368 . S
C890 C884 1.368 . S
C890 C889 1.523 . S
C891 C875 1.429 . S
C891 C887 1.429 . S
C891 C892 1.523 . S
C892 C876 1.368 . S
C892 C888 1.368 . S
C892 C891 1.523 . S
H893 C868 0.950 . S
H894 C870 0.950 . S
H895 C871 0.949 . S
H896 C873 0.950 . S
H897 C875 0.950 . S
C898 C899 1.349 . S
C898 C900 1.327 . S
C898 H923 0.950 . S
C899 C898 1.349 . S
C899 C915 1.349 . S
C900 C898 1.327 . S
C900 C919 1.429 . S
C900 H924 0.950 . S
C901 C918 1.574 . S
C901 C920 1.368 . S
C901 H925 0.949 . S
H902 C906 0.949 . S
C903 C904 1.349 . S
C903 C905 1.327 . S
C903 H926 0.950 . S
C904 C903 1.349 . S
C904 C916 1.349 . S
C905 C903 1.327 . S
C905 C921 1.429 . S
C905 H927 0.950 . S
C906 H902 0.949 . S
C906 C914 1.574 . S
C906 C922 1.368 . S
H907 C915 0.950 . S
H908 C913 0.950 . S
H909 C914 0.949 . S
H910 C916 0.950 . S
H911 C917 0.950 . S
H912 C918 0.949 . S
C913 H908 0.950 . S
C913 C915 1.327 . S
C913 C919 1.429 . S
C914 C906 1.574 . S
C914 H909 0.949 . S
C914 C920 1.368 . S
C915 C899 1.349 . S
C915 H907 0.950 . S
C915 C913 1.327 . S
C916 C904 1.349 . S
C916 H910 0.950 . S
C916 C917 1.327 . S
C917 H911 0.950 . S
C917 C916 1.327 . S
C917 C921 1.429 . S
C918 C901 1.574 . S
C918 H912 0.949 . S
C918 C922 1.368 . S
C919 C900 1.429 . S
C919 C913 1.429 . S
C919 C920 1.523 . S
C920 C901 1.368 . S
C920 C914 1.368 . S
C920 C919 1.523 . S
C921 C905 1.429 . S
C921 C917 1.429 . S
C921 C922 1.523 . S
C922 C906 1.368 . S
C922 C918 1.368 . S
C922 C921 1.523 . S
H923 C898 0.950 . S
H924 C900 0.950 . S
H925 C901 0.949 . S
H926 C903 0.950 . S
H927 C905 0.950 . S
C928 C929 1.349 . S
C928 C930 1.327 1_545 S
C928 H953 0.950 . S
C929 C928 1.349 . S
C929 C945 1.349 1_545 S
C930 C928 1.327 1_565 S
C930 C949 1.429 . S
C930 H954 0.950 . S
C931 C948 1.574 . S
C931 C950 1.368 . S
C931 H955 0.949 . S
H932 C936 0.949 . S
C933 C934 1.349 . S
C933 C935 1.327 . S
C933 H956 0.950 . S
C934 C933 1.349 . S
C934 C946 1.349 . S
C935 C933 1.327 . S
C935 C951 1.429 . S
C935 H957 0.950 . S
C936 H932 0.949 . S
C936 C944 1.574 . S
C936 C952 1.368 . S
H937 C945 0.950 . S
H938 C943 0.950 . S
H939 C944 0.949 . S
H940 C946 0.950 . S
H941 C947 0.950 . S
H942 C948 0.949 . S
C943 H938 0.950 . S
C943 C945 1.327 . S
C943 C949 1.429 . S
C944 C936 1.574 . S
C944 H939 0.949 . S
C944 C950 1.368 . S
C945 C929 1.349 1_565 S
C945 H937 0.950 . S
C945 C943 1.327 . S
C946 C934 1.349 . S
C946 H940 0.950 . S
C946 C947 1.327 . S
C947 H941 0.950 . S
C947 C946 1.327 . S
C947 C951 1.429 . S
C948 C931 1.574 . S
C948 H942 0.949 . S
C948 C952 1.368 . S
C949 C930 1.429 . S
C949 C943 1.429 . S
C949 C950 1.523 . S
C950 C931 1.368 . S
C950 C944 1.368 . S
C950 C949 1.523 . S
C951 C935 1.429 . S
C951 C947 1.429 . S
C951 C952 1.523 . S
C952 C936 1.368 . S
C952 C948 1.368 . S
C952 C951 1.523 . S
H953 C928 0.950 . S
H954 C930 0.950 . S
H955 C931 0.949 . S
H956 C933 0.950 . S
H957 C935 0.950 . S
C958 C959 1.349 . S
C958 C960 1.327 . S
C958 H983 0.950 . S
C959 C958 1.349 . S
C959 C975 1.349 . S
C960 C958 1.327 . S
C960 C979 1.429 . S
C960 H984 0.950 . S
C961 C978 1.574 . S
C961 C980 1.368 . S
C961 H985 0.949 . S
H962 C966 0.949 . S
C963 C964 1.349 . S
C963 C965 1.327 1_565 S
C963 H986 0.950 . S
C964 C963 1.349 . S
C964 C976 1.349 1_565 S
C965 C963 1.327 1_545 S
C965 C981 1.429 . S
C965 H987 0.951 . S
C966 H962 0.949 . S
C966 C974 1.574 . S
C966 C982 1.368 . S
H967 C975 0.950 . S
H968 C973 0.950 . S
H969 C974 0.949 . S
H970 C976 0.950 . S
H971 C977 0.950 . S
H972 C978 0.949 . S
C973 H968 0.950 . S
C973 C975 1.327 . S
C973 C979 1.429 . S
C974 C966 1.574 . S
C974 H969 0.949 . S
C974 C980 1.368 . S
C975 C959 1.349 . S
C975 H967 0.950 . S
C975 C973 1.327 . S
C976 C964 1.349 1_545 S
C976 H970 0.950 . S
C976 C977 1.327 . S
C977 H971 0.950 . S
C977 C976 1.327 . S
C977 C981 1.429 . S
C978 C961 1.574 . S
C978 H972 0.949 . S
C978 C982 1.368 . S
C979 C960 1.429 . S
C979 C973 1.429 . S
C979 C980 1.523 . S
C980 C961 1.368 . S
C980 C974 1.368 . S
C980 C979 1.523 . S
C981 C965 1.429 . S
C981 C977 1.429 . S
C981 C982 1.523 . S
C982 C966 1.368 . S
C982 C978 1.368 . S
C982 C981 1.523 . S
H983 C958 0.950 . S
H984 C960 0.950 . S
H985 C961 0.949 . S
H986 C963 0.950 . S
H987 C965 0.951 . S
C988 C989 1.349 1_545 S
C988 C990 1.327 . S
C988 H1013 0.950 . S
C989 C988 1.349 1_565 S
C989 C1005 1.349 . S
C990 C988 1.327 . S
C990 C1009 1.429 . S
C990 H1014 0.950 . S
C991 C1008 1.574 . S
C991 C1010 1.368 . S
C991 H1015 0.949 . S
H992 C996 0.949 . S
C993 C994 1.349 . S
C993 C995 1.327 . S
C993 H1016 0.950 . S
C994 C993 1.349 . S
C994 C1006 1.349 . S
C995 C993 1.327 . S
C995 C1011 1.429 . S
C995 H1017 0.950 . S
C996 H992 0.949 . S
C996 C1004 1.574 . S
C996 C1012 1.368 . S
H997 C1005 0.950 . S
H998 C1003 0.950 . S
H999 C1004 0.949 . S
H1000 C1006 0.950 . S
H1001 C1007 0.950 . S
H1002 C1008 0.949 . S
C1003 H998 0.950 . S
C1003 C1005 1.327 . S
C1003 C1009 1.429 1_565 S
C1004 C996 1.574 . S
C1004 H999 0.949 . S
C1004 C1010 1.368 . S
C1005 C989 1.349 . S
C1005 H997 0.950 . S
C1005 C1003 1.327 . S
C1006 C994 1.349 . S
C1006 H1000 0.950 . S
C1006 C1007 1.327 . S
C1007 H1001 0.950 . S
C1007 C1006 1.327 . S
C1007 C1011 1.429 . S
C1008 C991 1.574 . S
C1008 H1002 0.949 . S
C1008 C1012 1.368 . S
C1009 C990 1.429 . S
C1009 C1003 1.429 1_545 S
C1009 C1010 1.523 . S
C1010 C991 1.368 . S
C1010 C1004 1.368 . S
C1010 C1009 1.523 . S
C1011 C995 1.429 . S
C1011 C1007 1.429 . S
C1011 C1012 1.523 . S
C1012 C996 1.368 . S
C1012 C1008 1.368 . S
C1012 C1011 1.523 . S
H1013 C988 0.950 . S
H1014 C990 0.950 . S
H1015 C991 0.949 . S
H1016 C993 0.950 . S
H1017 C995 0.950 . S
C1018 C1019 1.349 . S
C1018 C1020 1.327 1_545 S
C1018 H1043 0.950 . S
C1019 C1018 1.349 . S
C1019 C1035 1.349 1_545 S
C1020 C1018 1.327 1_565 S
C1020 C1039 1.429 . S
C1020 H1044 0.950 . S
C1021 C1038 1.574 . S
C1021 C1040 1.368 . S
C1021 H1045 0.949 . S
H1022 C1026 0.949 . S
C1023 C1024 1.349 . S
C1023 C1025 1.327 . S
C1023 H1046 0.950 . S
C1024 C1023 1.349 . S
C1024 C1036 1.349 . S
C1025 C1023 1.327 . S
C1025 C1041 1.429 . S
C1025 H1047 0.950 . S
C1026 H1022 0.949 . S
C1026 C1034 1.574 . S
C1026 C1042 1.368 . S
H1027 C1035 0.950 . S
H1028 C1033 0.950 . S
H1029 C1034 0.949 . S
H1030 C1036 0.950 . S
H1031 C1037 0.950 . S
H1032 C1038 0.949 . S
C1033 H1028 0.950 . S
C1033 C1035 1.327 . S
C1033 C1039 1.429 . S
C1034 C1026 1.574 . S
C1034 H1029 0.949 . S
C1034 C1040 1.368 . S
C1035 C1019 1.349 1_565 S
C1035 H1027 0.950 . S
C1035 C1033 1.327 . S
C1036 C1024 1.349 . S
C1036 H1030 0.950 . S
C1036 C1037 1.327 . S
C1037 H1031 0.950 . S
C1037 C1036 1.327 . S
C1037 C1041 1.429 . S
C1038 C1021 1.574 . S
C1038 H1032 0.949 . S
C1038 C1042 1.368 . S
C1039 C1020 1.429 . S
C1039 C1033 1.429 . S
C1039 C1040 1.523 . S
C1040 C1021 1.368 . S
C1040 C1034 1.368 . S
C1040 C1039 1.523 . S
C1041 C1025 1.429 . S
C1041 C1037 1.429 . S
C1041 C1042 1.523 . S
C1042 C1026 1.368 . S
C1042 C1038 1.368 . S
C1042 C1041 1.523 . S
H1043 C1018 0.950 . S
H1044 C1020 0.950 . S
H1045 C1021 0.949 . S
H1046 C1023 0.950 . S
H1047 C1025 0.950 . S
C1048 C1049 1.349 . S
C1048 C1050 1.327 . S
C1048 H1073 0.950 . S
C1049 C1048 1.349 . S
C1049 C1065 1.349 . S
C1050 C1048 1.327 . S
C1050 C1069 1.429 . S
C1050 H1074 0.950 . S
C1051 C1068 1.574 . S
C1051 C1070 1.368 . S
C1051 H1075 0.949 . S
H1052 C1056 0.949 . S
C1053 C1054 1.349 . S
C1053 C1055 1.327 1_565 S
C1053 H1076 0.950 . S
C1054 C1053 1.349 . S
C1054 C1066 1.334 1_565 S
C1055 C1053 1.327 1_545 S
C1055 C1071 1.429 . S
C1055 H1077 0.950 . S
C1056 H1052 0.949 . S
C1056 C1064 1.574 . S
C1056 C1072 1.368 . S
H1057 C1065 0.950 . S
H1058 C1063 0.950 . S
H1059 C1064 0.949 . S
H1060 C1066 0.948 1_565 S
H1061 C1067 0.950 . S
H1062 C1068 0.949 . S
C1063 H1058 0.950 . S
C1063 C1065 1.327 . S
C1063 C1069 1.429 . S
C1064 C1056 1.574 . S
C1064 H1059 0.949 . S
C1064 C1070 1.368 . S
C1065 C1049 1.349 . S
C1065 H1057 0.950 . S
C1065 C1063 1.327 . S
C1066 C1054 1.334 1_545 S
C1066 H1060 0.948 1_545 S
C1066 C1067 1.345 . S
C1067 H1061 0.950 . S
C1067 C1066 1.345 . S
C1067 C1071 1.429 . S
C1068 C1051 1.574 . S
C1068 H1062 0.949 . S
C1068 C1072 1.368 . S
C1069 C1050 1.429 . S
C1069 C1063 1.429 . S
C1069 C1070 1.523 . S
C1070 C1051 1.368 . S
C1070 C1064 1.368 . S
C1070 C1069 1.523 . S
C1071 C1055 1.429 . S
C1071 C1067 1.429 . S
C1071 C1072 1.523 . S
C1072 C1056 1.368 . S
C1072 C1068 1.368 . S
C1072 C1071 1.523 . S
H1073 C1048 0.950 . S
H1074 C1050 0.950 . S
H1075 C1051 0.949 . S
H1076 C1053 0.950 . S
H1077 C1055 0.950 . S
C1078 C1079 1.349 . S
C1078 C1080 1.327 . S
C1078 H1103 0.950 . S
C1079 C1078 1.349 . S
C1079 C1095 1.349 1_545 S
C1080 C1078 1.327 . S
C1080 C1099 1.429 1_545 S
C1080 H1104 0.950 . S
C1081 C1098 1.574 . S
C1081 C1100 1.368 . S
C1081 H1105 0.949 . S
H1082 C1086 0.949 . S
C1083 C1084 1.349 . S
C1083 C1085 1.327 . S
C1083 H1106 0.950 . S
C1084 C1083 1.349 . S
C1084 C1096 1.349 . S
C1085 C1083 1.327 . S
C1085 C1101 1.429 . S
C1085 H1107 0.950 . S
C1086 H1082 0.949 . S
C1086 C1094 1.574 . S
C1086 C1102 1.368 . S
H1087 C1095 0.950 . S
H1088 C1093 0.950 . S
H1089 C1094 0.949 . S
H1090 C1096 0.950 . S
H1091 C1097 0.950 . S
H1092 C1098 0.949 . S
C1093 H1088 0.950 . S
C1093 C1095 1.327 . S
C1093 C1099 1.429 . S
C1094 C1086 1.574 . S
C1094 H1089 0.949 . S
C1094 C1100 1.368 . S
C1095 C1079 1.349 1_565 S
C1095 H1087 0.950 . S
C1095 C1093 1.327 . S
C1096 C1084 1.349 . S
C1096 H1090 0.950 . S
C1096 C1097 1.327 . S
C1097 H1091 0.950 . S
C1097 C1096 1.327 . S
C1097 C1101 1.429 . S
C1098 C1081 1.574 . S
C1098 H1092 0.949 . S
C1098 C1102 1.368 . S
C1099 C1080 1.429 1_565 S
C1099 C1093 1.429 . S
C1099 C1100 1.523 . S
C1100 C1081 1.368 . S
C1100 C1094 1.368 . S
C1100 C1099 1.523 . S
C1101 C1085 1.429 . S
C1101 C1097 1.429 . S
C1101 C1102 1.523 . S
C1102 C1086 1.368 . S
C1102 C1098 1.368 . S
C1102 C1101 1.523 . S
H1103 C1078 0.950 . S
H1104 C1080 0.950 . S
H1105 C1081 0.949 . S
H1106 C1083 0.950 . S
H1107 C1085 0.950 . S
C1108 C1109 1.349 . S
C1108 C1110 1.327 . S
C1108 H1133 0.950 . S
C1109 C1108 1.349 . S
C1109 C1125 1.349 . S
C1110 C1108 1.327 . S
C1110 C1129 1.429 . S
C1110 H1134 0.950 . S
C1111 C1128 1.574 . S
C1111 C1130 1.368 . S
C1111 H1135 0.949 . S
H1112 C1116 0.949 . S
C1113 C1114 1.349 . S
C1113 C1115 1.327 1_545 S
C1113 H1136 0.950 . S
C1114 C1113 1.349 . S
C1114 C1126 1.349 1_545 S
C1115 C1113 1.327 1_565 S
C1115 C1131 1.429 . S
C1115 H1137 0.951 . S
C1116 H1112 0.949 . S
C1116 C1124 1.574 . S
C1116 C1132 1.368 . S
H1117 C1125 0.950 . S
H1118 C1123 0.950 . S
H1119 C1124 0.949 . S
H1120 C1126 0.950 . S
H1121 C1127 0.950 . S
H1122 C1128 0.949 . S
C1123 H1118 0.950 . S
C1123 C1125 1.327 . S
C1123 C1129 1.429 . S
C1124 C1116 1.574 . S
C1124 H1119 0.949 . S
C1124 C1130 1.368 . S
C1125 C1109 1.349 . S
C1125 H1117 0.950 . S
C1125 C1123 1.327 . S
C1126 C1114 1.349 1_565 S
C1126 H1120 0.950 . S
C1126 C1127 1.327 . S
C1127 H1121 0.950 . S
C1127 C1126 1.327 . S
C1127 C1131 1.429 . S
C1128 C1111 1.574 . S
C1128 H1122 0.949 . S
C1128 C1132 1.368 . S
C1129 C1110 1.429 . S
C1129 C1123 1.429 . S
C1129 C1130 1.523 . S
C1130 C1111 1.368 . S
C1130 C1124 1.368 . S
C1130 C1129 1.523 . S
C1131 C1115 1.429 . S
C1131 C1127 1.429 . S
C1131 C1132 1.523 . S
C1132 C1116 1.368 . S
C1132 C1128 1.368 . S
C1132 C1131 1.523 . S
H1133 C1108 0.950 . S
H1134 C1110 0.950 . S
H1135 C1111 0.949 . S
H1136 C1113 0.950 . S
H1137 C1115 0.951 . S
C1138 C1139 1.349 . S
C1138 C1140 1.327 . S
C1138 H1163 0.950 . S
C1139 C1138 1.349 . S
C1139 C1155 1.349 . S
C1140 C1138 1.327 . S
C1140 C1159 1.429 . S
C1140 H1164 0.950 . S
C1141 C1158 1.574 . S
C1141 C1160 1.368 . S
C1141 H1165 0.949 . S
H1142 C1146 0.949 . S
C1143 C1144 1.354 . S
C1143 C1145 1.321 1_565 S
C1143 H1166 0.951 . S
C1144 C1143 1.354 . S
C1144 C1156 1.349 . S
C1145 C1143 1.321 1_545 S
C1145 C1161 1.429 . S
C1145 H1167 0.950 . S
C1146 H1142 0.949 . S
C1146 C1154 1.574 . S
C1146 C1162 1.368 . S
H1147 C1155 0.950 . S
H1148 C1153 0.950 . S
H1149 C1154 0.949 . S
H1150 C1156 0.950 . S
H1151 C1157 0.950 . S
H1152 C1158 0.949 . S
C1153 H1148 0.950 . S
C1153 C1155 1.327 . S
C1153 C1159 1.429 . S
C1154 C1146 1.574 . S
C1154 H1149 0.949 . S
C1154 C1160 1.368 . S
C1155 C1139 1.349 . S
C1155 H1147 0.950 . S
C1155 C1153 1.327 . S
C1156 C1144 1.349 . S
C1156 H1150 0.950 . S
C1156 C1157 1.327 1_565 S
C1157 H1151 0.950 . S
C1157 C1156 1.327 1_545 S
C1157 C1161 1.429 . S
C1158 C1141 1.574 . S
C1158 H1152 0.949 . S
C1158 C1162 1.368 . S
C1159 C1140 1.429 . S
C1159 C1153 1.429 . S
C1159 C1160 1.523 . S
C1160 C1141 1.368 . S
C1160 C1154 1.368 . S
C1160 C1159 1.523 . S
C1161 C1145 1.429 . S
C1161 C1157 1.429 . S
C1161 C1162 1.523 . S
C1162 C1146 1.368 . S
C1162 C1158 1.368 . S
C1162 C1161 1.523 . S
H1163 C1138 0.950 . S
H1164 C1140 0.950 . S
H1165 C1141 0.949 . S
H1166 C1143 0.951 . S
H1167 C1145 0.950 . S
C1168 C1169 1.349 . S
C1168 C1170 1.327 . S
C1168 H1193 0.950 . S
C1169 C1168 1.349 . S
C1169 C1185 1.349 . S
C1170 C1168 1.327 . S
C1170 C1189 1.429 . S
C1170 H1194 0.950 . S
C1171 C1188 1.574 . S
C1171 C1190 1.368 . S
C1171 H1195 0.949 . S
H1172 C1176 0.949 . S
C1173 C1174 1.349 . S
C1173 C1175 1.327 . S
C1173 H1196 0.950 . S
C1174 C1173 1.349 . S
C1174 C1186 1.349 . S
C1175 C1173 1.327 . S
C1175 C1191 1.429 . S
C1175 H1197 0.950 . S
C1176 H1172 0.949 . S
C1176 C1184 1.574 . S
C1176 C1192 1.368 . S
H1177 C1185 0.950 . S
H1178 C1183 0.950 . S
H1179 C1184 0.949 . S
H1180 C1186 0.950 . S
H1181 C1187 0.950 . S
H1182 C1188 0.949 . S
C1183 H1178 0.950 . S
C1183 C1185 1.327 . S
C1183 C1189 1.429 . S
C1184 C1176 1.574 . S
C1184 H1179 0.949 . S
C1184 C1190 1.368 . S
C1185 C1169 1.349 . S
C1185 H1177 0.950 . S
C1185 C1183 1.327 . S
C1186 C1174 1.349 . S
C1186 H1180 0.950 . S
C1186 C1187 1.327 . S
C1187 H1181 0.950 . S
C1187 C1186 1.327 . S
C1187 C1191 1.429 . S
C1188 C1171 1.574 . S
C1188 H1182 0.949 . S
C1188 C1192 1.368 . S
C1189 C1170 1.429 . S
C1189 C1183 1.429 . S
C1189 C1190 1.523 . S
C1190 C1171 1.368 . S
C1190 C1184 1.368 . S
C1190 C1189 1.523 . S
C1191 C1175 1.429 . S
C1191 C1187 1.429 . S
C1191 C1192 1.523 . S
C1192 C1176 1.368 . S
C1192 C1188 1.368 . S
C1192 C1191 1.523 . S
H1193 C1168 0.950 . S
H1194 C1170 0.950 . S
H1195 C1171 0.949 . S
H1196 C1173 0.950 . S
H1197 C1175 0.950 . S
C1198 C1199 1.349 . S
C1198 C1200 1.327 . S
C1198 H1223 0.950 . S
C1199 C1198 1.349 . S
C1199 C1215 1.349 . S
C1200 C1198 1.327 . S
C1200 C1219 1.429 . S
C1200 H1224 0.950 . S
C1201 C1218 1.574 . S
C1201 C1220 1.368 . S
C1201 H1225 0.949 . S
H1202 C1206 0.949 . S
C1203 C1204 1.349 . S
C1203 C1205 1.327 . S
C1203 H1226 0.950 . S
C1204 C1203 1.349 . S
C1204 C1216 1.349 . S
C1205 C1203 1.327 . S
C1205 C1221 1.429 . S
C1205 H1227 0.950 . S
C1206 H1202 0.949 . S
C1206 C1214 1.574 . S
C1206 C1222 1.368 . S
H1207 C1215 0.950 . S
H1208 C1213 0.950 . S
H1209 C1214 0.949 . S
H1210 C1216 0.950 . S
H1211 C1217 0.950 . S
H1212 C1218 0.949 . S
C1213 H1208 0.950 . S
C1213 C1215 1.327 . S
C1213 C1219 1.429 . S
C1214 C1206 1.574 . S
C1214 H1209 0.949 . S
C1214 C1220 1.368 . S
C1215 C1199 1.349 . S
C1215 H1207 0.950 . S
C1215 C1213 1.327 . S
C1216 C1204 1.349 . S
C1216 H1210 0.950 . S
C1216 C1217 1.327 . S
C1217 H1211 0.950 . S
C1217 C1216 1.327 . S
C1217 C1221 1.429 . S
C1218 C1201 1.574 . S
C1218 H1212 0.949 . S
C1218 C1222 1.368 . S
C1219 C1200 1.429 . S
C1219 C1213 1.429 . S
C1219 C1220 1.523 . S
C1220 C1201 1.368 . S
C1220 C1214 1.368 . S
C1220 C1219 1.523 . S
C1221 C1205 1.429 . S
C1221 C1217 1.429 . S
C1221 C1222 1.523 . S
C1222 C1206 1.368 . S
C1222 C1218 1.368 . S
C1222 C1221 1.523 . S
H1223 C1198 0.950 . S
H1224 C1200 0.950 . S
H1225 C1201 0.949 . S
H1226 C1203 0.950 . S
H1227 C1205 0.950 . S
C1228 C1229 1.349 . S
C1228 C1230 1.327 . S
C1228 H1253 0.950 . S
C1229 C1228 1.349 . S
C1229 C1245 1.349 . S
C1230 C1228 1.327 . S
C1230 C1249 1.429 . S
C1230 H1254 0.950 . S
C1231 C1248 1.574 . S
C1231 C1250 1.368 . S
C1231 H1255 0.949 . S
H1232 C1236 0.949 . S
C1233 C1234 1.349 . S
C1233 C1235 1.327 . S
C1233 H1256 0.950 . S
C1234 C1233 1.349 . S
C1234 C1246 1.349 . S
C1235 C1233 1.327 . S
C1235 C1251 1.429 . S
C1235 H1257 0.950 . S
C1236 H1232 0.949 . S
C1236 C1244 1.574 . S
C1236 C1252 1.368 . S
H1237 C1245 0.950 . S
H1238 C1243 0.950 . S
H1239 C1244 0.949 . S
H1240 C1246 0.950 . S
H1241 C1247 0.950 . S
H1242 C1248 0.949 . S
C1243 H1238 0.950 . S
C1243 C1245 1.327 . S
C1243 C1249 1.429 . S
C1244 C1236 1.574 . S
C1244 H1239 0.949 . S
C1244 C1250 1.368 . S
C1245 C1229 1.349 . S
C1245 H1237 0.950 . S
C1245 C1243 1.327 . S
C1246 C1234 1.349 . S
C1246 H1240 0.950 . S
C1246 C1247 1.327 . S
C1247 H1241 0.950 . S
C1247 C1246 1.327 . S
C1247 C1251 1.429 . S
C1248 C1231 1.574 . S
C1248 H1242 0.949 . S
C1248 C1252 1.368 . S
C1249 C1230 1.429 . S
C1249 C1243 1.429 . S
C1249 C1250 1.523 . S
C1250 C1231 1.368 . S
C1250 C1244 1.368 . S
C1250 C1249 1.523 . S
C1251 C1235 1.429 . S
C1251 C1247 1.429 . S
C1251 C1252 1.523 . S
C1252 C1236 1.368 . S
C1252 C1248 1.368 . S
C1252 C1251 1.523 . S
H1253 C1228 0.950 . S
H1254 C1230 0.950 . S
H1255 C1231 0.949 . S
H1256 C1233 0.950 . S
H1257 C1235 0.950 . S
C1258 C1259 1.349 . S
C1258 C1260 1.327 . S
C1258 H1283 0.950 . S
C1259 C1258 1.349 . S
C1259 C1275 1.349 . S
C1260 C1258 1.327 . S
C1260 C1279 1.429 . S
C1260 H1284 0.950 . S
C1261 C1278 1.574 . S
C1261 C1280 1.368 . S
C1261 H1285 0.949 . S
H1262 C1266 0.949 . S
C1263 C1264 1.349 . S
C1263 C1265 1.327 . S
C1263 H1286 0.950 . S
C1264 C1263 1.349 . S
C1264 C1276 1.349 . S
C1265 C1263 1.327 . S
C1265 C1281 1.429 . S
C1265 H1287 0.950 . S
C1266 H1262 0.949 . S
C1266 C1274 1.574 . S
C1266 C1282 1.368 . S
H1267 C1275 0.950 . S
H1268 C1273 0.950 . S
H1269 C1274 0.949 . S
H1270 C1276 0.950 . S
H1271 C1277 0.950 . S
H1272 C1278 0.949 . S
C1273 H1268 0.950 . S
C1273 C1275 1.327 . S
C1273 C1279 1.429 . S
C1274 C1266 1.574 . S
C1274 H1269 0.949 . S
C1274 C1280 1.368 . S
C1275 C1259 1.349 . S
C1275 H1267 0.950 . S
C1275 C1273 1.327 . S
C1276 C1264 1.349 . S
C1276 H1270 0.950 . S
C1276 C1277 1.327 . S
C1277 H1271 0.950 . S
C1277 C1276 1.327 . S
C1277 C1281 1.429 . S
C1278 C1261 1.574 . S
C1278 H1272 0.949 . S
C1278 C1282 1.368 . S
C1279 C1260 1.429 . S
C1279 C1273 1.429 . S
C1279 C1280 1.523 . S
C1280 C1261 1.368 . S
C1280 C1274 1.368 . S
C1280 C1279 1.523 . S
C1281 C1265 1.429 . S
C1281 C1277 1.429 . S
C1281 C1282 1.523 . S
C1282 C1266 1.368 . S
C1282 C1278 1.368 . S
C1282 C1281 1.523 . S
H1283 C1258 0.950 . S
H1284 C1260 0.950 . S
H1285 C1261 0.949 . S
H1286 C1263 0.950 . S
H1287 C1265 0.950 . S
C1288 C1289 1.349 . S
C1288 C1290 1.327 . S
C1288 H1313 0.950 . S
C1289 C1288 1.349 . S
C1289 C1305 1.349 . S
C1290 C1288 1.327 . S
C1290 C1309 1.429 . S
C1290 H1314 0.950 . S
C1291 C1308 1.574 . S
C1291 C1310 1.368 . S
C1291 H1315 0.949 . S
H1292 C1296 0.949 . S
C1293 C1294 1.349 . S
C1293 C1295 1.327 . S
C1293 H1316 0.950 . S
C1294 C1293 1.349 . S
C1294 C1306 1.349 . S
C1295 C1293 1.327 . S
C1295 C1311 1.429 . S
C1295 H1317 0.950 . S
C1296 H1292 0.949 . S
C1296 C1304 1.574 . S
C1296 C1312 1.368 . S
H1297 C1305 0.950 . S
H1298 C1303 0.950 . S
H1299 C1304 0.949 . S
H1300 C1306 0.950 . S
H1301 C1307 0.950 . S
H1302 C1308 0.949 . S
C1303 H1298 0.950 . S
C1303 C1305 1.327 . S
C1303 C1309 1.429 . S
C1304 C1296 1.574 . S
C1304 H1299 0.949 . S
C1304 C1310 1.368 . S
C1305 C1289 1.349 . S
C1305 H1297 0.950 . S
C1305 C1303 1.327 . S
C1306 C1294 1.349 . S
C1306 H1300 0.950 . S
C1306 C1307 1.327 . S
C1307 H1301 0.950 . S
C1307 C1306 1.327 . S
C1307 C1311 1.429 . S
C1308 C1291 1.574 . S
C1308 H1302 0.949 . S
C1308 C1312 1.368 . S
C1309 C1290 1.429 . S
C1309 C1303 1.429 . S
C1309 C1310 1.523 . S
C1310 C1291 1.368 . S
C1310 C1304 1.368 . S
C1310 C1309 1.523 . S
C1311 C1295 1.429 . S
C1311 C1307 1.429 . S
C1311 C1312 1.523 . S
C1312 C1296 1.368 . S
C1312 C1308 1.368 . S
C1312 C1311 1.523 . S
H1313 C1288 0.950 . S
H1314 C1290 0.950 . S
H1315 C1291 0.949 . S
H1316 C1293 0.950 . S
H1317 C1295 0.950 . S
C1318 C1319 1.349 . S
C1318 C1320 1.327 . S
C1318 H1343 0.950 . S
C1319 C1318 1.349 . S
C1319 C1335 1.349 . S
C1320 C1318 1.327 . S
C1320 C1339 1.429 . S
C1320 H1344 0.950 . S
C1321 C1338 1.574 . S
C1321 C1340 1.368 . S
C1321 H1345 0.949 . S
H1322 C1326 0.949 . S
C1323 C1324 1.349 . S
C1323 C1325 1.327 . S
C1323 H1346 0.950 . S
C1324 C1323 1.349 . S
C1324 C1336 1.349 . S
C1325 C1323 1.327 . S
C1325 C1341 1.429 . S
C1325 H1347 0.950 . S
C1326 H1322 0.949 . S
C1326 C1334 1.574 . S
C1326 C1342 1.368 . S
H1327 C1335 0.950 . S
H1328 C1333 0.950 . S
H1329 C1334 0.949 . S
H1330 C1336 0.950 . S
H1331 C1337 0.950 . S
H1332 C1338 0.949 . S
C1333 H1328 0.950 . S
C1333 C1335 1.327 . S
C1333 C1339 1.429 . S
C1334 C1326 1.574 . S
C1334 H1329 0.949 . S
C1334 C1340 1.368 . S
C1335 C1319 1.349 . S
C1335 H1327 0.950 . S
C1335 C1333 1.327 . S
C1336 C1324 1.349 . S
C1336 H1330 0.950 . S
C1336 C1337 1.327 . S
C1337 H1331 0.950 . S
C1337 C1336 1.327 . S
C1337 C1341 1.429 . S
C1338 C1321 1.574 . S
C1338 H1332 0.949 . S
C1338 C1342 1.368 . S
C1339 C1320 1.429 . S
C1339 C1333 1.429 . S
C1339 C1340 1.523 . S
C1340 C1321 1.368 . S
C1340 C1334 1.368 . S
C1340 C1339 1.523 . S
C1341 C1325 1.429 . S
C1341 C1337 1.429 . S
C1341 C1342 1.523 . S
C1342 C1326 1.368 . S
C1342 C1338 1.368 . S
C1342 C1341 1.523 . S
H1343 C1318 0.950 . S
H1344 C1320 0.950 . S
H1345 C1321 0.949 . S
H1346 C1323 0.950 . S
H1347 C1325 0.950 . S
C1348 C1349 1.349 . S
C1348 C1350 1.327 . S
C1348 H1373 0.950 . S
C1349 C1348 1.349 . S
C1349 C1365 1.349 . S
C1350 C1348 1.327 . S
C1350 C1369 1.429 . S
C1350 H1374 0.950 . S
C1351 C1368 1.574 . S
C1351 C1370 1.368 . S
C1351 H1375 0.949 . S
H1352 C1356 0.949 . S
C1353 C1354 1.349 . S
C1353 C1355 1.327 . S
C1353 H1376 0.950 . S
C1354 C1353 1.349 . S
C1354 C1366 1.349 . S
C1355 C1353 1.327 . S
C1355 C1371 1.429 . S
C1355 H1377 0.950 . S
C1356 H1352 0.949 . S
C1356 C1364 1.574 . S
C1356 C1372 1.368 . S
H1357 C1365 0.950 . S
H1358 C1363 0.950 . S
H1359 C1364 0.949 . S
H1360 C1366 0.950 . S
H1361 C1367 0.950 . S
H1362 C1368 0.949 . S
C1363 H1358 0.950 . S
C1363 C1365 1.327 . S
C1363 C1369 1.429 . S
C1364 C1356 1.574 . S
C1364 H1359 0.949 . S
C1364 C1370 1.368 . S
C1365 C1349 1.349 . S
C1365 H1357 0.950 . S
C1365 C1363 1.327 . S
C1366 C1354 1.349 . S
C1366 H1360 0.950 . S
C1366 C1367 1.327 . S
C1367 H1361 0.950 . S
C1367 C1366 1.327 . S
C1367 C1371 1.429 . S
C1368 C1351 1.574 . S
C1368 H1362 0.949 . S
C1368 C1372 1.368 . S
C1369 C1350 1.429 . S
C1369 C1363 1.429 . S
C1369 C1370 1.523 . S
C1370 C1351 1.368 . S
C1370 C1364 1.368 . S
C1370 C1369 1.523 . S
C1371 C1355 1.429 . S
C1371 C1367 1.429 . S
C1371 C1372 1.523 . S
C1372 C1356 1.368 . S
C1372 C1368 1.368 . S
C1372 C1371 1.523 . S
H1373 C1348 0.950 . S
H1374 C1350 0.950 . S
H1375 C1351 0.949 . S
H1376 C1353 0.950 . S
H1377 C1355 0.950 . S
C1378 C1379 1.349 . S
C1378 C1380 1.327 . S
C1378 H1403 0.950 . S
C1379 C1378 1.349 . S
C1379 C1395 1.349 . S
C1380 C1378 1.327 . S
C1380 C1399 1.429 . S
C1380 H1404 0.950 . S
C1381 C1398 1.574 . S
C1381 C1400 1.368 . S
C1381 H1405 0.949 . S
H1382 C1386 0.949 . S
C1383 C1384 1.349 . S
C1383 C1385 1.327 . S
C1383 H1406 0.950 . S
C1384 C1383 1.349 . S
C1384 C1396 1.349 . S
C1385 C1383 1.327 . S
C1385 C1401 1.429 . S
C1385 H1407 0.950 . S
C1386 H1382 0.949 . S
C1386 C1394 1.574 . S
C1386 C1402 1.368 . S
H1387 C1395 0.950 . S
H1388 C1393 0.950 . S
H1389 C1394 0.949 . S
H1390 C1396 0.950 . S
H1391 C1397 0.950 . S
H1392 C1398 0.949 . S
C1393 H1388 0.950 . S
C1393 C1395 1.327 . S
C1393 C1399 1.429 . S
C1394 C1386 1.574 . S
C1394 H1389 0.949 . S
C1394 C1400 1.368 . S
C1395 C1379 1.349 . S
C1395 H1387 0.950 . S
C1395 C1393 1.327 . S
C1396 C1384 1.349 . S
C1396 H1390 0.950 . S
C1396 C1397 1.327 . S
C1397 H1391 0.950 . S
C1397 C1396 1.327 . S
C1397 C1401 1.429 . S
C1398 C1381 1.574 . S
C1398 H1392 0.949 . S
C1398 C1402 1.368 . S
C1399 C1380 1.429 . S
C1399 C1393 1.429 . S
C1399 C1400 1.523 . S
C1400 C1381 1.368 . S
C1400 C1394 1.368 . S
C1400 C1399 1.523 . S
C1401 C1385 1.429 . S
C1401 C1397 1.429 . S
C1401 C1402 1.523 . S
C1402 C1386 1.368 . S
C1402 C1398 1.368 . S
C1402 C1401 1.523 . S
H1403 C1378 0.950 . S
H1404 C1380 0.950 . S
H1405 C1381 0.949 . S
H1406 C1383 0.950 . S
H1407 C1385 0.950 . S
C1408 C1409 1.349 . S
C1408 C1410 1.327 . S
C1408 H1433 0.950 . S
C1409 C1408 1.349 . S
C1409 C1425 1.349 . S
C1410 C1408 1.327 . S
C1410 C1429 1.429 . S
C1410 H1434 0.950 . S
C1411 C1428 1.574 . S
C1411 C1430 1.368 . S
C1411 H1435 0.949 . S
H1412 C1416 0.949 . S
C1413 C1414 1.349 . S
C1413 C1415 1.327 . S
C1413 H1436 0.950 . S
C1414 C1413 1.349 . S
C1414 C1426 1.349 . S
C1415 C1413 1.327 . S
C1415 C1431 1.429 . S
C1415 H1437 0.950 . S
C1416 H1412 0.949 . S
C1416 C1424 1.574 . S
C1416 C1432 1.368 . S
H1417 C1425 0.950 . S
H1418 C1423 0.950 . S
H1419 C1424 0.949 . S
H1420 C1426 0.950 . S
H1421 C1427 0.950 . S
H1422 C1428 0.949 . S
C1423 H1418 0.950 . S
C1423 C1425 1.327 . S
C1423 C1429 1.429 . S
C1424 C1416 1.574 . S
C1424 H1419 0.949 . S
C1424 C1430 1.368 . S
C1425 C1409 1.349 . S
C1425 H1417 0.950 . S
C1425 C1423 1.327 . S
C1426 C1414 1.349 . S
C1426 H1420 0.950 . S
C1426 C1427 1.327 . S
C1427 H1421 0.950 . S
C1427 C1426 1.327 . S
C1427 C1431 1.429 . S
C1428 C1411 1.574 . S
C1428 H1422 0.949 . S
C1428 C1432 1.368 . S
C1429 C1410 1.429 . S
C1429 C1423 1.429 . S
C1429 C1430 1.523 . S
C1430 C1411 1.368 . S
C1430 C1424 1.368 . S
C1430 C1429 1.523 . S
C1431 C1415 1.429 . S
C1431 C1427 1.429 . S
C1431 C1432 1.523 . S
C1432 C1416 1.368 . S
C1432 C1428 1.368 . S
C1432 C1431 1.523 . S
H1433 C1408 0.950 . S
H1434 C1410 0.950 . S
H1435 C1411 0.949 . S
H1436 C1413 0.950 . S
H1437 C1415 0.950 . S
C1438 C1439 1.349 . S
C1438 C1440 1.327 . S
C1438 H1463 0.950 . S
C1439 C1438 1.349 . S
C1439 C1455 1.349 . S
C1440 C1438 1.327 . S
C1440 C1459 1.429 . S
C1440 H1464 0.950 . S
C1441 C1458 1.574 . S
C1441 C1460 1.368 . S
C1441 H1465 0.949 . S
H1442 C1446 0.949 . S
C1443 C1444 1.349 . S
C1443 C1445 1.327 . S
C1443 H1466 0.950 . S
C1444 C1443 1.349 . S
C1444 C1456 1.349 . S
C1445 C1443 1.327 . S
C1445 C1461 1.429 1_655 S
C1445 H1467 0.950 1_655 S
C1446 H1442 0.949 . S
C1446 C1454 1.574 . S
C1446 C1462 1.368 . S
H1447 C1455 0.950 . S
H1448 C1453 0.950 . S
H1449 C1454 0.949 . S
H1450 C1456 0.950 . S
H1451 C1457 0.950 1_455 S
H1452 C1458 0.949 . S
C1453 H1448 0.950 . S
C1453 C1455 1.327 . S
C1453 C1459 1.429 . S
C1454 C1446 1.574 . S
C1454 H1449 0.949 . S
C1454 C1460 1.368 . S
C1455 C1439 1.349 . S
C1455 H1447 0.950 . S
C1455 C1453 1.327 . S
C1456 C1444 1.349 . S
C1456 H1450 0.950 . S
C1456 C1457 1.327 . S
C1457 H1451 0.950 1_655 S
C1457 C1456 1.327 . S
C1457 C1461 1.429 1_655 S
C1458 C1441 1.574 . S
C1458 H1452 0.949 . S
C1458 C1462 1.368 . S
C1459 C1440 1.429 . S
C1459 C1453 1.429 . S
C1459 C1460 1.523 . S
C1460 C1441 1.368 . S
C1460 C1454 1.368 . S
C1460 C1459 1.523 . S
C1461 C1445 1.429 1_455 S
C1461 C1457 1.429 1_455 S
C1461 C1462 1.523 . S
C1462 C1446 1.368 . S
C1462 C1458 1.368 . S
C1462 C1461 1.523 . S
H1463 C1438 0.950 . S
H1464 C1440 0.950 . S
H1465 C1441 0.949 . S
H1466 C1443 0.950 . S
H1467 C1445 0.950 1_455 S
C1468 C1469 1.349 . S
C1468 C1470 1.327 . S
C1468 H1493 0.950 . S
C1469 C1468 1.349 . S
C1469 C1485 1.349 . S
C1470 C1468 1.327 . S
C1470 C1489 1.429 . S
C1470 H1494 0.950 . S
C1471 C1488 1.574 . S
C1471 C1490 1.368 . S
C1471 H1495 0.949 . S
H1472 C1476 0.949 . S
C1473 C1474 1.349 . S
C1473 C1475 1.327 . S
C1473 H1496 0.950 . S
C1474 C1473 1.349 . S
C1474 C1486 1.349 . S
C1475 C1473 1.327 . S
C1475 C1491 1.429 . S
C1475 H1497 0.950 . S
C1476 H1472 0.949 . S
C1476 C1484 1.574 . S
C1476 C1492 1.368 . S
H1477 C1485 0.950 . S
H1478 C1483 0.950 . S
H1479 C1484 0.949 . S
H1480 C1486 0.950 . S
H1481 C1487 0.950 . S
H1482 C1488 0.949 . S
C1483 H1478 0.950 . S
C1483 C1485 1.327 . S
C1483 C1489 1.429 . S
C1484 C1476 1.574 . S
C1484 H1479 0.949 . S
C1484 C1490 1.368 . S
C1485 C1469 1.349 . S
C1485 H1477 0.950 . S
C1485 C1483 1.327 . S
C1486 C1474 1.349 . S
C1486 H1480 0.950 . S
C1486 C1487 1.327 . S
C1487 H1481 0.950 . S
C1487 C1486 1.327 . S
C1487 C1491 1.429 . S
C1488 C1471 1.574 . S
C1488 H1482 0.949 . S
C1488 C1492 1.368 . S
C1489 C1470 1.429 . S
C1489 C1483 1.429 . S
C1489 C1490 1.523 . S
C1490 C1471 1.368 . S
C1490 C1484 1.368 . S
C1490 C1489 1.523 . S
C1491 C1475 1.429 . S
C1491 C1487 1.429 . S
C1491 C1492 1.523 . S
C1492 C1476 1.368 . S
C1492 C1488 1.368 . S
C1492 C1491 1.523 . S
H1493 C1468 0.950 . S
H1494 C1470 0.950 . S
H1495 C1471 0.949 . S
H1496 C1473 0.950 . S
H1497 C1475 0.950 . S
C1498 C1499 1.349 . S
C1498 C1500 1.327 . S
C1498 H1523 0.950 . S
C1499 C1498 1.349 . S
C1499 C1515 1.349 . S
C1500 C1498 1.327 . S
C1500 C1519 1.429 . S
C1500 H1524 0.950 . S
C1501 C1518 1.574 . S
C1501 C1520 1.368 . S
C1501 H1525 0.949 . S
H1502 C1506 0.949 . S
C1503 C1504 1.349 . S
C1503 C1505 1.327 . S
C1503 H1526 0.950 . S
C1504 C1503 1.349 . S
C1504 C1516 1.349 . S
C1505 C1503 1.327 . S
C1505 C1521 1.429 . S
C1505 H1527 0.950 . S
C1506 H1502 0.949 . S
C1506 C1514 1.574 . S
C1506 C1522 1.368 . S
H1507 C1515 0.950 . S
H1508 C1513 0.950 . S
H1509 C1514 0.949 . S
H1510 C1516 0.950 . S
H1511 C1517 0.950 . S
H1512 C1518 0.949 . S
C1513 H1508 0.950 . S
C1513 C1515 1.327 . S
C1513 C1519 1.429 . S
C1514 C1506 1.574 . S
C1514 H1509 0.949 . S
C1514 C1520 1.368 . S
C1515 C1499 1.349 . S
C1515 H1507 0.950 . S
C1515 C1513 1.327 . S
C1516 C1504 1.349 . S
C1516 H1510 0.950 . S
C1516 C1517 1.327 . S
C1517 H1511 0.950 . S
C1517 C1516 1.327 . S
C1517 C1521 1.429 . S
C1518 C1501 1.574 . S
C1518 H1512 0.949 . S
C1518 C1522 1.368 . S
C1519 C1500 1.429 . S
C1519 C1513 1.429 . S
C1519 C1520 1.523 . S
C1520 C1501 1.368 . S
C1520 C1514 1.368 . S
C1520 C1519 1.523 . S
C1521 C1505 1.429 . S
C1521 C1517 1.429 . S
C1521 C1522 1.523 . S
C1522 C1506 1.368 . S
C1522 C1518 1.368 . S
C1522 C1521 1.523 . S
H1523 C1498 0.950 . S
H1524 C1500 0.950 . S
H1525 C1501 0.949 . S
H1526 C1503 0.950 . S
H1527 C1505 0.950 . S
C1528 C1529 1.349 . S
C1528 C1530 1.327 . S
C1528 H1553 0.950 . S
C1529 C1528 1.349 . S
C1529 C1545 1.349 . S
C1530 C1528 1.327 . S
C1530 C1549 1.429 . S
C1530 H1554 0.950 . S
C1531 C1548 1.574 . S
C1531 C1550 1.368 . S
C1531 H1555 0.949 . S
H1532 C1536 0.949 . S
C1533 C1534 1.349 . S
C1533 C1535 1.327 . S
C1533 H1556 0.950 . S
C1534 C1533 1.349 . S
C1534 C1546 1.349 . S
C1535 C1533 1.327 . S
C1535 C1551 1.429 . S
C1535 H1557 0.950 . S
C1536 H1532 0.949 . S
C1536 C1544 1.574 . S
C1536 C1552 1.368 . S
H1537 C1545 0.950 . S
H1538 C1543 0.950 . S
H1539 C1544 0.949 . S
H1540 C1546 0.950 . S
H1541 C1547 0.950 . S
H1542 C1548 0.949 . S
C1543 H1538 0.950 . S
C1543 C1545 1.327 . S
C1543 C1549 1.429 . S
C1544 C1536 1.574 . S
C1544 H1539 0.949 . S
C1544 C1550 1.368 . S
C1545 C1529 1.349 . S
C1545 H1537 0.950 . S
C1545 C1543 1.327 . S
C1546 C1534 1.349 . S
C1546 H1540 0.950 . S
C1546 C1547 1.327 . S
C1547 H1541 0.950 . S
C1547 C1546 1.327 . S
C1547 C1551 1.429 . S
C1548 C1531 1.574 . S
C1548 H1542 0.949 . S
C1548 C1552 1.368 . S
C1549 C1530 1.429 . S
C1549 C1543 1.429 . S
C1549 C1550 1.523 . S
C1550 C1531 1.368 . S
C1550 C1544 1.368 . S
C1550 C1549 1.523 . S
C1551 C1535 1.429 . S
C1551 C1547 1.429 . S
C1551 C1552 1.523 . S
C1552 C1536 1.368 . S
C1552 C1548 1.368 . S
C1552 C1551 1.523 . S
H1553 C1528 0.950 . S
H1554 C1530 0.950 . S
H1555 C1531 0.949 . S
H1556 C1533 0.950 . S
H1557 C1535 0.950 . S
C1558 C1559 1.349 . S
C1558 C1560 1.327 . S
C1558 H1583 0.950 . S
C1559 C1558 1.349 . S
C1559 C1575 1.349 . S
C1560 C1558 1.327 . S
C1560 C1579 1.429 . S
C1560 H1584 0.950 . S
C1561 C1578 1.574 . S
C1561 C1580 1.368 . S
C1561 H1585 0.949 . S
H1562 C1566 0.949 . S
C1563 C1564 1.349 . S
C1563 C1565 1.327 . S
C1563 H1586 0.950 . S
C1564 C1563 1.349 . S
C1564 C1576 1.349 . S
C1565 C1563 1.327 . S
C1565 C1581 1.429 . S
C1565 H1587 0.950 . S
C1566 H1562 0.949 . S
C1566 C1574 1.574 . S
C1566 C1582 1.368 . S
H1567 C1575 0.950 . S
H1568 C1573 0.950 . S
H1569 C1574 0.949 . S
H1570 C1576 0.950 . S
H1571 C1577 0.950 . S
H1572 C1578 0.949 . S
C1573 H1568 0.950 . S
C1573 C1575 1.327 . S
C1573 C1579 1.429 . S
C1574 C1566 1.574 . S
C1574 H1569 0.949 . S
C1574 C1580 1.368 . S
C1575 C1559 1.349 . S
C1575 H1567 0.950 . S
C1575 C1573 1.327 . S
C1576 C1564 1.349 . S
C1576 H1570 0.950 . S
C1576 C1577 1.327 . S
C1577 H1571 0.950 . S
C1577 C1576 1.327 . S
C1577 C1581 1.429 . S
C1578 C1561 1.574 . S
C1578 H1572 0.949 . S
C1578 C1582 1.368 . S
C1579 C1560 1.429 . S
C1579 C1573 1.429 . S
C1579 C1580 1.523 . S
C1580 C1561 1.368 . S
C1580 C1574 1.368 . S
C1580 C1579 1.523 . S
C1581 C1565 1.429 . S
C1581 C1577 1.429 . S
C1581 C1582 1.523 . S
C1582 C1566 1.368 . S
C1582 C1578 1.368 . S
C1582 C1581 1.523 . S
H1583 C1558 0.950 . S
H1584 C1560 0.950 . S
H1585 C1561 0.949 . S
H1586 C1563 0.950 . S
H1587 C1565 0.950 . S
C1588 C1589 1.349 . S
C1588 C1590 1.327 . S
C1588 H1613 0.950 . S
C1589 C1588 1.349 . S
C1589 C1605 1.349 . S
C1590 C1588 1.327 . S
C1590 C1609 1.429 . S
C1590 H1614 0.950 . S
C1591 C1608 1.574 . S
C1591 C1610 1.368 . S
C1591 H1615 0.949 . S
H1592 C1596 0.949 . S
C1593 C1594 1.349 . S
C1593 C1595 1.327 . S
C1593 H1616 0.950 . S
C1594 C1593 1.349 . S
C1594 C1606 1.349 . S
C1595 C1593 1.327 . S
C1595 C1611 1.429 . S
C1595 H1617 0.950 . S
C1596 H1592 0.949 . S
C1596 C1604 1.574 . S
C1596 C1612 1.368 . S
H1597 C1605 0.950 . S
H1598 C1603 0.950 . S
H1599 C1604 0.949 . S
H1600 C1606 0.950 . S
H1601 C1607 0.950 . S
H1602 C1608 0.949 . S
C1603 H1598 0.950 . S
C1603 C1605 1.327 . S
C1603 C1609 1.429 . S
C1604 C1596 1.574 . S
C1604 H1599 0.949 . S
C1604 C1610 1.368 . S
C1605 C1589 1.349 . S
C1605 H1597 0.950 . S
C1605 C1603 1.327 . S
C1606 C1594 1.349 . S
C1606 H1600 0.950 . S
C1606 C1607 1.327 . S
C1607 H1601 0.950 . S
C1607 C1606 1.327 . S
C1607 C1611 1.429 . S
C1608 C1591 1.574 . S
C1608 H1602 0.949 . S
C1608 C1612 1.368 . S
C1609 C1590 1.429 . S
C1609 C1603 1.429 . S
C1609 C1610 1.523 . S
C1610 C1591 1.368 . S
C1610 C1604 1.368 . S
C1610 C1609 1.523 . S
C1611 C1595 1.429 . S
C1611 C1607 1.429 . S
C1611 C1612 1.523 . S
C1612 C1596 1.368 . S
C1612 C1608 1.368 . S
C1612 C1611 1.523 . S
H1613 C1588 0.950 . S
H1614 C1590 0.950 . S
H1615 C1591 0.949 . S
H1616 C1593 0.950 . S
H1617 C1595 0.950 . S
C1618 C1619 1.349 . S
C1618 C1620 1.327 . S
C1618 H1643 0.950 . S
C1619 C1618 1.349 . S
C1619 C1635 1.349 . S
C1620 C1618 1.327 . S
C1620 C1639 1.429 . S
C1620 H1644 0.950 . S
C1621 C1638 1.574 . S
C1621 C1640 1.368 . S
C1621 H1645 0.949 . S
H1622 C1626 0.949 . S
C1623 C1624 1.349 . S
C1623 C1625 1.369 . S
C1623 H1646 0.950 . S
C1624 C1623 1.349 . S
C1624 C1636 1.349 . S
C1625 C1623 1.369 . S
C1625 C1641 1.410 1_655 S
C1625 H1647 0.927 1_655 S
C1626 H1622 0.949 . S
C1626 C1634 1.574 . S
C1626 C1642 1.368 . S
H1627 C1635 0.950 . S
H1628 C1633 0.950 . S
H1629 C1634 0.949 . S
H1630 C1636 0.950 . S
H1631 C1637 0.934 1_455 S
H1632 C1638 0.949 . S
C1633 H1628 0.950 . S
C1633 C1635 1.327 . S
C1633 C1639 1.429 . S
C1634 C1626 1.574 . S
C1634 H1629 0.949 . S
C1634 C1640 1.368 . S
C1635 C1619 1.349 . S
C1635 H1627 0.950 . S
C1635 C1633 1.327 . S
C1636 C1624 1.349 . S
C1636 H1630 0.950 . S
C1636 C1637 1.327 . S
C1637 H1631 0.934 1_655 S
C1637 C1636 1.327 . S
C1637 C1641 1.429 1_655 S
C1638 C1621 1.574 . S
C1638 H1632 0.949 . S
C1638 C1642 1.368 . S
C1639 C1620 1.429 . S
C1639 C1633 1.429 . S
C1639 C1640 1.523 . S
C1640 C1621 1.368 . S
C1640 C1634 1.368 . S
C1640 C1639 1.523 . S
C1641 C1625 1.410 1_455 S
C1641 C1637 1.429 1_455 S
C1641 C1642 1.523 . S
C1642 C1626 1.368 . S
C1642 C1638 1.368 . S
C1642 C1641 1.523 . S
H1643 C1618 0.950 . S
H1644 C1620 0.950 . S
H1645 C1621 0.949 . S
H1646 C1623 0.950 . S
H1647 C1625 0.927 1_455 S
C1648 C1649 1.349 . S
C1648 C1650 1.327 . S
C1648 H1673 0.950 . S
C1649 C1648 1.349 . S
C1649 C1665 1.349 . S
C1650 C1648 1.327 . S
C1650 C1669 1.429 . S
C1650 H1674 0.950 . S
C1651 C1668 1.574 . S
C1651 C1670 1.368 . S
C1651 H1675 0.949 . S
H1652 C1656 0.949 . S
C1653 C1654 1.349 . S
C1653 C1655 1.327 . S
C1653 H1676 0.950 . S
C1654 C1653 1.349 . S
C1654 C1666 1.349 . S
C1655 C1653 1.327 . S
C1655 C1671 1.429 . S
C1655 H1677 0.950 . S
C1656 H1652 0.949 . S
C1656 C1664 1.574 . S
C1656 C1672 1.368 . S
H1657 C1665 0.950 . S
H1658 C1663 0.950 . S
H1659 C1664 0.949 . S
H1660 C1666 0.950 . S
H1661 C1667 0.950 . S
H1662 C1668 0.949 . S
C1663 H1658 0.950 . S
C1663 C1665 1.327 . S
C1663 C1669 1.429 . S
C1664 C1656 1.574 . S
C1664 H1659 0.949 . S
C1664 C1670 1.368 . S
C1665 C1649 1.349 . S
C1665 H1657 0.950 . S
C1665 C1663 1.327 . S
C1666 C1654 1.349 . S
C1666 H1660 0.950 . S
C1666 C1667 1.327 . S
C1667 H1661 0.950 . S
C1667 C1666 1.327 . S
C1667 C1671 1.429 . S
C1668 C1651 1.574 . S
C1668 H1662 0.949 . S
C1668 C1672 1.368 . S
C1669 C1650 1.429 . S
C1669 C1663 1.429 . S
C1669 C1670 1.523 . S
C1670 C1651 1.368 . S
C1670 C1664 1.368 . S
C1670 C1669 1.523 . S
C1671 C1655 1.429 . S
C1671 C1667 1.429 . S
C1671 C1672 1.523 . S
C1672 C1656 1.368 . S
C1672 C1668 1.368 . S
C1672 C1671 1.523 . S
H1673 C1648 0.950 . S
H1674 C1650 0.950 . S
H1675 C1651 0.949 . S
H1676 C1653 0.950 . S
H1677 C1655 0.950 . S
C1678 C1679 1.349 . S
C1678 C1680 1.327 1_455 S
C1678 H1703 0.950 . S
C1679 C1678 1.349 . S
C1679 C1695 1.349 . S
C1680 C1678 1.327 1_655 S
C1680 C1699 1.429 . S
C1680 H1704 0.950 . S
C1681 C1698 1.574 . S
C1681 C1700 1.368 . S
C1681 H1705 0.949 . S
H1682 C1686 0.949 . S
C1683 C1684 1.349 . S
C1683 C1685 1.327 . S
C1683 H1706 0.950 . S
C1684 C1683 1.349 . S
C1684 C1696 1.349 . S
C1685 C1683 1.327 . S
C1685 C1701 1.429 . S
C1685 H1707 0.950 . S
C1686 H1682 0.949 . S
C1686 C1694 1.574 . S
C1686 C1702 1.368 . S
H1687 C1695 0.950 . S
H1688 C1693 0.950 . S
H1689 C1694 0.949 . S
H1690 C1696 0.950 . S
H1691 C1697 0.950 . S
H1692 C1698 0.949 . S
C1693 H1688 0.950 . S
C1693 C1695 1.327 . S
C1693 C1699 1.429 1_455 S
C1694 C1686 1.574 . S
C1694 H1689 0.949 . S
C1694 C1700 1.368 . S
C1695 C1679 1.349 . S
C1695 H1687 0.950 . S
C1695 C1693 1.327 . S
C1696 C1684 1.349 . S
C1696 H1690 0.950 . S
C1696 C1697 1.327 . S
C1697 H1691 0.950 . S
C1697 C1696 1.327 . S
C1697 C1701 1.429 . S
C1698 C1681 1.574 . S
C1698 H1692 0.949 . S
C1698 C1702 1.368 . S
C1699 C1680 1.429 . S
C1699 C1693 1.429 1_655 S
C1699 C1700 1.523 . S
C1700 C1681 1.368 . S
C1700 C1694 1.368 . S
C1700 C1699 1.523 . S
C1701 C1685 1.429 . S
C1701 C1697 1.429 . S
C1701 C1702 1.523 . S
C1702 C1686 1.368 . S
C1702 C1698 1.368 . S
C1702 C1701 1.523 . S
H1703 C1678 0.950 . S
H1704 C1680 0.950 . S
H1705 C1681 0.949 . S
H1706 C1683 0.950 . S
H1707 C1685 0.950 . S
C1708 C1709 1.349 . S
C1708 C1710 1.327 . S
C1708 H1733 0.950 . S
C1709 C1708 1.349 . S
C1709 C1725 1.349 . S
C1710 C1708 1.327 . S
C1710 C1729 1.429 . S
C1710 H1734 0.950 . S
C1711 C1728 1.574 . S
C1711 C1730 1.368 . S
C1711 H1735 0.949 . S
H1712 C1716 0.949 . S
C1713 C1714 1.349 . S
C1713 C1715 1.327 . S
C1713 H1736 0.950 . S
C1714 C1713 1.349 . S
C1714 C1726 1.349 . S
C1715 C1713 1.327 . S
C1715 C1731 1.429 . S
C1715 H1737 0.950 . S
C1716 H1712 0.949 . S
C1716 C1724 1.574 . S
C1716 C1732 1.368 . S
H1717 C1725 0.950 . S
H1718 C1723 0.950 . S
H1719 C1724 0.949 . S
H1720 C1726 0.950 . S
H1721 C1727 0.950 . S
H1722 C1728 0.949 . S
C1723 H1718 0.950 . S
C1723 C1725 1.327 . S
C1723 C1729 1.429 . S
C1724 C1716 1.574 . S
C1724 H1719 0.949 . S
C1724 C1730 1.368 . S
C1725 C1709 1.349 . S
C1725 H1717 0.950 . S
C1725 C1723 1.327 . S
C1726 C1714 1.349 . S
C1726 H1720 0.950 . S
C1726 C1727 1.327 . S
C1727 H1721 0.950 . S
C1727 C1726 1.327 . S
C1727 C1731 1.429 . S
C1728 C1711 1.574 . S
C1728 H1722 0.949 . S
C1728 C1732 1.368 . S
C1729 C1710 1.429 . S
C1729 C1723 1.429 . S
C1729 C1730 1.523 . S
C1730 C1711 1.368 . S
C1730 C1724 1.368 . S
C1730 C1729 1.523 . S
C1731 C1715 1.429 . S
C1731 C1727 1.429 . S
C1731 C1732 1.523 . S
C1732 C1716 1.368 . S
C1732 C1728 1.368 . S
C1732 C1731 1.523 . S
H1733 C1708 0.950 . S
H1734 C1710 0.950 . S
H1735 C1711 0.949 . S
H1736 C1713 0.950 . S
H1737 C1715 0.950 . S
C1738 C1739 1.349 . S
C1738 C1740 1.327 . S
C1738 H1763 0.950 . S
C1739 C1738 1.349 . S
C1739 C1755 1.349 . S
C1740 C1738 1.327 . S
C1740 C1759 1.429 . S
C1740 H1764 0.950 . S
C1741 C1758 1.574 . S
C1741 C1760 1.368 . S
C1741 H1765 0.949 . S
H1742 C1746 0.949 . S
C1743 C1744 1.349 . S
C1743 C1745 1.327 . S
C1743 H1766 0.950 . S
C1744 C1743 1.349 . S
C1744 C1756 1.349 . S
C1745 C1743 1.327 . S
C1745 C1761 1.429 . S
C1745 H1767 0.950 . S
C1746 H1742 0.949 . S
C1746 C1754 1.574 . S
C1746 C1762 1.368 . S
H1747 C1755 0.950 . S
H1748 C1753 0.950 . S
H1749 C1754 0.949 . S
H1750 C1756 0.950 . S
H1751 C1757 0.950 . S
H1752 C1758 0.949 . S
C1753 H1748 0.950 . S
C1753 C1755 1.327 . S
C1753 C1759 1.429 . S
C1754 C1746 1.574 . S
C1754 H1749 0.949 . S
C1754 C1760 1.368 . S
C1755 C1739 1.349 . S
C1755 H1747 0.950 . S
C1755 C1753 1.327 . S
C1756 C1744 1.349 . S
C1756 H1750 0.950 . S
C1756 C1757 1.327 . S
C1757 H1751 0.950 . S
C1757 C1756 1.327 . S
C1757 C1761 1.429 . S
C1758 C1741 1.574 . S
C1758 H1752 0.949 . S
C1758 C1762 1.368 . S
C1759 C1740 1.429 . S
C1759 C1753 1.429 . S
C1759 C1760 1.523 . S
C1760 C1741 1.368 . S
C1760 C1754 1.368 . S
C1760 C1759 1.523 . S
C1761 C1745 1.429 . S
C1761 C1757 1.429 . S
C1761 C1762 1.523 . S
C1762 C1746 1.368 . S
C1762 C1758 1.368 . S
C1762 C1761 1.523 . S
H1763 C1738 0.950 . S
H1764 C1740 0.950 . S
H1765 C1741 0.949 . S
H1766 C1743 0.950 . S
H1767 C1745 0.950 . S
C1768 C1769 1.349 . S
C1768 C1770 1.327 . S
C1768 H1793 0.950 . S
C1769 C1768 1.349 . S
C1769 C1785 1.349 . S
C1770 C1768 1.327 . S
C1770 C1789 1.429 . S
C1770 H1794 0.950 . S
C1771 C1788 1.574 . S
C1771 C1790 1.368 . S
C1771 H1795 0.949 . S
H1772 C1776 0.949 . S
C1773 C1774 1.349 . S
C1773 C1775 1.327 . S
C1773 H1796 0.950 . S
C1774 C1773 1.349 . S
C1774 C1786 1.349 . S
C1775 C1773 1.327 . S
C1775 C1791 1.429 . S
C1775 H1797 0.950 . S
C1776 H1772 0.949 . S
C1776 C1784 1.574 . S
C1776 C1792 1.368 . S
H1777 C1785 0.950 . S
H1778 C1783 0.950 . S
H1779 C1784 0.949 . S
H1780 C1786 0.950 . S
H1781 C1787 0.950 . S
H1782 C1788 0.949 . S
C1783 H1778 0.950 . S
C1783 C1785 1.327 . S
C1783 C1789 1.429 . S
C1784 C1776 1.574 . S
C1784 H1779 0.949 . S
C1784 C1790 1.368 . S
C1785 C1769 1.349 . S
C1785 H1777 0.950 . S
C1785 C1783 1.327 . S
C1786 C1774 1.349 . S
C1786 H1780 0.950 . S
C1786 C1787 1.327 . S
C1787 H1781 0.950 . S
C1787 C1786 1.327 . S
C1787 C1791 1.429 . S
C1788 C1771 1.574 . S
C1788 H1782 0.949 . S
C1788 C1792 1.368 . S
C1789 C1770 1.429 . S
C1789 C1783 1.429 . S
C1789 C1790 1.523 . S
C1790 C1771 1.368 . S
C1790 C1784 1.368 . S
C1790 C1789 1.523 . S
C1791 C1775 1.429 . S
C1791 C1787 1.429 . S
C1791 C1792 1.523 . S
C1792 C1776 1.368 . S
C1792 C1788 1.368 . S
C1792 C1791 1.523 . S
H1793 C1768 0.950 . S
H1794 C1770 0.950 . S
H1795 C1771 0.949 . S
H1796 C1773 0.950 . S
H1797 C1775 0.950 . S
C1798 C1799 1.349 . S
C1798 C1800 1.327 . S
C1798 H1823 0.950 . S
C1799 C1798 1.349 . S
C1799 C1815 1.349 . S
C1800 C1798 1.327 . S
C1800 C1819 1.429 . S
C1800 H1824 0.950 . S
C1801 C1818 1.574 . S
C1801 C1820 1.368 . S
C1801 H1825 0.949 . S
H1802 C1806 0.949 . S
C1803 C1804 1.349 . S
C1803 C1805 1.327 . S
C1803 H1826 0.950 . S
C1804 C1803 1.349 . S
C1804 C1816 1.349 . S
C1805 C1803 1.327 . S
C1805 C1821 1.429 . S
C1805 H1827 0.950 . S
C1806 H1802 0.949 . S
C1806 C1814 1.574 . S
C1806 C1822 1.368 . S
H1807 C1815 0.950 . S
H1808 C1813 0.950 . S
H1809 C1814 0.949 . S
H1810 C1816 0.950 . S
H1811 C1817 0.950 . S
H1812 C1818 0.949 . S
C1813 H1808 0.950 . S
C1813 C1815 1.327 . S
C1813 C1819 1.429 . S
C1814 C1806 1.574 . S
C1814 H1809 0.949 . S
C1814 C1820 1.368 . S
C1815 C1799 1.349 . S
C1815 H1807 0.950 . S
C1815 C1813 1.327 . S
C1816 C1804 1.349 . S
C1816 H1810 0.950 . S
C1816 C1817 1.327 . S
C1817 H1811 0.950 . S
C1817 C1816 1.327 . S
C1817 C1821 1.429 . S
C1818 C1801 1.574 . S
C1818 H1812 0.949 . S
C1818 C1822 1.368 . S
C1819 C1800 1.429 . S
C1819 C1813 1.429 . S
C1819 C1820 1.523 . S
C1820 C1801 1.368 . S
C1820 C1814 1.368 . S
C1820 C1819 1.523 . S
C1821 C1805 1.429 . S
C1821 C1817 1.429 . S
C1821 C1822 1.523 . S
C1822 C1806 1.368 . S
C1822 C1818 1.368 . S
C1822 C1821 1.523 . S
H1823 C1798 0.950 . S
H1824 C1800 0.950 . S
H1825 C1801 0.949 . S
H1826 C1803 0.950 . S
H1827 C1805 0.950 . S
C1828 C1829 1.349 . S
C1828 C1830 1.327 . S
C1828 H1853 0.950 . S
C1829 C1828 1.349 . S
C1829 C1845 1.349 . S
C1830 C1828 1.327 . S
C1830 C1849 1.429 . S
C1830 H1854 0.950 . S
C1831 C1848 1.574 . S
C1831 C1850 1.368 . S
C1831 H1855 0.949 . S
H1832 C1836 0.949 . S
C1833 C1834 1.349 . S
C1833 C1835 1.327 . S
C1833 H1856 0.950 . S
C1834 C1833 1.349 . S
C1834 C1846 1.349 . S
C1835 C1833 1.327 . S
C1835 C1851 1.429 . S
C1835 H1857 0.950 . S
C1836 H1832 0.949 . S
C1836 C1844 1.574 . S
C1836 C1852 1.368 . S
H1837 C1845 0.950 . S
H1838 C1843 0.950 . S
H1839 C1844 0.949 . S
H1840 C1846 0.950 . S
H1841 C1847 0.950 . S
H1842 C1848 0.949 . S
C1843 H1838 0.950 . S
C1843 C1845 1.327 . S
C1843 C1849 1.429 . S
C1844 C1836 1.574 . S
C1844 H1839 0.949 . S
C1844 C1850 1.368 . S
C1845 C1829 1.349 . S
C1845 H1837 0.950 . S
C1845 C1843 1.327 . S
C1846 C1834 1.349 . S
C1846 H1840 0.950 . S
C1846 C1847 1.327 . S
C1847 H1841 0.950 . S
C1847 C1846 1.327 . S
C1847 C1851 1.429 . S
C1848 C1831 1.574 . S
C1848 H1842 0.949 . S
C1848 C1852 1.368 . S
C1849 C1830 1.429 . S
C1849 C1843 1.429 . S
C1849 C1850 1.523 . S
C1850 C1831 1.368 . S
C1850 C1844 1.368 . S
C1850 C1849 1.523 . S
C1851 C1835 1.429 . S
C1851 C1847 1.429 . S
C1851 C1852 1.523 . S
C1852 C1836 1.368 . S
C1852 C1848 1.368 . S
C1852 C1851 1.523 . S
H1853 C1828 0.950 . S
H1854 C1830 0.950 . S
H1855 C1831 0.949 . S
H1856 C1833 0.950 . S
H1857 C1835 0.950 . S
C1858 C1859 1.349 . S
C1858 C1860 1.327 1_455 S
C1858 H1883 0.950 . S
C1859 C1858 1.349 . S
C1859 C1875 1.349 . S
C1860 C1858 1.327 1_655 S
C1860 C1879 1.429 . S
C1860 H1884 0.950 . S
C1861 C1878 1.574 . S
C1861 C1880 1.368 . S
C1861 H1885 0.949 . S
H1862 C1866 0.949 . S
C1863 C1864 1.349 . S
C1863 C1865 1.327 . S
C1863 H1886 0.950 . S
C1864 C1863 1.349 . S
C1864 C1876 1.349 . S
C1865 C1863 1.327 . S
C1865 C1881 1.429 . S
C1865 H1887 0.950 . S
C1866 H1862 0.949 . S
C1866 C1874 1.574 . S
C1866 C1882 1.368 . S
H1867 C1875 0.950 . S
H1868 C1873 0.950 . S
H1869 C1874 0.949 . S
H1870 C1876 0.950 . S
H1871 C1877 0.950 . S
H1872 C1878 0.949 . S
C1873 H1868 0.950 . S
C1873 C1875 1.327 . S
C1873 C1879 1.429 1_455 S
C1874 C1866 1.574 . S
C1874 H1869 0.949 . S
C1874 C1880 1.368 . S
C1875 C1859 1.349 . S
C1875 H1867 0.950 . S
C1875 C1873 1.327 . S
C1876 C1864 1.349 . S
C1876 H1870 0.950 . S
C1876 C1877 1.327 . S
C1877 H1871 0.950 . S
C1877 C1876 1.327 . S
C1877 C1881 1.429 . S
C1878 C1861 1.574 . S
C1878 H1872 0.949 . S
C1878 C1882 1.368 . S
C1879 C1860 1.429 . S
C1879 C1873 1.429 1_655 S
C1879 C1880 1.523 . S
C1880 C1861 1.368 . S
C1880 C1874 1.368 . S
C1880 C1879 1.523 . S
C1881 C1865 1.429 . S
C1881 C1877 1.429 . S
C1881 C1882 1.523 . S
C1882 C1866 1.368 . S
C1882 C1878 1.368 . S
C1882 C1881 1.523 . S
H1883 C1858 0.950 . S
H1884 C1860 0.950 . S
H1885 C1861 0.949 . S
H1886 C1863 0.950 . S
H1887 C1865 0.950 . S
C1888 C1889 1.349 . S
C1888 C1890 1.327 . S
C1888 H1913 0.950 . S
C1889 C1888 1.349 . S
C1889 C1905 1.349 . S
C1890 C1888 1.327 . S
C1890 C1909 1.429 . S
C1890 H1914 0.950 . S
C1891 C1908 1.574 . S
C1891 C1910 1.368 . S
C1891 H1915 0.949 . S
H1892 C1896 0.949 . S
C1893 C1894 1.349 . S
C1893 C1895 1.327 . S
C1893 H1916 0.950 . S
C1894 C1893 1.349 . S
C1894 C1906 1.349 . S
C1895 C1893 1.327 . S
C1895 C1911 1.429 . S
C1895 H1917 0.950 . S
C1896 H1892 0.949 . S
C1896 C1904 1.574 . S
C1896 C1912 1.368 . S
H1897 C1905 0.950 . S
H1898 C1903 0.950 . S
H1899 C1904 0.949 . S
H1900 C1906 0.950 . S
H1901 C1907 0.950 . S
H1902 C1908 0.949 . S
C1903 H1898 0.950 . S
C1903 C1905 1.327 . S
C1903 C1909 1.429 . S
C1904 C1896 1.574 . S
C1904 H1899 0.949 . S
C1904 C1910 1.368 . S
C1905 C1889 1.349 . S
C1905 H1897 0.950 . S
C1905 C1903 1.327 . S
C1906 C1894 1.349 . S
C1906 H1900 0.950 . S
C1906 C1907 1.327 . S
C1907 H1901 0.950 . S
C1907 C1906 1.327 . S
C1907 C1911 1.429 . S
C1908 C1891 1.574 . S
C1908 H1902 0.949 . S
C1908 C1912 1.368 . S
C1909 C1890 1.429 . S
C1909 C1903 1.429 . S
C1909 C1910 1.523 . S
C1910 C1891 1.368 . S
C1910 C1904 1.368 . S
C1910 C1909 1.523 . S
C1911 C1895 1.429 . S
C1911 C1907 1.429 . S
C1911 C1912 1.523 . S
C1912 C1896 1.368 . S
C1912 C1908 1.368 . S
C1912 C1911 1.523 . S
H1913 C1888 0.950 . S
H1914 C1890 0.950 . S
H1915 C1891 0.949 . S
H1916 C1893 0.950 . S
H1917 C1895 0.950 . S
C1918 C1919 1.349 . S
C1918 C1920 1.327 . S
C1918 H1943 0.950 . S
C1919 C1918 1.349 . S
C1919 C1935 1.349 . S
C1920 C1918 1.327 . S
C1920 C1939 1.429 . S
C1920 H1944 0.950 . S
C1921 C1938 1.574 . S
C1921 C1940 1.368 . S
C1921 H1945 0.949 . S
H1922 C1926 0.949 . S
C1923 C1924 1.349 . S
C1923 C1925 1.327 . S
C1923 H1946 0.950 . S
C1924 C1923 1.349 . S
C1924 C1936 1.349 . S
C1925 C1923 1.327 . S
C1925 C1941 1.429 . S
C1925 H1947 0.950 . S
C1926 H1922 0.949 . S
C1926 C1934 1.574 . S
C1926 C1942 1.368 . S
H1927 C1935 0.950 . S
H1928 C1933 0.950 . S
H1929 C1934 0.949 . S
H1930 C1936 0.950 . S
H1931 C1937 0.950 . S
H1932 C1938 0.949 . S
C1933 H1928 0.950 . S
C1933 C1935 1.327 . S
C1933 C1939 1.429 . S
C1934 C1926 1.574 . S
C1934 H1929 0.949 . S
C1934 C1940 1.368 . S
C1935 C1919 1.349 . S
C1935 H1927 0.950 . S
C1935 C1933 1.327 . S
C1936 C1924 1.349 . S
C1936 H1930 0.950 . S
C1936 C1937 1.327 . S
C1937 H1931 0.950 . S
C1937 C1936 1.327 . S
C1937 C1941 1.429 . S
C1938 C1921 1.574 . S
C1938 H1932 0.949 . S
C1938 C1942 1.368 . S
C1939 C1920 1.429 . S
C1939 C1933 1.429 . S
C1939 C1940 1.523 . S
C1940 C1921 1.368 . S
C1940 C1934 1.368 . S
C1940 C1939 1.523 . S
C1941 C1925 1.429 . S
C1941 C1937 1.429 . S
C1941 C1942 1.523 . S
C1942 C1926 1.368 . S
C1942 C1938 1.368 . S
C1942 C1941 1.523 . S
H1943 C1918 0.950 . S
H1944 C1920 0.950 . S
H1945 C1921 0.949 . S
H1946 C1923 0.950 . S
H1947 C1925 0.950 . S
C1948 C1949 1.349 . S
C1948 C1950 1.327 . S
C1948 H1973 0.950 . S
C1949 C1948 1.349 . S
C1949 C1965 1.349 . S
C1950 C1948 1.327 . S
C1950 C1969 1.429 . S
C1950 H1974 0.950 . S
C1951 C1968 1.574 . S
C1951 C1970 1.368 . S
C1951 H1975 0.949 . S
H1952 C1956 0.949 . S
C1953 C1954 1.349 . S
C1953 C1955 1.327 . S
C1953 H1976 0.950 . S
C1954 C1953 1.349 . S
C1954 C1966 1.349 . S
C1955 C1953 1.327 . S
C1955 C1971 1.429 . S
C1955 H1977 0.950 . S
C1956 H1952 0.949 . S
C1956 C1964 1.574 . S
C1956 C1972 1.368 . S
H1957 C1965 0.950 . S
H1958 C1963 0.950 . S
H1959 C1964 0.949 . S
H1960 C1966 0.950 . S
H1961 C1967 0.950 . S
H1962 C1968 0.949 . S
C1963 H1958 0.950 . S
C1963 C1965 1.327 . S
C1963 C1969 1.429 . S
C1964 C1956 1.574 . S
C1964 H1959 0.949 . S
C1964 C1970 1.368 . S
C1965 C1949 1.349 . S
C1965 H1957 0.950 . S
C1965 C1963 1.327 . S
C1966 C1954 1.349 . S
C1966 H1960 0.950 . S
C1966 C1967 1.327 . S
C1967 H1961 0.950 . S
C1967 C1966 1.327 . S
C1967 C1971 1.429 . S
C1968 C1951 1.574 . S
C1968 H1962 0.949 . S
C1968 C1972 1.368 . S
C1969 C1950 1.429 . S
C1969 C1963 1.429 . S
C1969 C1970 1.523 . S
C1970 C1951 1.368 . S
C1970 C1964 1.368 . S
C1970 C1969 1.523 . S
C1971 C1955 1.429 . S
C1971 C1967 1.429 . S
C1971 C1972 1.523 . S
C1972 C1956 1.368 . S
C1972 C1968 1.368 . S
C1972 C1971 1.523 . S
H1973 C1948 0.950 . S
H1974 C1950 0.950 . S
H1975 C1951 0.949 . S
H1976 C1953 0.950 . S
H1977 C1955 0.950 . S
C1978 C1979 1.349 . S
C1978 C1980 1.327 . S
C1978 H2003 0.950 . S
C1979 C1978 1.349 . S
C1979 C1995 1.349 . S
C1980 C1978 1.327 . S
C1980 C1999 1.429 . S
C1980 H2004 0.950 . S
C1981 C1998 1.574 . S
C1981 C2000 1.368 . S
C1981 H2005 0.949 . S
H1982 C1986 0.949 . S
C1983 C1984 1.349 . S
C1983 C1985 1.327 . S
C1983 H2006 0.950 . S
C1984 C1983 1.349 . S
C1984 C1996 1.349 . S
C1985 C1983 1.327 . S
C1985 C2001 1.429 1_455 S
C1985 H2007 0.950 . S
C1986 H1982 0.949 . S
C1986 C1994 1.574 . S
C1986 C2002 1.368 . S
H1987 C1995 0.950 . S
H1988 C1993 0.950 . S
H1989 C1994 0.949 . S
H1990 C1996 0.950 . S
H1991 C1997 0.950 . S
H1992 C1998 0.949 . S
C1993 H1988 0.950 . S
C1993 C1995 1.327 . S
C1993 C1999 1.429 . S
C1994 C1986 1.574 . S
C1994 H1989 0.949 . S
C1994 C2000 1.368 . S
C1995 C1979 1.349 . S
C1995 H1987 0.950 . S
C1995 C1993 1.327 . S
C1996 C1984 1.349 . S
C1996 H1990 0.950 . S
C1996 C1997 1.327 1_455 S
C1997 H1991 0.950 . S
C1997 C1996 1.327 1_655 S
C1997 C2001 1.429 . S
C1998 C1981 1.574 . S
C1998 H1992 0.949 . S
C1998 C2002 1.368 . S
C1999 C1980 1.429 . S
C1999 C1993 1.429 . S
C1999 C2000 1.523 . S
C2000 C1981 1.368 . S
C2000 C1994 1.368 . S
C2000 C1999 1.523 . S
C2001 C1985 1.429 1_655 S
C2001 C1997 1.429 . S
C2001 C2002 1.523 . S
C2002 C1986 1.368 . S
C2002 C1998 1.368 . S
C2002 C2001 1.523 . S
H2003 C1978 0.950 . S
H2004 C1980 0.950 . S
H2005 C1981 0.949 . S
H2006 C1983 0.950 . S
H2007 C1985 0.950 . S
C2008 C2009 1.349 . S
C2008 C2010 1.327 . S
C2008 H2033 0.950 . S
C2009 C2008 1.349 . S
C2009 C2025 1.349 . S
C2010 C2008 1.327 . S
C2010 C2029 1.429 . S
C2010 H2034 0.950 . S
C2011 C2028 1.574 . S
C2011 C2030 1.368 . S
C2011 H2035 0.949 . S
H2012 C2016 0.949 . S
C2013 C2014 1.349 . S
C2013 C2015 1.327 . S
C2013 H2036 0.950 . S
C2014 C2013 1.349 . S
C2014 C2026 1.349 . S
C2015 C2013 1.327 . S
C2015 C2031 1.429 . S
C2015 H2037 0.950 . S
C2016 H2012 0.949 . S
C2016 C2024 1.574 . S
C2016 C2032 1.368 . S
H2017 C2025 0.950 . S
H2018 C2023 0.950 . S
H2019 C2024 0.949 . S
H2020 C2026 0.950 . S
H2021 C2027 0.950 . S
H2022 C2028 0.949 . S
C2023 H2018 0.950 . S
C2023 C2025 1.327 . S
C2023 C2029 1.429 . S
C2024 C2016 1.574 . S
C2024 H2019 0.949 . S
C2024 C2030 1.368 . S
C2025 C2009 1.349 . S
C2025 H2017 0.950 . S
C2025 C2023 1.327 . S
C2026 C2014 1.349 . S
C2026 H2020 0.950 . S
C2026 C2027 1.327 . S
C2027 H2021 0.950 . S
C2027 C2026 1.327 . S
C2027 C2031 1.429 . S
C2028 C2011 1.574 . S
C2028 H2022 0.949 . S
C2028 C2032 1.368 . S
C2029 C2010 1.429 . S
C2029 C2023 1.429 . S
C2029 C2030 1.523 . S
C2030 C2011 1.368 . S
C2030 C2024 1.368 . S
C2030 C2029 1.523 . S
C2031 C2015 1.429 . S
C2031 C2027 1.429 . S
C2031 C2032 1.523 . S
C2032 C2016 1.368 . S
C2032 C2028 1.368 . S
C2032 C2031 1.523 . S
H2033 C2008 0.950 . S
H2034 C2010 0.950 . S
H2035 C2011 0.949 . S
H2036 C2013 0.950 . S
H2037 C2015 0.950 . S
C2038 C2039 1.349 . S
C2038 C2040 1.327 1_455 S
C2038 H2063 0.950 . S
C2039 C2038 1.349 . S
C2039 C2055 1.349 . S
C2040 C2038 1.327 1_655 S
C2040 C2059 1.429 . S
C2040 H2064 0.950 . S
C2041 C2058 1.574 . S
C2041 C2060 1.368 . S
C2041 H2065 0.949 . S
H2042 C2046 0.949 . S
C2043 C2044 1.349 . S
C2043 C2045 1.327 . S
C2043 H2066 0.950 . S
C2044 C2043 1.349 . S
C2044 C2056 1.349 . S
C2045 C2043 1.327 . S
C2045 C2061 1.429 . S
C2045 H2067 0.950 . S
C2046 H2042 0.949 . S
C2046 C2054 1.574 . S
C2046 C2062 1.368 . S
H2047 C2055 0.950 . S
H2048 C2053 0.950 . S
H2049 C2054 0.949 . S
H2050 C2056 0.950 . S
H2051 C2057 0.950 . S
H2052 C2058 0.949 . S
C2053 H2048 0.950 . S
C2053 C2055 1.327 . S
C2053 C2059 1.429 1_455 S
C2054 C2046 1.574 . S
C2054 H2049 0.949 . S
C2054 C2060 1.368 . S
C2055 C2039 1.349 . S
C2055 H2047 0.950 . S
C2055 C2053 1.327 . S
C2056 C2044 1.349 . S
C2056 H2050 0.950 . S
C2056 C2057 1.327 . S
C2057 H2051 0.950 . S
C2057 C2056 1.327 . S
C2057 C2061 1.429 . S
C2058 C2041 1.574 . S
C2058 H2052 0.949 . S
C2058 C2062 1.368 . S
C2059 C2040 1.429 . S
C2059 C2053 1.429 1_655 S
C2059 C2060 1.523 . S
C2060 C2041 1.368 . S
C2060 C2054 1.368 . S
C2060 C2059 1.523 . S
C2061 C2045 1.429 . S
C2061 C2057 1.429 . S
C2061 C2062 1.523 . S
C2062 C2046 1.368 . S
C2062 C2058 1.368 . S
C2062 C2061 1.523 . S
H2063 C2038 0.950 . S
H2064 C2040 0.950 . S
H2065 C2041 0.949 . S
H2066 C2043 0.950 . S
H2067 C2045 0.950 . S
C2068 C2069 1.349 . S
C2068 C2070 1.327 . S
C2068 H2093 0.950 . S
C2069 C2068 1.349 . S
C2069 C2085 1.349 . S
C2070 C2068 1.327 . S
C2070 C2089 1.429 . S
C2070 H2094 0.950 . S
C2071 C2088 1.574 . S
C2071 C2090 1.368 . S
C2071 H2095 0.949 . S
H2072 C2076 0.949 . S
C2073 C2074 1.349 . S
C2073 C2075 1.327 . S
C2073 H2096 0.950 . S
C2074 C2073 1.349 . S
C2074 C2086 1.349 . S
C2075 C2073 1.327 . S
C2075 C2091 1.429 . S
C2075 H2097 0.950 . S
C2076 H2072 0.949 . S
C2076 C2084 1.574 . S
C2076 C2092 1.368 . S
H2077 C2085 0.950 . S
H2078 C2083 0.950 . S
H2079 C2084 0.949 . S
H2080 C2086 0.950 . S
H2081 C2087 0.950 . S
H2082 C2088 0.949 . S
C2083 H2078 0.950 . S
C2083 C2085 1.327 . S
C2083 C2089 1.429 . S
C2084 C2076 1.574 . S
C2084 H2079 0.949 . S
C2084 C2090 1.368 . S
C2085 C2069 1.349 . S
C2085 H2077 0.950 . S
C2085 C2083 1.327 . S
C2086 C2074 1.349 . S
C2086 H2080 0.950 . S
C2086 C2087 1.327 . S
C2087 H2081 0.950 . S
C2087 C2086 1.327 . S
C2087 C2091 1.429 . S
C2088 C2071 1.574 . S
C2088 H2082 0.949 . S
C2088 C2092 1.368 . S
C2089 C2070 1.429 . S
C2089 C2083 1.429 . S
C2089 C2090 1.523 . S
C2090 C2071 1.368 . S
C2090 C2084 1.368 . S
C2090 C2089 1.523 . S
C2091 C2075 1.429 . S
C2091 C2087 1.429 . S
C2091 C2092 1.523 . S
C2092 C2076 1.368 . S
C2092 C2088 1.368 . S
C2092 C2091 1.523 . S
H2093 C2068 0.950 . S
H2094 C2070 0.950 . S
H2095 C2071 0.949 . S
H2096 C2073 0.950 . S
H2097 C2075 0.950 . S
C2098 C2099 1.349 . S
C2098 C2100 1.327 . S
C2098 H2123 0.950 . S
C2099 C2098 1.349 . S
C2099 C2115 1.349 . S
C2100 C2098 1.327 . S
C2100 C2119 1.429 . S
C2100 H2124 0.950 . S
C2101 C2118 1.574 . S
C2101 C2120 1.368 . S
C2101 H2125 0.949 . S
H2102 C2106 0.949 . S
C2103 C2104 1.349 . S
C2103 C2105 1.327 . S
C2103 H2126 0.950 . S
C2104 C2103 1.349 . S
C2104 C2116 1.349 . S
C2105 C2103 1.327 . S
C2105 C2121 1.429 . S
C2105 H2127 0.950 . S
C2106 H2102 0.949 . S
C2106 C2114 1.574 . S
C2106 C2122 1.368 . S
H2107 C2115 0.950 . S
H2108 C2113 0.950 . S
H2109 C2114 0.949 . S
H2110 C2116 0.950 . S
H2111 C2117 0.950 . S
H2112 C2118 0.949 . S
C2113 H2108 0.950 . S
C2113 C2115 1.327 . S
C2113 C2119 1.429 . S
C2114 C2106 1.574 . S
C2114 H2109 0.949 . S
C2114 C2120 1.368 . S
C2115 C2099 1.349 . S
C2115 H2107 0.950 . S
C2115 C2113 1.327 . S
C2116 C2104 1.349 . S
C2116 H2110 0.950 . S
C2116 C2117 1.327 . S
C2117 H2111 0.950 . S
C2117 C2116 1.327 . S
C2117 C2121 1.429 . S
C2118 C2101 1.574 . S
C2118 H2112 0.949 . S
C2118 C2122 1.368 . S
C2119 C2100 1.429 . S
C2119 C2113 1.429 . S
C2119 C2120 1.523 . S
C2120 C2101 1.368 . S
C2120 C2114 1.368 . S
C2120 C2119 1.523 . S
C2121 C2105 1.429 . S
C2121 C2117 1.429 . S
C2121 C2122 1.523 . S
C2122 C2106 1.368 . S
C2122 C2118 1.368 . S
C2122 C2121 1.523 . S
H2123 C2098 0.950 . S
H2124 C2100 0.950 . S
H2125 C2101 0.949 . S
H2126 C2103 0.950 . S
H2127 C2105 0.950 . S
C2128 C2129 1.349 . S
C2128 C2130 1.327 . S
C2128 H2153 0.950 . S
C2129 C2128 1.349 . S
C2129 C2145 1.349 . S
C2130 C2128 1.327 . S
C2130 C2149 1.429 . S
C2130 H2154 0.950 . S
C2131 C2148 1.574 . S
C2131 C2150 1.368 . S
C2131 H2155 0.949 . S
H2132 C2136 0.949 . S
C2133 C2134 1.349 . S
C2133 C2135 1.327 . S
C2133 H2156 0.950 . S
C2134 C2133 1.349 . S
C2134 C2146 1.349 . S
C2135 C2133 1.327 . S
C2135 C2151 1.429 . S
C2135 H2157 0.950 . S
C2136 H2132 0.949 . S
C2136 C2144 1.574 . S
C2136 C2152 1.368 . S
H2137 C2145 0.950 . S
H2138 C2143 0.950 . S
H2139 C2144 0.949 . S
H2140 C2146 0.950 . S
H2141 C2147 0.950 . S
H2142 C2148 0.949 . S
C2143 H2138 0.950 . S
C2143 C2145 1.327 . S
C2143 C2149 1.429 . S
C2144 C2136 1.574 . S
C2144 H2139 0.949 . S
C2144 C2150 1.368 . S
C2145 C2129 1.349 . S
C2145 H2137 0.950 . S
C2145 C2143 1.327 . S
C2146 C2134 1.349 . S
C2146 H2140 0.950 . S
C2146 C2147 1.327 . S
C2147 H2141 0.950 . S
C2147 C2146 1.327 . S
C2147 C2151 1.429 . S
C2148 C2131 1.574 . S
C2148 H2142 0.949 . S
C2148 C2152 1.368 . S
C2149 C2130 1.429 . S
C2149 C2143 1.429 . S
C2149 C2150 1.523 . S
C2150 C2131 1.368 . S
C2150 C2144 1.368 . S
C2150 C2149 1.523 . S
C2151 C2135 1.429 . S
C2151 C2147 1.429 . S
C2151 C2152 1.523 . S
C2152 C2136 1.368 . S
C2152 C2148 1.368 . S
C2152 C2151 1.523 . S
H2153 C2128 0.950 . S
H2154 C2130 0.950 . S
H2155 C2131 0.949 . S
H2156 C2133 0.950 . S
H2157 C2135 0.950 . S
C2158 C2159 1.349 . S
C2158 C2160 1.327 . S
C2158 H2183 0.950 . S
C2159 C2158 1.349 . S
C2159 C2175 1.349 . S
C2160 C2158 1.327 . S
C2160 C2179 1.429 . S
C2160 H2184 0.950 . S
C2161 C2178 1.574 . S
C2161 C2180 1.368 . S
C2161 H2185 0.949 . S
H2162 C2166 0.949 . S
C2163 C2164 1.349 . S
C2163 C2165 1.327 . S
C2163 H2186 0.950 . S
C2164 C2163 1.349 . S
C2164 C2176 1.349 . S
C2165 C2163 1.327 . S
C2165 C2181 1.429 . S
C2165 H2187 0.950 . S
C2166 H2162 0.949 . S
C2166 C2174 1.574 . S
C2166 C2182 1.368 . S
H2167 C2175 0.950 . S
H2168 C2173 0.950 . S
H2169 C2174 0.949 . S
H2170 C2176 0.950 . S
H2171 C2177 0.950 . S
H2172 C2178 0.949 . S
C2173 H2168 0.950 . S
C2173 C2175 1.327 . S
C2173 C2179 1.429 . S
C2174 C2166 1.574 . S
C2174 H2169 0.949 . S
C2174 C2180 1.368 . S
C2175 C2159 1.349 . S
C2175 H2167 0.950 . S
C2175 C2173 1.327 . S
C2176 C2164 1.349 . S
C2176 H2170 0.950 . S
C2176 C2177 1.327 . S
C2177 H2171 0.950 . S
C2177 C2176 1.327 . S
C2177 C2181 1.429 . S
C2178 C2161 1.574 . S
C2178 H2172 0.949 . S
C2178 C2182 1.368 . S
C2179 C2160 1.429 . S
C2179 C2173 1.429 . S
C2179 C2180 1.523 . S
C2180 C2161 1.368 . S
C2180 C2174 1.368 . S
C2180 C2179 1.523 . S
C2181 C2165 1.429 . S
C2181 C2177 1.429 . S
C2181 C2182 1.523 . S
C2182 C2166 1.368 . S
C2182 C2178 1.368 . S
C2182 C2181 1.523 . S
H2183 C2158 0.950 . S
H2184 C2160 0.950 . S
H2185 C2161 0.949 . S
H2186 C2163 0.950 . S
H2187 C2165 0.950 . S
C2188 C2189 1.349 . S
C2188 C2190 1.327 . S
C2188 H2213 0.950 . S
C2189 C2188 1.349 . S
C2189 C2205 1.349 . S
C2190 C2188 1.327 . S
C2190 C2209 1.429 . S
C2190 H2214 0.950 . S
C2191 C2208 1.574 . S
C2191 C2210 1.368 . S
C2191 H2215 0.949 . S
H2192 C2196 0.949 . S
C2193 C2194 1.349 . S
C2193 C2195 1.327 . S
C2193 H2216 0.950 . S
C2194 C2193 1.349 . S
C2194 C2206 1.349 . S
C2195 C2193 1.327 . S
C2195 C2211 1.429 . S
C2195 H2217 0.950 . S
C2196 H2192 0.949 . S
C2196 C2204 1.574 . S
C2196 C2212 1.368 . S
H2197 C2205 0.950 . S
H2198 C2203 0.950 . S
H2199 C2204 0.949 . S
H2200 C2206 0.950 . S
H2201 C2207 0.950 . S
H2202 C2208 0.949 . S
C2203 H2198 0.950 . S
C2203 C2205 1.327 . S
C2203 C2209 1.429 . S
C2204 C2196 1.574 . S
C2204 H2199 0.949 . S
C2204 C2210 1.368 . S
C2205 C2189 1.349 . S
C2205 H2197 0.950 . S
C2205 C2203 1.327 . S
C2206 C2194 1.349 . S
C2206 H2200 0.950 . S
C2206 C2207 1.327 . S
C2207 H2201 0.950 . S
C2207 C2206 1.327 . S
C2207 C2211 1.429 . S
C2208 C2191 1.574 . S
C2208 H2202 0.949 . S
C2208 C2212 1.368 . S
C2209 C2190 1.429 . S
C2209 C2203 1.429 . S
C2209 C2210 1.523 . S
C2210 C2191 1.368 . S
C2210 C2204 1.368 . S
C2210 C2209 1.523 . S
C2211 C2195 1.429 . S
C2211 C2207 1.429 . S
C2211 C2212 1.523 . S
C2212 C2196 1.368 . S
C2212 C2208 1.368 . S
C2212 C2211 1.523 . S
H2213 C2188 0.950 . S
H2214 C2190 0.950 . S
H2215 C2191 0.949 . S
H2216 C2193 0.950 . S
H2217 C2195 0.950 . S
C2218 C2219 1.349 . S
C2218 C2220 1.327 . S
C2218 H2243 0.950 . S
C2219 C2218 1.349 . S
C2219 C2235 1.349 . S
C2220 C2218 1.327 . S
C2220 C2239 1.429 1_655 S
C2220 H2244 0.953 . S
C2221 C2238 1.574 . S
C2221 C2240 1.368 . S
C2221 H2245 0.949 . S
H2222 C2226 0.949 . S
C2223 C2224 1.349 . S
C2223 C2225 1.327 . S
C2223 H2246 0.950 . S
C2224 C2223 1.349 . S
C2224 C2236 1.349 . S
C2225 C2223 1.327 . S
C2225 C2241 1.429 . S
C2225 H2247 0.950 . S
C2226 H2222 0.949 . S
C2226 C2234 1.574 . S
C2226 C2242 1.368 . S
H2227 C2235 0.950 . S
H2228 C2233 0.947 1_455 S
H2229 C2234 0.949 . S
H2230 C2236 0.950 . S
H2231 C2237 0.950 . S
H2232 C2238 0.949 . S
C2233 H2228 0.947 1_655 S
C2233 C2235 1.332 . S
C2233 C2239 1.427 1_655 S
C2234 C2226 1.574 . S
C2234 H2229 0.949 . S
C2234 C2240 1.368 . S
C2235 C2219 1.349 . S
C2235 H2227 0.950 . S
C2235 C2233 1.332 . S
C2236 C2224 1.349 . S
C2236 H2230 0.950 . S
C2236 C2237 1.327 . S
C2237 H2231 0.950 . S
C2237 C2236 1.327 . S
C2237 C2241 1.429 . S
C2238 C2221 1.574 . S
C2238 H2232 0.949 . S
C2238 C2242 1.368 . S
C2239 C2220 1.429 1_455 S
C2239 C2233 1.427 1_455 S
C2239 C2240 1.523 . S
C2240 C2221 1.368 . S
C2240 C2234 1.368 . S
C2240 C2239 1.523 . S
C2241 C2225 1.429 . S
C2241 C2237 1.429 . S
C2241 C2242 1.523 . S
C2242 C2226 1.368 . S
C2242 C2238 1.368 . S
C2242 C2241 1.523 . S
H2243 C2218 0.950 . S
H2244 C2220 0.953 . S
H2245 C2221 0.949 . S
H2246 C2223 0.950 . S
H2247 C2225 0.950 . S
C2248 C2249 1.349 . S
C2248 C2250 1.327 . S
C2248 H2273 0.950 . S
C2249 C2248 1.349 . S
C2249 C2265 1.349 . S
C2250 C2248 1.327 . S
C2250 C2269 1.429 . S
C2250 H2274 0.950 . S
C2251 C2268 1.574 . S
C2251 C2270 1.368 . S
C2251 H2275 0.949 . S
H2252 C2256 0.949 . S
C2253 C2254 1.349 . S
C2253 C2255 1.327 . S
C2253 H2276 0.950 . S
C2254 C2253 1.349 . S
C2254 C2266 1.349 . S
C2255 C2253 1.327 . S
C2255 C2271 1.429 . S
C2255 H2277 0.950 . S
C2256 H2252 0.949 . S
C2256 C2264 1.574 . S
C2256 C2272 1.368 . S
H2257 C2265 0.950 . S
H2258 C2263 0.950 . S
H2259 C2264 0.949 . S
H2260 C2266 0.950 . S
H2261 C2267 0.950 . S
H2262 C2268 0.949 . S
C2263 H2258 0.950 . S
C2263 C2265 1.327 . S
C2263 C2269 1.429 . S
C2264 C2256 1.574 . S
C2264 H2259 0.949 . S
C2264 C2270 1.368 . S
C2265 C2249 1.349 . S
C2265 H2257 0.950 . S
C2265 C2263 1.327 . S
C2266 C2254 1.349 . S
C2266 H2260 0.950 . S
C2266 C2267 1.327 . S
C2267 H2261 0.950 . S
C2267 C2266 1.327 . S
C2267 C2271 1.429 . S
C2268 C2251 1.574 . S
C2268 H2262 0.949 . S
C2268 C2272 1.368 . S
C2269 C2250 1.429 . S
C2269 C2263 1.429 . S
C2269 C2270 1.523 . S
C2270 C2251 1.368 . S
C2270 C2264 1.368 . S
C2270 C2269 1.523 . S
C2271 C2255 1.429 . S
C2271 C2267 1.429 . S
C2271 C2272 1.523 . S
C2272 C2256 1.368 . S
C2272 C2268 1.368 . S
C2272 C2271 1.523 . S
H2273 C2248 0.950 . S
H2274 C2250 0.950 . S
H2275 C2251 0.949 . S
H2276 C2253 0.950 . S
H2277 C2255 0.950 . S
C2278 C2279 1.349 . S
C2278 C2280 1.327 . S
C2278 H2303 0.950 . S
C2279 C2278 1.349 . S
C2279 C2295 1.349 . S
C2280 C2278 1.327 . S
C2280 C2299 1.429 . S
C2280 H2304 0.950 . S
C2281 C2298 1.574 . S
C2281 C2300 1.368 . S
C2281 H2305 0.949 . S
H2282 C2286 0.949 . S
C2283 C2284 1.349 . S
C2283 C2285 1.327 1_655 S
C2283 H2306 0.950 . S
C2284 C2283 1.349 . S
C2284 C2296 1.349 . S
C2285 C2283 1.327 1_455 S
C2285 C2301 1.429 . S
C2285 H2307 0.950 . S
C2286 H2282 0.949 . S
C2286 C2294 1.574 . S
C2286 C2302 1.368 . S
H2287 C2295 0.950 . S
H2288 C2293 0.950 . S
H2289 C2294 0.949 . S
H2290 C2296 0.950 . S
H2291 C2297 0.950 . S
H2292 C2298 0.949 . S
C2293 H2288 0.950 . S
C2293 C2295 1.327 . S
C2293 C2299 1.429 . S
C2294 C2286 1.574 . S
C2294 H2289 0.949 . S
C2294 C2300 1.368 . S
C2295 C2279 1.349 . S
C2295 H2287 0.950 . S
C2295 C2293 1.327 . S
C2296 C2284 1.349 . S
C2296 H2290 0.950 . S
C2296 C2297 1.327 . S
C2297 H2291 0.950 . S
C2297 C2296 1.327 . S
C2297 C2301 1.429 1_655 S
C2298 C2281 1.574 . S
C2298 H2292 0.949 . S
C2298 C2302 1.368 . S
C2299 C2280 1.429 . S
C2299 C2293 1.429 . S
C2299 C2300 1.523 . S
C2300 C2281 1.368 . S
C2300 C2294 1.368 . S
C2300 C2299 1.523 . S
C2301 C2285 1.429 . S
C2301 C2297 1.429 1_455 S
C2301 C2302 1.523 . S
C2302 C2286 1.368 . S
C2302 C2298 1.368 . S
C2302 C2301 1.523 . S
H2303 C2278 0.950 . S
H2304 C2280 0.950 . S
H2305 C2281 0.949 . S
H2306 C2283 0.950 . S
H2307 C2285 0.950 . S
C2308 C2309 1.349 . S
C2308 C2310 1.327 . S
C2308 H2333 0.950 . S
C2309 C2308 1.349 . S
C2309 C2325 1.349 . S
C2310 C2308 1.327 . S
C2310 C2329 1.429 . S
C2310 H2334 0.950 . S
C2311 C2328 1.574 . S
C2311 C2330 1.368 . S
C2311 H2335 0.949 . S
H2312 C2316 0.949 . S
C2313 C2314 1.349 . S
C2313 C2315 1.327 . S
C2313 H2336 0.950 . S
C2314 C2313 1.349 . S
C2314 C2326 1.349 . S
C2315 C2313 1.327 . S
C2315 C2331 1.429 . S
C2315 H2337 0.950 . S
C2316 H2312 0.949 . S
C2316 C2324 1.574 . S
C2316 C2332 1.368 . S
H2317 C2325 0.950 . S
H2318 C2323 0.950 . S
H2319 C2324 0.949 . S
H2320 C2326 0.950 . S
H2321 C2327 0.950 . S
H2322 C2328 0.949 . S
C2323 H2318 0.950 . S
C2323 C2325 1.327 . S
C2323 C2329 1.429 . S
C2324 C2316 1.574 . S
C2324 H2319 0.949 . S
C2324 C2330 1.368 . S
C2325 C2309 1.349 . S
C2325 H2317 0.950 . S
C2325 C2323 1.327 . S
C2326 C2314 1.349 . S
C2326 H2320 0.950 . S
C2326 C2327 1.327 . S
C2327 H2321 0.950 . S
C2327 C2326 1.327 . S
C2327 C2331 1.429 . S
C2328 C2311 1.574 . S
C2328 H2322 0.949 . S
C2328 C2332 1.368 . S
C2329 C2310 1.429 . S
C2329 C2323 1.429 . S
C2329 C2330 1.523 . S
C2330 C2311 1.368 . S
C2330 C2324 1.368 . S
C2330 C2329 1.523 . S
C2331 C2315 1.429 . S
C2331 C2327 1.429 . S
C2331 C2332 1.523 . S
C2332 C2316 1.368 . S
C2332 C2328 1.368 . S
C2332 C2331 1.523 . S
H2333 C2308 0.950 . S
H2334 C2310 0.950 . S
H2335 C2311 0.949 . S
H2336 C2313 0.950 . S
H2337 C2315 0.950 . S
C2338 C2339 1.349 . S
C2338 C2340 1.327 . S
C2338 H2363 0.950 . S
C2339 C2338 1.349 . S
C2339 C2355 1.349 . S
C2340 C2338 1.327 . S
C2340 C2359 1.429 . S
C2340 H2364 0.950 . S
C2341 C2358 1.574 . S
C2341 C2360 1.368 . S
C2341 H2365 0.949 . S
H2342 C2346 0.949 . S
C2343 C2344 1.349 . S
C2343 C2345 1.327 . S
C2343 H2366 0.950 . S
C2344 C2343 1.349 . S
C2344 C2356 1.349 . S
C2345 C2343 1.327 . S
C2345 C2361 1.429 . S
C2345 H2367 0.950 . S
C2346 H2342 0.949 . S
C2346 C2354 1.574 . S
C2346 C2362 1.368 . S
H2347 C2355 0.950 . S
H2348 C2353 0.950 . S
H2349 C2354 0.949 . S
H2350 C2356 0.950 . S
H2351 C2357 0.950 . S
H2352 C2358 0.949 . S
C2353 H2348 0.950 . S
C2353 C2355 1.327 . S
C2353 C2359 1.429 . S
C2354 C2346 1.574 . S
C2354 H2349 0.949 . S
C2354 C2360 1.368 . S
C2355 C2339 1.349 . S
C2355 H2347 0.950 . S
C2355 C2353 1.327 . S
C2356 C2344 1.349 . S
C2356 H2350 0.950 . S
C2356 C2357 1.327 . S
C2357 H2351 0.950 . S
C2357 C2356 1.327 . S
C2357 C2361 1.429 . S
C2358 C2341 1.574 . S
C2358 H2352 0.949 . S
C2358 C2362 1.368 . S
C2359 C2340 1.429 . S
C2359 C2353 1.429 . S
C2359 C2360 1.523 . S
C2360 C2341 1.368 . S
C2360 C2354 1.368 . S
C2360 C2359 1.523 . S
C2361 C2345 1.429 . S
C2361 C2357 1.429 . S
C2361 C2362 1.523 . S
C2362 C2346 1.368 . S
C2362 C2358 1.368 . S
C2362 C2361 1.523 . S
H2363 C2338 0.950 . S
H2364 C2340 0.950 . S
H2365 C2341 0.949 . S
H2366 C2343 0.950 . S
H2367 C2345 0.950 . S
C449 C64 1.513 . S
C454 C8 1.513 . S
C479 C78 1.513 . S
C484 C22 1.513 . S
C509 C92 1.513 . S
C514 C36 1.513 . S
C539 C50 1.513 . S
C544 C106 1.513 . S
C569 C120 1.513 . S
C574 C176 1.513 . S
C599 C190 1.513 . S
C604 C134 1.513 . S
C629 C148 1.513 . S
C634 C204 1.513 . S
C659 C218 1.513 . S
C664 C162 1.513 . S
C689 C232 1.513 . S
C694 C288 1.513 . S
C719 C302 1.513 . S
C724 C246 1.513 . S
C749 C316 1.513 . S
C754 C260 1.513 . S
C779 C330 1.513 . S
C784 C274 1.513 . S
C809 C344 1.513 . S
C814 C400 1.513 . S
C839 C358 1.513 . S
C844 C414 1.513 . S
C869 C372 1.513 . S
C874 C428 1.513 . S
C899 C386 1.513 . S
C904 C442 1.513 . S
C929 C7 1.196 . S
C934 C105 1.196 . S
C959 C21 1.196 . S
C964 C63 1.196 . S
C989 C35 1.196 . S
C994 C77 1.196 . S
C1019 C91 1.196 . S
C1024 C49 1.196 . S
C1049 C217 1.196 . S
C1054 C119 1.196 . S
C1079 C175 1.196 . S
C1084 C133 1.196 . S
C1109 C189 1.196 . S
C1114 C147 1.196 . S
C1139 C161 1.196 . S
C1144 C203 1.196 . S
C1169 C329 1.196 . S
C1174 C231 1.196 . S
C1199 C287 1.196 . S
C1204 C245 1.196 . S
C1229 C301 1.196 . S
C1234 C259 1.196 . S
C1259 C273 1.196 . S
C1264 C315 1.196 . S
C1289 C343 1.196 . S
C1294 C441 1.196 . S
C1319 C357 1.196 . S
C1324 C399 1.196 . S
C1349 C371 1.196 . S
C1354 C413 1.196 . S
C1379 C427 1.196 . S
C1384 C385 1.196 . S
C1409 C9 1.434 . S
C1414 C353 1.439 . S
C1439 C23 1.434 . S
C1444 C143 1.439 . S
C1469 C37 1.434 . S
C1474 C381 1.439 . S
C1499 C115 1.439 . S
C1504 C51 1.434 . S
C1529 C437 1.439 . S
C1534 C65 1.434 . S
C1559 C79 1.434 . S
C1564 C171 1.439 . S
C1589 C93 1.434 . S
C1594 C409 1.439 . S
C1619 C107 1.434 . S
C1624 C199 1.439 . S
C1649 C241 1.439 . S
C1654 C121 1.434 . S
C1679 C31 1.439 . S
C1684 C135 1.434 . S
C1709 C269 1.439 . S
C1714 C149 1.434 . S
C1739 C163 1.434 . S
C1744 C3 1.439 . S
C1769 C325 1.439 . S
C1774 C177 1.434 . S
C1799 C59 1.439 . S
C1804 C191 1.434 . S
C1829 C297 1.439 . S
C1834 C205 1.434 . S
C1859 C87 1.439 . S
C1864 C219 1.434 . S
C1889 C129 1.439 . S
C1894 C233 1.434 . S
C1919 C247 1.434 . S
C1924 C367 1.439 . S
C1949 C261 1.434 . S
C1954 C157 1.439 . S
C1979 C275 1.434 . S
C1984 C339 1.439 . S
C2009 C289 1.434 . S
C2014 C213 1.439 . S
C2039 C395 1.439 . S
C2044 C303 1.434 . S
C2069 C317 1.434 . S
C2074 C185 1.439 . S
C2099 C331 1.434 . S
C2104 C423 1.439 . S
C2129 C345 1.434 . S
C2134 C17 1.439 . S
C2159 C359 1.434 . S
C2164 C255 1.439 . S
C2189 C45 1.439 . S
C2194 C373 1.434 . S
C2219 C227 1.439 . S
C2224 C387 1.434 . S
C2249 C401 1.434 . S
C2254 C101 1.439 . S
C2279 C415 1.434 . S
C2284 C283 1.439 . S
C2309 C73 1.439 . S
C2314 C429 1.434 . S
C2339 C311 1.439 . S
C2344 C443 1.434 . S
