# Generated by pormake.
# Topology yfz, (5)-cn, num edge types: 1
# Building blocks:
#     Node 0, Type 0, BuildingBlock: XOMCOT_clean_sbu_0, # of connection points: 5
#     Node 1, Type 0, BuildingBlock: XOMCOT_clean_sbu_0, # of connection points: 5
#     Node 2, Type 0, BuildingBlock: XOMCOT_clean_sbu_0, # of connection points: 5
#     Node 3, Type 0, BuildingBlock: XOMCOT_clean_sbu_0, # of connection points: 5
#     Node 4, Type 0, BuildingBlock: XOMCOT_clean_sbu_0, # of connection points: 5
#     Node 5, Type 0, BuildingBlock: XOMCOT_clean_sbu_0, # of connection points: 5
#     Node 6, Type 0, BuildingBlock: XOMCOT_clean_sbu_0, # of connection points: 5
#     Node 7, Type 0, BuildingBlock: XOMCOT_clean_sbu_0, # of connection points: 5
#     Edge 8, Type (0, 0), BuildingBlock: TEMPAE_clean_linker_10, # of connection points: 2
#     Edge 9, Type (0, 0), BuildingBlock: TEMPAE_clean_linker_10, # of connection points: 2
#     Edge 10, Type (0, 0), BuildingBlock: TEMPAE_clean_linker_10, # of connection points: 2
#     Edge 11, Type (0, 0), BuildingBlock: TEMPAE_clean_linker_10, # of connection points: 2
#     Edge 12, Type (0, 0), BuildingBlock: TEMPAE_clean_linker_10, # of connection points: 2
#     Edge 13, Type (0, 0), BuildingBlock: TEMPAE_clean_linker_10, # of connection points: 2
#     Edge 14, Type (0, 0), BuildingBlock: TEMPAE_clean_linker_10, # of connection points: 2
#     Edge 15, Type (0, 0), BuildingBlock: TEMPAE_clean_linker_10, # of connection points: 2
#     Edge 16, Type (0, 0), BuildingBlock: TEMPAE_clean_linker_10, # of connection points: 2
#     Edge 17, Type (0, 0), BuildingBlock: TEMPAE_clean_linker_10, # of connection points: 2
#     Edge 18, Type (0, 0), BuildingBlock: TEMPAE_clean_linker_10, # of connection points: 2
#     Edge 19, Type (0, 0), BuildingBlock: TEMPAE_clean_linker_10, # of connection points: 2
#     Edge 20, Type (0, 0), BuildingBlock: TEMPAE_clean_linker_10, # of connection points: 2
#     Edge 21, Type (0, 0), BuildingBlock: TEMPAE_clean_linker_10, # of connection points: 2
#     Edge 22, Type (0, 0), BuildingBlock: TEMPAE_clean_linker_10, # of connection points: 2
#     Edge 23, Type (0, 0), BuildingBlock: TEMPAE_clean_linker_10, # of connection points: 2
#     Edge 24, Type (0, 0), BuildingBlock: TEMPAE_clean_linker_10, # of connection points: 2
#     Edge 25, Type (0, 0), BuildingBlock: TEMPAE_clean_linker_10, # of connection points: 2
#     Edge 26, Type (0, 0), BuildingBlock: TEMPAE_clean_linker_10, # of connection points: 2
#     Edge 27, Type (0, 0), BuildingBlock: TEMPAE_clean_linker_10, # of connection points: 2
# Relax obj value: 0.170
# Max RMSD: 0.157
# Mean RMSD: 0.157
data_MOF--net-yfz--node1-XOMCOT_clean_sbu_0--edge1-TEMPAE_clean_linker_10
_symmetry_space_group_name_H-M    P1
_symmetry_Int_Tables_number       1
_symmetry_cell_setting            triclinic
loop_
_symmetry_equiv_pos_as_xyz
'x, y, z'
_cell_length_a     51.99977
_cell_length_b     51.998645
_cell_length_c     17.684743
_cell_angle_alpha  89.991496
_cell_angle_beta   89.902088
_cell_angle_gamma 90.066254
loop_
_atom_site_label
_atom_site_type_symbol
_atom_site_fract_x
_atom_site_fract_y
_atom_site_fract_z
_atom_type_partial_charge
Co0 Co 0.56263 0.09827 0.3077 0.0
C1 C 0.55962 0.09142 0.13987 0.0
C2 C 0.52438 0.08193 0.19604 0.0
C3 C 0.5204 0.08057 0.11913 0.0
N4 N 0.5491 0.08843 0.20931 0.0
N5 N 0.54264 0.08648 0.08414 0.0
H6 H 0.57856 0.09888 0.12899 0.0
H7 H 0.50988 0.07949 0.23937 0.0
C8 C 0.5404 0.0455 0.33672 0.0
O9 O 0.55143 0.03693 0.27476 0.0
N10 N 0.57511 0.10826 0.40609 0.0
C11 C 0.59704 0.1208 0.42302 0.0
C12 C 0.59875 0.12302 0.5007 0.0
C13 C 0.5638 0.10308 0.473 0.0
N14 N 0.57789 0.11168 0.53173 0.0
C15 C 0.6116 0.0873 0.24242 0.0
C16 C 0.62524 0.04691 0.33523 0.0
C17 C 0.64287 0.05554 0.28053 0.0
C18 C 0.63563 0.07599 0.23392 0.0
C19 C 0.60097 0.05864 0.34107 0.0
N20 N 0.59403 0.07814 0.29319 0.0
H21 H 0.60798 0.10456 0.21085 0.0
H22 H 0.5884 0.05283 0.38659 0.0
H23 H 0.61098 0.12743 0.38195 0.0
H24 H 0.54557 0.09325 0.47886 0.0
O25 O 0.57456 0.13029 0.26557 0.0
O26 O 0.53589 0.12438 0.31502 0.0
O27 O 0.54344 0.06889 0.35684 0.0
C28 C 0.55221 0.13981 0.28215 0.0
H29 H 0.50241 0.07623 0.09113 0.0
H30 H 0.61446 0.13158 0.53195 0.0
H31 H 0.63039 0.03173 0.37429 0.0
H32 H 0.64906 0.08435 0.19394 0.0
Co33 Co 0.3784 0.56261 0.81712 0.0
C34 C 0.37835 0.55556 0.6496 0.0
C35 C 0.40346 0.52856 0.70279 0.0
C36 C 0.40424 0.52452 0.62581 0.0
N37 N 0.38801 0.54881 0.7179 0.0
N38 N 0.38843 0.54157 0.59259 0.0
H39 H 0.36387 0.57015 0.64116 0.0
H40 H 0.41292 0.5167 0.7443 0.0
C41 C 0.43158 0.54332 0.85714 0.0
O42 O 0.4416 0.5572 0.8024 0.0
N43 N 0.36834 0.57544 0.91539 0.0
C44 C 0.35886 0.59885 0.93211 0.0
C45 C 0.35634 0.60078 0.00957 0.0
C46 C 0.37103 0.56328 0.98228 0.0
N47 N 0.36402 0.57839 0.04089 0.0
C48 C 0.39458 0.6083 0.74017 0.0
C49 C 0.42705 0.62687 0.85086 0.0
C50 C 0.42235 0.64205 0.7867 0.0
C51 C 0.40613 0.63222 0.73068 0.0
C52 C 0.41537 0.60261 0.85752 0.0
N53 N 0.39945 0.59343 0.80205 0.0
H54 H 0.38033 0.60273 0.69972 0.0
H55 H 0.41823 0.59172 0.90888 0.0
H56 H 0.3548 0.61371 0.89103 0.0
H57 H 0.37883 0.54411 0.9882 0.0
O58 O 0.34677 0.57546 0.77525 0.0
O59 O 0.35175 0.53655 0.82444 0.0
O60 O 0.40727 0.54314 0.86784 0.0
C61 C 0.33671 0.55329 0.79211 0.0
H62 H 0.41503 0.50972 0.59671 0.0
H63 H 0.34962 0.61744 0.04048 0.0
H64 H 0.43904 0.63397 0.89633 0.0
H65 H 0.40096 0.64369 0.68187 0.0
Co66 Co 0.91383 0.37461 0.33538 0.0
C67 C 0.91729 0.381 0.16811 0.0
C68 C 0.95382 0.38515 0.22277 0.0
C69 C 0.95761 0.38622 0.14573 0.0
N70 N 0.92851 0.38206 0.23688 0.0
N71 N 0.93459 0.38362 0.11164 0.0
H72 H 0.89725 0.37691 0.15859 0.0
H73 H 0.96861 0.38574 0.26566 0.0
C74 C 0.93813 0.42716 0.35376 0.0
O75 O 0.93037 0.43376 0.2858 0.0
N76 N 0.8999 0.36692 0.43379 0.0
C77 C 0.87735 0.35546 0.45051 0.0
C78 C 0.87512 0.35384 0.52816 0.0
C79 C 0.91109 0.37201 0.50076 0.0
N80 N 0.89631 0.3644 0.55941 0.0
C81 C 0.86443 0.38153 0.26982 0.0
C82 C 0.85244 0.42892 0.33003 0.0
C83 C 0.8339 0.41635 0.28514 0.0
C84 C 0.84037 0.39206 0.25639 0.0
C85 C 0.87627 0.41709 0.34456 0.0
N86 N 0.88247 0.394 0.31218 0.0
H87 H 0.86804 0.36269 0.24703 0.0
H88 H 0.8891 0.42629 0.38389 0.0
H89 H 0.8635 0.34885 0.40928 0.0
H90 H 0.92985 0.38078 0.50655 0.0
O91 O 0.90293 0.34148 0.29879 0.0
O92 O 0.94066 0.34887 0.3516 0.0
O93 O 0.93223 0.40515 0.38084 0.0
C94 C 0.92502 0.33256 0.31983 0.0
H95 H 0.97589 0.38825 0.117 0.0
H96 H 0.85897 0.34595 0.55918 0.0
H97 H 0.84859 0.44747 0.35519 0.0
H98 H 0.82673 0.38039 0.22557 0.0
Co99 Co 0.09771 0.9153 0.8121 0.0
C100 C 0.09731 0.92212 0.64451 0.0
C101 C 0.07233 0.9492 0.69811 0.0
C102 C 0.07143 0.95318 0.6211 0.0
N103 N 0.08777 0.92893 0.71301 0.0
N104 N 0.08717 0.93609 0.58764 0.0
H105 H 0.11179 0.90754 0.63583 0.0
H106 H 0.063 0.96113 0.73978 0.0
C107 C 0.04454 0.93442 0.85325 0.0
O108 O 0.03463 0.92084 0.79781 0.0
N109 N 0.10811 0.90262 0.91017 0.0
C110 C 0.11767 0.87924 0.92685 0.0
C111 C 0.12022 0.87735 1.0043 0.0
C112 C 0.10544 0.91479 0.97707 0.0
N113 N 0.11248 0.89972 0.03566 0.0
C114 C 0.0814 0.86942 0.73639 0.0
C115 C 0.04942 0.85096 0.84883 0.0
C116 C 0.054 0.83564 0.78487 0.0
C117 C 0.06992 0.84541 0.7279 0.0
C118 C 0.06099 0.8753 0.85444 0.0
N119 N 0.0767 0.8844 0.79821 0.0
H120 H 0.09545 0.87498 0.69519 0.0
H121 H 0.05825 0.88629 0.90568 0.0
H122 H 0.1217 0.86435 0.8858 0.0
H123 H 0.0976 0.93394 0.98301 0.0
O124 O 0.12923 0.9025 0.76923 0.0
O125 O 0.1243 0.94146 0.81809 0.0
O126 O 0.06886 0.93463 0.86379 0.0
C127 C 0.13929 0.92472 0.78535 0.0
H128 H 0.06065 0.96799 0.59212 0.0
H129 H 0.12696 0.8607 0.03516 0.0
H130 H 0.03765 0.84391 0.89498 0.0
H131 H 0.07495 0.83385 0.67911 0.0
Co132 Co 0.56546 0.37204 0.19374 0.0
C133 C 0.56204 0.3784 0.36093 0.0
C134 C 0.52541 0.38201 0.30651 0.0
C135 C 0.52168 0.38305 0.38356 0.0
N136 N 0.55075 0.37929 0.29225 0.0
N137 N 0.54475 0.38079 0.41751 0.0
H138 H 0.58214 0.37461 0.37027 0.0
H139 H 0.51058 0.3824 0.26371 0.0
C140 C 0.54085 0.42437 0.17637 0.0
O141 O 0.54828 0.43069 0.24488 0.0
N142 N 0.57946 0.3645 0.09533 0.0
C143 C 0.60206 0.35318 0.07871 0.0
C144 C 0.60435 0.35161 1.00108 0.0
C145 C 0.5683 0.36955 0.02831 0.0
N146 N 0.58315 0.36205 0.96974 0.0
C147 C 0.61495 0.37915 0.25886 0.0
C148 C 0.62645 0.42692 0.20019 0.0
C149 C 0.64517 0.41439 0.24435 0.0
C150 C 0.63896 0.38989 0.2723 0.0
C151 C 0.60272 0.41488 0.18547 0.0
N152 N 0.59676 0.39159 0.21711 0.0
H153 H 0.6115 0.36021 0.28118 0.0
H154 H 0.58978 0.42411 0.14658 0.0
H155 H 0.6159 0.34662 0.12 0.0
H156 H 0.54951 0.37819 0.02243 0.0
O157 O 0.57641 0.33892 0.23019 0.0
O158 O 0.53868 0.34622 0.17727 0.0
O159 O 0.54703 0.40256 0.14851 0.0
C160 C 0.55432 0.32995 0.20914 0.0
H161 H 0.50339 0.38484 0.41239 0.0
H162 H 0.62055 0.34382 0.97014 0.0
H163 H 0.63005 0.44564 0.17571 0.0
H164 H 0.65274 0.37824 0.30253 0.0
Co165 Co 0.10473 0.56557 0.69405 0.0
C166 C 0.09774 0.56257 0.86188 0.0
C167 C 0.08949 0.52698 0.80602 0.0
C168 C 0.08797 0.52305 0.88293 0.0
N169 N 0.09537 0.55185 0.79259 0.0
N170 N 0.09313 0.5455 0.91775 0.0
H171 H 0.10433 0.58183 0.87251 0.0
H172 H 0.08747 0.51241 0.76277 0.0
C173 C 0.05171 0.54356 0.66862 0.0
O174 O 0.04365 0.5544 0.73145 0.0
N175 N 0.11421 0.57827 0.59542 0.0
C176 C 0.12695 0.60009 0.57836 0.0
C177 C 0.12894 0.60194 0.50067 0.0
C178 C 0.10867 0.56716 0.52859 0.0
N179 N 0.11727 0.58127 0.46977 0.0
C180 C 0.09564 0.61487 0.75881 0.0
C181 C 0.0543 0.62911 0.67053 0.0
C182 C 0.06504 0.64708 0.72042 0.0
C183 C 0.08568 0.63953 0.76547 0.0
C184 C 0.06502 0.60435 0.66532 0.0
N185 N 0.08517 0.59723 0.71054 0.0
H186 H 0.11297 0.61076 0.78953 0.0
H187 H 0.05805 0.59165 0.62171 0.0
H188 H 0.13395 0.61383 0.61938 0.0
H189 H 0.09865 0.54903 0.52288 0.0
O190 O 0.13716 0.57698 0.73438 0.0
O191 O 0.13053 0.53857 0.68434 0.0
O192 O 0.07487 0.5468 0.64645 0.0
C193 C 0.14636 0.55464 0.71649 0.0
H194 H 0.08399 0.50498 0.91106 0.0
H195 H 0.13767 0.61757 0.46933 0.0
H196 H 0.03882 0.6346 0.63294 0.0
H197 H 0.09489 0.65306 0.80342 0.0
Co198 Co 0.91508 0.10096 0.2255 0.0
C199 C 0.92102 0.09959 0.39326 0.0
C200 C 0.94948 0.07639 0.33886 0.0
C201 C 0.95341 0.07527 0.41584 0.0
N202 N 0.92845 0.09082 0.32448 0.0
N203 N 0.93549 0.08993 0.44977 0.0
H204 H 0.90596 0.11348 0.40243 0.0
H205 H 0.96193 0.068 0.29668 0.0
C206 C 0.93373 0.0473 0.18797 0.0
O207 O 0.92079 0.03799 0.24574 0.0
N208 N 0.9026 0.11145 0.12741 0.0
C209 C 0.87918 0.12085 0.11049 0.0
C210 C 0.87729 0.12314 0.03299 0.0
C211 C 0.91481 0.10863 0.06059 0.0
N212 N 0.89971 0.11541 1.00186 0.0
C213 C 0.86757 0.08839 0.29784 0.0
C214 C 0.84956 0.05416 0.19082 0.0
C215 C 0.83309 0.06212 0.24909 0.0
C216 C 0.84262 0.07896 0.30383 0.0
C217 C 0.87462 0.0642 0.18674 0.0
N218 N 0.88347 0.08109 0.24025 0.0
H219 H 0.87314 0.10321 0.33654 0.0
H220 H 0.88623 0.05967 0.13783 0.0
H221 H 0.86424 0.12487 0.15143 0.0
H222 H 0.93398 0.10081 0.05483 0.0
O223 O 0.9034 0.13299 0.26775 0.0
O224 O 0.94211 0.12673 0.2185 0.0
O225 O 0.93352 0.07144 0.17439 0.0
C226 C 0.9259 0.1423 0.2512 0.0
H227 H 0.96882 0.06525 0.44447 0.0
H228 H 0.86061 0.12963 1.0019 0.0
H229 H 0.84262 0.04167 0.14628 0.0
H230 H 0.83035 0.08591 0.349 0.0
Co231 Co 0.37113 0.91167 0.68423 0.0
C232 C 0.37836 0.91495 0.85201 0.0
C233 C 0.38508 0.95081 0.79573 0.0
C234 C 0.38652 0.95486 0.8726 0.0
N235 N 0.38014 0.92573 0.78259 0.0
N236 N 0.38233 0.93225 0.90768 0.0
H237 H 0.37269 0.89542 0.86296 0.0
H238 H 0.3865 0.96539 0.7523 0.0
C239 C 0.4242 0.93384 0.65975 0.0
O240 O 0.43172 0.9241 0.72462 0.0
N241 N 0.36199 0.89864 0.58579 0.0
C242 C 0.3501 0.87637 0.56867 0.0
C243 C 0.34824 0.87451 0.49095 0.0
C244 C 0.36709 0.91003 0.519 0.0
N245 N 0.35911 0.89565 0.46009 0.0
C246 C 0.37957 0.86249 0.75039 0.0
C247 C 0.42175 0.84801 0.66556 0.0
C248 C 0.41052 0.83015 0.71505 0.0
C249 C 0.38947 0.83786 0.75845 0.0
C250 C 0.41109 0.87276 0.65897 0.0
N251 N 0.39049 0.87999 0.70243 0.0
H252 H 0.36205 0.86674 0.78019 0.0
H253 H 0.41853 0.88536 0.61569 0.0
H254 H 0.34362 0.86233 0.60965 0.0
H255 H 0.37635 0.92856 0.51347 0.0
O256 O 0.3385 0.90056 0.72418 0.0
O257 O 0.34544 0.93874 0.67294 0.0
O258 O 0.40128 0.93004 0.63643 0.0
C259 C 0.32945 0.92286 0.70541 0.0
H260 H 0.3898 0.97309 0.90054 0.0
H261 H 0.34017 0.85856 0.45959 0.0
H262 H 0.43761 0.84244 0.62932 0.0
H263 H 0.37996 0.82449 0.79636 0.0
C264 C 0.46809 0.95237 0.63349 0.0
C265 C 0.44234 0.94893 0.61194 0.0
C266 C 0.48513 0.96704 0.58898 0.0
C267 C 0.47622 0.97869 0.52148 0.0
C268 C 0.45035 0.97501 0.49899 0.0
C269 C 0.4338 0.9602 0.5443 0.0
C270 C 0.51264 0.97027 0.61452 0.0
C271 C 0.43997 0.98715 0.4277 0.0
C272 C 0.51062 0.03806 0.44621 0.0
C273 C 0.52456 0.0281 0.38474 0.0
C274 C 0.49513 0.02216 0.49157 0.0
C275 C 0.49357 0.99552 0.47566 0.0
C276 C 0.50792 0.98522 0.41455 0.0
C277 C 0.52313 1.00164 0.36961 0.0
C278 C 0.48007 0.034 0.55583 0.0
C279 C 0.50703 0.95688 0.39631 0.0
H280 H 0.47495 0.94369 0.68538 0.0
H281 H 0.41399 0.95774 0.52692 0.0
H282 H 0.52599 0.96421 0.56889 0.0
H283 H 0.5166 0.99084 0.62642 0.0
H284 H 0.51693 0.95893 0.66622 0.0
H285 H 0.41966 0.98166 0.41666 0.0
H286 H 0.44113 0.0084 0.43221 0.0
H287 H 0.45179 0.98136 0.37829 0.0
H288 H 0.51151 0.05846 0.45851 0.0
H289 H 0.53392 0.99372 0.32261 0.0
H290 H 0.48514 0.0245 0.60995 0.0
H291 H 0.45919 0.03095 0.54662 0.0
H292 H 0.48372 0.05496 0.56156 0.0
H293 H 0.51232 0.94546 0.44696 0.0
H294 H 0.52021 0.95168 0.34923 0.0
H295 H 0.48718 0.95125 0.38038 0.0
C296 C 0.51951 0.46728 0.15729 0.0
C297 C 0.52588 0.44281 0.12958 0.0
C298 C 0.50487 0.48456 0.11382 0.0
C299 C 0.49628 0.47717 0.04097 0.0
C300 C 0.50288 0.45261 0.0124 0.0
C301 C 0.51758 0.43579 0.05689 0.0
C302 C 0.49838 0.51064 0.14612 0.0
C303 C 0.49408 0.4439 0.93515 0.0
C304 C 0.43731 0.5099 0.95795 0.0
C305 C 0.44828 0.52684 0.90506 0.0
C306 C 0.45271 0.49383 1.00286 0.0
C307 C 0.47981 0.49478 0.99531 0.0
C308 C 0.49104 0.51209 0.94289 0.0
C309 C 0.47516 0.52783 0.89822 0.0
C310 C 0.43992 0.47557 0.05771 0.0
C311 C 0.51986 0.51386 0.93368 0.0
H312 H 0.52584 0.47295 0.21322 0.0
H313 H 0.52234 0.41697 0.03473 0.0
H314 H 0.5049 0.526 0.10697 0.0
H315 H 0.47723 0.51256 0.15219 0.0
H316 H 0.50737 0.51387 0.20227 0.0
H317 H 0.50116 0.42434 0.92074 0.0
H318 H 0.47276 0.44381 0.93281 0.0
H319 H 0.50097 0.45753 0.89129 0.0
H320 H 0.41659 0.50895 0.96386 0.0
H321 H 0.48385 0.54093 0.85791 0.0
H322 H 0.44703 0.47913 0.11587 0.0
H323 H 0.44493 0.45545 0.04293 0.0
H324 H 0.41864 0.47748 0.05773 0.0
H325 H 0.52896 0.51821 0.98892 0.0
H326 H 0.52563 0.5289 0.89237 0.0
H327 H 0.52759 0.4951 0.91431 0.0
C328 C 0.96349 0.43741 0.47041 0.0
C329 C 0.95332 0.4454 0.40073 0.0
C330 C 0.97857 0.45398 0.51472 0.0
C331 C 0.98357 0.47931 0.48919 0.0
C332 C 0.97295 0.48771 0.4197 0.0
C333 C 0.95805 0.47063 0.37616 0.0
C334 C 0.98965 0.44413 0.58813 0.0
C335 C 0.97754 0.51468 0.39097 0.0
C336 C 0.00743 0.52742 0.63619 0.0
C337 C 0.034 0.52767 0.62205 0.0
C338 C 0.9907 0.51221 0.59242 0.0
C339 C 1.00079 0.49658 0.53383 0.0
C340 C 0.02757 0.49685 0.51914 0.0
C341 C 0.04377 0.51247 0.563 0.0
C342 C 0.96222 0.51278 0.60904 0.0
C343 C 0.03921 0.48031 0.45782 0.0
H344 H 0.96004 0.41798 0.49006 0.0
H345 H 0.9502 0.47706 0.32268 0.0
H346 H 0.01096 0.44437 0.58504 0.0
H347 H 0.98394 0.45686 0.63558 0.0
H348 H 0.98322 0.42424 0.60128 0.0
H349 H 0.96673 0.51873 0.33819 0.0
H350 H 0.97181 0.5289 0.43458 0.0
H351 H 0.99834 0.51757 0.37966 0.0
H352 H 0.99966 0.5392 0.68128 0.0
H353 H 0.06426 0.51244 0.55162 0.0
H354 H 0.95561 0.49342 0.62698 0.0
H355 H 0.95141 0.51786 0.5571 0.0
H356 H 0.95727 0.52679 0.65417 0.0
H357 H 0.03502 0.45975 0.4694 0.0
H358 H 0.06038 0.48282 0.45332 0.0
H359 H 0.03048 0.48506 0.40239 0.0
C360 C 0.95247 0.00395 0.15724 0.0
C361 C 0.94917 0.02999 0.13873 0.0
C362 C 0.96745 0.98763 0.11151 0.0
C363 C 0.97932 0.99751 0.04541 0.0
C364 C 0.97579 0.02368 0.02595 0.0
C365 C 0.96087 0.03957 0.07284 0.0
C366 C 0.97078 0.95985 0.13431 0.0
C367 C 0.98798 0.035 0.95581 0.0
C368 C 0.03815 0.96381 0.96421 0.0
C369 C 0.02768 0.95018 0.90294 0.0
C370 C 0.0226 0.97895 0.01152 0.0
C371 C 0.99586 0.98068 0.99727 0.0
C372 C 0.98511 0.96684 0.93596 0.0
C373 C 1.00112 0.95174 0.88964 0.0
C374 C 0.03485 0.99331 0.0764 0.0
C375 C 0.95671 0.96817 0.91888 0.0
H376 H 0.94355 0.99633 0.20796 0.0
H377 H 0.95841 0.0596 0.05768 0.0
H378 H 0.96435 0.94703 0.0879 0.0
H379 H 0.99143 0.95576 0.1444 0.0
H380 H 0.9598 0.95497 0.18632 0.0
H381 H 0.98278 0.05553 0.94747 0.0
H382 H 0.00922 0.0335 0.95963 0.0
H383 H 0.9819 0.024 0.90514 0.0
H384 H 0.0586 0.96273 0.9753 0.0
H385 H 0.99281 0.94129 0.84263 0.0
H386 H 0.02538 0.98796 0.13042 0.0
H387 H 0.03217 0.0143 0.06859 0.0
H388 H 0.05577 0.98929 0.08133 0.0
H389 H 0.94543 0.96217 0.9692 0.0
H390 H 0.95122 0.95576 0.87039 0.0
H391 H 0.9512 0.98828 0.90571 0.0
C392 C 0.5615 0.18016 0.2118 0.0
C393 C 0.54637 0.16702 0.26493 0.0
C394 C 0.55849 0.2066 0.19959 0.0
C395 C 0.54007 0.22044 0.2423 0.0
C396 C 0.5238 0.20706 0.29336 0.0
C397 C 0.52704 0.1804 0.3038 0.0
C398 C 0.57607 0.21997 0.14393 0.0
C399 C 0.50402 0.22112 0.34014 0.0
C400 C 0.56153 0.28893 0.27749 0.0
C401 C 0.54789 0.3026 0.2223 0.0
C402 C 0.55794 0.26245 0.28741 0.0
C403 C 0.54049 0.24911 0.24022 0.0
C404 C 0.52577 0.26298 0.18648 0.0
C405 C 0.52953 0.28969 0.17845 0.0
C406 C 0.57382 0.24857 0.34609 0.0
C407 C 0.50707 0.24942 0.13493 0.0
H408 H 0.57623 0.16983 0.18076 0.0
H409 H 0.51527 0.17029 0.34482 0.0
H410 H 0.56481 0.23248 0.10548 0.0
H411 H 0.58976 0.23246 0.175 0.0
H412 H 0.58729 0.20612 0.10928 0.0
H413 H 0.49057 0.20769 0.36897 0.0
H414 H 0.5139 0.23282 0.3838 0.0
H415 H 0.49276 0.23451 0.30434 0.0
H416 H 0.57549 0.29889 0.31236 0.0
H417 H 0.51894 0.30023 0.13579 0.0
H418 H 0.58781 0.2357 0.31757 0.0
H419 H 0.56132 0.23637 0.38223 0.0
H420 H 0.58464 0.26206 0.38295 0.0
H421 H 0.51787 0.23755 0.09356 0.0
H422 H 0.49479 0.26317 0.10328 0.0
H423 H 0.49453 0.23623 0.16776 0.0
C424 C 0.18696 0.5629 0.78607 0.0
C425 C 0.17366 0.54861 0.73147 0.0
C426 C 0.21346 0.55982 0.79669 0.0
C427 C 0.22719 0.54226 0.75076 0.0
C428 C 0.2137 0.52694 0.69761 0.0
C429 C 0.18696 0.53017 0.68892 0.0
C430 C 0.22695 0.5763 0.8548 0.0
C431 C 0.22767 0.50813 0.6473 0.0
C432 C 0.29636 0.56307 0.72245 0.0
C433 C 0.30933 0.54798 0.7758 0.0
C434 C 0.26986 0.56022 0.71052 0.0
C435 C 0.25584 0.54208 0.75386 0.0
C436 C 0.26902 0.52599 0.8056 0.0
C437 C 0.29571 0.52902 0.8156 0.0
C438 C 0.25669 0.57753 0.65402 0.0
C439 C 0.25475 0.50657 0.85324 0.0
H440 H 0.17668 0.57697 0.8198 0.0
H441 H 0.17672 0.51912 0.64658 0.0
H442 H 0.23917 0.56422 0.89189 0.0
H443 H 0.23975 0.59027 0.82583 0.0
H444 H 0.2132 0.58718 0.89074 0.0
H445 H 0.21419 0.49561 0.61536 0.0
H446 H 0.23975 0.51885 0.6062 0.0
H447 H 0.24071 0.49582 0.68117 0.0
H448 H 0.30688 0.57752 0.69075 0.0
H449 H 0.30569 0.5173 0.85689 0.0
H450 H 0.24408 0.59133 0.68432 0.0
H451 H 0.24431 0.56607 0.61565 0.0
H452 H 0.27065 0.58864 0.61932 0.0
H453 H 0.24266 0.51677 0.89537 0.0
H454 H 0.26802 0.49351 0.88391 0.0
H455 H 0.24169 0.49485 0.81761 0.0
C456 C 0.9173 0.1827 0.32193 0.0
C457 C 0.93205 0.16947 0.26818 0.0
C458 C 0.92053 0.20916 0.33364 0.0
C459 C 0.93875 0.22289 0.28979 0.0
C460 C 0.95469 0.20939 0.23822 0.0
C461 C 0.95125 0.18272 0.2283 0.0
C462 C 0.90332 0.22266 0.3899 0.0
C463 C 0.97428 0.22331 0.19027 0.0
C464 C 0.91737 0.29128 0.25315 0.0
C465 C 0.93134 0.30515 0.30727 0.0
C466 C 0.92078 0.26475 0.24413 0.0
C467 C 0.9384 0.25156 0.29108 0.0
C468 C 0.95344 0.26563 0.34366 0.0
C469 C 0.94983 0.29238 0.35087 0.0
C470 C 0.90454 0.25066 0.18668 0.0
C471 C 0.97236 0.25225 0.39482 0.0
H472 H 0.90269 0.17245 0.35379 0.0
H473 H 0.96273 0.17253 0.1868 0.0
H474 H 0.91482 0.23532 0.42735 0.0
H475 H 0.88941 0.23502 0.35925 0.0
H476 H 0.89233 0.20889 0.42557 0.0
H477 H 0.98758 0.2098 0.16132 0.0
H478 H 0.96422 0.23485 0.14663 0.0
H479 H 0.98572 0.23683 0.22521 0.0
H480 H 0.9033 0.30112 0.21847 0.0
H481 H 0.96067 0.30307 0.39272 0.0
H482 H 0.89071 0.23786 0.21627 0.0
H483 H 0.91682 0.23837 0.15026 0.0
H484 H 0.89351 0.26401 0.14998 0.0
H485 H 0.96174 0.24054 0.43705 0.0
H486 H 0.98484 0.2661 0.42548 0.0
H487 H 0.9847 0.23893 0.36188 0.0
C488 C 0.2889 0.94727 0.67682 0.0
C489 C 0.30217 0.9291 0.7203 0.0
C490 C 0.26217 0.95066 0.68574 0.0
C491 C 0.24867 0.93577 0.74007 0.0
C492 C 0.26238 0.91849 0.78687 0.0
C493 C 0.28886 0.91525 0.77601 0.0
C494 C 0.24822 0.96915 0.6345 0.0
C495 C 0.24889 0.90247 0.84621 0.0
C496 C 0.18025 0.94936 0.80596 0.0
C497 C 0.1666 0.93009 0.76773 0.0
C498 C 0.20691 0.95242 0.79484 0.0
C499 C 0.22001 0.93603 0.74365 0.0
C500 C 0.20593 0.91759 0.70175 0.0
C501 C 0.17948 0.91473 0.71469 0.0
C502 C 0.22124 0.9722 0.84085 0.0
C503 C 0.21901 0.89992 0.64589 0.0
H504 H 0.29915 0.95798 0.63363 0.0
H505 H 0.29912 0.9014 0.81046 0.0
H506 H 0.23615 0.95817 0.5941 0.0
H507 H 0.23517 0.98167 0.66776 0.0
H508 H 0.26171 0.98145 0.60175 0.0
H509 H 0.26263 0.89179 0.88254 0.0
H510 H 0.23676 0.91485 0.8828 0.0
H511 H 0.236 0.88835 0.81834 0.0
H512 H 0.17035 0.96129 0.84693 0.0
H513 H 0.16893 0.90005 0.68414 0.0
H514 H 0.23429 0.98361 0.80421 0.0
H515 H 0.23333 0.96232 0.88353 0.0
H516 H 0.20799 0.98552 0.87079 0.0
H517 H 0.23135 0.91113 0.60666 0.0
H518 H 0.205 0.88862 0.61208 0.0
H519 H 0.23164 0.8863 0.67666 0.0
C520 C 0.39976 0.78372 0.7061 0.0
C521 C 0.41844 0.80278 0.71724 0.0
C522 C 0.4054 0.75768 0.71714 0.0
C523 C 0.43043 0.75038 0.74015 0.0
C524 C 0.44975 0.76945 0.74848 0.0
C525 C 0.44352 0.79553 0.73668 0.0
C526 C 0.38424 0.73806 0.70655 0.0
C527 C 0.47664 0.76242 0.77266 0.0
C528 C 0.42722 0.68627 0.84107 0.0
C529 C 0.43122 0.6692 0.78085 0.0
C530 C 0.42928 0.71298 0.8304 0.0
C531 C 0.43552 0.7228 0.75784 0.0
C532 C 0.44206 0.70555 0.699 0.0
C533 C 0.4398 0.67895 0.7112 0.0
C534 C 0.42237 0.73068 0.89492 0.0
C535 C 0.4491 0.71511 0.62109 0.0
H536 H 0.38042 0.78933 0.69028 0.0
H537 H 0.45793 0.8103 0.74561 0.0
H538 H 0.39039 0.72311 0.66561 0.0
H539 H 0.38019 0.72828 0.76106 0.0
H540 H 0.36612 0.74686 0.68579 0.0
H541 H 0.49013 0.77892 0.76776 0.0
H542 H 0.47634 0.75591 0.83241 0.0
H543 H 0.48407 0.74623 0.73814 0.0
H544 H 0.4205 0.67891 0.89496 0.0
H545 H 0.44331 0.6658 0.66475 0.0
H546 H 0.40302 0.73897 0.88479 0.0
H547 H 0.43619 0.74689 0.89857 0.0
H548 H 0.42202 0.72042 0.95003 0.0
H549 H 0.43147 0.72178 0.59178 0.0
H550 H 0.45813 0.6998 0.58623 0.0
H551 H 0.46249 0.7317 0.62458 0.0
C552 C 0.79522 0.44319 0.3248 0.0
C553 C 0.80729 0.4268 0.27236 0.0
C554 C 0.76887 0.44914 0.31887 0.0
C555 C 0.75374 0.43704 0.26237 0.0
C556 C 0.76617 0.42204 0.20629 0.0
C557 C 0.79282 0.41835 0.20994 0.0
C558 C 0.75749 0.46762 0.3755 0.0
C559 C 0.75143 0.40851 0.14424 0.0
C560 C 0.68645 0.4165 0.3188 0.0
C561 C 0.67169 0.42516 0.25725 0.0
C562 C 0.71301 0.4208 0.32243 0.0
C563 C 0.72503 0.43661 0.26743 0.0
C564 C 0.70957 0.44878 0.2119 0.0
C565 C 0.68335 0.44224 0.20581 0.0
C566 C 0.72814 0.4071 0.38329 0.0
C567 C 0.72046 0.468 0.15649 0.0
H568 H 0.80586 0.45069 0.3725 0.0
H569 H 0.802 0.40751 0.16518 0.0
H570 H 0.73739 0.47311 0.36227 0.0
H571 H 0.75823 0.45898 0.43284 0.0
H572 H 0.76938 0.48537 0.37748 0.0
H573 H 0.76288 0.39288 0.11778 0.0
H574 H 0.73326 0.40002 0.16588 0.0
H575 H 0.74658 0.42254 0.09933 0.0
H576 H 0.67758 0.4051 0.36294 0.0
H577 H 0.67251 0.4499 0.15877 0.0
H578 H 0.73269 0.42083 0.42927 0.0
H579 H 0.74648 0.39928 0.36088 0.0
H580 H 0.71708 0.39093 0.40858 0.0
H581 H 0.74047 0.47385 0.16983 0.0
H582 H 0.7082 0.48548 0.15597 0.0
H583 H 0.7198 0.45984 0.09855 0.0
C584 C 0.04992 0.79154 0.84047 0.0
C585 C 0.04531 0.80842 0.7802 0.0
C586 C 0.04787 0.76479 0.83066 0.0
C587 C 0.04098 0.75474 0.75896 0.0
C588 C 0.03393 0.7718 0.7002 0.0
C589 C 0.03624 0.79844 0.71148 0.0
C590 C 0.05542 0.7473 0.895 0.0
C591 C 0.02616 0.76198 0.62326 0.0
C592 C 0.07591 0.69332 0.70703 0.0
C593 C 0.05724 0.67447 0.72095 0.0
C594 C 0.07049 0.71947 0.71695 0.0
C595 C 0.04573 0.72705 0.74183 0.0
C596 C 0.02639 0.70816 0.75299 0.0
C597 C 0.03238 0.68197 0.74217 0.0
C598 C 0.09164 0.7389 0.70336 0.0
C599 C 0.99979 0.71549 0.77927 0.0
H600 H 0.05705 0.79908 0.89359 0.0
H601 H 0.03231 0.81145 0.66501 0.0
H602 H 0.04155 0.7312 0.90071 0.0
H603 H 0.07459 0.73884 0.88306 0.0
H604 H 0.05646 0.75776 0.94969 0.0
H605 H 0.01688 0.7772 0.58868 0.0
H606 H 0.04349 0.75512 0.59265 0.0
H607 H 0.01274 0.74547 0.62848 0.0
H608 H 0.09509 0.68747 0.69009 0.0
H609 H 0.018 0.66733 0.75334 0.0
H610 H 0.09634 0.74889 0.75702 0.0
H611 H 0.08514 0.7537 0.66249 0.0
H612 H 0.10947 0.72988 0.68108 0.0
H613 H 1.0007 0.72236 0.8386 0.0
H614 H 0.98617 0.69904 0.77652 0.0
H615 H 0.99212 0.73151 0.74458 0.0
C616 C 0.79638 0.03043 0.24922 0.0
C617 C 0.80524 0.05589 0.24886 0.0
C618 C 0.76986 0.02497 0.25463 0.0
C619 C 0.75197 0.0455 0.25858 0.0
C620 C 0.76096 0.07121 0.25606 0.0
C621 C 0.78741 0.07605 0.25159 0.0
C622 C 0.76103 0.99735 0.25778 0.0
C623 C 0.74263 0.09374 0.25873 0.0
C624 C 0.68164 0.04263 0.20555 0.0
C625 C 0.66979 0.04591 0.2763 0.0
C626 C 0.70842 0.04012 0.19913 0.0
C627 C 0.72376 0.0407 0.26515 0.0
C628 C 0.71169 0.04133 0.33708 0.0
C629 C 0.68481 0.044 0.34184 0.0
C630 C 0.72037 0.0394 0.12131 0.0
C631 C 0.72729 0.04161 0.40894 0.0
H632 H 0.81021 0.01485 0.2474 0.0
H633 H 0.79425 0.09575 0.25038 0.0
H634 H 0.75169 0.99353 0.3131 0.0
H635 H 0.74646 0.99365 0.21335 0.0
H636 H 0.77719 0.98362 0.25031 0.0
H637 H 0.75274 0.11253 0.25451 0.0
H638 H 0.72861 0.09237 0.21169 0.0
H639 H 0.73156 0.09338 0.3124 0.0
H640 H 0.67006 0.04364 0.15471 0.0
H641 H 0.67585 0.04656 0.39671 0.0
H642 H 0.73614 0.02508 0.1188 0.0
H643 H 0.72881 0.0585 0.1082 0.0
H644 H 0.70602 0.0347 0.07693 0.0
H645 H 0.74304 0.02727 0.40613 0.0
H646 H 0.71523 0.03753 0.45948 0.0
H647 H 0.73623 0.06084 0.41615 0.0
C648 C 0.57905 0.12694 0.66383 0.0
C649 C 0.57238 0.10805 0.6109 0.0
C650 C 0.57364 0.12361 0.74111 0.0
C651 C 0.56173 0.1006 0.76614 0.0
C652 C 0.55507 0.08139 0.71286 0.0
C653 C 0.56031 0.08544 0.63588 0.0
C654 C 0.58057 0.14476 0.79593 0.0
C655 C 0.54276 0.0564 0.73723 0.0
C656 C 0.5708 0.08241 0.97265 0.0
C657 C 0.54705 0.08935 1.00414 0.0
C658 C 0.5757 0.08561 0.89511 0.0
C659 C 0.55654 0.09649 0.84816 0.0
C660 C 0.53251 0.10359 0.87975 0.0
C661 C 0.52798 0.0997 0.95727 0.0
C662 C 0.60137 0.07733 0.86344 0.0
C663 C 0.51177 0.11567 0.83189 0.0
H664 H 0.58813 0.14452 0.64449 0.0
H665 H 0.55544 0.07064 0.59521 0.0
H666 H 0.56321 0.15094 0.82763 0.0
H667 H 0.59463 0.13753 0.83795 0.0
H668 H 0.58899 0.1618 0.76709 0.0
H669 H 0.5385 0.04356 0.68859 0.0
H670 H 0.5557 0.04612 0.77681 0.0
H671 H 0.52456 0.06027 0.76798 0.0
H672 H 0.58546 0.0742 0.0088 0.0
H673 H 0.50974 0.10539 0.98173 0.0
H674 H 0.61154 0.09413 0.83881 0.0
H675 H 0.59845 0.06321 0.81719 0.0
H676 H 0.61391 0.06851 0.90713 0.0
H677 H 0.51909 0.13367 0.80586 0.0
H678 H 0.49421 0.12023 0.86516 0.0
H679 H 0.50639 0.10254 0.78509 0.0
C680 C 0.35968 0.55255 0.48633 0.0
C681 C 0.38391 0.54491 0.51276 0.0
C682 C 0.3554 0.55709 0.40903 0.0
C683 C 0.37597 0.55435 0.35701 0.0
C684 C 0.40041 0.54637 0.38333 0.0
C685 C 0.40401 0.54155 0.46077 0.0
C686 C 0.32894 0.5651 0.38314 0.0
C687 C 0.42295 0.54358 0.32999 0.0
C688 C 0.36254 0.54726 0.14637 0.0
C689 C 0.36623 0.57247 0.12032 0.0
C690 C 0.36523 0.54113 0.22338 0.0
C691 C 0.37218 0.56062 0.27547 0.0
C692 C 0.37593 0.58612 0.24944 0.0
C693 C 0.37273 0.59176 0.17234 0.0
C694 C 0.36068 0.5138 0.24899 0.0
C695 C 0.38378 0.60738 0.30284 0.0
H696 H 0.34402 0.55485 0.52623 0.0
H697 H 0.42283 0.53596 0.48114 0.0
H698 H 0.32977 0.58469 0.35841 0.0
H699 H 0.32204 0.55192 0.33818 0.0
H700 H 0.31472 0.56512 0.43011 0.0
H701 H 0.44056 0.53675 0.3592 0.0
H702 H 0.41817 0.52984 0.28413 0.0
H703 H 0.42719 0.56237 0.30293 0.0
H704 H 0.35727 0.53236 0.10647 0.0
H705 H 0.37598 0.61118 0.15236 0.0
H706 H 0.34566 0.51338 0.29363 0.0
H707 H 0.37852 0.50586 0.27409 0.0
H708 H 0.35457 0.50109 0.20184 0.0
H709 H 0.36924 0.60948 0.34839 0.0
H710 H 0.38596 0.62617 0.27363 0.0
H711 H 0.4023 0.60244 0.33027 0.0
C712 C 0.90665 0.39145 1.00156 0.0
C713 C 0.92959 0.38177 0.03172 0.0
C714 C 0.90121 0.38927 0.92408 0.0
C715 C 0.91898 0.37675 0.8758 0.0
C716 C 0.9422 0.36695 0.90597 0.0
C717 C 0.94731 0.36976 0.98349 0.0
C718 C 0.87643 0.40034 0.8939 0.0
C719 C 0.96146 0.35313 0.8566 0.0
C720 C 0.8935 0.34917 0.69136 0.0
C721 C 0.90192 0.36749 0.63867 0.0
C722 C 0.89909 0.35185 0.76863 0.0
C723 C 0.91311 0.37357 0.79393 0.0
C724 C 0.92151 0.39223 0.74099 0.0
C725 C 0.91595 0.38887 0.66398 0.0
C726 C 0.89016 0.33133 0.82314 0.0
C727 C 0.93623 0.41582 0.7657 0.0
H728 H 0.89306 0.40096 0.03867 0.0
H729 H 0.96489 0.36195 1.00681 0.0
H730 H 0.88064 0.41436 0.84821 0.0
H731 H 0.86452 0.38482 0.86888 0.0
H732 H 0.865 0.41012 0.93853 0.0
H733 H 0.97861 0.3467 0.88879 0.0
H734 H 0.95229 0.33606 0.83029 0.0
H735 H 0.9679 0.3659 0.81002 0.0
H736 H 0.88293 0.33249 0.67185 0.0
H737 H 0.9222 0.40324 0.62356 0.0
H738 H 0.87718 0.33985 0.86619 0.0
H739 H 0.9069 0.32317 0.85365 0.0
H740 H 0.87981 0.31543 0.79423 0.0
H741 H 0.92462 0.42696 0.80695 0.0
H742 H 0.94125 0.42857 0.71744 0.0
H743 H 0.95423 0.41007 0.79466 0.0
C744 C 0.10383 0.88623 0.1672 0.0
C745 C 0.1101 0.9056 0.11513 0.0
C746 C 0.10044 0.89183 0.24429 0.0
C747 C 0.10375 0.91738 0.27029 0.0
C748 C 0.11044 0.93698 0.21816 0.0
C749 C 0.11334 0.93088 0.14116 0.0
C750 C 0.09289 0.87045 0.29772 0.0
C751 C 0.11449 0.96438 0.2437 0.0
C752 C 0.0716 0.93593 0.45596 0.0
C753 C 0.09174 0.93281 0.50776 0.0
C754 C 0.07528 0.93119 0.37846 0.0
C755 C 0.09985 0.92358 0.3519 0.0
C756 C 0.12044 0.92111 0.40375 0.0
C757 C 0.11607 0.92553 0.48111 0.0
C758 C 0.05272 0.93366 0.32531 0.0
C759 C 0.14703 0.91353 0.37761 0.0
H760 H 0.10091 0.86675 0.14728 0.0
H761 H 0.11841 0.94587 0.10126 0.0
H762 H 0.10744 0.86854 0.34317 0.0
H763 H 0.07428 0.87511 0.32528 0.0
H764 H 0.09099 0.85163 0.26851 0.0
H765 H 0.12045 0.97719 0.19652 0.0
H766 H 0.09649 0.97203 0.26875 0.0
H767 H 0.12944 0.96507 0.28836 0.0
H768 H 0.05271 0.94127 0.47653 0.0
H769 H 0.13175 0.92343 0.5209 0.0
H770 H 0.04877 0.91481 0.29824 0.0
H771 H 0.05728 0.94749 0.27945 0.0
H772 H 0.035 0.9402 0.35471 0.0
H773 H 0.14652 0.89394 0.35282 0.0
H774 H 0.16123 0.91371 0.42445 0.0
H775 H 0.15373 0.92684 0.33264 0.0
C776 C 0.57277 0.38883 0.52733 0.0
C777 C 0.54982 0.37902 0.4974 0.0
C778 C 0.57827 0.38675 0.60479 0.0
C779 C 0.56055 0.3742 0.65329 0.0
C780 C 0.53732 0.36429 0.62337 0.0
C781 C 0.53216 0.36698 0.54587 0.0
C782 C 0.60305 0.39793 0.63471 0.0
C783 C 0.51812 0.35045 0.673 0.0
C784 C 0.58604 0.34681 0.83787 0.0
C785 C 0.57759 0.36512 0.89045 0.0
C786 C 0.58049 0.34945 0.76057 0.0
C787 C 0.56648 0.37113 0.73515 0.0
C788 C 0.55809 0.38981 0.78795 0.0
C789 C 0.56359 0.38647 0.86501 0.0
C790 C 0.58943 0.32892 0.70618 0.0
C791 C 0.54339 0.41336 0.76307 0.0
H792 H 0.58631 0.39838 0.49008 0.0
H793 H 0.51458 0.35907 0.52274 0.0
H794 H 0.59886 0.41201 0.68024 0.0
H795 H 0.61499 0.38248 0.65987 0.0
H796 H 0.61445 0.4077 0.5899 0.0
H797 H 0.50095 0.34393 0.64099 0.0
H798 H 0.52732 0.33345 0.69944 0.0
H799 H 0.5117 0.36326 0.71947 0.0
H800 H 0.5966 0.33016 0.85748 0.0
H801 H 0.55731 0.40083 0.90537 0.0
H802 H 0.60236 0.33747 0.66297 0.0
H803 H 0.57269 0.32066 0.67585 0.0
H804 H 0.59984 0.3131 0.73515 0.0
H805 H 0.55456 0.42403 0.71971 0.0
H806 H 0.53914 0.42656 0.81087 0.0
H807 H 0.52496 0.40752 0.73666 0.0
C808 C 0.1059 0.53105 0.04522 0.0
C809 C 0.09563 0.55002 0.99776 0.0
C810 C 0.10949 0.5357 0.12274 0.0
C811 C 0.10223 0.55975 0.15369 0.0
C812 C 0.0914 0.57879 0.10621 0.0
C813 C 0.08844 0.57377 0.02871 0.0
C814 C 0.12146 0.51505 0.17126 0.0
C815 C 0.083 0.6045 0.13723 0.0
C816 C 0.09096 0.56383 0.36582 0.0
C817 C 0.1136 0.57582 0.39065 0.0
C818 C 0.08695 0.55856 0.2889 0.0
C819 C 0.10622 0.56511 0.23558 0.0
C820 C 0.12924 0.577 0.26044 0.0
C821 C 0.13255 0.58242 0.33764 0.0
C822 C 0.06197 0.54625 0.26465 0.0
C823 C 0.15043 0.58386 0.20554 0.0
H824 H 0.11178 0.51281 0.02125 0.0
H825 H 0.08026 0.58834 0.99218 0.0
H826 H 0.13944 0.5224 0.19718 0.0
H827 H 0.10825 0.50982 0.21814 0.0
H828 H 0.12602 0.49739 0.13852 0.0
H829 H 0.07422 0.61693 0.09318 0.0
H830 H 0.06881 0.60164 0.18341 0.0
H831 H 0.09973 0.61476 0.16179 0.0
H832 H 0.07613 0.55902 0.40656 0.0
H833 H 0.15015 0.59143 0.35687 0.0
H834 H 0.06584 0.52795 0.23451 0.0
H835 H 0.05179 0.55909 0.22455 0.0
H836 H 0.04902 0.54218 0.31328 0.0
H837 H 0.1567 0.56643 0.17438 0.0
H838 H 0.1674 0.59241 0.23421 0.0
H839 H 0.1432 0.59777 0.16307 0.0
C840 C 0.9242 0.11846 0.55633 0.0
C841 C 0.93228 0.09439 0.52969 0.0
C842 C 0.91993 0.12273 0.63379 0.0
C843 C 0.92337 0.10228 0.68575 0.0
C844 C 0.9318 0.078 0.6592 0.0
C845 C 0.93637 0.07443 0.58156 0.0
C846 C 0.91147 0.14904 0.65991 0.0
C847 C 0.93531 0.05559 0.7125 0.0
C848 C 0.9307 0.11659 0.89588 0.0
C849 C 0.90558 0.11271 0.92251 0.0
C850 C 0.93675 0.11357 0.81887 0.0
C851 C 0.91728 0.10604 0.76747 0.0
C852 C 0.8919 0.10195 0.79419 0.0
C853 C 0.88633 0.10554 0.87121 0.0
C854 C 0.96393 0.11851 0.79249 0.0
C855 C 0.87069 0.09343 0.74158 0.0
H856 H 0.92138 0.13402 0.51647 0.0
H857 H 0.94237 0.05575 0.56095 0.0
H858 H 0.89197 0.14783 0.68525 0.0
H859 H 0.92465 0.15624 0.70443 0.0
H860 H 0.91101 0.16322 0.61293 0.0
H861 H 0.94247 0.03812 0.6831 0.0
H862 H 0.94906 0.06073 0.75795 0.0
H863 H 0.9167 0.05091 0.74013 0.0
H864 H 0.94557 0.12231 0.93529 0.0
H865 H 0.86699 0.10211 0.89172 0.0
H866 H 0.96399 0.13346 0.7477 0.0
H867 H 0.9721 0.10076 0.76734 0.0
H868 H 0.97667 0.1249 0.83924 0.0
H869 H 0.86801 0.10786 0.69608 0.0
H870 H 0.85207 0.09075 0.77146 0.0
H871 H 0.87605 0.07503 0.71402 0.0
C872 C 0.3847 0.91448 0.35629 0.0
C873 C 0.36268 0.90128 0.38095 0.0
C874 C 0.38863 0.91992 0.27937 0.0
C875 C 0.3699 0.91229 0.22581 0.0
C876 C 0.34749 0.89917 0.25049 0.0
C877 C 0.34427 0.89363 0.3277 0.0
C878 C 0.41295 0.9336 0.2554 0.0
C879 C 0.32686 0.89112 0.19535 0.0
C880 C 0.36872 0.94614 0.03505 0.0
C881 C 0.38005 0.9277 0.98779 0.0
C882 C 0.36528 0.9414 0.11264 0.0
C883 C 0.3738 0.91782 0.14389 0.0
C884 C 0.38572 0.89935 0.0966 0.0
C885 C 0.38848 0.90443 0.01901 0.0
C886 C 0.35209 0.9614 0.16086 0.0
C887 C 0.3955 0.87418 0.12792 0.0
H888 H 0.39914 0.92013 0.39715 0.0
H889 H 0.32713 0.88369 0.34672 0.0
H890 H 0.42379 0.92147 0.21475 0.0
H891 H 0.40813 0.95179 0.22596 0.0
H892 H 0.42565 0.93813 0.30409 0.0
H893 H 0.31031 0.88166 0.22386 0.0
H894 H 0.31973 0.90815 0.16395 0.0
H895 H 0.33497 0.87759 0.1531 0.0
H896 H 0.36188 0.96401 0.01085 0.0
H897 H 0.39746 0.89027 0.98261 0.0
H898 H 0.36487 0.96735 0.20789 0.0
H899 H 0.33445 0.9531 0.18657 0.0
H900 H 0.34667 0.97876 0.12795 0.0
H901 H 0.40937 0.87788 0.1743 0.0
H902 H 0.4051 0.86225 0.08408 0.0
H903 H 0.37931 0.863 0.1523 0.0
loop_
_geom_bond_atom_site_label_1
_geom_bond_atom_site_label_2
_geom_bond_distance
_geom_bond_site_symmetry_2
_ccdc_geom_bond_type
Co0 N4 2.148 . S
Co0 N10 2.128 . S
Co0 N20 2.194 . S
Co0 O25 2.351 . S
Co0 O26 2.155 . S
Co0 O27 2.096 . S
C1 N4 1.301 . S
C1 N5 1.328 . S
C1 H6 0.930 . S
C2 C3 1.333 . S
C2 N4 1.317 . S
C2 H7 0.930 . S
C3 C2 1.333 . S
C3 N5 1.350 . S
C3 H29 0.931 . S
N4 Co0 2.148 . S
N4 C1 1.301 . S
N4 C2 1.317 . S
N5 C1 1.328 . S
N5 C3 1.350 . S
H6 C1 0.930 . S
H7 C2 0.930 . S
C8 O9 1.224 . S
C8 O27 1.247 . S
O9 C8 1.224 . S
N10 Co0 2.128 . S
N10 C11 1.355 . S
N10 C13 1.311 . S
C11 N10 1.355 . S
C11 C12 1.363 . S
C11 H23 0.929 . S
C12 C11 1.363 . S
C12 N14 1.375 . S
C12 H30 0.931 . S
C13 N10 1.311 . S
C13 N14 1.347 . S
C13 H24 0.929 . S
N14 C12 1.375 . S
N14 C13 1.347 . S
C15 C18 1.365 . S
C15 N20 1.328 . S
C15 H21 0.929 . S
C16 C17 1.362 . S
C16 C19 1.378 . S
C16 H31 0.929 . S
C17 C16 1.362 . S
C17 C18 1.366 . S
C18 C15 1.365 . S
C18 C17 1.366 . S
C18 H32 0.930 . S
C19 C16 1.378 . S
C19 N20 1.315 . S
C19 H22 0.930 . S
N20 Co0 2.194 . S
N20 C15 1.328 . S
N20 C19 1.315 . S
H21 C15 0.929 . S
H22 C19 0.930 . S
H23 C11 0.929 . S
H24 C13 0.929 . S
O25 Co0 2.351 . S
O25 C28 1.244 . S
O26 Co0 2.155 . S
O26 C28 1.240 . S
O27 Co0 2.096 . S
O27 C8 1.247 . S
C28 O25 1.244 . S
C28 O26 1.240 . S
H29 C3 0.931 . S
H30 C12 0.931 . S
H31 C16 0.929 . S
H32 C18 0.930 . S
Co33 N37 2.148 . S
Co33 N43 2.128 . S
Co33 N53 2.194 . S
Co33 O58 2.351 . S
Co33 O59 2.155 . S
Co33 O60 2.096 . S
C34 N37 1.301 . S
C34 N38 1.328 . S
C34 H39 0.930 . S
C35 C36 1.333 . S
C35 N37 1.317 . S
C35 H40 0.930 . S
C36 C35 1.333 . S
C36 N38 1.350 . S
C36 H62 0.931 . S
N37 Co33 2.148 . S
N37 C34 1.301 . S
N37 C35 1.317 . S
N38 C34 1.328 . S
N38 C36 1.350 . S
H39 C34 0.930 . S
H40 C35 0.930 . S
C41 O42 1.224 . S
C41 O60 1.247 . S
O42 C41 1.224 . S
N43 Co33 2.128 . S
N43 C44 1.355 . S
N43 C46 1.311 . S
C44 N43 1.355 . S
C44 C45 1.363 1_556 S
C44 H56 0.929 . S
C45 C44 1.363 1_554 S
C45 N47 1.375 . S
C45 H63 0.931 . S
C46 N43 1.311 . S
C46 N47 1.347 1_556 S
C46 H57 0.929 . S
N47 C45 1.375 . S
N47 C46 1.347 1_554 S
C48 C51 1.365 . S
C48 N53 1.328 . S
C48 H54 0.929 . S
C49 C50 1.362 . S
C49 C52 1.378 . S
C49 H64 0.929 . S
C50 C49 1.362 . S
C50 C51 1.366 . S
C51 C48 1.365 . S
C51 C50 1.366 . S
C51 H65 0.930 . S
C52 C49 1.378 . S
C52 N53 1.315 . S
C52 H55 0.930 . S
N53 Co33 2.194 . S
N53 C48 1.328 . S
N53 C52 1.315 . S
H54 C48 0.929 . S
H55 C52 0.930 . S
H56 C44 0.929 . S
H57 C46 0.929 . S
O58 Co33 2.351 . S
O58 C61 1.244 . S
O59 Co33 2.155 . S
O59 C61 1.240 . S
O60 Co33 2.096 . S
O60 C41 1.247 . S
C61 O58 1.244 . S
C61 O59 1.240 . S
H62 C36 0.931 . S
H63 C45 0.931 . S
H64 C49 0.929 . S
H65 C51 0.930 . S
Co66 N70 2.148 . S
Co66 N76 2.128 . S
Co66 N86 2.194 . S
Co66 O91 2.351 . S
Co66 O92 2.155 . S
Co66 O93 2.096 . S
C67 N70 1.301 . S
C67 N71 1.328 . S
C67 H72 0.930 . S
C68 C69 1.333 . S
C68 N70 1.317 . S
C68 H73 0.930 . S
C69 C68 1.333 . S
C69 N71 1.350 . S
C69 H95 0.931 . S
N70 Co66 2.148 . S
N70 C67 1.301 . S
N70 C68 1.317 . S
N71 C67 1.328 . S
N71 C69 1.350 . S
H72 C67 0.930 . S
H73 C68 0.930 . S
C74 O75 1.224 . S
C74 O93 1.247 . S
O75 C74 1.224 . S
N76 Co66 2.128 . S
N76 C77 1.355 . S
N76 C79 1.311 . S
C77 N76 1.355 . S
C77 C78 1.363 . S
C77 H89 0.929 . S
C78 C77 1.363 . S
C78 N80 1.375 . S
C78 H96 0.931 . S
C79 N76 1.311 . S
C79 N80 1.347 . S
C79 H90 0.929 . S
N80 C78 1.375 . S
N80 C79 1.347 . S
C81 C84 1.365 . S
C81 N86 1.328 . S
C81 H87 0.929 . S
C82 C83 1.362 . S
C82 C85 1.378 . S
C82 H97 0.929 . S
C83 C82 1.362 . S
C83 C84 1.366 . S
C84 C81 1.365 . S
C84 C83 1.366 . S
C84 H98 0.930 . S
C85 C82 1.378 . S
C85 N86 1.315 . S
C85 H88 0.930 . S
N86 Co66 2.194 . S
N86 C81 1.328 . S
N86 C85 1.315 . S
H87 C81 0.929 . S
H88 C85 0.930 . S
H89 C77 0.929 . S
H90 C79 0.929 . S
O91 Co66 2.351 . S
O91 C94 1.244 . S
O92 Co66 2.155 . S
O92 C94 1.240 . S
O93 Co66 2.096 . S
O93 C74 1.247 . S
C94 O91 1.244 . S
C94 O92 1.240 . S
H95 C69 0.931 . S
H96 C78 0.931 . S
H97 C82 0.929 . S
H98 C84 0.930 . S
Co99 N103 2.148 . S
Co99 N109 2.128 . S
Co99 N119 2.194 . S
Co99 O124 2.351 . S
Co99 O125 2.155 . S
Co99 O126 2.096 . S
C100 N103 1.301 . S
C100 N104 1.328 . S
C100 H105 0.930 . S
C101 C102 1.333 . S
C101 N103 1.317 . S
C101 H106 0.930 . S
C102 C101 1.333 . S
C102 N104 1.350 . S
C102 H128 0.931 . S
N103 Co99 2.148 . S
N103 C100 1.301 . S
N103 C101 1.317 . S
N104 C100 1.328 . S
N104 C102 1.350 . S
H105 C100 0.930 . S
H106 C101 0.930 . S
C107 O108 1.224 . S
C107 O126 1.247 . S
O108 C107 1.224 . S
N109 Co99 2.128 . S
N109 C110 1.355 . S
N109 C112 1.311 . S
C110 N109 1.355 . S
C110 C111 1.363 1_556 S
C110 H122 0.929 . S
C111 C110 1.363 1_554 S
C111 N113 1.375 . S
C111 H129 0.931 . S
C112 N109 1.311 . S
C112 N113 1.347 1_556 S
C112 H123 0.929 . S
N113 C111 1.375 . S
N113 C112 1.347 1_554 S
C114 C117 1.365 . S
C114 N119 1.328 . S
C114 H120 0.929 . S
C115 C116 1.362 . S
C115 C118 1.378 . S
C115 H130 0.929 . S
C116 C115 1.362 . S
C116 C117 1.366 . S
C117 C114 1.365 . S
C117 C116 1.366 . S
C117 H131 0.930 . S
C118 C115 1.378 . S
C118 N119 1.315 . S
C118 H121 0.930 . S
N119 Co99 2.194 . S
N119 C114 1.328 . S
N119 C118 1.315 . S
H120 C114 0.929 . S
H121 C118 0.930 . S
H122 C110 0.929 . S
H123 C112 0.929 . S
O124 Co99 2.351 . S
O124 C127 1.244 . S
O125 Co99 2.155 . S
O125 C127 1.240 . S
O126 Co99 2.096 . S
O126 C107 1.247 . S
C127 O124 1.244 . S
C127 O125 1.240 . S
H128 C102 0.931 . S
H129 C111 0.931 . S
H130 C115 0.929 . S
H131 C117 0.930 . S
Co132 N136 2.148 . S
Co132 N142 2.128 . S
Co132 N152 2.194 . S
Co132 O157 2.351 . S
Co132 O158 2.155 . S
Co132 O159 2.096 . S
C133 N136 1.301 . S
C133 N137 1.328 . S
C133 H138 0.930 . S
C134 C135 1.333 . S
C134 N136 1.317 . S
C134 H139 0.930 . S
C135 C134 1.333 . S
C135 N137 1.350 . S
C135 H161 0.931 . S
N136 Co132 2.148 . S
N136 C133 1.301 . S
N136 C134 1.317 . S
N137 C133 1.328 . S
N137 C135 1.350 . S
H138 C133 0.930 . S
H139 C134 0.930 . S
C140 O141 1.224 . S
C140 O159 1.247 . S
O141 C140 1.224 . S
N142 Co132 2.128 . S
N142 C143 1.355 . S
N142 C145 1.311 . S
C143 N142 1.355 . S
C143 C144 1.363 1_554 S
C143 H155 0.929 . S
C144 C143 1.363 1_556 S
C144 N146 1.375 . S
C144 H162 0.931 . S
C145 N142 1.311 . S
C145 N146 1.347 1_554 S
C145 H156 0.929 . S
N146 C144 1.375 . S
N146 C145 1.347 1_556 S
C147 C150 1.365 . S
C147 N152 1.328 . S
C147 H153 0.929 . S
C148 C149 1.362 . S
C148 C151 1.378 . S
C148 H163 0.929 . S
C149 C148 1.362 . S
C149 C150 1.366 . S
C150 C147 1.365 . S
C150 C149 1.366 . S
C150 H164 0.930 . S
C151 C148 1.378 . S
C151 N152 1.315 . S
C151 H154 0.930 . S
N152 Co132 2.194 . S
N152 C147 1.328 . S
N152 C151 1.315 . S
H153 C147 0.929 . S
H154 C151 0.930 . S
H155 C143 0.929 . S
H156 C145 0.929 . S
O157 Co132 2.351 . S
O157 C160 1.244 . S
O158 Co132 2.155 . S
O158 C160 1.240 . S
O159 Co132 2.096 . S
O159 C140 1.247 . S
C160 O157 1.244 . S
C160 O158 1.240 . S
H161 C135 0.931 . S
H162 C144 0.931 . S
H163 C148 0.929 . S
H164 C150 0.930 . S
Co165 N169 2.148 . S
Co165 N175 2.128 . S
Co165 N185 2.194 . S
Co165 O190 2.351 . S
Co165 O191 2.155 . S
Co165 O192 2.096 . S
C166 N169 1.301 . S
C166 N170 1.328 . S
C166 H171 0.930 . S
C167 C168 1.333 . S
C167 N169 1.317 . S
C167 H172 0.930 . S
C168 C167 1.333 . S
C168 N170 1.350 . S
C168 H194 0.931 . S
N169 Co165 2.148 . S
N169 C166 1.301 . S
N169 C167 1.317 . S
N170 C166 1.328 . S
N170 C168 1.350 . S
H171 C166 0.930 . S
H172 C167 0.930 . S
C173 O174 1.224 . S
C173 O192 1.247 . S
O174 C173 1.224 . S
N175 Co165 2.128 . S
N175 C176 1.355 . S
N175 C178 1.311 . S
C176 N175 1.355 . S
C176 C177 1.363 . S
C176 H188 0.929 . S
C177 C176 1.363 . S
C177 N179 1.375 . S
C177 H195 0.931 . S
C178 N175 1.311 . S
C178 N179 1.347 . S
C178 H189 0.929 . S
N179 C177 1.375 . S
N179 C178 1.347 . S
C180 C183 1.365 . S
C180 N185 1.328 . S
C180 H186 0.929 . S
C181 C182 1.362 . S
C181 C184 1.378 . S
C181 H196 0.929 . S
C182 C181 1.362 . S
C182 C183 1.366 . S
C183 C180 1.365 . S
C183 C182 1.366 . S
C183 H197 0.930 . S
C184 C181 1.378 . S
C184 N185 1.315 . S
C184 H187 0.930 . S
N185 Co165 2.194 . S
N185 C180 1.328 . S
N185 C184 1.315 . S
H186 C180 0.929 . S
H187 C184 0.930 . S
H188 C176 0.929 . S
H189 C178 0.929 . S
O190 Co165 2.351 . S
O190 C193 1.244 . S
O191 Co165 2.155 . S
O191 C193 1.240 . S
O192 Co165 2.096 . S
O192 C173 1.247 . S
C193 O190 1.244 . S
C193 O191 1.240 . S
H194 C168 0.931 . S
H195 C177 0.931 . S
H196 C181 0.929 . S
H197 C183 0.930 . S
Co198 N202 2.148 . S
Co198 N208 2.128 . S
Co198 N218 2.194 . S
Co198 O223 2.351 . S
Co198 O224 2.155 . S
Co198 O225 2.096 . S
C199 N202 1.301 . S
C199 N203 1.328 . S
C199 H204 0.930 . S
C200 C201 1.333 . S
C200 N202 1.317 . S
C200 H205 0.930 . S
C201 C200 1.333 . S
C201 N203 1.350 . S
C201 H227 0.931 . S
N202 Co198 2.148 . S
N202 C199 1.301 . S
N202 C200 1.317 . S
N203 C199 1.328 . S
N203 C201 1.350 . S
H204 C199 0.930 . S
H205 C200 0.930 . S
C206 O207 1.224 . S
C206 O225 1.247 . S
O207 C206 1.224 . S
N208 Co198 2.128 . S
N208 C209 1.355 . S
N208 C211 1.311 . S
C209 N208 1.355 . S
C209 C210 1.363 1_554 S
C209 H221 0.929 . S
C210 C209 1.363 1_556 S
C210 N212 1.375 . S
C210 H228 0.931 . S
C211 N208 1.311 . S
C211 N212 1.347 1_554 S
C211 H222 0.929 . S
N212 C210 1.375 . S
N212 C211 1.347 1_556 S
C213 C216 1.365 . S
C213 N218 1.328 . S
C213 H219 0.929 . S
C214 C215 1.362 . S
C214 C217 1.378 . S
C214 H229 0.929 . S
C215 C214 1.362 . S
C215 C216 1.366 . S
C216 C213 1.365 . S
C216 C215 1.366 . S
C216 H230 0.930 . S
C217 C214 1.378 . S
C217 N218 1.315 . S
C217 H220 0.930 . S
N218 Co198 2.194 . S
N218 C213 1.328 . S
N218 C217 1.315 . S
H219 C213 0.929 . S
H220 C217 0.930 . S
H221 C209 0.929 . S
H222 C211 0.929 . S
O223 Co198 2.351 . S
O223 C226 1.244 . S
O224 Co198 2.155 . S
O224 C226 1.240 . S
O225 Co198 2.096 . S
O225 C206 1.247 . S
C226 O223 1.244 . S
C226 O224 1.240 . S
H227 C201 0.931 . S
H228 C210 0.931 . S
H229 C214 0.929 . S
H230 C216 0.930 . S
Co231 N235 2.148 . S
Co231 N241 2.128 . S
Co231 N251 2.194 . S
Co231 O256 2.351 . S
Co231 O257 2.155 . S
Co231 O258 2.096 . S
C232 N235 1.301 . S
C232 N236 1.328 . S
C232 H237 0.930 . S
C233 C234 1.333 . S
C233 N235 1.317 . S
C233 H238 0.930 . S
C234 C233 1.333 . S
C234 N236 1.350 . S
C234 H260 0.931 . S
N235 Co231 2.148 . S
N235 C232 1.301 . S
N235 C233 1.317 . S
N236 C232 1.328 . S
N236 C234 1.350 . S
H237 C232 0.930 . S
H238 C233 0.930 . S
C239 O240 1.224 . S
C239 O258 1.247 . S
O240 C239 1.224 . S
N241 Co231 2.128 . S
N241 C242 1.355 . S
N241 C244 1.311 . S
C242 N241 1.355 . S
C242 C243 1.363 . S
C242 H254 0.929 . S
C243 C242 1.363 . S
C243 N245 1.375 . S
C243 H261 0.931 . S
C244 N241 1.311 . S
C244 N245 1.347 . S
C244 H255 0.929 . S
N245 C243 1.375 . S
N245 C244 1.347 . S
C246 C249 1.365 . S
C246 N251 1.328 . S
C246 H252 0.929 . S
C247 C248 1.362 . S
C247 C250 1.378 . S
C247 H262 0.929 . S
C248 C247 1.362 . S
C248 C249 1.366 . S
C249 C246 1.365 . S
C249 C248 1.366 . S
C249 H263 0.930 . S
C250 C247 1.378 . S
C250 N251 1.315 . S
C250 H253 0.930 . S
N251 Co231 2.194 . S
N251 C246 1.328 . S
N251 C250 1.315 . S
H252 C246 0.929 . S
H253 C250 0.930 . S
H254 C242 0.929 . S
H255 C244 0.929 . S
O256 Co231 2.351 . S
O256 C259 1.244 . S
O257 Co231 2.155 . S
O257 C259 1.240 . S
O258 Co231 2.096 . S
O258 C239 1.247 . S
C259 O256 1.244 . S
C259 O257 1.240 . S
H260 C234 0.931 . S
H261 C243 0.931 . S
H262 C247 0.929 . S
H263 C249 0.930 . S
C264 C265 1.391 . S
C264 C266 1.410 . S
C264 H280 0.931 . S
C265 C264 1.391 . S
C265 C269 1.376 . S
C266 C264 1.410 . S
C266 C267 1.380 . S
C266 C270 1.503 1_565 S
C267 C266 1.380 . S
C267 C268 1.410 . S
C267 C275 1.503 1_565 S
C268 C267 1.410 . S
C268 C269 1.392 . S
C268 C271 1.511 . S
C269 C265 1.376 . S
C269 C268 1.392 . S
C269 H281 0.929 . S
C270 C266 1.503 1_545 S
C270 H282 0.960 . S
C270 H283 0.962 . S
C270 H284 0.960 . S
C271 C268 1.511 . S
C271 H285 0.961 . S
C271 H286 0.961 . S
C271 H287 0.961 . S
C272 C273 1.370 . S
C272 C274 1.363 . S
C272 H288 0.931 . S
C273 C272 1.370 . S
C273 C277 1.408 . S
C274 C272 1.363 . S
C274 C275 1.370 . S
C274 C278 1.524 . S
C275 C267 1.503 1_545 S
C275 C274 1.370 . S
C275 C276 1.403 . S
C276 C275 1.403 . S
C276 C277 1.404 . S
C276 C279 1.539 1_545 S
C277 C273 1.408 . S
C277 C276 1.404 . S
C277 H289 0.930 . S
C278 C274 1.524 . S
C278 H290 0.956 . S
C278 H291 0.961 . S
C278 H292 0.961 . S
C279 C276 1.539 1_565 S
C279 H293 0.958 . S
C279 H294 0.961 . S
C279 H295 0.960 . S
H280 C264 0.931 . S
H281 C269 0.929 . S
H282 C270 0.960 . S
H283 C270 0.962 . S
H284 C270 0.960 . S
H285 C271 0.961 . S
H286 C271 0.961 . S
H287 C271 0.961 . S
H288 C272 0.931 . S
H289 C277 0.930 . S
H290 C278 0.956 . S
H291 C278 0.961 . S
H292 C278 0.961 . S
H293 C279 0.958 . S
H294 C279 0.961 . S
H295 C279 0.960 . S
C296 C297 1.391 . S
C296 C298 1.394 . S
C296 H312 0.931 . S
C297 C296 1.391 . S
C297 C301 1.376 . S
C298 C296 1.394 . S
C298 C299 1.369 . S
C298 C302 1.531 . S
C299 C298 1.369 . S
C299 C300 1.410 . S
C299 C307 1.503 1_554 S
C300 C299 1.410 . S
C300 C301 1.392 . S
C300 C303 1.511 1_554 S
C301 C297 1.376 . S
C301 C300 1.392 . S
C301 H313 0.929 . S
C302 C298 1.531 . S
C302 H314 0.960 . S
C302 H315 0.962 . S
C302 H316 0.960 . S
C303 C300 1.511 1_556 S
C303 H317 0.961 . S
C303 H318 0.961 . S
C303 H319 0.961 . S
C304 C305 1.370 . S
C304 C306 1.363 . S
C304 H320 0.931 . S
C305 C304 1.370 . S
C305 C309 1.408 . S
C306 C304 1.363 . S
C306 C307 1.370 . S
C306 C310 1.524 . S
C307 C299 1.503 1_556 S
C307 C306 1.370 . S
C307 C308 1.403 . S
C308 C307 1.403 . S
C308 C309 1.404 . S
C308 C311 1.539 1_556 S
C309 C305 1.408 . S
C309 C308 1.404 . S
C309 H321 0.930 . S
C310 C306 1.524 . S
C310 H322 0.956 . S
C310 H323 0.961 . S
C310 H324 0.961 . S
C311 C308 1.539 1_554 S
C311 H325 0.958 . S
C311 H326 0.961 . S
C311 H327 0.960 . S
H312 C296 0.931 . S
H313 C301 0.929 . S
H314 C302 0.960 . S
H315 C302 0.962 . S
H316 C302 0.960 . S
H317 C303 0.961 . S
H318 C303 0.961 . S
H319 C303 0.961 . S
H320 C304 0.931 . S
H321 C309 0.930 . S
H322 C310 0.956 . S
H323 C310 0.961 . S
H324 C310 0.961 . S
H325 C311 0.958 . S
H326 C311 0.961 . S
H327 C311 0.960 . S
C328 C329 1.391 . S
C328 C330 1.394 . S
C328 H344 0.931 . S
C329 C328 1.391 . S
C329 C333 1.376 . S
C330 C328 1.394 . S
C330 C331 1.369 . S
C330 C334 1.531 . S
C331 C330 1.369 . S
C331 C332 1.410 . S
C331 C339 1.503 1_655 S
C332 C331 1.410 . S
C332 C333 1.392 . S
C332 C335 1.511 1_655 S
C333 C329 1.376 . S
C333 C332 1.392 . S
C333 H345 0.929 . S
C334 C330 1.531 . S
C334 H346 0.960 . S
C334 H347 0.962 . S
C334 H348 0.960 . S
C335 C332 1.511 1_455 S
C335 H349 0.961 . S
C335 H350 0.961 . S
C335 H351 0.961 . S
C336 C337 1.370 . S
C336 C338 1.377 . S
C336 H352 0.931 . S
C337 C336 1.370 . S
C337 C341 1.408 . S
C338 C336 1.377 . S
C338 C339 1.381 . S
C338 C342 1.500 1_455 S
C339 C331 1.503 1_455 S
C339 C338 1.381 . S
C339 C340 1.403 . S
C340 C339 1.403 . S
C340 C341 1.404 . S
C340 C343 1.539 . S
C341 C337 1.408 . S
C341 C340 1.404 . S
C341 H353 0.930 . S
C342 C338 1.500 1_655 S
C342 H354 0.956 . S
C342 H355 0.961 . S
C342 H356 0.961 . S
C343 C340 1.539 . S
C343 H357 0.958 . S
C343 H358 0.961 . S
C343 H359 0.960 . S
H344 C328 0.931 . S
H345 C333 0.929 . S
H346 C334 0.960 . S
H347 C334 0.962 . S
H348 C334 0.960 . S
H349 C335 0.961 . S
H350 C335 0.961 . S
H351 C335 0.961 . S
H352 C336 0.931 . S
H353 C341 0.930 . S
H354 C342 0.956 . S
H355 C342 0.961 . S
H356 C342 0.961 . S
H357 C343 0.958 . S
H358 C343 0.961 . S
H359 C343 0.960 . S
C360 C361 1.391 . S
C360 C362 1.394 . S
C360 H376 0.931 . S
C361 C360 1.391 . S
C361 C365 1.376 . S
C362 C360 1.394 . S
C362 C363 1.369 . S
C362 C366 1.531 1_645 S
C363 C362 1.369 . S
C363 C364 1.410 . S
C363 C371 1.503 1_644 S
C364 C363 1.410 . S
C364 C365 1.392 . S
C364 C367 1.511 1_554 S
C365 C361 1.376 . S
C365 C364 1.392 . S
C365 H377 0.929 . S
C366 C362 1.531 1_465 S
C366 H378 0.960 . S
C366 H379 0.962 1_565 S
C366 H380 0.960 . S
C367 C364 1.511 1_556 S
C367 H381 0.961 . S
C367 H382 0.961 . S
C367 H383 0.961 1_545 S
C368 C369 1.370 . S
C368 C370 1.349 1_565 S
C368 H384 0.931 . S
C369 C368 1.370 . S
C369 C373 1.408 . S
C370 C368 1.349 1_545 S
C370 C371 1.357 1_545 S
C370 C374 1.553 . S
C371 C363 1.503 1_466 S
C371 C370 1.357 1_565 S
C371 C372 1.403 . S
C372 C371 1.403 . S
C372 C373 1.404 . S
C372 C375 1.539 1_456 S
C373 C369 1.408 . S
C373 C372 1.404 . S
C373 H385 0.930 . S
C374 C370 1.553 . S
C374 H386 0.956 . S
C374 H387 0.961 . S
C374 H388 0.961 . S
C375 C372 1.539 1_654 S
C375 H389 0.958 . S
C375 H390 0.961 1_554 S
C375 H391 0.960 . S
H376 C360 0.931 . S
H377 C365 0.929 . S
H378 C366 0.960 . S
H379 C366 0.962 1_545 S
H380 C366 0.960 . S
H381 C367 0.961 . S
H382 C367 0.961 . S
H383 C367 0.961 1_565 S
H384 C368 0.931 . S
H385 C373 0.930 . S
H386 C374 0.956 . S
H387 C374 0.961 . S
H388 C374 0.961 . S
H389 C375 0.958 . S
H390 C375 0.961 1_556 S
H391 C375 0.960 . S
C392 C393 1.391 . S
C392 C394 1.394 . S
C392 H408 0.931 . S
C393 C392 1.391 . S
C393 C397 1.376 . S
C394 C392 1.394 . S
C394 C395 1.369 . S
C394 C398 1.531 . S
C395 C394 1.369 . S
C395 C396 1.410 . S
C395 C403 1.503 . S
C396 C395 1.410 . S
C396 C397 1.392 . S
C396 C399 1.511 . S
C397 C393 1.376 . S
C397 C396 1.392 . S
C397 H409 0.929 . S
C398 C394 1.531 . S
C398 H410 0.960 . S
C398 H411 0.962 . S
C398 H412 0.960 . S
C399 C396 1.511 . S
C399 H413 0.961 . S
C399 H414 0.961 . S
C399 H415 0.961 . S
C400 C401 1.370 . S
C400 C402 1.363 . S
C400 H416 0.931 . S
C401 C400 1.370 . S
C401 C405 1.408 . S
C402 C400 1.363 . S
C402 C403 1.370 . S
C402 C406 1.524 . S
C403 C395 1.503 . S
C403 C402 1.370 . S
C403 C404 1.403 . S
C404 C403 1.403 . S
C404 C405 1.404 . S
C404 C407 1.539 . S
C405 C401 1.408 . S
C405 C404 1.404 . S
C405 H417 0.930 . S
C406 C402 1.524 . S
C406 H418 0.956 . S
C406 H419 0.961 . S
C406 H420 0.961 . S
C407 C404 1.539 . S
C407 H421 0.958 . S
C407 H422 0.961 . S
C407 H423 0.960 . S
H408 C392 0.931 . S
H409 C397 0.929 . S
H410 C398 0.960 . S
H411 C398 0.962 . S
H412 C398 0.960 . S
H413 C399 0.961 . S
H414 C399 0.961 . S
H415 C399 0.961 . S
H416 C400 0.931 . S
H417 C405 0.930 . S
H418 C406 0.956 . S
H419 C406 0.961 . S
H420 C406 0.961 . S
H421 C407 0.958 . S
H422 C407 0.961 . S
H423 C407 0.960 . S
C424 C425 1.391 . S
C424 C426 1.394 . S
C424 H440 0.931 . S
C425 C424 1.391 . S
C425 C429 1.376 . S
C426 C424 1.394 . S
C426 C427 1.369 . S
C426 C430 1.531 . S
C427 C426 1.369 . S
C427 C428 1.410 . S
C427 C435 1.503 . S
C428 C427 1.410 . S
C428 C429 1.392 . S
C428 C431 1.511 . S
C429 C425 1.376 . S
C429 C428 1.392 . S
C429 H441 0.929 . S
C430 C426 1.531 . S
C430 H442 0.960 . S
C430 H443 0.962 . S
C430 H444 0.960 . S
C431 C428 1.511 . S
C431 H445 0.961 . S
C431 H446 0.961 . S
C431 H447 0.961 . S
C432 C433 1.370 . S
C432 C434 1.363 . S
C432 H448 0.931 . S
C433 C432 1.370 . S
C433 C437 1.408 . S
C434 C432 1.363 . S
C434 C435 1.370 . S
C434 C438 1.524 . S
C435 C427 1.503 . S
C435 C434 1.370 . S
C435 C436 1.403 . S
C436 C435 1.403 . S
C436 C437 1.404 . S
C436 C439 1.539 . S
C437 C433 1.408 . S
C437 C436 1.404 . S
C437 H449 0.930 . S
C438 C434 1.524 . S
C438 H450 0.956 . S
C438 H451 0.961 . S
C438 H452 0.961 . S
C439 C436 1.539 . S
C439 H453 0.958 . S
C439 H454 0.961 . S
C439 H455 0.960 . S
H440 C424 0.931 . S
H441 C429 0.929 . S
H442 C430 0.960 . S
H443 C430 0.962 . S
H444 C430 0.960 . S
H445 C431 0.961 . S
H446 C431 0.961 . S
H447 C431 0.961 . S
H448 C432 0.931 . S
H449 C437 0.930 . S
H450 C438 0.956 . S
H451 C438 0.961 . S
H452 C438 0.961 . S
H453 C439 0.958 . S
H454 C439 0.961 . S
H455 C439 0.960 . S
C456 C457 1.391 . S
C456 C458 1.394 . S
C456 H472 0.931 . S
C457 C456 1.391 . S
C457 C461 1.376 . S
C458 C456 1.394 . S
C458 C459 1.369 . S
C458 C462 1.531 . S
C459 C458 1.369 . S
C459 C460 1.410 . S
C459 C467 1.503 . S
C460 C459 1.410 . S
C460 C461 1.392 . S
C460 C463 1.511 . S
C461 C457 1.376 . S
C461 C460 1.392 . S
C461 H473 0.929 . S
C462 C458 1.531 . S
C462 H474 0.960 . S
C462 H475 0.962 . S
C462 H476 0.960 . S
C463 C460 1.511 . S
C463 H477 0.961 . S
C463 H478 0.961 . S
C463 H479 0.961 . S
C464 C465 1.370 . S
C464 C466 1.363 . S
C464 H480 0.931 . S
C465 C464 1.370 . S
C465 C469 1.408 . S
C466 C464 1.363 . S
C466 C467 1.370 . S
C466 C470 1.524 . S
C467 C459 1.503 . S
C467 C466 1.370 . S
C467 C468 1.403 . S
C468 C467 1.403 . S
C468 C469 1.404 . S
C468 C471 1.539 . S
C469 C465 1.408 . S
C469 C468 1.404 . S
C469 H481 0.930 . S
C470 C466 1.524 . S
C470 H482 0.956 . S
C470 H483 0.961 . S
C470 H484 0.961 . S
C471 C468 1.539 . S
C471 H485 0.958 . S
C471 H486 0.961 . S
C471 H487 0.960 . S
H472 C456 0.931 . S
H473 C461 0.929 . S
H474 C462 0.960 . S
H475 C462 0.962 . S
H476 C462 0.960 . S
H477 C463 0.961 . S
H478 C463 0.961 . S
H479 C463 0.961 . S
H480 C464 0.931 . S
H481 C469 0.930 . S
H482 C470 0.956 . S
H483 C470 0.961 . S
H484 C470 0.961 . S
H485 C471 0.958 . S
H486 C471 0.961 . S
H487 C471 0.960 . S
C488 C489 1.391 . S
C488 C490 1.394 . S
C488 H504 0.931 . S
C489 C488 1.391 . S
C489 C493 1.376 . S
C490 C488 1.394 . S
C490 C491 1.369 . S
C490 C494 1.531 . S
C491 C490 1.369 . S
C491 C492 1.410 . S
C491 C499 1.503 . S
C492 C491 1.410 . S
C492 C493 1.392 . S
C492 C495 1.511 . S
C493 C489 1.376 . S
C493 C492 1.392 . S
C493 H505 0.929 . S
C494 C490 1.531 . S
C494 H506 0.960 . S
C494 H507 0.962 . S
C494 H508 0.960 . S
C495 C492 1.511 . S
C495 H509 0.961 . S
C495 H510 0.961 . S
C495 H511 0.961 . S
C496 C497 1.370 . S
C496 C498 1.363 . S
C496 H512 0.931 . S
C497 C496 1.370 . S
C497 C501 1.408 . S
C498 C496 1.363 . S
C498 C499 1.370 . S
C498 C502 1.524 . S
C499 C491 1.503 . S
C499 C498 1.370 . S
C499 C500 1.403 . S
C500 C499 1.403 . S
C500 C501 1.404 . S
C500 C503 1.539 . S
C501 C497 1.408 . S
C501 C500 1.404 . S
C501 H513 0.930 . S
C502 C498 1.524 . S
C502 H514 0.956 . S
C502 H515 0.961 . S
C502 H516 0.961 . S
C503 C500 1.539 . S
C503 H517 0.958 . S
C503 H518 0.961 . S
C503 H519 0.960 . S
H504 C488 0.931 . S
H505 C493 0.929 . S
H506 C494 0.960 . S
H507 C494 0.962 . S
H508 C494 0.960 . S
H509 C495 0.961 . S
H510 C495 0.961 . S
H511 C495 0.961 . S
H512 C496 0.931 . S
H513 C501 0.930 . S
H514 C502 0.956 . S
H515 C502 0.961 . S
H516 C502 0.961 . S
H517 C503 0.958 . S
H518 C503 0.961 . S
H519 C503 0.960 . S
C520 C521 1.391 . S
C520 C522 1.394 . S
C520 H536 0.931 . S
C521 C520 1.391 . S
C521 C525 1.376 . S
C522 C520 1.394 . S
C522 C523 1.369 . S
C522 C526 1.531 . S
C523 C522 1.369 . S
C523 C524 1.410 . S
C523 C531 1.503 . S
C524 C523 1.410 . S
C524 C525 1.392 . S
C524 C527 1.511 . S
C525 C521 1.376 . S
C525 C524 1.392 . S
C525 H537 0.929 . S
C526 C522 1.531 . S
C526 H538 0.960 . S
C526 H539 0.962 . S
C526 H540 0.960 . S
C527 C524 1.511 . S
C527 H541 0.961 . S
C527 H542 0.961 . S
C527 H543 0.961 . S
C528 C529 1.370 . S
C528 C530 1.363 . S
C528 H544 0.931 . S
C529 C528 1.370 . S
C529 C533 1.408 . S
C530 C528 1.363 . S
C530 C531 1.370 . S
C530 C534 1.524 . S
C531 C523 1.503 . S
C531 C530 1.370 . S
C531 C532 1.403 . S
C532 C531 1.403 . S
C532 C533 1.404 . S
C532 C535 1.539 . S
C533 C529 1.408 . S
C533 C532 1.404 . S
C533 H545 0.930 . S
C534 C530 1.524 . S
C534 H546 0.956 . S
C534 H547 0.961 . S
C534 H548 0.961 . S
C535 C532 1.539 . S
C535 H549 0.958 . S
C535 H550 0.961 . S
C535 H551 0.960 . S
H536 C520 0.931 . S
H537 C525 0.929 . S
H538 C526 0.960 . S
H539 C526 0.962 . S
H540 C526 0.960 . S
H541 C527 0.961 . S
H542 C527 0.961 . S
H543 C527 0.961 . S
H544 C528 0.931 . S
H545 C533 0.930 . S
H546 C534 0.956 . S
H547 C534 0.961 . S
H548 C534 0.961 . S
H549 C535 0.958 . S
H550 C535 0.961 . S
H551 C535 0.960 . S
C552 C553 1.391 . S
C552 C554 1.394 . S
C552 H568 0.931 . S
C553 C552 1.391 . S
C553 C557 1.376 . S
C554 C552 1.394 . S
C554 C555 1.369 . S
C554 C558 1.531 . S
C555 C554 1.369 . S
C555 C556 1.410 . S
C555 C563 1.503 . S
C556 C555 1.410 . S
C556 C557 1.392 . S
C556 C559 1.511 . S
C557 C553 1.376 . S
C557 C556 1.392 . S
C557 H569 0.929 . S
C558 C554 1.531 . S
C558 H570 0.960 . S
C558 H571 0.962 . S
C558 H572 0.960 . S
C559 C556 1.511 . S
C559 H573 0.961 . S
C559 H574 0.961 . S
C559 H575 0.961 . S
C560 C561 1.370 . S
C560 C562 1.363 . S
C560 H576 0.931 . S
C561 C560 1.370 . S
C561 C565 1.408 . S
C562 C560 1.363 . S
C562 C563 1.370 . S
C562 C566 1.524 . S
C563 C555 1.503 . S
C563 C562 1.370 . S
C563 C564 1.403 . S
C564 C563 1.403 . S
C564 C565 1.404 . S
C564 C567 1.539 . S
C565 C561 1.408 . S
C565 C564 1.404 . S
C565 H577 0.930 . S
C566 C562 1.524 . S
C566 H578 0.956 . S
C566 H579 0.961 . S
C566 H580 0.961 . S
C567 C564 1.539 . S
C567 H581 0.958 . S
C567 H582 0.961 . S
C567 H583 0.960 . S
H568 C552 0.931 . S
H569 C557 0.929 . S
H570 C558 0.960 . S
H571 C558 0.962 . S
H572 C558 0.960 . S
H573 C559 0.961 . S
H574 C559 0.961 . S
H575 C559 0.961 . S
H576 C560 0.931 . S
H577 C565 0.930 . S
H578 C566 0.956 . S
H579 C566 0.961 . S
H580 C566 0.961 . S
H581 C567 0.958 . S
H582 C567 0.961 . S
H583 C567 0.960 . S
C584 C585 1.391 . S
C584 C586 1.394 . S
C584 H600 0.931 . S
C585 C584 1.391 . S
C585 C589 1.376 . S
C586 C584 1.394 . S
C586 C587 1.369 . S
C586 C590 1.531 . S
C587 C586 1.369 . S
C587 C588 1.410 . S
C587 C595 1.503 . S
C588 C587 1.410 . S
C588 C589 1.392 . S
C588 C591 1.511 . S
C589 C585 1.376 . S
C589 C588 1.392 . S
C589 H601 0.929 . S
C590 C586 1.531 . S
C590 H602 0.960 . S
C590 H603 0.962 . S
C590 H604 0.960 . S
C591 C588 1.511 . S
C591 H605 0.961 . S
C591 H606 0.961 . S
C591 H607 0.961 . S
C592 C593 1.370 . S
C592 C594 1.363 . S
C592 H608 0.931 . S
C593 C592 1.370 . S
C593 C597 1.408 . S
C594 C592 1.363 . S
C594 C595 1.370 . S
C594 C598 1.524 . S
C595 C587 1.503 . S
C595 C594 1.370 . S
C595 C596 1.403 . S
C596 C595 1.403 . S
C596 C597 1.404 . S
C596 C599 1.539 . S
C597 C593 1.408 . S
C597 C596 1.404 . S
C597 H609 0.930 . S
C598 C594 1.524 . S
C598 H610 0.956 . S
C598 H611 0.961 . S
C598 H612 0.961 . S
C599 C596 1.539 . S
C599 H613 0.958 . S
C599 H614 0.961 . S
C599 H615 0.960 . S
H600 C584 0.931 . S
H601 C589 0.929 . S
H602 C590 0.960 . S
H603 C590 0.962 . S
H604 C590 0.960 . S
H605 C591 0.961 . S
H606 C591 0.961 . S
H607 C591 0.961 . S
H608 C592 0.931 . S
H609 C597 0.930 . S
H610 C598 0.956 . S
H611 C598 0.961 . S
H612 C598 0.961 . S
H613 C599 0.958 . S
H614 C599 0.961 . S
H615 C599 0.960 . S
C616 C617 1.391 . S
C616 C618 1.394 . S
C616 H632 0.931 . S
C617 C616 1.391 . S
C617 C621 1.376 . S
C618 C616 1.394 . S
C618 C619 1.369 . S
C618 C622 1.531 . S
C619 C618 1.369 . S
C619 C620 1.410 . S
C619 C627 1.503 . S
C620 C619 1.410 . S
C620 C621 1.392 . S
C620 C623 1.511 . S
C621 C617 1.376 . S
C621 C620 1.392 . S
C621 H633 0.929 . S
C622 C618 1.531 . S
C622 H634 0.960 . S
C622 H635 0.962 . S
C622 H636 0.960 . S
C623 C620 1.511 . S
C623 H637 0.961 . S
C623 H638 0.961 . S
C623 H639 0.961 . S
C624 C625 1.370 . S
C624 C626 1.363 . S
C624 H640 0.931 . S
C625 C624 1.370 . S
C625 C629 1.408 . S
C626 C624 1.363 . S
C626 C627 1.370 . S
C626 C630 1.524 . S
C627 C619 1.503 . S
C627 C626 1.370 . S
C627 C628 1.403 . S
C628 C627 1.403 . S
C628 C629 1.404 . S
C628 C631 1.539 . S
C629 C625 1.408 . S
C629 C628 1.404 . S
C629 H641 0.930 . S
C630 C626 1.524 . S
C630 H642 0.956 . S
C630 H643 0.961 . S
C630 H644 0.961 . S
C631 C628 1.539 . S
C631 H645 0.958 . S
C631 H646 0.961 . S
C631 H647 0.960 . S
H632 C616 0.931 . S
H633 C621 0.929 . S
H634 C622 0.960 . S
H635 C622 0.962 . S
H636 C622 0.960 . S
H637 C623 0.961 . S
H638 C623 0.961 . S
H639 C623 0.961 . S
H640 C624 0.931 . S
H641 C629 0.930 . S
H642 C630 0.956 . S
H643 C630 0.961 . S
H644 C630 0.961 . S
H645 C631 0.958 . S
H646 C631 0.961 . S
H647 C631 0.960 . S
C648 C649 1.391 . S
C648 C650 1.394 . S
C648 H664 0.931 . S
C649 C648 1.391 . S
C649 C653 1.376 . S
C650 C648 1.394 . S
C650 C651 1.369 . S
C650 C654 1.531 . S
C651 C650 1.369 . S
C651 C652 1.410 . S
C651 C659 1.503 . S
C652 C651 1.410 . S
C652 C653 1.392 . S
C652 C655 1.511 . S
C653 C649 1.376 . S
C653 C652 1.392 . S
C653 H665 0.929 . S
C654 C650 1.531 . S
C654 H666 0.960 . S
C654 H667 0.962 . S
C654 H668 0.960 . S
C655 C652 1.511 . S
C655 H669 0.961 . S
C655 H670 0.961 . S
C655 H671 0.961 . S
C656 C657 1.370 1_556 S
C656 C658 1.363 . S
C656 H672 0.931 . S
C657 C656 1.370 1_554 S
C657 C661 1.408 1_554 S
C658 C656 1.363 . S
C658 C659 1.370 . S
C658 C662 1.524 . S
C659 C651 1.503 . S
C659 C658 1.370 . S
C659 C660 1.403 . S
C660 C659 1.403 . S
C660 C661 1.404 . S
C660 C663 1.539 . S
C661 C657 1.408 1_556 S
C661 C660 1.404 . S
C661 H673 0.930 . S
C662 C658 1.524 . S
C662 H674 0.956 . S
C662 H675 0.961 . S
C662 H676 0.961 . S
C663 C660 1.539 . S
C663 H677 0.958 . S
C663 H678 0.961 . S
C663 H679 0.960 . S
H664 C648 0.931 . S
H665 C653 0.929 . S
H666 C654 0.960 . S
H667 C654 0.962 . S
H668 C654 0.960 . S
H669 C655 0.961 . S
H670 C655 0.961 . S
H671 C655 0.961 . S
H672 C656 0.931 . S
H673 C661 0.930 . S
H674 C662 0.956 . S
H675 C662 0.961 . S
H676 C662 0.961 . S
H677 C663 0.958 . S
H678 C663 0.961 . S
H679 C663 0.960 . S
C680 C681 1.391 . S
C680 C682 1.394 . S
C680 H696 0.931 . S
C681 C680 1.391 . S
C681 C685 1.376 . S
C682 C680 1.394 . S
C682 C683 1.369 . S
C682 C686 1.531 . S
C683 C682 1.369 . S
C683 C684 1.410 . S
C683 C691 1.503 . S
C684 C683 1.410 . S
C684 C685 1.392 . S
C684 C687 1.511 . S
C685 C681 1.376 . S
C685 C684 1.392 . S
C685 H697 0.929 . S
C686 C682 1.531 . S
C686 H698 0.960 . S
C686 H699 0.962 . S
C686 H700 0.960 . S
C687 C684 1.511 . S
C687 H701 0.961 . S
C687 H702 0.961 . S
C687 H703 0.961 . S
C688 C689 1.370 . S
C688 C690 1.363 . S
C688 H704 0.931 . S
C689 C688 1.370 . S
C689 C693 1.408 . S
C690 C688 1.363 . S
C690 C691 1.370 . S
C690 C694 1.524 . S
C691 C683 1.503 . S
C691 C690 1.370 . S
C691 C692 1.403 . S
C692 C691 1.403 . S
C692 C693 1.404 . S
C692 C695 1.539 . S
C693 C689 1.408 . S
C693 C692 1.404 . S
C693 H705 0.930 . S
C694 C690 1.524 . S
C694 H706 0.956 . S
C694 H707 0.961 . S
C694 H708 0.961 . S
C695 C692 1.539 . S
C695 H709 0.958 . S
C695 H710 0.961 . S
C695 H711 0.960 . S
H696 C680 0.931 . S
H697 C685 0.929 . S
H698 C686 0.960 . S
H699 C686 0.962 . S
H700 C686 0.960 . S
H701 C687 0.961 . S
H702 C687 0.961 . S
H703 C687 0.961 . S
H704 C688 0.931 . S
H705 C693 0.930 . S
H706 C694 0.956 . S
H707 C694 0.961 . S
H708 C694 0.961 . S
H709 C695 0.958 . S
H710 C695 0.961 . S
H711 C695 0.960 . S
C712 C713 1.391 1_556 S
C712 C714 1.394 . S
C712 H728 0.924 1_556 S
C713 C712 1.391 1_554 S
C713 C717 1.376 1_554 S
C714 C712 1.394 . S
C714 C715 1.369 . S
C714 C718 1.531 . S
C715 C714 1.369 . S
C715 C716 1.410 . S
C715 C723 1.503 . S
C716 C715 1.410 . S
C716 C717 1.392 . S
C716 C719 1.511 . S
C717 C713 1.376 1_556 S
C717 C716 1.392 . S
C717 H729 0.929 . S
C718 C714 1.531 . S
C718 H730 0.960 . S
C718 H731 0.962 . S
C718 H732 0.960 . S
C719 C716 1.511 . S
C719 H733 0.961 . S
C719 H734 0.961 . S
C719 H735 0.961 . S
C720 C721 1.370 . S
C720 C722 1.363 . S
C720 H736 0.931 . S
C721 C720 1.370 . S
C721 C725 1.408 . S
C722 C720 1.363 . S
C722 C723 1.370 . S
C722 C726 1.524 . S
C723 C715 1.503 . S
C723 C722 1.370 . S
C723 C724 1.403 . S
C724 C723 1.403 . S
C724 C725 1.404 . S
C724 C727 1.539 . S
C725 C721 1.408 . S
C725 C724 1.404 . S
C725 H737 0.930 . S
C726 C722 1.524 . S
C726 H738 0.956 . S
C726 H739 0.961 . S
C726 H740 0.961 . S
C727 C724 1.539 . S
C727 H741 0.958 . S
C727 H742 0.961 . S
C727 H743 0.960 . S
H728 C712 0.924 1_554 S
H729 C717 0.929 . S
H730 C718 0.960 . S
H731 C718 0.962 . S
H732 C718 0.960 . S
H733 C719 0.961 . S
H734 C719 0.961 . S
H735 C719 0.961 . S
H736 C720 0.931 . S
H737 C725 0.930 . S
H738 C726 0.956 . S
H739 C726 0.961 . S
H740 C726 0.961 . S
H741 C727 0.958 . S
H742 C727 0.961 . S
H743 C727 0.960 . S
C744 C745 1.391 . S
C744 C746 1.394 . S
C744 H760 0.931 . S
C745 C744 1.391 . S
C745 C749 1.376 . S
C746 C744 1.394 . S
C746 C747 1.369 . S
C746 C750 1.531 . S
C747 C746 1.369 . S
C747 C748 1.410 . S
C747 C755 1.503 . S
C748 C747 1.410 . S
C748 C749 1.392 . S
C748 C751 1.511 . S
C749 C745 1.376 . S
C749 C748 1.392 . S
C749 H761 0.929 . S
C750 C746 1.531 . S
C750 H762 0.960 . S
C750 H763 0.962 . S
C750 H764 0.960 . S
C751 C748 1.511 . S
C751 H765 0.961 . S
C751 H766 0.961 . S
C751 H767 0.961 . S
C752 C753 1.370 . S
C752 C754 1.363 . S
C752 H768 0.931 . S
C753 C752 1.370 . S
C753 C757 1.408 . S
C754 C752 1.363 . S
C754 C755 1.370 . S
C754 C758 1.524 . S
C755 C747 1.503 . S
C755 C754 1.370 . S
C755 C756 1.403 . S
C756 C755 1.403 . S
C756 C757 1.404 . S
C756 C759 1.539 . S
C757 C753 1.408 . S
C757 C756 1.404 . S
C757 H769 0.930 . S
C758 C754 1.524 . S
C758 H770 0.956 . S
C758 H771 0.961 . S
C758 H772 0.961 . S
C759 C756 1.539 . S
C759 H773 0.958 . S
C759 H774 0.961 . S
C759 H775 0.960 . S
H760 C744 0.931 . S
H761 C749 0.929 . S
H762 C750 0.960 . S
H763 C750 0.962 . S
H764 C750 0.960 . S
H765 C751 0.961 . S
H766 C751 0.961 . S
H767 C751 0.961 . S
H768 C752 0.931 . S
H769 C757 0.930 . S
H770 C758 0.956 . S
H771 C758 0.961 . S
H772 C758 0.961 . S
H773 C759 0.958 . S
H774 C759 0.961 . S
H775 C759 0.960 . S
C776 C777 1.391 . S
C776 C778 1.394 . S
C776 H792 0.931 . S
C777 C776 1.391 . S
C777 C781 1.376 . S
C778 C776 1.394 . S
C778 C779 1.369 . S
C778 C782 1.531 . S
C779 C778 1.369 . S
C779 C780 1.410 . S
C779 C787 1.503 . S
C780 C779 1.410 . S
C780 C781 1.392 . S
C780 C783 1.511 . S
C781 C777 1.376 . S
C781 C780 1.392 . S
C781 H793 0.929 . S
C782 C778 1.531 . S
C782 H794 0.960 . S
C782 H795 0.962 . S
C782 H796 0.960 . S
C783 C780 1.511 . S
C783 H797 0.961 . S
C783 H798 0.961 . S
C783 H799 0.961 . S
C784 C785 1.370 . S
C784 C786 1.363 . S
C784 H800 0.931 . S
C785 C784 1.370 . S
C785 C789 1.408 . S
C786 C784 1.363 . S
C786 C787 1.370 . S
C786 C790 1.524 . S
C787 C779 1.503 . S
C787 C786 1.370 . S
C787 C788 1.403 . S
C788 C787 1.403 . S
C788 C789 1.404 . S
C788 C791 1.539 . S
C789 C785 1.408 . S
C789 C788 1.404 . S
C789 H801 0.930 . S
C790 C786 1.524 . S
C790 H802 0.956 . S
C790 H803 0.961 . S
C790 H804 0.961 . S
C791 C788 1.539 . S
C791 H805 0.958 . S
C791 H806 0.961 . S
C791 H807 0.960 . S
H792 C776 0.931 . S
H793 C781 0.929 . S
H794 C782 0.960 . S
H795 C782 0.962 . S
H796 C782 0.960 . S
H797 C783 0.961 . S
H798 C783 0.961 . S
H799 C783 0.961 . S
H800 C784 0.931 . S
H801 C789 0.930 . S
H802 C790 0.956 . S
H803 C790 0.961 . S
H804 C790 0.961 . S
H805 C791 0.958 . S
H806 C791 0.961 . S
H807 C791 0.960 . S
C808 C809 1.391 1_554 S
C808 C810 1.394 . S
C808 H824 0.931 . S
C809 C808 1.391 1_556 S
C809 C813 1.376 1_556 S
C810 C808 1.394 . S
C810 C811 1.369 . S
C810 C814 1.531 . S
C811 C810 1.369 . S
C811 C812 1.410 . S
C811 C819 1.503 . S
C812 C811 1.410 . S
C812 C813 1.392 . S
C812 C815 1.511 . S
C813 C809 1.376 1_554 S
C813 C812 1.392 . S
C813 H825 0.929 1_554 S
C814 C810 1.531 . S
C814 H826 0.960 . S
C814 H827 0.962 . S
C814 H828 0.960 . S
C815 C812 1.511 . S
C815 H829 0.961 . S
C815 H830 0.961 . S
C815 H831 0.961 . S
C816 C817 1.370 . S
C816 C818 1.363 . S
C816 H832 0.931 . S
C817 C816 1.370 . S
C817 C821 1.408 . S
C818 C816 1.363 . S
C818 C819 1.370 . S
C818 C822 1.524 . S
C819 C811 1.503 . S
C819 C818 1.370 . S
C819 C820 1.403 . S
C820 C819 1.403 . S
C820 C821 1.404 . S
C820 C823 1.539 . S
C821 C817 1.408 . S
C821 C820 1.404 . S
C821 H833 0.930 . S
C822 C818 1.524 . S
C822 H834 0.956 . S
C822 H835 0.961 . S
C822 H836 0.961 . S
C823 C820 1.539 . S
C823 H837 0.958 . S
C823 H838 0.961 . S
C823 H839 0.960 . S
H824 C808 0.931 . S
H825 C813 0.929 1_556 S
H826 C814 0.960 . S
H827 C814 0.962 . S
H828 C814 0.960 . S
H829 C815 0.961 . S
H830 C815 0.961 . S
H831 C815 0.961 . S
H832 C816 0.931 . S
H833 C821 0.930 . S
H834 C822 0.956 . S
H835 C822 0.961 . S
H836 C822 0.961 . S
H837 C823 0.958 . S
H838 C823 0.961 . S
H839 C823 0.960 . S
C840 C841 1.391 . S
C840 C842 1.394 . S
C840 H856 0.931 . S
C841 C840 1.391 . S
C841 C845 1.376 . S
C842 C840 1.394 . S
C842 C843 1.369 . S
C842 C846 1.531 . S
C843 C842 1.369 . S
C843 C844 1.410 . S
C843 C851 1.503 . S
C844 C843 1.410 . S
C844 C845 1.392 . S
C844 C847 1.511 . S
C845 C841 1.376 . S
C845 C844 1.392 . S
C845 H857 0.929 . S
C846 C842 1.531 . S
C846 H858 0.960 . S
C846 H859 0.962 . S
C846 H860 0.960 . S
C847 C844 1.511 . S
C847 H861 0.961 . S
C847 H862 0.961 . S
C847 H863 0.961 . S
C848 C849 1.370 . S
C848 C850 1.363 . S
C848 H864 0.931 . S
C849 C848 1.370 . S
C849 C853 1.408 . S
C850 C848 1.363 . S
C850 C851 1.370 . S
C850 C854 1.524 . S
C851 C843 1.503 . S
C851 C850 1.370 . S
C851 C852 1.403 . S
C852 C851 1.403 . S
C852 C853 1.404 . S
C852 C855 1.539 . S
C853 C849 1.408 . S
C853 C852 1.404 . S
C853 H865 0.930 . S
C854 C850 1.524 . S
C854 H866 0.956 . S
C854 H867 0.961 . S
C854 H868 0.961 . S
C855 C852 1.539 . S
C855 H869 0.958 . S
C855 H870 0.961 . S
C855 H871 0.960 . S
H856 C840 0.931 . S
H857 C845 0.929 . S
H858 C846 0.960 . S
H859 C846 0.962 . S
H860 C846 0.960 . S
H861 C847 0.961 . S
H862 C847 0.961 . S
H863 C847 0.961 . S
H864 C848 0.931 . S
H865 C853 0.930 . S
H866 C854 0.956 . S
H867 C854 0.961 . S
H868 C854 0.961 . S
H869 C855 0.958 . S
H870 C855 0.961 . S
H871 C855 0.960 . S
C872 C873 1.391 . S
C872 C874 1.394 . S
C872 H888 0.931 . S
C873 C872 1.391 . S
C873 C877 1.376 . S
C874 C872 1.394 . S
C874 C875 1.369 . S
C874 C878 1.531 . S
C875 C874 1.369 . S
C875 C876 1.410 . S
C875 C883 1.503 . S
C876 C875 1.410 . S
C876 C877 1.392 . S
C876 C879 1.511 . S
C877 C873 1.376 . S
C877 C876 1.392 . S
C877 H889 0.929 . S
C878 C874 1.531 . S
C878 H890 0.960 . S
C878 H891 0.962 . S
C878 H892 0.960 . S
C879 C876 1.511 . S
C879 H893 0.961 . S
C879 H894 0.961 . S
C879 H895 0.961 . S
C880 C881 1.370 1_554 S
C880 C882 1.363 . S
C880 H896 0.931 . S
C881 C880 1.370 1_556 S
C881 C885 1.408 1_556 S
C882 C880 1.363 . S
C882 C883 1.370 . S
C882 C886 1.524 . S
C883 C875 1.503 . S
C883 C882 1.370 . S
C883 C884 1.403 . S
C884 C883 1.403 . S
C884 C885 1.404 . S
C884 C887 1.539 . S
C885 C881 1.408 1_554 S
C885 C884 1.404 . S
C885 H897 0.930 1_554 S
C886 C882 1.524 . S
C886 H898 0.956 . S
C886 H899 0.961 . S
C886 H900 0.961 . S
C887 C884 1.539 . S
C887 H901 0.958 . S
C887 H902 0.961 . S
C887 H903 0.960 . S
H888 C872 0.931 . S
H889 C877 0.929 . S
H890 C878 0.960 . S
H891 C878 0.962 . S
H892 C878 0.960 . S
H893 C879 0.961 . S
H894 C879 0.961 . S
H895 C879 0.961 . S
H896 C880 0.931 . S
H897 C885 0.930 1_556 S
H898 C886 0.956 . S
H899 C886 0.961 . S
H900 C886 0.961 . S
H901 C887 0.958 . S
H902 C887 0.961 . S
H903 C887 0.960 . S
C265 C239 1.083 . S
C273 C8 1.063 . S
C297 C140 1.090 . S
C305 C41 1.059 . S
C329 C74 1.069 . S
C337 C173 1.068 . S
C361 C206 1.076 . S
C369 C107 1.065 . S
C393 C28 1.484 . S
C401 C160 1.477 . S
C425 C193 1.492 . S
C433 C61 1.486 . S
C457 C226 1.491 . S
C465 C94 1.482 . S
C489 C259 1.467 . S
C497 C127 1.473 . S
C521 C248 1.564 . S
C529 C50 1.552 . S
C553 C83 1.544 . S
C561 C149 1.556 . S
C585 C116 1.564 . S
C593 C182 1.552 . S
C617 C215 1.532 . S
C625 C17 1.551 . S
C649 N14 1.266 . S
C657 N5 1.274 . S
C681 N38 1.263 . S
C689 N47 1.275 . S
C713 N71 1.253 . S
C721 N80 1.279 . S
C745 N113 1.249 . S
C753 N104 1.281 . S
C777 N137 1.253 . S
C785 N146 1.279 . S
C809 N170 1.281 . S
C817 N179 1.266 . S
C841 N203 1.274 . S
C849 N212 1.270 . S
C873 N245 1.251 . S
C881 N236 1.280 . S
