# Generated by pormake.
# Topology qtz-e, (6)-cn, num edge types: 1
# Building blocks:
#     Node 0, Type 0, BuildingBlock: PAMTOO_clean_sbu_0, # of connection points: 6
#     Node 1, Type 0, BuildingBlock: PAMTOO_clean_sbu_0, # of connection points: 6
#     Node 2, Type 0, BuildingBlock: PAMTOO_clean_sbu_0, # of connection points: 6
#     Node 3, Type 0, BuildingBlock: PAMTOO_clean_sbu_0, # of connection points: 6
#     Node 4, Type 0, BuildingBlock: PAMTOO_clean_sbu_0, # of connection points: 6
#     Node 5, Type 0, BuildingBlock: PAMTOO_clean_sbu_0, # of connection points: 6
#     Edge 6, Type (0, 0), BuildingBlock: CIFDUS_clean_linker_0, # of connection points: 2
#     Edge 7, Type (0, 0), BuildingBlock: CIFDUS_clean_linker_0, # of connection points: 2
#     Edge 8, Type (0, 0), BuildingBlock: CIFDUS_clean_linker_0, # of connection points: 2
#     Edge 9, Type (0, 0), BuildingBlock: CIFDUS_clean_linker_0, # of connection points: 2
#     Edge 10, Type (0, 0), BuildingBlock: CIFDUS_clean_linker_0, # of connection points: 2
#     Edge 11, Type (0, 0), BuildingBlock: CIFDUS_clean_linker_0, # of connection points: 2
#     Edge 12, Type (0, 0), BuildingBlock: CIFDUS_clean_linker_0, # of connection points: 2
#     Edge 13, Type (0, 0), BuildingBlock: CIFDUS_clean_linker_0, # of connection points: 2
#     Edge 14, Type (0, 0), BuildingBlock: CIFDUS_clean_linker_0, # of connection points: 2
#     Edge 15, Type (0, 0), BuildingBlock: CIFDUS_clean_linker_0, # of connection points: 2
#     Edge 16, Type (0, 0), BuildingBlock: CIFDUS_clean_linker_0, # of connection points: 2
#     Edge 17, Type (0, 0), BuildingBlock: CIFDUS_clean_linker_0, # of connection points: 2
#     Edge 18, Type (0, 0), BuildingBlock: CIFDUS_clean_linker_0, # of connection points: 2
#     Edge 19, Type (0, 0), BuildingBlock: CIFDUS_clean_linker_0, # of connection points: 2
#     Edge 20, Type (0, 0), BuildingBlock: CIFDUS_clean_linker_0, # of connection points: 2
#     Edge 21, Type (0, 0), BuildingBlock: CIFDUS_clean_linker_0, # of connection points: 2
#     Edge 22, Type (0, 0), BuildingBlock: CIFDUS_clean_linker_0, # of connection points: 2
#     Edge 23, Type (0, 0), BuildingBlock: CIFDUS_clean_linker_0, # of connection points: 2
# Relax obj value: 0.216
# Max RMSD: 0.219
# Mean RMSD: 0.219
data_MOF--net-qtz-e--node1-PAMTOO_clean_sbu_0--edge1-CIFDUS_clean_linker_0
_symmetry_space_group_name_H-M    P1
_symmetry_Int_Tables_number       1
_symmetry_cell_setting            triclinic
loop_
_symmetry_equiv_pos_as_xyz
'x, y, z'
_cell_length_a     23.858924
_cell_length_b     24.087513
_cell_length_c     46.339961
_cell_angle_alpha  89.982116
_cell_angle_beta   89.983027
_cell_angle_gamma 120.21468
loop_
_atom_site_label
_atom_site_type_symbol
_atom_site_fract_x
_atom_site_fract_y
_atom_site_fract_z
_atom_type_partial_charge
Dy0 Dy 0.10599 0.36192 0.1571 0.0
Dy1 Dy 0.19341 0.50366 0.19134 0.0
C2 C 0.25633 0.42249 0.17476 0.0
O3 O 0.07978 0.33626 0.20357 0.0
O4 O 0.12958 0.43625 0.2257 0.0
O5 O 0.09102 0.26713 0.14822 0.0
O6 O 0.03757 0.30251 0.12429 0.0
O7 O 0.11654 0.50739 0.16543 0.0
O8 O 0.03861 0.40048 0.16239 0.0
O9 O 0.2343 0.52033 0.14668 0.0
O10 O 0.1462 0.43812 0.12367 0.0
O11 O 0.19551 0.58494 0.21178 0.0
O12 O 0.28432 0.5822 0.20705 0.0
C13 C 0.09182 0.37337 0.22636 0.0
O14 O 0.21128 0.39256 0.15521 0.0
O15 O 0.2468 0.45098 0.19669 0.0
C16 C 0.07638 0.24449 0.09827 0.0
C17 C 0.11921 0.21706 0.04586 0.0
C18 C 0.15292 0.27889 0.05819 0.0
C19 C 0.13179 0.29238 0.08409 0.0
C20 C 0.04226 0.18298 0.08605 0.0
C21 C 0.06338 0.16937 0.06011 0.0
C22 C 0.05466 0.25896 0.12573 0.0
C23 C 0.0566 0.46178 0.16033 0.0
C24 C 0.203 0.4909 0.12306 0.0
C25 C 0.27373 0.63404 0.24883 0.0
C26 C 0.30469 0.67762 0.30635 0.0
C27 C 0.25025 0.67374 0.29269 0.0
C28 C 0.2351 0.65246 0.26429 0.0
C29 C 0.32899 0.63894 0.26225 0.0
C30 C 0.34437 0.66064 0.29078 0.0
C31 C 0.25671 0.61174 0.21865 0.0
H32 H 0.19546 0.31715 0.04771 0.0
H33 H 0.15884 0.34031 0.09309 0.0
H34 H -0.00052 0.14531 0.09664 0.0
H35 H 0.0366 0.12108 0.05151 0.0
H36 H 0.2196 0.68797 0.30389 0.0
H37 H 0.19302 0.65057 0.25442 0.0
H38 H 0.36029 0.62597 0.25077 0.0
H39 H 0.38672 0.66334 0.30076 0.0
Dy40 Dy 0.92236 0.27048 0.4543 0.0
Dy41 Dy 0.85832 0.33525 0.41248 0.0
C42 C 0.77482 0.18556 0.42853 0.0
O43 O 0.97491 0.29842 0.41144 0.0
O44 O 0.88938 0.28216 0.38362 0.0
O45 O 0.94083 0.19316 0.46435 0.0
O46 O 0.98406 0.27974 0.4902 0.0
O47 O 0.9599 0.40785 0.4232 0.0
O48 O 0.96463 0.3732 0.46802 0.0
O49 O 0.83627 0.34917 0.45798 0.0
O50 O 0.84086 0.26558 0.47955 0.0
O51 O 0.87749 0.40709 0.38045 0.0
O52 O 0.78108 0.35172 0.39906 0.0
C53 C 0.94743 0.28971 0.3859 0.0
O54 O 0.82278 0.18863 0.44398 0.0
O55 O 0.77932 0.23415 0.41389 0.0
C56 C 0.95459 0.18304 0.51454 0.0
C57 C 0.92483 0.11935 0.56862 0.0
C58 C 0.87987 0.13198 0.55471 0.0
C59 C 0.89471 0.16371 0.52797 0.0
C60 C -0.00125 0.16913 0.52794 0.0
C61 C 0.98408 0.13761 0.55464 0.0
C62 C 0.9735 0.22135 0.48768 0.0
C63 C 0.9804 0.42043 0.44981 0.0
C64 C 0.82177 0.30802 0.47925 0.0
C65 C 0.78843 0.38292 0.35031 0.0
C66 C 0.74331 0.38406 0.29452 0.0
C67 C 0.79586 0.37391 0.29849 0.0
C68 C 0.81815 0.3731 0.32621 0.0
C69 C 0.73307 0.38815 0.34651 0.0
C70 C 0.71034 0.38825 0.31883 0.0
C71 C 0.81697 0.39253 0.37918 0.0
H72 H 0.83407 0.11919 0.5649 0.0
H73 H 0.86007 0.17439 0.51806 0.0
H74 H 0.04522 0.18368 0.51797 0.0
H75 H 0.01944 0.12784 0.56442 0.0
H76 H 0.82249 0.37089 0.2802 0.0
H77 H 0.86046 0.36792 0.32863 0.0
H78 H 0.70904 0.3949 0.36489 0.0
H79 H 0.66894 0.3949 0.31638 0.0
Dy80 Dy 0.65092 0.75125 0.82537 0.0
Dy81 Dy 0.50426 0.65033 0.8509 0.0
C82 C 0.5393 0.79019 0.82979 0.0
O83 O 0.66314 0.73424 0.87251 0.0
O84 O 0.56321 0.71514 0.88673 0.0
O85 O 0.73384 0.84705 0.82086 0.0
O86 O 0.73321 0.76729 0.79935 0.0
O87 O 0.57054 0.61167 0.85596 0.0
O88 O 0.62439 0.64985 0.81432 0.0
O89 O 0.49631 0.62926 0.80379 0.0
O90 O 0.5833 0.72523 0.78815 0.0
O91 O 0.43808 0.55443 0.8667 0.0
O92 O 0.40904 0.62638 0.86511 0.0
C93 C 0.62167 0.72642 0.89319 0.0
O94 O 0.60173 0.80966 0.83133 0.0
O95 O 0.49465 0.72964 0.83238 0.0
C96 C 0.77606 0.86433 0.77338 0.0
C97 C 0.80188 0.9244 0.71842 0.0
C98 C 0.74193 0.90337 0.73231 0.0
C99 C 0.72913 0.87354 0.75939 0.0
C100 C 0.8361 0.88568 0.75986 0.0
C101 C 0.84896 0.91546 0.7327 0.0
C102 C 0.76104 0.82956 0.80121 0.0
C103 C 0.59569 0.60251 0.83279 0.0
C104 C 0.52958 0.67058 0.78331 0.0
C105 C 0.37199 0.55509 0.90418 0.0
C106 C 0.32169 0.52754 0.96045 0.0
C107 C 0.30354 0.47781 0.94021 0.0
C108 C 0.32841 0.49161 0.91221 0.0
C109 C 0.39221 0.60449 0.92464 0.0
C110 C 0.36708 0.59087 0.9525 0.0
C111 C 0.39505 0.56976 0.87437 0.0
H112 H 0.70478 0.91012 0.72231 0.0
H113 H 0.68224 0.85715 0.76932 0.0
H114 H 0.87275 0.87849 0.77013 0.0
H115 H 0.89528 0.9301 0.7226 0.0
H116 H 0.26956 0.42837 0.94591 0.0
H117 H 0.31293 0.45291 0.89673 0.0
H118 H 0.42638 0.65389 0.91893 0.0
H119 H 0.38155 0.63032 0.96745 0.0
Dy120 Dy 0.76977 0.68813 0.11584 0.0
Dy121 Dy 0.71269 0.5465 0.08365 0.0
C122 C 0.85686 0.62487 0.10475 0.0
O123 O 0.77515 0.70626 0.06768 0.0
O124 O 0.69333 0.60698 0.05357 0.0
O125 O 0.85232 0.78332 0.12269 0.0
O126 O 0.76219 0.75384 0.14524 0.0
O127 O 0.62882 0.54129 0.10696 0.0
O128 O 0.66229 0.6487 0.11279 0.0
O129 O 0.73097 0.52795 0.12868 0.0
O130 O 0.73384 0.61491 0.15103 0.0
O131 O 0.64213 0.44642 0.07645 0.0
O132 O 0.73198 0.49242 0.05219 0.0
C133 C 0.73164 0.66844 0.04858 0.0
O134 O 0.84167 0.6563 0.12313 0.0
O135 O 0.82063 0.59777 0.08209 0.0
C136 C 0.86048 0.81562 0.17184 0.0
C137 C 0.93142 0.85112 0.22456 0.0
C138 C 0.96338 0.87176 0.19778 0.0
C139 C 0.92841 0.85447 0.17184 0.0
C140 C 0.82833 0.79516 0.19858 0.0
C141 C 0.86331 0.81266 0.22455 0.0
C142 C 0.82421 0.79547 0.14399 0.0
C143 C 0.61712 0.58737 0.11396 0.0
C144 C 0.72879 0.55797 0.15195 0.0
C145 C 0.64135 0.41014 0.02881 0.0
C146 C 0.58333 0.35647 0.97555 0.0
C147 C 0.55818 0.38662 0.99292 0.0
C148 C 0.58738 0.41383 0.01935 0.0
C149 C 0.66557 0.37903 1.01171 0.0
C150 C 0.63697 0.35258 0.98526 0.0
C151 C 0.67561 0.44086 0.05557 0.0
H152 H 0.01575 0.90062 0.19676 0.0
H153 H 0.95476 0.87102 0.15169 0.0
H154 H 0.77603 0.76535 0.19953 0.0
H155 H 0.83676 0.79659 0.24466 0.0
H156 H 0.51696 0.39034 0.98576 0.0
H157 H 0.56839 0.4383 0.03215 0.0
H158 H 0.70727 0.37593 0.01869 0.0
H159 H 0.65668 0.32883 0.9724 0.0
Dy160 Dy 0.2709 0.91077 0.48948 0.0
Dy161 Dy 0.34181 0.8473 0.52756 0.0
C162 C 0.18824 0.76554 0.51693 0.0
O163 O 0.29885 0.95998 0.53289 0.0
O164 O 0.29395 0.87812 0.56007 0.0
O165 O 0.19409 0.93232 0.48193 0.0
O166 O 0.27591 0.9682 0.45275 0.0
O167 O 0.4106 0.95029 0.51984 0.0
O168 O 0.37535 0.95665 0.47547 0.0
O169 O 0.35056 0.82945 0.4805 0.0
O170 O 0.25891 0.82733 0.46438 0.0
O171 O 0.41727 0.86323 0.55773 0.0
O172 O 0.36391 0.7721 0.53524 0.0
C173 C 0.29579 0.93341 0.5582 0.0
O174 O 0.18972 0.81234 0.50143 0.0
O175 O 0.23914 0.77053 0.53016 0.0
C176 C 0.17474 0.93894 0.43201 0.0
C177 C 0.09885 0.9015 0.38091 0.0
C178 C 0.1108 0.85764 0.39602 0.0
C179 C 0.14841 0.8762 0.42125 0.0
C180 C 0.16238 0.98256 0.41731 0.0
C181 C 0.12482 0.9641 0.39209 0.0
C182 C 0.21853 0.96061 0.45728 0.0
C183 C 0.42309 0.97391 0.49384 0.0
C184 C 0.30317 0.81087 0.46174 0.0
C185 C 0.40549 0.77188 0.58147 0.0
C186 C 0.40652 0.71276 0.6336 0.0
C187 C 0.46492 0.75849 0.62045 0.0
C188 C 0.46432 0.78746 0.59459 0.0
C189 C 0.3468 0.72637 0.59432 0.0
C190 C 0.34733 0.69683 0.62024 0.0
C191 C 0.4074 0.80518 0.55478 0.0
H192 H 0.09241 0.80932 0.38798 0.0
H193 H 0.15789 0.8419 0.43209 0.0
H194 H 0.18247 0.03129 0.42516 0.0
H195 H 0.116 -0.00105 0.38139 0.0
H196 H 0.51134 0.77338 0.63051 0.0
H197 H 0.50997 0.82292 0.58503 0.0
H198 H 0.30081 0.71409 0.58446 0.0
H199 H 0.30161 0.66181 0.62984 0.0
Dy200 Dy 0.35691 0.10657 0.78505 0.0
Dy201 Dy 0.49681 0.1965 0.74874 0.0
C202 C 0.41037 0.25088 0.76538 0.0
O203 O 0.33148 0.07974 0.7383 0.0
O204 O 0.43303 0.12068 0.7175 0.0
O205 O 0.2585 0.08459 0.79296 0.0
O206 O 0.29991 0.03859 0.81843 0.0
O207 O 0.50885 0.12566 0.77482 0.0
O208 O 0.40256 0.0452 0.78038 0.0
O209 O 0.5177 0.23893 0.79289 0.0
O210 O 0.43301 0.15735 0.81858 0.0
O211 O 0.58567 0.211 0.72997 0.0
O212 O 0.56118 0.28604 0.72705 0.0
C213 C 0.36949 0.08542 0.71642 0.0
O214 O 0.38431 0.20982 0.78657 0.0
O215 O 0.42884 0.23298 0.74244 0.0
C216 C 0.23099 0.06741 0.84255 0.0
C217 C 0.18988 0.10029 0.89402 0.0
C218 C 0.24719 0.14556 0.87986 0.0
C219 C 0.26748 0.12927 0.8544 0.0
C220 C 0.17436 0.02198 0.85667 0.0
C221 C 0.15403 0.03814 0.8821 0.0
C222 C 0.25203 0.0498 0.81574 0.0
C223 C 0.46532 0.06583 0.78078 0.0
C224 C 0.48853 0.21191 0.8173 0.0
C225 C 0.61373 0.27097 0.68745 0.0
C226 C 0.64626 0.27168 0.62918 0.0
C227 C 0.58502 0.22496 0.63947 0.0
C228 C 0.56881 0.22476 0.66839 0.0
C229 C 0.67372 0.31929 0.67706 0.0
C230 C 0.68987 0.31983 0.64805 0.0
C231 C 0.59989 0.26589 0.71841 0.0
H232 H 0.27584 0.19399 0.88811 0.0
H233 H 0.31151 0.16511 0.84386 0.0
H234 H 0.14579 0.97384 0.84804 0.0
H235 H 0.11038 0.00155 0.89257 0.0
H236 H 0.55037 0.18768 0.6253 0.0
H237 H 0.52213 0.18724 0.67611 0.0
H238 H 0.70887 0.35522 0.69157 0.0
H239 H 0.73762 0.356 0.6407 0.0
H240 H 0.39899 0.82631 0.42471 0.0
H241 H 0.19501 0.70723 0.44274 0.0
H242 H 0.17896 0.64955 0.39758 0.0
H243 H 0.22025 0.64101 0.35075 0.0
H244 H 0.42225 0.76474 0.32987 0.0
H245 H 0.44238 0.81173 0.37834 0.0
C246 C 0.35153 0.7868 0.41888 0.0
C247 C 0.29805 0.77086 0.43683 0.0
C248 C 0.34231 0.75522 0.39223 0.0
C249 C 0.23655 0.72028 0.42908 0.0
C250 C 0.22738 0.68744 0.40325 0.0
C251 C 0.26877 0.6781 0.35685 0.0
C252 C 0.31942 0.70011 0.33667 0.0
C253 C 0.27945 0.7059 0.38427 0.0
C254 C 0.3824 0.74701 0.34507 0.0
C255 C 0.39382 0.77417 0.3727 0.0
H256 H 0.70603 0.36692 0.58938 0.0
H257 H 0.63392 0.16498 0.60341 0.0
H258 H 0.67875 0.15774 0.55719 0.0
H259 H 0.74554 0.21042 0.51484 0.0
H260 H 0.81708 0.41188 0.49982 0.0
H261 H 0.76523 0.41785 0.54442 0.0
C262 C 0.69984 0.32136 0.58212 0.0
C263 C 0.66713 0.26668 0.59975 0.0
C264 C 0.72593 0.31758 0.55555 0.0
C265 C 0.65853 0.20761 0.59007 0.0
C266 C 0.6845 0.20351 0.56377 0.0
C267 C 0.7494 0.25553 0.52124 0.0
C268 C 0.78558 0.31079 0.50438 0.0
C269 C 0.71937 0.25843 0.54666 0.0
C270 C 0.78943 0.36872 0.51257 0.0
C271 C 0.76006 0.37219 0.53808 0.0
H272 H 0.14697 0.44774 0.07121 0.0
H273 H 0.33005 0.57973 0.11126 0.0
H274 H 0.38362 0.60212 0.06415 0.0
H275 H 0.37866 0.57947 1.01209 0.0
H276 H 0.19449 0.44644 0.97313 0.0
H277 H 0.14149 0.427 0.01991 0.0
C278 C 0.19855 0.48191 0.06974 0.0
C279 C 0.23445 0.51217 0.09468 0.0
C280 C 0.22901 0.49314 0.04296 0.0
C281 C 0.30118 0.55635 0.0923 0.0
C282 C 0.33191 0.56863 0.06545 0.0
C283 C 0.32683 0.54669 0.01382 0.0
C284 C 0.29064 0.51424 0.98918 0.0
C285 C 0.29635 0.53657 0.04071 0.0
C286 C 0.22371 0.47111 0.99182 0.0
C287 C 0.19319 0.46053 0.01848 0.0
H288 H 0.72094 0.48002 0.2815 0.0
H289 H 0.73846 0.32669 0.2426 0.0
H290 H 0.73253 0.36565 0.19451 0.0
H291 H 0.73004 0.44789 0.16396 0.0
H292 H 0.71399 0.60146 0.20397 0.0
H293 H 0.71066 0.5568 0.25139 0.0
C294 C 0.7216 0.45388 0.26257 0.0
C295 C 0.7298 0.4004 0.26558 0.0
C296 C 0.71905 0.47691 0.23524 0.0
C297 C 0.73242 0.36821 0.24077 0.0
C298 C 0.7291 0.39047 0.21334 0.0
C299 C 0.72522 0.47127 0.18303 0.0
C300 C 0.72283 0.52822 0.18041 0.0
C301 C 0.72377 0.44561 0.21036 0.0
C302 C 0.71651 0.55787 0.20533 0.0
C303 C 0.71447 0.53235 0.2325 0.0
H304 H 0.41693 0.65817 0.7652 0.0
H305 H 0.58869 0.6587 0.73617 0.0
H306 H 0.55784 0.65916 0.68582 0.0
H307 H 0.4906 0.67486 0.65091 0.0
H308 H 0.32726 0.69027 0.68029 0.0
H309 H 0.34437 0.66567 0.7295 0.0
C310 C 0.44632 0.65658 0.7477 0.0
C311 C 0.5045 0.658 0.7539 0.0
C312 C 0.42991 0.66016 0.71898 0.0
C313 C 0.54352 0.65735 0.73148 0.0
C314 C 0.52603 0.65788 0.70284 0.0
C315 C 0.4585 0.6725 0.66806 0.0
C316 C 0.40857 0.68562 0.66204 0.0
C317 C 0.47072 0.66184 0.69642 0.0
C318 C 0.36607 0.68032 0.68429 0.0
C319 C 0.37622 0.6669 0.71251 0.0
H320 H 0.64605 0.37638 0.92474 0.0
H321 H 0.45573 0.2752 0.96325 0.0
H322 H 0.40935 0.22175 0.91724 0.0
H323 H 0.42441 0.19985 0.8671 0.0
H324 H 0.61434 0.30312 0.82811 0.0
H325 H 0.65983 0.35975 0.87353 0.0
C326 C 0.59442 0.34266 0.92296 0.0
C327 C 0.55432 0.32894 0.94725 0.0
C328 C 0.56838 0.31223 0.89658 0.0
C329 C 0.48735 0.28634 0.94472 0.0
C330 C 0.461 0.25557 0.91854 0.0
C331 C 0.47586 0.23444 0.86858 0.0
C332 C 0.51632 0.24638 0.84452 0.0
C333 C 0.50131 0.26734 0.89452 0.0
C334 C 0.58245 0.29266 0.84648 0.0
C335 C 0.60841 0.32506 0.87238 0.0
H336 H 0.36287 0.54071 0.17823 0.0
H337 H 0.29736 0.34682 0.15037 0.0
H338 H 0.40325 0.38153 0.12836 0.0
H339 H 0.51188 0.46731 0.11531 0.0
H340 H 0.57655 0.66285 0.14081 0.0
H341 H 0.47257 0.62739 0.16488 0.0
C342 C 0.37251 0.50586 0.16801 0.0
C343 C 0.32318 0.44094 0.16656 0.0
C344 C 0.43249 0.52676 0.15434 0.0
C345 C 0.33521 0.39668 0.15225 0.0
C346 C 0.39538 0.41669 0.13941 0.0
C347 C 0.50347 0.50248 0.12603 0.0
C348 C 0.55222 0.56782 0.12617 0.0
C349 C 0.44394 0.48173 0.13993 0.0
C350 C 0.5399 0.6124 0.14013 0.0
C351 C 0.48062 0.59205 0.15412 0.0
H352 H 0.11108 0.71829 0.47039 0.0
H353 H 0.14546 0.6643 0.55438 0.0
H354 H 0.08084 0.55061 0.54134 0.0
H355 H 0.02717 0.46763 0.50369 0.0
H356 H 0.00566 0.52547 0.41805 0.0
H357 H 0.05454 0.63635 0.4338 0.0
C358 C 0.10283 0.68165 0.48618 0.0
C359 C 0.13301 0.69966 0.51327 0.0
C360 C 0.06999 0.61695 0.47781 0.0
C361 C 0.12246 0.65156 0.53337 0.0
C362 C 0.0864 0.58661 0.52576 0.0
C363 C 0.03331 0.50453 0.4885 0.0
C364 C 0.01335 0.48807 0.45966 0.0
C365 C 0.06239 0.5689 0.49759 0.0
C366 C 0.02118 0.53655 0.44031 0.0
C367 C 0.04863 0.60011 0.44933 0.0
H368 H 0.39545 0.94405 0.80248 0.0
H369 H 0.58941 0.08851 0.77754 0.0
H370 H 0.63011 0.01779 0.79147 0.0
H371 H 0.61088 0.91394 0.81018 0.0
H372 H 0.41669 0.76979 0.83503 0.0
H373 H 0.37656 0.84127 0.82188 0.0
C374 C 0.44658 0.96005 0.80001 0.0
C375 C 0.48902 0.02157 0.78891 0.0
C376 C 0.47002 0.91918 0.80819 0.0
C377 C 0.55533 0.04147 0.78606 0.0
C378 C 0.57887 0.00104 0.79404 0.0
C379 C 0.55994 0.89843 0.81298 0.0
C380 C 0.5171 0.8365 0.82358 0.0
C381 C 0.53671 0.93974 0.80515 0.0
C382 C 0.451 0.81708 0.82682 0.0
C383 C 0.42777 0.85793 0.81927 0.0
H384 H 0.57387 0.55365 0.77802 0.0
H385 H 0.55869 0.5 0.86781 0.0
H386 H 0.49581 0.38671 0.85479 0.0
H387 H 0.43945 0.30388 0.81867 0.0
H388 H 0.45841 0.35384 0.72835 0.0
H389 H 0.52347 0.46816 0.74091 0.0
C390 C 0.55815 0.51708 0.79463 0.0
C391 C 0.57109 0.53521 0.82387 0.0
C392 C 0.52082 0.45172 0.78701 0.0
C393 C 0.54949 0.48726 0.84518 0.0
C394 C 0.51293 0.42251 0.83779 0.0
C395 C 0.45736 0.33952 0.8016 0.0
C396 C 0.44322 0.32026 0.77257 0.0
C397 C 0.49693 0.40437 0.80888 0.0
C398 C 0.46784 0.36745 0.75087 0.0
C399 C 0.50557 0.4327 0.75804 0.0
H400 H 0.07002 0.58048 0.16222 0.0
H401 H 0.94082 0.38722 0.13247 0.0
H402 H 0.87084 0.42239 0.11026 0.0
H403 H 0.84628 0.50819 0.09943 0.0
H404 H 0.97192 0.69942 0.13194 0.0
H405 H 0.04443 0.66526 0.1524 0.0
C406 C 0.02649 0.54587 0.15093 0.0
C407 C 0.01083 0.48123 0.14899 0.0
C408 C 0.98651 0.56638 0.1383 0.0
C409 C 0.95389 0.43711 0.13448 0.0
C410 C 0.91411 0.45732 0.12157 0.0
C411 C 0.89031 0.54261 0.11048 0.0
C412 C 0.90483 0.60664 0.11361 0.0
C413 C 0.93019 0.52192 0.12317 0.0
C414 C 0.96057 0.65024 0.12887 0.0
C415 C 0.00163 0.63057 0.14075 0.0
H416 H 0.47291 0.01362 0.43946 0.0
H417 H 0.52852 0.01868 0.5286 0.0
H418 H 0.64207 0.07332 0.51496 0.0
H419 H 0.72629 0.12467 0.47858 0.0
H420 H 0.67422 0.13111 0.39014 0.0
H421 H 0.55894 0.06481 0.40237 0.0
C422 C 0.50993 0.0271 0.45587 0.0
C423 C 0.49193 0.01218 0.485 0.0
C424 C 0.57589 0.05927 0.44794 0.0
C425 C 0.54065 0.0296 0.50599 0.0
C426 C 0.60583 0.06058 0.49825 0.0
C427 C 0.68979 0.10995 0.46181 0.0
C428 C 0.70857 0.13175 0.43346 0.0
C429 C 0.62401 0.0757 0.46935 0.0
C430 C 0.66073 0.11388 0.41207 0.0
C431 C 0.59489 0.07687 0.41915 0.0
H432 H 0.26242 0.1764 0.93928 0.0
H433 H 0.06495 0.06388 0.9092 0.0
H434 H 0.02605 0.08926 0.95307 0.0
H435 H 0.04744 0.14361 1.0001 0.0
H436 H 0.24474 0.25713 0.03009 0.0
H437 H 0.284 0.23258 0.98598 0.0
C438 C 0.2109 0.15789 0.94212 0.0
C439 C 0.16686 0.11769 0.92082 0.0
C440 C 0.18861 0.17317 0.96745 0.0
C441 C 0.10015 0.09379 0.92529 0.0
C442 C 0.07774 0.10868 0.95037 0.0
C443 C 0.09901 0.16263 0.99714 0.0
C444 C 0.14286 0.20222 0.01859 0.0
C445 C 0.12142 0.14806 0.97168 0.0
C446 C 0.20969 0.22721 0.01394 0.0
C447 C 0.23227 0.21284 0.98873 0.0
H448 H 0.90344 0.2422 0.33212 0.0
H449 H 0.07817 0.36697 0.37933 0.0
H450 H 0.13911 0.4028 0.33412 0.0
H451 H 0.14068 0.40542 0.28077 0.0
H452 H 0.96785 0.2753 0.23373 0.0
H453 H 0.90833 0.23467 0.27911 0.0
C454 C 0.95512 0.27638 0.33252 0.0
C455 C 0.98612 0.30206 0.35908 0.0
C456 C 0.99006 0.29629 0.30641 0.0
C457 C 0.05317 0.34606 0.35925 0.0
C458 C 0.08797 0.36701 0.33335 0.0
C459 C 0.09017 0.36764 0.28053 0.0
C460 C 0.05851 0.34377 0.25394 0.0
C461 C 0.05663 0.34354 0.30676 0.0
C462 C 0.99331 0.29431 0.25391 0.0
C463 C 0.9592 0.27127 0.27986 0.0
H464 H 0.91487 0.02523 0.69741 0.0
H465 H 0.71736 0.89081 0.67288 0.0
H466 H 0.73706 0.93953 0.62506 0.0
H467 H 0.81092 0.01937 0.58958 0.0
H468 H 0.00871 0.15259 0.61409 0.0
H469 H 0.98863 0.10439 0.66201 0.0
C470 C 0.87621 0.00607 0.68157 0.0
C471 C 0.81458 0.95436 0.68903 0.0
C472 C 0.888 0.03395 0.65386 0.0
C473 C 0.765 0.93115 0.66813 0.0
C474 C 0.77633 0.95874 0.6406 0.0
C475 C 0.84952 0.03817 0.60546 0.0
C476 C 0.9114 0.08946 0.598 0.0
C477 C 0.83764 0.01021 0.63318 0.0
C478 C 0.96092 0.11257 0.61891 0.0
C479 C 0.94938 0.08525 0.64647 0.0
H480 H 0.73928 0.77449 0.92201 0.0
H481 H 0.53223 0.65578 0.93357 0.0
H482 H 0.54802 0.62988 0.98232 0.0
H483 H 0.61965 0.6352 0.02117 0.0
H484 H 0.82634 0.75811 0.01283 0.0
H485 H 0.81193 0.78849 0.96385 0.0
C486 C 0.69776 0.74354 0.93534 0.0
C487 C 0.63456 0.71729 0.92388 0.0
C488 C 0.70709 0.72932 0.96405 0.0
C489 C 0.58136 0.67742 0.94165 0.0
C490 C 0.59027 0.6621 0.96964 0.0
C491 C 0.66159 0.66916 1.00873 0.0
C492 C 0.72398 0.69397 0.02052 0.0
C493 C 0.65277 0.68703 0.98095 0.0
C494 C 0.77776 0.7385 1.00428 0.0
C495 C 0.76947 0.75553 0.97619 0.0
H496 H 0.12051 0.97286 0.33177 0.0
H497 H 0.98966 0.78652 0.36815 0.0
H498 H 0.92716 0.75445 0.3234 0.0
H499 H 0.90955 0.77893 0.27368 0.0
H500 H 0.03848 0.96683 0.23813 0.0
H501 H 0.10137 -0.00178 0.28265 0.0
C502 C 0.07791 0.92544 0.33011 0.0
C503 C 0.06015 0.88232 0.35352 0.0
C504 C 0.04175 0.90732 0.30429 0.0
C505 C 0.0053 0.82061 0.35052 0.0
C506 C 0.96916 0.80228 0.32492 0.0
C507 C 0.95095 0.82702 0.27571 0.0
C508 C 0.96904 0.87018 0.25227 0.0
C509 C 0.98691 0.8452 0.30163 0.0
C510 C 0.0237 0.93198 0.25542 0.0
C511 C 0.05961 0.95026 0.28104 0.0
H512 H 0.40085 0.13029 0.66176 0.0
H513 H 0.27459 0.95981 0.71038 0.0
H514 H 0.23833 0.89713 0.66556 0.0
H515 H 0.24893 0.88975 0.61254 0.0
H516 H 0.36924 0.06287 0.56413 0.0
H517 H 0.40116 0.12554 0.60866 0.0
C518 C 0.36481 0.07954 0.66246 0.0
C519 C 0.34074 0.04951 0.68931 0.0
C520 C 0.34336 0.04427 0.6366 0.0
C521 C 0.29354 0.98397 0.68995 0.0
C522 C 0.27314 0.94811 0.66433 0.0
C523 C 0.28134 0.94134 0.61176 0.0
C524 C 0.30683 0.97151 0.58501 0.0
C525 C 0.29856 0.97752 0.63753 0.0
C526 C 0.3485 0.03846 0.58433 0.0
C527 C 0.36714 0.07435 0.60985 0.0
loop_
_geom_bond_atom_site_label_1
_geom_bond_atom_site_label_2
_geom_bond_distance
_geom_bond_site_symmetry_2
_ccdc_geom_bond_type
Dy0 O3 2.307 . S
Dy0 O5 2.395 . S
Dy0 O6 2.379 . S
Dy0 O8 2.339 1_455 S
Dy0 O10 2.298 . S
Dy0 O14 2.275 . S
Dy0 C22 2.738 . S
Dy1 O4 2.298 . S
Dy1 O7 2.275 . S
Dy1 O9 2.307 . S
Dy1 O11 2.395 . S
Dy1 O12 2.379 . S
Dy1 O15 2.339 . S
Dy1 C31 2.738 . S
C2 O14 1.254 . S
C2 O15 1.257 . S
O3 Dy0 2.307 . S
O3 C13 1.266 . S
O4 Dy1 2.298 . S
O4 C13 1.236 . S
O5 Dy0 2.395 . S
O5 C22 1.255 . S
O6 Dy0 2.379 . S
O6 C22 1.249 . S
O7 Dy1 2.275 . S
O7 C23 1.254 . S
O8 Dy0 2.339 1_655 S
O8 C23 1.257 1_655 S
O9 Dy1 2.307 . S
O9 C24 1.266 . S
O10 Dy0 2.298 . S
O10 C24 1.236 . S
O11 Dy1 2.395 . S
O11 C31 1.255 . S
O12 Dy1 2.379 . S
O12 C31 1.249 . S
C13 O3 1.266 . S
C13 O4 1.236 . S
O14 Dy0 2.275 . S
O14 C2 1.254 . S
O15 Dy1 2.339 . S
O15 C2 1.257 . S
C16 C19 1.344 . S
C16 C20 1.328 . S
C16 C22 1.516 . S
C17 C18 1.304 . S
C17 C21 1.323 . S
C18 C17 1.304 . S
C18 C19 1.371 . S
C18 H32 0.930 . S
C19 C16 1.344 . S
C19 C18 1.371 . S
C19 H33 0.931 . S
C20 C16 1.328 . S
C20 C21 1.433 . S
C20 H34 0.946 . S
C21 C17 1.323 . S
C21 C20 1.433 . S
C21 H35 0.933 . S
C22 Dy0 2.738 . S
C22 O5 1.255 . S
C22 O6 1.249 . S
C22 C16 1.516 . S
C23 O7 1.254 . S
C23 O8 1.257 1_455 S
C24 O9 1.266 . S
C24 O10 1.236 . S
C25 C28 1.344 . S
C25 C29 1.328 . S
C25 C31 1.516 . S
C26 C27 1.304 . S
C26 C30 1.323 . S
C27 C26 1.304 . S
C27 C28 1.371 . S
C27 H36 0.930 . S
C28 C25 1.344 . S
C28 C27 1.371 . S
C28 H37 0.931 . S
C29 C25 1.328 . S
C29 C30 1.433 . S
C29 H38 0.931 . S
C30 C26 1.323 . S
C30 C29 1.433 . S
C30 H39 0.933 . S
C31 Dy1 2.738 . S
C31 O11 1.255 . S
C31 O12 1.249 . S
C31 C25 1.516 . S
H32 C18 0.930 . S
H33 C19 0.931 . S
H34 C20 0.946 . S
H35 C21 0.933 . S
H36 C27 0.930 . S
H37 C28 0.931 . S
H38 C29 0.931 . S
H39 C30 0.933 . S
Dy40 O43 2.307 . S
Dy40 O45 2.395 . S
Dy40 O46 2.379 . S
Dy40 O48 2.339 1_655 S
Dy40 O50 2.298 . S
Dy40 O54 2.275 . S
Dy40 C62 2.738 . S
Dy41 O44 2.298 . S
Dy41 O47 2.275 . S
Dy41 O49 2.307 . S
Dy41 O51 2.395 . S
Dy41 O52 2.379 . S
Dy41 O55 2.339 . S
Dy41 C71 2.738 . S
C42 O54 1.254 . S
C42 O55 1.257 . S
O43 Dy40 2.307 . S
O43 C53 1.266 . S
O44 Dy41 2.298 . S
O44 C53 1.236 . S
O45 Dy40 2.395 . S
O45 C62 1.255 . S
O46 Dy40 2.379 . S
O46 C62 1.249 . S
O47 Dy41 2.275 . S
O47 C63 1.254 1_655 S
O48 Dy40 2.339 1_455 S
O48 C63 1.257 . S
O49 Dy41 2.307 . S
O49 C64 1.266 . S
O50 Dy40 2.298 . S
O50 C64 1.236 . S
O51 Dy41 2.395 . S
O51 C71 1.255 . S
O52 Dy41 2.379 . S
O52 C71 1.249 . S
C53 O43 1.266 . S
C53 O44 1.236 . S
O54 Dy40 2.275 . S
O54 C42 1.254 . S
O55 Dy41 2.339 . S
O55 C42 1.257 . S
C56 C59 1.344 . S
C56 C60 1.328 . S
C56 C62 1.516 . S
C57 C58 1.304 . S
C57 C61 1.323 . S
C58 C57 1.304 . S
C58 C59 1.371 . S
C58 H72 0.930 . S
C59 C56 1.344 . S
C59 C58 1.371 . S
C59 H73 0.931 . S
C60 C56 1.328 . S
C60 C61 1.433 . S
C60 H74 0.931 1_655 S
C61 C57 1.323 . S
C61 C60 1.433 . S
C61 H75 0.933 1_655 S
C62 Dy40 2.738 . S
C62 O45 1.255 . S
C62 O46 1.249 . S
C62 C56 1.516 . S
C63 O47 1.254 1_455 S
C63 O48 1.257 . S
C64 O49 1.266 . S
C64 O50 1.236 . S
C65 C68 1.344 . S
C65 C69 1.328 . S
C65 C71 1.516 . S
C66 C67 1.304 . S
C66 C70 1.323 . S
C67 C66 1.304 . S
C67 C68 1.371 . S
C67 H76 0.930 . S
C68 C65 1.344 . S
C68 C67 1.371 . S
C68 H77 0.931 . S
C69 C65 1.328 . S
C69 C70 1.433 . S
C69 H78 0.931 . S
C70 C66 1.323 . S
C70 C69 1.433 . S
C70 H79 0.933 . S
C71 Dy41 2.738 . S
C71 O51 1.255 . S
C71 O52 1.249 . S
C71 C65 1.516 . S
H72 C58 0.930 . S
H73 C59 0.931 . S
H74 C60 0.931 1_455 S
H75 C61 0.933 1_455 S
H76 C67 0.930 . S
H77 C68 0.931 . S
H78 C69 0.931 . S
H79 C70 0.933 . S
Dy80 O83 2.307 . S
Dy80 O85 2.395 . S
Dy80 O86 2.379 . S
Dy80 O88 2.339 . S
Dy80 O90 2.298 . S
Dy80 O94 2.275 . S
Dy80 C102 2.738 . S
Dy81 O84 2.298 . S
Dy81 O87 2.275 . S
Dy81 O89 2.307 . S
Dy81 O91 2.395 . S
Dy81 O92 2.379 . S
Dy81 O95 2.339 . S
Dy81 C111 2.738 . S
C82 O94 1.254 . S
C82 O95 1.257 . S
O83 Dy80 2.307 . S
O83 C93 1.266 . S
O84 Dy81 2.298 . S
O84 C93 1.236 . S
O85 Dy80 2.395 . S
O85 C102 1.255 . S
O86 Dy80 2.379 . S
O86 C102 1.249 . S
O87 Dy81 2.275 . S
O87 C103 1.254 . S
O88 Dy80 2.339 . S
O88 C103 1.257 . S
O89 Dy81 2.307 . S
O89 C104 1.266 . S
O90 Dy80 2.298 . S
O90 C104 1.236 . S
O91 Dy81 2.395 . S
O91 C111 1.255 . S
O92 Dy81 2.379 . S
O92 C111 1.249 . S
C93 O83 1.266 . S
C93 O84 1.236 . S
O94 Dy80 2.275 . S
O94 C82 1.254 . S
O95 Dy81 2.339 . S
O95 C82 1.257 . S
C96 C99 1.344 . S
C96 C100 1.328 . S
C96 C102 1.516 . S
C97 C98 1.304 . S
C97 C101 1.323 . S
C98 C97 1.304 . S
C98 C99 1.371 . S
C98 H112 0.930 . S
C99 C96 1.344 . S
C99 C98 1.371 . S
C99 H113 0.931 . S
C100 C96 1.328 . S
C100 C101 1.433 . S
C100 H114 0.931 . S
C101 C97 1.323 . S
C101 C100 1.433 . S
C101 H115 0.933 . S
C102 Dy80 2.738 . S
C102 O85 1.255 . S
C102 O86 1.249 . S
C102 C96 1.516 . S
C103 O87 1.254 . S
C103 O88 1.257 . S
C104 O89 1.266 . S
C104 O90 1.236 . S
C105 C108 1.344 . S
C105 C109 1.328 . S
C105 C111 1.516 . S
C106 C107 1.304 . S
C106 C110 1.323 . S
C107 C106 1.304 . S
C107 C108 1.371 . S
C107 H116 0.930 . S
C108 C105 1.344 . S
C108 C107 1.371 . S
C108 H117 0.931 . S
C109 C105 1.328 . S
C109 C110 1.433 . S
C109 H118 0.931 . S
C110 C106 1.323 . S
C110 C109 1.433 . S
C110 H119 0.933 . S
C111 Dy81 2.738 . S
C111 O91 1.255 . S
C111 O92 1.249 . S
C111 C105 1.516 . S
H112 C98 0.930 . S
H113 C99 0.931 . S
H114 C100 0.931 . S
H115 C101 0.933 . S
H116 C107 0.930 . S
H117 C108 0.931 . S
H118 C109 0.931 . S
H119 C110 0.933 . S
Dy120 O123 2.307 . S
Dy120 O125 2.395 . S
Dy120 O126 2.379 . S
Dy120 O128 2.339 . S
Dy120 O130 2.298 . S
Dy120 O134 2.275 . S
Dy120 C142 2.738 . S
Dy121 O124 2.298 . S
Dy121 O127 2.275 . S
Dy121 O129 2.307 . S
Dy121 O131 2.395 . S
Dy121 O132 2.379 . S
Dy121 O135 2.339 . S
Dy121 C151 2.738 . S
C122 O134 1.254 . S
C122 O135 1.257 . S
O123 Dy120 2.307 . S
O123 C133 1.266 . S
O124 Dy121 2.298 . S
O124 C133 1.236 . S
O125 Dy120 2.395 . S
O125 C142 1.255 . S
O126 Dy120 2.379 . S
O126 C142 1.249 . S
O127 Dy121 2.275 . S
O127 C143 1.254 . S
O128 Dy120 2.339 . S
O128 C143 1.257 . S
O129 Dy121 2.307 . S
O129 C144 1.266 . S
O130 Dy120 2.298 . S
O130 C144 1.236 . S
O131 Dy121 2.395 . S
O131 C151 1.255 . S
O132 Dy121 2.379 . S
O132 C151 1.249 . S
C133 O123 1.266 . S
C133 O124 1.236 . S
O134 Dy120 2.275 . S
O134 C122 1.254 . S
O135 Dy121 2.339 . S
O135 C122 1.257 . S
C136 C139 1.344 . S
C136 C140 1.328 . S
C136 C142 1.516 . S
C137 C138 1.304 . S
C137 C141 1.323 . S
C138 C137 1.304 . S
C138 C139 1.371 . S
C138 H152 0.930 . S
C139 C136 1.344 . S
C139 C138 1.371 . S
C139 H153 0.931 . S
C140 C136 1.328 . S
C140 C141 1.433 . S
C140 H154 0.931 . S
C141 C137 1.323 . S
C141 C140 1.433 . S
C141 H155 0.933 . S
C142 Dy120 2.738 . S
C142 O125 1.255 . S
C142 O126 1.249 . S
C142 C136 1.516 . S
C143 O127 1.254 . S
C143 O128 1.257 . S
C144 O129 1.266 . S
C144 O130 1.236 . S
C145 C148 1.344 . S
C145 C149 1.328 . S
C145 C151 1.516 1_556 S
C146 C147 1.304 . S
C146 C150 1.323 . S
C147 C146 1.304 . S
C147 C148 1.371 . S
C147 H156 0.930 . S
C148 C145 1.344 . S
C148 C147 1.371 . S
C148 H157 0.931 . S
C149 C145 1.328 . S
C149 C150 1.433 . S
C149 H158 0.931 . S
C150 C146 1.323 . S
C150 C149 1.433 . S
C150 H159 0.933 . S
C151 Dy121 2.738 . S
C151 O131 1.255 . S
C151 O132 1.249 . S
C151 C145 1.516 1_554 S
H152 C138 0.930 . S
H153 C139 0.931 . S
H154 C140 0.931 . S
H155 C141 0.933 . S
H156 C147 0.930 . S
H157 C148 0.931 . S
H158 C149 0.931 . S
H159 C150 0.933 . S
Dy160 O163 2.307 . S
Dy160 O165 2.395 . S
Dy160 O166 2.379 . S
Dy160 O168 2.339 1_565 S
Dy160 O170 2.298 . S
Dy160 O174 2.275 . S
Dy160 C182 2.738 . S
Dy161 O164 2.298 . S
Dy161 O167 2.275 . S
Dy161 O169 2.307 . S
Dy161 O171 2.395 . S
Dy161 O172 2.379 . S
Dy161 O175 2.339 . S
Dy161 C191 2.738 . S
C162 O174 1.254 . S
C162 O175 1.257 . S
O163 Dy160 2.307 . S
O163 C173 1.266 . S
O164 Dy161 2.298 . S
O164 C173 1.236 . S
O165 Dy160 2.395 . S
O165 C182 1.255 . S
O166 Dy160 2.379 . S
O166 C182 1.249 . S
O167 Dy161 2.275 . S
O167 C183 1.254 1_565 S
O168 Dy160 2.339 1_545 S
O168 C183 1.257 . S
O169 Dy161 2.307 . S
O169 C184 1.266 . S
O170 Dy160 2.298 . S
O170 C184 1.236 . S
O171 Dy161 2.395 . S
O171 C191 1.255 . S
O172 Dy161 2.379 . S
O172 C191 1.249 . S
C173 O163 1.266 . S
C173 O164 1.236 . S
O174 Dy160 2.275 . S
O174 C162 1.254 . S
O175 Dy161 2.339 . S
O175 C162 1.257 . S
C176 C179 1.344 . S
C176 C180 1.328 . S
C176 C182 1.516 . S
C177 C178 1.304 . S
C177 C181 1.323 . S
C178 C177 1.304 . S
C178 C179 1.371 . S
C178 H192 0.930 . S
C179 C176 1.344 . S
C179 C178 1.371 . S
C179 H193 0.931 . S
C180 C176 1.328 . S
C180 C181 1.433 . S
C180 H194 0.931 1_565 S
C181 C177 1.323 . S
C181 C180 1.433 . S
C181 H195 0.933 1_565 S
C182 Dy160 2.738 . S
C182 O165 1.255 . S
C182 O166 1.249 . S
C182 C176 1.516 . S
C183 O167 1.254 1_545 S
C183 O168 1.257 . S
C184 O169 1.266 . S
C184 O170 1.236 . S
C185 C188 1.344 . S
C185 C189 1.328 . S
C185 C191 1.516 . S
C186 C187 1.304 . S
C186 C190 1.323 . S
C187 C186 1.304 . S
C187 C188 1.371 . S
C187 H196 0.930 . S
C188 C185 1.344 . S
C188 C187 1.371 . S
C188 H197 0.931 . S
C189 C185 1.328 . S
C189 C190 1.433 . S
C189 H198 0.931 . S
C190 C186 1.323 . S
C190 C189 1.433 . S
C190 H199 0.933 . S
C191 Dy161 2.738 . S
C191 O171 1.255 . S
C191 O172 1.249 . S
C191 C185 1.516 . S
H192 C178 0.930 . S
H193 C179 0.931 . S
H194 C180 0.931 1_545 S
H195 C181 0.933 1_545 S
H196 C187 0.930 . S
H197 C188 0.931 . S
H198 C189 0.931 . S
H199 C190 0.933 . S
Dy200 O203 2.307 . S
Dy200 O205 2.395 . S
Dy200 O206 2.379 . S
Dy200 O208 2.339 1_545 S
Dy200 O210 2.298 . S
Dy200 O214 2.275 . S
Dy200 C222 2.738 . S
Dy201 O204 2.298 . S
Dy201 O207 2.275 . S
Dy201 O209 2.307 . S
Dy201 O211 2.395 . S
Dy201 O212 2.379 . S
Dy201 O215 2.339 . S
Dy201 C231 2.738 . S
C202 O214 1.254 . S
C202 O215 1.257 . S
O203 Dy200 2.307 . S
O203 C213 1.266 . S
O204 Dy201 2.298 . S
O204 C213 1.236 . S
O205 Dy200 2.395 . S
O205 C222 1.255 . S
O206 Dy200 2.379 . S
O206 C222 1.249 . S
O207 Dy201 2.275 . S
O207 C223 1.254 . S
O208 Dy200 2.339 1_565 S
O208 C223 1.257 1_565 S
O209 Dy201 2.307 . S
O209 C224 1.266 . S
O210 Dy200 2.298 . S
O210 C224 1.236 . S
O211 Dy201 2.395 . S
O211 C231 1.255 . S
O212 Dy201 2.379 . S
O212 C231 1.249 . S
C213 O203 1.266 . S
C213 O204 1.236 . S
O214 Dy200 2.275 . S
O214 C202 1.254 . S
O215 Dy201 2.339 . S
O215 C202 1.257 . S
C216 C219 1.344 . S
C216 C220 1.328 . S
C216 C222 1.516 . S
C217 C218 1.304 . S
C217 C221 1.323 . S
C218 C217 1.304 . S
C218 C219 1.371 . S
C218 H232 0.930 . S
C219 C216 1.344 . S
C219 C218 1.371 . S
C219 H233 0.931 . S
C220 C216 1.328 . S
C220 C221 1.433 . S
C220 H234 0.946 . S
C221 C217 1.323 . S
C221 C220 1.433 . S
C221 H235 0.933 . S
C222 Dy200 2.738 . S
C222 O205 1.255 . S
C222 O206 1.249 . S
C222 C216 1.516 . S
C223 O207 1.254 . S
C223 O208 1.257 1_545 S
C224 O209 1.266 . S
C224 O210 1.236 . S
C225 C228 1.344 . S
C225 C229 1.328 . S
C225 C231 1.516 . S
C226 C227 1.304 . S
C226 C230 1.323 . S
C227 C226 1.304 . S
C227 C228 1.371 . S
C227 H236 0.930 . S
C228 C225 1.344 . S
C228 C227 1.371 . S
C228 H237 0.931 . S
C229 C225 1.328 . S
C229 C230 1.433 . S
C229 H238 0.931 . S
C230 C226 1.323 . S
C230 C229 1.433 . S
C230 H239 0.933 . S
C231 Dy201 2.738 . S
C231 O211 1.255 . S
C231 O212 1.249 . S
C231 C225 1.516 . S
H232 C218 0.930 . S
H233 C219 0.931 . S
H234 C220 0.946 . S
H235 C221 0.933 . S
H236 C227 0.930 . S
H237 C228 0.931 . S
H238 C229 0.931 . S
H239 C230 0.933 . S
H240 C246 0.930 . S
H241 C249 0.930 . S
H242 C250 0.930 . S
H243 C251 0.930 . S
H244 C254 0.930 . S
H245 C255 0.930 . S
C246 H240 0.930 . S
C246 C247 1.355 . S
C246 C248 1.415 . S
C247 C246 1.355 . S
C247 C249 1.419 . S
C248 C246 1.415 . S
C248 C253 1.425 . S
C248 C255 1.409 . S
C249 H241 0.930 . S
C249 C247 1.419 . S
C249 C250 1.362 . S
C250 H242 0.930 . S
C250 C249 1.362 . S
C250 C253 1.409 . S
C251 H243 0.930 . S
C251 C252 1.355 . S
C251 C253 1.415 . S
C252 C251 1.355 . S
C252 C254 1.419 . S
C253 C248 1.425 . S
C253 C250 1.409 . S
C253 C251 1.415 . S
C254 H244 0.930 . S
C254 C252 1.419 . S
C254 C255 1.362 . S
C255 H245 0.930 . S
C255 C248 1.409 . S
C255 C254 1.362 . S
H256 C262 0.930 . S
H257 C265 0.930 . S
H258 C266 0.930 . S
H259 C267 0.930 . S
H260 C270 0.930 . S
H261 C271 0.930 . S
C262 H256 0.930 . S
C262 C263 1.355 . S
C262 C264 1.415 . S
C263 C262 1.355 . S
C263 C265 1.419 . S
C264 C262 1.415 . S
C264 C269 1.425 . S
C264 C271 1.409 . S
C265 H257 0.930 . S
C265 C263 1.419 . S
C265 C266 1.362 . S
C266 H258 0.930 . S
C266 C265 1.362 . S
C266 C269 1.409 . S
C267 H259 0.930 . S
C267 C268 1.355 . S
C267 C269 1.415 . S
C268 C267 1.355 . S
C268 C270 1.419 . S
C269 C264 1.425 . S
C269 C266 1.409 . S
C269 C267 1.415 . S
C270 H260 0.930 . S
C270 C268 1.419 . S
C270 C271 1.362 . S
C271 H261 0.930 . S
C271 C264 1.409 . S
C271 C270 1.362 . S
H272 C278 0.930 . S
H273 C281 0.930 . S
H274 C282 0.930 . S
H275 C283 0.930 . S
H276 C286 0.930 . S
H277 C287 0.930 . S
C278 H272 0.930 . S
C278 C279 1.355 . S
C278 C280 1.415 . S
C279 C278 1.355 . S
C279 C281 1.419 . S
C280 C278 1.415 . S
C280 C285 1.425 . S
C280 C287 1.409 . S
C281 H273 0.930 . S
C281 C279 1.419 . S
C281 C282 1.362 . S
C282 H274 0.930 . S
C282 C281 1.362 . S
C282 C285 1.409 . S
C283 H275 0.930 . S
C283 C284 1.355 1_554 S
C283 C285 1.415 . S
C284 C283 1.355 1_556 S
C284 C286 1.419 . S
C285 C280 1.425 . S
C285 C282 1.409 . S
C285 C283 1.415 . S
C286 H276 0.930 . S
C286 C284 1.419 . S
C286 C287 1.362 1_556 S
C287 H277 0.930 . S
C287 C280 1.409 . S
C287 C286 1.362 1_554 S
H288 C294 0.930 . S
H289 C297 0.930 . S
H290 C298 0.930 . S
H291 C299 0.930 . S
H292 C302 0.930 . S
H293 C303 0.930 . S
C294 H288 0.930 . S
C294 C295 1.355 . S
C294 C296 1.415 . S
C295 C294 1.355 . S
C295 C297 1.419 . S
C296 C294 1.415 . S
C296 C301 1.425 . S
C296 C303 1.409 . S
C297 H289 0.930 . S
C297 C295 1.419 . S
C297 C298 1.362 . S
C298 H290 0.930 . S
C298 C297 1.362 . S
C298 C301 1.409 . S
C299 H291 0.930 . S
C299 C300 1.355 . S
C299 C301 1.415 . S
C300 C299 1.355 . S
C300 C302 1.419 . S
C301 C296 1.425 . S
C301 C298 1.409 . S
C301 C299 1.415 . S
C302 H292 0.930 . S
C302 C300 1.419 . S
C302 C303 1.362 . S
C303 H293 0.930 . S
C303 C296 1.409 . S
C303 C302 1.362 . S
H304 C310 0.930 . S
H305 C313 0.930 . S
H306 C314 0.930 . S
H307 C315 0.930 . S
H308 C318 0.930 . S
H309 C319 0.930 . S
C310 H304 0.930 . S
C310 C311 1.355 . S
C310 C312 1.415 . S
C311 C310 1.355 . S
C311 C313 1.419 . S
C312 C310 1.415 . S
C312 C317 1.425 . S
C312 C319 1.409 . S
C313 H305 0.930 . S
C313 C311 1.419 . S
C313 C314 1.362 . S
C314 H306 0.930 . S
C314 C313 1.362 . S
C314 C317 1.409 . S
C315 H307 0.930 . S
C315 C316 1.355 . S
C315 C317 1.415 . S
C316 C315 1.355 . S
C316 C318 1.419 . S
C317 C312 1.425 . S
C317 C314 1.409 . S
C317 C315 1.415 . S
C318 H308 0.930 . S
C318 C316 1.419 . S
C318 C319 1.362 . S
C319 H309 0.930 . S
C319 C312 1.409 . S
C319 C318 1.362 . S
H320 C326 0.930 . S
H321 C329 0.930 . S
H322 C330 0.930 . S
H323 C331 0.930 . S
H324 C334 0.930 . S
H325 C335 0.930 . S
C326 H320 0.930 . S
C326 C327 1.355 . S
C326 C328 1.415 . S
C327 C326 1.355 . S
C327 C329 1.419 . S
C328 C326 1.415 . S
C328 C333 1.425 . S
C328 C335 1.409 . S
C329 H321 0.930 . S
C329 C327 1.419 . S
C329 C330 1.362 . S
C330 H322 0.930 . S
C330 C329 1.362 . S
C330 C333 1.409 . S
C331 H323 0.930 . S
C331 C332 1.355 . S
C331 C333 1.415 . S
C332 C331 1.355 . S
C332 C334 1.419 . S
C333 C328 1.425 . S
C333 C330 1.409 . S
C333 C331 1.415 . S
C334 H324 0.930 . S
C334 C332 1.419 . S
C334 C335 1.362 . S
C335 H325 0.930 . S
C335 C328 1.409 . S
C335 C334 1.362 . S
H336 C342 0.930 . S
H337 C345 0.930 . S
H338 C346 0.930 . S
H339 C347 0.930 . S
H340 C350 0.930 . S
H341 C351 0.930 . S
C342 H336 0.930 . S
C342 C343 1.355 . S
C342 C344 1.415 . S
C343 C342 1.355 . S
C343 C345 1.419 . S
C344 C342 1.415 . S
C344 C349 1.425 . S
C344 C351 1.409 . S
C345 H337 0.930 . S
C345 C343 1.419 . S
C345 C346 1.362 . S
C346 H338 0.930 . S
C346 C345 1.362 . S
C346 C349 1.409 . S
C347 H339 0.930 . S
C347 C348 1.355 . S
C347 C349 1.415 . S
C348 C347 1.355 . S
C348 C350 1.419 . S
C349 C344 1.425 . S
C349 C346 1.409 . S
C349 C347 1.415 . S
C350 H340 0.930 . S
C350 C348 1.419 . S
C350 C351 1.362 . S
C351 H341 0.930 . S
C351 C344 1.409 . S
C351 C350 1.362 . S
H352 C358 0.930 . S
H353 C361 0.930 . S
H354 C362 0.930 . S
H355 C363 0.930 . S
H356 C366 0.930 1_655 S
H357 C367 0.930 1_655 S
C358 H352 0.930 . S
C358 C359 1.355 . S
C358 C360 1.415 . S
C359 C358 1.355 . S
C359 C361 1.419 . S
C360 C358 1.415 . S
C360 C365 1.425 . S
C360 C367 1.409 . S
C361 H353 0.930 . S
C361 C359 1.419 . S
C361 C362 1.362 . S
C362 H354 0.930 . S
C362 C361 1.362 . S
C362 C365 1.409 . S
C363 H355 0.930 . S
C363 C364 1.355 . S
C363 C365 1.415 . S
C364 C363 1.355 . S
C364 C366 1.419 . S
C365 C360 1.425 . S
C365 C362 1.409 . S
C365 C363 1.415 . S
C366 H356 0.930 1_455 S
C366 C364 1.419 . S
C366 C367 1.362 . S
C367 H357 0.930 1_455 S
C367 C360 1.409 . S
C367 C366 1.362 . S
H368 C374 0.930 . S
H369 C377 0.930 . S
H370 C378 0.930 . S
H371 C379 0.930 . S
H372 C382 0.930 . S
H373 C383 0.930 . S
C374 H368 0.930 . S
C374 C375 1.355 . S
C374 C376 1.415 . S
C375 C374 1.355 . S
C375 C377 1.419 1_565 S
C376 C374 1.415 . S
C376 C381 1.425 . S
C376 C383 1.409 . S
C377 H369 0.930 . S
C377 C375 1.419 1_545 S
C377 C378 1.362 . S
C378 H370 0.930 . S
C378 C377 1.362 . S
C378 C381 1.409 1_545 S
C379 H371 0.930 . S
C379 C380 1.355 . S
C379 C381 1.415 . S
C380 C379 1.355 . S
C380 C382 1.419 . S
C381 C376 1.425 . S
C381 C378 1.409 1_565 S
C381 C379 1.415 . S
C382 H372 0.930 . S
C382 C380 1.419 . S
C382 C383 1.362 . S
C383 H373 0.930 . S
C383 C376 1.409 . S
C383 C382 1.362 . S
H384 C390 0.930 . S
H385 C393 0.930 . S
H386 C394 0.930 . S
H387 C395 0.930 . S
H388 C398 0.930 . S
H389 C399 0.930 . S
C390 H384 0.930 . S
C390 C391 1.355 . S
C390 C392 1.415 . S
C391 C390 1.355 . S
C391 C393 1.419 . S
C392 C390 1.415 . S
C392 C397 1.425 . S
C392 C399 1.409 . S
C393 H385 0.930 . S
C393 C391 1.419 . S
C393 C394 1.362 . S
C394 H386 0.930 . S
C394 C393 1.362 . S
C394 C397 1.409 . S
C395 H387 0.930 . S
C395 C396 1.355 . S
C395 C397 1.415 . S
C396 C395 1.355 . S
C396 C398 1.419 . S
C397 C392 1.425 . S
C397 C394 1.409 . S
C397 C395 1.415 . S
C398 H388 0.930 . S
C398 C396 1.419 . S
C398 C399 1.362 . S
C399 H389 0.930 . S
C399 C392 1.409 . S
C399 C398 1.362 . S
H400 C406 0.930 1_455 S
H401 C409 0.930 . S
H402 C410 0.930 . S
H403 C411 0.930 . S
H404 C414 0.930 . S
H405 C415 0.930 1_455 S
C406 H400 0.930 1_655 S
C406 C407 1.355 . S
C406 C408 1.415 . S
C407 C406 1.355 . S
C407 C409 1.419 . S
C408 C406 1.415 . S
C408 C413 1.425 . S
C408 C415 1.409 . S
C409 H401 0.930 . S
C409 C407 1.419 . S
C409 C410 1.362 . S
C410 H402 0.930 . S
C410 C409 1.362 . S
C410 C413 1.409 . S
C411 H403 0.930 . S
C411 C412 1.355 . S
C411 C413 1.415 . S
C412 C411 1.355 . S
C412 C414 1.419 . S
C413 C408 1.425 . S
C413 C410 1.409 . S
C413 C411 1.415 . S
C414 H404 0.930 . S
C414 C412 1.419 . S
C414 C415 1.362 . S
C415 H405 0.930 1_655 S
C415 C408 1.409 . S
C415 C414 1.362 . S
H416 C422 0.930 . S
H417 C425 0.930 1_565 S
H418 C426 0.930 1_565 S
H419 C427 0.930 . S
H420 C430 0.930 . S
H421 C431 0.930 . S
C422 H416 0.930 . S
C422 C423 1.355 . S
C422 C424 1.415 . S
C423 C422 1.355 . S
C423 C425 1.419 . S
C424 C422 1.415 . S
C424 C429 1.425 . S
C424 C431 1.409 . S
C425 H417 0.930 1_545 S
C425 C423 1.419 . S
C425 C426 1.362 . S
C426 H418 0.930 1_545 S
C426 C425 1.362 . S
C426 C429 1.409 . S
C427 H419 0.930 . S
C427 C428 1.355 . S
C427 C429 1.415 . S
C428 C427 1.355 . S
C428 C430 1.419 . S
C429 C424 1.425 . S
C429 C426 1.409 . S
C429 C427 1.415 . S
C430 H420 0.930 . S
C430 C428 1.419 . S
C430 C431 1.362 . S
C431 H421 0.930 . S
C431 C424 1.409 . S
C431 C430 1.362 . S
H432 C438 0.930 . S
H433 C441 0.930 . S
H434 C442 0.930 . S
H435 C443 0.930 . S
H436 C446 0.930 . S
H437 C447 0.930 . S
C438 H432 0.930 . S
C438 C439 1.355 . S
C438 C440 1.415 . S
C439 C438 1.355 . S
C439 C441 1.419 . S
C440 C438 1.415 . S
C440 C445 1.425 . S
C440 C447 1.409 . S
C441 H433 0.930 . S
C441 C439 1.419 . S
C441 C442 1.362 . S
C442 H434 0.930 . S
C442 C441 1.362 . S
C442 C445 1.409 . S
C443 H435 0.930 . S
C443 C444 1.355 1_556 S
C443 C445 1.415 . S
C444 C443 1.355 1_554 S
C444 C446 1.419 . S
C445 C440 1.425 . S
C445 C442 1.409 . S
C445 C443 1.415 . S
C446 H436 0.930 . S
C446 C444 1.419 . S
C446 C447 1.362 1_554 S
C447 H437 0.930 . S
C447 C440 1.409 . S
C447 C446 1.362 1_556 S
H448 C454 0.930 . S
H449 C457 0.930 . S
H450 C458 0.930 . S
H451 C459 0.930 . S
H452 C462 0.930 . S
H453 C463 0.930 . S
C454 H448 0.930 . S
C454 C455 1.355 . S
C454 C456 1.415 . S
C455 C454 1.355 . S
C455 C457 1.419 1_655 S
C456 C454 1.415 . S
C456 C461 1.425 1_655 S
C456 C463 1.409 . S
C457 H449 0.930 . S
C457 C455 1.419 1_455 S
C457 C458 1.362 . S
C458 H450 0.930 . S
C458 C457 1.362 . S
C458 C461 1.409 . S
C459 H451 0.930 . S
C459 C460 1.355 . S
C459 C461 1.415 . S
C460 C459 1.355 . S
C460 C462 1.419 1_455 S
C461 C456 1.425 1_455 S
C461 C458 1.409 . S
C461 C459 1.415 . S
C462 H452 0.930 . S
C462 C460 1.419 1_655 S
C462 C463 1.362 . S
C463 H453 0.930 . S
C463 C456 1.409 . S
C463 C462 1.362 . S
H464 C470 0.930 1_545 S
H465 C473 0.930 . S
H466 C474 0.930 . S
H467 C475 0.930 . S
H468 C478 0.930 1_455 S
H469 C479 0.930 1_455 S
C470 H464 0.930 1_565 S
C470 C471 1.355 . S
C470 C472 1.415 1_565 S
C471 C470 1.355 . S
C471 C473 1.419 . S
C472 C470 1.415 1_545 S
C472 C477 1.425 1_545 S
C472 C479 1.409 . S
C473 H465 0.930 . S
C473 C471 1.419 . S
C473 C474 1.362 . S
C474 H466 0.930 . S
C474 C473 1.362 . S
C474 C477 1.414 . S
C475 H467 0.930 . S
C475 C476 1.355 . S
C475 C477 1.410 1_545 S
C476 C475 1.355 . S
C476 C478 1.419 . S
C477 C472 1.425 1_565 S
C477 C474 1.414 . S
C477 C475 1.410 1_565 S
C478 H468 0.930 1_655 S
C478 C476 1.419 . S
C478 C479 1.362 . S
C479 H469 0.930 1_655 S
C479 C472 1.409 . S
C479 C478 1.362 . S
H480 C486 0.930 . S
H481 C489 0.930 . S
H482 C490 0.930 . S
H483 C491 0.930 . S
H484 C494 0.930 1_554 S
H485 C495 0.930 . S
C486 H480 0.930 . S
C486 C487 1.355 . S
C486 C488 1.415 . S
C487 C486 1.355 . S
C487 C489 1.419 . S
C488 C486 1.415 . S
C488 C493 1.425 . S
C488 C495 1.409 . S
C489 H481 0.930 . S
C489 C487 1.419 . S
C489 C490 1.362 . S
C490 H482 0.930 . S
C490 C489 1.362 . S
C490 C493 1.409 . S
C491 H483 0.930 . S
C491 C492 1.355 1_556 S
C491 C493 1.415 . S
C492 C491 1.355 1_554 S
C492 C494 1.419 1_554 S
C493 C488 1.425 . S
C493 C490 1.409 . S
C493 C491 1.415 . S
C494 H484 0.930 1_556 S
C494 C492 1.419 1_556 S
C494 C495 1.362 . S
C495 H485 0.930 . S
C495 C488 1.409 . S
C495 C494 1.362 . S
H496 C502 0.930 . S
H497 C505 0.930 . S
H498 C506 0.930 . S
H499 C507 0.930 . S
H500 C510 0.930 . S
H501 C511 0.930 . S
C502 H496 0.930 . S
C502 C503 1.355 . S
C502 C504 1.415 . S
C503 C502 1.355 . S
C503 C505 1.419 . S
C504 C502 1.415 . S
C504 C509 1.425 1_455 S
C504 C511 1.409 . S
C505 H497 0.930 . S
C505 C503 1.419 . S
C505 C506 1.362 1_455 S
C506 H498 0.930 . S
C506 C505 1.362 1_655 S
C506 C509 1.409 . S
C507 H499 0.930 . S
C507 C508 1.355 . S
C507 C509 1.415 . S
C508 C507 1.355 . S
C508 C510 1.419 1_655 S
C509 C504 1.425 1_655 S
C509 C506 1.409 . S
C509 C507 1.415 . S
C510 H500 0.930 . S
C510 C508 1.419 1_455 S
C510 C511 1.362 . S
C511 H501 0.930 . S
C511 C504 1.409 . S
C511 C510 1.362 . S
H512 C518 0.930 . S
H513 C521 0.930 . S
H514 C522 0.930 . S
H515 C523 0.930 . S
H516 C526 0.930 . S
H517 C527 0.930 . S
C518 H512 0.930 . S
C518 C519 1.355 . S
C518 C520 1.415 . S
C519 C518 1.355 . S
C519 C521 1.419 1_545 S
C520 C518 1.415 . S
C520 C525 1.425 1_545 S
C520 C527 1.409 . S
C521 H513 0.930 . S
C521 C519 1.419 1_565 S
C521 C522 1.362 . S
C522 H514 0.930 . S
C522 C521 1.362 . S
C522 C525 1.409 . S
C523 H515 0.930 . S
C523 C524 1.355 . S
C523 C525 1.415 . S
C524 C523 1.355 . S
C524 C526 1.419 1_565 S
C525 C520 1.425 1_565 S
C525 C522 1.409 . S
C525 C523 1.415 . S
C526 H516 0.930 . S
C526 C524 1.419 1_545 S
C526 C527 1.362 . S
C527 H517 0.930 . S
C527 C520 1.409 . S
C527 C526 1.362 . S
C247 C184 1.447 . S
C252 C26 1.455 . S
C263 C226 1.502 . S
C268 C64 1.493 . S
C279 C24 1.476 . S
C284 C106 1.488 . S
C295 C66 1.482 . S
C300 C144 1.485 . S
C311 C104 1.469 . S
C316 C186 1.468 . S
C327 C146 1.512 . S
C332 C224 1.510 . S
C343 C2 1.813 . S
C348 C143 1.863 . S
C359 C162 1.763 . S
C364 C63 1.889 . S
C375 C223 1.849 1_565 S
C380 C82 1.765 . S
C391 C103 1.868 . S
C396 C202 1.751 . S
C407 C23 1.918 1_655 S
C412 C122 1.824 . S
C423 C183 1.869 . S
C428 C42 1.752 . S
C439 C217 0.880 . S
C444 C17 0.780 . S
C455 C53 1.634 . S
C460 C13 1.626 . S
C471 C97 0.791 . S
C476 C57 0.886 . S
C487 C93 1.604 . S
C492 C133 1.629 . S
C503 C177 0.810 . S
C508 C137 0.842 . S
C519 C213 1.632 . S
C524 C173 1.611 . S
