# Generated by pormake.
# Topology bcu-f, (3)-cn, num edge types: 1
# Building blocks:
#     Node 0, Type 0, BuildingBlock: OLANEW_clean_sbu_2, # of connection points: 3
#     Node 1, Type 0, BuildingBlock: OLANEW_clean_sbu_2, # of connection points: 3
#     Node 2, Type 0, BuildingBlock: OLANEW_clean_sbu_2, # of connection points: 3
#     Node 3, Type 0, BuildingBlock: OLANEW_clean_sbu_2, # of connection points: 3
#     Node 4, Type 0, BuildingBlock: OLANEW_clean_sbu_2, # of connection points: 3
#     Node 5, Type 0, BuildingBlock: OLANEW_clean_sbu_2, # of connection points: 3
#     Node 6, Type 0, BuildingBlock: OLANEW_clean_sbu_2, # of connection points: 3
#     Node 7, Type 0, BuildingBlock: OLANEW_clean_sbu_2, # of connection points: 3
#     Node 8, Type 0, BuildingBlock: OLANEW_clean_sbu_2, # of connection points: 3
#     Node 9, Type 0, BuildingBlock: OLANEW_clean_sbu_2, # of connection points: 3
#     Node 10, Type 0, BuildingBlock: OLANEW_clean_sbu_2, # of connection points: 3
#     Node 11, Type 0, BuildingBlock: OLANEW_clean_sbu_2, # of connection points: 3
#     Node 12, Type 0, BuildingBlock: OLANEW_clean_sbu_2, # of connection points: 3
#     Node 13, Type 0, BuildingBlock: OLANEW_clean_sbu_2, # of connection points: 3
#     Node 14, Type 0, BuildingBlock: OLANEW_clean_sbu_2, # of connection points: 3
#     Node 15, Type 0, BuildingBlock: OLANEW_clean_sbu_2, # of connection points: 3
#     Edge 16, Type (0, 0), BuildingBlock: XIVTED_clean_linker_0, # of connection points: 2
#     Edge 17, Type (0, 0), BuildingBlock: XIVTED_clean_linker_0, # of connection points: 2
#     Edge 18, Type (0, 0), BuildingBlock: XIVTED_clean_linker_0, # of connection points: 2
#     Edge 19, Type (0, 0), BuildingBlock: XIVTED_clean_linker_0, # of connection points: 2
#     Edge 20, Type (0, 0), BuildingBlock: XIVTED_clean_linker_0, # of connection points: 2
#     Edge 21, Type (0, 0), BuildingBlock: XIVTED_clean_linker_0, # of connection points: 2
#     Edge 22, Type (0, 0), BuildingBlock: XIVTED_clean_linker_0, # of connection points: 2
#     Edge 23, Type (0, 0), BuildingBlock: XIVTED_clean_linker_0, # of connection points: 2
#     Edge 24, Type (0, 0), BuildingBlock: XIVTED_clean_linker_0, # of connection points: 2
#     Edge 25, Type (0, 0), BuildingBlock: XIVTED_clean_linker_0, # of connection points: 2
#     Edge 26, Type (0, 0), BuildingBlock: XIVTED_clean_linker_0, # of connection points: 2
#     Edge 27, Type (0, 0), BuildingBlock: XIVTED_clean_linker_0, # of connection points: 2
#     Edge 28, Type (0, 0), BuildingBlock: XIVTED_clean_linker_0, # of connection points: 2
#     Edge 29, Type (0, 0), BuildingBlock: XIVTED_clean_linker_0, # of connection points: 2
#     Edge 30, Type (0, 0), BuildingBlock: XIVTED_clean_linker_0, # of connection points: 2
#     Edge 31, Type (0, 0), BuildingBlock: XIVTED_clean_linker_0, # of connection points: 2
#     Edge 32, Type (0, 0), BuildingBlock: XIVTED_clean_linker_0, # of connection points: 2
#     Edge 33, Type (0, 0), BuildingBlock: XIVTED_clean_linker_0, # of connection points: 2
#     Edge 34, Type (0, 0), BuildingBlock: XIVTED_clean_linker_0, # of connection points: 2
#     Edge 35, Type (0, 0), BuildingBlock: XIVTED_clean_linker_0, # of connection points: 2
#     Edge 36, Type (0, 0), BuildingBlock: XIVTED_clean_linker_0, # of connection points: 2
#     Edge 37, Type (0, 0), BuildingBlock: XIVTED_clean_linker_0, # of connection points: 2
#     Edge 38, Type (0, 0), BuildingBlock: XIVTED_clean_linker_0, # of connection points: 2
#     Edge 39, Type (0, 0), BuildingBlock: XIVTED_clean_linker_0, # of connection points: 2
# Relax obj value: 0.001
# Max RMSD: 0.051
# Mean RMSD: 0.051
data_MOF--net-bcu-f--node1-OLANEW_clean_sbu_2--edge1-XIVTED_clean_linker_0
_symmetry_space_group_name_H-M    P1
_symmetry_Int_Tables_number       1
_symmetry_cell_setting            triclinic
loop_
_symmetry_equiv_pos_as_xyz
'x, y, z'
_cell_length_a     74.2487
_cell_length_b     74.283432
_cell_length_c     22.294734
_cell_angle_alpha  90.038126
_cell_angle_beta   90.059938
_cell_angle_gamma 90.015774
loop_
_atom_site_label
_atom_site_type_symbol
_atom_site_fract_x
_atom_site_fract_y
_atom_site_fract_z
_atom_type_partial_charge
O0 O 0.18545 0.08387 0.11661 0.0
Cd1 Cd 0.20185 0.05951 0.16525 0.0
O2 O 0.20629 0.10406 0.13487 0.0
Cd3 Cd 0.21814 0.13103 0.13657 0.0
O4 O 0.23317 0.15593 0.15109 0.0
C5 C 0.23418 0.16236 0.20383 0.0
O6 O 0.22577 0.15405 0.24767 0.0
C7 C 0.19123 0.09988 0.11142 0.0
C8 C 0.19667 0.02899 0.09485 0.0
O9 O 0.18563 0.03307 0.13687 0.0
O10 O 0.21054 0.03903 0.08745 0.0
O11 O 0.90426 0.17515 0.14274 0.0
Cd12 Cd 0.92394 0.19488 0.20077 0.0
O13 O 0.88367 0.19568 0.15724 0.0
Cd14 Cd 0.85698 0.20793 0.15373 0.0
O15 O 0.83322 0.22433 0.17099 0.0
C16 C 0.83161 0.23103 0.22316 0.0
O17 O 0.844 0.2275 0.26362 0.0
C18 C 0.88846 0.18096 0.13288 0.0
C19 C 0.95382 0.20274 0.13055 0.0
O20 O 0.95463 0.19067 0.1715 0.0
O21 O 0.93905 0.21143 0.12394 0.0
O22 O 0.81187 0.8979 0.15108 0.0
Cd23 Cd 0.78844 0.9169 0.19425 0.0
O24 O 0.79105 0.87713 0.14929 0.0
Cd25 Cd 0.78001 0.85009 0.13773 0.0
O26 O 0.76403 0.82581 0.15115 0.0
C27 C 0.76179 0.8205 0.2048 0.0
O28 O 0.76966 0.82942 0.24849 0.0
C29 C 0.80702 0.88205 0.13703 0.0
C30 C 0.78238 0.94587 0.11801 0.0
O31 O 0.79235 0.94759 0.16463 0.0
O32 O 0.77498 0.93057 0.10816 0.0
O33 O 0.11521 0.82121 0.22339 0.0
Cd34 Cd 0.09528 0.80816 0.2985 0.0
O35 O 0.12357 0.79322 0.21145 0.0
Cd36 Cd 0.14069 0.77194 0.17575 0.0
O37 O 0.16168 0.75164 0.18474 0.0
C38 C 0.17747 0.75701 0.19754 0.0
O39 O 0.18058 0.77439 0.20117 0.0
C40 C 0.12452 0.8096 0.19537 0.0
C41 C 0.06454 0.79691 0.23772 0.0
O42 O 0.06463 0.81174 0.2671 0.0
O43 O 0.07874 0.78712 0.23879 0.0
O44 O 0.15526 0.8756 0.80636 0.0
Cd45 Cd 0.15998 0.89993 0.73495 0.0
O46 O 0.18449 0.87166 0.80893 0.0
Cd47 Cd 0.20882 0.85735 0.83618 0.0
O48 O 0.23217 0.83971 0.827 0.0
C49 C 0.23616 0.8348 0.77402 0.0
O50 O 0.22631 0.84068 0.72912 0.0
C51 C 0.1689 0.86769 0.82834 0.0
C52 C 0.1689 0.93011 0.80284 0.0
O53 O 0.15246 0.9263 0.79083 0.0
O54 O 0.18122 0.91999 0.78081 0.0
O55 O 0.10304 0.17299 0.82246 0.0
Cd56 Cd 0.08454 0.19448 0.76728 0.0
O57 O 0.12252 0.19495 0.82751 0.0
Cd58 Cd 0.1466 0.20948 0.85596 0.0
O59 O 0.16921 0.22808 0.85347 0.0
C60 C 0.17898 0.22786 0.80674 0.0
O61 O 0.17547 0.21601 0.76453 0.0
C62 C 0.11804 0.17896 0.84127 0.0
C63 C 0.05493 0.20272 0.8383 0.0
O64 O 0.05362 0.19131 0.79538 0.0
O65 O 0.07008 0.21061 0.84649 0.0
O66 O 0.81863 0.09554 0.82294 0.0
Cd67 Cd 0.79756 0.07795 0.76281 0.0
O68 O 0.79942 0.11765 0.81521 0.0
Cd69 Cd 0.78623 0.14351 0.83141 0.0
O70 O 0.76902 0.16719 0.82357 0.0
C71 C 0.76279 0.17082 0.77185 0.0
O72 O 0.76724 0.16045 0.72644 0.0
C73 C 0.81403 0.11147 0.83683 0.0
C74 C 0.78762 0.04829 0.8312 0.0
O75 O 0.79976 0.04691 0.79063 0.0
O76 O 0.77979 0.06352 0.83805 0.0
O77 O 0.90944 0.80329 0.92437 0.0
Cd78 Cd 0.92998 0.78 0.88878 0.0
O79 O 0.88729 0.78609 0.89467 0.0
Cd80 Cd 0.85968 0.77619 0.88576 0.0
O81 O 0.83434 0.7629 0.86366 0.0
C82 C 0.8297 0.76168 0.80894 0.0
O83 O 0.84005 0.76891 0.7677 0.0
C84 C 0.89262 0.80044 0.92036 0.0
C85 C 0.95972 0.77889 0.96458 0.0
O86 O 0.96055 0.78701 0.91395 0.0
O87 O 0.94499 0.77099 0.97875 0.0
O88 O 0.68464 0.59629 0.63559 0.0
Cd89 Cd 0.70801 0.57768 0.68112 0.0
O90 O 0.70487 0.61762 0.63821 0.0
Cd91 Cd 0.71549 0.64493 0.62975 0.0
O92 O 0.73126 0.66922 0.6458 0.0
C93 C 0.73205 0.67513 0.69923 0.0
O94 O 0.72284 0.66684 0.74126 0.0
C95 C 0.68921 0.61233 0.62322 0.0
C96 C 0.71517 0.54871 0.60584 0.0
O97 O 0.70485 0.54688 0.65148 0.0
O98 O 0.72239 0.56412 0.59652 0.0
O99 O 0.38484 0.67019 0.71189 0.0
Cd100 Cd 0.40337 0.68606 0.78513 0.0
O101 O 0.3754 0.69737 0.69147 0.0
Cd102 Cd 0.35802 0.7173 0.64885 0.0
O103 O 0.33793 0.7387 0.65317 0.0
C104 C 0.3351 0.74514 0.70516 0.0
O105 O 0.34442 0.73879 0.75062 0.0
C106 C 0.37537 0.68063 0.67968 0.0
C107 C 0.43343 0.6982 0.72275 0.0
O108 O 0.43426 0.68397 0.75513 0.0
O109 O 0.41863 0.70704 0.72174 0.0
O110 O 0.29504 0.4135 0.58574 0.0
Cd111 Cd 0.27211 0.43568 0.61164 0.0
O112 O 0.27601 0.39237 0.61151 0.0
Cd113 Cd 0.26803 0.3645 0.62679 0.0
O114 O 0.2579 0.338 0.65114 0.0
C115 C 0.25401 0.33491 0.70565 0.0
O116 O 0.25653 0.34768 0.7456 0.0
C117 C 0.29116 0.3969 0.58979 0.0
C118 C 0.27561 0.46471 0.53389 0.0
O119 O 0.28207 0.46544 0.58717 0.0
O120 O 0.26713 0.45046 0.51795 0.0
O121 O 0.60297 0.33389 0.68355 0.0
Cd122 Cd 0.58151 0.32088 0.75381 0.0
O123 O 0.62 0.30995 0.68727 0.0
Cd124 Cd 0.64151 0.29072 0.66745 0.0
O125 O 0.66326 0.27102 0.67176 0.0
C126 C 0.67132 0.26906 0.72166 0.0
O127 O 0.66637 0.27904 0.76745 0.0
C128 C 0.61677 0.32542 0.66524 0.0
C129 C 0.54999 0.31515 0.68902 0.0
O130 O 0.55312 0.33028 0.71465 0.0
O131 O 0.56148 0.30244 0.69596 0.0
O132 O 0.6825 0.39862 0.31378 0.0
Cd133 Cd 0.70379 0.41574 0.25319 0.0
O134 O 0.70477 0.37996 0.32724 0.0
Cd135 Cd 0.72132 0.35763 0.35928 0.0
O136 O 0.73894 0.33422 0.35643 0.0
C137 C 0.73808 0.32455 0.30949 0.0
O138 O 0.72647 0.32888 0.26736 0.0
C139 C 0.68865 0.38458 0.33904 0.0
C140 C 0.71343 0.44573 0.32065 0.0
O141 O 0.70147 0.4469 0.27934 0.0
O142 O 0.72127 0.43055 0.32856 0.0
O143 O 0.58505 0.68687 0.39997 0.0
Cd144 Cd 0.56469 0.7098 0.36087 0.0
O145 O 0.60694 0.70527 0.37725 0.0
Cd146 Cd 0.63417 0.71644 0.37575 0.0
O147 O 0.65936 0.73067 0.35931 0.0
C148 C 0.66488 0.73215 0.3056 0.0
O149 O 0.65548 0.72466 0.26227 0.0
C150 C 0.60176 0.69049 0.40037 0.0
C151 C 0.5356 0.71299 0.43862 0.0
O152 O 0.53424 0.70386 0.39002 0.0
O153 O 0.55056 0.72092 0.44976 0.0
O154 O 0.34182 0.61245 0.2819 0.0
Cd155 Cd 0.32965 0.59287 0.20388 0.0
O156 O 0.31326 0.61782 0.2973 0.0
Cd157 Cd 0.29075 0.63261 0.33606 0.0
O158 O 0.26862 0.65177 0.3296 0.0
C159 C 0.27254 0.66794 0.31642 0.0
O160 O 0.28957 0.67246 0.31103 0.0
C161 C 0.32961 0.62025 0.3121 0.0
C162 C 0.31317 0.56409 0.26178 0.0
O163 O 0.32898 0.56245 0.23943 0.0
O164 O 0.30492 0.5791 0.25499 0.0
O165 O 0.39321 0.31988 0.37816 0.0
Cd166 Cd 0.41696 0.30342 0.32643 0.0
O167 O 0.3732 0.29912 0.35797 0.0
Cd168 Cd 0.3476 0.28452 0.35916 0.0
O169 O 0.32498 0.26636 0.34301 0.0
C170 C 0.32109 0.26242 0.28904 0.0
O171 O 0.3305 0.26975 0.24554 0.0
C172 C 0.37718 0.31407 0.38259 0.0
C173 C 0.44747 0.30438 0.39884 0.0
O174 O 0.4441 0.31704 0.36148 0.0
O175 O 0.43665 0.29094 0.40079 0.0
H176 H 0.20224 0.94423 0.82747 0.0
H177 H 0.16598 0.00881 0.0872 0.0
H178 H 0.14594 0.95007 0.87165 0.0
H179 H 0.21888 0.01452 0.00926 0.0
H180 H 0.15936 0.98488 0.01535 0.0
H181 H 0.20945 0.96805 0.89964 0.0
C182 C 0.19139 0.95057 0.85211 0.0
C183 C 0.17345 0.94517 0.84347 0.0
C184 C 0.17243 0.99136 0.01402 0.0
C185 C 0.18163 0.97221 0.92651 0.0
C186 C 0.17626 0.00495 0.05525 0.0
C187 C 0.193 0.0137 0.05416 0.0
C188 C 0.18548 0.98634 0.97166 0.0
C189 C 0.20578 0.00816 0.01159 0.0
C190 C 0.19552 0.96415 0.89326 0.0
C191 C 0.15995 0.95384 0.87668 0.0
N192 N 0.20176 0.99481 0.97204 0.0
N193 N 0.16433 0.96685 0.91697 0.0
H194 H 0.98951 0.19661 0.15222 0.0
H195 H 0.01902 0.19841 0.81561 0.0
H196 H 0.95279 0.21539 0.01581 0.0
H197 H 0.05641 0.21372 0.95489 0.0
H198 H 0.99424 0.20117 0.8878 0.0
H199 H 0.01438 0.19938 0.08041 0.0
C200 C 0.98673 0.20144 0.10731 0.0
C201 C 0.96912 0.20578 0.08976 0.0
C202 C 0.00786 0.20411 0.9022 0.0
C203 C 0.99728 0.20858 0.0076 0.0
C204 C 0.02197 0.20248 0.86124 0.0
C205 C 0.03973 0.20584 0.87947 0.0
C206 C 0.01167 0.20862 0.96201 0.0
C207 C 0.04287 0.21109 0.93905 0.0
C208 C 0.00089 0.20307 0.06659 0.0
C209 C 0.96621 0.21199 0.03111 0.0
N210 N 0.02899 0.21204 0.97858 0.0
N211 N 0.98012 0.21293 0.9917 0.0
H212 H 0.77347 0.0497 0.94397 0.0
H213 H 0.77402 0.94388 0.99895 0.0
H214 H 0.79296 0.0124 0.8105 0.0
H215 H 0.78594 0.98188 0.14 0.0
H216 H 0.77287 0.96884 0.92702 0.0
H217 H 0.76983 0.02457 0.01421 0.0
C218 C 0.77672 0.03619 0.92917 0.0
C219 C 0.78362 0.03308 0.87152 0.0
C220 C 0.77559 0.97166 0.97385 0.0
C221 C 0.7793 0.00445 0.95114 0.0
C222 C 0.77616 0.95749 0.01488 0.0
C223 C 0.78018 0.96087 0.07535 0.0
C224 C 0.77864 0.9893 0.99382 0.0
C225 C 0.78293 0.97873 0.09364 0.0
C226 C 0.77473 0.02193 0.96932 0.0
C227 C 0.78772 0.01535 0.85472 0.0
N228 N 0.78206 0.99232 0.05301 0.0
N229 N 0.78546 0.00165 0.89438 0.0
H230 H 0.06448 0.77654 0.13602 0.0
H231 H 0.95873 0.77683 0.08662 0.0
H232 H 0.02921 0.80593 0.25455 0.0
H233 H 0.99549 0.78202 0.93787 0.0
H234 H 0.98426 0.77957 0.15612 0.0
H235 H 0.03875 0.77042 0.06982 0.0
C236 C 0.05127 0.78146 0.14851 0.0
C237 C 0.04891 0.79179 0.20063 0.0
C238 C 0.98667 0.77997 0.10822 0.0
C239 C 0.01961 0.78465 0.12591 0.0
C240 C 0.97219 0.77833 0.06864 0.0
C241 C 0.97506 0.77928 0.00654 0.0
C242 C 0.00412 0.78209 0.08537 0.0
C243 C 0.99274 0.78134 0.9855 0.0
C244 C 0.03669 0.77807 0.11063 0.0
C245 C 0.03157 0.79799 0.21457 0.0
N246 N 0.00667 0.78258 0.0249 0.0
N247 N 0.01751 0.79424 0.1775 0.0
H248 H 0.72447 0.55066 0.4876 0.0
H249 H 0.72699 0.44474 0.43435 0.0
H250 H 0.71209 0.51267 0.62802 0.0
H251 H 0.70794 0.48153 0.29864 0.0
H252 H 0.72989 0.47005 0.50436 0.0
H253 H 0.72662 0.5256 0.41618 0.0
C254 C 0.72244 0.53703 0.50352 0.0
C255 C 0.71799 0.53369 0.56363 0.0
C256 C 0.72526 0.47254 0.45903 0.0
C257 C 0.72068 0.50515 0.4827 0.0
C258 C 0.7237 0.45818 0.41901 0.0
C259 C 0.71712 0.46108 0.36079 0.0
C260 C 0.72058 0.48993 0.44018 0.0
C261 C 0.71294 0.47873 0.34331 0.0
C262 C 0.72359 0.52281 0.46277 0.0
C263 C 0.71541 0.51581 0.58192 0.0
N264 N 0.71477 0.49254 0.38288 0.0
N265 N 0.71685 0.50217 0.54158 0.0
H266 H 0.53766 0.7178 0.55971 0.0
H267 H 0.43215 0.71688 0.61767 0.0
H268 H 0.49961 0.70942 0.41597 0.0
H269 H 0.46922 0.69118 0.73973 0.0
H270 H 0.45723 0.7227 0.54875 0.0
H271 H 0.51278 0.7164 0.63202 0.0
C272 C 0.52405 0.71591 0.54337 0.0
C273 C 0.52063 0.71363 0.48193 0.0
C274 C 0.45983 0.71596 0.59096 0.0
C275 C 0.49231 0.71233 0.56389 0.0
C276 C 0.44561 0.71274 0.63038 0.0
C277 C 0.44867 0.70348 0.68427 0.0
C278 C 0.47724 0.71028 0.60633 0.0
C279 C 0.46633 0.69827 0.69841 0.0
C280 C 0.50994 0.71503 0.58456 0.0
C281 C 0.50278 0.71111 0.46305 0.0
N282 N 0.48001 0.70179 0.65969 0.0
N283 N 0.48923 0.71061 0.50393 0.0
H284 H 0.28919 0.56718 0.35367 0.0
H285 H 0.27753 0.46253 0.41202 0.0
H286 H 0.31917 0.52791 0.25188 0.0
H287 H 0.28082 0.50037 0.55852 0.0
H288 H 0.28499 0.48689 0.34194 0.0
H289 H 0.27811 0.54296 0.4188 0.0
C290 C 0.29321 0.55343 0.34452 0.0
C291 C 0.30514 0.54948 0.29757 0.0
C292 C 0.28392 0.48981 0.38941 0.0
C293 C 0.29236 0.52191 0.37095 0.0
C294 C 0.27959 0.47601 0.42928 0.0
C295 C 0.27865 0.47949 0.49105 0.0
C296 C 0.28684 0.50725 0.41143 0.0
C297 C 0.28154 0.49715 0.51122 0.0
C298 C 0.28698 0.53971 0.38181 0.0
C299 C 0.31007 0.53149 0.28787 0.0
N300 N 0.28543 0.51044 0.4714 0.0
N301 N 0.30357 0.51831 0.32415 0.0
H302 H 0.53635 0.2838 0.6424 0.0
H303 H 0.46812 0.33391 0.42305 0.0
H304 H 0.52781 0.34128 0.64495 0.0
H305 H 0.46194 0.27783 0.4694 0.0
H306 H 0.49272 0.33626 0.49545 0.0
H307 H 0.51129 0.28075 0.57135 0.0
C308 C 0.52914 0.29575 0.6283 0.0
C309 C 0.53415 0.31282 0.64963 0.0
C310 C 0.48598 0.32344 0.48976 0.0
C311 C 0.50578 0.30944 0.5679 0.0
C312 C 0.47202 0.32205 0.44818 0.0
C313 C 0.46296 0.30565 0.44027 0.0
C314 C 0.4911 0.30827 0.52314 0.0
C315 C 0.46854 0.29075 0.47427 0.0
C316 C 0.51487 0.29399 0.58784 0.0
C317 C 0.52437 0.32786 0.62986 0.0
N318 N 0.48231 0.29239 0.51414 0.0
N319 N 0.51076 0.32583 0.58974 0.0
H320 H 0.15482 0.10109 0.10102 0.0
H321 H 0.15496 0.17881 0.85262 0.0
H322 H 0.20312 0.12786 0.04124 0.0
H323 H 0.10683 0.15324 0.91941 0.0
H324 H 0.17289 0.16096 0.92283 0.0
H325 H 0.13701 0.12081 0.03663 0.0
C326 C 0.16165 0.11131 0.07489 0.0
C327 C 0.18044 0.11305 0.07727 0.0
C328 C 0.1584 0.15935 0.92243 0.0
C329 C 0.16019 0.13552 0.00259 0.0
C330 C 0.14813 0.16969 0.88276 0.0
C331 C 0.12934 0.16782 0.88121 0.0
C332 C 0.14979 0.14698 0.96047 0.0
C333 C 0.1213 0.15513 0.91926 0.0
C334 C 0.15149 0.12255 0.03804 0.0
C335 C 0.18863 0.12642 0.04221 0.0
N336 N 0.13155 0.14524 0.95741 0.0
N337 N 0.17845 0.13709 0.00602 0.0
H338 H 0.83669 0.09813 0.92172 0.0
H339 H 0.86252 0.19446 0.0579 0.0
H340 H 0.81692 0.14831 0.85003 0.0
H341 H 0.88753 0.14475 0.11308 0.0
H342 H 0.84389 0.17767 0.98687 0.0
H343 H 0.85419 0.1149 0.99569 0.0
C344 C 0.83598 0.1127 0.92159 0.0
C345 C 0.82499 0.12181 0.88033 0.0
C346 C 0.85333 0.1704 0.0149 0.0
C347 C 0.84499 0.14113 0.96521 0.0
C348 C 0.86377 0.17996 0.05619 0.0
C349 C 0.87628 0.17093 0.0925 0.0
C350 C 0.85546 0.15168 0.00976 0.0
C351 C 0.87795 0.15222 0.0862 0.0
C352 C 0.84594 0.12226 0.96401 0.0
C353 C 0.82464 0.14069 0.88225 0.0
N354 N 0.86764 0.14321 0.04572 0.0
N355 N 0.83447 0.14973 0.92409 0.0
H356 H 0.84355 0.88085 0.14907 0.0
H357 H 0.85726 0.80747 0.8905 0.0
H358 H 0.79949 0.85623 0.0532 0.0
H359 H 0.89916 0.82277 0.01466 0.0
H360 H 0.83624 0.82696 0.94428 0.0
H361 H 0.8646 0.8614 0.09478 0.0
C362 C 0.83831 0.87123 0.11696 0.0
C363 C 0.81974 0.86983 0.10659 0.0
C364 C 0.85001 0.82594 0.95998 0.0
C365 C 0.84369 0.84778 0.04367 0.0
C366 C 0.86197 0.81464 0.92969 0.0
C367 C 0.87985 0.81301 0.94928 0.0
C368 C 0.85605 0.83589 0.00969 0.0
C369 C 0.88545 0.82351 0.99826 0.0
C370 C 0.85031 0.86014 0.08603 0.0
C371 C 0.81365 0.8573 0.06406 0.0
N372 N 0.87359 0.83445 0.02689 0.0
N373 N 0.82559 0.84678 0.03401 0.0
H374 H 0.12807 0.7917 0.08963 0.0
H375 H 0.18894 0.86571 0.93032 0.0
H376 H 0.14476 0.84002 0.18144 0.0
H377 H 0.14295 0.84205 0.84217 0.0
H378 H 0.18137 0.84887 0.0218 0.0
H379 H 0.14225 0.80297 0.99751 0.0
C380 C 0.13516 0.80444 0.09077 0.0
C381 C 0.13533 0.81497 0.14301 0.0
C382 C 0.17323 0.84711 0.98188 0.0
C383 C 0.15158 0.82773 0.03861 0.0
C384 C 0.17759 0.85654 0.92971 0.0
C385 C 0.16655 0.85516 0.87885 0.0
C386 C 0.158 0.83596 0.98241 0.0
C387 C 0.15177 0.84343 0.88062 0.0
C388 C 0.14309 0.81087 0.03826 0.0
C389 C 0.14434 0.83156 0.14191 0.0
N390 N 0.1479 0.83423 0.93169 0.0
N391 N 0.15215 0.83745 0.09041 0.0
H392 H 0.69713 0.63893 0.54267 0.0
H393 H 0.5944 0.66727 0.49144 0.0
H394 H 0.65251 0.6123 0.62894 0.0
H395 H 0.63791 0.68527 0.37828 0.0
H396 H 0.61559 0.64821 0.54616 0.0
H397 H 0.67586 0.65785 0.48769 0.0
C398 C 0.68286 0.63733 0.551 0.0
C399 C 0.67657 0.62434 0.59147 0.0
C400 C 0.62053 0.65639 0.50952 0.0
C401 C 0.65213 0.64556 0.52739 0.0
C402 C 0.60843 0.66725 0.47814 0.0
C403 C 0.61449 0.6783 0.43126 0.0
C404 C 0.63884 0.65656 0.49392 0.0
C405 C 0.63278 0.67764 0.41577 0.0
C406 C 0.67072 0.64795 0.51891 0.0
C407 C 0.65791 0.62227 0.59844 0.0
N408 N 0.64434 0.66703 0.44724 0.0
N409 N 0.64634 0.63283 0.56693 0.0
H410 H 0.35761 0.64385 0.32291 0.0
H411 H 0.35681 0.64898 0.6716 0.0
H412 H 0.31265 0.62158 0.42005 0.0
H413 H 0.37215 0.69574 0.56916 0.0
H414 H 0.34336 0.6359 0.58063 0.0
H415 H 0.36648 0.66058 0.41348 0.0
C416 C 0.34955 0.64264 0.36318 0.0
C417 C 0.33432 0.63151 0.36418 0.0
C418 C 0.34944 0.64914 0.57849 0.0
C419 C 0.3446 0.65005 0.46753 0.0
C420 C 0.35711 0.65656 0.63012 0.0
C421 C 0.36539 0.6735 0.62773 0.0
C422 C 0.35069 0.65848 0.52395 0.0
C423 C 0.36561 0.68277 0.57291 0.0
C424 C 0.35455 0.6522 0.41453 0.0
C425 C 0.32433 0.63026 0.41741 0.0
N426 N 0.35865 0.67499 0.52278 0.0
N427 N 0.32982 0.6392 0.46743 0.0
H428 H 0.32783 0.3978 0.59378 0.0
H429 H 0.34014 0.31484 0.37097 0.0
H430 H 0.28332 0.36568 0.53046 0.0
H431 H 0.38404 0.33829 0.47109 0.0
H432 H 0.31902 0.33343 0.42767 0.0
H433 H 0.34873 0.37645 0.54738 0.0
C434 C 0.32249 0.3861 0.57081 0.0
C435 C 0.30387 0.38328 0.56693 0.0
C436 C 0.33326 0.33432 0.43775 0.0
C437 C 0.32759 0.35902 0.51274 0.0
C438 C 0.34533 0.32352 0.40582 0.0
C439 C 0.36388 0.32467 0.41715 0.0
C440 C 0.33983 0.34655 0.4806 0.0
C441 C 0.36985 0.33693 0.46088 0.0
C442 C 0.33439 0.37392 0.54438 0.0
C443 C 0.2976 0.36803 0.53612 0.0
N444 N 0.35788 0.34742 0.49081 0.0
N445 N 0.30943 0.35654 0.50978 0.0
H446 H 0.6584 0.39686 0.39432 0.0
H447 H 0.65204 0.31771 0.63248 0.0
H448 H 0.69273 0.35008 0.38499 0.0
H449 H 0.60713 0.35222 0.58887 0.0
H450 H 0.66898 0.33095 0.54961 0.0
H451 H 0.64095 0.38216 0.47276 0.0
C452 C 0.66234 0.3835 0.40868 0.0
C453 C 0.67747 0.37494 0.38385 0.0
C454 C 0.65534 0.33545 0.55799 0.0
C455 C 0.65756 0.3581 0.47441 0.0
C456 C 0.64555 0.32774 0.60498 0.0
C457 C 0.62789 0.33344 0.61691 0.0
C458 C 0.64754 0.34921 0.52356 0.0
C459 C 0.62067 0.3473 0.58139 0.0
C460 C 0.65236 0.37514 0.45362 0.0
C461 C 0.68179 0.35759 0.40433 0.0
N462 N 0.63051 0.35472 0.53653 0.0
N463 N 0.67198 0.34979 0.44881 0.0
H464 H 0.31048 0.25006 0.17885 0.0
H465 H 0.24034 0.17867 0.31213 0.0
H466 H 0.29937 0.24423 0.3679 0.0
H467 H 0.25376 0.18253 0.1242 0.0
H468 H 0.26024 0.20412 0.33265 0.0
H469 H 0.28812 0.22684 0.15734 0.0
C470 C 0.30328 0.24397 0.21587 0.0
C471 C 0.30689 0.24905 0.27533 0.0
C472 C 0.25879 0.19945 0.28689 0.0
C473 C 0.28126 0.22238 0.25094 0.0
C474 C 0.2474 0.18491 0.27509 0.0
C475 C 0.24544 0.17837 0.21636 0.0
C476 C 0.26831 0.20753 0.23962 0.0
C477 C 0.25491 0.18705 0.17019 0.0
C478 C 0.29052 0.23068 0.20352 0.0
C479 C 0.29709 0.2407 0.3214 0.0
N480 N 0.26597 0.20114 0.18286 0.0
N481 N 0.28478 0.22773 0.30824 0.0
H482 H 0.76397 0.312 0.38666 0.0
H483 H 0.80363 0.24122 0.15042 0.0
H484 H 0.74092 0.30255 0.21155 0.0
H485 H 0.82533 0.24895 0.32833 0.0
H486 H 0.77976 0.26275 0.17359 0.0
H487 H 0.78577 0.288 0.36787 0.0
C488 C 0.76343 0.30482 0.34439 0.0
C489 C 0.75066 0.30936 0.30047 0.0
C490 C 0.7897 0.25967 0.20767 0.0
C491 C 0.77562 0.28193 0.27857 0.0
C492 C 0.80334 0.24738 0.19445 0.0
C493 C 0.81656 0.24334 0.23739 0.0
C494 C 0.7893 0.26805 0.26418 0.0
C495 C 0.81547 0.2517 0.29376 0.0
C496 C 0.77588 0.29112 0.33367 0.0
C497 C 0.75056 0.29956 0.24661 0.0
N498 N 0.80213 0.26372 0.30541 0.0
N499 N 0.76291 0.28638 0.23707 0.0
H500 H 0.74276 0.7995 0.12577 0.0
H501 H 0.68745 0.7494 0.38419 0.0
H502 H 0.7525 0.80727 0.31499 0.0
H503 H 0.67885 0.7401 0.19512 0.0
H504 H 0.71263 0.7692 0.35963 0.0
H505 H 0.72065 0.77626 0.1501 0.0
C506 C 0.74035 0.79624 0.17242 0.0
C507 C 0.74941 0.80545 0.21842 0.0
C508 C 0.70531 0.76275 0.3235 0.0
C509 C 0.72405 0.77891 0.2466 0.0
C510 C 0.69091 0.75143 0.33751 0.0
C511 C 0.68093 0.74317 0.29163 0.0
C512 C 0.70973 0.7659 0.26316 0.0
C513 C 0.6861 0.74625 0.23196 0.0
C514 C 0.72771 0.78297 0.18629 0.0
C515 C 0.74578 0.8006 0.27805 0.0
N516 N 0.70007 0.75746 0.21944 0.0
N517 N 0.7333 0.78775 0.2904 0.0
H518 H 0.23616 0.66201 0.3083 0.0
H519 H 0.213 0.76389 0.22084 0.0
H520 H 0.27627 0.7038 0.29156 0.0
H521 H 0.17452 0.72041 0.21013 0.0
H522 H 0.23608 0.74236 0.25155 0.0
H523 H 0.213 0.68363 0.27867 0.0
C524 C 0.24009 0.67575 0.29876 0.0
C525 C 0.2582 0.68109 0.3023 0.0
C526 C 0.2226 0.73752 0.24229 0.0
C527 C 0.23176 0.70588 0.26809 0.0
C528 C 0.20941 0.74981 0.22469 0.0
C529 C 0.19179 0.74395 0.21288 0.0
C530 C 0.21813 0.71925 0.24854 0.0
C531 C 0.18793 0.72553 0.21865 0.0
C532 C 0.22687 0.68807 0.28157 0.0
C533 C 0.26249 0.69907 0.28929 0.0
N534 N 0.20098 0.71384 0.2363 0.0
N535 N 0.24937 0.71081 0.27274 0.0
H536 H 0.24763 0.82137 0.66634 0.0
H537 H 0.32566 0.76104 0.81116 0.0
H538 H 0.25923 0.81974 0.85606 0.0
H539 H 0.31288 0.76107 0.62219 0.0
H540 H 0.30217 0.78343 0.82777 0.0
H541 H 0.27221 0.80021 0.64876 0.0
C542 C 0.25536 0.8166 0.70435 0.0
C543 C 0.25132 0.82232 0.76284 0.0
C544 C 0.30451 0.77858 0.78264 0.0
C545 C 0.27951 0.79804 0.74293 0.0
C546 C 0.31795 0.76578 0.77306 0.0
C547 C 0.32123 0.75911 0.71517 0.0
C548 C 0.29424 0.7848 0.73399 0.0
C549 C 0.3108 0.7658 0.66759 0.0
C550 C 0.26941 0.8045 0.69423 0.0
C551 C 0.26184 0.81568 0.81026 0.0
N552 N 0.29775 0.77825 0.67809 0.0
N553 N 0.27543 0.80387 0.79925 0.0
H554 H 0.24806 0.30524 0.63541 0.0
H555 H 0.18935 0.25476 0.88365 0.0
H556 H 0.2408 0.32525 0.81565 0.0
H557 H 0.1999 0.2331 0.70738 0.0
H558 H 0.20993 0.2796 0.86225 0.0
H559 H 0.23218 0.27772 0.66331 0.0
C560 C 0.24322 0.30381 0.68098 0.0
C561 C 0.24562 0.31764 0.72312 0.0
C562 C 0.20786 0.26933 0.82844 0.0
C563 C 0.22735 0.28618 0.75532 0.0
C564 C 0.19611 0.25514 0.84064 0.0
C565 C 0.19276 0.24192 0.79701 0.0
C566 C 0.21624 0.27038 0.77209 0.0
C567 C 0.20198 0.24305 0.74222 0.0
C568 C 0.23417 0.28807 0.69691 0.0
C569 C 0.23917 0.31498 0.7816 0.0
N570 N 0.21317 0.25712 0.73113 0.0
N571 N 0.2302 0.29962 0.79584 0.0
H572 H 0.6904 0.26085 0.82311 0.0
H573 H 0.74652 0.18153 0.66768 0.0
H574 H 0.6849 0.24607 0.63666 0.0
H575 H 0.75033 0.19476 0.85587 0.0
H576 H 0.72499 0.20603 0.65449 0.0
H577 H 0.71339 0.23764 0.83492 0.0
C578 C 0.69405 0.25276 0.78457 0.0
C579 C 0.68565 0.25539 0.72882 0.0
C580 C 0.73056 0.20361 0.69865 0.0
C581 C 0.712 0.22874 0.74211 0.0
C582 C 0.74288 0.18962 0.70625 0.0
C583 C 0.75021 0.18603 0.76305 0.0
C584 C 0.72551 0.21413 0.74821 0.0
C585 C 0.745 0.197 0.81131 0.0
C586 C 0.70719 0.23949 0.79139 0.0
C587 C 0.69098 0.2445 0.68049 0.0
N588 N 0.73293 0.21053 0.8028 0.0
N589 N 0.70378 0.23164 0.6883 0.0
H590 H 0.73845 0.68954 0.81022 0.0
H591 H 0.81739 0.75431 0.6957 0.0
H592 H 0.75379 0.69474 0.62428 0.0
H593 H 0.80528 0.74507 0.88255 0.0
H594 H 0.79197 0.73514 0.668 0.0
H595 H 0.76063 0.71248 0.83658 0.0
C596 C 0.74638 0.69559 0.77482 0.0
C597 C 0.74435 0.69008 0.71497 0.0
C598 C 0.79481 0.73738 0.71505 0.0
C599 C 0.76984 0.71635 0.74495 0.0
C600 C 0.80932 0.74835 0.73094 0.0
C601 C 0.81357 0.75119 0.79158 0.0
C602 C 0.78446 0.72919 0.7601 0.0
C603 C 0.80258 0.74317 0.83525 0.0
C604 C 0.75907 0.70868 0.78997 0.0
C605 C 0.75497 0.69848 0.67104 0.0
N606 N 0.7886 0.73246 0.81864 0.0
N607 N 0.76732 0.71112 0.68697 0.0
loop_
_geom_bond_atom_site_label_1
_geom_bond_atom_site_label_2
_geom_bond_distance
_geom_bond_site_symmetry_2
_ccdc_geom_bond_type
O0 Cd1 2.300 . S
O0 C7 1.275 . S
Cd1 O0 2.300 . S
Cd1 O9 2.381 . S
Cd1 O10 2.378 . S
O2 Cd3 2.385 . S
O2 C7 1.255 . S
Cd3 O2 2.385 . S
Cd3 O4 2.317 . S
O4 Cd3 2.317 . S
O4 C5 1.232 . S
C5 O4 1.232 . S
C5 O6 1.218 . S
O6 C5 1.218 . S
C7 O0 1.275 . S
C7 O2 1.255 . S
C8 O9 1.258 . S
C8 O10 1.256 . S
O9 Cd1 2.381 . S
O9 C8 1.258 . S
O10 Cd1 2.378 . S
O10 C8 1.256 . S
O11 Cd12 2.300 . S
O11 C18 1.275 . S
Cd12 O11 2.300 . S
Cd12 O20 2.381 . S
Cd12 O21 2.378 . S
O13 Cd14 2.385 . S
O13 C18 1.255 . S
Cd14 O13 2.385 . S
Cd14 O15 2.317 . S
O15 Cd14 2.317 . S
O15 C16 1.232 . S
C16 O15 1.232 . S
C16 O17 1.218 . S
O17 C16 1.218 . S
C18 O11 1.275 . S
C18 O13 1.255 . S
C19 O20 1.258 . S
C19 O21 1.256 . S
O20 Cd12 2.381 . S
O20 C19 1.258 . S
O21 Cd12 2.378 . S
O21 C19 1.256 . S
O22 Cd23 2.300 . S
O22 C29 1.275 . S
Cd23 O22 2.300 . S
Cd23 O31 2.381 . S
Cd23 O32 2.378 . S
O24 Cd25 2.385 . S
O24 C29 1.255 . S
Cd25 O24 2.385 . S
Cd25 O26 2.317 . S
O26 Cd25 2.317 . S
O26 C27 1.232 . S
C27 O26 1.232 . S
C27 O28 1.218 . S
O28 C27 1.218 . S
C29 O22 1.275 . S
C29 O24 1.255 . S
C30 O31 1.258 . S
C30 O32 1.256 . S
O31 Cd23 2.381 . S
O31 C30 1.258 . S
O32 Cd23 2.378 . S
O32 C30 1.256 . S
O33 Cd34 2.300 . S
O33 C40 1.275 . S
Cd34 O33 2.300 . S
Cd34 O42 2.381 . S
Cd34 O43 2.378 . S
O35 Cd36 2.385 . S
O35 C40 1.255 . S
Cd36 O35 2.385 . S
Cd36 O37 2.317 . S
O37 Cd36 2.317 . S
O37 C38 1.232 . S
C38 O37 1.232 . S
C38 O39 1.218 . S
O39 C38 1.218 . S
C40 O33 1.275 . S
C40 O35 1.255 . S
C41 O42 1.258 . S
C41 O43 1.256 . S
O42 Cd34 2.381 . S
O42 C41 1.258 . S
O43 Cd34 2.378 . S
O43 C41 1.256 . S
O44 Cd45 2.300 . S
O44 C51 1.275 . S
Cd45 O44 2.300 . S
Cd45 O53 2.381 . S
Cd45 O54 2.378 . S
O46 Cd47 2.385 . S
O46 C51 1.255 . S
Cd47 O46 2.385 . S
Cd47 O48 2.317 . S
O48 Cd47 2.317 . S
O48 C49 1.232 . S
C49 O48 1.232 . S
C49 O50 1.218 . S
O50 C49 1.218 . S
C51 O44 1.275 . S
C51 O46 1.255 . S
C52 O53 1.258 . S
C52 O54 1.256 . S
O53 Cd45 2.381 . S
O53 C52 1.258 . S
O54 Cd45 2.378 . S
O54 C52 1.256 . S
O55 Cd56 2.300 . S
O55 C62 1.275 . S
Cd56 O55 2.300 . S
Cd56 O64 2.381 . S
Cd56 O65 2.378 . S
O57 Cd58 2.385 . S
O57 C62 1.255 . S
Cd58 O57 2.385 . S
Cd58 O59 2.317 . S
O59 Cd58 2.317 . S
O59 C60 1.232 . S
C60 O59 1.232 . S
C60 O61 1.218 . S
O61 C60 1.218 . S
C62 O55 1.275 . S
C62 O57 1.255 . S
C63 O64 1.258 . S
C63 O65 1.256 . S
O64 Cd56 2.381 . S
O64 C63 1.258 . S
O65 Cd56 2.378 . S
O65 C63 1.256 . S
O66 Cd67 2.300 . S
O66 C73 1.275 . S
Cd67 O66 2.300 . S
Cd67 O75 2.381 . S
Cd67 O76 2.378 . S
O68 Cd69 2.385 . S
O68 C73 1.255 . S
Cd69 O68 2.385 . S
Cd69 O70 2.317 . S
O70 Cd69 2.317 . S
O70 C71 1.232 . S
C71 O70 1.232 . S
C71 O72 1.218 . S
O72 C71 1.218 . S
C73 O66 1.275 . S
C73 O68 1.255 . S
C74 O75 1.258 . S
C74 O76 1.256 . S
O75 Cd67 2.381 . S
O75 C74 1.258 . S
O76 Cd67 2.378 . S
O76 C74 1.256 . S
O77 Cd78 2.300 . S
O77 C84 1.275 . S
Cd78 O77 2.300 . S
Cd78 O86 2.381 . S
Cd78 O87 2.378 . S
O79 Cd80 2.385 . S
O79 C84 1.255 . S
Cd80 O79 2.385 . S
Cd80 O81 2.317 . S
O81 Cd80 2.317 . S
O81 C82 1.232 . S
C82 O81 1.232 . S
C82 O83 1.218 . S
O83 C82 1.218 . S
C84 O77 1.275 . S
C84 O79 1.255 . S
C85 O86 1.258 . S
C85 O87 1.256 . S
O86 Cd78 2.381 . S
O86 C85 1.258 . S
O87 Cd78 2.378 . S
O87 C85 1.256 . S
O88 Cd89 2.300 . S
O88 C95 1.275 . S
Cd89 O88 2.300 . S
Cd89 O97 2.381 . S
Cd89 O98 2.378 . S
O90 Cd91 2.385 . S
O90 C95 1.255 . S
Cd91 O90 2.385 . S
Cd91 O92 2.317 . S
O92 Cd91 2.317 . S
O92 C93 1.232 . S
C93 O92 1.232 . S
C93 O94 1.218 . S
O94 C93 1.218 . S
C95 O88 1.275 . S
C95 O90 1.255 . S
C96 O97 1.258 . S
C96 O98 1.256 . S
O97 Cd89 2.381 . S
O97 C96 1.258 . S
O98 Cd89 2.378 . S
O98 C96 1.256 . S
O99 Cd100 2.300 . S
O99 C106 1.275 . S
Cd100 O99 2.300 . S
Cd100 O108 2.381 . S
Cd100 O109 2.378 . S
O101 Cd102 2.385 . S
O101 C106 1.255 . S
Cd102 O101 2.385 . S
Cd102 O103 2.317 . S
O103 Cd102 2.317 . S
O103 C104 1.232 . S
C104 O103 1.232 . S
C104 O105 1.218 . S
O105 C104 1.218 . S
C106 O99 1.275 . S
C106 O101 1.255 . S
C107 O108 1.258 . S
C107 O109 1.256 . S
O108 Cd100 2.381 . S
O108 C107 1.258 . S
O109 Cd100 2.378 . S
O109 C107 1.256 . S
O110 Cd111 2.300 . S
O110 C117 1.275 . S
Cd111 O110 2.300 . S
Cd111 O119 2.381 . S
Cd111 O120 2.378 . S
O112 Cd113 2.385 . S
O112 C117 1.255 . S
Cd113 O112 2.385 . S
Cd113 O114 2.317 . S
O114 Cd113 2.317 . S
O114 C115 1.232 . S
C115 O114 1.232 . S
C115 O116 1.218 . S
O116 C115 1.218 . S
C117 O110 1.275 . S
C117 O112 1.255 . S
C118 O119 1.258 . S
C118 O120 1.256 . S
O119 Cd111 2.381 . S
O119 C118 1.258 . S
O120 Cd111 2.378 . S
O120 C118 1.256 . S
O121 Cd122 2.300 . S
O121 C128 1.275 . S
Cd122 O121 2.300 . S
Cd122 O130 2.381 . S
Cd122 O131 2.378 . S
O123 Cd124 2.385 . S
O123 C128 1.255 . S
Cd124 O123 2.385 . S
Cd124 O125 2.317 . S
O125 Cd124 2.317 . S
O125 C126 1.232 . S
C126 O125 1.232 . S
C126 O127 1.218 . S
O127 C126 1.218 . S
C128 O121 1.275 . S
C128 O123 1.255 . S
C129 O130 1.258 . S
C129 O131 1.256 . S
O130 Cd122 2.381 . S
O130 C129 1.258 . S
O131 Cd122 2.378 . S
O131 C129 1.256 . S
O132 Cd133 2.300 . S
O132 C139 1.275 . S
Cd133 O132 2.300 . S
Cd133 O141 2.381 . S
Cd133 O142 2.378 . S
O134 Cd135 2.385 . S
O134 C139 1.255 . S
Cd135 O134 2.385 . S
Cd135 O136 2.317 . S
O136 Cd135 2.317 . S
O136 C137 1.232 . S
C137 O136 1.232 . S
C137 O138 1.218 . S
O138 C137 1.218 . S
C139 O132 1.275 . S
C139 O134 1.255 . S
C140 O141 1.258 . S
C140 O142 1.256 . S
O141 Cd133 2.381 . S
O141 C140 1.258 . S
O142 Cd133 2.378 . S
O142 C140 1.256 . S
O143 Cd144 2.300 . S
O143 C150 1.275 . S
Cd144 O143 2.300 . S
Cd144 O152 2.381 . S
Cd144 O153 2.378 . S
O145 Cd146 2.385 . S
O145 C150 1.255 . S
Cd146 O145 2.385 . S
Cd146 O147 2.317 . S
O147 Cd146 2.317 . S
O147 C148 1.232 . S
C148 O147 1.232 . S
C148 O149 1.218 . S
O149 C148 1.218 . S
C150 O143 1.275 . S
C150 O145 1.255 . S
C151 O152 1.258 . S
C151 O153 1.256 . S
O152 Cd144 2.381 . S
O152 C151 1.258 . S
O153 Cd144 2.378 . S
O153 C151 1.256 . S
O154 Cd155 2.300 . S
O154 C161 1.275 . S
Cd155 O154 2.300 . S
Cd155 O163 2.381 . S
Cd155 O164 2.378 . S
O156 Cd157 2.385 . S
O156 C161 1.255 . S
Cd157 O156 2.385 . S
Cd157 O158 2.317 . S
O158 Cd157 2.317 . S
O158 C159 1.232 . S
C159 O158 1.232 . S
C159 O160 1.218 . S
O160 C159 1.218 . S
C161 O154 1.275 . S
C161 O156 1.255 . S
C162 O163 1.258 . S
C162 O164 1.256 . S
O163 Cd155 2.381 . S
O163 C162 1.258 . S
O164 Cd155 2.378 . S
O164 C162 1.256 . S
O165 Cd166 2.300 . S
O165 C172 1.275 . S
Cd166 O165 2.300 . S
Cd166 O174 2.381 . S
Cd166 O175 2.378 . S
O167 Cd168 2.385 . S
O167 C172 1.255 . S
Cd168 O167 2.385 . S
Cd168 O169 2.317 . S
O169 Cd168 2.317 . S
O169 C170 1.232 . S
C170 O169 1.232 . S
C170 O171 1.218 . S
O171 C170 1.218 . S
C172 O165 1.275 . S
C172 O167 1.255 . S
C173 O174 1.258 . S
C173 O175 1.256 . S
O174 Cd166 2.381 . S
O174 C173 1.258 . S
O175 Cd166 2.378 . S
O175 C173 1.256 . S
H176 C182 0.930 . S
H177 C186 0.930 . S
H178 C191 0.929 . S
H179 C189 0.929 . S
H180 C184 0.929 . S
H181 C190 0.929 . S
C182 H176 0.930 . S
C182 C183 1.367 . S
C182 C190 1.378 . S
C183 C182 1.367 . S
C183 C191 1.433 . S
C184 H180 0.929 . S
C184 C186 1.378 . S
C184 C188 1.350 . S
C185 C188 1.463 1_566 S
C185 C190 1.350 . S
C185 N193 1.427 . S
C186 H177 0.930 . S
C186 C184 1.378 . S
C186 C187 1.367 . S
C187 C186 1.367 . S
C187 C189 1.433 . S
C188 C184 1.350 . S
C188 C185 1.463 1_544 S
C188 N192 1.427 . S
C189 H179 0.929 . S
C189 C187 1.433 . S
C189 N192 1.384 . S
C190 H181 0.929 . S
C190 C182 1.378 . S
C190 C185 1.350 . S
C191 H178 0.929 . S
C191 C183 1.433 . S
C191 N193 1.384 . S
N192 C188 1.427 . S
N192 C189 1.384 . S
N193 C185 1.427 . S
N193 C191 1.384 . S
H194 C200 0.930 . S
H195 C204 0.930 . S
H196 C209 0.929 . S
H197 C207 0.929 . S
H198 C202 0.929 . S
H199 C208 0.929 . S
C200 H194 0.930 . S
C200 C201 1.367 . S
C200 C208 1.378 . S
C201 C200 1.367 . S
C201 C209 1.433 1_554 S
C202 H198 0.929 . S
C202 C204 1.378 . S
C202 C206 1.350 . S
C203 C206 1.463 1_654 S
C203 C208 1.350 . S
C203 N211 1.427 1_554 S
C204 H195 0.930 . S
C204 C202 1.378 . S
C204 C205 1.367 . S
C205 C204 1.367 . S
C205 C207 1.433 1_556 S
C206 C202 1.350 . S
C206 C203 1.463 1_456 S
C206 N210 1.427 1_556 S
C207 H197 0.929 . S
C207 C205 1.433 1_554 S
C207 N210 1.384 . S
C208 H199 0.929 . S
C208 C200 1.378 . S
C208 C203 1.350 . S
C209 H196 0.929 . S
C209 C201 1.433 1_556 S
C209 N211 1.384 . S
N210 C206 1.427 1_554 S
N210 C207 1.384 . S
N211 C203 1.427 1_556 S
N211 C209 1.384 . S
H212 C218 0.930 1_554 S
H213 C222 0.930 1_556 S
H214 C227 0.929 . S
H215 C225 0.929 . S
H216 C220 0.929 . S
H217 C226 0.929 . S
C218 H212 0.930 1_556 S
C218 C219 1.367 . S
C218 C226 1.378 1_556 S
C219 C218 1.367 . S
C219 C227 1.433 . S
C220 H216 0.929 . S
C220 C222 1.378 1_556 S
C220 C224 1.350 1_556 S
C221 C224 1.463 1_546 S
C221 C226 1.350 1_556 S
C221 N229 1.427 . S
C222 H213 0.930 1_554 S
C222 C220 1.378 1_554 S
C222 C223 1.367 . S
C223 C222 1.367 . S
C223 C225 1.433 . S
C224 C220 1.350 1_554 S
C224 C221 1.463 1_564 S
C224 N228 1.427 . S
C225 H215 0.929 . S
C225 C223 1.433 . S
C225 N228 1.384 . S
C226 H217 0.929 . S
C226 C218 1.378 1_554 S
C226 C221 1.350 1_554 S
C227 H214 0.929 . S
C227 C219 1.433 . S
C227 N229 1.384 . S
N228 C224 1.427 . S
N228 C225 1.384 . S
N229 C221 1.427 . S
N229 C227 1.384 . S
H230 C236 0.930 1_556 S
H231 C240 0.930 1_554 S
H232 C245 0.929 . S
H233 C243 0.929 . S
H234 C238 0.929 . S
H235 C244 0.929 . S
C236 H230 0.930 1_554 S
C236 C237 1.367 . S
C236 C244 1.378 1_554 S
C237 C236 1.367 . S
C237 C245 1.433 . S
C238 H234 0.929 . S
C238 C240 1.378 1_554 S
C238 C242 1.350 1_554 S
C239 C242 1.463 1_454 S
C239 C244 1.350 1_554 S
C239 N247 1.427 . S
C240 H231 0.930 1_556 S
C240 C238 1.378 1_556 S
C240 C241 1.367 . S
C241 C240 1.367 . S
C241 C243 1.433 . S
C242 C238 1.350 1_556 S
C242 C239 1.463 1_656 S
C242 N246 1.427 . S
C243 H233 0.929 . S
C243 C241 1.433 . S
C243 N246 1.384 . S
C244 H235 0.929 . S
C244 C236 1.378 1_556 S
C244 C239 1.350 1_556 S
C245 H232 0.929 . S
C245 C237 1.433 . S
C245 N247 1.384 . S
N246 C242 1.427 . S
N246 C243 1.384 . S
N247 C239 1.427 . S
N247 C245 1.384 . S
H248 C254 0.930 . S
H249 C258 0.930 . S
H250 C263 0.929 . S
H251 C261 0.929 . S
H252 C256 0.929 . S
H253 C262 0.929 . S
C254 H248 0.930 . S
C254 C255 1.367 . S
C254 C262 1.378 . S
C255 C254 1.367 . S
C255 C263 1.433 . S
C256 H252 0.929 . S
C256 C258 1.378 . S
C256 C260 1.350 . S
C257 C260 1.463 . S
C257 C262 1.350 . S
C257 N265 1.427 . S
C258 H249 0.930 . S
C258 C256 1.378 . S
C258 C259 1.367 . S
C259 C258 1.367 . S
C259 C261 1.433 . S
C260 C256 1.350 . S
C260 C257 1.463 . S
C260 N264 1.427 . S
C261 H251 0.929 . S
C261 C259 1.433 . S
C261 N264 1.384 . S
C262 H253 0.929 . S
C262 C254 1.378 . S
C262 C257 1.350 . S
C263 H250 0.929 . S
C263 C255 1.433 . S
C263 N265 1.384 . S
N264 C260 1.427 . S
N264 C261 1.384 . S
N265 C257 1.427 . S
N265 C263 1.384 . S
H266 C272 0.930 . S
H267 C276 0.930 . S
H268 C281 0.929 . S
H269 C279 0.929 . S
H270 C274 0.929 . S
H271 C280 0.929 . S
C272 H266 0.930 . S
C272 C273 1.367 . S
C272 C280 1.378 . S
C273 C272 1.367 . S
C273 C281 1.433 . S
C274 H270 0.929 . S
C274 C276 1.378 . S
C274 C278 1.350 . S
C275 C278 1.463 . S
C275 C280 1.350 . S
C275 N283 1.427 . S
C276 H267 0.930 . S
C276 C274 1.378 . S
C276 C277 1.367 . S
C277 C276 1.367 . S
C277 C279 1.433 . S
C278 C274 1.350 . S
C278 C275 1.463 . S
C278 N282 1.427 . S
C279 H269 0.929 . S
C279 C277 1.433 . S
C279 N282 1.384 . S
C280 H271 0.929 . S
C280 C272 1.378 . S
C280 C275 1.350 . S
C281 H268 0.929 . S
C281 C273 1.433 . S
C281 N283 1.384 . S
N282 C278 1.427 . S
N282 C279 1.384 . S
N283 C275 1.427 . S
N283 C281 1.384 . S
H284 C290 0.930 . S
H285 C294 0.930 . S
H286 C299 0.929 . S
H287 C297 0.929 . S
H288 C292 0.929 . S
H289 C298 0.929 . S
C290 H284 0.930 . S
C290 C291 1.367 . S
C290 C298 1.378 . S
C291 C290 1.367 . S
C291 C299 1.433 . S
C292 H288 0.929 . S
C292 C294 1.378 . S
C292 C296 1.350 . S
C293 C296 1.463 . S
C293 C298 1.350 . S
C293 N301 1.427 . S
C294 H285 0.930 . S
C294 C292 1.378 . S
C294 C295 1.367 . S
C295 C294 1.367 . S
C295 C297 1.433 . S
C296 C292 1.350 . S
C296 C293 1.463 . S
C296 N300 1.427 . S
C297 H287 0.929 . S
C297 C295 1.433 . S
C297 N300 1.384 . S
C298 H289 0.929 . S
C298 C290 1.378 . S
C298 C293 1.350 . S
C299 H286 0.929 . S
C299 C291 1.433 . S
C299 N301 1.384 . S
N300 C296 1.427 . S
N300 C297 1.384 . S
N301 C293 1.427 . S
N301 C299 1.384 . S
H302 C308 0.930 . S
H303 C312 0.930 . S
H304 C317 0.929 . S
H305 C315 0.929 . S
H306 C310 0.929 . S
H307 C316 0.929 . S
C308 H302 0.930 . S
C308 C309 1.367 . S
C308 C316 1.378 . S
C309 C308 1.367 . S
C309 C317 1.433 . S
C310 H306 0.929 . S
C310 C312 1.378 . S
C310 C314 1.350 . S
C311 C314 1.463 . S
C311 C316 1.350 . S
C311 N319 1.427 . S
C312 H303 0.930 . S
C312 C310 1.378 . S
C312 C313 1.367 . S
C313 C312 1.367 . S
C313 C315 1.433 . S
C314 C310 1.350 . S
C314 C311 1.463 . S
C314 N318 1.427 . S
C315 H305 0.929 . S
C315 C313 1.433 . S
C315 N318 1.384 . S
C316 H307 0.929 . S
C316 C308 1.378 . S
C316 C311 1.350 . S
C317 H304 0.929 . S
C317 C309 1.433 . S
C317 N319 1.384 . S
N318 C314 1.427 . S
N318 C315 1.384 . S
N319 C311 1.427 . S
N319 C317 1.384 . S
H320 C326 0.930 . S
H321 C330 0.930 . S
H322 C335 0.929 . S
H323 C333 0.929 . S
H324 C328 0.937 . S
H325 C334 0.940 . S
C326 H320 0.930 . S
C326 C327 1.367 . S
C326 C334 1.370 1_554 S
C327 C326 1.367 . S
C327 C335 1.433 . S
C328 H324 0.937 . S
C328 C330 1.372 1_554 S
C328 C332 1.347 1_554 S
C329 C332 1.463 1_554 S
C329 C334 1.346 1_554 S
C329 N337 1.427 . S
C330 H321 0.930 . S
C330 C328 1.372 1_556 S
C330 C331 1.367 . S
C331 C330 1.367 . S
C331 C333 1.433 . S
C332 C328 1.347 1_556 S
C332 C329 1.463 1_556 S
C332 N336 1.427 . S
C333 H323 0.929 . S
C333 C331 1.433 . S
C333 N336 1.384 . S
C334 H325 0.940 . S
C334 C326 1.370 1_556 S
C334 C329 1.346 1_556 S
C335 H322 0.929 . S
C335 C327 1.433 . S
C335 N337 1.384 . S
N336 C332 1.427 . S
N336 C333 1.384 . S
N337 C329 1.427 . S
N337 C335 1.384 . S
H338 C344 0.930 . S
H339 C348 0.930 . S
H340 C353 0.929 . S
H341 C351 0.929 . S
H342 C346 0.929 . S
H343 C352 0.929 . S
C344 H338 0.930 . S
C344 C345 1.367 . S
C344 C352 1.378 1_556 S
C345 C344 1.367 . S
C345 C353 1.433 . S
C346 H342 0.929 . S
C346 C348 1.378 1_556 S
C346 C350 1.350 1_556 S
C347 C350 1.463 1_556 S
C347 C352 1.350 1_556 S
C347 N355 1.427 . S
C348 H339 0.930 . S
C348 C346 1.378 1_554 S
C348 C349 1.367 . S
C349 C348 1.367 . S
C349 C351 1.433 . S
C350 C346 1.350 1_554 S
C350 C347 1.463 1_554 S
C350 N354 1.427 . S
C351 H341 0.929 . S
C351 C349 1.433 . S
C351 N354 1.384 . S
C352 H343 0.929 . S
C352 C344 1.378 1_554 S
C352 C347 1.350 1_554 S
C353 H340 0.929 . S
C353 C345 1.433 . S
C353 N355 1.384 . S
N354 C350 1.427 . S
N354 C351 1.384 . S
N355 C347 1.427 . S
N355 C353 1.384 . S
H356 C362 0.930 . S
H357 C366 0.930 . S
H358 C371 0.929 . S
H359 C369 0.929 . S
H360 C364 0.929 . S
H361 C370 0.929 . S
C362 H356 0.930 . S
C362 C363 1.367 . S
C362 C370 1.378 . S
C363 C362 1.367 . S
C363 C371 1.433 . S
C364 H360 0.929 . S
C364 C366 1.378 . S
C364 C368 1.350 . S
C365 C368 1.463 1_554 S
C365 C370 1.350 . S
C365 N373 1.427 1_554 S
C366 H357 0.930 . S
C366 C364 1.378 . S
C366 C367 1.367 . S
C367 C366 1.367 . S
C367 C369 1.433 . S
C368 C364 1.350 . S
C368 C365 1.463 1_556 S
C368 N372 1.427 1_556 S
C369 H359 0.929 . S
C369 C367 1.433 . S
C369 N372 1.384 1_556 S
C370 H361 0.929 . S
C370 C362 1.378 . S
C370 C365 1.350 . S
C371 H358 0.929 . S
C371 C363 1.433 . S
C371 N373 1.384 1_554 S
N372 C368 1.427 1_554 S
N372 C369 1.384 1_554 S
N373 C365 1.427 1_556 S
N373 C371 1.384 1_556 S
H374 C380 0.930 1_556 S
H375 C384 0.930 1_554 S
H376 C389 0.929 . S
H377 C387 0.929 . S
H378 C382 0.929 . S
H379 C388 0.929 . S
C380 H374 0.930 1_554 S
C380 C381 1.367 . S
C380 C388 1.378 1_554 S
C381 C380 1.367 . S
C381 C389 1.433 . S
C382 H378 0.929 . S
C382 C384 1.378 1_554 S
C382 C386 1.350 1_554 S
C383 C386 1.463 1_554 S
C383 C388 1.350 1_554 S
C383 N391 1.427 . S
C384 H375 0.930 1_556 S
C384 C382 1.378 1_556 S
C384 C385 1.367 . S
C385 C384 1.367 . S
C385 C387 1.433 . S
C386 C382 1.350 1_556 S
C386 C383 1.463 1_556 S
C386 N390 1.427 . S
C387 H377 0.929 . S
C387 C385 1.433 . S
C387 N390 1.384 . S
C388 H379 0.929 . S
C388 C380 1.378 1_556 S
C388 C383 1.350 1_556 S
C389 H376 0.929 . S
C389 C381 1.433 . S
C389 N391 1.384 . S
N390 C386 1.427 . S
N390 C387 1.384 . S
N391 C383 1.427 . S
N391 C389 1.384 . S
H392 C398 0.930 . S
H393 C402 0.930 . S
H394 C407 0.929 . S
H395 C405 0.929 . S
H396 C400 0.929 . S
H397 C406 0.929 . S
C398 H392 0.930 . S
C398 C399 1.367 . S
C398 C406 1.378 . S
C399 C398 1.367 . S
C399 C407 1.433 . S
C400 H396 0.929 . S
C400 C402 1.378 . S
C400 C404 1.350 . S
C401 C404 1.463 . S
C401 C406 1.350 . S
C401 N409 1.427 . S
C402 H393 0.930 . S
C402 C400 1.378 . S
C402 C403 1.367 . S
C403 C402 1.367 . S
C403 C405 1.433 . S
C404 C400 1.350 . S
C404 C401 1.463 . S
C404 N408 1.427 . S
C405 H395 0.929 . S
C405 C403 1.433 . S
C405 N408 1.384 . S
C406 H397 0.929 . S
C406 C398 1.378 . S
C406 C401 1.350 . S
C407 H394 0.929 . S
C407 C399 1.433 . S
C407 N409 1.384 . S
N408 C404 1.427 . S
N408 C405 1.384 . S
N409 C401 1.427 . S
N409 C407 1.384 . S
H410 C416 0.930 . S
H411 C420 0.930 . S
H412 C425 0.929 . S
H413 C423 0.929 . S
H414 C418 0.929 . S
H415 C424 0.929 . S
C416 H410 0.930 . S
C416 C417 1.367 . S
C416 C424 1.378 . S
C417 C416 1.367 . S
C417 C425 1.433 . S
C418 H414 0.929 . S
C418 C420 1.378 . S
C418 C422 1.350 . S
C419 C422 1.463 . S
C419 C424 1.350 . S
C419 N427 1.427 . S
C420 H411 0.930 . S
C420 C418 1.378 . S
C420 C421 1.367 . S
C421 C420 1.367 . S
C421 C423 1.433 . S
C422 C418 1.350 . S
C422 C419 1.463 . S
C422 N426 1.427 . S
C423 H413 0.929 . S
C423 C421 1.433 . S
C423 N426 1.384 . S
C424 H415 0.929 . S
C424 C416 1.378 . S
C424 C419 1.350 . S
C425 H412 0.929 . S
C425 C417 1.433 . S
C425 N427 1.384 . S
N426 C422 1.427 . S
N426 C423 1.384 . S
N427 C419 1.427 . S
N427 C425 1.384 . S
H428 C434 0.930 . S
H429 C438 0.930 . S
H430 C443 0.929 . S
H431 C441 0.929 . S
H432 C436 0.929 . S
H433 C442 0.929 . S
C434 H428 0.930 . S
C434 C435 1.367 . S
C434 C442 1.378 . S
C435 C434 1.367 . S
C435 C443 1.433 . S
C436 H432 0.929 . S
C436 C438 1.378 . S
C436 C440 1.350 . S
C437 C440 1.463 . S
C437 C442 1.350 . S
C437 N445 1.427 . S
C438 H429 0.930 . S
C438 C436 1.378 . S
C438 C439 1.367 . S
C439 C438 1.367 . S
C439 C441 1.433 . S
C440 C436 1.350 . S
C440 C437 1.463 . S
C440 N444 1.427 . S
C441 H431 0.929 . S
C441 C439 1.433 . S
C441 N444 1.384 . S
C442 H433 0.929 . S
C442 C434 1.378 . S
C442 C437 1.350 . S
C443 H430 0.929 . S
C443 C435 1.433 . S
C443 N445 1.384 . S
N444 C440 1.427 . S
N444 C441 1.384 . S
N445 C437 1.427 . S
N445 C443 1.384 . S
H446 C452 0.930 . S
H447 C456 0.930 . S
H448 C461 0.929 . S
H449 C459 0.929 . S
H450 C454 0.929 . S
H451 C460 0.929 . S
C452 H446 0.930 . S
C452 C453 1.367 . S
C452 C460 1.378 . S
C453 C452 1.367 . S
C453 C461 1.433 . S
C454 H450 0.929 . S
C454 C456 1.378 . S
C454 C458 1.350 . S
C455 C458 1.463 . S
C455 C460 1.350 . S
C455 N463 1.427 . S
C456 H447 0.930 . S
C456 C454 1.378 . S
C456 C457 1.367 . S
C457 C456 1.367 . S
C457 C459 1.433 . S
C458 C454 1.350 . S
C458 C455 1.463 . S
C458 N462 1.427 . S
C459 H449 0.929 . S
C459 C457 1.433 . S
C459 N462 1.384 . S
C460 H451 0.929 . S
C460 C452 1.378 . S
C460 C455 1.350 . S
C461 H448 0.929 . S
C461 C453 1.433 . S
C461 N463 1.384 . S
N462 C458 1.427 . S
N462 C459 1.384 . S
N463 C455 1.427 . S
N463 C461 1.384 . S
H464 C470 0.930 . S
H465 C474 0.930 . S
H466 C479 0.929 . S
H467 C477 0.929 . S
H468 C472 0.929 . S
H469 C478 0.929 . S
C470 H464 0.930 . S
C470 C471 1.367 . S
C470 C478 1.378 . S
C471 C470 1.367 . S
C471 C479 1.433 . S
C472 H468 0.929 . S
C472 C474 1.378 . S
C472 C476 1.350 . S
C473 C476 1.463 . S
C473 C478 1.350 . S
C473 N481 1.427 . S
C474 H465 0.930 . S
C474 C472 1.378 . S
C474 C475 1.367 . S
C475 C474 1.367 . S
C475 C477 1.433 . S
C476 C472 1.350 . S
C476 C473 1.463 . S
C476 N480 1.427 . S
C477 H467 0.929 . S
C477 C475 1.433 . S
C477 N480 1.384 . S
C478 H469 0.929 . S
C478 C470 1.378 . S
C478 C473 1.350 . S
C479 H466 0.929 . S
C479 C471 1.433 . S
C479 N481 1.384 . S
N480 C476 1.427 . S
N480 C477 1.384 . S
N481 C473 1.427 . S
N481 C479 1.384 . S
H482 C488 0.930 . S
H483 C492 0.930 . S
H484 C497 0.929 . S
H485 C495 0.929 . S
H486 C490 0.929 . S
H487 C496 0.929 . S
C488 H482 0.930 . S
C488 C489 1.367 . S
C488 C496 1.378 . S
C489 C488 1.367 . S
C489 C497 1.433 . S
C490 H486 0.929 . S
C490 C492 1.378 . S
C490 C494 1.350 . S
C491 C494 1.463 . S
C491 C496 1.350 . S
C491 N499 1.427 . S
C492 H483 0.930 . S
C492 C490 1.378 . S
C492 C493 1.367 . S
C493 C492 1.367 . S
C493 C495 1.433 . S
C494 C490 1.350 . S
C494 C491 1.463 . S
C494 N498 1.427 . S
C495 H485 0.929 . S
C495 C493 1.433 . S
C495 N498 1.384 . S
C496 H487 0.929 . S
C496 C488 1.378 . S
C496 C491 1.350 . S
C497 H484 0.929 . S
C497 C489 1.433 . S
C497 N499 1.384 . S
N498 C494 1.427 . S
N498 C495 1.384 . S
N499 C491 1.427 . S
N499 C497 1.384 . S
H500 C506 0.930 . S
H501 C510 0.930 . S
H502 C515 0.929 . S
H503 C513 0.929 . S
H504 C508 0.929 . S
H505 C514 0.929 . S
C506 H500 0.930 . S
C506 C507 1.367 . S
C506 C514 1.378 . S
C507 C506 1.367 . S
C507 C515 1.433 . S
C508 H504 0.929 . S
C508 C510 1.378 . S
C508 C512 1.350 . S
C509 C512 1.463 . S
C509 C514 1.350 . S
C509 N517 1.427 . S
C510 H501 0.930 . S
C510 C508 1.378 . S
C510 C511 1.367 . S
C511 C510 1.367 . S
C511 C513 1.433 . S
C512 C508 1.350 . S
C512 C509 1.463 . S
C512 N516 1.427 . S
C513 H503 0.929 . S
C513 C511 1.433 . S
C513 N516 1.384 . S
C514 H505 0.929 . S
C514 C506 1.378 . S
C514 C509 1.350 . S
C515 H502 0.929 . S
C515 C507 1.433 . S
C515 N517 1.384 . S
N516 C512 1.427 . S
N516 C513 1.384 . S
N517 C509 1.427 . S
N517 C515 1.384 . S
H518 C524 0.930 . S
H519 C528 0.930 . S
H520 C533 0.929 . S
H521 C531 0.929 . S
H522 C526 0.929 . S
H523 C532 0.929 . S
C524 H518 0.930 . S
C524 C525 1.367 . S
C524 C532 1.378 . S
C525 C524 1.367 . S
C525 C533 1.433 . S
C526 H522 0.929 . S
C526 C528 1.378 . S
C526 C530 1.350 . S
C527 C530 1.463 . S
C527 C532 1.350 . S
C527 N535 1.427 . S
C528 H519 0.930 . S
C528 C526 1.378 . S
C528 C529 1.367 . S
C529 C528 1.367 . S
C529 C531 1.433 . S
C530 C526 1.350 . S
C530 C527 1.463 . S
C530 N534 1.427 . S
C531 H521 0.929 . S
C531 C529 1.433 . S
C531 N534 1.384 . S
C532 H523 0.929 . S
C532 C524 1.378 . S
C532 C527 1.350 . S
C533 H520 0.929 . S
C533 C525 1.433 . S
C533 N535 1.384 . S
N534 C530 1.427 . S
N534 C531 1.384 . S
N535 C527 1.427 . S
N535 C533 1.384 . S
H536 C542 0.930 . S
H537 C546 0.930 . S
H538 C551 0.929 . S
H539 C549 0.929 . S
H540 C544 0.929 . S
H541 C550 0.929 . S
C542 H536 0.930 . S
C542 C543 1.367 . S
C542 C550 1.378 . S
C543 C542 1.367 . S
C543 C551 1.433 . S
C544 H540 0.929 . S
C544 C546 1.378 . S
C544 C548 1.350 . S
C545 C548 1.463 . S
C545 C550 1.350 . S
C545 N553 1.427 . S
C546 H537 0.930 . S
C546 C544 1.378 . S
C546 C547 1.367 . S
C547 C546 1.367 . S
C547 C549 1.433 . S
C548 C544 1.350 . S
C548 C545 1.463 . S
C548 N552 1.427 . S
C549 H539 0.929 . S
C549 C547 1.433 . S
C549 N552 1.384 . S
C550 H541 0.929 . S
C550 C542 1.378 . S
C550 C545 1.350 . S
C551 H538 0.929 . S
C551 C543 1.433 . S
C551 N553 1.384 . S
N552 C548 1.427 . S
N552 C549 1.384 . S
N553 C545 1.427 . S
N553 C551 1.384 . S
H554 C560 0.930 . S
H555 C564 0.930 . S
H556 C569 0.929 . S
H557 C567 0.929 . S
H558 C562 0.929 . S
H559 C568 0.929 . S
C560 H554 0.930 . S
C560 C561 1.367 . S
C560 C568 1.378 . S
C561 C560 1.367 . S
C561 C569 1.433 . S
C562 H558 0.929 . S
C562 C564 1.378 . S
C562 C566 1.350 . S
C563 C566 1.463 . S
C563 C568 1.350 . S
C563 N571 1.427 . S
C564 H555 0.930 . S
C564 C562 1.378 . S
C564 C565 1.367 . S
C565 C564 1.367 . S
C565 C567 1.433 . S
C566 C562 1.350 . S
C566 C563 1.463 . S
C566 N570 1.427 . S
C567 H557 0.929 . S
C567 C565 1.433 . S
C567 N570 1.384 . S
C568 H559 0.929 . S
C568 C560 1.378 . S
C568 C563 1.350 . S
C569 H556 0.929 . S
C569 C561 1.433 . S
C569 N571 1.384 . S
N570 C566 1.427 . S
N570 C567 1.384 . S
N571 C563 1.427 . S
N571 C569 1.384 . S
H572 C578 0.930 . S
H573 C582 0.930 . S
H574 C587 0.929 . S
H575 C585 0.929 . S
H576 C580 0.929 . S
H577 C586 0.929 . S
C578 H572 0.930 . S
C578 C579 1.367 . S
C578 C586 1.378 . S
C579 C578 1.367 . S
C579 C587 1.433 . S
C580 H576 0.929 . S
C580 C582 1.378 . S
C580 C584 1.350 . S
C581 C584 1.463 . S
C581 C586 1.350 . S
C581 N589 1.427 . S
C582 H573 0.930 . S
C582 C580 1.378 . S
C582 C583 1.367 . S
C583 C582 1.367 . S
C583 C585 1.433 . S
C584 C580 1.350 . S
C584 C581 1.463 . S
C584 N588 1.427 . S
C585 H575 0.929 . S
C585 C583 1.433 . S
C585 N588 1.384 . S
C586 H577 0.929 . S
C586 C578 1.378 . S
C586 C581 1.350 . S
C587 H574 0.929 . S
C587 C579 1.433 . S
C587 N589 1.384 . S
N588 C584 1.427 . S
N588 C585 1.384 . S
N589 C581 1.427 . S
N589 C587 1.384 . S
H590 C596 0.930 . S
H591 C600 0.930 . S
H592 C605 0.929 . S
H593 C603 0.929 . S
H594 C598 0.929 . S
H595 C604 0.929 . S
C596 H590 0.930 . S
C596 C597 1.367 . S
C596 C604 1.378 . S
C597 C596 1.367 . S
C597 C605 1.433 . S
C598 H594 0.929 . S
C598 C600 1.378 . S
C598 C602 1.350 . S
C599 C602 1.463 . S
C599 C604 1.350 . S
C599 N607 1.427 . S
C600 H591 0.930 . S
C600 C598 1.378 . S
C600 C601 1.367 . S
C601 C600 1.367 . S
C601 C603 1.433 . S
C602 C598 1.350 . S
C602 C599 1.463 . S
C602 N606 1.427 . S
C603 H593 0.929 . S
C603 C601 1.433 . S
C603 N606 1.384 . S
C604 H595 0.929 . S
C604 C596 1.378 . S
C604 C599 1.350 . S
C605 H592 0.929 . S
C605 C597 1.433 . S
C605 N607 1.384 . S
N606 C602 1.427 . S
N606 C603 1.384 . S
N607 C599 1.427 . S
N607 C605 1.384 . S
C183 C52 1.558 . S
C187 C8 1.560 . S
C201 C19 1.562 . S
C205 C63 1.563 . S
C219 C74 1.552 . S
C223 C30 1.553 . S
C237 C41 1.554 . S
C241 C85 1.552 . S
C255 C96 1.552 . S
C259 C140 1.553 . S
C273 C151 1.552 . S
C277 C107 1.552 . S
C291 C162 1.552 . S
C295 C118 1.552 . S
C309 C129 1.556 . S
C313 C173 1.558 . S
C327 C7 1.457 . S
C331 C62 1.459 . S
C345 C73 1.457 . S
C349 C18 1.459 . S
C363 C29 1.469 . S
C367 C84 1.471 . S
C381 C40 1.456 . S
C385 C51 1.455 . S
C399 C95 1.463 . S
C403 C150 1.460 . S
C417 C161 1.471 . S
C421 C106 1.471 . S
C435 C117 1.469 . S
C439 C172 1.471 . S
C453 C139 1.462 . S
C457 C128 1.464 . S
C471 C170 1.317 . S
C475 C5 1.314 . S
C489 C137 1.290 . S
C493 C16 1.290 . S
C507 C27 1.290 . S
C511 C148 1.290 . S
C525 C159 1.307 . S
C529 C38 1.304 . S
C543 C49 1.319 . S
C547 C104 1.317 . S
C561 C115 1.290 . S
C565 C60 1.291 . S
C579 C126 1.318 . S
C583 C71 1.316 . S
C597 C93 1.318 . S
C601 C82 1.315 . S
