# Generated by pormake.
# Topology snw, (6)-cn, num edge types: 1
# Building blocks:
#     Node 0, Type 0, BuildingBlock: IZENUY_clean_sbu_0, # of connection points: 6
#     Node 1, Type 0, BuildingBlock: IZENUY_clean_sbu_0, # of connection points: 6
#     Node 2, Type 0, BuildingBlock: IZENUY_clean_sbu_0, # of connection points: 6
#     Node 3, Type 0, BuildingBlock: IZENUY_clean_sbu_0, # of connection points: 6
#     Node 4, Type 0, BuildingBlock: IZENUY_clean_sbu_0, # of connection points: 6
#     Node 5, Type 0, BuildingBlock: IZENUY_clean_sbu_0, # of connection points: 6
#     Node 6, Type 0, BuildingBlock: IZENUY_clean_sbu_0, # of connection points: 6
#     Node 7, Type 0, BuildingBlock: IZENUY_clean_sbu_0, # of connection points: 6
#     Edge 8, Type (0, 0), BuildingBlock: XUDNAN_clean_linker_2, # of connection points: 2
#     Edge 9, Type (0, 0), BuildingBlock: XUDNAN_clean_linker_2, # of connection points: 2
#     Edge 10, Type (0, 0), BuildingBlock: XUDNAN_clean_linker_2, # of connection points: 2
#     Edge 11, Type (0, 0), BuildingBlock: XUDNAN_clean_linker_2, # of connection points: 2
#     Edge 12, Type (0, 0), BuildingBlock: XUDNAN_clean_linker_2, # of connection points: 2
#     Edge 13, Type (0, 0), BuildingBlock: XUDNAN_clean_linker_2, # of connection points: 2
#     Edge 14, Type (0, 0), BuildingBlock: XUDNAN_clean_linker_2, # of connection points: 2
#     Edge 15, Type (0, 0), BuildingBlock: XUDNAN_clean_linker_2, # of connection points: 2
#     Edge 16, Type (0, 0), BuildingBlock: XUDNAN_clean_linker_2, # of connection points: 2
#     Edge 17, Type (0, 0), BuildingBlock: XUDNAN_clean_linker_2, # of connection points: 2
#     Edge 18, Type (0, 0), BuildingBlock: XUDNAN_clean_linker_2, # of connection points: 2
#     Edge 19, Type (0, 0), BuildingBlock: XUDNAN_clean_linker_2, # of connection points: 2
#     Edge 20, Type (0, 0), BuildingBlock: XUDNAN_clean_linker_2, # of connection points: 2
#     Edge 21, Type (0, 0), BuildingBlock: XUDNAN_clean_linker_2, # of connection points: 2
#     Edge 22, Type (0, 0), BuildingBlock: XUDNAN_clean_linker_2, # of connection points: 2
#     Edge 23, Type (0, 0), BuildingBlock: XUDNAN_clean_linker_2, # of connection points: 2
#     Edge 24, Type (0, 0), BuildingBlock: XUDNAN_clean_linker_2, # of connection points: 2
#     Edge 25, Type (0, 0), BuildingBlock: XUDNAN_clean_linker_2, # of connection points: 2
#     Edge 26, Type (0, 0), BuildingBlock: XUDNAN_clean_linker_2, # of connection points: 2
#     Edge 27, Type (0, 0), BuildingBlock: XUDNAN_clean_linker_2, # of connection points: 2
#     Edge 28, Type (0, 0), BuildingBlock: XUDNAN_clean_linker_2, # of connection points: 2
#     Edge 29, Type (0, 0), BuildingBlock: XUDNAN_clean_linker_2, # of connection points: 2
#     Edge 30, Type (0, 0), BuildingBlock: XUDNAN_clean_linker_2, # of connection points: 2
#     Edge 31, Type (0, 0), BuildingBlock: XUDNAN_clean_linker_2, # of connection points: 2
# Relax obj value: 0.015
# Max RMSD: 0.047
# Mean RMSD: 0.047
data_MOF--net-snw--node1-IZENUY_clean_sbu_0--edge1-XUDNAN_clean_linker_2
_symmetry_space_group_name_H-M    P1
_symmetry_Int_Tables_number       1
_symmetry_cell_setting            triclinic
loop_
_symmetry_equiv_pos_as_xyz
'x, y, z'
_cell_length_a     20.208668
_cell_length_b     20.314284
_cell_length_c     73.453924
_cell_angle_alpha  90.175037
_cell_angle_beta   90.072923
_cell_angle_gamma 90.141248
loop_
_atom_site_label
_atom_site_type_symbol
_atom_site_fract_x
_atom_site_fract_y
_atom_site_fract_z
_atom_type_partial_charge
Fe0 Fe 1.0122 0.29541 0.1322 0.0
Fe1 Fe 0.08839 0.26222 0.09732 0.0
O2 O 1.01201 0.27646 0.10857 0.0
Fe3 Fe 0.93596 0.272 0.09652 0.0
O4 O 0.91365 0.35549 0.10295 0.0
O5 O 0.93738 0.34547 0.13186 0.0
O6 O 0.0594 0.36973 0.12842 0.0
C7 C 0.11484 0.37084 0.1206 0.0
C8 C 0.90975 0.20836 0.13048 0.0
O9 O 0.13505 0.32214 0.11129 0.0
C10 C 1.00186 0.1692 0.08037 0.0
O11 O 0.08668 0.24862 0.1374 0.0
O12 O 0.10827 0.19389 0.11238 0.0
O13 O 0.88987 0.23512 0.11581 0.0
O14 O 0.96524 0.2225 0.13731 0.0
C15 C 0.02347 0.33687 0.07182 0.0
O16 O 0.05556 0.20138 0.08097 0.0
O17 O 0.95168 0.18859 0.08899 0.0
C18 C 0.11078 0.19898 0.1295 0.0
O19 O 0.0739 0.32869 0.08167 0.0
O20 O 0.96928 0.30764 0.07525 0.0
C21 C 0.90931 0.37588 0.11909 0.0
Fe22 Fe 0.02141 0.82262 0.3446 0.0
Fe23 Fe 0.01894 0.76178 0.38273 0.0
O24 O 0.01496 0.7523 0.35883 0.0
Fe25 Fe 1.00496 0.6723 0.34966 0.0
O26 O 0.05481 0.68759 0.32922 0.0
O27 O 0.09174 0.78895 0.33236 0.0
O28 O 0.08288 0.86461 0.35961 0.0
C29 C 0.12022 0.84087 0.37197 0.0
C30 C 0.92222 0.74311 0.32733 0.0
O31 O 0.10249 0.79135 0.38107 0.0
C32 C 0.91744 0.67503 0.3801 0.0
O33 O 0.95094 0.86288 0.35559 0.0
O34 O 0.98655 0.84553 0.38325 0.0
O35 O 0.92995 0.69575 0.33817 0.0
O36 O 0.96224 0.79153 0.32724 0.0
C37 C 0.08812 0.64307 0.37763 0.0
O38 O 0.93518 0.73167 0.38535 0.0
O39 O 0.95153 0.64342 0.36844 0.0
C40 C 0.94915 0.87562 0.37238 0.0
O41 O 0.05288 0.68036 0.38733 0.0
O42 O 0.0805 0.64231 0.3606 0.0
C43 C 0.09466 0.7331 0.32486 0.0
Fe44 Fe 0.59448 0.74469 0.5935 0.0
Fe45 Fe 0.44271 0.75004 0.59926 0.0
O46 O 0.52436 0.75117 0.60806 0.0
Fe47 Fe 0.53638 0.75872 0.63183 0.0
O48 O 0.57863 0.83616 0.62879 0.0
O49 O 0.64706 0.7997 0.60767 0.0
O50 O 0.57076 0.81746 0.58066 0.0
C51 C 0.51503 0.82623 0.57325 0.0
C52 C 0.63298 0.66756 0.62203 0.0
O53 O 0.46447 0.7939 0.57828 0.0
C54 C 0.43576 0.66948 0.63086 0.0
O55 O 0.55385 0.68962 0.57682 0.0
O56 O 0.4553 0.67091 0.5885 0.0
O57 O 0.61398 0.71343 0.63233 0.0
O58 O 0.62306 0.67053 0.60511 0.0
C59 C 0.42857 0.84287 0.62606 0.0
O60 O 0.40768 0.70424 0.61873 0.0
O61 O 0.49418 0.68179 0.63593 0.0
C62 C 0.50067 0.65634 0.57745 0.0
O63 O 0.42291 0.83018 0.60931 0.0
O64 O 0.46134 0.80525 0.63622 0.0
C65 C 0.62991 0.84309 0.61925 0.0
Fe66 Fe 0.51068 0.34047 0.84616 0.0
Fe67 Fe 0.53951 0.27208 0.88203 0.0
O68 O 0.52463 0.26725 0.85843 0.0
Fe69 Fe 0.52362 0.18941 0.84729 0.0
O70 O 0.59082 0.21337 0.83212 0.0
O71 O 0.549 0.30999 0.82514 0.0
O72 O 0.59154 0.3731 0.85235 0.0
C73 C 0.61032 0.38109 0.86857 0.0
C74 C 0.41816 0.26003 0.83047 0.0
O75 O 0.58024 0.35282 0.88144 0.0
C76 C 0.45757 0.16037 0.87882 0.0
O77 O 0.46889 0.38429 0.86506 0.0
O78 O 0.45956 0.30841 0.88611 0.0
O79 O 0.45982 0.21315 0.8303 0.0
O80 O 0.42986 0.31224 0.83924 0.0
C81 C 0.62956 0.17889 0.87311 0.0
O82 O 0.50179 0.19246 0.88721 0.0
O83 O 0.4558 0.16044 0.86164 0.0
C84 C 0.44077 0.36189 0.87921 0.0
O85 O 0.61998 0.23609 0.87919 0.0
O86 O 0.58743 0.15213 0.86246 0.0
C87 C 0.58986 0.26394 0.82213 0.0
Fe88 Fe 0.09459 0.77114 0.96055 0.0
Fe89 Fe 0.94529 0.75696 0.9551 0.0
O90 O 0.02556 0.76715 0.94572 0.0
Fe91 Fe 0.03671 0.77277 0.92172 0.0
O92 O 0.1159 0.72768 0.92153 0.0
O93 O 0.13021 0.69877 0.95014 0.0
O94 O 0.05921 0.71588 0.97759 0.0
C95 C 0.01599 0.67106 0.97599 0.0
C96 C 0.12811 0.86362 0.93312 0.0
O97 O 0.96734 0.67807 0.96535 0.0
C98 C 0.923 0.85039 0.9289 0.0
O99 O 0.06256 0.84381 0.97213 0.0
O100 O 0.96357 0.80188 0.9763 0.0
O101 O 0.07811 0.85194 0.92338 0.0
O102 O 0.14337 0.82631 0.9462 0.0
C103 C 0.93908 0.67963 0.92281 0.0
O104 O 0.91926 0.83484 0.94551 0.0
O105 O 0.95914 0.8185 0.91787 0.0
C106 C 1.00737 0.84448 0.98018 0.0
O107 O 0.91139 0.7107 0.93566 0.0
O108 O 0.99677 0.69424 0.91782 0.0
C109 C 0.14105 0.69002 0.9334 0.0
Fe110 Fe 0.5111 0.6955 0.20082 0.0
Fe111 Fe 0.51005 0.84263 0.21095 0.0
O112 O 0.51074 0.7793 0.1942 0.0
Fe113 Fe 0.51046 0.79978 0.1707 0.0
O114 O 0.43313 0.7566 0.16686 0.0
O115 O 0.46155 0.66643 0.18139 0.0
O116 O 0.4339 0.70457 0.2131 0.0
C117 C 0.423 0.74594 0.22558 0.0
C118 C 0.59733 0.6912 0.17215 0.0
O119 O 0.45956 0.79634 0.22745 0.0
C120 C 0.59736 0.89153 0.18366 0.0
O121 O 0.55986 0.70932 0.22155 0.0
O122 O 0.58695 0.81413 0.22118 0.0
O123 O 0.55853 0.72845 0.16352 0.0
O124 O 0.58863 0.68024 0.1889 0.0
C125 C 0.42319 0.89267 0.18584 0.0
O126 O 0.56048 0.90018 0.19744 0.0
O127 O 0.58758 0.84438 0.17279 0.0
C128 C 0.59602 0.75646 0.227 0.0
O129 O 0.43286 0.87573 0.20213 0.0
O130 O 0.46242 0.87498 0.17342 0.0
C131 C 0.42368 0.69672 0.17052 0.0
Fe132 Fe 0.58867 0.25758 0.45849 0.0
Fe133 Fe 0.43923 0.23599 0.45501 0.0
O134 O 0.51692 0.24995 0.44469 0.0
Fe135 Fe 0.52242 0.25614 0.42056 0.0
O136 O 0.57921 0.18677 0.41926 0.0
O137 O 0.64401 0.21973 0.44164 0.0
O138 O 0.57728 0.1755 0.46823 0.0
C139 C 0.52451 0.15636 0.47577 0.0
C140 C 0.61189 0.35382 0.43322 0.0
O141 O 0.47163 0.1887 0.47408 0.0
C142 C 0.40917 0.32584 0.42699 0.0
O143 O 0.54605 0.2976 0.47769 0.0
O144 O 0.4443 0.31232 0.46783 0.0
O145 O 0.59112 0.31536 0.42086 0.0
O146 O 0.60506 0.33969 0.44983 0.0
C147 C 0.43069 0.15287 0.42586 0.0
O148 O 0.39195 0.28086 0.43787 0.0
O149 O 0.46631 0.32629 0.42008 0.0
C150 C 0.4911 0.3275 0.47846 0.0
O151 O 0.42977 0.15862 0.44294 0.0
O152 O 0.45454 0.19778 0.4159 0.0
C153 C 0.6336 0.18399 0.42772 0.0
Fe154 Fe 0.01652 0.17668 0.70608 0.0
Fe155 Fe 0.02201 0.32766 0.70757 0.0
O156 O 0.02253 0.25379 0.69481 0.0
Fe157 Fe 0.02834 0.25716 0.67066 0.0
O158 O 0.94971 0.21608 0.66821 0.0
O159 O 0.96988 0.13576 0.68745 0.0
O160 O 0.9369 0.19756 0.7163 0.0
C161 C 0.92652 0.24905 0.72555 0.0
C162 C 0.1096 0.14943 0.6801 0.0
O163 O 0.96699 0.29664 0.72535 0.0
C164 C 0.11753 0.352 0.68017 0.0
O165 O 0.06201 0.20363 0.72666 0.0
O166 O 0.09499 0.30418 0.72019 0.0
O167 O 0.0746 0.17951 0.6685 0.0
O168 O 0.0955 0.15133 0.69682 0.0
C169 C 0.94176 0.36123 0.67902 0.0
O170 O 0.07731 0.37243 0.69211 0.0
O171 O 0.10735 0.29924 0.67155 0.0
C172 C 0.09995 0.25246 0.72952 0.0
O173 O 0.94832 0.35543 0.69598 0.0
O174 O 0.98295 0.3352 0.66825 0.0
C175 C 0.93582 0.16038 0.67463 0.0
H176 H 0.92647 0.40202 0.05198 0.0
H177 H 0.13802 0.36521 0.05434 0.0
H178 H 0.15506 0.43775 0.02814 0.0
H179 H 0.915 0.41512 1.00145 0.0
H180 H 0.85581 0.48129 1.0023 0.0
H181 H 0.85776 0.42073 1.02019 0.0
H182 H 0.87227 0.51337 0.04417 0.0
H183 H 0.87031 0.57412 0.02638 0.0
H184 H 0.9396 0.57112 0.04184 0.0
H185 H 0.15289 0.52056 1.00432 0.0
H186 H 0.13138 0.61211 0.98343 0.0
H187 H 0.92104 0.5979 0.99461 0.0
C188 C 0.97609 0.40836 0.04672 0.0
C189 C 0.03089 0.37768 0.05523 0.0
C190 C 0.09525 0.3882 0.04816 0.0
C191 C 0.1055 0.42909 0.03318 0.0
C192 C 0.05097 0.45937 1.02529 0.0
C193 C 0.98744 0.44976 0.03169 0.0
C194 C 0.93863 0.49256 1.02129 0.0
C195 C 0.88885 0.44986 1.01068 0.0
C196 C 0.90312 0.54064 0.03419 0.0
C197 C 0.98516 0.52869 1.00844 0.0
C198 C 0.04959 0.50791 1.011 0.0
C199 C 0.10259 0.53649 1.00192 0.0
C200 C 0.08983 0.5885 0.99007 0.0
C201 C 0.02456 0.61131 0.98717 0.0
C202 C 0.97121 0.58027 0.99624 0.0
H203 H 0.69149 0.84039 0.24172 0.0
H204 H 0.60716 0.64419 0.24684 0.0
H205 H 0.6795 0.62265 0.27293 0.0
H206 H 0.86017 0.7922 0.25331 0.0
H207 H 0.87797 0.86651 0.26588 0.0
H208 H 0.81926 0.86798 0.2474 0.0
H209 H 0.73058 0.91593 0.26908 0.0
H210 H 0.78888 0.91424 0.28766 0.0
H211 H 0.71037 0.87267 0.28974 0.0
H212 H 0.75568 0.62193 0.29883 0.0
H213 H 0.84024 0.63821 0.32226 0.0
H214 H 0.88251 0.83324 0.30084 0.0
C215 C 0.68849 0.79288 0.24831 0.0
C216 C 0.64319 0.74412 0.24216 0.0
C217 C 0.64119 0.68246 0.25115 0.0
C218 C 0.68202 0.66967 0.26609 0.0
C219 C 0.72535 0.71868 0.27189 0.0
C220 C 0.72973 0.7788 0.26325 0.0
C221 C 0.78209 0.82191 0.27231 0.0
C222 C 0.8382 0.83809 0.25893 0.0
C223 C 0.75111 0.88492 0.28016 0.0
C224 C 0.80586 0.77649 0.28739 0.0
C225 C 0.77173 0.71752 0.28685 0.0
C226 C 0.78317 0.66768 0.29935 0.0
C227 C 0.83148 0.67769 0.31269 0.0
C228 C 0.86871 0.737 0.31347 0.0
C229 C 0.85523 0.7873 0.30063 0.0
H230 H 0.59003 0.59201 0.55515 0.0
H231 H 0.38085 0.60324 0.56832 0.0
H232 H 0.35617 0.52186 0.54436 0.0
H233 H 0.57175 0.57425 0.50684 0.0
H234 H 0.63801 0.51568 0.50438 0.0
H235 H 0.64013 0.57511 0.52263 0.0
H236 H 0.6513 0.4811 0.54618 0.0
H237 H 0.64964 0.42139 0.528 0.0
H238 H 0.59092 0.41562 0.54638 0.0
H239 H 0.3527 0.44396 0.51794 0.0
H240 H 0.37222 0.36597 0.49268 0.0
H241 H 0.58381 0.39924 0.49753 0.0
C242 C 0.53909 0.57716 0.55303 0.0
C243 C 0.48743 0.60437 0.56363 0.0
C244 C 0.42144 0.58317 0.56047 0.0
C245 C 0.40677 0.53707 0.54681 0.0
C246 C 0.45861 0.51176 0.53651 0.0
C247 C 0.52355 0.53026 0.53958 0.0
C248 C 0.56996 0.49413 0.52678 0.0
C249 C 0.60715 0.5427 0.51443 0.0
C250 C 0.61831 0.45046 0.53747 0.0
C251 C 0.52083 0.45297 0.51598 0.0
C252 C 0.45682 0.46448 0.52171 0.0
C253 C 0.40267 0.43401 0.51344 0.0
C254 C 0.41423 0.38997 0.49905 0.0
C255 C 0.47952 0.37605 0.49322 0.0
C256 C 0.53339 0.40825 0.50182 0.0
H257 H 0.67734 0.17121 0.80791 0.0
H258 H 0.60218 0.36923 0.79959 0.0
H259 H 0.67414 0.38173 0.77299 0.0
H260 H 0.84495 0.20655 0.79588 0.0
H261 H 0.8591 0.12972 0.78419 0.0
H262 H 0.79926 0.13392 0.8023 0.0
H263 H 0.70915 0.08798 0.7806 0.0
H264 H 0.76871 0.0839 0.76238 0.0
H265 H 0.69296 0.12928 0.75937 0.0
H266 H 0.75789 0.37785 0.74895 0.0
H267 H 0.85032 0.35668 0.72799 0.0
H268 H 0.87123 0.15958 0.74975 0.0
C269 C 0.67575 0.21698 0.80041 0.0
C270 C 0.63362 0.26913 0.80592 0.0
C271 C 0.63347 0.32832 0.79572 0.0
C272 C 0.67421 0.33601 0.78052 0.0
C273 C 0.7149 0.28402 0.77546 0.0
C274 C 0.71616 0.22551 0.78499 0.0
C275 C 0.76645 0.17847 0.77671 0.0
C276 C 0.82065 0.16117 0.7906 0.0
C277 C 0.73226 0.11621 0.76932 0.0
C278 C 0.79381 0.22038 0.7613 0.0
C279 C 0.76293 0.28101 0.76094 0.0
C280 C 0.78176 0.33023 0.74887 0.0
C281 C 0.83423 0.31772 0.737 0.0
C282 C 0.86692 0.25621 0.73701 0.0
C283 C 0.84584 0.20641 0.74915 0.0
H284 H 0.38924 0.17666 0.80139 0.0
H285 H 0.31277 0.34245 0.83233 0.0
H286 H 0.22058 0.35275 0.81079 0.0
H287 H 0.35426 0.23933 0.75803 0.0
H288 H 0.32867 0.16248 0.74787 0.0
H289 H 0.38614 0.16263 0.76662 0.0
H290 H 0.30877 0.08524 0.78479 0.0
H291 H 0.25123 0.08437 0.76601 0.0
H292 H 0.22372 0.10843 0.78839 0.0
H293 H 0.1453 0.35533 0.78455 0.0
H294 H 0.08339 0.34311 0.75578 0.0
H295 H 0.20127 0.17236 0.7417 0.0
C296 C 0.35224 0.21409 0.80384 0.0
C297 C 0.35866 0.25891 0.81857 0.0
C298 C 0.30947 0.30774 0.82114 0.0
C299 C 0.25664 0.314 0.80898 0.0
C300 C 0.25283 0.27064 0.79434 0.0
C301 C 0.29848 0.22094 0.79178 0.0
C302 C 0.28345 0.18287 0.77438 0.0
C303 C 0.34159 0.18711 0.76093 0.0
C304 C 0.26573 0.11095 0.77865 0.0
C305 C 0.22353 0.22032 0.76739 0.0
C306 C 0.20705 0.27074 0.77922 0.0
C307 C 0.15683 0.31533 0.77533 0.0
C308 C 0.12223 0.30827 0.75894 0.0
C309 C 0.13739 0.25664 0.74671 0.0
C310 C 0.18824 0.2116 0.75103 0.0
H311 H 0.3806 0.82553 0.25372 0.0
H312 H 0.34561 0.63531 0.22824 0.0
H313 H 0.26 0.61096 0.25115 0.0
H314 H 0.35934 0.77281 0.30009 0.0
H315 H 0.31763 0.84691 0.30717 0.0
H316 H 0.37663 0.84966 0.28882 0.0
H317 H 0.28799 0.90076 0.26766 0.0
H318 H 0.22882 0.89842 0.28597 0.0
H319 H 0.20993 0.85904 0.26455 0.0
H320 H 0.17923 0.60624 0.27704 0.0
H321 H 0.1051 0.62353 0.30322 0.0
H322 H 0.19062 0.81765 0.31174 0.0
C323 C 0.35501 0.77871 0.25294 0.0
C324 C 0.37027 0.73225 0.23917 0.0
C325 C 0.33511 0.67176 0.23863 0.0
C326 C 0.28639 0.65736 0.25162 0.0
C327 C 0.27297 0.70399 0.26506 0.0
C328 C 0.30591 0.76361 0.26576 0.0
C329 C 0.28118 0.80551 0.28147 0.0
C330 C 0.33703 0.81953 0.2952 0.0
C331 C 0.25013 0.86973 0.27449 0.0
C332 C 0.22925 0.76007 0.28949 0.0
C333 C 0.22559 0.70166 0.27985 0.0
C334 C 0.18154 0.65185 0.28467 0.0
C335 C 0.13966 0.66216 0.29962 0.0
C336 C 0.14169 0.72203 0.3096 0.0
C337 C 0.18758 0.77136 0.30443 0.0
H338 H 0.61278 0.11209 0.50214 0.0
H339 H 0.42717 0.06653 0.47509 0.0
H340 H 0.40842 0.97467 0.49619 0.0
H341 H 0.65761 0.93789 0.51322 0.0
H342 H 0.69135 0.9597 0.53516 0.0
H343 H 0.6948 0.01773 0.51666 0.0
H344 H 0.63488 0.10402 0.5367 0.0
H345 H 0.6305 0.04606 0.55516 0.0
H346 H 0.55596 0.08367 0.54666 0.0
H347 H 0.4025 0.89666 0.52148 0.0
H348 H 0.41345 0.82893 0.54891 0.0
H349 H 0.60337 0.92076 0.56061 0.0
C350 C 0.56934 0.08139 0.50041 0.0
C351 C 0.52152 0.09602 0.48693 0.0
C352 C 0.46433 0.05602 0.48532 0.0
C353 C 0.45323 1.00372 0.49723 0.0
C354 C 0.49979 0.99176 0.51076 0.0
C355 C 0.5571 0.02869 0.5124 0.0
C356 C 0.59672 1.00679 0.52893 0.0
C357 C 0.66413 0.97886 0.52315 0.0
C358 C 0.60498 0.06352 0.54267 0.0
C359 C 0.55189 0.95302 0.53642 0.0
C360 C 0.49643 0.94544 0.52562 0.0
C361 C 0.44609 0.90141 0.52996 0.0
C362 C 0.45266 0.8634 0.54569 0.0
C363 C 0.50934 0.86917 0.55698 0.0
C364 C 0.5597 0.91473 0.55221 0.0
H365 H 0.08877 0.12763 0.05366 0.0
H366 H 0.89796 0.08315 0.07796 0.0
H367 H 0.88015 0.99569 0.05518 0.0
H368 H 0.03915 0.10524 1.00763 0.0
H369 H 0.11531 0.06754 1.00032 0.0
H370 H 0.11566 0.12468 1.01912 0.0
H371 H 0.17055 0.03706 0.03971 0.0
H372 H 0.17093 0.97983 1.02092 0.0
H373 H 0.13212 0.95737 0.0421 0.0
H374 H 0.87948 0.91763 0.02906 0.0
H375 H 0.89849 0.84849 1.00208 0.0
H376 H 0.0904 0.9412 0.9943 0.0
C377 C 0.04367 0.09886 0.05437 0.0
C378 C 0.99476 0.11248 0.06767 0.0
C379 C 0.93617 0.07397 0.06794 0.0
C380 C 0.92551 0.0241 0.05504 0.0
C381 C 0.97393 0.01298 0.04191 0.0
C382 C 0.03211 0.04874 0.04153 0.0
C383 C 0.07533 0.02734 1.02567 0.0
C384 C 0.08703 0.08462 1.0124 0.0
C385 C 0.14113 0.99869 0.03251 0.0
C386 C 0.03199 0.97438 1.01714 0.0
C387 C 0.97375 0.96715 0.02678 0.0
C388 C 0.92511 0.92246 1.02148 0.0
C389 C 0.93642 0.88346 1.00605 0.0
C390 C 0.99612 0.88896 0.99601 0.0
C391 C 0.04436 0.93549 1.00166 0.0
H392 H 0.38793 0.93339 0.1518 0.0
H393 H 0.33386 0.95246 0.2088 0.0
H394 H 0.24366 0.02844 0.20019 0.0
H395 H 0.362 0.09935 0.13967 0.0
H396 H 0.32934 0.08055 0.1174 0.0
H397 H 0.38711 0.02531 0.128 0.0
H398 H 0.30339 0.92929 0.12435 0.0
H399 H 0.24522 0.98428 0.11374 0.0
H400 H 0.22109 0.93765 0.1335 0.0
H401 H 0.16378 0.10617 0.1855 0.0
H402 H 0.09919 0.18052 0.16597 0.0
H403 H 0.20481 0.10918 0.11842 0.0
C404 C 0.35707 0.95321 0.16253 0.0
C405 C 0.36815 0.93718 0.18102 0.0
C406 C 0.32639 0.96414 0.19457 0.0
C407 C 0.27501 1.00716 0.1898 0.0
C408 C 0.26593 0.02216 0.17145 0.0
C409 C 0.30567 0.99583 0.15803 0.0
C410 C 0.28688 0.02115 0.13935 0.0
C411 C 0.34477 0.05883 0.1306 0.0
C412 C 0.2627 0.96472 0.12701 0.0
C413 C 0.23085 0.06691 0.14436 0.0
C414 C 0.21944 0.06648 0.16294 0.0
C415 C 0.17198 0.10659 0.17094 0.0
C416 C 0.13575 0.1488 0.15972 0.0
C417 C 0.14708 0.15067 0.14067 0.0
C418 C 0.19465 0.1084 0.13289 0.0
H419 H 0.15851 0.96988 0.36551 0.0
H420 H 0.2186 0.79013 0.39276 0.0
H421 H 0.31058 0.84919 0.40735 0.0
H422 H 0.33123 0.03552 0.35883 0.0
H423 H 0.30556 0.11915 0.36297 0.0
H424 H 0.24884 0.06122 0.35272 0.0
H425 H 0.16348 0.08587 0.3781 0.0
H426 H 0.22004 0.14325 0.38852 0.0
H427 H 0.18715 0.07575 0.4016 0.0
H428 H 0.38328 0.92916 0.42292 0.0
H429 H 0.4421 0.02531 0.43593 0.0
H430 H 0.34302 0.15308 0.39744 0.0
C431 C 0.1922 0.94267 0.37412 0.0
C432 C 0.18096 0.87547 0.37806 0.0
C433 C 0.2257 0.84176 0.38963 0.0
C434 C 0.27837 0.87477 0.39797 0.0
C435 C 0.28661 0.94141 0.39442 0.0
C436 C 0.24576 0.97495 0.38252 0.0
C437 C 0.26386 0.04747 0.38198 0.0
C438 C 0.28887 0.06698 0.36299 0.0
C439 C 0.20514 0.0906 0.38791 0.0
C440 C 0.31936 0.0495 0.39592 0.0
C441 C 0.33153 0.98763 0.4029 0.0
C442 C 0.37565 0.97763 0.41723 0.0
C443 C 0.40848 0.03235 0.4246 0.0
C444 C 0.39772 0.09587 0.41743 0.0
C445 C 0.35321 0.1045 0.40279 0.0
H446 H 0.12719 0.08811 0.64693 0.0
H447 H 0.21966 0.11981 0.69963 0.0
H448 H 0.31517 0.05311 0.68996 0.0
H449 H 0.17477 0.91998 0.64287 0.0
H450 H 0.18864 0.92262 0.61865 0.0
H451 H 0.12985 0.97769 0.62898 0.0
H452 H 0.19178 0.07733 0.61507 0.0
H453 H 0.25105 0.02252 0.60478 0.0
H454 H 0.2789 0.08802 0.61954 0.0
H455 H 0.39805 0.9821 0.67545 0.0
H456 H 0.46125 0.90089 0.65792 0.0
H457 H 0.3153 0.90879 0.61451 0.0
C458 C 0.16799 0.08152 0.65632 0.0
C459 C 0.16635 0.10938 0.674 0.0
C460 C 0.21991 0.09877 0.68605 0.0
C461 C 0.27454 0.06138 0.68064 0.0
C462 C 0.27463 0.03445 0.66318 0.0
C463 C 0.22267 0.04327 0.65122 0.0
C464 C 0.23359 1.00453 0.63374 0.0
C465 C 0.17844 0.95316 0.6309 0.0
C466 C 0.23917 0.05088 0.61731 0.0
C467 C 0.29946 0.97198 0.63789 0.0
C468 C 0.32232 0.99102 0.65486 0.0
C469 C 0.38079 0.96679 0.66214 0.0
C470 C 0.41622 0.92047 0.65205 0.0
C471 C 0.39306 0.89809 0.63487 0.0
C472 C 0.33451 0.92534 0.62751 0.0
H473 H 0.15393 0.91473 0.89909 0.0
H474 H 0.20847 0.93123 0.9561 0.0
H475 H 0.29501 0.01184 0.9482 0.0
H476 H 0.31699 0.9189 0.88202 0.0
H477 H 0.29829 0.9666 0.86202 0.0
H478 H 0.23549 0.91523 0.87205 0.0
H479 H 0.15756 0.01569 0.87504 0.0
H480 H 0.2199 0.06732 0.86484 0.0
H481 H 0.1861 0.08849 0.88678 0.0
H482 H 0.37907 0.08382 0.93446 0.0
H483 H 0.45655 0.14673 0.91565 0.0
H484 H 0.35164 0.08393 0.86685 0.0
C485 C 0.18316 0.93657 0.90991 0.0
C486 C 0.17432 0.91716 0.92824 0.0
C487 C 0.21447 0.9455 0.942 0.0
C488 C 0.26364 0.99136 0.93765 0.0
C489 C 0.27233 1.0082 0.91945 0.0
C490 C 0.23326 0.98209 0.90576 0.0
C491 C 0.25603 1.00613 0.88721 0.0
C492 C 0.27801 0.94826 0.87512 0.0
C493 C 0.20165 0.04684 0.87792 0.0
C494 C 0.31446 0.04904 0.89267 0.0
C495 C 0.32236 0.04959 0.91136 0.0
C496 C 0.37325 0.08419 0.91981 0.0
C497 C 0.41723 0.11967 0.90893 0.0
C498 C 0.41054 0.12034 0.88969 0.0
C499 C 0.35825 0.08437 0.88148 0.0
H500 H 0.8499 0.86073 0.89731 0.0
H501 H 0.9095 0.9677 0.94586 0.0
H502 H 0.848 0.06518 0.93522 0.0
H503 H 0.85106 0.99896 0.86561 0.0
H504 H 0.77719 0.97304 0.8538 0.0
H505 H 0.8302 0.91274 0.86426 0.0
H506 H 0.73109 0.86806 0.88286 0.0
H507 H 0.67775 0.92789 0.87237 0.0
H508 H 0.68383 0.92386 0.89683 0.0
H509 H 0.78349 0.15045 0.91953 0.0
H510 H 0.70488 0.21627 0.90208 0.0
H511 H 0.67514 0.05294 0.86449 0.0
C512 C 0.85023 0.90502 0.90556 0.0
C513 C 0.88483 0.90732 0.92232 0.0
C514 C 0.88327 0.96528 0.93299 0.0
C515 C 0.84889 0.02088 0.92701 0.0
C516 C 0.8153 0.01728 0.91046 0.0
C517 C 0.81444 0.96067 0.9 0.0
C518 C 0.76967 0.96895 0.88349 0.0
C519 C 0.80942 0.96307 0.86574 0.0
C520 C 0.71217 0.91924 0.88393 0.0
C521 C 0.74535 0.03893 0.88643 0.0
C522 C 0.77378 0.06592 0.90187 0.0
C523 C 0.7605 0.12982 0.90748 0.0
C524 C 0.71563 0.1669 0.89735 0.0
C525 C 0.68303 0.13988 0.88188 0.0
C526 C 0.69894 0.07506 0.87623 0.0
H527 H 0.92521 0.02538 0.67114 0.0
H528 H 0.82831 0.20892 0.65716 0.0
H529 H 0.74316 0.14745 0.64004 0.0
H530 H 0.8975 0.94626 0.62766 0.0
H531 H 0.88321 0.86581 0.63719 0.0
H532 H 0.93629 0.92362 0.64884 0.0
H533 H 0.86483 0.91323 0.67796 0.0
H534 H 0.81209 0.85481 0.66647 0.0
H535 H 0.77696 0.92767 0.67661 0.0
H536 H 0.66667 0.06721 0.62539 0.0
H537 H 0.60273 0.97141 0.61404 0.0
H538 H 0.75151 0.83954 0.63555 0.0
C539 C 0.88564 0.0524 0.66462 0.0
C540 C 0.8831 0.12188 0.66553 0.0
C541 C 0.83118 0.15569 0.6566 0.0
C542 C 0.78266 0.12126 0.64683 0.0
C543 C 0.7871 0.053 0.6459 0.0
C544 C 0.83716 0.01876 0.65451 0.0
C545 C 0.83046 0.94531 0.65112 0.0
C546 C 0.89044 0.9187 0.64057 0.0
C547 C 0.82047 0.90808 0.66911 0.0
C548 C 0.76837 0.94375 0.63948 0.0
C549 C 0.74425 1.00655 0.63668 0.0
C550 C 0.68551 0.01786 0.62724 0.0
C551 C 0.64974 0.96343 0.62079 0.0
C552 C 0.67343 0.89888 0.62355 0.0
C553 C 0.73379 0.88881 0.6328 0.0
H554 H 0.81911 0.91243 0.36602 0.0
H555 H 0.99731 0.96673 0.3955 0.0
H556 H 0.93649 0.05436 0.41145 0.0
H557 H 0.75017 0.08245 0.36221 0.0
H558 H 0.66627 0.0552 0.36582 0.0
H559 H 0.72508 1.00121 0.35501 0.0
H560 H 0.70071 0.91212 0.37924 0.0
H561 H 0.64246 0.96604 0.39025 0.0
H562 H 0.7104 0.93204 0.40303 0.0
H563 H 0.85696 0.12781 0.42629 0.0
H564 H 0.76249 0.18932 0.43846 0.0
H565 H 0.63193 0.09033 0.40001 0.0
C566 C 0.84538 0.94416 0.37546 0.0
C567 C 0.913 0.93335 0.37946 0.0
C568 C 0.94558 0.97444 0.39224 0.0
C569 C 0.9115 0.02435 0.40136 0.0
C570 C 0.84458 0.03263 0.39761 0.0
C571 C 0.81164 0.99431 0.3849 0.0
C572 C 0.73844 0.01168 0.38446 0.0
C573 C 0.71885 0.03929 0.36576 0.0
C574 C 0.69549 0.9519 0.38955 0.0
C575 C 0.73563 0.06468 0.39912 0.0
C576 C 0.7977 0.07584 0.4064 0.0
C577 C 0.80814 0.12018 0.42058 0.0
C578 C 0.75386 0.15467 0.42747 0.0
C579 C 0.68949 0.14501 0.42021 0.0
C580 C 0.68047 0.09927 0.40579 0.0
H581 H 0.64207 0.92617 0.14977 0.0
H582 H 0.66491 0.97099 0.20725 0.0
H583 H 0.74707 0.05706 0.1997 0.0
H584 H 0.81202 0.95192 0.13646 0.0
H585 H 0.79107 0.98996 0.11508 0.0
H586 H 0.736 0.93024 0.12503 0.0
H587 H 0.64028 0.01475 0.12385 0.0
H588 H 0.69512 0.07483 0.11397 0.0
H589 H 0.65069 0.09407 0.13456 0.0
H590 H 0.82842 0.13522 0.1861 0.0
H591 H 0.90003 0.20586 0.16725 0.0
H592 H 0.8191 0.11664 0.11828 0.0
C593 C 0.66486 0.95374 0.16077 0.0
C594 C 0.64769 0.94168 0.17913 0.0
C595 C 0.67751 0.97952 0.19312 0.0
C596 C 0.72421 0.02834 0.18896 0.0
C597 C 0.7397 0.03931 0.17073 0.0
C598 C 0.71061 1.00355 0.15683 0.0
C599 C 0.73437 0.0269 0.13835 0.0
C600 C 0.77052 0.97145 0.12813 0.0
C601 C 0.67667 0.05427 0.12702 0.0
C602 C 0.78179 0.08111 0.14404 0.0
C603 C 0.78445 0.08686 0.16279 0.0
C604 C 0.82641 0.13155 0.1714 0.0
C605 C 0.86697 0.1713 0.16058 0.0
C606 C 0.86467 0.16689 0.14134 0.0
C607 C 0.82105 0.12158 0.13296 0.0
H608 H 0.93019 0.42283 0.64563 0.0
H609 H 0.82608 0.3863 0.6963 0.0
H610 H 0.73174 0.45111 0.6853 0.0
H611 H 0.88037 0.58886 0.64127 0.0
H612 H 0.87118 0.58698 0.61686 0.0
H613 H 0.92861 0.53225 0.62781 0.0
H614 H 0.87068 0.43239 0.61257 0.0
H615 H 0.81277 0.48689 0.60163 0.0
H616 H 0.78297 0.42051 0.61566 0.0
H617 H 0.6531 0.52452 0.67047 0.0
H618 H 0.5944 0.60882 0.65286 0.0
H619 H 0.74595 0.60083 0.61112 0.0
C620 C 0.88712 0.42792 0.65427 0.0
C621 C 0.8855 0.39964 0.67187 0.0
C622 C 0.82871 0.408 0.68288 0.0
C623 C 0.77458 0.44424 0.67669 0.0
C624 C 0.77785 0.47195 0.65942 0.0
C625 C 0.83251 0.46468 0.64833 0.0
C626 C 0.82446 0.50397 0.63089 0.0
C627 C 0.87941 0.55611 0.62911 0.0
C628 C 0.82261 0.45819 0.6142 0.0
C629 C 0.75744 0.53555 0.63417 0.0
C630 C 0.73146 0.51538 0.65066 0.0
C631 C 0.67239 0.54017 0.65745 0.0
C632 C 0.63953 0.5881 0.64736 0.0
C633 C 0.66551 0.61079 0.63062 0.0
C634 C 0.72451 0.5832 0.6237 0.0
H635 H 0.8256 0.61514 0.9328 0.0
H636 H 0.96409 0.63692 0.88808 0.0
H637 H 0.89444 0.56402 0.86905 0.0
H638 H 0.78934 0.44238 0.9245 0.0
H639 H 0.70367 0.45033 0.93092 0.0
H640 H 0.76501 0.50375 0.94095 0.0
H641 H 0.69832 0.60548 0.93028 0.0
H642 H 0.63711 0.55239 0.92007 0.0
H643 H 0.67792 0.6141 0.90651 0.0
H644 H 0.80564 0.49363 0.85429 0.0
H645 H 0.71057 0.42211 0.84611 0.0
H646 H 0.63401 0.44282 0.901 0.0
C647 C 0.84147 0.60431 0.91904 0.0
C648 C 0.90012 0.63193 0.91191 0.0
C649 C 0.91945 0.61614 0.89387 0.0
C650 C 0.88007 0.57504 0.88292 0.0
C651 C 0.82199 0.54944 0.89028 0.0
C652 C 0.8033 0.56268 0.90801 0.0
C653 C 0.73926 0.5281 0.91278 0.0
C654 C 0.74999 0.47817 0.9282 0.0
C655 C 0.68496 0.57801 0.91769 0.0
C656 C 0.72446 0.49393 0.89489 0.0
C657 C 0.77237 0.50722 0.88201 0.0
C658 C 0.76809 0.48243 0.86431 0.0
C659 C 0.71384 0.44222 0.85976 0.0
C660 C 0.66519 0.42673 0.87293 0.0
C661 C 0.67072 0.45331 0.89067 0.0
H662 H 0.68103 0.5929 0.18406 0.0
H663 H 0.62776 0.70671 0.13626 0.0
H664 H 0.70509 0.64171 0.11776 0.0
H665 H 0.85675 0.57408 0.1724 0.0
H666 H 0.86055 0.49125 0.18106 0.0
H667 H 0.80375 0.54954 0.19092 0.0
H668 H 0.70647 0.46913 0.18468 0.0
H669 H 0.76286 0.41081 0.17473 0.0
H670 H 0.6926 0.43923 0.16185 0.0
H671 H 0.78153 0.55923 0.10379 0.0
H672 H 0.85665 0.46755 0.09584 0.0
H673 H 0.86229 0.40958 0.15269 0.0
C674 C 0.68626 0.60471 0.16977 0.0
C675 C 0.64799 0.65478 0.16165 0.0
C676 C 0.6562 0.66842 0.14284 0.0
C677 C 0.70014 0.63185 0.13217 0.0
C678 C 0.73609 0.58206 0.14049 0.0
C679 C 0.73019 0.56877 0.15887 0.0
C680 C 0.7733 0.51122 0.16428 0.0
C681 C 0.82676 0.53284 0.17797 0.0
C682 C 0.73128 0.45424 0.17183 0.0
C683 C 0.80323 0.49373 0.14601 0.0
C684 C 0.78122 0.53518 0.13245 0.0
C685 C 0.79979 0.52681 0.11431 0.0
C686 C 0.84219 0.47454 0.10991 0.0
C687 C 0.86557 0.43169 0.12363 0.0
C688 C 0.84593 0.44193 0.1419 0.0
H689 H 0.8547 0.56081 0.37016 0.0
H690 H 0.85921 0.71082 0.41238 0.0
H691 H 0.77755 0.64731 0.43016 0.0
H692 H 0.67731 0.52364 0.37391 0.0
H693 H 0.68956 0.43709 0.36966 0.0
H694 H 0.74515 0.49665 0.35984 0.0
H695 H 0.84464 0.43691 0.3747 0.0
H696 H 0.7894 0.37753 0.38467 0.0
H697 H 0.8452 0.4239 0.39897 0.0
H698 H 0.70361 0.56162 0.44469 0.0
H699 H 0.63624 0.46487 0.45354 0.0
H700 H 0.67694 0.37429 0.40116 0.0
C701 C 0.83794 0.58077 0.38304 0.0
C702 C 0.86356 0.64068 0.3899 0.0
C703 C 0.84018 0.66513 0.4068 0.0
C704 C 0.7939 0.62934 0.41703 0.0
C705 C 0.77077 0.56971 0.41005 0.0
C706 C 0.7913 0.54612 0.39332 0.0
C707 C 0.75999 0.48015 0.38902 0.0
C708 C 0.71534 0.48468 0.37211 0.0
C709 C 0.81297 0.42648 0.38671 0.0
C710 C 0.71972 0.4696 0.40612 0.0
C711 C 0.72664 0.52164 0.41813 0.0
C712 C 0.69702 0.52104 0.43527 0.0
C713 C 0.65915 0.46584 0.44022 0.0
C714 C 0.6509 0.41242 0.42798 0.0
C715 C 0.6814 0.41483 0.4107 0.0
H716 H 0.3929 0.39433 0.39451 0.0
H717 H 0.31254 0.37036 0.44891 0.0
H718 H 0.22358 0.44817 0.44174 0.0
H719 H 0.35365 0.56982 0.38988 0.0
H720 H 0.33068 0.56328 0.36622 0.0
H721 H 0.39106 0.50779 0.37565 0.0
H722 H 0.32077 0.4084 0.36477 0.0
H723 H 0.25994 0.46358 0.35544 0.0
H724 H 0.23549 0.40203 0.37174 0.0
H725 H 0.14323 0.52469 0.42936 0.0
H726 H 0.0729 0.60013 0.41214 0.0
H727 H 0.19907 0.57629 0.36469 0.0
C728 C 0.35692 0.40629 0.40491 0.0
C729 C 0.35951 0.37628 0.42228 0.0
C730 C 0.31121 0.39238 0.4355 0.0
C731 C 0.26053 0.43663 0.43158 0.0
C732 C 0.25836 0.46431 0.41431 0.0
C733 C 0.30494 0.4502 0.40113 0.0
C734 C 0.28881 0.48614 0.38351 0.0
C735 C 0.34436 0.53464 0.37853 0.0
C736 C 0.27546 0.4371 0.36795 0.0
C737 C 0.22597 0.52227 0.38898 0.0
C738 C 0.21002 0.50874 0.40687 0.0
C739 C 0.15511 0.53591 0.41535 0.0
C740 C 0.11548 0.57887 0.4054 0.0
C741 C 0.13041 0.59434 0.38704 0.0
C742 C 0.18619 0.56504 0.37864 0.0
H743 H 0.16686 0.40418 0.15346 0.0
H744 H 0.16506 0.4591 0.09654 0.0
H745 H 0.23934 0.55359 0.10341 0.0
H746 H 0.17329 0.56733 0.17301 0.0
H747 H 0.23005 0.54474 0.19087 0.0
H748 H 0.17376 0.48434 0.18163 0.0
H749 H 0.27234 0.40766 0.17402 0.0
H750 H 0.32882 0.46761 0.18335 0.0
H751 H 0.33955 0.43849 0.16034 0.0
H752 H 0.31085 0.64391 0.11694 0.0
H753 H 0.3866 0.71421 0.13509 0.0
H754 H 0.34954 0.59332 0.18257 0.0
C755 C 0.18204 0.4365 0.14252 0.0
C756 C 0.16022 0.42551 0.12454 0.0
C757 C 0.18153 0.46747 0.1104 0.0
C758 C 0.22327 0.52117 0.1142 0.0
C759 C 0.2439 0.53108 0.13215 0.0
C760 C 0.22494 0.48919 0.14601 0.0
C761 C 0.25752 0.50791 0.16387 0.0
C762 C 0.20554 0.52724 0.17818 0.0
C763 C 0.30222 0.4521 0.17079 0.0
C764 C 0.29775 0.56696 0.15792 0.0
C765 C 0.28825 0.58035 0.13966 0.0
C766 C 0.31903 0.6336 0.13121 0.0
C767 C 0.36161 0.67342 0.14162 0.0
C768 C 0.37397 0.6588 0.16015 0.0
C769 C 0.34123 0.60517 0.16838 0.0
H770 H 0.20861 0.67297 0.90095 0.0
H771 H 0.16997 0.58102 0.95318 0.0
H772 H 0.23902 0.48676 0.94439 0.0
H773 H 0.20914 0.52305 0.87402 0.0
H774 H 0.27624 0.54891 0.85954 0.0
H775 H 0.22216 0.60935 0.86957 0.0
H776 H 0.3232 0.66878 0.88391 0.0
H777 H 0.37758 0.6087 0.87387 0.0
H778 H 0.37947 0.62303 0.8981 0.0
H779 H 0.31012 0.40231 0.93027 0.0
H780 H 0.38641 0.33439 0.91231 0.0
H781 H 0.38428 0.48058 0.86921 0.0
C782 C 0.21465 0.6329 0.91049 0.0
C783 C 0.18396 0.63455 0.9278 0.0
C784 C 0.19341 0.58131 0.93994 0.0
C785 C 0.23225 0.52725 0.93503 0.0
C786 C 0.26182 0.52712 0.91795 0.0
C787 C 0.25413 0.57857 0.90588 0.0
C788 C 0.2935 0.56641 0.88859 0.0
C789 C 0.2475 0.56164 0.87195 0.0
C790 C 0.34659 0.61991 0.88597 0.0
C791 C 0.32446 0.50023 0.89293 0.0
C792 C 0.30479 0.47846 0.90988 0.0
C793 C 0.32614 0.41882 0.91699 0.0
C794 C 0.36951 0.38053 0.90662 0.0
C795 C 0.39181 0.40212 0.88933 0.0
C796 C 0.3684 0.46272 0.88238 0.0
H797 H 0.14213 0.41121 0.64755 0.0
H798 H 0.21799 0.38846 0.70236 0.0
H799 H 0.31144 0.46306 0.69511 0.0
H800 H 0.3005 0.42512 0.62387 0.0
H801 H 0.27156 0.48804 0.60857 0.0
H802 H 0.21437 0.42812 0.6175 0.0
H803 H 0.14052 0.52207 0.62997 0.0
H804 H 0.19751 0.58222 0.62112 0.0
H805 H 0.17614 0.58315 0.64493 0.0
H806 H 0.39557 0.53978 0.68199 0.0
H807 H 0.46049 0.62169 0.66487 0.0
H808 H 0.325 0.60251 0.61922 0.0
C809 C 0.17924 0.4213 0.65785 0.0
C810 C 0.17422 0.39366 0.67539 0.0
C811 C 0.22199 0.40901 0.6888 0.0
C812 C 0.27504 0.45108 0.68479 0.0
C813 C 0.2786 0.47815 0.6674 0.0
C814 C 0.23165 0.46454 0.65419 0.0
C815 C 0.24432 0.50416 0.63708 0.0
C816 C 0.25854 0.45863 0.62079 0.0
C817 C 0.18617 0.55066 0.63305 0.0
C818 C 0.30564 0.54217 0.64274 0.0
C819 C 0.32507 0.52559 0.66018 0.0
C820 C 0.38075 0.55338 0.66835 0.0
C821 C 0.41734 0.59979 0.65849 0.0
C822 C 0.39752 0.61883 0.64076 0.0
C823 C 0.34095 0.58939 0.63281 0.0
loop_
_geom_bond_atom_site_label_1
_geom_bond_atom_site_label_2
_geom_bond_distance
_geom_bond_site_symmetry_2
_ccdc_geom_bond_type
Fe0 O2 1.918 . S
Fe0 O5 1.997 1_455 S
Fe0 O6 2.002 . S
Fe0 O11 1.976 . S
Fe0 O14 1.996 1_455 S
Fe1 O2 1.918 . S
Fe1 O9 1.997 . S
Fe1 O12 1.996 . S
Fe1 O16 1.976 . S
Fe1 O19 2.002 . S
O2 Fe0 1.918 . S
O2 Fe1 1.918 . S
O2 Fe3 1.918 1_455 S
Fe3 O2 1.918 1_655 S
Fe3 O4 2.002 . S
Fe3 O13 1.976 . S
Fe3 O17 1.996 . S
Fe3 O20 1.997 . S
O4 Fe3 2.002 . S
O4 C21 1.295 . S
O5 Fe0 1.997 1_655 S
O5 C21 1.235 . S
O6 Fe0 2.002 . S
O6 C7 1.295 . S
C7 O6 1.295 . S
C7 O9 1.235 . S
C8 O13 1.287 . S
C8 O14 1.255 . S
O9 Fe1 1.997 . S
O9 C7 1.235 . S
C10 O16 1.287 . S
C10 O17 1.255 1_455 S
O11 Fe0 1.976 . S
O11 C18 1.287 . S
O12 Fe1 1.996 . S
O12 C18 1.255 . S
O13 Fe3 1.976 . S
O13 C8 1.287 . S
O14 Fe0 1.996 1_655 S
O14 C8 1.255 . S
C15 O19 1.295 . S
C15 O20 1.235 1_455 S
O16 Fe1 1.976 . S
O16 C10 1.287 . S
O17 Fe3 1.996 . S
O17 C10 1.255 1_655 S
C18 O11 1.287 . S
C18 O12 1.255 . S
O19 Fe1 2.002 . S
O19 C15 1.295 . S
O20 Fe3 1.997 . S
O20 C15 1.235 1_655 S
C21 O4 1.295 . S
C21 O5 1.235 . S
Fe22 O24 1.918 . S
Fe22 O27 1.997 . S
Fe22 O28 2.002 . S
Fe22 O33 1.976 1_455 S
Fe22 O36 1.996 1_455 S
Fe23 O24 1.918 . S
Fe23 O31 1.997 . S
Fe23 O34 1.996 1_455 S
Fe23 O38 1.976 1_455 S
Fe23 O41 2.002 . S
O24 Fe22 1.918 . S
O24 Fe23 1.918 . S
O24 Fe25 1.918 . S
Fe25 O24 1.918 . S
Fe25 O26 2.002 . S
Fe25 O35 1.976 1_455 S
Fe25 O39 1.996 1_455 S
Fe25 O42 1.997 . S
O26 Fe25 2.002 . S
O26 C43 1.295 . S
O27 Fe22 1.997 . S
O27 C43 1.235 . S
O28 Fe22 2.002 . S
O28 C29 1.295 . S
C29 O28 1.295 . S
C29 O31 1.235 . S
C30 O35 1.287 . S
C30 O36 1.255 . S
O31 Fe23 1.997 . S
O31 C29 1.235 . S
C32 O38 1.287 . S
C32 O39 1.255 . S
O33 Fe22 1.976 1_655 S
O33 C40 1.287 . S
O34 Fe23 1.996 1_655 S
O34 C40 1.255 . S
O35 Fe25 1.976 1_655 S
O35 C30 1.287 . S
O36 Fe22 1.996 1_655 S
O36 C30 1.255 . S
C37 O41 1.295 . S
C37 O42 1.235 . S
O38 Fe23 1.976 1_655 S
O38 C32 1.287 . S
O39 Fe25 1.996 1_655 S
O39 C32 1.255 . S
C40 O33 1.287 . S
C40 O34 1.255 . S
O41 Fe23 2.002 . S
O41 C37 1.295 . S
O42 Fe25 1.997 . S
O42 C37 1.235 . S
C43 O26 1.295 . S
C43 O27 1.235 . S
Fe44 O46 1.918 . S
Fe44 O49 1.997 . S
Fe44 O50 2.002 . S
Fe44 O55 1.976 . S
Fe44 O58 1.996 . S
Fe45 O46 1.918 . S
Fe45 O53 1.997 . S
Fe45 O56 1.996 . S
Fe45 O60 1.976 . S
Fe45 O63 2.002 . S
O46 Fe44 1.918 . S
O46 Fe45 1.918 . S
O46 Fe47 1.918 . S
Fe47 O46 1.918 . S
Fe47 O48 2.002 . S
Fe47 O57 1.976 . S
Fe47 O61 1.996 . S
Fe47 O64 1.997 . S
O48 Fe47 2.002 . S
O48 C65 1.295 . S
O49 Fe44 1.997 . S
O49 C65 1.235 . S
O50 Fe44 2.002 . S
O50 C51 1.295 . S
C51 O50 1.295 . S
C51 O53 1.235 . S
C52 O57 1.287 . S
C52 O58 1.255 . S
O53 Fe45 1.997 . S
O53 C51 1.235 . S
C54 O60 1.287 . S
C54 O61 1.255 . S
O55 Fe44 1.976 . S
O55 C62 1.287 . S
O56 Fe45 1.996 . S
O56 C62 1.255 . S
O57 Fe47 1.976 . S
O57 C52 1.287 . S
O58 Fe44 1.996 . S
O58 C52 1.255 . S
C59 O63 1.295 . S
C59 O64 1.235 . S
O60 Fe45 1.976 . S
O60 C54 1.287 . S
O61 Fe47 1.996 . S
O61 C54 1.255 . S
C62 O55 1.287 . S
C62 O56 1.255 . S
O63 Fe45 2.002 . S
O63 C59 1.295 . S
O64 Fe47 1.997 . S
O64 C59 1.235 . S
C65 O48 1.295 . S
C65 O49 1.235 . S
Fe66 O68 1.918 . S
Fe66 O71 1.997 . S
Fe66 O72 2.002 . S
Fe66 O77 1.976 . S
Fe66 O80 1.996 . S
Fe67 O68 1.918 . S
Fe67 O75 1.997 . S
Fe67 O78 1.996 . S
Fe67 O82 1.976 . S
Fe67 O85 2.002 . S
O68 Fe66 1.918 . S
O68 Fe67 1.918 . S
O68 Fe69 1.918 . S
Fe69 O68 1.918 . S
Fe69 O70 2.002 . S
Fe69 O79 1.976 . S
Fe69 O83 1.996 . S
Fe69 O86 1.997 . S
O70 Fe69 2.002 . S
O70 C87 1.295 . S
O71 Fe66 1.997 . S
O71 C87 1.235 . S
O72 Fe66 2.002 . S
O72 C73 1.295 . S
C73 O72 1.295 . S
C73 O75 1.235 . S
C74 O79 1.287 . S
C74 O80 1.255 . S
O75 Fe67 1.997 . S
O75 C73 1.235 . S
C76 O82 1.287 . S
C76 O83 1.255 . S
O77 Fe66 1.976 . S
O77 C84 1.287 . S
O78 Fe67 1.996 . S
O78 C84 1.255 . S
O79 Fe69 1.976 . S
O79 C74 1.287 . S
O80 Fe66 1.996 . S
O80 C74 1.255 . S
C81 O85 1.295 . S
C81 O86 1.235 . S
O82 Fe67 1.976 . S
O82 C76 1.287 . S
O83 Fe69 1.996 . S
O83 C76 1.255 . S
C84 O77 1.287 . S
C84 O78 1.255 . S
O85 Fe67 2.002 . S
O85 C81 1.295 . S
O86 Fe69 1.997 . S
O86 C81 1.235 . S
C87 O70 1.295 . S
C87 O71 1.235 . S
Fe88 O90 1.918 . S
Fe88 O93 1.997 . S
Fe88 O94 2.002 . S
Fe88 O99 1.976 . S
Fe88 O102 1.996 . S
Fe89 O90 1.918 1_655 S
Fe89 O97 1.997 . S
Fe89 O100 1.996 . S
Fe89 O104 1.976 . S
Fe89 O107 2.002 . S
O90 Fe88 1.918 . S
O90 Fe89 1.918 1_455 S
O90 Fe91 1.918 . S
Fe91 O90 1.918 . S
Fe91 O92 2.002 . S
Fe91 O101 1.976 . S
Fe91 O105 1.996 1_455 S
Fe91 O108 1.997 1_455 S
O92 Fe91 2.002 . S
O92 C109 1.295 . S
O93 Fe88 1.997 . S
O93 C109 1.235 . S
O94 Fe88 2.002 . S
O94 C95 1.295 . S
C95 O94 1.295 . S
C95 O97 1.235 1_455 S
C96 O101 1.287 . S
C96 O102 1.255 . S
O97 Fe89 1.997 . S
O97 C95 1.235 1_655 S
C98 O104 1.287 . S
C98 O105 1.255 . S
O99 Fe88 1.976 . S
O99 C106 1.287 . S
O100 Fe89 1.996 . S
O100 C106 1.255 1_655 S
O101 Fe91 1.976 . S
O101 C96 1.287 . S
O102 Fe88 1.996 . S
O102 C96 1.255 . S
C103 O107 1.295 . S
C103 O108 1.235 . S
O104 Fe89 1.976 . S
O104 C98 1.287 . S
O105 Fe91 1.996 1_655 S
O105 C98 1.255 . S
C106 O99 1.287 . S
C106 O100 1.255 1_455 S
O107 Fe89 2.002 . S
O107 C103 1.295 . S
O108 Fe91 1.997 1_655 S
O108 C103 1.235 . S
C109 O92 1.295 . S
C109 O93 1.235 . S
Fe110 O112 1.918 . S
Fe110 O115 1.997 . S
Fe110 O116 2.002 . S
Fe110 O121 1.976 . S
Fe110 O124 1.996 . S
Fe111 O112 1.918 . S
Fe111 O119 1.997 . S
Fe111 O122 1.996 . S
Fe111 O126 1.976 . S
Fe111 O129 2.002 . S
O112 Fe110 1.918 . S
O112 Fe111 1.918 . S
O112 Fe113 1.918 . S
Fe113 O112 1.918 . S
Fe113 O114 2.002 . S
Fe113 O123 1.976 . S
Fe113 O127 1.996 . S
Fe113 O130 1.997 . S
O114 Fe113 2.002 . S
O114 C131 1.295 . S
O115 Fe110 1.997 . S
O115 C131 1.235 . S
O116 Fe110 2.002 . S
O116 C117 1.295 . S
C117 O116 1.295 . S
C117 O119 1.235 . S
C118 O123 1.287 . S
C118 O124 1.255 . S
O119 Fe111 1.997 . S
O119 C117 1.235 . S
C120 O126 1.287 . S
C120 O127 1.255 . S
O121 Fe110 1.976 . S
O121 C128 1.287 . S
O122 Fe111 1.996 . S
O122 C128 1.255 . S
O123 Fe113 1.976 . S
O123 C118 1.287 . S
O124 Fe110 1.996 . S
O124 C118 1.255 . S
C125 O129 1.295 . S
C125 O130 1.235 . S
O126 Fe111 1.976 . S
O126 C120 1.287 . S
O127 Fe113 1.996 . S
O127 C120 1.255 . S
C128 O121 1.287 . S
C128 O122 1.255 . S
O129 Fe111 2.002 . S
O129 C125 1.295 . S
O130 Fe113 1.997 . S
O130 C125 1.235 . S
C131 O114 1.295 . S
C131 O115 1.235 . S
Fe132 O134 1.918 . S
Fe132 O137 1.997 . S
Fe132 O138 2.002 . S
Fe132 O143 1.976 . S
Fe132 O146 1.996 . S
Fe133 O134 1.918 . S
Fe133 O141 1.997 . S
Fe133 O144 1.996 . S
Fe133 O148 1.976 . S
Fe133 O151 2.002 . S
O134 Fe132 1.918 . S
O134 Fe133 1.918 . S
O134 Fe135 1.918 . S
Fe135 O134 1.918 . S
Fe135 O136 2.002 . S
Fe135 O145 1.976 . S
Fe135 O149 1.996 . S
Fe135 O152 1.997 . S
O136 Fe135 2.002 . S
O136 C153 1.295 . S
O137 Fe132 1.997 . S
O137 C153 1.235 . S
O138 Fe132 2.002 . S
O138 C139 1.295 . S
C139 O138 1.295 . S
C139 O141 1.235 . S
C140 O145 1.287 . S
C140 O146 1.255 . S
O141 Fe133 1.997 . S
O141 C139 1.235 . S
C142 O148 1.287 . S
C142 O149 1.255 . S
O143 Fe132 1.976 . S
O143 C150 1.287 . S
O144 Fe133 1.996 . S
O144 C150 1.255 . S
O145 Fe135 1.976 . S
O145 C140 1.287 . S
O146 Fe132 1.996 . S
O146 C140 1.255 . S
C147 O151 1.295 . S
C147 O152 1.235 . S
O148 Fe133 1.976 . S
O148 C142 1.287 . S
O149 Fe135 1.996 . S
O149 C142 1.255 . S
C150 O143 1.287 . S
C150 O144 1.255 . S
O151 Fe133 2.002 . S
O151 C147 1.295 . S
O152 Fe135 1.997 . S
O152 C147 1.235 . S
C153 O136 1.295 . S
C153 O137 1.235 . S
Fe154 O156 1.918 . S
Fe154 O159 1.997 1_455 S
Fe154 O160 2.002 1_455 S
Fe154 O165 1.976 . S
Fe154 O168 1.996 . S
Fe155 O156 1.918 . S
Fe155 O163 1.997 1_455 S
Fe155 O166 1.996 . S
Fe155 O170 1.976 . S
Fe155 O173 2.002 1_455 S
O156 Fe154 1.918 . S
O156 Fe155 1.918 . S
O156 Fe157 1.918 . S
Fe157 O156 1.918 . S
Fe157 O158 2.002 1_455 S
Fe157 O167 1.976 . S
Fe157 O171 1.996 . S
Fe157 O174 1.997 1_455 S
O158 Fe157 2.002 1_655 S
O158 C175 1.295 . S
O159 Fe154 1.997 1_655 S
O159 C175 1.235 . S
O160 Fe154 2.002 1_655 S
O160 C161 1.295 . S
C161 O160 1.295 . S
C161 O163 1.235 . S
C162 O167 1.287 . S
C162 O168 1.255 . S
O163 Fe155 1.997 1_655 S
O163 C161 1.235 . S
C164 O170 1.287 . S
C164 O171 1.255 . S
O165 Fe154 1.976 . S
O165 C172 1.287 . S
O166 Fe155 1.996 . S
O166 C172 1.255 . S
O167 Fe157 1.976 . S
O167 C162 1.287 . S
O168 Fe154 1.996 . S
O168 C162 1.255 . S
C169 O173 1.295 . S
C169 O174 1.235 . S
O170 Fe155 1.976 . S
O170 C164 1.287 . S
O171 Fe157 1.996 . S
O171 C164 1.255 . S
C172 O165 1.287 . S
C172 O166 1.255 . S
O173 Fe155 2.002 1_655 S
O173 C169 1.295 . S
O174 Fe157 1.997 1_655 S
O174 C169 1.235 . S
C175 O158 1.295 . S
C175 O159 1.235 . S
H176 C188 0.930 . S
H177 C190 0.930 . S
H178 C191 0.930 . S
H179 C195 0.959 . S
H180 C195 0.959 . S
H181 C195 0.961 . S
H182 C196 0.960 . S
H183 C196 0.961 1_556 S
H184 C196 0.959 . S
H185 C199 0.929 . S
H186 C200 0.931 . S
H187 C202 0.930 . S
C188 H176 0.930 . S
C188 C189 1.399 1_655 S
C188 C193 1.399 . S
C189 C188 1.399 1_455 S
C189 C190 1.376 . S
C190 H177 0.930 . S
C190 C189 1.376 . S
C190 C191 1.388 . S
C191 H178 0.930 . S
C191 C190 1.388 . S
C191 C192 1.390 . S
C192 C191 1.390 . S
C192 C193 1.394 1_455 S
C192 C198 1.465 1_554 S
C193 C188 1.399 . S
C193 C192 1.394 1_655 S
C193 C194 1.516 1_554 S
C194 C193 1.516 1_556 S
C194 C195 1.502 . S
C194 C196 1.561 1_556 S
C194 C197 1.526 . S
C195 H179 0.959 . S
C195 H180 0.959 . S
C195 H181 0.961 . S
C195 C194 1.502 . S
C196 H182 0.960 . S
C196 H183 0.961 1_554 S
C196 H184 0.959 . S
C196 C194 1.561 1_554 S
C197 C194 1.526 . S
C197 C198 1.396 1_655 S
C197 C202 1.390 . S
C198 C192 1.465 1_556 S
C198 C197 1.396 1_455 S
C198 C199 1.399 . S
C199 H185 0.929 . S
C199 C198 1.399 . S
C199 C200 1.385 . S
C200 H186 0.931 . S
C200 C199 1.385 . S
C200 C201 1.389 . S
C201 C200 1.389 . S
C201 C202 1.387 1_455 S
C202 H187 0.930 . S
C202 C197 1.390 . S
C202 C201 1.387 1_655 S
H203 C215 0.930 . S
H204 C217 0.930 . S
H205 C218 0.930 . S
H206 C222 0.959 . S
H207 C222 0.959 . S
H208 C222 0.961 . S
H209 C223 0.960 . S
H210 C223 0.961 . S
H211 C223 0.959 . S
H212 C226 0.929 . S
H213 C227 0.931 . S
H214 C229 0.930 . S
C215 H203 0.930 . S
C215 C216 1.399 . S
C215 C220 1.399 . S
C216 C215 1.399 . S
C216 C217 1.376 . S
C217 H204 0.930 . S
C217 C216 1.376 . S
C217 C218 1.388 . S
C218 H205 0.930 . S
C218 C217 1.388 . S
C218 C219 1.390 . S
C219 C218 1.390 . S
C219 C220 1.394 . S
C219 C225 1.465 . S
C220 C215 1.399 . S
C220 C219 1.394 . S
C220 C221 1.516 . S
C221 C220 1.516 . S
C221 C222 1.502 . S
C221 C223 1.561 . S
C221 C224 1.526 . S
C222 H206 0.959 . S
C222 H207 0.959 . S
C222 H208 0.961 . S
C222 C221 1.502 . S
C223 H209 0.960 . S
C223 H210 0.961 . S
C223 H211 0.959 . S
C223 C221 1.561 . S
C224 C221 1.526 . S
C224 C225 1.396 . S
C224 C229 1.390 . S
C225 C219 1.465 . S
C225 C224 1.396 . S
C225 C226 1.399 . S
C226 H212 0.929 . S
C226 C225 1.399 . S
C226 C227 1.385 . S
C227 H213 0.931 . S
C227 C226 1.385 . S
C227 C228 1.389 . S
C228 C227 1.389 . S
C228 C229 1.387 . S
C229 H214 0.930 . S
C229 C224 1.390 . S
C229 C228 1.387 . S
H230 C242 0.930 . S
H231 C244 0.930 . S
H232 C245 0.930 . S
H233 C249 0.959 . S
H234 C249 0.959 . S
H235 C249 0.961 . S
H236 C250 0.960 . S
H237 C250 0.961 . S
H238 C250 0.959 . S
H239 C253 0.929 . S
H240 C254 0.931 . S
H241 C256 0.930 . S
C242 H230 0.930 . S
C242 C243 1.399 . S
C242 C247 1.399 . S
C243 C242 1.399 . S
C243 C244 1.376 . S
C244 H231 0.930 . S
C244 C243 1.376 . S
C244 C245 1.388 . S
C245 H232 0.930 . S
C245 C244 1.388 . S
C245 C246 1.390 . S
C246 C245 1.390 . S
C246 C247 1.394 . S
C246 C252 1.465 . S
C247 C242 1.399 . S
C247 C246 1.394 . S
C247 C248 1.516 . S
C248 C247 1.516 . S
C248 C249 1.502 . S
C248 C250 1.561 . S
C248 C251 1.526 . S
C249 H233 0.959 . S
C249 H234 0.959 . S
C249 H235 0.961 . S
C249 C248 1.502 . S
C250 H236 0.960 . S
C250 H237 0.961 . S
C250 H238 0.959 . S
C250 C248 1.561 . S
C251 C248 1.526 . S
C251 C252 1.396 . S
C251 C256 1.390 . S
C252 C246 1.465 . S
C252 C251 1.396 . S
C252 C253 1.399 . S
C253 H239 0.929 . S
C253 C252 1.399 . S
C253 C254 1.385 . S
C254 H240 0.931 . S
C254 C253 1.385 . S
C254 C255 1.389 . S
C255 C254 1.389 . S
C255 C256 1.387 . S
C256 H241 0.930 . S
C256 C251 1.390 . S
C256 C255 1.387 . S
H257 C269 0.930 . S
H258 C271 0.930 . S
H259 C272 0.930 . S
H260 C276 0.959 . S
H261 C276 0.959 . S
H262 C276 0.961 . S
H263 C277 0.960 . S
H264 C277 0.961 . S
H265 C277 0.959 . S
H266 C280 0.929 . S
H267 C281 0.931 . S
H268 C283 0.930 . S
C269 H257 0.930 . S
C269 C270 1.399 . S
C269 C274 1.399 . S
C270 C269 1.399 . S
C270 C271 1.376 . S
C271 H258 0.930 . S
C271 C270 1.376 . S
C271 C272 1.388 . S
C272 H259 0.930 . S
C272 C271 1.388 . S
C272 C273 1.390 . S
C273 C272 1.390 . S
C273 C274 1.394 . S
C273 C279 1.465 . S
C274 C269 1.399 . S
C274 C273 1.394 . S
C274 C275 1.516 . S
C275 C274 1.516 . S
C275 C276 1.502 . S
C275 C277 1.561 . S
C275 C278 1.526 . S
C276 H260 0.959 . S
C276 H261 0.959 . S
C276 H262 0.961 . S
C276 C275 1.502 . S
C277 H263 0.960 . S
C277 H264 0.961 . S
C277 H265 0.959 . S
C277 C275 1.561 . S
C278 C275 1.526 . S
C278 C279 1.396 . S
C278 C283 1.390 . S
C279 C273 1.465 . S
C279 C278 1.396 . S
C279 C280 1.399 . S
C280 H266 0.929 . S
C280 C279 1.399 . S
C280 C281 1.385 . S
C281 H267 0.931 . S
C281 C280 1.385 . S
C281 C282 1.389 . S
C282 C281 1.389 . S
C282 C283 1.387 . S
C283 H268 0.930 . S
C283 C278 1.390 . S
C283 C282 1.387 . S
H284 C296 0.930 . S
H285 C298 0.930 . S
H286 C299 0.930 . S
H287 C303 0.959 . S
H288 C303 0.959 . S
H289 C303 0.961 . S
H290 C304 0.960 . S
H291 C304 0.961 . S
H292 C304 0.959 . S
H293 C307 0.929 . S
H294 C308 0.931 . S
H295 C310 0.930 . S
C296 H284 0.930 . S
C296 C297 1.399 . S
C296 C301 1.399 . S
C297 C296 1.399 . S
C297 C298 1.376 . S
C298 H285 0.930 . S
C298 C297 1.376 . S
C298 C299 1.388 . S
C299 H286 0.930 . S
C299 C298 1.388 . S
C299 C300 1.390 . S
C300 C299 1.390 . S
C300 C301 1.394 . S
C300 C306 1.465 . S
C301 C296 1.399 . S
C301 C300 1.394 . S
C301 C302 1.516 . S
C302 C301 1.516 . S
C302 C303 1.502 . S
C302 C304 1.561 . S
C302 C305 1.526 . S
C303 H287 0.959 . S
C303 H288 0.959 . S
C303 H289 0.961 . S
C303 C302 1.502 . S
C304 H290 0.960 . S
C304 H291 0.961 . S
C304 H292 0.959 . S
C304 C302 1.561 . S
C305 C302 1.526 . S
C305 C306 1.396 . S
C305 C310 1.390 . S
C306 C300 1.465 . S
C306 C305 1.396 . S
C306 C307 1.399 . S
C307 H293 0.929 . S
C307 C306 1.399 . S
C307 C308 1.385 . S
C308 H294 0.931 . S
C308 C307 1.385 . S
C308 C309 1.389 . S
C309 C308 1.389 . S
C309 C310 1.387 . S
C310 H295 0.930 . S
C310 C305 1.390 . S
C310 C309 1.387 . S
H311 C323 0.930 . S
H312 C325 0.930 . S
H313 C326 0.930 . S
H314 C330 0.959 . S
H315 C330 0.959 . S
H316 C330 0.961 . S
H317 C331 0.960 . S
H318 C331 0.961 . S
H319 C331 0.959 . S
H320 C334 0.929 . S
H321 C335 0.931 . S
H322 C337 0.930 . S
C323 H311 0.930 . S
C323 C324 1.399 . S
C323 C328 1.399 . S
C324 C323 1.399 . S
C324 C325 1.376 . S
C325 H312 0.930 . S
C325 C324 1.376 . S
C325 C326 1.388 . S
C326 H313 0.930 . S
C326 C325 1.388 . S
C326 C327 1.390 . S
C327 C326 1.390 . S
C327 C328 1.394 . S
C327 C333 1.465 . S
C328 C323 1.399 . S
C328 C327 1.394 . S
C328 C329 1.516 . S
C329 C328 1.516 . S
C329 C330 1.502 . S
C329 C331 1.561 . S
C329 C332 1.526 . S
C330 H314 0.959 . S
C330 H315 0.959 . S
C330 H316 0.961 . S
C330 C329 1.502 . S
C331 H317 0.960 . S
C331 H318 0.961 . S
C331 H319 0.959 . S
C331 C329 1.561 . S
C332 C329 1.526 . S
C332 C333 1.396 . S
C332 C337 1.390 . S
C333 C327 1.465 . S
C333 C332 1.396 . S
C333 C334 1.399 . S
C334 H320 0.929 . S
C334 C333 1.399 . S
C334 C335 1.385 . S
C335 H321 0.931 . S
C335 C334 1.385 . S
C335 C336 1.389 . S
C336 C335 1.389 . S
C336 C337 1.387 . S
C337 H322 0.930 . S
C337 C332 1.390 . S
C337 C336 1.387 . S
H338 C350 0.930 . S
H339 C352 0.930 . S
H340 C353 0.943 . S
H341 C357 0.959 . S
H342 C357 0.959 . S
H343 C357 0.961 . S
H344 C358 0.960 . S
H345 C358 0.961 . S
H346 C358 0.959 . S
H347 C361 0.929 . S
H348 C362 0.931 . S
H349 C364 0.930 . S
C350 H338 0.930 . S
C350 C351 1.399 . S
C350 C355 1.399 . S
C351 C350 1.399 . S
C351 C352 1.376 . S
C352 H339 0.930 . S
C352 C351 1.376 . S
C352 C353 1.376 1_545 S
C353 H340 0.943 . S
C353 C352 1.376 1_565 S
C353 C354 1.389 1_565 S
C354 C353 1.389 1_545 S
C354 C355 1.394 . S
C354 C360 1.465 1_545 S
C355 C350 1.399 . S
C355 C354 1.394 . S
C355 C356 1.516 . S
C356 C355 1.516 . S
C356 C357 1.502 . S
C356 C358 1.561 . S
C356 C359 1.526 1_545 S
C357 H341 0.959 . S
C357 H342 0.959 . S
C357 H343 0.961 . S
C357 C356 1.502 . S
C358 H344 0.960 . S
C358 H345 0.961 . S
C358 H346 0.959 . S
C358 C356 1.561 . S
C359 C356 1.526 1_565 S
C359 C360 1.396 . S
C359 C364 1.390 . S
C360 C354 1.465 1_565 S
C360 C359 1.396 . S
C360 C361 1.399 . S
C361 H347 0.929 . S
C361 C360 1.399 . S
C361 C362 1.385 . S
C362 H348 0.931 . S
C362 C361 1.385 . S
C362 C363 1.389 . S
C363 C362 1.389 . S
C363 C364 1.387 . S
C364 H349 0.930 . S
C364 C359 1.390 . S
C364 C363 1.387 . S
H365 C377 0.930 . S
H366 C379 0.930 . S
H367 C380 0.930 . S
H368 C384 0.959 1_655 S
H369 C384 0.959 . S
H370 C384 0.961 . S
H371 C385 0.960 . S
H372 C385 0.961 . S
H373 C385 0.959 . S
H374 C388 0.929 1_554 S
H375 C389 0.931 . S
H376 C391 0.930 . S
C377 H365 0.930 . S
C377 C378 1.399 . S
C377 C382 1.399 . S
C378 C377 1.399 . S
C378 C379 1.376 1_455 S
C379 H366 0.930 . S
C379 C378 1.376 1_655 S
C379 C380 1.388 1_545 S
C380 H367 0.930 . S
C380 C379 1.388 1_565 S
C380 C381 1.391 . S
C381 C380 1.391 . S
C381 C382 1.381 1_665 S
C381 C387 1.475 1_554 S
C382 C377 1.399 . S
C382 C381 1.381 1_445 S
C382 C383 1.516 1_554 S
C383 C382 1.516 1_556 S
C383 C384 1.502 . S
C383 C385 1.561 . S
C383 C386 1.526 1_545 S
C384 H368 0.959 1_455 S
C384 H369 0.959 . S
C384 H370 0.961 . S
C384 C383 1.502 . S
C385 H371 0.960 . S
C385 H372 0.961 . S
C385 H373 0.959 . S
C385 C383 1.561 . S
C386 C383 1.526 1_565 S
C386 C387 1.396 1_455 S
C386 C391 1.390 . S
C387 C381 1.475 1_556 S
C387 C386 1.396 1_655 S
C387 C388 1.399 . S
C388 H374 0.929 1_556 S
C388 C387 1.399 . S
C388 C389 1.385 . S
C389 H375 0.931 . S
C389 C388 1.385 . S
C389 C390 1.389 1_655 S
C390 C389 1.389 1_455 S
C390 C391 1.387 . S
C391 H376 0.930 . S
C391 C386 1.390 . S
C391 C390 1.387 . S
H392 C404 0.930 . S
H393 C406 0.930 . S
H394 C407 0.930 . S
H395 C411 0.959 . S
H396 C411 0.959 . S
H397 C411 0.961 . S
H398 C412 0.960 . S
H399 C412 0.961 1_545 S
H400 C412 0.959 . S
H401 C415 0.929 . S
H402 C416 0.931 . S
H403 C418 0.930 . S
C404 H392 0.930 . S
C404 C405 1.399 . S
C404 C409 1.399 . S
C405 C404 1.399 . S
C405 C406 1.376 . S
C406 H393 0.930 . S
C406 C405 1.376 . S
C406 C407 1.388 . S
C407 H394 0.930 . S
C407 C406 1.388 . S
C407 C408 1.390 . S
C408 C407 1.390 . S
C408 C409 1.394 . S
C408 C414 1.465 1_565 S
C409 C404 1.399 . S
C409 C408 1.394 . S
C409 C410 1.516 1_565 S
C410 C409 1.516 1_545 S
C410 C411 1.502 . S
C410 C412 1.561 1_545 S
C410 C413 1.526 . S
C411 H395 0.959 . S
C411 H396 0.959 . S
C411 H397 0.961 . S
C411 C410 1.502 . S
C412 H398 0.960 . S
C412 H399 0.961 1_565 S
C412 H400 0.959 . S
C412 C410 1.561 1_565 S
C413 C410 1.526 . S
C413 C414 1.396 . S
C413 C418 1.390 . S
C414 C408 1.465 1_545 S
C414 C413 1.396 . S
C414 C415 1.399 . S
C415 H401 0.929 . S
C415 C414 1.399 . S
C415 C416 1.385 . S
C416 H402 0.931 . S
C416 C415 1.385 . S
C416 C417 1.389 . S
C417 C416 1.389 . S
C417 C418 1.387 . S
C418 H403 0.930 . S
C418 C413 1.390 . S
C418 C417 1.387 . S
H419 C431 0.930 . S
H420 C433 0.930 . S
H421 C434 0.930 . S
H422 C438 0.959 . S
H423 C438 0.959 . S
H424 C438 0.961 . S
H425 C439 0.960 . S
H426 C439 0.961 . S
H427 C439 0.959 . S
H428 C442 0.929 . S
H429 C443 0.931 . S
H430 C445 0.930 . S
C431 H419 0.930 . S
C431 C432 1.399 . S
C431 C436 1.399 . S
C432 C431 1.399 . S
C432 C433 1.376 . S
C433 H420 0.930 . S
C433 C432 1.376 . S
C433 C434 1.388 . S
C434 H421 0.930 . S
C434 C433 1.388 . S
C434 C435 1.390 . S
C435 C434 1.390 . S
C435 C436 1.394 . S
C435 C441 1.465 1_565 S
C436 C431 1.399 . S
C436 C435 1.394 . S
C436 C437 1.516 1_565 S
C437 C436 1.516 1_545 S
C437 C438 1.502 . S
C437 C439 1.561 . S
C437 C440 1.526 . S
C438 H422 0.959 . S
C438 H423 0.959 . S
C438 H424 0.961 . S
C438 C437 1.502 . S
C439 H425 0.960 . S
C439 H426 0.961 . S
C439 H427 0.959 . S
C439 C437 1.561 . S
C440 C437 1.526 . S
C440 C441 1.396 . S
C440 C445 1.390 . S
C441 C435 1.465 1_545 S
C441 C440 1.396 . S
C441 C442 1.399 1_545 S
C442 H428 0.929 . S
C442 C441 1.399 1_565 S
C442 C443 1.385 1_565 S
C443 H429 0.931 . S
C443 C442 1.385 1_545 S
C443 C444 1.389 . S
C444 C443 1.389 . S
C444 C445 1.387 . S
C445 H430 0.930 . S
C445 C440 1.390 . S
C445 C444 1.387 . S
H446 C458 0.930 . S
H447 C460 0.930 . S
H448 C461 0.930 . S
H449 C465 0.959 . S
H450 C465 0.959 . S
H451 C465 0.961 . S
H452 C466 0.960 . S
H453 C466 0.961 . S
H454 C466 0.959 . S
H455 C469 0.929 . S
H456 C470 0.931 . S
H457 C472 0.930 . S
C458 H446 0.930 . S
C458 C459 1.399 . S
C458 C463 1.399 . S
C459 C458 1.399 . S
C459 C460 1.376 . S
C460 H447 0.930 . S
C460 C459 1.376 . S
C460 C461 1.388 1_545 S
C461 H448 0.930 . S
C461 C460 1.388 1_565 S
C461 C462 1.390 . S
C462 C461 1.390 . S
C462 C463 1.383 1_565 S
C462 C468 1.475 . S
C463 C458 1.399 . S
C463 C462 1.383 1_545 S
C463 C464 1.516 . S
C464 C463 1.516 . S
C464 C465 1.502 . S
C464 C466 1.561 . S
C464 C467 1.526 1_545 S
C465 H449 0.959 . S
C465 H450 0.959 . S
C465 H451 0.961 . S
C465 C464 1.502 . S
C466 H452 0.960 . S
C466 H453 0.961 . S
C466 H454 0.959 . S
C466 C464 1.561 . S
C467 C464 1.526 1_565 S
C467 C468 1.396 . S
C467 C472 1.390 . S
C468 C462 1.475 . S
C468 C467 1.396 . S
C468 C469 1.399 . S
C469 H455 0.929 . S
C469 C468 1.399 . S
C469 C470 1.385 . S
C470 H456 0.931 . S
C470 C469 1.385 . S
C470 C471 1.389 . S
C471 C470 1.389 . S
C471 C472 1.387 . S
C472 H457 0.930 . S
C472 C467 1.390 . S
C472 C471 1.387 . S
H473 C485 0.930 . S
H474 C487 0.930 . S
H475 C488 0.930 . S
H476 C492 0.959 . S
H477 C492 0.959 . S
H478 C492 0.961 . S
H479 C493 0.960 . S
H480 C493 0.961 . S
H481 C493 0.959 . S
H482 C496 0.929 . S
H483 C497 0.931 . S
H484 C499 0.930 . S
C485 H473 0.930 . S
C485 C486 1.399 . S
C485 C490 1.399 . S
C486 C485 1.399 . S
C486 C487 1.376 . S
C487 H474 0.930 . S
C487 C486 1.376 . S
C487 C488 1.388 . S
C488 H475 0.930 . S
C488 C487 1.388 . S
C488 C489 1.390 . S
C489 C488 1.390 . S
C489 C490 1.394 . S
C489 C495 1.465 1_565 S
C490 C485 1.399 . S
C490 C489 1.394 . S
C490 C491 1.516 . S
C491 C490 1.516 . S
C491 C492 1.502 . S
C491 C493 1.561 1_565 S
C491 C494 1.526 1_565 S
C492 H476 0.959 . S
C492 H477 0.959 . S
C492 H478 0.961 . S
C492 C491 1.502 . S
C493 H479 0.960 . S
C493 H480 0.961 . S
C493 H481 0.959 . S
C493 C491 1.561 1_545 S
C494 C491 1.526 1_545 S
C494 C495 1.396 . S
C494 C499 1.390 . S
C495 C489 1.465 1_545 S
C495 C494 1.396 . S
C495 C496 1.399 . S
C496 H482 0.929 . S
C496 C495 1.399 . S
C496 C497 1.385 . S
C497 H483 0.931 . S
C497 C496 1.385 . S
C497 C498 1.389 . S
C498 C497 1.389 . S
C498 C499 1.387 . S
C499 H484 0.930 . S
C499 C494 1.390 . S
C499 C498 1.387 . S
H500 C512 0.930 . S
H501 C514 0.930 . S
H502 C515 0.930 . S
H503 C519 0.959 . S
H504 C519 0.959 . S
H505 C519 0.961 . S
H506 C520 0.960 1_565 S
H507 C520 0.961 . S
H508 C520 0.959 1_565 S
H509 C523 0.929 . S
H510 C524 0.931 . S
H511 C526 0.930 . S
C512 H500 0.930 . S
C512 C513 1.399 . S
C512 C517 1.399 . S
C513 C512 1.399 . S
C513 C514 1.376 . S
C514 H501 0.930 . S
C514 C513 1.376 . S
C514 C515 1.388 . S
C515 H502 0.930 . S
C515 C514 1.388 . S
C515 C516 1.390 . S
C516 C515 1.390 . S
C516 C517 1.394 . S
C516 C522 1.465 . S
C517 C512 1.399 . S
C517 C516 1.394 . S
C517 C518 1.516 1_565 S
C518 C517 1.516 1_545 S
C518 C519 1.502 . S
C518 C520 1.561 . S
C518 C521 1.526 . S
C519 H503 0.959 . S
C519 H504 0.959 . S
C519 H505 0.961 . S
C519 C518 1.502 . S
C520 H506 0.960 1_545 S
C520 H507 0.961 . S
C520 H508 0.959 1_545 S
C520 C518 1.561 . S
C521 C518 1.526 . S
C521 C522 1.396 1_545 S
C521 C526 1.390 . S
C522 C516 1.465 . S
C522 C521 1.396 1_565 S
C522 C523 1.399 . S
C523 H509 0.929 . S
C523 C522 1.399 . S
C523 C524 1.385 1_565 S
C524 H510 0.931 . S
C524 C523 1.385 1_545 S
C524 C525 1.389 . S
C525 C524 1.389 . S
C525 C526 1.387 . S
C526 H511 0.930 . S
C526 C521 1.390 . S
C526 C525 1.387 . S
H527 C539 0.930 . S
H528 C541 0.930 . S
H529 C542 0.930 . S
H530 C546 0.959 . S
H531 C546 0.959 . S
H532 C546 0.961 . S
H533 C547 0.960 . S
H534 C547 0.961 . S
H535 C547 0.959 . S
H536 C550 0.929 . S
H537 C551 0.931 . S
H538 C553 0.930 . S
C539 H527 0.930 . S
C539 C540 1.399 . S
C539 C544 1.399 . S
C540 C539 1.399 . S
C540 C541 1.376 . S
C541 H528 0.930 . S
C541 C540 1.376 . S
C541 C542 1.388 . S
C542 H529 0.930 . S
C542 C541 1.388 . S
C542 C543 1.390 . S
C543 C542 1.390 . S
C543 C544 1.394 . S
C543 C549 1.465 1_545 S
C544 C539 1.399 . S
C544 C543 1.394 . S
C544 C545 1.516 1_545 S
C545 C544 1.516 1_565 S
C545 C546 1.502 . S
C545 C547 1.561 . S
C545 C548 1.526 . S
C546 H530 0.959 . S
C546 H531 0.959 . S
C546 H532 0.961 . S
C546 C545 1.502 . S
C547 H533 0.960 . S
C547 H534 0.961 . S
C547 H535 0.959 . S
C547 C545 1.561 . S
C548 C545 1.526 . S
C548 C549 1.396 . S
C548 C553 1.390 . S
C549 C543 1.465 1_565 S
C549 C548 1.396 . S
C549 C550 1.399 1_565 S
C550 H536 0.929 . S
C550 C549 1.399 1_545 S
C550 C551 1.385 1_545 S
C551 H537 0.931 . S
C551 C550 1.385 1_565 S
C551 C552 1.389 . S
C552 C551 1.389 . S
C552 C553 1.387 . S
C553 H538 0.930 . S
C553 C548 1.390 . S
C553 C552 1.387 . S
H554 C566 0.930 . S
H555 C568 0.930 . S
H556 C569 0.930 . S
H557 C573 0.959 . S
H558 C573 0.959 . S
H559 C573 0.961 . S
H560 C574 0.960 . S
H561 C574 0.961 . S
H562 C574 0.959 . S
H563 C577 0.929 . S
H564 C578 0.931 . S
H565 C580 0.930 . S
C566 H554 0.930 . S
C566 C567 1.399 . S
C566 C571 1.399 . S
C567 C566 1.399 . S
C567 C568 1.376 . S
C568 H555 0.930 . S
C568 C567 1.376 . S
C568 C569 1.388 . S
C569 H556 0.930 . S
C569 C568 1.388 . S
C569 C570 1.390 . S
C570 C569 1.390 . S
C570 C571 1.394 . S
C570 C576 1.465 1_565 S
C571 C566 1.399 . S
C571 C570 1.394 . S
C571 C572 1.516 . S
C572 C571 1.516 . S
C572 C573 1.502 1_565 S
C572 C574 1.561 . S
C572 C575 1.526 1_565 S
C573 H557 0.959 . S
C573 H558 0.959 . S
C573 H559 0.961 . S
C573 C572 1.502 1_545 S
C574 H560 0.960 . S
C574 H561 0.961 . S
C574 H562 0.959 . S
C574 C572 1.561 . S
C575 C572 1.526 1_545 S
C575 C576 1.396 . S
C575 C580 1.390 . S
C576 C570 1.465 1_545 S
C576 C575 1.396 . S
C576 C577 1.399 . S
C577 H563 0.929 . S
C577 C576 1.399 . S
C577 C578 1.385 . S
C578 H564 0.931 . S
C578 C577 1.385 . S
C578 C579 1.389 . S
C579 C578 1.389 . S
C579 C580 1.387 . S
C580 H565 0.930 . S
C580 C575 1.390 . S
C580 C579 1.387 . S
H581 C593 0.930 . S
H582 C595 0.930 . S
H583 C596 0.930 . S
H584 C600 0.959 . S
H585 C600 0.959 . S
H586 C600 0.961 . S
H587 C601 0.960 . S
H588 C601 0.961 1_545 S
H589 C601 0.959 1_545 S
H590 C604 0.929 . S
H591 C605 0.931 . S
H592 C607 0.930 . S
C593 H581 0.930 . S
C593 C594 1.399 . S
C593 C598 1.399 . S
C594 C593 1.399 . S
C594 C595 1.376 . S
C595 H582 0.930 . S
C595 C594 1.376 . S
C595 C596 1.388 1_565 S
C596 H583 0.930 . S
C596 C595 1.388 1_545 S
C596 C597 1.390 . S
C597 C596 1.390 . S
C597 C598 1.394 1_545 S
C597 C603 1.465 . S
C598 C593 1.399 . S
C598 C597 1.394 1_565 S
C598 C599 1.516 . S
C599 C598 1.516 . S
C599 C600 1.502 . S
C599 C601 1.561 . S
C599 C602 1.526 1_565 S
C600 H584 0.959 . S
C600 H585 0.959 . S
C600 H586 0.961 . S
C600 C599 1.502 . S
C601 H587 0.960 . S
C601 H588 0.961 1_565 S
C601 H589 0.959 1_565 S
C601 C599 1.561 . S
C602 C599 1.526 1_545 S
C602 C603 1.396 . S
C602 C607 1.390 . S
C603 C597 1.465 . S
C603 C602 1.396 . S
C603 C604 1.399 . S
C604 H590 0.929 . S
C604 C603 1.399 . S
C604 C605 1.385 . S
C605 H591 0.931 . S
C605 C604 1.385 . S
C605 C606 1.389 . S
C606 C605 1.389 . S
C606 C607 1.387 . S
C607 H592 0.930 . S
C607 C602 1.390 . S
C607 C606 1.387 . S
H608 C620 0.930 . S
H609 C622 0.930 . S
H610 C623 0.930 . S
H611 C627 0.959 . S
H612 C627 0.959 . S
H613 C627 0.961 . S
H614 C628 0.960 . S
H615 C628 0.961 . S
H616 C628 0.959 . S
H617 C631 0.929 . S
H618 C632 0.931 . S
H619 C634 0.930 . S
C620 H608 0.930 . S
C620 C621 1.399 . S
C620 C625 1.399 . S
C621 C620 1.399 . S
C621 C622 1.376 . S
C622 H609 0.930 . S
C622 C621 1.376 . S
C622 C623 1.388 . S
C623 H610 0.930 . S
C623 C622 1.388 . S
C623 C624 1.390 . S
C624 C623 1.390 . S
C624 C625 1.394 . S
C624 C630 1.465 . S
C625 C620 1.399 . S
C625 C624 1.394 . S
C625 C626 1.516 . S
C626 C625 1.516 . S
C626 C627 1.502 . S
C626 C628 1.561 . S
C626 C629 1.526 . S
C627 H611 0.959 . S
C627 H612 0.959 . S
C627 H613 0.961 . S
C627 C626 1.502 . S
C628 H614 0.960 . S
C628 H615 0.961 . S
C628 H616 0.959 . S
C628 C626 1.561 . S
C629 C626 1.526 . S
C629 C630 1.396 . S
C629 C634 1.390 . S
C630 C624 1.465 . S
C630 C629 1.396 . S
C630 C631 1.399 . S
C631 H617 0.929 . S
C631 C630 1.399 . S
C631 C632 1.385 . S
C632 H618 0.931 . S
C632 C631 1.385 . S
C632 C633 1.389 . S
C633 C632 1.389 . S
C633 C634 1.387 . S
C634 H619 0.930 . S
C634 C629 1.390 . S
C634 C633 1.387 . S
H635 C647 0.930 . S
H636 C649 0.930 . S
H637 C650 0.930 . S
H638 C654 0.959 . S
H639 C654 0.959 . S
H640 C654 0.961 . S
H641 C655 0.960 . S
H642 C655 0.961 . S
H643 C655 0.959 . S
H644 C658 0.929 . S
H645 C659 0.931 . S
H646 C661 0.930 . S
C647 H635 0.930 . S
C647 C648 1.399 . S
C647 C652 1.399 . S
C648 C647 1.399 . S
C648 C649 1.376 . S
C649 H636 0.930 . S
C649 C648 1.376 . S
C649 C650 1.388 . S
C650 H637 0.930 . S
C650 C649 1.388 . S
C650 C651 1.390 . S
C651 C650 1.390 . S
C651 C652 1.394 . S
C651 C657 1.465 . S
C652 C647 1.399 . S
C652 C651 1.394 . S
C652 C653 1.516 . S
C653 C652 1.516 . S
C653 C654 1.502 . S
C653 C655 1.561 . S
C653 C656 1.526 . S
C654 H638 0.959 . S
C654 H639 0.959 . S
C654 H640 0.961 . S
C654 C653 1.502 . S
C655 H641 0.960 . S
C655 H642 0.961 . S
C655 H643 0.959 . S
C655 C653 1.561 . S
C656 C653 1.526 . S
C656 C657 1.396 . S
C656 C661 1.390 . S
C657 C651 1.465 . S
C657 C656 1.396 . S
C657 C658 1.399 . S
C658 H644 0.929 . S
C658 C657 1.399 . S
C658 C659 1.385 . S
C659 H645 0.931 . S
C659 C658 1.385 . S
C659 C660 1.389 . S
C660 C659 1.389 . S
C660 C661 1.387 . S
C661 H646 0.930 . S
C661 C656 1.390 . S
C661 C660 1.387 . S
H662 C674 0.930 . S
H663 C676 0.930 . S
H664 C677 0.930 . S
H665 C681 0.959 . S
H666 C681 0.959 . S
H667 C681 0.961 . S
H668 C682 0.960 . S
H669 C682 0.961 . S
H670 C682 0.959 . S
H671 C685 0.929 . S
H672 C686 0.931 . S
H673 C688 0.930 . S
C674 H662 0.930 . S
C674 C675 1.399 . S
C674 C679 1.399 . S
C675 C674 1.399 . S
C675 C676 1.376 . S
C676 H663 0.930 . S
C676 C675 1.376 . S
C676 C677 1.388 . S
C677 H664 0.930 . S
C677 C676 1.388 . S
C677 C678 1.390 . S
C678 C677 1.390 . S
C678 C679 1.394 . S
C678 C684 1.465 . S
C679 C674 1.399 . S
C679 C678 1.394 . S
C679 C680 1.516 . S
C680 C679 1.516 . S
C680 C681 1.502 . S
C680 C682 1.561 . S
C680 C683 1.526 . S
C681 H665 0.959 . S
C681 H666 0.959 . S
C681 H667 0.961 . S
C681 C680 1.502 . S
C682 H668 0.960 . S
C682 H669 0.961 . S
C682 H670 0.959 . S
C682 C680 1.561 . S
C683 C680 1.526 . S
C683 C684 1.396 . S
C683 C688 1.390 . S
C684 C678 1.465 . S
C684 C683 1.396 . S
C684 C685 1.399 . S
C685 H671 0.929 . S
C685 C684 1.399 . S
C685 C686 1.385 . S
C686 H672 0.931 . S
C686 C685 1.385 . S
C686 C687 1.389 . S
C687 C686 1.389 . S
C687 C688 1.387 . S
C688 H673 0.930 . S
C688 C683 1.390 . S
C688 C687 1.387 . S
H689 C701 0.930 . S
H690 C703 0.930 . S
H691 C704 0.930 . S
H692 C708 0.959 . S
H693 C708 0.959 . S
H694 C708 0.961 . S
H695 C709 0.960 . S
H696 C709 0.961 . S
H697 C709 0.959 . S
H698 C712 0.929 . S
H699 C713 0.931 . S
H700 C715 0.930 . S
C701 H689 0.930 . S
C701 C702 1.399 . S
C701 C706 1.399 . S
C702 C701 1.399 . S
C702 C703 1.376 . S
C703 H690 0.930 . S
C703 C702 1.376 . S
C703 C704 1.388 . S
C704 H691 0.930 . S
C704 C703 1.388 . S
C704 C705 1.390 . S
C705 C704 1.390 . S
C705 C706 1.394 . S
C705 C711 1.465 . S
C706 C701 1.399 . S
C706 C705 1.394 . S
C706 C707 1.516 . S
C707 C706 1.516 . S
C707 C708 1.502 . S
C707 C709 1.561 . S
C707 C710 1.526 . S
C708 H692 0.959 . S
C708 H693 0.959 . S
C708 H694 0.961 . S
C708 C707 1.502 . S
C709 H695 0.960 . S
C709 H696 0.961 . S
C709 H697 0.959 . S
C709 C707 1.561 . S
C710 C707 1.526 . S
C710 C711 1.396 . S
C710 C715 1.390 . S
C711 C705 1.465 . S
C711 C710 1.396 . S
C711 C712 1.399 . S
C712 H698 0.929 . S
C712 C711 1.399 . S
C712 C713 1.385 . S
C713 H699 0.931 . S
C713 C712 1.385 . S
C713 C714 1.389 . S
C714 C713 1.389 . S
C714 C715 1.387 . S
C715 H700 0.930 . S
C715 C710 1.390 . S
C715 C714 1.387 . S
H716 C728 0.930 . S
H717 C730 0.930 . S
H718 C731 0.930 . S
H719 C735 0.959 . S
H720 C735 0.959 . S
H721 C735 0.961 . S
H722 C736 0.960 . S
H723 C736 0.961 . S
H724 C736 0.959 . S
H725 C739 0.929 . S
H726 C740 0.931 . S
H727 C742 0.930 . S
C728 H716 0.930 . S
C728 C729 1.399 . S
C728 C733 1.399 . S
C729 C728 1.399 . S
C729 C730 1.376 . S
C730 H717 0.930 . S
C730 C729 1.376 . S
C730 C731 1.388 . S
C731 H718 0.930 . S
C731 C730 1.388 . S
C731 C732 1.390 . S
C732 C731 1.390 . S
C732 C733 1.394 . S
C732 C738 1.465 . S
C733 C728 1.399 . S
C733 C732 1.394 . S
C733 C734 1.516 . S
C734 C733 1.516 . S
C734 C735 1.502 . S
C734 C736 1.561 . S
C734 C737 1.526 . S
C735 H719 0.959 . S
C735 H720 0.959 . S
C735 H721 0.961 . S
C735 C734 1.502 . S
C736 H722 0.960 . S
C736 H723 0.961 . S
C736 H724 0.959 . S
C736 C734 1.561 . S
C737 C734 1.526 . S
C737 C738 1.396 . S
C737 C742 1.390 . S
C738 C732 1.465 . S
C738 C737 1.396 . S
C738 C739 1.399 . S
C739 H725 0.929 . S
C739 C738 1.399 . S
C739 C740 1.385 . S
C740 H726 0.931 . S
C740 C739 1.385 . S
C740 C741 1.389 . S
C741 C740 1.389 . S
C741 C742 1.387 . S
C742 H727 0.930 . S
C742 C737 1.390 . S
C742 C741 1.387 . S
H743 C755 0.930 . S
H744 C757 0.930 . S
H745 C758 0.930 . S
H746 C762 0.959 . S
H747 C762 0.959 . S
H748 C762 0.961 . S
H749 C763 0.960 . S
H750 C763 0.961 . S
H751 C763 0.959 . S
H752 C766 0.929 . S
H753 C767 0.931 . S
H754 C769 0.930 . S
C755 H743 0.930 . S
C755 C756 1.399 . S
C755 C760 1.399 . S
C756 C755 1.399 . S
C756 C757 1.376 . S
C757 H744 0.930 . S
C757 C756 1.376 . S
C757 C758 1.388 . S
C758 H745 0.930 . S
C758 C757 1.388 . S
C758 C759 1.390 . S
C759 C758 1.390 . S
C759 C760 1.394 . S
C759 C765 1.465 . S
C760 C755 1.399 . S
C760 C759 1.394 . S
C760 C761 1.516 . S
C761 C760 1.516 . S
C761 C762 1.502 . S
C761 C763 1.561 . S
C761 C764 1.526 . S
C762 H746 0.959 . S
C762 H747 0.959 . S
C762 H748 0.961 . S
C762 C761 1.502 . S
C763 H749 0.960 . S
C763 H750 0.961 . S
C763 H751 0.959 . S
C763 C761 1.561 . S
C764 C761 1.526 . S
C764 C765 1.396 . S
C764 C769 1.390 . S
C765 C759 1.465 . S
C765 C764 1.396 . S
C765 C766 1.399 . S
C766 H752 0.929 . S
C766 C765 1.399 . S
C766 C767 1.385 . S
C767 H753 0.931 . S
C767 C766 1.385 . S
C767 C768 1.389 . S
C768 C767 1.389 . S
C768 C769 1.387 . S
C769 H754 0.930 . S
C769 C764 1.390 . S
C769 C768 1.387 . S
H770 C782 0.930 . S
H771 C784 0.930 . S
H772 C785 0.930 . S
H773 C789 0.959 . S
H774 C789 0.959 . S
H775 C789 0.961 . S
H776 C790 0.960 . S
H777 C790 0.961 . S
H778 C790 0.959 . S
H779 C793 0.929 . S
H780 C794 0.931 . S
H781 C796 0.930 . S
C782 H770 0.930 . S
C782 C783 1.399 . S
C782 C787 1.399 . S
C783 C782 1.399 . S
C783 C784 1.376 . S
C784 H771 0.930 . S
C784 C783 1.376 . S
C784 C785 1.388 . S
C785 H772 0.930 . S
C785 C784 1.388 . S
C785 C786 1.390 . S
C786 C785 1.390 . S
C786 C787 1.394 . S
C786 C792 1.465 . S
C787 C782 1.399 . S
C787 C786 1.394 . S
C787 C788 1.516 . S
C788 C787 1.516 . S
C788 C789 1.502 . S
C788 C790 1.561 . S
C788 C791 1.526 . S
C789 H773 0.959 . S
C789 H774 0.959 . S
C789 H775 0.961 . S
C789 C788 1.502 . S
C790 H776 0.960 . S
C790 H777 0.961 . S
C790 H778 0.959 . S
C790 C788 1.561 . S
C791 C788 1.526 . S
C791 C792 1.396 . S
C791 C796 1.390 . S
C792 C786 1.465 . S
C792 C791 1.396 . S
C792 C793 1.399 . S
C793 H779 0.929 . S
C793 C792 1.399 . S
C793 C794 1.385 . S
C794 H780 0.931 . S
C794 C793 1.385 . S
C794 C795 1.389 . S
C795 C794 1.389 . S
C795 C796 1.387 . S
C796 H781 0.930 . S
C796 C791 1.390 . S
C796 C795 1.387 . S
H797 C809 0.930 . S
H798 C811 0.930 . S
H799 C812 0.930 . S
H800 C816 0.959 . S
H801 C816 0.959 . S
H802 C816 0.961 . S
H803 C817 0.960 . S
H804 C817 0.961 . S
H805 C817 0.959 . S
H806 C820 0.929 . S
H807 C821 0.931 . S
H808 C823 0.930 . S
C809 H797 0.930 . S
C809 C810 1.399 . S
C809 C814 1.399 . S
C810 C809 1.399 . S
C810 C811 1.376 . S
C811 H798 0.930 . S
C811 C810 1.376 . S
C811 C812 1.388 . S
C812 H799 0.930 . S
C812 C811 1.388 . S
C812 C813 1.390 . S
C813 C812 1.390 . S
C813 C814 1.394 . S
C813 C819 1.465 . S
C814 C809 1.399 . S
C814 C813 1.394 . S
C814 C815 1.516 . S
C815 C814 1.516 . S
C815 C816 1.502 . S
C815 C817 1.561 . S
C815 C818 1.526 . S
C816 H800 0.959 . S
C816 H801 0.959 . S
C816 H802 0.961 . S
C816 C815 1.502 . S
C817 H803 0.960 . S
C817 H804 0.961 . S
C817 H805 0.959 . S
C817 C815 1.561 . S
C818 C815 1.526 . S
C818 C819 1.396 . S
C818 C823 1.390 . S
C819 C813 1.465 . S
C819 C818 1.396 . S
C819 C820 1.399 . S
C820 H806 0.929 . S
C820 C819 1.399 . S
C820 C821 1.385 . S
C821 H807 0.931 . S
C821 C820 1.385 . S
C821 C822 1.389 . S
C822 C821 1.389 . S
C822 C823 1.387 . S
C823 H808 0.930 . S
C823 C818 1.390 . S
C823 C822 1.387 . S
C189 C15 1.632 . S
C201 C95 1.616 . S
C216 C128 1.526 . S
C228 C30 1.530 . S
C243 C62 1.523 . S
C255 C150 1.529 . S
C270 C87 1.615 . S
C282 C161 1.632 . S
C297 C74 1.527 . S
C309 C172 1.524 . S
C324 C117 1.637 . S
C336 C43 1.611 . S
C351 C139 1.633 . S
C363 C51 1.614 . S
C378 C10 1.529 . S
C390 C106 1.523 . S
C405 C125 1.402 . S
C417 C18 1.394 . S
C432 C29 1.447 . S
C444 C147 1.460 . S
C459 C162 1.395 . S
C471 C59 1.374 . S
C486 C96 1.335 . S
C498 C76 1.330 . S
C513 C98 1.389 . S
C525 C81 1.367 . S
C540 C175 1.457 . S
C552 C65 1.457 . S
C567 C40 1.384 . S
C579 C153 1.390 . S
C594 C120 1.335 . S
C606 C8 1.324 . S
C621 C169 1.396 . S
C633 C52 1.391 . S
C648 C103 1.435 . S
C660 C73 1.430 . S
C675 C118 1.389 . S
C687 C21 1.389 . S
C702 C32 1.329 . S
C714 C140 1.335 . S
C729 C142 1.391 . S
C741 C37 1.366 . S
C756 C7 1.435 . S
C768 C131 1.427 . S
C783 C109 1.388 . S
C795 C84 1.384 . S
C810 C164 1.334 . S
C822 C54 1.325 . S
