# Generated by pormake.
# Topology unv, (4)-cn, num edge types: 1
# Building blocks:
#     Node 0, Type 0, BuildingBlock: KUFVIS_clean_sbu_0, # of connection points: 4
#     Node 1, Type 0, BuildingBlock: KUFVIS_clean_sbu_0, # of connection points: 4
#     Node 2, Type 0, BuildingBlock: KUFVIS_clean_sbu_0, # of connection points: 4
#     Node 3, Type 0, BuildingBlock: KUFVIS_clean_sbu_0, # of connection points: 4
#     Node 4, Type 0, BuildingBlock: KUFVIS_clean_sbu_0, # of connection points: 4
#     Node 5, Type 0, BuildingBlock: KUFVIS_clean_sbu_0, # of connection points: 4
#     Node 6, Type 0, BuildingBlock: KUFVIS_clean_sbu_0, # of connection points: 4
#     Node 7, Type 0, BuildingBlock: KUFVIS_clean_sbu_0, # of connection points: 4
#     Node 8, Type 0, BuildingBlock: KUFVIS_clean_sbu_0, # of connection points: 4
#     Node 9, Type 0, BuildingBlock: KUFVIS_clean_sbu_0, # of connection points: 4
#     Node 10, Type 0, BuildingBlock: KUFVIS_clean_sbu_0, # of connection points: 4
#     Node 11, Type 0, BuildingBlock: KUFVIS_clean_sbu_0, # of connection points: 4
#     Node 12, Type 0, BuildingBlock: KUFVIS_clean_sbu_0, # of connection points: 4
#     Node 13, Type 0, BuildingBlock: KUFVIS_clean_sbu_0, # of connection points: 4
#     Node 14, Type 0, BuildingBlock: KUFVIS_clean_sbu_0, # of connection points: 4
#     Node 15, Type 0, BuildingBlock: KUFVIS_clean_sbu_0, # of connection points: 4
#     Node 16, Type 0, BuildingBlock: KUFVIS_clean_sbu_0, # of connection points: 4
#     Node 17, Type 0, BuildingBlock: KUFVIS_clean_sbu_0, # of connection points: 4
#     Node 18, Type 0, BuildingBlock: KUFVIS_clean_sbu_0, # of connection points: 4
#     Node 19, Type 0, BuildingBlock: KUFVIS_clean_sbu_0, # of connection points: 4
#     Node 20, Type 0, BuildingBlock: KUFVIS_clean_sbu_0, # of connection points: 4
#     Node 21, Type 0, BuildingBlock: KUFVIS_clean_sbu_0, # of connection points: 4
#     Node 22, Type 0, BuildingBlock: KUFVIS_clean_sbu_0, # of connection points: 4
#     Node 23, Type 0, BuildingBlock: KUFVIS_clean_sbu_0, # of connection points: 4
#     Edge 24, Type (0, 0), BuildingBlock: XUDNAN_clean_linker_2, # of connection points: 2
#     Edge 25, Type (0, 0), BuildingBlock: XUDNAN_clean_linker_2, # of connection points: 2
#     Edge 26, Type (0, 0), BuildingBlock: XUDNAN_clean_linker_2, # of connection points: 2
#     Edge 27, Type (0, 0), BuildingBlock: XUDNAN_clean_linker_2, # of connection points: 2
#     Edge 28, Type (0, 0), BuildingBlock: XUDNAN_clean_linker_2, # of connection points: 2
#     Edge 29, Type (0, 0), BuildingBlock: XUDNAN_clean_linker_2, # of connection points: 2
#     Edge 30, Type (0, 0), BuildingBlock: XUDNAN_clean_linker_2, # of connection points: 2
#     Edge 31, Type (0, 0), BuildingBlock: XUDNAN_clean_linker_2, # of connection points: 2
#     Edge 32, Type (0, 0), BuildingBlock: XUDNAN_clean_linker_2, # of connection points: 2
#     Edge 33, Type (0, 0), BuildingBlock: XUDNAN_clean_linker_2, # of connection points: 2
#     Edge 34, Type (0, 0), BuildingBlock: XUDNAN_clean_linker_2, # of connection points: 2
#     Edge 35, Type (0, 0), BuildingBlock: XUDNAN_clean_linker_2, # of connection points: 2
#     Edge 36, Type (0, 0), BuildingBlock: XUDNAN_clean_linker_2, # of connection points: 2
#     Edge 37, Type (0, 0), BuildingBlock: XUDNAN_clean_linker_2, # of connection points: 2
#     Edge 38, Type (0, 0), BuildingBlock: XUDNAN_clean_linker_2, # of connection points: 2
#     Edge 39, Type (0, 0), BuildingBlock: XUDNAN_clean_linker_2, # of connection points: 2
#     Edge 40, Type (0, 0), BuildingBlock: XUDNAN_clean_linker_2, # of connection points: 2
#     Edge 41, Type (0, 0), BuildingBlock: XUDNAN_clean_linker_2, # of connection points: 2
#     Edge 42, Type (0, 0), BuildingBlock: XUDNAN_clean_linker_2, # of connection points: 2
#     Edge 43, Type (0, 0), BuildingBlock: XUDNAN_clean_linker_2, # of connection points: 2
#     Edge 44, Type (0, 0), BuildingBlock: XUDNAN_clean_linker_2, # of connection points: 2
#     Edge 45, Type (0, 0), BuildingBlock: XUDNAN_clean_linker_2, # of connection points: 2
#     Edge 46, Type (0, 0), BuildingBlock: XUDNAN_clean_linker_2, # of connection points: 2
#     Edge 47, Type (0, 0), BuildingBlock: XUDNAN_clean_linker_2, # of connection points: 2
#     Edge 48, Type (0, 0), BuildingBlock: XUDNAN_clean_linker_2, # of connection points: 2
#     Edge 49, Type (0, 0), BuildingBlock: XUDNAN_clean_linker_2, # of connection points: 2
#     Edge 50, Type (0, 0), BuildingBlock: XUDNAN_clean_linker_2, # of connection points: 2
#     Edge 51, Type (0, 0), BuildingBlock: XUDNAN_clean_linker_2, # of connection points: 2
#     Edge 52, Type (0, 0), BuildingBlock: XUDNAN_clean_linker_2, # of connection points: 2
#     Edge 53, Type (0, 0), BuildingBlock: XUDNAN_clean_linker_2, # of connection points: 2
#     Edge 54, Type (0, 0), BuildingBlock: XUDNAN_clean_linker_2, # of connection points: 2
#     Edge 55, Type (0, 0), BuildingBlock: XUDNAN_clean_linker_2, # of connection points: 2
#     Edge 56, Type (0, 0), BuildingBlock: XUDNAN_clean_linker_2, # of connection points: 2
#     Edge 57, Type (0, 0), BuildingBlock: XUDNAN_clean_linker_2, # of connection points: 2
#     Edge 58, Type (0, 0), BuildingBlock: XUDNAN_clean_linker_2, # of connection points: 2
#     Edge 59, Type (0, 0), BuildingBlock: XUDNAN_clean_linker_2, # of connection points: 2
#     Edge 60, Type (0, 0), BuildingBlock: XUDNAN_clean_linker_2, # of connection points: 2
#     Edge 61, Type (0, 0), BuildingBlock: XUDNAN_clean_linker_2, # of connection points: 2
#     Edge 62, Type (0, 0), BuildingBlock: XUDNAN_clean_linker_2, # of connection points: 2
#     Edge 63, Type (0, 0), BuildingBlock: XUDNAN_clean_linker_2, # of connection points: 2
#     Edge 64, Type (0, 0), BuildingBlock: XUDNAN_clean_linker_2, # of connection points: 2
#     Edge 65, Type (0, 0), BuildingBlock: XUDNAN_clean_linker_2, # of connection points: 2
#     Edge 66, Type (0, 0), BuildingBlock: XUDNAN_clean_linker_2, # of connection points: 2
#     Edge 67, Type (0, 0), BuildingBlock: XUDNAN_clean_linker_2, # of connection points: 2
#     Edge 68, Type (0, 0), BuildingBlock: XUDNAN_clean_linker_2, # of connection points: 2
#     Edge 69, Type (0, 0), BuildingBlock: XUDNAN_clean_linker_2, # of connection points: 2
#     Edge 70, Type (0, 0), BuildingBlock: XUDNAN_clean_linker_2, # of connection points: 2
#     Edge 71, Type (0, 0), BuildingBlock: XUDNAN_clean_linker_2, # of connection points: 2
# Relax obj value: 0.328
# Max RMSD: 0.271
# Mean RMSD: 0.240
data_MOF--net-unv--node1-KUFVIS_clean_sbu_0--edge1-XUDNAN_clean_linker_2
_symmetry_space_group_name_H-M    P1
_symmetry_Int_Tables_number       1
_symmetry_cell_setting            triclinic
loop_
_symmetry_equiv_pos_as_xyz
'x, y, z'
_cell_length_a     48.252613
_cell_length_b     48.199883
_cell_length_c     48.167869
_cell_angle_alpha  89.969229
_cell_angle_beta   89.948805
_cell_angle_gamma 90.014218
loop_
_atom_site_label
_atom_site_type_symbol
_atom_site_fract_x
_atom_site_fract_y
_atom_site_fract_z
_atom_type_partial_charge
Mn0 Mn 0.0125 0.10059 0.36839 0.0
Mn1 Mn 0.07554 0.11013 0.34 0.0
C2 C 0.05017 0.10911 0.39663 0.0
C3 C 0.98006 0.06806 0.3832 0.0
C4 C 0.03087 0.15517 0.34278 0.0
O5 O 0.00741 0.08736 0.32901 0.0
O6 O 0.0511 0.08993 0.3132 0.0
C7 C 0.09184 0.05082 0.33747 0.0
N8 N 0.09698 0.07722 0.34621 0.0
C9 C 0.13802 0.06243 0.37043 0.0
C10 C 0.13356 0.03529 0.36099 0.0
C11 C 0.11025 0.02944 0.34461 0.0
C12 C 0.11895 0.0829 0.36263 0.0
H13 H 0.07367 0.04597 0.32547 0.0
C14 C 0.02575 0.08234 0.31074 0.0
O15 O 0.97235 0.09302 0.37638 0.0
O16 O 0.00626 0.06257 0.38181 0.0
N17 N 0.10192 0.12806 0.36377 0.0
C18 C 0.10438 0.15552 0.36987 0.0
C19 C 0.12591 0.16459 0.38721 0.0
C20 C 0.14547 0.14548 0.39717 0.0
C21 C 0.14367 0.11762 0.38908 0.0
C22 C 0.12155 0.10978 0.37196 0.0
H23 H 0.09056 0.17047 0.36088 0.0
O24 O 0.02516 0.11228 0.40599 0.0
O25 O 0.05221 0.09995 0.37138 0.0
O26 O 0.01261 0.14102 0.35574 0.0
O27 O 0.05437 0.14543 0.3348 0.0
C28 C 0.16319 0.09741 0.39703 0.0
C29 C 0.16044 0.06986 0.3876 0.0
H30 H 0.14767 0.01872 0.36656 0.0
H31 H 0.10637 0.00845 0.33763 0.0
H32 H 0.1277 0.18634 0.3925 0.0
H33 H 0.16216 0.15256 0.41042 0.0
H34 H 0.18046 0.10284 0.41031 0.0
H35 H 0.17554 0.05448 0.3939 0.0
Mn36 Mn 0.9828 0.41317 0.35658 0.0
Mn37 Mn 0.9266 0.38241 0.32982 0.0
C38 C 0.94651 0.40218 0.38586 0.0
C39 C 0.00633 0.45451 0.36426 0.0
C40 C 0.98165 0.35298 0.33948 0.0
O41 O 0.98661 0.4185 0.31509 0.0
O42 O 0.94401 0.40635 0.30046 0.0
C43 C 0.8903 0.43078 0.31892 0.0
N44 N 0.89464 0.40585 0.33151 0.0
C45 C 0.84959 0.40736 0.35296 0.0
C46 C 0.84445 0.43275 0.33972 0.0
C47 C 0.86494 0.44455 0.3227 0.0
C48 C 0.87507 0.39432 0.348 0.0
H49 H 0.90619 0.4403 0.30641 0.0
C50 C 0.96767 0.41803 0.29669 0.0
O51 O 0.01965 0.43109 0.36296 0.0
O52 O 0.97965 0.45367 0.36142 0.0
N53 N 0.90785 0.36001 0.35688 0.0
C54 C 0.91709 0.33697 0.37045 0.0
C55 C 0.89981 0.32373 0.38981 0.0
C56 C 0.87321 0.33427 0.39508 0.0
C57 C 0.86412 0.35799 0.38092 0.0
C58 C 0.88217 0.37019 0.36165 0.0
H59 H 0.93753 0.32877 0.3667 0.0
O60 O 0.97107 0.40697 0.39575 0.0
O61 O 0.94407 0.40456 0.35905 0.0
O62 O 0.99319 0.37256 0.35293 0.0
O63 O 0.95802 0.35553 0.32767 0.0
C64 C 0.83812 0.37039 0.3857 0.0
C65 C 0.83083 0.39502 0.3717 0.0
H66 H 0.82507 0.44364 0.34293 0.0
H67 H 0.86132 0.46436 0.31276 0.0
H68 H 0.90703 0.3055 0.40076 0.0
H69 H 0.86004 0.32415 0.41024 0.0
H70 H 0.82374 0.3614 0.40048 0.0
H71 H 0.811 0.40465 0.37596 0.0
Mn72 Mn 0.99094 0.90561 0.13449 0.0
Mn73 Mn 0.05343 0.88457 0.15611 0.0
C74 C 0.02476 0.895 0.10213 0.0
C75 C 0.9627 0.94362 0.12678 0.0
C76 C 0.00125 0.8487 0.15838 0.0
O77 O 0.99181 0.91572 0.17519 0.0
O78 O 0.03695 0.90951 0.18512 0.0
C79 C 0.08455 0.93757 0.15764 0.0
N80 N 0.0815 0.91132 0.14762 0.0
C81 C 0.12372 0.9151 0.12126 0.0
C82 C 0.12775 0.94181 0.13204 0.0
C83 C 0.10792 0.9532 0.15008 0.0
C84 C 0.10025 0.90033 0.1299 0.0
H85 H 0.06927 0.94656 0.17124 0.0
C86 C 0.01284 0.91936 0.19073 0.0
O87 O 0.95185 0.91941 0.1317 0.0
O88 O 0.98942 0.94524 0.12509 0.0
N89 N 0.07132 0.86172 0.12886 0.0
C90 C 0.0632 0.83673 0.11844 0.0
C91 C 0.07979 0.8233 0.09862 0.0
C92 C 0.10441 0.83583 0.08944 0.0
C93 C 0.11207 0.86183 0.09996 0.0
C94 C 0.09477 0.87415 0.11981 0.0
H95 H 0.04397 0.82735 0.12474 0.0
O96 O 0.99887 0.89587 0.0948 0.0
O97 O 0.02964 0.90076 0.12793 0.0
O98 O 0.98553 0.86501 0.14471 0.0
O99 O 0.0262 0.85474 0.16516 0.0
C100 C 0.13591 0.87623 0.09113 0.0
C101 C 0.14184 0.90276 0.10193 0.0
H102 H 0.14564 0.95402 0.12606 0.0
H103 H 0.11059 0.97401 0.15806 0.0
H104 H 0.07347 0.80345 0.09026 0.0
H105 H 0.11705 0.82551 0.07398 0.0
H106 H 0.1497 0.86718 0.07587 0.0
H107 H 0.16013 0.9137 0.09484 0.0
Mn108 Mn 0.97916 0.60401 0.11736 0.0
Mn109 Mn 0.91328 0.60712 0.13928 0.0
C110 C 0.94398 0.613 0.08591 0.0
C111 C 0.01469 0.57514 0.10207 0.0
C112 C 0.95597 0.65273 0.14967 0.0
O113 O 0.98022 0.5854 0.15509 0.0
O114 O 0.93469 0.58275 0.16521 0.0
C115 C 0.89486 0.54886 0.13265 0.0
N116 N 0.89244 0.57617 0.12577 0.0
C117 C 0.85373 0.56654 0.09583 0.0
C118 C 0.85544 0.53842 0.1031 0.0
C119 C 0.87621 0.52953 0.12145 0.0
C120 C 0.87257 0.58493 0.10806 0.0
H121 H 0.91081 0.54183 0.14666 0.0
C122 C 0.96012 0.57626 0.16969 0.0
O123 O 0.02038 0.59921 0.11289 0.0
O124 O 0.98881 0.56859 0.09986 0.0
N125 N 0.89096 0.62908 0.11475 0.0
C126 C 0.89259 0.65676 0.10918 0.0
C127 C 0.87413 0.6687 0.0901 0.0
C128 C 0.85421 0.65208 0.07688 0.0
C129 C 0.853 0.62363 0.08281 0.0
C130 C 0.87193 0.61289 0.10204 0.0
H131 H 0.90802 0.66962 0.11898 0.0
O132 O 0.96937 0.6198 0.08011 0.0
O133 O 0.94041 0.6016 0.11003 0.0
O134 O 0.97569 0.64221 0.13546 0.0
O135 O 0.93272 0.64049 0.15356 0.0
C136 C 0.83398 0.60546 0.07011 0.0
C137 C 0.83423 0.57697 0.07675 0.0
H138 H 0.84122 0.52341 0.09432 0.0
H139 H 0.87789 0.5078 0.12688 0.0
H140 H 0.87533 0.69064 0.0855 0.0
H141 H 0.84009 0.66135 0.06208 0.0
H142 H 0.81911 0.61318 0.05515 0.0
H143 H 0.81951 0.5632 0.06685 0.0
Mn144 Mn 0.38466 0.00915 0.08932 0.0
Mn145 Mn 0.35956 0.07129 0.10821 0.0
C146 C 0.41509 0.04612 0.09446 0.0
C147 C 0.39419 0.97825 0.05352 0.0
C148 C 0.36209 0.02092 0.14646 0.0
O149 O 0.3436 0.0067 0.08094 0.0
O150 O 0.33068 0.05147 0.08581 0.0
C151 C 0.35211 0.10073 0.05468 0.0
N152 N 0.36401 0.0992 0.08027 0.0
C153 C 0.38768 0.14261 0.07316 0.0
C154 C 0.37541 0.14475 0.04687 0.0
C155 C 0.35759 0.12369 0.03758 0.0
C156 C 0.38104 0.11948 0.08951 0.0
H157 H 0.33902 0.08432 0.04714 0.0
C158 C 0.32631 0.02644 0.07757 0.0
O159 O 0.39007 0.96948 0.07871 0.0
O160 O 0.39308 0.00479 0.04939 0.0
N161 N 0.38677 0.09178 0.12868 0.0
C162 C 0.39937 0.08506 0.15307 0.0
C163 C 0.41921 0.10308 0.16441 0.0
C164 C 0.42612 0.12771 0.15044 0.0
C165 C 0.41323 0.134 0.12514 0.0
C166 C 0.39341 0.11536 0.11497 0.0
H167 H 0.39462 0.06594 0.16364 0.0
O168 O 0.42402 0.02075 0.09629 0.0
O169 O 0.3885 0.04862 0.09094 0.0
O170 O 0.37648 0.00542 0.13065 0.0
O171 O 0.35372 0.04505 0.13946 0.0
C172 C 0.41981 0.15767 0.10928 0.0
C173 C 0.40698 0.16202 0.08335 0.0
H174 H 0.37993 0.16222 0.03344 0.0
H175 H 0.34832 0.12499 0.01717 0.0
H176 H 0.42933 0.0979 0.18377 0.0
H177 H 0.44164 0.14143 0.15912 0.0
H178 H 0.43504 0.17245 0.11664 0.0
H179 H 0.41257 0.18005 0.07113 0.0
Mn180 Mn 0.63152 0.46851 0.09771 0.0
Mn181 Mn 0.65605 0.40395 0.10788 0.0
C182 C 0.60071 0.43176 0.10055 0.0
C183 C 0.62047 0.50344 0.06621 0.0
C184 C 0.65412 0.44846 0.15282 0.0
O185 O 0.67218 0.47149 0.08753 0.0
O186 O 0.68477 0.42646 0.08825 0.0
C187 C 0.66257 0.38319 0.05034 0.0
N188 N 0.65134 0.38056 0.07617 0.0
C189 C 0.62833 0.33817 0.06325 0.0
C190 C 0.63996 0.34028 0.03665 0.0
C191 C 0.65711 0.36292 0.03016 0.0
C192 C 0.63496 0.35872 0.08271 0.0
H193 H 0.67536 0.40076 0.04504 0.0
C194 C 0.68916 0.45198 0.08192 0.0
O195 O 0.62608 0.5093 0.09195 0.0
O196 O 0.62134 0.47755 0.05909 0.0
N197 N 0.62926 0.38045 0.1255 0.0
C198 C 0.61689 0.38338 0.15078 0.0
C199 C 0.59746 0.36358 0.15965 0.0
C200 C 0.59082 0.34106 0.14242 0.0
C201 C 0.60357 0.33862 0.11637 0.0
C202 C 0.62297 0.35886 0.10872 0.0
H203 H 0.62153 0.40085 0.16394 0.0
O204 O 0.59242 0.45694 0.10536 0.0
O205 O 0.6269 0.42903 0.09477 0.0
O206 O 0.64107 0.46683 0.13901 0.0
O207 O 0.66183 0.42533 0.14245 0.0
C208 C 0.59714 0.31736 0.09737 0.0
C209 C 0.60957 0.31709 0.07086 0.0
H210 H 0.63544 0.32491 0.02088 0.0
H211 H 0.66593 0.36486 0.00958 0.0
H212 H 0.58747 0.36579 0.17965 0.0
H213 H 0.57559 0.326 0.14922 0.0
H214 H 0.58223 0.30142 0.10273 0.0
H215 H 0.60402 0.30096 0.05624 0.0
Mn216 Mn 0.36177 0.99219 0.39483 0.0
Mn217 Mn 0.33693 0.92815 0.38489 0.0
C218 C 0.39217 0.95657 0.38504 0.0
C219 C 0.3742 0.02462 0.42821 0.0
C220 C 0.33372 0.97454 0.34168 0.0
O221 O 0.32234 0.99416 0.40874 0.0
O222 O 0.31083 0.94903 0.40973 0.0
C223 C 0.33971 0.90533 0.44198 0.0
N224 N 0.34712 0.90397 0.4147 0.0
C225 C 0.37267 0.86182 0.42247 0.0
C226 C 0.36463 0.86237 0.45044 0.0
C227 C 0.34831 0.88438 0.46029 0.0
C228 C 0.36322 0.88313 0.40512 0.0
H229 H 0.3274 0.92229 0.44976 0.0
C230 C 0.30679 0.9744 0.41674 0.0
O231 O 0.36686 0.03262 0.40346 0.0
O232 O 0.37512 0.99821 0.43281 0.0
N233 N 0.36119 0.90588 0.36252 0.0
C234 C 0.36878 0.90934 0.33547 0.0
C235 C 0.38671 0.89011 0.32297 0.0
C236 C 0.3967 0.8675 0.33836 0.0
C237 C 0.38878 0.86441 0.36619 0.0
C238 C 0.37083 0.88423 0.37755 0.0
H239 H 0.36153 0.92678 0.32356 0.0
O240 O 0.39994 0.98222 0.38225 0.0
O241 O 0.36725 0.9529 0.39447 0.0
O242 O 0.34834 0.99234 0.35472 0.0
O243 O 0.32628 0.95126 0.35227 0.0
C244 C 0.39831 0.84263 0.38319 0.0
C245 C 0.39008 0.84121 0.41125 0.0
H246 H 0.37138 0.84633 0.46467 0.0
H247 H 0.34241 0.88522 0.48195 0.0
H248 H 0.3929 0.89278 0.30153 0.0
H249 H 0.41063 0.85277 0.32867 0.0
H250 H 0.41214 0.82696 0.37495 0.0
H251 H 0.39769 0.82447 0.42417 0.0
Mn252 Mn 0.62252 0.50103 0.40495 0.0
Mn253 Mn 0.64659 0.56112 0.37956 0.0
C254 C 0.59152 0.5348 0.3916 0.0
C255 C 0.6143 0.4761 0.44532 0.0
C256 C 0.64597 0.50665 0.34712 0.0
O257 O 0.66308 0.50081 0.41425 0.0
O258 O 0.67556 0.54478 0.40476 0.0
C259 C 0.65025 0.59471 0.43091 0.0
N260 N 0.63982 0.59089 0.40492 0.0
C261 C 0.61482 0.63402 0.40724 0.0
C262 C 0.62588 0.63873 0.43373 0.0
C263 C 0.64348 0.61887 0.4457 0.0
C264 C 0.62258 0.60971 0.39334 0.0
H265 H 0.66355 0.57943 0.44033 0.0
C266 C 0.68014 0.52085 0.41558 0.0
O267 O 0.61839 0.46321 0.42193 0.0
O268 O 0.61362 0.50292 0.44474 0.0
N269 N 0.61992 0.57906 0.35613 0.0
C270 C 0.60911 0.57031 0.33152 0.0
C271 C 0.58974 0.58698 0.31758 0.0
C272 C 0.58149 0.61239 0.32918 0.0
C273 C 0.59256 0.62081 0.35471 0.0
C274 C 0.61193 0.6034 0.36757 0.0
H275 H 0.6148 0.55055 0.32281 0.0
O276 O 0.58332 0.50933 0.39485 0.0
O277 O 0.61739 0.53956 0.39725 0.0
O278 O 0.63214 0.49246 0.36471 0.0
O279 O 0.6537 0.53176 0.35129 0.0
C280 C 0.58472 0.64554 0.36817 0.0
C281 C 0.59598 0.65222 0.39433 0.0
H282 H 0.62053 0.65724 0.44529 0.0
H283 H 0.65175 0.62213 0.46632 0.0
H284 H 0.58101 0.58014 0.29806 0.0
H285 H 0.56637 0.62509 0.31848 0.0
H286 H 0.56982 0.65943 0.3587 0.0
H287 H 0.5896 0.67117 0.40458 0.0
Mn288 Mn 0.09698 0.37102 0.01296 0.0
Mn289 Mn 0.1175 0.36788 0.07951 0.0
C290 C 0.11144 0.41085 0.03592 0.0
C291 C 0.06123 0.37624 0.98112 0.0
C292 C 0.15181 0.34598 0.03122 0.0
O293 O 0.08066 0.3346 0.0264 0.0
O294 O 0.09113 0.33676 0.07202 0.0
C295 C 0.06455 0.37842 0.1089 0.0
N296 N 0.09111 0.38601 0.103 0.0
C297 C 0.08815 0.42501 0.13402 0.0
C298 C 0.0611 0.41706 0.14106 0.0
C299 C 0.04917 0.39379 0.12827 0.0
C300 C 0.1027 0.40852 0.11504 0.0
H301 H 0.05513 0.36074 0.09898 0.0
C302 C 0.07836 0.32581 0.05132 0.0
O303 O 0.08418 0.36396 0.97417 0.0
O304 O 0.05926 0.38541 0.00633 0.0
N305 N 0.14178 0.39801 0.08871 0.0
C306 C 0.16765 0.40361 0.07884 0.0
C307 C 0.18197 0.42702 0.08855 0.0
C308 C 0.16947 0.44461 0.10813 0.0
C309 C 0.14266 0.4387 0.11768 0.0
C310 C 0.12945 0.41496 0.10737 0.0
H311 H 0.17713 0.39057 0.06337 0.0
O312 O 0.11228 0.40966 0.00899 0.0
O313 O 0.10304 0.38838 0.048 0.0
O314 O 0.13557 0.3541 0.01205 0.0
O315 O 0.14675 0.34929 0.05708 0.0
C316 C 0.12834 0.4557 0.13667 0.0
C317 C 0.10116 0.44878 0.14494 0.0
H318 H 0.0491 0.42898 0.15586 0.0
H319 H 0.02812 0.3878 0.13322 0.0
H320 H 0.20253 0.43162 0.0808 0.0
H321 H 0.1805 0.46277 0.11541 0.0
H322 H 0.13801 0.47421 0.14495 0.0
H323 H 0.09034 0.46204 0.15952 0.0
Mn324 Mn 0.084 0.63151 0.5044 0.0
Mn325 Mn 0.10515 0.66136 0.44511 0.0
C326 C 0.08708 0.60503 0.46453 0.0
C327 C 0.04805 0.62138 0.53491 0.0
C328 C 0.14328 0.64832 0.49355 0.0
O329 O 0.07959 0.67284 0.51141 0.0
O330 O 0.08558 0.68966 0.4681 0.0
C331 C 0.05169 0.67549 0.41834 0.0
N332 N 0.07648 0.66198 0.41768 0.0
C333 C 0.06629 0.64283 0.37268 0.0
C334 C 0.04093 0.65703 0.37268 0.0
C335 C 0.03358 0.67336 0.39566 0.0
C336 C 0.08377 0.64618 0.39565 0.0
H337 H 0.04554 0.68739 0.43623 0.0
C338 C 0.07744 0.69217 0.49339 0.0
O339 O 0.07355 0.6226 0.54347 0.0
O340 O 0.04358 0.62633 0.50884 0.0
N341 N 0.12303 0.6349 0.42136 0.0
C342 C 0.14676 0.62022 0.42583 0.0
C343 C 0.15594 0.60126 0.40571 0.0
C344 C 0.14065 0.59752 0.38122 0.0
C345 C 0.1163 0.6128 0.37705 0.0
C346 C 0.10826 0.63159 0.39774 0.0
H347 H 0.15855 0.62274 0.44466 0.0
O348 O 0.08725 0.59318 0.48875 0.0
O349 O 0.08534 0.63189 0.46475 0.0
O350 O 0.1258 0.6343 0.5075 0.0
O351 O 0.13707 0.66143 0.47134 0.0
C352 C 0.09931 0.60955 0.35351 0.0
C353 C 0.07437 0.62462 0.35128 0.0
H354 H 0.02669 0.65506 0.35542 0.0
H355 H 0.01384 0.68402 0.39604 0.0
H356 H 0.17468 0.58942 0.40915 0.0
H357 H 0.14765 0.58265 0.36589 0.0
H358 H 0.105 0.59516 0.33721 0.0
H359 H 0.06122 0.62156 0.33333 0.0
Mn360 Mn 0.90921 0.88001 0.51181 0.0
Mn361 Mn 0.89298 0.85567 0.44877 0.0
C362 C 0.90111 0.91098 0.47617 0.0
C363 C 0.94469 0.88921 0.543 0.0
C364 C 0.85259 0.858 0.49724 0.0
O365 O 0.91824 0.83905 0.51392 0.0
O366 O 0.91578 0.82743 0.4688 0.0
C367 C 0.94886 0.85301 0.42333 0.0
N368 N 0.92234 0.86268 0.42297 0.0
C369 C 0.9306 0.88738 0.38034 0.0
C370 C 0.95769 0.87687 0.37978 0.0
C371 C 0.96695 0.85986 0.40154 0.0
C372 C 0.91344 0.87965 0.40249 0.0
H373 H 0.95626 0.84037 0.44021 0.0
C374 C 0.92322 0.82256 0.4939 0.0
O375 O 0.91957 0.88468 0.55177 0.0
O376 O 0.94875 0.88885 0.51643 0.0
N377 N 0.87202 0.88175 0.42721 0.0
C378 C 0.84568 0.89111 0.43131 0.0
C379 C 0.83401 0.90992 0.41239 0.0
C380 C 0.84938 0.91871 0.38925 0.0
C381 C 0.87629 0.90854 0.38521 0.0
C382 C 0.88687 0.88987 0.40481 0.0
H383 H 0.83359 0.88431 0.44881 0.0
O384 O 0.90091 0.91935 0.50177 0.0
O385 O 0.90738 0.88507 0.47241 0.0
O386 O 0.86798 0.87184 0.51367 0.0
O387 O 0.8608 0.84844 0.47382 0.0
C388 C 0.89307 0.91636 0.36258 0.0
C389 C 0.92014 0.90562 0.36004 0.0
H390 H 0.97174 0.88226 0.36307 0.0
H391 H 0.988 0.85214 0.40157 0.0
H392 H 0.81317 0.91759 0.41562 0.0
H393 H 0.84031 0.93326 0.37472 0.0
H394 H 0.88542 0.93071 0.34707 0.0
H395 H 0.93291 0.91191 0.34263 0.0
Mn396 Mn 0.40155 0.63374 0.50315 0.0
Mn397 Mn 0.38816 0.66139 0.56575 0.0
C398 C 0.39628 0.60489 0.54101 0.0
C399 C 0.43485 0.62331 0.46994 0.0
C400 C 0.34495 0.65442 0.52019 0.0
O401 O 0.40953 0.67467 0.49808 0.0
O402 O 0.40855 0.68893 0.54244 0.0
C403 C 0.44583 0.66704 0.58624 0.0
N404 N 0.41963 0.65702 0.58956 0.0
C405 C 0.43207 0.63518 0.63272 0.0
C406 C 0.45889 0.64607 0.63018 0.0
C407 C 0.46587 0.66185 0.60669 0.0
C408 C 0.41294 0.64112 0.61169 0.0
H409 H 0.45153 0.67865 0.56799 0.0
C410 C 0.41511 0.69237 0.51687 0.0
O411 O 0.40908 0.62696 0.46295 0.0
O412 O 0.44093 0.62534 0.49606 0.0
N413 N 0.36976 0.63635 0.5907 0.0
C414 C 0.34317 0.62685 0.58995 0.0
C415 C 0.33349 0.60929 0.6111 0.0
C416 C 0.35104 0.60212 0.63318 0.0
C417 C 0.37804 0.6128 0.63402 0.0
C418 C 0.38658 0.63014 0.61228 0.0
H419 H 0.32932 0.63278 0.57353 0.0
O420 O 0.39489 0.59492 0.51603 0.0
O421 O 0.40213 0.63108 0.54292 0.0
O422 O 0.36011 0.64073 0.50345 0.0
O423 O 0.35393 0.66546 0.54268 0.0
C424 C 0.39681 0.6069 0.65561 0.0
C425 C 0.42373 0.61824 0.65505 0.0
H426 H 0.47444 0.64198 0.64586 0.0
H427 H 0.48669 0.66986 0.60427 0.0
H428 H 0.31249 0.60144 0.61046 0.0
H429 H 0.34351 0.58856 0.64946 0.0
H430 H 0.39077 0.59359 0.67271 0.0
H431 H 0.43805 0.61341 0.67168 0.0
Mn432 Mn 0.50076 0.58908 0.87868 0.0
Mn433 Mn 0.56476 0.60906 0.86046 0.0
C434 C 0.53323 0.59771 0.91309 0.0
C435 C 0.46952 0.55293 0.88467 0.0
C436 C 0.51379 0.64594 0.85724 0.0
O437 O 0.50359 0.58028 0.83743 0.0
O438 O 0.54991 0.58244 0.83241 0.0
C439 C 0.59963 0.55846 0.85936 0.0
N440 N 0.59288 0.58316 0.87133 0.0
C441 C 0.63121 0.57948 0.90311 0.0
C442 C 0.63789 0.5536 0.8917 0.0
C443 C 0.62209 0.5431 0.86964 0.0
C444 C 0.60862 0.59391 0.8919 0.0
H445 H 0.58853 0.55088 0.84155 0.0
C446 C 0.52596 0.57329 0.82522 0.0
O447 O 0.461 0.57792 0.87924 0.0
O448 O 0.49606 0.54915 0.8868 0.0
N449 N 0.58054 0.633 0.88822 0.0
C450 C 0.5732 0.65935 0.89539 0.0
C451 C 0.5873 0.67297 0.9169 0.0
C452 C 0.6092 0.65961 0.93059 0.0
C453 C 0.61698 0.63283 0.92242 0.0
C454 C 0.60198 0.62017 0.90097 0.0
H455 H 0.55696 0.67012 0.88469 0.0
O456 O 0.50698 0.59708 0.91902 0.0
O457 O 0.53939 0.59252 0.88742 0.0
O458 O 0.49778 0.63018 0.87102 0.0
O459 O 0.53776 0.63838 0.8487 0.0
C460 C 0.63913 0.61828 0.93466 0.0
C461 C 0.64637 0.5917 0.92487 0.0
H462 H 0.65528 0.54174 0.89953 0.0
H463 H 0.62745 0.52339 0.86033 0.0
H464 H 0.58141 0.69382 0.92279 0.0
H465 H 0.62009 0.67022 0.94713 0.0
H466 H 0.65099 0.6275 0.95136 0.0
H467 H 0.66375 0.58091 0.93412 0.0
Mn468 Mn 0.50873 0.9073 0.85565 0.0
Mn469 Mn 0.44518 0.88641 0.83773 0.0
C470 C 0.4758 0.90202 0.89 0.0
C471 C 0.53804 0.9454 0.85621 0.0
C472 C 0.49534 0.84812 0.84195 0.0
O473 O 0.50787 0.90979 0.81374 0.0
O474 O 0.4621 0.9078 0.80641 0.0
C475 C 0.4175 0.94107 0.83237 0.0
N476 N 0.41881 0.9154 0.84419 0.0
C477 C 0.37878 0.925 0.87244 0.0
C478 C 0.3766 0.9512 0.85999 0.0
C479 C 0.39618 0.95934 0.84002 0.0
C480 C 0.40042 0.90762 0.86389 0.0
H481 H 0.43273 0.94771 0.81741 0.0
C482 C 0.48665 0.91471 0.79892 0.0
O483 O 0.54827 0.92042 0.85558 0.0
O484 O 0.51139 0.94785 0.85766 0.0
N485 N 0.42624 0.86691 0.86691 0.0
C486 C 0.43103 0.84096 0.87706 0.0
C487 C 0.41406 0.83032 0.89821 0.0
C488 C 0.39187 0.84618 0.90834 0.0
C489 C 0.38667 0.87242 0.89696 0.0
C490 C 0.40435 0.88198 0.87593 0.0
H491 H 0.4474 0.82827 0.8689 0.0
O492 O 0.50175 0.90477 0.89651 0.0
O493 O 0.47007 0.90432 0.86381 0.0
O494 O 0.5117 0.8654 0.85352 0.0
O495 O 0.47155 0.85472 0.8319 0.0
C496 C 0.3646 0.88945 0.90566 0.0
C497 C 0.36057 0.91565 0.89331 0.0
H498 H 0.36026 0.96541 0.86596 0.0
H499 H 0.39494 0.97972 0.83064 0.0
H500 H 0.41795 0.80983 0.90654 0.0
H501 H 0.37882 0.83791 0.92467 0.0
H502 H 0.35061 0.8826 0.92188 0.0
H503 H 0.34358 0.9286 0.90024 0.0
Mn504 Mn 0.49885 0.41048 0.64196 0.0
Mn505 Mn 0.5595 0.38418 0.66432 0.0
C506 C 0.53459 0.40412 0.61081 0.0
C507 C 0.4698 0.44824 0.63525 0.0
C508 C 0.50774 0.34959 0.65569 0.0
O509 O 0.49721 0.41597 0.68355 0.0
O510 O 0.54036 0.40287 0.69594 0.0
C511 C 0.58989 0.43547 0.67916 0.0
N512 N 0.58802 0.41174 0.66391 0.0
C513 C 0.63146 0.42127 0.64123 0.0
C514 C 0.63391 0.44571 0.65681 0.0
C515 C 0.61303 0.45283 0.67585 0.0
C516 C 0.60815 0.40453 0.64574 0.0
H517 H 0.57382 0.44121 0.69367 0.0
C518 C 0.51685 0.41423 0.70113 0.0
O519 O 0.45991 0.42331 0.6379 0.0
O520 O 0.4965 0.45114 0.63662 0.0
N521 N 0.57993 0.36686 0.63492 0.0
C522 C 0.57315 0.34411 0.61956 0.0
C523 C 0.59109 0.33517 0.59842 0.0
C524 C 0.61579 0.34969 0.59325 0.0
C525 C 0.62233 0.37305 0.60928 0.0
C526 C 0.60376 0.38089 0.63022 0.0
H527 H 0.55408 0.333 0.62319 0.0
O528 O 0.50915 0.40569 0.60218 0.0
O529 O 0.53817 0.40623 0.6375 0.0
O530 O 0.49294 0.36893 0.64558 0.0
O531 O 0.53217 0.35337 0.6651 0.0
C532 C 0.64618 0.38931 0.60476 0.0
C533 C 0.65078 0.41336 0.62077 0.0
H534 H 0.65155 0.45935 0.65406 0.0
H535 H 0.61469 0.47175 0.68782 0.0
H536 H 0.5858 0.31723 0.58601 0.0
H537 H 0.62942 0.3429 0.57671 0.0
H538 H 0.6609 0.38376 0.5887 0.0
H539 H 0.66897 0.42593 0.61679 0.0
Mn540 Mn 0.49241 0.09379 0.62012 0.0
Mn541 Mn 0.42902 0.10571 0.64634 0.0
C542 C 0.45599 0.10205 0.59028 0.0
C543 C 0.52479 0.06011 0.60855 0.0
C544 C 0.47517 0.14904 0.64419 0.0
O545 O 0.49585 0.08254 0.66033 0.0
O546 O 0.45135 0.08403 0.67384 0.0
C547 C 0.40855 0.04774 0.64884 0.0
N548 N 0.40567 0.0743 0.63956 0.0
C549 C 0.3638 0.06251 0.61515 0.0
C550 C 0.36596 0.03525 0.62507 0.0
C551 C 0.38856 0.02779 0.64181 0.0
C552 C 0.38432 0.08153 0.62292 0.0
H553 H 0.42606 0.0417 0.66132 0.0
C554 C 0.47667 0.07684 0.67752 0.0
O555 O 0.53264 0.08531 0.6142 0.0
O556 O 0.49846 0.05504 0.60898 0.0
N557 N 0.4049 0.12519 0.62139 0.0
C558 C 0.40566 0.15231 0.61347 0.0
C559 C 0.38539 0.16262 0.59532 0.0
C560 C 0.36407 0.14514 0.58602 0.0
C561 C 0.36306 0.11758 0.59525 0.0
C562 C 0.38398 0.10842 0.6132 0.0
H563 H 0.42134 0.16608 0.62123 0.0
O564 O 0.48138 0.10392 0.58158 0.0
O565 O 0.45286 0.09399 0.61583 0.0
O566 O 0.49268 0.13463 0.63061 0.0
O567 O 0.45178 0.13973 0.65284 0.0
C568 C 0.34207 0.09887 0.58736 0.0
C569 C 0.34234 0.07141 0.59745 0.0
H570 H 0.35064 0.01977 0.61957 0.0
H571 H 0.39063 0.00668 0.6492 0.0
H572 H 0.38605 0.18408 0.58871 0.0
H573 H 0.34842 0.15318 0.57206 0.0
H574 H 0.32563 0.10538 0.57351 0.0
H575 H 0.32617 0.05717 0.59113 0.0
Mn576 Mn 0.85724 0.49136 0.59093 0.0
Mn577 Mn 0.83451 0.55277 0.61405 0.0
C578 C 0.88906 0.52483 0.60347 0.0
C579 C 0.86491 0.46498 0.55133 0.0
C580 C 0.83297 0.49921 0.64808 0.0
O581 O 0.81669 0.492 0.58128 0.0
O582 O 0.80616 0.5369 0.588 0.0
C583 C 0.83319 0.58587 0.5622 0.0
N584 N 0.8429 0.58198 0.58847 0.0
C585 C 0.86852 0.62478 0.58666 0.0
C586 C 0.85828 0.62952 0.55985 0.0
C587 C 0.84073 0.60985 0.54748 0.0
C588 C 0.86008 0.60062 0.60043 0.0
H589 H 0.81976 0.57082 0.55253 0.0
C590 C 0.80101 0.51288 0.57768 0.0
O591 O 0.86042 0.45294 0.5751 0.0
O592 O 0.86636 0.49178 0.55109 0.0
N593 N 0.86097 0.57029 0.63804 0.0
C594 C 0.87096 0.56153 0.663 0.0
C595 C 0.89011 0.57804 0.67742 0.0
C596 C 0.89904 0.60327 0.66592 0.0
C597 C 0.88892 0.61163 0.63996 0.0
C598 C 0.86976 0.59437 0.62661 0.0
H599 H 0.86486 0.54186 0.67161 0.0
O600 O 0.89671 0.49911 0.60098 0.0
O601 O 0.86336 0.52995 0.59755 0.0
O602 O 0.84716 0.48426 0.63142 0.0
O603 O 0.82559 0.52418 0.64266 0.0
C604 C 0.89747 0.6362 0.62662 0.0
C605 C 0.8871 0.64288 0.60008 0.0
H606 H 0.86418 0.64793 0.54836 0.0
H607 H 0.83303 0.61317 0.52664 0.0
H608 H 0.89816 0.57119 0.69724 0.0
H609 H 0.91397 0.61586 0.67701 0.0
H610 H 0.91219 0.65 0.63648 0.0
H611 H 0.89395 0.66175 0.58996 0.0
Mn612 Mn 0.14013 0.00785 0.59874 0.0
Mn613 Mn 0.16302 0.94611 0.62118 0.0
C614 C 0.10844 0.97381 0.60965 0.0
C615 C 0.13211 0.03666 0.56098 0.0
C616 C 0.15977 0.9977 0.65738 0.0
O617 O 0.18115 0.00838 0.5903 0.0
O618 O 0.1921 0.96362 0.59711 0.0
C619 C 0.16623 0.9164 0.56738 0.0
N620 N 0.15625 0.91814 0.5938 0.0
C621 C 0.13064 0.87566 0.58825 0.0
C622 C 0.14135 0.87301 0.56131 0.0
C623 C 0.15903 0.89361 0.55076 0.0
C624 C 0.13869 0.89877 0.60392 0.0
H625 H 0.17933 0.9324 0.55891 0.0
C626 C 0.1973 0.98776 0.58711 0.0
O627 O 0.1367 0.04691 0.58551 0.0
O628 O 0.13188 0.00986 0.55867 0.0
N629 N 0.13623 0.92664 0.64332 0.0
C630 C 0.12649 0.93284 0.66917 0.0
C631 C 0.10718 0.91518 0.68194 0.0
C632 C 0.09824 0.89113 0.66819 0.0
C633 C 0.1088 0.8849 0.64181 0.0
C634 C 0.12804 0.90328 0.63009 0.0
H635 H 0.13333 0.95109 0.68005 0.0
O636 O 0.10059 0.99945 0.60724 0.0
O637 O 0.13429 0.96883 0.60398 0.0
O638 O 0.14741 0.01298 0.63975 0.0
O639 O 0.1696 0.97365 0.65164 0.0
C640 C 0.10077 0.86129 0.62659 0.0
C641 C 0.11182 0.85659 0.5999 0.0
H642 H 0.13568 0.85555 0.54836 0.0
H643 H 0.16697 0.89201 0.5298 0.0
H644 H 0.09921 0.92008 0.70236 0.0
H645 H 0.08326 0.8776 0.67808 0.0
H646 H 0.08596 0.84671 0.63514 0.0
H647 H 0.10528 0.8385 0.58829 0.0
Mn648 Mn 0.86362 0.47772 0.89546 0.0
Mn649 Mn 0.84617 0.41058 0.89063 0.0
C650 C 0.89759 0.44465 0.88782 0.0
C651 C 0.8746 0.51366 0.92586 0.0
C652 C 0.83577 0.45309 0.84474 0.0
O653 O 0.82487 0.47628 0.91151 0.0
O654 O 0.81797 0.43014 0.91388 0.0
C655 C 0.85182 0.39272 0.94924 0.0
N656 N 0.85956 0.39042 0.92212 0.0
C657 C 0.89144 0.35363 0.93303 0.0
C658 C 0.88331 0.35518 0.96094 0.0
C659 C 0.86356 0.37495 0.9691 0.0
C660 C 0.87872 0.37161 0.91409 0.0
H661 H 0.83681 0.40798 0.95571 0.0
C662 C 0.81138 0.4552 0.92006 0.0
O663 O 0.86502 0.5191 0.90118 0.0
O664 O 0.8781 0.48783 0.93213 0.0
N665 N 0.87286 0.3898 0.86969 0.0
C666 C 0.87929 0.39165 0.8422 0.0
C667 C 0.89964 0.3741 0.83098 0.0
C668 C 0.91325 0.35489 0.84812 0.0
C669 C 0.90641 0.35342 0.87637 0.0
C670 C 0.88584 0.37133 0.88637 0.0
H671 H 0.8692 0.40655 0.82894 0.0
O672 O 0.90235 0.47053 0.88203 0.0
O673 O 0.87321 0.43944 0.89777 0.0
O674 O 0.84824 0.47353 0.85611 0.0
O675 O 0.83243 0.42956 0.85671 0.0
C676 C 0.91949 0.33517 0.89507 0.0
C677 C 0.91192 0.33517 0.92335 0.0
H678 H 0.89247 0.34164 0.97636 0.0
H679 H 0.85746 0.37655 0.99066 0.0
H680 H 0.90494 0.3755 0.80918 0.0
H681 H 0.92908 0.34153 0.83942 0.0
H682 H 0.93551 0.32113 0.88794 0.0
H683 H 0.92221 0.32112 0.93755 0.0
Mn684 Mn 0.13297 0.01402 0.91696 0.0
Mn685 Mn 0.16156 0.07538 0.90028 0.0
C686 C 0.10565 0.0535 0.91604 0.0
C687 C 0.1224 0.98088 0.95047 0.0
C688 C 0.15088 0.02916 0.85877 0.0
O689 O 0.17438 0.00785 0.92227 0.0
O690 O 0.19007 0.05183 0.91861 0.0
C691 C 0.17431 0.0987 0.95576 0.0
N692 N 0.16106 0.10072 0.93087 0.0
C693 C 0.14058 0.14434 0.94397 0.0
C694 C 0.15446 0.14294 0.96948 0.0
C695 C 0.17135 0.11997 0.97542 0.0
C696 C 0.14477 0.12276 0.92493 0.0
H697 H 0.18667 0.08079 0.96079 0.0
C698 C 0.19314 0.02629 0.92561 0.0
O699 O 0.12472 0.97416 0.92446 0.0
O700 O 0.12665 0.00665 0.95691 0.0
N701 N 0.13477 0.09966 0.88369 0.0
C702 C 0.12061 0.09655 0.85943 0.0
C703 C 0.10122 0.11672 0.85142 0.0
C704 C 0.09655 0.13991 0.8684 0.0
C705 C 0.11136 0.14272 0.89326 0.0
C706 C 0.13059 0.12204 0.9001 0.0
H707 H 0.12389 0.07875 0.84633 0.0
O708 O 0.09436 0.02914 0.91379 0.0
O709 O 0.13243 0.05366 0.91827 0.0
O710 O 0.13691 0.01373 0.87498 0.0
O711 O 0.16282 0.05149 0.86657 0.0
C712 C 0.10722 0.16487 0.91187 0.0
C713 C 0.12189 0.16573 0.93716 0.0
H714 H 0.15185 0.15908 0.9849 0.0
H715 H 0.18179 0.11851 0.99525 0.0
H716 H 0.08978 0.11432 0.83225 0.0
H717 H 0.08135 0.15527 0.8623 0.0
H718 H 0.09246 0.18113 0.90715 0.0
H719 H 0.11816 0.18262 0.95152 0.0
Mn720 Mn 0.59253 0.86718 0.49024 0.0
Mn721 Mn 0.61013 0.84403 0.55348 0.0
C722 C 0.60129 0.89874 0.5251 0.0
C723 C 0.55661 0.87588 0.45942 0.0
C724 C 0.64996 0.84693 0.50458 0.0
O725 O 0.58365 0.82621 0.48893 0.0
O726 O 0.58764 0.81509 0.53402 0.0
C727 C 0.55425 0.84084 0.57893 0.0
N728 N 0.5807 0.85073 0.5793 0.0
C729 C 0.57199 0.87587 0.62156 0.0
C730 C 0.54499 0.86513 0.62212 0.0
C731 C 0.536 0.84776 0.60055 0.0
C732 C 0.58932 0.86807 0.59956 0.0
H733 H 0.547 0.82801 0.56214 0.0
C734 C 0.57935 0.80992 0.50926 0.0
O735 O 0.58158 0.87113 0.45037 0.0
O736 O 0.55292 0.87586 0.48605 0.0
N737 N 0.63068 0.87066 0.57476 0.0
C738 C 0.65694 0.88027 0.57068 0.0
C739 C 0.66832 0.89944 0.58941 0.0
C740 C 0.65278 0.90828 0.61239 0.0
C741 C 0.62601 0.89775 0.61651 0.0
C742 C 0.61572 0.87872 0.59711 0.0
H743 H 0.66922 0.87337 0.55338 0.0
O744 O 0.60087 0.90666 0.49935 0.0
O745 O 0.59505 0.87292 0.52956 0.0
O746 O 0.63372 0.85938 0.48787 0.0
O747 O 0.6424 0.83747 0.52829 0.0
C748 C 0.60909 0.90555 0.63904 0.0
C749 C 0.58217 0.89447 0.64165 0.0
H750 H 0.5308 0.87059 0.63868 0.0
H751 H 0.515 0.83986 0.60049 0.0
H752 H 0.68908 0.90732 0.58616 0.0
H753 H 0.66161 0.9231 0.62678 0.0
H754 H 0.61652 0.92019 0.65438 0.0
H755 H 0.56926 0.90081 0.65893 0.0
Mn756 Mn 0.60505 0.13855 0.96827 0.0
Mn757 Mn 0.62051 0.16578 0.90612 0.0
C758 C 0.61143 0.10873 0.93108 0.0
C759 C 0.56873 0.12918 0.99874 0.0
C760 C 0.66084 0.16276 0.95499 0.0
O761 O 0.5964 0.17947 0.97177 0.0
O762 O 0.59651 0.19249 0.92697 0.0
C763 C 0.56586 0.17008 0.87844 0.0
N764 N 0.59236 0.16033 0.87874 0.0
C765 C 0.58624 0.13857 0.83419 0.0
C766 C 0.55903 0.14871 0.83328 0.0
C767 C 0.54878 0.16448 0.85554 0.0
C768 C 0.6025 0.14527 0.85733 0.0
H769 H 0.55768 0.18175 0.89568 0.0
C770 C 0.58966 0.1962 0.95246 0.0
O771 O 0.5938 0.13247 0.00815 0.0
O772 O 0.56539 0.13017 0.97214 0.0
N773 N 0.64238 0.14083 0.88416 0.0
C774 C 0.66771 0.12968 0.88979 0.0
C775 C 0.68009 0.11168 0.87053 0.0
C776 C 0.66627 0.10516 0.84575 0.0
C777 C 0.64008 0.11659 0.84052 0.0
C778 C 0.62885 0.13461 0.86038 0.0
H779 H 0.67834 0.13421 0.90891 0.0
O780 O 0.61267 0.09953 0.9564 0.0
O781 O 0.60627 0.13511 0.9286 0.0
O782 O 0.64651 0.14707 0.97084 0.0
O783 O 0.65171 0.17249 0.93203 0.0
C784 C 0.62436 0.11017 0.81675 0.0
C785 C 0.59749 0.12121 0.81354 0.0
H786 H 0.54565 0.14407 0.81584 0.0
H787 H 0.52769 0.17209 0.85516 0.0
H788 H 0.70018 0.1027 0.87487 0.0
H789 H 0.67578 0.09105 0.83107 0.0
H790 H 0.63254 0.09633 0.80104 0.0
H791 H 0.5854 0.11566 0.79544 0.0
Mn792 Mn 0.39845 0.3538 0.99051 0.0
Mn793 Mn 0.38112 0.33564 0.9261 0.0
C794 C 0.38755 0.38821 0.95885 0.0
C795 C 0.43629 0.35972 0.01952 0.0
C796 C 0.34375 0.32804 0.97684 0.0
O797 O 0.40918 0.31338 0.98705 0.0
O798 O 0.4086 0.3082 0.94076 0.0
C799 C 0.43416 0.3414 0.89558 0.0
N800 N 0.40721 0.34899 0.8993 0.0
C801 C 0.40949 0.38054 0.86062 0.0
C802 C 0.43703 0.37253 0.856 0.0
C803 C 0.44948 0.35302 0.87368 0.0
C804 C 0.3951 0.3679 0.8825 0.0
H805 H 0.44395 0.32659 0.90919 0.0
C806 C 0.41677 0.30091 0.96505 0.0
O807 O 0.41209 0.35391 0.03 0.0
O808 O 0.43777 0.3636 0.99301 0.0
N809 N 0.35587 0.36189 0.91006 0.0
C810 C 0.32933 0.36797 0.91763 0.0
C811 C 0.31445 0.38815 0.90282 0.0
C812 C 0.32691 0.40183 0.88032 0.0
C813 C 0.35418 0.3952 0.8728 0.0
C814 C 0.368 0.37485 0.88829 0.0
H815 H 0.31951 0.35763 0.93485 0.0
O816 O 0.3881 0.39379 0.98523 0.0
O817 O 0.39422 0.36304 0.95238 0.0
O818 O 0.35787 0.34269 0.99379 0.0
O819 O 0.35228 0.32177 0.95238 0.0
C820 C 0.36829 0.40823 0.85074 0.0
C821 C 0.39588 0.40081 0.84457 0.0
H822 H 0.44898 0.3816 0.83925 0.0
H823 H 0.47086 0.34703 0.8705 0.0
H824 H 0.29341 0.39317 0.90877 0.0
H825 H 0.3154 0.41748 0.86902 0.0
H826 H 0.35814 0.42406 0.83844 0.0
H827 H 0.40654 0.41103 0.82761 0.0
Mn828 Mn 0.9115 0.15106 0.02416 0.0
Mn829 Mn 0.87767 0.16455 0.08376 0.0
C830 C 0.89983 0.11492 0.05363 0.0
C831 C 0.9536 0.14755 0.00095 0.0
C832 C 0.85096 0.16737 0.02654 0.0
O833 O 0.91756 0.19225 0.03 0.0
O834 O 0.90077 0.19745 0.07341 0.0
C835 C 0.9239 0.1703 0.12382 0.0
N836 N 0.89999 0.15758 0.11583 0.0
C837 C 0.90048 0.12831 0.15634 0.0
C838 C 0.92488 0.1414 0.16517 0.0
C839 C 0.93666 0.16243 0.14879 0.0
C840 C 0.88836 0.1374 0.13152 0.0
H841 H 0.93337 0.18609 0.11111 0.0
C842 C 0.91483 0.20609 0.05242 0.0
O843 O 0.9308 0.15216 0.98738 0.0
O844 O 0.9518 0.14489 0.02766 0.0
N845 N 0.85615 0.13332 0.0958 0.0
C846 C 0.83512 0.12004 0.08241 0.0
C847 C 0.82236 0.09704 0.09493 0.0
C848 C 0.83155 0.08769 0.12094 0.0
C849 C 0.8536 0.1013 0.1341 0.0
C850 C 0.86532 0.12433 0.12076 0.0
H851 H 0.82847 0.12657 0.0621 0.0
O852 O 0.90475 0.11016 0.02755 0.0
O853 O 0.90151 0.14068 0.06127 0.0
O854 O 0.87142 0.15792 0.01276 0.0
O855 O 0.8518 0.17197 0.05264 0.0
C856 C 0.86501 0.09229 0.15945 0.0
C857 C 0.88837 0.10585 0.17062 0.0
H858 H 0.93504 0.13508 0.18419 0.0
H859 H 0.95569 0.17238 0.15528 0.0
H860 H 0.80567 0.08636 0.08441 0.0
H861 H 0.82191 0.06969 0.13036 0.0
H862 H 0.85635 0.07456 0.17024 0.0
H863 H 0.89733 0.09834 0.18982 0.0
H864 H 0.12307 0.01949 0.50806 0.0
H865 H 0.12921 0.09363 0.55871 0.0
H866 H 0.11732 0.12233 0.51777 0.0
H867 H 0.14931 0.0496 0.44273 0.0
H868 H 0.12492 0.03002 0.42211 0.0
H869 H 0.13781 0.01597 0.45423 0.0
H870 H 0.08773 0.0097 0.47231 0.0
H871 H 0.07464 0.0232 0.44015 0.0
H872 H 0.06456 0.03904 0.47252 0.0
H873 H 0.09685 0.14158 0.47387 0.0
H874 H 0.06893 0.14936 0.43142 0.0
H875 H 0.0788 0.06308 0.40898 0.0
C876 C 0.1225 0.04182 0.51048 0.0
C877 C 0.12711 0.05437 0.53651 0.0
C878 C 0.12583 0.08361 0.53888 0.0
C879 C 0.11926 0.10006 0.51571 0.0
C880 C 0.11439 0.08692 0.49036 0.0
C881 C 0.11602 0.05842 0.48769 0.0
C882 C 0.10701 0.04891 0.45923 0.0
C883 C 0.13122 0.03535 0.44361 0.0
C884 C 0.08201 0.02907 0.46119 0.0
C885 C 0.09902 0.07643 0.44646 0.0
C886 C 0.10368 0.09821 0.46462 0.0
C887 C 0.09398 0.12492 0.45909 0.0
C888 C 0.07822 0.12921 0.435 0.0
C889 C 0.07282 0.10701 0.41669 0.0
C890 C 0.084 0.0806 0.42206 0.0
H891 H 0.94192 0.37879 0.43704 0.0
H892 H 0.90118 0.43441 0.37979 0.0
H893 H 0.86671 0.44613 0.41526 0.0
H894 H 0.87841 0.36109 0.48328 0.0
H895 H 0.89953 0.36333 0.51405 0.0
H896 H 0.91432 0.35088 0.48198 0.0
H897 H 0.95269 0.38827 0.48536 0.0
H898 H 0.93797 0.40105 0.51708 0.0
H899 H 0.94299 0.4243 0.48817 0.0
H900 H 0.84463 0.46081 0.45787 0.0
H901 H 0.83783 0.47935 0.50495 0.0
H902 H 0.8946 0.418 0.53788 0.0
C903 C 0.92467 0.39214 0.43172 0.0
C904 C 0.92276 0.40396 0.40496 0.0
C905 C 0.90147 0.42319 0.39923 0.0
C906 C 0.88203 0.43031 0.41953 0.0
C907 C 0.88478 0.41885 0.44594 0.0
C908 C 0.90565 0.4002 0.45222 0.0
C909 C 0.90783 0.39578 0.48338 0.0
C910 C 0.89952 0.366 0.49113 0.0
C911 C 0.93709 0.40279 0.4941 0.0
C912 C 0.88648 0.41648 0.49368 0.0
C913 C 0.87278 0.42874 0.4716 0.0
C914 C 0.85465 0.45089 0.47534 0.0
C915 C 0.85107 0.4614 0.50211 0.0
C916 C 0.86557 0.44988 0.52484 0.0
C917 C 0.88277 0.42657 0.52081 0.0
H918 H 0.05704 0.93969 0.09501 0.0
H919 H 0.0377 0.85947 0.05979 0.0
H920 H 0.06729 0.87026 0.01899 0.0
H921 H 0.04748 0.97379 0.03347 0.0
H922 H 0.07326 0.00024 0.03922 0.0
H923 H 0.05666 0.98382 0.06832 0.0
H924 H 0.10426 0.97026 0.08777 0.0
H925 H 0.12151 0.98603 0.05868 0.0
H926 H 0.1281 0.9502 0.06688 0.0
H927 H 0.09344 0.89276 0.9793 0.0
H928 H 0.11243 0.92503 0.94405 0.0
H929 H 0.11168 0.99135 0.00489 0.0
C930 C 0.06018 0.92395 0.07928 0.0
C931 C 0.04617 0.89836 0.08079 0.0
C932 C 0.04908 0.87883 0.05915 0.0
C933 C 0.06581 0.88482 0.03602 0.0
C934 C 0.07882 0.91068 0.03471 0.0
C935 C 0.07609 0.92996 0.05583 0.0
C936 C 0.08777 0.95788 0.04748 0.0
C937 C 0.06493 0.98023 0.04709 0.0
C938 C 0.11188 0.96653 0.06635 0.0
C939 C 0.09774 0.95133 0.01852 0.0
C940 C 0.0926 0.92403 0.01146 0.0
C941 C 0.09801 0.91403 0.98482 0.0
C942 C 0.10872 0.93251 0.96492 0.0
C943 C 0.11371 0.96063 0.9718 0.0
C944 C 0.10851 0.96988 0.99908 0.0
H945 H 0.9263 0.56216 0.07326 0.0
H946 H 0.92356 0.64734 0.04508 0.0
H947 H 0.90095 0.63203 0.00124 0.0
H948 H 0.94877 0.53732 0.01007 0.0
H949 H 0.93138 0.50433 0.01275 0.0
H950 H 0.94156 0.52252 0.04368 0.0
H951 H 0.89142 0.52066 0.06135 0.0
H952 H 0.88033 0.50287 0.03054 0.0
H953 H 0.8636 0.53475 0.04051 0.0
H954 H 0.88262 0.60548 0.95815 0.0
H955 H 0.8717 0.57109 0.92118 0.0
H956 H 0.89132 0.50444 0.97845 0.0
C957 C 0.91977 0.57771 0.05838 0.0
C958 C 0.92554 0.60597 0.06275 0.0
C959 C 0.91842 0.62566 0.04221 0.0
C960 C 0.9057 0.6171 0.01734 0.0
C961 C 0.90104 0.58877 0.01325 0.0
C962 C 0.908 0.56944 0.03335 0.0
C963 C 0.90511 0.54013 0.02281 0.0
C964 C 0.93338 0.52522 0.02229 0.0
C965 C 0.88379 0.52368 0.03983 0.0
C966 C 0.89481 0.54578 0.99387 0.0
C967 C 0.89243 0.57382 0.98846 0.0
C968 C 0.8842 0.58348 0.96235 0.0
C969 C 0.87813 0.56387 0.94146 0.0
C970 C 0.88064 0.53511 0.94692 0.0
C971 C 0.88906 0.52624 0.9735 0.0
H972 H 0.47011 0.05447 0.10832 0.0
H973 H 0.40562 0.0812 0.05228 0.0
H974 H 0.43689 0.11471 0.03105 0.0
H975 H 0.51373 0.12064 0.10994 0.0
H976 H 0.54561 0.10143 0.10658 0.0
H977 H 0.51648 0.08633 0.1246 0.0
H978 H 0.51841 0.04367 0.09202 0.0
H979 H 0.5474 0.05858 0.0739 0.0
H980 H 0.51669 0.04881 0.05498 0.0
H981 H 0.47467 0.14011 0.01124 0.0
H982 H 0.51852 0.14989 0.98754 0.0
H983 H 0.56304 0.10212 0.04955 0.0
C984 C 0.46243 0.06854 0.09257 0.0
C985 C 0.43431 0.06772 0.08423 0.0
C986 C 0.42578 0.0841 0.06149 0.0
C987 C 0.44375 0.10282 0.04882 0.0
C988 C 0.47106 0.10372 0.05779 0.0
C989 C 0.48078 0.08648 0.07856 0.0
C990 C 0.51233 0.08698 0.07937 0.0
C991 C 0.52265 0.0996 0.10676 0.0
C992 C 0.5244 0.05778 0.07478 0.0
C993 C 0.51859 0.10608 0.05498 0.0
C994 C 0.49427 0.11624 0.04374 0.0
C995 C 0.49391 0.13255 0.01995 0.0
C996 C 0.51893 0.13783 0.00653 0.0
C997 C 0.54406 0.12662 0.01665 0.0
C998 C 0.54411 0.11126 0.0417 0.0
H999 H 0.54802 0.42352 0.12081 0.0
H1000 H 0.60457 0.39847 0.056 0.0
H1001 H 0.57025 0.36608 0.03771 0.0
H1002 H 0.50313 0.3582 0.1252 0.0
H1003 H 0.4717 0.37838 0.12652 0.0
H1004 H 0.50319 0.39183 0.14155 0.0
H1005 H 0.49889 0.43606 0.11131 0.0
H1006 H 0.4675 0.42285 0.09627 0.0
H1007 H 0.49603 0.43264 0.07414 0.0
H1008 H 0.52977 0.342 0.02204 0.0
H1009 H 0.48323 0.33587 0.00262 0.0
H1010 H 0.44796 0.38227 0.07122 0.0
C1011 C 0.55341 0.41001 0.10368 0.0
C1012 C 0.58019 0.4109 0.09177 0.0
C1013 C 0.5856 0.39542 0.06753 0.0
C1014 C 0.56591 0.37731 0.05667 0.0
C1015 C 0.53995 0.37626 0.06915 0.0
C1016 C 0.5332 0.39288 0.09156 0.0
C1017 C 0.50201 0.39323 0.09616 0.0
C1018 C 0.49457 0.37959 0.12402 0.0
C1019 C 0.49044 0.42295 0.09434 0.0
C1020 C 0.49238 0.3755 0.07193 0.0
C1021 C 0.51489 0.36492 0.0576 0.0
C1022 C 0.51195 0.34987 0.03319 0.0
C1023 C 0.48545 0.34664 0.02225 0.0
C1024 C 0.46222 0.35872 0.03544 0.0
C1025 C 0.46545 0.37244 0.06115 0.0
H1026 H 0.503 0.88253 0.47456 0.0
H1027 H 0.55688 0.8821 0.40243 0.0
H1028 H 0.51689 0.89488 0.37273 0.0
H1029 H 0.43959 0.85678 0.44082 0.0
H1030 H 0.41842 0.87966 0.46166 0.0
H1031 H 0.45046 0.86637 0.47526 0.0
H1032 H 0.4664 0.91688 0.48489 0.0
H1033 H 0.43446 0.92986 0.4709 0.0
H1034 H 0.46703 0.94154 0.45674 0.0
H1035 H 0.47292 0.91556 0.35298 0.0
H1036 H 0.42963 0.94214 0.34522 0.0
H1037 H 0.40452 0.92607 0.42991 0.0
C1038 C 0.5064 0.88456 0.45242 0.0
C1039 C 0.533 0.8813 0.44075 0.0
C1040 C 0.53659 0.88441 0.41175 0.0
C1041 C 0.51398 0.89154 0.39475 0.0
C1042 C 0.48802 0.89507 0.40712 0.0
C1043 C 0.48424 0.89158 0.43534 0.0
C1044 C 0.45529 0.89928 0.44432 0.0
C1045 C 0.44001 0.87398 0.45617 0.0
C1046 C 0.45586 0.92331 0.46543 0.0
C1047 C 0.44328 0.90836 0.41682 0.0
C1048 C 0.4624 0.90572 0.39551 0.0
C1049 C 0.45746 0.91684 0.36921 0.0
C1050 C 0.43289 0.93184 0.36494 0.0
C1051 C 0.41351 0.93503 0.38669 0.0
C1052 C 0.41844 0.92253 0.41261 0.0
H1053 H 0.49029 0.62266 0.47894 0.0
H1054 H 0.42859 0.60858 0.41509 0.0
H1055 H 0.46554 0.59285 0.38301 0.0
H1056 H 0.54854 0.64428 0.43203 0.0
H1057 H 0.57299 0.62651 0.45414 0.0
H1058 H 0.5422 0.64159 0.4688 0.0
H1059 H 0.53018 0.59353 0.49022 0.0
H1060 H 0.56066 0.57876 0.47485 0.0
H1061 H 0.52717 0.56382 0.4677 0.0
H1062 H 0.50732 0.56988 0.36207 0.0
H1063 H 0.54976 0.54204 0.35435 0.0
H1064 H 0.5845 0.57381 0.43068 0.0
C1065 C 0.48457 0.61691 0.45798 0.0
C1066 C 0.45663 0.61679 0.44945 0.0
C1067 C 0.44995 0.60892 0.42197 0.0
C1068 C 0.47081 0.60011 0.4036 0.0
C1069 C 0.4982 0.5998 0.41296 0.0
C1070 C 0.50505 0.60824 0.4395 0.0
C1071 C 0.53524 0.60304 0.44587 0.0
C1072 C 0.55067 0.63051 0.45043 0.0
C1073 C 0.53847 0.58363 0.47112 0.0
C1074 C 0.5442 0.58906 0.41924 0.0
C1075 C 0.52265 0.58767 0.4003 0.0
C1076 C 0.52464 0.57173 0.3762 0.0
C1077 C 0.54875 0.55602 0.37193 0.0
C1078 C 0.57058 0.55681 0.39141 0.0
C1079 C 0.5686 0.57415 0.41481 0.0
H1080 H 0.0623 0.42583 0.05567 0.0
H1081 H 0.14563 0.45649 0.04297 0.0
H1082 H 0.1313 0.50267 0.06146 0.0
H1083 H 0.03108 0.48597 0.0293 0.0
H1084 H 0.00121 0.48397 0.05169 0.0
H1085 H 0.01921 0.45279 0.04188 0.0
H1086 H 0.02723 0.43993 0.09402 0.0
H1087 H 0.00749 0.47029 0.10299 0.0
H1088 H 0.04177 0.46591 0.1169 0.0
H1089 H 0.10564 0.54631 0.08135 0.0
H1090 H 0.07161 0.58234 0.09602 0.0
H1091 H 0.00561 0.52159 0.08928 0.0
C1092 C 0.07772 0.44209 0.05748 0.0
C1093 C 0.10521 0.43765 0.04891 0.0
C1094 C 0.1246 0.45959 0.05016 0.0
C1095 C 0.1166 0.48574 0.06059 0.0
C1096 C 0.08899 0.48954 0.06866 0.0
C1097 C 0.06988 0.46821 0.06677 0.0
C1098 C 0.04087 0.47787 0.0731 0.0
C1099 C 0.022 0.47498 0.04747 0.0
C1100 C 0.02866 0.46253 0.09826 0.0
C1101 C 0.04653 0.50781 0.07976 0.0
C1102 C 0.07429 0.51444 0.0774 0.0
C1103 C 0.08386 0.54123 0.08313 0.0
C1104 C 0.06447 0.56153 0.09146 0.0
C1105 C 0.03597 0.55481 0.0936 0.0
C1106 C 0.02719 0.52759 0.08763 0.0
H1107 H 0.05717 0.46371 0.38853 0.0
H1108 H 0.98622 0.50552 0.35238 0.0
H1109 H 0.00508 0.55053 0.36699 0.0
H1110 H 0.05985 0.5009 0.44739 0.0
H1111 H 0.09697 0.50345 0.45072 0.0
H1112 H 0.08198 0.47505 0.43186 0.0
H1113 H 0.11112 0.488 0.38848 0.0
H1114 H 0.1264 0.51644 0.40741 0.0
H1115 H 0.10935 0.52277 0.37474 0.0
H1116 H 0.02404 0.58804 0.39447 0.0
H1117 H 0.04448 0.61718 0.43078 0.0
H1118 H 0.10611 0.55421 0.44752 0.0
C1119 C 0.04624 0.48248 0.38284 0.0
C1120 C 0.02029 0.48122 0.36933 0.0
C1121 C 0.00611 0.50606 0.36279 0.0
C1122 C 0.01676 0.53176 0.37081 0.0
C1123 C 0.04178 0.53235 0.38513 0.0
C1124 C 0.05665 0.50848 0.3908 0.0
C1125 C 0.08114 0.51477 0.40957 0.0
C1126 C 0.07988 0.49753 0.43647 0.0
C1127 C 0.10863 0.51022 0.39412 0.0
C1128 C 0.07636 0.54537 0.41517 0.0
C1129 C 0.05385 0.55511 0.40032 0.0
C1130 C 0.0426 0.58123 0.40506 0.0
C1131 C 0.05455 0.59783 0.42553 0.0
C1132 C 0.07812 0.5888 0.44035 0.0
C1133 C 0.08912 0.56217 0.4352 0.0
H1134 H 0.94498 0.92004 0.44317 0.0
H1135 H 0.86299 0.95046 0.46277 0.0
H1136 H 0.87182 0.9926 0.43454 0.0
H1137 H 0.97599 0.98129 0.45529 0.0
H1138 H 0.0027 0.9785 0.42927 0.0
H1139 H 0.98767 0.94766 0.44383 0.0
H1140 H 0.97437 0.93052 0.3949 0.0
H1141 H 0.9897 0.96108 0.37994 0.0
H1142 H 0.95421 0.95258 0.37226 0.0
H1143 H 0.89279 0.03473 0.41059 0.0
H1144 H 0.92376 0.07222 0.39347 0.0
H1145 H 0.99252 0.01424 0.39301 0.0
C1146 C 0.92841 0.9349 0.44015 0.0
C1147 C 0.90296 0.93176 0.45404 0.0
C1148 C 0.88228 0.95234 0.45141 0.0
C1149 C 0.88717 0.97626 0.43548 0.0
C1150 C 0.91304 0.97939 0.42287 0.0
C1151 C 0.93328 0.9591 0.42496 0.0
C1152 C 0.96083 0.96927 0.41402 0.0
C1153 C 0.98308 0.96918 0.43697 0.0
C1154 C 0.97028 0.95232 0.38875 0.0
C1155 C 0.9531 0.99843 0.40576 0.0
C1156 C 0.92545 0.00398 0.41062 0.0
C1157 C 0.91436 0.03041 0.40624 0.0
C1158 C 0.93207 0.05159 0.39663 0.0
C1159 C 0.9605 0.04614 0.39191 0.0
C1160 C 0.97085 0.01912 0.39629 0.0
H1161 H 0.44123 0.59608 0.57272 0.0
H1162 H 0.35703 0.56871 0.55889 0.0
H1163 H 0.36465 0.52886 0.59042 0.0
H1164 H 0.46855 0.53339 0.56437 0.0
H1165 H 0.49633 0.5361 0.58921 0.0
H1166 H 0.48245 0.56689 0.57354 0.0
H1167 H 0.47143 0.58747 0.62209 0.0
H1168 H 0.48634 0.55697 0.63766 0.0
H1169 H 0.45162 0.56714 0.64664 0.0
H1170 H 0.38387 0.48786 0.61526 0.0
H1171 H 0.41317 0.4487 0.63056 0.0
H1172 H 0.48578 0.5016 0.62582 0.0
C1173 C 0.42406 0.58246 0.57769 0.0
C1174 C 0.39826 0.58575 0.56448 0.0
C1175 C 0.37663 0.56675 0.56968 0.0
C1176 C 0.3808 0.54419 0.58756 0.0
C1177 C 0.40689 0.54077 0.59954 0.0
C1178 C 0.42818 0.55952 0.59494 0.0
C1179 C 0.4556 0.5484 0.60543 0.0
C1180 C 0.47696 0.54605 0.58173 0.0
C1181 C 0.46688 0.5661 0.62938 0.0
C1182 C 0.44663 0.52017 0.61568 0.0
C1183 C 0.41841 0.51634 0.6127 0.0
C1184 C 0.40588 0.49087 0.61831 0.0
C1185 C 0.42269 0.46872 0.62688 0.0
C1186 C 0.4517 0.47218 0.62944 0.0
C1187 C 0.46361 0.49842 0.62437 0.0
H1188 H 0.61102 0.49532 0.01137 0.0
H1189 H 0.61179 0.55946 0.0745 0.0
H1190 H 0.59522 0.59356 0.03966 0.0
H1191 H 0.6321 0.53761 0.95234 0.0
H1192 H 0.60881 0.5194 0.92928 0.0
H1193 H 0.6236 0.50179 0.95867 0.0
H1194 H 0.57422 0.48877 0.97531 0.0
H1195 H 0.55954 0.5066 0.94604 0.0
H1196 H 0.54901 0.51583 0.98073 0.0
H1197 H 0.5718 0.61845 0.99919 0.0
H1198 H 0.54522 0.63166 0.95703 0.0
H1199 H 0.56322 0.55164 0.92062 0.0
C1200 C 0.60822 0.51664 0.01787 0.0
C1201 C 0.61275 0.52479 0.04561 0.0
C1202 C 0.60854 0.55283 0.05328 0.0
C1203 C 0.59921 0.57231 0.03362 0.0
C1204 C 0.59452 0.56339 0.00644 0.0
C1205 C 0.59903 0.53617 0.99866 0.0
C1206 C 0.59038 0.53092 0.96904 0.0
C1207 C 0.61523 0.52195 0.95126 0.0
C1208 C 0.5669 0.50927 0.96773 0.0
C1209 C 0.58012 0.55945 0.96114 0.0
C1210 C 0.58244 0.57797 0.98298 0.0
C1211 C 0.57067 0.60442 0.98169 0.0
C1212 C 0.55567 0.61178 0.95779 0.0
C1213 C 0.55323 0.59297 0.93545 0.0
C1214 C 0.56601 0.56679 0.937 0.0
H1215 H 0.39802 0.99159 0.99883 0.0
H1216 H 0.40443 0.92217 0.05581 0.0
H1217 H 0.41828 0.89173 0.0168 0.0
H1218 H 0.37272 0.95233 0.93841 0.0
H1219 H 0.39303 0.97253 0.91422 0.0
H1220 H 0.38022 0.98816 0.94566 0.0
H1221 H 0.42963 0.00267 0.95991 0.0
H1222 H 0.4428 0.98807 0.92826 0.0
H1223 H 0.45668 0.97691 0.96115 0.0
H1224 H 0.43961 0.87167 0.97367 0.0
H1225 H 0.46582 0.86371 0.93014 0.0
H1226 H 0.4422 0.94509 0.90071 0.0
C1227 C 0.40178 0.96985 0.00307 0.0
C1228 C 0.40017 0.9592 0.03031 0.0
C1229 C 0.40546 0.93071 0.03504 0.0
C1230 C 0.41321 0.91327 0.01299 0.0
C1231 C 0.41511 0.92461 0.98639 0.0
C1232 C 0.40936 0.95225 0.98139 0.0
C1233 C 0.41542 0.96017 0.95165 0.0
C1234 C 0.38875 0.96877 0.93656 0.0
C1235 C 0.43744 0.9833 0.95018 0.0
C1236 C 0.42654 0.93292 0.94079 0.0
C1237 C 0.42604 0.91254 0.96108 0.0
C1238 C 0.43921 0.88705 0.95731 0.0
C1239 C 0.454 0.88266 0.93261 0.0
C1240 C 0.45489 0.9034 0.91193 0.0
C1241 C 0.44048 0.92847 0.91577 0.0
H1242 H 0.54108 0.38327 0.55846 0.0
H1243 H 0.57493 0.44221 0.61701 0.0
H1244 H 0.60784 0.45868 0.58186 0.0
H1245 H 0.60679 0.37281 0.51421 0.0
H1246 H 0.58667 0.37276 0.48269 0.0
H1247 H 0.57207 0.35902 0.51434 0.0
H1248 H 0.53029 0.39236 0.50943 0.0
H1249 H 0.54473 0.40636 0.47803 0.0
H1250 H 0.53644 0.42916 0.50651 0.0
H1251 H 0.62949 0.47553 0.53992 0.0
H1252 H 0.63696 0.49391 0.49292 0.0
H1253 H 0.58763 0.4271 0.45846 0.0
C1254 C 0.55647 0.39865 0.56405 0.0
C1255 C 0.55702 0.41006 0.59102 0.0
C1256 C 0.57577 0.43167 0.59719 0.0
C1257 C 0.59434 0.44137 0.57719 0.0
C1258 C 0.59325 0.42992 0.5507 0.0
C1259 C 0.57471 0.40911 0.54391 0.0
C1260 C 0.57407 0.40435 0.51275 0.0
C1261 C 0.58559 0.37552 0.50557 0.0
C1262 C 0.54465 0.40832 0.50101 0.0
C1263 C 0.59356 0.42709 0.50302 0.0
C1264 C 0.60504 0.44087 0.52544 0.0
C1265 C 0.62119 0.46455 0.52219 0.0
C1266 C 0.62512 0.47496 0.49544 0.0
C1267 C 0.6129 0.4618 0.47225 0.0
C1268 C 0.59765 0.43708 0.47591 0.0
H1269 H 0.42415 0.05774 0.5797 0.0
H1270 H 0.4416 0.14138 0.55242 0.0
H1271 H 0.41507 0.13297 0.50921 0.0
H1272 H 0.4394 0.02886 0.51933 0.0
H1273 H 0.41414 0.00131 0.51991 0.0
H1274 H 0.4263 0.01589 0.55193 0.0
H1275 H 0.37615 0.02733 0.56647 0.0
H1276 H 0.36347 0.01252 0.53466 0.0
H1277 H 0.35432 0.04758 0.54369 0.0
H1278 H 0.39463 0.11227 0.46535 0.0
H1279 H 0.38172 0.08154 0.42601 0.0
H1280 H 0.38071 0.0112 0.48222 0.0
C1281 C 0.42082 0.07474 0.56536 0.0
C1282 C 0.43382 0.10049 0.5696 0.0
C1283 C 0.43089 0.12181 0.54969 0.0
C1284 C 0.41592 0.11717 0.52515 0.0
C1285 C 0.40442 0.09096 0.52083 0.0
C1286 C 0.40646 0.07017 0.54064 0.0
C1287 C 0.39709 0.04251 0.52923 0.0
C1288 C 0.42064 0.02091 0.53015 0.0
C1289 C 0.3712 0.03191 0.54445 0.0
C1290 C 0.39029 0.05074 0.49981 0.0
C1291 C 0.39411 0.07877 0.49528 0.0
C1292 C 0.39102 0.09039 0.46886 0.0
C1293 C 0.38384 0.07283 0.44663 0.0
C1294 C 0.38032 0.04403 0.45107 0.0
C1295 C 0.38324 0.03315 0.47809 0.0
H1296 H 0.99373 0.61598 0.52104 0.0
H1297 H 0.05058 0.60737 0.59021 0.0
H1298 H 0.01246 0.58867 0.61912 0.0
H1299 H 0.9307 0.63328 0.56101 0.0
H1300 H 0.90933 0.61273 0.53809 0.0
H1301 H 0.94002 0.62944 0.52503 0.0
H1302 H 0.95775 0.58204 0.50711 0.0
H1303 H 0.92717 0.56539 0.52033 0.0
H1304 H 0.9609 0.55343 0.53104 0.0
H1305 H 0.97074 0.56295 0.63703 0.0
H1306 H 0.92887 0.53363 0.64257 0.0
H1307 H 0.89868 0.56182 0.5629 0.0
C1308 C 0.99806 0.61087 0.54249 0.0
C1309 C 0.02505 0.61324 0.55345 0.0
C1310 C 0.02997 0.60586 0.58146 0.0
C1311 C 0.00843 0.59532 0.59805 0.0
C1312 C 0.98212 0.5926 0.58634 0.0
C1313 C 0.97692 0.60033 0.5592 0.0
C1314 C 0.9479 0.5926 0.55038 0.0
C1315 C 0.93095 0.61858 0.54326 0.0
C1316 C 0.94849 0.57215 0.52579 0.0
C1317 C 0.9376 0.57876 0.57661 0.0
C1318 C 0.95762 0.57894 0.59719 0.0
C1319 C 0.95452 0.56353 0.62155 0.0
C1320 C 0.93078 0.54697 0.62456 0.0
C1321 C 0.9103 0.54654 0.60365 0.0
C1322 C 0.91348 0.56306 0.57976 0.0
H1323 H 0.99913 0.88901 0.52956 0.0
H1324 H 0.94307 0.90254 0.59863 0.0
H1325 H 0.98282 0.91706 0.62781 0.0
H1326 H 0.06015 0.86545 0.57073 0.0
H1327 H 0.08367 0.88342 0.54771 0.0
H1328 H 0.05171 0.86939 0.53454 0.0
H1329 H 0.03832 0.91775 0.51542 0.0
H1330 H 0.07021 0.93179 0.52837 0.0
H1331 H 0.03768 0.94707 0.53865 0.0
H1332 H 0.02649 0.93921 0.64545 0.0
H1333 H 0.06978 0.96643 0.64999 0.0
H1334 H 0.09771 0.9357 0.57045 0.0
C1335 C 0.99523 0.89439 0.55104 0.0
C1336 C 0.96808 0.89473 0.56189 0.0
C1337 C 0.96379 0.90203 0.59 0.0
C1338 C 0.98625 0.91017 0.6067 0.0
C1339 C 0.01278 0.91035 0.59504 0.0
C1340 C 0.01729 0.90238 0.56786 0.0
C1341 C 0.04691 0.90732 0.55901 0.0
C1342 C 0.0615 0.87974 0.55266 0.0
C1343 C 0.04833 0.92717 0.53391 0.0
C1344 C 0.05826 0.92068 0.58501 0.0
C1345 C 0.03837 0.92195 0.60576 0.0
C1346 C 0.04255 0.93744 0.62986 0.0
C1347 C 0.06712 0.95281 0.63231 0.0
C1348 C 0.08726 0.95211 0.61103 0.0
C1349 C 0.08314 0.93526 0.58758 0.0
H1350 H 0.00885 0.39221 0.99365 0.0
H1351 H 0.06159 0.3695 0.92433 0.0
H1352 H 0.02308 0.37979 0.89181 0.0
H1353 H 0.94455 0.36471 0.96669 0.0
H1354 H 0.92436 0.39317 0.98042 0.0
H1355 H 0.95549 0.38222 0.99779 0.0
H1356 H 0.975 0.43206 0.99473 0.0
H1357 H 0.94387 0.44326 0.97758 0.0
H1358 H 0.97708 0.449 0.96143 0.0
H1359 H 0.98069 0.39968 0.86704 0.0
H1360 H 0.93738 0.42376 0.85281 0.0
H1361 H 0.91194 0.42846 0.93884 0.0
C1362 C 0.01227 0.38901 0.97166 0.0
C1363 C 0.03815 0.38011 0.96145 0.0
C1364 C 0.0418 0.37623 0.93254 0.0
C1365 C 0.02007 0.38201 0.91397 0.0
C1366 C 0.99484 0.3912 0.92478 0.0
C1367 C 0.99088 0.39439 0.95302 0.0
C1368 C 0.96255 0.40584 0.9596 0.0
C1369 C 0.94571 0.38522 0.97712 0.0
C1370 C 0.96478 0.43421 0.97418 0.0
C1371 C 0.95101 0.40875 0.93061 0.0
C1372 C 0.97 0.4006 0.91067 0.0
C1373 C 0.96531 0.40524 0.88242 0.0
C1374 C 0.94078 0.41887 0.87449 0.0
C1375 C 0.92113 0.42678 0.89472 0.0
C1376 C 0.92619 0.42133 0.92296 0.0
H1377 H 0.0552 0.07208 0.8973 0.0
H1378 H 0.11648 0.08329 0.96184 0.0
H1379 H 0.08703 0.11808 0.9844 0.0
H1380 H 0.02488 0.14546 0.89892 0.0
H1381 H 0.99011 0.13238 0.89485 0.0
H1382 H 0.01885 0.11434 0.8791 0.0
H1383 H 0.00442 0.06914 0.90437 0.0
H1384 H 0.97575 0.0869 0.92018 0.0
H1385 H 0.00081 0.06931 0.94164 0.0
H1386 H 0.04938 0.14471 0.00437 0.0
H1387 H 0.00392 0.15813 0.02317 0.0
H1388 H 0.96404 0.12838 0.94822 0.0
C1389 C 0.06272 0.08289 0.9155 0.0
C1390 C 0.08893 0.07661 0.9268 0.0
C1391 C 0.09739 0.08941 0.95176 0.0
C1392 C 0.08067 0.10906 0.96486 0.0
C1393 C 0.05501 0.11509 0.95321 0.0
C1394 C 0.04583 0.10224 0.92924 0.0
C1395 C 0.01548 0.10868 0.92406 0.0
C1396 C 0.01213 0.12627 0.89766 0.0
C1397 C 0.99811 0.08192 0.92249 0.0
C1398 C 0.00869 0.12547 0.94985 0.0
C1399 C 0.03213 0.12969 0.96579 0.0
C1400 C 0.03094 0.14206 0.99187 0.0
C1401 C 0.00502 0.14945 0.00245 0.0
C1402 C 0.98061 0.1443 0.98708 0.0
C1403 C 0.98252 0.13305 0.96007 0.0
H1404 H 0.51267 0.00547 0.60512 0.0
H1405 H 0.58089 0.06359 0.59753 0.0
H1406 H 0.61183 0.02491 0.5835 0.0
H1407 H 0.55297 0.94533 0.62998 0.0
H1408 H 0.53185 0.92167 0.61003 0.0
H1409 H 0.5171 0.95322 0.62341 0.0
H1410 H 0.50156 0.96684 0.57377 0.0
H1411 H 0.51623 0.93533 0.56046 0.0
H1412 H 0.52697 0.96827 0.54633 0.0
H1413 H 0.63225 0.98161 0.5622 0.0
H1414 H 0.64002 0.93834 0.53555 0.0
H1415 H 0.55911 0.90853 0.56006 0.0
C1416 C 0.53425 0.0101 0.60102 0.0
C1417 C 0.54443 0.0375 0.60233 0.0
C1418 C 0.57274 0.04267 0.59671 0.0
C1419 C 0.59043 0.02082 0.58888 0.0
C1420 C 0.57949 0.99402 0.58728 0.0
C1421 C 0.55202 0.9887 0.59336 0.0
C1422 C 0.54428 0.95895 0.58747 0.0
C1423 C 0.53611 0.94387 0.61434 0.0
C1424 C 0.52091 0.95728 0.56571 0.0
C1425 C 0.57144 0.94834 0.57603 0.0
C1426 C 0.59166 0.96878 0.5763 0.0
C1427 C 0.61699 0.96517 0.56276 0.0
C1428 C 0.62128 0.9406 0.54774 0.0
C1429 C 0.60054 0.91993 0.54683 0.0
C1430 C 0.57577 0.92351 0.56179 0.0
H1431 H 0.63384 0.05701 0.92446 0.0
H1432 H 0.57196 0.11269 0.89192 0.0
H1433 H 0.55852 0.07847 0.85715 0.0
H1434 H 0.64555 0.01069 0.86 0.0
H1435 H 0.64453 0.97981 0.8811 0.0
H1436 H 0.65844 0.01161 0.8951 0.0
H1437 H 0.624 0.00861 0.93626 0.0
H1438 H 0.61006 0.97698 0.92247 0.0
H1439 H 0.58738 0.00592 0.92926 0.0
H1440 H 0.54512 0.03748 0.83265 0.0
H1441 H 0.52487 0.9911 0.8275 0.0
H1442 H 0.58811 0.95687 0.88142 0.0
C1443 C 0.61864 0.0623 0.9088 0.0
C1444 C 0.60628 0.08887 0.90844 0.0
C1445 C 0.58425 0.09409 0.88998 0.0
C1446 C 0.57606 0.07435 0.87051 0.0
C1447 C 0.58873 0.04843 0.87105 0.0
C1448 C 0.60898 0.04195 0.89033 0.0
C1449 C 0.61321 0.01073 0.89202 0.0
C1450 C 0.64216 0.00274 0.88142 0.0
C1451 C 0.60835 -5e-05 0.92175 0.0
C1452 C 0.59085 0.00078 0.8722 0.0
C1453 C 0.57817 0.02306 0.85927 0.0
C1454 C 0.55511 0.01983 0.84228 0.0
C1455 C 0.54365 0.99343 0.83961 0.0
C1456 C 0.55498 0.97063 0.85415 0.0
C1457 C 0.57956 0.974 0.86967 0.0
H1458 H 0.4826 0.49835 0.88938 0.0
H1459 H 0.41282 0.55504 0.89 0.0
H1460 H 0.38147 0.51602 0.90158 0.0
H1461 H 0.44562 0.43629 0.86184 0.0
H1462 H 0.46604 0.41415 0.88416 0.0
H1463 H 0.48042 0.44604 0.87119 0.0
H1464 H 0.49111 0.45989 0.92233 0.0
H1465 H 0.47548 0.4284 0.93468 0.0
H1466 H 0.46309 0.46142 0.94707 0.0
H1467 H 0.35982 0.47269 0.92162 0.0
H1468 H 0.3499 0.42883 0.94678 0.0
H1469 H 0.43309 0.4002 0.92955 0.0
C1470 C 0.46063 0.50251 0.89135 0.0
C1471 C 0.4501 0.52966 0.88882 0.0
C1472 C 0.42128 0.5343 0.89176 0.0
C1473 C 0.40332 0.51226 0.89823 0.0
C1474 C 0.41453 0.48574 0.9012 0.0
C1475 C 0.44253 0.48083 0.8976 0.0
C1476 C 0.45008 0.45126 0.90457 0.0
C1477 C 0.46114 0.43602 0.87887 0.0
C1478 C 0.47116 0.45021 0.92858 0.0
C1479 C 0.42207 0.4403 0.91343 0.0
C1480 C 0.40172 0.46044 0.91134 0.0
C1481 C 0.37526 0.45644 0.92244 0.0
C1482 C 0.36976 0.43158 0.93666 0.0
C1483 C 0.39045 0.41102 0.939 0.0
C1484 C 0.41659 0.41519 0.92672 0.0
H1485 H 0.88017 0.0615 0.05014 0.0
H1486 H 0.93199 0.11587 0.09905 0.0
H1487 H 0.94232 0.07795 0.13115 0.0
H1488 H 0.85888 0.01063 0.1076 0.0
H1489 H 0.86364 0.98126 0.08492 0.0
H1490 H 0.85221 0.01406 0.07095 0.0
H1491 H 0.89325 0.0138 0.03625 0.0
H1492 H 0.90474 0.98114 0.04998 0.0
H1493 H 0.92811 0.01032 0.04926 0.0
H1494 H 0.9538 0.03476 0.153 0.0
H1495 H 0.97233 0.98763 0.15887 0.0
H1496 H 0.91839 0.9577 0.09354 0.0
C1497 C 0.89257 0.06546 0.06844 0.0
C1498 C 0.90317 0.09224 0.07378 0.0
C1499 C 0.92145 0.09627 0.09627 0.0
C1500 C 0.92771 0.07467 0.11444 0.0
C1501 C 0.91665 0.0486 0.10907 0.0
C1502 C 0.89995 0.04361 0.08626 0.0
C1503 C 0.89624 0.01265 0.08171 0.0
C1504 C 0.86594 0.00415 0.08659 0.0
C1505 C 0.9062 0.00399 0.05259 0.0
C1506 C 0.91494 0.00119 0.10434 0.0
C1507 C 0.92543 0.02244 0.12054 0.0
C1508 C 0.94536 0.01786 0.14088 0.0
C1509 C 0.95583 0.99109 0.144 0.0
C1510 C 0.94649 0.9693 0.12681 0.0
C1511 C 0.92514 0.97405 0.10738 0.0
H1512 H 0.99848 0.18938 0.30944 0.0
H1513 H 0.05328 0.18887 0.38062 0.0
H1514 H 0.05063 0.23967 0.38355 0.0
H1515 H 0.01963 0.2559 0.27903 0.0
H1516 H 0.98481 0.26663 0.27078 0.0
H1517 H 0.99347 0.23025 0.27157 0.0
H1518 H 0.9542 0.22144 0.30722 0.0
H1519 H 0.94536 0.25773 0.3064 0.0
H1520 H 0.95343 0.24121 0.33898 0.0
H1521 H 0.04264 0.28969 0.37929 0.0
H1522 H 0.02385 0.33655 0.3732 0.0
H1523 H 0.96915 0.30616 0.30828 0.0
C1524 C 0.01026 0.2002 0.3252 0.0
C1525 C 0.0278 0.18555 0.34358 0.0
C1526 C 0.04165 0.2 0.36499 0.0
C1527 C 0.03989 0.22882 0.36709 0.0
C1528 C 0.02328 0.2429 0.34822 0.0
C1529 C 0.00809 0.2292 0.32811 0.0
C1530 C 0.98957 0.24946 0.31258 0.0
C1531 C 0.99734 0.25062 0.28165 0.0
C1532 C 0.95882 0.24202 0.31654 0.0
C1533 C 0.99682 0.27647 0.3272 0.0
C1534 C 0.01671 0.27208 0.3473 0.0
C1535 C 0.02698 0.29348 0.36367 0.0
C1536 C 0.01621 0.32012 0.35993 0.0
C1537 C 0.99497 0.32521 0.34025 0.0
C1538 C 0.9854 0.30303 0.32345 0.0
H1539 H 0.0034 0.68458 0.15279 0.0
H1540 H 0.9148 0.68687 0.16872 0.0
H1541 H 0.91778 0.73692 0.17803 0.0
H1542 H 0.02188 0.73808 0.2067 0.0
H1543 H 0.04904 0.75224 0.18524 0.0
H1544 H 0.04062 0.71586 0.18317 0.0
H1545 H 0.03298 0.72083 0.13016 0.0
H1546 H 0.04107 0.75719 0.13208 0.0
H1547 H 0.00853 0.74611 0.11747 0.0
H1548 H 0.92858 0.78755 0.17673 0.0
H1549 H 0.94779 0.83467 0.17041 0.0
H1550 H 0.03008 0.79963 0.16109 0.0
C1551 C 0.98474 0.69545 0.15892 0.0
C1552 C 0.95884 0.68169 0.15979 0.0
C1553 C 0.93492 0.69679 0.16785 0.0
C1554 C 0.93636 0.72531 0.17322 0.0
C1555 C 0.962 0.7384 0.17122 0.0
C1556 C 0.9859 0.72388 0.16495 0.0
C1557 C 0.01061 0.74323 0.1629 0.0
C1558 C 0.03179 0.73698 0.18588 0.0
C1559 C 0.02407 0.74174 0.13393 0.0
C1560 C 0.99658 0.77096 0.16762 0.0
C1561 C 0.96852 0.7677 0.17235 0.0
C1562 C 0.95065 0.79038 0.17386 0.0
C1563 C 0.9617 0.81704 0.17012 0.0
C1564 C 0.99041 0.82084 0.16537 0.0
C1565 C 0.0081 0.79748 0.16495 0.0
H1566 H 0.36112 0.04846 0.19631 0.0
H1567 H 0.34404 0.96878 0.15822 0.0
H1568 H 0.32847 0.95045 0.20363 0.0
H1569 H 0.39109 0.01973 0.2572 0.0
H1570 H 0.37824 0.04646 0.27998 0.0
H1571 H 0.38459 0.05412 0.24398 0.0
H1572 H 0.33392 0.0712 0.23888 0.0
H1573 H 0.32732 0.06318 0.27484 0.0
H1574 H 0.30579 0.04835 0.24812 0.0
H1575 H 0.31512 0.9408 0.25302 0.0
H1576 H 0.31328 0.93719 0.30392 0.0
H1577 H 0.34371 0.02177 0.31083 0.0
C1578 C 0.35392 0.02723 0.19753 0.0
C1579 C 0.35358 0.01002 0.1738 0.0
C1580 C 0.34446 0.98222 0.17623 0.0
C1581 C 0.33534 0.97175 0.20184 0.0
C1582 C 0.33594 0.98923 0.22489 0.0
C1583 C 0.34555 0.01619 0.22311 0.0
C1584 C 0.34705 0.02958 0.25154 0.0
C1585 C 0.37702 0.03795 0.25858 0.0
C1586 C 0.32734 0.05456 0.25344 0.0
C1587 C 0.33712 0.00582 0.26962 0.0
C1588 C 0.33006 0.98304 0.25373 0.0
C1589 C 0.32068 0.95847 0.2657 0.0
C1590 C 0.31961 0.9567 0.29472 0.0
C1591 C 0.32867 0.97908 0.31157 0.0
C1592 C 0.33667 0.00425 0.29867 0.0
H1593 H 0.65206 0.49761 0.18217 0.0
H1594 H 0.66617 0.40911 0.19181 0.0
H1595 H 0.66895 0.41501 0.24244 0.0
H1596 H 0.69939 0.51874 0.23916 0.0
H1597 H 0.67734 0.54707 0.2496 0.0
H1598 H 0.67826 0.53629 0.21378 0.0
H1599 H 0.625 0.52949 0.21456 0.0
H1600 H 0.62393 0.54004 0.25037 0.0
H1601 H 0.60974 0.50696 0.24027 0.0
H1602 H 0.66385 0.4292 0.29196 0.0
H1603 H 0.65604 0.45188 0.33728 0.0
H1604 H 0.65032 0.53175 0.29604 0.0
C1605 C 0.65615 0.47955 0.1949 0.0
C1606 C 0.65872 0.45288 0.18293 0.0
C1607 C 0.66413 0.42978 0.20037 0.0
C1608 C 0.66574 0.43288 0.22922 0.0
C1609 C 0.66254 0.45931 0.24036 0.0
C1610 C 0.65842 0.48235 0.22378 0.0
C1611 C 0.65518 0.50833 0.24121 0.0
C1612 C 0.67897 0.52881 0.2356 0.0
C1613 C 0.62677 0.522 0.2363 0.0
C1614 C 0.65718 0.49609 0.27013 0.0
C1615 C 0.66129 0.46775 0.26914 0.0
C1616 C 0.66123 0.45147 0.29306 0.0
C1617 C 0.65667 0.4645 0.31867 0.0
C1618 C 0.65267 0.49355 0.3202 0.0
C1619 C 0.65354 0.50955 0.29561 0.0
H1620 H 0.31529 0.34079 0.02482 0.0
H1621 H 0.30645 0.29872 0.94556 0.0
H1622 H 0.2566 0.29286 0.95437 0.0
H1623 H 0.2608 0.29914 0.06277 0.0
H1624 H 0.24944 0.3292 0.08189 0.0
H1625 H 0.28524 0.326 0.07163 0.0
H1626 H 0.28237 0.37371 0.04702 0.0
H1627 H 0.24659 0.37695 0.05692 0.0
H1628 H 0.25627 0.37928 0.02084 0.0
H1629 H 0.20717 0.29942 0.96717 0.0
H1630 H 0.16181 0.31499 0.985 0.0
H1631 H 0.20216 0.34963 0.05758 0.0
C1632 C 0.30308 0.32955 0.00969 0.0
C1633 C 0.31495 0.32024 0.98448 0.0
C1634 C 0.29802 0.30601 0.96508 0.0
C1635 C 0.2696 0.30252 0.9699 0.0
C1636 C 0.2584 0.31289 0.99444 0.0
C1637 C 0.27466 0.32568 0.01428 0.0
C1638 C 0.25707 0.337 0.03779 0.0
C1639 C 0.26352 0.32192 0.06514 0.0
C1640 C 0.2608 0.3686 0.04079 0.0
C1641 C 0.22834 0.32977 0.02736 0.0
C1642 C 0.22961 0.3157 0.0024 0.0
C1643 C 0.20587 0.30974 0.98707 0.0
C1644 C 0.18022 0.31878 0.99729 0.0
C1645 C 0.17844 0.3334 0.02272 0.0
C1646 C 0.20278 0.33817 0.03829 0.0
H1647 H 0.18473 0.68776 0.48863 0.0
H1648 H 0.16838 0.60334 0.51556 0.0
H1649 H 0.21801 0.59661 0.52498 0.0
H1650 H 0.2496 0.67553 0.45569 0.0
H1651 H 0.26601 0.7069 0.46771 0.0
H1652 H 0.22897 0.7058 0.46322 0.0
H1653 H 0.22198 0.72095 0.51432 0.0
H1654 H 0.25902 0.72234 0.51892 0.0
H1655 H 0.23814 0.70129 0.54173 0.0
H1656 H 0.26879 0.5969 0.52678 0.0
H1657 H 0.31891 0.60647 0.52831 0.0
H1658 H 0.30382 0.69226 0.50572 0.0
C1659 C 0.19168 0.66801 0.49678 0.0
C1660 C 0.17275 0.64605 0.50143 0.0
C1661 C 0.18247 0.62051 0.51215 0.0
C1662 C 0.21064 0.61641 0.51739 0.0
C1663 C 0.2288 0.63826 0.51236 0.0
C1664 C 0.21982 0.66378 0.50292 0.0
C1665 C 0.24399 0.68385 0.5001 0.0
C1666 C 0.24733 0.69359 0.46988 0.0
C1667 C 0.24057 0.70857 0.51996 0.0
C1668 C 0.26792 0.66534 0.50888 0.0
C1669 C 0.25849 0.63903 0.51542 0.0
C1670 C 0.27642 0.61754 0.5223 0.0
C1671 C 0.30478 0.62313 0.52299 0.0
C1672 C 0.31493 0.65012 0.51761 0.0
C1673 C 0.29636 0.67159 0.51038 0.0
H1674 H 0.69329 0.80864 0.50375 0.0
H1675 H 0.67355 0.89624 0.49704 0.0
H1676 H 0.72315 0.90776 0.49756 0.0
H1677 H 0.753 0.81403 0.54683 0.0
H1678 H 0.77344 0.78841 0.52882 0.0
H1679 H 0.73616 0.78613 0.52848 0.0
H1680 H 0.73619 0.78608 0.47471 0.0
H1681 H 0.7735 0.78783 0.4749 0.0
H1682 H 0.75373 0.81353 0.45629 0.0
H1683 H 0.77324 0.91065 0.5043 0.0
H1684 H 0.82388 0.90471 0.50449 0.0
H1685 H 0.8138 0.81541 0.49907 0.0
C1686 C 0.69961 0.83011 0.5019 0.0
C1687 C 0.67976 0.85161 0.50028 0.0
C1688 C 0.68856 0.87952 0.49789 0.0
C1689 C 0.71663 0.8863 0.49851 0.0
C1690 C 0.73573 0.86487 0.50066 0.0
C1691 C 0.72787 0.83729 0.50125 0.0
C1692 C 0.75323 0.81855 0.50153 0.0
C1693 C 0.75399 0.80073 0.528 0.0
C1694 C 0.75422 0.80043 0.47529 0.0
C1695 C 0.77631 0.84004 0.50153 0.0
C1696 C 0.76546 0.86656 0.50185 0.0
C1697 C 0.78211 0.89004 0.50357 0.0
C1698 C 0.81078 0.88644 0.504 0.0
C1699 C 0.82254 0.85967 0.50185 0.0
C1700 C 0.80516 0.83607 0.50073 0.0
H1701 H 0.50233 0.80443 0.80473 0.0
H1702 H 0.4992 0.82555 0.89222 0.0
H1703 H 0.50057 0.77601 0.90452 0.0
H1704 H 0.46322 0.74166 0.80668 0.0
H1705 H 0.48517 0.72235 0.78336 0.0
H1706 H 0.48312 0.75957 0.78052 0.0
H1707 H 0.53637 0.76343 0.78596 0.0
H1708 H 0.53863 0.72619 0.78833 0.0
H1709 H 0.55297 0.74754 0.81547 0.0
H1710 H 0.49637 0.7255 0.90746 0.0
H1711 H 0.49992 0.67489 0.90241 0.0
H1712 H 0.51444 0.68437 0.81396 0.0
C1713 C 0.50232 0.79843 0.82639 0.0
C1714 C 0.50045 0.81859 0.84763 0.0
C1715 C 0.50078 0.81028 0.87578 0.0
C1716 C 0.50125 0.78225 0.88295 0.0
C1717 C 0.50246 0.76278 0.86171 0.0
C1718 C 0.50415 0.77032 0.83407 0.0
C1719 C 0.50761 0.74478 0.81582 0.0
C1720 C 0.48333 0.74194 0.79539 0.0
C1721 C 0.53556 0.74553 0.80049 0.0
C1722 C 0.50699 0.72192 0.8376 0.0
C1723 C 0.50314 0.733 0.86377 0.0
C1724 C 0.49993 0.71649 0.8872 0.0
C1725 C 0.50166 0.68778 0.88405 0.0
C1726 C 0.50751 0.67585 0.85786 0.0
C1727 C 0.51008 0.69309 0.83421 0.0
H1728 H 0.5151 0.30427 0.6903 0.0
H1729 H 0.47932 0.33003 0.61173 0.0
H1730 H 0.46774 0.28153 0.60099 0.0
H1731 H 0.54436 0.2407 0.66789 0.0
H1732 H 0.53539 0.22105 0.69845 0.0
H1733 H 0.54067 0.25796 0.70088 0.0
H1734 H 0.49177 0.26395 0.72224 0.0
H1735 H 0.48645 0.22699 0.7202 0.0
H1736 H 0.46206 0.25032 0.70413 0.0
H1737 H 0.46557 0.23101 0.59571 0.0
H1738 H 0.46405 0.1801 0.5999 0.0
H1739 H 0.49488 0.18555 0.68426 0.0
C1740 C 0.50444 0.29961 0.67109 0.0
C1741 C 0.49799 0.32085 0.65186 0.0
C1742 C 0.4841 0.31412 0.62688 0.0
C1743 C 0.47764 0.28662 0.62048 0.0
C1744 C 0.48461 0.26613 0.63956 0.0
C1745 C 0.49698 0.27218 0.66469 0.0
C1746 C 0.50133 0.24591 0.68164 0.0
C1747 C 0.53228 0.24113 0.68755 0.0
C1748 C 0.48439 0.24685 0.70866 0.0
C1749 C 0.49002 0.22423 0.66175 0.0
C1750 C 0.481 0.23655 0.63744 0.0
C1751 C 0.47175 0.22113 0.61491 0.0
C1752 C 0.47096 0.19231 0.61748 0.0
C1753 C 0.47843 0.17926 0.64266 0.0
C1754 C 0.4884 0.19528 0.66506 0.0
H1755 H 0.83203 0.50046 0.8127 0.0
H1756 H 0.82082 0.41108 0.80952 0.0
H1757 H 0.81421 0.41375 0.75899 0.0
H1758 H 0.78013 0.51627 0.75681 0.0
H1759 H 0.80066 0.54465 0.74367 0.0
H1760 H 0.80157 0.53614 0.78011 0.0
H1761 H 0.85498 0.53136 0.77745 0.0
H1762 H 0.85423 0.53952 0.74102 0.0
H1763 H 0.87006 0.50773 0.75267 0.0
H1764 H 0.81734 0.42489 0.70833 0.0
H1765 H 0.82408 0.4448 0.66149 0.0
H1766 H 0.82725 0.52732 0.69734 0.0
C1767 C 0.82753 0.48152 0.80149 0.0
C1768 C 0.82723 0.45555 0.8152 0.0
C1769 C 0.82127 0.43127 0.79966 0.0
C1770 C 0.81745 0.43253 0.77085 0.0
C1771 C 0.81885 0.4583 0.75788 0.0
C1772 C 0.82304 0.48247 0.77275 0.0
C1773 C 0.82458 0.50737 0.75356 0.0
C1774 C 0.80028 0.52728 0.75886 0.0
C1775 C 0.85263 0.52236 0.75635 0.0
C1776 C 0.82188 0.49323 0.72559 0.0
C1777 C 0.8187 0.4649 0.72854 0.0
C1778 C 0.81905 0.44713 0.70571 0.0
C1779 C 0.82301 0.45859 0.67921 0.0
C1780 C 0.82611 0.48759 0.67571 0.0
C1781 C 0.82474 0.5051 0.69922 0.0
H1782 H 0.19777 0.99867 0.70113 0.0
H1783 H 0.11137 0.01206 0.67994 0.0
H1784 H 0.10029 0.02013 0.72903 0.0
H1785 H 0.18709 0.96494 0.76668 0.0
H1786 H 0.21504 0.98221 0.78448 0.0
H1787 H 0.21691 0.97687 0.74751 0.0
H1788 H 0.22409 0.02957 0.7399 0.0
H1789 H 0.2225 0.03504 0.77688 0.0
H1790 H 0.19938 0.05372 0.75421 0.0
H1791 H 0.09718 0.02291 0.77961 0.0
H1792 H 0.10345 0.0281 0.83013 0.0
H1793 H 0.19233 0.01895 0.82024 0.0
C1794 C 0.17667 0.00361 0.70697 0.0
C1795 C 0.15542 0.00496 0.6868 0.0
C1796 C 0.128 0.0114 0.69505 0.0
C1797 C 0.12142 0.01577 0.7229 0.0
C1798 C 0.14261 0.01423 0.74232 0.0
C1799 C 0.1698 0.00901 0.73487 0.0
C1800 C 0.18851 0.00996 0.76026 0.0
C1801 C 0.20272 0.98181 0.76501 0.0
C1802 C 0.20988 0.03348 0.75765 0.0
C1803 C 0.16742 0.01609 0.78294 0.0
C1804 C 0.14104 0.0179 0.77196 0.0
C1805 C 0.11774 0.02195 0.7885 0.0
C1806 C 0.12146 0.0247 0.81711 0.0
C1807 C 0.14829 0.02405 0.82881 0.0
C1808 C 0.17164 0.01972 0.81159 0.0
H1809 H 0.79834 0.16269 0.04765 0.0
H1810 H 0.84371 0.18163 0.97213 0.0
H1811 H 0.79942 0.18634 0.9468 0.0
H1812 H 0.7495 0.11902 0.01486 0.0
H1813 H 0.72089 0.12891 0.0368 0.0
H1814 H 0.7558 0.13068 0.04984 0.0
H1815 H 0.74877 0.18257 0.062 0.0
H1816 H 0.7138 0.18097 0.04896 0.0
H1817 H 0.73765 0.20638 0.03536 0.0
H1818 H 0.75071 0.18781 0.92957 0.0
H1819 H 0.70113 0.18155 0.9199 0.0
H1820 H 0.68733 0.1569 0.00561 0.0
C1821 C 0.79898 0.16816 0.02587 0.0
C1822 C 0.82447 0.17196 0.01185 0.0
C1823 C 0.8244 0.1787 0.98325 0.0
C1824 C 0.79937 0.18152 0.96875 0.0
C1825 C 0.77464 0.17709 0.98307 0.0
C1826 C 0.77423 0.17024 0.0109 0.0
C1827 C 0.74501 0.16394 0.02071 0.0
C1828 C 0.74267 0.13385 0.03116 0.0
C1829 C 0.73577 0.18471 0.04308 0.0
C1830 C 0.72906 0.1681 0.99394 0.0
C1831 C 0.74654 0.17624 0.97268 0.0
C1832 C 0.73681 0.18141 0.94603 0.0
C1833 C 0.70852 0.17782 0.94079 0.0
C1834 C 0.69023 0.16855 0.96196 0.0
C1835 C 0.70073 0.16387 0.98896 0.0
H1836 H 0.05385 0.94926 0.21724 0.0
H1837 H 0.96459 0.93801 0.21393 0.0
H1838 H 0.95827 0.98031 0.24181 0.0
H1839 H 0.0569 0.97869 0.28771 0.0
H1840 H 0.08396 0.00277 0.27848 0.0
H1841 H 0.08141 0.96992 0.26084 0.0
H1842 H 0.07945 0.99584 0.2137 0.0
H1843 H 0.08126 0.02878 0.23126 0.0
H1844 H 0.05292 0.02155 0.208 0.0
H1845 H 0.96124 0.02531 0.26732 0.0
H1846 H 0.97367 0.06683 0.29439 0.0
H1847 H 0.06084 0.05092 0.27825 0.0
C1848 C 0.033 0.95529 0.22283 0.0
C1849 C 0.00974 0.94026 0.21315 0.0
C1850 C 0.98279 0.94907 0.22104 0.0
C1851 C 0.97894 0.97324 0.2367 0.0
C1852 C 0.00221 0.98846 0.24438 0.0
C1853 C 0.02874 0.97964 0.23815 0.0
C1854 C 0.05014 0.00037 0.24822 0.0
C1855 C 0.06922 0.98715 0.27012 0.0
C1856 C 0.06693 0.01234 0.22384 0.0
C1857 C 0.03145 0.02219 0.261 0.0
C1858 C 0.00389 0.01488 0.25853 0.0
C1859 C 0.98276 0.03124 0.26947 0.0
C1860 C 0.99005 0.05494 0.28464 0.0
C1861 C 0.01827 0.06217 0.2887 0.0
C1862 C 0.03909 0.04612 0.27562 0.0
H1863 H 0.92821 0.44334 0.2639 0.0
H1864 H 0.0171 0.43534 0.27518 0.0
H1865 H 0.02463 0.47487 0.24365 0.0
H1866 H 0.93005 0.4675 0.19032 0.0
H1867 H 0.90182 0.49135 0.19585 0.0
H1868 H 0.90364 0.45967 0.21565 0.0
H1869 H 0.90119 0.48827 0.26109 0.0
H1870 H 0.90002 0.52007 0.24151 0.0
H1871 H 0.92657 0.515 0.26733 0.0
H1872 H 0.02255 0.51834 0.21565 0.0
H1873 H 0.01126 0.55985 0.18811 0.0
H1874 H 0.9235 0.54139 0.19676 0.0
C1875 C 0.94928 0.44934 0.25917 0.0
C1876 C 0.97205 0.43622 0.27221 0.0
C1877 C -0.0007 0.44499 0.26547 0.0
C1878 C 0.0038 0.46755 0.24768 0.0
C1879 C 0.98086 0.48117 0.23671 0.0
C1880 C 0.95413 0.47216 0.24175 0.0
C1881 C 0.93309 0.49164 0.22879 0.0
C1882 C 0.91616 0.47664 0.20631 0.0
C1883 C 0.9141 0.5045 0.25101 0.0
C1884 C 0.95218 0.51325 0.21617 0.0
C1885 C 0.97964 0.50669 0.2209 0.0
C1886 C 0.00113 0.52356 0.21156 0.0
C1887 C 0.99445 0.54726 0.19609 0.0
C1888 C 0.96646 0.55403 0.19013 0.0
C1889 C 0.9451 0.53699 0.20093 0.0
H1890 H 0.23 0.06218 0.94971 0.0
H1891 H 0.2092 0.97467 0.94423 0.0
H1892 H 0.24031 0.96502 0.98377 0.0
H1893 H 0.30165 0.05533 0.97375 0.0
H1894 H 0.29829 0.08443 0.997 0.0
H1895 H 0.27824 0.08329 0.96549 0.0
H1896 H 0.23346 0.08962 0.99448 0.0
H1897 H 0.25317 0.08986 0.02619 0.0
H1898 H 0.22547 0.06518 0.02167 0.0
H1899 H 0.27169 0.96562 0.02599 0.0
H1900 H 0.30317 0.976 0.06504 0.0
H1901 H 0.29679 0.06389 0.04647 0.0
C1902 C 0.23227 0.04086 0.95633 0.0
C1903 C 0.21691 0.01923 0.94383 0.0
C1904 C 0.22078 0.99163 0.95332 0.0
C1905 C 0.23824 0.98597 0.97594 0.0
C1906 C 0.25142 0.00814 0.989 0.0
C1907 C 0.24878 0.03501 0.97938 0.0
C1908 C 0.26327 0.05548 0.99824 0.0
C1909 C 0.28676 0.07051 0.98269 0.0
C1910 C 0.2426 0.07625 0.01089 0.0
C1911 C 0.27454 0.03594 0.02004 0.0
C1912 C 0.26777 0.0087 0.01422 0.0
C1913 C 0.27705 0.98689 0.03076 0.0
C1914 C 0.29474 0.99303 0.05304 0.0
C1915 C 0.30264 0.02079 0.05883 0.0
C1916 C 0.29134 0.04249 0.04271 0.0
H1917 H 0.72265 0.41535 0.05374 0.0
H1918 H 0.70655 0.50338 0.06457 0.0
H1919 H 0.73542 0.51358 0.02363 0.0
H1920 H 0.79433 0.42206 0.02686 0.0
H1921 H 0.78956 0.39394 0.00269 0.0
H1922 H 0.77093 0.39408 0.03513 0.0
H1923 H 0.72474 0.38947 0.0081 0.0
H1924 H 0.74309 0.39008 0.97555 0.0
H1925 H 0.71602 0.41499 0.98217 0.0
H1926 H 0.76188 0.51396 0.97884 0.0
H1927 H 0.78948 0.50498 0.93675 0.0
H1928 H 0.78621 0.41648 0.9538 0.0
C1929 C 0.72572 0.43685 0.04804 0.0
C1930 C 0.71208 0.45852 0.06241 0.0
C1931 C 0.71671 0.48636 0.05401 0.0
C1932 C 0.73295 0.49238 0.03062 0.0
C1933 C 0.7445 0.47038 0.01589 0.0
C1934 C 0.74155 0.44321 0.02454 0.0
C1935 C 0.75493 0.4233 0.00421 0.0
C1936 C 0.77886 0.40741 0.01805 0.0
C1937 C 0.7334 0.40329 0.99178 0.0
C1938 C 0.76553 0.44352 0.98259 0.0
C1939 C 0.75934 0.47056 0.98977 0.0
C1940 C 0.76705 0.49288 0.97311 0.0
C1941 C 0.78255 0.48751 0.94909 0.0
C1942 C 0.79017 0.46 0.94186 0.0
C1943 C 0.78074 0.43774 0.95854 0.0
H1944 H 0.28078 0.93844 0.45331 0.0
H1945 H 0.28824 0.02573 0.43196 0.0
H1946 H 0.26481 0.03832 0.4755 0.0
H1947 H 0.21275 0.94371 0.48742 0.0
H1948 H 0.22162 0.91859 0.51368 0.0
H1949 H 0.23717 0.91645 0.47975 0.0
H1950 H 0.28583 0.91752 0.50249 0.0
H1951 H 0.27039 0.9204 0.53644 0.0
H1952 H 0.29502 0.94605 0.52485 0.0
H1953 H 0.24371 0.04198 0.52242 0.0
H1954 H 0.2182 0.03621 0.56627 0.0
H1955 H 0.22565 0.94669 0.55872 0.0
C1956 C 0.27702 0.96017 0.45746 0.0
C1957 C 0.28668 0.98106 0.43915 0.0
C1958 C 0.2812 0.00927 0.44556 0.0
C1959 C 0.26809 0.0167 0.47041 0.0
C1960 C 0.26042 0.99572 0.4887 0.0
C1961 C 0.26406 0.96801 0.48236 0.0
C1962 C 0.25388 0.94967 0.50588 0.0
C1963 C 0.22993 0.93101 0.4961 0.0
C1964 C 0.27771 0.93239 0.51813 0.0
C1965 C 0.24391 0.97145 0.52634 0.0
C1966 C 0.24815 0.99785 0.51603 0.0
C1967 C 0.2401 0.0214 0.53067 0.0
C1968 C 0.22581 0.01787 0.55573 0.0
C1969 C 0.21949 0.99097 0.56593 0.0
C1970 C 0.22993 0.96753 0.55159 0.0
H1971 H 0.77188 0.55378 0.54935 0.0
H1972 H 0.78149 0.46434 0.55645 0.0
H1973 H 0.75586 0.45809 0.51304 0.0
H1974 H 0.70097 0.55083 0.51991 0.0
H1975 H 0.70689 0.58019 0.49747 0.0
H1976 H 0.7249 0.57768 0.53011 0.0
H1977 H 0.77163 0.58263 0.504 0.0
H1978 H 0.75375 0.58432 0.4712 0.0
H1979 H 0.78013 0.55843 0.47677 0.0
H1980 H 0.73386 0.46093 0.46731 0.0
H1981 H 0.70538 0.4719 0.42654 0.0
H1982 H 0.70759 0.55931 0.44835 0.0
C1983 C 0.76801 0.53287 0.54216 0.0
C1984 C 0.77917 0.5096 0.55626 0.0
C1985 C 0.77348 0.48258 0.54604 0.0
C1986 C 0.75911 0.47875 0.5212 0.0
C1987 C 0.75006 0.50209 0.50693 0.0
C1988 C 0.75336 0.52857 0.51734 0.0
C1989 C 0.74073 0.54988 0.49782 0.0
C1990 C 0.71695 0.56556 0.51218 0.0
C1991 C 0.76289 0.57001 0.4868 0.0
C1992 C 0.73001 0.5311 0.47488 0.0
C1993 C 0.73618 0.50369 0.48051 0.0
C1994 C 0.72856 0.48228 0.46278 0.0
C1995 C 0.71257 0.48878 0.43953 0.0
C1996 C 0.70398 0.51642 0.43436 0.0
C1997 C 0.71388 0.53802 0.45162 0.0
H1998 H 0.0479 0.29532 0.01375 0.0
H1999 H 0.05741 0.31056 0.10215 0.0
H2000 H 0.01356 0.286 0.11107 0.0
H2001 H 0.97554 0.30348 0.00961 0.0
H2002 H 0.96994 0.27536 0.98562 0.0
H2003 H 0.00255 0.29356 0.98572 0.0
H2004 H 0.02909 0.24738 0.9936 0.0
H2005 H 0.99663 0.22898 0.99259 0.0
H2006 H 0.01925 0.22518 0.02209 0.0
H2007 H 0.96637 0.26375 0.10998 0.0
H2008 H 0.92541 0.23475 0.10063 0.0
H2009 H 0.94833 0.23107 0.01343 0.0
C2010 C 0.0411 0.2931 0.03507 0.0
C2011 C 0.056 0.30542 0.05717 0.0
C2012 C 0.04635 0.30168 0.08475 0.0
C2013 C 0.02128 0.28792 0.09006 0.0
C2014 C 0.00638 0.27745 0.06765 0.0
C2015 C 0.01638 0.27899 0.04081 0.0
C2016 C 0.99693 0.26483 0.0206 0.0
C2017 C 0.98558 0.28555 0.99913 0.0
C2018 C 0.01133 0.24013 0.00639 0.0
C2019 C 0.97436 0.25526 0.04029 0.0
C2020 C 0.97994 0.26324 0.06723 0.0
C2021 C 0.962 0.25698 0.08902 0.0
C2022 C 0.93862 0.24061 0.08342 0.0
C2023 C 0.93378 0.23007 0.05637 0.0
C2024 C 0.95135 0.23861 0.03438 0.0
H2025 H 0.05368 0.72956 0.45767 0.0
H2026 H 0.05871 0.70777 0.54502 0.0
H2027 H 0.01894 0.73843 0.5548 0.0
H2028 H 0.02863 0.80128 0.46556 0.0
H2029 H 0.00572 0.79807 0.4362 0.0
H2030 H 0.0375 0.77849 0.43724 0.0
H2031 H 0.00939 0.7333 0.4299 0.0
H2032 H 0.97742 0.75253 0.42971 0.0
H2033 H 0.98217 0.72446 0.45399 0.0
H2034 H 0.97615 0.76871 0.55434 0.0
H2035 H 0.93625 0.79913 0.54415 0.0
H2036 H 0.95597 0.79514 0.45627 0.0
C2037 C 0.04691 0.73158 0.47898 0.0
C2038 C 0.0593 0.71598 0.50051 0.0
C2039 C 0.04967 0.71951 0.52812 0.0
C2040 C 0.02693 0.73673 0.53387 0.0
C2041 C 0.01393 0.75009 0.51178 0.0
C2042 C 0.02376 0.74792 0.48492 0.0
C2043 C 0.00485 0.76249 0.46454 0.0
C2044 C 0.02008 0.78651 0.45004 0.0
C2045 C 0.99275 0.74196 0.44329 0.0
C2046 C 0.98273 0.77307 0.4841 0.0
C2047 C 0.98847 0.766 0.51129 0.0
C2048 C 0.97147 0.77437 0.53312 0.0
C2049 C 0.9487 0.79145 0.52708 0.0
C2050 C 0.94292 0.79964 0.49939 0.0
C2051 C 0.95967 0.78935 0.47764 0.0
H2052 H 0.54905 0.78182 0.54869 0.0
H2053 H 0.56191 0.78816 0.45966 0.0
H2054 H 0.51947 0.7608 0.45174 0.0
H2055 H 0.51759 0.71234 0.54976 0.0
H2056 H 0.49338 0.72195 0.5766 0.0
H2057 H 0.52682 0.73847 0.57489 0.0
H2058 H 0.50246 0.7864 0.57334 0.0
H2059 H 0.46895 0.76995 0.57411 0.0
H2060 H 0.47761 0.79348 0.54632 0.0
H2061 H 0.47387 0.73546 0.45344 0.0
H2062 H 0.43158 0.70908 0.46489 0.0
H2063 H 0.44597 0.72438 0.55258 0.0
C2064 C 0.54336 0.77705 0.52752 0.0
C2065 C 0.55883 0.78742 0.50482 0.0
C2066 C 0.55049 0.78047 0.47744 0.0
C2067 C 0.52625 0.76514 0.4727 0.0
C2068 C 0.51046 0.75702 0.49552 0.0
C2069 C 0.51887 0.76238 0.5224 0.0
C2070 C 0.49745 0.75264 0.54324 0.0
C2071 C 0.50953 0.73 0.56224 0.0
C2072 C 0.48594 0.77708 0.56025 0.0
C2073 C 0.47569 0.74095 0.52387 0.0
C2074 C 0.48363 0.74358 0.49644 0.0
C2075 C 0.46744 0.73326 0.47486 0.0
C2076 C 0.44328 0.71852 0.48158 0.0
C2077 C 0.43542 0.71437 0.50968 0.0
C2078 C 0.45127 0.72699 0.5309 0.0
H2079 H 0.49928 0.5598 0.77595 0.0
H2080 H 0.5487 0.52596 0.84295 0.0
H2081 H 0.54805 0.48001 0.82082 0.0
H2082 H 0.45588 0.49755 0.76738 0.0
H2083 H 0.45399 0.50078 0.73014 0.0
H2084 H 0.45773 0.53133 0.75139 0.0
H2085 H 0.50188 0.54535 0.72404 0.0
H2086 H 0.4979 0.51513 0.7025 0.0
H2087 H 0.52994 0.52085 0.72084 0.0
H2088 H 0.54562 0.43892 0.78994 0.0
H2089 H 0.54113 0.40502 0.75168 0.0
H2090 H 0.4899 0.46348 0.70636 0.0
C2091 C 0.51008 0.54268 0.78568 0.0
C2092 C 0.52538 0.54664 0.81032 0.0
C2093 C 0.53848 0.52368 0.8231 0.0
C2094 C 0.53768 0.49735 0.81103 0.0
C2095 C 0.52305 0.49409 0.78644 0.0
C2096 C 0.50931 0.51599 0.77391 0.0
C2097 C 0.49561 0.50666 0.74718 0.0
C2098 C 0.46392 0.50923 0.74915 0.0
C2099 C 0.50703 0.52296 0.72217 0.0
C2100 C 0.50454 0.47646 0.74639 0.0
C2101 C 0.52019 0.46961 0.76936 0.0
C2102 C 0.53288 0.44375 0.7721 0.0
C2103 C 0.53018 0.42459 0.75037 0.0
C2104 C 0.51463 0.43132 0.72644 0.0
C2105 C 0.50106 0.45733 0.72487 0.0
H2106 H 0.44625 0.94367 0.7705 0.0
H2107 H 0.53545 0.93253 0.77595 0.0
H2108 H 0.54235 0.97446 0.74767 0.0
H2109 H 0.44489 0.97251 0.69945 0.0
H2110 H 0.41757 0.99657 0.70789 0.0
H2111 H 0.41973 0.9638 0.72575 0.0
H2112 H 0.42046 0.98991 0.77277 0.0
H2113 H 0.41908 0.0228 0.75505 0.0
H2114 H 0.44682 0.01565 0.77905 0.0
H2115 H 0.53995 0.01963 0.72245 0.0
H2116 H 0.52821 0.06135 0.69542 0.0
H2117 H 0.44062 0.04486 0.70851 0.0
C2118 C 0.46724 0.9496 0.76527 0.0
C2119 C 0.49028 0.93477 0.77579 0.0
C2120 C 0.51739 0.94341 0.76824 0.0
C2121 C 0.52157 0.9674 0.75235 0.0
C2122 C 0.49847 0.98253 0.74401 0.0
C2123 C 0.47182 0.97372 0.74968 0.0
C2124 C 0.45063 0.99436 0.73898 0.0
C2125 C 0.43212 0.98101 0.71669 0.0
C2126 C 0.43323 0.00638 0.76289 0.0
C2127 C 0.46959 0.01617 0.72656 0.0
C2128 C 0.49709 0.00892 0.72978 0.0
C2129 C 0.51848 0.02545 0.71963 0.0
C2130 C 0.51156 0.04928 0.70448 0.0
C2131 C 0.48346 0.05641 0.69956 0.0
C2132 C 0.46229 0.04013 0.7118 0.0
H2133 H 0.44985 0.27882 0.92365 0.0
H2134 H 0.43781 0.27937 0.01311 0.0
H2135 H 0.48284 0.25647 0.01929 0.0
H2136 H 0.48531 0.21142 0.92045 0.0
H2137 H 0.50852 0.22265 0.89335 0.0
H2138 H 0.47435 0.23748 0.89594 0.0
H2139 H 0.49624 0.28656 0.89799 0.0
H2140 H 0.5305 0.27181 0.89614 0.0
H2141 H 0.52135 0.29434 0.92456 0.0
H2142 H 0.53014 0.23658 0.01643 0.0
H2143 H 0.57358 0.2129 0.00425 0.0
H2144 H 0.55612 0.22591 0.9167 0.0
C2145 C 0.45635 0.27362 0.94451 0.0
C2146 C 0.44021 0.28118 0.96787 0.0
C2147 C 0.44967 0.27391 0.99481 0.0
C2148 C 0.4754 0.26109 0.99861 0.0
C2149 C 0.49143 0.25544 0.97529 0.0
C2150 C 0.4821 0.26083 0.94873 0.0
C2151 C 0.5036 0.25253 0.92728 0.0
C2152 C 0.49227 0.22966 0.90813 0.0
C2153 C 0.5135 0.27782 0.91051 0.0
C2154 C 0.52638 0.24161 0.94602 0.0
C2155 C 0.51895 0.24378 0.97363 0.0
C2156 C 0.53616 0.23459 0.99487 0.0
C2157 C 0.56094 0.22134 0.9877 0.0
C2158 C 0.56826 0.21716 0.95946 0.0
C2159 C 0.55124 0.22862 0.93845 0.0
loop_
_geom_bond_atom_site_label_1
_geom_bond_atom_site_label_2
_geom_bond_distance
_geom_bond_site_symmetry_2
_ccdc_geom_bond_type
Mn0 O5 2.095 . S
Mn0 O15 2.162 . S
Mn0 O16 2.297 . S
Mn0 O24 2.385 1_655 S
Mn0 O25 2.209 1_655 S
Mn0 O26 2.094 . S
Mn1 O6 2.121 . S
Mn1 N8 2.257 . S
Mn1 N17 2.282 . S
Mn1 O25 2.215 . S
Mn1 O27 2.117 . S
C2 O24 1.234 . S
C2 O25 1.283 . S
C3 O15 1.281 . S
C3 O16 1.236 . S
C4 O26 1.240 . S
C4 O27 1.264 1_655 S
O5 Mn0 2.095 . S
O5 C14 1.250 1_655 S
O6 Mn1 2.121 . S
O6 C14 1.258 . S
C7 N8 1.326 . S
C7 C11 1.460 . S
C7 H13 0.929 . S
N8 Mn1 2.257 . S
N8 C7 1.326 . S
N8 C12 1.362 . S
C9 C10 1.258 . S
C9 C12 1.431 . S
C9 C29 1.449 . S
C10 C9 1.258 . S
C10 C11 1.477 . S
C10 H30 0.931 . S
C11 C7 1.460 . S
C11 C10 1.477 . S
C11 H31 0.930 . S
C12 N8 1.362 . S
C12 C9 1.431 . S
C12 C22 1.476 . S
H13 C7 0.929 . S
C14 O5 1.250 1_455 S
C14 O6 1.258 . S
O15 Mn0 2.162 . S
O15 C3 1.281 . S
O16 Mn0 2.297 . S
O16 C3 1.236 . S
N17 Mn1 2.282 . S
N17 C18 1.328 . S
N17 C22 1.318 . S
C18 N17 1.328 . S
C18 C19 1.457 . S
C18 H23 0.929 . S
C19 C18 1.457 . S
C19 C20 1.291 . S
C19 H32 0.931 . S
C20 C19 1.291 . S
C20 C21 1.373 . S
C20 H33 0.929 . S
C21 C20 1.373 . S
C21 C22 1.396 . S
C21 C28 1.403 . S
C22 C12 1.476 . S
C22 N17 1.318 . S
C22 C21 1.396 . S
H23 C18 0.929 . S
O24 Mn0 2.385 1_455 S
O24 C2 1.234 . S
O25 Mn0 2.209 1_455 S
O25 Mn1 2.215 . S
O25 C2 1.283 . S
O26 Mn0 2.094 . S
O26 C4 1.240 . S
O27 Mn1 2.117 . S
O27 C4 1.264 1_455 S
C28 C21 1.403 . S
C28 C29 1.399 . S
C28 H34 0.929 . S
C29 C9 1.449 . S
C29 C28 1.399 . S
C29 H35 0.930 . S
H30 C10 0.931 . S
H31 C11 0.930 . S
H32 C19 0.931 . S
H33 C20 0.929 . S
H34 C28 0.929 . S
H35 C29 0.930 . S
Mn36 O41 2.095 . S
Mn36 O51 2.162 . S
Mn36 O52 2.297 . S
Mn36 O60 2.385 1_455 S
Mn36 O61 2.209 1_455 S
Mn36 O62 2.094 . S
Mn37 O42 2.121 . S
Mn37 N44 2.257 . S
Mn37 N53 2.282 . S
Mn37 O61 2.215 . S
Mn37 O63 2.117 . S
C38 O60 1.234 . S
C38 O61 1.283 . S
C39 O51 1.281 . S
C39 O52 1.236 . S
C40 O62 1.240 . S
C40 O63 1.264 1_455 S
O41 Mn36 2.095 . S
O41 C50 1.250 1_455 S
O42 Mn37 2.121 . S
O42 C50 1.258 . S
C43 N44 1.326 . S
C43 C47 1.460 . S
C43 H49 0.929 . S
N44 Mn37 2.257 . S
N44 C43 1.326 . S
N44 C48 1.362 . S
C45 C46 1.258 . S
C45 C48 1.431 . S
C45 C65 1.449 . S
C46 C45 1.258 . S
C46 C47 1.477 . S
C46 H66 0.931 . S
C47 C43 1.460 . S
C47 C46 1.477 . S
C47 H67 0.930 . S
C48 N44 1.362 . S
C48 C45 1.431 . S
C48 C58 1.476 . S
H49 C43 0.929 . S
C50 O41 1.250 1_655 S
C50 O42 1.258 . S
O51 Mn36 2.162 . S
O51 C39 1.281 . S
O52 Mn36 2.297 . S
O52 C39 1.236 . S
N53 Mn37 2.282 . S
N53 C54 1.328 . S
N53 C58 1.318 . S
C54 N53 1.328 . S
C54 C55 1.457 . S
C54 H59 0.929 . S
C55 C54 1.457 . S
C55 C56 1.291 . S
C55 H68 0.931 . S
C56 C55 1.291 . S
C56 C57 1.373 . S
C56 H69 0.929 . S
C57 C56 1.373 . S
C57 C58 1.396 . S
C57 C64 1.403 . S
C58 C48 1.476 . S
C58 N53 1.318 . S
C58 C57 1.396 . S
H59 C54 0.929 . S
O60 Mn36 2.385 1_655 S
O60 C38 1.234 . S
O61 Mn36 2.209 1_655 S
O61 Mn37 2.215 . S
O61 C38 1.283 . S
O62 Mn36 2.094 . S
O62 C40 1.240 . S
O63 Mn37 2.117 . S
O63 C40 1.264 1_655 S
C64 C57 1.403 . S
C64 C65 1.399 . S
C64 H70 0.929 . S
C65 C45 1.449 . S
C65 C64 1.399 . S
C65 H71 0.930 . S
H66 C46 0.931 . S
H67 C47 0.930 . S
H68 C55 0.931 . S
H69 C56 0.929 . S
H70 C64 0.929 . S
H71 C65 0.930 . S
Mn72 O77 2.095 . S
Mn72 O87 2.162 . S
Mn72 O88 2.297 . S
Mn72 O96 2.385 1_655 S
Mn72 O97 2.209 1_655 S
Mn72 O98 2.094 . S
Mn73 O78 2.121 . S
Mn73 N80 2.257 . S
Mn73 N89 2.282 . S
Mn73 O97 2.215 . S
Mn73 O99 2.117 . S
C74 O96 1.234 . S
C74 O97 1.283 . S
C75 O87 1.281 . S
C75 O88 1.236 . S
C76 O98 1.240 . S
C76 O99 1.264 1_655 S
O77 Mn72 2.095 . S
O77 C86 1.250 1_655 S
O78 Mn73 2.121 . S
O78 C86 1.258 . S
C79 N80 1.326 . S
C79 C83 1.460 . S
C79 H85 0.929 . S
N80 Mn73 2.257 . S
N80 C79 1.326 . S
N80 C84 1.362 . S
C81 C82 1.258 . S
C81 C84 1.431 . S
C81 C101 1.449 . S
C82 C81 1.258 . S
C82 C83 1.477 . S
C82 H102 0.931 . S
C83 C79 1.460 . S
C83 C82 1.477 . S
C83 H103 0.930 . S
C84 N80 1.362 . S
C84 C81 1.431 . S
C84 C94 1.476 . S
H85 C79 0.929 . S
C86 O77 1.250 1_455 S
C86 O78 1.258 . S
O87 Mn72 2.162 . S
O87 C75 1.281 . S
O88 Mn72 2.297 . S
O88 C75 1.236 . S
N89 Mn73 2.282 . S
N89 C90 1.328 . S
N89 C94 1.318 . S
C90 N89 1.328 . S
C90 C91 1.457 . S
C90 H95 0.929 . S
C91 C90 1.457 . S
C91 C92 1.291 . S
C91 H104 0.931 . S
C92 C91 1.291 . S
C92 C93 1.373 . S
C92 H105 0.929 . S
C93 C92 1.373 . S
C93 C94 1.396 . S
C93 C100 1.403 . S
C94 C84 1.476 . S
C94 N89 1.318 . S
C94 C93 1.396 . S
H95 C90 0.929 . S
O96 Mn72 2.385 1_455 S
O96 C74 1.234 . S
O97 Mn72 2.209 1_455 S
O97 Mn73 2.215 . S
O97 C74 1.283 . S
O98 Mn72 2.094 . S
O98 C76 1.240 . S
O99 Mn73 2.117 . S
O99 C76 1.264 1_455 S
C100 C93 1.403 . S
C100 C101 1.399 . S
C100 H106 0.929 . S
C101 C81 1.449 . S
C101 C100 1.399 . S
C101 H107 0.930 . S
H102 C82 0.931 . S
H103 C83 0.930 . S
H104 C91 0.931 . S
H105 C92 0.929 . S
H106 C100 0.929 . S
H107 C101 0.930 . S
Mn108 O113 2.095 . S
Mn108 O123 2.162 . S
Mn108 O124 2.297 . S
Mn108 O132 2.385 1_455 S
Mn108 O133 2.209 1_455 S
Mn108 O134 2.094 . S
Mn109 O114 2.121 . S
Mn109 N116 2.257 . S
Mn109 N125 2.282 . S
Mn109 O133 2.215 . S
Mn109 O135 2.117 . S
C110 O132 1.234 . S
C110 O133 1.283 . S
C111 O123 1.281 . S
C111 O124 1.236 . S
C112 O134 1.240 . S
C112 O135 1.264 1_455 S
O113 Mn108 2.095 . S
O113 C122 1.250 1_455 S
O114 Mn109 2.121 . S
O114 C122 1.258 . S
C115 N116 1.326 . S
C115 C119 1.460 . S
C115 H121 0.929 . S
N116 Mn109 2.257 . S
N116 C115 1.326 . S
N116 C120 1.362 . S
C117 C118 1.258 . S
C117 C120 1.431 . S
C117 C137 1.449 . S
C118 C117 1.258 . S
C118 C119 1.477 . S
C118 H138 0.931 . S
C119 C115 1.460 . S
C119 C118 1.477 . S
C119 H139 0.930 . S
C120 N116 1.362 . S
C120 C117 1.431 . S
C120 C130 1.476 . S
H121 C115 0.929 . S
C122 O113 1.250 1_655 S
C122 O114 1.258 . S
O123 Mn108 2.162 . S
O123 C111 1.281 . S
O124 Mn108 2.297 . S
O124 C111 1.236 . S
N125 Mn109 2.282 . S
N125 C126 1.328 . S
N125 C130 1.318 . S
C126 N125 1.328 . S
C126 C127 1.457 . S
C126 H131 0.929 . S
C127 C126 1.457 . S
C127 C128 1.291 . S
C127 H140 0.931 . S
C128 C127 1.291 . S
C128 C129 1.373 . S
C128 H141 0.929 . S
C129 C128 1.373 . S
C129 C130 1.396 . S
C129 C136 1.403 . S
C130 C120 1.476 . S
C130 N125 1.318 . S
C130 C129 1.396 . S
H131 C126 0.929 . S
O132 Mn108 2.385 1_655 S
O132 C110 1.234 . S
O133 Mn108 2.209 1_655 S
O133 Mn109 2.215 . S
O133 C110 1.283 . S
O134 Mn108 2.094 . S
O134 C112 1.240 . S
O135 Mn109 2.117 . S
O135 C112 1.264 1_655 S
C136 C129 1.403 . S
C136 C137 1.399 . S
C136 H142 0.929 . S
C137 C117 1.449 . S
C137 C136 1.399 . S
C137 H143 0.930 . S
H138 C118 0.931 . S
H139 C119 0.930 . S
H140 C127 0.931 . S
H141 C128 0.929 . S
H142 C136 0.929 . S
H143 C137 0.930 . S
Mn144 O149 2.095 . S
Mn144 O159 2.162 . S
Mn144 O160 2.297 . S
Mn144 O168 2.385 1_565 S
Mn144 O169 2.209 1_565 S
Mn144 O170 2.094 . S
Mn145 O150 2.121 . S
Mn145 N152 2.257 . S
Mn145 N161 2.282 . S
Mn145 O169 2.215 . S
Mn145 O171 2.117 . S
C146 O168 1.234 . S
C146 O169 1.283 . S
C147 O159 1.281 . S
C147 O160 1.236 . S
C148 O170 1.240 . S
C148 O171 1.264 1_565 S
O149 Mn144 2.095 . S
O149 C158 1.250 1_565 S
O150 Mn145 2.121 . S
O150 C158 1.258 . S
C151 N152 1.326 . S
C151 C155 1.460 . S
C151 H157 0.929 . S
N152 Mn145 2.257 . S
N152 C151 1.326 . S
N152 C156 1.362 . S
C153 C154 1.258 . S
C153 C156 1.431 . S
C153 C173 1.449 . S
C154 C153 1.258 . S
C154 C155 1.477 . S
C154 H174 0.931 . S
C155 C151 1.460 . S
C155 C154 1.477 . S
C155 H175 0.930 . S
C156 N152 1.362 . S
C156 C153 1.431 . S
C156 C166 1.476 . S
H157 C151 0.929 . S
C158 O149 1.250 1_545 S
C158 O150 1.258 . S
O159 Mn144 2.162 . S
O159 C147 1.281 . S
O160 Mn144 2.297 . S
O160 C147 1.236 . S
N161 Mn145 2.282 . S
N161 C162 1.328 . S
N161 C166 1.318 . S
C162 N161 1.328 . S
C162 C163 1.457 . S
C162 H167 0.929 . S
C163 C162 1.457 . S
C163 C164 1.291 . S
C163 H176 0.931 . S
C164 C163 1.291 . S
C164 C165 1.373 . S
C164 H177 0.929 . S
C165 C164 1.373 . S
C165 C166 1.396 . S
C165 C172 1.403 . S
C166 C156 1.476 . S
C166 N161 1.318 . S
C166 C165 1.396 . S
H167 C162 0.929 . S
O168 Mn144 2.385 1_545 S
O168 C146 1.234 . S
O169 Mn144 2.209 1_545 S
O169 Mn145 2.215 . S
O169 C146 1.283 . S
O170 Mn144 2.094 . S
O170 C148 1.240 . S
O171 Mn145 2.117 . S
O171 C148 1.264 1_545 S
C172 C165 1.403 . S
C172 C173 1.399 . S
C172 H178 0.929 . S
C173 C153 1.449 . S
C173 C172 1.399 . S
C173 H179 0.930 . S
H174 C154 0.931 . S
H175 C155 0.930 . S
H176 C163 0.931 . S
H177 C164 0.929 . S
H178 C172 0.929 . S
H179 C173 0.930 . S
Mn180 O185 2.095 . S
Mn180 O195 2.162 . S
Mn180 O196 2.297 . S
Mn180 O204 2.385 . S
Mn180 O205 2.209 . S
Mn180 O206 2.094 . S
Mn181 O186 2.121 . S
Mn181 N188 2.257 . S
Mn181 N197 2.282 . S
Mn181 O205 2.215 . S
Mn181 O207 2.117 . S
C182 O204 1.234 . S
C182 O205 1.283 . S
C183 O195 1.281 . S
C183 O196 1.236 . S
C184 O206 1.240 . S
C184 O207 1.264 . S
O185 Mn180 2.095 . S
O185 C194 1.250 . S
O186 Mn181 2.121 . S
O186 C194 1.258 . S
C187 N188 1.326 . S
C187 C191 1.460 . S
C187 H193 0.929 . S
N188 Mn181 2.257 . S
N188 C187 1.326 . S
N188 C192 1.362 . S
C189 C190 1.258 . S
C189 C192 1.431 . S
C189 C209 1.449 . S
C190 C189 1.258 . S
C190 C191 1.477 . S
C190 H210 0.931 . S
C191 C187 1.460 . S
C191 C190 1.477 . S
C191 H211 0.930 . S
C192 N188 1.362 . S
C192 C189 1.431 . S
C192 C202 1.476 . S
H193 C187 0.929 . S
C194 O185 1.250 . S
C194 O186 1.258 . S
O195 Mn180 2.162 . S
O195 C183 1.281 . S
O196 Mn180 2.297 . S
O196 C183 1.236 . S
N197 Mn181 2.282 . S
N197 C198 1.328 . S
N197 C202 1.318 . S
C198 N197 1.328 . S
C198 C199 1.457 . S
C198 H203 0.929 . S
C199 C198 1.457 . S
C199 C200 1.291 . S
C199 H212 0.931 . S
C200 C199 1.291 . S
C200 C201 1.373 . S
C200 H213 0.929 . S
C201 C200 1.373 . S
C201 C202 1.396 . S
C201 C208 1.403 . S
C202 C192 1.476 . S
C202 N197 1.318 . S
C202 C201 1.396 . S
H203 C198 0.929 . S
O204 Mn180 2.385 . S
O204 C182 1.234 . S
O205 Mn180 2.209 . S
O205 Mn181 2.215 . S
O205 C182 1.283 . S
O206 Mn180 2.094 . S
O206 C184 1.240 . S
O207 Mn181 2.117 . S
O207 C184 1.264 . S
C208 C201 1.403 . S
C208 C209 1.399 . S
C208 H214 0.929 . S
C209 C189 1.449 . S
C209 C208 1.399 . S
C209 H215 0.930 . S
H210 C190 0.931 . S
H211 C191 0.930 . S
H212 C199 0.931 . S
H213 C200 0.929 . S
H214 C208 0.929 . S
H215 C209 0.930 . S
Mn216 O221 2.095 . S
Mn216 O231 2.162 . S
Mn216 O232 2.297 . S
Mn216 O240 2.385 1_545 S
Mn216 O241 2.209 1_545 S
Mn216 O242 2.094 . S
Mn217 O222 2.121 . S
Mn217 N224 2.257 . S
Mn217 N233 2.282 . S
Mn217 O241 2.215 . S
Mn217 O243 2.117 . S
C218 O240 1.234 . S
C218 O241 1.283 . S
C219 O231 1.281 . S
C219 O232 1.236 . S
C220 O242 1.240 . S
C220 O243 1.264 1_545 S
O221 Mn216 2.095 . S
O221 C230 1.250 1_545 S
O222 Mn217 2.121 . S
O222 C230 1.258 . S
C223 N224 1.326 . S
C223 C227 1.460 . S
C223 H229 0.929 . S
N224 Mn217 2.257 . S
N224 C223 1.326 . S
N224 C228 1.362 . S
C225 C226 1.258 . S
C225 C228 1.431 . S
C225 C245 1.449 . S
C226 C225 1.258 . S
C226 C227 1.477 . S
C226 H246 0.931 . S
C227 C223 1.460 . S
C227 C226 1.477 . S
C227 H247 0.930 . S
C228 N224 1.362 . S
C228 C225 1.431 . S
C228 C238 1.476 . S
H229 C223 0.929 . S
C230 O221 1.250 1_565 S
C230 O222 1.258 . S
O231 Mn216 2.162 . S
O231 C219 1.281 . S
O232 Mn216 2.297 . S
O232 C219 1.236 . S
N233 Mn217 2.282 . S
N233 C234 1.328 . S
N233 C238 1.318 . S
C234 N233 1.328 . S
C234 C235 1.457 . S
C234 H239 0.929 . S
C235 C234 1.457 . S
C235 C236 1.291 . S
C235 H248 0.931 . S
C236 C235 1.291 . S
C236 C237 1.373 . S
C236 H249 0.929 . S
C237 C236 1.373 . S
C237 C238 1.396 . S
C237 C244 1.403 . S
C238 C228 1.476 . S
C238 N233 1.318 . S
C238 C237 1.396 . S
H239 C234 0.929 . S
O240 Mn216 2.385 1_565 S
O240 C218 1.234 . S
O241 Mn216 2.209 1_565 S
O241 Mn217 2.215 . S
O241 C218 1.283 . S
O242 Mn216 2.094 . S
O242 C220 1.240 . S
O243 Mn217 2.117 . S
O243 C220 1.264 1_565 S
C244 C237 1.403 . S
C244 C245 1.399 . S
C244 H250 0.929 . S
C245 C225 1.449 . S
C245 C244 1.399 . S
C245 H251 0.930 . S
H246 C226 0.931 . S
H247 C227 0.930 . S
H248 C235 0.931 . S
H249 C236 0.929 . S
H250 C244 0.929 . S
H251 C245 0.930 . S
Mn252 O257 2.095 . S
Mn252 O267 2.162 . S
Mn252 O268 2.297 . S
Mn252 O276 2.385 . S
Mn252 O277 2.209 . S
Mn252 O278 2.094 . S
Mn253 O258 2.121 . S
Mn253 N260 2.257 . S
Mn253 N269 2.282 . S
Mn253 O277 2.215 . S
Mn253 O279 2.117 . S
C254 O276 1.234 . S
C254 O277 1.283 . S
C255 O267 1.281 . S
C255 O268 1.236 . S
C256 O278 1.240 . S
C256 O279 1.264 . S
O257 Mn252 2.095 . S
O257 C266 1.250 . S
O258 Mn253 2.121 . S
O258 C266 1.258 . S
C259 N260 1.326 . S
C259 C263 1.460 . S
C259 H265 0.929 . S
N260 Mn253 2.257 . S
N260 C259 1.326 . S
N260 C264 1.362 . S
C261 C262 1.258 . S
C261 C264 1.431 . S
C261 C281 1.449 . S
C262 C261 1.258 . S
C262 C263 1.477 . S
C262 H282 0.931 . S
C263 C259 1.460 . S
C263 C262 1.477 . S
C263 H283 0.930 . S
C264 N260 1.362 . S
C264 C261 1.431 . S
C264 C274 1.476 . S
H265 C259 0.929 . S
C266 O257 1.250 . S
C266 O258 1.258 . S
O267 Mn252 2.162 . S
O267 C255 1.281 . S
O268 Mn252 2.297 . S
O268 C255 1.236 . S
N269 Mn253 2.282 . S
N269 C270 1.328 . S
N269 C274 1.318 . S
C270 N269 1.328 . S
C270 C271 1.457 . S
C270 H275 0.929 . S
C271 C270 1.457 . S
C271 C272 1.291 . S
C271 H284 0.931 . S
C272 C271 1.291 . S
C272 C273 1.373 . S
C272 H285 0.929 . S
C273 C272 1.373 . S
C273 C274 1.396 . S
C273 C280 1.403 . S
C274 C264 1.476 . S
C274 N269 1.318 . S
C274 C273 1.396 . S
H275 C270 0.929 . S
O276 Mn252 2.385 . S
O276 C254 1.234 . S
O277 Mn252 2.209 . S
O277 Mn253 2.215 . S
O277 C254 1.283 . S
O278 Mn252 2.094 . S
O278 C256 1.240 . S
O279 Mn253 2.117 . S
O279 C256 1.264 . S
C280 C273 1.403 . S
C280 C281 1.399 . S
C280 H286 0.929 . S
C281 C261 1.449 . S
C281 C280 1.399 . S
C281 H287 0.930 . S
H282 C262 0.931 . S
H283 C263 0.930 . S
H284 C271 0.931 . S
H285 C272 0.929 . S
H286 C280 0.929 . S
H287 C281 0.930 . S
Mn288 O293 2.095 . S
Mn288 O303 2.162 . S
Mn288 O304 2.297 . S
Mn288 O312 2.385 1_556 S
Mn288 O313 2.209 1_556 S
Mn288 O314 2.094 . S
Mn289 O294 2.121 . S
Mn289 N296 2.257 . S
Mn289 N305 2.282 . S
Mn289 O313 2.215 . S
Mn289 O315 2.117 . S
C290 O312 1.234 . S
C290 O313 1.283 . S
C291 O303 1.281 . S
C291 O304 1.236 . S
C292 O314 1.240 . S
C292 O315 1.264 1_556 S
O293 Mn288 2.095 . S
O293 C302 1.250 1_556 S
O294 Mn289 2.121 . S
O294 C302 1.258 . S
C295 N296 1.326 . S
C295 C299 1.460 . S
C295 H301 0.929 . S
N296 Mn289 2.257 . S
N296 C295 1.326 . S
N296 C300 1.362 . S
C297 C298 1.258 . S
C297 C300 1.431 . S
C297 C317 1.449 . S
C298 C297 1.258 . S
C298 C299 1.477 . S
C298 H318 0.931 . S
C299 C295 1.460 . S
C299 C298 1.477 . S
C299 H319 0.930 . S
C300 N296 1.362 . S
C300 C297 1.431 . S
C300 C310 1.476 . S
H301 C295 0.929 . S
C302 O293 1.250 1_554 S
C302 O294 1.258 . S
O303 Mn288 2.162 . S
O303 C291 1.281 . S
O304 Mn288 2.297 . S
O304 C291 1.236 . S
N305 Mn289 2.282 . S
N305 C306 1.328 . S
N305 C310 1.318 . S
C306 N305 1.328 . S
C306 C307 1.457 . S
C306 H311 0.929 . S
C307 C306 1.457 . S
C307 C308 1.291 . S
C307 H320 0.931 . S
C308 C307 1.291 . S
C308 C309 1.373 . S
C308 H321 0.929 . S
C309 C308 1.373 . S
C309 C310 1.396 . S
C309 C316 1.403 . S
C310 C300 1.476 . S
C310 N305 1.318 . S
C310 C309 1.396 . S
H311 C306 0.929 . S
O312 Mn288 2.385 1_554 S
O312 C290 1.234 . S
O313 Mn288 2.209 1_554 S
O313 Mn289 2.215 . S
O313 C290 1.283 . S
O314 Mn288 2.094 . S
O314 C292 1.240 . S
O315 Mn289 2.117 . S
O315 C292 1.264 1_554 S
C316 C309 1.403 . S
C316 C317 1.399 . S
C316 H322 0.929 . S
C317 C297 1.449 . S
C317 C316 1.399 . S
C317 H323 0.930 . S
H318 C298 0.931 . S
H319 C299 0.930 . S
H320 C307 0.931 . S
H321 C308 0.929 . S
H322 C316 0.929 . S
H323 C317 0.930 . S
Mn324 O329 2.095 . S
Mn324 O339 2.162 . S
Mn324 O340 2.297 . S
Mn324 O348 2.385 . S
Mn324 O349 2.209 . S
Mn324 O350 2.094 . S
Mn325 O330 2.121 . S
Mn325 N332 2.257 . S
Mn325 N341 2.282 . S
Mn325 O349 2.215 . S
Mn325 O351 2.117 . S
C326 O348 1.234 . S
C326 O349 1.283 . S
C327 O339 1.281 . S
C327 O340 1.236 . S
C328 O350 1.240 . S
C328 O351 1.264 . S
O329 Mn324 2.095 . S
O329 C338 1.250 . S
O330 Mn325 2.121 . S
O330 C338 1.258 . S
C331 N332 1.326 . S
C331 C335 1.460 . S
C331 H337 0.929 . S
N332 Mn325 2.257 . S
N332 C331 1.326 . S
N332 C336 1.362 . S
C333 C334 1.258 . S
C333 C336 1.431 . S
C333 C353 1.449 . S
C334 C333 1.258 . S
C334 C335 1.477 . S
C334 H354 0.931 . S
C335 C331 1.460 . S
C335 C334 1.477 . S
C335 H355 0.930 . S
C336 N332 1.362 . S
C336 C333 1.431 . S
C336 C346 1.476 . S
H337 C331 0.929 . S
C338 O329 1.250 . S
C338 O330 1.258 . S
O339 Mn324 2.162 . S
O339 C327 1.281 . S
O340 Mn324 2.297 . S
O340 C327 1.236 . S
N341 Mn325 2.282 . S
N341 C342 1.328 . S
N341 C346 1.318 . S
C342 N341 1.328 . S
C342 C343 1.457 . S
C342 H347 0.929 . S
C343 C342 1.457 . S
C343 C344 1.291 . S
C343 H356 0.931 . S
C344 C343 1.291 . S
C344 C345 1.373 . S
C344 H357 0.929 . S
C345 C344 1.373 . S
C345 C346 1.396 . S
C345 C352 1.403 . S
C346 C336 1.476 . S
C346 N341 1.318 . S
C346 C345 1.396 . S
H347 C342 0.929 . S
O348 Mn324 2.385 . S
O348 C326 1.234 . S
O349 Mn324 2.209 . S
O349 Mn325 2.215 . S
O349 C326 1.283 . S
O350 Mn324 2.094 . S
O350 C328 1.240 . S
O351 Mn325 2.117 . S
O351 C328 1.264 . S
C352 C345 1.403 . S
C352 C353 1.399 . S
C352 H358 0.929 . S
C353 C333 1.449 . S
C353 C352 1.399 . S
C353 H359 0.930 . S
H354 C334 0.931 . S
H355 C335 0.930 . S
H356 C343 0.931 . S
H357 C344 0.929 . S
H358 C352 0.929 . S
H359 C353 0.930 . S
Mn360 O365 2.095 . S
Mn360 O375 2.162 . S
Mn360 O376 2.297 . S
Mn360 O384 2.385 . S
Mn360 O385 2.209 . S
Mn360 O386 2.094 . S
Mn361 O366 2.121 . S
Mn361 N368 2.257 . S
Mn361 N377 2.282 . S
Mn361 O385 2.215 . S
Mn361 O387 2.117 . S
C362 O384 1.234 . S
C362 O385 1.283 . S
C363 O375 1.281 . S
C363 O376 1.236 . S
C364 O386 1.240 . S
C364 O387 1.264 . S
O365 Mn360 2.095 . S
O365 C374 1.250 . S
O366 Mn361 2.121 . S
O366 C374 1.258 . S
C367 N368 1.326 . S
C367 C371 1.460 . S
C367 H373 0.929 . S
N368 Mn361 2.257 . S
N368 C367 1.326 . S
N368 C372 1.362 . S
C369 C370 1.258 . S
C369 C372 1.431 . S
C369 C389 1.449 . S
C370 C369 1.258 . S
C370 C371 1.477 . S
C370 H390 0.931 . S
C371 C367 1.460 . S
C371 C370 1.477 . S
C371 H391 0.930 . S
C372 N368 1.362 . S
C372 C369 1.431 . S
C372 C382 1.476 . S
H373 C367 0.929 . S
C374 O365 1.250 . S
C374 O366 1.258 . S
O375 Mn360 2.162 . S
O375 C363 1.281 . S
O376 Mn360 2.297 . S
O376 C363 1.236 . S
N377 Mn361 2.282 . S
N377 C378 1.328 . S
N377 C382 1.318 . S
C378 N377 1.328 . S
C378 C379 1.457 . S
C378 H383 0.929 . S
C379 C378 1.457 . S
C379 C380 1.291 . S
C379 H392 0.931 . S
C380 C379 1.291 . S
C380 C381 1.373 . S
C380 H393 0.929 . S
C381 C380 1.373 . S
C381 C382 1.396 . S
C381 C388 1.403 . S
C382 C372 1.476 . S
C382 N377 1.318 . S
C382 C381 1.396 . S
H383 C378 0.929 . S
O384 Mn360 2.385 . S
O384 C362 1.234 . S
O385 Mn360 2.209 . S
O385 Mn361 2.215 . S
O385 C362 1.283 . S
O386 Mn360 2.094 . S
O386 C364 1.240 . S
O387 Mn361 2.117 . S
O387 C364 1.264 . S
C388 C381 1.403 . S
C388 C389 1.399 . S
C388 H394 0.929 . S
C389 C369 1.449 . S
C389 C388 1.399 . S
C389 H395 0.930 . S
H390 C370 0.931 . S
H391 C371 0.930 . S
H392 C379 0.931 . S
H393 C380 0.929 . S
H394 C388 0.929 . S
H395 C389 0.930 . S
Mn396 O401 2.095 . S
Mn396 O411 2.162 . S
Mn396 O412 2.297 . S
Mn396 O420 2.385 . S
Mn396 O421 2.209 . S
Mn396 O422 2.094 . S
Mn397 O402 2.121 . S
Mn397 N404 2.257 . S
Mn397 N413 2.282 . S
Mn397 O421 2.215 . S
Mn397 O423 2.117 . S
C398 O420 1.234 . S
C398 O421 1.283 . S
C399 O411 1.281 . S
C399 O412 1.236 . S
C400 O422 1.240 . S
C400 O423 1.264 . S
O401 Mn396 2.095 . S
O401 C410 1.250 . S
O402 Mn397 2.121 . S
O402 C410 1.258 . S
C403 N404 1.326 . S
C403 C407 1.460 . S
C403 H409 0.929 . S
N404 Mn397 2.257 . S
N404 C403 1.326 . S
N404 C408 1.362 . S
C405 C406 1.258 . S
C405 C408 1.431 . S
C405 C425 1.449 . S
C406 C405 1.258 . S
C406 C407 1.477 . S
C406 H426 0.931 . S
C407 C403 1.460 . S
C407 C406 1.477 . S
C407 H427 0.930 . S
C408 N404 1.362 . S
C408 C405 1.431 . S
C408 C418 1.476 . S
H409 C403 0.929 . S
C410 O401 1.250 . S
C410 O402 1.258 . S
O411 Mn396 2.162 . S
O411 C399 1.281 . S
O412 Mn396 2.297 . S
O412 C399 1.236 . S
N413 Mn397 2.282 . S
N413 C414 1.328 . S
N413 C418 1.318 . S
C414 N413 1.328 . S
C414 C415 1.457 . S
C414 H419 0.929 . S
C415 C414 1.457 . S
C415 C416 1.291 . S
C415 H428 0.931 . S
C416 C415 1.291 . S
C416 C417 1.373 . S
C416 H429 0.929 . S
C417 C416 1.373 . S
C417 C418 1.396 . S
C417 C424 1.403 . S
C418 C408 1.476 . S
C418 N413 1.318 . S
C418 C417 1.396 . S
H419 C414 0.929 . S
O420 Mn396 2.385 . S
O420 C398 1.234 . S
O421 Mn396 2.209 . S
O421 Mn397 2.215 . S
O421 C398 1.283 . S
O422 Mn396 2.094 . S
O422 C400 1.240 . S
O423 Mn397 2.117 . S
O423 C400 1.264 . S
C424 C417 1.403 . S
C424 C425 1.399 . S
C424 H430 0.929 . S
C425 C405 1.449 . S
C425 C424 1.399 . S
C425 H431 0.930 . S
H426 C406 0.931 . S
H427 C407 0.930 . S
H428 C415 0.931 . S
H429 C416 0.929 . S
H430 C424 0.929 . S
H431 C425 0.930 . S
Mn432 O437 2.095 . S
Mn432 O447 2.162 . S
Mn432 O448 2.297 . S
Mn432 O456 2.385 . S
Mn432 O457 2.209 . S
Mn432 O458 2.094 . S
Mn433 O438 2.121 . S
Mn433 N440 2.257 . S
Mn433 N449 2.282 . S
Mn433 O457 2.215 . S
Mn433 O459 2.117 . S
C434 O456 1.234 . S
C434 O457 1.283 . S
C435 O447 1.281 . S
C435 O448 1.236 . S
C436 O458 1.240 . S
C436 O459 1.264 . S
O437 Mn432 2.095 . S
O437 C446 1.250 . S
O438 Mn433 2.121 . S
O438 C446 1.258 . S
C439 N440 1.326 . S
C439 C443 1.460 . S
C439 H445 0.929 . S
N440 Mn433 2.257 . S
N440 C439 1.326 . S
N440 C444 1.362 . S
C441 C442 1.258 . S
C441 C444 1.431 . S
C441 C461 1.449 . S
C442 C441 1.258 . S
C442 C443 1.477 . S
C442 H462 0.931 . S
C443 C439 1.460 . S
C443 C442 1.477 . S
C443 H463 0.930 . S
C444 N440 1.362 . S
C444 C441 1.431 . S
C444 C454 1.476 . S
H445 C439 0.929 . S
C446 O437 1.250 . S
C446 O438 1.258 . S
O447 Mn432 2.162 . S
O447 C435 1.281 . S
O448 Mn432 2.297 . S
O448 C435 1.236 . S
N449 Mn433 2.282 . S
N449 C450 1.328 . S
N449 C454 1.318 . S
C450 N449 1.328 . S
C450 C451 1.457 . S
C450 H455 0.929 . S
C451 C450 1.457 . S
C451 C452 1.291 . S
C451 H464 0.931 . S
C452 C451 1.291 . S
C452 C453 1.373 . S
C452 H465 0.929 . S
C453 C452 1.373 . S
C453 C454 1.396 . S
C453 C460 1.403 . S
C454 C444 1.476 . S
C454 N449 1.318 . S
C454 C453 1.396 . S
H455 C450 0.929 . S
O456 Mn432 2.385 . S
O456 C434 1.234 . S
O457 Mn432 2.209 . S
O457 Mn433 2.215 . S
O457 C434 1.283 . S
O458 Mn432 2.094 . S
O458 C436 1.240 . S
O459 Mn433 2.117 . S
O459 C436 1.264 . S
C460 C453 1.403 . S
C460 C461 1.399 . S
C460 H466 0.929 . S
C461 C441 1.449 . S
C461 C460 1.399 . S
C461 H467 0.930 . S
H462 C442 0.931 . S
H463 C443 0.930 . S
H464 C451 0.931 . S
H465 C452 0.929 . S
H466 C460 0.929 . S
H467 C461 0.930 . S
Mn468 O473 2.095 . S
Mn468 O483 2.162 . S
Mn468 O484 2.297 . S
Mn468 O492 2.385 . S
Mn468 O493 2.209 . S
Mn468 O494 2.094 . S
Mn469 O474 2.121 . S
Mn469 N476 2.257 . S
Mn469 N485 2.282 . S
Mn469 O493 2.215 . S
Mn469 O495 2.117 . S
C470 O492 1.234 . S
C470 O493 1.283 . S
C471 O483 1.281 . S
C471 O484 1.236 . S
C472 O494 1.240 . S
C472 O495 1.264 . S
O473 Mn468 2.095 . S
O473 C482 1.250 . S
O474 Mn469 2.121 . S
O474 C482 1.258 . S
C475 N476 1.326 . S
C475 C479 1.460 . S
C475 H481 0.929 . S
N476 Mn469 2.257 . S
N476 C475 1.326 . S
N476 C480 1.362 . S
C477 C478 1.258 . S
C477 C480 1.431 . S
C477 C497 1.449 . S
C478 C477 1.258 . S
C478 C479 1.477 . S
C478 H498 0.931 . S
C479 C475 1.460 . S
C479 C478 1.477 . S
C479 H499 0.930 . S
C480 N476 1.362 . S
C480 C477 1.431 . S
C480 C490 1.476 . S
H481 C475 0.929 . S
C482 O473 1.250 . S
C482 O474 1.258 . S
O483 Mn468 2.162 . S
O483 C471 1.281 . S
O484 Mn468 2.297 . S
O484 C471 1.236 . S
N485 Mn469 2.282 . S
N485 C486 1.328 . S
N485 C490 1.318 . S
C486 N485 1.328 . S
C486 C487 1.457 . S
C486 H491 0.929 . S
C487 C486 1.457 . S
C487 C488 1.291 . S
C487 H500 0.931 . S
C488 C487 1.291 . S
C488 C489 1.373 . S
C488 H501 0.929 . S
C489 C488 1.373 . S
C489 C490 1.396 . S
C489 C496 1.403 . S
C490 C480 1.476 . S
C490 N485 1.318 . S
C490 C489 1.396 . S
H491 C486 0.929 . S
O492 Mn468 2.385 . S
O492 C470 1.234 . S
O493 Mn468 2.209 . S
O493 Mn469 2.215 . S
O493 C470 1.283 . S
O494 Mn468 2.094 . S
O494 C472 1.240 . S
O495 Mn469 2.117 . S
O495 C472 1.264 . S
C496 C489 1.403 . S
C496 C497 1.399 . S
C496 H502 0.929 . S
C497 C477 1.449 . S
C497 C496 1.399 . S
C497 H503 0.930 . S
H498 C478 0.931 . S
H499 C479 0.930 . S
H500 C487 0.931 . S
H501 C488 0.929 . S
H502 C496 0.929 . S
H503 C497 0.930 . S
Mn504 O509 2.095 . S
Mn504 O519 2.162 . S
Mn504 O520 2.297 . S
Mn504 O528 2.385 . S
Mn504 O529 2.209 . S
Mn504 O530 2.094 . S
Mn505 O510 2.121 . S
Mn505 N512 2.257 . S
Mn505 N521 2.282 . S
Mn505 O529 2.215 . S
Mn505 O531 2.117 . S
C506 O528 1.234 . S
C506 O529 1.283 . S
C507 O519 1.281 . S
C507 O520 1.236 . S
C508 O530 1.240 . S
C508 O531 1.264 . S
O509 Mn504 2.095 . S
O509 C518 1.250 . S
O510 Mn505 2.121 . S
O510 C518 1.258 . S
C511 N512 1.326 . S
C511 C515 1.460 . S
C511 H517 0.929 . S
N512 Mn505 2.257 . S
N512 C511 1.326 . S
N512 C516 1.362 . S
C513 C514 1.258 . S
C513 C516 1.431 . S
C513 C533 1.449 . S
C514 C513 1.258 . S
C514 C515 1.477 . S
C514 H534 0.931 . S
C515 C511 1.460 . S
C515 C514 1.477 . S
C515 H535 0.930 . S
C516 N512 1.362 . S
C516 C513 1.431 . S
C516 C526 1.476 . S
H517 C511 0.929 . S
C518 O509 1.250 . S
C518 O510 1.258 . S
O519 Mn504 2.162 . S
O519 C507 1.281 . S
O520 Mn504 2.297 . S
O520 C507 1.236 . S
N521 Mn505 2.282 . S
N521 C522 1.328 . S
N521 C526 1.318 . S
C522 N521 1.328 . S
C522 C523 1.457 . S
C522 H527 0.929 . S
C523 C522 1.457 . S
C523 C524 1.291 . S
C523 H536 0.931 . S
C524 C523 1.291 . S
C524 C525 1.373 . S
C524 H537 0.929 . S
C525 C524 1.373 . S
C525 C526 1.396 . S
C525 C532 1.403 . S
C526 C516 1.476 . S
C526 N521 1.318 . S
C526 C525 1.396 . S
H527 C522 0.929 . S
O528 Mn504 2.385 . S
O528 C506 1.234 . S
O529 Mn504 2.209 . S
O529 Mn505 2.215 . S
O529 C506 1.283 . S
O530 Mn504 2.094 . S
O530 C508 1.240 . S
O531 Mn505 2.117 . S
O531 C508 1.264 . S
C532 C525 1.403 . S
C532 C533 1.399 . S
C532 H538 0.929 . S
C533 C513 1.449 . S
C533 C532 1.399 . S
C533 H539 0.930 . S
H534 C514 0.931 . S
H535 C515 0.930 . S
H536 C523 0.931 . S
H537 C524 0.929 . S
H538 C532 0.929 . S
H539 C533 0.930 . S
Mn540 O545 2.095 . S
Mn540 O555 2.162 . S
Mn540 O556 2.297 . S
Mn540 O564 2.385 . S
Mn540 O565 2.209 . S
Mn540 O566 2.094 . S
Mn541 O546 2.121 . S
Mn541 N548 2.257 . S
Mn541 N557 2.282 . S
Mn541 O565 2.215 . S
Mn541 O567 2.117 . S
C542 O564 1.234 . S
C542 O565 1.283 . S
C543 O555 1.281 . S
C543 O556 1.236 . S
C544 O566 1.240 . S
C544 O567 1.264 . S
O545 Mn540 2.095 . S
O545 C554 1.250 . S
O546 Mn541 2.121 . S
O546 C554 1.258 . S
C547 N548 1.326 . S
C547 C551 1.460 . S
C547 H553 0.929 . S
N548 Mn541 2.257 . S
N548 C547 1.326 . S
N548 C552 1.362 . S
C549 C550 1.258 . S
C549 C552 1.431 . S
C549 C569 1.449 . S
C550 C549 1.258 . S
C550 C551 1.477 . S
C550 H570 0.931 . S
C551 C547 1.460 . S
C551 C550 1.477 . S
C551 H571 0.930 . S
C552 N548 1.362 . S
C552 C549 1.431 . S
C552 C562 1.476 . S
H553 C547 0.929 . S
C554 O545 1.250 . S
C554 O546 1.258 . S
O555 Mn540 2.162 . S
O555 C543 1.281 . S
O556 Mn540 2.297 . S
O556 C543 1.236 . S
N557 Mn541 2.282 . S
N557 C558 1.328 . S
N557 C562 1.318 . S
C558 N557 1.328 . S
C558 C559 1.457 . S
C558 H563 0.929 . S
C559 C558 1.457 . S
C559 C560 1.291 . S
C559 H572 0.931 . S
C560 C559 1.291 . S
C560 C561 1.373 . S
C560 H573 0.929 . S
C561 C560 1.373 . S
C561 C562 1.396 . S
C561 C568 1.403 . S
C562 C552 1.476 . S
C562 N557 1.318 . S
C562 C561 1.396 . S
H563 C558 0.929 . S
O564 Mn540 2.385 . S
O564 C542 1.234 . S
O565 Mn540 2.209 . S
O565 Mn541 2.215 . S
O565 C542 1.283 . S
O566 Mn540 2.094 . S
O566 C544 1.240 . S
O567 Mn541 2.117 . S
O567 C544 1.264 . S
C568 C561 1.403 . S
C568 C569 1.399 . S
C568 H574 0.929 . S
C569 C549 1.449 . S
C569 C568 1.399 . S
C569 H575 0.930 . S
H570 C550 0.931 . S
H571 C551 0.930 . S
H572 C559 0.931 . S
H573 C560 0.929 . S
H574 C568 0.929 . S
H575 C569 0.930 . S
Mn576 O581 2.095 . S
Mn576 O591 2.162 . S
Mn576 O592 2.297 . S
Mn576 O600 2.385 . S
Mn576 O601 2.209 . S
Mn576 O602 2.094 . S
Mn577 O582 2.121 . S
Mn577 N584 2.257 . S
Mn577 N593 2.282 . S
Mn577 O601 2.215 . S
Mn577 O603 2.117 . S
C578 O600 1.234 . S
C578 O601 1.283 . S
C579 O591 1.281 . S
C579 O592 1.236 . S
C580 O602 1.240 . S
C580 O603 1.264 . S
O581 Mn576 2.095 . S
O581 C590 1.250 . S
O582 Mn577 2.121 . S
O582 C590 1.258 . S
C583 N584 1.326 . S
C583 C587 1.460 . S
C583 H589 0.929 . S
N584 Mn577 2.257 . S
N584 C583 1.326 . S
N584 C588 1.362 . S
C585 C586 1.258 . S
C585 C588 1.431 . S
C585 C605 1.449 . S
C586 C585 1.258 . S
C586 C587 1.477 . S
C586 H606 0.931 . S
C587 C583 1.460 . S
C587 C586 1.477 . S
C587 H607 0.930 . S
C588 N584 1.362 . S
C588 C585 1.431 . S
C588 C598 1.476 . S
H589 C583 0.929 . S
C590 O581 1.250 . S
C590 O582 1.258 . S
O591 Mn576 2.162 . S
O591 C579 1.281 . S
O592 Mn576 2.297 . S
O592 C579 1.236 . S
N593 Mn577 2.282 . S
N593 C594 1.328 . S
N593 C598 1.318 . S
C594 N593 1.328 . S
C594 C595 1.457 . S
C594 H599 0.929 . S
C595 C594 1.457 . S
C595 C596 1.291 . S
C595 H608 0.931 . S
C596 C595 1.291 . S
C596 C597 1.373 . S
C596 H609 0.929 . S
C597 C596 1.373 . S
C597 C598 1.396 . S
C597 C604 1.403 . S
C598 C588 1.476 . S
C598 N593 1.318 . S
C598 C597 1.396 . S
H599 C594 0.929 . S
O600 Mn576 2.385 . S
O600 C578 1.234 . S
O601 Mn576 2.209 . S
O601 Mn577 2.215 . S
O601 C578 1.283 . S
O602 Mn576 2.094 . S
O602 C580 1.240 . S
O603 Mn577 2.117 . S
O603 C580 1.264 . S
C604 C597 1.403 . S
C604 C605 1.399 . S
C604 H610 0.929 . S
C605 C585 1.449 . S
C605 C604 1.399 . S
C605 H611 0.930 . S
H606 C586 0.931 . S
H607 C587 0.930 . S
H608 C595 0.931 . S
H609 C596 0.929 . S
H610 C604 0.929 . S
H611 C605 0.930 . S
Mn612 O617 2.095 . S
Mn612 O627 2.162 . S
Mn612 O628 2.297 . S
Mn612 O636 2.385 1_545 S
Mn612 O637 2.209 1_545 S
Mn612 O638 2.094 . S
Mn613 O618 2.121 . S
Mn613 N620 2.257 . S
Mn613 N629 2.282 . S
Mn613 O637 2.215 . S
Mn613 O639 2.117 . S
C614 O636 1.234 . S
C614 O637 1.283 . S
C615 O627 1.281 . S
C615 O628 1.236 . S
C616 O638 1.240 . S
C616 O639 1.264 1_545 S
O617 Mn612 2.095 . S
O617 C626 1.250 1_545 S
O618 Mn613 2.121 . S
O618 C626 1.258 . S
C619 N620 1.326 . S
C619 C623 1.460 . S
C619 H625 0.929 . S
N620 Mn613 2.257 . S
N620 C619 1.326 . S
N620 C624 1.362 . S
C621 C622 1.258 . S
C621 C624 1.431 . S
C621 C641 1.449 . S
C622 C621 1.258 . S
C622 C623 1.477 . S
C622 H642 0.931 . S
C623 C619 1.460 . S
C623 C622 1.477 . S
C623 H643 0.930 . S
C624 N620 1.362 . S
C624 C621 1.431 . S
C624 C634 1.476 . S
H625 C619 0.929 . S
C626 O617 1.250 1_565 S
C626 O618 1.258 . S
O627 Mn612 2.162 . S
O627 C615 1.281 . S
O628 Mn612 2.297 . S
O628 C615 1.236 . S
N629 Mn613 2.282 . S
N629 C630 1.328 . S
N629 C634 1.318 . S
C630 N629 1.328 . S
C630 C631 1.457 . S
C630 H635 0.929 . S
C631 C630 1.457 . S
C631 C632 1.291 . S
C631 H644 0.931 . S
C632 C631 1.291 . S
C632 C633 1.373 . S
C632 H645 0.929 . S
C633 C632 1.373 . S
C633 C634 1.396 . S
C633 C640 1.403 . S
C634 C624 1.476 . S
C634 N629 1.318 . S
C634 C633 1.396 . S
H635 C630 0.929 . S
O636 Mn612 2.385 1_565 S
O636 C614 1.234 . S
O637 Mn612 2.209 1_565 S
O637 Mn613 2.215 . S
O637 C614 1.283 . S
O638 Mn612 2.094 . S
O638 C616 1.240 . S
O639 Mn613 2.117 . S
O639 C616 1.264 1_565 S
C640 C633 1.403 . S
C640 C641 1.399 . S
C640 H646 0.929 . S
C641 C621 1.449 . S
C641 C640 1.399 . S
C641 H647 0.930 . S
H642 C622 0.931 . S
H643 C623 0.930 . S
H644 C631 0.931 . S
H645 C632 0.929 . S
H646 C640 0.929 . S
H647 C641 0.930 . S
Mn648 O653 2.095 . S
Mn648 O663 2.162 . S
Mn648 O664 2.297 . S
Mn648 O672 2.385 . S
Mn648 O673 2.209 . S
Mn648 O674 2.094 . S
Mn649 O654 2.121 . S
Mn649 N656 2.257 . S
Mn649 N665 2.282 . S
Mn649 O673 2.215 . S
Mn649 O675 2.117 . S
C650 O672 1.234 . S
C650 O673 1.283 . S
C651 O663 1.281 . S
C651 O664 1.236 . S
C652 O674 1.240 . S
C652 O675 1.264 . S
O653 Mn648 2.095 . S
O653 C662 1.250 . S
O654 Mn649 2.121 . S
O654 C662 1.258 . S
C655 N656 1.326 . S
C655 C659 1.460 . S
C655 H661 0.929 . S
N656 Mn649 2.257 . S
N656 C655 1.326 . S
N656 C660 1.362 . S
C657 C658 1.258 . S
C657 C660 1.431 . S
C657 C677 1.449 . S
C658 C657 1.258 . S
C658 C659 1.477 . S
C658 H678 0.931 . S
C659 C655 1.460 . S
C659 C658 1.477 . S
C659 H679 0.930 . S
C660 N656 1.362 . S
C660 C657 1.431 . S
C660 C670 1.476 . S
H661 C655 0.929 . S
C662 O653 1.250 . S
C662 O654 1.258 . S
O663 Mn648 2.162 . S
O663 C651 1.281 . S
O664 Mn648 2.297 . S
O664 C651 1.236 . S
N665 Mn649 2.282 . S
N665 C666 1.328 . S
N665 C670 1.318 . S
C666 N665 1.328 . S
C666 C667 1.457 . S
C666 H671 0.929 . S
C667 C666 1.457 . S
C667 C668 1.291 . S
C667 H680 0.931 . S
C668 C667 1.291 . S
C668 C669 1.373 . S
C668 H681 0.929 . S
C669 C668 1.373 . S
C669 C670 1.396 . S
C669 C676 1.403 . S
C670 C660 1.476 . S
C670 N665 1.318 . S
C670 C669 1.396 . S
H671 C666 0.929 . S
O672 Mn648 2.385 . S
O672 C650 1.234 . S
O673 Mn648 2.209 . S
O673 Mn649 2.215 . S
O673 C650 1.283 . S
O674 Mn648 2.094 . S
O674 C652 1.240 . S
O675 Mn649 2.117 . S
O675 C652 1.264 . S
C676 C669 1.403 . S
C676 C677 1.399 . S
C676 H682 0.929 . S
C677 C657 1.449 . S
C677 C676 1.399 . S
C677 H683 0.930 . S
H678 C658 0.931 . S
H679 C659 0.930 . S
H680 C667 0.931 . S
H681 C668 0.929 . S
H682 C676 0.929 . S
H683 C677 0.930 . S
Mn684 O689 2.095 . S
Mn684 O699 2.162 . S
Mn684 O700 2.297 . S
Mn684 O708 2.385 1_565 S
Mn684 O709 2.209 1_565 S
Mn684 O710 2.094 . S
Mn685 O690 2.121 . S
Mn685 N692 2.257 . S
Mn685 N701 2.282 . S
Mn685 O709 2.215 . S
Mn685 O711 2.117 . S
C686 O708 1.234 . S
C686 O709 1.283 . S
C687 O699 1.281 . S
C687 O700 1.236 . S
C688 O710 1.240 . S
C688 O711 1.264 1_565 S
O689 Mn684 2.095 . S
O689 C698 1.250 1_565 S
O690 Mn685 2.121 . S
O690 C698 1.258 . S
C691 N692 1.326 . S
C691 C695 1.460 . S
C691 H697 0.929 . S
N692 Mn685 2.257 . S
N692 C691 1.326 . S
N692 C696 1.362 . S
C693 C694 1.258 . S
C693 C696 1.431 . S
C693 C713 1.449 . S
C694 C693 1.258 . S
C694 C695 1.477 . S
C694 H714 0.931 . S
C695 C691 1.460 . S
C695 C694 1.477 . S
C695 H715 0.930 . S
C696 N692 1.362 . S
C696 C693 1.431 . S
C696 C706 1.476 . S
H697 C691 0.929 . S
C698 O689 1.250 1_545 S
C698 O690 1.258 . S
O699 Mn684 2.162 . S
O699 C687 1.281 . S
O700 Mn684 2.297 . S
O700 C687 1.236 . S
N701 Mn685 2.282 . S
N701 C702 1.328 . S
N701 C706 1.318 . S
C702 N701 1.328 . S
C702 C703 1.457 . S
C702 H707 0.929 . S
C703 C702 1.457 . S
C703 C704 1.291 . S
C703 H716 0.931 . S
C704 C703 1.291 . S
C704 C705 1.373 . S
C704 H717 0.929 . S
C705 C704 1.373 . S
C705 C706 1.396 . S
C705 C712 1.403 . S
C706 C696 1.476 . S
C706 N701 1.318 . S
C706 C705 1.396 . S
H707 C702 0.929 . S
O708 Mn684 2.385 1_545 S
O708 C686 1.234 . S
O709 Mn684 2.209 1_545 S
O709 Mn685 2.215 . S
O709 C686 1.283 . S
O710 Mn684 2.094 . S
O710 C688 1.240 . S
O711 Mn685 2.117 . S
O711 C688 1.264 1_545 S
C712 C705 1.403 . S
C712 C713 1.399 . S
C712 H718 0.929 . S
C713 C693 1.449 . S
C713 C712 1.399 . S
C713 H719 0.930 . S
H714 C694 0.931 . S
H715 C695 0.930 . S
H716 C703 0.931 . S
H717 C704 0.929 . S
H718 C712 0.929 . S
H719 C713 0.930 . S
Mn720 O725 2.095 . S
Mn720 O735 2.162 . S
Mn720 O736 2.297 . S
Mn720 O744 2.385 . S
Mn720 O745 2.209 . S
Mn720 O746 2.094 . S
Mn721 O726 2.121 . S
Mn721 N728 2.257 . S
Mn721 N737 2.282 . S
Mn721 O745 2.215 . S
Mn721 O747 2.117 . S
C722 O744 1.234 . S
C722 O745 1.283 . S
C723 O735 1.281 . S
C723 O736 1.236 . S
C724 O746 1.240 . S
C724 O747 1.264 . S
O725 Mn720 2.095 . S
O725 C734 1.250 . S
O726 Mn721 2.121 . S
O726 C734 1.258 . S
C727 N728 1.326 . S
C727 C731 1.460 . S
C727 H733 0.929 . S
N728 Mn721 2.257 . S
N728 C727 1.326 . S
N728 C732 1.362 . S
C729 C730 1.258 . S
C729 C732 1.431 . S
C729 C749 1.449 . S
C730 C729 1.258 . S
C730 C731 1.477 . S
C730 H750 0.931 . S
C731 C727 1.460 . S
C731 C730 1.477 . S
C731 H751 0.930 . S
C732 N728 1.362 . S
C732 C729 1.431 . S
C732 C742 1.476 . S
H733 C727 0.929 . S
C734 O725 1.250 . S
C734 O726 1.258 . S
O735 Mn720 2.162 . S
O735 C723 1.281 . S
O736 Mn720 2.297 . S
O736 C723 1.236 . S
N737 Mn721 2.282 . S
N737 C738 1.328 . S
N737 C742 1.318 . S
C738 N737 1.328 . S
C738 C739 1.457 . S
C738 H743 0.929 . S
C739 C738 1.457 . S
C739 C740 1.291 . S
C739 H752 0.931 . S
C740 C739 1.291 . S
C740 C741 1.373 . S
C740 H753 0.929 . S
C741 C740 1.373 . S
C741 C742 1.396 . S
C741 C748 1.403 . S
C742 C732 1.476 . S
C742 N737 1.318 . S
C742 C741 1.396 . S
H743 C738 0.929 . S
O744 Mn720 2.385 . S
O744 C722 1.234 . S
O745 Mn720 2.209 . S
O745 Mn721 2.215 . S
O745 C722 1.283 . S
O746 Mn720 2.094 . S
O746 C724 1.240 . S
O747 Mn721 2.117 . S
O747 C724 1.264 . S
C748 C741 1.403 . S
C748 C749 1.399 . S
C748 H754 0.929 . S
C749 C729 1.449 . S
C749 C748 1.399 . S
C749 H755 0.930 . S
H750 C730 0.931 . S
H751 C731 0.930 . S
H752 C739 0.931 . S
H753 C740 0.929 . S
H754 C748 0.929 . S
H755 C749 0.930 . S
Mn756 O761 2.095 . S
Mn756 O771 2.162 . S
Mn756 O772 2.297 . S
Mn756 O780 2.385 1_554 S
Mn756 O781 2.209 1_554 S
Mn756 O782 2.094 . S
Mn757 O762 2.121 . S
Mn757 N764 2.257 . S
Mn757 N773 2.282 . S
Mn757 O781 2.215 . S
Mn757 O783 2.117 . S
C758 O780 1.234 . S
C758 O781 1.283 . S
C759 O771 1.281 . S
C759 O772 1.236 . S
C760 O782 1.240 . S
C760 O783 1.264 1_554 S
O761 Mn756 2.095 . S
O761 C770 1.250 1_554 S
O762 Mn757 2.121 . S
O762 C770 1.258 . S
C763 N764 1.326 . S
C763 C767 1.460 . S
C763 H769 0.929 . S
N764 Mn757 2.257 . S
N764 C763 1.326 . S
N764 C768 1.362 . S
C765 C766 1.258 . S
C765 C768 1.431 . S
C765 C785 1.449 . S
C766 C765 1.258 . S
C766 C767 1.477 . S
C766 H786 0.931 . S
C767 C763 1.460 . S
C767 C766 1.477 . S
C767 H787 0.930 . S
C768 N764 1.362 . S
C768 C765 1.431 . S
C768 C778 1.476 . S
H769 C763 0.929 . S
C770 O761 1.250 1_556 S
C770 O762 1.258 . S
O771 Mn756 2.162 . S
O771 C759 1.281 . S
O772 Mn756 2.297 . S
O772 C759 1.236 . S
N773 Mn757 2.282 . S
N773 C774 1.328 . S
N773 C778 1.318 . S
C774 N773 1.328 . S
C774 C775 1.457 . S
C774 H779 0.929 . S
C775 C774 1.457 . S
C775 C776 1.291 . S
C775 H788 0.931 . S
C776 C775 1.291 . S
C776 C777 1.373 . S
C776 H789 0.929 . S
C777 C776 1.373 . S
C777 C778 1.396 . S
C777 C784 1.403 . S
C778 C768 1.476 . S
C778 N773 1.318 . S
C778 C777 1.396 . S
H779 C774 0.929 . S
O780 Mn756 2.385 1_556 S
O780 C758 1.234 . S
O781 Mn756 2.209 1_556 S
O781 Mn757 2.215 . S
O781 C758 1.283 . S
O782 Mn756 2.094 . S
O782 C760 1.240 . S
O783 Mn757 2.117 . S
O783 C760 1.264 1_556 S
C784 C777 1.403 . S
C784 C785 1.399 . S
C784 H790 0.929 . S
C785 C765 1.449 . S
C785 C784 1.399 . S
C785 H791 0.930 . S
H786 C766 0.931 . S
H787 C767 0.930 . S
H788 C775 0.931 . S
H789 C776 0.929 . S
H790 C784 0.929 . S
H791 C785 0.930 . S
Mn792 O797 2.095 . S
Mn792 O807 2.162 . S
Mn792 O808 2.297 . S
Mn792 O816 2.385 1_554 S
Mn792 O817 2.209 1_554 S
Mn792 O818 2.094 . S
Mn793 O798 2.121 . S
Mn793 N800 2.257 . S
Mn793 N809 2.282 . S
Mn793 O817 2.215 . S
Mn793 O819 2.117 . S
C794 O816 1.234 . S
C794 O817 1.283 . S
C795 O807 1.281 . S
C795 O808 1.236 . S
C796 O818 1.240 . S
C796 O819 1.264 1_554 S
O797 Mn792 2.095 . S
O797 C806 1.250 1_554 S
O798 Mn793 2.121 . S
O798 C806 1.258 . S
C799 N800 1.326 . S
C799 C803 1.460 . S
C799 H805 0.929 . S
N800 Mn793 2.257 . S
N800 C799 1.326 . S
N800 C804 1.362 . S
C801 C802 1.258 . S
C801 C804 1.431 . S
C801 C821 1.449 . S
C802 C801 1.258 . S
C802 C803 1.477 . S
C802 H822 0.931 . S
C803 C799 1.460 . S
C803 C802 1.477 . S
C803 H823 0.930 . S
C804 N800 1.362 . S
C804 C801 1.431 . S
C804 C814 1.476 . S
H805 C799 0.929 . S
C806 O797 1.250 1_556 S
C806 O798 1.258 . S
O807 Mn792 2.162 . S
O807 C795 1.281 . S
O808 Mn792 2.297 . S
O808 C795 1.236 . S
N809 Mn793 2.282 . S
N809 C810 1.328 . S
N809 C814 1.318 . S
C810 N809 1.328 . S
C810 C811 1.457 . S
C810 H815 0.929 . S
C811 C810 1.457 . S
C811 C812 1.291 . S
C811 H824 0.931 . S
C812 C811 1.291 . S
C812 C813 1.373 . S
C812 H825 0.929 . S
C813 C812 1.373 . S
C813 C814 1.396 . S
C813 C820 1.403 . S
C814 C804 1.476 . S
C814 N809 1.318 . S
C814 C813 1.396 . S
H815 C810 0.929 . S
O816 Mn792 2.385 1_556 S
O816 C794 1.234 . S
O817 Mn792 2.209 1_556 S
O817 Mn793 2.215 . S
O817 C794 1.283 . S
O818 Mn792 2.094 . S
O818 C796 1.240 . S
O819 Mn793 2.117 . S
O819 C796 1.264 1_556 S
C820 C813 1.403 . S
C820 C821 1.399 . S
C820 H826 0.929 . S
C821 C801 1.449 . S
C821 C820 1.399 . S
C821 H827 0.930 . S
H822 C802 0.931 . S
H823 C803 0.930 . S
H824 C811 0.931 . S
H825 C812 0.929 . S
H826 C820 0.929 . S
H827 C821 0.930 . S
Mn828 O833 2.095 . S
Mn828 O843 2.162 . S
Mn828 O844 2.297 . S
Mn828 O852 2.385 1_556 S
Mn828 O853 2.209 1_556 S
Mn828 O854 2.094 . S
Mn829 O834 2.121 . S
Mn829 N836 2.257 . S
Mn829 N845 2.282 . S
Mn829 O853 2.215 . S
Mn829 O855 2.117 . S
C830 O852 1.234 . S
C830 O853 1.283 . S
C831 O843 1.281 . S
C831 O844 1.236 . S
C832 O854 1.240 . S
C832 O855 1.264 1_556 S
O833 Mn828 2.095 . S
O833 C842 1.250 1_556 S
O834 Mn829 2.121 . S
O834 C842 1.258 . S
C835 N836 1.326 . S
C835 C839 1.460 . S
C835 H841 0.929 . S
N836 Mn829 2.257 . S
N836 C835 1.326 . S
N836 C840 1.362 . S
C837 C838 1.258 . S
C837 C840 1.431 . S
C837 C857 1.449 . S
C838 C837 1.258 . S
C838 C839 1.477 . S
C838 H858 0.931 . S
C839 C835 1.460 . S
C839 C838 1.477 . S
C839 H859 0.930 . S
C840 N836 1.362 . S
C840 C837 1.431 . S
C840 C850 1.476 . S
H841 C835 0.929 . S
C842 O833 1.250 1_554 S
C842 O834 1.258 . S
O843 Mn828 2.162 . S
O843 C831 1.281 . S
O844 Mn828 2.297 . S
O844 C831 1.236 . S
N845 Mn829 2.282 . S
N845 C846 1.328 . S
N845 C850 1.318 . S
C846 N845 1.328 . S
C846 C847 1.457 . S
C846 H851 0.929 . S
C847 C846 1.457 . S
C847 C848 1.291 . S
C847 H860 0.931 . S
C848 C847 1.291 . S
C848 C849 1.373 . S
C848 H861 0.929 . S
C849 C848 1.373 . S
C849 C850 1.396 . S
C849 C856 1.403 . S
C850 C840 1.476 . S
C850 N845 1.318 . S
C850 C849 1.396 . S
H851 C846 0.929 . S
O852 Mn828 2.385 1_554 S
O852 C830 1.234 . S
O853 Mn828 2.209 1_554 S
O853 Mn829 2.215 . S
O853 C830 1.283 . S
O854 Mn828 2.094 . S
O854 C832 1.240 . S
O855 Mn829 2.117 . S
O855 C832 1.264 1_554 S
C856 C849 1.403 . S
C856 C857 1.399 . S
C856 H862 0.929 . S
C857 C837 1.449 . S
C857 C856 1.399 . S
C857 H863 0.930 . S
H858 C838 0.931 . S
H859 C839 0.930 . S
H860 C847 0.931 . S
H861 C848 0.929 . S
H862 C856 0.929 . S
H863 C857 0.930 . S
H864 C876 0.930 . S
H865 C878 0.930 . S
H866 C879 0.930 . S
H867 C883 0.959 . S
H868 C883 0.959 . S
H869 C883 0.961 . S
H870 C884 0.960 1_565 S
H871 C884 0.961 1_565 S
H872 C884 0.959 . S
H873 C887 0.929 . S
H874 C888 0.931 . S
H875 C890 0.930 . S
C876 H864 0.930 . S
C876 C877 1.399 . S
C876 C881 1.399 . S
C877 C876 1.399 . S
C877 C878 1.376 . S
C878 H865 0.930 . S
C878 C877 1.376 . S
C878 C879 1.388 . S
C879 H866 0.930 . S
C879 C878 1.388 . S
C879 C880 1.390 . S
C880 C879 1.390 . S
C880 C881 1.394 . S
C880 C886 1.465 . S
C881 C876 1.399 . S
C881 C880 1.394 . S
C881 C882 1.516 . S
C882 C881 1.516 . S
C882 C883 1.502 . S
C882 C884 1.561 . S
C882 C885 1.526 . S
C883 H867 0.959 . S
C883 H868 0.959 . S
C883 H869 0.961 . S
C883 C882 1.502 . S
C884 H870 0.960 1_545 S
C884 H871 0.961 1_545 S
C884 H872 0.959 . S
C884 C882 1.561 . S
C885 C882 1.526 . S
C885 C886 1.396 . S
C885 C890 1.390 . S
C886 C880 1.465 . S
C886 C885 1.396 . S
C886 C887 1.399 . S
C887 H873 0.929 . S
C887 C886 1.399 . S
C887 C888 1.385 . S
C888 H874 0.931 . S
C888 C887 1.385 . S
C888 C889 1.389 . S
C889 C888 1.389 . S
C889 C890 1.387 . S
C890 H875 0.930 . S
C890 C885 1.390 . S
C890 C889 1.387 . S
H891 C903 0.930 . S
H892 C905 0.930 . S
H893 C906 0.930 . S
H894 C910 0.959 . S
H895 C910 0.959 . S
H896 C910 0.961 . S
H897 C911 0.960 . S
H898 C911 0.961 . S
H899 C911 0.959 . S
H900 C914 0.929 . S
H901 C915 0.931 . S
H902 C917 0.930 . S
C903 H891 0.930 . S
C903 C904 1.399 . S
C903 C908 1.399 . S
C904 C903 1.399 . S
C904 C905 1.376 . S
C905 H892 0.930 . S
C905 C904 1.376 . S
C905 C906 1.388 . S
C906 H893 0.930 . S
C906 C905 1.388 . S
C906 C907 1.390 . S
C907 C906 1.390 . S
C907 C908 1.394 . S
C907 C913 1.465 . S
C908 C903 1.399 . S
C908 C907 1.394 . S
C908 C909 1.516 . S
C909 C908 1.516 . S
C909 C910 1.502 . S
C909 C911 1.561 . S
C909 C912 1.526 . S
C910 H894 0.959 . S
C910 H895 0.959 . S
C910 H896 0.961 . S
C910 C909 1.502 . S
C911 H897 0.960 . S
C911 H898 0.961 . S
C911 H899 0.959 . S
C911 C909 1.561 . S
C912 C909 1.526 . S
C912 C913 1.396 . S
C912 C917 1.390 . S
C913 C907 1.465 . S
C913 C912 1.396 . S
C913 C914 1.399 . S
C914 H900 0.929 . S
C914 C913 1.399 . S
C914 C915 1.385 . S
C915 H901 0.931 . S
C915 C914 1.385 . S
C915 C916 1.389 . S
C916 C915 1.389 . S
C916 C917 1.387 . S
C917 H902 0.930 . S
C917 C912 1.390 . S
C917 C916 1.387 . S
H918 C930 0.930 . S
H919 C932 0.930 . S
H920 C933 0.930 . S
H921 C937 0.959 . S
H922 C937 0.959 1_545 S
H923 C937 0.961 . S
H924 C938 0.960 . S
H925 C938 0.961 1_545 S
H926 C938 0.959 . S
H927 C941 0.929 1_554 S
H928 C942 0.931 . S
H929 C944 0.930 . S
C930 H918 0.930 . S
C930 C931 1.399 . S
C930 C935 1.399 . S
C931 C930 1.399 . S
C931 C932 1.376 . S
C932 H919 0.930 . S
C932 C931 1.376 . S
C932 C933 1.388 . S
C933 H920 0.930 . S
C933 C932 1.388 . S
C933 C934 1.390 . S
C934 C933 1.390 . S
C934 C935 1.394 . S
C934 C940 1.465 . S
C935 C930 1.399 . S
C935 C934 1.394 . S
C935 C936 1.516 . S
C936 C935 1.516 . S
C936 C937 1.502 . S
C936 C938 1.561 . S
C936 C939 1.526 . S
C937 H921 0.959 . S
C937 H922 0.959 1_565 S
C937 H923 0.961 . S
C937 C936 1.502 . S
C938 H924 0.960 . S
C938 H925 0.961 1_565 S
C938 H926 0.959 . S
C938 C936 1.561 . S
C939 C936 1.526 . S
C939 C940 1.396 . S
C939 C944 1.390 1_554 S
C940 C934 1.465 . S
C940 C939 1.396 . S
C940 C941 1.399 1_554 S
C941 H927 0.929 1_556 S
C941 C940 1.399 1_556 S
C941 C942 1.385 . S
C942 H928 0.931 . S
C942 C941 1.385 . S
C942 C943 1.389 . S
C943 C942 1.389 . S
C943 C944 1.387 . S
C944 H929 0.930 . S
C944 C939 1.390 1_556 S
C944 C943 1.387 . S
H945 C957 0.930 . S
H946 C959 0.930 . S
H947 C960 0.930 . S
H948 C964 0.959 . S
H949 C964 0.959 . S
H950 C964 0.961 . S
H951 C965 0.960 . S
H952 C965 0.961 . S
H953 C965 0.959 . S
H954 C968 0.929 . S
H955 C969 0.931 . S
H956 C971 0.930 . S
C957 H945 0.930 . S
C957 C958 1.399 . S
C957 C962 1.399 . S
C958 C957 1.399 . S
C958 C959 1.376 . S
C959 H946 0.930 . S
C959 C958 1.376 . S
C959 C960 1.388 . S
C960 H947 0.930 . S
C960 C959 1.388 . S
C960 C961 1.390 . S
C961 C960 1.390 . S
C961 C962 1.394 . S
C961 C967 1.465 . S
C962 C957 1.399 . S
C962 C961 1.394 . S
C962 C963 1.516 . S
C963 C962 1.516 . S
C963 C964 1.502 . S
C963 C965 1.561 . S
C963 C966 1.526 . S
C964 H948 0.959 . S
C964 H949 0.959 . S
C964 H950 0.961 . S
C964 C963 1.502 . S
C965 H951 0.960 . S
C965 H952 0.961 . S
C965 H953 0.959 . S
C965 C963 1.561 . S
C966 C963 1.526 . S
C966 C967 1.396 . S
C966 C971 1.390 1_554 S
C967 C961 1.465 . S
C967 C966 1.396 . S
C967 C968 1.399 1_554 S
C968 H954 0.929 . S
C968 C967 1.399 1_556 S
C968 C969 1.385 . S
C969 H955 0.931 . S
C969 C968 1.385 . S
C969 C970 1.389 . S
C970 C969 1.389 . S
C970 C971 1.387 . S
C971 H956 0.930 . S
C971 C966 1.390 1_556 S
C971 C970 1.387 . S
H972 C984 0.930 . S
H973 C986 0.930 . S
H974 C987 0.930 . S
H975 C991 0.959 . S
H976 C991 0.959 . S
H977 C991 0.961 . S
H978 C992 0.960 . S
H979 C992 0.944 1_556 S
H980 C992 0.959 . S
H981 C995 0.929 . S
H982 C996 0.931 . S
H983 C998 0.930 . S
C984 H972 0.930 . S
C984 C985 1.399 . S
C984 C989 1.399 . S
C985 C984 1.399 . S
C985 C986 1.376 . S
C986 H973 0.930 . S
C986 C985 1.376 . S
C986 C987 1.388 . S
C987 H974 0.930 . S
C987 C986 1.388 . S
C987 C988 1.390 . S
C988 C987 1.390 . S
C988 C989 1.394 . S
C988 C994 1.465 . S
C989 C984 1.399 . S
C989 C988 1.394 . S
C989 C990 1.516 . S
C990 C989 1.516 . S
C990 C991 1.502 . S
C990 C992 1.561 . S
C990 C993 1.526 . S
C991 H975 0.959 . S
C991 H976 0.959 . S
C991 H977 0.961 . S
C991 C990 1.502 . S
C992 H978 0.960 . S
C992 H979 0.944 1_554 S
C992 H980 0.959 . S
C992 C990 1.561 . S
C993 C990 1.526 . S
C993 C994 1.396 . S
C993 C998 1.390 . S
C994 C988 1.465 . S
C994 C993 1.396 . S
C994 C995 1.399 . S
C995 H981 0.929 . S
C995 C994 1.399 . S
C995 C996 1.385 . S
C996 H982 0.931 . S
C996 C995 1.385 . S
C996 C997 1.389 . S
C997 C996 1.389 . S
C997 C998 1.387 . S
C998 H983 0.930 . S
C998 C993 1.390 . S
C998 C997 1.387 . S
H999 C1011 0.930 . S
H1000 C1013 0.930 . S
H1001 C1014 0.930 . S
H1002 C1018 0.959 . S
H1003 C1018 0.959 . S
H1004 C1018 0.961 . S
H1005 C1019 0.960 . S
H1006 C1019 0.961 . S
H1007 C1019 0.959 . S
H1008 C1022 0.929 . S
H1009 C1023 0.931 . S
H1010 C1025 0.930 . S
C1011 H999 0.930 . S
C1011 C1012 1.399 . S
C1011 C1016 1.399 . S
C1012 C1011 1.399 . S
C1012 C1013 1.376 . S
C1013 H1000 0.930 . S
C1013 C1012 1.376 . S
C1013 C1014 1.388 . S
C1014 H1001 0.930 . S
C1014 C1013 1.388 . S
C1014 C1015 1.390 . S
C1015 C1014 1.390 . S
C1015 C1016 1.394 . S
C1015 C1021 1.465 . S
C1016 C1011 1.399 . S
C1016 C1015 1.394 . S
C1016 C1017 1.516 . S
C1017 C1016 1.516 . S
C1017 C1018 1.502 . S
C1017 C1019 1.561 . S
C1017 C1020 1.526 . S
C1018 H1002 0.959 . S
C1018 H1003 0.959 . S
C1018 H1004 0.961 . S
C1018 C1017 1.502 . S
C1019 H1005 0.960 . S
C1019 H1006 0.961 . S
C1019 H1007 0.959 . S
C1019 C1017 1.561 . S
C1020 C1017 1.526 . S
C1020 C1021 1.396 . S
C1020 C1025 1.390 . S
C1021 C1015 1.465 . S
C1021 C1020 1.396 . S
C1021 C1022 1.399 . S
C1022 H1008 0.929 . S
C1022 C1021 1.399 . S
C1022 C1023 1.385 . S
C1023 H1009 0.931 . S
C1023 C1022 1.385 . S
C1023 C1024 1.389 . S
C1024 C1023 1.389 . S
C1024 C1025 1.387 . S
C1025 H1010 0.930 . S
C1025 C1020 1.390 . S
C1025 C1024 1.387 . S
H1026 C1038 0.930 . S
H1027 C1040 0.930 . S
H1028 C1041 0.930 . S
H1029 C1045 0.959 . S
H1030 C1045 0.959 . S
H1031 C1045 0.961 . S
H1032 C1046 0.960 . S
H1033 C1046 0.961 . S
H1034 C1046 0.959 . S
H1035 C1049 0.929 . S
H1036 C1050 0.931 . S
H1037 C1052 0.930 . S
C1038 H1026 0.930 . S
C1038 C1039 1.399 . S
C1038 C1043 1.399 . S
C1039 C1038 1.399 . S
C1039 C1040 1.376 . S
C1040 H1027 0.930 . S
C1040 C1039 1.376 . S
C1040 C1041 1.388 . S
C1041 H1028 0.930 . S
C1041 C1040 1.388 . S
C1041 C1042 1.390 . S
C1042 C1041 1.390 . S
C1042 C1043 1.394 . S
C1042 C1048 1.465 . S
C1043 C1038 1.399 . S
C1043 C1042 1.394 . S
C1043 C1044 1.516 . S
C1044 C1043 1.516 . S
C1044 C1045 1.502 . S
C1044 C1046 1.561 . S
C1044 C1047 1.526 . S
C1045 H1029 0.959 . S
C1045 H1030 0.959 . S
C1045 H1031 0.961 . S
C1045 C1044 1.502 . S
C1046 H1032 0.960 . S
C1046 H1033 0.961 . S
C1046 H1034 0.959 . S
C1046 C1044 1.561 . S
C1047 C1044 1.526 . S
C1047 C1048 1.396 . S
C1047 C1052 1.390 . S
C1048 C1042 1.465 . S
C1048 C1047 1.396 . S
C1048 C1049 1.399 . S
C1049 H1035 0.929 . S
C1049 C1048 1.399 . S
C1049 C1050 1.385 . S
C1050 H1036 0.931 . S
C1050 C1049 1.385 . S
C1050 C1051 1.389 . S
C1051 C1050 1.389 . S
C1051 C1052 1.387 . S
C1052 H1037 0.930 . S
C1052 C1047 1.390 . S
C1052 C1051 1.387 . S
H1053 C1065 0.930 . S
H1054 C1067 0.930 . S
H1055 C1068 0.930 . S
H1056 C1072 0.959 . S
H1057 C1072 0.959 . S
H1058 C1072 0.961 . S
H1059 C1073 0.960 . S
H1060 C1073 0.961 . S
H1061 C1073 0.959 . S
H1062 C1076 0.929 . S
H1063 C1077 0.931 . S
H1064 C1079 0.930 . S
C1065 H1053 0.930 . S
C1065 C1066 1.399 . S
C1065 C1070 1.399 . S
C1066 C1065 1.399 . S
C1066 C1067 1.376 . S
C1067 H1054 0.930 . S
C1067 C1066 1.376 . S
C1067 C1068 1.388 . S
C1068 H1055 0.930 . S
C1068 C1067 1.388 . S
C1068 C1069 1.390 . S
C1069 C1068 1.390 . S
C1069 C1070 1.394 . S
C1069 C1075 1.465 . S
C1070 C1065 1.399 . S
C1070 C1069 1.394 . S
C1070 C1071 1.516 . S
C1071 C1070 1.516 . S
C1071 C1072 1.502 . S
C1071 C1073 1.561 . S
C1071 C1074 1.526 . S
C1072 H1056 0.959 . S
C1072 H1057 0.959 . S
C1072 H1058 0.961 . S
C1072 C1071 1.502 . S
C1073 H1059 0.960 . S
C1073 H1060 0.961 . S
C1073 H1061 0.959 . S
C1073 C1071 1.561 . S
C1074 C1071 1.526 . S
C1074 C1075 1.396 . S
C1074 C1079 1.390 . S
C1075 C1069 1.465 . S
C1075 C1074 1.396 . S
C1075 C1076 1.399 . S
C1076 H1062 0.929 . S
C1076 C1075 1.399 . S
C1076 C1077 1.385 . S
C1077 H1063 0.931 . S
C1077 C1076 1.385 . S
C1077 C1078 1.389 . S
C1078 C1077 1.389 . S
C1078 C1079 1.387 . S
C1079 H1064 0.930 . S
C1079 C1074 1.390 . S
C1079 C1078 1.387 . S
H1080 C1092 0.930 . S
H1081 C1094 0.930 . S
H1082 C1095 0.930 . S
H1083 C1099 0.959 . S
H1084 C1099 0.959 . S
H1085 C1099 0.961 . S
H1086 C1100 0.960 . S
H1087 C1100 0.961 1_655 S
H1088 C1100 0.959 . S
H1089 C1103 0.929 . S
H1090 C1104 0.931 . S
H1091 C1106 0.930 . S
C1092 H1080 0.930 . S
C1092 C1093 1.399 . S
C1092 C1097 1.399 . S
C1093 C1092 1.399 . S
C1093 C1094 1.376 . S
C1094 H1081 0.930 . S
C1094 C1093 1.376 . S
C1094 C1095 1.388 . S
C1095 H1082 0.930 . S
C1095 C1094 1.388 . S
C1095 C1096 1.390 . S
C1096 C1095 1.390 . S
C1096 C1097 1.394 . S
C1096 C1102 1.465 . S
C1097 C1092 1.399 . S
C1097 C1096 1.394 . S
C1097 C1098 1.516 . S
C1098 C1097 1.516 . S
C1098 C1099 1.502 . S
C1098 C1100 1.561 . S
C1098 C1101 1.526 . S
C1099 H1083 0.959 . S
C1099 H1084 0.959 . S
C1099 H1085 0.961 . S
C1099 C1098 1.502 . S
C1100 H1086 0.960 . S
C1100 H1087 0.961 1_455 S
C1100 H1088 0.959 . S
C1100 C1098 1.561 . S
C1101 C1098 1.526 . S
C1101 C1102 1.396 . S
C1101 C1106 1.390 . S
C1102 C1096 1.465 . S
C1102 C1101 1.396 . S
C1102 C1103 1.399 . S
C1103 H1089 0.929 . S
C1103 C1102 1.399 . S
C1103 C1104 1.385 . S
C1104 H1090 0.931 . S
C1104 C1103 1.385 . S
C1104 C1105 1.389 . S
C1105 C1104 1.389 . S
C1105 C1106 1.387 . S
C1106 H1091 0.930 . S
C1106 C1101 1.390 . S
C1106 C1105 1.387 . S
H1107 C1119 0.930 . S
H1108 C1121 0.930 . S
H1109 C1122 0.930 . S
H1110 C1126 0.959 . S
H1111 C1126 0.959 . S
H1112 C1126 0.961 . S
H1113 C1127 0.960 . S
H1114 C1127 0.961 . S
H1115 C1127 0.959 . S
H1116 C1130 0.929 . S
H1117 C1131 0.931 . S
H1118 C1133 0.930 . S
C1119 H1107 0.930 . S
C1119 C1120 1.399 . S
C1119 C1124 1.399 . S
C1120 C1119 1.399 . S
C1120 C1121 1.376 . S
C1121 H1108 0.930 . S
C1121 C1120 1.376 . S
C1121 C1122 1.388 . S
C1122 H1109 0.930 . S
C1122 C1121 1.388 . S
C1122 C1123 1.390 . S
C1123 C1122 1.390 . S
C1123 C1124 1.394 . S
C1123 C1129 1.465 . S
C1124 C1119 1.399 . S
C1124 C1123 1.394 . S
C1124 C1125 1.516 . S
C1125 C1124 1.516 . S
C1125 C1126 1.502 . S
C1125 C1127 1.561 . S
C1125 C1128 1.526 . S
C1126 H1110 0.959 . S
C1126 H1111 0.959 . S
C1126 H1112 0.961 . S
C1126 C1125 1.502 . S
C1127 H1113 0.960 . S
C1127 H1114 0.961 . S
C1127 H1115 0.959 . S
C1127 C1125 1.561 . S
C1128 C1125 1.526 . S
C1128 C1129 1.396 . S
C1128 C1133 1.390 . S
C1129 C1123 1.465 . S
C1129 C1128 1.396 . S
C1129 C1130 1.399 . S
C1130 H1116 0.929 . S
C1130 C1129 1.399 . S
C1130 C1131 1.385 . S
C1131 H1117 0.931 . S
C1131 C1130 1.385 . S
C1131 C1132 1.389 . S
C1132 C1131 1.389 . S
C1132 C1133 1.387 . S
C1133 H1118 0.930 . S
C1133 C1128 1.390 . S
C1133 C1132 1.387 . S
H1134 C1146 0.930 . S
H1135 C1148 0.930 . S
H1136 C1149 0.930 . S
H1137 C1153 0.959 . S
H1138 C1153 0.959 . S
H1139 C1153 0.961 . S
H1140 C1154 0.960 . S
H1141 C1154 0.961 . S
H1142 C1154 0.959 . S
H1143 C1157 0.929 . S
H1144 C1158 0.931 . S
H1145 C1160 0.930 1_565 S
C1146 H1134 0.930 . S
C1146 C1147 1.399 . S
C1146 C1151 1.399 . S
C1147 C1146 1.399 . S
C1147 C1148 1.376 . S
C1148 H1135 0.930 . S
C1148 C1147 1.376 . S
C1148 C1149 1.388 . S
C1149 H1136 0.930 . S
C1149 C1148 1.388 . S
C1149 C1150 1.390 . S
C1150 C1149 1.390 . S
C1150 C1151 1.394 . S
C1150 C1156 1.465 . S
C1151 C1146 1.399 . S
C1151 C1150 1.394 . S
C1151 C1152 1.516 . S
C1152 C1151 1.516 . S
C1152 C1153 1.502 . S
C1152 C1154 1.561 . S
C1152 C1155 1.526 . S
C1153 H1137 0.959 . S
C1153 H1138 0.959 . S
C1153 H1139 0.961 . S
C1153 C1152 1.502 . S
C1154 H1140 0.960 . S
C1154 H1141 0.961 . S
C1154 H1142 0.959 . S
C1154 C1152 1.561 . S
C1155 C1152 1.526 . S
C1155 C1156 1.396 . S
C1155 C1160 1.390 1_565 S
C1156 C1150 1.465 . S
C1156 C1155 1.396 . S
C1156 C1157 1.399 1_565 S
C1157 H1143 0.929 . S
C1157 C1156 1.399 1_545 S
C1157 C1158 1.385 . S
C1158 H1144 0.931 . S
C1158 C1157 1.385 . S
C1158 C1159 1.389 . S
C1159 C1158 1.389 . S
C1159 C1160 1.387 . S
C1160 H1145 0.930 1_545 S
C1160 C1155 1.390 1_545 S
C1160 C1159 1.387 . S
H1161 C1173 0.930 . S
H1162 C1175 0.930 . S
H1163 C1176 0.930 . S
H1164 C1180 0.959 . S
H1165 C1180 0.959 . S
H1166 C1180 0.961 . S
H1167 C1181 0.960 . S
H1168 C1181 0.961 . S
H1169 C1181 0.959 . S
H1170 C1184 0.929 . S
H1171 C1185 0.931 . S
H1172 C1187 0.930 . S
C1173 H1161 0.930 . S
C1173 C1174 1.399 . S
C1173 C1178 1.399 . S
C1174 C1173 1.399 . S
C1174 C1175 1.376 . S
C1175 H1162 0.930 . S
C1175 C1174 1.376 . S
C1175 C1176 1.388 . S
C1176 H1163 0.930 . S
C1176 C1175 1.388 . S
C1176 C1177 1.390 . S
C1177 C1176 1.390 . S
C1177 C1178 1.394 . S
C1177 C1183 1.465 . S
C1178 C1173 1.399 . S
C1178 C1177 1.394 . S
C1178 C1179 1.516 . S
C1179 C1178 1.516 . S
C1179 C1180 1.502 . S
C1179 C1181 1.561 . S
C1179 C1182 1.526 . S
C1180 H1164 0.959 . S
C1180 H1165 0.959 . S
C1180 H1166 0.961 . S
C1180 C1179 1.502 . S
C1181 H1167 0.960 . S
C1181 H1168 0.961 . S
C1181 H1169 0.959 . S
C1181 C1179 1.561 . S
C1182 C1179 1.526 . S
C1182 C1183 1.396 . S
C1182 C1187 1.390 . S
C1183 C1177 1.465 . S
C1183 C1182 1.396 . S
C1183 C1184 1.399 . S
C1184 H1170 0.929 . S
C1184 C1183 1.399 . S
C1184 C1185 1.385 . S
C1185 H1171 0.931 . S
C1185 C1184 1.385 . S
C1185 C1186 1.389 . S
C1186 C1185 1.389 . S
C1186 C1187 1.387 . S
C1187 H1172 0.930 . S
C1187 C1182 1.390 . S
C1187 C1186 1.387 . S
H1188 C1200 0.930 . S
H1189 C1202 0.930 . S
H1190 C1203 0.930 . S
H1191 C1207 0.959 . S
H1192 C1207 0.959 . S
H1193 C1207 0.961 . S
H1194 C1208 0.960 . S
H1195 C1208 0.961 . S
H1196 C1208 0.959 . S
H1197 C1211 0.929 . S
H1198 C1212 0.931 . S
H1199 C1214 0.930 . S
C1200 H1188 0.930 . S
C1200 C1201 1.399 . S
C1200 C1205 1.399 1_554 S
C1201 C1200 1.399 . S
C1201 C1202 1.376 . S
C1202 H1189 0.930 . S
C1202 C1201 1.376 . S
C1202 C1203 1.388 . S
C1203 H1190 0.930 . S
C1203 C1202 1.388 . S
C1203 C1204 1.390 1_554 S
C1204 C1203 1.390 1_556 S
C1204 C1205 1.394 . S
C1204 C1210 1.465 . S
C1205 C1200 1.399 1_556 S
C1205 C1204 1.394 . S
C1205 C1206 1.516 . S
C1206 C1205 1.516 . S
C1206 C1207 1.502 . S
C1206 C1208 1.561 . S
C1206 C1209 1.526 . S
C1207 H1191 0.959 . S
C1207 H1192 0.959 . S
C1207 H1193 0.961 . S
C1207 C1206 1.502 . S
C1208 H1194 0.960 . S
C1208 H1195 0.961 . S
C1208 H1196 0.959 . S
C1208 C1206 1.561 . S
C1209 C1206 1.526 . S
C1209 C1210 1.396 . S
C1209 C1214 1.390 . S
C1210 C1204 1.465 . S
C1210 C1209 1.396 . S
C1210 C1211 1.399 . S
C1211 H1197 0.929 . S
C1211 C1210 1.399 . S
C1211 C1212 1.385 . S
C1212 H1198 0.931 . S
C1212 C1211 1.385 . S
C1212 C1213 1.389 . S
C1213 C1212 1.389 . S
C1213 C1214 1.387 . S
C1214 H1199 0.930 . S
C1214 C1209 1.390 . S
C1214 C1213 1.387 . S
H1215 C1227 0.924 1_556 S
H1216 C1229 0.930 . S
H1217 C1230 0.930 . S
H1218 C1234 0.959 . S
H1219 C1234 0.959 . S
H1220 C1234 0.961 . S
H1221 C1235 0.960 . S
H1222 C1235 0.961 . S
H1223 C1235 0.959 . S
H1224 C1238 0.929 . S
H1225 C1239 0.931 . S
H1226 C1241 0.930 . S
C1227 H1215 0.924 1_554 S
C1227 C1228 1.425 . S
C1227 C1232 1.380 1_554 S
C1228 C1227 1.425 . S
C1228 C1229 1.376 . S
C1229 H1216 0.930 . S
C1229 C1228 1.376 . S
C1229 C1230 1.388 . S
C1230 H1217 0.930 . S
C1230 C1229 1.388 . S
C1230 C1231 1.390 1_554 S
C1231 C1230 1.390 1_556 S
C1231 C1232 1.394 . S
C1231 C1237 1.465 . S
C1232 C1227 1.380 1_556 S
C1232 C1231 1.394 . S
C1232 C1233 1.516 . S
C1233 C1232 1.516 . S
C1233 C1234 1.502 . S
C1233 C1235 1.561 . S
C1233 C1236 1.526 . S
C1234 H1218 0.959 . S
C1234 H1219 0.959 . S
C1234 H1220 0.961 . S
C1234 C1233 1.502 . S
C1235 H1221 0.960 . S
C1235 H1222 0.961 . S
C1235 H1223 0.959 . S
C1235 C1233 1.561 . S
C1236 C1233 1.526 . S
C1236 C1237 1.396 . S
C1236 C1241 1.390 . S
C1237 C1231 1.465 . S
C1237 C1236 1.396 . S
C1237 C1238 1.399 . S
C1238 H1224 0.929 . S
C1238 C1237 1.399 . S
C1238 C1239 1.385 . S
C1239 H1225 0.931 . S
C1239 C1238 1.385 . S
C1239 C1240 1.389 . S
C1240 C1239 1.389 . S
C1240 C1241 1.387 . S
C1241 H1226 0.930 . S
C1241 C1236 1.390 . S
C1241 C1240 1.387 . S
H1242 C1254 0.930 . S
H1243 C1256 0.930 . S
H1244 C1257 0.930 . S
H1245 C1261 0.959 . S
H1246 C1261 0.959 . S
H1247 C1261 0.961 . S
H1248 C1262 0.960 . S
H1249 C1262 0.961 . S
H1250 C1262 0.959 . S
H1251 C1265 0.929 . S
H1252 C1266 0.931 . S
H1253 C1268 0.930 . S
C1254 H1242 0.930 . S
C1254 C1255 1.399 . S
C1254 C1259 1.399 . S
C1255 C1254 1.399 . S
C1255 C1256 1.376 . S
C1256 H1243 0.930 . S
C1256 C1255 1.376 . S
C1256 C1257 1.388 . S
C1257 H1244 0.930 . S
C1257 C1256 1.388 . S
C1257 C1258 1.390 . S
C1258 C1257 1.390 . S
C1258 C1259 1.394 . S
C1258 C1264 1.465 . S
C1259 C1254 1.399 . S
C1259 C1258 1.394 . S
C1259 C1260 1.516 . S
C1260 C1259 1.516 . S
C1260 C1261 1.502 . S
C1260 C1262 1.561 . S
C1260 C1263 1.526 . S
C1261 H1245 0.959 . S
C1261 H1246 0.959 . S
C1261 H1247 0.961 . S
C1261 C1260 1.502 . S
C1262 H1248 0.960 . S
C1262 H1249 0.961 . S
C1262 H1250 0.959 . S
C1262 C1260 1.561 . S
C1263 C1260 1.526 . S
C1263 C1264 1.396 . S
C1263 C1268 1.390 . S
C1264 C1258 1.465 . S
C1264 C1263 1.396 . S
C1264 C1265 1.399 . S
C1265 H1251 0.929 . S
C1265 C1264 1.399 . S
C1265 C1266 1.385 . S
C1266 H1252 0.931 . S
C1266 C1265 1.385 . S
C1266 C1267 1.389 . S
C1267 C1266 1.389 . S
C1267 C1268 1.387 . S
C1268 H1253 0.930 . S
C1268 C1263 1.390 . S
C1268 C1267 1.387 . S
H1269 C1281 0.930 . S
H1270 C1283 0.930 . S
H1271 C1284 0.930 . S
H1272 C1288 0.959 . S
H1273 C1288 0.959 . S
H1274 C1288 0.961 . S
H1275 C1289 0.960 1_565 S
H1276 C1289 0.961 1_565 S
H1277 C1289 0.959 . S
H1278 C1292 0.929 . S
H1279 C1293 0.931 . S
H1280 C1295 0.930 . S
C1281 H1269 0.930 . S
C1281 C1282 1.399 . S
C1281 C1286 1.399 . S
C1282 C1281 1.399 . S
C1282 C1283 1.376 . S
C1283 H1270 0.930 . S
C1283 C1282 1.376 . S
C1283 C1284 1.388 . S
C1284 H1271 0.930 . S
C1284 C1283 1.388 . S
C1284 C1285 1.390 . S
C1285 C1284 1.390 . S
C1285 C1286 1.394 . S
C1285 C1291 1.465 . S
C1286 C1281 1.399 . S
C1286 C1285 1.394 . S
C1286 C1287 1.516 . S
C1287 C1286 1.516 . S
C1287 C1288 1.502 . S
C1287 C1289 1.561 . S
C1287 C1290 1.526 . S
C1288 H1272 0.959 . S
C1288 H1273 0.959 . S
C1288 H1274 0.961 . S
C1288 C1287 1.502 . S
C1289 H1275 0.960 1_545 S
C1289 H1276 0.961 1_545 S
C1289 H1277 0.959 . S
C1289 C1287 1.561 . S
C1290 C1287 1.526 . S
C1290 C1291 1.396 . S
C1290 C1295 1.390 . S
C1291 C1285 1.465 . S
C1291 C1290 1.396 . S
C1291 C1292 1.399 . S
C1292 H1278 0.929 . S
C1292 C1291 1.399 . S
C1292 C1293 1.385 . S
C1293 H1279 0.931 . S
C1293 C1292 1.385 . S
C1293 C1294 1.389 . S
C1294 C1293 1.389 . S
C1294 C1295 1.387 . S
C1295 H1280 0.930 . S
C1295 C1290 1.390 . S
C1295 C1294 1.387 . S
H1296 C1308 0.930 . S
H1297 C1310 0.930 . S
H1298 C1311 0.930 . S
H1299 C1315 0.959 . S
H1300 C1315 0.959 . S
H1301 C1315 0.961 . S
H1302 C1316 0.960 . S
H1303 C1316 0.961 . S
H1304 C1316 0.959 . S
H1305 C1319 0.929 . S
H1306 C1320 0.931 . S
H1307 C1322 0.930 . S
C1308 H1296 0.930 . S
C1308 C1309 1.399 . S
C1308 C1313 1.399 1_455 S
C1309 C1308 1.399 . S
C1309 C1310 1.376 . S
C1310 H1297 0.930 . S
C1310 C1309 1.376 . S
C1310 C1311 1.388 . S
C1311 H1298 0.930 . S
C1311 C1310 1.388 . S
C1311 C1312 1.390 1_455 S
C1312 C1311 1.390 1_655 S
C1312 C1313 1.394 . S
C1312 C1318 1.465 . S
C1313 C1308 1.399 1_655 S
C1313 C1312 1.394 . S
C1313 C1314 1.516 . S
C1314 C1313 1.516 . S
C1314 C1315 1.502 . S
C1314 C1316 1.561 . S
C1314 C1317 1.526 . S
C1315 H1299 0.959 . S
C1315 H1300 0.959 . S
C1315 H1301 0.961 . S
C1315 C1314 1.502 . S
C1316 H1302 0.960 . S
C1316 H1303 0.961 . S
C1316 H1304 0.959 . S
C1316 C1314 1.561 . S
C1317 C1314 1.526 . S
C1317 C1318 1.396 . S
C1317 C1322 1.390 . S
C1318 C1312 1.465 . S
C1318 C1317 1.396 . S
C1318 C1319 1.399 . S
C1319 H1305 0.929 . S
C1319 C1318 1.399 . S
C1319 C1320 1.385 . S
C1320 H1306 0.931 . S
C1320 C1319 1.385 . S
C1320 C1321 1.389 . S
C1321 C1320 1.389 . S
C1321 C1322 1.387 . S
C1322 H1307 0.930 . S
C1322 C1317 1.390 . S
C1322 C1321 1.387 . S
H1323 C1335 0.930 . S
H1324 C1337 0.930 . S
H1325 C1338 0.930 . S
H1326 C1342 0.959 . S
H1327 C1342 0.959 . S
H1328 C1342 0.961 . S
H1329 C1343 0.960 . S
H1330 C1343 0.961 . S
H1331 C1343 0.959 . S
H1332 C1346 0.929 . S
H1333 C1347 0.931 . S
H1334 C1349 0.930 . S
C1335 H1323 0.930 . S
C1335 C1336 1.399 . S
C1335 C1340 1.399 1_655 S
C1336 C1335 1.399 . S
C1336 C1337 1.376 . S
C1337 H1324 0.930 . S
C1337 C1336 1.376 . S
C1337 C1338 1.388 . S
C1338 H1325 0.930 . S
C1338 C1337 1.388 . S
C1338 C1339 1.390 1_655 S
C1339 C1338 1.390 1_455 S
C1339 C1340 1.394 . S
C1339 C1345 1.465 . S
C1340 C1335 1.399 1_455 S
C1340 C1339 1.394 . S
C1340 C1341 1.516 . S
C1341 C1340 1.516 . S
C1341 C1342 1.502 . S
C1341 C1343 1.561 . S
C1341 C1344 1.526 . S
C1342 H1326 0.959 . S
C1342 H1327 0.959 . S
C1342 H1328 0.961 . S
C1342 C1341 1.502 . S
C1343 H1329 0.960 . S
C1343 H1330 0.961 . S
C1343 H1331 0.959 . S
C1343 C1341 1.561 . S
C1344 C1341 1.526 . S
C1344 C1345 1.396 . S
C1344 C1349 1.390 . S
C1345 C1339 1.465 . S
C1345 C1344 1.396 . S
C1345 C1346 1.399 . S
C1346 H1332 0.929 . S
C1346 C1345 1.399 . S
C1346 C1347 1.385 . S
C1347 H1333 0.931 . S
C1347 C1346 1.385 . S
C1347 C1348 1.389 . S
C1348 C1347 1.389 . S
C1348 C1349 1.387 . S
C1349 H1334 0.930 . S
C1349 C1344 1.390 . S
C1349 C1348 1.387 . S
H1350 C1362 0.930 . S
H1351 C1364 0.930 . S
H1352 C1365 0.930 . S
H1353 C1369 0.959 . S
H1354 C1369 0.959 . S
H1355 C1369 0.961 . S
H1356 C1370 0.960 1_554 S
H1357 C1370 0.946 1_554 S
H1358 C1370 0.959 . S
H1359 C1373 0.929 . S
H1360 C1374 0.931 . S
H1361 C1376 0.930 . S
C1362 H1350 0.930 . S
C1362 C1363 1.399 . S
C1362 C1367 1.399 1_455 S
C1363 C1362 1.399 . S
C1363 C1364 1.376 . S
C1364 H1351 0.930 . S
C1364 C1363 1.376 . S
C1364 C1365 1.388 . S
C1365 H1352 0.930 . S
C1365 C1364 1.388 . S
C1365 C1366 1.390 1_455 S
C1366 C1365 1.390 1_655 S
C1366 C1367 1.394 . S
C1366 C1372 1.465 . S
C1367 C1362 1.399 1_655 S
C1367 C1366 1.394 . S
C1367 C1368 1.516 . S
C1368 C1367 1.516 . S
C1368 C1369 1.502 . S
C1368 C1370 1.561 . S
C1368 C1371 1.526 . S
C1369 H1353 0.959 . S
C1369 H1354 0.959 . S
C1369 H1355 0.961 . S
C1369 C1368 1.502 . S
C1370 H1356 0.960 1_556 S
C1370 H1357 0.946 1_556 S
C1370 H1358 0.959 . S
C1370 C1368 1.561 . S
C1371 C1368 1.526 . S
C1371 C1372 1.396 . S
C1371 C1376 1.390 . S
C1372 C1366 1.465 . S
C1372 C1371 1.396 . S
C1372 C1373 1.399 . S
C1373 H1359 0.929 . S
C1373 C1372 1.399 . S
C1373 C1374 1.385 . S
C1374 H1360 0.931 . S
C1374 C1373 1.385 . S
C1374 C1375 1.389 . S
C1375 C1374 1.389 . S
C1375 C1376 1.387 . S
C1376 H1361 0.930 . S
C1376 C1371 1.390 . S
C1376 C1375 1.387 . S
H1377 C1389 0.930 . S
H1378 C1391 0.930 . S
H1379 C1392 0.930 . S
H1380 C1396 0.959 . S
H1381 C1396 0.959 1_655 S
H1382 C1396 0.961 . S
H1383 C1397 0.960 . S
H1384 C1397 0.961 1_655 S
H1385 C1397 0.959 . S
H1386 C1400 0.929 . S
H1387 C1401 0.931 . S
H1388 C1403 0.930 . S
C1389 H1377 0.930 . S
C1389 C1390 1.399 . S
C1389 C1394 1.399 . S
C1390 C1389 1.399 . S
C1390 C1391 1.376 . S
C1391 H1378 0.930 . S
C1391 C1390 1.376 . S
C1391 C1392 1.388 . S
C1392 H1379 0.930 . S
C1392 C1391 1.388 . S
C1392 C1393 1.390 . S
C1393 C1392 1.390 . S
C1393 C1394 1.394 . S
C1393 C1399 1.465 . S
C1394 C1389 1.399 . S
C1394 C1393 1.394 . S
C1394 C1395 1.516 . S
C1395 C1394 1.516 . S
C1395 C1396 1.502 . S
C1395 C1397 1.561 . S
C1395 C1398 1.526 . S
C1396 H1380 0.959 . S
C1396 H1381 0.959 1_455 S
C1396 H1382 0.961 . S
C1396 C1395 1.502 . S
C1397 H1383 0.960 . S
C1397 H1384 0.961 1_455 S
C1397 H1385 0.959 . S
C1397 C1395 1.561 . S
C1398 C1395 1.526 . S
C1398 C1399 1.396 . S
C1398 C1403 1.390 1_455 S
C1399 C1393 1.465 . S
C1399 C1398 1.396 . S
C1399 C1400 1.399 . S
C1400 H1386 0.929 . S
C1400 C1399 1.399 . S
C1400 C1401 1.385 1_455 S
C1401 H1387 0.931 . S
C1401 C1400 1.385 1_655 S
C1401 C1402 1.389 . S
C1402 C1401 1.389 . S
C1402 C1403 1.387 . S
C1403 H1388 0.930 . S
C1403 C1398 1.390 1_655 S
C1403 C1402 1.387 . S
H1404 C1416 0.930 . S
H1405 C1418 0.930 . S
H1406 C1419 0.930 . S
H1407 C1423 0.959 . S
H1408 C1423 0.959 . S
H1409 C1423 0.961 . S
H1410 C1424 0.960 . S
H1411 C1424 0.961 . S
H1412 C1424 0.959 . S
H1413 C1427 0.929 . S
H1414 C1428 0.931 . S
H1415 C1430 0.930 . S
C1416 H1404 0.930 . S
C1416 C1417 1.399 . S
C1416 C1421 1.399 1_545 S
C1417 C1416 1.399 . S
C1417 C1418 1.376 . S
C1418 H1405 0.930 . S
C1418 C1417 1.376 . S
C1418 C1419 1.388 . S
C1419 H1406 0.930 . S
C1419 C1418 1.388 . S
C1419 C1420 1.390 1_545 S
C1420 C1419 1.390 1_565 S
C1420 C1421 1.394 . S
C1420 C1426 1.465 . S
C1421 C1416 1.399 1_565 S
C1421 C1420 1.394 . S
C1421 C1422 1.516 . S
C1422 C1421 1.516 . S
C1422 C1423 1.502 . S
C1422 C1424 1.561 . S
C1422 C1425 1.526 . S
C1423 H1407 0.959 . S
C1423 H1408 0.959 . S
C1423 H1409 0.961 . S
C1423 C1422 1.502 . S
C1424 H1410 0.960 . S
C1424 H1411 0.961 . S
C1424 H1412 0.959 . S
C1424 C1422 1.561 . S
C1425 C1422 1.526 . S
C1425 C1426 1.396 . S
C1425 C1430 1.390 . S
C1426 C1420 1.465 . S
C1426 C1425 1.396 . S
C1426 C1427 1.399 . S
C1427 H1413 0.929 . S
C1427 C1426 1.399 . S
C1427 C1428 1.385 . S
C1428 H1414 0.931 . S
C1428 C1427 1.385 . S
C1428 C1429 1.389 . S
C1429 C1428 1.389 . S
C1429 C1430 1.387 . S
C1430 H1415 0.930 . S
C1430 C1425 1.390 . S
C1430 C1429 1.387 . S
H1431 C1443 0.930 . S
H1432 C1445 0.930 . S
H1433 C1446 0.930 . S
H1434 C1450 0.959 . S
H1435 C1450 0.959 1_565 S
H1436 C1450 0.961 . S
H1437 C1451 0.960 . S
H1438 C1451 0.961 1_565 S
H1439 C1451 0.959 . S
H1440 C1454 0.929 . S
H1441 C1455 0.931 . S
H1442 C1457 0.930 . S
C1443 H1431 0.930 . S
C1443 C1444 1.399 . S
C1443 C1448 1.399 . S
C1444 C1443 1.399 . S
C1444 C1445 1.376 . S
C1445 H1432 0.930 . S
C1445 C1444 1.376 . S
C1445 C1446 1.388 . S
C1446 H1433 0.930 . S
C1446 C1445 1.388 . S
C1446 C1447 1.390 . S
C1447 C1446 1.390 . S
C1447 C1448 1.394 . S
C1447 C1453 1.465 . S
C1448 C1443 1.399 . S
C1448 C1447 1.394 . S
C1448 C1449 1.516 . S
C1449 C1448 1.516 . S
C1449 C1450 1.502 . S
C1449 C1451 1.561 . S
C1449 C1452 1.526 . S
C1450 H1434 0.959 . S
C1450 H1435 0.959 1_545 S
C1450 H1436 0.961 . S
C1450 C1449 1.502 . S
C1451 H1437 0.960 . S
C1451 H1438 0.961 1_545 S
C1451 H1439 0.959 . S
C1451 C1449 1.561 . S
C1452 C1449 1.526 . S
C1452 C1453 1.396 . S
C1452 C1457 1.390 1_545 S
C1453 C1447 1.465 . S
C1453 C1452 1.396 . S
C1453 C1454 1.399 . S
C1454 H1440 0.929 . S
C1454 C1453 1.399 . S
C1454 C1455 1.385 1_545 S
C1455 H1441 0.931 . S
C1455 C1454 1.385 1_565 S
C1455 C1456 1.389 . S
C1456 C1455 1.389 . S
C1456 C1457 1.387 . S
C1457 H1442 0.930 . S
C1457 C1452 1.390 1_565 S
C1457 C1456 1.387 . S
H1458 C1470 0.930 . S
H1459 C1472 0.930 . S
H1460 C1473 0.930 . S
H1461 C1477 0.959 . S
H1462 C1477 0.959 . S
H1463 C1477 0.961 . S
H1464 C1478 0.960 . S
H1465 C1478 0.961 . S
H1466 C1478 0.959 . S
H1467 C1481 0.929 . S
H1468 C1482 0.931 . S
H1469 C1484 0.930 . S
C1470 H1458 0.930 . S
C1470 C1471 1.399 . S
C1470 C1475 1.399 . S
C1471 C1470 1.399 . S
C1471 C1472 1.376 . S
C1472 H1459 0.930 . S
C1472 C1471 1.376 . S
C1472 C1473 1.388 . S
C1473 H1460 0.930 . S
C1473 C1472 1.388 . S
C1473 C1474 1.390 . S
C1474 C1473 1.390 . S
C1474 C1475 1.394 . S
C1474 C1480 1.465 . S
C1475 C1470 1.399 . S
C1475 C1474 1.394 . S
C1475 C1476 1.516 . S
C1476 C1475 1.516 . S
C1476 C1477 1.502 . S
C1476 C1478 1.561 . S
C1476 C1479 1.526 . S
C1477 H1461 0.959 . S
C1477 H1462 0.959 . S
C1477 H1463 0.961 . S
C1477 C1476 1.502 . S
C1478 H1464 0.960 . S
C1478 H1465 0.961 . S
C1478 H1466 0.959 . S
C1478 C1476 1.561 . S
C1479 C1476 1.526 . S
C1479 C1480 1.396 . S
C1479 C1484 1.390 . S
C1480 C1474 1.465 . S
C1480 C1479 1.396 . S
C1480 C1481 1.399 . S
C1481 H1467 0.929 . S
C1481 C1480 1.399 . S
C1481 C1482 1.385 . S
C1482 H1468 0.931 . S
C1482 C1481 1.385 . S
C1482 C1483 1.389 . S
C1483 C1482 1.389 . S
C1483 C1484 1.387 . S
C1484 H1469 0.930 . S
C1484 C1479 1.390 . S
C1484 C1483 1.387 . S
H1485 C1497 0.930 . S
H1486 C1499 0.930 . S
H1487 C1500 0.930 . S
H1488 C1504 0.959 . S
H1489 C1504 0.959 1_565 S
H1490 C1504 0.961 . S
H1491 C1505 0.960 . S
H1492 C1505 0.961 1_565 S
H1493 C1505 0.959 . S
H1494 C1508 0.929 . S
H1495 C1509 0.931 . S
H1496 C1511 0.930 . S
C1497 H1485 0.930 . S
C1497 C1498 1.399 . S
C1497 C1502 1.399 . S
C1498 C1497 1.399 . S
C1498 C1499 1.376 . S
C1499 H1486 0.930 . S
C1499 C1498 1.376 . S
C1499 C1500 1.388 . S
C1500 H1487 0.930 . S
C1500 C1499 1.388 . S
C1500 C1501 1.390 . S
C1501 C1500 1.390 . S
C1501 C1502 1.394 . S
C1501 C1507 1.465 . S
C1502 C1497 1.399 . S
C1502 C1501 1.394 . S
C1502 C1503 1.516 . S
C1503 C1502 1.516 . S
C1503 C1504 1.502 . S
C1503 C1505 1.561 . S
C1503 C1506 1.526 . S
C1504 H1488 0.959 . S
C1504 H1489 0.959 1_545 S
C1504 H1490 0.961 . S
C1504 C1503 1.502 . S
C1505 H1491 0.960 . S
C1505 H1492 0.961 1_545 S
C1505 H1493 0.959 . S
C1505 C1503 1.561 . S
C1506 C1503 1.526 . S
C1506 C1507 1.396 . S
C1506 C1511 1.390 1_545 S
C1507 C1501 1.465 . S
C1507 C1506 1.396 . S
C1507 C1508 1.399 . S
C1508 H1494 0.929 . S
C1508 C1507 1.399 . S
C1508 C1509 1.385 1_545 S
C1509 H1495 0.931 . S
C1509 C1508 1.385 1_565 S
C1509 C1510 1.389 . S
C1510 C1509 1.389 . S
C1510 C1511 1.387 . S
C1511 H1496 0.930 . S
C1511 C1506 1.390 1_565 S
C1511 C1510 1.387 . S
H1512 C1524 0.925 1_455 S
H1513 C1526 0.930 . S
H1514 C1527 0.930 . S
H1515 C1531 0.959 . S
H1516 C1531 0.959 . S
H1517 C1531 0.961 . S
H1518 C1532 0.960 . S
H1519 C1532 0.961 . S
H1520 C1532 0.959 . S
H1521 C1535 0.929 . S
H1522 C1536 0.932 . S
H1523 C1538 0.930 . S
C1524 H1512 0.925 1_655 S
C1524 C1525 1.404 . S
C1524 C1529 1.399 . S
C1525 C1524 1.404 . S
C1525 C1526 1.376 . S
C1526 H1513 0.930 . S
C1526 C1525 1.376 . S
C1526 C1527 1.388 . S
C1527 H1514 0.930 . S
C1527 C1526 1.388 . S
C1527 C1528 1.390 . S
C1528 C1527 1.390 . S
C1528 C1529 1.399 . S
C1528 C1534 1.465 . S
C1529 C1524 1.399 . S
C1529 C1528 1.399 . S
C1529 C1530 1.513 1_655 S
C1530 C1529 1.513 1_455 S
C1530 C1531 1.502 . S
C1530 C1532 1.561 1_455 S
C1530 C1533 1.526 . S
C1531 H1515 0.959 . S
C1531 H1516 0.959 . S
C1531 H1517 0.961 . S
C1531 C1530 1.502 . S
C1532 H1518 0.960 . S
C1532 H1519 0.961 . S
C1532 H1520 0.959 . S
C1532 C1530 1.561 1_655 S
C1533 C1530 1.526 . S
C1533 C1534 1.396 1_455 S
C1533 C1538 1.390 . S
C1534 C1528 1.465 . S
C1534 C1533 1.396 1_655 S
C1534 C1535 1.399 . S
C1535 H1521 0.929 . S
C1535 C1534 1.399 . S
C1535 C1536 1.389 . S
C1536 H1522 0.932 . S
C1536 C1535 1.389 . S
C1536 C1537 1.385 1_655 S
C1537 C1536 1.385 1_455 S
C1537 C1538 1.387 . S
C1538 H1523 0.930 . S
C1538 C1533 1.390 . S
C1538 C1537 1.387 . S
H1539 C1551 0.930 . S
H1540 C1553 0.930 . S
H1541 C1554 0.930 . S
H1542 C1558 0.959 . S
H1543 C1558 0.959 . S
H1544 C1558 0.961 . S
H1545 C1559 0.960 . S
H1546 C1559 0.961 . S
H1547 C1559 0.959 . S
H1548 C1562 0.929 . S
H1549 C1563 0.931 . S
H1550 C1565 0.930 . S
C1551 H1539 0.930 . S
C1551 C1552 1.399 1_655 S
C1551 C1556 1.400 . S
C1552 C1551 1.399 1_455 S
C1552 C1553 1.376 . S
C1553 H1540 0.930 . S
C1553 C1552 1.376 . S
C1553 C1554 1.388 . S
C1554 H1541 0.930 . S
C1554 C1553 1.388 . S
C1554 C1555 1.390 . S
C1555 C1554 1.390 . S
C1555 C1556 1.385 1_455 S
C1555 C1561 1.465 . S
C1556 C1551 1.400 . S
C1556 C1555 1.385 1_655 S
C1556 C1557 1.523 . S
C1557 C1556 1.523 . S
C1557 C1558 1.502 . S
C1557 C1559 1.561 1_655 S
C1557 C1560 1.526 . S
C1558 H1542 0.959 . S
C1558 H1543 0.959 . S
C1558 H1544 0.961 . S
C1558 C1557 1.502 . S
C1559 H1545 0.960 . S
C1559 H1546 0.961 . S
C1559 H1547 0.959 . S
C1559 C1557 1.561 1_455 S
C1560 C1557 1.526 . S
C1560 C1561 1.396 1_655 S
C1560 C1565 1.390 . S
C1561 C1555 1.465 . S
C1561 C1560 1.396 1_455 S
C1561 C1562 1.399 . S
C1562 H1548 0.929 . S
C1562 C1561 1.399 . S
C1562 C1563 1.385 . S
C1563 H1549 0.931 . S
C1563 C1562 1.385 . S
C1563 C1564 1.389 1_455 S
C1564 C1563 1.389 1_655 S
C1564 C1565 1.387 . S
C1565 H1550 0.930 . S
C1565 C1560 1.390 . S
C1565 C1564 1.387 . S
H1566 C1578 0.930 . S
H1567 C1580 0.930 . S
H1568 C1581 0.930 . S
H1569 C1585 0.959 . S
H1570 C1585 0.959 . S
H1571 C1585 0.961 . S
H1572 C1586 0.960 . S
H1573 C1586 0.961 . S
H1574 C1586 0.959 . S
H1575 C1589 0.929 . S
H1576 C1590 0.931 . S
H1577 C1592 0.930 . S
C1578 H1566 0.930 . S
C1578 C1579 1.399 1_545 S
C1578 C1583 1.399 . S
C1579 C1578 1.399 1_565 S
C1579 C1580 1.376 . S
C1580 H1567 0.930 . S
C1580 C1579 1.376 . S
C1580 C1581 1.388 . S
C1581 H1568 0.930 . S
C1581 C1580 1.388 . S
C1581 C1582 1.390 . S
C1582 C1581 1.390 . S
C1582 C1583 1.394 1_565 S
C1582 C1588 1.465 . S
C1583 C1578 1.399 . S
C1583 C1582 1.394 1_545 S
C1583 C1584 1.516 . S
C1584 C1583 1.516 . S
C1584 C1585 1.502 . S
C1584 C1586 1.561 . S
C1584 C1587 1.526 . S
C1585 H1569 0.959 . S
C1585 H1570 0.959 . S
C1585 H1571 0.961 . S
C1585 C1584 1.502 . S
C1586 H1572 0.960 . S
C1586 H1573 0.961 . S
C1586 H1574 0.959 . S
C1586 C1584 1.561 . S
C1587 C1584 1.526 . S
C1587 C1588 1.396 1_545 S
C1587 C1592 1.390 . S
C1588 C1582 1.465 . S
C1588 C1587 1.396 1_565 S
C1588 C1589 1.399 . S
C1589 H1575 0.929 . S
C1589 C1588 1.399 . S
C1589 C1590 1.385 . S
C1590 H1576 0.931 . S
C1590 C1589 1.385 . S
C1590 C1591 1.389 1_565 S
C1591 C1590 1.389 1_545 S
C1591 C1592 1.387 . S
C1592 H1577 0.930 . S
C1592 C1587 1.390 . S
C1592 C1591 1.387 . S
H1593 C1605 0.930 . S
H1594 C1607 0.930 . S
H1595 C1608 0.930 . S
H1596 C1612 0.959 . S
H1597 C1612 0.959 . S
H1598 C1612 0.961 . S
H1599 C1613 0.960 . S
H1600 C1613 0.961 . S
H1601 C1613 0.959 . S
H1602 C1616 0.929 . S
H1603 C1617 0.931 . S
H1604 C1619 0.930 . S
C1605 H1593 0.930 . S
C1605 C1606 1.399 . S
C1605 C1610 1.399 . S
C1606 C1605 1.399 . S
C1606 C1607 1.376 . S
C1607 H1594 0.930 . S
C1607 C1606 1.376 . S
C1607 C1608 1.388 . S
C1608 H1595 0.930 . S
C1608 C1607 1.388 . S
C1608 C1609 1.390 . S
C1609 C1608 1.390 . S
C1609 C1610 1.394 . S
C1609 C1615 1.465 . S
C1610 C1605 1.399 . S
C1610 C1609 1.394 . S
C1610 C1611 1.516 . S
C1611 C1610 1.516 . S
C1611 C1612 1.502 . S
C1611 C1613 1.561 . S
C1611 C1614 1.526 . S
C1612 H1596 0.959 . S
C1612 H1597 0.959 . S
C1612 H1598 0.961 . S
C1612 C1611 1.502 . S
C1613 H1599 0.960 . S
C1613 H1600 0.961 . S
C1613 H1601 0.959 . S
C1613 C1611 1.561 . S
C1614 C1611 1.526 . S
C1614 C1615 1.396 . S
C1614 C1619 1.390 . S
C1615 C1609 1.465 . S
C1615 C1614 1.396 . S
C1615 C1616 1.399 . S
C1616 H1602 0.929 . S
C1616 C1615 1.399 . S
C1616 C1617 1.385 . S
C1617 H1603 0.931 . S
C1617 C1616 1.385 . S
C1617 C1618 1.389 . S
C1618 C1617 1.389 . S
C1618 C1619 1.387 . S
C1619 H1604 0.930 . S
C1619 C1614 1.390 . S
C1619 C1618 1.387 . S
H1620 C1632 0.930 . S
H1621 C1634 0.930 . S
H1622 C1635 0.930 . S
H1623 C1639 0.959 . S
H1624 C1639 0.959 . S
H1625 C1639 0.961 . S
H1626 C1640 0.960 . S
H1627 C1640 0.961 . S
H1628 C1640 0.959 . S
H1629 C1643 0.929 . S
H1630 C1644 0.931 . S
H1631 C1646 0.933 . S
C1632 H1620 0.930 . S
C1632 C1633 1.399 . S
C1632 C1637 1.399 . S
C1633 C1632 1.399 . S
C1633 C1634 1.376 1_554 S
C1634 H1621 0.930 . S
C1634 C1633 1.376 1_556 S
C1634 C1635 1.389 . S
C1635 H1622 0.930 . S
C1635 C1634 1.389 . S
C1635 C1636 1.390 . S
C1636 C1635 1.390 . S
C1636 C1637 1.394 1_556 S
C1636 C1642 1.465 . S
C1637 C1632 1.399 . S
C1637 C1636 1.394 1_554 S
C1637 C1638 1.516 . S
C1638 C1637 1.516 . S
C1638 C1639 1.502 . S
C1638 C1640 1.561 1_554 S
C1638 C1641 1.526 1_554 S
C1639 H1623 0.959 . S
C1639 H1624 0.959 . S
C1639 H1625 0.961 . S
C1639 C1638 1.502 . S
C1640 H1626 0.960 . S
C1640 H1627 0.961 . S
C1640 H1628 0.959 . S
C1640 C1638 1.561 1_556 S
C1641 C1638 1.526 1_556 S
C1641 C1642 1.396 . S
C1641 C1646 1.390 . S
C1642 C1636 1.465 . S
C1642 C1641 1.396 . S
C1642 C1643 1.399 . S
C1643 H1629 0.929 . S
C1643 C1642 1.399 . S
C1643 C1644 1.385 . S
C1644 H1630 0.931 . S
C1644 C1643 1.385 . S
C1644 C1645 1.389 . S
C1645 C1644 1.389 . S
C1645 C1646 1.387 . S
C1646 H1631 0.933 . S
C1646 C1641 1.390 . S
C1646 C1645 1.387 . S
H1647 C1659 0.930 . S
H1648 C1661 0.930 . S
H1649 C1662 0.930 . S
H1650 C1666 0.959 . S
H1651 C1666 0.959 . S
H1652 C1666 0.961 . S
H1653 C1667 0.960 . S
H1654 C1667 0.961 . S
H1655 C1667 0.959 . S
H1656 C1670 0.929 . S
H1657 C1671 0.931 . S
H1658 C1673 0.930 . S
C1659 H1647 0.930 . S
C1659 C1660 1.399 . S
C1659 C1664 1.399 . S
C1660 C1659 1.399 . S
C1660 C1661 1.376 . S
C1661 H1648 0.930 . S
C1661 C1660 1.376 . S
C1661 C1662 1.388 . S
C1662 H1649 0.930 . S
C1662 C1661 1.388 . S
C1662 C1663 1.390 . S
C1663 C1662 1.390 . S
C1663 C1664 1.394 . S
C1663 C1669 1.465 . S
C1664 C1659 1.399 . S
C1664 C1663 1.394 . S
C1664 C1665 1.516 . S
C1665 C1664 1.516 . S
C1665 C1666 1.502 . S
C1665 C1667 1.561 . S
C1665 C1668 1.526 . S
C1666 H1650 0.959 . S
C1666 H1651 0.959 . S
C1666 H1652 0.961 . S
C1666 C1665 1.502 . S
C1667 H1653 0.960 . S
C1667 H1654 0.961 . S
C1667 H1655 0.959 . S
C1667 C1665 1.561 . S
C1668 C1665 1.526 . S
C1668 C1669 1.396 . S
C1668 C1673 1.390 . S
C1669 C1663 1.465 . S
C1669 C1668 1.396 . S
C1669 C1670 1.399 . S
C1670 H1656 0.929 . S
C1670 C1669 1.399 . S
C1670 C1671 1.385 . S
C1671 H1657 0.931 . S
C1671 C1670 1.385 . S
C1671 C1672 1.389 . S
C1672 C1671 1.389 . S
C1672 C1673 1.387 . S
C1673 H1658 0.930 . S
C1673 C1668 1.390 . S
C1673 C1672 1.387 . S
H1674 C1686 0.930 . S
H1675 C1688 0.930 . S
H1676 C1689 0.930 . S
H1677 C1693 0.959 . S
H1678 C1693 0.959 . S
H1679 C1693 0.961 . S
H1680 C1694 0.960 . S
H1681 C1694 0.961 . S
H1682 C1694 0.959 . S
H1683 C1697 0.929 . S
H1684 C1698 0.931 . S
H1685 C1700 0.930 . S
C1686 H1674 0.930 . S
C1686 C1687 1.399 . S
C1686 C1691 1.399 . S
C1687 C1686 1.399 . S
C1687 C1688 1.376 . S
C1688 H1675 0.930 . S
C1688 C1687 1.376 . S
C1688 C1689 1.388 . S
C1689 H1676 0.930 . S
C1689 C1688 1.388 . S
C1689 C1690 1.390 . S
C1690 C1689 1.390 . S
C1690 C1691 1.394 . S
C1690 C1696 1.465 . S
C1691 C1686 1.399 . S
C1691 C1690 1.394 . S
C1691 C1692 1.516 . S
C1692 C1691 1.516 . S
C1692 C1693 1.502 . S
C1692 C1694 1.561 . S
C1692 C1695 1.526 . S
C1693 H1677 0.959 . S
C1693 H1678 0.959 . S
C1693 H1679 0.961 . S
C1693 C1692 1.502 . S
C1694 H1680 0.960 . S
C1694 H1681 0.961 . S
C1694 H1682 0.959 . S
C1694 C1692 1.561 . S
C1695 C1692 1.526 . S
C1695 C1696 1.396 . S
C1695 C1700 1.390 . S
C1696 C1690 1.465 . S
C1696 C1695 1.396 . S
C1696 C1697 1.399 . S
C1697 H1683 0.929 . S
C1697 C1696 1.399 . S
C1697 C1698 1.385 . S
C1698 H1684 0.931 . S
C1698 C1697 1.385 . S
C1698 C1699 1.389 . S
C1699 C1698 1.389 . S
C1699 C1700 1.387 . S
C1700 H1685 0.930 . S
C1700 C1695 1.390 . S
C1700 C1699 1.387 . S
H1701 C1713 0.930 . S
H1702 C1715 0.930 . S
H1703 C1716 0.930 . S
H1704 C1720 0.959 . S
H1705 C1720 0.959 . S
H1706 C1720 0.961 . S
H1707 C1721 0.960 . S
H1708 C1721 0.961 . S
H1709 C1721 0.959 . S
H1710 C1724 0.929 . S
H1711 C1725 0.931 . S
H1712 C1727 0.930 . S
C1713 H1701 0.930 . S
C1713 C1714 1.399 . S
C1713 C1718 1.399 . S
C1714 C1713 1.399 . S
C1714 C1715 1.376 . S
C1715 H1702 0.930 . S
C1715 C1714 1.376 . S
C1715 C1716 1.388 . S
C1716 H1703 0.930 . S
C1716 C1715 1.388 . S
C1716 C1717 1.390 . S
C1717 C1716 1.390 . S
C1717 C1718 1.394 . S
C1717 C1723 1.465 . S
C1718 C1713 1.399 . S
C1718 C1717 1.394 . S
C1718 C1719 1.516 . S
C1719 C1718 1.516 . S
C1719 C1720 1.502 . S
C1719 C1721 1.561 . S
C1719 C1722 1.526 . S
C1720 H1704 0.959 . S
C1720 H1705 0.959 . S
C1720 H1706 0.961 . S
C1720 C1719 1.502 . S
C1721 H1707 0.960 . S
C1721 H1708 0.961 . S
C1721 H1709 0.959 . S
C1721 C1719 1.561 . S
C1722 C1719 1.526 . S
C1722 C1723 1.396 . S
C1722 C1727 1.390 . S
C1723 C1717 1.465 . S
C1723 C1722 1.396 . S
C1723 C1724 1.399 . S
C1724 H1710 0.929 . S
C1724 C1723 1.399 . S
C1724 C1725 1.385 . S
C1725 H1711 0.931 . S
C1725 C1724 1.385 . S
C1725 C1726 1.389 . S
C1726 C1725 1.389 . S
C1726 C1727 1.387 . S
C1727 H1712 0.930 . S
C1727 C1722 1.390 . S
C1727 C1726 1.387 . S
H1728 C1740 0.930 . S
H1729 C1742 0.930 . S
H1730 C1743 0.930 . S
H1731 C1747 0.959 . S
H1732 C1747 0.959 . S
H1733 C1747 0.961 . S
H1734 C1748 0.960 . S
H1735 C1748 0.961 . S
H1736 C1748 0.959 . S
H1737 C1751 0.929 . S
H1738 C1752 0.931 . S
H1739 C1754 0.930 . S
C1740 H1728 0.930 . S
C1740 C1741 1.399 . S
C1740 C1745 1.399 . S
C1741 C1740 1.399 . S
C1741 C1742 1.376 . S
C1742 H1729 0.930 . S
C1742 C1741 1.376 . S
C1742 C1743 1.388 . S
C1743 H1730 0.930 . S
C1743 C1742 1.388 . S
C1743 C1744 1.390 . S
C1744 C1743 1.390 . S
C1744 C1745 1.394 . S
C1744 C1750 1.465 . S
C1745 C1740 1.399 . S
C1745 C1744 1.394 . S
C1745 C1746 1.516 . S
C1746 C1745 1.516 . S
C1746 C1747 1.502 . S
C1746 C1748 1.561 . S
C1746 C1749 1.526 . S
C1747 H1731 0.959 . S
C1747 H1732 0.959 . S
C1747 H1733 0.961 . S
C1747 C1746 1.502 . S
C1748 H1734 0.960 . S
C1748 H1735 0.961 . S
C1748 H1736 0.959 . S
C1748 C1746 1.561 . S
C1749 C1746 1.526 . S
C1749 C1750 1.396 . S
C1749 C1754 1.390 . S
C1750 C1744 1.465 . S
C1750 C1749 1.396 . S
C1750 C1751 1.399 . S
C1751 H1737 0.929 . S
C1751 C1750 1.399 . S
C1751 C1752 1.385 . S
C1752 H1738 0.931 . S
C1752 C1751 1.385 . S
C1752 C1753 1.389 . S
C1753 C1752 1.389 . S
C1753 C1754 1.387 . S
C1754 H1739 0.930 . S
C1754 C1749 1.390 . S
C1754 C1753 1.387 . S
H1755 C1767 0.930 . S
H1756 C1769 0.930 . S
H1757 C1770 0.930 . S
H1758 C1774 0.959 . S
H1759 C1774 0.959 . S
H1760 C1774 0.961 . S
H1761 C1775 0.960 . S
H1762 C1775 0.961 . S
H1763 C1775 0.959 . S
H1764 C1778 0.929 . S
H1765 C1779 0.931 . S
H1766 C1781 0.930 . S
C1767 H1755 0.930 . S
C1767 C1768 1.399 . S
C1767 C1772 1.399 . S
C1768 C1767 1.399 . S
C1768 C1769 1.376 . S
C1769 H1756 0.930 . S
C1769 C1768 1.376 . S
C1769 C1770 1.388 . S
C1770 H1757 0.930 . S
C1770 C1769 1.388 . S
C1770 C1771 1.390 . S
C1771 C1770 1.390 . S
C1771 C1772 1.394 . S
C1771 C1777 1.465 . S
C1772 C1767 1.399 . S
C1772 C1771 1.394 . S
C1772 C1773 1.516 . S
C1773 C1772 1.516 . S
C1773 C1774 1.502 . S
C1773 C1775 1.561 . S
C1773 C1776 1.526 . S
C1774 H1758 0.959 . S
C1774 H1759 0.959 . S
C1774 H1760 0.961 . S
C1774 C1773 1.502 . S
C1775 H1761 0.960 . S
C1775 H1762 0.961 . S
C1775 H1763 0.959 . S
C1775 C1773 1.561 . S
C1776 C1773 1.526 . S
C1776 C1777 1.396 . S
C1776 C1781 1.390 . S
C1777 C1771 1.465 . S
C1777 C1776 1.396 . S
C1777 C1778 1.399 . S
C1778 H1764 0.929 . S
C1778 C1777 1.399 . S
C1778 C1779 1.385 . S
C1779 H1765 0.931 . S
C1779 C1778 1.385 . S
C1779 C1780 1.389 . S
C1780 C1779 1.389 . S
C1780 C1781 1.387 . S
C1781 H1766 0.930 . S
C1781 C1776 1.390 . S
C1781 C1780 1.387 . S
H1782 C1794 0.930 . S
H1783 C1796 0.930 . S
H1784 C1797 0.930 . S
H1785 C1801 0.959 . S
H1786 C1801 0.959 . S
H1787 C1801 0.961 . S
H1788 C1802 0.960 . S
H1789 C1802 0.961 . S
H1790 C1802 0.959 . S
H1791 C1805 0.929 . S
H1792 C1806 0.931 . S
H1793 C1808 0.930 . S
C1794 H1782 0.930 . S
C1794 C1795 1.399 . S
C1794 C1799 1.399 . S
C1795 C1794 1.399 . S
C1795 C1796 1.376 1_545 S
C1796 H1783 0.930 . S
C1796 C1795 1.376 1_565 S
C1796 C1797 1.388 . S
C1797 H1784 0.930 . S
C1797 C1796 1.388 . S
C1797 C1798 1.390 . S
C1798 C1797 1.390 . S
C1798 C1799 1.394 1_565 S
C1798 C1804 1.465 . S
C1799 C1794 1.399 . S
C1799 C1798 1.394 1_545 S
C1799 C1800 1.516 . S
C1800 C1799 1.516 . S
C1800 C1801 1.502 . S
C1800 C1802 1.561 . S
C1800 C1803 1.526 . S
C1801 H1785 0.959 . S
C1801 H1786 0.959 . S
C1801 H1787 0.961 . S
C1801 C1800 1.502 . S
C1802 H1788 0.960 . S
C1802 H1789 0.961 . S
C1802 H1790 0.959 . S
C1802 C1800 1.561 . S
C1803 C1800 1.526 . S
C1803 C1804 1.396 1_545 S
C1803 C1808 1.390 . S
C1804 C1798 1.465 . S
C1804 C1803 1.396 1_565 S
C1804 C1805 1.399 . S
C1805 H1791 0.929 . S
C1805 C1804 1.399 . S
C1805 C1806 1.385 . S
C1806 H1792 0.931 . S
C1806 C1805 1.385 . S
C1806 C1807 1.389 . S
C1807 C1806 1.389 . S
C1807 C1808 1.387 1_565 S
C1808 H1793 0.930 . S
C1808 C1803 1.390 . S
C1808 C1807 1.387 1_545 S
H1809 C1821 0.930 . S
H1810 C1823 0.930 . S
H1811 C1824 0.930 . S
H1812 C1828 0.959 1_556 S
H1813 C1828 0.959 . S
H1814 C1828 0.961 . S
H1815 C1829 0.960 . S
H1816 C1829 0.961 . S
H1817 C1829 0.959 . S
H1818 C1832 0.929 . S
H1819 C1833 0.931 . S
H1820 C1835 0.930 . S
C1821 H1809 0.930 . S
C1821 C1822 1.399 1_554 S
C1821 C1826 1.399 . S
C1822 C1821 1.399 1_556 S
C1822 C1823 1.376 . S
C1823 H1810 0.930 . S
C1823 C1822 1.376 . S
C1823 C1824 1.388 . S
C1824 H1811 0.930 . S
C1824 C1823 1.388 . S
C1824 C1825 1.390 . S
C1825 C1824 1.390 . S
C1825 C1826 1.394 1_556 S
C1825 C1831 1.465 . S
C1826 C1821 1.399 . S
C1826 C1825 1.394 1_554 S
C1826 C1827 1.516 . S
C1827 C1826 1.516 . S
C1827 C1828 1.502 . S
C1827 C1829 1.561 . S
C1827 C1830 1.526 . S
C1828 H1812 0.959 1_554 S
C1828 H1813 0.959 . S
C1828 H1814 0.961 . S
C1828 C1827 1.502 . S
C1829 H1815 0.960 . S
C1829 H1816 0.961 . S
C1829 H1817 0.959 . S
C1829 C1827 1.561 . S
C1830 C1827 1.526 . S
C1830 C1831 1.396 1_554 S
C1830 C1835 1.390 . S
C1831 C1825 1.465 . S
C1831 C1830 1.396 1_556 S
C1831 C1832 1.399 . S
C1832 H1818 0.929 . S
C1832 C1831 1.399 . S
C1832 C1833 1.385 . S
C1833 H1819 0.931 . S
C1833 C1832 1.385 . S
C1833 C1834 1.389 1_556 S
C1834 C1833 1.389 1_554 S
C1834 C1835 1.387 . S
C1835 H1820 0.930 . S
C1835 C1830 1.390 . S
C1835 C1834 1.387 . S
H1836 C1848 0.930 . S
H1837 C1850 0.930 . S
H1838 C1851 0.930 . S
H1839 C1855 0.959 . S
H1840 C1855 0.959 . S
H1841 C1855 0.961 . S
H1842 C1856 0.960 . S
H1843 C1856 0.961 . S
H1844 C1856 0.959 . S
H1845 C1859 0.929 . S
H1846 C1860 0.931 . S
H1847 C1862 0.930 . S
C1848 H1836 0.930 . S
C1848 C1849 1.399 . S
C1848 C1853 1.399 . S
C1849 C1848 1.399 . S
C1849 C1850 1.376 1_455 S
C1850 H1837 0.930 . S
C1850 C1849 1.376 1_655 S
C1850 C1851 1.388 . S
C1851 H1838 0.930 . S
C1851 C1850 1.388 . S
C1851 C1852 1.389 1_655 S
C1852 C1851 1.389 1_455 S
C1852 C1853 1.394 . S
C1852 C1858 1.488 . S
C1853 C1848 1.399 . S
C1853 C1852 1.394 . S
C1853 C1854 1.516 1_565 S
C1854 C1853 1.516 1_545 S
C1854 C1855 1.502 . S
C1854 C1856 1.561 1_455 S
C1854 C1857 1.526 . S
C1855 H1839 0.959 . S
C1855 H1840 0.959 . S
C1855 H1841 0.961 . S
C1855 C1854 1.502 . S
C1856 H1842 0.960 . S
C1856 H1843 0.961 . S
C1856 H1844 0.959 . S
C1856 C1854 1.561 1_655 S
C1857 C1854 1.526 . S
C1857 C1858 1.369 1_545 S
C1857 C1862 1.390 . S
C1858 C1852 1.488 . S
C1858 C1857 1.369 1_565 S
C1858 C1859 1.400 1_455 S
C1859 H1845 0.929 . S
C1859 C1858 1.400 1_655 S
C1859 C1860 1.385 1_565 S
C1860 H1846 0.931 . S
C1860 C1859 1.385 1_545 S
C1860 C1861 1.389 1_655 S
C1861 C1860 1.389 1_455 S
C1861 C1862 1.387 . S
C1862 H1847 0.930 . S
C1862 C1857 1.390 . S
C1862 C1861 1.387 . S
H1863 C1875 0.930 . S
H1864 C1877 0.930 . S
H1865 C1878 0.930 . S
H1866 C1882 0.959 . S
H1867 C1882 0.959 . S
H1868 C1882 0.961 . S
H1869 C1883 0.960 . S
H1870 C1883 0.961 . S
H1871 C1883 0.959 . S
H1872 C1886 0.929 . S
H1873 C1887 0.931 . S
H1874 C1889 0.930 . S
C1875 H1863 0.930 . S
C1875 C1876 1.399 . S
C1875 C1880 1.399 . S
C1876 C1875 1.399 . S
C1876 C1877 1.376 1_655 S
C1877 H1864 0.930 . S
C1877 C1876 1.376 1_455 S
C1877 C1878 1.388 . S
C1878 H1865 0.930 . S
C1878 C1877 1.388 . S
C1878 C1879 1.390 . S
C1879 C1878 1.390 . S
C1879 C1880 1.394 1_455 S
C1879 C1885 1.465 . S
C1880 C1875 1.399 . S
C1880 C1879 1.394 1_655 S
C1880 C1881 1.516 . S
C1881 C1880 1.516 . S
C1881 C1882 1.502 . S
C1881 C1883 1.561 . S
C1881 C1884 1.526 . S
C1882 H1866 0.959 . S
C1882 H1867 0.959 . S
C1882 H1868 0.961 . S
C1882 C1881 1.502 . S
C1883 H1869 0.960 . S
C1883 H1870 0.961 . S
C1883 H1871 0.959 . S
C1883 C1881 1.561 . S
C1884 C1881 1.526 . S
C1884 C1885 1.396 1_655 S
C1884 C1889 1.390 . S
C1885 C1879 1.465 . S
C1885 C1884 1.396 1_455 S
C1885 C1886 1.399 . S
C1886 H1872 0.929 . S
C1886 C1885 1.399 . S
C1886 C1887 1.385 . S
C1887 H1873 0.931 . S
C1887 C1886 1.385 . S
C1887 C1888 1.389 1_455 S
C1888 C1887 1.389 1_655 S
C1888 C1889 1.387 . S
C1889 H1874 0.930 . S
C1889 C1884 1.390 . S
C1889 C1888 1.387 . S
H1890 C1902 0.930 . S
H1891 C1904 0.930 . S
H1892 C1905 0.930 . S
H1893 C1909 0.959 . S
H1894 C1909 0.959 . S
H1895 C1909 0.961 . S
H1896 C1910 0.960 1_556 S
H1897 C1910 0.961 . S
H1898 C1910 0.959 . S
H1899 C1913 0.929 . S
H1900 C1914 0.931 . S
H1901 C1916 0.930 . S
C1902 H1890 0.930 . S
C1902 C1903 1.399 . S
C1902 C1907 1.399 . S
C1903 C1902 1.399 . S
C1903 C1904 1.376 1_545 S
C1904 H1891 0.930 . S
C1904 C1903 1.376 1_565 S
C1904 C1905 1.388 . S
C1905 H1892 0.930 . S
C1905 C1904 1.388 . S
C1905 C1906 1.390 . S
C1906 C1905 1.390 . S
C1906 C1907 1.394 1_565 S
C1906 C1912 1.465 1_556 S
C1907 C1902 1.399 . S
C1907 C1906 1.394 1_545 S
C1907 C1908 1.516 . S
C1908 C1907 1.516 . S
C1908 C1909 1.502 . S
C1908 C1910 1.561 1_556 S
C1908 C1911 1.526 1_556 S
C1909 H1893 0.959 . S
C1909 H1894 0.959 . S
C1909 H1895 0.961 . S
C1909 C1908 1.502 . S
C1910 H1896 0.960 1_554 S
C1910 H1897 0.961 . S
C1910 H1898 0.959 . S
C1910 C1908 1.561 1_554 S
C1911 C1908 1.526 1_554 S
C1911 C1912 1.396 1_545 S
C1911 C1916 1.390 . S
C1912 C1906 1.465 1_554 S
C1912 C1911 1.396 1_565 S
C1912 C1913 1.399 . S
C1913 H1899 0.929 . S
C1913 C1912 1.399 . S
C1913 C1914 1.385 . S
C1914 H1900 0.931 . S
C1914 C1913 1.385 . S
C1914 C1915 1.389 1_565 S
C1915 C1914 1.389 1_545 S
C1915 C1916 1.387 . S
C1916 H1901 0.930 . S
C1916 C1911 1.390 . S
C1916 C1915 1.387 . S
H1917 C1929 0.930 . S
H1918 C1931 0.930 . S
H1919 C1932 0.930 . S
H1920 C1936 0.959 . S
H1921 C1936 0.959 . S
H1922 C1936 0.961 . S
H1923 C1937 0.960 1_554 S
H1924 C1937 0.961 . S
H1925 C1937 0.959 1_554 S
H1926 C1940 0.929 1_554 S
H1927 C1941 0.931 . S
H1928 C1943 0.930 . S
C1929 H1917 0.930 . S
C1929 C1930 1.399 . S
C1929 C1934 1.399 . S
C1930 C1929 1.399 . S
C1930 C1931 1.376 . S
C1931 H1918 0.930 . S
C1931 C1930 1.376 . S
C1931 C1932 1.388 . S
C1932 H1919 0.930 . S
C1932 C1931 1.388 . S
C1932 C1933 1.390 . S
C1933 C1932 1.390 . S
C1933 C1934 1.394 . S
C1933 C1939 1.465 1_554 S
C1934 C1929 1.399 . S
C1934 C1933 1.394 . S
C1934 C1935 1.516 1_554 S
C1935 C1934 1.516 1_556 S
C1935 C1936 1.502 . S
C1935 C1937 1.561 . S
C1935 C1938 1.526 . S
C1936 H1920 0.959 . S
C1936 H1921 0.959 . S
C1936 H1922 0.961 . S
C1936 C1935 1.502 . S
C1937 H1923 0.960 1_556 S
C1937 H1924 0.961 . S
C1937 H1925 0.959 1_556 S
C1937 C1935 1.561 . S
C1938 C1935 1.526 . S
C1938 C1939 1.396 . S
C1938 C1943 1.390 . S
C1939 C1933 1.465 1_556 S
C1939 C1938 1.396 . S
C1939 C1940 1.399 . S
C1940 H1926 0.929 1_556 S
C1940 C1939 1.399 . S
C1940 C1941 1.385 . S
C1941 H1927 0.931 . S
C1941 C1940 1.385 . S
C1941 C1942 1.389 . S
C1942 C1941 1.389 . S
C1942 C1943 1.387 . S
C1943 H1928 0.930 . S
C1943 C1938 1.390 . S
C1943 C1942 1.387 . S
H1944 C1956 0.930 . S
H1945 C1958 0.930 . S
H1946 C1959 0.930 . S
H1947 C1963 0.959 . S
H1948 C1963 0.959 . S
H1949 C1963 0.961 . S
H1950 C1964 0.960 . S
H1951 C1964 0.961 . S
H1952 C1964 0.959 . S
H1953 C1967 0.929 . S
H1954 C1968 0.931 . S
H1955 C1970 0.930 . S
C1956 H1944 0.930 . S
C1956 C1957 1.399 . S
C1956 C1961 1.399 . S
C1957 C1956 1.399 . S
C1957 C1958 1.376 1_565 S
C1958 H1945 0.930 . S
C1958 C1957 1.376 1_545 S
C1958 C1959 1.388 . S
C1959 H1946 0.930 . S
C1959 C1958 1.388 . S
C1959 C1960 1.390 . S
C1960 C1959 1.390 . S
C1960 C1961 1.394 1_545 S
C1960 C1966 1.465 . S
C1961 C1956 1.399 . S
C1961 C1960 1.394 1_565 S
C1961 C1962 1.516 . S
C1962 C1961 1.516 . S
C1962 C1963 1.502 . S
C1962 C1964 1.561 . S
C1962 C1965 1.526 . S
C1963 H1947 0.959 . S
C1963 H1948 0.959 . S
C1963 H1949 0.961 . S
C1963 C1962 1.502 . S
C1964 H1950 0.960 . S
C1964 H1951 0.961 . S
C1964 H1952 0.959 . S
C1964 C1962 1.561 . S
C1965 C1962 1.526 . S
C1965 C1966 1.396 1_565 S
C1965 C1970 1.390 . S
C1966 C1960 1.465 . S
C1966 C1965 1.396 1_545 S
C1966 C1967 1.399 . S
C1967 H1953 0.929 . S
C1967 C1966 1.399 . S
C1967 C1968 1.385 . S
C1968 H1954 0.931 . S
C1968 C1967 1.385 . S
C1968 C1969 1.389 1_545 S
C1969 C1968 1.389 1_565 S
C1969 C1970 1.387 . S
C1970 H1955 0.930 . S
C1970 C1965 1.390 . S
C1970 C1969 1.387 . S
H1971 C1983 0.930 . S
H1972 C1985 0.930 . S
H1973 C1986 0.930 . S
H1974 C1990 0.959 . S
H1975 C1990 0.959 . S
H1976 C1990 0.961 . S
H1977 C1991 0.960 . S
H1978 C1991 0.961 . S
H1979 C1991 0.959 . S
H1980 C1994 0.929 . S
H1981 C1995 0.931 . S
H1982 C1997 0.930 . S
C1983 H1971 0.930 . S
C1983 C1984 1.399 . S
C1983 C1988 1.399 . S
C1984 C1983 1.399 . S
C1984 C1985 1.376 . S
C1985 H1972 0.930 . S
C1985 C1984 1.376 . S
C1985 C1986 1.388 . S
C1986 H1973 0.930 . S
C1986 C1985 1.388 . S
C1986 C1987 1.390 . S
C1987 C1986 1.390 . S
C1987 C1988 1.394 . S
C1987 C1993 1.465 . S
C1988 C1983 1.399 . S
C1988 C1987 1.394 . S
C1988 C1989 1.516 . S
C1989 C1988 1.516 . S
C1989 C1990 1.502 . S
C1989 C1991 1.561 . S
C1989 C1992 1.526 . S
C1990 H1974 0.959 . S
C1990 H1975 0.959 . S
C1990 H1976 0.961 . S
C1990 C1989 1.502 . S
C1991 H1977 0.960 . S
C1991 H1978 0.961 . S
C1991 H1979 0.959 . S
C1991 C1989 1.561 . S
C1992 C1989 1.526 . S
C1992 C1993 1.396 . S
C1992 C1997 1.390 . S
C1993 C1987 1.465 . S
C1993 C1992 1.396 . S
C1993 C1994 1.399 . S
C1994 H1980 0.929 . S
C1994 C1993 1.399 . S
C1994 C1995 1.385 . S
C1995 H1981 0.931 . S
C1995 C1994 1.385 . S
C1995 C1996 1.389 . S
C1996 C1995 1.389 . S
C1996 C1997 1.387 . S
C1997 H1982 0.930 . S
C1997 C1992 1.390 . S
C1997 C1996 1.387 . S
H1998 C2010 0.930 . S
H1999 C2012 0.930 . S
H2000 C2013 0.929 1_655 S
H2001 C2017 0.959 1_655 S
H2002 C2017 0.959 . S
H2003 C2017 0.961 . S
H2004 C2018 0.960 . S
H2005 C2018 0.961 . S
H2006 C2018 0.959 1_554 S
H2007 C2021 0.929 . S
H2008 C2022 0.931 . S
H2009 C2024 0.930 . S
C2010 H1998 0.930 . S
C2010 C2011 1.399 1_556 S
C2010 C2015 1.399 . S
C2011 C2010 1.399 1_554 S
C2011 C2012 1.376 . S
C2012 H1999 0.930 . S
C2012 C2011 1.376 . S
C2012 C2013 1.388 . S
C2013 H2000 0.929 1_455 S
C2013 C2012 1.388 . S
C2013 C2014 1.390 . S
C2014 C2013 1.390 . S
C2014 C2015 1.394 1_554 S
C2014 C2020 1.465 1_455 S
C2015 C2010 1.399 . S
C2015 C2014 1.394 1_556 S
C2015 C2016 1.516 . S
C2016 C2015 1.516 . S
C2016 C2017 1.502 . S
C2016 C2018 1.561 . S
C2016 C2019 1.526 1_455 S
C2017 H2001 0.959 1_455 S
C2017 H2002 0.959 . S
C2017 H2003 0.961 . S
C2017 C2016 1.502 . S
C2018 H2004 0.960 . S
C2018 H2005 0.961 . S
C2018 H2006 0.959 1_556 S
C2018 C2016 1.561 . S
C2019 C2016 1.526 1_655 S
C2019 C2020 1.396 1_556 S
C2019 C2024 1.390 . S
C2020 C2014 1.465 1_655 S
C2020 C2019 1.396 1_554 S
C2020 C2021 1.399 . S
C2021 H2007 0.929 . S
C2021 C2020 1.399 . S
C2021 C2022 1.385 . S
C2022 H2008 0.931 . S
C2022 C2021 1.385 . S
C2022 C2023 1.389 . S
C2023 C2022 1.389 . S
C2023 C2024 1.387 1_554 S
C2024 H2009 0.930 . S
C2024 C2019 1.390 . S
C2024 C2023 1.387 1_556 S
H2025 C2037 0.930 . S
H2026 C2039 0.930 . S
H2027 C2040 0.964 . S
H2028 C2044 0.959 . S
H2029 C2044 0.959 . S
H2030 C2044 0.961 . S
H2031 C2045 0.960 . S
H2032 C2045 0.961 . S
H2033 C2045 0.959 . S
H2034 C2048 0.929 . S
H2035 C2049 0.931 . S
H2036 C2051 0.930 . S
C2037 H2025 0.930 . S
C2037 C2038 1.399 . S
C2037 C2042 1.399 . S
C2038 C2037 1.399 . S
C2038 C2039 1.376 . S
C2039 H2026 0.930 . S
C2039 C2038 1.376 . S
C2039 C2040 1.354 1_455 S
C2040 H2027 0.964 . S
C2040 C2039 1.354 1_655 S
C2040 C2041 1.390 . S
C2041 C2040 1.390 . S
C2041 C2042 1.369 1_655 S
C2041 C2047 1.486 . S
C2042 C2037 1.399 . S
C2042 C2041 1.369 1_455 S
C2042 C2043 1.516 . S
C2043 C2042 1.516 . S
C2043 C2044 1.502 . S
C2043 C2045 1.561 . S
C2043 C2046 1.526 1_455 S
C2044 H2028 0.959 . S
C2044 H2029 0.959 . S
C2044 H2030 0.961 . S
C2044 C2043 1.502 . S
C2045 H2031 0.960 . S
C2045 H2032 0.961 . S
C2045 H2033 0.959 . S
C2045 C2043 1.561 . S
C2046 C2043 1.526 1_655 S
C2046 C2047 1.396 . S
C2046 C2051 1.390 . S
C2047 C2041 1.486 . S
C2047 C2046 1.396 . S
C2047 C2048 1.399 . S
C2048 H2034 0.929 . S
C2048 C2047 1.399 . S
C2048 C2049 1.385 . S
C2049 H2035 0.931 . S
C2049 C2048 1.385 . S
C2049 C2050 1.389 . S
C2050 C2049 1.389 . S
C2050 C2051 1.387 . S
C2051 H2036 0.930 . S
C2051 C2046 1.390 . S
C2051 C2050 1.387 . S
H2052 C2064 0.930 . S
H2053 C2066 0.930 . S
H2054 C2067 0.930 . S
H2055 C2071 0.959 . S
H2056 C2071 0.959 . S
H2057 C2071 0.961 . S
H2058 C2072 0.960 . S
H2059 C2072 0.961 . S
H2060 C2072 0.959 . S
H2061 C2075 0.929 . S
H2062 C2076 0.931 . S
H2063 C2078 0.930 . S
C2064 H2052 0.930 . S
C2064 C2065 1.399 . S
C2064 C2069 1.399 . S
C2065 C2064 1.399 . S
C2065 C2066 1.376 . S
C2066 H2053 0.930 . S
C2066 C2065 1.376 . S
C2066 C2067 1.388 . S
C2067 H2054 0.930 . S
C2067 C2066 1.388 . S
C2067 C2068 1.390 . S
C2068 C2067 1.390 . S
C2068 C2069 1.394 . S
C2068 C2074 1.465 . S
C2069 C2064 1.399 . S
C2069 C2068 1.394 . S
C2069 C2070 1.516 . S
C2070 C2069 1.516 . S
C2070 C2071 1.502 . S
C2070 C2072 1.561 . S
C2070 C2073 1.526 . S
C2071 H2055 0.959 . S
C2071 H2056 0.959 . S
C2071 H2057 0.961 . S
C2071 C2070 1.502 . S
C2072 H2058 0.960 . S
C2072 H2059 0.961 . S
C2072 H2060 0.959 . S
C2072 C2070 1.561 . S
C2073 C2070 1.526 . S
C2073 C2074 1.396 . S
C2073 C2078 1.390 . S
C2074 C2068 1.465 . S
C2074 C2073 1.396 . S
C2074 C2075 1.399 . S
C2075 H2061 0.929 . S
C2075 C2074 1.399 . S
C2075 C2076 1.385 . S
C2076 H2062 0.931 . S
C2076 C2075 1.385 . S
C2076 C2077 1.389 . S
C2077 C2076 1.389 . S
C2077 C2078 1.387 . S
C2078 H2063 0.930 . S
C2078 C2073 1.390 . S
C2078 C2077 1.387 . S
H2079 C2091 0.930 . S
H2080 C2093 0.930 . S
H2081 C2094 0.930 . S
H2082 C2098 0.959 . S
H2083 C2098 0.959 . S
H2084 C2098 0.961 . S
H2085 C2099 0.960 . S
H2086 C2099 0.961 . S
H2087 C2099 0.959 . S
H2088 C2102 0.929 . S
H2089 C2103 0.931 . S
H2090 C2105 0.930 . S
C2091 H2079 0.930 . S
C2091 C2092 1.399 . S
C2091 C2096 1.399 . S
C2092 C2091 1.399 . S
C2092 C2093 1.376 . S
C2093 H2080 0.930 . S
C2093 C2092 1.376 . S
C2093 C2094 1.388 . S
C2094 H2081 0.930 . S
C2094 C2093 1.388 . S
C2094 C2095 1.390 . S
C2095 C2094 1.390 . S
C2095 C2096 1.394 . S
C2095 C2101 1.465 . S
C2096 C2091 1.399 . S
C2096 C2095 1.394 . S
C2096 C2097 1.516 . S
C2097 C2096 1.516 . S
C2097 C2098 1.502 . S
C2097 C2099 1.561 . S
C2097 C2100 1.526 . S
C2098 H2082 0.959 . S
C2098 H2083 0.959 . S
C2098 H2084 0.961 . S
C2098 C2097 1.502 . S
C2099 H2085 0.960 . S
C2099 H2086 0.961 . S
C2099 H2087 0.959 . S
C2099 C2097 1.561 . S
C2100 C2097 1.526 . S
C2100 C2101 1.396 . S
C2100 C2105 1.390 . S
C2101 C2095 1.465 . S
C2101 C2100 1.396 . S
C2101 C2102 1.399 . S
C2102 H2088 0.929 . S
C2102 C2101 1.399 . S
C2102 C2103 1.385 . S
C2103 H2089 0.931 . S
C2103 C2102 1.385 . S
C2103 C2104 1.389 . S
C2104 C2103 1.389 . S
C2104 C2105 1.387 . S
C2105 H2090 0.930 . S
C2105 C2100 1.390 . S
C2105 C2104 1.387 . S
H2106 C2118 0.930 . S
H2107 C2120 0.930 . S
H2108 C2121 0.930 . S
H2109 C2125 0.959 . S
H2110 C2125 0.959 . S
H2111 C2125 0.961 . S
H2112 C2126 0.960 . S
H2113 C2126 0.961 . S
H2114 C2126 0.959 . S
H2115 C2129 0.929 . S
H2116 C2130 0.931 . S
H2117 C2132 0.930 . S
C2118 H2106 0.930 . S
C2118 C2119 1.399 . S
C2118 C2123 1.399 . S
C2119 C2118 1.399 . S
C2119 C2120 1.376 . S
C2120 H2107 0.930 . S
C2120 C2119 1.376 . S
C2120 C2121 1.388 . S
C2121 H2108 0.930 . S
C2121 C2120 1.388 . S
C2121 C2122 1.390 . S
C2122 C2121 1.390 . S
C2122 C2123 1.394 . S
C2122 C2128 1.485 . S
C2123 C2118 1.399 . S
C2123 C2122 1.394 . S
C2123 C2124 1.516 1_565 S
C2124 C2123 1.516 1_545 S
C2124 C2125 1.502 . S
C2124 C2126 1.561 . S
C2124 C2127 1.526 . S
C2125 H2109 0.959 . S
C2125 H2110 0.959 . S
C2125 H2111 0.961 . S
C2125 C2124 1.502 . S
C2126 H2112 0.960 . S
C2126 H2113 0.961 . S
C2126 H2114 0.959 . S
C2126 C2124 1.561 . S
C2127 C2124 1.526 . S
C2127 C2128 1.372 1_545 S
C2127 C2132 1.390 . S
C2128 C2122 1.485 . S
C2128 C2127 1.372 1_565 S
C2128 C2129 1.400 . S
C2129 H2115 0.929 . S
C2129 C2128 1.400 . S
C2129 C2130 1.385 1_565 S
C2130 H2116 0.931 . S
C2130 C2129 1.385 1_545 S
C2130 C2131 1.389 . S
C2131 C2130 1.389 . S
C2131 C2132 1.387 . S
C2132 H2117 0.930 . S
C2132 C2127 1.390 . S
C2132 C2131 1.387 . S
H2133 C2145 0.930 . S
H2134 C2147 0.930 . S
H2135 C2148 0.930 . S
H2136 C2152 0.959 . S
H2137 C2152 0.959 . S
H2138 C2152 0.961 . S
H2139 C2153 0.960 . S
H2140 C2153 0.961 . S
H2141 C2153 0.959 . S
H2142 C2156 0.929 . S
H2143 C2157 0.931 . S
H2144 C2159 0.930 . S
C2145 H2133 0.930 . S
C2145 C2146 1.399 . S
C2145 C2150 1.399 . S
C2146 C2145 1.399 . S
C2146 C2147 1.376 1_556 S
C2147 H2134 0.930 . S
C2147 C2146 1.376 1_554 S
C2147 C2148 1.388 . S
C2148 H2135 0.930 . S
C2148 C2147 1.388 . S
C2148 C2149 1.390 . S
C2149 C2148 1.390 . S
C2149 C2150 1.394 1_554 S
C2149 C2155 1.465 . S
C2150 C2145 1.399 . S
C2150 C2149 1.394 1_556 S
C2150 C2151 1.516 . S
C2151 C2150 1.516 . S
C2151 C2152 1.502 . S
C2151 C2153 1.561 . S
C2151 C2154 1.526 . S
C2152 H2136 0.959 . S
C2152 H2137 0.959 . S
C2152 H2138 0.961 . S
C2152 C2151 1.502 . S
C2153 H2139 0.960 . S
C2153 H2140 0.961 . S
C2153 H2141 0.959 . S
C2153 C2151 1.561 . S
C2154 C2151 1.526 . S
C2154 C2155 1.396 1_556 S
C2154 C2159 1.390 . S
C2155 C2149 1.465 . S
C2155 C2154 1.396 1_554 S
C2155 C2156 1.399 . S
C2156 H2142 0.929 . S
C2156 C2155 1.399 . S
C2156 C2157 1.385 . S
C2157 H2143 0.931 . S
C2157 C2156 1.385 . S
C2157 C2158 1.389 1_554 S
C2158 C2157 1.389 1_556 S
C2158 C2159 1.387 . S
C2159 H2144 0.930 . S
C2159 C2154 1.390 . S
C2159 C2158 1.387 . S
C877 C615 0.621 . S
C889 C2 0.516 . S
C904 C38 0.615 . S
C916 C579 0.612 . S
C931 C74 0.784 . S
C943 C687 0.785 . S
C958 C110 0.770 . S
C970 C651 0.771 . S
C985 C146 0.688 . S
C997 C759 0.576 . S
C1012 C182 0.636 . S
C1024 C795 0.664 . S
C1039 C723 0.774 . S
C1051 C218 0.619 . S
C1066 C399 0.795 . S
C1078 C254 0.707 . S
C1093 C290 0.688 . S
C1105 C111 0.580 . S
C1120 C39 0.634 . S
C1132 C326 0.697 . S
C1147 C362 0.816 . S
C1159 C3 0.899 . S
C1174 C398 0.707 . S
C1186 C507 0.788 . S
C1201 C183 0.950 . S
C1213 C434 0.888 . S
C1228 C147 0.863 . S
C1240 C470 0.810 . S
C1255 C506 0.762 . S
C1267 C255 0.705 . S
C1282 C542 0.747 . S
C1294 C219 0.749 . S
C1309 C327 0.979 . S
C1321 C578 0.893 . S
C1336 C363 0.903 . S
C1348 C614 0.786 . S
C1363 C291 0.916 . S
C1375 C650 0.841 . S
C1390 C686 0.775 . S
C1402 C831 0.680 . S
C1417 C543 0.898 . S
C1429 C722 0.907 . S
C1444 C758 0.900 . S
C1456 C471 0.784 . S
C1471 C435 0.714 . S
C1483 C794 0.573 . S
C1498 C830 0.794 . S
C1510 C75 0.694 . S
C1525 C4 1.721 . S
C1537 C40 1.683 . S
C1552 C112 1.619 . S
C1564 C76 1.599 . S
C1579 C148 1.732 . S
C1591 C220 1.683 . S
C1606 C184 1.864 . S
C1618 C256 1.917 . S
C1633 C796 1.698 . S
C1645 C292 1.723 . S
C1660 C328 1.917 . S
C1672 C400 1.861 . S
C1687 C724 1.832 . S
C1699 C364 1.802 . S
C1714 C472 1.849 . S
C1726 C436 1.782 . S
C1741 C508 1.905 . S
C1753 C544 1.876 . S
C1768 C652 1.787 . S
C1780 C580 1.847 . S
C1795 C616 1.583 . S
C1807 C688 1.631 . S
C1822 C832 1.620 . S
C1834 C760 1.609 . S
C1849 C86 1.215 . S
C1861 C14 1.188 . S
C1876 C50 1.439 . S
C1888 C122 1.455 . S
C1903 C698 1.199 . S
C1915 C158 1.217 . S
C1930 C194 1.348 . S
C1942 C662 1.335 . S
C1957 C230 1.435 . S
C1969 C626 1.455 . S
C1984 C590 1.609 . S
C1996 C266 1.620 . S
C2011 C302 1.160 . S
C2023 C842 1.179 . S
C2038 C338 1.343 . S
C2050 C374 1.377 . S
C2065 C734 1.599 . S
C2077 C410 1.617 . S
C2092 C446 1.581 . S
C2104 C518 1.595 . S
C2119 C482 1.382 . S
C2131 C554 1.351 . S
C2146 C806 1.445 . S
C2158 C770 1.453 . S
