# Generated by pormake.
# Topology ukk, (4)-cn, num edge types: 1
# Building blocks:
#     Node 0, Type 0, BuildingBlock: QUQFOY_clean_sbu_1, # of connection points: 4
#     Node 1, Type 0, BuildingBlock: QUQFOY_clean_sbu_1, # of connection points: 4
#     Node 2, Type 0, BuildingBlock: QUQFOY_clean_sbu_1, # of connection points: 4
#     Node 3, Type 0, BuildingBlock: QUQFOY_clean_sbu_1, # of connection points: 4
#     Node 4, Type 0, BuildingBlock: QUQFOY_clean_sbu_1, # of connection points: 4
#     Node 5, Type 0, BuildingBlock: QUQFOY_clean_sbu_1, # of connection points: 4
#     Node 6, Type 0, BuildingBlock: QUQFOY_clean_sbu_1, # of connection points: 4
#     Node 7, Type 0, BuildingBlock: QUQFOY_clean_sbu_1, # of connection points: 4
#     Node 8, Type 0, BuildingBlock: QUQFOY_clean_sbu_1, # of connection points: 4
#     Node 9, Type 0, BuildingBlock: QUQFOY_clean_sbu_1, # of connection points: 4
#     Node 10, Type 0, BuildingBlock: QUQFOY_clean_sbu_1, # of connection points: 4
#     Node 11, Type 0, BuildingBlock: QUQFOY_clean_sbu_1, # of connection points: 4
#     Node 12, Type 0, BuildingBlock: QUQFOY_clean_sbu_1, # of connection points: 4
#     Node 13, Type 0, BuildingBlock: QUQFOY_clean_sbu_1, # of connection points: 4
#     Node 14, Type 0, BuildingBlock: QUQFOY_clean_sbu_1, # of connection points: 4
#     Node 15, Type 0, BuildingBlock: QUQFOY_clean_sbu_1, # of connection points: 4
#     Edge 16, Type (0, 0), BuildingBlock: MIFKUJ_clean_linker_0, # of connection points: 2
#     Edge 17, Type (0, 0), BuildingBlock: MIFKUJ_clean_linker_0, # of connection points: 2
#     Edge 18, Type (0, 0), BuildingBlock: MIFKUJ_clean_linker_0, # of connection points: 2
#     Edge 19, Type (0, 0), BuildingBlock: MIFKUJ_clean_linker_0, # of connection points: 2
#     Edge 20, Type (0, 0), BuildingBlock: MIFKUJ_clean_linker_0, # of connection points: 2
#     Edge 21, Type (0, 0), BuildingBlock: MIFKUJ_clean_linker_0, # of connection points: 2
#     Edge 22, Type (0, 0), BuildingBlock: MIFKUJ_clean_linker_0, # of connection points: 2
#     Edge 23, Type (0, 0), BuildingBlock: MIFKUJ_clean_linker_0, # of connection points: 2
#     Edge 24, Type (0, 0), BuildingBlock: MIFKUJ_clean_linker_0, # of connection points: 2
#     Edge 25, Type (0, 0), BuildingBlock: MIFKUJ_clean_linker_0, # of connection points: 2
#     Edge 26, Type (0, 0), BuildingBlock: MIFKUJ_clean_linker_0, # of connection points: 2
#     Edge 27, Type (0, 0), BuildingBlock: MIFKUJ_clean_linker_0, # of connection points: 2
#     Edge 28, Type (0, 0), BuildingBlock: MIFKUJ_clean_linker_0, # of connection points: 2
#     Edge 29, Type (0, 0), BuildingBlock: MIFKUJ_clean_linker_0, # of connection points: 2
#     Edge 30, Type (0, 0), BuildingBlock: MIFKUJ_clean_linker_0, # of connection points: 2
#     Edge 31, Type (0, 0), BuildingBlock: MIFKUJ_clean_linker_0, # of connection points: 2
#     Edge 32, Type (0, 0), BuildingBlock: MIFKUJ_clean_linker_0, # of connection points: 2
#     Edge 33, Type (0, 0), BuildingBlock: MIFKUJ_clean_linker_0, # of connection points: 2
#     Edge 34, Type (0, 0), BuildingBlock: MIFKUJ_clean_linker_0, # of connection points: 2
#     Edge 35, Type (0, 0), BuildingBlock: MIFKUJ_clean_linker_0, # of connection points: 2
#     Edge 36, Type (0, 0), BuildingBlock: MIFKUJ_clean_linker_0, # of connection points: 2
#     Edge 37, Type (0, 0), BuildingBlock: MIFKUJ_clean_linker_0, # of connection points: 2
#     Edge 38, Type (0, 0), BuildingBlock: MIFKUJ_clean_linker_0, # of connection points: 2
#     Edge 39, Type (0, 0), BuildingBlock: MIFKUJ_clean_linker_0, # of connection points: 2
#     Edge 40, Type (0, 0), BuildingBlock: MIFKUJ_clean_linker_0, # of connection points: 2
#     Edge 41, Type (0, 0), BuildingBlock: MIFKUJ_clean_linker_0, # of connection points: 2
#     Edge 42, Type (0, 0), BuildingBlock: MIFKUJ_clean_linker_0, # of connection points: 2
#     Edge 43, Type (0, 0), BuildingBlock: MIFKUJ_clean_linker_0, # of connection points: 2
#     Edge 44, Type (0, 0), BuildingBlock: MIFKUJ_clean_linker_0, # of connection points: 2
#     Edge 45, Type (0, 0), BuildingBlock: MIFKUJ_clean_linker_0, # of connection points: 2
#     Edge 46, Type (0, 0), BuildingBlock: MIFKUJ_clean_linker_0, # of connection points: 2
#     Edge 47, Type (0, 0), BuildingBlock: MIFKUJ_clean_linker_0, # of connection points: 2
# Relax obj value: 0.045
# Max RMSD: 0.183
# Mean RMSD: 0.183
data_MOF--net-ukk--node1-QUQFOY_clean_sbu_1--edge1-MIFKUJ_clean_linker_0
_symmetry_space_group_name_H-M    P1
_symmetry_Int_Tables_number       1
_symmetry_cell_setting            triclinic
loop_
_symmetry_equiv_pos_as_xyz
'x, y, z'
_cell_length_a     66.83004
_cell_length_b     66.819357
_cell_length_c     31.374485
_cell_angle_alpha  90.019471
_cell_angle_beta   90.061815
_cell_angle_gamma 90.010471
loop_
_atom_site_label
_atom_site_type_symbol
_atom_site_fract_x
_atom_site_fract_y
_atom_site_fract_z
_atom_type_partial_charge
O0 O 0.34137 0.1412 0.09523 0.0
Cd1 Cd 0.35314 0.11377 0.08045 0.0
Cd2 Cd 0.34706 0.10931 0.16539 0.0
O3 O 0.32943 0.13486 0.15936 0.0
O4 O 0.34762 0.11158 0.01787 0.0
O5 O 0.33253 0.09271 0.06596 0.0
C6 C 0.33382 0.09873 0.02686 0.0
C7 C 0.33955 0.08084 0.20596 0.0
C8 C 0.33116 0.1465 0.12741 0.0
C9 C 0.38984 0.1128 0.13298 0.0
O10 O 0.37743 0.11395 0.16353 0.0
O11 O 0.3836 0.11051 0.09484 0.0
O12 O 0.34345 0.09781 0.22372 0.0
O13 O 0.33804 0.08046 0.16488 0.0
O14 O 0.14198 0.67213 0.91332 0.0
Cd15 Cd 0.11498 0.65885 0.92672 0.0
Cd16 Cd 0.11121 0.66522 0.84341 0.0
O17 O 0.13512 0.6849 0.85012 0.0
O18 O 0.11214 0.66352 0.98954 0.0
O19 O 0.09308 0.67848 0.94157 0.0
C20 C 0.09889 0.67697 0.98079 0.0
C21 C 0.08037 0.67023 0.8096 0.0
C22 C 0.14679 0.68321 0.88206 0.0
C23 C 0.11764 0.62276 0.87278 0.0
O24 O 0.11926 0.63566 0.84325 0.0
O25 O 0.11304 0.62836 0.91044 0.0
O26 O 0.09676 0.66901 0.78796 0.0
O27 O 0.08178 0.67054 0.85073 0.0
O28 O 0.67112 0.86076 0.09915 0.0
Cd29 Cd 0.65677 0.88694 0.0832 0.0
Cd30 Cd 0.66296 0.89223 0.16715 0.0
O31 O 0.68279 0.86838 0.16296 0.0
O32 O 0.66104 0.88819 0.02001 0.0
O33 O 0.67513 0.90943 0.06488 0.0
C34 C 0.67371 0.90245 0.02654 0.0
C35 C 0.66789 0.92315 0.20077 0.0
C36 C 0.68182 0.85644 0.13136 0.0
C37 C 0.62063 0.88438 0.13725 0.0
O38 O 0.63347 0.88398 0.16713 0.0
O39 O 0.6262 0.88802 0.09911 0.0
O40 O 0.66622 0.90684 0.22249 0.0
O41 O 0.66857 0.92165 0.15968 0.0
O42 O 0.86443 0.33228 0.88741 0.0
Cd43 Cd 0.88942 0.3474 0.90806 0.0
Cd44 Cd 0.89691 0.34311 0.82142 0.0
O45 O 0.87267 0.32367 0.82169 0.0
O46 O 0.88823 0.34256 0.97112 0.0
O47 O 0.91174 0.32966 0.93009 0.0
C48 C 0.90318 0.33049 0.967 0.0
C49 C 0.927 0.3383 0.78418 0.0
C50 C 0.86062 0.32295 0.85306 0.0
C51 C 0.88816 0.38483 0.85671 0.0
O52 O 0.88951 0.37282 0.82543 0.0
O53 O 0.8898 0.37828 0.89479 0.0
O54 O 0.91039 0.34172 0.76452 0.0
O55 O 0.92627 0.33597 0.82506 0.0
O56 O 0.34338 0.36016 0.15102 0.0
Cd57 Cd 0.35755 0.3864 0.16694 0.0
Cd58 Cd 0.35152 0.392 0.08239 0.0
O59 O 0.33271 0.36727 0.08615 0.0
O60 O 0.3531 0.38789 0.23003 0.0
O61 O 0.339 0.40882 0.18451 0.0
C62 C 0.34036 0.40204 0.22303 0.0
C63 C 0.34462 0.42246 0.0486 0.0
C64 C 0.33326 0.35557 0.11815 0.0
C65 C 0.39411 0.38562 0.11318 0.0
O66 O 0.38155 0.38565 0.08274 0.0
O67 O 0.38811 0.38779 0.15152 0.0
O68 O 0.34752 0.40628 0.027 0.0
O69 O 0.34397 0.42099 0.08968 0.0
O70 O 0.36073 0.66812 0.85095 0.0
Cd71 Cd 0.38808 0.6556 0.83727 0.0
Cd72 Cd 0.39256 0.66178 0.92041 0.0
O73 O 0.36825 0.68098 0.91376 0.0
O74 O 0.39252 0.66083 0.77494 0.0
O75 O 0.40953 0.67611 0.82603 0.0
C76 C 0.40512 0.67455 0.78601 0.0
C77 C 0.42306 0.66764 0.95506 0.0
C78 C 0.35614 0.6791 0.88256 0.0
C79 C 0.38679 0.61928 0.89082 0.0
O80 O 0.38528 0.63199 0.92076 0.0
O81 O 0.39072 0.62518 0.85305 0.0
O82 O 0.4066 0.66589 0.97624 0.0
O83 O 0.42187 0.66795 0.91391 0.0
O84 O 0.66508 0.64381 0.16624 0.0
Cd85 Cd 0.65224 0.6168 0.18109 0.0
Cd86 Cd 0.65905 0.61083 0.09839 0.0
O87 O 0.6783 0.63523 0.10443 0.0
O88 O 0.65766 0.61289 0.24357 0.0
O89 O 0.67266 0.59533 0.19303 0.0
C90 C 0.67135 0.60019 0.23286 0.0
C91 C 0.66524 0.58025 0.06407 0.0
C92 C 0.67636 0.64779 0.13477 0.0
C93 C 0.61629 0.61735 0.12595 0.0
O94 O 0.62926 0.61807 0.09641 0.0
O95 O 0.62185 0.61429 0.16437 0.0
O96 O 0.66374 0.59672 0.04285 0.0
O97 O 0.66502 0.5814 0.1052 0.0
O98 O 0.64733 0.34146 0.83147 0.0
Cd99 Cd 0.61947 0.35331 0.82046 0.0
Cd100 Cd 0.61772 0.34859 0.9046 0.0
O101 O 0.64174 0.3292 0.89559 0.0
O102 O 0.61425 0.34763 0.75849 0.0
O103 O 0.59825 0.33229 0.81077 0.0
C104 C 0.60214 0.33367 0.7705 0.0
C105 C 0.58767 0.34217 0.94028 0.0
C106 C 0.65289 0.33078 0.86282 0.0
C107 C 0.62177 0.39048 0.87185 0.0
O108 O 0.62473 0.37853 0.90266 0.0
O109 O 0.61674 0.38385 0.83521 0.0
O110 O 0.60426 0.34435 0.96094 0.0
O111 O 0.58848 0.34201 0.89909 0.0
O112 O 0.83869 0.64218 0.59306 0.0
Cd113 Cd 0.85233 0.61525 0.5814 0.0
Cd114 Cd 0.84512 0.61138 0.66473 0.0
O115 O 0.82548 0.63528 0.65588 0.0
O116 O 0.84758 0.61032 0.519 0.0
O117 O 0.83241 0.59329 0.57008 0.0
C118 C 0.83391 0.59766 0.53005 0.0
C119 C 0.83932 0.58044 0.69757 0.0
C120 C 0.82719 0.64683 0.62374 0.0
C121 C 0.88795 0.61763 0.63769 0.0
O122 O 0.87482 0.61901 0.66681 0.0
O123 O 0.88263 0.61361 0.59951 0.0
O124 O 0.84035 0.59673 0.71966 0.0
O125 O 0.83967 0.58204 0.6565 0.0
O126 O 0.64195 0.16659 0.41322 0.0
Cd127 Cd 0.61497 0.1528 0.42364 0.0
Cd128 Cd 0.61163 0.16044 0.3409 0.0
O129 O 0.63498 0.18053 0.35117 0.0
O130 O 0.60969 0.15718 0.48598 0.0
O131 O 0.59296 0.17265 0.43478 0.0
C132 C 0.59713 0.17094 0.47488 0.0
C133 C 0.58084 0.16577 0.30738 0.0
C134 C 0.6465 0.17856 0.3833 0.0
C135 C 0.61805 0.11758 0.36662 0.0
O136 O 0.61988 0.13093 0.33805 0.0
O137 O 0.61337 0.12264 0.40461 0.0
O138 O 0.59728 0.16551 0.28579 0.0
O139 O 0.58214 0.16495 0.34847 0.0
O140 O 0.17603 0.36406 0.60888 0.0
Cd141 Cd 0.16137 0.38772 0.58134 0.0
Cd142 Cd 0.15818 0.39686 0.67057 0.0
O143 O 0.17627 0.3717 0.67749 0.0
O144 O 0.16924 0.38453 0.51997 0.0
O145 O 0.17882 0.41027 0.55895 0.0
C146 C 0.17997 0.40048 0.52351 0.0
C147 C 0.16209 0.42662 0.70952 0.0
C148 C 0.18108 0.36008 0.64698 0.0
C149 C 0.12013 0.38799 0.61992 0.0
O150 O 0.12877 0.39146 0.65522 0.0
O151 O 0.13007 0.38669 0.58534 0.0
O152 O 0.1561 0.41033 0.72746 0.0
O153 O 0.16728 0.42568 0.66988 0.0
O154 O 0.36435 0.8407 0.41548 0.0
Cd155 Cd 0.39108 0.85357 0.43207 0.0
Cd156 Cd 0.39628 0.85018 0.34587 0.0
O157 O 0.37066 0.83244 0.34863 0.0
O158 O 0.39402 0.84747 0.49441 0.0
O159 O 0.41303 0.8337 0.44476 0.0
C160 C 0.40748 0.83447 0.48422 0.0
C161 C 0.42573 0.84316 0.30834 0.0
C162 C 0.35918 0.83211 0.38105 0.0
C163 C 0.39148 0.89178 0.38335 0.0
O164 O 0.39163 0.88045 0.35085 0.0
O165 O 0.3928 0.88441 0.42075 0.0
O166 O 0.4093 0.84743 0.28871 0.0
O167 O 0.42499 0.84111 0.3493 0.0
O168 O 0.83655 0.8594 0.65052 0.0
Cd169 Cd 0.85006 0.88593 0.66673 0.0
Cd170 Cd 0.84348 0.89209 0.58293 0.0
O171 O 0.8246 0.86735 0.58721 0.0
O172 O 0.84563 0.88727 0.72988 0.0
O173 O 0.83117 0.90805 0.68457 0.0
C174 C 0.83271 0.90128 0.72305 0.0
C175 C 0.83673 0.92299 0.55097 0.0
C176 C 0.82593 0.8551 0.61819 0.0
C177 C 0.88626 0.88598 0.61189 0.0
O178 O 0.87353 0.88577 0.58177 0.0
O179 O 0.88046 0.888 0.65042 0.0
O180 O 0.83867 0.90695 0.52841 0.0
O181 O 0.83679 0.92113 0.59201 0.0
O182 O 0.85777 0.16773 0.34839 0.0
Cd183 Cd 0.88365 0.15387 0.32905 0.0
Cd184 Cd 0.89127 0.15885 0.41399 0.0
O185 O 0.86653 0.17781 0.41276 0.0
O186 O 0.88403 0.15923 0.26613 0.0
O187 O 0.90594 0.17248 0.3107 0.0
C188 C 0.89852 0.17165 0.27265 0.0
C189 C 0.92175 0.16469 0.44892 0.0
C190 C 0.85397 0.17751 0.38217 0.0
C191 C 0.8841 0.11665 0.38084 0.0
O192 O 0.88496 0.12881 0.41193 0.0
O193 O 0.88518 0.12312 0.34262 0.0
O194 O 0.90545 0.16165 0.46994 0.0
O195 O 0.9204 0.16625 0.40793 0.0
O196 O 0.16184 0.14676 0.67289 0.0
Cd197 Cd 0.15017 0.11873 0.68252 0.0
Cd198 Cd 0.15953 0.11617 0.60118 0.0
O199 O 0.17827 0.14042 0.61355 0.0
O200 O 0.15405 0.11403 0.74516 0.0
O201 O 0.17106 0.09783 0.69556 0.0
C202 C 0.16853 0.10206 0.73543 0.0
C203 C 0.16691 0.08601 0.56682 0.0
C204 C 0.1744 0.15205 0.64469 0.0
C205 C 0.11591 0.11996 0.62354 0.0
O206 O 0.12966 0.12294 0.59631 0.0
O207 O 0.12052 0.11509 0.66166 0.0
O208 O 0.16607 0.10263 0.54589 0.0
O209 O 0.16552 0.08688 0.60789 0.0
O210 O 0.14536 0.84668 0.34304 0.0
Cd211 Cd 0.11848 0.85967 0.32784 0.0
Cd212 Cd 0.11246 0.85252 0.41085 0.0
O213 O 0.13739 0.83401 0.4057 0.0
O214 O 0.11589 0.855 0.26487 0.0
O215 O 0.0968 0.83986 0.31247 0.0
C216 C 0.10263 0.84151 0.27332 0.0
C217 C 0.08165 0.84502 0.44236 0.0
C218 C 0.1497 0.83581 0.37494 0.0
C219 C 0.11816 0.89553 0.38369 0.0
O220 O 0.11855 0.88258 0.41332 0.0
O221 O 0.11598 0.88998 0.345 0.0
O222 O 0.09763 0.84706 0.46509 0.0
O223 O 0.08354 0.84547 0.40135 0.0
H224 H 0.36965 0.91825 0.43168 0.0
H225 H 0.35926 0.95222 0.4107 0.0
H226 H 0.39528 0.94773 0.29714 0.0
H227 H 0.40537 0.91394 0.3175 0.0
H228 H 0.39746 0.98551 0.33487 0.0
H229 H 0.34769 0.93661 0.29117 0.0
H230 H 0.32321 0.90969 0.3044 0.0
H231 H 0.28996 0.94853 0.38721 0.0
H232 H 0.31444 0.9756 0.37498 0.0
H233 H 0.33205 0.04242 0.17903 0.0
H234 H 0.33864 0.01142 0.21844 0.0
H235 H 0.35479 0.04581 0.32951 0.0
H236 H 0.34807 0.07678 0.29071 0.0
H237 H 0.32564 0.99405 0.29854 0.0
H238 H 0.39956 0.02476 0.36456 0.0
H239 H 0.42422 0.05122 0.34859 0.0
H240 H 0.40949 0.04762 0.21555 0.0
H241 H 0.38502 0.02092 0.23067 0.0
C242 C 0.37573 0.92476 0.40286 0.0
C243 C 0.38831 0.91347 0.37622 0.0
C244 C 0.36967 0.94408 0.39073 0.0
C245 C 0.37636 0.95244 0.35213 0.0
C246 C 0.38992 0.94162 0.32701 0.0
C247 C 0.39567 0.92229 0.33869 0.0
C248 C 0.36832 0.97175 0.33584 0.0
C249 C 0.38172 0.98745 0.32748 0.0
C250 C 0.34781 0.97423 0.32554 0.0
C251 C 0.33301 0.95804 0.33255 0.0
C252 C 0.33525 0.93935 0.31247 0.0
C253 C 0.32136 0.92408 0.31975 0.0
C254 C 0.30507 0.92738 0.34671 0.0
C255 C 0.3026 0.94598 0.36639 0.0
C256 C 0.31648 0.96129 0.3593 0.0
C257 C 0.33651 0.04339 0.21217 0.0
C258 C 0.33965 0.06212 0.23156 0.0
C259 C 0.34025 0.02564 0.23468 0.0
C260 C 0.34741 0.02632 0.27677 0.0
C261 C 0.34939 0.04494 0.29699 0.0
C262 C 0.34548 0.06265 0.2747 0.0
C263 C 0.35477 0.00779 0.29791 0.0
C264 C 0.34129 0.99224 0.30686 0.0
C265 C 0.37524 0.00536 0.30852 0.0
C266 C 0.3903 0.02102 0.29886 0.0
C267 C 0.40166 0.02956 0.3319 0.0
C268 C 0.4156 0.0446 0.32299 0.0
C269 C 0.41836 0.05115 0.2811 0.0
C270 C 0.40728 0.04259 0.248 0.0
C271 C 0.39337 0.02751 0.25673 0.0
H272 H 0.42912 0.06283 0.27429 0.0
H273 H 0.29431 0.91556 0.35225 0.0
H274 H 0.07253 0.66992 0.72376 0.0
H275 H 0.04088 0.66165 0.68861 0.0
H276 H 0.0119 0.65781 0.81105 0.0
H277 H 0.04348 0.66605 0.84643 0.0
H278 H 0.0052 0.62459 0.76237 0.0
H279 H 1.00199 0.69617 0.74314 0.0
H280 H 0.01435 0.72908 0.71925 0.0
H281 H 0.01652 0.70792 0.59009 0.0
H282 H 0.00443 0.67478 0.61332 0.0
H283 H 0.90327 0.6209 0.71762 0.0
H284 H 0.93697 0.62974 0.73909 0.0
H285 H 0.95512 0.63228 0.60736 0.0
H286 H 0.92079 0.62364 0.58516 0.0
H287 H 0.96949 0.66432 0.65253 0.0
H288 H 0.97054 0.59377 0.66964 0.0
H289 H 0.95839 0.5606 0.69228 0.0
H290 H 0.96119 0.57895 0.82331 0.0
H291 H 0.97308 0.61235 0.80145 0.0
C292 C 0.05934 0.66772 0.74321 0.0
C293 C 0.06059 0.66866 0.788 0.0
C294 C 0.04122 0.66297 0.72301 0.0
C295 C 0.02397 0.65904 0.74713 0.0
C296 C 0.02501 0.6607 0.79173 0.0
C297 C 0.04308 0.66556 0.81194 0.0
C298 C 0.00515 0.65198 0.72632 0.0
C299 C 0.99728 0.63339 0.73869 0.0
C300 C 0.99525 0.66302 0.69402 0.0
C301 C 1.00253 0.68293 0.68004 0.0
C302 C 0.00528 0.69848 0.7097 0.0
C303 C 0.0122 0.71718 0.69627 0.0
C304 C 0.01628 0.72057 0.6532 0.0
C305 C 0.01339 0.70527 0.62345 0.0
C306 C 0.00649 0.68652 0.63673 0.0
C307 C 0.91435 0.62319 0.69293 0.0
C308 C 0.90921 0.6215 0.64951 0.0
C309 C 0.93375 0.62818 0.70541 0.0
C310 C 0.94874 0.63147 0.67498 0.0
C311 C 0.94382 0.62974 0.63148 0.0
C312 C 0.92424 0.62468 0.61882 0.0
C313 C 0.96926 0.63716 0.68946 0.0
C314 C 0.9775 0.65542 0.67588 0.0
C315 C 0.97965 0.62574 0.72046 0.0
C316 C 0.97258 0.60563 0.73385 0.0
C317 C 0.96843 0.59079 0.70327 0.0
C318 C 0.96161 0.57193 0.71597 0.0
C319 C 0.95899 0.56768 0.7592 0.0
C320 C 0.96322 0.58227 0.78983 0.0
C321 C 0.97003 0.60116 0.7773 0.0
H322 H 0.9537 0.55308 0.76897 0.0
H323 H 0.02162 0.73507 0.64286 0.0
H324 H 0.66772 0.96035 0.16389 0.0
H325 H 0.66103 0.99245 0.19843 0.0
H326 H 0.65812 0.96307 0.32063 0.0
H327 H 0.66454 0.93085 0.28621 0.0
H328 H 0.62708 0.98767 0.31135 0.0
H329 H 0.69779 0.99358 0.29433 0.0
H330 H 0.73 0.99269 0.25613 0.0
H331 H 0.70958 0.03896 0.17172 0.0
H332 H 0.67713 0.03995 0.20905 0.0
H333 H 0.62119 0.08412 0.41852 0.0
H334 H 0.63101 0.05009 0.39686 0.0
H335 H 0.63448 0.06946 0.26599 0.0
H336 H 0.62484 0.10304 0.28699 0.0
H337 H 0.66744 0.04897 0.28809 0.0
H338 H 0.59584 0.04076 0.30112 0.0
H339 H 0.56345 0.04143 0.33867 0.0
H340 H 0.5858 0.99954 0.43091 0.0
H341 H 0.61842 0.99879 0.39413 0.0
C342 C 0.66601 0.96074 0.1982 0.0
C343 C 0.66675 0.94298 0.22222 0.0
C344 C 0.66218 0.97915 0.21798 0.0
C345 C 0.65915 0.98027 0.26229 0.0
C346 C 0.66036 0.96263 0.28646 0.0
C347 C 0.66418 0.94421 0.2667 0.0
C348 C 0.65386 0.99971 0.28295 0.0
C349 C 0.63613 1.00099 0.30691 0.0
C350 C 0.66544 0.01722 0.27679 0.0
C351 C 0.68496 0.01672 0.25431 0.0
C352 C 0.70011 0.00346 0.26743 0.0
C353 C 0.71842 1.00296 0.24596 0.0
C354 C 0.72182 0.01573 0.21146 0.0
C355 C 0.70692 0.02907 0.19843 0.0
C356 C 0.68857 0.02962 0.21977 0.0
C357 C 0.62386 0.08104 0.38512 0.0
C358 C 0.62231 0.09642 0.35464 0.0
C359 C 0.62948 0.06159 0.37275 0.0
C360 C 0.6336 0.0572 0.32973 0.0
C361 C 0.6316 0.07245 0.29937 0.0
C362 C 0.62599 0.09172 0.31156 0.0
C363 C 0.64048 0.03701 0.31568 0.0
C364 C 0.65854 0.03558 0.29297 0.0
C365 C 0.62921 0.01941 0.32301 0.0
C366 C 0.60965 0.01992 0.34521 0.0
C367 C 0.59391 0.03184 0.32964 0.0
C368 C 0.5755 0.0322 0.35073 0.0
C369 C 0.5726 0.0206 0.38725 0.0
C370 C 0.58809 0.00856 0.40268 0.0
C371 C 0.60653 0.00814 0.38171 0.0
H372 H 0.55833 0.0209 0.40352 0.0
H373 H 0.73601 0.01532 0.19488 0.0
H374 H 0.10131 0.35312 0.60029 0.0
H375 H 0.06734 0.3435 0.6212 0.0
H376 H 0.05633 0.40384 0.6647 0.0
H377 H 0.09074 0.41291 0.64648 0.0
H378 H 0.04476 0.38174 0.72208 0.0
H379 H 0.03237 0.38004 0.57255 0.0
H380 H 0.03782 0.37083 0.49733 0.0
H381 H 0.0301 0.30873 0.52848 0.0
H382 H 0.02485 0.31756 0.60401 0.0
H383 H 0.93329 0.34999 0.70186 0.0
H384 H 0.96517 0.35721 0.66736 0.0
H385 H 0.99663 0.33619 0.77884 0.0
H386 H 0.96466 0.32967 0.81426 0.0
H387 H 0.99691 0.33934 0.64174 0.0
H388 H 0.03773 0.36345 0.79691 0.0
H389 H 0.02955 0.37764 0.86742 0.0
H390 H 0.97603 0.40381 0.81602 0.0
H391 H 0.98401 0.38998 0.74517 0.0
C392 C 0.09135 0.36442 0.61305 0.0
C393 C 0.09846 0.38383 0.62117 0.0
C394 C 0.0719 0.35893 0.62511 0.0
C395 C 0.05901 0.37291 0.64451 0.0
C396 C 0.06588 0.39265 0.65018 0.0
C397 C 0.08546 0.39795 0.63924 0.0
C398 C 0.03916 0.36669 0.66238 0.0
C399 C 0.03435 0.37252 0.70423 0.0
C400 C 0.02524 0.35483 0.63938 0.0
C401 C 0.02841 0.34945 0.59401 0.0
C402 C 0.03198 0.36441 0.56341 0.0
C403 C 0.03501 0.35926 0.52071 0.0
C404 C 0.03435 0.3392 0.50815 0.0
C405 C 0.03062 0.32426 0.53826 0.0
C406 C 0.0276 0.32933 0.58101 0.0
C407 C 0.94698 0.34663 0.71892 0.0
C408 C 0.94638 0.33942 0.76106 0.0
C409 C 0.96526 0.35076 0.69904 0.0
C410 C 0.98341 0.34767 0.72067 0.0
C411 C 0.98287 0.33921 0.76175 0.0
C412 C 0.96456 0.33533 0.78191 0.0
C413 C 1.0027 0.35438 0.70122 0.0
C414 C 0.00741 0.34858 0.65933 0.0
C415 C 0.0162 0.36698 0.72344 0.0
C416 C 0.01137 0.37548 0.76589 0.0
C417 C 0.02425 0.37228 0.80067 0.0
C418 C 0.01964 0.38025 0.84068 0.0
C419 C 1.00224 0.39156 0.84623 0.0
C420 C 0.98945 0.39498 0.81174 0.0
C421 C 0.994 0.38706 0.77166 0.0
H422 H 0.9987 0.3977 0.87724 0.0
H423 H 0.0367 0.33525 0.47508 0.0
H424 H 0.34846 0.43022 0.96336 0.0
H425 H 0.35331 0.46272 0.92917 0.0
H426 H 0.34599 0.4921 0.05053 0.0
H427 H 0.34099 0.45962 0.085 0.0
H428 H 0.32773 0.51292 0.98669 0.0
H429 H 0.39221 0.48259 0.01127 0.0
H430 H 0.41758 0.45592 0.00558 0.0
H431 H 0.41632 0.46074 0.86913 0.0
H432 H 0.39072 0.48726 0.874 0.0
H433 H 0.37867 0.60337 0.96867 0.0
H434 H 0.36937 0.56928 0.98631 0.0
H435 H 0.37615 0.55198 0.85475 0.0
H436 H 0.38554 0.58659 0.83635 0.0
H437 H 0.39266 0.52412 0.91376 0.0
H438 H 0.33074 0.55751 0.89025 0.0
H439 H 0.30577 0.58448 0.89708 0.0
H440 H 0.30236 0.57423 0.03195 0.0
H441 H 0.32757 0.54741 0.02609 0.0
C442 C 0.34754 0.4436 0.98274 0.0
C443 C 0.34443 0.44227 0.02704 0.0
C444 C 0.35045 0.46219 0.96312 0.0
C445 C 0.35037 0.47986 0.98735 0.0
C446 C 0.3462 0.47867 0.03117 0.0
C447 C 0.34333 0.46007 0.05086 0.0
C448 C 0.35557 0.49947 0.96758 0.0
C449 C 0.34197 0.51539 0.97097 0.0
C450 C 0.37393 0.5026 0.94595 0.0
C451 C 0.38938 0.48673 0.94298 0.0
C452 C 0.39723 0.47784 0.98004 0.0
C453 C 0.41166 0.46278 0.97697 0.0
C454 C 0.41851 0.45659 0.93701 0.0
C455 C 0.41097 0.46551 0.90005 0.0
C456 C 0.3965 0.48057 0.90294 0.0
C457 C 0.3783 0.59242 0.94322 0.0
C458 C 0.38274 0.59787 0.90089 0.0
C459 C 0.37288 0.57287 0.95348 0.0
C460 C 0.37171 0.55813 0.92181 0.0
C461 C 0.37682 0.56318 0.87967 0.0
C462 C 0.3822 0.58294 0.86921 0.0
C463 C 0.36496 0.53763 0.93353 0.0
C464 C 0.37828 0.52156 0.92881 0.0
C465 C 0.34634 0.53437 0.954 0.0
C466 C 0.33116 0.55051 0.95774 0.0
C467 C 0.3248 0.56111 0.92143 0.0
C468 C 0.31058 0.57635 0.92512 0.0
C469 C 0.30249 0.58106 0.96491 0.0
C470 C 0.30863 0.57056 1.00113 0.0
C471 C 0.32287 0.55531 0.99764 0.0
H472 H 0.29142 0.5928 0.96766 0.0
H473 H 0.42969 0.44493 0.9347 0.0
H474 H 0.46035 0.66589 0.9191 0.0
H475 H 0.49194 0.65808 0.95475 0.0
H476 H 0.46207 0.6584 0.07646 0.0
H477 H 0.43037 0.66631 0.04106 0.0
H478 H 0.50031 0.67512 0.08098 0.0
H479 H 0.4696 0.61503 0.02924 0.0
H480 H 0.45363 0.59334 0.97546 0.0
H481 H 0.50668 0.59578 0.89855 0.0
H482 H 0.52287 0.61775 0.95158 0.0
H483 H 0.58355 0.62343 0.17877 0.0
H484 H 0.54923 0.63207 0.15689 0.0
H485 H 0.56701 0.62898 0.02492 0.0
H486 H 0.60069 0.62001 0.04616 0.0
H487 H 0.53231 0.61197 0.03337 0.0
H488 H 0.56194 0.67427 0.08142 0.0
H489 H 0.57788 0.69671 0.13388 0.0
H490 H 0.52723 0.69039 0.21691 0.0
H491 H 0.5111 0.66772 0.16511 0.0
C492 C 0.46053 0.66472 0.95352 0.0
C493 C 0.44275 0.66661 0.97713 0.0
C494 C 0.47861 0.66013 0.97387 0.0
C495 C 0.47933 0.65729 0.01825 0.0
C496 C 0.46188 0.66042 0.0422 0.0
C497 C 0.44375 0.66495 0.02185 0.0
C498 C 0.49794 0.64974 0.039 0.0
C499 C 0.50718 0.66118 0.07102 0.0
C500 C 0.50699 0.63158 0.02596 0.0
C501 C 0.49738 0.61817 0.99423 0.0
C502 C 0.47781 0.61105 1.00072 0.0
C503 C 0.46873 0.59869 0.97039 0.0
C504 C 0.47912 0.59322 0.93357 0.0
C505 C 0.49864 0.60005 0.92707 0.0
C506 C 0.50779 0.61244 0.95727 0.0
C507 C 0.58003 0.62438 0.14514 0.0
C508 C 0.59498 0.62107 0.11433 0.0
C509 C 0.56045 0.62948 0.13263 0.0
C510 C 0.5555 0.63144 0.08914 0.0
C511 C 0.57032 0.6276 0.05861 0.0
C512 C 0.58971 0.6225 0.07095 0.0
C513 C 0.53514 0.63765 0.0745 0.0
C514 C 0.52543 0.62586 0.04368 0.0
C515 C 0.52576 0.6555 0.08857 0.0
C516 C 0.53544 0.66912 0.11966 0.0
C517 C 0.55428 0.67755 0.11102 0.0
C518 C 0.56333 0.69033 0.1406 0.0
C519 C 0.5536 0.69492 0.17877 0.0
C520 C 0.53477 0.68679 0.18738 0.0
C521 C 0.52566 0.67398 0.15792 0.0
H522 H 0.56063 0.70482 0.20163 0.0
H523 H 0.47206 0.58365 0.91012 0.0
H524 H 0.59613 0.41978 0.89781 0.0
H525 H 0.60531 0.45315 0.92449 0.0
H526 H 0.66702 0.44178 0.89225 0.0
H527 H 0.65779 0.40847 0.8659 0.0
H528 H 0.66436 0.45492 0.97166 0.0
H529 H 0.63941 0.47606 0.83652 0.0
H530 H 0.61516 0.47872 0.77752 0.0
H531 H 0.57275 0.50659 0.86137 0.0
H532 H 0.59666 0.50384 0.92106 0.0
H533 H 0.66942 0.57302 0.97864 0.0
H534 H 0.66431 0.5414 0.9409 0.0
H535 H 0.65341 0.51166 0.06068 0.0
H536 H 0.65914 0.54309 0.09862 0.0
H537 H 0.63274 0.51952 0.93274 0.0
H538 H 0.66404 0.46259 0.05491 0.0
H539 H 0.69058 0.46048 0.10944 0.0
H540 H 0.72474 0.50501 0.04286 0.0
H541 H 0.69852 0.5072 0.98767 0.0
C542 C 0.61151 0.42474 0.89521 0.0
C543 C 0.6262 0.41185 0.87891 0.0
C544 C 0.61679 0.44375 0.91065 0.0
C545 C 0.63689 0.45008 0.91032 0.0
C546 C 0.65144 0.43731 0.89287 0.0
C547 C 0.64615 0.41838 0.87737 0.0
C548 C 0.64295 0.46939 0.93058 0.0
C549 C 0.65745 0.46905 0.96306 0.0
C550 C 0.63421 0.48793 0.91912 0.0
C551 C 0.61976 0.48957 0.88336 0.0
C552 C 0.62485 0.4826 0.84248 0.0
C553 C 0.61118 0.48415 0.80889 0.0
C554 C 0.59241 0.49277 0.81572 0.0
C555 C 0.58729 0.49989 0.85615 0.0
C556 C 0.6009 0.49836 0.88986 0.0
C557 C 0.66632 0.55966 0.99704 0.0
C558 C 0.66483 0.5606 0.04173 0.0
C559 C 0.66325 0.54159 0.97535 0.0
C560 C 0.65852 0.524 0.99776 0.0
C561 C 0.65739 0.52484 0.04251 0.0
C562 C 0.66068 0.54288 0.06426 0.0
C563 C 0.654 0.50504 0.97423 0.0
C564 C 0.63971 0.50542 0.94128 0.0
C565 C 0.66322 0.48658 0.9847 0.0
C566 C 0.67922 0.48517 0.01737 0.0
C567 C 0.67726 0.47186 0.05181 0.0
C568 C 0.69223 0.47067 0.08285 0.0
C569 C 0.70931 0.48265 0.07968 0.0
C570 C 0.71147 0.49579 0.04536 0.0
C571 C 0.69655 0.49703 0.01422 0.0
H572 H 0.72087 0.48172 0.10377 0.0
H573 H 0.58185 0.49397 0.78967 0.0
H574 H 0.411 0.38551 0.03441 0.0
H575 H 0.44472 0.37585 0.01443 0.0
H576 H 0.46003 0.36741 0.14668 0.0
H577 H 0.4258 0.37712 0.1674 0.0
H578 H 0.49056 0.38702 0.09628 0.0
H579 H 0.45111 0.3274 0.0924 0.0
H580 H 0.42163 0.30694 0.07404 0.0
H581 H 0.43326 0.31582 0.94081 0.0
H582 H 0.46264 0.33661 0.95837 0.0
H583 H 0.58109 0.34133 0.02653 0.0
H584 H 0.5493 0.34604 0.06382 0.0
H585 H 0.51845 0.34878 0.94313 0.0
H586 H 0.55007 0.34357 0.90575 0.0
H587 H 0.49646 0.32903 0.99816 0.0
H588 H 0.53262 0.39166 1.00085 0.0
H589 H 0.56134 0.41357 0.01709 0.0
H590 H 0.55546 0.40016 0.15034 0.0
H591 H 0.52685 0.37795 0.13479 0.0
C592 C 0.42146 0.38174 0.05955 0.0
C593 C 0.41552 0.3819 0.10263 0.0
C594 C 0.4408 0.37617 0.04793 0.0
C595 C 0.45481 0.37055 0.07893 0.0
C596 C 0.44939 0.37158 0.1222 0.0
C597 C 0.42984 0.37714 0.13399 0.0
C598 C 0.47477 0.36306 0.06517 0.0
C599 C 0.49196 0.37408 0.07562 0.0
C600 C 0.47653 0.3464 0.03747 0.0
C601 C 0.45903 0.33367 0.02673 0.0
C602 C 0.44732 0.32509 0.05919 0.0
C603 C 0.43063 0.31342 0.04892 0.0
C604 C 0.42556 0.3101 0.00629 0.0
C605 C 0.4372 0.31841 0.97382 0.0
C606 C 0.45389 0.33011 0.98392 0.0
C607 C 0.56749 0.34262 0.00792 0.0
C608 C 0.56817 0.34215 0.96308 0.0
C609 C 0.54932 0.34548 0.02932 0.0
C610 C 0.53145 0.34821 0.00637 0.0
C611 C 0.53199 0.3468 0.96167 0.0
C612 C 0.55012 0.3438 0.94027 0.0
C613 C 0.51231 0.35325 0.02845 0.0
C614 C 0.49521 0.34177 0.01945 0.0
C615 C 0.51064 0.36956 0.05723 0.0
C616 C 0.52776 0.38297 0.06661 0.0
C617 C 0.53755 0.39327 0.03358 0.0
C618 C 0.55379 0.40576 0.04266 0.0
C619 C 0.56026 0.40821 0.0847 0.0
C620 C 0.55046 0.39822 0.11778 0.0
C621 C 0.53423 0.38569 0.10885 0.0
H622 H 0.57284 0.41789 0.09167 0.0
H623 H 0.41263 0.30107 0.9984 0.0
H624 H 0.88375 0.40163 0.77842 0.0
H625 H 0.87518 0.43573 0.76027 0.0
H626 H 0.87398 0.45152 0.89351 0.0
H627 H 0.88221 0.41665 0.91246 0.0
H628 H 0.84254 0.46821 0.85074 0.0
H629 H 0.9129 0.46654 0.83073 0.0
H630 H 0.94522 0.45312 0.80592 0.0
H631 H 0.92583 0.45852 0.67593 0.0
H632 H 0.89326 0.47169 0.69994 0.0
H633 H 0.83985 0.57216 0.78326 0.0
H634 H 0.84729 0.54005 0.81737 0.0
H635 H 0.84943 0.51162 0.69407 0.0
H636 H 0.84208 0.54363 0.65975 0.0
H637 H 0.88267 0.50365 0.7413 0.0
H638 H 0.81108 0.50286 0.76357 0.0
H639 H 0.77899 0.5163 0.78972 0.0
H640 H 0.80173 0.5165 0.91777 0.0
H641 H 0.83406 0.50331 0.89229 0.0
C642 C 0.88181 0.41223 0.80422 0.0
C643 C 0.88385 0.40627 0.84709 0.0
C644 C 0.87695 0.43188 0.79361 0.0
C645 C 0.87426 0.44639 0.82536 0.0
C646 C 0.87611 0.44062 0.86837 0.0
C647 C 0.88092 0.42072 0.87917 0.0
C648 C 0.86931 0.46735 0.81264 0.0
C649 C 0.85154 0.47615 0.82749 0.0
C650 C 0.88089 0.4777 0.78188 0.0
C651 C 0.90057 0.47001 0.76719 0.0
C652 C 0.91548 0.46476 0.79686 0.0
C653 C 0.93385 0.45721 0.78293 0.0
C654 C 0.93756 0.45495 0.73938 0.0
C655 C 0.92293 0.46029 0.70966 0.0
C656 C 0.90452 0.46782 0.72341 0.0
C657 C 0.8415 0.559 0.76341 0.0
C658 C 0.84037 0.56052 0.71868 0.0
C659 C 0.84576 0.54062 0.78302 0.0
C660 C 0.84898 0.52337 0.75834 0.0
C661 C 0.8471 0.52472 0.71382 0.0
C662 C 0.84275 0.54304 0.69422 0.0
C663 C 0.85559 0.50422 0.77835 0.0
C664 C 0.87378 0.49582 0.76491 0.0
C665 C 0.84449 0.49441 0.81065 0.0
C666 C 0.82506 0.50231 0.82595 0.0
C667 C 0.8093 0.50594 0.79725 0.0
C668 C 0.79105 0.51348 0.81196 0.0
C669 C 0.78835 0.51731 0.85536 0.0
C670 C 0.80386 0.51356 0.88416 0.0
C671 C 0.82214 0.50604 0.8696 0.0
H672 H 0.77421 0.52314 0.86669 0.0
H673 H 0.95179 0.44908 0.72867 0.0
H674 H 0.54447 0.15738 0.34294 0.0
H675 H 0.5135 0.14866 0.30576 0.0
H676 H 0.54154 0.16125 0.18507 0.0
H677 H 0.57275 0.16982 0.22203 0.0
H678 H 0.50037 0.17469 0.19172 0.0
H679 H 0.53998 0.11557 0.21154 0.0
H680 H 0.56023 0.09163 0.25299 0.0
H681 H 0.50981 0.07917 0.33342 0.0
H682 H 0.48933 0.10331 0.29289 0.0
H683 H 0.42062 0.12513 0.0803 0.0
H684 H 0.45491 0.13394 0.102 0.0
H685 H 0.4416 0.11581 0.23086 0.0
H686 H 0.40783 0.10677 0.20945 0.0
H687 H 0.47801 0.10447 0.21136 0.0
H688 H 0.43959 0.16545 0.19819 0.0
H689 H 0.41899 0.1904 0.16033 0.0
H690 H 0.46643 0.19994 0.07038 0.0
H691 H 0.48722 0.17483 0.10743 0.0
C692 C 0.54398 0.15872 0.30856 0.0
C693 C 0.56115 0.16422 0.28549 0.0
C694 C 0.52627 0.15361 0.28732 0.0
C695 C 0.52529 0.15405 0.24261 0.0
C696 C 0.54198 0.16075 0.21957 0.0
C697 C 0.55981 0.16565 0.24078 0.0
C698 C 0.50728 0.14621 0.22015 0.0
C699 C 0.49563 0.15926 0.19536 0.0
C700 C 0.50099 0.12613 0.22529 0.0
C701 C 0.51317 0.11139 0.2494 0.0
C702 C 0.53325 0.10785 0.23827 0.0
C703 C 0.54476 0.09422 0.26157 0.0
C704 C 0.53633 0.08393 0.29588 0.0
C705 C 0.51633 0.08718 0.30687 0.0
C706 C 0.50476 0.10082 0.28372 0.0
C707 C 0.42518 0.12267 0.11302 0.0
C708 C 0.41142 0.1154 0.14318 0.0
C709 C 0.44472 0.12788 0.12551 0.0
C710 C 0.4508 0.12587 0.16831 0.0
C711 C 0.43735 0.11761 0.19774 0.0
C712 C 0.41795 0.1125 0.1854 0.0
C713 C 0.47072 0.13305 0.18358 0.0
C714 C 0.48281 0.11985 0.20711 0.0
C715 C 0.47731 0.15303 0.17753 0.0
C716 C 0.46485 0.16809 0.15523 0.0
C717 C 0.44556 0.17275 0.17013 0.0
C718 C 0.43386 0.18694 0.14886 0.0
C719 C 0.44137 0.1967 0.11288 0.0
C720 C 0.46061 0.19233 0.09818 0.0
C721 C 0.47236 0.17813 0.1193 0.0
H722 H 0.4323 0.20769 0.09647 0.0
H723 H 0.54527 0.07341 0.31391 0.0
H724 H 0.11349 0.58876 0.92303 0.0
H725 H 0.12088 0.55397 0.90238 0.0
H726 H 0.13938 0.57426 0.77799 0.0
H727 H 0.13171 0.60841 0.79763 0.0
H728 H 0.11646 0.54322 0.76927 0.0
H729 H 0.1731 0.56019 0.85945 0.0
H730 H 0.18918 0.57069 0.92665 0.0
H731 H 0.16336 0.52026 0.99117 0.0
H732 H 0.14694 0.50959 0.92442 0.0
H733 H 0.17029 0.46414 0.67881 0.0
H734 H 0.1633 0.4962 0.71339 0.0
H735 H 0.14344 0.46526 0.82627 0.0
H736 H 0.15063 0.43314 0.79213 0.0
H737 H 0.16408 0.49941 0.84681 0.0
H738 H 0.10953 0.48121 0.75548 0.0
H739 H 0.09374 0.47048 0.68818 0.0
H740 H 0.11545 0.52342 0.62599 0.0
H741 H 0.13163 0.53434 0.69279 0.0
C742 C 0.1191 0.58574 0.89131 0.0
C743 C 0.12189 0.60145 0.86204 0.0
C744 C 0.12342 0.56586 0.87958 0.0
C745 C 0.13079 0.56142 0.83857 0.0
C746 C 0.1336 0.57716 0.80966 0.0
C747 C 0.1292 0.5968 0.82113 0.0
C748 C 0.13544 0.54058 0.82456 0.0
C749 C 0.12701 0.53375 0.78616 0.0
C750 C 0.14871 0.52785 0.84707 0.0
C751 C 0.15861 0.53423 0.8871 0.0
C752 C 0.17073 0.55143 0.88806 0.0
C753 C 0.17993 0.55739 0.92604 0.0
C754 C 0.17724 0.54618 0.96319 0.0
C755 C 0.1654 0.52895 0.9624 0.0
C756 C 0.15615 0.52293 0.9245 0.0
C757 C 0.16479 0.46414 0.71126 0.0
C758 C 0.16088 0.44603 0.73252 0.0
C759 C 0.16068 0.48249 0.73095 0.0
C760 C 0.15247 0.48315 0.77219 0.0
C761 C 0.14967 0.46515 0.79441 0.0
C762 C 0.15377 0.44678 0.77475 0.0
C763 C 0.14565 0.5025 0.79084 0.0
C764 C 0.15348 0.5089 0.83013 0.0
C765 C 0.13182 0.51493 0.76918 0.0
C766 C 0.12193 0.50851 0.72906 0.0
C767 C 0.11105 0.4905 0.72738 0.0
C768 C 0.10201 0.48439 0.68933 0.0
C769 C 0.10362 0.49624 0.65281 0.0
C770 C 0.11423 0.51425 0.65429 0.0
C771 C 0.12332 0.52042 0.69225 0.0
H772 H 0.09663 0.49148 0.62337 0.0
H773 H 0.18437 0.55082 0.99256 0.0
H774 H 0.4321 0.84934 0.22311 0.0
H775 H 0.46405 0.85526 0.18743 0.0
H776 H 0.49529 0.84363 0.3052 0.0
H777 H 0.46337 0.83796 0.34126 0.0
H778 H 0.50704 0.87829 0.27076 0.0
H779 H 0.49697 0.81096 0.21908 0.0
H780 H 0.47847 0.7839 0.18289 0.0
H781 H 0.47771 0.81808 0.06702 0.0
H782 H 0.496 0.84546 0.1027 0.0
H783 H 0.60662 0.87139 0.21353 0.0
H784 H 0.57256 0.86404 0.23427 0.0
H785 H 0.55181 0.87955 0.10838 0.0
H786 H 0.58654 0.88672 0.08659 0.0
H787 H 0.53289 0.84572 0.13979 0.0
H788 H 0.54467 0.91202 0.18921 0.0
H789 H 0.56319 0.93929 0.22457 0.0
H790 H 0.56005 0.90787 0.34373 0.0
H791 H 0.54176 0.88026 0.30896 0.0
C792 C 0.44578 0.84763 0.24128 0.0
C793 C 0.44513 0.8432 0.28516 0.0
C794 C 0.46408 0.85101 0.22074 0.0
C795 C 0.48214 0.84991 0.24354 0.0
C796 C 0.48157 0.84465 0.28691 0.0
C797 C 0.46328 0.84128 0.30748 0.0
C798 C 0.5015 0.85568 0.22329 0.0
C799 C 0.51277 0.87097 0.24241 0.0
C800 C 0.50862 0.84681 0.18515 0.0
C801 C 0.49766 0.83035 0.16369 0.0
C802 C 0.49271 0.81278 0.18599 0.0
C803 C 0.48229 0.79737 0.16554 0.0
C804 C 0.47687 0.7993 0.12272 0.0
C805 C 0.4819 0.81662 0.10021 0.0
C806 C 0.4923 0.83208 0.12051 0.0
C807 C 0.59494 0.87336 0.18994 0.0
C808 C 0.59942 0.87991 0.14836 0.0
C809 C 0.57535 0.86914 0.20205 0.0
C810 C 0.5595 0.8716 0.17326 0.0
C811 C 0.5638 0.87768 0.13127 0.0
C812 C 0.58363 0.88183 0.1189 0.0
C813 C 0.53864 0.86789 0.18808 0.0
C814 C 0.52705 0.85311 0.16793 0.0
C815 C 0.53108 0.87732 0.22519 0.0
C816 C 0.54193 0.894 0.24638 0.0
C817 C 0.54803 0.91086 0.2229 0.0
C818 C 0.55848 0.92639 0.24285 0.0
C819 C 0.56282 0.9253 0.28636 0.0
C820 C 0.55668 0.90869 0.31003 0.0
C821 C 0.54624 0.89311 0.29022 0.0
H822 H 0.57092 0.93733 0.30174 0.0
H823 H 0.4688 0.78735 0.10695 0.0
H824 H 0.831 0.93201 0.46659 0.0
H825 H 0.83656 0.96421 0.43141 0.0
H826 H 0.85041 0.99107 0.55303 0.0
H827 H 0.84399 0.9592 0.58842 0.0
H828 H 0.83141 0.01675 0.5097 0.0
H829 H 0.88727 0.97414 0.47765 0.0
H830 H 0.90416 0.94395 0.45025 0.0
H831 H 0.88091 0.95561 0.32504 0.0
H832 H 0.86366 0.98574 0.35186 0.0
H833 H 0.8915 0.09786 0.45585 0.0
H834 H 0.88172 0.0643 0.47734 0.0
H835 H 0.85885 0.05281 0.35116 0.0
H836 H 0.86885 0.08675 0.32898 0.0
H837 H 0.87943 0.01942 0.38927 0.0
H838 H 0.82676 0.06586 0.42628 0.0
H839 H 0.81387 0.09692 0.45851 0.0
H840 H 0.83544 0.07828 0.58118 0.0
H841 H 0.84877 0.04724 0.54957 0.0
C842 C 0.83488 0.94488 0.48591 0.0
C843 C 0.83708 0.943 0.53035 0.0
C844 C 0.83827 0.96327 0.46567 0.0
C845 C 0.84444 0.98008 0.48928 0.0
C846 C 0.84576 0.97839 0.53389 0.0
C847 C 0.84203 0.96012 0.5542 0.0
C848 C 0.85004 0.99928 0.46783 0.0
C849 C 0.842 0.01724 0.48354 0.0
C850 C 0.86362 1.00013 0.43307 0.0
C851 C 0.87398 0.98205 0.41687 0.0
C852 C 0.88564 0.97017 0.44435 0.0
C853 C 0.89529 0.95309 0.42891 0.0
C854 C 0.89355 0.94783 0.38596 0.0
C855 C 0.88221 0.95968 0.35833 0.0
C856 C 0.87249 0.97676 0.37362 0.0
C857 C 0.88459 0.0882 0.43233 0.0
C858 C 0.88074 0.09513 0.39075 0.0
C859 C 0.87896 0.06897 0.44479 0.0
C860 C 0.86914 0.05617 0.4162 0.0
C861 C 0.86628 0.06251 0.37386 0.0
C862 C 0.87204 0.08188 0.36119 0.0
C863 C 0.86107 0.03671 0.43182 0.0
C864 C 0.86862 0.01878 0.415 0.0
C865 C 0.84741 0.03587 0.46628 0.0
C866 C 0.83885 0.05427 0.48549 0.0
C867 C 0.82882 0.06842 0.4601 0.0
C868 C 0.82144 0.08603 0.47827 0.0
C869 C 0.82387 0.0896 0.52187 0.0
C870 C 0.83358 0.0755 0.54742 0.0
C871 C 0.84103 0.05789 0.5294 0.0
H872 H 0.81825 0.10327 0.53592 0.0
H873 H 0.90104 0.9346 0.37407 0.0
H874 H 0.92912 0.15969 0.53411 0.0
H875 H 0.96119 0.15258 0.5683 0.0
H876 H 0.99122 0.16 0.44773 0.0
H877 H 0.95911 0.16684 0.41313 0.0
H878 H 1.00203 0.12571 0.48501 0.0
H879 H 0.99593 0.1944 0.53054 0.0
H880 H 0.97924 0.22317 0.56458 0.0
H881 H 0.97767 0.1916 0.68371 0.0
H882 H 0.99413 0.16253 0.65024 0.0
H883 H 0.1026 0.12798 0.54344 0.0
H884 H 0.06884 0.13524 0.5199 0.0
H885 H 0.04693 0.12627 0.64771 0.0
H886 H 0.08127 0.11931 0.67217 0.0
H887 H 0.03047 0.15933 0.6124 0.0
H888 H 0.0366 0.0912 0.56933 0.0
H889 H 0.05244 0.06163 0.53671 0.0
H890 H 0.05328 0.09116 0.41523 0.0
H891 H 0.03734 0.12092 0.4471 0.0
C892 C 0.94258 0.16021 0.51494 0.0
C893 C 0.9415 0.16384 0.47078 0.0
C894 C 0.96096 0.15615 0.53463 0.0
C895 C 0.97871 0.15577 0.5107 0.0
C896 C 0.97775 0.16015 0.46691 0.0
C897 C 0.95937 0.16419 0.44718 0.0
C898 C 0.99803 0.1495 0.53054 0.0
C899 C 0.00834 0.13326 0.51252 0.0
C900 C 0.00593 0.15872 0.56762 0.0
C901 C 0.99608 0.17621 0.58777 0.0
C902 C 0.99188 0.19353 0.56391 0.0
C903 C 0.98249 0.2099 0.58312 0.0
C904 C 0.97735 0.20919 0.62625 0.0
C905 C 0.98164 0.19212 0.65029 0.0
C906 C 0.99101 0.1757 0.63123 0.0
C907 C 0.09069 0.12739 0.5668 0.0
C908 C 0.09476 0.123 0.60986 0.0
C909 C 0.07127 0.13146 0.55308 0.0
C910 C 0.0552 0.13104 0.58178 0.0
C911 C 0.05907 0.12661 0.62488 0.0
C912 C 0.07868 0.12253 0.6388 0.0
C913 C 0.03463 0.13584 0.56624 0.0
C914 C 0.02406 0.15172 0.58506 0.0
C915 C 0.02635 0.12619 0.53008 0.0
C916 C 0.0359 0.10833 0.51068 0.0
C917 C 0.04026 0.09143 0.53571 0.0
C918 C 0.04923 0.07462 0.51734 0.0
C919 C 0.05398 0.07455 0.47398 0.0
C920 C 0.04962 0.09124 0.44882 0.0
C921 C 0.04054 0.10805 0.46698 0.0
H922 H 0.06099 0.06153 0.45988 0.0
H923 H 0.97008 0.22188 0.64106 0.0
H924 H 0.1293 0.92742 0.33254 0.0
H925 H 0.138 0.96148 0.35606 0.0
H926 H 0.1234 0.94547 0.48553 0.0
H927 H 0.11447 0.91195 0.46245 0.0
H928 H 0.11007 0.98157 0.46975 0.0
H929 H 0.17224 0.9461 0.44776 0.0
H930 H 0.19724 0.92731 0.40607 0.0
H931 H 0.20284 0.97665 0.31924 0.0
H932 H 0.17766 0.99564 0.36015 0.0
H933 H 0.16159 0.04873 0.60094 0.0
H934 H 0.15437 0.0177 0.56258 0.0
H935 H 0.16348 0.0479 0.4428 0.0
H936 H 0.17063 0.07913 0.48094 0.0
H937 H 0.17874 0.00737 0.4452 0.0
H938 H 0.11829 0.04392 0.47373 0.0
H939 H 0.09512 0.06253 0.52022 0.0
H940 H 0.0871 0.01028 0.59801 0.0
H941 H 0.11058 0.99147 0.55249 0.0
C942 C 0.12766 0.9313 0.36586 0.0
C943 C 0.1213 0.91688 0.39558 0.0
C944 C 0.1328 0.95072 0.37936 0.0
C945 C 0.13163 0.95603 0.42276 0.0
C946 C 0.12449 0.94184 0.45195 0.0
C947 C 0.11945 0.92257 0.43861 0.0
C948 C 0.1383 0.976 0.43878 0.0
C949 C 0.12512 0.98713 0.46439 0.0
C950 C 0.15782 0.98358 0.43133 0.0
C951 C 0.17289 0.97218 0.40667 0.0
C952 C 0.17868 0.95287 0.41956 0.0
C953 C 0.1929 0.94219 0.39612 0.0
C954 C 0.20157 0.95075 0.35994 0.0
C955 C 0.19607 0.97002 0.3472 0.0
C956 C 0.18183 0.98075 0.3705 0.0
C957 C 0.16252 0.04872 0.56648 0.0
C958 C 0.16657 0.06649 0.54406 0.0
C959 C 0.1583 0.03096 0.54457 0.0
C960 C 0.1581 0.03055 0.4998 0.0
C961 C 0.16349 0.04789 0.47733 0.0
C962 C 0.16757 0.06573 0.49923 0.0
C963 C 0.15065 0.01252 0.47682 0.0
C964 C 0.16363 1.00188 0.44995 0.0
C965 C 0.13099 0.00526 0.48331 0.0
C966 C 0.11634 0.01633 0.5099 0.0
C967 C 0.11167 0.03642 0.50088 0.0
C968 C 0.09848 0.04701 0.52707 0.0
C969 C 0.08968 0.03761 0.56212 0.0
C970 C 0.09395 0.01756 0.57089 0.0
C971 C 0.1072 0.00692 0.5449 0.0
H972 H 0.07955 0.04584 0.58249 0.0
H973 H 0.21259 0.94247 0.34185 0.0
H974 H 0.90345 0.89073 0.53416 0.0
H975 H 0.93718 0.8819 0.51214 0.0
H976 H 0.95164 0.86489 0.64109 0.0
H977 H 0.91756 0.87402 0.6638 0.0
H978 H 0.9829 0.88538 0.60004 0.0
H979 H 0.93992 0.82914 0.56922 0.0
H980 H 0.91003 0.81281 0.53883 0.0
H981 H 0.92695 0.83232 0.41357 0.0
H982 H 0.95678 0.849 0.44325 0.0
H983 H 0.07276 0.84005 0.52699 0.0
H984 H 0.04029 0.84452 0.56163 0.0
H985 H 0.01295 0.85526 0.43909 0.0
H986 H 0.04518 0.85005 0.40427 0.0
H987 H 0.98838 0.83503 0.48432 0.0
H988 H 0.02768 0.894 0.51094 0.0
H989 H 0.05687 0.91309 0.53674 0.0
H990 H 0.04652 0.89176 0.66392 0.0
H991 H 0.01741 0.87231 0.63874 0.0
C992 C 0.91377 0.88526 0.55811 0.0
C993 C 0.90767 0.88286 0.60075 0.0
C994 C 0.93309 0.88014 0.54534 0.0
C995 C 0.94683 0.87226 0.57468 0.0
C996 C 0.94122 0.87078 0.61779 0.0
C997 C 0.92177 0.87603 0.63076 0.0
C998 C 0.9667 0.86508 0.55947 0.0
C999 C 0.98416 0.87408 0.57535 0.0
C1000 C 0.96834 0.85071 0.5264 0.0
C1001 C 0.95053 0.84041 0.50852 0.0
C1002 C 0.93721 0.83003 0.53523 0.0
C1003 C 0.92027 0.82071 0.51812 0.0
C1004 C 0.91658 0.82156 0.4743 0.0
C1005 C 0.92983 0.83168 0.4475 0.0
C1006 C 0.94676 0.84104 0.46444 0.0
C1007 C 0.05976 0.84302 0.50736 0.0
C1008 C 0.0616 0.84474 0.46282 0.0
C1009 C 0.0412 0.84578 0.52728 0.0
C1010 C 0.02415 0.85074 0.5032 0.0
C1011 C 0.02583 0.85155 0.45855 0.0
C1012 C 0.04431 0.84852 0.43858 0.0
C1013 C 0.00468 0.85561 0.52419 0.0
C1014 C 0.98724 0.84614 0.50943 0.0
C1015 C 1.00305 0.86983 0.55766 0.0
C1016 C 0.02052 0.88152 0.57287 0.0
C1017 C 0.03173 0.89326 0.54435 0.0
C1018 C 0.04824 0.90416 0.55887 0.0
C1019 C 0.05358 0.90359 0.60192 0.0
C1020 C 0.04239 0.89215 0.63056 0.0
C1021 C 0.02588 0.88119 0.61619 0.0
H1022 H 0.06637 0.91204 0.6131 0.0
H1023 H 0.90348 0.81438 0.46102 0.0
H1024 H 0.31846 0.33484 0.18529 0.0
H1025 H 0.30954 0.29946 0.18729 0.0
H1026 H 0.31841 0.29535 0.05142 0.0
H1027 H 0.32689 0.33113 0.04907 0.0
H1028 H 0.28833 0.26982 0.07911 0.0
H1029 H 0.35642 0.28486 0.1156 0.0
H1030 H 0.3835 0.30216 0.15432 0.0
H1031 H 0.36144 0.2789 0.2729 0.0
H1032 H 0.33404 0.26169 0.23487 0.0
H1033 H 0.32497 0.17081 0.05925 0.0
H1034 H 0.31696 0.20629 0.05979 0.0
H1035 H 0.31031 0.20452 0.19651 0.0
H1036 H 0.31875 0.16876 0.19629 0.0
H1037 H 0.33595 0.23308 0.17204 0.0
H1038 H 0.2699 0.21366 0.12988 0.0
H1039 H 0.24516 0.19523 0.08669 0.0
H1040 H 0.26552 0.22538 0.97397 0.0
H1041 H 0.29057 0.24381 0.01637 0.0
C1042 C 0.31801 0.32654 0.15564 0.0
C1043 C 0.32363 0.33565 0.11709 0.0
C1044 C 0.31293 0.30631 0.15684 0.0
C1045 C 0.31378 0.29466 0.11969 0.0
C1046 C 0.31774 0.30406 0.08051 0.0
C1047 C 0.32258 0.32448 0.07918 0.0
C1048 C 0.31303 0.27248 0.12285 0.0
C1049 C 0.29876 0.26174 0.09925 0.0
C1050 C 0.32653 0.26195 0.14951 0.0
C1051 C 0.34305 0.27218 0.17246 0.0
C1052 C 0.35725 0.28357 0.14997 0.0
C1053 C 0.37267 0.29334 0.17178 0.0
C1054 C 0.37415 0.29168 0.21606 0.0
C1055 C 0.36025 0.2802 0.23861 0.0
C1056 C 0.34478 0.27043 0.21694 0.0
C1057 C 0.32146 0.17783 0.08946 0.0
C1058 C 0.32271 0.167 0.12783 0.0
C1059 C 0.3167 0.19815 0.08963 0.0
C1060 C 0.31291 0.2081 0.12814 0.0
C1061 C 0.31313 0.19711 0.16639 0.0
C1062 C 0.31788 0.17668 0.16623 0.0
C1063 C 0.31113 0.23027 0.12859 0.0
C1064 C 0.32516 0.24109 0.1526 0.0
C1065 C 0.29761 0.24073 0.10179 0.0
C1066 C 0.2822 0.23006 0.07633 0.0
C1067 C 0.26916 0.21631 0.09586 0.0
C1068 C 0.25507 0.20586 0.07151 0.0
C1069 C 0.25378 0.20912 0.02761 0.0
C1070 C 0.26652 0.22289 0.00799 0.0
C1071 C 0.28065 0.23337 0.03219 0.0
H1072 H 0.24291 0.20097 0.00879 0.0
H1073 H 0.3861 0.29926 0.2329 0.0
H1074 H 0.16836 0.69467 0.95119 0.0
H1075 H 0.20396 0.70268 0.95379 0.0
H1076 H 0.20693 0.69906 0.8166 0.0
H1077 H 0.17105 0.69153 0.81384 0.0
H1078 H 0.2316 0.67743 0.93165 0.0
H1079 H 0.24786 0.72408 0.77944 0.0
H1080 H 0.23201 0.75069 0.7367 0.0
H1081 H 0.19913 0.77043 0.84644 0.0
H1082 H 0.21499 0.74413 0.88999 0.0
H1083 H 0.33063 0.68467 0.81593 0.0
H1084 H 0.29527 0.69351 0.81898 0.0
H1085 H 0.29999 0.70238 0.95477 0.0
H1086 H 0.33555 0.69336 0.95205 0.0
H1087 H 0.27186 0.72492 0.84571 0.0
H1088 H 0.25871 0.6803 0.9996 0.0
H1089 H 0.27442 0.65311 0.04106 0.0
H1090 H 0.30003 0.62898 0.92657 0.0
H1091 H 0.28426 0.65587 0.88442 0.0
C1092 C 0.17649 0.6961 0.92148 0.0
C1093 C 0.16697 0.69233 0.88229 0.0
C1094 C 0.19687 0.70063 0.92303 0.0
C1095 C 0.20823 0.70137 0.88547 0.0
C1096 C 0.19848 0.69884 0.84603 0.0
C1097 C 0.17796 0.69452 0.84444 0.0
C1098 C 0.23046 0.70237 0.88809 0.0
C1099 C 0.24033 0.68817 0.91358 0.0
C1100 C 0.24198 0.71598 0.8637 0.0
C1101 C 0.2325 0.732 0.83788 0.0
C1102 C 0.23732 0.73415 0.79451 0.0
C1103 C 0.22832 0.74917 0.77012 0.0
C1104 C 0.21453 0.76221 0.78881 0.0
C1105 C 0.20976 0.76028 0.83196 0.0
C1106 C 0.21872 0.74529 0.85649 0.0
C1107 C 0.32427 0.68884 0.84641 0.0
C1108 C 0.33585 0.68804 0.88388 0.0
C1109 C 0.30405 0.69401 0.84801 0.0
C1110 C 0.29492 0.69833 0.88713 0.0
C1111 C 0.30672 0.69889 0.92427 0.0
C1112 C 0.32705 0.69381 0.92266 0.0
C1113 C 0.27277 0.70006 0.8893 0.0
C1114 C 0.26299 0.71456 0.86444 0.0
C1115 C 0.26124 0.68668 0.91413 0.0
C1116 C 0.27053 0.67024 0.93901 0.0
C1117 C 0.26765 0.66915 0.98331 0.0
C1118 C 0.27657 0.6538 0.00691 0.0
C1119 C 0.2883 0.63939 0.98649 0.0
C1120 C 0.29103 0.64021 0.94238 0.0
C1121 C 0.28212 0.65552 0.91863 0.0
H1122 H 0.29523 0.62756 0.00486 0.0
H1123 H 0.20757 0.77382 0.76988 0.0
H1124 H 0.69524 0.83478 0.06416 0.0
H1125 H 0.70309 0.79912 0.06314 0.0
H1126 H 0.69629 0.79665 0.19973 0.0
H1127 H 0.68891 0.83265 0.20105 0.0
H1128 H 0.72498 0.76996 0.17132 0.0
H1129 H 0.65691 0.78707 0.13747 0.0
H1130 H 0.63019 0.80484 0.09863 0.0
H1131 H 0.65008 0.77877 0.98094 0.0
H1132 H 0.67713 0.76108 0.01905 0.0
H1133 H 0.68355 0.67312 0.20087 0.0
H1134 H 0.69332 0.70821 0.19725 0.0
H1135 H 0.69967 0.70346 0.06083 0.0
H1136 H 0.68979 0.6681 0.06422 0.0
H1137 H 0.67471 0.73359 0.08421 0.0
H1138 H 0.74037 0.71242 0.12268 0.0
H1139 H 0.76589 0.69435 0.1644 0.0
H1140 H 0.74925 0.72717 0.27658 0.0
H1141 H 0.72341 0.74525 0.23568 0.0
C1142 C 0.69597 0.82676 0.09415 0.0
C1143 C 0.69122 0.83642 0.13265 0.0
C1144 C 0.70041 0.80637 0.09349 0.0
C1145 C 0.69977 0.79511 0.13121 0.0
C1146 C 0.69676 0.80503 0.17021 0.0
C1147 C 0.69257 0.8256 0.17095 0.0
C1148 C 0.69975 0.77288 0.12912 0.0
C1149 C 0.71395 0.76197 0.1525 0.0
C1150 C 0.68553 0.76245 0.10397 0.0
C1151 C 0.66918 0.77294 0.08102 0.0
C1152 C 0.65568 0.78525 0.10326 0.0
C1153 C 0.64046 0.79529 0.08139 0.0
C1154 C 0.63847 0.79298 0.03732 0.0
C1155 C 0.65166 0.78058 0.01506 0.0
C1156 C 0.66694 0.77054 0.03677 0.0
C1157 C 0.68742 0.6794 0.17012 0.0
C1158 C 0.68575 0.66786 0.13275 0.0
C1159 C 0.69315 0.69946 0.16817 0.0
C1160 C 0.69731 0.70848 0.12881 0.0
C1161 C 0.69658 0.69677 0.09157 0.0
C1162 C 0.69101 0.67656 0.09356 0.0
C1163 C 0.69996 0.73054 0.12639 0.0
C1164 C 0.68605 0.7415 0.1024 0.0
C1165 C 0.71428 0.7409 0.15139 0.0
C1166 C 0.72984 0.7301 0.17613 0.0
C1167 C 0.74203 0.71568 0.15632 0.0
C1168 C 0.75658 0.70546 0.17981 0.0
C1169 C 0.75916 0.70959 0.22313 0.0
C1170 C 0.74723 0.72398 0.24302 0.0
C1171 C 0.73265 0.73425 0.21968 0.0
H1172 H 0.77043 0.70165 0.24126 0.0
H1173 H 0.62668 0.80076 0.02045 0.0
H1174 H 0.67778 0.32816 0.79441 0.0
H1175 H 0.71256 0.31764 0.79339 0.0
H1176 H 0.70893 0.30186 0.92648 0.0
H1177 H 0.6739 0.31284 0.92801 0.0
H1178 H 0.73976 0.3257 0.91198 0.0
H1179 H 0.71567 0.26576 0.84754 0.0
H1180 H 0.69626 0.24532 0.7968 0.0
H1181 H 0.72881 0.27093 0.69227 0.0
H1182 H 0.74824 0.29175 0.74231 0.0
H1183 H 0.84071 0.30306 0.9151 0.0
H1184 H 0.80514 0.29472 0.91588 0.0
H1185 H 0.79993 0.31375 0.78496 0.0
H1186 H 0.83585 0.32144 0.78362 0.0
H1187 H 0.77336 0.28359 0.80313 0.0
H1188 H 0.79279 0.34691 0.86472 0.0
H1189 H 0.81199 0.36867 0.91337 0.0
H1190 H 0.78732 0.3378 0.02125 0.0
H1191 H 0.76819 0.31566 0.97315 0.0
C1192 C 0.68421 0.32217 0.82342 0.0
C1193 C 0.67306 0.32152 0.86145 0.0
C1194 C 0.70413 0.31596 0.82264 0.0
C1195 C 0.71338 0.30877 0.85973 0.0
C1196 C 0.70207 0.30729 0.8974 0.0
C1197 C 0.68205 0.31353 0.89823 0.0
C1198 C 0.73533 0.30509 0.86001 0.0
C1199 C 0.74703 0.31605 0.88889 0.0
C1200 C 0.74492 0.29302 0.82896 0.0
C1201 C 0.73335 0.28041 0.79873 0.0
C1202 C 0.71861 0.26714 0.81372 0.0
C1203 C 0.70761 0.25547 0.78507 0.0
C1204 C 0.71127 0.25684 0.74134 0.0
C1205 C 0.72598 0.26987 0.72616 0.0
C1206 C 0.73702 0.28159 0.75466 0.0
C1207 C 0.83211 0.30482 0.88604 0.0
C1208 C 0.84093 0.31309 0.84942 0.0
C1209 C 0.81177 0.30013 0.88657 0.0
C1210 C 0.79976 0.30415 0.85087 0.0
C1211 C 0.8089 0.31063 0.81296 0.0
C1212 C 0.82942 0.315 0.81217 0.0
C1213 C 0.77761 0.30424 0.85498 0.0
C1214 C 0.76596 0.29282 0.82678 0.0
C1215 C 0.76796 0.31604 0.88639 0.0
C1216 C 0.77924 0.3295 0.91535 0.0
C1217 C 0.79156 0.34469 0.89881 0.0
C1218 C 0.80242 0.35709 0.92628 0.0
C1219 C 0.80092 0.35458 0.97037 0.0
C1220 C 0.7885 0.3397 0.98709 0.0
C1221 C 0.77764 0.32723 0.95974 0.0
H1222 H 0.80934 0.36419 0.99159 0.0
H1223 H 0.70274 0.2478 0.71922 0.0
H1224 H 0.81736 0.67147 0.69053 0.0
H1225 H 0.80801 0.70688 0.68574 0.0
H1226 H 0.80535 0.70212 0.54866 0.0
H1227 H 0.81515 0.66702 0.5533 0.0
H1228 H 0.82945 0.73092 0.57039 0.0
H1229 H 0.76316 0.71229 0.61011 0.0
H1230 H 0.73706 0.69592 0.65327 0.0
H1231 H 0.75441 0.73084 0.76213 0.0
H1232 H 0.78081 0.74722 0.71979 0.0
H1233 H 0.81279 0.83446 0.54754 0.0
H1234 H 0.80377 0.79888 0.54428 0.0
H1235 H 0.80997 0.79451 0.68082 0.0
H1236 H 0.81869 0.82986 0.68437 0.0
H1237 H 0.77996 0.77042 0.65271 0.0
H1238 H 0.84911 0.78418 0.61712 0.0
H1239 H 0.87637 0.79992 0.57613 0.0
H1240 H 0.85405 0.77316 0.46105 0.0
H1241 H 0.82648 0.75747 0.50134 0.0
C1242 C 0.8142 0.67786 0.65952 0.0
C1243 C 0.81721 0.66658 0.62229 0.0
C1244 C 0.80883 0.69811 0.65676 0.0
C1245 C 0.80604 0.70725 0.61676 0.0
C1246 C 0.80757 0.6955 0.57983 0.0
C1247 C 0.81315 0.67542 0.58254 0.0
C1248 C 0.80418 0.72938 0.61294 0.0
C1249 C 0.81826 0.73946 0.58761 0.0
C1250 C 0.78997 0.74067 0.63624 0.0
C1251 C 0.77408 0.73088 0.66182 0.0
C1252 C 0.76152 0.71637 0.64334 0.0
C1253 C 0.74665 0.70711 0.66764 0.0
C1254 C 0.7441 0.71231 0.71043 0.0
C1255 C 0.7564 0.72682 0.72898 0.0
C1256 C 0.77131 0.73612 0.70482 0.0
C1257 C 0.81171 0.82603 0.57693 0.0
C1258 C 0.81675 0.83491 0.61612 0.0
C1259 C 0.80663 0.80568 0.57503 0.0
C1260 C 0.80652 0.79395 0.61228 0.0
C1261 C 0.81 0.80321 0.65167 0.0
C1262 C 0.81512 0.82344 0.65358 0.0
C1263 C 0.8052 0.77175 0.6102 0.0
C1264 C 0.79074 0.76172 0.63471 0.0
C1265 C 0.81911 0.7604 0.58634 0.0
C1266 C 0.83561 0.76988 0.56211 0.0
C1267 C 0.84993 0.7818 0.58302 0.0
C1268 C 0.86544 0.79068 0.55993 0.0
C1269 C 0.86689 0.78758 0.51601 0.0
C1270 C 0.85286 0.77557 0.49507 0.0
C1271 C 0.83729 0.76669 0.518 0.0
H1272 H 0.87892 0.7944 0.49821 0.0
H1273 H 0.73258 0.70512 0.7292 0.0
H1274 H 0.83445 0.18947 0.4551 0.0
H1275 H 0.79914 0.19918 0.46111 0.0
H1276 H 0.793 0.19598 0.32441 0.0
H1277 H 0.82807 0.18661 0.31814 0.0
H1278 H 0.77004 0.2258 0.35599 0.0
H1279 H 0.78242 0.15576 0.38586 0.0
H1280 H 0.79738 0.12714 0.42389 0.0
H1281 H 0.77228 0.1481 0.54169 0.0
H1282 H 0.75738 0.17702 0.50436 0.0
H1283 H 0.67091 0.18965 0.31717 0.0
H1284 H 0.70626 0.19912 0.32244 0.0
H1285 H 0.7017 0.19973 0.45964 0.0
H1286 H 0.66664 0.1898 0.45449 0.0
H1287 H 0.73022 0.17575 0.43602 0.0
H1288 H 0.7123 0.24275 0.4014 0.0
H1289 H 0.69607 0.26978 0.36059 0.0
H1290 H 0.7303 0.25396 0.24986 0.0
H1291 H 0.74654 0.22664 0.28981 0.0
C1292 C 0.82569 0.19134 0.42631 0.0
C1293 C 0.83399 0.18698 0.38621 0.0
C1294 C 0.8055 0.19681 0.42977 0.0
C1295 C 0.79333 0.19799 0.39322 0.0
C1296 C 0.80203 0.19514 0.35305 0.0
C1297 C 0.8221 0.18964 0.34958 0.0
C1298 C 0.77121 0.19983 0.39655 0.0
C1299 C 0.76128 0.2149 0.37351 0.0
C1300 C 0.75977 0.18579 0.41989 0.0
C1301 C 0.76904 0.16866 0.44246 0.0
C1302 C 0.78028 0.15437 0.41995 0.0
C1303 C 0.78871 0.13808 0.44136 0.0
C1304 C 0.78582 0.13584 0.4852 0.0
C1305 C 0.77453 0.14989 0.50775 0.0
C1306 C 0.76611 0.16623 0.48649 0.0
C1307 C 0.67732 0.1924 0.34835 0.0
C1308 C 0.66613 0.18874 0.3854 0.0
C1309 C 0.69753 0.19786 0.35138 0.0
C1310 C 0.70672 0.20007 0.39151 0.0
C1311 C 0.69503 0.19797 0.42837 0.0
C1312 C 0.67499 0.19229 0.42537 0.0
C1313 C 0.72886 0.20169 0.3953 0.0
C1314 C 0.73885 0.18707 0.41939 0.0
C1315 C 0.74023 0.21608 0.37272 0.0
C1316 C 0.73055 0.23254 0.34856 0.0
C1317 C 0.71627 0.24493 0.36825 0.0
C1318 C 0.70708 0.26032 0.34529 0.0
C1319 C 0.71213 0.26356 0.30264 0.0
C1320 C 0.7264 0.25143 0.2829 0.0
C1321 C 0.73563 0.236 0.30571 0.0
H1322 H 0.705 0.27549 0.28491 0.0
H1323 H 0.79221 0.12316 0.50169 0.0
H1324 H 0.20593 0.33965 0.59432 0.0
H1325 H 0.21405 0.30408 0.59792 0.0
H1326 H 0.18458 0.29997 0.71982 0.0
H1327 H 0.17682 0.33584 0.71685 0.0
H1328 H 0.2166 0.27333 0.71307 0.0
H1329 H 0.15813 0.29209 0.63161 0.0
H1330 H 0.1401 0.31096 0.57602 0.0
H1331 H 0.17821 0.28564 0.48 0.0
H1332 H 0.19668 0.26684 0.53518 0.0
H1333 H 0.17237 0.17771 0.71187 0.0
H1334 H 0.18249 0.21258 0.71438 0.0
H1335 H 0.20671 0.20777 0.58738 0.0
H1336 H 0.19612 0.17261 0.58421 0.0
H1337 H 0.18238 0.23876 0.59337 0.0
H1338 H 0.23734 0.21537 0.6761 0.0
H1339 H 0.25427 0.19637 0.73301 0.0
H1340 H 0.22205 0.22959 0.82787 0.0
H1341 H 0.20469 0.2486 0.77154 0.0
C1342 C 0.20174 0.33131 0.62255 0.0
C1343 C 0.19052 0.34043 0.65508 0.0
C1344 C 0.20636 0.31097 0.62451 0.0
C1345 C 0.19947 0.29927 0.6586 0.0
C1346 C 0.18995 0.30871 0.69311 0.0
C1347 C 0.18554 0.32922 0.69143 0.0
C1348 C 0.19967 0.27709 0.65527 0.0
C1349 C 0.20908 0.26571 0.68706 0.0
C1350 C 0.19018 0.26718 0.62081 0.0
C1351 C 0.17892 0.27824 0.58754 0.0
C1352 C 0.16275 0.29065 0.59867 0.0
C1353 C 0.15244 0.30132 0.56724 0.0
C1354 C 0.15804 0.29954 0.52451 0.0
C1355 C 0.17392 0.28703 0.51312 0.0
C1356 C 0.18431 0.27636 0.54445 0.0
C1357 C 0.18011 0.1839 0.68457 0.0
C1358 C 0.18328 0.17236 0.64763 0.0
C1359 C 0.18608 0.20388 0.68627 0.0
C1360 C 0.19556 0.21282 0.65128 0.0
C1361 C 0.19948 0.20116 0.61487 0.0
C1362 C 0.19347 0.18106 0.61312 0.0
C1363 C 0.19924 0.23478 0.65132 0.0
C1364 C 0.19035 0.24623 0.61899 0.0
C1365 C 0.2091 0.24465 0.68545 0.0
C1366 C 0.21962 0.23335 0.71951 0.0
C1367 C 0.23376 0.21854 0.70908 0.0
C1368 C 0.24345 0.20778 0.74125 0.0
C1369 C 0.23922 0.21175 0.78403 0.0
C1370 C 0.22531 0.22653 0.79472 0.0
C1371 C 0.21557 0.23733 0.76267 0.0
H1372 H 0.24673 0.20339 0.80888 0.0
H1373 H 0.15005 0.30782 0.50022 0.0
H1374 H 0.17453 0.82791 0.30848 0.0
H1375 H 0.2099 0.81916 0.31156 0.0
H1376 H 0.2065 0.81524 0.44859 0.0
H1377 H 0.17087 0.82409 0.44573 0.0
H1378 H 0.23568 0.84086 0.42127 0.0
H1379 H 0.21576 0.77371 0.39007 0.0
H1380 H 0.198 0.74706 0.35099 0.0
H1381 H 0.22985 0.76227 0.23671 0.0
H1382 H 0.24761 0.78921 0.27494 0.0
H1383 H 0.33635 0.8192 0.44706 0.0
H1384 H 0.30059 0.81204 0.44615 0.0
H1385 H 0.2997 0.81892 0.30951 0.0
H1386 H 0.33578 0.82598 0.31009 0.0
H1387 H 0.2727 0.78917 0.33951 0.0
H1388 H 0.28919 0.85789 0.36556 0.0
H1389 H 0.30676 0.88574 0.40109 0.0
H1390 H 0.2805 0.8691 0.52079 0.0
H1391 H 0.26307 0.84088 0.48609 0.0
C1392 C 0.18117 0.82477 0.33927 0.0
C1393 C 0.16994 0.82683 0.37693 0.0
C1394 C 0.2014 0.81965 0.34094 0.0
C1395 C 0.21085 0.81649 0.38027 0.0
C1396 C 0.19946 0.81756 0.41787 0.0
C1397 C 0.1791 0.82252 0.4162 0.0
C1398 C 0.23297 0.81451 0.38212 0.0
C1399 C 0.24373 0.82924 0.40425 0.0
C1400 C 0.24351 0.79985 0.35842 0.0
C1401 C 0.23292 0.78359 0.33534 0.0
C1402 C 0.21887 0.77148 0.35652 0.0
C1403 C 0.20882 0.7563 0.33453 0.0
C1404 C 0.21277 0.753 0.29137 0.0
C1405 C 0.2268 0.76485 0.27014 0.0
C1406 C 0.23689 0.78006 0.29198 0.0
C1407 C 0.32867 0.81876 0.41664 0.0
C1408 C 0.33881 0.82348 0.37868 0.0
C1409 C 0.30823 0.81465 0.41621 0.0
C1410 C 0.29744 0.81535 0.37789 0.0
C1411 C 0.30777 0.81837 0.33944 0.0
C1412 C 0.32837 0.8224 0.33981 0.0
C1413 C 0.27524 0.8154 0.37894 0.0
C1414 C 0.26455 0.80051 0.3571 0.0
C1415 C 0.26466 0.83009 0.40239 0.0
C1416 C 0.27501 0.84713 0.42333 0.0
C1417 C 0.2873 0.86006 0.39953 0.0
C1418 C 0.29721 0.87593 0.4195 0.0
C1419 C 0.29478 0.87917 0.46318 0.0
C1420 C 0.2824 0.86655 0.48697 0.0
C1421 C 0.2725 0.85061 0.46717 0.0
H1422 H 0.30245 0.89147 0.47858 0.0
H1423 H 0.20497 0.74124 0.2744 0.0
H1424 H 0.20323 0.08069 0.724 0.0
H1425 H 0.23041 0.07598 0.77535 0.0
H1426 H 0.19526 0.10523 0.87226 0.0
H1427 H 0.16815 0.11019 0.82101 0.0
H1428 H 0.23126 0.12109 0.86994 0.0
H1429 H 0.20553 0.05434 0.87572 0.0
H1430 H 0.19423 0.02193 0.84678 0.0
H1431 H 0.25258 0.0116 0.794 0.0
H1432 H 0.26416 0.04408 0.82215 0.0
H1433 H 0.30176 0.07318 0.03558 0.0
H1434 H 0.27312 0.06966 0.98714 0.0
H1435 H 0.30141 0.10962 0.89781 0.0
H1436 H 0.33005 0.11311 0.94566 0.0
H1437 H 0.26739 0.05793 0.90142 0.0
H1438 H 0.26483 0.14262 0.86347 0.0
H1439 H 0.2747 0.1747 0.89636 0.0
H1440 H 0.26994 0.14846 0.02083 0.0
H1441 H 0.25972 0.11633 0.98875 0.0
C1442 C 0.20108 0.08573 0.75648 0.0
C1443 C 0.18344 0.09583 0.76825 0.0
C1444 C 0.21669 0.08303 0.78591 0.0
C1445 C 0.21499 0.09025 0.82787 0.0
C1446 C 0.19705 0.09959 0.84011 0.0
C1447 C 0.18146 0.1023 0.81075 0.0
C1448 C 0.23232 0.08934 0.8581 0.0
C1449 C 0.2391 0.10724 0.87676 0.0
C1450 C 0.24256 0.07129 0.8676 0.0
C1451 C 0.23566 0.05173 0.85073 0.0
C1452 C 0.21591 0.04523 0.85766 0.0
C1453 C 0.20946 0.02683 0.84145 0.0
C1454 C 0.22266 0.01473 0.81848 0.0
C1455 C 0.24236 0.02099 0.81176 0.0
C1456 C 0.24888 0.03938 0.82788 0.0
C1457 C 0.3021 0.08086 0.00521 0.0
C1458 C 0.31824 0.09349 0.99469 0.0
C1459 C 0.28568 0.07885 0.97754 0.0
C1460 C 0.28495 0.0896 0.93908 0.0
C1461 C 0.30151 0.10135 0.92751 0.0
C1462 C 0.31795 0.10324 0.9549 0.0
C1463 C 0.26644 0.08971 0.91238 0.0
C1464 C 0.2595 0.07173 0.89445 0.0
C1465 C 0.25586 0.10765 0.90391 0.0
C1466 C 0.26174 0.12699 0.92362 0.0
C1467 C 0.26582 0.14372 0.89786 0.0
C1468 C 0.27148 0.16191 0.91637 0.0
C1469 C 0.27303 0.16359 0.96064 0.0
C1470 C 0.26882 0.14711 0.98653 0.0
C1471 C 0.26312 0.1289 0.96819 0.0
H1472 H 0.27747 0.17766 0.9749 0.0
H1473 H 0.21764 1.0005 0.80595 0.0
H1474 H 0.11315 0.84069 0.189 0.0
H1475 H 0.10791 0.81358 0.13791 0.0
H1476 H 0.07403 0.78091 0.23186 0.0
H1477 H 0.07899 0.80814 0.28301 0.0
H1478 H 0.12141 0.77689 0.14253 0.0
H1479 H 0.04153 0.74861 0.182 0.0
H1480 H 0.0091 0.76218 0.20595 0.0
H1481 H 0.02415 0.81957 0.15343 0.0
H1482 H 0.05654 0.80628 0.12868 0.0
H1483 H 0.11114 0.67927 0.0639 0.0
H1484 H 0.10724 0.70747 0.11271 0.0
H1485 H 0.07022 0.73776 0.02051 0.0
H1486 H 0.07405 0.70951 0.97127 0.0
H1487 H 0.05715 0.74421 0.10446 0.0
H1488 H 0.11775 0.74892 0.02347 0.0
H1489 H 0.14975 0.73654 0.99459 0.0
H1490 H 0.1728 0.72979 0.12158 0.0
H1491 H 0.14078 0.74179 0.15124 0.0
C1492 C 0.10421 0.82795 0.1986 0.0
C1493 C 0.09648 0.82667 0.24024 0.0
C1494 C 0.10133 0.81235 0.16935 0.0
C1495 C 0.09059 0.79508 0.18082 0.0
C1496 C 0.08217 0.79411 0.22186 0.0
C1497 C 0.08503 0.80974 0.25117 0.0
C1498 C 0.08942 0.77765 0.15089 0.0
C1499 C 0.10732 0.76982 0.13431 0.0
C1500 C 0.07107 0.76839 0.13949 0.0
C1501 C 0.05155 0.77648 0.15388 0.0
C1502 C 0.03789 0.7641 0.17543 0.0
C1503 C 0.01952 0.77175 0.18917 0.0
C1504 C 0.0146 0.79174 0.18134 0.0
C1505 C 0.02801 0.80411 0.15963 0.0
C1506 C 0.04639 0.79653 0.1458 0.0
C1507 C 0.10178 0.69169 0.05424 0.0
C1508 C 0.09302 0.69211 0.0134 0.0
C1509 C 0.09963 0.70789 0.08221 0.0
C1510 C 0.0887 0.72492 0.0701 0.0
C1511 C 0.07877 0.72483 0.03058 0.0
C1512 C 0.08097 0.70863 0.00243 0.0
C1513 C 0.08915 0.74337 0.09703 0.0
C1514 C 0.07119 0.75134 0.11292 0.0
C1515 C 0.10741 0.75301 0.10732 0.0
C1516 C 0.1268 0.74608 0.08958 0.0
C1517 C 0.12959 0.74466 0.04524 0.0
C1518 C 0.14773 0.73772 0.02873 0.0
C1519 C 0.16328 0.73234 0.05623 0.0
C1520 C 0.16073 0.73394 0.10031 0.0
C1521 C 0.14259 0.74081 0.117 0.0
H1522 H 0.17731 0.72696 0.04338 0.0
H1523 H 1.00038 0.79763 0.19202 0.0
H1524 H 0.70194 0.93247 0.02848 0.0
H1525 H 0.72842 0.93888 0.97623 0.0
H1526 H 0.70535 0.89136 0.89704 0.0
H1527 H 0.67856 0.88552 0.94797 0.0
H1528 H 0.75793 0.91783 0.95327 0.0
H1529 H 0.7174 0.89586 0.79507 0.0
H1530 H 0.68402 0.89933 0.76231 0.0
H1531 H 0.67177 0.95018 0.84179 0.0
H1532 H 0.70517 0.9472 0.87463 0.0
H1533 H 0.8271 0.88376 0.80073 0.0
H1534 H 0.80037 0.88992 0.85164 0.0
H1535 H 0.77882 0.93871 0.7741 0.0
H1536 H 0.80517 0.93193 0.72177 0.0
H1537 H 0.74866 0.91874 0.79646 0.0
H1538 H 0.80256 0.94528 0.87651 0.0
H1539 H 0.83604 0.94658 0.90949 0.0
H1540 H 0.82171 0.89543 0.98645 0.0
H1541 H 0.78823 0.89365 0.95353 0.0
C1542 C 0.70222 0.92373 0.9994 0.0
C1543 C 0.68798 0.90856 0.99241 0.0
C1544 C 0.7175 0.92731 0.96962 0.0
C1545 C 0.71897 0.91574 0.93222 0.0
C1546 C 0.70444 0.90089 0.92488 0.0
C1547 C 0.68907 0.8975 0.9543 0.0
C1548 C 0.73631 0.91817 0.90229 0.0
C1549 C 0.75585 0.91816 0.91899 0.0
C1550 C 0.73382 0.91918 0.85743 0.0
C1551 C 0.71375 0.92119 0.83755 0.0
C1552 C 0.70763 0.90784 0.80542 0.0
C1553 C 0.68869 0.90971 0.78687 0.0
C1554 C 0.67576 0.92493 0.80004 0.0
C1555 C 0.68177 0.93836 0.83172 0.0
C1556 C 0.7007 0.93656 0.85036 0.0
C1557 C 0.81693 0.89607 0.79477 0.0
C1558 C 0.81841 0.9074 0.7571 0.0
C1559 C 0.8016 0.89965 0.82418 0.0
C1560 C 0.78753 0.91498 0.81736 0.0
C1561 C 0.78937 0.92676 0.78035 0.0
C1562 C 0.80457 0.92297 0.75051 0.0
C1563 C 0.77028 0.91776 0.84741 0.0
C1564 C 0.75076 0.91867 0.83074 0.0
C1565 C 0.7728 0.91825 0.89232 0.0
C1566 C 0.79291 0.91926 0.91232 0.0
C1567 C 0.80659 0.93423 0.90027 0.0
C1568 C 0.82556 0.93506 0.91898 0.0
C1569 C 0.83101 0.92107 0.94999 0.0
C1570 C 0.81747 0.90625 0.96242 0.0
C1571 C 0.79848 0.90534 0.94378 0.0
H1572 H 0.84571 0.92174 0.96444 0.0
H1573 H 0.66111 0.92635 0.78565 0.0
H1574 H 0.88129 0.17726 0.19451 0.0
H1575 H 0.88762 0.20403 0.14365 0.0
H1576 H 0.9357 0.22598 0.22274 0.0
H1577 H 0.92887 0.19951 0.27481 0.0
H1578 H 0.91501 0.25604 0.19939 0.0
H1579 H 0.94353 0.20218 0.12198 0.0
H1580 H 0.94555 0.1686 0.08965 0.0
H1581 H 0.89539 0.18225 0.00914 0.0
H1582 H 0.89289 0.21582 0.04137 0.0
H1583 H 0.93352 0.30262 0.96909 0.0
H1584 H 0.93878 0.27621 0.02215 0.0
H1585 H 0.88884 0.29863 0.09493 0.0
H1586 H 0.88404 0.32532 0.04313 0.0
H1587 H 0.91706 0.24636 0.04275 0.0
H1588 H 0.89131 0.28691 0.19778 0.0
H1589 H 0.89341 0.32046 0.23025 0.0
H1590 H 0.94579 0.33341 0.15609 0.0
H1591 H 0.94417 0.29985 0.12359 0.0
C1592 C 0.89347 0.18753 0.20086 0.0
C1593 C 0.90462 0.1861 0.23883 0.0
C1594 C 0.89714 0.20289 0.1715 0.0
C1595 C 0.91232 0.21707 0.17879 0.0
C1596 C 0.92388 0.21532 0.21616 0.0
C1597 C 0.92006 0.20005 0.24585 0.0
C1598 C 0.91524 0.23428 0.14871 0.0
C1599 C 0.91557 0.25386 0.16516 0.0
C1600 C 0.91649 0.23165 0.10392 0.0
C1601 C 0.91795 0.21148 0.08433 0.0
C1602 C 0.93285 0.19797 0.09758 0.0
C1603 C 0.93409 0.17894 0.07924 0.0
C1604 C 0.92058 0.17328 0.04742 0.0
C1605 C 0.90584 0.18665 0.0338 0.0
C1606 C 0.90452 0.2057 0.05206 0.0
C1607 C 0.92398 0.30221 0.99694 0.0
C1608 C 0.90844 0.31624 1.00186 0.0
C1609 C 0.92689 0.28697 0.02717 0.0
C1610 C 0.91433 0.28535 0.06301 0.0
C1611 C 0.8991 0.29966 0.06832 0.0
C1612 C 0.89631 0.31497 0.03842 0.0
C1613 C 0.91623 0.26812 0.09339 0.0
C1614 C 0.91673 0.24853 0.077 0.0
C1615 C 0.9163 0.27074 0.13827 0.0
C1616 C 0.91752 0.2909 0.15801 0.0
C1617 C 0.90334 0.29687 0.18855 0.0
C1618 C 0.90443 0.31591 0.20693 0.0
C1619 C 0.91969 0.32908 0.19516 0.0
C1620 C 0.93393 0.32322 0.16507 0.0
C1621 C 0.93292 0.3042 0.14662 0.0
H1622 H 0.9205 0.34381 0.2094 0.0
H1623 H 0.92157 0.15854 0.03326 0.0
H1624 H 0.20545 0.43286 0.52068 0.0
H1625 H 0.23212 0.43929 0.4688 0.0
H1626 H 0.21531 0.386 0.39985 0.0
H1627 H 0.1884 0.37992 0.45045 0.0
H1628 H 0.26419 0.41975 0.45114 0.0
H1629 H 0.2271 0.38802 0.29715 0.0
H1630 H 0.19371 0.38659 0.26373 0.0
H1631 H 0.17575 0.43886 0.3335 0.0
H1632 H 0.20911 0.44077 0.36691 0.0
H1633 H 0.33629 0.38637 0.30301 0.0
H1634 H 0.30923 0.39202 0.35351 0.0
H1635 H 0.28427 0.43706 0.27054 0.0
H1636 H 0.31107 0.43091 0.21894 0.0
H1637 H 0.25578 0.41429 0.2945 0.0
H1638 H 0.30668 0.44837 0.37087 0.0
H1639 H 0.33978 0.45365 0.40383 0.0
H1640 H 0.3296 0.40408 0.4881 0.0
H1641 H 0.29655 0.39831 0.45527 0.0
C1642 C 0.20718 0.42275 0.49395 0.0
C1643 C 0.19464 0.40594 0.48968 0.0
C1644 C 0.22255 0.42637 0.46441 0.0
C1645 C 0.22575 0.41327 0.42993 0.0
C1646 C 0.213 0.39665 0.4254 0.0
C1647 C 0.19758 0.39314 0.45461 0.0
C1648 C 0.24296 0.41622 0.39999 0.0
C1649 C 0.2623 0.41868 0.41688 0.0
C1650 C 0.24063 0.41534 0.35509 0.0
C1651 C 0.22058 0.41444 0.33477 0.0
C1652 C 0.21607 0.39927 0.3052 0.0
C1653 C 0.19713 0.39836 0.2863 0.0
C1654 C 0.1826 0.41259 0.29657 0.0
C1655 C 0.18699 0.42781 0.32568 0.0
C1656 C 0.20591 0.42879 0.34465 0.0
C1657 C 0.3253 0.39779 0.29576 0.0
C1658 C 0.32595 0.40821 0.2568 0.0
C1659 C 0.30978 0.40107 0.3249 0.0
C1660 C 0.29464 0.41512 0.31631 0.0
C1661 C 0.29568 0.4261 0.27809 0.0
C1662 C 0.31113 0.42268 0.24867 0.0
C1663 C 0.27709 0.41721 0.34571 0.0
C1664 C 0.25767 0.41562 0.32872 0.0
C1665 C 0.27932 0.41941 0.39043 0.0
C1666 C 0.29918 0.42283 0.41038 0.0
C1667 C 0.31156 0.43851 0.39623 0.0
C1668 C 0.3303 0.4416 0.41493 0.0
C1669 C 0.3368 0.42919 0.44799 0.0
C1670 C 0.32455 0.41368 0.46248 0.0
C1671 C 0.30579 0.41051 0.44388 0.0
H1672 H 0.35132 0.43161 0.46242 0.0
H1673 H 0.16795 0.41185 0.28192 0.0
H1674 H 0.42363 0.79761 0.46823 0.0
H1675 H 0.42835 0.77014 0.51903 0.0
H1676 H 0.41071 0.80892 0.62209 0.0
H1677 H 0.40544 0.83635 0.57135 0.0
H1678 H 0.44565 0.78063 0.63834 0.0
H1679 H 0.37656 0.78294 0.58885 0.0
H1680 H 0.35083 0.78378 0.53245 0.0
H1681 H 0.37254 0.72797 0.48281 0.0
H1682 H 0.39863 0.727 0.53852 0.0
H1683 H 0.41692 0.71296 0.80158 0.0
H1684 H 0.42207 0.73965 0.74981 0.0
H1685 H 0.41424 0.69731 0.64715 0.0
H1686 H 0.40772 0.67082 0.69919 0.0
H1687 H 0.39447 0.7271 0.62727 0.0
H1688 H 0.46172 0.72208 0.67656 0.0
H1689 H 0.48933 0.72056 0.72868 0.0
H1690 H 0.47434 0.77936 0.77371 0.0
H1691 H 0.44648 0.78114 0.72222 0.0
C1692 C 0.42121 0.80046 0.50182 0.0
C1693 C 0.41414 0.8192 0.5157 0.0
C1694 C 0.42384 0.7847 0.5308 0.0
C1695 C 0.4198 0.78745 0.57434 0.0
C1696 C 0.41397 0.80648 0.58868 0.0
C1697 C 0.41095 0.82214 0.55961 0.0
C1698 C 0.41984 0.7701 0.60417 0.0
C1699 C 0.43441 0.76896 0.63628 0.0
C1700 C 0.40554 0.75458 0.6006 0.0
C1701 C 0.38968 0.75502 0.56752 0.0
C1702 C 0.37596 0.77095 0.56567 0.0
C1703 C 0.36129 0.77143 0.53388 0.0
C1704 C 0.36009 0.75597 0.50398 0.0
C1705 C 0.37351 0.73996 0.50593 0.0
C1706 C 0.38824 0.73943 0.53761 0.0
C1707 C 0.41672 0.70923 0.76798 0.0
C1708 C 0.41202 0.68971 0.75456 0.0
C1709 C 0.41976 0.72457 0.73819 0.0
C1710 C 0.41885 0.72067 0.69411 0.0
C1711 C 0.41498 0.70091 0.68078 0.0
C1712 C 0.41141 0.68568 0.71059 0.0
C1713 C 0.4204 0.73734 0.66215 0.0
C1714 C 0.40598 0.7385 0.62948 0.0
C1715 C 0.43513 0.75265 0.6648 0.0
C1716 C 0.4519 0.75167 0.69575 0.0
C1717 C 0.46423 0.73463 0.69777 0.0
C1718 C 0.47994 0.73373 0.72717 0.0
C1719 C 0.48356 0.74983 0.75455 0.0
C1720 C 0.47151 0.76689 0.7525 0.0
C1721 C 0.45577 0.76787 0.72318 0.0
H1722 H 0.49572 0.7491 0.7773 0.0
H1723 H 0.34873 0.75637 0.47939 0.0
H1724 H 0.70897 0.58608 0.21667 0.0
H1725 H 0.73625 0.58136 0.26735 0.0
H1726 H 0.69617 0.5949 0.37122 0.0
H1727 H 0.6691 0.60079 0.32015 0.0
H1728 H 0.7276 0.6138 0.38563 0.0
H1729 H 0.71734 0.54544 0.34817 0.0
H1730 H 0.71315 0.51626 0.30086 0.0
H1731 H 0.77203 0.52559 0.24998 0.0
H1732 H 0.77648 0.555 0.2966 0.0
H1733 H 0.79647 0.58324 0.54682 0.0
H1734 H 0.76881 0.57904 0.49634 0.0
H1735 H 0.80829 0.59323 0.39218 0.0
H1736 H 0.83598 0.59806 0.44264 0.0
H1737 H 0.77723 0.55865 0.38056 0.0
H1738 H 0.78511 0.62896 0.41871 0.0
H1739 H 0.78865 0.65615 0.47138 0.0
H1740 H 0.73213 0.64021 0.52677 0.0
H1741 H 0.72844 0.61266 0.47489 0.0
C1742 C 0.70583 0.58764 0.25038 0.0
C1743 C 0.68677 0.59371 0.2643 0.0
C1744 C 0.72152 0.58487 0.27954 0.0
C1745 C 0.71844 0.58751 0.32359 0.0
C1746 C 0.69914 0.59282 0.33758 0.0
C1747 C 0.68356 0.59603 0.30832 0.0
C1748 C 0.73553 0.58606 0.35463 0.0
C1749 C 0.73816 0.60149 0.38471 0.0
C1750 C 0.74976 0.57024 0.35364 0.0
C1751 C 0.74717 0.55254 0.32562 0.0
C1752 C 0.72934 0.54136 0.32668 0.0
C1753 C 0.72693 0.52476 0.30002 0.0
C1754 C 0.74229 0.5191 0.27236 0.0
C1755 C 0.76013 0.53 0.27139 0.0
C1756 C 0.76262 0.54662 0.29796 0.0
C1757 C 0.79945 0.58498 0.51309 0.0
C1758 C 0.81849 0.59098 0.49881 0.0
C1759 C 0.78356 0.58265 0.48428 0.0
C1760 C 0.78645 0.5859 0.4405 0.0
C1761 C 0.80573 0.59059 0.4258 0.0
C1762 C 0.82155 0.59334 0.4547 0.0
C1763 C 0.76902 0.58629 0.41083 0.0
C1764 C 0.76644 0.57077 0.38123 0.0
C1765 C 0.75463 0.60178 0.41269 0.0
C1766 C 0.75661 0.61861 0.44325 0.0
C1767 C 0.77352 0.63114 0.44236 0.0
C1768 C 0.77554 0.64663 0.47203 0.0
C1769 C 0.76065 0.64987 0.50249 0.0
C1770 C 0.74367 0.63766 0.50321 0.0
C1771 C 0.7416 0.62211 0.47368 0.0
H1772 H 0.76226 0.66186 0.52546 0.0
H1773 H 0.74039 0.50625 0.25174 0.0
H1774 H 0.58255 0.20834 0.45835 0.0
H1775 H 0.57857 0.23597 0.50892 0.0
H1776 H 0.59307 0.1964 0.61283 0.0
H1777 H 0.59764 0.16873 0.56228 0.0
H1778 H 0.55914 0.22729 0.62617 0.0
H1779 H 0.62881 0.21975 0.58408 0.0
H1780 H 0.65541 0.2163 0.53013 0.0
H1781 H 0.63882 0.27289 0.47574 0.0
H1782 H 0.61185 0.27647 0.52891 0.0
H1783 H 0.5887 0.29591 0.78808 0.0
H1784 H 0.58334 0.26851 0.73793 0.0
H1785 H 0.59462 0.30862 0.63286 0.0
H1786 H 0.60108 0.33582 0.68326 0.0
H1787 H 0.61386 0.27732 0.61781 0.0
H1788 H 0.54594 0.28706 0.65938 0.0
H1789 H 0.51741 0.29098 0.70844 0.0
H1790 H 0.52797 0.23217 0.75876 0.0
H1791 H 0.55674 0.22799 0.71037 0.0
C1792 C 0.58439 0.20534 0.49205 0.0
C1793 C 0.59043 0.18628 0.50621 0.0
C1794 C 0.58218 0.2212 0.52091 0.0
C1795 C 0.58561 0.21828 0.56463 0.0
C1796 C 0.59029 0.19897 0.57926 0.0
C1797 C 0.5929 0.18317 0.5503 0.0
C1798 C 0.5863 0.23571 0.59425 0.0
C1799 C 0.57117 0.23817 0.62477 0.0
C1800 C 0.60168 0.25019 0.59151 0.0
C1801 C 0.61817 0.24827 0.56015 0.0
C1802 C 0.63072 0.23137 0.56038 0.0
C1803 C 0.64588 0.2294 0.52998 0.0
C1804 C 0.64876 0.24434 0.49944 0.0
C1805 C 0.63654 0.26131 0.49936 0.0
C1806 C 0.62132 0.26332 0.52963 0.0
C1807 C 0.58962 0.29902 0.75426 0.0
C1808 C 0.59523 0.31813 0.73975 0.0
C1809 C 0.58649 0.28327 0.72542 0.0
C1810 C 0.58833 0.28633 0.68118 0.0
C1811 C 0.59316 0.30568 0.66666 0.0
C1812 C 0.5967 0.32132 0.69555 0.0
C1813 C 0.5866 0.26919 0.65037 0.0
C1814 C 0.60164 0.26667 0.61944 0.0
C1815 C 0.57092 0.25485 0.65237 0.0
C1816 C 0.55362 0.25729 0.6815 0.0
C1817 C 0.54227 0.27502 0.68112 0.0
C1818 C 0.52604 0.27728 0.70877 0.0
C1819 C 0.52091 0.26186 0.73677 0.0
C1820 C 0.53197 0.24412 0.73709 0.0
C1821 C 0.54823 0.24178 0.70952 0.0
H1822 H 0.50834 0.26364 0.75816 0.0
H1823 H 0.6605 0.24277 0.47591 0.0
loop_
_geom_bond_atom_site_label_1
_geom_bond_atom_site_label_2
_geom_bond_distance
_geom_bond_site_symmetry_2
_ccdc_geom_bond_type
O0 Cd1 2.223 . S
O0 C8 1.315 . S
Cd1 O0 2.223 . S
Cd1 O4 2.297 . S
Cd1 O5 2.439 . S
Cd1 O11 2.240 . S
Cd2 O3 2.240 . S
Cd2 O10 2.223 . S
Cd2 O12 2.297 . S
Cd2 O13 2.439 . S
O3 Cd2 2.240 . S
O3 C8 1.279 . S
O4 Cd1 2.297 . S
O4 C6 1.247 . S
O5 Cd1 2.439 . S
O5 C6 1.208 . S
C6 O4 1.247 . S
C6 O5 1.208 . S
C7 O12 1.247 . S
C7 O13 1.208 . S
C8 O0 1.315 . S
C8 O3 1.279 . S
C9 O10 1.315 . S
C9 O11 1.279 . S
O10 Cd2 2.223 . S
O10 C9 1.315 . S
O11 Cd1 2.240 . S
O11 C9 1.279 . S
O12 Cd2 2.297 . S
O12 C7 1.247 . S
O13 Cd2 2.439 . S
O13 C7 1.208 . S
O14 Cd15 2.223 . S
O14 C22 1.315 . S
Cd15 O14 2.223 . S
Cd15 O18 2.297 . S
Cd15 O19 2.439 . S
Cd15 O25 2.240 . S
Cd16 O17 2.240 . S
Cd16 O24 2.223 . S
Cd16 O26 2.297 . S
Cd16 O27 2.439 . S
O17 Cd16 2.240 . S
O17 C22 1.279 . S
O18 Cd15 2.297 . S
O18 C20 1.247 . S
O19 Cd15 2.439 . S
O19 C20 1.208 . S
C20 O18 1.247 . S
C20 O19 1.208 . S
C21 O26 1.247 . S
C21 O27 1.208 . S
C22 O14 1.315 . S
C22 O17 1.279 . S
C23 O24 1.315 . S
C23 O25 1.279 . S
O24 Cd16 2.223 . S
O24 C23 1.315 . S
O25 Cd15 2.240 . S
O25 C23 1.279 . S
O26 Cd16 2.297 . S
O26 C21 1.247 . S
O27 Cd16 2.439 . S
O27 C21 1.208 . S
O28 Cd29 2.223 . S
O28 C36 1.315 . S
Cd29 O28 2.223 . S
Cd29 O32 2.297 . S
Cd29 O33 2.439 . S
Cd29 O39 2.240 . S
Cd30 O31 2.240 . S
Cd30 O38 2.223 . S
Cd30 O40 2.297 . S
Cd30 O41 2.439 . S
O31 Cd30 2.240 . S
O31 C36 1.279 . S
O32 Cd29 2.297 . S
O32 C34 1.247 . S
O33 Cd29 2.439 . S
O33 C34 1.208 . S
C34 O32 1.247 . S
C34 O33 1.208 . S
C35 O40 1.247 . S
C35 O41 1.208 . S
C36 O28 1.315 . S
C36 O31 1.279 . S
C37 O38 1.315 . S
C37 O39 1.279 . S
O38 Cd30 2.223 . S
O38 C37 1.315 . S
O39 Cd29 2.240 . S
O39 C37 1.279 . S
O40 Cd30 2.297 . S
O40 C35 1.247 . S
O41 Cd30 2.439 . S
O41 C35 1.208 . S
O42 Cd43 2.223 . S
O42 C50 1.315 . S
Cd43 O42 2.223 . S
Cd43 O46 2.297 . S
Cd43 O47 2.439 . S
Cd43 O53 2.240 . S
Cd44 O45 2.240 . S
Cd44 O52 2.223 . S
Cd44 O54 2.297 . S
Cd44 O55 2.439 . S
O45 Cd44 2.240 . S
O45 C50 1.279 . S
O46 Cd43 2.297 . S
O46 C48 1.247 . S
O47 Cd43 2.439 . S
O47 C48 1.208 . S
C48 O46 1.247 . S
C48 O47 1.208 . S
C49 O54 1.247 . S
C49 O55 1.208 . S
C50 O42 1.315 . S
C50 O45 1.279 . S
C51 O52 1.315 . S
C51 O53 1.279 . S
O52 Cd44 2.223 . S
O52 C51 1.315 . S
O53 Cd43 2.240 . S
O53 C51 1.279 . S
O54 Cd44 2.297 . S
O54 C49 1.247 . S
O55 Cd44 2.439 . S
O55 C49 1.208 . S
O56 Cd57 2.223 . S
O56 C64 1.315 . S
Cd57 O56 2.223 . S
Cd57 O60 2.297 . S
Cd57 O61 2.439 . S
Cd57 O67 2.240 . S
Cd58 O59 2.240 . S
Cd58 O66 2.223 . S
Cd58 O68 2.297 . S
Cd58 O69 2.439 . S
O59 Cd58 2.240 . S
O59 C64 1.279 . S
O60 Cd57 2.297 . S
O60 C62 1.247 . S
O61 Cd57 2.439 . S
O61 C62 1.208 . S
C62 O60 1.247 . S
C62 O61 1.208 . S
C63 O68 1.247 . S
C63 O69 1.208 . S
C64 O56 1.315 . S
C64 O59 1.279 . S
C65 O66 1.315 . S
C65 O67 1.279 . S
O66 Cd58 2.223 . S
O66 C65 1.315 . S
O67 Cd57 2.240 . S
O67 C65 1.279 . S
O68 Cd58 2.297 . S
O68 C63 1.247 . S
O69 Cd58 2.439 . S
O69 C63 1.208 . S
O70 Cd71 2.223 . S
O70 C78 1.315 . S
Cd71 O70 2.223 . S
Cd71 O74 2.297 . S
Cd71 O75 2.439 . S
Cd71 O81 2.240 . S
Cd72 O73 2.240 . S
Cd72 O80 2.223 . S
Cd72 O82 2.297 . S
Cd72 O83 2.439 . S
O73 Cd72 2.240 . S
O73 C78 1.279 . S
O74 Cd71 2.297 . S
O74 C76 1.247 . S
O75 Cd71 2.439 . S
O75 C76 1.208 . S
C76 O74 1.247 . S
C76 O75 1.208 . S
C77 O82 1.247 . S
C77 O83 1.208 . S
C78 O70 1.315 . S
C78 O73 1.279 . S
C79 O80 1.315 . S
C79 O81 1.279 . S
O80 Cd72 2.223 . S
O80 C79 1.315 . S
O81 Cd71 2.240 . S
O81 C79 1.279 . S
O82 Cd72 2.297 . S
O82 C77 1.247 . S
O83 Cd72 2.439 . S
O83 C77 1.208 . S
O84 Cd85 2.223 . S
O84 C92 1.315 . S
Cd85 O84 2.223 . S
Cd85 O88 2.297 . S
Cd85 O89 2.439 . S
Cd85 O95 2.240 . S
Cd86 O87 2.240 . S
Cd86 O94 2.223 . S
Cd86 O96 2.297 . S
Cd86 O97 2.439 . S
O87 Cd86 2.240 . S
O87 C92 1.279 . S
O88 Cd85 2.297 . S
O88 C90 1.247 . S
O89 Cd85 2.439 . S
O89 C90 1.208 . S
C90 O88 1.247 . S
C90 O89 1.208 . S
C91 O96 1.247 . S
C91 O97 1.208 . S
C92 O84 1.315 . S
C92 O87 1.279 . S
C93 O94 1.315 . S
C93 O95 1.279 . S
O94 Cd86 2.223 . S
O94 C93 1.315 . S
O95 Cd85 2.240 . S
O95 C93 1.279 . S
O96 Cd86 2.297 . S
O96 C91 1.247 . S
O97 Cd86 2.439 . S
O97 C91 1.208 . S
O98 Cd99 2.223 . S
O98 C106 1.315 . S
Cd99 O98 2.223 . S
Cd99 O102 2.297 . S
Cd99 O103 2.439 . S
Cd99 O109 2.240 . S
Cd100 O101 2.240 . S
Cd100 O108 2.223 . S
Cd100 O110 2.297 . S
Cd100 O111 2.439 . S
O101 Cd100 2.240 . S
O101 C106 1.279 . S
O102 Cd99 2.297 . S
O102 C104 1.247 . S
O103 Cd99 2.439 . S
O103 C104 1.208 . S
C104 O102 1.247 . S
C104 O103 1.208 . S
C105 O110 1.247 . S
C105 O111 1.208 . S
C106 O98 1.315 . S
C106 O101 1.279 . S
C107 O108 1.315 . S
C107 O109 1.279 . S
O108 Cd100 2.223 . S
O108 C107 1.315 . S
O109 Cd99 2.240 . S
O109 C107 1.279 . S
O110 Cd100 2.297 . S
O110 C105 1.247 . S
O111 Cd100 2.439 . S
O111 C105 1.208 . S
O112 Cd113 2.223 . S
O112 C120 1.315 . S
Cd113 O112 2.223 . S
Cd113 O116 2.297 . S
Cd113 O117 2.439 . S
Cd113 O123 2.240 . S
Cd114 O115 2.240 . S
Cd114 O122 2.223 . S
Cd114 O124 2.297 . S
Cd114 O125 2.439 . S
O115 Cd114 2.240 . S
O115 C120 1.279 . S
O116 Cd113 2.297 . S
O116 C118 1.247 . S
O117 Cd113 2.439 . S
O117 C118 1.208 . S
C118 O116 1.247 . S
C118 O117 1.208 . S
C119 O124 1.247 . S
C119 O125 1.208 . S
C120 O112 1.315 . S
C120 O115 1.279 . S
C121 O122 1.315 . S
C121 O123 1.279 . S
O122 Cd114 2.223 . S
O122 C121 1.315 . S
O123 Cd113 2.240 . S
O123 C121 1.279 . S
O124 Cd114 2.297 . S
O124 C119 1.247 . S
O125 Cd114 2.439 . S
O125 C119 1.208 . S
O126 Cd127 2.223 . S
O126 C134 1.315 . S
Cd127 O126 2.223 . S
Cd127 O130 2.297 . S
Cd127 O131 2.439 . S
Cd127 O137 2.240 . S
Cd128 O129 2.240 . S
Cd128 O136 2.223 . S
Cd128 O138 2.297 . S
Cd128 O139 2.439 . S
O129 Cd128 2.240 . S
O129 C134 1.279 . S
O130 Cd127 2.297 . S
O130 C132 1.247 . S
O131 Cd127 2.439 . S
O131 C132 1.208 . S
C132 O130 1.247 . S
C132 O131 1.208 . S
C133 O138 1.247 . S
C133 O139 1.208 . S
C134 O126 1.315 . S
C134 O129 1.279 . S
C135 O136 1.315 . S
C135 O137 1.279 . S
O136 Cd128 2.223 . S
O136 C135 1.315 . S
O137 Cd127 2.240 . S
O137 C135 1.279 . S
O138 Cd128 2.297 . S
O138 C133 1.247 . S
O139 Cd128 2.439 . S
O139 C133 1.208 . S
O140 Cd141 2.223 . S
O140 C148 1.315 . S
Cd141 O140 2.223 . S
Cd141 O144 2.297 . S
Cd141 O145 2.439 . S
Cd141 O151 2.240 . S
Cd142 O143 2.240 . S
Cd142 O150 2.223 . S
Cd142 O152 2.297 . S
Cd142 O153 2.439 . S
O143 Cd142 2.240 . S
O143 C148 1.279 . S
O144 Cd141 2.297 . S
O144 C146 1.247 . S
O145 Cd141 2.439 . S
O145 C146 1.208 . S
C146 O144 1.247 . S
C146 O145 1.208 . S
C147 O152 1.247 . S
C147 O153 1.208 . S
C148 O140 1.315 . S
C148 O143 1.279 . S
C149 O150 1.315 . S
C149 O151 1.279 . S
O150 Cd142 2.223 . S
O150 C149 1.315 . S
O151 Cd141 2.240 . S
O151 C149 1.279 . S
O152 Cd142 2.297 . S
O152 C147 1.247 . S
O153 Cd142 2.439 . S
O153 C147 1.208 . S
O154 Cd155 2.223 . S
O154 C162 1.315 . S
Cd155 O154 2.223 . S
Cd155 O158 2.297 . S
Cd155 O159 2.439 . S
Cd155 O165 2.240 . S
Cd156 O157 2.240 . S
Cd156 O164 2.223 . S
Cd156 O166 2.297 . S
Cd156 O167 2.439 . S
O157 Cd156 2.240 . S
O157 C162 1.279 . S
O158 Cd155 2.297 . S
O158 C160 1.247 . S
O159 Cd155 2.439 . S
O159 C160 1.208 . S
C160 O158 1.247 . S
C160 O159 1.208 . S
C161 O166 1.247 . S
C161 O167 1.208 . S
C162 O154 1.315 . S
C162 O157 1.279 . S
C163 O164 1.315 . S
C163 O165 1.279 . S
O164 Cd156 2.223 . S
O164 C163 1.315 . S
O165 Cd155 2.240 . S
O165 C163 1.279 . S
O166 Cd156 2.297 . S
O166 C161 1.247 . S
O167 Cd156 2.439 . S
O167 C161 1.208 . S
O168 Cd169 2.223 . S
O168 C176 1.315 . S
Cd169 O168 2.223 . S
Cd169 O172 2.297 . S
Cd169 O173 2.439 . S
Cd169 O179 2.240 . S
Cd170 O171 2.240 . S
Cd170 O178 2.223 . S
Cd170 O180 2.297 . S
Cd170 O181 2.439 . S
O171 Cd170 2.240 . S
O171 C176 1.279 . S
O172 Cd169 2.297 . S
O172 C174 1.247 . S
O173 Cd169 2.439 . S
O173 C174 1.208 . S
C174 O172 1.247 . S
C174 O173 1.208 . S
C175 O180 1.247 . S
C175 O181 1.208 . S
C176 O168 1.315 . S
C176 O171 1.279 . S
C177 O178 1.315 . S
C177 O179 1.279 . S
O178 Cd170 2.223 . S
O178 C177 1.315 . S
O179 Cd169 2.240 . S
O179 C177 1.279 . S
O180 Cd170 2.297 . S
O180 C175 1.247 . S
O181 Cd170 2.439 . S
O181 C175 1.208 . S
O182 Cd183 2.223 . S
O182 C190 1.315 . S
Cd183 O182 2.223 . S
Cd183 O186 2.297 . S
Cd183 O187 2.439 . S
Cd183 O193 2.240 . S
Cd184 O185 2.240 . S
Cd184 O192 2.223 . S
Cd184 O194 2.297 . S
Cd184 O195 2.439 . S
O185 Cd184 2.240 . S
O185 C190 1.279 . S
O186 Cd183 2.297 . S
O186 C188 1.247 . S
O187 Cd183 2.439 . S
O187 C188 1.208 . S
C188 O186 1.247 . S
C188 O187 1.208 . S
C189 O194 1.247 . S
C189 O195 1.208 . S
C190 O182 1.315 . S
C190 O185 1.279 . S
C191 O192 1.315 . S
C191 O193 1.279 . S
O192 Cd184 2.223 . S
O192 C191 1.315 . S
O193 Cd183 2.240 . S
O193 C191 1.279 . S
O194 Cd184 2.297 . S
O194 C189 1.247 . S
O195 Cd184 2.439 . S
O195 C189 1.208 . S
O196 Cd197 2.223 . S
O196 C204 1.315 . S
Cd197 O196 2.223 . S
Cd197 O200 2.297 . S
Cd197 O201 2.439 . S
Cd197 O207 2.240 . S
Cd198 O199 2.240 . S
Cd198 O206 2.223 . S
Cd198 O208 2.297 . S
Cd198 O209 2.439 . S
O199 Cd198 2.240 . S
O199 C204 1.279 . S
O200 Cd197 2.297 . S
O200 C202 1.247 . S
O201 Cd197 2.439 . S
O201 C202 1.208 . S
C202 O200 1.247 . S
C202 O201 1.208 . S
C203 O208 1.247 . S
C203 O209 1.208 . S
C204 O196 1.315 . S
C204 O199 1.279 . S
C205 O206 1.315 . S
C205 O207 1.279 . S
O206 Cd198 2.223 . S
O206 C205 1.315 . S
O207 Cd197 2.240 . S
O207 C205 1.279 . S
O208 Cd198 2.297 . S
O208 C203 1.247 . S
O209 Cd198 2.439 . S
O209 C203 1.208 . S
O210 Cd211 2.223 . S
O210 C218 1.315 . S
Cd211 O210 2.223 . S
Cd211 O214 2.297 . S
Cd211 O215 2.439 . S
Cd211 O221 2.240 . S
Cd212 O213 2.240 . S
Cd212 O220 2.223 . S
Cd212 O222 2.297 . S
Cd212 O223 2.439 . S
O213 Cd212 2.240 . S
O213 C218 1.279 . S
O214 Cd211 2.297 . S
O214 C216 1.247 . S
O215 Cd211 2.439 . S
O215 C216 1.208 . S
C216 O214 1.247 . S
C216 O215 1.208 . S
C217 O222 1.247 . S
C217 O223 1.208 . S
C218 O210 1.315 . S
C218 O213 1.279 . S
C219 O220 1.315 . S
C219 O221 1.279 . S
O220 Cd212 2.223 . S
O220 C219 1.315 . S
O221 Cd211 2.240 . S
O221 C219 1.279 . S
O222 Cd212 2.297 . S
O222 C217 1.247 . S
O223 Cd212 2.439 . S
O223 C217 1.208 . S
H224 C242 0.951 . S
H225 C244 0.951 . S
H226 C246 0.950 . S
H227 C247 0.950 . S
H228 C249 0.950 . S
H229 C252 0.950 . S
H230 C253 0.950 . S
H231 C255 0.950 . S
H232 C256 0.950 . S
H233 C257 0.951 . S
H234 C259 0.951 . S
H235 C261 0.950 . S
H236 C262 0.950 . S
H237 C264 0.950 . S
H238 C267 0.950 . S
H239 C268 0.950 . S
H240 C270 0.950 . S
H241 C271 0.950 1_565 S
C242 H224 0.951 . S
C242 C243 1.366 . S
C242 C244 1.388 . S
C243 C242 1.366 . S
C243 C247 1.385 . S
C244 H225 0.951 . S
C244 C242 1.388 . S
C244 C245 1.366 . S
C245 C244 1.366 . S
C245 C246 1.414 . S
C245 C248 1.499 . S
C246 H226 0.950 . S
C246 C245 1.414 . S
C246 C247 1.374 . S
C247 H227 0.950 . S
C247 C243 1.385 . S
C247 C246 1.374 . S
C248 C245 1.499 . S
C248 C249 1.373 . S
C248 C250 1.389 . S
C249 H228 0.950 . S
C249 C248 1.373 . S
C249 C265 1.377 . S
C250 C248 1.389 . S
C250 C251 1.524 . S
C250 C264 1.377 . S
C251 C250 1.524 . S
C251 C252 1.397 . S
C251 C256 1.363 . S
C252 H229 0.950 . S
C252 C251 1.397 . S
C252 C253 1.334 . S
C253 H230 0.950 . S
C253 C252 1.334 . S
C253 C254 1.287 . S
C254 C253 1.287 . S
C254 C255 1.524 . S
C254 H273 0.913 . S
C255 H231 0.950 . S
C255 C254 1.524 . S
C255 C256 1.415 . S
C256 H232 0.950 . S
C256 C251 1.363 . S
C256 C255 1.415 . S
C257 H233 0.951 . S
C257 C258 1.366 . S
C257 C259 1.388 . S
C258 C257 1.366 . S
C258 C262 1.385 . S
C259 H234 0.951 . S
C259 C257 1.388 . S
C259 C260 1.366 . S
C260 C259 1.366 . S
C260 C261 1.414 . S
C260 C263 1.499 1_545 S
C261 H235 0.950 . S
C261 C260 1.414 . S
C261 C262 1.374 . S
C262 H236 0.950 . S
C262 C258 1.385 . S
C262 C261 1.374 . S
C263 C260 1.499 1_565 S
C263 C264 1.373 . S
C263 C265 1.389 . S
C264 H237 0.950 . S
C264 C250 1.377 . S
C264 C263 1.373 . S
C265 C249 1.377 . S
C265 C263 1.389 . S
C265 C266 1.524 1_565 S
C266 C265 1.524 1_545 S
C266 C267 1.397 . S
C266 C271 1.363 . S
C267 H238 0.950 . S
C267 C266 1.397 . S
C267 C268 1.334 . S
C268 H239 0.950 . S
C268 C267 1.334 . S
C268 C269 1.287 . S
C269 C268 1.287 . S
C269 C270 1.524 . S
C269 H272 0.999 . S
C270 H240 0.950 . S
C270 C269 1.524 . S
C270 C271 1.415 . S
C271 H241 0.950 1_545 S
C271 C266 1.363 . S
C271 C270 1.415 . S
H272 C269 0.999 . S
H273 C254 0.913 . S
H274 C292 0.951 . S
H275 C294 0.951 . S
H276 C296 0.950 . S
H277 C297 0.950 . S
H278 C299 0.950 . S
H279 C302 0.950 . S
H280 C303 0.950 1_455 S
H281 C305 0.950 . S
H282 C306 0.950 . S
H283 C307 0.951 . S
H284 C309 0.951 . S
H285 C311 0.950 . S
H286 C312 0.950 . S
H287 C314 0.950 . S
H288 C317 0.950 . S
H289 C318 0.950 . S
H290 C320 0.950 . S
H291 C321 0.950 . S
C292 H274 0.951 . S
C292 C293 1.366 . S
C292 C294 1.388 . S
C293 C292 1.366 . S
C293 C297 1.385 . S
C294 H275 0.951 . S
C294 C292 1.388 . S
C294 C295 1.366 . S
C295 C294 1.366 . S
C295 C296 1.414 . S
C295 C298 1.499 1_455 S
C296 H276 0.950 . S
C296 C295 1.414 . S
C296 C297 1.374 . S
C297 H277 0.950 . S
C297 C293 1.385 . S
C297 C296 1.374 . S
C298 C295 1.499 1_655 S
C298 C299 1.373 . S
C298 C300 1.389 . S
C299 H278 0.950 . S
C299 C298 1.373 . S
C299 C315 1.377 . S
C300 C298 1.389 . S
C300 C301 1.524 . S
C300 C314 1.377 . S
C301 C300 1.524 . S
C301 C302 1.397 . S
C301 C306 1.363 . S
C302 H279 0.950 . S
C302 C301 1.397 . S
C302 C303 1.334 . S
C303 H280 0.950 1_655 S
C303 C302 1.334 . S
C303 C304 1.287 . S
C304 C303 1.287 . S
C304 C305 1.524 . S
C304 H323 0.913 1_655 S
C305 H281 0.950 . S
C305 C304 1.524 . S
C305 C306 1.415 . S
C306 H282 0.950 . S
C306 C301 1.363 . S
C306 C305 1.415 . S
C307 H283 0.951 . S
C307 C308 1.366 . S
C307 C309 1.388 . S
C308 C307 1.366 . S
C308 C312 1.385 . S
C309 H284 0.951 . S
C309 C307 1.388 . S
C309 C310 1.366 . S
C310 C309 1.366 . S
C310 C311 1.414 . S
C310 C313 1.499 . S
C311 H285 0.950 . S
C311 C310 1.414 . S
C311 C312 1.374 . S
C312 H286 0.950 . S
C312 C308 1.385 . S
C312 C311 1.374 . S
C313 C310 1.499 . S
C313 C314 1.373 . S
C313 C315 1.389 . S
C314 H287 0.950 . S
C314 C300 1.377 . S
C314 C313 1.373 . S
C315 C299 1.377 . S
C315 C313 1.389 . S
C315 C316 1.524 . S
C316 C315 1.524 . S
C316 C317 1.397 . S
C316 C321 1.363 . S
C317 H288 0.950 . S
C317 C316 1.397 . S
C317 C318 1.334 . S
C318 H289 0.950 . S
C318 C317 1.334 . S
C318 C319 1.287 . S
C319 C318 1.287 . S
C319 C320 1.524 . S
C319 H322 0.999 . S
C320 H290 0.950 . S
C320 C319 1.524 . S
C320 C321 1.415 . S
C321 H291 0.950 . S
C321 C316 1.363 . S
C321 C320 1.415 . S
H322 C319 0.999 . S
H323 C304 0.913 1_455 S
H324 C342 0.951 . S
H325 C344 0.951 . S
H326 C346 0.950 . S
H327 C347 0.950 . S
H328 C349 0.933 1_565 S
H329 C352 0.950 . S
H330 C353 0.950 . S
H331 C355 0.950 . S
H332 C356 0.950 . S
H333 C357 0.951 . S
H334 C359 0.951 . S
H335 C361 0.950 . S
H336 C362 0.950 . S
H337 C364 0.950 . S
H338 C367 0.950 . S
H339 C368 0.950 . S
H340 C370 0.950 . S
H341 C371 0.950 . S
C342 H324 0.951 . S
C342 C343 1.366 . S
C342 C344 1.388 . S
C343 C342 1.366 . S
C343 C347 1.385 . S
C344 H325 0.951 . S
C344 C342 1.388 . S
C344 C345 1.366 . S
C345 C344 1.366 . S
C345 C346 1.414 . S
C345 C348 1.499 1_565 S
C346 H326 0.950 . S
C346 C345 1.414 . S
C346 C347 1.374 . S
C347 H327 0.950 . S
C347 C343 1.385 . S
C347 C346 1.374 . S
C348 C345 1.499 1_545 S
C348 C349 1.373 . S
C348 C350 1.389 . S
C349 H328 0.933 1_545 S
C349 C348 1.373 . S
C349 C365 1.377 . S
C350 C348 1.389 . S
C350 C351 1.524 . S
C350 C364 1.377 . S
C351 C350 1.524 . S
C351 C352 1.397 . S
C351 C356 1.363 . S
C352 H329 0.950 . S
C352 C351 1.397 . S
C352 C353 1.334 . S
C353 H330 0.950 . S
C353 C352 1.334 . S
C353 C354 1.287 . S
C354 C353 1.287 . S
C354 C355 1.524 . S
C354 H373 0.913 . S
C355 H331 0.950 . S
C355 C354 1.524 . S
C355 C356 1.415 . S
C356 H332 0.950 . S
C356 C351 1.363 . S
C356 C355 1.415 . S
C357 H333 0.951 . S
C357 C358 1.366 . S
C357 C359 1.388 . S
C358 C357 1.366 . S
C358 C362 1.385 . S
C359 H334 0.951 . S
C359 C357 1.388 . S
C359 C360 1.366 . S
C360 C359 1.366 . S
C360 C361 1.414 . S
C360 C363 1.499 . S
C361 H335 0.950 . S
C361 C360 1.414 . S
C361 C362 1.374 . S
C362 H336 0.950 . S
C362 C358 1.385 . S
C362 C361 1.374 . S
C363 C360 1.499 . S
C363 C364 1.373 . S
C363 C365 1.389 . S
C364 H337 0.950 . S
C364 C350 1.377 . S
C364 C363 1.373 . S
C365 C349 1.377 . S
C365 C363 1.389 . S
C365 C366 1.524 . S
C366 C365 1.524 . S
C366 C367 1.397 . S
C366 C371 1.363 . S
C367 H338 0.950 . S
C367 C366 1.397 . S
C367 C368 1.334 . S
C368 H339 0.950 . S
C368 C367 1.334 . S
C368 C369 1.287 . S
C369 C368 1.287 . S
C369 C370 1.524 . S
C369 H372 0.999 . S
C370 H340 0.950 . S
C370 C369 1.524 . S
C370 C371 1.415 . S
C371 H341 0.950 . S
C371 C366 1.363 . S
C371 C370 1.415 . S
H372 C369 0.999 . S
H373 C354 0.913 . S
H374 C392 0.951 . S
H375 C394 0.951 . S
H376 C396 0.950 . S
H377 C397 0.950 . S
H378 C399 0.950 . S
H379 C402 0.950 . S
H380 C403 0.950 . S
H381 C405 0.950 . S
H382 C406 0.950 . S
H383 C407 0.951 . S
H384 C409 0.951 . S
H385 C411 0.950 . S
H386 C412 0.950 . S
H387 C414 0.950 . S
H388 C417 0.950 . S
H389 C418 0.935 1_655 S
H390 C420 0.950 . S
H391 C421 0.950 . S
C392 H374 0.951 . S
C392 C393 1.366 . S
C392 C394 1.388 . S
C393 C392 1.366 . S
C393 C397 1.385 . S
C394 H375 0.951 . S
C394 C392 1.388 . S
C394 C395 1.366 . S
C395 C394 1.366 . S
C395 C396 1.414 . S
C395 C398 1.499 . S
C396 H376 0.950 . S
C396 C395 1.414 . S
C396 C397 1.374 . S
C397 H377 0.950 . S
C397 C393 1.385 . S
C397 C396 1.374 . S
C398 C395 1.499 . S
C398 C399 1.373 . S
C398 C400 1.389 . S
C399 H378 0.950 . S
C399 C398 1.373 . S
C399 C415 1.377 . S
C400 C398 1.389 . S
C400 C401 1.524 . S
C400 C414 1.377 . S
C401 C400 1.524 . S
C401 C402 1.397 . S
C401 C406 1.363 . S
C402 H379 0.950 . S
C402 C401 1.397 . S
C402 C403 1.334 . S
C403 H380 0.950 . S
C403 C402 1.334 . S
C403 C404 1.287 . S
C404 C403 1.287 . S
C404 C405 1.524 . S
C404 H423 0.913 . S
C405 H381 0.950 . S
C405 C404 1.524 . S
C405 C406 1.415 . S
C406 H382 0.950 . S
C406 C401 1.363 . S
C406 C405 1.415 . S
C407 H383 0.951 . S
C407 C408 1.366 . S
C407 C409 1.388 . S
C408 C407 1.366 . S
C408 C412 1.385 . S
C409 H384 0.951 . S
C409 C407 1.388 . S
C409 C410 1.366 . S
C410 C409 1.366 . S
C410 C411 1.414 . S
C410 C413 1.499 1_655 S
C411 H385 0.950 . S
C411 C410 1.414 . S
C411 C412 1.374 . S
C412 H386 0.950 . S
C412 C408 1.385 . S
C412 C411 1.374 . S
C413 C410 1.499 1_455 S
C413 C414 1.373 . S
C413 C415 1.389 . S
C414 H387 0.950 . S
C414 C400 1.377 . S
C414 C413 1.373 . S
C415 C399 1.377 . S
C415 C413 1.389 . S
C415 C416 1.524 . S
C416 C415 1.524 . S
C416 C417 1.397 . S
C416 C421 1.363 . S
C417 H388 0.950 . S
C417 C416 1.397 . S
C417 C418 1.334 . S
C418 H389 0.935 1_455 S
C418 C417 1.334 . S
C418 C419 1.287 . S
C419 C418 1.287 . S
C419 C420 1.524 . S
C419 H422 0.999 . S
C420 H390 0.950 . S
C420 C419 1.524 . S
C420 C421 1.415 . S
C421 H391 0.950 . S
C421 C416 1.363 . S
C421 C420 1.415 . S
H422 C419 0.999 . S
H423 C404 0.913 . S
H424 C442 0.951 . S
H425 C444 0.951 . S
H426 C446 0.950 . S
H427 C447 0.950 . S
H428 C449 0.950 1_554 S
H429 C452 0.950 . S
H430 C453 0.950 . S
H431 C455 0.950 . S
H432 C456 0.950 . S
H433 C457 0.951 . S
H434 C459 0.930 1_554 S
H435 C461 0.950 . S
H436 C462 0.950 . S
H437 C464 0.950 . S
H438 C467 0.950 . S
H439 C468 0.950 . S
H440 C470 0.950 . S
H441 C471 0.950 . S
C442 H424 0.951 . S
C442 C443 1.366 1_556 S
C442 C444 1.388 . S
C443 C442 1.366 1_554 S
C443 C447 1.385 . S
C444 H425 0.951 . S
C444 C442 1.388 . S
C444 C445 1.366 1_556 S
C445 C444 1.366 1_554 S
C445 C446 1.414 . S
C445 C448 1.499 1_554 S
C446 H426 0.950 . S
C446 C445 1.414 . S
C446 C447 1.374 . S
C447 H427 0.950 . S
C447 C443 1.385 . S
C447 C446 1.374 . S
C448 C445 1.499 1_556 S
C448 C449 1.373 . S
C448 C450 1.389 . S
C449 H428 0.950 1_556 S
C449 C448 1.373 . S
C449 C465 1.377 . S
C450 C448 1.389 . S
C450 C451 1.524 . S
C450 C464 1.377 . S
C451 C450 1.524 . S
C451 C452 1.397 1_556 S
C451 C456 1.363 . S
C452 H429 0.950 . S
C452 C451 1.397 1_554 S
C452 C453 1.334 . S
C453 H430 0.950 . S
C453 C452 1.334 . S
C453 C454 1.285 . S
C454 C453 1.285 . S
C454 C455 1.525 1_554 S
C454 H473 0.913 . S
C455 H431 0.950 . S
C455 C454 1.525 1_556 S
C455 C456 1.415 . S
C456 H432 0.950 . S
C456 C451 1.363 . S
C456 C455 1.415 . S
C457 H433 0.951 . S
C457 C458 1.366 . S
C457 C459 1.388 . S
C458 C457 1.366 . S
C458 C462 1.385 . S
C459 H434 0.930 1_556 S
C459 C457 1.388 . S
C459 C460 1.366 . S
C460 C459 1.366 . S
C460 C461 1.414 . S
C460 C463 1.499 . S
C461 H435 0.950 . S
C461 C460 1.414 . S
C461 C462 1.374 . S
C462 H436 0.950 . S
C462 C458 1.385 . S
C462 C461 1.374 . S
C463 C460 1.499 . S
C463 C464 1.373 . S
C463 C465 1.389 . S
C464 H437 0.950 . S
C464 C450 1.377 . S
C464 C463 1.373 . S
C465 C449 1.377 . S
C465 C463 1.389 . S
C465 C466 1.524 . S
C466 C465 1.524 . S
C466 C467 1.397 . S
C466 C471 1.363 1_556 S
C467 H438 0.950 . S
C467 C466 1.397 . S
C467 C468 1.334 . S
C468 H439 0.950 . S
C468 C467 1.334 . S
C468 C469 1.287 . S
C469 C468 1.287 . S
C469 C470 1.524 1_556 S
C469 H472 0.999 . S
C470 H440 0.950 . S
C470 C469 1.524 1_554 S
C470 C471 1.415 . S
C471 H441 0.950 . S
C471 C466 1.363 1_554 S
C471 C470 1.415 . S
H472 C469 0.999 . S
H473 C454 0.913 . S
H474 C492 0.951 . S
H475 C494 0.951 . S
H476 C496 0.950 . S
H477 C497 0.960 . S
H478 C499 0.950 . S
H479 C502 0.950 . S
H480 C503 0.950 . S
H481 C505 0.950 . S
H482 C506 0.950 . S
H483 C507 0.951 . S
H484 C509 0.951 . S
H485 C511 0.950 . S
H486 C512 0.950 . S
H487 C514 0.950 . S
H488 C517 0.950 . S
H489 C518 0.950 . S
H490 C520 0.950 . S
H491 C521 0.950 . S
C492 H474 0.951 . S
C492 C493 1.366 . S
C492 C494 1.388 . S
C493 C492 1.366 . S
C493 C497 1.369 1_556 S
C494 H475 0.951 . S
C494 C492 1.388 . S
C494 C495 1.366 . S
C495 C494 1.366 . S
C495 C496 1.414 1_556 S
C495 C498 1.499 1_556 S
C496 H476 0.950 . S
C496 C495 1.414 1_554 S
C496 C497 1.380 . S
C497 H477 0.960 . S
C497 C493 1.369 1_554 S
C497 C496 1.380 . S
C498 C495 1.499 1_554 S
C498 C499 1.373 . S
C498 C500 1.389 1_554 S
C499 H478 0.950 . S
C499 C498 1.373 . S
C499 C515 1.377 . S
C500 C498 1.389 1_556 S
C500 C501 1.524 . S
C500 C514 1.377 . S
C501 C500 1.524 . S
C501 C502 1.397 . S
C501 C506 1.363 . S
C502 H479 0.950 . S
C502 C501 1.397 . S
C502 C503 1.334 . S
C503 H480 0.950 . S
C503 C502 1.334 . S
C503 C504 1.287 . S
C504 C503 1.287 . S
C504 C505 1.524 . S
C504 H523 0.913 . S
C505 H481 0.950 . S
C505 C504 1.524 . S
C505 C506 1.415 . S
C506 H482 0.950 . S
C506 C501 1.363 . S
C506 C505 1.415 . S
C507 H483 0.951 . S
C507 C508 1.366 . S
C507 C509 1.388 . S
C508 C507 1.366 . S
C508 C512 1.385 . S
C509 H484 0.951 . S
C509 C507 1.388 . S
C509 C510 1.366 . S
C510 C509 1.366 . S
C510 C511 1.414 . S
C510 C513 1.499 . S
C511 H485 0.950 . S
C511 C510 1.414 . S
C511 C512 1.374 . S
C512 H486 0.950 . S
C512 C508 1.385 . S
C512 C511 1.374 . S
C513 C510 1.499 . S
C513 C514 1.373 1_554 S
C513 C515 1.389 . S
C514 H487 0.950 . S
C514 C500 1.377 . S
C514 C513 1.373 1_556 S
C515 C499 1.377 . S
C515 C513 1.389 . S
C515 C516 1.524 . S
C516 C515 1.524 . S
C516 C517 1.397 . S
C516 C521 1.363 . S
C517 H488 0.950 . S
C517 C516 1.397 . S
C517 C518 1.334 . S
C518 H489 0.950 . S
C518 C517 1.334 . S
C518 C519 1.287 . S
C519 C518 1.287 . S
C519 C520 1.524 . S
C519 H522 0.999 . S
C520 H490 0.950 . S
C520 C519 1.524 . S
C520 C521 1.415 . S
C521 H491 0.950 . S
C521 C516 1.363 . S
C521 C520 1.415 . S
H522 C519 0.999 . S
H523 C504 0.913 . S
H524 C542 0.951 . S
H525 C544 0.951 . S
H526 C546 0.950 . S
H527 C547 0.950 . S
H528 C549 0.950 1_554 S
H529 C552 0.950 . S
H530 C553 0.950 . S
H531 C555 0.950 . S
H532 C556 0.950 . S
H533 C557 0.951 . S
H534 C559 0.951 . S
H535 C561 0.950 . S
H536 C562 0.950 . S
H537 C564 0.950 . S
H538 C567 0.950 . S
H539 C568 0.950 . S
H540 C570 0.950 . S
H541 C571 0.950 . S
C542 H524 0.951 . S
C542 C543 1.366 . S
C542 C544 1.388 . S
C543 C542 1.366 . S
C543 C547 1.385 . S
C544 H525 0.951 . S
C544 C542 1.388 . S
C544 C545 1.366 . S
C545 C544 1.366 . S
C545 C546 1.414 . S
C545 C548 1.499 . S
C546 H526 0.950 . S
C546 C545 1.414 . S
C546 C547 1.374 . S
C547 H527 0.950 . S
C547 C543 1.385 . S
C547 C546 1.374 . S
C548 C545 1.499 . S
C548 C549 1.373 . S
C548 C550 1.389 . S
C549 H528 0.950 1_556 S
C549 C548 1.373 . S
C549 C565 1.377 1_556 S
C550 C548 1.389 . S
C550 C551 1.524 . S
C550 C564 1.377 . S
C551 C550 1.524 . S
C551 C552 1.397 . S
C551 C556 1.363 . S
C552 H529 0.950 . S
C552 C551 1.397 . S
C552 C553 1.334 . S
C553 H530 0.950 . S
C553 C552 1.334 . S
C553 C554 1.287 . S
C554 C553 1.287 . S
C554 C555 1.524 . S
C554 H573 0.913 . S
C555 H531 0.950 . S
C555 C554 1.524 . S
C555 C556 1.415 . S
C556 H532 0.950 . S
C556 C551 1.363 . S
C556 C555 1.415 . S
C557 H533 0.951 . S
C557 C558 1.366 . S
C557 C559 1.388 . S
C558 C557 1.366 . S
C558 C562 1.385 . S
C559 H534 0.951 . S
C559 C557 1.388 . S
C559 C560 1.366 . S
C560 C559 1.366 . S
C560 C561 1.414 . S
C560 C563 1.499 1_554 S
C561 H535 0.950 . S
C561 C560 1.414 . S
C561 C562 1.374 . S
C562 H536 0.950 . S
C562 C558 1.385 . S
C562 C561 1.374 . S
C563 C560 1.499 1_556 S
C563 C564 1.373 . S
C563 C565 1.389 1_556 S
C564 H537 0.950 . S
C564 C550 1.377 . S
C564 C563 1.373 . S
C565 C549 1.377 1_554 S
C565 C563 1.389 1_554 S
C565 C566 1.524 . S
C566 C565 1.524 . S
C566 C567 1.397 . S
C566 C571 1.363 . S
C567 H538 0.950 . S
C567 C566 1.397 . S
C567 C568 1.334 . S
C568 H539 0.950 . S
C568 C567 1.334 . S
C568 C569 1.287 . S
C569 C568 1.287 . S
C569 C570 1.524 . S
C569 H572 0.999 . S
C570 H540 0.950 . S
C570 C569 1.524 . S
C570 C571 1.415 . S
C571 H541 0.950 . S
C571 C566 1.363 . S
C571 C570 1.415 . S
H572 C569 0.999 . S
H573 C554 0.913 . S
H574 C592 0.951 . S
H575 C594 0.951 . S
H576 C596 0.950 . S
H577 C597 0.950 . S
H578 C599 0.950 . S
H579 C602 0.950 . S
H580 C603 0.950 . S
H581 C605 0.950 . S
H582 C606 0.950 . S
H583 C607 0.951 . S
H584 C609 0.951 . S
H585 C611 0.950 . S
H586 C612 0.950 . S
H587 C614 0.950 . S
H588 C617 0.950 . S
H589 C618 0.950 . S
H590 C620 0.950 . S
H591 C621 0.950 . S
C592 H574 0.951 . S
C592 C593 1.366 . S
C592 C594 1.388 . S
C593 C592 1.366 . S
C593 C597 1.385 . S
C594 H575 0.951 . S
C594 C592 1.388 . S
C594 C595 1.366 . S
C595 C594 1.366 . S
C595 C596 1.414 . S
C595 C598 1.499 . S
C596 H576 0.950 . S
C596 C595 1.414 . S
C596 C597 1.374 . S
C597 H577 0.950 . S
C597 C593 1.385 . S
C597 C596 1.374 . S
C598 C595 1.499 . S
C598 C599 1.373 . S
C598 C600 1.389 1_554 S
C599 H578 0.950 . S
C599 C598 1.373 . S
C599 C615 1.377 . S
C600 C598 1.389 1_556 S
C600 C601 1.524 . S
C600 C614 1.377 . S
C601 C600 1.524 . S
C601 C602 1.397 . S
C601 C606 1.363 . S
C602 H579 0.950 . S
C602 C601 1.397 . S
C602 C603 1.334 . S
C603 H580 0.950 . S
C603 C602 1.334 . S
C603 C604 1.287 . S
C604 C603 1.287 . S
C604 C605 1.524 . S
C604 H623 0.913 . S
C605 H581 0.950 . S
C605 C604 1.524 . S
C605 C606 1.415 . S
C606 H582 0.950 . S
C606 C601 1.363 . S
C606 C605 1.415 . S
C607 H583 0.951 . S
C607 C608 1.366 . S
C607 C609 1.388 1_556 S
C608 C607 1.366 . S
C608 C612 1.385 . S
C609 H584 0.951 . S
C609 C607 1.388 1_554 S
C609 C610 1.366 1_554 S
C610 C609 1.366 1_556 S
C610 C611 1.414 . S
C610 C613 1.499 1_556 S
C611 H585 0.950 . S
C611 C610 1.414 . S
C611 C612 1.374 . S
C612 H586 0.950 . S
C612 C608 1.385 . S
C612 C611 1.374 . S
C613 C610 1.499 1_554 S
C613 C614 1.373 1_554 S
C613 C615 1.389 . S
C614 H587 0.950 . S
C614 C600 1.377 . S
C614 C613 1.373 1_556 S
C615 C599 1.377 . S
C615 C613 1.389 . S
C615 C616 1.524 . S
C616 C615 1.524 . S
C616 C617 1.397 . S
C616 C621 1.363 . S
C617 H588 0.950 . S
C617 C616 1.397 . S
C617 C618 1.334 . S
C618 H589 0.950 . S
C618 C617 1.334 . S
C618 C619 1.287 . S
C619 C618 1.287 . S
C619 C620 1.524 . S
C619 H622 0.999 . S
C620 H590 0.950 . S
C620 C619 1.524 . S
C620 C621 1.415 . S
C621 H591 0.950 . S
C621 C616 1.363 . S
C621 C620 1.415 . S
H622 C619 0.999 . S
H623 C604 0.913 . S
H624 C642 0.951 . S
H625 C644 0.951 . S
H626 C646 0.950 . S
H627 C647 0.950 . S
H628 C649 0.950 . S
H629 C652 0.950 . S
H630 C653 0.950 . S
H631 C655 0.950 . S
H632 C656 0.950 . S
H633 C657 0.951 . S
H634 C659 0.951 . S
H635 C661 0.950 . S
H636 C662 0.950 . S
H637 C664 0.950 . S
H638 C667 0.950 . S
H639 C668 0.950 . S
H640 C670 0.950 . S
H641 C671 0.950 . S
C642 H624 0.951 . S
C642 C643 1.366 . S
C642 C644 1.388 . S
C643 C642 1.366 . S
C643 C647 1.385 . S
C644 H625 0.951 . S
C644 C642 1.388 . S
C644 C645 1.366 . S
C645 C644 1.366 . S
C645 C646 1.414 . S
C645 C648 1.499 . S
C646 H626 0.950 . S
C646 C645 1.414 . S
C646 C647 1.374 . S
C647 H627 0.950 . S
C647 C643 1.385 . S
C647 C646 1.374 . S
C648 C645 1.499 . S
C648 C649 1.373 . S
C648 C650 1.389 . S
C649 H628 0.950 . S
C649 C648 1.373 . S
C649 C665 1.377 . S
C650 C648 1.389 . S
C650 C651 1.524 . S
C650 C664 1.377 . S
C651 C650 1.524 . S
C651 C652 1.397 . S
C651 C656 1.363 . S
C652 H629 0.950 . S
C652 C651 1.397 . S
C652 C653 1.334 . S
C653 H630 0.950 . S
C653 C652 1.334 . S
C653 C654 1.287 . S
C654 C653 1.287 . S
C654 C655 1.524 . S
C654 H673 0.913 . S
C655 H631 0.950 . S
C655 C654 1.524 . S
C655 C656 1.415 . S
C656 H632 0.950 . S
C656 C651 1.363 . S
C656 C655 1.415 . S
C657 H633 0.951 . S
C657 C658 1.366 . S
C657 C659 1.388 . S
C658 C657 1.366 . S
C658 C662 1.385 . S
C659 H634 0.951 . S
C659 C657 1.388 . S
C659 C660 1.366 . S
C660 C659 1.366 . S
C660 C661 1.414 . S
C660 C663 1.499 . S
C661 H635 0.950 . S
C661 C660 1.414 . S
C661 C662 1.374 . S
C662 H636 0.950 . S
C662 C658 1.385 . S
C662 C661 1.374 . S
C663 C660 1.499 . S
C663 C664 1.373 . S
C663 C665 1.389 . S
C664 H637 0.950 . S
C664 C650 1.377 . S
C664 C663 1.373 . S
C665 C649 1.377 . S
C665 C663 1.389 . S
C665 C666 1.524 . S
C666 C665 1.524 . S
C666 C667 1.397 . S
C666 C671 1.363 . S
C667 H638 0.950 . S
C667 C666 1.397 . S
C667 C668 1.334 . S
C668 H639 0.950 . S
C668 C667 1.334 . S
C668 C669 1.287 . S
C669 C668 1.287 . S
C669 C670 1.524 . S
C669 H672 0.999 . S
C670 H640 0.950 . S
C670 C669 1.524 . S
C670 C671 1.415 . S
C671 H641 0.950 . S
C671 C666 1.363 . S
C671 C670 1.415 . S
H672 C669 0.999 . S
H673 C654 0.913 . S
H674 C692 0.951 . S
H675 C694 0.951 . S
H676 C696 0.950 . S
H677 C697 0.950 . S
H678 C699 0.950 . S
H679 C702 0.950 . S
H680 C703 0.950 . S
H681 C705 0.950 . S
H682 C706 0.950 . S
H683 C707 0.951 . S
H684 C709 0.951 . S
H685 C711 0.950 . S
H686 C712 0.950 . S
H687 C714 0.950 . S
H688 C717 0.950 . S
H689 C718 0.950 . S
H690 C720 0.950 . S
H691 C721 0.950 . S
C692 H674 0.951 . S
C692 C693 1.366 . S
C692 C694 1.388 . S
C693 C692 1.366 . S
C693 C697 1.385 . S
C694 H675 0.951 . S
C694 C692 1.388 . S
C694 C695 1.366 . S
C695 C694 1.366 . S
C695 C696 1.414 . S
C695 C698 1.499 . S
C696 H676 0.950 . S
C696 C695 1.414 . S
C696 C697 1.374 . S
C697 H677 0.950 . S
C697 C693 1.385 . S
C697 C696 1.374 . S
C698 C695 1.499 . S
C698 C699 1.373 . S
C698 C700 1.389 . S
C699 H678 0.950 . S
C699 C698 1.373 . S
C699 C715 1.377 . S
C700 C698 1.389 . S
C700 C701 1.524 . S
C700 C714 1.377 . S
C701 C700 1.524 . S
C701 C702 1.397 . S
C701 C706 1.363 . S
C702 H679 0.950 . S
C702 C701 1.397 . S
C702 C703 1.334 . S
C703 H680 0.950 . S
C703 C702 1.334 . S
C703 C704 1.287 . S
C704 C703 1.287 . S
C704 C705 1.524 . S
C704 H723 0.913 . S
C705 H681 0.950 . S
C705 C704 1.524 . S
C705 C706 1.415 . S
C706 H682 0.950 . S
C706 C701 1.363 . S
C706 C705 1.415 . S
C707 H683 0.951 . S
C707 C708 1.366 . S
C707 C709 1.388 . S
C708 C707 1.366 . S
C708 C712 1.385 . S
C709 H684 0.951 . S
C709 C707 1.388 . S
C709 C710 1.366 . S
C710 C709 1.366 . S
C710 C711 1.414 . S
C710 C713 1.499 . S
C711 H685 0.950 . S
C711 C710 1.414 . S
C711 C712 1.374 . S
C712 H686 0.950 . S
C712 C708 1.385 . S
C712 C711 1.374 . S
C713 C710 1.499 . S
C713 C714 1.373 . S
C713 C715 1.389 . S
C714 H687 0.950 . S
C714 C700 1.377 . S
C714 C713 1.373 . S
C715 C699 1.377 . S
C715 C713 1.389 . S
C715 C716 1.524 . S
C716 C715 1.524 . S
C716 C717 1.397 . S
C716 C721 1.363 . S
C717 H688 0.950 . S
C717 C716 1.397 . S
C717 C718 1.334 . S
C718 H689 0.950 . S
C718 C717 1.334 . S
C718 C719 1.287 . S
C719 C718 1.287 . S
C719 C720 1.524 . S
C719 H722 0.999 . S
C720 H690 0.950 . S
C720 C719 1.524 . S
C720 C721 1.415 . S
C721 H691 0.950 . S
C721 C716 1.363 . S
C721 C720 1.415 . S
H722 C719 0.999 . S
H723 C704 0.913 . S
H724 C742 0.951 . S
H725 C744 0.951 . S
H726 C746 0.950 . S
H727 C747 0.950 . S
H728 C749 0.950 . S
H729 C752 0.950 . S
H730 C753 0.950 . S
H731 C755 0.950 . S
H732 C756 0.950 . S
H733 C757 0.951 . S
H734 C759 0.951 . S
H735 C761 0.950 . S
H736 C762 0.950 . S
H737 C764 0.950 . S
H738 C767 0.950 . S
H739 C768 0.950 . S
H740 C770 0.950 . S
H741 C771 0.950 . S
C742 H724 0.951 . S
C742 C743 1.366 . S
C742 C744 1.388 . S
C743 C742 1.366 . S
C743 C747 1.385 . S
C744 H725 0.951 . S
C744 C742 1.388 . S
C744 C745 1.366 . S
C745 C744 1.366 . S
C745 C746 1.414 . S
C745 C748 1.499 . S
C746 H726 0.950 . S
C746 C745 1.414 . S
C746 C747 1.374 . S
C747 H727 0.950 . S
C747 C743 1.385 . S
C747 C746 1.374 . S
C748 C745 1.499 . S
C748 C749 1.373 . S
C748 C750 1.389 . S
C749 H728 0.950 . S
C749 C748 1.373 . S
C749 C765 1.377 . S
C750 C748 1.389 . S
C750 C751 1.524 . S
C750 C764 1.377 . S
C751 C750 1.524 . S
C751 C752 1.397 . S
C751 C756 1.363 . S
C752 H729 0.950 . S
C752 C751 1.397 . S
C752 C753 1.334 . S
C753 H730 0.950 . S
C753 C752 1.334 . S
C753 C754 1.287 . S
C754 C753 1.287 . S
C754 C755 1.524 . S
C754 H773 0.913 . S
C755 H731 0.950 . S
C755 C754 1.524 . S
C755 C756 1.415 . S
C756 H732 0.950 . S
C756 C751 1.363 . S
C756 C755 1.415 . S
C757 H733 0.951 . S
C757 C758 1.366 . S
C757 C759 1.388 . S
C758 C757 1.366 . S
C758 C762 1.385 . S
C759 H734 0.951 . S
C759 C757 1.388 . S
C759 C760 1.366 . S
C760 C759 1.366 . S
C760 C761 1.414 . S
C760 C763 1.499 . S
C761 H735 0.950 . S
C761 C760 1.414 . S
C761 C762 1.374 . S
C762 H736 0.950 . S
C762 C758 1.385 . S
C762 C761 1.374 . S
C763 C760 1.499 . S
C763 C764 1.373 . S
C763 C765 1.389 . S
C764 H737 0.950 . S
C764 C750 1.377 . S
C764 C763 1.373 . S
C765 C749 1.377 . S
C765 C763 1.389 . S
C765 C766 1.524 . S
C766 C765 1.524 . S
C766 C767 1.397 . S
C766 C771 1.363 . S
C767 H738 0.950 . S
C767 C766 1.397 . S
C767 C768 1.334 . S
C768 H739 0.950 . S
C768 C767 1.334 . S
C768 C769 1.287 . S
C769 C768 1.287 . S
C769 C770 1.524 . S
C769 H772 0.999 . S
C770 H740 0.950 . S
C770 C769 1.524 . S
C770 C771 1.415 . S
C771 H741 0.950 . S
C771 C766 1.363 . S
C771 C770 1.415 . S
H772 C769 0.999 . S
H773 C754 0.913 . S
H774 C792 0.951 . S
H775 C794 0.951 . S
H776 C796 0.950 . S
H777 C797 0.950 . S
H778 C799 0.950 . S
H779 C802 0.950 . S
H780 C803 0.950 . S
H781 C805 0.950 . S
H782 C806 0.950 . S
H783 C807 0.951 . S
H784 C809 0.951 . S
H785 C811 0.950 . S
H786 C812 0.950 . S
H787 C814 0.950 . S
H788 C817 0.950 . S
H789 C818 0.950 . S
H790 C820 0.950 . S
H791 C821 0.950 . S
C792 H774 0.951 . S
C792 C793 1.366 . S
C792 C794 1.388 . S
C793 C792 1.366 . S
C793 C797 1.385 . S
C794 H775 0.951 . S
C794 C792 1.388 . S
C794 C795 1.366 . S
C795 C794 1.366 . S
C795 C796 1.414 . S
C795 C798 1.499 . S
C796 H776 0.950 . S
C796 C795 1.414 . S
C796 C797 1.374 . S
C797 H777 0.950 . S
C797 C793 1.385 . S
C797 C796 1.374 . S
C798 C795 1.499 . S
C798 C799 1.373 . S
C798 C800 1.389 . S
C799 H778 0.950 . S
C799 C798 1.373 . S
C799 C815 1.377 . S
C800 C798 1.389 . S
C800 C801 1.524 . S
C800 C814 1.377 . S
C801 C800 1.524 . S
C801 C802 1.397 . S
C801 C806 1.363 . S
C802 H779 0.950 . S
C802 C801 1.397 . S
C802 C803 1.334 . S
C803 H780 0.950 . S
C803 C802 1.334 . S
C803 C804 1.287 . S
C804 C803 1.287 . S
C804 C805 1.524 . S
C804 H823 0.913 . S
C805 H781 0.950 . S
C805 C804 1.524 . S
C805 C806 1.415 . S
C806 H782 0.950 . S
C806 C801 1.363 . S
C806 C805 1.415 . S
C807 H783 0.951 . S
C807 C808 1.366 . S
C807 C809 1.388 . S
C808 C807 1.366 . S
C808 C812 1.385 . S
C809 H784 0.951 . S
C809 C807 1.388 . S
C809 C810 1.366 . S
C810 C809 1.366 . S
C810 C811 1.414 . S
C810 C813 1.499 . S
C811 H785 0.950 . S
C811 C810 1.414 . S
C811 C812 1.374 . S
C812 H786 0.950 . S
C812 C808 1.385 . S
C812 C811 1.374 . S
C813 C810 1.499 . S
C813 C814 1.373 . S
C813 C815 1.389 . S
C814 H787 0.950 . S
C814 C800 1.377 . S
C814 C813 1.373 . S
C815 C799 1.377 . S
C815 C813 1.389 . S
C815 C816 1.524 . S
C816 C815 1.524 . S
C816 C817 1.397 . S
C816 C821 1.363 . S
C817 H788 0.950 . S
C817 C816 1.397 . S
C817 C818 1.334 . S
C818 H789 0.950 . S
C818 C817 1.334 . S
C818 C819 1.287 . S
C819 C818 1.287 . S
C819 C820 1.524 . S
C819 H822 0.999 . S
C820 H790 0.950 . S
C820 C819 1.524 . S
C820 C821 1.415 . S
C821 H791 0.950 . S
C821 C816 1.363 . S
C821 C820 1.415 . S
H822 C819 0.999 . S
H823 C804 0.913 . S
H824 C842 0.951 . S
H825 C844 0.951 . S
H826 C846 0.950 . S
H827 C847 0.950 . S
H828 C849 0.950 . S
H829 C852 0.950 . S
H830 C853 0.950 . S
H831 C855 0.950 . S
H832 C856 0.950 1_545 S
H833 C857 0.951 . S
H834 C859 0.951 . S
H835 C861 0.950 . S
H836 C862 0.950 . S
H837 C864 0.950 . S
H838 C867 0.950 . S
H839 C868 0.950 . S
H840 C870 0.950 . S
H841 C871 0.950 . S
C842 H824 0.951 . S
C842 C843 1.366 . S
C842 C844 1.388 . S
C843 C842 1.366 . S
C843 C847 1.385 . S
C844 H825 0.951 . S
C844 C842 1.388 . S
C844 C845 1.366 . S
C845 C844 1.366 . S
C845 C846 1.414 . S
C845 C848 1.499 1_565 S
C846 H826 0.950 . S
C846 C845 1.414 . S
C846 C847 1.374 . S
C847 H827 0.950 . S
C847 C843 1.385 . S
C847 C846 1.374 . S
C848 C845 1.499 1_545 S
C848 C849 1.373 . S
C848 C850 1.389 . S
C849 H828 0.950 . S
C849 C848 1.373 . S
C849 C865 1.377 . S
C850 C848 1.389 . S
C850 C851 1.524 1_545 S
C850 C864 1.377 . S
C851 C850 1.524 1_565 S
C851 C852 1.397 . S
C851 C856 1.363 . S
C852 H829 0.950 . S
C852 C851 1.397 . S
C852 C853 1.334 . S
C853 H830 0.950 . S
C853 C852 1.334 . S
C853 C854 1.287 . S
C854 C853 1.287 . S
C854 C855 1.524 . S
C854 H873 0.913 . S
C855 H831 0.950 . S
C855 C854 1.524 . S
C855 C856 1.415 . S
C856 H832 0.950 1_565 S
C856 C851 1.363 . S
C856 C855 1.415 . S
C857 H833 0.951 . S
C857 C858 1.366 . S
C857 C859 1.388 . S
C858 C857 1.366 . S
C858 C862 1.385 . S
C859 H834 0.951 . S
C859 C857 1.388 . S
C859 C860 1.366 . S
C860 C859 1.366 . S
C860 C861 1.414 . S
C860 C863 1.499 . S
C861 H835 0.950 . S
C861 C860 1.414 . S
C861 C862 1.374 . S
C862 H836 0.950 . S
C862 C858 1.385 . S
C862 C861 1.374 . S
C863 C860 1.499 . S
C863 C864 1.373 . S
C863 C865 1.389 . S
C864 H837 0.950 . S
C864 C850 1.377 . S
C864 C863 1.373 . S
C865 C849 1.377 . S
C865 C863 1.389 . S
C865 C866 1.524 . S
C866 C865 1.524 . S
C866 C867 1.397 . S
C866 C871 1.363 . S
C867 H838 0.950 . S
C867 C866 1.397 . S
C867 C868 1.334 . S
C868 H839 0.950 . S
C868 C867 1.334 . S
C868 C869 1.287 . S
C869 C868 1.287 . S
C869 C870 1.524 . S
C869 H872 0.999 . S
C870 H840 0.950 . S
C870 C869 1.524 . S
C870 C871 1.415 . S
C871 H841 0.950 . S
C871 C866 1.363 . S
C871 C870 1.415 . S
H872 C869 0.999 . S
H873 C854 0.913 . S
H874 C892 0.951 . S
H875 C894 0.951 . S
H876 C896 0.950 . S
H877 C897 0.950 . S
H878 C899 0.950 . S
H879 C902 0.950 . S
H880 C903 0.950 . S
H881 C905 0.950 . S
H882 C906 0.950 1_455 S
H883 C907 0.951 . S
H884 C909 0.951 . S
H885 C911 0.950 . S
H886 C912 0.950 . S
H887 C914 0.950 . S
H888 C917 0.950 . S
H889 C918 0.950 . S
H890 C920 0.950 . S
H891 C921 0.950 . S
C892 H874 0.951 . S
C892 C893 1.366 . S
C892 C894 1.388 . S
C893 C892 1.366 . S
C893 C897 1.385 . S
C894 H875 0.951 . S
C894 C892 1.388 . S
C894 C895 1.366 . S
C895 C894 1.366 . S
C895 C896 1.414 . S
C895 C898 1.499 1_655 S
C896 H876 0.950 . S
C896 C895 1.414 . S
C896 C897 1.374 . S
C897 H877 0.950 . S
C897 C893 1.385 . S
C897 C896 1.374 . S
C898 C895 1.499 1_455 S
C898 C899 1.373 . S
C898 C900 1.389 . S
C899 H878 0.950 . S
C899 C898 1.373 . S
C899 C915 1.377 . S
C900 C898 1.389 . S
C900 C901 1.524 1_455 S
C900 C914 1.377 . S
C901 C900 1.524 1_655 S
C901 C902 1.397 . S
C901 C906 1.363 . S
C902 H879 0.950 . S
C902 C901 1.397 . S
C902 C903 1.334 . S
C903 H880 0.950 . S
C903 C902 1.334 . S
C903 C904 1.287 . S
C904 C903 1.287 . S
C904 C905 1.524 . S
C904 H923 0.913 . S
C905 H881 0.950 . S
C905 C904 1.524 . S
C905 C906 1.415 . S
C906 H882 0.950 1_655 S
C906 C901 1.363 . S
C906 C905 1.415 . S
C907 H883 0.951 . S
C907 C908 1.366 . S
C907 C909 1.388 . S
C908 C907 1.366 . S
C908 C912 1.385 . S
C909 H884 0.951 . S
C909 C907 1.388 . S
C909 C910 1.366 . S
C910 C909 1.366 . S
C910 C911 1.414 . S
C910 C913 1.499 . S
C911 H885 0.950 . S
C911 C910 1.414 . S
C911 C912 1.374 . S
C912 H886 0.950 . S
C912 C908 1.385 . S
C912 C911 1.374 . S
C913 C910 1.499 . S
C913 C914 1.373 . S
C913 C915 1.389 . S
C914 H887 0.950 . S
C914 C900 1.377 . S
C914 C913 1.373 . S
C915 C899 1.377 . S
C915 C913 1.389 . S
C915 C916 1.524 . S
C916 C915 1.524 . S
C916 C917 1.397 . S
C916 C921 1.363 . S
C917 H888 0.950 . S
C917 C916 1.397 . S
C917 C918 1.334 . S
C918 H889 0.950 . S
C918 C917 1.334 . S
C918 C919 1.287 . S
C919 C918 1.287 . S
C919 C920 1.524 . S
C919 H922 0.999 . S
C920 H890 0.950 . S
C920 C919 1.524 . S
C920 C921 1.415 . S
C921 H891 0.950 . S
C921 C916 1.363 . S
C921 C920 1.415 . S
H922 C919 0.999 . S
H923 C904 0.913 . S
H924 C942 0.951 . S
H925 C944 0.951 . S
H926 C946 0.950 . S
H927 C947 0.950 . S
H928 C949 0.950 . S
H929 C952 0.950 . S
H930 C953 0.950 . S
H931 C955 0.950 . S
H932 C956 0.950 . S
H933 C957 0.951 . S
H934 C959 0.951 . S
H935 C961 0.950 . S
H936 C962 0.950 . S
H937 C964 0.950 . S
H938 C967 0.950 . S
H939 C968 0.950 . S
H940 C970 0.950 . S
H941 C971 0.920 1_565 S
C942 H924 0.951 . S
C942 C943 1.366 . S
C942 C944 1.388 . S
C943 C942 1.366 . S
C943 C947 1.385 . S
C944 H925 0.951 . S
C944 C942 1.388 . S
C944 C945 1.366 . S
C945 C944 1.366 . S
C945 C946 1.414 . S
C945 C948 1.499 . S
C946 H926 0.950 . S
C946 C945 1.414 . S
C946 C947 1.374 . S
C947 H927 0.950 . S
C947 C943 1.385 . S
C947 C946 1.374 . S
C948 C945 1.499 . S
C948 C949 1.373 . S
C948 C950 1.389 . S
C949 H928 0.950 . S
C949 C948 1.373 . S
C949 C965 1.377 . S
C950 C948 1.389 . S
C950 C951 1.524 . S
C950 C964 1.377 . S
C951 C950 1.524 . S
C951 C952 1.397 . S
C951 C956 1.363 . S
C952 H929 0.950 . S
C952 C951 1.397 . S
C952 C953 1.334 . S
C953 H930 0.950 . S
C953 C952 1.334 . S
C953 C954 1.287 . S
C954 C953 1.287 . S
C954 C955 1.524 . S
C954 H973 0.913 . S
C955 H931 0.950 . S
C955 C954 1.524 . S
C955 C956 1.415 . S
C956 H932 0.950 . S
C956 C951 1.363 . S
C956 C955 1.415 . S
C957 H933 0.951 . S
C957 C958 1.366 . S
C957 C959 1.388 . S
C958 C957 1.366 . S
C958 C962 1.385 . S
C959 H934 0.951 . S
C959 C957 1.388 . S
C959 C960 1.366 . S
C960 C959 1.366 . S
C960 C961 1.414 . S
C960 C963 1.499 1_545 S
C961 H935 0.950 . S
C961 C960 1.414 . S
C961 C962 1.374 . S
C962 H936 0.950 . S
C962 C958 1.385 . S
C962 C961 1.374 . S
C963 C960 1.499 1_565 S
C963 C964 1.373 . S
C963 C965 1.389 . S
C964 H937 0.950 . S
C964 C950 1.377 . S
C964 C963 1.373 . S
C965 C949 1.377 . S
C965 C963 1.389 . S
C965 C966 1.524 1_565 S
C966 C965 1.524 1_545 S
C966 C967 1.397 . S
C966 C971 1.368 . S
C967 H938 0.950 . S
C967 C966 1.397 . S
C967 C968 1.334 . S
C968 H939 0.950 . S
C968 C967 1.334 . S
C968 C969 1.287 . S
C969 C968 1.287 . S
C969 C970 1.524 . S
C969 H972 0.999 . S
C970 H940 0.950 . S
C970 C969 1.524 . S
C970 C971 1.441 . S
C971 H941 0.920 1_545 S
C971 C966 1.368 . S
C971 C970 1.441 . S
H972 C969 0.999 . S
H973 C954 0.913 . S
H974 C992 0.951 . S
H975 C994 0.951 . S
H976 C996 0.950 . S
H977 C997 0.950 . S
H978 C999 0.950 . S
H979 C1002 0.950 . S
H980 C1003 0.950 . S
H981 C1005 0.950 . S
H982 C1006 0.950 . S
H983 C1007 0.951 . S
H984 C1009 0.951 . S
H985 C1011 0.950 . S
H986 C1012 0.950 . S
H987 C1014 0.950 . S
H988 C1017 0.950 . S
H989 C1018 0.950 . S
H990 C1020 0.950 . S
H991 C1021 0.950 . S
C992 H974 0.951 . S
C992 C993 1.366 . S
C992 C994 1.388 . S
C993 C992 1.366 . S
C993 C997 1.385 . S
C994 H975 0.951 . S
C994 C992 1.388 . S
C994 C995 1.366 . S
C995 C994 1.366 . S
C995 C996 1.414 . S
C995 C998 1.499 . S
C996 H976 0.950 . S
C996 C995 1.414 . S
C996 C997 1.374 . S
C997 H977 0.950 . S
C997 C993 1.385 . S
C997 C996 1.374 . S
C998 C995 1.499 . S
C998 C999 1.373 . S
C998 C1000 1.389 . S
C999 H978 0.950 . S
C999 C998 1.373 . S
C999 C1015 1.377 . S
C1000 C998 1.389 . S
C1000 C1001 1.524 . S
C1000 C1014 1.377 . S
C1001 C1000 1.524 . S
C1001 C1002 1.397 . S
C1001 C1006 1.363 . S
C1002 H979 0.950 . S
C1002 C1001 1.397 . S
C1002 C1003 1.334 . S
C1003 H980 0.950 . S
C1003 C1002 1.334 . S
C1003 C1004 1.287 . S
C1004 C1003 1.287 . S
C1004 C1005 1.524 . S
C1004 H1023 0.913 . S
C1005 H981 0.950 . S
C1005 C1004 1.524 . S
C1005 C1006 1.415 . S
C1006 H982 0.950 . S
C1006 C1001 1.363 . S
C1006 C1005 1.415 . S
C1007 H983 0.951 . S
C1007 C1008 1.366 . S
C1007 C1009 1.388 . S
C1008 C1007 1.366 . S
C1008 C1012 1.385 . S
C1009 H984 0.951 . S
C1009 C1007 1.388 . S
C1009 C1010 1.366 . S
C1010 C1009 1.366 . S
C1010 C1011 1.414 . S
C1010 C1013 1.499 1_455 S
C1011 H985 0.950 . S
C1011 C1010 1.414 . S
C1011 C1012 1.374 . S
C1012 H986 0.950 . S
C1012 C1008 1.385 . S
C1012 C1011 1.374 . S
C1013 C1010 1.499 1_655 S
C1013 C1014 1.373 . S
C1013 C1015 1.389 . S
C1014 H987 0.950 . S
C1014 C1000 1.377 . S
C1014 C1013 1.373 . S
C1015 C999 1.377 . S
C1015 C1013 1.389 . S
C1015 C1016 1.524 1_655 S
C1016 C1015 1.524 1_455 S
C1016 C1017 1.397 . S
C1016 C1021 1.363 1_455 S
C1017 H988 0.950 . S
C1017 C1016 1.397 . S
C1017 C1018 1.334 . S
C1018 H989 0.950 . S
C1018 C1017 1.334 . S
C1018 C1019 1.287 . S
C1019 C1018 1.287 . S
C1019 C1020 1.524 . S
C1019 H1022 0.999 . S
C1020 H990 0.950 . S
C1020 C1019 1.524 . S
C1020 C1021 1.415 1_455 S
C1021 H991 0.950 . S
C1021 C1016 1.363 1_655 S
C1021 C1020 1.415 1_655 S
H1022 C1019 0.999 . S
H1023 C1004 0.913 . S
H1024 C1042 0.951 . S
H1025 C1044 0.951 . S
H1026 C1046 0.950 . S
H1027 C1047 0.950 . S
H1028 C1049 0.950 . S
H1029 C1052 0.950 . S
H1030 C1053 0.950 . S
H1031 C1055 0.950 . S
H1032 C1056 0.950 . S
H1033 C1057 0.951 . S
H1034 C1059 0.951 . S
H1035 C1061 0.950 . S
H1036 C1062 0.950 . S
H1037 C1064 0.950 . S
H1038 C1067 0.950 . S
H1039 C1068 0.950 . S
H1040 C1070 0.950 . S
H1041 C1071 0.950 . S
C1042 H1024 0.951 . S
C1042 C1043 1.366 . S
C1042 C1044 1.388 . S
C1043 C1042 1.366 . S
C1043 C1047 1.385 . S
C1044 H1025 0.951 . S
C1044 C1042 1.388 . S
C1044 C1045 1.366 . S
C1045 C1044 1.366 . S
C1045 C1046 1.414 . S
C1045 C1048 1.499 . S
C1046 H1026 0.950 . S
C1046 C1045 1.414 . S
C1046 C1047 1.374 . S
C1047 H1027 0.950 . S
C1047 C1043 1.385 . S
C1047 C1046 1.374 . S
C1048 C1045 1.499 . S
C1048 C1049 1.373 . S
C1048 C1050 1.389 . S
C1049 H1028 0.950 . S
C1049 C1048 1.373 . S
C1049 C1065 1.377 . S
C1050 C1048 1.389 . S
C1050 C1051 1.524 . S
C1050 C1064 1.377 . S
C1051 C1050 1.524 . S
C1051 C1052 1.397 . S
C1051 C1056 1.363 . S
C1052 H1029 0.950 . S
C1052 C1051 1.397 . S
C1052 C1053 1.334 . S
C1053 H1030 0.950 . S
C1053 C1052 1.334 . S
C1053 C1054 1.287 . S
C1054 C1053 1.287 . S
C1054 C1055 1.524 . S
C1054 H1073 0.913 . S
C1055 H1031 0.950 . S
C1055 C1054 1.524 . S
C1055 C1056 1.415 . S
C1056 H1032 0.950 . S
C1056 C1051 1.363 . S
C1056 C1055 1.415 . S
C1057 H1033 0.951 . S
C1057 C1058 1.366 . S
C1057 C1059 1.388 . S
C1058 C1057 1.366 . S
C1058 C1062 1.385 . S
C1059 H1034 0.951 . S
C1059 C1057 1.388 . S
C1059 C1060 1.366 . S
C1060 C1059 1.366 . S
C1060 C1061 1.414 . S
C1060 C1063 1.499 . S
C1061 H1035 0.950 . S
C1061 C1060 1.414 . S
C1061 C1062 1.374 . S
C1062 H1036 0.950 . S
C1062 C1058 1.385 . S
C1062 C1061 1.374 . S
C1063 C1060 1.499 . S
C1063 C1064 1.373 . S
C1063 C1065 1.389 . S
C1064 H1037 0.950 . S
C1064 C1050 1.377 . S
C1064 C1063 1.373 . S
C1065 C1049 1.377 . S
C1065 C1063 1.389 . S
C1065 C1066 1.524 . S
C1066 C1065 1.524 . S
C1066 C1067 1.397 . S
C1066 C1071 1.363 . S
C1067 H1038 0.950 . S
C1067 C1066 1.397 . S
C1067 C1068 1.334 . S
C1068 H1039 0.950 . S
C1068 C1067 1.334 . S
C1068 C1069 1.287 . S
C1069 C1068 1.287 . S
C1069 C1070 1.524 . S
C1069 H1072 0.999 . S
C1070 H1040 0.950 . S
C1070 C1069 1.524 . S
C1070 C1071 1.415 . S
C1071 H1041 0.950 . S
C1071 C1066 1.363 . S
C1071 C1070 1.415 . S
H1072 C1069 0.999 . S
H1073 C1054 0.913 . S
H1074 C1092 0.951 . S
H1075 C1094 0.951 . S
H1076 C1096 0.950 . S
H1077 C1097 0.950 . S
H1078 C1099 0.950 . S
H1079 C1102 0.950 . S
H1080 C1103 0.950 . S
H1081 C1105 0.950 . S
H1082 C1106 0.950 . S
H1083 C1107 0.951 . S
H1084 C1109 0.951 . S
H1085 C1111 0.950 . S
H1086 C1112 0.950 . S
H1087 C1114 0.950 . S
H1088 C1117 0.950 . S
H1089 C1118 0.963 . S
H1090 C1120 0.950 . S
H1091 C1121 0.950 . S
C1092 H1074 0.951 . S
C1092 C1093 1.366 . S
C1092 C1094 1.388 . S
C1093 C1092 1.366 . S
C1093 C1097 1.385 . S
C1094 H1075 0.951 . S
C1094 C1092 1.388 . S
C1094 C1095 1.366 . S
C1095 C1094 1.366 . S
C1095 C1096 1.414 . S
C1095 C1098 1.499 . S
C1096 H1076 0.950 . S
C1096 C1095 1.414 . S
C1096 C1097 1.374 . S
C1097 H1077 0.950 . S
C1097 C1093 1.385 . S
C1097 C1096 1.374 . S
C1098 C1095 1.499 . S
C1098 C1099 1.373 . S
C1098 C1100 1.389 . S
C1099 H1078 0.950 . S
C1099 C1098 1.373 . S
C1099 C1115 1.377 . S
C1100 C1098 1.389 . S
C1100 C1101 1.524 . S
C1100 C1114 1.377 . S
C1101 C1100 1.524 . S
C1101 C1102 1.397 . S
C1101 C1106 1.363 . S
C1102 H1079 0.950 . S
C1102 C1101 1.397 . S
C1102 C1103 1.334 . S
C1103 H1080 0.950 . S
C1103 C1102 1.334 . S
C1103 C1104 1.287 . S
C1104 C1103 1.287 . S
C1104 C1105 1.524 . S
C1104 H1123 0.913 . S
C1105 H1081 0.950 . S
C1105 C1104 1.524 . S
C1105 C1106 1.415 . S
C1106 H1082 0.950 . S
C1106 C1101 1.363 . S
C1106 C1105 1.415 . S
C1107 H1083 0.951 . S
C1107 C1108 1.366 . S
C1107 C1109 1.388 . S
C1108 C1107 1.366 . S
C1108 C1112 1.385 . S
C1109 H1084 0.951 . S
C1109 C1107 1.388 . S
C1109 C1110 1.366 . S
C1110 C1109 1.366 . S
C1110 C1111 1.414 . S
C1110 C1113 1.499 . S
C1111 H1085 0.950 . S
C1111 C1110 1.414 . S
C1111 C1112 1.374 . S
C1112 H1086 0.950 . S
C1112 C1108 1.385 . S
C1112 C1111 1.374 . S
C1113 C1110 1.499 . S
C1113 C1114 1.373 . S
C1113 C1115 1.389 . S
C1114 H1087 0.950 . S
C1114 C1100 1.377 . S
C1114 C1113 1.373 . S
C1115 C1099 1.377 . S
C1115 C1113 1.389 . S
C1115 C1116 1.524 . S
C1116 C1115 1.524 . S
C1116 C1117 1.397 . S
C1116 C1121 1.363 . S
C1117 H1088 0.950 . S
C1117 C1116 1.397 . S
C1117 C1118 1.334 . S
C1118 H1089 0.963 . S
C1118 C1117 1.334 . S
C1118 C1119 1.287 . S
C1119 C1118 1.287 . S
C1119 C1120 1.524 . S
C1119 H1122 0.999 . S
C1120 H1090 0.950 . S
C1120 C1119 1.524 . S
C1120 C1121 1.415 . S
C1121 H1091 0.950 . S
C1121 C1116 1.363 . S
C1121 C1120 1.415 . S
H1122 C1119 0.999 . S
H1123 C1104 0.913 . S
H1124 C1142 0.951 . S
H1125 C1144 0.951 . S
H1126 C1146 0.950 . S
H1127 C1147 0.950 . S
H1128 C1149 0.950 . S
H1129 C1152 0.950 . S
H1130 C1153 0.950 . S
H1131 C1155 0.950 . S
H1132 C1156 0.950 . S
H1133 C1157 0.951 . S
H1134 C1159 0.951 . S
H1135 C1161 0.950 . S
H1136 C1162 0.950 . S
H1137 C1164 0.950 . S
H1138 C1167 0.950 . S
H1139 C1168 0.950 . S
H1140 C1170 0.950 . S
H1141 C1171 0.950 . S
C1142 H1124 0.951 . S
C1142 C1143 1.366 . S
C1142 C1144 1.388 . S
C1143 C1142 1.366 . S
C1143 C1147 1.385 . S
C1144 H1125 0.951 . S
C1144 C1142 1.388 . S
C1144 C1145 1.366 . S
C1145 C1144 1.366 . S
C1145 C1146 1.414 . S
C1145 C1148 1.499 . S
C1146 H1126 0.950 . S
C1146 C1145 1.414 . S
C1146 C1147 1.374 . S
C1147 H1127 0.950 . S
C1147 C1143 1.385 . S
C1147 C1146 1.374 . S
C1148 C1145 1.499 . S
C1148 C1149 1.373 . S
C1148 C1150 1.389 . S
C1149 H1128 0.950 . S
C1149 C1148 1.373 . S
C1149 C1165 1.377 . S
C1150 C1148 1.389 . S
C1150 C1151 1.524 . S
C1150 C1164 1.377 . S
C1151 C1150 1.524 . S
C1151 C1152 1.397 . S
C1151 C1156 1.363 . S
C1152 H1129 0.950 . S
C1152 C1151 1.397 . S
C1152 C1153 1.334 . S
C1153 H1130 0.950 . S
C1153 C1152 1.334 . S
C1153 C1154 1.287 . S
C1154 C1153 1.287 . S
C1154 C1155 1.524 . S
C1154 H1173 0.913 . S
C1155 H1131 0.950 . S
C1155 C1154 1.524 . S
C1155 C1156 1.415 . S
C1156 H1132 0.950 . S
C1156 C1151 1.363 . S
C1156 C1155 1.415 . S
C1157 H1133 0.951 . S
C1157 C1158 1.366 . S
C1157 C1159 1.388 . S
C1158 C1157 1.366 . S
C1158 C1162 1.385 . S
C1159 H1134 0.951 . S
C1159 C1157 1.388 . S
C1159 C1160 1.366 . S
C1160 C1159 1.366 . S
C1160 C1161 1.414 . S
C1160 C1163 1.499 . S
C1161 H1135 0.950 . S
C1161 C1160 1.414 . S
C1161 C1162 1.374 . S
C1162 H1136 0.950 . S
C1162 C1158 1.385 . S
C1162 C1161 1.374 . S
C1163 C1160 1.499 . S
C1163 C1164 1.373 . S
C1163 C1165 1.389 . S
C1164 H1137 0.950 . S
C1164 C1150 1.377 . S
C1164 C1163 1.373 . S
C1165 C1149 1.377 . S
C1165 C1163 1.389 . S
C1165 C1166 1.524 . S
C1166 C1165 1.524 . S
C1166 C1167 1.397 . S
C1166 C1171 1.363 . S
C1167 H1138 0.950 . S
C1167 C1166 1.397 . S
C1167 C1168 1.334 . S
C1168 H1139 0.950 . S
C1168 C1167 1.334 . S
C1168 C1169 1.287 . S
C1169 C1168 1.287 . S
C1169 C1170 1.524 . S
C1169 H1172 0.999 . S
C1170 H1140 0.950 . S
C1170 C1169 1.524 . S
C1170 C1171 1.415 . S
C1171 H1141 0.950 . S
C1171 C1166 1.363 . S
C1171 C1170 1.415 . S
H1172 C1169 0.999 . S
H1173 C1154 0.913 . S
H1174 C1192 0.951 . S
H1175 C1194 0.951 . S
H1176 C1196 0.950 . S
H1177 C1197 0.950 . S
H1178 C1199 0.950 . S
H1179 C1202 0.950 . S
H1180 C1203 0.950 . S
H1181 C1205 0.950 . S
H1182 C1206 0.950 . S
H1183 C1207 0.951 . S
H1184 C1209 0.951 . S
H1185 C1211 0.950 . S
H1186 C1212 0.950 . S
H1187 C1214 0.950 . S
H1188 C1217 0.950 . S
H1189 C1218 0.946 1_554 S
H1190 C1220 0.950 1_554 S
H1191 C1221 0.950 . S
C1192 H1174 0.951 . S
C1192 C1193 1.366 . S
C1192 C1194 1.388 . S
C1193 C1192 1.366 . S
C1193 C1197 1.385 . S
C1194 H1175 0.951 . S
C1194 C1192 1.388 . S
C1194 C1195 1.366 . S
C1195 C1194 1.366 . S
C1195 C1196 1.414 . S
C1195 C1198 1.499 . S
C1196 H1176 0.950 . S
C1196 C1195 1.414 . S
C1196 C1197 1.374 . S
C1197 H1177 0.950 . S
C1197 C1193 1.385 . S
C1197 C1196 1.374 . S
C1198 C1195 1.499 . S
C1198 C1199 1.373 . S
C1198 C1200 1.389 . S
C1199 H1178 0.950 . S
C1199 C1198 1.373 . S
C1199 C1215 1.377 . S
C1200 C1198 1.389 . S
C1200 C1201 1.524 . S
C1200 C1214 1.377 . S
C1201 C1200 1.524 . S
C1201 C1202 1.397 . S
C1201 C1206 1.363 . S
C1202 H1179 0.950 . S
C1202 C1201 1.397 . S
C1202 C1203 1.334 . S
C1203 H1180 0.950 . S
C1203 C1202 1.334 . S
C1203 C1204 1.287 . S
C1204 C1203 1.287 . S
C1204 C1205 1.524 . S
C1204 H1223 0.913 . S
C1205 H1181 0.950 . S
C1205 C1204 1.524 . S
C1205 C1206 1.415 . S
C1206 H1182 0.950 . S
C1206 C1201 1.363 . S
C1206 C1205 1.415 . S
C1207 H1183 0.951 . S
C1207 C1208 1.366 . S
C1207 C1209 1.388 . S
C1208 C1207 1.366 . S
C1208 C1212 1.385 . S
C1209 H1184 0.951 . S
C1209 C1207 1.388 . S
C1209 C1210 1.366 . S
C1210 C1209 1.366 . S
C1210 C1211 1.414 . S
C1210 C1213 1.499 . S
C1211 H1185 0.950 . S
C1211 C1210 1.414 . S
C1211 C1212 1.374 . S
C1212 H1186 0.950 . S
C1212 C1208 1.385 . S
C1212 C1211 1.374 . S
C1213 C1210 1.499 . S
C1213 C1214 1.373 . S
C1213 C1215 1.389 . S
C1214 H1187 0.950 . S
C1214 C1200 1.377 . S
C1214 C1213 1.373 . S
C1215 C1199 1.377 . S
C1215 C1213 1.389 . S
C1215 C1216 1.524 . S
C1216 C1215 1.524 . S
C1216 C1217 1.397 . S
C1216 C1221 1.363 . S
C1217 H1188 0.950 . S
C1217 C1216 1.397 . S
C1217 C1218 1.334 . S
C1218 H1189 0.946 1_556 S
C1218 C1217 1.334 . S
C1218 C1219 1.287 1_556 S
C1219 C1218 1.287 1_554 S
C1219 C1220 1.524 1_554 S
C1219 H1222 0.999 . S
C1220 H1190 0.950 1_556 S
C1220 C1219 1.524 1_556 S
C1220 C1221 1.415 . S
C1221 H1191 0.950 . S
C1221 C1216 1.363 . S
C1221 C1220 1.415 . S
H1222 C1219 0.999 . S
H1223 C1204 0.913 . S
H1224 C1242 0.951 . S
H1225 C1244 0.951 . S
H1226 C1246 0.950 . S
H1227 C1247 0.950 . S
H1228 C1249 0.950 . S
H1229 C1252 0.950 . S
H1230 C1253 0.950 . S
H1231 C1255 0.950 . S
H1232 C1256 0.950 . S
H1233 C1257 0.951 . S
H1234 C1259 0.951 . S
H1235 C1261 0.950 . S
H1236 C1262 0.950 . S
H1237 C1264 0.950 . S
H1238 C1267 0.950 . S
H1239 C1268 0.950 . S
H1240 C1270 0.950 . S
H1241 C1271 0.950 . S
C1242 H1224 0.951 . S
C1242 C1243 1.366 . S
C1242 C1244 1.388 . S
C1243 C1242 1.366 . S
C1243 C1247 1.385 . S
C1244 H1225 0.951 . S
C1244 C1242 1.388 . S
C1244 C1245 1.366 . S
C1245 C1244 1.366 . S
C1245 C1246 1.414 . S
C1245 C1248 1.499 . S
C1246 H1226 0.950 . S
C1246 C1245 1.414 . S
C1246 C1247 1.374 . S
C1247 H1227 0.950 . S
C1247 C1243 1.385 . S
C1247 C1246 1.374 . S
C1248 C1245 1.499 . S
C1248 C1249 1.373 . S
C1248 C1250 1.389 . S
C1249 H1228 0.950 . S
C1249 C1248 1.373 . S
C1249 C1265 1.377 . S
C1250 C1248 1.389 . S
C1250 C1251 1.524 . S
C1250 C1264 1.377 . S
C1251 C1250 1.524 . S
C1251 C1252 1.397 . S
C1251 C1256 1.363 . S
C1252 H1229 0.950 . S
C1252 C1251 1.397 . S
C1252 C1253 1.334 . S
C1253 H1230 0.950 . S
C1253 C1252 1.334 . S
C1253 C1254 1.287 . S
C1254 C1253 1.287 . S
C1254 C1255 1.524 . S
C1254 H1273 0.913 . S
C1255 H1231 0.950 . S
C1255 C1254 1.524 . S
C1255 C1256 1.415 . S
C1256 H1232 0.950 . S
C1256 C1251 1.363 . S
C1256 C1255 1.415 . S
C1257 H1233 0.951 . S
C1257 C1258 1.366 . S
C1257 C1259 1.388 . S
C1258 C1257 1.366 . S
C1258 C1262 1.385 . S
C1259 H1234 0.951 . S
C1259 C1257 1.388 . S
C1259 C1260 1.366 . S
C1260 C1259 1.366 . S
C1260 C1261 1.414 . S
C1260 C1263 1.499 . S
C1261 H1235 0.950 . S
C1261 C1260 1.414 . S
C1261 C1262 1.374 . S
C1262 H1236 0.950 . S
C1262 C1258 1.385 . S
C1262 C1261 1.374 . S
C1263 C1260 1.499 . S
C1263 C1264 1.373 . S
C1263 C1265 1.389 . S
C1264 H1237 0.950 . S
C1264 C1250 1.377 . S
C1264 C1263 1.373 . S
C1265 C1249 1.377 . S
C1265 C1263 1.389 . S
C1265 C1266 1.524 . S
C1266 C1265 1.524 . S
C1266 C1267 1.397 . S
C1266 C1271 1.363 . S
C1267 H1238 0.950 . S
C1267 C1266 1.397 . S
C1267 C1268 1.334 . S
C1268 H1239 0.950 . S
C1268 C1267 1.334 . S
C1268 C1269 1.287 . S
C1269 C1268 1.287 . S
C1269 C1270 1.524 . S
C1269 H1272 0.999 . S
C1270 H1240 0.950 . S
C1270 C1269 1.524 . S
C1270 C1271 1.415 . S
C1271 H1241 0.950 . S
C1271 C1266 1.363 . S
C1271 C1270 1.415 . S
H1272 C1269 0.999 . S
H1273 C1254 0.913 . S
H1274 C1292 0.951 . S
H1275 C1294 0.951 . S
H1276 C1296 0.950 . S
H1277 C1297 0.950 . S
H1278 C1299 0.950 . S
H1279 C1302 0.950 . S
H1280 C1303 0.950 . S
H1281 C1305 0.950 . S
H1282 C1306 0.950 . S
H1283 C1307 0.951 . S
H1284 C1309 0.951 . S
H1285 C1311 0.950 . S
H1286 C1312 0.950 . S
H1287 C1314 0.950 . S
H1288 C1317 0.950 . S
H1289 C1318 0.950 . S
H1290 C1320 0.950 . S
H1291 C1321 0.950 . S
C1292 H1274 0.951 . S
C1292 C1293 1.366 . S
C1292 C1294 1.388 . S
C1293 C1292 1.366 . S
C1293 C1297 1.385 . S
C1294 H1275 0.951 . S
C1294 C1292 1.388 . S
C1294 C1295 1.366 . S
C1295 C1294 1.366 . S
C1295 C1296 1.414 . S
C1295 C1298 1.499 . S
C1296 H1276 0.950 . S
C1296 C1295 1.414 . S
C1296 C1297 1.374 . S
C1297 H1277 0.950 . S
C1297 C1293 1.385 . S
C1297 C1296 1.374 . S
C1298 C1295 1.499 . S
C1298 C1299 1.373 . S
C1298 C1300 1.389 . S
C1299 H1278 0.950 . S
C1299 C1298 1.373 . S
C1299 C1315 1.377 . S
C1300 C1298 1.389 . S
C1300 C1301 1.524 . S
C1300 C1314 1.377 . S
C1301 C1300 1.524 . S
C1301 C1302 1.397 . S
C1301 C1306 1.363 . S
C1302 H1279 0.950 . S
C1302 C1301 1.397 . S
C1302 C1303 1.334 . S
C1303 H1280 0.950 . S
C1303 C1302 1.334 . S
C1303 C1304 1.287 . S
C1304 C1303 1.287 . S
C1304 C1305 1.524 . S
C1304 H1323 0.913 . S
C1305 H1281 0.950 . S
C1305 C1304 1.524 . S
C1305 C1306 1.415 . S
C1306 H1282 0.950 . S
C1306 C1301 1.363 . S
C1306 C1305 1.415 . S
C1307 H1283 0.951 . S
C1307 C1308 1.366 . S
C1307 C1309 1.388 . S
C1308 C1307 1.366 . S
C1308 C1312 1.385 . S
C1309 H1284 0.951 . S
C1309 C1307 1.388 . S
C1309 C1310 1.366 . S
C1310 C1309 1.366 . S
C1310 C1311 1.414 . S
C1310 C1313 1.499 . S
C1311 H1285 0.950 . S
C1311 C1310 1.414 . S
C1311 C1312 1.374 . S
C1312 H1286 0.950 . S
C1312 C1308 1.385 . S
C1312 C1311 1.374 . S
C1313 C1310 1.499 . S
C1313 C1314 1.373 . S
C1313 C1315 1.389 . S
C1314 H1287 0.950 . S
C1314 C1300 1.377 . S
C1314 C1313 1.373 . S
C1315 C1299 1.377 . S
C1315 C1313 1.389 . S
C1315 C1316 1.524 . S
C1316 C1315 1.524 . S
C1316 C1317 1.397 . S
C1316 C1321 1.363 . S
C1317 H1288 0.950 . S
C1317 C1316 1.397 . S
C1317 C1318 1.334 . S
C1318 H1289 0.950 . S
C1318 C1317 1.334 . S
C1318 C1319 1.287 . S
C1319 C1318 1.287 . S
C1319 C1320 1.524 . S
C1319 H1322 0.999 . S
C1320 H1290 0.950 . S
C1320 C1319 1.524 . S
C1320 C1321 1.415 . S
C1321 H1291 0.950 . S
C1321 C1316 1.363 . S
C1321 C1320 1.415 . S
H1322 C1319 0.999 . S
H1323 C1304 0.913 . S
H1324 C1342 0.951 . S
H1325 C1344 0.951 . S
H1326 C1346 0.950 . S
H1327 C1347 0.950 . S
H1328 C1349 0.950 . S
H1329 C1352 0.950 . S
H1330 C1353 0.950 . S
H1331 C1355 0.950 . S
H1332 C1356 0.950 . S
H1333 C1357 0.951 . S
H1334 C1359 0.951 . S
H1335 C1361 0.950 . S
H1336 C1362 0.950 . S
H1337 C1364 0.950 . S
H1338 C1367 0.950 . S
H1339 C1368 0.950 . S
H1340 C1370 0.950 . S
H1341 C1371 0.950 . S
C1342 H1324 0.951 . S
C1342 C1343 1.366 . S
C1342 C1344 1.388 . S
C1343 C1342 1.366 . S
C1343 C1347 1.385 . S
C1344 H1325 0.951 . S
C1344 C1342 1.388 . S
C1344 C1345 1.366 . S
C1345 C1344 1.366 . S
C1345 C1346 1.414 . S
C1345 C1348 1.499 . S
C1346 H1326 0.950 . S
C1346 C1345 1.414 . S
C1346 C1347 1.374 . S
C1347 H1327 0.950 . S
C1347 C1343 1.385 . S
C1347 C1346 1.374 . S
C1348 C1345 1.499 . S
C1348 C1349 1.373 . S
C1348 C1350 1.389 . S
C1349 H1328 0.950 . S
C1349 C1348 1.373 . S
C1349 C1365 1.377 . S
C1350 C1348 1.389 . S
C1350 C1351 1.524 . S
C1350 C1364 1.377 . S
C1351 C1350 1.524 . S
C1351 C1352 1.397 . S
C1351 C1356 1.363 . S
C1352 H1329 0.950 . S
C1352 C1351 1.397 . S
C1352 C1353 1.334 . S
C1353 H1330 0.950 . S
C1353 C1352 1.334 . S
C1353 C1354 1.287 . S
C1354 C1353 1.287 . S
C1354 C1355 1.524 . S
C1354 H1373 0.913 . S
C1355 H1331 0.950 . S
C1355 C1354 1.524 . S
C1355 C1356 1.415 . S
C1356 H1332 0.950 . S
C1356 C1351 1.363 . S
C1356 C1355 1.415 . S
C1357 H1333 0.951 . S
C1357 C1358 1.366 . S
C1357 C1359 1.388 . S
C1358 C1357 1.366 . S
C1358 C1362 1.385 . S
C1359 H1334 0.951 . S
C1359 C1357 1.388 . S
C1359 C1360 1.366 . S
C1360 C1359 1.366 . S
C1360 C1361 1.414 . S
C1360 C1363 1.499 . S
C1361 H1335 0.950 . S
C1361 C1360 1.414 . S
C1361 C1362 1.374 . S
C1362 H1336 0.950 . S
C1362 C1358 1.385 . S
C1362 C1361 1.374 . S
C1363 C1360 1.499 . S
C1363 C1364 1.373 . S
C1363 C1365 1.389 . S
C1364 H1337 0.950 . S
C1364 C1350 1.377 . S
C1364 C1363 1.373 . S
C1365 C1349 1.377 . S
C1365 C1363 1.389 . S
C1365 C1366 1.524 . S
C1366 C1365 1.524 . S
C1366 C1367 1.397 . S
C1366 C1371 1.363 . S
C1367 H1338 0.950 . S
C1367 C1366 1.397 . S
C1367 C1368 1.334 . S
C1368 H1339 0.950 . S
C1368 C1367 1.334 . S
C1368 C1369 1.287 . S
C1369 C1368 1.287 . S
C1369 C1370 1.524 . S
C1369 H1372 0.999 . S
C1370 H1340 0.950 . S
C1370 C1369 1.524 . S
C1370 C1371 1.415 . S
C1371 H1341 0.950 . S
C1371 C1366 1.363 . S
C1371 C1370 1.415 . S
H1372 C1369 0.999 . S
H1373 C1354 0.913 . S
H1374 C1392 0.951 . S
H1375 C1394 0.951 . S
H1376 C1396 0.950 . S
H1377 C1397 0.950 . S
H1378 C1399 0.950 . S
H1379 C1402 0.950 . S
H1380 C1403 0.950 . S
H1381 C1405 0.950 . S
H1382 C1406 0.950 . S
H1383 C1407 0.951 . S
H1384 C1409 0.951 . S
H1385 C1411 0.950 . S
H1386 C1412 0.950 . S
H1387 C1414 0.950 . S
H1388 C1417 0.950 . S
H1389 C1418 0.950 . S
H1390 C1420 0.950 . S
H1391 C1421 0.950 . S
C1392 H1374 0.951 . S
C1392 C1393 1.366 . S
C1392 C1394 1.388 . S
C1393 C1392 1.366 . S
C1393 C1397 1.385 . S
C1394 H1375 0.951 . S
C1394 C1392 1.388 . S
C1394 C1395 1.366 . S
C1395 C1394 1.366 . S
C1395 C1396 1.414 . S
C1395 C1398 1.499 . S
C1396 H1376 0.950 . S
C1396 C1395 1.414 . S
C1396 C1397 1.374 . S
C1397 H1377 0.950 . S
C1397 C1393 1.385 . S
C1397 C1396 1.374 . S
C1398 C1395 1.499 . S
C1398 C1399 1.373 . S
C1398 C1400 1.389 . S
C1399 H1378 0.950 . S
C1399 C1398 1.373 . S
C1399 C1415 1.377 . S
C1400 C1398 1.389 . S
C1400 C1401 1.524 . S
C1400 C1414 1.377 . S
C1401 C1400 1.524 . S
C1401 C1402 1.397 . S
C1401 C1406 1.363 . S
C1402 H1379 0.950 . S
C1402 C1401 1.397 . S
C1402 C1403 1.334 . S
C1403 H1380 0.950 . S
C1403 C1402 1.334 . S
C1403 C1404 1.287 . S
C1404 C1403 1.287 . S
C1404 C1405 1.524 . S
C1404 H1423 0.913 . S
C1405 H1381 0.950 . S
C1405 C1404 1.524 . S
C1405 C1406 1.415 . S
C1406 H1382 0.950 . S
C1406 C1401 1.363 . S
C1406 C1405 1.415 . S
C1407 H1383 0.951 . S
C1407 C1408 1.366 . S
C1407 C1409 1.388 . S
C1408 C1407 1.366 . S
C1408 C1412 1.385 . S
C1409 H1384 0.951 . S
C1409 C1407 1.388 . S
C1409 C1410 1.366 . S
C1410 C1409 1.366 . S
C1410 C1411 1.414 . S
C1410 C1413 1.499 . S
C1411 H1385 0.950 . S
C1411 C1410 1.414 . S
C1411 C1412 1.374 . S
C1412 H1386 0.950 . S
C1412 C1408 1.385 . S
C1412 C1411 1.374 . S
C1413 C1410 1.499 . S
C1413 C1414 1.373 . S
C1413 C1415 1.389 . S
C1414 H1387 0.950 . S
C1414 C1400 1.377 . S
C1414 C1413 1.373 . S
C1415 C1399 1.377 . S
C1415 C1413 1.389 . S
C1415 C1416 1.524 . S
C1416 C1415 1.524 . S
C1416 C1417 1.397 . S
C1416 C1421 1.363 . S
C1417 H1388 0.950 . S
C1417 C1416 1.397 . S
C1417 C1418 1.334 . S
C1418 H1389 0.950 . S
C1418 C1417 1.334 . S
C1418 C1419 1.287 . S
C1419 C1418 1.287 . S
C1419 C1420 1.524 . S
C1419 H1422 0.999 . S
C1420 H1390 0.950 . S
C1420 C1419 1.524 . S
C1420 C1421 1.415 . S
C1421 H1391 0.950 . S
C1421 C1416 1.363 . S
C1421 C1420 1.415 . S
H1422 C1419 0.999 . S
H1423 C1404 0.913 . S
H1424 C1442 0.951 . S
H1425 C1444 0.951 . S
H1426 C1446 0.950 . S
H1427 C1447 0.950 . S
H1428 C1449 0.950 . S
H1429 C1452 0.950 . S
H1430 C1453 0.950 . S
H1431 C1455 0.950 . S
H1432 C1456 0.950 . S
H1433 C1457 0.951 . S
H1434 C1459 0.951 . S
H1435 C1461 0.950 . S
H1436 C1462 0.950 . S
H1437 C1464 0.950 . S
H1438 C1467 0.950 . S
H1439 C1468 0.950 . S
H1440 C1470 0.950 . S
H1441 C1471 0.950 . S
C1442 H1424 0.951 . S
C1442 C1443 1.366 . S
C1442 C1444 1.388 . S
C1443 C1442 1.366 . S
C1443 C1447 1.385 . S
C1444 H1425 0.951 . S
C1444 C1442 1.388 . S
C1444 C1445 1.366 . S
C1445 C1444 1.366 . S
C1445 C1446 1.414 . S
C1445 C1448 1.499 . S
C1446 H1426 0.950 . S
C1446 C1445 1.414 . S
C1446 C1447 1.374 . S
C1447 H1427 0.950 . S
C1447 C1443 1.385 . S
C1447 C1446 1.374 . S
C1448 C1445 1.499 . S
C1448 C1449 1.373 . S
C1448 C1450 1.389 . S
C1449 H1428 0.950 . S
C1449 C1448 1.373 . S
C1449 C1465 1.377 . S
C1450 C1448 1.389 . S
C1450 C1451 1.524 . S
C1450 C1464 1.377 . S
C1451 C1450 1.524 . S
C1451 C1452 1.397 . S
C1451 C1456 1.363 . S
C1452 H1429 0.950 . S
C1452 C1451 1.397 . S
C1452 C1453 1.334 . S
C1453 H1430 0.950 . S
C1453 C1452 1.334 . S
C1453 C1454 1.287 . S
C1454 C1453 1.287 . S
C1454 C1455 1.524 . S
C1454 H1473 0.913 . S
C1455 H1431 0.950 . S
C1455 C1454 1.524 . S
C1455 C1456 1.415 . S
C1456 H1432 0.950 . S
C1456 C1451 1.363 . S
C1456 C1455 1.415 . S
C1457 H1433 0.951 . S
C1457 C1458 1.366 . S
C1457 C1459 1.388 1_554 S
C1458 C1457 1.366 . S
C1458 C1462 1.385 1_554 S
C1459 H1434 0.951 . S
C1459 C1457 1.388 1_556 S
C1459 C1460 1.366 . S
C1460 C1459 1.366 . S
C1460 C1461 1.414 . S
C1460 C1463 1.499 . S
C1461 H1435 0.950 . S
C1461 C1460 1.414 . S
C1461 C1462 1.374 . S
C1462 H1436 0.950 . S
C1462 C1458 1.385 1_556 S
C1462 C1461 1.374 . S
C1463 C1460 1.499 . S
C1463 C1464 1.373 . S
C1463 C1465 1.389 . S
C1464 H1437 0.950 . S
C1464 C1450 1.377 . S
C1464 C1463 1.373 . S
C1465 C1449 1.377 . S
C1465 C1463 1.389 . S
C1465 C1466 1.524 . S
C1466 C1465 1.524 . S
C1466 C1467 1.397 . S
C1466 C1471 1.363 . S
C1467 H1438 0.950 . S
C1467 C1466 1.397 . S
C1467 C1468 1.334 . S
C1468 H1439 0.950 . S
C1468 C1467 1.334 . S
C1468 C1469 1.287 . S
C1469 C1468 1.287 . S
C1469 C1470 1.524 . S
C1469 H1472 0.999 . S
C1470 H1440 0.950 . S
C1470 C1469 1.524 . S
C1470 C1471 1.415 . S
C1471 H1441 0.950 . S
C1471 C1466 1.363 . S
C1471 C1470 1.415 . S
H1472 C1469 0.999 . S
H1473 C1454 0.913 . S
H1474 C1492 0.951 . S
H1475 C1494 0.951 . S
H1476 C1496 0.950 . S
H1477 C1497 0.950 . S
H1478 C1499 0.950 . S
H1479 C1502 0.950 . S
H1480 C1503 0.950 . S
H1481 C1505 0.950 . S
H1482 C1506 0.950 . S
H1483 C1507 0.951 . S
H1484 C1509 0.951 . S
H1485 C1511 0.950 . S
H1486 C1512 0.950 . S
H1487 C1514 0.950 . S
H1488 C1517 0.950 . S
H1489 C1518 0.950 . S
H1490 C1520 0.950 . S
H1491 C1521 0.950 . S
C1492 H1474 0.951 . S
C1492 C1493 1.366 . S
C1492 C1494 1.388 . S
C1493 C1492 1.366 . S
C1493 C1497 1.385 . S
C1494 H1475 0.951 . S
C1494 C1492 1.388 . S
C1494 C1495 1.366 . S
C1495 C1494 1.366 . S
C1495 C1496 1.414 . S
C1495 C1498 1.499 . S
C1496 H1476 0.950 . S
C1496 C1495 1.414 . S
C1496 C1497 1.374 . S
C1497 H1477 0.950 . S
C1497 C1493 1.385 . S
C1497 C1496 1.374 . S
C1498 C1495 1.499 . S
C1498 C1499 1.373 . S
C1498 C1500 1.389 . S
C1499 H1478 0.950 . S
C1499 C1498 1.373 . S
C1499 C1515 1.377 . S
C1500 C1498 1.389 . S
C1500 C1501 1.524 . S
C1500 C1514 1.377 . S
C1501 C1500 1.524 . S
C1501 C1502 1.397 . S
C1501 C1506 1.363 . S
C1502 H1479 0.950 . S
C1502 C1501 1.397 . S
C1502 C1503 1.334 . S
C1503 H1480 0.950 . S
C1503 C1502 1.334 . S
C1503 C1504 1.287 . S
C1504 C1503 1.287 . S
C1504 C1505 1.524 . S
C1504 H1523 0.913 . S
C1505 H1481 0.950 . S
C1505 C1504 1.524 . S
C1505 C1506 1.415 . S
C1506 H1482 0.950 . S
C1506 C1501 1.363 . S
C1506 C1505 1.415 . S
C1507 H1483 0.951 . S
C1507 C1508 1.366 1_554 S
C1507 C1509 1.388 . S
C1508 C1507 1.366 1_556 S
C1508 C1512 1.385 . S
C1509 H1484 0.951 . S
C1509 C1507 1.388 . S
C1509 C1510 1.366 . S
C1510 C1509 1.366 . S
C1510 C1511 1.414 . S
C1510 C1513 1.499 . S
C1511 H1485 0.950 . S
C1511 C1510 1.414 . S
C1511 C1512 1.374 1_554 S
C1512 H1486 0.950 . S
C1512 C1508 1.385 . S
C1512 C1511 1.374 1_556 S
C1513 C1510 1.499 . S
C1513 C1514 1.373 . S
C1513 C1515 1.389 . S
C1514 H1487 0.950 . S
C1514 C1500 1.377 . S
C1514 C1513 1.373 . S
C1515 C1499 1.377 . S
C1515 C1513 1.389 . S
C1515 C1516 1.524 . S
C1516 C1515 1.524 . S
C1516 C1517 1.397 . S
C1516 C1521 1.363 . S
C1517 H1488 0.950 . S
C1517 C1516 1.397 . S
C1517 C1518 1.334 . S
C1518 H1489 0.950 . S
C1518 C1517 1.334 . S
C1518 C1519 1.287 . S
C1519 C1518 1.287 . S
C1519 C1520 1.524 . S
C1519 H1522 0.999 . S
C1520 H1490 0.950 . S
C1520 C1519 1.524 . S
C1520 C1521 1.415 . S
C1521 H1491 0.950 . S
C1521 C1516 1.363 . S
C1521 C1520 1.415 . S
H1522 C1519 0.999 . S
H1523 C1504 0.913 . S
H1524 C1542 0.951 1_554 S
H1525 C1544 0.951 . S
H1526 C1546 0.950 . S
H1527 C1547 0.950 . S
H1528 C1549 0.950 . S
H1529 C1552 0.950 . S
H1530 C1553 0.950 . S
H1531 C1555 0.950 . S
H1532 C1556 0.950 . S
H1533 C1557 0.951 . S
H1534 C1559 0.951 . S
H1535 C1561 0.950 . S
H1536 C1562 0.950 . S
H1537 C1564 0.950 . S
H1538 C1567 0.950 . S
H1539 C1568 0.950 . S
H1540 C1570 0.950 . S
H1541 C1571 0.950 . S
C1542 H1524 0.951 1_556 S
C1542 C1543 1.366 1_556 S
C1542 C1544 1.388 . S
C1543 C1542 1.366 1_554 S
C1543 C1547 1.385 . S
C1544 H1525 0.951 . S
C1544 C1542 1.388 . S
C1544 C1545 1.366 . S
C1545 C1544 1.366 . S
C1545 C1546 1.414 . S
C1545 C1548 1.499 . S
C1546 H1526 0.950 . S
C1546 C1545 1.414 . S
C1546 C1547 1.374 1_556 S
C1547 H1527 0.950 . S
C1547 C1543 1.385 . S
C1547 C1546 1.374 1_554 S
C1548 C1545 1.499 . S
C1548 C1549 1.373 . S
C1548 C1550 1.389 . S
C1549 H1528 0.950 . S
C1549 C1548 1.373 . S
C1549 C1565 1.377 . S
C1550 C1548 1.389 . S
C1550 C1551 1.524 . S
C1550 C1564 1.377 . S
C1551 C1550 1.524 . S
C1551 C1552 1.397 . S
C1551 C1556 1.363 . S
C1552 H1529 0.950 . S
C1552 C1551 1.397 . S
C1552 C1553 1.334 . S
C1553 H1530 0.950 . S
C1553 C1552 1.334 . S
C1553 C1554 1.287 . S
C1554 C1553 1.287 . S
C1554 C1555 1.524 . S
C1554 H1573 0.913 . S
C1555 H1531 0.950 . S
C1555 C1554 1.524 . S
C1555 C1556 1.415 . S
C1556 H1532 0.950 . S
C1556 C1551 1.363 . S
C1556 C1555 1.415 . S
C1557 H1533 0.951 . S
C1557 C1558 1.366 . S
C1557 C1559 1.388 . S
C1558 C1557 1.366 . S
C1558 C1562 1.385 . S
C1559 H1534 0.951 . S
C1559 C1557 1.388 . S
C1559 C1560 1.366 . S
C1560 C1559 1.366 . S
C1560 C1561 1.414 . S
C1560 C1563 1.499 . S
C1561 H1535 0.950 . S
C1561 C1560 1.414 . S
C1561 C1562 1.374 . S
C1562 H1536 0.950 . S
C1562 C1558 1.385 . S
C1562 C1561 1.374 . S
C1563 C1560 1.499 . S
C1563 C1564 1.373 . S
C1563 C1565 1.389 . S
C1564 H1537 0.950 . S
C1564 C1550 1.377 . S
C1564 C1563 1.373 . S
C1565 C1549 1.377 . S
C1565 C1563 1.389 . S
C1565 C1566 1.524 . S
C1566 C1565 1.524 . S
C1566 C1567 1.397 . S
C1566 C1571 1.363 . S
C1567 H1538 0.950 . S
C1567 C1566 1.397 . S
C1567 C1568 1.334 . S
C1568 H1539 0.950 . S
C1568 C1567 1.334 . S
C1568 C1569 1.287 . S
C1569 C1568 1.287 . S
C1569 C1570 1.524 . S
C1569 H1572 0.999 . S
C1570 H1540 0.950 . S
C1570 C1569 1.524 . S
C1570 C1571 1.415 . S
C1571 H1541 0.950 . S
C1571 C1566 1.363 . S
C1571 C1570 1.415 . S
H1572 C1569 0.999 . S
H1573 C1554 0.913 . S
H1574 C1592 0.951 . S
H1575 C1594 0.951 . S
H1576 C1596 0.950 . S
H1577 C1597 0.950 . S
H1578 C1599 0.950 . S
H1579 C1602 0.950 . S
H1580 C1603 0.950 . S
H1581 C1605 0.950 . S
H1582 C1606 0.950 . S
H1583 C1607 0.951 1_556 S
H1584 C1609 0.951 . S
H1585 C1611 0.950 . S
H1586 C1612 0.950 . S
H1587 C1614 0.950 . S
H1588 C1617 0.950 . S
H1589 C1618 0.950 . S
H1590 C1620 0.950 . S
H1591 C1621 0.950 . S
C1592 H1574 0.951 . S
C1592 C1593 1.366 . S
C1592 C1594 1.388 . S
C1593 C1592 1.366 . S
C1593 C1597 1.385 . S
C1594 H1575 0.951 . S
C1594 C1592 1.388 . S
C1594 C1595 1.366 . S
C1595 C1594 1.366 . S
C1595 C1596 1.414 . S
C1595 C1598 1.499 . S
C1596 H1576 0.950 . S
C1596 C1595 1.414 . S
C1596 C1597 1.374 . S
C1597 H1577 0.950 . S
C1597 C1593 1.385 . S
C1597 C1596 1.374 . S
C1598 C1595 1.499 . S
C1598 C1599 1.373 . S
C1598 C1600 1.389 . S
C1599 H1578 0.950 . S
C1599 C1598 1.373 . S
C1599 C1615 1.377 . S
C1600 C1598 1.389 . S
C1600 C1601 1.524 . S
C1600 C1614 1.377 . S
C1601 C1600 1.524 . S
C1601 C1602 1.397 . S
C1601 C1606 1.363 . S
C1602 H1579 0.950 . S
C1602 C1601 1.397 . S
C1602 C1603 1.334 . S
C1603 H1580 0.950 . S
C1603 C1602 1.334 . S
C1603 C1604 1.287 . S
C1604 C1603 1.287 . S
C1604 C1605 1.524 . S
C1604 H1623 0.913 . S
C1605 H1581 0.950 . S
C1605 C1604 1.524 . S
C1605 C1606 1.415 . S
C1606 H1582 0.950 . S
C1606 C1601 1.363 . S
C1606 C1605 1.415 . S
C1607 H1583 0.951 1_554 S
C1607 C1608 1.366 1_554 S
C1607 C1609 1.388 . S
C1608 C1607 1.366 1_556 S
C1608 C1612 1.385 . S
C1609 H1584 0.951 . S
C1609 C1607 1.388 . S
C1609 C1610 1.366 . S
C1610 C1609 1.366 . S
C1610 C1611 1.414 . S
C1610 C1613 1.499 . S
C1611 H1585 0.950 . S
C1611 C1610 1.414 . S
C1611 C1612 1.374 1_554 S
C1612 H1586 0.950 . S
C1612 C1608 1.385 . S
C1612 C1611 1.374 1_556 S
C1613 C1610 1.499 . S
C1613 C1614 1.373 . S
C1613 C1615 1.389 . S
C1614 H1587 0.950 . S
C1614 C1600 1.377 . S
C1614 C1613 1.373 . S
C1615 C1599 1.377 . S
C1615 C1613 1.389 . S
C1615 C1616 1.524 . S
C1616 C1615 1.524 . S
C1616 C1617 1.397 . S
C1616 C1621 1.363 . S
C1617 H1588 0.950 . S
C1617 C1616 1.397 . S
C1617 C1618 1.334 . S
C1618 H1589 0.950 . S
C1618 C1617 1.334 . S
C1618 C1619 1.287 . S
C1619 C1618 1.287 . S
C1619 C1620 1.524 . S
C1619 H1622 0.999 . S
C1620 H1590 0.950 . S
C1620 C1619 1.524 . S
C1620 C1621 1.415 . S
C1621 H1591 0.950 . S
C1621 C1616 1.363 . S
C1621 C1620 1.415 . S
H1622 C1619 0.999 . S
H1623 C1604 0.913 . S
H1624 C1642 0.951 . S
H1625 C1644 0.951 . S
H1626 C1646 0.950 . S
H1627 C1647 0.950 . S
H1628 C1649 0.950 . S
H1629 C1652 0.950 . S
H1630 C1653 0.950 . S
H1631 C1655 0.950 . S
H1632 C1656 0.950 . S
H1633 C1657 0.951 . S
H1634 C1659 0.951 . S
H1635 C1661 0.950 . S
H1636 C1662 0.950 . S
H1637 C1664 0.950 . S
H1638 C1667 0.950 . S
H1639 C1668 0.950 . S
H1640 C1670 0.950 . S
H1641 C1671 0.950 . S
C1642 H1624 0.951 . S
C1642 C1643 1.366 . S
C1642 C1644 1.388 . S
C1643 C1642 1.366 . S
C1643 C1647 1.385 . S
C1644 H1625 0.951 . S
C1644 C1642 1.388 . S
C1644 C1645 1.366 . S
C1645 C1644 1.366 . S
C1645 C1646 1.414 . S
C1645 C1648 1.499 . S
C1646 H1626 0.950 . S
C1646 C1645 1.414 . S
C1646 C1647 1.374 . S
C1647 H1627 0.950 . S
C1647 C1643 1.385 . S
C1647 C1646 1.374 . S
C1648 C1645 1.499 . S
C1648 C1649 1.373 . S
C1648 C1650 1.389 . S
C1649 H1628 0.950 . S
C1649 C1648 1.373 . S
C1649 C1665 1.377 . S
C1650 C1648 1.389 . S
C1650 C1651 1.524 . S
C1650 C1664 1.377 . S
C1651 C1650 1.524 . S
C1651 C1652 1.397 . S
C1651 C1656 1.363 . S
C1652 H1629 0.950 . S
C1652 C1651 1.397 . S
C1652 C1653 1.334 . S
C1653 H1630 0.950 . S
C1653 C1652 1.334 . S
C1653 C1654 1.287 . S
C1654 C1653 1.287 . S
C1654 C1655 1.524 . S
C1654 H1673 0.913 . S
C1655 H1631 0.950 . S
C1655 C1654 1.524 . S
C1655 C1656 1.415 . S
C1656 H1632 0.950 . S
C1656 C1651 1.363 . S
C1656 C1655 1.415 . S
C1657 H1633 0.951 . S
C1657 C1658 1.366 . S
C1657 C1659 1.388 . S
C1658 C1657 1.366 . S
C1658 C1662 1.385 . S
C1659 H1634 0.951 . S
C1659 C1657 1.388 . S
C1659 C1660 1.366 . S
C1660 C1659 1.366 . S
C1660 C1661 1.414 . S
C1660 C1663 1.499 . S
C1661 H1635 0.950 . S
C1661 C1660 1.414 . S
C1661 C1662 1.374 . S
C1662 H1636 0.950 . S
C1662 C1658 1.385 . S
C1662 C1661 1.374 . S
C1663 C1660 1.499 . S
C1663 C1664 1.373 . S
C1663 C1665 1.389 . S
C1664 H1637 0.950 . S
C1664 C1650 1.377 . S
C1664 C1663 1.373 . S
C1665 C1649 1.377 . S
C1665 C1663 1.389 . S
C1665 C1666 1.524 . S
C1666 C1665 1.524 . S
C1666 C1667 1.397 . S
C1666 C1671 1.363 . S
C1667 H1638 0.950 . S
C1667 C1666 1.397 . S
C1667 C1668 1.334 . S
C1668 H1639 0.950 . S
C1668 C1667 1.334 . S
C1668 C1669 1.287 . S
C1669 C1668 1.287 . S
C1669 C1670 1.524 . S
C1669 H1672 0.999 . S
C1670 H1640 0.950 . S
C1670 C1669 1.524 . S
C1670 C1671 1.415 . S
C1671 H1641 0.950 . S
C1671 C1666 1.363 . S
C1671 C1670 1.415 . S
H1672 C1669 0.999 . S
H1673 C1654 0.913 . S
H1674 C1692 0.951 . S
H1675 C1694 0.951 . S
H1676 C1696 0.950 . S
H1677 C1697 0.950 . S
H1678 C1699 0.950 . S
H1679 C1702 0.950 . S
H1680 C1703 0.950 . S
H1681 C1705 0.950 . S
H1682 C1706 0.950 . S
H1683 C1707 0.951 . S
H1684 C1709 0.951 . S
H1685 C1711 0.950 . S
H1686 C1712 0.950 . S
H1687 C1714 0.950 . S
H1688 C1717 0.950 . S
H1689 C1718 0.950 . S
H1690 C1720 0.950 . S
H1691 C1721 0.950 . S
C1692 H1674 0.951 . S
C1692 C1693 1.366 . S
C1692 C1694 1.388 . S
C1693 C1692 1.366 . S
C1693 C1697 1.385 . S
C1694 H1675 0.951 . S
C1694 C1692 1.388 . S
C1694 C1695 1.366 . S
C1695 C1694 1.366 . S
C1695 C1696 1.414 . S
C1695 C1698 1.499 . S
C1696 H1676 0.950 . S
C1696 C1695 1.414 . S
C1696 C1697 1.374 . S
C1697 H1677 0.950 . S
C1697 C1693 1.385 . S
C1697 C1696 1.374 . S
C1698 C1695 1.499 . S
C1698 C1699 1.373 . S
C1698 C1700 1.389 . S
C1699 H1678 0.950 . S
C1699 C1698 1.373 . S
C1699 C1715 1.377 . S
C1700 C1698 1.389 . S
C1700 C1701 1.524 . S
C1700 C1714 1.377 . S
C1701 C1700 1.524 . S
C1701 C1702 1.397 . S
C1701 C1706 1.363 . S
C1702 H1679 0.950 . S
C1702 C1701 1.397 . S
C1702 C1703 1.334 . S
C1703 H1680 0.950 . S
C1703 C1702 1.334 . S
C1703 C1704 1.287 . S
C1704 C1703 1.287 . S
C1704 C1705 1.524 . S
C1704 H1723 0.913 . S
C1705 H1681 0.950 . S
C1705 C1704 1.524 . S
C1705 C1706 1.415 . S
C1706 H1682 0.950 . S
C1706 C1701 1.363 . S
C1706 C1705 1.415 . S
C1707 H1683 0.951 . S
C1707 C1708 1.366 . S
C1707 C1709 1.388 . S
C1708 C1707 1.366 . S
C1708 C1712 1.385 . S
C1709 H1684 0.951 . S
C1709 C1707 1.388 . S
C1709 C1710 1.366 . S
C1710 C1709 1.366 . S
C1710 C1711 1.414 . S
C1710 C1713 1.499 . S
C1711 H1685 0.950 . S
C1711 C1710 1.414 . S
C1711 C1712 1.374 . S
C1712 H1686 0.950 . S
C1712 C1708 1.385 . S
C1712 C1711 1.374 . S
C1713 C1710 1.499 . S
C1713 C1714 1.373 . S
C1713 C1715 1.389 . S
C1714 H1687 0.950 . S
C1714 C1700 1.377 . S
C1714 C1713 1.373 . S
C1715 C1699 1.377 . S
C1715 C1713 1.389 . S
C1715 C1716 1.524 . S
C1716 C1715 1.524 . S
C1716 C1717 1.397 . S
C1716 C1721 1.363 . S
C1717 H1688 0.950 . S
C1717 C1716 1.397 . S
C1717 C1718 1.334 . S
C1718 H1689 0.950 . S
C1718 C1717 1.334 . S
C1718 C1719 1.287 . S
C1719 C1718 1.287 . S
C1719 C1720 1.524 . S
C1719 H1722 0.999 . S
C1720 H1690 0.950 . S
C1720 C1719 1.524 . S
C1720 C1721 1.415 . S
C1721 H1691 0.950 . S
C1721 C1716 1.363 . S
C1721 C1720 1.415 . S
H1722 C1719 0.999 . S
H1723 C1704 0.913 . S
H1724 C1742 0.951 . S
H1725 C1744 0.951 . S
H1726 C1746 0.950 . S
H1727 C1747 0.950 . S
H1728 C1749 0.950 . S
H1729 C1752 0.950 . S
H1730 C1753 0.950 . S
H1731 C1755 0.950 . S
H1732 C1756 0.950 . S
H1733 C1757 0.951 . S
H1734 C1759 0.951 . S
H1735 C1761 0.950 . S
H1736 C1762 0.950 . S
H1737 C1764 0.950 . S
H1738 C1767 0.950 . S
H1739 C1768 0.950 . S
H1740 C1770 0.950 . S
H1741 C1771 0.950 . S
C1742 H1724 0.951 . S
C1742 C1743 1.366 . S
C1742 C1744 1.388 . S
C1743 C1742 1.366 . S
C1743 C1747 1.385 . S
C1744 H1725 0.951 . S
C1744 C1742 1.388 . S
C1744 C1745 1.366 . S
C1745 C1744 1.366 . S
C1745 C1746 1.414 . S
C1745 C1748 1.499 . S
C1746 H1726 0.950 . S
C1746 C1745 1.414 . S
C1746 C1747 1.374 . S
C1747 H1727 0.950 . S
C1747 C1743 1.385 . S
C1747 C1746 1.374 . S
C1748 C1745 1.499 . S
C1748 C1749 1.373 . S
C1748 C1750 1.389 . S
C1749 H1728 0.950 . S
C1749 C1748 1.373 . S
C1749 C1765 1.377 . S
C1750 C1748 1.389 . S
C1750 C1751 1.524 . S
C1750 C1764 1.377 . S
C1751 C1750 1.524 . S
C1751 C1752 1.397 . S
C1751 C1756 1.363 . S
C1752 H1729 0.950 . S
C1752 C1751 1.397 . S
C1752 C1753 1.334 . S
C1753 H1730 0.950 . S
C1753 C1752 1.334 . S
C1753 C1754 1.287 . S
C1754 C1753 1.287 . S
C1754 C1755 1.524 . S
C1754 H1773 0.913 . S
C1755 H1731 0.950 . S
C1755 C1754 1.524 . S
C1755 C1756 1.415 . S
C1756 H1732 0.950 . S
C1756 C1751 1.363 . S
C1756 C1755 1.415 . S
C1757 H1733 0.951 . S
C1757 C1758 1.366 . S
C1757 C1759 1.388 . S
C1758 C1757 1.366 . S
C1758 C1762 1.385 . S
C1759 H1734 0.951 . S
C1759 C1757 1.388 . S
C1759 C1760 1.366 . S
C1760 C1759 1.366 . S
C1760 C1761 1.414 . S
C1760 C1763 1.499 . S
C1761 H1735 0.950 . S
C1761 C1760 1.414 . S
C1761 C1762 1.374 . S
C1762 H1736 0.950 . S
C1762 C1758 1.385 . S
C1762 C1761 1.374 . S
C1763 C1760 1.499 . S
C1763 C1764 1.373 . S
C1763 C1765 1.389 . S
C1764 H1737 0.950 . S
C1764 C1750 1.377 . S
C1764 C1763 1.373 . S
C1765 C1749 1.377 . S
C1765 C1763 1.389 . S
C1765 C1766 1.524 . S
C1766 C1765 1.524 . S
C1766 C1767 1.397 . S
C1766 C1771 1.363 . S
C1767 H1738 0.950 . S
C1767 C1766 1.397 . S
C1767 C1768 1.334 . S
C1768 H1739 0.950 . S
C1768 C1767 1.334 . S
C1768 C1769 1.287 . S
C1769 C1768 1.287 . S
C1769 C1770 1.524 . S
C1769 H1772 0.999 . S
C1770 H1740 0.950 . S
C1770 C1769 1.524 . S
C1770 C1771 1.415 . S
C1771 H1741 0.950 . S
C1771 C1766 1.363 . S
C1771 C1770 1.415 . S
H1772 C1769 0.999 . S
H1773 C1754 0.913 . S
H1774 C1792 0.951 . S
H1775 C1794 0.951 . S
H1776 C1796 0.950 . S
H1777 C1797 0.950 . S
H1778 C1799 0.950 . S
H1779 C1802 0.950 . S
H1780 C1803 0.950 . S
H1781 C1805 0.950 . S
H1782 C1806 0.950 . S
H1783 C1807 0.951 . S
H1784 C1809 0.951 . S
H1785 C1811 0.950 . S
H1786 C1812 0.950 . S
H1787 C1814 0.950 . S
H1788 C1817 0.950 . S
H1789 C1818 0.950 . S
H1790 C1820 0.950 . S
H1791 C1821 0.950 . S
C1792 H1774 0.951 . S
C1792 C1793 1.366 . S
C1792 C1794 1.388 . S
C1793 C1792 1.366 . S
C1793 C1797 1.385 . S
C1794 H1775 0.951 . S
C1794 C1792 1.388 . S
C1794 C1795 1.366 . S
C1795 C1794 1.366 . S
C1795 C1796 1.414 . S
C1795 C1798 1.499 . S
C1796 H1776 0.950 . S
C1796 C1795 1.414 . S
C1796 C1797 1.374 . S
C1797 H1777 0.950 . S
C1797 C1793 1.385 . S
C1797 C1796 1.374 . S
C1798 C1795 1.499 . S
C1798 C1799 1.373 . S
C1798 C1800 1.389 . S
C1799 H1778 0.950 . S
C1799 C1798 1.373 . S
C1799 C1815 1.377 . S
C1800 C1798 1.389 . S
C1800 C1801 1.524 . S
C1800 C1814 1.377 . S
C1801 C1800 1.524 . S
C1801 C1802 1.397 . S
C1801 C1806 1.363 . S
C1802 H1779 0.950 . S
C1802 C1801 1.397 . S
C1802 C1803 1.334 . S
C1803 H1780 0.950 . S
C1803 C1802 1.334 . S
C1803 C1804 1.287 . S
C1804 C1803 1.287 . S
C1804 C1805 1.524 . S
C1804 H1823 0.913 . S
C1805 H1781 0.950 . S
C1805 C1804 1.524 . S
C1805 C1806 1.415 . S
C1806 H1782 0.950 . S
C1806 C1801 1.363 . S
C1806 C1805 1.415 . S
C1807 H1783 0.951 . S
C1807 C1808 1.366 . S
C1807 C1809 1.388 . S
C1808 C1807 1.366 . S
C1808 C1812 1.385 . S
C1809 H1784 0.951 . S
C1809 C1807 1.388 . S
C1809 C1810 1.366 . S
C1810 C1809 1.366 . S
C1810 C1811 1.414 . S
C1810 C1813 1.499 . S
C1811 H1785 0.950 . S
C1811 C1810 1.414 . S
C1811 C1812 1.374 . S
C1812 H1786 0.950 . S
C1812 C1808 1.385 . S
C1812 C1811 1.374 . S
C1813 C1810 1.499 . S
C1813 C1814 1.373 . S
C1813 C1815 1.389 . S
C1814 H1787 0.950 . S
C1814 C1800 1.377 . S
C1814 C1813 1.373 . S
C1815 C1799 1.377 . S
C1815 C1813 1.389 . S
C1815 C1816 1.524 . S
C1816 C1815 1.524 . S
C1816 C1817 1.397 . S
C1816 C1821 1.363 . S
C1817 H1788 0.950 . S
C1817 C1816 1.397 . S
C1817 C1818 1.334 . S
C1818 H1789 0.950 . S
C1818 C1817 1.334 . S
C1818 C1819 1.287 . S
C1819 C1818 1.287 . S
C1819 C1820 1.524 . S
C1819 H1822 0.999 . S
C1820 H1790 0.950 . S
C1820 C1819 1.524 . S
C1820 C1821 1.415 . S
C1821 H1791 0.950 . S
C1821 C1816 1.363 . S
C1821 C1820 1.415 . S
H1822 C1819 0.999 . S
H1823 C1804 0.913 . S
C243 C163 1.345 . S
C258 C7 1.357 . S
C293 C21 1.356 . S
C308 C121 1.345 . S
C343 C35 1.356 . S
C358 C135 1.345 . S
C393 C149 1.344 . S
C408 C49 1.356 . S
C443 C63 1.356 . S
C458 C79 1.345 . S
C493 C77 1.356 . S
C508 C93 1.345 . S
C543 C107 1.345 . S
C558 C91 1.356 . S
C593 C65 1.345 . S
C608 C105 1.356 . S
C643 C51 1.345 . S
C658 C119 1.356 . S
C693 C133 1.357 . S
C708 C9 1.345 . S
C743 C23 1.345 . S
C758 C147 1.356 . S
C793 C161 1.356 . S
C808 C37 1.345 . S
C843 C175 1.357 . S
C858 C191 1.345 . S
C893 C189 1.356 . S
C908 C205 1.345 . S
C943 C219 1.345 . S
C958 C203 1.357 . S
C993 C177 1.345 . S
C1008 C217 1.356 . S
C1043 C64 1.169 . S
C1058 C8 1.168 . S
C1093 C22 1.168 . S
C1108 C78 1.168 . S
C1143 C36 1.169 . S
C1158 C92 1.168 . S
C1193 C106 1.170 . S
C1208 C50 1.170 . S
C1243 C120 1.168 . S
C1258 C176 1.169 . S
C1293 C190 1.168 . S
C1308 C134 1.168 . S
C1343 C148 1.170 . S
C1358 C204 1.170 . S
C1393 C218 1.168 . S
C1408 C162 1.169 . S
C1443 C202 1.326 . S
C1458 C6 1.326 . S
C1493 C216 1.326 . S
C1508 C20 1.326 . S
C1543 C34 1.326 . S
C1558 C174 1.326 . S
C1593 C188 1.326 . S
C1608 C48 1.326 . S
C1643 C146 1.326 . S
C1658 C62 1.326 . S
C1693 C160 1.326 . S
C1708 C76 1.325 . S
C1743 C90 1.326 . S
C1758 C118 1.326 . S
C1793 C132 1.326 . S
C1808 C104 1.326 . S
