# Generated by pormake.
# Topology afw, (4)-cn, num edge types: 1
# Building blocks:
#     Node 0, Type 0, BuildingBlock: GALJAG_clean_sbu_0, # of connection points: 4
#     Node 1, Type 0, BuildingBlock: GALJAG_clean_sbu_0, # of connection points: 4
#     Node 2, Type 0, BuildingBlock: GALJAG_clean_sbu_0, # of connection points: 4
#     Node 3, Type 0, BuildingBlock: GALJAG_clean_sbu_0, # of connection points: 4
#     Node 4, Type 0, BuildingBlock: GALJAG_clean_sbu_0, # of connection points: 4
#     Node 5, Type 0, BuildingBlock: GALJAG_clean_sbu_0, # of connection points: 4
#     Node 6, Type 0, BuildingBlock: GALJAG_clean_sbu_0, # of connection points: 4
#     Node 7, Type 0, BuildingBlock: GALJAG_clean_sbu_0, # of connection points: 4
#     Node 8, Type 0, BuildingBlock: GALJAG_clean_sbu_0, # of connection points: 4
#     Edge 9, Type (0, 0), BuildingBlock: ZUJKAS_clean_linker_0, # of connection points: 2
#     Edge 10, Type (0, 0), BuildingBlock: ZUJKAS_clean_linker_0, # of connection points: 2
#     Edge 11, Type (0, 0), BuildingBlock: ZUJKAS_clean_linker_0, # of connection points: 2
#     Edge 12, Type (0, 0), BuildingBlock: ZUJKAS_clean_linker_0, # of connection points: 2
#     Edge 13, Type (0, 0), BuildingBlock: ZUJKAS_clean_linker_0, # of connection points: 2
#     Edge 14, Type (0, 0), BuildingBlock: ZUJKAS_clean_linker_0, # of connection points: 2
#     Edge 15, Type (0, 0), BuildingBlock: ZUJKAS_clean_linker_0, # of connection points: 2
#     Edge 16, Type (0, 0), BuildingBlock: ZUJKAS_clean_linker_0, # of connection points: 2
#     Edge 17, Type (0, 0), BuildingBlock: ZUJKAS_clean_linker_0, # of connection points: 2
#     Edge 18, Type (0, 0), BuildingBlock: ZUJKAS_clean_linker_0, # of connection points: 2
#     Edge 19, Type (0, 0), BuildingBlock: ZUJKAS_clean_linker_0, # of connection points: 2
#     Edge 20, Type (0, 0), BuildingBlock: ZUJKAS_clean_linker_0, # of connection points: 2
#     Edge 21, Type (0, 0), BuildingBlock: ZUJKAS_clean_linker_0, # of connection points: 2
#     Edge 22, Type (0, 0), BuildingBlock: ZUJKAS_clean_linker_0, # of connection points: 2
#     Edge 23, Type (0, 0), BuildingBlock: ZUJKAS_clean_linker_0, # of connection points: 2
#     Edge 24, Type (0, 0), BuildingBlock: ZUJKAS_clean_linker_0, # of connection points: 2
#     Edge 25, Type (0, 0), BuildingBlock: ZUJKAS_clean_linker_0, # of connection points: 2
#     Edge 26, Type (0, 0), BuildingBlock: ZUJKAS_clean_linker_0, # of connection points: 2
# Relax obj value: 0.092
# Max RMSD: 0.157
# Mean RMSD: 0.157
data_MOF--net-afw--node1-GALJAG_clean_sbu_0--edge1-ZUJKAS_clean_linker_0
_symmetry_space_group_name_H-M    P1
_symmetry_Int_Tables_number       1
_symmetry_cell_setting            triclinic
loop_
_symmetry_equiv_pos_as_xyz
'x, y, z'
_cell_length_a     59.59868
_cell_length_b     59.71154
_cell_length_c     34.623739
_cell_angle_alpha  90.008957
_cell_angle_beta   89.930581
_cell_angle_gamma 119.85323
loop_
_atom_site_label
_atom_site_type_symbol
_atom_site_fract_x
_atom_site_fract_y
_atom_site_fract_z
_atom_type_partial_charge
In0 In 0.02131 0.21442 -0.00158 0.0
O1 O 0.01279 0.23224 0.94614 0.0
O2 O 0.0453 0.25636 0.98135 0.0
C3 C 0.98368 0.16475 -0.00518 0.0
C4 C 0.00443 0.23065 0.05813 0.0
C5 C 0.06295 0.20841 0.99051 0.0
O6 O 0.98875 0.18 0.96664 0.0
O7 O -0.00226 0.17456 0.02416 0.0
O8 O 0.05618 0.21305 0.02278 0.0
O9 O 0.04893 0.20721 0.9624 0.0
C10 C 0.03146 0.25465 0.95272 0.0
O11 O 0.02606 0.2315 0.05909 0.0
O12 O 0.9916 0.22138 0.02759 0.0
In13 In 0.83025 0.84716 0.0197 0.0
O14 O 0.81469 0.81936 0.96861 0.0
O15 O 0.78963 0.83012 -0.00333 0.0
C16 C 0.88051 0.86185 0.01266 0.0
C17 C 0.81269 0.81276 0.07766 0.0
C18 C 0.83532 0.89442 0.01619 0.0
O19 O 0.86501 0.85267 0.98453 0.0
O20 O 0.87056 0.86356 0.04393 0.0
O21 O 0.83394 0.88343 0.04803 0.0
O22 O 0.83362 0.88134 0.98662 0.0
C23 C 0.79236 0.81681 0.97079 0.0
O24 O 0.8063 0.82995 0.07473 0.0
O25 O 0.82846 0.81381 0.0525 0.0
In26 In 0.20527 0.03219 0.00457 0.0
O27 O 0.21806 0.02789 0.06469 0.0
O28 O 0.24479 0.05912 0.02936 0.0
C29 C 0.15506 -0.00438 0.00432 0.0
C30 C 0.22658 0.0108 0.96048 0.0
C31 C 0.1995 0.07367 0.99411 0.0
O32 O 0.1677 0.00417 0.03529 0.0
O33 O 0.16782 0.00541 0.97384 0.0
O34 O 0.20675 0.0645 0.96704 0.0
O35 O 0.19568 0.06216 0.02604 0.0
C36 C 0.24049 0.0472 0.06105 0.0
O37 O 0.22665 0.03119 0.95026 0.0
O38 O 0.21558 0.0014 0.99228 0.0
In39 In 0.67413 0.53014 0.31733 0.0
O40 O 0.67369 0.55021 0.26151 0.0
O41 O 0.70653 0.56893 0.29857 0.0
C42 C 0.6306 0.48399 0.31535 0.0
C43 C 0.66042 0.55508 0.36804 0.0
C44 C 0.70976 0.5151 0.31943 0.0
O45 O 0.64011 0.49732 0.28511 0.0
O46 O 0.64312 0.49398 0.34589 0.0
O47 O 0.70429 0.52405 0.34884 0.0
O48 O 0.69729 0.51386 0.28929 0.0
C49 C 0.6954 0.56999 0.26822 0.0
O50 O 0.67698 0.54847 0.37652 0.0
O51 O 0.65082 0.54868 0.3347 0.0
In52 In 0.49186 0.17449 0.36729 0.0
O53 O 0.47533 0.15188 0.31134 0.0
O54 O 0.44932 0.15031 0.35507 0.0
C55 C 0.54258 0.19075 0.3618 0.0
C56 C 0.47881 0.1412 0.42607 0.0
C57 C 0.49233 0.21946 0.35877 0.0
O58 O 0.52675 0.17697 0.33587 0.0
O59 O 0.53276 0.19645 0.38977 0.0
O60 O 0.49234 0.21037 0.39177 0.0
O61 O 0.49192 0.2058 0.33074 0.0
C62 C 0.45212 0.14315 0.32202 0.0
O63 O 0.47281 0.15877 0.42591 0.0
O64 O 0.49178 0.1411 0.39732 0.0
In65 In 0.86628 0.34901 0.36245 0.0
O66 O 0.88207 0.34389 0.41972 0.0
O67 O 0.90527 0.37788 0.38668 0.0
C68 C 0.81665 0.31095 0.36581 0.0
C69 C 0.88993 0.33123 0.31607 0.0
C70 C 0.85738 0.38841 0.35035 0.0
O71 O 0.82917 0.32254 0.39574 0.0
O72 O 0.82936 0.31821 0.33477 0.0
O73 O 0.86307 0.37801 0.32311 0.0
O74 O 0.85696 0.3794 0.38346 0.0
C75 C 0.90344 0.36461 0.41612 0.0
O76 O 0.88824 0.35091 0.30724 0.0
O77 O 0.87906 0.3204 0.34732 0.0
In78 In 0.34579 0.8615 0.67806 0.0
O79 O 0.34698 0.88276 0.62268 0.0
O80 O 0.37749 0.90177 0.66353 0.0
C81 C 0.30477 0.81409 0.66896 0.0
C82 C 0.32716 0.88191 0.72916 0.0
C83 C 0.38297 0.84871 0.68298 0.0
O84 O 0.31391 0.82994 0.64123 0.0
O85 O 0.31639 0.82226 0.70072 0.0
O86 O 0.37537 0.85591 0.71211 0.0
O87 O 0.3719 0.84817 0.65164 0.0
C88 C 0.36766 0.90299 0.63191 0.0
O89 O 0.34585 0.87838 0.73744 0.0
O90 O 0.31789 0.87466 0.69583 0.0
In91 In 0.16056 0.50132 0.67065 0.0
O92 O 0.14521 0.49159 0.60925 0.0
O93 O 0.14094 0.4608 0.64481 0.0
C94 C 0.20994 0.51077 0.66939 0.0
C95 C 0.12888 0.47756 0.73075 0.0
C96 C 0.16241 0.54735 0.67108 0.0
O97 O 0.20226 0.52303 0.64886 0.0
O98 O 0.19259 0.49327 0.6898 0.0
O99 O 0.16962 0.53928 0.69951 0.0
O100 O 0.15386 0.532 0.6429 0.0
C101 C 0.1363 0.46762 0.61275 0.0
O102 O 0.12068 0.48025 0.6985 0.0
O103 O 0.15317 0.48799 0.73317 0.0
In104 In 0.53126 0.67329 0.69004 0.0
O105 O 0.54949 0.66633 0.74341 0.0
O106 O 0.57089 0.70168 0.71252 0.0
C107 C 0.48198 0.63463 0.69436 0.0
C108 C 0.55244 0.65827 0.63472 0.0
C109 C 0.52171 0.7128 0.68979 0.0
O110 O 0.49624 0.643 0.72391 0.0
O111 O 0.49273 0.64555 0.66311 0.0
O112 O 0.52684 0.70469 0.65917 0.0
O113 O 0.52174 0.70118 0.7202 0.0
C114 C 0.57028 0.68767 0.74021 0.0
O115 O 0.55175 0.67904 0.63202 0.0
O116 O 0.54212 0.64519 0.66475 0.0
H117 H 0.18701 0.09776 0.04959 0.0
H118 H 0.17192 0.12861 0.04046 0.0
H119 H 0.18386 0.12844 0.91761 0.0
H120 H 0.19887 0.09721 0.92648 0.0
H121 H 0.19406 0.17873 0.00365 0.0
H122 H 0.10537 0.10252 0.93091 0.0
H123 H 0.12667 0.09507 0.958 0.0
H124 H 0.13599 0.10935 0.91091 0.0
C125 C 0.18677 0.10452 0.02064 0.0
C126 C 0.19382 0.09486 0.98867 0.0
C127 C 0.17824 0.12223 0.01552 0.0
C128 C 0.1765 0.13051 0.97835 0.0
C129 C 0.18481 0.122 0.94649 0.0
H130 H 0.08261 0.20116 0.92361 0.0
H131 H 0.11452 0.18703 0.91666 0.0
C132 C 0.19344 0.10426 0.95161 0.0
C133 C 0.16387 0.14626 0.97325 0.0
H134 H 0.10732 0.14192 0.94351 0.0
C135 C 0.17525 0.1709 0.99003 0.0
C136 C 0.13935 0.13591 0.95548 0.0
C137 C 0.12593 0.10921 0.93797 0.0
C138 C 0.16244 0.18527 0.99029 0.0
C139 C 0.1374 0.17441 0.97407 0.0
C140 C 0.12653 0.15022 0.95591 0.0
C141 C 0.12116 0.18667 0.97803 0.0
C142 C 0.17575 0.2118 0.00822 0.0
C143 C 0.11454 0.19148 0.01483 0.0
C144 C 0.09642 0.19968 0.01887 0.0
C145 C 0.08434 0.20286 0.98619 0.0
C146 C 0.09158 0.19882 0.94933 0.0
C147 C 0.10982 0.19078 0.9453 0.0
H148 H 0.19713 0.22062 0.00704 0.0
H149 H 0.17023 0.22488 0.99353 0.0
H150 H 0.17006 0.21022 0.03906 0.0
H151 H 0.12251 0.18779 0.04056 0.0
H152 H 0.0911 0.2025 0.04764 0.0
H153 H 0.85124 0.93046 0.07361 0.0
H154 H 0.86816 0.97684 0.0659 0.0
H155 H 0.84964 0.96572 0.94447 0.0
H156 H 0.83332 0.91944 0.95181 0.0
H157 H 0.8993 0.00039 0.95651 0.0
H158 H 0.83896 0.0243 0.05018 0.0
H159 H 0.85102 0.00632 0.07564 0.0
H160 H 0.82905 0.99158 0.03585 0.0
C161 C 0.85019 0.93783 0.04549 0.0
C162 C 0.84116 0.92142 0.01326 0.0
C163 C 0.8597 0.96432 0.04115 0.0
C164 C 0.85992 0.97471 0.00466 0.0
C165 C 0.84956 0.95809 0.97289 0.0
H166 H 0.95158 0.13802 0.93471 0.0
H167 H 0.91828 0.09215 0.9337 0.0
C168 C 0.84027 0.93167 0.97714 0.0
C169 C 0.87411 0.00303 -0.00129 0.0
H170 H 0.88133 0.05965 0.03382 0.0
C171 C 0.89504 0.01335 0.97281 0.0
C172 C 0.86854 0.01987 0.02005 0.0
C173 C 0.84549 0.00993 0.04669 0.0
C174 C 0.91141 0.04006 0.96919 0.0
C175 C 0.90649 0.05687 0.99177 0.0
C176 C 0.88501 0.04664 0.01659 0.0
C177 C 0.92489 0.08492 0.99268 0.0
C178 C 0.93461 0.05007 0.9428 0.0
C179 C 0.93911 0.09601 0.02639 0.0
C180 C 0.95803 0.12203 0.02704 0.0
C181 C 0.963 0.13747 0.99399 0.0
C182 C 0.94826 0.12651 0.96049 0.0
C183 C 0.92929 0.10038 0.95986 0.0
H184 H 0.93793 0.03439 0.9322 0.0
H185 H 0.93156 0.05956 0.91739 0.0
H186 H 0.95232 0.06468 0.95791 0.0
H187 H 0.93598 0.08435 0.05197 0.0
H188 H 0.96898 0.12996 0.05335 0.0
H189 H 0.90785 0.86487 0.94748 0.0
H190 H 0.95462 0.88165 0.94238 0.0
H191 H 0.96239 0.89529 0.06525 0.0
H192 H 0.91588 0.87853 0.07062 0.0
H193 H 0.99232 0.9323 0.96491 0.0
H194 H 0.00406 0.85829 0.04481 0.0
H195 H 0.9733 0.85223 0.02585 0.0
H196 H 0.98547 0.86977 0.07024 0.0
C197 C 0.91952 0.87116 0.97343 0.0
C198 C 0.90829 0.87045 0.00943 0.0
C199 C 0.94616 0.88068 0.97048 0.0
C200 C 0.9618 0.8893 0.00353 0.0
C201 C 0.95054 0.8882 0.03955 0.0
H202 H 0.12161 0.97719 0.06536 0.0
H203 H 0.07455 0.94913 0.06272 0.0
C204 C 0.924 0.87882 0.0425 0.0
C205 C 0.9902 0.90164 0.0002 0.0
H206 H 0.04251 0.89886 0.03405 0.0
C207 C 0.00334 0.92483 0.97948 0.0
C208 C 0.00438 0.89185 0.01955 0.0
C209 C 0.9911 0.86654 0.0411 0.0
C210 C 0.03042 0.93913 0.97889 0.0
C211 C 0.04465 0.9296 -0.00114 0.0
C212 C 0.0315 0.90607 0.01881 0.0
C213 C 0.07319 0.94444 0.00062 0.0
C214 C 0.04352 0.96485 0.95832 0.0
C215 C 0.08796 0.95039 0.96672 0.0
C216 C 0.11473 0.96654 0.96812 0.0
C217 C 0.12717 0.97672 0.00352 0.0
C218 C 0.11249 0.96968 0.03768 0.0
C219 C 0.08567 0.95365 0.03622 0.0
H220 H 0.0299 0.97207 0.95246 0.0
H221 H 0.05996 0.97957 0.97555 0.0
H222 H 0.0512 0.96269 0.93021 0.0
H223 H 0.07871 0.943 0.93908 0.0
H224 H 0.12561 0.97143 0.94137 0.0
H225 H 0.84799 0.40456 0.28146 0.0
H226 H 0.82841 0.43182 0.27187 0.0
H227 H 0.82803 0.44236 0.39505 0.0
H228 H 0.84759 0.41529 0.40485 0.0
H229 H 0.77951 0.41821 0.3042 0.0
H230 H 0.85485 0.51576 0.35181 0.0
H231 H 0.86221 0.49092 0.33805 0.0
H232 H 0.84902 0.4903 0.38501 0.0
C233 C 0.84427 0.41318 0.30641 0.0
C234 C 0.84924 0.40776 0.34391 0.0
C235 C 0.83307 0.42869 0.30089 0.0
C236 C 0.82703 0.43928 0.33273 0.0
C237 C 0.83299 0.43477 0.37006 0.0
H238 H 0.7351 0.51047 0.38202 0.0
H239 H 0.76469 0.49309 0.38313 0.0
C240 C 0.84402 0.41917 0.37562 0.0
C241 C 0.81185 0.45251 0.32748 0.0
H242 H 0.81186 0.50867 0.34593 0.0
C243 C 0.78667 0.4381 0.3128 0.0
C244 C 0.82121 0.47834 0.33917 0.0
C245 C 0.84839 0.49485 0.3541 0.0
C246 C 0.77023 0.44856 0.31063 0.0
C247 C 0.77949 0.47435 0.32264 0.0
C248 C 0.80484 0.48891 0.33676 0.0
C249 C 0.76286 0.48627 0.32151 0.0
C250 C 0.74279 0.43155 0.29692 0.0
C251 C 0.75253 0.48869 0.28642 0.0
C252 C 0.7355 0.49837 0.28577 0.0
C253 C 0.72878 0.50612 0.32016 0.0
C254 C 0.73987 0.50456 0.35511 0.0
C255 C 0.7568 0.4947 0.35577 0.0
H256 H 0.73686 0.41074 0.29844 0.0
H257 H 0.72901 0.43479 0.31436 0.0
H258 H 0.74125 0.43624 0.26638 0.0
H259 H 0.75741 0.48282 0.25957 0.0
H260 H 0.72746 0.49959 0.25834 0.0
H261 H 0.48402 0.23844 0.29237 0.0
H262 H 0.49616 0.28326 0.27881 0.0
H263 H 0.52013 0.30354 0.39721 0.0
H264 H 0.50743 0.25853 0.41125 0.0
H265 H 0.4962 0.33069 0.36317 0.0
H266 H 0.5746 0.33327 0.27206 0.0
H267 H 0.54215 0.30935 0.25937 0.0
H268 H 0.55553 0.30696 0.30462 0.0
C269 C 0.49138 0.25236 0.31572 0.0
C270 C 0.49522 0.24518 0.35272 0.0
C271 C 0.49831 0.27792 0.3079 0.0
C272 C 0.50953 0.29672 0.33681 0.0
C273 C 0.51157 0.28925 0.3745 0.0
H274 H 0.60658 0.45398 0.37767 0.0
H275 H 0.57182 0.40924 0.37808 0.0
C276 C 0.50438 0.26359 0.38246 0.0
C277 C 0.52196 0.32443 0.32694 0.0
H278 H 0.57438 0.37198 0.27996 0.0
C279 C 0.5131 0.33973 0.34459 0.0
C280 C 0.54392 0.33609 0.30251 0.0
C281 C 0.55481 0.32069 0.28371 0.0
C282 C 0.52615 0.36661 0.33934 0.0
C283 C 0.54884 0.37838 0.31647 0.0
C284 C 0.5569 0.36289 0.29732 0.0
C285 C 0.56658 0.40663 0.31605 0.0
C286 C 0.51578 0.38218 0.35888 0.0
C287 C 0.57534 0.42008 0.28097 0.0
C288 C 0.59555 0.44571 0.2806 0.0
C289 C 0.60739 0.45811 0.31533 0.0
C290 C 0.59786 0.44492 0.35043 0.0
C291 C 0.57774 0.41941 0.35077 0.0
H292 H 0.49446 0.37058 0.36266 0.0
H293 H 0.52454 0.38803 0.38801 0.0
H294 H 0.52049 0.39987 0.34219 0.0
H295 H 0.56715 0.41045 0.25382 0.0
H296 H 0.60251 0.45545 0.25315 0.0
H297 H 0.56968 0.1845 0.30287 0.0
H298 H 0.61615 0.19897 0.30149 0.0
H299 H 0.62439 0.23031 0.41617 0.0
H300 H 0.57826 0.21605 0.4178 0.0
H301 H 0.65713 0.25186 0.31222 0.0
H302 H 0.65991 0.18553 0.42192 0.0
H303 H 0.63054 0.17911 0.39739 0.0
H304 H 0.64269 0.20168 0.43676 0.0
C305 C 0.58142 0.19437 0.32781 0.0
C306 C 0.5704 0.19916 0.36043 0.0
C307 C 0.60787 0.20254 0.32701 0.0
C308 C 0.62349 0.21527 0.359 0.0
C309 C 0.6125 0.22004 0.39153 0.0
H310 H 0.78246 0.30005 0.42509 0.0
H311 H 0.73522 0.27386 0.42178 0.0
C312 C 0.5862 0.21206 0.39227 0.0
C313 C 0.65164 0.22513 0.35781 0.0
H314 H 0.70041 0.22211 0.40465 0.0
C315 C 0.66664 0.24514 0.33196 0.0
C316 C 0.66383 0.21635 0.38386 0.0
C317 C 0.64843 0.19432 0.41137 0.0
C318 C 0.69372 0.25745 0.33259 0.0
C319 C 0.706 0.249 0.35916 0.0
C320 C 0.69092 0.2285 0.38433 0.0
C321 C 0.73449 0.26213 0.36242 0.0
C322 C 0.70893 0.28016 0.30603 0.0
C323 C 0.74966 0.26334 0.33065 0.0
C324 C 0.77655 0.27841 0.33237 0.0
C325 C 0.7887 0.29221 0.3661 0.0
C326 C 0.77358 0.28964 0.39873 0.0
C327 C 0.74663 0.27472 0.39686 0.0
H328 H 0.69684 0.28796 0.29436 0.0
H329 H 0.72577 0.29595 0.32127 0.0
H330 H 0.71631 0.27392 0.28124 0.0
H331 H 0.74065 0.25325 0.30413 0.0
H332 H 0.78777 0.27984 0.3069 0.0
H333 H 0.4018 0.83267 0.62402 0.0
H334 H 0.4313 0.81543 0.62848 0.0
H335 H 0.43784 0.82885 0.75139 0.0
H336 H 0.40806 0.84593 0.74728 0.0
H337 H 0.48308 0.83706 0.65887 0.0
H338 H 0.41031 0.75034 0.73928 0.0
H339 H 0.40192 0.77157 0.71396 0.0
H340 H 0.41809 0.78103 0.75977 0.0
C341 C 0.40967 0.83214 0.65198 0.0
C342 C 0.40244 0.84038 0.68539 0.0
C343 C 0.42657 0.82238 0.65442 0.0
C344 C 0.43645 0.82061 0.6903 0.0
C345 C 0.43011 0.82977 0.72352 0.0
H346 H 0.51463 0.73599 0.75256 0.0
H347 H 0.49782 0.76587 0.75371 0.0
C348 C 0.41317 0.83955 0.72111 0.0
C349 C 0.45215 0.8078 0.693 0.0
H350 H 0.45044 0.75335 0.72677 0.0
C351 C 0.47609 0.81883 0.67389 0.0
C352 C 0.44285 0.78401 0.71254 0.0
C353 C 0.41681 0.77085 0.73234 0.0
C354 C 0.49106 0.80664 0.67385 0.0
C355 C 0.48151 0.7826 0.69279 0.0
C356 C 0.45776 0.77183 0.7124 0.0
C357 C 0.49512 0.76756 0.69156 0.0
C358 C 0.51698 0.81966 0.65377 0.0
C359 C 0.49955 0.7589 0.65618 0.0
C360 C 0.50931 0.74191 0.65543 0.0
C361 C 0.51443 0.73307 0.69008 0.0
C362 C 0.51077 0.74242 0.72539 0.0
C363 C 0.5012 0.7595 0.72611 0.0
H364 H 0.52483 0.84082 0.65121 0.0
H365 H 0.53124 0.81621 0.66939 0.0
H366 H 0.51469 0.81171 0.62416 0.0
H367 H 0.49444 0.76439 0.62921 0.0
H368 H 0.51183 0.73491 0.62782 0.0
H369 H 0.28531 0.77654 0.72357 0.0
H370 H 0.25105 0.73186 0.7162 0.0
H371 H 0.23943 0.74712 0.59828 0.0
H372 H 0.27442 0.79203 0.60518 0.0
H373 H 0.19918 0.70901 0.69664 0.0
H374 H 0.25523 0.68852 0.58706 0.0
H375 H 0.26964 0.71791 0.61493 0.0
H376 H 0.2483 0.71379 0.57558 0.0
C377 C 0.27542 0.77048 0.69608 0.0
C378 C 0.28274 0.78766 0.66477 0.0
C379 C 0.25574 0.74496 0.69199 0.0
C380 C 0.24294 0.73612 0.65658 0.0
C381 C 0.24942 0.75348 0.62564 0.0
H382 H 0.15292 0.57028 0.61004 0.0
H383 H 0.16577 0.61594 0.60352 0.0
C384 C 0.26932 0.77909 0.62965 0.0
C385 C 0.2241 0.7083 0.65208 0.0
H386 H 0.21724 0.65346 0.61054 0.0
C387 C 0.20283 0.69687 0.67733 0.0
C388 C 0.22888 0.69255 0.62674 0.0
C389 C 0.25181 0.70367 0.59967 0.0
C390 C 0.187 0.66996 0.67933 0.0
C391 C 0.19278 0.65421 0.6557 0.0
C392 C 0.21292 0.66567 0.62863 0.0
C393 C 0.18057 0.62604 0.66173 0.0
C394 C 0.16474 0.6586 0.70751 0.0
C395 C 0.18427 0.61658 0.69685 0.0
C396 C 0.17709 0.59059 0.70061 0.0
C397 C 0.16621 0.57368 0.66921 0.0
C398 C 0.16129 0.58289 0.63472 0.0
C399 C 0.16857 0.60893 0.63094 0.0
H400 H 0.15769 0.67232 0.71366 0.0
H401 H 0.14839 0.64029 0.69641 0.0
H402 H 0.17134 0.65445 0.73517 0.0
H403 H 0.19402 0.62958 0.72069 0.0
H404 H 0.18114 0.58402 0.72749 0.0
H405 H 0.23102 0.48727 0.71184 0.0
H406 H 0.27716 0.50225 0.72133 0.0
H407 H 0.29681 0.56551 0.64299 0.0
H408 H 0.25089 0.55072 0.63324 0.0
H409 H 0.31897 0.5142 0.66212 0.0
H410 H 0.33241 0.59762 0.75063 0.0
H411 H 0.30107 0.5695 0.74252 0.0
H412 H 0.31591 0.59358 0.70549 0.0
C413 C 0.24519 0.50418 0.69629 0.0
C414 C 0.23741 0.51794 0.67197 0.0
C415 C 0.27146 0.51268 0.70175 0.0
C416 C 0.29023 0.53511 0.68322 0.0
C417 C 0.28251 0.54829 0.65783 0.0
H418 H 0.4496 0.61169 0.63381 0.0
H419 H 0.40286 0.58317 0.63584 0.0
C420 C 0.2563 0.53977 0.6522 0.0
C421 C 0.31797 0.54551 0.69133 0.0
H422 H 0.37059 0.59825 0.72885 0.0
C423 C 0.33028 0.53239 0.67713 0.0
C424 C 0.33244 0.56899 0.71152 0.0
C425 C 0.31982 0.5832 0.72877 0.0
C426 C 0.35713 0.54296 0.68084 0.0
C427 C 0.37185 0.56727 0.69889 0.0
C428 C 0.35926 0.57965 0.71491 0.0
C429 C 0.40045 0.5815 0.69825 0.0
C430 C 0.36957 0.52825 0.66486 0.0
C431 C 0.41462 0.59009 0.73272 0.0
C432 C 0.44143 0.60654 0.73165 0.0
C433 C 0.45434 0.61487 0.69607 0.0
C434 C 0.44018 0.60557 0.66167 0.0
C435 C 0.41348 0.58908 0.66277 0.0
H436 H 0.35554 0.5072 0.66346 0.0
H437 H 0.37649 0.53505 0.63507 0.0
H438 H 0.38639 0.5314 0.68263 0.0
H439 H 0.40483 0.58462 0.76039 0.0
H440 H 0.45187 0.61349 0.75859 0.0
H441 H 0.07111 0.30376 0.96119 0.0
H442 H 0.07811 0.34218 0.9263 0.0
H443 H 0.00893 0.29612 0.85971 0.0
H444 H 0.00196 0.25728 0.89428 0.0
H445 H 0.05033 0.3285 0.81529 0.0
H446 H 0.041 0.38328 0.93685 0.0
H447 H 0.06365 0.37265 0.94748 0.0
H448 H 0.03009 0.34917 0.93991 0.0
C449 C 0.05733 0.30178 0.93917 0.0
C450 C 0.03598 0.27755 0.93043 0.0
C451 C 0.0612 0.32381 0.91959 0.0
C452 C 0.04365 0.32209 0.8912 0.0
C453 C 0.02247 0.29786 0.88196 0.0
H454 H 0.07642 0.44671 0.7269 0.0
H455 H 0.04971 0.40955 0.76837 0.0
C456 C 0.01861 0.27573 0.90153 0.0
C457 C 0.04876 0.34544 0.86937 0.0
H458 H 0.06512 0.40853 0.88126 0.0
C459 C 0.05295 0.34584 0.82947 0.0
C460 C 0.05203 0.36796 0.88802 0.0
C461 C 0.04618 0.36819 0.93037 0.0
C462 C 0.0622 0.36871 0.80816 0.0
C463 C 0.06699 0.39162 0.82731 0.0
C464 C 0.06143 0.39091 0.86678 0.0
C465 C 0.08082 0.41687 0.80766 0.0
C466 C 0.06837 0.36858 0.76587 0.0
C467 C 0.10663 0.43402 0.81756 0.0
C468 C 0.12189 0.45525 0.79408 0.0
C469 C 0.11148 0.45959 0.76042 0.0
C470 C 0.08498 0.44374 0.75258 0.0
C471 C 0.06972 0.42247 0.7761 0.0
H472 H 0.06691 0.35004 0.75685 0.0
H473 H 0.0546 0.37164 0.74822 0.0
H474 H 0.0882 0.38451 0.75935 0.0
H475 H 0.11546 0.43001 0.84194 0.0
H476 H 0.14221 0.46723 0.80094 0.0
H477 H 0.74545 0.81342 0.96465 0.0
H478 H 0.70841 0.78253 0.92701 0.0
H479 H 0.75231 0.74773 0.8856 0.0
H480 H 0.78997 0.77928 0.92267 0.0
H481 H 0.72674 0.75477 0.82834 0.0
H482 H 0.65877 0.70771 0.94877 0.0
H483 H 0.6722 0.74198 0.95175 0.0
H484 H 0.69309 0.72832 0.95634 0.0
C485 C 0.74725 0.79918 0.94759 0.0
C486 C 0.77053 0.79868 0.94661 0.0
C487 C 0.72596 0.78133 0.92645 0.0
C488 C 0.72736 0.76233 0.90447 0.0
C489 C 0.75074 0.76202 0.90286 0.0
H490 H 0.57824 0.65802 0.79275 0.0
H491 H 0.61729 0.67104 0.83161 0.0
C492 C 0.77222 0.78009 0.92383 0.0
C493 C 0.70475 0.74412 0.88128 0.0
H494 H 0.63909 0.70699 0.88653 0.0
C495 C 0.70764 0.74383 0.84112 0.0
C496 C 0.67993 0.72917 0.89799 0.0
C497 C 0.67589 0.72657 0.94114 0.0
C498 C 0.68606 0.7309 0.817 0.0
C499 C 0.661 0.71866 0.83353 0.0
C500 C 0.65828 0.71691 0.87382 0.0
C501 C 0.63759 0.71019 0.80966 0.0
C502 C 0.69031 0.73115 0.774 0.0
C503 C 0.63586 0.72807 0.78538 0.0
C504 C 0.61381 0.72071 0.76324 0.0
C505 C 0.59282 0.69543 0.76544 0.0
C506 C 0.59418 0.67765 0.79057 0.0
C507 C 0.61645 0.68501 0.81258 0.0
H508 H 0.709 0.73205 0.76753 0.0
H509 H 0.67448 0.7138 0.7598 0.0
H510 H 0.69113 0.74861 0.76129 0.0
H511 H 0.65155 0.74785 0.78374 0.0
H512 H 0.6132 0.73488 0.74439 0.0
H513 H 0.28811 0.89168 0.71512 0.0
H514 H 0.27291 0.9145 0.75631 0.0
H515 H 0.32848 0.92354 0.84346 0.0
H516 H 0.34422 0.90093 0.80187 0.0
H517 H 0.25198 0.90168 0.82953 0.0
H518 H 0.34186 -0.00252 0.82744 0.0
H519 H 0.33622 0.97202 0.79396 0.0
H520 H 0.34595 0.97096 0.8427 0.0
C521 C 0.29713 0.89849 0.74306 0.0
C522 C 0.31741 0.89461 0.75529 0.0
C523 C 0.28841 0.91153 0.76653 0.0
C524 C 0.29982 0.92099 0.80261 0.0
C525 C 0.31979 0.91678 0.81533 0.0
H526 H 0.23169 0.96972 0.98097 0.0
H527 H 0.25033 0.94856 0.94304 0.0
C528 C 0.3286 0.90373 0.79174 0.0
C529 C 0.29027 0.93482 0.8269 0.0
H530 H 0.30772 0.99334 0.86746 0.0
C531 C 0.26416 0.92171 0.83791 0.0
C532 C 0.30617 0.96104 0.83717 0.0
C533 C 0.33406 0.97635 0.82449 0.0
C534 C 0.25346 0.93409 0.85913 0.0
C535 C 0.26949 0.96012 0.87023 0.0
C536 C 0.29558 0.97333 0.85904 0.0
C537 C 0.25943 0.97385 0.89367 0.0
C538 C 0.22498 0.91934 0.86878 0.0
C539 C 0.25916 -0.00441 0.87884 0.0
C540 C 0.24866 0.0079 0.90061 0.0
C541 C 0.23836 -0.00141 0.93746 0.0
C542 C 0.23923 0.97716 0.95248 0.0
C543 C 0.2498 0.965 0.93084 0.0
H544 H 0.21425 0.90228 0.84971 0.0
H545 H 0.22247 0.91233 0.89902 0.0
H546 H 0.21619 0.93188 0.86617 0.0
H547 H 0.26667 0.00275 0.85022 0.0
H548 H 0.24834 0.02445 0.88846 0.0
H549 H 0.40163 0.118 0.34325 0.0
H550 H 0.36392 0.09585 0.30136 0.0
H551 H 0.41393 0.11051 0.20308 0.0
H552 H 0.45194 0.13247 0.24508 0.0
H553 H 0.35543 0.12141 0.24165 0.0
H554 H 0.35728 0.03468 0.18803 0.0
H555 H 0.37499 0.05239 0.23029 0.0
H556 H 0.38737 0.06442 0.18285 0.0
C557 C 0.40462 0.11612 0.31281 0.0
C558 C 0.42968 0.1271 0.29728 0.0
C559 C 0.38306 0.10342 0.28899 0.0
C560 C 0.38617 0.10143 0.24926 0.0
C561 C 0.41115 0.11146 0.23382 0.0
H562 H 0.28802 0.09025 0.06177 0.0
H563 H 0.32236 0.1021 0.10942 0.0
C564 C 0.43281 0.12411 0.25776 0.0
C565 C 0.36343 0.09153 0.22364 0.0
H566 H 0.32875 0.0458 0.15575 0.0
C567 C 0.34946 0.10474 0.22312 0.0
C568 C 0.35566 0.0697 0.19975 0.0
C569 C 0.36944 0.05429 0.20038 0.0
C570 C 0.32826 0.09709 0.19855 0.0
C571 C 0.32106 0.07586 0.1737 0.0
C572 C 0.33453 0.06217 0.17484 0.0
C573 C 0.30024 0.0684 0.14518 0.0
C574 C 0.31377 0.11183 0.19907 0.0
C575 C 0.27658 0.04549 0.14972 0.0
C576 C 0.25683 0.03874 0.1227 0.0
C577 C 0.26069 0.05472 0.09066 0.0
C578 C 0.28449 0.07762 0.08625 0.0
C579 C 0.3041 0.08441 0.11335 0.0
H580 H 0.31841 0.12425 0.22509 0.0
H581 H 0.31912 0.12438 0.17312 0.0
H582 H 0.29256 0.09835 0.19818 0.0
H583 H 0.27338 0.03295 0.17422 0.0
H584 H 0.23871 0.02091 0.12663 0.0
H585 H 0.02811 0.25271 0.12678 0.0
H586 H 0.01169 0.26965 0.17751 0.0
H587 H 0.94318 0.24803 0.1098 0.0
H588 H 0.9591 0.23087 0.0597 0.0
H589 H -0.00146 0.30866 0.17142 0.0
H590 H 0.91387 0.21579 0.21496 0.0
H591 H 0.94021 0.21755 0.18677 0.0
H592 H 0.91499 0.22096 0.16378 0.0
C593 C 0.00946 0.25141 0.12299 0.0
C594 C -0.00521 0.24033 0.08947 0.0
C595 C 0.00016 0.26111 0.15186 0.0
C596 C 0.97605 0.25966 0.14758 0.0
C597 C 0.96156 0.24878 0.11401 0.0
H598 H 0.90998 0.34649 0.24341 0.0
H599 H 0.93333 0.33004 0.20516 0.0
C600 C 0.97076 0.2391 0.08533 0.0
C601 C 0.96607 0.27018 0.17732 0.0
H602 H 0.91267 0.25411 0.23222 0.0
C603 C 0.97995 0.29673 0.18524 0.0
C604 C 0.94201 0.25447 0.19564 0.0
C605 C 0.92703 0.22556 0.19018 0.0
C606 C 0.96978 0.30822 0.20973 0.0
C607 C 0.94489 0.29276 0.2259 0.0
C608 C 0.93159 0.26602 0.21933 0.0
C609 C 0.93197 0.30375 0.24943 0.0
C610 C 0.98578 0.33675 0.21798 0.0
C611 C 0.92291 0.29395 0.28649 0.0
C612 C 0.90918 0.3029 0.30794 0.0
C613 C 0.90432 0.3219 0.29278 0.0
C614 C 0.91355 0.33189 0.25579 0.0
C615 C 0.9271 0.32271 0.23412 0.0
H616 H 0.00674 0.34387 0.2137 0.0
H617 H 0.98007 0.34746 0.19779 0.0
H618 H 0.98269 0.34124 0.24798 0.0
H619 H 0.92635 0.27923 0.29876 0.0
H620 H 0.90243 0.29495 0.33649 0.0
H621 H 0.74273 0.61271 0.27503 0.0
H622 H 0.75813 0.65443 0.24369 0.0
H623 H 0.68682 0.62362 0.1796 0.0
H624 H 0.67129 0.58146 0.21065 0.0
H625 H 0.73076 0.65374 0.13532 0.0
H626 H 0.73219 0.70458 0.2698 0.0
H627 H 0.74983 0.6876 0.27438 0.0
H628 H 0.71547 0.6698 0.26611 0.0
C629 C 0.73039 0.61471 0.25401 0.0
C630 C 0.70575 0.59391 0.2454 0.0
C631 C 0.73911 0.63862 0.23645 0.0
C632 C 0.72327 0.64223 0.21027 0.0
C633 C 0.69913 0.62122 0.20021 0.0
H634 H 0.7684 0.7969 0.1199 0.0
H635 H 0.74383 0.75545 0.15392 0.0
C636 C 0.69038 0.59718 0.21774 0.0
C637 C 0.73241 0.66795 0.19301 0.0
H638 H 0.75714 0.73147 0.21654 0.0
C639 C 0.73616 0.67069 0.15297 0.0
C640 C 0.73894 0.68993 0.21608 0.0
C641 C 0.73365 0.68784 0.25894 0.0
C642 C 0.7478 0.69511 0.13562 0.0
C643 C 0.75623 0.71725 0.15911 0.0
C644 C 0.75101 0.71442 0.1988 0.0
C645 C 0.77202 0.74343 0.14304 0.0
C646 C 0.75151 0.69709 0.09238 0.0
C647 C 0.79642 0.75069 0.12754 0.0
C648 C 0.8104 0.77415 0.10833 0.0
C649 C 0.80027 0.79083 0.10456 0.0
C650 C 0.77663 0.78437 0.12249 0.0
C651 C 0.76255 0.76073 0.14169 0.0
H652 H 0.73783 0.6787 0.07779 0.0
H653 H 0.74881 0.71284 0.0804 0.0
H654 H 0.77147 0.70144 0.08548 0.0
H655 H 0.80425 0.73777 0.12913 0.0
H656 H 0.82867 0.77874 0.09507 0.0
H657 H 0.10525 0.41567 0.62248 0.0
H658 H 0.06593 0.3878 0.58593 0.0
H659 H 0.08433 0.45005 0.50603 0.0
H660 H 0.12362 0.47784 0.5421 0.0
H661 H 0.02878 0.40202 0.58253 0.0
H662 H 0.05425 0.38794 0.4346 0.0
H663 H 0.07681 0.39744 0.47433 0.0
H664 H 0.07227 0.42119 0.44885 0.0
C665 C 0.10143 0.42307 0.59624 0.0
C666 C 0.11732 0.449 0.58529 0.0
C667 C 0.07892 0.40714 0.57548 0.0
C668 C 0.07225 0.41683 0.54325 0.0
C669 C 0.08931 0.44201 0.5304 0.0
H670 H 0.94973 0.40906 0.41552 0.0
H671 H 0.98918 0.41766 0.44922 0.0
C672 C 0.11172 0.45795 0.55118 0.0
C673 C 0.04578 0.40278 0.52723 0.0
H674 H 0.01289 0.38627 0.44199 0.0
C675 C 0.02512 0.3979 0.55195 0.0
C676 C 0.04114 0.39752 0.48738 0.0
C677 C 0.0623 0.40106 0.45986 0.0
C678 C 0.00028 0.38973 0.5374 0.0
C679 C -0.00394 0.38606 0.49721 0.0
C680 C 0.01632 0.38938 0.4728 0.0
C681 C 0.97149 0.38107 0.4794 0.0
C682 C 0.97919 0.38668 0.56472 0.0
C683 C 0.94838 0.35787 0.486 0.0
C684 C 0.92568 0.35299 0.46701 0.0
C685 C 0.92593 0.37118 0.44097 0.0
C686 C 0.94895 0.39471 0.43546 0.0
C687 C 0.97152 0.39958 0.45448 0.0
H688 H 0.98674 0.39419 0.59405 0.0
H689 H 0.96932 0.39693 0.55339 0.0
H690 H 0.96452 0.36591 0.56734 0.0
H691 H 0.94808 0.34326 0.50487 0.0
H692 H 0.90826 0.33459 0.47148 0.0
H693 H 0.63026 0.57586 0.35114 0.0
H694 H 0.61521 0.5976 0.39489 0.0
H695 H 0.65704 0.58759 0.48864 0.0
H696 H 0.67269 0.56611 0.44459 0.0
H697 H 0.58516 0.57532 0.45845 0.0
H698 H 0.67652 0.66355 0.49905 0.0
H699 H 0.6742 0.64381 0.45802 0.0
H700 H 0.67692 0.63393 0.506 0.0
C701 C 0.63648 0.57847 0.381 0.0
C702 C 0.65255 0.5692 0.39458 0.0
C703 C 0.6279 0.59095 0.4059 0.0
C704 C 0.63522 0.59441 0.44484 0.0
C705 C 0.65161 0.58555 0.45847 0.0
H706 H 0.5545 0.61389 0.63496 0.0
H707 H 0.57519 0.59975 0.5876 0.0
C708 C 0.66036 0.57313 0.43341 0.0
C709 C 0.62392 0.60545 0.47152 0.0
H710 H 0.63883 0.65453 0.53521 0.0
C711 C 0.59689 0.59273 0.47506 0.0
C712 C 0.63929 0.62832 0.49274 0.0
C713 C 0.66834 0.64338 0.48859 0.0
C714 C 0.58479 0.60194 0.49993 0.0
C715 C 0.60018 0.62421 0.52225 0.0
C716 C 0.62718 0.63735 0.51813 0.0
C717 C 0.58845 0.63342 0.55114 0.0
C718 C 0.55563 0.5878 0.50209 0.0
C719 C 0.58952 0.65727 0.54649 0.0
C720 C 0.57766 0.66544 0.57354 0.0
C721 C 0.56479 0.64989 0.60565 0.0
C722 C 0.56412 0.6262 0.61037 0.0
C723 C 0.57589 0.61807 0.58337 0.0
H724 H 0.54668 0.57524 0.47651 0.0
H725 H 0.54926 0.57538 0.52822 0.0
H726 H 0.54829 0.60159 0.5043 0.0
H727 H 0.59924 0.66937 0.52175 0.0
H728 H 0.57858 0.68386 0.56937 0.0
H729 H 0.4143 0.94619 0.64217 0.0
H730 H 0.43096 0.98761 0.60926 0.0
H731 H 0.36196 0.9562 0.53943 0.0
H732 H 0.34539 0.91434 0.57172 0.0
H733 H 0.40522 0.98442 0.49733 0.0
H734 H 0.40734 0.03968 0.62691 0.0
H735 H 0.42518 0.02311 0.63392 0.0
H736 H 0.39078 0.00484 0.62607 0.0
C737 C 0.40273 0.94806 0.61966 0.0
C738 C 0.37851 0.92713 0.60956 0.0
C739 C 0.41215 0.9718 0.6012 0.0
C740 C 0.39735 0.97514 0.57274 0.0
C741 C 0.37351 0.95405 0.56169 0.0
H742 H 0.43767 0.12592 0.47497 0.0
H743 H 0.41654 0.08575 0.51263 0.0
C744 C 0.36414 0.93017 0.57998 0.0
C745 C 0.40727 0.0005 0.55376 0.0
H746 H 0.43186 0.0647 0.57218 0.0
C747 C 0.41079 0.00194 0.51363 0.0
C748 C 0.41402 0.02325 0.57503 0.0
C749 C 0.40887 0.02265 0.61781 0.0
C750 C 0.42196 0.02569 0.49434 0.0
C751 C 0.43041 0.04861 0.51599 0.0
C752 C 0.42581 0.04711 0.55585 0.0
C753 C 0.44463 0.07427 0.49758 0.0
C754 C 0.42462 0.02599 0.45095 0.0
C755 C 0.468 0.08157 0.47841 0.0
C756 C 0.47993 0.10426 0.45685 0.0
C757 C 0.46889 0.12021 0.45465 0.0
C758 C 0.44656 0.11392 0.47627 0.0
C759 C 0.43444 0.09099 0.4976 0.0
H760 H 0.41058 0.00708 0.43805 0.0
H761 H 0.42162 0.04123 0.43771 0.0
H762 H 0.44437 0.02997 0.44342 0.0
H763 H 0.47652 0.06923 0.47898 0.0
H764 H 0.4973 0.10883 0.44076 0.0
loop_
_geom_bond_atom_site_label_1
_geom_bond_atom_site_label_2
_geom_bond_distance
_geom_bond_site_symmetry_2
_ccdc_geom_bond_type
In0 O1 2.294 1_554 S
In0 O2 2.326 . S
In0 O6 2.266 1_454 S
In0 O7 2.326 1_455 S
In0 O8 2.266 . S
In0 O9 2.326 1_554 S
In0 O11 2.294 . S
In0 O12 2.326 1_455 S
O1 In0 2.294 1_556 S
O1 C10 1.240 . S
O2 In0 2.326 . S
O2 C10 1.252 1_554 S
C3 O6 1.252 1_554 S
C3 O7 1.260 . S
C4 O11 1.284 . S
C4 O12 1.240 1_455 S
C5 O8 1.252 . S
C5 O9 1.260 1_554 S
O6 In0 2.266 1_656 S
O6 C3 1.252 1_556 S
O7 In0 2.326 1_655 S
O7 C3 1.260 . S
O8 In0 2.266 . S
O8 C5 1.252 . S
O9 In0 2.326 1_556 S
O9 C5 1.260 1_556 S
C10 O1 1.240 . S
C10 O2 1.252 1_556 S
O11 In0 2.294 . S
O11 C4 1.284 . S
O12 In0 2.326 1_655 S
O12 C4 1.240 1_655 S
In13 O14 2.294 1_554 S
In13 O15 2.326 . S
In13 O19 2.266 1_554 S
In13 O20 2.326 . S
In13 O21 2.266 . S
In13 O22 2.326 1_554 S
In13 O24 2.294 . S
In13 O25 2.326 . S
O14 In13 2.294 1_556 S
O14 C23 1.240 . S
O15 In13 2.326 . S
O15 C23 1.252 1_554 S
C16 O19 1.252 1_554 S
C16 O20 1.260 . S
C17 O24 1.240 . S
C17 O25 1.252 . S
C18 O21 1.252 . S
C18 O22 1.260 1_554 S
O19 In13 2.266 1_556 S
O19 C16 1.252 1_556 S
O20 In13 2.326 . S
O20 C16 1.260 . S
O21 In13 2.266 . S
O21 C18 1.252 . S
O22 In13 2.326 1_556 S
O22 C18 1.260 1_556 S
C23 O14 1.240 . S
C23 O15 1.252 1_556 S
O24 In13 2.294 . S
O24 C17 1.240 . S
O25 In13 2.326 . S
O25 C17 1.252 . S
In26 O27 2.294 . S
In26 O28 2.326 . S
In26 O32 2.266 1_545 S
In26 O33 2.329 1_554 S
In26 O34 2.266 1_554 S
In26 O35 2.326 . S
In26 O37 2.294 1_554 S
In26 O38 2.326 1_545 S
O27 In26 2.294 . S
O27 C36 1.240 . S
O28 In26 2.326 . S
O28 C36 1.252 . S
C29 O32 1.252 . S
C29 O33 1.248 1_564 S
C30 O37 1.240 . S
C30 O38 1.252 1_546 S
C31 O34 1.252 1_554 S
C31 O35 1.260 . S
O32 In26 2.266 1_565 S
O32 C29 1.252 . S
O33 In26 2.329 1_556 S
O33 C29 1.248 1_546 S
O34 In26 2.266 1_556 S
O34 C31 1.252 1_556 S
O35 In26 2.326 . S
O35 C31 1.260 . S
C36 O27 1.240 . S
C36 O28 1.252 . S
O37 In26 2.294 1_556 S
O37 C30 1.240 . S
O38 In26 2.326 1_565 S
O38 C30 1.252 1_564 S
In39 O40 2.294 . S
In39 O41 2.326 . S
In39 O45 2.266 . S
In39 O46 2.326 . S
In39 O47 2.266 . S
In39 O48 2.326 . S
In39 O50 2.294 . S
In39 O51 2.326 . S
O40 In39 2.294 . S
O40 C49 1.240 . S
O41 In39 2.326 . S
O41 C49 1.252 . S
C42 O45 1.252 . S
C42 O46 1.260 . S
C43 O50 1.240 . S
C43 O51 1.252 . S
C44 O47 1.252 . S
C44 O48 1.260 . S
O45 In39 2.266 . S
O45 C42 1.252 . S
O46 In39 2.326 . S
O46 C42 1.260 . S
O47 In39 2.266 . S
O47 C44 1.252 . S
O48 In39 2.326 . S
O48 C44 1.260 . S
C49 O40 1.240 . S
C49 O41 1.252 . S
O50 In39 2.294 . S
O50 C43 1.240 . S
O51 In39 2.326 . S
O51 C43 1.252 . S
In52 O53 2.294 . S
In52 O54 2.326 . S
In52 O58 2.266 . S
In52 O59 2.326 . S
In52 O60 2.266 . S
In52 O61 2.326 . S
In52 O63 2.294 . S
In52 O64 2.326 . S
O53 In52 2.294 . S
O53 C62 1.240 . S
O54 In52 2.326 . S
O54 C62 1.252 . S
C55 O58 1.252 . S
C55 O59 1.260 . S
C56 O63 1.240 . S
C56 O64 1.252 . S
C57 O60 1.252 . S
C57 O61 1.260 . S
O58 In52 2.266 . S
O58 C55 1.252 . S
O59 In52 2.326 . S
O59 C55 1.260 . S
O60 In52 2.266 . S
O60 C57 1.252 . S
O61 In52 2.326 . S
O61 C57 1.260 . S
C62 O53 1.240 . S
C62 O54 1.252 . S
O63 In52 2.294 . S
O63 C56 1.240 . S
O64 In52 2.326 . S
O64 C56 1.252 . S
In65 O66 2.294 . S
In65 O67 2.326 . S
In65 O71 2.266 . S
In65 O72 2.326 . S
In65 O73 2.266 . S
In65 O74 2.326 . S
In65 O76 2.294 . S
In65 O77 2.326 . S
O66 In65 2.294 . S
O66 C75 1.240 . S
O67 In65 2.326 . S
O67 C75 1.252 . S
C68 O71 1.252 . S
C68 O72 1.260 . S
C69 O76 1.240 . S
C69 O77 1.252 . S
C70 O73 1.252 . S
C70 O74 1.260 . S
O71 In65 2.266 . S
O71 C68 1.252 . S
O72 In65 2.326 . S
O72 C68 1.260 . S
O73 In65 2.266 . S
O73 C70 1.252 . S
O74 In65 2.326 . S
O74 C70 1.260 . S
C75 O66 1.240 . S
C75 O67 1.252 . S
O76 In65 2.294 . S
O76 C69 1.240 . S
O77 In65 2.326 . S
O77 C69 1.252 . S
In78 O79 2.294 . S
In78 O80 2.326 . S
In78 O84 2.266 . S
In78 O85 2.326 . S
In78 O86 2.266 . S
In78 O87 2.326 . S
In78 O89 2.294 . S
In78 O90 2.326 . S
O79 In78 2.294 . S
O79 C88 1.240 . S
O80 In78 2.326 . S
O80 C88 1.252 . S
C81 O84 1.252 . S
C81 O85 1.260 . S
C82 O89 1.240 . S
C82 O90 1.252 . S
C83 O86 1.252 . S
C83 O87 1.260 . S
O84 In78 2.266 . S
O84 C81 1.252 . S
O85 In78 2.326 . S
O85 C81 1.260 . S
O86 In78 2.266 . S
O86 C83 1.252 . S
O87 In78 2.326 . S
O87 C83 1.260 . S
C88 O79 1.240 . S
C88 O80 1.252 . S
O89 In78 2.294 . S
O89 C82 1.240 . S
O90 In78 2.326 . S
O90 C82 1.252 . S
In91 O92 2.294 . S
In91 O93 2.326 . S
In91 O97 2.266 . S
In91 O98 2.326 . S
In91 O99 2.266 . S
In91 O100 2.326 . S
In91 O102 2.294 . S
In91 O103 2.326 . S
O92 In91 2.294 . S
O92 C101 1.240 . S
O93 In91 2.326 . S
O93 C101 1.252 . S
C94 O97 1.252 . S
C94 O98 1.260 . S
C95 O102 1.240 . S
C95 O103 1.252 . S
C96 O99 1.252 . S
C96 O100 1.260 . S
O97 In91 2.266 . S
O97 C94 1.252 . S
O98 In91 2.326 . S
O98 C94 1.260 . S
O99 In91 2.266 . S
O99 C96 1.252 . S
O100 In91 2.326 . S
O100 C96 1.260 . S
C101 O92 1.240 . S
C101 O93 1.252 . S
O102 In91 2.294 . S
O102 C95 1.240 . S
O103 In91 2.326 . S
O103 C95 1.252 . S
In104 O105 2.294 . S
In104 O106 2.326 . S
In104 O110 2.266 . S
In104 O111 2.326 . S
In104 O112 2.266 . S
In104 O113 2.326 . S
In104 O115 2.294 . S
In104 O116 2.326 . S
O105 In104 2.294 . S
O105 C114 1.240 . S
O106 In104 2.326 . S
O106 C114 1.252 . S
C107 O110 1.252 . S
C107 O111 1.260 . S
C108 O115 1.240 . S
C108 O116 1.252 . S
C109 O112 1.252 . S
C109 O113 1.260 . S
O110 In104 2.266 . S
O110 C107 1.252 . S
O111 In104 2.326 . S
O111 C107 1.260 . S
O112 In104 2.266 . S
O112 C109 1.252 . S
O113 In104 2.326 . S
O113 C109 1.260 . S
C114 O105 1.240 . S
C114 O106 1.252 . S
O115 In104 2.294 . S
O115 C108 1.240 . S
O116 In104 2.326 . S
O116 C108 1.252 . S
H117 C125 0.929 . S
H118 C127 0.930 . S
H119 C129 0.930 . S
H120 C132 0.929 . S
H121 C135 0.930 . S
H122 C137 0.960 . S
H123 C137 0.960 . S
H124 C137 0.960 1_556 S
C125 H117 0.929 . S
C125 C126 1.377 . S
C125 C127 1.384 . S
C126 C125 1.377 . S
C126 C132 1.390 1_554 S
C127 H118 0.930 . S
C127 C125 1.384 . S
C127 C128 1.372 . S
C128 C127 1.372 . S
C128 C129 1.400 1_554 S
C128 C133 1.490 . S
C129 H119 0.930 . S
C129 C128 1.400 1_556 S
C129 C132 1.386 . S
H130 C146 0.930 . S
H131 C147 0.931 . S
C132 H120 0.929 . S
C132 C126 1.390 1_556 S
C132 C129 1.386 . S
C133 C128 1.490 . S
C133 C135 1.395 . S
C133 C136 1.403 . S
H134 C140 0.930 . S
C135 H121 0.930 . S
C135 C133 1.395 . S
C135 C138 1.403 . S
C136 C133 1.403 . S
C136 C137 1.524 . S
C136 C140 1.400 . S
C137 H122 0.960 . S
C137 H123 0.960 . S
C137 H124 0.960 1_554 S
C137 C136 1.524 . S
C138 C135 1.403 . S
C138 C139 1.392 . S
C138 C142 1.495 . S
C139 C138 1.392 . S
C139 C140 1.385 . S
C139 C141 1.478 . S
C140 H134 0.930 . S
C140 C136 1.400 . S
C140 C139 1.385 . S
C141 C139 1.478 . S
C141 C143 1.381 . S
C141 C147 1.383 1_554 S
C142 C138 1.495 . S
C142 H148 0.959 . S
C142 H149 0.961 . S
C142 H150 0.960 . S
C143 C141 1.381 . S
C143 C144 1.394 . S
C143 H151 0.930 . S
C144 C143 1.394 . S
C144 C145 1.383 . S
C144 H152 0.929 . S
C145 C144 1.383 . S
C145 C146 1.377 1_554 S
C146 H130 0.930 . S
C146 C145 1.377 1_556 S
C146 C147 1.379 . S
C147 H131 0.931 . S
C147 C141 1.383 1_556 S
C147 C146 1.379 . S
H148 C142 0.959 . S
H149 C142 0.961 . S
H150 C142 0.960 . S
H151 C143 0.930 . S
H152 C144 0.929 . S
H153 C161 0.929 . S
H154 C163 0.930 . S
H155 C165 0.930 . S
H156 C168 0.929 . S
H157 C171 0.930 1_565 S
H158 C173 0.960 . S
H159 C173 0.960 1_565 S
H160 C173 0.960 1_565 S
C161 H153 0.929 . S
C161 C162 1.377 . S
C161 C163 1.384 . S
C162 C161 1.377 . S
C162 C168 1.390 . S
C163 H154 0.930 . S
C163 C161 1.384 . S
C163 C164 1.372 . S
C164 C163 1.372 . S
C164 C165 1.400 . S
C164 C169 1.490 . S
C165 H155 0.930 . S
C165 C164 1.400 . S
C165 C168 1.386 . S
H166 C182 0.932 . S
H167 C183 0.938 . S
C168 H156 0.929 . S
C168 C162 1.390 . S
C168 C165 1.386 . S
C169 C164 1.490 . S
C169 C171 1.395 1_564 S
C169 C172 1.403 1_565 S
H170 C176 0.930 . S
C171 H157 0.930 1_545 S
C171 C169 1.395 1_546 S
C171 C174 1.403 . S
C172 C169 1.403 1_545 S
C172 C173 1.524 . S
C172 C176 1.400 . S
C173 H158 0.960 . S
C173 H159 0.960 1_545 S
C173 H160 0.960 1_545 S
C173 C172 1.524 . S
C174 C171 1.403 . S
C174 C175 1.392 1_556 S
C174 C178 1.495 . S
C175 C174 1.392 1_554 S
C175 C176 1.385 . S
C175 C177 1.478 . S
C176 H170 0.930 . S
C176 C172 1.400 . S
C176 C175 1.385 . S
C177 C175 1.478 . S
C177 C179 1.381 . S
C177 C183 1.377 1_554 S
C178 C174 1.495 . S
C178 H184 0.959 . S
C178 H185 0.961 . S
C178 H186 0.960 . S
C179 C177 1.381 . S
C179 C180 1.394 . S
C179 H187 0.930 . S
C180 C179 1.394 . S
C180 C181 1.383 . S
C180 H188 0.929 1_655 S
C181 C180 1.383 . S
C181 C182 1.375 1_554 S
C182 H166 0.932 . S
C182 C181 1.375 1_556 S
C182 C183 1.379 . S
C183 H167 0.938 . S
C183 C177 1.377 1_556 S
C183 C182 1.379 . S
H184 C178 0.959 . S
H185 C178 0.961 . S
H186 C178 0.960 . S
H187 C179 0.930 . S
H188 C180 0.929 1_455 S
H189 C197 0.929 . S
H190 C199 0.930 . S
H191 C201 0.930 . S
H192 C204 0.929 . S
H193 C207 0.933 1_655 S
H194 C209 0.960 1_455 S
H195 C209 0.960 . S
H196 C209 0.960 . S
C197 H189 0.929 . S
C197 C198 1.377 1_556 S
C197 C199 1.384 . S
C198 C197 1.377 1_554 S
C198 C204 1.390 . S
C199 H190 0.930 . S
C199 C197 1.384 . S
C199 C200 1.372 1_556 S
C200 C199 1.372 1_554 S
C200 C201 1.400 . S
C200 C205 1.490 . S
C201 H191 0.930 . S
C201 C200 1.400 . S
C201 C204 1.386 . S
H202 C218 0.930 . S
H203 C219 0.931 . S
C204 H192 0.929 . S
C204 C198 1.390 . S
C204 C201 1.386 . S
C205 C200 1.490 . S
C205 C207 1.391 1_654 S
C205 C208 1.403 1_655 S
H206 C212 0.930 . S
C207 H193 0.933 1_455 S
C207 C205 1.391 1_456 S
C207 C210 1.403 1_556 S
C208 C205 1.403 1_455 S
C208 C209 1.524 1_455 S
C208 C212 1.400 . S
C209 H194 0.960 1_655 S
C209 H195 0.960 . S
C209 H196 0.960 . S
C209 C208 1.524 1_655 S
C210 C207 1.403 1_554 S
C210 C211 1.395 . S
C210 C214 1.493 1_554 S
C211 C210 1.395 . S
C211 C212 1.385 . S
C211 C213 1.478 . S
C212 H206 0.930 . S
C212 C208 1.400 . S
C212 C211 1.385 . S
C213 C211 1.478 . S
C213 C215 1.381 1_554 S
C213 C219 1.383 . S
C214 C210 1.493 1_556 S
C214 H220 0.959 . S
C214 H221 0.961 1_556 S
C214 H222 0.960 . S
C215 C213 1.381 1_556 S
C215 C216 1.394 . S
C215 H223 0.930 . S
C216 C215 1.394 . S
C216 C217 1.383 1_556 S
C216 H224 0.929 . S
C217 C216 1.383 1_554 S
C217 C218 1.377 . S
C218 H202 0.930 . S
C218 C217 1.377 . S
C218 C219 1.379 . S
C219 H203 0.931 . S
C219 C213 1.383 . S
C219 C218 1.379 . S
H220 C214 0.959 . S
H221 C214 0.961 1_554 S
H222 C214 0.960 . S
H223 C215 0.930 . S
H224 C216 0.929 . S
H225 C233 0.929 . S
H226 C235 0.930 . S
H227 C237 0.930 . S
H228 C240 0.929 . S
H229 C243 0.930 . S
H230 C245 0.960 . S
H231 C245 0.960 . S
H232 C245 0.960 . S
C233 H225 0.929 . S
C233 C234 1.377 . S
C233 C235 1.384 . S
C234 C233 1.377 . S
C234 C240 1.390 . S
C235 H226 0.930 . S
C235 C233 1.384 . S
C235 C236 1.372 . S
C236 C235 1.372 . S
C236 C237 1.400 . S
C236 C241 1.490 . S
C237 H227 0.930 . S
C237 C236 1.400 . S
C237 C240 1.386 . S
H238 C254 0.930 . S
H239 C255 0.931 . S
C240 H228 0.929 . S
C240 C234 1.390 . S
C240 C237 1.386 . S
C241 C236 1.490 . S
C241 C243 1.395 . S
C241 C244 1.403 . S
H242 C248 0.930 . S
C243 H229 0.930 . S
C243 C241 1.395 . S
C243 C246 1.403 . S
C244 C241 1.403 . S
C244 C245 1.524 . S
C244 C248 1.400 . S
C245 H230 0.960 . S
C245 H231 0.960 . S
C245 H232 0.960 . S
C245 C244 1.524 . S
C246 C243 1.403 . S
C246 C247 1.392 . S
C246 C250 1.495 . S
C247 C246 1.392 . S
C247 C248 1.385 . S
C247 C249 1.478 . S
C248 H242 0.930 . S
C248 C244 1.400 . S
C248 C247 1.385 . S
C249 C247 1.478 . S
C249 C251 1.381 . S
C249 C255 1.383 . S
C250 C246 1.495 . S
C250 H256 0.959 . S
C250 H257 0.961 . S
C250 H258 0.960 . S
C251 C249 1.381 . S
C251 C252 1.394 . S
C251 H259 0.930 . S
C252 C251 1.394 . S
C252 C253 1.383 . S
C252 H260 0.929 . S
C253 C252 1.383 . S
C253 C254 1.377 . S
C254 H238 0.930 . S
C254 C253 1.377 . S
C254 C255 1.379 . S
C255 H239 0.931 . S
C255 C249 1.383 . S
C255 C254 1.379 . S
H256 C250 0.959 . S
H257 C250 0.961 . S
H258 C250 0.960 . S
H259 C251 0.930 . S
H260 C252 0.929 . S
H261 C269 0.929 . S
H262 C271 0.930 . S
H263 C273 0.930 . S
H264 C276 0.929 . S
H265 C279 0.930 . S
H266 C281 0.960 . S
H267 C281 0.960 . S
H268 C281 0.960 . S
C269 H261 0.929 . S
C269 C270 1.377 . S
C269 C271 1.384 . S
C270 C269 1.377 . S
C270 C276 1.390 . S
C271 H262 0.930 . S
C271 C269 1.384 . S
C271 C272 1.372 . S
C272 C271 1.372 . S
C272 C273 1.400 . S
C272 C277 1.490 . S
C273 H263 0.930 . S
C273 C272 1.400 . S
C273 C276 1.386 . S
H274 C290 0.930 . S
H275 C291 0.931 . S
C276 H264 0.929 . S
C276 C270 1.390 . S
C276 C273 1.386 . S
C277 C272 1.490 . S
C277 C279 1.395 . S
C277 C280 1.403 . S
H278 C284 0.930 . S
C279 H265 0.930 . S
C279 C277 1.395 . S
C279 C282 1.403 . S
C280 C277 1.403 . S
C280 C281 1.524 . S
C280 C284 1.400 . S
C281 H266 0.960 . S
C281 H267 0.960 . S
C281 H268 0.960 . S
C281 C280 1.524 . S
C282 C279 1.403 . S
C282 C283 1.392 . S
C282 C286 1.495 . S
C283 C282 1.392 . S
C283 C284 1.385 . S
C283 C285 1.478 . S
C284 H278 0.930 . S
C284 C280 1.400 . S
C284 C283 1.385 . S
C285 C283 1.478 . S
C285 C287 1.381 . S
C285 C291 1.383 . S
C286 C282 1.495 . S
C286 H292 0.959 . S
C286 H293 0.961 . S
C286 H294 0.960 . S
C287 C285 1.381 . S
C287 C288 1.394 . S
C287 H295 0.930 . S
C288 C287 1.394 . S
C288 C289 1.383 . S
C288 H296 0.929 . S
C289 C288 1.383 . S
C289 C290 1.377 . S
C290 H274 0.930 . S
C290 C289 1.377 . S
C290 C291 1.379 . S
C291 H275 0.931 . S
C291 C285 1.383 . S
C291 C290 1.379 . S
H292 C286 0.959 . S
H293 C286 0.961 . S
H294 C286 0.960 . S
H295 C287 0.930 . S
H296 C288 0.929 . S
H297 C305 0.929 . S
H298 C307 0.930 . S
H299 C309 0.930 . S
H300 C312 0.929 . S
H301 C315 0.930 . S
H302 C317 0.960 . S
H303 C317 0.960 . S
H304 C317 0.960 . S
C305 H297 0.929 . S
C305 C306 1.377 . S
C305 C307 1.384 . S
C306 C305 1.377 . S
C306 C312 1.390 . S
C307 H298 0.930 . S
C307 C305 1.384 . S
C307 C308 1.372 . S
C308 C307 1.372 . S
C308 C309 1.400 . S
C308 C313 1.490 . S
C309 H299 0.930 . S
C309 C308 1.400 . S
C309 C312 1.386 . S
H310 C326 0.930 . S
H311 C327 0.931 . S
C312 H300 0.929 . S
C312 C306 1.390 . S
C312 C309 1.386 . S
C313 C308 1.490 . S
C313 C315 1.395 . S
C313 C316 1.403 . S
H314 C320 0.930 . S
C315 H301 0.930 . S
C315 C313 1.395 . S
C315 C318 1.403 . S
C316 C313 1.403 . S
C316 C317 1.524 . S
C316 C320 1.400 . S
C317 H302 0.960 . S
C317 H303 0.960 . S
C317 H304 0.960 . S
C317 C316 1.524 . S
C318 C315 1.403 . S
C318 C319 1.392 . S
C318 C322 1.495 . S
C319 C318 1.392 . S
C319 C320 1.385 . S
C319 C321 1.478 . S
C320 H314 0.930 . S
C320 C316 1.400 . S
C320 C319 1.385 . S
C321 C319 1.478 . S
C321 C323 1.381 . S
C321 C327 1.383 . S
C322 C318 1.495 . S
C322 H328 0.959 . S
C322 H329 0.961 . S
C322 H330 0.960 . S
C323 C321 1.381 . S
C323 C324 1.394 . S
C323 H331 0.930 . S
C324 C323 1.394 . S
C324 C325 1.383 . S
C324 H332 0.929 . S
C325 C324 1.383 . S
C325 C326 1.377 . S
C326 H310 0.930 . S
C326 C325 1.377 . S
C326 C327 1.379 . S
C327 H311 0.931 . S
C327 C321 1.383 . S
C327 C326 1.379 . S
H328 C322 0.959 . S
H329 C322 0.961 . S
H330 C322 0.960 . S
H331 C323 0.930 . S
H332 C324 0.929 . S
H333 C341 0.929 . S
H334 C343 0.930 . S
H335 C345 0.930 . S
H336 C348 0.929 . S
H337 C351 0.930 . S
H338 C353 0.960 . S
H339 C353 0.960 . S
H340 C353 0.960 . S
C341 H333 0.929 . S
C341 C342 1.377 . S
C341 C343 1.384 . S
C342 C341 1.377 . S
C342 C348 1.390 . S
C343 H334 0.930 . S
C343 C341 1.384 . S
C343 C344 1.372 . S
C344 C343 1.372 . S
C344 C345 1.400 . S
C344 C349 1.490 . S
C345 H335 0.930 . S
C345 C344 1.400 . S
C345 C348 1.386 . S
H346 C362 0.930 . S
H347 C363 0.931 . S
C348 H336 0.929 . S
C348 C342 1.390 . S
C348 C345 1.386 . S
C349 C344 1.490 . S
C349 C351 1.395 . S
C349 C352 1.403 . S
H350 C356 0.930 . S
C351 H337 0.930 . S
C351 C349 1.395 . S
C351 C354 1.403 . S
C352 C349 1.403 . S
C352 C353 1.524 . S
C352 C356 1.400 . S
C353 H338 0.960 . S
C353 H339 0.960 . S
C353 H340 0.960 . S
C353 C352 1.524 . S
C354 C351 1.403 . S
C354 C355 1.392 . S
C354 C358 1.495 . S
C355 C354 1.392 . S
C355 C356 1.385 . S
C355 C357 1.478 . S
C356 H350 0.930 . S
C356 C352 1.400 . S
C356 C355 1.385 . S
C357 C355 1.478 . S
C357 C359 1.381 . S
C357 C363 1.383 . S
C358 C354 1.495 . S
C358 H364 0.959 . S
C358 H365 0.961 . S
C358 H366 0.960 . S
C359 C357 1.381 . S
C359 C360 1.394 . S
C359 H367 0.930 . S
C360 C359 1.394 . S
C360 C361 1.383 . S
C360 H368 0.929 . S
C361 C360 1.383 . S
C361 C362 1.377 . S
C362 H346 0.930 . S
C362 C361 1.377 . S
C362 C363 1.379 . S
C363 H347 0.931 . S
C363 C357 1.383 . S
C363 C362 1.379 . S
H364 C358 0.959 . S
H365 C358 0.961 . S
H366 C358 0.960 . S
H367 C359 0.930 . S
H368 C360 0.929 . S
H369 C377 0.929 . S
H370 C379 0.930 . S
H371 C381 0.930 . S
H372 C384 0.929 . S
H373 C387 0.930 . S
H374 C389 0.960 . S
H375 C389 0.960 . S
H376 C389 0.960 . S
C377 H369 0.929 . S
C377 C378 1.377 . S
C377 C379 1.384 . S
C378 C377 1.377 . S
C378 C384 1.390 . S
C379 H370 0.930 . S
C379 C377 1.384 . S
C379 C380 1.372 . S
C380 C379 1.372 . S
C380 C381 1.400 . S
C380 C385 1.490 . S
C381 H371 0.930 . S
C381 C380 1.400 . S
C381 C384 1.386 . S
H382 C398 0.930 . S
H383 C399 0.931 . S
C384 H372 0.929 . S
C384 C378 1.390 . S
C384 C381 1.386 . S
C385 C380 1.490 . S
C385 C387 1.395 . S
C385 C388 1.403 . S
H386 C392 0.930 . S
C387 H373 0.930 . S
C387 C385 1.395 . S
C387 C390 1.403 . S
C388 C385 1.403 . S
C388 C389 1.524 . S
C388 C392 1.400 . S
C389 H374 0.960 . S
C389 H375 0.960 . S
C389 H376 0.960 . S
C389 C388 1.524 . S
C390 C387 1.403 . S
C390 C391 1.392 . S
C390 C394 1.495 . S
C391 C390 1.392 . S
C391 C392 1.385 . S
C391 C393 1.478 . S
C392 H386 0.930 . S
C392 C388 1.400 . S
C392 C391 1.385 . S
C393 C391 1.478 . S
C393 C395 1.381 . S
C393 C399 1.383 . S
C394 C390 1.495 . S
C394 H400 0.959 . S
C394 H401 0.961 . S
C394 H402 0.960 . S
C395 C393 1.381 . S
C395 C396 1.394 . S
C395 H403 0.930 . S
C396 C395 1.394 . S
C396 C397 1.383 . S
C396 H404 0.929 . S
C397 C396 1.383 . S
C397 C398 1.377 . S
C398 H382 0.930 . S
C398 C397 1.377 . S
C398 C399 1.379 . S
C399 H383 0.931 . S
C399 C393 1.383 . S
C399 C398 1.379 . S
H400 C394 0.959 . S
H401 C394 0.961 . S
H402 C394 0.960 . S
H403 C395 0.930 . S
H404 C396 0.929 . S
H405 C413 0.929 . S
H406 C415 0.930 . S
H407 C417 0.930 . S
H408 C420 0.929 . S
H409 C423 0.930 . S
H410 C425 0.960 . S
H411 C425 0.960 . S
H412 C425 0.960 . S
C413 H405 0.929 . S
C413 C414 1.377 . S
C413 C415 1.384 . S
C414 C413 1.377 . S
C414 C420 1.390 . S
C415 H406 0.930 . S
C415 C413 1.384 . S
C415 C416 1.372 . S
C416 C415 1.372 . S
C416 C417 1.400 . S
C416 C421 1.490 . S
C417 H407 0.930 . S
C417 C416 1.400 . S
C417 C420 1.386 . S
H418 C434 0.930 . S
H419 C435 0.931 . S
C420 H408 0.929 . S
C420 C414 1.390 . S
C420 C417 1.386 . S
C421 C416 1.490 . S
C421 C423 1.395 . S
C421 C424 1.403 . S
H422 C428 0.930 . S
C423 H409 0.930 . S
C423 C421 1.395 . S
C423 C426 1.403 . S
C424 C421 1.403 . S
C424 C425 1.524 . S
C424 C428 1.400 . S
C425 H410 0.960 . S
C425 H411 0.960 . S
C425 H412 0.960 . S
C425 C424 1.524 . S
C426 C423 1.403 . S
C426 C427 1.392 . S
C426 C430 1.495 . S
C427 C426 1.392 . S
C427 C428 1.385 . S
C427 C429 1.478 . S
C428 H422 0.930 . S
C428 C424 1.400 . S
C428 C427 1.385 . S
C429 C427 1.478 . S
C429 C431 1.381 . S
C429 C435 1.383 . S
C430 C426 1.495 . S
C430 H436 0.959 . S
C430 H437 0.961 . S
C430 H438 0.960 . S
C431 C429 1.381 . S
C431 C432 1.394 . S
C431 H439 0.930 . S
C432 C431 1.394 . S
C432 C433 1.383 . S
C432 H440 0.929 . S
C433 C432 1.383 . S
C433 C434 1.377 . S
C434 H418 0.930 . S
C434 C433 1.377 . S
C434 C435 1.379 . S
C435 H419 0.931 . S
C435 C429 1.383 . S
C435 C434 1.379 . S
H436 C430 0.959 . S
H437 C430 0.961 . S
H438 C430 0.960 . S
H439 C431 0.930 . S
H440 C432 0.929 . S
H441 C449 0.929 . S
H442 C451 0.930 . S
H443 C453 0.930 . S
H444 C456 0.929 . S
H445 C459 0.930 . S
H446 C461 0.960 . S
H447 C461 0.960 . S
H448 C461 0.960 . S
C449 H441 0.929 . S
C449 C450 1.377 . S
C449 C451 1.384 . S
C450 C449 1.377 . S
C450 C456 1.390 . S
C451 H442 0.930 . S
C451 C449 1.384 . S
C451 C452 1.372 . S
C452 C451 1.372 . S
C452 C453 1.400 . S
C452 C457 1.490 . S
C453 H443 0.930 . S
C453 C452 1.400 . S
C453 C456 1.386 . S
H454 C470 0.930 . S
H455 C471 0.931 . S
C456 H444 0.929 . S
C456 C450 1.390 . S
C456 C453 1.386 . S
C457 C452 1.490 . S
C457 C459 1.395 . S
C457 C460 1.403 . S
H458 C464 0.930 . S
C459 H445 0.930 . S
C459 C457 1.395 . S
C459 C462 1.403 . S
C460 C457 1.403 . S
C460 C461 1.524 . S
C460 C464 1.400 . S
C461 H446 0.960 . S
C461 H447 0.960 . S
C461 H448 0.960 . S
C461 C460 1.524 . S
C462 C459 1.403 . S
C462 C463 1.392 . S
C462 C466 1.495 . S
C463 C462 1.392 . S
C463 C464 1.385 . S
C463 C465 1.478 . S
C464 H458 0.930 . S
C464 C460 1.400 . S
C464 C463 1.385 . S
C465 C463 1.478 . S
C465 C467 1.381 . S
C465 C471 1.383 . S
C466 C462 1.495 . S
C466 H472 0.959 . S
C466 H473 0.961 . S
C466 H474 0.960 . S
C467 C465 1.381 . S
C467 C468 1.394 . S
C467 H475 0.930 . S
C468 C467 1.394 . S
C468 C469 1.383 . S
C468 H476 0.929 . S
C469 C468 1.383 . S
C469 C470 1.377 . S
C470 H454 0.930 . S
C470 C469 1.377 . S
C470 C471 1.379 . S
C471 H455 0.931 . S
C471 C465 1.383 . S
C471 C470 1.379 . S
H472 C466 0.959 . S
H473 C466 0.961 . S
H474 C466 0.960 . S
H475 C467 0.930 . S
H476 C468 0.929 . S
H477 C485 0.929 . S
H478 C487 0.930 . S
H479 C489 0.930 . S
H480 C492 0.929 . S
H481 C495 0.930 . S
H482 C497 0.960 . S
H483 C497 0.960 . S
H484 C497 0.960 . S
C485 H477 0.929 . S
C485 C486 1.377 . S
C485 C487 1.384 . S
C486 C485 1.377 . S
C486 C492 1.390 . S
C487 H478 0.930 . S
C487 C485 1.384 . S
C487 C488 1.372 . S
C488 C487 1.372 . S
C488 C489 1.400 . S
C488 C493 1.490 . S
C489 H479 0.930 . S
C489 C488 1.400 . S
C489 C492 1.386 . S
H490 C506 0.930 . S
H491 C507 0.931 . S
C492 H480 0.929 . S
C492 C486 1.390 . S
C492 C489 1.386 . S
C493 C488 1.490 . S
C493 C495 1.395 . S
C493 C496 1.403 . S
H494 C500 0.930 . S
C495 H481 0.930 . S
C495 C493 1.395 . S
C495 C498 1.403 . S
C496 C493 1.403 . S
C496 C497 1.524 . S
C496 C500 1.400 . S
C497 H482 0.960 . S
C497 H483 0.960 . S
C497 H484 0.960 . S
C497 C496 1.524 . S
C498 C495 1.403 . S
C498 C499 1.392 . S
C498 C502 1.495 . S
C499 C498 1.392 . S
C499 C500 1.385 . S
C499 C501 1.478 . S
C500 H494 0.930 . S
C500 C496 1.400 . S
C500 C499 1.385 . S
C501 C499 1.478 . S
C501 C503 1.381 . S
C501 C507 1.383 . S
C502 C498 1.495 . S
C502 H508 0.959 . S
C502 H509 0.961 . S
C502 H510 0.960 . S
C503 C501 1.381 . S
C503 C504 1.394 . S
C503 H511 0.930 . S
C504 C503 1.394 . S
C504 C505 1.383 . S
C504 H512 0.929 . S
C505 C504 1.383 . S
C505 C506 1.377 . S
C506 H490 0.930 . S
C506 C505 1.377 . S
C506 C507 1.379 . S
C507 H491 0.931 . S
C507 C501 1.383 . S
C507 C506 1.379 . S
H508 C502 0.959 . S
H509 C502 0.961 . S
H510 C502 0.960 . S
H511 C503 0.930 . S
H512 C504 0.929 . S
H513 C521 0.929 . S
H514 C523 0.930 . S
H515 C525 0.930 . S
H516 C528 0.929 . S
H517 C531 0.930 . S
H518 C533 0.965 1_545 S
H519 C533 0.960 . S
H520 C533 0.960 . S
C521 H513 0.929 . S
C521 C522 1.377 . S
C521 C523 1.384 . S
C522 C521 1.377 . S
C522 C528 1.390 . S
C523 H514 0.930 . S
C523 C521 1.384 . S
C523 C524 1.372 . S
C524 C523 1.372 . S
C524 C525 1.400 . S
C524 C529 1.490 . S
C525 H515 0.930 . S
C525 C524 1.400 . S
C525 C528 1.386 . S
H526 C542 0.930 . S
H527 C543 0.931 . S
C528 H516 0.929 . S
C528 C522 1.390 . S
C528 C525 1.386 . S
C529 C524 1.490 . S
C529 C531 1.395 . S
C529 C532 1.403 . S
H530 C536 0.930 . S
C531 H517 0.930 . S
C531 C529 1.395 . S
C531 C534 1.403 . S
C532 C529 1.403 . S
C532 C533 1.524 . S
C532 C536 1.400 . S
C533 H518 0.965 1_565 S
C533 H519 0.960 . S
C533 H520 0.960 . S
C533 C532 1.524 . S
C534 C531 1.403 . S
C534 C535 1.392 . S
C534 C538 1.495 . S
C535 C534 1.392 . S
C535 C536 1.385 . S
C535 C537 1.478 . S
C536 H530 0.930 . S
C536 C532 1.400 . S
C536 C535 1.385 . S
C537 C535 1.478 . S
C537 C539 1.381 . S
C537 C543 1.383 . S
C538 C534 1.495 . S
C538 H544 0.959 . S
C538 H545 0.961 . S
C538 H546 0.960 . S
C539 C537 1.381 . S
C539 C540 1.394 . S
C539 H547 0.930 . S
C540 C539 1.394 . S
C540 C541 1.383 . S
C540 H548 0.929 . S
C541 C540 1.383 . S
C541 C542 1.377 1_565 S
C542 H526 0.930 . S
C542 C541 1.377 1_545 S
C542 C543 1.379 1_545 S
C543 H527 0.931 . S
C543 C537 1.383 . S
C543 C542 1.379 1_565 S
H544 C538 0.959 . S
H545 C538 0.961 . S
H546 C538 0.960 . S
H547 C539 0.930 . S
H548 C540 0.929 . S
H549 C557 0.929 . S
H550 C559 0.930 . S
H551 C561 0.930 . S
H552 C564 0.929 . S
H553 C567 0.930 . S
H554 C569 0.960 . S
H555 C569 0.960 . S
H556 C569 0.960 . S
C557 H549 0.929 . S
C557 C558 1.377 . S
C557 C559 1.384 . S
C558 C557 1.377 . S
C558 C564 1.390 . S
C559 H550 0.930 . S
C559 C557 1.384 . S
C559 C560 1.372 . S
C560 C559 1.372 . S
C560 C561 1.400 . S
C560 C565 1.490 . S
C561 H551 0.930 . S
C561 C560 1.400 . S
C561 C564 1.386 . S
H562 C578 0.930 . S
H563 C579 0.931 . S
C564 H552 0.929 . S
C564 C558 1.390 . S
C564 C561 1.386 . S
C565 C560 1.490 . S
C565 C567 1.395 . S
C565 C568 1.403 . S
H566 C572 0.930 . S
C567 H553 0.930 . S
C567 C565 1.395 . S
C567 C570 1.403 . S
C568 C565 1.403 . S
C568 C569 1.524 . S
C568 C572 1.400 . S
C569 H554 0.960 . S
C569 H555 0.960 . S
C569 H556 0.960 . S
C569 C568 1.524 . S
C570 C567 1.403 . S
C570 C571 1.392 . S
C570 C574 1.495 . S
C571 C570 1.392 . S
C571 C572 1.385 . S
C571 C573 1.478 . S
C572 H566 0.930 . S
C572 C568 1.400 . S
C572 C571 1.385 . S
C573 C571 1.478 . S
C573 C575 1.381 . S
C573 C579 1.383 . S
C574 C570 1.495 . S
C574 H580 0.959 . S
C574 H581 0.961 . S
C574 H582 0.960 . S
C575 C573 1.381 . S
C575 C576 1.394 . S
C575 H583 0.930 . S
C576 C575 1.394 . S
C576 C577 1.383 . S
C576 H584 0.929 . S
C577 C576 1.383 . S
C577 C578 1.377 . S
C578 H562 0.930 . S
C578 C577 1.377 . S
C578 C579 1.379 . S
C579 H563 0.931 . S
C579 C573 1.383 . S
C579 C578 1.379 . S
H580 C574 0.959 . S
H581 C574 0.961 . S
H582 C574 0.960 . S
H583 C575 0.930 . S
H584 C576 0.929 . S
H585 C593 0.929 . S
H586 C595 0.930 . S
H587 C597 0.930 . S
H588 C600 0.929 1_455 S
H589 C603 0.930 . S
H590 C605 0.960 . S
H591 C605 0.960 . S
H592 C605 0.960 . S
C593 H585 0.929 . S
C593 C594 1.377 . S
C593 C595 1.384 . S
C594 C593 1.377 . S
C594 C600 1.390 . S
C595 H586 0.930 . S
C595 C593 1.384 . S
C595 C596 1.372 . S
C596 C595 1.372 . S
C596 C597 1.400 . S
C596 C601 1.490 . S
C597 H587 0.930 . S
C597 C596 1.400 . S
C597 C600 1.386 . S
H598 C614 0.930 . S
H599 C615 0.931 . S
C600 H588 0.929 1_655 S
C600 C594 1.390 . S
C600 C597 1.386 . S
C601 C596 1.490 . S
C601 C603 1.395 . S
C601 C604 1.403 . S
H602 C608 0.930 . S
C603 H589 0.930 . S
C603 C601 1.395 . S
C603 C606 1.403 . S
C604 C601 1.403 . S
C604 C605 1.524 . S
C604 C608 1.400 . S
C605 H590 0.960 . S
C605 H591 0.960 . S
C605 H592 0.960 . S
C605 C604 1.524 . S
C606 C603 1.403 . S
C606 C607 1.392 . S
C606 C610 1.495 . S
C607 C606 1.392 . S
C607 C608 1.385 . S
C607 C609 1.478 . S
C608 H602 0.930 . S
C608 C604 1.400 . S
C608 C607 1.385 . S
C609 C607 1.478 . S
C609 C611 1.381 . S
C609 C615 1.383 . S
C610 C606 1.495 . S
C610 H616 0.959 . S
C610 H617 0.961 . S
C610 H618 0.960 . S
C611 C609 1.381 . S
C611 C612 1.394 . S
C611 H619 0.930 . S
C612 C611 1.394 . S
C612 C613 1.383 . S
C612 H620 0.929 . S
C613 C612 1.383 . S
C613 C614 1.377 . S
C614 H598 0.930 . S
C614 C613 1.377 . S
C614 C615 1.379 . S
C615 H599 0.931 . S
C615 C609 1.383 . S
C615 C614 1.379 . S
H616 C610 0.959 . S
H617 C610 0.961 . S
H618 C610 0.960 . S
H619 C611 0.930 . S
H620 C612 0.929 . S
H621 C629 0.929 . S
H622 C631 0.930 . S
H623 C633 0.930 . S
H624 C636 0.929 . S
H625 C639 0.930 . S
H626 C641 0.960 . S
H627 C641 0.960 . S
H628 C641 0.960 . S
C629 H621 0.929 . S
C629 C630 1.377 . S
C629 C631 1.384 . S
C630 C629 1.377 . S
C630 C636 1.390 . S
C631 H622 0.930 . S
C631 C629 1.384 . S
C631 C632 1.372 . S
C632 C631 1.372 . S
C632 C633 1.400 . S
C632 C637 1.490 . S
C633 H623 0.930 . S
C633 C632 1.400 . S
C633 C636 1.386 . S
H634 C650 0.930 . S
H635 C651 0.931 . S
C636 H624 0.929 . S
C636 C630 1.390 . S
C636 C633 1.386 . S
C637 C632 1.490 . S
C637 C639 1.395 . S
C637 C640 1.403 . S
H638 C644 0.930 . S
C639 H625 0.930 . S
C639 C637 1.395 . S
C639 C642 1.403 . S
C640 C637 1.403 . S
C640 C641 1.524 . S
C640 C644 1.400 . S
C641 H626 0.960 . S
C641 H627 0.960 . S
C641 H628 0.960 . S
C641 C640 1.524 . S
C642 C639 1.403 . S
C642 C643 1.392 . S
C642 C646 1.495 . S
C643 C642 1.392 . S
C643 C644 1.385 . S
C643 C645 1.478 . S
C644 H638 0.930 . S
C644 C640 1.400 . S
C644 C643 1.385 . S
C645 C643 1.478 . S
C645 C647 1.381 . S
C645 C651 1.383 . S
C646 C642 1.495 . S
C646 H652 0.959 . S
C646 H653 0.961 . S
C646 H654 0.960 . S
C647 C645 1.381 . S
C647 C648 1.394 . S
C647 H655 0.930 . S
C648 C647 1.394 . S
C648 C649 1.383 . S
C648 H656 0.929 . S
C649 C648 1.383 . S
C649 C650 1.377 . S
C650 H634 0.930 . S
C650 C649 1.377 . S
C650 C651 1.379 . S
C651 H635 0.931 . S
C651 C645 1.383 . S
C651 C650 1.379 . S
H652 C646 0.959 . S
H653 C646 0.961 . S
H654 C646 0.960 . S
H655 C647 0.930 . S
H656 C648 0.929 . S
H657 C665 0.929 . S
H658 C667 0.930 . S
H659 C669 0.930 . S
H660 C672 0.929 . S
H661 C675 0.930 . S
H662 C677 0.960 . S
H663 C677 0.960 . S
H664 C677 0.960 . S
C665 H657 0.929 . S
C665 C666 1.377 . S
C665 C667 1.384 . S
C666 C665 1.377 . S
C666 C672 1.390 . S
C667 H658 0.930 . S
C667 C665 1.384 . S
C667 C668 1.372 . S
C668 C667 1.372 . S
C668 C669 1.400 . S
C668 C673 1.490 . S
C669 H659 0.930 . S
C669 C668 1.400 . S
C669 C672 1.386 . S
H670 C686 0.930 . S
H671 C687 0.931 . S
C672 H660 0.929 . S
C672 C666 1.390 . S
C672 C669 1.386 . S
C673 C668 1.490 . S
C673 C675 1.395 . S
C673 C676 1.403 . S
H674 C680 0.930 . S
C675 H661 0.930 . S
C675 C673 1.395 . S
C675 C678 1.403 1_455 S
C676 C673 1.403 . S
C676 C677 1.524 . S
C676 C680 1.400 . S
C677 H662 0.960 . S
C677 H663 0.960 . S
C677 H664 0.960 . S
C677 C676 1.524 . S
C678 C675 1.403 1_655 S
C678 C679 1.392 . S
C678 C682 1.495 . S
C679 C678 1.392 . S
C679 C680 1.385 1_655 S
C679 C681 1.478 . S
C680 H674 0.930 . S
C680 C676 1.400 . S
C680 C679 1.385 1_455 S
C681 C679 1.478 . S
C681 C683 1.381 . S
C681 C687 1.383 . S
C682 C678 1.495 . S
C682 H688 0.959 . S
C682 H689 0.961 . S
C682 H690 0.960 . S
C683 C681 1.381 . S
C683 C684 1.394 . S
C683 H691 0.930 . S
C684 C683 1.394 . S
C684 C685 1.383 . S
C684 H692 0.929 . S
C685 C684 1.383 . S
C685 C686 1.377 . S
C686 H670 0.930 . S
C686 C685 1.377 . S
C686 C687 1.379 . S
C687 H671 0.931 . S
C687 C681 1.383 . S
C687 C686 1.379 . S
H688 C682 0.959 . S
H689 C682 0.961 . S
H690 C682 0.960 . S
H691 C683 0.930 . S
H692 C684 0.929 . S
H693 C701 0.929 . S
H694 C703 0.930 . S
H695 C705 0.930 . S
H696 C708 0.929 . S
H697 C711 0.930 . S
H698 C713 0.960 . S
H699 C713 0.960 . S
H700 C713 0.960 . S
C701 H693 0.929 . S
C701 C702 1.377 . S
C701 C703 1.384 . S
C702 C701 1.377 . S
C702 C708 1.390 . S
C703 H694 0.930 . S
C703 C701 1.384 . S
C703 C704 1.372 . S
C704 C703 1.372 . S
C704 C705 1.400 . S
C704 C709 1.490 . S
C705 H695 0.930 . S
C705 C704 1.400 . S
C705 C708 1.386 . S
H706 C722 0.930 . S
H707 C723 0.931 . S
C708 H696 0.929 . S
C708 C702 1.390 . S
C708 C705 1.386 . S
C709 C704 1.490 . S
C709 C711 1.395 . S
C709 C712 1.403 . S
H710 C716 0.930 . S
C711 H697 0.930 . S
C711 C709 1.395 . S
C711 C714 1.403 . S
C712 C709 1.403 . S
C712 C713 1.524 . S
C712 C716 1.400 . S
C713 H698 0.960 . S
C713 H699 0.960 . S
C713 H700 0.960 . S
C713 C712 1.524 . S
C714 C711 1.403 . S
C714 C715 1.392 . S
C714 C718 1.495 . S
C715 C714 1.392 . S
C715 C716 1.385 . S
C715 C717 1.478 . S
C716 H710 0.930 . S
C716 C712 1.400 . S
C716 C715 1.385 . S
C717 C715 1.478 . S
C717 C719 1.381 . S
C717 C723 1.383 . S
C718 C714 1.495 . S
C718 H724 0.959 . S
C718 H725 0.961 . S
C718 H726 0.960 . S
C719 C717 1.381 . S
C719 C720 1.394 . S
C719 H727 0.930 . S
C720 C719 1.394 . S
C720 C721 1.383 . S
C720 H728 0.929 . S
C721 C720 1.383 . S
C721 C722 1.377 . S
C722 H706 0.930 . S
C722 C721 1.377 . S
C722 C723 1.379 . S
C723 H707 0.931 . S
C723 C717 1.383 . S
C723 C722 1.379 . S
H724 C718 0.959 . S
H725 C718 0.961 . S
H726 C718 0.960 . S
H727 C719 0.930 . S
H728 C720 0.929 . S
H729 C737 0.929 . S
H730 C739 0.930 . S
H731 C741 0.930 . S
H732 C744 0.929 . S
H733 C747 0.881 1_565 S
H734 C749 0.960 . S
H735 C749 0.960 . S
H736 C749 0.960 . S
C737 H729 0.929 . S
C737 C738 1.377 . S
C737 C739 1.384 . S
C738 C737 1.377 . S
C738 C744 1.390 . S
C739 H730 0.930 . S
C739 C737 1.384 . S
C739 C740 1.372 . S
C740 C739 1.372 . S
C740 C741 1.400 . S
C740 C745 1.490 1_565 S
C741 H731 0.930 . S
C741 C740 1.400 . S
C741 C744 1.386 . S
H742 C758 0.930 . S
H743 C759 0.931 . S
C744 H732 0.929 . S
C744 C738 1.390 . S
C744 C741 1.386 . S
C745 C740 1.490 1_545 S
C745 C747 1.410 . S
C745 C748 1.403 . S
H746 C752 0.930 . S
C747 H733 0.881 1_545 S
C747 C745 1.410 . S
C747 C750 1.437 . S
C748 C745 1.403 . S
C748 C749 1.524 . S
C748 C752 1.400 . S
C749 H734 0.960 . S
C749 H735 0.960 . S
C749 H736 0.960 . S
C749 C748 1.524 . S
C750 C747 1.437 . S
C750 C751 1.392 . S
C750 C754 1.495 . S
C751 C750 1.392 . S
C751 C752 1.385 . S
C751 C753 1.478 . S
C752 H746 0.930 . S
C752 C748 1.400 . S
C752 C751 1.385 . S
C753 C751 1.478 . S
C753 C755 1.381 . S
C753 C759 1.383 . S
C754 C750 1.495 . S
C754 H760 0.959 . S
C754 H761 0.961 . S
C754 H762 0.960 . S
C755 C753 1.381 . S
C755 C756 1.394 . S
C755 H763 0.930 . S
C756 C755 1.394 . S
C756 C757 1.383 . S
C756 H764 0.929 . S
C757 C756 1.383 . S
C757 C758 1.377 . S
C758 H742 0.930 . S
C758 C757 1.377 . S
C758 C759 1.379 . S
C759 H743 0.931 . S
C759 C753 1.383 . S
C759 C758 1.379 . S
H760 C754 0.959 . S
H761 C754 0.961 . S
H762 C754 0.960 . S
H763 C755 0.930 . S
H764 C756 0.929 . S
C126 C31 0.966 . S
C145 C5 0.991 . S
C162 C18 0.970 . S
C181 C3 0.967 . S
C198 C16 0.975 . S
C217 C29 0.946 . S
C234 C70 0.974 . S
C253 C44 0.950 . S
C270 C57 0.971 . S
C289 C42 0.971 . S
C306 C55 0.974 . S
C325 C68 0.953 . S
C342 C83 0.966 . S
C361 C109 0.992 . S
C378 C81 0.967 . S
C397 C96 0.984 . S
C414 C94 0.968 . S
C433 C107 0.986 . S
C450 C10 1.392 . S
C469 C95 1.387 . S
C486 C23 1.392 . S
C505 C114 1.386 . S
C522 C82 1.392 . S
C541 C30 1.387 1_565 S
C558 C62 1.392 . S
C577 C36 1.390 . S
C594 C4 1.361 1_655 S
C613 C69 1.386 . S
C630 C49 1.392 . S
C649 C17 1.386 . S
C666 C101 1.393 . S
C685 C75 1.393 . S
C702 C43 1.392 . S
C721 C108 1.389 . S
C738 C88 1.392 . S
C757 C56 1.386 . S
