# Generated by pormake.
# Topology afw, (4)-cn, num edge types: 1
# Building blocks:
#     Node 0, Type 0, BuildingBlock: TATPOV_clean_sbu_0, # of connection points: 4
#     Node 1, Type 0, BuildingBlock: TATPOV_clean_sbu_0, # of connection points: 4
#     Node 2, Type 0, BuildingBlock: TATPOV_clean_sbu_0, # of connection points: 4
#     Node 3, Type 0, BuildingBlock: TATPOV_clean_sbu_0, # of connection points: 4
#     Node 4, Type 0, BuildingBlock: TATPOV_clean_sbu_0, # of connection points: 4
#     Node 5, Type 0, BuildingBlock: TATPOV_clean_sbu_0, # of connection points: 4
#     Node 6, Type 0, BuildingBlock: TATPOV_clean_sbu_0, # of connection points: 4
#     Node 7, Type 0, BuildingBlock: TATPOV_clean_sbu_0, # of connection points: 4
#     Node 8, Type 0, BuildingBlock: TATPOV_clean_sbu_0, # of connection points: 4
#     Edge 9, Type (0, 0), BuildingBlock: AJUNOK_clean_linker_0, # of connection points: 2
#     Edge 10, Type (0, 0), BuildingBlock: AJUNOK_clean_linker_0, # of connection points: 2
#     Edge 11, Type (0, 0), BuildingBlock: AJUNOK_clean_linker_0, # of connection points: 2
#     Edge 12, Type (0, 0), BuildingBlock: AJUNOK_clean_linker_0, # of connection points: 2
#     Edge 13, Type (0, 0), BuildingBlock: AJUNOK_clean_linker_0, # of connection points: 2
#     Edge 14, Type (0, 0), BuildingBlock: AJUNOK_clean_linker_0, # of connection points: 2
#     Edge 15, Type (0, 0), BuildingBlock: AJUNOK_clean_linker_0, # of connection points: 2
#     Edge 16, Type (0, 0), BuildingBlock: AJUNOK_clean_linker_0, # of connection points: 2
#     Edge 17, Type (0, 0), BuildingBlock: AJUNOK_clean_linker_0, # of connection points: 2
#     Edge 18, Type (0, 0), BuildingBlock: AJUNOK_clean_linker_0, # of connection points: 2
#     Edge 19, Type (0, 0), BuildingBlock: AJUNOK_clean_linker_0, # of connection points: 2
#     Edge 20, Type (0, 0), BuildingBlock: AJUNOK_clean_linker_0, # of connection points: 2
#     Edge 21, Type (0, 0), BuildingBlock: AJUNOK_clean_linker_0, # of connection points: 2
#     Edge 22, Type (0, 0), BuildingBlock: AJUNOK_clean_linker_0, # of connection points: 2
#     Edge 23, Type (0, 0), BuildingBlock: AJUNOK_clean_linker_0, # of connection points: 2
#     Edge 24, Type (0, 0), BuildingBlock: AJUNOK_clean_linker_0, # of connection points: 2
#     Edge 25, Type (0, 0), BuildingBlock: AJUNOK_clean_linker_0, # of connection points: 2
#     Edge 26, Type (0, 0), BuildingBlock: AJUNOK_clean_linker_0, # of connection points: 2
# Relax obj value: 0.186
# Max RMSD: 0.226
# Mean RMSD: 0.217
data_MOF--net-afw--node1-TATPOV_clean_sbu_0--edge1-AJUNOK_clean_linker_0
_symmetry_space_group_name_H-M    P1
_symmetry_Int_Tables_number       1
_symmetry_cell_setting            triclinic
loop_
_symmetry_equiv_pos_as_xyz
'x, y, z'
_cell_length_a     30.840188
_cell_length_b     28.907254
_cell_length_c     26.64682
_cell_angle_alpha  89.36347
_cell_angle_beta   90.133164
_cell_angle_gamma 120.68748
loop_
_atom_site_label
_atom_site_type_symbol
_atom_site_fract_x
_atom_site_fract_y
_atom_site_fract_z
_atom_type_partial_charge
Zn0 Zn 0.00953 0.20716 0.0925 0.0
Zn1 Zn 0.04836 0.25833 0.00747 0.0
O2 O 0.10296 0.24101 0.03008 0.0
O3 O 0.06971 0.19989 0.10204 0.0
O4 O 0.07407 0.30195 0.94337 0.0
O5 O 0.00924 0.26825 0.12427 0.0
O6 O 0.03796 0.31033 0.05195 0.0
C7 C 0.10474 0.21694 0.06979 0.0
C8 C 0.94851 0.1499 0.00891 0.0
O9 O 0.98458 0.18904 0.98505 0.0
O10 O 0.94877 0.14908 0.05642 0.0
C11 C 0.04384 0.3106 0.91797 0.0
O12 O -0.00304 0.28908 0.93344 0.0
C13 C 0.02362 0.30954 0.09694 0.0
Zn14 Zn 0.85535 0.85578 0.87998 0.0
Zn15 Zn 0.79746 0.82251 0.96506 0.0
O16 O 0.85784 0.81643 0.98585 0.0
O17 O 0.90439 0.84017 0.91738 0.0
O18 O 0.74942 0.79173 0.02332 0.0
O19 O 0.79796 0.79764 0.83916 0.0
O20 O 0.75431 0.7732 0.9093 0.0
C21 C 0.89748 0.8249 0.96298 0.0
C22 C 0.84277 0.93845 0.9287 0.0
O23 O 0.81633 0.90065 0.95979 0.0
O24 O 0.86227 0.92937 0.89096 0.0
C25 C 0.7526 0.81247 0.06598 0.0
O26 O 0.79134 0.86025 0.07577 0.0
C27 C 0.75756 0.76646 0.86269 0.0
Zn28 Zn 0.13178 0.9696 0.15827 0.0
Zn29 Zn 0.18774 0.98279 0.07616 0.0
O30 O 0.11756 0.92142 0.05702 0.0
O31 O 0.07123 0.90843 0.12415 0.0
O32 O 0.23217 0.9876 0.01878 0.0
O33 O 0.17624 0.95692 0.20469 0.0
O34 O 0.22309 0.97305 0.1374 0.0
C35 C 0.07505 0.89652 0.07942 0.0
C36 C 0.17302 0.07385 0.10553 0.0
O37 O 0.19038 0.05444 0.07425 0.0
O38 O 0.14881 0.04659 0.14395 0.0
C39 C 0.23261 1.00604 0.97507 0.0
O40 O 0.20195 0.02385 0.96492 0.0
C41 C 0.2159 0.96313 0.1844 0.0
Zn42 Zn 0.62501 0.54871 0.22258 0.0
Zn43 Zn 0.63875 0.59001 0.30741 0.0
O44 O 0.57878 0.51025 0.31542 0.0
O45 O 0.56579 0.4771 0.2396 0.0
O46 O 0.63605 0.62447 0.37134 0.0
O47 O 0.61691 0.60181 0.18249 0.0
O48 O 0.64552 0.64584 0.25267 0.0
C49 C 0.55477 0.47078 0.28575 0.0
C50 C 0.72135 0.57702 0.27157 0.0
O51 O 0.70403 0.5891 0.30926 0.0
O52 O 0.69591 0.56113 0.2314 0.0
C53 C 0.62924 0.59906 0.41245 0.0
O54 O 0.62736 0.55264 0.41219 0.0
C55 C 0.63506 0.64534 0.20622 0.0
Zn56 Zn 0.48804 0.1697 0.25956 0.0
Zn57 Zn 0.48048 0.15124 0.35363 0.0
O58 O 0.55248 0.16688 0.33496 0.0
O59 O 0.55663 0.18151 0.25353 0.0
O60 O 0.47285 0.1242 0.42547 0.0
O61 O 0.43177 0.09986 0.23886 0.0
O62 O 0.4174 0.08658 0.31991 0.0
C63 C 0.57675 0.17802 0.29358 0.0
C64 C 0.47791 0.24895 0.31552 0.0
O65 O 0.47966 0.22281 0.35369 0.0
O66 O 0.47828 0.23246 0.27175 0.0
C67 C 0.43165 0.10299 0.45005 0.0
O68 O 0.39264 0.10304 0.4302 0.0
C69 C 0.40464 0.07092 0.27483 0.0
Zn70 Zn 0.844 0.41121 0.19428 0.0
Zn71 Zn 0.88219 0.41645 0.28429 0.0
O72 O 0.86921 0.47951 0.28731 0.0
O73 O 0.8398 0.47603 0.2112 0.0
O74 O 0.92069 0.42067 0.34635 0.0
O75 O 0.90235 0.41954 0.15518 0.0
O76 O 0.93055 0.41737 0.23028 0.0
C77 C 0.85176 0.49754 0.254 0.0
C78 C 0.78304 0.31805 0.25894 0.0
O79 O 0.81637 0.34495 0.29164 0.0
O80 O 0.7872 0.33673 0.21479 0.0
C81 C 0.90385 0.40088 0.3897 0.0
O82 O 0.85522 0.3766 0.39886 0.0
C83 C 0.93564 0.41935 0.18268 0.0
Zn84 Zn 0.33321 0.85368 0.80171 0.0
Zn85 Zn 0.34893 0.91343 0.7227 0.0
O86 O 0.40871 0.89879 0.72559 0.0
O87 O 0.3975 0.85421 0.79632 0.0
O88 O 0.36569 0.96498 0.66296 0.0
O89 O 0.3276 0.90216 0.84867 0.0
O90 O 0.33465 0.95141 0.78216 0.0
C91 C 0.42273 0.87516 0.75671 0.0
C92 C 0.25982 0.79904 0.72414 0.0
O93 O 0.28597 0.84366 0.70074 0.0
O94 O 0.27142 0.79383 0.76863 0.0
C95 C 0.39629 0.96928 0.62866 0.0
O96 O 0.4166 0.93898 0.63132 0.0
C97 C 0.32778 0.94234 0.82942 0.0
Zn98 Zn 0.16438 0.52597 0.55477 0.0
Zn99 Zn 0.1105 0.4754 0.63681 0.0
O100 O 0.17339 0.4678 0.63625 0.0
O101 O 0.21725 0.50636 0.56805 0.0
O102 O 0.07728 0.43316 0.70039 0.0
O103 O 0.10415 0.48016 0.51275 0.0
O104 O 0.05747 0.44222 0.58009 0.0
C105 C 0.21193 0.4813 0.6089 0.0
C106 C 0.15524 0.59604 0.6262 0.0
O107 O 0.12979 0.55277 0.65173 0.0
O108 O 0.17341 0.5949 0.58393 0.0
C109 C 0.1065 0.44667 0.73814 0.0
O110 O 0.15199 0.4891 0.73407 0.0
C111 C 0.06163 0.44854 0.53251 0.0
Zn112 Zn 0.47072 0.62894 0.76677 0.0
Zn113 Zn 0.5089 0.65291 0.67512 0.0
O114 O 0.43799 0.58705 0.67116 0.0
O115 O 0.40478 0.56335 0.7463 0.0
O116 O 0.53467 0.64844 0.60778 0.0
O117 O 0.5285 0.62357 0.79517 0.0
O118 O 0.56295 0.6556 0.72153 0.0
C119 C 0.40119 0.5557 0.69944 0.0
C120 C 0.49477 0.73566 0.72209 0.0
O121 O 0.50638 0.72176 0.68139 0.0
O122 O 0.48015 0.70433 0.76014 0.0
C123 C 0.57803 0.67806 0.58852 0.0
O124 O 0.61109 0.72261 0.61079 0.0
C125 C 0.56656 0.64266 0.76645 0.0
C126 C 0.16789 0.15237 0.13397 0.0
C127 C 0.1741 0.12461 0.09431 0.0
C128 C 0.15217 0.18924 0.1249 0.0
C129 C 0.14167 0.19927 0.0759 0.0
H130 H 0.17105 0.14223 0.17255 0.0
H131 H 0.14327 0.20582 0.15685 0.0
S132 S 0.16354 0.14659 0.95846 0.0
N133 N 0.17796 0.11728 0.0037 0.0
N134 N 0.14755 0.1863 0.98677 0.0
C135 C 0.15445 0.17756 0.03557 0.0
C136 C 0.17081 0.14006 0.04479 0.0
C137 C 0.8987 0.03768 0.91511 0.0
C138 C 0.85878 0.9948 0.94181 0.0
C139 C 0.92464 0.08972 0.93478 0.0
C140 C 0.91172 0.10072 0.98194 0.0
H141 H 0.91273 0.0304 0.88067 0.0
H142 H 0.95765 0.12024 0.91479 0.0
S143 S 0.80164 1.00623 0.06015 0.0
N144 N 0.80111 0.9696 0.0128 0.0
N145 N 0.85021 0.06726 0.04986 0.0
C146 C 0.8681 0.05988 0.00594 0.0
C147 C 0.8415 1.00694 0.98582 0.0
C148 C -0.01277 0.84802 0.96875 0.0
C149 C 0.93966 0.82684 0.9918 0.0
C150 C 0.03089 0.86538 0.99736 0.0
C151 C 0.02865 0.86232 0.05013 0.0
H152 H -0.00846 0.8553 0.9286 0.0
H153 H 0.06688 0.88544 0.978 0.0
S154 S 0.91202 0.79575 0.12765 0.0
N155 N 0.89189 0.79308 0.0697 0.0
N156 N 0.97402 0.82587 0.12346 0.0
C157 C 0.98078 0.83474 0.07312 0.0
C158 C 0.93624 0.81694 0.04394 0.0
C159 C 0.83004 0.56529 0.22702 0.0
C160 C 0.83558 0.53607 0.26653 0.0
C161 C 0.79659 0.58415 0.23106 0.0
C162 C 0.76799 0.57493 0.2749 0.0
H163 H 0.84779 0.5689 0.19098 0.0
H164 H 0.78988 0.60193 0.19813 0.0
S165 S 0.77743 0.51175 0.39296 0.0
N166 N 0.8166 0.50727 0.35388 0.0
N167 N 0.75384 0.54346 0.3616 0.0
C168 C 0.7784 0.55261 0.31704 0.0
C169 C 0.81242 0.53304 0.31285 0.0
C170 C 0.4666 0.32177 0.27961 0.0
C171 C 0.48313 0.30273 0.31984 0.0
C172 C 0.48551 0.37682 0.27219 0.0
C173 C 0.52154 0.41508 0.30482 0.0
H174 H 0.4422 0.29432 0.2511 0.0
H175 H 0.47516 0.38972 0.23819 0.0
S176 S 0.56889 0.38553 0.42178 0.0
N177 N 0.53117 0.32581 0.39733 0.0
N178 N 0.56658 0.42958 0.38353 0.0
C179 C 0.53336 0.39626 0.34874 0.0
C180 C 0.51414 0.33989 0.35624 0.0
C181 C 0.66257 0.23121 0.33031 0.0
C182 C 0.63117 0.19731 0.29221 0.0
C183 C 0.7141 0.26684 0.32122 0.0
C184 C 0.73533 0.26947 0.27379 0.0
H185 H 0.64648 0.23444 0.36526 0.0
H186 H 0.73601 0.29602 0.3497 0.0
S187 S 0.67194 0.17807 0.16728 0.0
N188 N 0.62706 0.16015 0.20975 0.0
N189 N 0.72369 0.22735 0.19259 0.0
C190 C 0.70575 0.23067 0.23813 0.0
C191 C 0.65361 0.19436 0.24744 0.0
C192 C 0.45613 0.83774 0.69422 0.0
C193 C 0.45947 0.85931 0.7422 0.0
C194 C 0.47287 0.8014 0.68584 0.0
C195 C 0.49335 0.78588 0.72525 0.0
H196 H 0.43544 0.84403 0.66465 0.0
H197 H 0.46507 0.78144 0.64998 0.0
S198 S 0.52296 0.84271 0.85324 0.0
N199 N 0.49417 0.87131 0.8261 0.0
N200 N 0.52576 0.80343 0.81043 0.0
C201 C 0.50306 0.8129 0.77111 0.0
C202 C 0.48618 0.84972 0.77954 0.0
C203 C 0.19278 0.70205 0.72509 0.0
C204 C 0.22174 0.75022 0.69756 0.0
C205 C 0.16742 0.65226 0.70121 0.0
C206 C 0.17019 0.64869 0.64887 0.0
H207 H 0.19243 0.7023 0.76574 0.0
H208 H 0.14877 0.61623 0.72442 0.0
S209 S 0.23053 0.7635 0.55868 0.0
N210 N 0.24397 0.79178 0.61443 0.0
N211 N 0.1962 0.69809 0.56949 0.0
C212 C 0.1941 0.69684 0.62048 0.0
C213 C 0.21982 0.74767 0.64484 0.0
C214 C 0.26028 0.47909 0.6831 0.0
C215 C 0.2558 0.48033 0.63054 0.0
C216 C 0.30738 0.4981 0.70572 0.0
C217 C 0.35151 0.51856 0.6765 0.0
H218 H 0.22826 0.46854 0.70722 0.0
H219 H 0.30956 0.50131 0.74622 0.0
S220 S 0.35706 0.51281 0.53764 0.0
N221 N 0.2972 0.49095 0.55016 0.0
N222 N 0.38565 0.52578 0.59253 0.0
C223 C 0.34619 0.51188 0.62411 0.0
C224 C 0.29829 0.49295 0.60112 0.0
C225 C 0.02526 0.3444 0.83855 0.0
C226 C 0.061 0.34539 0.87226 0.0
C227 C 0.04017 0.37718 0.79532 0.0
C228 C 0.0914 0.41296 0.78448 0.0
H229 H -0.01469 0.31776 0.84533 0.0
H230 H 0.01126 0.37472 0.77041 0.0
S231 S 0.20014 0.43108 0.86044 0.0
N232 N 0.15009 0.38504 0.89151 0.0
N233 N 0.17809 0.44699 0.81083 0.0
C234 C 0.12758 0.41454 0.81796 0.0
C235 C 0.11241 0.38066 0.86163 0.0
C236 C 0.66837 0.69072 0.86397 0.0
C237 C 0.71209 0.72527 0.83604 0.0
C238 C 0.62185 0.65932 0.84052 0.0
C239 C 0.61709 0.66135 0.78816 0.0
H240 H 0.66928 0.69014 0.90461 0.0
H241 H 0.58889 0.63647 0.86412 0.0
S242 S 0.72215 0.73488 0.69705 0.0
N243 N 0.74932 0.75207 0.75259 0.0
N244 N 0.66173 0.69278 0.70836 0.0
C245 C 0.66146 0.69076 0.75937 0.0
C246 C 0.70901 0.72289 0.78334 0.0
C247 C 0.32587 0.97638 0.91367 0.0
C248 C 0.31384 0.97346 0.86244 0.0
C249 C 0.30164 0.99044 0.94935 0.0
C250 C 0.26418 1.00207 0.93534 0.0
H251 H 0.35207 0.9644 0.92674 0.0
H252 H 0.31061 0.98945 0.98854 0.0
S253 S 0.22435 1.00808 0.80495 0.0
N254 N 0.26646 0.98937 0.79857 0.0
N255 N 0.22071 0.01624 0.86575 0.0
C256 C 0.25505 1.00414 0.88371 0.0
C257 C 0.28001 0.98979 0.84719 0.0
C258 C 0.34834 1.00124 0.21487 0.0
C259 C 0.3547 0.02465 0.26234 0.0
C260 C 0.30109 0.97455 0.19197 0.0
C261 C 0.25861 0.97041 0.21578 0.0
H262 H 0.38086 1.0083 0.19311 0.0
H263 H 0.29895 0.96188 0.15347 0.0
S264 S 0.25309 0.01041 0.34655 0.0
N265 N 0.31324 0.03122 0.33704 0.0
N266 N 0.22388 0.98053 0.29423 0.0
C267 C 0.2631 0.98585 0.26645 0.0
C268 C 0.31148 0.01319 0.28978 0.0
C269 C 0.0177 0.35968 0.16874 0.0
C270 C 0.01747 0.3533 0.1165 0.0
C271 C -0.0035 0.38753 0.19008 0.0
C272 C 0.97363 0.40921 0.15983 0.0
H273 H 0.03075 0.33939 0.19358 0.0
H274 H -0.00624 0.38733 0.23062 0.0
S275 S 0.97596 0.4161 0.02055 0.0
N276 N 0.00246 0.38038 0.03468 0.0
N277 N 0.96208 0.43273 0.07475 0.0
C278 C 0.97952 0.40954 0.10737 0.0
C279 C 0.00161 0.38147 0.08563 0.0
C280 C 0.64026 0.6931 0.12632 0.0
C281 C 0.65543 0.69602 0.1766 0.0
C282 C 0.67012 0.73351 0.09152 0.0
C283 C 0.71614 0.7787 0.10565 0.0
H284 H 0.60722 0.65722 0.11268 0.0
H285 H 0.65859 0.72745 0.05255 0.0
S286 S 0.767 0.81174 0.23496 0.0
N287 N 0.71502 0.75233 0.24061 0.0
N288 N 0.77104 0.82864 0.17502 0.0
C289 C 0.72858 0.78549 0.15693 0.0
C290 C 0.69812 0.74407 0.19253 0.0
C291 C 0.02433 0.42212 0.44769 0.0
C292 C 0.01698 0.42499 0.49936 0.0
C293 C -0.01331 0.41226 0.41302 0.0
C294 C 0.93985 0.40449 0.42847 0.0
H295 H 0.06041 0.42998 0.43351 0.0
H296 H -0.00495 0.41228 0.37354 0.0
S297 S 0.89924 0.40205 0.55988 0.0
N298 N 0.95776 0.41484 0.56483 0.0
N299 N 0.88636 0.39556 0.49927 0.0
C300 C 0.93047 0.40339 0.48024 0.0
C301 C 0.96917 0.41373 0.51581 0.0
C302 C 0.63678 0.67433 0.46473 0.0
C303 C 0.61844 0.61898 0.45887 0.0
C304 C 0.62461 0.69363 0.50736 0.0
C305 C 0.59256 0.65803 0.54475 0.0
H306 H 0.66066 0.70293 0.43613 0.0
H307 H 0.63931 0.73645 0.51045 0.0
S308 S 0.53565 0.50966 0.548 0.0
N309 N 0.56793 0.52915 0.49495 0.0
N310 N 0.54418 0.56514 0.57423 0.0
C311 C 0.57444 0.60271 0.53958 0.0
C312 C 0.58764 0.58325 0.49686 0.0
C313 C 0.37428 0.02388 0.57132 0.0
C314 C 0.40787 1.00662 0.58521 0.0
C315 C 0.38287 0.05606 0.52829 0.0
C316 C 0.42581 0.07302 0.49782 0.0
H317 H 0.34027 0.0112 0.593 0.0
H318 H 0.35519 0.0671 0.51851 0.0
S319 S 0.52743 0.04206 0.52001 0.0
N320 N 0.4871 0.01115 0.56641 0.0
N321 N 0.50357 0.07191 0.48625 0.0
C322 C 0.46064 0.0576 0.5124 0.0
C323 C 0.45156 0.02433 0.55582 0.0
loop_
_geom_bond_atom_site_label_1
_geom_bond_atom_site_label_2
_geom_bond_distance
_geom_bond_site_symmetry_2
_ccdc_geom_bond_type
Zn0 O3 2.031 . S
Zn0 O5 2.049 1_455 S
Zn0 O10 2.067 1_455 S
Zn1 O2 1.963 . S
Zn1 O4 1.982 1_554 S
Zn1 O6 2.004 . S
Zn1 O9 1.941 1_454 S
O2 Zn1 1.963 . S
O2 C7 1.254 . S
O3 Zn0 2.031 . S
O3 C7 1.269 . S
O4 Zn1 1.982 1_556 S
O4 C11 1.262 . S
O5 Zn0 2.049 1_655 S
O5 C13 1.260 . S
O6 Zn1 2.004 . S
O6 C13 1.257 1_455 S
C7 O2 1.254 . S
C7 O3 1.269 . S
C8 O9 1.249 1_554 S
C8 O10 1.270 . S
O9 Zn1 1.941 1_656 S
O9 C8 1.249 1_556 S
O10 Zn0 2.067 1_655 S
O10 C8 1.270 . S
C11 O4 1.262 . S
C11 O12 1.232 . S
O12 C11 1.232 . S
C13 O5 1.260 . S
C13 O6 1.257 1_655 S
Zn14 O17 2.031 . S
Zn14 O19 2.049 . S
Zn14 O24 2.067 . S
Zn15 O16 1.962 . S
Zn15 O18 1.986 . S
Zn15 O20 1.996 1_554 S
Zn15 O23 1.943 . S
O16 Zn15 1.962 . S
O16 C21 1.254 1_554 S
O17 Zn14 2.031 . S
O17 C21 1.269 . S
O18 Zn15 1.986 . S
O18 C25 1.262 . S
O19 Zn14 2.049 . S
O19 C27 1.260 . S
O20 Zn15 1.996 1_556 S
O20 C27 1.257 . S
C21 O16 1.254 1_556 S
C21 O17 1.269 . S
C22 O23 1.249 . S
C22 O24 1.270 1_554 S
O23 Zn15 1.943 . S
O23 C22 1.249 . S
O24 Zn14 2.067 . S
O24 C22 1.270 1_556 S
C25 O18 1.262 . S
C25 O26 1.232 . S
O26 C25 1.232 . S
C27 O19 1.260 . S
C27 O20 1.257 . S
Zn28 O31 2.031 1_545 S
Zn28 O33 2.049 . S
Zn28 O38 2.067 . S
Zn29 O30 1.973 1_556 S
Zn29 O32 1.996 . S
Zn29 O34 1.997 1_566 S
Zn29 O37 1.920 1_565 S
O30 Zn29 1.973 1_554 S
O30 C35 1.254 . S
O31 Zn28 2.031 1_565 S
O31 C35 1.269 . S
O32 Zn29 1.996 . S
O32 C39 1.262 . S
O33 Zn28 2.049 . S
O33 C41 1.260 . S
O34 Zn29 1.997 1_544 S
O34 C41 1.257 . S
C35 O30 1.254 . S
C35 O31 1.269 . S
C36 O37 1.249 1_554 S
C36 O38 1.270 . S
O37 Zn29 1.920 1_545 S
O37 C36 1.249 1_556 S
O38 Zn28 2.067 . S
O38 C36 1.270 . S
C39 O32 1.262 . S
C39 O40 1.232 . S
O40 C39 1.232 . S
C41 O33 1.260 . S
C41 O34 1.257 . S
Zn42 O45 2.031 . S
Zn42 O47 2.049 . S
Zn42 O52 2.067 . S
Zn43 O44 1.962 . S
Zn43 O46 1.986 . S
Zn43 O48 1.996 . S
Zn43 O51 1.943 . S
O44 Zn43 1.962 . S
O44 C49 1.254 . S
O45 Zn42 2.031 . S
O45 C49 1.269 . S
O46 Zn43 1.986 . S
O46 C53 1.262 . S
O47 Zn42 2.049 . S
O47 C55 1.260 . S
O48 Zn43 1.996 . S
O48 C55 1.257 . S
C49 O44 1.254 . S
C49 O45 1.269 . S
C50 O51 1.249 . S
C50 O52 1.270 . S
O51 Zn43 1.943 . S
O51 C50 1.249 . S
O52 Zn42 2.067 . S
O52 C50 1.270 . S
C53 O46 1.262 . S
C53 O54 1.232 . S
O54 C53 1.232 . S
C55 O47 1.260 . S
C55 O48 1.257 . S
Zn56 O59 2.031 . S
Zn56 O61 2.049 . S
Zn56 O66 2.067 . S
Zn57 O58 1.962 . S
Zn57 O60 1.986 . S
Zn57 O62 1.996 . S
Zn57 O65 1.943 . S
O58 Zn57 1.962 . S
O58 C63 1.254 . S
O59 Zn56 2.031 . S
O59 C63 1.269 . S
O60 Zn57 1.986 . S
O60 C67 1.262 . S
O61 Zn56 2.049 . S
O61 C69 1.260 . S
O62 Zn57 1.996 . S
O62 C69 1.257 . S
C63 O58 1.254 . S
C63 O59 1.269 . S
C64 O65 1.249 . S
C64 O66 1.270 . S
O65 Zn57 1.943 . S
O65 C64 1.249 . S
O66 Zn56 2.067 . S
O66 C64 1.270 . S
C67 O60 1.262 . S
C67 O68 1.232 . S
O68 C67 1.232 . S
C69 O61 1.260 . S
C69 O62 1.257 . S
Zn70 O73 2.031 . S
Zn70 O75 2.049 . S
Zn70 O80 2.067 . S
Zn71 O72 1.962 . S
Zn71 O74 1.986 . S
Zn71 O76 1.996 . S
Zn71 O79 1.943 . S
O72 Zn71 1.962 . S
O72 C77 1.254 . S
O73 Zn70 2.031 . S
O73 C77 1.269 . S
O74 Zn71 1.986 . S
O74 C81 1.262 . S
O75 Zn70 2.049 . S
O75 C83 1.260 . S
O76 Zn71 1.996 . S
O76 C83 1.257 . S
C77 O72 1.254 . S
C77 O73 1.269 . S
C78 O79 1.249 . S
C78 O80 1.270 . S
O79 Zn71 1.943 . S
O79 C78 1.249 . S
O80 Zn70 2.067 . S
O80 C78 1.270 . S
C81 O74 1.262 . S
C81 O82 1.232 . S
O82 C81 1.232 . S
C83 O75 1.260 . S
C83 O76 1.257 . S
Zn84 O87 2.031 . S
Zn84 O89 2.049 . S
Zn84 O94 2.067 . S
Zn85 O86 1.962 . S
Zn85 O88 1.986 . S
Zn85 O90 1.996 . S
Zn85 O93 1.943 . S
O86 Zn85 1.962 . S
O86 C91 1.254 . S
O87 Zn84 2.031 . S
O87 C91 1.269 . S
O88 Zn85 1.986 . S
O88 C95 1.262 . S
O89 Zn84 2.049 . S
O89 C97 1.260 . S
O90 Zn85 1.996 . S
O90 C97 1.257 . S
C91 O86 1.254 . S
C91 O87 1.269 . S
C92 O93 1.249 . S
C92 O94 1.270 . S
O93 Zn85 1.943 . S
O93 C92 1.249 . S
O94 Zn84 2.067 . S
O94 C92 1.270 . S
C95 O88 1.262 . S
C95 O96 1.232 . S
O96 C95 1.232 . S
C97 O89 1.260 . S
C97 O90 1.257 . S
Zn98 O101 2.031 . S
Zn98 O103 2.049 . S
Zn98 O108 2.067 . S
Zn99 O100 1.962 . S
Zn99 O102 1.986 . S
Zn99 O104 1.996 . S
Zn99 O107 1.943 . S
O100 Zn99 1.962 . S
O100 C105 1.254 . S
O101 Zn98 2.031 . S
O101 C105 1.269 . S
O102 Zn99 1.986 . S
O102 C109 1.262 . S
O103 Zn98 2.049 . S
O103 C111 1.260 . S
O104 Zn99 1.996 . S
O104 C111 1.257 . S
C105 O100 1.254 . S
C105 O101 1.269 . S
C106 O107 1.249 . S
C106 O108 1.270 . S
O107 Zn99 1.943 . S
O107 C106 1.249 . S
O108 Zn98 2.067 . S
O108 C106 1.270 . S
C109 O102 1.262 . S
C109 O110 1.232 . S
O110 C109 1.232 . S
C111 O103 1.260 . S
C111 O104 1.257 . S
Zn112 O115 2.031 . S
Zn112 O117 2.049 . S
Zn112 O122 2.067 . S
Zn113 O114 1.962 . S
Zn113 O116 1.986 . S
Zn113 O118 1.996 . S
Zn113 O121 1.943 . S
O114 Zn113 1.962 . S
O114 C119 1.254 . S
O115 Zn112 2.031 . S
O115 C119 1.269 . S
O116 Zn113 1.986 . S
O116 C123 1.262 . S
O117 Zn112 2.049 . S
O117 C125 1.260 . S
O118 Zn113 1.996 . S
O118 C125 1.257 . S
C119 O114 1.254 . S
C119 O115 1.269 . S
C120 O121 1.249 . S
C120 O122 1.270 . S
O121 Zn113 1.943 . S
O121 C120 1.249 . S
O122 Zn112 2.067 . S
O122 C120 1.270 . S
C123 O116 1.262 . S
C123 O124 1.232 . S
O124 C123 1.232 . S
C125 O117 1.260 . S
C125 O118 1.257 . S
C126 C127 1.369 1_554 S
C126 C128 1.419 . S
C126 H130 0.930 . S
C127 C126 1.369 1_556 S
C127 C136 1.429 . S
C128 C126 1.419 . S
C128 C129 1.363 . S
C128 H131 0.929 . S
C129 C128 1.363 . S
C129 C135 1.428 1_554 S
H130 C126 0.930 . S
H131 C128 0.929 . S
S132 N133 1.613 . S
S132 N134 1.610 . S
N133 S132 1.613 . S
N133 C136 1.350 . S
N134 S132 1.610 . S
N134 C135 1.351 . S
C135 C129 1.428 1_556 S
C135 N134 1.351 . S
C135 C136 1.434 . S
C136 C127 1.429 . S
C136 N133 1.350 . S
C136 C135 1.434 . S
C137 C138 1.369 1_556 S
C137 C139 1.419 1_565 S
C137 H141 0.930 . S
C138 C137 1.369 1_554 S
C138 C147 1.429 . S
C139 C137 1.419 1_545 S
C139 C140 1.363 . S
C139 H142 0.929 . S
C140 C139 1.363 . S
C140 C146 1.429 1_556 S
H141 C137 0.930 . S
H142 C139 0.929 . S
S143 N144 1.613 1_545 S
S143 N145 1.610 . S
N144 S143 1.613 1_565 S
N144 C147 1.350 . S
N145 S143 1.610 . S
N145 C146 1.351 . S
C146 C140 1.429 1_554 S
C146 N145 1.351 . S
C146 C147 1.434 1_545 S
C147 C138 1.429 . S
C147 N144 1.350 . S
C147 C146 1.434 1_565 S
C148 C149 1.369 . S
C148 C150 1.419 1_656 S
C148 H152 0.930 . S
C149 C148 1.369 . S
C149 C158 1.429 1_556 S
C150 C148 1.419 1_454 S
C150 C151 1.363 . S
C150 H153 0.929 1_554 S
C151 C150 1.363 . S
C151 C157 1.428 . S
H152 C148 0.930 . S
H153 C150 0.929 1_556 S
S154 N155 1.613 1_445 S
S154 N156 1.610 1_545 S
N155 S154 1.613 1_665 S
N155 C158 1.350 . S
N156 S154 1.610 1_565 S
N156 C157 1.351 . S
C157 C151 1.428 . S
C157 N156 1.351 . S
C157 C158 1.434 1_455 S
C158 C149 1.429 1_554 S
C158 N155 1.350 . S
C158 C157 1.434 1_655 S
C159 C160 1.369 . S
C159 C161 1.419 . S
C159 H163 0.930 . S
C160 C159 1.369 . S
C160 C169 1.429 . S
C161 C159 1.419 . S
C161 C162 1.363 . S
C161 H164 0.929 . S
C162 C161 1.363 . S
C162 C168 1.428 . S
H163 C159 0.930 . S
H164 C161 0.929 . S
S165 N166 1.613 . S
S165 N167 1.610 . S
N166 S165 1.613 . S
N166 C169 1.350 . S
N167 S165 1.610 . S
N167 C168 1.351 . S
C168 C162 1.428 . S
C168 N167 1.351 . S
C168 C169 1.434 . S
C169 C160 1.429 . S
C169 N166 1.350 . S
C169 C168 1.434 . S
C170 C171 1.369 . S
C170 C172 1.419 . S
C170 H174 0.930 . S
C171 C170 1.369 . S
C171 C180 1.429 . S
C172 C170 1.419 . S
C172 C173 1.363 . S
C172 H175 0.929 . S
C173 C172 1.363 . S
C173 C179 1.428 . S
H174 C170 0.930 . S
H175 C172 0.929 . S
S176 N177 1.613 . S
S176 N178 1.610 . S
N177 S176 1.613 . S
N177 C180 1.350 . S
N178 S176 1.610 . S
N178 C179 1.351 . S
C179 C173 1.428 . S
C179 N178 1.351 . S
C179 C180 1.434 . S
C180 C171 1.429 . S
C180 N177 1.350 . S
C180 C179 1.434 . S
C181 C182 1.369 . S
C181 C183 1.419 . S
C181 H185 0.930 . S
C182 C181 1.369 . S
C182 C191 1.429 . S
C183 C181 1.419 . S
C183 C184 1.363 . S
C183 H186 0.929 . S
C184 C183 1.363 . S
C184 C190 1.428 . S
H185 C181 0.930 . S
H186 C183 0.929 . S
S187 N188 1.613 . S
S187 N189 1.610 . S
N188 S187 1.613 . S
N188 C191 1.350 . S
N189 S187 1.610 . S
N189 C190 1.351 . S
C190 C184 1.428 . S
C190 N189 1.351 . S
C190 C191 1.434 . S
C191 C182 1.429 . S
C191 N188 1.350 . S
C191 C190 1.434 . S
C192 C193 1.369 . S
C192 C194 1.419 . S
C192 H196 0.930 . S
C193 C192 1.369 . S
C193 C202 1.429 . S
C194 C192 1.419 . S
C194 C195 1.363 . S
C194 H197 0.929 . S
C195 C194 1.363 . S
C195 C201 1.428 . S
H196 C192 0.930 . S
H197 C194 0.929 . S
S198 N199 1.613 . S
S198 N200 1.610 . S
N199 S198 1.613 . S
N199 C202 1.350 . S
N200 S198 1.610 . S
N200 C201 1.351 . S
C201 C195 1.428 . S
C201 N200 1.351 . S
C201 C202 1.434 . S
C202 C193 1.429 . S
C202 N199 1.350 . S
C202 C201 1.434 . S
C203 C204 1.369 . S
C203 C205 1.419 . S
C203 H207 0.930 . S
C204 C203 1.369 . S
C204 C213 1.429 . S
C205 C203 1.419 . S
C205 C206 1.363 . S
C205 H208 0.929 . S
C206 C205 1.363 . S
C206 C212 1.428 . S
H207 C203 0.930 . S
H208 C205 0.929 . S
S209 N210 1.613 . S
S209 N211 1.610 . S
N210 S209 1.613 . S
N210 C213 1.350 . S
N211 S209 1.610 . S
N211 C212 1.351 . S
C212 C206 1.428 . S
C212 N211 1.351 . S
C212 C213 1.434 . S
C213 C204 1.429 . S
C213 N210 1.350 . S
C213 C212 1.434 . S
C214 C215 1.369 . S
C214 C216 1.419 . S
C214 H218 0.930 . S
C215 C214 1.369 . S
C215 C224 1.429 . S
C216 C214 1.419 . S
C216 C217 1.363 . S
C216 H219 0.929 . S
C217 C216 1.363 . S
C217 C223 1.428 . S
H218 C214 0.930 . S
H219 C216 0.929 . S
S220 N221 1.613 . S
S220 N222 1.610 . S
N221 S220 1.613 . S
N221 C224 1.350 . S
N222 S220 1.610 . S
N222 C223 1.351 . S
C223 C217 1.428 . S
C223 N222 1.351 . S
C223 C224 1.434 . S
C224 C215 1.429 . S
C224 N221 1.350 . S
C224 C223 1.434 . S
C225 C226 1.369 . S
C225 C227 1.419 . S
C225 H229 0.930 1_455 S
C226 C225 1.369 . S
C226 C235 1.429 . S
C227 C225 1.419 . S
C227 C228 1.363 . S
C227 H230 0.929 . S
C228 C227 1.363 . S
C228 C234 1.428 . S
H229 C225 0.930 1_655 S
H230 C227 0.929 . S
S231 N232 1.613 . S
S231 N233 1.610 . S
N232 S231 1.613 . S
N232 C235 1.350 . S
N233 S231 1.610 . S
N233 C234 1.351 . S
C234 C228 1.428 . S
C234 N233 1.351 . S
C234 C235 1.434 . S
C235 C226 1.429 . S
C235 N232 1.350 . S
C235 C234 1.434 . S
C236 C237 1.369 . S
C236 C238 1.419 . S
C236 H240 0.930 . S
C237 C236 1.369 . S
C237 C246 1.429 . S
C238 C236 1.419 . S
C238 C239 1.363 . S
C238 H241 0.929 . S
C239 C238 1.363 . S
C239 C245 1.428 . S
H240 C236 0.930 . S
H241 C238 0.929 . S
S242 N243 1.613 . S
S242 N244 1.610 . S
N243 S242 1.613 . S
N243 C246 1.350 . S
N244 S242 1.610 . S
N244 C245 1.351 . S
C245 C239 1.428 . S
C245 N244 1.351 . S
C245 C246 1.434 . S
C246 C237 1.429 . S
C246 N243 1.350 . S
C246 C245 1.434 . S
C247 C248 1.369 . S
C247 C249 1.419 . S
C247 H251 0.930 . S
C248 C247 1.369 . S
C248 C257 1.429 . S
C249 C247 1.419 . S
C249 C250 1.363 . S
C249 H252 0.929 . S
C250 C249 1.363 . S
C250 C256 1.428 1_565 S
H251 C247 0.930 . S
H252 C249 0.929 . S
S253 N254 1.613 . S
S253 N255 1.610 . S
N254 S253 1.613 . S
N254 C257 1.350 1_545 S
N255 S253 1.610 . S
N255 C256 1.351 . S
C256 C250 1.428 1_545 S
C256 N255 1.351 . S
C256 C257 1.434 1_545 S
C257 C248 1.429 . S
C257 N254 1.350 1_565 S
C257 C256 1.434 1_565 S
C258 C259 1.369 . S
C258 C260 1.419 . S
C258 H262 0.930 . S
C259 C258 1.369 . S
C259 C268 1.429 . S
C260 C258 1.419 . S
C260 C261 1.363 . S
C260 H263 0.929 . S
C261 C260 1.363 . S
C261 C267 1.428 . S
H262 C258 0.930 . S
H263 C260 0.929 . S
S264 N265 1.613 . S
S264 N266 1.610 . S
N265 S264 1.613 . S
N265 C268 1.350 . S
N266 S264 1.610 . S
N266 C267 1.351 . S
C267 C261 1.428 . S
C267 N266 1.351 . S
C267 C268 1.434 . S
C268 C259 1.429 . S
C268 N265 1.350 . S
C268 C267 1.434 . S
C269 C270 1.369 . S
C269 C271 1.419 . S
C269 H273 0.930 . S
C270 C269 1.369 . S
C270 C279 1.429 . S
C271 C269 1.419 . S
C271 C272 1.363 . S
C271 H274 0.929 . S
C272 C271 1.363 . S
C272 C278 1.428 . S
H273 C269 0.930 . S
H274 C271 0.929 . S
S275 N276 1.613 . S
S275 N277 1.610 1_455 S
N276 S275 1.613 . S
N276 C279 1.350 1_455 S
N277 S275 1.610 1_655 S
N277 C278 1.351 . S
C278 C272 1.428 . S
C278 N277 1.351 . S
C278 C279 1.434 . S
C279 C270 1.429 . S
C279 N276 1.350 1_655 S
C279 C278 1.434 . S
C280 C281 1.369 . S
C280 C282 1.419 . S
C280 H284 0.930 . S
C281 C280 1.369 . S
C281 C290 1.429 . S
C282 C280 1.419 . S
C282 C283 1.363 . S
C282 H285 0.929 . S
C283 C282 1.363 . S
C283 C289 1.428 . S
H284 C280 0.930 . S
H285 C282 0.929 . S
S286 N287 1.613 . S
S286 N288 1.610 . S
N287 S286 1.613 . S
N287 C290 1.350 . S
N288 S286 1.610 . S
N288 C289 1.351 . S
C289 C283 1.428 . S
C289 N288 1.351 . S
C289 C290 1.434 . S
C290 C281 1.429 . S
C290 N287 1.350 . S
C290 C289 1.434 . S
C291 C292 1.369 . S
C291 C293 1.419 . S
C291 H295 0.930 . S
C292 C291 1.369 . S
C292 C301 1.429 1_455 S
C293 C291 1.419 . S
C293 C294 1.363 1_455 S
C293 H296 0.929 . S
C294 C293 1.363 1_655 S
C294 C300 1.428 . S
H295 C291 0.930 . S
H296 C293 0.929 . S
S297 N298 1.613 . S
S297 N299 1.610 . S
N298 S297 1.613 . S
N298 C301 1.350 . S
N299 S297 1.610 . S
N299 C300 1.351 . S
C300 C294 1.428 . S
C300 N299 1.351 . S
C300 C301 1.434 . S
C301 C292 1.429 1_655 S
C301 N298 1.350 . S
C301 C300 1.434 . S
C302 C303 1.369 . S
C302 C304 1.419 . S
C302 H306 0.930 . S
C303 C302 1.369 . S
C303 C312 1.429 . S
C304 C302 1.419 . S
C304 C305 1.363 . S
C304 H307 0.929 . S
C305 C304 1.363 . S
C305 C311 1.428 . S
H306 C302 0.930 . S
H307 C304 0.929 . S
S308 N309 1.613 . S
S308 N310 1.610 . S
N309 S308 1.613 . S
N309 C312 1.350 . S
N310 S308 1.610 . S
N310 C311 1.351 . S
C311 C305 1.428 . S
C311 N310 1.351 . S
C311 C312 1.434 . S
C312 C303 1.429 . S
C312 N309 1.350 . S
C312 C311 1.434 . S
C313 C314 1.369 1_545 S
C313 C315 1.419 . S
C313 H317 0.930 . S
C314 C313 1.369 1_565 S
C314 C323 1.429 . S
C315 C313 1.419 . S
C315 C316 1.363 . S
C315 H318 0.929 . S
C316 C315 1.363 . S
C316 C322 1.428 1_545 S
H317 C313 0.930 . S
H318 C315 0.929 . S
S319 N320 1.613 . S
S319 N321 1.610 . S
N320 S319 1.613 . S
N320 C323 1.350 . S
N321 S319 1.610 . S
N321 C322 1.351 . S
C322 C316 1.428 1_565 S
C322 N321 1.351 . S
C322 C323 1.434 . S
C323 C314 1.429 . S
C323 N320 1.350 . S
C323 C322 1.434 . S
C127 C36 1.199 1_556 S
C129 C7 1.275 . S
C138 C22 1.214 . S
C140 C8 1.213 1_556 S
C149 C21 1.175 . S
C151 C35 1.165 . S
C160 C77 1.219 . S
C162 C50 1.160 . S
C171 C64 1.140 . S
C173 C49 1.192 . S
C182 C63 1.254 . S
C184 C78 1.190 . S
C193 C91 1.194 . S
C195 C120 1.119 . S
C204 C92 1.210 . S
C206 C106 1.190 . S
C215 C105 1.171 . S
C217 C119 1.162 . S
C226 C11 1.398 . S
C228 C109 1.396 . S
C237 C27 1.297 . S
C239 C125 1.292 . S
C248 C97 1.314 . S
C250 C39 1.388 . S
C259 C69 1.299 . S
C261 C41 1.300 . S
C270 C13 1.367 . S
C272 C83 1.356 . S
C281 C55 1.339 . S
C283 C25 1.393 . S
C292 C111 1.312 . S
C294 C81 1.387 . S
C303 C53 1.356 . S
C305 C123 1.353 . S
C314 C95 1.401 . S
C316 C67 1.413 . S
