# Generated by pormake.
# Topology mok, (4)-cn, num edge types: 1
# Building blocks:
#     Node 0, Type 0, BuildingBlock: QUQFOY_clean_sbu_1, # of connection points: 4
#     Node 1, Type 0, BuildingBlock: QUQFOY_clean_sbu_1, # of connection points: 4
#     Node 2, Type 0, BuildingBlock: QUQFOY_clean_sbu_1, # of connection points: 4
#     Node 3, Type 0, BuildingBlock: QUQFOY_clean_sbu_1, # of connection points: 4
#     Node 4, Type 0, BuildingBlock: QUQFOY_clean_sbu_1, # of connection points: 4
#     Node 5, Type 0, BuildingBlock: QUQFOY_clean_sbu_1, # of connection points: 4
#     Node 6, Type 0, BuildingBlock: QUQFOY_clean_sbu_1, # of connection points: 4
#     Node 7, Type 0, BuildingBlock: QUQFOY_clean_sbu_1, # of connection points: 4
#     Edge 8, Type (0, 0), BuildingBlock: TEMPAE_clean_linker_10, # of connection points: 2
#     Edge 9, Type (0, 0), BuildingBlock: TEMPAE_clean_linker_10, # of connection points: 2
#     Edge 10, Type (0, 0), BuildingBlock: TEMPAE_clean_linker_10, # of connection points: 2
#     Edge 11, Type (0, 0), BuildingBlock: TEMPAE_clean_linker_10, # of connection points: 2
#     Edge 12, Type (0, 0), BuildingBlock: TEMPAE_clean_linker_10, # of connection points: 2
#     Edge 13, Type (0, 0), BuildingBlock: TEMPAE_clean_linker_10, # of connection points: 2
#     Edge 14, Type (0, 0), BuildingBlock: TEMPAE_clean_linker_10, # of connection points: 2
#     Edge 15, Type (0, 0), BuildingBlock: TEMPAE_clean_linker_10, # of connection points: 2
#     Edge 16, Type (0, 0), BuildingBlock: TEMPAE_clean_linker_10, # of connection points: 2
#     Edge 17, Type (0, 0), BuildingBlock: TEMPAE_clean_linker_10, # of connection points: 2
#     Edge 18, Type (0, 0), BuildingBlock: TEMPAE_clean_linker_10, # of connection points: 2
#     Edge 19, Type (0, 0), BuildingBlock: TEMPAE_clean_linker_10, # of connection points: 2
#     Edge 20, Type (0, 0), BuildingBlock: TEMPAE_clean_linker_10, # of connection points: 2
#     Edge 21, Type (0, 0), BuildingBlock: TEMPAE_clean_linker_10, # of connection points: 2
#     Edge 22, Type (0, 0), BuildingBlock: TEMPAE_clean_linker_10, # of connection points: 2
#     Edge 23, Type (0, 0), BuildingBlock: TEMPAE_clean_linker_10, # of connection points: 2
# Relax obj value: 0.035
# Max RMSD: 0.075
# Mean RMSD: 0.075
data_MOF--net-mok--node1-QUQFOY_clean_sbu_1--edge1-TEMPAE_clean_linker_10
_symmetry_space_group_name_H-M    P1
_symmetry_Int_Tables_number       1
_symmetry_cell_setting            triclinic
loop_
_symmetry_equiv_pos_as_xyz
'x, y, z'
_cell_length_a     55.668578
_cell_length_b     16.037506
_cell_length_c     28.936961
_cell_angle_alpha  89.956824
_cell_angle_beta   89.9977
_cell_angle_gamma 90.0177
loop_
_atom_site_label
_atom_site_type_symbol
_atom_site_fract_x
_atom_site_fract_y
_atom_site_fract_z
_atom_type_partial_charge
O0 O 0.61354 0.31885 0.99785 0.0
Cd1 Cd 0.62117 0.244 0.05396 0.0
Cd2 Cd 0.63002 0.39254 0.09405 0.0
O3 O 0.61947 0.44128 0.03094 0.0
O4 O 0.60406 0.13664 0.04197 0.0
O5 O 0.59425 0.22219 0.0988 0.0
C6 C 0.5898 0.15508 0.07563 0.0
C7 C 0.61509 0.43962 0.16473 0.0
C8 C 0.61378 0.39799 0.99578 0.0
C9 C 0.67172 0.27348 0.08574 0.0
O10 O 0.66425 0.34504 0.09779 0.0
O11 O 0.6573 0.22064 0.06812 0.0
O12 O 0.62994 0.48374 0.14075 0.0
O13 O 0.60752 0.37044 0.14711 0.0
O14 O 0.40475 0.69647 0.99425 0.0
Cd15 Cd 0.40042 0.7619 0.0547 0.0
Cd16 Cd 0.3977 0.6088 0.08992 0.0
O17 O 0.41121 0.57293 0.02562 0.0
O18 O 0.41674 0.8721 0.04637 0.0
O19 O 0.42919 0.77602 0.09574 0.0
C20 C 0.43245 0.8477 0.07632 0.0
C21 C 0.4128 0.56175 0.16088 0.0
C22 C 0.41031 0.62001 0.99016 0.0
C23 C 0.35228 0.71372 0.08771 0.0
O24 O 0.36173 0.64208 0.09277 0.0
O25 O 0.36518 0.77572 0.07592 0.0
O26 O 0.40013 0.51386 0.13463 0.0
O27 O 0.41826 0.63486 0.14541 0.0
O28 O 0.61519 0.69057 0.66422 0.0
Cd29 Cd 0.62122 0.75453 0.60282 0.0
Cd30 Cd 0.63032 0.59954 0.57452 0.0
O31 O 0.61701 0.56186 0.6374 0.0
O32 O 0.60476 0.86444 0.61148 0.0
O33 O 0.5928 0.7706 0.56061 0.0
C34 C 0.58934 0.84139 0.58076 0.0
C35 C 0.61571 0.55499 0.50324 0.0
C36 C 0.61337 0.61228 0.67054 0.0
C37 C 0.672 0.71661 0.57674 0.0
O38 O 0.66519 0.64114 0.57555 0.0
O39 O 0.65688 0.77515 0.58293 0.0
O40 O 0.62907 0.50724 0.52839 0.0
O41 O 0.60968 0.62677 0.5198 0.0
O42 O 0.40522 0.29973 0.66517 0.0
Cd43 Cd 0.40035 0.23545 0.60445 0.0
Cd44 Cd 0.39726 0.38953 0.57032 0.0
O45 O 0.41074 0.42454 0.63476 0.0
O46 O 0.41641 0.12474 0.61243 0.0
O47 O 0.42888 0.22042 0.56284 0.0
C48 C 0.43205 0.14867 0.58222 0.0
C49 C 0.41252 0.43685 0.49956 0.0
C50 C 0.4104 0.37643 0.66983 0.0
C51 C 0.35198 0.28402 0.57226 0.0
O52 O 0.36134 0.35584 0.56731 0.0
O53 O 0.36497 0.22212 0.58385 0.0
O54 O 0.39982 0.48469 0.52578 0.0
O55 O 0.4179 0.36362 0.51496 0.0
O56 O 0.11504 0.80114 0.99309 0.0
Cd57 Cd 0.12183 0.73068 0.05126 0.0
Cd58 Cd 0.12932 0.88215 0.08908 0.0
O59 O 0.11919 0.92595 0.0244 0.0
O60 O 0.10504 0.62209 0.04093 0.0
O61 O 0.09428 0.71188 0.09506 0.0
C62 C 0.09026 0.64293 0.07331 0.0
C63 C 0.11353 0.93182 0.15869 0.0
C64 C 0.11466 0.88011 0.98955 0.0
C65 C 0.17172 0.76499 0.08496 0.0
O66 O 0.16377 0.83695 0.09501 0.0
O67 O 0.15777 0.71 0.06794 0.0
O68 O 0.12823 0.9759 0.13434 0.0
O69 O 0.10652 0.86127 0.1419 0.0
O70 O 0.90528 0.18333 0.99161 0.0
Cd71 Cd 0.90062 0.25083 0.05134 0.0
Cd72 Cd 0.89677 0.09868 0.08756 0.0
O73 O 0.91025 0.05977 0.0239 0.0
O74 O 0.91723 0.36028 0.04208 0.0
O75 O 0.92914 0.26604 0.09299 0.0
C76 C 0.93267 0.33684 0.07277 0.0
C77 C 0.91146 0.05298 0.15899 0.0
C78 C 0.91015 0.10618 0.98814 0.0
C79 C 0.85199 0.2064 0.08377 0.0
O80 O 0.86102 0.13435 0.08973 0.0
O81 O 0.86527 0.26711 0.07148 0.0
O82 O 0.89857 0.0051 0.13314 0.0
O83 O 0.91736 0.12523 0.14287 0.0
O84 O 0.11448 0.18363 0.66224 0.0
Cd85 Cd 0.12135 0.25557 0.60467 0.0
Cd86 Cd 0.12975 0.1053 0.56613 0.0
O87 O 0.11971 0.05969 0.6305 0.0
O88 O 0.10401 0.36298 0.61529 0.0
O89 O 0.09407 0.27395 0.5602 0.0
C90 C 0.08959 0.34216 0.58232 0.0
C91 C 0.11417 0.05604 0.49623 0.0
C92 C 0.11463 0.10461 0.66542 0.0
C93 C 0.17156 0.22488 0.57166 0.0
O94 O 0.16397 0.15283 0.56076 0.0
O95 O 0.1573 0.27851 0.58902 0.0
O96 O 0.12912 0.01243 0.52026 0.0
O97 O 0.10685 0.12584 0.51344 0.0
O98 O 0.90361 0.79208 0.66056 0.0
Cd99 Cd 0.89982 0.73325 0.59738 0.0
Cd100 Cd 0.89761 0.88919 0.5703 0.0
O101 O 0.91348 0.91599 0.63343 0.0
O102 O 0.91521 0.62076 0.60372 0.0
O103 O 0.9295 0.72045 0.55863 0.0
C104 C 0.93183 0.64679 0.57609 0.0
C105 C 0.91191 0.9337 0.49842 0.0
C106 C 0.91109 0.86601 0.66733 0.0
C107 C 0.85186 0.78954 0.56935 0.0
O108 O 0.86133 0.8615 0.57225 0.0
O109 O 0.86496 0.72464 0.57213 0.0
O110 O 0.90081 0.98426 0.52577 0.0
O111 O 0.91608 0.85906 0.51307 0.0
C112 C 0.81374 0.28093 0.06427 0.0
C113 C 0.82564 0.21739 0.08845 0.0
C114 C 0.78855 0.28709 0.06506 0.0
C115 C 0.77495 0.22952 0.09151 0.0
C116 C 0.78694 0.16679 0.11709 0.0
C117 C 0.81209 0.1609 0.11482 0.0
C118 C 0.77644 0.35415 0.03676 0.0
C119 C 0.77318 0.10559 0.14664 0.0
C120 C 0.71165 0.29831 0.12262 0.0
C121 C 0.69771 0.25493 0.09014 0.0
C122 C 0.73669 0.2884 0.12448 0.0
C123 C 0.7482 0.2352 0.09238 0.0
C124 C 0.73418 0.18976 0.06014 0.0
C125 C 0.70906 0.19947 0.05974 0.0
C126 C 0.75086 0.33638 0.16015 0.0
C127 C 0.74581 0.13332 0.02491 0.0
H128 H 0.82407 0.32425 0.04348 0.0
H129 H 0.8212 0.11183 0.13376 0.0
H130 H 0.76396 0.32525 0.01153 0.0
H131 H 0.76559 0.39506 0.05952 0.0
H132 H 0.78955 0.39339 0.01761 0.0
H133 H 0.78524 0.06268 0.16589 0.0
H134 H 0.7618 0.1396 0.17184 0.0
H135 H 0.761 0.06784 0.12468 0.0
H136 H 0.70297 0.34088 0.14644 0.0
H137 H 0.69841 0.16634 0.03433 0.0
H138 H 0.76268 0.38237 0.14272 0.0
H139 H 0.76262 0.29343 0.17996 0.0
H140 H 0.73907 0.37021 0.18478 0.0
H141 H 0.75775 0.17051 1.00212 0.0
H142 H 0.73238 0.10056 1.00308 0.0
H143 H 0.75716 0.08608 0.04242 0.0
C144 C 0.21099 0.79319 0.12365 0.0
C145 C 0.19774 0.74841 0.09071 0.0
C146 C 0.23607 0.7854 0.12656 0.0
C147 C 0.24831 0.73315 0.09498 0.0
C148 C 0.23498 0.68626 0.0623 0.0
C149 C 0.2098 0.69368 0.06094 0.0
C150 C 0.2495 0.83472 0.16272 0.0
C151 C 0.24738 0.63091 0.02753 0.0
C152 C 0.3136 0.78535 0.06826 0.0
C153 C 0.32588 0.7227 0.09244 0.0
C154 C 0.28837 0.78926 0.06871 0.0
C155 C 0.27511 0.73034 0.09487 0.0
C156 C 0.28747 0.66867 0.1206 0.0
C157 C 0.31267 0.66496 0.11861 0.0
C158 C 0.27588 0.85519 0.04021 0.0
C159 C 0.27406 0.60616 0.1499 0.0
H160 H 0.20173 0.83521 0.14696 0.0
H161 H 0.19967 0.65955 0.03515 0.0
H162 H 0.26153 0.79305 0.18276 0.0
H163 H 0.26098 0.88223 0.14572 0.0
H164 H 0.23719 0.86695 0.18709 0.0
H165 H 0.23443 0.59667 1.00534 0.0
H166 H 0.25918 0.66926 1.00506 0.0
H167 H 0.25899 0.58496 0.04545 0.0
H168 H 0.32368 0.82961 0.04761 0.0
H169 H 0.32207 0.61658 0.13755 0.0
H170 H 0.26451 0.8948 0.06273 0.0
H171 H 0.26384 0.82511 0.01461 0.0
H172 H 0.28877 0.8959 0.02146 0.0
H173 H 0.26213 0.63903 0.17463 0.0
H174 H 0.28636 0.56488 0.16966 0.0
H175 H 0.26245 0.5668 0.12767 0.0
C176 C 0.81086 0.84402 0.58641 0.0
C177 C 0.82537 0.78238 0.56631 0.0
C178 C 0.78573 0.83675 0.58672 0.0
C179 C 0.77473 0.76742 0.56509 0.0
C180 C 0.78926 0.70643 0.54325 0.0
C181 C 0.81445 0.71387 0.54483 0.0
C182 C 0.77102 0.90167 0.61177 0.0
C183 C 0.77821 0.6328 0.5187 0.0
C184 C 0.71328 0.69633 0.60657 0.0
C185 C 0.69795 0.73425 0.5745 0.0
C186 C 0.73823 0.70796 0.60434 0.0
C187 C 0.74816 0.75613 0.56802 0.0
C188 C 0.73268 0.79403 0.53518 0.0
C189 C 0.70764 0.78377 0.5393 0.0
C190 C 0.75393 0.66884 0.64099 0.0
C191 C 0.74261 0.84373 0.49521 0.0
H192 H 0.81921 0.89675 0.60347 0.0
H193 H 0.8256 0.66643 0.52898 0.0
H194 H 0.75751 0.92928 0.58813 0.0
H195 H 0.76105 0.87192 0.64062 0.0
H196 H 0.78229 0.95267 0.62607 0.0
H197 H 0.7918 0.59537 0.49976 0.0
H198 H 0.76911 0.59173 0.5441 0.0
H199 H 0.76437 0.65442 0.49383 0.0
H200 H 0.70566 0.65797 0.63376 0.0
H201 H 0.6957 0.81204 0.51419 0.0
H202 H 0.76521 0.71732 0.65766 0.0
H203 H 0.76626 0.62285 0.62501 0.0
H204 H 0.74327 0.6367 0.66815 0.0
H205 H 0.75316 0.89746 0.50821 0.0
H206 H 0.72823 0.86751 0.47207 0.0
H207 H 0.75502 0.80429 0.47465 0.0
C208 C 0.20922 0.2972 0.59723 0.0
C209 C 0.19753 0.24305 0.56657 0.0
C210 C 0.23437 0.30592 0.59645 0.0
C211 C 0.24806 0.26096 0.5635 0.0
C212 C 0.23619 0.20938 0.53106 0.0
C213 C 0.21113 0.20024 0.53337 0.0
C214 C 0.24637 0.36049 0.63213 0.0
C215 C 0.25001 0.16214 0.49459 0.0
C216 C 0.31229 0.33275 0.54171 0.0
C217 C 0.32559 0.27452 0.56737 0.0
C218 C 0.2871 0.32818 0.53937 0.0
C219 C 0.27485 0.26505 0.56418 0.0
C220 C 0.28819 0.20572 0.58988 0.0
C221 C 0.31341 0.2106 0.59072 0.0
C222 C 0.27361 0.39125 0.51061 0.0
C223 C 0.27581 0.1382 0.6174 0.0
H224 H 0.19881 0.32981 0.62322 0.0
H225 H 0.20216 0.15867 0.50939 0.0
H226 H 0.25817 0.32183 0.65442 0.0
H227 H 0.25792 0.40761 0.61501 0.0
H228 H 0.23316 0.39331 0.65442 0.0
H229 H 0.23796 0.13027 0.4696 0.0
H230 H 0.26197 0.20518 0.47528 0.0
H231 H 0.26159 0.11456 0.51125 0.0
H232 H 0.3216 0.38212 0.52341 0.0
H233 H 0.32355 0.16591 0.61097 0.0
H234 H 0.2617 0.42901 0.53309 0.0
H235 H 0.26197 0.35885 0.48518 0.0
H236 H 0.28585 0.43403 0.49169 0.0
H237 H 0.26349 0.16676 0.64305 0.0
H238 H 0.28874 0.09748 0.63598 0.0
H239 H 0.26473 0.09883 0.5942 0.0
C240 C 0.59188 0.41921 0.23834 0.0
C241 C 0.60913 0.46351 0.21286 0.0
C242 C 0.58867 0.43422 0.28585 0.0
C243 C 0.60341 0.49355 0.30844 0.0
C244 C 0.62005 0.541 0.28238 0.0
C245 C 0.62253 0.52597 0.2349 0.0
C246 C 0.57027 0.384 0.3122 0.0
C247 C 0.63633 0.60427 0.30511 0.0
C248 C 0.59315 0.57892 0.42933 0.0
C249 C 0.60952 0.53144 0.45518 0.0
C250 C 0.58971 0.56376 0.38193 0.0
C251 C 0.60334 0.50088 0.35977 0.0
C252 C 0.61902 0.45024 0.38621 0.0
C253 C 0.62174 0.46565 0.43363 0.0
C254 C 0.57235 0.61761 0.35519 0.0
C255 C 0.63411 0.38311 0.36391 0.0
H256 H 0.58135 0.37121 0.22148 0.0
H257 H 0.63591 0.56052 0.21554 0.0
H258 H 0.57953 0.33805 0.33465 0.0
H259 H 0.55948 0.42514 0.33498 0.0
H260 H 0.55794 0.3497 0.28876 0.0
H261 H 0.64736 0.63918 0.27961 0.0
H262 H 0.6256 0.64961 0.32536 0.0
H263 H 0.64859 0.57215 0.32957 0.0
H264 H 0.58349 0.62946 0.44584 0.0
H265 H 0.63443 0.42865 0.45331 0.0
H266 H 0.56092 0.57871 0.33235 0.0
H267 H 0.58251 0.66131 0.33278 0.0
H268 H 0.56058 0.65471 0.37837 0.0
H269 H 0.62263 0.34045 0.34339 0.0
H270 H 0.64422 0.34569 0.38972 0.0
H271 H 0.64717 0.41213 0.33978 0.0
C272 C 0.43513 0.58234 0.23549 0.0
C273 C 0.4185 0.53703 0.20907 0.0
C274 C 0.43819 0.56594 0.28293 0.0
C275 C 0.42383 0.50437 0.30464 0.0
C276 C 0.40769 0.4564 0.27769 0.0
C277 C 0.40545 0.47265 0.23022 0.0
C278 C 0.4561 0.61673 0.31013 0.0
C279 C 0.39173 0.39107 0.29946 0.0
C280 C 0.4348 0.41581 0.42495 0.0
C281 C 0.41837 0.46178 0.45146 0.0
C282 C 0.43793 0.43234 0.37754 0.0
C283 C 0.42385 0.49481 0.35596 0.0
C284 C 0.40797 0.54354 0.38303 0.0
C285 C 0.40564 0.52706 0.43047 0.0
C286 C 0.45557 0.38067 0.35021 0.0
C287 C 0.39232 0.6099 0.36141 0.0
H288 H 0.44538 0.63189 0.21932 0.0
H289 H 0.39248 0.43758 0.21015 0.0
H290 H 0.44642 0.66043 0.33326 0.0
H291 H 0.46723 0.57554 0.3323 0.0
H292 H 0.46814 0.65358 0.2873 0.0
H293 H 0.38097 0.35651 0.27341 0.0
H294 H 0.40266 0.34565 0.31926 0.0
H295 H 0.37922 0.42127 0.32418 0.0
H296 H 0.44482 0.36558 0.44099 0.0
H297 H 0.39284 0.5627 0.45061 0.0
H298 H 0.46685 0.42131 0.328 0.0
H299 H 0.44566 0.33752 0.32712 0.0
H300 H 0.46748 0.34316 0.37296 0.0
H301 H 0.40345 0.65461 0.34149 0.0
H302 H 0.38182 0.64516 0.38756 0.0
H303 H 0.37958 0.58052 0.33681 0.0
C304 C 0.39904 0.61509 0.90716 0.0
C305 C 0.41349 0.58525 0.94324 0.0
C306 C 0.40051 0.58106 0.86265 0.0
C307 C 0.4175 0.51753 0.85344 0.0
C308 C 0.43281 0.48923 0.88936 0.0
C309 C 0.43028 0.52228 0.93419 0.0
C310 C 0.38323 0.61102 0.82596 0.0
C311 C 0.45168 0.42365 0.8805 0.0
C312 C 0.40208 0.37233 0.75432 0.0
C313 C 0.41397 0.41004 0.717 0.0
C314 C 0.40352 0.40569 0.799 0.0
C315 C 0.41785 0.47716 0.80703 0.0
C316 C 0.43078 0.51345 0.76987 0.0
C317 C 0.42833 0.48035 0.72504 0.0
C318 C 0.38879 0.36659 0.83716 0.0
C319 C 0.44683 0.58807 0.77733 0.0
H320 H 0.38588 0.6633 0.91419 0.0
H321 H 0.44159 0.49968 0.96199 0.0
H322 H 0.39326 0.63514 0.79566 0.0
H323 H 0.37204 0.55812 0.81378 0.0
H324 H 0.37113 0.66101 0.83877 0.0
H325 H 0.46371 0.41454 0.91073 0.0
H326 H 0.44294 0.36329 0.87235 0.0
H327 H 0.46275 0.4413 0.85012 0.0
H328 H 0.39079 0.31834 0.74825 0.0
H329 H 0.4377 0.50923 0.69636 0.0
H330 H 0.3755 0.41244 0.85022 0.0
H331 H 0.4005 0.34914 0.86662 0.0
H332 H 0.379 0.31008 0.82542 0.0
H333 H 0.43576 0.64343 0.78588 0.0
H334 H 0.45779 0.60273 0.74627 0.0
H335 H 0.45906 0.57684 0.80698 0.0
C336 C 0.59169 0.40816 0.921 0.0
C337 C 0.60944 0.43873 0.95084 0.0
C338 C 0.58924 0.43991 0.876 0.0
C339 C 0.60563 0.50096 0.85994 0.0
C340 C 0.62324 0.53335 0.89044 0.0
C341 C 0.62463 0.50286 0.93586 0.0
C342 C 0.56963 0.40618 0.8452 0.0
C343 C 0.64151 0.59663 0.87433 0.0
C344 C 0.62013 0.50545 0.73172 0.0
C345 C 0.60919 0.57994 0.71771 0.0
C346 C 0.61889 0.47869 0.77784 0.0
C347 C 0.60569 0.52616 0.81039 0.0
C348 C 0.59359 0.59929 0.79586 0.0
C349 C 0.59586 0.6262 0.74983 0.0
C350 C 0.63256 0.4015 0.7921 0.0
C351 C 0.57861 0.64984 0.8291 0.0
H352 H 0.57987 0.35872 0.93275 0.0
H353 H 0.63853 0.52574 0.95884 0.0
H354 H 0.55991 0.45807 0.82804 0.0
H355 H 0.57764 0.36705 0.81763 0.0
H356 H 0.55648 0.36768 0.8647 0.0
H357 H 0.65352 0.61753 0.90273 0.0
H358 H 0.65272 0.56908 0.84654 0.0
H359 H 0.63239 0.65198 0.85954 0.0
H360 H 0.63065 0.47003 0.70707 0.0
H361 H 0.58727 0.68363 0.73896 0.0
H362 H 0.62017 0.35525 0.8077 0.0
H363 H 0.64608 0.41792 0.81879 0.0
H364 H 0.64196 0.37166 0.76256 0.0
H365 H 0.56576 0.60879 0.84763 0.0
H366 H 0.56839 0.69998 0.81134 0.0
H367 H 0.59038 0.6789 0.85549 0.0
C368 C 0.11984 0.02256 0.22767 0.0
C369 C 0.10721 0.95726 0.20646 0.0
C370 C 0.11725 0.03904 0.27501 0.0
C371 C 0.1013 0.99005 0.30181 0.0
C372 C 0.08723 0.92785 0.27999 0.0
C373 C 0.09053 0.91158 0.23261 0.0
C374 C 0.13279 0.10545 0.29687 0.0
C375 C 0.06958 0.87577 0.30708 0.0
C376 C 0.12072 0.96679 0.42674 0.0
C377 C 0.10782 0.03088 0.44843 0.0
C378 C 0.11793 0.95049 0.37943 0.0
C379 C 0.10149 -0.00161 0.35315 0.0
C380 C 0.08721 0.05941 0.37545 0.0
C381 C 0.09072 0.07556 0.42278 0.0
C382 C 0.13372 0.88539 0.35704 0.0
C383 C 0.06905 0.11029 0.34891 0.0
H384 H 0.13276 0.05826 0.20781 0.0
H385 H 0.08058 0.86137 0.21643 0.0
H386 H 0.12161 0.14932 0.31721 0.0
H387 H 0.14569 0.0759 0.3211 0.0
H388 H 0.14311 0.14165 0.27082 0.0
H389 H 0.05749 0.83939 0.28413 0.0
H390 H 0.07949 0.83151 0.32955 0.0
H391 H 0.05848 0.91586 0.32989 0.0
H392 H 0.13397 0.93189 0.44622 0.0
H393 H 0.08055 0.12484 0.43934 0.0
H394 H 0.14618 0.91597 0.33235 0.0
H395 H 0.12265 0.84057 0.33711 0.0
H396 H 0.14452 0.85009 0.38273 0.0
H397 H 0.07853 0.15521 0.32614 0.0
H398 H 0.05696 0.14584 0.37223 0.0
H399 H 0.05799 0.06944 0.32645 0.0
C400 C 0.93336 0.91016 0.42329 0.0
C401 C 0.91745 0.95771 0.4501 0.0
C402 C 0.93628 0.92607 0.3758 0.0
C403 C 0.92248 0.9895 0.35444 0.0
C404 C 0.90709 0.03968 0.38176 0.0
C405 C 0.905 0.02381 0.42931 0.0
C406 C 0.9534 0.87282 0.34818 0.0
C407 C 0.89172 0.10701 0.36034 0.0
C408 C 0.93392 0.07403 0.23338 0.0
C409 C 0.91698 0.02933 0.20739 0.0
C410 C 0.93694 0.05855 0.28092 0.0
C411 C 0.92222 -0.00141 0.30313 0.0
C412 C 0.9057 0.95135 0.27665 0.0
C413 C 0.90351 0.96661 0.22908 0.0
C414 C 0.95524 0.10844 0.30765 0.0
C415 C 0.88937 0.88776 0.29897 0.0
H416 H 0.94316 0.85929 0.43922 0.0
H417 H 0.89258 0.06056 0.44974 0.0
H418 H 0.94307 0.83047 0.32531 0.0
H419 H 0.96485 0.91243 0.32572 0.0
H420 H 0.96516 0.83435 0.37072 0.0
H421 H 0.88164 0.14331 0.38665 0.0
H422 H 0.90299 0.15063 0.33999 0.0
H423 H 0.87863 0.07835 0.33617 0.0
H424 H 0.94448 0.1223 0.21678 0.0
H425 H 0.89029 0.93206 0.20933 0.0
H426 H 0.9663 0.06666 0.32961 0.0
H427 H 0.94592 0.15275 0.33096 0.0
H428 H 0.96733 0.1445 0.28452 0.0
H429 H 0.90007 0.84152 0.31867 0.0
H430 H 0.87819 0.85395 0.27328 0.0
H431 H 0.87725 0.91933 0.32389 0.0
C432 C 0.90047 0.86276 0.75088 0.0
C433 C 0.91472 0.89555 0.71527 0.0
C434 C 0.90177 0.89466 0.79593 0.0
C435 C 0.91834 0.95912 0.80607 0.0
C436 C 0.93367 0.98955 0.77074 0.0
C437 C 0.93135 0.95851 0.72548 0.0
C438 C 0.88453 0.86228 0.83204 0.0
C439 C 0.9521 0.05629 0.78052 0.0
C440 C 0.9015 0.10534 0.90383 0.0
C441 C 0.91364 0.07011 0.94155 0.0
C442 C 0.90311 0.07026 0.8596 0.0
C443 C 0.91789 -0.00038 0.85242 0.0
C444 C 0.93092 0.96544 0.89005 0.0
C445 C 0.92828 0.0002 0.93445 0.0
C446 C 0.8883 0.10716 0.8209 0.0
C447 C 0.94744 0.89183 0.88345 0.0
H448 H 0.88744 0.81454 0.74305 0.0
H449 H 0.94253 0.98347 0.69808 0.0
H450 H 0.89448 0.84054 0.86296 0.0
H451 H 0.87245 0.91342 0.84335 0.0
H452 H 0.87331 0.81005 0.81899 0.0
H453 H 0.96462 0.06547 0.75106 0.0
H454 H 0.94293 0.11631 0.7876 0.0
H455 H 0.96268 0.03996 0.81175 0.0
H456 H 0.88997 0.15894 0.90924 0.0
H457 H 0.93782 0.97322 0.96349 0.0
H458 H 0.87573 0.05941 0.80725 0.0
H459 H 0.9001 0.12652 0.79197 0.0
H460 H 0.87768 0.1621 0.83227 0.0
H461 H 0.93681 0.83583 0.87411 0.0
H462 H 0.95798 0.87766 0.91509 0.0
H463 H 0.96006 0.90407 0.85454 0.0
C464 C 0.12382 0.98838 0.93009 0.0
C465 C 0.11074 0.91779 0.94353 0.0
C466 C 0.1228 0.01804 0.88443 0.0
C467 C 0.1077 0.97776 0.8519 0.0
C468 C 0.09349 0.90908 0.86604 0.0
C469 C 0.09553 0.87894 0.91147 0.0
C470 C 0.13869 0.09013 0.87051 0.0
C471 C 0.07653 0.86635 0.83294 0.0
C472 C 0.09484 0.10251 0.74287 0.0
C473 C 0.11073 0.06599 0.7112 0.0
C474 C 0.09281 0.07188 0.7882 0.0
C475 C 0.1077 0.00524 0.80266 0.0
C476 C 0.12348 0.96723 0.7705 0.0
C477 C 0.1245 0.99721 0.7249 0.0
C478 C 0.07512 0.11205 0.82087 0.0
C479 C 0.14011 0.89744 0.7848 0.0
H480 H 0.13579 0.01789 0.9547 0.0
H481 H 0.08531 0.82452 0.92191 0.0
H482 H 0.15139 0.06967 0.8432 0.0
H483 H 0.12771 0.14133 0.85579 0.0
H484 H 0.14921 0.11513 0.90004 0.0
H485 H 0.065 0.8195 0.85053 0.0
H486 H 0.06482 0.91301 0.81576 0.0
H487 H 0.08692 0.83439 0.80548 0.0
H488 H 0.08409 0.15554 0.73221 0.0
H489 H 0.137 0.96956 0.7006 0.0
H490 H 0.08494 0.14559 0.84855 0.0
H491 H 0.06388 0.0637 0.8378 0.0
H492 H 0.06314 0.1571 0.80297 0.0
H493 H 0.1524 0.9197 0.81236 0.0
H494 H 0.15108 0.87391 0.7555 0.0
H495 H 0.12964 0.84476 0.79932 0.0
C496 C 0.45887 0.97068 0.06008 0.0
C497 C 0.45452 0.89728 0.08514 0.0
C498 C 0.48089 0.01294 0.06364 0.0
C499 C 0.49905 0.98137 0.09314 0.0
C500 C 0.49439 0.9095 0.12017 0.0
C501 C 0.4722 0.86818 0.11577 0.0
C502 C 0.4851 0.08938 0.0342 0.0
C503 C 0.51317 0.87426 0.15232 0.0
C504 C 0.56275 0.0353 0.05661 0.0
C505 C 0.5679 0.10458 0.0845 0.0
C506 C 0.54076 0.99293 0.06029 0.0
C507 C 0.52344 0.02016 0.09279 0.0
C508 C 0.52893 0.08765 0.12253 0.0
C509 C 0.55109 0.12918 0.11797 0.0
C510 C 0.53568 0.92118 0.02794 0.0
C511 C 0.51105 0.1181 0.15789 0.0
H512 H 0.44534 0.99381 0.0364 0.0
H513 H 0.46901 0.81165 0.13538 0.0
H514 H 0.49133 0.14205 0.05594 0.0
H515 H 0.49943 0.07638 1.00855 0.0
H516 H 0.46866 0.10907 0.01535 0.0
H517 H 0.50595 0.82329 0.17432 0.0
H518 H 0.5284 0.84931 0.13181 0.0
H519 H 0.52045 0.92398 0.17499 0.0
H520 H 0.57562 0.0156 0.03071 0.0
H521 H 0.5549 0.18256 0.13973 0.0
H522 H 0.52066 0.93793 1.00449 0.0
H523 H 0.53001 0.86538 0.04782 0.0
H524 H 0.55154 0.90448 1.00659 0.0
H525 H 0.49534 0.14596 0.14005 0.0
H526 H 0.5189 0.1657 0.18134 0.0
H527 H 0.50432 0.06523 0.17898 0.0
C528 C 0.54998 0.86421 0.54014 0.0
C529 C 0.56731 0.89124 0.57205 0.0
C530 C 0.5278 0.90558 0.53581 0.0
C531 C 0.52276 0.97522 0.56428 0.0
C532 C 0.54056 0.00471 0.59519 0.0
C533 C 0.56261 0.96261 0.59857 0.0
C534 C 0.50942 0.8728 0.50204 0.0
C535 C 0.53595 0.07865 0.62625 0.0
C536 C 0.47123 0.12578 0.54109 0.0
C537 C 0.45398 0.09854 0.57311 0.0
C538 C 0.49334 0.08412 0.53629 0.0
C539 C 0.49838 0.01398 0.56443 0.0
C540 C 0.48064 0.98426 0.59544 0.0
C541 C 0.45866 0.02665 0.59927 0.0
C542 C 0.51164 0.11718 0.50243 0.0
C543 C 0.48527 0.9098 0.62617 0.0
H544 H 0.55346 0.80927 0.5194 0.0
H545 H 0.57586 0.98411 0.62329 0.0
H546 H 0.49397 0.84613 0.52126 0.0
H547 H 0.50238 0.92425 0.48026 0.0
H548 H 0.51694 0.82368 0.47918 0.0
H549 H 0.55211 0.09668 0.64645 0.0
H550 H 0.53005 0.1331 0.60551 0.0
H551 H 0.52124 0.06361 0.65077 0.0
H552 H 0.46776 0.18109 0.5206 0.0
H553 H 0.44546 0.00501 0.62407 0.0
H554 H 0.5186 0.06595 0.48044 0.0
H555 H 0.52715 0.14356 0.52158 0.0
H556 H 0.50409 0.1666 0.47978 0.0
H557 H 0.49114 0.85568 0.60518 0.0
H558 H 0.46913 0.89147 0.64634 0.0
H559 H 0.5 0.92443 0.65069 0.0
C560 C 0.05109 0.61934 0.1145 0.0
C561 C 0.06827 0.59288 0.08216 0.0
C562 C 0.02889 0.57805 0.11888 0.0
C563 C 0.0237 0.50895 0.09009 0.0
C564 C 0.04138 0.47991 0.0588 0.0
C565 C 0.06342 0.52203 0.0553 0.0
C566 C 1.01063 0.61046 0.15299 0.0
C567 C 0.03663 0.40643 0.02747 0.0
C568 C 0.97206 0.35872 0.11337 0.0
C569 C 0.95475 0.38644 0.08161 0.0
C570 C 0.99424 0.39999 0.118 0.0
C571 C 0.99929 0.47036 0.09003 0.0
C572 C 0.98149 0.50056 0.05929 0.0
C573 C 0.95945 0.45844 0.05556 0.0
C574 C 0.01263 0.3663 0.1515 0.0
C575 C 0.9861 0.57536 0.0288 0.0
H576 H 0.05467 0.67391 0.13548 0.0
H577 H 0.07656 0.50091 0.03028 0.0
H578 H 0.99516 0.63752 0.13405 0.0
H579 H 1.00362 0.55874 0.17461 0.0
H580 H 0.01825 0.65918 0.176 0.0
H581 H 0.05273 0.38849 1.00709 0.0
H582 H 0.0307 0.35178 0.04803 0.0
H583 H 0.0219 0.42197 1.0031 0.0
H584 H 0.96858 0.30329 0.13377 0.0
H585 H 0.94621 0.4805 0.03098 0.0
H586 H 0.01968 0.41714 0.17367 0.0
H587 H 0.02806 0.34017 0.13206 0.0
H588 H 1.00511 0.31655 0.174 0.0
H589 H 0.9921 0.62915 0.04993 0.0
H590 H 0.96992 0.5941 1.00888 0.0
H591 H 1.00075 0.5609 1.00404 0.0
C592 C 0.05107 0.36625 0.53899 0.0
C593 C 0.06751 0.39142 0.57304 0.0
C594 C 0.02885 0.40698 0.5337 0.0
C595 C 0.02285 0.47407 0.56335 0.0
C596 C 0.03975 0.5016 0.59661 0.0
C597 C 0.06185 0.46019 0.60094 0.0
C598 C 1.01145 0.37633 0.49748 0.0
C599 C 0.0341 0.57283 0.62897 0.0
C600 C 0.97199 0.62622 0.53834 0.0
C601 C 0.95389 0.59681 0.56796 0.0
C602 C 0.99419 0.5848 0.53482 0.0
C603 C 0.99846 0.51261 0.56181 0.0
C604 C 0.97988 0.48069 0.59025 0.0
C605 C 0.95783 0.52297 0.59284 0.0
C606 C 0.0134 0.62032 0.5037 0.0
C607 C 0.98368 0.40399 0.61967 0.0
H608 H 0.05529 0.31327 0.51721 0.0
H609 H 0.0744 0.48022 0.62732 0.0
H610 H 0.99551 0.34842 0.51454 0.0
H611 H 1.00499 0.42916 0.47606 0.0
H612 H 0.01962 0.32877 0.47444 0.0
H613 H 0.04961 0.58934 0.65135 0.0
H614 H 0.02875 0.62888 0.60899 0.0
H615 H 0.01871 0.55567 0.65142 0.0
H616 H 0.9691 0.68305 0.51882 0.0
H617 H 0.94397 0.49968 0.61579 0.0
H618 H 0.02101 0.57076 0.48133 0.0
H619 H 0.02832 0.64529 0.52501 0.0
H620 H 1.00646 0.67135 0.48141 0.0
H621 H 0.99028 0.35159 0.59814 0.0
H622 H 0.96697 0.38398 0.63752 0.0
H623 H 0.99761 0.4169 0.64616 0.0
loop_
_geom_bond_atom_site_label_1
_geom_bond_atom_site_label_2
_geom_bond_distance
_geom_bond_site_symmetry_2
_ccdc_geom_bond_type
O0 Cd1 2.223 1_556 S
O0 C8 1.315 . S
Cd1 O0 2.223 1_554 S
Cd1 O4 2.297 1_554 S
Cd1 O5 2.439 . S
Cd1 O11 2.240 . S
Cd2 O3 2.240 . S
Cd2 O10 2.223 . S
Cd2 O12 2.297 . S
Cd2 O13 2.439 . S
O3 Cd2 2.240 . S
O3 C8 1.279 1_554 S
O4 Cd1 2.297 1_556 S
O4 C6 1.247 1_556 S
O5 Cd1 2.439 . S
O5 C6 1.208 . S
C6 O4 1.247 1_554 S
C6 O5 1.208 . S
C7 O12 1.247 . S
C7 O13 1.208 . S
C8 O0 1.315 . S
C8 O3 1.279 1_556 S
C9 O10 1.315 . S
C9 O11 1.279 . S
O10 Cd2 2.223 . S
O10 C9 1.315 . S
O11 Cd1 2.240 . S
O11 C9 1.279 . S
O12 Cd2 2.297 . S
O12 C7 1.247 . S
O13 Cd2 2.439 . S
O13 C7 1.208 . S
O14 Cd15 2.223 1_556 S
O14 C22 1.315 . S
Cd15 O14 2.223 1_554 S
Cd15 O18 2.297 1_554 S
Cd15 O19 2.439 . S
Cd15 O25 2.240 . S
Cd16 O17 2.240 . S
Cd16 O24 2.223 . S
Cd16 O26 2.297 . S
Cd16 O27 2.439 . S
O17 Cd16 2.240 . S
O17 C22 1.279 1_554 S
O18 Cd15 2.297 1_556 S
O18 C20 1.247 1_556 S
O19 Cd15 2.439 . S
O19 C20 1.208 . S
C20 O18 1.247 1_554 S
C20 O19 1.208 . S
C21 O26 1.247 . S
C21 O27 1.208 . S
C22 O14 1.315 . S
C22 O17 1.279 1_556 S
C23 O24 1.315 . S
C23 O25 1.279 . S
O24 Cd16 2.223 . S
O24 C23 1.315 . S
O25 Cd15 2.240 . S
O25 C23 1.279 . S
O26 Cd16 2.297 . S
O26 C21 1.247 . S
O27 Cd16 2.439 . S
O27 C21 1.208 . S
O28 Cd29 2.223 . S
O28 C36 1.315 . S
Cd29 O28 2.223 . S
Cd29 O32 2.297 . S
Cd29 O33 2.439 . S
Cd29 O39 2.240 . S
Cd30 O31 2.240 . S
Cd30 O38 2.223 . S
Cd30 O40 2.297 . S
Cd30 O41 2.439 . S
O31 Cd30 2.240 . S
O31 C36 1.279 . S
O32 Cd29 2.297 . S
O32 C34 1.247 . S
O33 Cd29 2.439 . S
O33 C34 1.208 . S
C34 O32 1.247 . S
C34 O33 1.208 . S
C35 O40 1.247 . S
C35 O41 1.208 . S
C36 O28 1.315 . S
C36 O31 1.279 . S
C37 O38 1.315 . S
C37 O39 1.279 . S
O38 Cd30 2.223 . S
O38 C37 1.315 . S
O39 Cd29 2.240 . S
O39 C37 1.279 . S
O40 Cd30 2.297 . S
O40 C35 1.247 . S
O41 Cd30 2.439 . S
O41 C35 1.208 . S
O42 Cd43 2.223 . S
O42 C50 1.315 . S
Cd43 O42 2.223 . S
Cd43 O46 2.297 . S
Cd43 O47 2.439 . S
Cd43 O53 2.240 . S
Cd44 O45 2.240 . S
Cd44 O52 2.223 . S
Cd44 O54 2.297 . S
Cd44 O55 2.439 . S
O45 Cd44 2.240 . S
O45 C50 1.279 . S
O46 Cd43 2.297 . S
O46 C48 1.247 . S
O47 Cd43 2.439 . S
O47 C48 1.208 . S
C48 O46 1.247 . S
C48 O47 1.208 . S
C49 O54 1.247 . S
C49 O55 1.208 . S
C50 O42 1.315 . S
C50 O45 1.279 . S
C51 O52 1.315 . S
C51 O53 1.279 . S
O52 Cd44 2.223 . S
O52 C51 1.315 . S
O53 Cd43 2.240 . S
O53 C51 1.279 . S
O54 Cd44 2.297 . S
O54 C49 1.247 . S
O55 Cd44 2.439 . S
O55 C49 1.208 . S
O56 Cd57 2.223 1_556 S
O56 C64 1.315 . S
Cd57 O56 2.223 1_554 S
Cd57 O60 2.297 1_554 S
Cd57 O61 2.439 . S
Cd57 O67 2.240 . S
Cd58 O59 2.240 . S
Cd58 O66 2.223 . S
Cd58 O68 2.297 . S
Cd58 O69 2.439 . S
O59 Cd58 2.240 . S
O59 C64 1.279 1_554 S
O60 Cd57 2.297 1_556 S
O60 C62 1.247 1_556 S
O61 Cd57 2.439 . S
O61 C62 1.208 . S
C62 O60 1.247 1_554 S
C62 O61 1.208 . S
C63 O68 1.247 . S
C63 O69 1.208 . S
C64 O56 1.315 . S
C64 O59 1.279 1_556 S
C65 O66 1.315 . S
C65 O67 1.279 . S
O66 Cd58 2.223 . S
O66 C65 1.315 . S
O67 Cd57 2.240 . S
O67 C65 1.279 . S
O68 Cd58 2.297 . S
O68 C63 1.247 . S
O69 Cd58 2.439 . S
O69 C63 1.208 . S
O70 Cd71 2.223 1_556 S
O70 C78 1.315 . S
Cd71 O70 2.223 1_554 S
Cd71 O74 2.297 1_554 S
Cd71 O75 2.439 . S
Cd71 O81 2.240 . S
Cd72 O73 2.240 . S
Cd72 O80 2.223 . S
Cd72 O82 2.297 . S
Cd72 O83 2.439 . S
O73 Cd72 2.240 . S
O73 C78 1.279 1_554 S
O74 Cd71 2.297 1_556 S
O74 C76 1.247 1_556 S
O75 Cd71 2.439 . S
O75 C76 1.208 . S
C76 O74 1.247 1_554 S
C76 O75 1.208 . S
C77 O82 1.247 . S
C77 O83 1.208 . S
C78 O70 1.315 . S
C78 O73 1.279 1_556 S
C79 O80 1.315 . S
C79 O81 1.279 . S
O80 Cd72 2.223 . S
O80 C79 1.315 . S
O81 Cd71 2.240 . S
O81 C79 1.279 . S
O82 Cd72 2.297 . S
O82 C77 1.247 . S
O83 Cd72 2.439 . S
O83 C77 1.208 . S
O84 Cd85 2.223 . S
O84 C92 1.315 . S
Cd85 O84 2.223 . S
Cd85 O88 2.297 . S
Cd85 O89 2.439 . S
Cd85 O95 2.240 . S
Cd86 O87 2.240 . S
Cd86 O94 2.223 . S
Cd86 O96 2.297 . S
Cd86 O97 2.439 . S
O87 Cd86 2.240 . S
O87 C92 1.279 . S
O88 Cd85 2.297 . S
O88 C90 1.247 . S
O89 Cd85 2.439 . S
O89 C90 1.208 . S
C90 O88 1.247 . S
C90 O89 1.208 . S
C91 O96 1.247 . S
C91 O97 1.208 . S
C92 O84 1.315 . S
C92 O87 1.279 . S
C93 O94 1.315 . S
C93 O95 1.279 . S
O94 Cd86 2.223 . S
O94 C93 1.315 . S
O95 Cd85 2.240 . S
O95 C93 1.279 . S
O96 Cd86 2.297 . S
O96 C91 1.247 . S
O97 Cd86 2.439 . S
O97 C91 1.208 . S
O98 Cd99 2.223 . S
O98 C106 1.315 . S
Cd99 O98 2.223 . S
Cd99 O102 2.297 . S
Cd99 O103 2.439 . S
Cd99 O109 2.240 . S
Cd100 O101 2.240 . S
Cd100 O108 2.223 . S
Cd100 O110 2.297 . S
Cd100 O111 2.439 . S
O101 Cd100 2.240 . S
O101 C106 1.279 . S
O102 Cd99 2.297 . S
O102 C104 1.247 . S
O103 Cd99 2.439 . S
O103 C104 1.208 . S
C104 O102 1.247 . S
C104 O103 1.208 . S
C105 O110 1.247 . S
C105 O111 1.208 . S
C106 O98 1.315 . S
C106 O101 1.279 . S
C107 O108 1.315 . S
C107 O109 1.279 . S
O108 Cd100 2.223 . S
O108 C107 1.315 . S
O109 Cd99 2.240 . S
O109 C107 1.279 . S
O110 Cd100 2.297 . S
O110 C105 1.247 . S
O111 Cd100 2.439 . S
O111 C105 1.208 . S
C112 C113 1.391 . S
C112 C114 1.394 . S
C112 H128 0.931 1_554 S
C113 C112 1.391 . S
C113 C117 1.376 . S
C114 C112 1.394 . S
C114 C115 1.369 . S
C114 C118 1.531 1_554 S
C115 C114 1.369 . S
C115 C116 1.410 . S
C115 C123 1.503 . S
C116 C115 1.410 . S
C116 C117 1.392 . S
C116 C119 1.511 . S
C117 C113 1.376 . S
C117 C116 1.392 . S
C117 H129 0.929 . S
C118 C114 1.531 1_556 S
C118 H130 0.960 . S
C118 H131 0.962 . S
C118 H132 0.960 . S
C119 C116 1.511 . S
C119 H133 0.961 . S
C119 H134 0.961 . S
C119 H135 0.961 . S
C120 C121 1.370 . S
C120 C122 1.363 . S
C120 H136 0.931 . S
C121 C120 1.370 . S
C121 C125 1.408 . S
C122 C120 1.363 . S
C122 C123 1.370 . S
C122 C126 1.524 . S
C123 C115 1.503 . S
C123 C122 1.370 . S
C123 C124 1.403 . S
C124 C123 1.403 . S
C124 C125 1.404 . S
C124 C127 1.539 . S
C125 C121 1.408 . S
C125 C124 1.404 . S
C125 H137 0.930 . S
C126 C122 1.524 . S
C126 H138 0.956 1_554 S
C126 H139 0.961 . S
C126 H140 0.961 . S
C127 C124 1.539 . S
C127 H141 0.958 . S
C127 H142 0.961 . S
C127 H143 0.960 . S
H128 C112 0.931 1_556 S
H129 C117 0.929 . S
H130 C118 0.960 . S
H131 C118 0.962 . S
H132 C118 0.960 . S
H133 C119 0.961 . S
H134 C119 0.961 . S
H135 C119 0.961 . S
H136 C120 0.931 . S
H137 C125 0.930 . S
H138 C126 0.956 1_556 S
H139 C126 0.961 . S
H140 C126 0.961 . S
H141 C127 0.958 . S
H142 C127 0.961 . S
H143 C127 0.960 . S
C144 C145 1.391 . S
C144 C146 1.394 . S
C144 H160 0.931 . S
C145 C144 1.391 . S
C145 C149 1.376 . S
C146 C144 1.394 . S
C146 C147 1.369 . S
C146 C150 1.531 . S
C147 C146 1.369 . S
C147 C148 1.410 . S
C147 C155 1.503 . S
C148 C147 1.410 . S
C148 C149 1.392 . S
C148 C151 1.511 1_554 S
C149 C145 1.376 . S
C149 C148 1.392 . S
C149 H161 0.929 1_554 S
C150 C146 1.531 . S
C150 H162 0.960 . S
C150 H163 0.962 . S
C150 H164 0.960 . S
C151 C148 1.511 1_556 S
C151 H165 0.961 . S
C151 H166 0.961 . S
C151 H167 0.961 . S
C152 C153 1.370 . S
C152 C154 1.363 . S
C152 H168 0.931 . S
C153 C152 1.370 . S
C153 C157 1.408 . S
C154 C152 1.363 . S
C154 C155 1.370 . S
C154 C158 1.524 1_554 S
C155 C147 1.503 . S
C155 C154 1.370 . S
C155 C156 1.403 . S
C156 C155 1.403 . S
C156 C157 1.404 . S
C156 C159 1.539 . S
C157 C153 1.408 . S
C157 C156 1.404 . S
C157 H169 0.930 . S
C158 C154 1.524 1_556 S
C158 H170 0.956 1_556 S
C158 H171 0.961 . S
C158 H172 0.961 . S
C159 C156 1.539 . S
C159 H173 0.958 . S
C159 H174 0.961 . S
C159 H175 0.960 . S
H160 C144 0.931 . S
H161 C149 0.929 1_556 S
H162 C150 0.960 . S
H163 C150 0.962 . S
H164 C150 0.960 . S
H165 C151 0.961 . S
H166 C151 0.961 . S
H167 C151 0.961 . S
H168 C152 0.931 . S
H169 C157 0.930 . S
H170 C158 0.956 1_554 S
H171 C158 0.961 . S
H172 C158 0.961 . S
H173 C159 0.958 . S
H174 C159 0.961 . S
H175 C159 0.960 . S
C176 C177 1.391 . S
C176 C178 1.394 . S
C176 H192 0.931 . S
C177 C176 1.391 . S
C177 C181 1.376 . S
C178 C176 1.394 . S
C178 C179 1.369 . S
C178 C182 1.531 . S
C179 C178 1.369 . S
C179 C180 1.410 . S
C179 C187 1.503 . S
C180 C179 1.410 . S
C180 C181 1.392 . S
C180 C183 1.511 . S
C181 C177 1.376 . S
C181 C180 1.392 . S
C181 H193 0.929 . S
C182 C178 1.531 . S
C182 H194 0.960 . S
C182 H195 0.962 . S
C182 H196 0.960 . S
C183 C180 1.511 . S
C183 H197 0.961 . S
C183 H198 0.961 . S
C183 H199 0.961 . S
C184 C185 1.370 . S
C184 C186 1.363 . S
C184 H200 0.931 . S
C185 C184 1.370 . S
C185 C189 1.408 . S
C186 C184 1.363 . S
C186 C187 1.370 . S
C186 C190 1.524 . S
C187 C179 1.503 . S
C187 C186 1.370 . S
C187 C188 1.403 . S
C188 C187 1.403 . S
C188 C189 1.404 . S
C188 C191 1.539 . S
C189 C185 1.408 . S
C189 C188 1.404 . S
C189 H201 0.930 . S
C190 C186 1.524 . S
C190 H202 0.956 . S
C190 H203 0.961 . S
C190 H204 0.961 . S
C191 C188 1.539 . S
C191 H205 0.958 . S
C191 H206 0.961 . S
C191 H207 0.960 . S
H192 C176 0.931 . S
H193 C181 0.929 . S
H194 C182 0.960 . S
H195 C182 0.962 . S
H196 C182 0.960 . S
H197 C183 0.961 . S
H198 C183 0.961 . S
H199 C183 0.961 . S
H200 C184 0.931 . S
H201 C189 0.930 . S
H202 C190 0.956 . S
H203 C190 0.961 . S
H204 C190 0.961 . S
H205 C191 0.958 . S
H206 C191 0.961 . S
H207 C191 0.960 . S
C208 C209 1.391 . S
C208 C210 1.394 . S
C208 H224 0.931 . S
C209 C208 1.391 . S
C209 C213 1.376 . S
C210 C208 1.394 . S
C210 C211 1.369 . S
C210 C214 1.531 . S
C211 C210 1.369 . S
C211 C212 1.410 . S
C211 C219 1.503 . S
C212 C211 1.410 . S
C212 C213 1.392 . S
C212 C215 1.511 . S
C213 C209 1.376 . S
C213 C212 1.392 . S
C213 H225 0.929 . S
C214 C210 1.531 . S
C214 H226 0.960 . S
C214 H227 0.962 . S
C214 H228 0.960 . S
C215 C212 1.511 . S
C215 H229 0.961 . S
C215 H230 0.961 . S
C215 H231 0.961 . S
C216 C217 1.370 . S
C216 C218 1.363 . S
C216 H232 0.931 . S
C217 C216 1.370 . S
C217 C221 1.408 . S
C218 C216 1.363 . S
C218 C219 1.370 . S
C218 C222 1.524 . S
C219 C211 1.503 . S
C219 C218 1.370 . S
C219 C220 1.403 . S
C220 C219 1.403 . S
C220 C221 1.404 . S
C220 C223 1.539 . S
C221 C217 1.408 . S
C221 C220 1.404 . S
C221 H233 0.930 . S
C222 C218 1.524 . S
C222 H234 0.956 . S
C222 H235 0.961 . S
C222 H236 0.961 . S
C223 C220 1.539 . S
C223 H237 0.958 . S
C223 H238 0.961 . S
C223 H239 0.960 . S
H224 C208 0.931 . S
H225 C213 0.929 . S
H226 C214 0.960 . S
H227 C214 0.962 . S
H228 C214 0.960 . S
H229 C215 0.961 . S
H230 C215 0.961 . S
H231 C215 0.961 . S
H232 C216 0.931 . S
H233 C221 0.930 . S
H234 C222 0.956 . S
H235 C222 0.961 . S
H236 C222 0.961 . S
H237 C223 0.958 . S
H238 C223 0.961 . S
H239 C223 0.960 . S
C240 C241 1.391 . S
C240 C242 1.394 . S
C240 H256 0.931 . S
C241 C240 1.391 . S
C241 C245 1.376 . S
C242 C240 1.394 . S
C242 C243 1.369 . S
C242 C246 1.531 . S
C243 C242 1.369 . S
C243 C244 1.410 . S
C243 C251 1.503 . S
C244 C243 1.410 . S
C244 C245 1.392 . S
C244 C247 1.511 . S
C245 C241 1.376 . S
C245 C244 1.392 . S
C245 H257 0.929 . S
C246 C242 1.531 . S
C246 H258 0.960 . S
C246 H259 0.962 . S
C246 H260 0.960 . S
C247 C244 1.511 . S
C247 H261 0.961 . S
C247 H262 0.961 . S
C247 H263 0.961 . S
C248 C249 1.370 . S
C248 C250 1.363 . S
C248 H264 0.931 . S
C249 C248 1.370 . S
C249 C253 1.408 . S
C250 C248 1.363 . S
C250 C251 1.370 . S
C250 C254 1.524 . S
C251 C243 1.503 . S
C251 C250 1.370 . S
C251 C252 1.403 . S
C252 C251 1.403 . S
C252 C253 1.404 . S
C252 C255 1.539 . S
C253 C249 1.408 . S
C253 C252 1.404 . S
C253 H265 0.930 . S
C254 C250 1.524 . S
C254 H266 0.956 . S
C254 H267 0.961 . S
C254 H268 0.961 . S
C255 C252 1.539 . S
C255 H269 0.958 . S
C255 H270 0.961 . S
C255 H271 0.960 . S
H256 C240 0.931 . S
H257 C245 0.929 . S
H258 C246 0.960 . S
H259 C246 0.962 . S
H260 C246 0.960 . S
H261 C247 0.961 . S
H262 C247 0.961 . S
H263 C247 0.961 . S
H264 C248 0.931 . S
H265 C253 0.930 . S
H266 C254 0.956 . S
H267 C254 0.961 . S
H268 C254 0.961 . S
H269 C255 0.958 . S
H270 C255 0.961 . S
H271 C255 0.960 . S
C272 C273 1.391 . S
C272 C274 1.394 . S
C272 H288 0.931 . S
C273 C272 1.391 . S
C273 C277 1.376 . S
C274 C272 1.394 . S
C274 C275 1.369 . S
C274 C278 1.531 . S
C275 C274 1.369 . S
C275 C276 1.410 . S
C275 C283 1.503 . S
C276 C275 1.410 . S
C276 C277 1.392 . S
C276 C279 1.511 . S
C277 C273 1.376 . S
C277 C276 1.392 . S
C277 H289 0.929 . S
C278 C274 1.531 . S
C278 H290 0.960 . S
C278 H291 0.962 . S
C278 H292 0.960 . S
C279 C276 1.511 . S
C279 H293 0.961 . S
C279 H294 0.961 . S
C279 H295 0.961 . S
C280 C281 1.370 . S
C280 C282 1.363 . S
C280 H296 0.931 . S
C281 C280 1.370 . S
C281 C285 1.408 . S
C282 C280 1.363 . S
C282 C283 1.370 . S
C282 C286 1.524 . S
C283 C275 1.503 . S
C283 C282 1.370 . S
C283 C284 1.403 . S
C284 C283 1.403 . S
C284 C285 1.404 . S
C284 C287 1.539 . S
C285 C281 1.408 . S
C285 C284 1.404 . S
C285 H297 0.930 . S
C286 C282 1.524 . S
C286 H298 0.956 . S
C286 H299 0.961 . S
C286 H300 0.961 . S
C287 C284 1.539 . S
C287 H301 0.958 . S
C287 H302 0.961 . S
C287 H303 0.960 . S
H288 C272 0.931 . S
H289 C277 0.929 . S
H290 C278 0.960 . S
H291 C278 0.962 . S
H292 C278 0.960 . S
H293 C279 0.961 . S
H294 C279 0.961 . S
H295 C279 0.961 . S
H296 C280 0.931 . S
H297 C285 0.930 . S
H298 C286 0.956 . S
H299 C286 0.961 . S
H300 C286 0.961 . S
H301 C287 0.958 . S
H302 C287 0.961 . S
H303 C287 0.960 . S
C304 C305 1.391 . S
C304 C306 1.394 . S
C304 H320 0.931 . S
C305 C304 1.391 . S
C305 C309 1.376 . S
C306 C304 1.394 . S
C306 C307 1.369 . S
C306 C310 1.531 . S
C307 C306 1.369 . S
C307 C308 1.410 . S
C307 C315 1.503 . S
C308 C307 1.410 . S
C308 C309 1.392 . S
C308 C311 1.511 . S
C309 C305 1.376 . S
C309 C308 1.392 . S
C309 H321 0.929 . S
C310 C306 1.531 . S
C310 H322 0.960 . S
C310 H323 0.962 . S
C310 H324 0.960 . S
C311 C308 1.511 . S
C311 H325 0.961 . S
C311 H326 0.961 . S
C311 H327 0.961 . S
C312 C313 1.370 . S
C312 C314 1.363 . S
C312 H328 0.931 . S
C313 C312 1.370 . S
C313 C317 1.408 . S
C314 C312 1.363 . S
C314 C315 1.370 . S
C314 C318 1.524 . S
C315 C307 1.503 . S
C315 C314 1.370 . S
C315 C316 1.403 . S
C316 C315 1.403 . S
C316 C317 1.404 . S
C316 C319 1.539 . S
C317 C313 1.408 . S
C317 C316 1.404 . S
C317 H329 0.930 . S
C318 C314 1.524 . S
C318 H330 0.956 . S
C318 H331 0.961 . S
C318 H332 0.961 . S
C319 C316 1.539 . S
C319 H333 0.958 . S
C319 H334 0.961 . S
C319 H335 0.960 . S
H320 C304 0.931 . S
H321 C309 0.929 . S
H322 C310 0.960 . S
H323 C310 0.962 . S
H324 C310 0.960 . S
H325 C311 0.961 . S
H326 C311 0.961 . S
H327 C311 0.961 . S
H328 C312 0.931 . S
H329 C317 0.930 . S
H330 C318 0.956 . S
H331 C318 0.961 . S
H332 C318 0.961 . S
H333 C319 0.958 . S
H334 C319 0.961 . S
H335 C319 0.960 . S
C336 C337 1.391 . S
C336 C338 1.394 . S
C336 H352 0.931 . S
C337 C336 1.391 . S
C337 C341 1.376 . S
C338 C336 1.394 . S
C338 C339 1.369 . S
C338 C342 1.531 . S
C339 C338 1.369 . S
C339 C340 1.410 . S
C339 C347 1.503 . S
C340 C339 1.410 . S
C340 C341 1.392 . S
C340 C343 1.511 . S
C341 C337 1.376 . S
C341 C340 1.392 . S
C341 H353 0.929 . S
C342 C338 1.531 . S
C342 H354 0.960 . S
C342 H355 0.962 . S
C342 H356 0.960 . S
C343 C340 1.511 . S
C343 H357 0.961 . S
C343 H358 0.961 . S
C343 H359 0.961 . S
C344 C345 1.370 . S
C344 C346 1.363 . S
C344 H360 0.931 . S
C345 C344 1.370 . S
C345 C349 1.408 . S
C346 C344 1.363 . S
C346 C347 1.370 . S
C346 C350 1.524 . S
C347 C339 1.503 . S
C347 C346 1.370 . S
C347 C348 1.403 . S
C348 C347 1.403 . S
C348 C349 1.404 . S
C348 C351 1.539 . S
C349 C345 1.408 . S
C349 C348 1.404 . S
C349 H361 0.930 . S
C350 C346 1.524 . S
C350 H362 0.956 . S
C350 H363 0.961 . S
C350 H364 0.961 . S
C351 C348 1.539 . S
C351 H365 0.958 . S
C351 H366 0.961 . S
C351 H367 0.960 . S
H352 C336 0.931 . S
H353 C341 0.929 . S
H354 C342 0.960 . S
H355 C342 0.962 . S
H356 C342 0.960 . S
H357 C343 0.961 . S
H358 C343 0.961 . S
H359 C343 0.961 . S
H360 C344 0.931 . S
H361 C349 0.930 . S
H362 C350 0.956 . S
H363 C350 0.961 . S
H364 C350 0.961 . S
H365 C351 0.958 . S
H366 C351 0.961 . S
H367 C351 0.960 . S
C368 C369 1.391 . S
C368 C370 1.394 1_565 S
C368 H384 0.931 . S
C369 C368 1.391 . S
C369 C373 1.376 . S
C370 C368 1.394 1_545 S
C370 C371 1.369 . S
C370 C374 1.531 . S
C371 C370 1.369 . S
C371 C372 1.410 1_545 S
C371 C379 1.503 . S
C372 C371 1.410 1_565 S
C372 C373 1.392 . S
C372 C375 1.511 . S
C373 C369 1.376 . S
C373 C372 1.392 . S
C373 H385 0.929 . S
C374 C370 1.531 . S
C374 H386 0.960 . S
C374 H387 0.962 . S
C374 H388 0.960 . S
C375 C372 1.511 . S
C375 H389 0.961 . S
C375 H390 0.961 . S
C375 H391 0.961 . S
C376 C377 1.374 . S
C376 C378 1.362 1_545 S
C376 H392 0.928 1_545 S
C377 C376 1.374 . S
C377 C381 1.408 . S
C378 C376 1.362 1_565 S
C378 C379 1.370 1_565 S
C378 C382 1.524 . S
C379 C371 1.503 . S
C379 C378 1.370 1_545 S
C379 C380 1.403 . S
C380 C379 1.403 . S
C380 C381 1.404 . S
C380 C383 1.539 . S
C381 C377 1.408 . S
C381 C380 1.404 . S
C381 H393 0.930 . S
C382 C378 1.524 . S
C382 H394 0.956 . S
C382 H395 0.961 . S
C382 H396 0.961 . S
C383 C380 1.539 . S
C383 H397 0.958 . S
C383 H398 0.961 . S
C383 H399 0.960 . S
H384 C368 0.931 . S
H385 C373 0.929 . S
H386 C374 0.960 . S
H387 C374 0.962 . S
H388 C374 0.960 . S
H389 C375 0.961 . S
H390 C375 0.961 . S
H391 C375 0.961 . S
H392 C376 0.928 1_565 S
H393 C381 0.930 . S
H394 C382 0.956 . S
H395 C382 0.961 . S
H396 C382 0.961 . S
H397 C383 0.958 . S
H398 C383 0.961 . S
H399 C383 0.960 . S
C400 C401 1.391 . S
C400 C402 1.394 . S
C400 H416 0.931 . S
C401 C400 1.391 . S
C401 C405 1.376 . S
C402 C400 1.394 . S
C402 C403 1.369 . S
C402 C406 1.531 . S
C403 C402 1.369 . S
C403 C404 1.410 . S
C403 C411 1.503 1_565 S
C404 C403 1.410 . S
C404 C405 1.392 . S
C404 C407 1.511 1_565 S
C405 C401 1.376 . S
C405 C404 1.392 . S
C405 H417 0.929 . S
C406 C402 1.531 . S
C406 H418 0.960 . S
C406 H419 0.962 . S
C406 H420 0.960 . S
C407 C404 1.511 1_545 S
C407 H421 0.961 . S
C407 H422 0.961 . S
C407 H423 0.961 1_545 S
C408 C409 1.370 . S
C408 C410 1.363 . S
C408 H424 0.931 . S
C409 C408 1.370 . S
C409 C413 1.408 1_545 S
C410 C408 1.363 . S
C410 C411 1.370 . S
C410 C414 1.524 . S
C411 C403 1.503 1_545 S
C411 C410 1.370 . S
C411 C412 1.403 1_545 S
C412 C411 1.403 1_565 S
C412 C413 1.404 . S
C412 C415 1.539 . S
C413 C409 1.408 1_565 S
C413 C412 1.404 . S
C413 H425 0.930 . S
C414 C410 1.524 . S
C414 H426 0.956 . S
C414 H427 0.961 . S
C414 H428 0.961 . S
C415 C412 1.539 . S
C415 H429 0.958 . S
C415 H430 0.961 . S
C415 H431 0.960 . S
H416 C400 0.931 . S
H417 C405 0.929 . S
H418 C406 0.960 . S
H419 C406 0.962 . S
H420 C406 0.960 . S
H421 C407 0.961 . S
H422 C407 0.961 . S
H423 C407 0.961 1_565 S
H424 C408 0.931 . S
H425 C413 0.930 . S
H426 C414 0.956 . S
H427 C414 0.961 . S
H428 C414 0.961 . S
H429 C415 0.958 . S
H430 C415 0.961 . S
H431 C415 0.960 . S
C432 C433 1.391 . S
C432 C434 1.394 . S
C432 H448 0.931 . S
C433 C432 1.391 . S
C433 C437 1.376 . S
C434 C432 1.394 . S
C434 C435 1.369 . S
C434 C438 1.531 . S
C435 C434 1.369 . S
C435 C436 1.410 . S
C435 C443 1.503 1_565 S
C436 C435 1.410 . S
C436 C437 1.392 . S
C436 C439 1.511 1_565 S
C437 C433 1.376 . S
C437 C436 1.392 . S
C437 H449 0.929 . S
C438 C434 1.531 . S
C438 H450 0.960 . S
C438 H451 0.962 . S
C438 H452 0.960 . S
C439 C436 1.511 1_545 S
C439 H453 0.961 . S
C439 H454 0.961 . S
C439 H455 0.961 1_545 S
C440 C441 1.370 . S
C440 C442 1.363 . S
C440 H456 0.931 . S
C441 C440 1.370 . S
C441 C445 1.408 . S
C442 C440 1.363 . S
C442 C443 1.370 . S
C442 C446 1.524 . S
C443 C435 1.503 1_545 S
C443 C442 1.370 . S
C443 C444 1.403 1_545 S
C444 C443 1.403 1_565 S
C444 C445 1.404 1_565 S
C444 C447 1.539 . S
C445 C441 1.408 . S
C445 C444 1.404 1_545 S
C445 H457 0.930 1_545 S
C446 C442 1.524 . S
C446 H458 0.956 . S
C446 H459 0.961 . S
C446 H460 0.961 . S
C447 C444 1.539 . S
C447 H461 0.958 . S
C447 H462 0.961 . S
C447 H463 0.960 . S
H448 C432 0.931 . S
H449 C437 0.929 . S
H450 C438 0.960 . S
H451 C438 0.962 . S
H452 C438 0.960 . S
H453 C439 0.961 . S
H454 C439 0.961 . S
H455 C439 0.961 1_565 S
H456 C440 0.931 . S
H457 C445 0.930 1_565 S
H458 C446 0.956 . S
H459 C446 0.961 . S
H460 C446 0.961 . S
H461 C447 0.958 . S
H462 C447 0.961 . S
H463 C447 0.960 . S
C464 C465 1.391 . S
C464 C466 1.394 1_565 S
C464 H480 0.925 1_565 S
C465 C464 1.391 . S
C465 C469 1.376 . S
C466 C464 1.394 1_545 S
C466 C467 1.369 1_545 S
C466 C470 1.531 . S
C467 C466 1.369 1_565 S
C467 C468 1.410 . S
C467 C475 1.503 1_565 S
C468 C467 1.410 . S
C468 C469 1.392 . S
C468 C471 1.511 . S
C469 C465 1.376 . S
C469 C468 1.392 . S
C469 H481 0.929 . S
C470 C466 1.531 . S
C470 H482 0.960 . S
C470 H483 0.962 . S
C470 H484 0.960 . S
C471 C468 1.511 . S
C471 H485 0.961 . S
C471 H486 0.961 . S
C471 H487 0.961 . S
C472 C473 1.370 . S
C472 C474 1.363 . S
C472 H488 0.931 . S
C473 C472 1.370 . S
C473 C477 1.408 . S
C474 C472 1.363 . S
C474 C475 1.370 . S
C474 C478 1.524 . S
C475 C467 1.503 1_545 S
C475 C474 1.370 . S
C475 C476 1.403 . S
C476 C475 1.403 . S
C476 C477 1.404 . S
C476 C479 1.539 1_545 S
C477 C473 1.408 . S
C477 C476 1.404 . S
C477 H489 0.930 . S
C478 C474 1.524 . S
C478 H490 0.956 . S
C478 H491 0.961 . S
C478 H492 0.961 . S
C479 C476 1.539 1_565 S
C479 H493 0.958 . S
C479 H494 0.961 . S
C479 H495 0.960 . S
H480 C464 0.925 1_545 S
H481 C469 0.929 . S
H482 C470 0.960 . S
H483 C470 0.962 . S
H484 C470 0.960 . S
H485 C471 0.961 . S
H486 C471 0.961 . S
H487 C471 0.961 . S
H488 C472 0.931 . S
H489 C477 0.930 . S
H490 C478 0.956 . S
H491 C478 0.961 . S
H492 C478 0.961 . S
H493 C479 0.958 . S
H494 C479 0.961 . S
H495 C479 0.960 . S
C496 C497 1.391 . S
C496 C498 1.394 . S
C496 H512 0.931 1_554 S
C497 C496 1.391 . S
C497 C501 1.376 . S
C498 C496 1.394 . S
C498 C499 1.369 . S
C498 C502 1.531 1_564 S
C499 C498 1.369 . S
C499 C500 1.410 . S
C499 C507 1.503 1_565 S
C500 C499 1.410 . S
C500 C501 1.392 . S
C500 C503 1.511 . S
C501 C497 1.376 . S
C501 C500 1.392 . S
C501 H513 0.929 . S
C502 C498 1.531 1_546 S
C502 H514 0.960 . S
C502 H515 0.962 . S
C502 H516 0.960 . S
C503 C500 1.511 . S
C503 H517 0.961 . S
C503 H518 0.961 . S
C503 H519 0.961 . S
C504 C505 1.370 . S
C504 C506 1.363 . S
C504 H520 0.931 1_554 S
C505 C504 1.370 . S
C505 C509 1.408 . S
C506 C504 1.363 . S
C506 C507 1.370 . S
C506 C510 1.524 1_544 S
C507 C499 1.503 1_545 S
C507 C506 1.370 . S
C507 C508 1.403 . S
C508 C507 1.403 . S
C508 C509 1.404 . S
C508 C511 1.539 . S
C509 C505 1.408 . S
C509 C508 1.404 . S
C509 H521 0.930 . S
C510 C506 1.524 1_566 S
C510 H522 0.956 . S
C510 H523 0.956 1_556 S
C510 H524 0.961 . S
C511 C508 1.539 . S
C511 H525 0.958 . S
C511 H526 0.961 . S
C511 H527 0.960 . S
H512 C496 0.931 1_556 S
H513 C501 0.929 . S
H514 C502 0.960 . S
H515 C502 0.962 . S
H516 C502 0.960 . S
H517 C503 0.961 . S
H518 C503 0.961 . S
H519 C503 0.961 . S
H520 C504 0.931 1_556 S
H521 C509 0.930 . S
H522 C510 0.956 . S
H523 C510 0.956 1_554 S
H524 C510 0.961 . S
H525 C511 0.958 . S
H526 C511 0.961 . S
H527 C511 0.960 . S
C528 C529 1.391 . S
C528 C530 1.394 . S
C528 H544 0.931 . S
C529 C528 1.391 . S
C529 C533 1.376 . S
C530 C528 1.394 . S
C530 C531 1.369 . S
C530 C534 1.531 . S
C531 C530 1.369 . S
C531 C532 1.410 1_565 S
C531 C539 1.503 1_565 S
C532 C531 1.410 1_545 S
C532 C533 1.392 1_545 S
C532 C535 1.511 . S
C533 C529 1.376 . S
C533 C532 1.392 1_565 S
C533 H545 0.929 . S
C534 C530 1.531 . S
C534 H546 0.960 . S
C534 H547 0.962 . S
C534 H548 0.960 . S
C535 C532 1.511 . S
C535 H549 0.961 . S
C535 H550 0.961 . S
C535 H551 0.961 . S
C536 C537 1.370 . S
C536 C538 1.363 . S
C536 H552 0.931 . S
C537 C536 1.370 . S
C537 C541 1.408 . S
C538 C536 1.363 . S
C538 C539 1.370 . S
C538 C542 1.524 . S
C539 C531 1.503 1_545 S
C539 C538 1.370 . S
C539 C540 1.403 . S
C540 C539 1.403 . S
C540 C541 1.404 . S
C540 C543 1.539 1_545 S
C541 C537 1.408 . S
C541 C540 1.404 . S
C541 H553 0.930 . S
C542 C538 1.524 . S
C542 H554 0.956 1_545 S
C542 H555 0.961 . S
C542 H556 0.961 . S
C543 C540 1.539 1_565 S
C543 H557 0.958 . S
C543 H558 0.961 1_565 S
C543 H559 0.960 . S
H544 C528 0.931 . S
H545 C533 0.929 . S
H546 C534 0.960 . S
H547 C534 0.962 . S
H548 C534 0.960 . S
H549 C535 0.961 . S
H550 C535 0.961 . S
H551 C535 0.961 . S
H552 C536 0.931 . S
H553 C541 0.930 . S
H554 C542 0.956 1_565 S
H555 C542 0.961 . S
H556 C542 0.961 . S
H557 C543 0.958 . S
H558 C543 0.961 1_545 S
H559 C543 0.960 . S
C560 C561 1.391 . S
C560 C562 1.394 . S
C560 H576 0.931 1_554 S
C561 C560 1.391 . S
C561 C565 1.376 . S
C562 C560 1.394 . S
C562 C563 1.369 . S
C562 C566 1.531 1_454 S
C563 C562 1.369 . S
C563 C564 1.410 . S
C563 C571 1.503 1_455 S
C564 C563 1.410 . S
C564 C565 1.392 . S
C564 C567 1.511 . S
C565 C561 1.376 . S
C565 C564 1.392 . S
C565 H577 0.929 . S
C566 C562 1.531 1_656 S
C566 H578 0.960 . S
C566 H579 0.962 1_556 S
C566 H580 0.960 . S
C567 C564 1.511 . S
C567 H581 0.961 . S
C567 H582 0.961 . S
C567 H583 0.961 . S
C568 C569 1.370 . S
C568 C570 1.363 . S
C568 H584 0.931 . S
C569 C568 1.370 . S
C569 C573 1.408 1_554 S
C570 C568 1.363 . S
C570 C571 1.370 . S
C570 C574 1.524 . S
C571 C563 1.503 1_655 S
C571 C570 1.370 . S
C571 C572 1.403 1_554 S
C572 C571 1.403 1_556 S
C572 C573 1.404 . S
C572 C575 1.539 1_655 S
C573 C569 1.408 1_556 S
C573 C572 1.404 . S
C573 H585 0.930 . S
C574 C570 1.524 . S
C574 H586 0.956 . S
C574 H587 0.961 . S
C574 H588 0.961 . S
C575 C572 1.539 1_455 S
C575 H589 0.958 1_455 S
C575 H590 0.964 . S
C575 H591 0.960 . S
H576 C560 0.931 1_556 S
H577 C565 0.929 . S
H578 C566 0.960 . S
H579 C566 0.962 1_554 S
H580 C566 0.960 . S
H581 C567 0.961 . S
H582 C567 0.961 . S
H583 C567 0.961 . S
H584 C568 0.931 . S
H585 C573 0.930 . S
H586 C574 0.956 . S
H587 C574 0.961 . S
H588 C574 0.961 . S
H589 C575 0.958 1_655 S
H590 C575 0.964 . S
H591 C575 0.960 . S
C592 C593 1.391 . S
C592 C594 1.394 . S
C592 H608 0.931 . S
C593 C592 1.391 . S
C593 C597 1.376 . S
C594 C592 1.394 . S
C594 C595 1.369 . S
C594 C598 1.531 1_455 S
C595 C594 1.369 . S
C595 C596 1.410 . S
C595 C603 1.503 1_455 S
C596 C595 1.410 . S
C596 C597 1.392 . S
C596 C599 1.511 . S
C597 C593 1.376 . S
C597 C596 1.392 . S
C597 H609 0.929 . S
C598 C594 1.531 1_655 S
C598 H610 0.960 . S
C598 H611 0.962 . S
C598 H612 0.960 . S
C599 C596 1.511 . S
C599 H613 0.961 . S
C599 H614 0.961 . S
C599 H615 0.961 . S
C600 C601 1.370 . S
C600 C602 1.363 . S
C600 H616 0.931 . S
C601 C600 1.370 . S
C601 C605 1.408 . S
C602 C600 1.363 . S
C602 C603 1.370 . S
C602 C606 1.530 . S
C603 C595 1.503 1_655 S
C603 C602 1.370 . S
C603 C604 1.403 . S
C604 C603 1.403 . S
C604 C605 1.404 . S
C604 C607 1.539 . S
C605 C601 1.408 . S
C605 C604 1.404 . S
C605 H617 0.930 . S
C606 C602 1.530 . S
C606 H618 0.957 . S
C606 H619 0.951 1_655 S
C606 H620 0.964 . S
C607 C604 1.539 . S
C607 H621 0.958 . S
C607 H622 0.961 . S
C607 H623 0.960 . S
H608 C592 0.931 . S
H609 C597 0.929 . S
H610 C598 0.960 . S
H611 C598 0.962 . S
H612 C598 0.960 . S
H613 C599 0.961 . S
H614 C599 0.961 . S
H615 C599 0.961 . S
H616 C600 0.931 . S
H617 C605 0.930 . S
H618 C606 0.957 . S
H619 C606 0.951 1_455 S
H620 C606 0.964 . S
H621 C607 0.958 . S
H622 C607 0.961 . S
H623 C607 0.960 . S
C113 C79 1.465 . S
C121 C9 1.494 . S
C145 C65 1.492 . S
C153 C23 1.480 . S
C177 C107 1.466 . S
C185 C37 1.486 . S
C209 C93 1.470 . S
C217 C51 1.496 . S
C241 C7 1.529 . S
C249 C35 1.510 . S
C273 C21 1.530 . S
C281 C49 1.510 . S
C305 C22 1.521 . S
C313 C50 1.545 . S
C337 C8 1.550 . S
C345 C36 1.534 . S
C369 C63 1.499 . S
C377 C91 1.523 . S
C401 C105 1.525 . S
C409 C77 1.509 . S
C433 C106 1.521 . S
C441 C78 1.544 . S
C465 C64 1.532 . S
C473 C92 1.545 . S
C497 C20 1.502 . S
C505 C6 1.523 . S
C529 C34 1.513 . S
C537 C48 1.514 . S
C561 C62 1.499 . S
C569 C76 1.520 . S
C593 C90 1.514 . S
C601 C104 1.513 . S
