# Generated by pormake.
# Topology qtz-x, (6)-cn, num edge types: 1
# Building blocks:
#     Node 0, Type 0, BuildingBlock: BETDIP_clean_sbu_0, # of connection points: 6
#     Node 1, Type 0, BuildingBlock: BETDIP_clean_sbu_0, # of connection points: 6
#     Node 2, Type 0, BuildingBlock: BETDIP_clean_sbu_0, # of connection points: 6
#     Edge 3, Type (0, 0), BuildingBlock: FUNLAD_clean_linker_1, # of connection points: 2
#     Edge 4, Type (0, 0), BuildingBlock: FUNLAD_clean_linker_1, # of connection points: 2
#     Edge 5, Type (0, 0), BuildingBlock: FUNLAD_clean_linker_1, # of connection points: 2
#     Edge 6, Type (0, 0), BuildingBlock: FUNLAD_clean_linker_1, # of connection points: 2
#     Edge 7, Type (0, 0), BuildingBlock: FUNLAD_clean_linker_1, # of connection points: 2
#     Edge 8, Type (0, 0), BuildingBlock: FUNLAD_clean_linker_1, # of connection points: 2
#     Edge 9, Type (0, 0), BuildingBlock: FUNLAD_clean_linker_1, # of connection points: 2
#     Edge 10, Type (0, 0), BuildingBlock: FUNLAD_clean_linker_1, # of connection points: 2
#     Edge 11, Type (0, 0), BuildingBlock: FUNLAD_clean_linker_1, # of connection points: 2
# Relax obj value: 0.227
# Max RMSD: 0.254
# Mean RMSD: 0.236
data_MOF--net-qtz-x--node1-BETDIP_clean_sbu_0--edge1-FUNLAD_clean_linker_1
_symmetry_space_group_name_H-M    P1
_symmetry_Int_Tables_number       1
_symmetry_cell_setting            triclinic
loop_
_symmetry_equiv_pos_as_xyz
'x, y, z'
_cell_length_a     15.269914
_cell_length_b     15.244436
_cell_length_c     54.970209
_cell_angle_alpha  69.012572
_cell_angle_beta   113.65239
_cell_angle_gamma 121.0027
loop_
_atom_site_label
_atom_site_type_symbol
_atom_site_fract_x
_atom_site_fract_y
_atom_site_fract_z
_atom_type_partial_charge
Tb0 Tb 1.00448 0.61208 0.19703 0.0
Tb1 Tb 0.20189 0.7493 0.18439 0.0
C2 C 0.86198 0.46363 0.21919 0.0
C3 C 0.84537 0.4198 0.24666 0.0
C4 C 0.93067 0.42799 0.27014 0.0
C5 C 0.91247 0.38486 0.29587 0.0
C6 C 0.80835 0.33186 0.29864 0.0
C7 C 0.72337 0.32266 0.27507 0.0
C8 C 0.74171 0.36679 0.2494 0.0
C9 C 1.03415 0.81011 0.18164 0.0
C10 C 0.21356 0.7094 0.24396 0.0
C11 C 0.34494 0.89284 0.16239 0.0
C12 C 0.36754 0.90687 0.13737 0.0
C13 C 0.43422 0.00529 0.12571 0.0
C14 C 0.45543 0.01821 0.10183 0.0
C15 C 0.40921 0.93321 0.08913 0.0
C16 C 0.34208 0.83451 0.10097 0.0
C17 C 0.32141 0.82169 0.12484 0.0
C18 C 0.17081 0.55043 0.19936 0.0
C19 C 0.99587 0.66012 0.13621 0.0
O20 O 0.93531 0.45414 0.2152 0.0
O21 O 0.86411 0.55571 0.20782 0.0
O22 O 0.10372 0.77764 0.197 0.0
O23 O 0.94529 0.73041 0.17485 0.0
O24 O 0.11755 0.63292 0.23762 0.0
O25 O 0.25973 0.77743 0.22499 0.0
O26 O 0.25667 0.89571 0.15905 0.0
O27 O 0.35716 0.81556 0.18149 0.0
O28 O 0.10197 0.58386 0.18408 0.0
O29 O 0.25976 0.62973 0.20608 0.0
O30 O 0.09596 0.72743 0.14366 0.0
O31 O 0.94182 0.59796 0.15433 0.0
H32 H 1.01129 0.46642 0.26864 0.0
H33 H 0.97979 0.3908 0.31345 0.0
H34 H 0.64234 0.28156 0.27651 0.0
H35 H 0.67457 0.35877 0.23161 0.0
H36 H 0.47031 0.07186 0.13514 0.0
H37 H 0.50822 0.09473 0.09328 0.0
H38 H 0.30751 0.76629 0.09237 0.0
H39 H 0.27022 0.74486 0.1337 0.0
Tb40 Tb 0.84538 0.154 0.55918 0.0
Tb41 Tb 0.736 0.93699 0.55089 0.0
C42 C 0.90019 0.32015 0.57255 0.0
C43 C 0.95081 0.36079 0.59776 0.0
C44 C 0.90857 0.41308 0.60281 0.0
C45 C 0.95608 0.4543 0.62629 0.0
C46 C 1.04697 0.44387 0.64514 0.0
C47 C 0.08957 0.39198 0.63999 0.0
C48 C 1.0413 0.34974 0.61661 0.0
C49 C 0.97201 0.08536 0.55855 0.0
C50 C 0.81354 0.96526 0.61045 0.0
C51 C 0.67009 0.77567 0.53355 0.0
C52 C 0.6159 0.75114 0.50593 0.0
C53 C 0.66682 0.80513 0.48503 0.0
C54 C 0.61127 0.78846 0.45848 0.0
C55 C 0.5035 0.71629 0.45224 0.0
C56 C 0.45382 0.66064 0.47332 0.0
C57 C 0.50931 0.67749 0.49982 0.0
C58 C 0.61082 0.00865 0.551 0.0
C59 C 0.77871 0.12815 0.50034 0.0
O60 O 0.80456 0.24363 0.57032 0.0
O61 O 0.95939 0.30581 0.56395 0.0
O62 O 0.89582 0.03378 0.56923 0.0
O63 O 0.98473 0.1809 0.54974 0.0
O64 O 0.82727 0.06305 0.59995 0.0
O65 O 0.79306 0.9031 0.59513 0.0
O66 O 0.76918 0.84568 0.53802 0.0
O67 O 0.61554 0.78833 0.54417 0.0
O68 O 0.68655 0.05798 0.54022 0.0
O69 O 0.59917 0.91366 0.56095 0.0
O70 O 0.76098 0.02946 0.51081 0.0
O71 O 0.79735 0.19023 0.51524 0.0
H72 H 0.83917 0.4228 0.58845 0.0
H73 H 0.92284 0.49622 0.62932 0.0
H74 H 0.15962 0.38327 0.65422 0.0
H75 H 0.0751 0.3091 0.61323 0.0
H76 H 0.74903 0.86233 0.48899 0.0
H77 H 0.65276 0.8348 0.44297 0.0
H78 H 0.37108 0.60462 0.46923 0.0
H79 H 0.46799 0.63452 0.51548 0.0
Tb80 Tb 0.81335 0.85059 0.86776 0.0
Tb81 Tb 0.958 0.75556 0.87793 0.0
C82 C 0.66199 0.87623 0.86671 0.0
C83 C 0.62306 0.87474 0.88739 0.0
C84 C 0.51376 0.83645 0.88318 0.0
C85 C 0.47526 0.83175 0.903 0.0
C86 C 0.54545 0.86666 0.92713 0.0
C87 C 0.65511 0.90346 0.93149 0.0
C88 C 0.69349 0.90724 0.91179 0.0
C89 C 1.01384 -0.01652 0.87155 0.0
C90 C 0.92093 0.7636 0.92886 0.0
C91 C 0.10386 0.72409 0.87807 0.0
C92 C 0.11628 0.68788 0.85868 0.0
C93 C 0.20466 0.74922 0.84818 0.0
C94 C 0.21335 0.71997 0.82819 0.0
C95 C 0.13274 0.62915 0.81815 0.0
C96 C 1.04608 0.56644 0.82929 0.0
C97 C 1.03747 0.59563 0.84923 0.0
C98 C 0.75647 0.62291 0.87322 0.0
C99 C 0.854 0.84689 0.81654 0.0
O100 O 0.65299 0.7864 0.86644 0.0
O101 O 0.75396 0.95309 0.86398 0.0
O102 O 0.97926 0.89312 0.88545 0.0
O103 O 0.9351 0.00615 0.85617 0.0
O104 O 0.84148 0.78712 0.91202 0.0
O105 O 0.9882 0.76253 0.91965 0.0
O106 O 0.10371 0.81605 0.86967 0.0
O107 O 1.03041 0.65585 0.89058 0.0
O108 O 0.79293 0.71398 0.85996 0.0
O109 O 0.83431 0.59866 0.88818 0.0
O110 O 0.9263 0.81302 0.83344 0.0
O111 O 0.79198 0.85771 0.82546 0.0
H112 H 0.4582 0.80948 0.86465 0.0
H113 H 0.39048 0.80123 0.89947 0.0
H114 H 0.71134 0.92723 0.95028 0.0
H115 H 0.77809 0.93474 0.91572 0.0
H116 H 0.26591 0.82104 0.85503 0.0
H117 H 0.28279 0.76905 0.82064 0.0
H118 H 0.98306 0.49599 0.82199 0.0
H119 H 0.9678 0.54699 0.85675 0.0
H120 H 0.96734 0.92474 0.16577 0.0
C121 C 1.03741 0.91336 0.179 0.0
H122 H 0.18477 -0.02297 0.20717 0.0
H123 H 0.08764 0.3976 0.13935 0.0
H124 H 0.09218 0.36754 0.0996 0.0
H125 H 0.1075 0.21187 0.10146 0.0
H126 H 0.11754 0.08458 0.14302 0.0
C127 C 0.11661 -0.0104 0.19284 0.0
C128 C 0.10905 0.08738 0.19141 0.0
C129 C 0.10381 0.16257 0.16698 0.0
C130 C 0.09674 0.25424 0.16603 0.0
C131 C 0.09238 0.3269 0.14129 0.0
C132 C 0.09539 0.31087 0.1183 0.0
C133 C 0.10387 0.22312 0.11934 0.0
C134 C 0.10863 0.15003 0.14332 0.0
H135 H 0.23745 0.43584 0.21517 0.0
C136 C 0.16736 0.44717 0.20191 0.0
H137 H 1.02035 0.38329 0.17367 0.0
H138 H 0.12176 0.96485 0.24186 0.0
H139 H 0.11945 -0.00406 0.28175 0.0
H140 H 0.10233 0.1507 0.2798 0.0
H141 H 0.08905 0.27642 0.23805 0.0
C142 C 0.08848 0.37087 0.18808 0.0
C143 C 0.09678 0.2734 0.18957 0.0
C144 C 0.1026 0.19846 0.21404 0.0
C145 C 0.11007 0.10699 0.21501 0.0
C146 C 0.11624 0.03518 0.23987 0.0
C147 C 0.11453 0.05181 0.26295 0.0
C148 C 0.1051 0.13908 0.26186 0.0
C149 C 0.09848 0.21128 0.23776 0.0
H150 H 0.5535 0.12925 0.53956 0.0
C151 C 0.53642 0.04811 0.54881 0.0
H152 H 0.4297 0.9038 0.56605 0.0
H153 H 0.29126 0.214 0.58593 0.0
H154 H 0.46963 0.28405 0.61533 0.0
H155 H 0.60338 0.23342 0.61807 0.0
H156 H 0.56 0.11305 0.59136 0.0
C157 C 0.44855 -0.01416 0.55774 0.0
C158 C 0.3699 0.02217 0.55514 0.0
C159 C 0.3961 0.0922 0.57109 0.0
C160 C 0.31821 0.12051 0.56974 0.0
C161 C 0.34706 0.19028 0.586 0.0
C162 C 0.44912 0.2308 0.60306 0.0
C163 C 0.52444 0.20234 0.6046 0.0
C164 C 0.49856 0.13348 0.58899 0.0
H165 H 1.03053 0.96647 0.56882 0.0
C166 C 1.04666 0.04765 0.55996 0.0
H167 H 0.15131 0.19379 0.54274 0.0
H168 H 0.2926 0.888 0.52151 0.0
H169 H 0.11529 0.82108 0.49135 0.0
H170 H 0.98204 0.87281 0.4884 0.0
H171 H 1.02457 -0.00945 0.51579 0.0
C172 C 0.13374 0.11187 0.55076 0.0
C173 C 0.21333 0.07789 0.55277 0.0
C174 C 0.18756 0.00909 0.53653 0.0
C175 C 0.26536 -0.01944 0.53792 0.0
C176 C 0.23684 0.91187 0.52139 0.0
C177 C 0.13543 0.8732 0.50389 0.0
C178 C 0.06034 0.9022 0.50226 0.0
C179 C 0.08572 0.96953 0.51824 0.0
H180 H 0.18558 0.02859 0.88974 0.0
C181 C 0.12742 0.05707 0.87566 0.0
H182 H 0.10288 0.18737 0.84913 0.0
H183 H 0.56272 0.48067 0.91678 0.0
H184 H 0.45877 0.45771 0.94426 0.0
H185 H 0.26987 0.33158 0.93704 0.0
H186 H 0.18359 0.22747 0.9023 0.0
C187 C 0.16015 0.15753 0.86303 0.0
C188 C 0.27508 0.23149 0.86793 0.0
C189 C 0.32412 0.29237 0.88814 0.0
C190 C 0.43316 0.36521 0.89231 0.0
C191 C 0.48017 0.42448 0.91274 0.0
C192 C 0.42142 0.41207 0.92865 0.0
C193 C 0.31505 0.34104 0.92458 0.0
C194 C 0.26651 0.28176 0.90459 0.0
H195 H 0.58517 0.57993 0.85456 0.0
C196 C 0.64244 0.5505 0.86877 0.0
H197 H 0.66474 0.41941 0.89549 0.0
H198 H 0.20519 0.12836 0.8273 0.0
H199 H 0.30938 0.15055 0.8 0.0
H200 H 0.49846 0.27613 0.80734 0.0
H201 H 0.58473 0.38039 0.84205 0.0
C202 C 0.60831 0.45003 0.88139 0.0
C203 C 0.49306 0.37702 0.87627 0.0
C204 C 0.444 0.31611 0.85607 0.0
C205 C 0.33489 0.24347 0.85186 0.0
C206 C 0.28784 0.18426 0.83141 0.0
C207 C 0.34672 0.19625 0.8156 0.0
C208 C 0.45318 0.26702 0.81972 0.0
C209 C 0.50172 0.32636 0.83971 0.0
H210 H 0.41998 0.80319 0.94752 0.0
C211 C 0.50149 0.85991 0.94772 0.0
H212 H 0.63487 -0.01479 0.96554 0.0
H213 H 0.36631 0.05278 1.01409 0.0
H214 H 0.39073 0.19897 0.97616 0.0
H215 H 0.46948 0.21518 0.94245 0.0
H216 H 0.5238 0.08558 0.94638 0.0
C217 C 0.55644 0.92232 0.96599 0.0
C218 C 0.50876 0.91185 0.98628 0.0
C219 C 0.47825 -0.01118 0.98376 0.0
C220 C 0.43336 -0.02038 1.00325 0.0
C221 C 0.40188 0.05665 1.00002 0.0
C222 C 0.41511 0.14074 0.97828 0.0
C223 C 0.45935 0.14989 0.95929 0.0
C224 C 0.4905 0.07501 0.96185 0.0
H225 H 0.51391 0.0126 0.06191 0.0
C226 C 0.43848 0.94832 0.06477 0.0
H227 H 0.30135 0.82156 0.04836 0.0
H228 H 0.56541 0.75411 0.99802 0.0
H229 H 0.53912 0.60718 1.03561 0.0
H230 H 0.45673 0.58866 0.06875 0.0
H231 H 0.40108 0.71755 0.06462 0.0
C232 C 0.37796 0.88547 0.04656 0.0
C233 C 0.41967 0.89365 1.02525 0.0
C234 C 0.44884 0.81589 1.02756 0.0
C235 C 0.49469 0.82563 1.00823 0.0
C236 C 0.52763 0.74932 1.0117 0.0
C237 C 0.51359 0.66478 1.0333 0.0
C238 C 0.46736 0.65444 0.05198 0.0
C239 C 0.43558 0.72899 0.04932 0.0
H240 H 0.79875 0.25391 0.46405 0.0
C241 C 0.78137 0.17188 0.47164 0.0
H242 H 0.7563 0.03525 0.46307 0.0
H243 H 0.69078 0.34791 0.34141 0.0
H244 H 0.53873 0.33154 0.34989 0.0
H245 H 0.49589 0.23516 0.39351 0.0
H246 H 0.60656 0.1566 0.42917 0.0
C247 C 0.76963 0.1161 0.45534 0.0
C248 C 0.78785 0.16515 0.42774 0.0
C249 C 0.7196 0.20652 0.40656 0.0
C250 C 0.74097 0.25715 0.38078 0.0
C251 C 0.67553 0.30397 0.36081 0.0
C252 C 0.58831 0.29595 0.3655 0.0
C253 C 0.56445 0.24207 0.3901 0.0
C254 C 0.62908 0.19788 0.41047 0.0
H255 H 0.70763 0.21643 0.3262 0.0
C256 C 0.785 0.28162 0.32557 0.0
H257 H 0.92948 0.38101 0.34873 0.0
H258 H 0.93334 0.0921 0.46339 0.0
H259 H 0.07963 0.09966 0.45416 0.0
H260 H 0.11174 0.17982 0.409 0.0
H261 H 0.99806 0.25344 0.3728 0.0
C262 C 0.85225 0.31529 0.34879 0.0
C263 C 0.82747 0.26156 0.37564 0.0
C264 C 0.89388 0.21752 0.39663 0.0
C265 C 0.87429 0.16967 0.42262 0.0
C266 C 0.94333 0.12808 0.44319 0.0
C267 C 1.02793 0.13206 0.4382 0.0
C268 C 1.04612 0.17735 0.41279 0.0
C269 C 0.98026 0.21962 0.39219 0.0
H270 H 0.77422 0.89336 0.77387 0.0
C271 C 0.83709 0.86956 0.78664 0.0
H272 H 0.95669 0.8374 0.78704 0.0
H273 H 0.73736 0.74725 0.66704 0.0
H274 H 0.72596 0.57855 0.69356 0.0
H275 H 0.78408 0.54884 0.74341 0.0
H276 H 0.85096 0.6874 0.767 0.0
C277 C 0.89529 0.86356 0.77463 0.0
C278 C 0.87451 0.88689 0.74421 0.0
C279 C 0.84042 0.80691 0.73045 0.0
C280 C 0.81292 0.82599 0.70147 0.0
C281 C 0.76784 0.74054 0.68871 0.0
C282 C 0.75889 0.64227 0.70377 0.0
C283 C 0.79119 0.62541 0.73183 0.0
C284 C 0.82992 0.70592 0.74512 0.0
H285 H 0.88025 0.88509 0.65021 0.0
C286 C 0.83406 0.92943 0.64036 0.0
H287 H 0.75175 -0.00444 0.64477 0.0
H288 H 0.95084 0.06211 0.76371 0.0
H289 H 0.9724 0.23394 0.7375 0.0
H290 H 0.93408 0.26965 0.68782 0.0
H291 H 0.87332 0.13449 0.66408 0.0
C292 C 0.79886 0.9518 0.65536 0.0
C293 C 0.82776 0.92801 0.68605 0.0
C294 C 0.86676 0.00917 0.70005 0.0
C295 C 0.88928 -0.01144 0.72891 0.0
C296 C 0.92916 0.07201 0.74195 0.0
C297 C 0.94348 0.17174 0.72716 0.0
C298 C 0.92193 0.1919 0.69921 0.0
C299 C 0.88553 0.11258 0.68577 0.0
H300 H 1.01375 0.73576 0.97126 0.0
C301 C 0.94232 0.74592 0.95877 0.0
H302 H 0.80678 0.75024 0.95921 0.0
H303 H 0.84163 0.49886 0.08184 0.0
H304 H 0.68906 0.36646 0.05777 0.0
H305 H 0.63349 0.39853 1.00788 0.0
H306 H 0.73198 0.56299 0.98173 0.0
C307 C 0.88036 0.74365 0.97114 0.0
C308 C 0.90869 0.72866 1.00151 0.0
C309 C 0.84764 0.63437 1.01672 0.0
C310 C 0.87728 0.61752 0.04568 0.0
C311 C 0.81971 0.51871 0.06001 0.0
C312 C 0.73247 0.44121 0.04641 0.0
C313 C 0.70135 0.45913 1.01831 0.0
C314 C 0.75843 0.55403 1.00355 0.0
H315 H 0.86098 0.63546 0.09885 0.0
C316 C 0.9453 0.65588 0.10684 0.0
H317 H 0.08734 0.69954 0.09893 0.0
H318 H 1.03786 0.92203 0.97892 0.0
H319 H 0.18793 0.05706 1.0026 0.0
H320 H 0.23706 0.03088 0.05233 0.0
H321 H 0.13548 0.87053 0.07862 0.0
C322 C 1.00359 0.68115 0.0901 0.0
C323 C 0.96522 0.69749 0.05956 0.0
C324 C 1.02444 0.79314 0.04414 0.0
C325 C 0.99649 0.80842 1.0153 0.0
C326 C 0.05675 0.90513 1.00076 0.0
C327 C 0.14287 -0.01619 1.0141 0.0
C328 C 0.17039 0.96913 0.04208 0.0
C329 C 0.11169 0.8758 0.05697 0.0
H330 H 0.35546 0.77213 0.27693 0.0
C331 C 0.27059 0.72216 0.27238 0.0
H332 H 0.13736 0.62855 0.28798 0.0
H333 H 0.39263 0.52821 0.40915 0.0
H334 H 0.28182 0.35686 0.3976 0.0
H335 H 0.17205 0.33637 0.3509 0.0
H336 H 0.1731 0.48722 0.31545 0.0
C337 C 0.22214 0.67847 0.2923 0.0
C338 C 0.28337 0.6917 0.32096 0.0
C339 C 0.28225 0.60262 0.34157 0.0
C340 C 0.34517 0.6144 0.36862 0.0
C341 C 0.34454 0.52402 0.38848 0.0
C342 C 0.2818 0.425 0.38209 0.0
C343 C 0.22011 0.41348 0.35579 0.0
C344 C 0.22093 0.5009 0.33565 0.0
H345 H 0.35266 0.6598 0.42035 0.0
C346 C 0.43854 0.69977 0.42407 0.0
H347 H 0.56386 0.76947 0.4057 0.0
H348 H 0.28767 0.87754 0.28803 0.0
H349 H 0.39617 0.04875 0.29978 0.0
H350 H 0.5132 0.06996 0.34593 0.0
H351 H 0.52044 0.91963 0.38074 0.0
C352 C 0.47891 0.72955 0.40313 0.0
C353 C 0.40905 0.71539 0.37513 0.0
C354 C 0.40826 0.80428 0.35469 0.0
C355 C 0.34363 0.79238 0.32778 0.0
C356 C 0.33923 0.88221 0.30838 0.0
C357 C 0.40027 -0.01895 0.31494 0.0
C358 C 0.46591 -0.00703 0.34094 0.0
C359 C 0.46961 0.90592 0.3607 0.0
H360 H 0.07879 0.51883 0.79234 0.0
C361 C 0.13343 0.59811 0.79561 0.0
H362 H 0.23824 0.74613 0.77861 0.0
H363 H 0.14322 0.37833 0.71866 0.0
H364 H 0.24602 0.31699 0.76158 0.0
H365 H 0.31915 0.40216 0.80053 0.0
H366 H 0.28662 0.54673 0.79696 0.0
C367 C 0.18855 0.66446 0.77741 0.0
C368 C 0.16775 0.63061 0.75266 0.0
C369 C 0.19196 0.54969 0.75467 0.0
C370 C 0.15397 0.50409 0.73183 0.0
C371 C 0.17314 0.41857 0.73498 0.0
C372 C 0.23173 0.38212 0.7596 0.0
C373 C 0.27241 0.42957 0.78157 0.0
C374 C 0.2528 0.51222 0.77928 0.0
H375 H 0.18571 0.51944 0.67754 0.0
C376 C 0.09983 0.48892 0.66988 0.0
H377 H 0.9583 0.45816 0.67616 0.0
H378 H 0.1154 0.79115 0.74142 0.0
H379 H 1.02572 0.86254 0.69758 0.0
H380 H 0.97033 0.79052 0.65725 0.0
H381 H 1.00144 0.64591 0.66073 0.0
C382 C 1.04428 0.48996 0.6834 0.0
C383 C 0.09589 0.5431 0.70677 0.0
C384 C 0.07943 0.62966 0.7043 0.0
C385 C 0.1144 0.67291 0.72733 0.0
C386 C 0.09248 0.75639 0.72449 0.0
C387 C 1.04082 0.79808 0.69944 0.0
C388 C 1.00922 0.75748 0.67678 0.0
C389 C 1.02757 0.67409 0.67907 0.0
loop_
_geom_bond_atom_site_label_1
_geom_bond_atom_site_label_2
_geom_bond_distance
_geom_bond_site_symmetry_2
_ccdc_geom_bond_type
Tb0 C2 2.809 . S
Tb0 O20 2.484 . S
Tb0 O21 2.440 . S
Tb0 O22 2.658 1_655 S
Tb0 O23 2.409 . S
Tb0 O24 2.378 1_655 S
Tb0 O28 2.325 . S
Tb0 O31 2.341 . S
Tb1 C11 2.809 . S
Tb1 O22 2.325 . S
Tb1 O25 2.341 . S
Tb1 O26 2.484 . S
Tb1 O27 2.440 . S
Tb1 O28 2.658 1_455 S
Tb1 O29 2.409 . S
Tb1 O30 2.378 1_455 S
C2 Tb0 2.809 . S
C2 C3 1.514 . S
C2 O20 1.248 . S
C2 O21 1.266 . S
C3 C2 1.514 . S
C3 C4 1.359 . S
C3 C8 1.348 . S
C4 C3 1.359 . S
C4 C5 1.380 . S
C4 H32 0.929 . S
C5 C4 1.380 . S
C5 C6 1.347 . S
C5 H33 0.931 . S
C6 C5 1.347 . S
C6 C7 1.369 . S
C7 C6 1.369 . S
C7 C8 1.408 . S
C7 H34 0.930 . S
C8 C3 1.348 . S
C8 C7 1.408 . S
C8 H35 0.930 . S
C9 O22 1.281 1_655 S
C9 O23 1.254 . S
C10 O24 1.236 . S
C10 O25 1.266 . S
C11 Tb1 2.809 . S
C11 C12 1.514 . S
C11 O26 1.248 . S
C11 O27 1.266 . S
C12 C11 1.514 . S
C12 C13 1.359 . S
C12 C17 1.348 . S
C13 C12 1.359 . S
C13 C14 1.380 1_565 S
C13 H36 0.929 . S
C14 C13 1.380 1_545 S
C14 C15 1.347 1_545 S
C14 H37 0.931 . S
C15 C14 1.347 1_565 S
C15 C16 1.369 . S
C16 C15 1.369 . S
C16 C17 1.408 . S
C16 H38 0.930 . S
C17 C12 1.348 . S
C17 C16 1.408 . S
C17 H39 0.930 . S
C18 O28 1.281 1_455 S
C18 O29 1.254 . S
C19 O30 1.236 . S
C19 O31 1.266 . S
O20 Tb0 2.484 . S
O20 C2 1.248 . S
O21 Tb0 2.440 . S
O21 C2 1.266 . S
O22 Tb0 2.658 1_455 S
O22 Tb1 2.325 . S
O22 C9 1.281 1_455 S
O23 Tb0 2.409 . S
O23 C9 1.254 . S
O24 Tb0 2.378 1_455 S
O24 C10 1.236 . S
O25 Tb1 2.341 . S
O25 C10 1.266 . S
O26 Tb1 2.484 . S
O26 C11 1.248 . S
O27 Tb1 2.440 . S
O27 C11 1.266 . S
O28 Tb0 2.325 . S
O28 Tb1 2.658 1_655 S
O28 C18 1.281 1_655 S
O29 Tb1 2.409 . S
O29 C18 1.254 . S
O30 Tb1 2.378 1_655 S
O30 C19 1.236 . S
O31 Tb0 2.341 . S
O31 C19 1.266 . S
H32 C4 0.929 . S
H33 C5 0.931 . S
H34 C7 0.930 . S
H35 C8 0.930 . S
H36 C13 0.929 . S
H37 C14 0.931 . S
H38 C16 0.930 . S
H39 C17 0.930 . S
Tb40 C42 2.809 . S
Tb40 O60 2.484 . S
Tb40 O61 2.440 . S
Tb40 O62 2.658 1_545 S
Tb40 O63 2.409 . S
Tb40 O64 2.378 . S
Tb40 O68 2.325 . S
Tb40 O71 2.341 . S
Tb41 C51 2.809 . S
Tb41 O62 2.325 . S
Tb41 O65 2.341 . S
Tb41 O66 2.484 . S
Tb41 O67 2.440 . S
Tb41 O68 2.658 1_565 S
Tb41 O69 2.409 . S
Tb41 O70 2.378 1_565 S
C42 Tb40 2.809 . S
C42 C43 1.514 . S
C42 O60 1.248 . S
C42 O61 1.266 . S
C43 C42 1.514 . S
C43 C44 1.359 . S
C43 C48 1.348 1_655 S
C44 C43 1.359 . S
C44 C45 1.380 . S
C44 H72 0.929 . S
C45 C44 1.380 . S
C45 C46 1.347 . S
C45 H73 0.931 . S
C46 C45 1.347 . S
C46 C47 1.369 1_655 S
C47 C46 1.369 1_455 S
C47 C48 1.408 . S
C47 H74 0.930 . S
C48 C43 1.348 1_455 S
C48 C47 1.408 . S
C48 H75 0.930 . S
C49 O62 1.281 1_545 S
C49 O63 1.254 . S
C50 O64 1.236 1_565 S
C50 O65 1.266 . S
C51 Tb41 2.809 . S
C51 C52 1.514 . S
C51 O66 1.248 . S
C51 O67 1.266 . S
C52 C51 1.514 . S
C52 C53 1.359 . S
C52 C57 1.348 . S
C53 C52 1.359 . S
C53 C54 1.380 . S
C53 H76 0.929 . S
C54 C53 1.380 . S
C54 C55 1.347 . S
C54 H77 0.931 . S
C55 C54 1.347 . S
C55 C56 1.369 . S
C56 C55 1.369 . S
C56 C57 1.408 . S
C56 H78 0.930 . S
C57 C52 1.348 . S
C57 C56 1.408 . S
C57 H79 0.930 . S
C58 O68 1.281 1_565 S
C58 O69 1.254 . S
C59 O70 1.236 . S
C59 O71 1.266 . S
O60 Tb40 2.484 . S
O60 C42 1.248 . S
O61 Tb40 2.440 . S
O61 C42 1.266 . S
O62 Tb40 2.658 1_565 S
O62 Tb41 2.325 . S
O62 C49 1.281 1_565 S
O63 Tb40 2.409 . S
O63 C49 1.254 . S
O64 Tb40 2.378 . S
O64 C50 1.236 1_545 S
O65 Tb41 2.341 . S
O65 C50 1.266 . S
O66 Tb41 2.484 . S
O66 C51 1.248 . S
O67 Tb41 2.440 . S
O67 C51 1.266 . S
O68 Tb40 2.325 . S
O68 Tb41 2.658 1_545 S
O68 C58 1.281 1_545 S
O69 Tb41 2.409 . S
O69 C58 1.254 . S
O70 Tb41 2.378 1_545 S
O70 C59 1.236 . S
O71 Tb40 2.341 . S
O71 C59 1.266 . S
H72 C44 0.929 . S
H73 C45 0.931 . S
H74 C47 0.930 . S
H75 C48 0.930 . S
H76 C53 0.929 . S
H77 C54 0.931 . S
H78 C56 0.930 . S
H79 C57 0.930 . S
Tb80 C82 2.809 1_565 S
Tb80 O100 2.484 . S
Tb80 O101 2.440 1_565 S
Tb80 O102 2.658 . S
Tb80 O103 2.409 1_565 S
Tb80 O104 2.378 . S
Tb80 O108 2.325 . S
Tb80 O111 2.341 . S
Tb81 C91 2.809 1_655 S
Tb81 O102 2.325 . S
Tb81 O105 2.341 . S
Tb81 O106 2.484 1_655 S
Tb81 O107 2.440 . S
Tb81 O108 2.658 . S
Tb81 O109 2.409 . S
Tb81 O110 2.378 . S
C82 Tb80 2.809 1_545 S
C82 C83 1.514 . S
C82 O100 1.248 1_545 S
C82 O101 1.266 . S
C83 C82 1.514 . S
C83 C84 1.359 1_545 S
C83 C88 1.348 . S
C84 C83 1.359 1_565 S
C84 C85 1.380 . S
C84 H112 0.929 . S
C85 C84 1.380 . S
C85 C86 1.347 1_565 S
C85 H113 0.931 . S
C86 C85 1.347 1_545 S
C86 C87 1.369 . S
C87 C86 1.369 . S
C87 C88 1.408 . S
C87 H114 0.930 . S
C88 C83 1.348 . S
C88 C87 1.408 . S
C88 H115 0.930 . S
C89 O102 1.281 1_445 S
C89 O103 1.254 1_455 S
C90 O104 1.236 . S
C90 O105 1.266 . S
C91 Tb81 2.809 1_455 S
C91 C92 1.514 . S
C91 O106 1.248 . S
C91 O107 1.266 1_455 S
C92 C91 1.514 . S
C92 C93 1.359 . S
C92 C97 1.348 1_455 S
C93 C92 1.359 . S
C93 C94 1.380 . S
C93 H116 0.929 . S
C94 C93 1.380 . S
C94 C95 1.347 . S
C94 H117 0.931 . S
C95 C94 1.347 . S
C95 C96 1.369 . S
C96 C95 1.369 . S
C96 C97 1.408 1_455 S
C96 H118 0.930 1_455 S
C97 C92 1.348 1_655 S
C97 C96 1.408 1_655 S
C97 H119 0.930 . S
C98 O108 1.281 . S
C98 O109 1.254 . S
C99 O110 1.236 . S
C99 O111 1.266 . S
O100 Tb80 2.484 . S
O100 C82 1.248 1_565 S
O101 Tb80 2.440 1_545 S
O101 C82 1.266 . S
O102 Tb80 2.658 . S
O102 Tb81 2.325 . S
O102 C89 1.281 1_665 S
O103 Tb80 2.409 1_545 S
O103 C89 1.254 1_655 S
O104 Tb80 2.378 . S
O104 C90 1.236 . S
O105 Tb81 2.341 . S
O105 C90 1.266 . S
O106 Tb81 2.484 1_455 S
O106 C91 1.248 . S
O107 Tb81 2.440 . S
O107 C91 1.266 1_655 S
O108 Tb80 2.325 . S
O108 Tb81 2.658 . S
O108 C98 1.281 . S
O109 Tb81 2.409 . S
O109 C98 1.254 . S
O110 Tb81 2.378 . S
O110 C99 1.236 . S
O111 Tb80 2.341 . S
O111 C99 1.266 . S
H112 C84 0.929 . S
H113 C85 0.931 . S
H114 C87 0.930 . S
H115 C88 0.930 . S
H116 C93 0.929 . S
H117 C94 0.931 . S
H118 C96 0.930 1_655 S
H119 C97 0.930 . S
H120 C121 0.951 . S
C121 H120 0.951 . S
C121 C127 1.265 1_665 S
H122 C127 0.950 . S
H123 C131 0.949 . S
H124 C132 0.950 . S
H125 C133 0.951 . S
H126 C134 0.951 . S
C127 C121 1.265 1_445 S
C127 H122 0.950 . S
C127 C128 1.478 . S
C128 C127 1.478 . S
C128 C129 1.397 . S
C128 C145 1.394 1_455 S
C129 C128 1.397 . S
C129 C130 1.438 . S
C129 C134 1.429 . S
C130 C129 1.438 . S
C130 C131 1.428 . S
C130 C143 1.394 1_455 S
C131 H123 0.949 . S
C131 C130 1.428 . S
C131 C132 1.345 . S
C132 H124 0.950 . S
C132 C131 1.345 . S
C132 C133 1.424 . S
C133 H125 0.951 . S
C133 C132 1.424 . S
C133 C134 1.347 . S
C134 H126 0.951 . S
C134 C129 1.429 . S
C134 C133 1.347 . S
H135 C136 0.951 . S
C136 H135 0.951 . S
C136 C142 1.265 1_455 S
H137 C142 0.950 . S
H138 C146 0.949 . S
H139 C147 0.950 . S
H140 C148 0.951 . S
H141 C149 0.951 . S
C142 C136 1.265 1_655 S
C142 H137 0.950 . S
C142 C143 1.478 . S
C143 C130 1.394 1_655 S
C143 C142 1.478 . S
C143 C144 1.397 . S
C144 C143 1.397 . S
C144 C145 1.438 . S
C144 C149 1.429 . S
C145 C128 1.394 1_655 S
C145 C144 1.438 . S
C145 C146 1.428 1_545 S
C146 H138 0.949 . S
C146 C145 1.428 1_565 S
C146 C147 1.345 . S
C147 H139 0.950 . S
C147 C146 1.345 . S
C147 C148 1.424 1_565 S
C148 H140 0.951 . S
C148 C147 1.424 1_545 S
C148 C149 1.347 . S
C149 H141 0.951 . S
C149 C144 1.429 . S
C149 C148 1.347 . S
H150 C151 0.951 . S
C151 H150 0.951 . S
C151 C157 1.265 1_545 S
H152 C157 0.950 . S
H153 C161 0.949 . S
H154 C162 0.950 . S
H155 C163 0.951 . S
H156 C164 0.951 . S
C157 C151 1.265 1_565 S
C157 H152 0.950 . S
C157 C158 1.473 1_565 S
C158 C157 1.473 1_545 S
C158 C159 1.405 . S
C158 C175 1.390 1_545 S
C159 C158 1.405 . S
C159 C160 1.438 . S
C159 C164 1.429 . S
C160 C159 1.438 . S
C160 C161 1.428 . S
C160 C173 1.394 . S
C161 H153 0.949 . S
C161 C160 1.428 . S
C161 C162 1.345 . S
C162 H154 0.950 . S
C162 C161 1.345 . S
C162 C163 1.424 . S
C163 H155 0.951 . S
C163 C162 1.424 . S
C163 C164 1.347 . S
C164 H156 0.951 . S
C164 C159 1.429 . S
C164 C163 1.347 . S
H165 C166 0.951 . S
C166 H165 0.951 . S
C166 C172 1.265 1_565 S
H167 C172 0.950 . S
H168 C176 0.949 . S
H169 C177 0.950 . S
H170 C178 0.951 1_655 S
H171 C179 0.951 1_655 S
C172 C166 1.265 1_545 S
C172 H167 0.950 . S
C172 C173 1.478 . S
C173 C160 1.394 . S
C173 C172 1.478 . S
C173 C174 1.397 1_545 S
C174 C173 1.397 1_565 S
C174 C175 1.438 . S
C174 C179 1.429 . S
C175 C158 1.390 1_565 S
C175 C174 1.438 . S
C175 C176 1.428 . S
C176 H168 0.949 . S
C176 C175 1.428 . S
C176 C177 1.345 . S
C177 H169 0.950 . S
C177 C176 1.345 . S
C177 C178 1.424 . S
C178 H170 0.951 1_455 S
C178 C177 1.424 . S
C178 C179 1.347 . S
C179 H171 0.951 1_455 S
C179 C174 1.429 . S
C179 C178 1.347 . S
H180 C181 0.951 . S
C181 H180 0.951 . S
C181 C187 1.265 . S
H182 C187 0.950 . S
H183 C191 0.949 . S
H184 C192 0.950 . S
H185 C193 0.951 . S
H186 C194 0.951 . S
C187 C181 1.265 . S
C187 H182 0.950 . S
C187 C188 1.478 . S
C188 C187 1.478 . S
C188 C189 1.397 . S
C188 C205 1.394 . S
C189 C188 1.397 . S
C189 C190 1.438 . S
C189 C194 1.429 . S
C190 C189 1.438 . S
C190 C191 1.428 . S
C190 C203 1.394 . S
C191 H183 0.949 . S
C191 C190 1.428 . S
C191 C192 1.345 . S
C192 H184 0.950 . S
C192 C191 1.345 . S
C192 C193 1.424 . S
C193 H185 0.951 . S
C193 C192 1.424 . S
C193 C194 1.347 . S
C194 H186 0.951 . S
C194 C189 1.429 . S
C194 C193 1.347 . S
H195 C196 0.951 . S
C196 H195 0.951 . S
C196 C202 1.265 . S
H197 C202 0.950 . S
H198 C206 0.949 . S
H199 C207 0.950 . S
H200 C208 0.951 . S
H201 C209 0.951 . S
C202 C196 1.265 . S
C202 H197 0.950 . S
C202 C203 1.478 . S
C203 C190 1.394 . S
C203 C202 1.478 . S
C203 C204 1.397 . S
C204 C203 1.397 . S
C204 C205 1.438 . S
C204 C209 1.429 . S
C205 C188 1.394 . S
C205 C204 1.438 . S
C205 C206 1.428 . S
C206 H198 0.949 . S
C206 C205 1.428 . S
C206 C207 1.345 . S
C207 H199 0.950 . S
C207 C206 1.345 . S
C207 C208 1.424 . S
C208 H200 0.951 . S
C208 C207 1.424 . S
C208 C209 1.347 . S
C209 H201 0.951 . S
C209 C204 1.429 . S
C209 C208 1.347 . S
H210 C211 0.951 . S
C211 H210 0.951 . S
C211 C217 1.265 . S
H212 C217 0.950 . S
H213 C221 0.949 . S
H214 C222 0.950 . S
H215 C223 0.951 . S
H216 C224 0.951 . S
C217 C211 1.265 . S
C217 H212 0.950 . S
C217 C218 1.478 . S
C218 C217 1.478 . S
C218 C219 1.397 . S
C218 C235 1.394 1_545 S
C219 C218 1.397 . S
C219 C220 1.438 . S
C219 C224 1.429 . S
C220 C219 1.438 . S
C220 C221 1.428 . S
C220 C233 1.394 . S
C221 H213 0.949 . S
C221 C220 1.428 . S
C221 C222 1.345 . S
C222 H214 0.950 . S
C222 C221 1.345 . S
C222 C223 1.424 . S
C223 H215 0.951 . S
C223 C222 1.424 . S
C223 C224 1.347 . S
C224 H216 0.951 . S
C224 C219 1.429 . S
C224 C223 1.347 . S
H225 C226 0.951 . S
C226 H225 0.951 . S
C226 C232 1.304 1_545 S
H227 C232 0.940 1_556 S
H228 C236 0.949 . S
H229 C237 0.950 . S
H230 C238 0.951 . S
H231 C239 0.913 1_554 S
C232 C226 1.304 1_565 S
C232 H227 0.940 1_554 S
C232 C233 1.449 1_564 S
C233 C220 1.394 . S
C233 C232 1.449 1_546 S
C233 C234 1.397 1_545 S
C234 C233 1.397 1_565 S
C234 C235 1.438 . S
C234 C239 1.429 . S
C235 C218 1.394 1_565 S
C235 C234 1.438 . S
C235 C236 1.428 . S
C236 H228 0.949 . S
C236 C235 1.428 . S
C236 C237 1.345 . S
C237 H229 0.950 . S
C237 C236 1.345 . S
C237 C238 1.424 . S
C238 H230 0.951 . S
C238 C237 1.424 . S
C238 C239 1.347 . S
C239 H231 0.913 1_556 S
C239 C234 1.429 . S
C239 C238 1.347 . S
H240 C241 0.951 . S
C241 H240 0.951 . S
C241 C247 1.265 . S
H242 C247 0.950 . S
H243 C251 0.949 . S
H244 C252 0.950 . S
H245 C253 0.951 . S
H246 C254 0.951 . S
C247 C241 1.265 . S
C247 H242 0.950 . S
C247 C248 1.478 . S
C248 C247 1.478 . S
C248 C249 1.397 . S
C248 C265 1.394 . S
C249 C248 1.397 . S
C249 C250 1.438 . S
C249 C254 1.429 . S
C250 C249 1.438 . S
C250 C251 1.428 . S
C250 C263 1.394 . S
C251 H243 0.949 . S
C251 C250 1.428 . S
C251 C252 1.345 . S
C252 H244 0.950 . S
C252 C251 1.345 . S
C252 C253 1.424 . S
C253 H245 0.951 . S
C253 C252 1.424 . S
C253 C254 1.347 . S
C254 H246 0.951 . S
C254 C249 1.429 . S
C254 C253 1.347 . S
H255 C256 0.951 . S
C256 H255 0.951 . S
C256 C262 1.265 . S
H257 C262 0.950 . S
H258 C266 0.949 . S
H259 C267 0.950 . S
H260 C268 0.951 . S
H261 C269 0.951 . S
C262 C256 1.265 . S
C262 H257 0.950 . S
C262 C263 1.478 . S
C263 C250 1.394 . S
C263 C262 1.478 . S
C263 C264 1.397 . S
C264 C263 1.397 . S
C264 C265 1.438 . S
C264 C269 1.429 . S
C265 C248 1.394 . S
C265 C264 1.438 . S
C265 C266 1.428 . S
C266 H258 0.949 . S
C266 C265 1.428 . S
C266 C267 1.345 . S
C267 H259 0.950 . S
C267 C266 1.345 . S
C267 C268 1.424 . S
C268 H260 0.951 . S
C268 C267 1.424 . S
C268 C269 1.347 . S
C269 H261 0.951 . S
C269 C264 1.429 . S
C269 C268 1.347 . S
H270 C271 0.951 . S
C271 H270 0.951 . S
C271 C277 1.265 . S
H272 C277 0.950 . S
H273 C281 0.949 . S
H274 C282 0.950 . S
H275 C283 0.951 . S
H276 C284 0.951 . S
C277 C271 1.265 . S
C277 H272 0.950 . S
C277 C278 1.478 . S
C278 C277 1.478 . S
C278 C279 1.397 . S
C278 C295 1.394 1_565 S
C279 C278 1.397 . S
C279 C280 1.438 . S
C279 C284 1.429 . S
C280 C279 1.438 . S
C280 C281 1.428 . S
C280 C293 1.394 . S
C281 H273 0.949 . S
C281 C280 1.428 . S
C281 C282 1.345 . S
C282 H274 0.950 . S
C282 C281 1.345 . S
C282 C283 1.424 . S
C283 H275 0.951 . S
C283 C282 1.424 . S
C283 C284 1.347 . S
C284 H276 0.951 . S
C284 C279 1.429 . S
C284 C283 1.347 . S
H285 C286 0.951 . S
C286 H285 0.951 . S
C286 C292 1.265 . S
H287 C292 0.950 . S
H288 C296 0.949 . S
H289 C297 0.950 . S
H290 C298 0.951 . S
H291 C299 0.951 . S
C292 C286 1.265 . S
C292 H287 0.950 . S
C292 C293 1.478 . S
C293 C280 1.394 . S
C293 C292 1.478 . S
C293 C294 1.397 . S
C294 C293 1.397 . S
C294 C295 1.438 1_565 S
C294 C299 1.429 1_565 S
C295 C278 1.394 1_545 S
C295 C294 1.438 1_545 S
C295 C296 1.428 . S
C296 H288 0.949 . S
C296 C295 1.428 . S
C296 C297 1.345 . S
C297 H289 0.950 . S
C297 C296 1.345 . S
C297 C298 1.424 . S
C298 H290 0.951 . S
C298 C297 1.424 . S
C298 C299 1.347 . S
C299 H291 0.951 . S
C299 C294 1.429 1_545 S
C299 C298 1.347 . S
H300 C301 0.951 1_455 S
C301 H300 0.951 1_655 S
C301 C307 1.265 . S
H302 C307 0.950 . S
H303 C311 0.949 . S
H304 C312 0.950 1_554 S
H305 C313 0.951 . S
H306 C314 0.951 . S
C307 C301 1.265 . S
C307 H302 0.950 . S
C307 C308 1.478 . S
C308 C307 1.478 . S
C308 C309 1.397 . S
C308 C325 1.394 . S
C309 C308 1.397 . S
C309 C310 1.438 1_556 S
C309 C314 1.429 . S
C310 C309 1.438 1_554 S
C310 C311 1.428 . S
C310 C323 1.394 . S
C311 H303 0.949 . S
C311 C310 1.428 . S
C311 C312 1.345 1_554 S
C312 H304 0.950 1_556 S
C312 C311 1.345 1_556 S
C312 C313 1.424 . S
C313 H305 0.951 . S
C313 C312 1.424 . S
C313 C314 1.347 . S
C314 H306 0.951 . S
C314 C309 1.429 . S
C314 C313 1.347 . S
H315 C316 0.951 . S
C316 H315 0.951 . S
C316 C322 1.265 . S
H317 C322 0.950 1_455 S
H318 C326 0.949 . S
H319 C327 0.950 . S
H320 C328 0.951 . S
H321 C329 0.951 . S
C322 C316 1.265 . S
C322 H317 0.950 1_655 S
C322 C323 1.478 . S
C323 C310 1.394 . S
C323 C322 1.478 . S
C323 C324 1.397 . S
C324 C323 1.397 . S
C324 C325 1.438 1_554 S
C324 C329 1.429 1_655 S
C325 C308 1.394 . S
C325 C324 1.438 1_556 S
C325 C326 1.428 1_655 S
C326 H318 0.949 . S
C326 C325 1.428 1_455 S
C326 C327 1.345 1_565 S
C327 H319 0.950 . S
C327 C326 1.345 1_545 S
C327 C328 1.424 1_556 S
C328 H320 0.951 . S
C328 C327 1.424 1_554 S
C328 C329 1.347 1_545 S
C329 H321 0.951 . S
C329 C324 1.429 1_455 S
C329 C328 1.347 1_565 S
H330 C331 0.951 . S
C331 H330 0.951 . S
C331 C337 1.265 . S
H332 C337 0.950 . S
H333 C341 0.949 . S
H334 C342 0.950 . S
H335 C343 0.951 . S
H336 C344 0.951 . S
C337 C331 1.265 . S
C337 H332 0.950 . S
C337 C338 1.478 . S
C338 C337 1.478 . S
C338 C339 1.397 . S
C338 C355 1.394 . S
C339 C338 1.397 . S
C339 C340 1.438 . S
C339 C344 1.429 . S
C340 C339 1.438 . S
C340 C341 1.428 . S
C340 C353 1.394 . S
C341 H333 0.949 . S
C341 C340 1.428 . S
C341 C342 1.345 . S
C342 H334 0.950 . S
C342 C341 1.345 . S
C342 C343 1.424 . S
C343 H335 0.951 . S
C343 C342 1.424 . S
C343 C344 1.347 . S
C344 H336 0.951 . S
C344 C339 1.429 . S
C344 C343 1.347 . S
H345 C346 0.951 . S
C346 H345 0.951 . S
C346 C352 1.265 . S
H347 C352 0.950 . S
H348 C356 0.949 . S
H349 C357 0.950 . S
H350 C358 0.951 . S
H351 C359 0.951 . S
C352 C346 1.265 . S
C352 H347 0.950 . S
C352 C353 1.478 . S
C353 C340 1.394 . S
C353 C352 1.478 . S
C353 C354 1.397 . S
C354 C353 1.397 . S
C354 C355 1.438 . S
C354 C359 1.429 . S
C355 C338 1.394 . S
C355 C354 1.438 . S
C355 C356 1.428 . S
C356 H348 0.949 . S
C356 C355 1.428 . S
C356 C357 1.345 . S
C357 H349 0.950 . S
C357 C356 1.345 . S
C357 C358 1.424 . S
C358 H350 0.951 . S
C358 C357 1.424 . S
C358 C359 1.347 . S
C359 H351 0.951 . S
C359 C354 1.429 . S
C359 C358 1.347 . S
H360 C361 0.951 . S
C361 H360 0.951 . S
C361 C367 1.265 . S
H362 C367 0.950 . S
H363 C371 0.949 . S
H364 C372 0.950 . S
H365 C373 0.951 . S
H366 C374 0.951 . S
C367 C361 1.265 . S
C367 H362 0.950 . S
C367 C368 1.478 . S
C368 C367 1.478 . S
C368 C369 1.397 . S
C368 C385 1.394 . S
C369 C368 1.397 . S
C369 C370 1.438 . S
C369 C374 1.429 . S
C370 C369 1.438 . S
C370 C371 1.428 . S
C370 C383 1.394 1_455 S
C371 H363 0.949 . S
C371 C370 1.428 . S
C371 C372 1.345 . S
C372 H364 0.950 . S
C372 C371 1.345 . S
C372 C373 1.424 . S
C373 H365 0.951 . S
C373 C372 1.424 . S
C373 C374 1.347 . S
C374 H366 0.951 . S
C374 C369 1.429 . S
C374 C373 1.347 . S
H375 C376 0.951 1_455 S
C376 H375 0.951 1_655 S
C376 C382 1.265 . S
H377 C382 0.950 . S
H378 C386 0.949 . S
H379 C387 0.950 . S
H380 C388 0.951 . S
H381 C389 0.951 . S
C382 C376 1.265 . S
C382 H377 0.950 . S
C382 C383 1.478 . S
C383 C370 1.394 1_655 S
C383 C382 1.478 . S
C383 C384 1.397 . S
C384 C383 1.397 . S
C384 C385 1.438 1_655 S
C384 C389 1.429 . S
C385 C368 1.394 . S
C385 C384 1.438 1_455 S
C385 C386 1.428 . S
C386 H378 0.949 . S
C386 C385 1.428 . S
C386 C387 1.345 1_455 S
C387 H379 0.950 . S
C387 C386 1.345 1_655 S
C387 C388 1.424 . S
C388 H380 0.951 . S
C388 C387 1.424 . S
C388 C389 1.347 . S
C389 H381 0.951 . S
C389 C384 1.429 . S
C389 C388 1.347 . S
C121 C9 1.461 . S
C136 C18 1.461 . S
C151 C58 1.585 1_545 S
C166 C49 1.585 1_465 S
C181 C89 1.353 . S
C196 C98 1.353 . S
C211 C86 0.935 . S
C226 C15 0.948 1_545 S
C241 C59 1.850 . S
C256 C6 1.821 . S
C271 C99 2.386 . S
C286 C50 2.374 . S
C301 C90 2.357 . S
C316 C19 2.324 . S
C331 C10 1.784 . S
C346 C55 1.658 . S
C361 C95 0.918 . S
C376 C46 1.021 . S
