# Generated by pormake.
# Topology umb, (4)-cn, num edge types: 1
# Building blocks:
#     Node 0, Type 0, BuildingBlock: QUQFOY_clean_sbu_1, # of connection points: 4
#     Node 1, Type 0, BuildingBlock: QUQFOY_clean_sbu_1, # of connection points: 4
#     Node 2, Type 0, BuildingBlock: QUQFOY_clean_sbu_1, # of connection points: 4
#     Node 3, Type 0, BuildingBlock: QUQFOY_clean_sbu_1, # of connection points: 4
#     Node 4, Type 0, BuildingBlock: QUQFOY_clean_sbu_1, # of connection points: 4
#     Node 5, Type 0, BuildingBlock: QUQFOY_clean_sbu_1, # of connection points: 4
#     Node 6, Type 0, BuildingBlock: QUQFOY_clean_sbu_1, # of connection points: 4
#     Node 7, Type 0, BuildingBlock: QUQFOY_clean_sbu_1, # of connection points: 4
#     Node 8, Type 0, BuildingBlock: QUQFOY_clean_sbu_1, # of connection points: 4
#     Node 9, Type 0, BuildingBlock: QUQFOY_clean_sbu_1, # of connection points: 4
#     Node 10, Type 0, BuildingBlock: QUQFOY_clean_sbu_1, # of connection points: 4
#     Node 11, Type 0, BuildingBlock: QUQFOY_clean_sbu_1, # of connection points: 4
#     Edge 12, Type (0, 0), BuildingBlock: ZUJKAS_clean_linker_0, # of connection points: 2
#     Edge 13, Type (0, 0), BuildingBlock: ZUJKAS_clean_linker_0, # of connection points: 2
#     Edge 14, Type (0, 0), BuildingBlock: ZUJKAS_clean_linker_0, # of connection points: 2
#     Edge 15, Type (0, 0), BuildingBlock: ZUJKAS_clean_linker_0, # of connection points: 2
#     Edge 16, Type (0, 0), BuildingBlock: ZUJKAS_clean_linker_0, # of connection points: 2
#     Edge 17, Type (0, 0), BuildingBlock: ZUJKAS_clean_linker_0, # of connection points: 2
#     Edge 18, Type (0, 0), BuildingBlock: ZUJKAS_clean_linker_0, # of connection points: 2
#     Edge 19, Type (0, 0), BuildingBlock: ZUJKAS_clean_linker_0, # of connection points: 2
#     Edge 20, Type (0, 0), BuildingBlock: ZUJKAS_clean_linker_0, # of connection points: 2
#     Edge 21, Type (0, 0), BuildingBlock: ZUJKAS_clean_linker_0, # of connection points: 2
#     Edge 22, Type (0, 0), BuildingBlock: ZUJKAS_clean_linker_0, # of connection points: 2
#     Edge 23, Type (0, 0), BuildingBlock: ZUJKAS_clean_linker_0, # of connection points: 2
#     Edge 24, Type (0, 0), BuildingBlock: ZUJKAS_clean_linker_0, # of connection points: 2
#     Edge 25, Type (0, 0), BuildingBlock: ZUJKAS_clean_linker_0, # of connection points: 2
#     Edge 26, Type (0, 0), BuildingBlock: ZUJKAS_clean_linker_0, # of connection points: 2
#     Edge 27, Type (0, 0), BuildingBlock: ZUJKAS_clean_linker_0, # of connection points: 2
#     Edge 28, Type (0, 0), BuildingBlock: ZUJKAS_clean_linker_0, # of connection points: 2
#     Edge 29, Type (0, 0), BuildingBlock: ZUJKAS_clean_linker_0, # of connection points: 2
#     Edge 30, Type (0, 0), BuildingBlock: ZUJKAS_clean_linker_0, # of connection points: 2
#     Edge 31, Type (0, 0), BuildingBlock: ZUJKAS_clean_linker_0, # of connection points: 2
#     Edge 32, Type (0, 0), BuildingBlock: ZUJKAS_clean_linker_0, # of connection points: 2
#     Edge 33, Type (0, 0), BuildingBlock: ZUJKAS_clean_linker_0, # of connection points: 2
#     Edge 34, Type (0, 0), BuildingBlock: ZUJKAS_clean_linker_0, # of connection points: 2
#     Edge 35, Type (0, 0), BuildingBlock: ZUJKAS_clean_linker_0, # of connection points: 2
# Relax obj value: 0.096
# Max RMSD: 0.158
# Mean RMSD: 0.158
data_MOF--net-umb--node1-QUQFOY_clean_sbu_1--edge1-ZUJKAS_clean_linker_0
_symmetry_space_group_name_H-M    P1
_symmetry_Int_Tables_number       1
_symmetry_cell_setting            triclinic
loop_
_symmetry_equiv_pos_as_xyz
'x, y, z'
_cell_length_a     65.850854
_cell_length_b     65.918072
_cell_length_c     50.844139
_cell_angle_alpha  90.0046
_cell_angle_beta   90.058037
_cell_angle_gamma 119.99733
loop_
_atom_site_label
_atom_site_type_symbol
_atom_site_fract_x
_atom_site_fract_y
_atom_site_fract_z
_atom_type_partial_charge
O0 O 0.56161 0.1609 0.36991 0.0
Cd1 Cd 0.5662 0.15769 0.33039 0.0
Cd2 Cd 0.56847 0.20026 0.33031 0.0
O3 O 0.56047 0.19377 0.37008 0.0
O4 O 0.56397 0.12655 0.32979 0.0
O5 O 0.53979 0.13401 0.30735 0.0
C6 C 0.54652 0.11939 0.31394 0.0
C7 C 0.54894 0.21129 0.30017 0.0
C8 C 0.55986 0.17666 0.3824 0.0
C9 C 0.61225 0.19945 0.31641 0.0
O10 O 0.60309 0.212 0.32146 0.0
O11 O 0.6 0.1773 0.31732 0.0
O12 O 0.56198 0.22534 0.31848 0.0
O13 O 0.54583 0.1903 0.2999 0.0
O14 O 0.39049 0.55584 0.70682 0.0
Cd15 Cd 0.40081 0.56057 0.66798 0.0
Cd16 Cd 0.36001 0.56315 0.66387 0.0
O17 O 0.35753 0.55688 0.70411 0.0
O18 O 0.43075 0.56045 0.67125 0.0
O19 O 0.40169 0.53508 0.64635 0.0
C20 C 0.42279 0.54327 0.655 0.0
C21 C 0.32953 0.54386 0.63349 0.0
C22 C 0.37296 0.55542 0.71783 0.0
C23 C 0.40544 0.60636 0.65104 0.0
O24 O 0.38343 0.59719 0.65397 0.0
O25 O 0.4153 0.59428 0.65452 0.0
O26 O 0.3292 0.55801 0.65079 0.0
O27 O 0.34652 0.53939 0.63456 0.0
O28 O 0.82682 0.38334 0.04546 0.0
Cd29 Cd 0.83414 0.39747 1.00822 0.0
Cd30 Cd 0.78896 0.36071 0.99996 0.0
O31 O 0.78997 0.35556 0.04015 0.0
O32 O 0.86643 0.42352 0.01476 0.0
O33 O 0.85838 0.39749 0.98343 0.0
C34 C 0.87362 0.41615 0.99554 0.0
C35 C 0.77449 0.33032 0.96894 0.0
C36 C 0.80758 0.36743 0.05504 0.0
C37 C 0.79749 0.40953 0.9925 0.0
O38 O 0.78308 0.38769 0.99081 0.0
O39 O 0.81862 0.41688 0.99906 0.0
O40 O 0.76089 0.33234 0.98565 0.0
O41 O 0.79673 0.34495 0.97072 0.0
O42 O 0.42364 0.83421 0.36689 0.0
Cd43 Cd 0.41999 0.83636 0.32689 0.0
Cd44 Cd 0.42056 0.79514 0.33012 0.0
O45 O 0.42932 0.804 0.36947 0.0
O46 O 0.41916 0.86598 0.3247 0.0
O47 O 0.44633 0.86138 0.30483 0.0
C48 C 0.43738 0.87443 0.30995 0.0
C49 C 0.4399 0.78374 0.30017 0.0
C50 C 0.42747 0.82033 0.38059 0.0
C51 C 0.37551 0.79269 0.31426 0.0
O52 O 0.3855 0.7815 0.32188 0.0
O53 O 0.38695 0.81483 0.31264 0.0
O54 O 0.42768 0.77026 0.31927 0.0
O55 O 0.4426 0.80456 0.29925 0.0
O56 O 0.58485 0.41864 0.69963 0.0
Cd57 Cd 0.58159 0.41802 0.65927 0.0
Cd58 Cd 0.6224 0.41853 0.66393 0.0
O59 O 0.6213 0.42616 0.70343 0.0
O60 O 0.55197 0.4187 0.65551 0.0
O61 O 0.58557 0.44647 0.63947 0.0
C62 C 0.56339 0.4381 0.64294 0.0
C63 C 0.65296 0.43985 0.63454 0.0
C64 C 0.60231 0.42274 0.71398 0.0
C65 C 0.58099 0.37432 0.64463 0.0
O66 O 0.60153 0.38368 0.65428 0.0
O67 O 0.57074 0.38615 0.64219 0.0
O68 O 0.65496 0.4276 0.65313 0.0
O69 O 0.63407 0.44129 0.63379 0.0
O70 O 0.16083 0.60063 0.04074 0.0
Cd71 Cd 0.15539 0.58806 1.00276 0.0
Cd72 Cd 0.19941 0.62806 0.99727 0.0
O73 O 0.19585 0.63211 0.03723 0.0
O74 O 0.12455 0.55941 1.00808 0.0
O75 O 0.12972 0.5862 0.97882 0.0
C76 C 0.11594 0.56637 0.98989 0.0
C77 C 0.21108 0.65806 0.96615 0.0
C78 C 0.17845 0.61803 0.05124 0.0
C79 C 0.196 0.58152 0.98788 0.0
O80 O 0.20916 0.60363 0.98886 0.0
O81 O 0.17416 0.5722 0.99208 0.0
O82 O 0.2254 0.65847 0.98375 0.0
O83 O 0.18959 0.64111 0.96701 0.0
O84 O 0.82422 0.42858 0.33437 0.0
Cd85 Cd 0.83017 0.42457 0.37331 0.0
Cd86 Cd 0.78614 0.41961 0.37743 0.0
O87 O 0.78936 0.42558 0.33712 0.0
O88 O 0.8615 0.42733 0.37078 0.0
O89 O 0.85515 0.45136 0.39495 0.0
C90 C 0.86944 0.44473 0.38673 0.0
C91 C 0.77546 0.43927 0.40775 0.0
C92 C 0.80656 0.42794 0.32336 0.0
C93 C 0.79068 0.37787 0.39082 0.0
O94 O 0.77691 0.38598 0.38792 0.0
O95 O 0.81251 0.39083 0.38702 0.0
O96 O 0.76056 0.42457 0.39111 0.0
O97 O 0.79697 0.44392 0.40611 0.0
O98 O 0.40074 0.82908 0.67412 0.0
Cd99 Cd 0.40311 0.83056 0.71462 0.0
Cd100 Cd 0.36113 0.79221 0.70766 0.0
O101 O 0.36343 0.80276 0.66868 0.0
O102 O 0.43408 0.85919 0.7196 0.0
O103 O 0.40134 0.85611 0.73498 0.0
C104 C 0.4238 0.86834 0.73228 0.0
C105 C 0.33179 0.7843 0.73825 0.0
C106 C 0.38329 0.8174 0.659 0.0
C107 C 0.40014 0.78546 0.72694 0.0
O108 O 0.38016 0.77596 0.71587 0.0
O109 O 0.41119 0.80729 0.73139 0.0
O110 O 0.32824 0.77021 0.71887 0.0
O111 O 0.35145 0.80393 0.73892 0.0
O112 O 0.56924 0.40275 1.00734 0.0
Cd113 Cd 0.57121 0.40782 0.04749 0.0
Cd114 Cd 0.56856 0.3654 0.04391 0.0
O115 O 0.56015 0.36578 1.00456 0.0
O116 O 0.57303 0.43876 0.04886 0.0
O117 O 0.54425 0.40731 0.06741 0.0
C118 C 0.55387 0.42934 0.06208 0.0
C119 C 0.5474 0.33579 0.07443 0.0
C120 C 0.56404 0.38473 0.99351 0.0
C121 C 0.61401 0.4063 0.06181 0.0
O122 O 0.60371 0.38561 0.05257 0.0
O123 O 0.60306 0.41746 0.06418 0.0
O124 O 0.55899 0.33295 0.0557 0.0
O125 O 0.54644 0.35492 0.07465 0.0
O126 O 0.16018 0.56198 0.33437 0.0
Cd127 Cd 0.15511 0.56573 0.37368 0.0
Cd128 Cd 0.19874 0.5685 0.37589 0.0
O129 O 0.19406 0.5627 0.33559 0.0
O130 O 0.12538 0.56641 0.37152 0.0
O131 O 0.12839 0.53964 0.39438 0.0
C132 C 0.11583 0.54853 0.38675 0.0
C133 C 0.20954 0.5481 0.40506 0.0
C134 C 0.17699 0.56158 0.32258 0.0
C135 C 0.19679 0.61124 0.39119 0.0
O136 O 0.20977 0.60244 0.38681 0.0
O137 O 0.17475 0.59898 0.38843 0.0
O138 O 0.22402 0.56231 0.38781 0.0
O139 O 0.18828 0.5443 0.40467 0.0
O140 O 0.58826 0.15561 0.66858 0.0
Cd141 Cd 0.57884 0.15111 0.70764 0.0
Cd142 Cd 0.61846 0.19444 0.71035 0.0
O143 O 0.62103 0.18972 0.6703 0.0
O144 O 0.55066 0.11945 0.70666 0.0
O145 O 0.58154 0.12763 0.73103 0.0
C146 C 0.56064 0.11261 0.72332 0.0
C147 C 0.64951 0.20712 0.74028 0.0
C148 C 0.60559 0.17248 0.65704 0.0
C149 C 0.57242 0.19134 0.72276 0.0
O150 O 0.59437 0.2045 0.71967 0.0
O151 O 0.56298 0.16936 0.71999 0.0
O152 O 0.64912 0.22092 0.72255 0.0
O153 O 0.63281 0.18551 0.74006 0.0
O154 O 0.4295 0.59866 0.99842 0.0
Cd155 Cd 0.42406 0.58695 0.03674 0.0
Cd156 Cd 0.41973 0.62713 0.04197 0.0
O157 O 0.42621 0.63031 1.00173 0.0
O158 O 0.42629 0.55827 0.03197 0.0
O159 O 0.44957 0.5866 0.05893 0.0
C160 C 0.44304 0.56628 0.04884 0.0
C161 C 0.43747 0.65829 0.07196 0.0
C162 C 0.42907 0.61588 0.98778 0.0
C163 C 0.37741 0.58025 0.05377 0.0
O164 O 0.38608 0.60227 0.05185 0.0
O165 O 0.38994 0.57099 0.0494 0.0
O166 O 0.42259 0.65713 0.05467 0.0
O167 O 0.44345 0.64236 0.07123 0.0
H168 H 0.56604 0.21154 0.41694 0.0
H169 H 0.57523 0.21368 0.46406 0.0
H170 H 0.56596 0.14423 0.46082 0.0
H171 H 0.55664 0.14178 0.4141 0.0
H172 H 0.54886 0.18026 0.50874 0.0
H173 H 0.63587 0.18995 0.48643 0.0
H174 H 0.61926 0.19604 0.46256 0.0
H175 H 0.61138 0.16631 0.4697 0.0
C176 C 0.56544 0.19652 0.42638 0.0
C177 C 0.56079 0.17656 0.41161 0.0
C178 C 0.57083 0.19784 0.45326 0.0
C179 C 0.57175 0.1793 0.46571 0.0
C180 C 0.56574 0.15888 0.45143 0.0
H181 H 0.57618 0.13794 0.62338 0.0
H182 H 0.56997 0.1418 0.57679 0.0
C183 C 0.56028 0.15749 0.42472 0.0
C184 C 0.57981 0.18136 0.49334 0.0
H185 H 0.62328 0.18224 0.53103 0.0
C186 C 0.56523 0.18095 0.51365 0.0
C187 C 0.60132 0.18253 0.49964 0.0
C188 C 0.61802 0.18394 0.47849 0.0
C189 C 0.57114 0.18062 0.54016 0.0
C190 C 0.59208 0.18058 0.54642 0.0
C191 C 0.60716 0.18206 0.52614 0.0
C192 C 0.59784 0.17781 0.57391 0.0
C193 C 0.55481 0.18 0.56134 0.0
C194 C 0.61636 0.19648 0.58742 0.0
C195 C 0.62006 0.19436 0.61422 0.0
C196 C 0.60532 0.17346 0.62784 0.0
C197 C 0.5878 0.15434 0.61365 0.0
C198 C 0.58409 0.15653 0.58701 0.0
H199 H 0.54232 0.18528 0.55371 0.0
H200 H 0.54453 0.1619 0.56914 0.0
H201 H 0.56488 0.19172 0.57792 0.0
H202 H 0.6273 0.213 0.57753 0.0
H203 H 0.63366 0.20944 0.62451 0.0
H204 H 0.39687 0.54401 0.75307 0.0
H205 H 0.40484 0.55585 0.79914 0.0
H206 H 0.35927 0.58516 0.79424 0.0
H207 H 0.35077 0.57286 0.74821 0.0
H208 H 0.42673 0.60139 0.81458 0.0
H209 H 0.34055 0.55234 0.86473 0.0
H210 H 0.34571 0.54444 0.83245 0.0
H211 H 0.34062 0.56864 0.83642 0.0
C212 C 0.38798 0.55236 0.76198 0.0
C213 C 0.37316 0.55747 0.74692 0.0
C214 C 0.39267 0.55925 0.78831 0.0
C215 C 0.3827 0.57143 0.80022 0.0
C216 C 0.36689 0.57545 0.78568 0.0
H217 H 0.40947 0.6359 0.9572 0.0
H218 H 0.39968 0.62858 0.91028 0.0
C219 C 0.36201 0.56836 0.75932 0.0
C220 C 0.39064 0.58167 0.82692 0.0
H221 H 0.37205 0.58145 0.88972 0.0
C222 C 0.41473 0.597 0.83099 0.0
C223 C 0.37499 0.57621 0.8483 0.0
C224 C 0.34905 0.55936 0.84541 0.0
C225 C 0.42363 0.60669 0.85584 0.0
C226 C 0.40809 0.60079 0.87732 0.0
C227 C 0.38392 0.58603 0.87317 0.0
C228 C 0.41669 0.60808 0.90463 0.0
C229 C 0.44964 0.62314 0.85897 0.0
C230 C 0.43 0.59948 0.91681 0.0
C231 C 0.43556 0.60358 0.94353 0.0
C232 C 0.42799 0.61642 0.95866 0.0
C233 C 0.41582 0.62618 0.94606 0.0
C234 C 0.41002 0.62185 0.91931 0.0
H235 H 0.45813 0.63088 0.83984 0.0
H236 H 0.45318 0.63753 0.87289 0.0
H237 H 0.45785 0.61328 0.86698 0.0
H238 H 0.4351 0.5886 0.90596 0.0
H239 H 0.44486 0.59572 0.95264 0.0
H240 H 0.84211 0.44016 0.28829 0.0
H241 H 0.83863 0.42923 0.242 0.0
H242 H 0.76365 0.39946 0.24609 0.0
H243 H 0.76696 0.41027 0.29273 0.0
H244 H 0.77805 0.36857 0.22601 0.0
H245 H 0.824 0.45428 0.17526 0.0
H246 H 0.84057 0.45217 0.2021 0.0
H247 H 0.81319 0.45111 0.20851 0.0
C248 C 0.82491 0.43183 0.27924 0.0
C249 C 0.80482 0.42611 0.29426 0.0
C250 C 0.82296 0.42562 0.2527 0.0
C251 C 0.8009 0.4136 0.24053 0.0
C252 C 0.78086 0.40879 0.25509 0.0
H253 H 0.76678 0.34951 0.0834 0.0
H254 H 0.76313 0.3582 0.12939 0.0
C255 C 0.78281 0.41517 0.28169 0.0
C256 C 0.79885 0.40442 0.21338 0.0
H257 H 0.81931 0.42115 0.1509 0.0
C258 C 0.78677 0.38004 0.20947 0.0
C259 C 0.81027 0.4194 0.19186 0.0
C260 C 0.82255 0.4457 0.19453 0.0
C261 C 0.78674 0.37024 0.18485 0.0
C262 C 0.79885 0.38525 0.16356 0.0
C263 C 0.81026 0.40962 0.16732 0.0
C264 C 0.80044 0.37632 0.13723 0.0
C265 C 0.77453 0.34396 0.18209 0.0
C266 C 0.82254 0.383 0.12652 0.0
C267 C 0.82468 0.37811 0.10026 0.0
C268 C 0.80475 0.36649 0.08406 0.0
C269 C 0.78247 0.35826 0.09536 0.0
C270 C 0.78035 0.36328 0.12169 0.0
H271 H 0.77077 0.33508 0.20152 0.0
H272 H 0.75761 0.33773 0.17169 0.0
H273 H 0.7853 0.33862 0.17034 0.0
H274 H 0.83827 0.39298 0.13817 0.0
H275 H 0.8421 0.38468 0.09224 0.0
H276 H 0.41717 0.8489 0.40927 0.0
H277 H 0.41063 0.84825 0.45625 0.0
H278 H 0.42922 0.79455 0.4658 0.0
H279 H 0.43489 0.79433 0.41807 0.0
H280 H 0.39094 0.78386 0.49324 0.0
H281 H 0.45613 0.87601 0.51488 0.0
H282 H 0.43618 0.87435 0.48988 0.0
H283 H 0.45526 0.8626 0.48368 0.0
C284 C 0.42027 0.83715 0.42126 0.0
C285 C 0.42675 0.82178 0.40975 0.0
C286 C 0.41661 0.8369 0.44831 0.0
C287 C 0.41987 0.82171 0.4648 0.0
C288 C 0.42672 0.80655 0.45353 0.0
H289 H 0.42535 0.83784 0.63394 0.0
H290 H 0.43311 0.83752 0.58738 0.0
C291 C 0.43011 0.80656 0.42626 0.0
C292 C 0.415 0.82106 0.49352 0.0
H293 H 0.42615 0.85618 0.54726 0.0
C294 C 0.39884 0.79963 0.50515 0.0
C295 C 0.42546 0.84156 0.50923 0.0
C296 C 0.4444 0.86484 0.49882 0.0
C297 C 0.39257 0.79821 0.53184 0.0
C298 C 0.40209 0.81895 0.54716 0.0
C299 C 0.41849 0.84029 0.53555 0.0
C300 C 0.3966 0.81892 0.57567 0.0
C301 C 0.37629 0.7744 0.54339 0.0
C302 C 0.37339 0.80888 0.58492 0.0
C303 C 0.36881 0.80867 0.61194 0.0
C304 C 0.38738 0.81904 0.63012 0.0
C305 C 0.41054 0.8298 0.62061 0.0
C306 C 0.41506 0.8296 0.59384 0.0
H307 H 0.37625 0.76019 0.53161 0.0
H308 H 0.38129 0.7731 0.56392 0.0
H309 H 0.35814 0.7714 0.54345 0.0
H310 H 0.35881 0.80116 0.57129 0.0
H311 H 0.35079 0.80031 0.61858 0.0
H312 H 0.57959 0.42482 0.96521 0.0
H313 H 0.58531 0.43019 0.91807 0.0
H314 H 0.5569 0.35588 0.90789 0.0
H315 H 0.55195 0.35037 0.95575 0.0
H316 H 0.59536 0.37983 0.8788 0.0
H317 H 0.53838 0.41784 0.86208 0.0
H318 H 0.56026 0.43429 0.88634 0.0
H319 H 0.53849 0.40422 0.89278 0.0
C320 C 0.57421 0.40947 0.95306 0.0
C321 C 0.56507 0.38708 0.96438 0.0
C322 C 0.57742 0.41261 0.92595 0.0
C323 C 0.57107 0.39342 0.90924 0.0
C324 C 0.56178 0.37096 0.92036 0.0
H325 H 0.56126 0.40529 0.74084 0.0
H326 H 0.55459 0.39775 0.78764 0.0
C327 C 0.55884 0.36781 0.94769 0.0
C328 C 0.57505 0.3972 0.88038 0.0
H329 H 0.56606 0.42421 0.82803 0.0
C330 C 0.58874 0.38931 0.86761 0.0
C331 C 0.56622 0.40934 0.86562 0.0
C332 C 0.54982 0.41667 0.87738 0.0
C333 C 0.59419 0.3936 0.84069 0.0
C334 C 0.5864 0.40685 0.82629 0.0
C335 C 0.57241 0.4144 0.83903 0.0
C336 C 0.59119 0.41193 0.79765 0.0
C337 C 0.60773 0.38336 0.8279 0.0
C338 C 0.61412 0.42286 0.78742 0.0
C339 C 0.61803 0.42692 0.76028 0.0
C340 C 0.59911 0.42064 0.74298 0.0
C341 C 0.57633 0.41052 0.75349 0.0
C342 C 0.57243 0.40611 0.78038 0.0
H343 H 0.60627 0.3683 0.83931 0.0
H344 H 0.60145 0.37736 0.80756 0.0
H345 H 0.62657 0.39693 0.82705 0.0
H346 H 0.62901 0.42822 0.80037 0.0
H347 H 0.63578 0.43482 0.75287 0.0
H348 H 0.2158 0.57829 0.29085 0.0
H349 H 0.21862 0.59041 0.24478 0.0
H350 H 0.14384 0.56248 0.24252 0.0
H351 H 0.14093 0.55079 0.28855 0.0
H352 H 0.19889 0.56863 0.19745 0.0
H353 H 0.16881 0.63086 0.2238 0.0
H354 H 0.17715 0.6165 0.24822 0.0
H355 H 0.14843 0.60136 0.23351 0.0
C356 C 0.19988 0.57425 0.28038 0.0
C357 C 0.17816 0.5638 0.29349 0.0
C358 C 0.20155 0.58134 0.25408 0.0
C359 C 0.18154 0.57805 0.24046 0.0
C360 C 0.15962 0.5659 0.25288 0.0
H361 H 0.14257 0.59733 0.08652 0.0
H362 H 0.14564 0.59079 0.13331 0.0
C363 C 0.15796 0.559 0.27914 0.0
C364 C 0.18353 0.58801 0.2137 0.0
H365 H 0.16993 0.62358 0.17793 0.0
C366 C 0.19283 0.58086 0.19323 0.0
C367 C 0.17585 0.6042 0.20825 0.0
C368 C 0.16723 0.61389 0.22965 0.0
C369 C 0.19362 0.5886 0.16726 0.0
C370 C 0.18509 0.60405 0.1617 0.0
C371 C 0.1764 0.6117 0.18226 0.0
C372 C 0.18351 0.61103 0.13436 0.0
C373 C 0.20277 0.57955 0.14574 0.0
C374 C 0.20376 0.62555 0.11975 0.0
C375 C 0.20205 0.6296 0.09298 0.0
C376 C 0.18006 0.61899 0.08038 0.0
C377 C 0.15977 0.60573 0.09558 0.0
C378 C 0.16149 0.60189 0.12232 0.0
H379 H 0.20563 0.56519 0.15268 0.0
H380 H 0.19034 0.57305 0.12891 0.0
H381 H 0.21972 0.59406 0.13845 0.0
H382 H 0.22091 0.63301 0.12881 0.0
H383 H 0.21803 0.63977 0.08185 0.0
H384 H 0.74634 0.34531 0.40556 0.0
H385 H 0.72698 0.30368 0.39566 0.0
H386 H 0.79288 0.3109 0.37076 0.0
H387 H 0.8125 0.3527 0.3808 0.0
H388 H 0.76064 0.29776 0.33103 0.0
H389 H 0.71872 0.24039 0.41616 0.0
H390 H 0.71497 0.26546 0.41821 0.0
H391 H 0.74409 0.26936 0.41948 0.0
C392 C 0.75691 0.33789 0.39906 0.0
C393 C 0.78081 0.35235 0.39343 0.0
C394 C 0.74586 0.31399 0.39362 0.0
C395 C 0.75852 0.3042 0.38246 0.0
C396 C 0.78286 0.31812 0.3795 0.0
H397 H 0.63906 0.17891 0.32323 0.0
H398 H 0.68102 0.19925 0.33294 0.0
C399 C 0.794 0.34203 0.38523 0.0
C400 C 0.7454 0.28171 0.36831 0.0
H401 H 0.69481 0.22974 0.37532 0.0
C402 C 0.7468 0.2824 0.34072 0.0
C403 C 0.72769 0.26148 0.38084 0.0
C404 C 0.72647 0.25906 0.41035 0.0
C405 C 0.72887 0.26497 0.32542 0.0
C406 C 0.70925 0.24663 0.33814 0.0
C407 C 0.7097 0.2441 0.36554 0.0
C408 C 0.68629 0.23375 0.32486 0.0
C409 C 0.73004 0.26744 0.29591 0.0
C410 C 0.67562 0.24639 0.31609 0.0
C411 C 0.65163 0.23491 0.31087 0.0
C412 C 0.63797 0.21059 0.3143 0.0
C413 C 0.64913 0.1977 0.32044 0.0
C414 C 0.67312 0.20925 0.32599 0.0
H415 H 0.74849 0.27596 0.28898 0.0
H416 H 0.71976 0.25017 0.28606 0.0
H417 H 0.72278 0.27874 0.28993 0.0
H418 H 0.68537 0.26536 0.31554 0.0
H419 H 0.64355 0.24528 0.30605 0.0
H420 H 0.44726 0.80272 0.73261 0.0
H421 H 0.46802 0.78137 0.72354 0.0
H422 H 0.40187 0.71697 0.7176 0.0
H423 H 0.38097 0.73806 0.72642 0.0
H424 H 0.44294 0.71484 0.74147 0.0
H425 H 0.45862 0.75866 0.64372 0.0
H426 H 0.46747 0.77568 0.67359 0.0
H427 H 0.43691 0.75815 0.66575 0.0
C428 C 0.43714 0.78387 0.73032 0.0
C429 C 0.41244 0.77206 0.72969 0.0
C430 C 0.44908 0.77178 0.72506 0.0
C431 C 0.43641 0.74777 0.71952 0.0
C432 C 0.4119 0.73558 0.72178 0.0
H433 H 0.39118 0.63753 0.63872 0.0
H434 H 0.41139 0.67863 0.65141 0.0
C435 C 0.39997 0.74763 0.72676 0.0
C436 C 0.44761 0.73567 0.70712 0.0
H437 H 0.45654 0.72211 0.64511 0.0
C438 C 0.44702 0.7169 0.72064 0.0
C439 C 0.45298 0.73867 0.67997 0.0
C440 C 0.4541 0.75885 0.66473 0.0
C441 C 0.44875 0.69935 0.70705 0.0
C442 C 0.45116 0.70085 0.67932 0.0
C443 C 0.45471 0.72111 0.66635 0.0
C444 C 0.44328 0.6794 0.66362 0.0
C445 C 0.4451 0.67799 0.722 0.0
C446 C 0.45528 0.66687 0.66436 0.0
C447 C 0.44371 0.64327 0.65706 0.0
C448 C 0.42002 0.63206 0.64921 0.0
C449 C 0.40927 0.64558 0.64513 0.0
C450 C 0.42086 0.66912 0.65228 0.0
H451 H 0.44295 0.67947 0.74347 0.0
H452 H 0.42926 0.66214 0.71453 0.0
H453 H 0.46038 0.67546 0.71901 0.0
H454 H 0.47271 0.67468 0.67275 0.0
H455 H 0.45259 0.63337 0.66011 0.0
H456 H 0.6435 0.45348 0.06806 0.0
H457 H 0.68609 0.47455 0.06204 0.0
H458 H 0.68499 0.40871 0.05687 0.0
H459 H 0.64265 0.38756 0.06294 0.0
H460 H 0.72579 0.44675 0.08319 0.0
H461 H 0.70603 0.47067 0.98499 0.0
H462 H 0.69678 0.47875 0.01457 0.0
H463 H 0.68287 0.44856 1.00487 0.0
C464 C 0.65243 0.44349 0.06647 0.0
C465 C 0.63969 0.41882 0.06542 0.0
C466 C 0.67673 0.4556 0.06294 0.0
C467 C 0.6885 0.44315 0.05853 0.0
C468 C 0.67613 0.41861 0.06016 0.0
H469 H 0.75452 0.40088 0.97598 0.0
H470 H 0.73526 0.42236 0.98977 0.0
C471 C 0.65192 0.40652 0.06354 0.0
C472 C 0.71269 0.45469 0.04833 0.0
H473 H 0.73985 0.46771 0.98866 0.0
C474 C 0.72948 0.45236 0.06284 0.0
C475 C 0.71732 0.46217 0.02183 0.0
C476 C 0.69989 0.46524 1.00549 0.0
C477 C 0.74936 0.45417 0.05059 0.0
C478 C 0.75244 0.45867 0.0232 0.0
C479 C 0.73732 0.4642 1.0096 0.0
C480 C 0.76626 0.45089 1.00771 0.0
C481 C 0.76522 0.44831 0.06633 0.0
C482 C 0.79048 0.46076 1.01138 0.0
C483 C 0.80157 0.44837 1.00357 0.0
C484 C 0.78846 0.426 0.99209 0.0
C485 C 0.76498 0.41783 0.98523 0.0
C486 C 0.75397 0.43019 0.99301 0.0
H487 H 0.75974 0.44435 0.08723 0.0
H488 H 0.7653 0.43289 0.05764 0.0
H489 H 0.78343 0.46332 0.06583 0.0
H490 H 0.80033 0.47697 0.02224 0.0
H491 H 0.81982 0.45532 1.0088 0.0
H492 H 0.34584 0.74616 0.3058 0.0
H493 H 0.30412 0.72471 0.31613 0.0
H494 H 0.30534 0.78976 0.33073 0.0
H495 H 0.34708 0.81145 0.31991 0.0
H496 H 0.29455 0.75945 0.37497 0.0
H497 H 0.23915 0.71177 0.28972 0.0
H498 H 0.26602 0.71101 0.28994 0.0
H499 H 0.26696 0.73865 0.28638 0.0
C500 C 0.33702 0.75593 0.31011 0.0
C501 C 0.34974 0.78041 0.3124 0.0
C502 C 0.31314 0.74368 0.31586 0.0
C503 C 0.30171 0.75571 0.32414 0.0
C504 C 0.31387 0.78024 0.32415 0.0
H505 H 0.17603 0.63775 0.38378 0.0
H506 H 0.19648 0.67955 0.37374 0.0
C507 C 0.33771 0.79255 0.31794 0.0
C508 C 0.27919 0.74247 0.33808 0.0
H509 H 0.22788 0.69108 0.33199 0.0
C510 C 0.27947 0.745 0.36553 0.0
C511 C 0.25944 0.72394 0.32576 0.0
C512 C 0.25775 0.72132 0.29626 0.0
C513 C 0.26194 0.72757 0.38119 0.0
C514 C 0.24392 0.70735 0.36895 0.0
C515 C 0.24191 0.70651 0.3414 0.0
C516 C 0.23084 0.685 0.38327 0.0
C517 C 0.26395 0.72993 0.41069 0.0
C518 C 0.24334 0.67455 0.39321 0.0
C519 C 0.23181 0.65063 0.39859 0.0
C520 C 0.2076 0.63684 0.39415 0.0
C521 C 0.19475 0.64789 0.38727 0.0
C522 C 0.20636 0.6718 0.38155 0.0
H523 H 0.27251 0.74863 0.41668 0.0
H524 H 0.24648 0.72016 0.42023 0.0
H525 H 0.27501 0.72277 0.41795 0.0
H526 H 0.26231 0.68437 0.39431 0.0
H527 H 0.24213 0.64264 0.40406 0.0
H528 H 0.59767 0.34414 0.63907 0.0
H529 H 0.57566 0.30208 0.64715 0.0
H530 H 0.51156 0.30451 0.65266 0.0
H531 H 0.53339 0.34661 0.6441 0.0
H532 H 0.52557 0.29099 0.69941 0.0
H533 H 0.52586 0.23903 0.61442 0.0
H534 H 0.55362 0.26538 0.61827 0.0
H535 H 0.52789 0.26732 0.61088 0.0
C536 C 0.57877 0.33558 0.6409 0.0
C537 C 0.56732 0.34869 0.64133 0.0
C538 C 0.56616 0.3115 0.64535 0.0
C539 C 0.54198 0.30025 0.65045 0.0
C540 C 0.53017 0.3129 0.64855 0.0
H541 H 0.52616 0.17119 0.70954 0.0
H542 H 0.50608 0.19236 0.69677 0.0
C543 C 0.54272 0.33695 0.64364 0.0
C544 C 0.53082 0.27709 0.66325 0.0
H545 H 0.53027 0.22546 0.65785 0.0
C546 C 0.52561 0.27617 0.69015 0.0
C547 C 0.53044 0.25769 0.65109 0.0
C548 C 0.53452 0.25729 0.62198 0.0
C549 C 0.52337 0.25773 0.7059 0.0
C550 C 0.52644 0.24001 0.69431 0.0
C551 C 0.52821 0.23925 0.66682 0.0
C552 C 0.53391 0.22606 0.71 0.0
C553 C 0.51986 0.25843 0.73509 0.0
C554 C 0.55567 0.23785 0.72291 0.0
C555 C 0.56736 0.22593 0.72986 0.0
C556 C 0.55739 0.20201 0.72407 0.0
C557 C 0.53434 0.18967 0.71417 0.0
C558 C 0.52278 0.2017 0.70687 0.0
H559 H 0.50929 0.26691 0.73943 0.0
H560 H 0.51103 0.24057 0.74373 0.0
H561 H 0.53719 0.26897 0.74476 0.0
H562 H 0.56475 0.25673 0.72515 0.0
H563 H 0.58502 0.23583 0.73763 0.0
H564 H 0.1746 0.53398 0.99518 0.0
H565 H 0.19436 0.51168 1.00452 0.0
H566 H 0.26108 0.5728 0.98734 0.0
H567 H 0.24162 0.59501 0.97761 0.0
H568 H 0.25816 0.52969 0.97308 0.0
H569 H 0.2284 0.52929 0.07596 0.0
H570 H 0.20705 0.51536 0.05023 0.0
H571 H 0.22496 0.5467 0.05093 0.0
C572 C 0.19343 0.54247 0.99257 0.0
C573 C 0.20667 0.56647 0.9863 0.0
C574 C 0.20464 0.52968 0.99804 0.0
C575 C 0.22917 0.54077 0.99725 0.0
C576 C 0.2421 0.56394 0.98821 0.0
H577 H 0.34562 0.59363 0.06627 0.0
H578 H 0.3038 0.57161 0.05726 0.0
C579 C 0.23097 0.5767 0.98275 0.0
C580 C 0.2421 0.53031 1.0096 0.0
H581 H 0.26328 0.52882 0.07034 0.0
C582 C 0.25879 0.52846 0.99432 0.0
C583 C 0.2426 0.52849 0.03731 0.0
C584 C 0.22487 0.53006 0.05472 0.0
C585 C 0.27797 0.5283 1.00609 0.0
C586 C 0.28009 0.52964 0.03385 0.0
C587 C 0.26158 0.52796 0.04909 0.0
C588 C 0.3034 0.53964 0.04636 0.0
C589 C 0.2972 0.52974 0.98867 0.0
C590 C 0.31672 0.52845 0.04495 0.0
C591 C 0.34083 0.54115 0.04997 0.0
C592 C 0.35177 0.56513 0.05643 0.0
C593 C 0.33781 0.57534 0.0609 0.0
C594 C 0.31383 0.56269 0.05587 0.0
H595 H 0.29308 0.5294 0.96742 0.0
H596 H 0.31393 0.54611 0.9928 0.0
H597 H 0.29989 0.51471 0.99279 0.0
H598 H 0.30886 0.51053 0.03814 0.0
H599 H 0.35109 0.53268 0.04668 0.0
H600 H 0.50301 0.09436 0.29115 0.0
H601 H 0.48215 0.05235 0.28035 0.0
H602 H 0.54242 0.04766 0.3046 0.0
H603 H 0.56322 0.08926 0.31551 0.0
H604 H 0.51652 0.02167 0.2545 0.0
H605 H 0.46282 0.00468 0.34524 0.0
H606 H 0.46501 0.02678 0.32271 0.0
H607 H 0.49039 0.03145 0.34078 0.0
C608 C 0.51189 0.08441 0.29376 0.0
C609 C 0.5346 0.09498 0.30446 0.0
C610 C 0.5 0.0605 0.28759 0.0
C611 C 0.51081 0.04704 0.2918 0.0
C612 C 0.53387 0.05783 0.30117 0.0
H613 H 0.48335 0.90551 0.29853 0.0
H614 H 0.50034 0.94744 0.28935 0.0
C615 C 0.54564 0.08156 0.30755 0.0
C616 C 0.49758 0.02133 0.28914 0.0
H617 H 0.45849 0.97218 0.32202 0.0
C618 C 0.50355 0.01073 0.26897 0.0
C619 C 0.48086 0.00729 0.30819 0.0
C620 C 0.47435 0.01797 0.3306 0.0
C621 C 0.49324 0.98626 0.26749 0.0
C622 C 0.47709 0.97222 0.28713 0.0
C623 C 0.47081 0.98292 0.30692 0.0
C624 C 0.46695 0.94647 0.28846 0.0
C625 C 0.49973 0.97575 0.24494 0.0
C626 C 0.44261 0.93199 0.29099 0.0
C627 C 0.43304 0.90832 0.2969 0.0
C628 C 0.44757 0.89856 0.30004 0.0
C629 C 0.47179 0.91263 0.29599 0.0
C630 C 0.48147 0.93654 0.29056 0.0
H631 H 0.50567 0.98757 0.22759 0.0
H632 H 0.51442 0.97311 0.25108 0.0
H633 H 0.48473 0.95854 0.23896 0.0
H634 H 0.43107 0.93924 0.28945 0.0
H635 H 0.41426 0.89777 0.29973 0.0
H636 H 0.40952 0.49934 0.63611 0.0
H637 H 0.43541 0.48325 0.62703 0.0
H638 H 0.49575 0.55035 0.64508 0.0
H639 H 0.47016 0.56613 0.65506 0.0
H640 H 0.47262 0.4949 0.59313 0.0
H641 H 0.50261 0.50779 0.69693 0.0
H642 H 0.47806 0.51071 0.68636 0.0
H643 H 0.50759 0.53436 0.68155 0.0
C644 C 0.42832 0.51061 0.63796 0.0
C645 C 0.43785 0.5338 0.64676 0.0
C646 C 0.44306 0.50146 0.63275 0.0
C647 C 0.46744 0.51549 0.63604 0.0
C648 C 0.47696 0.53905 0.64319 0.0
H649 H 0.58205 0.48509 0.63418 0.0
H650 H 0.56003 0.50573 0.62737 0.0
C651 C 0.46231 0.54804 0.64881 0.0
C652 C 0.48297 0.5054 0.63331 0.0
H653 H 0.52273 0.49656 0.66702 0.0
C654 C 0.48358 0.49525 0.60925 0.0
C655 C 0.49718 0.50579 0.65447 0.0
C656 C 0.49619 0.51503 0.68135 0.0
C657 C 0.49818 0.48559 0.60579 0.0
C658 C 0.51246 0.48623 0.62687 0.0
C659 C 0.51203 0.49655 0.65077 0.0
C660 C 0.52613 0.4741 0.62578 0.0
C661 C 0.49824 0.47468 0.57975 0.0
C662 C 0.5143 0.4496 0.62674 0.0
C663 C 0.52671 0.43789 0.631 0.0
C664 C 0.55118 0.4505 0.6342 0.0
C665 C 0.56321 0.47499 0.63164 0.0
C666 C 0.55069 0.48675 0.62776 0.0
H667 H 0.49013 0.47988 0.56391 0.0
H668 H 0.51642 0.47974 0.57393 0.0
H669 H 0.48813 0.45532 0.58165 0.0
H670 H 0.49533 0.43959 0.62566 0.0
H671 H 0.51702 0.41898 0.63277 0.0
H672 H 0.89358 0.41356 0.94902 0.0
H673 H 0.93453 0.43902 0.9352 0.0
H674 H 0.95016 0.47416 1.01031 0.0
H675 H 0.90967 0.44941 0.0239 0.0
H676 H 0.96594 0.50476 0.96757 0.0
H677 H 0.99295 0.43715 0.96053 0.0
H678 H 0.96776 0.43259 0.94188 0.0
H679 H 0.96641 0.43148 0.97713 0.0
C680 C 0.90589 0.42657 0.9626 0.0
C681 C 0.89845 0.42954 0.98751 0.0
C682 C 0.92921 0.44108 0.9547 0.0
C683 C 0.94533 0.45847 0.97175 0.0
C684 C 0.93795 0.46099 0.99676 0.0
H685 H 0.083 0.52763 0.01501 0.0
H686 H 0.04215 0.50248 1.00309 0.0
C687 C 0.9148 0.44675 1.00454 0.0
C688 C 0.97001 0.47445 0.96419 0.0
H689 H 0.02253 0.47644 0.95808 0.0
C690 C 0.97834 0.49865 0.96489 0.0
C691 C 0.986 0.4663 0.96064 0.0
C692 C 0.978 0.44049 0.9601 0.0
C693 C 0.00243 0.51494 0.96439 0.0
C694 C 0.01852 0.50673 0.96249 0.0
C695 C 0.01008 0.48262 0.95954 0.0
C696 C 0.04374 0.52216 0.96831 0.0
C697 C 0.01047 0.54059 0.96808 0.0
C698 C 0.05828 0.54172 0.95272 0.0
C699 C 0.08182 0.55646 0.95973 0.0
C700 C 0.09109 0.55162 0.98224 0.0
C701 C 0.07646 0.53188 0.99754 0.0
C702 C 0.05309 0.51737 0.99067 0.0
H703 H -0.00427 0.54361 0.97286 0.0
H704 H 0.02368 0.54813 0.98409 0.0
H705 H 0.01883 0.55021 0.94969 0.0
H706 H 0.05146 0.54555 0.9352 0.0
H707 H 0.09276 0.57144 0.94747 0.0
H708 H 0.08355 0.5031 0.39913 0.0
H709 H 0.04132 0.48716 0.4063 0.0
H710 H 0.05112 0.55681 0.40072 0.0
H711 H 0.09282 0.57255 0.39245 0.0
H712 H 0.01407 0.49433 0.44175 0.0
H713 H 0.00496 0.52355 0.34228 0.0
H714 H 0.0314 0.52424 0.35296 0.0
H715 H 0.02558 0.54714 0.36259 0.0
C716 C 0.07663 0.51494 0.39971 0.0
C717 C 0.09124 0.53894 0.39476 0.0
C718 C 0.05259 0.50587 0.40381 0.0
C719 C 0.04303 0.52076 0.40331 0.0
C720 C 0.058 0.54494 0.40034 0.0
H721 H 0.89691 0.48957 0.40519 0.0
H722 H 0.93939 0.50951 0.41385 0.0
C723 C 0.08182 0.5539 0.39573 0.0
C724 C 0.01734 0.51102 0.40432 0.0
H725 H 0.97146 0.50791 0.36956 0.0
C726 C 0.00475 0.49734 0.42602 0.0
C727 C 0.00521 0.51487 0.38364 0.0
C728 C 0.01743 0.52804 0.35894 0.0
C729 C 0.98031 0.48739 0.42753 0.0
C730 C 0.96834 0.49139 0.40695 0.0
C731 C 0.9809 0.50532 0.38551 0.0
C732 C 0.94254 0.47901 0.40552 0.0
C733 C 0.96729 0.47242 0.45086 0.0
C734 C 0.93053 0.45541 0.3981 0.0
C735 C 0.9066 0.44422 0.39274 0.0
C736 C 0.89422 0.45639 0.39492 0.0
C737 C 0.90607 0.4798 0.40345 0.0
C738 C 0.93022 0.49115 0.40842 0.0
H739 H 0.97933 0.47438 0.46724 0.0
H740 H 0.95417 0.477 0.45809 0.0
H741 H 0.95768 0.45375 0.44476 0.0
H742 H 0.93987 0.4459 0.39544 0.0
H743 H 0.89788 0.42611 0.38637 0.0
H744 H 0.57874 0.0887 0.74954 0.0
H745 H 0.55768 0.04697 0.76163 0.0
H746 H 0.49356 0.04011 0.73068 0.0
H747 H 0.51424 0.08138 0.71849 0.0
H748 H 0.4914 0.01666 0.78326 0.0
H749 H 0.53291 -0.00365 0.69939 0.0
H750 H 0.55143 0.01956 0.72168 0.0
H751 H 0.5316 0.02304 0.70052 0.0
C752 C 0.56011 0.07832 0.74562 0.0
C753 C 0.54818 0.0882 0.73281 0.0
C754 C 0.54814 0.05457 0.75254 0.0
C755 C 0.52414 0.04061 0.74695 0.0
C756 C 0.51207 0.05069 0.7352 0.0
H757 H 0.4096 0.90047 0.73977 0.0
H758 H 0.43492 0.94236 0.74872 0.0
C759 C 0.52398 0.07423 0.7281 0.0
C760 C 0.51172 0.01504 0.75102 0.0
H761 H 0.50306 0.96473 0.72213 0.0
C762 C 0.49414 0.0052 0.77025 0.0
C763 C 0.51536 0.00032 0.73389 0.0
C764 C 0.53375 0.01018 0.71258 0.0
C765 C 0.47973 0.98081 0.7725 0.0
C766 C 0.48268 0.96607 0.75457 0.0
C767 C 0.50081 0.97602 0.73592 0.0
C768 C 0.4666 0.94039 0.75357 0.0
C769 C 0.46151 0.97115 0.79396 0.0
C770 C 0.47592 0.92535 0.75337 0.0
C771 C 0.46163 0.90165 0.74762 0.0
C772 C 0.43767 0.89246 0.74227 0.0
C773 C 0.42798 0.90713 0.74405 0.0
C774 C 0.44243 0.93103 0.74934 0.0
H775 H 0.46675 0.98342 0.81089 0.0
H776 H 0.44471 0.96878 0.78616 0.0
H777 H 0.45852 0.95395 0.8011 0.0
H778 H 0.49449 0.93215 0.75656 0.0
H779 H 0.4695 0.89064 0.74655 0.0
H780 H 0.42932 0.5219 0.03337 0.0
H781 H 0.44804 0.49891 0.04278 0.0
H782 H 0.50056 0.55558 0.0894 0.0
H783 H 0.48163 0.57889 0.08026 0.0
H784 H 0.49439 0.5134 0.02845 0.0
H785 H 0.47953 0.49619 0.13586 0.0
H786 H 0.46244 0.50496 0.11602 0.0
H787 H 0.49176 0.52619 0.1256 0.0
C788 C 0.44474 0.5295 0.04582 0.0
C789 C 0.45409 0.5523 0.05596 0.0
C790 C 0.45536 0.51627 0.05123 0.0
C791 C 0.47552 0.52547 0.06693 0.0
C792 C 0.48475 0.54805 0.07758 0.0
H793 H 0.5746 0.47671 0.06177 0.0
H794 H 0.5557 0.50023 0.06668 0.0
C795 C 0.47404 0.56138 0.0722 0.0
C796 C 0.48774 0.51195 0.07005 0.0
H797 H 0.50284 0.48294 0.11459 0.0
C798 C 0.49627 0.50677 0.04728 0.0
C799 C 0.48991 0.50319 0.09463 0.0
C800 C 0.4803 0.5077 0.11947 0.0
C801 C 0.50698 0.49305 0.04839 0.0
C802 C 0.50951 0.48458 0.07299 0.0
C803 C 0.5009 0.48961 0.09582 0.0
C804 C 0.5214 0.47071 0.07493 0.0
C805 C 0.5153 0.48748 0.02318 0.0
C806 C 0.50846 0.44642 0.07904 0.0
C807 C 0.51924 0.43283 0.0763 0.0
C808 C 0.54302 0.44346 0.06929 0.0
C809 C 0.55616 0.46797 0.06686 0.0
C810 C 0.54545 0.48147 0.06973 0.0
H811 H 0.50782 0.49131 1.00552 0.0
H812 H 0.53469 0.49826 0.02207 0.0
H813 H 0.51049 0.46876 0.02266 0.0
H814 H 0.48982 0.43787 0.08305 0.0
H815 H 0.50872 0.41398 0.07833 0.0
H816 H 0.53534 0.1932 0.25063 0.0
H817 H 0.52808 0.21195 0.21301 0.0
H818 H 0.53474 0.26751 0.26356 0.0
H819 H 0.54299 0.2494 0.30095 0.0
H820 H 0.49733 0.22589 0.19883 0.0
H821 H 0.58567 0.30391 0.2112 0.0
H822 H 0.5763 0.27731 0.22956 0.0
H823 H 0.5675 0.29797 0.23966 0.0
C824 C 0.53489 0.20922 0.2538 0.0
C825 C 0.54007 0.22 0.27868 0.0
C826 C 0.53077 0.21995 0.23226 0.0
C827 C 0.53155 0.24153 0.23525 0.0
C828 C 0.53482 0.25129 0.26054 0.0
H829 H 0.53245 0.34175 0.12253 0.0
H830 H 0.5246 0.31719 0.16162 0.0
C831 C 0.53934 0.24081 0.28196 0.0
C832 C 0.5305 0.25453 0.21178 0.0
H833 H 0.56127 0.30646 0.17887 0.0
C834 C 0.5113 0.24351 0.1945 0.0
C835 C 0.54886 0.27748 0.20589 0.0
C836 C 0.57085 0.28978 0.22239 0.0
C837 C 0.50989 0.25491 0.17171 0.0
C838 C 0.52811 0.27788 0.16612 0.0
C839 C 0.54717 0.28894 0.18343 0.0
C840 C 0.52867 0.29047 0.14167 0.0
C841 C 0.48897 0.24243 0.15376 0.0
C842 C 0.53311 0.28335 0.11738 0.0
C843 C 0.5378 0.29744 0.09506 0.0
C844 C 0.53807 0.31889 0.09659 0.0
C845 C 0.53226 0.32529 0.12062 0.0
C846 C 0.52782 0.3113 0.14301 0.0
H847 H 0.47438 0.22673 0.16326 0.0
H848 H 0.48255 0.25441 0.14762 0.0
H849 H 0.49424 0.2367 0.13576 0.0
H850 H 0.53417 0.26751 0.11599 0.0
H851 H 0.54224 0.292 0.07688 0.0
H852 H 0.25072 0.54762 0.4068 0.0
H853 H 0.26769 0.53843 0.44451 0.0
H854 H 0.20524 0.51946 0.48959 0.0
H855 H 0.18789 0.52802 0.45165 0.0
H856 H 0.27795 0.5621 0.48942 0.0
H857 H 0.21826 0.46823 0.51137 0.0
H858 H 0.21735 0.48137 0.48054 0.0
H859 H 0.20325 0.48461 0.50926 0.0
C860 C 0.24033 0.54092 0.42452 0.0
C861 C 0.21796 0.53861 0.42622 0.0
C862 C 0.25008 0.53569 0.4461 0.0
C863 C 0.23775 0.5281 0.46992 0.0
C864 C 0.21495 0.52477 0.47131 0.0
H865 H 0.29117 0.54909 0.62752 0.0
H866 H 0.26747 0.54185 0.58787 0.0
C867 C 0.20507 0.52979 0.4496 0.0
C868 C 0.24984 0.5265 0.49396 0.0
H869 H 0.24545 0.49109 0.54549 0.0
C870 C 0.27093 0.54644 0.50144 0.0
C871 C 0.24073 0.5061 0.50977 0.0
C872 C 0.21877 0.48379 0.50221 0.0
C873 C 0.28282 0.54673 0.52446 0.0
C874 C 0.27338 0.52663 0.5406 0.0
C875 C 0.25255 0.5065 0.53306 0.0
C876 C 0.28486 0.52693 0.56579 0.0
C877 C 0.30529 0.56867 0.53174 0.0
C878 C 0.30204 0.5203 0.56668 0.0
C879 C 0.3157 0.52442 0.58937 0.0
C880 C 0.31242 0.53536 0.61144 0.0
C881 C 0.29422 0.5407 0.61089 0.0
C882 C 0.2806 0.53654 0.58826 0.0
H883 H 0.31111 0.58236 0.51628 0.0
H884 H 0.30275 0.57592 0.55036 0.0
H885 H 0.31943 0.56445 0.53515 0.0
H886 H 0.30565 0.51299 0.54942 0.0
H887 H 0.32958 0.52015 0.5891 0.0
H888 H 0.79722 0.32558 0.9261 0.0
H889 H 0.77913 0.30149 0.88684 0.0
H890 H 0.71101 0.27257 0.92282 0.0
H891 H 0.72878 0.29652 0.96193 0.0
H892 H 0.74593 0.25002 0.87848 0.0
H893 H 0.70911 0.30749 0.85451 0.0
H894 H 0.7327 0.31584 0.87781 0.0
H895 H 0.70302 0.29545 0.88717 0.0
C896 C 0.77844 0.31376 0.92586 0.0
C897 C 0.76442 0.31318 0.94705 0.0
C898 C 0.76815 0.3 0.90341 0.0
C899 C 0.74371 0.2855 0.90182 0.0
C900 C 0.72987 0.28385 0.92356 0.0
H901 H 0.65055 0.18539 0.78592 0.0
H902 H 0.67589 0.20366 0.82417 0.0
C903 C 0.7401 0.29755 0.94592 0.0
C904 C 0.73237 0.27369 0.87676 0.0
H905 H 0.69646 0.27368 0.82831 0.0
C906 C 0.73518 0.2552 0.8674 0.0
C907 C 0.71862 0.2807 0.86219 0.0
C908 C 0.71577 0.30108 0.87072 0.0
C909 C 0.7241 0.24317 0.84408 0.0
C910 C 0.70974 0.24976 0.82997 0.0
C911 C 0.70738 0.26856 0.83915 0.0
C912 C 0.69677 0.23751 0.80569 0.0
C913 C 0.72802 0.22373 0.8346 0.0
C914 C 0.70017 0.25032 0.78246 0.0
C915 C 0.68562 0.23999 0.76068 0.0
C916 C 0.66726 0.21659 0.76165 0.0
C917 C 0.66461 0.2034 0.78445 0.0
C918 C 0.67916 0.2138 0.80633 0.0
H919 H 0.74404 0.22497 0.84343 0.0
H920 H 0.71282 0.20663 0.84035 0.0
H921 H 0.7296 0.22403 0.81284 0.0
H922 H 0.7136 0.26863 0.7815 0.0
H923 H 0.68821 0.25066 0.74343 0.0
H924 H 0.4285 0.69426 0.0772 0.0
H925 H 0.43594 0.7194 0.11546 0.0
H926 H 0.47098 0.68717 0.15409 0.0
H927 H 0.46373 0.66194 0.11566 0.0
H928 H 0.41762 0.70073 0.16476 0.0
H929 H 0.51444 0.75776 0.16963 0.0
H930 H 0.49932 0.74252 0.14 0.0
H931 H 0.504 0.72695 0.16609 0.0
C932 C 0.43823 0.6928 0.09357 0.0
C933 C 0.44543 0.67598 0.09337 0.0
C934 C 0.44246 0.70721 0.11547 0.0
C935 C 0.45411 0.70528 0.13762 0.0
C936 C 0.46229 0.68926 0.13707 0.0
H937 H 0.43601 0.74057 0.29671 0.0
H938 H 0.4423 0.72257 0.25786 0.0
C939 C 0.45806 0.67478 0.1151 0.0
C940 C 0.45526 0.71814 0.16213 0.0
H941 H 0.49264 0.75897 0.20633 0.0
C942 C 0.43404 0.71349 0.17379 0.0
C943 C 0.47669 0.73486 0.17385 0.0
C944 C 0.49995 0.74104 0.16171 0.0
C945 C 0.43363 0.72491 0.1969 0.0
C946 C 0.45501 0.7413 0.20892 0.0
C947 C 0.47629 0.74624 0.19717 0.0
C948 C 0.45518 0.75348 0.23356 0.0
C949 C 0.41026 0.7195 0.20821 0.0
C950 C 0.46127 0.77716 0.2331 0.0
C951 C 0.45769 0.78756 0.25535 0.0
C952 C 0.44799 0.77444 0.27843 0.0
C953 C 0.4434 0.75118 0.27927 0.0
C954 C 0.44695 0.74082 0.25706 0.0
H955 H 0.39568 0.70992 0.19401 0.0
H956 H 0.40656 0.70845 0.226 0.0
H957 H 0.41059 0.73588 0.21416 0.0
H958 H 0.46765 0.78723 0.21514 0.0
H959 H 0.46142 0.8055 0.25401 0.0
H960 H 0.69722 0.44615 0.63462 0.0
H961 H 0.72344 0.45524 0.59702 0.0
H962 H 0.67411 0.4627 0.54791 0.0
H963 H 0.6482 0.45442 0.58568 0.0
H964 H 0.71298 0.42837 0.55554 0.0
H965 H 0.73397 0.5163 0.52104 0.0
H966 H 0.72105 0.50507 0.55284 0.0
H967 H 0.70296 0.49692 0.5238 0.0
C968 C 0.69225 0.45037 0.61598 0.0
C969 C 0.6706 0.44954 0.61315 0.0
C970 C 0.70725 0.45553 0.59445 0.0
C971 C 0.70092 0.45983 0.56955 0.0
C972 C 0.67976 0.46003 0.56696 0.0
H973 H 0.73267 0.436 0.41338 0.0
H974 H 0.71703 0.44474 0.4527 0.0
C975 C 0.66486 0.45516 0.5886 0.0
C976 C 0.71492 0.46114 0.54592 0.0
H977 H 0.74034 0.4924 0.4899 0.0
C978 C 0.71928 0.44261 0.54147 0.0
C979 C 0.72312 0.47965 0.52738 0.0
C980 C 0.72024 0.50071 0.53163 0.0
C981 C 0.73091 0.44172 0.51878 0.0
C982 C 0.73841 0.45978 0.49993 0.0
C983 C 0.7345 0.47856 0.50442 0.0
C984 C 0.74924 0.45848 0.47492 0.0
C985 C 0.73459 0.42111 0.51463 0.0
C986 C 0.77275 0.46398 0.47419 0.0
C987 C 0.78182 0.4591 0.45167 0.0
C988 C 0.76742 0.44843 0.42962 0.0
C989 C 0.74422 0.44414 0.43002 0.0
C990 C 0.73525 0.44918 0.45244 0.0
H991 H 0.72658 0.40783 0.5305 0.0
H992 H 0.72692 0.41259 0.49548 0.0
H993 H 0.75366 0.42731 0.51393 0.0
H994 H 0.78377 0.47109 0.49143 0.0
H995 H 0.79972 0.46256 0.45205 0.0
H996 H 0.19124 0.6542 0.91767 0.0
H997 H 0.20932 0.67969 0.87949 0.0
H998 H 0.26844 0.72667 0.92739 0.0
H999 H 0.25094 0.70083 0.96524 0.0
H1000 H 0.22486 0.72493 0.86607 0.0
H1001 H 0.3003 0.70973 0.87148 0.0
H1002 H 0.27436 0.69348 0.89122 0.0
H1003 H 0.29668 0.72244 0.90101 0.0
C1004 C 0.20794 0.67014 0.92013 0.0
C1005 C 0.21982 0.67534 0.94438 0.0
C1006 C 0.21828 0.68469 0.89828 0.0
C1007 C 0.24058 0.70477 0.90034 0.0
C1008 C 0.25159 0.71088 0.92505 0.0
H1009 H 0.33894 0.80428 0.78706 0.0
H1010 H 0.31501 0.78701 0.82643 0.0
C1011 C 0.24148 0.69618 0.94675 0.0
C1012 C 0.25291 0.71854 0.87645 0.0
H1013 H 0.30326 0.73804 0.84074 0.0
C1014 C 0.24199 0.72778 0.86053 0.0
C1015 C 0.27519 0.72207 0.86898 0.0
C1016 C 0.28722 0.71121 0.8839 0.0
C1017 C 0.25292 0.74069 0.83765 0.0
C1018 C 0.27531 0.74451 0.83059 0.0
C1019 C 0.28622 0.73535 0.84645 0.0
C1020 C 0.28748 0.75698 0.80616 0.0
C1021 C 0.24062 0.75033 0.82121 0.0
C1022 C 0.27968 0.74607 0.78162 0.0
C1023 C 0.2934 0.75578 0.7591 0.0
C1024 C 0.31517 0.77665 0.76071 0.0
C1025 C 0.32223 0.78827 0.78507 0.0
C1026 C 0.30861 0.77841 0.80762 0.0
H1027 H 0.22522 0.74922 0.83151 0.0
H1028 H 0.25293 0.76889 0.81597 0.0
H1029 H 0.23447 0.74019 0.80262 0.0
H1030 H 0.26358 0.72938 0.78011 0.0
H1031 H 0.28746 0.74635 0.74067 0.0
loop_
_geom_bond_atom_site_label_1
_geom_bond_atom_site_label_2
_geom_bond_distance
_geom_bond_site_symmetry_2
_ccdc_geom_bond_type
O0 Cd1 2.223 . S
O0 C8 1.315 . S
Cd1 O0 2.223 . S
Cd1 O4 2.297 . S
Cd1 O5 2.439 . S
Cd1 O11 2.240 . S
Cd2 O3 2.240 . S
Cd2 O10 2.223 . S
Cd2 O12 2.297 . S
Cd2 O13 2.439 . S
O3 Cd2 2.240 . S
O3 C8 1.279 . S
O4 Cd1 2.297 . S
O4 C6 1.247 . S
O5 Cd1 2.439 . S
O5 C6 1.208 . S
C6 O4 1.247 . S
C6 O5 1.208 . S
C7 O12 1.247 . S
C7 O13 1.208 . S
C8 O0 1.315 . S
C8 O3 1.279 . S
C9 O10 1.315 . S
C9 O11 1.279 . S
O10 Cd2 2.223 . S
O10 C9 1.315 . S
O11 Cd1 2.240 . S
O11 C9 1.279 . S
O12 Cd2 2.297 . S
O12 C7 1.247 . S
O13 Cd2 2.439 . S
O13 C7 1.208 . S
O14 Cd15 2.223 . S
O14 C22 1.315 . S
Cd15 O14 2.223 . S
Cd15 O18 2.297 . S
Cd15 O19 2.439 . S
Cd15 O25 2.240 . S
Cd16 O17 2.240 . S
Cd16 O24 2.223 . S
Cd16 O26 2.297 . S
Cd16 O27 2.439 . S
O17 Cd16 2.240 . S
O17 C22 1.279 . S
O18 Cd15 2.297 . S
O18 C20 1.247 . S
O19 Cd15 2.439 . S
O19 C20 1.208 . S
C20 O18 1.247 . S
C20 O19 1.208 . S
C21 O26 1.247 . S
C21 O27 1.208 . S
C22 O14 1.315 . S
C22 O17 1.279 . S
C23 O24 1.315 . S
C23 O25 1.279 . S
O24 Cd16 2.223 . S
O24 C23 1.315 . S
O25 Cd15 2.240 . S
O25 C23 1.279 . S
O26 Cd16 2.297 . S
O26 C21 1.247 . S
O27 Cd16 2.439 . S
O27 C21 1.208 . S
O28 Cd29 2.212 1_554 S
O28 C36 1.315 . S
Cd29 O28 2.212 1_556 S
Cd29 O32 2.296 1_556 S
Cd29 O33 2.443 . S
Cd29 O39 2.243 . S
Cd30 O31 2.245 . S
Cd30 O38 2.225 . S
Cd30 O40 2.291 1_554 S
Cd30 O41 2.431 1_554 S
O31 Cd30 2.245 . S
O31 C36 1.279 . S
O32 Cd29 2.296 1_554 S
O32 C34 1.247 1_554 S
O33 Cd29 2.443 . S
O33 C34 1.208 . S
C34 O32 1.247 1_556 S
C34 O33 1.208 . S
C35 O40 1.247 . S
C35 O41 1.208 . S
C36 O28 1.315 . S
C36 O31 1.279 . S
C37 O38 1.308 1_556 S
C37 O39 1.288 . S
O38 Cd30 2.225 . S
O38 C37 1.308 1_554 S
O39 Cd29 2.243 . S
O39 C37 1.288 . S
O40 Cd30 2.291 1_556 S
O40 C35 1.247 . S
O41 Cd30 2.431 1_556 S
O41 C35 1.208 . S
O42 Cd43 2.223 . S
O42 C50 1.315 . S
Cd43 O42 2.223 . S
Cd43 O46 2.297 . S
Cd43 O47 2.439 . S
Cd43 O53 2.240 . S
Cd44 O45 2.240 . S
Cd44 O52 2.223 . S
Cd44 O54 2.297 . S
Cd44 O55 2.439 . S
O45 Cd44 2.240 . S
O45 C50 1.279 . S
O46 Cd43 2.297 . S
O46 C48 1.247 . S
O47 Cd43 2.439 . S
O47 C48 1.208 . S
C48 O46 1.247 . S
C48 O47 1.208 . S
C49 O54 1.247 . S
C49 O55 1.208 . S
C50 O42 1.315 . S
C50 O45 1.279 . S
C51 O52 1.315 . S
C51 O53 1.279 . S
O52 Cd44 2.223 . S
O52 C51 1.315 . S
O53 Cd43 2.240 . S
O53 C51 1.279 . S
O54 Cd44 2.297 . S
O54 C49 1.247 . S
O55 Cd44 2.439 . S
O55 C49 1.208 . S
O56 Cd57 2.223 . S
O56 C64 1.315 . S
Cd57 O56 2.223 . S
Cd57 O60 2.297 . S
Cd57 O61 2.439 . S
Cd57 O67 2.240 . S
Cd58 O59 2.240 . S
Cd58 O66 2.223 . S
Cd58 O68 2.297 . S
Cd58 O69 2.439 . S
O59 Cd58 2.240 . S
O59 C64 1.279 . S
O60 Cd57 2.297 . S
O60 C62 1.247 . S
O61 Cd57 2.439 . S
O61 C62 1.208 . S
C62 O60 1.247 . S
C62 O61 1.208 . S
C63 O68 1.247 . S
C63 O69 1.208 . S
C64 O56 1.315 . S
C64 O59 1.279 . S
C65 O66 1.315 . S
C65 O67 1.279 . S
O66 Cd58 2.223 . S
O66 C65 1.315 . S
O67 Cd57 2.240 . S
O67 C65 1.279 . S
O68 Cd58 2.297 . S
O68 C63 1.247 . S
O69 Cd58 2.439 . S
O69 C63 1.208 . S
O70 Cd71 2.212 1_554 S
O70 C78 1.315 . S
Cd71 O70 2.212 1_556 S
Cd71 O74 2.296 1_556 S
Cd71 O75 2.443 . S
Cd71 O81 2.243 . S
Cd72 O73 2.245 . S
Cd72 O80 2.225 . S
Cd72 O82 2.291 1_554 S
Cd72 O83 2.431 1_554 S
O73 Cd72 2.245 . S
O73 C78 1.279 . S
O74 Cd71 2.296 1_554 S
O74 C76 1.247 1_554 S
O75 Cd71 2.443 . S
O75 C76 1.208 . S
C76 O74 1.247 1_556 S
C76 O75 1.208 . S
C77 O82 1.247 . S
C77 O83 1.208 . S
C78 O70 1.315 . S
C78 O73 1.279 . S
C79 O80 1.308 1_556 S
C79 O81 1.288 . S
O80 Cd72 2.225 . S
O80 C79 1.308 1_554 S
O81 Cd71 2.243 . S
O81 C79 1.288 . S
O82 Cd72 2.291 1_556 S
O82 C77 1.247 . S
O83 Cd72 2.431 1_556 S
O83 C77 1.208 . S
O84 Cd85 2.223 . S
O84 C92 1.315 . S
Cd85 O84 2.223 . S
Cd85 O88 2.297 . S
Cd85 O89 2.439 . S
Cd85 O95 2.240 . S
Cd86 O87 2.240 . S
Cd86 O94 2.223 . S
Cd86 O96 2.297 . S
Cd86 O97 2.439 . S
O87 Cd86 2.240 . S
O87 C92 1.279 . S
O88 Cd85 2.297 . S
O88 C90 1.247 . S
O89 Cd85 2.439 . S
O89 C90 1.208 . S
C90 O88 1.247 . S
C90 O89 1.208 . S
C91 O96 1.247 . S
C91 O97 1.208 . S
C92 O84 1.315 . S
C92 O87 1.279 . S
C93 O94 1.315 . S
C93 O95 1.279 . S
O94 Cd86 2.223 . S
O94 C93 1.315 . S
O95 Cd85 2.240 . S
O95 C93 1.279 . S
O96 Cd86 2.297 . S
O96 C91 1.247 . S
O97 Cd86 2.439 . S
O97 C91 1.208 . S
O98 Cd99 2.223 . S
O98 C106 1.315 . S
Cd99 O98 2.223 . S
Cd99 O102 2.297 . S
Cd99 O103 2.439 . S
Cd99 O109 2.240 . S
Cd100 O101 2.240 . S
Cd100 O108 2.223 . S
Cd100 O110 2.297 . S
Cd100 O111 2.439 . S
O101 Cd100 2.240 . S
O101 C106 1.279 . S
O102 Cd99 2.297 . S
O102 C104 1.247 . S
O103 Cd99 2.439 . S
O103 C104 1.208 . S
C104 O102 1.247 . S
C104 O103 1.208 . S
C105 O110 1.247 . S
C105 O111 1.208 . S
C106 O98 1.315 . S
C106 O101 1.279 . S
C107 O108 1.315 . S
C107 O109 1.279 . S
O108 Cd100 2.223 . S
O108 C107 1.315 . S
O109 Cd99 2.240 . S
O109 C107 1.279 . S
O110 Cd100 2.297 . S
O110 C105 1.247 . S
O111 Cd100 2.439 . S
O111 C105 1.208 . S
O112 Cd113 2.223 1_556 S
O112 C120 1.315 . S
Cd113 O112 2.223 1_554 S
Cd113 O116 2.297 . S
Cd113 O117 2.439 . S
Cd113 O123 2.240 . S
Cd114 O115 2.240 1_554 S
Cd114 O122 2.223 . S
Cd114 O124 2.297 . S
Cd114 O125 2.439 . S
O115 Cd114 2.240 1_556 S
O115 C120 1.279 . S
O116 Cd113 2.297 . S
O116 C118 1.247 . S
O117 Cd113 2.439 . S
O117 C118 1.208 . S
C118 O116 1.247 . S
C118 O117 1.208 . S
C119 O124 1.247 . S
C119 O125 1.208 . S
C120 O112 1.315 . S
C120 O115 1.279 . S
C121 O122 1.315 . S
C121 O123 1.279 . S
O122 Cd114 2.223 . S
O122 C121 1.315 . S
O123 Cd113 2.240 . S
O123 C121 1.279 . S
O124 Cd114 2.297 . S
O124 C119 1.247 . S
O125 Cd114 2.439 . S
O125 C119 1.208 . S
O126 Cd127 2.223 . S
O126 C134 1.315 . S
Cd127 O126 2.223 . S
Cd127 O130 2.297 . S
Cd127 O131 2.439 . S
Cd127 O137 2.240 . S
Cd128 O129 2.240 . S
Cd128 O136 2.223 . S
Cd128 O138 2.297 . S
Cd128 O139 2.439 . S
O129 Cd128 2.240 . S
O129 C134 1.279 . S
O130 Cd127 2.297 . S
O130 C132 1.247 . S
O131 Cd127 2.439 . S
O131 C132 1.208 . S
C132 O130 1.247 . S
C132 O131 1.208 . S
C133 O138 1.247 . S
C133 O139 1.208 . S
C134 O126 1.315 . S
C134 O129 1.279 . S
C135 O136 1.315 . S
C135 O137 1.279 . S
O136 Cd128 2.223 . S
O136 C135 1.315 . S
O137 Cd127 2.240 . S
O137 C135 1.279 . S
O138 Cd128 2.297 . S
O138 C133 1.247 . S
O139 Cd128 2.439 . S
O139 C133 1.208 . S
O140 Cd141 2.223 . S
O140 C148 1.315 . S
Cd141 O140 2.223 . S
Cd141 O144 2.297 . S
Cd141 O145 2.439 . S
Cd141 O151 2.240 . S
Cd142 O143 2.240 . S
Cd142 O150 2.223 . S
Cd142 O152 2.297 . S
Cd142 O153 2.439 . S
O143 Cd142 2.240 . S
O143 C148 1.279 . S
O144 Cd141 2.297 . S
O144 C146 1.247 . S
O145 Cd141 2.439 . S
O145 C146 1.208 . S
C146 O144 1.247 . S
C146 O145 1.208 . S
C147 O152 1.247 . S
C147 O153 1.208 . S
C148 O140 1.315 . S
C148 O143 1.279 . S
C149 O150 1.315 . S
C149 O151 1.279 . S
O150 Cd142 2.223 . S
O150 C149 1.315 . S
O151 Cd141 2.240 . S
O151 C149 1.279 . S
O152 Cd142 2.297 . S
O152 C147 1.247 . S
O153 Cd142 2.439 . S
O153 C147 1.208 . S
O154 Cd155 2.223 1_556 S
O154 C162 1.315 . S
Cd155 O154 2.223 1_554 S
Cd155 O158 2.297 . S
Cd155 O159 2.439 . S
Cd155 O165 2.240 . S
Cd156 O157 2.240 1_554 S
Cd156 O164 2.223 . S
Cd156 O166 2.297 . S
Cd156 O167 2.439 . S
O157 Cd156 2.240 1_556 S
O157 C162 1.279 . S
O158 Cd155 2.297 . S
O158 C160 1.247 . S
O159 Cd155 2.439 . S
O159 C160 1.208 . S
C160 O158 1.247 . S
C160 O159 1.208 . S
C161 O166 1.247 . S
C161 O167 1.208 . S
C162 O154 1.315 . S
C162 O157 1.279 . S
C163 O164 1.315 . S
C163 O165 1.279 . S
O164 Cd156 2.223 . S
O164 C163 1.315 . S
O165 Cd155 2.240 . S
O165 C163 1.279 . S
O166 Cd156 2.297 . S
O166 C161 1.247 . S
O167 Cd156 2.439 . S
O167 C161 1.208 . S
H168 C176 0.929 . S
H169 C178 0.930 . S
H170 C180 0.930 . S
H171 C183 0.929 . S
H172 C186 0.930 . S
H173 C188 0.960 . S
H174 C188 0.960 . S
H175 C188 0.960 . S
C176 H168 0.929 . S
C176 C177 1.377 . S
C176 C178 1.384 . S
C177 C176 1.377 . S
C177 C183 1.390 . S
C178 H169 0.930 . S
C178 C176 1.384 . S
C178 C179 1.372 . S
C179 C178 1.372 . S
C179 C180 1.400 . S
C179 C184 1.490 . S
C180 H170 0.930 . S
C180 C179 1.400 . S
C180 C183 1.386 . S
H181 C197 0.930 . S
H182 C198 0.931 . S
C183 H171 0.929 . S
C183 C177 1.390 . S
C183 C180 1.386 . S
C184 C179 1.490 . S
C184 C186 1.395 . S
C184 C187 1.403 . S
H185 C191 0.930 . S
C186 H172 0.930 . S
C186 C184 1.395 . S
C186 C189 1.403 . S
C187 C184 1.403 . S
C187 C188 1.524 . S
C187 C191 1.400 . S
C188 H173 0.960 . S
C188 H174 0.960 . S
C188 H175 0.960 . S
C188 C187 1.524 . S
C189 C186 1.403 . S
C189 C190 1.392 . S
C189 C193 1.495 . S
C190 C189 1.392 . S
C190 C191 1.385 . S
C190 C192 1.478 . S
C191 H185 0.930 . S
C191 C187 1.400 . S
C191 C190 1.385 . S
C192 C190 1.478 . S
C192 C194 1.381 . S
C192 C198 1.383 . S
C193 C189 1.495 . S
C193 H199 0.959 . S
C193 H200 0.961 . S
C193 H201 0.960 . S
C194 C192 1.381 . S
C194 C195 1.394 . S
C194 H202 0.930 . S
C195 C194 1.394 . S
C195 C196 1.383 . S
C195 H203 0.929 . S
C196 C195 1.383 . S
C196 C197 1.377 . S
C197 H181 0.930 . S
C197 C196 1.377 . S
C197 C198 1.379 . S
C198 H182 0.931 . S
C198 C192 1.383 . S
C198 C197 1.379 . S
H199 C193 0.959 . S
H200 C193 0.961 . S
H201 C193 0.960 . S
H202 C194 0.930 . S
H203 C195 0.929 . S
H204 C212 0.929 . S
H205 C214 0.930 . S
H206 C216 0.930 . S
H207 C219 0.929 . S
H208 C222 0.930 . S
H209 C224 0.960 . S
H210 C224 0.960 . S
H211 C224 0.960 . S
C212 H204 0.929 . S
C212 C213 1.377 . S
C212 C214 1.384 . S
C213 C212 1.377 . S
C213 C219 1.390 . S
C214 H205 0.930 . S
C214 C212 1.384 . S
C214 C215 1.372 . S
C215 C214 1.372 . S
C215 C216 1.400 . S
C215 C220 1.490 . S
C216 H206 0.930 . S
C216 C215 1.400 . S
C216 C219 1.386 . S
H217 C233 0.930 . S
H218 C234 0.931 . S
C219 H207 0.929 . S
C219 C213 1.390 . S
C219 C216 1.386 . S
C220 C215 1.490 . S
C220 C222 1.395 . S
C220 C223 1.403 . S
H221 C227 0.930 . S
C222 H208 0.930 . S
C222 C220 1.395 . S
C222 C225 1.403 . S
C223 C220 1.403 . S
C223 C224 1.524 . S
C223 C227 1.400 . S
C224 H209 0.960 . S
C224 H210 0.960 . S
C224 H211 0.960 . S
C224 C223 1.524 . S
C225 C222 1.403 . S
C225 C226 1.392 . S
C225 C229 1.495 . S
C226 C225 1.392 . S
C226 C227 1.385 . S
C226 C228 1.478 . S
C227 H221 0.930 . S
C227 C223 1.400 . S
C227 C226 1.385 . S
C228 C226 1.478 . S
C228 C230 1.381 . S
C228 C234 1.383 . S
C229 C225 1.495 . S
C229 H235 0.959 . S
C229 H236 0.961 . S
C229 H237 0.960 . S
C230 C228 1.381 . S
C230 C231 1.394 . S
C230 H238 0.930 . S
C231 C230 1.394 . S
C231 C232 1.383 . S
C231 H239 0.929 . S
C232 C231 1.383 . S
C232 C233 1.377 . S
C233 H217 0.930 . S
C233 C232 1.377 . S
C233 C234 1.379 . S
C234 H218 0.931 . S
C234 C228 1.383 . S
C234 C233 1.379 . S
H235 C229 0.959 . S
H236 C229 0.961 . S
H237 C229 0.960 . S
H238 C230 0.930 . S
H239 C231 0.929 . S
H240 C248 0.929 . S
H241 C250 0.930 . S
H242 C252 0.930 . S
H243 C255 0.929 . S
H244 C258 0.930 . S
H245 C260 0.960 . S
H246 C260 0.960 . S
H247 C260 0.960 . S
C248 H240 0.929 . S
C248 C249 1.377 . S
C248 C250 1.384 . S
C249 C248 1.377 . S
C249 C255 1.390 . S
C250 H241 0.930 . S
C250 C248 1.384 . S
C250 C251 1.372 . S
C251 C250 1.372 . S
C251 C252 1.400 . S
C251 C256 1.490 . S
C252 H242 0.930 . S
C252 C251 1.400 . S
C252 C255 1.386 . S
H253 C269 0.930 . S
H254 C270 0.931 . S
C255 H243 0.929 . S
C255 C249 1.390 . S
C255 C252 1.386 . S
C256 C251 1.490 . S
C256 C258 1.395 . S
C256 C259 1.403 . S
H257 C263 0.930 . S
C258 H244 0.930 . S
C258 C256 1.395 . S
C258 C261 1.403 . S
C259 C256 1.403 . S
C259 C260 1.524 . S
C259 C263 1.400 . S
C260 H245 0.960 . S
C260 H246 0.960 . S
C260 H247 0.960 . S
C260 C259 1.524 . S
C261 C258 1.403 . S
C261 C262 1.392 . S
C261 C265 1.495 . S
C262 C261 1.392 . S
C262 C263 1.385 . S
C262 C264 1.478 . S
C263 H257 0.930 . S
C263 C259 1.400 . S
C263 C262 1.385 . S
C264 C262 1.478 . S
C264 C266 1.381 . S
C264 C270 1.383 . S
C265 C261 1.495 . S
C265 H271 0.959 . S
C265 H272 0.961 . S
C265 H273 0.960 . S
C266 C264 1.381 . S
C266 C267 1.394 . S
C266 H274 0.930 . S
C267 C266 1.394 . S
C267 C268 1.383 . S
C267 H275 0.929 . S
C268 C267 1.383 . S
C268 C269 1.377 . S
C269 H253 0.930 . S
C269 C268 1.377 . S
C269 C270 1.379 . S
C270 H254 0.931 . S
C270 C264 1.383 . S
C270 C269 1.379 . S
H271 C265 0.959 . S
H272 C265 0.961 . S
H273 C265 0.960 . S
H274 C266 0.930 . S
H275 C267 0.929 . S
H276 C284 0.929 . S
H277 C286 0.930 . S
H278 C288 0.930 . S
H279 C291 0.929 . S
H280 C294 0.930 . S
H281 C296 0.960 . S
H282 C296 0.960 . S
H283 C296 0.960 . S
C284 H276 0.929 . S
C284 C285 1.377 . S
C284 C286 1.384 . S
C285 C284 1.377 . S
C285 C291 1.390 . S
C286 H277 0.930 . S
C286 C284 1.384 . S
C286 C287 1.372 . S
C287 C286 1.372 . S
C287 C288 1.400 . S
C287 C292 1.490 . S
C288 H278 0.930 . S
C288 C287 1.400 . S
C288 C291 1.386 . S
H289 C305 0.930 . S
H290 C306 0.931 . S
C291 H279 0.929 . S
C291 C285 1.390 . S
C291 C288 1.386 . S
C292 C287 1.490 . S
C292 C294 1.395 . S
C292 C295 1.403 . S
H293 C299 0.930 . S
C294 H280 0.930 . S
C294 C292 1.395 . S
C294 C297 1.403 . S
C295 C292 1.403 . S
C295 C296 1.524 . S
C295 C299 1.400 . S
C296 H281 0.960 . S
C296 H282 0.960 . S
C296 H283 0.960 . S
C296 C295 1.524 . S
C297 C294 1.403 . S
C297 C298 1.392 . S
C297 C301 1.495 . S
C298 C297 1.392 . S
C298 C299 1.385 . S
C298 C300 1.478 . S
C299 H293 0.930 . S
C299 C295 1.400 . S
C299 C298 1.385 . S
C300 C298 1.478 . S
C300 C302 1.381 . S
C300 C306 1.383 . S
C301 C297 1.495 . S
C301 H307 0.959 . S
C301 H308 0.961 . S
C301 H309 0.960 . S
C302 C300 1.381 . S
C302 C303 1.394 . S
C302 H310 0.930 . S
C303 C302 1.394 . S
C303 C304 1.383 . S
C303 H311 0.929 . S
C304 C303 1.383 . S
C304 C305 1.377 . S
C305 H289 0.930 . S
C305 C304 1.377 . S
C305 C306 1.379 . S
C306 H290 0.931 . S
C306 C300 1.383 . S
C306 C305 1.379 . S
H307 C301 0.959 . S
H308 C301 0.961 . S
H309 C301 0.960 . S
H310 C302 0.930 . S
H311 C303 0.929 . S
H312 C320 0.929 . S
H313 C322 0.930 . S
H314 C324 0.930 . S
H315 C327 0.929 . S
H316 C330 0.930 . S
H317 C332 0.960 . S
H318 C332 0.960 . S
H319 C332 0.960 . S
C320 H312 0.929 . S
C320 C321 1.377 . S
C320 C322 1.384 . S
C321 C320 1.377 . S
C321 C327 1.390 . S
C322 H313 0.930 . S
C322 C320 1.384 . S
C322 C323 1.372 . S
C323 C322 1.372 . S
C323 C324 1.400 . S
C323 C328 1.490 . S
C324 H314 0.930 . S
C324 C323 1.400 . S
C324 C327 1.386 . S
H325 C341 0.930 . S
H326 C342 0.931 . S
C327 H315 0.929 . S
C327 C321 1.390 . S
C327 C324 1.386 . S
C328 C323 1.490 . S
C328 C330 1.395 . S
C328 C331 1.403 . S
H329 C335 0.930 . S
C330 H316 0.930 . S
C330 C328 1.395 . S
C330 C333 1.403 . S
C331 C328 1.403 . S
C331 C332 1.524 . S
C331 C335 1.400 . S
C332 H317 0.960 . S
C332 H318 0.960 . S
C332 H319 0.960 . S
C332 C331 1.524 . S
C333 C330 1.403 . S
C333 C334 1.392 . S
C333 C337 1.495 . S
C334 C333 1.392 . S
C334 C335 1.385 . S
C334 C336 1.478 . S
C335 H329 0.930 . S
C335 C331 1.400 . S
C335 C334 1.385 . S
C336 C334 1.478 . S
C336 C338 1.381 . S
C336 C342 1.383 . S
C337 C333 1.495 . S
C337 H343 0.959 . S
C337 H344 0.961 . S
C337 H345 0.960 . S
C338 C336 1.381 . S
C338 C339 1.394 . S
C338 H346 0.930 . S
C339 C338 1.394 . S
C339 C340 1.383 . S
C339 H347 0.929 . S
C340 C339 1.383 . S
C340 C341 1.377 . S
C341 H325 0.930 . S
C341 C340 1.377 . S
C341 C342 1.379 . S
C342 H326 0.931 . S
C342 C336 1.383 . S
C342 C341 1.379 . S
H343 C337 0.959 . S
H344 C337 0.961 . S
H345 C337 0.960 . S
H346 C338 0.930 . S
H347 C339 0.929 . S
H348 C356 0.929 . S
H349 C358 0.930 . S
H350 C360 0.930 . S
H351 C363 0.929 . S
H352 C366 0.930 . S
H353 C368 0.960 . S
H354 C368 0.960 . S
H355 C368 0.960 . S
C356 H348 0.929 . S
C356 C357 1.377 . S
C356 C358 1.384 . S
C357 C356 1.377 . S
C357 C363 1.390 . S
C358 H349 0.930 . S
C358 C356 1.384 . S
C358 C359 1.372 . S
C359 C358 1.372 . S
C359 C360 1.400 . S
C359 C364 1.490 . S
C360 H350 0.930 . S
C360 C359 1.400 . S
C360 C363 1.386 . S
H361 C377 0.930 . S
H362 C378 0.931 . S
C363 H351 0.929 . S
C363 C357 1.390 . S
C363 C360 1.386 . S
C364 C359 1.490 . S
C364 C366 1.395 . S
C364 C367 1.403 . S
H365 C371 0.930 . S
C366 H352 0.930 . S
C366 C364 1.395 . S
C366 C369 1.403 . S
C367 C364 1.403 . S
C367 C368 1.524 . S
C367 C371 1.400 . S
C368 H353 0.960 . S
C368 H354 0.960 . S
C368 H355 0.960 . S
C368 C367 1.524 . S
C369 C366 1.403 . S
C369 C370 1.392 . S
C369 C373 1.495 . S
C370 C369 1.392 . S
C370 C371 1.385 . S
C370 C372 1.478 . S
C371 H365 0.930 . S
C371 C367 1.400 . S
C371 C370 1.385 . S
C372 C370 1.478 . S
C372 C374 1.381 . S
C372 C378 1.383 . S
C373 C369 1.495 . S
C373 H379 0.959 . S
C373 H380 0.961 . S
C373 H381 0.960 . S
C374 C372 1.381 . S
C374 C375 1.394 . S
C374 H382 0.930 . S
C375 C374 1.394 . S
C375 C376 1.383 . S
C375 H383 0.929 . S
C376 C375 1.383 . S
C376 C377 1.377 . S
C377 H361 0.930 . S
C377 C376 1.377 . S
C377 C378 1.379 . S
C378 H362 0.931 . S
C378 C372 1.383 . S
C378 C377 1.379 . S
H379 C373 0.959 . S
H380 C373 0.961 . S
H381 C373 0.960 . S
H382 C374 0.930 . S
H383 C375 0.929 . S
H384 C392 0.929 . S
H385 C394 0.930 . S
H386 C396 0.930 . S
H387 C399 0.929 . S
H388 C402 0.930 . S
H389 C404 0.960 . S
H390 C404 0.960 . S
H391 C404 0.960 . S
C392 H384 0.929 . S
C392 C393 1.377 . S
C392 C394 1.384 . S
C393 C392 1.377 . S
C393 C399 1.390 . S
C394 H385 0.930 . S
C394 C392 1.384 . S
C394 C395 1.372 . S
C395 C394 1.372 . S
C395 C396 1.400 . S
C395 C400 1.490 . S
C396 H386 0.930 . S
C396 C395 1.400 . S
C396 C399 1.386 . S
H397 C413 0.930 . S
H398 C414 0.931 . S
C399 H387 0.929 . S
C399 C393 1.390 . S
C399 C396 1.386 . S
C400 C395 1.490 . S
C400 C402 1.395 . S
C400 C403 1.403 . S
H401 C407 0.930 . S
C402 H388 0.930 . S
C402 C400 1.395 . S
C402 C405 1.403 . S
C403 C400 1.403 . S
C403 C404 1.524 . S
C403 C407 1.400 . S
C404 H389 0.960 . S
C404 H390 0.960 . S
C404 H391 0.960 . S
C404 C403 1.524 . S
C405 C402 1.403 . S
C405 C406 1.392 . S
C405 C409 1.495 . S
C406 C405 1.392 . S
C406 C407 1.385 . S
C406 C408 1.478 . S
C407 H401 0.930 . S
C407 C403 1.400 . S
C407 C406 1.385 . S
C408 C406 1.478 . S
C408 C410 1.381 . S
C408 C414 1.383 . S
C409 C405 1.495 . S
C409 H415 0.959 . S
C409 H416 0.961 . S
C409 H417 0.960 . S
C410 C408 1.381 . S
C410 C411 1.394 . S
C410 H418 0.930 . S
C411 C410 1.394 . S
C411 C412 1.383 . S
C411 H419 0.929 . S
C412 C411 1.383 . S
C412 C413 1.377 . S
C413 H397 0.930 . S
C413 C412 1.377 . S
C413 C414 1.379 . S
C414 H398 0.931 . S
C414 C408 1.383 . S
C414 C413 1.379 . S
H415 C409 0.959 . S
H416 C409 0.961 . S
H417 C409 0.960 . S
H418 C410 0.930 . S
H419 C411 0.929 . S
H420 C428 0.929 . S
H421 C430 0.930 . S
H422 C432 0.930 . S
H423 C435 0.929 . S
H424 C438 0.930 . S
H425 C440 0.960 . S
H426 C440 0.960 . S
H427 C440 0.960 . S
C428 H420 0.929 . S
C428 C429 1.377 . S
C428 C430 1.384 . S
C429 C428 1.377 . S
C429 C435 1.390 . S
C430 H421 0.930 . S
C430 C428 1.384 . S
C430 C431 1.372 . S
C431 C430 1.372 . S
C431 C432 1.400 . S
C431 C436 1.490 . S
C432 H422 0.930 . S
C432 C431 1.400 . S
C432 C435 1.386 . S
H433 C449 0.930 . S
H434 C450 0.931 . S
C435 H423 0.929 . S
C435 C429 1.390 . S
C435 C432 1.386 . S
C436 C431 1.490 . S
C436 C438 1.395 . S
C436 C439 1.403 . S
H437 C443 0.930 . S
C438 H424 0.930 . S
C438 C436 1.395 . S
C438 C441 1.403 . S
C439 C436 1.403 . S
C439 C440 1.524 . S
C439 C443 1.400 . S
C440 H425 0.960 . S
C440 H426 0.960 . S
C440 H427 0.960 . S
C440 C439 1.524 . S
C441 C438 1.403 . S
C441 C442 1.392 . S
C441 C445 1.495 . S
C442 C441 1.392 . S
C442 C443 1.385 . S
C442 C444 1.478 . S
C443 H437 0.930 . S
C443 C439 1.400 . S
C443 C442 1.385 . S
C444 C442 1.478 . S
C444 C446 1.381 . S
C444 C450 1.383 . S
C445 C441 1.495 . S
C445 H451 0.959 . S
C445 H452 0.961 . S
C445 H453 0.960 . S
C446 C444 1.381 . S
C446 C447 1.394 . S
C446 H454 0.930 . S
C447 C446 1.394 . S
C447 C448 1.383 . S
C447 H455 0.929 . S
C448 C447 1.383 . S
C448 C449 1.377 . S
C449 H433 0.930 . S
C449 C448 1.377 . S
C449 C450 1.379 . S
C450 H434 0.931 . S
C450 C444 1.383 . S
C450 C449 1.379 . S
H451 C445 0.959 . S
H452 C445 0.961 . S
H453 C445 0.960 . S
H454 C446 0.930 . S
H455 C447 0.929 . S
H456 C464 0.929 . S
H457 C466 0.930 . S
H458 C468 0.930 . S
H459 C471 0.929 . S
H460 C474 0.930 . S
H461 C476 0.960 . S
H462 C476 0.960 . S
H463 C476 0.960 . S
C464 H456 0.929 . S
C464 C465 1.377 . S
C464 C466 1.384 . S
C465 C464 1.377 . S
C465 C471 1.390 1_554 S
C466 H457 0.930 . S
C466 C464 1.384 . S
C466 C467 1.372 . S
C467 C466 1.372 . S
C467 C468 1.400 1_554 S
C467 C472 1.490 . S
C468 H458 0.930 . S
C468 C467 1.400 1_556 S
C468 C471 1.386 . S
H469 C485 0.930 . S
H470 C486 0.931 . S
C471 H459 0.929 . S
C471 C465 1.390 1_556 S
C471 C468 1.386 . S
C472 C467 1.490 . S
C472 C474 1.395 . S
C472 C475 1.403 1_554 S
H473 C479 0.930 . S
C474 H460 0.930 . S
C474 C472 1.395 . S
C474 C477 1.403 . S
C475 C472 1.403 1_556 S
C475 C476 1.524 . S
C475 C479 1.400 . S
C476 H461 0.960 . S
C476 H462 0.960 . S
C476 H463 0.960 . S
C476 C475 1.524 . S
C477 C474 1.403 . S
C477 C478 1.392 . S
C477 C481 1.495 . S
C478 C477 1.392 . S
C478 C479 1.385 1_554 S
C478 C480 1.478 . S
C479 H473 0.930 . S
C479 C475 1.400 . S
C479 C478 1.385 1_556 S
C480 C478 1.478 . S
C480 C482 1.381 . S
C480 C486 1.383 1_554 S
C481 C477 1.495 . S
C481 H487 0.959 . S
C481 H488 0.961 . S
C481 H489 0.960 . S
C482 C480 1.381 . S
C482 C483 1.394 . S
C482 H490 0.930 . S
C483 C482 1.394 . S
C483 C484 1.383 . S
C483 H491 0.929 . S
C484 C483 1.383 . S
C484 C485 1.377 1_554 S
C485 H469 0.930 . S
C485 C484 1.377 1_556 S
C485 C486 1.379 . S
C486 H470 0.931 . S
C486 C480 1.383 1_556 S
C486 C485 1.379 . S
H487 C481 0.959 . S
H488 C481 0.961 . S
H489 C481 0.960 . S
H490 C482 0.930 . S
H491 C483 0.929 . S
H492 C500 0.929 . S
H493 C502 0.930 . S
H494 C504 0.930 . S
H495 C507 0.929 . S
H496 C510 0.930 . S
H497 C512 0.960 . S
H498 C512 0.960 . S
H499 C512 0.960 . S
C500 H492 0.929 . S
C500 C501 1.377 . S
C500 C502 1.384 . S
C501 C500 1.377 . S
C501 C507 1.390 . S
C502 H493 0.930 . S
C502 C500 1.384 . S
C502 C503 1.372 . S
C503 C502 1.372 . S
C503 C504 1.400 . S
C503 C508 1.490 . S
C504 H494 0.930 . S
C504 C503 1.400 . S
C504 C507 1.386 . S
H505 C521 0.930 . S
H506 C522 0.931 . S
C507 H495 0.929 . S
C507 C501 1.390 . S
C507 C504 1.386 . S
C508 C503 1.490 . S
C508 C510 1.395 . S
C508 C511 1.403 . S
H509 C515 0.930 . S
C510 H496 0.930 . S
C510 C508 1.395 . S
C510 C513 1.403 . S
C511 C508 1.403 . S
C511 C512 1.524 . S
C511 C515 1.400 . S
C512 H497 0.960 . S
C512 H498 0.960 . S
C512 H499 0.960 . S
C512 C511 1.524 . S
C513 C510 1.403 . S
C513 C514 1.392 . S
C513 C517 1.495 . S
C514 C513 1.392 . S
C514 C515 1.385 . S
C514 C516 1.478 . S
C515 H509 0.930 . S
C515 C511 1.400 . S
C515 C514 1.385 . S
C516 C514 1.478 . S
C516 C518 1.381 . S
C516 C522 1.383 . S
C517 C513 1.495 . S
C517 H523 0.959 . S
C517 H524 0.961 . S
C517 H525 0.960 . S
C518 C516 1.381 . S
C518 C519 1.394 . S
C518 H526 0.930 . S
C519 C518 1.394 . S
C519 C520 1.383 . S
C519 H527 0.929 . S
C520 C519 1.383 . S
C520 C521 1.377 . S
C521 H505 0.930 . S
C521 C520 1.377 . S
C521 C522 1.379 . S
C522 H506 0.931 . S
C522 C516 1.383 . S
C522 C521 1.379 . S
H523 C517 0.959 . S
H524 C517 0.961 . S
H525 C517 0.960 . S
H526 C518 0.930 . S
H527 C519 0.929 . S
H528 C536 0.929 . S
H529 C538 0.930 . S
H530 C540 0.930 . S
H531 C543 0.929 . S
H532 C546 0.930 . S
H533 C548 0.960 . S
H534 C548 0.960 . S
H535 C548 0.960 . S
C536 H528 0.929 . S
C536 C537 1.377 . S
C536 C538 1.384 . S
C537 C536 1.377 . S
C537 C543 1.390 . S
C538 H529 0.930 . S
C538 C536 1.384 . S
C538 C539 1.372 . S
C539 C538 1.372 . S
C539 C540 1.400 . S
C539 C544 1.490 . S
C540 H530 0.930 . S
C540 C539 1.400 . S
C540 C543 1.386 . S
H541 C557 0.930 . S
H542 C558 0.931 . S
C543 H531 0.929 . S
C543 C537 1.390 . S
C543 C540 1.386 . S
C544 C539 1.490 . S
C544 C546 1.395 . S
C544 C547 1.403 . S
H545 C551 0.930 . S
C546 H532 0.930 . S
C546 C544 1.395 . S
C546 C549 1.403 . S
C547 C544 1.403 . S
C547 C548 1.524 . S
C547 C551 1.400 . S
C548 H533 0.960 . S
C548 H534 0.960 . S
C548 H535 0.960 . S
C548 C547 1.524 . S
C549 C546 1.403 . S
C549 C550 1.392 . S
C549 C553 1.495 . S
C550 C549 1.392 . S
C550 C551 1.385 . S
C550 C552 1.478 . S
C551 H545 0.930 . S
C551 C547 1.400 . S
C551 C550 1.385 . S
C552 C550 1.478 . S
C552 C554 1.381 . S
C552 C558 1.383 . S
C553 C549 1.495 . S
C553 H559 0.959 . S
C553 H560 0.961 . S
C553 H561 0.960 . S
C554 C552 1.381 . S
C554 C555 1.394 . S
C554 H562 0.930 . S
C555 C554 1.394 . S
C555 C556 1.383 . S
C555 H563 0.929 . S
C556 C555 1.383 . S
C556 C557 1.377 . S
C557 H541 0.930 . S
C557 C556 1.377 . S
C557 C558 1.379 . S
C558 H542 0.931 . S
C558 C552 1.383 . S
C558 C557 1.379 . S
H559 C553 0.959 . S
H560 C553 0.961 . S
H561 C553 0.960 . S
H562 C554 0.930 . S
H563 C555 0.929 . S
H564 C572 0.929 . S
H565 C574 0.930 . S
H566 C576 0.930 . S
H567 C579 0.929 . S
H568 C582 0.930 . S
H569 C584 0.960 . S
H570 C584 0.960 . S
H571 C584 0.960 . S
C572 H564 0.929 . S
C572 C573 1.361 1_556 S
C572 C574 1.384 . S
C573 C572 1.361 1_554 S
C573 C579 1.410 . S
C574 H565 0.930 . S
C574 C572 1.384 . S
C574 C575 1.372 1_556 S
C575 C574 1.372 1_554 S
C575 C576 1.400 . S
C575 C580 1.490 . S
C576 H566 0.930 . S
C576 C575 1.400 . S
C576 C579 1.386 . S
H577 C593 0.930 . S
H578 C594 0.931 . S
C579 H567 0.929 . S
C579 C573 1.410 . S
C579 C576 1.386 . S
C580 C575 1.490 . S
C580 C582 1.395 1_554 S
C580 C583 1.403 . S
H581 C587 0.930 . S
C582 H568 0.930 . S
C582 C580 1.395 1_556 S
C582 C585 1.403 . S
C583 C580 1.403 . S
C583 C584 1.524 . S
C583 C587 1.400 . S
C584 H569 0.960 . S
C584 H570 0.960 . S
C584 H571 0.960 . S
C584 C583 1.524 . S
C585 C582 1.403 . S
C585 C586 1.392 1_556 S
C585 C589 1.495 . S
C586 C585 1.392 1_554 S
C586 C587 1.385 . S
C586 C588 1.478 . S
C587 H581 0.930 . S
C587 C583 1.400 . S
C587 C586 1.385 . S
C588 C586 1.478 . S
C588 C590 1.381 1_554 S
C588 C594 1.383 . S
C589 C585 1.495 . S
C589 H595 0.959 . S
C589 H596 0.961 . S
C589 H597 0.960 . S
C590 C588 1.381 1_556 S
C590 C591 1.391 1_556 S
C590 H598 0.930 . S
C591 C590 1.391 1_554 S
C591 C592 1.395 . S
C591 H599 0.921 1_554 S
C592 C591 1.395 . S
C592 C593 1.377 . S
C593 H577 0.930 . S
C593 C592 1.377 . S
C593 C594 1.379 . S
C594 H578 0.931 . S
C594 C588 1.383 . S
C594 C593 1.379 . S
H595 C589 0.959 . S
H596 C589 0.961 . S
H597 C589 0.960 . S
H598 C590 0.930 . S
H599 C591 0.921 1_556 S
H600 C608 0.929 . S
H601 C610 0.930 . S
H602 C612 0.930 . S
H603 C615 0.929 . S
H604 C618 0.930 . S
H605 C620 0.960 1_565 S
H606 C620 0.960 . S
H607 C620 0.960 . S
C608 H600 0.929 . S
C608 C609 1.377 . S
C608 C610 1.384 . S
C609 C608 1.377 . S
C609 C615 1.390 . S
C610 H601 0.930 . S
C610 C608 1.384 . S
C610 C611 1.372 . S
C611 C610 1.372 . S
C611 C612 1.400 . S
C611 C616 1.490 . S
C612 H602 0.930 . S
C612 C611 1.400 . S
C612 C615 1.386 . S
H613 C629 0.930 . S
H614 C630 0.931 . S
C615 H603 0.929 . S
C615 C609 1.390 . S
C615 C612 1.386 . S
C616 C611 1.490 . S
C616 C618 1.395 . S
C616 C619 1.403 . S
H617 C623 0.930 . S
C618 H604 0.930 . S
C618 C616 1.395 . S
C618 C621 1.403 1_545 S
C619 C616 1.403 . S
C619 C620 1.524 . S
C619 C623 1.400 1_545 S
C620 H605 0.960 1_545 S
C620 H606 0.960 . S
C620 H607 0.960 . S
C620 C619 1.524 . S
C621 C618 1.403 1_565 S
C621 C622 1.392 . S
C621 C625 1.495 . S
C622 C621 1.392 . S
C622 C623 1.385 . S
C622 C624 1.478 . S
C623 H617 0.930 . S
C623 C619 1.400 1_565 S
C623 C622 1.385 . S
C624 C622 1.478 . S
C624 C626 1.381 . S
C624 C630 1.383 . S
C625 C621 1.495 . S
C625 H631 0.959 1_565 S
C625 H632 0.961 . S
C625 H633 0.960 . S
C626 C624 1.381 . S
C626 C627 1.394 . S
C626 H634 0.930 . S
C627 C626 1.394 . S
C627 C628 1.383 . S
C627 H635 0.929 . S
C628 C627 1.383 . S
C628 C629 1.377 . S
C629 H613 0.930 . S
C629 C628 1.377 . S
C629 C630 1.379 . S
C630 H614 0.931 . S
C630 C624 1.383 . S
C630 C629 1.379 . S
H631 C625 0.959 1_545 S
H632 C625 0.961 . S
H633 C625 0.960 . S
H634 C626 0.930 . S
H635 C627 0.929 . S
H636 C644 0.929 . S
H637 C646 0.930 . S
H638 C648 0.930 . S
H639 C651 0.929 . S
H640 C654 0.930 . S
H641 C656 0.960 . S
H642 C656 0.960 . S
H643 C656 0.960 . S
C644 H636 0.929 . S
C644 C645 1.377 . S
C644 C646 1.384 . S
C645 C644 1.377 . S
C645 C651 1.390 . S
C646 H637 0.930 . S
C646 C644 1.384 . S
C646 C647 1.372 . S
C647 C646 1.372 . S
C647 C648 1.400 . S
C647 C652 1.490 . S
C648 H638 0.930 . S
C648 C647 1.400 . S
C648 C651 1.386 . S
H649 C665 0.930 . S
H650 C666 0.931 . S
C651 H639 0.929 . S
C651 C645 1.390 . S
C651 C648 1.386 . S
C652 C647 1.490 . S
C652 C654 1.395 . S
C652 C655 1.403 . S
H653 C659 0.930 . S
C654 H640 0.930 . S
C654 C652 1.395 . S
C654 C657 1.403 . S
C655 C652 1.403 . S
C655 C656 1.524 . S
C655 C659 1.400 . S
C656 H641 0.960 . S
C656 H642 0.960 . S
C656 H643 0.960 . S
C656 C655 1.524 . S
C657 C654 1.403 . S
C657 C658 1.392 . S
C657 C661 1.495 . S
C658 C657 1.392 . S
C658 C659 1.385 . S
C658 C660 1.478 . S
C659 H653 0.930 . S
C659 C655 1.400 . S
C659 C658 1.385 . S
C660 C658 1.478 . S
C660 C662 1.381 . S
C660 C666 1.383 . S
C661 C657 1.495 . S
C661 H667 0.959 . S
C661 H668 0.961 . S
C661 H669 0.960 . S
C662 C660 1.381 . S
C662 C663 1.394 . S
C662 H670 0.930 . S
C663 C662 1.394 . S
C663 C664 1.383 . S
C663 H671 0.929 . S
C664 C663 1.383 . S
C664 C665 1.377 . S
C665 H649 0.930 . S
C665 C664 1.377 . S
C665 C666 1.379 . S
C666 H650 0.931 . S
C666 C660 1.383 . S
C666 C665 1.379 . S
H667 C661 0.959 . S
H668 C661 0.961 . S
H669 C661 0.960 . S
H670 C662 0.930 . S
H671 C663 0.929 . S
H672 C680 0.929 . S
H673 C682 0.930 . S
H674 C684 0.930 . S
H675 C687 0.929 . S
H676 C690 0.930 . S
H677 C692 0.960 1_455 S
H678 C692 0.960 . S
H679 C692 0.960 1_554 S
C680 H672 0.929 . S
C680 C681 1.377 . S
C680 C682 1.384 . S
C681 C680 1.377 . S
C681 C687 1.390 1_556 S
C682 H673 0.930 . S
C682 C680 1.384 . S
C682 C683 1.372 . S
C683 C682 1.372 . S
C683 C684 1.400 1_556 S
C683 C688 1.490 . S
C684 H674 0.930 . S
C684 C683 1.400 1_554 S
C684 C687 1.386 . S
H685 C701 0.930 . S
H686 C702 0.931 . S
C687 H675 0.929 . S
C687 C681 1.390 1_554 S
C687 C684 1.386 . S
C688 C683 1.490 . S
C688 C690 1.395 . S
C688 C691 1.403 . S
H689 C695 0.930 . S
C690 H676 0.930 . S
C690 C688 1.395 . S
C690 C693 1.403 1_655 S
C691 C688 1.403 . S
C691 C692 1.524 . S
C691 C695 1.400 1_655 S
C692 H677 0.960 1_655 S
C692 H678 0.960 . S
C692 H679 0.960 1_556 S
C692 C691 1.524 . S
C693 C690 1.403 1_455 S
C693 C694 1.392 . S
C693 C697 1.495 . S
C694 C693 1.392 . S
C694 C695 1.385 . S
C694 C696 1.478 . S
C695 H689 0.930 . S
C695 C691 1.400 1_455 S
C695 C694 1.385 . S
C696 C694 1.478 . S
C696 C698 1.381 . S
C696 C702 1.383 1_556 S
C697 C693 1.495 . S
C697 H703 0.959 1_455 S
C697 H704 0.961 . S
C697 H705 0.960 . S
C698 C696 1.381 . S
C698 C699 1.394 . S
C698 H706 0.930 . S
C699 C698 1.394 . S
C699 C700 1.383 . S
C699 H707 0.929 . S
C700 C699 1.383 . S
C700 C701 1.377 1_556 S
C701 H685 0.930 . S
C701 C700 1.377 1_554 S
C701 C702 1.379 . S
C702 H686 0.931 . S
C702 C696 1.383 1_554 S
C702 C701 1.379 . S
H703 C697 0.959 1_655 S
H704 C697 0.961 . S
H705 C697 0.960 . S
H706 C698 0.930 . S
H707 C699 0.929 . S
H708 C716 0.929 . S
H709 C718 0.930 . S
H710 C720 0.930 . S
H711 C723 0.929 . S
H712 C726 0.930 . S
H713 C728 0.960 . S
H714 C728 0.960 . S
H715 C728 0.960 . S
C716 H708 0.929 . S
C716 C717 1.377 . S
C716 C718 1.384 . S
C717 C716 1.377 . S
C717 C723 1.390 . S
C718 H709 0.930 . S
C718 C716 1.384 . S
C718 C719 1.372 . S
C719 C718 1.372 . S
C719 C720 1.400 . S
C719 C724 1.490 . S
C720 H710 0.930 . S
C720 C719 1.400 . S
C720 C723 1.386 . S
H721 C737 0.930 . S
H722 C738 0.931 . S
C723 H711 0.929 . S
C723 C717 1.390 . S
C723 C720 1.386 . S
C724 C719 1.490 . S
C724 C726 1.395 . S
C724 C727 1.403 . S
H725 C731 0.930 . S
C726 H712 0.930 . S
C726 C724 1.395 . S
C726 C729 1.403 1_455 S
C727 C724 1.403 . S
C727 C728 1.524 . S
C727 C731 1.400 1_455 S
C728 H713 0.960 . S
C728 H714 0.960 . S
C728 H715 0.960 . S
C728 C727 1.524 . S
C729 C726 1.403 1_655 S
C729 C730 1.392 . S
C729 C733 1.495 . S
C730 C729 1.392 . S
C730 C731 1.385 . S
C730 C732 1.478 . S
C731 H725 0.930 . S
C731 C727 1.400 1_655 S
C731 C730 1.385 . S
C732 C730 1.478 . S
C732 C734 1.381 . S
C732 C738 1.383 . S
C733 C729 1.495 . S
C733 H739 0.959 . S
C733 H740 0.961 . S
C733 H741 0.960 . S
C734 C732 1.381 . S
C734 C735 1.394 . S
C734 H742 0.930 . S
C735 C734 1.394 . S
C735 C736 1.383 . S
C735 H743 0.929 . S
C736 C735 1.383 . S
C736 C737 1.377 . S
C737 H721 0.930 . S
C737 C736 1.377 . S
C737 C738 1.379 . S
C738 H722 0.931 . S
C738 C732 1.383 . S
C738 C737 1.379 . S
H739 C733 0.959 . S
H740 C733 0.961 . S
H741 C733 0.960 . S
H742 C734 0.930 . S
H743 C735 0.929 . S
H744 C752 0.929 . S
H745 C754 0.930 . S
H746 C756 0.930 . S
H747 C759 0.929 . S
H748 C762 0.930 . S
H749 C764 0.960 1_565 S
H750 C764 0.960 . S
H751 C764 0.960 . S
C752 H744 0.929 . S
C752 C753 1.377 . S
C752 C754 1.384 . S
C753 C752 1.377 . S
C753 C759 1.390 . S
C754 H745 0.930 . S
C754 C752 1.384 . S
C754 C755 1.372 . S
C755 C754 1.372 . S
C755 C756 1.400 . S
C755 C760 1.490 . S
C756 H746 0.930 . S
C756 C755 1.400 . S
C756 C759 1.386 . S
H757 C773 0.930 . S
H758 C774 0.931 . S
C759 H747 0.929 . S
C759 C753 1.390 . S
C759 C756 1.386 . S
C760 C755 1.490 . S
C760 C762 1.395 . S
C760 C763 1.403 . S
H761 C767 0.930 . S
C762 H748 0.930 . S
C762 C760 1.395 . S
C762 C765 1.403 1_545 S
C763 C760 1.403 . S
C763 C764 1.524 . S
C763 C767 1.400 1_545 S
C764 H749 0.960 1_545 S
C764 H750 0.960 . S
C764 H751 0.960 . S
C764 C763 1.524 . S
C765 C762 1.403 1_565 S
C765 C766 1.392 . S
C765 C769 1.495 . S
C766 C765 1.392 . S
C766 C767 1.385 . S
C766 C768 1.478 . S
C767 H761 0.930 . S
C767 C763 1.400 1_565 S
C767 C766 1.385 . S
C768 C766 1.478 . S
C768 C770 1.381 . S
C768 C774 1.383 . S
C769 C765 1.495 . S
C769 H775 0.936 1_565 S
C769 H776 0.961 . S
C769 H777 0.960 . S
C770 C768 1.381 . S
C770 C771 1.394 . S
C770 H778 0.930 . S
C771 C770 1.394 . S
C771 C772 1.383 . S
C771 H779 0.929 . S
C772 C771 1.383 . S
C772 C773 1.377 . S
C773 H757 0.930 . S
C773 C772 1.377 . S
C773 C774 1.379 . S
C774 H758 0.931 . S
C774 C768 1.383 . S
C774 C773 1.379 . S
H775 C769 0.936 1_545 S
H776 C769 0.961 . S
H777 C769 0.960 . S
H778 C770 0.930 . S
H779 C771 0.929 . S
H780 C788 0.929 1_556 S
H781 C790 0.930 1_556 S
H782 C792 0.930 . S
H783 C795 0.929 . S
H784 C798 0.930 1_556 S
H785 C800 0.960 . S
H786 C800 0.960 . S
H787 C800 0.960 . S
C788 H780 0.929 1_554 S
C788 C789 1.377 . S
C788 C790 1.384 . S
C789 C788 1.377 . S
C789 C795 1.390 . S
C790 H781 0.930 1_554 S
C790 C788 1.384 . S
C790 C791 1.372 . S
C791 C790 1.372 . S
C791 C792 1.400 . S
C791 C796 1.490 . S
C792 H782 0.930 . S
C792 C791 1.400 . S
C792 C795 1.386 . S
H793 C809 0.930 . S
H794 C810 0.931 . S
C795 H783 0.929 . S
C795 C789 1.390 . S
C795 C792 1.386 . S
C796 C791 1.490 . S
C796 C798 1.395 . S
C796 C799 1.403 . S
H797 C803 0.930 . S
C798 H784 0.930 1_554 S
C798 C796 1.395 . S
C798 C801 1.403 . S
C799 C796 1.403 . S
C799 C800 1.524 . S
C799 C803 1.400 . S
C800 H785 0.960 . S
C800 H786 0.960 . S
C800 H787 0.960 . S
C800 C799 1.524 . S
C801 C798 1.403 . S
C801 C802 1.392 . S
C801 C805 1.495 1_554 S
C802 C801 1.392 . S
C802 C803 1.385 . S
C802 C804 1.478 . S
C803 H797 0.930 . S
C803 C799 1.400 . S
C803 C802 1.385 . S
C804 C802 1.478 . S
C804 C806 1.381 . S
C804 C810 1.383 . S
C805 C801 1.495 1_556 S
C805 H811 0.959 . S
C805 H812 0.961 . S
C805 H813 0.960 . S
C806 C804 1.381 . S
C806 C807 1.394 . S
C806 H814 0.930 1_554 S
C807 C806 1.394 . S
C807 C808 1.383 . S
C807 H815 0.929 1_554 S
C808 C807 1.383 . S
C808 C809 1.377 . S
C809 H793 0.930 . S
C809 C808 1.377 . S
C809 C810 1.379 . S
C810 H794 0.931 . S
C810 C804 1.383 . S
C810 C809 1.379 . S
H811 C805 0.959 . S
H812 C805 0.961 . S
H813 C805 0.960 . S
H814 C806 0.930 1_556 S
H815 C807 0.929 1_556 S
H816 C824 0.929 . S
H817 C826 0.930 . S
H818 C828 0.930 . S
H819 C831 0.929 . S
H820 C834 0.930 . S
H821 C836 0.960 . S
H822 C836 0.960 . S
H823 C836 0.960 . S
C824 H816 0.929 . S
C824 C825 1.377 . S
C824 C826 1.384 . S
C825 C824 1.377 . S
C825 C831 1.390 . S
C826 H817 0.930 . S
C826 C824 1.384 . S
C826 C827 1.372 . S
C827 C826 1.372 . S
C827 C828 1.400 . S
C827 C832 1.490 . S
C828 H818 0.930 . S
C828 C827 1.400 . S
C828 C831 1.386 . S
H829 C845 0.930 . S
H830 C846 0.931 . S
C831 H819 0.929 . S
C831 C825 1.390 . S
C831 C828 1.386 . S
C832 C827 1.490 . S
C832 C834 1.395 . S
C832 C835 1.403 . S
H833 C839 0.930 . S
C834 H820 0.930 . S
C834 C832 1.395 . S
C834 C837 1.403 . S
C835 C832 1.403 . S
C835 C836 1.524 . S
C835 C839 1.400 . S
C836 H821 0.960 . S
C836 H822 0.960 . S
C836 H823 0.960 . S
C836 C835 1.524 . S
C837 C834 1.403 . S
C837 C838 1.392 . S
C837 C841 1.495 . S
C838 C837 1.392 . S
C838 C839 1.385 . S
C838 C840 1.478 . S
C839 H833 0.930 . S
C839 C835 1.400 . S
C839 C838 1.385 . S
C840 C838 1.478 . S
C840 C842 1.381 . S
C840 C846 1.383 . S
C841 C837 1.495 . S
C841 H847 0.959 . S
C841 H848 0.961 . S
C841 H849 0.960 . S
C842 C840 1.381 . S
C842 C843 1.394 . S
C842 H850 0.930 . S
C843 C842 1.394 . S
C843 C844 1.383 . S
C843 H851 0.929 . S
C844 C843 1.383 . S
C844 C845 1.377 . S
C845 H829 0.930 . S
C845 C844 1.377 . S
C845 C846 1.379 . S
C846 H830 0.931 . S
C846 C840 1.383 . S
C846 C845 1.379 . S
H847 C841 0.959 . S
H848 C841 0.961 . S
H849 C841 0.960 . S
H850 C842 0.930 . S
H851 C843 0.929 . S
H852 C860 0.929 . S
H853 C862 0.930 . S
H854 C864 0.930 . S
H855 C867 0.929 . S
H856 C870 0.930 . S
H857 C872 0.960 . S
H858 C872 0.960 . S
H859 C872 0.960 . S
C860 H852 0.929 . S
C860 C861 1.377 . S
C860 C862 1.384 . S
C861 C860 1.377 . S
C861 C867 1.390 . S
C862 H853 0.930 . S
C862 C860 1.384 . S
C862 C863 1.372 . S
C863 C862 1.372 . S
C863 C864 1.400 . S
C863 C868 1.490 . S
C864 H854 0.930 . S
C864 C863 1.400 . S
C864 C867 1.386 . S
H865 C881 0.930 . S
H866 C882 0.931 . S
C867 H855 0.929 . S
C867 C861 1.390 . S
C867 C864 1.386 . S
C868 C863 1.490 . S
C868 C870 1.395 . S
C868 C871 1.403 . S
H869 C875 0.930 . S
C870 H856 0.930 . S
C870 C868 1.395 . S
C870 C873 1.403 . S
C871 C868 1.403 . S
C871 C872 1.524 . S
C871 C875 1.400 . S
C872 H857 0.960 . S
C872 H858 0.960 . S
C872 H859 0.960 . S
C872 C871 1.524 . S
C873 C870 1.403 . S
C873 C874 1.392 . S
C873 C877 1.495 . S
C874 C873 1.392 . S
C874 C875 1.385 . S
C874 C876 1.478 . S
C875 H869 0.930 . S
C875 C871 1.400 . S
C875 C874 1.385 . S
C876 C874 1.478 . S
C876 C878 1.381 . S
C876 C882 1.383 . S
C877 C873 1.495 . S
C877 H883 0.959 . S
C877 H884 0.961 . S
C877 H885 0.960 . S
C878 C876 1.381 . S
C878 C879 1.394 . S
C878 H886 0.930 . S
C879 C878 1.394 . S
C879 C880 1.383 . S
C879 H887 0.929 . S
C880 C879 1.383 . S
C880 C881 1.377 . S
C881 H865 0.930 . S
C881 C880 1.377 . S
C881 C882 1.379 . S
C882 H866 0.931 . S
C882 C876 1.383 . S
C882 C881 1.379 . S
H883 C877 0.959 . S
H884 C877 0.961 . S
H885 C877 0.960 . S
H886 C878 0.930 . S
H887 C879 0.929 . S
H888 C896 0.929 . S
H889 C898 0.930 . S
H890 C900 0.930 . S
H891 C903 0.929 . S
H892 C906 0.930 . S
H893 C908 0.960 . S
H894 C908 0.960 . S
H895 C908 0.960 . S
C896 H888 0.929 . S
C896 C897 1.377 . S
C896 C898 1.384 . S
C897 C896 1.377 . S
C897 C903 1.390 . S
C898 H889 0.930 . S
C898 C896 1.384 . S
C898 C899 1.372 . S
C899 C898 1.372 . S
C899 C900 1.400 . S
C899 C904 1.490 . S
C900 H890 0.930 . S
C900 C899 1.400 . S
C900 C903 1.386 . S
H901 C917 0.930 . S
H902 C918 0.931 . S
C903 H891 0.929 . S
C903 C897 1.390 . S
C903 C900 1.386 . S
C904 C899 1.490 . S
C904 C906 1.395 . S
C904 C907 1.403 . S
H905 C911 0.930 . S
C906 H892 0.930 . S
C906 C904 1.395 . S
C906 C909 1.403 . S
C907 C904 1.403 . S
C907 C908 1.524 . S
C907 C911 1.400 . S
C908 H893 0.960 . S
C908 H894 0.960 . S
C908 H895 0.960 . S
C908 C907 1.524 . S
C909 C906 1.403 . S
C909 C910 1.392 . S
C909 C913 1.495 . S
C910 C909 1.392 . S
C910 C911 1.385 . S
C910 C912 1.478 . S
C911 H905 0.930 . S
C911 C907 1.400 . S
C911 C910 1.385 . S
C912 C910 1.478 . S
C912 C914 1.381 . S
C912 C918 1.383 . S
C913 C909 1.495 . S
C913 H919 0.959 . S
C913 H920 0.961 . S
C913 H921 0.960 . S
C914 C912 1.381 . S
C914 C915 1.394 . S
C914 H922 0.930 . S
C915 C914 1.394 . S
C915 C916 1.383 . S
C915 H923 0.929 . S
C916 C915 1.383 . S
C916 C917 1.377 . S
C917 H901 0.930 . S
C917 C916 1.377 . S
C917 C918 1.379 . S
C918 H902 0.931 . S
C918 C912 1.383 . S
C918 C917 1.379 . S
H919 C913 0.959 . S
H920 C913 0.961 . S
H921 C913 0.960 . S
H922 C914 0.930 . S
H923 C915 0.929 . S
H924 C932 0.929 . S
H925 C934 0.930 . S
H926 C936 0.930 . S
H927 C939 0.929 . S
H928 C942 0.930 . S
H929 C944 0.960 . S
H930 C944 0.960 . S
H931 C944 0.960 . S
C932 H924 0.929 . S
C932 C933 1.377 . S
C932 C934 1.384 . S
C933 C932 1.377 . S
C933 C939 1.390 . S
C934 H925 0.930 . S
C934 C932 1.384 . S
C934 C935 1.372 . S
C935 C934 1.372 . S
C935 C936 1.400 . S
C935 C940 1.490 . S
C936 H926 0.930 . S
C936 C935 1.400 . S
C936 C939 1.386 . S
H937 C953 0.930 . S
H938 C954 0.931 . S
C939 H927 0.929 . S
C939 C933 1.390 . S
C939 C936 1.386 . S
C940 C935 1.490 . S
C940 C942 1.395 . S
C940 C943 1.403 . S
H941 C947 0.930 . S
C942 H928 0.930 . S
C942 C940 1.395 . S
C942 C945 1.403 . S
C943 C940 1.403 . S
C943 C944 1.524 . S
C943 C947 1.400 . S
C944 H929 0.960 . S
C944 H930 0.960 . S
C944 H931 0.960 . S
C944 C943 1.524 . S
C945 C942 1.403 . S
C945 C946 1.392 . S
C945 C949 1.495 . S
C946 C945 1.392 . S
C946 C947 1.385 . S
C946 C948 1.478 . S
C947 H941 0.930 . S
C947 C943 1.400 . S
C947 C946 1.385 . S
C948 C946 1.478 . S
C948 C950 1.381 . S
C948 C954 1.383 . S
C949 C945 1.495 . S
C949 H955 0.959 . S
C949 H956 0.961 . S
C949 H957 0.960 . S
C950 C948 1.381 . S
C950 C951 1.394 . S
C950 H958 0.930 . S
C951 C950 1.394 . S
C951 C952 1.383 . S
C951 H959 0.929 . S
C952 C951 1.383 . S
C952 C953 1.377 . S
C953 H937 0.930 . S
C953 C952 1.377 . S
C953 C954 1.379 . S
C954 H938 0.931 . S
C954 C948 1.383 . S
C954 C953 1.379 . S
H955 C949 0.959 . S
H956 C949 0.961 . S
H957 C949 0.960 . S
H958 C950 0.930 . S
H959 C951 0.929 . S
H960 C968 0.929 . S
H961 C970 0.930 . S
H962 C972 0.930 . S
H963 C975 0.929 . S
H964 C978 0.930 . S
H965 C980 0.960 . S
H966 C980 0.960 . S
H967 C980 0.960 . S
C968 H960 0.929 . S
C968 C969 1.377 . S
C968 C970 1.384 . S
C969 C968 1.377 . S
C969 C975 1.390 . S
C970 H961 0.930 . S
C970 C968 1.384 . S
C970 C971 1.372 . S
C971 C970 1.372 . S
C971 C972 1.400 . S
C971 C976 1.490 . S
C972 H962 0.930 . S
C972 C971 1.400 . S
C972 C975 1.386 . S
H973 C989 0.930 . S
H974 C990 0.931 . S
C975 H963 0.929 . S
C975 C969 1.390 . S
C975 C972 1.386 . S
C976 C971 1.490 . S
C976 C978 1.395 . S
C976 C979 1.403 . S
H977 C983 0.930 . S
C978 H964 0.930 . S
C978 C976 1.395 . S
C978 C981 1.403 . S
C979 C976 1.403 . S
C979 C980 1.524 . S
C979 C983 1.400 . S
C980 H965 0.960 . S
C980 H966 0.960 . S
C980 H967 0.960 . S
C980 C979 1.524 . S
C981 C978 1.403 . S
C981 C982 1.392 . S
C981 C985 1.495 . S
C982 C981 1.392 . S
C982 C983 1.385 . S
C982 C984 1.478 . S
C983 H977 0.930 . S
C983 C979 1.400 . S
C983 C982 1.385 . S
C984 C982 1.478 . S
C984 C986 1.381 . S
C984 C990 1.383 . S
C985 C981 1.495 . S
C985 H991 0.959 . S
C985 H992 0.961 . S
C985 H993 0.960 . S
C986 C984 1.381 . S
C986 C987 1.394 . S
C986 H994 0.930 . S
C987 C986 1.394 . S
C987 C988 1.383 . S
C987 H995 0.929 . S
C988 C987 1.383 . S
C988 C989 1.377 . S
C989 H973 0.930 . S
C989 C988 1.377 . S
C989 C990 1.379 . S
C990 H974 0.931 . S
C990 C984 1.383 . S
C990 C989 1.379 . S
H991 C985 0.959 . S
H992 C985 0.961 . S
H993 C985 0.960 . S
H994 C986 0.930 . S
H995 C987 0.929 . S
H996 C1004 0.929 . S
H997 C1006 0.930 . S
H998 C1008 0.930 . S
H999 C1011 0.929 . S
H1000 C1014 0.930 . S
H1001 C1016 0.960 . S
H1002 C1016 0.960 . S
H1003 C1016 0.960 . S
C1004 H996 0.929 . S
C1004 C1005 1.377 . S
C1004 C1006 1.384 . S
C1005 C1004 1.377 . S
C1005 C1011 1.390 . S
C1006 H997 0.930 . S
C1006 C1004 1.384 . S
C1006 C1007 1.372 . S
C1007 C1006 1.372 . S
C1007 C1008 1.400 . S
C1007 C1012 1.490 . S
C1008 H998 0.930 . S
C1008 C1007 1.400 . S
C1008 C1011 1.386 . S
H1009 C1025 0.930 . S
H1010 C1026 0.931 . S
C1011 H999 0.929 . S
C1011 C1005 1.390 . S
C1011 C1008 1.386 . S
C1012 C1007 1.490 . S
C1012 C1014 1.395 . S
C1012 C1015 1.403 . S
H1013 C1019 0.930 . S
C1014 H1000 0.930 . S
C1014 C1012 1.395 . S
C1014 C1017 1.403 . S
C1015 C1012 1.403 . S
C1015 C1016 1.524 . S
C1015 C1019 1.400 . S
C1016 H1001 0.960 . S
C1016 H1002 0.960 . S
C1016 H1003 0.960 . S
C1016 C1015 1.524 . S
C1017 C1014 1.403 . S
C1017 C1018 1.392 . S
C1017 C1021 1.495 . S
C1018 C1017 1.392 . S
C1018 C1019 1.385 . S
C1018 C1020 1.478 . S
C1019 H1013 0.930 . S
C1019 C1015 1.400 . S
C1019 C1018 1.385 . S
C1020 C1018 1.478 . S
C1020 C1022 1.381 . S
C1020 C1026 1.383 . S
C1021 C1017 1.495 . S
C1021 H1027 0.959 . S
C1021 H1028 0.961 . S
C1021 H1029 0.960 . S
C1022 C1020 1.381 . S
C1022 C1023 1.394 . S
C1022 H1030 0.930 . S
C1023 C1022 1.394 . S
C1023 C1024 1.383 . S
C1023 H1031 0.929 . S
C1024 C1023 1.383 . S
C1024 C1025 1.377 . S
C1025 H1009 0.930 . S
C1025 C1024 1.377 . S
C1025 C1026 1.379 . S
C1026 H1010 0.931 . S
C1026 C1020 1.383 . S
C1026 C1025 1.379 . S
H1027 C1021 0.959 . S
H1028 C1021 0.961 . S
H1029 C1021 0.960 . S
H1030 C1022 0.930 . S
H1031 C1023 0.929 . S
C177 C8 1.589 . S
C196 C148 1.552 . S
C213 C22 1.592 . S
C232 C162 1.606 . S
C249 C92 1.583 . S
C268 C36 1.611 . S
C285 C50 1.582 . S
C304 C106 1.605 . S
C321 C120 1.581 . S
C340 C64 1.599 . S
C357 C134 1.581 . S
C376 C78 1.580 . S
C393 C93 0.646 . S
C412 C9 0.598 . S
C429 C107 0.650 . S
C448 C23 0.677 . S
C465 C121 0.654 . S
C484 C37 0.616 1_554 S
C501 C51 0.640 . S
C520 C135 0.615 . S
C537 C65 0.636 . S
C556 C149 0.640 . S
C573 C79 0.651 1_554 S
C592 C163 0.642 . S
C609 C6 1.387 . S
C628 C48 1.405 . S
C645 C20 1.385 . S
C664 C62 1.387 . S
C681 C34 1.387 . S
C700 C76 1.405 . S
C717 C132 1.379 . S
C736 C90 1.359 . S
C753 C146 1.388 . S
C772 C104 1.405 . S
C789 C160 1.376 . S
C808 C118 1.354 . S
C825 C7 1.276 . S
C844 C119 1.256 . S
C861 C133 1.286 . S
C880 C21 1.295 . S
C897 C35 1.287 . S
C916 C147 1.304 . S
C933 C161 1.278 . S
C952 C49 1.258 . S
C969 C63 1.287 . S
C988 C91 1.298 . S
C1005 C77 1.281 . S
C1024 C105 1.280 . S
