# Generated by pormake.
# Topology ume, (4)-cn, num edge types: 1
# Building blocks:
#     Node 0, Type 0, BuildingBlock: CEKHIL_clean_sbu_0, # of connection points: 4
#     Node 1, Type 0, BuildingBlock: CEKHIL_clean_sbu_0, # of connection points: 4
#     Node 2, Type 0, BuildingBlock: CEKHIL_clean_sbu_0, # of connection points: 4
#     Node 3, Type 0, BuildingBlock: CEKHIL_clean_sbu_0, # of connection points: 4
#     Node 4, Type 0, BuildingBlock: CEKHIL_clean_sbu_0, # of connection points: 4
#     Node 5, Type 0, BuildingBlock: CEKHIL_clean_sbu_0, # of connection points: 4
#     Node 6, Type 0, BuildingBlock: CEKHIL_clean_sbu_0, # of connection points: 4
#     Node 7, Type 0, BuildingBlock: CEKHIL_clean_sbu_0, # of connection points: 4
#     Node 8, Type 0, BuildingBlock: CEKHIL_clean_sbu_0, # of connection points: 4
#     Node 9, Type 0, BuildingBlock: CEKHIL_clean_sbu_0, # of connection points: 4
#     Node 10, Type 0, BuildingBlock: CEKHIL_clean_sbu_0, # of connection points: 4
#     Node 11, Type 0, BuildingBlock: CEKHIL_clean_sbu_0, # of connection points: 4
#     Node 12, Type 0, BuildingBlock: CEKHIL_clean_sbu_0, # of connection points: 4
#     Node 13, Type 0, BuildingBlock: CEKHIL_clean_sbu_0, # of connection points: 4
#     Node 14, Type 0, BuildingBlock: CEKHIL_clean_sbu_0, # of connection points: 4
#     Node 15, Type 0, BuildingBlock: CEKHIL_clean_sbu_0, # of connection points: 4
#     Edge 16, Type (0, 0), BuildingBlock: XUDNAN_clean_linker_2, # of connection points: 2
#     Edge 17, Type (0, 0), BuildingBlock: XUDNAN_clean_linker_2, # of connection points: 2
#     Edge 18, Type (0, 0), BuildingBlock: XUDNAN_clean_linker_2, # of connection points: 2
#     Edge 19, Type (0, 0), BuildingBlock: XUDNAN_clean_linker_2, # of connection points: 2
#     Edge 20, Type (0, 0), BuildingBlock: XUDNAN_clean_linker_2, # of connection points: 2
#     Edge 21, Type (0, 0), BuildingBlock: XUDNAN_clean_linker_2, # of connection points: 2
#     Edge 22, Type (0, 0), BuildingBlock: XUDNAN_clean_linker_2, # of connection points: 2
#     Edge 23, Type (0, 0), BuildingBlock: XUDNAN_clean_linker_2, # of connection points: 2
#     Edge 24, Type (0, 0), BuildingBlock: XUDNAN_clean_linker_2, # of connection points: 2
#     Edge 25, Type (0, 0), BuildingBlock: XUDNAN_clean_linker_2, # of connection points: 2
#     Edge 26, Type (0, 0), BuildingBlock: XUDNAN_clean_linker_2, # of connection points: 2
#     Edge 27, Type (0, 0), BuildingBlock: XUDNAN_clean_linker_2, # of connection points: 2
#     Edge 28, Type (0, 0), BuildingBlock: XUDNAN_clean_linker_2, # of connection points: 2
#     Edge 29, Type (0, 0), BuildingBlock: XUDNAN_clean_linker_2, # of connection points: 2
#     Edge 30, Type (0, 0), BuildingBlock: XUDNAN_clean_linker_2, # of connection points: 2
#     Edge 31, Type (0, 0), BuildingBlock: XUDNAN_clean_linker_2, # of connection points: 2
#     Edge 32, Type (0, 0), BuildingBlock: XUDNAN_clean_linker_2, # of connection points: 2
#     Edge 33, Type (0, 0), BuildingBlock: XUDNAN_clean_linker_2, # of connection points: 2
#     Edge 34, Type (0, 0), BuildingBlock: XUDNAN_clean_linker_2, # of connection points: 2
#     Edge 35, Type (0, 0), BuildingBlock: XUDNAN_clean_linker_2, # of connection points: 2
#     Edge 36, Type (0, 0), BuildingBlock: XUDNAN_clean_linker_2, # of connection points: 2
#     Edge 37, Type (0, 0), BuildingBlock: XUDNAN_clean_linker_2, # of connection points: 2
#     Edge 38, Type (0, 0), BuildingBlock: XUDNAN_clean_linker_2, # of connection points: 2
#     Edge 39, Type (0, 0), BuildingBlock: XUDNAN_clean_linker_2, # of connection points: 2
#     Edge 40, Type (0, 0), BuildingBlock: XUDNAN_clean_linker_2, # of connection points: 2
#     Edge 41, Type (0, 0), BuildingBlock: XUDNAN_clean_linker_2, # of connection points: 2
#     Edge 42, Type (0, 0), BuildingBlock: XUDNAN_clean_linker_2, # of connection points: 2
#     Edge 43, Type (0, 0), BuildingBlock: XUDNAN_clean_linker_2, # of connection points: 2
#     Edge 44, Type (0, 0), BuildingBlock: XUDNAN_clean_linker_2, # of connection points: 2
#     Edge 45, Type (0, 0), BuildingBlock: XUDNAN_clean_linker_2, # of connection points: 2
#     Edge 46, Type (0, 0), BuildingBlock: XUDNAN_clean_linker_2, # of connection points: 2
#     Edge 47, Type (0, 0), BuildingBlock: XUDNAN_clean_linker_2, # of connection points: 2
# Relax obj value: 0.096
# Max RMSD: 0.135
# Mean RMSD: 0.135
data_MOF--net-ume--node1-CEKHIL_clean_sbu_0--edge1-XUDNAN_clean_linker_2
_symmetry_space_group_name_H-M    P1
_symmetry_Int_Tables_number       1
_symmetry_cell_setting            triclinic
loop_
_symmetry_equiv_pos_as_xyz
'x, y, z'
_cell_length_a     27.468532
_cell_length_b     27.52258
_cell_length_c     109.30666
_cell_angle_alpha  90.024587
_cell_angle_beta   89.991225
_cell_angle_gamma 89.985655
loop_
_atom_site_label
_atom_site_type_symbol
_atom_site_fract_x
_atom_site_fract_y
_atom_site_fract_z
_atom_type_partial_charge
Co0 Co 0.25116 0.0907 0.30191 0.0
O1 O 0.18111 0.09053 0.30265 0.0
O2 O 0.22715 0.02497 0.3043 0.0
C3 C 0.25819 0.13878 0.28538 0.0
O4 O 0.32483 0.07794 0.30112 0.0
Co5 Co 0.30508 0.18861 0.30619 0.0
O6 O 0.36212 0.1508 0.30036 0.0
C7 C 0.26415 0.13671 0.3272 0.0
C8 C 0.18364 0.04387 0.30408 0.0
C9 C 0.36331 0.10451 0.29979 0.0
O10 O 0.25479 0.10047 0.32015 0.0
O11 O 0.28023 0.17746 0.32327 0.0
O12 O 0.2491 0.09275 0.28409 0.0
O13 O 0.25685 0.15487 0.29648 0.0
Co14 Co 0.89553 0.73474 0.55946 0.0
O15 O 0.89421 0.66502 0.56007 0.0
O16 O 0.9534 0.71034 0.56767 0.0
C17 C 0.87586 0.74291 0.53965 0.0
O18 O 0.90859 0.8084 0.55997 0.0
Co19 Co 0.79783 0.78792 0.55447 0.0
O20 O 0.84037 0.84558 0.55327 0.0
C21 C 0.82039 0.75631 0.5795 0.0
C22 C 0.93575 0.66711 0.56564 0.0
C23 C 0.88449 0.84687 0.55687 0.0
O24 O 0.86073 0.73848 0.57562 0.0
O25 O 0.789 0.77648 0.5725 0.0
O26 O 0.92026 0.73337 0.54289 0.0
O27 O 0.84359 0.74035 0.54827 0.0
Co28 Co 0.25819 0.40374 0.80748 0.0
O29 O 0.32819 0.40386 0.80843 0.0
O30 O 0.28145 0.46372 0.81498 0.0
C31 C 0.25367 0.37892 0.78792 0.0
O32 O 0.18408 0.41545 0.80747 0.0
Co33 Co 0.20721 0.30401 0.80342 0.0
O34 O 0.1484 0.34516 0.80179 0.0
C35 C 0.24675 0.32759 0.82762 0.0
C36 C 0.32523 0.44655 0.81334 0.0
C37 C 0.14602 0.39004 0.80467 0.0
O38 O 0.25428 0.3714 0.82399 0.0
O39 O 0.23251 0.29356 0.82048 0.0
O40 O 0.26124 0.42434 0.79046 0.0
O41 O 0.25449 0.34954 0.79712 0.0
Co42 Co 0.61559 0.76245 0.05583 0.0
O43 O 0.63697 0.8291 0.0556 0.0
O44 O 0.56162 0.8062 0.05962 0.0
C45 C 0.65147 0.73991 0.03814 0.0
O46 O 0.58079 0.69622 0.05638 0.0
Co47 Co 0.69368 0.68026 0.05762 0.0
O48 O 0.63719 0.6369 0.05484 0.0
C49 C 0.67216 0.74068 0.0791 0.0
C50 C 0.59272 0.84154 0.05826 0.0
C51 C 0.59298 0.65092 0.05537 0.0
O52 O 0.63384 0.75747 0.07376 0.0
O53 O 0.7035 0.71378 0.0737 0.0
O54 O 0.60987 0.76237 0.03794 0.0
O55 O 0.67182 0.73679 0.04874 0.0
Co56 Co 0.22827 0.39226 0.93782 0.0
O57 O 0.16145 0.37187 0.93643 0.0
O58 O 0.18879 0.44383 0.93066 0.0
C59 C 0.23922 0.36758 0.95725 0.0
O60 O 0.29522 0.4254 0.93824 0.0
Co61 Co 0.30778 0.31312 0.94155 0.0
O62 O 0.35159 0.36977 0.9436 0.0
C63 C 0.26372 0.32587 0.9173 0.0
C64 C 0.15207 0.41424 0.93185 0.0
C65 C 0.3394 0.41325 0.94098 0.0
O66 O 0.2425 0.36463 0.92114 0.0
O67 O 0.28779 0.29735 0.9243 0.0
O68 O 0.21844 0.40891 0.95494 0.0
O69 O 0.24784 0.34037 0.94785 0.0
Co70 Co 0.58405 0.75128 0.18843 0.0
O71 O 0.58444 0.68172 0.18697 0.0
O72 O 0.52461 0.72858 0.18045 0.0
C73 C 0.60735 0.7531 0.2082 0.0
O74 O 0.57263 0.8253 0.18892 0.0
Co75 Co 0.68399 0.80087 0.19344 0.0
O76 O 0.64318 0.8598 0.19502 0.0
C77 C 0.66131 0.76653 0.16863 0.0
C78 C 0.54213 0.68487 0.18185 0.0
C79 C 0.59848 0.8628 0.19194 0.0
O80 O 0.61753 0.75723 0.17208 0.0
O81 O 0.69483 0.78009 0.17602 0.0
O82 O 0.56202 0.74625 0.20534 0.0
O83 O 0.63739 0.75342 0.1991 0.0
Co84 Co 0.27044 0.11443 0.44269 0.0
O85 O 0.33642 0.13707 0.44175 0.0
O86 O 0.31482 0.0598 0.44066 0.0
C87 C 0.24764 0.15878 0.45899 0.0
O88 O 0.20488 0.0791 0.44366 0.0
Co89 Co 0.18879 0.19008 0.43757 0.0
O90 O 0.14593 0.13613 0.44295 0.0
C91 C 0.24259 0.14894 0.41693 0.0
C92 C 0.34952 0.09211 0.44055 0.0
C93 C 0.15967 0.0921 0.44416 0.0
O94 O 0.26376 0.11988 0.42443 0.0
O95 O 0.21428 0.18326 0.42038 0.0
O96 O 0.27171 0.11859 0.46044 0.0
O97 O 0.24403 0.17387 0.44781 0.0
Co98 Co 0.9076 0.76491 0.69244 0.0
O99 O 0.89305 0.83306 0.69177 0.0
O100 O 0.9665 0.80263 0.68886 0.0
C101 C 0.86587 0.7493 0.70983 0.0
O102 O 0.93475 0.69479 0.69298 0.0
Co103 Co 0.81989 0.6929 0.69021 0.0
O104 O 0.86942 0.64686 0.69632 0.0
C105 C 0.85474 0.744 0.66839 0.0
C106 C 0.93845 0.84083 0.6893 0.0
C107 C 0.91534 0.65329 0.69575 0.0
O108 O 0.89198 0.75984 0.67435 0.0
O109 O 0.82011 0.7197 0.67323 0.0
O110 O 0.90975 0.76683 0.71042 0.0
O111 O 0.84759 0.74711 0.69898 0.0
Co112 Co 0.73153 0.60453 0.80811 0.0
O113 O 0.66457 0.6249 0.80919 0.0
O114 O 0.69148 0.55308 0.81517 0.0
C115 C 0.74381 0.62872 0.78868 0.0
O116 O 0.79855 0.57134 0.80795 0.0
Co117 Co 0.81106 0.68362 0.80469 0.0
O118 O 0.85521 0.62709 0.80288 0.0
C119 C 0.7653 0.67141 0.82874 0.0
C120 C 0.65481 0.58262 0.81377 0.0
C121 C 0.8429 0.58355 0.80539 0.0
O122 O 0.74459 0.63248 0.82483 0.0
O123 O 0.78974 0.69991 0.82182 0.0
O124 O 0.72294 0.58745 0.791 0.0
O125 O 0.75169 0.65627 0.79806 0.0
Co126 Co 0.40596 0.23963 0.05361 0.0
O127 O 0.40671 0.16946 0.053 0.0
O128 O 0.47066 0.21497 0.0573 0.0
C129 C 0.36443 0.25157 0.03606 0.0
O130 O 0.41865 0.31352 0.05458 0.0
Co131 Co 0.30643 0.29348 0.05593 0.0
O132 O 0.34652 0.35119 0.05209 0.0
C133 C 0.34832 0.24568 0.07747 0.0
C134 C 0.45248 0.17163 0.05582 0.0
C135 C 0.39277 0.35237 0.05301 0.0
O136 O 0.38775 0.23683 0.07152 0.0
O137 O 0.31047 0.26509 0.07275 0.0
O138 O 0.41099 0.2432 0.03575 0.0
O139 O 0.34428 0.24706 0.04667 0.0
Co140 Co 0.77325 0.88371 0.30349 0.0
O141 O 0.83932 0.86096 0.30428 0.0
O142 O 0.81794 0.93822 0.30544 0.0
C143 C 0.75016 0.8394 0.28722 0.0
O144 O 0.70766 0.9194 0.30256 0.0
Co145 Co 0.69105 0.80864 0.30861 0.0
O146 O 0.64843 0.86268 0.30315 0.0
C147 C 0.74641 0.84793 0.32922 0.0
C148 C 0.85264 0.9059 0.30538 0.0
C149 C 0.66237 0.90663 0.30194 0.0
O150 O 0.76703 0.87772 0.32178 0.0
O151 O 0.71786 0.81396 0.32569 0.0
O152 O 0.7742 0.87956 0.28573 0.0
O153 O 0.74653 0.82441 0.2984 0.0
Co154 Co 0.08916 0.26395 0.55794 0.0
O155 O 0.10842 0.3307 0.5596 0.0
O156 O 0.03782 0.3012 0.56591 0.0
C157 C 0.11119 0.25605 0.53818 0.0
O158 O 0.05773 0.1965 0.55744 0.0
Co159 Co 0.16976 0.18738 0.55288 0.0
O160 O 0.11399 0.14201 0.55132 0.0
C161 C 0.16006 0.22917 0.57745 0.0
C162 C 0.06667 0.33849 0.56473 0.0
C163 C 0.07059 0.1529 0.55444 0.0
O164 O 0.11957 0.2487 0.57423 0.0
O165 O 0.18851 0.20737 0.56997 0.0
O166 O 0.06949 0.27505 0.54106 0.0
O167 O 0.14 0.24712 0.54726 0.0
Co168 Co 0.74824 0.90991 0.44371 0.0
O169 O 0.67827 0.91025 0.44383 0.0
O170 O 0.72407 0.97435 0.43977 0.0
C171 C 0.75955 0.87029 0.46144 0.0
O172 O 0.82196 0.92197 0.44324 0.0
Co173 Co 0.79891 0.80992 0.44102 0.0
O174 O 0.85804 0.84864 0.4447 0.0
C175 C 0.75933 0.85609 0.41917 0.0
C176 C 0.68064 0.95592 0.44103 0.0
C177 C 0.8602 0.89494 0.44437 0.0
O178 O 0.74874 0.8931 0.42581 0.0
O179 O 0.77622 0.81646 0.42357 0.0
O180 O 0.75022 0.91648 0.46136 0.0
O181 O 0.75487 0.84838 0.45101 0.0
Co182 Co 0.11941 0.24144 0.68964 0.0
O183 O 0.12677 0.1712 0.68894 0.0
O184 O 0.05854 0.21107 0.68523 0.0
C185 C 0.1584 0.25367 0.70751 0.0
O186 O 0.09588 0.3122 0.69024 0.0
Co187 Co 0.20723 0.31247 0.68903 0.0
O188 O 0.15862 0.36435 0.69209 0.0
C189 C 0.17894 0.26031 0.66667 0.0
C190 C 0.08082 0.16954 0.68614 0.0
C191 C 0.11316 0.35548 0.69169 0.0
O192 O 0.1388 0.24698 0.6718 0.0
O193 O 0.21288 0.28237 0.67244 0.0
O194 O 0.11352 0.23866 0.70746 0.0
O195 O 0.17932 0.25578 0.69694 0.0
Co196 Co 0.75525 0.59104 0.93813 0.0
O197 O 0.82524 0.59091 0.93747 0.0
O198 O 0.77885 0.53213 0.93018 0.0
C199 C 0.74897 0.61282 0.9579 0.0
O200 O 0.68124 0.57959 0.93774 0.0
Co201 Co 0.70464 0.69045 0.94266 0.0
O202 O 0.64541 0.64956 0.94365 0.0
C203 C 0.74458 0.66931 0.9184 0.0
C204 C 0.82251 0.54901 0.93214 0.0
C205 C 0.64314 0.60497 0.9405 0.0
O206 O 0.75249 0.62541 0.92188 0.0
O207 O 0.72975 0.70273 0.92565 0.0
O208 O 0.75685 0.56787 0.95491 0.0
O209 O 0.75085 0.64372 0.949 0.0
Co210 Co 0.39035 0.2798 0.1875 0.0
O211 O 0.36864 0.34554 0.18501 0.0
O212 O 0.44212 0.31888 0.18025 0.0
C213 C 0.36315 0.27315 0.20686 0.0
O214 O 0.42479 0.21358 0.18913 0.0
Co215 Co 0.3124 0.19954 0.19201 0.0
O216 O 0.36968 0.15845 0.19553 0.0
C217 C 0.33254 0.2321 0.16681 0.0
C218 C 0.41153 0.35504 0.18072 0.0
C219 C 0.41308 0.17023 0.19269 0.0
O220 O 0.36565 0.26104 0.17082 0.0
O221 O 0.30572 0.206 0.17378 0.0
O222 O 0.4045 0.294 0.20457 0.0
O223 O 0.33736 0.26164 0.19739 0.0
H224 H 0.89579 0.99685 0.30473 0.0
H225 H 0.92845 0.84304 0.30795 0.0
H226 H 0.01607 0.86154 0.3086 0.0
H227 H 0.99524 0.02585 0.28502 0.0
H228 H 0.00732 0.08417 0.29188 0.0
H229 H 0.94672 0.0593 0.29227 0.0
H230 H 0.94548 0.06734 0.31589 0.0
H231 H 0.00609 0.09234 0.31557 0.0
H232 H 0.99325 0.03957 0.32478 0.0
H233 H 0.10075 0.89609 0.30824 0.0
H234 H 0.17619 0.94495 0.30687 0.0
H235 H 0.0892 0.07608 0.30378 0.0
C236 C 0.92137 0.96716 0.30569 0.0
C237 C 0.90509 0.91849 0.30631 0.0
C238 C 0.93987 0.88064 0.30745 0.0
C239 C 0.98985 0.89074 0.30785 0.0
C240 C 0.00479 0.93895 0.3071 0.0
C241 C 0.97166 0.9766 0.30606 0.0
C242 C 0.99763 0.02506 0.30508 0.0
C243 C 0.98603 0.05005 0.29283 0.0
C244 C 0.98485 0.05802 0.31598 0.0
C245 C 0.05035 0.00864 0.30561 0.0
C246 C 0.05369 0.95884 0.30683 0.0
C247 C 0.09861 0.93519 0.30734 0.0
C248 C 0.14128 0.9632 0.30655 0.0
C249 C 0.13872 0.01429 0.30523 0.0
C250 C 0.0925 0.03709 0.30481 0.0
H251 H 0.90083 0.57437 0.56445 0.0
H252 H 0.02995 0.65724 0.57379 0.0
H253 H 0.07528 0.58048 0.57694 0.0
H254 H 0.92234 0.47234 0.58605 0.0
H255 H 0.89901 0.42812 0.57538 0.0
H256 H 0.87552 0.48928 0.57531 0.0
H257 H 0.89673 0.49697 0.55229 0.0
H258 H 0.92034 0.43603 0.5523 0.0
H259 H 0.95827 0.48565 0.54731 0.0
H260 H 0.10885 0.49556 0.57633 0.0
H261 H 0.12778 0.40904 0.57271 0.0
H262 H 0.97597 0.38082 0.56457 0.0
C263 C 0.93841 0.57647 0.56739 0.0
C264 C 0.96192 0.62184 0.56889 0.0
C265 C 0.01117 0.62294 0.57266 0.0
C266 C 0.03714 0.57951 0.57448 0.0
C267 C 0.01309 0.53539 0.57265 0.0
C268 C 0.96464 0.53358 0.56933 0.0
C269 C 0.94802 0.4817 0.56719 0.0
C270 C 0.9089 0.467 0.57654 0.0
C271 C 0.92979 0.4747 0.55399 0.0
C272 C 0.99517 0.45453 0.5694 0.0
C273 C 0.03217 0.4862 0.57263 0.0
C274 C 0.07997 0.47036 0.57407 0.0
C275 C 0.09038 0.42119 0.57197 0.0
C276 C 0.05318 0.38824 0.56855 0.0
C277 C 0.0048 0.40499 0.56751 0.0
H278 H 0.61255 0.49168 0.81357 0.0
H279 H 0.58132 0.644 0.81995 0.0
H280 H 0.49415 0.62476 0.82253 0.0
H281 H 0.51029 0.46995 0.79529 0.0
H282 H 0.49899 0.40927 0.80079 0.0
H283 H 0.55971 0.43369 0.80116 0.0
H284 H 0.56475 0.41671 0.82444 0.0
H285 H 0.50398 0.39202 0.82413 0.0
H286 H 0.51859 0.44093 0.83447 0.0
H287 H 0.40909 0.58997 0.82287 0.0
H288 H 0.3332 0.54259 0.82011 0.0
H289 H 0.41922 0.4136 0.81274 0.0
C290 C 0.58749 0.52068 0.81584 0.0
C291 C 0.6038 0.56926 0.81671 0.0
C292 C 0.56966 0.60649 0.81932 0.0
C293 C 0.52005 0.5959 0.82083 0.0
C294 C 0.50484 0.54786 0.81964 0.0
C295 C 0.53753 0.51081 0.8172 0.0
C296 C 0.51112 0.463 0.81528 0.0
C297 C 0.52059 0.44282 0.80236 0.0
C298 C 0.52547 0.42598 0.82517 0.0
C299 C 0.45862 0.47918 0.81678 0.0
C300 C 0.45574 0.52809 0.81948 0.0
C301 C 0.41093 0.55151 0.82086 0.0
C302 C 0.36798 0.52434 0.81929 0.0
C303 C 0.37013 0.47442 0.81622 0.0
C304 C 0.41621 0.45168 0.81512 0.0
H305 H 0.4206 0.07696 0.05521 0.0
H306 H 0.55096 0.16427 0.05966 0.0
H307 H 0.59999 0.08926 0.06158 0.0
H308 H 0.45448 0.98213 0.07682 0.0
H309 H 0.42808 0.93404 0.0678 0.0
H310 H 0.40305 0.9945 0.06706 0.0
H311 H 0.41465 0.99496 0.04355 0.0
H312 H 0.43965 0.93453 0.04421 0.0
H313 H 0.47405 0.98288 0.03722 0.0
H314 H 0.63525 0.00497 0.06208 0.0
H315 H 0.65458 0.91757 0.06147 0.0
H316 H 0.50114 0.8839 0.05729 0.0
C317 C 0.45945 0.08037 0.05664 0.0
C318 C 0.48197 0.12666 0.05727 0.0
C319 C 0.53288 0.12936 0.05916 0.0
C320 C 0.56101 0.08691 0.06027 0.0
C321 C 0.53769 0.04194 0.05956 0.0
C322 C 0.48803 0.03835 0.05785 0.0
C323 C 0.47206 0.98551 0.05727 0.0
C324 C 0.43736 0.97334 0.06787 0.0
C325 C 0.44874 0.9738 0.04482 0.0
C326 C 0.52063 0.95985 0.05876 0.0
C327 C 0.55794 0.9932 0.06007 0.0
C328 C 0.60627 0.97859 0.06115 0.0
C329 C 0.61687 0.92875 0.06078 0.0
C330 C 0.5794 0.89374 0.0594 0.0
C331 C 0.53053 0.90967 0.05851 0.0
H332 H 0.10967 0.50496 0.93236 0.0
H333 H 0.07937 0.35323 0.92493 0.0
H334 H 0.99233 0.37254 0.92207 0.0
H335 H 0.00661 0.52441 0.95038 0.0
H336 H 0.99532 0.58563 0.94526 0.0
H337 H 0.05615 0.56146 0.9449 0.0
H338 H 0.06224 0.58097 0.92176 0.0
H339 H 1.00137 0.60543 0.92207 0.0
H340 H 0.01667 0.55771 0.91144 0.0
H341 H 0.9072 0.40711 0.92167 0.0
H342 H 0.83101 0.45388 0.92463 0.0
H343 H 0.91623 0.58225 0.93313 0.0
C344 C 0.08487 0.47615 0.92978 0.0
C345 C 0.10134 0.4277 0.9287 0.0
C346 C 0.06755 0.39065 0.92572 0.0
C347 C 0.01803 0.40128 0.92404 0.0
C348 C 1.00261 0.44917 0.92546 0.0
C349 C 0.03502 0.48604 0.92827 0.0
C350 C 0.00836 0.53353 0.93044 0.0
C351 C 0.01713 0.55233 0.94352 0.0
C352 C 0.02304 0.57166 0.92085 0.0
C353 C 0.95603 0.51735 0.92867 0.0
C354 C 0.95345 0.46876 0.92561 0.0
C355 C 0.90881 0.44534 0.92396 0.0
C356 C 0.86569 0.47215 0.92565 0.0
C357 C 0.86755 0.52167 0.9291 0.0
C358 C 0.91347 0.54447 0.93045 0.0
H359 H 0.50198 0.39825 0.18107 0.0
H360 H 0.34972 0.42659 0.17346 0.0
H361 H 0.36795 0.51369 0.17066 0.0
H362 H 0.52005 0.50035 0.19911 0.0
H363 H 0.58124 0.51273 0.19404 0.0
H364 H 0.55796 0.4517 0.1935 0.0
H365 H 0.57762 0.44689 0.17035 0.0
H366 H 0.60127 0.50795 0.17083 0.0
H367 H 0.55374 0.4925 0.16015 0.0
H368 H 0.40121 0.59934 0.17076 0.0
H369 H 0.44686 0.67585 0.1742 0.0
H370 H 0.57665 0.59188 0.18226 0.0
C371 C 0.47285 0.4226 0.17843 0.0
C372 C 0.42455 0.40557 0.17733 0.0
C373 C 0.38707 0.43882 0.17427 0.0
C374 C 0.39707 0.48839 0.17263 0.0
C375 C 0.4448 0.50441 0.17412 0.0
C376 C 0.48214 0.47247 0.17692 0.0
C377 C 0.5293 0.49962 0.17917 0.0
C378 C 0.54822 0.49056 0.19223 0.0
C379 C 0.56775 0.48592 0.16955 0.0
C380 C 0.51233 0.55167 0.17755 0.0
C381 C 0.46367 0.55376 0.17445 0.0
C382 C 0.43952 0.59812 0.17304 0.0
C383 C 0.46568 0.64143 0.17501 0.0
C384 C 0.51529 0.63998 0.17847 0.0
C385 C 0.5388 0.59437 0.17956 0.0
H386 H 0.39305 1.00163 0.44194 0.0
H387 H 0.42431 0.15456 0.43624 0.0
H388 H 0.51184 0.13613 0.43483 0.0
H389 H 0.49522 0.97775 0.461 0.0
H390 H 0.50665 0.9179 0.45494 0.0
H391 H 0.4459 0.94245 0.45472 0.0
H392 H 0.44141 0.92869 0.43129 0.0
H393 H 0.50217 0.90401 0.43145 0.0
H394 H 0.48773 0.95439 0.42156 0.0
H395 H 0.59666 0.1019 0.43478 0.0
H396 H 0.67252 0.05375 0.43642 0.0
H397 H 0.58663 0.92354 0.44242 0.0
C398 C 0.41829 0.03109 0.44026 0.0
C399 C 0.40173 0.07951 0.43918 0.0
C400 C 0.43603 0.11715 0.43712 0.0
C401 C 0.48592 0.10708 0.43627 0.0
C402 C 0.50119 0.05914 0.43751 0.0
C403 C 0.46846 0.02171 0.43946 0.0
C404 C 0.49479 0.97367 0.44096 0.0
C405 C 0.48506 0.95167 0.45366 0.0
C406 C 0.48068 0.9381 0.4307 0.0
C407 C 0.54725 0.99013 0.43969 0.0
C408 C 0.55017 0.0395 0.43762 0.0
C409 C 0.59486 0.06312 0.43635 0.0
C410 C 0.63775 0.03553 0.4373 0.0
C411 C 0.63558 0.98496 0.43955 0.0
C412 C 0.5896 0.96215 0.44068 0.0
H413 H 0.11352 0.07574 0.69049 0.0
H414 H 0.98759 0.15775 0.67823 0.0
H415 H 0.94063 0.08189 0.67653 0.0
H416 H 0.09213 0.96799 0.67104 0.0
H417 H 0.1117 0.92574 0.68263 0.0
H418 H 0.13717 0.98607 0.68214 0.0
H419 H 0.11132 1.00004 0.70464 0.0
H420 H 0.08571 0.93985 0.70521 0.0
H421 H 0.04849 0.99174 0.70893 0.0
H422 H 0.90527 0.99955 0.67747 0.0
H423 H 0.88296 0.91411 0.68072 0.0
H424 H 0.03087 0.88178 0.6921 0.0
C425 C 0.07627 0.07758 0.68728 0.0
C426 C 0.0543 0.12289 0.68446 0.0
C427 C 0.0053 0.12371 0.68044 0.0
C428 C 0.97829 0.08071 0.67942 0.0
C429 C 1.00069 0.03688 0.68241 0.0
C430 C 0.04857 0.03473 0.68622 0.0
C431 C 0.06283 0.98268 0.68933 0.0
C432 C 0.10337 0.96456 0.68077 0.0
C433 C 0.07797 0.97834 0.70283 0.0
C434 C 0.01517 0.9562 0.68689 0.0
C435 C 0.98007 0.98847 0.68285 0.0
C436 C 0.93253 0.97385 0.6805 0.0
C437 C 0.9202 0.92515 0.68243 0.0
C438 C 0.95513 0.8911 0.68662 0.0
C439 C 0.00356 0.90678 0.68872 0.0
H440 H 0.56352 0.89403 0.30371 0.0
H441 H 0.67319 0.00381 0.29626 0.0
H442 H 0.60795 0.06509 0.29374 0.0
H443 H 0.47209 0.93792 0.28247 0.0
H444 H 0.42214 0.92383 0.29256 0.0
H445 H 0.47721 0.88832 0.29316 0.0
H446 H 0.48541 0.90674 0.31631 0.0
H447 H 0.43038 0.9422 0.31579 0.0
H448 H 0.48586 0.96898 0.32146 0.0
H449 H 0.53076 0.11454 0.29259 0.0
H450 H 0.44862 0.14969 0.2937 0.0
H451 H 0.38902 0.00749 0.30225 0.0
C452 C 0.5741 0.93083 0.30143 0.0
C453 C 0.62378 0.94394 0.30012 0.0
C454 C 0.63558 0.99275 0.29729 0.0
C455 C 0.59872 0.02777 0.29581 0.0
C456 C 0.55025 0.01345 0.29721 0.0
C457 C 0.53792 0.96615 0.29999 0.0
C458 C 0.48328 0.96044 0.30151 0.0
C459 C 0.46246 0.92556 0.29184 0.0
C460 C 0.4705 0.94361 0.31454 0.0
C461 C 0.46661 0.01214 0.29926 0.0
C462 C 0.50583 0.042 0.2967 0.0
C463 C 0.49985 0.09144 0.29456 0.0
C464 C 0.45283 0.11105 0.29524 0.0
C465 C 0.41197 0.08148 0.2981 0.0
C466 C 0.41918 0.03113 0.29997 0.0
H467 H 0.9805 0.87527 0.55326 0.0
H468 H 0.83719 0.9296 0.56293 0.0
H469 H 0.86899 0.01306 0.56345 0.0
H470 H 0.05027 0.96173 0.57177 0.0
H471 H 0.09762 0.9686 0.56048 0.0
H472 H 0.06433 0.91235 0.56151 0.0
H473 H 0.04125 0.91946 0.5386 0.0
H474 H 0.07411 0.97592 0.53753 0.0
H475 H 0.01082 0.97343 0.53322 0.0
H476 H 0.91484 0.09112 0.56238 0.0
H477 H 0.97319 0.1588 0.56014 0.0
H478 H 0.08664 0.05524 0.5507 0.0
C479 C 0.95616 0.90472 0.55566 0.0
C480 C 0.90639 0.89586 0.55806 0.0
C481 C 0.87542 0.93549 0.56098 0.0
C482 C 0.8931 0.98311 0.56133 0.0
C483 C 0.94193 0.99089 0.55867 0.0
C484 C 0.97317 0.95295 0.55592 0.0
C485 C 0.0237 0.97196 0.55302 0.0
C486 C 0.06119 0.95251 0.56225 0.0
C487 C 0.03831 0.95945 0.53981 0.0
C488 C 0.01574 0.02623 0.55459 0.0
C489 C 0.96833 0.03631 0.55787 0.0
C490 C 0.95219 0.08376 0.55982 0.0
C491 C 0.98558 0.12201 0.55851 0.0
C492 C 0.03458 0.11266 0.55522 0.0
C493 C 0.04948 0.06394 0.55318 0.0
H494 H 0.11913 0.4877 0.80519 0.0
H495 H 0.05968 0.34139 0.80524 0.0
H496 H 0.97685 0.37456 0.80573 0.0
H497 H 0.02831 0.54068 0.8254 0.0
H498 H 0.0254 0.5974 0.81719 0.0
H499 H 0.08086 0.56244 0.81718 0.0
H500 H 0.08039 0.56155 0.79347 0.0
H501 H 0.02492 0.59645 0.79343 0.0
H502 H 0.02755 0.53908 0.78549 0.0
H503 H 0.89956 0.42281 0.80626 0.0
H504 H 0.83354 0.48395 0.80613 0.0
H505 H 0.94181 0.59892 0.80519 0.0
C506 C 0.08871 0.4627 0.80537 0.0
C507 C 0.09636 0.41184 0.80516 0.0
C508 C 0.05524 0.38048 0.80532 0.0
C509 C 0.00776 0.39892 0.80564 0.0
C510 C 1.00144 0.44899 0.80575 0.0
C511 C 0.04065 0.48055 0.80558 0.0
C512 C 0.02329 0.53289 0.80547 0.0
C513 C 0.04049 0.55994 0.817 0.0
C514 C 0.04003 0.55902 0.79377 0.0
C515 C 0.96846 0.52557 0.80556 0.0
C516 C 0.95664 0.4769 0.80581 0.0
C517 C 0.90833 0.46113 0.80604 0.0
C518 C 0.87103 0.49611 0.80598 0.0
C519 C 0.88219 0.5463 0.80559 0.0
C520 C 0.93176 0.56089 0.8054 0.0
H521 H 0.60545 0.5521 0.05737 0.0
H522 H 0.49408 0.66225 0.05215 0.0
H523 H 0.43178 0.59758 0.05071 0.0
H524 H 0.55666 0.46351 0.03669 0.0
H525 H 0.57255 0.41228 0.04615 0.0
H526 H 0.60839 0.46703 0.0468 0.0
H527 H 0.5944 0.47225 0.0702 0.0
H528 H 0.55868 0.41742 0.06964 0.0
H529 H 0.53311 0.47202 0.0761 0.0
H530 H 0.38224 0.52124 0.04945 0.0
H531 H 0.34721 0.43941 0.04936 0.0
H532 H 0.49059 0.37756 0.05581 0.0
C533 C 0.56798 0.56286 0.05591 0.0
C534 C 0.55478 0.61257 0.05482 0.0
C535 C 0.50519 0.62466 0.05303 0.0
C536 C 0.46958 0.58812 0.05217 0.0
C537 C 0.48404 0.53963 0.0532 0.0
C538 C 0.532 0.52693 0.05511 0.0
C539 C 0.53782 0.47213 0.05607 0.0
C540 C 0.57081 0.4526 0.04582 0.0
C541 C 0.55714 0.45761 0.06876 0.0
C542 C 0.48554 0.4558 0.05433 0.0
C543 C 0.45529 0.49545 0.05265 0.0
C544 C 0.40557 0.49 0.0508 0.0
C545 C 0.38606 0.44302 0.05077 0.0
C546 C 0.41596 0.40145 0.05263 0.0
C547 C 0.4666 0.40824 0.05436 0.0
H548 H 0.43802 0.39799 0.94296 0.0
H549 H 0.3307 0.51236 0.93808 0.0
H550 H 0.39707 0.57293 0.93711 0.0
H551 H 0.52071 0.4656 0.96192 0.0
H552 H 0.57448 0.43936 0.95515 0.0
H553 H 0.51859 0.40518 0.95556 0.0
H554 H 0.52271 0.3939 0.93205 0.0
H555 H 0.57851 0.42823 0.93156 0.0
H556 H 0.52733 0.44659 0.92233 0.0
H557 H 0.47467 0.62086 0.93696 0.0
H558 H 0.55784 0.65364 0.93744 0.0
H559 H 0.61578 0.50785 0.94187 0.0
C560 C 0.42821 0.43578 0.94174 0.0
C561 C 0.37882 0.45034 0.94065 0.0
C562 C 0.36803 0.50021 0.93896 0.0
C563 C 0.40554 0.53487 0.93839 0.0
C564 C 0.45367 0.5191 0.93944 0.0
C565 C 0.46512 0.47075 0.94106 0.0
C566 C 0.51984 0.46329 0.94186 0.0
C567 C 0.53424 0.44211 0.95437 0.0
C568 C 0.53816 0.4311 0.93132 0.0
C569 C 0.53753 0.51517 0.94048 0.0
C570 C 0.49863 0.54668 0.93913 0.0
C571 C 0.50535 0.59651 0.93798 0.0
C572 C 0.55291 0.61474 0.9383 0.0
C573 C 0.5936 0.58337 0.93971 0.0
C574 C 0.58562 0.53275 0.94068 0.0
H575 H 0.50206 0.89262 0.19432 0.0
H576 H 0.64864 0.94649 0.18823 0.0
H577 H 0.61797 0.03032 0.18795 0.0
H578 H 0.44011 0.98133 0.17529 0.0
H579 H 0.38896 0.98755 0.1855 0.0
H580 H 0.42216 0.93116 0.18488 0.0
H581 H 0.43711 0.93601 0.20826 0.0
H582 H 0.40423 0.99258 0.20893 0.0
H583 H 0.46571 0.98928 0.21462 0.0
H584 H 0.57182 0.10923 0.18824 0.0
H585 H 0.51253 0.17693 0.18923 0.0
H586 H 0.39673 0.07266 0.19584 0.0
C587 C 0.52753 0.92205 0.19284 0.0
C588 C 0.57779 0.91272 0.19133 0.0
C589 C 0.61 0.95247 0.18952 0.0
C590 C 0.59298 1.00042 0.18931 0.0
C591 C 0.54351 0.00852 0.191 0.0
C592 C 0.51118 0.97055 0.19275 0.0
C593 C 0.45995 0.98967 0.19461 0.0
C594 C 0.42579 0.97134 0.18446 0.0
C595 C 0.44063 0.97608 0.20736 0.0
C596 C 0.46871 0.044 0.19356 0.0
C597 C 0.51711 0.05416 0.19144 0.0
C598 C 0.53374 0.10177 0.18994 0.0
C599 C 0.49984 0.14005 0.19054 0.0
C600 C 0.44993 0.13051 0.19269 0.0
C601 C 0.43461 0.08164 0.19429 0.0
H602 H 0.88652 0.9917 0.44181 0.0
H603 H 0.94564 0.84869 0.44978 0.0
H604 H 0.0277 0.88355 0.45127 0.0
H605 H 0.98523 0.03164 0.42314 0.0
H606 H 0.98395 0.0934 0.42862 0.0
H607 H 0.92907 0.05765 0.42862 0.0
H608 H 0.91831 0.07378 0.45183 0.0
H609 H 0.97319 0.10962 0.45189 0.0
H610 H 0.96712 0.05889 0.4622 0.0
H611 H 0.10467 0.93306 0.45107 0.0
H612 H 0.17003 0.99462 0.44946 0.0
H613 H 0.06105 0.10512 0.44196 0.0
C614 C 0.91663 0.96776 0.44395 0.0
C615 C 0.90927 0.91735 0.44561 0.0
C616 C 0.94997 0.88739 0.44837 0.0
C617 C 0.99695 0.90683 0.44928 0.0
C618 C 0.00302 0.95643 0.44747 0.0
C619 C 0.96401 0.98658 0.44491 0.0
C620 C 0.98083 0.0385 0.44311 0.0
C621 C 0.96907 0.05632 0.4301 0.0
C622 C 0.95853 0.07217 0.45284 0.0
C623 C 0.03524 0.0326 0.44496 0.0
C624 C 0.04736 0.98502 0.44748 0.0
C625 C 0.09562 0.97058 0.44918 0.0
C626 C 0.13253 0.00577 0.44824 0.0
C627 C 0.12094 0.05484 0.44564 0.0
C628 C 0.07143 0.0681 0.44407 0.0
H629 H 0.1216 0.45059 0.68393 0.0
H630 H 0.02773 0.3526 0.70418 0.0
H631 H 0.97258 0.42087 0.70895 0.0
H632 H 0.10539 0.55777 0.70298 0.0
H633 H 0.10316 0.59965 0.69032 0.0
H634 H 0.13754 0.54408 0.68902 0.0
H635 H 0.08881 0.52045 0.66963 0.0
H636 H 0.05475 0.57618 0.67079 0.0
H637 H 0.02324 0.51877 0.67028 0.0
H638 H 0.92898 0.49826 0.71195 0.0
H639 H 0.89027 0.57817 0.7103 0.0
H640 H 0.0074 0.62787 0.68671 0.0
C641 C 0.08943 0.4437 0.68939 0.0
C642 C 0.07896 0.39632 0.69376 0.0
C643 C 0.03626 0.38847 0.70071 0.0
C644 C 0.00501 0.42711 0.70355 0.0
C645 C 0.0165 0.47335 0.69922 0.0
C646 C 0.05704 0.48182 0.69207 0.0
C647 C 0.05852 0.53454 0.68784 0.0
C648 C 0.10386 0.56054 0.69284 0.0
C649 C 0.05618 0.53766 0.6738 0.0
C650 C 0.0123 0.55424 0.69369 0.0
C651 C 0.98947 0.51823 0.7004 0.0
C652 C 0.94626 0.52662 0.70664 0.0
C653 C 0.92456 0.57233 0.70562 0.0
C654 C 0.9454 0.60938 0.69826 0.0
C655 C 0.99073 0.60056 0.69247 0.0
H656 H 0.24919 0.20602 0.34503 0.0
H657 H 0.26887 0.05095 0.33953 0.0
H658 H 0.26641 0.03817 0.36182 0.0
H659 H 0.32078 0.21738 0.37215 0.0
H660 H 0.28057 0.26006 0.37954 0.0
H661 H 0.28367 0.25766 0.36309 0.0
H662 H 0.19052 0.24351 0.36199 0.0
H663 H 0.18708 0.24622 0.37844 0.0
H664 H 0.16387 0.19389 0.37042 0.0
H665 H 0.26732 0.04232 0.38447 0.0
H666 H 0.26181 0.06166 0.40641 0.0
H667 H 0.23564 0.21331 0.39761 0.0
C668 C 0.25279 0.16939 0.34854 0.0
C669 C 0.25941 0.12948 0.34055 0.0
C670 C 0.26354 0.08204 0.34546 0.0
C671 C 0.26244 0.07441 0.35811 0.0
C672 C 0.25642 0.11449 0.36573 0.0
C673 C 0.25082 0.16095 0.36117 0.0
C674 C 0.24354 0.19737 0.37144 0.0
C675 C 0.2846 0.23535 0.37156 0.0
C676 C 0.19326 0.22167 0.37051 0.0
C677 C 0.24657 0.1641 0.38246 0.0
C678 C 0.25459 0.11656 0.37892 0.0
C679 C 0.26057 0.07931 0.38738 0.0
C680 C 0.25768 0.09076 0.39982 0.0
C681 C 0.24817 0.13897 0.40372 0.0
C682 C 0.24255 0.1761 0.39489 0.0
H683 H 0.84878 0.69021 0.5968 0.0
H684 H 0.77948 0.8307 0.59229 0.0
H685 H 0.78282 0.84372 0.61465 0.0
H686 H 0.785 0.66021 0.62578 0.0
H687 H 0.83725 0.62878 0.63185 0.0
H688 H 0.82674 0.62993 0.61559 0.0
H689 H 0.91314 0.66544 0.61238 0.0
H690 H 0.92354 0.66549 0.62864 0.0
H691 H 0.92991 0.721 0.62004 0.0
H692 H 0.80201 0.84517 0.63715 0.0
H693 H 0.82232 0.82862 0.65886 0.0
H694 H 0.87373 0.68514 0.64894 0.0
C695 C 0.83333 0.72319 0.60058 0.0
C696 C 0.81369 0.7594 0.59287 0.0
C697 C 0.79401 0.80222 0.59808 0.0
C698 C 0.7962 0.81014 0.61074 0.0
C699 C 0.81725 0.77441 0.61806 0.0
C700 C 0.83417 0.73117 0.61322 0.0
C701 C 0.85433 0.69835 0.62312 0.0
C702 C 0.82401 0.65155 0.62415 0.0
C703 C 0.90844 0.68693 0.62091 0.0
C704 C 0.84751 0.73052 0.63423 0.0
C705 C 0.82646 0.77443 0.63109 0.0
C706 C 0.81796 0.81073 0.63974 0.0
C707 C 0.82996 0.80129 0.65198 0.0
C708 C 0.84983 0.75595 0.6554 0.0
C709 C 0.85896 0.72026 0.64644 0.0
H710 H 0.24237 0.39186 0.84663 0.0
H711 H 0.26286 0.23892 0.8384 0.0
H712 H 0.26994 0.22133 0.86053 0.0
H713 H 0.32448 0.39906 0.87222 0.0
H714 H 0.28592 0.43992 0.88072 0.0
H715 H 0.28449 0.44025 0.86425 0.0
H716 H 0.19132 0.42528 0.86475 0.0
H717 H 0.1925 0.42464 0.88122 0.0
H718 H 0.16768 0.37363 0.87297 0.0
H719 H 0.27615 0.22117 0.88368 0.0
H720 H 0.27708 0.23785 0.90593 0.0
H721 H 0.24777 0.39013 0.89869 0.0
C722 C 0.24884 0.3547 0.84945 0.0
C723 C 0.25249 0.31679 0.84079 0.0
C724 C 0.26003 0.26853 0.84489 0.0
C725 C 0.26416 0.25822 0.85742 0.0
C726 C 0.26006 0.29648 0.86572 0.0
C727 C 0.25224 0.34369 0.86189 0.0
C728 C 0.24743 0.37807 0.87262 0.0
C729 C 0.288 0.41658 0.87244 0.0
C730 C 0.19672 0.40178 0.8729 0.0
C731 C 0.25396 0.34289 0.88311 0.0
C732 C 0.26162 0.29606 0.87897 0.0
C733 C 0.26989 0.25765 0.88702 0.0
C734 C 0.27041 0.26747 0.89963 0.0
C735 C 0.26209 0.31517 0.90404 0.0
C736 C 0.25357 0.35314 0.89562 0.0
H737 H 0.60309 0.754 0.09699 0.0
H738 H 0.75907 0.74754 0.0909 0.0
H739 H 0.77326 0.75577 0.11308 0.0
H740 H 0.60542 0.84014 0.12265 0.0
H741 H 0.5571 0.80953 0.13072 0.0
H742 H 0.55931 0.8076 0.11425 0.0
H743 H 0.55783 0.7135 0.11498 0.0
H744 H 0.55614 0.71512 0.13144 0.0
H745 H 0.60346 0.68167 0.12371 0.0
H746 H 0.77076 0.76152 0.13589 0.0
H747 H 0.75158 0.76402 0.15794 0.0
H748 H 0.59715 0.76297 0.14937 0.0
C749 C 0.64019 0.75536 0.10032 0.0
C750 C 0.68001 0.75053 0.09223 0.0
C751 C 0.72806 0.75126 0.09695 0.0
C752 C 0.7365 0.75598 0.10953 0.0
C753 C 0.6965 0.75953 0.11729 0.0
C754 C 0.64929 0.75928 0.1129 0.0
C755 C 0.61283 0.76082 0.1233 0.0
C756 C 0.58185 0.8073 0.12269 0.0
C757 C 0.58068 0.71505 0.12336 0.0
C758 C 0.64697 0.76163 0.13419 0.0
C759 C 0.69505 0.76128 0.13051 0.0
C760 C 0.73323 0.76191 0.1389 0.0
C761 C 0.72195 0.76327 0.15141 0.0
C762 C 0.67289 0.7635 0.15541 0.0
C763 C 0.63504 0.76244 0.14663 0.0
H764 H 0.74951 0.60714 0.84733 0.0
H765 H 0.77633 0.75983 0.8401 0.0
H766 H 0.77379 0.77672 0.86234 0.0
H767 H 0.6678 0.62232 0.87272 0.0
H768 H 0.69192 0.57105 0.88099 0.0
H769 H 0.69414 0.57187 0.86453 0.0
H770 H 0.78753 0.55839 0.86528 0.0
H771 H 0.78563 0.55777 0.88174 0.0
H772 H 0.82503 0.59984 0.8739 0.0
H773 H 0.76639 0.77654 0.88556 0.0
H774 H 0.75895 0.75864 0.90769 0.0
H775 H 0.74195 0.60541 0.89932 0.0
C776 C 0.7544 0.64425 0.8504 0.0
C777 C 0.76268 0.68227 0.84198 0.0
C778 C 0.76985 0.73016 0.84639 0.0
C779 C 0.7684 0.74009 0.859 0.0
C780 C 0.7604 0.70163 0.86705 0.0
C781 C 0.75389 0.65462 0.86291 0.0
C782 C 0.74759 0.61938 0.8734 0.0
C783 C 0.69738 0.59472 0.87288 0.0
C784 C 0.78891 0.58163 0.87359 0.0
C785 C 0.75126 0.65388 0.88412 0.0
C786 C 0.75824 0.70124 0.88031 0.0
C787 C 0.76126 0.73953 0.88864 0.0
C788 C 0.75694 0.72905 0.90118 0.0
C789 C 0.75034 0.68061 0.90524 0.0
C790 C 0.74771 0.64274 0.89654 0.0
H791 H 0.34732 0.30035 0.14898 0.0
H792 H 0.30929 0.149 0.15459 0.0
H793 H 0.31087 0.13547 0.13224 0.0
H794 H 0.27269 0.31553 0.12147 0.0
H795 H 0.31558 0.35633 0.11439 0.0
H796 H 0.31073 0.35388 0.13081 0.0
H797 H 0.40314 0.33588 0.1323 0.0
H798 H 0.40819 0.33764 0.11588 0.0
H799 H 0.42814 0.28462 0.12416 0.0
H800 H 0.32263 0.13713 0.1094 0.0
H801 H 0.33311 0.15667 0.08739 0.0
H802 H 0.3579 0.30771 0.09662 0.0
C803 C 0.33887 0.26451 0.14547 0.0
C804 C 0.32822 0.22568 0.15346 0.0
C805 C 0.31709 0.17932 0.14859 0.0
C806 C 0.31825 0.17121 0.13593 0.0
C807 C 0.3297 0.21007 0.12829 0.0
C808 C 0.33879 0.25605 0.13285 0.0
C809 C 0.34883 0.29186 0.12265 0.0
C810 C 0.30962 0.33175 0.12231 0.0
C811 C 0.40013 0.31377 0.12382 0.0
C812 C 0.34509 0.25861 0.11166 0.0
C813 C 0.33442 0.21146 0.11511 0.0
C814 C 0.3305 0.17397 0.10658 0.0
C815 C 0.33673 0.18522 0.09416 0.0
C816 C 0.3463 0.23347 0.09049 0.0
C817 C 0.35066 0.27053 0.09931 0.0
H818 H 0.73406 0.78289 0.34827 0.0
H819 H 0.77334 0.9324 0.34018 0.0
H820 H 0.77937 0.94971 0.36219 0.0
H821 H 0.66219 0.80678 0.37492 0.0
H822 H 0.68339 0.75471 0.38338 0.0
H823 H 0.68207 0.75305 0.3669 0.0
H824 H 0.77386 0.73155 0.36645 0.0
H825 H 0.77538 0.73277 0.38292 0.0
H826 H 0.81671 0.77025 0.37427 0.0
H827 H 0.77574 0.95315 0.38467 0.0
H828 H 0.77305 0.94026 0.4069 0.0
H829 H 0.74231 0.78713 0.40114 0.0
C830 C 0.74415 0.81917 0.35115 0.0
C831 C 0.75307 0.85634 0.34249 0.0
C832 C 0.76655 0.90325 0.34662 0.0
C833 C 0.76983 0.91357 0.35911 0.0
C834 C 0.76026 0.87644 0.36739 0.0
C835 C 0.74854 0.82996 0.36365 0.0
C836 C 0.74139 0.79666 0.37459 0.0
C837 C 0.68915 0.77663 0.37496 0.0
C838 C 0.77909 0.75537 0.37455 0.0
C839 C 0.75045 0.83197 0.38502 0.0
C840 C 0.76059 0.87788 0.38058 0.0
C841 C 0.76833 0.91731 0.38829 0.0
C842 C 0.76636 0.90961 0.40091 0.0
C843 C 0.75749 0.86269 0.40575 0.0
C844 C 0.74945 0.8233 0.39768 0.0
H845 H 0.11053 0.23463 0.64933 0.0
H846 H 0.26417 0.26745 0.65392 0.0
H847 H 0.27664 0.25877 0.63175 0.0
H848 H 0.12675 0.14595 0.62429 0.0
H849 H 0.07244 0.16554 0.61646 0.0
H850 H 0.07617 0.16995 0.63289 0.0
H851 H 0.05626 0.26187 0.63162 0.0
H852 H 0.0527 0.25779 0.61521 0.0
H853 H 0.09358 0.30079 0.62223 0.0
H854 H 0.27262 0.24881 0.60902 0.0
H855 H 0.25077 0.24219 0.5871 0.0
H856 H 0.09954 0.2204 0.5971 0.0
C857 C 0.14693 0.23927 0.6457 0.0
C858 C 0.18633 0.25161 0.65341 0.0
C859 C 0.2333 0.258 0.64824 0.0
C860 C 0.24087 0.25299 0.63564 0.0
C861 C 0.2012 0.24155 0.62828 0.0
C862 C 0.15513 0.23477 0.6331 0.0
C863 C 0.11835 0.22509 0.62306 0.0
C864 C 0.09718 0.17357 0.62425 0.0
C865 C 0.07785 0.26371 0.62303 0.0
C866 C 0.15065 0.2293 0.61188 0.0
C867 C 0.19853 0.23764 0.61511 0.0
C868 C 0.23525 0.24222 0.60637 0.0
C869 C 0.22259 0.23838 0.59397 0.0
C870 C 0.17356 0.23117 0.59048 0.0
C871 C 0.13726 0.22646 0.59956 0.0
H872 H 0.24692 0.11872 0.26108 0.0
H873 H 0.30381 0.22705 0.28614 0.0
H874 H 0.33411 0.27498 0.26861 0.0
H875 H 0.34283 0.12231 0.23961 0.0
H876 H 0.30435 0.11572 0.22635 0.0
H877 H 0.28547 0.09084 0.24082 0.0
H878 H 0.20506 0.13991 0.23968 0.0
H879 H 0.22359 0.16482 0.22517 0.0
H880 H 0.2074 0.20484 0.23758 0.0
H881 H 0.36461 0.30682 0.24856 0.0
H882 H 0.38737 0.32443 0.22715 0.0
H883 H 0.30542 0.19867 0.21501 0.0
C884 C 0.26539 0.15275 0.26287 0.0
C885 C 0.27328 0.16917 0.27495 0.0
C886 C 0.29738 0.2139 0.27695 0.0
C887 C 0.31474 0.2413 0.26706 0.0
C888 C 0.3069 0.22379 0.25526 0.0
C889 C 0.2822 0.18091 0.2531 0.0
C890 C 0.27884 0.17007 0.23954 0.0
C891 C 0.3044 0.12189 0.2364 0.0
C892 C 0.22555 0.16992 0.23524 0.0
C893 C 0.30632 0.21312 0.2344 0.0
C894 C 0.32246 0.24348 0.24364 0.0
C895 C 0.35148 0.28383 0.24124 0.0
C896 C 0.36434 0.29341 0.22908 0.0
C897 C 0.34759 0.2632 0.21948 0.0
C898 C 0.31785 0.22284 0.22217 0.0
H899 H 0.72926 0.80055 0.47777 0.0
H900 H 0.84811 0.89808 0.46906 0.0
H901 H 0.89232 0.87129 0.48738 0.0
H902 H 0.73083 0.82787 0.50941 0.0
H903 H 0.71557 0.76759 0.51459 0.0
H904 H 0.69577 0.78794 0.49975 0.0
H905 H 0.73791 0.71402 0.48959 0.0
H906 H 0.75744 0.69314 0.50443 0.0
H907 H 0.80157 0.70289 0.49247 0.0
H908 H 0.92251 0.83745 0.50663 0.0
H909 H 0.93579 0.80148 0.52696 0.0
H910 H 0.79414 0.73199 0.52517 0.0
C911 C 0.76523 0.8149 0.47961 0.0
C912 C 0.7866 0.84954 0.47175 0.0
C913 C 0.8324 0.8698 0.47467 0.0
C914 C 0.85755 0.85514 0.48512 0.0
C915 C 0.83563 0.82126 0.49277 0.0
C916 C 0.79035 0.80165 0.49029 0.0
C917 C 0.77334 0.76972 0.50079 0.0
C918 C 0.72607 0.78948 0.50647 0.0
C919 C 0.76722 0.7168 0.49656 0.0
C920 C 0.81599 0.77495 0.50953 0.0
C921 C 0.85172 0.80425 0.50455 0.0
C922 C 0.89492 0.81439 0.51065 0.0
C923 C 0.90212 0.79376 0.52217 0.0
C924 C 0.86597 0.76411 0.52757 0.0
C925 C 0.82212 0.75485 0.52123 0.0
H926 H 0.1309 0.24098 0.73149 0.0
H927 H 0.23914 0.31092 0.70853 0.0
H928 H 0.27602 0.34858 0.72671 0.0
H929 H 0.11483 0.33729 0.75276 0.0
H930 H 0.10988 0.29872 0.76602 0.0
H931 H 0.09194 0.2762 0.75123 0.0
H932 H 0.15123 0.20357 0.75357 0.0
H933 H 0.16923 0.22577 0.76841 0.0
H934 H 0.21458 0.21496 0.7568 0.0
H935 H 0.29641 0.38471 0.74686 0.0
H936 H 0.30507 0.41031 0.76842 0.0
H937 H 0.1896 0.31134 0.7789 0.0
C938 C 0.16254 0.26399 0.73033 0.0
C939 C 0.18188 0.2734 0.71859 0.0
C940 C 0.22353 0.30335 0.71741 0.0
C941 C 0.24478 0.32495 0.72769 0.0
C942 C 0.22456 0.31546 0.73911 0.0
C943 C 0.18493 0.28508 0.74055 0.0
C944 C 0.17089 0.28068 0.75393 0.0
C945 C 0.1188 0.29934 0.75611 0.0
C946 C 0.17685 0.22811 0.75844 0.0
C947 C 0.2083 0.31403 0.75972 0.0
C948 C 0.23851 0.33406 0.75095 0.0
C949 C 0.27364 0.36864 0.75386 0.0
C950 C 0.27817 0.38307 0.76608 0.0
C951 C 0.24846 0.36221 0.77523 0.0
C952 C 0.21336 0.32698 0.77205 0.0
H953 H 0.69636 0.69041 0.96677 0.0
H954 H 0.78264 0.56597 0.9779 0.0
H955 H 0.76888 0.58677 -0.00043 0.0
H956 H 0.73254 0.77203 0.99134 0.0
H957 H 0.6726 0.79767 0.99319 0.0
H958 H 0.69159 0.77504 0.97847 0.0
H959 H 0.61635 0.71834 0.97781 0.0
H960 H 0.59715 0.74076 0.99253 0.0
H961 H 0.60591 0.67649 0.99022 0.0
H962 H 0.74784 0.62129 0.01982 0.0
H963 H 0.71445 0.66361 0.0378 0.0
H964 H 0.63542 0.762 0.01396 0.0
C965 C 0.71268 0.66799 0.9738 0.0
C966 C 0.74094 0.6269 0.97073 0.0
C967 C 0.76095 0.59767 0.98011 0.0
C968 C 0.75348 0.60925 0.99243 0.0
C969 C 0.72526 0.64976 0.9952 0.0
C970 C 0.70464 0.67844 0.9862 0.0
C971 C 0.67359 0.71831 0.99178 0.0
C972 C 0.6938 0.76875 0.9885 0.0
C973 C 0.62008 0.71314 0.98785 0.0
C974 C 0.68007 0.70741 0.00528 0.0
C975 C 0.71066 0.66816 0.00701 0.0
C976 C 0.72353 0.65187 0.01861 0.0
C977 C 0.70442 0.67621 0.02877 0.0
C978 C 0.67204 0.71574 0.02727 0.0
C979 C 0.65969 0.73149 0.01536 0.0
H980 H 0.39076 0.24693 0.01184 0.0
H981 H 0.27675 0.2979 0.03617 0.0
H982 H 0.2327 0.3325 0.01861 0.0
H983 H 0.38977 0.34744 0.99111 0.0
H984 H 0.39846 0.31104 0.97757 0.0
H985 H 0.42174 0.29035 0.99207 0.0
H986 H 0.37367 0.20987 0.98976 0.0
H987 H 0.35035 0.23024 0.97523 0.0
H988 H 0.30889 0.21194 0.98715 0.0
H989 H 0.20385 0.36637 -0.00119 0.0
H990 H 0.18725 0.39044 0.97746 0.0
H991 H 0.31535 0.31157 0.96544 0.0
C992 C 0.35648 0.26531 0.01344 0.0
C993 C 0.33738 0.27016 0.02538 0.0
C994 C 0.29219 0.29392 0.02712 0.0
C995 C 0.26689 0.31377 0.0172 0.0
C996 C 0.28681 0.30872 0.00556 0.0
C997 C 0.33014 0.28447 0.00357 0.0
C998 C 0.34268 0.28321 0.99006 0.0
C999 C 0.39103 0.30959 0.98756 0.0
C1000 C 0.34396 0.23069 0.98527 0.0
C1001 C 0.29988 0.31105 0.98481 0.0
C1002 C 0.26846 0.32588 0.99396 0.0
C1003 C 0.22774 0.35441 0.99154 0.0
C1004 C 0.21872 0.36802 0.97941 0.0
C1005 C 0.24973 0.35232 0.96987 0.0
C1006 C 0.29067 0.32326 0.97258 0.0
H1007 H 0.77153 0.84938 0.26307 0.0
H1008 H 0.67223 0.77721 0.288 0.0
H1009 H 0.62586 0.74503 0.27035 0.0
H1010 H 0.68572 0.88526 0.24109 0.0
H1011 H 0.72432 0.87389 0.22806 0.0
H1012 H 0.75096 0.88915 0.24261 0.0
H1013 H 0.80249 0.81027 0.24205 0.0
H1014 H 0.77631 0.79493 0.22744 0.0
H1015 H 0.77259 0.75255 0.23997 0.0
H1016 H 0.58607 0.72802 0.25001 0.0
H1017 H 0.56041 0.71983 0.22843 0.0
H1018 H 0.6892 0.79841 0.21681 0.0
C1019 C 0.74034 0.82633 0.26481 0.0
C1020 C 0.72519 0.81588 0.27687 0.0
C1021 C 0.68442 0.78548 0.27882 0.0
C1022 C 0.65785 0.7672 0.26885 0.0
C1023 C 0.67325 0.77898 0.25706 0.0
C1024 C 0.71407 0.80713 0.255 0.0
C1025 C 0.7229 0.8147 0.24146 0.0
C1026 C 0.72083 0.86897 0.23811 0.0
C1027 C 0.77145 0.79173 0.2375 0.0
C1028 C 0.68002 0.78732 0.2362 0.0
C1029 C 0.65164 0.76724 0.24535 0.0
C1030 C 0.60843 0.74286 0.24277 0.0
C1031 C 0.59405 0.73862 0.23051 0.0
C1032 C 0.62314 0.75811 0.22101 0.0
C1033 C 0.66675 0.78251 0.2239 0.0
H1034 H 0.26448 0.14298 0.48319 0.0
H1035 H 0.17504 0.22727 0.4583 0.0
H1036 H 0.13032 0.26179 0.47596 0.0
H1037 H 0.17214 0.11386 0.50463 0.0
H1038 H 0.21101 0.11955 0.51784 0.0
H1039 H 0.23657 0.10252 0.50328 0.0
H1040 H 0.29692 0.17475 0.50448 0.0
H1041 H 0.27179 0.19183 0.51908 0.0
H1042 H 0.2738 0.23538 0.50678 0.0
H1043 H 0.09243 0.28287 0.49632 0.0
H1044 H 0.06836 0.29452 0.5179 0.0
H1045 H 0.18544 0.19912 0.52944 0.0
C1046 C 0.23568 0.16896 0.48145 0.0
C1047 C 0.22302 0.18244 0.4694 0.0
C1048 C 0.18534 0.21664 0.46748 0.0
C1049 C 0.1597 0.23626 0.47744 0.0
C1050 C 0.17272 0.22166 0.48922 0.0
C1051 C 0.21024 0.18925 0.49126 0.0
C1052 C 0.21731 0.17961 0.50478 0.0
C1053 C 0.20873 0.12569 0.50781 0.0
C1054 C 0.26796 0.19641 0.50903 0.0
C1055 C 0.17755 0.21131 0.51006 0.0
C1056 C 0.15201 0.23499 0.50093 0.0
C1057 C 0.11248 0.26492 0.50355 0.0
C1058 C 0.09899 0.27113 0.51582 0.0
C1059 C 0.12527 0.24793 0.52531 0.0
C1060 C 0.16503 0.21767 0.52237 0.0
H1061 H 0.88873 0.75977 0.73425 0.0
H1062 H 0.78506 0.69216 0.70956 0.0
H1063 H 0.74339 0.65459 0.72707 0.0
H1064 H 0.89704 0.66182 0.75585 0.0
H1065 H 0.89951 0.70055 0.76913 0.0
H1066 H 0.92218 0.72214 0.75466 0.0
H1067 H 0.86471 0.79662 0.75594 0.0
H1068 H 0.84193 0.77532 0.77043 0.0
H1069 H 0.80029 0.78724 0.75805 0.0
H1070 H 0.71538 0.62092 0.74683 0.0
H1071 H 0.69799 0.59809 0.76819 0.0
H1072 H 0.81509 0.69165 0.78065 0.0
C1073 C 0.85724 0.73708 0.73256 0.0
C1074 C 0.84042 0.72852 0.72053 0.0
C1075 C 0.79881 0.69905 0.71867 0.0
C1076 C 0.77485 0.67749 0.72857 0.0
C1077 C 0.79241 0.68636 0.74029 0.0
C1078 C 0.83222 0.71588 0.74239 0.0
C1079 C 0.84261 0.72014 0.756 0.0
C1080 C 0.89335 0.69995 0.75909 0.0
C1081 C 0.83704 0.77297 0.76036 0.0
C1082 C 0.80266 0.68805 0.76115 0.0
C1083 C 0.77452 0.66864 0.75188 0.0
C1084 C 0.73675 0.63626 0.7542 0.0
C1085 C 0.72728 0.62341 0.76634 0.0
C1086 C 0.75493 0.64346 0.77603 0.0
C1087 C 0.79298 0.67639 0.77341 0.0
loop_
_geom_bond_atom_site_label_1
_geom_bond_atom_site_label_2
_geom_bond_distance
_geom_bond_site_symmetry_2
_ccdc_geom_bond_type
Co0 O1 2.216 . S
Co0 O2 2.091 . S
Co0 O4 2.004 . S
Co0 O10 2.021 . S
Co0 O12 2.137 . S
Co0 O13 2.244 . S
O1 Co0 2.216 . S
O1 C8 1.247 . S
O2 Co0 2.091 . S
O2 C8 1.261 . S
C3 O12 1.247 . S
C3 O13 1.272 . S
O4 Co0 2.004 . S
O4 C9 1.259 . S
Co5 O6 2.061 . S
Co5 O11 2.052 . S
Co5 O13 2.135 . S
O6 Co5 2.061 . S
O6 C9 1.235 . S
C7 O10 1.238 . S
C7 O11 1.241 . S
C8 O1 1.247 . S
C8 O2 1.261 . S
C9 O4 1.259 . S
C9 O6 1.235 . S
O10 Co0 2.021 . S
O10 C7 1.238 . S
O11 Co5 2.052 . S
O11 C7 1.241 . S
O12 Co0 2.137 . S
O12 C3 1.247 . S
O13 Co0 2.244 . S
O13 C3 1.272 . S
O13 Co5 2.135 . S
Co14 O15 2.216 . S
Co14 O16 2.091 . S
Co14 O18 2.004 . S
Co14 O24 2.021 . S
Co14 O26 2.137 . S
Co14 O27 2.244 . S
O15 Co14 2.216 . S
O15 C22 1.247 . S
O16 Co14 2.091 . S
O16 C22 1.261 . S
C17 O26 1.247 . S
C17 O27 1.272 . S
O18 Co14 2.004 . S
O18 C23 1.259 . S
Co19 O20 2.061 . S
Co19 O25 2.052 . S
Co19 O27 2.135 . S
O20 Co19 2.061 . S
O20 C23 1.235 . S
C21 O24 1.238 . S
C21 O25 1.241 . S
C22 O15 1.247 . S
C22 O16 1.261 . S
C23 O18 1.259 . S
C23 O20 1.235 . S
O24 Co14 2.021 . S
O24 C21 1.238 . S
O25 Co19 2.052 . S
O25 C21 1.241 . S
O26 Co14 2.137 . S
O26 C17 1.247 . S
O27 Co14 2.244 . S
O27 C17 1.272 . S
O27 Co19 2.135 . S
Co28 O29 2.216 . S
Co28 O30 2.091 . S
Co28 O32 2.004 . S
Co28 O38 2.021 . S
Co28 O40 2.137 . S
Co28 O41 2.244 . S
O29 Co28 2.216 . S
O29 C36 1.247 . S
O30 Co28 2.091 . S
O30 C36 1.261 . S
C31 O40 1.247 . S
C31 O41 1.272 . S
O32 Co28 2.004 . S
O32 C37 1.259 . S
Co33 O34 2.061 . S
Co33 O39 2.052 . S
Co33 O41 2.135 . S
O34 Co33 2.061 . S
O34 C37 1.235 . S
C35 O38 1.238 . S
C35 O39 1.241 . S
C36 O29 1.247 . S
C36 O30 1.261 . S
C37 O32 1.259 . S
C37 O34 1.235 . S
O38 Co28 2.021 . S
O38 C35 1.238 . S
O39 Co33 2.052 . S
O39 C35 1.241 . S
O40 Co28 2.137 . S
O40 C31 1.247 . S
O41 Co28 2.244 . S
O41 C31 1.272 . S
O41 Co33 2.135 . S
Co42 O43 2.216 . S
Co42 O44 2.091 . S
Co42 O46 2.004 . S
Co42 O52 2.021 . S
Co42 O54 2.137 . S
Co42 O55 2.244 . S
O43 Co42 2.216 . S
O43 C50 1.247 . S
O44 Co42 2.091 . S
O44 C50 1.261 . S
C45 O54 1.247 . S
C45 O55 1.272 . S
O46 Co42 2.004 . S
O46 C51 1.259 . S
Co47 O48 2.061 . S
Co47 O53 2.052 . S
Co47 O55 2.135 . S
O48 Co47 2.061 . S
O48 C51 1.235 . S
C49 O52 1.238 . S
C49 O53 1.241 . S
C50 O43 1.247 . S
C50 O44 1.261 . S
C51 O46 1.259 . S
C51 O48 1.235 . S
O52 Co42 2.021 . S
O52 C49 1.238 . S
O53 Co47 2.052 . S
O53 C49 1.241 . S
O54 Co42 2.137 . S
O54 C45 1.247 . S
O55 Co42 2.244 . S
O55 C45 1.272 . S
O55 Co47 2.135 . S
Co56 O57 2.216 . S
Co56 O58 2.091 . S
Co56 O60 2.004 . S
Co56 O66 2.021 . S
Co56 O68 2.137 . S
Co56 O69 2.244 . S
O57 Co56 2.216 . S
O57 C64 1.247 . S
O58 Co56 2.091 . S
O58 C64 1.261 . S
C59 O68 1.247 . S
C59 O69 1.272 . S
O60 Co56 2.004 . S
O60 C65 1.259 . S
Co61 O62 2.061 . S
Co61 O67 2.052 . S
Co61 O69 2.135 . S
O62 Co61 2.061 . S
O62 C65 1.235 . S
C63 O66 1.238 . S
C63 O67 1.241 . S
C64 O57 1.247 . S
C64 O58 1.261 . S
C65 O60 1.259 . S
C65 O62 1.235 . S
O66 Co56 2.021 . S
O66 C63 1.238 . S
O67 Co61 2.052 . S
O67 C63 1.241 . S
O68 Co56 2.137 . S
O68 C59 1.247 . S
O69 Co56 2.244 . S
O69 C59 1.272 . S
O69 Co61 2.135 . S
Co70 O71 2.216 . S
Co70 O72 2.091 . S
Co70 O74 2.004 . S
Co70 O80 2.021 . S
Co70 O82 2.137 . S
Co70 O83 2.244 . S
O71 Co70 2.216 . S
O71 C78 1.247 . S
O72 Co70 2.091 . S
O72 C78 1.261 . S
C73 O82 1.247 . S
C73 O83 1.272 . S
O74 Co70 2.004 . S
O74 C79 1.259 . S
Co75 O76 2.061 . S
Co75 O81 2.052 . S
Co75 O83 2.135 . S
O76 Co75 2.061 . S
O76 C79 1.235 . S
C77 O80 1.238 . S
C77 O81 1.241 . S
C78 O71 1.247 . S
C78 O72 1.261 . S
C79 O74 1.259 . S
C79 O76 1.235 . S
O80 Co70 2.021 . S
O80 C77 1.238 . S
O81 Co75 2.052 . S
O81 C77 1.241 . S
O82 Co70 2.137 . S
O82 C73 1.247 . S
O83 Co70 2.244 . S
O83 C73 1.272 . S
O83 Co75 2.135 . S
Co84 O85 2.216 . S
Co84 O86 2.091 . S
Co84 O88 2.004 . S
Co84 O94 2.021 . S
Co84 O96 2.137 . S
Co84 O97 2.244 . S
O85 Co84 2.216 . S
O85 C92 1.247 . S
O86 Co84 2.091 . S
O86 C92 1.261 . S
C87 O96 1.247 . S
C87 O97 1.272 . S
O88 Co84 2.004 . S
O88 C93 1.259 . S
Co89 O90 2.061 . S
Co89 O95 2.052 . S
Co89 O97 2.135 . S
O90 Co89 2.061 . S
O90 C93 1.235 . S
C91 O94 1.238 . S
C91 O95 1.241 . S
C92 O85 1.247 . S
C92 O86 1.261 . S
C93 O88 1.259 . S
C93 O90 1.235 . S
O94 Co84 2.021 . S
O94 C91 1.238 . S
O95 Co89 2.052 . S
O95 C91 1.241 . S
O96 Co84 2.137 . S
O96 C87 1.247 . S
O97 Co84 2.244 . S
O97 C87 1.272 . S
O97 Co89 2.135 . S
Co98 O99 2.216 . S
Co98 O100 2.091 . S
Co98 O102 2.004 . S
Co98 O108 2.021 . S
Co98 O110 2.137 . S
Co98 O111 2.244 . S
O99 Co98 2.216 . S
O99 C106 1.247 . S
O100 Co98 2.091 . S
O100 C106 1.261 . S
C101 O110 1.247 . S
C101 O111 1.272 . S
O102 Co98 2.004 . S
O102 C107 1.259 . S
Co103 O104 2.061 . S
Co103 O109 2.052 . S
Co103 O111 2.135 . S
O104 Co103 2.061 . S
O104 C107 1.235 . S
C105 O108 1.238 . S
C105 O109 1.241 . S
C106 O99 1.247 . S
C106 O100 1.261 . S
C107 O102 1.259 . S
C107 O104 1.235 . S
O108 Co98 2.021 . S
O108 C105 1.238 . S
O109 Co103 2.052 . S
O109 C105 1.241 . S
O110 Co98 2.137 . S
O110 C101 1.247 . S
O111 Co98 2.244 . S
O111 C101 1.272 . S
O111 Co103 2.135 . S
Co112 O113 2.216 . S
Co112 O114 2.091 . S
Co112 O116 2.004 . S
Co112 O122 2.021 . S
Co112 O124 2.137 . S
Co112 O125 2.244 . S
O113 Co112 2.216 . S
O113 C120 1.247 . S
O114 Co112 2.091 . S
O114 C120 1.261 . S
C115 O124 1.247 . S
C115 O125 1.272 . S
O116 Co112 2.004 . S
O116 C121 1.259 . S
Co117 O118 2.061 . S
Co117 O123 2.052 . S
Co117 O125 2.135 . S
O118 Co117 2.061 . S
O118 C121 1.235 . S
C119 O122 1.238 . S
C119 O123 1.241 . S
C120 O113 1.247 . S
C120 O114 1.261 . S
C121 O116 1.259 . S
C121 O118 1.235 . S
O122 Co112 2.021 . S
O122 C119 1.238 . S
O123 Co117 2.052 . S
O123 C119 1.241 . S
O124 Co112 2.137 . S
O124 C115 1.247 . S
O125 Co112 2.244 . S
O125 C115 1.272 . S
O125 Co117 2.135 . S
Co126 O127 2.216 . S
Co126 O128 2.091 . S
Co126 O130 2.004 . S
Co126 O136 2.021 . S
Co126 O138 2.137 . S
Co126 O139 2.244 . S
O127 Co126 2.216 . S
O127 C134 1.247 . S
O128 Co126 2.091 . S
O128 C134 1.261 . S
C129 O138 1.247 . S
C129 O139 1.272 . S
O130 Co126 2.004 . S
O130 C135 1.259 . S
Co131 O132 2.061 . S
Co131 O137 2.052 . S
Co131 O139 2.135 . S
O132 Co131 2.061 . S
O132 C135 1.235 . S
C133 O136 1.238 . S
C133 O137 1.241 . S
C134 O127 1.247 . S
C134 O128 1.261 . S
C135 O130 1.259 . S
C135 O132 1.235 . S
O136 Co126 2.021 . S
O136 C133 1.238 . S
O137 Co131 2.052 . S
O137 C133 1.241 . S
O138 Co126 2.137 . S
O138 C129 1.247 . S
O139 Co126 2.244 . S
O139 C129 1.272 . S
O139 Co131 2.135 . S
Co140 O141 2.216 . S
Co140 O142 2.091 . S
Co140 O144 2.004 . S
Co140 O150 2.021 . S
Co140 O152 2.137 . S
Co140 O153 2.244 . S
O141 Co140 2.216 . S
O141 C148 1.247 . S
O142 Co140 2.091 . S
O142 C148 1.261 . S
C143 O152 1.247 . S
C143 O153 1.272 . S
O144 Co140 2.004 . S
O144 C149 1.259 . S
Co145 O146 2.061 . S
Co145 O151 2.052 . S
Co145 O153 2.135 . S
O146 Co145 2.061 . S
O146 C149 1.235 . S
C147 O150 1.238 . S
C147 O151 1.241 . S
C148 O141 1.247 . S
C148 O142 1.261 . S
C149 O144 1.259 . S
C149 O146 1.235 . S
O150 Co140 2.021 . S
O150 C147 1.238 . S
O151 Co145 2.052 . S
O151 C147 1.241 . S
O152 Co140 2.137 . S
O152 C143 1.247 . S
O153 Co140 2.244 . S
O153 C143 1.272 . S
O153 Co145 2.135 . S
Co154 O155 2.216 . S
Co154 O156 2.091 . S
Co154 O158 2.004 . S
Co154 O164 2.021 . S
Co154 O166 2.137 . S
Co154 O167 2.244 . S
O155 Co154 2.216 . S
O155 C162 1.247 . S
O156 Co154 2.091 . S
O156 C162 1.261 . S
C157 O166 1.247 . S
C157 O167 1.272 . S
O158 Co154 2.004 . S
O158 C163 1.259 . S
Co159 O160 2.061 . S
Co159 O165 2.052 . S
Co159 O167 2.135 . S
O160 Co159 2.061 . S
O160 C163 1.235 . S
C161 O164 1.238 . S
C161 O165 1.241 . S
C162 O155 1.247 . S
C162 O156 1.261 . S
C163 O158 1.259 . S
C163 O160 1.235 . S
O164 Co154 2.021 . S
O164 C161 1.238 . S
O165 Co159 2.052 . S
O165 C161 1.241 . S
O166 Co154 2.137 . S
O166 C157 1.247 . S
O167 Co154 2.244 . S
O167 C157 1.272 . S
O167 Co159 2.135 . S
Co168 O169 2.216 . S
Co168 O170 2.091 . S
Co168 O172 2.004 . S
Co168 O178 2.021 . S
Co168 O180 2.137 . S
Co168 O181 2.244 . S
O169 Co168 2.216 . S
O169 C176 1.247 . S
O170 Co168 2.091 . S
O170 C176 1.261 . S
C171 O180 1.247 . S
C171 O181 1.272 . S
O172 Co168 2.004 . S
O172 C177 1.259 . S
Co173 O174 2.061 . S
Co173 O179 2.052 . S
Co173 O181 2.135 . S
O174 Co173 2.061 . S
O174 C177 1.235 . S
C175 O178 1.238 . S
C175 O179 1.241 . S
C176 O169 1.247 . S
C176 O170 1.261 . S
C177 O172 1.259 . S
C177 O174 1.235 . S
O178 Co168 2.021 . S
O178 C175 1.238 . S
O179 Co173 2.052 . S
O179 C175 1.241 . S
O180 Co168 2.137 . S
O180 C171 1.247 . S
O181 Co168 2.244 . S
O181 C171 1.272 . S
O181 Co173 2.135 . S
Co182 O183 2.216 . S
Co182 O184 2.091 . S
Co182 O186 2.004 . S
Co182 O192 2.021 . S
Co182 O194 2.137 . S
Co182 O195 2.244 . S
O183 Co182 2.216 . S
O183 C190 1.247 . S
O184 Co182 2.091 . S
O184 C190 1.261 . S
C185 O194 1.247 . S
C185 O195 1.272 . S
O186 Co182 2.004 . S
O186 C191 1.259 . S
Co187 O188 2.061 . S
Co187 O193 2.052 . S
Co187 O195 2.135 . S
O188 Co187 2.061 . S
O188 C191 1.235 . S
C189 O192 1.238 . S
C189 O193 1.241 . S
C190 O183 1.247 . S
C190 O184 1.261 . S
C191 O186 1.259 . S
C191 O188 1.235 . S
O192 Co182 2.021 . S
O192 C189 1.238 . S
O193 Co187 2.052 . S
O193 C189 1.241 . S
O194 Co182 2.137 . S
O194 C185 1.247 . S
O195 Co182 2.244 . S
O195 C185 1.272 . S
O195 Co187 2.135 . S
Co196 O197 2.216 . S
Co196 O198 2.091 . S
Co196 O200 2.004 . S
Co196 O206 2.021 . S
Co196 O208 2.137 . S
Co196 O209 2.244 . S
O197 Co196 2.216 . S
O197 C204 1.247 . S
O198 Co196 2.091 . S
O198 C204 1.261 . S
C199 O208 1.247 . S
C199 O209 1.272 . S
O200 Co196 2.004 . S
O200 C205 1.259 . S
Co201 O202 2.061 . S
Co201 O207 2.052 . S
Co201 O209 2.135 . S
O202 Co201 2.061 . S
O202 C205 1.235 . S
C203 O206 1.238 . S
C203 O207 1.241 . S
C204 O197 1.247 . S
C204 O198 1.261 . S
C205 O200 1.259 . S
C205 O202 1.235 . S
O206 Co196 2.021 . S
O206 C203 1.238 . S
O207 Co201 2.052 . S
O207 C203 1.241 . S
O208 Co196 2.137 . S
O208 C199 1.247 . S
O209 Co196 2.244 . S
O209 C199 1.272 . S
O209 Co201 2.135 . S
Co210 O211 2.216 . S
Co210 O212 2.091 . S
Co210 O214 2.004 . S
Co210 O220 2.021 . S
Co210 O222 2.137 . S
Co210 O223 2.244 . S
O211 Co210 2.216 . S
O211 C218 1.247 . S
O212 Co210 2.091 . S
O212 C218 1.261 . S
C213 O222 1.247 . S
C213 O223 1.272 . S
O214 Co210 2.004 . S
O214 C219 1.259 . S
Co215 O216 2.061 . S
Co215 O221 2.052 . S
Co215 O223 2.135 . S
O216 Co215 2.061 . S
O216 C219 1.235 . S
C217 O220 1.238 . S
C217 O221 1.241 . S
C218 O211 1.247 . S
C218 O212 1.261 . S
C219 O214 1.259 . S
C219 O216 1.235 . S
O220 Co210 2.021 . S
O220 C217 1.238 . S
O221 Co215 2.052 . S
O221 C217 1.241 . S
O222 Co210 2.137 . S
O222 C213 1.247 . S
O223 Co210 2.244 . S
O223 C213 1.272 . S
O223 Co215 2.135 . S
H224 C236 0.930 . S
H225 C238 0.930 . S
H226 C239 0.930 . S
H227 C243 0.959 . S
H228 C243 0.959 1_455 S
H229 C243 0.961 . S
H230 C244 0.962 . S
H231 C244 0.961 . S
H232 C244 0.959 . S
H233 C247 0.929 . S
H234 C248 0.931 . S
H235 C250 0.930 . S
C236 H224 0.930 . S
C236 C237 1.399 . S
C236 C241 1.399 . S
C237 C236 1.399 . S
C237 C238 1.376 . S
C238 H225 0.930 . S
C238 C237 1.376 . S
C238 C239 1.388 . S
C239 H226 0.930 . S
C239 C238 1.388 . S
C239 C240 1.390 . S
C240 C239 1.390 . S
C240 C241 1.394 . S
C240 C246 1.465 1_665 S
C241 C236 1.399 . S
C241 C240 1.394 . S
C241 C242 1.513 1_655 S
C242 C241 1.513 1_455 S
C242 C243 1.500 1_465 S
C242 C244 1.563 . S
C242 C245 1.529 1_565 S
C243 H227 0.959 . S
C243 H228 0.959 1_655 S
C243 H229 0.961 . S
C243 C242 1.500 1_645 S
C244 H230 0.962 . S
C244 H231 0.961 . S
C244 H232 0.959 . S
C244 C242 1.563 . S
C245 C242 1.529 1_545 S
C245 C246 1.396 . S
C245 C250 1.390 . S
C246 C240 1.465 1_445 S
C246 C245 1.396 . S
C246 C247 1.399 . S
C247 H233 0.929 . S
C247 C246 1.399 . S
C247 C248 1.385 . S
C248 H234 0.931 . S
C248 C247 1.385 . S
C248 C249 1.389 . S
C249 C248 1.389 . S
C249 C250 1.387 . S
C250 H235 0.930 . S
C250 C245 1.390 . S
C250 C249 1.387 . S
H251 C263 0.930 . S
H252 C265 0.930 . S
H253 C266 0.930 1_455 S
H254 C270 0.959 . S
H255 C270 0.959 . S
H256 C270 0.961 . S
H257 C271 0.960 1_655 S
H258 C271 0.961 . S
H259 C271 0.959 . S
H260 C274 0.929 . S
H261 C275 0.931 . S
H262 C277 0.930 . S
C263 H251 0.930 . S
C263 C264 1.399 . S
C263 C268 1.399 . S
C264 C263 1.399 . S
C264 C265 1.376 . S
C265 H252 0.930 . S
C265 C264 1.376 . S
C265 C266 1.388 . S
C266 H253 0.930 1_655 S
C266 C265 1.388 . S
C266 C267 1.391 . S
C267 C266 1.391 . S
C267 C268 1.400 . S
C267 C273 1.459 1_655 S
C268 C263 1.399 . S
C268 C267 1.400 . S
C268 C269 1.516 . S
C269 C268 1.516 . S
C269 C270 1.502 . S
C269 C271 1.561 1_655 S
C269 C272 1.526 1_655 S
C270 H254 0.959 . S
C270 H255 0.959 . S
C270 H256 0.961 . S
C270 C269 1.502 . S
C271 H257 0.960 1_455 S
C271 H258 0.961 . S
C271 H259 0.959 . S
C271 C269 1.561 1_455 S
C272 C269 1.526 1_455 S
C272 C273 1.396 . S
C272 C277 1.390 . S
C273 C267 1.459 1_455 S
C273 C272 1.396 . S
C273 C274 1.399 . S
C274 H260 0.929 . S
C274 C273 1.399 . S
C274 C275 1.385 . S
C275 H261 0.931 . S
C275 C274 1.385 . S
C275 C276 1.389 . S
C276 C275 1.389 . S
C276 C277 1.387 . S
C277 H262 0.930 . S
C277 C272 1.390 . S
C277 C276 1.387 . S
H278 C290 0.930 . S
H279 C292 0.930 . S
H280 C293 0.930 . S
H281 C297 0.959 . S
H282 C297 0.959 . S
H283 C297 0.961 . S
H284 C298 0.960 . S
H285 C298 0.961 . S
H286 C298 0.959 . S
H287 C301 0.929 . S
H288 C302 0.931 . S
H289 C304 0.930 . S
C290 H278 0.930 . S
C290 C291 1.399 . S
C290 C295 1.399 . S
C291 C290 1.399 . S
C291 C292 1.376 . S
C292 H279 0.930 . S
C292 C291 1.376 . S
C292 C293 1.388 . S
C293 H280 0.930 . S
C293 C292 1.388 . S
C293 C294 1.390 . S
C294 C293 1.390 . S
C294 C295 1.394 . S
C294 C300 1.465 . S
C295 C290 1.399 . S
C295 C294 1.394 . S
C295 C296 1.516 . S
C296 C295 1.516 . S
C296 C297 1.502 . S
C296 C298 1.561 . S
C296 C299 1.526 . S
C297 H281 0.959 . S
C297 H282 0.959 . S
C297 H283 0.961 . S
C297 C296 1.502 . S
C298 H284 0.960 . S
C298 H285 0.961 . S
C298 H286 0.959 . S
C298 C296 1.561 . S
C299 C296 1.526 . S
C299 C300 1.396 . S
C299 C304 1.390 . S
C300 C294 1.465 . S
C300 C299 1.396 . S
C300 C301 1.399 . S
C301 H287 0.929 . S
C301 C300 1.399 . S
C301 C302 1.385 . S
C302 H288 0.931 . S
C302 C301 1.385 . S
C302 C303 1.389 . S
C303 C302 1.389 . S
C303 C304 1.387 . S
C304 H289 0.930 . S
C304 C299 1.390 . S
C304 C303 1.387 . S
H305 C317 0.930 . S
H306 C319 0.930 . S
H307 C320 0.930 . S
H308 C324 0.959 . S
H309 C324 0.959 . S
H310 C324 0.961 . S
H311 C325 0.960 . S
H312 C325 0.961 1_565 S
H313 C325 0.959 . S
H314 C328 0.929 . S
H315 C329 0.931 . S
H316 C331 0.930 . S
C317 H305 0.930 . S
C317 C318 1.399 . S
C317 C322 1.399 . S
C318 C317 1.399 . S
C318 C319 1.376 . S
C319 H306 0.930 . S
C319 C318 1.376 . S
C319 C320 1.388 . S
C320 H307 0.930 . S
C320 C319 1.388 . S
C320 C321 1.390 . S
C321 C320 1.390 . S
C321 C322 1.394 . S
C321 C327 1.465 1_545 S
C322 C317 1.399 . S
C322 C321 1.394 . S
C322 C323 1.516 1_545 S
C323 C322 1.516 1_565 S
C323 C324 1.502 . S
C323 C325 1.561 1_565 S
C323 C326 1.526 . S
C324 H308 0.959 . S
C324 H309 0.959 . S
C324 H310 0.961 . S
C324 C323 1.502 . S
C325 H311 0.960 . S
C325 H312 0.961 1_545 S
C325 H313 0.959 . S
C325 C323 1.561 1_545 S
C326 C323 1.526 . S
C326 C327 1.396 . S
C326 C331 1.390 . S
C327 C321 1.465 1_565 S
C327 C326 1.396 . S
C327 C328 1.399 . S
C328 H314 0.929 . S
C328 C327 1.399 . S
C328 C329 1.385 . S
C329 H315 0.931 . S
C329 C328 1.385 . S
C329 C330 1.389 . S
C330 C329 1.389 . S
C330 C331 1.387 . S
C331 H316 0.930 . S
C331 C326 1.390 . S
C331 C330 1.387 . S
H332 C344 0.930 . S
H333 C346 0.930 . S
H334 C347 0.930 . S
H335 C351 0.959 . S
H336 C351 0.959 . S
H337 C351 0.961 . S
H338 C352 0.960 1_455 S
H339 C352 0.961 . S
H340 C352 0.959 . S
H341 C355 0.929 . S
H342 C356 0.931 . S
H343 C358 0.930 . S
C344 H332 0.930 . S
C344 C345 1.399 . S
C344 C349 1.399 . S
C345 C344 1.399 . S
C345 C346 1.376 . S
C346 H333 0.930 . S
C346 C345 1.376 . S
C346 C347 1.388 . S
C347 H334 0.930 . S
C347 C346 1.388 . S
C347 C348 1.390 . S
C348 C347 1.390 . S
C348 C349 1.394 . S
C348 C354 1.465 1_455 S
C349 C344 1.399 . S
C349 C348 1.394 . S
C349 C350 1.516 . S
C350 C349 1.516 . S
C350 C351 1.502 . S
C350 C352 1.561 1_455 S
C350 C353 1.526 1_455 S
C351 H335 0.959 . S
C351 H336 0.959 . S
C351 H337 0.961 . S
C351 C350 1.502 . S
C352 H338 0.960 1_655 S
C352 H339 0.961 . S
C352 H340 0.959 . S
C352 C350 1.561 1_655 S
C353 C350 1.526 1_655 S
C353 C354 1.396 . S
C353 C358 1.390 . S
C354 C348 1.465 1_655 S
C354 C353 1.396 . S
C354 C355 1.399 . S
C355 H341 0.929 . S
C355 C354 1.399 . S
C355 C356 1.385 . S
C356 H342 0.931 . S
C356 C355 1.385 . S
C356 C357 1.389 . S
C357 C356 1.389 . S
C357 C358 1.387 . S
C358 H343 0.930 . S
C358 C353 1.390 . S
C358 C357 1.387 . S
H359 C371 0.930 . S
H360 C373 0.930 . S
H361 C374 0.930 . S
H362 C378 0.959 . S
H363 C378 0.959 . S
H364 C378 0.961 . S
H365 C379 0.960 . S
H366 C379 0.961 . S
H367 C379 0.959 . S
H368 C382 0.929 . S
H369 C383 0.931 . S
H370 C385 0.930 . S
C371 H359 0.930 . S
C371 C372 1.399 . S
C371 C376 1.399 . S
C372 C371 1.399 . S
C372 C373 1.376 . S
C373 H360 0.930 . S
C373 C372 1.376 . S
C373 C374 1.388 . S
C374 H361 0.930 . S
C374 C373 1.388 . S
C374 C375 1.390 . S
C375 C374 1.390 . S
C375 C376 1.394 . S
C375 C381 1.465 . S
C376 C371 1.399 . S
C376 C375 1.394 . S
C376 C377 1.516 . S
C377 C376 1.516 . S
C377 C378 1.502 . S
C377 C379 1.561 . S
C377 C380 1.526 . S
C378 H362 0.959 . S
C378 H363 0.959 . S
C378 H364 0.961 . S
C378 C377 1.502 . S
C379 H365 0.960 . S
C379 H366 0.961 . S
C379 H367 0.959 . S
C379 C377 1.561 . S
C380 C377 1.526 . S
C380 C381 1.396 . S
C380 C385 1.390 . S
C381 C375 1.465 . S
C381 C380 1.396 . S
C381 C382 1.399 . S
C382 H368 0.929 . S
C382 C381 1.399 . S
C382 C383 1.385 . S
C383 H369 0.931 . S
C383 C382 1.385 . S
C383 C384 1.389 . S
C384 C383 1.389 . S
C384 C385 1.387 . S
C385 H370 0.930 . S
C385 C380 1.390 . S
C385 C384 1.387 . S
H386 C398 0.930 . S
H387 C400 0.930 . S
H388 C401 0.930 . S
H389 C405 0.959 . S
H390 C405 0.959 . S
H391 C405 0.961 . S
H392 C406 0.960 . S
H393 C406 0.961 . S
H394 C406 0.959 . S
H395 C409 0.938 . S
H396 C410 0.931 . S
H397 C412 0.930 . S
C398 H386 0.930 . S
C398 C399 1.399 . S
C398 C403 1.399 . S
C399 C398 1.399 . S
C399 C400 1.376 . S
C400 H387 0.930 . S
C400 C399 1.376 . S
C400 C401 1.388 . S
C401 H388 0.930 . S
C401 C400 1.388 . S
C401 C402 1.390 . S
C402 C401 1.390 . S
C402 C403 1.394 . S
C402 C408 1.465 1_545 S
C403 C398 1.399 . S
C403 C402 1.394 . S
C403 C404 1.516 1_545 S
C404 C403 1.516 1_565 S
C404 C405 1.502 . S
C404 C406 1.561 . S
C404 C407 1.526 . S
C405 H389 0.959 . S
C405 H390 0.959 . S
C405 H391 0.961 . S
C405 C404 1.502 . S
C406 H392 0.960 . S
C406 H393 0.961 . S
C406 H394 0.959 . S
C406 C404 1.561 . S
C407 C404 1.526 . S
C407 C408 1.396 . S
C407 C412 1.390 . S
C408 C402 1.465 1_565 S
C408 C407 1.396 . S
C408 C409 1.398 1_565 S
C409 H395 0.938 . S
C409 C408 1.398 1_545 S
C409 C410 1.377 1_545 S
C410 H396 0.931 . S
C410 C409 1.377 1_565 S
C410 C411 1.389 . S
C411 C410 1.389 . S
C411 C412 1.387 . S
C412 H397 0.930 . S
C412 C407 1.390 . S
C412 C411 1.387 . S
H413 C425 0.930 . S
H414 C427 0.930 . S
H415 C428 0.930 1_655 S
H416 C432 0.959 . S
H417 C432 0.959 . S
H418 C432 0.961 . S
H419 C433 0.960 . S
H420 C433 0.961 1_565 S
H421 C433 0.959 . S
H422 C436 0.929 . S
H423 C437 0.931 . S
H424 C439 0.930 . S
C425 H413 0.930 . S
C425 C426 1.399 . S
C425 C430 1.399 . S
C426 C425 1.399 . S
C426 C427 1.376 . S
C427 H414 0.930 . S
C427 C426 1.376 . S
C427 C428 1.388 . S
C428 H415 0.930 1_455 S
C428 C427 1.388 . S
C428 C429 1.390 . S
C429 C428 1.390 . S
C429 C430 1.394 . S
C429 C435 1.465 1_445 S
C430 C425 1.399 . S
C430 C429 1.394 . S
C430 C431 1.516 1_545 S
C431 C430 1.516 1_565 S
C431 C432 1.502 . S
C431 C433 1.561 1_465 S
C431 C434 1.526 1_455 S
C432 H416 0.959 . S
C432 H417 0.959 . S
C432 H418 0.961 . S
C432 C431 1.502 . S
C433 H419 0.960 . S
C433 H420 0.961 1_545 S
C433 H421 0.959 . S
C433 C431 1.561 1_645 S
C434 C431 1.526 1_655 S
C434 C435 1.396 . S
C434 C439 1.390 . S
C435 C429 1.465 1_665 S
C435 C434 1.396 . S
C435 C436 1.399 . S
C436 H422 0.929 . S
C436 C435 1.399 . S
C436 C437 1.385 . S
C437 H423 0.931 . S
C437 C436 1.385 . S
C437 C438 1.389 . S
C438 C437 1.389 . S
C438 C439 1.387 . S
C439 H424 0.930 . S
C439 C434 1.390 . S
C439 C438 1.387 . S
H440 C452 0.930 . S
H441 C454 0.935 . S
H442 C455 0.930 . S
H443 C459 0.959 . S
H444 C459 0.959 . S
H445 C459 0.961 . S
H446 C460 0.960 . S
H447 C460 0.961 . S
H448 C460 0.959 . S
H449 C463 0.929 . S
H450 C464 0.931 . S
H451 C466 0.930 1_565 S
C452 H440 0.930 . S
C452 C453 1.399 . S
C452 C457 1.399 . S
C453 C452 1.399 . S
C453 C454 1.376 . S
C454 H441 0.935 . S
C454 C453 1.376 . S
C454 C455 1.388 1_565 S
C455 H442 0.930 . S
C455 C454 1.388 1_545 S
C455 C456 1.390 . S
C456 C455 1.390 . S
C456 C457 1.394 1_545 S
C456 C462 1.465 . S
C457 C452 1.399 . S
C457 C456 1.394 1_565 S
C457 C458 1.516 . S
C458 C457 1.516 . S
C458 C459 1.502 . S
C458 C460 1.561 . S
C458 C461 1.520 1_565 S
C459 H443 0.959 . S
C459 H444 0.959 . S
C459 H445 0.961 . S
C459 C458 1.502 . S
C460 H446 0.960 . S
C460 H447 0.961 . S
C460 H448 0.959 . S
C460 C458 1.561 . S
C461 C458 1.520 1_545 S
C461 C462 1.400 . S
C461 C466 1.392 . S
C462 C456 1.465 . S
C462 C461 1.400 . S
C462 C463 1.399 . S
C463 H449 0.929 . S
C463 C462 1.399 . S
C463 C464 1.385 . S
C464 H450 0.931 . S
C464 C463 1.385 . S
C464 C465 1.389 . S
C465 C464 1.389 . S
C465 C466 1.387 . S
C466 H451 0.930 1_545 S
C466 C461 1.392 . S
C466 C465 1.387 . S
H467 C479 0.930 . S
H468 C481 0.930 . S
H469 C482 0.930 . S
H470 C486 0.959 . S
H471 C486 0.946 1_545 S
H472 C486 0.961 . S
H473 C487 0.960 1_565 S
H474 C487 0.961 . S
H475 C487 0.959 . S
H476 C490 0.929 . S
H477 C491 0.931 . S
H478 C493 0.930 . S
C479 H467 0.930 . S
C479 C480 1.399 . S
C479 C484 1.399 . S
C480 C479 1.399 . S
C480 C481 1.376 . S
C481 H468 0.930 . S
C481 C480 1.376 . S
C481 C482 1.388 . S
C482 H469 0.930 . S
C482 C481 1.388 . S
C482 C483 1.390 . S
C483 C482 1.390 . S
C483 C484 1.394 . S
C483 C489 1.465 1_665 S
C484 C479 1.399 . S
C484 C483 1.394 . S
C484 C485 1.516 1_655 S
C485 C484 1.516 1_455 S
C485 C486 1.502 . S
C485 C487 1.561 1_465 S
C485 C488 1.526 1_565 S
C486 H470 0.959 . S
C486 H471 0.946 1_565 S
C486 H472 0.961 . S
C486 C485 1.502 . S
C487 H473 0.960 1_545 S
C487 H474 0.961 . S
C487 H475 0.959 . S
C487 C485 1.561 1_645 S
C488 C485 1.526 1_545 S
C488 C489 1.396 . S
C488 C493 1.390 . S
C489 C483 1.465 1_445 S
C489 C488 1.396 . S
C489 C490 1.399 . S
C490 H476 0.929 . S
C490 C489 1.399 . S
C490 C491 1.385 . S
C491 H477 0.931 . S
C491 C490 1.385 . S
C491 C492 1.389 . S
C492 C491 1.389 . S
C492 C493 1.387 . S
C493 H478 0.930 . S
C493 C488 1.390 . S
C493 C492 1.387 . S
H494 C506 0.930 . S
H495 C508 0.930 . S
H496 C509 0.930 . S
H497 C513 0.959 . S
H498 C513 0.959 . S
H499 C513 0.961 1_455 S
H500 C514 0.960 . S
H501 C514 0.961 . S
H502 C514 0.959 . S
H503 C517 0.929 . S
H504 C518 0.931 . S
H505 C520 0.930 . S
C506 H494 0.930 . S
C506 C507 1.399 . S
C506 C511 1.399 . S
C507 C506 1.399 . S
C507 C508 1.376 . S
C508 H495 0.930 . S
C508 C507 1.376 . S
C508 C509 1.388 . S
C509 H496 0.930 . S
C509 C508 1.388 . S
C509 C510 1.390 . S
C510 C509 1.390 . S
C510 C511 1.394 . S
C510 C516 1.465 1_455 S
C511 C506 1.399 . S
C511 C510 1.394 . S
C511 C512 1.516 . S
C512 C511 1.516 . S
C512 C513 1.502 1_455 S
C512 C514 1.561 . S
C512 C515 1.526 1_455 S
C513 H497 0.959 . S
C513 H498 0.959 . S
C513 H499 0.961 1_655 S
C513 C512 1.502 1_655 S
C514 H500 0.960 . S
C514 H501 0.961 . S
C514 H502 0.959 . S
C514 C512 1.561 . S
C515 C512 1.526 1_655 S
C515 C516 1.396 . S
C515 C520 1.390 . S
C516 C510 1.465 1_655 S
C516 C515 1.396 . S
C516 C517 1.399 . S
C517 H503 0.929 . S
C517 C516 1.399 . S
C517 C518 1.385 . S
C518 H504 0.931 . S
C518 C517 1.385 . S
C518 C519 1.389 . S
C519 C518 1.389 . S
C519 C520 1.387 . S
C520 H505 0.930 . S
C520 C515 1.390 . S
C520 C519 1.387 . S
H521 C533 0.930 . S
H522 C535 0.930 . S
H523 C536 0.930 . S
H524 C540 0.959 . S
H525 C540 0.959 . S
H526 C540 0.961 . S
H527 C541 0.960 . S
H528 C541 0.961 . S
H529 C541 0.959 . S
H530 C544 0.929 . S
H531 C545 0.931 . S
H532 C547 0.930 . S
C533 H521 0.930 . S
C533 C534 1.399 . S
C533 C538 1.399 . S
C534 C533 1.399 . S
C534 C535 1.376 . S
C535 H522 0.930 . S
C535 C534 1.376 . S
C535 C536 1.388 . S
C536 H523 0.930 . S
C536 C535 1.388 . S
C536 C537 1.390 . S
C537 C536 1.390 . S
C537 C538 1.394 . S
C537 C543 1.465 . S
C538 C533 1.399 . S
C538 C537 1.394 . S
C538 C539 1.516 . S
C539 C538 1.516 . S
C539 C540 1.502 . S
C539 C541 1.561 . S
C539 C542 1.526 . S
C540 H524 0.959 . S
C540 H525 0.959 . S
C540 H526 0.961 . S
C540 C539 1.502 . S
C541 H527 0.960 . S
C541 H528 0.961 . S
C541 H529 0.959 . S
C541 C539 1.561 . S
C542 C539 1.526 . S
C542 C543 1.396 . S
C542 C547 1.390 . S
C543 C537 1.465 . S
C543 C542 1.396 . S
C543 C544 1.399 . S
C544 H530 0.929 . S
C544 C543 1.399 . S
C544 C545 1.385 . S
C545 H531 0.931 . S
C545 C544 1.385 . S
C545 C546 1.389 . S
C546 C545 1.389 . S
C546 C547 1.387 . S
C547 H532 0.930 . S
C547 C542 1.390 . S
C547 C546 1.387 . S
H548 C560 0.930 . S
H549 C562 0.930 . S
H550 C563 0.930 . S
H551 C567 0.959 . S
H552 C567 0.959 . S
H553 C567 0.961 . S
H554 C568 0.960 . S
H555 C568 0.961 . S
H556 C568 0.959 . S
H557 C571 0.929 . S
H558 C572 0.931 . S
H559 C574 0.930 . S
C560 H548 0.930 . S
C560 C561 1.399 . S
C560 C565 1.399 . S
C561 C560 1.399 . S
C561 C562 1.376 . S
C562 H549 0.930 . S
C562 C561 1.376 . S
C562 C563 1.388 . S
C563 H550 0.930 . S
C563 C562 1.388 . S
C563 C564 1.390 . S
C564 C563 1.390 . S
C564 C565 1.394 . S
C564 C570 1.465 . S
C565 C560 1.399 . S
C565 C564 1.394 . S
C565 C566 1.516 . S
C566 C565 1.516 . S
C566 C567 1.502 . S
C566 C568 1.561 . S
C566 C569 1.526 . S
C567 H551 0.959 . S
C567 H552 0.959 . S
C567 H553 0.961 . S
C567 C566 1.502 . S
C568 H554 0.960 . S
C568 H555 0.961 . S
C568 H556 0.959 . S
C568 C566 1.561 . S
C569 C566 1.526 . S
C569 C570 1.396 . S
C569 C574 1.390 . S
C570 C564 1.465 . S
C570 C569 1.396 . S
C570 C571 1.399 . S
C571 H557 0.929 . S
C571 C570 1.399 . S
C571 C572 1.385 . S
C572 H558 0.931 . S
C572 C571 1.385 . S
C572 C573 1.389 . S
C573 C572 1.389 . S
C573 C574 1.387 . S
C574 H559 0.930 . S
C574 C569 1.390 . S
C574 C573 1.387 . S
H575 C587 0.930 . S
H576 C589 0.930 . S
H577 C590 0.930 . S
H578 C594 0.959 . S
H579 C594 0.959 . S
H580 C594 0.961 . S
H581 C595 0.960 . S
H582 C595 0.961 1_545 S
H583 C595 0.959 1_545 S
H584 C598 0.929 . S
H585 C599 0.931 . S
H586 C601 0.930 . S
C587 H575 0.930 . S
C587 C588 1.399 . S
C587 C592 1.399 . S
C588 C587 1.399 . S
C588 C589 1.376 . S
C589 H576 0.930 . S
C589 C588 1.376 . S
C589 C590 1.388 . S
C590 H577 0.930 . S
C590 C589 1.388 . S
C590 C591 1.390 . S
C591 C590 1.390 . S
C591 C592 1.394 . S
C591 C597 1.465 1_565 S
C592 C587 1.399 . S
C592 C591 1.394 . S
C592 C593 1.516 . S
C593 C592 1.516 . S
C593 C594 1.502 . S
C593 C595 1.561 . S
C593 C596 1.526 1_565 S
C594 H578 0.959 . S
C594 H579 0.959 . S
C594 H580 0.961 . S
C594 C593 1.502 . S
C595 H581 0.960 . S
C595 H582 0.961 1_565 S
C595 H583 0.959 1_565 S
C595 C593 1.561 . S
C596 C593 1.526 1_545 S
C596 C597 1.396 . S
C596 C601 1.390 . S
C597 C591 1.465 1_545 S
C597 C596 1.396 . S
C597 C598 1.399 . S
C598 H584 0.929 . S
C598 C597 1.399 . S
C598 C599 1.385 . S
C599 H585 0.931 . S
C599 C598 1.385 . S
C599 C600 1.389 . S
C600 C599 1.389 . S
C600 C601 1.387 . S
C601 H586 0.930 . S
C601 C596 1.390 . S
C601 C600 1.387 . S
H602 C614 0.930 . S
H603 C616 0.930 . S
H604 C617 0.930 . S
H605 C621 0.959 . S
H606 C621 0.959 . S
H607 C621 0.961 1_655 S
H608 C622 0.960 . S
H609 C622 0.961 1_455 S
H610 C622 0.959 . S
H611 C625 0.929 . S
H612 C626 0.931 . S
H613 C628 0.930 . S
C614 H602 0.930 . S
C614 C615 1.399 . S
C614 C619 1.399 . S
C615 C614 1.399 . S
C615 C616 1.376 . S
C616 H603 0.930 . S
C616 C615 1.376 . S
C616 C617 1.388 . S
C617 H604 0.930 . S
C617 C616 1.388 . S
C617 C618 1.390 . S
C618 C617 1.390 . S
C618 C619 1.394 . S
C618 C624 1.465 1_665 S
C619 C614 1.399 . S
C619 C618 1.394 . S
C619 C620 1.511 1_565 S
C620 C619 1.511 1_545 S
C620 C621 1.494 1_645 S
C620 C622 1.570 . S
C620 C623 1.531 1_655 S
C621 H605 0.959 . S
C621 H606 0.959 . S
C621 H607 0.961 1_455 S
C621 C620 1.494 1_465 S
C622 H608 0.960 . S
C622 H609 0.961 1_655 S
C622 H610 0.959 . S
C622 C620 1.570 . S
C623 C620 1.531 1_455 S
C623 C624 1.396 . S
C623 C628 1.390 . S
C624 C618 1.465 1_445 S
C624 C623 1.396 . S
C624 C625 1.399 . S
C625 H611 0.929 . S
C625 C624 1.399 . S
C625 C626 1.385 . S
C626 H612 0.931 . S
C626 C625 1.385 . S
C626 C627 1.389 . S
C627 C626 1.389 . S
C627 C628 1.387 . S
C628 H613 0.930 . S
C628 C623 1.390 . S
C628 C627 1.387 . S
H629 C641 0.930 . S
H630 C643 0.930 . S
H631 C644 0.930 1_655 S
H632 C648 0.959 . S
H633 C648 0.959 . S
H634 C648 0.961 . S
H635 C649 0.951 1_455 S
H636 C649 0.961 . S
H637 C649 0.959 . S
H638 C652 0.929 . S
H639 C653 0.931 . S
H640 C655 0.930 . S
C641 H629 0.930 . S
C641 C642 1.399 . S
C641 C646 1.399 . S
C642 C641 1.399 . S
C642 C643 1.376 . S
C643 H630 0.930 . S
C643 C642 1.376 . S
C643 C644 1.388 . S
C644 H631 0.930 1_455 S
C644 C643 1.388 . S
C644 C645 1.390 1_455 S
C645 C644 1.390 1_655 S
C645 C646 1.390 1_655 S
C645 C651 1.469 . S
C646 C641 1.399 . S
C646 C645 1.390 1_455 S
C646 C647 1.516 . S
C647 C646 1.516 . S
C647 C648 1.502 . S
C647 C649 1.561 1_455 S
C647 C650 1.526 1_455 S
C648 H632 0.959 . S
C648 H633 0.959 . S
C648 H634 0.961 . S
C648 C647 1.502 . S
C649 H635 0.951 1_655 S
C649 H636 0.961 . S
C649 H637 0.959 . S
C649 C647 1.561 1_655 S
C650 C647 1.526 1_655 S
C650 C651 1.396 . S
C650 C655 1.390 . S
C651 C645 1.469 . S
C651 C650 1.396 . S
C651 C652 1.399 . S
C652 H638 0.929 . S
C652 C651 1.399 . S
C652 C653 1.385 . S
C653 H639 0.931 . S
C653 C652 1.385 . S
C653 C654 1.389 . S
C654 C653 1.389 . S
C654 C655 1.387 . S
C655 H640 0.930 . S
C655 C650 1.390 . S
C655 C654 1.387 . S
H656 C668 0.930 . S
H657 C670 0.930 . S
H658 C671 0.930 . S
H659 C675 0.959 . S
H660 C675 0.959 . S
H661 C675 0.961 . S
H662 C676 0.960 . S
H663 C676 0.961 . S
H664 C676 0.959 . S
H665 C679 0.929 . S
H666 C680 0.931 . S
H667 C682 0.930 . S
C668 H656 0.930 . S
C668 C669 1.399 . S
C668 C673 1.399 . S
C669 C668 1.399 . S
C669 C670 1.376 . S
C670 H657 0.930 . S
C670 C669 1.376 . S
C670 C671 1.388 . S
C671 H658 0.930 . S
C671 C670 1.388 . S
C671 C672 1.390 . S
C672 C671 1.390 . S
C672 C673 1.394 . S
C672 C678 1.465 . S
C673 C668 1.399 . S
C673 C672 1.394 . S
C673 C674 1.516 . S
C674 C673 1.516 . S
C674 C675 1.502 . S
C674 C676 1.561 . S
C674 C677 1.526 . S
C675 H659 0.959 . S
C675 H660 0.959 . S
C675 H661 0.961 . S
C675 C674 1.502 . S
C676 H662 0.960 . S
C676 H663 0.961 . S
C676 H664 0.959 . S
C676 C674 1.561 . S
C677 C674 1.526 . S
C677 C678 1.396 . S
C677 C682 1.390 . S
C678 C672 1.465 . S
C678 C677 1.396 . S
C678 C679 1.399 . S
C679 H665 0.929 . S
C679 C678 1.399 . S
C679 C680 1.385 . S
C680 H666 0.931 . S
C680 C679 1.385 . S
C680 C681 1.389 . S
C681 C680 1.389 . S
C681 C682 1.387 . S
C682 H667 0.930 . S
C682 C677 1.390 . S
C682 C681 1.387 . S
H683 C695 0.930 . S
H684 C697 0.930 . S
H685 C698 0.930 . S
H686 C702 0.959 . S
H687 C702 0.959 . S
H688 C702 0.961 . S
H689 C703 0.960 . S
H690 C703 0.961 . S
H691 C703 0.959 . S
H692 C706 0.929 . S
H693 C707 0.931 . S
H694 C709 0.930 . S
C695 H683 0.930 . S
C695 C696 1.399 . S
C695 C700 1.399 . S
C696 C695 1.399 . S
C696 C697 1.376 . S
C697 H684 0.930 . S
C697 C696 1.376 . S
C697 C698 1.388 . S
C698 H685 0.930 . S
C698 C697 1.388 . S
C698 C699 1.390 . S
C699 C698 1.390 . S
C699 C700 1.394 . S
C699 C705 1.465 . S
C700 C695 1.399 . S
C700 C699 1.394 . S
C700 C701 1.516 . S
C701 C700 1.516 . S
C701 C702 1.502 . S
C701 C703 1.561 . S
C701 C704 1.526 . S
C702 H686 0.959 . S
C702 H687 0.959 . S
C702 H688 0.961 . S
C702 C701 1.502 . S
C703 H689 0.960 . S
C703 H690 0.961 . S
C703 H691 0.959 . S
C703 C701 1.561 . S
C704 C701 1.526 . S
C704 C705 1.396 . S
C704 C709 1.390 . S
C705 C699 1.465 . S
C705 C704 1.396 . S
C705 C706 1.399 . S
C706 H692 0.929 . S
C706 C705 1.399 . S
C706 C707 1.385 . S
C707 H693 0.931 . S
C707 C706 1.385 . S
C707 C708 1.389 . S
C708 C707 1.389 . S
C708 C709 1.387 . S
C709 H694 0.930 . S
C709 C704 1.390 . S
C709 C708 1.387 . S
H710 C722 0.930 . S
H711 C724 0.930 . S
H712 C725 0.930 . S
H713 C729 0.959 . S
H714 C729 0.959 . S
H715 C729 0.961 . S
H716 C730 0.960 . S
H717 C730 0.961 . S
H718 C730 0.959 . S
H719 C733 0.929 . S
H720 C734 0.931 . S
H721 C736 0.930 . S
C722 H710 0.930 . S
C722 C723 1.399 . S
C722 C727 1.399 . S
C723 C722 1.399 . S
C723 C724 1.376 . S
C724 H711 0.930 . S
C724 C723 1.376 . S
C724 C725 1.388 . S
C725 H712 0.930 . S
C725 C724 1.388 . S
C725 C726 1.390 . S
C726 C725 1.390 . S
C726 C727 1.394 . S
C726 C732 1.465 . S
C727 C722 1.399 . S
C727 C726 1.394 . S
C727 C728 1.516 . S
C728 C727 1.516 . S
C728 C729 1.502 . S
C728 C730 1.561 . S
C728 C731 1.526 . S
C729 H713 0.959 . S
C729 H714 0.959 . S
C729 H715 0.961 . S
C729 C728 1.502 . S
C730 H716 0.960 . S
C730 H717 0.961 . S
C730 H718 0.959 . S
C730 C728 1.561 . S
C731 C728 1.526 . S
C731 C732 1.396 . S
C731 C736 1.390 . S
C732 C726 1.465 . S
C732 C731 1.396 . S
C732 C733 1.399 . S
C733 H719 0.929 . S
C733 C732 1.399 . S
C733 C734 1.385 . S
C734 H720 0.931 . S
C734 C733 1.385 . S
C734 C735 1.389 . S
C735 C734 1.389 . S
C735 C736 1.387 . S
C736 H721 0.930 . S
C736 C731 1.390 . S
C736 C735 1.387 . S
H737 C749 0.930 . S
H738 C751 0.930 . S
H739 C752 0.930 . S
H740 C756 0.959 . S
H741 C756 0.959 . S
H742 C756 0.961 . S
H743 C757 0.960 . S
H744 C757 0.961 . S
H745 C757 0.959 . S
H746 C760 0.929 . S
H747 C761 0.931 . S
H748 C763 0.930 . S
C749 H737 0.930 . S
C749 C750 1.399 . S
C749 C754 1.399 . S
C750 C749 1.399 . S
C750 C751 1.376 . S
C751 H738 0.930 . S
C751 C750 1.376 . S
C751 C752 1.388 . S
C752 H739 0.930 . S
C752 C751 1.388 . S
C752 C753 1.390 . S
C753 C752 1.390 . S
C753 C754 1.394 . S
C753 C759 1.465 . S
C754 C749 1.399 . S
C754 C753 1.394 . S
C754 C755 1.516 . S
C755 C754 1.516 . S
C755 C756 1.502 . S
C755 C757 1.561 . S
C755 C758 1.526 . S
C756 H740 0.959 . S
C756 H741 0.959 . S
C756 H742 0.961 . S
C756 C755 1.502 . S
C757 H743 0.960 . S
C757 H744 0.961 . S
C757 H745 0.959 . S
C757 C755 1.561 . S
C758 C755 1.526 . S
C758 C759 1.396 . S
C758 C763 1.390 . S
C759 C753 1.465 . S
C759 C758 1.396 . S
C759 C760 1.399 . S
C760 H746 0.929 . S
C760 C759 1.399 . S
C760 C761 1.385 . S
C761 H747 0.931 . S
C761 C760 1.385 . S
C761 C762 1.389 . S
C762 C761 1.389 . S
C762 C763 1.387 . S
C763 H748 0.930 . S
C763 C758 1.390 . S
C763 C762 1.387 . S
H764 C776 0.930 . S
H765 C778 0.930 . S
H766 C779 0.930 . S
H767 C783 0.959 . S
H768 C783 0.959 . S
H769 C783 0.961 . S
H770 C784 0.960 . S
H771 C784 0.961 . S
H772 C784 0.959 . S
H773 C787 0.929 . S
H774 C788 0.931 . S
H775 C790 0.930 . S
C776 H764 0.930 . S
C776 C777 1.399 . S
C776 C781 1.399 . S
C777 C776 1.399 . S
C777 C778 1.376 . S
C778 H765 0.930 . S
C778 C777 1.376 . S
C778 C779 1.388 . S
C779 H766 0.930 . S
C779 C778 1.388 . S
C779 C780 1.390 . S
C780 C779 1.390 . S
C780 C781 1.394 . S
C780 C786 1.465 . S
C781 C776 1.399 . S
C781 C780 1.394 . S
C781 C782 1.516 . S
C782 C781 1.516 . S
C782 C783 1.502 . S
C782 C784 1.561 . S
C782 C785 1.526 . S
C783 H767 0.959 . S
C783 H768 0.959 . S
C783 H769 0.961 . S
C783 C782 1.502 . S
C784 H770 0.960 . S
C784 H771 0.961 . S
C784 H772 0.959 . S
C784 C782 1.561 . S
C785 C782 1.526 . S
C785 C786 1.396 . S
C785 C790 1.390 . S
C786 C780 1.465 . S
C786 C785 1.396 . S
C786 C787 1.399 . S
C787 H773 0.929 . S
C787 C786 1.399 . S
C787 C788 1.385 . S
C788 H774 0.931 . S
C788 C787 1.385 . S
C788 C789 1.389 . S
C789 C788 1.389 . S
C789 C790 1.387 . S
C790 H775 0.930 . S
C790 C785 1.390 . S
C790 C789 1.387 . S
H791 C803 0.930 . S
H792 C805 0.930 . S
H793 C806 0.930 . S
H794 C810 0.959 . S
H795 C810 0.959 . S
H796 C810 0.961 . S
H797 C811 0.960 . S
H798 C811 0.961 . S
H799 C811 0.959 . S
H800 C814 0.929 . S
H801 C815 0.931 . S
H802 C817 0.930 . S
C803 H791 0.930 . S
C803 C804 1.399 . S
C803 C808 1.399 . S
C804 C803 1.399 . S
C804 C805 1.376 . S
C805 H792 0.930 . S
C805 C804 1.376 . S
C805 C806 1.388 . S
C806 H793 0.930 . S
C806 C805 1.388 . S
C806 C807 1.390 . S
C807 C806 1.390 . S
C807 C808 1.394 . S
C807 C813 1.465 . S
C808 C803 1.399 . S
C808 C807 1.394 . S
C808 C809 1.516 . S
C809 C808 1.516 . S
C809 C810 1.502 . S
C809 C811 1.561 . S
C809 C812 1.526 . S
C810 H794 0.959 . S
C810 H795 0.959 . S
C810 H796 0.961 . S
C810 C809 1.502 . S
C811 H797 0.960 . S
C811 H798 0.961 . S
C811 H799 0.959 . S
C811 C809 1.561 . S
C812 C809 1.526 . S
C812 C813 1.396 . S
C812 C817 1.390 . S
C813 C807 1.465 . S
C813 C812 1.396 . S
C813 C814 1.399 . S
C814 H800 0.929 . S
C814 C813 1.399 . S
C814 C815 1.385 . S
C815 H801 0.931 . S
C815 C814 1.385 . S
C815 C816 1.389 . S
C816 C815 1.389 . S
C816 C817 1.387 . S
C817 H802 0.930 . S
C817 C812 1.390 . S
C817 C816 1.387 . S
H818 C830 0.930 . S
H819 C832 0.930 . S
H820 C833 0.930 . S
H821 C837 0.959 . S
H822 C837 0.959 . S
H823 C837 0.961 . S
H824 C838 0.960 . S
H825 C838 0.961 . S
H826 C838 0.959 . S
H827 C841 0.929 . S
H828 C842 0.931 . S
H829 C844 0.930 . S
C830 H818 0.930 . S
C830 C831 1.399 . S
C830 C835 1.399 . S
C831 C830 1.399 . S
C831 C832 1.376 . S
C832 H819 0.930 . S
C832 C831 1.376 . S
C832 C833 1.388 . S
C833 H820 0.930 . S
C833 C832 1.388 . S
C833 C834 1.390 . S
C834 C833 1.390 . S
C834 C835 1.394 . S
C834 C840 1.465 . S
C835 C830 1.399 . S
C835 C834 1.394 . S
C835 C836 1.516 . S
C836 C835 1.516 . S
C836 C837 1.502 . S
C836 C838 1.561 . S
C836 C839 1.526 . S
C837 H821 0.959 . S
C837 H822 0.959 . S
C837 H823 0.961 . S
C837 C836 1.502 . S
C838 H824 0.960 . S
C838 H825 0.961 . S
C838 H826 0.959 . S
C838 C836 1.561 . S
C839 C836 1.526 . S
C839 C840 1.396 . S
C839 C844 1.390 . S
C840 C834 1.465 . S
C840 C839 1.396 . S
C840 C841 1.399 . S
C841 H827 0.929 . S
C841 C840 1.399 . S
C841 C842 1.385 . S
C842 H828 0.931 . S
C842 C841 1.385 . S
C842 C843 1.389 . S
C843 C842 1.389 . S
C843 C844 1.387 . S
C844 H829 0.930 . S
C844 C839 1.390 . S
C844 C843 1.387 . S
H845 C857 0.930 . S
H846 C859 0.930 . S
H847 C860 0.930 . S
H848 C864 0.959 . S
H849 C864 0.959 . S
H850 C864 0.961 . S
H851 C865 0.960 . S
H852 C865 0.961 . S
H853 C865 0.959 . S
H854 C868 0.929 . S
H855 C869 0.931 . S
H856 C871 0.930 . S
C857 H845 0.930 . S
C857 C858 1.399 . S
C857 C862 1.399 . S
C858 C857 1.399 . S
C858 C859 1.376 . S
C859 H846 0.930 . S
C859 C858 1.376 . S
C859 C860 1.388 . S
C860 H847 0.930 . S
C860 C859 1.388 . S
C860 C861 1.390 . S
C861 C860 1.390 . S
C861 C862 1.394 . S
C861 C867 1.465 . S
C862 C857 1.399 . S
C862 C861 1.394 . S
C862 C863 1.516 . S
C863 C862 1.516 . S
C863 C864 1.502 . S
C863 C865 1.561 . S
C863 C866 1.526 . S
C864 H848 0.959 . S
C864 H849 0.959 . S
C864 H850 0.961 . S
C864 C863 1.502 . S
C865 H851 0.960 . S
C865 H852 0.961 . S
C865 H853 0.959 . S
C865 C863 1.561 . S
C866 C863 1.526 . S
C866 C867 1.396 . S
C866 C871 1.390 . S
C867 C861 1.465 . S
C867 C866 1.396 . S
C867 C868 1.399 . S
C868 H854 0.929 . S
C868 C867 1.399 . S
C868 C869 1.385 . S
C869 H855 0.931 . S
C869 C868 1.385 . S
C869 C870 1.389 . S
C870 C869 1.389 . S
C870 C871 1.387 . S
C871 H856 0.930 . S
C871 C866 1.390 . S
C871 C870 1.387 . S
H872 C884 0.930 . S
H873 C886 0.930 . S
H874 C887 0.930 . S
H875 C891 0.959 . S
H876 C891 0.959 . S
H877 C891 0.961 . S
H878 C892 0.960 . S
H879 C892 0.961 . S
H880 C892 0.959 . S
H881 C895 0.929 . S
H882 C896 0.931 . S
H883 C898 0.930 . S
C884 H872 0.930 . S
C884 C885 1.399 . S
C884 C889 1.399 . S
C885 C884 1.399 . S
C885 C886 1.376 . S
C886 H873 0.930 . S
C886 C885 1.376 . S
C886 C887 1.388 . S
C887 H874 0.930 . S
C887 C886 1.388 . S
C887 C888 1.390 . S
C888 C887 1.390 . S
C888 C889 1.394 . S
C888 C894 1.465 . S
C889 C884 1.399 . S
C889 C888 1.394 . S
C889 C890 1.516 . S
C890 C889 1.516 . S
C890 C891 1.502 . S
C890 C892 1.561 . S
C890 C893 1.526 . S
C891 H875 0.959 . S
C891 H876 0.959 . S
C891 H877 0.961 . S
C891 C890 1.502 . S
C892 H878 0.960 . S
C892 H879 0.961 . S
C892 H880 0.959 . S
C892 C890 1.561 . S
C893 C890 1.526 . S
C893 C894 1.396 . S
C893 C898 1.390 . S
C894 C888 1.465 . S
C894 C893 1.396 . S
C894 C895 1.399 . S
C895 H881 0.929 . S
C895 C894 1.399 . S
C895 C896 1.385 . S
C896 H882 0.931 . S
C896 C895 1.385 . S
C896 C897 1.389 . S
C897 C896 1.389 . S
C897 C898 1.387 . S
C898 H883 0.930 . S
C898 C893 1.390 . S
C898 C897 1.387 . S
H899 C911 0.930 . S
H900 C913 0.930 . S
H901 C914 0.930 . S
H902 C918 0.959 . S
H903 C918 0.959 . S
H904 C918 0.961 . S
H905 C919 0.960 . S
H906 C919 0.961 . S
H907 C919 0.959 . S
H908 C922 0.929 . S
H909 C923 0.931 . S
H910 C925 0.930 . S
C911 H899 0.930 . S
C911 C912 1.399 . S
C911 C916 1.399 . S
C912 C911 1.399 . S
C912 C913 1.376 . S
C913 H900 0.930 . S
C913 C912 1.376 . S
C913 C914 1.388 . S
C914 H901 0.930 . S
C914 C913 1.388 . S
C914 C915 1.390 . S
C915 C914 1.390 . S
C915 C916 1.394 . S
C915 C921 1.465 . S
C916 C911 1.399 . S
C916 C915 1.394 . S
C916 C917 1.516 . S
C917 C916 1.516 . S
C917 C918 1.502 . S
C917 C919 1.561 . S
C917 C920 1.526 . S
C918 H902 0.959 . S
C918 H903 0.959 . S
C918 H904 0.961 . S
C918 C917 1.502 . S
C919 H905 0.960 . S
C919 H906 0.961 . S
C919 H907 0.959 . S
C919 C917 1.561 . S
C920 C917 1.526 . S
C920 C921 1.396 . S
C920 C925 1.390 . S
C921 C915 1.465 . S
C921 C920 1.396 . S
C921 C922 1.399 . S
C922 H908 0.929 . S
C922 C921 1.399 . S
C922 C923 1.385 . S
C923 H909 0.931 . S
C923 C922 1.385 . S
C923 C924 1.389 . S
C924 C923 1.389 . S
C924 C925 1.387 . S
C925 H910 0.930 . S
C925 C920 1.390 . S
C925 C924 1.387 . S
H926 C938 0.930 . S
H927 C940 0.930 . S
H928 C941 0.930 . S
H929 C945 0.959 . S
H930 C945 0.959 . S
H931 C945 0.961 . S
H932 C946 0.960 . S
H933 C946 0.961 . S
H934 C946 0.959 . S
H935 C949 0.929 . S
H936 C950 0.931 . S
H937 C952 0.930 . S
C938 H926 0.930 . S
C938 C939 1.399 . S
C938 C943 1.399 . S
C939 C938 1.399 . S
C939 C940 1.376 . S
C940 H927 0.930 . S
C940 C939 1.376 . S
C940 C941 1.388 . S
C941 H928 0.930 . S
C941 C940 1.388 . S
C941 C942 1.390 . S
C942 C941 1.390 . S
C942 C943 1.394 . S
C942 C948 1.465 . S
C943 C938 1.399 . S
C943 C942 1.394 . S
C943 C944 1.516 . S
C944 C943 1.516 . S
C944 C945 1.502 . S
C944 C946 1.561 . S
C944 C947 1.526 . S
C945 H929 0.959 . S
C945 H930 0.959 . S
C945 H931 0.961 . S
C945 C944 1.502 . S
C946 H932 0.960 . S
C946 H933 0.961 . S
C946 H934 0.959 . S
C946 C944 1.561 . S
C947 C944 1.526 . S
C947 C948 1.396 . S
C947 C952 1.390 . S
C948 C942 1.465 . S
C948 C947 1.396 . S
C948 C949 1.399 . S
C949 H935 0.929 . S
C949 C948 1.399 . S
C949 C950 1.385 . S
C950 H936 0.931 . S
C950 C949 1.385 . S
C950 C951 1.389 . S
C951 C950 1.389 . S
C951 C952 1.387 . S
C952 H937 0.930 . S
C952 C947 1.390 . S
C952 C951 1.387 . S
H953 C965 0.930 . S
H954 C967 0.930 . S
H955 C968 0.930 . S
H956 C972 0.988 . S
H957 C972 1.020 . S
H958 C972 0.890 1_556 S
H959 C973 0.960 . S
H960 C973 0.961 1_554 S
H961 C973 0.959 . S
H962 C976 0.929 . S
H963 C977 0.931 . S
H964 C979 0.930 . S
C965 H953 0.930 . S
C965 C966 1.399 . S
C965 C970 1.399 . S
C966 C965 1.399 . S
C966 C967 1.376 . S
C967 H954 0.930 . S
C967 C966 1.376 . S
C967 C968 1.388 . S
C968 H955 0.930 . S
C968 C967 1.388 . S
C968 C969 1.390 . S
C969 C968 1.390 . S
C969 C970 1.394 . S
C969 C975 1.465 1_556 S
C970 C965 1.399 . S
C970 C969 1.394 . S
C970 C971 1.516 . S
C971 C970 1.516 . S
C971 C972 1.492 1_556 S
C971 C973 1.561 . S
C971 C974 1.526 1_556 S
C972 H956 0.988 . S
C972 H957 1.020 . S
C972 H958 0.890 1_554 S
C972 C971 1.492 1_554 S
C973 H959 0.960 . S
C973 H960 0.961 1_556 S
C973 H961 0.959 . S
C973 C971 1.561 . S
C974 C971 1.526 1_554 S
C974 C975 1.396 . S
C974 C979 1.390 . S
C975 C969 1.465 1_554 S
C975 C974 1.396 . S
C975 C976 1.399 . S
C976 H962 0.929 . S
C976 C975 1.399 . S
C976 C977 1.385 . S
C977 H963 0.931 . S
C977 C976 1.385 . S
C977 C978 1.389 . S
C978 C977 1.389 . S
C978 C979 1.387 . S
C979 H964 0.930 . S
C979 C974 1.390 . S
C979 C978 1.387 . S
H980 C992 0.930 . S
H981 C994 0.930 . S
H982 C995 0.930 . S
H983 C999 0.959 . S
H984 C999 0.959 . S
H985 C999 0.941 1_554 S
H986 C1000 0.960 1_554 S
H987 C1000 0.961 . S
H988 C1000 0.959 . S
H989 C1003 0.929 . S
H990 C1004 0.931 . S
H991 C1006 0.930 . S
C992 H980 0.930 . S
C992 C993 1.399 . S
C992 C997 1.399 . S
C993 C992 1.399 . S
C993 C994 1.376 . S
C994 H981 0.930 . S
C994 C993 1.376 . S
C994 C995 1.388 . S
C995 H982 0.930 . S
C995 C994 1.388 . S
C995 C996 1.390 . S
C996 C995 1.390 . S
C996 C997 1.394 . S
C996 C1002 1.465 1_554 S
C997 C992 1.399 . S
C997 C996 1.394 . S
C997 C998 1.516 1_554 S
C998 C997 1.516 1_556 S
C998 C999 1.502 . S
C998 C1000 1.561 . S
C998 C1001 1.526 . S
C999 H983 0.959 . S
C999 H984 0.959 . S
C999 H985 0.941 1_556 S
C999 C998 1.502 . S
C1000 H986 0.960 1_556 S
C1000 H987 0.961 . S
C1000 H988 0.959 . S
C1000 C998 1.561 . S
C1001 C998 1.526 . S
C1001 C1002 1.396 . S
C1001 C1006 1.390 . S
C1002 C996 1.465 1_556 S
C1002 C1001 1.396 . S
C1002 C1003 1.399 . S
C1003 H989 0.929 . S
C1003 C1002 1.399 . S
C1003 C1004 1.385 . S
C1004 H990 0.931 . S
C1004 C1003 1.385 . S
C1004 C1005 1.389 . S
C1005 C1004 1.389 . S
C1005 C1006 1.387 . S
C1006 H991 0.930 . S
C1006 C1001 1.390 . S
C1006 C1005 1.387 . S
H1007 C1019 0.930 . S
H1008 C1021 0.930 . S
H1009 C1022 0.930 . S
H1010 C1026 0.959 . S
H1011 C1026 0.959 . S
H1012 C1026 0.961 . S
H1013 C1027 0.960 . S
H1014 C1027 0.961 . S
H1015 C1027 0.959 . S
H1016 C1030 0.929 . S
H1017 C1031 0.931 . S
H1018 C1033 0.930 . S
C1019 H1007 0.930 . S
C1019 C1020 1.399 . S
C1019 C1024 1.399 . S
C1020 C1019 1.399 . S
C1020 C1021 1.376 . S
C1021 H1008 0.930 . S
C1021 C1020 1.376 . S
C1021 C1022 1.388 . S
C1022 H1009 0.930 . S
C1022 C1021 1.388 . S
C1022 C1023 1.390 . S
C1023 C1022 1.390 . S
C1023 C1024 1.394 . S
C1023 C1029 1.465 . S
C1024 C1019 1.399 . S
C1024 C1023 1.394 . S
C1024 C1025 1.516 . S
C1025 C1024 1.516 . S
C1025 C1026 1.502 . S
C1025 C1027 1.561 . S
C1025 C1028 1.526 . S
C1026 H1010 0.959 . S
C1026 H1011 0.959 . S
C1026 H1012 0.961 . S
C1026 C1025 1.502 . S
C1027 H1013 0.960 . S
C1027 H1014 0.961 . S
C1027 H1015 0.959 . S
C1027 C1025 1.561 . S
C1028 C1025 1.526 . S
C1028 C1029 1.396 . S
C1028 C1033 1.390 . S
C1029 C1023 1.465 . S
C1029 C1028 1.396 . S
C1029 C1030 1.399 . S
C1030 H1016 0.929 . S
C1030 C1029 1.399 . S
C1030 C1031 1.385 . S
C1031 H1017 0.931 . S
C1031 C1030 1.385 . S
C1031 C1032 1.389 . S
C1032 C1031 1.389 . S
C1032 C1033 1.387 . S
C1033 H1018 0.930 . S
C1033 C1028 1.390 . S
C1033 C1032 1.387 . S
H1034 C1046 0.930 . S
H1035 C1048 0.930 . S
H1036 C1049 0.930 . S
H1037 C1053 0.959 . S
H1038 C1053 0.959 . S
H1039 C1053 0.961 . S
H1040 C1054 0.960 . S
H1041 C1054 0.961 . S
H1042 C1054 0.959 . S
H1043 C1057 0.929 . S
H1044 C1058 0.931 . S
H1045 C1060 0.930 . S
C1046 H1034 0.930 . S
C1046 C1047 1.399 . S
C1046 C1051 1.399 . S
C1047 C1046 1.399 . S
C1047 C1048 1.376 . S
C1048 H1035 0.930 . S
C1048 C1047 1.376 . S
C1048 C1049 1.388 . S
C1049 H1036 0.930 . S
C1049 C1048 1.388 . S
C1049 C1050 1.390 . S
C1050 C1049 1.390 . S
C1050 C1051 1.394 . S
C1050 C1056 1.465 . S
C1051 C1046 1.399 . S
C1051 C1050 1.394 . S
C1051 C1052 1.516 . S
C1052 C1051 1.516 . S
C1052 C1053 1.502 . S
C1052 C1054 1.561 . S
C1052 C1055 1.526 . S
C1053 H1037 0.959 . S
C1053 H1038 0.959 . S
C1053 H1039 0.961 . S
C1053 C1052 1.502 . S
C1054 H1040 0.960 . S
C1054 H1041 0.961 . S
C1054 H1042 0.959 . S
C1054 C1052 1.561 . S
C1055 C1052 1.526 . S
C1055 C1056 1.396 . S
C1055 C1060 1.390 . S
C1056 C1050 1.465 . S
C1056 C1055 1.396 . S
C1056 C1057 1.399 . S
C1057 H1043 0.929 . S
C1057 C1056 1.399 . S
C1057 C1058 1.385 . S
C1058 H1044 0.931 . S
C1058 C1057 1.385 . S
C1058 C1059 1.389 . S
C1059 C1058 1.389 . S
C1059 C1060 1.387 . S
C1060 H1045 0.930 . S
C1060 C1055 1.390 . S
C1060 C1059 1.387 . S
H1061 C1073 0.930 . S
H1062 C1075 0.930 . S
H1063 C1076 0.930 . S
H1064 C1080 0.959 . S
H1065 C1080 0.959 . S
H1066 C1080 0.961 . S
H1067 C1081 0.960 . S
H1068 C1081 0.961 . S
H1069 C1081 0.959 . S
H1070 C1084 0.929 . S
H1071 C1085 0.931 . S
H1072 C1087 0.930 . S
C1073 H1061 0.930 . S
C1073 C1074 1.399 . S
C1073 C1078 1.399 . S
C1074 C1073 1.399 . S
C1074 C1075 1.376 . S
C1075 H1062 0.930 . S
C1075 C1074 1.376 . S
C1075 C1076 1.388 . S
C1076 H1063 0.930 . S
C1076 C1075 1.388 . S
C1076 C1077 1.390 . S
C1077 C1076 1.390 . S
C1077 C1078 1.394 . S
C1077 C1083 1.465 . S
C1078 C1073 1.399 . S
C1078 C1077 1.394 . S
C1078 C1079 1.516 . S
C1079 C1078 1.516 . S
C1079 C1080 1.502 . S
C1079 C1081 1.561 . S
C1079 C1082 1.526 . S
C1080 H1064 0.959 . S
C1080 H1065 0.959 . S
C1080 H1066 0.961 . S
C1080 C1079 1.502 . S
C1081 H1067 0.960 . S
C1081 H1068 0.961 . S
C1081 H1069 0.959 . S
C1081 C1079 1.561 . S
C1082 C1079 1.526 . S
C1082 C1083 1.396 . S
C1082 C1087 1.390 . S
C1083 C1077 1.465 . S
C1083 C1082 1.396 . S
C1083 C1084 1.399 . S
C1084 H1070 0.929 . S
C1084 C1083 1.399 . S
C1084 C1085 1.385 . S
C1085 H1071 0.931 . S
C1085 C1084 1.385 . S
C1085 C1086 1.389 . S
C1086 C1085 1.389 . S
C1086 C1087 1.387 . S
C1087 H1072 0.930 . S
C1087 C1082 1.390 . S
C1087 C1086 1.387 . S
C237 C148 1.595 . S
C249 C8 1.585 . S
C264 C22 1.574 . S
C276 C162 1.593 . S
C291 C120 1.598 . S
C303 C36 1.582 . S
C318 C134 1.574 . S
C330 C50 1.595 . S
C345 C64 1.600 . S
C357 C204 1.579 . S
C372 C218 1.598 . S
C384 C78 1.582 . S
C399 C92 1.589 . S
C411 C176 1.578 . S
C426 C190 1.575 . S
C438 C106 1.593 . S
C453 C149 1.490 . S
C465 C9 1.463 . S
C480 C23 1.468 . S
C492 C163 1.484 . S
C507 C37 1.481 . S
C519 C121 1.478 . S
C534 C51 1.490 . S
C546 C135 1.468 . S
C561 C65 1.480 . S
C573 C205 1.473 . S
C588 C79 1.462 . S
C600 C219 1.491 . S
C615 C177 1.485 . S
C627 C93 1.473 . S
C642 C191 1.489 . S
C654 C107 1.468 . S
C669 C7 1.259 . S
C681 C91 1.268 . S
C696 C21 1.239 . S
C708 C105 1.291 . S
C723 C35 1.251 . S
C735 C63 1.290 . S
C750 C49 1.292 . S
C762 C77 1.249 . S
C777 C119 1.245 . S
C789 C203 1.294 . S
C804 C217 1.240 . S
C816 C133 1.289 . S
C831 C147 1.279 . S
C843 C175 1.249 . S
C858 C189 1.239 . S
C870 C161 1.290 . S
C885 C3 1.264 . S
C897 C213 1.210 . S
C912 C171 1.198 . S
C924 C17 1.196 . S
C939 C185 1.253 . S
C951 C31 1.186 . S
C966 C199 1.198 . S
C978 C45 1.195 . S
C993 C129 1.248 . S
C1005 C59 1.182 . S
C1020 C143 1.197 . S
C1032 C73 1.197 . S
C1047 C87 1.208 . S
C1059 C157 1.188 . S
C1074 C101 1.253 . S
C1086 C115 1.185 . S
