# Generated by pormake.
# Topology snz, (6)-cn, num edge types: 1
# Building blocks:
#     Node 0, Type 0, BuildingBlock: JUFBIX_clean_sbu_0, # of connection points: 6
#     Node 1, Type 0, BuildingBlock: JUFBIX_clean_sbu_0, # of connection points: 6
#     Node 2, Type 0, BuildingBlock: JUFBIX_clean_sbu_0, # of connection points: 6
#     Node 3, Type 0, BuildingBlock: JUFBIX_clean_sbu_0, # of connection points: 6
#     Node 4, Type 0, BuildingBlock: JUFBIX_clean_sbu_0, # of connection points: 6
#     Node 5, Type 0, BuildingBlock: JUFBIX_clean_sbu_0, # of connection points: 6
#     Node 6, Type 0, BuildingBlock: JUFBIX_clean_sbu_0, # of connection points: 6
#     Node 7, Type 0, BuildingBlock: JUFBIX_clean_sbu_0, # of connection points: 6
#     Node 8, Type 0, BuildingBlock: JUFBIX_clean_sbu_0, # of connection points: 6
#     Edge 9, Type (0, 0), BuildingBlock: EZIPEK_clean_linker_0, # of connection points: 2
#     Edge 10, Type (0, 0), BuildingBlock: EZIPEK_clean_linker_0, # of connection points: 2
#     Edge 11, Type (0, 0), BuildingBlock: EZIPEK_clean_linker_0, # of connection points: 2
#     Edge 12, Type (0, 0), BuildingBlock: EZIPEK_clean_linker_0, # of connection points: 2
#     Edge 13, Type (0, 0), BuildingBlock: EZIPEK_clean_linker_0, # of connection points: 2
#     Edge 14, Type (0, 0), BuildingBlock: EZIPEK_clean_linker_0, # of connection points: 2
#     Edge 15, Type (0, 0), BuildingBlock: EZIPEK_clean_linker_0, # of connection points: 2
#     Edge 16, Type (0, 0), BuildingBlock: EZIPEK_clean_linker_0, # of connection points: 2
#     Edge 17, Type (0, 0), BuildingBlock: EZIPEK_clean_linker_0, # of connection points: 2
#     Edge 18, Type (0, 0), BuildingBlock: EZIPEK_clean_linker_0, # of connection points: 2
#     Edge 19, Type (0, 0), BuildingBlock: EZIPEK_clean_linker_0, # of connection points: 2
#     Edge 20, Type (0, 0), BuildingBlock: EZIPEK_clean_linker_0, # of connection points: 2
#     Edge 21, Type (0, 0), BuildingBlock: EZIPEK_clean_linker_0, # of connection points: 2
#     Edge 22, Type (0, 0), BuildingBlock: EZIPEK_clean_linker_0, # of connection points: 2
#     Edge 23, Type (0, 0), BuildingBlock: EZIPEK_clean_linker_0, # of connection points: 2
#     Edge 24, Type (0, 0), BuildingBlock: EZIPEK_clean_linker_0, # of connection points: 2
#     Edge 25, Type (0, 0), BuildingBlock: EZIPEK_clean_linker_0, # of connection points: 2
#     Edge 26, Type (0, 0), BuildingBlock: EZIPEK_clean_linker_0, # of connection points: 2
#     Edge 27, Type (0, 0), BuildingBlock: EZIPEK_clean_linker_0, # of connection points: 2
#     Edge 28, Type (0, 0), BuildingBlock: EZIPEK_clean_linker_0, # of connection points: 2
#     Edge 29, Type (0, 0), BuildingBlock: EZIPEK_clean_linker_0, # of connection points: 2
#     Edge 30, Type (0, 0), BuildingBlock: EZIPEK_clean_linker_0, # of connection points: 2
#     Edge 31, Type (0, 0), BuildingBlock: EZIPEK_clean_linker_0, # of connection points: 2
#     Edge 32, Type (0, 0), BuildingBlock: EZIPEK_clean_linker_0, # of connection points: 2
#     Edge 33, Type (0, 0), BuildingBlock: EZIPEK_clean_linker_0, # of connection points: 2
#     Edge 34, Type (0, 0), BuildingBlock: EZIPEK_clean_linker_0, # of connection points: 2
#     Edge 35, Type (0, 0), BuildingBlock: EZIPEK_clean_linker_0, # of connection points: 2
# Relax obj value: 0.372
# Max RMSD: 0.288
# Mean RMSD: 0.227
data_MOF--net-snz--node1-JUFBIX_clean_sbu_0--edge1-EZIPEK_clean_linker_0
_symmetry_space_group_name_H-M    P1
_symmetry_Int_Tables_number       1
_symmetry_cell_setting            triclinic
loop_
_symmetry_equiv_pos_as_xyz
'x, y, z'
_cell_length_a     40.263017
_cell_length_b     44.313349
_cell_length_c     10.720587
_cell_angle_alpha  89.785223
_cell_angle_beta   89.505488
_cell_angle_gamma 119.74391
loop_
_atom_site_label
_atom_site_type_symbol
_atom_site_fract_x
_atom_site_fract_y
_atom_site_fract_z
_atom_type_partial_charge
Co0 Co 0.14699 0.61256 0.83627 0.0
C1 C 0.11132 0.58096 0.06807 0.0
Co2 Co 0.09751 0.55871 0.82984 0.0
C3 C 0.20932 0.67032 0.95799 0.0
C4 C 0.19635 0.68542 0.78312 0.0
N5 N 0.1868 0.65751 0.85717 0.0
N6 N 0.23199 0.70503 0.95036 0.0
C7 C 0.22418 0.71479 0.84058 0.0
H8 H 0.20787 0.6549 0.0385 0.0
H9 H 0.18268 0.68469 0.69589 0.0
C10 C 0.13193 0.58929 0.59873 0.0
N11 N 0.05716 0.51259 0.80493 0.0
C12 C 0.05299 0.48151 0.84222 0.0
C13 C 1.02909 0.50395 0.72207 0.0
N14 N 1.02225 0.45344 0.79034 0.0
C15 C 1.00863 0.46843 0.71061 0.0
C16 C 0.07782 0.61191 0.80346 0.0
O17 O 0.15541 0.61569 0.66029 0.0
O18 O 0.10664 0.56247 0.65579 0.0
O19 O 0.06272 0.57863 0.808 0.0
O20 O 0.11371 0.63029 0.81505 0.0
O21 O 0.08835 0.55492 0.00414 0.0
H22 H 1.02556 0.52242 0.66562 0.0
H23 H 0.0742 0.48003 0.89875 0.0
O24 O 0.13709 0.6082 0.01304 0.0
O25 O 0.18141 0.59571 0.85778 0.0
O26 O 0.13418 0.54186 0.85532 0.0
C27 C 0.16987 0.56351 0.86937 0.0
H28 H 0.23656 0.74133 0.80719 0.0
H29 H 0.98737 0.45537 0.63992 0.0
Co30 Co 0.64598 0.55492 0.04027 0.0
C31 C 0.64693 0.5878 0.81467 0.0
Co32 Co 0.65102 0.60696 0.05642 0.0
C33 C 0.6141 0.47983 0.01055 0.0
C34 C 0.67036 0.51023 0.93285 0.0
N35 N 0.64406 0.51271 0.00485 0.0
N36 N 0.62089 0.45759 0.94402 0.0
C37 C 0.65628 0.47649 0.89596 0.0
H38 H 0.58675 0.4727 0.05314 0.0
H39 H 0.6966 0.53198 0.8981 0.0
C40 C 0.6508 0.57434 0.28253 0.0
N41 N 0.65301 0.64938 0.09722 0.0
C42 C 0.68459 0.67904 0.13282 0.0
C43 C 0.62396 0.65079 0.15658 0.0
N44 N 0.67649 0.69733 0.21673 0.0
C45 C 0.63828 0.67945 0.23131 0.0
C46 C 0.57471 0.55036 0.06049 0.0
O47 O 0.64628 0.54846 0.21784 0.0
O48 O 0.65418 0.60115 0.22845 0.0
O49 O 0.5961 0.58299 0.07087 0.0
O50 O 0.59077 0.53223 0.04266 0.0
O51 O 0.6481 0.61249 0.8794 0.0
H52 H 0.59442 0.63043 0.15918 0.0
H53 H 0.71343 0.68552 0.10827 0.0
O54 O 0.64585 0.56183 0.86826 0.0
O55 O 0.70122 0.57851 0.03523 0.0
O56 O 0.70572 0.6295 0.04052 0.0
C57 C 0.72226 0.61141 0.03336 0.0
H58 H 0.66983 0.46694 0.83195 0.0
H59 H 0.62205 0.68548 0.29775 0.0
Co60 Co 0.68674 0.04908 0.23303 0.0
C61 C 0.68275 0.08016 0.46427 0.0
Co62 Co 0.66827 0.0884 0.23045 0.0
C63 C 0.73985 0.02098 0.25176 0.0
C64 C 0.68921 0.9958 0.3657 0.0
N65 N 0.70544 1.01902 0.27131 0.0
N66 N 0.7457 1.00059 0.33338 0.0
C67 C 0.71377 0.98501 0.4046 0.0
H68 H 0.76109 0.03863 0.18535 0.0
H69 H 0.66268 0.98959 0.41271 0.0
C70 C 0.67269 0.05816 -0.00114 0.0
N71 N 0.64788 0.11695 0.1998 0.0
C72 C 0.66259 0.15173 0.20804 0.0
C73 C 0.614 0.10528 0.14242 0.0
N74 N 0.63909 0.16178 0.15647 0.0
C75 C 0.60852 0.13261 0.11641 0.0
C76 C 0.74455 0.11762 0.17626 0.0
O77 O 0.68326 0.03964 0.05961 0.0
O78 O 0.66332 0.07772 0.05759 0.0
O79 O 0.71835 0.12514 0.19574 0.0
O80 O 0.7378 0.08686 0.20105 0.0
O81 O 0.67392 0.09943 0.40154 0.0
H82 H 0.59528 0.07876 0.11415 0.0
H83 H 0.69053 0.16936 0.24506 0.0
O84 O 0.68992 0.05898 0.40719 0.0
O85 O 0.63504 1.01163 0.25819 0.0
O86 O 0.61783 0.05121 0.26528 0.0
C87 C 0.60902 1.01959 0.27196 0.0
H88 H 0.70916 0.96792 0.48333 0.0
H89 H 0.58476 0.13151 0.06587 0.0
Co90 Co 0.93312 0.97059 0.51497 0.0
C91 C 0.89307 0.93958 0.74174 0.0
Co92 Co 0.88239 0.91773 0.49986 0.0
C93 C 0.97175 0.0435 0.58403 0.0
C94 C 1.01275 0.02816 0.5346 0.0
N95 N 0.97472 1.01562 0.54641 0.0
N96 N 1.00599 0.07278 0.5943 0.0
C97 C 1.032 0.06316 0.56436 0.0
H98 H 0.94492 0.0427 0.60332 0.0
H99 H 1.02568 1.01303 0.50451 0.0
C100 C 0.92132 0.94983 0.27316 0.0
N101 N 0.83798 0.87592 0.45516 0.0
C102 C 0.81715 0.84211 0.49266 0.0
C103 C 0.82039 0.87716 0.34947 0.0
N104 N 0.78847 0.82306 0.41156 0.0
C105 C 0.7911 0.84534 0.32207 0.0
C106 C 0.86574 0.97176 0.47076 0.0
O107 O 0.94512 0.97537 0.33789 0.0
O108 O 0.89555 0.92346 0.32977 0.0
O109 O 0.85374 0.9396 0.47467 0.0
O110 O 0.90119 0.99175 0.48739 0.0
O111 O 0.87017 0.91355 0.67583 0.0
H112 H 0.8284 0.90009 0.29302 0.0
H113 H 0.82284 0.83177 0.5763 0.0
O114 O 0.92079 0.96559 0.68738 0.0
O115 O 0.96347 0.94667 0.5446 0.0
O116 O 0.91143 0.89538 0.52506 0.0
C117 C 0.94718 0.91317 0.54655 0.0
H118 H 0.06265 0.08041 0.56142 0.0
H119 H 0.77238 0.83896 0.24266 0.0
Co120 Co 0.37148 0.90579 0.38566 0.0
C121 C 0.37407 0.93509 0.15233 0.0
Co122 Co 0.38351 0.96027 0.38623 0.0
C123 C 0.33144 0.83693 0.29397 0.0
C124 C 0.3689 0.8401 0.44006 0.0
N125 N 0.35703 0.85921 0.37573 0.0
N126 N 0.32715 0.80498 0.30335 0.0
C127 C 0.35036 0.80646 0.39559 0.0
H128 H 0.31642 0.844 0.2271 0.0
H129 H 0.38997 0.85007 0.51307 0.0
C130 C 0.38183 0.9324 0.61875 0.0
N131 N 0.39765 1.00713 0.39401 0.0
C132 C 0.39013 0.0245 0.48337 0.0
C133 C 0.42178 0.03205 0.31341 0.0
N134 N 0.40903 0.05914 0.46168 0.0
C135 C 0.42874 0.06398 0.35464 0.0
C136 C 0.3066 0.9139 0.41497 0.0
O137 O 0.3764 0.90536 0.56073 0.0
O138 O 0.3854 0.95853 0.55894 0.0
O139 O 0.32993 0.94634 0.40013 0.0
O140 O 0.31935 0.89286 0.4089 0.0
O141 O 0.38117 0.96196 0.21307 0.0
H142 H 0.43466 0.02746 0.23205 0.0
H143 H 0.37256 1.01229 0.56533 0.0
O144 O 0.3674 0.90748 0.20944 0.0
O145 O 0.42325 0.91826 0.36491 0.0
O146 O 0.43723 0.97288 0.37291 0.0
C147 C 0.448 0.95031 0.36154 0.0
H148 H 0.35409 0.78506 0.42642 0.0
H149 H 0.44781 0.08898 0.3119 0.0
Co150 Co 0.33886 0.42472 0.12749 0.0
C151 C 0.3389 0.45265 0.35745 0.0
Co152 Co 0.33167 0.47113 0.12121 0.0
C153 C 0.33961 0.36617 0.24037 0.0
C154 C 0.37041 0.38061 0.06681 0.0
N155 N 0.34767 0.38748 0.14072 0.0
N156 N 0.35734 0.34728 0.23374 0.0
C157 C 0.37659 0.35597 0.12435 0.0
H158 H 0.32405 0.36665 0.32189 0.0
H159 H 0.38409 0.39462 -0.01837 0.0
C160 C 0.33186 0.44244 0.89208 0.0
N161 N 0.32128 0.5083 0.09857 0.0
C162 C 0.28635 0.50536 0.07987 0.0
C163 C 0.34619 0.54111 0.06045 0.0
N164 N 0.28864 0.53433 0.02968 0.0
C165 C 0.32631 0.55702 0.01797 0.0
C166 C 0.40817 0.48812 0.10505 0.0
O167 O 0.33288 0.41859 0.95476 0.0
O168 O 0.33122 0.46736 0.94732 0.0
O169 O 0.38697 0.50196 0.11551 0.0
O170 O 0.39225 0.45513 0.10214 0.0
O171 O 0.33228 0.47413 0.29828 0.0
H172 H 0.37686 0.55225 0.05589 0.0
H173 H 0.2593 0.48184 0.09448 0.0
O174 O 0.34548 0.43151 0.29828 0.0
O175 O 0.28476 0.39442 0.15915 0.0
O176 O 0.27799 0.43975 0.13187 0.0
C177 C 0.26357 0.40823 0.16472 0.0
H178 H 0.39585 0.34703 0.09299 0.0
H179 H 0.33852 0.58291 0.97825 0.0
Co180 Co 0.51539 0.25016 0.74865 0.0
C181 C 0.44912 0.18596 0.70807 0.0
Co182 Co 0.46176 0.25217 0.74497 0.0
C183 C 0.58065 0.25374 0.86848 0.0
C184 C 0.56609 0.22394 0.70065 0.0
N185 N 0.55792 0.24515 0.76773 0.0
N186 N 0.60049 0.23663 0.87135 0.0
C187 C 0.59212 0.21854 0.76448 0.0
H188 H 0.57942 0.26901 0.94508 0.0
H189 H 0.55128 0.21051 0.61729 0.0
C190 C 0.52872 0.3163 0.78496 0.0
N191 N 0.41945 0.25738 0.72194 0.0
C192 C 0.4183 0.27951 0.63777 0.0
C193 C 0.38337 0.23896 0.76744 0.0
N194 N 0.38306 0.27525 0.62662 0.0
C195 C 0.36076 0.25 0.7086 0.0
C196 C 0.47839 0.24459 -0.01887 0.0
O197 O 0.54547 0.29856 0.77345 0.0
O198 O 0.49264 0.30146 0.77069 0.0
O199 O 0.45283 0.24658 0.91897 0.0
O200 O 0.50583 0.2439 0.92434 0.0
O201 O 0.43147 0.20294 0.72106 0.0
H202 H 0.37382 0.21792 0.83459 0.0
H203 H 0.44256 0.29747 0.58098 0.0
O204 O 0.48509 0.20154 0.72284 0.0
O205 O 0.52443 0.25627 0.57407 0.0
O206 O 0.4707 0.2574 0.56973 0.0
C207 C 0.49832 0.25738 0.51243 0.0
H208 H 0.6016 0.20032 0.73986 0.0
H209 H 0.33025 0.23941 0.72084 0.0
Co210 Co 0.04377 0.27747 0.69941 0.0
C211 C 1.00493 0.31666 0.72404 0.0
Co212 Co 0.98047 0.24616 0.71223 0.0
C213 C 0.11845 0.31005 0.57333 0.0
C214 C 0.11277 0.34065 0.71645 0.0
N215 N 0.0963 0.30798 0.67315 0.0
N216 N 0.14608 0.34329 0.54728 0.0
C217 C 0.14138 0.36226 0.63676 0.0
H218 H 0.11242 0.288 0.51548 0.0
H219 H 0.10182 0.34918 0.7922 0.0
C220 C 1.0197 0.20738 0.69016 0.0
N221 N 0.92806 0.21678 0.73651 0.0
C222 C 0.90717 0.21443 0.83956 0.0
C223 C 0.90433 0.18938 0.66629 0.0
N224 N 0.87187 0.18635 0.83723 0.0
C225 C 0.86967 0.17068 0.72791 0.0
C226 C 1.00554 0.26052 0.47255 0.0
O227 O 0.05004 0.23705 0.69609 0.0
O228 O 0.98725 0.20598 0.69482 0.0
O229 O 0.97479 0.24692 0.53696 0.0
O230 O 0.03766 0.27466 0.52567 0.0
O231 O 0.9746 0.28699 0.73087 0.0
H232 H 0.91232 0.18246 0.57888 0.0
H233 H 0.91806 0.23203 0.91758 0.0
O234 O 0.03643 0.3175 0.70306 0.0
O235 O 0.04899 0.27979 0.87695 0.0
O236 O 0.9866 0.24557 0.88421 0.0
C237 C 1.01802 0.26278 0.93959 0.0
H238 H 0.15656 0.39035 0.64187 0.0
H239 H 0.84518 0.14682 0.69708 0.0
Co240 Co 0.97806 0.74284 0.69025 0.0
C241 C 0.99995 0.81478 0.6638 0.0
Co242 Co 0.04094 0.7798 0.68381 0.0
C243 C 0.90197 0.69489 0.7934 0.0
C244 C 0.89955 0.71229 0.609 0.0
N245 N 0.92448 0.71401 0.6961 0.0
N246 N 0.86435 0.68177 0.77029 0.0
C247 C 0.86265 0.69253 0.65432 0.0
H248 H 0.91283 0.69196 0.88191 0.0
H249 H 0.90767 0.72602 0.52052 0.0
C250 C 1.02048 0.70849 0.70855 0.0
N251 N 0.09431 0.80865 0.68256 0.0
C252 C 0.11853 0.83003 0.59252 0.0
C253 C 0.11754 0.80971 0.7748 0.0
N254 N 0.1556 0.84389 0.62569 0.0
C255 C 0.155 0.83129 0.74029 0.0
C256 C 1.00895 0.76404 0.92074 0.0
O257 O 0.98611 0.70301 0.71091 0.0
O258 O 0.04771 0.73958 0.69194 0.0
O259 O 0.04019 0.78102 0.86063 0.0
O260 O 0.9779 0.74695 0.8633 0.0
O261 O 1.03377 0.81967 0.67509 0.0
H262 H 0.10811 0.79479 0.86056 0.0
H263 H 0.10938 0.83428 0.50272 0.0
O264 O 0.97186 0.78359 0.66951 0.0
O265 O 0.97871 0.73891 0.5158 0.0
O266 O 0.04019 0.77786 0.50835 0.0
C267 C 1.00913 0.75777 0.45356 0.0
H268 H 0.83667 0.68768 0.60812 0.0
H269 H 0.18002 0.83635 0.79309 0.0
C270 C 0.11334 0.60756 0.40282 0.0
C271 C 0.13035 0.58981 0.46108 0.0
C272 C 0.1274 0.56021 0.26497 0.0
C273 C 0.11165 0.57897 0.20619 0.0
N274 N 0.07704 0.60967 0.227 0.0
N275 N 0.15836 0.55304 0.44755 0.0
C276 C 0.10136 0.59991 0.27714 0.0
C277 C 0.13841 0.56691 0.39219 0.0
N278 N 0.10895 0.63195 0.46715 0.0
N279 N 0.13053 0.53519 0.20028 0.0
H280 H 0.16783 0.55862 0.53928 0.0
H281 H 0.16853 0.53867 0.40079 0.0
H282 H 0.1226 0.52954 0.10742 0.0
H283 H 0.13839 0.51824 0.24001 0.0
H284 H 0.1003 0.64821 0.42607 0.0
H285 H 0.11702 0.6381 0.55969 0.0
H286 H 0.06564 0.62275 0.27591 0.0
H287 H 0.06425 0.60032 0.14089 0.0
C288 C 0.61355 0.56458 0.61421 0.0
C289 C 0.64757 0.58799 0.67676 0.0
C290 C 0.68486 0.59821 0.48292 0.0
C291 C 0.65086 0.57437 0.42086 0.0
N292 N 0.5838 0.53208 0.4268 0.0
N293 N 0.71602 0.6249 0.67773 0.0
C294 C 0.61547 0.55667 0.48671 0.0
C295 C 0.68338 0.60439 0.61276 0.0
N296 N 0.57932 0.55037 0.67731 0.0
N297 N 0.71849 0.61497 0.41657 0.0
H298 H 0.71562 0.63139 0.77091 0.0
H299 H 0.74359 0.63476 0.64193 0.0
H300 H 0.72091 0.60917 0.32382 0.0
H301 H 0.74387 0.63507 0.45109 0.0
H302 H 0.55275 0.53541 0.63663 0.0
H303 H 0.57717 0.55532 0.7711 0.0
H304 H 0.55756 0.51586 0.46971 0.0
H305 H 0.58451 0.52624 0.33345 0.0
C306 C 0.71072 0.0731 0.79709 0.0
C307 C 0.67506 0.06121 0.86035 0.0
C308 C 0.64792 0.07105 0.6698 0.0
C309 C 0.68213 0.07927 0.60312 0.0
N310 N 0.74622 0.08795 0.60148 0.0
N311 N 0.60826 0.04436 0.85299 0.0
C312 C 0.71349 0.08014 0.66651 0.0
C313 C 0.64339 0.05915 0.7955 0.0
N314 N 0.74267 0.07983 0.8625 0.0
N315 N 0.61951 0.07449 0.61414 0.0
H316 H 0.60372 0.03555 0.94503 0.0
H317 H 0.58296 0.03788 0.80689 0.0
H318 H 0.61953 0.08059 0.52052 0.0
H319 H 0.59659 0.07354 0.66327 0.0
H320 H 0.7703 0.09316 0.82535 0.0
H321 H 0.74241 0.07456 0.95713 0.0
H322 H 0.76768 0.08372 0.63607 0.0
H323 H 0.75148 0.0977 0.51036 0.0
C324 C 0.90484 0.97287 0.94166 0.0
C325 C 0.89158 0.94027 0.88209 0.0
C326 C 0.90525 0.91768 0.07204 0.0
C327 C 0.91844 0.95003 0.13357 0.0
N328 N 0.92625 1.00839 0.12183 0.0
N329 N 0.86453 0.87825 0.91951 0.0
C330 C 0.91718 0.97754 0.06764 0.0
C331 C 0.88714 0.91175 0.95513 0.0
N332 N 0.90392 0.99942 0.87949 0.0
N333 N 0.90941 0.89179 0.12606 0.0
H334 H 0.8473 0.87084 0.84084 0.0
H335 H 0.8473 0.87084 0.84084 0.0
H336 H 0.9251 0.8955 0.2072 0.0
H337 H 0.89979 0.86771 0.08376 0.0
H338 H 0.91406 0.02404 0.91787 0.0
H339 H 0.89132 0.99619 0.79222 0.0
H340 H 0.93507 1.01494 0.21358 0.0
H341 H 0.93507 1.01494 0.21358 0.0
C342 C 0.41142 0.9599 0.82115 0.0
C343 C 0.38036 0.93299 0.7554 0.0
C344 C 0.3427 0.91355 0.94837 0.0
C345 C 0.37564 0.93639 0.01562 0.0
N346 N 0.44274 0.97985 0.01901 0.0
N347 N 0.31604 0.88339 0.7563 0.0
C348 C 0.41036 0.95935 0.95302 0.0
C349 C 0.34602 0.90926 0.81911 0.0
N350 N 0.44155 0.98648 0.7585 0.0
N351 N 0.30777 0.89818 0.00663 0.0
H352 H 0.31516 0.88107 0.65969 0.0
H353 H 0.29254 0.86294 0.80112 0.0
H354 H 0.30452 0.90419 0.09806 0.0
H355 H 0.28194 0.8835 0.96095 0.0
H356 H 0.4622 1.00888 0.80201 0.0
H357 H 0.4446 0.98794 0.66192 0.0
H358 H 0.46987 0.99358 0.97816 0.0
H359 H 0.44335 0.98099 0.11596 0.0
C360 C 0.31196 0.41706 0.55306 0.0
C361 C 0.33672 0.44989 0.49452 0.0
C362 C 0.36373 0.47407 0.69617 0.0
C363 C 0.335 0.44339 0.75545 0.0
N364 N 0.28025 0.38586 0.74323 0.0
N365 N 0.38532 0.51033 0.51127 0.0
C366 C 0.30908 0.41464 0.68488 0.0
C367 C 0.36204 0.47874 0.56647 0.0
N368 N 0.29026 0.38829 0.48327 0.0
N369 N 0.39453 0.49736 0.76254 0.0
H370 H 0.38786 0.51438 0.41504 0.0
H371 H 0.40064 0.53312 0.56186 0.0
H372 H 0.39842 0.49255 0.85472 0.0
H373 H 0.41836 0.51861 0.72257 0.0
H374 H 0.27691 0.36302 0.51873 0.0
H375 H 0.2864 0.38931 0.38835 0.0
H376 H 0.25862 0.36482 0.69672 0.0
H377 H 0.27577 0.38375 0.83946 0.0
C378 C 0.48779 0.22331 0.31643 0.0
C379 C 0.49698 0.25522 0.37486 0.0
C380 C 0.48792 0.27837 0.17788 0.0
C381 C 0.4793 0.24665 0.11899 0.0
N382 N 0.46216 0.18664 0.13463 0.0
N383 N 0.5127 0.31495 0.36039 0.0
C384 C 0.47709 0.21854 0.18894 0.0
C385 C 0.49862 0.28318 0.30541 0.0
N386 N 0.48967 0.19774 0.38244 0.0
N387 N 0.48529 0.30367 0.11257 0.0
H388 H 0.52244 0.3194 0.45192 0.0
H389 H 0.51832 0.3376 0.31341 0.0
H390 H 0.47868 0.30177 0.01833 0.0
H391 H 0.48708 0.32574 0.15288 0.0
H392 H 0.48705 0.17526 0.34303 0.0
H393 H 0.49644 0.1998 0.47653 0.0
H394 H 0.45649 0.16394 0.18137 0.0
H395 H 0.45154 0.18225 0.04426 0.0
C396 C 1.00216 0.2852 0.2673 0.0
C397 C 1.005 0.25938 0.33598 0.0
C398 C 1.02273 0.23986 0.14685 0.0
C399 C 1.01678 0.26378 0.07647 0.0
N400 N 0.98863 0.30104 0.06713 0.0
N401 N 1.0071 0.20607 0.33788 0.0
C402 C 1.00293 0.28415 0.13566 0.0
C403 C 1.01219 0.2349 0.2749 0.0
N404 N 0.99931 0.31099 0.32725 0.0
N405 N 0.03807 0.22175 0.09154 0.0
H406 H 0.99746 0.20103 0.43028 0.0
H407 H 1.00841 0.18561 0.29506 0.0
H408 H 0.04566 0.22453 -0.00285 0.0
H409 H 0.04613 0.20624 0.14148 0.0
H410 H 1.00129 0.33254 0.2808 0.0
H411 H 0.99807 0.31222 0.42417 0.0
H412 H 0.97498 0.31347 0.107 0.0
H413 H 0.98684 0.29963 0.97057 0.0
C414 C 1.00387 0.78494 0.25739 0.0
C415 C 1.00763 0.75831 0.31748 0.0
C416 C 1.0053 0.73207 0.11695 0.0
C417 C 1.00872 0.76215 0.05693 0.0
N418 N 1.01645 0.81966 0.07036 0.0
N419 N 1.01627 0.70832 0.30572 0.0
C420 C 1.00985 0.7895 0.12723 0.0
C421 C 1.0097 0.73235 0.2477 0.0
N422 N 0.99222 0.80437 0.32316 0.0
N423 N 0.9965 0.70288 0.05039 0.0
H424 H 1.01912 0.70761 0.40217 0.0
H425 H 1.02195 0.69101 0.25721 0.0
H426 H 0.99193 0.70127 0.95473 0.0
H427 H 0.99027 0.67932 0.09183 0.0
H428 H 0.9856 0.82197 0.28129 0.0
H429 H 0.98485 0.79981 0.41738 0.0
H430 H 1.02085 0.84149 0.12006 0.0
H431 H 1.02083 0.82385 0.97435 0.0
C432 C 0.24991 0.56298 0.06046 0.0
C433 C 0.25728 0.53963 -0.00758 0.0
C434 C 0.20545 0.52941 0.84636 0.0
C435 C 0.19785 0.55277 0.91529 0.0
N436 N 0.20914 0.58767 0.10002 0.0
N437 N 0.24144 0.49866 0.82629 0.0
C438 C 0.21925 0.56852 0.02534 0.0
C439 C 0.23458 0.52205 0.88749 0.0
N440 N 0.27268 0.58009 0.15923 0.0
N441 N 0.18625 0.51574 0.73803 0.0
H442 H 0.26446 0.49503 0.84728 0.0
H443 H 0.22386 0.4819 0.75791 0.0
H444 H 0.16459 0.52011 0.70644 0.0
H445 H 0.19264 0.50138 0.67569 0.0
H446 H 0.27318 0.60124 0.20281 0.0
H447 H 0.29276 0.57411 0.19492 0.0
H448 H 0.22021 0.59653 0.18813 0.0
H449 H 0.18694 0.59233 0.07971 0.0
C450 C 0.73559 0.72776 0.34492 0.0
C451 C 0.70296 0.72679 0.29041 0.0
C452 C 0.72074 0.78187 0.39214 0.0
C453 C 0.75795 0.78738 0.4127 0.0
N454 N 0.80146 0.76487 0.40531 0.0
N455 N 0.66838 0.75736 0.24837 0.0
C456 C 0.76553 0.75991 0.39013 0.0
C457 C 0.69604 0.75476 0.31228 0.0
N458 N 0.7373 0.69799 0.35857 0.0
N459 N 0.71066 0.80462 0.44061 0.0
H460 H 0.65266 0.74035 0.1775 0.0
H461 H 0.66448 0.77886 0.25484 0.0
H462 H 0.72926 0.82509 0.49738 0.0
H463 H 0.68306 0.80094 0.43446 0.0
H464 H 0.75943 0.69716 0.40532 0.0
H465 H 0.71431 0.67367 0.33709 0.0
H466 H 0.80927 0.74675 0.37675 0.0
H467 H 0.82377 0.78785 0.44016 0.0
C468 C 0.54326 0.97597 0.20052 0.0
C469 C 0.56867 0.99309 0.29961 0.0
C470 C 0.51456 0.9745 0.44519 0.0
C471 C 0.48917 0.96124 0.34323 0.0
N472 N 0.47775 0.93887 0.13379 0.0
N473 N 0.57989 0.99946 0.51958 0.0
C474 C 0.50302 0.95856 0.22374 0.0
C475 C 0.55466 0.98951 0.42343 0.0
N476 N 0.55784 0.9772 0.08394 0.0
N477 N 0.50005 0.97222 0.56259 0.0
H478 H 0.6091 1.00908 0.50459 0.0
H479 H 0.57203 0.99582 0.61342 0.0
H480 H 0.47087 0.95722 0.58227 0.0
H481 H 0.51647 0.98478 0.63993 0.0
H482 H 0.54155 0.96944 0.00338 0.0
H483 H 0.58698 0.98675 0.06801 0.0
H484 H 0.48577 0.93341 0.04805 0.0
H485 H 0.4482 0.92583 0.14774 0.0
C486 C 0.6155 0.20196 0.17325 0.0
C487 C 0.64466 0.19579 0.13033 0.0
C488 C 0.65593 0.23484 0.95411 0.0
C489 C 0.61931 0.23107 0.97542 0.0
N490 N 0.56256 0.20885 0.10861 0.0
N491 N 0.69712 0.21025 -0.01128 0.0
C492 C 0.59904 0.21524 0.08838 0.0
C493 C 0.66725 0.21452 0.02575 0.0
N494 N 0.60094 0.19112 0.29045 0.0
N495 N 0.6787 0.25666 0.86149 0.0
H496 H 0.70669 0.19647 0.04217 0.0
H497 H 0.71168 0.21957 0.90411 0.0
H498 H 0.67022 0.27144 0.80843 0.0
H499 H 0.70679 0.26238 0.84552 0.0
H500 H 0.58095 0.19654 0.33159 0.0
H501 H 0.61214 0.17965 0.34952 0.0
H502 H 0.54567 0.19413 0.18382 0.0
H503 H 0.54744 0.21517 0.04596 0.0
C504 C 1.02963 0.37256 0.84942 0.0
C505 C 1.00496 0.34997 0.75488 0.0
C506 C 0.98025 0.39052 0.72696 0.0
C507 C 1.01084 0.4162 0.79833 0.0
N508 N 0.04211 0.41938 -0.00905 0.0
N509 N 0.95675 0.33885 0.60103 0.0
C510 C 1.02977 0.40411 0.8777 0.0
C511 C 0.97999 0.35919 0.69382 0.0
N512 N 0.05267 0.36389 0.91479 0.0
N513 N 0.94846 0.39333 0.70812 0.0
H514 H 0.95517 0.31563 0.57393 0.0
H515 H 0.94134 0.34662 0.54457 0.0
H516 H 0.94438 0.41194 0.75444 0.0
H517 H 0.92391 0.3741 0.66555 0.0
H518 H 0.07506 0.38155 0.96987 0.0
H519 H 0.05028 0.33947 0.91152 0.0
H520 H 0.05328 0.41017 0.0589 0.0
H521 H 1.03498 0.43751 0.02479 0.0
C522 C 0.82069 0.68322 0.93157 0.0
C523 C 0.83263 0.66395 0.85689 0.0
C524 C 0.78081 0.60971 0.94673 0.0
C525 C 0.76459 0.62865 0.00212 0.0
N526 N 0.77995 0.68235 0.10162 0.0
N527 N 0.82472 0.60913 0.79106 0.0
C528 C 0.78776 0.6653 0.01048 0.0
C529 C 0.81306 0.62724 0.8649 0.0
N530 N 0.84015 0.71865 0.92337 0.0
N531 N 0.7679 0.576 -0.01866 0.0
H532 H 0.84888 0.62145 0.73318 0.0
H533 H 0.80908 0.58225 0.78107 0.0
H534 H 0.74904 0.56438 0.05628 0.0
H535 H 0.78012 0.56147 0.94988 0.0
H536 H 0.83064 0.73432 0.96425 0.0
H537 H 0.86497 0.73234 0.86928 0.0
H538 H 0.7969 0.70875 0.11966 0.0
H539 H 0.75909 0.66879 0.16995 0.0
C540 C 1.01645 0.64951 0.66816 0.0
C541 C 1.02997 0.68024 0.74089 0.0
C542 C 0.06499 0.65954 0.87244 0.0
C543 C 0.05575 0.63126 0.79055 0.0
N544 N 1.02545 0.60147 0.60151 0.0
N545 N 0.06997 0.71534 0.9094 0.0
C546 C 1.03167 0.62647 0.68703 0.0
C547 C 0.05489 0.68531 0.84221 0.0
N548 N 0.98958 0.64255 0.57916 0.0
N549 N 0.08299 0.66153 -0.01779 0.0
H550 H 0.06069 0.73336 0.9026 0.0
H551 H 0.09314 0.7233 0.96875 0.0
H552 H 0.0924 0.64434 0.00667 0.0
H553 H 0.08571 0.67831 0.05417 0.0
H554 H 0.97538 0.61898 0.53256 0.0
H555 H 0.97942 0.65944 0.55763 0.0
H556 H 1.01249 0.59937 0.51593 0.0
H557 H 1.03583 0.58426 0.61169 0.0
C558 C 0.59707 0.39527 0.97513 0.0
C559 C 0.59447 0.42208 0.91286 0.0
C560 C 0.54864 0.38007 0.76534 0.0
C561 C 0.55042 0.35281 0.83005 0.0
N562 N 0.56972 0.33376 0.0142 0.0
N563 N 0.56517 0.44088 0.7602 0.0
C564 C 0.57287 0.36022 0.93984 0.0
C565 C 0.56917 0.41464 0.81189 0.0
N566 N 0.6235 0.40364 0.06693 0.0
N567 N 0.52904 0.37329 0.65602 0.0
H568 H 0.58126 0.46664 0.78842 0.0
H569 H 0.54436 0.43701 0.69539 0.0
H570 H 0.51368 0.34849 0.61881 0.0
H571 H 0.52993 0.39239 0.59713 0.0
H572 H 0.63065 0.38606 0.10563 0.0
H573 H 0.64011 0.42898 0.09917 0.0
H574 H 0.58191 0.3375 0.10203 0.0
H575 H 0.55171 0.30767 -0.00517 0.0
C576 C 0.84544 0.15734 0.0416 0.0
C577 C 0.84267 0.1743 0.93328 0.0
C578 C 0.77687 0.15801 -0.01041 0.0
C579 C 0.77965 0.14171 0.10194 0.0
N580 N 0.82023 0.13422 0.24812 0.0
N581 N 0.81074 0.19918 0.82178 0.0
C582 C 0.8152 0.14407 0.13211 0.0
C583 C 0.81001 0.17748 0.91391 0.0
N584 N 0.87627 0.15266 0.05522 0.0
N585 N 0.74241 0.15269 0.9475 0.0
H586 H 0.83464 0.21334 0.7641 0.0
H587 H 0.78938 0.20573 0.81112 0.0
H588 H 0.71643 0.13819 -0.00652 0.0
H589 H 0.73883 0.16012 0.85856 0.0
H590 H 0.87815 0.13723 0.12523 0.0
H591 H 0.89879 0.16218 -0.00942 0.0
H592 H 0.84641 0.13794 0.2794 0.0
H593 H 0.79912 0.1256 0.31765 0.0
C594 C 0.77122 0.96193 0.37964 0.0
C595 C 0.77844 0.99578 0.35188 0.0
C596 C 0.84661 1.01697 0.39336 0.0
C597 C 0.83721 0.9835 0.44262 0.0
N598 N 0.78491 0.93054 0.53314 0.0
N599 N 0.82311 0.05747 0.36632 0.0
C600 C 0.79779 0.9578 0.45101 0.0
C601 C 0.81623 0.02407 0.36768 0.0
N602 N 0.73846 0.9336 0.34093 0.0
N603 N 0.88353 0.04186 0.36844 0.0
H604 H 0.80154 0.06375 0.35736 0.0
H605 H 0.84964 0.07858 0.38851 0.0
H606 H 0.90712 0.03888 0.38423 0.0
H607 H 0.89039 0.06489 0.32125 0.0
H608 H 0.73322 0.90829 0.35558 0.0
H609 H 0.71915 0.93584 0.28261 0.0
H610 H 0.7559 0.91235 0.54373 0.0
H611 H 0.80212 0.92928 0.60286 0.0
C612 C 0.31982 0.76826 0.1214 0.0
C613 C 0.30341 0.77624 0.22452 0.0
C614 C 0.23912 0.73562 0.1492 0.0
C615 C 0.25586 0.72765 0.04671 0.0
N616 N 0.31161 0.73431 0.93779 0.0
N617 N 0.24849 0.76479 0.3486 0.0
C618 C 0.29598 0.74313 0.03459 0.0
C619 C 0.26322 0.75891 0.24213 0.0
N620 N 0.35832 0.78495 0.10163 0.0
N621 N 0.20037 0.72218 0.15364 0.0
H622 H 0.26588 0.78181 0.41722 0.0
H623 H 0.21964 0.75129 0.37351 0.0
H624 H 0.18222 0.70538 0.086 0.0
H625 H 0.18626 0.72913 0.2193 0.0
H626 H 0.37806 0.80429 0.1596 0.0
H627 H 0.37806 0.80429 0.1596 0.0
H628 H 0.34113 0.74533 0.92506 0.0
H629 H 0.29494 0.71557 0.8725 0.0
C630 C 0.5091 0.50489 0.14716 0.0
C631 C 0.53166 0.53449 0.06925 0.0
C632 C 0.47284 0.53742 0.02307 0.0
C633 C 0.45127 0.50872 0.10489 0.0
N634 N 0.45275 0.47506 0.27905 0.0
N635 N 0.53448 0.58035 0.93756 0.0
C636 C 0.47065 0.49548 0.17681 0.0
C637 C 0.51336 0.55131 0.00961 0.0
N638 N 0.52344 0.48487 0.19237 0.0
N639 N 0.45466 0.55074 0.95415 0.0
H640 H 0.56216 0.58834 0.90615 0.0
H641 H 0.5249 0.59728 0.91047 0.0
H642 H 0.42615 0.5437 0.96775 0.0
H643 H 0.46721 0.56781 0.87918 0.0
H644 H 0.50632 0.46084 0.23564 0.0
H645 H 0.55123 0.49 0.17819 0.0
H646 H 0.46665 0.46754 0.34316 0.0
H647 H 0.4255 0.46944 0.30873 0.0
C648 C 1.01048 0.86995 0.54675 0.0
C649 C 0.99255 0.84487 0.64538 0.0
C650 C 0.95144 0.87011 0.69267 0.0
C651 C 0.96723 0.89365 0.58959 0.0
N652 N 1.01635 0.9203 0.43207 0.0
N653 N 0.95421 0.82832 0.83318 0.0
C654 C 0.99851 0.89513 0.52173 0.0
C655 C 0.96536 0.84708 0.72404 0.0
N656 N 0.03766 0.86872 0.47301 0.0
N657 N 0.92249 0.86959 0.76102 0.0
H658 H 0.96423 0.81173 0.86092 0.0
H659 H 0.93796 0.83146 0.90252 0.0
H660 H 0.91554 0.88916 0.7532 0.0
H661 H 0.90487 0.84951 0.82196 0.0
H662 H 0.04913 0.88338 0.39205 0.0
H663 H 0.04767 0.85143 0.48787 0.0
H664 H 0.04151 0.92553 0.3861 0.0
H665 H 1.00718 0.93776 0.40804 0.0
C666 C 0.40843 0.14039 0.54912 0.0
C667 C 0.42992 0.14948 0.66154 0.0
C668 C 0.43327 0.09562 0.64981 0.0
C669 C 0.41135 0.0865 0.53982 0.0
N670 N 0.36995 0.09482 0.40268 0.0
N671 N 0.4541 0.13135 0.83432 0.0
C672 C 0.39606 0.10712 0.49627 0.0
C673 C 0.43932 0.1255 0.71706 0.0
N674 N 0.40259 0.16423 0.48616 0.0
N675 N 0.45036 0.07701 0.68562 0.0
H676 H 0.4589 0.15298 0.88582 0.0
H677 H 0.45812 0.11329 0.8847 0.0
H678 H 0.44681 0.05517 0.63797 0.0
H679 H 0.47036 0.0847 0.75666 0.0
H680 H 0.39159 0.1602 0.39638 0.0
H681 H 0.4117 0.18931 0.517 0.0
H682 H 0.35475 0.10693 0.37395 0.0
H683 H 0.36086 0.07057 0.36244 0.0
C684 C 0.16673 0.34443 0.32114 0.0
C685 C 0.17419 0.35775 0.44536 0.0
C686 C 0.23043 0.40942 0.36353 0.0
C687 C 0.22881 0.39266 0.24886 0.0
N688 N 0.19494 0.34152 0.12294 0.0
N689 N 0.22222 0.39889 0.58419 0.0
C690 C 0.19704 0.35899 0.22961 0.0
C691 C 0.20894 0.38894 0.46627 0.0
N692 N 0.13059 0.32058 0.28638 0.0
N693 N 0.25169 0.44459 0.3766 0.0
H694 H 0.21083 0.38209 0.66071 0.0
H695 H 0.2472 0.422 0.60324 0.0
H696 H 0.2641 0.46173 0.30229 0.0
H697 H 0.25155 0.45705 0.4588 0.0
H698 H 0.12377 0.31194 0.1949 0.0
H699 H 0.10673 0.31351 0.34325 0.0
H700 H 0.17393 0.31571 0.10948 0.0
H701 H 0.21544 0.35245 0.05162 0.0
C702 C 0.3858 0.32821 0.54483 0.0
C703 C 0.37219 0.29218 0.53411 0.0
C704 C 0.3452 0.29205 0.32996 0.0
C705 C 0.3622 0.32861 0.33543 0.0
N706 N 0.40403 0.38254 0.43747 0.0
N707 N 0.344 0.24029 0.41035 0.0
C708 C 0.38383 0.34704 0.44048 0.0
C709 C 0.35296 0.27408 0.42525 0.0
N710 N 0.40043 0.34418 0.65567 0.0
N711 N 0.32119 0.27462 0.23436 0.0
H712 H 0.34973 0.22655 0.47786 0.0
H713 H 0.33361 0.22673 0.32762 0.0
H714 H 0.3154 0.28741 0.16314 0.0
H715 H 0.30486 0.24764 0.23082 0.0
H716 H 0.40777 0.36979 0.67404 0.0
H717 H 0.40203 0.33066 0.73324 0.0
H718 H 0.42318 0.3975 0.50625 0.0
H719 H 0.40439 0.39709 0.36031 0.0
C720 C 1.00014 0.11371 0.73985 0.0
C721 C 1.01267 0.10742 0.6237 0.0
C722 C 0.03876 0.16915 0.56682 0.0
C723 C 1.02121 0.17426 0.67459 0.0
N724 N 0.98408 0.15056 0.86396 0.0
N725 N 0.03747 0.12778 0.41684 0.0
C726 C 1.00149 0.1462 0.76106 0.0
C727 C 1.03062 0.13488 0.53508 0.0
N728 N 0.9883 0.08895 0.83171 0.0
N729 N 0.06304 0.19678 0.49343 0.0
H730 H 1.03022 0.10282 0.38824 0.0
H731 H 0.04649 0.14581 0.34382 0.0
H732 H 0.0686 0.22206 0.50794 0.0
H733 H 0.07983 0.19496 0.42262 0.0
H734 H 0.98206 0.09277 0.92276 0.0
H735 H 0.98813 0.06552 0.81967 0.0
H736 H 0.96525 0.13015 0.92174 0.0
H737 H 0.98715 0.17452 0.88899 0.0
C738 C 0.21576 0.89863 0.59001 0.0
C739 C 0.18987 0.8644 0.55223 0.0
C740 C 0.23713 0.86764 0.39939 0.0
C741 C 0.2654 0.89976 0.45124 0.0
N742 N 0.28198 0.94221 0.61591 0.0
N743 N 0.17714 0.81418 0.43218 0.0
C744 C 0.25477 0.91474 0.55057 0.0
C745 C 0.20068 0.84846 0.45869 0.0
N746 N 0.20296 0.91534 0.6664 0.0
N747 N 0.24498 0.85532 0.29322 0.0
H748 H 0.15028 0.79928 0.47381 0.0
H749 H 0.18545 0.79978 0.37662 0.0
H750 H 0.27132 0.86808 0.2477 0.0
H751 H 0.22434 0.83412 0.24421 0.0
H752 H 0.21935 0.94155 0.68866 0.0
H753 H 0.17453 0.90365 0.6971 0.0
H754 H 0.27588 0.95142 0.69722 0.0
H755 H 0.31119 0.95364 0.59823 0.0
loop_
_geom_bond_atom_site_label_1
_geom_bond_atom_site_label_2
_geom_bond_distance
_geom_bond_site_symmetry_2
_ccdc_geom_bond_type
Co0 N5 2.057 . S
Co0 O17 2.021 1_554 S
Co0 O20 2.062 1_554 S
Co0 O24 2.117 . S
Co0 O25 2.020 . S
C1 O21 1.259 . S
C1 O24 1.258 . S
Co2 N11 2.057 1_554 S
Co2 O18 2.117 1_554 S
Co2 O19 2.020 1_554 S
Co2 O21 2.021 . S
Co2 O26 2.062 . S
C3 N5 1.316 . S
C3 N6 1.347 . S
C3 H8 0.931 1_554 S
C4 N5 1.375 . S
C4 C7 1.350 . S
C4 H9 0.930 . S
N5 Co0 2.057 . S
N5 C3 1.316 . S
N5 C4 1.375 . S
N6 C3 1.347 . S
N6 C7 1.373 . S
C7 C4 1.350 . S
C7 N6 1.373 . S
C7 H28 0.931 . S
H8 C3 0.931 1_556 S
H9 C4 0.930 . S
C10 O17 1.259 . S
C10 O18 1.258 . S
N11 Co2 2.057 1_556 S
N11 C12 1.316 1_456 S
N11 C13 1.375 . S
C12 N11 1.316 1_654 S
C12 N14 1.347 1_554 S
C12 H23 0.931 . S
C13 N11 1.375 . S
C13 C15 1.350 1_455 S
C13 H22 0.930 . S
N14 C12 1.347 1_556 S
N14 C15 1.373 . S
C15 C13 1.350 1_655 S
C15 N14 1.373 . S
C15 H29 0.931 . S
C16 O19 1.256 . S
C16 O20 1.255 . S
O17 Co0 2.021 1_556 S
O17 C10 1.259 . S
O18 Co2 2.117 1_556 S
O18 C10 1.258 . S
O19 Co2 2.020 1_556 S
O19 C16 1.256 . S
O20 Co0 2.062 1_556 S
O20 C16 1.255 . S
O21 C1 1.259 . S
O21 Co2 2.021 . S
H22 C13 0.930 . S
H23 C12 0.931 . S
O24 Co0 2.117 . S
O24 C1 1.258 . S
O25 Co0 2.020 . S
O25 C27 1.256 . S
O26 Co2 2.062 . S
O26 C27 1.255 . S
C27 O25 1.256 . S
C27 O26 1.255 . S
H28 C7 0.931 . S
H29 C15 0.931 . S
Co30 N35 2.057 . S
Co30 O47 2.021 . S
Co30 O50 2.062 . S
Co30 O54 2.117 1_554 S
Co30 O55 2.020 . S
C31 O51 1.259 . S
C31 O54 1.258 . S
Co32 N41 2.057 . S
Co32 O48 2.117 . S
Co32 O49 2.020 . S
Co32 O51 2.021 1_554 S
Co32 O56 2.062 . S
C33 N35 1.316 . S
C33 N36 1.347 . S
C33 H38 0.931 . S
C34 N35 1.375 1_556 S
C34 C37 1.350 . S
C34 H39 0.930 . S
N35 Co30 2.057 . S
N35 C33 1.316 . S
N35 C34 1.375 1_554 S
N36 C33 1.347 . S
N36 C37 1.373 1_554 S
C37 C34 1.350 . S
C37 N36 1.373 1_556 S
C37 H58 0.931 . S
H38 C33 0.931 . S
H39 C34 0.930 . S
C40 O47 1.259 . S
C40 O48 1.258 . S
N41 Co32 2.057 . S
N41 C42 1.316 . S
N41 C43 1.375 . S
C42 N41 1.316 . S
C42 N44 1.347 . S
C42 H53 0.931 . S
C43 N41 1.375 . S
C43 C45 1.350 . S
C43 H52 0.930 . S
N44 C42 1.347 . S
N44 C45 1.373 . S
C45 C43 1.350 . S
C45 N44 1.373 . S
C45 H59 0.931 . S
C46 O49 1.256 . S
C46 O50 1.255 . S
O47 Co30 2.021 . S
O47 C40 1.259 . S
O48 Co32 2.117 . S
O48 C40 1.258 . S
O49 Co32 2.020 . S
O49 C46 1.256 . S
O50 Co30 2.062 . S
O50 C46 1.255 . S
O51 C31 1.259 . S
O51 Co32 2.021 1_556 S
H52 C43 0.930 . S
H53 C42 0.931 . S
O54 Co30 2.117 1_556 S
O54 C31 1.258 . S
O55 Co30 2.020 . S
O55 C57 1.256 . S
O56 Co32 2.062 . S
O56 C57 1.255 . S
C57 O55 1.256 . S
C57 O56 1.255 . S
H58 C37 0.931 . S
H59 C45 0.931 . S
Co60 N65 2.057 1_545 S
Co60 O77 2.021 . S
Co60 O80 2.062 . S
Co60 O84 2.117 . S
Co60 O85 2.020 1_545 S
C61 O81 1.259 . S
C61 O84 1.258 . S
Co62 N71 2.057 . S
Co62 O78 2.117 . S
Co62 O79 2.020 . S
Co62 O81 2.021 . S
Co62 O86 2.062 . S
C63 N65 1.316 . S
C63 N66 1.347 . S
C63 H68 0.931 . S
C64 N65 1.375 . S
C64 C67 1.350 . S
C64 H69 0.930 . S
N65 Co60 2.057 1_565 S
N65 C63 1.316 . S
N65 C64 1.375 . S
N66 C63 1.347 . S
N66 C67 1.373 . S
C67 C64 1.350 . S
C67 N66 1.373 . S
C67 H88 0.931 . S
H68 C63 0.931 . S
H69 C64 0.930 . S
C70 O77 1.259 1_556 S
C70 O78 1.258 1_556 S
N71 Co62 2.057 . S
N71 C72 1.316 . S
N71 C73 1.375 1_554 S
C72 N71 1.316 . S
C72 N74 1.347 . S
C72 H83 0.931 . S
C73 N71 1.375 1_556 S
C73 C75 1.350 . S
C73 H82 0.930 . S
N74 C72 1.347 . S
N74 C75 1.373 1_554 S
C75 C73 1.350 . S
C75 N74 1.373 1_556 S
C75 H89 0.931 . S
C76 O79 1.256 . S
C76 O80 1.255 . S
O77 Co60 2.021 . S
O77 C70 1.259 1_554 S
O78 Co62 2.117 . S
O78 C70 1.258 1_554 S
O79 Co62 2.020 . S
O79 C76 1.256 . S
O80 Co60 2.062 . S
O80 C76 1.255 . S
O81 C61 1.259 . S
O81 Co62 2.021 . S
H82 C73 0.930 . S
H83 C72 0.931 . S
O84 Co60 2.117 . S
O84 C61 1.258 . S
O85 Co60 2.020 1_565 S
O85 C87 1.256 1_565 S
O86 Co62 2.062 . S
O86 C87 1.255 . S
C87 O85 1.256 1_545 S
C87 O86 1.255 . S
H88 C67 0.931 . S
H89 C75 0.931 . S
Co90 N95 2.057 1_565 S
Co90 O107 2.021 . S
Co90 O110 2.062 . S
Co90 O114 2.117 . S
Co90 O115 2.020 . S
C91 O111 1.259 . S
C91 O114 1.258 . S
Co92 N101 2.057 . S
Co92 O108 2.117 . S
Co92 O109 2.020 . S
Co92 O111 2.021 . S
Co92 O116 2.062 . S
C93 N95 1.316 . S
C93 N96 1.347 . S
C93 H98 0.931 . S
C94 N95 1.375 . S
C94 C97 1.350 . S
C94 H99 0.915 1_545 S
N95 Co90 2.057 1_545 S
N95 C93 1.316 . S
N95 C94 1.375 . S
N96 C93 1.347 . S
N96 C97 1.373 . S
C97 C94 1.350 . S
C97 N96 1.373 . S
C97 H118 0.931 . S
H98 C93 0.931 . S
H99 C94 0.915 1_565 S
C100 O107 1.259 . S
C100 O108 1.258 . S
N101 Co92 2.057 . S
N101 C102 1.316 . S
N101 C103 1.375 . S
C102 N101 1.316 . S
C102 N104 1.347 . S
C102 H113 0.931 . S
C103 N101 1.375 . S
C103 C105 1.350 . S
C103 H112 0.930 . S
N104 C102 1.347 . S
N104 C105 1.373 . S
C105 C103 1.350 . S
C105 N104 1.373 . S
C105 H119 0.931 . S
C106 O109 1.256 . S
C106 O110 1.255 . S
O107 Co90 2.021 . S
O107 C100 1.259 . S
O108 Co92 2.117 . S
O108 C100 1.258 . S
O109 Co92 2.020 . S
O109 C106 1.256 . S
O110 Co90 2.062 . S
O110 C106 1.255 . S
O111 C91 1.259 . S
O111 Co92 2.021 . S
H112 C103 0.930 . S
H113 C102 0.931 . S
O114 Co90 2.117 . S
O114 C91 1.258 . S
O115 Co90 2.020 . S
O115 C117 1.256 . S
O116 Co92 2.062 . S
O116 C117 1.255 . S
C117 O115 1.256 . S
C117 O116 1.255 . S
H118 C97 0.931 . S
H119 C105 0.931 . S
Co120 N125 2.057 . S
Co120 O137 2.021 . S
Co120 O140 2.062 . S
Co120 O144 2.117 . S
Co120 O145 2.020 . S
C121 O141 1.259 . S
C121 O144 1.258 . S
Co122 N131 2.057 1_565 S
Co122 O138 2.117 . S
Co122 O139 2.020 . S
Co122 O141 2.021 . S
Co122 O146 2.062 . S
C123 N125 1.316 . S
C123 N126 1.347 . S
C123 H128 0.931 . S
C124 N125 1.375 . S
C124 C127 1.350 . S
C124 H129 0.930 . S
N125 Co120 2.057 . S
N125 C123 1.316 . S
N125 C124 1.375 . S
N126 C123 1.347 . S
N126 C127 1.373 . S
C127 C124 1.350 . S
C127 N126 1.373 . S
C127 H148 0.931 . S
H128 C123 0.931 . S
H129 C124 0.930 . S
C130 O137 1.259 . S
C130 O138 1.258 . S
N131 Co122 2.057 1_545 S
N131 C132 1.316 . S
N131 C133 1.375 . S
C132 N131 1.316 . S
C132 N134 1.347 . S
C132 H143 0.931 . S
C133 N131 1.375 . S
C133 C135 1.350 . S
C133 H142 0.930 . S
N134 C132 1.347 . S
N134 C135 1.373 . S
C135 C133 1.350 . S
C135 N134 1.373 . S
C135 H149 0.931 . S
C136 O139 1.256 . S
C136 O140 1.255 . S
O137 Co120 2.021 . S
O137 C130 1.259 . S
O138 Co122 2.117 . S
O138 C130 1.258 . S
O139 Co122 2.020 . S
O139 C136 1.256 . S
O140 Co120 2.062 . S
O140 C136 1.255 . S
O141 C121 1.259 . S
O141 Co122 2.021 . S
H142 C133 0.930 . S
H143 C132 0.931 . S
O144 Co120 2.117 . S
O144 C121 1.258 . S
O145 Co120 2.020 . S
O145 C147 1.256 . S
O146 Co122 2.062 . S
O146 C147 1.255 . S
C147 O145 1.256 . S
C147 O146 1.255 . S
H148 C127 0.931 . S
H149 C135 0.931 . S
Co150 N155 2.057 . S
Co150 O167 2.021 . S
Co150 O170 2.062 . S
Co150 O174 2.117 . S
Co150 O175 2.020 . S
C151 O171 1.259 . S
C151 O174 1.258 . S
Co152 N161 2.057 . S
Co152 O168 2.117 . S
Co152 O169 2.020 . S
Co152 O171 2.021 . S
Co152 O176 2.062 . S
C153 N155 1.316 . S
C153 N156 1.347 . S
C153 H158 0.931 . S
C154 N155 1.375 . S
C154 C157 1.350 . S
C154 H159 0.930 . S
N155 Co150 2.057 . S
N155 C153 1.316 . S
N155 C154 1.375 . S
N156 C153 1.347 . S
N156 C157 1.373 . S
C157 C154 1.350 . S
C157 N156 1.373 . S
C157 H178 0.931 . S
H158 C153 0.931 . S
H159 C154 0.930 . S
C160 O167 1.259 1_556 S
C160 O168 1.258 1_556 S
N161 Co152 2.057 . S
N161 C162 1.316 . S
N161 C163 1.375 . S
C162 N161 1.316 . S
C162 N164 1.347 . S
C162 H173 0.931 . S
C163 N161 1.375 . S
C163 C165 1.350 . S
C163 H172 0.930 1_554 S
N164 C162 1.347 . S
N164 C165 1.373 . S
C165 C163 1.350 . S
C165 N164 1.373 . S
C165 H179 0.931 1_554 S
C166 O169 1.256 . S
C166 O170 1.255 . S
O167 Co150 2.021 . S
O167 C160 1.259 1_554 S
O168 Co152 2.117 . S
O168 C160 1.258 1_554 S
O169 Co152 2.020 . S
O169 C166 1.256 . S
O170 Co150 2.062 . S
O170 C166 1.255 . S
O171 C151 1.259 . S
O171 Co152 2.021 . S
H172 C163 0.930 1_556 S
H173 C162 0.931 . S
O174 Co150 2.117 . S
O174 C151 1.258 . S
O175 Co150 2.020 . S
O175 C177 1.256 . S
O176 Co152 2.062 . S
O176 C177 1.255 . S
C177 O175 1.256 . S
C177 O176 1.255 . S
H178 C157 0.931 . S
H179 C165 0.931 1_556 S
Co180 N185 2.057 . S
Co180 O197 2.021 . S
Co180 O200 2.062 . S
Co180 O204 2.117 . S
Co180 O205 2.020 . S
C181 O201 1.259 . S
C181 O204 1.258 . S
Co182 N191 2.057 . S
Co182 O198 2.117 . S
Co182 O199 2.020 . S
Co182 O201 2.021 . S
Co182 O206 2.062 . S
C183 N185 1.316 . S
C183 N186 1.347 . S
C183 H188 0.931 . S
C184 N185 1.375 . S
C184 C187 1.350 . S
C184 H189 0.930 . S
N185 Co180 2.057 . S
N185 C183 1.316 . S
N185 C184 1.375 . S
N186 C183 1.347 . S
N186 C187 1.373 . S
C187 C184 1.350 . S
C187 N186 1.373 . S
C187 H208 0.931 . S
H188 C183 0.931 . S
H189 C184 0.930 . S
C190 O197 1.259 . S
C190 O198 1.258 . S
N191 Co182 2.057 . S
N191 C192 1.316 . S
N191 C193 1.375 . S
C192 N191 1.316 . S
C192 N194 1.347 . S
C192 H203 0.931 . S
C193 N191 1.375 . S
C193 C195 1.350 . S
C193 H202 0.930 . S
N194 C192 1.347 . S
N194 C195 1.373 . S
C195 C193 1.350 . S
C195 N194 1.373 . S
C195 H209 0.931 . S
C196 O199 1.256 . S
C196 O200 1.255 . S
O197 Co180 2.021 . S
O197 C190 1.259 . S
O198 Co182 2.117 . S
O198 C190 1.258 . S
O199 Co182 2.020 . S
O199 C196 1.256 . S
O200 Co180 2.062 . S
O200 C196 1.255 . S
O201 C181 1.259 . S
O201 Co182 2.021 . S
H202 C193 0.930 . S
H203 C192 0.931 . S
O204 Co180 2.117 . S
O204 C181 1.258 . S
O205 Co180 2.020 . S
O205 C207 1.256 . S
O206 Co182 2.062 . S
O206 C207 1.255 . S
C207 O205 1.256 . S
C207 O206 1.255 . S
H208 C187 0.931 . S
H209 C195 0.931 . S
Co210 N215 2.057 . S
Co210 O227 2.021 . S
Co210 O230 2.062 1_455 S
Co210 O234 2.119 . S
Co210 O235 2.020 . S
C211 O231 1.259 . S
C211 O234 1.255 1_655 S
Co212 N221 2.057 . S
Co212 O228 2.117 . S
Co212 O229 2.020 . S
Co212 O231 2.021 . S
Co212 O236 2.062 . S
C213 N215 1.316 . S
C213 N216 1.347 . S
C213 H218 0.931 . S
C214 N215 1.375 . S
C214 C217 1.350 . S
C214 H219 0.930 . S
N215 Co210 2.057 . S
N215 C213 1.316 . S
N215 C214 1.375 . S
N216 C213 1.347 . S
N216 C217 1.373 . S
C217 C214 1.350 . S
C217 N216 1.373 . S
C217 H238 0.931 . S
H218 C213 0.931 . S
H219 C214 0.930 . S
C220 O227 1.259 1_655 S
C220 O228 1.258 . S
N221 Co212 2.057 . S
N221 C222 1.316 . S
N221 C223 1.375 . S
C222 N221 1.316 . S
C222 N224 1.347 . S
C222 H233 0.931 . S
C223 N221 1.375 . S
C223 C225 1.350 . S
C223 H232 0.930 . S
N224 C222 1.347 . S
N224 C225 1.373 . S
C225 C223 1.350 . S
C225 N224 1.373 . S
C225 H239 0.931 . S
C226 O229 1.256 . S
C226 O230 1.255 . S
O227 Co210 2.021 . S
O227 C220 1.259 1_455 S
O228 Co212 2.117 . S
O228 C220 1.258 . S
O229 Co212 2.020 . S
O229 C226 1.256 . S
O230 Co210 2.062 1_655 S
O230 C226 1.255 . S
O231 C211 1.259 . S
O231 Co212 2.021 . S
H232 C223 0.930 . S
H233 C222 0.931 . S
O234 Co210 2.119 . S
O234 C211 1.255 1_455 S
O235 Co210 2.020 . S
O235 C237 1.256 1_455 S
O236 Co212 2.062 . S
O236 C237 1.255 . S
C237 O235 1.256 1_655 S
C237 O236 1.255 . S
H238 C217 0.931 . S
H239 C225 0.931 . S
Co240 N245 2.057 . S
Co240 O257 2.021 . S
Co240 O260 2.062 . S
Co240 O264 2.117 . S
Co240 O265 2.020 . S
C241 O261 1.259 . S
C241 O264 1.258 . S
Co242 N251 2.057 . S
Co242 O258 2.117 . S
Co242 O259 2.020 . S
Co242 O261 2.021 1_455 S
Co242 O266 2.062 1_455 S
C243 N245 1.316 . S
C243 N246 1.347 . S
C243 H248 0.931 . S
C244 N245 1.375 . S
C244 C247 1.350 . S
C244 H249 0.930 . S
N245 Co240 2.057 . S
N245 C243 1.316 . S
N245 C244 1.375 . S
N246 C243 1.347 . S
N246 C247 1.373 . S
C247 C244 1.350 . S
C247 N246 1.373 . S
C247 H268 0.931 . S
H248 C243 0.931 . S
H249 C244 0.930 . S
C250 O257 1.259 . S
C250 O258 1.258 1_655 S
N251 Co242 2.057 . S
N251 C252 1.316 . S
N251 C253 1.375 . S
C252 N251 1.316 . S
C252 N254 1.347 . S
C252 H263 0.931 . S
C253 N251 1.375 . S
C253 C255 1.350 . S
C253 H262 0.930 . S
N254 C252 1.347 . S
N254 C255 1.373 . S
C255 C253 1.350 . S
C255 N254 1.373 . S
C255 H269 0.931 . S
C256 O259 1.256 1_655 S
C256 O260 1.255 . S
O257 Co240 2.021 . S
O257 C250 1.259 . S
O258 Co242 2.117 . S
O258 C250 1.258 1_455 S
O259 Co242 2.020 . S
O259 C256 1.256 1_455 S
O260 Co240 2.062 . S
O260 C256 1.255 . S
O261 C241 1.259 . S
O261 Co242 2.021 1_655 S
H262 C253 0.930 . S
H263 C252 0.931 . S
O264 Co240 2.117 . S
O264 C241 1.258 . S
O265 Co240 2.020 . S
O265 C267 1.256 . S
O266 Co242 2.062 1_655 S
O266 C267 1.255 . S
C267 O265 1.256 . S
C267 O266 1.255 . S
H268 C247 0.931 . S
H269 C255 0.931 . S
C270 C271 1.363 . S
C270 C276 1.379 . S
C270 N278 1.356 . S
C271 C270 1.363 . S
C271 C277 1.363 . S
C272 C273 1.363 . S
C272 C277 1.379 . S
C272 N279 1.356 . S
C273 C272 1.363 . S
C273 C276 1.363 . S
N274 C276 1.356 . S
N274 H286 0.984 . S
N274 H287 0.985 . S
N275 C277 1.356 . S
N275 H280 0.984 . S
N275 H281 0.985 . S
C276 C270 1.379 . S
C276 C273 1.363 . S
C276 N274 1.356 . S
C277 C271 1.363 . S
C277 C272 1.379 . S
C277 N275 1.356 . S
N278 C270 1.356 . S
N278 H284 0.984 . S
N278 H285 0.984 . S
N279 C272 1.356 . S
N279 H282 0.984 . S
N279 H283 0.985 . S
H280 N275 0.984 . S
H281 N275 0.985 . S
H282 N279 0.984 . S
H283 N279 0.985 . S
H284 N278 0.984 . S
H285 N278 0.984 . S
H286 N274 0.984 . S
H287 N274 0.985 . S
C288 C289 1.363 . S
C288 C294 1.379 . S
C288 N296 1.356 . S
C289 C288 1.363 . S
C289 C295 1.363 . S
C290 C291 1.363 . S
C290 C295 1.379 . S
C290 N297 1.356 . S
C291 C290 1.363 . S
C291 C294 1.363 . S
N292 C294 1.356 . S
N292 H304 0.984 . S
N292 H305 0.985 . S
N293 C295 1.356 . S
N293 H298 0.984 . S
N293 H299 0.985 . S
C294 C288 1.379 . S
C294 C291 1.363 . S
C294 N292 1.356 . S
C295 C289 1.363 . S
C295 C290 1.379 . S
C295 N293 1.356 . S
N296 C288 1.356 . S
N296 H302 0.984 . S
N296 H303 0.984 . S
N297 C290 1.356 . S
N297 H300 0.984 . S
N297 H301 0.985 . S
H298 N293 0.984 . S
H299 N293 0.985 . S
H300 N297 0.984 . S
H301 N297 0.985 . S
H302 N296 0.984 . S
H303 N296 0.984 . S
H304 N292 0.984 . S
H305 N292 0.985 . S
C306 C307 1.363 . S
C306 C312 1.379 . S
C306 N314 1.356 1_545 S
C307 C306 1.363 . S
C307 C313 1.363 . S
C308 C309 1.363 . S
C308 C313 1.379 . S
C308 N315 1.356 . S
C309 C308 1.363 . S
C309 C312 1.363 . S
N310 C312 1.356 . S
N310 H322 0.984 . S
N310 H323 0.985 . S
N311 C313 1.356 . S
N311 H316 0.984 1_556 S
N311 H317 0.985 . S
C312 C306 1.379 . S
C312 C309 1.363 . S
C312 N310 1.356 . S
C313 C307 1.363 . S
C313 C308 1.379 . S
C313 N311 1.356 . S
N314 C306 1.356 1_565 S
N314 H320 0.984 . S
N314 H321 0.984 . S
N315 C308 1.356 . S
N315 H318 0.984 . S
N315 H319 0.985 . S
H316 N311 0.984 1_554 S
H317 N311 0.985 . S
H318 N315 0.984 . S
H319 N315 0.985 . S
H320 N314 0.984 . S
H321 N314 0.984 . S
H322 N310 0.984 . S
H323 N310 0.985 . S
C324 C325 1.363 . S
C324 C330 1.379 1_556 S
C324 N332 1.356 . S
C325 C324 1.363 . S
C325 C331 1.363 . S
C326 C327 1.363 1_556 S
C326 C331 1.379 . S
C326 N333 1.356 1_556 S
C327 C326 1.363 1_554 S
C327 C330 1.363 . S
N328 C330 1.356 . S
N328 H340 0.984 . S
N328 H341 0.985 . S
N329 C331 1.356 . S
N329 H334 0.984 . S
N329 H335 0.985 . S
C330 C324 1.379 1_554 S
C330 C327 1.363 . S
C330 N328 1.356 . S
C331 C325 1.363 . S
C331 C326 1.379 . S
C331 N329 1.356 . S
N332 C324 1.356 . S
N332 H338 0.984 . S
N332 H339 0.984 . S
N333 C326 1.356 1_554 S
N333 H336 0.984 . S
N333 H337 0.985 1_554 S
H334 N329 0.984 . S
H335 N329 0.985 . S
H336 N333 0.984 . S
H337 N333 0.985 1_556 S
H338 N332 0.984 . S
H339 N332 0.984 . S
H340 N328 0.984 . S
H341 N328 0.985 . S
C342 C343 1.363 . S
C342 C348 1.379 . S
C342 N350 1.356 . S
C343 C342 1.363 . S
C343 C349 1.363 . S
C344 C345 1.363 . S
C344 C349 1.379 . S
C344 N351 1.356 1_556 S
C345 C344 1.363 . S
C345 C348 1.363 . S
N346 C348 1.356 . S
N346 H358 0.984 1_565 S
N346 H359 0.985 1_556 S
N347 C349 1.356 . S
N347 H352 0.984 . S
N347 H353 0.985 . S
C348 C342 1.379 . S
C348 C345 1.363 . S
C348 N346 1.356 . S
C349 C343 1.363 . S
C349 C344 1.379 . S
C349 N347 1.356 . S
N350 C342 1.356 . S
N350 H356 0.984 . S
N350 H357 0.984 . S
N351 C344 1.356 1_554 S
N351 H354 0.984 . S
N351 H355 0.985 1_554 S
H352 N347 0.984 . S
H353 N347 0.985 . S
H354 N351 0.984 . S
H355 N351 0.985 1_556 S
H356 N350 0.984 . S
H357 N350 0.984 . S
H358 N346 0.984 1_545 S
H359 N346 0.985 1_554 S
C360 C361 1.363 . S
C360 C366 1.379 . S
C360 N368 1.356 . S
C361 C360 1.363 . S
C361 C367 1.363 . S
C362 C363 1.363 . S
C362 C367 1.379 . S
C362 N369 1.356 . S
C363 C362 1.363 . S
C363 C366 1.363 . S
N364 C366 1.356 . S
N364 H376 0.984 . S
N364 H377 0.985 . S
N365 C367 1.356 . S
N365 H370 0.984 . S
N365 H371 0.985 . S
C366 C360 1.379 . S
C366 C363 1.363 . S
C366 N364 1.356 . S
C367 C361 1.363 . S
C367 C362 1.379 . S
C367 N365 1.356 . S
N368 C360 1.356 . S
N368 H374 0.984 . S
N368 H375 0.984 . S
N369 C362 1.356 . S
N369 H372 0.984 1_556 S
N369 H373 0.985 . S
H370 N365 0.984 . S
H371 N365 0.985 . S
H372 N369 0.984 1_554 S
H373 N369 0.985 . S
H374 N368 0.984 . S
H375 N368 0.984 . S
H376 N364 0.984 . S
H377 N364 0.985 . S
C378 C379 1.363 . S
C378 C384 1.379 . S
C378 N386 1.356 . S
C379 C378 1.363 . S
C379 C385 1.363 . S
C380 C381 1.363 . S
C380 C385 1.379 . S
C380 N387 1.356 . S
C381 C380 1.363 . S
C381 C384 1.363 . S
N382 C384 1.356 . S
N382 H394 0.984 . S
N382 H395 0.985 1_554 S
N383 C385 1.356 . S
N383 H388 0.984 . S
N383 H389 0.985 . S
C384 C378 1.379 . S
C384 C381 1.363 . S
C384 N382 1.356 . S
C385 C379 1.363 . S
C385 C380 1.379 . S
C385 N383 1.356 . S
N386 C378 1.356 . S
N386 H392 0.984 . S
N386 H393 0.984 . S
N387 C380 1.356 . S
N387 H390 0.984 1_554 S
N387 H391 0.985 . S
H388 N383 0.984 . S
H389 N383 0.985 . S
H390 N387 0.984 1_556 S
H391 N387 0.985 . S
H392 N386 0.984 . S
H393 N386 0.984 . S
H394 N382 0.984 . S
H395 N382 0.985 1_556 S
C396 C397 1.363 . S
C396 C402 1.379 . S
C396 N404 1.356 . S
C397 C396 1.363 . S
C397 C403 1.363 . S
C398 C399 1.363 . S
C398 C403 1.379 . S
C398 N405 1.356 . S
C399 C398 1.363 . S
C399 C402 1.363 . S
N400 C402 1.356 . S
N400 H412 0.984 . S
N400 H413 0.985 1_554 S
N401 C403 1.356 . S
N401 H406 0.984 . S
N401 H407 0.985 . S
C402 C396 1.379 . S
C402 C399 1.363 . S
C402 N400 1.356 . S
C403 C397 1.363 . S
C403 C398 1.379 . S
C403 N401 1.356 . S
N404 C396 1.356 . S
N404 H410 0.984 . S
N404 H411 0.984 . S
N405 C398 1.356 . S
N405 H408 0.984 . S
N405 H409 0.978 1_655 S
H406 N401 0.984 . S
H407 N401 0.985 . S
H408 N405 0.984 . S
H409 N405 0.978 1_455 S
H410 N404 0.984 . S
H411 N404 0.984 . S
H412 N400 0.984 . S
H413 N400 0.985 1_556 S
C414 C415 1.363 . S
C414 C420 1.379 . S
C414 N422 1.356 . S
C415 C414 1.363 . S
C415 C421 1.363 . S
C416 C417 1.363 . S
C416 C421 1.379 . S
C416 N423 1.356 . S
C417 C416 1.363 . S
C417 C420 1.363 . S
N418 C420 1.356 . S
N418 H430 0.984 . S
N418 H431 0.985 . S
N419 C421 1.356 . S
N419 H424 0.984 . S
N419 H425 0.985 . S
C420 C414 1.379 . S
C420 C417 1.363 . S
C420 N418 1.356 . S
C421 C415 1.363 . S
C421 C416 1.379 . S
C421 N419 1.356 . S
N422 C414 1.356 . S
N422 H428 0.984 . S
N422 H429 0.984 . S
N423 C416 1.356 . S
N423 H426 0.984 1_554 S
N423 H427 0.985 . S
H424 N419 0.984 . S
H425 N419 0.985 . S
H426 N423 0.984 1_556 S
H427 N423 0.985 . S
H428 N422 0.984 . S
H429 N422 0.984 . S
H430 N418 0.984 . S
H431 N418 0.985 . S
C432 C433 1.363 . S
C432 C438 1.379 . S
C432 N440 1.356 . S
C433 C432 1.363 . S
C433 C439 1.363 . S
C434 C435 1.363 . S
C434 C439 1.379 . S
C434 N441 1.356 1_554 S
C435 C434 1.363 . S
C435 C438 1.363 . S
N436 C438 1.356 . S
N436 H448 0.984 . S
N436 H449 0.985 . S
N437 C439 1.356 . S
N437 H442 0.984 . S
N437 H443 0.985 1_554 S
C438 C432 1.379 . S
C438 C435 1.363 . S
C438 N436 1.356 . S
C439 C433 1.363 . S
C439 C434 1.379 . S
C439 N437 1.356 . S
N440 C432 1.356 . S
N440 H446 0.984 . S
N440 H447 0.984 . S
N441 C434 1.356 1_556 S
N441 H444 0.984 . S
N441 H445 0.985 . S
H442 N437 0.984 . S
H443 N437 0.985 1_556 S
H444 N441 0.984 . S
H445 N441 0.985 . S
H446 N440 0.984 . S
H447 N440 0.984 . S
H448 N436 0.984 . S
H449 N436 0.985 . S
C450 C451 1.363 . S
C450 C456 1.379 . S
C450 N458 1.356 . S
C451 C450 1.363 . S
C451 C457 1.363 . S
C452 C453 1.363 . S
C452 C457 1.379 . S
C452 N459 1.356 . S
C453 C452 1.363 . S
C453 C456 1.363 . S
N454 C456 1.356 . S
N454 H466 0.984 . S
N454 H467 0.985 . S
N455 C457 1.356 . S
N455 H460 0.984 . S
N455 H461 0.985 . S
C456 C450 1.379 . S
C456 C453 1.363 . S
C456 N454 1.356 . S
C457 C451 1.363 . S
C457 C452 1.379 . S
C457 N455 1.356 . S
N458 C450 1.356 . S
N458 H464 0.984 1_554 S
N458 H465 0.984 . S
N459 C452 1.356 . S
N459 H462 0.984 . S
N459 H463 0.985 . S
H460 N455 0.984 . S
H461 N455 0.985 . S
H462 N459 0.984 . S
H463 N459 0.985 . S
H464 N458 0.984 1_556 S
H465 N458 0.984 . S
H466 N454 0.984 . S
H467 N454 0.985 . S
C468 C469 1.363 1_545 S
C468 C474 1.379 1_545 S
C468 N476 1.356 . S
C469 C468 1.363 1_565 S
C469 C475 1.363 . S
C470 C471 1.363 . S
C470 C475 1.379 . S
C470 N477 1.356 . S
C471 C470 1.363 . S
C471 C474 1.363 . S
N472 C474 1.356 1_545 S
N472 H484 0.984 . S
N472 H485 0.985 1_545 S
N473 C475 1.356 . S
N473 H478 0.984 . S
N473 H479 0.985 . S
C474 C468 1.379 1_565 S
C474 C471 1.363 . S
C474 N472 1.356 1_565 S
C475 C469 1.363 . S
C475 C470 1.379 . S
C475 N473 1.356 . S
N476 C468 1.356 . S
N476 H482 0.984 . S
N476 H483 0.984 . S
N477 C470 1.356 . S
N477 H480 0.984 . S
N477 H481 0.985 . S
H478 N473 0.984 . S
H479 N473 0.985 . S
H480 N477 0.984 . S
H481 N477 0.985 . S
H482 N476 0.984 . S
H483 N476 0.984 . S
H484 N472 0.984 . S
H485 N472 0.985 1_565 S
C486 C487 1.363 . S
C486 C492 1.379 . S
C486 N494 1.356 . S
C487 C486 1.363 . S
C487 C493 1.363 1_554 S
C488 C489 1.363 . S
C488 C493 1.379 . S
C488 N495 1.356 . S
C489 C488 1.363 . S
C489 C492 1.363 1_556 S
N490 C492 1.356 . S
N490 H502 0.984 . S
N490 H503 0.985 1_554 S
N491 C493 1.356 1_554 S
N491 H496 0.984 . S
N491 H497 0.985 1_554 S
C492 C486 1.379 . S
C492 C489 1.363 1_554 S
C492 N490 1.356 . S
C493 C487 1.363 1_556 S
C493 C488 1.379 . S
C493 N491 1.356 1_556 S
N494 C486 1.356 . S
N494 H500 0.984 . S
N494 H501 0.984 . S
N495 C488 1.356 . S
N495 H498 0.984 . S
N495 H499 0.985 . S
H496 N491 0.984 . S
H497 N491 0.985 1_556 S
H498 N495 0.984 . S
H499 N495 0.985 . S
H500 N494 0.984 . S
H501 N494 0.984 . S
H502 N490 0.984 . S
H503 N490 0.985 1_556 S
C504 C505 1.363 . S
C504 C510 1.376 1_556 S
C504 N512 1.356 . S
C505 C504 1.363 . S
C505 C511 1.363 . S
C506 C507 1.363 . S
C506 C511 1.379 . S
C506 N513 1.356 . S
C507 C506 1.363 . S
C507 C510 1.359 1_556 S
N508 C510 1.363 . S
N508 H520 0.984 . S
N508 H521 0.985 . S
N509 C511 1.356 . S
N509 H514 0.984 . S
N509 H515 0.985 . S
C510 C504 1.376 1_554 S
C510 C507 1.359 1_554 S
C510 N508 1.363 . S
C511 C505 1.363 . S
C511 C506 1.379 . S
C511 N509 1.356 . S
N512 C504 1.356 . S
N512 H518 0.984 1_556 S
N512 H519 0.984 . S
N513 C506 1.356 . S
N513 H516 0.984 . S
N513 H517 0.985 . S
H514 N509 0.984 . S
H515 N509 0.985 . S
H516 N513 0.984 . S
H517 N513 0.985 . S
H518 N512 0.984 1_554 S
H519 N512 0.984 . S
H520 N508 0.984 . S
H521 N508 0.985 . S
C522 C523 1.363 1_554 S
C522 C528 1.379 . S
C522 N530 1.356 . S
C523 C522 1.363 1_556 S
C523 C529 1.363 . S
C524 C525 1.363 1_556 S
C524 C529 1.379 . S
C524 N531 1.356 . S
C525 C524 1.363 1_554 S
C525 C528 1.363 . S
N526 C528 1.356 . S
N526 H538 0.984 . S
N526 H539 0.985 . S
N527 C529 1.356 . S
N527 H532 0.984 . S
N527 H533 0.985 . S
C528 C522 1.379 . S
C528 C525 1.363 . S
C528 N526 1.356 . S
C529 C523 1.363 . S
C529 C524 1.379 . S
C529 N527 1.356 . S
N530 C522 1.356 . S
N530 H536 0.984 . S
N530 H537 0.984 1_554 S
N531 C524 1.356 . S
N531 H534 0.984 . S
N531 H535 0.985 . S
H532 N527 0.984 . S
H533 N527 0.985 . S
H534 N531 0.984 . S
H535 N531 0.985 . S
H536 N530 0.984 . S
H537 N530 0.984 1_556 S
H538 N526 0.984 . S
H539 N526 0.985 . S
C540 C541 1.363 1_455 S
C540 C546 1.379 . S
C540 N548 1.352 1_455 S
C541 C540 1.363 1_655 S
C541 C547 1.364 . S
C542 C543 1.363 1_554 S
C542 C547 1.375 1_454 S
C542 N549 1.356 . S
C543 C542 1.363 1_556 S
C543 C546 1.363 . S
N544 C546 1.356 . S
N544 H556 0.984 . S
N544 H557 0.985 . S
N545 C547 1.360 1_554 S
N545 H550 0.984 1_554 S
N545 H551 0.985 . S
C546 C540 1.379 . S
C546 C543 1.363 . S
C546 N544 1.356 . S
C547 C541 1.364 . S
C547 C542 1.375 1_656 S
C547 N545 1.360 1_556 S
N548 C540 1.352 1_655 S
N548 H554 0.979 1_655 S
N548 H555 0.994 . S
N549 C542 1.356 . S
N549 H552 0.984 . S
N549 H553 0.985 . S
H550 N545 0.984 1_556 S
H551 N545 0.985 . S
H552 N549 0.984 . S
H553 N549 0.985 . S
H554 N548 0.979 1_455 S
H555 N548 0.994 . S
H556 N544 0.984 . S
H557 N544 0.985 . S
C558 C559 1.363 . S
C558 C564 1.379 1_554 S
C558 N566 1.356 . S
C559 C558 1.363 . S
C559 C565 1.363 1_554 S
C560 C561 1.363 . S
C560 C565 1.379 . S
C560 N567 1.356 . S
C561 C560 1.363 . S
C561 C564 1.363 . S
N562 C564 1.356 . S
N562 H574 0.984 1_556 S
N562 H575 0.985 . S
N563 C565 1.356 . S
N563 H568 0.984 . S
N563 H569 0.985 . S
C564 C558 1.379 1_556 S
C564 C561 1.363 . S
C564 N562 1.356 . S
C565 C559 1.363 1_556 S
C565 C560 1.379 . S
C565 N563 1.356 . S
N566 C558 1.356 . S
N566 H572 0.984 . S
N566 H573 0.984 . S
N567 C560 1.356 . S
N567 H570 0.984 . S
N567 H571 0.985 . S
H568 N563 0.984 . S
H569 N563 0.985 . S
H570 N567 0.984 . S
H571 N567 0.985 . S
H572 N566 0.984 . S
H573 N566 0.984 . S
H574 N562 0.984 1_554 S
H575 N562 0.985 . S
C576 C577 1.363 1_554 S
C576 C582 1.379 . S
C576 N584 1.356 . S
C577 C576 1.363 1_556 S
C577 C583 1.363 . S
C578 C579 1.363 . S
C578 C583 1.379 1_554 S
C578 N585 1.356 . S
C579 C578 1.363 . S
C579 C582 1.363 . S
N580 C582 1.356 . S
N580 H592 0.984 . S
N580 H593 0.985 . S
N581 C583 1.356 . S
N581 H586 0.984 . S
N581 H587 0.985 . S
C582 C576 1.379 . S
C582 C579 1.363 . S
C582 N580 1.356 . S
C583 C577 1.363 . S
C583 C578 1.379 1_556 S
C583 N581 1.356 . S
N584 C576 1.356 . S
N584 H590 0.984 . S
N584 H591 0.984 1_554 S
N585 C578 1.356 . S
N585 H588 0.984 . S
N585 H589 0.985 1_554 S
H586 N581 0.984 . S
H587 N581 0.985 . S
H588 N585 0.984 . S
H589 N585 0.985 1_556 S
H590 N584 0.984 . S
H591 N584 0.984 1_556 S
H592 N580 0.984 . S
H593 N580 0.985 . S
C594 C595 1.363 . S
C594 C600 1.379 . S
C594 N602 1.356 . S
C595 C594 1.363 . S
C595 C601 1.363 . S
C596 C597 1.363 . S
C596 C601 1.379 . S
C596 N603 1.356 . S
C597 C596 1.363 . S
C597 C600 1.363 . S
N598 C600 1.356 . S
N598 H610 0.984 . S
N598 H611 0.985 . S
N599 C601 1.387 . S
N599 H604 0.976 . S
N599 H605 0.963 1_565 S
C600 C594 1.379 . S
C600 C597 1.363 . S
C600 N598 1.356 . S
C601 C595 1.363 . S
C601 C596 1.379 . S
C601 N599 1.387 . S
N602 C594 1.356 . S
N602 H608 0.984 . S
N602 H609 0.984 . S
N603 C596 1.356 . S
N603 H606 0.984 . S
N603 H607 0.985 1_565 S
H604 N599 0.976 . S
H605 N599 0.963 1_545 S
H606 N603 0.984 . S
H607 N603 0.985 1_545 S
H608 N602 0.984 . S
H609 N602 0.984 . S
H610 N598 0.984 . S
H611 N598 0.985 . S
C612 C613 1.363 . S
C612 C618 1.379 . S
C612 N620 1.356 . S
C613 C612 1.363 . S
C613 C619 1.363 . S
C614 C615 1.363 . S
C614 C619 1.379 . S
C614 N621 1.356 . S
C615 C614 1.363 . S
C615 C618 1.363 . S
N616 C618 1.356 1_556 S
N616 H628 0.984 . S
N616 H629 0.985 . S
N617 C619 1.356 . S
N617 H622 0.984 . S
N617 H623 0.985 . S
C618 C612 1.379 . S
C618 C615 1.363 . S
C618 N616 1.356 1_554 S
C619 C613 1.363 . S
C619 C614 1.379 . S
C619 N617 1.356 . S
N620 C612 1.356 . S
N620 H626 0.984 . S
N620 H627 0.984 . S
N621 C614 1.356 . S
N621 H624 0.984 . S
N621 H625 0.985 . S
H622 N617 0.984 . S
H623 N617 0.985 . S
H624 N621 0.984 . S
H625 N621 0.985 . S
H626 N620 0.984 . S
H627 N620 0.984 . S
H628 N616 0.984 . S
H629 N616 0.985 . S
C630 C631 1.363 . S
C630 C636 1.379 . S
C630 N638 1.356 . S
C631 C630 1.363 . S
C631 C637 1.363 . S
C632 C633 1.363 . S
C632 C637 1.379 . S
C632 N639 1.356 . S
C633 C632 1.363 . S
C633 C636 1.363 . S
N634 C636 1.356 . S
N634 H646 0.984 . S
N634 H647 0.985 . S
N635 C637 1.356 . S
N635 H640 0.984 . S
N635 H641 0.985 1_554 S
C636 C630 1.379 . S
C636 C633 1.363 . S
C636 N634 1.356 . S
C637 C631 1.363 . S
C637 C632 1.379 . S
C637 N635 1.356 . S
N638 C630 1.356 . S
N638 H644 0.984 . S
N638 H645 0.984 . S
N639 C632 1.356 . S
N639 H642 0.984 . S
N639 H643 0.985 . S
H640 N635 0.984 . S
H641 N635 0.985 1_556 S
H642 N639 0.984 . S
H643 N639 0.985 . S
H644 N638 0.984 . S
H645 N638 0.984 . S
H646 N634 0.984 . S
H647 N634 0.985 . S
C648 C649 1.363 . S
C648 C654 1.379 . S
C648 N656 1.356 . S
C649 C648 1.363 . S
C649 C655 1.363 . S
C650 C651 1.363 . S
C650 C655 1.379 . S
C650 N657 1.356 . S
C651 C650 1.363 . S
C651 C654 1.363 . S
N652 C654 1.356 . S
N652 H664 0.984 . S
N652 H665 0.985 . S
N653 C655 1.356 . S
N653 H658 0.984 . S
N653 H659 0.985 . S
C654 C648 1.379 . S
C654 C651 1.363 . S
C654 N652 1.356 . S
C655 C649 1.363 . S
C655 C650 1.379 . S
C655 N653 1.356 . S
N656 C648 1.356 . S
N656 H662 0.984 . S
N656 H663 0.984 . S
N657 C650 1.356 . S
N657 H660 0.984 . S
N657 H661 0.985 . S
H658 N653 0.984 . S
H659 N653 0.985 . S
H660 N657 0.984 . S
H661 N657 0.985 . S
H662 N656 0.984 . S
H663 N656 0.984 . S
H664 N652 0.984 . S
H665 N652 0.985 . S
C666 C667 1.363 . S
C666 C672 1.379 . S
C666 N674 1.356 . S
C667 C666 1.363 . S
C667 C673 1.363 . S
C668 C669 1.363 . S
C668 C673 1.379 . S
C668 N675 1.356 . S
C669 C668 1.363 . S
C669 C672 1.363 . S
N670 C672 1.356 . S
N670 H682 0.984 . S
N670 H683 0.985 . S
N671 C673 1.356 . S
N671 H676 0.984 . S
N671 H677 0.985 . S
C672 C666 1.379 . S
C672 C669 1.363 . S
C672 N670 1.356 . S
C673 C667 1.363 . S
C673 C668 1.379 . S
C673 N671 1.356 . S
N674 C666 1.356 . S
N674 H680 0.984 . S
N674 H681 0.984 . S
N675 C668 1.356 . S
N675 H678 0.984 . S
N675 H679 0.985 . S
H676 N671 0.984 . S
H677 N671 0.985 . S
H678 N675 0.984 . S
H679 N675 0.985 . S
H680 N674 0.984 . S
H681 N674 0.984 . S
H682 N670 0.984 . S
H683 N670 0.985 . S
C684 C685 1.363 . S
C684 C690 1.379 . S
C684 N692 1.356 . S
C685 C684 1.363 . S
C685 C691 1.363 . S
C686 C687 1.363 . S
C686 C691 1.379 . S
C686 N693 1.356 . S
C687 C686 1.363 . S
C687 C690 1.363 . S
N688 C690 1.356 . S
N688 H700 0.984 . S
N688 H701 0.985 . S
N689 C691 1.356 . S
N689 H694 0.984 . S
N689 H695 0.985 . S
C690 C684 1.379 . S
C690 C687 1.363 . S
C690 N688 1.356 . S
C691 C685 1.363 . S
C691 C686 1.379 . S
C691 N689 1.356 . S
N692 C684 1.356 . S
N692 H698 0.984 . S
N692 H699 0.984 . S
N693 C686 1.356 . S
N693 H696 0.984 . S
N693 H697 0.985 . S
H694 N689 0.984 . S
H695 N689 0.985 . S
H696 N693 0.984 . S
H697 N693 0.985 . S
H698 N692 0.984 . S
H699 N692 0.984 . S
H700 N688 0.984 . S
H701 N688 0.985 . S
C702 C703 1.363 . S
C702 C708 1.379 . S
C702 N710 1.356 . S
C703 C702 1.363 . S
C703 C709 1.363 . S
C704 C705 1.363 . S
C704 C709 1.379 . S
C704 N711 1.356 . S
C705 C704 1.363 . S
C705 C708 1.363 . S
N706 C708 1.356 . S
N706 H718 0.984 . S
N706 H719 0.985 . S
N707 C709 1.356 . S
N707 H712 0.984 . S
N707 H713 0.985 . S
C708 C702 1.379 . S
C708 C705 1.363 . S
C708 N706 1.356 . S
C709 C703 1.363 . S
C709 C704 1.379 . S
C709 N707 1.356 . S
N710 C702 1.356 . S
N710 H716 0.984 . S
N710 H717 0.984 . S
N711 C704 1.356 . S
N711 H714 0.984 . S
N711 H715 0.985 . S
H712 N707 0.984 . S
H713 N707 0.985 . S
H714 N711 0.984 . S
H715 N711 0.985 . S
H716 N710 0.984 . S
H717 N710 0.984 . S
H718 N706 0.984 . S
H719 N706 0.985 . S
C720 C721 1.363 . S
C720 C726 1.379 . S
C720 N728 1.356 . S
C721 C720 1.363 . S
C721 C727 1.363 . S
C722 C723 1.363 . S
C722 C727 1.379 . S
C722 N729 1.356 1_655 S
C723 C722 1.363 . S
C723 C726 1.363 . S
N724 C726 1.356 . S
N724 H736 0.984 . S
N724 H737 0.985 . S
N725 C727 1.356 1_455 S
N725 H730 0.984 . S
N725 H731 0.985 . S
C726 C720 1.379 . S
C726 C723 1.363 . S
C726 N724 1.356 . S
C727 C721 1.363 . S
C727 C722 1.379 . S
C727 N725 1.356 1_655 S
N728 C720 1.356 . S
N728 H734 0.984 . S
N728 H735 0.984 . S
N729 C722 1.356 1_455 S
N729 H732 0.984 1_455 S
N729 H733 0.985 . S
H730 N725 0.984 . S
H731 N725 0.985 . S
H732 N729 0.984 1_655 S
H733 N729 0.985 . S
H734 N728 0.984 . S
H735 N728 0.984 . S
H736 N724 0.984 . S
H737 N724 0.985 . S
C738 C739 1.363 . S
C738 C744 1.379 . S
C738 N746 1.356 . S
C739 C738 1.363 . S
C739 C745 1.363 . S
C740 C741 1.363 . S
C740 C745 1.379 . S
C740 N747 1.356 . S
C741 C740 1.363 . S
C741 C744 1.363 . S
N742 C744 1.356 . S
N742 H754 0.984 . S
N742 H755 0.985 . S
N743 C745 1.356 . S
N743 H748 0.984 . S
N743 H749 0.985 . S
C744 C738 1.379 . S
C744 C741 1.363 . S
C744 N742 1.356 . S
C745 C739 1.363 . S
C745 C740 1.379 . S
C745 N743 1.356 . S
N746 C738 1.356 . S
N746 H752 0.984 . S
N746 H753 0.984 . S
N747 C740 1.356 . S
N747 H750 0.984 . S
N747 H751 0.985 . S
H748 N743 0.984 . S
H749 N743 0.985 . S
H750 N747 0.984 . S
H751 N747 0.985 . S
H752 N746 0.984 . S
H753 N746 0.984 . S
H754 N742 0.984 . S
H755 N742 0.985 . S
C271 C10 1.270 . S
C273 C1 1.270 . S
C289 C31 1.284 . S
C291 C40 1.284 . S
C307 C70 1.313 . S
C309 C61 1.313 . S
C325 C91 1.270 . S
C327 C100 1.270 . S
C343 C130 1.284 . S
C345 C121 1.284 1_556 S
C361 C151 1.313 . S
C363 C160 1.313 . S
C379 C207 1.317 . S
C381 C196 1.317 1_554 S
C397 C226 1.263 . S
C399 C237 1.263 1_554 S
C415 C267 1.217 . S
C417 C256 1.217 1_554 S
C433 N164 1.509 . S
C435 C27 1.589 . S
C451 N44 1.197 . S
C453 N104 1.188 . S
C469 C87 1.949 1_565 S
C471 C147 2.010 . S
C487 N74 0.964 . S
C489 N186 1.021 . S
C505 C211 1.736 . S
C507 N14 1.587 . S
C523 N246 1.495 . S
C525 C57 1.464 . S
C541 C250 2.073 . S
C543 C16 2.008 . S
C559 N36 1.070 . S
C561 C190 1.183 . S
C577 N224 1.264 . S
C579 C76 1.314 . S
C595 N66 1.509 . S
C597 C106 1.589 . S
C613 N126 1.197 . S
C615 N6 1.188 . S
C631 C46 2.010 . S
C633 C166 1.949 . S
C649 C241 2.074 . S
C651 C117 2.008 . S
C667 C181 1.183 . S
C669 N134 1.069 . S
C685 N216 1.264 . S
C687 C177 1.314 . S
C703 N194 1.021 . S
C705 N156 0.963 . S
C721 N96 1.587 . S
C723 C220 1.736 . S
C739 N254 1.495 . S
C741 C136 1.464 . S
