# Generated by pormake.
# Topology why, (6)-cn, num edge types: 1
# Building blocks:
#     Node 0, Type 0, BuildingBlock: KUMBUR_clean_sbu_0, # of connection points: 6
#     Node 1, Type 0, BuildingBlock: KUMBUR_clean_sbu_0, # of connection points: 6
#     Node 2, Type 0, BuildingBlock: KUMBUR_clean_sbu_0, # of connection points: 6
#     Node 3, Type 0, BuildingBlock: KUMBUR_clean_sbu_0, # of connection points: 6
#     Node 4, Type 0, BuildingBlock: KUMBUR_clean_sbu_0, # of connection points: 6
#     Node 5, Type 0, BuildingBlock: KUMBUR_clean_sbu_0, # of connection points: 6
#     Node 6, Type 0, BuildingBlock: KUMBUR_clean_sbu_0, # of connection points: 6
#     Node 7, Type 0, BuildingBlock: KUMBUR_clean_sbu_0, # of connection points: 6
#     Node 8, Type 0, BuildingBlock: KUMBUR_clean_sbu_0, # of connection points: 6
#     Node 9, Type 0, BuildingBlock: KUMBUR_clean_sbu_0, # of connection points: 6
#     Node 10, Type 0, BuildingBlock: KUMBUR_clean_sbu_0, # of connection points: 6
#     Node 11, Type 0, BuildingBlock: KUMBUR_clean_sbu_0, # of connection points: 6
#     Node 12, Type 0, BuildingBlock: KUMBUR_clean_sbu_0, # of connection points: 6
#     Node 13, Type 0, BuildingBlock: KUMBUR_clean_sbu_0, # of connection points: 6
#     Node 14, Type 0, BuildingBlock: KUMBUR_clean_sbu_0, # of connection points: 6
#     Node 15, Type 0, BuildingBlock: KUMBUR_clean_sbu_0, # of connection points: 6
#     Edge 16, Type (0, 0), BuildingBlock: UVAHIK_clean_linker_0, # of connection points: 2
#     Edge 17, Type (0, 0), BuildingBlock: UVAHIK_clean_linker_0, # of connection points: 2
#     Edge 18, Type (0, 0), BuildingBlock: UVAHIK_clean_linker_0, # of connection points: 2
#     Edge 19, Type (0, 0), BuildingBlock: UVAHIK_clean_linker_0, # of connection points: 2
#     Edge 20, Type (0, 0), BuildingBlock: UVAHIK_clean_linker_0, # of connection points: 2
#     Edge 21, Type (0, 0), BuildingBlock: UVAHIK_clean_linker_0, # of connection points: 2
#     Edge 22, Type (0, 0), BuildingBlock: UVAHIK_clean_linker_0, # of connection points: 2
#     Edge 23, Type (0, 0), BuildingBlock: UVAHIK_clean_linker_0, # of connection points: 2
#     Edge 24, Type (0, 0), BuildingBlock: UVAHIK_clean_linker_0, # of connection points: 2
#     Edge 25, Type (0, 0), BuildingBlock: UVAHIK_clean_linker_0, # of connection points: 2
#     Edge 26, Type (0, 0), BuildingBlock: UVAHIK_clean_linker_0, # of connection points: 2
#     Edge 27, Type (0, 0), BuildingBlock: UVAHIK_clean_linker_0, # of connection points: 2
#     Edge 28, Type (0, 0), BuildingBlock: UVAHIK_clean_linker_0, # of connection points: 2
#     Edge 29, Type (0, 0), BuildingBlock: UVAHIK_clean_linker_0, # of connection points: 2
#     Edge 30, Type (0, 0), BuildingBlock: UVAHIK_clean_linker_0, # of connection points: 2
#     Edge 31, Type (0, 0), BuildingBlock: UVAHIK_clean_linker_0, # of connection points: 2
#     Edge 32, Type (0, 0), BuildingBlock: UVAHIK_clean_linker_0, # of connection points: 2
#     Edge 33, Type (0, 0), BuildingBlock: UVAHIK_clean_linker_0, # of connection points: 2
#     Edge 34, Type (0, 0), BuildingBlock: UVAHIK_clean_linker_0, # of connection points: 2
#     Edge 35, Type (0, 0), BuildingBlock: UVAHIK_clean_linker_0, # of connection points: 2
#     Edge 36, Type (0, 0), BuildingBlock: UVAHIK_clean_linker_0, # of connection points: 2
#     Edge 37, Type (0, 0), BuildingBlock: UVAHIK_clean_linker_0, # of connection points: 2
#     Edge 38, Type (0, 0), BuildingBlock: UVAHIK_clean_linker_0, # of connection points: 2
#     Edge 39, Type (0, 0), BuildingBlock: UVAHIK_clean_linker_0, # of connection points: 2
#     Edge 40, Type (0, 0), BuildingBlock: UVAHIK_clean_linker_0, # of connection points: 2
#     Edge 41, Type (0, 0), BuildingBlock: UVAHIK_clean_linker_0, # of connection points: 2
#     Edge 42, Type (0, 0), BuildingBlock: UVAHIK_clean_linker_0, # of connection points: 2
#     Edge 43, Type (0, 0), BuildingBlock: UVAHIK_clean_linker_0, # of connection points: 2
#     Edge 44, Type (0, 0), BuildingBlock: UVAHIK_clean_linker_0, # of connection points: 2
#     Edge 45, Type (0, 0), BuildingBlock: UVAHIK_clean_linker_0, # of connection points: 2
#     Edge 46, Type (0, 0), BuildingBlock: UVAHIK_clean_linker_0, # of connection points: 2
#     Edge 47, Type (0, 0), BuildingBlock: UVAHIK_clean_linker_0, # of connection points: 2
#     Edge 48, Type (0, 0), BuildingBlock: UVAHIK_clean_linker_0, # of connection points: 2
#     Edge 49, Type (0, 0), BuildingBlock: UVAHIK_clean_linker_0, # of connection points: 2
#     Edge 50, Type (0, 0), BuildingBlock: UVAHIK_clean_linker_0, # of connection points: 2
#     Edge 51, Type (0, 0), BuildingBlock: UVAHIK_clean_linker_0, # of connection points: 2
#     Edge 52, Type (0, 0), BuildingBlock: UVAHIK_clean_linker_0, # of connection points: 2
#     Edge 53, Type (0, 0), BuildingBlock: UVAHIK_clean_linker_0, # of connection points: 2
#     Edge 54, Type (0, 0), BuildingBlock: UVAHIK_clean_linker_0, # of connection points: 2
#     Edge 55, Type (0, 0), BuildingBlock: UVAHIK_clean_linker_0, # of connection points: 2
#     Edge 56, Type (0, 0), BuildingBlock: UVAHIK_clean_linker_0, # of connection points: 2
#     Edge 57, Type (0, 0), BuildingBlock: UVAHIK_clean_linker_0, # of connection points: 2
#     Edge 58, Type (0, 0), BuildingBlock: UVAHIK_clean_linker_0, # of connection points: 2
#     Edge 59, Type (0, 0), BuildingBlock: UVAHIK_clean_linker_0, # of connection points: 2
#     Edge 60, Type (0, 0), BuildingBlock: UVAHIK_clean_linker_0, # of connection points: 2
#     Edge 61, Type (0, 0), BuildingBlock: UVAHIK_clean_linker_0, # of connection points: 2
#     Edge 62, Type (0, 0), BuildingBlock: UVAHIK_clean_linker_0, # of connection points: 2
#     Edge 63, Type (0, 0), BuildingBlock: UVAHIK_clean_linker_0, # of connection points: 2
# Relax obj value: 0.241
# Max RMSD: 0.217
# Mean RMSD: 0.217
data_MOF--net-why--node1-KUMBUR_clean_sbu_0--edge1-UVAHIK_clean_linker_0
_symmetry_space_group_name_H-M    P1
_symmetry_Int_Tables_number       1
_symmetry_cell_setting            triclinic
loop_
_symmetry_equiv_pos_as_xyz
'x, y, z'
_cell_length_a     61.464093
_cell_length_b     61.640367
_cell_length_c     48.741468
_cell_angle_alpha  89.910412
_cell_angle_beta   89.89736
_cell_angle_gamma 90.197866
loop_
_atom_site_label
_atom_site_type_symbol
_atom_site_fract_x
_atom_site_fract_y
_atom_site_fract_z
_atom_type_partial_charge
Tb0 Tb 0.44223 0.1712 0.03975 0.0
C1 C 0.43521 0.24709 0.10873 0.0
C2 C 0.46834 0.24071 0.13435 0.0
C3 C 0.45548 0.27757 0.12753 0.0
C4 C 0.45036 0.23275 0.11937 0.0
C5 C 0.43735 0.2696 0.11321 0.0
C6 C 0.47095 0.26317 0.13804 0.0
C7 C 0.40271 0.2746 0.09072 0.0
N8 N 0.41791 0.23891 0.09488 0.0
C9 C 0.40125 0.25218 0.08685 0.0
C10 C 0.42097 0.28339 0.10364 0.0
Tb11 Tb 0.41764 0.20218 0.08876 0.0
N12 N 0.44755 0.2111 0.115 0.0
C13 C 0.46201 0.19657 0.12595 0.0
C14 C 0.48322 0.2259 0.14513 0.0
C15 C 0.47998 0.20376 0.141 0.0
H16 H 0.387 0.24543 0.07706 0.0
H17 H 0.49149 0.19217 0.14914 0.0
H18 H 0.48476 0.26955 0.14924 0.0
H19 H 0.38972 0.28508 0.08382 0.0
H20 H 0.46053 0.17942 0.1223 0.0
H21 H 0.47158 0.1916 0.9383 0.0
H22 H 0.49726 0.23138 0.15664 0.0
H23 H 0.40184 0.13625 0.0599 0.0
H24 H 0.47338 0.18942 0.98861 0.0
H25 H 0.37344 0.11497 0.03799 0.0
H26 H 0.45753 0.29482 0.13092 0.0
H27 H 0.44054 0.17518 0.91357 0.0
H28 H 0.40622 0.15306 0.91534 0.0
H29 H 0.42204 0.30077 0.10668 0.0
H30 H 0.37993 0.13178 0.94243 0.0
N31 N 0.44303 0.17283 0.99281 0.0
C32 C 0.45955 0.18244 0.97824 0.0
C33 C 0.44114 0.17433 0.93576 0.0
C34 C 0.425 0.16336 0.95062 0.0
C35 C 0.45867 0.18361 0.94963 0.0
C36 C 0.42654 0.16269 0.97949 0.0
H37 H 0.36809 0.11693 0.98787 0.0
N38 N 0.41437 0.14988 0.02252 0.0
C39 C 0.38421 0.12487 0.02556 0.0
C40 C 0.41187 0.15065 0.99479 0.0
C41 C 0.40083 0.1369 0.03791 0.0
C42 C 0.38116 0.12609 0.9973 0.0
C43 C 0.39508 0.13902 0.98151 0.0
O44 O 0.46896 0.15723 0.05999 0.0
O45 O 0.44966 0.19543 0.07166 0.0
O46 O 0.42032 0.22397 0.05262 0.0
O47 O 0.43417 0.2013 0.01806 0.0
O48 O 0.46693 0.19761 0.03619 0.0
O49 O 0.46042 0.14736 0.01918 0.0
O50 O 0.39241 0.18449 0.10775 0.0
O51 O 0.40999 0.17939 0.05557 0.0
O52 O 0.43567 0.14791 0.07444 0.0
O53 O 0.4248 0.17018 0.10999 0.0
O54 O 0.39069 0.20634 0.05911 0.0
O55 O 0.4018 0.21569 0.12311 0.0
C56 C 0.46461 0.20724 0.05943 0.0
C57 C 0.49802 0.14998 0.02959 0.0
C58 C 0.52518 0.15517 0.99347 0.0
C59 C 0.50376 0.15038 1.00161 0.0
C60 C 0.54106 0.15895 0.01364 0.0
C61 C 0.51422 0.15354 0.0494 0.0
C62 C 0.5356 0.15797 0.04142 0.0
C63 C 0.4267 0.22023 0.02693 0.0
C64 C 0.47516 0.14669 0.03825 0.0
C65 C 0.39288 0.1404 0.95289 0.0
C66 C 0.40781 0.15255 0.93747 0.0
C67 C 0.39325 0.18909 0.04448 0.0
C68 C 0.36451 0.20718 0.12523 0.0
C69 C 0.35758 0.22082 0.14656 0.0
C70 C 0.33594 0.22817 0.14778 0.0
C71 C 0.32124 0.22154 0.12733 0.0
C72 C 0.34956 0.20078 0.10499 0.0
C73 C 0.32805 0.20794 0.10612 0.0
C74 C 0.43022 0.15047 0.10074 0.0
C75 C 0.38746 0.20025 0.12428 0.0
H76 H 0.49148 0.14764 0.98607 0.0
H77 H 0.55773 0.16252 1.00791 0.0
H78 H 0.51032 0.15316 0.07108 0.0
H79 H 0.54794 0.16083 0.05681 0.0
H80 H 0.36906 0.22557 0.16232 0.0
H81 H 0.30455 0.22712 0.12749 0.0
H82 H 0.35443 0.19033 0.08827 0.0
H83 H 0.31665 0.20301 0.0904 0.0
Tb84 Tb 0.67839 0.69226 0.28874 0.0
C85 C 0.60226 0.68408 0.35792 0.0
C86 C 0.60794 0.71757 0.38292 0.0
C87 C 0.57127 0.7036 0.37652 0.0
C88 C 0.6163 0.69972 0.36822 0.0
C89 C 0.57966 0.68557 0.36255 0.0
C90 C 0.58537 0.71957 0.38664 0.0
C91 C 0.57547 0.65048 0.34109 0.0
N92 N 0.61085 0.66688 0.34441 0.0
C93 C 0.59796 0.64971 0.33696 0.0
C94 C 0.56623 0.66864 0.35355 0.0
Tb95 Tb 0.64764 0.66761 0.3381 0.0
N96 N 0.63808 0.69743 0.3639 0.0
C97 C 0.65235 0.71229 0.37469 0.0
C98 C 0.62248 0.7329 0.39346 0.0
C99 C 0.64475 0.73018 0.38943 0.0
H100 H 0.60507 0.63558 0.32743 0.0
H101 H 0.65613 0.74202 0.39742 0.0
H102 H 0.57867 0.73329 0.39763 0.0
H103 H 0.56528 0.63708 0.33465 0.0
H104 H 0.66959 0.71118 0.37111 0.0
H105 H 0.65817 0.72207 0.18757 0.0
H106 H 0.61668 0.74687 0.40474 0.0
H107 H 0.71344 0.65215 0.30854 0.0
H108 H 0.65972 0.72332 0.23787 0.0
H109 H 0.73488 0.62415 0.28636 0.0
H110 H 0.55393 0.70516 0.38001 0.0
H111 H 0.67537 0.69178 0.16249 0.0
H112 H 0.69786 0.65793 0.1639 0.0
H113 H 0.54879 0.66918 0.35675 0.0
H114 H 0.71908 0.63169 0.19074 0.0
N115 N 0.67696 0.69345 0.2418 0.0
C116 C 0.66707 0.70979 0.22742 0.0
C117 C 0.676 0.69215 0.1847 0.0
C118 C 0.68707 0.67612 0.19939 0.0
C119 C 0.66626 0.70925 0.19877 0.0
C120 C 0.68749 0.67737 0.2283 0.0
H121 H 0.73342 0.61939 0.23613 0.0
N122 N 0.70013 0.66498 0.27123 0.0
C123 C 0.72511 0.63498 0.27401 0.0
C124 C 0.69958 0.66277 0.24346 0.0
C125 C 0.713 0.65139 0.28651 0.0
C126 C 0.72416 0.63227 0.24569 0.0
C127 C 0.7114 0.64627 0.23001 0.0
O128 O 0.69158 0.71937 0.30905 0.0
O129 O 0.65401 0.6996 0.32067 0.0
O130 O 0.62582 0.66973 0.30195 0.0
O131 O 0.64871 0.68261 0.26687 0.0
O132 O 0.65131 0.71595 0.28465 0.0
O133 O 0.70235 0.71084 0.26858 0.0
O134 O 0.63438 0.65186 0.3728 0.0
O135 O 0.67062 0.66014 0.30499 0.0
O136 O 0.70189 0.68581 0.32324 0.0
O137 O 0.67948 0.67567 0.35917 0.0
O138 O 0.64407 0.64017 0.30903 0.0
O139 O 0.66584 0.64313 0.35748 0.0
C140 C 0.64179 0.71386 0.30805 0.0
C141 C 0.69882 0.74832 0.27852 0.0
C142 C 0.6933 0.77494 0.24197 0.0
C143 C 0.6985 0.75379 0.25046 0.0
C144 C 0.68909 0.79084 0.2619 0.0
C145 C 0.69481 0.76455 0.29808 0.0
C146 C 0.69002 0.78568 0.28976 0.0
C147 C 0.62968 0.67514 0.27588 0.0
C148 C 0.70241 0.72568 0.2875 0.0
C149 C 0.7103 0.64439 0.20134 0.0
C150 C 0.69818 0.65929 0.18606 0.0
C151 C 0.6613 0.64304 0.29423 0.0
C152 C 0.64353 0.61491 0.37533 0.0
C153 C 0.62984 0.60781 0.39665 0.0
C154 C 0.62283 0.58607 0.39803 0.0
C155 C 0.62984 0.57145 0.37776 0.0
C156 C 0.65033 0.60001 0.3553 0.0
C157 C 0.6435 0.57842 0.35657 0.0
C158 C 0.69928 0.68084 0.34971 0.0
C159 C 0.65009 0.63795 0.37411 0.0
H160 H 0.7016 0.74149 0.23511 0.0
H161 H 0.68522 0.80732 0.25593 0.0
H162 H 0.69511 0.76085 0.31981 0.0
H163 H 0.68681 0.79804 0.30497 0.0
H164 H 0.62478 0.61925 0.41226 0.0
H165 H 0.62451 0.55468 0.37804 0.0
H166 H 0.66084 0.60501 0.33862 0.0
H167 H 0.64873 0.56707 0.34099 0.0
Tb168 Tb 0.15824 0.92728 0.54123 0.0
C169 C 0.16592 0.85095 0.60928 0.0
C170 C 0.13257 0.85654 0.63489 0.0
C171 C 0.14603 0.81996 0.62758 0.0
C172 C 0.15049 0.86493 0.62008 0.0
C173 C 0.16412 0.82837 0.61347 0.0
C174 C 0.13028 0.83401 0.63822 0.0
C175 C 0.19907 0.82418 0.59132 0.0
N176 N 0.18319 0.85955 0.59566 0.0
C177 C 0.20016 0.84665 0.58768 0.0
C178 C 0.18082 0.81495 0.60391 0.0
Tb179 Tb 0.1829 0.89633 0.59006 0.0
N180 N 0.15303 0.88668 0.61609 0.0
C181 C 0.13836 0.90087 0.62731 0.0
C182 C 0.11745 0.87101 0.64589 0.0
C183 C 0.12042 0.89324 0.64219 0.0
H184 H 0.21437 0.85375 0.57807 0.0
H185 H 0.10874 0.90456 0.65054 0.0
H186 H 0.11651 0.82729 0.64928 0.0
H187 H 0.2123 0.81399 0.58444 0.0
H188 H 0.13966 0.91809 0.62401 0.0
H189 H 0.12896 0.90709 0.43979 0.0
H190 H 0.10344 0.86518 0.65728 0.0
H191 H 0.19858 0.96215 0.56146 0.0
H192 H 0.12759 0.90817 0.49007 0.0
H193 H 0.22672 0.98388 0.53953 0.0
H194 H 0.14423 0.80264 0.63074 0.0
H195 H 0.15919 0.925 0.41492 0.0
H196 H 0.19295 0.94791 0.4166 0.0
H197 H 0.18003 0.79753 0.60675 0.0
H198 H 0.21914 0.96911 0.44369 0.0
N199 N 0.15726 0.92603 0.49425 0.0
C200 C 0.14105 0.91592 0.47973 0.0
C201 C 0.15875 0.92547 0.43713 0.0
C202 C 0.17467 0.93667 0.45196 0.0
C203 C 0.14168 0.91533 0.45108 0.0
C204 C 0.17332 0.93688 0.48087 0.0
H205 H 0.23146 0.98302 0.48926 0.0
N206 N 0.18564 0.94927 0.52397 0.0
C207 C 0.21582 0.97424 0.52706 0.0
C208 C 0.18788 0.94899 0.49618 0.0
C209 C 0.19933 0.96197 0.53942 0.0
C210 C 0.21852 0.97363 0.49871 0.0
C211 C 0.20445 0.961 0.48287 0.0
O212 O 0.13086 0.94006 0.56145 0.0
O213 O 0.15079 0.9028 0.57306 0.0
O214 O 0.18048 0.87476 0.55366 0.0
O215 O 0.16782 0.89799 0.51906 0.0
O216 O 0.13443 0.90017 0.53705 0.0
O217 O 0.13974 0.95118 0.52122 0.0
O218 O 0.19856 0.88262 0.62442 0.0
O219 O 0.19045 0.91948 0.55718 0.0
O220 O 0.1646 0.95054 0.57582 0.0
O221 O 0.17515 0.92811 0.61139 0.0
O222 O 0.21038 0.89307 0.5608 0.0
O223 O 0.20765 0.91413 0.60969 0.0
C224 C 0.13643 0.89064 0.56041 0.0
C225 C 0.10228 0.94538 0.52991 0.0
C226 C 0.07807 0.9362 0.49212 0.0
C227 C 0.0977 0.94495 0.50163 0.0
C228 C 0.06237 0.92897 0.51096 0.0
C229 C 0.08616 0.93858 0.54858 0.0
C230 C 0.06628 0.93054 0.5391 0.0
C231 C 0.17509 0.87891 0.52769 0.0
C232 C 0.12447 0.95052 0.53971 0.0
C233 C 0.20639 0.96017 0.45418 0.0
C234 C 0.19151 0.94805 0.43876 0.0
C235 C 0.20756 0.91034 0.54621 0.0
C236 C 0.2357 0.89162 0.62714 0.0
C237 C 0.24273 0.87805 0.64853 0.0
C238 C 0.26448 0.87101 0.6498 0.0
C239 C 0.27915 0.87783 0.62933 0.0
C240 C 0.25066 0.89824 0.60694 0.0
C241 C 0.27224 0.89136 0.60809 0.0
C242 C 0.16978 0.94785 0.60216 0.0
C243 C 0.21266 0.89823 0.62604 0.0
H244 H 0.10979 0.95026 0.48685 0.0
H245 H 1.04714 0.9221 0.50388 0.0
H246 H 0.08917 0.93884 0.57048 0.0
H247 H 0.0541 0.92499 0.55359 0.0
H248 H 0.23125 0.87313 0.66427 0.0
H249 H 0.29591 0.87246 0.62949 0.0
H250 H 0.24571 0.90865 0.59022 0.0
H251 H 0.28364 0.89645 0.59237 0.0
Tb252 Tb 0.92121 0.40631 0.78865 0.0
C253 C 0.99473 0.40706 0.86046 0.0
C254 C 0.98299 0.37577 0.8867 0.0
C255 C 1.02154 0.38376 0.8823 0.0
C256 C 0.97813 0.39417 0.87054 0.0
C257 C 1.01665 0.40204 0.8663 0.0
C258 C 1.00474 0.37066 0.89251 0.0
C259 C 1.02743 0.43363 0.84033 0.0
N260 N 0.98944 0.4244 0.84471 0.0
C261 C 1.00553 0.43798 0.83514 0.0
C262 C 1.03304 0.4155 0.85585 0.0
Tb263 Tb 0.95281 0.43035 0.8378 0.0
N264 N 0.95732 0.39919 0.8637 0.0
C265 C 0.94057 0.38636 0.87305 0.0
C266 C 0.96589 0.3628 0.8962 0.0
C267 C 0.9446 0.36813 0.88931 0.0
H268 H 1.00139 0.45233 0.82347 0.0
H269 H 0.93123 0.35804 0.89628 0.0
H270 H 1.00874 0.35655 0.90476 0.0
H271 H 1.03997 0.44433 0.83243 0.0
H272 H 0.92401 0.38944 0.8674 0.0
H273 H 0.94108 0.37643 0.68726 0.0
H274 H 0.96896 0.34853 0.9086 0.0
H275 H 0.8871 0.44721 0.80862 0.0
H276 H 0.94028 0.37548 0.73749 0.0
H277 H 0.86537 0.475 0.78658 0.0
H278 H 1.03826 0.3796 0.88689 0.0
H279 H 0.9226 0.40595 0.66219 0.0
H280 H 0.89944 0.43928 0.66365 0.0
H281 H 0.05004 0.41215 0.85985 0.0
H282 H 0.87856 0.46568 0.69062 0.0
N283 N 0.92208 0.4048 0.7416 0.0
C284 C 0.93235 0.38872 0.72714 0.0
C285 C 0.92227 0.40573 0.68442 0.0
C286 C 0.91103 0.42159 0.69916 0.0
C287 C 0.93274 0.38907 0.69848 0.0
C288 C 0.91105 0.42056 0.72811 0.0
H289 H 0.86548 0.47881 0.73619 0.0
N290 N 0.89934 0.43356 0.7712 0.0
C291 C 0.87471 0.46385 0.77414 0.0
C292 C 0.89919 0.4353 0.74335 0.0
C293 C 0.88697 0.44754 0.78659 0.0
C294 C 0.87487 0.46602 0.74572 0.0
C295 C 0.88711 0.45164 0.72993 0.0
O296 O 0.90824 0.37952 0.81005 0.0
O297 O 0.94644 0.39887 0.81957 0.0
O298 O 0.97329 0.4294 0.80005 0.0
O299 O 0.9498 0.4168 0.76571 0.0
O300 O 0.94835 0.38251 0.78383 0.0
O301 O 0.89714 0.38741 0.76943 0.0
O302 O 0.97033 0.45314 0.86133 0.0
O303 O 0.92931 0.43827 0.80548 0.0
O304 O 0.89761 0.4128 0.82305 0.0
O305 O 0.9193 0.42708 0.85732 0.0
O306 O 0.95448 0.45941 0.81093 0.0
O307 O 0.93676 0.44687 0.86967 0.0
C308 C 0.95851 0.38472 0.80673 0.0
C309 C 0.8979 0.35009 0.78183 0.0
C310 C 0.90219 0.32123 0.74773 0.0
C311 C 0.90153 0.34342 0.7546 0.0
C312 C 0.89894 0.30579 0.7687 0.0
C313 C 0.89488 0.33436 0.8023 0.0
C314 C 0.89541 0.31236 0.79574 0.0
C315 C 0.96883 0.42443 0.77404 0.0
C316 C 0.89657 0.37328 0.78925 0.0
C317 C 0.88757 0.45313 0.70119 0.0
C318 C 0.89949 0.43813 0.68584 0.0
C319 C 0.93772 0.45619 0.7956 0.0
C320 C 0.95987 0.453 0.90753 0.0
C321 C 0.9729 0.46842 0.92091 0.0
C322 C 0.9793 0.46526 0.94835 0.0
C323 C 0.97235 0.44641 0.9622 0.0
C324 C 0.95306 0.43434 0.92177 0.0
C325 C 0.95928 0.43112 0.94896 0.0
C326 C 0.89978 0.42025 0.84859 0.0
C327 C 0.95448 0.45607 0.87839 0.0
H328 H 0.90393 0.35548 0.73878 0.0
H329 H 0.89877 0.28859 0.76425 0.0
H330 H 0.89194 0.3391 0.82338 0.0
H331 H 0.89291 0.30032 0.81164 0.0
H332 H 0.97802 0.48285 0.90989 0.0
H333 H 0.97731 0.44325 0.98313 0.0
H334 H 0.94308 0.42217 0.91188 0.0
H335 H 0.95411 0.41663 0.95975 0.0
Tb336 Tb 0.68355 0.8962 0.92441 0.0
C337 C 0.68852 0.9474 0.01862 0.0
C338 C 0.67509 0.93448 0.06256 0.0
C339 C 0.7072 0.95748 0.0608 0.0
C340 C 0.67376 0.93527 0.03367 0.0
C341 C 0.70519 0.959 0.03217 0.0
C342 C 0.69218 0.94524 0.07597 0.0
C343 C 0.71625 0.97349 0.98837 0.0
N344 N 0.68618 0.94832 0.99088 0.0
C345 C 0.69974 0.96148 0.97575 0.0
C346 C 0.71916 0.97207 0.01664 0.0
Tb347 Tb 0.65854 0.92698 0.97317 0.0
N348 N 0.65736 0.92519 0.0201 0.0
C349 C 0.64073 0.91555 0.03441 0.0
C350 C 0.65884 0.92345 0.07716 0.0
C351 C 0.6414 0.91425 0.06303 0.0
H352 H 0.69882 0.96229 0.95375 0.0
H353 H 0.6284 0.90624 0.07416 0.0
H354 H 0.69362 0.94463 0.09811 0.0
H355 H 0.72704 0.98352 0.97614 0.0
H356 H 0.62695 0.90862 0.02385 0.0
H357 H 0.61003 0.90613 0.86338 0.0
H358 H 0.65928 0.92251 0.09935 0.0
H359 H 0.71422 0.853 0.93633 0.0
H360 H 0.64079 0.9189 0.89057 0.0
H361 H 0.71165 0.81335 0.92941 0.0
H362 H 0.72006 0.96607 0.07147 0.0
H363 H 0.60443 0.86693 0.85567 0.0
H364 H 0.61701 0.82878 0.86302 0.0
H365 H 0.73214 0.98122 0.02628 0.0
H366 H 0.6442 0.80354 0.88152 0.0
N367 N 0.65384 0.88725 0.89785 0.0
C368 C 0.63939 0.90176 0.88683 0.0
C369 C 0.61839 0.87242 0.86733 0.0
C370 C 0.63326 0.85763 0.87818 0.0
C371 C 0.62154 0.89456 0.87158 0.0
C372 C 0.65111 0.8656 0.89336 0.0
H373 H 0.67954 0.79763 0.90613 0.0
N374 N 0.68342 0.85948 0.91818 0.0
C375 C 0.69868 0.82381 0.92239 0.0
C376 C 0.66624 0.85128 0.90411 0.0
C377 C 0.70005 0.84622 0.92636 0.0
C378 C 0.68053 0.81501 0.90924 0.0
C379 C 0.66419 0.82878 0.89953 0.0
O380 O 0.70882 0.914 0.90566 0.0
O381 O 0.691 0.91907 0.95768 0.0
O382 O 0.66525 0.95035 0.9386 0.0
O383 O 0.67646 0.9282 0.90314 0.0
O384 O 0.71032 0.89208 0.9543 0.0
O385 O 0.69969 0.88274 0.89024 0.0
O386 O 0.6318 0.94081 0.9528 0.0
O387 O 0.65139 0.90273 0.94123 0.0
O388 O 0.6808 0.87437 0.96051 0.0
O389 O 0.66661 0.89694 0.99493 0.0
O390 O 0.63389 0.90046 0.97642 0.0
O391 O 0.6403 0.95087 0.99355 0.0
C392 C 0.7077 0.90935 0.96888 0.0
C393 C 0.73695 0.89139 0.88862 0.0
C394 C 0.76576 0.87037 0.86664 0.0
C395 C 0.7441 0.87767 0.8675 0.0
C396 C 0.78027 0.87713 0.88723 0.0
C397 C 0.75172 0.89793 0.90901 0.0
C398 C 0.77325 0.89082 0.90823 0.0
C399 C 0.6709 0.94787 0.91236 0.0
C400 C 0.71397 0.89823 0.88924 0.0
C401 C 0.64618 0.82079 0.885 0.0
C402 C 0.63074 0.83517 0.87438 0.0
C403 C 0.6364 0.89081 0.95322 0.0
C404 C 0.60271 0.94811 0.98316 0.0
C405 C 0.59698 0.94789 0.01114 0.0
C406 C 0.5756 0.94304 0.01937 0.0
C407 C 0.55973 0.93903 0.99926 0.0
C408 C 0.58651 0.94433 0.9634 0.0
C409 C 0.56516 0.93985 0.97147 0.0
C410 C 0.67424 0.87806 0.98612 0.0
C411 C 0.62556 0.95142 0.97447 0.0
H412 H 0.73276 0.87282 0.85162 0.0
H413 H 0.79697 0.87159 0.88734 0.0
H414 H 0.74668 0.90845 0.92558 0.0
H415 H 0.78451 0.89586 0.92406 0.0
H416 H 0.60926 0.9508 0.02665 0.0
H417 H 0.54308 0.93541 1.00505 0.0
H418 H 0.59041 0.94456 0.94172 0.0
H419 H 0.55282 0.93681 0.95612 0.0
Tb420 Tb 0.45561 0.43216 0.6756 0.0
C421 C 0.40382 0.43849 0.76936 0.0
C422 C 0.41642 0.42578 0.81368 0.0
C423 C 0.39363 0.45779 0.81102 0.0
C424 C 0.41578 0.42399 0.78484 0.0
C425 C 0.39229 0.45537 0.78243 0.0
C426 C 0.40567 0.44303 0.82662 0.0
C427 C 0.37833 0.46592 0.73826 0.0
N428 N 0.40307 0.43576 0.74167 0.0
C429 C 0.39021 0.44917 0.72612 0.0
C430 C 0.37952 0.46918 0.76647 0.0
Tb431 Tb 0.42429 0.40785 0.72477 0.0
N432 N 0.42588 0.40746 0.77172 0.0
C433 C 0.43545 0.39114 0.78649 0.0
C434 C 0.42733 0.40984 0.82873 0.0
C435 C 0.43659 0.39226 0.81508 0.0
H436 H 0.38958 0.44795 0.70414 0.0
H437 H 0.44453 0.37951 0.82657 0.0
H438 H 0.40617 0.44481 0.84873 0.0
H439 H 0.36855 0.47659 0.72569 0.0
H440 H 0.44243 0.37729 0.77628 0.0
H441 H 0.44548 0.3582 0.61573 0.0
H442 H 0.42816 0.41063 0.85092 0.0
H443 H 0.49909 0.46288 0.68713 0.0
H444 H 0.43274 0.3891 0.64241 0.0
H445 H 0.53885 0.46027 0.68035 0.0
H446 H 0.38509 0.47081 0.82132 0.0
H447 H 0.48479 0.35258 0.60818 0.0
H448 H 0.52308 0.36523 0.61543 0.0
H449 H 0.37046 0.48233 0.77573 0.0
H450 H 0.54848 0.39255 0.63356 0.0
N451 N 0.46453 0.40225 0.64954 0.0
C452 C 0.44994 0.38771 0.63871 0.0
C453 C 0.47931 0.36661 0.61961 0.0
C454 C 0.49419 0.38156 0.63026 0.0
C455 C 0.45711 0.36977 0.62376 0.0
C456 C 0.48624 0.39951 0.64514 0.0
H457 H 0.55452 0.42804 0.65761 0.0
N458 N 0.49246 0.43199 0.66941 0.0
C459 C 0.52831 0.44727 0.67351 0.0
C460 C 0.50064 0.41472 0.65566 0.0
C461 C 0.50583 0.44866 0.67739 0.0
C462 C 0.53708 0.42905 0.66066 0.0
C463 C 0.52322 0.41265 0.65118 0.0
O464 O 0.43777 0.45691 0.65627 0.0
O465 O 0.43271 0.44001 0.70881 0.0
O466 O 0.40109 0.41409 0.68997 0.0
O467 O 0.42361 0.42475 0.65437 0.0
O468 O 0.45988 0.45922 0.70501 0.0
O469 O 0.46934 0.4481 0.64134 0.0
O470 O 0.41006 0.38102 0.705 0.0
O471 O 0.44859 0.40029 0.69292 0.0
O472 O 0.47737 0.42967 0.7117 0.0
O473 O 0.45448 0.41595 0.74633 0.0
O474 O 0.4506 0.38319 0.72842 0.0
O475 O 0.40025 0.38991 0.74573 0.0
C476 C 0.44257 0.45675 0.71974 0.0
C477 C 0.46034 0.4851 0.63894 0.0
C478 C 0.481 0.51403 0.61637 0.0
C479 C 0.47395 0.49229 0.6176 0.0
C480 C 0.47409 0.52855 0.63682 0.0
C481 C 0.45365 0.49989 0.65916 0.0
C482 C 0.46051 0.52148 0.65803 0.0
C483 C 0.40379 0.41934 0.66362 0.0
C484 C 0.45369 0.46209 0.63991 0.0
C485 C 0.53118 0.39454 0.63696 0.0
C486 C 0.51671 0.37903 0.62655 0.0
C487 C 0.46033 0.38541 0.70515 0.0
C488 C 0.40265 0.35232 0.73589 0.0
C489 C 0.40323 0.34688 0.76395 0.0
C490 C 0.40796 0.3256 0.77237 0.0
C491 C 0.41147 0.30957 0.75239 0.0
C492 C 0.40595 0.33596 0.71628 0.0
C493 C 0.4103 0.31473 0.72454 0.0
C494 C 0.47351 0.42339 0.73739 0.0
C495 C 0.39948 0.37503 0.7269 0.0
H496 H 0.47893 0.48094 0.60185 0.0
H497 H 0.47944 0.54531 0.63665 0.0
H498 H 0.4432 0.4948 0.67587 0.0
H499 H 0.45536 0.53275 0.67375 0.0
H500 H 0.40068 0.35928 0.77934 0.0
H501 H 0.41495 0.293 0.75832 0.0
H502 H 0.40543 0.33963 0.69455 0.0
H503 H 0.41295 0.30226 0.7093 0.0
Tb504 Tb 0.92097 0.20233 0.42541 0.0
C505 C 0.91427 0.14971 0.52075 0.0
C506 C 0.92499 0.1634 0.56519 0.0
C507 C 0.89498 0.1378 0.56175 0.0
C508 C 0.92754 0.16265 0.53646 0.0
C509 C 0.8979 0.13693 0.53318 0.0
C510 C 0.90851 0.15103 0.57774 0.0
C511 C 0.88889 0.12314 0.48832 0.0
N512 N 0.9174 0.14967 0.49323 0.0
C513 C 0.90532 0.13614 0.477 0.0
C514 C 0.88504 0.12365 0.51653 0.0
Tb515 Tb 0.94498 0.1712 0.47645 0.0
N516 N 0.94312 0.1744 0.52348 0.0
C517 C 0.95769 0.1864 0.5385 0.0
C518 C 0.93916 0.17645 0.58043 0.0
C519 C 0.95563 0.18794 0.567 0.0
H520 H 0.90789 0.1356 0.45519 0.0
H521 H 0.96689 0.19785 0.57862 0.0
H522 H 0.9062 0.15146 0.59978 0.0
H523 H 0.87917 0.11278 0.47524 0.0
H524 H 0.97056 0.19532 0.5284 0.0
H525 H 0.99266 0.1848 0.36458 0.0
H526 H 0.93771 0.17753 0.60254 0.0
H527 H 0.89629 0.24919 0.43977 0.0
H528 H 0.96108 0.17591 0.3932 0.0
H529 H 0.90222 0.28817 0.43079 0.0
H530 H 0.88241 0.12822 0.57166 0.0
H531 H 1.00147 0.22307 0.35406 0.0
H532 H 0.99215 0.26245 0.35908 0.0
H533 H 0.87226 0.11363 0.52524 0.0
H534 H 0.96775 0.29053 0.3773 0.0
N535 N 0.95159 0.20875 0.39938 0.0
C536 C 0.96439 0.19265 0.38879 0.0
C537 C 0.98739 0.21925 0.3666 0.0
C538 C 0.97402 0.23565 0.37684 0.0
C539 C 0.98248 0.19765 0.37252 0.0
C540 C 0.95591 0.2298 0.39312 0.0
H541 H 0.93424 0.30026 0.40399 0.0
N542 N 0.92511 0.23917 0.41893 0.0
C543 C 0.9137 0.27638 0.42308 0.0
C544 C 0.94229 0.24554 0.4034 0.0
C545 C 0.91045 0.25428 0.42815 0.0
C546 C 0.93176 0.28313 0.40792 0.0
C547 C 0.94623 0.26766 0.39767 0.0
O548 O 0.89468 0.21695 0.4046 0.0
O549 O 0.91334 0.17951 0.45874 0.0
O550 O 0.94401 0.14983 0.43878 0.0
O551 O 0.9223 0.16829 0.40815 0.0
O552 O 0.89119 0.2032 0.45136 0.0
O553 O 0.90989 0.18829 0.38879 0.0
O554 O 0.95626 0.13946 0.47015 0.0
O555 O 0.95244 0.19502 0.44373 0.0
O556 O 0.92455 0.22365 0.46154 0.0
O557 O 0.93242 0.19967 0.49756 0.0
O558 O 0.97178 0.19572 0.47703 0.0
O559 O 0.9755 0.16247 0.49254 0.0
C560 C 0.89496 0.1873 0.46783 0.0
C561 C 0.89873 0.21463 0.35655 0.0
C562 C 0.88318 0.23704 0.32024 0.0
C563 C 0.88145 0.22695 0.3461 0.0
C564 C 0.90254 0.23481 0.3051 0.0
C565 C 0.91791 0.21256 0.34099 0.0
C566 C 0.91977 0.22268 0.31549 0.0
C567 C 0.93302 0.15033 0.4152 0.0
C568 C 0.89658 0.20413 0.38365 0.0
C569 C 0.96437 0.27362 0.38178 0.0
C570 C 0.97825 0.25764 0.37138 0.0
C571 C 0.96833 0.20621 0.4547 0.0
C572 C 0.97519 0.12611 0.50881 0.0
C573 C 0.98564 0.13176 0.53345 0.0
C574 C 0.9873 0.11676 0.55515 0.0
C575 C 0.97849 0.09586 0.55182 0.0
C576 C 0.96668 0.10503 0.50591 0.0
C577 C 0.9683 0.09007 0.52732 0.0
C578 C 0.92769 0.21913 0.48786 0.0
C579 C 0.97284 0.14213 0.48634 0.0
H580 H 0.86657 0.22841 0.35792 0.0
H581 H 0.90442 0.24264 0.28532 0.0
H582 H 0.93146 0.2031 0.34841 0.0
H583 H 0.93463 0.22108 0.30372 0.0
H584 H 0.99269 0.1478 0.53567 0.0
H585 H 0.9793 0.08403 0.56824 0.0
H586 H 0.95864 0.10013 0.48714 0.0
H587 H 0.96156 0.07394 0.52495 0.0
Tb588 Tb 0.14731 0.66798 0.17579 0.0
C589 C 0.19845 0.66307 0.27024 0.0
C590 C 0.18489 0.67547 0.31427 0.0
C591 C 0.2087 0.64417 0.31221 0.0
C592 C 0.18584 0.67722 0.28541 0.0
C593 C 0.21032 0.64657 0.28362 0.0
C594 C 0.19601 0.65859 0.3275 0.0
C595 C 0.22511 0.63631 0.23974 0.0
N596 N 0.19946 0.66574 0.24254 0.0
C597 C 0.21288 0.65266 0.22728 0.0
C598 C 0.22368 0.6331 0.26797 0.0
Tb599 Tb 0.17768 0.69298 0.22507 0.0
N600 N 0.17537 0.6934 0.27201 0.0
C601 C 0.16507 0.70942 0.28654 0.0
C602 C 0.17329 0.69107 0.32904 0.0
C603 C 0.16362 0.70831 0.31512 0.0
H604 H 0.21374 0.65384 0.2053 0.0
H605 H 0.15513 0.72081 0.3264 0.0
H606 H 0.19529 0.65684 0.34961 0.0
H607 H 0.23534 0.6259 0.22741 0.0
H608 H 0.15774 0.72302 0.27619 0.0
H609 H 0.15665 0.74212 0.11573 0.0
H610 H 0.17221 0.69029 0.35121 0.0
H611 H 0.10418 0.63668 0.18745 0.0
H612 H 0.16969 0.71144 0.14265 0.0
H613 H 0.06444 0.63858 0.18019 0.0
H614 H 0.2175 0.63144 0.32274 0.0
H615 H 0.11732 0.74702 0.10773 0.0
H616 H 0.0792 0.73367 0.11455 0.0
H617 H 0.23301 0.62025 0.27747 0.0
H618 H 0.05411 0.70592 0.13257 0.0
N619 N 0.13807 0.69772 0.1495 0.0
C620 C 0.1525 0.71252 0.13877 0.0
C621 C 0.12294 0.73309 0.11927 0.0
C622 C 0.10823 0.71787 0.12981 0.0
C623 C 0.14515 0.73034 0.12368 0.0
C624 C 0.11636 0.70006 0.14484 0.0
H625 H 1.04846 0.67042 0.15687 0.0
N626 N 0.11048 0.66752 0.16927 0.0
C627 C 0.07483 0.65171 0.17327 0.0
C628 C 0.10213 0.68461 0.15529 0.0
C629 C 0.0973 0.65071 0.17741 0.0
C630 C 0.06588 0.6697 0.1601 0.0
C631 C 0.07956 0.6863 0.15058 0.0
O632 O 0.16626 0.64445 0.1558 0.0
O633 O 0.17022 0.66068 0.2091 0.0
O634 O 0.20129 0.68719 0.19044 0.0
O635 O 0.17929 0.67591 0.15477 0.0
O636 O 0.14366 0.64073 0.20522 0.0
O637 O 0.13383 0.65107 0.1422 0.0
O638 O 0.19088 0.72065 0.2058 0.0
O639 O 0.15348 0.70006 0.19293 0.0
O640 O 0.12531 0.6698 0.21181 0.0
O641 O 0.1476 0.68411 0.24651 0.0
O642 O 0.15073 0.71689 0.2285 0.0
O643 O 0.20156 0.71102 0.24589 0.0
C644 C 0.16082 0.64365 0.22002 0.0
C645 C 0.14531 0.61476 0.13977 0.0
C646 C 0.12653 0.58418 0.11836 0.0
C647 C 0.13215 0.60634 0.11879 0.0
C648 C 0.13439 0.57054 0.13927 0.0
C649 C 0.15304 0.6008 0.16035 0.0
C650 C 0.1476 0.57883 0.16003 0.0
C651 C 0.19892 0.68171 0.16414 0.0
C652 C 0.15035 0.63816 0.14016 0.0
C653 C 0.07142 0.70423 0.13615 0.0
C654 C 0.08571 0.71999 0.12582 0.0
C655 C 0.14125 0.71455 0.20515 0.0
C656 C 0.1966 0.74857 0.23823 0.0
C657 C 0.19715 0.75289 0.26656 0.0
C658 C 0.19014 0.77294 0.27684 0.0
C659 C 0.18327 0.78907 0.25842 0.0
C660 C 0.18999 0.76505 0.22012 0.0
C661 C 0.18342 0.78517 0.23022 0.0
C662 C 0.12887 0.6762 0.23746 0.0
C663 C 0.20128 0.72654 0.22782 0.0
H664 H 0.12639 0.61708 0.10275 0.0
H665 H 0.13007 0.5535 0.13985 0.0
H666 H 0.16321 0.60685 0.17674 0.0
H667 H 0.15351 0.56822 0.17607 0.0
H668 H 0.20219 0.74038 0.28082 0.0
H669 H 0.17795 0.80474 0.26584 0.0
H670 H 0.18948 0.76224 0.19819 0.0
H671 H 0.17817 0.7977 0.21615 0.0
Tb672 Tb 0.94318 0.67222 0.54059 0.0
C673 C 0.9356 0.74826 0.60939 0.0
C674 C 0.9685 0.74189 0.63548 0.0
C675 C 0.95567 0.77874 0.62849 0.0
C676 C 0.95067 0.73393 0.62025 0.0
C677 C 0.93768 0.77076 0.61392 0.0
C678 C 0.97106 0.76435 0.63921 0.0
C679 C 0.90321 0.77574 0.59099 0.0
N680 N 0.91842 0.74006 0.59532 0.0
C681 C 0.90181 0.75333 0.58706 0.0
C682 C 0.92136 0.78454 0.60415 0.0
Tb683 Tb 0.91819 0.70332 0.58931 0.0
N684 N 0.94789 0.71227 0.61587 0.0
C685 C 0.96224 0.69775 0.62705 0.0
C686 C 0.98328 0.72709 0.64649 0.0
C687 C 0.98007 0.70494 0.64235 0.0
H688 H 0.88765 0.74656 0.57707 0.0
H689 H 0.9915 0.69336 0.65068 0.0
H690 H 0.98477 0.77074 0.65061 0.0
H691 H 0.89026 0.78621 0.58394 0.0
H692 H 0.96078 0.68059 0.62341 0.0
H693 H 0.97262 0.69465 0.43965 0.0
H694 H 0.99721 0.73258 0.6582 0.0
H695 H 0.90269 0.6372 0.55971 0.0
H696 H 0.97426 0.69194 0.48987 0.0
H697 H 0.87431 0.61627 0.53718 0.0
H698 H 0.95768 0.796 0.63192 0.0
H699 H 0.94198 0.67802 0.4144 0.0
H700 H 0.90793 0.65553 0.41548 0.0
H701 H 0.92237 0.80192 0.60724 0.0
H702 H 0.88158 0.63386 0.44194 0.0
N703 N 0.94426 0.67458 0.49362 0.0
C704 C 0.96063 0.68474 0.47932 0.0
C705 C 0.94252 0.67687 0.43657 0.0
C706 C 0.92648 0.66549 0.4511 0.0
C707 C 0.95983 0.68627 0.45074 0.0
C708 C 0.92792 0.66446 0.47997 0.0
H709 H 0.86934 0.61868 0.48703 0.0
N710 N 0.91541 0.65122 0.52267 0.0
C711 C 0.88519 0.62625 0.52501 0.0
C712 C 0.91316 0.65221 0.49492 0.0
C713 C 0.90177 0.6381 0.53772 0.0
C714 C 0.88237 0.62771 0.49673 0.0
C715 C 0.89646 0.64072 0.48129 0.0
O716 O 0.96963 0.65769 0.56093 0.0
O717 O 0.95032 0.69646 0.57255 0.0
O718 O 0.92106 0.72506 0.5532 0.0
O719 O 0.93554 0.70245 0.51899 0.0
O720 O 0.96852 0.69809 0.53782 0.0
O721 O 0.96071 0.64789 0.52014 0.0
O722 O 0.89277 0.68571 0.60804 0.0
O723 O 0.91081 0.68042 0.55607 0.0
O724 O 0.93615 0.6491 0.57536 0.0
O725 O 0.92508 0.67138 0.61075 0.0
O726 O 0.89142 0.70733 0.55935 0.0
O727 O 0.90216 0.71688 0.62349 0.0
C728 C 0.96568 0.70804 0.56076 0.0
C729 C 0.99814 0.64603 0.53191 0.0
C730 C 1.02701 0.6491 0.49739 0.0
C731 C 1.0049 0.65038 0.50485 0.0
C732 C 1.0423 0.64341 0.51765 0.0
C733 C 1.01373 0.64057 0.55169 0.0
C734 C 1.03567 0.63933 0.54457 0.0
C735 C 0.92787 0.72129 0.52774 0.0
C736 C 0.97493 0.64609 0.5397 0.0
C737 C 0.89445 0.64237 0.45267 0.0
C738 C 0.90942 0.65474 0.43761 0.0
C739 C 0.89415 0.69008 0.54474 0.0
C740 C 0.86486 0.70843 0.62543 0.0
C741 C 0.85785 0.72191 0.64687 0.0
C742 C 0.83621 0.72926 0.64805 0.0
C743 C 0.82158 0.72278 0.62745 0.0
C744 C 0.84998 0.70219 0.60503 0.0
C745 C 0.82847 0.70933 0.60612 0.0
C746 C 0.93051 0.65166 0.6016 0.0
C747 C 0.88779 0.70147 0.62456 0.0
H748 H 0.99294 0.65474 0.48962 0.0
H749 H 0.05938 0.64172 0.51269 0.0
H750 H 1.00889 0.63703 0.57262 0.0
H751 H 1.04758 0.63493 0.55993 0.0
H752 H 0.86928 0.72654 0.66275 0.0
H753 H 0.80489 0.72836 0.62758 0.0
H754 H 0.85492 0.69186 0.58823 0.0
H755 H 0.81712 0.70452 0.59029 0.0
Tb756 Tb 0.17652 0.19206 0.78972 0.0
C757 C 0.10118 0.18509 0.86005 0.0
C758 C 0.10765 0.21873 0.88443 0.0
C759 C 0.07071 0.20522 0.87899 0.0
C760 C 0.11558 0.20062 0.86984 0.0
C761 C 0.07867 0.18695 0.8651 0.0
C762 C 0.08516 0.22109 0.88858 0.0
C763 C 0.07369 0.15176 0.84417 0.0
N764 N 0.10935 0.16766 0.8466 0.0
C765 C 0.09612 0.15063 0.83962 0.0
C766 C 0.06487 0.17015 0.85659 0.0
Tb767 Tb 0.14606 0.16776 0.83957 0.0
N768 N 0.13726 0.19799 0.86509 0.0
C769 C 0.15186 0.21279 0.87532 0.0
C770 C 0.12253 0.23397 0.8944 0.0
C771 C 0.1447 0.23092 0.88993 0.0
H772 H 0.10292 0.13633 0.83013 0.0
H773 H 0.15634 0.2427 0.89747 0.0
H774 H 0.0788 0.235 0.89949 0.0
H775 H 0.06322 0.13846 0.8381 0.0
H776 H 0.16903 0.21145 0.87137 0.0
H777 H 0.15654 0.22211 0.68862 0.0
H778 H 0.11707 0.24813 0.90559 0.0
H779 H 0.21183 0.1521 0.80934 0.0
H780 H 0.1582 0.22334 0.73891 0.0
H781 H 0.23328 0.12416 0.78705 0.0
H782 H 0.05344 0.20707 0.88279 0.0
H783 H 0.17327 0.1916 0.66349 0.0
H784 H 0.19543 0.15752 0.66483 0.0
H785 H 1.04748 0.17098 0.86012 0.0
H786 H 0.21668 0.13124 0.69159 0.0
N787 N 0.17502 0.19323 0.7428 0.0
C788 C 0.16533 0.20971 0.72844 0.0
C789 C 0.17394 0.19195 0.68569 0.0
C790 C 0.18486 0.17579 0.70036 0.0
C791 C 0.16447 0.20919 0.6998 0.0
C792 C 0.18535 0.17705 0.72926 0.0
H793 H 0.23141 0.11916 0.73688 0.0
N794 N 0.19815 0.16472 0.77212 0.0
C795 C 0.22334 0.13488 0.77476 0.0
C796 C 0.19743 0.16241 0.74437 0.0
C797 C 0.21121 0.15126 0.78732 0.0
C798 C 0.22216 0.13203 0.74648 0.0
C799 C 0.2092 0.14591 0.73087 0.0
O800 O 0.18961 0.21927 0.8099 0.0
O801 O 0.1522 0.19963 0.82165 0.0
O802 O 0.12412 0.16931 0.80345 0.0
O803 O 0.14676 0.18223 0.7681 0.0
O804 O 0.14933 0.21559 0.7854 0.0
O805 O 0.20051 0.21057 0.76953 0.0
O806 O 0.1643 0.14347 0.85928 0.0
O807 O 0.1689 0.16003 0.80642 0.0
O808 O 0.20023 0.18571 0.82405 0.0
O809 O 0.17809 0.17556 0.86023 0.0
O810 O 0.14229 0.14016 0.81078 0.0
O811 O 0.13273 0.1521 0.87431 0.0
C812 C 0.13987 0.2137 0.80886 0.0
C813 C 0.19692 0.24809 0.77917 0.0
C814 C 0.19186 0.27457 0.74236 0.0
C815 C 0.19704 0.25348 0.75109 0.0
C816 C 0.18722 0.29051 0.76209 0.0
C817 C 0.19249 0.26436 0.79854 0.0
C818 C 0.18771 0.28543 0.79 0.0
C819 C 0.12781 0.17464 0.77729 0.0
C820 C 0.2005 0.2255 0.78835 0.0
C821 C 0.20795 0.14396 0.70222 0.0
C822 C 0.19581 0.15889 0.68698 0.0
C823 C 0.15953 0.14285 0.79594 0.0
C824 C 0.14212 0.11522 0.87727 0.0
C825 C 0.12861 0.10811 0.89877 0.0
C826 C 0.12178 0.08631 0.90038 0.0
C827 C 0.12878 0.07166 0.88012 0.0
C828 C 0.14893 0.10029 0.85727 0.0
C829 C 0.14226 0.07865 0.85876 0.0
C830 C 0.19782 0.18071 0.85055 0.0
C831 C 0.14852 0.13829 0.87586 0.0
H832 H 0.20045 0.24114 0.73589 0.0
H833 H 0.18335 0.30694 0.75593 0.0
H834 H 0.19245 0.26073 0.8203 0.0
H835 H 0.18418 0.29783 0.80505 0.0
H836 H 0.12356 0.11958 0.91436 0.0
H837 H 0.12358 0.05486 0.88055 0.0
H838 H 0.15931 0.10529 0.84045 0.0
H839 H 0.14749 0.06727 0.84321 0.0
Tb840 Tb 0.65573 0.42798 0.03968 0.0
C841 C 0.65727 0.35401 0.11055 0.0
C842 C 0.62632 0.36528 0.13773 0.0
C843 C 0.6341 0.32693 0.13248 0.0
C844 C 0.64456 0.37039 0.12122 0.0
C845 C 0.6522 0.33207 0.11611 0.0
C846 C 0.6212 0.3435 0.1433 0.0
C847 C 0.68339 0.32173 0.08912 0.0
N848 N 0.67444 0.35955 0.09447 0.0
C849 C 0.68781 0.34364 0.08423 0.0
C850 C 0.66544 0.31589 0.10502 0.0
Tb851 Tb 0.68048 0.39621 0.08811 0.0
N852 N 0.64956 0.39125 0.1146 0.0
C853 C 0.6369 0.40779 0.12453 0.0
C854 C 0.61352 0.38217 0.1478 0.0
C855 C 0.61883 0.4035 0.14113 0.0
H856 H 0.70209 0.34794 0.07236 0.0
H857 H 0.60887 0.4167 0.14856 0.0
H858 H 0.60721 0.33931 0.15581 0.0
H859 H 0.69393 0.30936 0.08074 0.0
H860 H 0.63998 0.42438 0.1191 0.0
H861 H 0.62438 0.4089 0.93887 0.0
H862 H 0.59938 0.3789 0.16048 0.0
H863 H 0.69641 0.46279 0.0589 0.0
H864 H 0.62355 0.41032 0.98916 0.0
H865 H 0.72454 0.48415 0.03641 0.0
H866 H 0.62992 0.31019 0.13687 0.0
H867 H 0.65475 0.42595 0.91333 0.0
H868 H 0.68895 0.44825 0.91427 0.0
H869 H 0.66205 0.29889 0.1088 0.0
H870 H 0.71581 0.46909 0.94079 0.0
N871 N 0.65384 0.42718 0.9927 0.0
C872 C 0.63715 0.41757 0.97853 0.0
C873 C 0.65459 0.42649 0.93555 0.0
C874 C 0.67093 0.43739 0.95003 0.0
C875 C 0.63744 0.41684 0.94988 0.0
C876 C 0.66996 0.43764 0.97896 0.0
H877 H 0.7288 0.48299 0.98608 0.0
N878 N 0.68306 0.44974 0.02177 0.0
C879 C 0.71344 0.47453 0.02418 0.0
C880 C 0.68495 0.44944 0.99394 0.0
C881 C 0.69697 0.46245 0.03688 0.0
C882 C 0.71587 0.47376 0.9958 0.0
C883 C 0.70149 0.46124 0.98027 0.0
O884 O 0.62871 0.44037 0.06103 0.0
O885 O 0.64866 0.40262 0.07066 0.0
O886 O 0.67947 0.37617 0.05018 0.0
O887 O 0.66486 0.39924 0.01663 0.0
O888 O 0.63168 0.40093 0.03525 0.0
O889 O 0.63711 0.4524 0.02098 0.0
O890 O 0.7033 0.37852 0.11129 0.0
O891 O 0.68795 0.41989 0.05575 0.0
O892 O 0.66238 0.4512 0.0742 0.0
O893 O 0.6775 0.42952 0.10787 0.0
O894 O 0.70912 0.39477 0.0604 0.0
O895 O 0.69772 0.41206 0.11956 0.0
C896 C 0.63417 0.39069 0.05806 0.0
C897 C 0.59958 0.44842 0.03119 0.0
C898 C 0.57294 0.44328 0.9946 0.0
C899 C 0.59411 0.44852 1.00316 0.0
C900 C 0.55695 0.43868 0.01444 0.0
C901 C 0.58329 0.44404 0.0507 0.0
C902 C 0.5621 0.43927 0.04232 0.0
C903 C 0.67308 0.38047 0.02469 0.0
C904 C 0.62232 0.45181 0.04009 0.0
C905 C 0.70306 0.46034 0.95155 0.0
C906 C 0.68781 0.44844 0.93646 0.0
C907 C 0.7057 0.41161 0.04533 0.0
C908 C 0.70397 0.38895 0.15743 0.0
C909 C 0.71947 0.37589 0.17049 0.0
C910 C 0.71664 0.36944 0.198 0.0
C911 C 0.69804 0.37644 0.21231 0.0
C912 C 0.68553 0.39578 0.1721 0.0
C913 C 0.68265 0.38955 0.1994 0.0
C914 C 0.67033 0.44895 0.09946 0.0
C915 C 0.70673 0.3943 0.12819 0.0
H916 H 0.60646 0.45191 0.98786 0.0
H917 H 0.54046 0.43475 0.00839 0.0
H918 H 0.58701 0.444 0.07242 0.0
H919 H 0.54968 0.43577 0.05748 0.0
H920 H 0.73375 0.37081 0.15913 0.0
H921 H 0.69519 0.3715 0.23334 0.0
H922 H 0.67329 0.40579 0.16246 0.0
H923 H 0.66834 0.39476 0.21053 0.0
Tb924 Tb 0.42261 0.90542 0.28915 0.0
C925 C 0.49625 0.90683 0.36045 0.0
C926 C 0.48465 0.87574 0.38716 0.0
C927 C 0.52318 0.8836 0.38218 0.0
C928 C 0.47971 0.89405 0.37086 0.0
C929 C 0.5182 0.90179 0.36605 0.0
C930 C 0.50644 0.87062 0.39275 0.0
C931 C 0.52885 0.93318 0.33962 0.0
N932 N 0.49086 0.92409 0.3446 0.0
C933 C 0.50692 0.93757 0.33469 0.0
C934 C 0.53454 0.91514 0.35525 0.0
Tb935 Tb 0.45415 0.93 0.33797 0.0
N936 N 0.45885 0.89905 0.36422 0.0
C937 C 0.44215 0.88636 0.37397 0.0
C938 C 0.4676 0.86288 0.39702 0.0
C939 C 0.44627 0.86822 0.39037 0.0
H940 H 0.50274 0.95191 0.32303 0.0
H941 H 0.43293 0.85823 0.39764 0.0
H942 H 0.51051 0.85658 0.40509 0.0
H943 H 0.54135 0.94382 0.33147 0.0
H944 H 0.42556 0.88946 0.36855 0.0
H945 H 0.44192 0.87513 0.18793 0.0
H946 H 0.47073 0.84869 0.40953 0.0
H947 H 0.38743 0.94554 0.30886 0.0
H948 H 0.44043 0.87394 0.23822 0.0
H949 H 0.36579 0.97334 0.28673 0.0
H950 H 0.53993 0.87944 0.38659 0.0
H951 H 0.42477 0.90543 0.16278 0.0
H952 H 0.40235 0.93932 0.16416 0.0
H953 H 0.55156 0.91177 0.35906 0.0
H954 H 0.38128 0.96567 0.19103 0.0
N955 N 0.42341 0.90393 0.24214 0.0
C956 C 0.43312 0.88749 0.22775 0.0
C957 C 0.4242 0.90511 0.185 0.0
C958 C 0.41324 0.9212 0.19968 0.0
C959 C 0.4339 0.88799 0.1991 0.0
C960 C 0.41294 0.92003 0.22861 0.0
H961 H 0.36707 0.97802 0.23646 0.0
N962 N 0.40067 0.9326 0.27158 0.0
C963 C 0.37556 0.96252 0.27436 0.0
C964 C 0.40104 0.93473 0.24378 0.0
C965 C 0.3878 0.94619 0.28686 0.0
C966 C 0.37641 0.96519 0.24602 0.0
C967 C 0.38915 0.95119 0.23033 0.0
O968 O 0.40948 0.87897 0.31092 0.0
O969 O 0.44786 0.8983 0.32017 0.0
O970 O 0.47451 0.92929 0.30033 0.0
O971 O 0.45172 0.91487 0.26634 0.0
O972 O 0.4498 0.88171 0.28454 0.0
O973 O 0.39907 0.88588 0.26978 0.0
O974 O 0.47164 0.95315 0.36093 0.0
O975 O 0.43057 0.9375 0.30557 0.0
O976 O 0.39908 0.9117 0.3237 0.0
O977 O 0.42065 0.92695 0.35746 0.0
O978 O 0.45578 0.95869 0.31043 0.0
O979 O 0.43823 0.94653 0.36992 0.0
C980 C 0.4599 0.88403 0.30747 0.0
C981 C 0.40289 0.84883 0.28229 0.0
C982 C 0.40963 0.82082 0.2479 0.0
C983 C 0.40399 0.84223 0.25467 0.0
C984 C 0.41348 0.80581 0.26907 0.0
C985 C 0.40653 0.83346 0.3031 0.0
C986 C 0.41175 0.81209 0.29647 0.0
C987 C 0.47048 0.92315 0.27469 0.0
C988 C 0.39896 0.87176 0.28965 0.0
C989 C 0.39011 0.95299 0.20163 0.0
C990 C 0.40213 0.93803 0.18633 0.0
C991 C 0.43893 0.95529 0.29533 0.0
C992 C 0.46164 0.95348 0.4073 0.0
C993 C 0.4748 0.96919 0.41986 0.0
C994 C 0.48148 0.96673 0.44729 0.0
C995 C 0.47459 0.94832 0.46207 0.0
C996 C 0.45498 0.93517 0.42236 0.0
C997 C 0.46141 0.93268 0.44963 0.0
C998 C 0.40123 0.91966 0.34901 0.0
C999 C 0.45591 0.95604 0.37818 0.0
H1000 H 0.40116 0.85383 0.23837 0.0
H1001 H 0.41767 0.78916 0.2644 0.0
H1002 H 0.40563 0.83805 0.32452 0.0
H1003 H 0.41467 0.8004 0.31263 0.0
H1004 H 0.47979 0.98335 0.4082 0.0
H1005 H 0.47967 0.94582 0.4831 0.0
H1006 H 0.44493 0.92275 0.41307 0.0
H1007 H 0.45631 0.91849 0.4611 0.0
Tb1008 Tb 0.18441 0.39582 0.42468 0.0
C1009 C 0.18966 0.44735 0.51865 0.0
C1010 C 0.17667 0.4345 0.56282 0.0
C1011 C 0.20852 0.45782 0.56056 0.0
C1012 C 0.17514 0.43513 0.53395 0.0
C1013 C 0.20632 0.45917 0.53194 0.0
C1014 C 0.19373 0.44551 0.57598 0.0
C1015 C 0.21703 0.47345 0.4879 0.0
N1016 N 0.18714 0.44812 0.49093 0.0
C1017 C 0.20054 0.46125 0.47555 0.0
C1018 C 0.22009 0.47225 0.51616 0.0
Tb1019 Tb 0.15955 0.42646 0.47368 0.0
N1020 N 0.15878 0.42479 0.52062 0.0
C1021 C 0.14235 0.41501 0.53519 0.0
C1022 C 0.16064 0.42336 0.57768 0.0
C1023 C 0.14322 0.41388 0.5638 0.0
H1024 H 0.19952 0.46189 0.45355 0.0
H1025 H 0.13038 0.40577 0.57513 0.0
H1026 H 0.19531 0.44502 0.59811 0.0
H1027 H 0.22769 0.48347 0.47547 0.0
H1028 H 0.1286 0.40787 0.52483 0.0
H1029 H 0.11057 0.40533 0.36415 0.0
H1030 H 0.16123 0.42254 0.59987 0.0
H1031 H 0.21538 0.35278 0.43631 0.0
H1032 H 0.14142 0.41829 0.39101 0.0
H1033 H 0.21291 0.31311 0.42958 0.0
H1034 H 0.22137 0.46658 0.57102 0.0
H1035 H 0.10502 0.36608 0.35673 0.0
H1036 H 0.11774 0.328 0.36422 0.0
H1037 H 0.23306 0.48155 0.52559 0.0
H1038 H 0.14512 0.30291 0.38259 0.0
N1039 N 0.15458 0.3867 0.3984 0.0
C1040 C 0.14005 0.40113 0.3874 0.0
C1041 C 0.11902 0.37166 0.36824 0.0
C1042 C 0.13398 0.35695 0.37908 0.0
C1043 C 0.12214 0.39382 0.37233 0.0
C1044 C 0.1519 0.36503 0.39406 0.0
H1045 H 0.18066 0.2972 0.4068 0.0
N1046 N 0.18439 0.35909 0.41855 0.0
C1047 C 0.19984 0.3235 0.4227 0.0
C1048 C 0.16714 0.35079 0.40473 0.0
C1049 C 0.20116 0.34593 0.42655 0.0
C1050 C 0.18161 0.31459 0.40983 0.0
C1051 C 0.16514 0.32827 0.40027 0.0
O1052 O 0.20032 0.38243 0.3903 0.0
O1053 O 0.19191 0.4187 0.45788 0.0
O1054 O 0.16577 0.44989 0.43908 0.0
O1055 O 0.17703 0.42782 0.40354 0.0
O1056 O 0.21141 0.39187 0.4543 0.0
O1057 O 0.2095 0.41369 0.40565 0.0
O1058 O 0.13235 0.43978 0.45373 0.0
O1059 O 0.15228 0.40225 0.44172 0.0
O1060 O 0.18198 0.37397 0.46079 0.0
O1061 O 0.16798 0.39649 0.49538 0.0
O1062 O 0.13531 0.39963 0.47734 0.0
O1063 O 0.14121 0.45019 0.4942 0.0
C1064 C 0.20873 0.40912 0.46891 0.0
C1065 C 0.23755 0.39114 0.38824 0.0
C1066 C 0.26623 0.37017 0.3659 0.0
C1067 C 0.24456 0.37744 0.36703 0.0
C1068 C 0.28088 0.37695 0.38632 0.0
C1069 C 0.25246 0.39771 0.40845 0.0
C1070 C 0.27399 0.39063 0.40741 0.0
C1071 C 0.17133 0.44744 0.41281 0.0
C1072 C 0.21456 0.39794 0.38914 0.0
C1073 C 0.14706 0.32017 0.38596 0.0
C1074 C 0.13151 0.33447 0.37542 0.0
C1075 C 0.13755 0.39017 0.45397 0.0
C1076 C 0.10367 0.44538 0.48528 0.0
C1077 C 0.09856 0.44628 0.51341 0.0
C1078 C 0.07816 0.43929 0.52301 0.0
C1079 C 0.0625 0.43209 0.50411 0.0
C1080 C 0.08764 0.43847 0.46665 0.0
C1081 C 0.06718 0.43192 0.47608 0.0
C1082 C 0.1756 0.37764 0.48649 0.0
C1083 C 0.12605 0.45004 0.47564 0.0
H1084 H 0.23311 0.37257 0.35129 0.0
H1085 H 0.29759 0.37144 0.38624 0.0
H1086 H 0.24753 0.40821 0.42509 0.0
H1087 H 0.28537 0.39568 0.42311 0.0
H1088 H 0.1107 0.45158 0.52806 0.0
H1089 H 1.04659 0.42676 0.51102 0.0
H1090 H 0.09105 0.4377 0.44486 0.0
H1091 H 0.05501 0.42641 0.46163 0.0
Tb1092 Tb 0.9544 0.93081 0.17767 0.0
C1093 C 0.90109 0.93594 0.2707 0.0
C1094 C 0.91277 0.92197 0.31483 0.0
C1095 C 0.89031 0.95424 0.31284 0.0
C1096 C 0.91263 0.9209 0.28591 0.0
C1097 C 0.88949 0.95259 0.28413 0.0
C1098 C 0.90191 0.93896 0.32816 0.0
C1099 C 0.87641 0.96442 0.24004 0.0
N1100 N 0.9008 0.93396 0.24289 0.0
C1101 C 0.88833 0.94786 0.22755 0.0
C1102 C 0.87716 0.96695 0.2684 0.0
Tb1103 Tb 0.92188 0.90619 0.22543 0.0
N1104 N 0.92293 0.90466 0.27241 0.0
C1105 C 0.93247 0.88811 0.28682 0.0
C1106 C 0.92334 0.90562 0.32956 0.0
C1107 C 0.93296 0.88845 0.31548 0.0
H1108 H 0.88803 0.94719 0.20551 0.0
H1109 H 0.94076 0.87547 0.32669 0.0
H1110 H 0.90202 0.94017 0.35034 0.0
H1111 H 0.86695 0.97551 0.22766 0.0
H1112 H 0.93987 0.87462 0.27635 0.0
H1113 H 0.94547 0.8578 0.11574 0.0
H1114 H 0.92375 0.90584 0.35178 0.0
H1115 H 0.99761 0.9613 0.19146 0.0
H1116 H 0.9322 0.88827 0.14283 0.0
H1117 H 1.03749 0.95881 0.18584 0.0
H1118 H 0.8817 0.96706 0.32343 0.0
H1119 H 0.98492 0.85231 0.10926 0.0
H1120 H 1.02306 0.8648 0.11809 0.0
H1121 H 0.86807 0.97995 0.27796 0.0
H1122 H 1.04809 0.8918 0.13775 0.0
N1123 N 0.96383 0.90129 0.15124 0.0
C1124 C 0.94947 0.88693 0.13963 0.0
C1125 C 0.97922 0.86614 0.12088 0.0
C1126 C 0.99388 0.8809 0.1324 0.0
C1127 C 0.95694 0.86923 0.12443 0.0
C1128 C 0.98563 0.89861 0.14748 0.0
H1129 H 0.05362 0.92691 0.16286 0.0
N1130 N 0.99136 0.93069 0.17279 0.0
C1131 C 1.0271 0.94591 0.17835 0.0
C1132 C 0.99981 0.91363 0.15887 0.0
C1133 C 1.00454 0.94724 0.18157 0.0
C1134 C 1.03613 0.92788 0.16538 0.0
C1135 C 1.02247 0.91162 0.15506 0.0
O1136 O 0.96885 0.94693 0.144 0.0
O1137 O 0.93082 0.93849 0.21017 0.0
O1138 O 0.89941 0.91356 0.19039 0.0
O1139 O 0.92269 0.92364 0.15536 0.0
O1140 O 0.95817 0.95761 0.20751 0.0
O1141 O 0.93715 0.95594 0.15823 0.0
O1142 O 0.90777 0.87976 0.20455 0.0
O1143 O 0.94676 0.89891 0.19421 0.0
O1144 O 0.97548 0.92731 0.21453 0.0
O1145 O 0.95124 0.91464 0.2482 0.0
O1146 O 0.94783 0.88108 0.22912 0.0
O1147 O 0.8968 0.88869 0.24487 0.0
C1148 C 0.94052 0.95514 0.22159 0.0
C1149 C 0.96021 0.98402 0.14161 0.0
C1150 C 0.98093 1.01302 0.11924 0.0
C1151 C 0.9738 0.9913 0.12028 0.0
C1152 C 0.97416 1.02742 0.1399 0.0
C1153 C 0.95367 0.99869 0.16204 0.0
C1154 C 0.96063 1.02025 0.16112 0.0
C1155 C 0.9026 0.91866 0.16412 0.0
C1156 C 0.95336 0.96106 0.14229 0.0
C1157 C 1.03072 0.89375 0.14064 0.0
C1158 C 1.01646 0.87842 0.12936 0.0
C1159 C 0.95816 0.88375 0.20634 0.0
C1160 C 0.89505 0.85132 0.23311 0.0
C1161 C 0.89912 0.84453 0.2602 0.0
C1162 C 0.89782 0.82245 0.26755 0.0
C1163 C 0.89211 0.80725 0.24721 0.0
C1164 C 0.88961 0.83581 0.21325 0.0
C1165 C 0.88816 0.81392 0.2203 0.0
C1166 C 0.97069 0.92161 0.24026 0.0
C1167 C 0.89548 0.87448 0.22528 0.0
H1168 H 0.97866 0.98003 0.10436 0.0
H1169 H 0.97958 1.04416 0.13988 0.0
H1170 H 0.94323 0.99355 0.17873 0.0
H1171 H 0.95559 1.03144 0.17699 0.0
H1172 H 0.90334 0.85643 0.2755 0.0
H1173 H 0.89033 0.7902 0.25206 0.0
H1174 H 0.88626 0.84067 0.19231 0.0
H1175 H 0.88377 0.80207 0.20488 0.0
Tb1176 Tb 0.41933 0.70396 0.92521 0.0
C1177 C 0.41018 0.65082 0.01583 0.0
C1178 C 0.41908 0.66331 0.06146 0.0
C1179 C 0.38858 0.63871 0.05487 0.0
C1180 C 0.42296 0.66313 0.03293 0.0
C1181 C 0.39302 0.63813 0.0266 0.0
C1182 C 0.40158 0.65132 0.07228 0.0
C1183 C 0.38634 0.62485 0.98085 0.0
N1184 N 0.41478 0.65104 0.98862 0.0
C1185 C 0.40338 0.63787 0.97115 0.0
C1186 C 0.381 0.6251 0.00868 0.0
Tb1187 Tb 0.44364 0.67225 0.97471 0.0
N1188 N 0.43973 0.67432 0.02166 0.0
C1189 C 0.45442 0.6847 0.03833 0.0
C1190 C 0.43317 0.67516 0.07829 0.0
C1191 C 0.45102 0.68579 0.06666 0.0
H1192 H 0.40701 0.63762 0.94956 0.0
H1193 H 0.46229 0.69465 0.07952 0.0
H1194 H 0.39821 0.65138 0.09411 0.0
H1195 H 0.37723 0.61474 0.9668 0.0
H1196 H 0.46844 0.69277 0.02955 0.0
H1197 H 0.49158 0.69563 0.86136 0.0
H1198 H 0.4307 0.6758 0.10029 0.0
H1199 H 0.38821 0.74676 0.93833 0.0
H1200 H 0.46116 0.68222 0.88885 0.0
H1201 H 0.39044 0.78648 0.93234 0.0
H1202 H 0.37532 0.62927 0.06349 0.0
H1203 H 0.4972 0.73502 0.85508 0.0
H1204 H 0.4847 0.77298 0.8641 0.0
H1205 H 0.3677 0.61511 0.01612 0.0
H1206 H 0.45758 0.7977 0.8839 0.0
N1207 N 0.44851 0.71365 0.89805 0.0
C1208 C 0.46267 0.69943 0.88594 0.0
C1209 C 0.48344 0.72924 0.86697 0.0
C1210 C 0.46876 0.74376 0.8788 0.0
C1211 C 0.48028 0.707 0.87043 0.0
C1212 C 0.45114 0.7354 0.89421 0.0
H1213 H 0.42234 0.80288 0.90914 0.0
N1214 N 0.41903 0.7408 0.91974 0.0
C1215 C 0.40347 0.77626 0.92494 0.0
C1216 C 0.43606 0.7494 0.90565 0.0
C1217 C 0.4023 0.75377 0.92837 0.0
C1218 C 0.4215 0.78545 0.91184 0.0
C1219 C 0.43791 0.77199 0.9016 0.0
O1220 O 0.39374 0.68633 0.90714 0.0
O1221 O 0.41161 0.68164 0.95912 0.0
O1222 O 0.44318 0.65155 0.93658 0.0
O1223 O 0.42559 0.67201 0.9037 0.0
O1224 O 0.39247 0.70857 0.95511 0.0
O1225 O 0.4032 0.71734 0.89099 0.0
O1226 O 0.4546 0.64019 0.96975 0.0
O1227 O 0.45124 0.69539 0.94141 0.0
O1228 O 0.42403 0.72592 0.96063 0.0
O1229 O 0.43488 0.70221 0.99571 0.0
O1230 O 0.4709 0.69611 0.97469 0.0
O1231 O 0.47374 0.66334 0.99188 0.0
C1232 C 0.39494 0.6915 0.97011 0.0
C1233 C 0.3658 0.70906 0.88993 0.0
C1234 C 0.337 0.72993 0.8677 0.0
C1235 C 0.35866 0.72259 0.86857 0.0
C1236 C 0.32252 0.72346 0.88856 0.0
C1237 C 0.35104 0.7028 0.91056 0.0
C1238 C 0.32954 0.70999 0.90981 0.0
C1239 C 0.43463 0.6533 0.91154 0.0
C1240 C 0.38872 0.702 0.89046 0.0
C1241 C 0.45575 0.78037 0.88696 0.0
C1242 C 0.47115 0.76629 0.87561 0.0
C1243 C 0.46756 0.70627 0.95206 0.0
C1244 C 0.47167 0.6279 0.01044 0.0
C1245 C 0.48392 0.63345 0.03376 0.0
C1246 C 0.48364 0.62024 0.05735 0.0
C1247 C 0.47127 0.60102 0.05709 0.0
C1248 C 0.45955 0.60851 0.01064 0.0
C1249 C 0.45941 0.59519 0.03383 0.0
C1250 C 0.4296 0.72168 0.98642 0.0
C1251 C 0.47068 0.64291 0.9867 0.0
H1252 H 0.36998 0.72723 0.8525 0.0
H1253 H 0.30584 0.72905 0.88868 0.0
H1254 H 0.35606 0.69242 0.92731 0.0
H1255 H 0.3183 0.70517 0.92583 0.0
H1256 H 0.49362 0.64816 0.03357 0.0
H1257 H 0.47048 0.59063 0.07501 0.0
H1258 H 0.44993 0.60374 0.99304 0.0
H1259 H 0.44986 0.5804 0.03388 0.0
Tb1260 Tb 0.64793 0.16889 0.67568 0.0
C1261 C 0.70061 0.16419 0.77043 0.0
C1262 C 0.68834 0.17809 0.81431 0.0
C1263 C 0.71119 0.14608 0.81283 0.0
C1264 C 0.68878 0.17909 0.78538 0.0
C1265 C 0.71231 0.14772 0.78412 0.0
C1266 C 0.69922 0.16124 0.8279 0.0
C1267 C 0.72609 0.1361 0.74031 0.0
N1268 N 0.70114 0.16619 0.74263 0.0
C1269 C 0.71404 0.15246 0.72757 0.0
C1270 C 0.72503 0.13355 0.76866 0.0
Tb1271 Tb 0.6794 0.19335 0.72462 0.0
N1272 N 0.67853 0.1952 0.77161 0.0
C1273 C 0.66894 0.21183 0.78577 0.0
C1274 C 0.67746 0.19437 0.82876 0.0
C1275 C 0.66801 0.2115 0.81442 0.0
H1276 H 0.71457 0.15302 0.70557 0.0
H1277 H 0.66008 0.22452 0.82541 0.0
H1278 H 0.69889 0.16007 0.85008 0.0
H1279 H 0.73586 0.12516 0.72811 0.0
H1280 H 0.66184 0.22542 0.77513 0.0
H1281 H 0.67014 0.24058 0.61657 0.0
H1282 H 0.67679 0.19418 0.85097 0.0
H1283 H 0.59908 0.14741 0.69017 0.0
H1284 H 0.67702 0.20914 0.64557 0.0
H1285 H 0.56061 0.15577 0.68128 0.0
H1286 H 0.71986 0.13339 0.82361 0.0
H1287 H 0.6325 0.25052 0.60434 0.0
H1288 H 0.59261 0.24292 0.60827 0.0
H1289 H 0.73421 0.1207 0.77839 0.0
H1290 H 0.56288 0.22023 0.62633 0.0
N1291 N 0.64361 0.19996 0.6496 0.0
C1292 C 0.6605 0.21248 0.64003 0.0
C1293 C 0.63542 0.23627 0.61683 0.0
C1294 C 0.61818 0.22353 0.62644 0.0
C1295 C 0.65666 0.23071 0.62368 0.0
C1296 C 0.62286 0.20515 0.64273 0.0
H1297 H 0.55081 0.18792 0.65364 0.0
N1298 N 0.61132 0.17516 0.66877 0.0
C1299 C 0.57323 0.16633 0.6733 0.0
C1300 C 0.60616 0.19247 0.6529 0.0
C1301 C 0.5951 0.16178 0.67847 0.0
C1302 C 0.56778 0.18443 0.65764 0.0
C1303 C 0.58429 0.19767 0.64705 0.0
O1304 O 0.63065 0.14496 0.65371 0.0
O1305 O 0.67154 0.16126 0.70807 0.0
O1306 O 0.7031 0.18684 0.69033 0.0
O1307 O 0.68166 0.1714 0.6566 0.0
O1308 O 0.6463 0.1401 0.70299 0.0
O1309 O 0.66317 0.15354 0.6423 0.0
O1310 O 0.69266 0.21948 0.70243 0.0
O1311 O 0.65412 0.2005 0.69371 0.0
O1312 O 0.62745 0.16967 0.71321 0.0
O1313 O 0.65028 0.18383 0.74736 0.0
O1314 O 0.65227 0.2172 0.72916 0.0
O1315 O 0.70294 0.21303 0.74376 0.0
C1316 C 0.66308 0.14347 0.71821 0.0
C1317 C 0.63841 0.14568 0.60663 0.0
C1318 C 0.61744 0.13186 0.5679 0.0
C1319 C 0.62528 0.12957 0.59485 0.0
C1320 C 0.62304 0.15054 0.55282 0.0
C1321 C 0.64377 0.16426 0.59128 0.0
C1322 C 0.63611 0.16662 0.56451 0.0
C1323 C 0.70107 0.17872 0.6651 0.0
C1324 C 0.64565 0.14315 0.63522 0.0
C1325 C 0.57956 0.21593 0.63092 0.0
C1326 C 0.59648 0.22882 0.62061 0.0
C1327 C 0.64209 0.21484 0.7063 0.0
C1328 C 0.69945 0.24994 0.73042 0.0
C1329 C 0.69876 0.25699 0.75788 0.0
C1330 C 0.69355 0.27859 0.76419 0.0
C1331 C 0.68961 0.2933 0.74271 0.0
C1332 C 0.69571 0.26501 0.70929 0.0
C1333 C 0.69084 0.28654 0.71546 0.0
C1334 C 0.63149 0.17566 0.73891 0.0
C1335 C 0.7032 0.22689 0.72359 0.0
H1336 H 0.62127 0.11519 0.60669 0.0
H1337 H 0.61704 0.15288 0.53215 0.0
H1338 H 0.65379 0.17699 0.59994 0.0
H1339 H 0.64023 0.18101 0.55282 0.0
H1340 H 0.70164 0.2456 0.77442 0.0
H1341 H 0.68573 0.31009 0.74702 0.0
H1342 H 0.69629 0.26007 0.68797 0.0
H1343 H 0.68785 0.298 0.69905 0.0
C1344 C 0.50211 0.22334 0.07548 0.0
C1345 C 0.48005 0.22679 0.06769 0.0
C1346 C 0.51826 0.24043 0.07664 0.0
C1347 C 0.52728 0.30396 0.07037 0.0
H1348 H 0.58828 0.28898 0.06804 0.0
C1349 C 0.5971 0.37434 0.07586 0.0
C1350 C 0.61875 0.37107 0.06622 0.0
C1351 C 0.58092 0.35727 0.07733 0.0
C1352 C 0.57145 0.29401 0.0686 0.0
H1353 H 0.45957 0.25278 0.053 0.0
H1354 H 0.48665 0.28204 0.05581 0.0
H1355 H 0.56056 0.26053 0.06807 0.0
H1356 H 0.63844 0.34556 0.04879 0.0
H1357 H 0.61134 0.31631 0.05204 0.0
H1358 H 0.53819 0.33746 0.07069 0.0
C1359 C 0.4917 0.26597 0.06193 0.0
C1360 C 0.555 0.27713 0.06888 0.0
C1361 C 0.47561 0.24878 0.06056 0.0
C1362 C 0.62274 0.34934 0.05765 0.0
C1363 C 0.60665 0.33218 0.05934 0.0
C1364 C 0.54374 0.32084 0.07031 0.0
C1365 C 0.51391 0.26254 0.06962 0.0
C1366 C 0.53212 0.28129 0.06969 0.0
C1367 C 0.58485 0.3354 0.06885 0.0
C1368 C 0.56662 0.31668 0.06934 0.0
H1369 H 0.50725 0.20694 0.08 0.0
H1370 H 0.53451 0.23597 0.08289 0.0
H1371 H 0.51045 0.30898 0.0712 0.0
H1372 H 0.59229 0.39058 0.08166 0.0
H1373 H 0.565 0.36154 0.08501 0.0
C1374 C 0.62636 0.75162 0.32373 0.0
C1375 C 0.62254 0.72955 0.31646 0.0
C1376 C 0.60943 0.76783 0.32499 0.0
C1377 C 0.54571 0.77705 0.31974 0.0
H1378 H 0.56139 0.8378 0.31677 0.0
C1379 C 0.47582 0.84694 0.32516 0.0
C1380 C 0.47936 0.86854 0.31563 0.0
C1381 C 0.49277 0.83073 0.32657 0.0
C1382 C 0.55615 0.82104 0.31752 0.0
H1383 H 0.59606 0.70908 0.30283 0.0
H1384 H 0.56707 0.73627 0.30578 0.0
H1385 H 0.58961 0.81006 0.31667 0.0
H1386 H 0.50522 0.88812 0.29834 0.0
H1387 H 0.53424 0.86098 0.30147 0.0
H1388 H 0.51224 0.78805 0.32036 0.0
C1389 C 0.58332 0.74131 0.31142 0.0
C1390 C 0.5729 0.80458 0.31772 0.0
C1391 C 0.60035 0.72516 0.30996 0.0
C1392 C 0.50123 0.87246 0.30712 0.0
C1393 C 0.51826 0.85634 0.30874 0.0
C1394 C 0.52896 0.79353 0.31975 0.0
C1395 C 0.58711 0.76353 0.31859 0.0
C1396 C 0.5685 0.78178 0.31876 0.0
C1397 C 0.51477 0.83458 0.31814 0.0
C1398 C 0.53336 0.81632 0.31855 0.0
H1399 H 0.64293 0.75672 0.32776 0.0
H1400 H 0.61418 0.78408 0.3308 0.0
H1401 H 0.54049 0.7603 0.32077 0.0
H1402 H 0.45945 0.84218 0.3309 0.0
H1403 H 0.48827 0.81485 0.33417 0.0
C1404 C 0.12479 0.84932 0.56172 0.0
C1405 C 0.12061 0.87136 0.56878 0.0
C1406 C 0.10853 0.8323 0.56327 0.0
C1407 C 1.04514 0.82154 0.57144 0.0
H1408 H 0.0617 0.76114 0.57155 0.0
C1409 C 0.97672 0.74962 0.56192 0.0
C1410 C 0.98104 0.72763 0.56919 0.0
C1411 C 0.99286 0.76678 0.56337 0.0
C1412 C 0.05619 0.77778 0.57169 0.0
H1413 H 0.09362 0.8915 0.58116 0.0
H1414 H 0.06606 0.86274 0.58435 0.0
H1415 H 0.08953 0.78943 0.57176 0.0
H1416 H 1.0081 0.70779 0.58199 0.0
H1417 H 1.03539 0.73673 0.5851 0.0
H1418 H 1.01179 0.80986 0.57147 0.0
C1419 C 0.08226 0.8581 0.57803 0.0
C1420 C 0.07273 0.79458 0.57155 0.0
C1421 C 0.09859 0.87504 0.57668 0.0
C1422 C 1.00303 0.72418 0.5773 0.0
C1423 C 1.01922 0.74124 0.57859 0.0
C1424 C 1.02859 0.80473 0.5714 0.0
C1425 C 0.08637 0.83593 0.57111 0.0
C1426 C 0.06802 0.81728 0.57144 0.0
C1427 C 1.01501 0.76333 0.57136 0.0
C1428 C 1.03331 0.78202 0.57155 0.0
H1429 H 0.14079 0.84516 0.55412 0.0
H1430 H 0.11345 0.81618 0.55718 0.0
H1431 H 1.03964 0.83818 0.57113 0.0
H1432 H 0.96074 0.75365 0.55418 0.0
H1433 H 0.98789 0.78284 0.5571 0.0
C1434 C 0.97418 0.34743 0.82428 0.0
C1435 C 0.97786 0.36906 0.81493 0.0
C1436 C 0.99109 0.33117 0.82587 0.0
C1437 C 0.05455 0.3213 0.81749 0.0
H1438 H 1.03871 0.26062 0.82093 0.0
C1439 C 0.12462 0.25168 0.8241 0.0
C1440 C 0.12071 0.22954 0.81718 0.0
C1441 C 0.10773 0.26796 0.8252 0.0
C1442 C 1.044 0.27735 0.81985 0.0
H1443 H 1.00397 0.38865 0.79829 0.0
H1444 H 1.03288 0.36143 0.80166 0.0
H1445 H 1.01055 0.28844 0.82022 0.0
H1446 H 0.09411 0.20903 0.80402 0.0
H1447 H 0.06522 0.23634 0.8067 0.0
H1448 H 0.08799 0.31022 0.81687 0.0
C1449 C 1.01682 0.35678 0.80862 0.0
C1450 C 1.02728 0.29388 0.81968 0.0
C1451 C 0.99984 0.37295 0.80684 0.0
C1452 C 0.09847 0.22517 0.81088 0.0
C1453 C 0.0815 0.24139 0.81218 0.0
C1454 C 0.07127 0.30478 0.81785 0.0
C1455 C 1.01319 0.33498 0.81781 0.0
C1456 C 1.03174 0.31666 0.81841 0.0
C1457 C 0.08537 0.26367 0.81898 0.0
C1458 C 0.06681 0.28199 0.81897 0.0
H1459 H 0.95776 0.3427 0.82977 0.0
H1460 H 0.98647 0.31528 0.83331 0.0
H1461 H 0.05985 0.33804 0.8167 0.0
H1462 H 0.14122 0.25676 0.82794 0.0
H1463 H 0.11257 0.28425 0.83074 0.0
C1464 C 0.59889 0.87475 0.93691 0.0
C1465 C 0.62096 0.87128 0.94471 0.0
C1466 C 0.58273 0.85765 0.93552 0.0
C1467 C 0.57372 0.79403 0.94126 0.0
H1468 H 0.51266 0.80883 0.94272 0.0
C1469 C 0.50442 0.72323 0.93489 0.0
C1470 C 0.4825 0.72628 0.94368 0.0
C1471 C 0.52046 0.74044 0.9337 0.0
C1472 C 0.5295 0.80383 0.94238 0.0
H1473 H 0.64139 0.84519 0.95921 0.0
H1474 H 0.61433 0.81593 0.95599 0.0
H1475 H 0.54032 0.83736 0.94317 0.0
H1476 H 0.46228 0.75183 0.96014 0.0
H1477 H 0.48914 0.78129 0.95733 0.0
H1478 H 0.56292 0.76051 0.9407 0.0
C1479 C 0.60927 0.83204 0.95002 0.0
C1480 C 0.54593 0.82077 0.9424 0.0
C1481 C 0.62537 0.84923 0.95163 0.0
C1482 C 0.47814 0.74809 0.95178 0.0
C1483 C 0.49414 0.76541 0.95041 0.0
C1484 C 0.5573 0.7771 0.94102 0.0
C1485 C 0.58706 0.83549 0.9423 0.0
C1486 C 0.56885 0.81669 0.94191 0.0
C1487 C 0.5162 0.76233 0.94173 0.0
C1488 C 0.53438 0.78117 0.94165 0.0
H1489 H 0.59374 0.89118 0.93256 0.0
H1490 H 0.5665 0.86216 0.92929 0.0
H1491 H 0.59056 0.78903 0.94066 0.0
H1492 H 0.50957 0.707 0.92954 0.0
H1493 H 0.53658 0.73622 0.92662 0.0
C1494 C 0.47598 0.34782 0.68924 0.0
C1495 C 0.47973 0.36983 0.69685 0.0
C1496 C 0.49291 0.33159 0.68807 0.0
C1497 C 0.55655 0.32216 0.69425 0.0
H1498 H 0.54072 0.26143 0.69619 0.0
C1499 C 0.62636 0.25212 0.68892 0.0
C1500 C 0.6227 0.23044 0.6981 0.0
C1501 C 0.60946 0.26838 0.68749 0.0
C1502 C 0.54601 0.27818 0.69574 0.0
H1503 H 0.5061 0.39013 0.71125 0.0
H1504 H 0.53508 0.36292 0.70843 0.0
H1505 H 0.51256 0.28925 0.69621 0.0
H1506 H 0.59663 0.21078 0.71476 0.0
H1507 H 0.5677 0.23801 0.71158 0.0
H1508 H 0.59001 0.31108 0.69399 0.0
C1509 C 0.51889 0.35796 0.70244 0.0
C1510 C 0.52929 0.29469 0.69549 0.0
C1511 C 0.50187 0.37413 0.70382 0.0
C1512 C 0.60074 0.2265 0.70624 0.0
C1513 C 0.58375 0.24269 0.7046 0.0
C1514 C 0.57327 0.30564 0.69428 0.0
C1515 C 0.51516 0.33579 0.69491 0.0
C1516 C 0.53374 0.3175 0.69481 0.0
C1517 C 0.58737 0.26452 0.69555 0.0
C1518 C 0.56881 0.28284 0.69511 0.0
H1519 H 0.45946 0.34277 0.68486 0.0
H1520 H 0.4882 0.31539 0.68195 0.0
H1521 H 0.56183 0.33891 0.69352 0.0
H1522 H 0.64278 0.25688 0.68347 0.0
H1523 H 0.61406 0.28431 0.68018 0.0
C1524 C 1.00554 0.22272 0.43816 0.0
C1525 C 0.98347 0.226 0.44614 0.0
C1526 C 1.02159 0.23989 0.43674 0.0
C1527 C 1.03048 0.30346 0.44324 0.0
H1528 H 0.09152 0.28853 0.44349 0.0
C1529 C 0.10007 0.37416 0.43747 0.0
C1530 C 0.12206 0.37068 0.44558 0.0
C1531 C 0.08387 0.35709 0.43622 0.0
C1532 C 0.07469 0.29357 0.44352 0.0
H1533 H 0.96284 0.25192 0.46068 0.0
H1534 H 0.98978 0.28133 0.45757 0.0
H1535 H 0.06386 0.26008 0.44389 0.0
H1536 H 0.14232 0.3447 0.46075 0.0
H1537 H 0.11519 0.31552 0.45787 0.0
H1538 H 1.04134 0.33697 0.44314 0.0
C1539 C 0.99493 0.26528 0.45153 0.0
C1540 C 0.05825 0.27667 0.44349 0.0
C1541 C 0.97891 0.24799 0.4531 0.0
C1542 C 0.12635 0.34871 0.45295 0.0
C1543 C 0.11022 0.33157 0.45152 0.0
C1544 C 1.04693 0.32037 0.44308 0.0
C1545 C 1.01716 0.26197 0.44371 0.0
C1546 C 1.03534 0.28078 0.44341 0.0
C1547 C 0.08808 0.335 0.44349 0.0
C1548 C 0.06984 0.31625 0.44329 0.0
H1549 H 1.01077 0.20635 0.43363 0.0
H1550 H 1.03783 0.23549 0.43035 0.0
H1551 H 1.01365 0.30848 0.44299 0.0
H1552 H 0.09502 0.39055 0.43277 0.0
H1553 H 0.06769 0.36158 0.42973 0.0
C1554 C 0.12564 0.75227 0.18965 0.0
C1555 C 0.12191 0.73009 0.19659 0.0
C1556 C 0.10862 0.76841 0.18851 0.0
C1557 C 1.0448 0.77727 0.19396 0.0
H1558 H 0.06015 0.8381 0.19654 0.0
C1559 C 0.97434 0.8466 0.18941 0.0
C1560 C 0.9778 0.86839 0.19817 0.0
C1561 C 0.9914 0.83052 0.18793 0.0
C1562 C 0.05499 0.82132 0.19591 0.0
H1563 H 0.09545 0.70935 0.20982 0.0
H1564 H 0.06634 0.73641 0.20708 0.0
H1565 H 0.08851 0.81052 0.19648 0.0
H1566 H 1.00378 0.88841 0.21414 0.0
H1567 H 1.03297 0.86149 0.21096 0.0
H1568 H 1.01127 0.78807 0.19366 0.0
C1569 C 0.08258 0.74161 0.20158 0.0
C1570 C 0.07184 0.80494 0.19562 0.0
C1571 C 0.09969 0.72552 0.20291 0.0
C1572 C 0.99977 0.8726 0.20594 0.0
C1573 C 1.01693 0.85659 0.2043 0.0
C1574 C 1.02796 0.79366 0.19407 0.0
C1575 C 0.08629 0.76393 0.19474 0.0
C1576 C 0.06757 0.7821 0.1947 0.0
C1577 C 1.01349 0.83465 0.1956 0.0
C1578 C 1.03222 0.81649 0.19512 0.0
H1579 H 0.1422 0.75751 0.18582 0.0
H1580 H 0.11334 0.78474 0.18295 0.0
H1581 H 1.03965 0.7605 0.19305 0.0
H1582 H 0.95794 0.84161 0.18426 0.0
H1583 H 0.98691 0.81451 0.18088 0.0
C1584 C 0.21692 0.17661 0.8988 0.0
C1585 C 0.21825 0.1808 0.87013 0.0
C1586 C 0.23565 0.17664 0.91657 0.0
C1587 C 0.29893 0.1889 0.91863 0.0
H1588 H 0.29427 0.16643 0.99241 0.0
C1589 C 0.37571 0.19419 0.99613 0.0
C1590 C 0.37633 0.18305 0.02167 0.0
C1591 C 0.35746 0.19311 0.97768 0.0
C1592 C 0.2965 0.17276 0.97192 0.0
H1593 H 0.24228 0.18824 0.83898 0.0
H1594 H 0.27411 0.18805 0.86884 0.0
H1595 H 0.26286 0.16597 0.96244 0.0
H1596 H 0.35578 0.16297 0.04729 0.0
H1597 H 0.32504 0.16027 0.01573 0.0
H1598 H 0.33267 0.19531 0.92793 0.0
C1599 C 0.2585 0.18495 0.8783 0.0
C1600 C 0.27776 0.1727 0.95419 0.0
C1601 C 0.23976 0.18498 0.86058 0.0
C1602 C 0.35708 0.17109 0.02764 0.0
C1603 C 0.33881 0.16993 0.00922 0.0
C1604 C 0.31769 0.18892 0.93634 0.0
C1605 C 0.25732 0.18079 0.90712 0.0
C1606 C 0.27808 0.1808 0.92673 0.0
C1607 C 0.33802 0.18116 0.98356 0.0
C1608 C 0.31734 0.18088 0.96382 0.0
H1609 H 0.20114 0.1733 0.90782 0.0
H1610 H 0.2328 0.17351 0.93809 0.0
H1611 H 0.30105 0.19562 0.89831 0.0
H1612 H 0.3893 0.20453 0.99057 0.0
H1613 H 0.35858 0.2025 0.959 0.0
C1614 C 0.67849 0.46842 0.14673 0.0
C1615 C 0.67075 0.4692 0.11924 0.0
C1616 C 0.67854 0.48704 0.16465 0.0
C1617 C 0.65729 0.54704 0.1717 0.0
H1618 H 0.69469 0.54867 0.23528 0.0
C1619 C 0.65827 0.62618 0.24507 0.0
C1620 C 0.66777 0.62611 0.27164 0.0
C1621 C 0.65958 0.60806 0.22651 0.0
C1622 C 0.68378 0.54896 0.21792 0.0
H1623 H 0.6569 0.49206 0.09044 0.0
H1624 H 0.65708 0.52366 0.12063 0.0
H1625 H 0.69485 0.5172 0.20526 0.0
H1626 H 0.68529 0.6046 0.29869 0.0
H1627 H 0.68771 0.57379 0.26743 0.0
H1628 H 0.64609 0.57864 0.18431 0.0
C1629 C 0.66305 0.50855 0.12895 0.0
C1630 C 0.68389 0.53027 0.20015 0.0
C1631 C 0.66306 0.48999 0.11107 0.0
C1632 C 0.67837 0.60636 0.27841 0.0
C1633 C 0.67962 0.58816 0.25997 0.0
C1634 C 0.65713 0.56568 0.18951 0.0
C1635 C 0.67077 0.50792 0.15654 0.0
C1636 C 0.67066 0.5285 0.17624 0.0
C1637 C 0.67 0.58805 0.2333 0.0
C1638 C 0.67037 0.56751 0.21344 0.0
H1639 H 0.68454 0.45319 0.1547 0.0
H1640 H 0.68453 0.48476 0.18529 0.0
H1641 H 0.64638 0.54723 0.15433 0.0
H1642 H 0.64919 0.64026 0.23864 0.0
H1643 H 0.65191 0.60991 0.20673 0.0
C1644 C 0.38188 0.92778 0.39637 0.0
C1645 C 0.38094 0.92002 0.36891 0.0
C1646 C 0.36331 0.92782 0.41451 0.0
C1647 C 0.30303 0.90666 0.42239 0.0
H1648 H 0.30218 0.94381 0.48615 0.0
C1649 C 0.22409 0.90802 0.49672 0.0
C1650 C 0.22453 0.91699 0.52354 0.0
C1651 C 0.24215 0.90936 0.47791 0.0
C1652 C 0.30169 0.93298 0.46876 0.0
H1653 H 0.35783 0.9061 0.3404 0.0
H1654 H 0.32626 0.90626 0.371 0.0
H1655 H 0.33353 0.94398 0.45562 0.0
H1656 H 0.24668 0.93363 0.55076 0.0
H1657 H 0.27744 0.93612 0.51906 0.0
H1658 H 0.27132 0.89553 0.43549 0.0
C1659 C 0.34148 0.91227 0.37912 0.0
C1660 C 0.32029 0.93308 0.45068 0.0
C1661 C 0.36002 0.91229 0.36099 0.0
C1662 C 0.24462 0.92713 0.53031 0.0
C1663 C 0.26278 0.92843 0.51162 0.0
C1664 C 0.28447 0.90651 0.4405 0.0
C1665 C 0.3423 0.92002 0.40669 0.0
C1666 C 0.32178 0.91993 0.42669 0.0
C1667 C 0.26249 0.91929 0.48469 0.0
C1668 C 0.28294 0.91966 0.46452 0.0
H1669 H 0.39722 0.93386 0.40415 0.0
H1670 H 0.36575 0.93383 0.43511 0.0
H1671 H 0.30261 0.89581 0.40499 0.0
H1672 H 0.20974 0.89934 0.49025 0.0
H1673 H 0.23999 0.90211 0.45794 0.0
C1674 C 0.93603 0.61012 0.61244 0.0
C1675 C 0.93029 0.63133 0.6214 0.0
C1676 C 0.93584 0.59142 0.63023 0.0
C1677 C 0.91822 0.57083 0.70368 0.0
H1678 H 0.94992 0.51926 0.68327 0.0
C1679 C 0.92383 0.4945 0.78168 0.0
C1680 C 0.93099 0.47356 0.77352 0.0
C1681 C 0.92279 0.51279 0.76331 0.0
C1682 C 0.94061 0.53319 0.68977 0.0
H1683 H 0.91973 0.6479 0.65816 0.0
H1684 H 0.9195 0.61621 0.68859 0.0
H1685 H 0.9502 0.55084 0.6533 0.0
H1686 H 0.94387 0.4574 0.73784 0.0
H1687 H 0.9415 0.48807 0.70608 0.0
H1688 H 0.90861 0.55322 0.74012 0.0
C1689 C 0.92407 0.61365 0.66742 0.0
C1690 C 0.94078 0.55192 0.67199 0.0
C1691 C 0.92431 0.63238 0.64959 0.0
C1692 C 0.9374 0.47244 0.74552 0.0
C1693 C 0.93635 0.49071 0.72701 0.0
C1694 C 0.91803 0.55209 0.72144 0.0
C1695 C 0.92984 0.59233 0.65853 0.0
C1696 C 0.92962 0.57161 0.67816 0.0
C1697 C 0.92931 0.51183 0.73521 0.0
C1698 C 0.92925 0.53242 0.71533 0.0
H1699 H 0.94073 0.60779 0.59123 0.0
H1700 H 0.94024 0.57602 0.62128 0.0
H1701 H 0.90895 0.58478 0.71017 0.0
H1702 H 0.91965 0.49708 0.80302 0.0
H1703 H 0.91751 0.52805 0.77187 0.0
C1704 C 0.74383 0.92759 0.98569 0.0
C1705 C 0.72466 0.91549 0.99166 0.0
C1706 C 0.76212 0.92886 1.0041 0.0
C1707 C 0.7834 0.90997 0.07698 0.0
H1708 H 0.83812 0.93334 0.05112 0.0
C1709 C 0.86089 0.91439 0.15321 0.0
C1710 C 0.88247 0.9187 0.14399 0.0
C1711 C 0.84229 0.91435 0.1353 0.0
C1712 C 0.82325 0.92651 0.0593 0.0
H1713 H 0.71189 0.89388 0.02274 0.0
H1714 H 0.74262 0.8961 0.05427 0.0
H1715 H 0.80672 0.93271 0.02102 0.0
H1716 H 0.89984 0.92637 0.10655 0.0
H1717 H 0.86832 0.92608 0.07585 0.0
H1718 H 0.8 0.90334 0.11503 0.0
C1719 C 0.74366 0.90552 0.03561 0.0
C1720 C 0.80451 0.92633 0.0415 0.0
C1721 C 0.7254 0.90432 0.01718 0.0
C1722 C 0.884 0.92297 0.11535 0.0
C1723 C 0.86536 0.92287 0.09734 0.0
C1724 C 0.80213 0.9101 0.09475 0.0
C1725 C 0.76302 0.91761 0.02975 0.0
C1726 C 0.78371 0.91804 0.04951 0.0
C1727 C 0.84363 0.91854 0.10651 0.0
C1728 C 0.82293 0.91839 0.08675 0.0
H1729 H 0.74504 0.93577 0.96607 0.0
H1730 H 0.77582 0.93862 0.99759 0.0
H1731 H 0.76845 0.90344 0.08535 0.0
H1732 H 0.85818 0.91105 0.17476 0.0
H1733 H 0.82664 0.91113 0.14459 0.0
C1734 C 0.44419 0.61273 0.89948 0.0
C1735 C 0.43509 0.63304 0.89168 0.0
C1736 C 0.44417 0.59395 0.88191 0.0
C1737 C 0.42073 0.57045 0.81273 0.0
H1738 H 0.46045 0.52334 0.82703 0.0
C1739 C 0.42522 0.49339 0.73565 0.0
C1740 C 0.43649 0.47396 0.74222 0.0
C1741 C 0.42424 0.51183 0.75376 0.0
C1742 C 0.44886 0.53594 0.82229 0.0
H1743 H 0.41854 0.64783 0.85728 0.0
H1744 H 0.41861 0.61598 0.8272 0.0
H1745 H 0.46051 0.55515 0.85636 0.0
H1746 H 0.45675 0.46075 0.7743 0.0
H1747 H 0.4545 0.49155 0.80568 0.0
H1748 H 0.40905 0.55127 0.7787 0.0
C1749 C 0.42582 0.61424 0.84729 0.0
C1750 C 0.44891 0.55482 0.83973 0.0
C1751 C 0.4259 0.63306 0.86488 0.0
C1752 C 0.44703 0.47453 0.76816 0.0
C1753 C 0.44601 0.49291 0.78638 0.0
C1754 C 0.42064 0.55153 0.79533 0.0
C1755 C 0.43496 0.59382 0.85504 0.0
C1756 C 0.43486 0.57295 0.83573 0.0
C1757 C 0.43485 0.51256 0.77982 0.0
C1758 C 0.43473 0.53339 0.79928 0.0
H1759 H 0.45138 0.61116 0.91964 0.0
H1760 H 0.45126 0.57924 0.88998 0.0
H1761 H 0.4092 0.58313 0.80806 0.0
H1762 H 0.41757 0.49471 0.71573 0.0
H1763 H 0.41555 0.52591 0.7465 0.0
C1764 C 0.74242 0.18576 0.65349 0.0
C1765 C 0.72147 0.17829 0.64535 0.0
C1766 C 0.76105 0.18575 0.6355 0.0
C1767 C 0.78212 0.16575 0.5634 0.0
H1768 H 0.83216 0.20146 0.58019 0.0
C1769 C 0.8574 0.17222 0.48363 0.0
C1770 C 0.87807 0.18093 0.49078 0.0
C1771 C 0.83935 0.171 0.50242 0.0
C1772 C 0.81867 0.19103 0.57474 0.0
H1773 H 0.70523 0.16491 0.60979 0.0
H1774 H 0.7368 0.16494 0.57906 0.0
H1775 H 0.80076 0.20129 0.61065 0.0
H1776 H 0.89403 0.19633 0.52518 0.0
H1777 H 0.86371 0.1937 0.55759 0.0
H1778 H 0.79999 0.15545 0.52754 0.0
C1779 C 0.73924 0.17073 0.59975 0.0
C1780 C 0.80005 0.19093 0.5928 0.0
C1781 C 0.72059 0.17077 0.61777 0.0
C1782 C 0.87919 0.18869 0.51823 0.0
C1783 C 0.86113 0.18746 0.53715 0.0
C1784 C 0.80074 0.16582 0.54537 0.0
C1785 C 0.76031 0.17826 0.60781 0.0
C1786 C 0.78092 0.17831 0.58791 0.0
C1787 C 0.84027 0.17885 0.52993 0.0
C1788 C 0.81985 0.1785 0.55017 0.0
H1789 H 0.74458 0.19176 0.67418 0.0
H1790 H 0.77628 0.19156 0.64382 0.0
H1791 H 0.76863 0.15533 0.55795 0.0
H1792 H 0.85483 0.16687 0.46274 0.0
H1793 H 0.82425 0.16448 0.4946 0.0
C1794 C 0.17576 0.46678 0.36454 0.0
C1795 C 0.17117 0.46784 0.39313 0.0
C1796 C 0.17557 0.48557 0.34683 0.0
C1797 C 0.16256 0.54856 0.34515 0.0
H1798 H 0.18442 0.54468 0.27101 0.0
C1799 C 0.1568 0.62593 0.2686 0.0
C1800 C 0.16729 0.62665 0.2426 0.0
C1801 C 0.15809 0.60758 0.28688 0.0
C1802 C 0.17825 0.5467 0.29161 0.0
H1803 H 0.16285 0.49147 0.42419 0.0
H1804 H 0.16276 0.52331 0.39451 0.0
H1805 H 0.18515 0.51312 0.30069 0.0
H1806 H 0.18697 0.6064 0.21638 0.0
H1807 H 0.18988 0.57545 0.24749 0.0
H1808 H 0.156 0.58222 0.33624 0.0
C1809 C 0.16632 0.50791 0.38502 0.0
C1810 C 0.1785 0.52785 0.30919 0.0
C1811 C 0.16644 0.48913 0.40264 0.0
C1812 C 0.17907 0.60751 0.23618 0.0
C1813 C 0.18043 0.58914 0.25441 0.0
C1814 C 0.16236 0.56741 0.3276 0.0
C1815 C 0.17085 0.50703 0.35627 0.0
C1816 C 0.17064 0.52789 0.33678 0.0
C1817 C 0.16968 0.58816 0.28043 0.0
C1818 C 0.17017 0.56736 0.29999 0.0
H1819 H 0.1795 0.45118 0.35554 0.0
H1820 H 0.17906 0.48292 0.32538 0.0
H1821 H 0.15602 0.5505 0.36557 0.0
H1822 H 0.14692 0.63957 0.27477 0.0
H1823 H 0.14918 0.60865 0.30594 0.0
C1824 C 0.71814 0.67685 0.39816 0.0
C1825 C 0.7196 0.68098 0.36949 0.0
C1826 C 0.73679 0.67694 0.41608 0.0
C1827 C 0.80012 0.68904 0.41846 0.0
H1828 H 0.795 0.6673 0.49253 0.0
C1829 C 0.87711 0.69372 0.4958 0.0
C1830 C 0.87714 0.68375 0.52212 0.0
C1831 C 0.8589 0.69256 0.47728 0.0
C1832 C 0.79738 0.67345 0.47198 0.0
H1833 H 0.74378 0.68837 0.33851 0.0
H1834 H 0.77545 0.68828 0.36859 0.0
H1835 H 0.76374 0.66678 0.46239 0.0
H1836 H 0.85578 0.66545 0.54877 0.0
H1837 H 0.82507 0.6627 0.51726 0.0
H1838 H 0.83384 0.69536 0.42786 0.0
C1839 C 0.75981 0.68518 0.37795 0.0
C1840 C 0.77871 0.67333 0.45413 0.0
C1841 C 0.74115 0.68515 0.3601 0.0
C1842 C 0.85744 0.67276 0.52867 0.0
C1843 C 0.83921 0.67153 0.51019 0.0
C1844 C 0.81882 0.6891 0.43629 0.0
C1845 C 0.7585 0.68109 0.40679 0.0
C1846 C 0.77919 0.68115 0.42654 0.0
C1847 C 0.83895 0.68168 0.48379 0.0
C1848 C 0.81832 0.68134 0.46391 0.0
H1849 H 0.70232 0.67354 0.40707 0.0
H1850 H 0.73384 0.67384 0.43758 0.0
H1851 H 0.80238 0.69555 0.39806 0.0
H1852 H 0.8912 0.70307 0.48957 0.0
H1853 H 0.86054 0.70099 0.45795 0.0
C1854 C 0.17752 0.10673 0.77957 0.0
C1855 C 0.16577 0.12591 0.77327 0.0
C1856 C 0.17889 0.08846 0.76125 0.0
C1857 C 0.16065 0.06714 0.68814 0.0
H1858 H 0.18382 1.01278 0.71443 0.0
C1859 C 0.16522 0.9895 0.61251 0.0
C1860 C 0.1696 0.9681 0.62196 0.0
C1861 C 0.16509 1.00815 0.63025 0.0
C1862 C 0.17705 1.02754 0.70613 0.0
H1863 H 0.14501 0.13879 0.74152 0.0
H1864 H 0.14735 0.10812 0.71015 0.0
H1865 H 0.18307 1.04415 0.74433 0.0
H1866 H 0.17731 0.95109 0.65954 0.0
H1867 H 0.17684 0.98265 0.68992 0.0
H1868 H 0.15419 0.05042 0.65015 0.0
C1869 C 0.15639 0.10701 0.72908 0.0
C1870 C 0.1768 1.04627 0.72382 0.0
C1871 C 0.1551 0.12525 0.74743 0.0
C1872 C 0.17385 0.96679 0.6506 0.0
C1873 C 0.17366 0.98546 0.66842 0.0
C1874 C 0.16085 0.0484 0.67048 0.0
C1875 C 0.16809 0.08761 0.73532 0.0
C1876 C 0.16859 0.06694 0.71565 0.0
C1877 C 0.16927 1.00702 0.65904 0.0
C1878 C 0.16906 1.02773 0.67864 0.0
H1879 H 0.18537 0.1055 0.79938 0.0
H1880 H 0.18835 0.07475 0.76806 0.0
H1881 H 0.15419 0.08197 0.67965 0.0
H1882 H 0.1619 0.99202 0.59093 0.0
H1883 H 0.16183 1.02367 0.62082 0.0
C1884 C 0.72168 0.40942 0.99536 0.0
C1885 C 0.72239 0.4182 0.02232 0.0
C1886 C 0.73977 0.41064 0.97649 0.0
C1887 C 0.79978 0.43343 0.96782 0.0
H1888 H 0.80031 0.39722 0.90319 0.0
C1889 C 0.88027 0.42798 0.89599 0.0
C1890 C 0.87938 0.42061 0.86835 0.0
C1891 C 0.86158 0.42804 0.91396 0.0
C1892 C 0.80085 0.40778 0.92086 0.0
H1893 H 0.745 0.43394 0.04975 0.0
H1894 H 0.77561 0.43636 0.01795 0.0
H1895 H 0.76885 0.39708 0.9335 0.0
H1896 H 0.85624 0.40741 0.83935 0.0
H1897 H 0.82449 0.4076 0.86967 0.0
H1898 H 0.83186 0.44405 0.95518 0.0
C1899 C 0.7608 0.42904 0.01039 0.0
C1900 C 0.78219 0.4077 0.93885 0.0
C1901 C 0.74271 0.42784 0.02913 0.0
C1902 C 0.8584 0.41328 0.86009 0.0
C1903 C 0.83975 0.41328 0.87804 0.0
C1904 C 0.81846 0.43346 0.94988 0.0
C1905 C 0.7603 0.42021 0.98332 0.0
C1906 C 0.7808 0.42051 0.96318 0.0
C1907 C 0.84049 0.42066 0.90578 0.0
C1908 C 0.81985 0.42063 0.9256 0.0
H1909 H 0.70716 0.40092 0.98885 0.0
H1910 H 0.73749 0.40356 0.95643 0.0
H1911 H 0.80041 0.44401 0.98544 0.0
H1912 H 0.89564 0.43374 0.90404 0.0
H1913 H 0.86399 0.43374 0.9347 0.0
C1914 C 0.44271 0.9722 0.24612 0.0
C1915 C 0.43249 0.97193 0.27232 0.0
C1916 C 0.44159 0.99044 0.2276 0.0
C1917 C 0.42157 0.05149 0.22206 0.0
H1918 H 0.44612 1.04786 0.14925 0.0
C1919 C 0.4255 0.13129 0.14906 0.0
C1920 C 0.4302 0.13012 0.12051 0.0
C1921 C 0.42552 0.11255 0.16686 0.0
C1922 C 0.4389 0.04972 0.16933 0.0
H1923 H 0.41402 0.99303 0.29884 0.0
H1924 H 0.41124 1.02367 0.26736 0.0
H1925 H 0.44588 1.01625 0.17881 0.0
H1926 H 0.43855 0.10635 0.08963 0.0
H1927 H 0.43836 0.07457 0.11951 0.0
H1928 H 0.4143 0.0849 0.21237 0.0
C1929 C 0.42017 1.00969 0.26029 0.0
C1930 C 0.43892 1.03093 0.18702 0.0
C1931 C 0.42139 0.99147 0.27875 0.0
C1932 C 0.43487 0.10877 0.11113 0.0
C1933 C 0.43485 0.09004 0.12886 0.0
C1934 C 0.42151 0.07026 0.20434 0.0
C1935 C 0.43054 1.01021 0.23401 0.0
C1936 C 0.43027 1.03093 0.21425 0.0
C1937 C 0.43019 0.09105 0.15757 0.0
C1938 C 0.4302 0.07026 0.17716 0.0
H1939 H 0.4524 0.95839 0.24006 0.0
H1940 H 0.45021 0.98899 0.20838 0.0
H1941 H 0.41466 0.05351 0.24227 0.0
H1942 H 0.4218 0.14693 0.15796 0.0
H1943 H 0.42197 0.11526 0.1883 0.0
C1944 C 0.24474 0.42747 0.48579 0.0
C1945 C 0.22562 0.41529 0.49173 0.0
C1946 C 0.26301 0.42881 0.50423 0.0
C1947 C 0.28432 0.40995 0.5771 0.0
H1948 H 0.33889 0.43369 0.55124 0.0
C1949 C 0.36201 0.4146 0.65313 0.0
C1950 C 0.3835 0.41915 0.64378 0.0
C1951 C 0.34333 0.41446 0.63532 0.0
C1952 C 0.32407 0.42675 0.55943 0.0
H1953 H 0.21289 0.39366 0.52281 0.0
H1954 H 0.24357 0.396 0.55439 0.0
H1955 H 0.3075 0.43292 0.52119 0.0
H1956 H 0.40064 0.42714 0.60628 0.0
H1957 H 0.36906 0.42666 0.5758 0.0
H1958 H 0.30099 0.40336 0.61513 0.0
C1959 C 0.2446 0.40541 0.53573 0.0
C1960 C 0.30533 0.4265 0.54165 0.0
C1961 C 0.22636 0.40414 0.51726 0.0
C1962 C 0.38487 0.42354 0.61516 0.0
C1963 C 0.36619 0.42334 0.59727 0.0
C1964 C 0.30306 0.41016 0.59485 0.0
C1965 C 0.26391 0.41757 0.52988 0.0
C1966 C 0.28459 0.41808 0.54965 0.0
C1967 C 0.34454 0.4188 0.60655 0.0
C1968 C 0.32381 0.41857 0.58685 0.0
H1969 H 0.24595 0.43563 0.46616 0.0
H1970 H 0.27667 0.43862 0.49773 0.0
H1971 H 0.26942 0.40334 0.58546 0.0
H1972 H 0.35943 0.41116 0.67469 0.0
H1973 H 0.32774 0.41106 0.64467 0.0
C1974 C 0.92234 0.12959 0.36971 0.0
C1975 C 0.93293 0.12989 0.39566 0.0
C1976 C 0.92218 0.11088 0.35196 0.0
C1977 C 0.94711 0.05241 0.34209 0.0
H1978 H 0.90555 0.04834 0.2829 0.0
C1979 C 0.94416 0.97239 0.27038 0.0
C1980 C 0.93413 0.97219 0.24412 0.0
C1981 C 0.9431 0.99059 0.28883 0.0
C1982 C 0.91761 0.0488 0.29899 0.0
H1983 H 0.95175 0.10875 0.42193 0.0
H1984 H 0.9514 0.07692 0.39205 0.0
H1985 H 0.90568 0.0799 0.31282 0.0
H1986 H 0.91603 0.99349 0.21738 0.0
H1987 H 0.91387 1.02445 0.24866 0.0
H1988 H 0.95907 1.02136 0.32825 0.0
C1989 C 0.94321 0.0913 0.38476 0.0
C1990 C 0.9177 0.06752 0.31673 0.0
C1991 C 0.94336 0.11001 0.40248 0.0
C1992 C 0.92326 0.99185 0.23751 0.0
C1993 C 0.92219 1.01013 0.2559 0.0
C1994 C 0.94702 1.0337 0.32436 0.0
C1995 C 0.93261 0.09088 0.35868 0.0
C1996 C 0.93246 0.07018 0.33908 0.0
C1997 C 0.93237 1.01044 0.28224 0.0
C1998 C 0.93227 1.03104 0.302 0.0
H1999 H 0.91402 0.14405 0.36282 0.0
H2000 H 0.91387 0.11244 0.33254 0.0
H2001 H 0.95921 0.05287 0.35813 0.0
H2002 H 0.95355 0.95846 0.27659 0.0
H2003 H 0.9512 0.98896 0.30838 0.0
C2004 C 0.21818 0.67729 0.11591 0.0
C2005 C 0.21935 0.68197 0.14445 0.0
C2006 C 0.23695 0.67746 0.09811 0.0
C2007 C 0.29996 0.6911 0.09567 0.0
H2008 H 0.29608 0.66749 0.02249 0.0
C2009 C 0.37686 0.6971 0.01811 0.0
C2010 C 0.37787 0.68557 0.99291 0.0
C2011 C 0.35855 0.69586 0.03654 0.0
C2012 C 0.29808 0.67415 0.04281 0.0
H2013 H 0.24316 0.69044 0.17532 0.0
H2014 H 0.27503 0.6905 0.14544 0.0
H2015 H 0.26455 0.66678 0.05246 0.0
H2016 H 0.35802 0.66447 0.96791 0.0
H2017 H 0.32718 0.66154 0.99947 0.0
H2018 H 0.33359 0.6981 0.08623 0.0
C2019 C 0.25952 0.68689 0.13609 0.0
C2020 C 0.27927 0.67394 0.06054 0.0
C2021 C 0.24074 0.68678 0.15382 0.0
C2022 C 0.359 0.67298 0.98728 0.0
C2023 C 0.34066 0.67167 1.00569 0.0
C2024 C 0.31878 0.69127 0.07798 0.0
C2025 C 0.25851 0.68226 0.10739 0.0
C2026 C 0.27933 0.68243 0.08778 0.0
C2027 C 0.33946 0.68332 0.03099 0.0
C2028 C 0.31871 0.68284 0.05071 0.0
H2029 H 0.2025 0.67347 0.10702 0.0
H2030 H 0.23423 0.67392 0.07669 0.0
H2031 H 0.30188 0.69815 0.1158 0.0
H2032 H 0.39019 0.7078 0.02342 0.0
H2033 H 0.35935 0.70557 0.05493 0.0
C2034 C 0.68028 0.10708 0.73461 0.0
C2035 C 0.66943 0.12673 0.74116 0.0
C2036 C 0.6814 0.08882 0.75302 0.0
C2037 C 0.66222 0.06745 0.82612 0.0
H2038 H 0.68797 1.01384 0.80138 0.0
C2039 C 0.6661 0.98957 0.90199 0.0
C2040 C 0.671 0.96826 0.89265 0.0
C2041 C 0.6662 1.00833 0.88431 0.0
C2042 C 0.68042 1.02838 0.80921 0.0
H2043 H 0.64985 0.14045 0.77362 0.0
H2044 H 0.65193 0.10981 0.80525 0.0
H2045 H 0.68779 1.04527 0.77156 0.0
H2046 H 0.6799 0.95157 0.85529 0.0
H2047 H 0.67986 0.9833 0.82503 0.0
H2048 H 0.65455 0.05036 0.86364 0.0
C2049 C 0.66039 0.10826 0.78593 0.0
C2050 C 0.68046 1.04717 0.79155 0.0
C2051 C 0.65935 0.12654 0.76745 0.0
C2052 C 0.67601 0.96717 0.86417 0.0
C2053 C 0.67607 0.98595 0.84642 0.0
C2054 C 0.66216 0.04864 0.84377 0.0
C2055 C 0.67119 0.08838 0.7794 0.0
C2056 C 0.67135 0.06762 0.79914 0.0
C2057 C 0.67118 1.0074 0.85569 0.0
C2058 C 0.67125 1.02822 0.83614 0.0
H2059 H 0.68752 0.10546 0.71445 0.0
H2060 H 0.6901 0.07475 0.74581 0.0
H2061 H 0.65489 0.08202 0.83415 0.0
H2062 H 0.66218 0.99194 0.92344 0.0
H2063 H 0.6625 1.02377 0.89364 0.0
C2064 C 0.524 0.14095 0.9452 0.0
C2065 C 0.53084 0.15687 0.96396 0.0
C2066 C 0.52985 0.14244 0.9175 0.0
C2067 C 0.54929 0.18121 0.86497 0.0
H2068 H 0.57707 0.13133 0.83167 0.0
C2069 C 0.61291 0.18919 0.78062 0.0
C2070 C 0.61413 0.17372 0.75962 0.0
C2071 C 0.59796 0.18681 0.80189 0.0
C2072 C 0.5689 0.14526 0.84038 0.0
H2073 H 0.54845 0.18717 0.96833 0.0
H2074 H 0.55872 0.18976 0.92012 0.0
H2075 H 0.55959 0.12764 0.87651 0.0
H2076 H 0.60024 0.14397 0.74372 0.0
H2077 H 0.57389 0.13963 0.78137 0.0
H2078 H 0.5592 0.19902 0.82936 0.0
C2079 C 0.54883 0.17614 0.92674 0.0
C2080 C 0.55894 0.14316 0.86609 0.0
C2081 C 0.54319 0.17453 0.9544 0.0
C2082 C 0.59954 0.15614 0.75969 0.0
C2083 C 0.58462 0.15361 0.78127 0.0
C2084 C 0.55916 0.18328 0.83929 0.0
C2085 C 0.54238 0.16004 0.90801 0.0
C2086 C 0.54971 0.16131 0.87904 0.0
C2087 C 0.58387 0.16883 0.80275 0.0
C2088 C 0.56977 0.16554 0.82717 0.0
H2089 H 0.5145 0.12713 0.95206 0.0
H2090 H 0.5246 0.12984 0.9035 0.0
H2091 H 0.54191 0.19536 0.87422 0.0
H2092 H 0.6237 0.20309 0.78079 0.0
H2093 H 0.59804 0.19869 0.81824 0.0
C2094 C 0.70765 0.77341 0.1937 0.0
C2095 C 0.6916 0.78022 0.21237 0.0
C2096 C 0.70611 0.77881 0.16588 0.0
C2097 C 0.70528 0.80689 0.11382 0.0
H2098 H 0.64932 0.80615 0.07719 0.0
C2099 C 0.69297 0.84591 1.00684 0.0
C2100 C 0.67544 0.86045 1.00646 0.0
C2101 C 0.69518 0.83112 0.02853 0.0
C2102 C 0.66508 0.80639 0.08709 0.0
H2103 H 0.66103 0.79734 0.21644 0.0
H2104 H 0.6584 0.80689 0.16802 0.0
H2105 H 0.65292 0.78968 0.1225 0.0
H2106 H 0.64572 0.86995 0.02703 0.0
H2107 H 0.64955 0.8445 0.06471 0.0
H2108 H 0.7172 0.82446 0.07892 0.0
C2109 C 0.67214 0.79733 0.17481 0.0
C2110 C 0.66713 0.79699 0.11303 0.0
C2111 C 0.67378 0.79211 0.20259 0.0
C2112 C 0.65959 0.85919 0.02712 0.0
C2113 C 0.66165 0.84437 0.04853 0.0
C2114 C 0.70321 0.81637 0.08785 0.0
C2115 C 0.68835 0.79088 0.15617 0.0
C2116 C 0.68707 0.79778 0.12704 0.0
C2117 C 0.67969 0.83047 0.04984 0.0
C2118 C 0.68291 0.81685 0.07464 0.0
H2119 H 0.72159 0.76425 0.20071 0.0
H2120 H 0.7188 0.77356 0.15197 0.0
H2121 H 0.72083 0.80784 0.12417 0.0
H2122 H 0.70542 0.84664 0.99111 0.0
H2123 H 0.70918 0.82051 0.02894 0.0
C2124 C 0.98074 0.92253 0.28954 0.0
C2125 C 0.98743 0.92325 0.26197 0.0
C2126 C 0.99585 0.92237 0.31061 0.0
C2127 C 1.04976 0.93756 0.33191 0.0
H2128 H 1.0369 0.89583 0.38939 0.0
C2129 C 0.07189 0.95129 0.44525 0.0
C2130 C 0.07459 0.93329 0.46248 0.0
C2131 C 0.06699 0.94835 0.4175 0.0
C2132 C 1.04123 0.90731 0.37344 0.0
H2133 H 1.01547 0.92543 0.23502 0.0
H2134 H 1.04231 0.92537 0.27253 0.0
H2135 H 1.01788 0.89358 0.34606 0.0
H2136 H 0.07619 0.8983 0.46437 0.0
H2137 H 0.0684 0.893 0.41572 0.0
H2138 H 0.07285 0.9516 0.35968 0.0
C2139 C 1.02512 0.92469 0.27742 0.0
C2140 C 1.03012 0.90611 0.34863 0.0
C2141 C 1.0098 0.92476 0.25604 0.0
C2142 C 0.07368 0.91236 0.45141 0.0
C2143 C 0.0692 0.90939 0.4236 0.0
C2144 C 0.06104 0.93874 0.35684 0.0
C2145 C 1.01818 0.92299 0.30486 0.0
C2146 C 1.0336 0.92172 0.32809 0.0
C2147 C 0.06507 0.92732 0.40645 0.0
C2148 C 0.05631 0.92407 0.37828 0.0
H2149 H 0.96371 0.92208 0.29507 0.0
H2150 H 0.98999 0.92171 0.33158 0.0
H2151 H 0.05274 0.94978 0.31634 0.0
H2152 H 0.07271 0.96758 0.45351 0.0
H2153 H 0.06369 0.96254 0.40509 0.0
C2154 C 0.90517 0.24216 0.51834 0.0
C2155 C 0.92564 0.23649 0.5081 0.0
C2156 C 0.90349 0.25508 0.54181 0.0
C2157 C 0.93698 0.27126 0.60214 0.0
H2158 H 0.8855 0.30446 0.61999 0.0
C2159 C 0.9178 0.29505 0.71339 0.0
C2160 C 0.90619 0.31419 0.71886 0.0
C2161 C 0.92102 0.28801 0.68648 0.0
C2162 C 0.90021 0.2956 0.61529 0.0
H2163 H 0.96036 0.24056 0.51275 0.0
H2164 H 0.95762 0.26458 0.55226 0.0
H2165 H 0.88985 0.28995 0.57408 0.0
H2166 H 0.88909 0.34104 0.69975 0.0
H2167 H 0.8959 0.32952 0.65296 0.0
H2168 H 0.94787 0.27776 0.64283 0.0
C2169 C 0.94276 0.25838 0.5433 0.0
C2170 C 0.90254 0.2869 0.58895 0.0
C2171 C 0.94439 0.24495 0.52035 0.0
C2172 C 0.89834 0.32636 0.69652 0.0
C2173 C 0.90194 0.31953 0.66954 0.0
C2174 C 0.93488 0.28034 0.62822 0.0
C2175 C 0.92231 0.26293 0.55508 0.0
C2176 C 0.92075 0.2742 0.58214 0.0
C2177 C 0.91315 0.30013 0.66412 0.0
C2178 C 0.91623 0.29219 0.63544 0.0
H2179 H 0.89053 0.23558 0.50917 0.0
H2180 H 0.88745 0.25788 0.55026 0.0
H2181 H 0.95112 0.26134 0.59811 0.0
H2182 H 0.92452 0.28541 0.72989 0.0
H2183 H 0.9294 0.2728 0.68336 0.0
C2184 C 0.57679 0.95757 0.06748 0.0
C2185 C 0.57 0.9415 0.0489 0.0
C2186 C 0.57106 0.95619 0.09523 0.0
C2187 C 0.54221 0.95549 0.14684 0.0
H2188 H 0.5427 0.89984 0.18408 0.0
C2189 C 0.50221 0.94279 0.25359 0.0
C2190 C 0.4878 0.92507 0.25394 0.0
C2191 C 0.51704 0.94532 0.23192 0.0
C2192 C 0.54253 0.91552 0.174 0.0
H2193 H 0.55258 0.91105 0.04489 0.0
H2194 H 0.54252 0.90865 0.0932 0.0
H2195 H 0.5597 0.90341 0.13902 0.0
H2196 H 0.47849 0.89543 0.2332 0.0
H2197 H 0.50398 0.89981 0.19556 0.0
H2198 H 0.52415 0.96734 0.18131 0.0
C2199 C 0.55228 0.92231 0.0864 0.0
C2200 C 0.55223 0.91755 0.14821 0.0
C2201 C 0.5578 0.9238 0.05868 0.0
C2202 C 0.48914 0.90944 0.23314 0.0
C2203 C 0.50399 0.91182 0.21177 0.0
C2204 C 0.53241 0.95344 0.17266 0.0
C2205 C 0.55871 0.93854 0.10494 0.0
C2206 C 0.55154 0.93736 0.13398 0.0
C2207 C 0.51787 0.92994 0.21061 0.0
C2208 C 0.53182 0.93323 0.18606 0.0
H2209 H 0.58617 0.97142 0.06045 0.0
H2210 H 0.57629 0.96889 0.10909 0.0
H2211 H 0.54135 0.97094 0.13629 0.0
H2212 H 0.50141 0.95508 0.26942 0.0
H2213 H 0.52762 0.9594 0.2316 0.0
C2214 C 0.3941 0.32734 0.82086 0.0
C2215 C 0.40983 0.32024 0.80194 0.0
C2216 C 0.3957 0.3217 0.84861 0.0
C2217 C 0.43452 0.3021 0.90084 0.0
H2218 H 0.38405 0.27539 0.93496 0.0
C2219 C 0.44128 0.23898 0.98578 0.0
C2220 C 0.42557 0.23789 1.00663 0.0
C2221 C 0.43935 0.25396 0.96455 0.0
C2222 C 0.39816 0.28326 0.92603 0.0
H2223 H 0.43994 0.30242 0.79734 0.0
H2224 H 0.44269 0.29249 0.84563 0.0
H2225 H 0.38054 0.29259 0.89003 0.0
H2226 H 0.39597 0.25216 0.02245 0.0
H2227 H 0.39243 0.2786 0.98493 0.0
H2228 H 0.45233 0.29216 0.93635 0.0
C2229 C 0.42914 0.30243 0.83911 0.0
C2230 C 0.39616 0.29307 0.90025 0.0
C2231 C 0.42743 0.30787 0.8114 0.0
C2232 C 0.40831 0.25274 1.00657 0.0
C2233 C 0.40623 0.26771 0.98505 0.0
C2234 C 0.43651 0.29238 0.92659 0.0
C2235 C 0.41321 0.30912 0.85799 0.0
C2236 C 0.4145 0.30192 0.887 0.0
C2237 C 0.42159 0.26823 0.96359 0.0
C2238 C 0.41853 0.28217 0.93904 0.0
H2239 H 0.38033 0.33686 0.8141 0.0
H2240 H 0.38323 0.32714 0.86272 0.0
H2241 H 0.44884 0.30919 0.89136 0.0
H2242 H 0.45497 0.22798 0.98563 0.0
H2243 H 0.45134 0.25372 0.94824 0.0
C2244 C 0.08996 0.16256 0.76463 0.0
C2245 C 0.1104 0.17084 0.75681 0.0
C2246 C 0.07419 0.15774 0.74487 0.0
C2247 C 0.05831 0.16952 0.67351 0.0
H2248 H 1.03038 0.11302 0.67581 0.0
C2249 C 0.99538 0.14361 0.59246 0.0
C2250 C 0.99842 0.12291 0.58105 0.0
C2251 C 1.00667 0.14987 0.61599 0.0
C2252 C 1.03805 0.12886 0.67493 0.0
H2253 H 0.13 0.18077 0.72184 0.0
H2254 H 0.10258 0.17273 0.68771 0.0
H2255 H 0.05465 0.12396 0.71306 0.0
H2256 H 1.01551 0.0924 0.58574 0.0
H2257 H 1.03521 0.10331 0.6269 0.0
H2258 H 1.04227 0.17423 0.63508 0.0
C2259 C 0.09868 0.17006 0.70914 0.0
C2260 C 0.05175 0.1352 0.69637 0.0
C2261 C 0.11445 0.17467 0.72881 0.0
C2262 C 1.0126 0.10838 0.59417 0.0
C2263 C 1.02387 0.11462 0.61777 0.0
C2264 C 1.04452 0.16325 0.65221 0.0
C2265 C 0.07845 0.16136 0.71691 0.0
C2266 C 0.0623 0.15545 0.69562 0.0
C2267 C 1.02124 0.13553 0.62872 0.0
C2268 C 1.0345 0.14272 0.65247 0.0
H2269 H 0.08615 0.15955 0.78593 0.0
H2270 H 0.05865 0.15121 0.75145 0.0
H2271 H 0.06609 0.1853 0.67252 0.0
H2272 H 0.98429 0.155 0.58314 0.0
H2273 H 1.00405 0.16598 0.62418 0.0
C2274 C 0.18074 0.83993 0.51367 0.0
C2275 C 0.17805 0.86192 0.50663 0.0
C2276 C 0.18368 0.82428 0.49311 0.0
C2277 C 0.2063 0.81647 0.4267 0.0
H2278 H 0.15748 0.78116 0.40309 0.0
C2279 C 0.171 0.7859 0.31906 0.0
C2280 C 0.18953 0.7768 0.30681 0.0
C2281 C 0.17065 0.79028 0.34714 0.0
C2282 C 0.17136 0.79068 0.40968 0.0
H2283 H 0.17623 0.88455 0.47245 0.0
H2284 H 0.18187 0.85754 0.43719 0.0
H2285 H 0.15581 0.80013 0.44729 0.0
H2286 H 0.22197 0.76452 0.31439 0.0
H2287 H 0.2215 0.77254 0.36356 0.0
H2288 H 0.22141 0.80824 0.3886 0.0
C2289 C 0.18159 0.85242 0.45848 0.0
C2290 C 0.17047 0.8013 0.43499 0.0
C2291 C 0.17826 0.86785 0.47877 0.0
C2292 C 0.20748 0.77157 0.32333 0.0
C2293 C 0.20723 0.77617 0.3514 0.0
C2294 C 0.20732 0.80568 0.4016 0.0
C2295 C 0.18437 0.83059 0.46544 0.0
C2296 C 0.18762 0.81487 0.44314 0.0
C2297 C 0.18891 0.78583 0.36351 0.0
C2298 C 0.18951 0.79338 0.39235 0.0
H2299 H 0.18036 0.8348 0.5349 0.0
H2300 H 0.18564 0.8074 0.49876 0.0
H2301 H 0.21957 0.82712 0.43255 0.0
H2302 H 0.15682 0.78979 0.30685 0.0
H2303 H 0.1564 0.79797 0.35584 0.0
C2304 C 0.0544 0.66316 0.46322 0.0
C2305 C 1.03409 0.65349 0.46859 0.0
C2306 C 0.0614 0.6667 0.43633 0.0
C2307 C 0.05034 0.65022 0.36405 0.0
H2308 H 0.08998 0.69783 0.34955 0.0
C2309 C 0.10289 0.65464 0.26572 0.0
C2310 C 0.11121 0.67481 0.25756 0.0
C2311 C 0.08984 0.65306 0.28921 0.0
C2312 C 0.07854 0.6847 0.35281 0.0
H2313 H 1.00512 0.64015 0.44933 0.0
H2314 H 1.01668 0.64765 0.40266 0.0
H2315 H 0.07392 0.69417 0.39443 0.0
H2316 H 0.11116 0.7093 0.26541 0.0
H2317 H 0.08687 0.70699 0.30476 0.0
H2318 H 0.05413 0.64143 0.32191 0.0
C2319 C 1.02757 0.65187 0.41926 0.0
C2320 C 0.06966 0.6823 0.37899 0.0
C2321 C 1.02075 0.64791 0.4462 0.0
C2322 C 0.10494 0.69356 0.27161 0.0
C2323 C 0.09131 0.69212 0.29442 0.0
C2324 C 0.05883 0.65292 0.3376 0.0
C2325 C 1.04809 0.66116 0.41392 0.0
C2326 C 0.05587 0.66473 0.38523 0.0
C2327 C 0.08442 0.67176 0.30442 0.0
C2328 C 0.07343 0.66996 0.33171 0.0
H2329 H 0.06501 0.66811 0.47979 0.0
H2330 H 0.07748 0.6735 0.43324 0.0
H2331 H 1.03993 0.63636 0.36798 0.0
H2332 H 0.10774 0.63998 0.25513 0.0
H2333 H 0.08513 0.63705 0.29618 0.0
C2334 C 0.17284 0.29147 0.7024 0.0
C2335 C 0.1906 0.27975 0.71269 0.0
C2336 C 0.17161 0.2966 0.67456 0.0
C2337 C 0.20562 0.30632 0.6144 0.0
H2338 H 0.15023 0.30511 0.57645 0.0
C2339 C 0.19436 0.34553 0.50728 0.0
C2340 C 0.17676 0.35998 0.50675 0.0
C2341 C 0.19644 0.33066 0.52892 0.0
C2342 C 0.16584 0.30547 0.58672 0.0
H2343 H 0.22089 0.26399 0.70188 0.0
H2344 H 0.21881 0.27315 0.65303 0.0
H2345 H 0.1533 0.28863 0.62182 0.0
H2346 H 0.1468 0.36926 0.52693 0.0
H2347 H 0.15039 0.34366 0.56448 0.0
H2348 H 0.2179 0.32403 0.57981 0.0
C2349 C 0.20586 0.27833 0.66659 0.0
C2350 C 0.16758 0.29607 0.61269 0.0
C2351 C 0.20699 0.27301 0.69447 0.0
C2352 C 0.16073 0.35856 0.52716 0.0
C2353 C 0.16265 0.34366 0.54849 0.0
C2354 C 0.20386 0.3158 0.5884 0.0
C2355 C 0.18817 0.29023 0.65638 0.0
C2356 C 0.18729 0.29704 0.62719 0.0
C2357 C 0.18073 0.32984 0.54997 0.0
C2358 C 0.18375 0.31612 0.57472 0.0
H2359 H 0.15983 0.29663 0.7159 0.0
H2360 H 0.1579 0.30602 0.66738 0.0
H2361 H 0.221 0.3074 0.62514 0.0
H2362 H 0.20694 0.34638 0.49173 0.0
H2363 H 0.21049 0.32012 0.52948 0.0
C2364 C 0.50565 0.44227 0.75814 0.0
C2365 C 0.49112 0.42467 0.75769 0.0
C2366 C 0.52032 0.44462 0.77993 0.0
C2367 C 0.54454 0.41505 0.83898 0.0
H2368 H 0.54168 0.47058 0.87606 0.0
C2369 C 0.57489 0.4579 0.94653 0.0
C2370 C 0.56784 0.44176 0.96496 0.0
C2371 C 0.57003 0.45634 0.91858 0.0
C2372 C 0.54302 0.4551 0.86571 0.0
H2373 H 0.48154 0.39491 0.77812 0.0
H2374 H 0.50679 0.39897 0.81598 0.0
H2375 H 0.526 0.4667 0.83034 0.0
H2376 H 0.55079 0.41105 0.96852 0.0
H2377 H 0.54215 0.40839 0.91985 0.0
H2378 H 0.56064 0.4032 0.87487 0.0
C2379 C 0.50701 0.41103 0.7998 0.0
C2380 C 0.5341 0.4529 0.83949 0.0
C2381 C 0.49232 0.40884 0.7783 0.0
C2382 C 0.55618 0.42387 0.95485 0.0
C2383 C 0.55149 0.42221 0.92693 0.0
C2384 C 0.55337 0.41724 0.86519 0.0
C2385 C 0.52084 0.42918 0.80124 0.0
C2386 C 0.5341 0.43265 0.82627 0.0
C2387 C 0.55827 0.43847 0.90852 0.0
C2388 C 0.55205 0.43709 0.87919 0.0
H2389 H 0.50497 0.4547 0.74243 0.0
H2390 H 0.53088 0.45871 0.78046 0.0
H2391 H 0.54513 0.39934 0.82908 0.0
H2392 H 0.58389 0.47189 0.9538 0.0
H2393 H 0.5755 0.46906 0.90483 0.0
C2394 C 0.44684 0.74075 0.02509 0.0
C2395 C 0.42929 0.73907 1.00691 0.0
C2396 C 0.44509 0.75319 0.04876 0.0
C2397 C 0.41403 0.7945 0.08616 0.0
H2398 H 0.43057 0.75986 0.14924 0.0
C2399 C 0.39635 0.81962 0.19918 0.0
C2400 C 0.41216 0.81425 0.21883 0.0
C2401 C 0.39844 0.81252 0.17204 0.0
C2402 C 0.42618 0.76994 0.1319 0.0
H2403 H 0.39679 0.75026 0.99771 0.0
H2404 H 0.3936 0.77233 0.03959 0.0
H2405 H 0.43459 0.74503 0.10347 0.0
H2406 H 0.44314 0.79839 0.22521 0.0
H2407 H 0.44704 0.78635 0.17794 0.0
H2408 H 0.40576 0.81953 0.11486 0.0
C2409 C 0.40873 0.764 0.03541 0.0
C2410 C 0.42844 0.76139 0.10564 0.0
C2411 C 0.41055 0.75149 0.01148 0.0
C2412 C 0.43045 0.80233 0.21064 0.0
C2413 C 0.43265 0.79542 0.18354 0.0
C2414 C 0.41191 0.80319 0.11261 0.0
C2415 C 0.42568 0.76416 0.0548 0.0
C2416 C 0.42263 0.77363 0.08247 0.0
C2417 C 0.41648 0.80004 0.16401 0.0
C2418 C 0.41818 0.79104 0.13577 0.0
H2419 H 0.4616 0.73161 0.02159 0.0
H2420 H 0.45859 0.75344 0.06302 0.0
H2421 H 0.4094 0.80424 0.06861 0.0
H2422 H 0.38206 0.82878 0.20499 0.0
H2423 H 0.38562 0.81624 0.15759 0.0
C2424 C 0.06433 0.4205 0.56509 0.0
C2425 C 0.07343 0.43904 0.55279 0.0
C2426 C 0.05909 0.42047 0.59297 0.0
C2427 C 0.05738 0.42237 0.6556 0.0
H2428 H 1.01839 0.46912 0.67558 0.0
C2429 C 1.00773 0.43016 0.75887 0.0
C2430 C 0.98549 0.42811 0.75255 0.0
C2431 C 1.02309 0.43336 0.7379 0.0
C2432 C 1.02966 0.45625 0.6705 0.0
H2433 H 0.08481 0.47184 0.56001 0.0
H2434 H 0.07519 0.47195 0.60881 0.0
H2435 H 1.03804 0.47076 0.63201 0.0
H2436 H 0.96212 0.4275 0.7191 0.0
H2437 H 0.98862 0.43388 0.68317 0.0
H2438 H 1.04803 0.40744 0.69371 0.0
C2439 C 0.07226 0.45743 0.59687 0.0
C2440 C 1.04091 0.45717 0.64564 0.0
C2441 C 0.07777 0.45735 0.56903 0.0
C2442 C 0.979 0.42928 0.72493 0.0
C2443 C 0.99416 0.43297 0.70425 0.0
C2444 C 1.04634 0.42161 0.68071 0.0
C2445 C 0.06264 0.43906 0.60902 0.0
C2446 C 0.05425 0.43987 0.6375 0.0
C2447 C 1.01628 0.43503 0.71051 0.0
C2448 C 1.03183 0.43819 0.68782 0.0
H2449 H 0.0611 0.40607 0.55308 0.0
H2450 H 0.05145 0.40618 0.60173 0.0
H2451 H 0.06767 0.40889 0.64983 0.0
H2452 H 1.01332 0.42889 0.77981 0.0
H2453 H 1.04018 0.43468 0.74304 0.0
C2454 C 0.89723 0.82851 0.31888 0.0
C2455 C 0.90239 0.81526 0.29627 0.0
C2456 C 0.90154 0.82164 0.34569 0.0
C2457 C 0.93223 0.77936 0.38495 0.0
H2458 H 0.89279 0.79545 0.4435 0.0
C2459 C 0.94511 0.74428 0.4922 0.0
C2460 C 0.92651 0.73863 0.50724 0.0
C2461 C 0.94345 0.75766 0.4692 0.0
C2462 C 0.90388 0.79057 0.42741 0.0
H2463 H 0.91663 0.78441 0.28462 0.0
H2464 H 0.92252 0.77185 0.33093 0.0
H2465 H 0.88699 0.80958 0.39762 0.0
H2466 H 0.89177 0.74283 0.51108 0.0
H2467 H 0.88841 0.76499 0.46982 0.0
H2468 H 0.94802 0.75893 0.41383 0.0
C2469 C 0.91582 0.78791 0.32811 0.0
C2470 C 0.90076 0.79903 0.40103 0.0
C2471 C 0.91197 0.79496 0.30134 0.0
C2472 C 0.90633 0.74725 0.49979 0.0
C2473 C 0.9045 0.76003 0.47614 0.0
C2474 C 0.93501 0.7705 0.41105 0.0
C2475 C 0.91075 0.80115 0.35073 0.0
C2476 C 0.91475 0.79332 0.37931 0.0
C2477 C 0.92299 0.76491 0.46001 0.0
C2478 C 0.9208 0.7758 0.43271 0.0
H2479 H 0.88957 0.84413 0.31604 0.0
H2480 H 0.89768 0.83249 0.36243 0.0
H2481 H 0.94374 0.77496 0.3691 0.0
H2482 H 0.96087 0.73783 0.49782 0.0
H2483 H 0.95822 0.76167 0.45815 0.0
C2484 C 0.50736 0.61119 0.09777 0.0
C2485 C 0.49605 0.6267 0.08222 0.0
C2486 C 0.51954 0.61745 0.12064 0.0
C2487 C 0.54786 0.66488 0.14923 0.0
H2488 H 0.55089 0.62968 0.21513 0.0
C2489 C 0.59096 0.66634 0.26326 0.0
C2490 C 0.6123 0.67173 0.2553 0.0
C2491 C 0.575 0.66211 0.24351 0.0
C2492 C 0.55002 0.63982 0.19699 0.0
H2493 H 0.48814 0.66086 0.07915 0.0
H2494 H 0.50929 0.67178 0.11897 0.0
H2495 H 0.52572 0.6196 0.1785 0.0
H2496 H 0.63343 0.6771 0.22016 0.0
H2497 H 0.6058 0.66986 0.18602 0.0
H2498 H 0.57215 0.68506 0.16761 0.0
C2499 C 0.50903 0.65481 0.11324 0.0
C2500 C 0.53579 0.63391 0.1759 0.0
C2501 C 0.49689 0.64855 0.0904 0.0
C2502 C 0.61717 0.67325 0.22716 0.0
C2503 C 0.60127 0.66911 0.20749 0.0
C2504 C 0.56209 0.67074 0.17025 0.0
C2505 C 0.52068 0.63937 0.12847 0.0
C2506 C 0.53475 0.64625 0.15165 0.0
C2507 C 0.58005 0.66335 0.2154 0.0
C2508 C 0.56356 0.65811 0.19419 0.0
H2509 H 0.50729 0.59426 0.09186 0.0
H2510 H 0.52859 0.6052 0.13171 0.0
H2511 H 0.5476 0.67464 0.13073 0.0
H2512 H 0.58653 0.66537 0.2847 0.0
H2513 H 0.5587 0.65795 0.25022 0.0
C2514 C 0.69365 0.35154 0.99959 0.0
C2515 C 0.67462 0.36369 1.00343 0.0
C2516 C 0.69626 0.3391 0.9757 0.0
C2517 C 0.67832 0.34117 0.90475 0.0
H2518 H 0.69898 0.28213 0.89712 0.0
C2519 C 0.67378 0.29823 0.8014 0.0
C2520 C 0.69163 0.28571 0.79312 0.0
C2521 C 0.67223 0.30574 0.82829 0.0
C2522 C 0.69343 0.29872 0.89894 0.0
H2523 H 0.64263 0.37078 0.98727 0.0
H2524 H 0.64706 0.34915 0.94598 0.0
H2525 H 0.69557 0.29822 0.943 0.0
H2526 H 0.72159 0.27069 0.80665 0.0
H2527 H 0.7191 0.2842 0.85375 0.0
H2528 H 0.67637 0.34207 0.8611 0.0
C2529 C 0.66019 0.34955 0.9608 0.0
C2530 C 0.69146 0.30787 0.92516 0.0
C2531 C 0.65764 0.36191 0.9844 0.0
C2532 C 0.70763 0.28031 0.81253 0.0
C2533 C 0.70616 0.28798 0.83949 0.0
C2534 C 0.68039 0.33215 0.87873 0.0
C2535 C 0.67982 0.33875 0.95564 0.0
C2536 C 0.68347 0.32904 0.92825 0.0
C2537 C 0.6886 0.30109 0.84754 0.0
C2538 C 0.68757 0.3107 0.87546 0.0
H2539 H 0.70697 0.35279 0.01404 0.0
H2540 H 0.71154 0.33086 0.97218 0.0
H2541 H 0.67261 0.35772 0.9065 0.0
H2542 H 0.66096 0.30221 0.78704 0.0
H2543 H 0.65818 0.3153 0.83397 0.0
C2544 C 0.34217 0.25993 0.17909 0.0
C2545 C 0.32876 0.24279 0.17025 0.0
C2546 C 0.33544 0.27367 0.20022 0.0
C2547 C 0.29736 0.27677 0.25883 0.0
H2548 H 0.30788 0.33867 0.25306 0.0
C2549 C 0.26013 0.33827 0.33478 0.0
C2550 C 0.27348 0.35547 0.34355 0.0
C2551 C 0.26692 0.32448 0.31371 0.0
C2552 C 0.30503 0.3214 0.25514 0.0
H2553 H 0.29782 0.22658 0.17687 0.0
H2554 H 0.28591 0.25079 0.21342 0.0
H2555 H 0.31961 0.31474 0.21615 0.0
H2556 H 0.30439 0.37174 0.3369 0.0
H2557 H 0.3164 0.34745 0.30049 0.0
H2558 H 0.28278 0.28342 0.29782 0.0
C2559 C 0.30173 0.25347 0.20418 0.0
C2560 C 0.31176 0.30767 0.23397 0.0
C2561 C 0.30845 0.23974 0.18302 0.0
C2562 C 0.2938 0.35853 0.3308 0.0
C2563 C 0.30058 0.34476 0.30971 0.0
C2564 C 0.29064 0.29049 0.28 0.0
C2565 C 0.31514 0.2706 0.21304 0.0
C2566 C 0.308 0.28519 0.23556 0.0
C2567 C 0.28721 0.32758 0.3009 0.0
C2568 C 0.29439 0.31297 0.27841 0.0
H2569 H 0.35781 0.26287 0.16948 0.0
H2570 H 0.34625 0.28658 0.20672 0.0
H2571 H 0.29451 0.25949 0.2609 0.0
H2572 H 0.24449 0.33531 0.34438 0.0
H2573 H 0.25613 0.31154 0.30725 0.0
C2574 C 0.61154 0.55858 0.43343 0.0
C2575 C 0.60819 0.57869 0.4205 0.0
C2576 C 0.59779 0.55163 0.45458 0.0
C2577 C 0.54313 0.56043 0.48413 0.0
H2578 H 0.56771 0.53236 0.54818 0.0
C2579 C 0.49222 0.54165 0.58109 0.0
C2580 C 0.49559 0.52149 0.5939 0.0
C2581 C 0.50594 0.54865 0.55993 0.0
C2582 C 0.56056 0.53996 0.5303 0.0
H2583 H 0.58755 0.60715 0.41944 0.0
H2584 H 0.56379 0.59522 0.45668 0.0
H2585 H 0.59165 0.54454 0.51127 0.0
H2586 H 0.51621 0.49301 0.59474 0.0
H2587 H 0.5399 0.50505 0.5575 0.0
H2588 H 0.51205 0.55585 0.50317 0.0
C2589 C 0.57696 0.58473 0.45031 0.0
C2590 C 0.57428 0.54693 0.50914 0.0
C2591 C 0.59073 0.59168 0.42918 0.0
C2592 C 0.51302 0.50852 0.5851 0.0
C2593 C 0.52676 0.51553 0.56397 0.0
C2594 C 0.52941 0.55345 0.50529 0.0
C2595 C 0.58034 0.56463 0.46327 0.0
C2596 C 0.56573 0.55724 0.4858 0.0
C2597 C 0.52337 0.53568 0.55112 0.0
C2598 C 0.53796 0.54313 0.52863 0.0
H2599 H 0.62495 0.54827 0.42741 0.0
H2600 H 0.6007 0.53596 0.46393 0.0
H2601 H 0.53599 0.56801 0.46625 0.0
H2602 H 0.47883 0.55194 0.58721 0.0
H2603 H 0.50302 0.56435 0.55066 0.0
C2604 C 0.25865 0.83923 0.68141 0.0
C2605 C 0.27184 0.85651 0.67235 0.0
C2606 C 0.26564 0.82554 0.7025 0.0
C2607 C 0.30428 0.82273 0.76048 0.0
H2608 H 0.29419 0.76076 0.75512 0.0
C2609 C 0.3428 0.76153 0.83583 0.0
C2610 C 0.32956 0.74438 0.84516 0.0
C2611 C 0.33575 0.77518 0.81474 0.0
C2612 C 0.29692 0.77805 0.75707 0.0
H2613 H 0.30262 0.87306 0.67861 0.0
H2614 H 0.31499 0.84895 0.715 0.0
H2615 H 0.28185 0.78462 0.7184 0.0
H2616 H 0.29862 0.72802 0.83941 0.0
H2617 H 0.28617 0.75205 0.80292 0.0
H2618 H 0.31939 0.81616 0.79913 0.0
C2619 C 0.29914 0.8461 0.706 0.0
C2620 C 0.28984 0.79174 0.73603 0.0
C2621 C 0.29216 0.85978 0.6849 0.0
C2622 C 0.30913 0.7412 0.83287 0.0
C2623 C 0.30209 0.75482 0.81175 0.0
C2624 C 0.31138 0.80905 0.78151 0.0
C2625 C 0.28597 0.82881 0.71505 0.0
C2626 C 0.29344 0.81425 0.73747 0.0
C2627 C 0.31531 0.77199 0.80245 0.0
C2628 C 0.30779 0.78654 0.78006 0.0
H2629 H 0.24301 0.8361 0.67197 0.0
H2630 H 0.255 0.81251 0.70916 0.0
H2631 H 0.30701 0.84003 0.76246 0.0
H2632 H 0.35854 0.76456 0.84506 0.0
H2633 H 0.34643 0.78812 0.80788 0.0
C2634 C 0.09405 0.58705 0.08724 0.0
C2635 C 0.1122 0.57531 0.09651 0.0
C2636 C 0.07997 0.57816 0.06773 0.0
C2637 C 0.07502 0.53356 0.0166 0.0
H2638 H 1.01321 0.54019 0.02999 0.0
C2639 C 0.99013 0.48639 0.99018 0.0
C2640 C 0.99354 0.48131 0.96241 0.0
C2641 C 1.00416 0.50053 1.00388 0.0
C2642 C 1.03042 0.53812 0.026 0.0
H2643 H 0.13021 0.54535 0.09168 0.0
H2644 H 0.10533 0.52957 0.05849 0.0
H2645 H 1.03917 0.55952 0.05865 0.0
H2646 H 1.01424 0.48751 0.92712 0.0
H2647 H 1.03835 0.51272 0.95082 0.0
H2648 H 0.06629 0.51126 0.98491 0.0
C2649 C 0.10209 0.54578 0.06594 0.0
C2650 C 1.04533 0.54945 0.04221 0.0
C2651 C 0.11621 0.5547 0.08532 0.0
C2652 C 1.01101 0.4912 0.94846 0.0
C2653 C 1.02501 0.50545 0.96214 0.0
C2654 C 0.06012 0.52213 1.0005 0.0
C2655 C 0.08366 0.55728 0.05712 0.0
C2656 C 0.06783 0.54699 0.03806 0.0
C2657 C 1.0219 0.51009 0.99011 0.0
C2658 C 1.03763 0.52393 1.00536 0.0
H2659 H 0.09038 0.6029 0.09557 0.0
H2660 H 0.06608 0.58758 0.06116 0.0
H2661 H 0.09223 0.53157 0.01252 0.0
H2662 H 0.97666 0.47932 1.00145 0.0
H2663 H 1.00141 0.50349 0.0255 0.0
C2664 C 0.79354 0.85874 0.8318 0.0
C2665 C 0.77315 0.85567 0.84436 0.0
C2666 C 0.80041 0.84502 0.81072 0.0
C2667 C 0.79057 0.79087 0.78061 0.0
H2668 H 0.81969 0.81541 0.71704 0.0
C2669 C 0.80864 0.74061 0.68329 0.0
C2670 C 0.82898 0.74374 0.67063 0.0
C2671 C 0.80186 0.75422 0.70455 0.0
C2672 C 0.8118 0.80827 0.73479 0.0
H2673 H 0.74415 0.83552 0.8449 0.0
H2674 H 0.75597 0.81183 0.80778 0.0
H2675 H 0.80786 0.83918 0.75407 0.0
H2676 H 0.85803 0.76382 0.67016 0.0
H2677 H 0.84638 0.78731 0.70757 0.0
H2678 H 0.7945 0.75996 0.76131 0.0
C2679 C 0.76672 0.82475 0.81438 0.0
C2680 C 0.80502 0.82189 0.75602 0.0
C2681 C 0.75984 0.83849 0.83544 0.0
C2682 C 0.84237 0.76082 0.67968 0.0
C2683 C 0.83558 0.77444 0.70091 0.0
C2684 C 0.79735 0.77725 0.75937 0.0
C2685 C 0.78708 0.82787 0.80173 0.0
C2686 C 0.79433 0.81336 0.77919 0.0
C2687 C 0.81525 0.7713 0.71361 0.0
C2688 C 0.80804 0.78578 0.73621 0.0
H2689 H 0.8041 0.87194 0.83803 0.0
H2690 H 0.81628 0.84773 0.80162 0.0
H2691 H 0.78268 0.78373 0.79835 0.0
H2692 H 0.79802 0.72749 0.67697 0.0
H2693 H 0.78601 0.75149 0.7137 0.0
C2694 C 0.74273 0.33815 0.19719 0.0
C2695 C 0.73294 0.35528 0.21161 0.0
C2696 C 0.75819 0.32497 0.20987 0.0
C2697 C 0.79642 0.32378 0.26841 0.0
H2698 H 0.79771 0.26208 0.25307 0.0
C2699 C 0.85363 0.26474 0.32547 0.0
C2700 C 0.86487 0.24983 0.30895 0.0
C2701 C 0.83681 0.27723 0.31449 0.0
C2702 C 0.79763 0.27931 0.25741 0.0
H2703 H 0.7318 0.37197 0.25074 0.0
H2704 H 0.75829 0.3486 0.2731 0.0
H2705 H 0.76961 0.28459 0.23234 0.0
H2706 H 0.86696 0.23592 0.2682 0.0
H2707 H 0.83768 0.2578 0.249 0.0
H2708 H 0.82443 0.31843 0.29356 0.0
C2709 C 0.75426 0.34556 0.25183 0.0
C2710 C 0.78157 0.29223 0.24549 0.0
C2711 C 0.73886 0.3588 0.2391 0.0
C2712 C 0.85873 0.24744 0.28136 0.0
C2713 C 0.84183 0.2598 0.27044 0.0
C2714 C 0.81241 0.31084 0.28045 0.0
C2715 C 0.76417 0.32852 0.23734 0.0
C2716 C 0.78086 0.31465 0.25068 0.0
C2717 C 0.83077 0.27492 0.28684 0.0
C2718 C 0.81328 0.2885 0.27492 0.0
H2719 H 0.73834 0.33478 0.17612 0.0
H2720 H 0.76567 0.31217 0.19799 0.0
H2721 H 0.79657 0.34104 0.27253 0.0
H2722 H 0.85812 0.26704 0.34675 0.0
H2723 H 0.82845 0.28863 0.32768 0.0
C2724 C 0.08985 0.09181 0.93189 0.0
C2725 C 0.10732 0.07889 0.92304 0.0
C2726 C 0.07622 0.08479 0.95312 0.0
C2727 C 0.07384 1.04673 0.01181 0.0
H2728 H 1.01157 0.05561 1.00627 0.0
C2729 C 1.01281 1.00769 0.08764 0.0
C2730 C 0.99543 1.02061 0.09672 0.0
C2731 C 1.02648 1.01487 0.06652 0.0
C2732 C 1.02895 0.05322 1.00828 0.0
H2733 H 0.12425 0.04855 0.92982 0.0
H2734 H 0.10023 1.03611 0.96649 0.0
H2735 H 1.03537 0.06803 0.96934 0.0
H2736 H 0.97867 0.05113 0.09051 0.0
H2737 H 1.00272 0.06379 0.05395 0.0
H2738 H 0.0674 1.03187 0.05072 0.0
C2739 C 0.0972 0.05178 0.9572 0.0
C2740 C 1.04259 0.06035 0.98711 0.0
C2741 C 0.11082 0.0588 0.93595 0.0
C2742 C 0.99203 1.04087 0.08417 0.0
C2743 C 1.00567 1.04802 0.06301 0.0
C2744 C 0.06019 1.03958 0.03296 0.0
C2745 C 0.07973 0.06469 0.96604 0.0
C2746 C 0.06521 0.05718 0.98861 0.0
C2747 C 1.02306 1.03511 0.05394 0.0
C2748 C 1.03758 1.04274 0.03145 0.0
H2749 H 0.08655 0.10727 0.92218 0.0
H2750 H 0.06304 0.09522 0.95961 0.0
H2751 H 0.09121 1.04433 0.01383 0.0
H2752 H 1.01601 0.99211 0.09707 0.0
H2753 H 1.0396 1.00443 0.05985 0.0
C2754 C 0.58669 0.1051 0.57118 0.0
C2755 C 0.60337 0.11483 0.55565 0.0
C2756 C 0.57355 0.08895 0.55974 0.0
C2757 C 0.57219 0.04857 0.50409 0.0
H2758 H 0.50993 0.04899 0.51715 0.0
C2759 C 0.51308 0.99258 0.44546 0.0
C2760 C 0.49576 0.98325 0.46027 0.0
C2761 C 0.52633 1.00837 0.45746 0.0
C2762 C 0.52732 0.04848 0.51359 0.0
H2763 H 0.61941 0.1152 0.51599 0.0
H2764 H 0.59625 0.08722 0.49588 0.0
H2765 H 0.53275 0.07718 0.53731 0.0
H2766 H 0.47881 0.98318 0.49933 0.0
H2767 H 0.50224 1.01041 0.5205 0.0
H2768 H 0.56679 1.01987 0.48041 0.0
C2769 C 0.59347 0.09194 0.51699 0.0
C2770 C 0.54039 0.06465 0.52512 0.0
C2771 C 0.60658 0.10812 0.5284 0.0
C2772 C 0.49212 0.98993 0.48745 0.0
C2773 C 0.50539 1.00571 0.49946 0.0
C2774 C 0.55913 1.03238 0.4926 0.0
C2775 C 0.57683 0.08216 0.53254 0.0
C2776 C 0.56296 0.06491 0.52044 0.0
C2777 C 0.52261 1.01516 0.48458 0.0
C2778 C 0.53654 1.03218 0.49716 0.0
H2779 H 0.58366 0.11008 0.59213 0.0
H2780 H 0.56098 0.0816 0.57232 0.0
H2781 H 0.58957 1.04813 0.50046 0.0
H2782 H 0.51651 0.9876 0.42461 0.0
H2783 H 0.53931 1.01547 0.44533 0.0
loop_
_geom_bond_atom_site_label_1
_geom_bond_atom_site_label_2
_geom_bond_distance
_geom_bond_site_symmetry_2
_ccdc_geom_bond_type
Tb0 N31 2.660 1_554 S
Tb0 N38 2.600 . S
Tb0 O44 2.546 . S
Tb0 O45 2.610 . S
Tb0 O47 2.320 . S
Tb0 O48 2.552 . S
Tb0 O49 2.413 1_554 S
Tb0 O51 2.362 . S
Tb0 O52 2.421 . S
Tb0 C64 2.833 1_554 S
C1 C4 1.432 . S
C1 C5 1.414 . S
C1 N8 1.359 . S
C2 C4 1.417 . S
C2 C6 1.432 . S
C2 C14 1.410 . S
C3 C5 1.444 . S
C3 C6 1.317 . S
C3 H26 0.929 . S
C4 C1 1.432 . S
C4 C2 1.417 . S
C4 N12 1.360 . S
C5 C1 1.414 . S
C5 C3 1.444 . S
C5 C10 1.385 . S
C6 C2 1.432 . S
C6 C3 1.317 . S
C6 H18 0.930 . S
C7 C9 1.392 . S
C7 C10 1.370 . S
C7 H19 0.931 . S
N8 C1 1.359 . S
N8 C9 1.327 . S
N8 Tb11 2.600 . S
C9 C7 1.392 . S
C9 N8 1.327 . S
C9 H16 0.930 . S
C10 C5 1.385 . S
C10 C7 1.370 . S
C10 H29 0.930 . S
Tb11 N8 2.600 . S
Tb11 N12 2.660 . S
Tb11 O45 2.362 . S
Tb11 O46 2.421 . S
Tb11 O50 2.546 . S
Tb11 O51 2.610 . S
Tb11 O53 2.320 . S
Tb11 O54 2.552 . S
Tb11 O55 2.413 . S
Tb11 C75 2.833 . S
N12 C4 1.360 . S
N12 Tb11 2.660 . S
N12 C13 1.305 . S
C13 N12 1.305 . S
C13 C15 1.407 . S
C13 H20 0.930 . S
C14 C2 1.410 . S
C14 C15 1.345 . S
C14 H22 0.930 . S
C15 C13 1.407 . S
C15 C14 1.345 . S
C15 H17 0.930 . S
H16 C9 0.930 . S
H17 C15 0.930 . S
H18 C6 0.930 . S
H19 C7 0.931 . S
H20 C13 0.930 . S
H21 C35 0.930 . S
H22 C14 0.930 . S
H23 C41 0.930 . S
H24 C32 0.930 . S
H25 C39 0.931 . S
H26 C3 0.929 . S
H27 C33 0.930 . S
H28 C66 0.930 . S
H29 C10 0.930 . S
H30 C65 0.929 . S
N31 Tb0 2.660 1_556 S
N31 C32 1.305 . S
N31 C36 1.360 . S
C32 H24 0.930 . S
C32 N31 1.305 . S
C32 C35 1.407 . S
C33 H27 0.930 . S
C33 C34 1.410 . S
C33 C35 1.345 . S
C34 C33 1.410 . S
C34 C36 1.417 . S
C34 C66 1.432 . S
C35 H21 0.930 . S
C35 C32 1.407 . S
C35 C33 1.345 . S
C36 N31 1.360 . S
C36 C34 1.417 . S
C36 C40 1.432 . S
H37 C42 0.928 1_556 S
N38 Tb0 2.600 . S
N38 C40 1.359 1_554 S
N38 C41 1.327 . S
C39 H25 0.931 . S
C39 C41 1.392 . S
C39 C42 1.376 . S
C40 C36 1.432 . S
C40 N38 1.359 1_556 S
C40 C43 1.414 . S
C41 H23 0.930 . S
C41 N38 1.327 . S
C41 C39 1.392 . S
C42 H37 0.928 1_554 S
C42 C39 1.376 . S
C42 C43 1.380 1_554 S
C43 C40 1.414 . S
C43 C42 1.380 1_556 S
C43 C65 1.444 . S
O44 Tb0 2.546 . S
O44 C64 1.251 1_554 S
O45 Tb0 2.610 . S
O45 Tb11 2.362 . S
O45 C56 1.283 . S
O46 Tb11 2.421 . S
O46 C63 1.262 . S
O47 Tb0 2.320 . S
O47 C63 1.260 . S
O48 Tb0 2.552 . S
O48 C56 1.243 . S
O49 Tb0 2.413 1_556 S
O49 C64 1.256 . S
O50 Tb11 2.546 . S
O50 C75 1.251 . S
O51 Tb0 2.362 . S
O51 Tb11 2.610 . S
O51 C67 1.283 . S
O52 Tb0 2.421 . S
O52 C74 1.262 . S
O53 Tb11 2.320 . S
O53 C74 1.260 . S
O54 Tb11 2.552 . S
O54 C67 1.243 . S
O55 Tb11 2.413 . S
O55 C75 1.256 . S
C56 O45 1.283 . S
C56 O48 1.243 . S
C57 C59 1.382 . S
C57 C61 1.393 . S
C57 C64 1.500 . S
C58 C59 1.400 . S
C58 C60 1.384 . S
C59 C57 1.382 . S
C59 C58 1.400 . S
C59 H76 0.930 . S
C60 C58 1.384 . S
C60 C62 1.392 . S
C60 H77 0.931 . S
C61 C57 1.393 . S
C61 C62 1.401 . S
C61 H78 0.930 . S
C62 C60 1.392 . S
C62 C61 1.401 . S
C62 H79 0.930 . S
C63 O46 1.262 . S
C63 O47 1.260 . S
C64 Tb0 2.833 1_556 S
C64 O44 1.251 1_556 S
C64 O49 1.256 . S
C64 C57 1.500 . S
C65 H30 0.929 . S
C65 C43 1.444 . S
C65 C66 1.317 . S
C66 H28 0.930 . S
C66 C34 1.432 . S
C66 C65 1.317 . S
C67 O51 1.283 . S
C67 O54 1.243 . S
C68 C69 1.382 . S
C68 C72 1.393 . S
C68 C75 1.500 . S
C69 C68 1.382 . S
C69 C70 1.400 . S
C69 H80 0.930 . S
C70 C69 1.400 . S
C70 C71 1.384 . S
C71 C70 1.384 . S
C71 C73 1.392 . S
C71 H81 0.931 . S
C72 C68 1.393 . S
C72 C73 1.401 . S
C72 H82 0.930 . S
C73 C71 1.392 . S
C73 C72 1.401 . S
C73 H83 0.930 . S
C74 O52 1.262 . S
C74 O53 1.260 . S
C75 Tb11 2.833 . S
C75 O50 1.251 . S
C75 O55 1.256 . S
C75 C68 1.500 . S
H76 C59 0.930 . S
H77 C60 0.931 . S
H78 C61 0.930 . S
H79 C62 0.930 . S
H80 C69 0.930 . S
H81 C71 0.931 . S
H82 C72 0.930 . S
H83 C73 0.930 . S
Tb84 N115 2.660 . S
Tb84 N122 2.600 . S
Tb84 O128 2.546 . S
Tb84 O129 2.610 . S
Tb84 O131 2.320 . S
Tb84 O132 2.552 . S
Tb84 O133 2.413 . S
Tb84 O135 2.362 . S
Tb84 O136 2.421 . S
Tb84 C148 2.833 . S
C85 C88 1.432 . S
C85 C89 1.414 . S
C85 N92 1.359 . S
C86 C88 1.417 . S
C86 C90 1.432 . S
C86 C98 1.410 . S
C87 C89 1.444 . S
C87 C90 1.317 . S
C87 H110 0.929 . S
C88 C85 1.432 . S
C88 C86 1.417 . S
C88 N96 1.360 . S
C89 C85 1.414 . S
C89 C87 1.444 . S
C89 C94 1.385 . S
C90 C86 1.432 . S
C90 C87 1.317 . S
C90 H102 0.930 . S
C91 C93 1.392 . S
C91 C94 1.370 . S
C91 H103 0.931 . S
N92 C85 1.359 . S
N92 C93 1.327 . S
N92 Tb95 2.600 . S
C93 C91 1.392 . S
C93 N92 1.327 . S
C93 H100 0.930 . S
C94 C89 1.385 . S
C94 C91 1.370 . S
C94 H113 0.930 . S
Tb95 N92 2.600 . S
Tb95 N96 2.660 . S
Tb95 O129 2.362 . S
Tb95 O130 2.421 . S
Tb95 O134 2.546 . S
Tb95 O135 2.610 . S
Tb95 O137 2.320 . S
Tb95 O138 2.552 . S
Tb95 O139 2.413 . S
Tb95 C159 2.833 . S
N96 C88 1.360 . S
N96 Tb95 2.660 . S
N96 C97 1.305 . S
C97 N96 1.305 . S
C97 C99 1.407 . S
C97 H104 0.930 . S
C98 C86 1.410 . S
C98 C99 1.345 . S
C98 H106 0.930 . S
C99 C97 1.407 . S
C99 C98 1.345 . S
C99 H101 0.930 . S
H100 C93 0.930 . S
H101 C99 0.930 . S
H102 C90 0.930 . S
H103 C91 0.931 . S
H104 C97 0.930 . S
H105 C119 0.930 . S
H106 C98 0.930 . S
H107 C125 0.930 . S
H108 C116 0.930 . S
H109 C123 0.931 . S
H110 C87 0.929 . S
H111 C117 0.930 . S
H112 C150 0.930 . S
H113 C94 0.930 . S
H114 C149 0.929 . S
N115 Tb84 2.660 . S
N115 C116 1.305 . S
N115 C120 1.360 . S
C116 H108 0.930 . S
C116 N115 1.305 . S
C116 C119 1.407 . S
C117 H111 0.930 . S
C117 C118 1.410 . S
C117 C119 1.345 . S
C118 C117 1.410 . S
C118 C120 1.417 . S
C118 C150 1.432 . S
C119 H105 0.930 . S
C119 C116 1.407 . S
C119 C117 1.345 . S
C120 N115 1.360 . S
C120 C118 1.417 . S
C120 C124 1.432 . S
H121 C126 0.930 . S
N122 Tb84 2.600 . S
N122 C124 1.359 . S
N122 C125 1.327 . S
C123 H109 0.931 . S
C123 C125 1.392 . S
C123 C126 1.370 . S
C124 C120 1.432 . S
C124 N122 1.359 . S
C124 C127 1.414 . S
C125 H107 0.930 . S
C125 N122 1.327 . S
C125 C123 1.392 . S
C126 H121 0.930 . S
C126 C123 1.370 . S
C126 C127 1.385 . S
C127 C124 1.414 . S
C127 C126 1.385 . S
C127 C149 1.444 . S
O128 Tb84 2.546 . S
O128 C148 1.251 . S
O129 Tb84 2.610 . S
O129 Tb95 2.362 . S
O129 C140 1.283 . S
O130 Tb95 2.421 . S
O130 C147 1.262 . S
O131 Tb84 2.320 . S
O131 C147 1.260 . S
O132 Tb84 2.552 . S
O132 C140 1.243 . S
O133 Tb84 2.413 . S
O133 C148 1.256 . S
O134 Tb95 2.546 . S
O134 C159 1.251 . S
O135 Tb84 2.362 . S
O135 Tb95 2.610 . S
O135 C151 1.283 . S
O136 Tb84 2.421 . S
O136 C158 1.262 . S
O137 Tb95 2.320 . S
O137 C158 1.260 . S
O138 Tb95 2.552 . S
O138 C151 1.243 . S
O139 Tb95 2.413 . S
O139 C159 1.256 . S
C140 O129 1.283 . S
C140 O132 1.243 . S
C141 C143 1.382 . S
C141 C145 1.393 . S
C141 C148 1.500 . S
C142 C143 1.400 . S
C142 C144 1.384 . S
C143 C141 1.382 . S
C143 C142 1.400 . S
C143 H160 0.930 . S
C144 C142 1.384 . S
C144 C146 1.392 . S
C144 H161 0.931 . S
C145 C141 1.393 . S
C145 C146 1.401 . S
C145 H162 0.930 . S
C146 C144 1.392 . S
C146 C145 1.401 . S
C146 H163 0.930 . S
C147 O130 1.262 . S
C147 O131 1.260 . S
C148 Tb84 2.833 . S
C148 O128 1.251 . S
C148 O133 1.256 . S
C148 C141 1.500 . S
C149 H114 0.929 . S
C149 C127 1.444 . S
C149 C150 1.317 . S
C150 H112 0.930 . S
C150 C118 1.432 . S
C150 C149 1.317 . S
C151 O135 1.283 . S
C151 O138 1.243 . S
C152 C153 1.382 . S
C152 C156 1.393 . S
C152 C159 1.500 . S
C153 C152 1.382 . S
C153 C154 1.400 . S
C153 H164 0.930 . S
C154 C153 1.400 . S
C154 C155 1.384 . S
C155 C154 1.384 . S
C155 C157 1.392 . S
C155 H165 0.931 . S
C156 C152 1.393 . S
C156 C157 1.401 . S
C156 H166 0.930 . S
C157 C155 1.392 . S
C157 C156 1.401 . S
C157 H167 0.930 . S
C158 O136 1.262 . S
C158 O137 1.260 . S
C159 Tb95 2.833 . S
C159 O134 1.251 . S
C159 O139 1.256 . S
C159 C152 1.500 . S
H160 C143 0.930 . S
H161 C144 0.931 . S
H162 C145 0.930 . S
H163 C146 0.930 . S
H164 C153 0.930 . S
H165 C155 0.931 . S
H166 C156 0.930 . S
H167 C157 0.930 . S
Tb168 N199 2.660 . S
Tb168 N206 2.600 . S
Tb168 O212 2.546 . S
Tb168 O213 2.610 . S
Tb168 O215 2.320 . S
Tb168 O216 2.552 . S
Tb168 O217 2.413 . S
Tb168 O219 2.362 . S
Tb168 O220 2.421 . S
Tb168 C232 2.833 . S
C169 C172 1.432 . S
C169 C173 1.414 . S
C169 N176 1.359 . S
C170 C172 1.417 . S
C170 C174 1.432 . S
C170 C182 1.410 . S
C171 C173 1.444 . S
C171 C174 1.317 . S
C171 H194 0.929 . S
C172 C169 1.432 . S
C172 C170 1.417 . S
C172 N180 1.360 . S
C173 C169 1.414 . S
C173 C171 1.444 . S
C173 C178 1.385 . S
C174 C170 1.432 . S
C174 C171 1.317 . S
C174 H186 0.930 . S
C175 C177 1.392 . S
C175 C178 1.370 . S
C175 H187 0.931 . S
N176 C169 1.359 . S
N176 C177 1.327 . S
N176 Tb179 2.600 . S
C177 C175 1.392 . S
C177 N176 1.327 . S
C177 H184 0.930 . S
C178 C173 1.385 . S
C178 C175 1.370 . S
C178 H197 0.930 . S
Tb179 N176 2.600 . S
Tb179 N180 2.660 . S
Tb179 O213 2.362 . S
Tb179 O214 2.421 . S
Tb179 O218 2.546 . S
Tb179 O219 2.610 . S
Tb179 O221 2.320 . S
Tb179 O222 2.552 . S
Tb179 O223 2.413 . S
Tb179 C243 2.833 . S
N180 C172 1.360 . S
N180 Tb179 2.660 . S
N180 C181 1.305 . S
C181 N180 1.305 . S
C181 C183 1.407 . S
C181 H188 0.930 . S
C182 C170 1.410 . S
C182 C183 1.345 . S
C182 H190 0.930 . S
C183 C181 1.407 . S
C183 C182 1.345 . S
C183 H185 0.930 . S
H184 C177 0.930 . S
H185 C183 0.930 . S
H186 C174 0.930 . S
H187 C175 0.931 . S
H188 C181 0.930 . S
H189 C203 0.930 . S
H190 C182 0.930 . S
H191 C209 0.930 . S
H192 C200 0.930 . S
H193 C207 0.931 . S
H194 C171 0.929 . S
H195 C201 0.930 . S
H196 C234 0.930 . S
H197 C178 0.930 . S
H198 C233 0.929 . S
N199 Tb168 2.660 . S
N199 C200 1.305 . S
N199 C204 1.360 . S
C200 H192 0.930 . S
C200 N199 1.305 . S
C200 C203 1.407 . S
C201 H195 0.930 . S
C201 C202 1.410 . S
C201 C203 1.345 . S
C202 C201 1.410 . S
C202 C204 1.417 . S
C202 C234 1.432 . S
C203 H189 0.930 . S
C203 C200 1.407 . S
C203 C201 1.345 . S
C204 N199 1.360 . S
C204 C202 1.417 . S
C204 C208 1.432 . S
H205 C210 0.930 . S
N206 Tb168 2.600 . S
N206 C208 1.359 . S
N206 C209 1.327 . S
C207 H193 0.931 . S
C207 C209 1.392 . S
C207 C210 1.370 . S
C208 C204 1.432 . S
C208 N206 1.359 . S
C208 C211 1.414 . S
C209 H191 0.930 . S
C209 N206 1.327 . S
C209 C207 1.392 . S
C210 H205 0.930 . S
C210 C207 1.370 . S
C210 C211 1.385 . S
C211 C208 1.414 . S
C211 C210 1.385 . S
C211 C233 1.444 . S
O212 Tb168 2.546 . S
O212 C232 1.251 . S
O213 Tb168 2.610 . S
O213 Tb179 2.362 . S
O213 C224 1.283 . S
O214 Tb179 2.421 . S
O214 C231 1.262 . S
O215 Tb168 2.320 . S
O215 C231 1.260 . S
O216 Tb168 2.552 . S
O216 C224 1.243 . S
O217 Tb168 2.413 . S
O217 C232 1.256 . S
O218 Tb179 2.546 . S
O218 C243 1.251 . S
O219 Tb168 2.362 . S
O219 Tb179 2.610 . S
O219 C235 1.283 . S
O220 Tb168 2.421 . S
O220 C242 1.262 . S
O221 Tb179 2.320 . S
O221 C242 1.260 . S
O222 Tb179 2.552 . S
O222 C235 1.243 . S
O223 Tb179 2.413 . S
O223 C243 1.256 . S
C224 O213 1.283 . S
C224 O216 1.243 . S
C225 C227 1.382 . S
C225 C229 1.393 . S
C225 C232 1.500 . S
C226 C227 1.400 . S
C226 C228 1.384 . S
C227 C225 1.382 . S
C227 C226 1.400 . S
C227 H244 0.930 . S
C228 C226 1.384 . S
C228 C230 1.392 . S
C228 H245 0.931 . S
C229 C225 1.393 . S
C229 C230 1.401 . S
C229 H246 0.930 . S
C230 C228 1.392 . S
C230 C229 1.401 . S
C230 H247 0.930 . S
C231 O214 1.262 . S
C231 O215 1.260 . S
C232 Tb168 2.833 . S
C232 O212 1.251 . S
C232 O217 1.256 . S
C232 C225 1.500 . S
C233 H198 0.929 . S
C233 C211 1.444 . S
C233 C234 1.317 . S
C234 H196 0.930 . S
C234 C202 1.432 . S
C234 C233 1.317 . S
C235 O219 1.283 . S
C235 O222 1.243 . S
C236 C237 1.382 . S
C236 C240 1.393 . S
C236 C243 1.500 . S
C237 C236 1.382 . S
C237 C238 1.400 . S
C237 H248 0.930 . S
C238 C237 1.400 . S
C238 C239 1.384 . S
C239 C238 1.384 . S
C239 C241 1.392 . S
C239 H249 0.931 . S
C240 C236 1.393 . S
C240 C241 1.401 . S
C240 H250 0.930 . S
C241 C239 1.392 . S
C241 C240 1.401 . S
C241 H251 0.930 . S
C242 O220 1.262 . S
C242 O221 1.260 . S
C243 Tb179 2.833 . S
C243 O218 1.251 . S
C243 O223 1.256 . S
C243 C236 1.500 . S
H244 C227 0.930 . S
H245 C228 0.931 . S
H246 C229 0.930 . S
H247 C230 0.930 . S
H248 C237 0.930 . S
H249 C239 0.931 . S
H250 C240 0.930 . S
H251 C241 0.930 . S
Tb252 N283 2.660 . S
Tb252 N290 2.600 . S
Tb252 O296 2.546 . S
Tb252 O297 2.610 . S
Tb252 O299 2.320 . S
Tb252 O300 2.552 . S
Tb252 O301 2.413 . S
Tb252 O303 2.362 . S
Tb252 O304 2.421 . S
Tb252 C316 2.833 . S
C253 C256 1.432 . S
C253 C257 1.414 . S
C253 N260 1.359 . S
C254 C256 1.417 . S
C254 C258 1.432 . S
C254 C266 1.410 . S
C255 C257 1.444 1_455 S
C255 C258 1.317 1_455 S
C255 H278 0.929 . S
C256 C253 1.432 . S
C256 C254 1.417 . S
C256 N264 1.360 . S
C257 C253 1.414 . S
C257 C255 1.444 1_655 S
C257 C262 1.385 1_655 S
C258 C254 1.432 . S
C258 C255 1.317 1_655 S
C258 H270 0.930 . S
C259 C261 1.392 1_455 S
C259 C262 1.370 . S
C259 H271 0.931 . S
N260 C253 1.359 . S
N260 C261 1.327 . S
N260 Tb263 2.600 . S
C261 C259 1.392 1_655 S
C261 N260 1.327 . S
C261 H268 0.930 . S
C262 C257 1.385 1_455 S
C262 C259 1.370 . S
C262 H281 0.930 . S
Tb263 N260 2.600 . S
Tb263 N264 2.660 . S
Tb263 O297 2.362 . S
Tb263 O298 2.421 . S
Tb263 O302 2.546 . S
Tb263 O303 2.610 . S
Tb263 O305 2.320 . S
Tb263 O306 2.552 . S
Tb263 O307 2.413 . S
Tb263 C327 2.833 . S
N264 C256 1.360 . S
N264 Tb263 2.660 . S
N264 C265 1.305 . S
C265 N264 1.305 . S
C265 C267 1.407 . S
C265 H272 0.930 . S
C266 C254 1.410 . S
C266 C267 1.345 . S
C266 H274 0.930 . S
C267 C265 1.407 . S
C267 C266 1.345 . S
C267 H269 0.930 . S
H268 C261 0.930 . S
H269 C267 0.930 . S
H270 C258 0.930 . S
H271 C259 0.931 . S
H272 C265 0.930 . S
H273 C287 0.930 . S
H274 C266 0.930 . S
H275 C293 0.930 . S
H276 C284 0.930 . S
H277 C291 0.931 . S
H278 C255 0.929 . S
H279 C285 0.930 . S
H280 C318 0.930 . S
H281 C262 0.930 . S
H282 C317 0.929 . S
N283 Tb252 2.660 . S
N283 C284 1.305 . S
N283 C288 1.360 . S
C284 H276 0.930 . S
C284 N283 1.305 . S
C284 C287 1.407 . S
C285 H279 0.930 . S
C285 C286 1.410 . S
C285 C287 1.345 . S
C286 C285 1.410 . S
C286 C288 1.417 . S
C286 C318 1.432 . S
C287 H273 0.930 . S
C287 C284 1.407 . S
C287 C285 1.345 . S
C288 N283 1.360 . S
C288 C286 1.417 . S
C288 C292 1.432 . S
H289 C294 0.930 . S
N290 Tb252 2.600 . S
N290 C292 1.359 . S
N290 C293 1.327 . S
C291 H277 0.931 . S
C291 C293 1.392 . S
C291 C294 1.370 . S
C292 C288 1.432 . S
C292 N290 1.359 . S
C292 C295 1.414 . S
C293 H275 0.930 . S
C293 N290 1.327 . S
C293 C291 1.392 . S
C294 H289 0.930 . S
C294 C291 1.370 . S
C294 C295 1.385 . S
C295 C292 1.414 . S
C295 C294 1.385 . S
C295 C317 1.444 . S
O296 Tb252 2.546 . S
O296 C316 1.251 . S
O297 Tb252 2.610 . S
O297 Tb263 2.362 . S
O297 C308 1.283 . S
O298 Tb263 2.421 . S
O298 C315 1.262 . S
O299 Tb252 2.320 . S
O299 C315 1.260 . S
O300 Tb252 2.552 . S
O300 C308 1.243 . S
O301 Tb252 2.413 . S
O301 C316 1.256 . S
O302 Tb263 2.546 . S
O302 C327 1.251 . S
O303 Tb252 2.362 . S
O303 Tb263 2.610 . S
O303 C319 1.283 . S
O304 Tb252 2.421 . S
O304 C326 1.262 . S
O305 Tb263 2.320 . S
O305 C326 1.260 . S
O306 Tb263 2.552 . S
O306 C319 1.243 . S
O307 Tb263 2.413 . S
O307 C327 1.256 . S
C308 O297 1.283 . S
C308 O300 1.243 . S
C309 C311 1.382 . S
C309 C313 1.393 . S
C309 C316 1.500 . S
C310 C311 1.400 . S
C310 C312 1.384 . S
C311 C309 1.382 . S
C311 C310 1.400 . S
C311 H328 0.930 . S
C312 C310 1.384 . S
C312 C314 1.392 . S
C312 H329 0.931 . S
C313 C309 1.393 . S
C313 C314 1.401 . S
C313 H330 0.930 . S
C314 C312 1.392 . S
C314 C313 1.401 . S
C314 H331 0.930 . S
C315 O298 1.262 . S
C315 O299 1.260 . S
C316 Tb252 2.833 . S
C316 O296 1.251 . S
C316 O301 1.256 . S
C316 C309 1.500 . S
C317 H282 0.929 . S
C317 C295 1.444 . S
C317 C318 1.317 . S
C318 H280 0.930 . S
C318 C286 1.432 . S
C318 C317 1.317 . S
C319 O303 1.283 . S
C319 O306 1.243 . S
C320 C321 1.382 . S
C320 C324 1.393 . S
C320 C327 1.500 . S
C321 C320 1.382 . S
C321 C322 1.400 . S
C321 H332 0.930 . S
C322 C321 1.400 . S
C322 C323 1.384 . S
C323 C322 1.384 . S
C323 C325 1.392 . S
C323 H333 0.931 . S
C324 C320 1.393 . S
C324 C325 1.401 . S
C324 H334 0.930 . S
C325 C323 1.392 . S
C325 C324 1.401 . S
C325 H335 0.930 . S
C326 O304 1.262 . S
C326 O305 1.260 . S
C327 Tb263 2.833 . S
C327 O302 1.251 . S
C327 O307 1.256 . S
C327 C320 1.500 . S
H328 C311 0.930 . S
H329 C312 0.931 . S
H330 C313 0.930 . S
H331 C314 0.930 . S
H332 C321 0.930 . S
H333 C323 0.931 . S
H334 C324 0.930 . S
H335 C325 0.930 . S
Tb336 N367 2.660 . S
Tb336 N374 2.600 . S
Tb336 O380 2.546 . S
Tb336 O381 2.610 . S
Tb336 O383 2.320 . S
Tb336 O384 2.552 . S
Tb336 O385 2.413 . S
Tb336 O387 2.362 . S
Tb336 O388 2.421 . S
Tb336 C400 2.833 . S
C337 C340 1.432 . S
C337 C341 1.414 . S
C337 N344 1.359 1_554 S
C338 C340 1.417 . S
C338 C342 1.432 . S
C338 C350 1.410 . S
C339 C341 1.444 . S
C339 C342 1.317 . S
C339 H362 0.929 . S
C340 C337 1.432 . S
C340 C338 1.417 . S
C340 N348 1.360 . S
C341 C337 1.414 . S
C341 C339 1.444 . S
C341 C346 1.380 1_554 S
C342 C338 1.432 . S
C342 C339 1.317 . S
C342 H354 0.930 . S
C343 C345 1.392 . S
C343 C346 1.376 . S
C343 H355 0.931 . S
N344 C337 1.359 1_556 S
N344 C345 1.327 . S
N344 Tb347 2.600 . S
C345 C343 1.392 . S
C345 N344 1.327 . S
C345 H352 0.930 . S
C346 C341 1.380 1_556 S
C346 C343 1.376 . S
C346 H365 0.928 1_556 S
Tb347 N344 2.600 . S
Tb347 N348 2.660 1_556 S
Tb347 O381 2.362 . S
Tb347 O382 2.421 . S
Tb347 O386 2.546 . S
Tb347 O387 2.610 . S
Tb347 O389 2.320 . S
Tb347 O390 2.552 . S
Tb347 O391 2.413 1_556 S
Tb347 C411 2.833 1_556 S
N348 C340 1.360 . S
N348 Tb347 2.660 1_554 S
N348 C349 1.305 . S
C349 N348 1.305 . S
C349 C351 1.407 . S
C349 H356 0.930 . S
C350 C338 1.410 . S
C350 C351 1.345 . S
C350 H358 0.930 . S
C351 C349 1.407 . S
C351 C350 1.345 . S
C351 H353 0.930 . S
H352 C345 0.930 . S
H353 C351 0.930 . S
H354 C342 0.930 . S
H355 C343 0.931 . S
H356 C349 0.930 . S
H357 C371 0.930 . S
H358 C350 0.930 . S
H359 C377 0.930 . S
H360 C368 0.930 . S
H361 C375 0.931 . S
H362 C339 0.929 . S
H363 C369 0.930 . S
H364 C402 0.930 . S
H365 C346 0.928 1_554 S
H366 C401 0.929 . S
N367 Tb336 2.660 . S
N367 C368 1.305 . S
N367 C372 1.360 . S
C368 H360 0.930 . S
C368 N367 1.305 . S
C368 C371 1.407 . S
C369 H363 0.930 . S
C369 C370 1.410 . S
C369 C371 1.345 . S
C370 C369 1.410 . S
C370 C372 1.417 . S
C370 C402 1.432 . S
C371 H357 0.930 . S
C371 C368 1.407 . S
C371 C369 1.345 . S
C372 N367 1.360 . S
C372 C370 1.417 . S
C372 C376 1.432 . S
H373 C378 0.930 . S
N374 Tb336 2.600 . S
N374 C376 1.359 . S
N374 C377 1.327 . S
C375 H361 0.931 . S
C375 C377 1.392 . S
C375 C378 1.370 . S
C376 C372 1.432 . S
C376 N374 1.359 . S
C376 C379 1.414 . S
C377 H359 0.930 . S
C377 N374 1.327 . S
C377 C375 1.392 . S
C378 H373 0.930 . S
C378 C375 1.370 . S
C378 C379 1.385 . S
C379 C376 1.414 . S
C379 C378 1.385 . S
C379 C401 1.444 . S
O380 Tb336 2.546 . S
O380 C400 1.251 . S
O381 Tb336 2.610 . S
O381 Tb347 2.362 . S
O381 C392 1.283 . S
O382 Tb347 2.421 . S
O382 C399 1.262 . S
O383 Tb336 2.320 . S
O383 C399 1.260 . S
O384 Tb336 2.552 . S
O384 C392 1.243 . S
O385 Tb336 2.413 . S
O385 C400 1.256 . S
O386 Tb347 2.546 . S
O386 C411 1.251 1_556 S
O387 Tb336 2.362 . S
O387 Tb347 2.610 . S
O387 C403 1.283 . S
O388 Tb336 2.421 . S
O388 C410 1.262 . S
O389 Tb347 2.320 . S
O389 C410 1.260 . S
O390 Tb347 2.552 . S
O390 C403 1.243 . S
O391 Tb347 2.413 1_554 S
O391 C411 1.256 . S
C392 O381 1.283 . S
C392 O384 1.243 . S
C393 C395 1.382 . S
C393 C397 1.393 . S
C393 C400 1.500 . S
C394 C395 1.400 . S
C394 C396 1.384 . S
C395 C393 1.382 . S
C395 C394 1.400 . S
C395 H412 0.930 . S
C396 C394 1.384 . S
C396 C398 1.392 . S
C396 H413 0.931 . S
C397 C393 1.393 . S
C397 C398 1.401 . S
C397 H414 0.930 . S
C398 C396 1.392 . S
C398 C397 1.401 . S
C398 H415 0.930 . S
C399 O382 1.262 . S
C399 O383 1.260 . S
C400 Tb336 2.833 . S
C400 O380 1.251 . S
C400 O385 1.256 . S
C400 C393 1.500 . S
C401 H366 0.929 . S
C401 C379 1.444 . S
C401 C402 1.317 . S
C402 H364 0.930 . S
C402 C370 1.432 . S
C402 C401 1.317 . S
C403 O387 1.283 . S
C403 O390 1.243 . S
C404 C405 1.382 . S
C404 C408 1.393 . S
C404 C411 1.500 . S
C405 C404 1.382 . S
C405 C406 1.400 . S
C405 H416 0.930 . S
C406 C405 1.400 . S
C406 C407 1.384 . S
C407 C406 1.384 . S
C407 C409 1.392 . S
C407 H417 0.931 . S
C408 C404 1.393 . S
C408 C409 1.401 . S
C408 H418 0.930 . S
C409 C407 1.392 . S
C409 C408 1.401 . S
C409 H419 0.930 . S
C410 O388 1.262 . S
C410 O389 1.260 . S
C411 Tb347 2.833 1_554 S
C411 O386 1.251 1_554 S
C411 O391 1.256 . S
C411 C404 1.500 . S
H412 C395 0.930 . S
H413 C396 0.931 . S
H414 C397 0.930 . S
H415 C398 0.930 . S
H416 C405 0.930 . S
H417 C407 0.931 . S
H418 C408 0.930 . S
H419 C409 0.930 . S
Tb420 N451 2.660 . S
Tb420 N458 2.600 . S
Tb420 O464 2.546 . S
Tb420 O465 2.610 . S
Tb420 O467 2.320 . S
Tb420 O468 2.552 . S
Tb420 O469 2.413 . S
Tb420 O471 2.362 . S
Tb420 O472 2.421 . S
Tb420 C484 2.833 . S
C421 C424 1.432 . S
C421 C425 1.414 . S
C421 N428 1.359 . S
C422 C424 1.417 . S
C422 C426 1.432 . S
C422 C434 1.410 . S
C423 C425 1.444 . S
C423 C426 1.317 . S
C423 H446 0.929 . S
C424 C421 1.432 . S
C424 C422 1.417 . S
C424 N432 1.360 . S
C425 C421 1.414 . S
C425 C423 1.444 . S
C425 C430 1.385 . S
C426 C422 1.432 . S
C426 C423 1.317 . S
C426 H438 0.930 . S
C427 C429 1.392 . S
C427 C430 1.370 . S
C427 H439 0.931 . S
N428 C421 1.359 . S
N428 C429 1.327 . S
N428 Tb431 2.600 . S
C429 C427 1.392 . S
C429 N428 1.327 . S
C429 H436 0.930 . S
C430 C425 1.385 . S
C430 C427 1.370 . S
C430 H449 0.930 . S
Tb431 N428 2.600 . S
Tb431 N432 2.660 . S
Tb431 O465 2.362 . S
Tb431 O466 2.421 . S
Tb431 O470 2.546 . S
Tb431 O471 2.610 . S
Tb431 O473 2.320 . S
Tb431 O474 2.552 . S
Tb431 O475 2.413 . S
Tb431 C495 2.833 . S
N432 C424 1.360 . S
N432 Tb431 2.660 . S
N432 C433 1.305 . S
C433 N432 1.305 . S
C433 C435 1.407 . S
C433 H440 0.930 . S
C434 C422 1.410 . S
C434 C435 1.345 . S
C434 H442 0.930 . S
C435 C433 1.407 . S
C435 C434 1.345 . S
C435 H437 0.930 . S
H436 C429 0.930 . S
H437 C435 0.930 . S
H438 C426 0.930 . S
H439 C427 0.931 . S
H440 C433 0.930 . S
H441 C455 0.930 . S
H442 C434 0.930 . S
H443 C461 0.930 . S
H444 C452 0.930 . S
H445 C459 0.931 . S
H446 C423 0.929 . S
H447 C453 0.930 . S
H448 C486 0.930 . S
H449 C430 0.930 . S
H450 C485 0.929 . S
N451 Tb420 2.660 . S
N451 C452 1.305 . S
N451 C456 1.360 . S
C452 H444 0.930 . S
C452 N451 1.305 . S
C452 C455 1.407 . S
C453 H447 0.930 . S
C453 C454 1.410 . S
C453 C455 1.345 . S
C454 C453 1.410 . S
C454 C456 1.417 . S
C454 C486 1.432 . S
C455 H441 0.930 . S
C455 C452 1.407 . S
C455 C453 1.345 . S
C456 N451 1.360 . S
C456 C454 1.417 . S
C456 C460 1.432 . S
H457 C462 0.930 . S
N458 Tb420 2.600 . S
N458 C460 1.359 . S
N458 C461 1.327 . S
C459 H445 0.931 . S
C459 C461 1.392 . S
C459 C462 1.370 . S
C460 C456 1.432 . S
C460 N458 1.359 . S
C460 C463 1.414 . S
C461 H443 0.930 . S
C461 N458 1.327 . S
C461 C459 1.392 . S
C462 H457 0.930 . S
C462 C459 1.370 . S
C462 C463 1.385 . S
C463 C460 1.414 . S
C463 C462 1.385 . S
C463 C485 1.444 . S
O464 Tb420 2.546 . S
O464 C484 1.251 . S
O465 Tb420 2.610 . S
O465 Tb431 2.362 . S
O465 C476 1.283 . S
O466 Tb431 2.421 . S
O466 C483 1.262 . S
O467 Tb420 2.320 . S
O467 C483 1.260 . S
O468 Tb420 2.552 . S
O468 C476 1.243 . S
O469 Tb420 2.413 . S
O469 C484 1.256 . S
O470 Tb431 2.546 . S
O470 C495 1.251 . S
O471 Tb420 2.362 . S
O471 Tb431 2.610 . S
O471 C487 1.283 . S
O472 Tb420 2.421 . S
O472 C494 1.262 . S
O473 Tb431 2.320 . S
O473 C494 1.260 . S
O474 Tb431 2.552 . S
O474 C487 1.243 . S
O475 Tb431 2.413 . S
O475 C495 1.256 . S
C476 O465 1.283 . S
C476 O468 1.243 . S
C477 C479 1.382 . S
C477 C481 1.393 . S
C477 C484 1.500 . S
C478 C479 1.400 . S
C478 C480 1.384 . S
C479 C477 1.382 . S
C479 C478 1.400 . S
C479 H496 0.930 . S
C480 C478 1.384 . S
C480 C482 1.392 . S
C480 H497 0.931 . S
C481 C477 1.393 . S
C481 C482 1.401 . S
C481 H498 0.930 . S
C482 C480 1.392 . S
C482 C481 1.401 . S
C482 H499 0.930 . S
C483 O466 1.262 . S
C483 O467 1.260 . S
C484 Tb420 2.833 . S
C484 O464 1.251 . S
C484 O469 1.256 . S
C484 C477 1.500 . S
C485 H450 0.929 . S
C485 C463 1.444 . S
C485 C486 1.317 . S
C486 H448 0.930 . S
C486 C454 1.432 . S
C486 C485 1.317 . S
C487 O471 1.283 . S
C487 O474 1.243 . S
C488 C489 1.382 . S
C488 C492 1.393 . S
C488 C495 1.500 . S
C489 C488 1.382 . S
C489 C490 1.400 . S
C489 H500 0.930 . S
C490 C489 1.400 . S
C490 C491 1.384 . S
C491 C490 1.384 . S
C491 C493 1.392 . S
C491 H501 0.931 . S
C492 C488 1.393 . S
C492 C493 1.401 . S
C492 H502 0.930 . S
C493 C491 1.392 . S
C493 C492 1.401 . S
C493 H503 0.930 . S
C494 O472 1.262 . S
C494 O473 1.260 . S
C495 Tb431 2.833 . S
C495 O470 1.251 . S
C495 O475 1.256 . S
C495 C488 1.500 . S
H496 C479 0.930 . S
H497 C480 0.931 . S
H498 C481 0.930 . S
H499 C482 0.930 . S
H500 C489 0.930 . S
H501 C491 0.931 . S
H502 C492 0.930 . S
H503 C493 0.930 . S
Tb504 N535 2.660 . S
Tb504 N542 2.600 . S
Tb504 O548 2.546 . S
Tb504 O549 2.610 . S
Tb504 O551 2.320 . S
Tb504 O552 2.552 . S
Tb504 O553 2.413 . S
Tb504 O555 2.362 . S
Tb504 O556 2.421 . S
Tb504 C568 2.833 . S
C505 C508 1.432 . S
C505 C509 1.414 . S
C505 N512 1.359 . S
C506 C508 1.417 . S
C506 C510 1.432 . S
C506 C518 1.410 . S
C507 C509 1.444 . S
C507 C510 1.317 . S
C507 H530 0.929 . S
C508 C505 1.432 . S
C508 C506 1.417 . S
C508 N516 1.360 . S
C509 C505 1.414 . S
C509 C507 1.444 . S
C509 C514 1.385 . S
C510 C506 1.432 . S
C510 C507 1.317 . S
C510 H522 0.930 . S
C511 C513 1.392 . S
C511 C514 1.370 . S
C511 H523 0.931 . S
N512 C505 1.359 . S
N512 C513 1.327 . S
N512 Tb515 2.600 . S
C513 C511 1.392 . S
C513 N512 1.327 . S
C513 H520 0.930 . S
C514 C509 1.385 . S
C514 C511 1.370 . S
C514 H533 0.930 . S
Tb515 N512 2.600 . S
Tb515 N516 2.660 . S
Tb515 O549 2.362 . S
Tb515 O550 2.421 . S
Tb515 O554 2.546 . S
Tb515 O555 2.610 . S
Tb515 O557 2.320 . S
Tb515 O558 2.552 . S
Tb515 O559 2.413 . S
Tb515 C579 2.833 . S
N516 C508 1.360 . S
N516 Tb515 2.660 . S
N516 C517 1.305 . S
C517 N516 1.305 . S
C517 C519 1.407 . S
C517 H524 0.930 . S
C518 C506 1.410 . S
C518 C519 1.345 . S
C518 H526 0.930 . S
C519 C517 1.407 . S
C519 C518 1.345 . S
C519 H521 0.930 . S
H520 C513 0.930 . S
H521 C519 0.930 . S
H522 C510 0.930 . S
H523 C511 0.931 . S
H524 C517 0.930 . S
H525 C539 0.930 . S
H526 C518 0.930 . S
H527 C545 0.930 . S
H528 C536 0.930 . S
H529 C543 0.931 . S
H530 C507 0.929 . S
H531 C537 0.930 . S
H532 C570 0.930 . S
H533 C514 0.930 . S
H534 C569 0.929 . S
N535 Tb504 2.660 . S
N535 C536 1.305 . S
N535 C540 1.360 . S
C536 H528 0.930 . S
C536 N535 1.305 . S
C536 C539 1.407 . S
C537 H531 0.930 . S
C537 C538 1.410 . S
C537 C539 1.345 . S
C538 C537 1.410 . S
C538 C540 1.417 . S
C538 C570 1.432 . S
C539 H525 0.930 . S
C539 C536 1.407 . S
C539 C537 1.345 . S
C540 N535 1.360 . S
C540 C538 1.417 . S
C540 C544 1.432 . S
H541 C546 0.930 . S
N542 Tb504 2.600 . S
N542 C544 1.359 . S
N542 C545 1.327 . S
C543 H529 0.931 . S
C543 C545 1.392 . S
C543 C546 1.370 . S
C544 C540 1.432 . S
C544 N542 1.359 . S
C544 C547 1.414 . S
C545 H527 0.930 . S
C545 N542 1.327 . S
C545 C543 1.392 . S
C546 H541 0.930 . S
C546 C543 1.370 . S
C546 C547 1.385 . S
C547 C544 1.414 . S
C547 C546 1.385 . S
C547 C569 1.444 . S
O548 Tb504 2.546 . S
O548 C568 1.251 . S
O549 Tb504 2.610 . S
O549 Tb515 2.362 . S
O549 C560 1.283 . S
O550 Tb515 2.421 . S
O550 C567 1.262 . S
O551 Tb504 2.320 . S
O551 C567 1.260 . S
O552 Tb504 2.552 . S
O552 C560 1.243 . S
O553 Tb504 2.413 . S
O553 C568 1.256 . S
O554 Tb515 2.546 . S
O554 C579 1.251 . S
O555 Tb504 2.362 . S
O555 Tb515 2.610 . S
O555 C571 1.283 . S
O556 Tb504 2.421 . S
O556 C578 1.262 . S
O557 Tb515 2.320 . S
O557 C578 1.260 . S
O558 Tb515 2.552 . S
O558 C571 1.243 . S
O559 Tb515 2.413 . S
O559 C579 1.256 . S
C560 O549 1.283 . S
C560 O552 1.243 . S
C561 C563 1.382 . S
C561 C565 1.393 . S
C561 C568 1.500 . S
C562 C563 1.400 . S
C562 C564 1.384 . S
C563 C561 1.382 . S
C563 C562 1.400 . S
C563 H580 0.930 . S
C564 C562 1.384 . S
C564 C566 1.392 . S
C564 H581 0.931 . S
C565 C561 1.393 . S
C565 C566 1.401 . S
C565 H582 0.930 . S
C566 C564 1.392 . S
C566 C565 1.401 . S
C566 H583 0.930 . S
C567 O550 1.262 . S
C567 O551 1.260 . S
C568 Tb504 2.833 . S
C568 O548 1.251 . S
C568 O553 1.256 . S
C568 C561 1.500 . S
C569 H534 0.929 . S
C569 C547 1.444 . S
C569 C570 1.317 . S
C570 H532 0.930 . S
C570 C538 1.432 . S
C570 C569 1.317 . S
C571 O555 1.283 . S
C571 O558 1.243 . S
C572 C573 1.382 . S
C572 C576 1.393 . S
C572 C579 1.500 . S
C573 C572 1.382 . S
C573 C574 1.400 . S
C573 H584 0.930 . S
C574 C573 1.400 . S
C574 C575 1.384 . S
C575 C574 1.384 . S
C575 C577 1.392 . S
C575 H585 0.931 . S
C576 C572 1.393 . S
C576 C577 1.401 . S
C576 H586 0.930 . S
C577 C575 1.392 . S
C577 C576 1.401 . S
C577 H587 0.930 . S
C578 O556 1.262 . S
C578 O557 1.260 . S
C579 Tb515 2.833 . S
C579 O554 1.251 . S
C579 O559 1.256 . S
C579 C572 1.500 . S
H580 C563 0.930 . S
H581 C564 0.931 . S
H582 C565 0.930 . S
H583 C566 0.930 . S
H584 C573 0.930 . S
H585 C575 0.931 . S
H586 C576 0.930 . S
H587 C577 0.930 . S
Tb588 N619 2.660 . S
Tb588 N626 2.600 . S
Tb588 O632 2.546 . S
Tb588 O633 2.610 . S
Tb588 O635 2.320 . S
Tb588 O636 2.552 . S
Tb588 O637 2.413 . S
Tb588 O639 2.362 . S
Tb588 O640 2.421 . S
Tb588 C652 2.833 . S
C589 C592 1.432 . S
C589 C593 1.414 . S
C589 N596 1.359 . S
C590 C592 1.417 . S
C590 C594 1.432 . S
C590 C602 1.410 . S
C591 C593 1.444 . S
C591 C594 1.317 . S
C591 H614 0.929 . S
C592 C589 1.432 . S
C592 C590 1.417 . S
C592 N600 1.360 . S
C593 C589 1.414 . S
C593 C591 1.444 . S
C593 C598 1.385 . S
C594 C590 1.432 . S
C594 C591 1.317 . S
C594 H606 0.930 . S
C595 C597 1.392 . S
C595 C598 1.370 . S
C595 H607 0.931 . S
N596 C589 1.359 . S
N596 C597 1.327 . S
N596 Tb599 2.600 . S
C597 C595 1.392 . S
C597 N596 1.327 . S
C597 H604 0.930 . S
C598 C593 1.385 . S
C598 C595 1.370 . S
C598 H617 0.930 . S
Tb599 N596 2.600 . S
Tb599 N600 2.660 . S
Tb599 O633 2.362 . S
Tb599 O634 2.421 . S
Tb599 O638 2.546 . S
Tb599 O639 2.610 . S
Tb599 O641 2.320 . S
Tb599 O642 2.552 . S
Tb599 O643 2.413 . S
Tb599 C663 2.833 . S
N600 C592 1.360 . S
N600 Tb599 2.660 . S
N600 C601 1.305 . S
C601 N600 1.305 . S
C601 C603 1.407 . S
C601 H608 0.930 . S
C602 C590 1.410 . S
C602 C603 1.345 . S
C602 H610 0.930 . S
C603 C601 1.407 . S
C603 C602 1.345 . S
C603 H605 0.930 . S
H604 C597 0.930 . S
H605 C603 0.930 . S
H606 C594 0.930 . S
H607 C595 0.931 . S
H608 C601 0.930 . S
H609 C623 0.930 . S
H610 C602 0.930 . S
H611 C629 0.930 . S
H612 C620 0.930 . S
H613 C627 0.931 . S
H614 C591 0.929 . S
H615 C621 0.930 . S
H616 C654 0.930 . S
H617 C598 0.930 . S
H618 C653 0.929 . S
N619 Tb588 2.660 . S
N619 C620 1.305 . S
N619 C624 1.360 . S
C620 H612 0.930 . S
C620 N619 1.305 . S
C620 C623 1.407 . S
C621 H615 0.930 . S
C621 C622 1.410 . S
C621 C623 1.345 . S
C622 C621 1.410 . S
C622 C624 1.417 . S
C622 C654 1.432 . S
C623 H609 0.930 . S
C623 C620 1.407 . S
C623 C621 1.345 . S
C624 N619 1.360 . S
C624 C622 1.417 . S
C624 C628 1.432 . S
H625 C630 0.930 . S
N626 Tb588 2.600 . S
N626 C628 1.359 . S
N626 C629 1.327 . S
C627 H613 0.931 . S
C627 C629 1.392 1_655 S
C627 C630 1.370 . S
C628 C624 1.432 . S
C628 N626 1.359 . S
C628 C631 1.414 . S
C629 H611 0.930 . S
C629 N626 1.327 . S
C629 C627 1.392 1_455 S
C630 H625 0.930 . S
C630 C627 1.370 . S
C630 C631 1.385 1_655 S
C631 C628 1.414 . S
C631 C630 1.385 1_455 S
C631 C653 1.444 1_455 S
O632 Tb588 2.546 . S
O632 C652 1.251 . S
O633 Tb588 2.610 . S
O633 Tb599 2.362 . S
O633 C644 1.283 . S
O634 Tb599 2.421 . S
O634 C651 1.262 . S
O635 Tb588 2.320 . S
O635 C651 1.260 . S
O636 Tb588 2.552 . S
O636 C644 1.243 . S
O637 Tb588 2.413 . S
O637 C652 1.256 . S
O638 Tb599 2.546 . S
O638 C663 1.251 . S
O639 Tb588 2.362 . S
O639 Tb599 2.610 . S
O639 C655 1.283 . S
O640 Tb588 2.421 . S
O640 C662 1.262 . S
O641 Tb599 2.320 . S
O641 C662 1.260 . S
O642 Tb599 2.552 . S
O642 C655 1.243 . S
O643 Tb599 2.413 . S
O643 C663 1.256 . S
C644 O633 1.283 . S
C644 O636 1.243 . S
C645 C647 1.382 . S
C645 C649 1.393 . S
C645 C652 1.500 . S
C646 C647 1.400 . S
C646 C648 1.384 . S
C647 C645 1.382 . S
C647 C646 1.400 . S
C647 H664 0.930 . S
C648 C646 1.384 . S
C648 C650 1.392 . S
C648 H665 0.931 . S
C649 C645 1.393 . S
C649 C650 1.401 . S
C649 H666 0.930 . S
C650 C648 1.392 . S
C650 C649 1.401 . S
C650 H667 0.930 . S
C651 O634 1.262 . S
C651 O635 1.260 . S
C652 Tb588 2.833 . S
C652 O632 1.251 . S
C652 O637 1.256 . S
C652 C645 1.500 . S
C653 H618 0.929 . S
C653 C631 1.444 1_655 S
C653 C654 1.317 1_655 S
C654 H616 0.930 . S
C654 C622 1.432 . S
C654 C653 1.317 1_455 S
C655 O639 1.283 . S
C655 O642 1.243 . S
C656 C657 1.382 . S
C656 C660 1.393 . S
C656 C663 1.500 . S
C657 C656 1.382 . S
C657 C658 1.400 . S
C657 H668 0.930 . S
C658 C657 1.400 . S
C658 C659 1.384 . S
C659 C658 1.384 . S
C659 C661 1.392 . S
C659 H669 0.931 . S
C660 C656 1.393 . S
C660 C661 1.401 . S
C660 H670 0.930 . S
C661 C659 1.392 . S
C661 C660 1.401 . S
C661 H671 0.930 . S
C662 O640 1.262 . S
C662 O641 1.260 . S
C663 Tb599 2.833 . S
C663 O638 1.251 . S
C663 O643 1.256 . S
C663 C656 1.500 . S
H664 C647 0.930 . S
H665 C648 0.931 . S
H666 C649 0.930 . S
H667 C650 0.930 . S
H668 C657 0.930 . S
H669 C659 0.931 . S
H670 C660 0.930 . S
H671 C661 0.930 . S
Tb672 N703 2.660 . S
Tb672 N710 2.600 . S
Tb672 O716 2.546 . S
Tb672 O717 2.610 . S
Tb672 O719 2.320 . S
Tb672 O720 2.552 . S
Tb672 O721 2.413 . S
Tb672 O723 2.362 . S
Tb672 O724 2.421 . S
Tb672 C736 2.833 . S
C673 C676 1.432 . S
C673 C677 1.414 . S
C673 N680 1.359 . S
C674 C676 1.417 . S
C674 C678 1.432 . S
C674 C686 1.410 . S
C675 C677 1.444 . S
C675 C678 1.317 . S
C675 H698 0.929 . S
C676 C673 1.432 . S
C676 C674 1.417 . S
C676 N684 1.360 . S
C677 C673 1.414 . S
C677 C675 1.444 . S
C677 C682 1.385 . S
C678 C674 1.432 . S
C678 C675 1.317 . S
C678 H690 0.930 . S
C679 C681 1.392 . S
C679 C682 1.370 . S
C679 H691 0.931 . S
N680 C673 1.359 . S
N680 C681 1.327 . S
N680 Tb683 2.600 . S
C681 C679 1.392 . S
C681 N680 1.327 . S
C681 H688 0.930 . S
C682 C677 1.385 . S
C682 C679 1.370 . S
C682 H701 0.930 . S
Tb683 N680 2.600 . S
Tb683 N684 2.660 . S
Tb683 O717 2.362 . S
Tb683 O718 2.421 . S
Tb683 O722 2.546 . S
Tb683 O723 2.610 . S
Tb683 O725 2.320 . S
Tb683 O726 2.552 . S
Tb683 O727 2.413 . S
Tb683 C747 2.833 . S
N684 C676 1.360 . S
N684 Tb683 2.660 . S
N684 C685 1.305 . S
C685 N684 1.305 . S
C685 C687 1.407 . S
C685 H692 0.930 . S
C686 C674 1.410 . S
C686 C687 1.345 . S
C686 H694 0.930 . S
C687 C685 1.407 . S
C687 C686 1.345 . S
C687 H689 0.930 . S
H688 C681 0.930 . S
H689 C687 0.930 . S
H690 C678 0.930 . S
H691 C679 0.931 . S
H692 C685 0.930 . S
H693 C707 0.930 . S
H694 C686 0.930 . S
H695 C713 0.930 . S
H696 C704 0.930 . S
H697 C711 0.931 . S
H698 C675 0.929 . S
H699 C705 0.930 . S
H700 C738 0.930 . S
H701 C682 0.930 . S
H702 C737 0.929 . S
N703 Tb672 2.660 . S
N703 C704 1.305 . S
N703 C708 1.360 . S
C704 H696 0.930 . S
C704 N703 1.305 . S
C704 C707 1.407 . S
C705 H699 0.930 . S
C705 C706 1.410 . S
C705 C707 1.345 . S
C706 C705 1.410 . S
C706 C708 1.417 . S
C706 C738 1.432 . S
C707 H693 0.930 . S
C707 C704 1.407 . S
C707 C705 1.345 . S
C708 N703 1.360 . S
C708 C706 1.417 . S
C708 C712 1.432 . S
H709 C714 0.930 . S
N710 Tb672 2.600 . S
N710 C712 1.359 . S
N710 C713 1.327 . S
C711 H697 0.931 . S
C711 C713 1.392 . S
C711 C714 1.370 . S
C712 C708 1.432 . S
C712 N710 1.359 . S
C712 C715 1.414 . S
C713 H695 0.930 . S
C713 N710 1.327 . S
C713 C711 1.392 . S
C714 H709 0.930 . S
C714 C711 1.370 . S
C714 C715 1.385 . S
C715 C712 1.414 . S
C715 C714 1.385 . S
C715 C737 1.444 . S
O716 Tb672 2.546 . S
O716 C736 1.251 . S
O717 Tb672 2.610 . S
O717 Tb683 2.362 . S
O717 C728 1.283 . S
O718 Tb683 2.421 . S
O718 C735 1.262 . S
O719 Tb672 2.320 . S
O719 C735 1.260 . S
O720 Tb672 2.552 . S
O720 C728 1.243 . S
O721 Tb672 2.413 . S
O721 C736 1.256 . S
O722 Tb683 2.546 . S
O722 C747 1.251 . S
O723 Tb672 2.362 . S
O723 Tb683 2.610 . S
O723 C739 1.283 . S
O724 Tb672 2.421 . S
O724 C746 1.262 . S
O725 Tb683 2.320 . S
O725 C746 1.260 . S
O726 Tb683 2.552 . S
O726 C739 1.243 . S
O727 Tb683 2.413 . S
O727 C747 1.256 . S
C728 O717 1.283 . S
C728 O720 1.243 . S
C729 C731 1.382 . S
C729 C733 1.393 . S
C729 C736 1.500 . S
C730 C731 1.400 . S
C730 C732 1.384 . S
C731 C729 1.382 . S
C731 C730 1.400 . S
C731 H748 0.930 . S
C732 C730 1.384 . S
C732 C734 1.392 . S
C732 H749 0.931 . S
C733 C729 1.393 . S
C733 C734 1.401 . S
C733 H750 0.930 . S
C734 C732 1.392 . S
C734 C733 1.401 . S
C734 H751 0.930 . S
C735 O718 1.262 . S
C735 O719 1.260 . S
C736 Tb672 2.833 . S
C736 O716 1.251 . S
C736 O721 1.256 . S
C736 C729 1.500 . S
C737 H702 0.929 . S
C737 C715 1.444 . S
C737 C738 1.317 . S
C738 H700 0.930 . S
C738 C706 1.432 . S
C738 C737 1.317 . S
C739 O723 1.283 . S
C739 O726 1.243 . S
C740 C741 1.382 . S
C740 C744 1.393 . S
C740 C747 1.500 . S
C741 C740 1.382 . S
C741 C742 1.400 . S
C741 H752 0.930 . S
C742 C741 1.400 . S
C742 C743 1.384 . S
C743 C742 1.384 . S
C743 C745 1.392 . S
C743 H753 0.931 . S
C744 C740 1.393 . S
C744 C745 1.401 . S
C744 H754 0.930 . S
C745 C743 1.392 . S
C745 C744 1.401 . S
C745 H755 0.930 . S
C746 O724 1.262 . S
C746 O725 1.260 . S
C747 Tb683 2.833 . S
C747 O722 1.251 . S
C747 O727 1.256 . S
C747 C740 1.500 . S
H748 C731 0.930 . S
H749 C732 0.931 . S
H750 C733 0.930 . S
H751 C734 0.930 . S
H752 C741 0.930 . S
H753 C743 0.931 . S
H754 C744 0.930 . S
H755 C745 0.930 . S
Tb756 N787 2.660 . S
Tb756 N794 2.600 . S
Tb756 O800 2.546 . S
Tb756 O801 2.610 . S
Tb756 O803 2.320 . S
Tb756 O804 2.552 . S
Tb756 O805 2.413 . S
Tb756 O807 2.362 . S
Tb756 O808 2.421 . S
Tb756 C820 2.833 . S
C757 C760 1.432 . S
C757 C761 1.414 . S
C757 N764 1.359 . S
C758 C760 1.417 . S
C758 C762 1.432 . S
C758 C770 1.410 . S
C759 C761 1.444 1_655 S
C759 C762 1.317 1_655 S
C759 H782 0.929 . S
C760 C757 1.432 . S
C760 C758 1.417 . S
C760 N768 1.360 . S
C761 C757 1.414 . S
C761 C759 1.444 1_455 S
C761 C766 1.385 1_455 S
C762 C758 1.432 . S
C762 C759 1.317 1_455 S
C762 H774 0.930 . S
C763 C765 1.392 1_655 S
C763 C766 1.370 . S
C763 H775 0.931 . S
N764 C757 1.359 . S
N764 C765 1.327 . S
N764 Tb767 2.600 . S
C765 C763 1.392 1_455 S
C765 N764 1.327 . S
C765 H772 0.930 . S
C766 C761 1.385 1_655 S
C766 C763 1.370 . S
C766 H785 0.930 . S
Tb767 N764 2.600 . S
Tb767 N768 2.660 . S
Tb767 O801 2.362 . S
Tb767 O802 2.421 . S
Tb767 O806 2.546 . S
Tb767 O807 2.610 . S
Tb767 O809 2.320 . S
Tb767 O810 2.552 . S
Tb767 O811 2.413 . S
Tb767 C831 2.833 . S
N768 C760 1.360 . S
N768 Tb767 2.660 . S
N768 C769 1.305 . S
C769 N768 1.305 . S
C769 C771 1.407 . S
C769 H776 0.930 . S
C770 C758 1.410 . S
C770 C771 1.345 . S
C770 H778 0.930 . S
C771 C769 1.407 . S
C771 C770 1.345 . S
C771 H773 0.930 . S
H772 C765 0.930 . S
H773 C771 0.930 . S
H774 C762 0.930 . S
H775 C763 0.931 . S
H776 C769 0.930 . S
H777 C791 0.930 . S
H778 C770 0.930 . S
H779 C797 0.930 . S
H780 C788 0.930 . S
H781 C795 0.931 . S
H782 C759 0.929 . S
H783 C789 0.930 . S
H784 C822 0.930 . S
H785 C766 0.930 . S
H786 C821 0.929 . S
N787 Tb756 2.660 . S
N787 C788 1.305 . S
N787 C792 1.360 . S
C788 H780 0.930 . S
C788 N787 1.305 . S
C788 C791 1.407 . S
C789 H783 0.930 . S
C789 C790 1.410 . S
C789 C791 1.345 . S
C790 C789 1.410 . S
C790 C792 1.417 . S
C790 C822 1.432 . S
C791 H777 0.930 . S
C791 C788 1.407 . S
C791 C789 1.345 . S
C792 N787 1.360 . S
C792 C790 1.417 . S
C792 C796 1.432 . S
H793 C798 0.930 . S
N794 Tb756 2.600 . S
N794 C796 1.359 . S
N794 C797 1.327 . S
C795 H781 0.931 . S
C795 C797 1.392 . S
C795 C798 1.370 . S
C796 C792 1.432 . S
C796 N794 1.359 . S
C796 C799 1.414 . S
C797 H779 0.930 . S
C797 N794 1.327 . S
C797 C795 1.392 . S
C798 H793 0.930 . S
C798 C795 1.370 . S
C798 C799 1.385 . S
C799 C796 1.414 . S
C799 C798 1.385 . S
C799 C821 1.444 . S
O800 Tb756 2.546 . S
O800 C820 1.251 . S
O801 Tb756 2.610 . S
O801 Tb767 2.362 . S
O801 C812 1.283 . S
O802 Tb767 2.421 . S
O802 C819 1.262 . S
O803 Tb756 2.320 . S
O803 C819 1.260 . S
O804 Tb756 2.552 . S
O804 C812 1.243 . S
O805 Tb756 2.413 . S
O805 C820 1.256 . S
O806 Tb767 2.546 . S
O806 C831 1.251 . S
O807 Tb756 2.362 . S
O807 Tb767 2.610 . S
O807 C823 1.283 . S
O808 Tb756 2.421 . S
O808 C830 1.262 . S
O809 Tb767 2.320 . S
O809 C830 1.260 . S
O810 Tb767 2.552 . S
O810 C823 1.243 . S
O811 Tb767 2.413 . S
O811 C831 1.256 . S
C812 O801 1.283 . S
C812 O804 1.243 . S
C813 C815 1.382 . S
C813 C817 1.393 . S
C813 C820 1.500 . S
C814 C815 1.400 . S
C814 C816 1.384 . S
C815 C813 1.382 . S
C815 C814 1.400 . S
C815 H832 0.930 . S
C816 C814 1.384 . S
C816 C818 1.392 . S
C816 H833 0.931 . S
C817 C813 1.393 . S
C817 C818 1.401 . S
C817 H834 0.930 . S
C818 C816 1.392 . S
C818 C817 1.401 . S
C818 H835 0.930 . S
C819 O802 1.262 . S
C819 O803 1.260 . S
C820 Tb756 2.833 . S
C820 O800 1.251 . S
C820 O805 1.256 . S
C820 C813 1.500 . S
C821 H786 0.929 . S
C821 C799 1.444 . S
C821 C822 1.317 . S
C822 H784 0.930 . S
C822 C790 1.432 . S
C822 C821 1.317 . S
C823 O807 1.283 . S
C823 O810 1.243 . S
C824 C825 1.382 . S
C824 C828 1.393 . S
C824 C831 1.500 . S
C825 C824 1.382 . S
C825 C826 1.400 . S
C825 H836 0.930 . S
C826 C825 1.400 . S
C826 C827 1.384 . S
C827 C826 1.384 . S
C827 C829 1.392 . S
C827 H837 0.931 . S
C828 C824 1.393 . S
C828 C829 1.401 . S
C828 H838 0.930 . S
C829 C827 1.392 . S
C829 C828 1.401 . S
C829 H839 0.930 . S
C830 O808 1.262 . S
C830 O809 1.260 . S
C831 Tb767 2.833 . S
C831 O806 1.251 . S
C831 O811 1.256 . S
C831 C824 1.500 . S
H832 C815 0.930 . S
H833 C816 0.931 . S
H834 C817 0.930 . S
H835 C818 0.930 . S
H836 C825 0.930 . S
H837 C827 0.931 . S
H838 C828 0.930 . S
H839 C829 0.930 . S
Tb840 N871 2.660 1_554 S
Tb840 N878 2.600 . S
Tb840 O884 2.546 . S
Tb840 O885 2.610 . S
Tb840 O887 2.320 . S
Tb840 O888 2.552 . S
Tb840 O889 2.413 1_554 S
Tb840 O891 2.362 . S
Tb840 O892 2.421 . S
Tb840 C904 2.833 1_554 S
C841 C844 1.432 . S
C841 C845 1.414 . S
C841 N848 1.359 . S
C842 C844 1.417 . S
C842 C846 1.432 . S
C842 C854 1.410 . S
C843 C845 1.444 . S
C843 C846 1.317 . S
C843 H866 0.929 . S
C844 C841 1.432 . S
C844 C842 1.417 . S
C844 N852 1.360 . S
C845 C841 1.414 . S
C845 C843 1.444 . S
C845 C850 1.385 . S
C846 C842 1.432 . S
C846 C843 1.317 . S
C846 H858 0.930 . S
C847 C849 1.392 . S
C847 C850 1.370 . S
C847 H859 0.931 . S
N848 C841 1.359 . S
N848 C849 1.327 . S
N848 Tb851 2.600 . S
C849 C847 1.392 . S
C849 N848 1.327 . S
C849 H856 0.930 . S
C850 C845 1.385 . S
C850 C847 1.370 . S
C850 H869 0.930 . S
Tb851 N848 2.600 . S
Tb851 N852 2.660 . S
Tb851 O885 2.362 . S
Tb851 O886 2.421 . S
Tb851 O890 2.546 . S
Tb851 O891 2.610 . S
Tb851 O893 2.320 . S
Tb851 O894 2.552 . S
Tb851 O895 2.413 . S
Tb851 C915 2.833 . S
N852 C844 1.360 . S
N852 Tb851 2.660 . S
N852 C853 1.305 . S
C853 N852 1.305 . S
C853 C855 1.407 . S
C853 H860 0.930 . S
C854 C842 1.410 . S
C854 C855 1.345 . S
C854 H862 0.930 . S
C855 C853 1.407 . S
C855 C854 1.345 . S
C855 H857 0.930 . S
H856 C849 0.930 . S
H857 C855 0.930 . S
H858 C846 0.930 . S
H859 C847 0.931 . S
H860 C853 0.930 . S
H861 C875 0.930 . S
H862 C854 0.930 . S
H863 C881 0.930 . S
H864 C872 0.930 . S
H865 C879 0.931 . S
H866 C843 0.929 . S
H867 C873 0.930 . S
H868 C906 0.930 . S
H869 C850 0.930 . S
H870 C905 0.929 . S
N871 Tb840 2.660 1_556 S
N871 C872 1.305 . S
N871 C876 1.360 . S
C872 H864 0.930 . S
C872 N871 1.305 . S
C872 C875 1.407 . S
C873 H867 0.930 . S
C873 C874 1.410 . S
C873 C875 1.345 . S
C874 C873 1.410 . S
C874 C876 1.417 . S
C874 C906 1.432 . S
C875 H861 0.930 . S
C875 C872 1.407 . S
C875 C873 1.345 . S
C876 N871 1.360 . S
C876 C874 1.417 . S
C876 C880 1.432 . S
H877 C882 0.928 1_556 S
N878 Tb840 2.600 . S
N878 C880 1.359 1_554 S
N878 C881 1.327 . S
C879 H865 0.931 . S
C879 C881 1.392 . S
C879 C882 1.376 . S
C880 C876 1.432 . S
C880 N878 1.359 1_556 S
C880 C883 1.414 . S
C881 H863 0.930 . S
C881 N878 1.327 . S
C881 C879 1.392 . S
C882 H877 0.928 1_554 S
C882 C879 1.376 . S
C882 C883 1.380 1_554 S
C883 C880 1.414 . S
C883 C882 1.380 1_556 S
C883 C905 1.444 . S
O884 Tb840 2.546 . S
O884 C904 1.251 1_554 S
O885 Tb840 2.610 . S
O885 Tb851 2.362 . S
O885 C896 1.283 . S
O886 Tb851 2.421 . S
O886 C903 1.262 . S
O887 Tb840 2.320 . S
O887 C903 1.260 . S
O888 Tb840 2.552 . S
O888 C896 1.243 . S
O889 Tb840 2.413 1_556 S
O889 C904 1.256 . S
O890 Tb851 2.546 . S
O890 C915 1.251 . S
O891 Tb840 2.362 . S
O891 Tb851 2.610 . S
O891 C907 1.283 . S
O892 Tb840 2.421 . S
O892 C914 1.262 . S
O893 Tb851 2.320 . S
O893 C914 1.260 . S
O894 Tb851 2.552 . S
O894 C907 1.243 . S
O895 Tb851 2.413 . S
O895 C915 1.256 . S
C896 O885 1.283 . S
C896 O888 1.243 . S
C897 C899 1.382 . S
C897 C901 1.393 . S
C897 C904 1.500 . S
C898 C899 1.400 . S
C898 C900 1.384 . S
C899 C897 1.382 . S
C899 C898 1.400 . S
C899 H916 0.930 . S
C900 C898 1.384 . S
C900 C902 1.392 . S
C900 H917 0.931 . S
C901 C897 1.393 . S
C901 C902 1.401 . S
C901 H918 0.930 . S
C902 C900 1.392 . S
C902 C901 1.401 . S
C902 H919 0.930 . S
C903 O886 1.262 . S
C903 O887 1.260 . S
C904 Tb840 2.833 1_556 S
C904 O884 1.251 1_556 S
C904 O889 1.256 . S
C904 C897 1.500 . S
C905 H870 0.929 . S
C905 C883 1.444 . S
C905 C906 1.317 . S
C906 H868 0.930 . S
C906 C874 1.432 . S
C906 C905 1.317 . S
C907 O891 1.283 . S
C907 O894 1.243 . S
C908 C909 1.382 . S
C908 C912 1.393 . S
C908 C915 1.500 . S
C909 C908 1.382 . S
C909 C910 1.400 . S
C909 H920 0.930 . S
C910 C909 1.400 . S
C910 C911 1.384 . S
C911 C910 1.384 . S
C911 C913 1.392 . S
C911 H921 0.931 . S
C912 C908 1.393 . S
C912 C913 1.401 . S
C912 H922 0.930 . S
C913 C911 1.392 . S
C913 C912 1.401 . S
C913 H923 0.930 . S
C914 O892 1.262 . S
C914 O893 1.260 . S
C915 Tb851 2.833 . S
C915 O890 1.251 . S
C915 O895 1.256 . S
C915 C908 1.500 . S
H916 C899 0.930 . S
H917 C900 0.931 . S
H918 C901 0.930 . S
H919 C902 0.930 . S
H920 C909 0.930 . S
H921 C911 0.931 . S
H922 C912 0.930 . S
H923 C913 0.930 . S
Tb924 N955 2.660 . S
Tb924 N962 2.600 . S
Tb924 O968 2.546 . S
Tb924 O969 2.610 . S
Tb924 O971 2.320 . S
Tb924 O972 2.552 . S
Tb924 O973 2.413 . S
Tb924 O975 2.362 . S
Tb924 O976 2.421 . S
Tb924 C988 2.833 . S
C925 C928 1.432 . S
C925 C929 1.414 . S
C925 N932 1.359 . S
C926 C928 1.417 . S
C926 C930 1.432 . S
C926 C938 1.410 . S
C927 C929 1.444 . S
C927 C930 1.317 . S
C927 H950 0.929 . S
C928 C925 1.432 . S
C928 C926 1.417 . S
C928 N936 1.360 . S
C929 C925 1.414 . S
C929 C927 1.444 . S
C929 C934 1.385 . S
C930 C926 1.432 . S
C930 C927 1.317 . S
C930 H942 0.930 . S
C931 C933 1.392 . S
C931 C934 1.370 . S
C931 H943 0.931 . S
N932 C925 1.359 . S
N932 C933 1.327 . S
N932 Tb935 2.600 . S
C933 C931 1.392 . S
C933 N932 1.327 . S
C933 H940 0.930 . S
C934 C929 1.385 . S
C934 C931 1.370 . S
C934 H953 0.930 . S
Tb935 N932 2.600 . S
Tb935 N936 2.660 . S
Tb935 O969 2.362 . S
Tb935 O970 2.421 . S
Tb935 O974 2.546 . S
Tb935 O975 2.610 . S
Tb935 O977 2.320 . S
Tb935 O978 2.552 . S
Tb935 O979 2.413 . S
Tb935 C999 2.833 . S
N936 C928 1.360 . S
N936 Tb935 2.660 . S
N936 C937 1.305 . S
C937 N936 1.305 . S
C937 C939 1.407 . S
C937 H944 0.930 . S
C938 C926 1.410 . S
C938 C939 1.345 . S
C938 H946 0.930 . S
C939 C937 1.407 . S
C939 C938 1.345 . S
C939 H941 0.930 . S
H940 C933 0.930 . S
H941 C939 0.930 . S
H942 C930 0.930 . S
H943 C931 0.931 . S
H944 C937 0.930 . S
H945 C959 0.930 . S
H946 C938 0.930 . S
H947 C965 0.930 . S
H948 C956 0.930 . S
H949 C963 0.931 . S
H950 C927 0.929 . S
H951 C957 0.930 . S
H952 C990 0.930 . S
H953 C934 0.930 . S
H954 C989 0.929 . S
N955 Tb924 2.660 . S
N955 C956 1.305 . S
N955 C960 1.360 . S
C956 H948 0.930 . S
C956 N955 1.305 . S
C956 C959 1.407 . S
C957 H951 0.930 . S
C957 C958 1.410 . S
C957 C959 1.345 . S
C958 C957 1.410 . S
C958 C960 1.417 . S
C958 C990 1.432 . S
C959 H945 0.930 . S
C959 C956 1.407 . S
C959 C957 1.345 . S
C960 N955 1.360 . S
C960 C958 1.417 . S
C960 C964 1.432 . S
H961 C966 0.930 . S
N962 Tb924 2.600 . S
N962 C964 1.359 . S
N962 C965 1.327 . S
C963 H949 0.931 . S
C963 C965 1.392 . S
C963 C966 1.370 . S
C964 C960 1.432 . S
C964 N962 1.359 . S
C964 C967 1.414 . S
C965 H947 0.930 . S
C965 N962 1.327 . S
C965 C963 1.392 . S
C966 H961 0.930 . S
C966 C963 1.370 . S
C966 C967 1.385 . S
C967 C964 1.414 . S
C967 C966 1.385 . S
C967 C989 1.444 . S
O968 Tb924 2.546 . S
O968 C988 1.251 . S
O969 Tb924 2.610 . S
O969 Tb935 2.362 . S
O969 C980 1.283 . S
O970 Tb935 2.421 . S
O970 C987 1.262 . S
O971 Tb924 2.320 . S
O971 C987 1.260 . S
O972 Tb924 2.552 . S
O972 C980 1.243 . S
O973 Tb924 2.413 . S
O973 C988 1.256 . S
O974 Tb935 2.546 . S
O974 C999 1.251 . S
O975 Tb924 2.362 . S
O975 Tb935 2.610 . S
O975 C991 1.283 . S
O976 Tb924 2.421 . S
O976 C998 1.262 . S
O977 Tb935 2.320 . S
O977 C998 1.260 . S
O978 Tb935 2.552 . S
O978 C991 1.243 . S
O979 Tb935 2.413 . S
O979 C999 1.256 . S
C980 O969 1.283 . S
C980 O972 1.243 . S
C981 C983 1.382 . S
C981 C985 1.393 . S
C981 C988 1.500 . S
C982 C983 1.400 . S
C982 C984 1.384 . S
C983 C981 1.382 . S
C983 C982 1.400 . S
C983 H1000 0.930 . S
C984 C982 1.384 . S
C984 C986 1.392 . S
C984 H1001 0.931 . S
C985 C981 1.393 . S
C985 C986 1.401 . S
C985 H1002 0.930 . S
C986 C984 1.392 . S
C986 C985 1.401 . S
C986 H1003 0.930 . S
C987 O970 1.262 . S
C987 O971 1.260 . S
C988 Tb924 2.833 . S
C988 O968 1.251 . S
C988 O973 1.256 . S
C988 C981 1.500 . S
C989 H954 0.929 . S
C989 C967 1.444 . S
C989 C990 1.317 . S
C990 H952 0.930 . S
C990 C958 1.432 . S
C990 C989 1.317 . S
C991 O975 1.283 . S
C991 O978 1.243 . S
C992 C993 1.382 . S
C992 C996 1.393 . S
C992 C999 1.500 . S
C993 C992 1.382 . S
C993 C994 1.400 . S
C993 H1004 0.930 . S
C994 C993 1.400 . S
C994 C995 1.384 . S
C995 C994 1.384 . S
C995 C997 1.392 . S
C995 H1005 0.931 . S
C996 C992 1.393 . S
C996 C997 1.401 . S
C996 H1006 0.930 . S
C997 C995 1.392 . S
C997 C996 1.401 . S
C997 H1007 0.930 . S
C998 O976 1.262 . S
C998 O977 1.260 . S
C999 Tb935 2.833 . S
C999 O974 1.251 . S
C999 O979 1.256 . S
C999 C992 1.500 . S
H1000 C983 0.930 . S
H1001 C984 0.931 . S
H1002 C985 0.930 . S
H1003 C986 0.930 . S
H1004 C993 0.930 . S
H1005 C995 0.931 . S
H1006 C996 0.930 . S
H1007 C997 0.930 . S
Tb1008 N1039 2.660 . S
Tb1008 N1046 2.600 . S
Tb1008 O1052 2.546 . S
Tb1008 O1053 2.610 . S
Tb1008 O1055 2.320 . S
Tb1008 O1056 2.552 . S
Tb1008 O1057 2.413 . S
Tb1008 O1059 2.362 . S
Tb1008 O1060 2.421 . S
Tb1008 C1072 2.833 . S
C1009 C1012 1.432 . S
C1009 C1013 1.414 . S
C1009 N1016 1.359 . S
C1010 C1012 1.417 . S
C1010 C1014 1.432 . S
C1010 C1022 1.410 . S
C1011 C1013 1.444 . S
C1011 C1014 1.317 . S
C1011 H1034 0.929 . S
C1012 C1009 1.432 . S
C1012 C1010 1.417 . S
C1012 N1020 1.360 . S
C1013 C1009 1.414 . S
C1013 C1011 1.444 . S
C1013 C1018 1.385 . S
C1014 C1010 1.432 . S
C1014 C1011 1.317 . S
C1014 H1026 0.930 . S
C1015 C1017 1.392 . S
C1015 C1018 1.370 . S
C1015 H1027 0.931 . S
N1016 C1009 1.359 . S
N1016 C1017 1.327 . S
N1016 Tb1019 2.600 . S
C1017 C1015 1.392 . S
C1017 N1016 1.327 . S
C1017 H1024 0.930 . S
C1018 C1013 1.385 . S
C1018 C1015 1.370 . S
C1018 H1037 0.930 . S
Tb1019 N1016 2.600 . S
Tb1019 N1020 2.660 . S
Tb1019 O1053 2.362 . S
Tb1019 O1054 2.421 . S
Tb1019 O1058 2.546 . S
Tb1019 O1059 2.610 . S
Tb1019 O1061 2.320 . S
Tb1019 O1062 2.552 . S
Tb1019 O1063 2.413 . S
Tb1019 C1083 2.833 . S
N1020 C1012 1.360 . S
N1020 Tb1019 2.660 . S
N1020 C1021 1.305 . S
C1021 N1020 1.305 . S
C1021 C1023 1.407 . S
C1021 H1028 0.930 . S
C1022 C1010 1.410 . S
C1022 C1023 1.345 . S
C1022 H1030 0.930 . S
C1023 C1021 1.407 . S
C1023 C1022 1.345 . S
C1023 H1025 0.930 . S
H1024 C1017 0.930 . S
H1025 C1023 0.930 . S
H1026 C1014 0.930 . S
H1027 C1015 0.931 . S
H1028 C1021 0.930 . S
H1029 C1043 0.930 . S
H1030 C1022 0.930 . S
H1031 C1049 0.930 . S
H1032 C1040 0.930 . S
H1033 C1047 0.931 . S
H1034 C1011 0.929 . S
H1035 C1041 0.930 . S
H1036 C1074 0.930 . S
H1037 C1018 0.930 . S
H1038 C1073 0.929 . S
N1039 Tb1008 2.660 . S
N1039 C1040 1.305 . S
N1039 C1044 1.360 . S
C1040 H1032 0.930 . S
C1040 N1039 1.305 . S
C1040 C1043 1.407 . S
C1041 H1035 0.930 . S
C1041 C1042 1.410 . S
C1041 C1043 1.345 . S
C1042 C1041 1.410 . S
C1042 C1044 1.417 . S
C1042 C1074 1.432 . S
C1043 H1029 0.930 . S
C1043 C1040 1.407 . S
C1043 C1041 1.345 . S
C1044 N1039 1.360 . S
C1044 C1042 1.417 . S
C1044 C1048 1.432 . S
H1045 C1050 0.930 . S
N1046 Tb1008 2.600 . S
N1046 C1048 1.359 . S
N1046 C1049 1.327 . S
C1047 H1033 0.931 . S
C1047 C1049 1.392 . S
C1047 C1050 1.370 . S
C1048 C1044 1.432 . S
C1048 N1046 1.359 . S
C1048 C1051 1.414 . S
C1049 H1031 0.930 . S
C1049 N1046 1.327 . S
C1049 C1047 1.392 . S
C1050 H1045 0.930 . S
C1050 C1047 1.370 . S
C1050 C1051 1.385 . S
C1051 C1048 1.414 . S
C1051 C1050 1.385 . S
C1051 C1073 1.444 . S
O1052 Tb1008 2.546 . S
O1052 C1072 1.251 . S
O1053 Tb1008 2.610 . S
O1053 Tb1019 2.362 . S
O1053 C1064 1.283 . S
O1054 Tb1019 2.421 . S
O1054 C1071 1.262 . S
O1055 Tb1008 2.320 . S
O1055 C1071 1.260 . S
O1056 Tb1008 2.552 . S
O1056 C1064 1.243 . S
O1057 Tb1008 2.413 . S
O1057 C1072 1.256 . S
O1058 Tb1019 2.546 . S
O1058 C1083 1.251 . S
O1059 Tb1008 2.362 . S
O1059 Tb1019 2.610 . S
O1059 C1075 1.283 . S
O1060 Tb1008 2.421 . S
O1060 C1082 1.262 . S
O1061 Tb1019 2.320 . S
O1061 C1082 1.260 . S
O1062 Tb1019 2.552 . S
O1062 C1075 1.243 . S
O1063 Tb1019 2.413 . S
O1063 C1083 1.256 . S
C1064 O1053 1.283 . S
C1064 O1056 1.243 . S
C1065 C1067 1.382 . S
C1065 C1069 1.393 . S
C1065 C1072 1.500 . S
C1066 C1067 1.400 . S
C1066 C1068 1.384 . S
C1067 C1065 1.382 . S
C1067 C1066 1.400 . S
C1067 H1084 0.930 . S
C1068 C1066 1.384 . S
C1068 C1070 1.392 . S
C1068 H1085 0.931 . S
C1069 C1065 1.393 . S
C1069 C1070 1.401 . S
C1069 H1086 0.930 . S
C1070 C1068 1.392 . S
C1070 C1069 1.401 . S
C1070 H1087 0.930 . S
C1071 O1054 1.262 . S
C1071 O1055 1.260 . S
C1072 Tb1008 2.833 . S
C1072 O1052 1.251 . S
C1072 O1057 1.256 . S
C1072 C1065 1.500 . S
C1073 H1038 0.929 . S
C1073 C1051 1.444 . S
C1073 C1074 1.317 . S
C1074 H1036 0.930 . S
C1074 C1042 1.432 . S
C1074 C1073 1.317 . S
C1075 O1059 1.283 . S
C1075 O1062 1.243 . S
C1076 C1077 1.382 . S
C1076 C1080 1.393 . S
C1076 C1083 1.500 . S
C1077 C1076 1.382 . S
C1077 C1078 1.400 . S
C1077 H1088 0.930 . S
C1078 C1077 1.400 . S
C1078 C1079 1.384 . S
C1079 C1078 1.384 . S
C1079 C1081 1.392 . S
C1079 H1089 0.931 . S
C1080 C1076 1.393 . S
C1080 C1081 1.401 . S
C1080 H1090 0.930 . S
C1081 C1079 1.392 . S
C1081 C1080 1.401 . S
C1081 H1091 0.930 . S
C1082 O1060 1.262 . S
C1082 O1061 1.260 . S
C1083 Tb1019 2.833 . S
C1083 O1058 1.251 . S
C1083 O1063 1.256 . S
C1083 C1076 1.500 . S
H1084 C1067 0.930 . S
H1085 C1068 0.931 . S
H1086 C1069 0.930 . S
H1087 C1070 0.930 . S
H1088 C1077 0.930 . S
H1089 C1079 0.931 . S
H1090 C1080 0.930 . S
H1091 C1081 0.930 . S
Tb1092 N1123 2.660 . S
Tb1092 N1130 2.600 . S
Tb1092 O1136 2.546 . S
Tb1092 O1137 2.610 . S
Tb1092 O1139 2.320 . S
Tb1092 O1140 2.552 . S
Tb1092 O1141 2.413 . S
Tb1092 O1143 2.362 . S
Tb1092 O1144 2.421 . S
Tb1092 C1156 2.833 . S
C1093 C1096 1.432 . S
C1093 C1097 1.414 . S
C1093 N1100 1.359 . S
C1094 C1096 1.417 . S
C1094 C1098 1.432 . S
C1094 C1106 1.410 . S
C1095 C1097 1.444 . S
C1095 C1098 1.317 . S
C1095 H1118 0.929 . S
C1096 C1093 1.432 . S
C1096 C1094 1.417 . S
C1096 N1104 1.360 . S
C1097 C1093 1.414 . S
C1097 C1095 1.444 . S
C1097 C1102 1.385 . S
C1098 C1094 1.432 . S
C1098 C1095 1.317 . S
C1098 H1110 0.930 . S
C1099 C1101 1.392 . S
C1099 C1102 1.370 . S
C1099 H1111 0.931 . S
N1100 C1093 1.359 . S
N1100 C1101 1.327 . S
N1100 Tb1103 2.600 . S
C1101 C1099 1.392 . S
C1101 N1100 1.327 . S
C1101 H1108 0.930 . S
C1102 C1097 1.385 . S
C1102 C1099 1.370 . S
C1102 H1121 0.930 . S
Tb1103 N1100 2.600 . S
Tb1103 N1104 2.660 . S
Tb1103 O1137 2.362 . S
Tb1103 O1138 2.421 . S
Tb1103 O1142 2.546 . S
Tb1103 O1143 2.610 . S
Tb1103 O1145 2.320 . S
Tb1103 O1146 2.552 . S
Tb1103 O1147 2.413 . S
Tb1103 C1167 2.833 . S
N1104 C1096 1.360 . S
N1104 Tb1103 2.660 . S
N1104 C1105 1.305 . S
C1105 N1104 1.305 . S
C1105 C1107 1.407 . S
C1105 H1112 0.930 . S
C1106 C1094 1.410 . S
C1106 C1107 1.345 . S
C1106 H1114 0.930 . S
C1107 C1105 1.407 . S
C1107 C1106 1.345 . S
C1107 H1109 0.930 . S
H1108 C1101 0.930 . S
H1109 C1107 0.930 . S
H1110 C1098 0.930 . S
H1111 C1099 0.931 . S
H1112 C1105 0.930 . S
H1113 C1127 0.930 . S
H1114 C1106 0.930 . S
H1115 C1133 0.930 . S
H1116 C1124 0.930 . S
H1117 C1131 0.931 . S
H1118 C1095 0.929 . S
H1119 C1125 0.930 . S
H1120 C1158 0.930 . S
H1121 C1102 0.930 . S
H1122 C1157 0.929 . S
N1123 Tb1092 2.660 . S
N1123 C1124 1.305 . S
N1123 C1128 1.360 . S
C1124 H1116 0.930 . S
C1124 N1123 1.305 . S
C1124 C1127 1.407 . S
C1125 H1119 0.930 . S
C1125 C1126 1.410 . S
C1125 C1127 1.345 . S
C1126 C1125 1.410 . S
C1126 C1128 1.417 . S
C1126 C1158 1.432 . S
C1127 H1113 0.930 . S
C1127 C1124 1.407 . S
C1127 C1125 1.345 . S
C1128 N1123 1.360 . S
C1128 C1126 1.417 . S
C1128 C1132 1.432 . S
H1129 C1134 0.930 . S
N1130 Tb1092 2.600 . S
N1130 C1132 1.359 . S
N1130 C1133 1.327 . S
C1131 H1117 0.931 . S
C1131 C1133 1.392 1_455 S
C1131 C1134 1.370 . S
C1132 C1128 1.432 . S
C1132 N1130 1.359 . S
C1132 C1135 1.414 . S
C1133 H1115 0.930 . S
C1133 N1130 1.327 . S
C1133 C1131 1.392 1_655 S
C1134 H1129 0.930 . S
C1134 C1131 1.370 . S
C1134 C1135 1.385 1_455 S
C1135 C1132 1.414 . S
C1135 C1134 1.385 1_655 S
C1135 C1157 1.444 1_655 S
O1136 Tb1092 2.546 . S
O1136 C1156 1.251 . S
O1137 Tb1092 2.610 . S
O1137 Tb1103 2.362 . S
O1137 C1148 1.283 . S
O1138 Tb1103 2.421 . S
O1138 C1155 1.262 . S
O1139 Tb1092 2.320 . S
O1139 C1155 1.260 . S
O1140 Tb1092 2.552 . S
O1140 C1148 1.243 . S
O1141 Tb1092 2.413 . S
O1141 C1156 1.256 . S
O1142 Tb1103 2.546 . S
O1142 C1167 1.251 . S
O1143 Tb1092 2.362 . S
O1143 Tb1103 2.610 . S
O1143 C1159 1.283 . S
O1144 Tb1092 2.421 . S
O1144 C1166 1.262 . S
O1145 Tb1103 2.320 . S
O1145 C1166 1.260 . S
O1146 Tb1103 2.552 . S
O1146 C1159 1.243 . S
O1147 Tb1103 2.413 . S
O1147 C1167 1.256 . S
C1148 O1137 1.283 . S
C1148 O1140 1.243 . S
C1149 C1151 1.382 . S
C1149 C1153 1.393 . S
C1149 C1156 1.500 . S
C1150 C1151 1.400 . S
C1150 C1152 1.384 . S
C1151 C1149 1.382 . S
C1151 C1150 1.400 . S
C1151 H1168 0.930 . S
C1152 C1150 1.384 . S
C1152 C1154 1.392 . S
C1152 H1169 0.931 . S
C1153 C1149 1.393 . S
C1153 C1154 1.401 . S
C1153 H1170 0.930 . S
C1154 C1152 1.392 . S
C1154 C1153 1.401 . S
C1154 H1171 0.930 . S
C1155 O1138 1.262 . S
C1155 O1139 1.260 . S
C1156 Tb1092 2.833 . S
C1156 O1136 1.251 . S
C1156 O1141 1.256 . S
C1156 C1149 1.500 . S
C1157 H1122 0.929 . S
C1157 C1135 1.444 1_455 S
C1157 C1158 1.317 1_455 S
C1158 H1120 0.930 . S
C1158 C1126 1.432 . S
C1158 C1157 1.317 1_655 S
C1159 O1143 1.283 . S
C1159 O1146 1.243 . S
C1160 C1161 1.382 . S
C1160 C1164 1.393 . S
C1160 C1167 1.500 . S
C1161 C1160 1.382 . S
C1161 C1162 1.400 . S
C1161 H1172 0.930 . S
C1162 C1161 1.400 . S
C1162 C1163 1.384 . S
C1163 C1162 1.384 . S
C1163 C1165 1.392 . S
C1163 H1173 0.931 . S
C1164 C1160 1.393 . S
C1164 C1165 1.401 . S
C1164 H1174 0.930 . S
C1165 C1163 1.392 . S
C1165 C1164 1.401 . S
C1165 H1175 0.930 . S
C1166 O1144 1.262 . S
C1166 O1145 1.260 . S
C1167 Tb1103 2.833 . S
C1167 O1142 1.251 . S
C1167 O1147 1.256 . S
C1167 C1160 1.500 . S
H1168 C1151 0.930 . S
H1169 C1152 0.931 . S
H1170 C1153 0.930 . S
H1171 C1154 0.930 . S
H1172 C1161 0.930 . S
H1173 C1163 0.931 . S
H1174 C1164 0.930 . S
H1175 C1165 0.930 . S
Tb1176 N1207 2.660 . S
Tb1176 N1214 2.600 . S
Tb1176 O1220 2.546 . S
Tb1176 O1221 2.610 . S
Tb1176 O1223 2.320 . S
Tb1176 O1224 2.552 . S
Tb1176 O1225 2.413 . S
Tb1176 O1227 2.362 . S
Tb1176 O1228 2.421 . S
Tb1176 C1240 2.833 . S
C1177 C1180 1.432 . S
C1177 C1181 1.414 . S
C1177 N1184 1.359 1_554 S
C1178 C1180 1.417 . S
C1178 C1182 1.432 . S
C1178 C1190 1.410 . S
C1179 C1181 1.444 . S
C1179 C1182 1.317 . S
C1179 H1202 0.929 . S
C1180 C1177 1.432 . S
C1180 C1178 1.417 . S
C1180 N1188 1.360 . S
C1181 C1177 1.414 . S
C1181 C1179 1.444 . S
C1181 C1186 1.380 1_554 S
C1182 C1178 1.432 . S
C1182 C1179 1.317 . S
C1182 H1194 0.930 . S
C1183 C1185 1.392 . S
C1183 C1186 1.376 . S
C1183 H1195 0.931 . S
N1184 C1177 1.359 1_556 S
N1184 C1185 1.327 . S
N1184 Tb1187 2.600 . S
C1185 C1183 1.392 . S
C1185 N1184 1.327 . S
C1185 H1192 0.930 . S
C1186 C1181 1.380 1_556 S
C1186 C1183 1.376 . S
C1186 H1205 0.928 1_556 S
Tb1187 N1184 2.600 . S
Tb1187 N1188 2.660 1_556 S
Tb1187 O1221 2.362 . S
Tb1187 O1222 2.421 . S
Tb1187 O1226 2.546 . S
Tb1187 O1227 2.610 . S
Tb1187 O1229 2.320 . S
Tb1187 O1230 2.552 . S
Tb1187 O1231 2.413 1_556 S
Tb1187 C1251 2.833 1_556 S
N1188 C1180 1.360 . S
N1188 Tb1187 2.660 1_554 S
N1188 C1189 1.305 . S
C1189 N1188 1.305 . S
C1189 C1191 1.407 . S
C1189 H1196 0.930 . S
C1190 C1178 1.410 . S
C1190 C1191 1.345 . S
C1190 H1198 0.930 . S
C1191 C1189 1.407 . S
C1191 C1190 1.345 . S
C1191 H1193 0.930 . S
H1192 C1185 0.930 . S
H1193 C1191 0.930 . S
H1194 C1182 0.930 . S
H1195 C1183 0.931 . S
H1196 C1189 0.930 . S
H1197 C1211 0.930 . S
H1198 C1190 0.930 . S
H1199 C1217 0.930 . S
H1200 C1208 0.930 . S
H1201 C1215 0.931 . S
H1202 C1179 0.929 . S
H1203 C1209 0.930 . S
H1204 C1242 0.930 . S
H1205 C1186 0.928 1_554 S
H1206 C1241 0.929 . S
N1207 Tb1176 2.660 . S
N1207 C1208 1.305 . S
N1207 C1212 1.360 . S
C1208 H1200 0.930 . S
C1208 N1207 1.305 . S
C1208 C1211 1.407 . S
C1209 H1203 0.930 . S
C1209 C1210 1.410 . S
C1209 C1211 1.345 . S
C1210 C1209 1.410 . S
C1210 C1212 1.417 . S
C1210 C1242 1.432 . S
C1211 H1197 0.930 . S
C1211 C1208 1.407 . S
C1211 C1209 1.345 . S
C1212 N1207 1.360 . S
C1212 C1210 1.417 . S
C1212 C1216 1.432 . S
H1213 C1218 0.930 . S
N1214 Tb1176 2.600 . S
N1214 C1216 1.359 . S
N1214 C1217 1.327 . S
C1215 H1201 0.931 . S
C1215 C1217 1.392 . S
C1215 C1218 1.370 . S
C1216 C1212 1.432 . S
C1216 N1214 1.359 . S
C1216 C1219 1.414 . S
C1217 H1199 0.930 . S
C1217 N1214 1.327 . S
C1217 C1215 1.392 . S
C1218 H1213 0.930 . S
C1218 C1215 1.370 . S
C1218 C1219 1.385 . S
C1219 C1216 1.414 . S
C1219 C1218 1.385 . S
C1219 C1241 1.444 . S
O1220 Tb1176 2.546 . S
O1220 C1240 1.251 . S
O1221 Tb1176 2.610 . S
O1221 Tb1187 2.362 . S
O1221 C1232 1.283 . S
O1222 Tb1187 2.421 . S
O1222 C1239 1.262 . S
O1223 Tb1176 2.320 . S
O1223 C1239 1.260 . S
O1224 Tb1176 2.552 . S
O1224 C1232 1.243 . S
O1225 Tb1176 2.413 . S
O1225 C1240 1.256 . S
O1226 Tb1187 2.546 . S
O1226 C1251 1.251 1_556 S
O1227 Tb1176 2.362 . S
O1227 Tb1187 2.610 . S
O1227 C1243 1.283 . S
O1228 Tb1176 2.421 . S
O1228 C1250 1.262 . S
O1229 Tb1187 2.320 . S
O1229 C1250 1.260 . S
O1230 Tb1187 2.552 . S
O1230 C1243 1.243 . S
O1231 Tb1187 2.413 1_554 S
O1231 C1251 1.256 . S
C1232 O1221 1.283 . S
C1232 O1224 1.243 . S
C1233 C1235 1.382 . S
C1233 C1237 1.393 . S
C1233 C1240 1.500 . S
C1234 C1235 1.400 . S
C1234 C1236 1.384 . S
C1235 C1233 1.382 . S
C1235 C1234 1.400 . S
C1235 H1252 0.930 . S
C1236 C1234 1.384 . S
C1236 C1238 1.392 . S
C1236 H1253 0.931 . S
C1237 C1233 1.393 . S
C1237 C1238 1.401 . S
C1237 H1254 0.930 . S
C1238 C1236 1.392 . S
C1238 C1237 1.401 . S
C1238 H1255 0.930 . S
C1239 O1222 1.262 . S
C1239 O1223 1.260 . S
C1240 Tb1176 2.833 . S
C1240 O1220 1.251 . S
C1240 O1225 1.256 . S
C1240 C1233 1.500 . S
C1241 H1206 0.929 . S
C1241 C1219 1.444 . S
C1241 C1242 1.317 . S
C1242 H1204 0.930 . S
C1242 C1210 1.432 . S
C1242 C1241 1.317 . S
C1243 O1227 1.283 . S
C1243 O1230 1.243 . S
C1244 C1245 1.382 . S
C1244 C1248 1.393 . S
C1244 C1251 1.500 . S
C1245 C1244 1.382 . S
C1245 C1246 1.400 . S
C1245 H1256 0.930 . S
C1246 C1245 1.400 . S
C1246 C1247 1.384 . S
C1247 C1246 1.384 . S
C1247 C1249 1.392 . S
C1247 H1257 0.931 . S
C1248 C1244 1.393 . S
C1248 C1249 1.401 . S
C1248 H1258 0.930 . S
C1249 C1247 1.392 . S
C1249 C1248 1.401 . S
C1249 H1259 0.930 . S
C1250 O1228 1.262 . S
C1250 O1229 1.260 . S
C1251 Tb1187 2.833 1_554 S
C1251 O1226 1.251 1_554 S
C1251 O1231 1.256 . S
C1251 C1244 1.500 . S
H1252 C1235 0.930 . S
H1253 C1236 0.931 . S
H1254 C1237 0.930 . S
H1255 C1238 0.930 . S
H1256 C1245 0.930 . S
H1257 C1247 0.931 . S
H1258 C1248 0.930 . S
H1259 C1249 0.930 . S
Tb1260 N1291 2.660 . S
Tb1260 N1298 2.600 . S
Tb1260 O1304 2.546 . S
Tb1260 O1305 2.610 . S
Tb1260 O1307 2.320 . S
Tb1260 O1308 2.552 . S
Tb1260 O1309 2.413 . S
Tb1260 O1311 2.362 . S
Tb1260 O1312 2.421 . S
Tb1260 C1324 2.833 . S
C1261 C1264 1.432 . S
C1261 C1265 1.414 . S
C1261 N1268 1.359 . S
C1262 C1264 1.417 . S
C1262 C1266 1.432 . S
C1262 C1274 1.410 . S
C1263 C1265 1.444 . S
C1263 C1266 1.317 . S
C1263 H1286 0.929 . S
C1264 C1261 1.432 . S
C1264 C1262 1.417 . S
C1264 N1272 1.360 . S
C1265 C1261 1.414 . S
C1265 C1263 1.444 . S
C1265 C1270 1.385 . S
C1266 C1262 1.432 . S
C1266 C1263 1.317 . S
C1266 H1278 0.930 . S
C1267 C1269 1.392 . S
C1267 C1270 1.370 . S
C1267 H1279 0.931 . S
N1268 C1261 1.359 . S
N1268 C1269 1.327 . S
N1268 Tb1271 2.600 . S
C1269 C1267 1.392 . S
C1269 N1268 1.327 . S
C1269 H1276 0.930 . S
C1270 C1265 1.385 . S
C1270 C1267 1.370 . S
C1270 H1289 0.930 . S
Tb1271 N1268 2.600 . S
Tb1271 N1272 2.660 . S
Tb1271 O1305 2.362 . S
Tb1271 O1306 2.421 . S
Tb1271 O1310 2.546 . S
Tb1271 O1311 2.610 . S
Tb1271 O1313 2.320 . S
Tb1271 O1314 2.552 . S
Tb1271 O1315 2.413 . S
Tb1271 C1335 2.833 . S
N1272 C1264 1.360 . S
N1272 Tb1271 2.660 . S
N1272 C1273 1.305 . S
C1273 N1272 1.305 . S
C1273 C1275 1.407 . S
C1273 H1280 0.930 . S
C1274 C1262 1.410 . S
C1274 C1275 1.345 . S
C1274 H1282 0.930 . S
C1275 C1273 1.407 . S
C1275 C1274 1.345 . S
C1275 H1277 0.930 . S
H1276 C1269 0.930 . S
H1277 C1275 0.930 . S
H1278 C1266 0.930 . S
H1279 C1267 0.931 . S
H1280 C1273 0.930 . S
H1281 C1295 0.930 . S
H1282 C1274 0.930 . S
H1283 C1301 0.930 . S
H1284 C1292 0.930 . S
H1285 C1299 0.931 . S
H1286 C1263 0.929 . S
H1287 C1293 0.930 . S
H1288 C1326 0.930 . S
H1289 C1270 0.930 . S
H1290 C1325 0.929 . S
N1291 Tb1260 2.660 . S
N1291 C1292 1.305 . S
N1291 C1296 1.360 . S
C1292 H1284 0.930 . S
C1292 N1291 1.305 . S
C1292 C1295 1.407 . S
C1293 H1287 0.930 . S
C1293 C1294 1.410 . S
C1293 C1295 1.345 . S
C1294 C1293 1.410 . S
C1294 C1296 1.417 . S
C1294 C1326 1.432 . S
C1295 H1281 0.930 . S
C1295 C1292 1.407 . S
C1295 C1293 1.345 . S
C1296 N1291 1.360 . S
C1296 C1294 1.417 . S
C1296 C1300 1.432 . S
H1297 C1302 0.930 . S
N1298 Tb1260 2.600 . S
N1298 C1300 1.359 . S
N1298 C1301 1.327 . S
C1299 H1285 0.931 . S
C1299 C1301 1.392 . S
C1299 C1302 1.370 . S
C1300 C1296 1.432 . S
C1300 N1298 1.359 . S
C1300 C1303 1.414 . S
C1301 H1283 0.930 . S
C1301 N1298 1.327 . S
C1301 C1299 1.392 . S
C1302 H1297 0.930 . S
C1302 C1299 1.370 . S
C1302 C1303 1.385 . S
C1303 C1300 1.414 . S
C1303 C1302 1.385 . S
C1303 C1325 1.444 . S
O1304 Tb1260 2.546 . S
O1304 C1324 1.251 . S
O1305 Tb1260 2.610 . S
O1305 Tb1271 2.362 . S
O1305 C1316 1.283 . S
O1306 Tb1271 2.421 . S
O1306 C1323 1.262 . S
O1307 Tb1260 2.320 . S
O1307 C1323 1.260 . S
O1308 Tb1260 2.552 . S
O1308 C1316 1.243 . S
O1309 Tb1260 2.413 . S
O1309 C1324 1.256 . S
O1310 Tb1271 2.546 . S
O1310 C1335 1.251 . S
O1311 Tb1260 2.362 . S
O1311 Tb1271 2.610 . S
O1311 C1327 1.283 . S
O1312 Tb1260 2.421 . S
O1312 C1334 1.262 . S
O1313 Tb1271 2.320 . S
O1313 C1334 1.260 . S
O1314 Tb1271 2.552 . S
O1314 C1327 1.243 . S
O1315 Tb1271 2.413 . S
O1315 C1335 1.256 . S
C1316 O1305 1.283 . S
C1316 O1308 1.243 . S
C1317 C1319 1.382 . S
C1317 C1321 1.393 . S
C1317 C1324 1.500 . S
C1318 C1319 1.400 . S
C1318 C1320 1.384 . S
C1319 C1317 1.382 . S
C1319 C1318 1.400 . S
C1319 H1336 0.930 . S
C1320 C1318 1.384 . S
C1320 C1322 1.392 . S
C1320 H1337 0.931 . S
C1321 C1317 1.393 . S
C1321 C1322 1.401 . S
C1321 H1338 0.930 . S
C1322 C1320 1.392 . S
C1322 C1321 1.401 . S
C1322 H1339 0.930 . S
C1323 O1306 1.262 . S
C1323 O1307 1.260 . S
C1324 Tb1260 2.833 . S
C1324 O1304 1.251 . S
C1324 O1309 1.256 . S
C1324 C1317 1.500 . S
C1325 H1290 0.929 . S
C1325 C1303 1.444 . S
C1325 C1326 1.317 . S
C1326 H1288 0.930 . S
C1326 C1294 1.432 . S
C1326 C1325 1.317 . S
C1327 O1311 1.283 . S
C1327 O1314 1.243 . S
C1328 C1329 1.382 . S
C1328 C1332 1.393 . S
C1328 C1335 1.500 . S
C1329 C1328 1.382 . S
C1329 C1330 1.400 . S
C1329 H1340 0.930 . S
C1330 C1329 1.400 . S
C1330 C1331 1.384 . S
C1331 C1330 1.384 . S
C1331 C1333 1.392 . S
C1331 H1341 0.931 . S
C1332 C1328 1.393 . S
C1332 C1333 1.401 . S
C1332 H1342 0.930 . S
C1333 C1331 1.392 . S
C1333 C1332 1.401 . S
C1333 H1343 0.930 . S
C1334 O1312 1.262 . S
C1334 O1313 1.260 . S
C1335 Tb1271 2.833 . S
C1335 O1310 1.251 . S
C1335 O1315 1.256 . S
C1335 C1328 1.500 . S
H1336 C1319 0.930 . S
H1337 C1320 0.931 . S
H1338 C1321 0.930 . S
H1339 C1322 0.930 . S
H1340 C1329 0.930 . S
H1341 C1331 0.931 . S
H1342 C1332 0.930 . S
H1343 C1333 0.930 . S
C1344 C1345 1.349 . S
C1344 C1346 1.327 . S
C1344 H1369 0.950 . S
C1345 C1344 1.349 . S
C1345 C1361 1.349 . S
C1346 C1344 1.327 . S
C1346 C1365 1.429 . S
C1346 H1370 0.950 . S
C1347 C1364 1.574 . S
C1347 C1366 1.368 . S
C1347 H1371 0.949 . S
H1348 C1352 0.949 . S
C1349 C1350 1.349 . S
C1349 C1351 1.327 . S
C1349 H1372 0.950 . S
C1350 C1349 1.349 . S
C1350 C1362 1.349 . S
C1351 C1349 1.327 . S
C1351 C1367 1.429 . S
C1351 H1373 0.950 . S
C1352 H1348 0.949 . S
C1352 C1360 1.574 . S
C1352 C1368 1.368 . S
H1353 C1361 0.950 . S
H1354 C1359 0.950 . S
H1355 C1360 0.949 . S
H1356 C1362 0.950 . S
H1357 C1363 0.950 . S
H1358 C1364 0.949 . S
C1359 H1354 0.950 . S
C1359 C1361 1.327 . S
C1359 C1365 1.429 . S
C1360 C1352 1.574 . S
C1360 H1355 0.949 . S
C1360 C1366 1.368 . S
C1361 C1345 1.349 . S
C1361 H1353 0.950 . S
C1361 C1359 1.327 . S
C1362 C1350 1.349 . S
C1362 H1356 0.950 . S
C1362 C1363 1.327 . S
C1363 H1357 0.950 . S
C1363 C1362 1.327 . S
C1363 C1367 1.429 . S
C1364 C1347 1.574 . S
C1364 H1358 0.949 . S
C1364 C1368 1.368 . S
C1365 C1346 1.429 . S
C1365 C1359 1.429 . S
C1365 C1366 1.523 . S
C1366 C1347 1.368 . S
C1366 C1360 1.368 . S
C1366 C1365 1.523 . S
C1367 C1351 1.429 . S
C1367 C1363 1.429 . S
C1367 C1368 1.523 . S
C1368 C1352 1.368 . S
C1368 C1364 1.368 . S
C1368 C1367 1.523 . S
H1369 C1344 0.950 . S
H1370 C1346 0.950 . S
H1371 C1347 0.949 . S
H1372 C1349 0.950 . S
H1373 C1351 0.950 . S
C1374 C1375 1.349 . S
C1374 C1376 1.327 . S
C1374 H1399 0.950 . S
C1375 C1374 1.349 . S
C1375 C1391 1.349 . S
C1376 C1374 1.327 . S
C1376 C1395 1.429 . S
C1376 H1400 0.950 . S
C1377 C1394 1.574 . S
C1377 C1396 1.368 . S
C1377 H1401 0.949 . S
H1378 C1382 0.949 . S
C1379 C1380 1.349 . S
C1379 C1381 1.327 . S
C1379 H1402 0.950 . S
C1380 C1379 1.349 . S
C1380 C1392 1.349 . S
C1381 C1379 1.327 . S
C1381 C1397 1.429 . S
C1381 H1403 0.950 . S
C1382 H1378 0.949 . S
C1382 C1390 1.574 . S
C1382 C1398 1.368 . S
H1383 C1391 0.950 . S
H1384 C1389 0.950 . S
H1385 C1390 0.949 . S
H1386 C1392 0.950 . S
H1387 C1393 0.950 . S
H1388 C1394 0.949 . S
C1389 H1384 0.950 . S
C1389 C1391 1.327 . S
C1389 C1395 1.429 . S
C1390 C1382 1.574 . S
C1390 H1385 0.949 . S
C1390 C1396 1.368 . S
C1391 C1375 1.349 . S
C1391 H1383 0.950 . S
C1391 C1389 1.327 . S
C1392 C1380 1.349 . S
C1392 H1386 0.950 . S
C1392 C1393 1.327 . S
C1393 H1387 0.950 . S
C1393 C1392 1.327 . S
C1393 C1397 1.429 . S
C1394 C1377 1.574 . S
C1394 H1388 0.949 . S
C1394 C1398 1.368 . S
C1395 C1376 1.429 . S
C1395 C1389 1.429 . S
C1395 C1396 1.523 . S
C1396 C1377 1.368 . S
C1396 C1390 1.368 . S
C1396 C1395 1.523 . S
C1397 C1381 1.429 . S
C1397 C1393 1.429 . S
C1397 C1398 1.523 . S
C1398 C1382 1.368 . S
C1398 C1394 1.368 . S
C1398 C1397 1.523 . S
H1399 C1374 0.950 . S
H1400 C1376 0.950 . S
H1401 C1377 0.949 . S
H1402 C1379 0.950 . S
H1403 C1381 0.950 . S
C1404 C1405 1.349 . S
C1404 C1406 1.327 . S
C1404 H1429 0.950 . S
C1405 C1404 1.349 . S
C1405 C1421 1.349 . S
C1406 C1404 1.327 . S
C1406 C1425 1.429 . S
C1406 H1430 0.950 . S
C1407 C1424 1.574 1_455 S
C1407 C1426 1.368 . S
C1407 H1431 0.949 . S
H1408 C1412 0.949 . S
C1409 C1410 1.349 . S
C1409 C1411 1.327 . S
C1409 H1432 0.950 . S
C1410 C1409 1.349 . S
C1410 C1422 1.349 . S
C1411 C1409 1.327 . S
C1411 C1427 1.429 . S
C1411 H1433 0.950 . S
C1412 H1408 0.949 . S
C1412 C1420 1.574 1_655 S
C1412 C1428 1.368 . S
H1413 C1421 0.950 . S
H1414 C1419 0.950 . S
H1415 C1420 0.949 . S
H1416 C1422 0.950 . S
H1417 C1423 0.950 . S
H1418 C1424 0.949 . S
C1419 H1414 0.950 . S
C1419 C1421 1.327 . S
C1419 C1425 1.429 . S
C1420 C1412 1.574 1_455 S
C1420 H1415 0.949 . S
C1420 C1426 1.368 . S
C1421 C1405 1.349 . S
C1421 H1413 0.950 . S
C1421 C1419 1.327 . S
C1422 C1410 1.349 . S
C1422 H1416 0.950 . S
C1422 C1423 1.327 . S
C1423 H1417 0.950 . S
C1423 C1422 1.327 . S
C1423 C1427 1.429 . S
C1424 C1407 1.574 1_655 S
C1424 H1418 0.949 . S
C1424 C1428 1.368 . S
C1425 C1406 1.429 . S
C1425 C1419 1.429 . S
C1425 C1426 1.523 . S
C1426 C1407 1.368 . S
C1426 C1420 1.368 . S
C1426 C1425 1.523 . S
C1427 C1411 1.429 . S
C1427 C1423 1.429 . S
C1427 C1428 1.523 . S
C1428 C1412 1.368 . S
C1428 C1424 1.368 . S
C1428 C1427 1.523 . S
H1429 C1404 0.950 . S
H1430 C1406 0.950 . S
H1431 C1407 0.949 . S
H1432 C1409 0.950 . S
H1433 C1411 0.950 . S
C1434 C1435 1.349 . S
C1434 C1436 1.327 . S
C1434 H1459 0.950 . S
C1435 C1434 1.349 . S
C1435 C1451 1.349 . S
C1436 C1434 1.327 . S
C1436 C1455 1.429 . S
C1436 H1460 0.950 . S
C1437 C1454 1.574 . S
C1437 C1456 1.368 1_455 S
C1437 H1461 0.949 . S
H1438 C1442 0.949 . S
C1439 C1440 1.349 . S
C1439 C1441 1.327 . S
C1439 H1462 0.950 . S
C1440 C1439 1.349 . S
C1440 C1452 1.349 . S
C1441 C1439 1.327 . S
C1441 C1457 1.429 . S
C1441 H1463 0.950 . S
C1442 H1438 0.949 . S
C1442 C1450 1.574 . S
C1442 C1458 1.368 1_655 S
H1443 C1451 0.950 . S
H1444 C1449 0.950 . S
H1445 C1450 0.949 . S
H1446 C1452 0.950 . S
H1447 C1453 0.950 . S
H1448 C1454 0.949 . S
C1449 H1444 0.950 . S
C1449 C1451 1.327 . S
C1449 C1455 1.429 . S
C1450 C1442 1.574 . S
C1450 H1445 0.949 . S
C1450 C1456 1.368 . S
C1451 C1435 1.349 . S
C1451 H1443 0.950 . S
C1451 C1449 1.327 . S
C1452 C1440 1.349 . S
C1452 H1446 0.950 . S
C1452 C1453 1.327 . S
C1453 H1447 0.950 . S
C1453 C1452 1.327 . S
C1453 C1457 1.429 . S
C1454 C1437 1.574 . S
C1454 H1448 0.949 . S
C1454 C1458 1.368 . S
C1455 C1436 1.429 . S
C1455 C1449 1.429 . S
C1455 C1456 1.523 . S
C1456 C1437 1.368 1_655 S
C1456 C1450 1.368 . S
C1456 C1455 1.523 . S
C1457 C1441 1.429 . S
C1457 C1453 1.429 . S
C1457 C1458 1.523 . S
C1458 C1442 1.368 1_455 S
C1458 C1454 1.368 . S
C1458 C1457 1.523 . S
H1459 C1434 0.950 . S
H1460 C1436 0.950 . S
H1461 C1437 0.949 . S
H1462 C1439 0.950 . S
H1463 C1441 0.950 . S
C1464 C1465 1.349 . S
C1464 C1466 1.327 . S
C1464 H1489 0.950 . S
C1465 C1464 1.349 . S
C1465 C1481 1.349 . S
C1466 C1464 1.327 . S
C1466 C1485 1.429 . S
C1466 H1490 0.950 . S
C1467 C1484 1.574 . S
C1467 C1486 1.368 . S
C1467 H1491 0.949 . S
H1468 C1472 0.949 . S
C1469 C1470 1.349 . S
C1469 C1471 1.327 . S
C1469 H1492 0.950 . S
C1470 C1469 1.349 . S
C1470 C1482 1.349 . S
C1471 C1469 1.327 . S
C1471 C1487 1.429 . S
C1471 H1493 0.950 . S
C1472 H1468 0.949 . S
C1472 C1480 1.574 . S
C1472 C1488 1.368 . S
H1473 C1481 0.950 . S
H1474 C1479 0.950 . S
H1475 C1480 0.949 . S
H1476 C1482 0.950 . S
H1477 C1483 0.950 . S
H1478 C1484 0.949 . S
C1479 H1474 0.950 . S
C1479 C1481 1.327 . S
C1479 C1485 1.429 . S
C1480 C1472 1.574 . S
C1480 H1475 0.949 . S
C1480 C1486 1.368 . S
C1481 C1465 1.349 . S
C1481 H1473 0.950 . S
C1481 C1479 1.327 . S
C1482 C1470 1.349 . S
C1482 H1476 0.950 . S
C1482 C1483 1.327 . S
C1483 H1477 0.950 . S
C1483 C1482 1.327 . S
C1483 C1487 1.429 . S
C1484 C1467 1.574 . S
C1484 H1478 0.949 . S
C1484 C1488 1.368 . S
C1485 C1466 1.429 . S
C1485 C1479 1.429 . S
C1485 C1486 1.523 . S
C1486 C1467 1.368 . S
C1486 C1480 1.368 . S
C1486 C1485 1.523 . S
C1487 C1471 1.429 . S
C1487 C1483 1.429 . S
C1487 C1488 1.523 . S
C1488 C1472 1.368 . S
C1488 C1484 1.368 . S
C1488 C1487 1.523 . S
H1489 C1464 0.950 . S
H1490 C1466 0.950 . S
H1491 C1467 0.949 . S
H1492 C1469 0.950 . S
H1493 C1471 0.950 . S
C1494 C1495 1.349 . S
C1494 C1496 1.327 . S
C1494 H1519 0.950 . S
C1495 C1494 1.349 . S
C1495 C1511 1.349 . S
C1496 C1494 1.327 . S
C1496 C1515 1.429 . S
C1496 H1520 0.950 . S
C1497 C1514 1.574 . S
C1497 C1516 1.368 . S
C1497 H1521 0.949 . S
H1498 C1502 0.949 . S
C1499 C1500 1.349 . S
C1499 C1501 1.327 . S
C1499 H1522 0.950 . S
C1500 C1499 1.349 . S
C1500 C1512 1.349 . S
C1501 C1499 1.327 . S
C1501 C1517 1.429 . S
C1501 H1523 0.950 . S
C1502 H1498 0.949 . S
C1502 C1510 1.574 . S
C1502 C1518 1.368 . S
H1503 C1511 0.950 . S
H1504 C1509 0.950 . S
H1505 C1510 0.949 . S
H1506 C1512 0.950 . S
H1507 C1513 0.950 . S
H1508 C1514 0.949 . S
C1509 H1504 0.950 . S
C1509 C1511 1.327 . S
C1509 C1515 1.429 . S
C1510 C1502 1.574 . S
C1510 H1505 0.949 . S
C1510 C1516 1.368 . S
C1511 C1495 1.349 . S
C1511 H1503 0.950 . S
C1511 C1509 1.327 . S
C1512 C1500 1.349 . S
C1512 H1506 0.950 . S
C1512 C1513 1.327 . S
C1513 H1507 0.950 . S
C1513 C1512 1.327 . S
C1513 C1517 1.429 . S
C1514 C1497 1.574 . S
C1514 H1508 0.949 . S
C1514 C1518 1.368 . S
C1515 C1496 1.429 . S
C1515 C1509 1.429 . S
C1515 C1516 1.523 . S
C1516 C1497 1.368 . S
C1516 C1510 1.368 . S
C1516 C1515 1.523 . S
C1517 C1501 1.429 . S
C1517 C1513 1.429 . S
C1517 C1518 1.523 . S
C1518 C1502 1.368 . S
C1518 C1514 1.368 . S
C1518 C1517 1.523 . S
H1519 C1494 0.950 . S
H1520 C1496 0.950 . S
H1521 C1497 0.949 . S
H1522 C1499 0.950 . S
H1523 C1501 0.950 . S
C1524 C1525 1.349 . S
C1524 C1526 1.327 . S
C1524 H1549 0.950 . S
C1525 C1524 1.349 . S
C1525 C1541 1.349 . S
C1526 C1524 1.327 . S
C1526 C1545 1.429 . S
C1526 H1550 0.950 . S
C1527 C1544 1.574 1_655 S
C1527 C1546 1.368 . S
C1527 H1551 0.949 . S
H1528 C1532 0.949 . S
C1529 C1530 1.349 . S
C1529 C1531 1.327 . S
C1529 H1552 0.950 . S
C1530 C1529 1.349 . S
C1530 C1542 1.349 . S
C1531 C1529 1.327 . S
C1531 C1547 1.429 . S
C1531 H1553 0.950 . S
C1532 H1528 0.949 . S
C1532 C1540 1.574 1_455 S
C1532 C1548 1.368 . S
H1533 C1541 0.950 . S
H1534 C1539 0.950 . S
H1535 C1540 0.949 . S
H1536 C1542 0.950 . S
H1537 C1543 0.950 . S
H1538 C1544 0.949 . S
C1539 H1534 0.950 . S
C1539 C1541 1.327 . S
C1539 C1545 1.429 . S
C1540 C1532 1.574 1_655 S
C1540 H1535 0.949 . S
C1540 C1546 1.368 . S
C1541 C1525 1.349 . S
C1541 H1533 0.950 . S
C1541 C1539 1.327 . S
C1542 C1530 1.349 . S
C1542 H1536 0.950 . S
C1542 C1543 1.327 . S
C1543 H1537 0.950 . S
C1543 C1542 1.327 . S
C1543 C1547 1.429 . S
C1544 C1527 1.574 1_455 S
C1544 H1538 0.949 . S
C1544 C1548 1.368 . S
C1545 C1526 1.429 . S
C1545 C1539 1.429 . S
C1545 C1546 1.523 . S
C1546 C1527 1.368 . S
C1546 C1540 1.368 . S
C1546 C1545 1.523 . S
C1547 C1531 1.429 . S
C1547 C1543 1.429 . S
C1547 C1548 1.523 . S
C1548 C1532 1.368 . S
C1548 C1544 1.368 . S
C1548 C1547 1.523 . S
H1549 C1524 0.950 . S
H1550 C1526 0.950 . S
H1551 C1527 0.949 . S
H1552 C1529 0.950 . S
H1553 C1531 0.950 . S
C1554 C1555 1.349 . S
C1554 C1556 1.327 . S
C1554 H1579 0.950 . S
C1555 C1554 1.349 . S
C1555 C1571 1.349 . S
C1556 C1554 1.327 . S
C1556 C1575 1.429 . S
C1556 H1580 0.950 . S
C1557 C1574 1.574 . S
C1557 C1576 1.368 1_655 S
C1557 H1581 0.949 . S
H1558 C1562 0.949 . S
C1559 C1560 1.349 . S
C1559 C1561 1.327 . S
C1559 H1582 0.950 . S
C1560 C1559 1.349 . S
C1560 C1572 1.349 . S
C1561 C1559 1.327 . S
C1561 C1577 1.429 . S
C1561 H1583 0.950 . S
C1562 H1558 0.949 . S
C1562 C1570 1.574 . S
C1562 C1578 1.368 1_455 S
H1563 C1571 0.950 . S
H1564 C1569 0.950 . S
H1565 C1570 0.949 . S
H1566 C1572 0.950 . S
H1567 C1573 0.950 . S
H1568 C1574 0.949 . S
C1569 H1564 0.950 . S
C1569 C1571 1.327 . S
C1569 C1575 1.429 . S
C1570 C1562 1.574 . S
C1570 H1565 0.949 . S
C1570 C1576 1.368 . S
C1571 C1555 1.349 . S
C1571 H1563 0.950 . S
C1571 C1569 1.327 . S
C1572 C1560 1.349 . S
C1572 H1566 0.950 . S
C1572 C1573 1.327 . S
C1573 H1567 0.950 . S
C1573 C1572 1.327 . S
C1573 C1577 1.429 . S
C1574 C1557 1.574 . S
C1574 H1568 0.949 . S
C1574 C1578 1.368 . S
C1575 C1556 1.429 . S
C1575 C1569 1.429 . S
C1575 C1576 1.523 . S
C1576 C1557 1.368 1_455 S
C1576 C1570 1.368 . S
C1576 C1575 1.523 . S
C1577 C1561 1.429 . S
C1577 C1573 1.429 . S
C1577 C1578 1.523 . S
C1578 C1562 1.368 1_655 S
C1578 C1574 1.368 . S
C1578 C1577 1.523 . S
H1579 C1554 0.950 . S
H1580 C1556 0.950 . S
H1581 C1557 0.949 . S
H1582 C1559 0.950 . S
H1583 C1561 0.950 . S
C1584 C1585 1.349 . S
C1584 C1586 1.327 . S
C1584 H1609 0.950 . S
C1585 C1584 1.349 . S
C1585 C1601 1.349 . S
C1586 C1584 1.327 . S
C1586 C1605 1.429 . S
C1586 H1610 0.950 . S
C1587 C1604 1.574 . S
C1587 C1606 1.368 . S
C1587 H1611 0.949 . S
H1588 C1592 0.949 . S
C1589 C1590 1.349 . S
C1589 C1591 1.327 1_554 S
C1589 H1612 0.950 . S
C1590 C1589 1.349 . S
C1590 C1602 1.349 1_554 S
C1591 C1589 1.327 1_556 S
C1591 C1607 1.429 . S
C1591 H1613 0.950 . S
C1592 H1588 0.949 . S
C1592 C1600 1.574 . S
C1592 C1608 1.368 . S
H1593 C1601 0.950 . S
H1594 C1599 0.950 . S
H1595 C1600 0.949 . S
H1596 C1602 0.950 . S
H1597 C1603 0.950 . S
H1598 C1604 0.949 . S
C1599 H1594 0.950 . S
C1599 C1601 1.327 . S
C1599 C1605 1.429 . S
C1600 C1592 1.574 . S
C1600 H1595 0.949 . S
C1600 C1606 1.368 . S
C1601 C1585 1.349 . S
C1601 H1593 0.950 . S
C1601 C1599 1.327 . S
C1602 C1590 1.349 1_556 S
C1602 H1596 0.950 . S
C1602 C1603 1.327 . S
C1603 H1597 0.950 . S
C1603 C1602 1.327 . S
C1603 C1607 1.429 . S
C1604 C1587 1.574 . S
C1604 H1598 0.949 . S
C1604 C1608 1.368 . S
C1605 C1586 1.429 . S
C1605 C1599 1.429 . S
C1605 C1606 1.523 . S
C1606 C1587 1.368 . S
C1606 C1600 1.368 . S
C1606 C1605 1.523 . S
C1607 C1591 1.429 . S
C1607 C1603 1.429 . S
C1607 C1608 1.523 . S
C1608 C1592 1.368 . S
C1608 C1604 1.368 . S
C1608 C1607 1.523 . S
H1609 C1584 0.950 . S
H1610 C1586 0.950 . S
H1611 C1587 0.949 . S
H1612 C1589 0.950 . S
H1613 C1591 0.950 . S
C1614 C1615 1.349 . S
C1614 C1616 1.327 . S
C1614 H1639 0.950 . S
C1615 C1614 1.349 . S
C1615 C1631 1.349 . S
C1616 C1614 1.327 . S
C1616 C1635 1.429 . S
C1616 H1640 0.950 . S
C1617 C1634 1.574 . S
C1617 C1636 1.368 . S
C1617 H1641 0.949 . S
H1618 C1622 0.949 . S
C1619 C1620 1.349 . S
C1619 C1621 1.327 . S
C1619 H1642 0.950 . S
C1620 C1619 1.349 . S
C1620 C1632 1.349 . S
C1621 C1619 1.327 . S
C1621 C1637 1.429 . S
C1621 H1643 0.950 . S
C1622 H1618 0.949 . S
C1622 C1630 1.574 . S
C1622 C1638 1.368 . S
H1623 C1631 0.950 . S
H1624 C1629 0.950 . S
H1625 C1630 0.949 . S
H1626 C1632 0.950 . S
H1627 C1633 0.950 . S
H1628 C1634 0.949 . S
C1629 H1624 0.950 . S
C1629 C1631 1.327 . S
C1629 C1635 1.429 . S
C1630 C1622 1.574 . S
C1630 H1625 0.949 . S
C1630 C1636 1.368 . S
C1631 C1615 1.349 . S
C1631 H1623 0.950 . S
C1631 C1629 1.327 . S
C1632 C1620 1.349 . S
C1632 H1626 0.950 . S
C1632 C1633 1.327 . S
C1633 H1627 0.950 . S
C1633 C1632 1.327 . S
C1633 C1637 1.429 . S
C1634 C1617 1.574 . S
C1634 H1628 0.949 . S
C1634 C1638 1.368 . S
C1635 C1616 1.429 . S
C1635 C1629 1.429 . S
C1635 C1636 1.523 . S
C1636 C1617 1.368 . S
C1636 C1630 1.368 . S
C1636 C1635 1.523 . S
C1637 C1621 1.429 . S
C1637 C1633 1.429 . S
C1637 C1638 1.523 . S
C1638 C1622 1.368 . S
C1638 C1634 1.368 . S
C1638 C1637 1.523 . S
H1639 C1614 0.950 . S
H1640 C1616 0.950 . S
H1641 C1617 0.949 . S
H1642 C1619 0.950 . S
H1643 C1621 0.950 . S
C1644 C1645 1.349 . S
C1644 C1646 1.327 . S
C1644 H1669 0.950 . S
C1645 C1644 1.349 . S
C1645 C1661 1.349 . S
C1646 C1644 1.327 . S
C1646 C1665 1.429 . S
C1646 H1670 0.950 . S
C1647 C1664 1.574 . S
C1647 C1666 1.368 . S
C1647 H1671 0.949 . S
H1648 C1652 0.949 . S
C1649 C1650 1.349 . S
C1649 C1651 1.327 . S
C1649 H1672 0.950 . S
C1650 C1649 1.349 . S
C1650 C1662 1.349 . S
C1651 C1649 1.327 . S
C1651 C1667 1.429 . S
C1651 H1673 0.950 . S
C1652 H1648 0.949 . S
C1652 C1660 1.574 . S
C1652 C1668 1.368 . S
H1653 C1661 0.950 . S
H1654 C1659 0.950 . S
H1655 C1660 0.949 . S
H1656 C1662 0.950 . S
H1657 C1663 0.950 . S
H1658 C1664 0.949 . S
C1659 H1654 0.950 . S
C1659 C1661 1.327 . S
C1659 C1665 1.429 . S
C1660 C1652 1.574 . S
C1660 H1655 0.949 . S
C1660 C1666 1.368 . S
C1661 C1645 1.349 . S
C1661 H1653 0.950 . S
C1661 C1659 1.327 . S
C1662 C1650 1.349 . S
C1662 H1656 0.950 . S
C1662 C1663 1.327 . S
C1663 H1657 0.950 . S
C1663 C1662 1.327 . S
C1663 C1667 1.429 . S
C1664 C1647 1.574 . S
C1664 H1658 0.949 . S
C1664 C1668 1.368 . S
C1665 C1646 1.429 . S
C1665 C1659 1.429 . S
C1665 C1666 1.523 . S
C1666 C1647 1.368 . S
C1666 C1660 1.368 . S
C1666 C1665 1.523 . S
C1667 C1651 1.429 . S
C1667 C1663 1.429 . S
C1667 C1668 1.523 . S
C1668 C1652 1.368 . S
C1668 C1664 1.368 . S
C1668 C1667 1.523 . S
H1669 C1644 0.950 . S
H1670 C1646 0.950 . S
H1671 C1647 0.949 . S
H1672 C1649 0.950 . S
H1673 C1651 0.950 . S
C1674 C1675 1.349 . S
C1674 C1676 1.327 . S
C1674 H1699 0.950 . S
C1675 C1674 1.349 . S
C1675 C1691 1.349 . S
C1676 C1674 1.327 . S
C1676 C1695 1.429 . S
C1676 H1700 0.950 . S
C1677 C1694 1.574 . S
C1677 C1696 1.368 . S
C1677 H1701 0.949 . S
H1678 C1682 0.949 . S
C1679 C1680 1.349 . S
C1679 C1681 1.327 . S
C1679 H1702 0.950 . S
C1680 C1679 1.349 . S
C1680 C1692 1.349 . S
C1681 C1679 1.327 . S
C1681 C1697 1.429 . S
C1681 H1703 0.950 . S
C1682 H1678 0.949 . S
C1682 C1690 1.574 . S
C1682 C1698 1.368 . S
H1683 C1691 0.950 . S
H1684 C1689 0.950 . S
H1685 C1690 0.949 . S
H1686 C1692 0.950 . S
H1687 C1693 0.950 . S
H1688 C1694 0.949 . S
C1689 H1684 0.950 . S
C1689 C1691 1.327 . S
C1689 C1695 1.429 . S
C1690 C1682 1.574 . S
C1690 H1685 0.949 . S
C1690 C1696 1.368 . S
C1691 C1675 1.349 . S
C1691 H1683 0.950 . S
C1691 C1689 1.327 . S
C1692 C1680 1.349 . S
C1692 H1686 0.950 . S
C1692 C1693 1.327 . S
C1693 H1687 0.950 . S
C1693 C1692 1.327 . S
C1693 C1697 1.429 . S
C1694 C1677 1.574 . S
C1694 H1688 0.949 . S
C1694 C1698 1.368 . S
C1695 C1676 1.429 . S
C1695 C1689 1.429 . S
C1695 C1696 1.523 . S
C1696 C1677 1.368 . S
C1696 C1690 1.368 . S
C1696 C1695 1.523 . S
C1697 C1681 1.429 . S
C1697 C1693 1.429 . S
C1697 C1698 1.523 . S
C1698 C1682 1.368 . S
C1698 C1694 1.368 . S
C1698 C1697 1.523 . S
H1699 C1674 0.950 . S
H1700 C1676 0.950 . S
H1701 C1677 0.949 . S
H1702 C1679 0.950 . S
H1703 C1681 0.950 . S
C1704 C1705 1.349 1_554 S
C1704 C1706 1.327 . S
C1704 H1729 0.950 . S
C1705 C1704 1.349 1_556 S
C1705 C1721 1.349 . S
C1706 C1704 1.327 . S
C1706 C1725 1.429 . S
C1706 H1730 0.950 . S
C1707 C1724 1.574 . S
C1707 C1726 1.368 . S
C1707 H1731 0.949 . S
H1708 C1712 0.949 . S
C1709 C1710 1.349 . S
C1709 C1711 1.327 . S
C1709 H1732 0.950 . S
C1710 C1709 1.349 . S
C1710 C1722 1.349 . S
C1711 C1709 1.327 . S
C1711 C1727 1.429 . S
C1711 H1733 0.950 . S
C1712 H1708 0.949 . S
C1712 C1720 1.574 . S
C1712 C1728 1.368 . S
H1713 C1721 0.950 . S
H1714 C1719 0.951 . S
H1715 C1720 0.949 . S
H1716 C1722 0.950 . S
H1717 C1723 0.950 . S
H1718 C1724 0.949 . S
C1719 H1714 0.951 . S
C1719 C1721 1.327 1_554 S
C1719 C1725 1.429 . S
C1720 C1712 1.574 . S
C1720 H1715 0.949 . S
C1720 C1726 1.368 . S
C1721 C1705 1.349 . S
C1721 H1713 0.950 . S
C1721 C1719 1.327 1_556 S
C1722 C1710 1.349 . S
C1722 H1716 0.950 . S
C1722 C1723 1.327 . S
C1723 H1717 0.950 . S
C1723 C1722 1.327 . S
C1723 C1727 1.429 . S
C1724 C1707 1.574 . S
C1724 H1718 0.949 . S
C1724 C1728 1.368 . S
C1725 C1706 1.429 . S
C1725 C1719 1.429 . S
C1725 C1726 1.523 . S
C1726 C1707 1.368 . S
C1726 C1720 1.368 . S
C1726 C1725 1.523 . S
C1727 C1711 1.429 . S
C1727 C1723 1.429 . S
C1727 C1728 1.523 . S
C1728 C1712 1.368 . S
C1728 C1724 1.368 . S
C1728 C1727 1.523 . S
H1729 C1704 0.950 . S
H1730 C1706 0.950 . S
H1731 C1707 0.949 . S
H1732 C1709 0.950 . S
H1733 C1711 0.950 . S
C1734 C1735 1.349 . S
C1734 C1736 1.327 . S
C1734 H1759 0.950 . S
C1735 C1734 1.349 . S
C1735 C1751 1.349 . S
C1736 C1734 1.327 . S
C1736 C1755 1.429 . S
C1736 H1760 0.950 . S
C1737 C1754 1.574 . S
C1737 C1756 1.368 . S
C1737 H1761 0.949 . S
H1738 C1742 0.949 . S
C1739 C1740 1.349 . S
C1739 C1741 1.327 . S
C1739 H1762 0.950 . S
C1740 C1739 1.349 . S
C1740 C1752 1.349 . S
C1741 C1739 1.327 . S
C1741 C1757 1.429 . S
C1741 H1763 0.950 . S
C1742 H1738 0.949 . S
C1742 C1750 1.574 . S
C1742 C1758 1.368 . S
H1743 C1751 0.950 . S
H1744 C1749 0.950 . S
H1745 C1750 0.949 . S
H1746 C1752 0.950 . S
H1747 C1753 0.950 . S
H1748 C1754 0.949 . S
C1749 H1744 0.950 . S
C1749 C1751 1.327 . S
C1749 C1755 1.429 . S
C1750 C1742 1.574 . S
C1750 H1745 0.949 . S
C1750 C1756 1.368 . S
C1751 C1735 1.349 . S
C1751 H1743 0.950 . S
C1751 C1749 1.327 . S
C1752 C1740 1.349 . S
C1752 H1746 0.950 . S
C1752 C1753 1.327 . S
C1753 H1747 0.950 . S
C1753 C1752 1.327 . S
C1753 C1757 1.429 . S
C1754 C1737 1.574 . S
C1754 H1748 0.949 . S
C1754 C1758 1.368 . S
C1755 C1736 1.429 . S
C1755 C1749 1.429 . S
C1755 C1756 1.523 . S
C1756 C1737 1.368 . S
C1756 C1750 1.368 . S
C1756 C1755 1.523 . S
C1757 C1741 1.429 . S
C1757 C1753 1.429 . S
C1757 C1758 1.523 . S
C1758 C1742 1.368 . S
C1758 C1754 1.368 . S
C1758 C1757 1.523 . S
H1759 C1734 0.950 . S
H1760 C1736 0.950 . S
H1761 C1737 0.949 . S
H1762 C1739 0.950 . S
H1763 C1741 0.950 . S
C1764 C1765 1.349 . S
C1764 C1766 1.327 . S
C1764 H1789 0.950 . S
C1765 C1764 1.349 . S
C1765 C1781 1.349 . S
C1766 C1764 1.327 . S
C1766 C1785 1.429 . S
C1766 H1790 0.950 . S
C1767 C1784 1.574 . S
C1767 C1786 1.368 . S
C1767 H1791 0.949 . S
H1768 C1772 0.949 . S
C1769 C1770 1.349 . S
C1769 C1771 1.327 . S
C1769 H1792 0.950 . S
C1770 C1769 1.349 . S
C1770 C1782 1.349 . S
C1771 C1769 1.327 . S
C1771 C1787 1.429 . S
C1771 H1793 0.950 . S
C1772 H1768 0.949 . S
C1772 C1780 1.574 . S
C1772 C1788 1.368 . S
H1773 C1781 0.950 . S
H1774 C1779 0.950 . S
H1775 C1780 0.949 . S
H1776 C1782 0.950 . S
H1777 C1783 0.950 . S
H1778 C1784 0.949 . S
C1779 H1774 0.950 . S
C1779 C1781 1.327 . S
C1779 C1785 1.429 . S
C1780 C1772 1.574 . S
C1780 H1775 0.949 . S
C1780 C1786 1.368 . S
C1781 C1765 1.349 . S
C1781 H1773 0.950 . S
C1781 C1779 1.327 . S
C1782 C1770 1.349 . S
C1782 H1776 0.950 . S
C1782 C1783 1.327 . S
C1783 H1777 0.950 . S
C1783 C1782 1.327 . S
C1783 C1787 1.429 . S
C1784 C1767 1.574 . S
C1784 H1778 0.949 . S
C1784 C1788 1.368 . S
C1785 C1766 1.429 . S
C1785 C1779 1.429 . S
C1785 C1786 1.523 . S
C1786 C1767 1.368 . S
C1786 C1780 1.368 . S
C1786 C1785 1.523 . S
C1787 C1771 1.429 . S
C1787 C1783 1.429 . S
C1787 C1788 1.523 . S
C1788 C1772 1.368 . S
C1788 C1784 1.368 . S
C1788 C1787 1.523 . S
H1789 C1764 0.950 . S
H1790 C1766 0.950 . S
H1791 C1767 0.949 . S
H1792 C1769 0.950 . S
H1793 C1771 0.950 . S
C1794 C1795 1.349 . S
C1794 C1796 1.327 . S
C1794 H1819 0.950 . S
C1795 C1794 1.349 . S
C1795 C1811 1.349 . S
C1796 C1794 1.327 . S
C1796 C1815 1.429 . S
C1796 H1820 0.950 . S
C1797 C1814 1.574 . S
C1797 C1816 1.368 . S
C1797 H1821 0.949 . S
H1798 C1802 0.949 . S
C1799 C1800 1.349 . S
C1799 C1801 1.327 . S
C1799 H1822 0.950 . S
C1800 C1799 1.349 . S
C1800 C1812 1.349 . S
C1801 C1799 1.327 . S
C1801 C1817 1.429 . S
C1801 H1823 0.950 . S
C1802 H1798 0.949 . S
C1802 C1810 1.574 . S
C1802 C1818 1.368 . S
H1803 C1811 0.950 . S
H1804 C1809 0.950 . S
H1805 C1810 0.949 . S
H1806 C1812 0.950 . S
H1807 C1813 0.950 . S
H1808 C1814 0.949 . S
C1809 H1804 0.950 . S
C1809 C1811 1.327 . S
C1809 C1815 1.429 . S
C1810 C1802 1.574 . S
C1810 H1805 0.949 . S
C1810 C1816 1.368 . S
C1811 C1795 1.349 . S
C1811 H1803 0.950 . S
C1811 C1809 1.327 . S
C1812 C1800 1.349 . S
C1812 H1806 0.950 . S
C1812 C1813 1.327 . S
C1813 H1807 0.950 . S
C1813 C1812 1.327 . S
C1813 C1817 1.429 . S
C1814 C1797 1.574 . S
C1814 H1808 0.949 . S
C1814 C1818 1.368 . S
C1815 C1796 1.429 . S
C1815 C1809 1.429 . S
C1815 C1816 1.523 . S
C1816 C1797 1.368 . S
C1816 C1810 1.368 . S
C1816 C1815 1.523 . S
C1817 C1801 1.429 . S
C1817 C1813 1.429 . S
C1817 C1818 1.523 . S
C1818 C1802 1.368 . S
C1818 C1814 1.368 . S
C1818 C1817 1.523 . S
H1819 C1794 0.950 . S
H1820 C1796 0.950 . S
H1821 C1797 0.949 . S
H1822 C1799 0.950 . S
H1823 C1801 0.950 . S
C1824 C1825 1.349 . S
C1824 C1826 1.327 . S
C1824 H1849 0.950 . S
C1825 C1824 1.349 . S
C1825 C1841 1.349 . S
C1826 C1824 1.327 . S
C1826 C1845 1.429 . S
C1826 H1850 0.950 . S
C1827 C1844 1.574 . S
C1827 C1846 1.368 . S
C1827 H1851 0.949 . S
H1828 C1832 0.949 . S
C1829 C1830 1.349 . S
C1829 C1831 1.327 . S
C1829 H1852 0.950 . S
C1830 C1829 1.349 . S
C1830 C1842 1.349 . S
C1831 C1829 1.327 . S
C1831 C1847 1.429 . S
C1831 H1853 0.950 . S
C1832 H1828 0.949 . S
C1832 C1840 1.574 . S
C1832 C1848 1.368 . S
H1833 C1841 0.950 . S
H1834 C1839 0.950 . S
H1835 C1840 0.949 . S
H1836 C1842 0.950 . S
H1837 C1843 0.950 . S
H1838 C1844 0.949 . S
C1839 H1834 0.950 . S
C1839 C1841 1.327 . S
C1839 C1845 1.429 . S
C1840 C1832 1.574 . S
C1840 H1835 0.949 . S
C1840 C1846 1.368 . S
C1841 C1825 1.349 . S
C1841 H1833 0.950 . S
C1841 C1839 1.327 . S
C1842 C1830 1.349 . S
C1842 H1836 0.950 . S
C1842 C1843 1.327 . S
C1843 H1837 0.950 . S
C1843 C1842 1.327 . S
C1843 C1847 1.429 . S
C1844 C1827 1.574 . S
C1844 H1838 0.949 . S
C1844 C1848 1.368 . S
C1845 C1826 1.429 . S
C1845 C1839 1.429 . S
C1845 C1846 1.523 . S
C1846 C1827 1.368 . S
C1846 C1840 1.368 . S
C1846 C1845 1.523 . S
C1847 C1831 1.429 . S
C1847 C1843 1.429 . S
C1847 C1848 1.523 . S
C1848 C1832 1.368 . S
C1848 C1844 1.368 . S
C1848 C1847 1.523 . S
H1849 C1824 0.950 . S
H1850 C1826 0.950 . S
H1851 C1827 0.949 . S
H1852 C1829 0.950 . S
H1853 C1831 0.950 . S
C1854 C1855 1.349 . S
C1854 C1856 1.327 . S
C1854 H1879 0.950 . S
C1855 C1854 1.349 . S
C1855 C1871 1.349 . S
C1856 C1854 1.327 . S
C1856 C1875 1.429 . S
C1856 H1880 0.950 . S
C1857 C1874 1.574 . S
C1857 C1876 1.368 . S
C1857 H1881 0.949 . S
H1858 C1862 0.949 . S
C1859 C1860 1.349 . S
C1859 C1861 1.327 . S
C1859 H1882 0.950 . S
C1860 C1859 1.349 . S
C1860 C1872 1.349 . S
C1861 C1859 1.327 . S
C1861 C1877 1.429 . S
C1861 H1883 0.950 . S
C1862 H1858 0.949 . S
C1862 C1870 1.574 . S
C1862 C1878 1.368 . S
H1863 C1871 0.950 . S
H1864 C1869 0.950 . S
H1865 C1870 0.949 . S
H1866 C1872 0.950 . S
H1867 C1873 0.950 . S
H1868 C1874 0.949 . S
C1869 H1864 0.950 . S
C1869 C1871 1.327 . S
C1869 C1875 1.429 . S
C1870 C1862 1.574 . S
C1870 H1865 0.949 . S
C1870 C1876 1.368 . S
C1871 C1855 1.349 . S
C1871 H1863 0.950 . S
C1871 C1869 1.327 . S
C1872 C1860 1.349 . S
C1872 H1866 0.950 . S
C1872 C1873 1.327 . S
C1873 H1867 0.950 . S
C1873 C1872 1.327 . S
C1873 C1877 1.429 . S
C1874 C1857 1.574 . S
C1874 H1868 0.949 . S
C1874 C1878 1.368 . S
C1875 C1856 1.429 . S
C1875 C1869 1.429 . S
C1875 C1876 1.523 1_545 S
C1876 C1857 1.368 . S
C1876 C1870 1.368 . S
C1876 C1875 1.523 1_565 S
C1877 C1861 1.429 . S
C1877 C1873 1.429 . S
C1877 C1878 1.523 . S
C1878 C1862 1.368 . S
C1878 C1874 1.368 . S
C1878 C1877 1.523 . S
H1879 C1854 0.950 . S
H1880 C1856 0.950 . S
H1881 C1857 0.949 . S
H1882 C1859 0.950 . S
H1883 C1861 0.950 . S
C1884 C1885 1.349 1_556 S
C1884 C1886 1.327 . S
C1884 H1909 0.950 . S
C1885 C1884 1.349 1_554 S
C1885 C1901 1.349 . S
C1886 C1884 1.327 . S
C1886 C1905 1.429 . S
C1886 H1910 0.950 . S
C1887 C1904 1.574 . S
C1887 C1906 1.368 . S
C1887 H1911 0.949 . S
H1888 C1892 0.949 . S
C1889 C1890 1.349 . S
C1889 C1891 1.327 . S
C1889 H1912 0.950 . S
C1890 C1889 1.349 . S
C1890 C1902 1.349 . S
C1891 C1889 1.327 . S
C1891 C1907 1.429 . S
C1891 H1913 0.950 . S
C1892 H1888 0.949 . S
C1892 C1900 1.574 . S
C1892 C1908 1.368 . S
H1893 C1901 0.950 . S
H1894 C1899 0.950 . S
H1895 C1900 0.949 . S
H1896 C1902 0.950 . S
H1897 C1903 0.950 . S
H1898 C1904 0.949 . S
C1899 H1894 0.950 . S
C1899 C1901 1.327 1_556 S
C1899 C1905 1.429 . S
C1900 C1892 1.574 . S
C1900 H1895 0.949 . S
C1900 C1906 1.368 . S
C1901 C1885 1.349 . S
C1901 H1893 0.950 . S
C1901 C1899 1.327 1_554 S
C1902 C1890 1.349 . S
C1902 H1896 0.950 . S
C1902 C1903 1.327 . S
C1903 H1897 0.950 . S
C1903 C1902 1.327 . S
C1903 C1907 1.429 . S
C1904 C1887 1.574 . S
C1904 H1898 0.949 . S
C1904 C1908 1.368 . S
C1905 C1886 1.429 . S
C1905 C1899 1.429 . S
C1905 C1906 1.523 . S
C1906 C1887 1.368 . S
C1906 C1900 1.368 . S
C1906 C1905 1.523 . S
C1907 C1891 1.429 . S
C1907 C1903 1.429 . S
C1907 C1908 1.523 . S
C1908 C1892 1.368 . S
C1908 C1904 1.368 . S
C1908 C1907 1.523 . S
H1909 C1884 0.950 . S
H1910 C1886 0.950 . S
H1911 C1887 0.949 . S
H1912 C1889 0.950 . S
H1913 C1891 0.950 . S
C1914 C1915 1.349 . S
C1914 C1916 1.327 . S
C1914 H1939 0.950 . S
C1915 C1914 1.349 . S
C1915 C1931 1.349 . S
C1916 C1914 1.327 . S
C1916 C1935 1.429 . S
C1916 H1940 0.950 . S
C1917 C1934 1.574 . S
C1917 C1936 1.368 . S
C1917 H1941 0.949 . S
H1918 C1922 0.949 . S
C1919 C1920 1.349 . S
C1919 C1921 1.327 . S
C1919 H1942 0.950 . S
C1920 C1919 1.349 . S
C1920 C1932 1.349 . S
C1921 C1919 1.327 . S
C1921 C1937 1.429 . S
C1921 H1943 0.950 . S
C1922 H1918 0.949 . S
C1922 C1930 1.574 . S
C1922 C1938 1.368 . S
H1923 C1931 0.950 . S
H1924 C1929 0.950 1_545 S
H1925 C1930 0.949 1_565 S
H1926 C1932 0.950 . S
H1927 C1933 0.950 . S
H1928 C1934 0.949 . S
C1929 H1924 0.950 1_565 S
C1929 C1931 1.327 . S
C1929 C1935 1.429 . S
C1930 C1922 1.574 . S
C1930 H1925 0.949 1_545 S
C1930 C1936 1.368 . S
C1931 C1915 1.349 . S
C1931 H1923 0.950 . S
C1931 C1929 1.327 . S
C1932 C1920 1.349 . S
C1932 H1926 0.950 . S
C1932 C1933 1.327 . S
C1933 H1927 0.950 . S
C1933 C1932 1.327 . S
C1933 C1937 1.429 . S
C1934 C1917 1.574 . S
C1934 H1928 0.949 . S
C1934 C1938 1.368 . S
C1935 C1916 1.429 . S
C1935 C1929 1.429 . S
C1935 C1936 1.523 1_565 S
C1936 C1917 1.368 . S
C1936 C1930 1.368 . S
C1936 C1935 1.523 1_545 S
C1937 C1921 1.429 . S
C1937 C1933 1.429 . S
C1937 C1938 1.523 . S
C1938 C1922 1.368 . S
C1938 C1934 1.368 . S
C1938 C1937 1.523 . S
H1939 C1914 0.950 . S
H1940 C1916 0.950 . S
H1941 C1917 0.949 . S
H1942 C1919 0.950 . S
H1943 C1921 0.950 . S
C1944 C1945 1.349 . S
C1944 C1946 1.327 . S
C1944 H1969 0.950 . S
C1945 C1944 1.349 . S
C1945 C1961 1.349 . S
C1946 C1944 1.327 . S
C1946 C1965 1.429 . S
C1946 H1970 0.950 . S
C1947 C1964 1.574 . S
C1947 C1966 1.368 . S
C1947 H1971 0.949 . S
H1948 C1952 0.949 . S
C1949 C1950 1.349 . S
C1949 C1951 1.327 . S
C1949 H1972 0.950 . S
C1950 C1949 1.349 . S
C1950 C1962 1.349 . S
C1951 C1949 1.327 . S
C1951 C1967 1.429 . S
C1951 H1973 0.950 . S
C1952 H1948 0.949 . S
C1952 C1960 1.574 . S
C1952 C1968 1.368 . S
H1953 C1961 0.950 . S
H1954 C1959 0.950 . S
H1955 C1960 0.949 . S
H1956 C1962 0.950 . S
H1957 C1963 0.950 . S
H1958 C1964 0.949 . S
C1959 H1954 0.950 . S
C1959 C1961 1.327 . S
C1959 C1965 1.429 . S
C1960 C1952 1.574 . S
C1960 H1955 0.949 . S
C1960 C1966 1.368 . S
C1961 C1945 1.349 . S
C1961 H1953 0.950 . S
C1961 C1959 1.327 . S
C1962 C1950 1.349 . S
C1962 H1956 0.950 . S
C1962 C1963 1.327 . S
C1963 H1957 0.950 . S
C1963 C1962 1.327 . S
C1963 C1967 1.429 . S
C1964 C1947 1.574 . S
C1964 H1958 0.949 . S
C1964 C1968 1.368 . S
C1965 C1946 1.429 . S
C1965 C1959 1.429 . S
C1965 C1966 1.523 . S
C1966 C1947 1.368 . S
C1966 C1960 1.368 . S
C1966 C1965 1.523 . S
C1967 C1951 1.429 . S
C1967 C1963 1.429 . S
C1967 C1968 1.523 . S
C1968 C1952 1.368 . S
C1968 C1964 1.368 . S
C1968 C1967 1.523 . S
H1969 C1944 0.950 . S
H1970 C1946 0.950 . S
H1971 C1947 0.949 . S
H1972 C1949 0.950 . S
H1973 C1951 0.950 . S
C1974 C1975 1.349 . S
C1974 C1976 1.327 . S
C1974 H1999 0.950 . S
C1975 C1974 1.349 . S
C1975 C1991 1.349 . S
C1976 C1974 1.327 . S
C1976 C1995 1.429 . S
C1976 H2000 0.950 . S
C1977 C1994 1.574 . S
C1977 C1996 1.368 . S
C1977 H2001 0.949 . S
H1978 C1982 0.949 1_565 S
C1979 C1980 1.349 . S
C1979 C1981 1.327 . S
C1979 H2002 0.950 . S
C1980 C1979 1.349 . S
C1980 C1992 1.349 . S
C1981 C1979 1.327 . S
C1981 C1997 1.429 . S
C1981 H2003 0.950 1_565 S
C1982 H1978 0.949 1_545 S
C1982 C1990 1.574 . S
C1982 C1998 1.368 . S
H1983 C1991 0.950 . S
H1984 C1989 0.950 . S
H1985 C1990 0.949 . S
H1986 C1992 0.950 . S
H1987 C1993 0.950 . S
H1988 C1994 0.949 . S
C1989 H1984 0.950 . S
C1989 C1991 1.327 . S
C1989 C1995 1.429 . S
C1990 C1982 1.574 . S
C1990 H1985 0.949 . S
C1990 C1996 1.368 . S
C1991 C1975 1.349 . S
C1991 H1983 0.950 . S
C1991 C1989 1.327 . S
C1992 C1980 1.349 . S
C1992 H1986 0.950 . S
C1992 C1993 1.327 . S
C1993 H1987 0.950 . S
C1993 C1992 1.327 . S
C1993 C1997 1.429 . S
C1994 C1977 1.574 . S
C1994 H1988 0.949 . S
C1994 C1998 1.368 . S
C1995 C1976 1.429 . S
C1995 C1989 1.429 . S
C1995 C1996 1.523 . S
C1996 C1977 1.368 . S
C1996 C1990 1.368 . S
C1996 C1995 1.523 . S
C1997 C1981 1.429 . S
C1997 C1993 1.429 . S
C1997 C1998 1.523 1_565 S
C1998 C1982 1.368 . S
C1998 C1994 1.368 . S
C1998 C1997 1.523 1_545 S
H1999 C1974 0.950 . S
H2000 C1976 0.950 . S
H2001 C1977 0.949 . S
H2002 C1979 0.950 . S
H2003 C1981 0.950 1_545 S
C2004 C2005 1.349 . S
C2004 C2006 1.327 . S
C2004 H2029 0.950 . S
C2005 C2004 1.349 . S
C2005 C2021 1.349 . S
C2006 C2004 1.327 . S
C2006 C2025 1.429 . S
C2006 H2030 0.950 . S
C2007 C2024 1.574 . S
C2007 C2026 1.368 . S
C2007 H2031 0.949 . S
H2008 C2012 0.949 . S
C2009 C2010 1.349 1_554 S
C2009 C2011 1.327 . S
C2009 H2032 0.950 . S
C2010 C2009 1.349 1_556 S
C2010 C2022 1.349 . S
C2011 C2009 1.327 . S
C2011 C2027 1.429 . S
C2011 H2033 0.950 . S
C2012 H2008 0.949 . S
C2012 C2020 1.574 . S
C2012 C2028 1.368 . S
H2013 C2021 0.950 . S
H2014 C2019 0.950 . S
H2015 C2020 0.949 . S
H2016 C2022 0.950 . S
H2017 C2023 0.939 1_556 S
H2018 C2024 0.949 . S
C2019 H2014 0.950 . S
C2019 C2021 1.327 . S
C2019 C2025 1.429 . S
C2020 C2012 1.574 . S
C2020 H2015 0.949 . S
C2020 C2026 1.368 . S
C2021 C2005 1.349 . S
C2021 H2013 0.950 . S
C2021 C2019 1.327 . S
C2022 C2010 1.349 . S
C2022 H2016 0.950 . S
C2022 C2023 1.327 1_556 S
C2023 H2017 0.939 1_554 S
C2023 C2022 1.327 1_554 S
C2023 C2027 1.429 . S
C2024 C2007 1.574 . S
C2024 H2018 0.949 . S
C2024 C2028 1.368 . S
C2025 C2006 1.429 . S
C2025 C2019 1.429 . S
C2025 C2026 1.523 . S
C2026 C2007 1.368 . S
C2026 C2020 1.368 . S
C2026 C2025 1.523 . S
C2027 C2011 1.429 . S
C2027 C2023 1.429 . S
C2027 C2028 1.523 . S
C2028 C2012 1.368 . S
C2028 C2024 1.368 . S
C2028 C2027 1.523 . S
H2029 C2004 0.950 . S
H2030 C2006 0.950 . S
H2031 C2007 0.949 . S
H2032 C2009 0.950 . S
H2033 C2011 0.950 . S
C2034 C2035 1.349 . S
C2034 C2036 1.327 . S
C2034 H2059 0.950 . S
C2035 C2034 1.349 . S
C2035 C2051 1.349 . S
C2036 C2034 1.327 . S
C2036 C2055 1.429 . S
C2036 H2060 0.950 . S
C2037 C2054 1.574 . S
C2037 C2056 1.368 . S
C2037 H2061 0.929 1_565 S
H2038 C2042 0.949 . S
C2039 C2040 1.349 . S
C2039 C2041 1.327 . S
C2039 H2062 0.950 . S
C2040 C2039 1.349 . S
C2040 C2052 1.349 . S
C2041 C2039 1.327 . S
C2041 C2057 1.429 . S
C2041 H2063 0.950 . S
C2042 H2038 0.949 . S
C2042 C2050 1.574 . S
C2042 C2058 1.368 . S
H2043 C2051 0.950 . S
H2044 C2049 0.950 . S
H2045 C2050 0.949 . S
H2046 C2052 0.950 . S
H2047 C2053 0.950 . S
H2048 C2054 0.949 . S
C2049 H2044 0.950 . S
C2049 C2051 1.327 . S
C2049 C2055 1.429 . S
C2050 C2042 1.574 . S
C2050 H2045 0.949 . S
C2050 C2056 1.368 . S
C2051 C2035 1.349 . S
C2051 H2043 0.950 . S
C2051 C2049 1.327 . S
C2052 C2040 1.349 . S
C2052 H2046 0.950 . S
C2052 C2053 1.327 . S
C2053 H2047 0.950 . S
C2053 C2052 1.327 . S
C2053 C2057 1.429 . S
C2054 C2037 1.574 . S
C2054 H2048 0.949 . S
C2054 C2058 1.368 . S
C2055 C2036 1.429 . S
C2055 C2049 1.429 . S
C2055 C2056 1.523 1_545 S
C2056 C2037 1.368 . S
C2056 C2050 1.368 . S
C2056 C2055 1.523 1_565 S
C2057 C2041 1.429 . S
C2057 C2053 1.429 . S
C2057 C2058 1.523 . S
C2058 C2042 1.368 . S
C2058 C2054 1.368 . S
C2058 C2057 1.523 . S
H2059 C2034 0.950 . S
H2060 C2036 0.950 . S
H2061 C2037 0.929 1_545 S
H2062 C2039 0.950 . S
H2063 C2041 0.950 . S
C2064 C2065 1.349 . S
C2064 C2066 1.327 . S
C2064 H2089 0.950 . S
C2065 C2064 1.349 . S
C2065 C2081 1.349 . S
C2066 C2064 1.327 . S
C2066 C2085 1.429 . S
C2066 H2090 0.950 . S
C2067 C2084 1.574 . S
C2067 C2086 1.368 . S
C2067 H2091 0.949 . S
H2068 C2072 0.949 . S
C2069 C2070 1.349 . S
C2069 C2071 1.327 . S
C2069 H2092 0.950 . S
C2070 C2069 1.349 . S
C2070 C2082 1.349 . S
C2071 C2069 1.327 . S
C2071 C2087 1.429 . S
C2071 H2093 0.950 . S
C2072 H2068 0.949 . S
C2072 C2080 1.574 . S
C2072 C2088 1.368 . S
H2073 C2081 0.950 . S
H2074 C2079 0.950 . S
H2075 C2080 0.949 . S
H2076 C2082 0.950 . S
H2077 C2083 0.950 . S
H2078 C2084 0.949 . S
C2079 H2074 0.950 . S
C2079 C2081 1.327 . S
C2079 C2085 1.429 . S
C2080 C2072 1.574 . S
C2080 H2075 0.949 . S
C2080 C2086 1.368 . S
C2081 C2065 1.349 . S
C2081 H2073 0.950 . S
C2081 C2079 1.327 . S
C2082 C2070 1.349 . S
C2082 H2076 0.950 . S
C2082 C2083 1.327 . S
C2083 H2077 0.950 . S
C2083 C2082 1.327 . S
C2083 C2087 1.429 . S
C2084 C2067 1.574 . S
C2084 H2078 0.949 . S
C2084 C2088 1.368 . S
C2085 C2066 1.429 . S
C2085 C2079 1.429 . S
C2085 C2086 1.523 . S
C2086 C2067 1.368 . S
C2086 C2080 1.368 . S
C2086 C2085 1.523 . S
C2087 C2071 1.429 . S
C2087 C2083 1.429 . S
C2087 C2088 1.523 . S
C2088 C2072 1.368 . S
C2088 C2084 1.368 . S
C2088 C2087 1.523 . S
H2089 C2064 0.950 . S
H2090 C2066 0.950 . S
H2091 C2067 0.949 . S
H2092 C2069 0.950 . S
H2093 C2071 0.950 . S
C2094 C2095 1.349 . S
C2094 C2096 1.327 . S
C2094 H2119 0.950 . S
C2095 C2094 1.349 . S
C2095 C2111 1.349 . S
C2096 C2094 1.327 . S
C2096 C2115 1.429 . S
C2096 H2120 0.950 . S
C2097 C2114 1.574 . S
C2097 C2116 1.368 . S
C2097 H2121 0.949 . S
H2098 C2102 0.949 . S
C2099 C2100 1.349 1_554 S
C2099 C2101 1.327 . S
C2099 H2122 0.950 . S
C2100 C2099 1.349 1_556 S
C2100 C2112 1.349 . S
C2101 C2099 1.327 . S
C2101 C2117 1.429 . S
C2101 H2123 0.950 . S
C2102 H2098 0.949 . S
C2102 C2110 1.574 . S
C2102 C2118 1.368 . S
H2103 C2111 0.950 . S
H2104 C2109 0.950 . S
H2105 C2110 0.949 . S
H2106 C2112 0.950 . S
H2107 C2113 0.950 . S
H2108 C2114 0.949 . S
C2109 H2104 0.950 . S
C2109 C2111 1.327 . S
C2109 C2115 1.429 . S
C2110 C2102 1.574 . S
C2110 H2105 0.949 . S
C2110 C2116 1.368 . S
C2111 C2095 1.349 . S
C2111 H2103 0.950 . S
C2111 C2109 1.327 . S
C2112 C2100 1.349 . S
C2112 H2106 0.950 . S
C2112 C2113 1.327 1_556 S
C2113 H2107 0.950 . S
C2113 C2112 1.327 1_554 S
C2113 C2117 1.429 . S
C2114 C2097 1.574 . S
C2114 H2108 0.949 . S
C2114 C2118 1.368 . S
C2115 C2096 1.429 . S
C2115 C2109 1.429 . S
C2115 C2116 1.523 . S
C2116 C2097 1.368 . S
C2116 C2110 1.368 . S
C2116 C2115 1.523 . S
C2117 C2101 1.429 . S
C2117 C2113 1.429 . S
C2117 C2118 1.523 . S
C2118 C2102 1.368 . S
C2118 C2114 1.368 . S
C2118 C2117 1.523 . S
H2119 C2094 0.950 . S
H2120 C2096 0.950 . S
H2121 C2097 0.949 . S
H2122 C2099 0.950 . S
H2123 C2101 0.950 . S
C2124 C2125 1.349 . S
C2124 C2126 1.327 . S
C2124 H2149 0.950 . S
C2125 C2124 1.349 . S
C2125 C2141 1.349 . S
C2126 C2124 1.327 . S
C2126 C2145 1.429 . S
C2126 H2150 0.950 . S
C2127 C2144 1.574 1_655 S
C2127 C2146 1.368 . S
C2127 H2151 0.948 1_655 S
H2128 C2132 0.949 . S
C2129 C2130 1.349 . S
C2129 C2131 1.327 . S
C2129 H2152 0.950 . S
C2130 C2129 1.349 . S
C2130 C2142 1.349 . S
C2131 C2129 1.327 . S
C2131 C2147 1.429 . S
C2131 H2153 0.950 . S
C2132 H2128 0.949 . S
C2132 C2140 1.574 . S
C2132 C2148 1.368 1_655 S
H2133 C2141 0.950 . S
H2134 C2139 0.950 . S
H2135 C2140 0.949 . S
H2136 C2142 0.950 . S
H2137 C2143 0.950 . S
H2138 C2144 0.949 . S
C2139 H2134 0.950 . S
C2139 C2141 1.327 . S
C2139 C2145 1.429 . S
C2140 C2132 1.574 . S
C2140 H2135 0.949 . S
C2140 C2146 1.368 . S
C2141 C2125 1.349 . S
C2141 H2133 0.950 . S
C2141 C2139 1.327 . S
C2142 C2130 1.349 . S
C2142 H2136 0.950 . S
C2142 C2143 1.327 . S
C2143 H2137 0.950 . S
C2143 C2142 1.327 . S
C2143 C2147 1.429 . S
C2144 C2127 1.574 1_455 S
C2144 H2138 0.949 . S
C2144 C2148 1.368 . S
C2145 C2126 1.429 . S
C2145 C2139 1.429 . S
C2145 C2146 1.523 . S
C2146 C2127 1.368 . S
C2146 C2140 1.368 . S
C2146 C2145 1.523 . S
C2147 C2131 1.429 . S
C2147 C2143 1.429 . S
C2147 C2148 1.523 . S
C2148 C2132 1.368 1_455 S
C2148 C2144 1.368 . S
C2148 C2147 1.523 . S
H2149 C2124 0.950 . S
H2150 C2126 0.950 . S
H2151 C2127 0.948 1_455 S
H2152 C2129 0.950 . S
H2153 C2131 0.950 . S
C2154 C2155 1.349 . S
C2154 C2156 1.327 . S
C2154 H2179 0.950 . S
C2155 C2154 1.349 . S
C2155 C2171 1.349 . S
C2156 C2154 1.327 . S
C2156 C2175 1.429 . S
C2156 H2180 0.950 . S
C2157 C2174 1.574 . S
C2157 C2176 1.368 . S
C2157 H2181 0.949 . S
H2158 C2162 0.949 . S
C2159 C2160 1.349 . S
C2159 C2161 1.327 . S
C2159 H2182 0.950 . S
C2160 C2159 1.349 . S
C2160 C2172 1.349 . S
C2161 C2159 1.327 . S
C2161 C2177 1.429 . S
C2161 H2183 0.950 . S
C2162 H2158 0.949 . S
C2162 C2170 1.574 . S
C2162 C2178 1.368 . S
H2163 C2171 0.950 . S
H2164 C2169 0.950 . S
H2165 C2170 0.949 . S
H2166 C2172 0.950 . S
H2167 C2173 0.950 . S
H2168 C2174 0.949 . S
C2169 H2164 0.950 . S
C2169 C2171 1.327 . S
C2169 C2175 1.429 . S
C2170 C2162 1.574 . S
C2170 H2165 0.949 . S
C2170 C2176 1.368 . S
C2171 C2155 1.349 . S
C2171 H2163 0.950 . S
C2171 C2169 1.327 . S
C2172 C2160 1.349 . S
C2172 H2166 0.950 . S
C2172 C2173 1.327 . S
C2173 H2167 0.950 . S
C2173 C2172 1.327 . S
C2173 C2177 1.429 . S
C2174 C2157 1.574 . S
C2174 H2168 0.949 . S
C2174 C2178 1.368 . S
C2175 C2156 1.429 . S
C2175 C2169 1.429 . S
C2175 C2176 1.523 . S
C2176 C2157 1.368 . S
C2176 C2170 1.368 . S
C2176 C2175 1.523 . S
C2177 C2161 1.429 . S
C2177 C2173 1.429 . S
C2177 C2178 1.523 . S
C2178 C2162 1.368 . S
C2178 C2174 1.368 . S
C2178 C2177 1.523 . S
H2179 C2154 0.950 . S
H2180 C2156 0.950 . S
H2181 C2157 0.949 . S
H2182 C2159 0.950 . S
H2183 C2161 0.950 . S
C2184 C2185 1.349 . S
C2184 C2186 1.327 . S
C2184 H2209 0.950 . S
C2185 C2184 1.349 . S
C2185 C2201 1.349 . S
C2186 C2184 1.327 . S
C2186 C2205 1.429 . S
C2186 H2210 0.950 . S
C2187 C2204 1.574 . S
C2187 C2206 1.368 . S
C2187 H2211 0.949 . S
H2188 C2192 0.949 . S
C2189 C2190 1.349 . S
C2189 C2191 1.327 . S
C2189 H2212 0.950 . S
C2190 C2189 1.349 . S
C2190 C2202 1.349 . S
C2191 C2189 1.327 . S
C2191 C2207 1.429 . S
C2191 H2213 0.950 . S
C2192 H2188 0.949 . S
C2192 C2200 1.574 . S
C2192 C2208 1.368 . S
H2193 C2201 0.950 . S
H2194 C2199 0.950 . S
H2195 C2200 0.949 . S
H2196 C2202 0.950 . S
H2197 C2203 0.950 . S
H2198 C2204 0.949 . S
C2199 H2194 0.950 . S
C2199 C2201 1.327 . S
C2199 C2205 1.429 . S
C2200 C2192 1.574 . S
C2200 H2195 0.949 . S
C2200 C2206 1.368 . S
C2201 C2185 1.349 . S
C2201 H2193 0.950 . S
C2201 C2199 1.327 . S
C2202 C2190 1.349 . S
C2202 H2196 0.950 . S
C2202 C2203 1.327 . S
C2203 H2197 0.950 . S
C2203 C2202 1.327 . S
C2203 C2207 1.429 . S
C2204 C2187 1.574 . S
C2204 H2198 0.949 . S
C2204 C2208 1.368 . S
C2205 C2186 1.429 . S
C2205 C2199 1.429 . S
C2205 C2206 1.523 . S
C2206 C2187 1.368 . S
C2206 C2200 1.368 . S
C2206 C2205 1.523 . S
C2207 C2191 1.429 . S
C2207 C2203 1.429 . S
C2207 C2208 1.523 . S
C2208 C2192 1.368 . S
C2208 C2204 1.368 . S
C2208 C2207 1.523 . S
H2209 C2184 0.950 . S
H2210 C2186 0.950 . S
H2211 C2187 0.949 . S
H2212 C2189 0.950 . S
H2213 C2191 0.950 . S
C2214 C2215 1.349 . S
C2214 C2216 1.327 . S
C2214 H2239 0.950 . S
C2215 C2214 1.349 . S
C2215 C2231 1.349 . S
C2216 C2214 1.327 . S
C2216 C2235 1.429 . S
C2216 H2240 0.950 . S
C2217 C2234 1.574 . S
C2217 C2236 1.368 . S
C2217 H2241 0.949 . S
H2218 C2222 0.949 . S
C2219 C2220 1.349 1_556 S
C2219 C2221 1.327 . S
C2219 H2242 0.950 . S
C2220 C2219 1.349 1_554 S
C2220 C2232 1.349 . S
C2221 C2219 1.327 . S
C2221 C2237 1.429 . S
C2221 H2243 0.950 . S
C2222 H2218 0.949 . S
C2222 C2230 1.574 . S
C2222 C2238 1.368 . S
H2223 C2231 0.950 . S
H2224 C2229 0.950 . S
H2225 C2230 0.949 . S
H2226 C2232 0.950 . S
H2227 C2233 0.950 . S
H2228 C2234 0.949 . S
C2229 H2224 0.950 . S
C2229 C2231 1.327 . S
C2229 C2235 1.429 . S
C2230 C2222 1.574 . S
C2230 H2225 0.949 . S
C2230 C2236 1.368 . S
C2231 C2215 1.349 . S
C2231 H2223 0.950 . S
C2231 C2229 1.327 . S
C2232 C2220 1.349 . S
C2232 H2226 0.950 . S
C2232 C2233 1.327 1_554 S
C2233 H2227 0.950 . S
C2233 C2232 1.327 1_556 S
C2233 C2237 1.429 . S
C2234 C2217 1.574 . S
C2234 H2228 0.949 . S
C2234 C2238 1.368 . S
C2235 C2216 1.429 . S
C2235 C2229 1.429 . S
C2235 C2236 1.523 . S
C2236 C2217 1.368 . S
C2236 C2230 1.368 . S
C2236 C2235 1.523 . S
C2237 C2221 1.429 . S
C2237 C2233 1.429 . S
C2237 C2238 1.523 . S
C2238 C2222 1.368 . S
C2238 C2234 1.368 . S
C2238 C2237 1.523 . S
H2239 C2214 0.950 . S
H2240 C2216 0.950 . S
H2241 C2217 0.949 . S
H2242 C2219 0.950 . S
H2243 C2221 0.950 . S
C2244 C2245 1.349 . S
C2244 C2246 1.327 . S
C2244 H2269 0.950 . S
C2245 C2244 1.349 . S
C2245 C2261 1.349 . S
C2246 C2244 1.327 . S
C2246 C2265 1.429 . S
C2246 H2270 0.950 . S
C2247 C2264 1.574 1_455 S
C2247 C2266 1.368 . S
C2247 H2271 0.949 . S
H2248 C2252 0.964 . S
C2249 C2250 1.349 . S
C2249 C2251 1.327 . S
C2249 H2272 0.950 . S
C2250 C2249 1.349 . S
C2250 C2262 1.349 . S
C2251 C2249 1.327 . S
C2251 C2267 1.429 . S
C2251 H2273 0.950 . S
C2252 H2248 0.964 . S
C2252 C2260 1.544 1_655 S
C2252 C2268 1.385 . S
H2253 C2261 0.950 . S
H2254 C2259 0.950 . S
H2255 C2260 0.949 . S
H2256 C2262 0.950 . S
H2257 C2263 0.950 . S
H2258 C2264 0.949 . S
C2259 H2254 0.950 . S
C2259 C2261 1.327 . S
C2259 C2265 1.429 . S
C2260 C2252 1.544 1_455 S
C2260 H2255 0.949 . S
C2260 C2266 1.368 . S
C2261 C2245 1.349 . S
C2261 H2253 0.950 . S
C2261 C2259 1.327 . S
C2262 C2250 1.349 . S
C2262 H2256 0.950 . S
C2262 C2263 1.327 . S
C2263 H2257 0.950 . S
C2263 C2262 1.327 . S
C2263 C2267 1.429 . S
C2264 C2247 1.574 1_655 S
C2264 H2258 0.949 . S
C2264 C2268 1.368 . S
C2265 C2246 1.429 . S
C2265 C2259 1.429 . S
C2265 C2266 1.523 . S
C2266 C2247 1.368 . S
C2266 C2260 1.368 . S
C2266 C2265 1.523 . S
C2267 C2251 1.429 . S
C2267 C2263 1.429 . S
C2267 C2268 1.523 . S
C2268 C2252 1.385 . S
C2268 C2264 1.368 . S
C2268 C2267 1.523 . S
H2269 C2244 0.950 . S
H2270 C2246 0.950 . S
H2271 C2247 0.949 . S
H2272 C2249 0.950 . S
H2273 C2251 0.950 . S
C2274 C2275 1.349 . S
C2274 C2276 1.327 . S
C2274 H2299 0.950 . S
C2275 C2274 1.349 . S
C2275 C2291 1.349 . S
C2276 C2274 1.327 . S
C2276 C2295 1.429 . S
C2276 H2300 0.950 . S
C2277 C2294 1.574 . S
C2277 C2296 1.368 . S
C2277 H2301 0.949 . S
H2278 C2282 0.949 . S
C2279 C2280 1.349 . S
C2279 C2281 1.327 . S
C2279 H2302 0.950 . S
C2280 C2279 1.349 . S
C2280 C2292 1.349 . S
C2281 C2279 1.327 . S
C2281 C2297 1.429 . S
C2281 H2303 0.950 . S
C2282 H2278 0.949 . S
C2282 C2290 1.574 . S
C2282 C2298 1.368 . S
H2283 C2291 0.950 . S
H2284 C2289 0.950 . S
H2285 C2290 0.949 . S
H2286 C2292 0.950 . S
H2287 C2293 0.950 . S
H2288 C2294 0.949 . S
C2289 H2284 0.950 . S
C2289 C2291 1.327 . S
C2289 C2295 1.429 . S
C2290 C2282 1.574 . S
C2290 H2285 0.949 . S
C2290 C2296 1.368 . S
C2291 C2275 1.349 . S
C2291 H2283 0.950 . S
C2291 C2289 1.327 . S
C2292 C2280 1.349 . S
C2292 H2286 0.950 . S
C2292 C2293 1.327 . S
C2293 H2287 0.950 . S
C2293 C2292 1.327 . S
C2293 C2297 1.429 . S
C2294 C2277 1.574 . S
C2294 H2288 0.949 . S
C2294 C2298 1.368 . S
C2295 C2276 1.429 . S
C2295 C2289 1.429 . S
C2295 C2296 1.523 . S
C2296 C2277 1.368 . S
C2296 C2290 1.368 . S
C2296 C2295 1.523 . S
C2297 C2281 1.429 . S
C2297 C2293 1.429 . S
C2297 C2298 1.523 . S
C2298 C2282 1.368 . S
C2298 C2294 1.368 . S
C2298 C2297 1.523 . S
H2299 C2274 0.950 . S
H2300 C2276 0.950 . S
H2301 C2277 0.949 . S
H2302 C2279 0.950 . S
H2303 C2281 0.950 . S
C2304 C2305 1.349 . S
C2304 C2306 1.327 . S
C2304 H2329 0.950 . S
C2305 C2304 1.349 . S
C2305 C2321 1.349 . S
C2306 C2304 1.327 . S
C2306 C2325 1.429 . S
C2306 H2330 0.950 . S
C2307 C2324 1.574 1_655 S
C2307 C2326 1.368 . S
C2307 H2331 0.949 . S
H2308 C2312 0.949 . S
C2309 C2310 1.349 . S
C2309 C2311 1.327 . S
C2309 H2332 0.950 . S
C2310 C2309 1.349 . S
C2310 C2322 1.349 . S
C2311 C2309 1.327 . S
C2311 C2327 1.429 . S
C2311 H2333 0.950 . S
C2312 H2308 0.949 . S
C2312 C2320 1.574 . S
C2312 C2328 1.368 . S
H2313 C2321 0.950 . S
H2314 C2319 0.950 . S
H2315 C2320 0.949 . S
H2316 C2322 0.950 . S
H2317 C2323 0.950 . S
H2318 C2324 0.949 . S
C2319 H2314 0.950 . S
C2319 C2321 1.327 . S
C2319 C2325 1.429 . S
C2320 C2312 1.574 . S
C2320 H2315 0.949 . S
C2320 C2326 1.368 1_455 S
C2321 C2305 1.349 . S
C2321 H2313 0.950 . S
C2321 C2319 1.327 . S
C2322 C2310 1.349 . S
C2322 H2316 0.950 . S
C2322 C2323 1.327 . S
C2323 H2317 0.950 . S
C2323 C2322 1.327 . S
C2323 C2327 1.429 . S
C2324 C2307 1.574 1_455 S
C2324 H2318 0.949 . S
C2324 C2328 1.368 . S
C2325 C2306 1.429 . S
C2325 C2319 1.429 . S
C2325 C2326 1.523 . S
C2326 C2307 1.368 . S
C2326 C2320 1.368 1_655 S
C2326 C2325 1.523 . S
C2327 C2311 1.429 . S
C2327 C2323 1.429 . S
C2327 C2328 1.523 . S
C2328 C2312 1.368 . S
C2328 C2324 1.368 . S
C2328 C2327 1.523 . S
H2329 C2304 0.950 . S
H2330 C2306 0.950 . S
H2331 C2307 0.949 . S
H2332 C2309 0.950 . S
H2333 C2311 0.950 . S
C2334 C2335 1.349 . S
C2334 C2336 1.327 . S
C2334 H2359 0.950 . S
C2335 C2334 1.349 . S
C2335 C2351 1.349 . S
C2336 C2334 1.327 . S
C2336 C2355 1.429 . S
C2336 H2360 0.950 . S
C2337 C2354 1.574 . S
C2337 C2356 1.368 . S
C2337 H2361 0.949 . S
H2338 C2342 0.949 . S
C2339 C2340 1.349 . S
C2339 C2341 1.327 . S
C2339 H2362 0.950 . S
C2340 C2339 1.349 . S
C2340 C2352 1.349 . S
C2341 C2339 1.327 . S
C2341 C2357 1.429 . S
C2341 H2363 0.950 . S
C2342 H2338 0.949 . S
C2342 C2350 1.574 . S
C2342 C2358 1.368 . S
H2343 C2351 0.950 . S
H2344 C2349 0.950 . S
H2345 C2350 0.949 . S
H2346 C2352 0.950 . S
H2347 C2353 0.950 . S
H2348 C2354 0.949 . S
C2349 H2344 0.950 . S
C2349 C2351 1.327 . S
C2349 C2355 1.429 . S
C2350 C2342 1.574 . S
C2350 H2345 0.949 . S
C2350 C2356 1.368 . S
C2351 C2335 1.349 . S
C2351 H2343 0.950 . S
C2351 C2349 1.327 . S
C2352 C2340 1.349 . S
C2352 H2346 0.950 . S
C2352 C2353 1.327 . S
C2353 H2347 0.950 . S
C2353 C2352 1.327 . S
C2353 C2357 1.429 . S
C2354 C2337 1.574 . S
C2354 H2348 0.949 . S
C2354 C2358 1.368 . S
C2355 C2336 1.429 . S
C2355 C2349 1.429 . S
C2355 C2356 1.523 . S
C2356 C2337 1.368 . S
C2356 C2350 1.368 . S
C2356 C2355 1.523 . S
C2357 C2341 1.429 . S
C2357 C2353 1.429 . S
C2357 C2358 1.523 . S
C2358 C2342 1.368 . S
C2358 C2354 1.368 . S
C2358 C2357 1.523 . S
H2359 C2334 0.950 . S
H2360 C2336 0.950 . S
H2361 C2337 0.949 . S
H2362 C2339 0.950 . S
H2363 C2341 0.950 . S
C2364 C2365 1.349 . S
C2364 C2366 1.327 . S
C2364 H2389 0.950 . S
C2365 C2364 1.349 . S
C2365 C2381 1.349 . S
C2366 C2364 1.327 . S
C2366 C2385 1.429 . S
C2366 H2390 0.950 . S
C2367 C2384 1.574 . S
C2367 C2386 1.368 . S
C2367 H2391 0.949 . S
H2368 C2372 0.949 . S
C2369 C2370 1.349 . S
C2369 C2371 1.327 . S
C2369 H2392 0.950 . S
C2370 C2369 1.349 . S
C2370 C2382 1.349 . S
C2371 C2369 1.327 . S
C2371 C2387 1.429 . S
C2371 H2393 0.950 . S
C2372 H2368 0.949 . S
C2372 C2380 1.574 . S
C2372 C2388 1.368 . S
H2373 C2381 0.950 . S
H2374 C2379 0.950 . S
H2375 C2380 0.949 . S
H2376 C2382 0.950 . S
H2377 C2383 0.950 . S
H2378 C2384 0.949 . S
C2379 H2374 0.950 . S
C2379 C2381 1.327 . S
C2379 C2385 1.429 . S
C2380 C2372 1.574 . S
C2380 H2375 0.949 . S
C2380 C2386 1.368 . S
C2381 C2365 1.349 . S
C2381 H2373 0.950 . S
C2381 C2379 1.327 . S
C2382 C2370 1.349 . S
C2382 H2376 0.950 . S
C2382 C2383 1.327 . S
C2383 H2377 0.950 . S
C2383 C2382 1.327 . S
C2383 C2387 1.429 . S
C2384 C2367 1.574 . S
C2384 H2378 0.949 . S
C2384 C2388 1.368 . S
C2385 C2366 1.429 . S
C2385 C2379 1.429 . S
C2385 C2386 1.523 . S
C2386 C2367 1.368 . S
C2386 C2380 1.368 . S
C2386 C2385 1.523 . S
C2387 C2371 1.429 . S
C2387 C2383 1.429 . S
C2387 C2388 1.523 . S
C2388 C2372 1.368 . S
C2388 C2384 1.368 . S
C2388 C2387 1.523 . S
H2389 C2364 0.950 . S
H2390 C2366 0.950 . S
H2391 C2367 0.949 . S
H2392 C2369 0.950 . S
H2393 C2371 0.950 . S
C2394 C2395 1.349 1_554 S
C2394 C2396 1.327 . S
C2394 H2419 0.950 . S
C2395 C2394 1.349 1_556 S
C2395 C2411 1.349 . S
C2396 C2394 1.327 . S
C2396 C2415 1.429 . S
C2396 H2420 0.950 . S
C2397 C2414 1.574 . S
C2397 C2416 1.368 . S
C2397 H2421 0.949 . S
H2398 C2402 0.949 . S
C2399 C2400 1.349 . S
C2399 C2401 1.327 . S
C2399 H2422 0.950 . S
C2400 C2399 1.349 . S
C2400 C2412 1.349 . S
C2401 C2399 1.327 . S
C2401 C2417 1.429 . S
C2401 H2423 0.950 . S
C2402 H2398 0.949 . S
C2402 C2410 1.574 . S
C2402 C2418 1.368 . S
H2403 C2411 0.950 . S
H2404 C2409 0.950 . S
H2405 C2410 0.949 . S
H2406 C2412 0.950 . S
H2407 C2413 0.950 . S
H2408 C2414 0.949 . S
C2409 H2404 0.950 . S
C2409 C2411 1.327 1_554 S
C2409 C2415 1.429 . S
C2410 C2402 1.574 . S
C2410 H2405 0.949 . S
C2410 C2416 1.368 . S
C2411 C2395 1.349 . S
C2411 H2403 0.950 . S
C2411 C2409 1.327 1_556 S
C2412 C2400 1.349 . S
C2412 H2406 0.950 . S
C2412 C2413 1.327 . S
C2413 H2407 0.950 . S
C2413 C2412 1.327 . S
C2413 C2417 1.429 . S
C2414 C2397 1.574 . S
C2414 H2408 0.949 . S
C2414 C2418 1.368 . S
C2415 C2396 1.429 . S
C2415 C2409 1.429 . S
C2415 C2416 1.523 . S
C2416 C2397 1.368 . S
C2416 C2410 1.368 . S
C2416 C2415 1.523 . S
C2417 C2401 1.429 . S
C2417 C2413 1.429 . S
C2417 C2418 1.523 . S
C2418 C2402 1.368 . S
C2418 C2414 1.368 . S
C2418 C2417 1.523 . S
H2419 C2394 0.950 . S
H2420 C2396 0.950 . S
H2421 C2397 0.949 . S
H2422 C2399 0.950 . S
H2423 C2401 0.950 . S
C2424 C2425 1.349 . S
C2424 C2426 1.327 . S
C2424 H2449 0.950 . S
C2425 C2424 1.349 . S
C2425 C2441 1.349 . S
C2426 C2424 1.327 . S
C2426 C2445 1.429 . S
C2426 H2450 0.950 . S
C2427 C2444 1.574 1_455 S
C2427 C2446 1.368 . S
C2427 H2451 0.949 . S
H2428 C2432 0.949 . S
C2429 C2430 1.349 . S
C2429 C2431 1.327 . S
C2429 H2452 0.950 . S
C2430 C2429 1.349 . S
C2430 C2442 1.349 . S
C2431 C2429 1.327 . S
C2431 C2447 1.429 . S
C2431 H2453 0.950 . S
C2432 H2428 0.949 . S
C2432 C2440 1.574 . S
C2432 C2448 1.368 . S
H2433 C2441 0.950 . S
H2434 C2439 0.950 . S
H2435 C2440 0.949 . S
H2436 C2442 0.950 . S
H2437 C2443 0.950 . S
H2438 C2444 0.949 . S
C2439 H2434 0.950 . S
C2439 C2441 1.327 . S
C2439 C2445 1.429 . S
C2440 C2432 1.574 . S
C2440 H2435 0.949 . S
C2440 C2446 1.368 1_655 S
C2441 C2425 1.349 . S
C2441 H2433 0.950 . S
C2441 C2439 1.327 . S
C2442 C2430 1.349 . S
C2442 H2436 0.950 . S
C2442 C2443 1.327 . S
C2443 H2437 0.950 . S
C2443 C2442 1.327 . S
C2443 C2447 1.429 . S
C2444 C2427 1.574 1_655 S
C2444 H2438 0.949 . S
C2444 C2448 1.368 . S
C2445 C2426 1.429 . S
C2445 C2439 1.429 . S
C2445 C2446 1.523 . S
C2446 C2427 1.368 . S
C2446 C2440 1.368 1_455 S
C2446 C2445 1.523 . S
C2447 C2431 1.429 . S
C2447 C2443 1.429 . S
C2447 C2448 1.523 . S
C2448 C2432 1.368 . S
C2448 C2444 1.368 . S
C2448 C2447 1.523 . S
H2449 C2424 0.950 . S
H2450 C2426 0.950 . S
H2451 C2427 0.949 . S
H2452 C2429 0.950 . S
H2453 C2431 0.950 . S
C2454 C2455 1.349 . S
C2454 C2456 1.327 . S
C2454 H2479 0.950 . S
C2455 C2454 1.349 . S
C2455 C2471 1.349 . S
C2456 C2454 1.327 . S
C2456 C2475 1.429 . S
C2456 H2480 0.950 . S
C2457 C2474 1.574 . S
C2457 C2476 1.368 . S
C2457 H2481 0.949 . S
H2458 C2462 0.949 . S
C2459 C2460 1.349 . S
C2459 C2461 1.327 . S
C2459 H2482 0.950 . S
C2460 C2459 1.349 . S
C2460 C2472 1.349 . S
C2461 C2459 1.327 . S
C2461 C2477 1.429 . S
C2461 H2483 0.950 . S
C2462 H2458 0.949 . S
C2462 C2470 1.574 . S
C2462 C2478 1.368 . S
H2463 C2471 0.950 . S
H2464 C2469 0.950 . S
H2465 C2470 0.949 . S
H2466 C2472 0.950 . S
H2467 C2473 0.950 . S
H2468 C2474 0.949 . S
C2469 H2464 0.950 . S
C2469 C2471 1.327 . S
C2469 C2475 1.429 . S
C2470 C2462 1.574 . S
C2470 H2465 0.949 . S
C2470 C2476 1.368 . S
C2471 C2455 1.349 . S
C2471 H2463 0.950 . S
C2471 C2469 1.327 . S
C2472 C2460 1.349 . S
C2472 H2466 0.950 . S
C2472 C2473 1.327 . S
C2473 H2467 0.950 . S
C2473 C2472 1.327 . S
C2473 C2477 1.429 . S
C2474 C2457 1.574 . S
C2474 H2468 0.949 . S
C2474 C2478 1.368 . S
C2475 C2456 1.429 . S
C2475 C2469 1.429 . S
C2475 C2476 1.523 . S
C2476 C2457 1.368 . S
C2476 C2470 1.368 . S
C2476 C2475 1.523 . S
C2477 C2461 1.429 . S
C2477 C2473 1.429 . S
C2477 C2478 1.523 . S
C2478 C2462 1.368 . S
C2478 C2474 1.368 . S
C2478 C2477 1.523 . S
H2479 C2454 0.950 . S
H2480 C2456 0.950 . S
H2481 C2457 0.949 . S
H2482 C2459 0.950 . S
H2483 C2461 0.950 . S
C2484 C2485 1.349 . S
C2484 C2486 1.327 . S
C2484 H2509 0.950 . S
C2485 C2484 1.349 . S
C2485 C2501 1.349 . S
C2486 C2484 1.327 . S
C2486 C2505 1.429 . S
C2486 H2510 0.950 . S
C2487 C2504 1.574 . S
C2487 C2506 1.368 . S
C2487 H2511 0.949 . S
H2488 C2492 0.949 . S
C2489 C2490 1.349 . S
C2489 C2491 1.327 . S
C2489 H2512 0.950 . S
C2490 C2489 1.349 . S
C2490 C2502 1.349 . S
C2491 C2489 1.327 . S
C2491 C2507 1.429 . S
C2491 H2513 0.950 . S
C2492 H2488 0.949 . S
C2492 C2500 1.574 . S
C2492 C2508 1.368 . S
H2493 C2501 0.950 . S
H2494 C2499 0.950 . S
H2495 C2500 0.949 . S
H2496 C2502 0.950 . S
H2497 C2503 0.950 . S
H2498 C2504 0.949 . S
C2499 H2494 0.950 . S
C2499 C2501 1.327 . S
C2499 C2505 1.429 . S
C2500 C2492 1.574 . S
C2500 H2495 0.949 . S
C2500 C2506 1.368 . S
C2501 C2485 1.349 . S
C2501 H2493 0.950 . S
C2501 C2499 1.327 . S
C2502 C2490 1.349 . S
C2502 H2496 0.950 . S
C2502 C2503 1.327 . S
C2503 H2497 0.950 . S
C2503 C2502 1.327 . S
C2503 C2507 1.429 . S
C2504 C2487 1.574 . S
C2504 H2498 0.949 . S
C2504 C2508 1.368 . S
C2505 C2486 1.429 . S
C2505 C2499 1.429 . S
C2505 C2506 1.523 . S
C2506 C2487 1.368 . S
C2506 C2500 1.368 . S
C2506 C2505 1.523 . S
C2507 C2491 1.429 . S
C2507 C2503 1.429 . S
C2507 C2508 1.523 . S
C2508 C2492 1.368 . S
C2508 C2504 1.368 . S
C2508 C2507 1.523 . S
H2509 C2484 0.950 . S
H2510 C2486 0.950 . S
H2511 C2487 0.949 . S
H2512 C2489 0.950 . S
H2513 C2491 0.950 . S
C2514 C2515 1.349 . S
C2514 C2516 1.327 1_554 S
C2514 H2539 0.950 . S
C2515 C2514 1.349 . S
C2515 C2531 1.349 1_554 S
C2516 C2514 1.327 1_556 S
C2516 C2535 1.429 . S
C2516 H2540 0.950 . S
C2517 C2534 1.574 . S
C2517 C2536 1.368 . S
C2517 H2541 0.949 . S
H2518 C2522 0.949 . S
C2519 C2520 1.349 . S
C2519 C2521 1.327 . S
C2519 H2542 0.950 . S
C2520 C2519 1.349 . S
C2520 C2532 1.349 . S
C2521 C2519 1.327 . S
C2521 C2537 1.429 . S
C2521 H2543 0.950 . S
C2522 H2518 0.949 . S
C2522 C2530 1.574 . S
C2522 C2538 1.368 . S
H2523 C2531 0.950 . S
H2524 C2529 0.950 . S
H2525 C2530 0.949 . S
H2526 C2532 0.950 . S
H2527 C2533 0.950 . S
H2528 C2534 0.949 . S
C2529 H2524 0.950 . S
C2529 C2531 1.327 . S
C2529 C2535 1.429 . S
C2530 C2522 1.574 . S
C2530 H2525 0.949 . S
C2530 C2536 1.368 . S
C2531 C2515 1.349 1_556 S
C2531 H2523 0.950 . S
C2531 C2529 1.327 . S
C2532 C2520 1.349 . S
C2532 H2526 0.950 . S
C2532 C2533 1.327 . S
C2533 H2527 0.950 . S
C2533 C2532 1.327 . S
C2533 C2537 1.429 . S
C2534 C2517 1.574 . S
C2534 H2528 0.949 . S
C2534 C2538 1.368 . S
C2535 C2516 1.429 . S
C2535 C2529 1.429 . S
C2535 C2536 1.523 . S
C2536 C2517 1.368 . S
C2536 C2530 1.368 . S
C2536 C2535 1.523 . S
C2537 C2521 1.429 . S
C2537 C2533 1.429 . S
C2537 C2538 1.523 . S
C2538 C2522 1.368 . S
C2538 C2534 1.368 . S
C2538 C2537 1.523 . S
H2539 C2514 0.950 . S
H2540 C2516 0.950 . S
H2541 C2517 0.949 . S
H2542 C2519 0.950 . S
H2543 C2521 0.950 . S
C2544 C2545 1.349 . S
C2544 C2546 1.327 . S
C2544 H2569 0.950 . S
C2545 C2544 1.349 . S
C2545 C2561 1.349 . S
C2546 C2544 1.327 . S
C2546 C2565 1.429 . S
C2546 H2570 0.950 . S
C2547 C2564 1.574 . S
C2547 C2566 1.368 . S
C2547 H2571 0.949 . S
H2548 C2552 0.949 . S
C2549 C2550 1.349 . S
C2549 C2551 1.327 . S
C2549 H2572 0.950 . S
C2550 C2549 1.349 . S
C2550 C2562 1.349 . S
C2551 C2549 1.327 . S
C2551 C2567 1.429 . S
C2551 H2573 0.950 . S
C2552 H2548 0.949 . S
C2552 C2560 1.574 . S
C2552 C2568 1.368 . S
H2553 C2561 0.950 . S
H2554 C2559 0.950 . S
H2555 C2560 0.949 . S
H2556 C2562 0.950 . S
H2557 C2563 0.950 . S
H2558 C2564 0.949 . S
C2559 H2554 0.950 . S
C2559 C2561 1.327 . S
C2559 C2565 1.429 . S
C2560 C2552 1.574 . S
C2560 H2555 0.949 . S
C2560 C2566 1.368 . S
C2561 C2545 1.349 . S
C2561 H2553 0.950 . S
C2561 C2559 1.327 . S
C2562 C2550 1.349 . S
C2562 H2556 0.950 . S
C2562 C2563 1.327 . S
C2563 H2557 0.950 . S
C2563 C2562 1.327 . S
C2563 C2567 1.429 . S
C2564 C2547 1.574 . S
C2564 H2558 0.949 . S
C2564 C2568 1.368 . S
C2565 C2546 1.429 . S
C2565 C2559 1.429 . S
C2565 C2566 1.523 . S
C2566 C2547 1.368 . S
C2566 C2560 1.368 . S
C2566 C2565 1.523 . S
C2567 C2551 1.429 . S
C2567 C2563 1.429 . S
C2567 C2568 1.523 . S
C2568 C2552 1.368 . S
C2568 C2564 1.368 . S
C2568 C2567 1.523 . S
H2569 C2544 0.950 . S
H2570 C2546 0.950 . S
H2571 C2547 0.949 . S
H2572 C2549 0.950 . S
H2573 C2551 0.950 . S
C2574 C2575 1.349 . S
C2574 C2576 1.327 . S
C2574 H2599 0.950 . S
C2575 C2574 1.349 . S
C2575 C2591 1.349 . S
C2576 C2574 1.327 . S
C2576 C2595 1.429 . S
C2576 H2600 0.950 . S
C2577 C2594 1.574 . S
C2577 C2596 1.368 . S
C2577 H2601 0.949 . S
H2578 C2582 0.949 . S
C2579 C2580 1.349 . S
C2579 C2581 1.327 . S
C2579 H2602 0.950 . S
C2580 C2579 1.349 . S
C2580 C2592 1.349 . S
C2581 C2579 1.327 . S
C2581 C2597 1.429 . S
C2581 H2603 0.950 . S
C2582 H2578 0.949 . S
C2582 C2590 1.574 . S
C2582 C2598 1.368 . S
H2583 C2591 0.950 . S
H2584 C2589 0.950 . S
H2585 C2590 0.949 . S
H2586 C2592 0.950 . S
H2587 C2593 0.950 . S
H2588 C2594 0.949 . S
C2589 H2584 0.950 . S
C2589 C2591 1.327 . S
C2589 C2595 1.429 . S
C2590 C2582 1.574 . S
C2590 H2585 0.949 . S
C2590 C2596 1.368 . S
C2591 C2575 1.349 . S
C2591 H2583 0.950 . S
C2591 C2589 1.327 . S
C2592 C2580 1.349 . S
C2592 H2586 0.950 . S
C2592 C2593 1.327 . S
C2593 H2587 0.950 . S
C2593 C2592 1.327 . S
C2593 C2597 1.429 . S
C2594 C2577 1.574 . S
C2594 H2588 0.949 . S
C2594 C2598 1.368 . S
C2595 C2576 1.429 . S
C2595 C2589 1.429 . S
C2595 C2596 1.523 . S
C2596 C2577 1.368 . S
C2596 C2590 1.368 . S
C2596 C2595 1.523 . S
C2597 C2581 1.429 . S
C2597 C2593 1.429 . S
C2597 C2598 1.523 . S
C2598 C2582 1.368 . S
C2598 C2594 1.368 . S
C2598 C2597 1.523 . S
H2599 C2574 0.950 . S
H2600 C2576 0.950 . S
H2601 C2577 0.949 . S
H2602 C2579 0.950 . S
H2603 C2581 0.950 . S
C2604 C2605 1.349 . S
C2604 C2606 1.327 . S
C2604 H2629 0.950 . S
C2605 C2604 1.349 . S
C2605 C2621 1.349 . S
C2606 C2604 1.327 . S
C2606 C2625 1.429 . S
C2606 H2630 0.950 . S
C2607 C2624 1.574 . S
C2607 C2626 1.368 . S
C2607 H2631 0.949 . S
H2608 C2612 0.949 . S
C2609 C2610 1.349 . S
C2609 C2611 1.327 . S
C2609 H2632 0.950 . S
C2610 C2609 1.349 . S
C2610 C2622 1.349 . S
C2611 C2609 1.327 . S
C2611 C2627 1.429 . S
C2611 H2633 0.950 . S
C2612 H2608 0.949 . S
C2612 C2620 1.574 . S
C2612 C2628 1.368 . S
H2613 C2621 0.950 . S
H2614 C2619 0.950 . S
H2615 C2620 0.949 . S
H2616 C2622 0.950 . S
H2617 C2623 0.950 . S
H2618 C2624 0.949 . S
C2619 H2614 0.950 . S
C2619 C2621 1.327 . S
C2619 C2625 1.429 . S
C2620 C2612 1.574 . S
C2620 H2615 0.949 . S
C2620 C2626 1.368 . S
C2621 C2605 1.349 . S
C2621 H2613 0.950 . S
C2621 C2619 1.327 . S
C2622 C2610 1.349 . S
C2622 H2616 0.950 . S
C2622 C2623 1.327 . S
C2623 H2617 0.950 . S
C2623 C2622 1.327 . S
C2623 C2627 1.429 . S
C2624 C2607 1.574 . S
C2624 H2618 0.949 . S
C2624 C2628 1.368 . S
C2625 C2606 1.429 . S
C2625 C2619 1.429 . S
C2625 C2626 1.523 . S
C2626 C2607 1.368 . S
C2626 C2620 1.368 . S
C2626 C2625 1.523 . S
C2627 C2611 1.429 . S
C2627 C2623 1.429 . S
C2627 C2628 1.523 . S
C2628 C2612 1.368 . S
C2628 C2624 1.368 . S
C2628 C2627 1.523 . S
H2629 C2604 0.950 . S
H2630 C2606 0.950 . S
H2631 C2607 0.949 . S
H2632 C2609 0.950 . S
H2633 C2611 0.950 . S
C2634 C2635 1.349 . S
C2634 C2636 1.327 . S
C2634 H2659 0.950 . S
C2635 C2634 1.349 . S
C2635 C2651 1.349 . S
C2636 C2634 1.327 . S
C2636 C2655 1.429 . S
C2636 H2660 0.950 . S
C2637 C2654 1.574 1_454 S
C2637 C2656 1.368 . S
C2637 H2661 0.949 . S
H2638 C2642 0.949 . S
C2639 C2640 1.349 . S
C2639 C2641 1.327 . S
C2639 H2662 0.950 . S
C2640 C2639 1.349 . S
C2640 C2652 1.349 . S
C2641 C2639 1.327 . S
C2641 C2657 1.429 . S
C2641 H2663 0.950 . S
C2642 H2638 0.949 . S
C2642 C2650 1.574 1_656 S
C2642 C2658 1.368 . S
H2643 C2651 0.950 . S
H2644 C2649 0.950 . S
H2645 C2650 0.949 . S
H2646 C2652 0.950 . S
H2647 C2653 0.950 . S
H2648 C2654 0.949 . S
C2649 H2644 0.950 . S
C2649 C2651 1.327 . S
C2649 C2655 1.429 . S
C2650 C2642 1.574 1_454 S
C2650 H2645 0.949 . S
C2650 C2656 1.368 . S
C2651 C2635 1.349 . S
C2651 H2643 0.950 . S
C2651 C2649 1.327 . S
C2652 C2640 1.349 . S
C2652 H2646 0.950 . S
C2652 C2653 1.327 . S
C2653 H2647 0.950 . S
C2653 C2652 1.327 . S
C2653 C2657 1.429 . S
C2654 C2637 1.574 1_656 S
C2654 H2648 0.949 . S
C2654 C2658 1.368 . S
C2655 C2636 1.429 . S
C2655 C2649 1.429 . S
C2655 C2656 1.523 . S
C2656 C2637 1.368 . S
C2656 C2650 1.368 . S
C2656 C2655 1.523 . S
C2657 C2641 1.429 . S
C2657 C2653 1.429 . S
C2657 C2658 1.523 . S
C2658 C2642 1.368 . S
C2658 C2654 1.368 . S
C2658 C2657 1.523 . S
H2659 C2634 0.950 . S
H2660 C2636 0.950 . S
H2661 C2637 0.949 . S
H2662 C2639 0.950 . S
H2663 C2641 0.950 . S
C2664 C2665 1.349 . S
C2664 C2666 1.327 . S
C2664 H2689 0.950 . S
C2665 C2664 1.349 . S
C2665 C2681 1.349 . S
C2666 C2664 1.327 . S
C2666 C2685 1.429 . S
C2666 H2690 0.950 . S
C2667 C2684 1.574 . S
C2667 C2686 1.368 . S
C2667 H2691 0.949 . S
H2668 C2672 0.949 . S
C2669 C2670 1.349 . S
C2669 C2671 1.327 . S
C2669 H2692 0.950 . S
C2670 C2669 1.349 . S
C2670 C2682 1.349 . S
C2671 C2669 1.327 . S
C2671 C2687 1.429 . S
C2671 H2693 0.950 . S
C2672 H2668 0.949 . S
C2672 C2680 1.574 . S
C2672 C2688 1.368 . S
H2673 C2681 0.950 . S
H2674 C2679 0.950 . S
H2675 C2680 0.949 . S
H2676 C2682 0.950 . S
H2677 C2683 0.950 . S
H2678 C2684 0.949 . S
C2679 H2674 0.950 . S
C2679 C2681 1.327 . S
C2679 C2685 1.429 . S
C2680 C2672 1.574 . S
C2680 H2675 0.949 . S
C2680 C2686 1.368 . S
C2681 C2665 1.349 . S
C2681 H2673 0.950 . S
C2681 C2679 1.327 . S
C2682 C2670 1.349 . S
C2682 H2676 0.950 . S
C2682 C2683 1.327 . S
C2683 H2677 0.950 . S
C2683 C2682 1.327 . S
C2683 C2687 1.429 . S
C2684 C2667 1.574 . S
C2684 H2678 0.949 . S
C2684 C2688 1.368 . S
C2685 C2666 1.429 . S
C2685 C2679 1.429 . S
C2685 C2686 1.523 . S
C2686 C2667 1.368 . S
C2686 C2680 1.368 . S
C2686 C2685 1.523 . S
C2687 C2671 1.429 . S
C2687 C2683 1.429 . S
C2687 C2688 1.523 . S
C2688 C2672 1.368 . S
C2688 C2684 1.368 . S
C2688 C2687 1.523 . S
H2689 C2664 0.950 . S
H2690 C2666 0.950 . S
H2691 C2667 0.949 . S
H2692 C2669 0.950 . S
H2693 C2671 0.950 . S
C2694 C2695 1.349 . S
C2694 C2696 1.327 . S
C2694 H2719 0.950 . S
C2695 C2694 1.349 . S
C2695 C2711 1.349 . S
C2696 C2694 1.327 . S
C2696 C2715 1.429 . S
C2696 H2720 0.950 . S
C2697 C2714 1.574 . S
C2697 C2716 1.368 . S
C2697 H2721 0.949 . S
H2698 C2702 0.949 . S
C2699 C2700 1.349 . S
C2699 C2701 1.327 . S
C2699 H2722 0.950 . S
C2700 C2699 1.349 . S
C2700 C2712 1.349 . S
C2701 C2699 1.327 . S
C2701 C2717 1.429 . S
C2701 H2723 0.950 . S
C2702 H2698 0.949 . S
C2702 C2710 1.574 . S
C2702 C2718 1.368 . S
H2703 C2711 0.950 . S
H2704 C2709 0.950 . S
H2705 C2710 0.949 . S
H2706 C2712 0.950 . S
H2707 C2713 0.950 . S
H2708 C2714 0.949 . S
C2709 H2704 0.950 . S
C2709 C2711 1.327 . S
C2709 C2715 1.429 . S
C2710 C2702 1.574 . S
C2710 H2705 0.949 . S
C2710 C2716 1.368 . S
C2711 C2695 1.349 . S
C2711 H2703 0.950 . S
C2711 C2709 1.327 . S
C2712 C2700 1.349 . S
C2712 H2706 0.950 . S
C2712 C2713 1.327 . S
C2713 H2707 0.950 . S
C2713 C2712 1.327 . S
C2713 C2717 1.429 . S
C2714 C2697 1.574 . S
C2714 H2708 0.949 . S
C2714 C2718 1.368 . S
C2715 C2696 1.429 . S
C2715 C2709 1.429 . S
C2715 C2716 1.523 . S
C2716 C2697 1.368 . S
C2716 C2710 1.368 . S
C2716 C2715 1.523 . S
C2717 C2701 1.429 . S
C2717 C2713 1.429 . S
C2717 C2718 1.523 . S
C2718 C2702 1.368 . S
C2718 C2714 1.368 . S
C2718 C2717 1.523 . S
H2719 C2694 0.950 . S
H2720 C2696 0.950 . S
H2721 C2697 0.949 . S
H2722 C2699 0.950 . S
H2723 C2701 0.950 . S
C2724 C2725 1.349 . S
C2724 C2726 1.327 . S
C2724 H2749 0.950 . S
C2725 C2724 1.349 . S
C2725 C2741 1.349 . S
C2726 C2724 1.327 . S
C2726 C2745 1.429 . S
C2726 H2750 0.950 . S
C2727 C2744 1.574 1_556 S
C2727 C2746 1.368 1_565 S
C2727 H2751 0.949 . S
H2728 C2732 0.949 . S
C2729 C2730 1.349 . S
C2729 C2731 1.327 . S
C2729 H2752 0.950 . S
C2730 C2729 1.349 . S
C2730 C2742 1.349 . S
C2731 C2729 1.327 . S
C2731 C2747 1.429 . S
C2731 H2753 0.950 . S
C2732 H2728 0.949 . S
C2732 C2740 1.574 1_554 S
C2732 C2748 1.368 1_545 S
H2733 C2741 0.950 . S
H2734 C2739 0.950 1_565 S
H2735 C2740 0.949 . S
H2736 C2742 0.950 . S
H2737 C2743 0.950 1_545 S
H2738 C2744 0.949 . S
C2739 H2734 0.950 1_545 S
C2739 C2741 1.327 . S
C2739 C2745 1.429 . S
C2740 C2732 1.574 1_556 S
C2740 H2735 0.949 . S
C2740 C2746 1.368 1_655 S
C2741 C2725 1.349 . S
C2741 H2733 0.950 . S
C2741 C2739 1.327 . S
C2742 C2730 1.349 . S
C2742 H2736 0.950 . S
C2742 C2743 1.327 . S
C2743 H2737 0.950 1_565 S
C2743 C2742 1.327 . S
C2743 C2747 1.429 . S
C2744 C2727 1.574 1_554 S
C2744 H2738 0.949 . S
C2744 C2748 1.368 1_455 S
C2745 C2726 1.429 . S
C2745 C2739 1.429 . S
C2745 C2746 1.523 . S
C2746 C2727 1.368 1_545 S
C2746 C2740 1.368 1_455 S
C2746 C2745 1.523 . S
C2747 C2731 1.429 . S
C2747 C2743 1.429 . S
C2747 C2748 1.523 . S
C2748 C2732 1.368 1_565 S
C2748 C2744 1.368 1_655 S
C2748 C2747 1.523 . S
H2749 C2724 0.950 . S
H2750 C2726 0.950 . S
H2751 C2727 0.949 . S
H2752 C2729 0.950 . S
H2753 C2731 0.950 . S
C2754 C2755 1.349 . S
C2754 C2756 1.327 . S
C2754 H2779 0.950 . S
C2755 C2754 1.349 . S
C2755 C2771 1.349 . S
C2756 C2754 1.327 . S
C2756 C2775 1.429 . S
C2756 H2780 0.950 1_545 S
C2757 C2774 1.574 . S
C2757 C2776 1.368 . S
C2757 H2781 0.949 . S
H2758 C2762 0.949 . S
C2759 C2760 1.349 . S
C2759 C2761 1.327 . S
C2759 H2782 0.950 . S
C2760 C2759 1.349 . S
C2760 C2772 1.349 . S
C2761 C2759 1.327 . S
C2761 C2777 1.429 . S
C2761 H2783 0.950 1_565 S
C2762 H2758 0.949 . S
C2762 C2770 1.574 . S
C2762 C2778 1.368 . S
H2763 C2771 0.950 . S
H2764 C2769 0.950 . S
H2765 C2770 0.949 . S
H2766 C2772 0.950 . S
H2767 C2773 0.950 . S
H2768 C2774 0.949 . S
C2769 H2764 0.950 . S
C2769 C2771 1.327 . S
C2769 C2775 1.429 . S
C2770 C2762 1.574 . S
C2770 H2765 0.949 . S
C2770 C2776 1.368 1_565 S
C2771 C2755 1.349 . S
C2771 H2763 0.950 . S
C2771 C2769 1.327 . S
C2772 C2760 1.349 . S
C2772 H2766 0.950 . S
C2772 C2773 1.327 . S
C2773 H2767 0.950 . S
C2773 C2772 1.327 . S
C2773 C2777 1.429 . S
C2774 C2757 1.574 . S
C2774 H2768 0.949 . S
C2774 C2778 1.368 1_545 S
C2775 C2756 1.429 . S
C2775 C2769 1.429 . S
C2775 C2776 1.523 . S
C2776 C2757 1.368 . S
C2776 C2770 1.368 1_545 S
C2776 C2775 1.523 . S
C2777 C2761 1.429 . S
C2777 C2773 1.429 . S
C2777 C2778 1.523 . S
C2778 C2762 1.368 . S
C2778 C2774 1.368 1_565 S
C2778 C2777 1.523 . S
H2779 C2754 0.950 . S
H2780 C2756 0.950 1_565 S
H2781 C2757 0.949 . S
H2782 C2759 0.950 . S
H2783 C2761 0.950 1_545 S
C1345 C56 2.245 . S
C1350 C896 2.245 . S
C1375 C140 2.245 . S
C1380 C980 2.245 . S
C1405 C224 2.245 . S
C1410 C728 2.245 . S
C1435 C308 2.245 . S
C1440 C812 2.245 . S
C1465 C403 2.245 . S
C1470 C1243 2.245 . S
C1495 C487 2.245 . S
C1500 C1327 2.245 . S
C1525 C571 2.245 . S
C1530 C1075 2.245 . S
C1555 C655 2.245 . S
C1560 C1159 2.245 . S
C1585 C830 3.694 . S
C1590 C67 3.674 . S
C1615 C914 3.694 . S
C1620 C151 3.674 . S
C1645 C998 3.694 . S
C1650 C235 3.674 . S
C1675 C746 3.694 . S
C1680 C319 3.674 . S
C1705 C392 3.674 . S
C1710 C1155 3.694 . S
C1735 C1239 3.694 . S
C1740 C476 3.674 . S
C1765 C1323 3.694 . S
C1770 C560 3.674 . S
C1795 C1071 3.694 . S
C1800 C644 3.674 . S
C1825 C158 3.694 . S
C1830 C739 3.674 . S
C1855 C823 3.674 . S
C1860 C242 3.694 . S
C1885 C907 3.674 . S
C1890 C326 3.694 . S
C1915 C991 3.674 . S
C1920 C74 3.694 . S
C1945 C1064 3.674 . S
C1950 C483 3.694 . S
C1975 C567 3.694 . S
C1980 C1148 3.674 . S
C2005 C651 3.694 . S
C2010 C1232 3.674 . S
C2035 C1316 3.674 . S
C2040 C399 3.694 . S
C2065 C58 0.609 . S
C2070 C1334 0.465 . S
C2095 C142 0.609 . S
C2100 C410 0.465 . S
C2125 C1166 0.465 . S
C2130 C226 0.609 . S
C2155 C578 0.465 . S
C2160 C310 0.609 . S
C2185 C406 0.609 . S
C2190 C987 0.465 . S
C2215 C490 0.609 . S
C2220 C63 0.465 . S
C2245 C819 0.465 . S
C2250 C574 0.609 . S
C2275 C231 0.465 . S
C2280 C658 0.609 . S
C2305 C730 0.609 . S
C2310 C662 0.465 . S
C2335 C814 0.609 . S
C2340 C1082 0.465 . S
C2365 C494 0.465 . S
C2370 C898 0.609 . S
C2395 C1250 0.465 . S
C2400 C982 0.609 . S
C2425 C1078 0.609 . S
C2430 C315 0.465 . S
C2455 C1162 0.609 . S
C2460 C735 0.465 . S
C2485 C1246 0.609 . S
C2490 C147 0.465 . S
C2515 C903 0.465 . S
C2520 C1330 0.609 . S
C2545 C70 1.081 . S
C2550 C1066 1.081 . S
C2575 C154 1.081 . S
C2580 C478 1.081 . S
C2605 C238 1.081 . S
C2610 C1234 1.081 . S
C2635 C646 1.081 . S
C2640 C322 1.081 . S
C2665 C394 1.081 . S
C2670 C742 1.081 . S
C2695 C910 1.081 . S
C2700 C562 1.081 . S
C2725 C826 1.081 . S
C2730 C1150 1.081 . S
C2755 C1318 1.081 . S
C2760 C994 1.081 . S
