# Generated by pormake.
# Topology flu-e, (6)-cn, num edge types: 1
# Building blocks:
#     Node 0, Type 0, BuildingBlock: IZENUY_clean_sbu_0, # of connection points: 6
#     Node 1, Type 0, BuildingBlock: IZENUY_clean_sbu_0, # of connection points: 6
#     Node 2, Type 0, BuildingBlock: IZENUY_clean_sbu_0, # of connection points: 6
#     Node 3, Type 0, BuildingBlock: IZENUY_clean_sbu_0, # of connection points: 6
#     Node 4, Type 0, BuildingBlock: IZENUY_clean_sbu_0, # of connection points: 6
#     Node 5, Type 0, BuildingBlock: IZENUY_clean_sbu_0, # of connection points: 6
#     Node 6, Type 0, BuildingBlock: IZENUY_clean_sbu_0, # of connection points: 6
#     Node 7, Type 0, BuildingBlock: IZENUY_clean_sbu_0, # of connection points: 6
#     Node 8, Type 0, BuildingBlock: IZENUY_clean_sbu_0, # of connection points: 6
#     Node 9, Type 0, BuildingBlock: IZENUY_clean_sbu_0, # of connection points: 6
#     Node 10, Type 0, BuildingBlock: IZENUY_clean_sbu_0, # of connection points: 6
#     Node 11, Type 0, BuildingBlock: IZENUY_clean_sbu_0, # of connection points: 6
#     Node 12, Type 0, BuildingBlock: IZENUY_clean_sbu_0, # of connection points: 6
#     Node 13, Type 0, BuildingBlock: IZENUY_clean_sbu_0, # of connection points: 6
#     Node 14, Type 0, BuildingBlock: IZENUY_clean_sbu_0, # of connection points: 6
#     Node 15, Type 0, BuildingBlock: IZENUY_clean_sbu_0, # of connection points: 6
#     Node 16, Type 0, BuildingBlock: IZENUY_clean_sbu_0, # of connection points: 6
#     Node 17, Type 0, BuildingBlock: IZENUY_clean_sbu_0, # of connection points: 6
#     Node 18, Type 0, BuildingBlock: IZENUY_clean_sbu_0, # of connection points: 6
#     Node 19, Type 0, BuildingBlock: IZENUY_clean_sbu_0, # of connection points: 6
#     Node 20, Type 0, BuildingBlock: IZENUY_clean_sbu_0, # of connection points: 6
#     Node 21, Type 0, BuildingBlock: IZENUY_clean_sbu_0, # of connection points: 6
#     Node 22, Type 0, BuildingBlock: IZENUY_clean_sbu_0, # of connection points: 6
#     Node 23, Type 0, BuildingBlock: IZENUY_clean_sbu_0, # of connection points: 6
#     Node 24, Type 0, BuildingBlock: IZENUY_clean_sbu_0, # of connection points: 6
#     Node 25, Type 0, BuildingBlock: IZENUY_clean_sbu_0, # of connection points: 6
#     Node 26, Type 0, BuildingBlock: IZENUY_clean_sbu_0, # of connection points: 6
#     Node 27, Type 0, BuildingBlock: IZENUY_clean_sbu_0, # of connection points: 6
#     Node 28, Type 0, BuildingBlock: IZENUY_clean_sbu_0, # of connection points: 6
#     Node 29, Type 0, BuildingBlock: IZENUY_clean_sbu_0, # of connection points: 6
#     Node 30, Type 0, BuildingBlock: IZENUY_clean_sbu_0, # of connection points: 6
#     Node 31, Type 0, BuildingBlock: IZENUY_clean_sbu_0, # of connection points: 6
#     Edge 32, Type (0, 0), BuildingBlock: CIFDUS_clean_linker_0, # of connection points: 2
#     Edge 33, Type (0, 0), BuildingBlock: CIFDUS_clean_linker_0, # of connection points: 2
#     Edge 34, Type (0, 0), BuildingBlock: CIFDUS_clean_linker_0, # of connection points: 2
#     Edge 35, Type (0, 0), BuildingBlock: CIFDUS_clean_linker_0, # of connection points: 2
#     Edge 36, Type (0, 0), BuildingBlock: CIFDUS_clean_linker_0, # of connection points: 2
#     Edge 37, Type (0, 0), BuildingBlock: CIFDUS_clean_linker_0, # of connection points: 2
#     Edge 38, Type (0, 0), BuildingBlock: CIFDUS_clean_linker_0, # of connection points: 2
#     Edge 39, Type (0, 0), BuildingBlock: CIFDUS_clean_linker_0, # of connection points: 2
#     Edge 40, Type (0, 0), BuildingBlock: CIFDUS_clean_linker_0, # of connection points: 2
#     Edge 41, Type (0, 0), BuildingBlock: CIFDUS_clean_linker_0, # of connection points: 2
#     Edge 42, Type (0, 0), BuildingBlock: CIFDUS_clean_linker_0, # of connection points: 2
#     Edge 43, Type (0, 0), BuildingBlock: CIFDUS_clean_linker_0, # of connection points: 2
#     Edge 44, Type (0, 0), BuildingBlock: CIFDUS_clean_linker_0, # of connection points: 2
#     Edge 45, Type (0, 0), BuildingBlock: CIFDUS_clean_linker_0, # of connection points: 2
#     Edge 46, Type (0, 0), BuildingBlock: CIFDUS_clean_linker_0, # of connection points: 2
#     Edge 47, Type (0, 0), BuildingBlock: CIFDUS_clean_linker_0, # of connection points: 2
#     Edge 48, Type (0, 0), BuildingBlock: CIFDUS_clean_linker_0, # of connection points: 2
#     Edge 49, Type (0, 0), BuildingBlock: CIFDUS_clean_linker_0, # of connection points: 2
#     Edge 50, Type (0, 0), BuildingBlock: CIFDUS_clean_linker_0, # of connection points: 2
#     Edge 51, Type (0, 0), BuildingBlock: CIFDUS_clean_linker_0, # of connection points: 2
#     Edge 52, Type (0, 0), BuildingBlock: CIFDUS_clean_linker_0, # of connection points: 2
#     Edge 53, Type (0, 0), BuildingBlock: CIFDUS_clean_linker_0, # of connection points: 2
#     Edge 54, Type (0, 0), BuildingBlock: CIFDUS_clean_linker_0, # of connection points: 2
#     Edge 55, Type (0, 0), BuildingBlock: CIFDUS_clean_linker_0, # of connection points: 2
#     Edge 56, Type (0, 0), BuildingBlock: CIFDUS_clean_linker_0, # of connection points: 2
#     Edge 57, Type (0, 0), BuildingBlock: CIFDUS_clean_linker_0, # of connection points: 2
#     Edge 58, Type (0, 0), BuildingBlock: CIFDUS_clean_linker_0, # of connection points: 2
#     Edge 59, Type (0, 0), BuildingBlock: CIFDUS_clean_linker_0, # of connection points: 2
#     Edge 60, Type (0, 0), BuildingBlock: CIFDUS_clean_linker_0, # of connection points: 2
#     Edge 61, Type (0, 0), BuildingBlock: CIFDUS_clean_linker_0, # of connection points: 2
#     Edge 62, Type (0, 0), BuildingBlock: CIFDUS_clean_linker_0, # of connection points: 2
#     Edge 63, Type (0, 0), BuildingBlock: CIFDUS_clean_linker_0, # of connection points: 2
#     Edge 64, Type (0, 0), BuildingBlock: CIFDUS_clean_linker_0, # of connection points: 2
#     Edge 65, Type (0, 0), BuildingBlock: CIFDUS_clean_linker_0, # of connection points: 2
#     Edge 66, Type (0, 0), BuildingBlock: CIFDUS_clean_linker_0, # of connection points: 2
#     Edge 67, Type (0, 0), BuildingBlock: CIFDUS_clean_linker_0, # of connection points: 2
#     Edge 68, Type (0, 0), BuildingBlock: CIFDUS_clean_linker_0, # of connection points: 2
#     Edge 69, Type (0, 0), BuildingBlock: CIFDUS_clean_linker_0, # of connection points: 2
#     Edge 70, Type (0, 0), BuildingBlock: CIFDUS_clean_linker_0, # of connection points: 2
#     Edge 71, Type (0, 0), BuildingBlock: CIFDUS_clean_linker_0, # of connection points: 2
#     Edge 72, Type (0, 0), BuildingBlock: CIFDUS_clean_linker_0, # of connection points: 2
#     Edge 73, Type (0, 0), BuildingBlock: CIFDUS_clean_linker_0, # of connection points: 2
#     Edge 74, Type (0, 0), BuildingBlock: CIFDUS_clean_linker_0, # of connection points: 2
#     Edge 75, Type (0, 0), BuildingBlock: CIFDUS_clean_linker_0, # of connection points: 2
#     Edge 76, Type (0, 0), BuildingBlock: CIFDUS_clean_linker_0, # of connection points: 2
#     Edge 77, Type (0, 0), BuildingBlock: CIFDUS_clean_linker_0, # of connection points: 2
#     Edge 78, Type (0, 0), BuildingBlock: CIFDUS_clean_linker_0, # of connection points: 2
#     Edge 79, Type (0, 0), BuildingBlock: CIFDUS_clean_linker_0, # of connection points: 2
#     Edge 80, Type (0, 0), BuildingBlock: CIFDUS_clean_linker_0, # of connection points: 2
#     Edge 81, Type (0, 0), BuildingBlock: CIFDUS_clean_linker_0, # of connection points: 2
#     Edge 82, Type (0, 0), BuildingBlock: CIFDUS_clean_linker_0, # of connection points: 2
#     Edge 83, Type (0, 0), BuildingBlock: CIFDUS_clean_linker_0, # of connection points: 2
#     Edge 84, Type (0, 0), BuildingBlock: CIFDUS_clean_linker_0, # of connection points: 2
#     Edge 85, Type (0, 0), BuildingBlock: CIFDUS_clean_linker_0, # of connection points: 2
#     Edge 86, Type (0, 0), BuildingBlock: CIFDUS_clean_linker_0, # of connection points: 2
#     Edge 87, Type (0, 0), BuildingBlock: CIFDUS_clean_linker_0, # of connection points: 2
#     Edge 88, Type (0, 0), BuildingBlock: CIFDUS_clean_linker_0, # of connection points: 2
#     Edge 89, Type (0, 0), BuildingBlock: CIFDUS_clean_linker_0, # of connection points: 2
#     Edge 90, Type (0, 0), BuildingBlock: CIFDUS_clean_linker_0, # of connection points: 2
#     Edge 91, Type (0, 0), BuildingBlock: CIFDUS_clean_linker_0, # of connection points: 2
#     Edge 92, Type (0, 0), BuildingBlock: CIFDUS_clean_linker_0, # of connection points: 2
#     Edge 93, Type (0, 0), BuildingBlock: CIFDUS_clean_linker_0, # of connection points: 2
#     Edge 94, Type (0, 0), BuildingBlock: CIFDUS_clean_linker_0, # of connection points: 2
#     Edge 95, Type (0, 0), BuildingBlock: CIFDUS_clean_linker_0, # of connection points: 2
#     Edge 96, Type (0, 0), BuildingBlock: CIFDUS_clean_linker_0, # of connection points: 2
#     Edge 97, Type (0, 0), BuildingBlock: CIFDUS_clean_linker_0, # of connection points: 2
#     Edge 98, Type (0, 0), BuildingBlock: CIFDUS_clean_linker_0, # of connection points: 2
#     Edge 99, Type (0, 0), BuildingBlock: CIFDUS_clean_linker_0, # of connection points: 2
#     Edge 100, Type (0, 0), BuildingBlock: CIFDUS_clean_linker_0, # of connection points: 2
#     Edge 101, Type (0, 0), BuildingBlock: CIFDUS_clean_linker_0, # of connection points: 2
#     Edge 102, Type (0, 0), BuildingBlock: CIFDUS_clean_linker_0, # of connection points: 2
#     Edge 103, Type (0, 0), BuildingBlock: CIFDUS_clean_linker_0, # of connection points: 2
#     Edge 104, Type (0, 0), BuildingBlock: CIFDUS_clean_linker_0, # of connection points: 2
#     Edge 105, Type (0, 0), BuildingBlock: CIFDUS_clean_linker_0, # of connection points: 2
#     Edge 106, Type (0, 0), BuildingBlock: CIFDUS_clean_linker_0, # of connection points: 2
#     Edge 107, Type (0, 0), BuildingBlock: CIFDUS_clean_linker_0, # of connection points: 2
#     Edge 108, Type (0, 0), BuildingBlock: CIFDUS_clean_linker_0, # of connection points: 2
#     Edge 109, Type (0, 0), BuildingBlock: CIFDUS_clean_linker_0, # of connection points: 2
#     Edge 110, Type (0, 0), BuildingBlock: CIFDUS_clean_linker_0, # of connection points: 2
#     Edge 111, Type (0, 0), BuildingBlock: CIFDUS_clean_linker_0, # of connection points: 2
#     Edge 112, Type (0, 0), BuildingBlock: CIFDUS_clean_linker_0, # of connection points: 2
#     Edge 113, Type (0, 0), BuildingBlock: CIFDUS_clean_linker_0, # of connection points: 2
#     Edge 114, Type (0, 0), BuildingBlock: CIFDUS_clean_linker_0, # of connection points: 2
#     Edge 115, Type (0, 0), BuildingBlock: CIFDUS_clean_linker_0, # of connection points: 2
#     Edge 116, Type (0, 0), BuildingBlock: CIFDUS_clean_linker_0, # of connection points: 2
#     Edge 117, Type (0, 0), BuildingBlock: CIFDUS_clean_linker_0, # of connection points: 2
#     Edge 118, Type (0, 0), BuildingBlock: CIFDUS_clean_linker_0, # of connection points: 2
#     Edge 119, Type (0, 0), BuildingBlock: CIFDUS_clean_linker_0, # of connection points: 2
#     Edge 120, Type (0, 0), BuildingBlock: CIFDUS_clean_linker_0, # of connection points: 2
#     Edge 121, Type (0, 0), BuildingBlock: CIFDUS_clean_linker_0, # of connection points: 2
#     Edge 122, Type (0, 0), BuildingBlock: CIFDUS_clean_linker_0, # of connection points: 2
#     Edge 123, Type (0, 0), BuildingBlock: CIFDUS_clean_linker_0, # of connection points: 2
#     Edge 124, Type (0, 0), BuildingBlock: CIFDUS_clean_linker_0, # of connection points: 2
#     Edge 125, Type (0, 0), BuildingBlock: CIFDUS_clean_linker_0, # of connection points: 2
#     Edge 126, Type (0, 0), BuildingBlock: CIFDUS_clean_linker_0, # of connection points: 2
#     Edge 127, Type (0, 0), BuildingBlock: CIFDUS_clean_linker_0, # of connection points: 2
# Relax obj value: 0.166
# Max RMSD: 0.166
# Mean RMSD: 0.166
data_MOF--net-flu-e--node1-IZENUY_clean_sbu_0--edge1-CIFDUS_clean_linker_0
_symmetry_space_group_name_H-M    P1
_symmetry_Int_Tables_number       1
_symmetry_cell_setting            triclinic
loop_
_symmetry_equiv_pos_as_xyz
'x, y, z'
_cell_length_a     47.046545
_cell_length_b     47.076856
_cell_length_c     46.935949
_cell_angle_alpha  89.903172
_cell_angle_beta   90.023385
_cell_angle_gamma 90.235895
loop_
_atom_site_label
_atom_site_type_symbol
_atom_site_fract_x
_atom_site_fract_y
_atom_site_fract_z
_atom_type_partial_charge
Fe0 Fe 0.1432 0.19202 0.379 0.0
Fe1 Fe 0.18888 0.14574 0.38203 0.0
O2 O 0.15821 0.16016 0.36557 0.0
Fe3 Fe 0.14269 0.14323 0.33556 0.0
O4 O 0.14763 0.17496 0.31364 0.0
O5 O 0.12986 0.20441 0.34488 0.0
O6 O 0.17588 0.21177 0.37181 0.0
C7 C 0.20014 0.20454 0.38082 0.0
C8 C 0.0954 0.16025 0.3687 0.0
O9 O 0.2041 0.18023 0.39161 0.0
C10 C 0.15608 0.09686 0.36854 0.0
O11 O 0.15367 0.1857 0.41571 0.0
O12 O 0.17056 0.14239 0.41625 0.0
O13 O 0.10628 0.15292 0.34514 0.0
O14 O 0.10964 0.17419 0.38683 0.0
C15 C 0.20155 0.13873 0.32509 0.0
O16 O 0.17929 0.10878 0.37515 0.0
O17 O 0.13704 0.11017 0.35507 0.0
C18 C 0.15873 0.1629 0.42885 0.0
O19 O 0.20928 0.14821 0.34906 0.0
O20 O 0.17627 0.13056 0.32091 0.0
C21 C 0.13914 0.19945 0.32025 0.0
Fe22 Fe 0.87402 0.19106 0.39261 0.0
Fe23 Fe 0.88537 0.14745 0.34539 0.0
O24 O 0.8641 0.15983 0.37393 0.0
Fe25 Fe 0.83276 0.14116 0.38362 0.0
O26 O 0.81076 0.17182 0.37676 0.0
O27 O 0.83731 0.2024 0.4001 0.0
O28 O 0.87193 0.21225 0.36046 0.0
C29 C 0.88482 0.20711 0.3375 0.0
C30 C 0.85659 0.15748 0.43688 0.0
O31 O 0.89642 0.18318 0.33338 0.0
C32 C 0.86756 0.09622 0.37316 0.0
O33 O 0.91253 0.1857 0.38829 0.0
O34 O 0.91608 0.14369 0.36835 0.0
O35 O 0.83563 0.14951 0.42182 0.0
O36 O 0.87658 0.17181 0.42603 0.0
C37 C 0.83225 0.1396 0.3233 0.0
O38 O 0.87766 0.10938 0.35176 0.0
O39 O 0.85242 0.10905 0.3911 0.0
C40 C 0.92699 0.16384 0.38232 0.0
O41 O 0.85639 0.1508 0.32058 0.0
O42 O 0.82421 0.12961 0.34709 0.0
C43 C 0.81409 0.19586 0.38801 0.0
Fe44 Fe 0.83462 0.88157 0.36237 0.0
Fe45 Fe 0.88179 0.87869 0.31754 0.0
O46 O 0.86444 0.86399 0.34768 0.0
Fe47 Fe 0.8773 0.83185 0.36245 0.0
O48 O 0.84192 0.81789 0.37282 0.0
O49 O 0.81225 0.85074 0.35805 0.0
O50 O 0.82078 0.89297 0.32701 0.0
C51 C 0.8265 0.88356 0.30217 0.0
C52 C 0.86537 0.86153 0.41128 0.0
O53 O 0.85064 0.87371 0.29637 0.0
C54 C 0.92669 0.86474 0.3506 0.0
O55 O 0.85456 0.91443 0.36789 0.0
O56 O 0.87249 0.91569 0.32502 0.0
O57 O 0.88301 0.84784 0.39671 0.0
O58 O 0.84329 0.87222 0.39985 0.0
C59 C 0.88448 0.82003 0.30613 0.0
O60 O 0.91356 0.88423 0.33787 0.0
O61 O 0.915 0.84065 0.35495 0.0
C62 C 0.8668 0.92798 0.3482 0.0
O63 O 0.89472 0.84472 0.3032 0.0
O64 O 0.87254 0.81311 0.32909 0.0
C65 C 0.81702 0.82568 0.36598 0.0
Fe66 Fe 0.13579 0.87766 0.32854 0.0
Fe67 Fe 0.18681 0.8851 0.36875 0.0
O68 O 0.15666 0.86541 0.35746 0.0
Fe69 Fe 0.14741 0.83318 0.37477 0.0
O70 O 0.15163 0.81329 0.34183 0.0
O71 O 0.12597 0.84214 0.31575 0.0
O72 O 0.16579 0.87605 0.30447 0.0
C73 C 0.18956 0.88782 0.30854 0.0
C74 C 0.0942 0.8588 0.36418 0.0
O75 O 0.19624 0.89761 0.33281 0.0
C76 C 0.16196 0.86575 0.42082 0.0
O77 O 0.14179 0.91544 0.33563 0.0
O78 O 0.16554 0.91647 0.37588 0.0
O79 O 0.10914 0.83708 0.36918 0.0
O80 O 0.10452 0.87978 0.35092 0.0
C81 C 0.20704 0.83068 0.37213 0.0
O82 O 0.18271 0.8757 0.40661 0.0
O83 O 0.14293 0.85096 0.40884 0.0
C84 C 0.14976 0.92849 0.35778 0.0
O85 O 0.2104 0.85536 0.36225 0.0
O86 O 0.18383 0.82326 0.38345 0.0
C87 C 0.13864 0.8187 0.31893 0.0
Fe88 Fe 0.1373 0.83023 0.64144 0.0
Fe89 Fe 0.18711 0.87264 0.63721 0.0
O90 O 0.15563 0.86057 0.65445 0.0
Fe91 Fe 0.14296 0.87863 0.68508 0.0
O92 O 0.1285 0.84695 0.70277 0.0
O93 O 0.14119 0.81171 0.67513 0.0
O94 O 0.16967 0.81152 0.62997 0.0
C95 C 0.19542 0.81496 0.63728 0.0
C96 C 0.09266 0.86801 0.6575 0.0
O97 O 0.20478 0.8392 0.6439 0.0
C98 C 0.16153 0.92318 0.6486 0.0
O99 O 0.13217 0.84626 0.60658 0.0
O100 O 0.17602 0.86153 0.60138 0.0
O101 O 0.10906 0.88631 0.66837 0.0
O102 O 0.10172 0.84352 0.65085 0.0
C103 C 0.20031 0.87944 0.69559 0.0
O104 O 0.17161 0.90707 0.62969 0.0
O105 O 0.15503 0.91367 0.67301 0.0
C106 C 0.15186 0.85573 0.59095 0.0
O107 O 0.20433 0.88593 0.66973 0.0
O108 O 0.17594 0.8721 0.70417 0.0
C109 C 0.13378 0.8209 0.69919 0.0
Fe110 Fe 0.14712 0.13983 0.69303 0.0
Fe111 Fe 0.18988 0.13823 0.64385 0.0
O112 O 0.16055 0.15442 0.66097 0.0
Fe113 Fe 0.14514 0.18529 0.64602 0.0
O114 O 0.13565 0.20166 0.68059 0.0
O115 O 0.15377 0.17223 0.712 0.0
O116 O 0.18244 0.1281 0.70624 0.0
C117 C 0.2072 0.13668 0.69925 0.0
C118 C 0.09708 0.15725 0.66295 0.0
O119 O 0.2123 0.14462 0.67417 0.0
C120 C 0.15732 0.15021 0.59792 0.0
O121 O 0.13959 0.1062 0.6762 0.0
O122 O 0.18116 0.10192 0.6556 0.0
O123 O 0.1109 0.16827 0.64275 0.0
O124 O 0.10957 0.14945 0.68569 0.0
C125 C 0.20127 0.19682 0.63721 0.0
O126 O 0.16909 0.13113 0.61248 0.0
O127 O 0.15199 0.17438 0.60876 0.0
C128 C 0.15775 0.09123 0.66362 0.0
O129 O 0.20442 0.17145 0.62888 0.0
O130 O 0.17832 0.20453 0.64848 0.0
C131 C 0.14473 0.19648 0.70553 0.0
Fe132 Fe 0.87689 0.13834 0.70214 0.0
Fe133 Fe 0.88093 0.18439 0.65585 0.0
O134 O 0.86374 0.15413 0.67044 0.0
Fe135 Fe 0.83295 0.13993 0.6536 0.0
O136 O 0.81595 0.12759 0.68675 0.0
O137 O 0.84353 0.14432 0.72051 0.0
O138 O 0.88949 0.17164 0.71813 0.0
C139 C 0.8828 0.1971 0.71284 0.0
C140 C 0.86121 0.09122 0.66774 0.0
O141 O 0.87544 0.20454 0.68814 0.0
C142 C 0.8681 0.15603 0.60683 0.0
O143 O 0.91137 0.13144 0.68635 0.0
O144 O 0.91694 0.17361 0.6668 0.0
O145 O 0.85013 0.10583 0.64809 0.0
O146 O 0.86666 0.10215 0.69182 0.0
C147 C 0.82238 0.19712 0.64993 0.0
O148 O 0.88739 0.16648 0.62231 0.0
O149 O 0.84404 0.14976 0.6173 0.0
C150 C 0.92713 0.1501 0.67513 0.0
O151 O 0.84806 0.20083 0.64255 0.0
O152 O 0.81373 0.17305 0.65816 0.0
C153 C 0.81955 0.1356 0.71226 0.0
Fe154 Fe 0.87643 0.87641 0.67532 0.0
Fe155 Fe 0.82771 0.87451 0.63174 0.0
O156 O 0.85996 0.86051 0.6452 0.0
Fe157 Fe 0.87504 0.83001 0.62905 0.0
O158 O 0.87217 0.80977 0.66239 0.0
O159 O 0.89002 0.84319 0.68981 0.0
O160 O 0.84472 0.87057 0.69733 0.0
C161 C 0.81983 0.878 0.69061 0.0
C162 C 0.9235 0.86358 0.64329 0.0
O163 O 0.81453 0.88693 0.66589 0.0
C164 C 0.85768 0.85989 0.58181 0.0
O165 O 0.86556 0.91256 0.66592 0.0
O166 O 0.84414 0.90884 0.62435 0.0
O167 O 0.91173 0.84027 0.63671 0.0
O168 O 0.90963 0.88283 0.65593 0.0
C169 C 0.81659 0.81733 0.62888 0.0
O170 O 0.83479 0.86475 0.59493 0.0
O171 O 0.87841 0.84829 0.59456 0.0
C172 C 0.85682 0.92367 0.64291 0.0
O173 O 0.80912 0.84115 0.63865 0.0
O174 O 0.84112 0.81404 0.61851 0.0
C175 C 0.88125 0.81803 0.68642 0.0
Fe176 Fe 0.38558 0.13765 0.19856 0.0
Fe177 Fe 0.3836 0.18793 0.15722 0.0
O178 O 0.36913 0.15551 0.16974 0.0
Fe179 Fe 0.33821 0.1411 0.15357 0.0
O180 O 0.31889 0.14282 0.18697 0.0
O181 O 0.35226 0.12341 0.21329 0.0
O182 O 0.38054 0.16755 0.22197 0.0
C183 C 0.38892 0.19243 0.21691 0.0
C184 C 0.37231 0.09254 0.16484 0.0
O185 O 0.39672 0.19967 0.19213 0.0
C186 C 0.36757 0.15957 0.10674 0.0
O187 O 0.42183 0.1489 0.18901 0.0
O188 O 0.41677 0.17129 0.14828 0.0
O189 O 0.34835 0.1037 0.15957 0.0
O190 O 0.39156 0.10653 0.17715 0.0
C191 C 0.32741 0.20047 0.15477 0.0
O192 O 0.37316 0.1822 0.12015 0.0
O193 O 0.3557 0.13881 0.11909 0.0
C194 C 0.43196 0.15776 0.16557 0.0
O195 O 0.35129 0.20661 0.16517 0.0
O196 O 0.3225 0.17589 0.14477 0.0
C197 C 0.32709 0.13243 0.21037 0.0
Fe198 Fe 0.87948 0.36947 0.19321 0.0
Fe199 Fe 0.83804 0.37028 0.14257 0.0
O200 O 0.86798 0.35517 0.16006 0.0
Fe201 Fe 0.88569 0.32556 0.1447 0.0
O202 O 0.88003 0.30373 0.17615 0.0
O203 O 0.89101 0.33555 0.20852 0.0
O204 O 0.84512 0.36276 0.20958 0.0
C205 C 0.82172 0.37168 0.20014 0.0
C206 C 0.93082 0.35973 0.16717 0.0
O207 O 0.81981 0.38126 0.1751 0.0
C208 C 0.87404 0.35591 0.09626 0.0
O209 O 0.87023 0.40619 0.1839 0.0
O210 O 0.85572 0.40469 0.13926 0.0
O211 O 0.92129 0.33676 0.15666 0.0
O212 O 0.9147 0.37705 0.17965 0.0
C213 C 0.82722 0.31295 0.13702 0.0
O214 O 0.85002 0.36209 0.10646 0.0
O215 O 0.8928 0.34449 0.11162 0.0
C216 C 0.86609 0.41829 0.16009 0.0
O217 O 0.81859 0.33697 0.14524 0.0
O218 O 0.85306 0.30921 0.13033 0.0
C219 C 0.88589 0.31011 0.20154 0.0
Fe220 Fe 0.69045 0.86821 0.13489 0.0
Fe221 Fe 0.64007 0.87309 0.1761 0.0
O222 O 0.65675 0.85599 0.14678 0.0
Fe223 Fe 0.64011 0.8265 0.12989 0.0
O224 O 0.67021 0.80356 0.1367 0.0
O225 O 0.70381 0.8333 0.12392 0.0
O226 O 0.70632 0.86155 0.16939 0.0
C227 C 0.69784 0.87246 0.19237 0.0
C228 C 0.66344 0.85863 0.08395 0.0
O229 O 0.67321 0.88291 0.19424 0.0
C230 C 0.59312 0.85864 0.1403 0.0
O231 O 0.68367 0.90548 0.14357 0.0
O232 O 0.639 0.90708 0.15728 0.0
O233 O 0.6527 0.83592 0.0939 0.0
O234 O 0.67684 0.87572 0.09972 0.0
C235 C 0.63159 0.81654 0.18876 0.0
O236 O 0.60361 0.86615 0.16397 0.0
O237 O 0.60823 0.84648 0.12188 0.0
C238 C 0.66102 0.91933 0.14763 0.0
O239 O 0.64067 0.84051 0.19679 0.0
O240 O 0.62489 0.81213 0.16296 0.0
C241 C 0.69577 0.80851 0.13054 0.0
Fe242 Fe 0.15136 0.63486 0.1927 0.0
Fe243 Fe 0.19052 0.63509 0.14059 0.0
O244 O 0.16229 0.65039 0.16015 0.0
Fe245 Fe 0.14548 0.68156 0.14742 0.0
O246 O 0.13784 0.69626 0.1832 0.0
O247 O 0.15956 0.66679 0.21208 0.0
O248 O 0.18733 0.6226 0.20303 0.0
C249 C 0.21152 0.63153 0.19485 0.0
C250 C 0.09918 0.65158 0.16641 0.0
O251 O 0.21501 0.64024 0.16974 0.0
C252 C 0.15554 0.64925 0.09684 0.0
O253 O 0.14258 0.60171 0.1755 0.0
O254 O 0.1824 0.59827 0.15145 0.0
O255 O 0.11107 0.66387 0.14559 0.0
O256 O 0.11355 0.64459 0.18828 0.0
C257 C 0.20151 0.6938 0.13669 0.0
O258 O 0.16783 0.62942 0.11001 0.0
O259 O 0.1504 0.67266 0.10929 0.0
C260 C 0.15988 0.58711 0.16136 0.0
O261 O 0.20404 0.66906 0.12644 0.0
O262 O 0.17876 0.70108 0.14883 0.0
C263 C 0.14956 0.69097 0.207 0.0
Fe264 Fe 0.32902 0.87792 0.87993 0.0
Fe265 Fe 0.37248 0.87961 0.83123 0.0
O266 O 0.35949 0.86386 0.863 0.0
Fe267 Fe 0.37697 0.83386 0.87769 0.0
O268 O 0.3457 0.81218 0.87427 0.0
O269 O 0.31567 0.84295 0.89251 0.0
O270 O 0.30751 0.87207 0.84887 0.0
C271 C 0.31248 0.88114 0.82419 0.0
C272 C 0.36052 0.86563 0.92687 0.0
O273 O 0.33707 0.89023 0.81758 0.0
C274 C 0.42286 0.86531 0.86191 0.0
O275 O 0.33678 0.91539 0.87004 0.0
O276 O 0.37821 0.91323 0.84849 0.0
O277 O 0.36857 0.84269 0.91521 0.0
O278 O 0.34833 0.88452 0.91243 0.0
C279 C 0.37857 0.8237 0.81797 0.0
O280 O 0.41028 0.87165 0.83881 0.0
O281 O 0.40949 0.85366 0.88202 0.0
C282 C 0.35941 0.92734 0.86112 0.0
O283 O 0.36748 0.84716 0.81189 0.0
O284 O 0.38826 0.81907 0.84283 0.0
C285 C 0.32175 0.81788 0.88456 0.0
Fe286 Fe 0.14201 0.38416 0.83019 0.0
Fe287 Fe 0.1847 0.37677 0.87951 0.0
O288 O 0.15382 0.36542 0.86088 0.0
Fe289 Fe 0.13519 0.33473 0.87272 0.0
O290 O 0.14148 0.31702 0.83935 0.0
O291 O 0.12925 0.35224 0.81115 0.0
O292 O 0.17574 0.37884 0.81218 0.0
C293 C 0.19996 0.3847 0.82212 0.0
C294 C 0.0909 0.37165 0.85546 0.0
O295 O 0.20322 0.39042 0.84817 0.0
C296 C 0.14696 0.35996 0.92347 0.0
O297 O 0.15283 0.41932 0.8438 0.0
O298 O 0.16949 0.41122 0.88699 0.0
O299 O 0.10019 0.34715 0.86126 0.0
O300 O 0.10723 0.39067 0.84573 0.0
C301 C 0.19258 0.31913 0.87981 0.0
O302 O 0.17175 0.36521 0.91436 0.0
O303 O 0.12792 0.35049 0.90711 0.0
C304 C 0.15976 0.42803 0.86846 0.0
O305 O 0.20244 0.34317 0.87314 0.0
O306 O 0.16665 0.31619 0.88627 0.0
C307 C 0.13526 0.32627 0.81495 0.0
Fe308 Fe 0.64568 0.14147 0.84159 0.0
Fe309 Fe 0.63829 0.19195 0.88258 0.0
O310 O 0.6561 0.16023 0.8726 0.0
Fe311 Fe 0.68497 0.14775 0.8934 0.0
O312 O 0.70925 0.15107 0.86365 0.0
O313 O 0.68193 0.13026 0.8319 0.0
O314 O 0.65186 0.17212 0.81928 0.0
C315 C 0.64105 0.1963 0.82244 0.0
C316 C 0.65716 0.09667 0.87667 0.0
O317 O 0.62996 0.20335 0.84595 0.0
C318 C 0.6494 0.16451 0.93582 0.0
O319 O 0.60762 0.14958 0.84559 0.0
O320 O 0.60425 0.17336 0.88587 0.0
O321 O 0.6786 0.10996 0.8861 0.0
O322 O 0.63895 0.10911 0.86147 0.0
C323 C 0.69431 0.20657 0.89152 0.0
O324 O 0.64348 0.18648 0.92125 0.0
O325 O 0.66256 0.14404 0.92461 0.0
C326 C 0.59292 0.15849 0.8664 0.0
O327 O 0.67115 0.21262 0.87933 0.0
O328 O 0.69708 0.18311 0.90433 0.0
C329 C 0.70587 0.14033 0.83931 0.0
Fe330 Fe 0.8771 0.69429 0.86833 0.0
Fe331 Fe 0.87395 0.64406 0.82718 0.0
O332 O 0.85923 0.66345 0.85596 0.0
Fe333 Fe 0.82673 0.65233 0.87169 0.0
O334 O 0.80998 0.68603 0.86426 0.0
O335 O 0.84495 0.71343 0.87872 0.0
O336 O 0.87382 0.71125 0.83366 0.0
C337 C 0.88246 0.70077 0.81053 0.0
C338 C 0.8611 0.66992 0.919 0.0
O339 O 0.89008 0.67505 0.80949 0.0
C340 C 0.85211 0.60089 0.86309 0.0
O341 O 0.91275 0.68072 0.86038 0.0
O342 O 0.90574 0.63652 0.84711 0.0
O343 O 0.83718 0.66324 0.90815 0.0
O344 O 0.88108 0.67948 0.90371 0.0
C345 C 0.8179 0.64528 0.81212 0.0
O346 O 0.86042 0.60945 0.83895 0.0
O347 O 0.84076 0.61768 0.88047 0.0
C348 C 0.92164 0.65553 0.85722 0.0
O349 O 0.84328 0.65065 0.80568 0.0
O350 O 0.81085 0.63967 0.83771 0.0
C351 C 0.81933 0.71007 0.87139 0.0
Fe352 Fe 0.19596 0.36708 0.13928 0.0
Fe353 Fe 0.14991 0.37106 0.18528 0.0
O354 O 0.16339 0.35516 0.15387 0.0
Fe355 Fe 0.14439 0.32721 0.13713 0.0
O356 O 0.17367 0.30299 0.14145 0.0
O357 O 0.20668 0.33216 0.12577 0.0
O358 O 0.21505 0.35836 0.17144 0.0
C359 C 0.20974 0.36871 0.19554 0.0
C360 C 0.16455 0.36017 0.09094 0.0
O361 O 0.18536 0.37904 0.20083 0.0
C362 C 0.09997 0.36065 0.15193 0.0
O363 O 0.19118 0.40405 0.15026 0.0
O364 O 0.14805 0.40576 0.16824 0.0
O365 O 0.15521 0.3369 0.10083 0.0
O366 O 0.17907 0.37672 0.10618 0.0
C367 C 0.14001 0.31456 0.19549 0.0
O368 O 0.11196 0.36575 0.17568 0.0
O369 O 0.11375 0.34947 0.13192 0.0
C370 C 0.16906 0.41792 0.15657 0.0
O371 O 0.15132 0.33739 0.20398 0.0
O372 O 0.13033 0.3124 0.17043 0.0
C373 C 0.19873 0.30757 0.13338 0.0
Fe374 Fe 0.18251 0.64668 0.88068 0.0
Fe375 Fe 0.13523 0.64201 0.83589 0.0
O376 O 0.15177 0.66071 0.86408 0.0
Fe377 Fe 0.13767 0.69358 0.87543 0.0
O378 O 0.17013 0.71188 0.86709 0.0
O379 O 0.19876 0.6819 0.8885 0.0
O380 O 0.20174 0.6475 0.84723 0.0
C381 C 0.19359 0.63578 0.82445 0.0
C382 C 0.1538 0.66656 0.92719 0.0
O383 O 0.16831 0.6269 0.82185 0.0
C384 C 0.08895 0.6636 0.86759 0.0
O385 O 0.17201 0.60888 0.87558 0.0
O386 O 0.1287 0.61165 0.8584 0.0
O387 O 0.14789 0.68872 0.91298 0.0
O388 O 0.16495 0.64532 0.91519 0.0
C389 C 0.13289 0.69626 0.81531 0.0
O390 O 0.09913 0.65383 0.84466 0.0
O391 O 0.1042 0.67746 0.88462 0.0
C392 C 0.14813 0.59738 0.86996 0.0
O393 O 0.14095 0.67111 0.81153 0.0
O394 O 0.12505 0.70454 0.83978 0.0
C395 C 0.19385 0.70632 0.87796 0.0
Fe396 Fe 0.37305 0.19032 0.89171 0.0
Fe397 Fe 0.37424 0.14541 0.84374 0.0
O398 O 0.35812 0.16006 0.87464 0.0
Fe399 Fe 0.32632 0.14499 0.88865 0.0
O400 O 0.30702 0.17786 0.88242 0.0
O401 O 0.33885 0.20488 0.90321 0.0
O402 O 0.36933 0.21163 0.85989 0.0
C403 C 0.37751 0.20526 0.83512 0.0
C404 C 0.35766 0.15855 0.93785 0.0
O405 O 0.38487 0.18011 0.8288 0.0
C406 C 0.35621 0.09683 0.87651 0.0
O407 O 0.4099 0.182 0.88315 0.0
O408 O 0.40872 0.14072 0.86141 0.0
O409 O 0.33411 0.15433 0.9256 0.0
O410 O 0.37775 0.17082 0.92486 0.0
C411 C 0.31745 0.13967 0.82957 0.0
O412 O 0.36562 0.10828 0.85375 0.0
O413 O 0.34351 0.11133 0.89519 0.0
C414 C 0.42228 0.15981 0.87473 0.0
O415 O 0.34167 0.14908 0.82281 0.0
O416 O 0.31231 0.13227 0.85482 0.0
C417 C 0.31454 0.20172 0.89212 0.0
Fe418 Fe 0.87615 0.38507 0.83467 0.0
Fe419 Fe 0.87119 0.33721 0.87931 0.0
O420 O 0.85887 0.36971 0.86462 0.0
Fe421 Fe 0.82878 0.38683 0.8794 0.0
O422 O 0.80958 0.38352 0.84608 0.0
O423 O 0.84378 0.40035 0.81914 0.0
O424 O 0.86906 0.35409 0.81328 0.0
C425 C 0.87548 0.32891 0.81954 0.0
C426 C 0.86548 0.43284 0.86508 0.0
O427 O 0.88214 0.32208 0.84483 0.0
C428 C 0.85683 0.37057 0.92788 0.0
O429 O 0.9117 0.37252 0.84425 0.0
O430 O 0.90638 0.35183 0.88592 0.0
O431 O 0.84104 0.42295 0.87075 0.0
O432 O 0.88421 0.41729 0.85406 0.0
C433 C 0.81326 0.32889 0.88216 0.0
O434 O 0.86236 0.34685 0.91631 0.0
O435 O 0.84615 0.39069 0.91364 0.0
C436 C 0.922 0.36362 0.86748 0.0
O437 O 0.83699 0.31981 0.87372 0.0
O438 O 0.81066 0.35417 0.89073 0.0
C439 C 0.81824 0.3925 0.82228 0.0
Fe440 Fe 0.64249 0.88188 0.81867 0.0
Fe441 Fe 0.68387 0.88091 0.86923 0.0
O442 O 0.65394 0.8664 0.85119 0.0
Fe443 Fe 0.63611 0.83626 0.86527 0.0
O444 O 0.64224 0.81575 0.8332 0.0
O445 O 0.63002 0.84865 0.8025 0.0
O446 O 0.67673 0.87507 0.80219 0.0
C447 C 0.70036 0.8835 0.81177 0.0
C448 C 0.59134 0.87125 0.84448 0.0
O449 O 0.70221 0.89305 0.83687 0.0
C450 C 0.64751 0.86431 0.91484 0.0
O451 O 0.65259 0.91812 0.82897 0.0
O452 O 0.66615 0.91483 0.87373 0.0
O453 O 0.6008 0.84762 0.85329 0.0
O454 O 0.60746 0.88934 0.83281 0.0
C455 C 0.69428 0.82378 0.87314 0.0
O456 O 0.67162 0.87119 0.90503 0.0
O457 O 0.62868 0.85398 0.89875 0.0
C458 C 0.65605 0.92917 0.85335 0.0
O459 O 0.70324 0.84795 0.86559 0.0
O460 O 0.6684 0.81978 0.87948 0.0
C461 C 0.63553 0.82302 0.80828 0.0
Fe462 Fe 0.88025 0.63254 0.18199 0.0
Fe463 Fe 0.88149 0.68189 0.13868 0.0
O464 O 0.86468 0.65106 0.15285 0.0
Fe465 Fe 0.83181 0.6389 0.13864 0.0
O466 O 0.81416 0.64347 0.17268 0.0
O467 O 0.84629 0.62111 0.19785 0.0
O468 O 0.87775 0.66349 0.20434 0.0
C469 C 0.88675 0.6881 0.1987 0.0
C470 C 0.86214 0.58774 0.14988 0.0
O471 O 0.89455 0.69471 0.17361 0.0
C472 C 0.85976 0.6529 0.08932 0.0
O473 O 0.91734 0.64097 0.17242 0.0
O474 O 0.91431 0.66294 0.13131 0.0
O475 O 0.83917 0.6011 0.14546 0.0
O476 O 0.88318 0.59999 0.16138 0.0
C477 C 0.82551 0.69881 0.13692 0.0
O478 O 0.87072 0.6745 0.10143 0.0
O479 O 0.84701 0.63401 0.10362 0.0
C480 C 0.92891 0.6501 0.14981 0.0
O481 O 0.85054 0.70379 0.14501 0.0
O482 O 0.8182 0.67418 0.12903 0.0
C483 C 0.82201 0.63241 0.19583 0.0
Fe484 Fe 0.37755 0.88011 0.18878 0.0
Fe485 Fe 0.33085 0.87621 0.14329 0.0
O486 O 0.36152 0.86182 0.15989 0.0
Fe487 Fe 0.37595 0.82899 0.1481 0.0
O488 O 0.37127 0.81296 0.18289 0.0
O489 O 0.38983 0.84806 0.20737 0.0
O490 O 0.34563 0.87747 0.2098 0.0
C491 C 0.32147 0.88604 0.20223 0.0
C492 C 0.42472 0.86349 0.15973 0.0
O493 O 0.31611 0.89155 0.1763 0.0
C494 C 0.36286 0.8536 0.0969 0.0
O495 O 0.36821 0.91568 0.17597 0.0
O496 O 0.34903 0.90886 0.13389 0.0
O497 O 0.41331 0.83929 0.1556 0.0
O498 O 0.41048 0.88383 0.16959 0.0
C499 C 0.31618 0.8198 0.14561 0.0
O500 O 0.33993 0.86312 0.1074 0.0
O501 O 0.38152 0.8424 0.11248 0.0
C502 C 0.36105 0.92488 0.15167 0.0
O503 O 0.31027 0.84508 0.15166 0.0
O504 O 0.34123 0.81291 0.13842 0.0
C505 C 0.38085 0.82275 0.20594 0.0
Fe506 Fe 0.64991 0.13385 0.20013 0.0
Fe507 Fe 0.69371 0.13732 0.15205 0.0
O508 O 0.66318 0.15097 0.16923 0.0
Fe509 Fe 0.64571 0.18163 0.1562 0.0
O510 O 0.63603 0.19477 0.19212 0.0
O511 O 0.65722 0.16499 0.22141 0.0
O512 O 0.68395 0.11958 0.21191 0.0
C513 C 0.70868 0.12899 0.20768 0.0
C514 C 0.59999 0.14976 0.17195 0.0
O515 O 0.7149 0.14057 0.1843 0.0
C516 C 0.66134 0.15207 0.10551 0.0
O517 O 0.64207 0.10214 0.18018 0.0
O518 O 0.684 0.09957 0.15934 0.0
O519 O 0.61243 0.16242 0.15182 0.0
O520 O 0.61311 0.14439 0.19473 0.0
C521 C 0.70169 0.19757 0.14994 0.0
O522 O 0.6751 0.13322 0.11861 0.0
O523 O 0.65291 0.17425 0.11824 0.0
C524 C 0.66026 0.08825 0.16629 0.0
O525 O 0.7082 0.17266 0.14178 0.0
O526 O 0.67736 0.20284 0.15967 0.0
C527 C 0.64708 0.18927 0.21628 0.0
Fe528 Fe 0.37542 0.63646 0.69496 0.0
Fe529 Fe 0.37804 0.68449 0.65115 0.0
O530 O 0.36044 0.65433 0.66528 0.0
Fe531 Fe 0.328 0.64232 0.65011 0.0
O532 O 0.31238 0.63085 0.68469 0.0
O533 O 0.34472 0.64369 0.71607 0.0
O534 O 0.39121 0.66862 0.71115 0.0
C535 C 0.38407 0.69438 0.70808 0.0
C536 C 0.35407 0.59136 0.66097 0.0
O537 O 0.37471 0.70313 0.68451 0.0
C538 C 0.36214 0.65824 0.602 0.0
O539 O 0.40733 0.6283 0.67547 0.0
O540 O 0.41386 0.67178 0.65982 0.0
O541 O 0.34258 0.60742 0.64284 0.0
O542 O 0.36222 0.60107 0.68477 0.0
C543 C 0.31995 0.69991 0.64752 0.0
O544 O 0.38225 0.6677 0.61698 0.0
O545 O 0.33818 0.65216 0.61316 0.0
C546 C 0.423 0.64689 0.66427 0.0
O547 O 0.34555 0.70287 0.63976 0.0
O548 O 0.31081 0.67621 0.6561 0.0
C549 C 0.3194 0.63773 0.70997 0.0
Fe550 Fe 0.68833 0.36931 0.6453 0.0
Fe551 Fe 0.6398 0.37653 0.68889 0.0
O552 O 0.65562 0.35774 0.66033 0.0
Fe553 Fe 0.63864 0.32668 0.64726 0.0
O554 O 0.67136 0.30843 0.63634 0.0
O555 O 0.70538 0.33563 0.65283 0.0
O556 O 0.70358 0.38187 0.67952 0.0
C557 C 0.69584 0.377 0.70503 0.0
C558 C 0.65416 0.35234 0.5976 0.0
O559 O 0.6704 0.37134 0.71092 0.0
C560 C 0.59217 0.36314 0.65948 0.0
O561 O 0.6745 0.4041 0.63668 0.0
O562 O 0.65212 0.41182 0.67706 0.0
O563 O 0.63421 0.34239 0.61257 0.0
O564 O 0.67818 0.35862 0.60861 0.0
C565 C 0.63309 0.31881 0.70449 0.0
O566 O 0.6077 0.38288 0.66873 0.0
O567 O 0.60237 0.33856 0.65569 0.0
C568 C 0.66251 0.42078 0.65378 0.0
O569 O 0.62502 0.34446 0.70641 0.0
O570 O 0.6425 0.30932 0.68128 0.0
C571 C 0.69665 0.31162 0.64492 0.0
Fe572 Fe 0.33333 0.38508 0.38056 0.0
Fe573 Fe 0.37925 0.38141 0.33412 0.0
O574 O 0.36286 0.36741 0.36517 0.0
Fe575 Fe 0.37557 0.33554 0.38086 0.0
O576 O 0.34152 0.31818 0.37558 0.0
O577 O 0.31581 0.35255 0.39346 0.0
O578 O 0.31258 0.38104 0.34865 0.0
C579 C 0.31991 0.38848 0.32398 0.0
C580 C 0.362 0.37031 0.4285 0.0
O581 O 0.34565 0.39459 0.31824 0.0
C582 C 0.42615 0.36151 0.36776 0.0
O583 O 0.34497 0.42087 0.37035 0.0
O584 O 0.38709 0.41479 0.35135 0.0
O585 O 0.36666 0.34608 0.41764 0.0
O586 O 0.35215 0.39022 0.41361 0.0
C587 C 0.38042 0.32486 0.32158 0.0
O588 O 0.41557 0.37021 0.34437 0.0
O589 O 0.41057 0.35058 0.38678 0.0
C590 C 0.36912 0.43044 0.36332 0.0
O591 O 0.37276 0.34937 0.31442 0.0
O592 O 0.38684 0.31917 0.34715 0.0
C593 C 0.31798 0.32735 0.38441 0.0
Fe594 Fe 0.6877 0.64282 0.37045 0.0
Fe595 Fe 0.64002 0.6473 0.32576 0.0
O596 O 0.65673 0.65997 0.35724 0.0
Fe597 Fe 0.64268 0.69006 0.37517 0.0
O598 O 0.67584 0.70967 0.37051 0.0
O599 O 0.70445 0.6754 0.38401 0.0
O600 O 0.70702 0.64902 0.33735 0.0
C601 C 0.69844 0.64216 0.31283 0.0
C602 C 0.66033 0.65391 0.42077 0.0
O603 O 0.67278 0.63531 0.30866 0.0
C604 C 0.59344 0.66156 0.36115 0.0
O605 O 0.6765 0.60716 0.35925 0.0
O606 O 0.63359 0.6127 0.3414 0.0
O607 O 0.65302 0.67793 0.411 0.0
O608 O 0.67103 0.6354 0.40462 0.0
C609 C 0.63719 0.70471 0.31686 0.0
O610 O 0.60407 0.65688 0.33686 0.0
O611 O 0.60826 0.67259 0.38078 0.0
C612 C 0.65249 0.5971 0.35217 0.0
O613 O 0.64535 0.68093 0.30777 0.0
O614 O 0.63007 0.70791 0.34268 0.0
C615 C 0.70028 0.7012 0.37768 0.0
Fe616 Fe 0.37215 0.6927 0.38358 0.0
Fe617 Fe 0.37956 0.64387 0.34029 0.0
O618 O 0.36049 0.66015 0.36841 0.0
Fe619 Fe 0.3289 0.6439 0.38123 0.0
O620 O 0.30797 0.67403 0.36999 0.0
O621 O 0.336 0.70616 0.38956 0.0
O622 O 0.37078 0.71077 0.34931 0.0
C623 C 0.38134 0.70226 0.32613 0.0
C624 C 0.35317 0.66543 0.43158 0.0
O625 O 0.39049 0.67718 0.32346 0.0
C626 C 0.36311 0.59786 0.3764 0.0
O627 O 0.41017 0.68518 0.37961 0.0
O628 O 0.41227 0.64227 0.36109 0.0
O629 O 0.33183 0.65782 0.41725 0.0
O630 O 0.37419 0.677 0.41934 0.0
C631 C 0.32466 0.63368 0.32263 0.0
O632 O 0.37177 0.60755 0.35263 0.0
O633 O 0.34831 0.61293 0.39293 0.0
C634 C 0.42404 0.66295 0.37368 0.0
O635 O 0.34845 0.64467 0.31671 0.0
O636 O 0.3192 0.62653 0.34789 0.0
C637 C 0.3127 0.69927 0.37776 0.0
Fe638 Fe 0.64499 0.33531 0.38027 0.0
Fe639 Fe 0.64557 0.38062 0.33253 0.0
O640 O 0.6604 0.36576 0.36399 0.0
Fe641 Fe 0.69139 0.3814 0.37877 0.0
O642 O 0.71148 0.34939 0.3734 0.0
O643 O 0.67952 0.3198 0.39109 0.0
O644 O 0.64851 0.31464 0.34788 0.0
C645 C 0.63994 0.32144 0.32337 0.0
C646 C 0.66069 0.36517 0.42793 0.0
O647 O 0.63293 0.34676 0.3178 0.0
C648 C 0.66157 0.42881 0.36551 0.0
O649 O 0.60789 0.34552 0.37161 0.0
O650 O 0.61184 0.38694 0.34982 0.0
O651 O 0.68351 0.37159 0.4154 0.0
O652 O 0.64058 0.35339 0.41446 0.0
C653 C 0.70243 0.38375 0.32045 0.0
O654 O 0.65535 0.41753 0.34172 0.0
O655 O 0.673 0.41437 0.38501 0.0
C656 C 0.59685 0.36839 0.36227 0.0
O657 O 0.67836 0.37472 0.31279 0.0
O658 O 0.70574 0.39417 0.34494 0.0
C659 C 0.70475 0.32521 0.38285 0.0
Fe660 Fe 0.37635 0.37061 0.6929 0.0
Fe661 Fe 0.33401 0.37918 0.64376 0.0
O662 O 0.36077 0.35869 0.66063 0.0
Fe663 Fe 0.37172 0.32595 0.64567 0.0
O664 O 0.36147 0.30639 0.67734 0.0
O665 O 0.38282 0.33486 0.70752 0.0
O666 O 0.34217 0.36959 0.71082 0.0
C667 C 0.31993 0.38177 0.70205 0.0
C668 C 0.42303 0.35116 0.66448 0.0
O669 O 0.31859 0.39206 0.67714 0.0
C670 C 0.367 0.35814 0.59749 0.0
O671 O 0.3726 0.40858 0.68474 0.0
O672 O 0.35706 0.41016 0.64066 0.0
O673 O 0.40856 0.32945 0.65773 0.0
O674 O 0.41143 0.37212 0.67655 0.0
C675 C 0.31238 0.32519 0.63748 0.0
O676 O 0.34465 0.36943 0.60737 0.0
O677 O 0.3827 0.34293 0.61294 0.0
C678 C 0.36855 0.42217 0.66179 0.0
O679 O 0.30869 0.3502 0.64611 0.0
O680 O 0.33689 0.31654 0.63084 0.0
C681 C 0.3712 0.31121 0.70187 0.0
Fe682 Fe 0.63657 0.63518 0.6836 0.0
Fe683 Fe 0.68404 0.64032 0.63881 0.0
O684 O 0.65278 0.65362 0.65499 0.0
Fe685 Fe 0.63789 0.68592 0.64307 0.0
O686 O 0.62392 0.69664 0.67807 0.0
O687 O 0.64155 0.66506 0.70733 0.0
O688 O 0.66982 0.62105 0.69829 0.0
C689 C 0.6949 0.63041 0.69553 0.0
C690 C 0.59008 0.65469 0.65059 0.0
O691 O 0.70289 0.6416 0.67244 0.0
C692 C 0.65593 0.65976 0.59165 0.0
O693 O 0.63097 0.6042 0.66184 0.0
O694 O 0.67413 0.60229 0.64394 0.0
O695 O 0.60517 0.66852 0.63328 0.0
O696 O 0.60029 0.64598 0.67404 0.0
C697 C 0.69406 0.69982 0.6432 0.0
O698 O 0.66722 0.63862 0.60378 0.0
O699 O 0.64929 0.68156 0.60595 0.0
C700 C 0.65057 0.59032 0.65011 0.0
O701 O 0.69955 0.67604 0.63155 0.0
O702 O 0.66957 0.70504 0.65239 0.0
C703 C 0.63266 0.6898 0.70265 0.0
H704 H 0.14503 0.31483 0.25297 0.0
H705 H 0.13065 0.259 0.18155 0.0
H706 H 0.13001 0.21793 0.21349 0.0
H707 H 0.13406 0.19776 0.2621 0.0
H708 H 0.14642 0.25468 0.33308 0.0
H709 H 0.14758 0.29524 0.30097 0.0
C710 C 0.14165 0.2937 0.24439 0.0
C711 C 0.13784 0.29 0.215 0.0
C712 C 0.14109 0.27027 0.26282 0.0
C713 C 0.13338 0.26246 0.2042 0.0
C714 C 0.13317 0.23893 0.22241 0.0
C715 C 0.13704 0.21906 0.27039 0.0
C716 C 0.14005 0.22325 0.29985 0.0
C717 C 0.13712 0.24255 0.25179 0.0
C718 C 0.14376 0.25095 0.31045 0.0
C719 C 0.14449 0.27419 0.29214 0.0
H720 H 0.76288 0.14984 0.20872 0.0
H721 H 0.70236 0.10138 0.25831 0.0
H722 H 0.73565 0.09934 0.29789 0.0
H723 H 0.78086 0.11327 0.3195 0.0
H724 H 0.84142 0.16213 0.27039 0.0
H725 H 0.80927 0.16185 0.22967 0.0
C726 C 0.7571 0.13859 0.22806 0.0
C727 C 0.73012 0.1259 0.2305 0.0
C728 C 0.77629 0.13763 0.25097 0.0
C729 C 0.72295 0.11144 0.2558 0.0
C730 C 0.74196 0.11027 0.27853 0.0
C731 C 0.78713 0.1237 0.29984 0.0
C732 C 0.81347 0.13773 0.2981 0.0
C733 C 0.76851 0.12362 0.27651 0.0
C734 C 0.82126 0.15109 0.27239 0.0
C735 C 0.80287 0.15102 0.24905 0.0
H736 H 0.87455 0.76316 0.30925 0.0
H737 H 0.9026 0.82882 0.25135 0.0
H738 H 0.90709 0.79381 0.21321 0.0
H739 H 0.90144 0.74458 0.19581 0.0
H740 H 0.87354 0.67941 0.25455 0.0
H741 H 0.87085 0.71414 0.29263 0.0
C742 C 0.88173 0.76986 0.28833 0.0
C743 C 0.88813 0.79863 0.28323 0.0
C744 C 0.88435 0.74965 0.26652 0.0
C745 C 0.89755 0.80682 0.25595 0.0
C746 C 0.9001 0.7868 0.23408 0.0
C747 C 0.89507 0.73792 0.217 0.0
C748 C 0.88773 0.70932 0.22212 0.0
C749 C 0.89339 0.75814 0.23905 0.0
C750 C 0.87938 0.7012 0.2498 0.0
C751 C 0.87772 0.72109 0.2717 0.0
H752 H 0.246 0.8989 0.31208 0.0
H753 H 0.17931 0.88099 0.25147 0.0
H754 H 0.21403 0.88104 0.21271 0.0
H755 H 0.2639 0.88348 0.19644 0.0
H756 H 0.33044 0.89834 0.25802 0.0
H757 H 0.29523 0.90236 0.29588 0.0
C758 C 0.23896 0.89539 0.29035 0.0
C759 C 0.21008 0.89008 0.2847 0.0
C760 C 0.25908 0.89478 0.2683 0.0
C761 C 0.20143 0.88515 0.25644 0.0
C762 C 0.22127 0.88515 0.23425 0.0
C763 C 0.27059 0.88799 0.21809 0.0
C764 C 0.2997 0.89068 0.2244 0.0
C765 C 0.25023 0.88958 0.23998 0.0
C766 C 0.30815 0.89609 0.25262 0.0
C767 C 0.28804 0.8984 0.2743 0.0
H768 H 0.14265 0.76375 0.69937 0.0
H769 H 0.11778 0.83315 0.75386 0.0
H770 H 0.11425 0.80072 0.79432 0.0
H771 H 0.11966 0.7528 0.8147 0.0
H772 H 0.14503 0.68376 0.75992 0.0
H773 H 0.14676 0.71589 0.71931 0.0
C774 C 0.13629 0.77181 0.72004 0.0
C775 C 0.13049 0.8009 0.72346 0.0
C776 C 0.1344 0.75308 0.74329 0.0
C777 C 0.12235 0.81088 0.7505 0.0
C778 C 0.12035 0.79234 0.77372 0.0
C779 C 0.12534 0.74473 0.79385 0.0
C780 C 0.13215 0.71584 0.7905 0.0
C781 C 0.1265 0.76341 0.77043 0.0
C782 C 0.13962 0.70585 0.76326 0.0
C783 C 0.14068 0.72423 0.73993 0.0
H784 H 0.20627 0.12152 0.75566 0.0
H785 H 0.26203 0.15318 0.68968 0.0
H786 H 0.30096 0.1565 0.72358 0.0
H787 H 0.31931 0.15169 0.7724 0.0
H788 H 0.26357 0.11998 0.83837 0.0
H789 H 0.22499 0.11546 0.80419 0.0
C790 C 0.22697 0.12894 0.74865 0.0
C791 C 0.23102 0.13699 0.72008 0.0
C792 C 0.24949 0.13093 0.76834 0.0
C793 C 0.2581 0.14671 0.71149 0.0
C794 C 0.28051 0.14871 0.7309 0.0
C795 C 0.29879 0.14366 0.77928 0.0
C796 C 0.29454 0.13622 0.80799 0.0
C797 C 0.27645 0.14106 0.75945 0.0
C798 C 0.26765 0.12589 0.81644 0.0
C799 C 0.24543 0.12329 0.79688 0.0
H800 H 0.89138 0.27326 0.82326 0.0
H801 H 0.8612 0.33646 0.76374 0.0
H802 H 0.86149 0.30152 0.72562 0.0
H803 H 0.86942 0.25305 0.70915 0.0
H804 H 0.89926 0.18942 0.76829 0.0
H805 H 0.90002 0.22459 0.80645 0.0
C806 C 0.88495 0.27942 0.80195 0.0
C807 C 0.87635 0.3075 0.79647 0.0
C808 C 0.88508 0.25918 0.77998 0.0
C809 C 0.86803 0.31505 0.76866 0.0
C810 C 0.86814 0.29508 0.74678 0.0
C811 C 0.87626 0.24684 0.73033 0.0
C812 C 0.88433 0.21862 0.73577 0.0
C813 C 0.87654 0.26709 0.7522 0.0
C814 C 0.89299 0.211 0.76343 0.0
C815 C 0.89339 0.23109 0.78532 0.0
H816 H 0.81988 0.88588 0.74883 0.0
H817 H 0.76551 0.86617 0.67742 0.0
H818 H 0.72411 0.86559 0.70834 0.0
H819 H 0.70272 0.87217 0.75509 0.0
H820 H 0.75575 0.89373 0.82695 0.0
H821 H 0.79794 0.89232 0.79659 0.0
C822 C 0.79898 0.88129 0.74021 0.0
C823 C 0.79578 0.87625 0.71086 0.0
C824 C 0.77487 0.88161 0.75813 0.0
C825 C 0.76853 0.87043 0.6999 0.0
C826 C 0.74477 0.87007 0.71755 0.0
C827 C 0.72347 0.87662 0.76417 0.0
C828 C 0.72593 0.88324 0.79323 0.0
C829 C 0.7476 0.87598 0.7466 0.0
C830 C 0.75311 0.88884 0.80457 0.0
C831 C 0.77733 0.88792 0.78723 0.0
H832 H 0.26937 0.13533 0.20921 0.0
H833 H 0.34041 0.1272 0.26676 0.0
H834 H 0.3082 0.12888 0.30755 0.0
H835 H 0.2596 0.13387 0.32706 0.0
H836 H 0.1888 0.13983 0.26888 0.0
H837 H 0.22107 0.1379 0.22839 0.0
C838 C 0.2778 0.13374 0.23067 0.0
C839 C 0.30724 0.13111 0.23487 0.0
C840 C 0.25916 0.13447 0.25403 0.0
C841 C 0.31779 0.12898 0.26286 0.0
C842 C 0.29939 0.13011 0.28625 0.0
C843 C 0.25131 0.1347 0.30551 0.0
C844 C 0.22185 0.13697 0.30104 0.0
C845 C 0.27002 0.13306 0.28212 0.0
C846 C 0.21138 0.13784 0.27296 0.0
C847 C 0.22981 0.13682 0.24974 0.0
H848 H 0.89093 0.20061 0.28016 0.0
H849 H 0.88239 0.26438 0.34547 0.0
H850 H 0.88307 0.30176 0.30933 0.0
H851 H 0.88467 0.31638 0.25914 0.0
H852 H 0.89025 0.25266 0.19342 0.0
H853 H 0.89208 0.21533 0.22965 0.0
C854 C 0.88956 0.22272 0.28647 0.0
C855 C 0.88689 0.2297 0.31551 0.0
C856 C 0.88925 0.24414 0.26547 0.0
C857 C 0.88454 0.25842 0.3233 0.0
C858 C 0.8849 0.27982 0.30263 0.0
C859 C 0.8865 0.29435 0.25271 0.0
C860 C 0.88751 0.28742 0.22355 0.0
C861 C 0.88704 0.27294 0.27364 0.0
C862 C 0.88945 0.25867 0.21567 0.0
C863 C 0.89053 0.23728 0.2364 0.0
H864 H 0.75516 0.8715 0.18981 0.0
H865 H 0.68546 0.88209 0.24845 0.0
H866 H 0.71903 0.88829 0.28788 0.0
H867 H 0.76859 0.88915 0.30581 0.0
H868 H 0.83743 0.87942 0.24571 0.0
H869 H 0.80379 0.87479 0.20688 0.0
C870 C 0.74727 0.87509 0.21122 0.0
C871 C 0.71793 0.87611 0.21625 0.0
C872 C 0.76657 0.879 0.23357 0.0
C873 C 0.70804 0.88119 0.24406 0.0
C874 C 0.7272 0.88476 0.2666 0.0
C875 C 0.77615 0.88646 0.28416 0.0
C876 C 0.80547 0.8845 0.27879 0.0
C877 C 0.75658 0.88362 0.26163 0.0
C878 C 0.81497 0.88081 0.25059 0.0
C879 C 0.79576 0.87809 0.22826 0.0
H880 H 0.16482 0.76718 0.31668 0.0
H881 H 0.10922 0.82226 0.26882 0.0
H882 H 0.10784 0.78806 0.22991 0.0
H883 H 0.1226 0.74243 0.20909 0.0
H884 H 0.17823 0.6876 0.25728 0.0
H885 H 0.17937 0.72173 0.2961 0.0
C886 C 0.15226 0.77166 0.29782 0.0
C887 C 0.13708 0.79725 0.29584 0.0
C888 C 0.15159 0.75193 0.27538 0.0
C889 C 0.12109 0.80272 0.27107 0.0
C890 C 0.1203 0.78317 0.2487 0.0
C891 C 0.13498 0.73797 0.22806 0.0
C892 C 0.15016 0.71238 0.23018 0.0
C893 C 0.13553 0.75772 0.25056 0.0
C894 C 0.16612 0.707 0.25501 0.0
C895 C 0.16685 0.72654 0.27732 0.0
H896 H 0.19902 0.87073 0.75299 0.0
H897 H 0.2556 0.89415 0.68442 0.0
H898 H 0.29514 0.89776 0.71795 0.0
H899 H 0.31407 0.89325 0.76689 0.0
H900 H 0.25681 0.86944 0.83489 0.0
H901 H 0.21745 0.86719 0.80152 0.0
C902 C 0.21995 0.87672 0.74532 0.0
C903 C 0.22419 0.88216 0.71617 0.0
C904 C 0.24266 0.87874 0.76469 0.0
C905 C 0.25159 0.88987 0.70674 0.0
C906 C 0.27429 0.89193 0.72591 0.0
C907 C 0.29295 0.8878 0.77442 0.0
C908 C 0.2886 0.88158 0.80345 0.0
C909 C 0.27013 0.88632 0.75497 0.0
C910 C 0.261 0.87436 0.81273 0.0
C911 C 0.23834 0.87301 0.79363 0.0
H912 H 0.14909 0.27073 0.81663 0.0
H913 H 0.11974 0.33589 0.75903 0.0
H914 H 0.11964 0.30155 0.71978 0.0
H915 H 0.12853 0.25264 0.70188 0.0
H916 H 0.15853 0.18899 0.76113 0.0
H917 H 0.15765 0.22322 0.79947 0.0
C918 C 0.14249 0.27757 0.79556 0.0
C919 C 0.1343 0.30587 0.79089 0.0
C920 C 0.14264 0.25792 0.77325 0.0
C921 C 0.12606 0.3142 0.7633 0.0
C922 C 0.12603 0.29457 0.74083 0.0
C923 C 0.13477 0.24629 0.72319 0.0
C924 C 0.1435 0.21815 0.72843 0.0
C925 C 0.13436 0.26631 0.74554 0.0
C926 C 0.15166 0.21038 0.75625 0.0
C927 C 0.15119 0.22997 0.77835 0.0
H928 H 0.81978 0.15023 0.76849 0.0
H929 H 0.76546 0.11617 0.7026 0.0
H930 H 0.72592 0.11365 0.73618 0.0
H931 H 0.70631 0.12216 0.784 0.0
H932 H 0.76069 0.15683 0.84957 0.0
H933 H 0.8005 0.15788 0.81639 0.0
C934 C 0.79935 0.14212 0.76144 0.0
C935 C 0.79573 0.13338 0.73297 0.0
C936 C 0.77661 0.1408 0.78085 0.0
C937 C 0.76898 0.12303 0.72433 0.0
C938 C 0.74629 0.12158 0.74354 0.0
C939 C 0.72692 0.12973 0.79113 0.0
C940 C 0.73039 0.13928 0.81936 0.0
C941 C 0.74981 0.13052 0.77183 0.0
C942 C 0.75729 0.14923 0.82806 0.0
C943 C 0.78013 0.14992 0.80906 0.0
H944 H 0.88024 0.75838 0.80692 0.0
H945 H 0.88729 0.68308 0.75523 0.0
H946 H 0.88684 0.71215 0.71199 0.0
H947 H 0.88391 0.75946 0.6886 0.0
H948 H 0.87869 0.83423 0.74145 0.0
H949 H 0.87883 0.80499 0.7841 0.0
C950 C 0.88182 0.7483 0.78622 0.0
C951 C 0.8839 0.7186 0.78442 0.0
C952 C 0.88178 0.76512 0.76145 0.0
C953 C 0.88595 0.70595 0.75732 0.0
C954 C 0.88554 0.72255 0.73252 0.0
C955 C 0.88282 0.76926 0.70946 0.0
C956 C 0.88144 0.79903 0.71171 0.0
C957 C 0.88337 0.75222 0.73427 0.0
C958 C 0.88011 0.8114 0.73898 0.0
C959 C 0.8801 0.79469 0.7635 0.0
H960 H 0.27096 0.19542 0.14257 0.0
H961 H 0.33712 0.25736 0.15827 0.0
H962 H 0.30348 0.29577 0.15087 0.0
H963 H 0.25529 0.31198 0.1409 0.0
H964 H 0.18806 0.25072 0.12833 0.0
H965 H 0.22214 0.21185 0.13321 0.0
C966 C 0.27798 0.21733 0.14429 0.0
C967 C 0.3065 0.22346 0.15089 0.0
C968 C 0.25841 0.23944 0.14039 0.0
C969 C 0.31526 0.25198 0.15333 0.0
C970 C 0.29608 0.27402 0.14898 0.0
C971 C 0.24819 0.29012 0.1388 0.0
C972 C 0.21937 0.28416 0.13389 0.0
C973 C 0.26765 0.268 0.14252 0.0
C974 C 0.21026 0.25576 0.13193 0.0
C975 C 0.22969 0.23357 0.13481 0.0
H976 H 0.25114 0.70357 0.88806 0.0
H977 H 0.18252 0.76278 0.87483 0.0
H978 H 0.21546 0.80251 0.87825 0.0
H979 H 0.26416 0.82082 0.8826 0.0
H980 H 0.33337 0.76194 0.89295 0.0
H981 H 0.3 0.72207 0.89338 0.0
C982 C 0.24343 0.72517 0.88614 0.0
C983 C 0.21442 0.73006 0.88108 0.0
C984 C 0.26263 0.74815 0.88765 0.0
C985 C 0.20478 0.75826 0.87848 0.0
C986 C 0.22359 0.78111 0.88052 0.0
C987 C 0.27183 0.79929 0.88541 0.0
C988 C 0.3011 0.79435 0.88785 0.0
C989 C 0.2526 0.77636 0.88482 0.0
C990 C 0.31086 0.76629 0.89098 0.0
C991 C 0.29181 0.74345 0.89118 0.0
H992 H 0.25687 0.20143 0.88432 0.0
H993 H 0.32854 0.25752 0.89722 0.0
H994 H 0.29748 0.29868 0.89394 0.0
H995 H 0.25 0.31905 0.88722 0.0
H996 H 0.17785 0.26323 0.87647 0.0
H997 H 0.20896 0.22187 0.87906 0.0
C998 C 0.26565 0.22266 0.88651 0.0
C999 C 0.29498 0.22632 0.89113 0.0
C1000 C 0.24757 0.24638 0.88494 0.0
C1001 C 0.306 0.25401 0.89395 0.0
C1002 C 0.28827 0.27764 0.89195 0.0
C1003 C 0.2411 0.29783 0.88543 0.0
C1004 C 0.21167 0.29425 0.88168 0.0
C1005 C 0.25904 0.2741 0.88742 0.0
C1006 C 0.20044 0.26658 0.87959 0.0
C1007 C 0.21822 0.2429 0.88099 0.0
H1008 H 0.69458 0.26448 0.88362 0.0
H1009 H 0.7499 0.19279 0.89704 0.0
H1010 H 0.79142 0.22373 0.89437 0.0
H1011 H 0.81247 0.27125 0.88843 0.0
H1012 H 0.75751 0.34359 0.87798 0.0
H1013 H 0.71574 0.31253 0.87925 0.0
C1014 C 0.71572 0.2557 0.88603 0.0
C1015 C 0.71901 0.22635 0.89067 0.0
C1016 C 0.73972 0.27378 0.885 0.0
C1017 C 0.74663 0.21534 0.8938 0.0
C1018 C 0.77048 0.233 0.89214 0.0
C1019 C 0.79135 0.28018 0.8864 0.0
C1020 C 0.78815 0.30968 0.88313 0.0
C1021 C 0.76734 0.26226 0.88779 0.0
C1022 C 0.76058 0.32096 0.88075 0.0
C1023 C 0.73665 0.3032 0.88139 0.0
H1024 H 0.75214 0.82568 0.87243 0.0
H1025 H 0.68101 0.76757 0.87721 0.0
H1026 H 0.71342 0.72732 0.87708 0.0
H1027 H 0.76178 0.70851 0.87445 0.0
H1028 H 0.8331 0.76637 0.871 0.0
H1029 H 0.80074 0.80683 0.87177 0.0
C1030 C 0.74374 0.80422 0.87358 0.0
C1031 C 0.71421 0.79967 0.87484 0.0
C1032 C 0.76249 0.78112 0.87364 0.0
C1033 C 0.70367 0.77171 0.87643 0.0
C1034 C 0.72216 0.74864 0.87622 0.0
C1035 C 0.77024 0.72997 0.87387 0.0
C1036 C 0.79975 0.73445 0.87256 0.0
C1037 C 0.75158 0.75309 0.87463 0.0
C1038 C 0.81043 0.76238 0.87211 0.0
C1039 C 0.79196 0.78552 0.87249 0.0
H1040 H 0.7678 0.69521 0.13235 0.0
H1041 H 0.8366 0.75585 0.13837 0.0
H1042 H 0.80275 0.79494 0.13594 0.0
H1043 H 0.75355 0.81208 0.13258 0.0
H1044 H 0.68457 0.75148 0.1289 0.0
H1045 H 0.7185 0.71236 0.12988 0.0
C1046 C 0.77541 0.71698 0.13298 0.0
C1047 C 0.80477 0.7225 0.13535 0.0
C1048 C 0.75577 0.73944 0.13199 0.0
C1049 C 0.81417 0.75089 0.13654 0.0
C1050 C 0.79481 0.77331 0.13511 0.0
C1051 C 0.74593 0.79032 0.13177 0.0
C1052 C 0.71652 0.7848 0.13041 0.0
C1053 C 0.76556 0.76786 0.13285 0.0
C1054 C 0.70706 0.75641 0.12987 0.0
C1055 C 0.72647 0.73399 0.13043 0.0
H1056 H 0.20348 0.7477 0.15707 0.0
H1057 H 0.25374 0.68595 0.11185 0.0
H1058 H 0.29394 0.71904 0.11081 0.0
H1059 H 0.31512 0.76569 0.12336 0.0
H1060 H 0.26384 0.82661 0.1688 0.0
H1061 H 0.22408 0.79364 0.16916 0.0
C1062 C 0.22313 0.74146 0.14677 0.0
C1063 C 0.22542 0.71439 0.13443 0.0
C1064 C 0.24619 0.76046 0.14641 0.0
C1065 C 0.25123 0.70672 0.12139 0.0
C1066 C 0.27431 0.72561 0.12088 0.0
C1067 C 0.29527 0.77169 0.13337 0.0
C1068 C 0.2926 0.79871 0.1459 0.0
C1069 C 0.27211 0.75254 0.13345 0.0
C1070 C 0.26661 0.8061 0.15876 0.0
C1071 C 0.24373 0.78723 0.15904 0.0
H1072 H 0.75716 0.19746 0.13053 0.0
H1073 H 0.69214 0.2527 0.1641 0.0
H1074 H 0.72448 0.29281 0.16189 0.0
H1075 H 0.77135 0.31258 0.15189 0.0
H1076 H 0.83733 0.25842 0.11888 0.0
H1077 H 0.80456 0.21797 0.11927 0.0
C1078 C 0.75005 0.21828 0.13723 0.0
C1079 C 0.72211 0.22177 0.14747 0.0
C1080 C 0.76894 0.24167 0.13602 0.0
C1081 C 0.71341 0.24907 0.1561 0.0
C1082 C 0.73193 0.27221 0.15487 0.0
C1083 C 0.77859 0.29202 0.14452 0.0
C1084 C 0.80683 0.28872 0.13531 0.0
C1085 C 0.75975 0.26878 0.14503 0.0
C1086 C 0.81572 0.26173 0.12603 0.0
C1087 C 0.79698 0.23849 0.12631 0.0
H1088 H 0.74799 0.65244 0.69819 0.0
H1089 H 0.68646 0.60567 0.74798 0.0
H1090 H 0.71861 0.60642 0.78898 0.0
H1091 H 0.76444 0.62109 0.81092 0.0
H1092 H 0.82471 0.66839 0.75983 0.0
H1093 H 0.79273 0.66679 0.71944 0.0
C1094 C 0.74161 0.64216 0.71789 0.0
C1095 C 0.71491 0.62889 0.71987 0.0
C1096 C 0.75996 0.64293 0.74137 0.0
C1097 C 0.70698 0.61594 0.74576 0.0
C1098 C 0.72531 0.61645 0.76929 0.0
C1099 C 0.77045 0.63109 0.79097 0.0
C1100 C 0.79706 0.64462 0.78848 0.0
C1101 C 0.75185 0.63006 0.76741 0.0
C1102 C 0.80453 0.6575 0.7624 0.0
C1103 C 0.78624 0.65667 0.73917 0.0
H1104 H 0.2014 0.38994 0.76428 0.0
H1105 H 0.25525 0.37982 0.83806 0.0
H1106 H 0.29717 0.37815 0.80762 0.0
H1107 H 0.31861 0.37856 0.75995 0.0
H1108 H 0.26505 0.39052 0.68626 0.0
H1109 H 0.22311 0.39256 0.71671 0.0
C1110 C 0.22232 0.38746 0.77366 0.0
C1111 C 0.22517 0.38502 0.80335 0.0
C1112 C 0.24645 0.38685 0.75606 0.0
C1113 C 0.25246 0.38197 0.81524 0.0
C1114 C 0.27647 0.3809 0.79787 0.0
C1115 C 0.29777 0.38173 0.7506 0.0
C1116 C 0.29497 0.38441 0.72093 0.0
C1117 C 0.27373 0.3832 0.76824 0.0
C1118 C 0.26783 0.38864 0.7091 0.0
C1119 C 0.24379 0.38968 0.72647 0.0
H1120 H 0.32436 0.6505 0.26642 0.0
H1121 H 0.27461 0.6053 0.3293 0.0
H1122 H 0.23593 0.59985 0.29548 0.0
H1123 H 0.2148 0.60965 0.24877 0.0
H1124 H 0.26413 0.65458 0.18545 0.0
H1125 H 0.30397 0.65814 0.21848 0.0
C1126 C 0.3052 0.63918 0.2726 0.0
C1127 C 0.30257 0.62847 0.3005 0.0
C1128 C 0.28267 0.63612 0.25295 0.0
C1129 C 0.2774 0.61394 0.30807 0.0
C1130 C 0.2551 0.61078 0.28872 0.0
C1131 C 0.23432 0.62004 0.24209 0.0
C1132 C 0.23628 0.6318 0.21461 0.0
C1133 C 0.2573 0.62209 0.26122 0.0
C1134 C 0.26188 0.64518 0.20642 0.0
C1135 C 0.28477 0.64733 0.22535 0.0
H1136 H 0.70289 0.37752 0.2625 0.0
H1137 H 0.75799 0.38598 0.3356 0.0
H1138 H 0.79965 0.38188 0.30519 0.0
H1139 H 0.82076 0.37613 0.25783 0.0
H1140 H 0.76619 0.37018 0.18421 0.0
H1141 H 0.72418 0.37294 0.21471 0.0
C1142 C 0.72402 0.37854 0.2717 0.0
C1143 C 0.72728 0.3822 0.30123 0.0
C1144 C 0.74806 0.37655 0.25401 0.0
C1145 C 0.75483 0.38351 0.31287 0.0
C1146 C 0.77873 0.38102 0.29553 0.0
C1147 C 0.79967 0.37534 0.24851 0.0
C1148 C 0.79656 0.37296 0.21888 0.0
C1149 C 0.77563 0.37756 0.26608 0.0
C1150 C 0.7691 0.37221 0.20702 0.0
C1151 C 0.74507 0.37374 0.22443 0.0
H1152 H 0.24899 0.65152 0.82302 0.0
H1153 H 0.18347 0.61243 0.77182 0.0
H1154 H 0.21631 0.60933 0.73159 0.0
H1155 H 0.26382 0.61879 0.71054 0.0
H1156 H 0.32825 0.65834 0.76308 0.0
H1157 H 0.29565 0.66014 0.80282 0.0
C1158 C 0.24186 0.64212 0.80316 0.0
C1159 C 0.21383 0.63218 0.80056 0.0
C1160 C 0.26069 0.64056 0.78012 0.0
C1161 C 0.20501 0.62018 0.77452 0.0
C1162 C 0.22375 0.61847 0.75143 0.0
C1163 C 0.27067 0.62774 0.73069 0.0
C1164 C 0.29856 0.63824 0.73365 0.0
C1165 C 0.25166 0.62879 0.75389 0.0
C1166 C 0.30704 0.64983 0.76002 0.0
C1167 C 0.28838 0.65097 0.78292 0.0
H1168 H 0.76367 0.37409 0.82063 0.0
H1169 H 0.82868 0.41276 0.76838 0.0
H1170 H 0.7969 0.41137 0.72717 0.0
H1171 H 0.75052 0.39821 0.70567 0.0
H1172 H 0.68657 0.35901 0.75911 0.0
H1173 H 0.7181 0.36154 0.7998 0.0
C1174 C 0.77089 0.38248 0.80032 0.0
C1175 C 0.79847 0.39364 0.79772 0.0
C1176 C 0.75269 0.38138 0.77671 0.0
C1177 C 0.80747 0.40416 0.77109 0.0
C1178 C 0.78934 0.40328 0.74744 0.0
C1179 C 0.74356 0.39023 0.72621 0.0
C1180 C 0.71611 0.37861 0.72918 0.0
C1181 C 0.76191 0.39174 0.74993 0.0
C1182 C 0.70745 0.36834 0.75605 0.0
C1183 C 0.72548 0.36971 0.77949 0.0
H1184 H 0.32348 0.37369 0.26803 0.0
H1185 H 0.26547 0.40577 0.33121 0.0
H1186 H 0.22628 0.40305 0.29716 0.0
H1187 H 0.20787 0.38946 0.25001 0.0
H1188 H 0.26551 0.35469 0.18768 0.0
H1189 H 0.30506 0.36031 0.22068 0.0
C1190 C 0.30235 0.38058 0.27408 0.0
C1191 C 0.29744 0.39022 0.30196 0.0
C1192 C 0.27964 0.37806 0.25464 0.0
C1193 C 0.26981 0.39841 0.30979 0.0
C1194 C 0.24734 0.39674 0.29038 0.0
C1195 C 0.22907 0.38314 0.24362 0.0
C1196 C 0.23351 0.3717 0.21631 0.0
C1197 C 0.25188 0.38618 0.26285 0.0
C1198 C 0.26125 0.36354 0.20853 0.0
C1199 C 0.28403 0.36682 0.22738 0.0
H1200 H 0.75605 0.63347 0.31361 0.0
H1201 H 0.68542 0.6486 0.25697 0.0
H1202 H 0.71713 0.64689 0.21596 0.0
H1203 H 0.76483 0.64115 0.19591 0.0
H1204 H 0.83549 0.62383 0.25183 0.0
H1205 H 0.80396 0.62613 0.29316 0.0
C1206 C 0.74768 0.63643 0.29228 0.0
C1207 C 0.7184 0.64115 0.2884 0.0
C1208 C 0.76602 0.63487 0.26858 0.0
C1209 C 0.70782 0.64473 0.26059 0.0
C1210 C 0.72595 0.64381 0.23708 0.0
C1211 C 0.77334 0.63776 0.21712 0.0
C1212 C 0.80249 0.63225 0.2207 0.0
C1213 C 0.75506 0.63883 0.24078 0.0
C1214 C 0.8131 0.62784 0.24839 0.0
C1215 C 0.79509 0.6293 0.27209 0.0
H1216 H 0.26198 0.69863 0.64468 0.0
H1217 H 0.33369 0.75611 0.64474 0.0
H1218 H 0.30165 0.79663 0.64125 0.0
H1219 H 0.25331 0.81588 0.63877 0.0
H1220 H 0.18152 0.75852 0.63706 0.0
H1221 H 0.21354 0.71791 0.64043 0.0
C1222 C 0.27059 0.72002 0.64394 0.0
C1223 C 0.30022 0.72429 0.64503 0.0
C1224 C 0.25203 0.74328 0.64154 0.0
C1225 C 0.31101 0.75217 0.6438 0.0
C1226 C 0.29269 0.77539 0.64187 0.0
C1227 C 0.24463 0.7945 0.63902 0.0
C1228 C 0.21501 0.79031 0.63765 0.0
C1229 C 0.26317 0.77121 0.64076 0.0
C1230 C 0.20421 0.7624 0.63788 0.0
C1231 C 0.22252 0.73914 0.63994 0.0
H1232 H 0.31718 0.26992 0.37887 0.0
H1233 H 0.26211 0.34206 0.39036 0.0
H1234 H 0.22045 0.31086 0.38892 0.0
H1235 H 0.19954 0.26266 0.38456 0.0
H1236 H 0.25547 0.19085 0.37535 0.0
H1237 H 0.29672 0.22229 0.37547 0.0
C1238 C 0.29608 0.27885 0.38114 0.0
C1239 C 0.29283 0.30827 0.38482 0.0
C1240 C 0.27227 0.26081 0.38057 0.0
C1241 C 0.26528 0.31944 0.38777 0.0
C1242 C 0.2414 0.30163 0.3868 0.0
C1243 C 0.22077 0.25402 0.38246 0.0
C1244 C 0.22446 0.2245 0.38003 0.0
C1245 C 0.24461 0.27223 0.38319 0.0
C1246 C 0.25209 0.2135 0.37752 0.0
C1247 C 0.27572 0.23145 0.37754 0.0
H1248 H 0.20224 0.77381 0.37166 0.0
H1249 H 0.26436 0.84146 0.37123 0.0
H1250 H 0.30281 0.80647 0.37295 0.0
H1251 H 0.3184 0.75659 0.37597 0.0
H1252 H 0.25574 0.68935 0.3741 0.0
H1253 H 0.2177 0.72437 0.37184 0.0
C1254 C 0.22421 0.78091 0.37204 0.0
C1255 C 0.23054 0.8101 0.37179 0.0
C1256 C 0.246 0.76079 0.37266 0.0
C1257 C 0.25904 0.81905 0.37156 0.0
C1258 C 0.28096 0.79908 0.37261 0.0
C1259 C 0.29639 0.74966 0.37515 0.0
C1260 C 0.28983 0.72048 0.37557 0.0
C1261 C 0.27465 0.7699 0.37344 0.0
C1262 C 0.26131 0.7117 0.37391 0.0
C1263 C 0.23956 0.73169 0.37267 0.0
H1264 H 0.70098 0.7572 0.36231 0.0
H1265 H 0.75465 0.69085 0.3957 0.0
H1266 H 0.79531 0.72317 0.39547 0.0
H1267 H 0.81621 0.77021 0.38467 0.0
H1268 H 0.76207 0.8361 0.35091 0.0
H1269 H 0.72146 0.80414 0.35248 0.0
C1270 C 0.7215 0.74982 0.36976 0.0
C1271 C 0.72456 0.72156 0.37905 0.0
C1272 C 0.74496 0.76848 0.36942 0.0
C1273 C 0.75149 0.71246 0.38845 0.0
C1274 C 0.77487 0.73094 0.38828 0.0
C1275 C 0.79553 0.7776 0.37774 0.0
C1276 C 0.79244 0.80565 0.36774 0.0
C1277 C 0.77195 0.75899 0.37862 0.0
C1278 C 0.76532 0.81473 0.35882 0.0
C1279 C 0.74193 0.79642 0.35967 0.0
H1280 H 0.70051 0.26736 0.38086 0.0
H1281 H 0.7606 0.33585 0.39257 0.0
H1282 H 0.79937 0.30191 0.39659 0.0
H1283 H 0.81668 0.25296 0.39526 0.0
H1284 H 0.75754 0.18429 0.38042 0.0
H1285 H 0.71811 0.21794 0.37914 0.0
C1286 C 0.72206 0.27474 0.38457 0.0
C1287 C 0.72763 0.30404 0.38655 0.0
C1288 C 0.74451 0.25508 0.38618 0.0
C1289 C 0.75574 0.31339 0.3909 0.0
C1290 C 0.77796 0.29401 0.39323 0.0
C1291 C 0.79513 0.24532 0.392 0.0
C1292 C 0.79008 0.21615 0.38812 0.0
C1293 C 0.77265 0.26483 0.39068 0.0
C1294 C 0.76205 0.20666 0.38346 0.0
C1295 C 0.73946 0.22589 0.38275 0.0
H1296 H 0.7642 0.19545 0.64793 0.0
H1297 H 0.83547 0.25347 0.64801 0.0
H1298 H 0.80313 0.2938 0.64656 0.0
H1299 H 0.75459 0.31285 0.64586 0.0
H1300 H 0.68316 0.25512 0.64386 0.0
H1301 H 0.71548 0.2146 0.64537 0.0
C1302 C 0.77264 0.21691 0.64756 0.0
C1303 C 0.80228 0.22134 0.64806 0.0
C1304 C 0.75386 0.24014 0.64637 0.0
C1305 C 0.81281 0.24935 0.64743 0.0
C1306 C 0.7943 0.27249 0.6467 0.0
C1307 C 0.74608 0.29141 0.6457 0.0
C1308 C 0.71646 0.28709 0.64477 0.0
C1309 C 0.7648 0.26817 0.64623 0.0
C1310 C 0.70585 0.25911 0.64439 0.0
C1311 C 0.72433 0.23589 0.64536 0.0
H1312 H 0.31257 0.27004 0.62006 0.0
H1313 H 0.25704 0.33576 0.65154 0.0
H1314 H 0.21757 0.30207 0.653 0.0
H1315 H 0.19945 0.25353 0.64787 0.0
H1316 H 0.255 0.18755 0.61706 0.0
H1317 H 0.2938 0.2219 0.61277 0.0
C1318 C 0.29178 0.27711 0.62698 0.0
C1319 C 0.28786 0.30543 0.63571 0.0
C1320 C 0.26919 0.25756 0.62806 0.0
C1321 C 0.26072 0.31414 0.64464 0.0
C1322 C 0.23812 0.29486 0.64558 0.0
C1323 C 0.21998 0.24664 0.64003 0.0
C1324 C 0.22429 0.21794 0.63289 0.0
C1325 C 0.24223 0.26644 0.63774 0.0
C1326 C 0.25105 0.20948 0.6227 0.0
C1327 C 0.27328 0.22911 0.62029 0.0
H1328 H 0.76621 0.81228 0.65693 0.0
H1329 H 0.822 0.76752 0.59965 0.0
H1330 H 0.78978 0.72681 0.59954 0.0
H1331 H 0.7453 0.7038 0.61544 0.0
H1332 H 0.69018 0.74888 0.67327 0.0
H1333 H 0.72257 0.78916 0.67348 0.0
C1334 C 0.77123 0.79371 0.64427 0.0
C1335 C 0.79638 0.79312 0.6282 0.0
C1336 C 0.75275 0.7702 0.64447 0.0
C1337 C 0.80273 0.76866 0.61221 0.0
C1338 C 0.78433 0.74528 0.61214 0.0
C1339 C 0.74048 0.72237 0.62818 0.0
C1340 C 0.71519 0.72327 0.64407 0.0
C1341 C 0.75925 0.74576 0.62821 0.0
C1342 C 0.70933 0.74758 0.66053 0.0
C1343 C 0.72786 0.77074 0.66072 0.0
H1344 H 0.62104 0.25088 0.82048 0.0
H1345 H 0.65967 0.18588 0.76855 0.0
H1346 H 0.65967 0.21773 0.72776 0.0
H1347 H 0.64976 0.26389 0.70684 0.0
H1348 H 0.61194 0.32987 0.75795 0.0
H1349 H 0.61051 0.29766 0.79896 0.0
C1350 C 0.62934 0.24365 0.80022 0.0
C1351 C 0.64027 0.21593 0.7977 0.0
C1352 C 0.62944 0.2622 0.77665 0.0
C1353 C 0.65107 0.20702 0.77124 0.0
C1354 C 0.65111 0.22523 0.74781 0.0
C1355 C 0.64099 0.2713 0.72686 0.0
C1356 C 0.63085 0.29927 0.72921 0.0
C1357 C 0.64045 0.25284 0.7503 0.0
C1358 C 0.61979 0.30842 0.75546 0.0
C1359 C 0.61902 0.29003 0.77895 0.0
H1360 H 0.39221 0.76687 0.82168 0.0
H1361 H 0.37138 0.83324 0.76151 0.0
H1362 H 0.37265 0.79949 0.7227 0.0
H1363 H 0.3774 0.75129 0.70559 0.0
H1364 H 0.39744 0.68356 0.7642 0.0
H1365 H 0.39899 0.71766 0.80361 0.0
C1366 C 0.38822 0.77392 0.80004 0.0
C1367 C 0.38155 0.8026 0.79471 0.0
C1368 C 0.38876 0.75418 0.77744 0.0
C1369 C 0.37635 0.81134 0.76647 0.0
C1370 C 0.37709 0.79204 0.74411 0.0
C1371 C 0.38229 0.74387 0.72693 0.0
C1372 C 0.38723 0.71487 0.73187 0.0
C1373 C 0.3829 0.76342 0.74937 0.0
C1374 C 0.39363 0.7058 0.75973 0.0
C1375 C 0.39441 0.72528 0.78231 0.0
H1376 H 0.63108 0.70236 0.25935 0.0
H1377 H 0.63765 0.76128 0.32937 0.0
H1378 H 0.6356 0.80126 0.2961 0.0
H1379 H 0.63357 0.81943 0.24688 0.0
H1380 H 0.62537 0.76017 0.1772 0.0
H1381 H 0.62618 0.7205 0.21059 0.0
C1382 C 0.63199 0.72396 0.26734 0.0
C1383 C 0.63464 0.72884 0.29677 0.0
C1384 C 0.63043 0.74682 0.24815 0.0
C1385 C 0.63549 0.75695 0.30681 0.0
C1386 C 0.6344 0.77982 0.2878 0.0
C1387 C 0.63172 0.79785 0.23902 0.0
C1388 C 0.62943 0.79286 0.20953 0.0
C1389 C 0.63206 0.77502 0.25839 0.0
C1390 C 0.62696 0.76472 0.19976 0.0
C1391 C 0.62758 0.74195 0.21884 0.0
H1392 H 0.38357 0.26745 0.328 0.0
H1393 H 0.38456 0.33402 0.26455 0.0
H1394 H 0.38903 0.2989 0.22688 0.0
H1395 H 0.39112 0.24948 0.21168 0.0
H1396 H 0.38756 0.18235 0.27432 0.0
H1397 H 0.38581 0.21751 0.31257 0.0
C1398 C 0.38497 0.27422 0.30594 0.0
C1399 C 0.38377 0.30327 0.29912 0.0
C1400 C 0.38708 0.25386 0.28423 0.0
C1401 C 0.38531 0.31176 0.27041 0.0
C1402 C 0.38793 0.29172 0.24881 0.0
C1403 C 0.39031 0.24252 0.23371 0.0
C1404 C 0.38969 0.21342 0.24018 0.0
C1405 C 0.38866 0.26275 0.25546 0.0
C1406 C 0.38814 0.2047 0.26881 0.0
C1407 C 0.38709 0.22476 0.29068 0.0
H1408 H 0.37093 0.19986 0.77778 0.0
H1409 H 0.38618 0.26179 0.84374 0.0
H1410 H 0.38602 0.29989 0.80837 0.0
H1411 H 0.3807 0.31582 0.75884 0.0
H1412 H 0.36265 0.25434 0.69309 0.0
H1413 H 0.36455 0.21601 0.72817 0.0
C1414 C 0.37453 0.22168 0.78431 0.0
C1415 C 0.37886 0.22796 0.81329 0.0
C1416 C 0.37367 0.24362 0.76392 0.0
C1417 C 0.38288 0.25638 0.82155 0.0
C1418 C 0.38276 0.2782 0.80135 0.0
C1419 C 0.37726 0.29403 0.75215 0.0
C1420 C 0.3717 0.28801 0.72333 0.0
C1421 C 0.37802 0.2721 0.7725 0.0
C1422 C 0.36695 0.25965 0.71513 0.0
C1423 C 0.36812 0.23766 0.73517 0.0
H1424 H 0.64479 0.76596 0.81277 0.0
H1425 H 0.61983 0.83091 0.75277 0.0
H1426 H 0.61562 0.79536 0.7153 0.0
H1427 H 0.61999 0.74608 0.69913 0.0
H1428 H 0.64558 0.68115 0.75883 0.0
H1429 H 0.64836 0.71644 0.79676 0.0
C1430 C 0.63832 0.77236 0.79154 0.0
C1431 C 0.63262 0.80114 0.78571 0.0
C1432 C 0.63598 0.7518 0.76997 0.0
C1433 C 0.62435 0.80896 0.75797 0.0
C1434 C 0.62191 0.78863 0.73647 0.0
C1435 C 0.6259 0.73956 0.72049 0.0
C1436 C 0.63241 0.71093 0.72607 0.0
C1437 C 0.62775 0.76001 0.74219 0.0
C1438 C 0.64033 0.70299 0.75388 0.0
C1439 C 0.64201 0.72318 0.77561 0.0
H1440 H 0.65696 0.26622 0.3261 0.0
H1441 H 0.61831 0.3273 0.26949 0.0
H1442 H 0.61659 0.29185 0.23164 0.0
H1443 H 0.62703 0.24372 0.21412 0.0
H1444 H 0.66625 0.18308 0.27086 0.0
H1445 H 0.6667 0.21813 0.30893 0.0
C1446 C 0.64796 0.27179 0.30557 0.0
C1447 C 0.63773 0.29945 0.30079 0.0
C1448 C 0.6472 0.25135 0.28377 0.0
C1449 C 0.62634 0.30621 0.27389 0.0
C1450 C 0.62536 0.28593 0.25215 0.0
C1451 C 0.63555 0.23811 0.23484 0.0
C1452 C 0.6465 0.21069 0.2395 0.0
C1453 C 0.63588 0.25847 0.25678 0.0
C1454 C 0.65759 0.20393 0.26654 0.0
C1455 C 0.65789 0.224 0.28841 0.0
H1456 H 0.38244 0.76512 0.20734 0.0
H1457 H 0.3825 0.83889 0.26172 0.0
H1458 H 0.38255 0.80834 0.30393 0.0
H1459 H 0.38154 0.7604 0.32544 0.0
H1460 H 0.3838 0.68699 0.2705 0.0
H1461 H 0.38391 0.71761 0.22863 0.0
C1462 C 0.38255 0.77451 0.22843 0.0
C1463 C 0.3824 0.8042 0.23138 0.0
C1464 C 0.38297 0.75686 0.25257 0.0
C1465 C 0.38279 0.81606 0.25887 0.0
C1466 C 0.38269 0.79861 0.28302 0.0
C1467 C 0.38216 0.75116 0.30429 0.0
C1468 C 0.3827 0.72146 0.30114 0.0
C1469 C 0.38265 0.76895 0.28015 0.0
C1470 C 0.38364 0.70979 0.27358 0.0
C1471 C 0.38358 0.72728 0.24957 0.0
H1472 H 0.17349 0.96694 0.39433 0.0
H1473 H 0.1125 0.95953 0.32598 0.0
H1474 H 0.10659 0.01096 0.32524 0.0
H1475 H 0.12221 0.05849 0.34079 0.0
H1476 H 0.18456 0.06565 0.40788 0.0
H1477 H 0.18614 0.01412 0.41249 0.0
C1478 C 0.15862 0.97651 0.37953 0.0
C1479 C 0.14377 0.95934 0.36002 0.0
C1480 C 0.15565 1.00621 0.37884 0.0
C1481 C 0.12451 0.97221 0.34104 0.0
C1482 C 0.12108 1.00167 0.34057 0.0
C1483 C 0.13575 0.04877 0.35673 0.0
C1484 C 0.15344 0.06591 0.37373 0.0
C1485 C 0.13706 0.01897 0.35889 0.0
C1486 C 0.17095 0.05295 0.39426 0.0
C1487 C 0.17191 0.02344 0.39693 0.0
H1488 H 0.96615 0.12701 0.36147 0.0
H1489 H 0.9581 0.20178 0.4139 0.0
H1490 H 0.00984 0.20584 0.41681 0.0
H1491 H 0.05748 0.19061 0.40068 0.0
H1492 H 0.06449 0.11732 0.34607 0.0
H1493 H 0.01321 0.11017 0.348 0.0
C1494 C 0.97563 0.144 0.37388 0.0
C1495 C 0.95817 0.16418 0.38723 0.0
C1496 C 1.00534 0.14663 0.37489 0.0
C1497 C 0.97098 0.18604 0.40321 0.0
C1498 C 1.00061 0.18842 0.40485 0.0
C1499 C 0.04777 0.17287 0.38959 0.0
C1500 C 0.06473 0.15469 0.37306 0.0
C1501 C 0.01803 0.16922 0.39021 0.0
C1502 C 0.05185 0.13183 0.35867 0.0
C1503 C 0.02252 0.12769 0.35977 0.0
H1504 H 0.8894 0.05971 0.33369 0.0
H1505 H 0.84895 0.06147 0.41621 0.0
H1506 H 0.84627 0.00971 0.41656 0.0
H1507 H 0.85249 0.96382 0.39204 0.0
H1508 H 0.89254 0.96254 0.30927 0.0
H1509 H 0.89826 0.0139 0.31061 0.0
C1510 C 0.8803 0.04882 0.35194 0.0
C1511 C 0.86923 0.06466 0.37476 0.0
C1512 C 0.87847 0.01895 0.3519 0.0
C1513 C 0.85753 0.04998 0.39821 0.0
C1514 C 0.8559 0.02029 0.39843 0.0
C1515 C 0.86263 0.97474 0.37438 0.0
C1516 C 0.87175 0.95917 0.35048 0.0
C1517 C 0.86581 1.00454 0.37515 0.0
C1518 C 0.88503 0.97382 0.32788 0.0
C1519 C 0.88837 1.0033 0.32859 0.0
H1520 H 0.96476 0.8266 0.37187 0.0
H1521 H 0.95712 0.91345 0.34299 0.0
H1522 H 1.00812 0.92014 0.34756 0.0
H1523 H 0.05527 0.90022 0.35519 0.0
H1524 H 0.06348 0.81334 0.38363 0.0
H1525 H 0.01194 0.80807 0.38424 0.0
C1526 C 0.97422 0.84704 0.36683 0.0
C1527 C 0.95719 0.86922 0.35651 0.0
C1528 C 1.00372 0.85081 0.36932 0.0
C1529 C 0.96976 0.89577 0.3505 0.0
C1530 C 0.99896 0.8997 0.35313 0.0
C1531 C 0.04581 0.88022 0.36183 0.0
C1532 C 0.06321 0.8571 0.3688 0.0
C1533 C 0.01621 0.87716 0.36179 0.0
C1534 C 0.05058 0.83145 0.37782 0.0
C1535 C 0.02108 0.82835 0.3781 0.0
H1536 H 0.18505 0.05364 0.62916 0.0
H1537 H 0.11941 0.05928 0.69318 0.0
H1538 H 0.11346 1.00788 0.69243 0.0
H1539 H 0.12894 0.96122 0.6761 0.0
H1540 H 0.19378 0.9548 0.61151 0.0
H1541 H 0.19767 1.00667 0.60962 0.0
C1542 C 0.16939 0.04359 0.64285 0.0
C1543 C 0.153 0.06025 0.66148 0.0
C1544 C 0.16589 0.01394 0.64219 0.0
C1545 C 0.13242 0.04699 0.67874 0.0
C1546 C 0.129 0.01757 0.67837 0.0
C1547 C 0.14377 0.97118 0.66143 0.0
C1548 C 0.16129 0.95425 0.64424 0.0
C1549 C 0.14593 1.00084 0.66054 0.0
C1550 C 0.18006 0.9674 0.62498 0.0
C1551 C 0.18242 0.99704 0.62403 0.0
H1552 H 0.96594 0.17739 0.64201 0.0
H1553 H 0.95885 0.11362 0.70773 0.0
H1554 H 0.01067 0.10984 0.7099 0.0
H1555 H 0.05844 0.12618 0.6943 0.0
H1556 H 0.06445 0.18852 0.62695 0.0
H1557 H 0.01295 0.19122 0.62434 0.0
C1558 C 0.97571 0.16257 0.65674 0.0
C1559 C 0.95847 0.14601 0.67481 0.0
C1560 C 1.0055 0.16029 0.6577 0.0
C1561 C 0.97155 0.12664 0.69351 0.0
C1562 C 1.00124 0.12454 0.69487 0.0
C1563 C 0.04845 0.14026 0.67902 0.0
C1564 C 0.06548 0.15721 0.66101 0.0
C1565 C 0.0185 0.14151 0.67728 0.0
C1566 C 0.05206 0.17514 0.6411 0.0
C1567 C 0.0225 0.1768 0.63959 0.0
H1568 H 0.83954 0.05602 0.62626 0.0
H1569 H 0.89308 0.05669 0.70107 0.0
H1570 H 0.8982 1.00544 0.6983 0.0
H1571 H 0.88526 0.96026 0.67698 0.0
H1572 H 0.83074 0.95793 0.60304 0.0
H1573 H 0.82865 0.00995 0.6029 0.0
C1574 C 0.85251 0.04495 0.64178 0.0
C1575 C 0.8656 0.06025 0.66406 0.0
C1576 C 0.85518 0.01516 0.6403 0.0
C1577 C 0.88241 0.04552 0.68394 0.0
C1578 C 0.88544 0.01615 0.68236 0.0
C1579 C 0.87301 0.97102 0.66065 0.0
C1580 C 0.85793 0.9551 0.64025 0.0
C1581 C 0.87152 1.00074 0.661 0.0
C1582 C 0.8425 0.96959 0.61909 0.0
C1583 C 0.8412 0.99936 0.61907 0.0
H1584 H 0.96212 0.89877 0.6704 0.0
H1585 H 0.95563 0.83247 0.60723 0.0
H1586 H 1.00706 0.82894 0.60513 0.0
H1587 H 0.05391 0.8415 0.62385 0.0
H1588 H 0.06174 0.90815 0.6863 0.0
H1589 H 0.01015 0.91478 0.68587 0.0
C1590 C 0.97199 0.88395 0.65582 0.0
C1591 C 0.95484 0.86567 0.63931 0.0
C1592 C 1.00195 0.88179 0.65478 0.0
C1593 C 0.96814 0.84657 0.62052 0.0
C1594 C 0.99765 0.84446 0.61928 0.0
C1595 C 0.04438 0.85761 0.63726 0.0
C1596 C 0.0617 0.87401 0.65533 0.0
C1597 C 0.01475 0.86139 0.63683 0.0
C1598 C 0.04896 0.89512 0.67222 0.0
C1599 C 0.01939 0.89889 0.67204 0.0
H1600 H 0.34089 0.12673 0.06705 0.0
H1601 H 0.40468 0.19214 0.07663 0.0
H1602 H 0.40944 0.19578 0.02501 0.0
H1603 H 0.39263 0.18326 0.97705 0.0
H1604 H 0.32694 0.11974 0.9676 0.0
H1605 H 0.32599 0.11232 0.01904 0.0
C1606 C 0.35608 0.14149 0.05782 0.0
C1607 C 0.37218 0.15929 0.07561 0.0
C1608 C 0.35826 0.14397 0.02807 0.0
C1609 C 0.39175 0.17841 0.06335 0.0
C1610 C 0.39453 0.18051 0.03382 0.0
C1611 C 0.37841 0.16754 0.98625 0.0
C1612 C 0.35973 0.15229 0.96862 0.0
C1613 C 0.37746 0.16385 0.01595 0.0
C1614 C 0.34132 0.13203 0.98082 0.0
C1615 C 0.34075 0.12773 1.01023 0.0
H1616 H 0.89082 0.34016 0.96377 0.0
H1617 H 0.82935 0.40798 0.96245 0.0
H1618 H 0.83088 0.41069 0.01431 0.0
H1619 H 0.84707 0.39171 0.06017 0.0
H1620 H 0.90963 0.32501 0.06208 0.0
H1621 H 0.91061 0.32426 1.00992 0.0
C1622 C 0.87788 0.35562 0.97485 0.0
C1623 C 0.85972 0.37358 0.95921 0.0
C1624 C 0.87906 0.3573 1.00478 0.0
C1625 C 0.84345 0.39384 0.97388 0.0
C1626 C 0.84425 0.39537 1.00358 0.0
C1627 C 0.86116 0.3772 0.04918 0.0
C1628 C 0.87803 0.35825 0.065 0.0
C1629 C 0.86161 0.37691 0.01926 0.0
C1630 C 0.89645 0.33985 0.05044 0.0
C1631 C 0.89686 0.33928 0.0206 0.0
H1632 H 0.67915 0.8916 0.95464 0.0
H1633 H 0.60732 0.83502 0.94555 0.0
H1634 H 0.60554 0.82855 0.99723 0.0
H1635 H 0.62653 0.83652 0.04483 0.0
H1636 H 0.69779 0.89399 0.05334 0.0
H1637 H 0.69766 0.90238 1.00211 0.0
C1638 C 0.66291 0.87805 0.96395 0.0
C1639 C 0.64358 0.86362 0.94618 0.0
C1640 C 0.6621 0.8743 0.9936 0.0
C1641 C 0.62247 0.84641 0.95868 0.0
C1642 C 0.62156 0.84254 0.98824 0.0
C1643 C 0.642 0.85089 0.03544 0.0
C1644 C 0.66235 0.86431 0.0529 0.0
C1645 C 0.64165 0.85592 1.00587 0.0
C1646 C 0.68195 0.88326 0.04046 0.0
C1647 C 0.68192 0.8881 0.01112 0.0
H1648 H 0.14012 0.69065 0.05902 0.0
H1649 H 0.16416 0.60235 0.06367 0.0
H1650 H 0.16487 0.59958 0.01182 0.0
H1651 H 0.16162 0.62291 0.96498 0.0
H1652 H 0.13772 0.71127 0.96045 0.0
H1653 H 0.13402 0.71317 0.01218 0.0
C1654 C 0.14517 0.67069 0.04874 0.0
C1655 C 0.15229 0.64684 0.0654 0.0
C1656 C 0.14586 0.66926 0.01879 0.0
C1657 C 0.15875 0.62115 0.05153 0.0
C1658 C 0.15925 0.61953 0.02179 0.0
C1659 C 0.15551 0.64257 0.97527 0.0
C1660 C 0.15026 0.66696 0.95869 0.0
C1661 C 0.15339 0.64359 1.00519 0.0
C1662 C 0.14206 0.69215 0.97253 0.0
C1663 C 0.13992 0.6933 1.0022 0.0
H1664 H 0.38789 0.83246 0.96622 0.0
H1665 H 0.33331 0.90564 0.95861 0.0
H1666 H 0.32927 0.90839 1.01017 0.0
H1667 H 0.33935 0.88895 0.05766 0.0
H1668 H 0.39562 0.8173 0.06586 0.0
H1669 H 0.40082 0.8151 0.01413 0.0
C1670 C 0.3753 0.84913 0.97585 0.0
C1671 C 0.36079 0.86862 0.95839 0.0
C1672 C 0.37316 0.85081 1.00574 0.0
C1673 C 0.34475 0.89026 0.97135 0.0
C1674 C 0.34228 0.89183 1.00094 0.0
C1675 C 0.35276 0.87288 0.0481 0.0
C1676 C 0.36682 0.85317 0.06558 0.0
C1677 C 0.35605 0.87201 0.01834 0.0
C1678 C 0.38451 0.83274 0.0529 0.0
C1679 C 0.38747 0.83142 0.02328 0.0
H1680 H 0.12778 0.33569 0.05356 0.0
H1681 H 0.19416 0.39908 0.05967 0.0
H1682 H 0.19226 0.40656 1.00837 0.0
H1683 H 0.17495 0.39215 0.96156 0.0
H1684 H 0.10857 0.32903 0.95471 0.0
H1685 H 0.10688 0.32478 1.00669 0.0
C1686 C 0.14171 0.35124 0.04365 0.0
C1687 C 0.16144 0.36641 0.06031 0.0
C1688 C 0.14051 0.3555 0.0141 0.0
C1689 C 0.17895 0.38692 0.04731 0.0
C1690 C 0.17792 0.39122 0.01797 0.0
C1691 C 0.15989 0.37768 0.97148 0.0
C1692 C 0.14224 0.36061 0.95445 0.0
C1693 C 0.15926 0.37518 1.00114 0.0
C1694 C 0.12243 0.34234 0.96746 0.0
C1695 C 0.12161 0.33976 0.99712 0.0
H1696 H 0.63869 0.19043 0.0677 0.0
H1697 H 0.67536 0.10658 0.07249 0.0
H1698 H 0.67291 0.10227 0.02091 0.0
H1699 H 0.66333 0.12317 0.97413 0.0
H1700 H 0.62722 0.20716 0.96866 0.0
H1701 H 0.62619 0.21025 0.02059 0.0
C1702 C 0.64594 0.17112 0.05751 0.0
C1703 C 0.65748 0.14903 0.07415 0.0
C1704 C 0.64465 0.16874 0.02758 0.0
C1705 C 0.66661 0.1241 0.0604 0.0
C1706 C 0.66522 0.12156 0.0308 0.0
C1707 C 0.65495 0.14209 0.98422 0.0
C1708 C 0.6456 0.16498 0.96733 0.0
C1709 C 0.65472 0.1439 0.01413 0.0
C1710 C 0.63469 0.18921 0.98098 0.0
C1711 C 0.63417 0.19105 1.01076 0.0
H1712 H 0.8324 0.63755 0.95797 0.0
H1713 H 0.89908 0.70033 0.95083 0.0
H1714 H 0.90505 0.70038 1.00249 0.0
H1715 H 0.89053 0.68351 0.05016 0.0
H1716 H 0.82543 0.61896 0.05693 0.0
H1717 H 0.81991 0.61861 1.00533 0.0
C1718 C 0.84822 0.65124 0.96773 0.0
C1719 C 0.86507 0.66906 0.95046 0.0
C1720 C 0.85193 0.65084 0.99755 0.0
C1721 C 0.88578 0.68637 0.96351 0.0
C1722 C 0.8892 0.68647 0.99313 0.0
C1723 C 0.87525 0.66926 0.04035 0.0
C1724 C 0.85837 0.65142 0.05761 0.0
C1725 C 0.8723 0.6689 1.01043 0.0
C1726 C 0.83882 0.63293 0.04435 0.0
C1727 C 0.83552 0.63276 0.01474 0.0
H1728 H 0.06136 0.38434 0.18874 0.0
H1729 H 0.06751 0.33992 0.10851 0.0
H1730 H 0.01608 0.33621 0.10596 0.0
H1731 H 0.96919 0.34264 0.12775 0.0
H1732 H 0.96205 0.38912 0.20646 0.0
H1733 H 0.01373 0.39498 0.20826 0.0
C1734 C 0.05144 0.37414 0.17055 0.0
C1735 C 0.0685 0.36217 0.14908 0.0
C1736 C 0.02156 0.37219 0.169 0.0
C1737 C 0.05513 0.34926 0.12551 0.0
C1738 C 0.0256 0.34699 0.12402 0.0
C1739 C 0.97897 0.35415 0.14522 0.0
C1740 C 0.96187 0.36511 0.16709 0.0
C1741 C 1.00862 0.35786 0.14588 0.0
C1742 C 0.97477 0.38042 0.18936 0.0
C1743 C 1.00434 0.38372 0.19045 0.0
H1744 H 0.05102 0.62704 0.84423 0.0
H1745 H 0.05778 0.69809 0.90194 0.0
H1746 H 1.00618 0.70022 0.90573 0.0
H1747 H 0.9593 0.68482 0.88915 0.0
H1748 H 0.95228 0.6133 0.83211 0.0
H1749 H 1.00389 0.60819 0.83189 0.0
C1750 C 0.04116 0.64283 0.85779 0.0
C1751 C 0.05808 0.66266 0.87236 0.0
C1752 C 0.01151 0.64392 0.85994 0.0
C1753 C 0.04516 0.68268 0.89034 0.0
C1754 C 0.01567 0.68399 0.89247 0.0
C1755 C 0.96909 0.66796 0.8769 0.0
C1756 C 0.95217 0.64981 0.86031 0.0
C1757 C 0.99867 0.66517 0.87682 0.0
C1758 C 0.96495 0.62766 0.84496 0.0
C1759 C 0.99444 0.6248 0.84469 0.0
H1760 H 0.33302 0.96555 0.89634 0.0
H1761 H 0.39384 0.95982 0.82776 0.0
H1762 H 0.39915 0.01121 0.82721 0.0
H1763 H 0.38546 0.0582 0.8448 0.0
H1764 H 0.32607 0.06443 0.91456 0.0
H1765 H 0.32164 0.01281 0.91617 0.0
C1766 C 0.34744 0.97558 0.88133 0.0
C1767 C 0.36281 0.95873 0.86203 0.0
C1768 C 0.35078 1.00538 0.88132 0.0
C1769 C 0.3817 0.97213 0.84293 0.0
C1770 C 0.38477 1.00162 0.84252 0.0
C1771 C 0.3717 0.04829 0.86051 0.0
C1772 C 0.35603 0.06533 0.87935 0.0
C1773 C 0.36929 0.0185 0.86145 0.0
C1774 C 0.33847 0.05197 0.89973 0.0
C1775 C 0.33578 0.02237 0.90062 0.0
H1776 H 0.05282 0.34326 0.88824 0.0
H1777 H 0.05922 0.41103 0.82654 0.0
H1778 H 1.0074 0.41538 0.82586 0.0
H1779 H 0.96024 0.39769 0.84044 0.0
H1780 H 0.95409 0.33079 0.90318 0.0
H1781 H 1.0059 0.32849 0.90594 0.0
C1782 C 0.04289 0.35911 0.87475 0.0
C1783 C 0.05985 0.37655 0.85718 0.0
C1784 C 0.01315 0.36156 0.87458 0.0
C1785 C 0.04668 0.39731 0.84021 0.0
C1786 C 0.01704 0.39971 0.83973 0.0
C1787 C 0.97024 0.38271 0.85485 0.0
C1788 C 0.95329 0.36418 0.87132 0.0
C1789 C 1.00006 0.3816 0.85645 0.0
C1790 C 0.96659 0.34524 0.89022 0.0
C1791 C 0.99623 0.34384 0.89173 0.0
H1792 H 0.67798 0.96531 0.89341 0.0
H1793 H 0.62187 0.96216 0.82068 0.0
H1794 H 0.61489 0.01334 0.82339 0.0
H1795 H 0.62732 0.0594 0.84402 0.0
H1796 H 0.68557 0.06344 0.91495 0.0
H1797 H 0.68882 0.01162 0.91554 0.0
C1798 C 0.66403 0.97582 0.87835 0.0
C1799 C 0.65068 0.95995 0.85672 0.0
C1800 C 0.66052 1.00547 0.87964 0.0
C1801 C 0.6327 0.9739 0.83732 0.0
C1802 C 0.62862 1.00319 0.83888 0.0
C1803 C 0.64039 0.04896 0.85991 0.0
C1804 C 0.65623 0.06531 0.87935 0.0
C1805 C 0.6428 0.01925 0.85962 0.0
C1806 C 0.67325 0.05137 0.89964 0.0
C1807 C 0.67517 0.02173 0.89995 0.0
H1808 H 0.96774 0.63073 0.1886 0.0
H1809 H 0.96172 0.66851 0.10497 0.0
H1810 H 0.01351 0.67162 0.10233 0.0
H1811 H 0.06069 0.66564 0.12464 0.0
H1812 H 0.06629 0.62828 0.20853 0.0
H1813 H 0.01475 0.62307 0.21004 0.0
C1814 C 0.97767 0.63941 0.16963 0.0
C1815 C 0.96058 0.64942 0.14705 0.0
C1816 C 1.00757 0.64145 0.16835 0.0
C1817 C 0.97412 0.66064 0.12273 0.0
C1818 C 1.00383 0.66251 0.12122 0.0
C1819 C 0.05069 0.65627 0.14324 0.0
C1820 C 0.06762 0.64758 0.16652 0.0
C1821 C 0.0208 0.65334 0.14406 0.0
C1822 C 0.05404 0.63534 0.19032 0.0
C1823 C 0.02445 0.63231 0.19123 0.0
H1824 H 0.3987 0.96204 0.1739 0.0
H1825 H 0.32625 0.95692 0.11783 0.0
H1826 H 0.32416 1.00883 0.11545 0.0
H1827 H 0.34037 0.05562 0.13311 0.0
H1828 H 0.41386 0.05985 0.1882 0.0
H1829 H 0.41814 1.00845 0.18696 0.0
C1830 C 0.38268 0.97231 0.16088 0.0
C1831 C 0.36248 0.95577 0.14637 0.0
C1832 C 0.38162 1.00203 0.15961 0.0
C1833 C 0.34206 0.96926 0.12921 0.0
C1834 C 0.34074 0.99892 0.128 0.0
C1835 C 0.35745 0.04529 0.14461 0.0
C1836 C 0.37645 0.06161 0.16106 0.0
C1837 C 0.35998 0.01553 0.14371 0.0
C1838 C 0.39877 0.0479 0.17549 0.0
C1839 C 0.40126 0.01843 0.17488 0.0
H1840 H 0.62265 0.95899 0.16633 0.0
H1841 H 0.70333 0.95071 0.12339 0.0
H1842 H 0.70978 1.00199 0.1241 0.0
H1843 H 0.6943 0.04926 0.13979 0.0
H1844 H 0.61352 0.05764 0.18256 0.0
H1845 H 0.60549 1.00672 0.17883 0.0
C1846 C 0.64145 0.96841 0.15681 0.0
C1847 C 0.66255 0.95082 0.14515 0.0
C1848 C 0.64526 0.99812 0.15743 0.0
C1849 C 0.68678 0.96357 0.13283 0.0
C1850 C 0.69058 0.993 0.13322 0.0
C1851 C 0.67486 0.04 0.14813 0.0
C1852 C 0.65482 0.05741 0.16174 0.0
C1853 C 0.67025 0.01049 0.14598 0.0
C1854 C 0.62958 0.0449 0.17217 0.0
C1855 C 0.62488 0.01566 0.17007 0.0
H1856 H 0.18188 0.55772 0.89654 0.0
H1857 H 0.10628 0.56602 0.84494 0.0
H1858 H 0.10296 0.51477 0.84043 0.0
H1859 H 0.12299 0.46738 0.84827 0.0
H1860 H 0.19657 0.45793 0.90212 0.0
H1861 H 0.19909 0.50947 0.90865 0.0
C1862 C 0.16451 0.54829 0.8846 0.0
C1863 C 0.1446 0.56594 0.8709 0.0
C1864 C 0.16242 0.51846 0.88225 0.0
C1865 C 0.12205 0.5532 0.85572 0.0
C1866 C 0.12013 0.52376 0.85296 0.0
C1867 C 0.13945 0.47664 0.86157 0.0
C1868 C 0.15971 0.45893 0.87442 0.0
C1869 C 0.14046 0.50621 0.86565 0.0
C1870 C 0.18069 0.47113 0.89198 0.0
C1871 C 0.18221 0.50063 0.89564 0.0
H1872 H 0.88908 0.56243 0.84205 0.0
H1873 H 0.81776 0.57076 0.89915 0.0
H1874 H 0.81706 0.51934 0.90664 0.0
H1875 H 0.83441 0.47182 0.89398 0.0
H1876 H 0.90659 0.46378 0.83781 0.0
H1877 H 0.90952 0.51534 0.83333 0.0
C1878 C 0.87347 0.55296 0.85623 0.0
C1879 C 0.85322 0.57024 0.86966 0.0
C1880 C 0.87336 0.52349 0.86063 0.0
C1881 C 0.83349 0.55785 0.88846 0.0
C1882 C 0.83304 0.52847 0.8927 0.0
C1883 C 0.85098 0.48137 0.88101 0.0
C1884 C 0.86998 0.46395 0.86595 0.0
C1885 C 0.85253 0.51104 0.87847 0.0
C1886 C 0.89161 0.47665 0.84958 0.0
C1887 C 0.89322 0.50615 0.84685 0.0
H1888 H 0.12981 0.45681 0.17454 0.0
H1889 H 0.20972 0.44945 0.12988 0.0
H1890 H 0.21304 0.50084 0.12596 0.0
H1891 H 0.19485 0.54802 0.13731 0.0
H1892 H 0.11527 0.55596 0.18235 0.0
H1893 H 0.11024 0.50438 0.18371 0.0
C1894 C 0.14785 0.46644 0.1638 0.0
C1895 C 0.1696 0.44919 0.15284 0.0
C1896 C 0.14981 0.4962 0.1617 0.0
C1897 C 0.19276 0.46211 0.13883 0.0
C1898 C 0.19472 0.49157 0.13651 0.0
C1899 C 0.17628 0.53853 0.14726 0.0
C1900 C 0.15565 0.55592 0.15993 0.0
C1901 C 0.1736 0.50884 0.14822 0.0
C1902 C 0.13164 0.54314 0.17257 0.0
C1903 C 0.12873 0.5136 0.17341 0.0
H1904 H 0.8394 0.45727 0.1259 0.0
H1905 H 0.90418 0.44924 0.19044 0.0
H1906 H 0.91063 0.50067 0.19118 0.0
H1907 H 0.89565 0.54831 0.17606 0.0
H1908 H 0.82871 0.55684 0.11386 0.0
H1909 H 0.8255 0.50519 0.10951 0.0
C1910 C 0.85515 0.46679 0.13984 0.0
C1911 C 0.8712 0.4494 0.15816 0.0
C1912 C 0.85828 0.49661 0.14072 0.0
C1913 C 0.89137 0.46213 0.17629 0.0
C1914 C 0.89511 0.49158 0.17672 0.0
C1915 C 0.88064 0.53888 0.16126 0.0
C1916 C 0.86244 0.55648 0.14535 0.0
C1917 C 0.87835 0.5091 0.15941 0.0
C1918 C 0.84289 0.54382 0.12649 0.0
C1919 C 0.84101 0.51425 0.12399 0.0
H1920 H 0.32195 0.64817 0.56134 0.0
H1921 H 0.41077 0.66903 0.57174 0.0
H1922 H 0.41618 0.67346 0.52025 0.0
H1923 H 0.3953 0.67277 0.47181 0.0
H1924 H 0.30633 0.65163 0.46244 0.0
H1925 H 0.30161 0.64615 0.51353 0.0
C1926 C 0.34255 0.65345 0.55239 0.0
C1927 C 0.36579 0.65835 0.57053 0.0
C1928 C 0.34556 0.65619 0.52272 0.0
C1929 C 0.39236 0.66522 0.55838 0.0
C1930 C 0.39553 0.66785 0.52886 0.0
C1931 C 0.37491 0.66706 0.48099 0.0
C1932 C 0.35128 0.66279 0.4631 0.0
C1933 C 0.37219 0.66371 0.51076 0.0
C1934 C 0.32502 0.65512 0.47547 0.0
C1935 C 0.32219 0.65192 0.50483 0.0
H1936 H 0.83144 0.88535 0.45222 0.0
H1937 H 0.9095 0.8387 0.44137 0.0
H1938 H 0.91518 0.8352 0.49274 0.0
H1939 H 0.89652 0.84265 0.54134 0.0
H1940 H 0.81873 0.88992 0.55173 0.0
H1941 H 0.81479 0.89589 0.50056 0.0
C1942 C 0.84981 0.87464 0.46106 0.0
C1943 C 0.86972 0.8621 0.44273 0.0
C1944 C 0.85307 0.87258 0.49083 0.0
C1945 C 0.89355 0.84844 0.45477 0.0
C1946 C 0.8969 0.84635 0.48429 0.0
C1947 C 0.87888 0.85447 0.53242 0.0
C1948 C 0.8578 0.86536 0.55055 0.0
C1949 C 0.87655 0.85792 0.50261 0.0
C1950 C 0.83516 0.88082 0.53845 0.0
C1951 C 0.83281 0.88436 0.50905 0.0
H1952 H 0.68594 0.38148 0.55877 0.0
H1953 H 0.61266 0.32651 0.566 0.0
H1954 H 0.60666 0.32702 0.5144 0.0
H1955 H 0.62383 0.34102 0.46662 0.0
H1956 H 0.69665 0.39681 0.46012 0.0
H1957 H 0.70086 0.39818 0.51165 0.0
C1958 C 0.66864 0.36964 0.54907 0.0
C1959 C 0.65004 0.35378 0.56628 0.0
C1960 C 0.66512 0.37016 0.51933 0.0
C1961 C 0.62744 0.33889 0.55332 0.0
C1962 C 0.62395 0.33912 0.52373 0.0
C1963 C 0.64035 0.35376 0.4765 0.0
C1964 C 0.66006 0.36844 0.45938 0.0
C1965 C 0.64285 0.35444 0.50644 0.0
C1966 C 0.68133 0.38493 0.47266 0.0
C1967 C 0.68385 0.38576 0.50222 0.0
H1968 H 0.136 0.1868 0.55863 0.0
H1969 H 0.17394 0.10385 0.56701 0.0
H1970 H 0.17647 0.09949 0.51533 0.0
H1971 H 0.17151 0.12099 0.46757 0.0
H1972 H 0.13329 0.20401 0.46014 0.0
H1973 H 0.12733 0.20634 0.51134 0.0
C1974 C 0.14454 0.16763 0.5492 0.0
C1975 C 0.15511 0.14596 0.56674 0.0
C1976 C 0.1462 0.16529 0.51948 0.0
C1977 C 0.16583 0.12108 0.55406 0.0
C1978 C 0.1674 0.11855 0.52445 0.0
C1979 C 0.16171 0.13946 0.47716 0.0
C1980 C 0.1534 0.16243 0.45995 0.0
C1981 C 0.15826 0.14082 0.50691 0.0
C1982 C 0.14038 0.1861 0.47277 0.0
C1983 C 0.13684 0.18752 0.50215 0.0
H1984 H 0.34601 0.39588 0.55915 0.0
H1985 H 0.40012 0.32237 0.56613 0.0
H1986 H 0.40456 0.32043 0.51439 0.0
H1987 H 0.39017 0.33747 0.46697 0.0
H1988 H 0.33715 0.41183 0.46025 0.0
H1989 H 0.3354 0.41561 0.51196 0.0
C1990 C 0.35896 0.37958 0.54935 0.0
C1991 C 0.3724 0.35913 0.56646 0.0
C1992 C 0.36152 0.37861 0.51958 0.0
C1993 C 0.38947 0.33838 0.55347 0.0
C1994 C 0.39194 0.33715 0.52385 0.0
C1995 C 0.37841 0.3546 0.47684 0.0
C1996 C 0.36354 0.37407 0.45975 0.0
C1997 C 0.37759 0.35681 0.50667 0.0
C1998 C 0.34873 0.39644 0.47285 0.0
C1999 C 0.34762 0.39861 0.50247 0.0
H2000 H 0.12295 0.84547 0.45945 0.0
H2001 H 0.20185 0.8924 0.45355 0.0
H2002 H 0.20497 0.89426 0.50525 0.0
H2003 H 0.18681 0.8808 0.55219 0.0
H2004 H 0.10786 0.83426 0.55891 0.0
H2005 H 0.10327 0.83423 0.50699 0.0
C2006 C 0.14074 0.85626 0.46945 0.0
C2007 C 0.16225 0.86854 0.45242 0.0
C2008 C 0.14252 0.85726 0.49942 0.0
C2009 C 0.18503 0.88259 0.46592 0.0
C2010 C 0.18689 0.88366 0.49558 0.0
C2011 C 0.16851 0.8707 0.54237 0.0
C2012 C 0.14788 0.85732 0.55954 0.0
C2013 C 0.166 0.87075 0.51254 0.0
C2014 C 0.12415 0.84467 0.54631 0.0
C2015 C 0.12153 0.84458 0.51657 0.0
H2016 H 0.63809 0.68848 0.46136 0.0
H2017 H 0.68077 0.60819 0.45105 0.0
H2018 H 0.68243 0.60217 0.50282 0.0
H2019 H 0.67365 0.62092 0.55142 0.0
H2020 H 0.63095 0.70149 0.56046 0.0
H2021 H 0.6275 0.70597 0.50905 0.0
C2022 C 0.64766 0.66955 0.47033 0.0
C2023 C 0.65945 0.64896 0.45215 0.0
C2024 C 0.6487 0.66627 0.50009 0.0
C2025 C 0.67156 0.62449 0.46439 0.0
C2026 C 0.67259 0.62104 0.49407 0.0
C2027 C 0.66346 0.63937 0.54215 0.0
C2028 C 0.65284 0.66092 0.56004 0.0
C2029 C 0.66153 0.64198 0.51221 0.0
C2030 C 0.63959 0.68461 0.54746 0.0
C2031 C 0.63754 0.68725 0.51793 0.0
H2032 H 0.83111 0.13565 0.56715 0.0
H2033 H 0.91389 0.17467 0.5757 0.0
H2034 H 0.91817 0.17749 0.52392 0.0
H2035 H 0.89723 0.17142 0.47622 0.0
H2036 H 0.8143 0.13253 0.46809 0.0
H2037 H 0.81143 0.12713 0.51962 0.0
C2038 C 0.85021 0.1446 0.55775 0.0
C2039 C 0.87201 0.15516 0.57543 0.0
C2040 C 0.85247 0.14637 0.52796 0.0
C2041 C 0.89669 0.16646 0.56272 0.0
C2042 C 0.89914 0.16817 0.53306 0.0
C2043 C 0.87857 0.16164 0.48568 0.0
C2044 C 0.85591 0.15268 0.46817 0.0
C2045 C 0.87696 0.15862 0.51547 0.0
C2046 C 0.83202 0.13981 0.48091 0.0
C2047 C 0.83032 0.1367 0.51046 0.0
H2048 H 0.39774 0.56025 0.35005 0.0
H2049 H 0.33295 0.56613 0.4149 0.0
H2050 H 0.33054 0.51446 0.41792 0.0
H2051 H 0.34323 0.46778 0.39856 0.0
H2052 H 0.40826 0.46191 0.33401 0.0
H2053 H 0.41423 0.51343 0.33457 0.0
C2054 C 0.38334 0.55023 0.3651 0.0
C2055 C 0.36523 0.56702 0.38185 0.0
C2056 C 0.38187 0.52053 0.36657 0.0
C2057 C 0.34704 0.55374 0.40161 0.0
C2058 C 0.34551 0.52416 0.40325 0.0
C2059 C 0.35884 0.47779 0.38477 0.0
C2060 C 0.37491 0.46115 0.36593 0.0
C2061 C 0.36221 0.50739 0.38523 0.0
C2062 C 0.39548 0.47428 0.34859 0.0
C2063 C 0.39887 0.50374 0.34884 0.0
H2064 H 0.67815 0.55975 0.38751 0.0
H2065 H 0.61677 0.56485 0.31942 0.0
H2066 H 0.61317 0.51301 0.31824 0.0
H2067 H 0.62992 0.46615 0.33458 0.0
H2068 H 0.69003 0.46161 0.40398 0.0
H2069 H 0.69148 0.51326 0.40672 0.0
C2070 C 0.66387 0.54949 0.37252 0.0
C2071 C 0.64805 0.56604 0.35335 0.0
C2072 C 0.66174 0.51978 0.37212 0.0
C2073 C 0.62923 0.55255 0.33438 0.0
C2074 C 0.62725 0.52291 0.33361 0.0
C2075 C 0.64318 0.47649 0.35041 0.0
C2076 C 0.66008 0.46003 0.36878 0.0
C2077 C 0.64378 0.5063 0.35206 0.0
C2078 C 0.67684 0.47372 0.38949 0.0
C2079 C 0.67778 0.5033 0.39104 0.0
H2080 H 0.38344 0.55192 0.69142 0.0
H2081 H 0.32969 0.56091 0.61745 0.0
H2082 H 0.33149 0.50965 0.60949 0.0
H2083 H 0.34591 0.46174 0.62535 0.0
H2084 H 0.39942 0.45333 0.69962 0.0
H2085 H 0.40038 0.50476 0.70531 0.0
C2086 C 0.37213 0.54273 0.67351 0.0
C2087 C 0.35616 0.56033 0.65531 0.0
C2088 C 0.37327 0.51323 0.66902 0.0
C2089 C 0.34201 0.54795 0.63196 0.0
C2090 C 0.34304 0.51858 0.62736 0.0
C2091 C 0.35818 0.47117 0.64249 0.0
C2092 C 0.37242 0.45355 0.66212 0.0
C2093 C 0.35831 0.50093 0.64597 0.0
C2094 C 0.38809 0.46626 0.68428 0.0
C2095 C 0.38859 0.49573 0.68764 0.0
H2096 H 0.62393 0.4602 0.67013 0.0
H2097 H 0.70252 0.45084 0.624 0.0
H2098 H 0.70548 0.50237 0.61735 0.0
H2099 H 0.68692 0.55061 0.62716 0.0
H2100 H 0.60664 0.55873 0.67106 0.0
H2101 H 0.60314 0.50753 0.67566 0.0
C2102 C 0.64163 0.46945 0.65851 0.0
C2103 C 0.6631 0.45175 0.64787 0.0
C2104 C 0.64294 0.49903 0.65432 0.0
C2105 C 0.68568 0.46401 0.63244 0.0
C2106 C 0.68744 0.4935 0.62869 0.0
C2107 C 0.66851 0.54117 0.63741 0.0
C2108 C 0.64732 0.5588 0.64899 0.0
C2109 C 0.66635 0.51133 0.63986 0.0
C2110 C 0.62348 0.54598 0.66201 0.0
C2111 C 0.62142 0.51654 0.6648 0.0
H2112 H 0.46239 0.13136 0.84285 0.0
H2113 H 0.45302 0.18549 0.91629 0.0
H2114 H 0.50445 0.18887 0.9212 0.0
H2115 H 0.55245 0.17921 0.90302 0.0
H2116 H 0.56227 0.12608 0.82886 0.0
H2117 H 0.51089 0.11965 0.82603 0.0
C2118 C 0.47162 0.14351 0.86017 0.0
C2119 C 0.45368 0.15821 0.87907 0.0
C2120 C 0.50153 0.14587 0.86264 0.0
C2121 C 0.46618 0.17408 0.90126 0.0
C2122 C 0.49569 0.17609 0.9041 0.0
C2123 C 0.54343 0.16605 0.88634 0.0
C2124 C 0.56148 0.15339 0.8661 0.0
C2125 C 0.51364 0.16256 0.88462 0.0
C2126 C 0.54912 0.13635 0.8447 0.0
C2127 C 0.5196 0.13259 0.84303 0.0
H2128 H 0.55414 0.84969 0.88254 0.0
H2129 H 0.5591 0.90401 0.80865 0.0
H2130 H 0.50718 0.90808 0.80793 0.0
H2131 H 0.46012 0.89355 0.8268 0.0
H2132 H 0.45646 0.84057 0.902 0.0
H2133 H 0.50799 0.83884 0.90372 0.0
C2134 C 0.54386 0.86254 0.86635 0.0
C2135 C 0.56035 0.87622 0.84548 0.0
C2136 C 0.51417 0.86496 0.86624 0.0
C2137 C 0.54682 0.89323 0.82494 0.0
C2138 C 0.51714 0.89546 0.82446 0.0
C2139 C 0.47062 0.88182 0.84366 0.0
C2140 C 0.4543 0.86698 0.864 0.0
C2141 C 0.50054 0.88102 0.84475 0.0
C2142 C 0.46833 0.85215 0.88594 0.0
C2143 C 0.49789 0.85104 0.88696 0.0
H2144 H 0.4707 0.12809 0.19601 0.0
H2145 H 0.46232 0.18274 0.12251 0.0
H2146 H 0.51378 0.1831 0.1163 0.0
H2147 H 0.56139 0.17123 0.13429 0.0
H2148 H 0.56918 0.11702 0.20821 0.0
H2149 H 0.51774 0.11303 0.21145 0.0
C2150 C 0.48009 0.13996 0.17852 0.0
C2151 C 0.46275 0.15573 0.16011 0.0
C2152 C 0.50964 0.14027 0.17517 0.0
C2153 C 0.47523 0.1706 0.13723 0.0
C2154 C 0.50467 0.17087 0.13365 0.0
C2155 C 0.55182 0.15828 0.15087 0.0
C2156 C 0.56905 0.14488 0.17125 0.0
C2157 C 0.52212 0.15629 0.15288 0.0
C2158 C 0.55636 0.12797 0.19251 0.0
C2159 C 0.52694 0.12563 0.19441 0.0
H2160 H 0.55552 0.89197 0.16826 0.0
H2161 H 0.56026 0.82594 0.10486 0.0
H2162 H 0.50843 0.82159 0.10486 0.0
H2163 H 0.46171 0.83436 0.12553 0.0
H2164 H 0.45777 0.90175 0.18765 0.0
H2165 H 0.50912 0.90758 0.18553 0.0
C2166 C 0.54521 0.87686 0.15418 0.0
C2167 C 0.56179 0.85919 0.13677 0.0
C2168 C 0.51545 0.87444 0.1543 0.0
C2169 C 0.54804 0.83991 0.11843 0.0
C2170 C 0.51838 0.83723 0.11858 0.0
C2171 C 0.47215 0.85034 0.13851 0.0
C2172 C 0.45589 0.86736 0.15692 0.0
C2173 C 0.50187 0.85397 0.13689 0.0
C2174 C 0.46969 0.88831 0.1733 0.0
C2175 C 0.49912 0.89168 0.17215 0.0
H2176 H 0.46227 0.3932 0.67471 0.0
H2177 H 0.45406 0.30696 0.64425 0.0
H2178 H 0.50516 0.30401 0.63808 0.0
H2179 H 0.55237 0.32467 0.64325 0.0
H2180 H 0.56169 0.41063 0.67388 0.0
H2181 H 0.51008 0.41495 0.67758 0.0
C2182 C 0.47167 0.3738 0.6667 0.0
C2183 C 0.45424 0.35029 0.66029 0.0
C2184 C 0.50132 0.37213 0.6631 0.0
C2185 C 0.46683 0.32539 0.64961 0.0
C2186 C 0.49614 0.32363 0.646 0.0
C2187 C 0.54318 0.34447 0.65053 0.0
C2188 C 0.56096 0.36715 0.65851 0.0
C2189 C 0.51359 0.34672 0.65294 0.0
C2190 C 0.54856 0.39273 0.66767 0.0
C2191 C 0.51902 0.3952 0.66992 0.0
H2192 H 0.46391 0.62823 0.34986 0.0
H2193 H 0.45489 0.6985 0.40799 0.0
H2194 H 0.50652 0.70281 0.41164 0.0
H2195 H 0.55464 0.68922 0.39509 0.0
H2196 H 0.56283 0.62048 0.33503 0.0
H2197 H 0.51158 0.61291 0.33564 0.0
C2198 C 0.47319 0.64422 0.36367 0.0
C2199 C 0.45538 0.66306 0.37848 0.0
C2200 C 0.50299 0.64704 0.3652 0.0
C2201 C 0.46797 0.68377 0.39615 0.0
C2202 C 0.49758 0.6863 0.39825 0.0
C2203 C 0.5452 0.67233 0.38252 0.0
C2204 C 0.5626 0.65559 0.36491 0.0
C2205 C 0.51538 0.66846 0.3824 0.0
C2206 C 0.54995 0.6339 0.34857 0.0
C2207 C 0.52058 0.62951 0.34888 0.0
H2208 H 0.55667 0.33891 0.39309 0.0
H2209 H 0.56579 0.40612 0.33102 0.0
H2210 H 0.51436 0.41018 0.32742 0.0
H2211 H 0.46635 0.39355 0.3403 0.0
H2212 H 0.45688 0.32801 0.40398 0.0
H2213 H 0.50844 0.32459 0.40851 0.0
C2214 C 0.54742 0.35456 0.37891 0.0
C2215 C 0.56532 0.37202 0.36227 0.0
C2216 C 0.51756 0.35708 0.37709 0.0
C2217 C 0.55277 0.39235 0.34419 0.0
C2218 C 0.52322 0.39467 0.34199 0.0
C2219 C 0.47556 0.37859 0.35525 0.0
C2220 C 0.45761 0.36096 0.37159 0.0
C2221 C 0.50537 0.37695 0.35808 0.0
C2222 C 0.47004 0.34192 0.39111 0.0
C2223 C 0.49962 0.33986 0.39367 0.0
H2224 H 0.46002 0.67473 0.63017 0.0
H2225 H 0.45426 0.60602 0.69094 0.0
H2226 H 0.50585 0.60076 0.6902 0.0
H2227 H 0.55267 0.61889 0.67588 0.0
H2228 H 0.55828 0.6872 0.61461 0.0
H2229 H 0.50659 0.68917 0.61172 0.0
C2230 C 0.47008 0.65845 0.64305 0.0
C2231 C 0.45352 0.64115 0.66094 0.0
C2232 C 0.49966 0.65556 0.64255 0.0
C2233 C 0.46664 0.61973 0.6771 0.0
C2234 C 0.49612 0.61677 0.67678 0.0
C2235 C 0.54254 0.63401 0.66171 0.0
C2236 C 0.55918 0.65318 0.6459 0.0
C2237 C 0.51285 0.63508 0.66017 0.0
C2238 C 0.5459 0.67231 0.62717 0.0
C2239 C 0.51635 0.67355 0.62557 0.0
loop_
_geom_bond_atom_site_label_1
_geom_bond_atom_site_label_2
_geom_bond_distance
_geom_bond_site_symmetry_2
_ccdc_geom_bond_type
Fe0 O2 1.918 . S
Fe0 O5 1.997 . S
Fe0 O6 2.002 . S
Fe0 O11 1.976 . S
Fe0 O14 1.996 . S
Fe1 O2 1.918 . S
Fe1 O9 1.997 . S
Fe1 O12 1.996 . S
Fe1 O16 1.976 . S
Fe1 O19 2.002 . S
O2 Fe0 1.918 . S
O2 Fe1 1.918 . S
O2 Fe3 1.918 . S
Fe3 O2 1.918 . S
Fe3 O4 2.002 . S
Fe3 O13 1.976 . S
Fe3 O17 1.996 . S
Fe3 O20 1.997 . S
O4 Fe3 2.002 . S
O4 C21 1.295 . S
O5 Fe0 1.997 . S
O5 C21 1.235 . S
O6 Fe0 2.002 . S
O6 C7 1.295 . S
C7 O6 1.295 . S
C7 O9 1.235 . S
C8 O13 1.287 . S
C8 O14 1.255 . S
O9 Fe1 1.997 . S
O9 C7 1.235 . S
C10 O16 1.287 . S
C10 O17 1.255 . S
O11 Fe0 1.976 . S
O11 C18 1.287 . S
O12 Fe1 1.996 . S
O12 C18 1.255 . S
O13 Fe3 1.976 . S
O13 C8 1.287 . S
O14 Fe0 1.996 . S
O14 C8 1.255 . S
C15 O19 1.295 . S
C15 O20 1.235 . S
O16 Fe1 1.976 . S
O16 C10 1.287 . S
O17 Fe3 1.996 . S
O17 C10 1.255 . S
C18 O11 1.287 . S
C18 O12 1.255 . S
O19 Fe1 2.002 . S
O19 C15 1.295 . S
O20 Fe3 1.997 . S
O20 C15 1.235 . S
C21 O4 1.295 . S
C21 O5 1.235 . S
Fe22 O24 1.918 . S
Fe22 O27 1.997 . S
Fe22 O28 2.002 . S
Fe22 O33 1.976 . S
Fe22 O36 1.996 . S
Fe23 O24 1.918 . S
Fe23 O31 1.997 . S
Fe23 O34 1.996 . S
Fe23 O38 1.976 . S
Fe23 O41 2.002 . S
O24 Fe22 1.918 . S
O24 Fe23 1.918 . S
O24 Fe25 1.918 . S
Fe25 O24 1.918 . S
Fe25 O26 2.002 . S
Fe25 O35 1.976 . S
Fe25 O39 1.996 . S
Fe25 O42 1.997 . S
O26 Fe25 2.002 . S
O26 C43 1.295 . S
O27 Fe22 1.997 . S
O27 C43 1.235 . S
O28 Fe22 2.002 . S
O28 C29 1.295 . S
C29 O28 1.295 . S
C29 O31 1.235 . S
C30 O35 1.287 . S
C30 O36 1.255 . S
O31 Fe23 1.997 . S
O31 C29 1.235 . S
C32 O38 1.287 . S
C32 O39 1.255 . S
O33 Fe22 1.976 . S
O33 C40 1.287 . S
O34 Fe23 1.996 . S
O34 C40 1.255 . S
O35 Fe25 1.976 . S
O35 C30 1.287 . S
O36 Fe22 1.996 . S
O36 C30 1.255 . S
C37 O41 1.295 . S
C37 O42 1.235 . S
O38 Fe23 1.976 . S
O38 C32 1.287 . S
O39 Fe25 1.996 . S
O39 C32 1.255 . S
C40 O33 1.287 . S
C40 O34 1.255 . S
O41 Fe23 2.002 . S
O41 C37 1.295 . S
O42 Fe25 1.997 . S
O42 C37 1.235 . S
C43 O26 1.295 . S
C43 O27 1.235 . S
Fe44 O46 1.918 . S
Fe44 O49 1.997 . S
Fe44 O50 2.002 . S
Fe44 O55 1.976 . S
Fe44 O58 1.996 . S
Fe45 O46 1.918 . S
Fe45 O53 1.997 . S
Fe45 O56 1.996 . S
Fe45 O60 1.976 . S
Fe45 O63 2.002 . S
O46 Fe44 1.918 . S
O46 Fe45 1.918 . S
O46 Fe47 1.918 . S
Fe47 O46 1.918 . S
Fe47 O48 2.002 . S
Fe47 O57 1.976 . S
Fe47 O61 1.996 . S
Fe47 O64 1.997 . S
O48 Fe47 2.002 . S
O48 C65 1.295 . S
O49 Fe44 1.997 . S
O49 C65 1.235 . S
O50 Fe44 2.002 . S
O50 C51 1.295 . S
C51 O50 1.295 . S
C51 O53 1.235 . S
C52 O57 1.287 . S
C52 O58 1.255 . S
O53 Fe45 1.997 . S
O53 C51 1.235 . S
C54 O60 1.287 . S
C54 O61 1.255 . S
O55 Fe44 1.976 . S
O55 C62 1.287 . S
O56 Fe45 1.996 . S
O56 C62 1.255 . S
O57 Fe47 1.976 . S
O57 C52 1.287 . S
O58 Fe44 1.996 . S
O58 C52 1.255 . S
C59 O63 1.295 . S
C59 O64 1.235 . S
O60 Fe45 1.976 . S
O60 C54 1.287 . S
O61 Fe47 1.996 . S
O61 C54 1.255 . S
C62 O55 1.287 . S
C62 O56 1.255 . S
O63 Fe45 2.002 . S
O63 C59 1.295 . S
O64 Fe47 1.997 . S
O64 C59 1.235 . S
C65 O48 1.295 . S
C65 O49 1.235 . S
Fe66 O68 1.918 . S
Fe66 O71 1.997 . S
Fe66 O72 2.002 . S
Fe66 O77 1.976 . S
Fe66 O80 1.996 . S
Fe67 O68 1.918 . S
Fe67 O75 1.997 . S
Fe67 O78 1.996 . S
Fe67 O82 1.976 . S
Fe67 O85 2.002 . S
O68 Fe66 1.918 . S
O68 Fe67 1.918 . S
O68 Fe69 1.918 . S
Fe69 O68 1.918 . S
Fe69 O70 2.002 . S
Fe69 O79 1.976 . S
Fe69 O83 1.996 . S
Fe69 O86 1.997 . S
O70 Fe69 2.002 . S
O70 C87 1.295 . S
O71 Fe66 1.997 . S
O71 C87 1.235 . S
O72 Fe66 2.002 . S
O72 C73 1.295 . S
C73 O72 1.295 . S
C73 O75 1.235 . S
C74 O79 1.287 . S
C74 O80 1.255 . S
O75 Fe67 1.997 . S
O75 C73 1.235 . S
C76 O82 1.287 . S
C76 O83 1.255 . S
O77 Fe66 1.976 . S
O77 C84 1.287 . S
O78 Fe67 1.996 . S
O78 C84 1.255 . S
O79 Fe69 1.976 . S
O79 C74 1.287 . S
O80 Fe66 1.996 . S
O80 C74 1.255 . S
C81 O85 1.295 . S
C81 O86 1.235 . S
O82 Fe67 1.976 . S
O82 C76 1.287 . S
O83 Fe69 1.996 . S
O83 C76 1.255 . S
C84 O77 1.287 . S
C84 O78 1.255 . S
O85 Fe67 2.002 . S
O85 C81 1.295 . S
O86 Fe69 1.997 . S
O86 C81 1.235 . S
C87 O70 1.295 . S
C87 O71 1.235 . S
Fe88 O90 1.918 . S
Fe88 O93 1.997 . S
Fe88 O94 2.002 . S
Fe88 O99 1.976 . S
Fe88 O102 1.996 . S
Fe89 O90 1.918 . S
Fe89 O97 1.997 . S
Fe89 O100 1.996 . S
Fe89 O104 1.976 . S
Fe89 O107 2.002 . S
O90 Fe88 1.918 . S
O90 Fe89 1.918 . S
O90 Fe91 1.918 . S
Fe91 O90 1.918 . S
Fe91 O92 2.002 . S
Fe91 O101 1.976 . S
Fe91 O105 1.996 . S
Fe91 O108 1.997 . S
O92 Fe91 2.002 . S
O92 C109 1.295 . S
O93 Fe88 1.997 . S
O93 C109 1.235 . S
O94 Fe88 2.002 . S
O94 C95 1.295 . S
C95 O94 1.295 . S
C95 O97 1.235 . S
C96 O101 1.287 . S
C96 O102 1.255 . S
O97 Fe89 1.997 . S
O97 C95 1.235 . S
C98 O104 1.287 . S
C98 O105 1.255 . S
O99 Fe88 1.976 . S
O99 C106 1.287 . S
O100 Fe89 1.996 . S
O100 C106 1.255 . S
O101 Fe91 1.976 . S
O101 C96 1.287 . S
O102 Fe88 1.996 . S
O102 C96 1.255 . S
C103 O107 1.295 . S
C103 O108 1.235 . S
O104 Fe89 1.976 . S
O104 C98 1.287 . S
O105 Fe91 1.996 . S
O105 C98 1.255 . S
C106 O99 1.287 . S
C106 O100 1.255 . S
O107 Fe89 2.002 . S
O107 C103 1.295 . S
O108 Fe91 1.997 . S
O108 C103 1.235 . S
C109 O92 1.295 . S
C109 O93 1.235 . S
Fe110 O112 1.918 . S
Fe110 O115 1.997 . S
Fe110 O116 2.002 . S
Fe110 O121 1.976 . S
Fe110 O124 1.996 . S
Fe111 O112 1.918 . S
Fe111 O119 1.997 . S
Fe111 O122 1.996 . S
Fe111 O126 1.976 . S
Fe111 O129 2.002 . S
O112 Fe110 1.918 . S
O112 Fe111 1.918 . S
O112 Fe113 1.918 . S
Fe113 O112 1.918 . S
Fe113 O114 2.002 . S
Fe113 O123 1.976 . S
Fe113 O127 1.996 . S
Fe113 O130 1.997 . S
O114 Fe113 2.002 . S
O114 C131 1.295 . S
O115 Fe110 1.997 . S
O115 C131 1.235 . S
O116 Fe110 2.002 . S
O116 C117 1.295 . S
C117 O116 1.295 . S
C117 O119 1.235 . S
C118 O123 1.287 . S
C118 O124 1.255 . S
O119 Fe111 1.997 . S
O119 C117 1.235 . S
C120 O126 1.287 . S
C120 O127 1.255 . S
O121 Fe110 1.976 . S
O121 C128 1.287 . S
O122 Fe111 1.996 . S
O122 C128 1.255 . S
O123 Fe113 1.976 . S
O123 C118 1.287 . S
O124 Fe110 1.996 . S
O124 C118 1.255 . S
C125 O129 1.295 . S
C125 O130 1.235 . S
O126 Fe111 1.976 . S
O126 C120 1.287 . S
O127 Fe113 1.996 . S
O127 C120 1.255 . S
C128 O121 1.287 . S
C128 O122 1.255 . S
O129 Fe111 2.002 . S
O129 C125 1.295 . S
O130 Fe113 1.997 . S
O130 C125 1.235 . S
C131 O114 1.295 . S
C131 O115 1.235 . S
Fe132 O134 1.918 . S
Fe132 O137 1.997 . S
Fe132 O138 2.002 . S
Fe132 O143 1.976 . S
Fe132 O146 1.996 . S
Fe133 O134 1.918 . S
Fe133 O141 1.997 . S
Fe133 O144 1.996 . S
Fe133 O148 1.976 . S
Fe133 O151 2.002 . S
O134 Fe132 1.918 . S
O134 Fe133 1.918 . S
O134 Fe135 1.918 . S
Fe135 O134 1.918 . S
Fe135 O136 2.002 . S
Fe135 O145 1.976 . S
Fe135 O149 1.996 . S
Fe135 O152 1.997 . S
O136 Fe135 2.002 . S
O136 C153 1.295 . S
O137 Fe132 1.997 . S
O137 C153 1.235 . S
O138 Fe132 2.002 . S
O138 C139 1.295 . S
C139 O138 1.295 . S
C139 O141 1.235 . S
C140 O145 1.287 . S
C140 O146 1.255 . S
O141 Fe133 1.997 . S
O141 C139 1.235 . S
C142 O148 1.287 . S
C142 O149 1.255 . S
O143 Fe132 1.976 . S
O143 C150 1.287 . S
O144 Fe133 1.996 . S
O144 C150 1.255 . S
O145 Fe135 1.976 . S
O145 C140 1.287 . S
O146 Fe132 1.996 . S
O146 C140 1.255 . S
C147 O151 1.295 . S
C147 O152 1.235 . S
O148 Fe133 1.976 . S
O148 C142 1.287 . S
O149 Fe135 1.996 . S
O149 C142 1.255 . S
C150 O143 1.287 . S
C150 O144 1.255 . S
O151 Fe133 2.002 . S
O151 C147 1.295 . S
O152 Fe135 1.997 . S
O152 C147 1.235 . S
C153 O136 1.295 . S
C153 O137 1.235 . S
Fe154 O156 1.918 . S
Fe154 O159 1.997 . S
Fe154 O160 2.002 . S
Fe154 O165 1.976 . S
Fe154 O168 1.996 . S
Fe155 O156 1.918 . S
Fe155 O163 1.997 . S
Fe155 O166 1.996 . S
Fe155 O170 1.976 . S
Fe155 O173 2.002 . S
O156 Fe154 1.918 . S
O156 Fe155 1.918 . S
O156 Fe157 1.918 . S
Fe157 O156 1.918 . S
Fe157 O158 2.002 . S
Fe157 O167 1.976 . S
Fe157 O171 1.996 . S
Fe157 O174 1.997 . S
O158 Fe157 2.002 . S
O158 C175 1.295 . S
O159 Fe154 1.997 . S
O159 C175 1.235 . S
O160 Fe154 2.002 . S
O160 C161 1.295 . S
C161 O160 1.295 . S
C161 O163 1.235 . S
C162 O167 1.287 . S
C162 O168 1.255 . S
O163 Fe155 1.997 . S
O163 C161 1.235 . S
C164 O170 1.287 . S
C164 O171 1.255 . S
O165 Fe154 1.976 . S
O165 C172 1.287 . S
O166 Fe155 1.996 . S
O166 C172 1.255 . S
O167 Fe157 1.976 . S
O167 C162 1.287 . S
O168 Fe154 1.996 . S
O168 C162 1.255 . S
C169 O173 1.295 . S
C169 O174 1.235 . S
O170 Fe155 1.976 . S
O170 C164 1.287 . S
O171 Fe157 1.996 . S
O171 C164 1.255 . S
C172 O165 1.287 . S
C172 O166 1.255 . S
O173 Fe155 2.002 . S
O173 C169 1.295 . S
O174 Fe157 1.997 . S
O174 C169 1.235 . S
C175 O158 1.295 . S
C175 O159 1.235 . S
Fe176 O178 1.918 . S
Fe176 O181 1.997 . S
Fe176 O182 2.002 . S
Fe176 O187 1.976 . S
Fe176 O190 1.996 . S
Fe177 O178 1.918 . S
Fe177 O185 1.997 . S
Fe177 O188 1.996 . S
Fe177 O192 1.976 . S
Fe177 O195 2.002 . S
O178 Fe176 1.918 . S
O178 Fe177 1.918 . S
O178 Fe179 1.918 . S
Fe179 O178 1.918 . S
Fe179 O180 2.002 . S
Fe179 O189 1.976 . S
Fe179 O193 1.996 . S
Fe179 O196 1.997 . S
O180 Fe179 2.002 . S
O180 C197 1.295 . S
O181 Fe176 1.997 . S
O181 C197 1.235 . S
O182 Fe176 2.002 . S
O182 C183 1.295 . S
C183 O182 1.295 . S
C183 O185 1.235 . S
C184 O189 1.287 . S
C184 O190 1.255 . S
O185 Fe177 1.997 . S
O185 C183 1.235 . S
C186 O192 1.287 . S
C186 O193 1.255 . S
O187 Fe176 1.976 . S
O187 C194 1.287 . S
O188 Fe177 1.996 . S
O188 C194 1.255 . S
O189 Fe179 1.976 . S
O189 C184 1.287 . S
O190 Fe176 1.996 . S
O190 C184 1.255 . S
C191 O195 1.295 . S
C191 O196 1.235 . S
O192 Fe177 1.976 . S
O192 C186 1.287 . S
O193 Fe179 1.996 . S
O193 C186 1.255 . S
C194 O187 1.287 . S
C194 O188 1.255 . S
O195 Fe177 2.002 . S
O195 C191 1.295 . S
O196 Fe179 1.997 . S
O196 C191 1.235 . S
C197 O180 1.295 . S
C197 O181 1.235 . S
Fe198 O200 1.918 . S
Fe198 O203 1.997 . S
Fe198 O204 2.002 . S
Fe198 O209 1.976 . S
Fe198 O212 1.996 . S
Fe199 O200 1.918 . S
Fe199 O207 1.997 . S
Fe199 O210 1.996 . S
Fe199 O214 1.976 . S
Fe199 O217 2.002 . S
O200 Fe198 1.918 . S
O200 Fe199 1.918 . S
O200 Fe201 1.918 . S
Fe201 O200 1.918 . S
Fe201 O202 2.002 . S
Fe201 O211 1.976 . S
Fe201 O215 1.996 . S
Fe201 O218 1.997 . S
O202 Fe201 2.002 . S
O202 C219 1.295 . S
O203 Fe198 1.997 . S
O203 C219 1.235 . S
O204 Fe198 2.002 . S
O204 C205 1.295 . S
C205 O204 1.295 . S
C205 O207 1.235 . S
C206 O211 1.287 . S
C206 O212 1.255 . S
O207 Fe199 1.997 . S
O207 C205 1.235 . S
C208 O214 1.287 . S
C208 O215 1.255 . S
O209 Fe198 1.976 . S
O209 C216 1.287 . S
O210 Fe199 1.996 . S
O210 C216 1.255 . S
O211 Fe201 1.976 . S
O211 C206 1.287 . S
O212 Fe198 1.996 . S
O212 C206 1.255 . S
C213 O217 1.295 . S
C213 O218 1.235 . S
O214 Fe199 1.976 . S
O214 C208 1.287 . S
O215 Fe201 1.996 . S
O215 C208 1.255 . S
C216 O209 1.287 . S
C216 O210 1.255 . S
O217 Fe199 2.002 . S
O217 C213 1.295 . S
O218 Fe201 1.997 . S
O218 C213 1.235 . S
C219 O202 1.295 . S
C219 O203 1.235 . S
Fe220 O222 1.918 . S
Fe220 O225 1.997 . S
Fe220 O226 2.002 . S
Fe220 O231 1.976 . S
Fe220 O234 1.996 . S
Fe221 O222 1.918 . S
Fe221 O229 1.997 . S
Fe221 O232 1.996 . S
Fe221 O236 1.976 . S
Fe221 O239 2.002 . S
O222 Fe220 1.918 . S
O222 Fe221 1.918 . S
O222 Fe223 1.918 . S
Fe223 O222 1.918 . S
Fe223 O224 2.002 . S
Fe223 O233 1.976 . S
Fe223 O237 1.996 . S
Fe223 O240 1.997 . S
O224 Fe223 2.002 . S
O224 C241 1.295 . S
O225 Fe220 1.997 . S
O225 C241 1.235 . S
O226 Fe220 2.002 . S
O226 C227 1.295 . S
C227 O226 1.295 . S
C227 O229 1.235 . S
C228 O233 1.287 . S
C228 O234 1.255 . S
O229 Fe221 1.997 . S
O229 C227 1.235 . S
C230 O236 1.287 . S
C230 O237 1.255 . S
O231 Fe220 1.976 . S
O231 C238 1.287 . S
O232 Fe221 1.996 . S
O232 C238 1.255 . S
O233 Fe223 1.976 . S
O233 C228 1.287 . S
O234 Fe220 1.996 . S
O234 C228 1.255 . S
C235 O239 1.295 . S
C235 O240 1.235 . S
O236 Fe221 1.976 . S
O236 C230 1.287 . S
O237 Fe223 1.996 . S
O237 C230 1.255 . S
C238 O231 1.287 . S
C238 O232 1.255 . S
O239 Fe221 2.002 . S
O239 C235 1.295 . S
O240 Fe223 1.997 . S
O240 C235 1.235 . S
C241 O224 1.295 . S
C241 O225 1.235 . S
Fe242 O244 1.918 . S
Fe242 O247 1.997 . S
Fe242 O248 2.002 . S
Fe242 O253 1.976 . S
Fe242 O256 1.996 . S
Fe243 O244 1.918 . S
Fe243 O251 1.997 . S
Fe243 O254 1.996 . S
Fe243 O258 1.976 . S
Fe243 O261 2.002 . S
O244 Fe242 1.918 . S
O244 Fe243 1.918 . S
O244 Fe245 1.918 . S
Fe245 O244 1.918 . S
Fe245 O246 2.002 . S
Fe245 O255 1.976 . S
Fe245 O259 1.996 . S
Fe245 O262 1.997 . S
O246 Fe245 2.002 . S
O246 C263 1.295 . S
O247 Fe242 1.997 . S
O247 C263 1.235 . S
O248 Fe242 2.002 . S
O248 C249 1.295 . S
C249 O248 1.295 . S
C249 O251 1.235 . S
C250 O255 1.287 . S
C250 O256 1.255 . S
O251 Fe243 1.997 . S
O251 C249 1.235 . S
C252 O258 1.287 . S
C252 O259 1.255 . S
O253 Fe242 1.976 . S
O253 C260 1.287 . S
O254 Fe243 1.996 . S
O254 C260 1.255 . S
O255 Fe245 1.976 . S
O255 C250 1.287 . S
O256 Fe242 1.996 . S
O256 C250 1.255 . S
C257 O261 1.295 . S
C257 O262 1.235 . S
O258 Fe243 1.976 . S
O258 C252 1.287 . S
O259 Fe245 1.996 . S
O259 C252 1.255 . S
C260 O253 1.287 . S
C260 O254 1.255 . S
O261 Fe243 2.002 . S
O261 C257 1.295 . S
O262 Fe245 1.997 . S
O262 C257 1.235 . S
C263 O246 1.295 . S
C263 O247 1.235 . S
Fe264 O266 1.918 . S
Fe264 O269 1.997 . S
Fe264 O270 2.002 . S
Fe264 O275 1.976 . S
Fe264 O278 1.996 . S
Fe265 O266 1.918 . S
Fe265 O273 1.997 . S
Fe265 O276 1.996 . S
Fe265 O280 1.976 . S
Fe265 O283 2.002 . S
O266 Fe264 1.918 . S
O266 Fe265 1.918 . S
O266 Fe267 1.918 . S
Fe267 O266 1.918 . S
Fe267 O268 2.002 . S
Fe267 O277 1.976 . S
Fe267 O281 1.996 . S
Fe267 O284 1.997 . S
O268 Fe267 2.002 . S
O268 C285 1.295 . S
O269 Fe264 1.997 . S
O269 C285 1.235 . S
O270 Fe264 2.002 . S
O270 C271 1.295 . S
C271 O270 1.295 . S
C271 O273 1.235 . S
C272 O277 1.287 . S
C272 O278 1.255 . S
O273 Fe265 1.997 . S
O273 C271 1.235 . S
C274 O280 1.287 . S
C274 O281 1.255 . S
O275 Fe264 1.976 . S
O275 C282 1.287 . S
O276 Fe265 1.996 . S
O276 C282 1.255 . S
O277 Fe267 1.976 . S
O277 C272 1.287 . S
O278 Fe264 1.996 . S
O278 C272 1.255 . S
C279 O283 1.295 . S
C279 O284 1.235 . S
O280 Fe265 1.976 . S
O280 C274 1.287 . S
O281 Fe267 1.996 . S
O281 C274 1.255 . S
C282 O275 1.287 . S
C282 O276 1.255 . S
O283 Fe265 2.002 . S
O283 C279 1.295 . S
O284 Fe267 1.997 . S
O284 C279 1.235 . S
C285 O268 1.295 . S
C285 O269 1.235 . S
Fe286 O288 1.918 . S
Fe286 O291 1.997 . S
Fe286 O292 2.002 . S
Fe286 O297 1.976 . S
Fe286 O300 1.996 . S
Fe287 O288 1.918 . S
Fe287 O295 1.997 . S
Fe287 O298 1.996 . S
Fe287 O302 1.976 . S
Fe287 O305 2.002 . S
O288 Fe286 1.918 . S
O288 Fe287 1.918 . S
O288 Fe289 1.918 . S
Fe289 O288 1.918 . S
Fe289 O290 2.002 . S
Fe289 O299 1.976 . S
Fe289 O303 1.996 . S
Fe289 O306 1.997 . S
O290 Fe289 2.002 . S
O290 C307 1.295 . S
O291 Fe286 1.997 . S
O291 C307 1.235 . S
O292 Fe286 2.002 . S
O292 C293 1.295 . S
C293 O292 1.295 . S
C293 O295 1.235 . S
C294 O299 1.287 . S
C294 O300 1.255 . S
O295 Fe287 1.997 . S
O295 C293 1.235 . S
C296 O302 1.287 . S
C296 O303 1.255 . S
O297 Fe286 1.976 . S
O297 C304 1.287 . S
O298 Fe287 1.996 . S
O298 C304 1.255 . S
O299 Fe289 1.976 . S
O299 C294 1.287 . S
O300 Fe286 1.996 . S
O300 C294 1.255 . S
C301 O305 1.295 . S
C301 O306 1.235 . S
O302 Fe287 1.976 . S
O302 C296 1.287 . S
O303 Fe289 1.996 . S
O303 C296 1.255 . S
C304 O297 1.287 . S
C304 O298 1.255 . S
O305 Fe287 2.002 . S
O305 C301 1.295 . S
O306 Fe289 1.997 . S
O306 C301 1.235 . S
C307 O290 1.295 . S
C307 O291 1.235 . S
Fe308 O310 1.918 . S
Fe308 O313 1.997 . S
Fe308 O314 2.002 . S
Fe308 O319 1.976 . S
Fe308 O322 1.996 . S
Fe309 O310 1.918 . S
Fe309 O317 1.997 . S
Fe309 O320 1.996 . S
Fe309 O324 1.976 . S
Fe309 O327 2.002 . S
O310 Fe308 1.918 . S
O310 Fe309 1.918 . S
O310 Fe311 1.918 . S
Fe311 O310 1.918 . S
Fe311 O312 2.002 . S
Fe311 O321 1.976 . S
Fe311 O325 1.996 . S
Fe311 O328 1.997 . S
O312 Fe311 2.002 . S
O312 C329 1.295 . S
O313 Fe308 1.997 . S
O313 C329 1.235 . S
O314 Fe308 2.002 . S
O314 C315 1.295 . S
C315 O314 1.295 . S
C315 O317 1.235 . S
C316 O321 1.287 . S
C316 O322 1.255 . S
O317 Fe309 1.997 . S
O317 C315 1.235 . S
C318 O324 1.287 . S
C318 O325 1.255 . S
O319 Fe308 1.976 . S
O319 C326 1.287 . S
O320 Fe309 1.996 . S
O320 C326 1.255 . S
O321 Fe311 1.976 . S
O321 C316 1.287 . S
O322 Fe308 1.996 . S
O322 C316 1.255 . S
C323 O327 1.295 . S
C323 O328 1.235 . S
O324 Fe309 1.976 . S
O324 C318 1.287 . S
O325 Fe311 1.996 . S
O325 C318 1.255 . S
C326 O319 1.287 . S
C326 O320 1.255 . S
O327 Fe309 2.002 . S
O327 C323 1.295 . S
O328 Fe311 1.997 . S
O328 C323 1.235 . S
C329 O312 1.295 . S
C329 O313 1.235 . S
Fe330 O332 1.918 . S
Fe330 O335 1.997 . S
Fe330 O336 2.002 . S
Fe330 O341 1.976 . S
Fe330 O344 1.996 . S
Fe331 O332 1.918 . S
Fe331 O339 1.997 . S
Fe331 O342 1.996 . S
Fe331 O346 1.976 . S
Fe331 O349 2.002 . S
O332 Fe330 1.918 . S
O332 Fe331 1.918 . S
O332 Fe333 1.918 . S
Fe333 O332 1.918 . S
Fe333 O334 2.002 . S
Fe333 O343 1.976 . S
Fe333 O347 1.996 . S
Fe333 O350 1.997 . S
O334 Fe333 2.002 . S
O334 C351 1.295 . S
O335 Fe330 1.997 . S
O335 C351 1.235 . S
O336 Fe330 2.002 . S
O336 C337 1.295 . S
C337 O336 1.295 . S
C337 O339 1.235 . S
C338 O343 1.287 . S
C338 O344 1.255 . S
O339 Fe331 1.997 . S
O339 C337 1.235 . S
C340 O346 1.287 . S
C340 O347 1.255 . S
O341 Fe330 1.976 . S
O341 C348 1.287 . S
O342 Fe331 1.996 . S
O342 C348 1.255 . S
O343 Fe333 1.976 . S
O343 C338 1.287 . S
O344 Fe330 1.996 . S
O344 C338 1.255 . S
C345 O349 1.295 . S
C345 O350 1.235 . S
O346 Fe331 1.976 . S
O346 C340 1.287 . S
O347 Fe333 1.996 . S
O347 C340 1.255 . S
C348 O341 1.287 . S
C348 O342 1.255 . S
O349 Fe331 2.002 . S
O349 C345 1.295 . S
O350 Fe333 1.997 . S
O350 C345 1.235 . S
C351 O334 1.295 . S
C351 O335 1.235 . S
Fe352 O354 1.918 . S
Fe352 O357 1.997 . S
Fe352 O358 2.002 . S
Fe352 O363 1.976 . S
Fe352 O366 1.996 . S
Fe353 O354 1.918 . S
Fe353 O361 1.997 . S
Fe353 O364 1.996 . S
Fe353 O368 1.976 . S
Fe353 O371 2.002 . S
O354 Fe352 1.918 . S
O354 Fe353 1.918 . S
O354 Fe355 1.918 . S
Fe355 O354 1.918 . S
Fe355 O356 2.002 . S
Fe355 O365 1.976 . S
Fe355 O369 1.996 . S
Fe355 O372 1.997 . S
O356 Fe355 2.002 . S
O356 C373 1.295 . S
O357 Fe352 1.997 . S
O357 C373 1.235 . S
O358 Fe352 2.002 . S
O358 C359 1.295 . S
C359 O358 1.295 . S
C359 O361 1.235 . S
C360 O365 1.287 . S
C360 O366 1.255 . S
O361 Fe353 1.997 . S
O361 C359 1.235 . S
C362 O368 1.287 . S
C362 O369 1.255 . S
O363 Fe352 1.976 . S
O363 C370 1.287 . S
O364 Fe353 1.996 . S
O364 C370 1.255 . S
O365 Fe355 1.976 . S
O365 C360 1.287 . S
O366 Fe352 1.996 . S
O366 C360 1.255 . S
C367 O371 1.295 . S
C367 O372 1.235 . S
O368 Fe353 1.976 . S
O368 C362 1.287 . S
O369 Fe355 1.996 . S
O369 C362 1.255 . S
C370 O363 1.287 . S
C370 O364 1.255 . S
O371 Fe353 2.002 . S
O371 C367 1.295 . S
O372 Fe355 1.997 . S
O372 C367 1.235 . S
C373 O356 1.295 . S
C373 O357 1.235 . S
Fe374 O376 1.918 . S
Fe374 O379 1.997 . S
Fe374 O380 2.002 . S
Fe374 O385 1.976 . S
Fe374 O388 1.996 . S
Fe375 O376 1.918 . S
Fe375 O383 1.997 . S
Fe375 O386 1.996 . S
Fe375 O390 1.976 . S
Fe375 O393 2.002 . S
O376 Fe374 1.918 . S
O376 Fe375 1.918 . S
O376 Fe377 1.918 . S
Fe377 O376 1.918 . S
Fe377 O378 2.002 . S
Fe377 O387 1.976 . S
Fe377 O391 1.996 . S
Fe377 O394 1.997 . S
O378 Fe377 2.002 . S
O378 C395 1.295 . S
O379 Fe374 1.997 . S
O379 C395 1.235 . S
O380 Fe374 2.002 . S
O380 C381 1.295 . S
C381 O380 1.295 . S
C381 O383 1.235 . S
C382 O387 1.287 . S
C382 O388 1.255 . S
O383 Fe375 1.997 . S
O383 C381 1.235 . S
C384 O390 1.287 . S
C384 O391 1.255 . S
O385 Fe374 1.976 . S
O385 C392 1.287 . S
O386 Fe375 1.996 . S
O386 C392 1.255 . S
O387 Fe377 1.976 . S
O387 C382 1.287 . S
O388 Fe374 1.996 . S
O388 C382 1.255 . S
C389 O393 1.295 . S
C389 O394 1.235 . S
O390 Fe375 1.976 . S
O390 C384 1.287 . S
O391 Fe377 1.996 . S
O391 C384 1.255 . S
C392 O385 1.287 . S
C392 O386 1.255 . S
O393 Fe375 2.002 . S
O393 C389 1.295 . S
O394 Fe377 1.997 . S
O394 C389 1.235 . S
C395 O378 1.295 . S
C395 O379 1.235 . S
Fe396 O398 1.918 . S
Fe396 O401 1.997 . S
Fe396 O402 2.002 . S
Fe396 O407 1.976 . S
Fe396 O410 1.996 . S
Fe397 O398 1.918 . S
Fe397 O405 1.997 . S
Fe397 O408 1.996 . S
Fe397 O412 1.976 . S
Fe397 O415 2.002 . S
O398 Fe396 1.918 . S
O398 Fe397 1.918 . S
O398 Fe399 1.918 . S
Fe399 O398 1.918 . S
Fe399 O400 2.002 . S
Fe399 O409 1.976 . S
Fe399 O413 1.996 . S
Fe399 O416 1.997 . S
O400 Fe399 2.002 . S
O400 C417 1.295 . S
O401 Fe396 1.997 . S
O401 C417 1.235 . S
O402 Fe396 2.002 . S
O402 C403 1.295 . S
C403 O402 1.295 . S
C403 O405 1.235 . S
C404 O409 1.287 . S
C404 O410 1.255 . S
O405 Fe397 1.997 . S
O405 C403 1.235 . S
C406 O412 1.287 . S
C406 O413 1.255 . S
O407 Fe396 1.976 . S
O407 C414 1.287 . S
O408 Fe397 1.996 . S
O408 C414 1.255 . S
O409 Fe399 1.976 . S
O409 C404 1.287 . S
O410 Fe396 1.996 . S
O410 C404 1.255 . S
C411 O415 1.295 . S
C411 O416 1.235 . S
O412 Fe397 1.976 . S
O412 C406 1.287 . S
O413 Fe399 1.996 . S
O413 C406 1.255 . S
C414 O407 1.287 . S
C414 O408 1.255 . S
O415 Fe397 2.002 . S
O415 C411 1.295 . S
O416 Fe399 1.997 . S
O416 C411 1.235 . S
C417 O400 1.295 . S
C417 O401 1.235 . S
Fe418 O420 1.918 . S
Fe418 O423 1.997 . S
Fe418 O424 2.002 . S
Fe418 O429 1.976 . S
Fe418 O432 1.996 . S
Fe419 O420 1.918 . S
Fe419 O427 1.997 . S
Fe419 O430 1.996 . S
Fe419 O434 1.976 . S
Fe419 O437 2.002 . S
O420 Fe418 1.918 . S
O420 Fe419 1.918 . S
O420 Fe421 1.918 . S
Fe421 O420 1.918 . S
Fe421 O422 2.002 . S
Fe421 O431 1.976 . S
Fe421 O435 1.996 . S
Fe421 O438 1.997 . S
O422 Fe421 2.002 . S
O422 C439 1.295 . S
O423 Fe418 1.997 . S
O423 C439 1.235 . S
O424 Fe418 2.002 . S
O424 C425 1.295 . S
C425 O424 1.295 . S
C425 O427 1.235 . S
C426 O431 1.287 . S
C426 O432 1.255 . S
O427 Fe419 1.997 . S
O427 C425 1.235 . S
C428 O434 1.287 . S
C428 O435 1.255 . S
O429 Fe418 1.976 . S
O429 C436 1.287 . S
O430 Fe419 1.996 . S
O430 C436 1.255 . S
O431 Fe421 1.976 . S
O431 C426 1.287 . S
O432 Fe418 1.996 . S
O432 C426 1.255 . S
C433 O437 1.295 . S
C433 O438 1.235 . S
O434 Fe419 1.976 . S
O434 C428 1.287 . S
O435 Fe421 1.996 . S
O435 C428 1.255 . S
C436 O429 1.287 . S
C436 O430 1.255 . S
O437 Fe419 2.002 . S
O437 C433 1.295 . S
O438 Fe421 1.997 . S
O438 C433 1.235 . S
C439 O422 1.295 . S
C439 O423 1.235 . S
Fe440 O442 1.918 . S
Fe440 O445 1.997 . S
Fe440 O446 2.002 . S
Fe440 O451 1.976 . S
Fe440 O454 1.996 . S
Fe441 O442 1.918 . S
Fe441 O449 1.997 . S
Fe441 O452 1.996 . S
Fe441 O456 1.976 . S
Fe441 O459 2.002 . S
O442 Fe440 1.918 . S
O442 Fe441 1.918 . S
O442 Fe443 1.918 . S
Fe443 O442 1.918 . S
Fe443 O444 2.002 . S
Fe443 O453 1.976 . S
Fe443 O457 1.996 . S
Fe443 O460 1.997 . S
O444 Fe443 2.002 . S
O444 C461 1.295 . S
O445 Fe440 1.997 . S
O445 C461 1.235 . S
O446 Fe440 2.002 . S
O446 C447 1.295 . S
C447 O446 1.295 . S
C447 O449 1.235 . S
C448 O453 1.287 . S
C448 O454 1.255 . S
O449 Fe441 1.997 . S
O449 C447 1.235 . S
C450 O456 1.287 . S
C450 O457 1.255 . S
O451 Fe440 1.976 . S
O451 C458 1.287 . S
O452 Fe441 1.996 . S
O452 C458 1.255 . S
O453 Fe443 1.976 . S
O453 C448 1.287 . S
O454 Fe440 1.996 . S
O454 C448 1.255 . S
C455 O459 1.295 . S
C455 O460 1.235 . S
O456 Fe441 1.976 . S
O456 C450 1.287 . S
O457 Fe443 1.996 . S
O457 C450 1.255 . S
C458 O451 1.287 . S
C458 O452 1.255 . S
O459 Fe441 2.002 . S
O459 C455 1.295 . S
O460 Fe443 1.997 . S
O460 C455 1.235 . S
C461 O444 1.295 . S
C461 O445 1.235 . S
Fe462 O464 1.918 . S
Fe462 O467 1.997 . S
Fe462 O468 2.002 . S
Fe462 O473 1.976 . S
Fe462 O476 1.996 . S
Fe463 O464 1.918 . S
Fe463 O471 1.997 . S
Fe463 O474 1.996 . S
Fe463 O478 1.976 . S
Fe463 O481 2.002 . S
O464 Fe462 1.918 . S
O464 Fe463 1.918 . S
O464 Fe465 1.918 . S
Fe465 O464 1.918 . S
Fe465 O466 2.002 . S
Fe465 O475 1.976 . S
Fe465 O479 1.996 . S
Fe465 O482 1.997 . S
O466 Fe465 2.002 . S
O466 C483 1.295 . S
O467 Fe462 1.997 . S
O467 C483 1.235 . S
O468 Fe462 2.002 . S
O468 C469 1.295 . S
C469 O468 1.295 . S
C469 O471 1.235 . S
C470 O475 1.287 . S
C470 O476 1.255 . S
O471 Fe463 1.997 . S
O471 C469 1.235 . S
C472 O478 1.287 . S
C472 O479 1.255 . S
O473 Fe462 1.976 . S
O473 C480 1.287 . S
O474 Fe463 1.996 . S
O474 C480 1.255 . S
O475 Fe465 1.976 . S
O475 C470 1.287 . S
O476 Fe462 1.996 . S
O476 C470 1.255 . S
C477 O481 1.295 . S
C477 O482 1.235 . S
O478 Fe463 1.976 . S
O478 C472 1.287 . S
O479 Fe465 1.996 . S
O479 C472 1.255 . S
C480 O473 1.287 . S
C480 O474 1.255 . S
O481 Fe463 2.002 . S
O481 C477 1.295 . S
O482 Fe465 1.997 . S
O482 C477 1.235 . S
C483 O466 1.295 . S
C483 O467 1.235 . S
Fe484 O486 1.918 . S
Fe484 O489 1.997 . S
Fe484 O490 2.002 . S
Fe484 O495 1.976 . S
Fe484 O498 1.996 . S
Fe485 O486 1.918 . S
Fe485 O493 1.997 . S
Fe485 O496 1.996 . S
Fe485 O500 1.976 . S
Fe485 O503 2.002 . S
O486 Fe484 1.918 . S
O486 Fe485 1.918 . S
O486 Fe487 1.918 . S
Fe487 O486 1.918 . S
Fe487 O488 2.002 . S
Fe487 O497 1.976 . S
Fe487 O501 1.996 . S
Fe487 O504 1.997 . S
O488 Fe487 2.002 . S
O488 C505 1.295 . S
O489 Fe484 1.997 . S
O489 C505 1.235 . S
O490 Fe484 2.002 . S
O490 C491 1.295 . S
C491 O490 1.295 . S
C491 O493 1.235 . S
C492 O497 1.287 . S
C492 O498 1.255 . S
O493 Fe485 1.997 . S
O493 C491 1.235 . S
C494 O500 1.287 . S
C494 O501 1.255 . S
O495 Fe484 1.976 . S
O495 C502 1.287 . S
O496 Fe485 1.996 . S
O496 C502 1.255 . S
O497 Fe487 1.976 . S
O497 C492 1.287 . S
O498 Fe484 1.996 . S
O498 C492 1.255 . S
C499 O503 1.295 . S
C499 O504 1.235 . S
O500 Fe485 1.976 . S
O500 C494 1.287 . S
O501 Fe487 1.996 . S
O501 C494 1.255 . S
C502 O495 1.287 . S
C502 O496 1.255 . S
O503 Fe485 2.002 . S
O503 C499 1.295 . S
O504 Fe487 1.997 . S
O504 C499 1.235 . S
C505 O488 1.295 . S
C505 O489 1.235 . S
Fe506 O508 1.918 . S
Fe506 O511 1.997 . S
Fe506 O512 2.002 . S
Fe506 O517 1.976 . S
Fe506 O520 1.996 . S
Fe507 O508 1.918 . S
Fe507 O515 1.997 . S
Fe507 O518 1.996 . S
Fe507 O522 1.976 . S
Fe507 O525 2.002 . S
O508 Fe506 1.918 . S
O508 Fe507 1.918 . S
O508 Fe509 1.918 . S
Fe509 O508 1.918 . S
Fe509 O510 2.002 . S
Fe509 O519 1.976 . S
Fe509 O523 1.996 . S
Fe509 O526 1.997 . S
O510 Fe509 2.002 . S
O510 C527 1.295 . S
O511 Fe506 1.997 . S
O511 C527 1.235 . S
O512 Fe506 2.002 . S
O512 C513 1.295 . S
C513 O512 1.295 . S
C513 O515 1.235 . S
C514 O519 1.287 . S
C514 O520 1.255 . S
O515 Fe507 1.997 . S
O515 C513 1.235 . S
C516 O522 1.287 . S
C516 O523 1.255 . S
O517 Fe506 1.976 . S
O517 C524 1.287 . S
O518 Fe507 1.996 . S
O518 C524 1.255 . S
O519 Fe509 1.976 . S
O519 C514 1.287 . S
O520 Fe506 1.996 . S
O520 C514 1.255 . S
C521 O525 1.295 . S
C521 O526 1.235 . S
O522 Fe507 1.976 . S
O522 C516 1.287 . S
O523 Fe509 1.996 . S
O523 C516 1.255 . S
C524 O517 1.287 . S
C524 O518 1.255 . S
O525 Fe507 2.002 . S
O525 C521 1.295 . S
O526 Fe509 1.997 . S
O526 C521 1.235 . S
C527 O510 1.295 . S
C527 O511 1.235 . S
Fe528 O530 1.918 . S
Fe528 O533 1.997 . S
Fe528 O534 2.002 . S
Fe528 O539 1.976 . S
Fe528 O542 1.996 . S
Fe529 O530 1.918 . S
Fe529 O537 1.997 . S
Fe529 O540 1.996 . S
Fe529 O544 1.976 . S
Fe529 O547 2.002 . S
O530 Fe528 1.918 . S
O530 Fe529 1.918 . S
O530 Fe531 1.918 . S
Fe531 O530 1.918 . S
Fe531 O532 2.002 . S
Fe531 O541 1.976 . S
Fe531 O545 1.996 . S
Fe531 O548 1.997 . S
O532 Fe531 2.002 . S
O532 C549 1.295 . S
O533 Fe528 1.997 . S
O533 C549 1.235 . S
O534 Fe528 2.002 . S
O534 C535 1.295 . S
C535 O534 1.295 . S
C535 O537 1.235 . S
C536 O541 1.287 . S
C536 O542 1.255 . S
O537 Fe529 1.997 . S
O537 C535 1.235 . S
C538 O544 1.287 . S
C538 O545 1.255 . S
O539 Fe528 1.976 . S
O539 C546 1.287 . S
O540 Fe529 1.996 . S
O540 C546 1.255 . S
O541 Fe531 1.976 . S
O541 C536 1.287 . S
O542 Fe528 1.996 . S
O542 C536 1.255 . S
C543 O547 1.295 . S
C543 O548 1.235 . S
O544 Fe529 1.976 . S
O544 C538 1.287 . S
O545 Fe531 1.996 . S
O545 C538 1.255 . S
C546 O539 1.287 . S
C546 O540 1.255 . S
O547 Fe529 2.002 . S
O547 C543 1.295 . S
O548 Fe531 1.997 . S
O548 C543 1.235 . S
C549 O532 1.295 . S
C549 O533 1.235 . S
Fe550 O552 1.918 . S
Fe550 O555 1.997 . S
Fe550 O556 2.002 . S
Fe550 O561 1.976 . S
Fe550 O564 1.996 . S
Fe551 O552 1.918 . S
Fe551 O559 1.997 . S
Fe551 O562 1.996 . S
Fe551 O566 1.976 . S
Fe551 O569 2.002 . S
O552 Fe550 1.918 . S
O552 Fe551 1.918 . S
O552 Fe553 1.918 . S
Fe553 O552 1.918 . S
Fe553 O554 2.002 . S
Fe553 O563 1.976 . S
Fe553 O567 1.996 . S
Fe553 O570 1.997 . S
O554 Fe553 2.002 . S
O554 C571 1.295 . S
O555 Fe550 1.997 . S
O555 C571 1.235 . S
O556 Fe550 2.002 . S
O556 C557 1.295 . S
C557 O556 1.295 . S
C557 O559 1.235 . S
C558 O563 1.287 . S
C558 O564 1.255 . S
O559 Fe551 1.997 . S
O559 C557 1.235 . S
C560 O566 1.287 . S
C560 O567 1.255 . S
O561 Fe550 1.976 . S
O561 C568 1.287 . S
O562 Fe551 1.996 . S
O562 C568 1.255 . S
O563 Fe553 1.976 . S
O563 C558 1.287 . S
O564 Fe550 1.996 . S
O564 C558 1.255 . S
C565 O569 1.295 . S
C565 O570 1.235 . S
O566 Fe551 1.976 . S
O566 C560 1.287 . S
O567 Fe553 1.996 . S
O567 C560 1.255 . S
C568 O561 1.287 . S
C568 O562 1.255 . S
O569 Fe551 2.002 . S
O569 C565 1.295 . S
O570 Fe553 1.997 . S
O570 C565 1.235 . S
C571 O554 1.295 . S
C571 O555 1.235 . S
Fe572 O574 1.918 . S
Fe572 O577 1.997 . S
Fe572 O578 2.002 . S
Fe572 O583 1.976 . S
Fe572 O586 1.996 . S
Fe573 O574 1.918 . S
Fe573 O581 1.997 . S
Fe573 O584 1.996 . S
Fe573 O588 1.976 . S
Fe573 O591 2.002 . S
O574 Fe572 1.918 . S
O574 Fe573 1.918 . S
O574 Fe575 1.918 . S
Fe575 O574 1.918 . S
Fe575 O576 2.002 . S
Fe575 O585 1.976 . S
Fe575 O589 1.996 . S
Fe575 O592 1.997 . S
O576 Fe575 2.002 . S
O576 C593 1.295 . S
O577 Fe572 1.997 . S
O577 C593 1.235 . S
O578 Fe572 2.002 . S
O578 C579 1.295 . S
C579 O578 1.295 . S
C579 O581 1.235 . S
C580 O585 1.287 . S
C580 O586 1.255 . S
O581 Fe573 1.997 . S
O581 C579 1.235 . S
C582 O588 1.287 . S
C582 O589 1.255 . S
O583 Fe572 1.976 . S
O583 C590 1.287 . S
O584 Fe573 1.996 . S
O584 C590 1.255 . S
O585 Fe575 1.976 . S
O585 C580 1.287 . S
O586 Fe572 1.996 . S
O586 C580 1.255 . S
C587 O591 1.295 . S
C587 O592 1.235 . S
O588 Fe573 1.976 . S
O588 C582 1.287 . S
O589 Fe575 1.996 . S
O589 C582 1.255 . S
C590 O583 1.287 . S
C590 O584 1.255 . S
O591 Fe573 2.002 . S
O591 C587 1.295 . S
O592 Fe575 1.997 . S
O592 C587 1.235 . S
C593 O576 1.295 . S
C593 O577 1.235 . S
Fe594 O596 1.918 . S
Fe594 O599 1.997 . S
Fe594 O600 2.002 . S
Fe594 O605 1.976 . S
Fe594 O608 1.996 . S
Fe595 O596 1.918 . S
Fe595 O603 1.997 . S
Fe595 O606 1.996 . S
Fe595 O610 1.976 . S
Fe595 O613 2.002 . S
O596 Fe594 1.918 . S
O596 Fe595 1.918 . S
O596 Fe597 1.918 . S
Fe597 O596 1.918 . S
Fe597 O598 2.002 . S
Fe597 O607 1.976 . S
Fe597 O611 1.996 . S
Fe597 O614 1.997 . S
O598 Fe597 2.002 . S
O598 C615 1.295 . S
O599 Fe594 1.997 . S
O599 C615 1.235 . S
O600 Fe594 2.002 . S
O600 C601 1.295 . S
C601 O600 1.295 . S
C601 O603 1.235 . S
C602 O607 1.287 . S
C602 O608 1.255 . S
O603 Fe595 1.997 . S
O603 C601 1.235 . S
C604 O610 1.287 . S
C604 O611 1.255 . S
O605 Fe594 1.976 . S
O605 C612 1.287 . S
O606 Fe595 1.996 . S
O606 C612 1.255 . S
O607 Fe597 1.976 . S
O607 C602 1.287 . S
O608 Fe594 1.996 . S
O608 C602 1.255 . S
C609 O613 1.295 . S
C609 O614 1.235 . S
O610 Fe595 1.976 . S
O610 C604 1.287 . S
O611 Fe597 1.996 . S
O611 C604 1.255 . S
C612 O605 1.287 . S
C612 O606 1.255 . S
O613 Fe595 2.002 . S
O613 C609 1.295 . S
O614 Fe597 1.997 . S
O614 C609 1.235 . S
C615 O598 1.295 . S
C615 O599 1.235 . S
Fe616 O618 1.918 . S
Fe616 O621 1.997 . S
Fe616 O622 2.002 . S
Fe616 O627 1.976 . S
Fe616 O630 1.996 . S
Fe617 O618 1.918 . S
Fe617 O625 1.997 . S
Fe617 O628 1.996 . S
Fe617 O632 1.976 . S
Fe617 O635 2.002 . S
O618 Fe616 1.918 . S
O618 Fe617 1.918 . S
O618 Fe619 1.918 . S
Fe619 O618 1.918 . S
Fe619 O620 2.002 . S
Fe619 O629 1.976 . S
Fe619 O633 1.996 . S
Fe619 O636 1.997 . S
O620 Fe619 2.002 . S
O620 C637 1.295 . S
O621 Fe616 1.997 . S
O621 C637 1.235 . S
O622 Fe616 2.002 . S
O622 C623 1.295 . S
C623 O622 1.295 . S
C623 O625 1.235 . S
C624 O629 1.287 . S
C624 O630 1.255 . S
O625 Fe617 1.997 . S
O625 C623 1.235 . S
C626 O632 1.287 . S
C626 O633 1.255 . S
O627 Fe616 1.976 . S
O627 C634 1.287 . S
O628 Fe617 1.996 . S
O628 C634 1.255 . S
O629 Fe619 1.976 . S
O629 C624 1.287 . S
O630 Fe616 1.996 . S
O630 C624 1.255 . S
C631 O635 1.295 . S
C631 O636 1.235 . S
O632 Fe617 1.976 . S
O632 C626 1.287 . S
O633 Fe619 1.996 . S
O633 C626 1.255 . S
C634 O627 1.287 . S
C634 O628 1.255 . S
O635 Fe617 2.002 . S
O635 C631 1.295 . S
O636 Fe619 1.997 . S
O636 C631 1.235 . S
C637 O620 1.295 . S
C637 O621 1.235 . S
Fe638 O640 1.918 . S
Fe638 O643 1.997 . S
Fe638 O644 2.002 . S
Fe638 O649 1.976 . S
Fe638 O652 1.996 . S
Fe639 O640 1.918 . S
Fe639 O647 1.997 . S
Fe639 O650 1.996 . S
Fe639 O654 1.976 . S
Fe639 O657 2.002 . S
O640 Fe638 1.918 . S
O640 Fe639 1.918 . S
O640 Fe641 1.918 . S
Fe641 O640 1.918 . S
Fe641 O642 2.002 . S
Fe641 O651 1.976 . S
Fe641 O655 1.996 . S
Fe641 O658 1.997 . S
O642 Fe641 2.002 . S
O642 C659 1.295 . S
O643 Fe638 1.997 . S
O643 C659 1.235 . S
O644 Fe638 2.002 . S
O644 C645 1.295 . S
C645 O644 1.295 . S
C645 O647 1.235 . S
C646 O651 1.287 . S
C646 O652 1.255 . S
O647 Fe639 1.997 . S
O647 C645 1.235 . S
C648 O654 1.287 . S
C648 O655 1.255 . S
O649 Fe638 1.976 . S
O649 C656 1.287 . S
O650 Fe639 1.996 . S
O650 C656 1.255 . S
O651 Fe641 1.976 . S
O651 C646 1.287 . S
O652 Fe638 1.996 . S
O652 C646 1.255 . S
C653 O657 1.295 . S
C653 O658 1.235 . S
O654 Fe639 1.976 . S
O654 C648 1.287 . S
O655 Fe641 1.996 . S
O655 C648 1.255 . S
C656 O649 1.287 . S
C656 O650 1.255 . S
O657 Fe639 2.002 . S
O657 C653 1.295 . S
O658 Fe641 1.997 . S
O658 C653 1.235 . S
C659 O642 1.295 . S
C659 O643 1.235 . S
Fe660 O662 1.918 . S
Fe660 O665 1.997 . S
Fe660 O666 2.002 . S
Fe660 O671 1.976 . S
Fe660 O674 1.996 . S
Fe661 O662 1.918 . S
Fe661 O669 1.997 . S
Fe661 O672 1.996 . S
Fe661 O676 1.976 . S
Fe661 O679 2.002 . S
O662 Fe660 1.918 . S
O662 Fe661 1.918 . S
O662 Fe663 1.918 . S
Fe663 O662 1.918 . S
Fe663 O664 2.002 . S
Fe663 O673 1.976 . S
Fe663 O677 1.996 . S
Fe663 O680 1.997 . S
O664 Fe663 2.002 . S
O664 C681 1.295 . S
O665 Fe660 1.997 . S
O665 C681 1.235 . S
O666 Fe660 2.002 . S
O666 C667 1.295 . S
C667 O666 1.295 . S
C667 O669 1.235 . S
C668 O673 1.287 . S
C668 O674 1.255 . S
O669 Fe661 1.997 . S
O669 C667 1.235 . S
C670 O676 1.287 . S
C670 O677 1.255 . S
O671 Fe660 1.976 . S
O671 C678 1.287 . S
O672 Fe661 1.996 . S
O672 C678 1.255 . S
O673 Fe663 1.976 . S
O673 C668 1.287 . S
O674 Fe660 1.996 . S
O674 C668 1.255 . S
C675 O679 1.295 . S
C675 O680 1.235 . S
O676 Fe661 1.976 . S
O676 C670 1.287 . S
O677 Fe663 1.996 . S
O677 C670 1.255 . S
C678 O671 1.287 . S
C678 O672 1.255 . S
O679 Fe661 2.002 . S
O679 C675 1.295 . S
O680 Fe663 1.997 . S
O680 C675 1.235 . S
C681 O664 1.295 . S
C681 O665 1.235 . S
Fe682 O684 1.918 . S
Fe682 O687 1.997 . S
Fe682 O688 2.002 . S
Fe682 O693 1.976 . S
Fe682 O696 1.996 . S
Fe683 O684 1.918 . S
Fe683 O691 1.997 . S
Fe683 O694 1.996 . S
Fe683 O698 1.976 . S
Fe683 O701 2.002 . S
O684 Fe682 1.918 . S
O684 Fe683 1.918 . S
O684 Fe685 1.918 . S
Fe685 O684 1.918 . S
Fe685 O686 2.002 . S
Fe685 O695 1.976 . S
Fe685 O699 1.996 . S
Fe685 O702 1.997 . S
O686 Fe685 2.002 . S
O686 C703 1.295 . S
O687 Fe682 1.997 . S
O687 C703 1.235 . S
O688 Fe682 2.002 . S
O688 C689 1.295 . S
C689 O688 1.295 . S
C689 O691 1.235 . S
C690 O695 1.287 . S
C690 O696 1.255 . S
O691 Fe683 1.997 . S
O691 C689 1.235 . S
C692 O698 1.287 . S
C692 O699 1.255 . S
O693 Fe682 1.976 . S
O693 C700 1.287 . S
O694 Fe683 1.996 . S
O694 C700 1.255 . S
O695 Fe685 1.976 . S
O695 C690 1.287 . S
O696 Fe682 1.996 . S
O696 C690 1.255 . S
C697 O701 1.295 . S
C697 O702 1.235 . S
O698 Fe683 1.976 . S
O698 C692 1.287 . S
O699 Fe685 1.996 . S
O699 C692 1.255 . S
C700 O693 1.287 . S
C700 O694 1.255 . S
O701 Fe683 2.002 . S
O701 C697 1.295 . S
O702 Fe685 1.997 . S
O702 C697 1.235 . S
C703 O686 1.295 . S
C703 O687 1.235 . S
H704 C710 0.930 . S
H705 C713 0.930 . S
H706 C714 0.930 . S
H707 C715 0.930 . S
H708 C718 0.930 . S
H709 C719 0.930 . S
C710 H704 0.930 . S
C710 C711 1.355 . S
C710 C712 1.415 . S
C711 C710 1.355 . S
C711 C713 1.419 . S
C712 C710 1.415 . S
C712 C717 1.425 . S
C712 C719 1.409 . S
C713 H705 0.930 . S
C713 C711 1.419 . S
C713 C714 1.362 . S
C714 H706 0.930 . S
C714 C713 1.362 . S
C714 C717 1.409 . S
C715 H707 0.930 . S
C715 C716 1.355 . S
C715 C717 1.415 . S
C716 C715 1.355 . S
C716 C718 1.419 . S
C717 C712 1.425 . S
C717 C714 1.409 . S
C717 C715 1.415 . S
C718 H708 0.930 . S
C718 C716 1.419 . S
C718 C719 1.362 . S
C719 H709 0.930 . S
C719 C712 1.409 . S
C719 C718 1.362 . S
H720 C726 0.930 . S
H721 C729 0.930 . S
H722 C730 0.930 . S
H723 C731 0.930 . S
H724 C734 0.930 . S
H725 C735 0.930 . S
C726 H720 0.930 . S
C726 C727 1.355 . S
C726 C728 1.415 . S
C727 C726 1.355 . S
C727 C729 1.419 . S
C728 C726 1.415 . S
C728 C733 1.425 . S
C728 C735 1.409 . S
C729 H721 0.930 . S
C729 C727 1.419 . S
C729 C730 1.362 . S
C730 H722 0.930 . S
C730 C729 1.362 . S
C730 C733 1.409 . S
C731 H723 0.930 . S
C731 C732 1.355 . S
C731 C733 1.415 . S
C732 C731 1.355 . S
C732 C734 1.419 . S
C733 C728 1.425 . S
C733 C730 1.409 . S
C733 C731 1.415 . S
C734 H724 0.930 . S
C734 C732 1.419 . S
C734 C735 1.362 . S
C735 H725 0.930 . S
C735 C728 1.409 . S
C735 C734 1.362 . S
H736 C742 0.930 . S
H737 C745 0.930 . S
H738 C746 0.930 . S
H739 C747 0.930 . S
H740 C750 0.930 . S
H741 C751 0.930 . S
C742 H736 0.930 . S
C742 C743 1.355 . S
C742 C744 1.415 . S
C743 C742 1.355 . S
C743 C745 1.419 . S
C744 C742 1.415 . S
C744 C749 1.425 . S
C744 C751 1.409 . S
C745 H737 0.930 . S
C745 C743 1.419 . S
C745 C746 1.362 . S
C746 H738 0.930 . S
C746 C745 1.362 . S
C746 C749 1.409 . S
C747 H739 0.930 . S
C747 C748 1.355 . S
C747 C749 1.415 . S
C748 C747 1.355 . S
C748 C750 1.419 . S
C749 C744 1.425 . S
C749 C746 1.409 . S
C749 C747 1.415 . S
C750 H740 0.930 . S
C750 C748 1.419 . S
C750 C751 1.362 . S
C751 H741 0.930 . S
C751 C744 1.409 . S
C751 C750 1.362 . S
H752 C758 0.930 . S
H753 C761 0.930 . S
H754 C762 0.930 . S
H755 C763 0.930 . S
H756 C766 0.930 . S
H757 C767 0.930 . S
C758 H752 0.930 . S
C758 C759 1.355 . S
C758 C760 1.415 . S
C759 C758 1.355 . S
C759 C761 1.419 . S
C760 C758 1.415 . S
C760 C765 1.425 . S
C760 C767 1.409 . S
C761 H753 0.930 . S
C761 C759 1.419 . S
C761 C762 1.362 . S
C762 H754 0.930 . S
C762 C761 1.362 . S
C762 C765 1.409 . S
C763 H755 0.930 . S
C763 C764 1.355 . S
C763 C765 1.415 . S
C764 C763 1.355 . S
C764 C766 1.419 . S
C765 C760 1.425 . S
C765 C762 1.409 . S
C765 C763 1.415 . S
C766 H756 0.930 . S
C766 C764 1.419 . S
C766 C767 1.362 . S
C767 H757 0.930 . S
C767 C760 1.409 . S
C767 C766 1.362 . S
H768 C774 0.930 . S
H769 C777 0.930 . S
H770 C778 0.930 . S
H771 C779 0.930 . S
H772 C782 0.930 . S
H773 C783 0.930 . S
C774 H768 0.930 . S
C774 C775 1.355 . S
C774 C776 1.415 . S
C775 C774 1.355 . S
C775 C777 1.419 . S
C776 C774 1.415 . S
C776 C781 1.425 . S
C776 C783 1.409 . S
C777 H769 0.930 . S
C777 C775 1.419 . S
C777 C778 1.362 . S
C778 H770 0.930 . S
C778 C777 1.362 . S
C778 C781 1.409 . S
C779 H771 0.930 . S
C779 C780 1.355 . S
C779 C781 1.415 . S
C780 C779 1.355 . S
C780 C782 1.419 . S
C781 C776 1.425 . S
C781 C778 1.409 . S
C781 C779 1.415 . S
C782 H772 0.930 . S
C782 C780 1.419 . S
C782 C783 1.362 . S
C783 H773 0.930 . S
C783 C776 1.409 . S
C783 C782 1.362 . S
H784 C790 0.930 . S
H785 C793 0.930 . S
H786 C794 0.930 . S
H787 C795 0.930 . S
H788 C798 0.930 . S
H789 C799 0.930 . S
C790 H784 0.930 . S
C790 C791 1.355 . S
C790 C792 1.415 . S
C791 C790 1.355 . S
C791 C793 1.419 . S
C792 C790 1.415 . S
C792 C797 1.425 . S
C792 C799 1.409 . S
C793 H785 0.930 . S
C793 C791 1.419 . S
C793 C794 1.362 . S
C794 H786 0.930 . S
C794 C793 1.362 . S
C794 C797 1.409 . S
C795 H787 0.930 . S
C795 C796 1.355 . S
C795 C797 1.415 . S
C796 C795 1.355 . S
C796 C798 1.419 . S
C797 C792 1.425 . S
C797 C794 1.409 . S
C797 C795 1.415 . S
C798 H788 0.930 . S
C798 C796 1.419 . S
C798 C799 1.362 . S
C799 H789 0.930 . S
C799 C792 1.409 . S
C799 C798 1.362 . S
H800 C806 0.930 . S
H801 C809 0.930 . S
H802 C810 0.930 . S
H803 C811 0.930 . S
H804 C814 0.930 . S
H805 C815 0.930 . S
C806 H800 0.930 . S
C806 C807 1.355 . S
C806 C808 1.415 . S
C807 C806 1.355 . S
C807 C809 1.419 . S
C808 C806 1.415 . S
C808 C813 1.425 . S
C808 C815 1.409 . S
C809 H801 0.930 . S
C809 C807 1.419 . S
C809 C810 1.362 . S
C810 H802 0.930 . S
C810 C809 1.362 . S
C810 C813 1.409 . S
C811 H803 0.930 . S
C811 C812 1.355 . S
C811 C813 1.415 . S
C812 C811 1.355 . S
C812 C814 1.419 . S
C813 C808 1.425 . S
C813 C810 1.409 . S
C813 C811 1.415 . S
C814 H804 0.930 . S
C814 C812 1.419 . S
C814 C815 1.362 . S
C815 H805 0.930 . S
C815 C808 1.409 . S
C815 C814 1.362 . S
H816 C822 0.930 . S
H817 C825 0.930 . S
H818 C826 0.930 . S
H819 C827 0.930 . S
H820 C830 0.930 . S
H821 C831 0.930 . S
C822 H816 0.930 . S
C822 C823 1.355 . S
C822 C824 1.415 . S
C823 C822 1.355 . S
C823 C825 1.419 . S
C824 C822 1.415 . S
C824 C829 1.425 . S
C824 C831 1.409 . S
C825 H817 0.930 . S
C825 C823 1.419 . S
C825 C826 1.362 . S
C826 H818 0.930 . S
C826 C825 1.362 . S
C826 C829 1.409 . S
C827 H819 0.930 . S
C827 C828 1.355 . S
C827 C829 1.415 . S
C828 C827 1.355 . S
C828 C830 1.419 . S
C829 C824 1.425 . S
C829 C826 1.409 . S
C829 C827 1.415 . S
C830 H820 0.930 . S
C830 C828 1.419 . S
C830 C831 1.362 . S
C831 H821 0.930 . S
C831 C824 1.409 . S
C831 C830 1.362 . S
H832 C838 0.930 . S
H833 C841 0.930 . S
H834 C842 0.930 . S
H835 C843 0.930 . S
H836 C846 0.930 . S
H837 C847 0.930 . S
C838 H832 0.930 . S
C838 C839 1.355 . S
C838 C840 1.415 . S
C839 C838 1.355 . S
C839 C841 1.419 . S
C840 C838 1.415 . S
C840 C845 1.425 . S
C840 C847 1.409 . S
C841 H833 0.930 . S
C841 C839 1.419 . S
C841 C842 1.362 . S
C842 H834 0.930 . S
C842 C841 1.362 . S
C842 C845 1.409 . S
C843 H835 0.930 . S
C843 C844 1.355 . S
C843 C845 1.415 . S
C844 C843 1.355 . S
C844 C846 1.419 . S
C845 C840 1.425 . S
C845 C842 1.409 . S
C845 C843 1.415 . S
C846 H836 0.930 . S
C846 C844 1.419 . S
C846 C847 1.362 . S
C847 H837 0.930 . S
C847 C840 1.409 . S
C847 C846 1.362 . S
H848 C854 0.930 . S
H849 C857 0.930 . S
H850 C858 0.930 . S
H851 C859 0.930 . S
H852 C862 0.930 . S
H853 C863 0.930 . S
C854 H848 0.930 . S
C854 C855 1.355 . S
C854 C856 1.415 . S
C855 C854 1.355 . S
C855 C857 1.419 . S
C856 C854 1.415 . S
C856 C861 1.425 . S
C856 C863 1.409 . S
C857 H849 0.930 . S
C857 C855 1.419 . S
C857 C858 1.362 . S
C858 H850 0.930 . S
C858 C857 1.362 . S
C858 C861 1.409 . S
C859 H851 0.930 . S
C859 C860 1.355 . S
C859 C861 1.415 . S
C860 C859 1.355 . S
C860 C862 1.419 . S
C861 C856 1.425 . S
C861 C858 1.409 . S
C861 C859 1.415 . S
C862 H852 0.930 . S
C862 C860 1.419 . S
C862 C863 1.362 . S
C863 H853 0.930 . S
C863 C856 1.409 . S
C863 C862 1.362 . S
H864 C870 0.930 . S
H865 C873 0.930 . S
H866 C874 0.930 . S
H867 C875 0.930 . S
H868 C878 0.930 . S
H869 C879 0.930 . S
C870 H864 0.930 . S
C870 C871 1.355 . S
C870 C872 1.415 . S
C871 C870 1.355 . S
C871 C873 1.419 . S
C872 C870 1.415 . S
C872 C877 1.425 . S
C872 C879 1.409 . S
C873 H865 0.930 . S
C873 C871 1.419 . S
C873 C874 1.362 . S
C874 H866 0.930 . S
C874 C873 1.362 . S
C874 C877 1.409 . S
C875 H867 0.930 . S
C875 C876 1.355 . S
C875 C877 1.415 . S
C876 C875 1.355 . S
C876 C878 1.419 . S
C877 C872 1.425 . S
C877 C874 1.409 . S
C877 C875 1.415 . S
C878 H868 0.930 . S
C878 C876 1.419 . S
C878 C879 1.362 . S
C879 H869 0.930 . S
C879 C872 1.409 . S
C879 C878 1.362 . S
H880 C886 0.930 . S
H881 C889 0.930 . S
H882 C890 0.930 . S
H883 C891 0.930 . S
H884 C894 0.930 . S
H885 C895 0.930 . S
C886 H880 0.930 . S
C886 C887 1.355 . S
C886 C888 1.415 . S
C887 C886 1.355 . S
C887 C889 1.419 . S
C888 C886 1.415 . S
C888 C893 1.425 . S
C888 C895 1.409 . S
C889 H881 0.930 . S
C889 C887 1.419 . S
C889 C890 1.362 . S
C890 H882 0.930 . S
C890 C889 1.362 . S
C890 C893 1.409 . S
C891 H883 0.930 . S
C891 C892 1.355 . S
C891 C893 1.415 . S
C892 C891 1.355 . S
C892 C894 1.419 . S
C893 C888 1.425 . S
C893 C890 1.409 . S
C893 C891 1.415 . S
C894 H884 0.930 . S
C894 C892 1.419 . S
C894 C895 1.362 . S
C895 H885 0.930 . S
C895 C888 1.409 . S
C895 C894 1.362 . S
H896 C902 0.930 . S
H897 C905 0.930 . S
H898 C906 0.930 . S
H899 C907 0.930 . S
H900 C910 0.930 . S
H901 C911 0.930 . S
C902 H896 0.930 . S
C902 C903 1.355 . S
C902 C904 1.415 . S
C903 C902 1.355 . S
C903 C905 1.419 . S
C904 C902 1.415 . S
C904 C909 1.425 . S
C904 C911 1.409 . S
C905 H897 0.930 . S
C905 C903 1.419 . S
C905 C906 1.362 . S
C906 H898 0.930 . S
C906 C905 1.362 . S
C906 C909 1.409 . S
C907 H899 0.930 . S
C907 C908 1.355 . S
C907 C909 1.415 . S
C908 C907 1.355 . S
C908 C910 1.419 . S
C909 C904 1.425 . S
C909 C906 1.409 . S
C909 C907 1.415 . S
C910 H900 0.930 . S
C910 C908 1.419 . S
C910 C911 1.362 . S
C911 H901 0.930 . S
C911 C904 1.409 . S
C911 C910 1.362 . S
H912 C918 0.930 . S
H913 C921 0.930 . S
H914 C922 0.930 . S
H915 C923 0.930 . S
H916 C926 0.930 . S
H917 C927 0.930 . S
C918 H912 0.930 . S
C918 C919 1.355 . S
C918 C920 1.415 . S
C919 C918 1.355 . S
C919 C921 1.419 . S
C920 C918 1.415 . S
C920 C925 1.425 . S
C920 C927 1.409 . S
C921 H913 0.930 . S
C921 C919 1.419 . S
C921 C922 1.362 . S
C922 H914 0.930 . S
C922 C921 1.362 . S
C922 C925 1.409 . S
C923 H915 0.930 . S
C923 C924 1.355 . S
C923 C925 1.415 . S
C924 C923 1.355 . S
C924 C926 1.419 . S
C925 C920 1.425 . S
C925 C922 1.409 . S
C925 C923 1.415 . S
C926 H916 0.930 . S
C926 C924 1.419 . S
C926 C927 1.362 . S
C927 H917 0.930 . S
C927 C920 1.409 . S
C927 C926 1.362 . S
H928 C934 0.930 . S
H929 C937 0.930 . S
H930 C938 0.930 . S
H931 C939 0.930 . S
H932 C942 0.930 . S
H933 C943 0.930 . S
C934 H928 0.930 . S
C934 C935 1.355 . S
C934 C936 1.415 . S
C935 C934 1.355 . S
C935 C937 1.419 . S
C936 C934 1.415 . S
C936 C941 1.425 . S
C936 C943 1.409 . S
C937 H929 0.930 . S
C937 C935 1.419 . S
C937 C938 1.362 . S
C938 H930 0.930 . S
C938 C937 1.362 . S
C938 C941 1.409 . S
C939 H931 0.930 . S
C939 C940 1.355 . S
C939 C941 1.415 . S
C940 C939 1.355 . S
C940 C942 1.419 . S
C941 C936 1.425 . S
C941 C938 1.409 . S
C941 C939 1.415 . S
C942 H932 0.930 . S
C942 C940 1.419 . S
C942 C943 1.362 . S
C943 H933 0.930 . S
C943 C936 1.409 . S
C943 C942 1.362 . S
H944 C950 0.930 . S
H945 C953 0.930 . S
H946 C954 0.930 . S
H947 C955 0.930 . S
H948 C958 0.930 . S
H949 C959 0.930 . S
C950 H944 0.930 . S
C950 C951 1.355 . S
C950 C952 1.415 . S
C951 C950 1.355 . S
C951 C953 1.419 . S
C952 C950 1.415 . S
C952 C957 1.425 . S
C952 C959 1.409 . S
C953 H945 0.930 . S
C953 C951 1.419 . S
C953 C954 1.362 . S
C954 H946 0.930 . S
C954 C953 1.362 . S
C954 C957 1.409 . S
C955 H947 0.930 . S
C955 C956 1.355 . S
C955 C957 1.415 . S
C956 C955 1.355 . S
C956 C958 1.419 . S
C957 C952 1.425 . S
C957 C954 1.409 . S
C957 C955 1.415 . S
C958 H948 0.930 . S
C958 C956 1.419 . S
C958 C959 1.362 . S
C959 H949 0.930 . S
C959 C952 1.409 . S
C959 C958 1.362 . S
H960 C966 0.930 . S
H961 C969 0.930 . S
H962 C970 0.930 . S
H963 C971 0.930 . S
H964 C974 0.930 . S
H965 C975 0.930 . S
C966 H960 0.930 . S
C966 C967 1.355 . S
C966 C968 1.415 . S
C967 C966 1.355 . S
C967 C969 1.419 . S
C968 C966 1.415 . S
C968 C973 1.425 . S
C968 C975 1.409 . S
C969 H961 0.930 . S
C969 C967 1.419 . S
C969 C970 1.362 . S
C970 H962 0.930 . S
C970 C969 1.362 . S
C970 C973 1.409 . S
C971 H963 0.930 . S
C971 C972 1.355 . S
C971 C973 1.415 . S
C972 C971 1.355 . S
C972 C974 1.419 . S
C973 C968 1.425 . S
C973 C970 1.409 . S
C973 C971 1.415 . S
C974 H964 0.930 . S
C974 C972 1.419 . S
C974 C975 1.362 . S
C975 H965 0.930 . S
C975 C968 1.409 . S
C975 C974 1.362 . S
H976 C982 0.930 . S
H977 C985 0.930 . S
H978 C986 0.930 . S
H979 C987 0.930 . S
H980 C990 0.930 . S
H981 C991 0.930 . S
C982 H976 0.930 . S
C982 C983 1.355 . S
C982 C984 1.415 . S
C983 C982 1.355 . S
C983 C985 1.419 . S
C984 C982 1.415 . S
C984 C989 1.425 . S
C984 C991 1.409 . S
C985 H977 0.930 . S
C985 C983 1.419 . S
C985 C986 1.362 . S
C986 H978 0.930 . S
C986 C985 1.362 . S
C986 C989 1.409 . S
C987 H979 0.930 . S
C987 C988 1.355 . S
C987 C989 1.415 . S
C988 C987 1.355 . S
C988 C990 1.419 . S
C989 C984 1.425 . S
C989 C986 1.409 . S
C989 C987 1.415 . S
C990 H980 0.930 . S
C990 C988 1.419 . S
C990 C991 1.362 . S
C991 H981 0.930 . S
C991 C984 1.409 . S
C991 C990 1.362 . S
H992 C998 0.930 . S
H993 C1001 0.930 . S
H994 C1002 0.930 . S
H995 C1003 0.930 . S
H996 C1006 0.930 . S
H997 C1007 0.930 . S
C998 H992 0.930 . S
C998 C999 1.355 . S
C998 C1000 1.415 . S
C999 C998 1.355 . S
C999 C1001 1.419 . S
C1000 C998 1.415 . S
C1000 C1005 1.425 . S
C1000 C1007 1.409 . S
C1001 H993 0.930 . S
C1001 C999 1.419 . S
C1001 C1002 1.362 . S
C1002 H994 0.930 . S
C1002 C1001 1.362 . S
C1002 C1005 1.409 . S
C1003 H995 0.930 . S
C1003 C1004 1.355 . S
C1003 C1005 1.415 . S
C1004 C1003 1.355 . S
C1004 C1006 1.419 . S
C1005 C1000 1.425 . S
C1005 C1002 1.409 . S
C1005 C1003 1.415 . S
C1006 H996 0.930 . S
C1006 C1004 1.419 . S
C1006 C1007 1.362 . S
C1007 H997 0.930 . S
C1007 C1000 1.409 . S
C1007 C1006 1.362 . S
H1008 C1014 0.930 . S
H1009 C1017 0.930 . S
H1010 C1018 0.930 . S
H1011 C1019 0.930 . S
H1012 C1022 0.930 . S
H1013 C1023 0.930 . S
C1014 H1008 0.930 . S
C1014 C1015 1.355 . S
C1014 C1016 1.415 . S
C1015 C1014 1.355 . S
C1015 C1017 1.419 . S
C1016 C1014 1.415 . S
C1016 C1021 1.425 . S
C1016 C1023 1.409 . S
C1017 H1009 0.930 . S
C1017 C1015 1.419 . S
C1017 C1018 1.362 . S
C1018 H1010 0.930 . S
C1018 C1017 1.362 . S
C1018 C1021 1.409 . S
C1019 H1011 0.930 . S
C1019 C1020 1.355 . S
C1019 C1021 1.415 . S
C1020 C1019 1.355 . S
C1020 C1022 1.419 . S
C1021 C1016 1.425 . S
C1021 C1018 1.409 . S
C1021 C1019 1.415 . S
C1022 H1012 0.930 . S
C1022 C1020 1.419 . S
C1022 C1023 1.362 . S
C1023 H1013 0.930 . S
C1023 C1016 1.409 . S
C1023 C1022 1.362 . S
H1024 C1030 0.930 . S
H1025 C1033 0.930 . S
H1026 C1034 0.930 . S
H1027 C1035 0.930 . S
H1028 C1038 0.930 . S
H1029 C1039 0.930 . S
C1030 H1024 0.930 . S
C1030 C1031 1.355 . S
C1030 C1032 1.415 . S
C1031 C1030 1.355 . S
C1031 C1033 1.419 . S
C1032 C1030 1.415 . S
C1032 C1037 1.425 . S
C1032 C1039 1.409 . S
C1033 H1025 0.930 . S
C1033 C1031 1.419 . S
C1033 C1034 1.362 . S
C1034 H1026 0.930 . S
C1034 C1033 1.362 . S
C1034 C1037 1.409 . S
C1035 H1027 0.930 . S
C1035 C1036 1.355 . S
C1035 C1037 1.415 . S
C1036 C1035 1.355 . S
C1036 C1038 1.419 . S
C1037 C1032 1.425 . S
C1037 C1034 1.409 . S
C1037 C1035 1.415 . S
C1038 H1028 0.930 . S
C1038 C1036 1.419 . S
C1038 C1039 1.362 . S
C1039 H1029 0.930 . S
C1039 C1032 1.409 . S
C1039 C1038 1.362 . S
H1040 C1046 0.930 . S
H1041 C1049 0.930 . S
H1042 C1050 0.930 . S
H1043 C1051 0.930 . S
H1044 C1054 0.930 . S
H1045 C1055 0.930 . S
C1046 H1040 0.930 . S
C1046 C1047 1.355 . S
C1046 C1048 1.415 . S
C1047 C1046 1.355 . S
C1047 C1049 1.419 . S
C1048 C1046 1.415 . S
C1048 C1053 1.425 . S
C1048 C1055 1.409 . S
C1049 H1041 0.930 . S
C1049 C1047 1.419 . S
C1049 C1050 1.362 . S
C1050 H1042 0.930 . S
C1050 C1049 1.362 . S
C1050 C1053 1.409 . S
C1051 H1043 0.930 . S
C1051 C1052 1.355 . S
C1051 C1053 1.415 . S
C1052 C1051 1.355 . S
C1052 C1054 1.419 . S
C1053 C1048 1.425 . S
C1053 C1050 1.409 . S
C1053 C1051 1.415 . S
C1054 H1044 0.930 . S
C1054 C1052 1.419 . S
C1054 C1055 1.362 . S
C1055 H1045 0.930 . S
C1055 C1048 1.409 . S
C1055 C1054 1.362 . S
H1056 C1062 0.930 . S
H1057 C1065 0.930 . S
H1058 C1066 0.930 . S
H1059 C1067 0.930 . S
H1060 C1070 0.930 . S
H1061 C1071 0.930 . S
C1062 H1056 0.930 . S
C1062 C1063 1.355 . S
C1062 C1064 1.415 . S
C1063 C1062 1.355 . S
C1063 C1065 1.419 . S
C1064 C1062 1.415 . S
C1064 C1069 1.425 . S
C1064 C1071 1.409 . S
C1065 H1057 0.930 . S
C1065 C1063 1.419 . S
C1065 C1066 1.362 . S
C1066 H1058 0.930 . S
C1066 C1065 1.362 . S
C1066 C1069 1.409 . S
C1067 H1059 0.930 . S
C1067 C1068 1.355 . S
C1067 C1069 1.415 . S
C1068 C1067 1.355 . S
C1068 C1070 1.419 . S
C1069 C1064 1.425 . S
C1069 C1066 1.409 . S
C1069 C1067 1.415 . S
C1070 H1060 0.930 . S
C1070 C1068 1.419 . S
C1070 C1071 1.362 . S
C1071 H1061 0.930 . S
C1071 C1064 1.409 . S
C1071 C1070 1.362 . S
H1072 C1078 0.930 . S
H1073 C1081 0.930 . S
H1074 C1082 0.930 . S
H1075 C1083 0.930 . S
H1076 C1086 0.930 . S
H1077 C1087 0.930 . S
C1078 H1072 0.930 . S
C1078 C1079 1.355 . S
C1078 C1080 1.415 . S
C1079 C1078 1.355 . S
C1079 C1081 1.419 . S
C1080 C1078 1.415 . S
C1080 C1085 1.425 . S
C1080 C1087 1.409 . S
C1081 H1073 0.930 . S
C1081 C1079 1.419 . S
C1081 C1082 1.362 . S
C1082 H1074 0.930 . S
C1082 C1081 1.362 . S
C1082 C1085 1.409 . S
C1083 H1075 0.930 . S
C1083 C1084 1.355 . S
C1083 C1085 1.415 . S
C1084 C1083 1.355 . S
C1084 C1086 1.419 . S
C1085 C1080 1.425 . S
C1085 C1082 1.409 . S
C1085 C1083 1.415 . S
C1086 H1076 0.930 . S
C1086 C1084 1.419 . S
C1086 C1087 1.362 . S
C1087 H1077 0.930 . S
C1087 C1080 1.409 . S
C1087 C1086 1.362 . S
H1088 C1094 0.930 . S
H1089 C1097 0.930 . S
H1090 C1098 0.930 . S
H1091 C1099 0.930 . S
H1092 C1102 0.930 . S
H1093 C1103 0.930 . S
C1094 H1088 0.930 . S
C1094 C1095 1.355 . S
C1094 C1096 1.415 . S
C1095 C1094 1.355 . S
C1095 C1097 1.419 . S
C1096 C1094 1.415 . S
C1096 C1101 1.425 . S
C1096 C1103 1.409 . S
C1097 H1089 0.930 . S
C1097 C1095 1.419 . S
C1097 C1098 1.362 . S
C1098 H1090 0.930 . S
C1098 C1097 1.362 . S
C1098 C1101 1.409 . S
C1099 H1091 0.930 . S
C1099 C1100 1.355 . S
C1099 C1101 1.415 . S
C1100 C1099 1.355 . S
C1100 C1102 1.419 . S
C1101 C1096 1.425 . S
C1101 C1098 1.409 . S
C1101 C1099 1.415 . S
C1102 H1092 0.930 . S
C1102 C1100 1.419 . S
C1102 C1103 1.362 . S
C1103 H1093 0.930 . S
C1103 C1096 1.409 . S
C1103 C1102 1.362 . S
H1104 C1110 0.930 . S
H1105 C1113 0.930 . S
H1106 C1114 0.930 . S
H1107 C1115 0.930 . S
H1108 C1118 0.930 . S
H1109 C1119 0.930 . S
C1110 H1104 0.930 . S
C1110 C1111 1.355 . S
C1110 C1112 1.415 . S
C1111 C1110 1.355 . S
C1111 C1113 1.419 . S
C1112 C1110 1.415 . S
C1112 C1117 1.425 . S
C1112 C1119 1.409 . S
C1113 H1105 0.930 . S
C1113 C1111 1.419 . S
C1113 C1114 1.362 . S
C1114 H1106 0.930 . S
C1114 C1113 1.362 . S
C1114 C1117 1.409 . S
C1115 H1107 0.930 . S
C1115 C1116 1.355 . S
C1115 C1117 1.415 . S
C1116 C1115 1.355 . S
C1116 C1118 1.419 . S
C1117 C1112 1.425 . S
C1117 C1114 1.409 . S
C1117 C1115 1.415 . S
C1118 H1108 0.930 . S
C1118 C1116 1.419 . S
C1118 C1119 1.362 . S
C1119 H1109 0.930 . S
C1119 C1112 1.409 . S
C1119 C1118 1.362 . S
H1120 C1126 0.930 . S
H1121 C1129 0.930 . S
H1122 C1130 0.930 . S
H1123 C1131 0.930 . S
H1124 C1134 0.930 . S
H1125 C1135 0.930 . S
C1126 H1120 0.930 . S
C1126 C1127 1.355 . S
C1126 C1128 1.415 . S
C1127 C1126 1.355 . S
C1127 C1129 1.419 . S
C1128 C1126 1.415 . S
C1128 C1133 1.425 . S
C1128 C1135 1.409 . S
C1129 H1121 0.930 . S
C1129 C1127 1.419 . S
C1129 C1130 1.362 . S
C1130 H1122 0.930 . S
C1130 C1129 1.362 . S
C1130 C1133 1.409 . S
C1131 H1123 0.930 . S
C1131 C1132 1.355 . S
C1131 C1133 1.415 . S
C1132 C1131 1.355 . S
C1132 C1134 1.419 . S
C1133 C1128 1.425 . S
C1133 C1130 1.409 . S
C1133 C1131 1.415 . S
C1134 H1124 0.930 . S
C1134 C1132 1.419 . S
C1134 C1135 1.362 . S
C1135 H1125 0.930 . S
C1135 C1128 1.409 . S
C1135 C1134 1.362 . S
H1136 C1142 0.930 . S
H1137 C1145 0.930 . S
H1138 C1146 0.930 . S
H1139 C1147 0.930 . S
H1140 C1150 0.930 . S
H1141 C1151 0.930 . S
C1142 H1136 0.930 . S
C1142 C1143 1.355 . S
C1142 C1144 1.415 . S
C1143 C1142 1.355 . S
C1143 C1145 1.419 . S
C1144 C1142 1.415 . S
C1144 C1149 1.425 . S
C1144 C1151 1.409 . S
C1145 H1137 0.930 . S
C1145 C1143 1.419 . S
C1145 C1146 1.362 . S
C1146 H1138 0.930 . S
C1146 C1145 1.362 . S
C1146 C1149 1.409 . S
C1147 H1139 0.930 . S
C1147 C1148 1.355 . S
C1147 C1149 1.415 . S
C1148 C1147 1.355 . S
C1148 C1150 1.419 . S
C1149 C1144 1.425 . S
C1149 C1146 1.409 . S
C1149 C1147 1.415 . S
C1150 H1140 0.930 . S
C1150 C1148 1.419 . S
C1150 C1151 1.362 . S
C1151 H1141 0.930 . S
C1151 C1144 1.409 . S
C1151 C1150 1.362 . S
H1152 C1158 0.930 . S
H1153 C1161 0.930 . S
H1154 C1162 0.930 . S
H1155 C1163 0.930 . S
H1156 C1166 0.930 . S
H1157 C1167 0.930 . S
C1158 H1152 0.930 . S
C1158 C1159 1.355 . S
C1158 C1160 1.415 . S
C1159 C1158 1.355 . S
C1159 C1161 1.419 . S
C1160 C1158 1.415 . S
C1160 C1165 1.425 . S
C1160 C1167 1.409 . S
C1161 H1153 0.930 . S
C1161 C1159 1.419 . S
C1161 C1162 1.362 . S
C1162 H1154 0.930 . S
C1162 C1161 1.362 . S
C1162 C1165 1.409 . S
C1163 H1155 0.930 . S
C1163 C1164 1.355 . S
C1163 C1165 1.415 . S
C1164 C1163 1.355 . S
C1164 C1166 1.419 . S
C1165 C1160 1.425 . S
C1165 C1162 1.409 . S
C1165 C1163 1.415 . S
C1166 H1156 0.930 . S
C1166 C1164 1.419 . S
C1166 C1167 1.362 . S
C1167 H1157 0.930 . S
C1167 C1160 1.409 . S
C1167 C1166 1.362 . S
H1168 C1174 0.930 . S
H1169 C1177 0.930 . S
H1170 C1178 0.930 . S
H1171 C1179 0.930 . S
H1172 C1182 0.930 . S
H1173 C1183 0.930 . S
C1174 H1168 0.930 . S
C1174 C1175 1.355 . S
C1174 C1176 1.415 . S
C1175 C1174 1.355 . S
C1175 C1177 1.419 . S
C1176 C1174 1.415 . S
C1176 C1181 1.425 . S
C1176 C1183 1.409 . S
C1177 H1169 0.930 . S
C1177 C1175 1.419 . S
C1177 C1178 1.362 . S
C1178 H1170 0.930 . S
C1178 C1177 1.362 . S
C1178 C1181 1.409 . S
C1179 H1171 0.930 . S
C1179 C1180 1.355 . S
C1179 C1181 1.415 . S
C1180 C1179 1.355 . S
C1180 C1182 1.419 . S
C1181 C1176 1.425 . S
C1181 C1178 1.409 . S
C1181 C1179 1.415 . S
C1182 H1172 0.930 . S
C1182 C1180 1.419 . S
C1182 C1183 1.362 . S
C1183 H1173 0.930 . S
C1183 C1176 1.409 . S
C1183 C1182 1.362 . S
H1184 C1190 0.930 . S
H1185 C1193 0.930 . S
H1186 C1194 0.930 . S
H1187 C1195 0.930 . S
H1188 C1198 0.930 . S
H1189 C1199 0.930 . S
C1190 H1184 0.930 . S
C1190 C1191 1.355 . S
C1190 C1192 1.415 . S
C1191 C1190 1.355 . S
C1191 C1193 1.419 . S
C1192 C1190 1.415 . S
C1192 C1197 1.425 . S
C1192 C1199 1.409 . S
C1193 H1185 0.930 . S
C1193 C1191 1.419 . S
C1193 C1194 1.362 . S
C1194 H1186 0.930 . S
C1194 C1193 1.362 . S
C1194 C1197 1.409 . S
C1195 H1187 0.930 . S
C1195 C1196 1.355 . S
C1195 C1197 1.415 . S
C1196 C1195 1.355 . S
C1196 C1198 1.419 . S
C1197 C1192 1.425 . S
C1197 C1194 1.409 . S
C1197 C1195 1.415 . S
C1198 H1188 0.930 . S
C1198 C1196 1.419 . S
C1198 C1199 1.362 . S
C1199 H1189 0.930 . S
C1199 C1192 1.409 . S
C1199 C1198 1.362 . S
H1200 C1206 0.930 . S
H1201 C1209 0.930 . S
H1202 C1210 0.930 . S
H1203 C1211 0.930 . S
H1204 C1214 0.930 . S
H1205 C1215 0.930 . S
C1206 H1200 0.930 . S
C1206 C1207 1.355 . S
C1206 C1208 1.415 . S
C1207 C1206 1.355 . S
C1207 C1209 1.419 . S
C1208 C1206 1.415 . S
C1208 C1213 1.425 . S
C1208 C1215 1.409 . S
C1209 H1201 0.930 . S
C1209 C1207 1.419 . S
C1209 C1210 1.362 . S
C1210 H1202 0.930 . S
C1210 C1209 1.362 . S
C1210 C1213 1.409 . S
C1211 H1203 0.930 . S
C1211 C1212 1.355 . S
C1211 C1213 1.415 . S
C1212 C1211 1.355 . S
C1212 C1214 1.419 . S
C1213 C1208 1.425 . S
C1213 C1210 1.409 . S
C1213 C1211 1.415 . S
C1214 H1204 0.930 . S
C1214 C1212 1.419 . S
C1214 C1215 1.362 . S
C1215 H1205 0.930 . S
C1215 C1208 1.409 . S
C1215 C1214 1.362 . S
H1216 C1222 0.930 . S
H1217 C1225 0.930 . S
H1218 C1226 0.930 . S
H1219 C1227 0.930 . S
H1220 C1230 0.930 . S
H1221 C1231 0.930 . S
C1222 H1216 0.930 . S
C1222 C1223 1.355 . S
C1222 C1224 1.415 . S
C1223 C1222 1.355 . S
C1223 C1225 1.419 . S
C1224 C1222 1.415 . S
C1224 C1229 1.425 . S
C1224 C1231 1.409 . S
C1225 H1217 0.930 . S
C1225 C1223 1.419 . S
C1225 C1226 1.362 . S
C1226 H1218 0.930 . S
C1226 C1225 1.362 . S
C1226 C1229 1.409 . S
C1227 H1219 0.930 . S
C1227 C1228 1.355 . S
C1227 C1229 1.415 . S
C1228 C1227 1.355 . S
C1228 C1230 1.419 . S
C1229 C1224 1.425 . S
C1229 C1226 1.409 . S
C1229 C1227 1.415 . S
C1230 H1220 0.930 . S
C1230 C1228 1.419 . S
C1230 C1231 1.362 . S
C1231 H1221 0.930 . S
C1231 C1224 1.409 . S
C1231 C1230 1.362 . S
H1232 C1238 0.930 . S
H1233 C1241 0.930 . S
H1234 C1242 0.930 . S
H1235 C1243 0.930 . S
H1236 C1246 0.930 . S
H1237 C1247 0.930 . S
C1238 H1232 0.930 . S
C1238 C1239 1.355 . S
C1238 C1240 1.415 . S
C1239 C1238 1.355 . S
C1239 C1241 1.419 . S
C1240 C1238 1.415 . S
C1240 C1245 1.425 . S
C1240 C1247 1.409 . S
C1241 H1233 0.930 . S
C1241 C1239 1.419 . S
C1241 C1242 1.362 . S
C1242 H1234 0.930 . S
C1242 C1241 1.362 . S
C1242 C1245 1.409 . S
C1243 H1235 0.930 . S
C1243 C1244 1.355 . S
C1243 C1245 1.415 . S
C1244 C1243 1.355 . S
C1244 C1246 1.419 . S
C1245 C1240 1.425 . S
C1245 C1242 1.409 . S
C1245 C1243 1.415 . S
C1246 H1236 0.930 . S
C1246 C1244 1.419 . S
C1246 C1247 1.362 . S
C1247 H1237 0.930 . S
C1247 C1240 1.409 . S
C1247 C1246 1.362 . S
H1248 C1254 0.930 . S
H1249 C1257 0.930 . S
H1250 C1258 0.930 . S
H1251 C1259 0.930 . S
H1252 C1262 0.930 . S
H1253 C1263 0.930 . S
C1254 H1248 0.930 . S
C1254 C1255 1.355 . S
C1254 C1256 1.415 . S
C1255 C1254 1.355 . S
C1255 C1257 1.419 . S
C1256 C1254 1.415 . S
C1256 C1261 1.425 . S
C1256 C1263 1.409 . S
C1257 H1249 0.930 . S
C1257 C1255 1.419 . S
C1257 C1258 1.362 . S
C1258 H1250 0.930 . S
C1258 C1257 1.362 . S
C1258 C1261 1.409 . S
C1259 H1251 0.930 . S
C1259 C1260 1.355 . S
C1259 C1261 1.415 . S
C1260 C1259 1.355 . S
C1260 C1262 1.419 . S
C1261 C1256 1.425 . S
C1261 C1258 1.409 . S
C1261 C1259 1.415 . S
C1262 H1252 0.930 . S
C1262 C1260 1.419 . S
C1262 C1263 1.362 . S
C1263 H1253 0.930 . S
C1263 C1256 1.409 . S
C1263 C1262 1.362 . S
H1264 C1270 0.930 . S
H1265 C1273 0.930 . S
H1266 C1274 0.930 . S
H1267 C1275 0.930 . S
H1268 C1278 0.930 . S
H1269 C1279 0.930 . S
C1270 H1264 0.930 . S
C1270 C1271 1.355 . S
C1270 C1272 1.415 . S
C1271 C1270 1.355 . S
C1271 C1273 1.419 . S
C1272 C1270 1.415 . S
C1272 C1277 1.425 . S
C1272 C1279 1.409 . S
C1273 H1265 0.930 . S
C1273 C1271 1.419 . S
C1273 C1274 1.362 . S
C1274 H1266 0.930 . S
C1274 C1273 1.362 . S
C1274 C1277 1.409 . S
C1275 H1267 0.930 . S
C1275 C1276 1.355 . S
C1275 C1277 1.415 . S
C1276 C1275 1.355 . S
C1276 C1278 1.419 . S
C1277 C1272 1.425 . S
C1277 C1274 1.409 . S
C1277 C1275 1.415 . S
C1278 H1268 0.930 . S
C1278 C1276 1.419 . S
C1278 C1279 1.362 . S
C1279 H1269 0.930 . S
C1279 C1272 1.409 . S
C1279 C1278 1.362 . S
H1280 C1286 0.930 . S
H1281 C1289 0.930 . S
H1282 C1290 0.930 . S
H1283 C1291 0.930 . S
H1284 C1294 0.930 . S
H1285 C1295 0.930 . S
C1286 H1280 0.930 . S
C1286 C1287 1.355 . S
C1286 C1288 1.415 . S
C1287 C1286 1.355 . S
C1287 C1289 1.419 . S
C1288 C1286 1.415 . S
C1288 C1293 1.425 . S
C1288 C1295 1.409 . S
C1289 H1281 0.930 . S
C1289 C1287 1.419 . S
C1289 C1290 1.362 . S
C1290 H1282 0.930 . S
C1290 C1289 1.362 . S
C1290 C1293 1.409 . S
C1291 H1283 0.930 . S
C1291 C1292 1.355 . S
C1291 C1293 1.415 . S
C1292 C1291 1.355 . S
C1292 C1294 1.419 . S
C1293 C1288 1.425 . S
C1293 C1290 1.409 . S
C1293 C1291 1.415 . S
C1294 H1284 0.930 . S
C1294 C1292 1.419 . S
C1294 C1295 1.362 . S
C1295 H1285 0.930 . S
C1295 C1288 1.409 . S
C1295 C1294 1.362 . S
H1296 C1302 0.930 . S
H1297 C1305 0.930 . S
H1298 C1306 0.930 . S
H1299 C1307 0.930 . S
H1300 C1310 0.930 . S
H1301 C1311 0.930 . S
C1302 H1296 0.930 . S
C1302 C1303 1.355 . S
C1302 C1304 1.415 . S
C1303 C1302 1.355 . S
C1303 C1305 1.419 . S
C1304 C1302 1.415 . S
C1304 C1309 1.425 . S
C1304 C1311 1.409 . S
C1305 H1297 0.930 . S
C1305 C1303 1.419 . S
C1305 C1306 1.362 . S
C1306 H1298 0.930 . S
C1306 C1305 1.362 . S
C1306 C1309 1.409 . S
C1307 H1299 0.930 . S
C1307 C1308 1.355 . S
C1307 C1309 1.415 . S
C1308 C1307 1.355 . S
C1308 C1310 1.419 . S
C1309 C1304 1.425 . S
C1309 C1306 1.409 . S
C1309 C1307 1.415 . S
C1310 H1300 0.930 . S
C1310 C1308 1.419 . S
C1310 C1311 1.362 . S
C1311 H1301 0.930 . S
C1311 C1304 1.409 . S
C1311 C1310 1.362 . S
H1312 C1318 0.930 . S
H1313 C1321 0.930 . S
H1314 C1322 0.930 . S
H1315 C1323 0.930 . S
H1316 C1326 0.930 . S
H1317 C1327 0.930 . S
C1318 H1312 0.930 . S
C1318 C1319 1.355 . S
C1318 C1320 1.415 . S
C1319 C1318 1.355 . S
C1319 C1321 1.419 . S
C1320 C1318 1.415 . S
C1320 C1325 1.425 . S
C1320 C1327 1.409 . S
C1321 H1313 0.930 . S
C1321 C1319 1.419 . S
C1321 C1322 1.362 . S
C1322 H1314 0.930 . S
C1322 C1321 1.362 . S
C1322 C1325 1.409 . S
C1323 H1315 0.930 . S
C1323 C1324 1.355 . S
C1323 C1325 1.415 . S
C1324 C1323 1.355 . S
C1324 C1326 1.419 . S
C1325 C1320 1.425 . S
C1325 C1322 1.409 . S
C1325 C1323 1.415 . S
C1326 H1316 0.930 . S
C1326 C1324 1.419 . S
C1326 C1327 1.362 . S
C1327 H1317 0.930 . S
C1327 C1320 1.409 . S
C1327 C1326 1.362 . S
H1328 C1334 0.930 . S
H1329 C1337 0.930 . S
H1330 C1338 0.930 . S
H1331 C1339 0.930 . S
H1332 C1342 0.930 . S
H1333 C1343 0.930 . S
C1334 H1328 0.930 . S
C1334 C1335 1.355 . S
C1334 C1336 1.415 . S
C1335 C1334 1.355 . S
C1335 C1337 1.419 . S
C1336 C1334 1.415 . S
C1336 C1341 1.425 . S
C1336 C1343 1.409 . S
C1337 H1329 0.930 . S
C1337 C1335 1.419 . S
C1337 C1338 1.362 . S
C1338 H1330 0.930 . S
C1338 C1337 1.362 . S
C1338 C1341 1.409 . S
C1339 H1331 0.930 . S
C1339 C1340 1.355 . S
C1339 C1341 1.415 . S
C1340 C1339 1.355 . S
C1340 C1342 1.419 . S
C1341 C1336 1.425 . S
C1341 C1338 1.409 . S
C1341 C1339 1.415 . S
C1342 H1332 0.930 . S
C1342 C1340 1.419 . S
C1342 C1343 1.362 . S
C1343 H1333 0.930 . S
C1343 C1336 1.409 . S
C1343 C1342 1.362 . S
H1344 C1350 0.930 . S
H1345 C1353 0.930 . S
H1346 C1354 0.930 . S
H1347 C1355 0.930 . S
H1348 C1358 0.930 . S
H1349 C1359 0.930 . S
C1350 H1344 0.930 . S
C1350 C1351 1.355 . S
C1350 C1352 1.415 . S
C1351 C1350 1.355 . S
C1351 C1353 1.419 . S
C1352 C1350 1.415 . S
C1352 C1357 1.425 . S
C1352 C1359 1.409 . S
C1353 H1345 0.930 . S
C1353 C1351 1.419 . S
C1353 C1354 1.362 . S
C1354 H1346 0.930 . S
C1354 C1353 1.362 . S
C1354 C1357 1.409 . S
C1355 H1347 0.930 . S
C1355 C1356 1.355 . S
C1355 C1357 1.415 . S
C1356 C1355 1.355 . S
C1356 C1358 1.419 . S
C1357 C1352 1.425 . S
C1357 C1354 1.409 . S
C1357 C1355 1.415 . S
C1358 H1348 0.930 . S
C1358 C1356 1.419 . S
C1358 C1359 1.362 . S
C1359 H1349 0.930 . S
C1359 C1352 1.409 . S
C1359 C1358 1.362 . S
H1360 C1366 0.930 . S
H1361 C1369 0.930 . S
H1362 C1370 0.930 . S
H1363 C1371 0.930 . S
H1364 C1374 0.930 . S
H1365 C1375 0.930 . S
C1366 H1360 0.930 . S
C1366 C1367 1.355 . S
C1366 C1368 1.415 . S
C1367 C1366 1.355 . S
C1367 C1369 1.419 . S
C1368 C1366 1.415 . S
C1368 C1373 1.425 . S
C1368 C1375 1.409 . S
C1369 H1361 0.930 . S
C1369 C1367 1.419 . S
C1369 C1370 1.362 . S
C1370 H1362 0.930 . S
C1370 C1369 1.362 . S
C1370 C1373 1.409 . S
C1371 H1363 0.930 . S
C1371 C1372 1.355 . S
C1371 C1373 1.415 . S
C1372 C1371 1.355 . S
C1372 C1374 1.419 . S
C1373 C1368 1.425 . S
C1373 C1370 1.409 . S
C1373 C1371 1.415 . S
C1374 H1364 0.930 . S
C1374 C1372 1.419 . S
C1374 C1375 1.362 . S
C1375 H1365 0.930 . S
C1375 C1368 1.409 . S
C1375 C1374 1.362 . S
H1376 C1382 0.930 . S
H1377 C1385 0.930 . S
H1378 C1386 0.930 . S
H1379 C1387 0.930 . S
H1380 C1390 0.930 . S
H1381 C1391 0.930 . S
C1382 H1376 0.930 . S
C1382 C1383 1.355 . S
C1382 C1384 1.415 . S
C1383 C1382 1.355 . S
C1383 C1385 1.419 . S
C1384 C1382 1.415 . S
C1384 C1389 1.425 . S
C1384 C1391 1.409 . S
C1385 H1377 0.930 . S
C1385 C1383 1.419 . S
C1385 C1386 1.362 . S
C1386 H1378 0.930 . S
C1386 C1385 1.362 . S
C1386 C1389 1.409 . S
C1387 H1379 0.930 . S
C1387 C1388 1.355 . S
C1387 C1389 1.415 . S
C1388 C1387 1.355 . S
C1388 C1390 1.419 . S
C1389 C1384 1.425 . S
C1389 C1386 1.409 . S
C1389 C1387 1.415 . S
C1390 H1380 0.930 . S
C1390 C1388 1.419 . S
C1390 C1391 1.362 . S
C1391 H1381 0.930 . S
C1391 C1384 1.409 . S
C1391 C1390 1.362 . S
H1392 C1398 0.930 . S
H1393 C1401 0.930 . S
H1394 C1402 0.930 . S
H1395 C1403 0.930 . S
H1396 C1406 0.930 . S
H1397 C1407 0.930 . S
C1398 H1392 0.930 . S
C1398 C1399 1.355 . S
C1398 C1400 1.415 . S
C1399 C1398 1.355 . S
C1399 C1401 1.419 . S
C1400 C1398 1.415 . S
C1400 C1405 1.425 . S
C1400 C1407 1.409 . S
C1401 H1393 0.930 . S
C1401 C1399 1.419 . S
C1401 C1402 1.362 . S
C1402 H1394 0.930 . S
C1402 C1401 1.362 . S
C1402 C1405 1.409 . S
C1403 H1395 0.930 . S
C1403 C1404 1.355 . S
C1403 C1405 1.415 . S
C1404 C1403 1.355 . S
C1404 C1406 1.419 . S
C1405 C1400 1.425 . S
C1405 C1402 1.409 . S
C1405 C1403 1.415 . S
C1406 H1396 0.930 . S
C1406 C1404 1.419 . S
C1406 C1407 1.362 . S
C1407 H1397 0.930 . S
C1407 C1400 1.409 . S
C1407 C1406 1.362 . S
H1408 C1414 0.930 . S
H1409 C1417 0.930 . S
H1410 C1418 0.930 . S
H1411 C1419 0.930 . S
H1412 C1422 0.930 . S
H1413 C1423 0.930 . S
C1414 H1408 0.930 . S
C1414 C1415 1.355 . S
C1414 C1416 1.415 . S
C1415 C1414 1.355 . S
C1415 C1417 1.419 . S
C1416 C1414 1.415 . S
C1416 C1421 1.425 . S
C1416 C1423 1.409 . S
C1417 H1409 0.930 . S
C1417 C1415 1.419 . S
C1417 C1418 1.362 . S
C1418 H1410 0.930 . S
C1418 C1417 1.362 . S
C1418 C1421 1.409 . S
C1419 H1411 0.930 . S
C1419 C1420 1.355 . S
C1419 C1421 1.415 . S
C1420 C1419 1.355 . S
C1420 C1422 1.419 . S
C1421 C1416 1.425 . S
C1421 C1418 1.409 . S
C1421 C1419 1.415 . S
C1422 H1412 0.930 . S
C1422 C1420 1.419 . S
C1422 C1423 1.362 . S
C1423 H1413 0.930 . S
C1423 C1416 1.409 . S
C1423 C1422 1.362 . S
H1424 C1430 0.930 . S
H1425 C1433 0.930 . S
H1426 C1434 0.930 . S
H1427 C1435 0.930 . S
H1428 C1438 0.930 . S
H1429 C1439 0.930 . S
C1430 H1424 0.930 . S
C1430 C1431 1.355 . S
C1430 C1432 1.415 . S
C1431 C1430 1.355 . S
C1431 C1433 1.419 . S
C1432 C1430 1.415 . S
C1432 C1437 1.425 . S
C1432 C1439 1.409 . S
C1433 H1425 0.930 . S
C1433 C1431 1.419 . S
C1433 C1434 1.362 . S
C1434 H1426 0.930 . S
C1434 C1433 1.362 . S
C1434 C1437 1.409 . S
C1435 H1427 0.930 . S
C1435 C1436 1.355 . S
C1435 C1437 1.415 . S
C1436 C1435 1.355 . S
C1436 C1438 1.419 . S
C1437 C1432 1.425 . S
C1437 C1434 1.409 . S
C1437 C1435 1.415 . S
C1438 H1428 0.930 . S
C1438 C1436 1.419 . S
C1438 C1439 1.362 . S
C1439 H1429 0.930 . S
C1439 C1432 1.409 . S
C1439 C1438 1.362 . S
H1440 C1446 0.930 . S
H1441 C1449 0.930 . S
H1442 C1450 0.930 . S
H1443 C1451 0.930 . S
H1444 C1454 0.930 . S
H1445 C1455 0.930 . S
C1446 H1440 0.930 . S
C1446 C1447 1.355 . S
C1446 C1448 1.415 . S
C1447 C1446 1.355 . S
C1447 C1449 1.419 . S
C1448 C1446 1.415 . S
C1448 C1453 1.425 . S
C1448 C1455 1.409 . S
C1449 H1441 0.930 . S
C1449 C1447 1.419 . S
C1449 C1450 1.362 . S
C1450 H1442 0.930 . S
C1450 C1449 1.362 . S
C1450 C1453 1.409 . S
C1451 H1443 0.930 . S
C1451 C1452 1.355 . S
C1451 C1453 1.415 . S
C1452 C1451 1.355 . S
C1452 C1454 1.419 . S
C1453 C1448 1.425 . S
C1453 C1450 1.409 . S
C1453 C1451 1.415 . S
C1454 H1444 0.930 . S
C1454 C1452 1.419 . S
C1454 C1455 1.362 . S
C1455 H1445 0.930 . S
C1455 C1448 1.409 . S
C1455 C1454 1.362 . S
H1456 C1462 0.930 . S
H1457 C1465 0.930 . S
H1458 C1466 0.930 . S
H1459 C1467 0.930 . S
H1460 C1470 0.930 . S
H1461 C1471 0.930 . S
C1462 H1456 0.930 . S
C1462 C1463 1.355 . S
C1462 C1464 1.415 . S
C1463 C1462 1.355 . S
C1463 C1465 1.419 . S
C1464 C1462 1.415 . S
C1464 C1469 1.425 . S
C1464 C1471 1.409 . S
C1465 H1457 0.930 . S
C1465 C1463 1.419 . S
C1465 C1466 1.362 . S
C1466 H1458 0.930 . S
C1466 C1465 1.362 . S
C1466 C1469 1.409 . S
C1467 H1459 0.930 . S
C1467 C1468 1.355 . S
C1467 C1469 1.415 . S
C1468 C1467 1.355 . S
C1468 C1470 1.419 . S
C1469 C1464 1.425 . S
C1469 C1466 1.409 . S
C1469 C1467 1.415 . S
C1470 H1460 0.930 . S
C1470 C1468 1.419 . S
C1470 C1471 1.362 . S
C1471 H1461 0.930 . S
C1471 C1464 1.409 . S
C1471 C1470 1.362 . S
H1472 C1478 0.930 . S
H1473 C1481 0.930 . S
H1474 C1482 0.930 . S
H1475 C1483 0.930 . S
H1476 C1486 0.930 . S
H1477 C1487 0.930 . S
C1478 H1472 0.930 . S
C1478 C1479 1.355 . S
C1478 C1480 1.415 . S
C1479 C1478 1.355 . S
C1479 C1481 1.419 . S
C1480 C1478 1.415 . S
C1480 C1485 1.425 1_565 S
C1480 C1487 1.409 1_565 S
C1481 H1473 0.930 . S
C1481 C1479 1.419 . S
C1481 C1482 1.362 . S
C1482 H1474 0.930 . S
C1482 C1481 1.362 . S
C1482 C1485 1.409 1_565 S
C1483 H1475 0.930 . S
C1483 C1484 1.355 . S
C1483 C1485 1.415 . S
C1484 C1483 1.355 . S
C1484 C1486 1.419 . S
C1485 C1480 1.425 1_545 S
C1485 C1482 1.409 1_545 S
C1485 C1483 1.415 . S
C1486 H1476 0.930 . S
C1486 C1484 1.419 . S
C1486 C1487 1.362 . S
C1487 H1477 0.930 . S
C1487 C1480 1.409 1_545 S
C1487 C1486 1.362 . S
H1488 C1494 0.930 . S
H1489 C1497 0.930 . S
H1490 C1498 0.930 . S
H1491 C1499 0.930 . S
H1492 C1502 0.930 . S
H1493 C1503 0.930 . S
C1494 H1488 0.930 . S
C1494 C1495 1.355 . S
C1494 C1496 1.415 . S
C1495 C1494 1.355 . S
C1495 C1497 1.419 . S
C1496 C1494 1.415 . S
C1496 C1501 1.425 1_655 S
C1496 C1503 1.409 1_655 S
C1497 H1489 0.930 . S
C1497 C1495 1.419 . S
C1497 C1498 1.362 . S
C1498 H1490 0.930 . S
C1498 C1497 1.362 . S
C1498 C1501 1.409 1_655 S
C1499 H1491 0.930 . S
C1499 C1500 1.355 . S
C1499 C1501 1.415 . S
C1500 C1499 1.355 . S
C1500 C1502 1.419 . S
C1501 C1496 1.425 1_455 S
C1501 C1498 1.409 1_455 S
C1501 C1499 1.415 . S
C1502 H1492 0.930 . S
C1502 C1500 1.419 . S
C1502 C1503 1.362 . S
C1503 H1493 0.930 . S
C1503 C1496 1.409 1_455 S
C1503 C1502 1.362 . S
H1504 C1510 0.930 . S
H1505 C1513 0.930 . S
H1506 C1514 0.930 . S
H1507 C1515 0.930 . S
H1508 C1518 0.930 . S
H1509 C1519 0.930 . S
C1510 H1504 0.930 . S
C1510 C1511 1.355 . S
C1510 C1512 1.415 . S
C1511 C1510 1.355 . S
C1511 C1513 1.419 . S
C1512 C1510 1.415 . S
C1512 C1517 1.425 1_545 S
C1512 C1519 1.409 1_545 S
C1513 H1505 0.930 . S
C1513 C1511 1.419 . S
C1513 C1514 1.362 . S
C1514 H1506 0.930 . S
C1514 C1513 1.362 . S
C1514 C1517 1.409 1_545 S
C1515 H1507 0.930 . S
C1515 C1516 1.355 . S
C1515 C1517 1.415 . S
C1516 C1515 1.355 . S
C1516 C1518 1.419 . S
C1517 C1512 1.425 1_565 S
C1517 C1514 1.409 1_565 S
C1517 C1515 1.415 . S
C1518 H1508 0.930 . S
C1518 C1516 1.419 . S
C1518 C1519 1.362 . S
C1519 H1509 0.930 . S
C1519 C1512 1.409 1_565 S
C1519 C1518 1.362 . S
H1520 C1526 0.930 . S
H1521 C1529 0.930 . S
H1522 C1530 0.930 . S
H1523 C1531 0.930 . S
H1524 C1534 0.930 . S
H1525 C1535 0.930 . S
C1526 H1520 0.930 . S
C1526 C1527 1.355 . S
C1526 C1528 1.415 . S
C1527 C1526 1.355 . S
C1527 C1529 1.419 . S
C1528 C1526 1.415 . S
C1528 C1533 1.425 1_655 S
C1528 C1535 1.409 1_655 S
C1529 H1521 0.930 . S
C1529 C1527 1.419 . S
C1529 C1530 1.362 . S
C1530 H1522 0.930 . S
C1530 C1529 1.362 . S
C1530 C1533 1.409 1_655 S
C1531 H1523 0.930 . S
C1531 C1532 1.355 . S
C1531 C1533 1.415 . S
C1532 C1531 1.355 . S
C1532 C1534 1.419 . S
C1533 C1528 1.425 1_455 S
C1533 C1530 1.409 1_455 S
C1533 C1531 1.415 . S
C1534 H1524 0.930 . S
C1534 C1532 1.419 . S
C1534 C1535 1.362 . S
C1535 H1525 0.930 . S
C1535 C1528 1.409 1_455 S
C1535 C1534 1.362 . S
H1536 C1542 0.930 . S
H1537 C1545 0.930 . S
H1538 C1546 0.930 . S
H1539 C1547 0.930 . S
H1540 C1550 0.930 . S
H1541 C1551 0.930 . S
C1542 H1536 0.930 . S
C1542 C1543 1.355 . S
C1542 C1544 1.415 . S
C1543 C1542 1.355 . S
C1543 C1545 1.419 . S
C1544 C1542 1.415 . S
C1544 C1549 1.425 1_545 S
C1544 C1551 1.409 1_545 S
C1545 H1537 0.930 . S
C1545 C1543 1.419 . S
C1545 C1546 1.362 . S
C1546 H1538 0.930 . S
C1546 C1545 1.362 . S
C1546 C1549 1.409 1_545 S
C1547 H1539 0.930 . S
C1547 C1548 1.355 . S
C1547 C1549 1.415 . S
C1548 C1547 1.355 . S
C1548 C1550 1.419 . S
C1549 C1544 1.425 1_565 S
C1549 C1546 1.409 1_565 S
C1549 C1547 1.415 . S
C1550 H1540 0.930 . S
C1550 C1548 1.419 . S
C1550 C1551 1.362 . S
C1551 H1541 0.930 . S
C1551 C1544 1.409 1_565 S
C1551 C1550 1.362 . S
H1552 C1558 0.930 . S
H1553 C1561 0.930 . S
H1554 C1562 0.930 . S
H1555 C1563 0.930 . S
H1556 C1566 0.930 . S
H1557 C1567 0.930 . S
C1558 H1552 0.930 . S
C1558 C1559 1.355 . S
C1558 C1560 1.415 . S
C1559 C1558 1.355 . S
C1559 C1561 1.419 . S
C1560 C1558 1.415 . S
C1560 C1565 1.425 1_655 S
C1560 C1567 1.409 1_655 S
C1561 H1553 0.930 . S
C1561 C1559 1.419 . S
C1561 C1562 1.362 . S
C1562 H1554 0.930 . S
C1562 C1561 1.362 . S
C1562 C1565 1.409 1_655 S
C1563 H1555 0.930 . S
C1563 C1564 1.355 . S
C1563 C1565 1.415 . S
C1564 C1563 1.355 . S
C1564 C1566 1.419 . S
C1565 C1560 1.425 1_455 S
C1565 C1562 1.409 1_455 S
C1565 C1563 1.415 . S
C1566 H1556 0.930 . S
C1566 C1564 1.419 . S
C1566 C1567 1.362 . S
C1567 H1557 0.930 . S
C1567 C1560 1.409 1_455 S
C1567 C1566 1.362 . S
H1568 C1574 0.930 . S
H1569 C1577 0.930 . S
H1570 C1578 0.930 . S
H1571 C1579 0.930 . S
H1572 C1582 0.930 . S
H1573 C1583 0.930 . S
C1574 H1568 0.930 . S
C1574 C1575 1.355 . S
C1574 C1576 1.415 . S
C1575 C1574 1.355 . S
C1575 C1577 1.419 . S
C1576 C1574 1.415 . S
C1576 C1581 1.425 1_545 S
C1576 C1583 1.409 1_545 S
C1577 H1569 0.930 . S
C1577 C1575 1.419 . S
C1577 C1578 1.362 . S
C1578 H1570 0.930 . S
C1578 C1577 1.362 . S
C1578 C1581 1.409 1_545 S
C1579 H1571 0.930 . S
C1579 C1580 1.355 . S
C1579 C1581 1.415 . S
C1580 C1579 1.355 . S
C1580 C1582 1.419 . S
C1581 C1576 1.425 1_565 S
C1581 C1578 1.409 1_565 S
C1581 C1579 1.415 . S
C1582 H1572 0.930 . S
C1582 C1580 1.419 . S
C1582 C1583 1.362 . S
C1583 H1573 0.930 . S
C1583 C1576 1.409 1_565 S
C1583 C1582 1.362 . S
H1584 C1590 0.930 . S
H1585 C1593 0.930 . S
H1586 C1594 0.930 . S
H1587 C1595 0.930 . S
H1588 C1598 0.930 . S
H1589 C1599 0.930 . S
C1590 H1584 0.930 . S
C1590 C1591 1.355 . S
C1590 C1592 1.415 . S
C1591 C1590 1.355 . S
C1591 C1593 1.419 . S
C1592 C1590 1.415 . S
C1592 C1597 1.425 1_655 S
C1592 C1599 1.409 1_655 S
C1593 H1585 0.930 . S
C1593 C1591 1.419 . S
C1593 C1594 1.362 . S
C1594 H1586 0.930 . S
C1594 C1593 1.362 . S
C1594 C1597 1.409 1_655 S
C1595 H1587 0.930 . S
C1595 C1596 1.355 . S
C1595 C1597 1.415 . S
C1596 C1595 1.355 . S
C1596 C1598 1.419 . S
C1597 C1592 1.425 1_455 S
C1597 C1594 1.409 1_455 S
C1597 C1595 1.415 . S
C1598 H1588 0.930 . S
C1598 C1596 1.419 . S
C1598 C1599 1.362 . S
C1599 H1589 0.930 . S
C1599 C1592 1.409 1_455 S
C1599 C1598 1.362 . S
H1600 C1606 0.930 . S
H1601 C1609 0.930 . S
H1602 C1610 0.930 . S
H1603 C1611 0.930 . S
H1604 C1614 0.930 . S
H1605 C1615 0.930 . S
C1606 H1600 0.930 . S
C1606 C1607 1.355 . S
C1606 C1608 1.415 . S
C1607 C1606 1.355 . S
C1607 C1609 1.419 . S
C1608 C1606 1.415 . S
C1608 C1613 1.425 1_554 S
C1608 C1615 1.409 1_554 S
C1609 H1601 0.930 . S
C1609 C1607 1.419 . S
C1609 C1610 1.362 . S
C1610 H1602 0.930 . S
C1610 C1609 1.362 . S
C1610 C1613 1.409 1_554 S
C1611 H1603 0.930 . S
C1611 C1612 1.355 . S
C1611 C1613 1.415 . S
C1612 C1611 1.355 . S
C1612 C1614 1.419 . S
C1613 C1608 1.425 1_556 S
C1613 C1610 1.409 1_556 S
C1613 C1611 1.415 . S
C1614 H1604 0.930 . S
C1614 C1612 1.419 . S
C1614 C1615 1.362 . S
C1615 H1605 0.930 . S
C1615 C1608 1.409 1_556 S
C1615 C1614 1.362 . S
H1616 C1622 0.930 . S
H1617 C1625 0.930 . S
H1618 C1626 0.930 . S
H1619 C1627 0.930 . S
H1620 C1630 0.930 . S
H1621 C1631 0.930 . S
C1622 H1616 0.930 . S
C1622 C1623 1.355 . S
C1622 C1624 1.415 . S
C1623 C1622 1.355 . S
C1623 C1625 1.419 . S
C1624 C1622 1.415 . S
C1624 C1629 1.425 1_556 S
C1624 C1631 1.409 1_556 S
C1625 H1617 0.930 . S
C1625 C1623 1.419 . S
C1625 C1626 1.362 . S
C1626 H1618 0.930 . S
C1626 C1625 1.362 . S
C1626 C1629 1.409 1_556 S
C1627 H1619 0.930 . S
C1627 C1628 1.355 . S
C1627 C1629 1.415 . S
C1628 C1627 1.355 . S
C1628 C1630 1.419 . S
C1629 C1624 1.425 1_554 S
C1629 C1626 1.409 1_554 S
C1629 C1627 1.415 . S
C1630 H1620 0.930 . S
C1630 C1628 1.419 . S
C1630 C1631 1.362 . S
C1631 H1621 0.930 . S
C1631 C1624 1.409 1_554 S
C1631 C1630 1.362 . S
H1632 C1638 0.930 . S
H1633 C1641 0.930 . S
H1634 C1642 0.930 . S
H1635 C1643 0.930 . S
H1636 C1646 0.930 . S
H1637 C1647 0.930 . S
C1638 H1632 0.930 . S
C1638 C1639 1.355 . S
C1638 C1640 1.415 . S
C1639 C1638 1.355 . S
C1639 C1641 1.419 . S
C1640 C1638 1.415 . S
C1640 C1645 1.425 1_556 S
C1640 C1647 1.409 1_556 S
C1641 H1633 0.930 . S
C1641 C1639 1.419 . S
C1641 C1642 1.362 . S
C1642 H1634 0.930 . S
C1642 C1641 1.362 . S
C1642 C1645 1.409 1_556 S
C1643 H1635 0.930 . S
C1643 C1644 1.355 . S
C1643 C1645 1.415 . S
C1644 C1643 1.355 . S
C1644 C1646 1.419 . S
C1645 C1640 1.425 1_554 S
C1645 C1642 1.409 1_554 S
C1645 C1643 1.415 . S
C1646 H1636 0.930 . S
C1646 C1644 1.419 . S
C1646 C1647 1.362 . S
C1647 H1637 0.930 . S
C1647 C1640 1.409 1_554 S
C1647 C1646 1.362 . S
H1648 C1654 0.930 . S
H1649 C1657 0.930 . S
H1650 C1658 0.930 . S
H1651 C1659 0.930 . S
H1652 C1662 0.930 . S
H1653 C1663 0.930 . S
C1654 H1648 0.930 . S
C1654 C1655 1.355 . S
C1654 C1656 1.415 . S
C1655 C1654 1.355 . S
C1655 C1657 1.419 . S
C1656 C1654 1.415 . S
C1656 C1661 1.425 1_554 S
C1656 C1663 1.409 1_554 S
C1657 H1649 0.930 . S
C1657 C1655 1.419 . S
C1657 C1658 1.362 . S
C1658 H1650 0.930 . S
C1658 C1657 1.362 . S
C1658 C1661 1.409 1_554 S
C1659 H1651 0.930 . S
C1659 C1660 1.355 . S
C1659 C1661 1.415 . S
C1660 C1659 1.355 . S
C1660 C1662 1.419 . S
C1661 C1656 1.425 1_556 S
C1661 C1658 1.409 1_556 S
C1661 C1659 1.415 . S
C1662 H1652 0.930 . S
C1662 C1660 1.419 . S
C1662 C1663 1.362 . S
C1663 H1653 0.930 . S
C1663 C1656 1.409 1_556 S
C1663 C1662 1.362 . S
H1664 C1670 0.930 . S
H1665 C1673 0.930 . S
H1666 C1674 0.930 . S
H1667 C1675 0.930 . S
H1668 C1678 0.930 . S
H1669 C1679 0.930 . S
C1670 H1664 0.930 . S
C1670 C1671 1.355 . S
C1670 C1672 1.415 . S
C1671 C1670 1.355 . S
C1671 C1673 1.419 . S
C1672 C1670 1.415 . S
C1672 C1677 1.425 1_556 S
C1672 C1679 1.409 1_556 S
C1673 H1665 0.930 . S
C1673 C1671 1.419 . S
C1673 C1674 1.362 . S
C1674 H1666 0.930 . S
C1674 C1673 1.362 . S
C1674 C1677 1.409 1_556 S
C1675 H1667 0.930 . S
C1675 C1676 1.355 . S
C1675 C1677 1.415 . S
C1676 C1675 1.355 . S
C1676 C1678 1.419 . S
C1677 C1672 1.425 1_554 S
C1677 C1674 1.409 1_554 S
C1677 C1675 1.415 . S
C1678 H1668 0.930 . S
C1678 C1676 1.419 . S
C1678 C1679 1.362 . S
C1679 H1669 0.930 . S
C1679 C1672 1.409 1_554 S
C1679 C1678 1.362 . S
H1680 C1686 0.930 . S
H1681 C1689 0.930 . S
H1682 C1690 0.930 . S
H1683 C1691 0.930 . S
H1684 C1694 0.930 . S
H1685 C1695 0.930 . S
C1686 H1680 0.930 . S
C1686 C1687 1.355 . S
C1686 C1688 1.415 . S
C1687 C1686 1.355 . S
C1687 C1689 1.419 . S
C1688 C1686 1.415 . S
C1688 C1693 1.425 1_554 S
C1688 C1695 1.409 1_554 S
C1689 H1681 0.930 . S
C1689 C1687 1.419 . S
C1689 C1690 1.362 . S
C1690 H1682 0.930 . S
C1690 C1689 1.362 . S
C1690 C1693 1.409 1_554 S
C1691 H1683 0.930 . S
C1691 C1692 1.355 . S
C1691 C1693 1.415 . S
C1692 C1691 1.355 . S
C1692 C1694 1.419 . S
C1693 C1688 1.425 1_556 S
C1693 C1690 1.409 1_556 S
C1693 C1691 1.415 . S
C1694 H1684 0.930 . S
C1694 C1692 1.419 . S
C1694 C1695 1.362 . S
C1695 H1685 0.930 . S
C1695 C1688 1.409 1_556 S
C1695 C1694 1.362 . S
H1696 C1702 0.930 . S
H1697 C1705 0.930 . S
H1698 C1706 0.930 . S
H1699 C1707 0.930 . S
H1700 C1710 0.930 . S
H1701 C1711 0.930 . S
C1702 H1696 0.930 . S
C1702 C1703 1.355 . S
C1702 C1704 1.415 . S
C1703 C1702 1.355 . S
C1703 C1705 1.419 . S
C1704 C1702 1.415 . S
C1704 C1709 1.425 1_554 S
C1704 C1711 1.409 1_554 S
C1705 H1697 0.930 . S
C1705 C1703 1.419 . S
C1705 C1706 1.362 . S
C1706 H1698 0.930 . S
C1706 C1705 1.362 . S
C1706 C1709 1.409 1_554 S
C1707 H1699 0.930 . S
C1707 C1708 1.355 . S
C1707 C1709 1.415 . S
C1708 C1707 1.355 . S
C1708 C1710 1.419 . S
C1709 C1704 1.425 1_556 S
C1709 C1706 1.409 1_556 S
C1709 C1707 1.415 . S
C1710 H1700 0.930 . S
C1710 C1708 1.419 . S
C1710 C1711 1.362 . S
C1711 H1701 0.930 . S
C1711 C1704 1.409 1_556 S
C1711 C1710 1.362 . S
H1712 C1718 0.930 . S
H1713 C1721 0.930 . S
H1714 C1722 0.930 . S
H1715 C1723 0.930 . S
H1716 C1726 0.930 . S
H1717 C1727 0.930 . S
C1718 H1712 0.930 . S
C1718 C1719 1.355 . S
C1718 C1720 1.415 . S
C1719 C1718 1.355 . S
C1719 C1721 1.419 . S
C1720 C1718 1.415 . S
C1720 C1725 1.425 1_556 S
C1720 C1727 1.409 1_556 S
C1721 H1713 0.930 . S
C1721 C1719 1.419 . S
C1721 C1722 1.362 . S
C1722 H1714 0.930 . S
C1722 C1721 1.362 . S
C1722 C1725 1.409 1_556 S
C1723 H1715 0.930 . S
C1723 C1724 1.355 . S
C1723 C1725 1.415 . S
C1724 C1723 1.355 . S
C1724 C1726 1.419 . S
C1725 C1720 1.425 1_554 S
C1725 C1722 1.409 1_554 S
C1725 C1723 1.415 . S
C1726 H1716 0.930 . S
C1726 C1724 1.419 . S
C1726 C1727 1.362 . S
C1727 H1717 0.930 . S
C1727 C1720 1.409 1_554 S
C1727 C1726 1.362 . S
H1728 C1734 0.930 . S
H1729 C1737 0.930 . S
H1730 C1738 0.930 . S
H1731 C1739 0.930 . S
H1732 C1742 0.930 . S
H1733 C1743 0.930 . S
C1734 H1728 0.930 . S
C1734 C1735 1.355 . S
C1734 C1736 1.415 . S
C1735 C1734 1.355 . S
C1735 C1737 1.419 . S
C1736 C1734 1.415 . S
C1736 C1741 1.425 1_455 S
C1736 C1743 1.409 1_455 S
C1737 H1729 0.930 . S
C1737 C1735 1.419 . S
C1737 C1738 1.362 . S
C1738 H1730 0.930 . S
C1738 C1737 1.362 . S
C1738 C1741 1.409 1_455 S
C1739 H1731 0.930 . S
C1739 C1740 1.355 . S
C1739 C1741 1.415 . S
C1740 C1739 1.355 . S
C1740 C1742 1.419 . S
C1741 C1736 1.425 1_655 S
C1741 C1738 1.409 1_655 S
C1741 C1739 1.415 . S
C1742 H1732 0.930 . S
C1742 C1740 1.419 . S
C1742 C1743 1.362 . S
C1743 H1733 0.930 . S
C1743 C1736 1.409 1_655 S
C1743 C1742 1.362 . S
H1744 C1750 0.930 . S
H1745 C1753 0.930 . S
H1746 C1754 0.930 . S
H1747 C1755 0.930 . S
H1748 C1758 0.930 . S
H1749 C1759 0.930 . S
C1750 H1744 0.930 . S
C1750 C1751 1.355 . S
C1750 C1752 1.415 . S
C1751 C1750 1.355 . S
C1751 C1753 1.419 . S
C1752 C1750 1.415 . S
C1752 C1757 1.425 1_455 S
C1752 C1759 1.409 1_455 S
C1753 H1745 0.930 . S
C1753 C1751 1.419 . S
C1753 C1754 1.362 . S
C1754 H1746 0.930 . S
C1754 C1753 1.362 . S
C1754 C1757 1.409 1_455 S
C1755 H1747 0.930 . S
C1755 C1756 1.355 . S
C1755 C1757 1.415 . S
C1756 C1755 1.355 . S
C1756 C1758 1.419 . S
C1757 C1752 1.425 1_655 S
C1757 C1754 1.409 1_655 S
C1757 C1755 1.415 . S
C1758 H1748 0.930 . S
C1758 C1756 1.419 . S
C1758 C1759 1.362 . S
C1759 H1749 0.930 . S
C1759 C1752 1.409 1_655 S
C1759 C1758 1.362 . S
H1760 C1766 0.930 . S
H1761 C1769 0.930 . S
H1762 C1770 0.930 . S
H1763 C1771 0.930 . S
H1764 C1774 0.930 . S
H1765 C1775 0.930 . S
C1766 H1760 0.930 . S
C1766 C1767 1.355 . S
C1766 C1768 1.415 . S
C1767 C1766 1.355 . S
C1767 C1769 1.419 . S
C1768 C1766 1.415 . S
C1768 C1773 1.425 1_565 S
C1768 C1775 1.409 1_565 S
C1769 H1761 0.930 . S
C1769 C1767 1.419 . S
C1769 C1770 1.362 . S
C1770 H1762 0.930 . S
C1770 C1769 1.362 . S
C1770 C1773 1.409 1_565 S
C1771 H1763 0.930 . S
C1771 C1772 1.355 . S
C1771 C1773 1.415 . S
C1772 C1771 1.355 . S
C1772 C1774 1.419 . S
C1773 C1768 1.425 1_545 S
C1773 C1770 1.409 1_545 S
C1773 C1771 1.415 . S
C1774 H1764 0.930 . S
C1774 C1772 1.419 . S
C1774 C1775 1.362 . S
C1775 H1765 0.930 . S
C1775 C1768 1.409 1_545 S
C1775 C1774 1.362 . S
H1776 C1782 0.930 . S
H1777 C1785 0.930 . S
H1778 C1786 0.930 . S
H1779 C1787 0.930 . S
H1780 C1790 0.930 . S
H1781 C1791 0.930 . S
C1782 H1776 0.930 . S
C1782 C1783 1.355 . S
C1782 C1784 1.415 . S
C1783 C1782 1.355 . S
C1783 C1785 1.419 . S
C1784 C1782 1.415 . S
C1784 C1789 1.425 1_455 S
C1784 C1791 1.409 1_455 S
C1785 H1777 0.930 . S
C1785 C1783 1.419 . S
C1785 C1786 1.362 . S
C1786 H1778 0.930 . S
C1786 C1785 1.362 . S
C1786 C1789 1.409 1_455 S
C1787 H1779 0.930 . S
C1787 C1788 1.355 . S
C1787 C1789 1.415 . S
C1788 C1787 1.355 . S
C1788 C1790 1.419 . S
C1789 C1784 1.425 1_655 S
C1789 C1786 1.409 1_655 S
C1789 C1787 1.415 . S
C1790 H1780 0.930 . S
C1790 C1788 1.419 . S
C1790 C1791 1.362 . S
C1791 H1781 0.930 . S
C1791 C1784 1.409 1_655 S
C1791 C1790 1.362 . S
H1792 C1798 0.930 . S
H1793 C1801 0.930 . S
H1794 C1802 0.930 . S
H1795 C1803 0.930 . S
H1796 C1806 0.930 . S
H1797 C1807 0.930 . S
C1798 H1792 0.930 . S
C1798 C1799 1.355 . S
C1798 C1800 1.415 . S
C1799 C1798 1.355 . S
C1799 C1801 1.419 . S
C1800 C1798 1.415 . S
C1800 C1805 1.425 1_565 S
C1800 C1807 1.409 1_565 S
C1801 H1793 0.930 . S
C1801 C1799 1.419 . S
C1801 C1802 1.362 . S
C1802 H1794 0.930 . S
C1802 C1801 1.362 . S
C1802 C1805 1.409 1_565 S
C1803 H1795 0.930 . S
C1803 C1804 1.355 . S
C1803 C1805 1.415 . S
C1804 C1803 1.355 . S
C1804 C1806 1.419 . S
C1805 C1800 1.425 1_545 S
C1805 C1802 1.409 1_545 S
C1805 C1803 1.415 . S
C1806 H1796 0.930 . S
C1806 C1804 1.419 . S
C1806 C1807 1.362 . S
C1807 H1797 0.930 . S
C1807 C1800 1.409 1_545 S
C1807 C1806 1.362 . S
H1808 C1814 0.930 . S
H1809 C1817 0.930 . S
H1810 C1818 0.930 . S
H1811 C1819 0.930 . S
H1812 C1822 0.930 . S
H1813 C1823 0.930 . S
C1814 H1808 0.930 . S
C1814 C1815 1.355 . S
C1814 C1816 1.415 . S
C1815 C1814 1.355 . S
C1815 C1817 1.419 . S
C1816 C1814 1.415 . S
C1816 C1821 1.425 1_655 S
C1816 C1823 1.409 1_655 S
C1817 H1809 0.930 . S
C1817 C1815 1.419 . S
C1817 C1818 1.362 . S
C1818 H1810 0.930 . S
C1818 C1817 1.362 . S
C1818 C1821 1.409 1_655 S
C1819 H1811 0.930 . S
C1819 C1820 1.355 . S
C1819 C1821 1.415 . S
C1820 C1819 1.355 . S
C1820 C1822 1.419 . S
C1821 C1816 1.425 1_455 S
C1821 C1818 1.409 1_455 S
C1821 C1819 1.415 . S
C1822 H1812 0.930 . S
C1822 C1820 1.419 . S
C1822 C1823 1.362 . S
C1823 H1813 0.930 . S
C1823 C1816 1.409 1_455 S
C1823 C1822 1.362 . S
H1824 C1830 0.930 . S
H1825 C1833 0.930 . S
H1826 C1834 0.930 . S
H1827 C1835 0.930 . S
H1828 C1838 0.930 . S
H1829 C1839 0.930 . S
C1830 H1824 0.930 . S
C1830 C1831 1.355 . S
C1830 C1832 1.415 . S
C1831 C1830 1.355 . S
C1831 C1833 1.419 . S
C1832 C1830 1.415 . S
C1832 C1837 1.425 1_565 S
C1832 C1839 1.409 1_565 S
C1833 H1825 0.930 . S
C1833 C1831 1.419 . S
C1833 C1834 1.362 . S
C1834 H1826 0.930 . S
C1834 C1833 1.362 . S
C1834 C1837 1.409 1_565 S
C1835 H1827 0.930 . S
C1835 C1836 1.355 . S
C1835 C1837 1.415 . S
C1836 C1835 1.355 . S
C1836 C1838 1.419 . S
C1837 C1832 1.425 1_545 S
C1837 C1834 1.409 1_545 S
C1837 C1835 1.415 . S
C1838 H1828 0.930 . S
C1838 C1836 1.419 . S
C1838 C1839 1.362 . S
C1839 H1829 0.930 . S
C1839 C1832 1.409 1_545 S
C1839 C1838 1.362 . S
H1840 C1846 0.930 . S
H1841 C1849 0.930 . S
H1842 C1850 0.930 . S
H1843 C1851 0.930 . S
H1844 C1854 0.930 . S
H1845 C1855 0.930 . S
C1846 H1840 0.930 . S
C1846 C1847 1.355 . S
C1846 C1848 1.415 . S
C1847 C1846 1.355 . S
C1847 C1849 1.419 . S
C1848 C1846 1.415 . S
C1848 C1853 1.425 1_565 S
C1848 C1855 1.409 1_565 S
C1849 H1841 0.930 . S
C1849 C1847 1.419 . S
C1849 C1850 1.362 . S
C1850 H1842 0.930 . S
C1850 C1849 1.362 . S
C1850 C1853 1.409 1_565 S
C1851 H1843 0.930 . S
C1851 C1852 1.355 . S
C1851 C1853 1.415 . S
C1852 C1851 1.355 . S
C1852 C1854 1.419 . S
C1853 C1848 1.425 1_545 S
C1853 C1850 1.409 1_545 S
C1853 C1851 1.415 . S
C1854 H1844 0.930 . S
C1854 C1852 1.419 . S
C1854 C1855 1.362 . S
C1855 H1845 0.930 . S
C1855 C1848 1.409 1_545 S
C1855 C1854 1.362 . S
H1856 C1862 0.930 . S
H1857 C1865 0.930 . S
H1858 C1866 0.930 . S
H1859 C1867 0.930 . S
H1860 C1870 0.930 . S
H1861 C1871 0.930 . S
C1862 H1856 0.930 . S
C1862 C1863 1.355 . S
C1862 C1864 1.415 . S
C1863 C1862 1.355 . S
C1863 C1865 1.419 . S
C1864 C1862 1.415 . S
C1864 C1869 1.425 . S
C1864 C1871 1.409 . S
C1865 H1857 0.930 . S
C1865 C1863 1.419 . S
C1865 C1866 1.362 . S
C1866 H1858 0.930 . S
C1866 C1865 1.362 . S
C1866 C1869 1.409 . S
C1867 H1859 0.930 . S
C1867 C1868 1.355 . S
C1867 C1869 1.415 . S
C1868 C1867 1.355 . S
C1868 C1870 1.419 . S
C1869 C1864 1.425 . S
C1869 C1866 1.409 . S
C1869 C1867 1.415 . S
C1870 H1860 0.930 . S
C1870 C1868 1.419 . S
C1870 C1871 1.362 . S
C1871 H1861 0.930 . S
C1871 C1864 1.409 . S
C1871 C1870 1.362 . S
H1872 C1878 0.930 . S
H1873 C1881 0.930 . S
H1874 C1882 0.930 . S
H1875 C1883 0.930 . S
H1876 C1886 0.930 . S
H1877 C1887 0.930 . S
C1878 H1872 0.930 . S
C1878 C1879 1.355 . S
C1878 C1880 1.415 . S
C1879 C1878 1.355 . S
C1879 C1881 1.419 . S
C1880 C1878 1.415 . S
C1880 C1885 1.425 . S
C1880 C1887 1.409 . S
C1881 H1873 0.930 . S
C1881 C1879 1.419 . S
C1881 C1882 1.362 . S
C1882 H1874 0.930 . S
C1882 C1881 1.362 . S
C1882 C1885 1.409 . S
C1883 H1875 0.930 . S
C1883 C1884 1.355 . S
C1883 C1885 1.415 . S
C1884 C1883 1.355 . S
C1884 C1886 1.419 . S
C1885 C1880 1.425 . S
C1885 C1882 1.409 . S
C1885 C1883 1.415 . S
C1886 H1876 0.930 . S
C1886 C1884 1.419 . S
C1886 C1887 1.362 . S
C1887 H1877 0.930 . S
C1887 C1880 1.409 . S
C1887 C1886 1.362 . S
H1888 C1894 0.930 . S
H1889 C1897 0.930 . S
H1890 C1898 0.930 . S
H1891 C1899 0.930 . S
H1892 C1902 0.930 . S
H1893 C1903 0.930 . S
C1894 H1888 0.930 . S
C1894 C1895 1.355 . S
C1894 C1896 1.415 . S
C1895 C1894 1.355 . S
C1895 C1897 1.419 . S
C1896 C1894 1.415 . S
C1896 C1901 1.425 . S
C1896 C1903 1.409 . S
C1897 H1889 0.930 . S
C1897 C1895 1.419 . S
C1897 C1898 1.362 . S
C1898 H1890 0.930 . S
C1898 C1897 1.362 . S
C1898 C1901 1.409 . S
C1899 H1891 0.930 . S
C1899 C1900 1.355 . S
C1899 C1901 1.415 . S
C1900 C1899 1.355 . S
C1900 C1902 1.419 . S
C1901 C1896 1.425 . S
C1901 C1898 1.409 . S
C1901 C1899 1.415 . S
C1902 H1892 0.930 . S
C1902 C1900 1.419 . S
C1902 C1903 1.362 . S
C1903 H1893 0.930 . S
C1903 C1896 1.409 . S
C1903 C1902 1.362 . S
H1904 C1910 0.930 . S
H1905 C1913 0.930 . S
H1906 C1914 0.930 . S
H1907 C1915 0.930 . S
H1908 C1918 0.930 . S
H1909 C1919 0.930 . S
C1910 H1904 0.930 . S
C1910 C1911 1.355 . S
C1910 C1912 1.415 . S
C1911 C1910 1.355 . S
C1911 C1913 1.419 . S
C1912 C1910 1.415 . S
C1912 C1917 1.425 . S
C1912 C1919 1.409 . S
C1913 H1905 0.930 . S
C1913 C1911 1.419 . S
C1913 C1914 1.362 . S
C1914 H1906 0.930 . S
C1914 C1913 1.362 . S
C1914 C1917 1.409 . S
C1915 H1907 0.930 . S
C1915 C1916 1.355 . S
C1915 C1917 1.415 . S
C1916 C1915 1.355 . S
C1916 C1918 1.419 . S
C1917 C1912 1.425 . S
C1917 C1914 1.409 . S
C1917 C1915 1.415 . S
C1918 H1908 0.930 . S
C1918 C1916 1.419 . S
C1918 C1919 1.362 . S
C1919 H1909 0.930 . S
C1919 C1912 1.409 . S
C1919 C1918 1.362 . S
H1920 C1926 0.930 . S
H1921 C1929 0.930 . S
H1922 C1930 0.930 . S
H1923 C1931 0.930 . S
H1924 C1934 0.930 . S
H1925 C1935 0.930 . S
C1926 H1920 0.930 . S
C1926 C1927 1.355 . S
C1926 C1928 1.415 . S
C1927 C1926 1.355 . S
C1927 C1929 1.419 . S
C1928 C1926 1.415 . S
C1928 C1933 1.425 . S
C1928 C1935 1.409 . S
C1929 H1921 0.930 . S
C1929 C1927 1.419 . S
C1929 C1930 1.362 . S
C1930 H1922 0.930 . S
C1930 C1929 1.362 . S
C1930 C1933 1.409 . S
C1931 H1923 0.930 . S
C1931 C1932 1.355 . S
C1931 C1933 1.415 . S
C1932 C1931 1.355 . S
C1932 C1934 1.419 . S
C1933 C1928 1.425 . S
C1933 C1930 1.409 . S
C1933 C1931 1.415 . S
C1934 H1924 0.930 . S
C1934 C1932 1.419 . S
C1934 C1935 1.362 . S
C1935 H1925 0.930 . S
C1935 C1928 1.409 . S
C1935 C1934 1.362 . S
H1936 C1942 0.930 . S
H1937 C1945 0.930 . S
H1938 C1946 0.930 . S
H1939 C1947 0.930 . S
H1940 C1950 0.930 . S
H1941 C1951 0.930 . S
C1942 H1936 0.930 . S
C1942 C1943 1.355 . S
C1942 C1944 1.415 . S
C1943 C1942 1.355 . S
C1943 C1945 1.419 . S
C1944 C1942 1.415 . S
C1944 C1949 1.425 . S
C1944 C1951 1.409 . S
C1945 H1937 0.930 . S
C1945 C1943 1.419 . S
C1945 C1946 1.362 . S
C1946 H1938 0.930 . S
C1946 C1945 1.362 . S
C1946 C1949 1.409 . S
C1947 H1939 0.930 . S
C1947 C1948 1.355 . S
C1947 C1949 1.415 . S
C1948 C1947 1.355 . S
C1948 C1950 1.419 . S
C1949 C1944 1.425 . S
C1949 C1946 1.409 . S
C1949 C1947 1.415 . S
C1950 H1940 0.930 . S
C1950 C1948 1.419 . S
C1950 C1951 1.362 . S
C1951 H1941 0.930 . S
C1951 C1944 1.409 . S
C1951 C1950 1.362 . S
H1952 C1958 0.930 . S
H1953 C1961 0.930 . S
H1954 C1962 0.930 . S
H1955 C1963 0.930 . S
H1956 C1966 0.930 . S
H1957 C1967 0.930 . S
C1958 H1952 0.930 . S
C1958 C1959 1.355 . S
C1958 C1960 1.415 . S
C1959 C1958 1.355 . S
C1959 C1961 1.419 . S
C1960 C1958 1.415 . S
C1960 C1965 1.425 . S
C1960 C1967 1.409 . S
C1961 H1953 0.930 . S
C1961 C1959 1.419 . S
C1961 C1962 1.362 . S
C1962 H1954 0.930 . S
C1962 C1961 1.362 . S
C1962 C1965 1.409 . S
C1963 H1955 0.930 . S
C1963 C1964 1.355 . S
C1963 C1965 1.415 . S
C1964 C1963 1.355 . S
C1964 C1966 1.419 . S
C1965 C1960 1.425 . S
C1965 C1962 1.409 . S
C1965 C1963 1.415 . S
C1966 H1956 0.930 . S
C1966 C1964 1.419 . S
C1966 C1967 1.362 . S
C1967 H1957 0.930 . S
C1967 C1960 1.409 . S
C1967 C1966 1.362 . S
H1968 C1974 0.930 . S
H1969 C1977 0.930 . S
H1970 C1978 0.930 . S
H1971 C1979 0.930 . S
H1972 C1982 0.930 . S
H1973 C1983 0.930 . S
C1974 H1968 0.930 . S
C1974 C1975 1.355 . S
C1974 C1976 1.415 . S
C1975 C1974 1.355 . S
C1975 C1977 1.419 . S
C1976 C1974 1.415 . S
C1976 C1981 1.425 . S
C1976 C1983 1.409 . S
C1977 H1969 0.930 . S
C1977 C1975 1.419 . S
C1977 C1978 1.362 . S
C1978 H1970 0.930 . S
C1978 C1977 1.362 . S
C1978 C1981 1.409 . S
C1979 H1971 0.930 . S
C1979 C1980 1.355 . S
C1979 C1981 1.415 . S
C1980 C1979 1.355 . S
C1980 C1982 1.419 . S
C1981 C1976 1.425 . S
C1981 C1978 1.409 . S
C1981 C1979 1.415 . S
C1982 H1972 0.930 . S
C1982 C1980 1.419 . S
C1982 C1983 1.362 . S
C1983 H1973 0.930 . S
C1983 C1976 1.409 . S
C1983 C1982 1.362 . S
H1984 C1990 0.930 . S
H1985 C1993 0.930 . S
H1986 C1994 0.930 . S
H1987 C1995 0.930 . S
H1988 C1998 0.930 . S
H1989 C1999 0.930 . S
C1990 H1984 0.930 . S
C1990 C1991 1.355 . S
C1990 C1992 1.415 . S
C1991 C1990 1.355 . S
C1991 C1993 1.419 . S
C1992 C1990 1.415 . S
C1992 C1997 1.425 . S
C1992 C1999 1.409 . S
C1993 H1985 0.930 . S
C1993 C1991 1.419 . S
C1993 C1994 1.362 . S
C1994 H1986 0.930 . S
C1994 C1993 1.362 . S
C1994 C1997 1.409 . S
C1995 H1987 0.930 . S
C1995 C1996 1.355 . S
C1995 C1997 1.415 . S
C1996 C1995 1.355 . S
C1996 C1998 1.419 . S
C1997 C1992 1.425 . S
C1997 C1994 1.409 . S
C1997 C1995 1.415 . S
C1998 H1988 0.930 . S
C1998 C1996 1.419 . S
C1998 C1999 1.362 . S
C1999 H1989 0.930 . S
C1999 C1992 1.409 . S
C1999 C1998 1.362 . S
H2000 C2006 0.930 . S
H2001 C2009 0.930 . S
H2002 C2010 0.930 . S
H2003 C2011 0.930 . S
H2004 C2014 0.930 . S
H2005 C2015 0.930 . S
C2006 H2000 0.930 . S
C2006 C2007 1.355 . S
C2006 C2008 1.415 . S
C2007 C2006 1.355 . S
C2007 C2009 1.419 . S
C2008 C2006 1.415 . S
C2008 C2013 1.425 . S
C2008 C2015 1.409 . S
C2009 H2001 0.930 . S
C2009 C2007 1.419 . S
C2009 C2010 1.362 . S
C2010 H2002 0.930 . S
C2010 C2009 1.362 . S
C2010 C2013 1.409 . S
C2011 H2003 0.930 . S
C2011 C2012 1.355 . S
C2011 C2013 1.415 . S
C2012 C2011 1.355 . S
C2012 C2014 1.419 . S
C2013 C2008 1.425 . S
C2013 C2010 1.409 . S
C2013 C2011 1.415 . S
C2014 H2004 0.930 . S
C2014 C2012 1.419 . S
C2014 C2015 1.362 . S
C2015 H2005 0.930 . S
C2015 C2008 1.409 . S
C2015 C2014 1.362 . S
H2016 C2022 0.930 . S
H2017 C2025 0.930 . S
H2018 C2026 0.930 . S
H2019 C2027 0.930 . S
H2020 C2030 0.930 . S
H2021 C2031 0.930 . S
C2022 H2016 0.930 . S
C2022 C2023 1.355 . S
C2022 C2024 1.415 . S
C2023 C2022 1.355 . S
C2023 C2025 1.419 . S
C2024 C2022 1.415 . S
C2024 C2029 1.425 . S
C2024 C2031 1.409 . S
C2025 H2017 0.930 . S
C2025 C2023 1.419 . S
C2025 C2026 1.362 . S
C2026 H2018 0.930 . S
C2026 C2025 1.362 . S
C2026 C2029 1.409 . S
C2027 H2019 0.930 . S
C2027 C2028 1.355 . S
C2027 C2029 1.415 . S
C2028 C2027 1.355 . S
C2028 C2030 1.419 . S
C2029 C2024 1.425 . S
C2029 C2026 1.409 . S
C2029 C2027 1.415 . S
C2030 H2020 0.930 . S
C2030 C2028 1.419 . S
C2030 C2031 1.362 . S
C2031 H2021 0.930 . S
C2031 C2024 1.409 . S
C2031 C2030 1.362 . S
H2032 C2038 0.930 . S
H2033 C2041 0.930 . S
H2034 C2042 0.930 . S
H2035 C2043 0.930 . S
H2036 C2046 0.930 . S
H2037 C2047 0.930 . S
C2038 H2032 0.930 . S
C2038 C2039 1.355 . S
C2038 C2040 1.415 . S
C2039 C2038 1.355 . S
C2039 C2041 1.419 . S
C2040 C2038 1.415 . S
C2040 C2045 1.425 . S
C2040 C2047 1.409 . S
C2041 H2033 0.930 . S
C2041 C2039 1.419 . S
C2041 C2042 1.362 . S
C2042 H2034 0.930 . S
C2042 C2041 1.362 . S
C2042 C2045 1.409 . S
C2043 H2035 0.930 . S
C2043 C2044 1.355 . S
C2043 C2045 1.415 . S
C2044 C2043 1.355 . S
C2044 C2046 1.419 . S
C2045 C2040 1.425 . S
C2045 C2042 1.409 . S
C2045 C2043 1.415 . S
C2046 H2036 0.930 . S
C2046 C2044 1.419 . S
C2046 C2047 1.362 . S
C2047 H2037 0.930 . S
C2047 C2040 1.409 . S
C2047 C2046 1.362 . S
H2048 C2054 0.930 . S
H2049 C2057 0.930 . S
H2050 C2058 0.930 . S
H2051 C2059 0.930 . S
H2052 C2062 0.930 . S
H2053 C2063 0.930 . S
C2054 H2048 0.930 . S
C2054 C2055 1.355 . S
C2054 C2056 1.415 . S
C2055 C2054 1.355 . S
C2055 C2057 1.419 . S
C2056 C2054 1.415 . S
C2056 C2061 1.425 . S
C2056 C2063 1.409 . S
C2057 H2049 0.930 . S
C2057 C2055 1.419 . S
C2057 C2058 1.362 . S
C2058 H2050 0.930 . S
C2058 C2057 1.362 . S
C2058 C2061 1.409 . S
C2059 H2051 0.930 . S
C2059 C2060 1.355 . S
C2059 C2061 1.415 . S
C2060 C2059 1.355 . S
C2060 C2062 1.419 . S
C2061 C2056 1.425 . S
C2061 C2058 1.409 . S
C2061 C2059 1.415 . S
C2062 H2052 0.930 . S
C2062 C2060 1.419 . S
C2062 C2063 1.362 . S
C2063 H2053 0.930 . S
C2063 C2056 1.409 . S
C2063 C2062 1.362 . S
H2064 C2070 0.930 . S
H2065 C2073 0.930 . S
H2066 C2074 0.930 . S
H2067 C2075 0.930 . S
H2068 C2078 0.930 . S
H2069 C2079 0.930 . S
C2070 H2064 0.930 . S
C2070 C2071 1.355 . S
C2070 C2072 1.415 . S
C2071 C2070 1.355 . S
C2071 C2073 1.419 . S
C2072 C2070 1.415 . S
C2072 C2077 1.425 . S
C2072 C2079 1.409 . S
C2073 H2065 0.930 . S
C2073 C2071 1.419 . S
C2073 C2074 1.362 . S
C2074 H2066 0.930 . S
C2074 C2073 1.362 . S
C2074 C2077 1.409 . S
C2075 H2067 0.930 . S
C2075 C2076 1.355 . S
C2075 C2077 1.415 . S
C2076 C2075 1.355 . S
C2076 C2078 1.419 . S
C2077 C2072 1.425 . S
C2077 C2074 1.409 . S
C2077 C2075 1.415 . S
C2078 H2068 0.930 . S
C2078 C2076 1.419 . S
C2078 C2079 1.362 . S
C2079 H2069 0.930 . S
C2079 C2072 1.409 . S
C2079 C2078 1.362 . S
H2080 C2086 0.930 . S
H2081 C2089 0.930 . S
H2082 C2090 0.930 . S
H2083 C2091 0.930 . S
H2084 C2094 0.930 . S
H2085 C2095 0.930 . S
C2086 H2080 0.930 . S
C2086 C2087 1.355 . S
C2086 C2088 1.415 . S
C2087 C2086 1.355 . S
C2087 C2089 1.419 . S
C2088 C2086 1.415 . S
C2088 C2093 1.425 . S
C2088 C2095 1.409 . S
C2089 H2081 0.930 . S
C2089 C2087 1.419 . S
C2089 C2090 1.362 . S
C2090 H2082 0.930 . S
C2090 C2089 1.362 . S
C2090 C2093 1.409 . S
C2091 H2083 0.930 . S
C2091 C2092 1.355 . S
C2091 C2093 1.415 . S
C2092 C2091 1.355 . S
C2092 C2094 1.419 . S
C2093 C2088 1.425 . S
C2093 C2090 1.409 . S
C2093 C2091 1.415 . S
C2094 H2084 0.930 . S
C2094 C2092 1.419 . S
C2094 C2095 1.362 . S
C2095 H2085 0.930 . S
C2095 C2088 1.409 . S
C2095 C2094 1.362 . S
H2096 C2102 0.930 . S
H2097 C2105 0.930 . S
H2098 C2106 0.930 . S
H2099 C2107 0.930 . S
H2100 C2110 0.930 . S
H2101 C2111 0.930 . S
C2102 H2096 0.930 . S
C2102 C2103 1.355 . S
C2102 C2104 1.415 . S
C2103 C2102 1.355 . S
C2103 C2105 1.419 . S
C2104 C2102 1.415 . S
C2104 C2109 1.425 . S
C2104 C2111 1.409 . S
C2105 H2097 0.930 . S
C2105 C2103 1.419 . S
C2105 C2106 1.362 . S
C2106 H2098 0.930 . S
C2106 C2105 1.362 . S
C2106 C2109 1.409 . S
C2107 H2099 0.930 . S
C2107 C2108 1.355 . S
C2107 C2109 1.415 . S
C2108 C2107 1.355 . S
C2108 C2110 1.419 . S
C2109 C2104 1.425 . S
C2109 C2106 1.409 . S
C2109 C2107 1.415 . S
C2110 H2100 0.930 . S
C2110 C2108 1.419 . S
C2110 C2111 1.362 . S
C2111 H2101 0.930 . S
C2111 C2104 1.409 . S
C2111 C2110 1.362 . S
H2112 C2118 0.930 . S
H2113 C2121 0.930 . S
H2114 C2122 0.930 . S
H2115 C2123 0.930 . S
H2116 C2126 0.930 . S
H2117 C2127 0.930 . S
C2118 H2112 0.930 . S
C2118 C2119 1.355 . S
C2118 C2120 1.415 . S
C2119 C2118 1.355 . S
C2119 C2121 1.419 . S
C2120 C2118 1.415 . S
C2120 C2125 1.425 . S
C2120 C2127 1.409 . S
C2121 H2113 0.930 . S
C2121 C2119 1.419 . S
C2121 C2122 1.362 . S
C2122 H2114 0.930 . S
C2122 C2121 1.362 . S
C2122 C2125 1.409 . S
C2123 H2115 0.930 . S
C2123 C2124 1.355 . S
C2123 C2125 1.415 . S
C2124 C2123 1.355 . S
C2124 C2126 1.419 . S
C2125 C2120 1.425 . S
C2125 C2122 1.409 . S
C2125 C2123 1.415 . S
C2126 H2116 0.930 . S
C2126 C2124 1.419 . S
C2126 C2127 1.362 . S
C2127 H2117 0.930 . S
C2127 C2120 1.409 . S
C2127 C2126 1.362 . S
H2128 C2134 0.930 . S
H2129 C2137 0.930 . S
H2130 C2138 0.930 . S
H2131 C2139 0.930 . S
H2132 C2142 0.930 . S
H2133 C2143 0.930 . S
C2134 H2128 0.930 . S
C2134 C2135 1.355 . S
C2134 C2136 1.415 . S
C2135 C2134 1.355 . S
C2135 C2137 1.419 . S
C2136 C2134 1.415 . S
C2136 C2141 1.425 . S
C2136 C2143 1.409 . S
C2137 H2129 0.930 . S
C2137 C2135 1.419 . S
C2137 C2138 1.362 . S
C2138 H2130 0.930 . S
C2138 C2137 1.362 . S
C2138 C2141 1.409 . S
C2139 H2131 0.930 . S
C2139 C2140 1.355 . S
C2139 C2141 1.415 . S
C2140 C2139 1.355 . S
C2140 C2142 1.419 . S
C2141 C2136 1.425 . S
C2141 C2138 1.409 . S
C2141 C2139 1.415 . S
C2142 H2132 0.930 . S
C2142 C2140 1.419 . S
C2142 C2143 1.362 . S
C2143 H2133 0.930 . S
C2143 C2136 1.409 . S
C2143 C2142 1.362 . S
H2144 C2150 0.930 . S
H2145 C2153 0.930 . S
H2146 C2154 0.930 . S
H2147 C2155 0.930 . S
H2148 C2158 0.930 . S
H2149 C2159 0.930 . S
C2150 H2144 0.930 . S
C2150 C2151 1.355 . S
C2150 C2152 1.415 . S
C2151 C2150 1.355 . S
C2151 C2153 1.419 . S
C2152 C2150 1.415 . S
C2152 C2157 1.425 . S
C2152 C2159 1.409 . S
C2153 H2145 0.930 . S
C2153 C2151 1.419 . S
C2153 C2154 1.362 . S
C2154 H2146 0.930 . S
C2154 C2153 1.362 . S
C2154 C2157 1.409 . S
C2155 H2147 0.930 . S
C2155 C2156 1.355 . S
C2155 C2157 1.415 . S
C2156 C2155 1.355 . S
C2156 C2158 1.419 . S
C2157 C2152 1.425 . S
C2157 C2154 1.409 . S
C2157 C2155 1.415 . S
C2158 H2148 0.930 . S
C2158 C2156 1.419 . S
C2158 C2159 1.362 . S
C2159 H2149 0.930 . S
C2159 C2152 1.409 . S
C2159 C2158 1.362 . S
H2160 C2166 0.930 . S
H2161 C2169 0.930 . S
H2162 C2170 0.930 . S
H2163 C2171 0.930 . S
H2164 C2174 0.930 . S
H2165 C2175 0.930 . S
C2166 H2160 0.930 . S
C2166 C2167 1.355 . S
C2166 C2168 1.415 . S
C2167 C2166 1.355 . S
C2167 C2169 1.419 . S
C2168 C2166 1.415 . S
C2168 C2173 1.425 . S
C2168 C2175 1.409 . S
C2169 H2161 0.930 . S
C2169 C2167 1.419 . S
C2169 C2170 1.362 . S
C2170 H2162 0.930 . S
C2170 C2169 1.362 . S
C2170 C2173 1.409 . S
C2171 H2163 0.930 . S
C2171 C2172 1.355 . S
C2171 C2173 1.415 . S
C2172 C2171 1.355 . S
C2172 C2174 1.419 . S
C2173 C2168 1.425 . S
C2173 C2170 1.409 . S
C2173 C2171 1.415 . S
C2174 H2164 0.930 . S
C2174 C2172 1.419 . S
C2174 C2175 1.362 . S
C2175 H2165 0.930 . S
C2175 C2168 1.409 . S
C2175 C2174 1.362 . S
H2176 C2182 0.930 . S
H2177 C2185 0.930 . S
H2178 C2186 0.930 . S
H2179 C2187 0.930 . S
H2180 C2190 0.930 . S
H2181 C2191 0.930 . S
C2182 H2176 0.930 . S
C2182 C2183 1.355 . S
C2182 C2184 1.415 . S
C2183 C2182 1.355 . S
C2183 C2185 1.419 . S
C2184 C2182 1.415 . S
C2184 C2189 1.425 . S
C2184 C2191 1.409 . S
C2185 H2177 0.930 . S
C2185 C2183 1.419 . S
C2185 C2186 1.362 . S
C2186 H2178 0.930 . S
C2186 C2185 1.362 . S
C2186 C2189 1.409 . S
C2187 H2179 0.930 . S
C2187 C2188 1.355 . S
C2187 C2189 1.415 . S
C2188 C2187 1.355 . S
C2188 C2190 1.419 . S
C2189 C2184 1.425 . S
C2189 C2186 1.409 . S
C2189 C2187 1.415 . S
C2190 H2180 0.930 . S
C2190 C2188 1.419 . S
C2190 C2191 1.362 . S
C2191 H2181 0.930 . S
C2191 C2184 1.409 . S
C2191 C2190 1.362 . S
H2192 C2198 0.930 . S
H2193 C2201 0.930 . S
H2194 C2202 0.930 . S
H2195 C2203 0.930 . S
H2196 C2206 0.930 . S
H2197 C2207 0.930 . S
C2198 H2192 0.930 . S
C2198 C2199 1.355 . S
C2198 C2200 1.415 . S
C2199 C2198 1.355 . S
C2199 C2201 1.419 . S
C2200 C2198 1.415 . S
C2200 C2205 1.425 . S
C2200 C2207 1.409 . S
C2201 H2193 0.930 . S
C2201 C2199 1.419 . S
C2201 C2202 1.362 . S
C2202 H2194 0.930 . S
C2202 C2201 1.362 . S
C2202 C2205 1.409 . S
C2203 H2195 0.930 . S
C2203 C2204 1.355 . S
C2203 C2205 1.415 . S
C2204 C2203 1.355 . S
C2204 C2206 1.419 . S
C2205 C2200 1.425 . S
C2205 C2202 1.409 . S
C2205 C2203 1.415 . S
C2206 H2196 0.930 . S
C2206 C2204 1.419 . S
C2206 C2207 1.362 . S
C2207 H2197 0.930 . S
C2207 C2200 1.409 . S
C2207 C2206 1.362 . S
H2208 C2214 0.930 . S
H2209 C2217 0.930 . S
H2210 C2218 0.930 . S
H2211 C2219 0.930 . S
H2212 C2222 0.930 . S
H2213 C2223 0.930 . S
C2214 H2208 0.930 . S
C2214 C2215 1.355 . S
C2214 C2216 1.415 . S
C2215 C2214 1.355 . S
C2215 C2217 1.419 . S
C2216 C2214 1.415 . S
C2216 C2221 1.425 . S
C2216 C2223 1.409 . S
C2217 H2209 0.930 . S
C2217 C2215 1.419 . S
C2217 C2218 1.362 . S
C2218 H2210 0.930 . S
C2218 C2217 1.362 . S
C2218 C2221 1.409 . S
C2219 H2211 0.930 . S
C2219 C2220 1.355 . S
C2219 C2221 1.415 . S
C2220 C2219 1.355 . S
C2220 C2222 1.419 . S
C2221 C2216 1.425 . S
C2221 C2218 1.409 . S
C2221 C2219 1.415 . S
C2222 H2212 0.930 . S
C2222 C2220 1.419 . S
C2222 C2223 1.362 . S
C2223 H2213 0.930 . S
C2223 C2216 1.409 . S
C2223 C2222 1.362 . S
H2224 C2230 0.930 . S
H2225 C2233 0.930 . S
H2226 C2234 0.930 . S
H2227 C2235 0.930 . S
H2228 C2238 0.930 . S
H2229 C2239 0.930 . S
C2230 H2224 0.930 . S
C2230 C2231 1.355 . S
C2230 C2232 1.415 . S
C2231 C2230 1.355 . S
C2231 C2233 1.419 . S
C2232 C2230 1.415 . S
C2232 C2237 1.425 . S
C2232 C2239 1.409 . S
C2233 H2225 0.930 . S
C2233 C2231 1.419 . S
C2233 C2234 1.362 . S
C2234 H2226 0.930 . S
C2234 C2233 1.362 . S
C2234 C2237 1.409 . S
C2235 H2227 0.930 . S
C2235 C2236 1.355 . S
C2235 C2237 1.415 . S
C2236 C2235 1.355 . S
C2236 C2238 1.419 . S
C2237 C2232 1.425 . S
C2237 C2234 1.409 . S
C2237 C2235 1.415 . S
C2238 H2228 0.930 . S
C2238 C2236 1.419 . S
C2238 C2239 1.362 . S
C2239 H2229 0.930 . S
C2239 C2232 1.409 . S
C2239 C2238 1.362 . S
C711 C367 1.096 . S
C716 C21 1.094 . S
C727 C513 1.093 . S
C732 C37 1.089 . S
C743 C59 1.093 . S
C748 C469 1.089 . S
C759 C73 1.093 . S
C764 C491 1.088 . S
C775 C109 1.097 . S
C780 C389 1.088 . S
C791 C117 1.090 . S
C796 C411 1.098 . S
C807 C425 1.091 . S
C812 C139 1.090 . S
C823 C161 1.094 . S
C828 C447 1.096 . S
C839 C197 1.096 . S
C844 C15 1.094 . S
C855 C29 1.092 . S
C860 C219 1.089 . S
C871 C227 1.092 . S
C876 C51 1.097 . S
C887 C87 1.094 . S
C892 C263 1.096 . S
C903 C103 1.090 . S
C908 C271 1.091 . S
C919 C307 1.094 . S
C924 C131 1.096 . S
C935 C153 1.089 . S
C940 C329 1.093 . S
C951 C337 1.090 . S
C956 C175 1.098 . S
C967 C191 1.089 . S
C972 C373 1.093 . S
C983 C395 1.088 . S
C988 C285 1.095 . S
C999 C417 1.089 . S
C1004 C301 1.098 . S
C1015 C323 1.093 . S
C1020 C433 1.097 . S
C1031 C455 1.095 . S
C1036 C351 1.095 . S
C1047 C477 1.088 . S
C1052 C241 1.094 . S
C1063 C257 1.091 . S
C1068 C499 1.090 . S
C1079 C521 1.090 . S
C1084 C213 1.098 . S
C1095 C689 1.097 . S
C1100 C345 1.089 . S
C1111 C293 1.094 . S
C1116 C667 1.096 . S
C1127 C631 1.098 . S
C1132 C249 1.090 . S
C1143 C653 1.093 . S
C1148 C205 1.097 . S
C1159 C381 1.092 . S
C1164 C549 1.097 . S
C1175 C439 1.095 . S
C1180 C557 1.095 . S
C1191 C579 1.097 . S
C1196 C359 1.088 . S
C1207 C601 1.093 . S
C1212 C483 1.096 . S
C1223 C543 1.097 . S
C1228 C95 1.088 . S
C1239 C593 1.091 . S
C1244 C7 1.098 . S
C1255 C81 1.091 . S
C1260 C637 1.090 . S
C1271 C615 1.093 . S
C1276 C65 1.097 . S
C1287 C659 1.090 . S
C1292 C43 1.091 . S
C1303 C147 1.091 . S
C1308 C571 1.090 . S
C1319 C675 1.091 . S
C1324 C125 1.090 . S
C1335 C169 1.093 . S
C1340 C697 1.097 . S
C1351 C315 1.088 . S
C1356 C565 1.097 . S
C1367 C279 1.091 . S
C1372 C535 1.091 . S
C1383 C609 1.094 . S
C1388 C235 1.096 . S
C1399 C587 1.095 . S
C1404 C183 1.088 . S
C1415 C403 1.089 . S
C1420 C681 1.093 . S
C1431 C461 1.092 . S
C1436 C703 1.097 . S
C1447 C645 1.092 . S
C1452 C527 1.097 . S
C1463 C505 1.097 . S
C1468 C623 1.092 . S
C1479 C84 1.551 . S
C1484 C10 1.565 . S
C1495 C40 1.563 . S
C1500 C8 1.555 . S
C1511 C32 1.556 . S
C1516 C62 1.554 . S
C1527 C54 1.566 . S
C1532 C74 1.549 . S
C1543 C128 1.560 . S
C1548 C98 1.558 . S
C1559 C150 1.566 . S
C1564 C118 1.548 . S
C1575 C140 1.551 . S
C1580 C172 1.566 . S
C1591 C162 1.562 . S
C1596 C96 1.556 . S
C1607 C186 1.565 . S
C1612 C404 1.548 . S
C1623 C428 1.552 . S
C1628 C208 1.559 . S
C1639 C450 1.550 . S
C1644 C228 1.566 . S
C1655 C252 1.566 . S
C1660 C382 1.550 . S
C1671 C272 1.549 . S
C1676 C494 1.563 . S
C1687 C360 1.566 . S
C1692 C296 1.548 . S
C1703 C516 1.566 . S
C1708 C318 1.549 . S
C1719 C338 1.557 . S
C1724 C472 1.554 . S
C1735 C362 1.564 . S
C1740 C206 1.548 . S
C1751 C384 1.553 . S
C1756 C348 1.558 . S
C1767 C282 1.563 . S
C1772 C406 1.549 . S
C1783 C294 1.549 . S
C1788 C436 1.563 . S
C1799 C458 1.565 . S
C1804 C316 1.551 . S
C1815 C480 1.562 . S
C1820 C250 1.549 . S
C1831 C502 1.553 . S
C1836 C184 1.558 . S
C1847 C238 1.553 . S
C1852 C524 1.564 . S
C1863 C392 1.550 . S
C1868 C304 1.561 . S
C1879 C340 1.565 . S
C1884 C426 1.548 . S
C1895 C370 1.548 . S
C1900 C260 1.566 . S
C1911 C216 1.566 . S
C1916 C470 1.548 . S
C1927 C538 1.566 . S
C1932 C624 1.549 . S
C1943 C52 1.566 . S
C1948 C164 1.548 . S
C1959 C558 1.566 . S
C1964 C646 1.548 . S
C1975 C120 1.566 . S
C1980 C18 1.549 . S
C1991 C670 1.548 . S
C1996 C580 1.564 . S
C2007 C76 1.564 . S
C2012 C106 1.553 . S
C2023 C602 1.561 . S
C2028 C692 1.550 . S
C2039 C142 1.566 . S
C2044 C30 1.550 . S
C2055 C626 1.565 . S
C2060 C590 1.548 . S
C2071 C612 1.549 . S
C2076 C648 1.566 . S
C2087 C536 1.565 . S
C2092 C678 1.548 . S
C2103 C568 1.553 . S
C2108 C700 1.564 . S
C2119 C414 1.564 . S
C2124 C326 1.553 . S
C2135 C448 1.549 . S
C2140 C274 1.563 . S
C2151 C194 1.566 . S
C2156 C514 1.548 . S
C2167 C230 1.549 . S
C2172 C492 1.563 . S
C2183 C668 1.552 . S
C2188 C560 1.565 . S
C2199 C634 1.552 . S
C2204 C604 1.565 . S
C2215 C656 1.554 . S
C2220 C582 1.556 . S
C2231 C546 1.566 . S
C2236 C690 1.548 . S
