# Generated by pormake.
# Topology ukh, (4)-cn, num edge types: 1
# Building blocks:
#     Node 0, Type 0, BuildingBlock: TATPOV_clean_sbu_0, # of connection points: 4
#     Node 1, Type 0, BuildingBlock: TATPOV_clean_sbu_0, # of connection points: 4
#     Node 2, Type 0, BuildingBlock: TATPOV_clean_sbu_0, # of connection points: 4
#     Node 3, Type 0, BuildingBlock: TATPOV_clean_sbu_0, # of connection points: 4
#     Node 4, Type 0, BuildingBlock: TATPOV_clean_sbu_0, # of connection points: 4
#     Node 5, Type 0, BuildingBlock: TATPOV_clean_sbu_0, # of connection points: 4
#     Node 6, Type 0, BuildingBlock: TATPOV_clean_sbu_0, # of connection points: 4
#     Node 7, Type 0, BuildingBlock: TATPOV_clean_sbu_0, # of connection points: 4
#     Node 8, Type 0, BuildingBlock: TATPOV_clean_sbu_0, # of connection points: 4
#     Node 9, Type 0, BuildingBlock: TATPOV_clean_sbu_0, # of connection points: 4
#     Node 10, Type 0, BuildingBlock: TATPOV_clean_sbu_0, # of connection points: 4
#     Node 11, Type 0, BuildingBlock: TATPOV_clean_sbu_0, # of connection points: 4
#     Edge 12, Type (0, 0), BuildingBlock: XIVTED_clean_linker_0, # of connection points: 2
#     Edge 13, Type (0, 0), BuildingBlock: XIVTED_clean_linker_0, # of connection points: 2
#     Edge 14, Type (0, 0), BuildingBlock: XIVTED_clean_linker_0, # of connection points: 2
#     Edge 15, Type (0, 0), BuildingBlock: XIVTED_clean_linker_0, # of connection points: 2
#     Edge 16, Type (0, 0), BuildingBlock: XIVTED_clean_linker_0, # of connection points: 2
#     Edge 17, Type (0, 0), BuildingBlock: XIVTED_clean_linker_0, # of connection points: 2
#     Edge 18, Type (0, 0), BuildingBlock: XIVTED_clean_linker_0, # of connection points: 2
#     Edge 19, Type (0, 0), BuildingBlock: XIVTED_clean_linker_0, # of connection points: 2
#     Edge 20, Type (0, 0), BuildingBlock: XIVTED_clean_linker_0, # of connection points: 2
#     Edge 21, Type (0, 0), BuildingBlock: XIVTED_clean_linker_0, # of connection points: 2
#     Edge 22, Type (0, 0), BuildingBlock: XIVTED_clean_linker_0, # of connection points: 2
#     Edge 23, Type (0, 0), BuildingBlock: XIVTED_clean_linker_0, # of connection points: 2
#     Edge 24, Type (0, 0), BuildingBlock: XIVTED_clean_linker_0, # of connection points: 2
#     Edge 25, Type (0, 0), BuildingBlock: XIVTED_clean_linker_0, # of connection points: 2
#     Edge 26, Type (0, 0), BuildingBlock: XIVTED_clean_linker_0, # of connection points: 2
#     Edge 27, Type (0, 0), BuildingBlock: XIVTED_clean_linker_0, # of connection points: 2
#     Edge 28, Type (0, 0), BuildingBlock: XIVTED_clean_linker_0, # of connection points: 2
#     Edge 29, Type (0, 0), BuildingBlock: XIVTED_clean_linker_0, # of connection points: 2
#     Edge 30, Type (0, 0), BuildingBlock: XIVTED_clean_linker_0, # of connection points: 2
#     Edge 31, Type (0, 0), BuildingBlock: XIVTED_clean_linker_0, # of connection points: 2
#     Edge 32, Type (0, 0), BuildingBlock: XIVTED_clean_linker_0, # of connection points: 2
#     Edge 33, Type (0, 0), BuildingBlock: XIVTED_clean_linker_0, # of connection points: 2
#     Edge 34, Type (0, 0), BuildingBlock: XIVTED_clean_linker_0, # of connection points: 2
#     Edge 35, Type (0, 0), BuildingBlock: XIVTED_clean_linker_0, # of connection points: 2
# Relax obj value: 0.152
# Max RMSD: 0.200
# Mean RMSD: 0.200
data_MOF--net-ukh--node1-TATPOV_clean_sbu_0--edge1-XIVTED_clean_linker_0
_symmetry_space_group_name_H-M    P1
_symmetry_Int_Tables_number       1
_symmetry_cell_setting            triclinic
loop_
_symmetry_equiv_pos_as_xyz
'x, y, z'
_cell_length_a     31.052902
_cell_length_b     31.044716
_cell_length_c     64.845043
_cell_angle_alpha  90.054313
_cell_angle_beta   89.987884
_cell_angle_gamma 120.02206
loop_
_atom_site_label
_atom_site_type_symbol
_atom_site_fract_x
_atom_site_fract_y
_atom_site_fract_z
_atom_type_partial_charge
Zn0 Zn 0.34 0.21673 0.01379 0.0
Zn1 Zn 0.32218 0.20366 0.05388 0.0
O2 O 0.34218 0.15156 0.04504 0.0
O3 O 0.36204 0.1669 0.01223 0.0
O4 O 0.31101 0.19237 0.08463 0.0
O5 O 0.39059 0.28759 0.01852 0.0
O6 O 0.37661 0.27774 0.05195 0.0
C7 C 0.35801 0.14238 0.02837 0.0
C8 C 0.23946 0.18912 0.02395 0.0
O9 O 0.25479 0.19098 0.04236 0.0
O10 O 0.26844 0.1971 0.00887 0.0
C11 C 0.28473 0.14886 0.09202 0.0
O12 O 0.2636 0.1108 0.07933 0.0
C13 C 0.39973 0.30528 0.03659 0.0
Zn14 Zn 0.11825 0.35553 0.34773 0.0
Zn15 Zn 0.11491 0.33415 0.38724 0.0
O16 O 0.18659 0.35548 0.37742 0.0
O17 O 0.1906 0.37972 0.34528 0.0
O18 O 0.11668 0.32062 0.41762 0.0
O19 O 0.09446 0.40289 0.35397 0.0
O20 O 0.09271 0.38674 0.38707 0.0
C21 C 0.21132 0.37333 0.36082 0.0
C22 C 0.0473 0.25341 0.35662 0.0
O23 O 0.06064 0.26736 0.37519 0.0
O24 O 0.06791 0.28373 0.34191 0.0
C25 C 0.13533 0.29486 0.42413 0.0
O26 O 0.15286 0.27575 0.41072 0.0
C27 C 0.08563 0.4097 0.37236 0.0
Zn28 Zn 0.75047 0.11768 0.68648 0.0
Zn29 Zn 0.78129 0.11526 0.72423 0.0
O30 O 0.83335 0.18435 0.71269 0.0
O31 O 0.80891 0.18457 0.68087 0.0
O32 O 0.80281 0.1176 0.75383 0.0
O33 O 0.68779 0.11223 0.69692 0.0
O34 O 0.70857 0.09969 0.72781 0.0
C35 C 0.83968 0.20607 0.69533 0.0
C36 C 0.77017 0.03697 0.69316 0.0
O37 O 0.78534 0.05716 0.7108 0.0
O38 O 0.75231 0.05473 0.6804 0.0
C39 C 0.77659 0.08189 0.76606 0.0
O40 O 0.7368 0.04249 0.75888 0.0
C41 C 0.67716 0.1015 0.71573 0.0
Zn42 Zn 0.643 0.76513 0.01087 0.0
Zn43 Zn 0.65639 0.77867 0.05094 0.0
O44 O 0.63463 0.8287 0.0412 0.0
O45 O 0.61489 0.81013 0.00854 0.0
O46 O 0.66026 0.78599 0.08196 0.0
O47 O 0.59827 0.69221 0.01437 0.0
O48 O 0.60642 0.70369 0.04792 0.0
C49 C 0.61804 0.83567 0.02426 0.0
C50 C 0.74437 0.80051 0.02319 0.0
O51 O 0.72664 0.79602 0.04133 0.0
O52 O 0.71661 0.79186 0.00761 0.0
C53 C 0.69166 0.82378 0.09213 0.0
O54 O 0.72602 0.86277 0.08221 0.0
C55 C 0.58808 0.67478 0.03246 0.0
Zn56 Zn 0.86959 0.64637 0.34958 0.0
Zn57 Zn 0.87385 0.66916 0.38904 0.0
O58 O 0.80255 0.65017 0.37928 0.0
O59 O 0.79835 0.62618 0.34705 0.0
O60 O 0.87318 0.68284 0.41956 0.0
O61 O 0.88815 0.59521 0.35591 0.0
O62 O 0.89281 0.61404 0.38886 0.0
C63 C 0.77798 0.63321 0.36256 0.0
C64 C 0.94347 0.74794 0.3582 0.0
O65 O 0.92941 0.73512 0.37679 0.0
O66 O 0.92276 0.71702 0.34367 0.0
C67 C 0.85458 0.70821 0.42662 0.0
O68 O 0.83616 0.72737 0.41368 0.0
C69 C 0.89674 0.58853 0.37434 0.0
Zn70 Zn 0.22944 0.87717 0.68712 0.0
Zn71 Zn 0.20799 0.88206 0.72608 0.0
O72 O 0.15658 0.81086 0.71599 0.0
O73 O 0.17962 0.80526 0.6845 0.0
O74 O 0.19218 0.88083 0.75642 0.0
O75 O 0.29977 0.89906 0.69422 0.0
O76 O 0.28251 0.9031 0.7268 0.0
C77 C 0.15043 0.78562 0.69958 0.0
C78 C 0.19912 0.94992 0.69453 0.0
O79 O 0.19738 0.93684 0.7133 0.0
O80 O 0.21023 0.92885 0.68045 0.0
C81 C 0.14802 0.86081 0.76338 0.0
O82 O 0.11056 0.84131 0.75036 0.0
C83 C 0.3137 0.90866 0.71281 0.0
Zn84 Zn 0.73069 0.61814 0.65376 0.0
Zn85 Zn 0.78037 0.66191 0.61933 0.0
O86 O 0.8237 0.63829 0.63422 0.0
O87 O 0.78571 0.60747 0.66375 0.0
O88 O 0.81314 0.68552 0.59145 0.0
O89 O 0.67326 0.56467 0.63789 0.0
O90 O 0.70897 0.61073 0.61054 0.0
C91 C 0.8221 0.61906 0.6518 0.0
C92 C 0.75983 0.72319 0.64955 0.0
O93 O 0.78349 0.72227 0.63365 0.0
O94 O 0.73305 0.68378 0.65975 0.0
C95 C 0.79508 0.70339 0.5787 0.0
O96 O 0.75811 0.70965 0.58463 0.0
C97 C 0.67202 0.57368 0.61896 0.0
Zn98 Zn 0.10806 0.73566 0.99303 0.0
Zn99 Zn 0.11781 0.78073 0.95612 0.0
O100 O 0.18623 0.82013 0.97039 0.0
O101 O 0.1788 0.78385 1.00039 0.0
O102 O 0.12884 0.8116 0.92776 0.0
O103 O 0.09067 0.67178 0.97842 0.0
O104 O 0.09143 0.70743 0.94893 0.0
C105 C 0.20485 0.81784 0.98763 0.0
C106 C 0.04379 0.77867 0.98736 0.0
O107 O 0.065 0.79213 0.96983 0.0
O108 O 0.05499 0.75392 0.9996 0.0
C109 C 0.09261 0.79582 0.91519 0.0
O110 O 0.04817 0.76171 0.9214 0.0
C111 C 0.08406 0.66935 0.95911 0.0
Zn112 Zn 0.36735 0.11851 0.32234 0.0
Zn113 Zn 0.32986 0.12474 0.28551 0.0
O114 O 0.35662 0.19342 0.29938 0.0
O115 O 0.38731 0.18884 0.32937 0.0
O116 O 0.30943 0.13412 0.257 0.0
O117 O 0.4154 0.10294 0.30793 0.0
O118 O 0.37866 0.1006 0.27856 0.0
C119 C 0.37759 0.21332 0.31647 0.0
C120 C 0.26044 0.05005 0.31709 0.0
O121 O 0.26677 0.07037 0.29942 0.0
O122 O 0.29703 0.06351 0.32922 0.0
C123 C 0.29016 0.09773 0.24446 0.0
O124 O 0.28084 0.05371 0.25082 0.0
C125 C 0.41061 0.09506 0.2887 0.0
Zn126 Zn 0.25551 0.37293 0.65332 0.0
Zn127 Zn 0.21138 0.33306 0.61682 0.0
O128 O 0.16862 0.35867 0.63061 0.0
O129 O 0.20432 0.39197 0.66026 0.0
O130 O 0.18082 0.31171 0.58852 0.0
O131 O 0.31888 0.42083 0.63861 0.0
O132 O 0.2841 0.38206 0.60961 0.0
C133 C 0.16937 0.38021 0.64749 0.0
C134 C 0.21776 0.26563 0.64885 0.0
O135 O 0.20347 0.27082 0.63106 0.0
O136 O 0.24078 0.30294 0.66068 0.0
C137 C 0.19863 0.29401 0.57556 0.0
O138 O 0.235 0.28663 0.58133 0.0
C139 C 0.32171 0.41484 0.61945 0.0
Zn140 Zn 0.86984 0.24645 0.99193 0.0
Zn141 Zn 0.86519 0.2058 0.9543 0.0
O142 O 0.79544 0.16254 0.96708 0.0
O143 O 0.79891 0.19526 0.99761 0.0
O144 O 0.86019 0.18036 0.92514 0.0
O145 O 0.88631 0.31147 0.97859 0.0
O146 O 0.88933 0.27931 0.94871 0.0
C147 C 0.77484 0.1623 0.98416 0.0
C148 C 0.93804 0.20806 0.98626 0.0
O149 O 0.91835 0.19567 0.96841 0.0
O150 O 0.92441 0.23041 0.99876 0.0
C151 C 0.82836 0.13754 0.91844 0.0
O152 O 0.79594 0.10454 0.93128 0.0
C153 C 0.89469 0.31604 0.9594 0.0
Zn154 Zn 0.62018 0.88669 0.32162 0.0
Zn155 Zn 0.65762 0.8799 0.28478 0.0
O156 O 0.63169 0.81137 0.29868 0.0
O157 O 0.60113 0.81666 0.32862 0.0
O158 O 0.67968 0.87241 0.2563 0.0
O159 O 0.57148 0.90107 0.3071 0.0
O160 O 0.60801 0.90296 0.27771 0.0
C161 C 0.61101 0.79197 0.31587 0.0
C162 C 0.72678 0.95516 0.31641 0.0
O163 O 0.72022 0.93441 0.29882 0.0
O164 O 0.6903 0.94216 0.32856 0.0
C165 C 0.64878 0.83675 0.24502 0.0
O166 O 0.60511 0.80482 0.25274 0.0
C167 C 0.57582 0.90816 0.28782 0.0
H168 H 0.5549 0.62106 0.06864 0.0
H169 H 0.47031 0.36621 0.00952 0.0
H170 H 0.55561 0.60429 1.0025 0.0
H171 H 0.40854 0.36652 0.06915 0.0
H172 H 0.51804 0.45637 0.01039 0.0
H173 H 0.51297 0.52988 0.07209 0.0
C174 C 0.546 0.59834 0.05489 0.0
C175 C 0.55887 0.62034 0.03525 0.0
C176 C 0.49425 0.43682 0.02336 0.0
C177 C 0.51241 0.5171 0.03916 0.0
C178 C 0.46714 0.3853 0.02293 0.0
C179 C 0.43472 0.35893 0.03912 0.0
C180 C 0.48898 0.46247 0.04008 0.0
C181 C 0.43291 0.38563 0.05629 0.0
C182 C 0.52229 0.54653 0.0569 0.0
C183 C 0.54654 0.58921 0.01796 0.0
N184 N 0.45934 0.43631 0.05624 0.0
N185 N 0.5244 0.53936 0.02035 0.0
H186 H 0.05328 0.4293 0.40915 0.0
H187 H 0.88873 0.51549 0.34905 0.0
H188 H 0.06224 0.45805 0.34363 0.0
H189 H 0.94897 0.58413 0.40801 0.0
H190 H 0.93461 0.47125 0.35137 0.0
H191 H 0.00234 0.46957 0.41288 0.0
C192 C 0.04514 0.4445 0.39565 0.0
C193 C 0.06161 0.43981 0.376 0.0
C194 C 0.9374 0.49563 0.36391 0.0
C195 C 0.0029 0.48401 0.38015 0.0
C196 C 0.9111 0.52075 0.36265 0.0
C197 C 0.91595 0.55438 0.37815 0.0
C198 C 0.96877 0.50394 0.38078 0.0
C199 C 0.94469 0.55885 0.39564 0.0
C200 C 0.01607 0.46718 0.39781 0.0
C201 C 0.05006 0.4602 0.35905 0.0
N202 N 0.97079 0.53428 0.39641 0.0
N203 N 0.02093 0.48071 0.36149 0.0
H204 H 0.38781 0.92658 0.68592 0.0
H205 H 0.62678 0.04161 0.74883 0.0
H206 H 0.36233 0.94556 0.74998 0.0
H207 H 0.60921 0.11869 0.69699 0.0
H208 H 0.53549 -0.00681 0.75235 0.0
H209 H 0.47667 0.97879 0.69152 0.0
C210 C 0.4008 0.94106 0.70127 0.0
C211 C 0.3674 0.93233 0.71743 0.0
C212 C 0.55209 0.02182 0.74066 0.0
C213 C 0.46928 0.99197 0.72381 0.0
C214 C 0.60394 0.04953 0.73866 0.0
C215 C 0.62541 0.08338 0.72228 0.0
C216 C 0.52244 0.02807 0.72604 0.0
C217 C 0.59419 0.09219 0.70953 0.0
C218 C 0.4515 0.97103 0.70438 0.0
C219 C 0.38684 0.95178 0.73706 0.0
N220 N 0.54423 0.06378 0.71134 0.0
N221 N 0.43691 0.98117 0.73975 0.0
H222 H 0.60697 0.47395 0.61869 0.0
H223 H 0.36003 0.37701 0.59179 0.0
H224 H 0.62781 0.61363 0.59606 0.0
H225 H 0.39481 0.51093 0.62508 0.0
H226 H 0.44829 0.41425 0.58235 0.0
H227 H 0.51889 0.43406 0.60908 0.0
C228 C 0.59325 0.4957 0.61102 0.0
C229 C 0.62428 0.54692 0.6081 0.0
C230 C 0.43606 0.43581 0.59118 0.0
C231 C 0.52411 0.50231 0.59778 0.0
C232 C 0.38595 0.41487 0.59648 0.0
C233 C 0.37066 0.44092 0.60943 0.0
C234 C 0.47033 0.48334 0.59855 0.0
C235 C 0.40551 0.4896 0.61527 0.0
C236 C 0.54322 0.47301 0.60548 0.0
C237 C 0.60488 0.57389 0.59838 0.0
N238 N 0.45398 0.50923 0.60988 0.0
N239 N 0.55542 0.5516 0.59424 0.0
H240 H 0.96962 0.35722 0.93125 0.0
H241 H 0.11885 0.60471 0.95854 0.0
H242 H 0.87111 0.38789 0.96719 0.0
H243 H -0.00357 0.62279 0.93867 0.0
H244 H 0.07059 0.51617 0.94946 0.0
H245 H 0.01889 0.44612 0.92254 0.0
C246 C 0.95748 0.38242 0.93671 0.0
C247 C 0.91683 0.36576 0.95015 0.0
C248 C 0.05507 0.53996 0.94638 0.0
C249 C 0.97204 0.4661 0.9401 0.0
C250 C 0.08241 0.59017 0.95162 0.0
C251 C 0.06138 0.62053 0.94918 0.0
C252 C 0.00588 0.52005 0.93948 0.0
C253 C 0.0138 0.60025 0.94053 0.0
C254 C 0.98563 0.43286 0.93183 0.0
C255 C 0.90266 0.39967 0.95699 0.0
N256 N 0.9868 0.55065 0.93661 0.0
N257 N 0.93049 0.4485 0.95197 0.0
H258 H 0.37391 0.01803 0.26149 0.0
H259 H 0.47633 0.87322 0.28933 0.0
H260 H 0.50722 0.12042 0.29432 0.0
H261 H 0.6137 0.99258 0.26518 0.0
H262 H 0.43468 0.91996 0.28006 0.0
H263 H 0.41277 0.96821 0.25247 0.0
C264 C 0.41196 0.03091 0.26614 0.0
C265 C 0.43744 0.07285 0.27884 0.0
C266 C 0.4735 0.93503 0.2761 0.0
C267 C 0.48166 0.01702 0.26844 0.0
C268 C 0.49719 0.90857 0.28146 0.0
C269 C 0.5482 0.92928 0.2779 0.0
C270 C 0.50168 0.98311 0.26792 0.0
C271 C 0.57411 0.97544 0.26797 0.0
C272 C 0.43383 0.00245 0.26108 0.0
C273 C 0.48638 0.08793 0.28468 0.0
N274 N 0.55089 0.00177 0.26395 0.0
N275 N 0.50692 0.05977 0.27952 0.0
H276 H 0.31647 0.18582 0.22479 0.0
H277 H 0.23722 0.06034 0.11287 0.0
H278 H 0.24816 0.02785 0.21387 0.0
H279 H 0.32162 0.21906 0.12282 0.0
H280 H 0.23339 0.04767 0.15014 0.0
H281 H 0.31082 0.19847 0.18788 0.0
C282 C 0.29988 0.15373 0.21468 0.0
C283 C 0.28304 0.1057 0.22246 0.0
C284 C 0.25259 0.08529 0.14419 0.0
C285 C 0.27664 0.11999 0.18013 0.0
C286 C 0.25475 0.09258 0.12288 0.0
C287 C 0.28003 0.14086 0.11465 0.0
C288 C 0.27578 0.12655 0.15745 0.0
C289 C 0.30193 0.18116 0.12844 0.0
C290 C 0.29682 0.16102 0.19358 0.0
C291 C 0.26188 0.06557 0.20858 0.0
N292 N 0.29943 0.1731 0.14913 0.0
N293 N 0.25948 0.07364 0.18812 0.0
H294 H 0.18035 0.24915 0.44335 0.0
H295 H 0.13236 0.31618 0.5573 0.0
H296 H 0.10013 0.3265 0.45611 0.0
H297 H 0.2285 0.25646 0.54391 0.0
H298 H 0.1123 0.31145 0.52062 0.0
H299 H 0.19075 0.24317 0.4804 0.0
C300 C 0.16467 0.26465 0.45393 0.0
C301 C 0.13958 0.28865 0.44657 0.0
C302 C 0.13756 0.29911 0.52572 0.0
C303 C 0.15139 0.2819 0.48907 0.0
C304 C 0.14893 0.30164 0.54669 0.0
C305 C 0.18246 0.287 0.55371 0.0
C306 C 0.15975 0.28169 0.51163 0.0
C307 C 0.20268 0.26842 0.53921 0.0
C308 C 0.17069 0.26127 0.4751 0.0
C309 C 0.11998 0.30791 0.46105 0.0
N310 N 0.1912 0.26652 0.51887 0.0
N311 N 0.12643 0.30426 0.48159 0.0
H312 H 0.7262 0.01409 0.7966 0.0
H313 H 0.88925 0.19775 0.8877 0.0
H314 H 0.85312 0.16013 0.78656 0.0
H315 H 0.76084 0.05284 0.898 0.0
H316 H 0.88037 0.18185 0.85065 0.0
H317 H 0.7421 0.02485 0.83368 0.0
C318 C 0.75765 0.0483 0.80216 0.0
C319 C 0.78818 0.0864 0.78841 0.0
C320 C 0.85428 0.15338 0.861 0.0
C321 C 0.80647 0.09903 0.83094 0.0
C322 C 0.85933 0.16241 0.8822 0.0
C323 C 0.82553 0.1267 0.89604 0.0
C324 C 0.81503 0.10832 0.85348 0.0
C325 C 0.78766 0.08154 0.88794 0.0
C326 C 0.76666 0.05443 0.82336 0.0
C327 C 0.82845 0.12983 0.79656 0.0
N328 N 0.78327 0.07378 0.86721 0.0
N329 N 0.83623 0.13506 0.81727 0.0
H330 H 0.6241 0.74968 0.11707 0.0
H331 H 0.72892 0.90392 0.22208 0.0
H332 H 0.75122 0.89815 0.11929 0.0
H333 H 0.59332 0.76215 0.21771 0.0
H334 H 0.74233 0.89987 0.18505 0.0
H335 H 0.61684 0.75122 0.15444 0.0
C336 C 0.65063 0.78263 0.1254 0.0
C337 C 0.68821 0.82398 0.11495 0.0
C338 C 0.70979 0.86956 0.19224 0.0
C339 C 0.68002 0.82595 0.15795 0.0
C340 C 0.70218 0.87176 0.21339 0.0
C341 C 0.65977 0.83341 0.22302 0.0
C342 C 0.67486 0.82865 0.18064 0.0
C343 C 0.6264 0.79271 0.21096 0.0
C344 C 0.64642 0.78347 0.1468 0.0
C345 C 0.72156 0.8655 0.12667 0.0
N346 N 0.63458 0.79149 0.19044 0.0
N347 N 0.7166 0.86548 0.14753 0.0
H348 H 0.86071 0.68138 0.55958 0.0
H349 H 0.81075 0.75372 0.44698 0.0
H350 H 0.76576 0.74326 0.54784 0.0
H351 H 0.89064 0.67522 0.45779 0.0
H352 H 0.80165 0.75846 0.48421 0.0
H353 H 0.88009 0.68754 0.52275 0.0
C354 C 0.84432 0.69673 0.54931 0.0
C355 C 0.81127 0.71152 0.55683 0.0
C356 C 0.82137 0.74038 0.47845 0.0
C357 C 0.83316 0.71844 0.5146 0.0
C358 C 0.82665 0.73771 0.45717 0.0
C359 C 0.85125 0.71376 0.4492 0.0
C360 C 0.8409 0.71906 0.49194 0.0
C361 C 0.87115 0.69382 0.46321 0.0
C362 C 0.85527 0.70006 0.52826 0.0
C363 C 0.7912 0.73112 0.54276 0.0
N364 N 0.86539 0.69676 0.48387 0.0
N365 N 0.80226 0.73379 0.52234 0.0
H366 H 0.18098 0.85923 0.89604 0.0
H367 H 0.0585 0.81515 0.78362 0.0
H368 H 0.02343 0.76896 0.8844 0.0
H369 H 0.21684 0.89662 0.79463 0.0
H370 H 0.04455 0.80423 0.8208 0.0
H371 H 0.19434 0.87981 0.85934 0.0
C372 C 0.14913 0.84404 0.88581 0.0
C373 C 0.10102 0.81204 0.89333 0.0
C374 C 0.08235 0.82471 0.8151 0.0
C375 C 0.11611 0.83532 0.85122 0.0
C376 C 0.09036 0.83103 0.79384 0.0
C377 C 0.13894 0.85661 0.78594 0.0
C378 C 0.1232 0.84411 0.82862 0.0
C379 C 0.17874 0.87643 0.79999 0.0
C380 C 0.15681 0.85572 0.86483 0.0
C381 C 0.06121 0.79356 0.87931 0.0
N382 N 0.16999 0.86958 0.82061 0.0
N383 N 0.06967 0.80527 0.85896 0.0
H384 H 0.24465 0.83661 0.02649 0.0
H385 H 0.40285 0.12046 0.99716 0.0
H386 H 0.27416 0.89605 0.96464 0.0
H387 H 0.32726 0.06388 0.05518 0.0
H388 H 0.38955 0.03806 0.98889 0.0
H389 H 0.30777 0.91773 0.0395 0.0
C390 C 0.26547 0.86619 0.01553 0.0
C391 C 0.25284 0.8601 0.99449 0.0
C392 C 0.37715 0.04404 0.00369 0.0
C393 C 0.32502 0.95267 0.00937 0.0
C394 C 0.38462 0.09103 0.00843 0.0
C395 C 0.36438 0.09848 0.02655 0.0
C396 C 0.34907 0.00431 0.0171 0.0
C397 C 0.34239 0.05942 0.04082 0.0
C398 C 0.30145 0.91251 0.02303 0.0
C399 C 0.28171 0.89951 0.98104 0.0
N400 N 0.33413 0.01351 0.03554 0.0
N401 N 0.31578 0.94453 0.98877 0.0
H402 H 0.26106 0.34436 0.38738 0.0
H403 H 0.36598 0.2801 0.29287 0.0
H404 H 0.27402 0.41202 0.32786 0.0
H405 H 0.39832 0.25493 0.35499 0.0
H406 H 0.34924 0.34395 0.30589 0.0
H407 H 0.3273 0.32779 0.37762 0.0
C408 C 0.2788 0.35708 0.3725 0.0
C409 C 0.26069 0.37787 0.35812 0.0
C410 C 0.36127 0.32543 0.31664 0.0
C411 C 0.3357 0.35815 0.34669 0.0
C412 C 0.37079 0.28886 0.30918 0.0
C413 C 0.38196 0.26101 0.32293 0.0
C414 C 0.36173 0.3332 0.33803 0.0
C415 C 0.38861 0.27465 0.34386 0.0
C416 C 0.31666 0.34755 0.36689 0.0
C417 C 0.2857 0.39436 0.33919 0.0
N418 N 0.37694 0.30876 0.35087 0.0
N419 N 0.32095 0.38286 0.33379 0.0
H420 H 0.92112 0.25856 0.72037 0.0
H421 H 0.08916 0.36399 0.62403 0.0
H422 H 0.86391 0.26113 0.65998 0.0
H423 H 0.14709 0.39918 0.68606 0.0
H424 H 0.00715 0.34191 0.63722 0.0
H425 H 0.0033 0.32406 0.70937 0.0
C426 C 0.92554 0.27363 0.70496 0.0
C427 C 0.88595 0.25322 0.69088 0.0
C428 C 0.03801 0.35565 0.64792 0.0
C429 C 0.9799 0.32764 0.67809 0.0
C430 C 0.08493 0.36833 0.64036 0.0
C431 C 0.12468 0.38196 0.65403 0.0
C432 C 0.03069 0.35556 0.66933 0.0
C433 C 0.11723 0.38777 0.67499 0.0
C434 C 0.97251 0.31113 0.69867 0.0
C435 C 0.89369 0.27478 0.6712 0.0
N436 N 0.07078 0.37315 0.68209 0.0
N437 N 0.94 0.30997 0.66524 0.0
H438 H 0.57822 0.85741 0.99103 0.0
H439 H 0.7289 0.14131 0.02182 0.0
H440 H 0.64298 0.91358 0.05091 0.0
H441 H 0.71102 0.08335 0.9599 0.0
H442 H 0.66482 0.05941 0.03362 0.0
H443 H 0.59302 0.93987 0.98186 0.0
C444 C 0.59425 0.8867 1.0025 0.0
C445 C 0.6112 0.87912 0.0215 0.0
C446 C 0.67396 0.06507 0.01736 0.0
C447 C 0.62818 0.97337 0.011 0.0
C448 C 0.71053 0.11183 0.01055 0.0
C449 C 0.72663 0.11872 0.98993 0.0
C450 C 0.65328 0.02517 0.00344 0.0
C451 C 0.70076 0.07936 0.97604 0.0
C452 C 0.60265 0.93376 0.99721 0.0
C453 C 0.63048 0.91808 0.0359 0.0
N454 N 0.66602 0.0339 0.98313 0.0
N455 N 0.63964 0.96401 0.03016 0.0
H456 H 0.62455 0.72536 0.29292 0.0
H457 H 0.73027 0.6662 0.38838 0.0
H458 H 0.58986 0.75144 0.35454 0.0
H459 H 0.71449 0.59287 0.32996 0.0
H460 H 0.6645 0.68309 0.3781 0.0
H461 H 0.64224 0.66274 0.30666 0.0
C462 C 0.61942 0.71703 0.30926 0.0
C463 C 0.60728 0.74479 0.32267 0.0
C464 C 0.67443 0.66204 0.36775 0.0
C465 C 0.62856 0.67407 0.33859 0.0
C466 C 0.712 0.65234 0.37365 0.0
C467 C 0.72912 0.62973 0.3597 0.0
C468 C 0.65469 0.64974 0.34768 0.0
C469 C 0.70357 0.61192 0.34095 0.0
C470 C 0.62948 0.68119 0.31713 0.0
C471 C 0.60031 0.73178 0.34366 0.0
N472 N 0.6686 0.62354 0.33523 0.0
N473 N 0.6125 0.6984 0.35108 0.0
H474 H 0.12761 0.72206 0.66694 0.0
H475 H 0.84012 0.60149 0.69133 0.0
H476 H 0.06791 0.73945 0.72449 0.0
H477 H 0.90486 0.63452 0.63039 0.0
H478 H 0.9206 0.62074 0.70558 0.0
H479 H 0.04416 0.65855 0.65653 0.0
C480 C 0.0972 0.7116 0.67766 0.0
C481 C 0.10447 0.73736 0.69634 0.0
C482 C 0.91677 0.62252 0.68904 0.0
C483 C 0.00904 0.66481 0.68441 0.0
C484 C 0.87085 0.61148 0.68085 0.0
C485 C 0.86613 0.61778 0.65966 0.0
C486 C 0.95803 0.63955 0.67595 0.0
C487 C 0.90711 0.63025 0.64686 0.0
C488 C 0.04957 0.67537 0.67165 0.0
C489 C 0.06385 0.72135 0.70976 0.0
N490 N 0.95162 0.64154 0.65525 0.0
N491 N 0.01755 0.68681 0.70333 0.0
H492 H 0.98385 0.1695 0.96252 0.0
H493 H 0.17436 0.19396 0.05131 0.0
H494 H 0.98257 0.22211 0.02407 0.0
H495 H 0.1904 0.16754 0.98713 0.0
H496 H 0.09619 0.1915 0.04294 0.0
H497 H 0.05223 0.15638 0.97263 0.0
C498 C -0.00228 0.17805 0.97819 0.0
C499 C 0.9777 0.19739 0.9924 0.0
C500 C 0.11668 0.18582 0.03074 0.0
C501 C 0.05595 0.18235 0.00409 0.0
C502 C 0.16114 0.18697 0.03553 0.0
C503 C 0.18922 0.18147 0.01987 0.0
C504 C 0.10012 0.17882 0.01018 0.0
C505 C 0.17029 0.17253 0.99968 0.0
C506 C 0.03681 0.17057 0.98395 0.0
C507 C -0.00289 0.20755 0.01253 0.0
N508 N 0.12713 0.17177 0.99541 0.0
N509 N 0.03527 0.2001 0.01774 0.0
H510 H 0.81178 0.001 0.29307 0.0
H511 H 0.97729 0.18644 0.38339 0.0
H512 H 0.75629 -0.00069 0.35432 0.0
H513 H 0.02035 0.20675 0.31926 0.0
H514 H 0.90141 0.1091 0.37428 0.0
H515 H 0.89344 0.06848 0.30371 0.0
C516 C 0.81678 0.01463 0.30878 0.0
C517 C 0.77696 -0.00525 0.32276 0.0
C518 C 0.92775 0.13032 0.36226 0.0
C519 C 0.8704 0.07181 0.33505 0.0
C520 C 0.97118 0.17429 0.36746 0.0
C521 C 0.00494 0.20336 0.35204 0.0
C522 C 0.91827 0.11524 0.34151 0.0
C523 C -0.00492 0.18582 0.33163 0.0
C524 C 0.86341 0.05317 0.31483 0.0
C525 C 0.78575 0.0138 0.34295 0.0
N526 N 0.95255 0.14309 0.32695 0.0
N527 N 0.83147 0.05135 0.34847 0.0
H528 H 0.68549 0.73396 0.66606 0.0
H529 H 0.84156 0.01211 0.70197 0.0
H530 H 0.83985 0.81797 0.64822 0.0
H531 H 0.7001 0.95832 0.67165 0.0
H532 H 0.84134 0.9357 0.69109 0.0
H533 H 0.68954 0.81138 0.67723 0.0
C534 C 0.72027 0.76873 0.6646 0.0
C535 C 0.76235 0.76984 0.65612 0.0
C536 C 0.81052 0.94097 0.6869 0.0
C537 C 0.76742 0.85775 0.66933 0.0
C538 C 0.81045 0.9841 0.69317 0.0
C539 C 0.77085 0.9913 0.68761 0.0
C540 C 0.76996 0.90452 0.67568 0.0
C541 C 0.73145 0.95419 0.67612 0.0
C542 C 0.72247 0.81267 0.67091 0.0
C543 C 0.80653 0.81581 0.65451 0.0
N544 N 0.73169 0.91208 0.67073 0.0
N545 N 0.80815 0.85814 0.66128 0.0
H546 H 0.80726 0.79395 0.05119 0.0
H547 H 0.00269 0.82263 0.96401 0.0
H548 H 0.79811 0.82918 0.98754 0.0
H549 H -0.00248 0.76346 0.02479 0.0
H550 H 0.93612 0.83866 0.97407 0.0
H551 H 0.88613 0.79724 0.04354 0.0
C552 C 0.82224 0.80325 0.03572 0.0
C553 C 0.79575 0.81065 0.01992 0.0
C554 C 0.94979 0.82245 0.98524 0.0
C555 C 0.88555 0.81407 0.01103 0.0
C556 C 0.9878 0.81327 0.9795 0.0
C557 C 0.00538 0.79114 0.99349 0.0
C558 C 0.92926 0.80955 0.00513 0.0
C559 C 0.9848 0.78008 0.01341 0.0
C560 C 0.86708 0.80481 0.03132 0.0
C561 C 0.81693 0.82255 1.00013 0.0
N562 N 0.94768 0.78916 0.01859 0.0
N563 N 0.86031 0.82346 0.99622 0.0
H564 H 0.01293 0.81683 0.38471 0.0
H565 H 0.17573 0.00113 0.29364 0.0
H566 H 0.9709 0.79234 0.32047 0.0
H567 H 0.23141 0.00768 0.35526 0.0
H568 H 0.09507 0.93206 0.30438 0.0
H569 H 0.08775 0.89487 0.3753 0.0
C570 C 0.01909 0.82813 0.36868 0.0
C571 C 0.98588 0.79777 0.35334 0.0
C572 C 0.12491 0.94881 0.31556 0.0
C573 C 0.07125 0.88675 0.34248 0.0
C574 C 0.17095 0.98829 0.30945 0.0
C575 C 0.21057 0.00997 0.32351 0.0
C576 C 0.11832 0.93106 0.33591 0.0
C577 C 0.2021 0.99182 0.34383 0.0
C578 C 0.06189 0.87252 0.36331 0.0
C579 C -0.00425 0.81427 0.3328 0.0
N580 N 0.15699 0.95335 0.3494 0.0
N581 N 0.03761 0.85747 0.32797 0.0
H582 H 0.19941 0.0209 0.71999 0.0
H583 H 0.18169 0.17956 0.62629 0.0
H584 H 0.18275 0.97512 0.65622 0.0
H585 H 0.23107 0.23881 0.68749 0.0
H586 H 0.16896 0.0992 0.6381 0.0
H587 H 0.19732 0.09561 0.7094 0.0
C588 C 0.19465 0.0262 0.70382 0.0
C589 C 0.19176 0.99199 0.68895 0.0
C590 C 0.18239 0.12978 0.64895 0.0
C591 C 0.18952 0.07725 0.67675 0.0
C592 C 0.18963 0.17565 0.64222 0.0
C593 C 0.20791 0.21615 0.65586 0.0
C594 C 0.1932 0.12424 0.6695 0.0
C595 C 0.21738 0.20879 0.67637 0.0
C596 C 0.19373 0.06895 0.69777 0.0
C597 C 0.18566 0.00077 0.6682 0.0
N598 N 0.21003 0.1638 0.68254 0.0
N599 N 0.18499 0.04261 0.66271 0.0
loop_
_geom_bond_atom_site_label_1
_geom_bond_atom_site_label_2
_geom_bond_distance
_geom_bond_site_symmetry_2
_ccdc_geom_bond_type
Zn0 O3 2.031 . S
Zn0 O5 2.049 . S
Zn0 O10 2.067 . S
Zn1 O2 1.962 . S
Zn1 O4 1.986 . S
Zn1 O6 1.996 . S
Zn1 O9 1.943 . S
O2 Zn1 1.962 . S
O2 C7 1.254 . S
O3 Zn0 2.031 . S
O3 C7 1.269 . S
O4 Zn1 1.986 . S
O4 C11 1.262 . S
O5 Zn0 2.049 . S
O5 C13 1.260 . S
O6 Zn1 1.996 . S
O6 C13 1.257 . S
C7 O2 1.254 . S
C7 O3 1.269 . S
C8 O9 1.249 . S
C8 O10 1.270 . S
O9 Zn1 1.943 . S
O9 C8 1.249 . S
O10 Zn0 2.067 . S
O10 C8 1.270 . S
C11 O4 1.262 . S
C11 O12 1.232 . S
O12 C11 1.232 . S
C13 O5 1.260 . S
C13 O6 1.257 . S
Zn14 O17 2.031 . S
Zn14 O19 2.049 . S
Zn14 O24 2.067 . S
Zn15 O16 1.962 . S
Zn15 O18 1.986 . S
Zn15 O20 1.996 . S
Zn15 O23 1.943 . S
O16 Zn15 1.962 . S
O16 C21 1.254 . S
O17 Zn14 2.031 . S
O17 C21 1.269 . S
O18 Zn15 1.986 . S
O18 C25 1.262 . S
O19 Zn14 2.049 . S
O19 C27 1.260 . S
O20 Zn15 1.996 . S
O20 C27 1.257 . S
C21 O16 1.254 . S
C21 O17 1.269 . S
C22 O23 1.249 . S
C22 O24 1.270 . S
O23 Zn15 1.943 . S
O23 C22 1.249 . S
O24 Zn14 2.067 . S
O24 C22 1.270 . S
C25 O18 1.262 . S
C25 O26 1.232 . S
O26 C25 1.232 . S
C27 O19 1.260 . S
C27 O20 1.257 . S
Zn28 O31 2.031 . S
Zn28 O33 2.049 . S
Zn28 O38 2.067 . S
Zn29 O30 1.962 . S
Zn29 O32 1.986 . S
Zn29 O34 1.996 . S
Zn29 O37 1.943 . S
O30 Zn29 1.962 . S
O30 C35 1.254 . S
O31 Zn28 2.031 . S
O31 C35 1.269 . S
O32 Zn29 1.986 . S
O32 C39 1.262 . S
O33 Zn28 2.049 . S
O33 C41 1.260 . S
O34 Zn29 1.996 . S
O34 C41 1.257 . S
C35 O30 1.254 . S
C35 O31 1.269 . S
C36 O37 1.249 . S
C36 O38 1.270 . S
O37 Zn29 1.943 . S
O37 C36 1.249 . S
O38 Zn28 2.067 . S
O38 C36 1.270 . S
C39 O32 1.262 . S
C39 O40 1.232 . S
O40 C39 1.232 . S
C41 O33 1.260 . S
C41 O34 1.257 . S
Zn42 O45 2.031 . S
Zn42 O47 2.049 . S
Zn42 O52 2.067 . S
Zn43 O44 1.962 . S
Zn43 O46 1.986 . S
Zn43 O48 1.996 . S
Zn43 O51 1.943 . S
O44 Zn43 1.962 . S
O44 C49 1.254 . S
O45 Zn42 2.031 . S
O45 C49 1.269 . S
O46 Zn43 1.986 . S
O46 C53 1.262 . S
O47 Zn42 2.049 . S
O47 C55 1.260 . S
O48 Zn43 1.996 . S
O48 C55 1.257 . S
C49 O44 1.254 . S
C49 O45 1.269 . S
C50 O51 1.249 . S
C50 O52 1.270 . S
O51 Zn43 1.943 . S
O51 C50 1.249 . S
O52 Zn42 2.067 . S
O52 C50 1.270 . S
C53 O46 1.262 . S
C53 O54 1.232 . S
O54 C53 1.232 . S
C55 O47 1.260 . S
C55 O48 1.257 . S
Zn56 O59 2.031 . S
Zn56 O61 2.049 . S
Zn56 O66 2.067 . S
Zn57 O58 1.962 . S
Zn57 O60 1.986 . S
Zn57 O62 1.996 . S
Zn57 O65 1.943 . S
O58 Zn57 1.962 . S
O58 C63 1.254 . S
O59 Zn56 2.031 . S
O59 C63 1.269 . S
O60 Zn57 1.986 . S
O60 C67 1.262 . S
O61 Zn56 2.049 . S
O61 C69 1.260 . S
O62 Zn57 1.996 . S
O62 C69 1.257 . S
C63 O58 1.254 . S
C63 O59 1.269 . S
C64 O65 1.249 . S
C64 O66 1.270 . S
O65 Zn57 1.943 . S
O65 C64 1.249 . S
O66 Zn56 2.067 . S
O66 C64 1.270 . S
C67 O60 1.262 . S
C67 O68 1.232 . S
O68 C67 1.232 . S
C69 O61 1.260 . S
C69 O62 1.257 . S
Zn70 O73 2.031 . S
Zn70 O75 2.049 . S
Zn70 O80 2.067 . S
Zn71 O72 1.962 . S
Zn71 O74 1.986 . S
Zn71 O76 1.996 . S
Zn71 O79 1.943 . S
O72 Zn71 1.962 . S
O72 C77 1.254 . S
O73 Zn70 2.031 . S
O73 C77 1.269 . S
O74 Zn71 1.986 . S
O74 C81 1.262 . S
O75 Zn70 2.049 . S
O75 C83 1.260 . S
O76 Zn71 1.996 . S
O76 C83 1.257 . S
C77 O72 1.254 . S
C77 O73 1.269 . S
C78 O79 1.249 . S
C78 O80 1.270 . S
O79 Zn71 1.943 . S
O79 C78 1.249 . S
O80 Zn70 2.067 . S
O80 C78 1.270 . S
C81 O74 1.262 . S
C81 O82 1.232 . S
O82 C81 1.232 . S
C83 O75 1.260 . S
C83 O76 1.257 . S
Zn84 O87 2.031 . S
Zn84 O89 2.049 . S
Zn84 O94 2.067 . S
Zn85 O86 1.962 . S
Zn85 O88 1.986 . S
Zn85 O90 1.996 . S
Zn85 O93 1.943 . S
O86 Zn85 1.962 . S
O86 C91 1.254 . S
O87 Zn84 2.031 . S
O87 C91 1.269 . S
O88 Zn85 1.986 . S
O88 C95 1.262 . S
O89 Zn84 2.049 . S
O89 C97 1.260 . S
O90 Zn85 1.996 . S
O90 C97 1.257 . S
C91 O86 1.254 . S
C91 O87 1.269 . S
C92 O93 1.249 . S
C92 O94 1.270 . S
O93 Zn85 1.943 . S
O93 C92 1.249 . S
O94 Zn84 2.067 . S
O94 C92 1.270 . S
C95 O88 1.262 . S
C95 O96 1.232 . S
O96 C95 1.232 . S
C97 O89 1.260 . S
C97 O90 1.257 . S
Zn98 O101 2.031 . S
Zn98 O103 2.049 . S
Zn98 O108 2.067 . S
Zn99 O100 1.962 . S
Zn99 O102 1.986 . S
Zn99 O104 1.996 . S
Zn99 O107 1.943 . S
O100 Zn99 1.962 . S
O100 C105 1.254 . S
O101 Zn98 2.031 . S
O101 C105 1.269 . S
O102 Zn99 1.986 . S
O102 C109 1.262 . S
O103 Zn98 2.049 . S
O103 C111 1.260 . S
O104 Zn99 1.996 . S
O104 C111 1.257 . S
C105 O100 1.254 . S
C105 O101 1.269 . S
C106 O107 1.249 . S
C106 O108 1.270 . S
O107 Zn99 1.943 . S
O107 C106 1.249 . S
O108 Zn98 2.067 . S
O108 C106 1.270 . S
C109 O102 1.262 . S
C109 O110 1.232 . S
O110 C109 1.232 . S
C111 O103 1.260 . S
C111 O104 1.257 . S
Zn112 O115 2.031 . S
Zn112 O117 2.049 . S
Zn112 O122 2.067 . S
Zn113 O114 1.962 . S
Zn113 O116 1.986 . S
Zn113 O118 1.996 . S
Zn113 O121 1.943 . S
O114 Zn113 1.962 . S
O114 C119 1.254 . S
O115 Zn112 2.031 . S
O115 C119 1.269 . S
O116 Zn113 1.986 . S
O116 C123 1.262 . S
O117 Zn112 2.049 . S
O117 C125 1.260 . S
O118 Zn113 1.996 . S
O118 C125 1.257 . S
C119 O114 1.254 . S
C119 O115 1.269 . S
C120 O121 1.249 . S
C120 O122 1.270 . S
O121 Zn113 1.943 . S
O121 C120 1.249 . S
O122 Zn112 2.067 . S
O122 C120 1.270 . S
C123 O116 1.262 . S
C123 O124 1.232 . S
O124 C123 1.232 . S
C125 O117 1.260 . S
C125 O118 1.257 . S
Zn126 O129 2.031 . S
Zn126 O131 2.049 . S
Zn126 O136 2.067 . S
Zn127 O128 1.962 . S
Zn127 O130 1.986 . S
Zn127 O132 1.996 . S
Zn127 O135 1.943 . S
O128 Zn127 1.962 . S
O128 C133 1.254 . S
O129 Zn126 2.031 . S
O129 C133 1.269 . S
O130 Zn127 1.986 . S
O130 C137 1.262 . S
O131 Zn126 2.049 . S
O131 C139 1.260 . S
O132 Zn127 1.996 . S
O132 C139 1.257 . S
C133 O128 1.254 . S
C133 O129 1.269 . S
C134 O135 1.249 . S
C134 O136 1.270 . S
O135 Zn127 1.943 . S
O135 C134 1.249 . S
O136 Zn126 2.067 . S
O136 C134 1.270 . S
C137 O130 1.262 . S
C137 O138 1.232 . S
O138 C137 1.232 . S
C139 O131 1.260 . S
C139 O132 1.257 . S
Zn140 O143 2.031 . S
Zn140 O145 2.049 . S
Zn140 O150 2.067 . S
Zn141 O142 1.962 . S
Zn141 O144 1.986 . S
Zn141 O146 1.996 . S
Zn141 O149 1.943 . S
O142 Zn141 1.962 . S
O142 C147 1.254 . S
O143 Zn140 2.031 . S
O143 C147 1.269 . S
O144 Zn141 1.986 . S
O144 C151 1.262 . S
O145 Zn140 2.049 . S
O145 C153 1.260 . S
O146 Zn141 1.996 . S
O146 C153 1.257 . S
C147 O142 1.254 . S
C147 O143 1.269 . S
C148 O149 1.249 . S
C148 O150 1.270 . S
O149 Zn141 1.943 . S
O149 C148 1.249 . S
O150 Zn140 2.067 . S
O150 C148 1.270 . S
C151 O144 1.262 . S
C151 O152 1.232 . S
O152 C151 1.232 . S
C153 O145 1.260 . S
C153 O146 1.257 . S
Zn154 O157 2.031 . S
Zn154 O159 2.049 . S
Zn154 O164 2.067 . S
Zn155 O156 1.962 . S
Zn155 O158 1.986 . S
Zn155 O160 1.996 . S
Zn155 O163 1.943 . S
O156 Zn155 1.962 . S
O156 C161 1.254 . S
O157 Zn154 2.031 . S
O157 C161 1.269 . S
O158 Zn155 1.986 . S
O158 C165 1.262 . S
O159 Zn154 2.049 . S
O159 C167 1.260 . S
O160 Zn155 1.996 . S
O160 C167 1.257 . S
C161 O156 1.254 . S
C161 O157 1.269 . S
C162 O163 1.249 . S
C162 O164 1.270 . S
O163 Zn155 1.943 . S
O163 C162 1.249 . S
O164 Zn154 2.067 . S
O164 C162 1.270 . S
C165 O158 1.262 . S
C165 O166 1.232 . S
O166 C165 1.232 . S
C167 O159 1.260 . S
C167 O160 1.257 . S
H168 C174 0.930 . S
H169 C178 0.930 . S
H170 C183 0.929 . S
H171 C181 0.929 . S
H172 C176 0.929 . S
H173 C182 0.929 . S
C174 H168 0.930 . S
C174 C175 1.367 . S
C174 C182 1.378 . S
C175 C174 1.367 . S
C175 C183 1.433 . S
C176 H172 0.929 . S
C176 C178 1.378 . S
C176 C180 1.350 . S
C177 C180 1.463 . S
C177 C182 1.350 . S
C177 N185 1.427 . S
C178 H169 0.930 . S
C178 C176 1.378 . S
C178 C179 1.367 . S
C179 C178 1.367 . S
C179 C181 1.433 . S
C180 C176 1.350 . S
C180 C177 1.463 . S
C180 N184 1.427 . S
C181 H171 0.929 . S
C181 C179 1.433 . S
C181 N184 1.384 . S
C182 H173 0.929 . S
C182 C174 1.378 . S
C182 C177 1.350 . S
C183 H170 0.929 . S
C183 C175 1.433 . S
C183 N185 1.384 . S
N184 C180 1.427 . S
N184 C181 1.384 . S
N185 C177 1.427 . S
N185 C183 1.384 . S
H186 C192 0.930 . S
H187 C196 0.930 . S
H188 C201 0.929 . S
H189 C199 0.929 . S
H190 C194 0.929 . S
H191 C200 0.929 . S
C192 H186 0.930 . S
C192 C193 1.367 . S
C192 C200 1.378 . S
C193 C192 1.367 . S
C193 C201 1.433 . S
C194 H190 0.929 . S
C194 C196 1.378 . S
C194 C198 1.350 . S
C195 C198 1.463 1_455 S
C195 C200 1.350 . S
C195 N203 1.427 . S
C196 H187 0.930 . S
C196 C194 1.378 . S
C196 C197 1.367 . S
C197 C196 1.367 . S
C197 C199 1.433 . S
C198 C194 1.350 . S
C198 C195 1.463 1_655 S
C198 N202 1.427 . S
C199 H189 0.929 . S
C199 C197 1.433 . S
C199 N202 1.384 . S
C200 H191 0.929 . S
C200 C192 1.378 . S
C200 C195 1.350 . S
C201 H188 0.929 . S
C201 C193 1.433 . S
C201 N203 1.384 . S
N202 C198 1.427 . S
N202 C199 1.384 . S
N203 C195 1.427 . S
N203 C201 1.384 . S
H204 C210 0.930 . S
H205 C214 0.930 . S
H206 C219 0.929 . S
H207 C217 0.929 . S
H208 C212 0.929 . S
H209 C218 0.929 . S
C210 H204 0.930 . S
C210 C211 1.367 . S
C210 C218 1.378 1_565 S
C211 C210 1.367 . S
C211 C219 1.433 . S
C212 H208 0.929 . S
C212 C214 1.378 1_565 S
C212 C216 1.350 1_565 S
C213 C216 1.463 1_565 S
C213 C218 1.350 1_565 S
C213 N221 1.427 . S
C214 H205 0.930 . S
C214 C212 1.378 1_545 S
C214 C215 1.367 . S
C215 C214 1.367 . S
C215 C217 1.433 . S
C216 C212 1.350 1_545 S
C216 C213 1.463 1_545 S
C216 N220 1.427 . S
C217 H207 0.929 . S
C217 C215 1.433 . S
C217 N220 1.384 . S
C218 H209 0.929 . S
C218 C210 1.378 1_545 S
C218 C213 1.350 1_545 S
C219 H206 0.929 . S
C219 C211 1.433 . S
C219 N221 1.384 . S
N220 C216 1.427 . S
N220 C217 1.384 . S
N221 C213 1.427 . S
N221 C219 1.384 . S
H222 C228 0.930 . S
H223 C232 0.930 . S
H224 C237 0.929 . S
H225 C235 0.929 . S
H226 C230 0.929 . S
H227 C236 0.929 . S
C228 H222 0.930 . S
C228 C229 1.367 . S
C228 C236 1.378 . S
C229 C228 1.367 . S
C229 C237 1.433 . S
C230 H226 0.929 . S
C230 C232 1.378 . S
C230 C234 1.350 . S
C231 C234 1.463 . S
C231 C236 1.350 . S
C231 N239 1.427 . S
C232 H223 0.930 . S
C232 C230 1.378 . S
C232 C233 1.367 . S
C233 C232 1.367 . S
C233 C235 1.433 . S
C234 C230 1.350 . S
C234 C231 1.463 . S
C234 N238 1.427 . S
C235 H225 0.929 . S
C235 C233 1.433 . S
C235 N238 1.384 . S
C236 H227 0.929 . S
C236 C228 1.378 . S
C236 C231 1.350 . S
C237 H224 0.929 . S
C237 C229 1.433 . S
C237 N239 1.384 . S
N238 C234 1.427 . S
N238 C235 1.384 . S
N239 C231 1.427 . S
N239 C237 1.384 . S
H240 C246 0.930 . S
H241 C250 0.930 . S
H242 C255 0.929 . S
H243 C253 0.929 . S
H244 C248 0.929 . S
H245 C254 0.929 . S
C246 H240 0.930 . S
C246 C247 1.367 . S
C246 C254 1.378 . S
C247 C246 1.367 . S
C247 C255 1.433 . S
C248 H244 0.929 . S
C248 C250 1.378 . S
C248 C252 1.350 . S
C249 C252 1.463 1_655 S
C249 C254 1.350 . S
C249 N257 1.427 1_655 S
C250 H241 0.930 . S
C250 C248 1.378 . S
C250 C251 1.367 . S
C251 C250 1.367 . S
C251 C253 1.433 . S
C252 C248 1.350 . S
C252 C249 1.463 1_455 S
C252 N256 1.427 1_455 S
C253 H243 0.929 . S
C253 C251 1.433 . S
C253 N256 1.384 1_455 S
C254 H245 0.929 . S
C254 C246 1.378 . S
C254 C249 1.350 . S
C255 H242 0.929 . S
C255 C247 1.433 . S
C255 N257 1.384 1_655 S
N256 C252 1.427 1_655 S
N256 C253 1.384 1_655 S
N257 C249 1.427 1_455 S
N257 C255 1.384 1_455 S
H258 C264 0.930 . S
H259 C268 0.930 . S
H260 C273 0.929 . S
H261 C271 0.929 . S
H262 C266 0.929 . S
H263 C272 0.929 . S
C264 H258 0.930 . S
C264 C265 1.367 . S
C264 C272 1.378 . S
C265 C264 1.367 . S
C265 C273 1.433 . S
C266 H262 0.929 . S
C266 C268 1.378 . S
C266 C270 1.350 . S
C267 C270 1.463 1_545 S
C267 C272 1.350 . S
C267 N275 1.427 . S
C268 H259 0.930 . S
C268 C266 1.378 . S
C268 C269 1.367 . S
C269 C268 1.367 . S
C269 C271 1.433 . S
C270 C266 1.350 . S
C270 C267 1.463 1_565 S
C270 N274 1.427 . S
C271 H261 0.929 . S
C271 C269 1.433 . S
C271 N274 1.384 . S
C272 H263 0.929 . S
C272 C264 1.378 . S
C272 C267 1.350 . S
C273 H260 0.929 . S
C273 C265 1.433 . S
C273 N275 1.384 . S
N274 C270 1.427 . S
N274 C271 1.384 . S
N275 C267 1.427 . S
N275 C273 1.384 . S
H276 C282 0.930 . S
H277 C286 0.930 . S
H278 C291 0.929 . S
H279 C289 0.929 . S
H280 C284 0.929 . S
H281 C290 0.929 . S
C282 H276 0.930 . S
C282 C283 1.367 . S
C282 C290 1.378 . S
C283 C282 1.367 . S
C283 C291 1.433 . S
C284 H280 0.929 . S
C284 C286 1.378 . S
C284 C288 1.350 . S
C285 C288 1.463 . S
C285 C290 1.350 . S
C285 N293 1.427 . S
C286 H277 0.930 . S
C286 C284 1.378 . S
C286 C287 1.367 . S
C287 C286 1.367 . S
C287 C289 1.433 . S
C288 C284 1.350 . S
C288 C285 1.463 . S
C288 N292 1.427 . S
C289 H279 0.929 . S
C289 C287 1.433 . S
C289 N292 1.384 . S
C290 H281 0.929 . S
C290 C282 1.378 . S
C290 C285 1.350 . S
C291 H278 0.929 . S
C291 C283 1.433 . S
C291 N293 1.384 . S
N292 C288 1.427 . S
N292 C289 1.384 . S
N293 C285 1.427 . S
N293 C291 1.384 . S
H294 C300 0.930 . S
H295 C304 0.930 . S
H296 C309 0.929 . S
H297 C307 0.929 . S
H298 C302 0.929 . S
H299 C308 0.929 . S
C300 H294 0.930 . S
C300 C301 1.367 . S
C300 C308 1.378 . S
C301 C300 1.367 . S
C301 C309 1.433 . S
C302 H298 0.929 . S
C302 C304 1.378 . S
C302 C306 1.350 . S
C303 C306 1.463 . S
C303 C308 1.350 . S
C303 N311 1.427 . S
C304 H295 0.930 . S
C304 C302 1.378 . S
C304 C305 1.367 . S
C305 C304 1.367 . S
C305 C307 1.433 . S
C306 C302 1.350 . S
C306 C303 1.463 . S
C306 N310 1.427 . S
C307 H297 0.929 . S
C307 C305 1.433 . S
C307 N310 1.384 . S
C308 H299 0.929 . S
C308 C300 1.378 . S
C308 C303 1.350 . S
C309 H296 0.929 . S
C309 C301 1.433 . S
C309 N311 1.384 . S
N310 C306 1.427 . S
N310 C307 1.384 . S
N311 C303 1.427 . S
N311 C309 1.384 . S
H312 C318 0.930 . S
H313 C322 0.930 . S
H314 C327 0.929 . S
H315 C325 0.929 . S
H316 C320 0.929 . S
H317 C326 0.929 . S
C318 H312 0.930 . S
C318 C319 1.367 . S
C318 C326 1.378 . S
C319 C318 1.367 . S
C319 C327 1.433 . S
C320 H316 0.929 . S
C320 C322 1.378 . S
C320 C324 1.350 . S
C321 C324 1.463 . S
C321 C326 1.350 . S
C321 N329 1.427 . S
C322 H313 0.930 . S
C322 C320 1.378 . S
C322 C323 1.367 . S
C323 C322 1.367 . S
C323 C325 1.433 . S
C324 C320 1.350 . S
C324 C321 1.463 . S
C324 N328 1.427 . S
C325 H315 0.929 . S
C325 C323 1.433 . S
C325 N328 1.384 . S
C326 H317 0.929 . S
C326 C318 1.378 . S
C326 C321 1.350 . S
C327 H314 0.929 . S
C327 C319 1.433 . S
C327 N329 1.384 . S
N328 C324 1.427 . S
N328 C325 1.384 . S
N329 C321 1.427 . S
N329 C327 1.384 . S
H330 C336 0.930 . S
H331 C340 0.930 . S
H332 C345 0.929 . S
H333 C343 0.929 . S
H334 C338 0.929 . S
H335 C344 0.929 . S
C336 H330 0.930 . S
C336 C337 1.367 . S
C336 C344 1.378 . S
C337 C336 1.367 . S
C337 C345 1.433 . S
C338 H334 0.929 . S
C338 C340 1.378 . S
C338 C342 1.350 . S
C339 C342 1.463 . S
C339 C344 1.350 . S
C339 N347 1.427 . S
C340 H331 0.930 . S
C340 C338 1.378 . S
C340 C341 1.367 . S
C341 C340 1.367 . S
C341 C343 1.433 . S
C342 C338 1.350 . S
C342 C339 1.463 . S
C342 N346 1.427 . S
C343 H333 0.929 . S
C343 C341 1.433 . S
C343 N346 1.384 . S
C344 H335 0.929 . S
C344 C336 1.378 . S
C344 C339 1.350 . S
C345 H332 0.929 . S
C345 C337 1.433 . S
C345 N347 1.384 . S
N346 C342 1.427 . S
N346 C343 1.384 . S
N347 C339 1.427 . S
N347 C345 1.384 . S
H348 C354 0.930 . S
H349 C358 0.930 . S
H350 C363 0.929 . S
H351 C361 0.929 . S
H352 C356 0.929 . S
H353 C362 0.929 . S
C354 H348 0.930 . S
C354 C355 1.367 . S
C354 C362 1.378 . S
C355 C354 1.367 . S
C355 C363 1.433 . S
C356 H352 0.929 . S
C356 C358 1.378 . S
C356 C360 1.350 . S
C357 C360 1.463 . S
C357 C362 1.350 . S
C357 N365 1.427 . S
C358 H349 0.930 . S
C358 C356 1.378 . S
C358 C359 1.367 . S
C359 C358 1.367 . S
C359 C361 1.433 . S
C360 C356 1.350 . S
C360 C357 1.463 . S
C360 N364 1.427 . S
C361 H351 0.929 . S
C361 C359 1.433 . S
C361 N364 1.384 . S
C362 H353 0.929 . S
C362 C354 1.378 . S
C362 C357 1.350 . S
C363 H350 0.929 . S
C363 C355 1.433 . S
C363 N365 1.384 . S
N364 C360 1.427 . S
N364 C361 1.384 . S
N365 C357 1.427 . S
N365 C363 1.384 . S
H366 C372 0.930 . S
H367 C376 0.930 . S
H368 C381 0.929 . S
H369 C379 0.929 . S
H370 C374 0.929 . S
H371 C380 0.929 . S
C372 H366 0.930 . S
C372 C373 1.367 . S
C372 C380 1.378 . S
C373 C372 1.367 . S
C373 C381 1.433 . S
C374 H370 0.929 . S
C374 C376 1.378 . S
C374 C378 1.350 . S
C375 C378 1.463 . S
C375 C380 1.350 . S
C375 N383 1.427 . S
C376 H367 0.930 . S
C376 C374 1.378 . S
C376 C377 1.367 . S
C377 C376 1.367 . S
C377 C379 1.433 . S
C378 C374 1.350 . S
C378 C375 1.463 . S
C378 N382 1.427 . S
C379 H369 0.929 . S
C379 C377 1.433 . S
C379 N382 1.384 . S
C380 H371 0.929 . S
C380 C372 1.378 . S
C380 C375 1.350 . S
C381 H368 0.929 . S
C381 C373 1.433 . S
C381 N383 1.384 . S
N382 C378 1.427 . S
N382 C379 1.384 . S
N383 C375 1.427 . S
N383 C381 1.384 . S
H384 C390 0.930 1_554 S
H385 C394 0.930 1_556 S
H386 C399 0.929 . S
H387 C397 0.929 . S
H388 C392 0.929 . S
H389 C398 0.929 . S
C390 H384 0.930 1_556 S
C390 C391 1.367 . S
C390 C398 1.378 1_556 S
C391 C390 1.367 . S
C391 C399 1.433 . S
C392 H388 0.929 . S
C392 C394 1.378 1_556 S
C392 C396 1.350 1_556 S
C393 C396 1.463 1_566 S
C393 C398 1.350 1_556 S
C393 N401 1.427 . S
C394 H385 0.930 1_554 S
C394 C392 1.378 1_554 S
C394 C395 1.367 . S
C395 C394 1.367 . S
C395 C397 1.433 . S
C396 C392 1.350 1_554 S
C396 C393 1.463 1_544 S
C396 N400 1.427 . S
C397 H387 0.929 . S
C397 C395 1.433 . S
C397 N400 1.384 . S
C398 H389 0.929 . S
C398 C390 1.378 1_554 S
C398 C393 1.350 1_554 S
C399 H386 0.929 . S
C399 C391 1.433 . S
C399 N401 1.384 . S
N400 C396 1.427 . S
N400 C397 1.384 . S
N401 C393 1.427 . S
N401 C399 1.384 . S
H402 C408 0.930 . S
H403 C412 0.930 . S
H404 C417 0.929 . S
H405 C415 0.929 . S
H406 C410 0.929 . S
H407 C416 0.929 . S
C408 H402 0.930 . S
C408 C409 1.367 . S
C408 C416 1.378 . S
C409 C408 1.367 . S
C409 C417 1.433 . S
C410 H406 0.929 . S
C410 C412 1.378 . S
C410 C414 1.350 . S
C411 C414 1.463 . S
C411 C416 1.350 . S
C411 N419 1.427 . S
C412 H403 0.930 . S
C412 C410 1.378 . S
C412 C413 1.367 . S
C413 C412 1.367 . S
C413 C415 1.433 . S
C414 C410 1.350 . S
C414 C411 1.463 . S
C414 N418 1.427 . S
C415 H405 0.929 . S
C415 C413 1.433 . S
C415 N418 1.384 . S
C416 H407 0.929 . S
C416 C408 1.378 . S
C416 C411 1.350 . S
C417 H404 0.929 . S
C417 C409 1.433 . S
C417 N419 1.384 . S
N418 C414 1.427 . S
N418 C415 1.384 . S
N419 C411 1.427 . S
N419 C417 1.384 . S
H420 C426 0.930 . S
H421 C430 0.930 . S
H422 C435 0.929 . S
H423 C433 0.929 . S
H424 C428 0.929 . S
H425 C434 0.929 . S
C426 H420 0.930 . S
C426 C427 1.367 . S
C426 C434 1.378 . S
C427 C426 1.367 . S
C427 C435 1.433 . S
C428 H424 0.929 . S
C428 C430 1.378 . S
C428 C432 1.350 . S
C429 C432 1.463 1_655 S
C429 C434 1.350 . S
C429 N437 1.427 . S
C430 H421 0.930 . S
C430 C428 1.378 . S
C430 C431 1.367 . S
C431 C430 1.367 . S
C431 C433 1.433 . S
C432 C428 1.350 . S
C432 C429 1.463 1_455 S
C432 N436 1.427 . S
C433 H423 0.929 . S
C433 C431 1.433 . S
C433 N436 1.384 . S
C434 H425 0.929 . S
C434 C426 1.378 . S
C434 C429 1.350 . S
C435 H422 0.929 . S
C435 C427 1.433 . S
C435 N437 1.384 . S
N436 C432 1.427 . S
N436 C433 1.384 . S
N437 C429 1.427 . S
N437 C435 1.384 . S
H438 C444 0.930 1_556 S
H439 C448 0.930 1_554 S
H440 C453 0.929 . S
H441 C451 0.929 . S
H442 C446 0.929 . S
H443 C452 0.929 . S
C444 H438 0.930 1_554 S
C444 C445 1.367 . S
C444 C452 1.378 1_554 S
C445 C444 1.367 . S
C445 C453 1.433 . S
C446 H442 0.929 . S
C446 C448 1.378 1_554 S
C446 C450 1.350 1_554 S
C447 C450 1.463 1_564 S
C447 C452 1.350 1_554 S
C447 N455 1.427 . S
C448 H439 0.930 1_556 S
C448 C446 1.378 1_556 S
C448 C449 1.367 . S
C449 C448 1.367 . S
C449 C451 1.433 . S
C450 C446 1.350 1_556 S
C450 C447 1.463 1_546 S
C450 N454 1.427 . S
C451 H441 0.929 . S
C451 C449 1.433 . S
C451 N454 1.384 . S
C452 H443 0.929 . S
C452 C444 1.378 1_556 S
C452 C447 1.350 1_556 S
C453 H440 0.929 . S
C453 C445 1.433 . S
C453 N455 1.384 . S
N454 C450 1.427 . S
N454 C451 1.384 . S
N455 C447 1.427 . S
N455 C453 1.384 . S
H456 C462 0.930 . S
H457 C466 0.930 . S
H458 C471 0.929 . S
H459 C469 0.929 . S
H460 C464 0.929 . S
H461 C470 0.929 . S
C462 H456 0.930 . S
C462 C463 1.367 . S
C462 C470 1.378 . S
C463 C462 1.367 . S
C463 C471 1.433 . S
C464 H460 0.929 . S
C464 C466 1.378 . S
C464 C468 1.350 . S
C465 C468 1.463 . S
C465 C470 1.350 . S
C465 N473 1.427 . S
C466 H457 0.930 . S
C466 C464 1.378 . S
C466 C467 1.367 . S
C467 C466 1.367 . S
C467 C469 1.433 . S
C468 C464 1.350 . S
C468 C465 1.463 . S
C468 N472 1.427 . S
C469 H459 0.929 . S
C469 C467 1.433 . S
C469 N472 1.384 . S
C470 H461 0.929 . S
C470 C462 1.378 . S
C470 C465 1.350 . S
C471 H458 0.929 . S
C471 C463 1.433 . S
C471 N473 1.384 . S
N472 C468 1.427 . S
N472 C469 1.384 . S
N473 C465 1.427 . S
N473 C471 1.384 . S
H474 C480 0.930 . S
H475 C484 0.930 . S
H476 C489 0.929 . S
H477 C487 0.929 . S
H478 C482 0.929 . S
H479 C488 0.929 . S
C480 H474 0.930 . S
C480 C481 1.367 . S
C480 C488 1.378 . S
C481 C480 1.367 . S
C481 C489 1.433 . S
C482 H478 0.929 . S
C482 C484 1.378 . S
C482 C486 1.350 . S
C483 C486 1.463 1_455 S
C483 C488 1.350 . S
C483 N491 1.427 . S
C484 H475 0.930 . S
C484 C482 1.378 . S
C484 C485 1.367 . S
C485 C484 1.367 . S
C485 C487 1.433 . S
C486 C482 1.350 . S
C486 C483 1.463 1_655 S
C486 N490 1.427 . S
C487 H477 0.929 . S
C487 C485 1.433 . S
C487 N490 1.384 . S
C488 H479 0.929 . S
C488 C480 1.378 . S
C488 C483 1.350 . S
C489 H476 0.929 . S
C489 C481 1.433 . S
C489 N491 1.384 . S
N490 C486 1.427 . S
N490 C487 1.384 . S
N491 C483 1.427 . S
N491 C489 1.384 . S
H492 C498 0.930 . S
H493 C502 0.930 . S
H494 C507 0.929 . S
H495 C505 0.929 . S
H496 C500 0.929 . S
H497 C506 0.929 . S
C498 H492 0.930 . S
C498 C499 1.367 . S
C498 C506 1.378 . S
C499 C498 1.367 . S
C499 C507 1.433 . S
C500 H496 0.929 . S
C500 C502 1.378 . S
C500 C504 1.350 . S
C501 C504 1.463 1_556 S
C501 C506 1.350 . S
C501 N509 1.427 . S
C502 H493 0.930 . S
C502 C500 1.378 . S
C502 C503 1.367 . S
C503 C502 1.367 . S
C503 C505 1.433 . S
C504 C500 1.350 . S
C504 C501 1.463 1_554 S
C504 N508 1.427 . S
C505 H495 0.929 . S
C505 C503 1.433 . S
C505 N508 1.384 . S
C506 H497 0.929 . S
C506 C498 1.378 . S
C506 C501 1.350 . S
C507 H494 0.929 . S
C507 C499 1.433 . S
C507 N509 1.384 . S
N508 C504 1.427 . S
N508 C505 1.384 . S
N509 C501 1.427 . S
N509 C507 1.384 . S
H510 C516 0.930 1_565 S
H511 C520 0.930 . S
H512 C525 0.929 . S
H513 C523 0.929 1_455 S
H514 C518 0.929 . S
H515 C524 0.929 . S
C516 H510 0.930 1_545 S
C516 C517 1.367 . S
C516 C524 1.378 . S
C517 C516 1.367 . S
C517 C525 1.433 . S
C518 H514 0.929 . S
C518 C520 1.378 . S
C518 C522 1.350 . S
C519 C522 1.463 . S
C519 C524 1.350 . S
C519 N527 1.427 . S
C520 H511 0.930 . S
C520 C518 1.378 . S
C520 C521 1.367 . S
C521 C520 1.367 . S
C521 C523 1.433 . S
C522 C518 1.350 . S
C522 C519 1.463 . S
C522 N526 1.427 . S
C523 H513 0.929 1_655 S
C523 C521 1.433 . S
C523 N526 1.384 . S
C524 H515 0.929 . S
C524 C516 1.378 . S
C524 C519 1.350 . S
C525 H512 0.929 . S
C525 C517 1.433 . S
C525 N527 1.384 . S
N526 C522 1.427 . S
N526 C523 1.384 . S
N527 C519 1.427 . S
N527 C525 1.384 . S
H528 C534 0.930 . S
H529 C538 0.930 1_545 S
H530 C543 0.929 . S
H531 C541 0.929 . S
H532 C536 0.929 . S
H533 C542 0.929 . S
C534 H528 0.930 . S
C534 C535 1.367 . S
C534 C542 1.378 . S
C535 C534 1.367 . S
C535 C543 1.433 . S
C536 H532 0.929 . S
C536 C538 1.378 . S
C536 C540 1.350 . S
C537 C540 1.463 . S
C537 C542 1.350 . S
C537 N545 1.427 . S
C538 H529 0.930 1_565 S
C538 C536 1.378 . S
C538 C539 1.367 . S
C539 C538 1.367 . S
C539 C541 1.433 . S
C540 C536 1.350 . S
C540 C537 1.463 . S
C540 N544 1.427 . S
C541 H531 0.929 . S
C541 C539 1.433 . S
C541 N544 1.384 . S
C542 H533 0.929 . S
C542 C534 1.378 . S
C542 C537 1.350 . S
C543 H530 0.929 . S
C543 C535 1.433 . S
C543 N545 1.384 . S
N544 C540 1.427 . S
N544 C541 1.384 . S
N545 C537 1.427 . S
N545 C543 1.384 . S
H546 C552 0.930 . S
H547 C556 0.930 1_455 S
H548 C561 0.929 . S
H549 C559 0.929 . S
H550 C554 0.929 . S
H551 C560 0.929 . S
C552 H546 0.930 . S
C552 C553 1.367 . S
C552 C560 1.378 . S
C553 C552 1.367 . S
C553 C561 1.433 . S
C554 H550 0.929 . S
C554 C556 1.378 . S
C554 C558 1.350 . S
C555 C558 1.463 1_554 S
C555 C560 1.350 . S
C555 N563 1.427 . S
C556 H547 0.930 1_655 S
C556 C554 1.378 . S
C556 C557 1.367 . S
C557 C556 1.367 . S
C557 C559 1.433 . S
C558 C554 1.350 . S
C558 C555 1.463 1_556 S
C558 N562 1.427 . S
C559 H549 0.929 . S
C559 C557 1.433 . S
C559 N562 1.384 . S
C560 H551 0.929 . S
C560 C552 1.378 . S
C560 C555 1.350 . S
C561 H548 0.929 . S
C561 C553 1.433 . S
C561 N563 1.384 . S
N562 C558 1.427 . S
N562 C559 1.384 . S
N563 C555 1.427 . S
N563 C561 1.384 . S
H564 C570 0.930 . S
H565 C574 0.930 . S
H566 C579 0.929 1_655 S
H567 C577 0.929 . S
H568 C572 0.929 . S
H569 C578 0.929 . S
C570 H564 0.930 . S
C570 C571 1.367 . S
C570 C578 1.378 . S
C571 C570 1.367 . S
C571 C579 1.433 . S
C572 H568 0.929 . S
C572 C574 1.378 . S
C572 C576 1.350 . S
C573 C576 1.463 . S
C573 C578 1.350 . S
C573 N581 1.427 . S
C574 H565 0.930 . S
C574 C572 1.378 . S
C574 C575 1.367 . S
C575 C574 1.367 . S
C575 C577 1.433 . S
C576 C572 1.350 . S
C576 C573 1.463 . S
C576 N580 1.427 . S
C577 H567 0.929 . S
C577 C575 1.433 . S
C577 N580 1.384 . S
C578 H569 0.929 . S
C578 C570 1.378 . S
C578 C573 1.350 . S
C579 H566 0.929 1_455 S
C579 C571 1.433 . S
C579 N581 1.384 . S
N580 C576 1.427 . S
N580 C577 1.384 . S
N581 C573 1.427 . S
N581 C579 1.384 . S
H582 C588 0.930 . S
H583 C592 0.930 . S
H584 C597 0.929 1_565 S
H585 C595 0.929 . S
H586 C590 0.929 . S
H587 C596 0.929 . S
C588 H582 0.930 . S
C588 C589 1.367 . S
C588 C596 1.378 . S
C589 C588 1.367 . S
C589 C597 1.433 . S
C590 H586 0.929 . S
C590 C592 1.378 . S
C590 C594 1.350 . S
C591 C594 1.463 . S
C591 C596 1.350 . S
C591 N599 1.427 . S
C592 H583 0.930 . S
C592 C590 1.378 . S
C592 C593 1.367 . S
C593 C592 1.367 . S
C593 C595 1.433 . S
C594 C590 1.350 . S
C594 C591 1.463 . S
C594 N598 1.427 . S
C595 H585 0.929 . S
C595 C593 1.433 . S
C595 N598 1.384 . S
C596 H587 0.929 . S
C596 C588 1.378 . S
C596 C591 1.350 . S
C597 H584 0.929 1_545 S
C597 C589 1.433 . S
C597 N599 1.384 . S
N598 C594 1.427 . S
N598 C595 1.384 . S
N599 C591 1.427 . S
N599 C597 1.384 . S
C175 C55 1.362 . S
C179 C13 1.347 . S
C193 C27 1.362 . S
C197 C69 1.348 . S
C211 C83 1.344 . S
C215 C41 1.351 . S
C229 C97 1.344 . S
C233 C139 1.351 . S
C247 C153 1.361 . S
C251 C111 1.352 . S
C265 C125 1.362 . S
C269 C167 1.348 . S
C283 C123 1.533 . S
C287 C11 1.533 . S
C301 C25 1.533 . S
C305 C137 1.534 . S
C319 C39 1.536 . S
C323 C151 1.536 . S
C337 C53 1.537 . S
C341 C165 1.537 . S
C355 C95 1.535 . S
C359 C67 1.534 . S
C373 C109 1.532 . S
C377 C81 1.532 . S
C391 C105 0.969 . S
C395 C7 0.960 . S
C409 C21 0.958 . S
C413 C119 0.965 . S
C427 C35 0.959 . S
C431 C133 0.963 . S
C445 C49 0.969 . S
C449 C147 0.960 . S
C463 C161 0.961 . S
C467 C63 0.961 . S
C481 C77 0.968 . S
C485 C91 0.960 . S
C499 C148 1.308 1_455 S
C503 C8 1.301 . S
C517 C162 1.306 1_545 S
C521 C22 1.297 1_655 S
C535 C92 1.295 . S
C539 C36 1.304 1_565 S
C553 C50 1.298 . S
C557 C106 1.307 1_655 S
C571 C64 1.303 1_455 S
C575 C120 1.309 1_565 S
C589 C78 1.301 1_545 S
C593 C134 1.308 . S
