# Generated by pormake.
# Topology wmi, (6)-cn, num edge types: 1
# Building blocks:
#     Node 0, Type 0, BuildingBlock: BETGAK_clean_sbu_0, # of connection points: 6
#     Node 1, Type 0, BuildingBlock: BETGAK_clean_sbu_0, # of connection points: 6
#     Node 2, Type 0, BuildingBlock: BETGAK_clean_sbu_0, # of connection points: 6
#     Node 3, Type 0, BuildingBlock: BETGAK_clean_sbu_0, # of connection points: 6
#     Node 4, Type 0, BuildingBlock: BETGAK_clean_sbu_0, # of connection points: 6
#     Node 5, Type 0, BuildingBlock: BETGAK_clean_sbu_0, # of connection points: 6
#     Node 6, Type 0, BuildingBlock: BETGAK_clean_sbu_0, # of connection points: 6
#     Node 7, Type 0, BuildingBlock: BETGAK_clean_sbu_0, # of connection points: 6
#     Node 8, Type 0, BuildingBlock: BETGAK_clean_sbu_0, # of connection points: 6
#     Node 9, Type 0, BuildingBlock: BETGAK_clean_sbu_0, # of connection points: 6
#     Node 10, Type 0, BuildingBlock: BETGAK_clean_sbu_0, # of connection points: 6
#     Node 11, Type 0, BuildingBlock: BETGAK_clean_sbu_0, # of connection points: 6
#     Node 12, Type 0, BuildingBlock: BETGAK_clean_sbu_0, # of connection points: 6
#     Node 13, Type 0, BuildingBlock: BETGAK_clean_sbu_0, # of connection points: 6
#     Node 14, Type 0, BuildingBlock: BETGAK_clean_sbu_0, # of connection points: 6
#     Node 15, Type 0, BuildingBlock: BETGAK_clean_sbu_0, # of connection points: 6
#     Node 16, Type 0, BuildingBlock: BETGAK_clean_sbu_0, # of connection points: 6
#     Node 17, Type 0, BuildingBlock: BETGAK_clean_sbu_0, # of connection points: 6
#     Edge 18, Type (0, 0), None
#     Edge 19, Type (0, 0), None
#     Edge 20, Type (0, 0), None
#     Edge 21, Type (0, 0), None
#     Edge 22, Type (0, 0), None
#     Edge 23, Type (0, 0), None
#     Edge 24, Type (0, 0), None
#     Edge 25, Type (0, 0), None
#     Edge 26, Type (0, 0), None
#     Edge 27, Type (0, 0), None
#     Edge 28, Type (0, 0), None
#     Edge 29, Type (0, 0), None
#     Edge 30, Type (0, 0), None
#     Edge 31, Type (0, 0), None
#     Edge 32, Type (0, 0), None
#     Edge 33, Type (0, 0), None
#     Edge 34, Type (0, 0), None
#     Edge 35, Type (0, 0), None
#     Edge 36, Type (0, 0), None
#     Edge 37, Type (0, 0), None
#     Edge 38, Type (0, 0), None
#     Edge 39, Type (0, 0), None
#     Edge 40, Type (0, 0), None
#     Edge 41, Type (0, 0), None
#     Edge 42, Type (0, 0), None
#     Edge 43, Type (0, 0), None
#     Edge 44, Type (0, 0), None
#     Edge 45, Type (0, 0), None
#     Edge 46, Type (0, 0), None
#     Edge 47, Type (0, 0), None
#     Edge 48, Type (0, 0), None
#     Edge 49, Type (0, 0), None
#     Edge 50, Type (0, 0), None
#     Edge 51, Type (0, 0), None
#     Edge 52, Type (0, 0), None
#     Edge 53, Type (0, 0), None
#     Edge 54, Type (0, 0), None
#     Edge 55, Type (0, 0), None
#     Edge 56, Type (0, 0), None
#     Edge 57, Type (0, 0), None
#     Edge 58, Type (0, 0), None
#     Edge 59, Type (0, 0), None
#     Edge 60, Type (0, 0), None
#     Edge 61, Type (0, 0), None
#     Edge 62, Type (0, 0), None
#     Edge 63, Type (0, 0), None
#     Edge 64, Type (0, 0), None
#     Edge 65, Type (0, 0), None
#     Edge 66, Type (0, 0), None
#     Edge 67, Type (0, 0), None
#     Edge 68, Type (0, 0), None
#     Edge 69, Type (0, 0), None
#     Edge 70, Type (0, 0), None
#     Edge 71, Type (0, 0), None
# Relax obj value: 0.126
# Max RMSD: 0.290
# Mean RMSD: 0.290
data_MOF--net-wmi--node1-BETGAK_clean_sbu_0--edge1-none
_symmetry_space_group_name_H-M    P1
_symmetry_Int_Tables_number       1
_symmetry_cell_setting            triclinic
loop_
_symmetry_equiv_pos_as_xyz
'x, y, z'
_cell_length_a     22.450734
_cell_length_b     22.449121
_cell_length_c     34.947413
_cell_angle_alpha  89.830208
_cell_angle_beta   90.009212
_cell_angle_gamma 120.02968
loop_
_atom_site_label
_atom_site_type_symbol
_atom_site_fract_x
_atom_site_fract_y
_atom_site_fract_z
_atom_type_partial_charge
La0 La 0.63007 0.14975 0.08538 0.0
La1 La 0.51121 1.06283 0.0609 0.0
C2 C 0.74723 0.22102 0.1167 0.0
C3 C 0.8197 0.26349 0.10232 0.0
C4 C 0.87542 0.26895 0.12381 0.0
C5 C 0.94415 0.31364 0.11228 0.0
C6 C 0.95886 0.35371 0.07884 0.0
C7 C 0.90287 0.34481 0.05626 0.0
C8 C 0.83441 0.3001 0.06763 0.0
C9 C 0.50656 0.11866 0.13726 0.0
C10 C 0.56281 0.22647 0.06045 0.0
C11 C 0.38699 0.97302 0.05149 0.0
C12 C 0.35743 0.89904 0.04448 0.0
C13 C 0.29521 0.8628 0.02497 0.0
C14 C 0.26056 0.79112 0.02477 0.0
C15 C 0.28735 0.75472 0.04448 0.0
C16 C 0.3528 0.79102 0.0608 0.0
C17 C 0.38772 0.8629 0.06076 0.0
C18 C 0.59073 0.09395 0.00063 0.0
C19 C 0.62262 1.01855 0.06742 0.0
O20 O 0.71776 0.1548 0.11088 0.0
O21 O 0.70444 0.24366 0.11004 0.0
O22 O 0.53833 0.08969 0.1214 0.0
O23 O 0.53966 0.09218 0.12079 0.0
O24 O 0.62372 0.23338 0.06226 0.0
O25 O 0.50796 0.1629 0.06201 0.0
O26 O 0.42453 1.01517 0.0244 0.0
O27 O 0.41596 0.99287 0.08473 0.0
O28 O 0.54626 1.03254 0.0113 0.0
O29 O 0.59574 0.13714 0.02591 0.0
O30 O 0.55679 0.99621 0.07458 0.0
O31 O 0.66206 0.08383 0.0616 0.0
H32 H 0.86587 0.24096 0.15052 0.0
H33 H 0.98558 0.32093 0.1311 0.0
H34 H 0.9121 0.37626 0.03093 0.0
H35 H 0.79298 0.29655 0.05008 0.0
H36 H 0.27157 0.88962 0.0118 0.0
H37 H 0.2105 0.76416 0.01123 0.0
H38 H 0.37453 0.76425 0.07603 0.0
H39 H 0.43621 0.88992 0.07575 0.0
La40 La 0.1123 0.57149 0.08625 0.0
La41 La 0.18806 0.5248 0.05913 0.0
C42 C 1.05051 0.63072 0.11457 0.0
C43 C 0.99836 0.649 0.09984 0.0
C44 C 0.99104 0.70168 0.11718 0.0
C45 C 0.94067 0.71783 0.10461 0.0
C46 C 0.89552 0.68119 0.07447 0.0
C47 C 0.90471 0.63008 0.05633 0.0
C48 C 0.95559 0.61474 0.06848 0.0
C49 C 0.17211 0.50586 0.14233 0.0
C50 C 1.02565 0.41949 0.07484 0.0
C51 C 0.27002 0.48126 0.04701 0.0
C52 C 0.34512 0.52292 0.04867 0.0
C53 C 0.385 0.50841 0.02405 0.0
C54 C 0.45638 0.54755 0.02581 0.0
C55 C 0.48893 0.60181 0.05224 0.0
C56 C 0.4491 0.61919 0.07532 0.0
C57 C 0.37733 0.57985 0.07352 0.0
C58 C 0.14189 0.55948 0.00028 0.0
C59 C 0.24101 0.68152 0.05315 0.0
O60 O 0.11137 0.6631 0.09871 0.0
O61 O 1.03066 0.56543 0.11963 0.0
O62 O 0.18804 0.55669 0.11873 0.0
O63 O 0.18555 0.55523 0.11856 0.0
O64 O 1.02167 0.47494 0.07858 0.0
O65 O 1.08707 0.42509 0.06864 0.0
O66 O 0.24144 0.49746 0.01976 0.0
O67 O 0.23816 0.47289 0.07922 0.0
O68 O 0.20468 0.57468 0.00482 0.0
O69 O 1.10589 0.52919 0.02973 0.0
O70 O 0.26162 0.63779 0.06337 0.0
O71 O 0.17534 0.6593 0.05212 0.0
H72 H 1.02293 0.72877 0.14145 0.0
H73 H 0.93397 0.75569 0.12016 0.0
H74 H 0.87007 0.59944 0.03365 0.0
H75 H 0.95992 0.57439 0.0541 0.0
H76 H 0.36104 0.46603 0.00405 0.0
H77 H 0.48633 0.53352 0.00748 0.0
H78 H 0.47312 0.66022 0.09612 0.0
H79 H 0.34706 0.59279 0.09224 0.0
La80 La 0.67771 0.61303 0.08497 0.0
La81 La 0.71878 0.73477 0.05881 0.0
C82 C 0.62125 0.49281 0.11339 0.0
C83 C 0.59917 0.42408 0.09589 0.0
C84 C 0.54222 0.36397 0.11047 0.0
C85 C 0.52328 0.29864 0.0952 0.0
C86 C 0.56152 0.29191 0.06545 0.0
C87 C 0.61533 0.35275 0.04914 0.0
C88 C 0.63361 0.41783 0.06394 0.0
C89 C 0.74992 0.73576 0.14124 0.0
C90 C 0.82818 0.67999 0.0694 0.0
C91 C 0.76001 0.8613 0.04836 0.0
C92 C 0.72262 0.89945 0.05106 0.0
C93 C 0.76045 0.97069 0.05488 0.0
C94 C 0.72698 1.00789 0.06088 0.0
C95 C 0.6545 0.97483 0.06324 0.0
C96 C 0.61619 0.90304 0.05952 0.0
C97 C 0.65017 0.86554 0.05341 0.0
C98 C 0.67369 0.65178 -5e-05 0.0
C99 C 0.5622 0.62895 0.05979 0.0
O100 O 0.58742 0.52279 0.10187 0.0
O101 O 0.68752 0.53685 0.1153 0.0
O102 O 0.69678 0.70265 0.11917 0.0
O103 O 0.69786 0.70156 0.11887 0.0
O104 O 0.7735 0.61968 0.0726 0.0
O105 O 0.82047 0.73526 0.06542 0.0
O106 O 0.74303 0.81714 0.02074 0.0
O107 O 0.76595 0.8356 0.08034 0.0
O108 O 0.66113 0.70072 0.00659 0.0
O109 O 0.71023 0.64791 0.02672 0.0
O110 O 0.6065 0.69347 0.0691 0.0
O111 O 0.58493 0.58634 0.05602 0.0
H112 H 0.51403 0.36745 0.13465 0.0
H113 H 0.48227 0.25305 0.10844 0.0
H114 H 0.64655 0.34968 0.02643 0.0
H115 H 0.67657 0.4631 0.05133 0.0
H116 H 0.81617 0.99768 0.05373 0.0
H117 H 0.75862 1.06318 0.06375 0.0
H118 H 0.56053 0.87622 0.06093 0.0
H119 H 0.61997 0.81024 0.05074 0.0
La120 La 0.14777 0.585 0.87705 0.0
La121 La 1.07008 0.46074 0.90331 0.0
C122 C 0.20918 0.70663 0.84972 0.0
C123 C 0.25856 0.77589 0.86628 0.0
C124 C 0.27299 0.83668 0.84681 0.0
C125 C 0.32185 0.90192 0.86115 0.0
C126 C 0.35745 0.90867 0.89543 0.0
C127 C 0.34085 0.84771 0.91566 0.0
C128 C 0.29168 0.7824 0.90154 0.0
C129 C 1.09063 0.46297 0.81983 0.0
C130 C 0.23379 0.51871 0.88926 0.0
C131 C 0.98601 0.33405 0.91218 0.0
C132 C 0.91138 0.29725 0.90519 0.0
C133 C 0.87997 0.23056 0.89062 0.0
C134 C 0.80955 0.19509 0.88343 0.0
C135 C 0.7689 0.22555 0.8906 0.0
C136 C 0.80071 0.29361 0.90357 0.0
C137 C 0.87169 0.32929 0.91088 0.0
C138 C 0.1143 0.54119 0.96247 0.0
C139 C 1.01915 0.56576 0.90946 0.0
O140 O 0.14693 0.67634 0.86381 0.0
O141 O 0.23089 0.66257 0.84535 0.0
O142 O 1.07328 0.49563 0.84389 0.0
O143 O 1.07546 0.49669 0.84409 0.0
O144 O 0.238 0.57824 0.88495 0.0
O145 O 0.17205 0.46282 0.89547 0.0
O146 O 1.00799 0.37802 0.94006 0.0
O147 O 1.02423 0.35948 0.88204 0.0
O148 O 1.05265 0.49088 0.9584 0.0
O149 O 0.15128 0.54717 0.93352 0.0
O150 O 0.99837 0.50205 0.89809 0.0
O151 O 1.08476 0.60899 0.91114 0.0
H152 H 0.24845 0.83367 0.81963 0.0
H153 H 0.33627 0.9469 0.84384 0.0
H154 H 0.36873 0.85037 0.94151 0.0
H155 H 0.28137 0.73679 0.91753 0.0
H156 H 0.90977 0.20555 0.88524 0.0
H157 H 0.78648 0.14266 0.87317 0.0
H158 H 0.77054 0.31795 0.90964 0.0
H159 H 0.89523 0.38136 0.92162 0.0
La160 La 0.63079 0.6413 0.87572 0.0
La161 La 0.75354 0.67844 0.89956 0.0
C162 C 0.51159 0.59305 0.84626 0.0
C163 C 0.43943 0.56488 0.86128 0.0
C164 C 0.38254 0.5134 0.84105 0.0
C165 C 0.31421 0.49108 0.85288 0.0
C166 C 0.3008 0.51957 0.8853 0.0
C167 C 0.35792 0.56828 0.90663 0.0
C168 C 0.426 0.59016 0.89504 0.0
C169 C 0.75213 0.7326 0.82221 0.0
C170 C 0.69838 0.78692 0.89892 0.0
C171 C 0.87822 0.71528 0.90797 0.0
C172 C 0.90678 0.6702 0.91524 0.0
C173 C 0.96705 0.69412 0.9364 0.0
C174 C 0.99997 0.65556 0.93773 0.0
C175 C 0.97334 0.59307 0.91748 0.0
C176 C 0.90953 0.56587 0.89951 0.0
C177 C 0.87638 0.60431 0.8984 0.0
C178 C 0.67654 0.63395 0.96049 0.0
C179 C 0.64447 0.52197 0.89831 0.0
O180 O 0.54107 0.55651 0.85314 0.0
O181 O 0.55517 0.65894 0.85082 0.0
O182 O 0.72205 0.67281 0.83938 0.0
O183 O 0.7207 0.67394 0.83993 0.0
O184 O 0.63777 0.73211 0.89796 0.0
O185 O 0.75414 0.77998 0.89694 0.0
O186 O 0.84149 0.72061 0.93518 0.0
O187 O 0.84846 0.70551 0.87495 0.0
O188 O 0.72263 0.61841 0.95143 0.0
O189 O 0.66903 0.66837 0.93383 0.0
O190 O 0.70923 0.56586 0.88906 0.0
O191 O 0.60303 0.54595 0.90236 0.0
H192 H 0.39091 0.49258 0.815 0.0
H193 H 0.27198 0.45555 0.83502 0.0
H194 H 0.34988 0.59289 0.93114 0.0
H195 H 0.46819 0.62921 0.91163 0.0
H196 H 0.99053 0.74404 0.95008 0.0
H197 H 1.04886 0.67706 0.95249 0.0
H198 H 0.88809 0.51797 0.88382 0.0
H199 H 0.82934 0.58436 0.88211 0.0
La200 La 0.56922 1.04723 0.87713 0.0
La201 La 0.53881 0.13702 0.90057 0.0
C202 C 0.61406 0.97444 0.84757 0.0
C203 C 0.64579 0.93584 0.86456 0.0
C204 C 0.69729 0.93023 0.84469 0.0
C205 C 0.72316 0.88897 0.85911 0.0
C206 C 0.6981 0.8524 0.89353 0.0
C207 C 0.65062 0.8626 0.9148 0.0
C208 C 0.62512 0.90412 0.90065 0.0
C209 C 0.47504 0.07492 0.82553 0.0
C210 C 0.42501 0.97289 0.9025 0.0
C211 C 0.50496 0.22802 0.90738 0.0
C212 C 0.54717 0.30319 0.91171 0.0
C213 C 0.51724 0.33939 0.92686 0.0
C214 C 0.5515 0.41091 0.92428 0.0
C215 C 0.61631 0.44783 0.90613 0.0
C216 C 0.64865 0.41198 0.89338 0.0
C217 C 0.61421 0.33999 0.89616 0.0
C218 C 0.59368 0.10938 0.9598 0.0
C219 C 0.69348 0.18099 0.88966 0.0
O220 O 0.65034 1.04127 0.85058 0.0
O221 O 0.54879 0.9516 0.85488 0.0
O222 O 0.53617 0.10503 0.84071 0.0
O223 O 0.53519 0.10271 0.84134 0.0
O224 O 0.47833 0.96473 0.90098 0.0
O225 O 0.435 1.03703 0.90079 0.0
O226 O 0.50287 0.1892 0.93582 0.0
O227 O 0.51345 0.20545 0.87491 0.0
O228 O 0.60731 0.16997 0.94933 0.0
O229 O 0.55225 1.06498 0.93608 0.0
O230 O 0.64909 0.20249 0.88364 0.0
O231 O 0.66933 0.11643 0.89729 0.0
H232 H 0.7151 0.95503 0.8171 0.0
H233 H 0.75759 0.88013 0.84167 0.0
H234 H 0.62897 0.83389 0.94103 0.0
H235 H 0.58669 0.90865 0.91711 0.0
H236 H 0.46593 0.31224 0.93901 0.0
H237 H 0.5255 0.43702 0.93519 0.0
H238 H 0.69853 0.43897 0.87957 0.0
H239 H 0.63848 0.31299 0.88426 0.0
La240 La 0.30457 0.46581 0.42311 0.0
La241 La 0.19244 0.38725 0.39073 0.0
C242 C 0.42048 0.52981 0.4567 0.0
C243 C 0.49122 0.57994 0.4421 0.0
C244 C 0.5506 0.58742 0.4604 0.0
C245 C 0.61727 0.63612 0.44729 0.0
C246 C 0.62619 0.67864 0.41561 0.0
C247 C 0.56655 0.66845 0.39631 0.0
C248 C 0.50026 0.61956 0.40909 0.0
C249 C 0.17075 0.40227 0.47256 0.0
C250 C 0.23771 0.54794 0.40453 0.0
C251 C 1.06937 0.30425 0.37197 0.0
C252 C 1.02849 0.22952 0.37671 0.0
C253 C 0.95768 0.19953 0.38155 0.0
C254 C 0.91815 0.12971 0.38951 0.0
C255 C 0.94862 0.08811 0.39279 0.0
C256 C 1.01989 0.1181 0.3878 0.0
C257 C 1.05973 0.18867 0.37982 0.0
C258 C 0.28277 0.43696 0.33543 0.0
C259 C 0.3003 0.34026 0.39746 0.0
O260 O 0.39387 0.46742 0.44347 0.0
O261 O 0.37451 0.54962 0.45721 0.0
O262 O 0.21092 0.38783 0.45271 0.0
O263 O 0.21193 0.39032 0.45242 0.0
O264 O 0.29682 0.55494 0.41368 0.0
O265 O 0.18626 0.48533 0.39539 0.0
O266 O 0.12086 0.32704 0.34843 0.0
O267 O 1.08671 0.3389 0.40358 0.0
O268 O 0.2399 0.3729 0.34131 0.0
O269 O 0.28047 0.47237 0.36328 0.0
O270 O 0.23364 0.31655 0.40241 0.0
O271 O 0.34025 0.40636 0.39496 0.0
H272 H 0.54539 0.55716 0.48566 0.0
H273 H 0.66167 0.644 0.46349 0.0
H274 H 0.57117 0.70124 0.37234 0.0
H275 H 0.45591 0.61438 0.39382 0.0
H276 H 0.93298 0.23039 0.37979 0.0
H277 H 0.86331 0.10855 0.39331 0.0
H278 H 1.04456 0.0873 0.38998 0.0
H279 H 0.11481 0.21138 0.37647 0.0
La280 La 0.77362 0.89509 0.4257 0.0
La281 La 0.85356 0.85689 0.39804 0.0
C282 C 0.70691 0.94665 0.45601 0.0
C283 C 0.65529 0.96398 0.4402 0.0
C284 C 0.65499 1.02403 0.45173 0.0
C285 C 0.60559 1.03991 0.43737 0.0
C286 C 0.555 0.99567 0.41138 0.0
C287 C 0.55781 0.9375 0.39858 0.0
C288 C 0.6073 0.92215 0.41251 0.0
C289 C 0.82888 0.82354 0.48003 0.0
C290 C 0.69156 0.74575 0.41015 0.0
C291 C 0.93896 0.8184 0.38312 0.0
C292 C 1.01354 0.86183 0.37757 0.0
C293 C 1.0486 0.83928 0.35418 0.0
C294 C 0.12027 0.87599 0.353 0.0
C295 C 0.15785 0.93554 0.37539 0.0
C296 C 0.12265 0.96144 0.39621 0.0
C297 C 1.05077 0.92466 0.39734 0.0
C298 C 0.81105 0.89854 0.33965 0.0
C299 C 0.90332 1.01394 0.40014 0.0
O300 O 0.76914 0.983 0.44234 0.0
O301 O 0.68882 0.88137 0.45878 0.0
O302 O 0.84698 0.87785 0.4589 0.0
O303 O 0.84432 0.87624 0.45859 0.0
O304 O 0.68521 0.79996 0.41219 0.0
O305 O 0.7548 0.75431 0.40716 0.0
O306 O 0.89987 0.82317 0.3573 0.0
O307 O 0.91752 0.81987 0.41734 0.0
O308 O 0.87415 0.9177 0.34726 0.0
O309 O 0.77254 0.86201 0.36706 0.0
O310 O 0.92503 0.9697 0.40646 0.0
O311 O 0.83751 0.98971 0.39756 0.0
H312 H 0.69203 1.05774 0.47263 0.0
H313 H 0.60449 0.08445 0.44816 0.0
H314 H 0.51951 0.90185 0.37875 0.0
H315 H 0.60681 0.87642 0.40225 0.0
H316 H 1.02083 0.7918 0.33822 0.0
H317 H 0.14644 0.85543 0.33624 0.0
H318 H 0.15041 1.00688 0.4138 0.0
H319 H 1.02457 0.94339 0.4154 0.0
La320 La 0.33916 0.93752 0.4132 0.0
La321 La 0.3889 1.05899 0.38808 0.0
C322 C 0.27752 0.81671 0.44194 0.0
C323 C 0.26079 0.74655 0.42843 0.0
C324 C 0.20591 0.68665 0.44482 0.0
C325 C 0.19237 0.62036 0.43392 0.0
C326 C 0.23344 0.61237 0.4063 0.0
C327 C 0.28615 0.67243 0.3887 0.0
C328 C 0.2993 0.73837 0.39934 0.0
C329 C 0.4036 1.05861 0.47187 0.0
C330 C 0.49048 0.99832 0.4043 0.0
C331 C 0.43864 0.18629 0.37715 0.0
C332 C 0.40267 0.2254 0.37942 0.0
C333 C 0.43886 0.29331 0.39188 0.0
C334 C 0.40427 0.32911 0.39847 0.0
C335 C 0.33257 0.29761 0.3929 0.0
C336 C 0.29592 0.22922 0.38058 0.0
C337 C 0.33096 0.19329 0.37374 0.0
C338 C 0.35277 0.98133 0.32749 0.0
C339 C 0.23108 0.96026 0.38233 0.0
O340 O 0.24665 0.84474 0.42398 0.0
O341 O 0.34236 0.86211 0.44818 0.0
O342 O 0.35416 1.02648 0.44731 0.0
O343 O 0.35549 1.02535 0.44707 0.0
O344 O 0.43375 0.93951 0.40512 0.0
O345 O 0.48661 1.05537 0.39992 0.0
O346 O 0.42041 0.14191 0.34962 0.0
O347 O 0.44287 0.16004 0.40937 0.0
O348 O 0.33814 1.02877 0.33413 0.0
O349 O 0.38314 0.97322 0.35625 0.0
O350 O 0.27659 1.02353 0.39312 0.0
O351 O 0.25151 0.91556 0.37978 0.0
H352 H 0.17505 0.69123 0.46716 0.0
H353 H 0.15305 0.57578 0.44904 0.0
H354 H 0.32001 0.66849 0.36805 0.0
H355 H 0.34136 0.78314 0.38578 0.0
H356 H 0.49374 0.31835 0.39712 0.0
H357 H 0.43417 0.38188 0.40809 0.0
H358 H 0.24097 0.20416 0.37568 0.0
H359 H 0.30203 0.14043 0.3643 0.0
La360 La 0.85603 0.92301 0.21819 0.0
La361 La 0.76681 0.79805 0.2417 0.0
C362 C 0.93655 1.04192 0.19129 0.0
C363 C 0.97499 0.11218 0.20924 0.0
C364 C 0.97624 0.16954 0.1918 0.0
C365 C 1.01836 0.23674 0.20622 0.0
C366 C 1.06064 0.24841 0.23839 0.0
C367 C 1.05576 0.19046 0.25719 0.0
C368 C 1.01332 0.12349 0.24308 0.0
C369 C 0.76851 0.80563 0.15711 0.0
C370 C 0.92964 0.85518 0.24808 0.0
C371 C 0.67214 0.67471 0.24772 0.0
C372 C 0.59691 0.64954 0.24522 0.0
C373 C 0.5521 0.60661 0.27371 0.0
C374 C 0.48092 0.578 0.26954 0.0
C375 C 0.45262 0.59141 0.23677 0.0
C376 C 0.49737 0.63807 0.20947 0.0
C377 C 0.56888 0.66721 0.21376 0.0
C378 C 0.79182 0.88314 0.29975 0.0
C379 C 0.71671 0.90345 0.22894 0.0
O380 O 0.86937 1.01248 0.1899 0.0
O381 O 0.95587 0.99758 0.20075 0.0
O382 O 0.81432 0.82876 0.1842 0.0
O383 O 0.81311 0.83073 0.18417 0.0
O384 O 0.93287 0.91491 0.24972 0.0
O385 O 0.86801 0.79866 0.24339 0.0
O386 O 0.7057 0.71162 0.27735 0.0
O387 O 0.70638 0.70121 0.21646 0.0
O388 O 0.73242 0.83272 0.29076 0.0
O389 O 0.83576 0.88626 0.27604 0.0
O390 O 0.69962 0.83906 0.22147 0.0
O391 O 0.78063 0.94719 0.23567 0.0
H392 H 0.94706 0.16283 0.16589 0.0
H393 H 1.02217 0.27997 0.19029 0.0
H394 H 1.08843 0.19736 0.28157 0.0
H395 H 1.01312 0.08083 0.25777 0.0
H396 H 0.57188 0.59283 0.29842 0.0
H397 H 0.44746 0.54129 0.29085 0.0
H398 H 0.47722 0.64805 0.18358 0.0
H399 H 0.60198 0.70126 0.19144 0.0
La400 La 0.31579 0.98656 0.20572 0.0
La401 La 0.43965 1.01663 0.22486 0.0
C402 C 0.1949 0.94271 0.18129 0.0
C403 C 0.12703 0.9119 0.20148 0.0
C404 C 1.06669 0.86237 0.18319 0.0
C405 C 1.00193 0.8357 0.20102 0.0
C406 C 0.99576 0.859 0.23735 0.0
C407 C 1.05668 0.90614 0.25639 0.0
C408 C 0.12149 0.9315 0.23895 0.0
C409 C 0.43143 0.07881 0.15035 0.0
C410 C 0.39114 0.13229 0.22872 0.0
C411 C 0.56272 1.04396 0.22282 0.0
C412 C 0.59424 1.00067 0.22936 0.0
C413 C 0.6537 1.02634 0.25142 0.0
C414 C 0.68999 0.9911 0.25314 0.0
C415 C 0.66826 0.9297 0.23236 0.0
C416 C 0.60595 0.90105 0.21244 0.0
C417 C 0.56902 0.93627 0.21101 0.0
C418 C 0.36613 0.97316 0.28781 0.0
C419 C 0.32225 0.86134 0.22666 0.0
O420 O 0.2252 0.90583 0.18166 0.0
O421 O 0.23886 1.00798 0.1876 0.0
O422 O 0.40291 1.01805 0.16632 0.0
O423 O 0.4015 1.01905 0.16716 0.0
O424 O 0.3292 0.07933 0.22914 0.0
O425 O 0.44493 0.12169 0.22508 0.0
O426 O 0.53681 1.0594 0.25217 0.0
O427 O 0.52265 1.02656 0.19316 0.0
O428 O 0.41402 0.96013 0.27861 0.0
O429 O 0.35998 1.00989 0.2622 0.0
O430 O 0.38759 0.90211 0.21689 0.0
O431 O 0.28438 0.8893 0.23116 0.0
H432 H 1.06943 0.84672 0.15429 0.0
H433 H 0.95617 0.80167 0.18494 0.0
H434 H 1.05382 0.92689 0.28384 0.0
H435 H 0.16702 0.96886 0.25413 0.0
H436 H 0.67374 0.07515 0.26606 0.0
H437 H 0.73722 1.01398 0.26957 0.0
H438 H 0.58787 0.85387 0.19641 0.0
H439 H 0.52238 0.91453 0.19412 0.0
La440 La 0.26435 0.40019 0.21262 0.0
La441 La 0.22194 0.48238 0.24057 0.0
C442 C 0.30574 0.32449 0.18205 0.0
C443 C 0.3406 0.28661 0.19731 0.0
C444 C 0.38186 0.27171 0.17331 0.0
C445 C 0.40798 0.22923 0.1859 0.0
C446 C 0.39312 0.19951 0.22266 0.0
C447 C 0.3547 0.21739 0.24733 0.0
C448 C 0.32953 0.26075 0.23505 0.0
C449 C 0.22649 0.48894 0.1559 0.0
C450 C 0.12363 0.31722 0.24434 0.0
C451 C 0.17998 0.56695 0.25093 0.0
C452 C 0.21895 0.64309 0.25169 0.0
C453 C 0.18259 0.67824 0.24852 0.0
C454 C 0.21705 0.74861 0.24051 0.0
C455 C 0.28916 0.78621 0.23508 0.0
C456 C 0.32618 0.75144 0.23933 0.0
C457 C 0.29128 0.68042 0.2477 0.0
C458 C 0.28742 0.45869 0.29596 0.0
C459 C 0.38023 0.54118 0.2273 0.0
O460 O 0.34129 0.39191 0.18183 0.0
O461 O 0.24238 0.30239 0.19325 0.0
O462 O 0.20702 0.44089 0.18182 0.0
O463 O 0.21006 0.44217 0.18172 0.0
O464 O 0.18188 0.31729 0.24292 0.0
O465 O 0.12486 0.37743 0.24202 0.0
O466 O 0.18809 0.53277 0.2788 0.0
O467 O 0.18247 0.54201 0.21806 0.0
O468 O 0.29225 0.51714 0.28875 0.0
O469 O 0.24809 0.41506 0.27156 0.0
O470 O 0.33059 0.55626 0.22246 0.0
O471 O 0.36341 0.47723 0.23037 0.0
H472 H 0.39067 0.28978 0.14398 0.0
H473 H 0.43401 0.21383 0.16567 0.0
H474 H 0.33965 0.19357 0.27533 0.0
H475 H 0.29809 0.27091 0.25448 0.0
H476 H 0.12696 0.65068 0.25067 0.0
H477 H 0.18625 0.77319 0.23771 0.0
H478 H 0.38157 0.77875 0.23592 0.0
H479 H 0.3206 0.65437 0.24986 0.0
La480 La 0.95377 0.79759 0.76218 0.0
La481 La 0.83542 0.70982 0.73589 0.0
C482 C 1.07018 0.86996 0.79339 0.0
C483 C 0.14141 0.90909 0.77729 0.0
C484 C 0.1983 0.9388 0.8019 0.0
C485 C 0.26518 0.98036 0.7874 0.0
C486 C 0.27778 0.99246 0.74791 0.0
C487 C 0.22079 0.96061 0.7231 0.0
C488 C 0.15352 0.9188 0.73756 0.0
C489 C 0.82793 0.77023 0.81016 0.0
C490 C 0.88696 0.87427 0.73484 0.0
C491 C 0.71005 0.62001 0.72783 0.0
C492 C 0.67449 0.5448 0.72296 0.0
C493 C 0.60579 0.51044 0.71157 0.0
C494 C 0.56661 0.43905 0.71476 0.0
C495 C 0.59516 0.4003 0.72972 0.0
C496 C 0.66528 0.43434 0.739 0.0
C497 C 0.70472 0.5062 0.73561 0.0
C498 C 0.92091 0.74609 0.67756 0.0
C499 C 0.94674 0.66484 0.74318 0.0
O500 O 1.03946 0.80305 0.79017 0.0
O501 O 1.02825 0.89297 0.78523 0.0
O502 O 0.85974 0.73933 0.79671 0.0
O503 O 0.86122 0.74197 0.79589 0.0
O504 O 0.94788 0.88176 0.73901 0.0
O505 O 0.83215 0.81031 0.73467 0.0
O506 O 0.74811 0.65909 0.69981 0.0
O507 O 0.7409 0.64057 0.76052 0.0
O508 O 0.87432 0.68392 0.68589 0.0
O509 O 0.92208 0.78657 0.70312 0.0
O510 O 0.88024 0.64203 0.74842 0.0
O511 O 0.98701 0.73077 0.73994 0.0
H512 H 0.19077 0.93277 0.83259 0.0
H513 H 0.30631 1.00872 0.80746 0.0
H514 H 0.22774 0.97167 0.6927 0.0
H515 H 0.11063 0.89655 0.7178 0.0
H516 H 0.58139 0.53903 0.702 0.0
H517 H 0.51289 0.41458 0.7067 0.0
H518 H 0.68884 0.406 0.75021 0.0
H519 H 0.75783 0.53184 0.74478 0.0
La520 La 0.4151 0.20377 0.75609 0.0
La521 La 0.50445 0.17021 0.73558 0.0
C522 C 0.34175 0.25079 0.78186 0.0
C523 C 0.30131 0.27811 0.76223 0.0
C524 C 0.29925 0.33525 0.7771 0.0
C525 C 0.25709 0.35805 0.76033 0.0
C526 C 0.21568 0.32373 0.72858 0.0
C527 C 0.22192 0.26992 0.71209 0.0
C528 C 0.26457 0.24774 0.72849 0.0
C529 C 0.4399 0.11404 0.81207 0.0
C530 C 0.34111 1.0568 0.73599 0.0
C531 C 0.59935 0.14154 0.73256 0.0
C532 C 0.67456 0.18882 0.72906 0.0
C533 C 0.71208 0.17615 0.70166 0.0
C534 C 0.78379 0.21496 0.70146 0.0
C535 C 0.81965 0.26694 0.72885 0.0
C536 C 0.78228 0.28365 0.75433 0.0
C537 C 0.71013 0.24496 0.75437 0.0
C538 C 0.47062 0.21348 0.67335 0.0
C539 C 0.54915 0.32568 0.73661 0.0
O540 O 0.40847 0.28772 0.77785 0.0
O541 O 0.31991 0.18483 0.77828 0.0
O542 O 0.47221 0.17361 0.79495 0.0
O543 O 0.4698 0.17261 0.79418 0.0
O544 O 0.33319 0.11036 0.73452 0.0
O545 O 0.40506 1.06649 0.73845 0.0
O546 O 0.56071 0.13506 0.70313 0.0
O547 O 0.57242 0.14742 0.7641 0.0
O548 O 0.5322 0.22937 0.68295 0.0
O549 O 0.42897 0.17606 0.69914 0.0
O550 O 0.57016 0.28255 0.74706 0.0
O551 O 0.48392 0.30044 0.73061 0.0
H552 H 0.32792 0.36035 0.80272 0.0
H553 H 0.25223 0.39844 0.77421 0.0
H554 H 0.18989 0.24166 0.688 0.0
H555 H 0.26631 0.20472 0.71572 0.0
H556 H 0.68618 0.13426 0.68152 0.0
H557 H 0.81157 0.20134 0.68121 0.0
H558 H 0.80855 0.32287 0.77587 0.0
H559 H 0.6825 0.25702 0.77551 0.0
La560 La 1.00864 0.26585 0.75079 0.0
La561 La 1.04922 0.38713 0.72243 0.0
C562 C 0.96337 0.14836 0.78168 0.0
C563 C 0.93188 0.07692 0.76528 0.0
C564 C 0.88217 1.01933 0.78591 0.0
C565 C 0.85901 0.95167 0.77279 0.0
C566 C 0.88477 0.93954 0.73883 0.0
C567 C 0.93088 0.99737 0.71694 0.0
C568 C 0.95361 1.0649 0.72975 0.0
C569 C 1.03831 0.39178 0.80582 0.0
C570 C 0.15163 0.32616 0.72172 0.0
C571 C 1.08787 0.51284 0.71053 0.0
C572 C 1.04958 0.55005 0.7173 0.0
C573 C 1.08528 0.61679 0.73199 0.0
C574 C 1.05049 0.65164 0.74172 0.0
C575 C 0.97858 0.62096 0.73714 0.0
C576 C 0.9421 0.5533 0.7231 0.0
C577 C 0.97736 0.51807 0.71331 0.0
C578 C 0.99234 0.29592 0.66629 0.0
C579 C 0.89304 0.28992 0.73495 0.0
O580 O 0.9275 0.17959 0.77889 0.0
O581 O 1.02838 0.19063 0.77395 0.0
O582 O 1.06205 0.36317 0.78248 0.0
O583 O 1.05786 0.36111 0.78233 0.0
O584 O 1.0946 0.26688 0.72415 0.0
O585 O 0.14821 0.38392 0.72197 0.0
O586 O 1.06647 0.46686 0.68358 0.0
O587 O 1.10247 0.49016 0.74113 0.0
O588 O 0.98107 0.34558 0.6735 0.0
O589 O 1.03145 0.29524 0.69188 0.0
O590 O 0.94204 0.35389 0.74165 0.0
O591 O 0.911 0.24399 0.73017 0.0
H592 H 0.86397 1.02647 0.81327 0.0
H593 H 0.82611 0.90869 0.79097 0.0
H594 H 0.95358 0.99037 0.69121 0.0
H595 H 0.99118 0.10774 0.71276 0.0
H596 H 0.14044 0.64206 0.73625 0.0
H597 H 1.08059 0.70357 0.75261 0.0
H598 H 0.88701 0.5284 0.71884 0.0
H599 H 0.94821 0.46592 0.70267 0.0
La600 La 0.50786 0.24567 0.54995 0.0
La601 La 0.42196 0.12183 0.57305 0.0
C602 C 0.58439 0.3654 0.5231 0.0
C603 C 0.62104 0.4347 0.54205 0.0
C604 C 0.62876 0.49379 0.5233 0.0
C605 C 0.66982 0.55994 0.53918 0.0
C606 C 0.70482 0.56882 0.57401 0.0
C607 C 0.69328 0.50919 0.59386 0.0
C608 C 0.65152 0.44319 0.57836 0.0
C609 C 0.41989 0.12816 0.48794 0.0
C610 C 0.58597 0.17915 0.5747 0.0
C611 C 0.32879 0.99727 0.57917 0.0
C612 C 0.25288 0.96823 0.58121 0.0
C613 C 0.21294 0.91243 0.60527 0.0
C614 C 0.1411 0.87866 0.60325 0.0
C615 C 1.10705 0.89948 0.57698 0.0
C616 C 0.14669 0.95842 0.55477 0.0
C617 C 0.219 0.99249 0.55685 0.0
C618 C 0.45181 0.20344 0.63313 0.0
C619 C 0.37009 0.22769 0.56672 0.0
O620 O 0.51704 0.33396 0.52226 0.0
O621 O 0.60601 0.32255 0.53166 0.0
O622 O 0.46591 0.15232 0.51492 0.0
O623 O 0.46479 0.15425 0.51493 0.0
O624 O 0.58966 0.23905 0.57667 0.0
O625 O 0.52375 0.12261 0.57138 0.0
O626 O 0.36657 1.03294 0.60811 0.0
O627 O 0.35646 1.02715 0.54706 0.0
O628 O 0.39138 0.15513 0.62386 0.0
O629 O 0.49432 0.20817 0.60794 0.0
O630 O 0.35243 0.16361 0.55773 0.0
O631 O 0.43474 0.27063 0.57191 0.0
H632 H 0.6059 0.48913 0.49539 0.0
H633 H 0.67931 0.60456 0.52256 0.0
H634 H 0.72066 0.51393 0.62025 0.0
H635 H 0.64609 0.39897 0.59397 0.0
H636 H 0.23722 0.89303 0.6245 0.0
H637 H 0.11196 0.83374 0.6212 0.0
H638 H 0.12225 0.97549 0.5342 0.0
H639 H 0.24835 1.03592 0.538 0.0
La640 La 0.97315 0.30778 0.54271 0.0
La641 La 1.09476 0.34225 0.57053 0.0
C642 C 0.8566 0.26998 0.51333 0.0
C643 C 0.78651 0.236 0.53164 0.0
C644 C 0.72716 0.19154 0.51069 0.0
C645 C 0.66089 0.16463 0.52689 0.0
C646 C 0.65207 0.18219 0.56429 0.0
C647 C 0.71172 0.22407 0.58581 0.0
C648 C 0.77787 0.24975 0.56996 0.0
C649 C 1.09962 0.34603 0.48521 0.0
C650 C 1.03865 0.4494 0.57397 0.0
C651 C 0.21843 0.37205 0.58007 0.0
C652 C 0.24867 0.32616 0.58183 0.0
C653 C 0.30729 0.34498 0.60391 0.0
C654 C 0.34321 0.30915 0.60053 0.0
C655 C 0.32171 0.25346 0.57489 0.0
C656 C 0.26022 0.23127 0.55473 0.0
C657 C 0.22417 0.26744 0.55808 0.0
C658 C 1.00351 0.28505 0.62671 0.0
C659 C 0.98877 0.18552 0.55926 0.0
O660 O 0.88745 0.23359 0.51128 0.0
O661 O 0.89949 0.33322 0.52397 0.0
O662 O 1.07137 0.36336 0.51216 0.0
O663 O 1.06951 0.36048 0.51199 0.0
O664 O 0.97825 0.39351 0.57193 0.0
O665 O 1.09539 0.44381 0.57226 0.0
O666 O 0.17936 0.37071 0.6082 0.0
O667 O 0.19177 0.37244 0.5473 0.0
O668 O 1.05293 0.2734 0.61938 0.0
O669 O 1.00352 0.32524 0.60152 0.0
O670 O 1.05421 0.23222 0.55352 0.0
O671 O 0.94512 0.20696 0.56196 0.0
H672 H 0.73188 0.18028 0.48111 0.0
H673 H 0.61628 0.13513 0.50901 0.0
H674 H 0.70711 0.24058 0.61422 0.0
H675 H 0.8223 0.28327 0.58716 0.0
H676 H 0.32729 0.38946 0.62246 0.0
H677 H 0.38999 0.3272 0.61701 0.0
H678 H 0.24237 0.18895 0.53475 0.0
H679 H 0.179 0.25148 0.54052 0.0
La680 La 0.91248 0.71439 0.55357 0.0
La681 La 0.87585 0.79929 0.57945 0.0
C682 C 0.95451 0.63946 0.52355 0.0
C683 C 0.98743 0.60137 0.54043 0.0
C684 C 1.03743 0.59414 0.51991 0.0
C685 C 1.0625 0.55165 0.53374 0.0
C686 C 1.03774 0.51486 0.56831 0.0
C687 C 0.99117 0.52587 0.58995 0.0
C688 C 0.96692 0.56897 0.57644 0.0
C689 C 0.88215 0.80664 0.49511 0.0
C690 C 0.76941 0.63519 0.5817 0.0
C691 C 0.84386 0.89202 0.58765 0.0
C692 C 0.88913 0.96809 0.584 0.0
C693 C 0.87579 1.01212 0.6059 0.0
C694 C 0.91214 0.08318 0.5991 0.0
C695 C 0.96313 0.11245 0.5703 0.0
C696 C 0.97971 1.06904 0.54988 0.0
C697 C 0.94283 0.99745 0.55657 0.0
C698 C 0.93016 0.7666 0.63755 0.0
C699 C 1.0327 0.85145 0.56968 0.0
O700 O 0.9907 0.70679 0.524 0.0
O701 O 0.89034 0.6174 0.53303 0.0
O702 O 0.85971 0.75762 0.52062 0.0
O703 O 0.86346 0.75929 0.52065 0.0
O704 O 0.82564 0.63139 0.58082 0.0
O705 O 0.77478 0.69746 0.58004 0.0
O706 O 0.85355 0.86082 0.61645 0.0
O707 O 0.83518 0.85797 0.55641 0.0
O708 O 0.94228 0.82749 0.62921 0.0
O709 O 0.89106 0.72543 0.61234 0.0
O710 O 0.98587 0.86917 0.56182 0.0
O711 O 1.0113 0.78681 0.57464 0.0
H712 H 1.05443 0.61849 0.49217 0.0
H713 H 1.09635 0.5426 0.51567 0.0
H714 H 0.96956 0.49705 0.61615 0.0
H715 H 0.9292 0.57397 0.59333 0.0
H716 H 0.83536 0.99138 0.62727 0.0
H717 H 0.89837 0.11531 0.61562 0.0
H718 H 1.01803 0.0897 0.52737 0.0
H719 H 0.95444 0.96481 0.5391 0.0
loop_
_geom_bond_atom_site_label_1
_geom_bond_atom_site_label_2
_geom_bond_distance
_geom_bond_site_symmetry_2
_ccdc_geom_bond_type
La0 C2 2.928 . S
La0 O20 2.521 . S
La0 O21 2.628 . S
La0 O22 2.554 . S
La0 O23 2.757 1_545 S
La0 O24 2.470 . S
La0 O29 2.482 . S
La0 O31 2.503 1_545 S
La1 C11 2.928 . S
La1 O23 2.482 . S
La1 O25 2.503 1_565 S
La1 O26 2.521 . S
La1 O27 2.628 . S
La1 O28 2.554 . S
La1 O29 2.757 1_565 S
La1 O30 2.470 . S
C2 La0 2.928 . S
C2 C3 1.503 . S
C2 O20 1.261 . S
C2 O21 1.243 . S
C3 C2 1.503 . S
C3 C4 1.394 . S
C3 C8 1.373 . S
C4 C3 1.394 . S
C4 C5 1.380 . S
C4 H32 0.930 . S
C5 C4 1.380 . S
C5 C6 1.376 . S
C5 H33 0.930 . S
C6 C5 1.376 . S
C6 C7 1.370 . S
C7 C6 1.370 . S
C7 C8 1.396 . S
C7 H34 0.929 . S
C8 C3 1.373 . S
C8 C7 1.396 . S
C8 H35 0.929 . S
C9 O22 1.240 . S
C9 O23 1.289 1_545 S
C10 O24 1.258 . S
C10 O25 1.256 . S
C11 La1 2.928 . S
C11 C12 1.503 . S
C11 O26 1.261 . S
C11 O27 1.243 . S
C12 C11 1.503 . S
C12 C13 1.394 . S
C12 C17 1.373 . S
C13 C12 1.394 . S
C13 C14 1.380 . S
C13 H36 0.930 . S
C14 C13 1.380 . S
C14 C15 1.376 . S
C14 H37 0.930 . S
C15 C14 1.376 . S
C15 C16 1.370 . S
C16 C15 1.370 . S
C16 C17 1.396 . S
C16 H38 0.929 . S
C17 C12 1.373 . S
C17 C16 1.396 . S
C17 H39 0.929 . S
C18 O28 1.240 1_545 S
C18 O29 1.289 . S
C19 O30 1.258 . S
C19 O31 1.256 . S
O20 La0 2.521 . S
O20 C2 1.261 . S
O21 La0 2.628 . S
O21 C2 1.243 . S
O22 La0 2.554 . S
O22 C9 1.240 . S
O23 La0 2.757 1_565 S
O23 La1 2.482 . S
O23 C9 1.289 1_565 S
O24 La0 2.470 . S
O24 C10 1.258 . S
O25 La1 2.503 1_545 S
O25 C10 1.256 . S
O26 La1 2.521 . S
O26 C11 1.261 . S
O27 La1 2.628 . S
O27 C11 1.243 . S
O28 La1 2.554 . S
O28 C18 1.240 1_565 S
O29 La0 2.482 . S
O29 La1 2.757 1_545 S
O29 C18 1.289 . S
O30 La1 2.470 . S
O30 C19 1.258 . S
O31 La0 2.503 1_565 S
O31 C19 1.256 . S
H32 C4 0.930 . S
H33 C5 0.930 . S
H34 C7 0.929 . S
H35 C8 0.929 . S
H36 C13 0.930 . S
H37 C14 0.930 . S
H38 C16 0.929 . S
H39 C17 0.929 . S
La40 C42 2.928 . S
La40 O60 2.521 . S
La40 O61 2.628 . S
La40 O62 2.554 1_655 S
La40 O63 2.757 1_655 S
La40 O64 2.470 . S
La40 O69 2.482 1_655 S
La40 O71 2.503 1_655 S
La41 C51 2.928 . S
La41 O63 2.482 . S
La41 O65 2.503 1_455 S
La41 O66 2.521 . S
La41 O67 2.628 . S
La41 O68 2.554 . S
La41 O69 2.757 . S
La41 O70 2.470 . S
C42 La40 2.928 . S
C42 C43 1.503 . S
C42 O60 1.261 . S
C42 O61 1.243 . S
C43 C42 1.503 . S
C43 C44 1.394 . S
C43 C48 1.373 . S
C44 C43 1.394 . S
C44 C45 1.380 . S
C44 H72 0.930 . S
C45 C44 1.380 . S
C45 C46 1.376 . S
C45 H73 0.930 . S
C46 C45 1.376 . S
C46 C47 1.370 . S
C47 C46 1.370 . S
C47 C48 1.396 . S
C47 H74 0.929 . S
C48 C43 1.373 . S
C48 C47 1.396 . S
C48 H75 0.929 . S
C49 O62 1.240 . S
C49 O63 1.289 . S
C50 O64 1.258 . S
C50 O65 1.256 . S
C51 La41 2.928 . S
C51 C52 1.503 . S
C51 O66 1.261 . S
C51 O67 1.243 . S
C52 C51 1.503 . S
C52 C53 1.394 . S
C52 C57 1.373 . S
C53 C52 1.394 . S
C53 C54 1.380 . S
C53 H76 0.930 . S
C54 C53 1.380 . S
C54 C55 1.376 . S
C54 H77 0.930 . S
C55 C54 1.376 . S
C55 C56 1.370 . S
C56 C55 1.370 . S
C56 C57 1.396 . S
C56 H78 0.929 . S
C57 C52 1.373 . S
C57 C56 1.396 . S
C57 H79 0.929 . S
C58 O68 1.240 . S
C58 O69 1.289 . S
C59 O70 1.258 . S
C59 O71 1.256 . S
O60 La40 2.521 . S
O60 C42 1.261 . S
O61 La40 2.628 . S
O61 C42 1.243 . S
O62 La40 2.554 1_455 S
O62 C49 1.240 . S
O63 La40 2.757 1_455 S
O63 La41 2.482 . S
O63 C49 1.289 . S
O64 La40 2.470 . S
O64 C50 1.258 . S
O65 La41 2.503 1_655 S
O65 C50 1.256 . S
O66 La41 2.521 . S
O66 C51 1.261 . S
O67 La41 2.628 . S
O67 C51 1.243 . S
O68 La41 2.554 . S
O68 C58 1.240 . S
O69 La40 2.482 1_455 S
O69 La41 2.757 . S
O69 C58 1.289 . S
O70 La41 2.470 . S
O70 C59 1.258 . S
O71 La40 2.503 1_455 S
O71 C59 1.256 . S
H72 C44 0.930 . S
H73 C45 0.930 . S
H74 C47 0.929 . S
H75 C48 0.929 . S
H76 C53 0.930 . S
H77 C54 0.930 . S
H78 C56 0.929 . S
H79 C57 0.929 . S
La80 C82 2.928 . S
La80 O100 2.521 . S
La80 O101 2.628 . S
La80 O102 2.554 . S
La80 O103 2.757 . S
La80 O104 2.470 . S
La80 O109 2.482 . S
La80 O111 2.503 . S
La81 C91 2.928 . S
La81 O103 2.482 . S
La81 O105 2.503 . S
La81 O106 2.521 . S
La81 O107 2.628 . S
La81 O108 2.554 . S
La81 O109 2.757 . S
La81 O110 2.470 . S
C82 La80 2.928 . S
C82 C83 1.503 . S
C82 O100 1.261 . S
C82 O101 1.243 . S
C83 C82 1.503 . S
C83 C84 1.394 . S
C83 C88 1.373 . S
C84 C83 1.394 . S
C84 C85 1.380 . S
C84 H112 0.930 . S
C85 C84 1.380 . S
C85 C86 1.376 . S
C85 H113 0.930 . S
C86 C85 1.376 . S
C86 C87 1.370 . S
C87 C86 1.370 . S
C87 C88 1.396 . S
C87 H114 0.929 . S
C88 C83 1.373 . S
C88 C87 1.396 . S
C88 H115 0.929 . S
C89 O102 1.240 . S
C89 O103 1.289 . S
C90 O104 1.258 . S
C90 O105 1.256 . S
C91 La81 2.928 . S
C91 C92 1.503 . S
C91 O106 1.261 . S
C91 O107 1.243 . S
C92 C91 1.503 . S
C92 C93 1.394 . S
C92 C97 1.373 . S
C93 C92 1.394 . S
C93 C94 1.380 . S
C93 H116 0.930 . S
C94 C93 1.380 . S
C94 C95 1.376 . S
C94 H117 0.930 . S
C95 C94 1.376 . S
C95 C96 1.370 . S
C96 C95 1.370 . S
C96 C97 1.396 . S
C96 H118 0.929 . S
C97 C92 1.373 . S
C97 C96 1.396 . S
C97 H119 0.929 . S
C98 O108 1.240 . S
C98 O109 1.289 . S
C99 O110 1.258 . S
C99 O111 1.256 . S
O100 La80 2.521 . S
O100 C82 1.261 . S
O101 La80 2.628 . S
O101 C82 1.243 . S
O102 La80 2.554 . S
O102 C89 1.240 . S
O103 La80 2.757 . S
O103 La81 2.482 . S
O103 C89 1.289 . S
O104 La80 2.470 . S
O104 C90 1.258 . S
O105 La81 2.503 . S
O105 C90 1.256 . S
O106 La81 2.521 . S
O106 C91 1.261 . S
O107 La81 2.628 . S
O107 C91 1.243 . S
O108 La81 2.554 . S
O108 C98 1.240 . S
O109 La80 2.482 . S
O109 La81 2.757 . S
O109 C98 1.289 . S
O110 La81 2.470 . S
O110 C99 1.258 . S
O111 La80 2.503 . S
O111 C99 1.256 . S
H112 C84 0.930 . S
H113 C85 0.930 . S
H114 C87 0.929 . S
H115 C88 0.929 . S
H116 C93 0.930 . S
H117 C94 0.930 . S
H118 C96 0.929 . S
H119 C97 0.929 . S
La120 C122 2.928 . S
La120 O140 2.521 . S
La120 O141 2.628 . S
La120 O142 2.554 . S
La120 O143 2.757 1_455 S
La120 O144 2.470 . S
La120 O149 2.482 . S
La120 O151 2.503 1_455 S
La121 C131 2.928 . S
La121 O143 2.482 . S
La121 O145 2.503 1_655 S
La121 O146 2.521 . S
La121 O147 2.628 . S
La121 O148 2.554 . S
La121 O149 2.757 1_655 S
La121 O150 2.470 . S
C122 La120 2.928 . S
C122 C123 1.503 . S
C122 O140 1.261 . S
C122 O141 1.243 . S
C123 C122 1.503 . S
C123 C124 1.394 . S
C123 C128 1.373 . S
C124 C123 1.394 . S
C124 C125 1.380 . S
C124 H152 0.930 . S
C125 C124 1.380 . S
C125 C126 1.376 . S
C125 H153 0.930 . S
C126 C125 1.376 . S
C126 C127 1.370 . S
C127 C126 1.370 . S
C127 C128 1.396 . S
C127 H154 0.929 . S
C128 C123 1.373 . S
C128 C127 1.396 . S
C128 H155 0.929 . S
C129 O142 1.240 . S
C129 O143 1.289 1_455 S
C130 O144 1.258 . S
C130 O145 1.256 . S
C131 La121 2.928 . S
C131 C132 1.503 . S
C131 O146 1.261 . S
C131 O147 1.243 . S
C132 C131 1.503 . S
C132 C133 1.394 . S
C132 C137 1.373 . S
C133 C132 1.394 . S
C133 C134 1.380 . S
C133 H156 0.930 . S
C134 C133 1.380 . S
C134 C135 1.376 . S
C134 H157 0.930 . S
C135 C134 1.376 . S
C135 C136 1.370 . S
C136 C135 1.370 . S
C136 C137 1.396 . S
C136 H158 0.929 . S
C137 C132 1.373 . S
C137 C136 1.396 . S
C137 H159 0.929 . S
C138 O148 1.240 1_455 S
C138 O149 1.289 . S
C139 O150 1.258 . S
C139 O151 1.256 . S
O140 La120 2.521 . S
O140 C122 1.261 . S
O141 La120 2.628 . S
O141 C122 1.243 . S
O142 La120 2.554 . S
O142 C129 1.240 . S
O143 La120 2.757 1_655 S
O143 La121 2.482 . S
O143 C129 1.289 1_655 S
O144 La120 2.470 . S
O144 C130 1.258 . S
O145 La121 2.503 1_455 S
O145 C130 1.256 . S
O146 La121 2.521 . S
O146 C131 1.261 . S
O147 La121 2.628 . S
O147 C131 1.243 . S
O148 La121 2.554 . S
O148 C138 1.240 1_655 S
O149 La120 2.482 . S
O149 La121 2.757 1_455 S
O149 C138 1.289 . S
O150 La121 2.470 . S
O150 C139 1.258 . S
O151 La120 2.503 1_655 S
O151 C139 1.256 . S
H152 C124 0.930 . S
H153 C125 0.930 . S
H154 C127 0.929 . S
H155 C128 0.929 . S
H156 C133 0.930 . S
H157 C134 0.930 . S
H158 C136 0.929 . S
H159 C137 0.929 . S
La160 C162 2.928 . S
La160 O180 2.521 . S
La160 O181 2.628 . S
La160 O182 2.554 . S
La160 O183 2.757 . S
La160 O184 2.470 . S
La160 O189 2.482 . S
La160 O191 2.503 . S
La161 C171 2.928 . S
La161 O183 2.482 . S
La161 O185 2.503 . S
La161 O186 2.521 . S
La161 O187 2.628 . S
La161 O188 2.554 . S
La161 O189 2.757 . S
La161 O190 2.470 . S
C162 La160 2.928 . S
C162 C163 1.503 . S
C162 O180 1.261 . S
C162 O181 1.243 . S
C163 C162 1.503 . S
C163 C164 1.394 . S
C163 C168 1.373 . S
C164 C163 1.394 . S
C164 C165 1.380 . S
C164 H192 0.930 . S
C165 C164 1.380 . S
C165 C166 1.376 . S
C165 H193 0.930 . S
C166 C165 1.376 . S
C166 C167 1.370 . S
C167 C166 1.370 . S
C167 C168 1.396 . S
C167 H194 0.929 . S
C168 C163 1.373 . S
C168 C167 1.396 . S
C168 H195 0.929 . S
C169 O182 1.240 . S
C169 O183 1.289 . S
C170 O184 1.258 . S
C170 O185 1.256 . S
C171 La161 2.928 . S
C171 C172 1.503 . S
C171 O186 1.261 . S
C171 O187 1.243 . S
C172 C171 1.503 . S
C172 C173 1.394 . S
C172 C177 1.373 . S
C173 C172 1.394 . S
C173 C174 1.380 . S
C173 H196 0.930 . S
C174 C173 1.380 . S
C174 C175 1.376 . S
C174 H197 0.930 . S
C175 C174 1.376 . S
C175 C176 1.370 . S
C176 C175 1.370 . S
C176 C177 1.396 . S
C176 H198 0.929 . S
C177 C172 1.373 . S
C177 C176 1.396 . S
C177 H199 0.929 . S
C178 O188 1.240 . S
C178 O189 1.289 . S
C179 O190 1.258 . S
C179 O191 1.256 . S
O180 La160 2.521 . S
O180 C162 1.261 . S
O181 La160 2.628 . S
O181 C162 1.243 . S
O182 La160 2.554 . S
O182 C169 1.240 . S
O183 La160 2.757 . S
O183 La161 2.482 . S
O183 C169 1.289 . S
O184 La160 2.470 . S
O184 C170 1.258 . S
O185 La161 2.503 . S
O185 C170 1.256 . S
O186 La161 2.521 . S
O186 C171 1.261 . S
O187 La161 2.628 . S
O187 C171 1.243 . S
O188 La161 2.554 . S
O188 C178 1.240 . S
O189 La160 2.482 . S
O189 La161 2.757 . S
O189 C178 1.289 . S
O190 La161 2.470 . S
O190 C179 1.258 . S
O191 La160 2.503 . S
O191 C179 1.256 . S
H192 C164 0.930 . S
H193 C165 0.930 . S
H194 C167 0.929 . S
H195 C168 0.929 . S
H196 C173 0.930 . S
H197 C174 0.930 . S
H198 C176 0.929 . S
H199 C177 0.929 . S
La200 C202 2.928 . S
La200 O220 2.521 . S
La200 O221 2.628 . S
La200 O222 2.554 1_565 S
La200 O223 2.757 1_565 S
La200 O224 2.470 . S
La200 O229 2.482 1_565 S
La200 O231 2.503 1_565 S
La201 C211 2.928 . S
La201 O223 2.482 . S
La201 O225 2.503 1_545 S
La201 O226 2.521 . S
La201 O227 2.628 . S
La201 O228 2.554 . S
La201 O229 2.757 . S
La201 O230 2.470 . S
C202 La200 2.928 . S
C202 C203 1.503 . S
C202 O220 1.261 . S
C202 O221 1.243 . S
C203 C202 1.503 . S
C203 C204 1.394 . S
C203 C208 1.373 . S
C204 C203 1.394 . S
C204 C205 1.380 . S
C204 H232 0.930 . S
C205 C204 1.380 . S
C205 C206 1.376 . S
C205 H233 0.930 . S
C206 C205 1.376 . S
C206 C207 1.370 . S
C207 C206 1.370 . S
C207 C208 1.396 . S
C207 H234 0.929 . S
C208 C203 1.373 . S
C208 C207 1.396 . S
C208 H235 0.929 . S
C209 O222 1.240 . S
C209 O223 1.289 . S
C210 O224 1.258 . S
C210 O225 1.256 . S
C211 La201 2.928 . S
C211 C212 1.503 . S
C211 O226 1.261 . S
C211 O227 1.243 . S
C212 C211 1.503 . S
C212 C213 1.394 . S
C212 C217 1.373 . S
C213 C212 1.394 . S
C213 C214 1.380 . S
C213 H236 0.930 . S
C214 C213 1.380 . S
C214 C215 1.376 . S
C214 H237 0.930 . S
C215 C214 1.376 . S
C215 C216 1.370 . S
C216 C215 1.370 . S
C216 C217 1.396 . S
C216 H238 0.929 . S
C217 C212 1.373 . S
C217 C216 1.396 . S
C217 H239 0.929 . S
C218 O228 1.240 . S
C218 O229 1.289 . S
C219 O230 1.258 . S
C219 O231 1.256 . S
O220 La200 2.521 . S
O220 C202 1.261 . S
O221 La200 2.628 . S
O221 C202 1.243 . S
O222 La200 2.554 1_545 S
O222 C209 1.240 . S
O223 La200 2.757 1_545 S
O223 La201 2.482 . S
O223 C209 1.289 . S
O224 La200 2.470 . S
O224 C210 1.258 . S
O225 La201 2.503 1_565 S
O225 C210 1.256 . S
O226 La201 2.521 . S
O226 C211 1.261 . S
O227 La201 2.628 . S
O227 C211 1.243 . S
O228 La201 2.554 . S
O228 C218 1.240 . S
O229 La200 2.482 1_545 S
O229 La201 2.757 . S
O229 C218 1.289 . S
O230 La201 2.470 . S
O230 C219 1.258 . S
O231 La200 2.503 1_545 S
O231 C219 1.256 . S
H232 C204 0.930 . S
H233 C205 0.930 . S
H234 C207 0.929 . S
H235 C208 0.929 . S
H236 C213 0.930 . S
H237 C214 0.930 . S
H238 C216 0.929 . S
H239 C217 0.929 . S
La240 C242 2.928 . S
La240 O260 2.521 . S
La240 O261 2.628 . S
La240 O262 2.554 . S
La240 O263 2.757 . S
La240 O264 2.470 . S
La240 O269 2.482 . S
La240 O271 2.503 . S
La241 C251 2.928 1_455 S
La241 O263 2.482 . S
La241 O265 2.503 . S
La241 O266 2.521 1_455 S
La241 O267 2.628 1_455 S
La241 O268 2.554 . S
La241 O269 2.757 . S
La241 O270 2.470 . S
C242 La240 2.928 . S
C242 C243 1.503 . S
C242 O260 1.261 . S
C242 O261 1.243 . S
C243 C242 1.503 . S
C243 C244 1.394 . S
C243 C248 1.373 . S
C244 C243 1.394 . S
C244 C245 1.380 . S
C244 H272 0.930 . S
C245 C244 1.380 . S
C245 C246 1.376 . S
C245 H273 0.930 . S
C246 C245 1.376 . S
C246 C247 1.370 . S
C247 C246 1.370 . S
C247 C248 1.396 . S
C247 H274 0.929 . S
C248 C243 1.373 . S
C248 C247 1.396 . S
C248 H275 0.929 . S
C249 O262 1.240 . S
C249 O263 1.289 . S
C250 O264 1.258 . S
C250 O265 1.256 . S
C251 La241 2.928 1_655 S
C251 C252 1.503 . S
C251 O266 1.261 . S
C251 O267 1.243 . S
C252 C251 1.503 . S
C252 C253 1.394 . S
C252 C257 1.373 . S
C253 C252 1.394 . S
C253 C254 1.380 . S
C253 H276 0.930 . S
C254 C253 1.380 . S
C254 C255 1.369 1_545 S
C254 H277 0.930 . S
C255 C254 1.369 1_565 S
C255 C256 1.368 1_565 S
C256 C255 1.368 1_545 S
C256 C257 1.396 . S
C256 H278 0.929 1_545 S
C257 C252 1.373 . S
C257 C256 1.396 . S
C257 H279 0.929 . S
C258 O268 1.240 . S
C258 O269 1.289 . S
C259 O270 1.258 . S
C259 O271 1.256 . S
O260 La240 2.521 . S
O260 C242 1.261 . S
O261 La240 2.628 . S
O261 C242 1.243 . S
O262 La240 2.554 . S
O262 C249 1.240 . S
O263 La240 2.757 . S
O263 La241 2.482 . S
O263 C249 1.289 . S
O264 La240 2.470 . S
O264 C250 1.258 . S
O265 La241 2.503 . S
O265 C250 1.256 . S
O266 La241 2.521 1_655 S
O266 C251 1.261 . S
O267 La241 2.628 1_655 S
O267 C251 1.243 . S
O268 La241 2.554 . S
O268 C258 1.240 . S
O269 La240 2.482 . S
O269 La241 2.757 . S
O269 C258 1.289 . S
O270 La241 2.470 . S
O270 C259 1.258 . S
O271 La240 2.503 . S
O271 C259 1.256 . S
H272 C244 0.930 . S
H273 C245 0.930 . S
H274 C247 0.929 . S
H275 C248 0.929 . S
H276 C253 0.930 . S
H277 C254 0.930 . S
H278 C256 0.929 1_565 S
H279 C257 0.929 . S
La280 C282 2.928 . S
La280 O300 2.521 . S
La280 O301 2.628 . S
La280 O302 2.554 . S
La280 O303 2.757 . S
La280 O304 2.470 . S
La280 O309 2.482 . S
La280 O311 2.503 . S
La281 C291 2.928 . S
La281 O303 2.482 . S
La281 O305 2.503 . S
La281 O306 2.521 . S
La281 O307 2.628 . S
La281 O308 2.554 . S
La281 O309 2.757 . S
La281 O310 2.470 . S
C282 La280 2.928 . S
C282 C283 1.503 . S
C282 O300 1.261 . S
C282 O301 1.243 . S
C283 C282 1.503 . S
C283 C284 1.394 . S
C283 C288 1.373 . S
C284 C283 1.394 . S
C284 C285 1.380 . S
C284 H312 0.930 . S
C285 C284 1.380 . S
C285 C286 1.376 . S
C285 H313 0.930 . S
C286 C285 1.376 . S
C286 C287 1.370 . S
C287 C286 1.370 . S
C287 C288 1.396 . S
C287 H314 0.929 . S
C288 C283 1.373 . S
C288 C287 1.396 . S
C288 H315 0.929 . S
C289 O302 1.240 . S
C289 O303 1.289 . S
C290 O304 1.258 . S
C290 O305 1.256 . S
C291 La281 2.928 . S
C291 C292 1.503 . S
C291 O306 1.261 . S
C291 O307 1.243 . S
C292 C291 1.503 . S
C292 C293 1.394 . S
C292 C297 1.373 . S
C293 C292 1.394 . S
C293 C294 1.380 1_655 S
C293 H316 0.930 . S
C294 C293 1.380 1_455 S
C294 C295 1.376 . S
C294 H317 0.930 . S
C295 C294 1.376 . S
C295 C296 1.370 . S
C296 C295 1.370 . S
C296 C297 1.396 1_455 S
C296 H318 0.929 . S
C297 C292 1.373 . S
C297 C296 1.396 1_655 S
C297 H319 0.929 . S
C298 O308 1.240 . S
C298 O309 1.289 . S
C299 O310 1.258 . S
C299 O311 1.256 . S
O300 La280 2.521 . S
O300 C282 1.261 . S
O301 La280 2.628 . S
O301 C282 1.243 . S
O302 La280 2.554 . S
O302 C289 1.240 . S
O303 La280 2.757 . S
O303 La281 2.482 . S
O303 C289 1.289 . S
O304 La280 2.470 . S
O304 C290 1.258 . S
O305 La281 2.503 . S
O305 C290 1.256 . S
O306 La281 2.521 . S
O306 C291 1.261 . S
O307 La281 2.628 . S
O307 C291 1.243 . S
O308 La281 2.554 . S
O308 C298 1.240 . S
O309 La280 2.482 . S
O309 La281 2.757 . S
O309 C298 1.289 . S
O310 La281 2.470 . S
O310 C299 1.258 . S
O311 La280 2.503 . S
O311 C299 1.256 . S
H312 C284 0.930 . S
H313 C285 0.930 . S
H314 C287 0.929 . S
H315 C288 0.929 . S
H316 C293 0.930 . S
H317 C294 0.930 . S
H318 C296 0.929 . S
H319 C297 0.929 . S
La320 C322 2.928 . S
La320 O340 2.521 . S
La320 O341 2.628 . S
La320 O342 2.554 . S
La320 O343 2.757 . S
La320 O344 2.470 . S
La320 O349 2.482 . S
La320 O351 2.503 . S
La321 C331 2.928 1_565 S
La321 O343 2.482 . S
La321 O345 2.503 . S
La321 O346 2.521 1_565 S
La321 O347 2.628 1_565 S
La321 O348 2.554 . S
La321 O349 2.757 . S
La321 O350 2.470 . S
C322 La320 2.928 . S
C322 C323 1.503 . S
C322 O340 1.261 . S
C322 O341 1.243 . S
C323 C322 1.503 . S
C323 C324 1.394 . S
C323 C328 1.373 . S
C324 C323 1.394 . S
C324 C325 1.380 . S
C324 H352 0.930 . S
C325 C324 1.380 . S
C325 C326 1.376 . S
C325 H353 0.930 . S
C326 C325 1.376 . S
C326 C327 1.370 . S
C327 C326 1.370 . S
C327 C328 1.396 . S
C327 H354 0.929 . S
C328 C323 1.373 . S
C328 C327 1.396 . S
C328 H355 0.929 . S
C329 O342 1.240 . S
C329 O343 1.289 . S
C330 O344 1.258 . S
C330 O345 1.256 . S
C331 La321 2.928 1_545 S
C331 C332 1.503 . S
C331 O346 1.261 . S
C331 O347 1.243 . S
C332 C331 1.503 . S
C332 C333 1.394 . S
C332 C337 1.373 . S
C333 C332 1.394 . S
C333 C334 1.380 . S
C333 H356 0.930 . S
C334 C333 1.380 . S
C334 C335 1.376 . S
C334 H357 0.930 . S
C335 C334 1.376 . S
C335 C336 1.370 . S
C336 C335 1.370 . S
C336 C337 1.396 . S
C336 H358 0.929 . S
C337 C332 1.373 . S
C337 C336 1.396 . S
C337 H359 0.929 . S
C338 O348 1.240 . S
C338 O349 1.289 . S
C339 O350 1.258 . S
C339 O351 1.256 . S
O340 La320 2.521 . S
O340 C322 1.261 . S
O341 La320 2.628 . S
O341 C322 1.243 . S
O342 La320 2.554 . S
O342 C329 1.240 . S
O343 La320 2.757 . S
O343 La321 2.482 . S
O343 C329 1.289 . S
O344 La320 2.470 . S
O344 C330 1.258 . S
O345 La321 2.503 . S
O345 C330 1.256 . S
O346 La321 2.521 1_545 S
O346 C331 1.261 . S
O347 La321 2.628 1_545 S
O347 C331 1.243 . S
O348 La321 2.554 . S
O348 C338 1.240 . S
O349 La320 2.482 . S
O349 La321 2.757 . S
O349 C338 1.289 . S
O350 La321 2.470 . S
O350 C339 1.258 . S
O351 La320 2.503 . S
O351 C339 1.256 . S
H352 C324 0.930 . S
H353 C325 0.930 . S
H354 C327 0.929 . S
H355 C328 0.929 . S
H356 C333 0.930 . S
H357 C334 0.930 . S
H358 C336 0.929 . S
H359 C337 0.929 . S
La360 C362 2.928 1_565 S
La360 O380 2.521 . S
La360 O381 2.628 . S
La360 O382 2.554 . S
La360 O383 2.757 . S
La360 O384 2.470 . S
La360 O389 2.482 . S
La360 O391 2.503 . S
La361 C371 2.928 . S
La361 O383 2.482 . S
La361 O385 2.503 . S
La361 O386 2.521 . S
La361 O387 2.628 . S
La361 O388 2.554 . S
La361 O389 2.757 . S
La361 O390 2.470 . S
C362 La360 2.928 1_545 S
C362 C363 1.503 . S
C362 O380 1.261 1_545 S
C362 O381 1.243 1_545 S
C363 C362 1.503 . S
C363 C364 1.394 . S
C363 C368 1.373 . S
C364 C363 1.394 . S
C364 C365 1.380 . S
C364 H392 0.930 . S
C365 C364 1.380 . S
C365 C366 1.376 1_655 S
C365 H393 0.930 1_655 S
C366 C365 1.376 1_455 S
C366 C367 1.370 . S
C367 C366 1.370 . S
C367 C368 1.396 1_455 S
C367 H394 0.929 . S
C368 C363 1.373 . S
C368 C367 1.396 1_655 S
C368 H395 0.929 . S
C369 O382 1.240 . S
C369 O383 1.289 . S
C370 O384 1.258 . S
C370 O385 1.256 . S
C371 La361 2.928 . S
C371 C372 1.503 . S
C371 O386 1.261 . S
C371 O387 1.243 . S
C372 C371 1.503 . S
C372 C373 1.394 . S
C372 C377 1.373 . S
C373 C372 1.394 . S
C373 C374 1.380 . S
C373 H396 0.930 . S
C374 C373 1.380 . S
C374 C375 1.376 . S
C374 H397 0.930 . S
C375 C374 1.376 . S
C375 C376 1.370 . S
C376 C375 1.370 . S
C376 C377 1.396 . S
C376 H398 0.929 . S
C377 C372 1.373 . S
C377 C376 1.396 . S
C377 H399 0.929 . S
C378 O388 1.240 . S
C378 O389 1.289 . S
C379 O390 1.258 . S
C379 O391 1.256 . S
O380 La360 2.521 . S
O380 C362 1.261 1_565 S
O381 La360 2.628 . S
O381 C362 1.243 1_565 S
O382 La360 2.554 . S
O382 C369 1.240 . S
O383 La360 2.757 . S
O383 La361 2.482 . S
O383 C369 1.289 . S
O384 La360 2.470 . S
O384 C370 1.258 . S
O385 La361 2.503 . S
O385 C370 1.256 . S
O386 La361 2.521 . S
O386 C371 1.261 . S
O387 La361 2.628 . S
O387 C371 1.243 . S
O388 La361 2.554 . S
O388 C378 1.240 . S
O389 La360 2.482 . S
O389 La361 2.757 . S
O389 C378 1.289 . S
O390 La361 2.470 . S
O390 C379 1.258 . S
O391 La360 2.503 . S
O391 C379 1.256 . S
H392 C364 0.930 . S
H393 C365 0.930 1_455 S
H394 C367 0.929 . S
H395 C368 0.929 . S
H396 C373 0.930 . S
H397 C374 0.930 . S
H398 C376 0.929 . S
H399 C377 0.929 . S
La400 C402 2.928 . S
La400 O420 2.521 . S
La400 O421 2.628 . S
La400 O422 2.554 . S
La400 O423 2.757 . S
La400 O424 2.470 . S
La400 O429 2.482 . S
La400 O431 2.503 . S
La401 C411 2.928 . S
La401 O423 2.482 . S
La401 O425 2.503 . S
La401 O426 2.521 . S
La401 O427 2.628 . S
La401 O428 2.554 . S
La401 O429 2.757 . S
La401 O430 2.470 . S
C402 La400 2.928 . S
C402 C403 1.503 1_455 S
C402 O420 1.261 . S
C402 O421 1.243 . S
C403 C402 1.503 1_655 S
C403 C404 1.394 . S
C403 C408 1.373 . S
C404 C403 1.394 . S
C404 C405 1.380 . S
C404 H432 0.930 . S
C405 C404 1.380 . S
C405 C406 1.376 . S
C405 H433 0.930 . S
C406 C405 1.376 . S
C406 C407 1.370 . S
C407 C406 1.370 . S
C407 C408 1.396 . S
C407 H434 0.929 . S
C408 C403 1.373 . S
C408 C407 1.396 . S
C408 H435 0.929 . S
C409 O422 1.240 . S
C409 O423 1.289 . S
C410 O424 1.258 . S
C410 O425 1.256 . S
C411 La401 2.928 . S
C411 C412 1.503 . S
C411 O426 1.261 . S
C411 O427 1.243 . S
C412 C411 1.503 . S
C412 C413 1.394 . S
C412 C417 1.373 . S
C413 C412 1.394 . S
C413 C414 1.380 . S
C413 H436 0.930 . S
C414 C413 1.380 . S
C414 C415 1.376 . S
C414 H437 0.930 . S
C415 C414 1.376 . S
C415 C416 1.370 . S
C416 C415 1.370 . S
C416 C417 1.396 . S
C416 H438 0.929 . S
C417 C412 1.373 . S
C417 C416 1.396 . S
C417 H439 0.929 . S
C418 O428 1.240 . S
C418 O429 1.289 . S
C419 O430 1.258 . S
C419 O431 1.256 . S
O420 La400 2.521 . S
O420 C402 1.261 . S
O421 La400 2.628 . S
O421 C402 1.243 . S
O422 La400 2.554 . S
O422 C409 1.240 . S
O423 La400 2.757 . S
O423 La401 2.482 . S
O423 C409 1.289 . S
O424 La400 2.470 . S
O424 C410 1.258 . S
O425 La401 2.503 . S
O425 C410 1.256 . S
O426 La401 2.521 . S
O426 C411 1.261 . S
O427 La401 2.628 . S
O427 C411 1.243 . S
O428 La401 2.554 . S
O428 C418 1.240 . S
O429 La400 2.482 . S
O429 La401 2.757 . S
O429 C418 1.289 . S
O430 La401 2.470 . S
O430 C419 1.258 . S
O431 La400 2.503 . S
O431 C419 1.256 . S
H432 C404 0.930 . S
H433 C405 0.930 . S
H434 C407 0.929 . S
H435 C408 0.929 . S
H436 C413 0.930 . S
H437 C414 0.930 . S
H438 C416 0.929 . S
H439 C417 0.929 . S
La440 C442 2.928 . S
La440 O460 2.521 . S
La440 O461 2.628 . S
La440 O462 2.554 . S
La440 O463 2.757 . S
La440 O464 2.470 . S
La440 O469 2.482 . S
La440 O471 2.503 . S
La441 C451 2.928 . S
La441 O463 2.482 . S
La441 O465 2.503 . S
La441 O466 2.521 . S
La441 O467 2.628 . S
La441 O468 2.554 . S
La441 O469 2.757 . S
La441 O470 2.470 . S
C442 La440 2.928 . S
C442 C443 1.503 . S
C442 O460 1.261 . S
C442 O461 1.243 . S
C443 C442 1.503 . S
C443 C444 1.394 . S
C443 C448 1.373 . S
C444 C443 1.394 . S
C444 C445 1.380 . S
C444 H472 0.930 . S
C445 C444 1.380 . S
C445 C446 1.376 . S
C445 H473 0.930 . S
C446 C445 1.376 . S
C446 C447 1.370 . S
C447 C446 1.370 . S
C447 C448 1.396 . S
C447 H474 0.929 . S
C448 C443 1.373 . S
C448 C447 1.396 . S
C448 H475 0.929 . S
C449 O462 1.240 . S
C449 O463 1.289 . S
C450 O464 1.258 . S
C450 O465 1.256 . S
C451 La441 2.928 . S
C451 C452 1.503 . S
C451 O466 1.261 . S
C451 O467 1.243 . S
C452 C451 1.503 . S
C452 C453 1.394 . S
C452 C457 1.373 . S
C453 C452 1.394 . S
C453 C454 1.380 . S
C453 H476 0.930 . S
C454 C453 1.380 . S
C454 C455 1.376 . S
C454 H477 0.930 . S
C455 C454 1.376 . S
C455 C456 1.370 . S
C456 C455 1.370 . S
C456 C457 1.396 . S
C456 H478 0.929 . S
C457 C452 1.373 . S
C457 C456 1.396 . S
C457 H479 0.929 . S
C458 O468 1.240 . S
C458 O469 1.289 . S
C459 O470 1.258 . S
C459 O471 1.256 . S
O460 La440 2.521 . S
O460 C442 1.261 . S
O461 La440 2.628 . S
O461 C442 1.243 . S
O462 La440 2.554 . S
O462 C449 1.240 . S
O463 La440 2.757 . S
O463 La441 2.482 . S
O463 C449 1.289 . S
O464 La440 2.470 . S
O464 C450 1.258 . S
O465 La441 2.503 . S
O465 C450 1.256 . S
O466 La441 2.521 . S
O466 C451 1.261 . S
O467 La441 2.628 . S
O467 C451 1.243 . S
O468 La441 2.554 . S
O468 C458 1.240 . S
O469 La440 2.482 . S
O469 La441 2.757 . S
O469 C458 1.289 . S
O470 La441 2.470 . S
O470 C459 1.258 . S
O471 La440 2.503 . S
O471 C459 1.256 . S
H472 C444 0.930 . S
H473 C445 0.930 . S
H474 C447 0.929 . S
H475 C448 0.929 . S
H476 C453 0.930 . S
H477 C454 0.930 . S
H478 C456 0.929 . S
H479 C457 0.929 . S
La480 C482 2.928 1_655 S
La480 O500 2.521 . S
La480 O501 2.628 . S
La480 O502 2.554 . S
La480 O503 2.757 . S
La480 O504 2.470 . S
La480 O509 2.482 . S
La480 O511 2.503 . S
La481 C491 2.928 . S
La481 O503 2.482 . S
La481 O505 2.503 . S
La481 O506 2.521 . S
La481 O507 2.628 . S
La481 O508 2.554 . S
La481 O509 2.757 . S
La481 O510 2.470 . S
C482 La480 2.928 1_455 S
C482 C483 1.503 . S
C482 O500 1.261 1_455 S
C482 O501 1.243 1_455 S
C483 C482 1.503 . S
C483 C484 1.394 . S
C483 C488 1.373 . S
C484 C483 1.394 . S
C484 C485 1.380 . S
C484 H512 0.930 . S
C485 C484 1.380 . S
C485 C486 1.376 1_565 S
C485 H513 0.930 1_565 S
C486 C485 1.376 1_545 S
C486 C487 1.370 . S
C487 C486 1.370 . S
C487 C488 1.396 1_545 S
C487 H514 0.929 . S
C488 C483 1.373 . S
C488 C487 1.396 1_565 S
C488 H515 0.929 . S
C489 O502 1.240 . S
C489 O503 1.289 . S
C490 O504 1.258 . S
C490 O505 1.256 . S
C491 La481 2.928 . S
C491 C492 1.503 . S
C491 O506 1.261 . S
C491 O507 1.243 . S
C492 C491 1.503 . S
C492 C493 1.394 . S
C492 C497 1.373 . S
C493 C492 1.394 . S
C493 C494 1.380 . S
C493 H516 0.930 . S
C494 C493 1.380 . S
C494 C495 1.376 . S
C494 H517 0.930 . S
C495 C494 1.376 . S
C495 C496 1.370 . S
C496 C495 1.370 . S
C496 C497 1.396 . S
C496 H518 0.929 . S
C497 C492 1.373 . S
C497 C496 1.396 . S
C497 H519 0.929 . S
C498 O508 1.240 . S
C498 O509 1.289 . S
C499 O510 1.258 . S
C499 O511 1.256 . S
O500 La480 2.521 . S
O500 C482 1.261 1_655 S
O501 La480 2.628 . S
O501 C482 1.243 1_655 S
O502 La480 2.554 . S
O502 C489 1.240 . S
O503 La480 2.757 . S
O503 La481 2.482 . S
O503 C489 1.289 . S
O504 La480 2.470 . S
O504 C490 1.258 . S
O505 La481 2.503 . S
O505 C490 1.256 . S
O506 La481 2.521 . S
O506 C491 1.261 . S
O507 La481 2.628 . S
O507 C491 1.243 . S
O508 La481 2.554 . S
O508 C498 1.240 . S
O509 La480 2.482 . S
O509 La481 2.757 . S
O509 C498 1.289 . S
O510 La481 2.470 . S
O510 C499 1.258 . S
O511 La480 2.503 . S
O511 C499 1.256 . S
H512 C484 0.930 . S
H513 C485 0.930 1_545 S
H514 C487 0.929 . S
H515 C488 0.929 . S
H516 C493 0.930 . S
H517 C494 0.930 . S
H518 C496 0.929 . S
H519 C497 0.929 . S
La520 C522 2.928 . S
La520 O540 2.521 . S
La520 O541 2.628 . S
La520 O542 2.554 . S
La520 O543 2.757 . S
La520 O544 2.470 . S
La520 O549 2.482 . S
La520 O551 2.503 . S
La521 C531 2.928 . S
La521 O543 2.482 . S
La521 O545 2.503 . S
La521 O546 2.521 . S
La521 O547 2.628 . S
La521 O548 2.554 . S
La521 O549 2.757 . S
La521 O550 2.470 . S
C522 La520 2.928 . S
C522 C523 1.503 . S
C522 O540 1.261 . S
C522 O541 1.243 . S
C523 C522 1.503 . S
C523 C524 1.394 . S
C523 C528 1.373 . S
C524 C523 1.394 . S
C524 C525 1.380 . S
C524 H552 0.930 . S
C525 C524 1.380 . S
C525 C526 1.376 . S
C525 H553 0.930 . S
C526 C525 1.376 . S
C526 C527 1.370 . S
C527 C526 1.370 . S
C527 C528 1.396 . S
C527 H554 0.929 . S
C528 C523 1.373 . S
C528 C527 1.396 . S
C528 H555 0.929 . S
C529 O542 1.240 . S
C529 O543 1.289 . S
C530 O544 1.258 . S
C530 O545 1.256 . S
C531 La521 2.928 . S
C531 C532 1.503 . S
C531 O546 1.261 . S
C531 O547 1.243 . S
C532 C531 1.503 . S
C532 C533 1.394 . S
C532 C537 1.373 . S
C533 C532 1.394 . S
C533 C534 1.380 . S
C533 H556 0.930 . S
C534 C533 1.380 . S
C534 C535 1.376 . S
C534 H557 0.930 . S
C535 C534 1.376 . S
C535 C536 1.370 . S
C536 C535 1.370 . S
C536 C537 1.396 . S
C536 H558 0.929 . S
C537 C532 1.373 . S
C537 C536 1.396 . S
C537 H559 0.929 . S
C538 O548 1.240 . S
C538 O549 1.289 . S
C539 O550 1.258 . S
C539 O551 1.256 . S
O540 La520 2.521 . S
O540 C522 1.261 . S
O541 La520 2.628 . S
O541 C522 1.243 . S
O542 La520 2.554 . S
O542 C529 1.240 . S
O543 La520 2.757 . S
O543 La521 2.482 . S
O543 C529 1.289 . S
O544 La520 2.470 . S
O544 C530 1.258 . S
O545 La521 2.503 . S
O545 C530 1.256 . S
O546 La521 2.521 . S
O546 C531 1.261 . S
O547 La521 2.628 . S
O547 C531 1.243 . S
O548 La521 2.554 . S
O548 C538 1.240 . S
O549 La520 2.482 . S
O549 La521 2.757 . S
O549 C538 1.289 . S
O550 La521 2.470 . S
O550 C539 1.258 . S
O551 La520 2.503 . S
O551 C539 1.256 . S
H552 C524 0.930 . S
H553 C525 0.930 . S
H554 C527 0.929 . S
H555 C528 0.929 . S
H556 C533 0.930 . S
H557 C534 0.930 . S
H558 C536 0.929 . S
H559 C537 0.929 . S
La560 C562 2.928 . S
La560 O580 2.521 . S
La560 O581 2.628 . S
La560 O582 2.554 . S
La560 O583 2.757 . S
La560 O584 2.470 . S
La560 O589 2.482 . S
La560 O591 2.503 . S
La561 C571 2.928 . S
La561 O583 2.482 . S
La561 O585 2.503 . S
La561 O586 2.521 . S
La561 O587 2.628 . S
La561 O588 2.554 . S
La561 O589 2.757 . S
La561 O590 2.470 . S
C562 La560 2.928 . S
C562 C563 1.503 1_545 S
C562 O580 1.261 . S
C562 O581 1.243 . S
C563 C562 1.503 1_565 S
C563 C564 1.394 . S
C563 C568 1.373 . S
C564 C563 1.394 . S
C564 C565 1.380 . S
C564 H592 0.930 . S
C565 C564 1.380 . S
C565 C566 1.376 . S
C565 H593 0.930 . S
C566 C565 1.376 . S
C566 C567 1.370 . S
C567 C566 1.370 . S
C567 C568 1.396 . S
C567 H594 0.929 . S
C568 C563 1.373 . S
C568 C567 1.396 . S
C568 H595 0.929 . S
C569 O582 1.240 . S
C569 O583 1.289 . S
C570 O584 1.258 . S
C570 O585 1.256 . S
C571 La561 2.928 . S
C571 C572 1.503 . S
C571 O586 1.261 . S
C571 O587 1.243 . S
C572 C571 1.503 . S
C572 C573 1.394 . S
C572 C577 1.373 . S
C573 C572 1.394 . S
C573 C574 1.380 . S
C573 H596 0.930 . S
C574 C573 1.380 . S
C574 C575 1.376 . S
C574 H597 0.930 . S
C575 C574 1.376 . S
C575 C576 1.370 . S
C576 C575 1.370 . S
C576 C577 1.396 . S
C576 H598 0.929 . S
C577 C572 1.373 . S
C577 C576 1.396 . S
C577 H599 0.929 . S
C578 O588 1.240 . S
C578 O589 1.289 . S
C579 O590 1.258 . S
C579 O591 1.256 . S
O580 La560 2.521 . S
O580 C562 1.261 . S
O581 La560 2.628 . S
O581 C562 1.243 . S
O582 La560 2.554 . S
O582 C569 1.240 . S
O583 La560 2.757 . S
O583 La561 2.482 . S
O583 C569 1.289 . S
O584 La560 2.470 . S
O584 C570 1.258 . S
O585 La561 2.503 . S
O585 C570 1.256 . S
O586 La561 2.521 . S
O586 C571 1.261 . S
O587 La561 2.628 . S
O587 C571 1.243 . S
O588 La561 2.554 . S
O588 C578 1.240 . S
O589 La560 2.482 . S
O589 La561 2.757 . S
O589 C578 1.289 . S
O590 La561 2.470 . S
O590 C579 1.258 . S
O591 La560 2.503 . S
O591 C579 1.256 . S
H592 C564 0.930 . S
H593 C565 0.930 . S
H594 C567 0.929 . S
H595 C568 0.929 . S
H596 C573 0.930 . S
H597 C574 0.930 . S
H598 C576 0.929 . S
H599 C577 0.929 . S
La600 C602 2.928 . S
La600 O620 2.521 . S
La600 O621 2.628 . S
La600 O622 2.554 . S
La600 O623 2.757 . S
La600 O624 2.470 . S
La600 O629 2.482 . S
La600 O631 2.503 . S
La601 C611 2.928 1_545 S
La601 O623 2.482 . S
La601 O625 2.503 . S
La601 O626 2.521 1_545 S
La601 O627 2.628 1_545 S
La601 O628 2.554 . S
La601 O629 2.757 . S
La601 O630 2.470 . S
C602 La600 2.928 . S
C602 C603 1.503 . S
C602 O620 1.261 . S
C602 O621 1.243 . S
C603 C602 1.503 . S
C603 C604 1.394 . S
C603 C608 1.373 . S
C604 C603 1.394 . S
C604 C605 1.380 . S
C604 H632 0.930 . S
C605 C604 1.380 . S
C605 C606 1.376 . S
C605 H633 0.930 . S
C606 C605 1.376 . S
C606 C607 1.370 . S
C607 C606 1.370 . S
C607 C608 1.396 . S
C607 H634 0.929 . S
C608 C603 1.373 . S
C608 C607 1.396 . S
C608 H635 0.929 . S
C609 O622 1.240 . S
C609 O623 1.289 . S
C610 O624 1.258 . S
C610 O625 1.256 . S
C611 La601 2.928 1_565 S
C611 C612 1.503 . S
C611 O626 1.261 . S
C611 O627 1.243 . S
C612 C611 1.503 . S
C612 C613 1.394 . S
C612 C617 1.373 . S
C613 C612 1.394 . S
C613 C614 1.380 . S
C613 H636 0.930 . S
C614 C613 1.380 . S
C614 C615 1.369 1_455 S
C614 H637 0.930 . S
C615 C614 1.369 1_655 S
C615 C616 1.368 1_655 S
C616 C615 1.368 1_455 S
C616 C617 1.396 . S
C616 H638 0.929 1_455 S
C617 C612 1.373 . S
C617 C616 1.396 . S
C617 H639 0.929 . S
C618 O628 1.240 . S
C618 O629 1.289 . S
C619 O630 1.258 . S
C619 O631 1.256 . S
O620 La600 2.521 . S
O620 C602 1.261 . S
O621 La600 2.628 . S
O621 C602 1.243 . S
O622 La600 2.554 . S
O622 C609 1.240 . S
O623 La600 2.757 . S
O623 La601 2.482 . S
O623 C609 1.289 . S
O624 La600 2.470 . S
O624 C610 1.258 . S
O625 La601 2.503 . S
O625 C610 1.256 . S
O626 La601 2.521 1_565 S
O626 C611 1.261 . S
O627 La601 2.628 1_565 S
O627 C611 1.243 . S
O628 La601 2.554 . S
O628 C618 1.240 . S
O629 La600 2.482 . S
O629 La601 2.757 . S
O629 C618 1.289 . S
O630 La601 2.470 . S
O630 C619 1.258 . S
O631 La600 2.503 . S
O631 C619 1.256 . S
H632 C604 0.930 . S
H633 C605 0.930 . S
H634 C607 0.929 . S
H635 C608 0.929 . S
H636 C613 0.930 . S
H637 C614 0.930 . S
H638 C616 0.929 1_655 S
H639 C617 0.929 . S
La640 C642 2.928 . S
La640 O660 2.521 . S
La640 O661 2.628 . S
La640 O662 2.554 . S
La640 O663 2.757 . S
La640 O664 2.470 . S
La640 O669 2.482 . S
La640 O671 2.503 . S
La641 C651 2.928 1_655 S
La641 O663 2.482 . S
La641 O665 2.503 . S
La641 O666 2.521 1_655 S
La641 O667 2.628 1_655 S
La641 O668 2.554 . S
La641 O669 2.757 . S
La641 O670 2.470 . S
C642 La640 2.928 . S
C642 C643 1.503 . S
C642 O660 1.261 . S
C642 O661 1.243 . S
C643 C642 1.503 . S
C643 C644 1.394 . S
C643 C648 1.373 . S
C644 C643 1.394 . S
C644 C645 1.380 . S
C644 H672 0.930 . S
C645 C644 1.380 . S
C645 C646 1.376 . S
C645 H673 0.930 . S
C646 C645 1.376 . S
C646 C647 1.370 . S
C647 C646 1.370 . S
C647 C648 1.396 . S
C647 H674 0.929 . S
C648 C643 1.373 . S
C648 C647 1.396 . S
C648 H675 0.929 . S
C649 O662 1.240 . S
C649 O663 1.289 . S
C650 O664 1.258 . S
C650 O665 1.256 . S
C651 La641 2.928 1_455 S
C651 C652 1.503 . S
C651 O666 1.261 . S
C651 O667 1.243 . S
C652 C651 1.503 . S
C652 C653 1.394 . S
C652 C657 1.373 . S
C653 C652 1.394 . S
C653 C654 1.380 . S
C653 H676 0.930 . S
C654 C653 1.380 . S
C654 C655 1.376 . S
C654 H677 0.930 . S
C655 C654 1.376 . S
C655 C656 1.370 . S
C656 C655 1.370 . S
C656 C657 1.396 . S
C656 H678 0.929 . S
C657 C652 1.373 . S
C657 C656 1.396 . S
C657 H679 0.929 . S
C658 O668 1.240 . S
C658 O669 1.289 . S
C659 O670 1.258 . S
C659 O671 1.256 . S
O660 La640 2.521 . S
O660 C642 1.261 . S
O661 La640 2.628 . S
O661 C642 1.243 . S
O662 La640 2.554 . S
O662 C649 1.240 . S
O663 La640 2.757 . S
O663 La641 2.482 . S
O663 C649 1.289 . S
O664 La640 2.470 . S
O664 C650 1.258 . S
O665 La641 2.503 . S
O665 C650 1.256 . S
O666 La641 2.521 1_455 S
O666 C651 1.261 . S
O667 La641 2.628 1_455 S
O667 C651 1.243 . S
O668 La641 2.554 . S
O668 C658 1.240 . S
O669 La640 2.482 . S
O669 La641 2.757 . S
O669 C658 1.289 . S
O670 La641 2.470 . S
O670 C659 1.258 . S
O671 La640 2.503 . S
O671 C659 1.256 . S
H672 C644 0.930 . S
H673 C645 0.930 . S
H674 C647 0.929 . S
H675 C648 0.929 . S
H676 C653 0.930 . S
H677 C654 0.930 . S
H678 C656 0.929 . S
H679 C657 0.929 . S
La680 C682 2.928 . S
La680 O700 2.521 . S
La680 O701 2.628 . S
La680 O702 2.554 . S
La680 O703 2.757 . S
La680 O704 2.470 . S
La680 O709 2.482 . S
La680 O711 2.503 . S
La681 C691 2.928 . S
La681 O703 2.482 . S
La681 O705 2.503 . S
La681 O706 2.521 . S
La681 O707 2.628 . S
La681 O708 2.554 . S
La681 O709 2.757 . S
La681 O710 2.470 . S
C682 La680 2.928 . S
C682 C683 1.503 . S
C682 O700 1.261 . S
C682 O701 1.243 . S
C683 C682 1.503 . S
C683 C684 1.394 . S
C683 C688 1.373 . S
C684 C683 1.394 . S
C684 C685 1.380 . S
C684 H712 0.930 . S
C685 C684 1.380 . S
C685 C686 1.376 . S
C685 H713 0.930 . S
C686 C685 1.376 . S
C686 C687 1.370 . S
C687 C686 1.370 . S
C687 C688 1.396 . S
C687 H714 0.929 . S
C688 C683 1.373 . S
C688 C687 1.396 . S
C688 H715 0.929 . S
C689 O702 1.240 . S
C689 O703 1.289 . S
C690 O704 1.258 . S
C690 O705 1.256 . S
C691 La681 2.928 . S
C691 C692 1.503 . S
C691 O706 1.261 . S
C691 O707 1.243 . S
C692 C691 1.503 . S
C692 C693 1.394 . S
C692 C697 1.373 . S
C693 C692 1.394 . S
C693 C694 1.380 1_565 S
C693 H716 0.930 . S
C694 C693 1.380 1_545 S
C694 C695 1.376 . S
C694 H717 0.930 . S
C695 C694 1.376 . S
C695 C696 1.370 . S
C696 C695 1.370 . S
C696 C697 1.396 1_545 S
C696 H718 0.929 . S
C697 C692 1.373 . S
C697 C696 1.396 1_565 S
C697 H719 0.929 . S
C698 O708 1.240 . S
C698 O709 1.289 . S
C699 O710 1.258 . S
C699 O711 1.256 . S
O700 La680 2.521 . S
O700 C682 1.261 . S
O701 La680 2.628 . S
O701 C682 1.243 . S
O702 La680 2.554 . S
O702 C689 1.240 . S
O703 La680 2.757 . S
O703 La681 2.482 . S
O703 C689 1.289 . S
O704 La680 2.470 . S
O704 C690 1.258 . S
O705 La681 2.503 . S
O705 C690 1.256 . S
O706 La681 2.521 . S
O706 C691 1.261 . S
O707 La681 2.628 . S
O707 C691 1.243 . S
O708 La681 2.554 . S
O708 C698 1.240 . S
O709 La680 2.482 . S
O709 La681 2.757 . S
O709 C698 1.289 . S
O710 La681 2.470 . S
O710 C699 1.258 . S
O711 La680 2.503 . S
O711 C699 1.256 . S
H712 C684 0.930 . S
H713 C685 0.930 . S
H714 C687 0.929 . S
H715 C688 0.929 . S
H716 C693 0.930 . S
H717 C694 0.930 . S
H718 C696 0.929 . S
H719 C697 0.929 . S
C19 C95 1.958 . S
C15 C59 1.959 . S
C55 C99 1.958 . S
C139 C175 1.958 . S
C215 C179 1.958 . S
C219 C135 1.959 . S
C335 C259 1.958 . S
C255 C299 1.967 . S
C339 C295 1.959 . S
C415 C379 1.958 . S
C419 C455 1.959 . S
C375 C459 1.958 . S
C499 C575 1.958 . S
C495 C539 1.958 . S
C535 C579 1.958 . S
C655 C619 1.959 . S
C695 C659 1.959 . S
C615 C699 1.967 . S
C18 C218 1.619 1_554 S
C138 C58 1.619 1_556 S
C178 C98 1.620 1_556 S
C258 C458 1.620 . S
C298 C378 1.620 . S
C418 C338 1.620 . S
C498 C698 1.620 . S
C618 C538 1.620 . S
C658 C578 1.620 . S
C409 C9 5.089 1_565 S
C49 C449 5.090 . S
C369 C89 5.090 . S
C129 C569 5.089 1_455 S
C169 C489 5.090 . S
C529 C209 5.090 . S
C649 C249 5.089 1_655 S
C289 C689 5.090 . S
C329 C609 5.089 1_565 S
C86 C10 2.923 . S
C6 C50 2.923 . S
C90 C46 2.923 . S
C166 C130 2.923 . S
C206 C170 2.923 . S
C210 C126 2.923 . S
C326 C250 2.923 . S
C290 C246 2.923 . S
C286 C330 2.923 . S
C370 C406 2.923 . S
C410 C446 2.923 1_565 S
C366 C450 2.923 . S
C490 C566 2.923 . S
C530 C486 2.923 . S
C526 C570 2.924 1_455 S
C610 C646 2.923 . S
C650 C686 2.923 . S
C606 C690 2.923 . S
