# Generated by pormake.
# Topology smm, (6)-cn, num edge types: 1
# Building blocks:
#     Node 0, Type 0, BuildingBlock: CIFDUS_clean_sbu_1, # of connection points: 6
#     Node 1, Type 0, BuildingBlock: CIFDUS_clean_sbu_1, # of connection points: 6
#     Node 2, Type 0, BuildingBlock: CIFDUS_clean_sbu_1, # of connection points: 6
#     Node 3, Type 0, BuildingBlock: CIFDUS_clean_sbu_1, # of connection points: 6
#     Node 4, Type 0, BuildingBlock: CIFDUS_clean_sbu_1, # of connection points: 6
#     Node 5, Type 0, BuildingBlock: CIFDUS_clean_sbu_1, # of connection points: 6
#     Node 6, Type 0, BuildingBlock: CIFDUS_clean_sbu_1, # of connection points: 6
#     Node 7, Type 0, BuildingBlock: CIFDUS_clean_sbu_1, # of connection points: 6
#     Node 8, Type 0, BuildingBlock: CIFDUS_clean_sbu_1, # of connection points: 6
#     Edge 9, Type (0, 0), BuildingBlock: XUDNAN_clean_linker_2, # of connection points: 2
#     Edge 10, Type (0, 0), BuildingBlock: XUDNAN_clean_linker_2, # of connection points: 2
#     Edge 11, Type (0, 0), BuildingBlock: XUDNAN_clean_linker_2, # of connection points: 2
#     Edge 12, Type (0, 0), BuildingBlock: XUDNAN_clean_linker_2, # of connection points: 2
#     Edge 13, Type (0, 0), BuildingBlock: XUDNAN_clean_linker_2, # of connection points: 2
#     Edge 14, Type (0, 0), BuildingBlock: XUDNAN_clean_linker_2, # of connection points: 2
#     Edge 15, Type (0, 0), BuildingBlock: XUDNAN_clean_linker_2, # of connection points: 2
#     Edge 16, Type (0, 0), BuildingBlock: XUDNAN_clean_linker_2, # of connection points: 2
#     Edge 17, Type (0, 0), BuildingBlock: XUDNAN_clean_linker_2, # of connection points: 2
#     Edge 18, Type (0, 0), BuildingBlock: XUDNAN_clean_linker_2, # of connection points: 2
#     Edge 19, Type (0, 0), BuildingBlock: XUDNAN_clean_linker_2, # of connection points: 2
#     Edge 20, Type (0, 0), BuildingBlock: XUDNAN_clean_linker_2, # of connection points: 2
#     Edge 21, Type (0, 0), BuildingBlock: XUDNAN_clean_linker_2, # of connection points: 2
#     Edge 22, Type (0, 0), BuildingBlock: XUDNAN_clean_linker_2, # of connection points: 2
#     Edge 23, Type (0, 0), BuildingBlock: XUDNAN_clean_linker_2, # of connection points: 2
#     Edge 24, Type (0, 0), BuildingBlock: XUDNAN_clean_linker_2, # of connection points: 2
#     Edge 25, Type (0, 0), BuildingBlock: XUDNAN_clean_linker_2, # of connection points: 2
#     Edge 26, Type (0, 0), BuildingBlock: XUDNAN_clean_linker_2, # of connection points: 2
#     Edge 27, Type (0, 0), BuildingBlock: XUDNAN_clean_linker_2, # of connection points: 2
#     Edge 28, Type (0, 0), BuildingBlock: XUDNAN_clean_linker_2, # of connection points: 2
#     Edge 29, Type (0, 0), BuildingBlock: XUDNAN_clean_linker_2, # of connection points: 2
#     Edge 30, Type (0, 0), BuildingBlock: XUDNAN_clean_linker_2, # of connection points: 2
#     Edge 31, Type (0, 0), BuildingBlock: XUDNAN_clean_linker_2, # of connection points: 2
#     Edge 32, Type (0, 0), BuildingBlock: XUDNAN_clean_linker_2, # of connection points: 2
#     Edge 33, Type (0, 0), BuildingBlock: XUDNAN_clean_linker_2, # of connection points: 2
#     Edge 34, Type (0, 0), BuildingBlock: XUDNAN_clean_linker_2, # of connection points: 2
#     Edge 35, Type (0, 0), BuildingBlock: XUDNAN_clean_linker_2, # of connection points: 2
# Relax obj value: 0.217
# Max RMSD: 0.238
# Mean RMSD: 0.216
data_MOF--net-smm--node1-CIFDUS_clean_sbu_1--edge1-XUDNAN_clean_linker_2
_symmetry_space_group_name_H-M    P1
_symmetry_Int_Tables_number       1
_symmetry_cell_setting            triclinic
loop_
_symmetry_equiv_pos_as_xyz
'x, y, z'
_cell_length_a     50.586394
_cell_length_b     50.745142
_cell_length_c     15.401668
_cell_angle_alpha  93.858354
_cell_angle_beta   93.949134
_cell_angle_gamma 119.93317
loop_
_atom_site_label
_atom_site_type_symbol
_atom_site_fract_x
_atom_site_fract_y
_atom_site_fract_z
_atom_type_partial_charge
O0 O 1.00008 0.19092 0.12818 0.0
Mn1 Mn 1.00253 0.19087 -0.00594 0.0
O2 O 0.9502 0.15437 0.12845 0.0
Mn3 Mn 0.93378 0.15194 0.01364 0.0
O4 O 1.00323 0.18871 0.86011 0.0
O5 O 0.04473 0.19551 0.00758 0.0
Mn6 Mn 0.0697 0.22625 0.95206 0.0
O7 O 0.02046 0.23867 -0.0021 0.0
O8 O 0.05273 0.21495 0.8343 0.0
O9 O 0.98406 0.14291 0.98462 0.0
O10 O 0.93414 0.12209 0.9397 0.0
O11 O 0.09257 0.21017 -0.00277 0.0
O12 O 0.07155 0.26101 0.00391 0.0
C13 C 0.94244 0.19669 -0.00664 0.0
C14 C 0.97734 0.17254 0.16768 0.0
C15 C 0.02398 0.19877 0.8079 0.0
C16 C 0.06686 0.18983 0.02144 0.0
C17 C 0.04733 0.26276 0.00311 0.0
C18 C 0.95783 0.11957 0.95351 0.0
O19 O 0.96077 0.18644 0.97892 0.0
O20 O 0.91485 0.17483 -0.00026 0.0
O21 O 0.83273 0.8326 0.90156 0.0
Mn22 Mn 0.83696 0.8359 0.03528 0.0
O23 O 0.81302 0.86185 0.86211 0.0
Mn24 Mn 0.80442 0.87049 0.9741 0.0
O25 O 0.84115 0.83797 0.17187 0.0
O26 O 0.87645 0.83357 0.0347 0.0
Mn27 Mn 0.86612 0.79874 0.07719 0.0
O28 O 0.80648 0.78832 0.03435 0.0
O29 O 0.85965 0.80609 0.19083 0.0
O30 O 0.86635 0.88408 0.04118 0.0
O31 O 0.83592 0.90439 0.04195 0.0
O32 O 0.90523 0.81269 0.05341 0.0
O33 O 0.83302 0.76554 0.01094 0.0
C34 C 0.76936 0.82971 0.01879 0.0
C35 C 0.82391 0.84442 0.84352 0.0
C36 C 0.84947 0.82305 0.22069 0.0
C37 C 0.90355 0.83624 0.03302 0.0
C38 C 0.80752 0.76372 0.01969 0.0
C39 C 0.86247 0.90734 0.05132 0.0
O40 O 0.79855 0.83909 0.02979 0.0
O41 O 0.76378 0.85053 -0.00572 0.0
O42 O 0.18369 0.02348 0.12756 0.0
Mn43 Mn 0.18087 0.02031 0.99145 0.0
O44 O 0.20134 0.0742 0.16151 0.0
Mn45 Mn 0.21303 0.08926 0.05482 0.0
O46 O 0.17807 0.01957 0.85689 0.0
O47 O 0.14234 0.9781 0.97795 0.0
Mn48 Mn 0.1485 0.95408 0.90265 0.0
O49 O 0.21068 1.00248 0.98506 0.0
O50 O 0.15249 0.97051 0.79612 0.0
O51 O 0.15143 0.03892 -0.00636 0.0
O52 O 0.18198 0.08869 0.98371 0.0
O53 O 0.10994 0.92981 0.93413 0.0
O54 O 0.18225 0.9519 0.9468 0.0
C55 C 0.24854 0.08128 0.01583 0.0
C56 C 0.19063 0.04696 0.18276 0.0
C57 C 0.1662 0.99921 0.78993 0.0
C58 C 0.1149 0.95474 0.97862 0.0
C59 C 0.20819 0.97608 0.96855 0.0
C60 C 0.15529 0.06547 0.98176 0.0
O61 O 0.21938 0.06159 0.0036 0.0
O62 O 0.2544 0.10871 0.04071 0.0
O63 O 0.68467 0.52463 0.18709 0.0
Mn64 Mn 0.68305 0.52585 0.32141 0.0
O65 O 0.7343 0.53732 0.18142 0.0
Mn66 Mn 0.75145 0.55355 0.29762 0.0
O67 O 0.68322 0.52648 0.45501 0.0
O68 O 0.64029 0.4895 0.30681 0.0
Mn69 Mn 0.61619 0.49749 0.36719 0.0
O70 O 0.66649 0.55689 0.32658 0.0
O71 O 0.63421 0.50636 0.48399 0.0
O72 O 0.69993 0.49495 0.32311 0.0
O73 O 0.75005 0.52488 0.36775 0.0
O74 O 0.59365 0.45656 0.32371 0.0
O75 O 0.61528 0.52944 0.3197 0.0
C76 C 0.74437 0.59129 0.32959 0.0
C77 C 0.70709 0.52813 0.14448 0.0
C78 C 0.6629 0.5179 0.50849 0.0
C79 C 0.61951 0.46086 0.30043 0.0
C80 C 0.64007 0.55507 0.3236 0.0
C81 C 0.72596 0.49849 0.35452 0.0
O82 O 0.72518 0.56285 0.33621 0.0
O83 O 0.77156 0.59601 0.32024 0.0
O84 O 0.49651 0.18138 0.19762 0.0
Mn85 Mn 0.50201 0.18349 0.33337 0.0
O86 O 0.48514 0.21905 0.18489 0.0
Mn87 Mn 0.47548 0.22494 0.29692 0.0
O88 O 0.50711 0.18768 0.46819 0.0
O89 O 0.5381 0.1769 0.33362 0.0
Mn90 Mn 0.53334 0.14838 0.40118 0.0
O91 O 0.47036 0.13638 0.33455 0.0
O92 O 0.53117 0.16308 0.51382 0.0
O93 O 0.53402 0.23054 0.33721 0.0
O94 O 0.50895 0.25464 0.37211 0.0
O95 O 0.57107 0.16228 0.36031 0.0
O96 O 0.49781 0.11306 0.35318 0.0
C97 C 0.43756 0.18197 0.32168 0.0
C98 C 0.49131 0.19908 0.15181 0.0
C99 C 0.51848 0.179 0.52922 0.0
C100 C 0.56528 0.18153 0.32479 0.0
C101 C 0.47216 0.11215 0.34245 0.0
C102 C 0.53401 0.25504 0.36428 0.0
O103 O 0.46627 0.19024 0.33629 0.0
O104 O 0.4338 0.20486 0.30826 0.0
O105 O 0.85124 0.34291 0.19469 0.0
Mn106 Mn 0.85169 0.34257 0.32802 0.0
O107 O 0.82335 0.29396 0.13237 0.0
Mn108 Mn 0.81576 0.27558 0.23637 0.0
O109 O 0.85406 0.34404 0.46355 0.0
O110 O 0.85557 0.38463 0.34024 0.0
Mn111 Mn 0.89271 0.40912 0.3959 0.0
O112 O 0.8995 0.35946 0.34385 0.0
O113 O 0.89017 0.39388 0.50358 0.0
O114 O 0.80309 0.32351 0.31604 0.0
O115 O 0.78226 0.27258 0.28468 0.0
O116 O 0.87696 0.43393 0.37695 0.0
O117 O 0.9225 0.4089 0.33379 0.0
C118 C 0.85806 0.28253 0.30156 0.0
C119 C 0.83962 0.32269 0.12745 0.0
C120 C 0.87232 0.36665 0.52185 0.0
C121 C 0.85225 0.40853 0.34583 0.0
C122 C 0.92403 0.38491 0.3385 0.0
C123 C 0.77965 0.29596 0.30353 0.0
O124 O 0.84744 0.30088 0.31317 0.0
O125 O 0.83735 0.25591 0.26249 0.0
O126 O 0.3444 0.86671 0.79226 0.0
Mn127 Mn 0.34729 0.86686 0.65866 0.0
O128 O 0.29522 0.82792 0.78834 0.0
Mn129 Mn 0.27917 0.82531 0.67256 0.0
O130 O 0.34793 0.86488 0.52524 0.0
O131 O 0.39017 0.87295 0.67163 0.0
Mn132 Mn 0.41435 0.90422 0.61636 0.0
O133 O 0.36359 0.91434 0.66034 0.0
O134 O 0.39698 0.89339 0.49841 0.0
O135 O 0.33085 0.8192 0.64929 0.0
O136 O 0.28191 0.79785 0.59497 0.0
O137 O 0.43757 0.8878 0.65603 0.0
O138 O 0.41469 0.9375 0.67336 0.0
C139 C 0.28459 0.86891 0.65814 0.0
C140 C 0.32158 0.84754 0.83011 0.0
C141 C 0.3683 0.8761 0.47236 0.0
C142 C 0.41214 0.8668 0.67989 0.0
C143 C 0.39017 0.93871 0.66473 0.0
C144 C 0.30564 0.79574 0.61245 0.0
O145 O 0.30487 0.86116 0.64331 0.0
O146 O 0.25744 0.84533 0.65836 0.0
O147 O 0.17278 0.51495 0.58173 0.0
Mn148 Mn 0.17706 0.51622 0.71745 0.0
O149 O 0.15812 0.55024 0.56929 0.0
Mn150 Mn 0.14536 0.55289 0.67917 0.0
O151 O 0.18129 0.51982 0.85272 0.0
O152 O 0.21553 0.51357 0.72009 0.0
Mn153 Mn 0.21275 0.48524 0.78567 0.0
O154 O 0.14842 0.46833 0.71613 0.0
O155 O 0.20804 0.49768 0.89788 0.0
O156 O 0.20591 0.56416 0.72422 0.0
O157 O 0.1762 0.58296 0.75909 0.0
O158 O 0.2515 0.50312 0.74955 0.0
O159 O 0.17938 0.44883 0.73388 0.0
C160 C 0.10966 0.50808 0.69512 0.0
C161 C 0.16708 0.53248 0.53653 0.0
C162 C 0.19368 0.51194 0.91343 0.0
C163 C 0.2438 0.52116 0.71457 0.0
C164 C 0.15266 0.44556 0.72469 0.0
C165 C 0.20267 0.58692 0.74989 0.0
O166 O 0.13866 0.51871 0.71705 0.0
O167 O 0.10354 0.52963 0.68379 0.0
O168 O 0.51857 0.68972 0.80846 0.0
Mn169 Mn 0.51658 0.6879 0.67319 0.0
O170 O 0.53197 0.73938 0.84212 0.0
Mn171 Mn 0.5467 0.75613 0.73918 0.0
O172 O 0.51448 0.6881 0.53936 0.0
O173 O 0.47768 0.64575 0.65426 0.0
Mn174 Mn 0.4862 0.62208 0.58594 0.0
O175 O 0.547 0.67062 0.66391 0.0
O176 O 0.49397 0.63916 0.48008 0.0
O177 O 0.4869 0.70619 0.67593 0.0
O178 O 0.51699 0.75554 0.66098 0.0
O179 O 0.44642 0.59762 0.60574 0.0
O180 O 0.5179 0.62 0.64421 0.0
C181 C 0.5836 0.74832 0.7137 0.0
C182 C 0.52295 0.71234 0.86309 0.0
C183 C 0.50544 0.66768 0.47314 0.0
C184 C 0.44976 0.62245 0.64661 0.0
C185 C 0.54418 0.64395 0.65251 0.0
C186 C 0.49037 0.73208 0.65772 0.0
O187 O 0.55472 0.7294 0.68921 0.0
O188 O 0.58896 0.77554 0.73938 0.0
H189 H 0.0964 0.31988 0.0506 0.0
H190 H 1.00774 0.27105 0.89334 0.0
H191 H 0.02254 0.31552 0.81056 0.0
H192 H 0.10974 0.40064 0.04355 0.0
H193 H 0.14994 0.41511 0.03554 0.0
H194 H 0.1291 0.38333 0.09685 0.0
H195 H 0.14641 0.35162 0.00314 0.0
H196 H 0.1665 0.38279 0.93994 0.0
H197 H 0.13743 0.34582 0.88559 0.0
H198 H 0.05195 0.36243 0.72499 0.0
H199 H 0.09096 0.40717 0.65811 0.0
H200 H 0.15976 0.42234 0.86964 0.0
C201 C 0.07945 0.3192 0.00207 0.0
C202 C 0.05069 0.29215 0.97982 0.0
C203 C 0.02952 0.29181 0.91374 0.0
C204 C 0.03796 0.31691 0.86531 0.0
C205 C 0.06753 0.34234 0.8844 0.0
C206 C 0.08765 0.34385 0.95299 0.0
C207 C 0.11927 0.3716 0.95434 0.0
C208 C 0.12747 0.39399 0.03752 0.0
C209 C 0.14381 0.36238 0.94516 0.0
C210 C 0.11434 0.38474 0.87375 0.0
C211 C 0.08436 0.36814 0.83451 0.0
C212 C 0.07536 0.37578 0.75639 0.0
C213 C 0.09755 0.40113 0.71858 0.0
C214 C 0.12835 0.418 0.75816 0.0
C215 C 0.13648 0.40957 0.83682 0.0
H216 H 0.71418 0.80048 0.07956 0.0
H217 H 0.76729 0.79018 0.88646 0.0
H218 H 0.71958 0.75475 0.79014 0.0
H219 H 0.64107 0.71754 0.0191 0.0
H220 H 0.6169 0.73334 0.04092 0.0
H221 H 0.6537 0.74856 0.10538 0.0
H222 H 0.6687 0.80271 0.06649 0.0
H223 H 0.63254 0.78783 0.00092 0.0
H224 H 0.6677 0.80919 0.95285 0.0
H225 H 0.66879 0.73663 0.69666 0.0
H226 H 0.62068 0.73228 0.62795 0.0
H227 H 0.59898 0.74984 0.88404 0.0
C228 C 0.71554 0.7887 0.02026 0.0
C229 C 0.74449 0.79766 0.99161 0.0
C230 C 0.74549 0.78303 0.91132 0.0
C231 C 0.71831 0.76309 0.85535 0.0
C232 C 0.69012 0.75706 0.88184 0.0
C233 C 0.68851 0.76843 0.96446 0.0
C234 C 0.65629 0.76239 0.97324 0.0
C235 C 0.64109 0.73906 0.03852 0.0
C236 C 0.65636 0.7923 -0.00019 0.0
C237 C 0.64086 0.74868 0.88057 0.0
C238 C 0.6604 0.74516 0.82871 0.0
C239 C 0.65285 0.73798 0.73754 0.0
C240 C 0.62534 0.73534 0.69872 0.0
C241 C 0.60561 0.73962 0.75101 0.0
C242 C 0.61304 0.7451 0.84305 0.0
H243 H 0.22128 0.93157 0.00585 0.0
H244 H 0.2546 0.01412 0.87902 0.0
H245 H 0.28792 1.00058 0.80018 0.0
H246 H 0.29798 0.93093 0.01715 0.0
H247 H 0.27693 0.88969 -0.00117 0.0
H248 H 0.2617 0.90966 0.05984 0.0
H249 H 0.21129 0.88144 0.95326 0.0
H250 H 0.22632 0.86167 0.89184 0.0
H251 H 0.21306 0.88402 0.83735 0.0
H252 H 0.30545 0.96995 0.70442 0.0
H253 H 0.3098 0.929 0.61967 0.0
H254 H 0.27085 0.87026 0.8219 0.0
C255 C 0.23693 0.94763 0.96535 0.0
C256 C 0.23559 0.97405 0.94949 0.0
C257 C 0.25571 0.9941 0.89384 0.0
C258 C 0.27459 0.98643 0.84809 0.0
C259 C 0.27403 0.95918 0.86108 0.0
C260 C 0.25657 0.94073 0.92135 0.0
C261 C 0.25767 0.9114 0.91818 0.0
C262 C 0.27458 0.91037 0.00358 0.0
C263 C 0.22517 0.883 0.89894 0.0
C264 C 0.2763 0.91502 0.84228 0.0
C265 C 0.2859 0.94277 0.81011 0.0
C266 C 0.29914 0.9487 0.73133 0.0
C267 C 0.30176 0.92544 0.68358 0.0
C268 C 0.29141 0.89681 0.71534 0.0
C269 C 0.27981 0.89231 0.79737 0.0
H270 H 0.42072 0.16572 0.14961 0.0
H271 H 0.39682 0.13249 0.39971 0.0
H272 H 0.34714 0.08946 0.32701 0.0
H273 H 0.35509 0.16149 0.09293 0.0
H274 H 0.35201 0.15149 0.97659 0.0
H275 H 0.38901 0.1713 0.03988 0.0
H276 H 0.39945 0.12836 0.98515 0.0
H277 H 0.36216 0.10824 0.92125 0.0
H278 H 0.37266 0.08917 -0.00062 0.0
H279 H 0.29605 0.05731 0.23297 0.0
H280 H 0.249 0.04629 0.14104 0.0
H281 H 0.30414 0.10476 0.95625 0.0
C282 C 0.40577 0.14817 0.1879 0.0
C283 C 0.4133 0.15136 0.27952 0.0
C284 C 0.3923 0.12941 0.32894 0.0
C285 C 0.36387 0.10503 0.28787 0.0
C286 C 0.35646 0.10332 0.19748 0.0
C287 C 0.37699 0.12455 0.14824 0.0
C288 C 0.36158 0.12257 0.05795 0.0
C289 C 0.36458 0.15352 0.04101 0.0
C290 C 0.37475 0.11141 0.98672 0.0
C291 C 0.32862 0.09848 0.06578 0.0
C292 C 0.32636 0.08646 0.14489 0.0
C293 C 0.29776 0.06609 0.17023 0.0
C294 C 0.27097 0.05956 0.11678 0.0
C295 C 0.27289 0.07413 0.04033 0.0
C296 C 0.30205 0.09244 0.01251 0.0
H297 H 0.89187 0.25853 0.36324 0.0
H298 H 0.89347 0.32413 0.19606 0.0
H299 H 0.93044 0.31876 0.11243 0.0
H300 H 0.97785 0.27828 0.33981 0.0
H301 H 0.96558 0.23837 0.34224 0.0
H302 H 0.94887 0.25578 0.40774 0.0
H303 H 0.89471 0.21401 0.33593 0.0
H304 H 0.9111 0.19681 0.27015 0.0
H305 H 0.88621 0.20854 0.21818 0.0
H306 H 0.94943 0.29151 0.01596 0.0
H307 H 0.95413 0.25085 0.93263 0.0
H308 H 0.94637 0.20671 0.16715 0.0
C309 C 0.90204 0.27359 0.31365 0.0
C310 C 0.89025 0.29227 0.28781 0.0
C311 C 0.90277 0.31045 0.21934 0.0
C312 C 0.92369 0.30723 0.17049 0.0
C313 C 0.93276 0.28643 0.19249 0.0
C314 C 0.92337 0.27088 0.26528 0.0
C315 C 0.93246 0.24656 0.26769 0.0
C316 C 0.9577 0.25528 0.34388 0.0
C317 C 0.90445 0.21464 0.27315 0.0
C318 C 0.94508 0.24842 0.18028 0.0
C319 C 0.94578 0.27199 0.13836 0.0
C320 C 0.95062 0.27408 0.04991 0.0
C321 C 0.95357 0.25101 0.0028 0.0
C322 C 0.9522 0.22649 0.04449 0.0
C323 C 0.94935 0.22619 0.1351 0.0
H324 H 0.81176 0.75371 0.18713 0.0
H325 H 0.75449 0.71151 0.93972 0.0
H326 H 0.7231 0.66377 0.00771 0.0
H327 H 0.81807 0.6926 0.23431 0.0
H328 H 0.81876 0.69902 0.35124 0.0
H329 H 0.83131 0.73052 0.2873 0.0
H330 H 0.79139 0.74304 0.34826 0.0
H331 H 0.7793 0.71132 0.41226 0.0
H332 H 0.75156 0.7135 0.33769 0.0
H333 H 0.70278 0.61853 0.10023 0.0
H334 H 0.70037 0.58036 0.19483 0.0
H335 H 0.77334 0.65238 0.37831 0.0
C336 C 0.79199 0.7348 0.14797 0.0
C337 C 0.78516 0.73644 0.05873 0.0
C338 C 0.75972 0.71086 0.00865 0.0
C339 C 0.74179 0.68375 0.04704 0.0
C340 C 0.74968 0.68273 0.13541 0.0
C341 C 0.77434 0.70777 0.18491 0.0
C342 C 0.78123 0.70008 0.27397 0.0
C343 C 0.81427 0.70588 0.2874 0.0
C344 C 0.77553 0.71805 0.34741 0.0
C345 C 0.75763 0.66627 0.26603 0.0
C346 C 0.73888 0.6568 0.18702 0.0
C347 C 0.71701 0.62596 0.16272 0.0
C348 C 0.71552 0.60428 0.21775 0.0
C349 C 0.73618 0.61331 0.29541 0.0
C350 C 0.75654 0.64486 0.32106 0.0
H351 H 0.09426 0.49983 0.52235 0.0
H352 H 0.07571 0.45082 0.7502 0.0
H353 H 0.03019 0.40625 0.66321 0.0
H354 H 0.0226 0.48331 0.47165 0.0
H355 H 0.02208 0.48077 0.35416 0.0
H356 H 0.05781 0.50355 0.42294 0.0
H357 H 0.08018 0.47296 0.34821 0.0
H358 H 0.04439 0.45009 0.27816 0.0
H359 H 0.06002 0.43182 0.34365 0.0
H360 H 0.98186 0.37111 0.55799 0.0
H361 H 0.93403 0.35292 0.45972 0.0
H362 H 0.98175 0.4285 0.30772 0.0
C363 C 0.08153 0.47901 0.55247 0.0
C364 C 0.08905 0.47824 0.642 0.0
C365 C 0.07097 0.45141 0.68093 0.0
C366 C 0.045 0.42609 0.6318 0.0
C367 C 0.03735 0.4282 0.54428 0.0
C368 C 0.05525 0.4542 0.50525 0.0
C369 C 0.03936 0.45394 0.41768 0.0
C370 C 0.03521 0.48203 0.41668 0.0
C371 C 0.05704 0.45208 0.34247 0.0
C372 C 1.00887 0.42455 0.41513 0.0
C373 C 1.0086 0.4093 0.48668 0.0
C374 C 0.9821 0.3827 0.50131 0.0
C375 C 0.95496 0.37238 0.44447 0.0
C376 C 0.95411 0.38921 0.3754 0.0
C377 C 0.9818 0.41488 0.35885 0.0
H378 H 0.53424 0.61079 0.49845 0.0
H379 H 0.60709 0.66973 0.705 0.0
H380 H 0.64393 0.66117 0.62481 0.0
H381 H 0.5539 0.55535 0.46576 0.0
H382 H 0.54291 0.54823 0.34896 0.0
H383 H 0.52487 0.56265 0.41874 0.0
H384 H 0.54086 0.60847 0.32792 0.0
H385 H 0.55957 0.59442 0.25872 0.0
H386 H 0.58077 0.63283 0.3145 0.0
H387 H 0.67071 0.63991 0.52602 0.0
H388 H 0.6827 0.60661 0.43223 0.0
H389 H 0.59136 0.56343 0.29094 0.0
C390 C 0.558 0.62206 0.5271 0.0
C391 C 0.56778 0.64061 0.60864 0.0
C392 C 0.59915 0.6554 0.64272 0.0
C393 C 0.62015 0.6507 0.59728 0.0
C394 C 0.60942 0.63174 0.5171 0.0
C395 C 0.57896 0.61789 0.48259 0.0
C396 C 0.57199 0.5969 0.39926 0.0
C397 C 0.54697 0.56385 0.40883 0.0
C398 C 0.56276 0.60888 0.32046 0.0
C399 C 0.60294 0.59962 0.39356 0.0
C400 C 0.62457 0.62027 0.46076 0.0
C401 C 0.65401 0.62417 0.47259 0.0
C402 C 0.66078 0.60532 0.41812 0.0
C403 C 0.63801 0.58245 0.35356 0.0
C404 C 0.60942 0.58098 0.33854 0.0
H405 H 0.46085 0.05374 0.31553 0.0
H406 H 0.42627 0.10836 0.43453 0.0
H407 H 0.39465 0.06632 0.51988 0.0
H408 H 0.3903 0.97518 0.3213 0.0
H409 H 0.41448 0.95959 0.34917 0.0
H410 H 0.427 0.98997 0.27997 0.0
H411 H 0.47706 0.02207 0.38621 0.0
H412 H 0.46462 0.99226 0.45647 0.0
H413 H 0.47468 0.03038 0.50015 0.0
H414 H 0.37466 0.02117 0.61527 0.0
H415 H 0.36743 0.97812 0.69953 0.0
H416 H 0.41814 0.9563 0.52115 0.0
C417 C 0.44529 0.05617 0.35579 0.0
C418 C 0.44537 0.08406 0.36608 0.0
C419 C 0.42559 0.08678 0.42228 0.0
C420 C 0.40789 0.0631 0.47239 0.0
C421 C 0.41006 0.03667 0.46529 0.0
C422 C 0.42789 0.03296 0.40671 0.0
C423 C 0.43 0.00474 0.41891 0.0
C424 C 0.41451 0.98097 0.33746 0.0
C425 C 0.46357 0.01288 0.44182 0.0
C426 C 0.41185 0.99387 0.49577 0.0
C427 C 0.39988 0.01198 0.52131 0.0
C428 C 0.38362 0.00665 0.59462 0.0
C429 C 0.37966 0.98228 0.64237 0.0
C430 C 0.39252 0.96417 0.61741 0.0
C431 C 0.40833 0.96999 0.54252 0.0
H432 H 0.15782 0.10811 0.09998 0.0
H433 H 0.09716 0.03861 0.88863 0.0
H434 H 0.0599 0.05691 0.89924 0.0
H435 H 0.09622 0.10805 0.22501 0.0
H436 H 0.11935 0.14886 0.25496 0.0
H437 H 0.13751 0.12625 0.24116 0.0
H438 H 0.16973 0.16072 0.12769 0.0
H439 H 0.15197 0.18345 0.14193 0.0
H440 H 0.15031 0.16616 0.03401 0.0
H441 H 0.03553 0.09049 0.91381 0.0
H442 H 0.02745 0.13476 0.92848 0.0
H443 H 0.10255 0.17993 0.13642 0.0
C444 C 0.1363 0.09624 0.05731 0.0
C445 C 0.1303 0.07211 -0.00681 0.0
C446 C 0.10203 0.05706 0.93842 0.0
C447 C 0.08079 0.06731 0.94434 0.0
C448 C 0.08797 0.09204 0.00682 0.0
C449 C 0.11498 0.10591 0.0632 0.0
C450 C 0.11933 0.13392 0.11833 0.0
C451 C 0.11802 0.12896 0.21564 0.0
C452 C 0.14959 0.16274 0.10456 0.0
C453 C 0.09154 0.13504 0.08077 0.0
C454 C 0.07325 0.11037 0.0178 0.0
C455 C 0.04882 0.10907 0.96566 0.0
C456 C 0.04388 0.13403 0.97556 0.0
C457 C 0.06315 0.15987 0.03712 0.0
C458 C 0.08648 0.15972 0.09225 0.0
H459 H 0.8672 0.95914 0.13091 0.0
H460 H 0.91471 0.92707 0.97051 0.0
H461 H 0.94934 0.97998 0.93898 0.0
H462 H 0.8631 0.00578 -0.00613 0.0
H463 H 0.86868 0.03593 0.07508 0.0
H464 H 0.85287 0.99751 0.10272 0.0
H465 H 0.89593 0.01578 0.23208 0.0
H466 H 0.91156 0.05456 0.20635 0.0
H467 H 0.93557 0.0377 0.21267 0.0
H468 H 0.9719 0.03528 0.90206 0.0
H469 H 0.98253 0.08731 0.8753 0.0
H470 H 0.91965 0.08204 0.05946 0.0
C471 C 0.88582 0.96349 0.09247 0.0
C472 C 0.88869 0.93904 0.05466 0.0
C473 C 0.91277 0.9455 0.00262 0.0
C474 C 0.93229 0.97553 0.98345 0.0
C475 C 0.92762 0.99888 0.01767 0.0
C476 C 0.90533 0.9932 0.07282 0.0
C477 C 0.90251 0.02118 0.09399 0.0
C478 C 0.86987 0.01469 0.06462 0.0
C479 C 0.91197 0.03301 0.1921 0.0
C480 C 0.92559 0.04308 0.03906 0.0
C481 C 0.94027 0.03018 -0.00379 0.0
C482 C 0.96105 0.04579 0.9371 0.0
C483 C 0.96707 0.07533 0.92235 0.0
C484 C 0.95221 0.08868 0.9662 0.0
C485 C 0.93136 0.07229 0.0252 0.0
H486 H 0.95658 0.85433 0.13258 0.0
H487 H 0.9177 0.88241 0.92449 0.0
H488 H 0.9701 0.92601 0.91184 0.0
H489 H 0.02105 0.93139 0.22879 0.0
H490 H 0.04625 0.91632 0.24807 0.0
H491 H 1.00557 0.89244 0.25274 0.0
H492 H 1.0034 0.85174 0.13653 0.0
H493 H 0.04392 0.87524 0.13261 0.0
H494 H 0.01776 0.86309 0.03331 0.0
H495 H 0.02898 0.96194 0.90933 0.0
H496 H 0.08442 0.98076 0.90467 0.0
H497 H 0.08303 0.92617 0.10952 0.0
C498 C 0.95887 0.87012 0.0857 0.0
C499 C 0.93296 0.86534 0.03047 0.0
C500 C 0.93708 0.88619 0.96913 0.0
C501 C 0.96683 0.91089 0.96149 0.0
C502 C 0.99209 0.91439 0.01596 0.0
C503 C 0.9881 0.89435 0.077 0.0
C504 C 0.01851 0.89972 0.11992 0.0
C505 C 0.02311 0.91062 0.21821 0.0
C506 C 0.02103 0.87075 0.10458 0.0
C507 C 0.04065 0.92509 0.07106 0.0
C508 C 0.02525 0.93406 0.01315 0.0
C509 C 0.04109 0.95543 0.95584 0.0
C510 C 0.07278 0.96643 0.95447 0.0
C511 C 0.08825 0.95572 0.00897 0.0
C512 C 0.0721 0.93574 0.07001 0.0
H513 H 0.76493 0.49318 0.47153 0.0
H514 H 0.69981 0.44543 0.23984 0.0
H515 H 0.71944 0.40949 0.22281 0.0
H516 H 0.82522 0.49464 0.39295 0.0
H517 H 0.84186 0.48936 0.49283 0.0
H518 H 0.8178 0.50589 0.49789 0.0
H519 H 0.78213 0.46399 0.59001 0.0
H520 H 0.80641 0.44744 0.58628 0.0
H521 H 0.7659 0.42416 0.5496 0.0
H522 H 0.75472 0.38538 0.21635 0.0
H523 H 0.79904 0.37638 0.22553 0.0
H524 H 0.83896 0.44023 0.46233 0.0
C525 C 0.7539 0.47432 0.41941 0.0
C526 C 0.73065 0.47189 0.3577 0.0
C527 C 0.71719 0.44732 0.28912 0.0
C528 C 0.72841 0.42692 0.27863 0.0
C529 C 0.7527 0.43105 0.33825 0.0
C530 C 0.76469 0.45386 0.40856 0.0
C531 C 0.79266 0.45618 0.45851 0.0
C532 C 0.82103 0.4884 0.46054 0.0
C533 C 0.78638 0.44741 0.55161 0.0
C534 C 0.79578 0.4324 0.40297 0.0
C535 C 0.77241 0.41753 0.33455 0.0
C536 C 0.77273 0.39656 0.27085 0.0
C537 C 0.7979 0.39148 0.27639 0.0
C538 C 0.82245 0.40772 0.34436 0.0
C539 C 0.82054 0.42748 0.40941 0.0
H540 H 0.61375 0.43208 0.44135 0.0
H541 H 0.63609 0.43162 0.17568 0.0
H542 H 0.62865 0.37951 0.18093 0.0
H543 H 0.63923 0.37727 0.52393 0.0
H544 H 0.60617 0.36005 0.58307 0.0
H545 H 0.62461 0.40029 0.57054 0.0
H546 H 0.57252 0.39255 0.50335 0.0
H547 H 0.55406 0.35249 0.51419 0.0
H548 H 0.55195 0.3649 0.40826 0.0
H549 H 0.6076 0.32374 0.20476 0.0
H550 H 0.57166 0.27107 0.23559 0.0
H551 H 0.55657 0.30706 0.47798 0.0
C552 C 0.61871 0.42157 0.38603 0.0
C553 C 0.62615 0.43591 0.30886 0.0
C554 C 0.63126 0.42128 0.23618 0.0
C555 C 0.62693 0.39163 0.23882 0.0
C556 C 0.6173 0.3771 0.31431 0.0
C557 C 0.61342 0.39186 0.3869 0.0
C558 C 0.59665 0.36991 0.4522 0.0
C559 C 0.61794 0.37732 0.53748 0.0
C560 C 0.56706 0.36997 0.4704 0.0
C561 C 0.58958 0.33997 0.40268 0.0
C562 C 0.60295 0.34464 0.32533 0.0
C563 C 0.59758 0.32001 0.26584 0.0
C564 C 0.57719 0.29013 0.28403 0.0
C565 C 0.56159 0.28515 0.35958 0.0
C566 C 0.56864 0.31034 0.42064 0.0
H567 H 0.60205 0.18338 0.20523 0.0
H568 H 0.58892 0.24083 0.3962 0.0
H569 H 0.6425 0.28241 0.3936 0.0
H570 H 0.66849 0.19762 0.29946 0.0
H571 H 0.68651 0.19743 0.20263 0.0
H572 H 0.64544 0.17661 0.1973 0.0
H573 H 0.64082 0.20629 0.07233 0.0
H574 H 0.68206 0.22675 0.07519 0.0
H575 H 0.66198 0.24757 0.08677 0.0
H576 H 0.70168 0.31304 0.39451 0.0
H577 H 0.75682 0.32868 0.3929 0.0
H578 H 0.72973 0.24937 0.20556 0.0
C579 C 0.60994 0.20548 0.24197 0.0
C580 C 0.59096 0.20939 0.2978 0.0
C581 C 0.60249 0.23794 0.34925 0.0
C582 C 0.63319 0.26154 0.34922 0.0
C583 C 0.65203 0.25622 0.29724 0.0
C584 C 0.64044 0.22896 0.24298 0.0
C585 C 0.66575 0.22651 0.20331 0.0
C586 C 0.66658 0.19787 0.22719 0.0
C587 C 0.66246 0.22681 0.10347 0.0
C588 C 0.69358 0.2556 0.24757 0.0
C589 C 0.68554 0.273 0.3001 0.0
C590 C 0.70807 0.29974 0.35225 0.0
C591 C 0.73935 0.30846 0.35132 0.0
C592 C 0.74762 0.29004 0.3002 0.0
C593 C 0.72427 0.26385 0.2463 0.0
H594 H 0.47265 0.7591 0.53847 0.0
H595 H 0.45241 0.7211 0.78475 0.0
H596 H 0.42097 0.74524 0.8099 0.0
H597 H 0.48395 0.82816 0.60207 0.0
H598 H 0.46589 0.83304 0.5043 0.0
H599 H 0.48109 0.8078 0.49803 0.0
H600 H 0.428 0.76299 0.42821 0.0
H601 H 0.41262 0.78829 0.43342 0.0
H602 H 0.39447 0.75318 0.48307 0.0
H603 H 0.40355 0.78501 0.82404 0.0
H604 H 0.39646 0.82999 0.81478 0.0
H605 H 0.42253 0.83638 0.5521 0.0
C606 C 0.46029 0.75464 0.59544 0.0
C607 C 0.4645 0.73792 0.65896 0.0
C608 C 0.44883 0.73326 0.73428 0.0
C609 C 0.43109 0.74708 0.74933 0.0
C610 C 0.42847 0.7647 0.68708 0.0
C611 C 0.44182 0.76752 0.61004 0.0
C612 C 0.43774 0.78941 0.55644 0.0
C613 C 0.46901 0.81617 0.53932 0.0
C614 C 0.41696 0.77245 0.47017 0.0
C615 C 0.42188 0.80008 0.61757 0.0
C616 C 0.41651 0.78564 0.69275 0.0
C617 C 0.40647 0.79553 0.76392 0.0
C618 C 0.40234 0.82098 0.75826 0.0
C619 C 0.40787 0.83583 0.68156 0.0
C620 C 0.41693 0.82458 0.61012 0.0
H621 H 0.19277 0.62258 0.64755 0.0
H622 H 0.26501 0.62011 0.80824 0.0
H623 H 0.30272 0.67195 0.77181 0.0
H624 H 0.23962 0.66297 0.47688 0.0
H625 H 0.2197 0.68377 0.46116 0.0
H626 H 0.19987 0.64597 0.49528 0.0
H627 H 0.18538 0.66698 0.6311 0.0
H628 H 0.20474 0.70459 0.59667 0.0
H629 H 0.21532 0.69867 0.70468 0.0
H630 H 0.33063 0.72717 0.72878 0.0
H631 H 0.34476 0.7786 0.68894 0.0
H632 H 0.254 0.74164 0.54908 0.0
C633 C 0.21655 0.63296 0.67536 0.0
C634 C 0.22604 0.61775 0.73193 0.0
C635 C 0.2574 0.6316 0.76514 0.0
C636 C 0.27887 0.66091 0.74442 0.0
C637 C 0.26856 0.67544 0.68864 0.0
C638 C 0.23808 0.6616 0.65412 0.0
C639 C 0.23204 0.6819 0.59873 0.0
C640 C 0.22223 0.66781 0.5023 0.0
C641 C 0.20797 0.68843 0.63502 0.0
C642 C 0.26358 0.71018 0.61051 0.0
C643 C 0.28458 0.70609 0.66153 0.0
C644 C 0.31443 0.7303 0.68757 0.0
C645 C 0.3224 0.75951 0.66424 0.0
C646 C 0.30065 0.76435 0.61588 0.0
C647 C 0.27138 0.73888 0.58547 0.0
H648 H 0.39832 0.59498 0.53495 0.0
H649 H 0.4369 0.65113 0.7853 0.0
H650 H 0.38466 0.64065 0.8121 0.0
H651 H 0.33219 0.60961 0.48557 0.0
H652 H 0.30773 0.57032 0.43865 0.0
H653 H 0.34835 0.58966 0.42927 0.0
H654 H 0.35229 0.54662 0.50011 0.0
H655 H 0.31197 0.52729 0.50911 0.0
H656 H 0.33893 0.53731 0.60554 0.0
H657 H 0.32676 0.61436 0.82336 0.0
H658 H 0.27267 0.57377 0.82455 0.0
H659 H 0.27291 0.5334 0.56908 0.0
C660 C 0.396 0.60602 0.59428 0.0
C661 C 0.42159 0.62389 0.65811 0.0
C662 C 0.41767 0.63771 0.73508 0.0
C663 C 0.38802 0.63179 0.75054 0.0
C664 C 0.36285 0.61245 0.68776 0.0
C665 C 0.36686 0.6001 0.61053 0.0
C666 C 0.33648 0.57618 0.55949 0.0
C667 C 0.33086 0.58711 0.47313 0.0
C668 C 0.33484 0.54504 0.54275 0.0
C669 C 0.31446 0.57512 0.62257 0.0
C670 C 0.32983 0.59701 0.69471 0.0
C671 C 0.31455 0.59785 0.76605 0.0
C672 C 0.28363 0.57489 0.76578 0.0
C673 C 0.26836 0.55117 0.69533 0.0
C674 C 0.28364 0.55212 0.62161 0.0
H675 H 0.05195 0.22996 0.67019 0.0
H676 H 0.97268 0.14728 0.73231 0.0
H677 H 0.95417 0.13138 0.57539 0.0
H678 H 0.01075 0.24318 0.49436 0.0
H679 H 0.04174 0.25732 0.42706 0.0
H680 H 0.05002 0.26198 0.54456 0.0
H681 H 0.08123 0.23436 0.52946 0.0
H682 H 0.07292 0.22955 0.4119 0.0
H683 H 0.06323 0.19667 0.46937 0.0
H684 H 0.94363 0.12421 0.41613 0.0
H685 H 0.93962 0.12682 0.25818 0.0
H686 H 0.02458 0.21489 0.29295 0.0
C687 C 0.03086 0.20842 0.65038 0.0
C688 C 0.01375 0.18978 0.71324 0.0
C689 C 0.98604 0.16197 0.68527 0.0
C690 C 0.9754 0.15265 0.59631 0.0
C691 C 0.9926 0.17151 0.5361 0.0
C692 C 0.01958 0.1989 0.56134 0.0
C693 C 0.03262 0.21529 0.48225 0.0
C694 C 0.03385 0.24628 0.4874 0.0
C695 C 0.06439 0.21919 0.4727 0.0
C696 C 1.00871 0.19269 0.40901 0.0
C697 C 0.98602 0.16761 0.44224 0.0
C698 C 0.96117 0.14373 0.38907 0.0
C699 C 0.95911 0.14556 0.29923 0.0
C700 C 0.9817 0.1712 0.26289 0.0
C701 C 1.00706 0.19497 0.31864 0.0
H702 H 0.81882 0.87122 0.69634 0.0
H703 H 0.83433 0.79953 0.78219 0.0
H704 H 0.84114 0.78688 0.63285 0.0
H705 H 0.77678 0.82939 0.48127 0.0
H706 H 0.79368 0.86303 0.42475 0.0
H707 H 0.78849 0.86637 0.53877 0.0
H708 H 0.84645 0.90619 0.57572 0.0
H709 H 0.85186 0.90285 0.46196 0.0
H710 H 0.8744 0.89633 0.54426 0.0
H711 H 0.84946 0.78329 0.48263 0.0
H712 H 0.85644 0.78646 0.32866 0.0
H713 H 0.83438 0.85918 0.32798 0.0
C714 C 0.82336 0.8527 0.68328 0.0
C715 C 0.82626 0.83656 0.75143 0.0
C716 C 0.8323 0.81252 0.73177 0.0
C717 C 0.83612 0.80501 0.64689 0.0
C718 C 0.8337 0.82158 0.5819 0.0
C719 C 0.82726 0.84474 0.598 0.0
C720 C 0.82658 0.85897 0.51459 0.0
C721 C 0.79446 0.85414 0.4883 0.0
C722 C 0.8513 0.89311 0.52478 0.0
C723 C 0.83412 0.84033 0.45015 0.0
C724 C 0.83808 0.81902 0.49153 0.0
C725 C 0.84618 0.79967 0.44893 0.0
C726 C 0.85019 0.80183 0.36093 0.0
C727 C 0.84586 0.82304 0.31524 0.0
C728 C 0.83768 0.84263 0.36071 0.0
H729 H 0.16092 0.96814 0.62909 0.0
H730 H 0.17626 0.05485 0.7538 0.0
H731 H 0.18167 0.07459 0.61104 0.0
H732 H 0.2159 1.0002 0.47803 0.0
H733 H 0.19353 0.97075 0.38812 0.0
H734 H 0.18863 0.96197 0.49931 0.0
H735 H 0.13036 0.94216 0.46804 0.0
H736 H 0.13508 0.95083 0.3566 0.0
H737 H 0.11779 0.96678 0.425 0.0
H738 H 0.18732 0.08609 0.46064 0.0
H739 H 0.19392 0.08979 0.30567 0.0
H740 H 0.17595 0.9962 0.27156 0.0
C741 C 0.16506 0.99113 0.62596 0.0
C742 C 0.16819 0.00997 0.70265 0.0
C743 C 0.17398 0.04006 0.69618 0.0
C744 C 0.17694 0.05147 0.6153 0.0
C745 C 0.17411 0.03256 0.54137 0.0
C746 C 0.16833 1.00308 0.54531 0.0
C747 C 0.16774 0.98835 0.45536 0.0
C748 C 0.19296 0.97982 0.45524 0.0
C749 C 0.13584 0.96037 0.42444 0.0
C750 C 0.17455 0.01444 0.40102 0.0
C751 C 0.17784 0.0395 0.45254 0.0
C752 C 0.18474 0.06665 0.41931 0.0
C753 C 0.18858 0.06847 0.33084 0.0
C754 C 0.18567 0.04332 0.27589 0.0
C755 C 0.17829 0.01579 0.31159 0.0
H756 H 0.63403 0.51784 0.65511 0.0
H757 H 0.71537 0.51998 0.57135 0.0
H758 H 0.73285 0.51944 0.72329 0.0
H759 H 0.67268 0.56832 0.85553 0.0
H760 H 0.6411 0.54833 0.91842 0.0
H761 H 0.63381 0.54762 0.80192 0.0
H762 H 0.604 0.48829 0.78499 0.0
H763 H 0.61144 0.48884 0.90144 0.0
H764 H 0.62261 0.46844 0.82608 0.0
H765 H 0.74189 0.51829 0.8799 0.0
H766 H 0.74506 0.52171 0.03985 0.0
H767 H 0.65928 0.52244 0.0296 0.0
C768 C 0.65548 0.51817 0.669 0.0
C769 C 0.67333 0.51901 0.60127 0.0
C770 C 0.70139 0.51963 0.62201 0.0
C771 C 0.71145 0.51907 0.7081 0.0
C772 C 0.69336 0.51811 0.77307 0.0
C773 C 0.66619 0.51804 0.75537 0.0
C774 C 0.65214 0.5184 0.8392 0.0
C775 C 0.64981 0.5474 0.85466 0.0
C776 C 0.62068 0.48925 0.83781 0.0
C777 C 0.67587 0.51889 0.90631 0.0
C778 C 0.69913 0.51829 0.86589 0.0
C779 C 0.72391 0.51887 0.91264 0.0
C780 C 0.72546 0.52087 0.00372 0.0
C781 C 0.70252 0.52258 0.04767 0.0
C782 C 0.67707 0.52102 -0.00201 0.0
H783 H 0.53251 0.16014 0.68225 0.0
H784 H 0.49569 0.21506 0.5828 0.0
H785 H 0.48445 0.22447 0.72976 0.0
H786 H 0.47818 0.12517 0.83411 0.0
H787 H 0.50535 0.12672 0.91938 0.0
H788 H 0.51188 0.12446 0.80628 0.0
H789 H 0.56524 0.17376 0.84084 0.0
H790 H 0.55901 0.17599 0.95424 0.0
H791 H 0.56808 0.20804 0.89355 0.0
H792 H 0.47408 0.22586 0.88049 0.0
H793 H 0.46972 0.22408 0.03698 0.0
H794 H 0.51473 0.17011 0.04845 0.0
C795 C 0.52243 0.17443 0.69171 0.0
C796 C 0.51485 0.18667 0.62041 0.0
C797 C 0.5016 0.20521 0.6357 0.0
C798 C 0.49504 0.21072 0.71912 0.0
C799 C 0.50206 0.19779 0.78713 0.0
C800 C 0.51584 0.18042 0.77537 0.0
C801 C 0.52092 0.16954 0.86128 0.0
C802 C 0.50301 0.13438 0.85483 0.0
C803 C 0.55536 0.18262 0.88912 0.0
C804 C 0.50756 0.1834 0.92236 0.0
C805 C 0.49672 0.19937 0.87721 0.0
C806 C 0.48282 0.2138 0.91713 0.0
C807 C 0.48052 0.21262 0.00646 0.0
C808 C 0.49229 0.19731 0.05585 0.0
C809 C 0.50562 0.18207 0.01273 0.0
H810 H 0.82974 0.31909 0.60463 0.0
H811 H 0.91758 0.4043 0.65102 0.0
H812 H 0.91831 0.40114 0.80883 0.0
H813 H 0.79808 0.33274 0.78763 0.0
H814 H 0.77934 0.29401 0.8152 0.0
H815 H 0.78594 0.30116 0.70353 0.0
H816 H 0.81532 0.2715 0.69984 0.0
H817 H 0.8085 0.26393 0.81124 0.0
H818 H 0.84717 0.28239 0.78236 0.0
H819 H 0.90837 0.39236 0.95932 0.0
H820 H 0.89043 0.37503 0.09987 0.0
H821 H 0.80985 0.2941 0.96225 0.0
C822 C 0.84931 0.33676 0.64802 0.0
C823 C 0.87339 0.36211 0.61535 0.0
C824 C 0.89859 0.38486 0.67428 0.0
C825 C 0.89934 0.38329 0.76423 0.0
C826 C 0.87491 0.35866 0.79455 0.0
C827 C 0.85056 0.3355 0.73881 0.0
C828 C 0.82712 0.31198 0.79032 0.0
C829 C 0.79577 0.30987 0.77312 0.0
C830 C 0.82438 0.28059 0.76971 0.0
C831 C 0.84199 0.32605 0.88327 0.0
C832 C 0.86948 0.35302 0.88351 0.0
C833 C 0.88704 0.3711 0.96041 0.0
C834 C 0.87647 0.36117 0.03988 0.0
C835 C 0.84869 0.33326 0.04192 0.0
C836 C 0.83123 0.31545 0.96248 0.0
H837 H 0.40001 0.90131 0.33117 0.0
H838 H 0.31163 0.83149 0.39844 0.0
H839 H 0.29174 0.81695 0.24303 0.0
H840 H 0.37016 0.92453 0.15494 0.0
H841 H 0.39826 0.9293 0.08209 0.0
H842 H 0.4085 0.93471 0.19868 0.0
H843 H 0.42518 0.89459 0.18956 0.0
H844 H 0.41676 0.88952 0.07198 0.0
H845 H 0.39935 0.85695 0.13267 0.0
H846 H 0.28032 0.80988 0.08512 0.0
H847 H 0.27731 0.81044 0.92658 0.0
H848 H 0.3725 0.88458 0.95292 0.0
C849 C 0.37655 0.88289 0.31299 0.0
C850 C 0.35741 0.86766 0.37747 0.0
C851 C 0.32678 0.84373 0.35088 0.0
C852 C 0.3152 0.83515 0.26251 0.0
C853 C 0.33443 0.85064 0.20097 0.0
C854 C 0.36442 0.87395 0.22424 0.0
C855 C 0.37965 0.88679 0.14323 0.0
C856 C 0.38969 0.92085 0.14487 0.0
C857 C 0.40685 0.88164 0.13382 0.0
C858 C 0.35329 0.86722 0.07164 0.0
C859 C 0.32762 0.84648 0.10723 0.0
C860 C 0.30024 0.82594 0.0561 0.0
C861 C 0.29886 0.82652 0.96568 0.0
C862 C 0.32471 0.84758 0.92652 0.0
C863 C 0.35238 0.86819 0.98057 0.0
H864 H 0.19769 0.48506 0.06052 0.0
H865 H 0.18336 0.55715 0.97303 0.0
H866 H 0.17648 0.57019 0.12299 0.0
H867 H 0.14127 0.46047 0.20953 0.0
H868 H 0.16283 0.45316 0.29286 0.0
H869 H 0.16884 0.44985 0.17975 0.0
H870 H 0.22683 0.48861 0.21737 0.0
H871 H 0.22144 0.4918 0.33125 0.0
H872 H 0.23925 0.52564 0.27579 0.0
H873 H 0.1698 0.57501 0.27695 0.0
H874 H 0.16325 0.5718 0.43199 0.0
H875 H 0.18105 0.4962 0.42686 0.0
C876 C 0.19349 0.50383 0.07339 0.0
C877 C 0.19111 0.52015 0.00505 0.0
C878 C 0.18513 0.54424 0.02409 0.0
C879 C 0.18129 0.55191 0.10914 0.0
C880 C 0.18339 0.53524 0.1746 0.0
C881 C 0.18935 0.51173 0.1584 0.0
C882 C 0.18937 0.49707 0.24133 0.0
C883 C 0.16406 0.46312 0.23017 0.0
C884 C 0.22112 0.50103 0.268 0.0
C885 C 0.18228 0.51598 0.30606 0.0
C886 C 0.1791 0.53787 0.26548 0.0
C887 C 0.17226 0.55802 0.30976 0.0
C888 C 0.16848 0.55585 0.39822 0.0
C889 C 0.17148 0.5336 0.44233 0.0
C890 C 0.17861 0.51343 0.39533 0.0
H891 H 0.5091 0.64004 0.31732 0.0
H892 H 0.5048 0.71834 0.4313 0.0
H893 H 0.50628 0.736 0.28621 0.0
H894 H 0.5625 0.68106 0.16594 0.0
H895 H 0.54527 0.64981 0.07881 0.0
H896 H 0.54254 0.64208 0.19125 0.0
H897 H 0.48328 0.60994 0.15842 0.0
H898 H 0.48576 0.61765 0.04583 0.0
H899 H 0.46262 0.62696 0.11097 0.0
H900 H 0.50823 0.74563 0.1337 0.0
H901 H 0.51406 0.74923 0.97795 0.0
H902 H 0.51883 0.66582 0.95699 0.0
C903 C 0.5083 0.66078 0.31131 0.0
C904 C 0.50678 0.67782 0.3854 0.0
C905 C 0.50616 0.70505 0.37552 0.0
C906 C 0.5068 0.71519 0.29335 0.0
C907 C 0.50829 0.69798 0.22178 0.0
C908 C 0.50933 0.67154 0.22944 0.0
C909 C 0.51226 0.65836 0.14154 0.0
C910 C 0.54244 0.65781 0.1446 0.0
C911 C 0.48431 0.62632 0.11249 0.0
C912 C 0.5127 0.68162 0.08375 0.0
C913 C 0.51014 0.70404 0.13197 0.0
C914 C 0.51034 0.7283 0.095 0.0
C915 C 0.51377 0.73013 0.0063 0.0
C916 C 0.51716 0.70792 0.95515 0.0
C917 C 0.51617 0.68305 -0.00574 0.0
loop_
_geom_bond_atom_site_label_1
_geom_bond_atom_site_label_2
_geom_bond_distance
_geom_bond_site_symmetry_2
_ccdc_geom_bond_type
O0 Mn1 2.163 . S
O0 C14 1.244 . S
Mn1 O0 2.163 . S
Mn1 O4 2.160 1_454 S
Mn1 O5 2.221 . S
Mn1 O7 2.163 . S
Mn1 O9 2.160 1_455 S
Mn1 O19 2.221 1_455 S
O2 Mn3 2.087 . S
O2 C14 1.256 1_655 S
Mn3 O2 2.087 . S
Mn3 O10 2.089 . S
Mn3 O19 2.290 . S
Mn3 O20 2.251 . S
O4 Mn1 2.160 1_656 S
O4 C15 1.239 1_655 S
O5 Mn1 2.221 . S
O5 Mn6 2.290 1_554 S
O5 C16 1.278 . S
Mn6 O5 2.290 1_556 S
Mn6 O8 2.089 . S
Mn6 O11 2.251 1_556 S
Mn6 O12 2.082 1_556 S
O7 Mn1 2.163 . S
O7 C17 1.244 . S
O8 Mn6 2.089 . S
O8 C15 1.256 . S
O9 Mn1 2.160 1_655 S
O9 C18 1.239 . S
O10 Mn3 2.089 . S
O10 C18 1.256 . S
O11 Mn6 2.251 1_554 S
O11 C16 1.241 . S
O12 Mn6 2.082 1_554 S
O12 C17 1.260 . S
C13 O19 1.278 . S
C13 O20 1.241 . S
C14 O0 1.244 . S
C14 O2 1.256 1_455 S
C15 O4 1.239 1_455 S
C15 O8 1.256 . S
C16 O5 1.278 . S
C16 O11 1.241 . S
C17 O7 1.244 . S
C17 O12 1.260 . S
C18 O9 1.239 . S
C18 O10 1.256 . S
O19 Mn1 2.221 1_655 S
O19 Mn3 2.290 . S
O19 C13 1.278 . S
O20 Mn3 2.251 . S
O20 C13 1.241 . S
O21 Mn22 2.163 1_556 S
O21 C35 1.244 . S
Mn22 O21 2.163 1_554 S
Mn22 O25 2.160 . S
Mn22 O26 2.221 . S
Mn22 O28 2.163 . S
Mn22 O30 2.160 . S
Mn22 O40 2.221 . S
O23 Mn24 2.087 . S
O23 C35 1.256 . S
Mn24 O23 2.087 . S
Mn24 O31 2.089 . S
Mn24 O40 2.290 1_556 S
Mn24 O41 2.251 . S
O25 Mn22 2.160 . S
O25 C36 1.239 . S
O26 Mn22 2.221 . S
O26 Mn27 2.290 . S
O26 C37 1.278 . S
Mn27 O26 2.290 . S
Mn27 O29 2.089 . S
Mn27 O32 2.251 . S
Mn27 O33 2.087 . S
O28 Mn22 2.163 . S
O28 C38 1.244 . S
O29 Mn27 2.089 . S
O29 C36 1.256 . S
O30 Mn22 2.160 . S
O30 C39 1.239 . S
O31 Mn24 2.089 . S
O31 C39 1.256 1_556 S
O32 Mn27 2.251 . S
O32 C37 1.241 . S
O33 Mn27 2.087 . S
O33 C38 1.256 . S
C34 O40 1.278 . S
C34 O41 1.241 1_554 S
C35 O21 1.244 . S
C35 O23 1.256 . S
C36 O25 1.239 . S
C36 O29 1.256 . S
C37 O26 1.278 . S
C37 O32 1.241 . S
C38 O28 1.244 . S
C38 O33 1.256 . S
C39 O30 1.239 . S
C39 O31 1.256 1_554 S
O40 Mn22 2.221 . S
O40 Mn24 2.290 1_554 S
O40 C34 1.278 . S
O41 Mn24 2.251 . S
O41 C34 1.241 1_556 S
O42 Mn43 2.163 1_554 S
O42 C56 1.244 . S
Mn43 O42 2.163 1_556 S
Mn43 O46 2.160 . S
Mn43 O47 2.221 1_545 S
Mn43 O49 2.163 1_545 S
Mn43 O51 2.159 1_556 S
Mn43 O61 2.221 1_556 S
O44 Mn45 2.087 . S
O44 C56 1.256 . S
Mn45 O44 2.087 . S
Mn45 O52 2.089 . S
Mn45 O61 2.290 . S
Mn45 O62 2.251 . S
O46 Mn43 2.160 . S
O46 C57 1.239 . S
O47 Mn43 2.221 1_565 S
O47 Mn48 2.290 . S
O47 C58 1.278 . S
Mn48 O47 2.290 . S
Mn48 O50 2.089 . S
Mn48 O53 2.251 . S
Mn48 O54 2.087 . S
O49 Mn43 2.163 1_565 S
O49 C59 1.244 . S
O50 Mn48 2.089 . S
O50 C57 1.256 1_565 S
O51 Mn43 2.159 1_554 S
O51 C60 1.245 . S
O52 Mn45 2.089 . S
O52 C60 1.256 . S
O53 Mn48 2.251 . S
O53 C58 1.241 . S
O54 Mn48 2.087 . S
O54 C59 1.256 . S
C55 O61 1.278 . S
C55 O62 1.241 . S
C56 O42 1.244 . S
C56 O44 1.256 . S
C57 O46 1.239 . S
C57 O50 1.256 1_545 S
C58 O47 1.278 . S
C58 O53 1.241 . S
C59 O49 1.244 . S
C59 O54 1.256 . S
C60 O51 1.245 . S
C60 O52 1.256 . S
O61 Mn43 2.221 1_554 S
O61 Mn45 2.290 . S
O61 C55 1.278 . S
O62 Mn45 2.251 . S
O62 C55 1.241 . S
O63 Mn64 2.163 . S
O63 C77 1.244 . S
Mn64 O63 2.163 . S
Mn64 O67 2.160 . S
Mn64 O68 2.221 . S
Mn64 O70 2.163 . S
Mn64 O72 2.160 . S
Mn64 O82 2.221 . S
O65 Mn66 2.087 . S
O65 C77 1.256 . S
Mn66 O65 2.087 . S
Mn66 O73 2.089 . S
Mn66 O82 2.290 . S
Mn66 O83 2.251 . S
O67 Mn64 2.160 . S
O67 C78 1.239 . S
O68 Mn64 2.221 . S
O68 Mn69 2.290 . S
O68 C79 1.278 . S
Mn69 O68 2.290 . S
Mn69 O71 2.089 . S
Mn69 O74 2.251 . S
Mn69 O75 2.087 . S
O70 Mn64 2.163 . S
O70 C80 1.244 . S
O71 Mn69 2.089 . S
O71 C78 1.256 . S
O72 Mn64 2.160 . S
O72 C81 1.239 . S
O73 Mn66 2.089 . S
O73 C81 1.256 . S
O74 Mn69 2.251 . S
O74 C79 1.241 . S
O75 Mn69 2.087 . S
O75 C80 1.256 . S
C76 O82 1.278 . S
C76 O83 1.241 . S
C77 O63 1.244 . S
C77 O65 1.256 . S
C78 O67 1.239 . S
C78 O71 1.256 . S
C79 O68 1.278 . S
C79 O74 1.241 . S
C80 O70 1.244 . S
C80 O75 1.256 . S
C81 O72 1.239 . S
C81 O73 1.256 . S
O82 Mn64 2.221 . S
O82 Mn66 2.290 . S
O82 C76 1.278 . S
O83 Mn66 2.251 . S
O83 C76 1.241 . S
O84 Mn85 2.163 . S
O84 C98 1.244 . S
Mn85 O84 2.163 . S
Mn85 O88 2.160 . S
Mn85 O89 2.221 . S
Mn85 O91 2.163 . S
Mn85 O93 2.160 . S
Mn85 O103 2.221 . S
O86 Mn87 2.087 . S
O86 C98 1.256 . S
Mn87 O86 2.087 . S
Mn87 O94 2.089 . S
Mn87 O103 2.290 . S
Mn87 O104 2.251 . S
O88 Mn85 2.160 . S
O88 C99 1.239 . S
O89 Mn85 2.221 . S
O89 Mn90 2.290 . S
O89 C100 1.278 . S
Mn90 O89 2.290 . S
Mn90 O92 2.089 . S
Mn90 O95 2.251 . S
Mn90 O96 2.087 . S
O91 Mn85 2.163 . S
O91 C101 1.244 . S
O92 Mn90 2.089 . S
O92 C99 1.256 . S
O93 Mn85 2.160 . S
O93 C102 1.239 . S
O94 Mn87 2.089 . S
O94 C102 1.256 . S
O95 Mn90 2.251 . S
O95 C100 1.241 . S
O96 Mn90 2.087 . S
O96 C101 1.256 . S
C97 O103 1.278 . S
C97 O104 1.241 . S
C98 O84 1.244 . S
C98 O86 1.256 . S
C99 O88 1.239 . S
C99 O92 1.256 . S
C100 O89 1.278 . S
C100 O95 1.241 . S
C101 O91 1.244 . S
C101 O96 1.256 . S
C102 O93 1.239 . S
C102 O94 1.256 . S
O103 Mn85 2.221 . S
O103 Mn87 2.290 . S
O103 C97 1.278 . S
O104 Mn87 2.251 . S
O104 C97 1.241 . S
O105 Mn106 2.163 . S
O105 C119 1.244 . S
Mn106 O105 2.163 . S
Mn106 O109 2.160 . S
Mn106 O110 2.221 . S
Mn106 O112 2.163 . S
Mn106 O114 2.160 . S
Mn106 O124 2.221 . S
O107 Mn108 2.087 . S
O107 C119 1.256 . S
Mn108 O107 2.087 . S
Mn108 O115 2.089 . S
Mn108 O124 2.290 . S
Mn108 O125 2.251 . S
O109 Mn106 2.160 . S
O109 C120 1.239 . S
O110 Mn106 2.221 . S
O110 Mn111 2.290 . S
O110 C121 1.278 . S
Mn111 O110 2.290 . S
Mn111 O113 2.089 . S
Mn111 O116 2.251 . S
Mn111 O117 2.087 . S
O112 Mn106 2.163 . S
O112 C122 1.244 . S
O113 Mn111 2.089 . S
O113 C120 1.256 . S
O114 Mn106 2.160 . S
O114 C123 1.239 . S
O115 Mn108 2.089 . S
O115 C123 1.256 . S
O116 Mn111 2.251 . S
O116 C121 1.241 . S
O117 Mn111 2.087 . S
O117 C122 1.256 . S
C118 O124 1.278 . S
C118 O125 1.241 . S
C119 O105 1.244 . S
C119 O107 1.256 . S
C120 O109 1.239 . S
C120 O113 1.256 . S
C121 O110 1.278 . S
C121 O116 1.241 . S
C122 O112 1.244 . S
C122 O117 1.256 . S
C123 O114 1.239 . S
C123 O115 1.256 . S
O124 Mn106 2.221 . S
O124 Mn108 2.290 . S
O124 C118 1.278 . S
O125 Mn108 2.251 . S
O125 C118 1.241 . S
O126 Mn127 2.163 . S
O126 C140 1.244 . S
Mn127 O126 2.163 . S
Mn127 O130 2.160 . S
Mn127 O131 2.221 . S
Mn127 O133 2.163 . S
Mn127 O135 2.160 . S
Mn127 O145 2.221 . S
O128 Mn129 2.087 . S
O128 C140 1.256 . S
Mn129 O128 2.087 . S
Mn129 O136 2.089 . S
Mn129 O145 2.290 . S
Mn129 O146 2.251 . S
O130 Mn127 2.160 . S
O130 C141 1.239 . S
O131 Mn127 2.221 . S
O131 Mn132 2.290 . S
O131 C142 1.278 . S
Mn132 O131 2.290 . S
Mn132 O134 2.089 . S
Mn132 O137 2.251 . S
Mn132 O138 2.087 . S
O133 Mn127 2.163 . S
O133 C143 1.244 . S
O134 Mn132 2.089 . S
O134 C141 1.256 . S
O135 Mn127 2.160 . S
O135 C144 1.239 . S
O136 Mn129 2.089 . S
O136 C144 1.256 . S
O137 Mn132 2.251 . S
O137 C142 1.241 . S
O138 Mn132 2.087 . S
O138 C143 1.256 . S
C139 O145 1.278 . S
C139 O146 1.241 . S
C140 O126 1.244 . S
C140 O128 1.256 . S
C141 O130 1.239 . S
C141 O134 1.256 . S
C142 O131 1.278 . S
C142 O137 1.241 . S
C143 O133 1.244 . S
C143 O138 1.256 . S
C144 O135 1.239 . S
C144 O136 1.256 . S
O145 Mn127 2.221 . S
O145 Mn129 2.290 . S
O145 C139 1.278 . S
O146 Mn129 2.251 . S
O146 C139 1.241 . S
O147 Mn148 2.163 . S
O147 C161 1.244 . S
Mn148 O147 2.163 . S
Mn148 O151 2.160 . S
Mn148 O152 2.221 . S
Mn148 O154 2.163 . S
Mn148 O156 2.160 . S
Mn148 O166 2.221 . S
O149 Mn150 2.087 . S
O149 C161 1.256 . S
Mn150 O149 2.087 . S
Mn150 O157 2.089 . S
Mn150 O166 2.290 . S
Mn150 O167 2.251 . S
O151 Mn148 2.160 . S
O151 C162 1.239 . S
O152 Mn148 2.221 . S
O152 Mn153 2.290 . S
O152 C163 1.278 . S
Mn153 O152 2.290 . S
Mn153 O155 2.089 . S
Mn153 O158 2.251 . S
Mn153 O159 2.087 . S
O154 Mn148 2.163 . S
O154 C164 1.244 . S
O155 Mn153 2.089 . S
O155 C162 1.256 . S
O156 Mn148 2.160 . S
O156 C165 1.239 . S
O157 Mn150 2.089 . S
O157 C165 1.256 . S
O158 Mn153 2.251 . S
O158 C163 1.241 . S
O159 Mn153 2.087 . S
O159 C164 1.256 . S
C160 O166 1.278 . S
C160 O167 1.241 . S
C161 O147 1.244 . S
C161 O149 1.256 . S
C162 O151 1.239 . S
C162 O155 1.256 . S
C163 O152 1.278 . S
C163 O158 1.241 . S
C164 O154 1.244 . S
C164 O159 1.256 . S
C165 O156 1.239 . S
C165 O157 1.256 . S
O166 Mn148 2.221 . S
O166 Mn150 2.290 . S
O166 C160 1.278 . S
O167 Mn150 2.251 . S
O167 C160 1.241 . S
O168 Mn169 2.163 . S
O168 C182 1.244 . S
Mn169 O168 2.163 . S
Mn169 O172 2.160 . S
Mn169 O173 2.221 . S
Mn169 O175 2.163 . S
Mn169 O177 2.160 . S
Mn169 O187 2.221 . S
O170 Mn171 2.087 . S
O170 C182 1.256 . S
Mn171 O170 2.087 . S
Mn171 O178 2.089 . S
Mn171 O187 2.290 . S
Mn171 O188 2.251 . S
O172 Mn169 2.160 . S
O172 C183 1.239 . S
O173 Mn169 2.221 . S
O173 Mn174 2.290 . S
O173 C184 1.278 . S
Mn174 O173 2.290 . S
Mn174 O176 2.089 . S
Mn174 O179 2.251 . S
Mn174 O180 2.087 . S
O175 Mn169 2.163 . S
O175 C185 1.244 . S
O176 Mn174 2.089 . S
O176 C183 1.256 . S
O177 Mn169 2.160 . S
O177 C186 1.239 . S
O178 Mn171 2.089 . S
O178 C186 1.256 . S
O179 Mn174 2.251 . S
O179 C184 1.241 . S
O180 Mn174 2.087 . S
O180 C185 1.256 . S
C181 O187 1.278 . S
C181 O188 1.241 . S
C182 O168 1.244 . S
C182 O170 1.256 . S
C183 O172 1.239 . S
C183 O176 1.256 . S
C184 O173 1.278 . S
C184 O179 1.241 . S
C185 O175 1.244 . S
C185 O180 1.256 . S
C186 O177 1.239 . S
C186 O178 1.256 . S
O187 Mn169 2.221 . S
O187 Mn171 2.290 . S
O187 C181 1.278 . S
O188 Mn171 2.251 . S
O188 C181 1.241 . S
H189 C201 0.930 . S
H190 C203 0.930 . S
H191 C204 0.930 . S
H192 C208 0.959 1_556 S
H193 C208 0.959 . S
H194 C208 0.961 . S
H195 C209 0.960 . S
H196 C209 0.961 . S
H197 C209 0.959 . S
H198 C212 0.929 . S
H199 C213 0.931 . S
H200 C215 0.930 . S
C201 H189 0.930 . S
C201 C202 1.399 . S
C201 C206 1.399 1_554 S
C202 C201 1.399 . S
C202 C203 1.376 1_554 S
C203 H190 0.930 . S
C203 C202 1.376 1_556 S
C203 C204 1.388 . S
C204 H191 0.930 . S
C204 C203 1.388 . S
C204 C205 1.390 . S
C205 C204 1.390 . S
C205 C206 1.394 . S
C205 C211 1.465 . S
C206 C201 1.399 1_556 S
C206 C205 1.394 . S
C206 C207 1.516 1_556 S
C207 C206 1.516 1_554 S
C207 C208 1.502 . S
C207 C209 1.561 . S
C207 C210 1.526 1_554 S
C208 H192 0.959 1_554 S
C208 H193 0.959 . S
C208 H194 0.961 . S
C208 C207 1.502 . S
C209 H195 0.960 . S
C209 H196 0.961 . S
C209 H197 0.959 . S
C209 C207 1.561 . S
C210 C207 1.526 1_556 S
C210 C211 1.396 . S
C210 C215 1.390 . S
C211 C205 1.465 . S
C211 C210 1.396 . S
C211 C212 1.399 . S
C212 H198 0.929 . S
C212 C211 1.399 . S
C212 C213 1.385 . S
C213 H199 0.931 . S
C213 C212 1.385 . S
C213 C214 1.389 . S
C214 C213 1.389 . S
C214 C215 1.387 . S
C215 H200 0.930 . S
C215 C210 1.390 . S
C215 C214 1.387 . S
H216 C228 0.930 . S
H217 C230 0.930 . S
H218 C231 0.930 . S
H219 C235 0.959 . S
H220 C235 0.959 . S
H221 C235 0.961 . S
H222 C236 0.960 1_554 S
H223 C236 0.961 . S
H224 C236 0.959 1_554 S
H225 C239 0.929 . S
H226 C240 0.931 . S
H227 C242 0.930 . S
C228 H216 0.930 . S
C228 C229 1.399 . S
C228 C233 1.399 1_554 S
C229 C228 1.399 . S
C229 C230 1.376 . S
C230 H217 0.930 . S
C230 C229 1.376 . S
C230 C231 1.388 1_554 S
C231 H218 0.930 . S
C231 C230 1.388 1_556 S
C231 C232 1.390 . S
C232 C231 1.390 . S
C232 C233 1.394 . S
C232 C238 1.465 . S
C233 C228 1.399 1_556 S
C233 C232 1.394 . S
C233 C234 1.516 . S
C234 C233 1.516 . S
C234 C235 1.502 . S
C234 C236 1.561 . S
C234 C237 1.526 . S
C235 H219 0.959 . S
C235 H220 0.959 . S
C235 H221 0.961 . S
C235 C234 1.502 . S
C236 H222 0.960 1_556 S
C236 H223 0.961 . S
C236 H224 0.959 1_556 S
C236 C234 1.561 . S
C237 C234 1.526 . S
C237 C238 1.396 . S
C237 C242 1.390 . S
C238 C232 1.465 . S
C238 C237 1.396 . S
C238 C239 1.399 . S
C239 H225 0.929 . S
C239 C238 1.399 . S
C239 C240 1.385 . S
C240 H226 0.931 . S
C240 C239 1.385 . S
C240 C241 1.389 . S
C241 C240 1.389 . S
C241 C242 1.387 . S
C242 H227 0.930 . S
C242 C237 1.390 . S
C242 C241 1.387 . S
H243 C255 0.930 . S
H244 C257 0.930 . S
H245 C258 0.930 . S
H246 C262 0.959 . S
H247 C262 0.959 . S
H248 C262 0.961 . S
H249 C263 0.960 . S
H250 C263 0.961 . S
H251 C263 0.959 . S
H252 C266 0.929 . S
H253 C267 0.931 . S
H254 C269 0.930 . S
C255 H243 0.930 . S
C255 C256 1.399 . S
C255 C260 1.399 . S
C256 C255 1.399 . S
C256 C257 1.376 . S
C257 H244 0.930 . S
C257 C256 1.376 . S
C257 C258 1.388 . S
C258 H245 0.930 . S
C258 C257 1.388 . S
C258 C259 1.390 . S
C259 C258 1.390 . S
C259 C260 1.394 . S
C259 C265 1.465 . S
C260 C255 1.399 . S
C260 C259 1.394 . S
C260 C261 1.516 . S
C261 C260 1.516 . S
C261 C262 1.502 . S
C261 C263 1.561 . S
C261 C264 1.526 . S
C262 H246 0.959 . S
C262 H247 0.959 . S
C262 H248 0.961 . S
C262 C261 1.502 . S
C263 H249 0.960 . S
C263 H250 0.961 . S
C263 H251 0.959 . S
C263 C261 1.561 . S
C264 C261 1.526 . S
C264 C265 1.396 . S
C264 C269 1.390 . S
C265 C259 1.465 . S
C265 C264 1.396 . S
C265 C266 1.399 . S
C266 H252 0.929 . S
C266 C265 1.399 . S
C266 C267 1.385 . S
C267 H253 0.931 . S
C267 C266 1.385 . S
C267 C268 1.389 . S
C268 C267 1.389 . S
C268 C269 1.387 . S
C269 H254 0.930 . S
C269 C264 1.390 . S
C269 C268 1.387 . S
H270 C282 0.930 . S
H271 C284 0.930 . S
H272 C285 0.930 . S
H273 C289 0.959 . S
H274 C289 0.959 . S
H275 C289 0.961 . S
H276 C290 0.960 . S
H277 C290 0.961 . S
H278 C290 0.959 . S
H279 C293 0.929 . S
H280 C294 0.931 . S
H281 C296 0.930 . S
C282 H270 0.930 . S
C282 C283 1.399 . S
C282 C287 1.399 . S
C283 C282 1.399 . S
C283 C284 1.376 . S
C284 H271 0.930 . S
C284 C283 1.376 . S
C284 C285 1.388 . S
C285 H272 0.930 . S
C285 C284 1.388 . S
C285 C286 1.390 . S
C286 C285 1.390 . S
C286 C287 1.394 . S
C286 C292 1.465 . S
C287 C282 1.399 . S
C287 C286 1.394 . S
C287 C288 1.516 . S
C288 C287 1.516 . S
C288 C289 1.502 . S
C288 C290 1.561 1_554 S
C288 C291 1.526 . S
C289 H273 0.959 . S
C289 H274 0.959 . S
C289 H275 0.961 . S
C289 C288 1.502 . S
C290 H276 0.960 . S
C290 H277 0.961 . S
C290 H278 0.959 . S
C290 C288 1.561 1_556 S
C291 C288 1.526 . S
C291 C292 1.396 . S
C291 C296 1.390 . S
C292 C286 1.465 . S
C292 C291 1.396 . S
C292 C293 1.399 . S
C293 H279 0.929 . S
C293 C292 1.399 . S
C293 C294 1.385 . S
C294 H280 0.931 . S
C294 C293 1.385 . S
C294 C295 1.389 . S
C295 C294 1.389 . S
C295 C296 1.387 . S
C296 H281 0.930 . S
C296 C291 1.390 . S
C296 C295 1.387 . S
H297 C309 0.930 . S
H298 C311 0.930 . S
H299 C312 0.930 . S
H300 C316 0.959 . S
H301 C316 0.959 . S
H302 C316 0.961 . S
H303 C317 0.960 . S
H304 C317 0.961 . S
H305 C317 0.959 . S
H306 C320 0.929 . S
H307 C321 0.931 . S
H308 C323 0.930 . S
C309 H297 0.930 . S
C309 C310 1.399 . S
C309 C314 1.399 . S
C310 C309 1.399 . S
C310 C311 1.376 . S
C311 H298 0.930 . S
C311 C310 1.376 . S
C311 C312 1.388 . S
C312 H299 0.930 . S
C312 C311 1.388 . S
C312 C313 1.390 . S
C313 C312 1.390 . S
C313 C314 1.394 . S
C313 C319 1.465 . S
C314 C309 1.399 . S
C314 C313 1.394 . S
C314 C315 1.516 . S
C315 C314 1.516 . S
C315 C316 1.502 . S
C315 C317 1.561 . S
C315 C318 1.526 . S
C316 H300 0.959 . S
C316 H301 0.959 . S
C316 H302 0.961 . S
C316 C315 1.502 . S
C317 H303 0.960 . S
C317 H304 0.961 . S
C317 H305 0.959 . S
C317 C315 1.561 . S
C318 C315 1.526 . S
C318 C319 1.396 . S
C318 C323 1.390 . S
C319 C313 1.465 . S
C319 C318 1.396 . S
C319 C320 1.399 . S
C320 H306 0.929 . S
C320 C319 1.399 . S
C320 C321 1.385 . S
C321 H307 0.931 . S
C321 C320 1.385 . S
C321 C322 1.389 . S
C322 C321 1.389 . S
C322 C323 1.387 . S
C323 H308 0.930 . S
C323 C318 1.390 . S
C323 C322 1.387 . S
H324 C336 0.930 . S
H325 C338 0.930 1_556 S
H326 C339 0.930 . S
H327 C343 0.959 . S
H328 C343 0.959 . S
H329 C343 0.961 . S
H330 C344 0.960 . S
H331 C344 0.961 . S
H332 C344 0.959 . S
H333 C347 0.929 . S
H334 C348 0.931 . S
H335 C350 0.930 . S
C336 H324 0.930 . S
C336 C337 1.399 . S
C336 C341 1.399 . S
C337 C336 1.399 . S
C337 C338 1.376 . S
C338 H325 0.930 1_554 S
C338 C337 1.376 . S
C338 C339 1.388 . S
C339 H326 0.930 . S
C339 C338 1.388 . S
C339 C340 1.390 . S
C340 C339 1.390 . S
C340 C341 1.394 . S
C340 C346 1.465 . S
C341 C336 1.399 . S
C341 C340 1.394 . S
C341 C342 1.516 . S
C342 C341 1.516 . S
C342 C343 1.502 . S
C342 C344 1.561 . S
C342 C345 1.526 . S
C343 H327 0.959 . S
C343 H328 0.959 . S
C343 H329 0.961 . S
C343 C342 1.502 . S
C344 H330 0.960 . S
C344 H331 0.961 . S
C344 H332 0.959 . S
C344 C342 1.561 . S
C345 C342 1.526 . S
C345 C346 1.396 . S
C345 C350 1.390 . S
C346 C340 1.465 . S
C346 C345 1.396 . S
C346 C347 1.399 . S
C347 H333 0.929 . S
C347 C346 1.399 . S
C347 C348 1.385 . S
C348 H334 0.931 . S
C348 C347 1.385 . S
C348 C349 1.389 . S
C349 C348 1.389 . S
C349 C350 1.387 . S
C350 H335 0.930 . S
C350 C345 1.390 . S
C350 C349 1.387 . S
H351 C363 0.930 . S
H352 C365 0.930 . S
H353 C366 0.958 . S
H354 C370 0.959 . S
H355 C370 0.959 . S
H356 C370 0.961 . S
H357 C371 0.960 . S
H358 C371 0.961 . S
H359 C371 0.959 . S
H360 C374 0.929 . S
H361 C375 0.931 . S
H362 C377 0.930 . S
C363 H351 0.930 . S
C363 C364 1.399 . S
C363 C368 1.399 . S
C364 C363 1.399 . S
C364 C365 1.376 . S
C365 H352 0.930 . S
C365 C364 1.376 . S
C365 C366 1.388 . S
C366 H353 0.958 . S
C366 C365 1.388 . S
C366 C367 1.390 . S
C367 C366 1.390 . S
C367 C368 1.394 . S
C367 C373 1.465 1_455 S
C368 C363 1.399 . S
C368 C367 1.394 . S
C368 C369 1.516 . S
C369 C368 1.516 . S
C369 C370 1.502 . S
C369 C371 1.561 . S
C369 C372 1.526 1_455 S
C370 H354 0.959 . S
C370 H355 0.959 . S
C370 H356 0.961 . S
C370 C369 1.502 . S
C371 H357 0.960 . S
C371 H358 0.961 . S
C371 H359 0.959 . S
C371 C369 1.561 . S
C372 C369 1.526 1_655 S
C372 C373 1.396 . S
C372 C377 1.390 . S
C373 C367 1.465 1_655 S
C373 C372 1.396 . S
C373 C374 1.399 . S
C374 H360 0.929 . S
C374 C373 1.399 . S
C374 C375 1.385 . S
C375 H361 0.931 . S
C375 C374 1.385 . S
C375 C376 1.389 . S
C376 C375 1.389 . S
C376 C377 1.387 . S
C377 H362 0.930 . S
C377 C372 1.390 . S
C377 C376 1.387 . S
H378 C390 0.930 . S
H379 C392 0.930 . S
H380 C393 0.930 . S
H381 C397 0.959 . S
H382 C397 0.959 . S
H383 C397 0.961 . S
H384 C398 0.960 . S
H385 C398 0.961 . S
H386 C398 0.959 . S
H387 C401 0.929 . S
H388 C402 0.931 . S
H389 C404 0.930 . S
C390 H378 0.930 . S
C390 C391 1.399 . S
C390 C395 1.399 . S
C391 C390 1.399 . S
C391 C392 1.376 . S
C392 H379 0.930 . S
C392 C391 1.376 . S
C392 C393 1.388 . S
C393 H380 0.930 . S
C393 C392 1.388 . S
C393 C394 1.390 . S
C394 C393 1.390 . S
C394 C395 1.394 . S
C394 C400 1.465 . S
C395 C390 1.399 . S
C395 C394 1.394 . S
C395 C396 1.516 . S
C396 C395 1.516 . S
C396 C397 1.502 . S
C396 C398 1.561 . S
C396 C399 1.526 . S
C397 H381 0.959 . S
C397 H382 0.959 . S
C397 H383 0.961 . S
C397 C396 1.502 . S
C398 H384 0.960 . S
C398 H385 0.961 . S
C398 H386 0.959 . S
C398 C396 1.561 . S
C399 C396 1.526 . S
C399 C400 1.396 . S
C399 C404 1.390 . S
C400 C394 1.465 . S
C400 C399 1.396 . S
C400 C401 1.399 . S
C401 H387 0.929 . S
C401 C400 1.399 . S
C401 C402 1.385 . S
C402 H388 0.931 . S
C402 C401 1.385 . S
C402 C403 1.389 . S
C403 C402 1.389 . S
C403 C404 1.387 . S
C404 H389 0.930 . S
C404 C399 1.390 . S
C404 C403 1.387 . S
H405 C417 0.930 . S
H406 C419 0.930 . S
H407 C420 0.930 . S
H408 C424 0.959 . S
H409 C424 0.959 . S
H410 C424 0.961 . S
H411 C425 0.960 . S
H412 C425 0.961 . S
H413 C425 0.959 . S
H414 C428 0.929 . S
H415 C429 0.931 . S
H416 C431 0.930 . S
C417 H405 0.930 . S
C417 C418 1.399 . S
C417 C422 1.399 . S
C418 C417 1.399 . S
C418 C419 1.376 . S
C419 H406 0.930 . S
C419 C418 1.376 . S
C419 C420 1.388 . S
C420 H407 0.930 . S
C420 C419 1.388 . S
C420 C421 1.390 . S
C421 C420 1.390 . S
C421 C422 1.394 . S
C421 C427 1.465 . S
C422 C417 1.399 . S
C422 C421 1.394 . S
C422 C423 1.516 1_545 S
C423 C422 1.516 1_565 S
C423 C424 1.502 . S
C423 C425 1.561 . S
C423 C426 1.526 . S
C424 H408 0.959 . S
C424 H409 0.959 . S
C424 H410 0.961 . S
C424 C423 1.502 . S
C425 H411 0.960 . S
C425 H412 0.961 . S
C425 H413 0.959 . S
C425 C423 1.561 . S
C426 C423 1.526 . S
C426 C427 1.396 1_565 S
C426 C431 1.390 . S
C427 C421 1.465 . S
C427 C426 1.396 1_545 S
C427 C428 1.399 . S
C428 H414 0.929 . S
C428 C427 1.399 . S
C428 C429 1.385 1_545 S
C429 H415 0.931 . S
C429 C428 1.385 1_565 S
C429 C430 1.389 . S
C430 C429 1.389 . S
C430 C431 1.387 . S
C431 H416 0.930 . S
C431 C426 1.390 . S
C431 C430 1.387 . S
H432 C444 0.930 . S
H433 C446 0.930 . S
H434 C447 0.930 . S
H435 C451 0.959 . S
H436 C451 0.959 . S
H437 C451 0.961 . S
H438 C452 0.960 . S
H439 C452 0.961 . S
H440 C452 0.959 . S
H441 C455 0.929 . S
H442 C456 0.931 . S
H443 C458 0.930 . S
C444 H432 0.930 . S
C444 C445 1.399 . S
C444 C449 1.399 . S
C445 C444 1.399 . S
C445 C446 1.376 1_554 S
C446 H433 0.930 . S
C446 C445 1.376 1_556 S
C446 C447 1.388 . S
C447 H434 0.930 . S
C447 C446 1.388 . S
C447 C448 1.390 1_556 S
C448 C447 1.390 1_554 S
C448 C449 1.394 . S
C448 C454 1.465 . S
C449 C444 1.399 . S
C449 C448 1.394 . S
C449 C450 1.516 . S
C450 C449 1.516 . S
C450 C451 1.502 . S
C450 C452 1.561 . S
C450 C453 1.526 . S
C451 H435 0.959 . S
C451 H436 0.959 . S
C451 H437 0.961 . S
C451 C450 1.502 . S
C452 H438 0.960 . S
C452 H439 0.961 . S
C452 H440 0.959 . S
C452 C450 1.561 . S
C453 C450 1.526 . S
C453 C454 1.396 . S
C453 C458 1.390 . S
C454 C448 1.465 . S
C454 C453 1.396 . S
C454 C455 1.399 1_554 S
C455 H441 0.929 . S
C455 C454 1.399 1_556 S
C455 C456 1.385 . S
C456 H442 0.931 . S
C456 C455 1.385 . S
C456 C457 1.389 1_556 S
C457 C456 1.389 1_554 S
C457 C458 1.387 . S
C458 H443 0.930 . S
C458 C453 1.390 . S
C458 C457 1.387 . S
H459 C471 0.930 . S
H460 C473 0.930 . S
H461 C474 0.930 . S
H462 C478 0.959 . S
H463 C478 0.959 . S
H464 C478 0.961 . S
H465 C479 0.960 . S
H466 C479 0.961 . S
H467 C479 0.959 . S
H468 C482 0.929 . S
H469 C483 0.931 . S
H470 C485 0.930 . S
C471 H459 0.930 . S
C471 C472 1.399 . S
C471 C476 1.399 . S
C472 C471 1.399 . S
C472 C473 1.376 1_554 S
C473 H460 0.930 . S
C473 C472 1.376 1_556 S
C473 C474 1.388 . S
C474 H461 0.930 . S
C474 C473 1.388 . S
C474 C475 1.377 1_566 S
C475 C474 1.377 1_544 S
C475 C476 1.387 1_545 S
C475 C481 1.486 . S
C476 C471 1.399 . S
C476 C475 1.387 1_565 S
C476 C477 1.516 1_565 S
C477 C476 1.516 1_545 S
C477 C478 1.502 . S
C477 C479 1.561 . S
C477 C480 1.526 . S
C478 H462 0.959 . S
C478 H463 0.959 . S
C478 H464 0.961 . S
C478 C477 1.502 . S
C479 H465 0.960 . S
C479 H466 0.961 . S
C479 H467 0.959 . S
C479 C477 1.561 . S
C480 C477 1.526 . S
C480 C481 1.396 . S
C480 C485 1.390 . S
C481 C475 1.486 . S
C481 C480 1.396 . S
C481 C482 1.399 1_554 S
C482 H468 0.929 . S
C482 C481 1.399 1_556 S
C482 C483 1.385 . S
C483 H469 0.931 . S
C483 C482 1.385 . S
C483 C484 1.389 1_556 S
C484 C483 1.389 1_554 S
C484 C485 1.387 . S
C485 H470 0.930 . S
C485 C480 1.390 . S
C485 C484 1.387 . S
H486 C498 0.930 . S
H487 C500 0.930 . S
H488 C501 0.930 . S
H489 C505 0.959 . S
H490 C505 0.959 . S
H491 C505 0.961 1_655 S
H492 C506 0.960 . S
H493 C506 0.961 . S
H494 C506 0.959 . S
H495 C509 0.929 . S
H496 C510 0.931 . S
H497 C512 0.930 . S
C498 H486 0.930 . S
C498 C499 1.399 . S
C498 C503 1.399 . S
C499 C498 1.399 . S
C499 C500 1.376 1_554 S
C500 H487 0.930 . S
C500 C499 1.376 1_556 S
C500 C501 1.388 . S
C501 H488 0.930 . S
C501 C500 1.388 . S
C501 C502 1.390 1_556 S
C502 C501 1.390 1_554 S
C502 C503 1.394 . S
C502 C508 1.465 1_654 S
C503 C498 1.399 . S
C503 C502 1.394 . S
C503 C504 1.516 1_655 S
C504 C503 1.516 1_455 S
C504 C505 1.502 . S
C504 C506 1.561 . S
C504 C507 1.526 . S
C505 H489 0.959 . S
C505 H490 0.959 . S
C505 H491 0.961 1_455 S
C505 C504 1.502 . S
C506 H492 0.960 . S
C506 H493 0.961 . S
C506 H494 0.959 . S
C506 C504 1.561 . S
C507 C504 1.526 . S
C507 C508 1.396 1_554 S
C507 C512 1.390 . S
C508 C502 1.465 1_456 S
C508 C507 1.396 1_556 S
C508 C509 1.399 . S
C509 H495 0.929 . S
C509 C508 1.399 . S
C509 C510 1.385 . S
C510 H496 0.931 . S
C510 C509 1.385 . S
C510 C511 1.389 . S
C511 C510 1.389 . S
C511 C512 1.387 1_556 S
C512 H497 0.930 . S
C512 C507 1.390 . S
C512 C511 1.387 1_554 S
H513 C525 0.930 . S
H514 C527 0.930 . S
H515 C528 0.930 . S
H516 C532 0.959 . S
H517 C532 0.959 . S
H518 C532 0.961 . S
H519 C533 0.960 . S
H520 C533 0.961 . S
H521 C533 0.959 . S
H522 C536 0.929 . S
H523 C537 0.931 . S
H524 C539 0.930 . S
C525 H513 0.930 . S
C525 C526 1.399 . S
C525 C530 1.399 . S
C526 C525 1.399 . S
C526 C527 1.376 . S
C527 H514 0.930 . S
C527 C526 1.376 . S
C527 C528 1.388 . S
C528 H515 0.930 . S
C528 C527 1.388 . S
C528 C529 1.390 . S
C529 C528 1.390 . S
C529 C530 1.394 . S
C529 C535 1.465 . S
C530 C525 1.399 . S
C530 C529 1.394 . S
C530 C531 1.516 . S
C531 C530 1.516 . S
C531 C532 1.502 . S
C531 C533 1.561 . S
C531 C534 1.526 . S
C532 H516 0.959 . S
C532 H517 0.959 . S
C532 H518 0.961 . S
C532 C531 1.502 . S
C533 H519 0.960 . S
C533 H520 0.961 . S
C533 H521 0.959 . S
C533 C531 1.561 . S
C534 C531 1.526 . S
C534 C535 1.396 . S
C534 C539 1.390 . S
C535 C529 1.465 . S
C535 C534 1.396 . S
C535 C536 1.399 . S
C536 H522 0.929 . S
C536 C535 1.399 . S
C536 C537 1.385 . S
C537 H523 0.931 . S
C537 C536 1.385 . S
C537 C538 1.389 . S
C538 C537 1.389 . S
C538 C539 1.387 . S
C539 H524 0.930 . S
C539 C534 1.390 . S
C539 C538 1.387 . S
H540 C552 0.930 . S
H541 C554 0.930 . S
H542 C555 0.930 . S
H543 C559 0.959 . S
H544 C559 0.959 . S
H545 C559 0.961 . S
H546 C560 0.960 . S
H547 C560 0.961 . S
H548 C560 0.959 . S
H549 C563 0.929 . S
H550 C564 0.931 . S
H551 C566 0.930 . S
C552 H540 0.930 . S
C552 C553 1.399 . S
C552 C557 1.399 . S
C553 C552 1.399 . S
C553 C554 1.376 . S
C554 H541 0.930 . S
C554 C553 1.376 . S
C554 C555 1.388 . S
C555 H542 0.930 . S
C555 C554 1.388 . S
C555 C556 1.390 . S
C556 C555 1.390 . S
C556 C557 1.394 . S
C556 C562 1.465 . S
C557 C552 1.399 . S
C557 C556 1.394 . S
C557 C558 1.516 . S
C558 C557 1.516 . S
C558 C559 1.502 . S
C558 C560 1.561 . S
C558 C561 1.526 . S
C559 H543 0.959 . S
C559 H544 0.959 . S
C559 H545 0.961 . S
C559 C558 1.502 . S
C560 H546 0.960 . S
C560 H547 0.961 . S
C560 H548 0.959 . S
C560 C558 1.561 . S
C561 C558 1.526 . S
C561 C562 1.396 . S
C561 C566 1.390 . S
C562 C556 1.465 . S
C562 C561 1.396 . S
C562 C563 1.399 . S
C563 H549 0.929 . S
C563 C562 1.399 . S
C563 C564 1.385 . S
C564 H550 0.931 . S
C564 C563 1.385 . S
C564 C565 1.389 . S
C565 C564 1.389 . S
C565 C566 1.387 . S
C566 H551 0.930 . S
C566 C561 1.390 . S
C566 C565 1.387 . S
H567 C579 0.930 . S
H568 C581 0.930 . S
H569 C582 0.930 . S
H570 C586 0.959 . S
H571 C586 0.959 . S
H572 C586 0.961 . S
H573 C587 0.960 . S
H574 C587 0.961 . S
H575 C587 0.959 . S
H576 C590 0.929 . S
H577 C591 0.931 . S
H578 C593 0.930 . S
C579 H567 0.930 . S
C579 C580 1.399 . S
C579 C584 1.399 . S
C580 C579 1.399 . S
C580 C581 1.376 . S
C581 H568 0.930 . S
C581 C580 1.376 . S
C581 C582 1.388 . S
C582 H569 0.930 . S
C582 C581 1.388 . S
C582 C583 1.390 . S
C583 C582 1.390 . S
C583 C584 1.394 . S
C583 C589 1.465 . S
C584 C579 1.399 . S
C584 C583 1.394 . S
C584 C585 1.516 . S
C585 C584 1.516 . S
C585 C586 1.502 . S
C585 C587 1.561 . S
C585 C588 1.526 . S
C586 H570 0.959 . S
C586 H571 0.959 . S
C586 H572 0.961 . S
C586 C585 1.502 . S
C587 H573 0.960 . S
C587 H574 0.961 . S
C587 H575 0.959 . S
C587 C585 1.561 . S
C588 C585 1.526 . S
C588 C589 1.396 . S
C588 C593 1.390 . S
C589 C583 1.465 . S
C589 C588 1.396 . S
C589 C590 1.399 . S
C590 H576 0.929 . S
C590 C589 1.399 . S
C590 C591 1.385 . S
C591 H577 0.931 . S
C591 C590 1.385 . S
C591 C592 1.389 . S
C592 C591 1.389 . S
C592 C593 1.387 . S
C593 H578 0.930 . S
C593 C588 1.390 . S
C593 C592 1.387 . S
H594 C606 0.930 . S
H595 C608 0.930 . S
H596 C609 0.930 . S
H597 C613 0.959 . S
H598 C613 0.959 . S
H599 C613 0.961 . S
H600 C614 0.960 . S
H601 C614 0.961 . S
H602 C614 0.959 . S
H603 C617 0.929 . S
H604 C618 0.931 . S
H605 C620 0.930 . S
C606 H594 0.930 . S
C606 C607 1.399 . S
C606 C611 1.399 . S
C607 C606 1.399 . S
C607 C608 1.376 . S
C608 H595 0.930 . S
C608 C607 1.376 . S
C608 C609 1.388 . S
C609 H596 0.930 . S
C609 C608 1.388 . S
C609 C610 1.390 . S
C610 C609 1.390 . S
C610 C611 1.394 . S
C610 C616 1.465 . S
C611 C606 1.399 . S
C611 C610 1.394 . S
C611 C612 1.516 . S
C612 C611 1.516 . S
C612 C613 1.502 . S
C612 C614 1.561 . S
C612 C615 1.526 . S
C613 H597 0.959 . S
C613 H598 0.959 . S
C613 H599 0.961 . S
C613 C612 1.502 . S
C614 H600 0.960 . S
C614 H601 0.961 . S
C614 H602 0.959 . S
C614 C612 1.561 . S
C615 C612 1.526 . S
C615 C616 1.396 . S
C615 C620 1.390 . S
C616 C610 1.465 . S
C616 C615 1.396 . S
C616 C617 1.399 . S
C617 H603 0.929 . S
C617 C616 1.399 . S
C617 C618 1.385 . S
C618 H604 0.931 . S
C618 C617 1.385 . S
C618 C619 1.389 . S
C619 C618 1.389 . S
C619 C620 1.387 . S
C620 H605 0.930 . S
C620 C615 1.390 . S
C620 C619 1.387 . S
H621 C633 0.930 . S
H622 C635 0.930 . S
H623 C636 0.930 . S
H624 C640 0.959 . S
H625 C640 0.959 . S
H626 C640 0.961 . S
H627 C641 0.960 . S
H628 C641 0.961 . S
H629 C641 0.959 . S
H630 C644 0.929 . S
H631 C645 0.931 . S
H632 C647 0.930 . S
C633 H621 0.930 . S
C633 C634 1.399 . S
C633 C638 1.399 . S
C634 C633 1.399 . S
C634 C635 1.376 . S
C635 H622 0.930 . S
C635 C634 1.376 . S
C635 C636 1.388 . S
C636 H623 0.930 . S
C636 C635 1.388 . S
C636 C637 1.390 . S
C637 C636 1.390 . S
C637 C638 1.394 . S
C637 C643 1.465 . S
C638 C633 1.399 . S
C638 C637 1.394 . S
C638 C639 1.516 . S
C639 C638 1.516 . S
C639 C640 1.502 . S
C639 C641 1.561 . S
C639 C642 1.526 . S
C640 H624 0.959 . S
C640 H625 0.959 . S
C640 H626 0.961 . S
C640 C639 1.502 . S
C641 H627 0.960 . S
C641 H628 0.961 . S
C641 H629 0.959 . S
C641 C639 1.561 . S
C642 C639 1.526 . S
C642 C643 1.396 . S
C642 C647 1.390 . S
C643 C637 1.465 . S
C643 C642 1.396 . S
C643 C644 1.399 . S
C644 H630 0.929 . S
C644 C643 1.399 . S
C644 C645 1.385 . S
C645 H631 0.931 . S
C645 C644 1.385 . S
C645 C646 1.389 . S
C646 C645 1.389 . S
C646 C647 1.387 . S
C647 H632 0.930 . S
C647 C642 1.390 . S
C647 C646 1.387 . S
H648 C660 0.930 . S
H649 C662 0.930 . S
H650 C663 0.930 . S
H651 C667 0.959 . S
H652 C667 0.959 . S
H653 C667 0.961 . S
H654 C668 0.960 . S
H655 C668 0.961 . S
H656 C668 0.959 . S
H657 C671 0.929 . S
H658 C672 0.931 . S
H659 C674 0.930 . S
C660 H648 0.930 . S
C660 C661 1.399 . S
C660 C665 1.399 . S
C661 C660 1.399 . S
C661 C662 1.376 . S
C662 H649 0.930 . S
C662 C661 1.376 . S
C662 C663 1.388 . S
C663 H650 0.930 . S
C663 C662 1.388 . S
C663 C664 1.390 . S
C664 C663 1.390 . S
C664 C665 1.394 . S
C664 C670 1.465 . S
C665 C660 1.399 . S
C665 C664 1.394 . S
C665 C666 1.516 . S
C666 C665 1.516 . S
C666 C667 1.502 . S
C666 C668 1.561 . S
C666 C669 1.526 . S
C667 H651 0.959 . S
C667 H652 0.959 . S
C667 H653 0.961 . S
C667 C666 1.502 . S
C668 H654 0.960 . S
C668 H655 0.961 . S
C668 H656 0.959 . S
C668 C666 1.561 . S
C669 C666 1.526 . S
C669 C670 1.396 . S
C669 C674 1.390 . S
C670 C664 1.465 . S
C670 C669 1.396 . S
C670 C671 1.399 . S
C671 H657 0.929 . S
C671 C670 1.399 . S
C671 C672 1.385 . S
C672 H658 0.931 . S
C672 C671 1.385 . S
C672 C673 1.389 . S
C673 C672 1.389 . S
C673 C674 1.387 . S
C674 H659 0.930 . S
C674 C669 1.390 . S
C674 C673 1.387 . S
H675 C687 0.930 . S
H676 C689 0.930 . S
H677 C690 0.930 . S
H678 C694 0.959 1_655 S
H679 C694 0.959 . S
H680 C694 0.961 . S
H681 C695 0.960 . S
H682 C695 0.961 . S
H683 C695 0.959 . S
H684 C698 0.929 . S
H685 C699 0.931 . S
H686 C701 0.930 . S
C687 H675 0.930 . S
C687 C688 1.399 1_455 S
C687 C692 1.399 . S
C688 C687 1.399 1_655 S
C688 C689 1.376 . S
C689 H676 0.930 . S
C689 C688 1.376 . S
C689 C690 1.388 . S
C690 H677 0.930 . S
C690 C689 1.388 . S
C690 C691 1.390 1_655 S
C691 C690 1.390 1_455 S
C691 C692 1.394 . S
C691 C697 1.465 . S
C692 C687 1.399 . S
C692 C691 1.394 . S
C692 C693 1.516 . S
C693 C692 1.516 . S
C693 C694 1.502 . S
C693 C695 1.561 . S
C693 C696 1.526 . S
C694 H678 0.959 1_455 S
C694 H679 0.959 . S
C694 H680 0.961 . S
C694 C693 1.502 . S
C695 H681 0.960 . S
C695 H682 0.961 . S
C695 H683 0.959 . S
C695 C693 1.561 . S
C696 C693 1.526 . S
C696 C697 1.396 . S
C696 C701 1.390 . S
C697 C691 1.465 . S
C697 C696 1.396 . S
C697 C698 1.399 . S
C698 H684 0.929 . S
C698 C697 1.399 . S
C698 C699 1.385 . S
C699 H685 0.931 . S
C699 C698 1.385 . S
C699 C700 1.389 . S
C700 C699 1.389 . S
C700 C701 1.387 . S
C701 H686 0.930 . S
C701 C696 1.390 . S
C701 C700 1.387 . S
H702 C714 0.930 . S
H703 C716 0.930 . S
H704 C717 0.930 . S
H705 C721 0.959 . S
H706 C721 0.959 . S
H707 C721 0.961 . S
H708 C722 0.960 . S
H709 C722 0.961 . S
H710 C722 0.959 . S
H711 C725 0.929 . S
H712 C726 0.931 . S
H713 C728 0.930 . S
C714 H702 0.930 . S
C714 C715 1.399 . S
C714 C719 1.399 . S
C715 C714 1.399 . S
C715 C716 1.376 . S
C716 H703 0.930 . S
C716 C715 1.376 . S
C716 C717 1.388 . S
C717 H704 0.930 . S
C717 C716 1.388 . S
C717 C718 1.390 . S
C718 C717 1.390 . S
C718 C719 1.394 . S
C718 C724 1.465 . S
C719 C714 1.399 . S
C719 C718 1.394 . S
C719 C720 1.516 . S
C720 C719 1.516 . S
C720 C721 1.502 . S
C720 C722 1.561 . S
C720 C723 1.526 . S
C721 H705 0.959 . S
C721 H706 0.959 . S
C721 H707 0.961 . S
C721 C720 1.502 . S
C722 H708 0.960 . S
C722 H709 0.961 . S
C722 H710 0.959 . S
C722 C720 1.561 . S
C723 C720 1.526 . S
C723 C724 1.396 . S
C723 C728 1.390 . S
C724 C718 1.465 . S
C724 C723 1.396 . S
C724 C725 1.399 . S
C725 H711 0.929 . S
C725 C724 1.399 . S
C725 C726 1.385 . S
C726 H712 0.931 . S
C726 C725 1.385 . S
C726 C727 1.389 . S
C727 C726 1.389 . S
C727 C728 1.387 . S
C728 H713 0.930 . S
C728 C723 1.390 . S
C728 C727 1.387 . S
H729 C741 0.930 . S
H730 C743 0.930 . S
H731 C744 0.930 . S
H732 C748 0.959 . S
H733 C748 0.959 . S
H734 C748 0.961 . S
H735 C749 0.960 . S
H736 C749 0.961 . S
H737 C749 0.959 . S
H738 C752 0.929 . S
H739 C753 0.931 . S
H740 C755 0.930 . S
C741 H729 0.930 . S
C741 C742 1.399 1_565 S
C741 C746 1.399 1_565 S
C742 C741 1.399 1_545 S
C742 C743 1.376 . S
C743 H730 0.930 . S
C743 C742 1.376 . S
C743 C744 1.388 . S
C744 H731 0.930 . S
C744 C743 1.388 . S
C744 C745 1.390 . S
C745 C744 1.390 . S
C745 C746 1.394 . S
C745 C751 1.465 . S
C746 C741 1.399 1_545 S
C746 C745 1.394 . S
C746 C747 1.516 1_545 S
C747 C746 1.516 1_565 S
C747 C748 1.502 . S
C747 C749 1.561 . S
C747 C750 1.530 . S
C748 H732 0.959 . S
C748 H733 0.959 . S
C748 H734 0.961 . S
C748 C747 1.502 . S
C749 H735 0.960 . S
C749 H736 0.961 . S
C749 H737 0.959 . S
C749 C747 1.561 . S
C750 C747 1.530 . S
C750 C751 1.390 1_565 S
C750 C755 1.390 . S
C751 C745 1.465 . S
C751 C750 1.390 1_545 S
C751 C752 1.399 . S
C752 H738 0.929 . S
C752 C751 1.399 . S
C752 C753 1.385 . S
C753 H739 0.931 . S
C753 C752 1.385 . S
C753 C754 1.389 . S
C754 C753 1.389 . S
C754 C755 1.387 1_545 S
C755 H740 0.930 . S
C755 C750 1.390 . S
C755 C754 1.387 1_565 S
H756 C768 0.930 . S
H757 C770 0.930 . S
H758 C771 0.930 . S
H759 C775 0.959 . S
H760 C775 0.959 . S
H761 C775 0.961 . S
H762 C776 0.960 . S
H763 C776 0.961 . S
H764 C776 0.959 . S
H765 C779 0.929 . S
H766 C780 0.931 . S
H767 C782 0.930 . S
C768 H756 0.930 . S
C768 C769 1.399 . S
C768 C773 1.399 . S
C769 C768 1.399 . S
C769 C770 1.376 . S
C770 H757 0.930 . S
C770 C769 1.376 . S
C770 C771 1.388 . S
C771 H758 0.930 . S
C771 C770 1.388 . S
C771 C772 1.390 . S
C772 C771 1.390 . S
C772 C773 1.394 . S
C772 C778 1.465 . S
C773 C768 1.399 . S
C773 C772 1.394 . S
C773 C774 1.516 . S
C774 C773 1.516 . S
C774 C775 1.502 . S
C774 C776 1.561 . S
C774 C777 1.526 . S
C775 H759 0.959 . S
C775 H760 0.959 . S
C775 H761 0.961 . S
C775 C774 1.502 . S
C776 H762 0.960 . S
C776 H763 0.961 . S
C776 H764 0.959 . S
C776 C774 1.561 . S
C777 C774 1.526 . S
C777 C778 1.396 . S
C777 C782 1.390 . S
C778 C772 1.465 . S
C778 C777 1.396 . S
C778 C779 1.399 . S
C779 H765 0.929 . S
C779 C778 1.399 . S
C779 C780 1.385 1_556 S
C780 H766 0.931 . S
C780 C779 1.385 1_554 S
C780 C781 1.389 . S
C781 C780 1.389 . S
C781 C782 1.387 1_554 S
C782 H767 0.930 . S
C782 C777 1.390 . S
C782 C781 1.387 1_556 S
H783 C795 0.930 . S
H784 C797 0.930 . S
H785 C798 0.930 . S
H786 C802 0.959 . S
H787 C802 0.959 . S
H788 C802 0.961 . S
H789 C803 0.960 . S
H790 C803 0.961 . S
H791 C803 0.959 . S
H792 C806 0.929 . S
H793 C807 0.931 . S
H794 C809 0.930 . S
C795 H783 0.930 . S
C795 C796 1.399 . S
C795 C800 1.399 . S
C796 C795 1.399 . S
C796 C797 1.376 . S
C797 H784 0.930 . S
C797 C796 1.376 . S
C797 C798 1.388 . S
C798 H785 0.930 . S
C798 C797 1.388 . S
C798 C799 1.390 . S
C799 C798 1.390 . S
C799 C800 1.394 . S
C799 C805 1.465 . S
C800 C795 1.399 . S
C800 C799 1.394 . S
C800 C801 1.516 . S
C801 C800 1.516 . S
C801 C802 1.502 . S
C801 C803 1.561 . S
C801 C804 1.526 . S
C802 H786 0.959 . S
C802 H787 0.959 . S
C802 H788 0.961 . S
C802 C801 1.502 . S
C803 H789 0.960 . S
C803 H790 0.961 . S
C803 H791 0.959 . S
C803 C801 1.561 . S
C804 C801 1.526 . S
C804 C805 1.396 . S
C804 C809 1.390 . S
C805 C799 1.465 . S
C805 C804 1.396 . S
C805 C806 1.399 . S
C806 H792 0.929 . S
C806 C805 1.399 . S
C806 C807 1.385 . S
C807 H793 0.931 . S
C807 C806 1.385 . S
C807 C808 1.389 . S
C808 C807 1.389 . S
C808 C809 1.387 . S
C809 H794 0.930 . S
C809 C804 1.390 . S
C809 C808 1.387 . S
H810 C822 0.930 . S
H811 C824 0.930 . S
H812 C825 0.930 . S
H813 C829 0.959 . S
H814 C829 0.959 . S
H815 C829 0.961 . S
H816 C830 0.960 . S
H817 C830 0.961 . S
H818 C830 0.959 . S
H819 C833 0.929 . S
H820 C834 0.931 . S
H821 C836 0.930 . S
C822 H810 0.930 . S
C822 C823 1.399 . S
C822 C827 1.399 . S
C823 C822 1.399 . S
C823 C824 1.376 . S
C824 H811 0.930 . S
C824 C823 1.376 . S
C824 C825 1.388 . S
C825 H812 0.930 . S
C825 C824 1.388 . S
C825 C826 1.390 . S
C826 C825 1.390 . S
C826 C827 1.394 . S
C826 C832 1.465 . S
C827 C822 1.399 . S
C827 C826 1.394 . S
C827 C828 1.516 . S
C828 C827 1.516 . S
C828 C829 1.502 . S
C828 C830 1.561 . S
C828 C831 1.526 . S
C829 H813 0.959 . S
C829 H814 0.959 . S
C829 H815 0.961 . S
C829 C828 1.502 . S
C830 H816 0.960 . S
C830 H817 0.961 . S
C830 H818 0.959 . S
C830 C828 1.561 . S
C831 C828 1.526 . S
C831 C832 1.396 . S
C831 C836 1.390 . S
C832 C826 1.465 . S
C832 C831 1.396 . S
C832 C833 1.399 . S
C833 H819 0.929 . S
C833 C832 1.399 . S
C833 C834 1.385 1_556 S
C834 H820 0.931 . S
C834 C833 1.385 1_554 S
C834 C835 1.389 . S
C835 C834 1.389 . S
C835 C836 1.387 1_554 S
C836 H821 0.930 . S
C836 C831 1.390 . S
C836 C835 1.387 1_556 S
H837 C849 0.930 . S
H838 C851 0.930 . S
H839 C852 0.930 . S
H840 C856 0.959 . S
H841 C856 0.959 . S
H842 C856 0.961 . S
H843 C857 0.960 . S
H844 C857 0.961 . S
H845 C857 0.959 . S
H846 C860 0.929 . S
H847 C861 0.931 . S
H848 C863 0.930 1_556 S
C849 H837 0.930 . S
C849 C850 1.399 . S
C849 C854 1.399 . S
C850 C849 1.399 . S
C850 C851 1.376 . S
C851 H838 0.930 . S
C851 C850 1.376 . S
C851 C852 1.388 . S
C852 H839 0.930 . S
C852 C851 1.388 . S
C852 C853 1.390 . S
C853 C852 1.390 . S
C853 C854 1.394 . S
C853 C859 1.465 . S
C854 C849 1.399 . S
C854 C853 1.394 . S
C854 C855 1.516 . S
C855 C854 1.516 . S
C855 C856 1.502 . S
C855 C857 1.561 . S
C855 C858 1.526 . S
C856 H840 0.959 . S
C856 H841 0.959 . S
C856 H842 0.961 . S
C856 C855 1.502 . S
C857 H843 0.960 . S
C857 H844 0.961 . S
C857 H845 0.959 . S
C857 C855 1.561 . S
C858 C855 1.526 . S
C858 C859 1.396 . S
C858 C863 1.390 . S
C859 C853 1.465 . S
C859 C858 1.396 . S
C859 C860 1.399 . S
C860 H846 0.929 . S
C860 C859 1.399 . S
C860 C861 1.385 1_554 S
C861 H847 0.931 . S
C861 C860 1.385 1_556 S
C861 C862 1.389 . S
C862 C861 1.389 . S
C862 C863 1.387 1_556 S
C863 H848 0.930 1_554 S
C863 C858 1.390 . S
C863 C862 1.387 1_554 S
H864 C876 0.930 . S
H865 C878 0.930 . S
H866 C879 0.930 . S
H867 C883 0.959 . S
H868 C883 0.959 . S
H869 C883 0.961 . S
H870 C884 0.960 . S
H871 C884 0.961 . S
H872 C884 0.959 . S
H873 C887 0.929 . S
H874 C888 0.931 . S
H875 C890 0.930 . S
C876 H864 0.930 . S
C876 C877 1.399 . S
C876 C881 1.399 . S
C877 C876 1.399 . S
C877 C878 1.376 . S
C878 H865 0.930 . S
C878 C877 1.376 . S
C878 C879 1.388 . S
C879 H866 0.930 . S
C879 C878 1.388 . S
C879 C880 1.390 . S
C880 C879 1.390 . S
C880 C881 1.394 . S
C880 C886 1.465 . S
C881 C876 1.399 . S
C881 C880 1.394 . S
C881 C882 1.516 . S
C882 C881 1.516 . S
C882 C883 1.502 . S
C882 C884 1.561 . S
C882 C885 1.526 . S
C883 H867 0.959 . S
C883 H868 0.959 . S
C883 H869 0.961 . S
C883 C882 1.502 . S
C884 H870 0.960 . S
C884 H871 0.961 . S
C884 H872 0.959 . S
C884 C882 1.561 . S
C885 C882 1.526 . S
C885 C886 1.396 . S
C885 C890 1.390 . S
C886 C880 1.465 . S
C886 C885 1.396 . S
C886 C887 1.399 . S
C887 H873 0.929 . S
C887 C886 1.399 . S
C887 C888 1.385 . S
C888 H874 0.931 . S
C888 C887 1.385 . S
C888 C889 1.389 . S
C889 C888 1.389 . S
C889 C890 1.387 . S
C890 H875 0.930 . S
C890 C885 1.390 . S
C890 C889 1.387 . S
H891 C903 0.930 . S
H892 C905 0.930 . S
H893 C906 0.930 . S
H894 C910 0.959 . S
H895 C910 0.959 . S
H896 C910 0.961 . S
H897 C911 0.960 . S
H898 C911 0.961 . S
H899 C911 0.959 . S
H900 C914 0.929 . S
H901 C915 0.931 1_556 S
H902 C917 0.930 . S
C903 H891 0.930 . S
C903 C904 1.399 . S
C903 C908 1.399 . S
C904 C903 1.399 . S
C904 C905 1.376 . S
C905 H892 0.930 . S
C905 C904 1.376 . S
C905 C906 1.388 . S
C906 H893 0.930 . S
C906 C905 1.388 . S
C906 C907 1.390 . S
C907 C906 1.390 . S
C907 C908 1.394 . S
C907 C913 1.465 . S
C908 C903 1.399 . S
C908 C907 1.394 . S
C908 C909 1.516 . S
C909 C908 1.516 . S
C909 C910 1.502 . S
C909 C911 1.561 . S
C909 C912 1.526 . S
C910 H894 0.959 . S
C910 H895 0.959 . S
C910 H896 0.961 . S
C910 C909 1.502 . S
C911 H897 0.960 . S
C911 H898 0.961 . S
C911 H899 0.959 . S
C911 C909 1.561 . S
C912 C909 1.526 . S
C912 C913 1.396 . S
C912 C917 1.390 . S
C913 C907 1.465 . S
C913 C912 1.396 . S
C913 C914 1.399 . S
C914 H900 0.929 . S
C914 C913 1.399 . S
C914 C915 1.385 . S
C915 H901 0.931 1_554 S
C915 C914 1.385 . S
C915 C916 1.389 1_554 S
C916 C915 1.389 1_556 S
C916 C917 1.387 1_556 S
C917 H902 0.930 . S
C917 C912 1.390 . S
C917 C916 1.387 1_554 S
C202 C17 1.477 . S
C214 C164 1.547 . S
C229 C34 1.140 . S
C241 C181 1.117 . S
C256 C59 1.509 . S
C268 C139 1.093 . S
C283 C97 1.000 . S
C295 C55 0.980 . S
C310 C118 0.978 . S
C322 C13 1.115 . S
C337 C38 1.468 . S
C349 C76 1.086 . S
C364 C160 1.305 . S
C376 C122 1.491 . S
C391 C185 1.727 . S
C403 C80 1.642 . S
C418 C101 1.796 . S
C430 C143 1.847 . S
C445 C60 1.111 . S
C457 C16 0.950 . S
C472 C39 1.073 . S
C484 C18 1.105 . S
C499 C37 1.170 . S
C511 C58 1.096 . S
C526 C81 1.185 . S
C538 C121 1.118 . S
C553 C79 1.165 . S
C565 C102 1.255 . S
C580 C100 1.110 . S
C592 C123 1.185 . S
C607 C186 1.343 . S
C619 C142 1.299 . S
C634 C165 1.109 . S
C646 C144 1.084 . S
C661 C184 1.174 . S
C673 C163 1.108 . S
C688 C15 1.062 1_655 S
C700 C14 1.127 . S
C715 C35 1.121 . S
C727 C36 0.994 . S
C742 C57 1.078 . S
C754 C56 1.019 . S
C769 C78 1.183 . S
C781 C77 1.030 . S
C796 C99 1.115 . S
C808 C98 1.013 1_556 S
C823 C120 1.074 . S
C835 C119 1.109 . S
C850 C141 1.068 . S
C862 C140 1.123 . S
C877 C162 1.052 1_554 S
C889 C161 1.103 . S
C904 C183 1.088 . S
C916 C182 1.041 . S
