# Generated by pormake.
# Topology pcl, (4)-cn, num edge types: 1
# Building blocks:
#     Node 0, Type 0, BuildingBlock: UXUYUI_clean_sbu_0, # of connection points: 4
#     Node 1, Type 0, BuildingBlock: UXUYUI_clean_sbu_0, # of connection points: 4
#     Node 2, Type 0, BuildingBlock: UXUYUI_clean_sbu_0, # of connection points: 4
#     Node 3, Type 0, BuildingBlock: UXUYUI_clean_sbu_0, # of connection points: 4
#     Node 4, Type 0, BuildingBlock: UXUYUI_clean_sbu_0, # of connection points: 4
#     Node 5, Type 0, BuildingBlock: UXUYUI_clean_sbu_0, # of connection points: 4
#     Node 6, Type 0, BuildingBlock: UXUYUI_clean_sbu_0, # of connection points: 4
#     Node 7, Type 0, BuildingBlock: UXUYUI_clean_sbu_0, # of connection points: 4
#     Node 8, Type 0, BuildingBlock: UXUYUI_clean_sbu_0, # of connection points: 4
#     Node 9, Type 0, BuildingBlock: UXUYUI_clean_sbu_0, # of connection points: 4
#     Node 10, Type 0, BuildingBlock: UXUYUI_clean_sbu_0, # of connection points: 4
#     Node 11, Type 0, BuildingBlock: UXUYUI_clean_sbu_0, # of connection points: 4
#     Node 12, Type 0, BuildingBlock: UXUYUI_clean_sbu_0, # of connection points: 4
#     Node 13, Type 0, BuildingBlock: UXUYUI_clean_sbu_0, # of connection points: 4
#     Node 14, Type 0, BuildingBlock: UXUYUI_clean_sbu_0, # of connection points: 4
#     Node 15, Type 0, BuildingBlock: UXUYUI_clean_sbu_0, # of connection points: 4
#     Edge 16, Type (0, 0), BuildingBlock: XIVTED_clean_linker_0, # of connection points: 2
#     Edge 17, Type (0, 0), BuildingBlock: XIVTED_clean_linker_0, # of connection points: 2
#     Edge 18, Type (0, 0), BuildingBlock: XIVTED_clean_linker_0, # of connection points: 2
#     Edge 19, Type (0, 0), BuildingBlock: XIVTED_clean_linker_0, # of connection points: 2
#     Edge 20, Type (0, 0), BuildingBlock: XIVTED_clean_linker_0, # of connection points: 2
#     Edge 21, Type (0, 0), BuildingBlock: XIVTED_clean_linker_0, # of connection points: 2
#     Edge 22, Type (0, 0), BuildingBlock: XIVTED_clean_linker_0, # of connection points: 2
#     Edge 23, Type (0, 0), BuildingBlock: XIVTED_clean_linker_0, # of connection points: 2
#     Edge 24, Type (0, 0), BuildingBlock: XIVTED_clean_linker_0, # of connection points: 2
#     Edge 25, Type (0, 0), BuildingBlock: XIVTED_clean_linker_0, # of connection points: 2
#     Edge 26, Type (0, 0), BuildingBlock: XIVTED_clean_linker_0, # of connection points: 2
#     Edge 27, Type (0, 0), BuildingBlock: XIVTED_clean_linker_0, # of connection points: 2
#     Edge 28, Type (0, 0), BuildingBlock: XIVTED_clean_linker_0, # of connection points: 2
#     Edge 29, Type (0, 0), BuildingBlock: XIVTED_clean_linker_0, # of connection points: 2
#     Edge 30, Type (0, 0), BuildingBlock: XIVTED_clean_linker_0, # of connection points: 2
#     Edge 31, Type (0, 0), BuildingBlock: XIVTED_clean_linker_0, # of connection points: 2
#     Edge 32, Type (0, 0), BuildingBlock: XIVTED_clean_linker_0, # of connection points: 2
#     Edge 33, Type (0, 0), BuildingBlock: XIVTED_clean_linker_0, # of connection points: 2
#     Edge 34, Type (0, 0), BuildingBlock: XIVTED_clean_linker_0, # of connection points: 2
#     Edge 35, Type (0, 0), BuildingBlock: XIVTED_clean_linker_0, # of connection points: 2
#     Edge 36, Type (0, 0), BuildingBlock: XIVTED_clean_linker_0, # of connection points: 2
#     Edge 37, Type (0, 0), BuildingBlock: XIVTED_clean_linker_0, # of connection points: 2
#     Edge 38, Type (0, 0), BuildingBlock: XIVTED_clean_linker_0, # of connection points: 2
#     Edge 39, Type (0, 0), BuildingBlock: XIVTED_clean_linker_0, # of connection points: 2
#     Edge 40, Type (0, 0), BuildingBlock: XIVTED_clean_linker_0, # of connection points: 2
#     Edge 41, Type (0, 0), BuildingBlock: XIVTED_clean_linker_0, # of connection points: 2
#     Edge 42, Type (0, 0), BuildingBlock: XIVTED_clean_linker_0, # of connection points: 2
#     Edge 43, Type (0, 0), BuildingBlock: XIVTED_clean_linker_0, # of connection points: 2
#     Edge 44, Type (0, 0), BuildingBlock: XIVTED_clean_linker_0, # of connection points: 2
#     Edge 45, Type (0, 0), BuildingBlock: XIVTED_clean_linker_0, # of connection points: 2
#     Edge 46, Type (0, 0), BuildingBlock: XIVTED_clean_linker_0, # of connection points: 2
#     Edge 47, Type (0, 0), BuildingBlock: XIVTED_clean_linker_0, # of connection points: 2
# Relax obj value: 0.133
# Max RMSD: 0.100
# Mean RMSD: 0.099
data_MOF--net-pcl--node1-UXUYUI_clean_sbu_0--edge1-XIVTED_clean_linker_0
_symmetry_space_group_name_H-M    P1
_symmetry_Int_Tables_number       1
_symmetry_cell_setting            triclinic
loop_
_symmetry_equiv_pos_as_xyz
'x, y, z'
_cell_length_a     63.325602
_cell_length_b     73.693795
_cell_length_c     65.130586
_cell_angle_alpha  90.00332
_cell_angle_beta   90.003756
_cell_angle_gamma 90.002696
loop_
_atom_site_label
_atom_site_type_symbol
_atom_site_fract_x
_atom_site_fract_y
_atom_site_fract_z
_atom_type_partial_charge
Li0 Li 0.18687 0.36524 0.09879 0.0
Li1 Li 0.19034 0.35178 0.06596 0.0
Li2 Li 0.18641 0.38578 0.06946 0.0
Li3 Li 0.15678 0.36379 0.0759 0.0
C4 C 0.22744 0.37312 0.09028 0.0
N5 N 0.26284 0.37982 0.1139 0.0
C6 C 0.23671 0.35912 0.1016 0.0
C7 C 0.23624 0.39051 0.09088 0.0
C8 C 0.25457 0.36279 0.11349 0.0
C9 C 0.25413 0.39363 0.10293 0.0
C10 C 0.17518 0.32522 0.0873 0.0
C11 C 0.1684 0.29651 0.07074 0.0
N12 N 0.18281 0.28845 0.08326 0.0
C13 C 0.18991 0.31664 0.10001 0.0
C14 C 0.16429 0.31506 0.07258 0.0
C15 C 0.19353 0.29804 0.09774 0.0
C16 C 0.18325 0.35143 0.13871 0.0
N17 N 0.19351 0.3643 0.12757 0.0
C18 C 0.20912 0.37643 0.15808 0.0
C19 C 0.20607 0.37684 0.13685 0.0
C20 C 0.19884 0.36317 0.16994 0.0
C21 C 0.18578 0.35056 0.15995 0.0
H22 H 0.17258 0.34214 0.13115 0.0
H23 H 0.2133 0.38748 0.1279 0.0
C24 C 0.19711 0.32988 0.03064 0.0
N25 N 0.20385 0.33329 0.05009 0.0
C26 C 0.20562 0.31543 0.01948 0.0
C27 C 0.22816 0.30855 0.04839 0.0
C28 C 0.21943 0.32325 0.05886 0.0
C29 C 0.22108 0.30437 0.02854 0.0
H30 H 0.18487 0.33817 0.02392 0.0
H31 H 0.22469 0.32633 0.07421 0.0
C32 C 0.16039 0.39079 0.11123 0.0
N33 N 0.14969 0.40175 0.15043 0.0
C34 C 0.14469 0.38158 0.12213 0.0
C35 C 0.1706 0.40561 0.12022 0.0
C36 C 0.13952 0.38733 0.14194 0.0
C37 C 0.16497 0.41094 0.14007 0.0
C38 C 0.15603 0.37089 0.03623 0.0
C39 C 0.15077 0.38823 0.02918 0.0
C40 C 0.14421 0.35593 0.02972 0.0
C41 C 0.13362 0.39033 0.01589 0.0
C42 C 0.12716 0.3586 0.01646 0.0
N43 N 0.12225 0.3756 0.00988 0.0
C44 C 0.20677 0.41115 0.04326 0.0
C45 C 0.18092 0.4232 0.06579 0.0
C46 C 0.20937 0.4281 0.03393 0.0
N47 N 0.19255 0.40905 0.05871 0.0
C48 C 0.18308 0.44034 0.05701 0.0
C49 C 0.19712 0.44291 0.04055 0.0
H50 H 0.21558 0.39955 0.03778 0.0
H51 H 0.16945 0.42105 0.07782 0.0
C52 C 0.11662 0.34645 0.07925 0.0
N53 N 0.12684 0.36212 0.07454 0.0
C54 C 0.09457 0.34574 0.07882 0.0
C55 C 0.09406 0.37733 0.06884 0.0
C56 C 0.11607 0.37744 0.06956 0.0
C57 C 0.08298 0.36136 0.07364 0.0
H58 H 0.12553 0.3346 0.08372 0.0
H59 H 0.12463 0.3898 0.06624 0.0
O60 O 0.21006 0.36982 0.07839 0.0
O61 O 0.17168 0.3435 0.08903 0.0
O62 O 0.16612 0.38501 0.09207 0.0
O63 O 0.17254 0.36859 0.04955 0.0
H64 H 0.22995 0.34566 0.10158 0.0
H65 H 0.22929 0.40151 0.0822 0.0
H66 H 0.2618 0.35211 0.12246 0.0
H67 H 0.26107 0.40703 0.10359 0.0
H68 H 0.16018 0.28853 0.05932 0.0
H69 H 0.19876 0.32428 0.11127 0.0
H70 H 0.15298 0.32147 0.06249 0.0
H71 H 0.20497 0.29126 0.10739 0.0
H72 H 0.21929 0.38647 0.16512 0.0
H73 H 0.17704 0.34044 0.16849 0.0
H74 H 0.19973 0.3126 0.0042 0.0
H75 H 0.24028 0.30049 0.05579 0.0
H76 H 0.13679 0.36996 0.11549 0.0
H77 H 0.18302 0.41272 0.11211 0.0
H78 H 0.12748 0.38026 0.15061 0.0
H79 H 0.17284 0.4223 0.14728 0.0
H80 H 0.1597 0.39997 0.034 0.0
H81 H 0.148 0.34243 0.03504 0.0
H82 H 0.12932 0.40368 0.0104 0.0
H83 H 0.11779 0.34716 0.01143 0.0
H84 H 0.22019 0.4294 0.02114 0.0
H85 H 0.17352 0.45139 0.06281 0.0
H86 H 0.0867 0.33323 0.08302 0.0
H87 H 0.08584 0.38964 0.06456 0.0
Li88 Li 0.81664 0.62957 0.60427 0.0
Li89 Li 0.81273 0.6473 0.57424 0.0
Li90 Li 0.81941 0.6145 0.57229 0.0
Li91 Li 0.84847 0.63521 0.58359 0.0
C92 C 0.77607 0.62555 0.59377 0.0
N93 N 0.73915 0.62224 0.61603 0.0
C94 C 0.76201 0.64013 0.59501 0.0
C95 C 0.77128 0.60924 0.60368 0.0
C96 C 0.74343 0.63819 0.60637 0.0
C97 C 0.75256 0.60786 0.61493 0.0
C98 C 0.82764 0.66264 0.61578 0.0
C99 C 0.8384 0.66969 0.65039 0.0
N100 N 0.82099 0.68031 0.65263 0.0
C101 C 0.80987 0.67365 0.6184 0.0
C102 C 0.84209 0.66069 0.63185 0.0
C103 C 0.8068 0.68248 0.63715 0.0
C104 C 0.82116 0.61619 0.64432 0.0
N105 N 0.80853 0.62691 0.63259 0.0
C106 C 0.7879 0.63493 0.66202 0.0
C107 C 0.79211 0.63621 0.64102 0.0
C108 C 0.80086 0.62413 0.67457 0.0
C109 C 0.81761 0.61459 0.66539 0.0
H110 H 0.83442 0.60927 0.63743 0.0
H111 H 0.78257 0.64502 0.63161 0.0
C112 C 0.7827 0.6639 0.54822 0.0
N113 N 0.79929 0.6671 0.56095 0.0
C114 C 0.77326 0.67821 0.53758 0.0
C115 C 0.79807 0.69881 0.55352 0.0
C116 C 0.80714 0.68409 0.5637 0.0
C117 C 0.78092 0.69595 0.54022 0.0
H118 H 0.77694 0.65019 0.54622 0.0
H119 H 0.8206 0.68615 0.57365 0.0
C120 C 0.84489 0.59467 0.59549 0.0
N121 N 0.85667 0.55867 0.59261 0.0
C122 C 0.86444 0.59001 0.58704 0.0
C123 C 0.83143 0.58106 0.60267 0.0
C124 C 0.87009 0.57172 0.58568 0.0
C125 C 0.83764 0.56293 0.60101 0.0
C126 C 0.8298 0.64133 0.53786 0.0
C127 C 0.81587 0.63279 0.52431 0.0
C128 C 0.83873 0.65803 0.53252 0.0
C129 C 0.81111 0.64111 0.5056 0.0
C130 C 0.83353 0.66593 0.51369 0.0
N131 N 0.81994 0.65737 0.50073 0.0
C132 C 0.79581 0.58445 0.55672 0.0
C133 C 0.83153 0.58636 0.54612 0.0
C134 C 0.79305 0.5685 0.5454 0.0
N135 N 0.81487 0.59291 0.55695 0.0
C136 C 0.82957 0.57039 0.53483 0.0
C137 C 0.81011 0.5612 0.53429 0.0
H138 H 0.78272 0.59013 0.5652 0.0
H139 H 0.84643 0.59353 0.5464 0.0
C140 C 0.88946 0.63574 0.6005 0.0
N141 N 0.87812 0.63873 0.58311 0.0
C142 C 0.91146 0.63715 0.60022 0.0
C143 C 0.90965 0.64473 0.56415 0.0
C144 C 0.88771 0.64313 0.56513 0.0
C145 C 0.92186 0.64159 0.58182 0.0
H146 H 0.88144 0.6318 0.61446 0.0
H147 H 0.87836 0.6451 0.55144 0.0
O148 O 0.79424 0.62715 0.58257 0.0
O149 O 0.83074 0.65363 0.59767 0.0
O150 O 0.83889 0.61246 0.5966 0.0
O151 O 0.83414 0.63369 0.55653 0.0
H152 H 0.76548 0.65286 0.58747 0.0
H153 H 0.78196 0.59782 0.60282 0.0
H154 H 0.73244 0.64938 0.60756 0.0
H155 H 0.74871 0.59536 0.62278 0.0
H156 H 0.84937 0.6682 0.66302 0.0
H157 H 0.79839 0.67513 0.60622 0.0
H158 H 0.85586 0.65216 0.63011 0.0
H159 H 0.79305 0.69096 0.63943 0.0
H160 H 0.77474 0.64245 0.66835 0.0
H161 H 0.82834 0.60643 0.67445 0.0
H162 H 0.75998 0.67545 0.52757 0.0
H163 H 0.80465 0.71223 0.55574 0.0
H164 H 0.87503 0.60037 0.58135 0.0
H165 H 0.8163 0.58446 0.60935 0.0
H166 H 0.8851 0.5679 0.57905 0.0
H167 H 0.82732 0.55224 0.60639 0.0
H168 H 0.80861 0.61998 0.52828 0.0
H169 H 0.84923 0.66501 0.543 0.0
H170 H 0.8003 0.63468 0.49499 0.0
H171 H 0.84019 0.67891 0.50943 0.0
H172 H 0.77765 0.56212 0.54518 0.0
H173 H 0.84329 0.56521 0.52683 0.0
H174 H 0.92023 0.63429 0.61412 0.0
H175 H 0.91696 0.64833 0.54968 0.0
Li176 Li 0.1851 0.6139 0.92481 0.0
Li177 Li 0.15737 0.63505 0.91653 0.0
Li178 Li 0.18705 0.63118 0.89355 0.0
Li179 Li 0.19181 0.64613 0.92581 0.0
C180 C 0.16838 0.59779 0.8895 0.0
N181 N 0.17427 0.56718 0.86568 0.0
C182 C 0.1513 0.58992 0.87924 0.0
C183 C 0.18846 0.59008 0.88766 0.0
C184 C 0.1546 0.57445 0.86728 0.0
C185 C 0.19112 0.57461 0.87554 0.0
C186 C 0.15943 0.62358 0.95739 0.0
C187 C 0.14881 0.61839 0.99247 0.0
N188 N 0.13436 0.60603 0.98589 0.0
C189 C 0.14444 0.61086 0.95098 0.0
C190 C 0.16162 0.6274 0.97829 0.0
C191 C 0.13193 0.60212 0.96562 0.0
C192 C 0.20713 0.58913 0.95062 0.0
N193 N 0.19013 0.59123 0.93809 0.0
C194 C 0.17737 0.56176 0.9469 0.0
C195 C 0.1755 0.57787 0.9359 0.0
C196 C 0.19438 0.55935 0.96045 0.0
C197 C 0.20964 0.57314 0.96197 0.0
H198 H 0.2184 0.60007 0.95222 0.0
H199 H 0.162 0.57987 0.92604 0.0
C200 C 0.11717 0.63382 0.89973 0.0
N201 N 0.12775 0.63906 0.91687 0.0
C202 C 0.0952 0.63481 0.89904 0.0
C203 C 0.09544 0.64722 0.93342 0.0
C204 C 0.11745 0.64594 0.93346 0.0
C205 C 0.08402 0.64132 0.91615 0.0
H206 H 0.12584 0.62859 0.88671 0.0
H207 H 0.12627 0.65001 0.94691 0.0
C208 C 0.22864 0.63457 0.90709 0.0
N209 N 0.26591 0.65021 0.89389 0.0
C210 C 0.2282 0.64989 0.89443 0.0
C211 C 0.24803 0.6272 0.91301 0.0
C212 C 0.24721 0.6576 0.88793 0.0
C213 C 0.26671 0.6353 0.90619 0.0
C214 C 0.16482 0.67071 0.90644 0.0
C215 C 0.16163 0.68306 0.89046 0.0
C216 C 0.15873 0.67533 0.92641 0.0
C217 C 0.15237 0.69985 0.89472 0.0
C218 C 0.14953 0.69226 0.93004 0.0
N219 N 0.14657 0.70406 0.91425 0.0
C220 C 0.1782 0.63848 0.85315 0.0
C221 C 0.21004 0.62182 0.85671 0.0
C222 C 0.17958 0.63754 0.83184 0.0
N223 N 0.19317 0.63054 0.86506 0.0
C224 C 0.21206 0.62055 0.83536 0.0
C225 C 0.19647 0.62821 0.82266 0.0
H226 H 0.1649 0.64518 0.86028 0.0
H227 H 0.22159 0.61544 0.86658 0.0
C228 C 0.21054 0.66296 0.96013 0.0
N229 N 0.2064 0.66501 0.93979 0.0
C230 C 0.22009 0.67699 0.97117 0.0
C231 C 0.22132 0.69477 0.94 0.0
C232 C 0.21169 0.68045 0.9296 0.0
C233 C 0.22549 0.69321 0.96111 0.0
H234 H 0.20621 0.65049 0.9678 0.0
H235 H 0.20807 0.68181 0.91346 0.0
O236 O 0.16536 0.61306 0.90111 0.0
O237 O 0.17203 0.63226 0.94341 0.0
O238 O 0.2103 0.62675 0.91379 0.0
O239 O 0.17388 0.65424 0.90239 0.0
H240 H 0.13565 0.59571 0.88052 0.0
H241 H 0.20189 0.59595 0.89547 0.0
H242 H 0.14152 0.56822 0.85925 0.0
H243 H 0.20657 0.56851 0.87397 0.0
H244 H 0.15036 0.62121 0.0087 0.0
H245 H 0.14243 0.60774 0.93489 0.0
H246 H 0.17312 0.63724 0.98353 0.0
H247 H 0.12029 0.59223 0.96086 0.0
H248 H 0.16542 0.55138 0.94502 0.0
H249 H 0.22291 0.57187 0.97236 0.0
H250 H 0.08704 0.63043 0.88529 0.0
H251 H 0.08743 0.65219 0.94699 0.0
H252 H 0.21337 0.65579 0.88964 0.0
H253 H 0.24863 0.61535 0.92281 0.0
H254 H 0.24709 0.66946 0.87815 0.0
H255 H 0.28183 0.62975 0.91067 0.0
H256 H 0.16628 0.67969 0.87493 0.0
H257 H 0.16114 0.66602 0.93901 0.0
H258 H 0.14981 0.70954 0.88249 0.0
H259 H 0.14477 0.69601 0.94541 0.0
H260 H 0.16739 0.64388 0.82265 0.0
H261 H 0.22522 0.61311 0.8289 0.0
H262 H 0.22324 0.67515 0.98738 0.0
H263 H 0.22494 0.70712 0.93169 0.0
Li264 Li 0.81395 0.38671 0.42549 0.0
Li265 Li 0.84229 0.36408 0.41731 0.0
Li266 Li 0.811 0.36636 0.39605 0.0
Li267 Li 0.80893 0.35276 0.42902 0.0
C268 C 0.83874 0.39012 0.38193 0.0
N269 N 0.84951 0.39827 0.34184 0.0
C270 C 0.85359 0.37953 0.3715 0.0
C271 C 0.82933 0.40484 0.37192 0.0
C272 C 0.85884 0.38388 0.35126 0.0
C273 C 0.835 0.40874 0.35167 0.0
C274 C 0.84542 0.37064 0.45706 0.0
C275 C 0.8742 0.35712 0.47594 0.0
N276 N 0.88058 0.37392 0.48196 0.0
C277 C 0.85224 0.38777 0.4635 0.0
C278 C 0.85644 0.35518 0.46341 0.0
C279 C 0.87005 0.38914 0.47607 0.0
C280 C 0.79993 0.41086 0.45621 0.0
N281 N 0.80879 0.40983 0.43725 0.0
C282 C 0.81374 0.44193 0.4364 0.0
C283 C 0.81556 0.4249 0.42724 0.0
C284 C 0.80534 0.44347 0.45632 0.0
C285 C 0.79811 0.42762 0.46612 0.0
H286 H 0.79498 0.39858 0.46393 0.0
H287 H 0.8229 0.42366 0.41237 0.0
C288 C 0.88133 0.34528 0.41248 0.0
N289 N 0.87219 0.36134 0.41763 0.0
C290 C 0.90328 0.34348 0.41278 0.0
C291 C 0.90596 0.37484 0.42341 0.0
C292 C 0.884 0.37608 0.42268 0.0
C293 C 0.91586 0.35837 0.41844 0.0
H294 H 0.87161 0.33392 0.40798 0.0
H295 H 0.87631 0.38882 0.42614 0.0
C296 C 0.77128 0.37514 0.40706 0.0
N297 N 0.73464 0.38274 0.38571 0.0
C298 C 0.76087 0.3614 0.39627 0.0
C299 C 0.76299 0.39272 0.40712 0.0
C300 C 0.7424 0.36553 0.38551 0.0
C301 C 0.74446 0.39629 0.3962 0.0
C302 C 0.82204 0.32596 0.40675 0.0
C303 C 0.80658 0.3177 0.39458 0.0
C304 C 0.83324 0.31556 0.42101 0.0
C305 C 0.80261 0.29916 0.39691 0.0
C306 C 0.82875 0.29707 0.42292 0.0
N307 N 0.81366 0.28933 0.41093 0.0
C308 C 0.81151 0.35277 0.35573 0.0
C309 C 0.79017 0.37897 0.35936 0.0
C310 C 0.80806 0.35258 0.33458 0.0
N311 N 0.80252 0.36577 0.36769 0.0
C312 C 0.78635 0.37933 0.33824 0.0
C313 C 0.79551 0.3661 0.32553 0.0
H314 H 0.82206 0.34293 0.36251 0.0
H315 H 0.78396 0.38966 0.36893 0.0
C316 C 0.80275 0.33168 0.46501 0.0
N317 N 0.79562 0.33465 0.44562 0.0
C318 C 0.79428 0.31766 0.47687 0.0
C319 C 0.77091 0.3103 0.44877 0.0
C320 C 0.77967 0.32458 0.43758 0.0
C321 C 0.77832 0.30655 0.46867 0.0
H322 H 0.81513 0.34011 0.47125 0.0
H323 H 0.7741 0.32729 0.42223 0.0
O324 O 0.83287 0.38566 0.40153 0.0
O325 O 0.82823 0.36903 0.44444 0.0
O326 O 0.78931 0.3714 0.41779 0.0
O327 O 0.82596 0.34417 0.40492 0.0
H328 H 0.86071 0.36787 0.37878 0.0
H329 H 0.81738 0.4129 0.37948 0.0
H330 H 0.87023 0.37574 0.34299 0.0
H331 H 0.82773 0.42 0.3437 0.0
H332 H 0.88293 0.34528 0.48084 0.0
H333 H 0.84407 0.39991 0.45866 0.0
H334 H 0.85148 0.34183 0.45853 0.0
H335 H 0.87555 0.40232 0.48107 0.0
H336 H 0.81918 0.45372 0.42801 0.0
H337 H 0.79183 0.428 0.48158 0.0
H338 H 0.91032 0.33056 0.40881 0.0
H339 H 0.91512 0.38672 0.42747 0.0
H340 H 0.76719 0.34778 0.39585 0.0
H341 H 0.77081 0.40349 0.41546 0.0
H342 H 0.73427 0.35507 0.37695 0.0
H343 H 0.73789 0.40984 0.39606 0.0
H344 H 0.79745 0.32554 0.38372 0.0
H345 H 0.8451 0.32171 0.43069 0.0
H346 H 0.79062 0.29263 0.38767 0.0
H347 H 0.83722 0.2889 0.43399 0.0
H348 H 0.81589 0.3424 0.32531 0.0
H349 H 0.77662 0.39004 0.3319 0.0
H350 H 0.80019 0.31559 0.4923 0.0
H351 H 0.75885 0.30203 0.44162 0.0
Li352 Li 0.8193 0.65052 0.9288 0.0
Li353 Li 0.82312 0.61754 0.92999 0.0
Li354 Li 0.85174 0.6373 0.91927 0.0
Li355 Li 0.82059 0.63362 0.89716 0.0
C356 C 0.85497 0.63669 0.95965 0.0
N357 N 0.88979 0.6378 0.98524 0.0
C358 C 0.85938 0.62214 0.97271 0.0
C359 C 0.86804 0.65199 0.95996 0.0
C360 C 0.87711 0.62291 0.98546 0.0
C361 C 0.88565 0.65224 0.97288 0.0
C362 C 0.78152 0.63058 0.93141 0.0
C363 C 0.74423 0.62575 0.93659 0.0
N364 N 0.74687 0.62842 0.95709 0.0
C365 C 0.78387 0.63329 0.95255 0.0
C366 C 0.76155 0.62682 0.92335 0.0
C367 C 0.76615 0.63215 0.96527 0.0
C368 C 0.78755 0.67733 0.93552 0.0
N369 N 0.80654 0.67095 0.94204 0.0
C370 C 0.80825 0.6937 0.96808 0.0
C371 C 0.81688 0.67875 0.95802 0.0
C372 C 0.78854 0.70057 0.9619 0.0
C373 C 0.77817 0.69216 0.94532 0.0
H374 H 0.77963 0.67083 0.92277 0.0
H375 H 0.83188 0.67342 0.96296 0.0
C376 C 0.83627 0.58475 0.94573 0.0
N377 N 0.81841 0.59475 0.94336 0.0
C378 C 0.83564 0.56806 0.95576 0.0
C379 C 0.79803 0.57182 0.96021 0.0
C380 C 0.79938 0.58846 0.94996 0.0
C381 C 0.81639 0.56149 0.96347 0.0
H382 H 0.85114 0.58992 0.94002 0.0
H383 H 0.78522 0.59626 0.94744 0.0
C384 C 0.83083 0.6739 0.90154 0.0
N385 N 0.81852 0.70974 0.8981 0.0
C386 C 0.81389 0.67862 0.88887 0.0
C387 C 0.8416 0.68742 0.91237 0.0
C388 C 0.8079 0.69682 0.88734 0.0
C389 C 0.8351 0.70546 0.91046 0.0
C390 C 0.83756 0.59883 0.89614 0.0
C391 C 0.85432 0.5882 0.88907 0.0
C392 C 0.81679 0.59287 0.89336 0.0
C393 C 0.85001 0.57176 0.87925 0.0
C394 C 0.81315 0.57635 0.88346 0.0
N395 N 0.82969 0.56622 0.87667 0.0
C396 C 0.89276 0.62409 0.92498 0.0
C397 C 0.89144 0.65411 0.91191 0.0
C398 C 0.91478 0.62447 0.92505 0.0
N399 N 0.88164 0.6388 0.91859 0.0
C400 C 0.91346 0.65511 0.91179 0.0
C401 C 0.92541 0.64014 0.9184 0.0
H402 H 0.88446 0.6121 0.93017 0.0
H403 H 0.88217 0.66551 0.90667 0.0
C404 C 0.79233 0.63411 0.86265 0.0
N405 N 0.81247 0.63143 0.86925 0.0
C406 C 0.78747 0.63244 0.84176 0.0
C407 C 0.82403 0.62489 0.83517 0.0
C408 C 0.82822 0.62699 0.85603 0.0
C409 C 0.80346 0.62767 0.82779 0.0
H410 H 0.78014 0.63766 0.87356 0.0
H411 H 0.84411 0.62509 0.86174 0.0
O412 O 0.83777 0.63607 0.94689 0.0
O413 O 0.79848 0.63196 0.9185 0.0
O414 O 0.83652 0.65609 0.90369 0.0
O415 O 0.8416 0.61494 0.90583 0.0
H416 H 0.84913 0.61043 0.97321 0.0
H417 H 0.8649 0.6634 0.94999 0.0
H418 H 0.88074 0.6117 0.99558 0.0
H419 H 0.89604 0.66388 0.97302 0.0
H420 H 0.72868 0.62283 0.93055 0.0
H421 H 0.79916 0.6362 0.95914 0.0
H422 H 0.75946 0.62476 0.90702 0.0
H423 H 0.76774 0.6342 0.98164 0.0
H424 H 0.81709 0.69988 0.98048 0.0
H425 H 0.76284 0.69677 0.94014 0.0
H426 H 0.85013 0.56039 0.95741 0.0
H427 H 0.78284 0.56731 0.96588 0.0
H428 H 0.80531 0.66834 0.88048 0.0
H429 H 0.85462 0.68402 0.92238 0.0
H430 H 0.79475 0.70066 0.87767 0.0
H431 H 0.84318 0.71604 0.91888 0.0
H432 H 0.87048 0.59263 0.89116 0.0
H433 H 0.80362 0.60088 0.89877 0.0
H434 H 0.86282 0.56339 0.87368 0.0
H435 H 0.79716 0.57157 0.88119 0.0
H436 H 0.92338 0.6127 0.93046 0.0
H437 H 0.92104 0.66735 0.90627 0.0
H438 H 0.77142 0.63466 0.83662 0.0
H439 H 0.83684 0.62147 0.82486 0.0
Li440 Li 0.17782 0.38181 0.42443 0.0
Li441 Li 0.18321 0.34892 0.42741 0.0
Li442 Li 0.17851 0.36381 0.39379 0.0
Li443 Li 0.14799 0.36015 0.41612 0.0
C444 C 0.21924 0.37685 0.41904 0.0
N445 N 0.25419 0.39705 0.43012 0.0
C446 C 0.23313 0.37037 0.43401 0.0
C447 C 0.22321 0.39354 0.40959 0.0
C448 C 0.2507 0.3808 0.43942 0.0
C449 C 0.24093 0.40357 0.41545 0.0
C450 C 0.15819 0.36203 0.46284 0.0
C451 C 0.13565 0.35021 0.48959 0.0
N452 N 0.14835 0.35793 0.50397 0.0
C453 C 0.17087 0.36999 0.47791 0.0
C454 C 0.1403 0.35218 0.46874 0.0
C455 C 0.16571 0.3677 0.4986 0.0
C456 C 0.16981 0.41865 0.43052 0.0
N457 N 0.18291 0.40505 0.43654 0.0
C458 C 0.20006 0.42481 0.46045 0.0
C459 C 0.19795 0.40783 0.45112 0.0
C460 C 0.18648 0.43904 0.45478 0.0
C461 C 0.17138 0.43582 0.43939 0.0
H462 H 0.15786 0.41608 0.41904 0.0
H463 H 0.2081 0.39681 0.45581 0.0
C464 C 0.20177 0.31438 0.43129 0.0
N465 N 0.19744 0.32991 0.44177 0.0
C466 C 0.21122 0.29971 0.44122 0.0
C467 C 0.21287 0.31764 0.47226 0.0
C468 C 0.20306 0.33187 0.4618 0.0
C469 C 0.21679 0.30123 0.46199 0.0
H470 H 0.19774 0.31332 0.41521 0.0
H471 H 0.20009 0.34449 0.46964 0.0
C472 C 0.15292 0.3896 0.38272 0.0
N473 N 0.14518 0.40324 0.34394 0.0
C474 C 0.13621 0.38278 0.37102 0.0
C475 C 0.16557 0.40348 0.3748 0.0
C476 C 0.13258 0.38984 0.35142 0.0
C477 C 0.16144 0.41016 0.35513 0.0
C478 C 0.15662 0.3239 0.40614 0.0
C479 C 0.15406 0.31223 0.3894 0.0
C480 C 0.15026 0.31826 0.42566 0.0
C481 C 0.14498 0.29516 0.39248 0.0
C482 C 0.14128 0.30109 0.42812 0.0
N483 N 0.13882 0.29 0.41161 0.0
C484 C 0.20289 0.37233 0.35804 0.0
C485 C 0.17282 0.35369 0.35297 0.0
C486 C 0.20704 0.37238 0.33696 0.0
N487 N 0.18591 0.36318 0.36552 0.0
C488 C 0.17646 0.35324 0.33187 0.0
C489 C 0.1937 0.36274 0.32361 0.0
H490 H 0.21304 0.37976 0.36836 0.0
H491 H 0.15924 0.34681 0.35934 0.0
C492 C 0.10757 0.36965 0.42917 0.0
N493 N 0.1182 0.35743 0.41746 0.0
C494 C 0.08558 0.36906 0.43034 0.0
C495 C 0.08587 0.34333 0.40732 0.0
C496 C 0.10785 0.3445 0.40649 0.0
C497 C 0.07439 0.35578 0.41929 0.0
H498 H 0.11623 0.37998 0.43744 0.0
H499 H 0.11656 0.33524 0.39685 0.0
O500 O 0.20197 0.36682 0.41354 0.0
O501 O 0.16278 0.36443 0.44245 0.0
O502 O 0.15713 0.38248 0.40166 0.0
O503 O 0.16542 0.34069 0.40334 0.0
H504 H 0.2304 0.35743 0.44136 0.0
H505 H 0.21254 0.39884 0.3981 0.0
H506 H 0.26156 0.37597 0.45102 0.0
H507 H 0.2441 0.41657 0.40838 0.0
H508 H 0.12189 0.34258 0.49433 0.0
H509 H 0.18475 0.37762 0.47372 0.0
H510 H 0.13001 0.34615 0.45739 0.0
H511 H 0.17553 0.37368 0.5104 0.0
H512 H 0.21177 0.42659 0.47239 0.0
H513 H 0.16078 0.44644 0.43431 0.0
H514 H 0.21436 0.28738 0.4327 0.0
H515 H 0.21703 0.31933 0.48827 0.0
H516 H 0.12633 0.37199 0.37689 0.0
H517 H 0.17856 0.4089 0.38367 0.0
H518 H 0.1198 0.3846 0.34213 0.0
H519 H 0.17119 0.4208 0.34874 0.0
H520 H 0.15903 0.31629 0.37419 0.0
H521 H 0.15255 0.32693 0.4388 0.0
H522 H 0.14286 0.28601 0.37965 0.0
H523 H 0.13633 0.29657 0.44317 0.0
H524 H 0.22056 0.37978 0.33119 0.0
H525 H 0.1656 0.3459 0.32207 0.0
H526 H 0.07744 0.37918 0.43943 0.0
H527 H 0.07799 0.33277 0.39868 0.0
Li528 Li 0.82034 0.37065 0.10252 0.0
Li529 Li 0.85074 0.36564 0.0795 0.0
Li530 Li 0.82266 0.38567 0.06996 0.0
Li531 Li 0.81618 0.35402 0.07048 0.0
C532 C 0.84139 0.4064 0.09721 0.0
N533 N 0.83912 0.44353 0.10275 0.0
C534 C 0.85865 0.41739 0.09227 0.0
C535 C 0.82302 0.41429 0.10508 0.0
C536 C 0.85718 0.43613 0.09515 0.0
C537 C 0.82218 0.43308 0.10776 0.0
C538 C 0.84382 0.33972 0.11097 0.0
C539 C 0.85101 0.31434 0.13325 0.0
N540 N 0.86416 0.32497 0.14457 0.0
C541 C 0.8574 0.3504 0.12282 0.0
C542 C 0.84057 0.32155 0.11621 0.0
C543 C 0.86753 0.34269 0.13975 0.0
C544 C 0.7957 0.36193 0.13744 0.0
N545 N 0.81235 0.37188 0.13059 0.0
C546 C 0.81962 0.3824 0.16454 0.0
C547 C 0.82427 0.38199 0.14363 0.0
C548 C 0.80264 0.37216 0.17217 0.0
C549 C 0.79055 0.36185 0.15833 0.0
H550 H 0.78664 0.35387 0.12671 0.0
H551 H 0.8377 0.38947 0.13785 0.0
C552 C 0.89126 0.37636 0.06918 0.0
N553 N 0.88048 0.3622 0.07742 0.0
C554 C 0.9132 0.37578 0.06766 0.0
C555 C 0.91255 0.34559 0.08215 0.0
C556 C 0.89056 0.34677 0.0834 0.0
C557 C 0.92418 0.36037 0.07451 0.0
H558 H 0.88273 0.38813 0.06378 0.0
H559 H 0.88161 0.33542 0.08928 0.0
C560 C 0.78024 0.37526 0.06948 0.0
N561 N 0.74523 0.37887 0.0445 0.0
C562 C 0.78265 0.37646 0.04819 0.0
C563 C 0.76004 0.3759 0.07806 0.0
C564 C 0.76475 0.37827 0.03582 0.0
C565 C 0.74253 0.37774 0.06517 0.0
C566 C 0.84616 0.35551 0.03933 0.0
C567 C 0.85059 0.36096 0.01924 0.0
C568 C 0.85172 0.33804 0.04575 0.0
C569 C 0.86046 0.34882 0.00585 0.0
C570 C 0.86158 0.3263 0.0319 0.0
N571 N 0.8657 0.33189 0.01241 0.0
C572 C 0.83419 0.41337 0.04345 0.0
C573 C 0.80075 0.41847 0.05879 0.0
C574 C 0.83322 0.43006 0.03343 0.0
N575 N 0.81818 0.40799 0.0559 0.0
C576 C 0.79903 0.43525 0.04892 0.0
C577 C 0.81553 0.44129 0.03621 0.0
H578 H 0.84791 0.40477 0.0416 0.0
H579 H 0.7884 0.414 0.06908 0.0
C580 C 0.79333 0.32128 0.07033 0.0
N581 N 0.8014 0.33443 0.058 0.0
C582 C 0.7827 0.30647 0.06181 0.0
C583 C 0.78881 0.31911 0.02809 0.0
C584 C 0.79916 0.33371 0.03726 0.0
C585 C 0.78043 0.30517 0.04038 0.0
H586 H 0.79518 0.32231 0.0868 0.0
H587 H 0.80557 0.34441 0.02778 0.0
O588 O 0.84222 0.38807 0.09391 0.0
O589 O 0.83343 0.34698 0.09448 0.0
O590 O 0.79746 0.37343 0.08201 0.0
O591 O 0.83651 0.36736 0.05251 0.0
H592 H 0.87303 0.41155 0.08626 0.0
H593 H 0.80942 0.40602 0.10875 0.0
H594 H 0.87039 0.4448 0.09132 0.0
H595 H 0.80801 0.43938 0.11371 0.0
H596 H 0.84865 0.30029 0.13749 0.0
H597 H 0.86017 0.36447 0.11897 0.0
H598 H 0.83007 0.31312 0.10721 0.0
H599 H 0.87809 0.35079 0.14905 0.0
H600 H 0.82961 0.39025 0.17471 0.0
H601 H 0.77728 0.35382 0.16357 0.0
H602 H 0.92148 0.38728 0.06116 0.0
H603 H 0.92037 0.33343 0.08755 0.0
H604 H 0.79814 0.37605 0.04124 0.0
H605 H 0.75792 0.37499 0.09453 0.0
H606 H 0.76639 0.37922 0.01932 0.0
H607 H 0.72679 0.37826 0.07161 0.0
H608 H 0.8464 0.37445 0.01405 0.0
H609 H 0.84843 0.33352 0.0612 0.0
H610 H 0.86395 0.35286 0.99025 0.0
H611 H 0.86594 0.31275 0.03666 0.0
H612 H 0.84618 0.43414 0.02361 0.0
H613 H 0.78525 0.44361 0.05164 0.0
H614 H 0.77622 0.29622 0.07193 0.0
H615 H 0.78776 0.31863 0.01151 0.0
Li616 Li 0.18411 0.62633 0.59855 0.0
Li617 Li 0.15399 0.63367 0.57484 0.0
Li618 Li 0.18256 0.6141 0.56383 0.0
Li619 Li 0.18814 0.64586 0.56675 0.0
C620 C 0.15552 0.59302 0.58364 0.0
N621 N 0.14254 0.55802 0.57517 0.0
C622 C 0.13876 0.58996 0.5701 0.0
C623 C 0.16562 0.57829 0.59294 0.0
C624 C 0.13245 0.57216 0.566 0.0
C625 C 0.15883 0.5607 0.58844 0.0
C626 C 0.15583 0.66055 0.60131 0.0
C627 C 0.12914 0.68388 0.60009 0.0
N628 N 0.12366 0.67993 0.61978 0.0
C629 C 0.15002 0.6568 0.62158 0.0
C630 C 0.14541 0.67428 0.59051 0.0
C631 C 0.13369 0.66673 0.63063 0.0
C632 C 0.20571 0.63375 0.63571 0.0
N633 N 0.19117 0.62291 0.62649 0.0
C634 C 0.18243 0.60909 0.6585 0.0
C635 C 0.17977 0.6106 0.63733 0.0
C636 C 0.19673 0.62057 0.66868 0.0
C637 C 0.2088 0.63278 0.65695 0.0
H638 H 0.2143 0.64361 0.62668 0.0
H639 H 0.16803 0.60241 0.62965 0.0
C640 C 0.11387 0.64254 0.5577 0.0
N641 N 0.1242 0.63706 0.5749 0.0
C642 C 0.09191 0.64433 0.5578 0.0
C643 C 0.09165 0.63467 0.59327 0.0
C644 C 0.11358 0.63301 0.59245 0.0
C645 C 0.0805 0.64032 0.57574 0.0
H646 H 0.12261 0.64526 0.54381 0.0
H647 H 0.12218 0.62827 0.60576 0.0
C648 C 0.22396 0.6156 0.57369 0.0
N649 N 0.25854 0.59382 0.56589 0.0
C650 C 0.23199 0.6142 0.55376 0.0
C651 C 0.23359 0.60603 0.58968 0.0
C652 C 0.24945 0.60307 0.55012 0.0
C653 C 0.25105 0.59507 0.58541 0.0
C654 C 0.17087 0.64317 0.53044 0.0
C655 C 0.18331 0.63646 0.5144 0.0
C656 C 0.16159 0.66031 0.52862 0.0
C657 C 0.18628 0.64705 0.49684 0.0
C658 C 0.16501 0.67051 0.51085 0.0
N659 N 0.17717 0.66372 0.49545 0.0
C660 C 0.17526 0.59009 0.53132 0.0
C661 C 0.19993 0.57857 0.55535 0.0
C662 C 0.17583 0.5739 0.52026 0.0
N663 N 0.18727 0.5922 0.54846 0.0
C664 C 0.20106 0.56215 0.54469 0.0
C665 C 0.18873 0.5596 0.52701 0.0
H666 H 0.16467 0.60081 0.52659 0.0
H667 H 0.20849 0.58011 0.56956 0.0
C668 C 0.199 0.68312 0.56522 0.0
N669 N 0.20253 0.66671 0.55628 0.0
C670 C 0.20791 0.69883 0.5569 0.0
C671 C 0.22418 0.68044 0.53056 0.0
C672 C 0.21537 0.66507 0.53965 0.0
C673 C 0.22028 0.69757 0.53911 0.0
H674 H 0.18899 0.68405 0.57861 0.0
H675 H 0.21832 0.65188 0.53306 0.0
O676 O 0.16236 0.61032 0.58732 0.0
O677 O 0.17147 0.65071 0.59202 0.0
O678 O 0.20698 0.62648 0.57765 0.0
O679 O 0.16794 0.63309 0.54788 0.0
H680 H 0.13092 0.60119 0.5626 0.0
H681 H 0.17883 0.58041 0.60321 0.0
H682 H 0.1196 0.56958 0.55546 0.0
H683 H 0.1666 0.54916 0.5954 0.0
H684 H 0.12085 0.69446 0.59186 0.0
H685 H 0.15786 0.64623 0.63019 0.0
H686 H 0.14971 0.6774 0.57485 0.0
H687 H 0.12896 0.6639 0.64626 0.0
H688 H 0.17299 0.59931 0.66686 0.0
H689 H 0.21981 0.64204 0.66417 0.0
H690 H 0.08398 0.64881 0.54397 0.0
H691 H 0.08348 0.63111 0.6073 0.0
H692 H 0.22459 0.62135 0.54119 0.0
H693 H 0.2276 0.60701 0.6052 0.0
H694 H 0.25573 0.60174 0.53475 0.0
H695 H 0.25863 0.58754 0.59762 0.0
H696 H 0.19094 0.62339 0.51561 0.0
H697 H 0.15209 0.66581 0.54091 0.0
H698 H 0.19597 0.64207 0.48437 0.0
H699 H 0.15804 0.68384 0.50932 0.0
H700 H 0.16608 0.57254 0.50669 0.0
H701 H 0.21083 0.55132 0.5507 0.0
H702 H 0.20461 0.71187 0.56389 0.0
H703 H 0.23386 0.67899 0.51694 0.0
Li704 Li 0.68197 0.8677 0.1039 0.0
Li705 Li 0.68832 0.85297 0.07146 0.0
Li706 Li 0.6822 0.88607 0.0718 0.0
Li707 Li 0.65371 0.86442 0.07789 0.0
C708 C 0.72543 0.86503 0.08862 0.0
N709 N 0.76471 0.84996 0.09579 0.0
C710 C 0.72791 0.8516 0.10356 0.0
C711 C 0.74293 0.87078 0.07729 0.0
C712 C 0.74788 0.84414 0.10696 0.0
C713 C 0.76267 0.86302 0.08116 0.0
C714 C 0.66981 0.82704 0.09582 0.0
C715 C 0.6636 0.79676 0.08312 0.0
N716 N 0.67282 0.78983 0.10027 0.0
C717 C 0.67905 0.81962 0.11342 0.0
C718 C 0.66185 0.81552 0.08063 0.0
C719 C 0.68048 0.80078 0.11535 0.0
C720 C 0.67002 0.86189 0.14406 0.0
N721 N 0.68619 0.8686 0.13268 0.0
C722 C 0.70497 0.87712 0.16302 0.0
C723 C 0.70347 0.8762 0.14162 0.0
C724 C 0.6884 0.87036 0.17518 0.0
C725 C 0.67083 0.86257 0.16541 0.0
H726 H 0.65642 0.85609 0.13645 0.0
H727 H 0.71593 0.88174 0.13214 0.0
C728 C 0.70542 0.83552 0.03694 0.0
N729 N 0.7039 0.83432 0.05771 0.0
C730 C 0.71551 0.82189 0.02573 0.0
C731 C 0.72271 0.80619 0.05751 0.0
C732 C 0.71274 0.82024 0.06811 0.0
C733 C 0.72405 0.80678 0.03597 0.0
H734 H 0.69863 0.84703 0.02904 0.0
H735 H 0.71174 0.81967 0.08463 0.0
C736 C 0.66233 0.90111 0.1066 0.0
N737 N 0.66502 0.93105 0.13198 0.0
C738 C 0.64418 0.90805 0.11591 0.0
C739 C 0.68186 0.90936 0.11019 0.0
C740 C 0.64587 0.92322 0.12869 0.0
C741 C 0.68289 0.92449 0.12307 0.0
C742 C 0.65622 0.86631 0.03743 0.0
C743 C 0.6473 0.88193 0.0289 0.0
C744 C 0.64992 0.84925 0.03034 0.0
C745 C 0.63187 0.8802 0.01369 0.0
C746 C 0.63445 0.84809 0.0151 0.0
N747 N 0.6258 0.86346 0.00718 0.0
C748 C 0.70579 0.91263 0.04937 0.0
C749 C 0.67145 0.92121 0.06009 0.0
C750 C 0.7083 0.92912 0.03897 0.0
N751 N 0.68751 0.90901 0.05951 0.0
C752 C 0.67327 0.93779 0.04998 0.0
C753 C 0.69173 0.94182 0.03893 0.0
H754 H 0.71816 0.90255 0.04887 0.0
H755 H 0.65693 0.91786 0.06794 0.0
C756 C 0.61442 0.84594 0.08042 0.0
N757 N 0.62409 0.86162 0.07475 0.0
C758 C 0.59247 0.84442 0.07933 0.0
C759 C 0.5909 0.87516 0.06644 0.0
C760 C 0.61285 0.87614 0.06797 0.0
C761 C 0.58043 0.8592 0.07236 0.0
H762 H 0.62366 0.83475 0.08621 0.0
H763 H 0.62094 0.88861 0.06411 0.0
O764 O 0.70598 0.87246 0.085 0.0
O765 O 0.66826 0.84547 0.09369 0.0
O766 O 0.66092 0.88616 0.09422 0.0
O767 O 0.67113 0.8677 0.05256 0.0
H768 H 0.71453 0.84683 0.1123 0.0
H769 H 0.74132 0.88114 0.06563 0.0
H770 H 0.74999 0.83369 0.11844 0.0
H771 H 0.77635 0.86736 0.07252 0.0
H772 H 0.65762 0.7877 0.07141 0.0
H773 H 0.68513 0.82829 0.12544 0.0
H774 H 0.65445 0.82101 0.06705 0.0
H775 H 0.68769 0.79486 0.12884 0.0
H776 H 0.71868 0.88342 0.16995 0.0
H777 H 0.65783 0.85698 0.17418 0.0
H778 H 0.71658 0.82323 0.00921 0.0
H779 H 0.72882 0.7948 0.06616 0.0
H780 H 0.62896 0.90177 0.1133 0.0
H781 H 0.69609 0.90413 0.10317 0.0
H782 H 0.63195 0.92875 0.136 0.0
H783 H 0.6979 0.931 0.12601 0.0
H784 H 0.65208 0.89524 0.03409 0.0
H785 H 0.65694 0.83704 0.03648 0.0
H786 H 0.62471 0.89218 0.00708 0.0
H787 H 0.62936 0.83496 0.00955 0.0
H788 H 0.7227 0.93159 0.03046 0.0
H789 H 0.66021 0.94726 0.05061 0.0
H790 H 0.58499 0.83187 0.084 0.0
H791 H 0.58217 0.88697 0.06133 0.0
Li792 Li 0.31362 0.14835 0.57367 0.0
Li793 Li 0.31568 0.13219 0.60512 0.0
Li794 Li 0.3472 0.135 0.58344 0.0
Li795 Li 0.31555 0.11539 0.57294 0.0
C796 C 0.33944 0.17084 0.60193 0.0
N797 N 0.35528 0.20499 0.61038 0.0
C798 C 0.33112 0.18106 0.61812 0.0
C799 C 0.35586 0.178 0.59008 0.0
C800 C 0.33933 0.19829 0.62212 0.0
C801 C 0.36364 0.19528 0.59459 0.0
C802 C 0.27485 0.1391 0.59123 0.0
C803 C 0.23698 0.14049 0.59478 0.0
N804 N 0.23889 0.15654 0.60493 0.0
C805 C 0.27644 0.15561 0.60168 0.0
C806 C 0.25498 0.13147 0.58772 0.0
C807 C 0.25808 0.16421 0.60849 0.0
C808 C 0.28626 0.16427 0.54473 0.0
N809 N 0.30058 0.16837 0.55958 0.0
C810 C 0.29595 0.20008 0.55334 0.0
C811 C 0.30532 0.1859 0.56416 0.0
C812 C 0.28161 0.19629 0.53745 0.0
C813 C 0.2767 0.17805 0.53328 0.0
H814 H 0.28244 0.15024 0.54161 0.0
H815 H 0.31627 0.18907 0.57622 0.0
C816 C 0.32129 0.13965 0.64658 0.0
N817 N 0.30781 0.13144 0.63328 0.0
C818 C 0.31713 0.13953 0.66758 0.0
C819 C 0.28553 0.12206 0.66093 0.0
C820 C 0.29017 0.12272 0.63994 0.0
C821 C 0.29908 0.13063 0.67499 0.0
H822 H 0.33545 0.14609 0.64085 0.0
H823 H 0.27988 0.11611 0.62901 0.0
C824 C 0.33096 0.14066 0.53745 0.0
N825 N 0.32681 0.15689 0.49942 0.0
C826 C 0.31806 0.13282 0.52247 0.0
C827 C 0.34198 0.15661 0.533 0.0
C828 C 0.31612 0.14126 0.50335 0.0
C829 C 0.3396 0.16466 0.51372 0.0
C830 C 0.33492 0.10176 0.61338 0.0
C831 C 0.35032 0.10354 0.62861 0.0
C832 C 0.31842 0.08938 0.61602 0.0
C833 C 0.34887 0.09297 0.64636 0.0
C834 C 0.31754 0.07904 0.63397 0.0
N835 N 0.33264 0.08105 0.64865 0.0
C836 C 0.38736 0.14038 0.60073 0.0
C837 C 0.38738 0.13439 0.56494 0.0
C838 C 0.40935 0.14162 0.60084 0.0
N839 N 0.37694 0.13672 0.58298 0.0
C840 C 0.40936 0.13562 0.56432 0.0
C841 C 0.42063 0.13917 0.58247 0.0
H842 H 0.37855 0.1424 0.61477 0.0
H843 H 0.3786 0.13151 0.55107 0.0
C844 C 0.28992 0.09191 0.54872 0.0
N845 N 0.30815 0.09349 0.5596 0.0
C846 C 0.28526 0.07573 0.53844 0.0
C847 C 0.31792 0.06308 0.55131 0.0
C848 C 0.32206 0.07952 0.56109 0.0
C849 C 0.29938 0.06106 0.53969 0.0
H850 H 0.27917 0.1033 0.54783 0.0
H851 H 0.33648 0.08124 0.56978 0.0
O852 O 0.33161 0.15389 0.59788 0.0
O853 O 0.29256 0.13038 0.58435 0.0
O854 O 0.33274 0.13276 0.55638 0.0
O855 O 0.33563 0.11243 0.59623 0.0
H856 H 0.31839 0.17579 0.62745 0.0
H857 H 0.3625 0.17036 0.57751 0.0
H858 H 0.33301 0.20635 0.63457 0.0
H859 H 0.37633 0.20097 0.58552 0.0
H860 H 0.22149 0.13473 0.59218 0.0
H861 H 0.29165 0.16174 0.60447 0.0
H862 H 0.2535 0.1187 0.57963 0.0
H863 H 0.25909 0.17699 0.61659 0.0
H864 H 0.29981 0.21389 0.55758 0.0
H865 H 0.26586 0.17439 0.52112 0.0
H866 H 0.3282 0.14597 0.67795 0.0
H867 H 0.27147 0.11504 0.66609 0.0
H868 H 0.30951 0.12044 0.52561 0.0
H869 H 0.35215 0.16279 0.54433 0.0
H870 H 0.30608 0.13541 0.49166 0.0
H871 H 0.3479 0.17708 0.51012 0.0
H872 H 0.36314 0.11312 0.62684 0.0
H873 H 0.30625 0.08798 0.60446 0.0
H874 H 0.36061 0.09428 0.65833 0.0
H875 H 0.30479 0.06949 0.63629 0.0
H876 H 0.41743 0.14462 0.61511 0.0
H877 H 0.41747 0.13347 0.54989 0.0
H878 H 0.27075 0.07467 0.52972 0.0
H879 H 0.32935 0.05219 0.55243 0.0
Li880 Li 0.68638 0.11494 0.92825 0.0
Li881 Li 0.65645 0.13601 0.91979 0.0
Li882 Li 0.68738 0.13437 0.89787 0.0
Li883 Li 0.68929 0.14925 0.93026 0.0
C884 C 0.66261 0.10749 0.88592 0.0
N885 N 0.6549 0.09437 0.8469 0.0
C886 C 0.6457 0.11426 0.87445 0.0
C887 C 0.67554 0.09399 0.8776 0.0
C888 C 0.64208 0.10746 0.85474 0.0
C889 C 0.67139 0.08755 0.85783 0.0
C890 C 0.65443 0.13079 0.95961 0.0
C891 C 0.62506 0.14387 0.97797 0.0
N892 N 0.61953 0.12706 0.98472 0.0
C893 C 0.64852 0.11366 0.96681 0.0
C894 C 0.64269 0.14604 0.96531 0.0
C895 C 0.63081 0.11205 0.97947 0.0
C896 C 0.70519 0.09092 0.95716 0.0
N897 N 0.69264 0.09219 0.94029 0.0
C898 C 0.68451 0.06062 0.94197 0.0
C899 C 0.68253 0.07748 0.9325 0.0
C900 C 0.69676 0.0589 0.95986 0.0
C901 C 0.70754 0.07427 0.96724 0.0
H902 H 0.71279 0.10295 0.96316 0.0
H903 H 0.67235 0.07894 0.9193 0.0
C904 C 0.61609 0.15295 0.91616 0.0
N905 N 0.62646 0.13726 0.92046 0.0
C906 C 0.59404 0.15349 0.91657 0.0
C907 C 0.59383 0.12168 0.92564 0.0
C908 C 0.61584 0.12175 0.92498 0.0
C909 C 0.5826 0.13769 0.92134 0.0
H910 H 0.62491 0.16499 0.9122 0.0
H911 H 0.62453 0.10942 0.9281 0.0
C912 C 0.72838 0.12827 0.90923 0.0
N913 N 0.76631 0.12252 0.88929 0.0
C914 C 0.73804 0.14241 0.89843 0.0
C915 C 0.73804 0.11122 0.90996 0.0
C916 C 0.75719 0.13921 0.88842 0.0
C917 C 0.75721 0.10859 0.89977 0.0
C918 C 0.67444 0.17443 0.90596 0.0
C919 C 0.68844 0.18215 0.89184 0.0
C920 C 0.66388 0.18556 0.91998 0.0
C921 C 0.69168 0.20091 0.89205 0.0
C922 C 0.66761 0.20425 0.91974 0.0
N923 N 0.68131 0.21147 0.90589 0.0
C924 C 0.68156 0.14426 0.85706 0.0
C925 C 0.71025 0.12389 0.86096 0.0
C926 C 0.68351 0.14361 0.83575 0.0
N927 N 0.69476 0.13444 0.86922 0.0
C928 C 0.71309 0.12319 0.8397 0.0
C929 C 0.69939 0.13293 0.82691 0.0
H930 H 0.66894 0.15206 0.86392 0.0
H931 H 0.71981 0.11537 0.87068 0.0
C932 C 0.69562 0.17116 0.96554 0.0
N933 N 0.70171 0.16855 0.94573 0.0
C934 C 0.70355 0.1858 0.9768 0.0
C935 C 0.7241 0.19463 0.94717 0.0
C936 C 0.71599 0.17972 0.93661 0.0
C937 C 0.71775 0.19789 0.96748 0.0
H938 H 0.68445 0.16198 0.97255 0.0
H939 H 0.72079 0.17728 0.92097 0.0
O940 O 0.66684 0.11442 0.90496 0.0
O941 O 0.67145 0.13259 0.94682 0.0
O942 O 0.70977 0.13111 0.91935 0.0
O943 O 0.67123 0.15607 0.90616 0.0
H944 H 0.63566 0.12483 0.88058 0.0
H945 H 0.68887 0.08878 0.88617 0.0
H946 H 0.62913 0.11265 0.84563 0.0
H947 H 0.68137 0.07721 0.85113 0.0
H948 H 0.61574 0.15553 0.98238 0.0
H949 H 0.65737 0.1017 0.96253 0.0
H950 H 0.64699 0.15939 0.95983 0.0
H951 H 0.626 0.09887 0.98508 0.0
H952 H 0.67617 0.04911 0.93555 0.0
H953 H 0.71695 0.07362 0.9811 0.0
H954 H 0.58606 0.16604 0.9128 0.0
H955 H 0.58571 0.10923 0.92961 0.0
H956 H 0.73063 0.15558 0.89742 0.0
H957 H 0.7308 0.10014 0.91827 0.0
H958 H 0.76477 0.14999 0.87988 0.0
H959 H 0.76486 0.09546 0.90017 0.0
H960 H 0.69695 0.17376 0.88104 0.0
H961 H 0.65315 0.17982 0.93114 0.0
H962 H 0.70255 0.20705 0.88128 0.0
H963 H 0.65966 0.213 0.9306 0.0
H964 H 0.67253 0.15113 0.82625 0.0
H965 H 0.7252 0.1145 0.83328 0.0
H966 H 0.69825 0.18788 0.99243 0.0
H967 H 0.73527 0.20348 0.93954 0.0
Li968 Li 0.34307 0.8685 0.4226 0.0
Li969 Li 0.31268 0.8897 0.42929 0.0
Li970 Li 0.30948 0.85541 0.43135 0.0
Li971 Li 0.3136 0.87025 0.39913 0.0
C972 C 0.34257 0.87418 0.46254 0.0
N973 N 0.37556 0.87848 0.48989 0.0
C974 C 0.34847 0.89153 0.46906 0.0
C975 C 0.35332 0.85901 0.47008 0.0
C976 C 0.36521 0.89342 0.48287 0.0
C977 C 0.37 0.86147 0.48385 0.0
C978 C 0.33899 0.89696 0.38836 0.0
C979 C 0.33263 0.91747 0.3602 0.0
N980 N 0.34884 0.90973 0.34967 0.0
C981 C 0.35564 0.88924 0.37731 0.0
C982 C 0.32741 0.91122 0.3798 0.0
C983 C 0.36036 0.89589 0.35775 0.0
C984 C 0.38291 0.85093 0.42017 0.0
N985 N 0.37299 0.86677 0.42475 0.0
C986 C 0.40605 0.88121 0.43158 0.0
C987 C 0.38406 0.88183 0.43017 0.0
C988 C 0.41676 0.86498 0.4271 0.0
C989 C 0.40487 0.8497 0.42133 0.0
H990 H 0.37383 0.83929 0.41538 0.0
H991 H 0.37578 0.89438 0.43323 0.0
C992 C 0.29073 0.91204 0.45702 0.0
N993 N 0.30483 0.91208 0.44129 0.0
C994 C 0.28617 0.92811 0.4675 0.0
C995 C 0.3103 0.94397 0.445 0.0
C996 C 0.31451 0.92758 0.43507 0.0
C997 C 0.2962 0.94432 0.46165 0.0
H998 H 0.28344 0.89943 0.46172 0.0
H999 H 0.32601 0.92711 0.42281 0.0
C1000 C 0.3266 0.8299 0.40898 0.0
N1001 N 0.32174 0.79263 0.41043 0.0
C1002 C 0.31426 0.82101 0.39427 0.0
C1003 C 0.33647 0.81979 0.4244 0.0
C1004 C 0.31202 0.80217 0.39525 0.0
C1005 C 0.3338 0.80098 0.42489 0.0
C1006 C 0.27214 0.87551 0.40747 0.0
C1007 C 0.26428 0.86088 0.39615 0.0
C1008 C 0.26158 0.89216 0.40703 0.0
C1009 C 0.24602 0.86321 0.3844 0.0
C1010 C 0.24335 0.89393 0.39512 0.0
N1011 N 0.23602 0.87955 0.38413 0.0
C1012 C 0.29938 0.83525 0.46701 0.0
C1013 C 0.28325 0.82436 0.43663 0.0
C1014 C 0.29046 0.82112 0.47839 0.0
N1015 N 0.29588 0.83646 0.44647 0.0
C1016 C 0.27439 0.80981 0.44729 0.0
C1017 C 0.27798 0.80795 0.4685 0.0
H1018 H 0.30914 0.84525 0.47457 0.0
H1019 H 0.28038 0.82572 0.42039 0.0
C1020 C 0.31943 0.85838 0.35879 0.0
N1021 N 0.30755 0.86996 0.37019 0.0
C1022 C 0.31708 0.85766 0.33752 0.0
C1023 C 0.29072 0.88126 0.33988 0.0
C1024 C 0.29362 0.88153 0.36114 0.0
C1025 C 0.3025 0.86915 0.32777 0.0
H1026 H 0.33111 0.84991 0.36619 0.0
H1027 H 0.28506 0.89125 0.37032 0.0
O1028 O 0.32651 0.87207 0.44869 0.0
O1029 O 0.33372 0.89026 0.40725 0.0
O1030 O 0.32888 0.84838 0.40837 0.0
O1031 O 0.28991 0.87353 0.41916 0.0
H1032 H 0.34039 0.90343 0.46337 0.0
H1033 H 0.34892 0.8455 0.46527 0.0
H1034 H 0.37003 0.90677 0.48795 0.0
H1035 H 0.37853 0.84986 0.48971 0.0
H1036 H 0.32371 0.92841 0.35331 0.0
H1037 H 0.36464 0.87809 0.38366 0.0
H1038 H 0.31429 0.91717 0.38805 0.0
H1039 H 0.37312 0.88998 0.34896 0.0
H1040 H 0.41458 0.89342 0.4357 0.0
H1041 H 0.41244 0.83689 0.41784 0.0
H1042 H 0.27511 0.92782 0.48018 0.0
H1043 H 0.31865 0.95608 0.44023 0.0
H1044 H 0.30615 0.82857 0.38243 0.0
H1045 H 0.3459 0.82642 0.43602 0.0
H1046 H 0.30244 0.79515 0.38403 0.0
H1047 H 0.34127 0.79303 0.43681 0.0
H1048 H 0.2724 0.84798 0.39611 0.0
H1049 H 0.26746 0.9036 0.41575 0.0
H1050 H 0.23985 0.85205 0.37543 0.0
H1051 H 0.23504 0.90674 0.39459 0.0
H1052 H 0.29331 0.82062 0.49476 0.0
H1053 H 0.26522 0.79996 0.43879 0.0
H1054 H 0.32698 0.8485 0.32878 0.0
H1055 H 0.27937 0.89043 0.33302 0.0
Li1056 Li 0.3166 0.14531 0.92841 0.0
Li1057 Li 0.32097 0.11346 0.93036 0.0
Li1058 Li 0.35002 0.13164 0.91904 0.0
Li1059 Li 0.31874 0.12731 0.89711 0.0
C1060 C 0.34747 0.14357 0.95873 0.0
N1061 N 0.36954 0.16722 0.98371 0.0
C1062 C 0.3527 0.13854 0.97878 0.0
C1063 C 0.35348 0.16064 0.95138 0.0
C1064 C 0.36385 0.15069 0.99117 0.0
C1065 C 0.36463 0.17239 0.96424 0.0
C1066 C 0.27931 0.12602 0.93118 0.0
C1067 C 0.24159 0.12594 0.93627 0.0
N1068 N 0.24465 0.12531 0.95693 0.0
C1069 C 0.28208 0.12536 0.95246 0.0
C1070 C 0.25892 0.1263 0.923 0.0
C1071 C 0.26436 0.12502 0.96522 0.0
C1072 C 0.29521 0.17889 0.92782 0.0
N1073 N 0.30327 0.16591 0.94038 0.0
C1074 C 0.292 0.18228 0.97007 0.0
C1075 C 0.30173 0.16726 0.96114 0.0
C1076 C 0.28349 0.19599 0.95754 0.0
C1077 C 0.28517 0.19412 0.9361 0.0
H1078 H 0.29649 0.17734 0.91135 0.0
H1079 H 0.30807 0.15668 0.97083 0.0
C1080 C 0.32958 0.08723 0.95995 0.0
N1081 N 0.31495 0.09215 0.94577 0.0
C1082 C 0.32686 0.07145 0.97146 0.0
C1083 C 0.29403 0.06605 0.95349 0.0
C1084 C 0.29734 0.08202 0.9424 0.0
C1085 C 0.30894 0.06058 0.96823 0.0
H1086 H 0.34354 0.09548 0.9621 0.0
H1087 H 0.28601 0.08623 0.93092 0.0
C1088 C 0.34385 0.15657 0.88649 0.0
N1089 N 0.364 0.16877 0.85149 0.0
C1090 C 0.35659 0.14479 0.87509 0.0
C1091 C 0.34133 0.17453 0.88007 0.0
C1092 C 0.36665 0.15123 0.85745 0.0
C1093 C 0.35166 0.18045 0.86235 0.0
C1094 C 0.33694 0.09073 0.90353 0.0
C1095 C 0.35298 0.07866 0.90909 0.0
C1096 C 0.31788 0.08398 0.89584 0.0
C1097 C 0.34964 0.06001 0.90692 0.0
C1098 C 0.31517 0.06525 0.89387 0.0
N1099 N 0.33097 0.05375 0.89942 0.0
C1100 C 0.39083 0.11962 0.92744 0.0
C1101 C 0.39013 0.1495 0.91402 0.0
C1102 C 0.41284 0.11993 0.92826 0.0
N1103 N 0.37999 0.13409 0.91999 0.0
C1104 C 0.41216 0.15042 0.91462 0.0
C1105 C 0.42381 0.1354 0.92157 0.0
H1106 H 0.38232 0.10786 0.93285 0.0
H1107 H 0.38117 0.16106 0.90873 0.0
C1108 C 0.29407 0.13677 0.86266 0.0
N1109 N 0.30985 0.12576 0.86933 0.0
C1110 C 0.28856 0.13707 0.84188 0.0
C1111 C 0.31537 0.11441 0.83541 0.0
C1112 C 0.32047 0.11467 0.85623 0.0
C1113 C 0.29939 0.12586 0.82795 0.0
H1114 H 0.2861 0.14561 0.87343 0.0
H1115 H 0.33332 0.10639 0.86185 0.0
O1116 O 0.33659 0.13171 0.94649 0.0
O1117 O 0.29636 0.12647 0.91829 0.0
O1118 O 0.33353 0.15057 0.90365 0.0
O1119 O 0.33962 0.10903 0.90606 0.0
H1120 H 0.34815 0.12539 0.9847 0.0
H1121 H 0.34956 0.16485 0.93596 0.0
H1122 H 0.36799 0.14697 0.00673 0.0
H1123 H 0.36937 0.18563 0.95875 0.0
H1124 H 0.22571 0.12616 0.93015 0.0
H1125 H 0.29772 0.12511 0.95911 0.0
H1126 H 0.25652 0.12683 0.90655 0.0
H1127 H 0.26628 0.12452 0.98172 0.0
H1128 H 0.29143 0.18321 0.98665 0.0
H1129 H 0.27859 0.20417 0.92581 0.0
H1130 H 0.3389 0.06759 0.98243 0.0
H1131 H 0.27995 0.05811 0.95062 0.0
H1132 H 0.35874 0.13085 0.8798 0.0
H1133 H 0.33146 0.18379 0.8887 0.0
H1134 H 0.37656 0.14227 0.84849 0.0
H1135 H 0.34986 0.19432 0.8572 0.0
H1136 H 0.36783 0.08358 0.91503 0.0
H1137 H 0.30515 0.09309 0.89178 0.0
H1138 H 0.3619 0.05052 0.91121 0.0
H1139 H 0.30045 0.05985 0.88806 0.0
H1140 H 0.42116 0.10822 0.93422 0.0
H1141 H 0.41997 0.16263 0.90933 0.0
H1142 H 0.27612 0.14607 0.83673 0.0
H1143 H 0.32439 0.10584 0.82513 0.0
Li1144 Li 0.68457 0.85135 0.43364 0.0
Li1145 Li 0.68029 0.88313 0.43084 0.0
Li1146 Li 0.64904 0.86408 0.42482 0.0
Li1147 Li 0.67927 0.86589 0.40027 0.0
C1148 C 0.66785 0.87523 0.46868 0.0
N1149 N 0.67282 0.89426 0.50491 0.0
C1150 C 0.68539 0.87202 0.48119 0.0
C1151 C 0.65277 0.88803 0.47465 0.0
C1152 C 0.68761 0.88177 0.49946 0.0
C1153 C 0.65561 0.89756 0.49299 0.0
C1154 C 0.72114 0.87785 0.4241 0.0
C1155 C 0.74378 0.90384 0.41939 0.0
N1156 N 0.75669 0.89755 0.43449 0.0
C1157 C 0.73465 0.87162 0.43954 0.0
C1158 C 0.72576 0.89404 0.41387 0.0
C1159 C 0.75255 0.88179 0.44457 0.0
C1160 C 0.71495 0.82356 0.43923 0.0
N1161 N 0.69754 0.83156 0.44741 0.0
C1162 C 0.69742 0.81061 0.47537 0.0
C1163 C 0.68859 0.82534 0.46501 0.0
C1164 C 0.71548 0.8021 0.46738 0.0
C1165 C 0.72421 0.80868 0.44899 0.0
H1166 H 0.72159 0.82873 0.42509 0.0
H1167 H 0.67451 0.83179 0.47094 0.0
C1168 C 0.67348 0.92004 0.43757 0.0
N1169 N 0.68684 0.90634 0.44273 0.0
C1170 C 0.67508 0.9369 0.44714 0.0
C1171 C 0.70453 0.92553 0.46688 0.0
C1172 C 0.7023 0.90882 0.45698 0.0
C1173 C 0.69054 0.93972 0.46225 0.0
H1174 H 0.66107 0.91771 0.4265 0.0
H1175 H 0.71238 0.89767 0.46133 0.0
C1176 C 0.66888 0.82607 0.40941 0.0
N1177 N 0.67929 0.78969 0.40785 0.0
C1178 C 0.68405 0.81993 0.39546 0.0
C1179 C 0.659 0.81372 0.42257 0.0
C1180 C 0.68907 0.80147 0.39488 0.0
C1181 C 0.6645 0.79538 0.42155 0.0
C1182 C 0.65372 0.89271 0.39071 0.0
C1183 C 0.63544 0.88699 0.38057 0.0
C1184 C 0.66676 0.90573 0.38162 0.0
C1185 C 0.63064 0.89427 0.36132 0.0
C1186 C 0.66143 0.91266 0.36234 0.0
N1187 N 0.64364 0.90683 0.35267 0.0
C1188 C 0.60849 0.87767 0.43192 0.0
C1189 C 0.60914 0.84653 0.42282 0.0
C1190 C 0.58648 0.87747 0.43283 0.0
N1191 N 0.6193 0.86233 0.42705 0.0
C1192 C 0.58711 0.84571 0.42353 0.0
C1193 C 0.57547 0.86135 0.42853 0.0
H1194 H 0.617 0.89016 0.43467 0.0
H1195 H 0.61811 0.83463 0.41861 0.0
C1196 C 0.70212 0.87297 0.36316 0.0
N1197 N 0.68469 0.86518 0.37159 0.0
C1198 C 0.70435 0.87381 0.34182 0.0
C1199 C 0.671 0.85811 0.3384 0.0
C1200 C 0.66947 0.85752 0.35973 0.0
C1201 C 0.68845 0.86659 0.32917 0.0
H1202 H 0.714 0.87893 0.37295 0.0
H1203 H 0.65582 0.85138 0.36691 0.0
O1204 O 0.66557 0.86604 0.45057 0.0
O1205 O 0.70369 0.86797 0.41881 0.0
O1206 O 0.66423 0.84416 0.41064 0.0
O1207 O 0.65906 0.88534 0.40927 0.0
H1208 H 0.69737 0.86234 0.47668 0.0
H1209 H 0.63915 0.89072 0.46512 0.0
H1210 H 0.70117 0.87951 0.50922 0.0
H1211 H 0.64414 0.90761 0.49772 0.0
H1212 H 0.74747 0.91645 0.41169 0.0
H1213 H 0.7313 0.85916 0.44767 0.0
H1214 H 0.7154 0.89912 0.40199 0.0
H1215 H 0.76311 0.87717 0.45653 0.0
H1216 H 0.69001 0.80578 0.48933 0.0
H1217 H 0.73819 0.80256 0.4424 0.0
H1218 H 0.66408 0.94754 0.44298 0.0
H1219 H 0.71647 0.92706 0.47866 0.0
H1220 H 0.69204 0.82933 0.38534 0.0
H1221 H 0.64752 0.81829 0.43373 0.0
H1222 H 0.70083 0.79653 0.38421 0.0
H1223 H 0.6571 0.78569 0.43174 0.0
H1224 H 0.62525 0.87685 0.38733 0.0
H1225 H 0.68095 0.9103 0.3893 0.0
H1226 H 0.61664 0.88988 0.35321 0.0
H1227 H 0.67145 0.92264 0.35505 0.0
H1228 H 0.57816 0.88993 0.43634 0.0
H1229 H 0.57929 0.83298 0.42022 0.0
H1230 H 0.718 0.88054 0.33532 0.0
H1231 H 0.65856 0.8521 0.32923 0.0
Li1232 Li 0.31801 0.86648 0.10338 0.0
Li1233 Li 0.34828 0.86339 0.08074 0.0
Li1234 Li 0.3177 0.88441 0.07265 0.0
Li1235 Li 0.31327 0.85136 0.06986 0.0
C1236 C 0.34241 0.8933 0.11385 0.0
N1237 N 0.34914 0.90806 0.15227 0.0
C1238 C 0.35922 0.88722 0.12593 0.0
C1239 C 0.32915 0.90699 0.12119 0.0
C1240 C 0.36233 0.89483 0.14534 0.0
C1241 C 0.33278 0.91425 0.14069 0.0
C1242 C 0.34027 0.82686 0.09058 0.0
C1243 C 0.35586 0.80452 0.06817 0.0
N1244 N 0.35785 0.79299 0.08435 0.0
C1245 C 0.34236 0.81476 0.10697 0.0
C1246 C 0.34699 0.82168 0.07101 0.0
C1247 C 0.35134 0.79771 0.10352 0.0
C1248 C 0.29445 0.87492 0.13977 0.0
N1249 N 0.31121 0.86579 0.13181 0.0
C1250 C 0.32165 0.85586 0.1652 0.0
C1251 C 0.32467 0.85631 0.14401 0.0
C1252 C 0.30465 0.86534 0.17394 0.0
C1253 C 0.29091 0.87495 0.16095 0.0
H1254 H 0.28402 0.88237 0.12973 0.0
H1255 H 0.33808 0.84945 0.13726 0.0
C1256 C 0.38867 0.87296 0.06711 0.0
N1257 N 0.37809 0.86102 0.07922 0.0
C1258 C 0.41066 0.87227 0.06577 0.0
C1259 C 0.41045 0.84709 0.08954 0.0
C1260 C 0.38849 0.84835 0.09052 0.0
C1261 C 0.42188 0.85919 0.07709 0.0
H1262 H 0.37997 0.88311 0.05859 0.0
H1263 H 0.37981 0.83932 0.10047 0.0
C1264 C 0.27619 0.87782 0.0784 0.0
N1265 N 0.23962 0.89577 0.06733 0.0
C1266 C 0.26288 0.87048 0.06342 0.0
C1267 C 0.27084 0.89422 0.08784 0.0
C1268 C 0.24447 0.87977 0.05802 0.0
C1269 C 0.25231 0.90311 0.08199 0.0
C1270 C 0.33758 0.86587 0.03406 0.0
C1271 C 0.32444 0.87407 0.01953 0.0
C1272 C 0.35572 0.85671 0.02751 0.0
C1273 C 0.3295 0.8728 0.9987 0.0
C1274 C 0.36026 0.85575 0.00655 0.0
N1275 N 0.34716 0.86374 0.99269 0.0
C1276 C 0.325 0.92122 0.06529 0.0
C1277 C 0.29554 0.90992 0.04689 0.0
C1278 C 0.32257 0.93827 0.05628 0.0
N1279 N 0.31162 0.90745 0.06046 0.0
C1280 C 0.29249 0.92676 0.03754 0.0
C1281 C 0.30622 0.9412 0.04206 0.0
H1282 H 0.33786 0.91886 0.07587 0.0
H1283 H 0.28525 0.89876 0.043 0.0
C1284 C 0.29373 0.81727 0.06717 0.0
N1285 N 0.29983 0.83181 0.05578 0.0
C1286 C 0.2851 0.80199 0.05768 0.0
C1287 C 0.28844 0.81719 0.02497 0.0
C1288 C 0.29706 0.83214 0.0351 0.0
C1289 C 0.28258 0.80173 0.03625 0.0
H1290 H 0.29595 0.81742 0.08364 0.0
H1291 H 0.30156 0.84395 0.0264 0.0
O1292 O 0.33871 0.88562 0.09509 0.0
O1293 O 0.33148 0.8436 0.09374 0.0
O1294 O 0.2942 0.86885 0.08395 0.0
O1295 O 0.33307 0.86725 0.05459 0.0
H1296 H 0.36957 0.87658 0.12047 0.0
H1297 H 0.31606 0.91182 0.11201 0.0
H1298 H 0.37518 0.89018 0.15493 0.0
H1299 H 0.32255 0.92476 0.14665 0.0
H1300 H 0.3611 0.80034 0.05308 0.0
H1301 H 0.33709 0.81848 0.1222 0.0
H1302 H 0.34514 0.83073 0.05813 0.0
H1303 H 0.35309 0.78822 0.11608 0.0
H1304 H 0.33282 0.84854 0.17468 0.0
H1305 H 0.27754 0.88235 0.16709 0.0
H1306 H 0.41876 0.88212 0.05628 0.0
H1307 H 0.41836 0.83669 0.09842 0.0
H1308 H 0.26673 0.85776 0.05604 0.0
H1309 H 0.28106 0.90018 0.09931 0.0
H1310 H 0.23405 0.87428 0.04642 0.0
H1311 H 0.24805 0.91588 0.08906 0.0
H1312 H 0.31027 0.88104 0.02422 0.0
H1313 H 0.36628 0.85043 0.03845 0.0
H1314 H 0.31936 0.87898 0.98731 0.0
H1315 H 0.37422 0.84868 0.0013 0.0
H1316 H 0.33377 0.94888 0.05998 0.0
H1317 H 0.27957 0.92842 0.02682 0.0
H1318 H 0.28094 0.79035 0.06699 0.0
H1319 H 0.28636 0.81776 0.00848 0.0
Li1320 Li 0.65263 0.13492 0.57939 0.0
Li1321 Li 0.68125 0.13013 0.60316 0.0
Li1322 Li 0.68712 0.14677 0.57067 0.0
Li1323 Li 0.68087 0.11442 0.57061 0.0
C1324 C 0.65618 0.16531 0.60421 0.0
N1325 N 0.6291 0.18899 0.62392 0.0
C1326 C 0.64162 0.1588 0.61854 0.0
C1327 C 0.65691 0.18387 0.59984 0.0
C1328 C 0.62807 0.17098 0.62835 0.0
C1329 C 0.64311 0.19563 0.60999 0.0
C1330 C 0.66388 0.09589 0.60338 0.0
C1331 C 0.68767 0.07384 0.61807 0.0
N1332 N 0.67088 0.06333 0.62335 0.0
C1333 C 0.64687 0.08489 0.60903 0.0
C1334 C 0.68447 0.09035 0.608 0.0
C1335 C 0.65073 0.06847 0.61909 0.0
C1336 C 0.61142 0.12253 0.57834 0.0
N1337 N 0.62281 0.13813 0.57752 0.0
C1338 C 0.59117 0.15577 0.5757 0.0
C1339 C 0.61319 0.15458 0.5759 0.0
C1340 C 0.57903 0.13987 0.57722 0.0
C1341 C 0.58943 0.12308 0.57832 0.0
H1342 H 0.61948 0.10964 0.57915 0.0
H1343 H 0.62252 0.16683 0.57511 0.0
C1344 C 0.70715 0.13248 0.63914 0.0
N1345 N 0.68763 0.12863 0.63164 0.0
C1346 C 0.7111 0.1313 0.66026 0.0
C1347 C 0.67476 0.12231 0.66533 0.0
C1348 C 0.67163 0.12346 0.64423 0.0
C1349 C 0.69472 0.12621 0.67371 0.0
H1350 H 0.71964 0.13644 0.62873 0.0
H1351 H 0.65633 0.12023 0.63787 0.0
C1352 C 0.65757 0.14345 0.53841 0.0
N1353 N 0.63763 0.16476 0.50938 0.0
C1354 C 0.65183 0.13607 0.51945 0.0
C1355 C 0.65318 0.16166 0.5426 0.0
C1356 C 0.64176 0.14707 0.50498 0.0
C1357 C 0.6431 0.17221 0.52774 0.0
C1358 C 0.72304 0.12551 0.57151 0.0
C1359 C 0.72138 0.12415 0.55016 0.0
C1360 C 0.74294 0.12498 0.58075 0.0
C1361 C 0.7397 0.12231 0.5384 0.0
C1362 C 0.76089 0.12312 0.56846 0.0
N1363 N 0.75891 0.12184 0.54772 0.0
C1364 C 0.70947 0.17991 0.57014 0.0
C1365 C 0.70412 0.16678 0.53731 0.0
C1366 C 0.71888 0.19516 0.56126 0.0
N1367 N 0.70199 0.16629 0.55808 0.0
C1368 C 0.71316 0.18183 0.5278 0.0
C1369 C 0.7204 0.19638 0.5398 0.0
H1370 H 0.70766 0.17909 0.58663 0.0
H1371 H 0.69834 0.15566 0.52806 0.0
C1372 C 0.67006 0.08683 0.54418 0.0
N1373 N 0.68583 0.09207 0.55698 0.0
C1374 C 0.67113 0.07021 0.53406 0.0
C1375 C 0.70482 0.06465 0.55039 0.0
C1376 C 0.7031 0.08147 0.5602 0.0
C1377 C 0.68856 0.05875 0.53727 0.0
H1378 H 0.65647 0.09552 0.54208 0.0
H1379 H 0.71533 0.08589 0.57065 0.0
O1380 O 0.66941 0.15361 0.5942 0.0
O1381 O 0.66026 0.11203 0.59354 0.0
O1382 O 0.6674 0.13279 0.55272 0.0
O1383 O 0.70538 0.12736 0.58342 0.0
H1384 H 0.6404 0.14445 0.62164 0.0
H1385 H 0.66795 0.18914 0.58865 0.0
H1386 H 0.61663 0.16609 0.63938 0.0
H1387 H 0.6435 0.21002 0.60675 0.0
H1388 H 0.70352 0.0694 0.6217 0.0
H1389 H 0.63081 0.08898 0.60575 0.0
H1390 H 0.69787 0.09867 0.60395 0.0
H1391 H 0.6377 0.05983 0.62353 0.0
H1392 H 0.58374 0.16899 0.5749 0.0
H1393 H 0.58065 0.11049 0.57911 0.0
H1394 H 0.72681 0.13421 0.66592 0.0
H1395 H 0.66149 0.1187 0.67497 0.0
H1396 H 0.65514 0.122 0.51595 0.0
H1397 H 0.65756 0.16762 0.55715 0.0
H1398 H 0.63722 0.14154 0.49023 0.0
H1399 H 0.63962 0.18633 0.53079 0.0
H1400 H 0.70614 0.12443 0.5427 0.0
H1401 H 0.74448 0.12599 0.59727 0.0
H1402 H 0.73864 0.12125 0.52187 0.0
H1403 H 0.7764 0.1227 0.57542 0.0
H1404 H 0.72423 0.20614 0.57102 0.0
H1405 H 0.71436 0.18216 0.51121 0.0
H1406 H 0.6584 0.06638 0.52384 0.0
H1407 H 0.71842 0.05617 0.55346 0.0
H1408 H 0.05615 0.38799 0.08711 0.0
H1409 H 0.95036 0.33215 0.06369 0.0
H1410 H 0.0562 0.33427 0.06065 0.0
H1411 H 0.95144 0.38771 0.08465 0.0
H1412 H 0.98905 0.33206 0.06353 0.0
H1413 H 0.0177 0.38765 0.08705 0.0
C1414 C 0.04809 0.37616 0.08112 0.0
C1415 C 0.0595 0.36117 0.07376 0.0
C1416 C 0.98079 0.34427 0.06812 0.0
C1417 C 0.01528 0.36058 0.07396 0.0
C1418 C 0.95872 0.3443 0.06832 0.0
C1419 C 0.94763 0.35998 0.07413 0.0
C1420 C 0.99185 0.36 0.07388 0.0
C1421 C 0.9593 0.3754 0.07977 0.0
C1422 C 0.02609 0.37593 0.08122 0.0
C1423 C 0.0481 0.34606 0.06666 0.0
N1424 N 0.98072 0.375 0.07953 0.0
N1425 N 0.02662 0.34615 0.06693 0.0
H1426 H 0.94938 0.6554 0.61049 0.0
H1427 H 0.05274 0.62978 0.54575 0.0
H1428 H 0.94786 0.62945 0.55108 0.0
H1429 H 0.05484 0.65328 0.60642 0.0
H1430 H 0.01424 0.63095 0.54683 0.0
H1431 H 0.98796 0.65577 0.60888 0.0
C1432 C 0.95714 0.64974 0.59713 0.0
C1433 C 0.94531 0.64238 0.5809 0.0
C1434 C 0.0231 0.63589 0.5599 0.0
C1435 C 0.9895 0.64291 0.57887 0.0
C1436 C 0.04511 0.63534 0.55923 0.0
C1437 C 0.05707 0.64144 0.57602 0.0
C1438 C 0.01289 0.64261 0.57747 0.0
C1439 C 0.04627 0.64822 0.59323 0.0
C1440 C 0.97917 0.65004 0.59618 0.0
C1441 C 0.95626 0.6355 0.56383 0.0
N1442 N 0.02481 0.64861 0.59351 0.0
N1443 N 0.9777 0.6359 0.5633 0.0
H1444 H 0.95132 0.66813 0.93012 0.0
H1445 H 0.0576 0.61485 0.90186 0.0
H1446 H 0.95281 0.61359 0.90604 0.0
H1447 H 0.05708 0.66756 0.93075 0.0
H1448 H 0.0191 0.61477 0.90215 0.0
H1449 H 0.98995 0.66878 0.9294 0.0
C1450 C 0.95977 0.65633 0.9246 0.0
C1451 C 0.94882 0.64077 0.91815 0.0
C1452 C 0.02737 0.62637 0.90842 0.0
C1453 C 0.993 0.64138 0.9174 0.0
C1454 C 0.04937 0.62649 0.90813 0.0
C1455 C 0.06059 0.64128 0.91621 0.0
C1456 C 0.01641 0.64118 0.91682 0.0
C1457 C 0.04907 0.65582 0.92451 0.0
C1458 C 0.98182 0.65667 0.9243 0.0
C1459 C 0.96059 0.62578 0.9114 0.0
N1460 N 0.0276 0.65542 0.92456 0.0
N1461 N 0.98202 0.62647 0.91116 0.0
H1462 H 0.04811 0.36249 0.45204 0.0
H1463 H 0.9417 0.34269 0.3898 0.0
H1464 H 0.04697 0.34781 0.38784 0.0
H1465 H 0.94305 0.37066 0.44798 0.0
H1466 H 0.9803 0.34107 0.39039 0.0
H1467 H 0.00955 0.3625 0.45223 0.0
C1468 C 0.0398 0.35933 0.43796 0.0
C1469 C 0.0509 0.35521 0.41987 0.0
C1470 C 0.97214 0.34755 0.40303 0.0
C1471 C 0.00668 0.3549 0.42012 0.0
C1472 C 0.95013 0.34837 0.40277 0.0
C1473 C 0.93919 0.35686 0.41884 0.0
C1474 C 0.98329 0.35512 0.41959 0.0
C1475 C 0.9509 0.36418 0.43517 0.0
C1476 C 0.01777 0.35926 0.43812 0.0
C1477 C 0.03918 0.35083 0.40223 0.0
N1478 N 0.97232 0.36311 0.43514 0.0
N1479 N 0.01773 0.3508 0.4028 0.0
H1480 H 0.44957 0.8519 0.10849 0.0
H1481 H 0.55337 0.8708 0.04225 0.0
H1482 H 0.44785 0.86485 0.04382 0.0
H1483 H 0.55431 0.84573 0.1021 0.0
H1484 H 0.5147 0.87029 0.04299 0.0
H1485 H 0.488 0.85091 0.10686 0.0
C1486 C 0.45722 0.85437 0.09388 0.0
C1487 C 0.44534 0.85842 0.07625 0.0
C1488 C 0.52338 0.86481 0.05591 0.0
C1489 C 0.48952 0.85765 0.07441 0.0
C1490 C 0.54542 0.86518 0.05553 0.0
C1491 C 0.55704 0.85829 0.07214 0.0
C1492 C 0.51289 0.85769 0.07312 0.0
C1493 C 0.54597 0.851 0.08888 0.0
C1494 C 0.47921 0.8539 0.09301 0.0
C1495 C 0.45629 0.86192 0.05789 0.0
N1496 N 0.52452 0.85099 0.089 0.0
N1497 N 0.47774 0.86151 0.05747 0.0
H1498 H 0.55219 0.16047 0.55373 0.0
H1499 H 0.44805 0.12429 0.61019 0.0
H1500 H 0.55272 0.12121 0.60287 0.0
H1501 H 0.44646 0.15579 0.55436 0.0
H1502 H 0.48658 0.12523 0.60941 0.0
H1503 H 0.51353 0.16111 0.55535 0.0
C1504 C 0.54417 0.15206 0.56492 0.0
C1505 C 0.55566 0.1407 0.57811 0.0
C1506 C 0.47782 0.13196 0.59733 0.0
C1507 C 0.51154 0.14132 0.58003 0.0
C1508 C 0.45582 0.13152 0.59784 0.0
C1509 C 0.44403 0.13997 0.58231 0.0
C1510 C 0.48817 0.14099 0.58122 0.0
C1511 C 0.45495 0.14893 0.56652 0.0
C1512 C 0.52213 0.15235 0.56576 0.0
C1513 C 0.54447 0.12997 0.59221 0.0
N1514 N 0.47641 0.14923 0.56639 0.0
N1515 N 0.52306 0.13056 0.59281 0.0
H1516 H 0.55594 0.16432 0.93557 0.0
H1517 H 0.45082 0.10824 0.91017 0.0
H1518 H 0.55565 0.11128 0.90742 0.0
H1519 H 0.45024 0.16326 0.93288 0.0
H1520 H 0.48933 0.10883 0.91029 0.0
H1521 H 0.51732 0.16406 0.93555 0.0
C1522 C 0.54778 0.15266 0.92929 0.0
C1523 C 0.55912 0.13778 0.92151 0.0
C1524 C 0.48081 0.12079 0.91525 0.0
C1525 C 0.51488 0.13732 0.92167 0.0
C1526 C 0.4588 0.12042 0.91531 0.0
C1527 C 0.44726 0.13571 0.92158 0.0
C1528 C 0.49146 0.13655 0.92157 0.0
C1529 C 0.45848 0.15123 0.92774 0.0
C1530 C 0.52573 0.15249 0.92938 0.0
C1531 C 0.54765 0.12293 0.91387 0.0
N1532 N 0.47996 0.15123 0.92762 0.0
N1533 N 0.5262 0.12308 0.91415 0.0
H1534 H 0.44322 0.88026 0.45567 0.0
H1535 H 0.54882 0.84426 0.40154 0.0
H1536 H 0.44374 0.84771 0.40056 0.0
H1537 H 0.54861 0.87781 0.45588 0.0
H1538 H 0.51027 0.84453 0.40166 0.0
H1539 H 0.48178 0.87902 0.45647 0.0
C1540 C 0.45144 0.87291 0.44369 0.0
C1541 C 0.44019 0.86409 0.42802 0.0
C1542 C 0.51864 0.85181 0.41359 0.0
C1543 C 0.48437 0.86247 0.42894 0.0
C1544 C 0.54068 0.85156 0.41361 0.0
C1545 C 0.55201 0.86103 0.42873 0.0
C1546 C 0.50779 0.86159 0.42879 0.0
C1547 C 0.54056 0.87051 0.44377 0.0
C1548 C 0.47346 0.87212 0.44422 0.0
C1549 C 0.4517 0.85452 0.41309 0.0
N1550 N 0.5191 0.87055 0.44341 0.0
N1551 N 0.47313 0.854 0.41391 0.0
H1552 H 0.20186 0.33354 0.19527 0.0
H1553 H 0.20354 0.39174 0.29908 0.0
H1554 H 0.20057 0.39212 0.1965 0.0
H1555 H 0.19196 0.33407 0.297 0.0
H1556 H 0.20733 0.39187 0.26166 0.0
H1557 H 0.20277 0.3333 0.23273 0.0
C1558 C 0.20177 0.34636 0.2034 0.0
C1559 C 0.20096 0.36288 0.19267 0.0
C1560 C 0.20405 0.37918 0.26941 0.0
C1561 C 0.20226 0.36268 0.23563 0.0
C1562 C 0.20202 0.37908 0.29076 0.0
C1563 C 0.19732 0.36288 0.30112 0.0
C1564 C 0.2015 0.36295 0.25838 0.0
C1565 C 0.1953 0.3469 0.28957 0.0
C1566 C 0.20238 0.34621 0.2248 0.0
C1567 C 0.20137 0.37906 0.20407 0.0
N1568 N 0.19737 0.34734 0.26883 0.0
N1569 N 0.20189 0.37855 0.22493 0.0
H1570 H 0.8056 0.59493 0.70041 0.0
H1571 H 0.78172 0.65118 0.803 0.0
H1572 H 0.78888 0.65175 0.70049 0.0
H1573 H 0.81552 0.60038 0.80198 0.0
H1574 H 0.77791 0.64947 0.76555 0.0
H1575 H 0.80329 0.59477 0.73783 0.0
C1576 C 0.80142 0.60737 0.70825 0.0
C1577 C 0.79766 0.62342 0.6972 0.0
C1578 C 0.78601 0.63864 0.77357 0.0
C1579 C 0.79466 0.62324 0.74011 0.0
C1580 C 0.78807 0.63955 0.79491 0.0
C1581 C 0.7991 0.62597 0.80553 0.0
C1582 C 0.79487 0.62394 0.76285 0.0
C1583 C 0.80715 0.61125 0.79432 0.0
C1584 C 0.8 0.60724 0.72962 0.0
C1585 C 0.79176 0.63901 0.70826 0.0
N1586 N 0.80493 0.61065 0.77359 0.0
N1587 N 0.79055 0.63855 0.7291 0.0
H1588 H 0.16367 0.62022 0.79707 0.0
H1589 H 0.23176 0.62426 0.69355 0.0
H1590 H 0.23071 0.63075 0.79671 0.0
H1591 H 0.16408 0.61744 0.69587 0.0
H1592 H 0.23246 0.62536 0.73118 0.0
H1593 H 0.1643 0.61762 0.75986 0.0
C1594 C 0.17854 0.62209 0.78913 0.0
C1595 C 0.19712 0.62594 0.80003 0.0
C1596 C 0.2175 0.62353 0.7234 0.0
C1597 C 0.19803 0.62276 0.75722 0.0
C1598 C 0.21707 0.62298 0.70193 0.0
C1599 C 0.19784 0.62065 0.69148 0.0
C1600 C 0.19856 0.62179 0.73447 0.0
C1601 C 0.17933 0.6189 0.70318 0.0
C1602 C 0.17892 0.6205 0.76785 0.0
C1603 C 0.21603 0.62774 0.78892 0.0
N1604 N 0.18017 0.61953 0.72397 0.0
N1605 N 0.21599 0.62622 0.76809 0.0
H1606 H 0.80262 0.40071 0.1991 0.0
H1607 H 0.78903 0.33805 0.29853 0.0
H1608 H 0.79276 0.34282 0.19625 0.0
H1609 H 0.79702 0.39617 0.30087 0.0
H1610 H 0.78812 0.33967 0.26103 0.0
H1611 H 0.7983 0.39951 0.23633 0.0
C1612 C 0.79949 0.38774 0.20631 0.0
C1613 C 0.79821 0.37182 0.19455 0.0
C1614 C 0.7899 0.35209 0.26975 0.0
C1615 C 0.7932 0.37034 0.23722 0.0
C1616 C 0.79051 0.35116 0.29115 0.0
C1617 C 0.79318 0.36699 0.30287 0.0
C1618 C 0.79211 0.36896 0.25994 0.0
C1619 C 0.79472 0.38364 0.29249 0.0
C1620 C 0.79693 0.38707 0.22757 0.0
C1621 C 0.79375 0.35545 0.20469 0.0
N1622 N 0.79432 0.38417 0.27164 0.0
N1623 N 0.79158 0.3551 0.22546 0.0
H1624 H 0.72287 0.86188 0.30396 0.0
H1625 H 0.65641 0.87968 0.20127 0.0
H1626 H 0.65661 0.87555 0.30278 0.0
H1627 H 0.72202 0.86384 0.20089 0.0
H1628 H 0.65704 0.87986 0.23866 0.0
H1629 H 0.72377 0.86427 0.26643 0.0
C1630 C 0.70855 0.86548 0.29582 0.0
C1631 C 0.68958 0.86835 0.3065 0.0
C1632 C 0.67134 0.87638 0.23045 0.0
C1633 C 0.69048 0.87104 0.26364 0.0
C1634 C 0.67096 0.87618 0.20907 0.0
C1635 C 0.68913 0.87154 0.19792 0.0
C1636 C 0.69003 0.87187 0.24088 0.0
C1637 C 0.70767 0.86756 0.20887 0.0
C1638 C 0.70906 0.86677 0.27441 0.0
C1639 C 0.67148 0.87286 0.29517 0.0
N1640 N 0.70761 0.8677 0.22977 0.0
N1641 N 0.67238 0.87403 0.27439 0.0
H1642 H 0.2936 0.15616 0.80434 0.0
H1643 H 0.28791 0.10124 0.69834 0.0
H1644 H 0.29561 0.09772 0.80065 0.0
H1645 H 0.30104 0.15856 0.7025 0.0
H1646 H 0.28435 0.10009 0.73581 0.0
H1647 H 0.28987 0.15757 0.76701 0.0
C1648 C 0.29293 0.14361 0.7957 0.0
C1649 C 0.29504 0.1268 0.80559 0.0
C1650 C 0.28785 0.11294 0.72849 0.0
C1651 C 0.29099 0.12831 0.76286 0.0
C1652 C 0.28975 0.11362 0.70713 0.0
C1653 C 0.29493 0.12999 0.69737 0.0
C1654 C 0.29098 0.12878 0.74011 0.0
C1655 C 0.29732 0.14561 0.70948 0.0
C1656 C 0.29096 0.14443 0.77438 0.0
C1657 C 0.29432 0.11098 0.79359 0.0
N1658 N 0.29539 0.14461 0.73021 0.0
N1659 N 0.29243 0.11212 0.77284 0.0
H1660 H 0.73232 0.14159 0.80158 0.0
H1661 H 0.67713 0.10232 0.70122 0.0
H1662 H 0.6692 0.11973 0.80148 0.0
H1663 H 0.71993 0.14791 0.69807 0.0
H1664 H 0.67951 0.10316 0.73855 0.0
H1665 H 0.73322 0.1388 0.76386 0.0
C1666 C 0.71875 0.13613 0.79356 0.0
C1667 C 0.70061 0.13098 0.80442 0.0
C1668 C 0.68844 0.11291 0.72963 0.0
C1669 C 0.70166 0.12745 0.7618 0.0
C1670 C 0.68702 0.11254 0.7083 0.0
C1671 C 0.698 0.12532 0.69634 0.0
C1672 C 0.70124 0.12591 0.73919 0.0
C1673 C 0.71121 0.13775 0.70654 0.0
C1674 C 0.71924 0.13459 0.77216 0.0
C1675 C 0.68338 0.12397 0.79352 0.0
N1676 N 0.71242 0.13778 0.72741 0.0
N1677 N 0.68436 0.12231 0.77278 0.0
H1678 H 0.30763 0.83672 0.20051 0.0
H1679 H 0.29726 0.8979 0.30136 0.0
H1680 H 0.2951 0.89425 0.19878 0.0
H1681 H 0.30247 0.8395 0.30237 0.0
H1682 H 0.29535 0.8969 0.26389 0.0
H1683 H 0.30506 0.8375 0.23791 0.0
C1684 C 0.3043 0.84952 0.20803 0.0
C1685 C 0.30169 0.86547 0.19653 0.0
C1686 C 0.29679 0.8843 0.27232 0.0
C1687 C 0.29869 0.86648 0.23938 0.0
C1688 C 0.29777 0.88485 0.29374 0.0
C1689 C 0.30015 0.86876 0.30507 0.0
C1690 C 0.29829 0.86755 0.26213 0.0
C1691 C 0.30102 0.85227 0.29429 0.0
C1692 C 0.30274 0.84995 0.22937 0.0
C1693 C 0.29709 0.88162 0.20704 0.0
N1694 N 0.30019 0.85211 0.27346 0.0
N1695 N 0.29589 0.88175 0.22789 0.0
H1696 H 0.28457 0.23151 0.94444 0.0
H1697 H 0.22622 0.27016 0.04367 0.0
H1698 H 0.25855 0.19732 0.992 0.0
H1699 H 0.23473 0.30193 0.98867 0.0
H1700 H 0.24046 0.2437 0.02579 0.0
H1701 H 0.26833 0.25785 0.96093 0.0
C1702 C 0.27531 0.22947 0.95822 0.0
C1703 C 0.27307 0.2121 0.96688 0.0
C1704 C 0.23917 0.25643 0.01759 0.0
C1705 C 0.2548 0.2423 0.98602 0.0
C1706 C 0.23118 0.27155 0.02783 0.0
C1707 C 0.22941 0.28825 0.01764 0.0
C1708 C 0.24567 0.25804 0.99706 0.0
C1709 C 0.23576 0.28926 0.99702 0.0
C1710 C 0.26613 0.24455 0.96767 0.0
C1711 C 0.26113 0.21043 0.98497 0.0
N1712 N 0.24376 0.27438 0.98743 0.0
N1713 N 0.25257 0.22533 0.99398 0.0
H1714 H 0.76865 0.69754 0.4999 0.0
H1715 H 0.72271 0.79843 0.50857 0.0
H1716 H 0.77097 0.72951 0.55536 0.0
H1717 H 0.73027 0.77028 0.45094 0.0
H1718 H 0.73842 0.77253 0.52631 0.0
H1719 H 0.75259 0.72328 0.48201 0.0
C1720 C 0.76567 0.70995 0.50833 0.0
C1721 C 0.77114 0.7114 0.52915 0.0
C1722 C 0.73668 0.77201 0.50978 0.0
C1723 C 0.75289 0.74091 0.50877 0.0
C1724 C 0.7276 0.78675 0.49966 0.0
C1725 C 0.72517 0.7865 0.47825 0.0
C1726 C 0.74326 0.75682 0.49844 0.0
C1727 C 0.73205 0.77111 0.46745 0.0
C1728 C 0.75664 0.72467 0.49808 0.0
C1729 C 0.7672 0.72787 0.53926 0.0
N1730 N 0.74071 0.75685 0.47767 0.0
N1731 N 0.75826 0.74196 0.52899 0.0
H1732 H 0.25046 0.77915 0.0486 0.0
H1733 H 0.25767 0.71567 0.94904 0.0
H1734 H 0.29572 0.78694 -0.00019 0.0
H1735 H 0.21464 0.70594 0.99924 0.0
H1736 H 0.27181 0.74184 0.96749 0.0
H1737 H 0.23724 0.75219 0.03093 0.0
C1738 C 0.2577 0.77515 0.03423 0.0
C1739 C 0.27421 0.78538 0.02567 0.0
C1740 C 0.25932 0.73395 0.97452 0.0
C1741 C 0.259 0.7546 0.00525 0.0
C1742 C 0.25118 0.71906 0.96394 0.0
C1743 C 0.2349 0.70862 0.97258 0.0
C1744 C 0.2511 0.73854 0.99386 0.0
C1745 C 0.22733 0.71348 0.99208 0.0
C1746 C 0.25007 0.7598 0.0241 0.0
C1747 C 0.28275 0.77967 0.00684 0.0
N1748 N 0.23543 0.72813 0.00203 0.0
N1749 N 0.27505 0.76469 0.99728 0.0
H1750 H 0.70319 0.21513 0.50785 0.0
H1751 H 0.79947 0.28362 0.49495 0.0
H1752 H 0.75637 0.21539 0.54923 0.0
H1753 H 0.73756 0.29365 0.46949 0.0
H1754 H 0.78525 0.25738 0.51323 0.0
H1755 H 0.71703 0.24245 0.49134 0.0
C1756 C 0.71785 0.22092 0.51339 0.0
C1757 C 0.72872 0.21298 0.52986 0.0
C1758 C 0.7748 0.2654 0.50371 0.0
C1759 C 0.74462 0.24423 0.51109 0.0
C1760 C 0.78286 0.28047 0.49333 0.0
C1761 C 0.76974 0.29093 0.48054 0.0
C1762 C 0.75353 0.26059 0.50111 0.0
C1763 C 0.74842 0.28586 0.4788 0.0
C1764 C 0.72565 0.23657 0.50407 0.0
C1765 C 0.74748 0.22116 0.53663 0.0
N1766 N 0.74103 0.27101 0.48885 0.0
N1767 N 0.75494 0.23629 0.52711 0.0
H1768 H 0.71259 0.79313 0.99821 0.0
H1769 H 0.7904 0.70865 0.00306 0.0
H1770 H 0.75796 0.78552 0.04703 0.0
H1771 H 0.7645 0.72837 0.94588 0.0
H1772 H 0.7754 0.73485 0.02059 0.0
H1773 H 0.72846 0.76769 0.97981 0.0
C1774 C 0.72599 0.78628 0.00502 0.0
C1775 C 0.73389 0.79158 0.0243 0.0
C1776 C 0.77306 0.73344 0.00419 0.0
C1777 C 0.75173 0.76208 0.00344 0.0
C1778 C 0.78172 0.71852 0.9941 0.0
C1779 C 0.77891 0.71627 0.97284 0.0
C1780 C 0.7612 0.74616 0.99307 0.0
C1781 C 0.76691 0.72934 0.96228 0.0
C1782 C 0.73494 0.77167 0.99452 0.0
C1783 C 0.75101 0.7818 0.03245 0.0
N1784 N 0.75845 0.7437 0.97252 0.0
N1785 N 0.75926 0.76749 0.02204 0.0
H1786 H 0.24132 0.19845 0.52161 0.0
H1787 H 0.25175 0.30159 0.4866 0.0
H1788 H 0.2997 0.22859 0.52581 0.0
H1789 H 0.20412 0.26578 0.46212 0.0
H1790 H 0.26769 0.27579 0.50455 0.0
H1791 H 0.2257 0.22371 0.50262 0.0
C1792 C 0.25094 0.21026 0.51844 0.0
C1793 C 0.27189 0.21134 0.52547 0.0
C1794 C 0.25379 0.27358 0.4952 0.0
C1795 C 0.25386 0.24046 0.50413 0.0
C1796 C 0.24463 0.28829 0.48508 0.0
C1797 C 0.22663 0.28576 0.47288 0.0
C1798 C 0.24468 0.25628 0.49335 0.0
C1799 C 0.21811 0.26824 0.47126 0.0
C1800 C 0.24194 0.22472 0.50769 0.0
C1801 C 0.28338 0.22722 0.52115 0.0
N1802 N 0.22714 0.25416 0.48149 0.0
N1803 N 0.27418 0.24117 0.51089 0.0
H1804 H 0.78187 0.2694 0.05238 0.0
H1805 H 0.72085 0.23276 0.95362 0.0
H1806 H 0.75467 0.3046 0.00641 0.0
H1807 H 0.73286 0.19953 0.00688 0.0
H1808 H 0.73497 0.25901 0.972 0.0
H1809 H 0.76537 0.24342 0.03551 0.0
C1810 C 0.77227 0.27173 0.03888 0.0
C1811 C 0.76978 0.28928 0.03079 0.0
C1812 C 0.73445 0.246 0.97972 0.0
C1813 C 0.75118 0.25947 0.01117 0.0
C1814 C 0.72652 0.231 0.96919 0.0
C1815 C 0.72579 0.21395 0.97873 0.0
C1816 C 0.74192 0.24391 -0.00012 0.0
C1817 C 0.73305 0.21247 0.99902 0.0
C1818 C 0.76295 0.25685 0.02919 0.0
C1819 C 0.75743 0.29133 0.01301 0.0
N1820 N 0.74096 0.22724 0.00889 0.0
N1821 N 0.74871 0.27661 0.00375 0.0
H1822 H 0.2144 0.70805 0.4995 0.0
H1823 H 0.29501 0.78989 0.50175 0.0
H1824 H 0.24458 0.72445 0.55587 0.0
H1825 H 0.24047 0.78987 0.4618 0.0
H1826 H 0.28041 0.76367 0.51975 0.0
H1827 H 0.22793 0.73555 0.48283 0.0
C1828 C 0.22396 0.71745 0.5083 0.0
C1829 C 0.22846 0.71408 0.52902 0.0
C1830 C 0.27168 0.76951 0.50707 0.0
C1831 C 0.24406 0.74529 0.51011 0.0
C1832 C 0.2799 0.78458 0.49682 0.0
C1833 C 0.26905 0.79224 0.48007 0.0
C1834 C 0.2527 0.76178 0.5003 0.0
C1835 C 0.24975 0.7843 0.47423 0.0
C1836 C 0.23154 0.73313 0.49885 0.0
C1837 C 0.24075 0.72668 0.53986 0.0
N1838 N 0.24231 0.76943 0.4842 0.0
N1839 N 0.24833 0.7417 0.53021 0.0
H1840 H 0.16208 0.54286 0.98087 0.0
H1841 H 0.23174 0.46086 0.02476 0.0
H1842 H 0.22909 0.53838 0.9699 0.0
H1843 H 0.16405 0.46518 0.03103 0.0
H1844 H 0.23188 0.48972 0.00599 0.0
H1845 H 0.16333 0.51506 0.00094 0.0
C1846 C 0.17708 0.53595 0.9826 0.0
C1847 C 0.19546 0.54283 0.97345 0.0
C1848 C 0.21704 0.48435 0.01158 0.0
C1849 C 0.19707 0.51094 0.99671 0.0
C1850 C 0.21693 0.46785 0.02221 0.0
C1851 C 0.19786 0.4606 0.02961 0.0
C1852 C 0.19795 0.49362 0.0083 0.0
C1853 C 0.17918 0.47035 0.026 0.0
C1854 C 0.17781 0.5201 0.99417 0.0
C1855 C 0.21455 0.53355 0.9767 0.0
N1856 N 0.17972 0.48629 0.01562 0.0
N1857 N 0.21485 0.51799 0.98799 0.0
H1858 H 0.78641 0.53091 0.54359 0.0
H1859 H 0.8345 0.47098 0.45375 0.0
H1860 H 0.82842 0.55243 0.49734 0.0
H1861 H 0.77598 0.45677 0.48388 0.0
H1862 H 0.83433 0.49989 0.47174 0.0
H1863 H 0.78395 0.50268 0.52398 0.0
C1864 C 0.79497 0.52982 0.52926 0.0
C1865 C 0.80777 0.54413 0.52224 0.0
C1866 C 0.82146 0.49048 0.47432 0.0
C1867 C 0.80533 0.51166 0.49998 0.0
C1868 C 0.82144 0.47396 0.46392 0.0
C1869 C 0.80512 0.46132 0.46709 0.0
C1870 C 0.80525 0.49441 0.48829 0.0
C1871 C 0.78904 0.4659 0.48107 0.0
C1872 C 0.79362 0.51365 0.51813 0.0
C1873 C 0.81875 0.5417 0.50368 0.0
N1874 N 0.78956 0.48204 0.49123 0.0
N1875 N 0.81739 0.52577 0.49331 0.0
H1876 H 0.7821 0.4571 0.01619 0.0
H1877 H 0.84534 0.54844 0.99102 0.0
H1878 H 0.8469 0.46661 0.0336 0.0
H1879 H 0.78575 0.53493 0.96264 0.0
H1880 H 0.84464 0.51957 0.00919 0.0
H1881 H 0.7815 0.48677 0.99915 0.0
C1882 C 0.79615 0.46547 0.01652 0.0
C1883 C 0.81462 0.45935 0.02621 0.0
C1884 C 0.83171 0.5229 0.99898 0.0
C1885 C 0.81407 0.49321 0.00678 0.0
C1886 C 0.83215 0.53937 0.98848 0.0
C1887 C 0.81568 0.54411 0.97507 0.0
C1888 C 0.81461 0.51104 0.99623 0.0
C1889 C 0.79872 0.53194 0.97291 0.0
C1890 C 0.79584 0.48234 0.0067 0.0
C1891 C 0.83243 0.47068 0.02605 0.0
N1892 N 0.79864 0.51595 0.98334 0.0
N1893 N 0.8317 0.48705 0.01651 0.0
H1894 H 0.22164 0.45804 0.46729 0.0
H1895 H 0.15456 0.54134 0.51181 0.0
H1896 H 0.15354 0.46076 0.46652 0.0
H1897 H 0.22228 0.53738 0.51779 0.0
H1898 H 0.15425 0.51224 0.49404 0.0
H1899 H 0.22256 0.48732 0.485 0.0
C1900 C 0.20688 0.46474 0.47089 0.0
C1901 C 0.18748 0.45692 0.46531 0.0
C1902 C 0.1692 0.51771 0.4992 0.0
C1903 C 0.18844 0.49052 0.48541 0.0
C1904 C 0.16941 0.53441 0.50923 0.0
C1905 C 0.1885 0.54187 0.51618 0.0
C1906 C 0.18824 0.50834 0.49602 0.0
C1907 C 0.20719 0.53206 0.5128 0.0
C1908 C 0.20743 0.4815 0.48092 0.0
C1909 C 0.16888 0.46637 0.47016 0.0
N1910 N 0.2066 0.51581 0.50291 0.0
N1911 N 0.16983 0.48263 0.4799 0.0
H1912 H 0.73026 0.04248 0.97959 0.0
H1913 H 0.6609 0.95731 0.01547 0.0
H1914 H 0.66388 0.03564 0.96658 0.0
H1915 H 0.72567 0.9649 0.03426 0.0
H1916 H 0.66265 0.98552 0.99621 0.0
H1917 H 0.72979 0.01377 0.99866 0.0
C1918 C 0.7156 0.03498 0.98075 0.0
C1919 C 0.69712 0.04145 0.97131 0.0
C1920 C 0.67651 0.98109 0.00455 0.0
C1921 C 0.69651 0.0086 0.99295 0.0
C1922 C 0.67548 0.96499 0.01568 0.0
C1923 C 0.69309 0.95881 0.02673 0.0
C1924 C 0.69532 0.99118 0.00435 0.0
C1925 C 0.71174 0.96913 0.02591 0.0
C1926 C 0.71537 0.01857 0.99156 0.0
C1927 C 0.67863 0.03107 0.97319 0.0
N1928 N 0.71235 0.98486 0.01497 0.0
N1929 N 0.67882 0.01522 0.98376 0.0
H1930 H 0.2948 0.9483 0.50339 0.0
H1931 H 0.2858 0.05666 0.50005 0.0
H1932 H 0.29072 0.97897 0.44709 0.0
H1933 H 0.30379 0.02635 0.55395 0.0
H1934 H 0.28193 0.02808 0.48119 0.0
H1935 H 0.29242 0.97657 0.52284 0.0
C1936 C 0.29311 0.96096 0.49512 0.0
C1937 C 0.29304 0.96128 0.47357 0.0
C1938 C 0.2866 0.0277 0.49718 0.0
C1939 C 0.29054 0.99373 0.49576 0.0
C1940 C 0.28868 0.04398 0.50797 0.0
C1941 C 0.29527 0.04387 0.52855 0.0
C1942 C 0.29099 0.01119 0.50708 0.0
C1943 C 0.29897 0.02706 0.53802 0.0
C1944 C 0.29191 0.97711 0.50624 0.0
C1945 C 0.29111 0.97813 0.46368 0.0
N1946 N 0.29683 0.01141 0.52721 0.0
N1947 N 0.28999 0.99369 0.47485 0.0
H1948 H 0.29622 0.94761 0.0017 0.0
H1949 H 0.31599 0.05457 0.00916 0.0
H1950 H 0.31155 0.97534 0.05817 0.0
H1951 H 0.29579 0.02753 0.95377 0.0
H1952 H 0.31347 0.02578 0.02759 0.0
H1953 H 0.29462 0.97684 0.98418 0.0
C1954 C 0.29901 0.95985 0.0105 0.0
C1955 C 0.3041 0.95897 0.03147 0.0
C1956 C 0.30947 0.02615 0.01143 0.0
C1957 C 0.30263 0.99254 0.01135 0.0
C1958 C 0.31101 0.04256 0.00088 0.0
C1959 C 0.3062 0.04343 0.97987 0.0
C1960 C 0.3032 0.01042 0.00089 0.0
C1961 C 0.29949 0.02751 0.96999 0.0
C1962 C 0.29822 0.97655 0.00043 0.0
C1963 C 0.30791 0.97531 0.04193 0.0
N1964 N 0.29832 0.01163 0.98056 0.0
N1965 N 0.30718 0.99139 0.03175 0.0
H1966 H 0.65614 0.03471 0.53196 0.0
H1967 H 0.72523 0.95996 0.47325 0.0
H1968 H 0.72275 0.04136 0.52005 0.0
H1969 H 0.65727 0.95868 0.47796 0.0
H1970 H 0.72545 0.98859 0.49251 0.0
H1971 H 0.65706 0.00563 0.5143 0.0
C1972 C 0.67096 0.0301 0.52552 0.0
C1973 C 0.68935 0.04063 0.52729 0.0
C1974 C 0.71051 0.98203 0.48929 0.0
C1975 C 0.69058 0.00707 0.50721 0.0
C1976 C 0.71038 0.96568 0.47838 0.0
C1977 C 0.69119 0.95703 0.47385 0.0
C1978 C 0.69132 0.98964 0.49585 0.0
C1979 C 0.6724 0.96505 0.48078 0.0
C1980 C 0.6715 0.01342 0.51552 0.0
C1981 C 0.70822 0.03367 0.51912 0.0
N1982 N 0.67295 0.98087 0.49142 0.0
N1983 N 0.70834 0.01735 0.50936 0.0
loop_
_geom_bond_atom_site_label_1
_geom_bond_atom_site_label_2
_geom_bond_distance
_geom_bond_site_symmetry_2
_ccdc_geom_bond_type
Li0 N17 1.990 . S
Li0 O60 1.956 . S
Li0 O61 1.970 . S
Li0 O62 1.961 . S
Li1 N25 1.990 . S
Li1 O60 1.970 . S
Li1 O61 1.956 . S
Li1 O63 1.961 . S
Li2 N47 1.990 . S
Li2 O60 1.961 . S
Li2 O62 1.956 . S
Li2 O63 1.970 . S
Li3 N53 1.990 . S
Li3 O61 1.961 . S
Li3 O62 1.970 . S
Li3 O63 1.956 . S
C4 C6 1.348 . S
C4 C7 1.356 . S
C4 O60 1.325 . S
N5 C8 1.314 . S
N5 C9 1.279 . S
C6 C4 1.348 . S
C6 C8 1.353 . S
C6 H64 0.929 . S
C7 C4 1.356 . S
C7 C9 1.358 . S
C7 H65 0.930 . S
C8 N5 1.314 . S
C8 C6 1.353 . S
C8 H66 0.930 . S
C9 N5 1.279 . S
C9 C7 1.358 . S
C9 H67 0.930 . S
C10 C13 1.348 . S
C10 C14 1.356 . S
C10 O61 1.325 . S
C11 N12 1.279 . S
C11 C14 1.358 . S
C11 H68 0.930 . S
N12 C11 1.279 . S
N12 C15 1.314 . S
C13 C10 1.348 . S
C13 C15 1.353 . S
C13 H69 0.929 . S
C14 C10 1.356 . S
C14 C11 1.358 . S
C14 H70 0.930 . S
C15 N12 1.314 . S
C15 C13 1.353 . S
C15 H71 0.930 . S
C16 N17 1.314 . S
C16 C21 1.353 . S
C16 H22 0.930 . S
N17 Li0 1.990 . S
N17 C16 1.314 . S
N17 C19 1.279 . S
C18 C19 1.358 . S
C18 C20 1.356 . S
C18 H72 0.930 . S
C19 N17 1.279 . S
C19 C18 1.358 . S
C19 H23 0.930 . S
C20 C18 1.356 . S
C20 C21 1.348 . S
C21 C16 1.353 . S
C21 C20 1.348 . S
C21 H73 0.929 . S
H22 C16 0.930 . S
H23 C19 0.930 . S
C24 N25 1.314 . S
C24 C26 1.353 . S
C24 H30 0.930 . S
N25 Li1 1.990 . S
N25 C24 1.314 . S
N25 C28 1.279 . S
C26 C24 1.353 . S
C26 C29 1.348 . S
C26 H74 0.929 . S
C27 C28 1.358 . S
C27 C29 1.356 . S
C27 H75 0.930 . S
C28 N25 1.279 . S
C28 C27 1.358 . S
C28 H31 0.930 . S
C29 C26 1.348 . S
C29 C27 1.356 . S
H30 C24 0.930 . S
H31 C28 0.930 . S
C32 C34 1.348 . S
C32 C35 1.356 . S
C32 O62 1.325 . S
N33 C36 1.314 . S
N33 C37 1.279 . S
C34 C32 1.348 . S
C34 C36 1.353 . S
C34 H76 0.929 . S
C35 C32 1.356 . S
C35 C37 1.358 . S
C35 H77 0.930 . S
C36 N33 1.314 . S
C36 C34 1.353 . S
C36 H78 0.930 . S
C37 N33 1.279 . S
C37 C35 1.358 . S
C37 H79 0.930 . S
C38 C39 1.348 . S
C38 C40 1.356 . S
C38 O63 1.325 . S
C39 C38 1.348 . S
C39 C41 1.353 . S
C39 H80 0.929 . S
C40 C38 1.356 . S
C40 C42 1.358 . S
C40 H81 0.930 . S
C41 C39 1.353 . S
C41 N43 1.314 1_554 S
C41 H82 0.930 1_554 S
C42 C40 1.358 . S
C42 N43 1.279 1_554 S
C42 H83 0.930 1_554 S
N43 C41 1.314 1_556 S
N43 C42 1.279 1_556 S
C44 C46 1.353 . S
C44 N47 1.314 . S
C44 H50 0.930 . S
C45 N47 1.279 . S
C45 C48 1.358 . S
C45 H51 0.930 . S
C46 C44 1.353 . S
C46 C49 1.348 . S
C46 H84 0.929 . S
N47 Li2 1.990 . S
N47 C44 1.314 . S
N47 C45 1.279 . S
C48 C45 1.358 . S
C48 C49 1.356 . S
C48 H85 0.930 . S
C49 C46 1.348 . S
C49 C48 1.356 . S
H50 C44 0.930 . S
H51 C45 0.930 . S
C52 N53 1.314 . S
C52 C54 1.353 . S
C52 H58 0.930 . S
N53 Li3 1.990 . S
N53 C52 1.314 . S
N53 C56 1.279 . S
C54 C52 1.353 . S
C54 C57 1.348 . S
C54 H86 0.929 . S
C55 C56 1.358 . S
C55 C57 1.356 . S
C55 H87 0.930 . S
C56 N53 1.279 . S
C56 C55 1.358 . S
C56 H59 0.930 . S
C57 C54 1.348 . S
C57 C55 1.356 . S
H58 C52 0.930 . S
H59 C56 0.930 . S
O60 Li0 1.956 . S
O60 Li1 1.970 . S
O60 Li2 1.961 . S
O60 C4 1.325 . S
O61 Li0 1.970 . S
O61 Li1 1.956 . S
O61 Li3 1.961 . S
O61 C10 1.325 . S
O62 Li0 1.961 . S
O62 Li2 1.956 . S
O62 Li3 1.970 . S
O62 C32 1.325 . S
O63 Li1 1.961 . S
O63 Li2 1.970 . S
O63 Li3 1.956 . S
O63 C38 1.325 . S
H64 C6 0.929 . S
H65 C7 0.930 . S
H66 C8 0.930 . S
H67 C9 0.930 . S
H68 C11 0.930 . S
H69 C13 0.929 . S
H70 C14 0.930 . S
H71 C15 0.930 . S
H72 C18 0.930 . S
H73 C21 0.929 . S
H74 C26 0.929 . S
H75 C27 0.930 . S
H76 C34 0.929 . S
H77 C35 0.930 . S
H78 C36 0.930 . S
H79 C37 0.930 . S
H80 C39 0.929 . S
H81 C40 0.930 . S
H82 C41 0.930 1_556 S
H83 C42 0.930 1_556 S
H84 C46 0.929 . S
H85 C48 0.930 . S
H86 C54 0.929 . S
H87 C55 0.930 . S
Li88 N105 1.990 . S
Li88 O148 1.956 . S
Li88 O149 1.970 . S
Li88 O150 1.961 . S
Li89 N113 1.990 . S
Li89 O148 1.970 . S
Li89 O149 1.956 . S
Li89 O151 1.961 . S
Li90 N135 1.990 . S
Li90 O148 1.961 . S
Li90 O150 1.956 . S
Li90 O151 1.970 . S
Li91 N141 1.990 . S
Li91 O149 1.961 . S
Li91 O150 1.970 . S
Li91 O151 1.956 . S
C92 C94 1.348 . S
C92 C95 1.356 . S
C92 O148 1.325 . S
N93 C96 1.314 . S
N93 C97 1.279 . S
C94 C92 1.348 . S
C94 C96 1.353 . S
C94 H152 0.929 . S
C95 C92 1.356 . S
C95 C97 1.358 . S
C95 H153 0.930 . S
C96 N93 1.314 . S
C96 C94 1.353 . S
C96 H154 0.930 . S
C97 N93 1.279 . S
C97 C95 1.358 . S
C97 H155 0.930 . S
C98 C101 1.348 . S
C98 C102 1.356 . S
C98 O149 1.325 . S
C99 N100 1.279 . S
C99 C102 1.358 . S
C99 H156 0.930 . S
N100 C99 1.279 . S
N100 C103 1.314 . S
C101 C98 1.348 . S
C101 C103 1.353 . S
C101 H157 0.929 . S
C102 C98 1.356 . S
C102 C99 1.358 . S
C102 H158 0.930 . S
C103 N100 1.314 . S
C103 C101 1.353 . S
C103 H159 0.930 . S
C104 N105 1.314 . S
C104 C109 1.353 . S
C104 H110 0.930 . S
N105 Li88 1.990 . S
N105 C104 1.314 . S
N105 C107 1.279 . S
C106 C107 1.358 . S
C106 C108 1.356 . S
C106 H160 0.930 . S
C107 N105 1.279 . S
C107 C106 1.358 . S
C107 H111 0.930 . S
C108 C106 1.356 . S
C108 C109 1.348 . S
C109 C104 1.353 . S
C109 C108 1.348 . S
C109 H161 0.929 . S
H110 C104 0.930 . S
H111 C107 0.930 . S
C112 N113 1.314 . S
C112 C114 1.353 . S
C112 H118 0.930 . S
N113 Li89 1.990 . S
N113 C112 1.314 . S
N113 C116 1.279 . S
C114 C112 1.353 . S
C114 C117 1.348 . S
C114 H162 0.929 . S
C115 C116 1.358 . S
C115 C117 1.356 . S
C115 H163 0.930 . S
C116 N113 1.279 . S
C116 C115 1.358 . S
C116 H119 0.930 . S
C117 C114 1.348 . S
C117 C115 1.356 . S
H118 C112 0.930 . S
H119 C116 0.930 . S
C120 C122 1.348 . S
C120 C123 1.356 . S
C120 O150 1.325 . S
N121 C124 1.314 . S
N121 C125 1.279 . S
C122 C120 1.348 . S
C122 C124 1.353 . S
C122 H164 0.929 . S
C123 C120 1.356 . S
C123 C125 1.358 . S
C123 H165 0.930 . S
C124 N121 1.314 . S
C124 C122 1.353 . S
C124 H166 0.930 . S
C125 N121 1.279 . S
C125 C123 1.358 . S
C125 H167 0.930 . S
C126 C127 1.348 . S
C126 C128 1.356 . S
C126 O151 1.325 . S
C127 C126 1.348 . S
C127 C129 1.353 . S
C127 H168 0.929 . S
C128 C126 1.356 . S
C128 C130 1.358 . S
C128 H169 0.930 . S
C129 C127 1.353 . S
C129 N131 1.314 . S
C129 H170 0.930 . S
C130 C128 1.358 . S
C130 N131 1.279 . S
C130 H171 0.930 . S
N131 C129 1.314 . S
N131 C130 1.279 . S
C132 C134 1.353 . S
C132 N135 1.314 . S
C132 H138 0.930 . S
C133 N135 1.279 . S
C133 C136 1.358 . S
C133 H139 0.930 . S
C134 C132 1.353 . S
C134 C137 1.348 . S
C134 H172 0.929 . S
N135 Li90 1.990 . S
N135 C132 1.314 . S
N135 C133 1.279 . S
C136 C133 1.358 . S
C136 C137 1.356 . S
C136 H173 0.930 . S
C137 C134 1.348 . S
C137 C136 1.356 . S
H138 C132 0.930 . S
H139 C133 0.930 . S
C140 N141 1.314 . S
C140 C142 1.353 . S
C140 H146 0.930 . S
N141 Li91 1.990 . S
N141 C140 1.314 . S
N141 C144 1.279 . S
C142 C140 1.353 . S
C142 C145 1.348 . S
C142 H174 0.929 . S
C143 C144 1.358 . S
C143 C145 1.356 . S
C143 H175 0.930 . S
C144 N141 1.279 . S
C144 C143 1.358 . S
C144 H147 0.930 . S
C145 C142 1.348 . S
C145 C143 1.356 . S
H146 C140 0.930 . S
H147 C144 0.930 . S
O148 Li88 1.956 . S
O148 Li89 1.970 . S
O148 Li90 1.961 . S
O148 C92 1.325 . S
O149 Li88 1.970 . S
O149 Li89 1.956 . S
O149 Li91 1.961 . S
O149 C98 1.325 . S
O150 Li88 1.961 . S
O150 Li90 1.956 . S
O150 Li91 1.970 . S
O150 C120 1.325 . S
O151 Li89 1.961 . S
O151 Li90 1.970 . S
O151 Li91 1.956 . S
O151 C126 1.325 . S
H152 C94 0.929 . S
H153 C95 0.930 . S
H154 C96 0.930 . S
H155 C97 0.930 . S
H156 C99 0.930 . S
H157 C101 0.929 . S
H158 C102 0.930 . S
H159 C103 0.930 . S
H160 C106 0.930 . S
H161 C109 0.929 . S
H162 C114 0.929 . S
H163 C115 0.930 . S
H164 C122 0.929 . S
H165 C123 0.930 . S
H166 C124 0.930 . S
H167 C125 0.930 . S
H168 C127 0.929 . S
H169 C128 0.930 . S
H170 C129 0.930 . S
H171 C130 0.930 . S
H172 C134 0.929 . S
H173 C136 0.930 . S
H174 C142 0.929 . S
H175 C143 0.930 . S
Li176 N193 1.990 . S
Li176 O236 1.956 . S
Li176 O237 1.970 . S
Li176 O238 1.961 . S
Li177 N201 1.990 . S
Li177 O236 1.970 . S
Li177 O237 1.956 . S
Li177 O239 1.961 . S
Li178 N223 1.990 . S
Li178 O236 1.961 . S
Li178 O238 1.956 . S
Li178 O239 1.970 . S
Li179 N229 1.990 . S
Li179 O237 1.961 . S
Li179 O238 1.970 . S
Li179 O239 1.956 . S
C180 C182 1.348 . S
C180 C183 1.356 . S
C180 O236 1.325 . S
N181 C184 1.314 . S
N181 C185 1.279 . S
C182 C180 1.348 . S
C182 C184 1.353 . S
C182 H240 0.929 . S
C183 C180 1.356 . S
C183 C185 1.358 . S
C183 H241 0.930 . S
C184 N181 1.314 . S
C184 C182 1.353 . S
C184 H242 0.930 . S
C185 N181 1.279 . S
C185 C183 1.358 . S
C185 H243 0.930 . S
C186 C189 1.348 . S
C186 C190 1.356 . S
C186 O237 1.325 . S
C187 N188 1.279 1_556 S
C187 C190 1.358 . S
C187 H244 0.930 1_556 S
N188 C187 1.279 1_554 S
N188 C191 1.314 1_554 S
C189 C186 1.348 . S
C189 C191 1.353 . S
C189 H245 0.929 . S
C190 C186 1.356 . S
C190 C187 1.358 . S
C190 H246 0.930 . S
C191 N188 1.314 1_556 S
C191 C189 1.353 . S
C191 H247 0.930 1_556 S
C192 N193 1.314 . S
C192 C197 1.353 . S
C192 H198 0.930 . S
N193 Li176 1.990 . S
N193 C192 1.314 . S
N193 C195 1.279 . S
C194 C195 1.358 . S
C194 C196 1.356 . S
C194 H248 0.930 . S
C195 N193 1.279 . S
C195 C194 1.358 . S
C195 H199 0.930 . S
C196 C194 1.356 . S
C196 C197 1.348 . S
C197 C192 1.353 . S
C197 C196 1.348 . S
C197 H249 0.929 . S
H198 C192 0.930 . S
H199 C195 0.930 . S
C200 N201 1.314 . S
C200 C202 1.353 . S
C200 H206 0.930 . S
N201 Li177 1.990 . S
N201 C200 1.314 . S
N201 C204 1.279 . S
C202 C200 1.353 . S
C202 C205 1.348 . S
C202 H250 0.929 . S
C203 C204 1.358 . S
C203 C205 1.356 . S
C203 H251 0.930 . S
C204 N201 1.279 . S
C204 C203 1.358 . S
C204 H207 0.930 . S
C205 C202 1.348 . S
C205 C203 1.356 . S
H206 C200 0.930 . S
H207 C204 0.930 . S
C208 C210 1.348 . S
C208 C211 1.356 . S
C208 O238 1.325 . S
N209 C212 1.314 . S
N209 C213 1.279 . S
C210 C208 1.348 . S
C210 C212 1.353 . S
C210 H252 0.929 . S
C211 C208 1.356 . S
C211 C213 1.358 . S
C211 H253 0.930 . S
C212 N209 1.314 . S
C212 C210 1.353 . S
C212 H254 0.930 . S
C213 N209 1.279 . S
C213 C211 1.358 . S
C213 H255 0.930 . S
C214 C215 1.348 . S
C214 C216 1.356 . S
C214 O239 1.325 . S
C215 C214 1.348 . S
C215 C217 1.353 . S
C215 H256 0.929 . S
C216 C214 1.356 . S
C216 C218 1.358 . S
C216 H257 0.930 . S
C217 C215 1.353 . S
C217 N219 1.314 . S
C217 H258 0.930 . S
C218 C216 1.358 . S
C218 N219 1.279 . S
C218 H259 0.930 . S
N219 C217 1.314 . S
N219 C218 1.279 . S
C220 C222 1.353 . S
C220 N223 1.314 . S
C220 H226 0.930 . S
C221 N223 1.279 . S
C221 C224 1.358 . S
C221 H227 0.930 . S
C222 C220 1.353 . S
C222 C225 1.348 . S
C222 H260 0.929 . S
N223 Li178 1.990 . S
N223 C220 1.314 . S
N223 C221 1.279 . S
C224 C221 1.358 . S
C224 C225 1.356 . S
C224 H261 0.930 . S
C225 C222 1.348 . S
C225 C224 1.356 . S
H226 C220 0.930 . S
H227 C221 0.930 . S
C228 N229 1.314 . S
C228 C230 1.353 . S
C228 H234 0.930 . S
N229 Li179 1.990 . S
N229 C228 1.314 . S
N229 C232 1.279 . S
C230 C228 1.353 . S
C230 C233 1.348 . S
C230 H262 0.929 . S
C231 C232 1.358 . S
C231 C233 1.356 . S
C231 H263 0.930 . S
C232 N229 1.279 . S
C232 C231 1.358 . S
C232 H235 0.930 . S
C233 C230 1.348 . S
C233 C231 1.356 . S
H234 C228 0.930 . S
H235 C232 0.930 . S
O236 Li176 1.956 . S
O236 Li177 1.970 . S
O236 Li178 1.961 . S
O236 C180 1.325 . S
O237 Li176 1.970 . S
O237 Li177 1.956 . S
O237 Li179 1.961 . S
O237 C186 1.325 . S
O238 Li176 1.961 . S
O238 Li178 1.956 . S
O238 Li179 1.970 . S
O238 C208 1.325 . S
O239 Li177 1.961 . S
O239 Li178 1.970 . S
O239 Li179 1.956 . S
O239 C214 1.325 . S
H240 C182 0.929 . S
H241 C183 0.930 . S
H242 C184 0.930 . S
H243 C185 0.930 . S
H244 C187 0.930 1_554 S
H245 C189 0.929 . S
H246 C190 0.930 . S
H247 C191 0.930 1_554 S
H248 C194 0.930 . S
H249 C197 0.929 . S
H250 C202 0.929 . S
H251 C203 0.930 . S
H252 C210 0.929 . S
H253 C211 0.930 . S
H254 C212 0.930 . S
H255 C213 0.930 . S
H256 C215 0.929 . S
H257 C216 0.930 . S
H258 C217 0.930 . S
H259 C218 0.930 . S
H260 C222 0.929 . S
H261 C224 0.930 . S
H262 C230 0.929 . S
H263 C231 0.930 . S
Li264 N281 1.990 . S
Li264 O324 1.956 . S
Li264 O325 1.970 . S
Li264 O326 1.961 . S
Li265 N289 1.990 . S
Li265 O324 1.970 . S
Li265 O325 1.956 . S
Li265 O327 1.961 . S
Li266 N311 1.990 . S
Li266 O324 1.961 . S
Li266 O326 1.956 . S
Li266 O327 1.970 . S
Li267 N317 1.990 . S
Li267 O325 1.961 . S
Li267 O326 1.970 . S
Li267 O327 1.956 . S
C268 C270 1.348 . S
C268 C271 1.356 . S
C268 O324 1.325 . S
N269 C272 1.314 . S
N269 C273 1.279 . S
C270 C268 1.348 . S
C270 C272 1.353 . S
C270 H328 0.929 . S
C271 C268 1.356 . S
C271 C273 1.358 . S
C271 H329 0.930 . S
C272 N269 1.314 . S
C272 C270 1.353 . S
C272 H330 0.930 . S
C273 N269 1.279 . S
C273 C271 1.358 . S
C273 H331 0.930 . S
C274 C277 1.348 . S
C274 C278 1.356 . S
C274 O325 1.325 . S
C275 N276 1.279 . S
C275 C278 1.358 . S
C275 H332 0.930 . S
N276 C275 1.279 . S
N276 C279 1.314 . S
C277 C274 1.348 . S
C277 C279 1.353 . S
C277 H333 0.929 . S
C278 C274 1.356 . S
C278 C275 1.358 . S
C278 H334 0.930 . S
C279 N276 1.314 . S
C279 C277 1.353 . S
C279 H335 0.930 . S
C280 N281 1.314 . S
C280 C285 1.353 . S
C280 H286 0.930 . S
N281 Li264 1.990 . S
N281 C280 1.314 . S
N281 C283 1.279 . S
C282 C283 1.358 . S
C282 C284 1.356 . S
C282 H336 0.930 . S
C283 N281 1.279 . S
C283 C282 1.358 . S
C283 H287 0.930 . S
C284 C282 1.356 . S
C284 C285 1.348 . S
C285 C280 1.353 . S
C285 C284 1.348 . S
C285 H337 0.929 . S
H286 C280 0.930 . S
H287 C283 0.930 . S
C288 N289 1.314 . S
C288 C290 1.353 . S
C288 H294 0.930 . S
N289 Li265 1.990 . S
N289 C288 1.314 . S
N289 C292 1.279 . S
C290 C288 1.353 . S
C290 C293 1.348 . S
C290 H338 0.929 . S
C291 C292 1.358 . S
C291 C293 1.356 . S
C291 H339 0.930 . S
C292 N289 1.279 . S
C292 C291 1.358 . S
C292 H295 0.930 . S
C293 C290 1.348 . S
C293 C291 1.356 . S
H294 C288 0.930 . S
H295 C292 0.930 . S
C296 C298 1.348 . S
C296 C299 1.356 . S
C296 O326 1.325 . S
N297 C300 1.314 . S
N297 C301 1.279 . S
C298 C296 1.348 . S
C298 C300 1.353 . S
C298 H340 0.929 . S
C299 C296 1.356 . S
C299 C301 1.358 . S
C299 H341 0.930 . S
C300 N297 1.314 . S
C300 C298 1.353 . S
C300 H342 0.930 . S
C301 N297 1.279 . S
C301 C299 1.358 . S
C301 H343 0.930 . S
C302 C303 1.348 . S
C302 C304 1.356 . S
C302 O327 1.325 . S
C303 C302 1.348 . S
C303 C305 1.353 . S
C303 H344 0.929 . S
C304 C302 1.356 . S
C304 C306 1.358 . S
C304 H345 0.930 . S
C305 C303 1.353 . S
C305 N307 1.314 . S
C305 H346 0.930 . S
C306 C304 1.358 . S
C306 N307 1.279 . S
C306 H347 0.930 . S
N307 C305 1.314 . S
N307 C306 1.279 . S
C308 C310 1.353 . S
C308 N311 1.314 . S
C308 H314 0.930 . S
C309 N311 1.279 . S
C309 C312 1.358 . S
C309 H315 0.930 . S
C310 C308 1.353 . S
C310 C313 1.348 . S
C310 H348 0.929 . S
N311 Li266 1.990 . S
N311 C308 1.314 . S
N311 C309 1.279 . S
C312 C309 1.358 . S
C312 C313 1.356 . S
C312 H349 0.930 . S
C313 C310 1.348 . S
C313 C312 1.356 . S
H314 C308 0.930 . S
H315 C309 0.930 . S
C316 N317 1.314 . S
C316 C318 1.353 . S
C316 H322 0.930 . S
N317 Li267 1.990 . S
N317 C316 1.314 . S
N317 C320 1.279 . S
C318 C316 1.353 . S
C318 C321 1.348 . S
C318 H350 0.929 . S
C319 C320 1.358 . S
C319 C321 1.356 . S
C319 H351 0.930 . S
C320 N317 1.279 . S
C320 C319 1.358 . S
C320 H323 0.930 . S
C321 C318 1.348 . S
C321 C319 1.356 . S
H322 C316 0.930 . S
H323 C320 0.930 . S
O324 Li264 1.956 . S
O324 Li265 1.970 . S
O324 Li266 1.961 . S
O324 C268 1.325 . S
O325 Li264 1.970 . S
O325 Li265 1.956 . S
O325 Li267 1.961 . S
O325 C274 1.325 . S
O326 Li264 1.961 . S
O326 Li266 1.956 . S
O326 Li267 1.970 . S
O326 C296 1.325 . S
O327 Li265 1.961 . S
O327 Li266 1.970 . S
O327 Li267 1.956 . S
O327 C302 1.325 . S
H328 C270 0.929 . S
H329 C271 0.930 . S
H330 C272 0.930 . S
H331 C273 0.930 . S
H332 C275 0.930 . S
H333 C277 0.929 . S
H334 C278 0.930 . S
H335 C279 0.930 . S
H336 C282 0.930 . S
H337 C285 0.929 . S
H338 C290 0.929 . S
H339 C291 0.930 . S
H340 C298 0.929 . S
H341 C299 0.930 . S
H342 C300 0.930 . S
H343 C301 0.930 . S
H344 C303 0.929 . S
H345 C304 0.930 . S
H346 C305 0.930 . S
H347 C306 0.930 . S
H348 C310 0.929 . S
H349 C312 0.930 . S
H350 C318 0.929 . S
H351 C319 0.930 . S
Li352 N369 1.990 . S
Li352 O412 1.956 . S
Li352 O413 1.970 . S
Li352 O414 1.961 . S
Li353 N377 1.990 . S
Li353 O412 1.970 . S
Li353 O413 1.956 . S
Li353 O415 1.961 . S
Li354 N399 1.990 . S
Li354 O412 1.961 . S
Li354 O414 1.956 . S
Li354 O415 1.970 . S
Li355 N405 1.990 . S
Li355 O413 1.961 . S
Li355 O414 1.970 . S
Li355 O415 1.956 . S
C356 C358 1.348 . S
C356 C359 1.356 . S
C356 O412 1.325 . S
N357 C360 1.324 . S
N357 C361 1.279 1_554 S
C358 C356 1.348 . S
C358 C360 1.329 1_556 S
C358 H416 0.929 . S
C359 C356 1.356 . S
C359 C361 1.358 . S
C359 H417 0.930 . S
C360 N357 1.324 . S
C360 C358 1.329 1_554 S
C360 H418 0.946 . S
C361 N357 1.279 1_556 S
C361 C359 1.358 . S
C361 H419 0.930 . S
C362 C365 1.348 . S
C362 C366 1.356 . S
C362 O413 1.325 . S
C363 N364 1.279 . S
C363 C366 1.358 . S
C363 H420 0.930 . S
N364 C363 1.279 . S
N364 C367 1.314 . S
C365 C362 1.348 . S
C365 C367 1.353 . S
C365 H421 0.929 . S
C366 C362 1.356 . S
C366 C363 1.358 . S
C366 H422 0.930 . S
C367 N364 1.314 . S
C367 C365 1.353 . S
C367 H423 0.930 . S
C368 N369 1.314 . S
C368 C373 1.353 . S
C368 H374 0.930 . S
N369 Li352 1.990 . S
N369 C368 1.314 . S
N369 C371 1.279 . S
C370 C371 1.358 . S
C370 C372 1.356 . S
C370 H424 0.930 . S
C371 N369 1.279 . S
C371 C370 1.358 . S
C371 H375 0.930 . S
C372 C370 1.356 . S
C372 C373 1.348 . S
C373 C368 1.353 . S
C373 C372 1.348 . S
C373 H425 0.929 . S
H374 C368 0.930 . S
H375 C371 0.930 . S
C376 N377 1.314 . S
C376 C378 1.353 . S
C376 H382 0.930 . S
N377 Li353 1.990 . S
N377 C376 1.314 . S
N377 C380 1.279 . S
C378 C376 1.353 . S
C378 C381 1.348 . S
C378 H426 0.929 . S
C379 C380 1.358 . S
C379 C381 1.356 . S
C379 H427 0.930 . S
C380 N377 1.279 . S
C380 C379 1.358 . S
C380 H383 0.930 . S
C381 C378 1.348 . S
C381 C379 1.356 . S
H382 C376 0.930 . S
H383 C380 0.930 . S
C384 C386 1.348 . S
C384 C387 1.356 . S
C384 O414 1.325 . S
N385 C388 1.314 . S
N385 C389 1.279 . S
C386 C384 1.348 . S
C386 C388 1.353 . S
C386 H428 0.929 . S
C387 C384 1.356 . S
C387 C389 1.358 . S
C387 H429 0.930 . S
C388 N385 1.314 . S
C388 C386 1.353 . S
C388 H430 0.930 . S
C389 N385 1.279 . S
C389 C387 1.358 . S
C389 H431 0.930 . S
C390 C391 1.348 . S
C390 C392 1.356 . S
C390 O415 1.325 . S
C391 C390 1.348 . S
C391 C393 1.353 . S
C391 H432 0.929 . S
C392 C390 1.356 . S
C392 C394 1.358 . S
C392 H433 0.930 . S
C393 C391 1.353 . S
C393 N395 1.314 . S
C393 H434 0.930 . S
C394 C392 1.358 . S
C394 N395 1.279 . S
C394 H435 0.930 . S
N395 C393 1.314 . S
N395 C394 1.279 . S
C396 C398 1.353 . S
C396 N399 1.314 . S
C396 H402 0.930 . S
C397 N399 1.279 . S
C397 C400 1.358 . S
C397 H403 0.930 . S
C398 C396 1.353 . S
C398 C401 1.348 . S
C398 H436 0.929 . S
N399 Li354 1.990 . S
N399 C396 1.314 . S
N399 C397 1.279 . S
C400 C397 1.358 . S
C400 C401 1.356 . S
C400 H437 0.930 . S
C401 C398 1.348 . S
C401 C400 1.356 . S
H402 C396 0.930 . S
H403 C397 0.930 . S
C404 N405 1.314 . S
C404 C406 1.353 . S
C404 H410 0.930 . S
N405 Li355 1.990 . S
N405 C404 1.314 . S
N405 C408 1.279 . S
C406 C404 1.353 . S
C406 C409 1.348 . S
C406 H438 0.929 . S
C407 C408 1.358 . S
C407 C409 1.356 . S
C407 H439 0.930 . S
C408 N405 1.279 . S
C408 C407 1.358 . S
C408 H411 0.930 . S
C409 C406 1.348 . S
C409 C407 1.356 . S
H410 C404 0.930 . S
H411 C408 0.930 . S
O412 Li352 1.956 . S
O412 Li353 1.970 . S
O412 Li354 1.961 . S
O412 C356 1.325 . S
O413 Li352 1.970 . S
O413 Li353 1.956 . S
O413 Li355 1.961 . S
O413 C362 1.325 . S
O414 Li352 1.961 . S
O414 Li354 1.956 . S
O414 Li355 1.970 . S
O414 C384 1.325 . S
O415 Li353 1.961 . S
O415 Li354 1.970 . S
O415 Li355 1.956 . S
O415 C390 1.325 . S
H416 C358 0.929 . S
H417 C359 0.930 . S
H418 C360 0.946 . S
H419 C361 0.930 . S
H420 C363 0.930 . S
H421 C365 0.929 . S
H422 C366 0.930 . S
H423 C367 0.930 . S
H424 C370 0.930 . S
H425 C373 0.929 . S
H426 C378 0.929 . S
H427 C379 0.930 . S
H428 C386 0.929 . S
H429 C387 0.930 . S
H430 C388 0.930 . S
H431 C389 0.930 . S
H432 C391 0.929 . S
H433 C392 0.930 . S
H434 C393 0.930 . S
H435 C394 0.930 . S
H436 C398 0.929 . S
H437 C400 0.930 . S
H438 C406 0.929 . S
H439 C407 0.930 . S
Li440 N457 1.990 . S
Li440 O500 1.956 . S
Li440 O501 1.970 . S
Li440 O502 1.961 . S
Li441 N465 1.990 . S
Li441 O500 1.970 . S
Li441 O501 1.956 . S
Li441 O503 1.961 . S
Li442 N487 1.990 . S
Li442 O500 1.961 . S
Li442 O502 1.956 . S
Li442 O503 1.970 . S
Li443 N493 1.990 . S
Li443 O501 1.961 . S
Li443 O502 1.970 . S
Li443 O503 1.956 . S
C444 C446 1.348 . S
C444 C447 1.356 . S
C444 O500 1.325 . S
N445 C448 1.314 . S
N445 C449 1.279 . S
C446 C444 1.348 . S
C446 C448 1.353 . S
C446 H504 0.929 . S
C447 C444 1.356 . S
C447 C449 1.358 . S
C447 H505 0.930 . S
C448 N445 1.314 . S
C448 C446 1.353 . S
C448 H506 0.930 . S
C449 N445 1.279 . S
C449 C447 1.358 . S
C449 H507 0.930 . S
C450 C453 1.348 . S
C450 C454 1.356 . S
C450 O501 1.325 . S
C451 N452 1.279 . S
C451 C454 1.358 . S
C451 H508 0.930 . S
N452 C451 1.279 . S
N452 C455 1.314 . S
C453 C450 1.348 . S
C453 C455 1.353 . S
C453 H509 0.929 . S
C454 C450 1.356 . S
C454 C451 1.358 . S
C454 H510 0.930 . S
C455 N452 1.314 . S
C455 C453 1.353 . S
C455 H511 0.930 . S
C456 N457 1.314 . S
C456 C461 1.353 . S
C456 H462 0.930 . S
N457 Li440 1.990 . S
N457 C456 1.314 . S
N457 C459 1.279 . S
C458 C459 1.358 . S
C458 C460 1.356 . S
C458 H512 0.930 . S
C459 N457 1.279 . S
C459 C458 1.358 . S
C459 H463 0.930 . S
C460 C458 1.356 . S
C460 C461 1.348 . S
C461 C456 1.353 . S
C461 C460 1.348 . S
C461 H513 0.929 . S
H462 C456 0.930 . S
H463 C459 0.930 . S
C464 N465 1.314 . S
C464 C466 1.353 . S
C464 H470 0.930 . S
N465 Li441 1.990 . S
N465 C464 1.314 . S
N465 C468 1.279 . S
C466 C464 1.353 . S
C466 C469 1.348 . S
C466 H514 0.929 . S
C467 C468 1.358 . S
C467 C469 1.356 . S
C467 H515 0.930 . S
C468 N465 1.279 . S
C468 C467 1.358 . S
C468 H471 0.930 . S
C469 C466 1.348 . S
C469 C467 1.356 . S
H470 C464 0.930 . S
H471 C468 0.930 . S
C472 C474 1.348 . S
C472 C475 1.356 . S
C472 O502 1.325 . S
N473 C476 1.314 . S
N473 C477 1.279 . S
C474 C472 1.348 . S
C474 C476 1.353 . S
C474 H516 0.929 . S
C475 C472 1.356 . S
C475 C477 1.358 . S
C475 H517 0.930 . S
C476 N473 1.314 . S
C476 C474 1.353 . S
C476 H518 0.930 . S
C477 N473 1.279 . S
C477 C475 1.358 . S
C477 H519 0.930 . S
C478 C479 1.348 . S
C478 C480 1.356 . S
C478 O503 1.325 . S
C479 C478 1.348 . S
C479 C481 1.353 . S
C479 H520 0.929 . S
C480 C478 1.356 . S
C480 C482 1.358 . S
C480 H521 0.930 . S
C481 C479 1.353 . S
C481 N483 1.314 . S
C481 H522 0.930 . S
C482 C480 1.358 . S
C482 N483 1.279 . S
C482 H523 0.930 . S
N483 C481 1.314 . S
N483 C482 1.279 . S
C484 C486 1.353 . S
C484 N487 1.314 . S
C484 H490 0.930 . S
C485 N487 1.279 . S
C485 C488 1.358 . S
C485 H491 0.930 . S
C486 C484 1.353 . S
C486 C489 1.348 . S
C486 H524 0.929 . S
N487 Li442 1.990 . S
N487 C484 1.314 . S
N487 C485 1.279 . S
C488 C485 1.358 . S
C488 C489 1.356 . S
C488 H525 0.930 . S
C489 C486 1.348 . S
C489 C488 1.356 . S
H490 C484 0.930 . S
H491 C485 0.930 . S
C492 N493 1.314 . S
C492 C494 1.353 . S
C492 H498 0.930 . S
N493 Li443 1.990 . S
N493 C492 1.314 . S
N493 C496 1.279 . S
C494 C492 1.353 . S
C494 C497 1.348 . S
C494 H526 0.929 . S
C495 C496 1.358 . S
C495 C497 1.356 . S
C495 H527 0.930 . S
C496 N493 1.279 . S
C496 C495 1.358 . S
C496 H499 0.930 . S
C497 C494 1.348 . S
C497 C495 1.356 . S
H498 C492 0.930 . S
H499 C496 0.930 . S
O500 Li440 1.956 . S
O500 Li441 1.970 . S
O500 Li442 1.961 . S
O500 C444 1.325 . S
O501 Li440 1.970 . S
O501 Li441 1.956 . S
O501 Li443 1.961 . S
O501 C450 1.325 . S
O502 Li440 1.961 . S
O502 Li442 1.956 . S
O502 Li443 1.970 . S
O502 C472 1.325 . S
O503 Li441 1.961 . S
O503 Li442 1.970 . S
O503 Li443 1.956 . S
O503 C478 1.325 . S
H504 C446 0.929 . S
H505 C447 0.930 . S
H506 C448 0.930 . S
H507 C449 0.930 . S
H508 C451 0.930 . S
H509 C453 0.929 . S
H510 C454 0.930 . S
H511 C455 0.930 . S
H512 C458 0.930 . S
H513 C461 0.929 . S
H514 C466 0.929 . S
H515 C467 0.930 . S
H516 C474 0.929 . S
H517 C475 0.930 . S
H518 C476 0.930 . S
H519 C477 0.930 . S
H520 C479 0.929 . S
H521 C480 0.930 . S
H522 C481 0.930 . S
H523 C482 0.930 . S
H524 C486 0.929 . S
H525 C488 0.930 . S
H526 C494 0.929 . S
H527 C495 0.930 . S
Li528 N545 1.990 . S
Li528 O588 1.956 . S
Li528 O589 1.970 . S
Li528 O590 1.961 . S
Li529 N553 1.990 . S
Li529 O588 1.970 . S
Li529 O589 1.956 . S
Li529 O591 1.961 . S
Li530 N575 1.990 . S
Li530 O588 1.961 . S
Li530 O590 1.956 . S
Li530 O591 1.970 . S
Li531 N581 1.990 . S
Li531 O589 1.961 . S
Li531 O590 1.970 . S
Li531 O591 1.956 . S
C532 C534 1.348 . S
C532 C535 1.356 . S
C532 O588 1.325 . S
N533 C536 1.314 . S
N533 C537 1.279 . S
C534 C532 1.348 . S
C534 C536 1.353 . S
C534 H592 0.929 . S
C535 C532 1.356 . S
C535 C537 1.358 . S
C535 H593 0.930 . S
C536 N533 1.314 . S
C536 C534 1.353 . S
C536 H594 0.930 . S
C537 N533 1.279 . S
C537 C535 1.358 . S
C537 H595 0.930 . S
C538 C541 1.348 . S
C538 C542 1.356 . S
C538 O589 1.325 . S
C539 N540 1.279 . S
C539 C542 1.358 . S
C539 H596 0.930 . S
N540 C539 1.279 . S
N540 C543 1.314 . S
C541 C538 1.348 . S
C541 C543 1.353 . S
C541 H597 0.929 . S
C542 C538 1.356 . S
C542 C539 1.358 . S
C542 H598 0.930 . S
C543 N540 1.314 . S
C543 C541 1.353 . S
C543 H599 0.930 . S
C544 N545 1.314 . S
C544 C549 1.353 . S
C544 H550 0.930 . S
N545 Li528 1.990 . S
N545 C544 1.314 . S
N545 C547 1.279 . S
C546 C547 1.358 . S
C546 C548 1.356 . S
C546 H600 0.930 . S
C547 N545 1.279 . S
C547 C546 1.358 . S
C547 H551 0.930 . S
C548 C546 1.356 . S
C548 C549 1.348 . S
C549 C544 1.353 . S
C549 C548 1.348 . S
C549 H601 0.929 . S
H550 C544 0.930 . S
H551 C547 0.930 . S
C552 N553 1.314 . S
C552 C554 1.353 . S
C552 H558 0.930 . S
N553 Li529 1.990 . S
N553 C552 1.314 . S
N553 C556 1.279 . S
C554 C552 1.353 . S
C554 C557 1.348 . S
C554 H602 0.929 . S
C555 C556 1.358 . S
C555 C557 1.356 . S
C555 H603 0.930 . S
C556 N553 1.279 . S
C556 C555 1.358 . S
C556 H559 0.930 . S
C557 C554 1.348 . S
C557 C555 1.356 . S
H558 C552 0.930 . S
H559 C556 0.930 . S
C560 C562 1.348 . S
C560 C563 1.356 . S
C560 O590 1.325 . S
N561 C564 1.314 . S
N561 C565 1.279 . S
C562 C560 1.348 . S
C562 C564 1.353 . S
C562 H604 0.929 . S
C563 C560 1.356 . S
C563 C565 1.358 . S
C563 H605 0.930 . S
C564 N561 1.314 . S
C564 C562 1.353 . S
C564 H606 0.930 . S
C565 N561 1.279 . S
C565 C563 1.358 . S
C565 H607 0.930 . S
C566 C567 1.348 . S
C566 C568 1.356 . S
C566 O591 1.325 . S
C567 C566 1.348 . S
C567 C569 1.329 1_554 S
C567 H608 0.929 . S
C568 C566 1.356 . S
C568 C570 1.358 . S
C568 H609 0.930 . S
C569 C567 1.329 1_556 S
C569 N571 1.324 . S
C569 H610 0.946 . S
C570 C568 1.358 . S
C570 N571 1.279 1_554 S
C570 H611 0.930 . S
N571 C569 1.324 . S
N571 C570 1.279 1_556 S
C572 C574 1.353 . S
C572 N575 1.314 . S
C572 H578 0.930 . S
C573 N575 1.279 . S
C573 C576 1.358 . S
C573 H579 0.930 . S
C574 C572 1.353 . S
C574 C577 1.348 . S
C574 H612 0.929 . S
N575 Li530 1.990 . S
N575 C572 1.314 . S
N575 C573 1.279 . S
C576 C573 1.358 . S
C576 C577 1.356 . S
C576 H613 0.930 . S
C577 C574 1.348 . S
C577 C576 1.356 . S
H578 C572 0.930 . S
H579 C573 0.930 . S
C580 N581 1.314 . S
C580 C582 1.353 . S
C580 H586 0.930 . S
N581 Li531 1.990 . S
N581 C580 1.314 . S
N581 C584 1.279 . S
C582 C580 1.353 . S
C582 C585 1.348 . S
C582 H614 0.929 . S
C583 C584 1.358 . S
C583 C585 1.356 . S
C583 H615 0.930 . S
C584 N581 1.279 . S
C584 C583 1.358 . S
C584 H587 0.930 . S
C585 C582 1.348 . S
C585 C583 1.356 . S
H586 C580 0.930 . S
H587 C584 0.930 . S
O588 Li528 1.956 . S
O588 Li529 1.970 . S
O588 Li530 1.961 . S
O588 C532 1.325 . S
O589 Li528 1.970 . S
O589 Li529 1.956 . S
O589 Li531 1.961 . S
O589 C538 1.325 . S
O590 Li528 1.961 . S
O590 Li530 1.956 . S
O590 Li531 1.970 . S
O590 C560 1.325 . S
O591 Li529 1.961 . S
O591 Li530 1.970 . S
O591 Li531 1.956 . S
O591 C566 1.325 . S
H592 C534 0.929 . S
H593 C535 0.930 . S
H594 C536 0.930 . S
H595 C537 0.930 . S
H596 C539 0.930 . S
H597 C541 0.929 . S
H598 C542 0.930 . S
H599 C543 0.930 . S
H600 C546 0.930 . S
H601 C549 0.929 . S
H602 C554 0.929 . S
H603 C555 0.930 . S
H604 C562 0.929 . S
H605 C563 0.930 . S
H606 C564 0.930 . S
H607 C565 0.930 . S
H608 C567 0.929 . S
H609 C568 0.930 . S
H610 C569 0.946 . S
H611 C570 0.930 . S
H612 C574 0.929 . S
H613 C576 0.930 . S
H614 C582 0.929 . S
H615 C583 0.930 . S
Li616 N633 1.990 . S
Li616 O676 1.956 . S
Li616 O677 1.970 . S
Li616 O678 1.961 . S
Li617 N641 1.990 . S
Li617 O676 1.970 . S
Li617 O677 1.956 . S
Li617 O679 1.961 . S
Li618 N663 1.990 . S
Li618 O676 1.961 . S
Li618 O678 1.956 . S
Li618 O679 1.970 . S
Li619 N669 1.990 . S
Li619 O677 1.961 . S
Li619 O678 1.970 . S
Li619 O679 1.956 . S
C620 C622 1.348 . S
C620 C623 1.356 . S
C620 O676 1.325 . S
N621 C624 1.314 . S
N621 C625 1.279 . S
C622 C620 1.348 . S
C622 C624 1.353 . S
C622 H680 0.929 . S
C623 C620 1.356 . S
C623 C625 1.358 . S
C623 H681 0.930 . S
C624 N621 1.314 . S
C624 C622 1.353 . S
C624 H682 0.930 . S
C625 N621 1.279 . S
C625 C623 1.358 . S
C625 H683 0.930 . S
C626 C629 1.348 . S
C626 C630 1.356 . S
C626 O677 1.325 . S
C627 N628 1.279 . S
C627 C630 1.358 . S
C627 H684 0.930 . S
N628 C627 1.279 . S
N628 C631 1.314 . S
C629 C626 1.348 . S
C629 C631 1.353 . S
C629 H685 0.929 . S
C630 C626 1.356 . S
C630 C627 1.358 . S
C630 H686 0.930 . S
C631 N628 1.314 . S
C631 C629 1.353 . S
C631 H687 0.930 . S
C632 N633 1.314 . S
C632 C637 1.353 . S
C632 H638 0.930 . S
N633 Li616 1.990 . S
N633 C632 1.314 . S
N633 C635 1.279 . S
C634 C635 1.358 . S
C634 C636 1.356 . S
C634 H688 0.930 . S
C635 N633 1.279 . S
C635 C634 1.358 . S
C635 H639 0.930 . S
C636 C634 1.356 . S
C636 C637 1.348 . S
C637 C632 1.353 . S
C637 C636 1.348 . S
C637 H689 0.929 . S
H638 C632 0.930 . S
H639 C635 0.930 . S
C640 N641 1.314 . S
C640 C642 1.353 . S
C640 H646 0.930 . S
N641 Li617 1.990 . S
N641 C640 1.314 . S
N641 C644 1.279 . S
C642 C640 1.353 . S
C642 C645 1.348 . S
C642 H690 0.929 . S
C643 C644 1.358 . S
C643 C645 1.356 . S
C643 H691 0.930 . S
C644 N641 1.279 . S
C644 C643 1.358 . S
C644 H647 0.930 . S
C645 C642 1.348 . S
C645 C643 1.356 . S
H646 C640 0.930 . S
H647 C644 0.930 . S
C648 C650 1.348 . S
C648 C651 1.356 . S
C648 O678 1.325 . S
N649 C652 1.314 . S
N649 C653 1.279 . S
C650 C648 1.348 . S
C650 C652 1.353 . S
C650 H692 0.929 . S
C651 C648 1.356 . S
C651 C653 1.358 . S
C651 H693 0.930 . S
C652 N649 1.314 . S
C652 C650 1.353 . S
C652 H694 0.930 . S
C653 N649 1.279 . S
C653 C651 1.358 . S
C653 H695 0.930 . S
C654 C655 1.348 . S
C654 C656 1.356 . S
C654 O679 1.325 . S
C655 C654 1.348 . S
C655 C657 1.353 . S
C655 H696 0.929 . S
C656 C654 1.356 . S
C656 C658 1.358 . S
C656 H697 0.930 . S
C657 C655 1.353 . S
C657 N659 1.314 . S
C657 H698 0.930 . S
C658 C656 1.358 . S
C658 N659 1.279 . S
C658 H699 0.930 . S
N659 C657 1.314 . S
N659 C658 1.279 . S
C660 C662 1.353 . S
C660 N663 1.314 . S
C660 H666 0.930 . S
C661 N663 1.279 . S
C661 C664 1.358 . S
C661 H667 0.930 . S
C662 C660 1.353 . S
C662 C665 1.348 . S
C662 H700 0.929 . S
N663 Li618 1.990 . S
N663 C660 1.314 . S
N663 C661 1.279 . S
C664 C661 1.358 . S
C664 C665 1.356 . S
C664 H701 0.930 . S
C665 C662 1.348 . S
C665 C664 1.356 . S
H666 C660 0.930 . S
H667 C661 0.930 . S
C668 N669 1.314 . S
C668 C670 1.353 . S
C668 H674 0.930 . S
N669 Li619 1.990 . S
N669 C668 1.314 . S
N669 C672 1.279 . S
C670 C668 1.353 . S
C670 C673 1.348 . S
C670 H702 0.929 . S
C671 C672 1.358 . S
C671 C673 1.356 . S
C671 H703 0.930 . S
C672 N669 1.279 . S
C672 C671 1.358 . S
C672 H675 0.930 . S
C673 C670 1.348 . S
C673 C671 1.356 . S
H674 C668 0.930 . S
H675 C672 0.930 . S
O676 Li616 1.956 . S
O676 Li617 1.970 . S
O676 Li618 1.961 . S
O676 C620 1.325 . S
O677 Li616 1.970 . S
O677 Li617 1.956 . S
O677 Li619 1.961 . S
O677 C626 1.325 . S
O678 Li616 1.961 . S
O678 Li618 1.956 . S
O678 Li619 1.970 . S
O678 C648 1.325 . S
O679 Li617 1.961 . S
O679 Li618 1.970 . S
O679 Li619 1.956 . S
O679 C654 1.325 . S
H680 C622 0.929 . S
H681 C623 0.930 . S
H682 C624 0.930 . S
H683 C625 0.930 . S
H684 C627 0.930 . S
H685 C629 0.929 . S
H686 C630 0.930 . S
H687 C631 0.930 . S
H688 C634 0.930 . S
H689 C637 0.929 . S
H690 C642 0.929 . S
H691 C643 0.930 . S
H692 C650 0.929 . S
H693 C651 0.930 . S
H694 C652 0.930 . S
H695 C653 0.930 . S
H696 C655 0.929 . S
H697 C656 0.930 . S
H698 C657 0.930 . S
H699 C658 0.930 . S
H700 C662 0.929 . S
H701 C664 0.930 . S
H702 C670 0.929 . S
H703 C671 0.930 . S
Li704 N721 1.990 . S
Li704 O764 1.956 . S
Li704 O765 1.970 . S
Li704 O766 1.961 . S
Li705 N729 1.990 . S
Li705 O764 1.970 . S
Li705 O765 1.956 . S
Li705 O767 1.961 . S
Li706 N751 1.990 . S
Li706 O764 1.961 . S
Li706 O766 1.956 . S
Li706 O767 1.970 . S
Li707 N757 1.990 . S
Li707 O765 1.961 . S
Li707 O766 1.970 . S
Li707 O767 1.956 . S
C708 C710 1.348 . S
C708 C711 1.356 . S
C708 O764 1.325 . S
N709 C712 1.314 . S
N709 C713 1.279 . S
C710 C708 1.348 . S
C710 C712 1.353 . S
C710 H768 0.929 . S
C711 C708 1.356 . S
C711 C713 1.358 . S
C711 H769 0.930 . S
C712 N709 1.314 . S
C712 C710 1.353 . S
C712 H770 0.930 . S
C713 N709 1.279 . S
C713 C711 1.358 . S
C713 H771 0.930 . S
C714 C717 1.348 . S
C714 C718 1.356 . S
C714 O765 1.325 . S
C715 N716 1.279 . S
C715 C718 1.358 . S
C715 H772 0.930 . S
N716 C715 1.279 . S
N716 C719 1.314 . S
C717 C714 1.348 . S
C717 C719 1.353 . S
C717 H773 0.929 . S
C718 C714 1.356 . S
C718 C715 1.358 . S
C718 H774 0.930 . S
C719 N716 1.314 . S
C719 C717 1.353 . S
C719 H775 0.930 . S
C720 N721 1.314 . S
C720 C725 1.353 . S
C720 H726 0.930 . S
N721 Li704 1.990 . S
N721 C720 1.314 . S
N721 C723 1.279 . S
C722 C723 1.358 . S
C722 C724 1.356 . S
C722 H776 0.930 . S
C723 N721 1.279 . S
C723 C722 1.358 . S
C723 H727 0.930 . S
C724 C722 1.356 . S
C724 C725 1.348 . S
C725 C720 1.353 . S
C725 C724 1.348 . S
C725 H777 0.929 . S
H726 C720 0.930 . S
H727 C723 0.930 . S
C728 N729 1.314 . S
C728 C730 1.353 . S
C728 H734 0.930 . S
N729 Li705 1.990 . S
N729 C728 1.314 . S
N729 C732 1.279 . S
C730 C728 1.353 . S
C730 C733 1.348 . S
C730 H778 0.929 . S
C731 C732 1.358 . S
C731 C733 1.356 . S
C731 H779 0.930 . S
C732 N729 1.279 . S
C732 C731 1.358 . S
C732 H735 0.930 . S
C733 C730 1.348 . S
C733 C731 1.356 . S
H734 C728 0.930 . S
H735 C732 0.930 . S
C736 C738 1.348 . S
C736 C739 1.356 . S
C736 O766 1.325 . S
N737 C740 1.314 . S
N737 C741 1.279 . S
C738 C736 1.348 . S
C738 C740 1.353 . S
C738 H780 0.929 . S
C739 C736 1.356 . S
C739 C741 1.358 . S
C739 H781 0.930 . S
C740 N737 1.314 . S
C740 C738 1.353 . S
C740 H782 0.930 . S
C741 N737 1.279 . S
C741 C739 1.358 . S
C741 H783 0.930 . S
C742 C743 1.348 . S
C742 C744 1.356 . S
C742 O767 1.325 . S
C743 C742 1.348 . S
C743 C745 1.353 . S
C743 H784 0.929 . S
C744 C742 1.356 . S
C744 C746 1.358 . S
C744 H785 0.930 . S
C745 C743 1.353 . S
C745 N747 1.314 1_554 S
C745 H786 0.930 1_554 S
C746 C744 1.358 . S
C746 N747 1.279 1_554 S
C746 H787 0.930 1_554 S
N747 C745 1.314 1_556 S
N747 C746 1.279 1_556 S
C748 C750 1.353 . S
C748 N751 1.314 . S
C748 H754 0.930 . S
C749 N751 1.279 . S
C749 C752 1.358 . S
C749 H755 0.930 . S
C750 C748 1.353 . S
C750 C753 1.348 . S
C750 H788 0.929 . S
N751 Li706 1.990 . S
N751 C748 1.314 . S
N751 C749 1.279 . S
C752 C749 1.358 . S
C752 C753 1.356 . S
C752 H789 0.930 . S
C753 C750 1.348 . S
C753 C752 1.356 . S
H754 C748 0.930 . S
H755 C749 0.930 . S
C756 N757 1.314 . S
C756 C758 1.353 . S
C756 H762 0.930 . S
N757 Li707 1.990 . S
N757 C756 1.314 . S
N757 C760 1.279 . S
C758 C756 1.353 . S
C758 C761 1.348 . S
C758 H790 0.929 . S
C759 C760 1.358 . S
C759 C761 1.356 . S
C759 H791 0.930 . S
C760 N757 1.279 . S
C760 C759 1.358 . S
C760 H763 0.930 . S
C761 C758 1.348 . S
C761 C759 1.356 . S
H762 C756 0.930 . S
H763 C760 0.930 . S
O764 Li704 1.956 . S
O764 Li705 1.970 . S
O764 Li706 1.961 . S
O764 C708 1.325 . S
O765 Li704 1.970 . S
O765 Li705 1.956 . S
O765 Li707 1.961 . S
O765 C714 1.325 . S
O766 Li704 1.961 . S
O766 Li706 1.956 . S
O766 Li707 1.970 . S
O766 C736 1.325 . S
O767 Li705 1.961 . S
O767 Li706 1.970 . S
O767 Li707 1.956 . S
O767 C742 1.325 . S
H768 C710 0.929 . S
H769 C711 0.930 . S
H770 C712 0.930 . S
H771 C713 0.930 . S
H772 C715 0.930 . S
H773 C717 0.929 . S
H774 C718 0.930 . S
H775 C719 0.930 . S
H776 C722 0.930 . S
H777 C725 0.929 . S
H778 C730 0.929 . S
H779 C731 0.930 . S
H780 C738 0.929 . S
H781 C739 0.930 . S
H782 C740 0.930 . S
H783 C741 0.930 . S
H784 C743 0.929 . S
H785 C744 0.930 . S
H786 C745 0.930 1_556 S
H787 C746 0.930 1_556 S
H788 C750 0.929 . S
H789 C752 0.930 . S
H790 C758 0.929 . S
H791 C759 0.930 . S
Li792 N809 1.990 . S
Li792 O852 1.956 . S
Li792 O853 1.970 . S
Li792 O854 1.961 . S
Li793 N817 1.990 . S
Li793 O852 1.970 . S
Li793 O853 1.956 . S
Li793 O855 1.961 . S
Li794 N839 1.990 . S
Li794 O852 1.961 . S
Li794 O854 1.956 . S
Li794 O855 1.970 . S
Li795 N845 1.990 . S
Li795 O853 1.961 . S
Li795 O854 1.970 . S
Li795 O855 1.956 . S
C796 C798 1.348 . S
C796 C799 1.356 . S
C796 O852 1.325 . S
N797 C800 1.314 . S
N797 C801 1.279 . S
C798 C796 1.348 . S
C798 C800 1.353 . S
C798 H856 0.929 . S
C799 C796 1.356 . S
C799 C801 1.358 . S
C799 H857 0.930 . S
C800 N797 1.314 . S
C800 C798 1.353 . S
C800 H858 0.930 . S
C801 N797 1.279 . S
C801 C799 1.358 . S
C801 H859 0.930 . S
C802 C805 1.348 . S
C802 C806 1.356 . S
C802 O853 1.325 . S
C803 N804 1.279 . S
C803 C806 1.358 . S
C803 H860 0.930 . S
N804 C803 1.279 . S
N804 C807 1.314 . S
C805 C802 1.348 . S
C805 C807 1.353 . S
C805 H861 0.929 . S
C806 C802 1.356 . S
C806 C803 1.358 . S
C806 H862 0.930 . S
C807 N804 1.314 . S
C807 C805 1.353 . S
C807 H863 0.930 . S
C808 N809 1.314 . S
C808 C813 1.353 . S
C808 H814 0.930 . S
N809 Li792 1.990 . S
N809 C808 1.314 . S
N809 C811 1.279 . S
C810 C811 1.358 . S
C810 C812 1.356 . S
C810 H864 0.930 . S
C811 N809 1.279 . S
C811 C810 1.358 . S
C811 H815 0.930 . S
C812 C810 1.356 . S
C812 C813 1.348 . S
C813 C808 1.353 . S
C813 C812 1.348 . S
C813 H865 0.929 . S
H814 C808 0.930 . S
H815 C811 0.930 . S
C816 N817 1.314 . S
C816 C818 1.353 . S
C816 H822 0.930 . S
N817 Li793 1.990 . S
N817 C816 1.314 . S
N817 C820 1.279 . S
C818 C816 1.353 . S
C818 C821 1.348 . S
C818 H866 0.929 . S
C819 C820 1.358 . S
C819 C821 1.356 . S
C819 H867 0.930 . S
C820 N817 1.279 . S
C820 C819 1.358 . S
C820 H823 0.930 . S
C821 C818 1.348 . S
C821 C819 1.356 . S
H822 C816 0.930 . S
H823 C820 0.930 . S
C824 C826 1.348 . S
C824 C827 1.356 . S
C824 O854 1.325 . S
N825 C828 1.314 . S
N825 C829 1.279 . S
C826 C824 1.348 . S
C826 C828 1.353 . S
C826 H868 0.929 . S
C827 C824 1.356 . S
C827 C829 1.358 . S
C827 H869 0.930 . S
C828 N825 1.314 . S
C828 C826 1.353 . S
C828 H870 0.930 . S
C829 N825 1.279 . S
C829 C827 1.358 . S
C829 H871 0.930 . S
C830 C831 1.348 . S
C830 C832 1.356 . S
C830 O855 1.325 . S
C831 C830 1.348 . S
C831 C833 1.353 . S
C831 H872 0.929 . S
C832 C830 1.356 . S
C832 C834 1.358 . S
C832 H873 0.930 . S
C833 C831 1.353 . S
C833 N835 1.314 . S
C833 H874 0.930 . S
C834 C832 1.358 . S
C834 N835 1.279 . S
C834 H875 0.930 . S
N835 C833 1.314 . S
N835 C834 1.279 . S
C836 C838 1.353 . S
C836 N839 1.314 . S
C836 H842 0.930 . S
C837 N839 1.279 . S
C837 C840 1.358 . S
C837 H843 0.930 . S
C838 C836 1.353 . S
C838 C841 1.348 . S
C838 H876 0.929 . S
N839 Li794 1.990 . S
N839 C836 1.314 . S
N839 C837 1.279 . S
C840 C837 1.358 . S
C840 C841 1.356 . S
C840 H877 0.930 . S
C841 C838 1.348 . S
C841 C840 1.356 . S
H842 C836 0.930 . S
H843 C837 0.930 . S
C844 N845 1.314 . S
C844 C846 1.353 . S
C844 H850 0.930 . S
N845 Li795 1.990 . S
N845 C844 1.314 . S
N845 C848 1.279 . S
C846 C844 1.353 . S
C846 C849 1.348 . S
C846 H878 0.929 . S
C847 C848 1.358 . S
C847 C849 1.356 . S
C847 H879 0.930 . S
C848 N845 1.279 . S
C848 C847 1.358 . S
C848 H851 0.930 . S
C849 C846 1.348 . S
C849 C847 1.356 . S
H850 C844 0.930 . S
H851 C848 0.930 . S
O852 Li792 1.956 . S
O852 Li793 1.970 . S
O852 Li794 1.961 . S
O852 C796 1.325 . S
O853 Li792 1.970 . S
O853 Li793 1.956 . S
O853 Li795 1.961 . S
O853 C802 1.325 . S
O854 Li792 1.961 . S
O854 Li794 1.956 . S
O854 Li795 1.970 . S
O854 C824 1.325 . S
O855 Li793 1.961 . S
O855 Li794 1.970 . S
O855 Li795 1.956 . S
O855 C830 1.325 . S
H856 C798 0.929 . S
H857 C799 0.930 . S
H858 C800 0.930 . S
H859 C801 0.930 . S
H860 C803 0.930 . S
H861 C805 0.929 . S
H862 C806 0.930 . S
H863 C807 0.930 . S
H864 C810 0.930 . S
H865 C813 0.929 . S
H866 C818 0.929 . S
H867 C819 0.930 . S
H868 C826 0.929 . S
H869 C827 0.930 . S
H870 C828 0.930 . S
H871 C829 0.930 . S
H872 C831 0.929 . S
H873 C832 0.930 . S
H874 C833 0.930 . S
H875 C834 0.930 . S
H876 C838 0.929 . S
H877 C840 0.930 . S
H878 C846 0.929 . S
H879 C847 0.930 . S
Li880 N897 1.990 . S
Li880 O940 1.956 . S
Li880 O941 1.970 . S
Li880 O942 1.961 . S
Li881 N905 1.990 . S
Li881 O940 1.970 . S
Li881 O941 1.956 . S
Li881 O943 1.961 . S
Li882 N927 1.990 . S
Li882 O940 1.961 . S
Li882 O942 1.956 . S
Li882 O943 1.970 . S
Li883 N933 1.990 . S
Li883 O941 1.961 . S
Li883 O942 1.970 . S
Li883 O943 1.956 . S
C884 C886 1.348 . S
C884 C887 1.356 . S
C884 O940 1.325 . S
N885 C888 1.314 . S
N885 C889 1.279 . S
C886 C884 1.348 . S
C886 C888 1.353 . S
C886 H944 0.929 . S
C887 C884 1.356 . S
C887 C889 1.358 . S
C887 H945 0.930 . S
C888 N885 1.314 . S
C888 C886 1.353 . S
C888 H946 0.930 . S
C889 N885 1.279 . S
C889 C887 1.358 . S
C889 H947 0.930 . S
C890 C893 1.348 . S
C890 C894 1.356 . S
C890 O941 1.325 . S
C891 N892 1.279 1_556 S
C891 C894 1.358 . S
C891 H948 0.930 1_556 S
N892 C891 1.279 1_554 S
N892 C895 1.314 1_554 S
C893 C890 1.348 . S
C893 C895 1.353 . S
C893 H949 0.929 . S
C894 C890 1.356 . S
C894 C891 1.358 . S
C894 H950 0.930 . S
C895 N892 1.314 1_556 S
C895 C893 1.353 . S
C895 H951 0.930 1_556 S
C896 N897 1.314 . S
C896 C901 1.353 . S
C896 H902 0.930 . S
N897 Li880 1.990 . S
N897 C896 1.314 . S
N897 C899 1.279 . S
C898 C899 1.358 . S
C898 C900 1.356 . S
C898 H952 0.930 . S
C899 N897 1.279 . S
C899 C898 1.358 . S
C899 H903 0.930 . S
C900 C898 1.356 . S
C900 C901 1.348 . S
C901 C896 1.353 . S
C901 C900 1.348 . S
C901 H953 0.929 . S
H902 C896 0.930 . S
H903 C899 0.930 . S
C904 N905 1.314 . S
C904 C906 1.353 . S
C904 H910 0.930 . S
N905 Li881 1.990 . S
N905 C904 1.314 . S
N905 C908 1.279 . S
C906 C904 1.353 . S
C906 C909 1.348 . S
C906 H954 0.929 . S
C907 C908 1.358 . S
C907 C909 1.356 . S
C907 H955 0.930 . S
C908 N905 1.279 . S
C908 C907 1.358 . S
C908 H911 0.930 . S
C909 C906 1.348 . S
C909 C907 1.356 . S
H910 C904 0.930 . S
H911 C908 0.930 . S
C912 C914 1.348 . S
C912 C915 1.356 . S
C912 O942 1.325 . S
N913 C916 1.314 . S
N913 C917 1.279 . S
C914 C912 1.348 . S
C914 C916 1.353 . S
C914 H956 0.929 . S
C915 C912 1.356 . S
C915 C917 1.358 . S
C915 H957 0.930 . S
C916 N913 1.314 . S
C916 C914 1.353 . S
C916 H958 0.930 . S
C917 N913 1.279 . S
C917 C915 1.358 . S
C917 H959 0.930 . S
C918 C919 1.348 . S
C918 C920 1.356 . S
C918 O943 1.325 . S
C919 C918 1.348 . S
C919 C921 1.353 . S
C919 H960 0.929 . S
C920 C918 1.356 . S
C920 C922 1.358 . S
C920 H961 0.930 . S
C921 C919 1.353 . S
C921 N923 1.314 . S
C921 H962 0.930 . S
C922 C920 1.358 . S
C922 N923 1.279 . S
C922 H963 0.930 . S
N923 C921 1.314 . S
N923 C922 1.279 . S
C924 C926 1.353 . S
C924 N927 1.314 . S
C924 H930 0.930 . S
C925 N927 1.279 . S
C925 C928 1.358 . S
C925 H931 0.930 . S
C926 C924 1.353 . S
C926 C929 1.348 . S
C926 H964 0.929 . S
N927 Li882 1.990 . S
N927 C924 1.314 . S
N927 C925 1.279 . S
C928 C925 1.358 . S
C928 C929 1.356 . S
C928 H965 0.930 . S
C929 C926 1.348 . S
C929 C928 1.356 . S
H930 C924 0.930 . S
H931 C925 0.930 . S
C932 N933 1.314 . S
C932 C934 1.353 . S
C932 H938 0.930 . S
N933 Li883 1.990 . S
N933 C932 1.314 . S
N933 C936 1.279 . S
C934 C932 1.353 . S
C934 C937 1.348 . S
C934 H966 0.929 . S
C935 C936 1.358 . S
C935 C937 1.356 . S
C935 H967 0.930 . S
C936 N933 1.279 . S
C936 C935 1.358 . S
C936 H939 0.930 . S
C937 C934 1.348 . S
C937 C935 1.356 . S
H938 C932 0.930 . S
H939 C936 0.930 . S
O940 Li880 1.956 . S
O940 Li881 1.970 . S
O940 Li882 1.961 . S
O940 C884 1.325 . S
O941 Li880 1.970 . S
O941 Li881 1.956 . S
O941 Li883 1.961 . S
O941 C890 1.325 . S
O942 Li880 1.961 . S
O942 Li882 1.956 . S
O942 Li883 1.970 . S
O942 C912 1.325 . S
O943 Li881 1.961 . S
O943 Li882 1.970 . S
O943 Li883 1.956 . S
O943 C918 1.325 . S
H944 C886 0.929 . S
H945 C887 0.930 . S
H946 C888 0.930 . S
H947 C889 0.930 . S
H948 C891 0.930 1_554 S
H949 C893 0.929 . S
H950 C894 0.930 . S
H951 C895 0.930 1_554 S
H952 C898 0.930 . S
H953 C901 0.929 . S
H954 C906 0.929 . S
H955 C907 0.930 . S
H956 C914 0.929 . S
H957 C915 0.930 . S
H958 C916 0.930 . S
H959 C917 0.930 . S
H960 C919 0.929 . S
H961 C920 0.930 . S
H962 C921 0.930 . S
H963 C922 0.930 . S
H964 C926 0.929 . S
H965 C928 0.930 . S
H966 C934 0.929 . S
H967 C935 0.930 . S
Li968 N985 1.990 . S
Li968 O1028 1.956 . S
Li968 O1029 1.970 . S
Li968 O1030 1.961 . S
Li969 N993 1.990 . S
Li969 O1028 1.970 . S
Li969 O1029 1.956 . S
Li969 O1031 1.961 . S
Li970 N1015 1.990 . S
Li970 O1028 1.961 . S
Li970 O1030 1.956 . S
Li970 O1031 1.970 . S
Li971 N1021 1.990 . S
Li971 O1029 1.961 . S
Li971 O1030 1.970 . S
Li971 O1031 1.956 . S
C972 C974 1.348 . S
C972 C975 1.356 . S
C972 O1028 1.325 . S
N973 C976 1.314 . S
N973 C977 1.279 . S
C974 C972 1.348 . S
C974 C976 1.353 . S
C974 H1032 0.929 . S
C975 C972 1.356 . S
C975 C977 1.358 . S
C975 H1033 0.930 . S
C976 N973 1.314 . S
C976 C974 1.353 . S
C976 H1034 0.930 . S
C977 N973 1.279 . S
C977 C975 1.358 . S
C977 H1035 0.930 . S
C978 C981 1.348 . S
C978 C982 1.356 . S
C978 O1029 1.325 . S
C979 N980 1.279 . S
C979 C982 1.358 . S
C979 H1036 0.930 . S
N980 C979 1.279 . S
N980 C983 1.314 . S
C981 C978 1.348 . S
C981 C983 1.353 . S
C981 H1037 0.929 . S
C982 C978 1.356 . S
C982 C979 1.358 . S
C982 H1038 0.930 . S
C983 N980 1.314 . S
C983 C981 1.353 . S
C983 H1039 0.930 . S
C984 N985 1.314 . S
C984 C989 1.353 . S
C984 H990 0.930 . S
N985 Li968 1.990 . S
N985 C984 1.314 . S
N985 C987 1.279 . S
C986 C987 1.358 . S
C986 C988 1.356 . S
C986 H1040 0.930 . S
C987 N985 1.279 . S
C987 C986 1.358 . S
C987 H991 0.930 . S
C988 C986 1.356 . S
C988 C989 1.348 . S
C989 C984 1.353 . S
C989 C988 1.348 . S
C989 H1041 0.929 . S
H990 C984 0.930 . S
H991 C987 0.930 . S
C992 N993 1.314 . S
C992 C994 1.353 . S
C992 H998 0.930 . S
N993 Li969 1.990 . S
N993 C992 1.314 . S
N993 C996 1.279 . S
C994 C992 1.353 . S
C994 C997 1.348 . S
C994 H1042 0.929 . S
C995 C996 1.358 . S
C995 C997 1.356 . S
C995 H1043 0.930 . S
C996 N993 1.279 . S
C996 C995 1.358 . S
C996 H999 0.930 . S
C997 C994 1.348 . S
C997 C995 1.356 . S
H998 C992 0.930 . S
H999 C996 0.930 . S
C1000 C1002 1.348 . S
C1000 C1003 1.356 . S
C1000 O1030 1.325 . S
N1001 C1004 1.314 . S
N1001 C1005 1.279 . S
C1002 C1000 1.348 . S
C1002 C1004 1.353 . S
C1002 H1044 0.929 . S
C1003 C1000 1.356 . S
C1003 C1005 1.358 . S
C1003 H1045 0.930 . S
C1004 N1001 1.314 . S
C1004 C1002 1.353 . S
C1004 H1046 0.930 . S
C1005 N1001 1.279 . S
C1005 C1003 1.358 . S
C1005 H1047 0.930 . S
C1006 C1007 1.348 . S
C1006 C1008 1.356 . S
C1006 O1031 1.325 . S
C1007 C1006 1.348 . S
C1007 C1009 1.353 . S
C1007 H1048 0.929 . S
C1008 C1006 1.356 . S
C1008 C1010 1.358 . S
C1008 H1049 0.930 . S
C1009 C1007 1.353 . S
C1009 N1011 1.314 . S
C1009 H1050 0.930 . S
C1010 C1008 1.358 . S
C1010 N1011 1.279 . S
C1010 H1051 0.930 . S
N1011 C1009 1.314 . S
N1011 C1010 1.279 . S
C1012 C1014 1.353 . S
C1012 N1015 1.314 . S
C1012 H1018 0.930 . S
C1013 N1015 1.279 . S
C1013 C1016 1.358 . S
C1013 H1019 0.930 . S
C1014 C1012 1.353 . S
C1014 C1017 1.348 . S
C1014 H1052 0.929 . S
N1015 Li970 1.990 . S
N1015 C1012 1.314 . S
N1015 C1013 1.279 . S
C1016 C1013 1.358 . S
C1016 C1017 1.356 . S
C1016 H1053 0.930 . S
C1017 C1014 1.348 . S
C1017 C1016 1.356 . S
H1018 C1012 0.930 . S
H1019 C1013 0.930 . S
C1020 N1021 1.314 . S
C1020 C1022 1.353 . S
C1020 H1026 0.930 . S
N1021 Li971 1.990 . S
N1021 C1020 1.314 . S
N1021 C1024 1.279 . S
C1022 C1020 1.353 . S
C1022 C1025 1.348 . S
C1022 H1054 0.929 . S
C1023 C1024 1.358 . S
C1023 C1025 1.356 . S
C1023 H1055 0.930 . S
C1024 N1021 1.279 . S
C1024 C1023 1.358 . S
C1024 H1027 0.930 . S
C1025 C1022 1.348 . S
C1025 C1023 1.356 . S
H1026 C1020 0.930 . S
H1027 C1024 0.930 . S
O1028 Li968 1.956 . S
O1028 Li969 1.970 . S
O1028 Li970 1.961 . S
O1028 C972 1.325 . S
O1029 Li968 1.970 . S
O1029 Li969 1.956 . S
O1029 Li971 1.961 . S
O1029 C978 1.325 . S
O1030 Li968 1.961 . S
O1030 Li970 1.956 . S
O1030 Li971 1.970 . S
O1030 C1000 1.325 . S
O1031 Li969 1.961 . S
O1031 Li970 1.970 . S
O1031 Li971 1.956 . S
O1031 C1006 1.325 . S
H1032 C974 0.929 . S
H1033 C975 0.930 . S
H1034 C976 0.930 . S
H1035 C977 0.930 . S
H1036 C979 0.930 . S
H1037 C981 0.929 . S
H1038 C982 0.930 . S
H1039 C983 0.930 . S
H1040 C986 0.930 . S
H1041 C989 0.929 . S
H1042 C994 0.929 . S
H1043 C995 0.930 . S
H1044 C1002 0.929 . S
H1045 C1003 0.930 . S
H1046 C1004 0.930 . S
H1047 C1005 0.930 . S
H1048 C1007 0.929 . S
H1049 C1008 0.930 . S
H1050 C1009 0.930 . S
H1051 C1010 0.930 . S
H1052 C1014 0.929 . S
H1053 C1016 0.930 . S
H1054 C1022 0.929 . S
H1055 C1023 0.930 . S
Li1056 N1073 1.990 . S
Li1056 O1116 1.956 . S
Li1056 O1117 1.970 . S
Li1056 O1118 1.961 . S
Li1057 N1081 1.990 . S
Li1057 O1116 1.970 . S
Li1057 O1117 1.956 . S
Li1057 O1119 1.961 . S
Li1058 N1103 1.990 . S
Li1058 O1116 1.961 . S
Li1058 O1118 1.956 . S
Li1058 O1119 1.970 . S
Li1059 N1109 1.990 . S
Li1059 O1117 1.961 . S
Li1059 O1118 1.970 . S
Li1059 O1119 1.956 . S
C1060 C1062 1.348 . S
C1060 C1063 1.356 . S
C1060 O1116 1.325 . S
N1061 C1064 1.324 . S
N1061 C1065 1.279 1_554 S
C1062 C1060 1.348 . S
C1062 C1064 1.329 1_556 S
C1062 H1120 0.929 . S
C1063 C1060 1.356 . S
C1063 C1065 1.358 . S
C1063 H1121 0.930 . S
C1064 N1061 1.324 . S
C1064 C1062 1.329 1_554 S
C1064 H1122 0.946 . S
C1065 N1061 1.279 1_556 S
C1065 C1063 1.358 . S
C1065 H1123 0.930 . S
C1066 C1069 1.348 . S
C1066 C1070 1.356 . S
C1066 O1117 1.325 . S
C1067 N1068 1.279 . S
C1067 C1070 1.358 . S
C1067 H1124 0.930 . S
N1068 C1067 1.279 . S
N1068 C1071 1.314 . S
C1069 C1066 1.348 . S
C1069 C1071 1.353 . S
C1069 H1125 0.929 . S
C1070 C1066 1.356 . S
C1070 C1067 1.358 . S
C1070 H1126 0.930 . S
C1071 N1068 1.314 . S
C1071 C1069 1.353 . S
C1071 H1127 0.930 . S
C1072 N1073 1.314 . S
C1072 C1077 1.353 . S
C1072 H1078 0.930 . S
N1073 Li1056 1.990 . S
N1073 C1072 1.314 . S
N1073 C1075 1.279 . S
C1074 C1075 1.358 . S
C1074 C1076 1.356 . S
C1074 H1128 0.930 . S
C1075 N1073 1.279 . S
C1075 C1074 1.358 . S
C1075 H1079 0.930 . S
C1076 C1074 1.356 . S
C1076 C1077 1.348 . S
C1077 C1072 1.353 . S
C1077 C1076 1.348 . S
C1077 H1129 0.929 . S
H1078 C1072 0.930 . S
H1079 C1075 0.930 . S
C1080 N1081 1.314 . S
C1080 C1082 1.353 . S
C1080 H1086 0.930 . S
N1081 Li1057 1.990 . S
N1081 C1080 1.314 . S
N1081 C1084 1.279 . S
C1082 C1080 1.353 . S
C1082 C1085 1.348 . S
C1082 H1130 0.929 . S
C1083 C1084 1.358 . S
C1083 C1085 1.356 . S
C1083 H1131 0.930 . S
C1084 N1081 1.279 . S
C1084 C1083 1.358 . S
C1084 H1087 0.930 . S
C1085 C1082 1.348 . S
C1085 C1083 1.356 . S
H1086 C1080 0.930 . S
H1087 C1084 0.930 . S
C1088 C1090 1.348 . S
C1088 C1091 1.356 . S
C1088 O1118 1.325 . S
N1089 C1092 1.314 . S
N1089 C1093 1.279 . S
C1090 C1088 1.348 . S
C1090 C1092 1.353 . S
C1090 H1132 0.929 . S
C1091 C1088 1.356 . S
C1091 C1093 1.358 . S
C1091 H1133 0.930 . S
C1092 N1089 1.314 . S
C1092 C1090 1.353 . S
C1092 H1134 0.930 . S
C1093 N1089 1.279 . S
C1093 C1091 1.358 . S
C1093 H1135 0.930 . S
C1094 C1095 1.348 . S
C1094 C1096 1.356 . S
C1094 O1119 1.325 . S
C1095 C1094 1.348 . S
C1095 C1097 1.353 . S
C1095 H1136 0.929 . S
C1096 C1094 1.356 . S
C1096 C1098 1.358 . S
C1096 H1137 0.930 . S
C1097 C1095 1.353 . S
C1097 N1099 1.314 . S
C1097 H1138 0.930 . S
C1098 C1096 1.358 . S
C1098 N1099 1.279 . S
C1098 H1139 0.930 . S
N1099 C1097 1.314 . S
N1099 C1098 1.279 . S
C1100 C1102 1.353 . S
C1100 N1103 1.314 . S
C1100 H1106 0.930 . S
C1101 N1103 1.279 . S
C1101 C1104 1.358 . S
C1101 H1107 0.930 . S
C1102 C1100 1.353 . S
C1102 C1105 1.348 . S
C1102 H1140 0.929 . S
N1103 Li1058 1.990 . S
N1103 C1100 1.314 . S
N1103 C1101 1.279 . S
C1104 C1101 1.358 . S
C1104 C1105 1.356 . S
C1104 H1141 0.930 . S
C1105 C1102 1.348 . S
C1105 C1104 1.356 . S
H1106 C1100 0.930 . S
H1107 C1101 0.930 . S
C1108 N1109 1.314 . S
C1108 C1110 1.353 . S
C1108 H1114 0.930 . S
N1109 Li1059 1.990 . S
N1109 C1108 1.314 . S
N1109 C1112 1.279 . S
C1110 C1108 1.353 . S
C1110 C1113 1.348 . S
C1110 H1142 0.929 . S
C1111 C1112 1.358 . S
C1111 C1113 1.356 . S
C1111 H1143 0.930 . S
C1112 N1109 1.279 . S
C1112 C1111 1.358 . S
C1112 H1115 0.930 . S
C1113 C1110 1.348 . S
C1113 C1111 1.356 . S
H1114 C1108 0.930 . S
H1115 C1112 0.930 . S
O1116 Li1056 1.956 . S
O1116 Li1057 1.970 . S
O1116 Li1058 1.961 . S
O1116 C1060 1.325 . S
O1117 Li1056 1.970 . S
O1117 Li1057 1.956 . S
O1117 Li1059 1.961 . S
O1117 C1066 1.325 . S
O1118 Li1056 1.961 . S
O1118 Li1058 1.956 . S
O1118 Li1059 1.970 . S
O1118 C1088 1.325 . S
O1119 Li1057 1.961 . S
O1119 Li1058 1.970 . S
O1119 Li1059 1.956 . S
O1119 C1094 1.325 . S
H1120 C1062 0.929 . S
H1121 C1063 0.930 . S
H1122 C1064 0.946 . S
H1123 C1065 0.930 . S
H1124 C1067 0.930 . S
H1125 C1069 0.929 . S
H1126 C1070 0.930 . S
H1127 C1071 0.930 . S
H1128 C1074 0.930 . S
H1129 C1077 0.929 . S
H1130 C1082 0.929 . S
H1131 C1083 0.930 . S
H1132 C1090 0.929 . S
H1133 C1091 0.930 . S
H1134 C1092 0.930 . S
H1135 C1093 0.930 . S
H1136 C1095 0.929 . S
H1137 C1096 0.930 . S
H1138 C1097 0.930 . S
H1139 C1098 0.930 . S
H1140 C1102 0.929 . S
H1141 C1104 0.930 . S
H1142 C1110 0.929 . S
H1143 C1111 0.930 . S
Li1144 N1161 1.990 . S
Li1144 O1204 1.956 . S
Li1144 O1205 1.970 . S
Li1144 O1206 1.961 . S
Li1145 N1169 1.990 . S
Li1145 O1204 1.970 . S
Li1145 O1205 1.956 . S
Li1145 O1207 1.961 . S
Li1146 N1191 1.990 . S
Li1146 O1204 1.961 . S
Li1146 O1206 1.956 . S
Li1146 O1207 1.970 . S
Li1147 N1197 1.990 . S
Li1147 O1205 1.961 . S
Li1147 O1206 1.970 . S
Li1147 O1207 1.956 . S
C1148 C1150 1.348 . S
C1148 C1151 1.356 . S
C1148 O1204 1.325 . S
N1149 C1152 1.314 . S
N1149 C1153 1.279 . S
C1150 C1148 1.348 . S
C1150 C1152 1.353 . S
C1150 H1208 0.929 . S
C1151 C1148 1.356 . S
C1151 C1153 1.358 . S
C1151 H1209 0.930 . S
C1152 N1149 1.314 . S
C1152 C1150 1.353 . S
C1152 H1210 0.930 . S
C1153 N1149 1.279 . S
C1153 C1151 1.358 . S
C1153 H1211 0.930 . S
C1154 C1157 1.348 . S
C1154 C1158 1.356 . S
C1154 O1205 1.325 . S
C1155 N1156 1.279 . S
C1155 C1158 1.358 . S
C1155 H1212 0.930 . S
N1156 C1155 1.279 . S
N1156 C1159 1.314 . S
C1157 C1154 1.348 . S
C1157 C1159 1.353 . S
C1157 H1213 0.929 . S
C1158 C1154 1.356 . S
C1158 C1155 1.358 . S
C1158 H1214 0.930 . S
C1159 N1156 1.314 . S
C1159 C1157 1.353 . S
C1159 H1215 0.930 . S
C1160 N1161 1.314 . S
C1160 C1165 1.353 . S
C1160 H1166 0.930 . S
N1161 Li1144 1.990 . S
N1161 C1160 1.314 . S
N1161 C1163 1.279 . S
C1162 C1163 1.358 . S
C1162 C1164 1.356 . S
C1162 H1216 0.930 . S
C1163 N1161 1.279 . S
C1163 C1162 1.358 . S
C1163 H1167 0.930 . S
C1164 C1162 1.356 . S
C1164 C1165 1.348 . S
C1165 C1160 1.353 . S
C1165 C1164 1.348 . S
C1165 H1217 0.929 . S
H1166 C1160 0.930 . S
H1167 C1163 0.930 . S
C1168 N1169 1.314 . S
C1168 C1170 1.353 . S
C1168 H1174 0.930 . S
N1169 Li1145 1.990 . S
N1169 C1168 1.314 . S
N1169 C1172 1.279 . S
C1170 C1168 1.353 . S
C1170 C1173 1.348 . S
C1170 H1218 0.929 . S
C1171 C1172 1.358 . S
C1171 C1173 1.356 . S
C1171 H1219 0.930 . S
C1172 N1169 1.279 . S
C1172 C1171 1.358 . S
C1172 H1175 0.930 . S
C1173 C1170 1.348 . S
C1173 C1171 1.356 . S
H1174 C1168 0.930 . S
H1175 C1172 0.930 . S
C1176 C1178 1.348 . S
C1176 C1179 1.356 . S
C1176 O1206 1.325 . S
N1177 C1180 1.314 . S
N1177 C1181 1.279 . S
C1178 C1176 1.348 . S
C1178 C1180 1.353 . S
C1178 H1220 0.929 . S
C1179 C1176 1.356 . S
C1179 C1181 1.358 . S
C1179 H1221 0.930 . S
C1180 N1177 1.314 . S
C1180 C1178 1.353 . S
C1180 H1222 0.930 . S
C1181 N1177 1.279 . S
C1181 C1179 1.358 . S
C1181 H1223 0.930 . S
C1182 C1183 1.348 . S
C1182 C1184 1.356 . S
C1182 O1207 1.325 . S
C1183 C1182 1.348 . S
C1183 C1185 1.353 . S
C1183 H1224 0.929 . S
C1184 C1182 1.356 . S
C1184 C1186 1.358 . S
C1184 H1225 0.930 . S
C1185 C1183 1.353 . S
C1185 N1187 1.314 . S
C1185 H1226 0.930 . S
C1186 C1184 1.358 . S
C1186 N1187 1.279 . S
C1186 H1227 0.930 . S
N1187 C1185 1.314 . S
N1187 C1186 1.279 . S
C1188 C1190 1.353 . S
C1188 N1191 1.314 . S
C1188 H1194 0.930 . S
C1189 N1191 1.279 . S
C1189 C1192 1.358 . S
C1189 H1195 0.930 . S
C1190 C1188 1.353 . S
C1190 C1193 1.348 . S
C1190 H1228 0.929 . S
N1191 Li1146 1.990 . S
N1191 C1188 1.314 . S
N1191 C1189 1.279 . S
C1192 C1189 1.358 . S
C1192 C1193 1.356 . S
C1192 H1229 0.930 . S
C1193 C1190 1.348 . S
C1193 C1192 1.356 . S
H1194 C1188 0.930 . S
H1195 C1189 0.930 . S
C1196 N1197 1.314 . S
C1196 C1198 1.353 . S
C1196 H1202 0.930 . S
N1197 Li1147 1.990 . S
N1197 C1196 1.314 . S
N1197 C1200 1.279 . S
C1198 C1196 1.353 . S
C1198 C1201 1.348 . S
C1198 H1230 0.929 . S
C1199 C1200 1.358 . S
C1199 C1201 1.356 . S
C1199 H1231 0.930 . S
C1200 N1197 1.279 . S
C1200 C1199 1.358 . S
C1200 H1203 0.930 . S
C1201 C1198 1.348 . S
C1201 C1199 1.356 . S
H1202 C1196 0.930 . S
H1203 C1200 0.930 . S
O1204 Li1144 1.956 . S
O1204 Li1145 1.970 . S
O1204 Li1146 1.961 . S
O1204 C1148 1.325 . S
O1205 Li1144 1.970 . S
O1205 Li1145 1.956 . S
O1205 Li1147 1.961 . S
O1205 C1154 1.325 . S
O1206 Li1144 1.961 . S
O1206 Li1146 1.956 . S
O1206 Li1147 1.970 . S
O1206 C1176 1.325 . S
O1207 Li1145 1.961 . S
O1207 Li1146 1.970 . S
O1207 Li1147 1.956 . S
O1207 C1182 1.325 . S
H1208 C1150 0.929 . S
H1209 C1151 0.930 . S
H1210 C1152 0.930 . S
H1211 C1153 0.930 . S
H1212 C1155 0.930 . S
H1213 C1157 0.929 . S
H1214 C1158 0.930 . S
H1215 C1159 0.930 . S
H1216 C1162 0.930 . S
H1217 C1165 0.929 . S
H1218 C1170 0.929 . S
H1219 C1171 0.930 . S
H1220 C1178 0.929 . S
H1221 C1179 0.930 . S
H1222 C1180 0.930 . S
H1223 C1181 0.930 . S
H1224 C1183 0.929 . S
H1225 C1184 0.930 . S
H1226 C1185 0.930 . S
H1227 C1186 0.930 . S
H1228 C1190 0.929 . S
H1229 C1192 0.930 . S
H1230 C1198 0.929 . S
H1231 C1199 0.930 . S
Li1232 N1249 1.990 . S
Li1232 O1292 1.956 . S
Li1232 O1293 1.970 . S
Li1232 O1294 1.961 . S
Li1233 N1257 1.990 . S
Li1233 O1292 1.970 . S
Li1233 O1293 1.956 . S
Li1233 O1295 1.961 . S
Li1234 N1279 1.990 . S
Li1234 O1292 1.961 . S
Li1234 O1294 1.956 . S
Li1234 O1295 1.970 . S
Li1235 N1285 1.990 . S
Li1235 O1293 1.961 . S
Li1235 O1294 1.970 . S
Li1235 O1295 1.956 . S
C1236 C1238 1.348 . S
C1236 C1239 1.356 . S
C1236 O1292 1.325 . S
N1237 C1240 1.314 . S
N1237 C1241 1.279 . S
C1238 C1236 1.348 . S
C1238 C1240 1.353 . S
C1238 H1296 0.929 . S
C1239 C1236 1.356 . S
C1239 C1241 1.358 . S
C1239 H1297 0.930 . S
C1240 N1237 1.314 . S
C1240 C1238 1.353 . S
C1240 H1298 0.930 . S
C1241 N1237 1.279 . S
C1241 C1239 1.358 . S
C1241 H1299 0.930 . S
C1242 C1245 1.348 . S
C1242 C1246 1.356 . S
C1242 O1293 1.325 . S
C1243 N1244 1.279 . S
C1243 C1246 1.358 . S
C1243 H1300 0.930 . S
N1244 C1243 1.279 . S
N1244 C1247 1.314 . S
C1245 C1242 1.348 . S
C1245 C1247 1.353 . S
C1245 H1301 0.929 . S
C1246 C1242 1.356 . S
C1246 C1243 1.358 . S
C1246 H1302 0.930 . S
C1247 N1244 1.314 . S
C1247 C1245 1.353 . S
C1247 H1303 0.930 . S
C1248 N1249 1.314 . S
C1248 C1253 1.353 . S
C1248 H1254 0.930 . S
N1249 Li1232 1.990 . S
N1249 C1248 1.314 . S
N1249 C1251 1.279 . S
C1250 C1251 1.358 . S
C1250 C1252 1.356 . S
C1250 H1304 0.930 . S
C1251 N1249 1.279 . S
C1251 C1250 1.358 . S
C1251 H1255 0.930 . S
C1252 C1250 1.356 . S
C1252 C1253 1.348 . S
C1253 C1248 1.353 . S
C1253 C1252 1.348 . S
C1253 H1305 0.929 . S
H1254 C1248 0.930 . S
H1255 C1251 0.930 . S
C1256 N1257 1.314 . S
C1256 C1258 1.353 . S
C1256 H1262 0.930 . S
N1257 Li1233 1.990 . S
N1257 C1256 1.314 . S
N1257 C1260 1.279 . S
C1258 C1256 1.353 . S
C1258 C1261 1.348 . S
C1258 H1306 0.929 . S
C1259 C1260 1.358 . S
C1259 C1261 1.356 . S
C1259 H1307 0.930 . S
C1260 N1257 1.279 . S
C1260 C1259 1.358 . S
C1260 H1263 0.930 . S
C1261 C1258 1.348 . S
C1261 C1259 1.356 . S
H1262 C1256 0.930 . S
H1263 C1260 0.930 . S
C1264 C1266 1.348 . S
C1264 C1267 1.356 . S
C1264 O1294 1.325 . S
N1265 C1268 1.314 . S
N1265 C1269 1.279 . S
C1266 C1264 1.348 . S
C1266 C1268 1.353 . S
C1266 H1308 0.929 . S
C1267 C1264 1.356 . S
C1267 C1269 1.358 . S
C1267 H1309 0.930 . S
C1268 N1265 1.314 . S
C1268 C1266 1.353 . S
C1268 H1310 0.930 . S
C1269 N1265 1.279 . S
C1269 C1267 1.358 . S
C1269 H1311 0.930 . S
C1270 C1271 1.348 . S
C1270 C1272 1.356 . S
C1270 O1295 1.325 . S
C1271 C1270 1.348 . S
C1271 C1273 1.329 1_554 S
C1271 H1312 0.929 . S
C1272 C1270 1.356 . S
C1272 C1274 1.358 . S
C1272 H1313 0.930 . S
C1273 C1271 1.329 1_556 S
C1273 N1275 1.324 . S
C1273 H1314 0.946 . S
C1274 C1272 1.358 . S
C1274 N1275 1.279 1_554 S
C1274 H1315 0.930 . S
N1275 C1273 1.324 . S
N1275 C1274 1.279 1_556 S
C1276 C1278 1.353 . S
C1276 N1279 1.314 . S
C1276 H1282 0.930 . S
C1277 N1279 1.279 . S
C1277 C1280 1.358 . S
C1277 H1283 0.930 . S
C1278 C1276 1.353 . S
C1278 C1281 1.348 . S
C1278 H1316 0.929 . S
N1279 Li1234 1.990 . S
N1279 C1276 1.314 . S
N1279 C1277 1.279 . S
C1280 C1277 1.358 . S
C1280 C1281 1.356 . S
C1280 H1317 0.930 . S
C1281 C1278 1.348 . S
C1281 C1280 1.356 . S
H1282 C1276 0.930 . S
H1283 C1277 0.930 . S
C1284 N1285 1.314 . S
C1284 C1286 1.353 . S
C1284 H1290 0.930 . S
N1285 Li1235 1.990 . S
N1285 C1284 1.314 . S
N1285 C1288 1.279 . S
C1286 C1284 1.353 . S
C1286 C1289 1.348 . S
C1286 H1318 0.929 . S
C1287 C1288 1.358 . S
C1287 C1289 1.356 . S
C1287 H1319 0.930 . S
C1288 N1285 1.279 . S
C1288 C1287 1.358 . S
C1288 H1291 0.930 . S
C1289 C1286 1.348 . S
C1289 C1287 1.356 . S
H1290 C1284 0.930 . S
H1291 C1288 0.930 . S
O1292 Li1232 1.956 . S
O1292 Li1233 1.970 . S
O1292 Li1234 1.961 . S
O1292 C1236 1.325 . S
O1293 Li1232 1.970 . S
O1293 Li1233 1.956 . S
O1293 Li1235 1.961 . S
O1293 C1242 1.325 . S
O1294 Li1232 1.961 . S
O1294 Li1234 1.956 . S
O1294 Li1235 1.970 . S
O1294 C1264 1.325 . S
O1295 Li1233 1.961 . S
O1295 Li1234 1.970 . S
O1295 Li1235 1.956 . S
O1295 C1270 1.325 . S
H1296 C1238 0.929 . S
H1297 C1239 0.930 . S
H1298 C1240 0.930 . S
H1299 C1241 0.930 . S
H1300 C1243 0.930 . S
H1301 C1245 0.929 . S
H1302 C1246 0.930 . S
H1303 C1247 0.930 . S
H1304 C1250 0.930 . S
H1305 C1253 0.929 . S
H1306 C1258 0.929 . S
H1307 C1259 0.930 . S
H1308 C1266 0.929 . S
H1309 C1267 0.930 . S
H1310 C1268 0.930 . S
H1311 C1269 0.930 . S
H1312 C1271 0.929 . S
H1313 C1272 0.930 . S
H1314 C1273 0.946 . S
H1315 C1274 0.930 . S
H1316 C1278 0.929 . S
H1317 C1280 0.930 . S
H1318 C1286 0.929 . S
H1319 C1287 0.930 . S
Li1320 N1337 1.990 . S
Li1320 O1380 1.956 . S
Li1320 O1381 1.970 . S
Li1320 O1382 1.961 . S
Li1321 N1345 1.990 . S
Li1321 O1380 1.970 . S
Li1321 O1381 1.956 . S
Li1321 O1383 1.961 . S
Li1322 N1367 1.990 . S
Li1322 O1380 1.961 . S
Li1322 O1382 1.956 . S
Li1322 O1383 1.970 . S
Li1323 N1373 1.990 . S
Li1323 O1381 1.961 . S
Li1323 O1382 1.970 . S
Li1323 O1383 1.956 . S
C1324 C1326 1.348 . S
C1324 C1327 1.356 . S
C1324 O1380 1.325 . S
N1325 C1328 1.314 . S
N1325 C1329 1.279 . S
C1326 C1324 1.348 . S
C1326 C1328 1.353 . S
C1326 H1384 0.929 . S
C1327 C1324 1.356 . S
C1327 C1329 1.358 . S
C1327 H1385 0.930 . S
C1328 N1325 1.314 . S
C1328 C1326 1.353 . S
C1328 H1386 0.930 . S
C1329 N1325 1.279 . S
C1329 C1327 1.358 . S
C1329 H1387 0.930 . S
C1330 C1333 1.348 . S
C1330 C1334 1.356 . S
C1330 O1381 1.325 . S
C1331 N1332 1.279 . S
C1331 C1334 1.358 . S
C1331 H1388 0.930 . S
N1332 C1331 1.279 . S
N1332 C1335 1.314 . S
C1333 C1330 1.348 . S
C1333 C1335 1.353 . S
C1333 H1389 0.929 . S
C1334 C1330 1.356 . S
C1334 C1331 1.358 . S
C1334 H1390 0.930 . S
C1335 N1332 1.314 . S
C1335 C1333 1.353 . S
C1335 H1391 0.930 . S
C1336 N1337 1.314 . S
C1336 C1341 1.353 . S
C1336 H1342 0.930 . S
N1337 Li1320 1.990 . S
N1337 C1336 1.314 . S
N1337 C1339 1.279 . S
C1338 C1339 1.358 . S
C1338 C1340 1.356 . S
C1338 H1392 0.930 . S
C1339 N1337 1.279 . S
C1339 C1338 1.358 . S
C1339 H1343 0.930 . S
C1340 C1338 1.356 . S
C1340 C1341 1.348 . S
C1341 C1336 1.353 . S
C1341 C1340 1.348 . S
C1341 H1393 0.929 . S
H1342 C1336 0.930 . S
H1343 C1339 0.930 . S
C1344 N1345 1.314 . S
C1344 C1346 1.353 . S
C1344 H1350 0.930 . S
N1345 Li1321 1.990 . S
N1345 C1344 1.314 . S
N1345 C1348 1.279 . S
C1346 C1344 1.353 . S
C1346 C1349 1.348 . S
C1346 H1394 0.929 . S
C1347 C1348 1.358 . S
C1347 C1349 1.356 . S
C1347 H1395 0.930 . S
C1348 N1345 1.279 . S
C1348 C1347 1.358 . S
C1348 H1351 0.930 . S
C1349 C1346 1.348 . S
C1349 C1347 1.356 . S
H1350 C1344 0.930 . S
H1351 C1348 0.930 . S
C1352 C1354 1.348 . S
C1352 C1355 1.356 . S
C1352 O1382 1.325 . S
N1353 C1356 1.314 . S
N1353 C1357 1.279 . S
C1354 C1352 1.348 . S
C1354 C1356 1.353 . S
C1354 H1396 0.929 . S
C1355 C1352 1.356 . S
C1355 C1357 1.358 . S
C1355 H1397 0.930 . S
C1356 N1353 1.314 . S
C1356 C1354 1.353 . S
C1356 H1398 0.930 . S
C1357 N1353 1.279 . S
C1357 C1355 1.358 . S
C1357 H1399 0.930 . S
C1358 C1359 1.348 . S
C1358 C1360 1.356 . S
C1358 O1383 1.325 . S
C1359 C1358 1.348 . S
C1359 C1361 1.353 . S
C1359 H1400 0.929 . S
C1360 C1358 1.356 . S
C1360 C1362 1.358 . S
C1360 H1401 0.930 . S
C1361 C1359 1.353 . S
C1361 N1363 1.314 . S
C1361 H1402 0.930 . S
C1362 C1360 1.358 . S
C1362 N1363 1.279 . S
C1362 H1403 0.930 . S
N1363 C1361 1.314 . S
N1363 C1362 1.279 . S
C1364 C1366 1.353 . S
C1364 N1367 1.314 . S
C1364 H1370 0.930 . S
C1365 N1367 1.279 . S
C1365 C1368 1.358 . S
C1365 H1371 0.930 . S
C1366 C1364 1.353 . S
C1366 C1369 1.348 . S
C1366 H1404 0.929 . S
N1367 Li1322 1.990 . S
N1367 C1364 1.314 . S
N1367 C1365 1.279 . S
C1368 C1365 1.358 . S
C1368 C1369 1.356 . S
C1368 H1405 0.930 . S
C1369 C1366 1.348 . S
C1369 C1368 1.356 . S
H1370 C1364 0.930 . S
H1371 C1365 0.930 . S
C1372 N1373 1.314 . S
C1372 C1374 1.353 . S
C1372 H1378 0.930 . S
N1373 Li1323 1.990 . S
N1373 C1372 1.314 . S
N1373 C1376 1.279 . S
C1374 C1372 1.353 . S
C1374 C1377 1.348 . S
C1374 H1406 0.929 . S
C1375 C1376 1.358 . S
C1375 C1377 1.356 . S
C1375 H1407 0.930 . S
C1376 N1373 1.279 . S
C1376 C1375 1.358 . S
C1376 H1379 0.930 . S
C1377 C1374 1.348 . S
C1377 C1375 1.356 . S
H1378 C1372 0.930 . S
H1379 C1376 0.930 . S
O1380 Li1320 1.956 . S
O1380 Li1321 1.970 . S
O1380 Li1322 1.961 . S
O1380 C1324 1.325 . S
O1381 Li1320 1.970 . S
O1381 Li1321 1.956 . S
O1381 Li1323 1.961 . S
O1381 C1330 1.325 . S
O1382 Li1320 1.961 . S
O1382 Li1322 1.956 . S
O1382 Li1323 1.970 . S
O1382 C1352 1.325 . S
O1383 Li1321 1.961 . S
O1383 Li1322 1.970 . S
O1383 Li1323 1.956 . S
O1383 C1358 1.325 . S
H1384 C1326 0.929 . S
H1385 C1327 0.930 . S
H1386 C1328 0.930 . S
H1387 C1329 0.930 . S
H1388 C1331 0.930 . S
H1389 C1333 0.929 . S
H1390 C1334 0.930 . S
H1391 C1335 0.930 . S
H1392 C1338 0.930 . S
H1393 C1341 0.929 . S
H1394 C1346 0.929 . S
H1395 C1347 0.930 . S
H1396 C1354 0.929 . S
H1397 C1355 0.930 . S
H1398 C1356 0.930 . S
H1399 C1357 0.930 . S
H1400 C1359 0.929 . S
H1401 C1360 0.930 . S
H1402 C1361 0.930 . S
H1403 C1362 0.930 . S
H1404 C1366 0.929 . S
H1405 C1368 0.930 . S
H1406 C1374 0.929 . S
H1407 C1375 0.930 . S
H1408 C1414 0.930 . S
H1409 C1418 0.930 . S
H1410 C1423 0.929 . S
H1411 C1421 0.929 . S
H1412 C1416 0.929 . S
H1413 C1422 0.929 . S
C1414 H1408 0.930 . S
C1414 C1415 1.367 . S
C1414 C1422 1.378 . S
C1415 C1414 1.367 . S
C1415 C1423 1.433 . S
C1416 H1412 0.929 . S
C1416 C1418 1.378 . S
C1416 C1420 1.350 . S
C1417 C1420 1.463 1_455 S
C1417 C1422 1.350 . S
C1417 N1425 1.427 . S
C1418 H1409 0.930 . S
C1418 C1416 1.378 . S
C1418 C1419 1.367 . S
C1419 C1418 1.367 . S
C1419 C1421 1.433 . S
C1420 C1416 1.350 . S
C1420 C1417 1.463 1_655 S
C1420 N1424 1.427 . S
C1421 H1411 0.929 . S
C1421 C1419 1.433 . S
C1421 N1424 1.384 . S
C1422 H1413 0.929 . S
C1422 C1414 1.378 . S
C1422 C1417 1.350 . S
C1423 H1410 0.929 . S
C1423 C1415 1.433 . S
C1423 N1425 1.384 . S
N1424 C1420 1.427 . S
N1424 C1421 1.384 . S
N1425 C1417 1.427 . S
N1425 C1423 1.384 . S
H1426 C1432 0.930 . S
H1427 C1436 0.930 . S
H1428 C1441 0.929 . S
H1429 C1439 0.929 . S
H1430 C1434 0.929 . S
H1431 C1440 0.929 . S
C1432 H1426 0.930 . S
C1432 C1433 1.367 . S
C1432 C1440 1.378 . S
C1433 C1432 1.367 . S
C1433 C1441 1.433 . S
C1434 H1430 0.929 . S
C1434 C1436 1.378 . S
C1434 C1438 1.350 . S
C1435 C1438 1.463 1_655 S
C1435 C1440 1.350 . S
C1435 N1443 1.427 . S
C1436 H1427 0.930 . S
C1436 C1434 1.378 . S
C1436 C1437 1.367 . S
C1437 C1436 1.367 . S
C1437 C1439 1.433 . S
C1438 C1434 1.350 . S
C1438 C1435 1.463 1_455 S
C1438 N1442 1.427 . S
C1439 H1429 0.929 . S
C1439 C1437 1.433 . S
C1439 N1442 1.384 . S
C1440 H1431 0.929 . S
C1440 C1432 1.378 . S
C1440 C1435 1.350 . S
C1441 H1428 0.929 . S
C1441 C1433 1.433 . S
C1441 N1443 1.384 . S
N1442 C1438 1.427 . S
N1442 C1439 1.384 . S
N1443 C1435 1.427 . S
N1443 C1441 1.384 . S
H1444 C1450 0.930 . S
H1445 C1454 0.930 . S
H1446 C1459 0.929 . S
H1447 C1457 0.929 . S
H1448 C1452 0.929 . S
H1449 C1458 0.929 . S
C1450 H1444 0.930 . S
C1450 C1451 1.367 . S
C1450 C1458 1.378 . S
C1451 C1450 1.367 . S
C1451 C1459 1.433 . S
C1452 H1448 0.929 . S
C1452 C1454 1.378 . S
C1452 C1456 1.350 . S
C1453 C1456 1.463 1_655 S
C1453 C1458 1.350 . S
C1453 N1461 1.427 . S
C1454 H1445 0.930 . S
C1454 C1452 1.378 . S
C1454 C1455 1.367 . S
C1455 C1454 1.367 . S
C1455 C1457 1.433 . S
C1456 C1452 1.350 . S
C1456 C1453 1.463 1_455 S
C1456 N1460 1.427 . S
C1457 H1447 0.929 . S
C1457 C1455 1.433 . S
C1457 N1460 1.384 . S
C1458 H1449 0.929 . S
C1458 C1450 1.378 . S
C1458 C1453 1.350 . S
C1459 H1446 0.929 . S
C1459 C1451 1.433 . S
C1459 N1461 1.384 . S
N1460 C1456 1.427 . S
N1460 C1457 1.384 . S
N1461 C1453 1.427 . S
N1461 C1459 1.384 . S
H1462 C1468 0.930 . S
H1463 C1472 0.930 . S
H1464 C1477 0.929 . S
H1465 C1475 0.929 . S
H1466 C1470 0.929 . S
H1467 C1476 0.929 . S
C1468 H1462 0.930 . S
C1468 C1469 1.367 . S
C1468 C1476 1.378 . S
C1469 C1468 1.367 . S
C1469 C1477 1.433 . S
C1470 H1466 0.929 . S
C1470 C1472 1.378 . S
C1470 C1474 1.350 . S
C1471 C1474 1.463 1_455 S
C1471 C1476 1.350 . S
C1471 N1479 1.427 . S
C1472 H1463 0.930 . S
C1472 C1470 1.378 . S
C1472 C1473 1.367 . S
C1473 C1472 1.367 . S
C1473 C1475 1.433 . S
C1474 C1470 1.350 . S
C1474 C1471 1.463 1_655 S
C1474 N1478 1.427 . S
C1475 H1465 0.929 . S
C1475 C1473 1.433 . S
C1475 N1478 1.384 . S
C1476 H1467 0.929 . S
C1476 C1468 1.378 . S
C1476 C1471 1.350 . S
C1477 H1464 0.929 . S
C1477 C1469 1.433 . S
C1477 N1479 1.384 . S
N1478 C1474 1.427 . S
N1478 C1475 1.384 . S
N1479 C1471 1.427 . S
N1479 C1477 1.384 . S
H1480 C1486 0.930 . S
H1481 C1490 0.930 . S
H1482 C1495 0.929 . S
H1483 C1493 0.929 . S
H1484 C1488 0.929 . S
H1485 C1494 0.929 . S
C1486 H1480 0.930 . S
C1486 C1487 1.367 . S
C1486 C1494 1.378 . S
C1487 C1486 1.367 . S
C1487 C1495 1.433 . S
C1488 H1484 0.929 . S
C1488 C1490 1.378 . S
C1488 C1492 1.350 . S
C1489 C1492 1.463 . S
C1489 C1494 1.350 . S
C1489 N1497 1.427 . S
C1490 H1481 0.930 . S
C1490 C1488 1.378 . S
C1490 C1491 1.367 . S
C1491 C1490 1.367 . S
C1491 C1493 1.433 . S
C1492 C1488 1.350 . S
C1492 C1489 1.463 . S
C1492 N1496 1.427 . S
C1493 H1483 0.929 . S
C1493 C1491 1.433 . S
C1493 N1496 1.384 . S
C1494 H1485 0.929 . S
C1494 C1486 1.378 . S
C1494 C1489 1.350 . S
C1495 H1482 0.929 . S
C1495 C1487 1.433 . S
C1495 N1497 1.384 . S
N1496 C1492 1.427 . S
N1496 C1493 1.384 . S
N1497 C1489 1.427 . S
N1497 C1495 1.384 . S
H1498 C1504 0.930 . S
H1499 C1508 0.930 . S
H1500 C1513 0.929 . S
H1501 C1511 0.929 . S
H1502 C1506 0.929 . S
H1503 C1512 0.929 . S
C1504 H1498 0.930 . S
C1504 C1505 1.367 . S
C1504 C1512 1.378 . S
C1505 C1504 1.367 . S
C1505 C1513 1.433 . S
C1506 H1502 0.929 . S
C1506 C1508 1.378 . S
C1506 C1510 1.350 . S
C1507 C1510 1.463 . S
C1507 C1512 1.350 . S
C1507 N1515 1.427 . S
C1508 H1499 0.930 . S
C1508 C1506 1.378 . S
C1508 C1509 1.367 . S
C1509 C1508 1.367 . S
C1509 C1511 1.433 . S
C1510 C1506 1.350 . S
C1510 C1507 1.463 . S
C1510 N1514 1.427 . S
C1511 H1501 0.929 . S
C1511 C1509 1.433 . S
C1511 N1514 1.384 . S
C1512 H1503 0.929 . S
C1512 C1504 1.378 . S
C1512 C1507 1.350 . S
C1513 H1500 0.929 . S
C1513 C1505 1.433 . S
C1513 N1515 1.384 . S
N1514 C1510 1.427 . S
N1514 C1511 1.384 . S
N1515 C1507 1.427 . S
N1515 C1513 1.384 . S
H1516 C1522 0.930 . S
H1517 C1526 0.930 . S
H1518 C1531 0.929 . S
H1519 C1529 0.929 . S
H1520 C1524 0.929 . S
H1521 C1530 0.929 . S
C1522 H1516 0.930 . S
C1522 C1523 1.367 . S
C1522 C1530 1.378 . S
C1523 C1522 1.367 . S
C1523 C1531 1.433 . S
C1524 H1520 0.929 . S
C1524 C1526 1.378 . S
C1524 C1528 1.350 . S
C1525 C1528 1.463 . S
C1525 C1530 1.350 . S
C1525 N1533 1.427 . S
C1526 H1517 0.930 . S
C1526 C1524 1.378 . S
C1526 C1527 1.367 . S
C1527 C1526 1.367 . S
C1527 C1529 1.433 . S
C1528 C1524 1.350 . S
C1528 C1525 1.463 . S
C1528 N1532 1.427 . S
C1529 H1519 0.929 . S
C1529 C1527 1.433 . S
C1529 N1532 1.384 . S
C1530 H1521 0.929 . S
C1530 C1522 1.378 . S
C1530 C1525 1.350 . S
C1531 H1518 0.929 . S
C1531 C1523 1.433 . S
C1531 N1533 1.384 . S
N1532 C1528 1.427 . S
N1532 C1529 1.384 . S
N1533 C1525 1.427 . S
N1533 C1531 1.384 . S
H1534 C1540 0.930 . S
H1535 C1544 0.930 . S
H1536 C1549 0.929 . S
H1537 C1547 0.929 . S
H1538 C1542 0.929 . S
H1539 C1548 0.929 . S
C1540 H1534 0.930 . S
C1540 C1541 1.367 . S
C1540 C1548 1.378 . S
C1541 C1540 1.367 . S
C1541 C1549 1.433 . S
C1542 H1538 0.929 . S
C1542 C1544 1.378 . S
C1542 C1546 1.350 . S
C1543 C1546 1.463 . S
C1543 C1548 1.350 . S
C1543 N1551 1.427 . S
C1544 H1535 0.930 . S
C1544 C1542 1.378 . S
C1544 C1545 1.367 . S
C1545 C1544 1.367 . S
C1545 C1547 1.433 . S
C1546 C1542 1.350 . S
C1546 C1543 1.463 . S
C1546 N1550 1.427 . S
C1547 H1537 0.929 . S
C1547 C1545 1.433 . S
C1547 N1550 1.384 . S
C1548 H1539 0.929 . S
C1548 C1540 1.378 . S
C1548 C1543 1.350 . S
C1549 H1536 0.929 . S
C1549 C1541 1.433 . S
C1549 N1551 1.384 . S
N1550 C1546 1.427 . S
N1550 C1547 1.384 . S
N1551 C1543 1.427 . S
N1551 C1549 1.384 . S
H1552 C1558 0.930 . S
H1553 C1562 0.930 . S
H1554 C1567 0.929 . S
H1555 C1565 0.929 . S
H1556 C1560 0.929 . S
H1557 C1566 0.929 . S
C1558 H1552 0.930 . S
C1558 C1559 1.367 . S
C1558 C1566 1.378 . S
C1559 C1558 1.367 . S
C1559 C1567 1.433 . S
C1560 H1556 0.929 . S
C1560 C1562 1.378 . S
C1560 C1564 1.350 . S
C1561 C1564 1.463 . S
C1561 C1566 1.350 . S
C1561 N1569 1.427 . S
C1562 H1553 0.930 . S
C1562 C1560 1.378 . S
C1562 C1563 1.367 . S
C1563 C1562 1.367 . S
C1563 C1565 1.433 . S
C1564 C1560 1.350 . S
C1564 C1561 1.463 . S
C1564 N1568 1.427 . S
C1565 H1555 0.929 . S
C1565 C1563 1.433 . S
C1565 N1568 1.384 . S
C1566 H1557 0.929 . S
C1566 C1558 1.378 . S
C1566 C1561 1.350 . S
C1567 H1554 0.929 . S
C1567 C1559 1.433 . S
C1567 N1569 1.384 . S
N1568 C1564 1.427 . S
N1568 C1565 1.384 . S
N1569 C1561 1.427 . S
N1569 C1567 1.384 . S
H1570 C1576 0.930 . S
H1571 C1580 0.930 . S
H1572 C1585 0.929 . S
H1573 C1583 0.929 . S
H1574 C1578 0.929 . S
H1575 C1584 0.929 . S
C1576 H1570 0.930 . S
C1576 C1577 1.367 . S
C1576 C1584 1.378 . S
C1577 C1576 1.367 . S
C1577 C1585 1.433 . S
C1578 H1574 0.929 . S
C1578 C1580 1.378 . S
C1578 C1582 1.350 . S
C1579 C1582 1.463 . S
C1579 C1584 1.350 . S
C1579 N1587 1.427 . S
C1580 H1571 0.930 . S
C1580 C1578 1.378 . S
C1580 C1581 1.367 . S
C1581 C1580 1.367 . S
C1581 C1583 1.433 . S
C1582 C1578 1.350 . S
C1582 C1579 1.463 . S
C1582 N1586 1.427 . S
C1583 H1573 0.929 . S
C1583 C1581 1.433 . S
C1583 N1586 1.384 . S
C1584 H1575 0.929 . S
C1584 C1576 1.378 . S
C1584 C1579 1.350 . S
C1585 H1572 0.929 . S
C1585 C1577 1.433 . S
C1585 N1587 1.384 . S
N1586 C1582 1.427 . S
N1586 C1583 1.384 . S
N1587 C1579 1.427 . S
N1587 C1585 1.384 . S
H1588 C1594 0.930 . S
H1589 C1598 0.930 . S
H1590 C1603 0.929 . S
H1591 C1601 0.929 . S
H1592 C1596 0.929 . S
H1593 C1602 0.929 . S
C1594 H1588 0.930 . S
C1594 C1595 1.367 . S
C1594 C1602 1.378 . S
C1595 C1594 1.367 . S
C1595 C1603 1.433 . S
C1596 H1592 0.929 . S
C1596 C1598 1.378 . S
C1596 C1600 1.350 . S
C1597 C1600 1.463 . S
C1597 C1602 1.350 . S
C1597 N1605 1.427 . S
C1598 H1589 0.930 . S
C1598 C1596 1.378 . S
C1598 C1599 1.367 . S
C1599 C1598 1.367 . S
C1599 C1601 1.433 . S
C1600 C1596 1.350 . S
C1600 C1597 1.463 . S
C1600 N1604 1.427 . S
C1601 H1591 0.929 . S
C1601 C1599 1.433 . S
C1601 N1604 1.384 . S
C1602 H1593 0.929 . S
C1602 C1594 1.378 . S
C1602 C1597 1.350 . S
C1603 H1590 0.929 . S
C1603 C1595 1.433 . S
C1603 N1605 1.384 . S
N1604 C1600 1.427 . S
N1604 C1601 1.384 . S
N1605 C1597 1.427 . S
N1605 C1603 1.384 . S
H1606 C1612 0.930 . S
H1607 C1616 0.930 . S
H1608 C1621 0.929 . S
H1609 C1619 0.929 . S
H1610 C1614 0.929 . S
H1611 C1620 0.929 . S
C1612 H1606 0.930 . S
C1612 C1613 1.367 . S
C1612 C1620 1.378 . S
C1613 C1612 1.367 . S
C1613 C1621 1.433 . S
C1614 H1610 0.929 . S
C1614 C1616 1.378 . S
C1614 C1618 1.350 . S
C1615 C1618 1.463 . S
C1615 C1620 1.350 . S
C1615 N1623 1.427 . S
C1616 H1607 0.930 . S
C1616 C1614 1.378 . S
C1616 C1617 1.367 . S
C1617 C1616 1.367 . S
C1617 C1619 1.433 . S
C1618 C1614 1.350 . S
C1618 C1615 1.463 . S
C1618 N1622 1.427 . S
C1619 H1609 0.929 . S
C1619 C1617 1.433 . S
C1619 N1622 1.384 . S
C1620 H1611 0.929 . S
C1620 C1612 1.378 . S
C1620 C1615 1.350 . S
C1621 H1608 0.929 . S
C1621 C1613 1.433 . S
C1621 N1623 1.384 . S
N1622 C1618 1.427 . S
N1622 C1619 1.384 . S
N1623 C1615 1.427 . S
N1623 C1621 1.384 . S
H1624 C1630 0.930 . S
H1625 C1634 0.930 . S
H1626 C1639 0.929 . S
H1627 C1637 0.929 . S
H1628 C1632 0.929 . S
H1629 C1638 0.929 . S
C1630 H1624 0.930 . S
C1630 C1631 1.367 . S
C1630 C1638 1.378 . S
C1631 C1630 1.367 . S
C1631 C1639 1.433 . S
C1632 H1628 0.929 . S
C1632 C1634 1.378 . S
C1632 C1636 1.350 . S
C1633 C1636 1.463 . S
C1633 C1638 1.350 . S
C1633 N1641 1.427 . S
C1634 H1625 0.930 . S
C1634 C1632 1.378 . S
C1634 C1635 1.367 . S
C1635 C1634 1.367 . S
C1635 C1637 1.433 . S
C1636 C1632 1.350 . S
C1636 C1633 1.463 . S
C1636 N1640 1.427 . S
C1637 H1627 0.929 . S
C1637 C1635 1.433 . S
C1637 N1640 1.384 . S
C1638 H1629 0.929 . S
C1638 C1630 1.378 . S
C1638 C1633 1.350 . S
C1639 H1626 0.929 . S
C1639 C1631 1.433 . S
C1639 N1641 1.384 . S
N1640 C1636 1.427 . S
N1640 C1637 1.384 . S
N1641 C1633 1.427 . S
N1641 C1639 1.384 . S
H1642 C1648 0.930 . S
H1643 C1652 0.930 . S
H1644 C1657 0.929 . S
H1645 C1655 0.929 . S
H1646 C1650 0.929 . S
H1647 C1656 0.929 . S
C1648 H1642 0.930 . S
C1648 C1649 1.367 . S
C1648 C1656 1.378 . S
C1649 C1648 1.367 . S
C1649 C1657 1.433 . S
C1650 H1646 0.929 . S
C1650 C1652 1.378 . S
C1650 C1654 1.350 . S
C1651 C1654 1.463 . S
C1651 C1656 1.350 . S
C1651 N1659 1.427 . S
C1652 H1643 0.930 . S
C1652 C1650 1.378 . S
C1652 C1653 1.367 . S
C1653 C1652 1.367 . S
C1653 C1655 1.433 . S
C1654 C1650 1.350 . S
C1654 C1651 1.463 . S
C1654 N1658 1.427 . S
C1655 H1645 0.929 . S
C1655 C1653 1.433 . S
C1655 N1658 1.384 . S
C1656 H1647 0.929 . S
C1656 C1648 1.378 . S
C1656 C1651 1.350 . S
C1657 H1644 0.929 . S
C1657 C1649 1.433 . S
C1657 N1659 1.384 . S
N1658 C1654 1.427 . S
N1658 C1655 1.384 . S
N1659 C1651 1.427 . S
N1659 C1657 1.384 . S
H1660 C1666 0.930 . S
H1661 C1670 0.930 . S
H1662 C1675 0.929 . S
H1663 C1673 0.929 . S
H1664 C1668 0.929 . S
H1665 C1674 0.929 . S
C1666 H1660 0.930 . S
C1666 C1667 1.367 . S
C1666 C1674 1.378 . S
C1667 C1666 1.367 . S
C1667 C1675 1.433 . S
C1668 H1664 0.929 . S
C1668 C1670 1.378 . S
C1668 C1672 1.350 . S
C1669 C1672 1.463 . S
C1669 C1674 1.350 . S
C1669 N1677 1.427 . S
C1670 H1661 0.930 . S
C1670 C1668 1.378 . S
C1670 C1671 1.367 . S
C1671 C1670 1.367 . S
C1671 C1673 1.433 . S
C1672 C1668 1.350 . S
C1672 C1669 1.463 . S
C1672 N1676 1.427 . S
C1673 H1663 0.929 . S
C1673 C1671 1.433 . S
C1673 N1676 1.384 . S
C1674 H1665 0.929 . S
C1674 C1666 1.378 . S
C1674 C1669 1.350 . S
C1675 H1662 0.929 . S
C1675 C1667 1.433 . S
C1675 N1677 1.384 . S
N1676 C1672 1.427 . S
N1676 C1673 1.384 . S
N1677 C1669 1.427 . S
N1677 C1675 1.384 . S
H1678 C1684 0.930 . S
H1679 C1688 0.930 . S
H1680 C1693 0.929 . S
H1681 C1691 0.929 . S
H1682 C1686 0.929 . S
H1683 C1692 0.929 . S
C1684 H1678 0.930 . S
C1684 C1685 1.367 . S
C1684 C1692 1.378 . S
C1685 C1684 1.367 . S
C1685 C1693 1.433 . S
C1686 H1682 0.929 . S
C1686 C1688 1.378 . S
C1686 C1690 1.350 . S
C1687 C1690 1.463 . S
C1687 C1692 1.350 . S
C1687 N1695 1.427 . S
C1688 H1679 0.930 . S
C1688 C1686 1.378 . S
C1688 C1689 1.367 . S
C1689 C1688 1.367 . S
C1689 C1691 1.433 . S
C1690 C1686 1.350 . S
C1690 C1687 1.463 . S
C1690 N1694 1.427 . S
C1691 H1681 0.929 . S
C1691 C1689 1.433 . S
C1691 N1694 1.384 . S
C1692 H1683 0.929 . S
C1692 C1684 1.378 . S
C1692 C1687 1.350 . S
C1693 H1680 0.929 . S
C1693 C1685 1.433 . S
C1693 N1695 1.384 . S
N1694 C1690 1.427 . S
N1694 C1691 1.384 . S
N1695 C1687 1.427 . S
N1695 C1693 1.384 . S
H1696 C1702 0.930 . S
H1697 C1706 0.930 . S
H1698 C1711 0.929 . S
H1699 C1709 0.929 . S
H1700 C1704 0.929 . S
H1701 C1710 0.929 . S
C1702 H1696 0.930 . S
C1702 C1703 1.367 . S
C1702 C1710 1.378 . S
C1703 C1702 1.367 . S
C1703 C1711 1.433 . S
C1704 H1700 0.929 . S
C1704 C1706 1.378 . S
C1704 C1708 1.350 . S
C1705 C1708 1.463 1_556 S
C1705 C1710 1.350 . S
C1705 N1713 1.426 . S
C1706 H1697 0.930 . S
C1706 C1704 1.378 . S
C1706 C1707 1.367 . S
C1707 C1706 1.367 . S
C1707 C1709 1.433 . S
C1708 C1704 1.350 . S
C1708 C1705 1.463 1_554 S
C1708 N1712 1.426 . S
C1709 H1699 0.929 . S
C1709 C1707 1.433 . S
C1709 N1712 1.382 . S
C1710 H1701 0.929 . S
C1710 C1702 1.378 . S
C1710 C1705 1.350 . S
C1711 H1698 0.929 . S
C1711 C1703 1.433 . S
C1711 N1713 1.382 . S
N1712 C1708 1.426 . S
N1712 C1709 1.382 . S
N1713 C1705 1.426 . S
N1713 C1711 1.382 . S
H1714 C1720 0.930 . S
H1715 C1724 0.930 . S
H1716 C1729 0.929 . S
H1717 C1727 0.929 . S
H1718 C1722 0.929 . S
H1719 C1728 0.929 . S
C1720 H1714 0.930 . S
C1720 C1721 1.367 . S
C1720 C1728 1.378 . S
C1721 C1720 1.367 . S
C1721 C1729 1.433 . S
C1722 H1718 0.929 . S
C1722 C1724 1.378 . S
C1722 C1726 1.350 . S
C1723 C1726 1.463 . S
C1723 C1728 1.350 . S
C1723 N1731 1.427 . S
C1724 H1715 0.930 . S
C1724 C1722 1.378 . S
C1724 C1725 1.367 . S
C1725 C1724 1.367 . S
C1725 C1727 1.433 . S
C1726 C1722 1.350 . S
C1726 C1723 1.463 . S
C1726 N1730 1.427 . S
C1727 H1717 0.929 . S
C1727 C1725 1.433 . S
C1727 N1730 1.384 . S
C1728 H1719 0.929 . S
C1728 C1720 1.378 . S
C1728 C1723 1.350 . S
C1729 H1716 0.929 . S
C1729 C1721 1.433 . S
C1729 N1731 1.384 . S
N1730 C1726 1.427 . S
N1730 C1727 1.384 . S
N1731 C1723 1.427 . S
N1731 C1729 1.384 . S
H1732 C1738 0.930 . S
H1733 C1742 0.930 . S
H1734 C1747 0.929 1_556 S
H1735 C1745 0.929 1_554 S
H1736 C1740 0.929 . S
H1737 C1746 0.929 . S
C1738 H1732 0.930 . S
C1738 C1739 1.367 . S
C1738 C1746 1.378 . S
C1739 C1738 1.367 . S
C1739 C1747 1.433 . S
C1740 H1736 0.929 . S
C1740 C1742 1.378 . S
C1740 C1744 1.350 . S
C1741 C1744 1.463 1_554 S
C1741 C1746 1.350 . S
C1741 N1749 1.427 1_554 S
C1742 H1733 0.930 . S
C1742 C1740 1.378 . S
C1742 C1743 1.367 . S
C1743 C1742 1.367 . S
C1743 C1745 1.433 . S
C1744 C1740 1.350 . S
C1744 C1741 1.463 1_556 S
C1744 N1748 1.427 1_556 S
C1745 H1735 0.929 1_556 S
C1745 C1743 1.433 . S
C1745 N1748 1.384 1_556 S
C1746 H1737 0.929 . S
C1746 C1738 1.378 . S
C1746 C1741 1.350 . S
C1747 H1734 0.929 1_554 S
C1747 C1739 1.433 . S
C1747 N1749 1.384 1_554 S
N1748 C1744 1.427 1_554 S
N1748 C1745 1.384 1_554 S
N1749 C1741 1.427 1_556 S
N1749 C1747 1.384 1_556 S
H1750 C1756 0.930 . S
H1751 C1760 0.930 . S
H1752 C1765 0.929 . S
H1753 C1763 0.929 . S
H1754 C1758 0.929 . S
H1755 C1764 0.929 . S
C1756 H1750 0.930 . S
C1756 C1757 1.367 . S
C1756 C1764 1.378 . S
C1757 C1756 1.367 . S
C1757 C1765 1.433 . S
C1758 H1754 0.929 . S
C1758 C1760 1.378 . S
C1758 C1762 1.350 . S
C1759 C1762 1.463 . S
C1759 C1764 1.350 . S
C1759 N1767 1.427 . S
C1760 H1751 0.930 . S
C1760 C1758 1.378 . S
C1760 C1761 1.367 . S
C1761 C1760 1.367 . S
C1761 C1763 1.433 . S
C1762 C1758 1.350 . S
C1762 C1759 1.463 . S
C1762 N1766 1.427 . S
C1763 H1753 0.929 . S
C1763 C1761 1.433 . S
C1763 N1766 1.384 . S
C1764 H1755 0.929 . S
C1764 C1756 1.378 . S
C1764 C1759 1.350 . S
C1765 H1752 0.929 . S
C1765 C1757 1.433 . S
C1765 N1767 1.384 . S
N1766 C1762 1.427 . S
N1766 C1763 1.384 . S
N1767 C1759 1.427 . S
N1767 C1765 1.384 . S
H1768 C1774 0.930 1_556 S
H1769 C1778 0.930 1_554 S
H1770 C1783 0.929 . S
H1771 C1781 0.929 . S
H1772 C1776 0.929 . S
H1773 C1782 0.929 . S
C1774 H1768 0.930 1_554 S
C1774 C1775 1.367 . S
C1774 C1782 1.378 1_554 S
C1775 C1774 1.367 . S
C1775 C1783 1.433 . S
C1776 H1772 0.929 . S
C1776 C1778 1.378 1_554 S
C1776 C1780 1.350 1_554 S
C1777 C1780 1.463 1_554 S
C1777 C1782 1.350 1_554 S
C1777 N1785 1.427 . S
C1778 H1769 0.930 1_556 S
C1778 C1776 1.378 1_556 S
C1778 C1779 1.367 . S
C1779 C1778 1.367 . S
C1779 C1781 1.433 . S
C1780 C1776 1.350 1_556 S
C1780 C1777 1.463 1_556 S
C1780 N1784 1.427 . S
C1781 H1771 0.929 . S
C1781 C1779 1.433 . S
C1781 N1784 1.384 . S
C1782 H1773 0.929 . S
C1782 C1774 1.378 1_556 S
C1782 C1777 1.350 1_556 S
C1783 H1770 0.929 . S
C1783 C1775 1.433 . S
C1783 N1785 1.384 . S
N1784 C1780 1.427 . S
N1784 C1781 1.384 . S
N1785 C1777 1.427 . S
N1785 C1783 1.384 . S
H1786 C1792 0.930 . S
H1787 C1796 0.930 . S
H1788 C1801 0.929 . S
H1789 C1799 0.929 . S
H1790 C1794 0.929 . S
H1791 C1800 0.929 . S
C1792 H1786 0.930 . S
C1792 C1793 1.367 . S
C1792 C1800 1.378 . S
C1793 C1792 1.367 . S
C1793 C1801 1.433 . S
C1794 H1790 0.929 . S
C1794 C1796 1.378 . S
C1794 C1798 1.350 . S
C1795 C1798 1.463 . S
C1795 C1800 1.350 . S
C1795 N1803 1.427 . S
C1796 H1787 0.930 . S
C1796 C1794 1.378 . S
C1796 C1797 1.367 . S
C1797 C1796 1.367 . S
C1797 C1799 1.433 . S
C1798 C1794 1.350 . S
C1798 C1795 1.463 . S
C1798 N1802 1.427 . S
C1799 H1789 0.929 . S
C1799 C1797 1.433 . S
C1799 N1802 1.384 . S
C1800 H1791 0.929 . S
C1800 C1792 1.378 . S
C1800 C1795 1.350 . S
C1801 H1788 0.929 . S
C1801 C1793 1.433 . S
C1801 N1803 1.384 . S
N1802 C1798 1.427 . S
N1802 C1799 1.384 . S
N1803 C1795 1.427 . S
N1803 C1801 1.384 . S
H1804 C1810 0.930 . S
H1805 C1814 0.930 . S
H1806 C1819 0.929 . S
H1807 C1817 0.929 . S
H1808 C1812 0.929 . S
H1809 C1818 0.929 . S
C1810 H1804 0.930 . S
C1810 C1811 1.367 . S
C1810 C1818 1.378 . S
C1811 C1810 1.367 . S
C1811 C1819 1.433 . S
C1812 H1808 0.929 . S
C1812 C1814 1.378 . S
C1812 C1816 1.350 . S
C1813 C1816 1.463 1_554 S
C1813 C1818 1.350 . S
C1813 N1821 1.427 . S
C1814 H1805 0.930 . S
C1814 C1812 1.378 . S
C1814 C1815 1.367 . S
C1815 C1814 1.367 . S
C1815 C1817 1.433 . S
C1816 C1812 1.350 . S
C1816 C1813 1.463 1_556 S
C1816 N1820 1.427 . S
C1817 H1807 0.929 . S
C1817 C1815 1.433 . S
C1817 N1820 1.384 . S
C1818 H1809 0.929 . S
C1818 C1810 1.378 . S
C1818 C1813 1.350 . S
C1819 H1806 0.929 . S
C1819 C1811 1.433 . S
C1819 N1821 1.384 . S
N1820 C1816 1.427 . S
N1820 C1817 1.384 . S
N1821 C1813 1.427 . S
N1821 C1819 1.384 . S
H1822 C1828 0.930 . S
H1823 C1832 0.930 . S
H1824 C1837 0.929 . S
H1825 C1835 0.929 . S
H1826 C1830 0.929 . S
H1827 C1836 0.929 . S
C1828 H1822 0.930 . S
C1828 C1829 1.367 . S
C1828 C1836 1.378 . S
C1829 C1828 1.367 . S
C1829 C1837 1.433 . S
C1830 H1826 0.929 . S
C1830 C1832 1.378 . S
C1830 C1834 1.350 . S
C1831 C1834 1.463 . S
C1831 C1836 1.350 . S
C1831 N1839 1.427 . S
C1832 H1823 0.930 . S
C1832 C1830 1.378 . S
C1832 C1833 1.367 . S
C1833 C1832 1.367 . S
C1833 C1835 1.433 . S
C1834 C1830 1.350 . S
C1834 C1831 1.463 . S
C1834 N1838 1.427 . S
C1835 H1825 0.929 . S
C1835 C1833 1.433 . S
C1835 N1838 1.384 . S
C1836 H1827 0.929 . S
C1836 C1828 1.378 . S
C1836 C1831 1.350 . S
C1837 H1824 0.929 . S
C1837 C1829 1.433 . S
C1837 N1839 1.384 . S
N1838 C1834 1.427 . S
N1838 C1835 1.384 . S
N1839 C1831 1.427 . S
N1839 C1837 1.384 . S
H1840 C1846 0.930 . S
H1841 C1850 0.930 . S
H1842 C1855 0.929 . S
H1843 C1853 0.929 . S
H1844 C1848 0.929 1_556 S
H1845 C1854 0.929 1_554 S
C1846 H1840 0.930 . S
C1846 C1847 1.367 . S
C1846 C1854 1.378 . S
C1847 C1846 1.367 . S
C1847 C1855 1.433 . S
C1848 H1844 0.929 1_554 S
C1848 C1850 1.378 . S
C1848 C1852 1.350 . S
C1849 C1852 1.463 1_556 S
C1849 C1854 1.350 . S
C1849 N1857 1.427 . S
C1850 H1841 0.930 . S
C1850 C1848 1.378 . S
C1850 C1851 1.367 . S
C1851 C1850 1.367 . S
C1851 C1853 1.433 . S
C1852 C1848 1.350 . S
C1852 C1849 1.463 1_554 S
C1852 N1856 1.427 . S
C1853 H1843 0.929 . S
C1853 C1851 1.433 . S
C1853 N1856 1.384 . S
C1854 H1845 0.929 1_556 S
C1854 C1846 1.378 . S
C1854 C1849 1.350 . S
C1855 H1842 0.929 . S
C1855 C1847 1.433 . S
C1855 N1857 1.384 . S
N1856 C1852 1.427 . S
N1856 C1853 1.384 . S
N1857 C1849 1.427 . S
N1857 C1855 1.384 . S
H1858 C1864 0.930 . S
H1859 C1868 0.930 . S
H1860 C1873 0.929 . S
H1861 C1871 0.929 . S
H1862 C1866 0.929 . S
H1863 C1872 0.929 . S
C1864 H1858 0.930 . S
C1864 C1865 1.367 . S
C1864 C1872 1.378 . S
C1865 C1864 1.367 . S
C1865 C1873 1.433 . S
C1866 H1862 0.929 . S
C1866 C1868 1.378 . S
C1866 C1870 1.350 . S
C1867 C1870 1.463 . S
C1867 C1872 1.350 . S
C1867 N1875 1.427 . S
C1868 H1859 0.930 . S
C1868 C1866 1.378 . S
C1868 C1869 1.367 . S
C1869 C1868 1.367 . S
C1869 C1871 1.433 . S
C1870 C1866 1.350 . S
C1870 C1867 1.463 . S
C1870 N1874 1.427 . S
C1871 H1861 0.929 . S
C1871 C1869 1.433 . S
C1871 N1874 1.384 . S
C1872 H1863 0.929 . S
C1872 C1864 1.378 . S
C1872 C1867 1.350 . S
C1873 H1860 0.929 . S
C1873 C1865 1.433 . S
C1873 N1875 1.384 . S
N1874 C1870 1.427 . S
N1874 C1871 1.384 . S
N1875 C1867 1.427 . S
N1875 C1873 1.384 . S
H1876 C1882 0.930 . S
H1877 C1886 0.930 . S
H1878 C1891 0.929 . S
H1879 C1889 0.929 . S
H1880 C1884 0.929 . S
H1881 C1890 0.929 . S
C1882 H1876 0.930 . S
C1882 C1883 1.367 . S
C1882 C1890 1.378 1_554 S
C1883 C1882 1.367 . S
C1883 C1891 1.433 . S
C1884 H1880 0.929 . S
C1884 C1886 1.378 1_554 S
C1884 C1888 1.350 1_554 S
C1885 C1888 1.463 1_554 S
C1885 C1890 1.350 1_554 S
C1885 N1893 1.427 . S
C1886 H1877 0.930 . S
C1886 C1884 1.378 1_556 S
C1886 C1887 1.367 . S
C1887 C1886 1.367 . S
C1887 C1889 1.433 . S
C1888 C1884 1.350 1_556 S
C1888 C1885 1.463 1_556 S
C1888 N1892 1.427 . S
C1889 H1879 0.929 . S
C1889 C1887 1.433 . S
C1889 N1892 1.384 . S
C1890 H1881 0.929 . S
C1890 C1882 1.378 1_556 S
C1890 C1885 1.350 1_556 S
C1891 H1878 0.929 . S
C1891 C1883 1.433 . S
C1891 N1893 1.384 . S
N1892 C1888 1.427 . S
N1892 C1889 1.384 . S
N1893 C1885 1.427 . S
N1893 C1891 1.384 . S
H1894 C1900 0.930 . S
H1895 C1904 0.930 . S
H1896 C1909 0.929 . S
H1897 C1907 0.929 . S
H1898 C1902 0.929 . S
H1899 C1908 0.929 . S
C1900 H1894 0.930 . S
C1900 C1901 1.367 . S
C1900 C1908 1.378 . S
C1901 C1900 1.367 . S
C1901 C1909 1.433 . S
C1902 H1898 0.929 . S
C1902 C1904 1.378 . S
C1902 C1906 1.350 . S
C1903 C1906 1.463 . S
C1903 C1908 1.350 . S
C1903 N1911 1.427 . S
C1904 H1895 0.930 . S
C1904 C1902 1.378 . S
C1904 C1905 1.367 . S
C1905 C1904 1.367 . S
C1905 C1907 1.433 . S
C1906 C1902 1.350 . S
C1906 C1903 1.463 . S
C1906 N1910 1.427 . S
C1907 H1897 0.929 . S
C1907 C1905 1.433 . S
C1907 N1910 1.384 . S
C1908 H1899 0.929 . S
C1908 C1900 1.378 . S
C1908 C1903 1.350 . S
C1909 H1896 0.929 . S
C1909 C1901 1.433 . S
C1909 N1911 1.384 . S
N1910 C1906 1.427 . S
N1910 C1907 1.384 . S
N1911 C1903 1.427 . S
N1911 C1909 1.384 . S
H1912 C1918 0.930 . S
H1913 C1922 0.930 . S
H1914 C1927 0.929 . S
H1915 C1925 0.929 . S
H1916 C1920 0.929 . S
H1917 C1926 0.929 . S
C1918 H1912 0.930 . S
C1918 C1919 1.367 . S
C1918 C1926 1.378 . S
C1919 C1918 1.367 . S
C1919 C1927 1.433 . S
C1920 H1916 0.929 . S
C1920 C1922 1.378 . S
C1920 C1924 1.350 . S
C1921 C1924 1.463 1_546 S
C1921 C1926 1.350 . S
C1921 N1929 1.427 . S
C1922 H1913 0.930 . S
C1922 C1920 1.378 . S
C1922 C1923 1.367 . S
C1923 C1922 1.367 . S
C1923 C1925 1.433 . S
C1924 C1920 1.350 . S
C1924 C1921 1.463 1_564 S
C1924 N1928 1.427 . S
C1925 H1915 0.929 . S
C1925 C1923 1.433 . S
C1925 N1928 1.384 . S
C1926 H1917 0.929 . S
C1926 C1918 1.378 . S
C1926 C1921 1.350 . S
C1927 H1914 0.929 . S
C1927 C1919 1.433 . S
C1927 N1929 1.384 . S
N1928 C1924 1.427 . S
N1928 C1925 1.384 . S
N1929 C1921 1.427 . S
N1929 C1927 1.384 . S
H1930 C1936 0.930 . S
H1931 C1940 0.930 . S
H1932 C1945 0.929 . S
H1933 C1943 0.929 . S
H1934 C1938 0.929 . S
H1935 C1944 0.929 . S
C1936 H1930 0.930 . S
C1936 C1937 1.367 . S
C1936 C1944 1.378 . S
C1937 C1936 1.367 . S
C1937 C1945 1.433 . S
C1938 H1934 0.929 . S
C1938 C1940 1.378 . S
C1938 C1942 1.350 . S
C1939 C1942 1.463 1_565 S
C1939 C1944 1.350 . S
C1939 N1947 1.427 . S
C1940 H1931 0.930 . S
C1940 C1938 1.378 . S
C1940 C1941 1.367 . S
C1941 C1940 1.367 . S
C1941 C1943 1.433 . S
C1942 C1938 1.350 . S
C1942 C1939 1.463 1_545 S
C1942 N1946 1.427 . S
C1943 H1933 0.929 . S
C1943 C1941 1.433 . S
C1943 N1946 1.384 . S
C1944 H1935 0.929 . S
C1944 C1936 1.378 . S
C1944 C1939 1.350 . S
C1945 H1932 0.929 . S
C1945 C1937 1.433 . S
C1945 N1947 1.384 . S
N1946 C1942 1.427 . S
N1946 C1943 1.384 . S
N1947 C1939 1.427 . S
N1947 C1945 1.384 . S
H1948 C1954 0.942 . S
H1949 C1958 0.942 . S
H1950 C1963 0.929 . S
H1951 C1961 0.929 . S
H1952 C1956 0.929 . S
H1953 C1962 0.929 . S
C1954 H1948 0.942 . S
C1954 C1955 1.367 . S
C1954 C1962 1.378 1_554 S
C1955 C1954 1.367 . S
C1955 C1963 1.433 . S
C1956 H1952 0.929 . S
C1956 C1958 1.378 1_554 S
C1956 C1960 1.350 1_554 S
C1957 C1960 1.463 1_564 S
C1957 C1962 1.350 1_554 S
C1957 N1965 1.427 . S
C1958 H1949 0.942 . S
C1958 C1956 1.378 1_556 S
C1958 C1959 1.367 . S
C1959 C1958 1.367 . S
C1959 C1961 1.433 . S
C1960 C1956 1.350 1_556 S
C1960 C1957 1.463 1_546 S
C1960 N1964 1.427 . S
C1961 H1951 0.929 . S
C1961 C1959 1.433 . S
C1961 N1964 1.384 . S
C1962 H1953 0.929 . S
C1962 C1954 1.378 1_556 S
C1962 C1957 1.350 1_556 S
C1963 H1950 0.929 . S
C1963 C1955 1.433 . S
C1963 N1965 1.384 . S
N1964 C1960 1.427 . S
N1964 C1961 1.384 . S
N1965 C1957 1.427 . S
N1965 C1963 1.384 . S
H1966 C1972 0.930 . S
H1967 C1976 0.930 . S
H1968 C1981 0.929 . S
H1969 C1979 0.929 . S
H1970 C1974 0.929 . S
H1971 C1980 0.929 . S
C1972 H1966 0.930 . S
C1972 C1973 1.367 . S
C1972 C1980 1.378 . S
C1973 C1972 1.367 . S
C1973 C1981 1.433 . S
C1974 H1970 0.929 . S
C1974 C1976 1.378 . S
C1974 C1978 1.350 . S
C1975 C1978 1.463 1_545 S
C1975 C1980 1.350 . S
C1975 N1983 1.427 . S
C1976 H1967 0.930 . S
C1976 C1974 1.378 . S
C1976 C1977 1.367 . S
C1977 C1976 1.367 . S
C1977 C1979 1.433 . S
C1978 C1974 1.350 . S
C1978 C1975 1.463 1_565 S
C1978 N1982 1.427 . S
C1979 H1969 0.929 . S
C1979 C1977 1.433 . S
C1979 N1982 1.384 . S
C1980 H1971 0.929 . S
C1980 C1972 1.378 . S
C1980 C1975 1.350 . S
C1981 H1968 0.929 . S
C1981 C1973 1.433 . S
C1981 N1983 1.384 . S
N1982 C1978 1.427 . S
N1982 C1979 1.384 . S
N1983 C1975 1.427 . S
N1983 C1981 1.384 . S
C1415 C57 1.524 . S
C1419 C557 1.527 . S
C1433 C145 1.527 . S
C1437 C645 1.524 . S
C1451 C401 1.527 . S
C1455 C205 1.524 . S
C1469 C497 1.527 . S
C1473 C293 1.524 . S
C1487 C1261 1.524 . S
C1491 C761 1.526 . S
C1505 C1340 1.527 . S
C1509 C841 1.524 . S
C1523 C909 1.527 . S
C1527 C1105 1.524 . S
C1541 C988 1.527 . S
C1545 C1193 1.524 . S
C1559 C20 1.431 . S
C1563 C489 1.433 . S
C1577 C108 1.431 . S
C1581 C409 1.433 . S
C1595 C225 1.430 . S
C1599 C636 1.435 . S
C1613 C548 1.432 . S
C1617 C313 1.432 . S
C1631 C1201 1.434 . S
C1635 C724 1.430 . S
C1649 C1113 1.430 . S
C1653 C821 1.434 . S
C1667 C929 1.435 . S
C1671 C1349 1.428 . S
C1685 C1252 1.428 . S
C1689 C1025 1.436 . S
C1703 C1076 1.178 . S
C1707 C29 1.178 . S
C1721 C117 1.180 . S
C1725 C1164 1.180 . S
C1739 C1289 1.183 . S
C1743 C233 1.183 . S
C1757 C1369 1.177 . S
C1761 C321 1.177 . S
C1775 C733 1.181 . S
C1779 C372 1.181 . S
C1793 C812 1.185 . S
C1797 C469 1.185 . S
C1811 C585 1.177 . S
C1815 C937 1.176 . S
C1829 C673 1.179 . S
C1833 C1017 1.179 . S
C1847 C196 1.430 . S
C1851 C49 1.436 . S
C1865 C137 1.436 . S
C1869 C284 1.430 . S
C1883 C577 1.436 . S
C1887 C381 1.432 . S
C1901 C460 1.437 . S
C1905 C665 1.432 . S
C1919 C900 1.437 . S
C1923 C753 1.429 . S
C1937 C997 1.431 . S
C1941 C849 1.435 . S
C1955 C1281 1.436 . S
C1959 C1085 1.433 . S
C1973 C1377 1.431 . S
C1977 C1173 1.438 . S
