# Generated by pormake.
# Topology tsi, (8)-cn, num edge types: 1
# Building blocks:
#     Node 0, Type 0, BuildingBlock: TAGTUT_clean_sbu_1, # of connection points: 8
#     Node 1, Type 0, BuildingBlock: TAGTUT_clean_sbu_1, # of connection points: 8
#     Node 2, Type 0, BuildingBlock: TAGTUT_clean_sbu_1, # of connection points: 8
#     Node 3, Type 0, BuildingBlock: TAGTUT_clean_sbu_1, # of connection points: 8
#     Edge 4, Type (0, 0), BuildingBlock: TEMPAE_clean_linker_10, # of connection points: 2
#     Edge 5, Type (0, 0), BuildingBlock: TEMPAE_clean_linker_10, # of connection points: 2
#     Edge 6, Type (0, 0), BuildingBlock: TEMPAE_clean_linker_10, # of connection points: 2
#     Edge 7, Type (0, 0), BuildingBlock: TEMPAE_clean_linker_10, # of connection points: 2
#     Edge 8, Type (0, 0), BuildingBlock: TEMPAE_clean_linker_10, # of connection points: 2
#     Edge 9, Type (0, 0), BuildingBlock: TEMPAE_clean_linker_10, # of connection points: 2
#     Edge 10, Type (0, 0), BuildingBlock: TEMPAE_clean_linker_10, # of connection points: 2
#     Edge 11, Type (0, 0), BuildingBlock: TEMPAE_clean_linker_10, # of connection points: 2
#     Edge 12, Type (0, 0), BuildingBlock: TEMPAE_clean_linker_10, # of connection points: 2
#     Edge 13, Type (0, 0), BuildingBlock: TEMPAE_clean_linker_10, # of connection points: 2
#     Edge 14, Type (0, 0), BuildingBlock: TEMPAE_clean_linker_10, # of connection points: 2
#     Edge 15, Type (0, 0), BuildingBlock: TEMPAE_clean_linker_10, # of connection points: 2
#     Edge 16, Type (0, 0), BuildingBlock: TEMPAE_clean_linker_10, # of connection points: 2
#     Edge 17, Type (0, 0), BuildingBlock: TEMPAE_clean_linker_10, # of connection points: 2
#     Edge 18, Type (0, 0), BuildingBlock: TEMPAE_clean_linker_10, # of connection points: 2
#     Edge 19, Type (0, 0), BuildingBlock: TEMPAE_clean_linker_10, # of connection points: 2
# Relax obj value: 0.135
# Max RMSD: 0.248
# Mean RMSD: 0.248
data_MOF--net-tsi--node1-TAGTUT_clean_sbu_1--edge1-TEMPAE_clean_linker_10
_symmetry_space_group_name_H-M    P1
_symmetry_Int_Tables_number       1
_symmetry_cell_setting            triclinic
loop_
_symmetry_equiv_pos_as_xyz
'x, y, z'
_cell_length_a     15.402742
_cell_length_b     16.127842
_cell_length_c     67.344282
_cell_angle_alpha  93.473018
_cell_angle_beta   91.621007
_cell_angle_gamma 111.50441
loop_
_atom_site_label
_atom_site_type_symbol
_atom_site_fract_x
_atom_site_fract_y
_atom_site_fract_z
_atom_type_partial_charge
C0 C 0.0659 0.20146 0.4337 0.0
C1 C 0.0017 0.39788 0.41124 0.0
C2 C 0.80727 0.13818 0.35087 0.0
Mg3 Mg 0.14946 0.32893 0.40038 0.0
O4 O 0.0584 0.23531 0.38514 0.0
Mg5 Mg 0.9266 0.18325 0.39325 0.0
Mg6 Mg 0.03029 0.24444 0.35658 0.0
O7 O 0.00365 0.24723 0.32786 0.0
Mg8 Mg 0.94393 0.12786 0.3178 0.0
Mg9 Mg 0.13357 0.30804 0.3191 0.0
C10 C 0.26124 0.32365 0.36189 0.0
C11 C 0.07331 0.45053 0.3466 0.0
O12 O 0.98769 0.16969 0.42354 0.0
O13 O 0.13928 0.2605 0.42751 0.0
O14 O 0.9343 0.32243 0.40716 0.0
O15 O 0.07653 0.41862 0.40181 0.0
O16 O 0.26431 0.34212 0.38078 0.0
O17 O 0.1841 0.29647 0.35137 0.0
C18 C 0.97582 0.03572 0.36547 0.0
O19 O 0.0162 0.09673 0.35381 0.0
O20 O 0.93516 0.05119 0.3808 0.0
O21 O 0.05702 0.29687 0.28738 0.0
O22 O 0.93131 0.16901 0.28936 0.0
O23 O 0.15372 0.18103 0.30841 0.0
C24 C 0.98126 0.2346 0.27983 0.0
O25 O 0.03557 0.05495 0.31256 0.0
O26 O 0.82083 0.09454 0.3354 0.0
C27 C 0.11762 0.09605 0.30686 0.0
O28 O 0.87534 0.19758 0.36131 0.0
O29 O 0.04124 0.3906 0.359 0.0
O30 O 0.11078 0.43566 0.33067 0.0
C31 C 0.952 0.59671 0.68849 0.0
C32 C 0.83377 0.7702 0.6676 0.0
C33 C 0.74113 0.62412 0.60156 0.0
Mg34 Mg 0.01876 0.74669 0.65946 0.0
O35 O 0.95902 0.64155 0.64283 0.0
Mg36 Mg 0.82451 0.57345 0.64599 0.0
Mg37 Mg 0.957 0.665 0.61459 0.0
O38 O 0.95923 0.69918 0.5868 0.0
Mg39 Mg 0.8769 0.63821 0.56564 0.0
Mg40 Mg 0.09601 0.75817 0.58472 0.0
C41 C 0.17629 0.75996 0.62887 0.0
C42 C 0.02551 0.88128 0.61452 0.0
O43 O 0.87689 0.5509 0.67778 0.0
O44 O 0.01218 0.67055 0.68378 0.0
O45 O 0.79809 0.68994 0.66014 0.0
O46 O 0.92208 0.81398 0.66763 0.0
O47 O 0.15599 0.78748 0.64585 0.0
O48 O 0.11284 0.71209 0.61578 0.0
C49 C 0.9075 0.45312 0.61802 0.0
O50 O 0.94897 0.51955 0.60776 0.0
O51 O 0.85714 0.45901 0.63235 0.0
O52 O 0.06806 0.81307 0.55599 0.0
O53 O 0.91953 0.73954 0.54435 0.0
O54 O 0.08906 0.63097 0.56548 0.0
C55 C 0.00011 0.80122 0.54342 0.0
O56 O 0.93886 0.54211 0.5578 0.0
O57 O 0.75551 0.63074 0.5829 0.0
C58 C 0.02678 0.56086 0.55642 0.0
O59 O 0.79883 0.61004 0.61368 0.0
O60 O 0.96829 0.81063 0.6215 0.0
O61 O 0.08441 0.87763 0.60183 0.0
C62 C 0.65115 0.75549 0.93448 0.0
C63 C 0.557 0.96118 0.92415 0.0
C64 C 0.32339 0.71371 0.86522 0.0
Mg65 Mg 0.69595 0.89596 0.9031 0.0
O66 O 0.59471 0.80298 0.89025 0.0
Mg67 Mg 0.47453 0.74711 0.90322 0.0
Mg68 Mg 0.54475 0.8083 0.86362 0.0
O69 O 0.49581 0.80597 0.83679 0.0
Mg70 Mg 0.39271 0.71653 0.82434 0.0
Mg71 Mg 0.60426 0.86635 0.8216 0.0
C72 C 0.77359 0.89422 0.85904 0.0
C73 C 0.57867 0.01219 0.85389 0.0
O74 O 0.56527 0.72608 0.92814 0.0
O75 O 0.71579 0.81928 0.92699 0.0
O76 O 0.49559 0.88255 0.91997 0.0
O77 O 0.63763 0.98612 0.91685 0.0
O78 O 0.78774 0.91975 0.87776 0.0
O79 O 0.6905 0.85309 0.85104 0.0
C80 C 0.49274 0.59917 0.87107 0.0
O81 O 0.52788 0.66084 0.85931 0.0
O82 O 0.46273 0.61504 0.88775 0.0
O83 O 0.48873 0.86048 0.79586 0.0
O84 O 0.36645 0.82765 0.81455 0.0
O85 O 0.60258 0.7342 0.80699 0.0
C86 C 0.40049 0.84353 0.79765 0.0
O87 O 0.45073 0.66405 0.79915 0.0
O88 O 0.33634 0.66005 0.85189 0.0
C89 C 0.53629 0.68277 0.79504 0.0
O90 O 0.39484 0.77014 0.87539 0.0
O91 O 0.56199 0.95679 0.86746 0.0
O92 O 0.59676 0.9923 0.83625 0.0
C93 C 0.48692 0.16086 0.19111 0.0
C94 C 0.3482 0.31848 0.18658 0.0
C95 C 0.2581 0.23614 0.11014 0.0
Mg96 Mg 0.53188 0.33402 0.17078 0.0
O97 O 0.46957 0.24034 0.15087 0.0
Mg98 Mg 0.3372 0.16556 0.1531 0.0
Mg99 Mg 0.47191 0.26953 0.12325 0.0
O100 O 0.47812 0.30912 0.09583 0.0
Mg101 Mg 0.39538 0.24971 0.07478 0.0
Mg102 Mg 0.61567 0.35736 0.09447 0.0
C103 C 0.68883 0.36037 0.13946 0.0
C104 C 0.54569 0.48575 0.12337 0.0
O105 O 0.409 0.12395 0.18072 0.0
O106 O 0.54208 0.24119 0.18966 0.0
O107 O 0.31843 0.28587 0.16897 0.0
O108 O 0.43361 0.37149 0.18905 0.0
O109 O 0.66799 0.38436 0.15678 0.0
O110 O 0.62609 0.31408 0.12604 0.0
C111 C 0.41884 0.05335 0.12327 0.0
O112 O 0.4657 0.12473 0.11507 0.0
O113 O 0.36279 0.05345 0.13676 0.0
O114 O 0.59757 0.40822 0.06479 0.0
O115 O 0.44855 0.34748 0.0528 0.0
O116 O 0.60247 0.22582 0.07533 0.0
C117 C 0.53354 0.40031 0.05154 0.0
O118 O 0.44884 0.14496 0.07062 0.0
O119 O 0.27512 0.24794 0.09173 0.0
C120 C 0.53375 0.15973 0.06661 0.0
O121 O 0.3125 0.21552 0.12187 0.0
O122 O 0.48682 0.41612 0.13053 0.0
O123 O 0.60533 0.48017 0.11095 0.0
C124 C 0.09712 0.43524 0.44311 0.0
C125 C 0.01481 0.42957 0.43256 0.0
C126 C 0.10597 0.44701 0.46391 0.0
C127 C 0.03343 0.45981 0.47445 0.0
C128 C 0.95159 0.4581 0.46389 0.0
C129 C 0.94207 0.44027 0.44305 0.0
C130 C 0.19216 0.44382 0.4746 0.0
C131 C 0.87443 0.47546 0.47459 0.0
C132 C 0.00863 0.43847 0.53013 0.0
C133 C 0.0525 0.52783 0.53751 0.0
C134 C 0.00763 0.41391 0.50969 0.0
C135 C 0.04617 0.48125 0.49636 0.0
C136 C 0.09411 0.57079 0.50393 0.0
C137 C 0.0991 0.59236 0.52445 0.0
C138 C 0.96179 0.31682 0.50225 0.0
C139 C 0.13299 0.64531 0.49026 0.0
H140 H 0.15344 0.42603 0.43515 0.0
H141 H 0.8781 0.4348 0.43497 0.0
H142 H 0.23278 0.50974 0.48249 0.0
H143 H 0.17165 0.39424 0.486 0.0
H144 H 0.2384 0.42564 0.46426 0.0
H145 H 0.81723 0.47531 0.46414 0.0
H146 H 0.84458 0.42376 0.48522 0.0
H147 H 0.90305 0.54114 0.48336 0.0
H148 H 0.97157 0.38881 0.54016 0.0
H149 H 0.13094 0.66203 0.52999 0.0
H150 H 0.00825 0.29755 0.49221 0.0
H151 H 0.89602 0.30606 0.49349 0.0
H152 H 0.94534 0.27202 0.51465 0.0
H153 H 0.18247 0.63124 0.48021 0.0
H154 H 0.16972 0.71124 0.4986 0.0
H155 H 0.07514 0.64996 0.48075 0.0
C156 C 0.51424 0.72057 0.76061 0.0
C157 C 0.55808 0.68202 0.77375 0.0
C158 C 0.55219 0.75066 0.74252 0.0
C159 C 0.63181 0.73403 0.73637 0.0
C160 C 0.6699 0.6854 0.74859 0.0
C161 C 0.63558 0.66394 0.76753 0.0
C162 C 0.50801 0.80373 0.73092 0.0
C163 C 0.74761 0.6567 0.74181 0.0
C164 C 0.67881 0.74011 0.68131 0.0
C165 C 0.77423 0.79494 0.682 0.0
C166 C 0.6304 0.72051 0.6988 0.0
C167 C 0.67484 0.76531 0.71719 0.0
C168 C 0.76427 0.83491 0.71719 0.0
C169 C 0.81427 0.84705 0.69969 0.0
C170 C 0.53487 0.64662 0.69756 0.0
C171 C 0.81071 0.89316 0.73578 0.0
H172 H 0.45423 0.73422 0.76517 0.0
H173 H 0.67006 0.63419 0.77758 0.0
H174 H 0.54726 0.83366 0.71796 0.0
H175 H 0.43576 0.75988 0.7257 0.0
H176 H 0.50212 0.85856 0.74091 0.0
H177 H 0.75505 0.60386 0.75078 0.0
H178 H 0.735 0.63117 0.72588 0.0
H179 H 0.81445 0.71489 0.74334 0.0
H180 H 0.64577 0.70233 0.66745 0.0
H181 H 0.88699 0.89154 0.70042 0.0
H182 H 0.48041 0.67635 0.69786 0.0
H183 H 0.52571 0.60409 0.71028 0.0
H184 H 0.52243 0.60296 0.68354 0.0
H185 H 0.84772 0.96318 0.73203 0.0
H186 H 0.86426 0.87007 0.74219 0.0
H187 H 0.76016 0.89272 0.74723 0.0
C188 C 0.66024 0.62304 0.94896 0.0
C189 C 0.67278 0.71344 0.95142 0.0
C190 C 0.64954 0.57219 0.96544 0.0
C191 C 0.64939 0.61309 0.98462 0.0
C192 C 0.669 0.70614 0.98725 0.0
C193 C 0.68081 0.7556 0.97048 0.0
C194 C 0.63061 0.47345 0.96214 0.0
C195 C 0.669 0.75181 0.0075 0.0
C196 C 0.49521 0.46679 0.02152 0.0
C197 C 0.56157 0.45275 0.03408 0.0
C198 C 0.52311 0.51921 0.0053 0.0
C199 C 0.61931 0.55705 0.00154 0.0
C200 C 0.68631 0.54143 0.0139 0.0
C201 C 0.65666 0.48971 0.03007 0.0
C202 C 0.44985 0.5349 -0.00767 0.0
C203 C 0.78918 0.57959 0.01007 0.0
H204 H 0.65255 0.59088 0.93404 0.0
H205 H 0.68831 0.82527 0.97214 0.0
H206 H 0.67298 0.45306 0.97303 0.0
H207 H 0.55598 0.43467 0.96445 0.0
H208 H 0.646 0.45502 0.94684 0.0
H209 H 0.69826 0.82579 0.00735 0.0
H210 H 0.59621 0.73113 0.0123 0.0
H211 H 0.70993 0.73176 0.01877 0.0
H212 H 0.42179 0.43817 0.02454 0.0
H213 H 0.70838 0.47797 0.03956 0.0
H214 H 0.45205 0.50992 0.97671 0.0
H215 H 0.46463 0.60763 -0.00763 0.0
H216 H 0.37816 0.5012 -0.00262 0.0
H217 H 0.80072 0.557 -0.00517 0.0
H218 H 0.83211 0.55951 0.02092 0.0
H219 H 0.81436 0.65364 0.01092 0.0
C220 C 0.90911 0.28913 0.25263 0.0
C221 C 0.9481 0.22903 0.25901 0.0
C222 C 0.83571 0.2607 0.23784 0.0
C223 C 0.79834 0.16945 0.23037 0.0
C224 C 0.84537 0.11224 0.23514 0.0
C225 C 0.92204 0.14441 0.24885 0.0
C226 C 0.79302 0.32621 0.23155 0.0
C227 C 0.81118 0.01469 0.22768 0.0
C228 C 0.53895 0.10807 0.22079 0.0
C229 C 0.53352 0.10713 0.20007 0.0
C230 C 0.62357 0.1183 0.23092 0.0
C231 C 0.70445 0.13254 0.21992 0.0
C232 C 0.69542 0.11879 0.19894 0.0
C233 C 0.60817 0.10135 0.18931 0.0
C234 C 0.62793 0.12259 0.25339 0.0
C235 C 0.77939 0.13316 0.18659 0.0
H236 H 0.92908 0.35471 0.26045 0.0
H237 H 0.9519 0.09821 0.25413 0.0
H238 H 0.77222 0.31459 0.21539 0.0
H239 H 0.72941 0.3173 0.23985 0.0
H240 H 0.84231 0.39638 0.23473 0.0
H241 H 0.80995 0.97289 0.24027 0.0
H242 H 0.74068 0.98945 0.22006 0.0
H243 H 0.86127 0.00485 0.21713 0.0
H244 H 0.48083 0.11106 0.22908 0.0
H245 H 0.60387 0.10113 0.1732 0.0
H246 H 0.64794 0.19303 0.25942 0.0
H247 H 0.68037 0.09659 0.25922 0.0
H248 H 0.55884 0.08349 0.25901 0.0
H249 H 0.83139 0.20197 0.19005 0.0
H250 H 0.76065 0.12359 0.17033 0.0
H251 H 0.81359 0.08598 0.19028 0.0
C252 C 0.26944 0.16891 0.20007 0.0
C253 C 0.30678 0.26247 0.20322 0.0
C254 C 0.25034 0.1143 0.2161 0.0
C255 C 0.24915 0.15268 0.23552 0.0
C256 C 0.27331 0.24711 0.23829 0.0
C257 C 0.30793 0.30101 0.22242 0.0
C258 C 0.23677 0.01721 0.21183 0.0
C259 C 0.26308 0.29241 0.25791 0.0
C260 C 0.09529 0.01783 0.27391 0.0
C261 C 0.15502 0.0545 0.29088 0.0
C262 C 0.12687 0.0401 0.25484 0.0
C263 C 0.22161 0.0965 0.25295 0.0
C264 C 0.28579 0.11212 0.2696 0.0
C265 C 0.25147 0.09111 0.28848 0.0
C266 C 0.05645 0.00912 0.23729 0.0
C267 C 0.38983 0.15879 0.26823 0.0
H268 H 0.26093 0.13772 0.18512 0.0
H269 H 0.33296 0.3732 0.22491 0.0
H270 H 0.23216 0.9807 0.22542 0.0
H271 H 0.17313 0.98352 0.20189 0.0
H272 H 0.29622 0.01218 0.2036 0.0
H273 H 0.25192 0.35553 0.25564 0.0
H274 H 0.20361 0.2487 0.26597 0.0
H275 H 0.32807 0.30984 0.26743 0.0
H276 H 0.02093 0.9851 0.27568 0.0
H277 H 0.2989 0.11609 0.30156 0.0
H278 H 0.06908 0.95608 0.22803 0.0
H279 H 0.06156 0.06489 0.22793 0.0
H280 H 0.98375 0.9784 0.24196 0.0
H281 H 0.42559 0.1154 0.27372 0.0
H282 H 0.41522 0.22127 0.27819 0.0
H283 H 0.41069 0.17489 0.25291 0.0
C284 C 0.9587 0.61202 0.72437 0.0
C285 C 0.97605 0.5683 0.70728 0.0
C286 C 0.0273 0.64722 0.73992 0.0
C287 C 0.11426 0.6369 0.73818 0.0
C288 C 0.12566 0.58001 0.72249 0.0
C289 C 0.05506 0.54478 0.7073 0.0
C290 C 0.00965 0.704 0.75681 0.0
C291 C 0.21603 0.56445 0.72053 0.0
C292 C 0.32528 0.82683 0.76305 0.0
C293 C 0.33386 0.79171 0.78113 0.0
C294 C 0.25535 0.77586 0.74849 0.0
C295 C 0.19403 0.68849 0.75228 0.0
C296 C 0.20506 0.65215 0.77018 0.0
C297 C 0.27432 0.704 0.78429 0.0
C298 C 0.24491 0.81618 0.72937 0.0
C299 C 0.14068 0.56006 0.77493 0.0
H300 H 0.89821 0.63097 0.72419 0.0
H301 H 0.0685 0.51107 0.69398 0.0
H302 H 0.05379 0.70942 0.77047 0.0
H303 H 0.02443 0.77229 0.75202 0.0
H304 H 0.93536 0.67614 0.76064 0.0
H305 H 0.20824 0.50795 0.70944 0.0
H306 H 0.2704 0.62563 0.71565 0.0
H307 H 0.24145 0.5506 0.73507 0.0
H308 H 0.37111 0.89422 0.76054 0.0
H309 H 0.28035 0.67542 0.79809 0.0
H310 H 0.1759 0.82324 0.72843 0.0
H311 H 0.24701 0.77123 0.7164 0.0
H312 H 0.30059 0.88284 0.72827 0.0
H313 H 0.06927 0.55998 0.77678 0.0
H314 H 0.16409 0.5386 0.7888 0.0
H315 H 0.13596 0.51001 0.76249 0.0
C316 C 0.47219 0.96871 0.95471 0.0
C317 C 0.54551 0.01122 0.94249 0.0
C318 C 0.47575 0.99732 0.97487 0.0
C319 C 0.55273 0.07248 0.98292 0.0
C320 C 0.62232 0.12118 0.97029 0.0
C321 C 0.61832 0.0896 0.95023 0.0
C322 C 0.39943 0.94402 0.98779 0.0
C323 C 0.70308 0.20424 0.97817 0.0
C324 C 0.50213 0.17196 0.0312 0.0
C325 C 0.54501 0.13767 0.04551 0.0
C326 C 0.50953 0.15616 0.01085 0.0
C327 C 0.55775 0.10088 0.00448 0.0
C328 C 0.60259 0.06647 0.01881 0.0
C329 C 0.59709 0.08672 0.03932 0.0
C330 C 0.4628 0.19637 -0.00377 0.0
C331 C 0.6535 0.00607 0.01246 0.0
H332 H 0.41502 0.90856 0.94897 0.0
H333 H 0.675 0.12349 0.94093 0.0
H334 H 0.43 0.91785 -9e-05 0.0
H335 H 0.36581 0.98752 -0.0051 0.0
H336 H 0.34461 0.88677 0.97923 0.0
H337 H 0.7466 0.23883 0.96609 0.0
H338 H 0.67714 0.25163 0.98633 0.0
H339 H 0.74798 0.1861 0.98889 0.0
H340 H 0.46163 0.21113 0.03596 0.0
H341 H 0.63072 0.06078 0.0504 0.0
H342 H 0.40091 0.14296 0.98862 0.0
H343 H 0.51108 0.22798 0.9846 0.0
H344 H 0.43944 0.24746 0.00365 0.0
H345 H 0.60339 0.94359 0.00461 0.0
H346 H 0.6883 0.9883 0.0253 0.0
H347 H 0.70688 0.03884 0.0018 0.0
C348 C 0.99346 0.14256 0.46465 0.0
C349 C 0.07051 0.16376 0.45274 0.0
C350 C 0.98755 0.0913 0.48091 0.0
C351 C 0.05949 0.05891 0.48494 0.0
C352 C 0.14012 0.08457 0.47365 0.0
C353 C 0.14515 0.1379 0.45771 0.0
C354 C 0.90201 0.06779 0.49306 0.0
C355 C 0.21786 0.0507 0.47751 0.0
C356 C 0.06411 0.95693 0.53384 0.0
C357 C 0.01487 0.86604 0.52834 0.0
C358 C 0.07914 0.02085 0.51987 0.0
C359 C 0.04638 0.99242 0.49988 0.0
C360 C -0.00205 0.90034 0.49418 0.0
C361 C 0.98144 0.83808 0.50862 0.0
C362 C 0.1286 0.11862 0.52656 0.0
C363 C 0.96341 0.86771 0.47286 0.0
H364 H 0.93634 0.16384 0.46083 0.0
H365 H 0.20435 0.15412 0.44834 0.0
H366 H 0.8598 0.99534 0.49044 0.0
H367 H 0.9227 0.08157 0.5092 0.0
H368 H 0.85726 0.10572 0.48921 0.0
H369 H 0.27936 0.08355 0.46868 0.0
H370 H 0.24067 0.06187 0.49354 0.0
H371 H 0.19191 0.97756 0.47357 0.0
H372 H 0.08916 0.97819 0.54922 0.0
H373 H 0.94415 0.76753 0.50446 0.0
H374 H 0.08244 0.15587 0.52341 0.0
H375 H 0.19209 0.1478 0.51808 0.0
H376 H 0.14936 0.12938 0.54273 0.0
H377 H 0.91047 0.89539 0.46823 0.0
H378 H 0.9316 0.79362 0.47074 0.0
H379 H 0.02204 0.8917 0.46283 0.0
C380 C 0.02497 0.91775 0.37827 0.0
C381 C 0.98595 0.9484 0.36262 0.0
C382 C 0.04065 0.8374 0.3758 0.0
C383 C 0.0139 0.78505 0.35741 0.0
C384 C 0.97246 0.81501 0.34167 0.0
C385 C 0.96019 0.89716 0.34439 0.0
C386 C 0.0875 0.80948 0.39275 0.0
C387 C 0.94049 0.76002 0.32204 0.0
C388 C 0.12604 0.61577 0.34379 0.0
C389 C 0.06045 0.53678 0.35002 0.0
C390 C 0.11247 0.69731 0.34636 0.0
C391 C 0.02962 0.69916 0.35469 0.0
C392 C 0.96257 0.61917 0.36075 0.0
C393 C 0.97963 0.53934 0.35868 0.0
C394 C 0.18708 0.78158 0.34032 0.0
C395 C 0.87207 0.61753 0.36912 0.0
H396 H 0.04569 0.95813 0.39232 0.0
H397 H 0.92882 0.92052 0.33242 0.0
H398 H 0.04077 0.74394 0.39743 0.0
H399 H 0.15208 0.80117 0.38775 0.0
H400 H 0.10616 0.8589 0.40591 0.0
H401 H 0.90666 0.79121 0.31159 0.0
H402 H 0.00087 0.75143 0.31486 0.0
H403 H 0.89018 0.69233 0.32459 0.0
H404 H 0.18866 0.61397 0.33713 0.0
H405 H 0.92813 0.47811 0.36326 0.0
H406 H 0.2106 0.83213 0.35324 0.0
H407 H 0.15827 0.81083 0.32853 0.0
H408 H 0.24876 0.76932 0.3347 0.0
H409 H 0.8867 0.66115 0.38315 0.0
H410 H 0.8253 0.54909 0.37223 0.0
H411 H 0.83451 0.64426 0.35847 0.0
C412 C 0.29167 0.72657 0.60801 0.0
C413 C 0.27329 0.76643 0.62569 0.0
C414 C 0.37402 0.7098 0.60631 0.0
C415 C 0.44175 0.73649 0.62242 0.0
C416 C 0.4276 0.78355 0.63969 0.0
C417 C 0.34279 0.79709 0.64124 0.0
C418 C 0.38631 0.65955 0.58757 0.0
C419 C 0.49957 0.81556 0.65693 0.0
C420 C 0.59928 0.60265 0.62111 0.0
C421 C 0.66914 0.65453 0.60939 0.0
C422 C 0.52683 0.63127 0.6267 0.0
C423 C 0.52672 0.71426 0.62077 0.0
C424 C 0.60201 0.76985 0.61041 0.0
C425 C 0.67175 0.73877 0.60465 0.0
C426 C 0.44737 0.57016 0.63771 0.0
C427 C 0.60621 0.85997 0.60445 0.0
H428 H 0.23916 0.70335 0.5958 0.0
H429 H 0.32947 0.82798 0.65497 0.0
H430 H 0.45041 0.70021 0.58039 0.0
H431 H 0.3948 0.59684 0.59137 0.0
H432 H 0.32603 0.6422 0.57657 0.0
H433 H 0.48781 0.86695 0.66707 0.0
H434 H 0.49522 0.75818 0.66564 0.0
H435 H 0.57139 0.84367 0.65161 0.0
H436 H 0.59883 0.53829 0.62504 0.0
H437 H 0.72806 0.78 0.5961 0.0
H438 H 0.38412 0.5416 0.62746 0.0
H439 H 0.43023 0.60794 0.65031 0.0
H440 H 0.46381 0.51431 0.64354 0.0
H441 H 0.5495 0.85106 0.59304 0.0
H442 H 0.674 0.89846 0.5982 0.0
H443 H 0.59521 0.89974 0.61749 0.0
C444 C 0.4326 0.43546 0.87482 0.0
C445 C 0.49685 0.51016 0.86671 0.0
C446 C 0.44293 0.35256 0.87319 0.0
C447 C 0.52072 0.34507 0.86366 0.0
C448 C 0.5849 0.41993 0.85512 0.0
C449 C 0.57169 0.50157 0.8566 0.0
C450 C 0.37099 0.27322 0.88173 0.0
C451 C 0.66934 0.41477 0.84505 0.0
C452 C 0.59536 0.15166 0.87483 0.0
C453 C 0.56275 0.09617 0.8573 0.0
C454 C 0.58239 0.23355 0.87718 0.0
C455 C 0.53305 0.25799 0.86191 0.0
C456 C 0.49672 0.19991 0.8446 0.0
C457 C 0.51326 0.1204 0.8424 0.0
C458 C 0.62333 0.29478 0.8957 0.0
C459 C 0.44122 0.22213 0.82829 0.0
H460 H 0.37466 0.44217 0.88264 0.0
H461 H 0.62241 0.5597 0.85064 0.0
H462 H 0.34107 0.21771 0.86997 0.0
H463 H 0.40444 0.24844 0.89359 0.0
H464 H 0.31305 0.28974 0.88812 0.0
H465 H 0.70644 0.47569 0.83728 0.0
H466 H 0.71861 0.40638 0.85638 0.0
H467 H 0.64901 0.35606 0.83403 0.0
H468 H 0.63322 0.13233 0.88635 0.0
H469 H 0.48639 0.07628 0.829 0.0
H470 H 0.56787 0.3105 0.90339 0.0
H471 H 0.67529 0.35894 0.89151 0.0
H472 H 0.65809 0.26512 0.90632 0.0
H473 H 0.38208 0.23664 0.83461 0.0
H474 H 0.41292 0.16695 0.81638 0.0
H475 H 0.48616 0.28303 0.82145 0.0
C476 C 0.18466 0.34754 0.11378 0.0
C477 C 0.18496 0.26397 0.11826 0.0
C478 C 0.11385 0.37618 0.11996 0.0
C479 C 0.04043 0.31875 0.13047 0.0
C480 C 0.04317 0.23618 0.13603 0.0
C481 C 0.11684 0.21017 0.13008 0.0
C482 C 0.11499 0.46586 0.11435 0.0
C483 C 0.9655 0.17316 0.14715 0.0
C484 C 0.85515 0.3972 0.15179 0.0
C485 C 0.78593 0.36785 0.13618 0.0
C486 C 0.94008 0.38414 0.15006 0.0
C487 C 0.95444 0.33865 0.13256 0.0
C488 C 0.88659 0.31252 0.11649 0.0
C489 C 0.80439 0.32922 0.11834 0.0
C490 C 0.01227 0.41563 0.16725 0.0
C491 C 0.89879 0.26324 0.09757 0.0
H492 H 0.23964 0.39027 0.10516 0.0
H493 H 0.11868 0.14633 0.13379 0.0
H494 H 0.05504 0.45644 0.10377 0.0
H495 H 0.10739 0.50551 0.12779 0.0
H496 H 0.18029 0.50474 0.10726 0.0
H497 H 0.98035 0.11376 0.15122 0.0
H498 H 0.95443 0.20831 0.16094 0.0
H499 H 0.89926 0.15007 0.13781 0.0
H500 H 0.84162 0.42688 0.16566 0.0
H501 H 0.752 0.30665 0.10611 0.0
H502 H 0.08379 0.44545 0.16186 0.0
H503 H 0.00938 0.35778 0.17568 0.0
H504 H -0.00028 0.46567 0.17767 0.0
H505 H 0.96156 0.30529 0.09019 0.0
H506 H 0.83749 0.24457 0.0868 0.0
H507 H 0.90962 0.20136 0.10119 0.0
C508 C 0.08834 0.04705 0.61456 0.0
C509 C 0.01495 0.96802 0.6184 0.0
C510 C 0.07475 0.12819 0.61422 0.0
C511 C 0.98532 0.13013 0.61761 0.0
C512 C 0.91189 0.05137 0.62232 0.0
C513 C 0.9277 0.97111 0.62274 0.0
C514 C 0.15563 0.21144 0.60986 0.0
C515 C 0.81567 0.05102 0.62617 0.0
C516 C 0.96184 0.34799 0.63451 0.0
C517 C 0.93295 0.37378 0.61676 0.0
C518 C 0.98138 0.27014 0.63484 0.0
C519 C 0.96965 0.21544 0.61702 0.0
C520 C 0.94233 0.24198 0.59888 0.0
C521 C 0.92536 0.32208 0.59891 0.0
C522 C 0.01313 0.24584 0.65435 0.0
C523 C 0.92856 0.1846 0.57963 0.0
H524 H 0.15603 0.04497 0.61125 0.0
H525 H 0.87039 0.91002 0.62544 0.0
H526 H 0.13968 0.23665 0.59579 0.0
H527 H 0.16658 0.26501 0.62189 0.0
H528 H 0.22174 0.19927 0.60844 0.0
H529 H 0.7692 0.98668 0.63151 0.0
H530 H 0.81989 0.1057 0.63741 0.0
H531 H 0.78345 0.06284 0.6122 0.0
H532 H 0.96901 0.38915 0.64827 0.0
H533 H 0.90308 0.3425 0.58524 0.0
H534 H 0.07968 0.23488 0.65269 0.0
H535 H 0.9605 0.18242 0.65869 0.0
H536 H 0.02367 0.2984 0.66662 0.0
H537 H 0.99336 0.17248 0.57645 0.0
H538 H 0.90924 0.2156 0.56677 0.0
H539 H 0.87259 0.1185 0.58105 0.0
C540 C 0.84144 0.78469 0.84765 0.0
C541 C 0.85161 0.87474 0.85035 0.0
C542 C 0.91967 0.75963 0.84802 0.0
C543 C 0.01067 0.82651 0.84991 0.0
C544 C 0.0211 0.91771 0.85 0.0
C545 C 0.94148 0.94087 0.85099 0.0
C546 C 0.90434 0.66156 0.84788 0.0
C547 C 0.11611 0.99135 0.85009 0.0
C548 C 0.20882 0.78141 0.87677 0.0
C549 C 0.24365 0.74284 0.86128 0.0
C550 C 0.1324 0.80776 0.87328 0.0
C551 C 0.09355 0.80089 0.85356 0.0
C552 C 0.13037 0.76409 0.83778 0.0
C553 C 0.20221 0.73267 0.84198 0.0
C554 C 0.09166 0.84035 0.89086 0.0
C555 C 0.09537 0.75675 0.81631 0.0
H556 H 0.77209 0.73329 0.8475 0.0
H557 H 0.94977 0.01056 0.85328 0.0
H558 H 0.92641 0.63956 0.83362 0.0
H559 H 0.94697 0.64963 0.86015 0.0
H560 H 0.82991 0.61938 0.84948 0.0
H561 H 0.11156 0.05057 0.84318 0.0
H562 H 0.14432 0.01296 0.86566 0.0
H563 H 0.16618 0.96874 0.84196 0.0
H564 H 0.23952 0.78833 0.89176 0.0
H565 H 0.22683 0.70141 0.82989 0.0
H566 H 0.01431 0.80756 0.89001 0.0
H567 H 0.10927 0.91335 0.89075 0.0
H568 H 0.11903 0.82711 0.90529 0.0
H569 H 0.06095 0.68511 0.81103 0.0
H570 H 0.15553 0.78571 0.80686 0.0
H571 H 0.04577 0.79097 0.81387 0.0
C572 C 0.60903 0.65168 0.12249 0.0
C573 C 0.53527 0.57313 0.12648 0.0
C574 C 0.5955 0.73277 0.12148 0.0
C575 C 0.50573 0.73514 0.12425 0.0
C576 C 0.43183 0.65685 0.12903 0.0
C577 C 0.44757 0.57679 0.13015 0.0
C578 C 0.67692 0.81557 0.11714 0.0
C579 C 0.33518 0.65674 0.13224 0.0
C580 C 0.47647 0.95153 0.1401 0.0
C581 C 0.44828 0.97622 0.12214 0.0
C582 C 0.49904 0.87546 0.1408 0.0
C583 C 0.49004 0.82045 0.12314 0.0
C584 C 0.46306 0.84564 0.10478 0.0
C585 C 0.44367 0.92455 0.10443 0.0
C586 C 0.52999 0.8528 0.16058 0.0
C587 C 0.45156 0.78768 0.08571 0.0
H588 H 0.67702 0.64925 0.11965 0.0
H589 H 0.38984 0.51611 0.13291 0.0
H590 H 0.66183 0.84047 0.10295 0.0
H591 H 0.68744 0.8695 0.12905 0.0
H592 H 0.74295 0.80306 0.11599 0.0
H593 H 0.28826 0.59306 0.13778 0.0
H594 H 0.33833 0.71239 0.14311 0.0
H595 H 0.3041 0.66704 0.11797 0.0
H596 H 0.47956 0.99163 0.15379 0.0
H597 H 0.42141 0.9437 0.0906 0.0
H598 H 0.5971 0.84261 0.1593 0.0
H599 H 0.47754 0.7894 0.16498 0.0
H600 H 0.53912 0.90586 0.17265 0.0
H601 H 0.51683 0.77564 0.08302 0.0
H602 H 0.43353 0.81809 0.07261 0.0
H603 H 0.39542 0.7216 0.08706 0.0
C604 C 0.67588 0.15984 0.36865 0.0
C605 C 0.71682 0.14972 0.35086 0.0
C606 C 0.59799 0.18555 0.36857 0.0
C607 C 0.56402 0.20598 0.35042 0.0
C608 C 0.60492 0.19512 0.33242 0.0
C609 C 0.67971 0.16558 0.33283 0.0
C610 C 0.55331 0.19261 0.38794 0.0
C611 C 0.57341 0.21957 0.3129 0.0
C612 C 0.32106 0.21295 0.34767 0.0
C613 C 0.33917 0.30225 0.35414 0.0
C614 C 0.39367 0.18071 0.34617 0.0
C615 C 0.48695 0.24048 0.35032 0.0
C616 C 0.5061 0.33253 0.35519 0.0
C617 C 0.43148 0.36192 0.35766 0.0
C618 C 0.36983 0.0816 0.34172 0.0
C619 C 0.60505 0.39913 0.35865 0.0
H620 H 0.70552 0.14879 0.38258 0.0
H621 H 0.71311 0.16044 0.31909 0.0
H622 H 0.56621 0.26369 0.39233 0.0
H623 H 0.47648 0.15657 0.38611 0.0
H624 H 0.58116 0.16483 0.40022 0.0
H625 H 0.60835 0.20158 0.30004 0.0
H626 H 0.4968 0.18586 0.31013 0.0
H627 H 0.5893 0.29264 0.31366 0.0
H628 H 0.24928 0.16625 0.34557 0.0
H629 H 0.44503 0.43057 0.36297 0.0
H630 H 0.39068 0.0535 0.35487 0.0
H631 H 0.40912 0.06917 0.32908 0.0
H632 H 0.29397 0.04485 0.33808 0.0
H633 H 0.63598 0.38806 0.37284 0.0
H634 H 0.60825 0.46921 0.35945 0.0
H635 H 0.64893 0.39007 0.34654 0.0
loop_
_geom_bond_atom_site_label_1
_geom_bond_atom_site_label_2
_geom_bond_distance
_geom_bond_site_symmetry_2
_ccdc_geom_bond_type
C0 O12 1.241 1_455 S
C0 O13 1.280 . S
C1 O14 1.277 . S
C1 O15 1.245 1_655 S
C2 O26 1.247 . S
C2 O28 1.289 . S
Mg3 O4 1.926 . S
Mg3 O13 1.984 . S
Mg3 O15 1.988 . S
Mg3 O16 2.061 . S
O4 Mg3 1.926 . S
O4 Mg5 1.986 1_455 S
O4 Mg6 1.917 . S
Mg5 O4 1.986 1_655 S
Mg5 O12 2.042 . S
Mg5 O14 2.041 . S
Mg5 O20 2.038 . S
Mg5 O28 2.238 . S
Mg6 O4 1.917 . S
Mg6 O7 1.917 1_455 S
Mg6 O17 2.106 . S
Mg6 O19 2.079 . S
Mg6 O28 2.106 1_455 S
Mg6 O29 2.079 . S
O7 Mg6 1.917 1_655 S
O7 Mg8 1.926 . S
O7 Mg9 1.986 1_655 S
Mg8 O7 1.926 . S
Mg8 O22 1.984 . S
Mg8 O25 1.988 . S
Mg8 O26 2.061 . S
Mg9 O7 1.986 1_455 S
Mg9 O17 2.238 . S
Mg9 O21 2.042 . S
Mg9 O23 2.041 . S
Mg9 O30 2.038 . S
C10 O16 1.247 . S
C10 O17 1.289 . S
C11 O29 1.245 . S
C11 O30 1.274 . S
O12 C0 1.241 1_655 S
O12 Mg5 2.042 . S
O13 C0 1.280 . S
O13 Mg3 1.984 . S
O14 C1 1.277 . S
O14 Mg5 2.041 . S
O15 C1 1.245 1_455 S
O15 Mg3 1.988 . S
O16 Mg3 2.061 . S
O16 C10 1.247 . S
O17 Mg6 2.106 . S
O17 Mg9 2.238 . S
O17 C10 1.289 . S
C18 O19 1.245 1_655 S
C18 O20 1.274 . S
O19 Mg6 2.079 . S
O19 C18 1.245 1_455 S
O20 Mg5 2.038 . S
O20 C18 1.274 . S
O21 Mg9 2.042 . S
O21 C24 1.241 1_455 S
O22 Mg8 1.984 . S
O22 C24 1.280 . S
O23 Mg9 2.041 . S
O23 C27 1.277 . S
C24 O21 1.241 1_655 S
C24 O22 1.280 . S
O25 Mg8 1.988 . S
O25 C27 1.245 1_655 S
O26 C2 1.247 . S
O26 Mg8 2.061 . S
C27 O23 1.277 . S
C27 O25 1.245 1_455 S
O28 C2 1.289 . S
O28 Mg5 2.238 . S
O28 Mg6 2.106 1_655 S
O29 Mg6 2.079 . S
O29 C11 1.245 . S
O30 Mg9 2.038 . S
O30 C11 1.274 . S
C31 O43 1.241 1_455 S
C31 O44 1.280 . S
C32 O45 1.277 . S
C32 O46 1.245 1_655 S
C33 O57 1.247 . S
C33 O59 1.289 . S
Mg34 O35 1.926 . S
Mg34 O44 1.984 . S
Mg34 O46 1.988 . S
Mg34 O47 2.061 . S
O35 Mg34 1.926 . S
O35 Mg36 1.986 1_455 S
O35 Mg37 1.917 . S
Mg36 O35 1.986 1_655 S
Mg36 O43 2.042 . S
Mg36 O45 2.041 . S
Mg36 O51 2.038 . S
Mg36 O59 2.238 . S
Mg37 O35 1.917 . S
Mg37 O38 1.917 1_455 S
Mg37 O48 2.106 . S
Mg37 O50 2.079 1_455 S
Mg37 O59 2.106 1_455 S
Mg37 O60 2.079 . S
O38 Mg37 1.917 1_655 S
O38 Mg39 1.926 . S
O38 Mg40 1.986 1_655 S
Mg39 O38 1.926 . S
Mg39 O53 1.984 . S
Mg39 O56 1.988 . S
Mg39 O57 2.061 . S
Mg40 O38 1.986 1_455 S
Mg40 O48 2.238 . S
Mg40 O52 2.042 . S
Mg40 O54 2.041 . S
Mg40 O61 2.038 . S
C41 O47 1.247 . S
C41 O48 1.289 . S
C42 O60 1.245 . S
C42 O61 1.274 . S
O43 C31 1.241 1_655 S
O43 Mg36 2.042 . S
O44 C31 1.280 . S
O44 Mg34 1.984 . S
O45 C32 1.277 . S
O45 Mg36 2.041 . S
O46 C32 1.245 1_455 S
O46 Mg34 1.988 . S
O47 Mg34 2.061 . S
O47 C41 1.247 . S
O48 Mg37 2.106 . S
O48 Mg40 2.238 . S
O48 C41 1.289 . S
C49 O50 1.245 . S
C49 O51 1.274 . S
O50 Mg37 2.079 1_655 S
O50 C49 1.245 . S
O51 Mg36 2.038 . S
O51 C49 1.274 . S
O52 Mg40 2.042 . S
O52 C55 1.241 1_455 S
O53 Mg39 1.984 . S
O53 C55 1.280 . S
O54 Mg40 2.041 . S
O54 C58 1.277 . S
C55 O52 1.241 1_655 S
C55 O53 1.280 . S
O56 Mg39 1.988 . S
O56 C58 1.245 1_655 S
O57 C33 1.247 . S
O57 Mg39 2.061 . S
C58 O54 1.277 . S
C58 O56 1.245 1_455 S
O59 C33 1.289 . S
O59 Mg36 2.238 . S
O59 Mg37 2.106 1_655 S
O60 Mg37 2.079 . S
O60 C42 1.245 . S
O61 Mg40 2.038 . S
O61 C42 1.274 . S
C62 O74 1.241 . S
C62 O75 1.280 . S
C63 O76 1.277 . S
C63 O77 1.245 . S
C64 O88 1.247 . S
C64 O90 1.289 . S
Mg65 O66 1.926 . S
Mg65 O75 1.984 . S
Mg65 O77 1.988 . S
Mg65 O78 2.061 . S
O66 Mg65 1.926 . S
O66 Mg67 1.986 . S
O66 Mg68 1.917 . S
Mg67 O66 1.986 . S
Mg67 O74 2.042 . S
Mg67 O76 2.041 . S
Mg67 O82 2.038 . S
Mg67 O90 2.238 . S
Mg68 O66 1.917 . S
Mg68 O69 1.917 . S
Mg68 O79 2.106 . S
Mg68 O81 2.079 . S
Mg68 O90 2.106 . S
Mg68 O91 2.079 . S
O69 Mg68 1.917 . S
O69 Mg70 1.926 . S
O69 Mg71 1.986 . S
Mg70 O69 1.926 . S
Mg70 O84 1.984 . S
Mg70 O87 1.988 . S
Mg70 O88 2.061 . S
Mg71 O69 1.986 . S
Mg71 O79 2.238 . S
Mg71 O83 2.042 . S
Mg71 O85 2.041 . S
Mg71 O92 2.038 . S
C72 O78 1.247 . S
C72 O79 1.289 . S
C73 O91 1.245 . S
C73 O92 1.274 . S
O74 C62 1.241 . S
O74 Mg67 2.042 . S
O75 C62 1.280 . S
O75 Mg65 1.984 . S
O76 C63 1.277 . S
O76 Mg67 2.041 . S
O77 C63 1.245 . S
O77 Mg65 1.988 . S
O78 Mg65 2.061 . S
O78 C72 1.247 . S
O79 Mg68 2.106 . S
O79 Mg71 2.238 . S
O79 C72 1.289 . S
C80 O81 1.245 . S
C80 O82 1.274 . S
O81 Mg68 2.079 . S
O81 C80 1.245 . S
O82 Mg67 2.038 . S
O82 C80 1.274 . S
O83 Mg71 2.042 . S
O83 C86 1.241 . S
O84 Mg70 1.984 . S
O84 C86 1.280 . S
O85 Mg71 2.041 . S
O85 C89 1.277 . S
C86 O83 1.241 . S
C86 O84 1.280 . S
O87 Mg70 1.988 . S
O87 C89 1.245 . S
O88 C64 1.247 . S
O88 Mg70 2.061 . S
C89 O85 1.277 . S
C89 O87 1.245 . S
O90 C64 1.289 . S
O90 Mg67 2.238 . S
O90 Mg68 2.106 . S
O91 Mg68 2.079 . S
O91 C73 1.245 . S
O92 Mg71 2.038 . S
O92 C73 1.274 . S
C93 O105 1.241 . S
C93 O106 1.280 . S
C94 O107 1.277 . S
C94 O108 1.245 . S
C95 O119 1.247 . S
C95 O121 1.289 . S
Mg96 O97 1.926 . S
Mg96 O106 1.984 . S
Mg96 O108 1.988 . S
Mg96 O109 2.061 . S
O97 Mg96 1.926 . S
O97 Mg98 1.986 . S
O97 Mg99 1.917 . S
Mg98 O97 1.986 . S
Mg98 O105 2.042 . S
Mg98 O107 2.041 . S
Mg98 O113 2.038 . S
Mg98 O121 2.238 . S
Mg99 O97 1.917 . S
Mg99 O100 1.917 . S
Mg99 O110 2.106 . S
Mg99 O112 2.079 . S
Mg99 O121 2.106 . S
Mg99 O122 2.079 . S
O100 Mg99 1.917 . S
O100 Mg101 1.926 . S
O100 Mg102 1.986 . S
Mg101 O100 1.926 . S
Mg101 O115 1.984 . S
Mg101 O118 1.988 . S
Mg101 O119 2.061 . S
Mg102 O100 1.986 . S
Mg102 O110 2.238 . S
Mg102 O114 2.042 . S
Mg102 O116 2.041 . S
Mg102 O123 2.038 . S
C103 O109 1.247 . S
C103 O110 1.289 . S
C104 O122 1.245 . S
C104 O123 1.274 . S
O105 C93 1.241 . S
O105 Mg98 2.042 . S
O106 C93 1.280 . S
O106 Mg96 1.984 . S
O107 C94 1.277 . S
O107 Mg98 2.041 . S
O108 C94 1.245 . S
O108 Mg96 1.988 . S
O109 Mg96 2.061 . S
O109 C103 1.247 . S
O110 Mg99 2.106 . S
O110 Mg102 2.238 . S
O110 C103 1.289 . S
C111 O112 1.245 . S
C111 O113 1.274 . S
O112 Mg99 2.079 . S
O112 C111 1.245 . S
O113 Mg98 2.038 . S
O113 C111 1.274 . S
O114 Mg102 2.042 . S
O114 C117 1.241 . S
O115 Mg101 1.984 . S
O115 C117 1.280 . S
O116 Mg102 2.041 . S
O116 C120 1.277 . S
C117 O114 1.241 . S
C117 O115 1.280 . S
O118 Mg101 1.988 . S
O118 C120 1.245 . S
O119 C95 1.247 . S
O119 Mg101 2.061 . S
C120 O116 1.277 . S
C120 O118 1.245 . S
O121 C95 1.289 . S
O121 Mg98 2.238 . S
O121 Mg99 2.106 . S
O122 Mg99 2.079 . S
O122 C104 1.245 . S
O123 Mg102 2.038 . S
O123 C104 1.274 . S
C124 C125 1.391 1_455 S
C124 C126 1.394 . S
C124 H140 0.931 . S
C125 C124 1.391 1_655 S
C125 C129 1.376 . S
C126 C124 1.394 . S
C126 C127 1.369 . S
C126 C130 1.531 . S
C127 C126 1.369 . S
C127 C128 1.410 1_455 S
C127 C135 1.503 . S
C128 C127 1.410 1_655 S
C128 C129 1.392 . S
C128 C131 1.511 . S
C129 C125 1.376 . S
C129 C128 1.392 . S
C129 H141 0.929 . S
C130 C126 1.531 . S
C130 H142 0.960 . S
C130 H143 0.962 . S
C130 H144 0.960 . S
C131 C128 1.511 . S
C131 H145 0.961 . S
C131 H146 0.961 . S
C131 H147 0.961 . S
C132 C133 1.370 . S
C132 C134 1.363 . S
C132 H148 0.931 . S
C133 C132 1.370 . S
C133 C137 1.408 . S
C134 C132 1.363 . S
C134 C135 1.370 . S
C134 C138 1.524 1_455 S
C135 C127 1.503 . S
C135 C134 1.370 . S
C135 C136 1.403 . S
C136 C135 1.403 . S
C136 C137 1.404 . S
C136 C139 1.539 . S
C137 C133 1.408 . S
C137 C136 1.404 . S
C137 H149 0.930 . S
C138 C134 1.524 1_655 S
C138 H150 0.956 1_655 S
C138 H151 0.961 . S
C138 H152 0.961 . S
C139 C136 1.539 . S
C139 H153 0.958 . S
C139 H154 0.961 . S
C139 H155 0.960 . S
H140 C124 0.931 . S
H141 C129 0.929 . S
H142 C130 0.960 . S
H143 C130 0.962 . S
H144 C130 0.960 . S
H145 C131 0.961 . S
H146 C131 0.961 . S
H147 C131 0.961 . S
H148 C132 0.931 . S
H149 C137 0.930 . S
H150 C138 0.956 1_455 S
H151 C138 0.961 . S
H152 C138 0.961 . S
H153 C139 0.958 . S
H154 C139 0.961 . S
H155 C139 0.960 . S
C156 C157 1.391 . S
C156 C158 1.394 . S
C156 H172 0.931 . S
C157 C156 1.391 . S
C157 C161 1.376 . S
C158 C156 1.394 . S
C158 C159 1.369 . S
C158 C162 1.531 . S
C159 C158 1.369 . S
C159 C160 1.410 . S
C159 C167 1.503 . S
C160 C159 1.410 . S
C160 C161 1.392 . S
C160 C163 1.511 . S
C161 C157 1.376 . S
C161 C160 1.392 . S
C161 H173 0.929 . S
C162 C158 1.531 . S
C162 H174 0.960 . S
C162 H175 0.962 . S
C162 H176 0.960 . S
C163 C160 1.511 . S
C163 H177 0.961 . S
C163 H178 0.961 . S
C163 H179 0.961 . S
C164 C165 1.370 . S
C164 C166 1.363 . S
C164 H180 0.931 . S
C165 C164 1.370 . S
C165 C169 1.408 . S
C166 C164 1.363 . S
C166 C167 1.370 . S
C166 C170 1.524 . S
C167 C159 1.503 . S
C167 C166 1.370 . S
C167 C168 1.403 . S
C168 C167 1.403 . S
C168 C169 1.404 . S
C168 C171 1.539 . S
C169 C165 1.408 . S
C169 C168 1.404 . S
C169 H181 0.930 . S
C170 C166 1.524 . S
C170 H182 0.956 . S
C170 H183 0.961 . S
C170 H184 0.961 . S
C171 C168 1.539 . S
C171 H185 0.958 . S
C171 H186 0.958 1_655 S
C171 H187 0.960 . S
H172 C156 0.931 . S
H173 C161 0.929 . S
H174 C162 0.960 . S
H175 C162 0.962 . S
H176 C162 0.960 . S
H177 C163 0.961 . S
H178 C163 0.961 . S
H179 C163 0.961 . S
H180 C164 0.931 . S
H181 C169 0.930 . S
H182 C170 0.956 . S
H183 C170 0.961 . S
H184 C170 0.961 . S
H185 C171 0.958 . S
H186 C171 0.958 1_455 S
H187 C171 0.960 . S
C188 C189 1.391 . S
C188 C190 1.394 . S
C188 H204 0.931 . S
C189 C188 1.391 . S
C189 C193 1.376 . S
C190 C188 1.394 . S
C190 C191 1.369 . S
C190 C194 1.531 . S
C191 C190 1.369 . S
C191 C192 1.410 . S
C191 C199 1.503 1_556 S
C192 C191 1.410 . S
C192 C193 1.392 . S
C192 C195 1.511 1_556 S
C193 C189 1.376 . S
C193 C192 1.392 . S
C193 H205 0.929 . S
C194 C190 1.531 . S
C194 H206 0.960 . S
C194 H207 0.962 . S
C194 H208 0.960 . S
C195 C192 1.511 1_554 S
C195 H209 0.961 . S
C195 H210 0.961 . S
C195 H211 0.961 . S
C196 C197 1.370 . S
C196 C198 1.363 . S
C196 H212 0.931 . S
C197 C196 1.370 . S
C197 C201 1.408 . S
C198 C196 1.363 . S
C198 C199 1.370 . S
C198 C202 1.524 . S
C199 C191 1.503 1_554 S
C199 C198 1.370 . S
C199 C200 1.403 . S
C200 C199 1.403 . S
C200 C201 1.404 . S
C200 C203 1.539 . S
C201 C197 1.408 . S
C201 C200 1.404 . S
C201 H213 0.930 . S
C202 C198 1.524 . S
C202 H214 0.956 1_554 S
C202 H215 0.961 . S
C202 H216 0.961 . S
C203 C200 1.539 . S
C203 H217 0.958 . S
C203 H218 0.961 . S
C203 H219 0.960 . S
H204 C188 0.931 . S
H205 C193 0.929 . S
H206 C194 0.960 . S
H207 C194 0.962 . S
H208 C194 0.960 . S
H209 C195 0.961 . S
H210 C195 0.961 . S
H211 C195 0.961 . S
H212 C196 0.931 . S
H213 C201 0.930 . S
H214 C202 0.956 1_556 S
H215 C202 0.961 . S
H216 C202 0.961 . S
H217 C203 0.958 . S
H218 C203 0.961 . S
H219 C203 0.960 . S
C220 C221 1.391 . S
C220 C222 1.394 . S
C220 H236 0.931 . S
C221 C220 1.391 . S
C221 C225 1.376 . S
C222 C220 1.394 . S
C222 C223 1.369 . S
C222 C226 1.531 . S
C223 C222 1.369 . S
C223 C224 1.410 . S
C223 C231 1.503 . S
C224 C223 1.410 . S
C224 C225 1.392 . S
C224 C227 1.511 . S
C225 C221 1.376 . S
C225 C224 1.392 . S
C225 H237 0.929 . S
C226 C222 1.531 . S
C226 H238 0.960 . S
C226 H239 0.962 . S
C226 H240 0.960 . S
C227 C224 1.511 . S
C227 H241 0.961 . S
C227 H242 0.961 . S
C227 H243 0.961 . S
C228 C229 1.370 . S
C228 C230 1.363 . S
C228 H244 0.931 . S
C229 C228 1.370 . S
C229 C233 1.408 . S
C230 C228 1.363 . S
C230 C231 1.370 . S
C230 C234 1.524 . S
C231 C223 1.503 . S
C231 C230 1.370 . S
C231 C232 1.403 . S
C232 C231 1.403 . S
C232 C233 1.404 . S
C232 C235 1.539 . S
C233 C229 1.408 . S
C233 C232 1.404 . S
C233 H245 0.930 . S
C234 C230 1.524 . S
C234 H246 0.956 . S
C234 H247 0.961 . S
C234 H248 0.961 . S
C235 C232 1.539 . S
C235 H249 0.958 . S
C235 H250 0.961 . S
C235 H251 0.960 . S
H236 C220 0.931 . S
H237 C225 0.929 . S
H238 C226 0.960 . S
H239 C226 0.962 . S
H240 C226 0.960 . S
H241 C227 0.961 . S
H242 C227 0.961 . S
H243 C227 0.961 . S
H244 C228 0.931 . S
H245 C233 0.930 . S
H246 C234 0.956 . S
H247 C234 0.961 . S
H248 C234 0.961 . S
H249 C235 0.958 . S
H250 C235 0.961 . S
H251 C235 0.960 . S
C252 C253 1.391 . S
C252 C254 1.394 . S
C252 H268 0.931 . S
C253 C252 1.391 . S
C253 C257 1.376 . S
C254 C252 1.394 . S
C254 C255 1.369 . S
C254 C258 1.531 . S
C255 C254 1.369 . S
C255 C256 1.410 . S
C255 C263 1.503 . S
C256 C255 1.410 . S
C256 C257 1.392 . S
C256 C259 1.511 . S
C257 C253 1.376 . S
C257 C256 1.392 . S
C257 H269 0.929 . S
C258 C254 1.531 . S
C258 H270 0.960 . S
C258 H271 0.962 . S
C258 H272 0.960 . S
C259 C256 1.511 . S
C259 H273 0.961 . S
C259 H274 0.961 . S
C259 H275 0.961 . S
C260 C261 1.370 . S
C260 C262 1.363 . S
C260 H276 0.931 . S
C261 C260 1.370 . S
C261 C265 1.408 . S
C262 C260 1.363 . S
C262 C263 1.370 . S
C262 C266 1.524 . S
C263 C255 1.503 . S
C263 C262 1.370 . S
C263 C264 1.403 . S
C264 C263 1.403 . S
C264 C265 1.404 . S
C264 C267 1.539 . S
C265 C261 1.408 . S
C265 C264 1.404 . S
C265 H277 0.930 . S
C266 C262 1.524 . S
C266 H278 0.956 . S
C266 H279 0.961 . S
C266 H280 0.961 . S
C267 C264 1.539 . S
C267 H281 0.958 . S
C267 H282 0.961 . S
C267 H283 0.960 . S
H268 C252 0.931 . S
H269 C257 0.929 . S
H270 C258 0.960 . S
H271 C258 0.962 . S
H272 C258 0.960 . S
H273 C259 0.961 . S
H274 C259 0.961 . S
H275 C259 0.961 . S
H276 C260 0.931 . S
H277 C265 0.930 . S
H278 C266 0.956 . S
H279 C266 0.961 . S
H280 C266 0.961 . S
H281 C267 0.958 . S
H282 C267 0.961 . S
H283 C267 0.960 . S
C284 C285 1.391 . S
C284 C286 1.394 . S
C284 H300 0.931 . S
C285 C284 1.391 . S
C285 C289 1.376 . S
C286 C284 1.394 . S
C286 C287 1.369 . S
C286 C290 1.531 . S
C287 C286 1.369 . S
C287 C288 1.410 . S
C287 C295 1.503 . S
C288 C287 1.410 . S
C288 C289 1.392 . S
C288 C291 1.511 . S
C289 C285 1.376 . S
C289 C288 1.392 . S
C289 H301 0.929 . S
C290 C286 1.531 . S
C290 H302 0.960 . S
C290 H303 0.962 . S
C290 H304 0.960 . S
C291 C288 1.511 . S
C291 H305 0.961 . S
C291 H306 0.961 . S
C291 H307 0.961 . S
C292 C293 1.370 . S
C292 C294 1.363 . S
C292 H308 0.931 . S
C293 C292 1.370 . S
C293 C297 1.408 . S
C294 C292 1.363 . S
C294 C295 1.370 . S
C294 C298 1.524 . S
C295 C287 1.503 . S
C295 C294 1.370 . S
C295 C296 1.403 . S
C296 C295 1.403 . S
C296 C297 1.404 . S
C296 C299 1.539 . S
C297 C293 1.408 . S
C297 C296 1.404 . S
C297 H309 0.930 . S
C298 C294 1.524 . S
C298 H310 0.956 . S
C298 H311 0.961 . S
C298 H312 0.961 . S
C299 C296 1.539 . S
C299 H313 0.958 . S
C299 H314 0.961 . S
C299 H315 0.960 . S
H300 C284 0.931 . S
H301 C289 0.929 . S
H302 C290 0.960 . S
H303 C290 0.962 . S
H304 C290 0.960 . S
H305 C291 0.961 . S
H306 C291 0.961 . S
H307 C291 0.961 . S
H308 C292 0.931 . S
H309 C297 0.930 . S
H310 C298 0.956 . S
H311 C298 0.961 . S
H312 C298 0.961 . S
H313 C299 0.958 . S
H314 C299 0.961 . S
H315 C299 0.960 . S
C316 C317 1.391 . S
C316 C318 1.394 . S
C316 H332 0.931 . S
C317 C316 1.391 . S
C317 C321 1.376 . S
C318 C316 1.394 . S
C318 C319 1.369 . S
C318 C322 1.531 1_556 S
C319 C318 1.369 . S
C319 C320 1.410 1_565 S
C319 C327 1.503 1_566 S
C320 C319 1.410 1_545 S
C320 C321 1.392 1_545 S
C320 C323 1.511 . S
C321 C317 1.376 . S
C321 C320 1.392 1_565 S
C321 H333 0.929 . S
C322 C318 1.531 1_554 S
C322 H334 0.960 . S
C322 H335 0.962 . S
C322 H336 0.962 . S
C323 C320 1.511 . S
C323 H337 0.961 . S
C323 H338 0.961 . S
C323 H339 0.961 . S
C324 C325 1.370 . S
C324 C326 1.363 . S
C324 H340 0.931 . S
C325 C324 1.370 . S
C325 C329 1.408 . S
C326 C324 1.363 . S
C326 C327 1.370 . S
C326 C330 1.524 . S
C327 C319 1.503 1_544 S
C327 C326 1.370 . S
C327 C328 1.403 1_545 S
C328 C327 1.403 1_565 S
C328 C329 1.404 1_565 S
C328 C331 1.539 . S
C329 C325 1.408 . S
C329 C328 1.404 1_545 S
C329 H341 0.930 . S
C330 C326 1.524 . S
C330 H342 0.953 1_554 S
C330 H343 0.961 1_554 S
C330 H344 0.961 . S
C331 C328 1.539 . S
C331 H345 0.958 . S
C331 H346 0.961 . S
C331 H347 0.960 . S
H332 C316 0.931 . S
H333 C321 0.929 . S
H334 C322 0.960 . S
H335 C322 0.962 . S
H336 C322 0.962 . S
H337 C323 0.961 . S
H338 C323 0.961 . S
H339 C323 0.961 . S
H340 C324 0.931 . S
H341 C329 0.930 . S
H342 C330 0.953 1_556 S
H343 C330 0.961 1_556 S
H344 C330 0.961 . S
H345 C331 0.958 . S
H346 C331 0.961 . S
H347 C331 0.960 . S
C348 C349 1.391 1_655 S
C348 C350 1.394 . S
C348 H364 0.931 . S
C349 C348 1.391 1_455 S
C349 C353 1.376 . S
C350 C348 1.394 . S
C350 C351 1.369 1_655 S
C350 C354 1.531 1_545 S
C351 C350 1.369 1_455 S
C351 C352 1.410 . S
C351 C359 1.503 1_445 S
C352 C351 1.410 . S
C352 C353 1.392 . S
C352 C355 1.511 . S
C353 C349 1.376 . S
C353 C352 1.392 . S
C353 H365 0.929 . S
C354 C350 1.531 1_565 S
C354 H366 0.960 . S
C354 H367 0.962 1_565 S
C354 H368 0.960 . S
C355 C352 1.511 . S
C355 H369 0.961 . S
C355 H370 0.961 . S
C355 H371 0.961 1_545 S
C356 C357 1.370 . S
C356 C358 1.363 1_565 S
C356 H372 0.931 1_565 S
C357 C356 1.370 . S
C357 C361 1.408 . S
C358 C356 1.363 1_545 S
C358 C359 1.370 1_545 S
C358 C362 1.524 1_655 S
C359 C351 1.503 1_665 S
C359 C358 1.370 1_565 S
C359 C360 1.403 . S
C360 C359 1.403 . S
C360 C361 1.404 . S
C360 C363 1.539 . S
C361 C357 1.408 . S
C361 C360 1.404 . S
C361 H373 0.930 . S
C362 C358 1.524 1_455 S
C362 H374 0.956 1_455 S
C362 H375 0.961 . S
C362 H376 0.961 . S
C363 C360 1.539 . S
C363 H377 0.958 . S
C363 H378 0.961 . S
C363 H379 0.960 1_655 S
H364 C348 0.931 . S
H365 C353 0.929 . S
H366 C354 0.960 . S
H367 C354 0.962 1_545 S
H368 C354 0.960 . S
H369 C355 0.961 . S
H370 C355 0.961 . S
H371 C355 0.961 1_565 S
H372 C356 0.931 1_545 S
H373 C361 0.930 . S
H374 C362 0.956 1_655 S
H375 C362 0.961 . S
H376 C362 0.961 . S
H377 C363 0.958 . S
H378 C363 0.961 . S
H379 C363 0.960 1_455 S
C380 C381 1.391 . S
C380 C382 1.394 . S
C380 H396 0.931 . S
C381 C380 1.391 . S
C381 C385 1.376 . S
C382 C380 1.394 . S
C382 C383 1.369 . S
C382 C386 1.531 1_655 S
C383 C382 1.369 . S
C383 C384 1.410 . S
C383 C391 1.503 1_655 S
C384 C383 1.410 . S
C384 C385 1.392 . S
C384 C387 1.511 . S
C385 C381 1.376 . S
C385 C384 1.392 . S
C385 H397 0.929 . S
C386 C382 1.531 1_455 S
C386 H398 0.960 1_455 S
C386 H399 0.962 . S
C386 H400 0.960 1_455 S
C387 C384 1.511 . S
C387 H401 0.961 . S
C387 H402 0.961 1_655 S
C387 H403 0.961 . S
C388 C389 1.370 . S
C388 C390 1.363 . S
C388 H404 0.931 . S
C389 C388 1.370 . S
C389 C393 1.408 1_455 S
C390 C388 1.363 . S
C390 C391 1.370 . S
C390 C394 1.524 . S
C391 C383 1.503 1_455 S
C391 C390 1.370 . S
C391 C392 1.403 1_455 S
C392 C391 1.403 1_655 S
C392 C393 1.404 . S
C392 C395 1.539 . S
C393 C389 1.408 1_655 S
C393 C392 1.404 . S
C393 H405 0.930 . S
C394 C390 1.524 . S
C394 H406 0.956 . S
C394 H407 0.961 . S
C394 H408 0.961 . S
C395 C392 1.539 . S
C395 H409 0.958 . S
C395 H410 0.961 . S
C395 H411 0.960 . S
H396 C380 0.931 . S
H397 C385 0.929 . S
H398 C386 0.960 1_655 S
H399 C386 0.962 . S
H400 C386 0.960 1_655 S
H401 C387 0.961 . S
H402 C387 0.961 1_455 S
H403 C387 0.961 . S
H404 C388 0.931 . S
H405 C393 0.930 . S
H406 C394 0.956 . S
H407 C394 0.961 . S
H408 C394 0.961 . S
H409 C395 0.958 . S
H410 C395 0.961 . S
H411 C395 0.960 . S
C412 C413 1.391 . S
C412 C414 1.394 . S
C412 H428 0.931 . S
C413 C412 1.391 . S
C413 C417 1.376 . S
C414 C412 1.394 . S
C414 C415 1.369 . S
C414 C418 1.531 . S
C415 C414 1.369 . S
C415 C416 1.410 . S
C415 C423 1.503 . S
C416 C415 1.410 . S
C416 C417 1.392 . S
C416 C419 1.511 . S
C417 C413 1.376 . S
C417 C416 1.392 . S
C417 H429 0.929 . S
C418 C414 1.531 . S
C418 H430 0.960 . S
C418 H431 0.962 . S
C418 H432 0.960 . S
C419 C416 1.511 . S
C419 H433 0.961 . S
C419 H434 0.961 . S
C419 H435 0.961 . S
C420 C421 1.370 . S
C420 C422 1.363 . S
C420 H436 0.931 . S
C421 C420 1.370 . S
C421 C425 1.408 . S
C422 C420 1.363 . S
C422 C423 1.370 . S
C422 C426 1.524 . S
C423 C415 1.503 . S
C423 C422 1.370 . S
C423 C424 1.403 . S
C424 C423 1.403 . S
C424 C425 1.404 . S
C424 C427 1.539 . S
C425 C421 1.408 . S
C425 C424 1.404 . S
C425 H437 0.930 . S
C426 C422 1.524 . S
C426 H438 0.956 . S
C426 H439 0.961 . S
C426 H440 0.961 . S
C427 C424 1.539 . S
C427 H441 0.958 . S
C427 H442 0.961 . S
C427 H443 0.960 . S
H428 C412 0.931 . S
H429 C417 0.929 . S
H430 C418 0.960 . S
H431 C418 0.962 . S
H432 C418 0.960 . S
H433 C419 0.961 . S
H434 C419 0.961 . S
H435 C419 0.961 . S
H436 C420 0.931 . S
H437 C425 0.930 . S
H438 C426 0.956 . S
H439 C426 0.961 . S
H440 C426 0.961 . S
H441 C427 0.958 . S
H442 C427 0.961 . S
H443 C427 0.960 . S
C444 C445 1.391 . S
C444 C446 1.394 . S
C444 H460 0.931 . S
C445 C444 1.391 . S
C445 C449 1.376 . S
C446 C444 1.394 . S
C446 C447 1.369 . S
C446 C450 1.531 . S
C447 C446 1.369 . S
C447 C448 1.410 . S
C447 C455 1.503 . S
C448 C447 1.410 . S
C448 C449 1.392 . S
C448 C451 1.511 . S
C449 C445 1.376 . S
C449 C448 1.392 . S
C449 H461 0.929 . S
C450 C446 1.531 . S
C450 H462 0.960 . S
C450 H463 0.962 . S
C450 H464 0.960 . S
C451 C448 1.511 . S
C451 H465 0.961 . S
C451 H466 0.961 . S
C451 H467 0.961 . S
C452 C453 1.370 . S
C452 C454 1.363 . S
C452 H468 0.931 . S
C453 C452 1.370 . S
C453 C457 1.408 . S
C454 C452 1.363 . S
C454 C455 1.370 . S
C454 C458 1.524 . S
C455 C447 1.503 . S
C455 C454 1.370 . S
C455 C456 1.403 . S
C456 C455 1.403 . S
C456 C457 1.404 . S
C456 C459 1.539 . S
C457 C453 1.408 . S
C457 C456 1.404 . S
C457 H469 0.930 . S
C458 C454 1.524 . S
C458 H470 0.956 . S
C458 H471 0.961 . S
C458 H472 0.961 . S
C459 C456 1.539 . S
C459 H473 0.958 . S
C459 H474 0.961 . S
C459 H475 0.960 . S
H460 C444 0.931 . S
H461 C449 0.929 . S
H462 C450 0.960 . S
H463 C450 0.962 . S
H464 C450 0.960 . S
H465 C451 0.961 . S
H466 C451 0.961 . S
H467 C451 0.961 . S
H468 C452 0.931 . S
H469 C457 0.930 . S
H470 C458 0.956 . S
H471 C458 0.961 . S
H472 C458 0.961 . S
H473 C459 0.958 . S
H474 C459 0.961 . S
H475 C459 0.960 . S
C476 C477 1.391 . S
C476 C478 1.394 . S
C476 H492 0.931 . S
C477 C476 1.391 . S
C477 C481 1.376 . S
C478 C476 1.394 . S
C478 C479 1.369 . S
C478 C482 1.531 . S
C479 C478 1.369 . S
C479 C480 1.410 . S
C479 C487 1.503 1_455 S
C480 C479 1.410 . S
C480 C481 1.392 . S
C480 C483 1.511 1_455 S
C481 C477 1.376 . S
C481 C480 1.392 . S
C481 H493 0.929 . S
C482 C478 1.531 . S
C482 H494 0.960 . S
C482 H495 0.962 . S
C482 H496 0.960 . S
C483 C480 1.511 1_655 S
C483 H497 0.955 1_655 S
C483 H498 0.961 . S
C483 H499 0.961 . S
C484 C485 1.370 . S
C484 C486 1.363 . S
C484 H500 0.931 . S
C485 C484 1.370 . S
C485 C489 1.408 . S
C486 C484 1.363 . S
C486 C487 1.370 . S
C486 C490 1.524 1_655 S
C487 C479 1.503 1_655 S
C487 C486 1.370 . S
C487 C488 1.403 . S
C488 C487 1.403 . S
C488 C489 1.404 . S
C488 C491 1.539 . S
C489 C485 1.408 . S
C489 C488 1.404 . S
C489 H501 0.930 . S
C490 C486 1.524 1_455 S
C490 H502 0.956 . S
C490 H503 0.961 . S
C490 H504 0.961 . S
C491 C488 1.539 . S
C491 H505 0.958 . S
C491 H506 0.961 . S
C491 H507 0.960 . S
H492 C476 0.931 . S
H493 C481 0.929 . S
H494 C482 0.960 . S
H495 C482 0.962 . S
H496 C482 0.960 . S
H497 C483 0.955 1_455 S
H498 C483 0.961 . S
H499 C483 0.961 . S
H500 C484 0.931 . S
H501 C489 0.930 . S
H502 C490 0.956 . S
H503 C490 0.961 . S
H504 C490 0.961 . S
H505 C491 0.958 . S
H506 C491 0.961 . S
H507 C491 0.960 . S
C508 C509 1.391 . S
C508 C510 1.394 . S
C508 H524 0.931 . S
C509 C508 1.391 . S
C509 C513 1.376 1_455 S
C510 C508 1.394 . S
C510 C511 1.369 . S
C510 C514 1.531 . S
C511 C510 1.369 . S
C511 C512 1.410 1_455 S
C511 C519 1.503 1_455 S
C512 C511 1.410 1_655 S
C512 C513 1.392 . S
C512 C515 1.511 . S
C513 C509 1.376 1_655 S
C513 C512 1.392 . S
C513 H525 0.929 1_545 S
C514 C510 1.531 . S
C514 H526 0.960 . S
C514 H527 0.962 . S
C514 H528 0.960 . S
C515 C512 1.511 . S
C515 H529 0.961 . S
C515 H530 0.961 . S
C515 H531 0.961 . S
C516 C517 1.370 . S
C516 C518 1.363 1_655 S
C516 H532 0.930 . S
C517 C516 1.370 . S
C517 C521 1.408 . S
C518 C516 1.363 1_455 S
C518 C519 1.370 1_455 S
C518 C522 1.524 . S
C519 C511 1.503 1_655 S
C519 C518 1.370 1_655 S
C519 C520 1.403 . S
C520 C519 1.403 . S
C520 C521 1.404 . S
C520 C523 1.539 . S
C521 C517 1.408 . S
C521 C520 1.404 . S
C521 H533 0.930 . S
C522 C518 1.524 . S
C522 H534 0.956 . S
C522 H535 0.961 1_455 S
C522 H536 0.961 . S
C523 C520 1.539 . S
C523 H537 0.958 1_655 S
C523 H538 0.961 . S
C523 H539 0.960 . S
H524 C508 0.931 . S
H525 C513 0.929 1_565 S
H526 C514 0.960 . S
H527 C514 0.962 . S
H528 C514 0.960 . S
H529 C515 0.961 . S
H530 C515 0.961 . S
H531 C515 0.961 . S
H532 C516 0.930 . S
H533 C521 0.930 . S
H534 C522 0.956 . S
H535 C522 0.961 1_655 S
H536 C522 0.961 . S
H537 C523 0.958 1_455 S
H538 C523 0.961 . S
H539 C523 0.960 . S
C540 C541 1.391 . S
C540 C542 1.394 . S
C540 H556 0.931 . S
C541 C540 1.391 . S
C541 C545 1.376 . S
C542 C540 1.394 . S
C542 C543 1.369 . S
C542 C546 1.531 . S
C543 C542 1.369 . S
C543 C544 1.410 . S
C543 C551 1.503 1_655 S
C544 C543 1.410 . S
C544 C545 1.392 . S
C544 C547 1.511 1_655 S
C545 C541 1.376 . S
C545 C544 1.392 . S
C545 H557 0.929 . S
C546 C542 1.531 . S
C546 H558 0.960 . S
C546 H559 0.962 . S
C546 H560 0.960 . S
C547 C544 1.511 1_455 S
C547 H561 0.961 . S
C547 H562 0.961 . S
C547 H563 0.961 . S
C548 C549 1.370 . S
C548 C550 1.363 . S
C548 H564 0.931 . S
C549 C548 1.370 . S
C549 C553 1.408 . S
C550 C548 1.363 . S
C550 C551 1.370 . S
C550 C554 1.524 . S
C551 C543 1.503 1_455 S
C551 C550 1.370 . S
C551 C552 1.403 . S
C552 C551 1.403 . S
C552 C553 1.404 . S
C552 C555 1.539 . S
C553 C549 1.408 . S
C553 C552 1.404 . S
C553 H565 0.930 . S
C554 C550 1.524 . S
C554 H566 0.956 . S
C554 H567 0.961 . S
C554 H568 0.961 . S
C555 C552 1.539 . S
C555 H569 0.958 1_455 S
C555 H570 0.961 . S
C555 H571 0.960 1_455 S
H556 C540 0.931 . S
H557 C545 0.929 . S
H558 C546 0.960 . S
H559 C546 0.962 . S
H560 C546 0.960 . S
H561 C547 0.961 . S
H562 C547 0.961 . S
H563 C547 0.961 . S
H564 C548 0.931 . S
H565 C553 0.930 . S
H566 C554 0.956 . S
H567 C554 0.961 . S
H568 C554 0.961 . S
H569 C555 0.958 1_655 S
H570 C555 0.961 . S
H571 C555 0.960 1_655 S
C572 C573 1.391 . S
C572 C574 1.394 . S
C572 H588 0.931 . S
C573 C572 1.391 . S
C573 C577 1.376 . S
C574 C572 1.394 . S
C574 C575 1.369 . S
C574 C578 1.531 . S
C575 C574 1.369 . S
C575 C576 1.410 . S
C575 C583 1.503 . S
C576 C575 1.410 . S
C576 C577 1.392 . S
C576 C579 1.511 . S
C577 C573 1.376 . S
C577 C576 1.392 . S
C577 H589 0.929 . S
C578 C574 1.531 . S
C578 H590 0.960 . S
C578 H591 0.962 . S
C578 H592 0.960 . S
C579 C576 1.511 . S
C579 H593 0.961 . S
C579 H594 0.961 . S
C579 H595 0.961 . S
C580 C581 1.370 . S
C580 C582 1.363 . S
C580 H596 0.931 . S
C581 C580 1.370 . S
C581 C585 1.408 . S
C582 C580 1.363 . S
C582 C583 1.370 . S
C582 C586 1.524 . S
C583 C575 1.503 . S
C583 C582 1.370 . S
C583 C584 1.403 . S
C584 C583 1.403 . S
C584 C585 1.404 . S
C584 C587 1.539 . S
C585 C581 1.408 . S
C585 C584 1.404 . S
C585 H597 0.930 . S
C586 C582 1.524 . S
C586 H598 0.956 . S
C586 H599 0.961 . S
C586 H600 0.961 . S
C587 C584 1.539 . S
C587 H601 0.958 . S
C587 H602 0.961 . S
C587 H603 0.960 . S
H588 C572 0.931 . S
H589 C577 0.929 . S
H590 C578 0.960 . S
H591 C578 0.962 . S
H592 C578 0.960 . S
H593 C579 0.961 . S
H594 C579 0.961 . S
H595 C579 0.961 . S
H596 C580 0.931 . S
H597 C585 0.930 . S
H598 C586 0.956 . S
H599 C586 0.961 . S
H600 C586 0.961 . S
H601 C587 0.958 . S
H602 C587 0.961 . S
H603 C587 0.960 . S
C604 C605 1.391 . S
C604 C606 1.394 . S
C604 H620 0.931 . S
C605 C604 1.391 . S
C605 C609 1.376 . S
C606 C604 1.394 . S
C606 C607 1.369 . S
C606 C610 1.531 . S
C607 C606 1.369 . S
C607 C608 1.410 . S
C607 C615 1.503 . S
C608 C607 1.410 . S
C608 C609 1.392 . S
C608 C611 1.511 . S
C609 C605 1.376 . S
C609 C608 1.392 . S
C609 H621 0.929 . S
C610 C606 1.531 . S
C610 H622 0.960 . S
C610 H623 0.962 . S
C610 H624 0.960 . S
C611 C608 1.511 . S
C611 H625 0.961 . S
C611 H626 0.961 . S
C611 H627 0.961 . S
C612 C613 1.370 . S
C612 C614 1.363 . S
C612 H628 0.931 . S
C613 C612 1.370 . S
C613 C617 1.408 . S
C614 C612 1.363 . S
C614 C615 1.370 . S
C614 C618 1.524 . S
C615 C607 1.503 . S
C615 C614 1.370 . S
C615 C616 1.403 . S
C616 C615 1.403 . S
C616 C617 1.404 . S
C616 C619 1.539 . S
C617 C613 1.408 . S
C617 C616 1.404 . S
C617 H629 0.930 . S
C618 C614 1.524 . S
C618 H630 0.956 . S
C618 H631 0.961 . S
C618 H632 0.961 . S
C619 C616 1.539 . S
C619 H633 0.958 . S
C619 H634 0.961 . S
C619 H635 0.960 . S
H620 C604 0.931 . S
H621 C609 0.929 . S
H622 C610 0.960 . S
H623 C610 0.962 . S
H624 C610 0.960 . S
H625 C611 0.961 . S
H626 C611 0.961 . S
H627 C611 0.961 . S
H628 C612 0.931 . S
H629 C617 0.930 . S
H630 C618 0.956 . S
H631 C618 0.961 . S
H632 C618 0.961 . S
H633 C619 0.958 . S
H634 C619 0.961 . S
H635 C619 0.960 . S
C125 C1 1.299 . S
C133 C58 1.262 . S
C157 C89 1.850 . S
C165 C32 1.871 . S
C189 C62 1.347 . S
C197 C117 1.282 . S
C221 C24 1.351 . S
C229 C93 1.415 . S
C253 C94 1.846 . S
C261 C27 1.873 . S
C285 C31 1.452 . S
C293 C86 1.370 . S
C317 C63 1.218 . S
C325 C120 1.298 . S
C349 C0 1.334 . S
C357 C55 1.284 . S
C381 C18 1.660 1_565 S
C389 C11 1.670 . S
C413 C41 1.378 . S
C421 C33 1.347 . S
C445 C80 1.683 . S
C453 C73 1.662 1_545 S
C477 C95 1.338 . S
C485 C103 1.363 . S
C509 C42 1.647 1_545 S
C517 C49 1.676 . S
C541 C72 1.373 . S
C549 C64 1.349 . S
C573 C104 1.648 . S
C581 C111 1.675 1_565 S
C605 C2 1.336 . S
C613 C10 1.366 . S
