# Generated by pormake.
# Topology whz, (6)-cn, num edge types: 1
# Building blocks:
#     Node 0, Type 0, BuildingBlock: HISSIN_clean_sbu_0, # of connection points: 6
#     Node 1, Type 0, BuildingBlock: HISSIN_clean_sbu_0, # of connection points: 6
#     Node 2, Type 0, BuildingBlock: HISSIN_clean_sbu_0, # of connection points: 6
#     Node 3, Type 0, BuildingBlock: HISSIN_clean_sbu_0, # of connection points: 6
#     Node 4, Type 0, BuildingBlock: HISSIN_clean_sbu_0, # of connection points: 6
#     Node 5, Type 0, BuildingBlock: HISSIN_clean_sbu_0, # of connection points: 6
#     Node 6, Type 0, BuildingBlock: HISSIN_clean_sbu_0, # of connection points: 6
#     Node 7, Type 0, BuildingBlock: HISSIN_clean_sbu_0, # of connection points: 6
#     Node 8, Type 0, BuildingBlock: HISSIN_clean_sbu_0, # of connection points: 6
#     Node 9, Type 0, BuildingBlock: HISSIN_clean_sbu_0, # of connection points: 6
#     Node 10, Type 0, BuildingBlock: HISSIN_clean_sbu_0, # of connection points: 6
#     Node 11, Type 0, BuildingBlock: HISSIN_clean_sbu_0, # of connection points: 6
#     Node 12, Type 0, BuildingBlock: HISSIN_clean_sbu_0, # of connection points: 6
#     Node 13, Type 0, BuildingBlock: HISSIN_clean_sbu_0, # of connection points: 6
#     Node 14, Type 0, BuildingBlock: HISSIN_clean_sbu_0, # of connection points: 6
#     Node 15, Type 0, BuildingBlock: HISSIN_clean_sbu_0, # of connection points: 6
#     Edge 16, Type (0, 0), BuildingBlock: EZIPEK_clean_linker_0, # of connection points: 2
#     Edge 17, Type (0, 0), BuildingBlock: EZIPEK_clean_linker_0, # of connection points: 2
#     Edge 18, Type (0, 0), BuildingBlock: EZIPEK_clean_linker_0, # of connection points: 2
#     Edge 19, Type (0, 0), BuildingBlock: EZIPEK_clean_linker_0, # of connection points: 2
#     Edge 20, Type (0, 0), BuildingBlock: EZIPEK_clean_linker_0, # of connection points: 2
#     Edge 21, Type (0, 0), BuildingBlock: EZIPEK_clean_linker_0, # of connection points: 2
#     Edge 22, Type (0, 0), BuildingBlock: EZIPEK_clean_linker_0, # of connection points: 2
#     Edge 23, Type (0, 0), BuildingBlock: EZIPEK_clean_linker_0, # of connection points: 2
#     Edge 24, Type (0, 0), BuildingBlock: EZIPEK_clean_linker_0, # of connection points: 2
#     Edge 25, Type (0, 0), BuildingBlock: EZIPEK_clean_linker_0, # of connection points: 2
#     Edge 26, Type (0, 0), BuildingBlock: EZIPEK_clean_linker_0, # of connection points: 2
#     Edge 27, Type (0, 0), BuildingBlock: EZIPEK_clean_linker_0, # of connection points: 2
#     Edge 28, Type (0, 0), BuildingBlock: EZIPEK_clean_linker_0, # of connection points: 2
#     Edge 29, Type (0, 0), BuildingBlock: EZIPEK_clean_linker_0, # of connection points: 2
#     Edge 30, Type (0, 0), BuildingBlock: EZIPEK_clean_linker_0, # of connection points: 2
#     Edge 31, Type (0, 0), BuildingBlock: EZIPEK_clean_linker_0, # of connection points: 2
#     Edge 32, Type (0, 0), BuildingBlock: EZIPEK_clean_linker_0, # of connection points: 2
#     Edge 33, Type (0, 0), BuildingBlock: EZIPEK_clean_linker_0, # of connection points: 2
#     Edge 34, Type (0, 0), BuildingBlock: EZIPEK_clean_linker_0, # of connection points: 2
#     Edge 35, Type (0, 0), BuildingBlock: EZIPEK_clean_linker_0, # of connection points: 2
#     Edge 36, Type (0, 0), BuildingBlock: EZIPEK_clean_linker_0, # of connection points: 2
#     Edge 37, Type (0, 0), BuildingBlock: EZIPEK_clean_linker_0, # of connection points: 2
#     Edge 38, Type (0, 0), BuildingBlock: EZIPEK_clean_linker_0, # of connection points: 2
#     Edge 39, Type (0, 0), BuildingBlock: EZIPEK_clean_linker_0, # of connection points: 2
#     Edge 40, Type (0, 0), BuildingBlock: EZIPEK_clean_linker_0, # of connection points: 2
#     Edge 41, Type (0, 0), BuildingBlock: EZIPEK_clean_linker_0, # of connection points: 2
#     Edge 42, Type (0, 0), BuildingBlock: EZIPEK_clean_linker_0, # of connection points: 2
#     Edge 43, Type (0, 0), BuildingBlock: EZIPEK_clean_linker_0, # of connection points: 2
#     Edge 44, Type (0, 0), BuildingBlock: EZIPEK_clean_linker_0, # of connection points: 2
#     Edge 45, Type (0, 0), BuildingBlock: EZIPEK_clean_linker_0, # of connection points: 2
#     Edge 46, Type (0, 0), BuildingBlock: EZIPEK_clean_linker_0, # of connection points: 2
#     Edge 47, Type (0, 0), BuildingBlock: EZIPEK_clean_linker_0, # of connection points: 2
#     Edge 48, Type (0, 0), BuildingBlock: EZIPEK_clean_linker_0, # of connection points: 2
#     Edge 49, Type (0, 0), BuildingBlock: EZIPEK_clean_linker_0, # of connection points: 2
#     Edge 50, Type (0, 0), BuildingBlock: EZIPEK_clean_linker_0, # of connection points: 2
#     Edge 51, Type (0, 0), BuildingBlock: EZIPEK_clean_linker_0, # of connection points: 2
#     Edge 52, Type (0, 0), BuildingBlock: EZIPEK_clean_linker_0, # of connection points: 2
#     Edge 53, Type (0, 0), BuildingBlock: EZIPEK_clean_linker_0, # of connection points: 2
#     Edge 54, Type (0, 0), BuildingBlock: EZIPEK_clean_linker_0, # of connection points: 2
#     Edge 55, Type (0, 0), BuildingBlock: EZIPEK_clean_linker_0, # of connection points: 2
#     Edge 56, Type (0, 0), BuildingBlock: EZIPEK_clean_linker_0, # of connection points: 2
#     Edge 57, Type (0, 0), BuildingBlock: EZIPEK_clean_linker_0, # of connection points: 2
#     Edge 58, Type (0, 0), BuildingBlock: EZIPEK_clean_linker_0, # of connection points: 2
#     Edge 59, Type (0, 0), BuildingBlock: EZIPEK_clean_linker_0, # of connection points: 2
#     Edge 60, Type (0, 0), BuildingBlock: EZIPEK_clean_linker_0, # of connection points: 2
#     Edge 61, Type (0, 0), BuildingBlock: EZIPEK_clean_linker_0, # of connection points: 2
#     Edge 62, Type (0, 0), BuildingBlock: EZIPEK_clean_linker_0, # of connection points: 2
#     Edge 63, Type (0, 0), BuildingBlock: EZIPEK_clean_linker_0, # of connection points: 2
# Relax obj value: 0.867
# Max RMSD: 0.331
# Mean RMSD: 0.331
data_MOF--net-whz--node1-HISSIN_clean_sbu_0--edge1-EZIPEK_clean_linker_0
_symmetry_space_group_name_H-M    P1
_symmetry_Int_Tables_number       1
_symmetry_cell_setting            triclinic
loop_
_symmetry_equiv_pos_as_xyz
'x, y, z'
_cell_length_a     25.894919
_cell_length_b     26.06837
_cell_length_c     57.864283
_cell_angle_alpha  89.837452
_cell_angle_beta   90.044711
_cell_angle_gamma 89.91752
loop_
_atom_site_label
_atom_site_type_symbol
_atom_site_fract_x
_atom_site_fract_y
_atom_site_fract_z
_atom_type_partial_charge
Eu0 Eu 0.31643 0.2383 0.19938 0.0
Eu1 Eu 0.32127 0.17684 0.15097 0.0
C2 C 0.36172 0.12565 0.20011 0.0
C3 C 0.36578 0.33751 0.23916 0.0
C4 C 0.40146 0.33015 0.25703 0.0
C5 C 0.40269 0.42171 0.23188 0.0
C6 C 0.43472 0.36981 0.26341 0.0
C7 C 0.36934 0.38216 0.22562 0.0
C8 C 0.43174 0.41853 0.25246 0.0
C9 C 0.32554 0.29869 0.23454 0.0
O10 O 0.23979 0.1642 0.16462 0.0
O11 O 0.2546 0.17701 0.20341 0.0
C12 C 0.22643 0.15777 0.18646 0.0
O13 O 0.25165 0.26892 0.17804 0.0
O14 O 0.29373 0.12109 0.1252 0.0
O15 O 0.35782 0.1706 0.11691 0.0
O16 O 0.29481 0.26025 0.14432 0.0
C17 C 0.2601 0.28438 0.157 0.0
O18 O 0.38147 0.27089 0.17783 0.0
O19 O 0.40428 0.19647 0.16068 0.0
O20 O 0.34088 0.11664 0.17947 0.0
O21 O 0.29449 0.3082 0.2173 0.0
O22 O 0.34009 0.25082 0.23523 0.0
O23 O 0.36796 0.17243 0.20751 0.0
C24 C 0.30878 0.13928 0.08447 0.0
C25 C 0.25976 0.122 0.07729 0.0
C26 C 0.33109 0.15251 1.04364 0.0
C27 C 0.24679 0.11982 0.05363 0.0
C28 C 0.34401 0.15485 0.06725 0.0
C29 C 0.28245 0.13464 1.0365 0.0
C30 C 0.32617 0.13574 0.10924 0.0
C31 C 0.41715 0.24191 0.16855 0.0
H32 H 0.40145 0.29497 0.26705 0.0
H33 H 0.40149 0.45652 0.22175 0.0
H34 H 0.4584 0.36333 0.27853 0.0
H35 H 0.34444 0.38786 0.21085 0.0
H36 H 0.23183 0.10892 0.0899 0.0
H37 H 0.35952 0.16372 1.03087 0.0
H38 H 0.20922 0.10541 1.04863 0.0
H39 H 0.38238 0.16751 0.072 0.0
Eu40 Eu 0.56754 0.5638 0.45387 0.0
Eu41 Eu 0.62061 0.5736 0.40299 0.0
C42 C 0.67787 0.61038 0.45116 0.0
C43 C 0.49728 0.60554 0.50678 0.0
C44 C 0.48421 0.65369 0.4973 0.0
C45 C 0.49242 0.6419 0.54504 0.0
C46 C 0.47688 0.69615 0.51169 0.0
C47 C 0.49948 0.59961 0.53075 0.0
C48 C 0.48357 0.691 0.53563 0.0
C49 C 0.51476 0.56324 0.49199 0.0
O50 O 0.64198 0.49396 0.41554 0.0
O51 O 0.63052 0.50229 0.45475 0.0
C52 C 0.64978 0.47757 0.43679 0.0
O53 O 0.53552 0.50316 0.43114 0.0
O54 O 0.66544 0.60266 0.37244 0.0
O55 O 0.61498 0.53575 0.36984 0.0
O56 O 0.53344 0.5587 0.40162 0.0
C57 C 0.51421 0.51816 0.41204 0.0
O58 O 0.53811 0.63932 0.43821 0.0
O59 O 0.5984 0.65613 0.41009 0.0
O60 O 0.68498 0.58749 0.43076 0.0
O61 O 0.49346 0.56054 0.47155 0.0
O62 O 0.56476 0.55632 0.49138 0.0
O63 O 0.63133 0.61895 0.45871 0.0
C64 C 0.65803 0.55841 0.33398 0.0
C65 C 0.64774 0.51026 0.32393 0.0
C66 C 0.6804 0.59022 0.29526 0.0
C67 C 0.65381 0.50212 0.30009 0.0
C68 C 0.67489 0.59826 0.31931 0.0
C69 C 0.67 0.54189 0.28534 0.0
C70 C 0.64569 0.56719 0.35906 0.0
C71 C 0.56133 0.67166 0.42398 0.0
H72 H 0.48184 0.65902 0.47876 0.0
H73 H 0.49649 0.63664 0.56352 0.0
H74 H 0.46816 0.73315 0.5041 0.0
H75 H 0.50923 0.56283 0.53838 0.0
H76 H 0.63427 0.47865 0.3345 0.0
H77 H 0.69259 0.62179 0.28436 0.0
H78 H 0.64534 0.46456 0.29308 0.0
H79 H 0.68236 0.63601 0.3263 0.0
Eu80 Eu 0.22888 0.81793 0.70317 0.0
Eu81 Eu 0.22974 0.86777 0.65132 0.0
C82 C 0.18442 0.92731 0.69699 0.0
C83 C 0.25718 0.83255 0.76411 0.0
C84 C 0.24022 0.88384 0.76593 0.0
C85 C 0.33275 0.8543 0.78662 0.0
C86 C 0.26999 0.92005 0.77768 0.0
C87 C 0.30309 0.81794 0.7751 0.0
C88 C 0.31668 0.90565 0.7879 0.0
C89 C 0.23419 0.79786 0.74689 0.0
O90 O 0.30977 0.89091 0.66153 0.0
O91 O 0.30168 0.86855 0.69999 0.0
C92 C 0.32766 0.88988 0.68273 0.0
O93 O 0.25241 0.7512 0.68212 0.0
O94 O 0.23797 0.92458 0.62321 0.0
O95 O 0.20578 0.84956 0.61595 0.0
O96 O 0.28589 0.79816 0.65226 0.0
C97 C 0.28446 0.75563 0.66489 0.0
O98 O 0.16352 0.77591 0.6859 0.0
O99 O 0.14758 0.83934 0.65944 0.0
O100 O 0.2117 0.93361 0.6777 0.0
O101 O 0.19184 0.81379 0.737 0.0
O102 O 0.2669 0.7791 0.732 0.0
O103 O 0.17178 0.88131 0.70315 0.0
C104 C 0.24012 0.8952 0.58312 0.0
C105 C 0.28912 0.91488 0.57737 0.0
C106 C 0.22381 0.88188 0.54175 0.0
C107 C 0.30508 0.91803 0.55403 0.0
C108 C 0.20804 0.87843 0.56497 0.0
C109 C 0.27214 0.90256 0.53589 0.0
C110 C 0.21946 0.89389 0.60738 0.0
C111 C 0.13239 0.79834 0.67105 0.0
H112 H 0.2053 0.89666 0.75737 0.0
H113 H 0.36932 0.8426 0.79377 0.0
H114 H 0.25737 0.95945 0.77846 0.0
H115 H 0.31768 0.77912 0.77353 0.0
H116 H 0.31484 0.92831 0.59081 0.0
H117 H 0.19787 0.869 0.52828 0.0
H118 H 0.34285 0.93357 0.55009 0.0
H119 H 0.17005 0.86321 0.56875 0.0
Eu120 Eu 1.00919 0.47891 0.94621 0.0
Eu121 Eu 0.93739 0.46928 0.90129 0.0
C122 C 0.893 0.43585 0.95284 0.0
C123 C 0.11797 0.42991 0.98391 0.0
C124 C 0.11114 0.40172 1.00432 0.0
C125 C 0.20563 0.39703 0.98126 0.0
C126 C 0.15295 0.37575 1.01418 0.0
C127 C 0.16379 0.42278 0.97128 0.0
C128 C 0.20284 0.38111 1.00451 0.0
C129 C 0.08058 0.4705 0.97744 0.0
O130 O 0.90288 0.53527 0.92117 0.0
O131 O 0.96001 0.55096 0.9504 0.0
C132 C 0.91786 0.56337 0.93877 0.0
O133 O 1.02857 0.54687 0.92472 0.0
O134 O 0.92043 0.43335 0.86773 0.0
O135 O 0.8829 0.50427 0.87697 0.0
O136 O 1.01885 0.50062 0.89245 0.0
C137 C 0.04162 0.53868 0.90345 0.0
O138 O 1.03275 0.40969 0.92467 0.0
O139 O 0.95499 0.38679 0.91036 0.0
O140 O 0.883 0.44156 0.9304 0.0
O141 O 0.08778 0.49301 0.95754 0.0
O142 O 1.03183 0.46229 0.98188 0.0
O143 O 0.93854 0.4448 0.96176 0.0
C144 C 0.89552 0.48976 0.83629 0.0
C145 C 0.91368 0.45735 0.81859 0.0
C146 C 0.87709 0.55493 0.80675 0.0
C147 C 0.91346 0.47345 0.79533 0.0
C148 C 0.87751 0.53897 0.82999 0.0
C149 C 0.89444 0.52215 0.7891 0.0
C150 C 0.8905 0.47062 0.86071 0.0
C151 C 1.00105 0.37375 0.9176 0.0
H152 H 0.0751 0.40368 1.01376 0.0
H153 H 0.24238 0.39807 0.97239 0.0
H154 H 0.14745 0.35941 1.03121 0.0
H155 H 0.16917 0.44105 0.95468 0.0
H156 H 0.92723 0.41904 0.82265 0.0
H157 H 0.86258 0.59279 0.80248 0.0
H158 H 0.92735 0.44754 0.78212 0.0
H159 H 0.8627 0.56498 0.84297 0.0
Eu160 Eu 0.73868 0.85504 0.94754 0.0
Eu161 Eu 0.76195 0.78722 0.90141 0.0
C162 C 0.80438 0.75172 0.94824 0.0
C163 C 0.75036 0.89979 1.01208 0.0
C164 C 0.73 0.86856 1.02984 0.0
C165 C 0.80917 0.93707 1.04072 0.0
C166 C 0.74888 0.87157 0.05264 0.0
C167 C 0.79032 0.93409 1.01792 0.0
C168 C 0.78859 0.906 0.05839 0.0
C169 C 0.72711 0.89937 0.98822 0.0
O170 O 0.68346 0.76063 0.91553 0.0
O171 O 0.65898 0.83226 0.93581 0.0
C172 C 0.64748 0.78859 0.9258 0.0
O173 O 0.71716 0.90671 0.91569 0.0
O174 O 0.78182 0.772 0.86541 0.0
O175 O 0.77571 0.70906 0.88972 0.0
O176 O 0.70969 0.84626 0.88663 0.0
C177 C 0.70476 0.89339 0.89403 0.0
O178 O 0.82173 0.8728 0.93851 0.0
O179 O 0.81906 0.8533 0.89983 0.0
O180 O 0.82042 0.76986 0.92869 0.0
O181 O 0.75311 0.91954 0.97113 0.0
O182 O 0.70259 0.85817 0.98175 0.0
O183 O 0.76245 0.77233 0.95696 0.0
C184 C 0.84499 0.70797 0.86337 0.0
C185 C 0.85679 0.69653 0.84042 0.0
C186 C 0.93673 0.71357 0.87209 0.0
C187 C 0.9081 0.69659 0.83307 0.0
C188 C 0.88532 0.71313 0.87946 0.0
C189 C 0.94851 0.7095 0.84847 0.0
C190 C 0.79222 0.72377 0.86948 0.0
C191 C 0.84039 0.87713 0.91747 0.0
H192 H 0.69871 0.84226 1.02622 0.0
H193 H 0.83952 0.96422 1.04466 0.0
H194 H 0.73196 0.84748 0.06589 0.0
H195 H 0.80658 0.95933 1.00494 0.0
H196 H 0.82628 0.69188 0.82777 0.0
H197 H 0.96657 0.72052 0.88473 0.0
H198 H 0.91512 0.69219 0.81474 0.0
H199 H 0.87704 0.72057 0.89747 0.0
Eu200 Eu 0.4366 0.4745 0.69955 0.0
Eu201 Eu 0.51355 0.50116 0.65563 0.0
C202 C 0.54536 0.5304 0.70377 0.0
C203 C 0.39068 0.47457 0.76474 0.0
C204 C 0.39311 0.52695 0.77059 0.0
C205 C 0.38263 0.45432 0.80605 0.0
C206 C 0.39029 0.54271 0.79393 0.0
C207 C 0.3854 0.43864 0.78281 0.0
C208 C 0.3849 0.50657 0.81199 0.0
C209 C 0.39398 0.4557 0.74028 0.0
O210 O 0.5294 0.41641 0.65887 0.0
O211 O 0.47616 0.39869 0.68999 0.0
C212 C 0.50971 0.38403 0.67401 0.0
O213 O 0.38968 0.44561 0.66815 0.0
O214 O 0.53641 0.51832 0.62003 0.0
O215 O 0.58896 0.53424 0.64813 0.0
O216 O 0.44352 0.4697 0.63773 0.0
C217 C 0.40019 0.45009 0.64566 0.0
O218 O 0.39551 0.54071 0.68287 0.0
O219 O 0.46579 0.57286 0.66343 0.0
O220 O 0.55688 0.49557 0.68873 0.0
O221 O 0.37147 0.48183 0.72381 0.0
O222 O 0.43816 0.43695 0.73354 0.0
O223 O 0.49634 0.53603 0.70858 0.0
C224 C 0.57858 0.59785 0.61994 0.0
C225 C 0.59303 0.61244 0.59765 0.0
C226 C 0.54849 0.68466 0.62744 0.0
C227 C 0.58341 0.66241 0.59001 0.0
C228 C 0.55853 0.63488 0.63508 0.0
C229 C 0.5581 0.69842 0.60441 0.0
C230 C 0.5774 0.54346 0.62661 0.0
C231 C 0.41785 0.57716 0.67084 0.0
H232 H 0.39745 0.55565 0.75717 0.0
H233 H 0.37894 0.42552 0.81947 0.0
H234 H 0.39256 0.5832 0.79792 0.0
H235 H 0.38358 0.39805 0.77894 0.0
H236 H 0.60877 0.58453 0.58573 0.0
H237 H 0.53125 0.71134 0.6394 0.0
H238 H 0.59187 0.67112 0.57211 0.0
H239 H 0.54785 0.62457 0.6525 0.0
Eu240 Eu 0.8217 0.17543 0.44251 0.0
Eu241 Eu 0.81979 0.23196 0.3906 0.0
C242 C 0.76684 0.28931 0.43339 0.0
C243 C 0.80074 0.13743 0.5084 0.0
C244 C 0.75328 0.16163 0.51314 0.0
C245 C 0.80377 0.10811 0.54862 0.0
C246 C 0.73108 0.15855 0.53541 0.0
C247 C 0.82588 0.11126 0.52649 0.0
C248 C 0.75594 0.13131 0.55336 0.0
C249 C 0.82503 0.13777 0.48497 0.0
O250 O 0.88541 0.26701 0.41103 0.0
O251 O 0.90444 0.19703 0.43325 0.0
C252 C 0.91877 0.23997 0.42313 0.0
O253 O 0.84651 0.11116 0.41709 0.0
O254 O 0.86402 0.2635 0.36176 0.0
O255 O 0.78062 0.26273 0.36013 0.0
O256 O 0.86382 0.16006 0.38484 0.0
C257 C 0.864 0.11597 0.39559 0.0
O258 O 0.7409 0.16308 0.42879 0.0
O259 O 0.7562 0.17207 0.38985 0.0
O260 O 0.76939 0.28382 0.41098 0.0
O261 O 0.8491 0.17921 0.47838 0.0
O262 O 0.80042 0.11619 0.46788 0.0
O263 O 0.78908 0.25687 0.448 0.0
C264 C 0.82496 0.23299 0.32772 0.0
C265 C 0.85345 0.18685 0.32807 0.0
C266 C 0.777 0.20155 0.29484 0.0
C267 C 0.84123 0.14728 0.31283 0.0
C268 C 0.78864 0.24108 0.31017 0.0
C269 C 0.80097 0.15353 0.29706 0.0
C270 C 0.82354 0.26563 0.3484 0.0
C271 C 0.72741 0.15579 0.40711 0.0
H272 H 0.73304 0.18214 0.49957 0.0
H273 H 0.82346 0.08634 0.56196 0.0
H274 H 0.69383 0.17618 0.53846 0.0
H275 H 0.86247 0.0923 0.52338 0.0
H276 H 0.8822 0.17965 0.34126 0.0
H277 H 0.74669 0.20726 0.28236 0.0
H278 H 0.86022 0.1107 0.31443 0.0
H279 H 0.7662 0.27618 0.30955 0.0
Eu280 Eu 0.12383 0.57076 0.19684 0.0
Eu281 Eu 0.07731 0.56734 0.14467 0.0
C282 C 1.01519 0.51932 0.18521 0.0
C283 C 0.1635 0.55656 0.26578 0.0
C284 C 0.16951 0.50676 0.27495 0.0
C285 C 0.16872 0.58986 0.30536 0.0
C286 C 0.17461 0.49857 0.29889 0.0
C287 C 0.16441 0.59813 0.28129 0.0
C288 C 0.17328 0.53985 0.3145 0.0
C289 C 0.14915 0.56391 0.24081 0.0
O290 O 1.03696 0.63498 0.16182 0.0
O291 O 0.0989 0.65304 0.18896 0.0
C292 C 0.05993 0.66782 0.17579 0.0
O293 O 0.19392 0.58503 0.17198 0.0
O294 O 0.05603 0.60287 0.11174 0.0
O295 O 0.03814 0.52315 0.1179 0.0
O296 O 0.14758 0.61538 0.14106 0.0
C297 C 0.19188 0.60716 0.15112 0.0
O298 O 0.14257 0.49133 0.18276 0.0
O299 O 0.14323 0.50976 0.14408 0.0
O300 O 0.03842 0.50748 0.16605 0.0
O301 O 0.16112 0.60393 0.2282 0.0
O302 O 0.12591 0.52786 0.22929 0.0
O303 O 1.03607 0.55514 0.19821 0.0
C304 C 0.08134 0.54245 0.08374 0.0
C305 C 0.13036 0.56541 0.08194 0.0
C306 C 0.112 0.47165 0.06036 0.0
C307 C 0.17005 0.5407 0.07023 0.0
C308 C 0.07199 0.49622 0.07213 0.0
C309 C 0.16173 0.49316 0.05988 0.0
C310 C 0.04638 0.55847 0.10237 0.0
C311 C 0.15534 0.47929 0.16143 0.0
H312 H 0.16873 0.47376 0.26362 0.0
H313 H 0.16694 0.62242 0.31692 0.0
H314 H 0.17785 0.45964 0.30534 0.0
H315 H 0.1591 0.63689 0.27493 0.0
H316 H 0.13937 0.60067 0.09094 0.0
H317 H 0.10476 0.43459 0.05267 0.0
H318 H 0.20774 0.55777 0.06981 0.0
H319 H 1.03497 0.47719 0.07369 0.0
Eu320 Eu 0.81455 0.74209 0.70335 0.0
Eu321 Eu 0.81333 0.67403 0.65485 0.0
C322 C 0.85964 0.62622 0.70362 0.0
C323 C 0.86815 0.81247 0.75525 0.0
C324 C 0.91768 0.82565 0.74711 0.0
C325 C 0.90354 0.80145 0.79365 0.0
C326 C 0.96029 0.82407 0.76209 0.0
C327 C 0.86116 0.80317 0.77887 0.0
C328 C 0.95382 0.80858 0.78509 0.0
C329 C 0.82501 0.80124 0.73941 0.0
O330 O 0.73765 0.65321 0.67253 0.0
O331 O 0.747 0.68862 0.709 0.0
C332 C 0.72242 0.65925 0.69414 0.0
O333 O 0.74782 0.77144 0.68296 0.0
O334 O 0.77803 0.62212 0.62943 0.0
O335 O 0.84969 0.6599 0.62115 0.0
O336 O 0.78283 0.75512 0.64761 0.0
C337 C 0.75004 0.78026 0.66083 0.0
O338 O 0.88093 0.76841 0.68061 0.0
O339 O 0.89756 0.69345 0.66205 0.0
O340 O 0.83891 0.61654 0.68306 0.0
O341 O 0.82854 0.81792 0.71817 0.0
O342 O 0.80781 0.75429 0.74042 0.0
O343 O 0.86233 0.67301 0.71185 0.0
C344 C 0.79673 0.6356 0.58873 0.0
C345 C 0.74447 0.63688 0.58182 0.0
C346 C 0.82119 0.63443 0.54776 0.0
C347 C 0.7309 0.63655 0.55818 0.0
C348 C 0.83474 0.63483 0.57132 0.0
C349 C 0.76913 0.63462 0.54087 0.0
C350 C 0.81289 0.63032 0.61358 0.0
C351 C 0.91345 0.73788 0.66998 0.0
H352 H 0.92396 0.83441 0.72903 0.0
H353 H 0.89726 0.79136 0.81158 0.0
H354 H 0.9984 0.83254 0.75559 0.0
H355 H 0.82328 0.79387 0.78563 0.0
H356 H 0.71403 0.63715 0.59464 0.0
H357 H 0.85146 0.6329 0.53487 0.0
H358 H 0.69044 0.63672 0.5534 0.0
H359 H 0.87526 0.63329 0.57595 0.0
Eu360 Eu 0.07807 0.05553 0.95263 0.0
Eu361 Eu 0.12976 0.06352 0.9008 0.0
C362 C 0.18864 0.10221 0.94851 0.0
C363 C 1.0212 0.10674 1.00617 0.0
C364 C 1.02447 0.15564 0.99593 0.0
C365 C 1.01895 0.1464 1.04383 0.0
C366 C 1.02792 0.19954 1.00965 0.0
C367 C 1.01628 0.10253 1.03013 0.0
C368 C 1.0277 0.19495 1.03376 0.0
C369 C 1.03144 0.06088 0.99225 0.0
O370 O 0.14606 0.98182 0.91159 0.0
O371 O 0.13884 0.99137 0.9511 0.0
C372 C 0.15547 0.96575 0.93277 0.0
O373 O 0.0429 0.9918 0.9332 0.0
O374 O 0.12323 0.0996 0.86661 0.0
O375 O 0.18309 0.04324 0.87258 0.0
O376 O 0.04705 1.0313 0.89803 0.0
C377 C 1.02596 0.99742 0.91222 0.0
O378 O 0.04329 0.12504 0.93424 0.0
O379 O 0.11163 0.14536 0.91128 0.0
O380 O 0.19459 0.08058 0.92782 0.0
O381 O 1.00677 0.05837 0.97259 0.0
O382 O 0.08033 0.04926 0.99018 0.0
O383 O 0.1428 0.10977 0.95703 0.0
C384 C 0.15415 0.05554 0.83286 0.0
C385 C 0.15995 1.00393 0.82619 0.0
C386 C 0.14424 0.07833 0.79186 0.0
C387 C 0.15902 0.98999 0.80262 0.0
C388 C 0.14538 0.09228 0.81535 0.0
C389 C 0.15247 1.02719 0.78511 0.0
C390 C 0.16065 0.07313 0.85741 0.0
C391 C 0.06955 0.15906 0.92225 0.0
H392 H 1.02776 0.15953 0.97739 0.0
H393 H 1.01871 0.14172 0.06243 0.0
H394 H 1.03423 0.23646 1.00156 0.0
H395 H 1.01386 0.06519 1.03833 0.0
H396 H 0.1665 0.97449 0.8391 0.0
H397 H 0.13876 0.10782 0.77886 0.0
H398 H 0.1648 0.95017 0.79801 0.0
H399 H 0.14075 0.13235 0.81983 0.0
Eu400 Eu 0.72913 0.32433 0.20303 0.0
Eu401 Eu 0.72632 0.37888 0.15228 0.0
C402 C 0.69853 0.44387 0.19994 0.0
C403 C 0.68149 0.22357 0.24109 0.0
C404 C 0.65685 0.20553 0.26094 0.0
C405 C 0.68329 0.13733 0.22571 0.0
C406 C 0.6514 0.15271 0.26423 0.0
C407 C 0.68935 0.19 0.22252 0.0
C408 C 0.67289 0.11795 0.248 0.0
C409 C 0.70267 0.27562 0.24009 0.0
O410 O 0.79504 0.41465 0.16901 0.0
O411 O 0.80724 0.36672 0.20217 0.0
C412 C 0.82274 0.40229 0.18722 0.0
O413 O 0.77985 0.26914 0.18578 0.0
O414 O 0.69565 0.37528 0.11686 0.0
O415 O 0.75214 0.43295 0.12555 0.0
O416 O 0.76936 0.30006 0.14865 0.0
C417 C 0.78821 0.26594 0.16369 0.0
O418 O 0.66575 0.29056 0.18045 0.0
O419 O 0.64305 0.36145 0.16054 0.0
O420 O 0.69605 0.44248 0.17695 0.0
O421 O 0.75069 0.27876 0.23313 0.0
O422 O 0.67277 0.30933 0.23015 0.0
O423 O 0.71365 0.40486 0.21229 0.0
C424 C 0.7478 0.40711 0.08544 0.0
C425 C 0.71611 0.39277 0.06673 0.0
C426 C 0.81827 0.4209 0.05784 0.0
C427 C 0.735 0.39288 1.04393 0.0
C428 C 0.79939 0.42079 0.08068 0.0
C429 C 0.78609 0.40759 1.03917 0.0
C430 C 0.72471 0.41234 0.1091 0.0
C431 C 0.63032 0.31766 0.16984 0.0
H432 H 0.64722 0.23149 0.27488 0.0
H433 H 0.69504 0.11221 0.21186 0.0
H434 H 0.63802 0.14005 0.281 0.0
H435 H 0.70486 0.20392 0.2063 0.0
H436 H 0.6761 0.38262 0.06968 0.0
H437 H 0.85784 0.43235 0.05468 0.0
H438 H 0.70936 0.38245 1.02992 0.0
H439 H 0.82494 0.43243 0.09453 0.0
Eu440 Eu 0.47637 0.9922 0.45369 0.0
Eu441 Eu 0.42842 0.97932 0.40107 0.0
C442 C 0.37147 0.93699 0.44814 0.0
C443 C 0.45112 1.03245 0.51196 0.0
C444 C 0.40083 0.03634 0.50297 0.0
C445 C 0.42288 0.07861 0.54595 0.0
C446 C 0.36267 0.06351 0.51464 0.0
C447 C 0.46205 0.05368 0.53359 0.0
C448 C 0.37297 0.08396 0.53646 0.0
C449 C 0.49177 1.0109 0.49716 0.0
O450 O 0.415 0.06262 0.40933 0.0
O451 O 0.41025 0.04892 0.44812 0.0
C452 C 0.40096 0.07772 0.42995 0.0
O453 O 0.53637 1.03277 0.43328 0.0
O454 O 0.36873 0.98996 0.3744 0.0
O455 O 0.43757 0.94637 0.36653 0.0
O456 O 0.50581 1.02119 0.39605 0.0
C457 C 0.54007 0.03934 0.41094 0.0
O458 O 0.52064 0.92398 0.43914 0.0
O459 O 0.45939 0.90114 0.41223 0.0
O460 O 0.36374 0.96023 0.42794 0.0
O461 O 0.48266 0.96492 0.48936 0.0
O462 O 0.50713 0.04173 0.48079 0.0
O463 O 0.41828 0.9304 0.45549 0.0
C464 C 0.39676 0.98882 0.33435 0.0
C465 C 0.42694 0.96519 0.31708 0.0
C466 C 0.36371 0.0477 0.30468 0.0
C467 C 0.42543 0.9824 0.29401 0.0
C468 C 0.36518 1.03049 0.32778 0.0
C469 C 0.39362 1.02372 0.28749 0.0
C470 C 0.39516 0.96653 0.35833 0.0
C471 C 0.49992 0.88966 0.4251 0.0
H472 H 0.3912 1.0189 0.48666 0.0
H473 H 0.43164 0.09439 0.56281 0.0
H474 H 0.32489 0.06782 0.50683 0.0
H475 H 0.50064 0.05144 0.54076 0.0
H476 H 0.45105 0.93251 0.32133 0.0
H477 H 0.33857 0.0794 0.30014 0.0
H478 H 0.44855 0.9629 0.28114 0.0
H479 H 0.34083 0.04932 0.34039 0.0
Eu480 Eu 0.22904 0.3774 0.44603 0.0
Eu481 Eu 0.23073 0.34083 0.39129 0.0
C482 C 0.28228 0.26666 0.42977 0.0
C483 C 0.25394 0.40712 0.51261 0.0
C484 C 0.24311 0.37006 0.52976 0.0
C485 C 0.30837 0.45161 0.54096 0.0
C486 C 0.2643 0.37387 0.55214 0.0
C487 C 0.28716 0.44785 0.51858 0.0
C488 C 0.29679 0.415 0.55813 0.0
C489 C 0.22586 0.40656 0.48979 0.0
O490 O 0.16599 0.29384 0.40668 0.0
O491 O 0.14778 0.34907 0.43662 0.0
C492 C 0.13407 0.31137 0.42258 0.0
O493 O 0.21264 0.44743 0.42191 0.0
O494 O 0.19652 0.34899 0.35693 0.0
O495 O 0.26977 0.3102 0.36087 0.0
O496 O 0.17032 0.40016 0.39582 0.0
C497 C 0.18367 0.44519 0.40308 0.0
O498 O 0.31184 0.38733 0.43506 0.0
O499 O 0.29203 0.4016 0.39718 0.0
O500 O 0.27295 0.27599 0.4079 0.0
O501 O 0.24261 0.43535 0.4729 0.0
O502 O 0.20737 0.3632 0.4822 0.0
O503 O 0.26755 0.29779 0.44664 0.0
C504 C 0.26451 0.37373 0.33267 0.0
C505 C 0.27662 0.42105 0.34297 0.0
C506 C 0.31815 0.3966 0.30012 0.0
C507 C 0.31208 0.45424 0.33272 0.0
C508 C 0.28434 0.36225 0.31085 0.0
C509 C 0.33397 0.44156 0.31148 0.0
C510 C 0.23887 0.33436 0.34673 0.0
C511 C 0.3239 0.40577 0.41467 0.0
H512 H 0.21711 0.33862 0.52608 0.0
H513 H 0.33322 0.48374 0.54502 0.0
H514 H 0.25457 0.34509 0.56495 0.0
H515 H 0.29589 0.47764 0.50611 0.0
H516 H 0.26075 0.43102 0.35958 0.0
H517 H 0.33393 0.38696 0.28343 0.0
H518 H 0.32432 0.48833 0.34178 0.0
H519 H 0.27555 0.32603 0.3026 0.0
Eu520 Eu 0.93462 0.97801 0.19804 0.0
Eu521 Eu 1.00101 1.00037 0.1517 0.0
C522 C 1.0356 0.04702 0.19683 0.0
C523 C 0.8965 0.97766 0.26433 0.0
C524 C 0.94302 0.97664 0.27705 0.0
C525 C 0.85202 1.00426 0.29974 0.0
C526 C 0.94387 0.98928 0.30076 0.0
C527 C 0.85093 0.99014 0.27627 0.0
C528 C 0.8986 1.00508 0.31233 0.0
C529 C 0.89375 0.96174 0.23939 0.0
O530 O 1.02767 0.92224 0.16596 0.0
O531 O 0.95495 0.89843 0.18552 0.0
C532 C 0.9988 0.88628 0.17557 0.0
O533 O 0.8812 0.95634 0.16687 0.0
O534 O 1.02164 1.02032 0.11625 0.0
O535 O 0.08165 1.01032 0.14218 0.0
O536 O 0.93989 0.95123 0.13664 0.0
C537 C 0.89321 0.94519 0.14491 0.0
O538 O 0.91094 0.05941 0.18786 0.0
O539 O 0.93528 0.05874 0.14955 0.0
O540 O 1.01474 0.06136 0.17765 0.0
O541 O 0.93272 0.93637 0.2309 0.0
O542 O 0.87434 0.99351 0.22418 0.0
O543 O 1.0174 1.00498 0.20635 0.0
C544 C 0.09141 0.0777 0.1155 0.0
C545 C 0.1094 0.08627 0.09312 0.0
C546 C 0.09733 0.1692 0.12339 0.0
C547 C 0.11889 0.1361 0.08554 0.0
C548 C 0.08789 0.11907 0.13099 0.0
C549 C 0.11004 0.17861 0.10016 0.0
C550 C 0.07027 1.02721 0.12154 0.0
C551 C 0.90915 0.07935 0.16684 0.0
H552 H 0.97884 0.9658 0.26872 0.0
H553 H 0.81622 1.01471 0.30814 0.0
H554 H 0.9803 0.98807 0.30995 0.0
H555 H 0.81415 0.98883 0.26741 0.0
H556 H 0.11262 0.05484 0.08098 0.0
H557 H 0.09107 0.20066 0.13524 0.0
H558 H 0.12828 0.1412 0.06746 0.0
H559 H 0.07477 0.11307 0.14854 0.0
Eu560 Eu 0.32733 0.66893 0.94545 0.0
Eu561 Eu 0.33264 0.71783 0.89335 0.0
C562 C 0.27569 0.77781 0.93227 0.0
C563 C 0.30756 0.63521 1.0149 0.0
C564 C 0.26018 0.64954 1.02501 0.0
C565 C 0.33843 0.61271 0.05389 0.0
C566 C 0.25182 0.645 1.04894 0.0
C567 C 0.34651 0.61633 1.02972 0.0
C568 C 0.29068 0.62665 0.06389 0.0
C569 C 0.31725 0.64603 0.98964 0.0
O570 O 0.39516 0.75602 0.91473 0.0
O571 O 0.41187 0.69006 0.93946 0.0
C572 C 0.4279 0.73033 0.92772 0.0
O573 O 0.3397 0.60065 0.91983 0.0
O574 O 0.31181 0.7756 0.86774 0.0
O575 O 0.37299 0.72173 0.86008 0.0
O576 O 0.38359 0.64926 0.89398 0.0
C577 C 0.36834 0.60421 0.90078 0.0
O578 O 0.24935 0.65113 0.92922 0.0
O579 O 0.26727 0.65938 0.89027 0.0
O580 O 0.26988 0.76071 0.91134 0.0
O581 O 0.35531 0.62779 0.9772 0.0
O582 O 0.28433 0.67293 0.97765 0.0
O583 O 0.30891 0.7553 0.94632 0.0
C584 C 0.38879 0.80924 0.85237 0.0
C585 C 0.41903 0.81383 0.83251 0.0
C586 C 0.41633 0.89412 0.86431 0.0
C587 C 0.44325 0.86052 0.82747 0.0
C588 C 0.39205 0.84762 0.86929 0.0
C589 C 0.43531 0.90373 0.84189 0.0
C590 C 0.35256 0.76609 0.85523 0.0
C591 C 0.23711 0.64345 0.90734 0.0
H592 H 0.22924 0.66476 1.01441 0.0
H593 H 0.36965 0.5993 0.06481 0.0
H594 H 0.21468 0.65634 0.05588 0.0
H595 H 0.38387 0.60593 1.02275 0.0
H596 H 0.42016 0.78312 0.81993 0.0
H597 H 0.41356 0.92449 0.87692 0.0
H598 H 0.46157 0.86413 0.81075 0.0
H599 H 0.37229 0.84337 0.88565 0.0
Eu600 Eu 0.62068 0.06322 0.69531 0.0
Eu601 Eu 0.53669 0.04714 0.65845 0.0
C602 C 0.51987 0.991 0.70953 0.0
C603 C 0.65911 0.03896 0.76066 0.0
C604 C 0.62152 0.0489 0.77776 0.0
C605 C 0.70485 0.98551 0.78909 0.0
C606 C 0.62573 1.0279 0.80014 0.0
C607 C 0.70077 1.00671 0.7667 0.0
C608 C 0.66764 0.99623 0.8062 0.0
C609 C 0.65747 0.06672 0.73778 0.0
O610 O 0.53155 0.13349 0.66334 0.0
O611 O 0.60094 0.14637 0.68756 0.0
C612 C 0.56203 0.16423 0.67519 0.0
O613 O 0.6646 0.08712 0.6619 0.0
O614 O 0.45439 0.0392 0.6622 0.0
O615 O 0.48908 1.02372 0.62897 0.0
O616 O 0.59758 0.07948 0.6352 0.0
C617 C 0.64617 0.08975 0.64024 0.0
O618 O 0.64636 0.98647 0.68204 0.0
O619 O 0.58649 0.97593 0.65276 0.0
O620 O 0.54355 1.02495 0.69636 0.0
O621 O 0.68388 0.04908 0.72016 0.0
O622 O 0.61325 0.08646 0.73135 0.0
O623 O 0.54139 1.02457 0.69539 0.0
C624 C 0.40535 0.05996 0.63017 0.0
C625 C 0.41396 0.11164 0.62486 0.0
C626 C 0.31707 0.06823 0.61708 0.0
C627 C 0.37502 0.14088 0.61458 0.0
C628 C 0.35627 0.03902 0.62713 0.0
C629 C 0.32678 0.11864 0.60896 0.0
C630 C 0.4461 1.02885 0.64061 0.0
C631 C 0.62778 0.96046 0.66441 0.0
H632 H 0.58926 0.07411 0.77407 0.0
H633 H 0.73768 0.96136 0.79322 0.0
H634 H 0.59665 0.0372 0.8129 0.0
H635 H 0.73093 0.99868 0.75426 0.0
H636 H 0.45126 0.12899 0.6281 0.0
H637 H 0.28033 0.04958 0.61432 0.0
H638 H 0.38435 0.1799 0.60976 0.0
H639 H 0.34853 0.99963 0.63205 0.0
C640 C 0.46452 0.45891 0.28805 0.0
C641 C 0.4451 0.46696 0.26553 0.0
C642 C 0.36715 0.50241 0.28169 0.0
C643 C 0.37661 0.47196 0.30155 0.0
N644 N 0.44319 0.43787 0.32707 0.0
N645 N 0.40186 0.53816 0.24681 0.0
C646 C 0.42845 0.4571 0.30627 0.0
C647 C 0.40569 0.50454 0.26463 0.0
N648 N 0.51394 0.44348 0.29155 0.0
N649 N 0.32181 0.52757 0.27838 0.0
H650 H 0.42989 0.54016 0.23386 0.0
H651 H 0.42989 0.54016 0.23386 0.0
H652 H 0.29209 0.52712 0.29058 0.0
H653 H 0.29209 0.52712 0.29058 0.0
H654 H 0.54036 0.44073 0.27797 0.0
H655 H 0.54036 0.44073 0.27797 0.0
H656 H 0.41813 0.43535 0.34115 0.0
H657 H 0.41813 0.43535 0.34115 0.0
C658 C 0.55948 0.76613 0.57476 0.0
C659 C 0.53347 0.74489 0.59388 0.0
C660 C 0.45569 0.7353 0.57108 0.0
C661 C 0.48761 0.73582 0.55131 0.0
N662 N 0.56069 0.77542 0.53289 0.0
N663 N 0.45071 0.7508 0.61245 0.0
C664 C 0.53613 0.76095 0.55263 0.0
C665 C 0.47896 0.7442 0.59287 0.0
N666 N 0.60851 0.78369 0.57779 0.0
N667 N 0.40526 0.72135 0.56894 0.0
H668 H 0.4683 0.76081 0.62801 0.0
H669 H 0.41051 0.75214 0.61258 0.0
H670 H 0.38885 0.71512 0.55268 0.0
H671 H 0.38091 0.71516 0.58298 0.0
H672 H 0.63172 0.79789 0.56459 0.0
H673 H 0.62503 0.78451 0.59426 0.0
H674 H 0.5971 0.79216 0.53239 0.0
H675 H 0.54237 0.77307 0.51694 0.0
C676 C 0.33784 0.96281 0.82175 0.0
C677 C 0.35057 0.94333 0.79954 0.0
C678 C 0.44114 0.96069 0.80782 0.0
C679 C 0.42806 0.95646 0.83136 0.0
N680 N 0.37014 1.00373 0.85608 0.0
N681 N 0.41461 0.94417 0.76878 0.0
C682 C 0.37894 0.9771 0.83639 0.0
C683 C 0.40202 0.95017 0.79141 0.0
N684 N 0.28831 0.96477 0.82952 0.0
N685 N 0.4911 0.9676 0.80157 0.0
H686 H 0.38718 0.93663 0.75599 0.0
H687 H 0.38718 0.93663 0.75599 0.0
H688 H 0.5192 0.97439 0.81413 0.0
H689 H 0.50274 0.96832 0.78429 0.0
H690 H 0.27929 0.97783 0.84609 0.0
H691 H 0.25718 0.95242 0.81965 0.0
H692 H 0.40003 1.01367 0.86735 0.0
H693 H 0.40003 1.01367 0.86735 0.0
C694 C 0.24208 0.37878 1.04342 0.0
C695 C 0.24762 0.39357 1.02015 0.0
C696 C 0.23182 0.48153 1.02977 0.0
C697 C 0.20529 0.46385 1.04983 0.0
N698 N 0.20162 0.39987 0.08022 0.0
N699 N 0.29816 0.45899 1.00179 0.0
C700 C 0.21695 0.41388 0.05857 0.0
C701 C 0.26199 0.44528 1.01762 0.0
N702 N 0.2584 0.33154 0.0501 0.0
N703 N 0.22397 0.52932 1.02086 0.0
H704 H 0.318 0.43109 0.99237 0.0
H705 H 0.31028 0.49688 0.99967 0.0
H706 H 0.19877 0.55576 1.02821 0.0
H707 H 0.23963 0.54072 1.00506 0.0
H708 H 0.25772 0.31877 0.06716 0.0
H709 H 0.27612 0.30725 1.03819 0.0
H710 H 0.20509 0.36268 0.08665 0.0
H711 H 0.18521 0.42623 0.09163 0.0
C712 C 1.0145 0.70959 0.81765 0.0
C713 C 0.9978 0.73055 0.83879 0.0
C714 C 1.00109 0.81582 0.82194 0.0
C715 C 0.9978 0.79275 0.79998 0.0
N716 N 1.02898 0.72099 0.77735 0.0
N717 N 1.01455 0.80406 0.86275 0.0
C718 C 1.01519 0.74132 0.79796 0.0
C719 C 1.00523 0.78394 0.84158 0.0
N720 N 1.02311 0.6585 0.81546 0.0
N721 N 0.99688 0.86742 0.82442 0.0
H722 H 1.02358 0.78044 0.87675 0.0
H723 H 1.01848 0.84349 0.86525 0.0
H724 H 0.99325 0.89219 0.81028 0.0
H725 H 0.99325 0.89219 0.81028 0.0
H726 H 1.02068 0.63338 0.82952 0.0
H727 H 1.02068 0.63338 0.82952 0.0
H728 H 1.03188 0.74315 0.76239 0.0
H729 H 1.03188 0.74315 0.76239 0.0
C730 C 0.75429 0.0713 0.24869 0.0
C731 C 0.70254 0.07156 0.25645 0.0
C732 C 0.73386 0.08428 0.29525 0.0
C733 C 0.77773 0.10896 0.28534 0.0
N734 N 0.83772 0.11101 0.25336 0.0
N735 N 0.65425 0.03804 0.28831 0.0
C736 C 0.79113 0.09729 0.26226 0.0
C737 C 0.69762 0.06114 0.28022 0.0
N738 N 0.76737 0.05085 0.22801 0.0
N739 N 0.72439 0.08503 0.31833 0.0
H740 H 0.62612 1.02448 0.27691 0.0
H741 H 0.64779 1.03239 0.30595 0.0
H742 H 0.74951 0.10155 0.3303 0.0
H743 H 0.74951 0.10155 0.3303 0.0
H744 H 0.74056 1.03148 0.21775 0.0
H745 H 0.74056 1.03148 0.21775 0.0
H746 H 0.84756 0.10337 0.2362 0.0
H747 H 0.86576 0.12921 0.26338 0.0
C748 C 0.12991 0.24086 0.06921 0.0
C749 C 0.10151 0.2302 0.08946 0.0
C750 C 1.02121 0.24703 0.06942 0.0
C751 C 0.04798 0.23642 1.04874 0.0
N752 N 0.12462 0.24996 1.02704 0.0
N753 N 1.03011 0.26142 0.11103 0.0
C754 C 0.10189 0.2444 1.04805 0.0
C755 C 0.05018 0.24789 0.09026 0.0
N756 N 0.18233 0.23766 0.07018 0.0
N757 N 0.96869 0.24968 0.06908 0.0
H758 H 0.9931 0.27648 0.11317 0.0
H759 H 0.9931 0.27648 0.11317 0.0
H760 H 0.94846 0.2487 0.05345 0.0
H761 H 0.94591 0.25137 0.08388 0.0
H762 H 0.2064 0.23845 0.05583 0.0
H763 H 0.20111 0.23292 0.08605 0.0
H764 H 0.16393 0.25635 1.02458 0.0
H765 H 0.16393 0.25635 1.02458 0.0
C766 C 0.34121 0.16293 0.55675 0.0
C767 C 0.33238 0.11138 0.54969 0.0
C768 C 0.26337 0.10743 0.57809 0.0
C769 C 0.29205 0.1429 0.59097 0.0
N770 N 0.31585 0.22995 0.584 0.0
N771 N 0.27456 0.03772 0.5513 0.0
C772 C 0.31562 0.1803 0.577 0.0
C773 C 0.28866 0.08497 0.55892 0.0
N774 N 0.37528 0.19318 0.54508 0.0
N775 N 0.21623 0.0921 0.58571 0.0
H776 H 0.29366 1.01899 0.53801 0.0
H777 H 0.2455 1.01631 0.55919 0.0
H778 H 0.20044 0.10779 0.60074 0.0
H779 H 0.19275 0.06708 0.57641 0.0
H780 H 0.3863 0.22943 0.55079 0.0
H781 H 0.39269 0.18105 0.52976 0.0
H782 H 0.32977 0.25964 0.57371 0.0
H783 H 0.29846 0.24051 0.59957 0.0
C784 C 0.25351 0.07127 0.97794 0.0
C785 C 0.23179 0.11295 0.9653 0.0
C786 C 0.25445 0.17125 0.99745 0.0
C787 C 0.26976 0.12838 1.01114 0.0
N788 N 0.29726 0.04028 1.01259 0.0
N789 N 0.21795 0.20332 0.96118 0.0
C790 C 0.27352 0.07919 1.00074 0.0
C791 C 0.23537 0.16339 0.97444 0.0
N792 N 0.25202 1.0234 0.96855 0.0
N793 N 0.25819 0.21934 1.00659 0.0
H794 H 0.20646 0.19811 0.94404 0.0
H795 H 0.2146 0.24103 0.96676 0.0
H796 H 0.27095 0.22574 1.0234 0.0
H797 H 0.25045 0.25311 0.99765 0.0
H798 H 0.25992 0.98963 0.97751 0.0
H799 H 0.24195 1.01774 0.95139 0.0
H800 H 0.3058 1.00459 1.00558 0.0
H801 H 0.31203 0.04478 1.02924 0.0
C802 C 0.63063 0.51838 0.24648 0.0
C803 C 0.67512 0.53185 0.25964 0.0
C804 C 0.72854 0.51428 0.22521 0.0
C805 C 0.68616 0.48996 0.21431 0.0
N806 N 0.59581 0.47014 0.21404 0.0
N807 N 0.76786 0.54117 0.26127 0.0
C808 C 0.6366 0.49354 0.22459 0.0
C809 C 0.72445 0.53059 0.24874 0.0
N810 N 0.58271 0.52949 0.25495 0.0
N811 N 0.7734 0.51975 0.2131 0.0
H812 H 0.76686 0.55233 0.27854 0.0
H813 H 0.80514 0.53527 0.25509 0.0
H814 H 0.77643 0.50776 0.19594 0.0
H815 H 0.80513 0.54027 0.21911 0.0
H816 H 0.54882 0.52452 0.24552 0.0
H817 H 0.5773 0.54797 0.27075 0.0
H818 H 0.55992 0.46511 0.22184 0.0
H819 H 0.59909 0.45386 0.19764 0.0
C820 C 0.27185 0.94912 0.49691 0.0
C821 C 0.28862 0.90708 0.51083 0.0
C822 C 0.33795 0.8748 0.47742 0.0
C823 C 0.33032 0.92193 0.4654 0.0
N824 N 0.28909 1.0049 0.46414 0.0
N825 N 0.33765 0.82879 0.51403 0.0
C826 C 0.29608 0.95892 0.47504 0.0
C827 C 0.3213 0.86932 0.50088 0.0
N828 N 0.23254 0.97968 0.50451 0.0
N829 N 0.36165 0.83521 0.46618 0.0
H830 H 0.32456 0.82223 0.53082 0.0
H831 H 0.36638 0.80333 0.50884 0.0
H832 H 0.37323 0.83826 0.44894 0.0
H833 H 0.3652 0.79837 0.47299 0.0
H834 H 0.21496 1.00764 0.49429 0.0
H835 H 0.21452 0.97427 0.52043 0.0
H836 H 0.27084 0.0362 0.47175 0.0
H837 H 0.3036 1.01259 0.44777 0.0
C838 C 0.92389 0.5967 0.73328 0.0
C839 C 0.87965 0.58501 0.71978 0.0
C840 C 0.85336 0.52131 0.74904 0.0
C841 C 0.89282 0.5393 0.76418 0.0
N842 N 0.9686 0.591 0.77021 0.0
N843 N 0.8169 0.52056 0.7102 0.0
C844 C 0.92949 0.57555 0.75597 0.0
C845 C 0.84896 0.54219 0.72615 0.0
N846 N 0.96128 0.62698 0.72374 0.0
N847 N 0.81822 0.48642 0.75702 0.0
H848 H 0.81495 0.53327 0.69317 0.0
H849 H 0.79642 0.48681 0.71299 0.0
H850 H 0.8202 0.47026 0.7735 0.0
H851 H 0.78536 0.47549 0.74795 0.0
H852 H 0.99641 0.63535 0.73158 0.0
H853 H 0.95872 0.63981 0.70665 0.0
H854 H 0.99338 0.62127 0.76652 0.0
H855 H 0.97536 0.57443 0.78637 0.0
C856 C 0.82059 0.96671 0.117 0.0
C857 C 0.85371 0.92933 0.12719 0.0
C858 C 0.84053 0.87382 0.0931 0.0
C859 C 0.80743 0.91135 0.083 0.0
N860 N 0.75534 0.987 0.08818 0.0
N861 N 0.88547 0.84284 0.12746 0.0
C862 C 0.79397 0.9556 0.09595 0.0
C863 C 0.86016 0.88128 0.11602 0.0
N864 N 0.8173 1.01434 0.12655 0.0
N865 N 0.85536 0.8323 0.08035 0.0
H866 H 0.89957 0.84753 0.14424 0.0
H867 H 0.88826 0.80541 0.12138 0.0
H868 H 0.84168 0.82544 0.06369 0.0
H869 H 0.8838 0.8065 0.08558 0.0
H870 H 0.79947 0.04549 0.11853 0.0
H871 H 0.83566 1.02339 0.14195 0.0
H872 H 0.74003 1.01694 0.0979 0.0
H873 H 0.73521 0.98014 0.07287 0.0
C874 C 0.33757 0.53258 0.87435 0.0
C875 C 0.37889 0.56166 0.88348 0.0
C876 C 0.42909 0.54139 0.8481 0.0
C877 C 0.38351 0.52307 0.83712 0.0
N878 N 0.2928 0.50283 0.84006 0.0
N879 N 0.46782 0.58699 0.88046 0.0
C880 C 0.3374 0.51863 0.85042 0.0
C881 C 0.42608 0.56326 0.87079 0.0
N882 N 0.2998 0.51606 0.88886 0.0
N883 N 0.47545 0.53684 0.83701 0.0
H884 H 0.46802 0.59862 0.89772 0.0
H885 H 0.50127 0.59633 0.87144 0.0
H886 H 0.47899 0.52094 0.82056 0.0
H887 H 0.51087 0.54493 0.84466 0.0
H888 H 0.26967 0.49217 0.88377 0.0
H889 H 0.30417 0.51965 0.90665 0.0
H890 H 0.257 0.50399 0.84825 0.0
H891 H 0.29088 0.49259 0.82267 0.0
C892 C 0.70211 0.07494 0.57941 0.0
C893 C 0.72952 0.12145 0.57621 0.0
C894 C 0.70533 0.14758 0.61597 0.0
C895 C 0.68067 0.0995 0.6196 0.0
N896 N 0.66532 1.01338 0.60596 0.0
N897 N 0.76363 0.19927 0.59242 0.0
C898 C 0.68201 0.06213 0.60162 0.0
C899 C 0.7331 0.15693 0.59484 0.0
N900 N 0.69367 0.0434 0.56093 0.0
N901 N 0.70014 0.18523 0.63217 0.0
H902 H 0.78313 0.20776 0.57711 0.0
H903 H 0.77248 0.22394 0.60597 0.0
H904 H 0.68077 0.1795 0.64776 0.0
H905 H 0.71188 0.22298 0.62955 0.0
H906 H 0.66841 1.01236 0.56137 0.0
H907 H 0.70834 0.05065 0.54446 0.0
H908 H 0.67104 0.98278 0.59471 0.0
H909 H 0.65031 1.0022 0.6218 0.0
C910 C 0.21482 0.52074 0.3783 0.0
C911 C 0.17391 0.48875 0.38614 0.0
C912 C 0.12601 0.50786 0.35007 0.0
C913 C 0.17143 0.52941 0.34028 0.0
N914 N 0.2563 0.5647 0.34587 0.0
N915 N 0.08559 0.4625 0.38222 0.0
C916 C 0.21478 0.53913 0.3548 0.0
C917 C 0.12759 0.48662 0.3729 0.0
N918 N 0.25334 0.53338 0.39331 0.0
N919 N 0.08123 0.50851 0.33751 0.0
H920 H 0.08473 0.45095 0.39952 0.0
H921 H 0.05215 0.45344 0.37317 0.0
H922 H 0.07881 0.52469 0.32103 0.0
H923 H 0.0456 0.49644 0.34372 0.0
H924 H 0.28472 0.55653 0.38929 0.0
H925 H 0.25085 0.52501 0.41086 0.0
H926 H 0.29052 0.57135 0.35474 0.0
H927 H 0.25737 0.57821 0.32891 0.0
C928 C 0.75759 0.58276 0.50402 0.0
C929 C 0.75482 0.63079 0.51558 0.0
C930 C 0.71851 0.66976 0.48012 0.0
C931 C 0.71939 0.62122 0.46886 0.0
N932 N 0.75537 0.53652 0.46767 0.0
N933 N 0.7435 0.72226 0.51307 0.0
C934 C 0.74425 0.57943 0.48006 0.0
C935 C 0.73884 0.67507 0.50306 0.0
N936 N 0.77066 0.53966 0.51622 0.0
N937 N 0.69604 0.71039 0.46901 0.0
H938 H 0.75751 0.72724 0.52983 0.0
H939 H 0.73712 0.75666 0.50436 0.0
H940 H 0.68437 0.70828 0.45175 0.0
H941 H 0.68738 0.74516 0.47691 0.0
H942 H 0.76755 0.50269 0.50962 0.0
H943 H 0.78095 0.5404 0.53364 0.0
H944 H 0.77675 0.5057 0.47401 0.0
H945 H 0.74857 0.53503 0.45002 0.0
C946 C 0.20468 1.01982 0.74813 0.0
C947 C 0.15712 1.01269 0.75987 0.0
C948 C 0.12324 0.97014 0.72483 0.0
C949 C 0.17373 0.96803 0.71509 0.0
N950 N 0.26456 0.98255 0.72126 0.0
N951 N 0.0702 0.98026 0.75929 0.0
C952 C 0.21482 0.99185 0.72745 0.0
C953 C 0.11592 0.988 0.74807 0.0
N954 N 0.24159 0.05119 0.75727 0.0
N955 N 0.08226 0.95441 0.71179 0.0
H956 H 0.0629 0.99479 0.77576 0.0
H957 H 0.04072 0.95721 0.75287 0.0
H958 H 0.08672 0.94179 0.69479 0.0
H959 H 0.04393 0.95836 0.71691 0.0
H960 H 0.27486 0.0615 0.74825 0.0
H961 H 0.23722 0.06999 0.77302 0.0
H962 H 0.29633 0.99315 0.73124 0.0
H963 H 0.27348 0.95902 0.70751 0.0
C964 C 0.79468 0.45427 1.00061 0.0
C965 C 0.80561 0.4105 1.01464 0.0
C966 C 0.86082 0.37604 0.98373 0.0
C967 C 0.85266 0.4209 0.97019 0.0
N968 N 0.8034 0.49763 0.96335 0.0
N969 N 0.84536 0.32708 1.01842 0.0
C970 C 0.81647 0.45822 0.97785 0.0
C971 C 0.837 0.37054 1.0057 0.0
N972 N 0.76571 0.49332 1.0096 0.0
N973 N 0.89214 0.33763 0.97612 0.0
H974 H 0.82839 0.3208 1.03453 0.0
H975 H 0.86875 0.29713 1.01259 0.0
H976 H 0.91024 0.33778 0.95999 0.0
H977 H 0.91024 0.33778 0.95999 0.0
H978 H 0.76043 0.5287 1.00159 0.0
H979 H 0.74886 0.49152 1.02594 0.0
H980 H 0.77486 0.52461 0.96682 0.0
H981 H 0.81835 0.50091 0.9467 0.0
C982 C 0.42379 0.08767 0.22876 0.0
C983 C 0.37492 0.08458 0.21762 0.0
C984 C 0.34446 1.0293 0.24964 0.0
C985 C 0.38966 0.04069 0.26256 0.0
N986 N 0.47276 0.08193 0.26456 0.0
N987 N 0.28763 0.05277 0.21811 0.0
C988 C 0.42986 0.06954 0.252 0.0
C989 C 0.3353 0.05455 0.22804 0.0
N990 N 0.46436 0.10851 0.21694 0.0
N991 N 0.31035 0.9938 0.25795 0.0
H992 H 0.28038 0.06836 0.20194 0.0
H993 H 0.25499 0.03815 0.22629 0.0
H994 H 0.31577 0.97476 0.27366 0.0
H995 H 0.2794 0.97974 0.24839 0.0
H996 H 0.50221 0.10845 0.22302 0.0
H997 H 0.46065 0.12148 0.19992 0.0
H998 H 0.50088 0.10751 0.25888 0.0
H999 H 0.47866 0.06926 0.28147 0.0
C1000 C 0.37208 0.38915 0.61459 0.0
C1001 C 0.36218 0.4344 0.62731 0.0
C1002 C 0.30057 0.46122 0.59691 0.0
C1003 C 0.3177 0.42045 0.58245 0.0
N1004 N 0.37608 0.34939 0.57684 0.0
N1005 N 0.31717 0.51478 0.63048 0.0
C1006 C 0.35477 0.38505 0.59122 0.0
C1007 C 0.326 0.47058 0.61851 0.0
N1008 N 0.39757 0.34965 0.62508 0.0
N1009 N 0.25926 0.49037 0.59023 0.0
H1010 H 0.33247 0.52106 0.64689 0.0
H1011 H 0.29671 0.54587 0.62377 0.0
H1012 H 0.23955 0.48435 0.57475 0.0
H1013 H 0.24171 0.51742 0.60086 0.0
H1014 H 0.40209 0.31366 0.61753 0.0
H1015 H 0.40912 0.35158 0.64235 0.0
H1016 H 0.40717 0.32624 0.58161 0.0
H1017 H 0.36556 0.34587 0.55952 0.0
C1018 C 0.86532 1.00208 0.35407 0.0
C1019 C 0.89932 1.02386 0.33725 0.0
C1020 C 0.92849 0.08456 0.3671 0.0
C1021 C 0.8853 0.07254 0.38113 0.0
N1022 N 0.81702 1.01332 0.38991 0.0
N1023 N 0.96099 0.09091 0.32815 0.0
C1024 C 0.85544 1.02873 0.37537 0.0
C1025 C 0.93141 0.06561 0.34406 0.0
N1026 N 0.84338 0.95545 0.34979 0.0
N1027 N 0.96583 0.11607 0.37573 0.0
H1028 H 0.96134 0.082 0.31064 0.0
H1029 H 0.9806 0.12478 0.33185 0.0
H1030 H 0.96408 0.13006 0.39262 0.0
H1031 H 1.00043 0.12348 0.36717 0.0
H1032 H 0.82143 0.93527 0.36181 0.0
H1033 H 0.85145 0.93452 0.33488 0.0
H1034 H 0.79007 0.98521 0.38579 0.0
H1035 H 0.81128 1.02993 0.40605 0.0
C1036 C 0.26546 0.57582 0.12611 0.0
C1037 C 0.2377 0.61771 0.13555 0.0
C1038 C 0.26475 0.66945 0.10171 0.0
C1039 C 0.28051 0.62424 0.08985 0.0
N1040 N 0.29477 0.53248 0.09147 0.0
N1041 N 0.21472 0.70676 0.13305 0.0
C1042 C 0.28178 0.57702 0.10243 0.0
C1043 C 0.23946 0.6655 0.12366 0.0
N1044 N 0.27632 0.53491 0.13991 0.0
N1045 N 0.27466 0.7163 0.09207 0.0
H1046 H 0.19897 0.7056 0.14966 0.0
H1047 H 0.20809 0.74093 0.12416 0.0
H1048 H 0.2944 0.72038 0.07646 0.0
H1049 H 0.26814 0.75087 0.10056 0.0
H1050 H 0.29922 0.50406 0.13482 0.0
H1051 H 0.26814 0.53614 0.15747 0.0
H1052 H 0.29041 0.49641 0.099 0.0
H1053 H 0.30508 0.53089 0.0741 0.0
C1054 C 0.71505 0.99226 0.84475 0.0
C1055 C 0.67348 0.97563 0.83057 0.0
C1056 C 0.64295 0.92203 0.86305 0.0
C1057 C 0.68925 0.9314 0.87552 0.0
N1058 N 0.77342 0.97068 0.87596 0.0
N1059 N 0.60197 0.91764 0.82541 0.0
C1060 C 0.7261 0.96587 0.8659 0.0
C1061 C 0.63812 0.93899 0.83961 0.0
N1062 N 0.74395 1.03355 0.83815 0.0
N1063 N 0.60361 0.89643 0.87369 0.0
H1064 H 0.5989 0.92711 0.80794 0.0
H1065 H 0.57835 0.88724 0.8304 0.0
H1066 H 0.60611 0.88459 0.89091 0.0
H1067 H 0.56718 0.89187 0.86631 0.0
H1068 H 0.77152 0.05041 0.84882 0.0
H1069 H 0.73687 0.05399 0.82294 0.0
H1070 H 0.80408 0.99033 0.86837 0.0
H1071 H 0.78309 0.95117 0.89099 0.0
C1072 C 0.50217 0.2609 0.14786 0.0
C1073 C 0.47244 0.25996 0.16856 0.0
C1074 C 0.54404 0.30299 0.18891 0.0
C1075 C 0.57561 0.2989 0.16898 0.0
N1076 N 0.58716 0.2679 0.13019 0.0
N1077 N 0.47064 0.27006 0.21008 0.0
C1078 C 0.55535 0.27602 0.14865 0.0
C1079 C 0.49492 0.27834 0.18944 0.0
N1080 N 0.47907 0.24986 0.12723 0.0
N1081 N 0.56021 0.33195 0.20719 0.0
H1082 H 0.43596 0.25015 0.21151 0.0
H1083 H 0.48764 0.27794 0.226 0.0
H1084 H 0.59538 0.35139 0.20724 0.0
H1085 H 0.53657 0.341 0.22116 0.0
H1086 H 0.49706 0.25499 0.11131 0.0
H1087 H 0.44019 0.24006 0.12583 0.0
H1088 H 0.57651 0.24636 0.11583 0.0
H1089 H 0.62572 0.27947 0.13 0.0
C1090 C 0.5354 0.75464 0.40328 0.0
C1091 C 0.54622 0.72781 0.4242 0.0
C1092 C 0.5244 0.80655 0.44587 0.0
C1093 C 0.51907 0.83483 0.42495 0.0
N1094 N 0.53086 0.83696 0.38361 0.0
N1095 N 0.56372 0.73411 0.46513 0.0
C1096 C 0.52787 0.80913 0.40361 0.0
C1097 C 0.5443 0.75544 0.4454 0.0
N1098 N 0.52994 0.72796 0.38314 0.0
N1099 N 0.5078 0.82699 0.46627 0.0
H1100 H 0.579 0.69728 0.46592 0.0
H1101 H 0.56991 0.75532 0.48009 0.0
H1102 H 0.49117 0.86321 0.46763 0.0
H1103 H 0.50549 0.80566 0.48148 0.0
H1104 H 0.51695 0.7447 0.36783 0.0
H1105 H 0.5331 0.68813 0.38227 0.0
H1106 H 0.54214 0.82116 0.36788 0.0
H1107 H 0.52754 0.87684 0.38322 0.0
C1108 C 0.99766 0.7576 0.64854 0.0
C1109 C 0.96998 0.75179 0.66963 0.0
C1110 C 0.04729 0.78005 0.69101 0.0
C1111 C 0.07645 0.78204 0.67023 0.0
N1112 N 0.08111 0.76499 0.62939 0.0
N1113 N 0.97271 0.74717 0.71117 0.0
C1114 C 0.05202 0.76878 0.649 0.0
C1115 C 0.99611 0.76008 0.69087 0.0
N1116 N 0.97165 0.75427 0.62805 0.0
N1117 N 0.06725 0.79995 0.71091 0.0
H1118 H 0.93489 0.7342 0.71232 0.0
H1119 H 0.9925 0.74459 0.72672 0.0
H1120 H 0.10338 0.81699 0.71194 0.0
H1121 H 0.04593 0.80438 0.72595 0.0
H1122 H 0.988 0.76347 0.61214 0.0
H1123 H 0.93227 0.74615 0.62712 0.0
H1124 H 0.06712 0.75044 0.61387 0.0
H1125 H 0.12069 0.77235 0.62914 0.0
C1126 C 1.01355 0.28599 0.89887 0.0
C1127 C 1.01753 0.31835 0.91858 0.0
C1128 C 0.06014 0.24782 0.93977 0.0
C1129 C 0.05134 0.21388 0.92098 0.0
N1130 N 1.01314 0.19905 0.88365 0.0
N1131 N 1.03468 0.32566 0.95949 0.0
C1132 C 1.02605 0.23256 0.90083 0.0
C1133 C 0.03819 0.29803 0.93948 0.0
N1134 N 1.0004 0.30668 0.87795 0.0
N1135 N 0.09103 0.23287 0.95768 0.0
H1136 H 1.01666 0.36136 0.96045 0.0
H1137 H 0.04474 0.31098 0.97563 0.0
H1138 H 0.10694 0.19636 0.95882 0.0
H1139 H 0.10433 0.25797 0.97034 0.0
H1140 H 1.00202 0.28636 0.8625 0.0
H1141 H 0.99261 0.3456 0.87563 0.0
H1142 H 0.98973 0.20895 0.86969 0.0
H1143 H 1.02241 0.1601 0.88432 0.0
C1144 C 0.56606 0.7642 0.94777 0.0
C1145 C 0.59209 0.7708 0.92628 0.0
C1146 C 0.51216 0.74569 0.90605 0.0
C1147 C 0.48455 0.74446 0.92738 0.0
N1148 N 0.48432 0.76013 0.96838 0.0
N1149 N 0.58706 0.77513 0.88471 0.0
C1150 C 0.51138 0.75562 0.94822 0.0
C1151 C 0.56435 0.76341 0.90537 0.0
N1152 N 0.59399 0.76417 0.96782 0.0
N1153 N 0.48948 0.72751 0.88641 0.0
H1154 H 0.62524 0.7872 0.88325 0.0
H1155 H 0.56678 0.77727 0.86918 0.0
H1156 H 0.45206 0.7134 0.88607 0.0
H1157 H 0.5093 0.72163 0.87099 0.0
H1158 H 0.5785 0.75431 0.98383 0.0
H1159 H 0.63395 0.76912 0.96818 0.0
H1160 H 0.50046 0.77366 0.98367 0.0
H1161 H 0.44448 0.75476 0.96935 0.0
C1162 C 0.53888 0.30322 0.69501 0.0
C1163 C 0.52694 0.32847 0.67379 0.0
C1164 C 0.54804 0.24783 0.65332 0.0
C1165 C 0.5516 0.22111 0.67472 0.0
N1166 N 0.54096 0.22293 0.71615 0.0
N1167 N 0.51448 0.32118 0.6324 0.0
C1168 C 0.54453 0.24872 0.69563 0.0
C1169 C 0.53026 0.29986 0.65282 0.0
N1170 N 0.54756 0.33141 0.7145 0.0
N1171 N 0.5635 0.22419 0.63343 0.0
H1172 H 0.50085 0.35857 0.63085 0.0
H1173 H 0.51023 0.30012 0.61724 0.0
H1174 H 0.57773 0.18677 0.6331 0.0
H1175 H 0.56734 0.24334 0.61771 0.0
H1176 H 0.56111 0.31535 0.72987 0.0
H1177 H 0.54749 0.37141 0.71458 0.0
H1178 H 0.53035 0.24069 0.73155 0.0
H1179 H 0.54333 0.1831 0.71745 0.0
C1180 C 0.05549 0.2765 0.44416 0.0
C1181 C 0.07921 0.2919 0.42304 0.0
C1182 C 1.00086 0.26472 0.40223 0.0
C1183 C 0.97461 0.25615 0.42343 0.0
N1184 N 0.97546 0.26138 0.46502 0.0
N1185 N 0.06776 0.31195 0.38248 0.0
C1186 C 1.00158 0.26399 0.44456 0.0
C1187 C 0.05005 0.28907 0.40221 0.0
N1188 N 0.08474 0.27178 0.46371 0.0
N1189 N 0.97997 0.24753 0.38201 0.0
H1190 H 0.10198 0.33275 0.38173 0.0
H1191 H 0.04546 0.31533 0.36754 0.0
H1192 H 0.94563 0.22683 0.38141 0.0
H1193 H 0.99979 0.24829 0.36634 0.0
H1194 H 0.07082 0.25588 0.47902 0.0
H1195 H 0.12435 0.27892 0.464 0.0
H1196 H 0.99165 0.27205 0.48078 0.0
H1197 H 0.93617 0.25298 0.46602 0.0
C1198 C 0.04521 0.75297 0.15485 0.0
C1199 C 0.0437 0.72372 0.1757 0.0
C1200 C 1.02016 0.80292 0.19677 0.0
C1201 C 1.01604 0.83069 0.17559 0.0
N1202 N 1.0161 0.82849 0.13392 0.0
N1203 N 1.02133 0.71993 0.21607 0.0
C1204 C 1.02631 0.80468 0.15449 0.0
C1205 C 1.02891 0.74855 0.19655 0.0
N1206 N 0.06707 0.73235 0.1355 0.0
N1207 N 1.01801 0.82883 0.21724 0.0
H1208 H 1.02653 0.68026 0.21653 0.0
H1209 H 1.00523 0.73469 0.23114 0.0
H1210 H 1.01347 0.86853 0.21815 0.0
H1211 H 1.02601 0.81187 0.23316 0.0
H1212 H 0.07466 0.75358 0.12061 0.0
H1213 H 0.08243 0.69542 0.13502 0.0
H1214 H 1.01687 0.80954 0.1181 0.0
H1215 H 1.00213 0.86591 0.13276 0.0
C1216 C 0.26392 0.37914 0.16088 0.0
C1217 C 0.23922 0.33625 0.15095 0.0
C1218 C 0.163 0.39053 0.14323 0.0
C1219 C 0.18466 0.43042 0.15705 0.0
N1220 N 0.25352 0.45696 0.18278 0.0
N1221 N 0.16435 0.29985 0.133 0.0
C1222 C 0.23452 0.42316 0.16691 0.0
C1223 C 0.18865 0.3418 0.14191 0.0
N1224 N 0.316 0.37798 0.16432 0.0
N1225 N 0.11737 0.39849 0.13189 0.0
H1226 H 0.18323 0.26475 0.13086 0.0
H1227 H 0.12529 0.29921 0.1288 0.0
H1228 H 0.09542 0.43174 0.13376 0.0
H1229 H 0.10274 0.37328 0.11959 0.0
H1230 H 0.33711 0.41002 0.16945 0.0
H1231 H 0.33846 0.34694 0.15906 0.0
H1232 H 0.28728 0.4502 0.19212 0.0
H1233 H 0.23412 0.49 0.1879 0.0
C1234 C 0.37524 0.48592 0.42258 0.0
C1235 C 0.37151 0.4372 0.4117 0.0
C1236 C 0.45896 0.4482 0.39573 0.0
C1237 C 0.46248 0.49656 0.40678 0.0
N1238 N 0.42044 0.56726 0.42548 0.0
N1239 N 0.40594 0.37501 0.385 0.0
C1240 C 0.41927 0.51726 0.41846 0.0
C1241 C 0.41204 0.41954 0.39714 0.0
N1242 N 0.33737 0.50177 0.43739 0.0
N1243 N 0.5014 0.42904 0.38466 0.0
H1244 H 0.37353 0.35159 0.38661 0.0
H1245 H 0.43165 0.36225 0.37246 0.0
H1246 H 0.53499 0.45055 0.38234 0.0
H1247 H 0.50421 0.39174 0.37843 0.0
H1248 H 0.34078 0.53368 0.44805 0.0
H1249 H 0.30345 0.48132 0.44018 0.0
H1250 H 0.38866 0.58661 0.4322 0.0
H1251 H 0.45206 0.59103 0.42241 0.0
C1252 C 0.35263 0.70436 0.68517 0.0
C1253 C 0.32674 0.71614 0.66411 0.0
C1254 C 0.3722 0.64366 0.64587 0.0
C1255 C 0.3898 0.62694 0.66801 0.0
N1256 N 0.39193 0.63965 0.70938 0.0
N1257 N 0.31044 0.69564 0.62427 0.0
C1258 C 0.37869 0.65684 0.68781 0.0
C1259 C 0.33675 0.68589 0.64426 0.0
N1260 N 0.35373 0.73961 0.70258 0.0
N1261 N 0.38874 0.61889 0.62646 0.0
H1262 H 0.28508 0.72652 0.62251 0.0
H1263 H 0.31131 0.67147 0.60998 0.0
H1264 H 0.41278 0.58678 0.62705 0.0
H1265 H 0.38162 0.63227 0.60979 0.0
H1266 H 0.37642 0.7356 0.71735 0.0
H1267 H 0.33685 0.77569 0.70097 0.0
H1268 H 0.37874 0.65682 0.72451 0.0
H1269 H 0.41284 0.60613 0.71237 0.0
C1270 C 0.1374 0.53445 0.90493 0.0
C1271 C 0.09306 0.56 0.89652 0.0
C1272 C 0.1465 0.63718 0.88986 0.0
C1273 C 0.18823 0.61407 0.90226 0.0
N1274 N 0.21716 0.54259 0.92593 0.0
N1275 N 0.05422 0.63642 0.8812 0.0
C1276 C 0.18206 0.56317 0.91091 0.0
C1277 C 0.09749 0.61148 0.88873 0.0
N1278 N 0.13669 0.48241 0.90749 0.0
N1279 N 0.15293 0.68429 0.87988 0.0
H1280 H 1.01889 0.61766 0.87922 0.0
H1281 H 0.05282 0.67562 0.87784 0.0
H1282 H 0.18651 0.70587 0.88174 0.0
H1283 H 0.12609 0.70081 0.8687 0.0
H1284 H 0.16953 0.46099 0.91152 0.0
H1285 H 0.10481 0.46042 0.90279 0.0
H1286 H 0.21119 0.50805 0.93458 0.0
H1287 H 0.25046 0.56129 0.93128 0.0
C1288 C 0.80462 0.65931 0.93956 0.0
C1289 C 0.82246 0.69876 0.95396 0.0
C1290 C 0.89441 0.64182 0.96484 0.0
C1291 C 0.88488 0.6101 0.945 0.0
N1292 N 0.83547 0.60685 0.90886 0.0
N1293 N 0.88783 0.72854 0.98011 0.0
C1294 C 0.84068 0.62311 0.93115 0.0
C1295 C 0.86856 0.69037 0.96658 0.0
N1296 N 0.75455 0.65893 0.93238 0.0
N1297 N 0.92524 0.6257 0.98256 0.0
H1298 H 0.86817 0.76316 0.98244 0.0
H1299 H 0.92414 0.72636 0.98786 0.0
H1300 H 0.93864 0.5883 0.98423 0.0
H1301 H 0.93053 0.64728 0.99752 0.0
H1302 H 0.73938 0.62914 0.92247 0.0
H1303 H 0.7278 0.68554 0.93857 0.0
H1304 H 0.80295 0.61504 0.89888 0.0
H1305 H 0.86687 0.59562 0.89886 0.0
C1306 C 0.62518 0.65067 0.69512 0.0
C1307 C 0.67446 0.63228 0.70191 0.0
C1308 C 0.63466 0.55372 0.71716 0.0
C1309 C 0.5857 0.57019 0.70887 0.0
N1310 N 0.53215 0.64246 0.69813 0.0
N1311 N 0.72253 0.57675 0.72727 0.0
C1312 C 0.58012 0.62138 0.70051 0.0
C1313 C 0.67806 0.58712 0.7155 0.0
N1314 N 0.62158 0.69618 0.68348 0.0
N1315 N 0.63995 0.50541 0.72608 0.0
H1316 H 0.75464 0.60076 0.7266 0.0
H1317 H 0.72563 0.54751 0.73949 0.0
H1318 H 0.60837 0.48147 0.72912 0.0
H1319 H 0.67561 0.48854 0.7296 0.0
H1320 H 0.58791 0.7095 0.67568 0.0
H1321 H 0.6533 0.72012 0.68101 0.0
H1322 H 0.5255 0.6806 0.69367 0.0
H1323 H 0.49877 0.62362 0.70316 0.0
C1324 C 0.69228 0.33894 0.45113 0.0
C1325 C 0.74245 0.33825 0.44132 0.0
C1326 C 0.73334 0.42865 0.43011 0.0
C1327 C 0.68286 0.43043 0.44004 0.0
N1328 N 0.61688 0.38831 0.46276 0.0
N1329 N 0.81646 0.3858 0.42877 0.0
C1330 C 0.6635 0.38609 0.45176 0.0
C1331 C 0.76468 0.38439 0.43328 0.0
N1332 N 0.67119 0.29392 0.45867 0.0
N1333 N 0.7512 0.46817 0.41675 0.0
H1334 H 0.84036 0.354 0.43136 0.0
H1335 H 0.83642 0.41951 0.42507 0.0
H1336 H 0.73187 0.50279 0.41445 0.0
H1337 H 0.78431 0.4654 0.40661 0.0
H1338 H 0.63265 0.28967 0.46336 0.0
H1339 H 0.69227 0.2598 0.45934 0.0
H1340 H 0.60331 0.35964 0.47372 0.0
H1341 H 0.59236 0.41994 0.46185 0.0
C1342 C 0.89613 0.44746 0.21037 0.0
C1343 C 0.8739 0.43013 0.18913 0.0
C1344 C 0.93299 0.4873 0.16851 0.0
C1345 C 0.96231 0.4964 0.18871 0.0
N1346 N 0.97375 0.4791 0.22941 0.0
N1347 N 0.88802 0.42186 0.14777 0.0
C1348 C 0.94447 0.47489 0.20992 0.0
C1349 C 0.8975 0.44646 0.16815 0.0
N1350 N 0.87073 0.44017 0.23075 0.0
N1351 N 0.93848 0.51804 0.14953 0.0
H1352 H 0.86647 0.38824 0.14677 0.0
H1353 H 0.90731 0.43126 0.13251 0.0
H1354 H 0.96126 0.55105 0.14976 0.0
H1355 H 0.91539 0.51407 0.13485 0.0
H1356 H 0.88316 0.4563 0.24624 0.0
H1357 H 0.83474 0.42263 0.23183 0.0
H1358 H 0.96498 0.45974 0.2447 0.0
H1359 H 1.00864 0.49893 0.22975 0.0
C1360 C 0.6675 0.82233 0.64904 0.0
C1361 C 0.72137 0.82619 0.65258 0.0
C1362 C 0.71313 0.91967 0.65468 0.0
C1363 C 0.65844 0.9148 0.65658 0.0
N1364 N 0.58296 0.86027 0.65476 0.0
N1365 N 0.79678 0.87835 0.65809 0.0
C1366 C 0.63523 0.86594 0.65298 0.0
C1367 C 0.74465 0.87495 0.65474 0.0
N1368 N 0.64746 0.77666 0.64195 0.0
N1369 N 0.73495 0.9671 0.65239 0.0
H1370 H 0.82123 0.84661 0.65693 0.0
H1371 H 0.81537 0.91197 0.66305 0.0
H1372 H 0.71327 1.00072 0.65178 0.0
H1373 H 0.77386 0.97283 0.64866 0.0
H1374 H 0.60908 0.77202 0.63713 0.0
H1375 H 0.67083 0.74475 0.63878 0.0
H1376 H 0.56461 0.82476 0.65519 0.0
H1377 H 0.55774 0.89082 0.65726 0.0
C1378 C 0.93615 0.88293 0.90972 0.0
C1379 C 0.88821 0.90801 0.91369 0.0
C1380 C 0.93032 0.99176 0.90842 0.0
C1381 C 0.97893 0.96722 0.90656 0.0
N1382 N 1.0298 0.89004 0.90685 0.0
N1383 N 0.84289 0.98632 0.92293 0.0
C1384 C 0.98217 0.91278 0.90741 0.0
C1385 C 0.88606 0.96246 0.91462 0.0
N1386 N 0.93776 0.83054 0.90909 0.0
N1387 N 0.92658 0.04343 0.90477 0.0
H1388 H 0.81017 0.96643 0.92837 0.0
H1389 H 0.84113 1.02546 0.92641 0.0
H1390 H 0.95835 0.06607 0.9005 0.0
H1391 H 0.89143 0.06278 0.90369 0.0
H1392 H 0.97083 0.80914 0.90604 0.0
H1393 H 0.90525 0.80766 0.91139 0.0
H1394 H 1.03661 0.85148 0.91037 0.0
H1395 H 0.06347 0.91063 0.9034 0.0
C1396 C 0.90113 0.17352 0.15499 0.0
C1397 C 0.87726 0.12708 0.16259 0.0
C1398 C 0.79253 0.17074 0.16089 0.0
C1399 C 0.81698 0.21842 0.15663 0.0
N1400 N 0.89456 0.26624 0.15006 0.0
N1401 N 0.79971 0.08366 0.17525 0.0
C1402 C 0.87127 0.21987 0.15338 0.0
C1403 C 0.82275 0.12627 0.16612 0.0
N1404 N 0.95268 0.1738 0.14995 0.0
N1405 N 0.73985 0.16835 0.15998 0.0
H1406 H 0.81958 0.05001 0.1792 0.0
H1407 H 0.76124 0.08263 0.18038 0.0
H1408 H 0.71722 0.20041 0.15605 0.0
H1409 H 0.71902 0.13426 0.16075 0.0
H1410 H 0.97138 0.20445 0.14208 0.0
H1411 H 0.97684 0.14243 0.15272 0.0
H1412 H 0.93429 0.27198 0.15071 0.0
H1413 H 0.8733 0.29976 0.14754 0.0
C1414 C 0.58317 0.12501 0.41032 0.0
C1415 C 0.58341 0.07296 0.40318 0.0
C1416 C 0.67383 0.08238 0.39089 0.0
C1417 C 0.67639 0.13062 0.40233 0.0
N1418 N 0.63229 0.20096 0.42065 0.0
N1419 N 0.62834 1.0014 0.38645 0.0
C1420 C 0.63046 0.15298 0.41122 0.0
C1421 C 0.62828 0.05175 0.39294 0.0
N1422 N 0.53721 0.14765 0.41593 0.0
N1423 N 0.71467 0.06577 0.37803 0.0
H1424 H 0.59527 0.97861 0.38707 0.0
H1425 H 0.66153 0.98152 0.38165 0.0
H1426 H 0.74883 0.08641 0.3764 0.0
H1427 H 0.71301 0.03386 0.36727 0.0
H1428 H 0.53291 0.18643 0.41967 0.0
H1429 H 0.50212 0.1282 0.4148 0.0
H1430 H 0.60233 0.21722 0.43012 0.0
H1431 H 0.6648 0.22439 0.41944 0.0
C1432 C 0.36048 0.21611 0.44367 0.0
C1433 C 0.30928 0.21702 0.43482 0.0
C1434 C 0.31771 0.12644 0.4234 0.0
C1435 C 0.36868 0.1251 0.43254 0.0
N1436 N 0.43461 0.1653 0.45573 0.0
N1437 N 0.23471 0.16986 0.42226 0.0
C1438 C 0.3886 0.16879 0.44424 0.0
C1439 C 0.28662 0.17105 0.42654 0.0
N1440 N 0.38345 0.26093 0.45023 0.0
N1441 N 0.29906 0.0854 0.41135 0.0
H1442 H 0.2108 0.20152 0.42502 0.0
H1443 H 0.21452 0.13647 0.41836 0.0
H1444 H 0.31915 0.05097 0.40964 0.0
H1445 H 0.26495 0.08649 0.40183 0.0
H1446 H 0.4226 0.26408 0.45408 0.0
H1447 H 0.364 0.29596 0.45042 0.0
H1448 H 0.44844 0.19377 0.46668 0.0
H1449 H 0.45745 0.13232 0.45565 0.0
C1450 C 0.09059 0.12182 0.20841 0.0
C1451 C 0.08748 0.06954 0.20178 0.0
C1452 C 0.17425 0.07527 0.1848 0.0
C1453 C 0.17863 0.12735 0.19208 0.0
N1454 N 0.1425 0.19863 0.21328 0.0
N1455 N 0.13173 0.99312 0.18981 0.0
C1456 C 0.13752 0.14987 0.20496 0.0
C1457 C 0.13125 0.04524 0.1921 0.0
N1458 N 0.0475 0.14526 0.21703 0.0
N1459 N 0.21009 0.05446 0.17023 0.0
H1460 H 0.10115 0.97012 0.19523 0.0
H1461 H 0.16437 0.97242 0.18494 0.0
H1462 H 0.24361 0.07324 0.16509 0.0
H1463 H 0.20486 1.01944 0.16193 0.0
H1464 H 0.04416 0.18468 0.21944 0.0
H1465 H 1.0139 0.12491 0.22096 0.0
H1466 H 0.11697 0.21492 0.22505 0.0
H1467 H 0.17347 0.22246 0.2092 0.0
C1468 C 0.16804 0.87356 0.94647 0.0
C1469 C 0.18835 0.91849 0.93574 0.0
C1470 C 0.27143 0.87351 0.93024 0.0
C1471 C 0.2491 0.82713 0.93804 0.0
N1472 N 0.17572 0.78131 0.95276 0.0
N1473 N 0.25837 0.95855 0.91456 0.0
C1474 C 0.1974 0.82685 0.94621 0.0
C1475 C 0.23981 0.91772 0.92689 0.0
N1476 N 0.1202 0.87508 0.95642 0.0
N1477 N 0.32341 0.87542 0.92631 0.0
H1478 H 0.23838 0.9929 0.91246 0.0
H1479 H 0.2925 0.95724 0.90506 0.0
H1480 H 0.34748 0.84382 0.92898 0.0
H1481 H 0.34334 0.90921 0.92276 0.0
H1482 H 0.10536 0.84572 0.96665 0.0
H1483 H 0.09603 0.90701 0.95548 0.0
H1484 H 0.13657 0.77654 0.95618 0.0
H1485 H 0.19694 0.74729 0.95378 0.0
C1486 C 0.42414 0.8871 0.69038 0.0
C1487 C 0.378 0.91603 0.68787 0.0
C1488 C 0.42368 0.99252 0.70189 0.0
C1489 C 0.47074 0.96478 0.70281 0.0
N1490 N 0.51389 0.88233 0.69988 0.0
N1491 N 0.34106 1.00026 0.68279 0.0
C1492 C 0.47043 0.91142 0.69776 0.0
C1493 C 0.37961 0.9699 0.69132 0.0
N1494 N 0.4249 0.83647 0.68451 0.0
N1495 N 0.42091 0.04073 0.71099 0.0
H1496 H 0.30997 0.9855 0.67348 0.0
H1497 H 0.34282 0.04021 0.68285 0.0
H1498 H 0.45249 0.0587 0.7187 0.0
H1499 H 0.38618 0.06067 0.71262 0.0
H1500 H 0.45783 0.81362 0.68625 0.0
H1501 H 0.39346 0.81855 0.67671 0.0
H1502 H 0.54963 0.89661 0.70517 0.0
H1503 H 0.54963 0.89661 0.70517 0.0
loop_
_geom_bond_atom_site_label_1
_geom_bond_atom_site_label_2
_geom_bond_distance
_geom_bond_site_symmetry_2
_ccdc_geom_bond_type
Eu0 C9 2.828 . S
Eu0 O11 2.392 . S
Eu0 O13 2.418 . S
Eu0 O18 2.373 . S
Eu0 O21 2.488 . S
Eu0 O22 2.471 . S
Eu0 O23 2.349 . S
Eu1 O10 2.373 . S
Eu1 O14 2.488 . S
Eu1 O15 2.471 . S
Eu1 O16 2.349 . S
Eu1 O19 2.392 . S
Eu1 O20 2.418 . S
Eu1 C30 2.828 . S
C2 O20 1.244 . S
C2 O23 1.265 . S
C3 C4 1.379 . S
C3 C7 1.373 . S
C3 C9 1.505 . S
C4 C3 1.379 . S
C4 C6 1.369 . S
C4 H32 0.930 . S
C5 C7 1.383 . S
C5 C8 1.382 . S
C5 H33 0.930 . S
C6 C4 1.369 . S
C6 C8 1.392 . S
C6 H34 0.930 . S
C7 C3 1.373 . S
C7 C5 1.383 . S
C7 H35 0.931 . S
C8 C5 1.382 . S
C8 C6 1.392 . S
C9 Eu0 2.828 . S
C9 C3 1.505 . S
C9 O21 1.249 . S
C9 O22 1.244 . S
O10 Eu1 2.373 . S
O10 C12 1.258 . S
O11 Eu0 2.392 . S
O11 C12 1.242 . S
C12 O10 1.258 . S
C12 O11 1.242 . S
O13 Eu0 2.418 . S
O13 C17 1.244 . S
O14 Eu1 2.488 . S
O14 C30 1.249 . S
O15 Eu1 2.471 . S
O15 C30 1.244 . S
O16 Eu1 2.349 . S
O16 C17 1.265 . S
C17 O13 1.244 . S
C17 O16 1.265 . S
O18 Eu0 2.373 . S
O18 C31 1.258 . S
O19 Eu1 2.392 . S
O19 C31 1.242 . S
O20 Eu1 2.418 . S
O20 C2 1.244 . S
O21 Eu0 2.488 . S
O21 C9 1.249 . S
O22 Eu0 2.471 . S
O22 C9 1.244 . S
O23 Eu0 2.349 . S
O23 C2 1.265 . S
C24 C25 1.379 . S
C24 C28 1.373 1_545 S
C24 C30 1.505 . S
C25 C24 1.379 . S
C25 C27 1.369 . S
C25 H36 0.930 . S
C26 C28 1.383 . S
C26 C29 1.382 . S
C26 H37 0.930 . S
C27 C25 1.369 . S
C27 C29 1.392 1_545 S
C27 H38 0.930 . S
C28 C24 1.373 1_565 S
C28 C26 1.383 . S
C28 H39 0.931 . S
C29 C26 1.382 . S
C29 C27 1.392 1_565 S
C30 Eu1 2.828 . S
C30 O14 1.249 . S
C30 O15 1.244 . S
C30 C24 1.505 . S
C31 O18 1.258 . S
C31 O19 1.242 . S
H32 C4 0.930 . S
H33 C5 0.930 . S
H34 C6 0.930 . S
H35 C7 0.931 . S
H36 C25 0.930 . S
H37 C26 0.930 . S
H38 C27 0.930 . S
H39 C28 0.931 . S
Eu40 C49 2.828 . S
Eu40 O51 2.392 . S
Eu40 O53 2.418 . S
Eu40 O58 2.373 . S
Eu40 O61 2.488 . S
Eu40 O62 2.471 . S
Eu40 O63 2.349 . S
Eu41 O50 2.373 . S
Eu41 O54 2.488 . S
Eu41 O55 2.471 . S
Eu41 O56 2.349 . S
Eu41 O59 2.392 . S
Eu41 O60 2.418 . S
Eu41 C70 2.828 . S
C42 O60 1.244 . S
C42 O63 1.265 . S
C43 C44 1.379 . S
C43 C47 1.373 . S
C43 C49 1.505 . S
C44 C43 1.379 . S
C44 C46 1.369 . S
C44 H72 0.930 . S
C45 C47 1.383 . S
C45 C48 1.382 . S
C45 H73 0.930 . S
C46 C44 1.369 . S
C46 C48 1.392 . S
C46 H74 0.930 . S
C47 C43 1.373 . S
C47 C45 1.383 . S
C47 H75 0.931 . S
C48 C45 1.382 . S
C48 C46 1.392 . S
C49 Eu40 2.828 . S
C49 C43 1.505 . S
C49 O61 1.249 . S
C49 O62 1.244 . S
O50 Eu41 2.373 . S
O50 C52 1.258 . S
O51 Eu40 2.392 . S
O51 C52 1.242 . S
C52 O50 1.258 . S
C52 O51 1.242 . S
O53 Eu40 2.418 . S
O53 C57 1.244 . S
O54 Eu41 2.488 . S
O54 C70 1.249 . S
O55 Eu41 2.471 . S
O55 C70 1.244 . S
O56 Eu41 2.349 . S
O56 C57 1.265 . S
C57 O53 1.244 . S
C57 O56 1.265 . S
O58 Eu40 2.373 . S
O58 C71 1.258 . S
O59 Eu41 2.392 . S
O59 C71 1.242 . S
O60 Eu41 2.418 . S
O60 C42 1.244 . S
O61 Eu40 2.488 . S
O61 C49 1.249 . S
O62 Eu40 2.471 . S
O62 C49 1.244 . S
O63 Eu40 2.349 . S
O63 C42 1.265 . S
C64 C65 1.379 . S
C64 C68 1.373 . S
C64 C70 1.505 . S
C65 C64 1.379 . S
C65 C67 1.369 . S
C65 H76 0.930 . S
C66 C68 1.383 . S
C66 C69 1.382 . S
C66 H77 0.930 . S
C67 C65 1.369 . S
C67 C69 1.392 . S
C67 H78 0.930 . S
C68 C64 1.373 . S
C68 C66 1.383 . S
C68 H79 0.931 . S
C69 C66 1.382 . S
C69 C67 1.392 . S
C70 Eu41 2.828 . S
C70 O54 1.249 . S
C70 O55 1.244 . S
C70 C64 1.505 . S
C71 O58 1.258 . S
C71 O59 1.242 . S
H72 C44 0.930 . S
H73 C45 0.930 . S
H74 C46 0.930 . S
H75 C47 0.931 . S
H76 C65 0.930 . S
H77 C66 0.930 . S
H78 C67 0.930 . S
H79 C68 0.931 . S
Eu80 C89 2.828 . S
Eu80 O91 2.392 . S
Eu80 O93 2.418 . S
Eu80 O98 2.373 . S
Eu80 O101 2.488 . S
Eu80 O102 2.471 . S
Eu80 O103 2.349 . S
Eu81 O90 2.373 . S
Eu81 O94 2.488 . S
Eu81 O95 2.471 . S
Eu81 O96 2.349 . S
Eu81 O99 2.392 . S
Eu81 O100 2.418 . S
Eu81 C110 2.828 . S
C82 O100 1.244 . S
C82 O103 1.265 . S
C83 C84 1.379 . S
C83 C87 1.373 . S
C83 C89 1.505 . S
C84 C83 1.379 . S
C84 C86 1.369 . S
C84 H112 0.930 . S
C85 C87 1.383 . S
C85 C88 1.382 . S
C85 H113 0.930 . S
C86 C84 1.369 . S
C86 C88 1.392 . S
C86 H114 0.930 . S
C87 C83 1.373 . S
C87 C85 1.383 . S
C87 H115 0.931 . S
C88 C85 1.382 . S
C88 C86 1.392 . S
C89 Eu80 2.828 . S
C89 C83 1.505 . S
C89 O101 1.249 . S
C89 O102 1.244 . S
O90 Eu81 2.373 . S
O90 C92 1.258 . S
O91 Eu80 2.392 . S
O91 C92 1.242 . S
C92 O90 1.258 . S
C92 O91 1.242 . S
O93 Eu80 2.418 . S
O93 C97 1.244 . S
O94 Eu81 2.488 . S
O94 C110 1.249 . S
O95 Eu81 2.471 . S
O95 C110 1.244 . S
O96 Eu81 2.349 . S
O96 C97 1.265 . S
C97 O93 1.244 . S
C97 O96 1.265 . S
O98 Eu80 2.373 . S
O98 C111 1.258 . S
O99 Eu81 2.392 . S
O99 C111 1.242 . S
O100 Eu81 2.418 . S
O100 C82 1.244 . S
O101 Eu80 2.488 . S
O101 C89 1.249 . S
O102 Eu80 2.471 . S
O102 C89 1.244 . S
O103 Eu80 2.349 . S
O103 C82 1.265 . S
C104 C105 1.379 . S
C104 C108 1.373 1_565 S
C104 C110 1.505 . S
C105 C104 1.379 . S
C105 C107 1.369 . S
C105 H116 0.930 . S
C106 C108 1.383 . S
C106 C109 1.382 . S
C106 H117 0.930 . S
C107 C105 1.369 . S
C107 C109 1.392 1_565 S
C107 H118 0.930 . S
C108 C104 1.373 1_545 S
C108 C106 1.383 . S
C108 H119 0.931 . S
C109 C106 1.382 . S
C109 C107 1.392 1_545 S
C110 Eu81 2.828 . S
C110 O94 1.249 . S
C110 O95 1.244 . S
C110 C104 1.505 . S
C111 O98 1.258 . S
C111 O99 1.242 . S
H112 C84 0.930 . S
H113 C85 0.930 . S
H114 C86 0.930 . S
H115 C87 0.931 . S
H116 C105 0.930 . S
H117 C106 0.930 . S
H118 C107 0.930 . S
H119 C108 0.931 . S
Eu120 C129 2.828 . S
Eu120 O131 2.392 . S
Eu120 O133 2.418 . S
Eu120 O138 2.373 . S
Eu120 O141 2.488 . S
Eu120 O142 2.471 . S
Eu120 O143 2.349 . S
Eu121 O130 2.373 . S
Eu121 O134 2.488 . S
Eu121 O135 2.471 . S
Eu121 O136 2.349 . S
Eu121 O139 2.392 . S
Eu121 O140 2.418 . S
Eu121 C150 2.828 . S
C122 O140 1.244 . S
C122 O143 1.265 . S
C123 C124 1.379 . S
C123 C127 1.373 1_655 S
C123 C129 1.505 . S
C124 C123 1.379 . S
C124 C126 1.369 . S
C124 H152 0.930 . S
C125 C127 1.383 . S
C125 C128 1.382 . S
C125 H153 0.930 . S
C126 C124 1.369 . S
C126 C128 1.392 1_655 S
C126 H154 0.930 . S
C127 C123 1.373 1_455 S
C127 C125 1.383 . S
C127 H155 0.931 . S
C128 C125 1.382 . S
C128 C126 1.392 1_455 S
C129 Eu120 2.828 . S
C129 C123 1.505 . S
C129 O141 1.249 . S
C129 O142 1.244 . S
O130 Eu121 2.373 . S
O130 C132 1.258 . S
O131 Eu120 2.392 . S
O131 C132 1.242 . S
C132 O130 1.258 . S
C132 O131 1.242 . S
O133 Eu120 2.418 . S
O133 C137 1.244 . S
O134 Eu121 2.488 . S
O134 C150 1.249 . S
O135 Eu121 2.471 . S
O135 C150 1.244 . S
O136 Eu121 2.349 . S
O136 C137 1.265 . S
C137 O133 1.244 . S
C137 O136 1.265 . S
O138 Eu120 2.373 . S
O138 C151 1.258 . S
O139 Eu121 2.392 . S
O139 C151 1.242 . S
O140 Eu121 2.418 . S
O140 C122 1.244 . S
O141 Eu120 2.488 . S
O141 C129 1.249 . S
O142 Eu120 2.471 . S
O142 C129 1.244 . S
O143 Eu120 2.349 . S
O143 C122 1.265 . S
C144 C145 1.379 . S
C144 C148 1.373 . S
C144 C150 1.505 . S
C145 C144 1.379 . S
C145 C147 1.369 . S
C145 H156 0.930 . S
C146 C148 1.383 . S
C146 C149 1.382 . S
C146 H157 0.930 . S
C147 C145 1.369 . S
C147 C149 1.392 . S
C147 H158 0.930 . S
C148 C144 1.373 . S
C148 C146 1.383 . S
C148 H159 0.931 . S
C149 C146 1.382 . S
C149 C147 1.392 . S
C150 Eu121 2.828 . S
C150 O134 1.249 . S
C150 O135 1.244 . S
C150 C144 1.505 . S
C151 O138 1.258 . S
C151 O139 1.242 . S
H152 C124 0.930 . S
H153 C125 0.930 . S
H154 C126 0.930 . S
H155 C127 0.931 . S
H156 C145 0.930 . S
H157 C146 0.930 . S
H158 C147 0.930 . S
H159 C148 0.931 . S
Eu160 C169 2.828 . S
Eu160 O171 2.392 . S
Eu160 O173 2.418 . S
Eu160 O178 2.373 . S
Eu160 O181 2.488 . S
Eu160 O182 2.471 . S
Eu160 O183 2.349 . S
Eu161 O170 2.373 . S
Eu161 O174 2.488 . S
Eu161 O175 2.471 . S
Eu161 O176 2.349 . S
Eu161 O179 2.392 . S
Eu161 O180 2.418 . S
Eu161 C190 2.828 . S
C162 O180 1.244 . S
C162 O183 1.265 . S
C163 C164 1.379 . S
C163 C167 1.373 1_565 S
C163 C169 1.505 . S
C164 C163 1.379 . S
C164 C166 1.369 . S
C164 H192 0.930 . S
C165 C167 1.383 . S
C165 C168 1.382 . S
C165 H193 0.930 . S
C166 C164 1.369 . S
C166 C168 1.392 1_565 S
C166 H194 0.930 . S
C167 C163 1.373 1_545 S
C167 C165 1.383 . S
C167 H195 0.931 . S
C168 C165 1.382 . S
C168 C166 1.392 1_545 S
C169 Eu160 2.828 . S
C169 C163 1.505 . S
C169 O181 1.249 . S
C169 O182 1.244 . S
O170 Eu161 2.373 . S
O170 C172 1.258 . S
O171 Eu160 2.392 . S
O171 C172 1.242 . S
C172 O170 1.258 . S
C172 O171 1.242 . S
O173 Eu160 2.418 . S
O173 C177 1.244 . S
O174 Eu161 2.488 . S
O174 C190 1.249 . S
O175 Eu161 2.471 . S
O175 C190 1.244 . S
O176 Eu161 2.349 . S
O176 C177 1.265 . S
C177 O173 1.244 . S
C177 O176 1.265 . S
O178 Eu160 2.373 . S
O178 C191 1.258 . S
O179 Eu161 2.392 . S
O179 C191 1.242 . S
O180 Eu161 2.418 . S
O180 C162 1.244 . S
O181 Eu160 2.488 . S
O181 C169 1.249 . S
O182 Eu160 2.471 . S
O182 C169 1.244 . S
O183 Eu160 2.349 . S
O183 C162 1.265 . S
C184 C185 1.379 . S
C184 C188 1.373 . S
C184 C190 1.505 . S
C185 C184 1.379 . S
C185 C187 1.369 . S
C185 H196 0.930 . S
C186 C188 1.383 . S
C186 C189 1.382 . S
C186 H197 0.930 . S
C187 C185 1.369 . S
C187 C189 1.392 . S
C187 H198 0.930 . S
C188 C184 1.373 . S
C188 C186 1.383 . S
C188 H199 0.931 . S
C189 C186 1.382 . S
C189 C187 1.392 . S
C190 Eu161 2.828 . S
C190 O174 1.249 . S
C190 O175 1.244 . S
C190 C184 1.505 . S
C191 O178 1.258 . S
C191 O179 1.242 . S
H192 C164 0.930 . S
H193 C165 0.930 . S
H194 C166 0.930 . S
H195 C167 0.931 . S
H196 C185 0.930 . S
H197 C186 0.930 . S
H198 C187 0.930 . S
H199 C188 0.931 . S
Eu200 C209 2.828 . S
Eu200 O211 2.392 . S
Eu200 O213 2.418 . S
Eu200 O218 2.373 . S
Eu200 O221 2.488 . S
Eu200 O222 2.471 . S
Eu200 O223 2.349 . S
Eu201 O210 2.373 . S
Eu201 O214 2.488 . S
Eu201 O215 2.471 . S
Eu201 O216 2.349 . S
Eu201 O219 2.392 . S
Eu201 O220 2.418 . S
Eu201 C230 2.828 . S
C202 O220 1.244 . S
C202 O223 1.265 . S
C203 C204 1.379 . S
C203 C207 1.373 . S
C203 C209 1.505 . S
C204 C203 1.379 . S
C204 C206 1.369 . S
C204 H232 0.930 . S
C205 C207 1.383 . S
C205 C208 1.382 . S
C205 H233 0.930 . S
C206 C204 1.369 . S
C206 C208 1.392 . S
C206 H234 0.930 . S
C207 C203 1.373 . S
C207 C205 1.383 . S
C207 H235 0.931 . S
C208 C205 1.382 . S
C208 C206 1.392 . S
C209 Eu200 2.828 . S
C209 C203 1.505 . S
C209 O221 1.249 . S
C209 O222 1.244 . S
O210 Eu201 2.373 . S
O210 C212 1.258 . S
O211 Eu200 2.392 . S
O211 C212 1.242 . S
C212 O210 1.258 . S
C212 O211 1.242 . S
O213 Eu200 2.418 . S
O213 C217 1.244 . S
O214 Eu201 2.488 . S
O214 C230 1.249 . S
O215 Eu201 2.471 . S
O215 C230 1.244 . S
O216 Eu201 2.349 . S
O216 C217 1.265 . S
C217 O213 1.244 . S
C217 O216 1.265 . S
O218 Eu200 2.373 . S
O218 C231 1.258 . S
O219 Eu201 2.392 . S
O219 C231 1.242 . S
O220 Eu201 2.418 . S
O220 C202 1.244 . S
O221 Eu200 2.488 . S
O221 C209 1.249 . S
O222 Eu200 2.471 . S
O222 C209 1.244 . S
O223 Eu200 2.349 . S
O223 C202 1.265 . S
C224 C225 1.379 . S
C224 C228 1.373 . S
C224 C230 1.505 . S
C225 C224 1.379 . S
C225 C227 1.369 . S
C225 H236 0.930 . S
C226 C228 1.383 . S
C226 C229 1.382 . S
C226 H237 0.930 . S
C227 C225 1.369 . S
C227 C229 1.392 . S
C227 H238 0.930 . S
C228 C224 1.373 . S
C228 C226 1.383 . S
C228 H239 0.931 . S
C229 C226 1.382 . S
C229 C227 1.392 . S
C230 Eu201 2.828 . S
C230 O214 1.249 . S
C230 O215 1.244 . S
C230 C224 1.505 . S
C231 O218 1.258 . S
C231 O219 1.242 . S
H232 C204 0.930 . S
H233 C205 0.930 . S
H234 C206 0.930 . S
H235 C207 0.931 . S
H236 C225 0.930 . S
H237 C226 0.930 . S
H238 C227 0.930 . S
H239 C228 0.931 . S
Eu240 C249 2.828 . S
Eu240 O251 2.392 . S
Eu240 O253 2.418 . S
Eu240 O258 2.373 . S
Eu240 O261 2.488 . S
Eu240 O262 2.471 . S
Eu240 O263 2.349 . S
Eu241 O250 2.373 . S
Eu241 O254 2.488 . S
Eu241 O255 2.471 . S
Eu241 O256 2.349 . S
Eu241 O259 2.392 . S
Eu241 O260 2.418 . S
Eu241 C270 2.828 . S
C242 O260 1.244 . S
C242 O263 1.265 . S
C243 C244 1.379 . S
C243 C247 1.373 1_545 S
C243 C249 1.505 . S
C244 C243 1.379 . S
C244 C246 1.369 . S
C244 H272 0.930 . S
C245 C247 1.383 . S
C245 C248 1.382 . S
C245 H273 0.930 . S
C246 C244 1.369 . S
C246 C248 1.392 1_545 S
C246 H274 0.930 . S
C247 C243 1.373 1_565 S
C247 C245 1.383 . S
C247 H275 0.931 . S
C248 C245 1.382 . S
C248 C246 1.392 1_565 S
C249 Eu240 2.828 . S
C249 C243 1.505 . S
C249 O261 1.249 . S
C249 O262 1.244 . S
O250 Eu241 2.373 . S
O250 C252 1.258 . S
O251 Eu240 2.392 . S
O251 C252 1.242 . S
C252 O250 1.258 . S
C252 O251 1.242 . S
O253 Eu240 2.418 . S
O253 C257 1.244 . S
O254 Eu241 2.488 . S
O254 C270 1.249 . S
O255 Eu241 2.471 . S
O255 C270 1.244 . S
O256 Eu241 2.349 . S
O256 C257 1.265 . S
C257 O253 1.244 . S
C257 O256 1.265 . S
O258 Eu240 2.373 . S
O258 C271 1.258 . S
O259 Eu241 2.392 . S
O259 C271 1.242 . S
O260 Eu241 2.418 . S
O260 C242 1.244 . S
O261 Eu240 2.488 . S
O261 C249 1.249 . S
O262 Eu240 2.471 . S
O262 C249 1.244 . S
O263 Eu240 2.349 . S
O263 C242 1.265 . S
C264 C265 1.379 . S
C264 C268 1.373 . S
C264 C270 1.505 . S
C265 C264 1.379 . S
C265 C267 1.369 . S
C265 H276 0.930 . S
C266 C268 1.383 . S
C266 C269 1.382 . S
C266 H277 0.930 . S
C267 C265 1.369 . S
C267 C269 1.392 . S
C267 H278 0.930 . S
C268 C264 1.373 . S
C268 C266 1.383 . S
C268 H279 0.931 . S
C269 C266 1.382 . S
C269 C267 1.392 . S
C270 Eu241 2.828 . S
C270 O254 1.249 . S
C270 O255 1.244 . S
C270 C264 1.505 . S
C271 O258 1.258 . S
C271 O259 1.242 . S
H272 C244 0.930 . S
H273 C245 0.930 . S
H274 C246 0.930 . S
H275 C247 0.931 . S
H276 C265 0.930 . S
H277 C266 0.930 . S
H278 C267 0.930 . S
H279 C268 0.931 . S
Eu280 C289 2.828 . S
Eu280 O291 2.392 . S
Eu280 O293 2.418 . S
Eu280 O298 2.373 . S
Eu280 O301 2.488 . S
Eu280 O302 2.471 . S
Eu280 O303 2.349 . S
Eu281 O290 2.373 . S
Eu281 O294 2.488 . S
Eu281 O295 2.471 . S
Eu281 O296 2.349 . S
Eu281 O299 2.392 . S
Eu281 O300 2.418 . S
Eu281 C310 2.828 . S
C282 O300 1.244 . S
C282 O303 1.265 . S
C283 C284 1.379 . S
C283 C287 1.373 . S
C283 C289 1.505 . S
C284 C283 1.379 . S
C284 C286 1.369 . S
C284 H312 0.930 . S
C285 C287 1.383 . S
C285 C288 1.382 . S
C285 H313 0.930 . S
C286 C284 1.369 . S
C286 C288 1.392 . S
C286 H314 0.930 . S
C287 C283 1.373 . S
C287 C285 1.383 . S
C287 H315 0.931 . S
C288 C285 1.382 . S
C288 C286 1.392 . S
C289 Eu280 2.828 . S
C289 C283 1.505 . S
C289 O301 1.249 . S
C289 O302 1.244 . S
O290 Eu281 2.373 . S
O290 C292 1.258 . S
O291 Eu280 2.392 . S
O291 C292 1.242 . S
C292 O290 1.258 . S
C292 O291 1.242 . S
O293 Eu280 2.418 . S
O293 C297 1.244 . S
O294 Eu281 2.488 . S
O294 C310 1.249 . S
O295 Eu281 2.471 . S
O295 C310 1.244 . S
O296 Eu281 2.349 . S
O296 C297 1.265 . S
C297 O293 1.244 . S
C297 O296 1.265 . S
O298 Eu280 2.373 . S
O298 C311 1.258 . S
O299 Eu281 2.392 . S
O299 C311 1.242 . S
O300 Eu281 2.418 . S
O300 C282 1.244 . S
O301 Eu280 2.488 . S
O301 C289 1.249 . S
O302 Eu280 2.471 . S
O302 C289 1.244 . S
O303 Eu280 2.349 . S
O303 C282 1.265 . S
C304 C305 1.379 . S
C304 C308 1.373 1_455 S
C304 C310 1.505 . S
C305 C304 1.379 . S
C305 C307 1.369 . S
C305 H316 0.930 . S
C306 C308 1.383 . S
C306 C309 1.382 . S
C306 H317 0.930 . S
C307 C305 1.369 . S
C307 C309 1.392 1_455 S
C307 H318 0.930 . S
C308 C304 1.373 1_655 S
C308 C306 1.383 . S
C308 H319 0.931 . S
C309 C306 1.382 . S
C309 C307 1.392 1_655 S
C310 Eu281 2.828 . S
C310 O294 1.249 . S
C310 O295 1.244 . S
C310 C304 1.505 . S
C311 O298 1.258 . S
C311 O299 1.242 . S
H312 C284 0.930 . S
H313 C285 0.930 . S
H314 C286 0.930 . S
H315 C287 0.931 . S
H316 C305 0.930 . S
H317 C306 0.930 . S
H318 C307 0.930 . S
H319 C308 0.931 . S
Eu320 C329 2.828 . S
Eu320 O331 2.392 . S
Eu320 O333 2.418 . S
Eu320 O338 2.373 . S
Eu320 O341 2.488 . S
Eu320 O342 2.471 . S
Eu320 O343 2.349 . S
Eu321 O330 2.373 . S
Eu321 O334 2.488 . S
Eu321 O335 2.471 . S
Eu321 O336 2.349 . S
Eu321 O339 2.392 . S
Eu321 O340 2.418 . S
Eu321 C350 2.828 . S
C322 O340 1.244 . S
C322 O343 1.265 . S
C323 C324 1.379 . S
C323 C327 1.373 . S
C323 C329 1.505 . S
C324 C323 1.379 . S
C324 C326 1.369 . S
C324 H352 0.930 . S
C325 C327 1.383 . S
C325 C328 1.382 . S
C325 H353 0.930 . S
C326 C324 1.369 . S
C326 C328 1.392 . S
C326 H354 0.930 . S
C327 C323 1.373 . S
C327 C325 1.383 . S
C327 H355 0.931 . S
C328 C325 1.382 . S
C328 C326 1.392 . S
C329 Eu320 2.828 . S
C329 C323 1.505 . S
C329 O341 1.249 . S
C329 O342 1.244 . S
O330 Eu321 2.373 . S
O330 C332 1.258 . S
O331 Eu320 2.392 . S
O331 C332 1.242 . S
C332 O330 1.258 . S
C332 O331 1.242 . S
O333 Eu320 2.418 . S
O333 C337 1.244 . S
O334 Eu321 2.488 . S
O334 C350 1.249 . S
O335 Eu321 2.471 . S
O335 C350 1.244 . S
O336 Eu321 2.349 . S
O336 C337 1.265 . S
C337 O333 1.244 . S
C337 O336 1.265 . S
O338 Eu320 2.373 . S
O338 C351 1.258 . S
O339 Eu321 2.392 . S
O339 C351 1.242 . S
O340 Eu321 2.418 . S
O340 C322 1.244 . S
O341 Eu320 2.488 . S
O341 C329 1.249 . S
O342 Eu320 2.471 . S
O342 C329 1.244 . S
O343 Eu320 2.349 . S
O343 C322 1.265 . S
C344 C345 1.379 . S
C344 C348 1.373 . S
C344 C350 1.505 . S
C345 C344 1.379 . S
C345 C347 1.369 . S
C345 H356 0.930 . S
C346 C348 1.383 . S
C346 C349 1.382 . S
C346 H357 0.930 . S
C347 C345 1.369 . S
C347 C349 1.392 . S
C347 H358 0.930 . S
C348 C344 1.373 . S
C348 C346 1.383 . S
C348 H359 0.931 . S
C349 C346 1.382 . S
C349 C347 1.392 . S
C350 Eu321 2.828 . S
C350 O334 1.249 . S
C350 O335 1.244 . S
C350 C344 1.505 . S
C351 O338 1.258 . S
C351 O339 1.242 . S
H352 C324 0.930 . S
H353 C325 0.930 . S
H354 C326 0.930 . S
H355 C327 0.931 . S
H356 C345 0.930 . S
H357 C346 0.930 . S
H358 C347 0.930 . S
H359 C348 0.931 . S
Eu360 C369 2.828 1_565 S
Eu360 O371 2.392 . S
Eu360 O373 2.418 . S
Eu360 O378 2.373 1_565 S
Eu360 O381 2.488 1_565 S
Eu360 O382 2.471 1_565 S
Eu360 O383 2.349 1_565 S
Eu361 O370 2.373 1_545 S
Eu361 O374 2.488 . S
Eu361 O375 2.471 . S
Eu361 O376 2.349 . S
Eu361 O379 2.392 . S
Eu361 O380 2.418 . S
Eu361 C390 2.828 . S
C362 O380 1.244 . S
C362 O383 1.265 . S
C363 C364 1.379 . S
C363 C367 1.373 1_455 S
C363 C369 1.505 . S
C364 C363 1.379 . S
C364 C366 1.369 . S
C364 H392 0.930 . S
C365 C367 1.383 . S
C365 C368 1.382 . S
C365 H393 0.930 . S
C366 C364 1.369 . S
C366 C368 1.392 1_455 S
C366 H394 0.930 . S
C367 C363 1.373 1_655 S
C367 C365 1.383 . S
C367 H395 0.931 . S
C368 C365 1.382 . S
C368 C366 1.392 1_655 S
C369 Eu360 2.828 1_545 S
C369 C363 1.505 . S
C369 O381 1.249 . S
C369 O382 1.244 . S
O370 Eu361 2.373 1_565 S
O370 C372 1.258 . S
O371 Eu360 2.392 . S
O371 C372 1.242 . S
C372 O370 1.258 . S
C372 O371 1.242 . S
O373 Eu360 2.418 . S
O373 C377 1.244 . S
O374 Eu361 2.488 . S
O374 C390 1.249 . S
O375 Eu361 2.471 . S
O375 C390 1.244 . S
O376 Eu361 2.349 . S
O376 C377 1.265 1_545 S
C377 O373 1.244 . S
C377 O376 1.265 1_565 S
O378 Eu360 2.373 1_545 S
O378 C391 1.258 . S
O379 Eu361 2.392 . S
O379 C391 1.242 . S
O380 Eu361 2.418 . S
O380 C362 1.244 . S
O381 Eu360 2.488 1_545 S
O381 C369 1.249 . S
O382 Eu360 2.471 1_545 S
O382 C369 1.244 . S
O383 Eu360 2.349 1_545 S
O383 C362 1.265 . S
C384 C385 1.379 1_545 S
C384 C388 1.373 . S
C384 C390 1.505 . S
C385 C384 1.379 1_565 S
C385 C387 1.369 . S
C385 H396 0.930 . S
C386 C388 1.383 . S
C386 C389 1.382 1_545 S
C386 H397 0.930 . S
C387 C385 1.369 . S
C387 C389 1.392 . S
C387 H398 0.930 . S
C388 C384 1.373 . S
C388 C386 1.383 . S
C388 H399 0.931 . S
C389 C386 1.382 1_565 S
C389 C387 1.392 . S
C390 Eu361 2.828 . S
C390 O374 1.249 . S
C390 O375 1.244 . S
C390 C384 1.505 . S
C391 O378 1.258 . S
C391 O379 1.242 . S
H392 C364 0.930 . S
H393 C365 0.930 . S
H394 C366 0.930 . S
H395 C367 0.931 . S
H396 C385 0.930 . S
H397 C386 0.930 . S
H398 C387 0.930 . S
H399 C388 0.931 . S
Eu400 C409 2.828 . S
Eu400 O411 2.392 . S
Eu400 O413 2.418 . S
Eu400 O418 2.373 . S
Eu400 O421 2.488 . S
Eu400 O422 2.471 . S
Eu400 O423 2.349 . S
Eu401 O410 2.373 . S
Eu401 O414 2.488 . S
Eu401 O415 2.471 . S
Eu401 O416 2.349 . S
Eu401 O419 2.392 . S
Eu401 O420 2.418 . S
Eu401 C430 2.828 . S
C402 O420 1.244 . S
C402 O423 1.265 . S
C403 C404 1.379 . S
C403 C407 1.373 . S
C403 C409 1.505 . S
C404 C403 1.379 . S
C404 C406 1.369 . S
C404 H432 0.930 . S
C405 C407 1.383 . S
C405 C408 1.382 . S
C405 H433 0.930 . S
C406 C404 1.369 . S
C406 C408 1.392 . S
C406 H434 0.930 . S
C407 C403 1.373 . S
C407 C405 1.383 . S
C407 H435 0.931 . S
C408 C405 1.382 . S
C408 C406 1.392 . S
C409 Eu400 2.828 . S
C409 C403 1.505 . S
C409 O421 1.249 . S
C409 O422 1.244 . S
O410 Eu401 2.373 . S
O410 C412 1.258 . S
O411 Eu400 2.392 . S
O411 C412 1.242 . S
C412 O410 1.258 . S
C412 O411 1.242 . S
O413 Eu400 2.418 . S
O413 C417 1.244 . S
O414 Eu401 2.488 . S
O414 C430 1.249 . S
O415 Eu401 2.471 . S
O415 C430 1.244 . S
O416 Eu401 2.349 . S
O416 C417 1.265 . S
C417 O413 1.244 . S
C417 O416 1.265 . S
O418 Eu400 2.373 . S
O418 C431 1.258 . S
O419 Eu401 2.392 . S
O419 C431 1.242 . S
O420 Eu401 2.418 . S
O420 C402 1.244 . S
O421 Eu400 2.488 . S
O421 C409 1.249 . S
O422 Eu400 2.471 . S
O422 C409 1.244 . S
O423 Eu400 2.349 . S
O423 C402 1.265 . S
C424 C425 1.379 . S
C424 C428 1.373 . S
C424 C430 1.505 . S
C425 C424 1.379 . S
C425 C427 1.369 . S
C425 H436 0.930 . S
C426 C428 1.383 . S
C426 C429 1.382 . S
C426 H437 0.930 . S
C427 C425 1.369 . S
C427 C429 1.392 . S
C427 H438 0.930 . S
C428 C424 1.373 . S
C428 C426 1.383 . S
C428 H439 0.931 . S
C429 C426 1.382 . S
C429 C427 1.392 . S
C430 Eu401 2.828 . S
C430 O414 1.249 . S
C430 O415 1.244 . S
C430 C424 1.505 . S
C431 O418 1.258 . S
C431 O419 1.242 . S
H432 C404 0.930 . S
H433 C405 0.930 . S
H434 C406 0.930 . S
H435 C407 0.931 . S
H436 C425 0.930 . S
H437 C426 0.930 . S
H438 C427 0.930 . S
H439 C428 0.931 . S
Eu440 C449 2.828 1_545 S
Eu440 O451 2.392 . S
Eu440 O453 2.418 . S
Eu440 O458 2.373 1_545 S
Eu440 O461 2.488 1_545 S
Eu440 O462 2.471 1_545 S
Eu440 O463 2.349 1_545 S
Eu441 O450 2.373 1_565 S
Eu441 O454 2.488 . S
Eu441 O455 2.471 . S
Eu441 O456 2.349 . S
Eu441 O459 2.392 . S
Eu441 O460 2.418 . S
Eu441 C470 2.828 . S
C442 O460 1.244 . S
C442 O463 1.265 . S
C443 C444 1.379 . S
C443 C447 1.373 . S
C443 C449 1.505 . S
C444 C443 1.379 . S
C444 C446 1.369 . S
C444 H472 0.930 . S
C445 C447 1.383 . S
C445 C448 1.382 . S
C445 H473 0.930 . S
C446 C444 1.369 . S
C446 C448 1.392 . S
C446 H474 0.930 . S
C447 C443 1.373 . S
C447 C445 1.383 . S
C447 H475 0.931 . S
C448 C445 1.382 . S
C448 C446 1.392 . S
C449 Eu440 2.828 1_565 S
C449 C443 1.505 . S
C449 O461 1.249 . S
C449 O462 1.244 . S
O450 Eu441 2.373 1_545 S
O450 C452 1.258 . S
O451 Eu440 2.392 . S
O451 C452 1.242 . S
C452 O450 1.258 . S
C452 O451 1.242 . S
O453 Eu440 2.418 . S
O453 C457 1.244 . S
O454 Eu441 2.488 . S
O454 C470 1.249 . S
O455 Eu441 2.471 . S
O455 C470 1.244 . S
O456 Eu441 2.349 . S
O456 C457 1.265 1_565 S
C457 O453 1.244 . S
C457 O456 1.265 1_545 S
O458 Eu440 2.373 1_565 S
O458 C471 1.258 . S
O459 Eu441 2.392 . S
O459 C471 1.242 . S
O460 Eu441 2.418 . S
O460 C442 1.244 . S
O461 Eu440 2.488 1_565 S
O461 C449 1.249 . S
O462 Eu440 2.471 1_565 S
O462 C449 1.244 . S
O463 Eu440 2.349 1_565 S
O463 C442 1.265 . S
C464 C465 1.379 1_565 S
C464 C468 1.373 . S
C464 C470 1.505 . S
C465 C464 1.379 1_545 S
C465 C467 1.369 . S
C465 H476 0.930 . S
C466 C468 1.383 . S
C466 C469 1.382 1_565 S
C466 H477 0.930 . S
C467 C465 1.369 . S
C467 C469 1.392 . S
C467 H478 0.930 . S
C468 C464 1.373 . S
C468 C466 1.383 . S
C468 H479 0.931 . S
C469 C466 1.382 1_545 S
C469 C467 1.392 . S
C470 Eu441 2.828 . S
C470 O454 1.249 . S
C470 O455 1.244 . S
C470 C464 1.505 . S
C471 O458 1.258 . S
C471 O459 1.242 . S
H472 C444 0.930 . S
H473 C445 0.930 . S
H474 C446 0.930 . S
H475 C447 0.931 . S
H476 C465 0.930 . S
H477 C466 0.930 . S
H478 C467 0.930 . S
H479 C468 0.931 . S
Eu480 C489 2.828 . S
Eu480 O491 2.392 . S
Eu480 O493 2.418 . S
Eu480 O498 2.373 . S
Eu480 O501 2.488 . S
Eu480 O502 2.471 . S
Eu480 O503 2.349 . S
Eu481 O490 2.373 . S
Eu481 O494 2.488 . S
Eu481 O495 2.471 . S
Eu481 O496 2.349 . S
Eu481 O499 2.392 . S
Eu481 O500 2.418 . S
Eu481 C510 2.828 . S
C482 O500 1.244 . S
C482 O503 1.265 . S
C483 C484 1.379 . S
C483 C487 1.373 . S
C483 C489 1.505 . S
C484 C483 1.379 . S
C484 C486 1.369 . S
C484 H512 0.930 . S
C485 C487 1.383 . S
C485 C488 1.382 . S
C485 H513 0.930 . S
C486 C484 1.369 . S
C486 C488 1.392 . S
C486 H514 0.930 . S
C487 C483 1.373 . S
C487 C485 1.383 . S
C487 H515 0.931 . S
C488 C485 1.382 . S
C488 C486 1.392 . S
C489 Eu480 2.828 . S
C489 C483 1.505 . S
C489 O501 1.249 . S
C489 O502 1.244 . S
O490 Eu481 2.373 . S
O490 C492 1.258 . S
O491 Eu480 2.392 . S
O491 C492 1.242 . S
C492 O490 1.258 . S
C492 O491 1.242 . S
O493 Eu480 2.418 . S
O493 C497 1.244 . S
O494 Eu481 2.488 . S
O494 C510 1.249 . S
O495 Eu481 2.471 . S
O495 C510 1.244 . S
O496 Eu481 2.349 . S
O496 C497 1.265 . S
C497 O493 1.244 . S
C497 O496 1.265 . S
O498 Eu480 2.373 . S
O498 C511 1.258 . S
O499 Eu481 2.392 . S
O499 C511 1.242 . S
O500 Eu481 2.418 . S
O500 C482 1.244 . S
O501 Eu480 2.488 . S
O501 C489 1.249 . S
O502 Eu480 2.471 . S
O502 C489 1.244 . S
O503 Eu480 2.349 . S
O503 C482 1.265 . S
C504 C505 1.379 . S
C504 C508 1.373 . S
C504 C510 1.505 . S
C505 C504 1.379 . S
C505 C507 1.369 . S
C505 H516 0.930 . S
C506 C508 1.383 . S
C506 C509 1.382 . S
C506 H517 0.930 . S
C507 C505 1.369 . S
C507 C509 1.392 . S
C507 H518 0.930 . S
C508 C504 1.373 . S
C508 C506 1.383 . S
C508 H519 0.931 . S
C509 C506 1.382 . S
C509 C507 1.392 . S
C510 Eu481 2.828 . S
C510 O494 1.249 . S
C510 O495 1.244 . S
C510 C504 1.505 . S
C511 O498 1.258 . S
C511 O499 1.242 . S
H512 C484 0.930 . S
H513 C485 0.930 . S
H514 C486 0.930 . S
H515 C487 0.931 . S
H516 C505 0.930 . S
H517 C506 0.930 . S
H518 C507 0.930 . S
H519 C508 0.931 . S
Eu520 C529 2.828 . S
Eu520 O531 2.392 . S
Eu520 O533 2.418 . S
Eu520 O538 2.373 1_565 S
Eu520 O541 2.488 . S
Eu520 O542 2.471 . S
Eu520 O543 2.349 . S
Eu521 O530 2.373 1_545 S
Eu521 O534 2.488 1_545 S
Eu521 O535 2.471 1_545 S
Eu521 O536 2.349 1_545 S
Eu521 O539 2.392 . S
Eu521 O540 2.418 . S
Eu521 C550 2.828 1_545 S
C522 O540 1.244 . S
C522 O543 1.265 1_545 S
C523 C524 1.379 1_565 S
C523 C527 1.373 . S
C523 C529 1.505 . S
C524 C523 1.379 1_545 S
C524 C526 1.369 . S
C524 H552 0.930 . S
C525 C527 1.383 . S
C525 C528 1.382 1_565 S
C525 H553 0.930 . S
C526 C524 1.369 . S
C526 C528 1.392 . S
C526 H554 0.930 . S
C527 C523 1.373 . S
C527 C525 1.383 . S
C527 H555 0.931 . S
C528 C525 1.382 1_545 S
C528 C526 1.392 . S
C529 Eu520 2.828 . S
C529 C523 1.505 . S
C529 O541 1.249 . S
C529 O542 1.244 . S
O530 Eu521 2.373 1_565 S
O530 C532 1.258 . S
O531 Eu520 2.392 . S
O531 C532 1.242 . S
C532 O530 1.258 . S
C532 O531 1.242 . S
O533 Eu520 2.418 . S
O533 C537 1.244 . S
O534 Eu521 2.488 1_565 S
O534 C550 1.249 . S
O535 Eu521 2.471 1_565 S
O535 C550 1.244 . S
O536 Eu521 2.349 1_565 S
O536 C537 1.265 . S
C537 O533 1.244 . S
C537 O536 1.265 . S
O538 Eu520 2.373 1_545 S
O538 C551 1.258 . S
O539 Eu521 2.392 . S
O539 C551 1.242 . S
O540 Eu521 2.418 . S
O540 C522 1.244 . S
O541 Eu520 2.488 . S
O541 C529 1.249 . S
O542 Eu520 2.471 . S
O542 C529 1.244 . S
O543 Eu520 2.349 . S
O543 C522 1.265 1_565 S
C544 C545 1.379 . S
C544 C548 1.373 1_655 S
C544 C550 1.505 . S
C545 C544 1.379 . S
C545 C547 1.369 . S
C545 H556 0.930 . S
C546 C548 1.383 . S
C546 C549 1.382 . S
C546 H557 0.930 . S
C547 C545 1.369 . S
C547 C549 1.392 1_655 S
C547 H558 0.930 . S
C548 C544 1.373 1_455 S
C548 C546 1.383 . S
C548 H559 0.931 . S
C549 C546 1.382 . S
C549 C547 1.392 1_455 S
C550 Eu521 2.828 1_565 S
C550 O534 1.249 . S
C550 O535 1.244 . S
C550 C544 1.505 . S
C551 O538 1.258 . S
C551 O539 1.242 . S
H552 C524 0.930 . S
H553 C525 0.930 . S
H554 C526 0.930 . S
H555 C527 0.931 . S
H556 C545 0.930 . S
H557 C546 0.930 . S
H558 C547 0.930 . S
H559 C548 0.931 . S
Eu560 C569 2.828 . S
Eu560 O571 2.392 . S
Eu560 O573 2.418 . S
Eu560 O578 2.373 . S
Eu560 O581 2.488 . S
Eu560 O582 2.471 . S
Eu560 O583 2.349 . S
Eu561 O570 2.373 . S
Eu561 O574 2.488 . S
Eu561 O575 2.471 . S
Eu561 O576 2.349 . S
Eu561 O579 2.392 . S
Eu561 O580 2.418 . S
Eu561 C590 2.828 . S
C562 O580 1.244 . S
C562 O583 1.265 . S
C563 C564 1.379 . S
C563 C567 1.373 . S
C563 C569 1.505 . S
C564 C563 1.379 . S
C564 C566 1.369 . S
C564 H592 0.930 . S
C565 C567 1.383 . S
C565 C568 1.382 . S
C565 H593 0.930 . S
C566 C564 1.369 . S
C566 C568 1.392 . S
C566 H594 0.930 . S
C567 C563 1.373 . S
C567 C565 1.383 . S
C567 H595 0.931 . S
C568 C565 1.382 . S
C568 C566 1.392 . S
C569 Eu560 2.828 . S
C569 C563 1.505 . S
C569 O581 1.249 . S
C569 O582 1.244 . S
O570 Eu561 2.373 . S
O570 C572 1.258 . S
O571 Eu560 2.392 . S
O571 C572 1.242 . S
C572 O570 1.258 . S
C572 O571 1.242 . S
O573 Eu560 2.418 . S
O573 C577 1.244 . S
O574 Eu561 2.488 . S
O574 C590 1.249 . S
O575 Eu561 2.471 . S
O575 C590 1.244 . S
O576 Eu561 2.349 . S
O576 C577 1.265 . S
C577 O573 1.244 . S
C577 O576 1.265 . S
O578 Eu560 2.373 . S
O578 C591 1.258 . S
O579 Eu561 2.392 . S
O579 C591 1.242 . S
O580 Eu561 2.418 . S
O580 C562 1.244 . S
O581 Eu560 2.488 . S
O581 C569 1.249 . S
O582 Eu560 2.471 . S
O582 C569 1.244 . S
O583 Eu560 2.349 . S
O583 C562 1.265 . S
C584 C585 1.379 . S
C584 C588 1.373 . S
C584 C590 1.505 . S
C585 C584 1.379 . S
C585 C587 1.369 . S
C585 H596 0.930 . S
C586 C588 1.383 . S
C586 C589 1.382 . S
C586 H597 0.930 . S
C587 C585 1.369 . S
C587 C589 1.392 . S
C587 H598 0.930 . S
C588 C584 1.373 . S
C588 C586 1.383 . S
C588 H599 0.931 . S
C589 C586 1.382 . S
C589 C587 1.392 . S
C590 Eu561 2.828 . S
C590 O574 1.249 . S
C590 O575 1.244 . S
C590 C584 1.505 . S
C591 O578 1.258 . S
C591 O579 1.242 . S
H592 C564 0.930 . S
H593 C565 0.930 . S
H594 C566 0.930 . S
H595 C567 0.931 . S
H596 C585 0.930 . S
H597 C586 0.930 . S
H598 C587 0.930 . S
H599 C588 0.931 . S
Eu600 C609 2.828 . S
Eu600 O611 2.392 . S
Eu600 O613 2.418 . S
Eu600 O618 2.373 1_545 S
Eu600 O621 2.488 . S
Eu600 O622 2.471 . S
Eu600 O623 2.349 . S
Eu601 O610 2.373 1_565 S
Eu601 O614 2.488 1_565 S
Eu601 O615 2.471 1_565 S
Eu601 O616 2.349 1_565 S
Eu601 O619 2.392 . S
Eu601 O620 2.418 . S
Eu601 C630 2.828 1_565 S
C602 O620 1.244 . S
C602 O623 1.265 1_565 S
C603 C604 1.379 1_545 S
C603 C607 1.373 . S
C603 C609 1.505 . S
C604 C603 1.379 1_565 S
C604 C606 1.369 . S
C604 H632 0.930 . S
C605 C607 1.383 . S
C605 C608 1.382 1_545 S
C605 H633 0.930 . S
C606 C604 1.369 . S
C606 C608 1.392 . S
C606 H634 0.930 . S
C607 C603 1.373 . S
C607 C605 1.383 . S
C607 H635 0.931 . S
C608 C605 1.382 1_565 S
C608 C606 1.392 . S
C609 Eu600 2.828 . S
C609 C603 1.505 . S
C609 O621 1.249 . S
C609 O622 1.244 . S
O610 Eu601 2.373 1_545 S
O610 C612 1.258 . S
O611 Eu600 2.392 . S
O611 C612 1.242 . S
C612 O610 1.258 . S
C612 O611 1.242 . S
O613 Eu600 2.418 . S
O613 C617 1.244 . S
O614 Eu601 2.488 1_545 S
O614 C630 1.249 . S
O615 Eu601 2.471 1_545 S
O615 C630 1.244 . S
O616 Eu601 2.349 1_545 S
O616 C617 1.265 . S
C617 O613 1.244 . S
C617 O616 1.265 . S
O618 Eu600 2.373 1_565 S
O618 C631 1.258 . S
O619 Eu601 2.392 . S
O619 C631 1.242 . S
O620 Eu601 2.418 . S
O620 C602 1.244 . S
O621 Eu600 2.488 . S
O621 C609 1.249 . S
O622 Eu600 2.471 . S
O622 C609 1.244 . S
O623 Eu600 2.349 . S
O623 C602 1.265 1_545 S
C624 C625 1.379 . S
C624 C628 1.373 . S
C624 C630 1.505 . S
C625 C624 1.379 . S
C625 C627 1.369 . S
C625 H636 0.930 . S
C626 C628 1.383 . S
C626 C629 1.382 . S
C626 H637 0.930 . S
C627 C625 1.369 . S
C627 C629 1.392 . S
C627 H638 0.930 . S
C628 C624 1.373 . S
C628 C626 1.383 . S
C628 H639 0.931 . S
C629 C626 1.382 . S
C629 C627 1.392 . S
C630 Eu601 2.828 1_545 S
C630 O614 1.249 . S
C630 O615 1.244 . S
C630 C624 1.505 . S
C631 O618 1.258 . S
C631 O619 1.242 . S
H632 C604 0.930 . S
H633 C605 0.930 . S
H634 C606 0.930 . S
H635 C607 0.931 . S
H636 C625 0.930 . S
H637 C626 0.930 . S
H638 C627 0.930 . S
H639 C628 0.931 . S
C640 C641 1.363 . S
C640 C646 1.379 . S
C640 N648 1.356 . S
C641 C640 1.363 . S
C641 C647 1.363 . S
C642 C643 1.363 . S
C642 C647 1.379 . S
C642 N649 1.356 . S
C643 C642 1.363 . S
C643 C646 1.363 . S
N644 C646 1.356 . S
N644 H656 0.984 . S
N644 H657 0.985 . S
N645 C647 1.356 . S
N645 H650 0.984 . S
N645 H651 0.985 . S
C646 C640 1.379 . S
C646 C643 1.363 . S
C646 N644 1.356 . S
C647 C641 1.363 . S
C647 C642 1.379 . S
C647 N645 1.356 . S
N648 C640 1.356 . S
N648 H654 0.984 . S
N648 H655 0.984 . S
N649 C642 1.356 . S
N649 H652 0.984 . S
N649 H653 0.985 . S
H650 N645 0.984 . S
H651 N645 0.985 . S
H652 N649 0.984 . S
H653 N649 0.985 . S
H654 N648 0.984 . S
H655 N648 0.984 . S
H656 N644 0.984 . S
H657 N644 0.985 . S
C658 C659 1.363 . S
C658 C664 1.379 . S
C658 N666 1.356 . S
C659 C658 1.363 . S
C659 C665 1.363 . S
C660 C661 1.363 . S
C660 C665 1.379 . S
C660 N667 1.356 . S
C661 C660 1.363 . S
C661 C664 1.363 . S
N662 C664 1.356 . S
N662 H674 0.984 . S
N662 H675 0.985 . S
N663 C665 1.356 . S
N663 H668 0.984 . S
N663 H669 0.985 . S
C664 C658 1.379 . S
C664 C661 1.363 . S
C664 N662 1.356 . S
C665 C659 1.363 . S
C665 C660 1.379 . S
C665 N663 1.356 . S
N666 C658 1.356 . S
N666 H672 0.984 . S
N666 H673 0.984 . S
N667 C660 1.356 . S
N667 H670 0.984 . S
N667 H671 0.985 . S
H668 N663 0.984 . S
H669 N663 0.985 . S
H670 N667 0.984 . S
H671 N667 0.985 . S
H672 N666 0.984 . S
H673 N666 0.984 . S
H674 N662 0.984 . S
H675 N662 0.985 . S
C676 C677 1.363 . S
C676 C682 1.379 . S
C676 N684 1.356 . S
C677 C676 1.363 . S
C677 C683 1.363 . S
C678 C679 1.363 . S
C678 C683 1.379 . S
C678 N685 1.356 . S
C679 C678 1.363 . S
C679 C682 1.363 . S
N680 C682 1.356 . S
N680 H692 0.984 . S
N680 H693 0.985 . S
N681 C683 1.356 . S
N681 H686 0.984 . S
N681 H687 0.985 . S
C682 C676 1.379 . S
C682 C679 1.363 . S
C682 N680 1.356 . S
C683 C677 1.363 . S
C683 C678 1.379 . S
C683 N681 1.356 . S
N684 C676 1.356 . S
N684 H690 0.984 . S
N684 H691 0.984 . S
N685 C678 1.356 . S
N685 H688 0.984 . S
N685 H689 0.985 . S
H686 N681 0.984 . S
H687 N681 0.985 . S
H688 N685 0.984 . S
H689 N685 0.985 . S
H690 N684 0.984 . S
H691 N684 0.984 . S
H692 N680 0.984 . S
H693 N680 0.985 . S
C694 C695 1.363 1_655 S
C694 C700 1.379 . S
C694 N702 1.356 . S
C695 C694 1.363 1_455 S
C695 C701 1.363 1_554 S
C696 C697 1.363 1_455 S
C696 C701 1.379 . S
C696 N703 1.356 . S
C697 C696 1.363 1_655 S
C697 C700 1.363 1_556 S
N698 C700 1.356 . S
N698 H710 0.984 . S
N698 H711 0.985 . S
N699 C701 1.356 . S
N699 H704 0.984 . S
N699 H705 0.985 . S
C700 C694 1.379 . S
C700 C697 1.363 1_554 S
C700 N698 1.356 . S
C701 C695 1.363 1_556 S
C701 C696 1.379 . S
C701 N699 1.356 . S
N702 C694 1.356 . S
N702 H708 0.984 . S
N702 H709 0.984 . S
N703 C696 1.356 . S
N703 H706 0.984 . S
N703 H707 0.985 . S
H704 N699 0.984 . S
H705 N699 0.985 . S
H706 N703 0.984 . S
H707 N703 0.985 . S
H708 N702 0.984 . S
H709 N702 0.984 . S
H710 N698 0.984 . S
H711 N698 0.985 . S
C712 C713 1.363 . S
C712 C718 1.379 . S
C712 N720 1.356 . S
C713 C712 1.363 . S
C713 C719 1.363 . S
C714 C715 1.363 . S
C714 C719 1.379 . S
C714 N721 1.356 . S
C715 C714 1.363 . S
C715 C718 1.363 . S
N716 C718 1.356 . S
N716 H728 0.984 . S
N716 H729 0.985 . S
N717 C719 1.356 . S
N717 H722 0.984 . S
N717 H723 0.985 . S
C718 C712 1.379 . S
C718 C715 1.363 . S
C718 N716 1.356 . S
C719 C713 1.363 . S
C719 C714 1.379 . S
C719 N717 1.356 . S
N720 C712 1.356 . S
N720 H726 0.984 . S
N720 H727 0.984 . S
N721 C714 1.356 . S
N721 H724 0.984 . S
N721 H725 0.985 . S
H722 N717 0.984 . S
H723 N717 0.985 . S
H724 N721 0.984 . S
H725 N721 0.985 . S
H726 N720 0.984 . S
H727 N720 0.984 . S
H728 N716 0.984 . S
H729 N716 0.985 . S
C730 C731 1.363 . S
C730 C736 1.379 . S
C730 N738 1.356 . S
C731 C730 1.363 . S
C731 C737 1.363 . S
C732 C733 1.363 . S
C732 C737 1.379 . S
C732 N739 1.356 . S
C733 C732 1.363 . S
C733 C736 1.363 . S
N734 C736 1.356 . S
N734 H746 0.984 . S
N734 H747 0.985 . S
N735 C737 1.356 . S
N735 H740 0.984 . S
N735 H741 0.985 . S
C736 C730 1.379 . S
C736 C733 1.363 . S
C736 N734 1.356 . S
C737 C731 1.363 . S
C737 C732 1.379 . S
C737 N735 1.356 . S
N738 C730 1.356 . S
N738 H744 0.984 . S
N738 H745 0.984 . S
N739 C732 1.356 . S
N739 H742 0.984 . S
N739 H743 0.985 . S
H740 N735 0.984 . S
H741 N735 0.985 . S
H742 N739 0.984 . S
H743 N739 0.985 . S
H744 N738 0.984 . S
H745 N738 0.984 . S
H746 N734 0.984 . S
H747 N734 0.985 . S
C748 C749 1.363 . S
C748 C754 1.379 1_565 S
C748 N756 1.356 . S
C749 C748 1.363 . S
C749 C755 1.363 1_456 S
C750 C751 1.363 . S
C750 C755 1.379 1_545 S
C750 N757 1.356 . S
C751 C750 1.363 . S
C751 C754 1.363 1_654 S
N752 C754 1.356 . S
N752 H764 0.984 . S
N752 H765 0.985 . S
N753 C755 1.356 . S
N753 H758 0.984 . S
N753 H759 0.985 . S
C754 C748 1.379 1_545 S
C754 C751 1.363 1_456 S
C754 N752 1.356 . S
C755 C749 1.363 1_654 S
C755 C750 1.379 1_565 S
C755 N753 1.356 . S
N756 C748 1.356 . S
N756 H762 0.984 . S
N756 H763 0.984 . S
N757 C750 1.356 . S
N757 H760 0.984 . S
N757 H761 0.985 . S
H758 N753 0.984 . S
H759 N753 0.985 . S
H760 N757 0.984 . S
H761 N757 0.985 . S
H762 N756 0.984 . S
H763 N756 0.984 . S
H764 N752 0.984 . S
H765 N752 0.985 . S
C766 C767 1.363 . S
C766 C772 1.379 1_565 S
C766 N774 1.356 . S
C767 C766 1.363 . S
C767 C773 1.363 . S
C768 C769 1.363 . S
C768 C773 1.379 1_545 S
C768 N775 1.356 . S
C769 C768 1.363 . S
C769 C772 1.363 . S
N770 C772 1.356 . S
N770 H782 0.984 . S
N770 H783 0.985 . S
N771 C773 1.356 . S
N771 H776 0.984 . S
N771 H777 0.985 . S
C772 C766 1.379 1_545 S
C772 C769 1.363 . S
C772 N770 1.356 . S
C773 C767 1.363 . S
C773 C768 1.379 1_565 S
C773 N771 1.356 . S
N774 C766 1.356 . S
N774 H780 0.984 . S
N774 H781 0.984 . S
N775 C768 1.356 . S
N775 H778 0.984 . S
N775 H779 0.985 . S
H776 N771 0.984 . S
H777 N771 0.985 . S
H778 N775 0.984 . S
H779 N775 0.985 . S
H780 N774 0.984 . S
H781 N774 0.984 . S
H782 N770 0.984 . S
H783 N770 0.985 . S
C784 C785 1.363 1_565 S
C784 C790 1.379 . S
C784 N792 1.356 . S
C785 C784 1.363 1_545 S
C785 C791 1.363 . S
C786 C787 1.345 1_545 S
C786 C791 1.379 . S
C786 N793 1.356 . S
C787 C786 1.345 1_565 S
C787 C790 1.373 . S
N788 C790 1.356 . S
N788 H800 0.984 . S
N788 H801 0.985 . S
N789 C791 1.356 . S
N789 H794 0.984 . S
N789 H795 0.985 . S
C790 C784 1.379 . S
C790 C787 1.373 . S
C790 N788 1.356 . S
C791 C785 1.363 . S
C791 C786 1.379 . S
C791 N789 1.356 . S
N792 C784 1.356 . S
N792 H798 0.984 . S
N792 H799 0.977 1_565 S
N793 C786 1.356 . S
N793 H796 1.019 . S
N793 H797 0.985 . S
H794 N789 0.984 . S
H795 N789 0.985 . S
H796 N793 1.019 . S
H797 N793 0.985 . S
H798 N792 0.984 . S
H799 N792 0.977 1_545 S
H800 N788 0.984 . S
H801 N788 0.985 . S
C802 C803 1.363 . S
C802 C808 1.379 . S
C802 N810 1.356 . S
C803 C802 1.363 . S
C803 C809 1.363 . S
C804 C805 1.363 . S
C804 C809 1.379 . S
C804 N811 1.356 . S
C805 C804 1.363 . S
C805 C808 1.363 . S
N806 C808 1.356 . S
N806 H818 0.984 . S
N806 H819 0.985 . S
N807 C809 1.356 . S
N807 H812 0.984 . S
N807 H813 0.985 . S
C808 C802 1.379 . S
C808 C805 1.363 . S
C808 N806 1.356 . S
C809 C803 1.363 . S
C809 C804 1.379 . S
C809 N807 1.356 . S
N810 C802 1.356 . S
N810 H816 0.984 . S
N810 H817 0.984 . S
N811 C804 1.356 . S
N811 H814 0.984 . S
N811 H815 0.985 . S
H812 N807 0.984 . S
H813 N807 0.985 . S
H814 N811 0.984 . S
H815 N811 0.985 . S
H816 N810 0.984 . S
H817 N810 0.984 . S
H818 N806 0.984 . S
H819 N806 0.985 . S
C820 C821 1.372 . S
C820 C826 1.379 . S
C820 N828 1.356 . S
C821 C820 1.372 . S
C821 C827 1.347 1_545 S
C822 C823 1.363 . S
C822 C827 1.379 . S
C822 N829 1.356 . S
C823 C822 1.363 . S
C823 C826 1.363 1_565 S
N824 C826 1.356 . S
N824 H836 0.984 . S
N824 H837 0.985 1_545 S
N825 C827 1.356 . S
N825 H830 0.984 . S
N825 H831 0.985 . S
C826 C820 1.379 . S
C826 C823 1.363 1_545 S
C826 N824 1.356 . S
C827 C821 1.347 1_565 S
C827 C822 1.379 . S
C827 N825 1.356 . S
N828 C820 1.356 . S
N828 H834 0.984 . S
N828 H835 0.984 . S
N829 C822 1.356 . S
N829 H832 0.984 . S
N829 H833 0.985 . S
H830 N825 0.984 . S
H831 N825 0.985 . S
H832 N829 0.984 . S
H833 N829 0.985 . S
H834 N828 0.984 . S
H835 N828 0.984 . S
H836 N824 0.984 . S
H837 N824 0.985 1_565 S
C838 C839 1.363 . S
C838 C844 1.379 . S
C838 N846 1.356 . S
C839 C838 1.363 . S
C839 C845 1.363 . S
C840 C841 1.363 . S
C840 C845 1.379 . S
C840 N847 1.356 . S
C841 C840 1.363 . S
C841 C844 1.363 . S
N842 C844 1.356 . S
N842 H854 0.984 . S
N842 H855 0.985 . S
N843 C845 1.356 . S
N843 H848 0.984 . S
N843 H849 0.985 . S
C844 C838 1.379 . S
C844 C841 1.363 . S
C844 N842 1.356 . S
C845 C839 1.363 . S
C845 C840 1.379 . S
C845 N843 1.356 . S
N846 C838 1.356 . S
N846 H852 0.984 . S
N846 H853 0.984 . S
N847 C840 1.356 . S
N847 H850 0.984 . S
N847 H851 0.985 . S
H848 N843 0.984 . S
H849 N843 0.985 . S
H850 N847 0.984 . S
H851 N847 0.985 . S
H852 N846 0.984 . S
H853 N846 0.984 . S
H854 N842 0.984 . S
H855 N842 0.985 . S
C856 C857 1.363 . S
C856 C862 1.379 1_565 S
C856 N864 1.356 . S
C857 C856 1.363 . S
C857 C863 1.363 . S
C858 C859 1.351 1_565 S
C858 C863 1.379 . S
C858 N865 1.356 . S
C859 C858 1.351 1_545 S
C859 C862 1.368 . S
N860 C862 1.356 . S
N860 H872 0.984 . S
N860 H873 0.985 . S
N861 C863 1.356 . S
N861 H866 0.984 . S
N861 H867 0.985 . S
C862 C856 1.379 1_545 S
C862 C859 1.368 . S
C862 N860 1.356 . S
C863 C857 1.363 . S
C863 C858 1.379 . S
C863 N861 1.356 . S
N864 C856 1.356 . S
N864 H870 0.984 1_565 S
N864 H871 0.984 . S
N865 C858 1.356 . S
N865 H868 0.984 . S
N865 H869 0.985 . S
H866 N861 0.984 . S
H867 N861 0.985 . S
H868 N865 0.984 . S
H869 N865 0.985 . S
H870 N864 0.984 1_545 S
H871 N864 0.984 . S
H872 N860 0.984 . S
H873 N860 0.985 . S
C874 C875 1.363 . S
C874 C880 1.379 . S
C874 N882 1.356 . S
C875 C874 1.363 . S
C875 C881 1.363 . S
C876 C877 1.363 . S
C876 C881 1.379 . S
C876 N883 1.356 . S
C877 C876 1.363 . S
C877 C880 1.363 . S
N878 C880 1.356 . S
N878 H890 0.984 . S
N878 H891 0.985 . S
N879 C881 1.356 . S
N879 H884 0.984 . S
N879 H885 0.985 . S
C880 C874 1.379 . S
C880 C877 1.363 . S
C880 N878 1.356 . S
C881 C875 1.363 . S
C881 C876 1.379 . S
C881 N879 1.356 . S
N882 C874 1.356 . S
N882 H888 0.984 . S
N882 H889 0.984 . S
N883 C876 1.356 . S
N883 H886 0.984 . S
N883 H887 0.985 . S
H884 N879 0.984 . S
H885 N879 0.985 . S
H886 N883 0.984 . S
H887 N883 0.985 . S
H888 N882 0.984 . S
H889 N882 0.984 . S
H890 N878 0.984 . S
H891 N878 0.985 . S
C892 C893 1.368 . S
C892 C898 1.379 1_565 S
C892 N900 1.356 . S
C893 C892 1.368 . S
C893 C899 1.351 1_565 S
C894 C895 1.363 . S
C894 C899 1.379 . S
C894 N901 1.356 . S
C895 C894 1.363 . S
C895 C898 1.363 . S
N896 C898 1.356 . S
N896 H908 0.984 1_545 S
N896 H909 0.985 . S
N897 C899 1.356 . S
N897 H902 0.984 . S
N897 H903 0.985 . S
C898 C892 1.379 1_545 S
C898 C895 1.363 . S
C898 N896 1.356 . S
C899 C893 1.351 1_545 S
C899 C894 1.379 . S
C899 N897 1.356 . S
N900 C892 1.356 . S
N900 H906 0.984 . S
N900 H907 0.984 . S
N901 C894 1.356 . S
N901 H904 0.984 . S
N901 H905 0.985 . S
H902 N897 0.984 . S
H903 N897 0.985 . S
H904 N901 0.984 . S
H905 N901 0.985 . S
H906 N900 0.984 . S
H907 N900 0.984 . S
H908 N896 0.984 1_565 S
H909 N896 0.985 . S
C910 C911 1.363 . S
C910 C916 1.379 . S
C910 N918 1.356 . S
C911 C910 1.363 . S
C911 C917 1.363 . S
C912 C913 1.363 . S
C912 C917 1.379 . S
C912 N919 1.356 . S
C913 C912 1.363 . S
C913 C916 1.363 . S
N914 C916 1.356 . S
N914 H926 0.984 . S
N914 H927 0.985 . S
N915 C917 1.356 . S
N915 H920 0.984 . S
N915 H921 0.985 . S
C916 C910 1.379 . S
C916 C913 1.363 . S
C916 N914 1.356 . S
C917 C911 1.363 . S
C917 C912 1.379 . S
C917 N915 1.356 . S
N918 C910 1.356 . S
N918 H924 0.984 . S
N918 H925 0.984 . S
N919 C912 1.356 . S
N919 H922 0.984 . S
N919 H923 0.985 . S
H920 N915 0.984 . S
H921 N915 0.985 . S
H922 N919 0.984 . S
H923 N919 0.985 . S
H924 N918 0.984 . S
H925 N918 0.984 . S
H926 N914 0.984 . S
H927 N914 0.985 . S
C928 C929 1.363 . S
C928 C934 1.379 . S
C928 N936 1.356 . S
C929 C928 1.363 . S
C929 C935 1.363 . S
C930 C931 1.363 . S
C930 C935 1.379 . S
C930 N937 1.356 . S
C931 C930 1.363 . S
C931 C934 1.363 . S
N932 C934 1.356 . S
N932 H944 0.984 . S
N932 H945 0.985 . S
N933 C935 1.356 . S
N933 H938 0.984 . S
N933 H939 0.985 . S
C934 C928 1.379 . S
C934 C931 1.363 . S
C934 N932 1.356 . S
C935 C929 1.363 . S
C935 C930 1.379 . S
C935 N933 1.356 . S
N936 C928 1.356 . S
N936 H942 0.984 . S
N936 H943 0.984 . S
N937 C930 1.356 . S
N937 H940 0.984 . S
N937 H941 0.985 . S
H938 N933 0.984 . S
H939 N933 0.985 . S
H940 N937 0.984 . S
H941 N937 0.985 . S
H942 N936 0.984 . S
H943 N936 0.984 . S
H944 N932 0.984 . S
H945 N932 0.985 . S
C946 C947 1.363 . S
C946 C952 1.379 . S
C946 N954 1.356 . S
C947 C946 1.363 . S
C947 C953 1.363 . S
C948 C949 1.363 . S
C948 C953 1.379 . S
C948 N955 1.356 1_565 S
C949 C948 1.363 . S
C949 C952 1.363 . S
N950 C952 1.356 . S
N950 H962 0.984 . S
N950 H963 0.985 . S
N951 C953 1.356 1_545 S
N951 H956 0.984 . S
N951 H957 0.985 . S
C952 C946 1.379 . S
C952 C949 1.363 . S
C952 N950 1.356 . S
C953 C947 1.363 . S
C953 C948 1.379 . S
C953 N951 1.356 1_565 S
N954 C946 1.356 . S
N954 H960 0.984 . S
N954 H961 0.984 . S
N955 C948 1.356 1_545 S
N955 H958 0.984 . S
N955 H959 0.985 . S
H956 N951 0.984 . S
H957 N951 0.985 . S
H958 N955 0.984 . S
H959 N955 0.985 . S
H960 N954 0.984 . S
H961 N954 0.984 . S
H962 N950 0.984 . S
H963 N950 0.985 . S
C964 C965 1.363 . S
C964 C970 1.379 . S
C964 N972 1.356 . S
C965 C964 1.363 . S
C965 C971 1.363 . S
C966 C967 1.363 . S
C966 C971 1.379 . S
C966 N973 1.356 . S
C967 C966 1.363 . S
C967 C970 1.363 . S
N968 C970 1.356 . S
N968 H980 0.984 . S
N968 H981 0.985 . S
N969 C971 1.356 . S
N969 H974 0.984 . S
N969 H975 0.985 . S
C970 C964 1.379 . S
C970 C967 1.363 . S
C970 N968 1.356 . S
C971 C965 1.363 . S
C971 C966 1.379 . S
C971 N969 1.356 . S
N972 C964 1.356 . S
N972 H978 0.984 . S
N972 H979 0.984 . S
N973 C966 1.356 . S
N973 H976 0.984 . S
N973 H977 0.985 . S
H974 N969 0.984 . S
H975 N969 0.985 . S
H976 N973 0.984 . S
H977 N973 0.985 . S
H978 N972 0.984 . S
H979 N972 0.984 . S
H980 N968 0.984 . S
H981 N968 0.985 . S
C982 C983 1.363 . S
C982 C988 1.379 . S
C982 N990 1.356 . S
C983 C982 1.363 . S
C983 C989 1.363 . S
C984 C985 1.363 . S
C984 C989 1.379 . S
C984 N991 1.356 1_545 S
C985 C984 1.363 . S
C985 C988 1.363 . S
N986 C988 1.356 . S
N986 H998 0.984 . S
N986 H999 0.985 . S
N987 C989 1.356 1_565 S
N987 H992 0.984 . S
N987 H993 0.985 . S
C988 C982 1.379 . S
C988 C985 1.363 . S
C988 N986 1.356 . S
C989 C983 1.363 . S
C989 C984 1.379 . S
C989 N987 1.356 1_545 S
N990 C982 1.356 . S
N990 H996 0.984 . S
N990 H997 0.984 . S
N991 C984 1.356 1_565 S
N991 H994 0.984 . S
N991 H995 0.985 . S
H992 N987 0.984 . S
H993 N987 0.985 . S
H994 N991 0.984 . S
H995 N991 0.985 . S
H996 N990 0.984 . S
H997 N990 0.984 . S
H998 N986 0.984 . S
H999 N986 0.985 . S
C1000 C1001 1.363 . S
C1000 C1006 1.379 . S
C1000 N1008 1.356 . S
C1001 C1000 1.363 . S
C1001 C1007 1.363 . S
C1002 C1003 1.363 . S
C1002 C1007 1.379 . S
C1002 N1009 1.356 . S
C1003 C1002 1.363 . S
C1003 C1006 1.363 . S
N1004 C1006 1.356 . S
N1004 H1016 0.984 . S
N1004 H1017 0.985 . S
N1005 C1007 1.356 . S
N1005 H1010 0.984 . S
N1005 H1011 0.985 . S
C1006 C1000 1.379 . S
C1006 C1003 1.363 . S
C1006 N1004 1.356 . S
C1007 C1001 1.363 . S
C1007 C1002 1.379 . S
C1007 N1005 1.356 . S
N1008 C1000 1.356 . S
N1008 H1014 0.984 . S
N1008 H1015 0.984 . S
N1009 C1002 1.356 . S
N1009 H1012 0.984 . S
N1009 H1013 0.985 . S
H1010 N1005 0.984 . S
H1011 N1005 0.985 . S
H1012 N1009 0.984 . S
H1013 N1009 0.985 . S
H1014 N1008 0.984 . S
H1015 N1008 0.984 . S
H1016 N1004 0.984 . S
H1017 N1004 0.985 . S
C1018 C1019 1.363 . S
C1018 C1024 1.379 . S
C1018 N1026 1.356 1_545 S
C1019 C1018 1.363 . S
C1019 C1025 1.363 . S
C1020 C1021 1.363 . S
C1020 C1025 1.379 . S
C1020 N1027 1.356 . S
C1021 C1020 1.363 . S
C1021 C1024 1.363 . S
N1022 C1024 1.356 1_565 S
N1022 H1034 0.984 . S
N1022 H1035 0.985 . S
N1023 C1025 1.356 . S
N1023 H1028 0.984 . S
N1023 H1029 0.985 . S
C1024 C1018 1.379 . S
C1024 C1021 1.363 . S
C1024 N1022 1.356 1_545 S
C1025 C1019 1.363 . S
C1025 C1020 1.379 . S
C1025 N1023 1.356 . S
N1026 C1018 1.356 1_565 S
N1026 H1032 0.984 . S
N1026 H1033 0.984 . S
N1027 C1020 1.356 . S
N1027 H1030 0.984 . S
N1027 H1031 0.985 . S
H1028 N1023 0.984 . S
H1029 N1023 0.985 . S
H1030 N1027 0.984 . S
H1031 N1027 0.985 . S
H1032 N1026 0.984 . S
H1033 N1026 0.984 . S
H1034 N1022 0.984 . S
H1035 N1022 0.985 . S
C1036 C1037 1.363 . S
C1036 C1042 1.379 . S
C1036 N1044 1.356 . S
C1037 C1036 1.363 . S
C1037 C1043 1.363 . S
C1038 C1039 1.363 . S
C1038 C1043 1.379 . S
C1038 N1045 1.356 . S
C1039 C1038 1.363 . S
C1039 C1042 1.363 . S
N1040 C1042 1.356 . S
N1040 H1052 0.984 . S
N1040 H1053 0.985 . S
N1041 C1043 1.356 . S
N1041 H1046 0.984 . S
N1041 H1047 0.985 . S
C1042 C1036 1.379 . S
C1042 C1039 1.363 . S
C1042 N1040 1.356 . S
C1043 C1037 1.363 . S
C1043 C1038 1.379 . S
C1043 N1041 1.356 . S
N1044 C1036 1.356 . S
N1044 H1050 0.984 . S
N1044 H1051 0.984 . S
N1045 C1038 1.356 . S
N1045 H1048 1.024 . S
N1045 H1049 0.985 . S
H1046 N1041 0.984 . S
H1047 N1041 0.985 . S
H1048 N1045 1.024 . S
H1049 N1045 0.985 . S
H1050 N1044 0.984 . S
H1051 N1044 0.984 . S
H1052 N1040 0.984 . S
H1053 N1040 0.985 . S
C1054 C1055 1.363 . S
C1054 C1060 1.379 . S
C1054 N1062 1.356 1_565 S
C1055 C1054 1.363 . S
C1055 C1061 1.363 . S
C1056 C1057 1.363 . S
C1056 C1061 1.379 . S
C1056 N1063 1.356 . S
C1057 C1056 1.363 . S
C1057 C1060 1.363 . S
N1058 C1060 1.356 1_545 S
N1058 H1070 0.984 . S
N1058 H1071 0.985 . S
N1059 C1061 1.356 . S
N1059 H1064 0.984 . S
N1059 H1065 0.985 . S
C1060 C1054 1.379 . S
C1060 C1057 1.363 . S
C1060 N1058 1.356 1_565 S
C1061 C1055 1.363 . S
C1061 C1056 1.379 . S
C1061 N1059 1.356 . S
N1062 C1054 1.356 1_545 S
N1062 H1068 0.984 . S
N1062 H1069 0.984 . S
N1063 C1056 1.356 . S
N1063 H1066 0.984 . S
N1063 H1067 0.985 . S
H1064 N1059 0.984 . S
H1065 N1059 0.985 . S
H1066 N1063 0.984 . S
H1067 N1063 0.985 . S
H1068 N1062 0.984 . S
H1069 N1062 0.984 . S
H1070 N1058 0.984 . S
H1071 N1058 0.985 . S
C1072 C1073 1.363 . S
C1072 C1078 1.379 . S
C1072 N1080 1.356 . S
C1073 C1072 1.363 . S
C1073 C1079 1.363 . S
C1074 C1075 1.363 . S
C1074 C1079 1.379 . S
C1074 N1081 1.356 . S
C1075 C1074 1.363 . S
C1075 C1078 1.363 . S
N1076 C1078 1.356 . S
N1076 H1088 0.984 . S
N1076 H1089 0.985 . S
N1077 C1079 1.356 . S
N1077 H1082 0.984 . S
N1077 H1083 0.985 . S
C1078 C1072 1.379 . S
C1078 C1075 1.363 . S
C1078 N1076 1.356 . S
C1079 C1073 1.363 . S
C1079 C1074 1.379 . S
C1079 N1077 1.356 . S
N1080 C1072 1.356 . S
N1080 H1086 0.984 . S
N1080 H1087 0.984 . S
N1081 C1074 1.356 . S
N1081 H1084 0.984 . S
N1081 H1085 0.985 . S
H1082 N1077 0.984 . S
H1083 N1077 0.985 . S
H1084 N1081 0.984 . S
H1085 N1081 0.985 . S
H1086 N1080 0.984 . S
H1087 N1080 0.984 . S
H1088 N1076 0.984 . S
H1089 N1076 0.985 . S
C1090 C1091 1.363 . S
C1090 C1096 1.379 . S
C1090 N1098 1.356 . S
C1091 C1090 1.363 . S
C1091 C1097 1.363 . S
C1092 C1093 1.363 . S
C1092 C1097 1.379 . S
C1092 N1099 1.356 . S
C1093 C1092 1.363 . S
C1093 C1096 1.363 . S
N1094 C1096 1.356 . S
N1094 H1106 0.984 . S
N1094 H1107 0.985 . S
N1095 C1097 1.356 . S
N1095 H1100 0.984 . S
N1095 H1101 0.985 . S
C1096 C1090 1.379 . S
C1096 C1093 1.363 . S
C1096 N1094 1.356 . S
C1097 C1091 1.363 . S
C1097 C1092 1.379 . S
C1097 N1095 1.356 . S
N1098 C1090 1.356 . S
N1098 H1104 0.984 . S
N1098 H1105 0.984 . S
N1099 C1092 1.356 . S
N1099 H1102 0.984 . S
N1099 H1103 0.985 . S
H1100 N1095 0.984 . S
H1101 N1095 0.985 . S
H1102 N1099 0.984 . S
H1103 N1099 0.985 . S
H1104 N1098 0.984 . S
H1105 N1098 0.984 . S
H1106 N1094 0.984 . S
H1107 N1094 0.985 . S
C1108 C1109 1.363 . S
C1108 C1114 1.379 1_655 S
C1108 N1116 1.356 . S
C1109 C1108 1.363 . S
C1109 C1115 1.363 . S
C1110 C1111 1.363 . S
C1110 C1115 1.379 1_455 S
C1110 N1117 1.356 . S
C1111 C1110 1.363 . S
C1111 C1114 1.363 . S
N1112 C1114 1.356 . S
N1112 H1124 0.984 . S
N1112 H1125 0.985 . S
N1113 C1115 1.356 . S
N1113 H1118 0.984 . S
N1113 H1119 0.985 . S
C1114 C1108 1.379 1_455 S
C1114 C1111 1.363 . S
C1114 N1112 1.356 . S
C1115 C1109 1.363 . S
C1115 C1110 1.379 1_655 S
C1115 N1113 1.356 . S
N1116 C1108 1.356 . S
N1116 H1122 0.984 . S
N1116 H1123 0.984 . S
N1117 C1110 1.356 . S
N1117 H1120 0.984 . S
N1117 H1121 0.985 . S
H1118 N1113 0.984 . S
H1119 N1113 0.985 . S
H1120 N1117 0.984 . S
H1121 N1117 0.985 . S
H1122 N1116 0.984 . S
H1123 N1116 0.984 . S
H1124 N1112 0.984 . S
H1125 N1112 0.985 . S
C1126 C1127 1.363 . S
C1126 C1132 1.379 . S
C1126 N1134 1.356 . S
C1127 C1126 1.363 . S
C1127 C1133 1.363 1_655 S
C1128 C1129 1.363 . S
C1128 C1133 1.379 . S
C1128 N1135 1.356 . S
C1129 C1128 1.363 . S
C1129 C1132 1.363 1_455 S
N1130 C1132 1.356 . S
N1130 H1142 0.984 . S
N1130 H1143 0.985 1_655 S
N1131 C1133 1.356 . S
N1131 H1136 0.984 1_455 S
N1131 H1137 0.985 . S
C1132 C1126 1.379 . S
C1132 C1129 1.363 1_655 S
C1132 N1130 1.356 . S
C1133 C1127 1.363 1_455 S
C1133 C1128 1.379 . S
C1133 N1131 1.356 . S
N1134 C1126 1.356 . S
N1134 H1140 0.984 . S
N1134 H1141 0.984 . S
N1135 C1128 1.356 . S
N1135 H1138 0.984 . S
N1135 H1139 0.985 . S
H1136 N1131 0.984 1_655 S
H1137 N1131 0.985 . S
H1138 N1135 0.984 . S
H1139 N1135 0.985 . S
H1140 N1134 0.984 . S
H1141 N1134 0.984 . S
H1142 N1130 0.984 . S
H1143 N1130 0.985 1_455 S
C1144 C1145 1.363 . S
C1144 C1150 1.379 . S
C1144 N1152 1.356 . S
C1145 C1144 1.363 . S
C1145 C1151 1.363 . S
C1146 C1147 1.363 . S
C1146 C1151 1.379 . S
C1146 N1153 1.356 . S
C1147 C1146 1.363 . S
C1147 C1150 1.363 . S
N1148 C1150 1.356 . S
N1148 H1160 0.984 . S
N1148 H1161 0.985 . S
N1149 C1151 1.356 . S
N1149 H1154 0.984 . S
N1149 H1155 0.985 . S
C1150 C1144 1.379 . S
C1150 C1147 1.363 . S
C1150 N1148 1.356 . S
C1151 C1145 1.363 . S
C1151 C1146 1.379 . S
C1151 N1149 1.356 . S
N1152 C1144 1.356 . S
N1152 H1158 0.984 . S
N1152 H1159 0.984 . S
N1153 C1146 1.356 . S
N1153 H1156 0.984 . S
N1153 H1157 0.985 . S
H1154 N1149 0.984 . S
H1155 N1149 0.985 . S
H1156 N1153 0.984 . S
H1157 N1153 0.985 . S
H1158 N1152 0.984 . S
H1159 N1152 0.984 . S
H1160 N1148 0.984 . S
H1161 N1148 0.985 . S
C1162 C1163 1.363 . S
C1162 C1168 1.379 . S
C1162 N1170 1.356 . S
C1163 C1162 1.363 . S
C1163 C1169 1.363 . S
C1164 C1165 1.363 . S
C1164 C1169 1.379 . S
C1164 N1171 1.356 . S
C1165 C1164 1.363 . S
C1165 C1168 1.363 . S
N1166 C1168 1.356 . S
N1166 H1178 0.984 . S
N1166 H1179 0.985 . S
N1167 C1169 1.356 . S
N1167 H1172 0.984 . S
N1167 H1173 0.985 . S
C1168 C1162 1.379 . S
C1168 C1165 1.363 . S
C1168 N1166 1.356 . S
C1169 C1163 1.363 . S
C1169 C1164 1.379 . S
C1169 N1167 1.356 . S
N1170 C1162 1.356 . S
N1170 H1176 0.984 . S
N1170 H1177 0.984 . S
N1171 C1164 1.356 . S
N1171 H1174 0.984 . S
N1171 H1175 0.985 . S
H1172 N1167 0.984 . S
H1173 N1167 0.985 . S
H1174 N1171 0.984 . S
H1175 N1171 0.985 . S
H1176 N1170 0.984 . S
H1177 N1170 0.984 . S
H1178 N1166 0.984 . S
H1179 N1166 0.985 . S
C1180 C1181 1.363 . S
C1180 C1186 1.379 1_455 S
C1180 N1188 1.356 . S
C1181 C1180 1.363 . S
C1181 C1187 1.363 . S
C1182 C1183 1.363 . S
C1182 C1187 1.379 1_655 S
C1182 N1189 1.356 . S
C1183 C1182 1.363 . S
C1183 C1186 1.363 . S
N1184 C1186 1.356 . S
N1184 H1196 0.984 . S
N1184 H1197 0.985 . S
N1185 C1187 1.356 . S
N1185 H1190 0.984 . S
N1185 H1191 0.985 . S
C1186 C1180 1.379 1_655 S
C1186 C1183 1.363 . S
C1186 N1184 1.356 . S
C1187 C1181 1.363 . S
C1187 C1182 1.379 1_455 S
C1187 N1185 1.356 . S
N1188 C1180 1.356 . S
N1188 H1194 0.984 . S
N1188 H1195 0.984 . S
N1189 C1182 1.356 . S
N1189 H1192 0.984 . S
N1189 H1193 0.985 . S
H1190 N1185 0.984 . S
H1191 N1185 0.985 . S
H1192 N1189 0.984 . S
H1193 N1189 0.985 . S
H1194 N1188 0.984 . S
H1195 N1188 0.984 . S
H1196 N1184 0.984 . S
H1197 N1184 0.985 . S
C1198 C1199 1.363 . S
C1198 C1204 1.379 . S
C1198 N1206 1.356 . S
C1199 C1198 1.363 . S
C1199 C1205 1.363 1_455 S
C1200 C1201 1.363 . S
C1200 C1205 1.379 . S
C1200 N1207 1.356 . S
C1201 C1200 1.363 . S
C1201 C1204 1.363 1_655 S
N1202 C1204 1.356 . S
N1202 H1214 0.984 . S
N1202 H1215 0.985 1_455 S
N1203 C1205 1.356 . S
N1203 H1208 0.984 1_655 S
N1203 H1209 0.985 . S
C1204 C1198 1.379 . S
C1204 C1201 1.363 1_455 S
C1204 N1202 1.356 . S
C1205 C1199 1.363 1_655 S
C1205 C1200 1.379 . S
C1205 N1203 1.356 . S
N1206 C1198 1.356 . S
N1206 H1212 0.984 . S
N1206 H1213 0.984 . S
N1207 C1200 1.356 . S
N1207 H1210 0.984 . S
N1207 H1211 0.985 . S
H1208 N1203 0.984 1_455 S
H1209 N1203 0.985 . S
H1210 N1207 0.984 . S
H1211 N1207 0.985 . S
H1212 N1206 0.984 . S
H1213 N1206 0.984 . S
H1214 N1202 0.984 . S
H1215 N1202 0.985 1_655 S
C1216 C1217 1.363 . S
C1216 C1222 1.379 . S
C1216 N1224 1.356 . S
C1217 C1216 1.363 . S
C1217 C1223 1.363 . S
C1218 C1219 1.363 . S
C1218 C1223 1.379 . S
C1218 N1225 1.356 . S
C1219 C1218 1.363 . S
C1219 C1222 1.363 . S
N1220 C1222 1.356 . S
N1220 H1232 0.984 . S
N1220 H1233 0.985 . S
N1221 C1223 1.356 . S
N1221 H1226 0.984 . S
N1221 H1227 0.985 . S
C1222 C1216 1.379 . S
C1222 C1219 1.363 . S
C1222 N1220 1.356 . S
C1223 C1217 1.363 . S
C1223 C1218 1.379 . S
C1223 N1221 1.356 . S
N1224 C1216 1.356 . S
N1224 H1230 0.984 . S
N1224 H1231 0.984 . S
N1225 C1218 1.356 . S
N1225 H1228 0.984 . S
N1225 H1229 0.985 . S
H1226 N1221 0.984 . S
H1227 N1221 0.985 . S
H1228 N1225 0.984 . S
H1229 N1225 0.985 . S
H1230 N1224 0.984 . S
H1231 N1224 0.984 . S
H1232 N1220 0.984 . S
H1233 N1220 0.985 . S
C1234 C1235 1.363 . S
C1234 C1240 1.379 . S
C1234 N1242 1.356 . S
C1235 C1234 1.363 . S
C1235 C1241 1.363 . S
C1236 C1237 1.363 . S
C1236 C1241 1.379 . S
C1236 N1243 1.356 . S
C1237 C1236 1.363 . S
C1237 C1240 1.363 . S
N1238 C1240 1.356 . S
N1238 H1250 0.984 . S
N1238 H1251 0.985 . S
N1239 C1241 1.356 . S
N1239 H1244 0.984 . S
N1239 H1245 0.985 . S
C1240 C1234 1.379 . S
C1240 C1237 1.363 . S
C1240 N1238 1.356 . S
C1241 C1235 1.363 . S
C1241 C1236 1.379 . S
C1241 N1239 1.356 . S
N1242 C1234 1.356 . S
N1242 H1248 0.984 . S
N1242 H1249 0.984 . S
N1243 C1236 1.356 . S
N1243 H1246 0.984 . S
N1243 H1247 0.985 . S
H1244 N1239 0.984 . S
H1245 N1239 0.985 . S
H1246 N1243 0.984 . S
H1247 N1243 0.985 . S
H1248 N1242 0.984 . S
H1249 N1242 0.984 . S
H1250 N1238 0.984 . S
H1251 N1238 0.985 . S
C1252 C1253 1.363 . S
C1252 C1258 1.379 . S
C1252 N1260 1.356 . S
C1253 C1252 1.363 . S
C1253 C1259 1.363 . S
C1254 C1255 1.363 . S
C1254 C1259 1.379 . S
C1254 N1261 1.356 . S
C1255 C1254 1.363 . S
C1255 C1258 1.363 . S
N1256 C1258 1.356 . S
N1256 H1268 0.984 . S
N1256 H1269 0.985 . S
N1257 C1259 1.356 . S
N1257 H1262 0.984 . S
N1257 H1263 0.985 . S
C1258 C1252 1.379 . S
C1258 C1255 1.363 . S
C1258 N1256 1.356 . S
C1259 C1253 1.363 . S
C1259 C1254 1.379 . S
C1259 N1257 1.356 . S
N1260 C1252 1.356 . S
N1260 H1266 0.984 . S
N1260 H1267 0.984 . S
N1261 C1254 1.356 . S
N1261 H1264 0.984 . S
N1261 H1265 0.985 . S
H1262 N1257 0.984 . S
H1263 N1257 0.985 . S
H1264 N1261 0.984 . S
H1265 N1261 0.985 . S
H1266 N1260 0.984 . S
H1267 N1260 0.984 . S
H1268 N1256 0.984 . S
H1269 N1256 0.985 . S
C1270 C1271 1.363 . S
C1270 C1276 1.379 . S
C1270 N1278 1.356 . S
C1271 C1270 1.363 . S
C1271 C1277 1.363 . S
C1272 C1273 1.363 . S
C1272 C1277 1.379 . S
C1272 N1279 1.356 . S
C1273 C1272 1.363 . S
C1273 C1276 1.363 . S
N1274 C1276 1.356 . S
N1274 H1286 0.984 . S
N1274 H1287 0.985 . S
N1275 C1277 1.356 . S
N1275 H1280 0.984 1_455 S
N1275 H1281 0.985 . S
C1276 C1270 1.379 . S
C1276 C1273 1.363 . S
C1276 N1274 1.356 . S
C1277 C1271 1.363 . S
C1277 C1272 1.379 . S
C1277 N1275 1.356 . S
N1278 C1270 1.356 . S
N1278 H1284 0.984 . S
N1278 H1285 0.984 1_455 S
N1279 C1272 1.356 . S
N1279 H1282 0.984 . S
N1279 H1283 0.985 . S
H1280 N1275 0.984 1_655 S
H1281 N1275 0.985 . S
H1282 N1279 0.984 . S
H1283 N1279 0.985 . S
H1284 N1278 0.984 . S
H1285 N1278 0.984 1_655 S
H1286 N1274 0.984 . S
H1287 N1274 0.985 . S
C1288 C1289 1.363 . S
C1288 C1294 1.379 . S
C1288 N1296 1.356 . S
C1289 C1288 1.363 . S
C1289 C1295 1.363 . S
C1290 C1291 1.363 . S
C1290 C1295 1.379 . S
C1290 N1297 1.356 . S
C1291 C1290 1.363 . S
C1291 C1294 1.363 . S
N1292 C1294 1.356 . S
N1292 H1304 0.984 . S
N1292 H1305 0.985 . S
N1293 C1295 1.356 . S
N1293 H1298 0.984 . S
N1293 H1299 0.985 . S
C1294 C1288 1.379 . S
C1294 C1291 1.363 . S
C1294 N1292 1.356 . S
C1295 C1289 1.363 . S
C1295 C1290 1.379 . S
C1295 N1293 1.356 . S
N1296 C1288 1.356 . S
N1296 H1302 0.984 . S
N1296 H1303 0.984 . S
N1297 C1290 1.356 . S
N1297 H1300 0.984 . S
N1297 H1301 0.985 . S
H1298 N1293 0.984 . S
H1299 N1293 0.985 . S
H1300 N1297 0.984 . S
H1301 N1297 0.985 . S
H1302 N1296 0.984 . S
H1303 N1296 0.984 . S
H1304 N1292 0.984 . S
H1305 N1292 0.985 . S
C1306 C1307 1.363 . S
C1306 C1312 1.379 . S
C1306 N1314 1.356 . S
C1307 C1306 1.363 . S
C1307 C1313 1.363 . S
C1308 C1309 1.363 . S
C1308 C1313 1.379 . S
C1308 N1315 1.356 . S
C1309 C1308 1.363 . S
C1309 C1312 1.363 . S
N1310 C1312 1.356 . S
N1310 H1322 0.984 . S
N1310 H1323 0.985 . S
N1311 C1313 1.356 . S
N1311 H1316 0.984 . S
N1311 H1317 0.985 . S
C1312 C1306 1.379 . S
C1312 C1309 1.363 . S
C1312 N1310 1.356 . S
C1313 C1307 1.363 . S
C1313 C1308 1.379 . S
C1313 N1311 1.356 . S
N1314 C1306 1.356 . S
N1314 H1320 0.984 . S
N1314 H1321 0.984 . S
N1315 C1308 1.356 . S
N1315 H1318 0.984 . S
N1315 H1319 0.985 . S
H1316 N1311 0.984 . S
H1317 N1311 0.985 . S
H1318 N1315 0.984 . S
H1319 N1315 0.985 . S
H1320 N1314 0.984 . S
H1321 N1314 0.984 . S
H1322 N1310 0.984 . S
H1323 N1310 0.985 . S
C1324 C1325 1.363 . S
C1324 C1330 1.379 . S
C1324 N1332 1.356 . S
C1325 C1324 1.363 . S
C1325 C1331 1.363 . S
C1326 C1327 1.363 . S
C1326 C1331 1.379 . S
C1326 N1333 1.356 . S
C1327 C1326 1.363 . S
C1327 C1330 1.363 . S
N1328 C1330 1.356 . S
N1328 H1340 0.984 . S
N1328 H1341 0.985 . S
N1329 C1331 1.356 . S
N1329 H1334 0.984 . S
N1329 H1335 0.985 . S
C1330 C1324 1.379 . S
C1330 C1327 1.363 . S
C1330 N1328 1.356 . S
C1331 C1325 1.363 . S
C1331 C1326 1.379 . S
C1331 N1329 1.356 . S
N1332 C1324 1.356 . S
N1332 H1338 0.984 . S
N1332 H1339 0.984 . S
N1333 C1326 1.356 . S
N1333 H1336 0.984 . S
N1333 H1337 0.985 . S
H1334 N1329 0.984 . S
H1335 N1329 0.985 . S
H1336 N1333 0.984 . S
H1337 N1333 0.985 . S
H1338 N1332 0.984 . S
H1339 N1332 0.984 . S
H1340 N1328 0.984 . S
H1341 N1328 0.985 . S
C1342 C1343 1.363 . S
C1342 C1348 1.379 . S
C1342 N1350 1.356 . S
C1343 C1342 1.363 . S
C1343 C1349 1.363 . S
C1344 C1345 1.363 . S
C1344 C1349 1.379 . S
C1344 N1351 1.356 . S
C1345 C1344 1.363 . S
C1345 C1348 1.363 . S
N1346 C1348 1.356 . S
N1346 H1358 0.984 . S
N1346 H1359 0.985 1_655 S
N1347 C1349 1.356 . S
N1347 H1352 0.984 . S
N1347 H1353 0.985 . S
C1348 C1342 1.379 . S
C1348 C1345 1.363 . S
C1348 N1346 1.356 . S
C1349 C1343 1.363 . S
C1349 C1344 1.379 . S
C1349 N1347 1.356 . S
N1350 C1342 1.356 . S
N1350 H1356 0.984 . S
N1350 H1357 0.984 . S
N1351 C1344 1.356 . S
N1351 H1354 0.984 1_655 S
N1351 H1355 0.985 . S
H1352 N1347 0.984 . S
H1353 N1347 0.985 . S
H1354 N1351 0.984 1_455 S
H1355 N1351 0.985 . S
H1356 N1350 0.984 . S
H1357 N1350 0.984 . S
H1358 N1346 0.984 . S
H1359 N1346 0.985 1_455 S
C1360 C1361 1.363 . S
C1360 C1366 1.379 . S
C1360 N1368 1.356 . S
C1361 C1360 1.363 . S
C1361 C1367 1.363 . S
C1362 C1363 1.363 . S
C1362 C1367 1.379 . S
C1362 N1369 1.356 . S
C1363 C1362 1.363 . S
C1363 C1366 1.363 . S
N1364 C1366 1.356 . S
N1364 H1376 0.984 . S
N1364 H1377 0.985 . S
N1365 C1367 1.356 . S
N1365 H1370 0.984 . S
N1365 H1371 0.985 . S
C1366 C1360 1.379 . S
C1366 C1363 1.363 . S
C1366 N1364 1.356 . S
C1367 C1361 1.363 . S
C1367 C1362 1.379 . S
C1367 N1365 1.356 . S
N1368 C1360 1.356 . S
N1368 H1374 0.984 . S
N1368 H1375 0.984 . S
N1369 C1362 1.356 . S
N1369 H1372 0.984 . S
N1369 H1373 0.985 . S
H1370 N1365 0.984 . S
H1371 N1365 0.985 . S
H1372 N1369 0.984 . S
H1373 N1369 0.985 . S
H1374 N1368 0.984 . S
H1375 N1368 0.984 . S
H1376 N1364 0.984 . S
H1377 N1364 0.985 . S
C1378 C1379 1.363 . S
C1378 C1384 1.379 . S
C1378 N1386 1.356 . S
C1379 C1378 1.363 . S
C1379 C1385 1.363 . S
C1380 C1381 1.363 1_545 S
C1380 C1385 1.379 1_545 S
C1380 N1387 1.356 . S
C1381 C1380 1.363 1_565 S
C1381 C1384 1.363 . S
N1382 C1384 1.356 . S
N1382 H1394 0.984 . S
N1382 H1395 0.985 1_655 S
N1383 C1385 1.356 1_545 S
N1383 H1388 0.984 1_545 S
N1383 H1389 0.985 . S
C1384 C1378 1.379 . S
C1384 C1381 1.363 . S
C1384 N1382 1.356 . S
C1385 C1379 1.363 . S
C1385 C1380 1.379 1_565 S
C1385 N1383 1.356 1_565 S
N1386 C1378 1.356 . S
N1386 H1392 0.984 . S
N1386 H1393 0.984 . S
N1387 C1380 1.356 . S
N1387 H1390 0.984 1_655 S
N1387 H1391 0.985 . S
H1388 N1383 0.984 1_565 S
H1389 N1383 0.985 . S
H1390 N1387 0.984 1_455 S
H1391 N1387 0.985 . S
H1392 N1386 0.984 . S
H1393 N1386 0.984 . S
H1394 N1382 0.984 . S
H1395 N1382 0.985 1_455 S
C1396 C1397 1.363 . S
C1396 C1402 1.379 . S
C1396 N1404 1.356 . S
C1397 C1396 1.363 . S
C1397 C1403 1.363 . S
C1398 C1399 1.363 . S
C1398 C1403 1.379 . S
C1398 N1405 1.356 . S
C1399 C1398 1.363 . S
C1399 C1402 1.363 . S
N1400 C1402 1.356 . S
N1400 H1412 0.984 . S
N1400 H1413 0.985 . S
N1401 C1403 1.356 . S
N1401 H1406 0.984 . S
N1401 H1407 0.985 . S
C1402 C1396 1.379 . S
C1402 C1399 1.363 . S
C1402 N1400 1.356 . S
C1403 C1397 1.363 . S
C1403 C1398 1.379 . S
C1403 N1401 1.356 . S
N1404 C1396 1.356 . S
N1404 H1410 0.984 . S
N1404 H1411 0.984 . S
N1405 C1398 1.356 . S
N1405 H1408 0.984 . S
N1405 H1409 0.985 . S
H1406 N1401 0.984 . S
H1407 N1401 0.985 . S
H1408 N1405 0.984 . S
H1409 N1405 0.985 . S
H1410 N1404 0.984 . S
H1411 N1404 0.984 . S
H1412 N1400 0.984 . S
H1413 N1400 0.985 . S
C1414 C1415 1.363 . S
C1414 C1420 1.379 . S
C1414 N1422 1.356 . S
C1415 C1414 1.363 . S
C1415 C1421 1.363 . S
C1416 C1417 1.363 . S
C1416 C1421 1.379 . S
C1416 N1423 1.356 . S
C1417 C1416 1.363 . S
C1417 C1420 1.363 . S
N1418 C1420 1.356 . S
N1418 H1430 0.984 . S
N1418 H1431 0.985 . S
N1419 C1421 1.356 . S
N1419 H1424 0.984 . S
N1419 H1425 0.985 . S
C1420 C1414 1.379 . S
C1420 C1417 1.363 . S
C1420 N1418 1.356 . S
C1421 C1415 1.363 . S
C1421 C1416 1.379 . S
C1421 N1419 1.356 . S
N1422 C1414 1.356 . S
N1422 H1428 0.984 . S
N1422 H1429 0.984 . S
N1423 C1416 1.356 . S
N1423 H1426 0.984 . S
N1423 H1427 0.985 . S
H1424 N1419 0.984 . S
H1425 N1419 0.985 . S
H1426 N1423 0.984 . S
H1427 N1423 0.985 . S
H1428 N1422 0.984 . S
H1429 N1422 0.984 . S
H1430 N1418 0.984 . S
H1431 N1418 0.985 . S
C1432 C1433 1.363 . S
C1432 C1438 1.379 . S
C1432 N1440 1.356 . S
C1433 C1432 1.363 . S
C1433 C1439 1.363 . S
C1434 C1435 1.363 . S
C1434 C1439 1.379 . S
C1434 N1441 1.356 . S
C1435 C1434 1.363 . S
C1435 C1438 1.363 . S
N1436 C1438 1.356 . S
N1436 H1448 0.984 . S
N1436 H1449 0.985 . S
N1437 C1439 1.356 . S
N1437 H1442 0.984 . S
N1437 H1443 0.985 . S
C1438 C1432 1.379 . S
C1438 C1435 1.363 . S
C1438 N1436 1.356 . S
C1439 C1433 1.363 . S
C1439 C1434 1.379 . S
C1439 N1437 1.356 . S
N1440 C1432 1.356 . S
N1440 H1446 0.984 . S
N1440 H1447 0.984 . S
N1441 C1434 1.356 . S
N1441 H1444 0.984 . S
N1441 H1445 0.985 . S
H1442 N1437 0.984 . S
H1443 N1437 0.985 . S
H1444 N1441 0.984 . S
H1445 N1441 0.985 . S
H1446 N1440 0.984 . S
H1447 N1440 0.984 . S
H1448 N1436 0.984 . S
H1449 N1436 0.985 . S
C1450 C1451 1.363 . S
C1450 C1456 1.379 . S
C1450 N1458 1.356 . S
C1451 C1450 1.363 . S
C1451 C1457 1.363 1_545 S
C1452 C1453 1.363 . S
C1452 C1457 1.379 1_545 S
C1452 N1459 1.356 1_545 S
C1453 C1452 1.363 . S
C1453 C1456 1.363 . S
N1454 C1456 1.356 . S
N1454 H1466 0.984 . S
N1454 H1467 0.985 . S
N1455 C1457 1.356 . S
N1455 H1460 0.972 1_455 S
N1455 H1461 0.985 . S
C1456 C1450 1.379 . S
C1456 C1453 1.363 . S
C1456 N1454 1.356 . S
C1457 C1451 1.363 1_565 S
C1457 C1452 1.379 1_565 S
C1457 N1455 1.356 . S
N1458 C1450 1.356 . S
N1458 H1464 0.984 . S
N1458 H1465 0.984 1_455 S
N1459 C1452 1.356 1_565 S
N1459 H1462 0.984 1_565 S
N1459 H1463 0.985 . S
H1460 N1455 0.972 1_655 S
H1461 N1455 0.985 . S
H1462 N1459 0.984 1_545 S
H1463 N1459 0.985 . S
H1464 N1458 0.984 . S
H1465 N1458 0.984 1_655 S
H1466 N1454 0.984 . S
H1467 N1454 0.985 . S
C1468 C1469 1.363 . S
C1468 C1474 1.379 . S
C1468 N1476 1.356 . S
C1469 C1468 1.363 . S
C1469 C1475 1.363 . S
C1470 C1471 1.363 . S
C1470 C1475 1.379 . S
C1470 N1477 1.356 . S
C1471 C1470 1.363 . S
C1471 C1474 1.363 . S
N1472 C1474 1.356 . S
N1472 H1484 0.984 . S
N1472 H1485 0.985 . S
N1473 C1475 1.356 . S
N1473 H1478 0.984 . S
N1473 H1479 0.985 . S
C1474 C1468 1.379 . S
C1474 C1471 1.363 . S
C1474 N1472 1.356 . S
C1475 C1469 1.363 . S
C1475 C1470 1.379 . S
C1475 N1473 1.356 . S
N1476 C1468 1.356 . S
N1476 H1482 0.984 . S
N1476 H1483 0.984 . S
N1477 C1470 1.356 . S
N1477 H1480 0.984 . S
N1477 H1481 0.985 . S
H1478 N1473 0.984 . S
H1479 N1473 0.985 . S
H1480 N1477 0.984 . S
H1481 N1477 0.985 . S
H1482 N1476 0.984 . S
H1483 N1476 0.984 . S
H1484 N1472 0.984 . S
H1485 N1472 0.985 . S
C1486 C1487 1.363 . S
C1486 C1492 1.379 . S
C1486 N1494 1.356 . S
C1487 C1486 1.363 . S
C1487 C1493 1.363 . S
C1488 C1489 1.363 . S
C1488 C1493 1.379 . S
C1488 N1495 1.356 . S
C1489 C1488 1.363 . S
C1489 C1492 1.363 . S
N1490 C1492 1.356 . S
N1490 H1502 0.984 . S
N1490 H1503 0.985 . S
N1491 C1493 1.356 . S
N1491 H1496 0.984 . S
N1491 H1497 0.985 . S
C1492 C1486 1.379 . S
C1492 C1489 1.363 . S
C1492 N1490 1.356 . S
C1493 C1487 1.363 . S
C1493 C1488 1.379 . S
C1493 N1491 1.356 . S
N1494 C1486 1.356 . S
N1494 H1500 0.984 . S
N1494 H1501 0.984 . S
N1495 C1488 1.356 . S
N1495 H1498 0.984 . S
N1495 H1499 0.985 . S
H1496 N1491 0.984 . S
H1497 N1491 0.985 . S
H1498 N1495 0.984 . S
H1499 N1495 0.985 . S
H1500 N1494 0.984 . S
H1501 N1494 0.984 . S
H1502 N1490 0.984 . S
H1503 N1490 0.985 . S
C641 C8 1.212 . S
C643 C509 1.212 . S
C659 C229 1.212 . S
C661 C48 1.212 . S
C677 C88 1.212 . S
C679 C589 1.212 . S
C695 C128 1.212 1_554 S
C697 C309 1.212 1_556 S
C713 C189 1.212 . S
C715 C328 1.212 . S
C731 C408 1.212 . S
C733 C269 1.212 . S
C749 C549 1.213 1_556 S
C751 C368 1.213 1_554 S
C767 C448 1.212 . S
C769 C629 1.212 . S
C785 C362 2.495 . S
C787 C29 2.429 1_556 S
C803 C69 2.426 . S
C805 C402 2.495 . S
C821 C109 2.429 . S
C823 C442 2.495 . S
C839 C322 2.495 . S
C841 C149 2.426 . S
C857 C537 2.496 . S
C859 C168 2.430 1_554 S
C875 C577 2.496 . S
C877 C208 2.426 . S
C893 C248 2.430 . S
C895 C617 2.496 . S
C911 C497 2.496 . S
C913 C288 2.426 . S
C929 C349 2.426 . S
C931 C42 2.495 . S
C947 C389 2.426 . S
C949 C82 2.495 . S
C965 C429 2.426 1_556 S
C967 C122 2.495 . S
C983 C2 2.495 . S
C985 C469 2.426 . S
C1001 C217 2.495 . S
C1003 C488 2.426 . S
C1019 C528 2.425 . S
C1021 C257 2.495 . S
C1037 C297 2.495 . S
C1039 C568 2.425 1_554 S
C1055 C608 2.425 . S
C1057 C177 2.495 . S
C1073 C31 2.936 . S
C1075 C431 2.935 . S
C1091 C71 2.935 . S
C1093 C471 2.935 . S
C1109 C351 2.935 . S
C1111 C111 2.935 . S
C1127 C151 2.935 . S
C1129 C391 2.935 . S
C1145 C172 2.936 . S
C1147 C572 2.935 . S
C1163 C212 2.935 . S
C1165 C612 2.935 . S
C1181 C492 2.935 . S
C1183 C252 2.935 . S
C1199 C292 2.935 . S
C1201 C532 2.935 . S
C1217 C17 1.989 . S
C1219 C311 2.318 . S
C1235 C511 2.317 . S
C1237 C57 1.988 . S
C1253 C97 1.988 . S
C1255 C231 2.318 . S
C1271 C137 1.988 1_455 S
C1273 C591 2.317 . S
C1289 C162 1.989 . S
C1291 C132 2.318 . S
C1307 C332 2.317 . S
C1309 C202 1.987 . S
C1325 C242 1.988 . S
C1327 C52 2.317 . S
C1343 C412 2.317 . S
C1345 C282 1.988 1_655 S
C1361 C337 1.988 . S
C1363 C631 2.317 . S
C1379 C191 2.317 . S
C1381 C377 1.988 1_655 S
C1397 C551 2.317 . S
C1399 C417 1.988 . S
C1415 C457 1.987 . S
C1417 C271 2.317 . S
C1433 C482 1.988 . S
C1435 C452 2.317 . S
C1451 C522 1.988 1_455 S
C1453 C12 2.317 . S
C1469 C372 2.318 . S
C1471 C562 1.988 . S
C1487 C92 2.317 . S
C1489 C602 1.988 . S
