# Generated by pormake.
# Topology wjd, (6)-cn, num edge types: 1
# Building blocks:
#     Node 0, Type 0, BuildingBlock: VOLQOD_clean_sbu_1, # of connection points: 6
#     Node 1, Type 0, BuildingBlock: VOLQOD_clean_sbu_1, # of connection points: 6
#     Node 2, Type 0, BuildingBlock: VOLQOD_clean_sbu_1, # of connection points: 6
#     Node 3, Type 0, BuildingBlock: VOLQOD_clean_sbu_1, # of connection points: 6
#     Node 4, Type 0, BuildingBlock: VOLQOD_clean_sbu_1, # of connection points: 6
#     Node 5, Type 0, BuildingBlock: VOLQOD_clean_sbu_1, # of connection points: 6
#     Node 6, Type 0, BuildingBlock: VOLQOD_clean_sbu_1, # of connection points: 6
#     Node 7, Type 0, BuildingBlock: VOLQOD_clean_sbu_1, # of connection points: 6
#     Node 8, Type 0, BuildingBlock: VOLQOD_clean_sbu_1, # of connection points: 6
#     Node 9, Type 0, BuildingBlock: VOLQOD_clean_sbu_1, # of connection points: 6
#     Node 10, Type 0, BuildingBlock: VOLQOD_clean_sbu_1, # of connection points: 6
#     Node 11, Type 0, BuildingBlock: VOLQOD_clean_sbu_1, # of connection points: 6
#     Edge 12, Type (0, 0), BuildingBlock: EZIPEK_clean_linker_0, # of connection points: 2
#     Edge 13, Type (0, 0), BuildingBlock: EZIPEK_clean_linker_0, # of connection points: 2
#     Edge 14, Type (0, 0), BuildingBlock: EZIPEK_clean_linker_0, # of connection points: 2
#     Edge 15, Type (0, 0), BuildingBlock: EZIPEK_clean_linker_0, # of connection points: 2
#     Edge 16, Type (0, 0), BuildingBlock: EZIPEK_clean_linker_0, # of connection points: 2
#     Edge 17, Type (0, 0), BuildingBlock: EZIPEK_clean_linker_0, # of connection points: 2
#     Edge 18, Type (0, 0), BuildingBlock: EZIPEK_clean_linker_0, # of connection points: 2
#     Edge 19, Type (0, 0), BuildingBlock: EZIPEK_clean_linker_0, # of connection points: 2
#     Edge 20, Type (0, 0), BuildingBlock: EZIPEK_clean_linker_0, # of connection points: 2
#     Edge 21, Type (0, 0), BuildingBlock: EZIPEK_clean_linker_0, # of connection points: 2
#     Edge 22, Type (0, 0), BuildingBlock: EZIPEK_clean_linker_0, # of connection points: 2
#     Edge 23, Type (0, 0), BuildingBlock: EZIPEK_clean_linker_0, # of connection points: 2
#     Edge 24, Type (0, 0), BuildingBlock: EZIPEK_clean_linker_0, # of connection points: 2
#     Edge 25, Type (0, 0), BuildingBlock: EZIPEK_clean_linker_0, # of connection points: 2
#     Edge 26, Type (0, 0), BuildingBlock: EZIPEK_clean_linker_0, # of connection points: 2
#     Edge 27, Type (0, 0), BuildingBlock: EZIPEK_clean_linker_0, # of connection points: 2
#     Edge 28, Type (0, 0), BuildingBlock: EZIPEK_clean_linker_0, # of connection points: 2
#     Edge 29, Type (0, 0), BuildingBlock: EZIPEK_clean_linker_0, # of connection points: 2
#     Edge 30, Type (0, 0), BuildingBlock: EZIPEK_clean_linker_0, # of connection points: 2
#     Edge 31, Type (0, 0), BuildingBlock: EZIPEK_clean_linker_0, # of connection points: 2
#     Edge 32, Type (0, 0), BuildingBlock: EZIPEK_clean_linker_0, # of connection points: 2
#     Edge 33, Type (0, 0), BuildingBlock: EZIPEK_clean_linker_0, # of connection points: 2
#     Edge 34, Type (0, 0), BuildingBlock: EZIPEK_clean_linker_0, # of connection points: 2
#     Edge 35, Type (0, 0), BuildingBlock: EZIPEK_clean_linker_0, # of connection points: 2
#     Edge 36, Type (0, 0), BuildingBlock: EZIPEK_clean_linker_0, # of connection points: 2
#     Edge 37, Type (0, 0), BuildingBlock: EZIPEK_clean_linker_0, # of connection points: 2
#     Edge 38, Type (0, 0), BuildingBlock: EZIPEK_clean_linker_0, # of connection points: 2
#     Edge 39, Type (0, 0), BuildingBlock: EZIPEK_clean_linker_0, # of connection points: 2
#     Edge 40, Type (0, 0), BuildingBlock: EZIPEK_clean_linker_0, # of connection points: 2
#     Edge 41, Type (0, 0), BuildingBlock: EZIPEK_clean_linker_0, # of connection points: 2
#     Edge 42, Type (0, 0), BuildingBlock: EZIPEK_clean_linker_0, # of connection points: 2
#     Edge 43, Type (0, 0), BuildingBlock: EZIPEK_clean_linker_0, # of connection points: 2
#     Edge 44, Type (0, 0), BuildingBlock: EZIPEK_clean_linker_0, # of connection points: 2
#     Edge 45, Type (0, 0), BuildingBlock: EZIPEK_clean_linker_0, # of connection points: 2
#     Edge 46, Type (0, 0), BuildingBlock: EZIPEK_clean_linker_0, # of connection points: 2
#     Edge 47, Type (0, 0), BuildingBlock: EZIPEK_clean_linker_0, # of connection points: 2
# Relax obj value: 0.309
# Max RMSD: 0.232
# Mean RMSD: 0.231
data_MOF--net-wjd--node1-VOLQOD_clean_sbu_1--edge1-EZIPEK_clean_linker_0
_symmetry_space_group_name_H-M    P1
_symmetry_Int_Tables_number       1
_symmetry_cell_setting            triclinic
loop_
_symmetry_equiv_pos_as_xyz
'x, y, z'
_cell_length_a     24.171658
_cell_length_b     24.314504
_cell_length_c     49.504324
_cell_angle_alpha  89.662749
_cell_angle_beta   90.04296
_cell_angle_gamma 119.69894
loop_
_atom_site_label
_atom_site_type_symbol
_atom_site_fract_x
_atom_site_fract_y
_atom_site_fract_z
_atom_type_partial_charge
O0 O 0.34722 0.20614 0.09606 0.0
Zn1 Zn 0.27624 0.11623 0.09937 0.0
O2 O 0.29713 0.07291 0.12729 0.0
Zn3 Zn 0.29065 -0.00392 0.11356 0.0
Zn4 Zn 0.37748 0.12617 0.14352 0.0
Zn5 Zn 0.23772 0.05319 0.15538 0.0
O6 O 0.21301 0.9191 0.12904 0.0
O7 O 0.16486 0.9677 0.14775 0.0
O8 O 0.25892 0.07194 0.06328 0.0
O9 O 0.27197 -0.00977 0.0741 0.0
O10 O 0.37601 -0.00026 0.11532 0.0
O11 O 0.4366 0.09935 0.12933 0.0
O12 O 0.37585 0.12256 0.18444 0.0
O13 O 0.20165 0.12587 0.11086 0.0
O14 O 0.2734 0.05572 0.19196 0.0
O15 O 0.20989 0.11785 0.15508 0.0
C16 C 0.39331 0.23898 0.11193 0.0
C17 C 0.16344 0.91826 0.13853 0.0
C18 C 0.43036 0.04812 0.11977 0.0
C19 C 0.2595 0.02152 0.0569 0.0
C20 C 0.32994 0.08982 0.20056 0.0
C21 C 0.19022 0.1358 0.13492 0.0
O22 O 0.40755 0.21478 0.13172 0.0
O23 O 0.81679 0.54476 0.37037 0.0
Zn24 Zn 0.81634 0.62271 0.35903 0.0
O25 O 0.76901 0.64009 0.38523 0.0
Zn26 Zn 0.68674 0.61912 0.37009 0.0
Zn27 Zn 0.75997 0.59394 0.41803 0.0
Zn28 Zn 0.81695 0.72712 0.39416 0.0
O29 O 0.67843 0.69738 0.36872 0.0
O30 O 0.7802 0.77112 0.37446 0.0
O31 O 0.77906 0.61448 0.32211 0.0
O32 O 0.68059 0.59436 0.33085 0.0
O33 O 0.61557 0.54828 0.39133 0.0
O34 O 0.66827 0.5284 0.42283 0.0
O35 O 0.78401 0.6484 0.45121 0.0
O36 O 0.90783 0.69026 0.35776 0.0
O37 O 0.80659 0.74083 0.43313 0.0
O38 O 0.90942 0.76396 0.38466 0.0
C39 C 0.82034 0.52619 0.39406 0.0
C40 C 0.72319 0.75477 0.36805 0.0
C41 C 0.61588 0.51679 0.41198 0.0
C42 C 0.72376 0.6014 0.31419 0.0
C43 C 0.79537 0.70514 0.45362 0.0
C44 C 0.93757 0.74349 0.36943 0.0
O45 O 0.80769 0.54727 0.41523 0.0
O46 O 0.72414 0.13239 0.08542 0.0
Zn47 Zn 0.80804 0.13558 0.091 0.0
O48 O 0.85276 0.18527 0.12208 0.0
Zn49 Zn 0.92949 0.26272 0.11295 0.0
Zn50 Zn 0.79472 0.20244 0.14007 0.0
Zn51 Zn 0.87286 0.13776 0.1465 0.0
O52 O 0.00642 0.26616 0.13149 0.0
O53 O 0.9628 0.16375 0.14183 0.0
O54 O 0.86478 0.16912 0.0576 0.0
O55 O 0.94505 0.25957 0.07329 0.0
O56 O 0.91778 0.33922 0.1198 0.0
O57 O 0.81397 0.28741 0.12905 0.0
O58 O 0.80144 0.2011 0.1804 0.0
O59 O 0.77556 0.044 0.09987 0.0
O60 O 0.86046 0.155 0.18494 0.0
O61 O 0.81843 0.04569 0.13967 0.0
C62 C 0.68651 0.12419 0.10496 0.0
C63 C 0.01142 0.21809 0.1383 0.0
C64 C 0.86508 0.33838 0.12354 0.0
C65 C 0.91759 0.22051 0.05414 0.0
C66 C 0.83051 0.18063 0.19512 0.0
C67 C 0.78115 0.01531 0.12037 0.0
O68 O 0.70683 0.14168 0.1288 0.0
O69 O 0.41228 0.25184 0.38314 0.0
Zn70 Zn 0.3381 0.17855 0.36534 0.0
O71 O 0.30496 0.10349 0.38761 0.0
Zn72 Zn 0.32184 0.04242 0.37024 0.0
Zn73 Zn 0.34569 0.12876 0.42204 0.0
Zn74 Zn 0.21547 0.06644 0.39338 0.0
O75 O 0.24414 0.95505 0.37205 0.0
O76 O 0.1706 -0.01505 0.37377 0.0
O77 O 0.35669 0.16176 0.32766 0.0
O78 O 0.33696 0.06231 0.33047 0.0
O79 O 0.40119 0.04885 0.38659 0.0
O80 O 0.41619 0.10918 0.42273 0.0
O81 O 0.28513 0.08144 0.45237 0.0
O82 O 0.27265 0.20543 0.36166 0.0
O83 O 0.19094 0.04161 0.43229 0.0
O84 O 0.18675 0.12657 0.38134 0.0
C85 C 0.41838 0.26528 0.40821 0.0
C86 C 0.18645 0.94275 0.37027 0.0
C87 C 0.4332 0.07846 0.40734 0.0
C88 C 0.35118 0.11198 0.31673 0.0
C89 C 0.22461 0.04881 0.45313 0.0
C90 C 0.21476 0.17962 0.36902 0.0
O91 O 0.38696 0.2236 0.42623 0.0
O92 O 0.78758 0.55472 0.09605 0.0
Zn93 Zn 0.78654 0.63785 0.09646 0.0
O94 O 0.72871 0.63729 0.124 0.0
Zn95 Zn 0.6558 0.63522 0.10745 0.0
Zn96 Zn 0.70316 0.56202 0.14376 0.0
Zn97 Zn 0.76877 0.70466 0.14959 0.0
O98 O 0.64446 0.70703 0.12087 0.0
O99 O 0.7348 0.7637 0.14358 0.0
O100 O 0.76582 0.65932 0.05935 0.0
O101 O 0.67174 0.65108 0.06787 0.0
O102 O 0.57806 0.54924 0.11084 0.0
O103 O 0.62077 0.49478 0.12918 0.0
O104 O 0.69303 0.56939 0.18318 0.0
O105 O 0.87516 0.70272 0.10711 0.0
O106 O 0.75051 0.67341 0.18833 0.0
O107 O 0.86337 0.74884 0.14383 0.0
C108 C 0.79046 0.5283 0.1179 0.0
C109 C 0.68362 0.75727 0.13321 0.0
C110 C 0.57468 0.49727 0.11798 0.0
C111 C 0.71634 0.66093 0.05151 0.0
C112 C 0.71826 0.61783 0.19819 0.0
C113 C 0.89835 0.74234 0.12634 0.0
O114 O 0.76976 0.53797 0.13988 0.0
O115 O 0.69685 0.11856 0.38129 0.0
Zn116 Zn 0.77053 0.11915 0.36328 0.0
O117 O 0.84682 0.1669 0.38345 0.0
Zn118 Zn 0.90314 0.24041 0.36267 0.0
Zn119 Zn 0.8219 0.18666 0.41698 0.0
Zn120 Zn 0.8913 0.12237 0.39098 0.0
O121 O -0.00735 0.25812 0.36592 0.0
O122 O 0.96905 0.1573 0.36796 0.0
O123 O 0.77966 0.14814 0.32478 0.0
O124 O 0.88023 0.22608 0.32329 0.0
O125 O 0.89428 0.31265 0.37545 0.0
O126 O 0.83702 0.27408 0.41323 0.0
O127 O 0.87531 0.18537 0.44736 0.0
O128 O 0.75119 0.03032 0.36256 0.0
O129 O 0.9273 0.14089 0.42904 0.0
O130 O 0.83347 0.03018 0.3832 0.0
C131 C 0.68498 0.11755 0.40636 0.0
C132 C 0.00871 0.21576 0.36428 0.0
C133 C 0.86612 0.31826 0.39604 0.0
C134 C 0.82809 0.18873 0.31159 0.0
C135 C 0.91682 0.16777 0.44884 0.0
C136 C 0.77956 0.00179 0.3714 0.0
O137 O 0.72798 0.13309 0.42425 0.0
O138 O 0.26519 0.42393 0.6242 0.0
Zn139 Zn 0.18979 0.34529 0.63747 0.0
O140 O 0.122 0.32179 0.61249 0.0
Zn141 Zn 0.05967 0.3385 0.62833 0.0
Zn142 Zn 0.15581 0.3689 0.57984 0.0
Zn143 Zn 0.08243 0.23446 0.60441 0.0
O144 O -0.02671 0.26758 0.62009 0.0
O145 O -0.00051 0.19178 0.62379 0.0
O146 O 0.16295 0.35126 0.67538 0.0
O147 O 0.06767 0.34194 0.66883 0.0
O148 O 0.07258 0.42116 0.61472 0.0
O149 O 0.13949 0.44192 0.58025 0.0
O150 O 0.11453 0.31585 0.54705 0.0
O151 O 0.21633 0.28029 0.63794 0.0
O152 O 0.05692 0.22016 0.56521 0.0
O153 O 0.14073 0.20007 0.61455 0.0
C154 C 0.28589 0.43603 0.6 0.0
C155 C 0.95824 0.20992 0.62335 0.0
C156 C 0.10615 0.45645 0.59533 0.0
C157 C 0.1117 0.34701 0.68452 0.0
C158 C 0.07337 0.25734 0.5449 0.0
C159 C 0.19259 0.22527 0.62796 0.0
O160 O 0.25066 0.40878 0.5797 0.0
O161 O 0.10546 0.7365 0.9083 0.0
Zn162 Zn 0.1267 0.8275 0.90562 0.0
O163 O 0.19297 0.87139 0.87889 0.0
Zn164 Zn 0.26455 0.94645 0.89271 0.0
Zn165 Zn 0.22091 0.81787 0.86466 0.0
Zn166 Zn 0.15631 0.89132 0.84964 0.0
O167 O 0.26312 0.02383 0.87813 0.0
O168 O 0.16966 0.97781 0.85659 0.0
O169 O 0.15372 0.87108 0.9419 0.0
O170 O 0.25159 0.94949 0.93237 0.0
O171 O 0.34681 0.94298 0.88776 0.0
O172 O 0.30109 0.8385 0.88248 0.0
O173 O 0.23823 0.82996 0.8245 0.0
O174 O 0.04326 0.81832 0.89262 0.0
O175 O 0.19345 0.88778 0.81417 0.0
O176 O 0.06439 0.82698 0.84873 0.0
C177 C 0.11701 0.70375 0.89163 0.0
C178 C 0.21658 0.02624 0.86706 0.0
C179 C 0.3497 0.8919 0.88734 0.0
C180 C 0.20611 0.91914 0.94899 0.0
C181 C 0.22356 0.85952 0.80723 0.0
C182 C 0.02469 0.80802 0.86812 0.0
O183 O 0.15714 0.72884 0.87253 0.0
O184 O 0.56358 0.84413 0.61759 0.0
Zn185 Zn 0.63915 0.84703 0.63484 0.0
O186 O 0.66747 0.7991 0.61472 0.0
Zn187 Zn 0.65079 0.72473 0.6346 0.0
Zn188 Zn 0.62422 0.78156 0.58112 0.0
Zn189 Zn 0.75572 0.84462 0.60737 0.0
O190 O 0.72692 0.71235 0.63372 0.0
O191 O 0.79951 0.81496 0.63241 0.0
O192 O 0.62468 0.82064 0.67369 0.0
O193 O 0.63844 0.73668 0.67368 0.0
O194 O 0.57109 0.65163 0.62031 0.0
O195 O 0.5518 0.69422 0.58389 0.0
O196 O 0.67914 0.78233 0.55106 0.0
O197 O 0.70519 0.93718 0.6331 0.0
O198 O 0.77424 0.8231 0.57038 0.0
O199 O 0.78638 0.93677 0.6118 0.0
C200 C 0.55624 0.84989 0.59247 0.0
C201 C 0.78389 0.75738 0.63666 0.0
C202 C 0.53681 0.64818 0.60012 0.0
C203 C 0.6284 0.77658 0.68608 0.0
C204 C 0.7377 0.79785 0.55024 0.0
C205 C 0.7608 0.96577 0.62303 0.0
O206 O 0.58674 0.83817 0.57456 0.0
O207 O 0.20946 0.40188 0.9025 0.0
Zn208 Zn 0.1277 0.31774 0.90346 0.0
O209 O 0.06935 0.31545 0.87561 0.0
Zn210 Zn -0.0046 0.31228 0.89217 0.0
Zn211 Zn 0.11152 0.3904 0.85457 0.0
Zn212 Zn 0.04636 0.24679 0.85107 0.0
O213 O 0.91537 0.23815 0.87902 0.0
O214 O 0.95609 0.18402 0.85898 0.0
O215 O 0.08634 0.29764 0.94074 0.0
O216 O -0.00446 0.29641 0.93179 0.0
O217 O -0.00483 0.39425 0.88881 0.0
O218 O 0.08759 0.45316 0.86759 0.0
O219 O 0.09514 0.37729 0.81488 0.0
O220 O 0.15423 0.25324 0.89493 0.0
O221 O 0.05871 0.27407 0.81179 0.0
O222 O 0.09909 0.20574 0.85795 0.0
C223 C 0.23589 0.43247 0.88091 0.0
C224 C 0.90945 0.18742 0.86906 0.0
C225 C 0.039 0.44737 0.88007 0.0
C226 C 0.0327 0.29053 0.94822 0.0
C227 C 0.07768 0.32795 0.80075 0.0
C228 C 0.13941 0.21295 0.87608 0.0
O229 O 0.20393 0.42523 0.85953 0.0
O230 O 0.15262 0.72645 0.62818 0.0
Zn231 Zn 0.15226 0.80045 0.64411 0.0
O232 O 0.19782 0.87249 0.62059 0.0
Zn233 Zn 0.27928 0.92931 0.63704 0.0
Zn234 Zn 0.20969 0.84535 0.58548 0.0
Zn235 Zn 0.14823 0.91342 0.6158 0.0
O236 O 0.29375 0.01925 0.63547 0.0
O237 O 0.19221 -0.00333 0.63404 0.0
O238 O 0.18792 0.81775 0.68159 0.0
O239 O 0.27918 0.90782 0.67666 0.0
O240 O 0.3478 0.91863 0.61839 0.0
O241 O 0.30092 0.87212 0.57991 0.0
O242 O 0.18685 0.88543 0.55509 0.0
O243 O 0.06108 0.77586 0.64732 0.0
O244 O 0.14409 0.93494 0.57676 0.0
O245 O 0.05903 0.85878 0.62919 0.0
C246 C 0.15324 0.71091 0.60373 0.0
C247 C 0.25128 0.03582 0.6371 0.0
C248 C 0.34884 0.89536 0.59548 0.0
C249 C 0.23876 0.8627 0.69146 0.0
C250 C 0.16301 0.92181 0.55505 0.0
C251 C 0.03151 0.80475 0.64069 0.0
O252 O 0.16629 0.74983 0.58414 0.0
O253 O 0.56111 0.8048 0.90947 0.0
Zn254 Zn 0.64612 0.80583 0.90646 0.0
O255 O 0.64882 0.76081 0.87533 0.0
Zn256 Zn 0.64016 0.68028 0.88407 0.0
Zn257 Zn 0.5797 0.75371 0.85649 0.0
Zn258 Zn 0.71765 0.80831 0.85232 0.0
O259 O 0.71315 0.67373 0.86633 0.0
O260 O 0.77657 0.77615 0.85678 0.0
O261 O 0.66896 0.77121 0.939 0.0
O262 O 0.65235 0.67767 0.92445 0.0
O263 O 0.55012 0.61159 0.87469 0.0
O264 O 0.50706 0.67333 0.8685 0.0
O265 O 0.58751 0.75295 0.81653 0.0
O266 O 0.70788 0.89711 0.90042 0.0
O267 O 0.69234 0.79735 0.81335 0.0
O268 O 0.75578 0.89896 0.86163 0.0
C269 C 0.5463 0.82719 0.88909 0.0
C270 C 0.76741 0.72016 0.85955 0.0
C271 C 0.50153 0.61905 0.87243 0.0
C272 C 0.66684 0.7183 0.94322 0.0
C273 C 0.63777 0.77383 0.80241 0.0
C274 C 0.74659 0.92695 0.8813 0.0
O275 O 0.56791 0.82591 0.86594 0.0
C276 C 0.11908 0.24119 0.12123 0.0
C277 C 0.07374 0.22204 0.14242 0.0
C278 C 0.10936 0.15199 0.16077 0.0
C279 C 0.15455 0.16999 0.13943 0.0
N280 N 0.21918 0.25129 0.10675 0.0
N281 N 0.04638 0.18312 0.18793 0.0
C282 C 0.16504 0.22109 0.12202 0.0
C283 C 0.07732 0.18666 0.16438 0.0
N284 N 0.1164 0.27495 0.09963 0.0
N285 N 0.09189 0.09862 0.17591 0.0
H286 H 0.02206 0.20821 0.19061 0.0
H287 H 0.05084 0.16115 0.2053 0.0
H288 H 0.10769 0.06659 0.1722 0.0
H289 H 0.05515 0.08179 0.1901 0.0
H290 H 0.14333 0.28244 0.08216 0.0
H291 H 0.0854 0.29299 0.09855 0.0
H292 H 0.23101 0.29199 0.09546 0.0
H293 H 0.25572 0.2404 0.10796 0.0
C294 C 0.11356 0.83228 0.38547 0.0
C295 C 0.13444 0.87823 0.36458 0.0
C296 C 0.03136 0.81949 0.34197 0.0
C297 C 0.00692 0.78232 0.36573 0.0
N298 N 0.02345 0.74748 0.40913 0.0
N299 N 0.11955 0.91207 0.32087 0.0
C300 C 0.04796 0.78613 0.38701 0.0
C301 C 0.09547 0.86974 0.34184 0.0
N302 N 0.1563 0.8335 0.40385 0.0
N303 N -0.00719 0.80753 0.31999 0.0
H304 H 0.16757 0.94684 0.3199 0.0
H305 H 0.09265 0.9138 0.30483 0.0
H306 H 0.94517 0.77194 0.31984 0.0
H307 H 0.0085 0.82983 0.30134 0.0
H308 H 0.14534 0.79838 0.41834 0.0
H309 H 0.20461 0.86695 0.40306 0.0
H310 H 0.04891 0.75281 0.42681 0.0
H311 H -0.02382 0.71107 0.41021 0.0
C312 C 0.71697 0.90418 0.10113 0.0
C313 C 0.73852 0.94583 0.12359 0.0
C314 C 0.69414 0.85469 0.15431 0.0
C315 C 0.67682 0.81433 0.13175 0.0
N316 N 0.63597 0.80067 0.08648 0.0
N317 N 0.71518 0.95687 0.17025 0.0
C318 C 0.6759 0.8389 0.10602 0.0
C319 C 0.71699 0.92006 0.14995 0.0
N320 N 0.73859 0.92475 0.07553 0.0
N321 N 0.68966 0.83064 0.17968 0.0
H322 H 0.72409 0.00291 0.1668 0.0
H323 H 0.69631 0.93894 0.1893 0.0
H324 H 0.6691 0.78202 0.18325 0.0
H325 H 0.70828 0.85913 0.19667 0.0
H326 H 0.72578 0.89384 0.05928 0.0
H327 H 0.77458 0.97036 0.07086 0.0
H328 H 0.62926 0.81905 0.06847 0.0
H329 H 0.60334 0.75304 0.09001 0.0
C330 C 0.16555 0.23928 0.38747 0.0
C331 C 0.17917 0.21317 0.36472 0.0
C332 C 0.09855 0.22172 0.33831 0.0
C333 C 0.07598 0.23381 0.3626 0.0
N334 N 0.0891 0.26066 0.40986 0.0
N335 N 0.16767 0.18805 0.3174 0.0
C336 C 0.111 0.24656 0.38694 0.0
C337 C 0.14944 0.20849 0.33952 0.0
N338 N 0.20435 0.25573 0.40958 0.0
N339 N 0.06984 0.22144 0.31449 0.0
H340 H 0.20686 0.18105 0.31774 0.0
H341 H 0.14401 0.17718 0.29897 0.0
H342 H 0.03256 0.23147 0.31362 0.0
H343 H 0.08548 0.21614 0.29562 0.0
H344 H 0.20012 0.27943 0.42619 0.0
H345 H 0.24455 0.25029 0.41021 0.0
H346 H 0.10756 0.26249 0.42905 0.0
H347 H 0.05043 0.26854 0.40982 0.0
C348 C 0.07117 0.85541 0.10859 0.0
C349 C 0.10016 0.86255 0.13423 0.0
C350 C -0.00108 0.78034 0.15294 0.0
C351 C 0.96817 0.78147 0.12862 0.0
N352 N -0.02618 0.82681 0.08443 0.0
N353 N 0.09251 0.8345 0.1813 0.0
C354 C 0.00399 0.82013 0.10657 0.0
C355 C 0.06432 0.82549 0.15656 0.0
N356 N 0.10769 0.8831 0.0862 0.0
N357 N 0.96619 0.73496 0.17212 0.0
H358 H 0.1412 0.86475 0.18418 0.0
H359 H 0.06722 0.81455 0.19907 0.0
H360 H 0.91868 0.69998 0.16981 0.0
H361 H -0.01238 0.72823 0.18911 0.0
H362 H 0.08963 0.87369 0.06662 0.0
H363 H 0.15704 0.9104 0.08691 0.0
H364 H -0.00254 0.86002 0.06917 0.0
H365 H 0.92443 0.80382 0.08244 0.0
C366 C 0.75237 0.8495 0.34076 0.0
C367 C 0.71131 0.80631 0.36053 0.0
C368 C 0.70313 0.8899 0.38371 0.0
C369 C 0.75066 0.93416 0.36604 0.0
N370 N 0.80941 0.95769 0.32421 0.0
N371 N 0.62981 0.77921 0.39401 0.0
C372 C 0.77099 0.9143 0.34311 0.0
C373 C 0.67999 0.82448 0.37955 0.0
N374 N 0.77741 0.82857 0.32126 0.0
N375 N 0.68319 0.91071 0.40521 0.0
H376 H 0.61182 0.73101 0.39075 0.0
H377 H 0.60213 0.78889 0.40712 0.0
H378 H 0.69939 0.95858 0.40868 0.0
H379 H 0.65342 0.88124 0.42042 0.0
H380 H 0.81311 0.8578 0.3078 0.0
H381 H 0.76307 0.78069 0.31918 0.0
H382 H 0.82124 0.94594 0.30576 0.0
H383 H 0.82728 0.00618 0.3264 0.0
C384 C 0.28697 0.14113 0.6166 0.0
C385 C 0.26839 0.10262 0.64 0.0
C386 C 0.21724 0.15883 0.65863 0.0
C387 C 0.22528 0.18902 0.63317 0.0
N388 N 0.27514 0.21826 0.5893 0.0
N389 N 0.24136 0.09112 0.68674 0.0
C390 C 0.26363 0.18401 0.61269 0.0
C391 C 0.24216 0.11748 0.66228 0.0
N392 N 0.32642 0.13582 0.59839 0.0
N393 N 0.18272 0.16684 0.67855 0.0
H394 H 0.26278 0.06333 0.68911 0.0
H395 H 0.22614 0.10151 0.70467 0.0
H396 H 0.16432 0.19746 0.67664 0.0
H397 H 0.16981 0.14139 0.69661 0.0
H398 H 0.34545 0.16467 0.58145 0.0
H399 H 0.34412 0.10495 0.60155 0.0
H400 H 0.29865 0.21373 0.57262 0.0
H401 H 0.25997 0.25125 0.58636 0.0
C402 C 0.91495 0.71618 0.87732 0.0
C403 C 0.95577 0.77139 0.86192 0.0
C404 C 0.86486 0.75221 0.83415 0.0
C405 C 0.82371 0.71285 0.85467 0.0
N406 N 0.80757 0.64664 0.89358 0.0
N407 N 0.96613 0.84535 0.82632 0.0
C408 C 0.84791 0.69041 0.87537 0.0
C409 C 0.93029 0.7896 0.83994 0.0
N410 N 0.93991 0.68747 0.89301 0.0
N411 N 0.83993 0.75774 0.81023 0.0
H412 H 0.01246 0.87866 0.83168 0.0
H413 H 0.94712 0.86215 0.81166 0.0
H414 H 0.79108 0.7312 0.80639 0.0
H415 H 0.86807 0.78316 0.79377 0.0
H416 H 0.91223 0.64423 0.90278 0.0
H417 H -0.01149 0.70315 0.89381 0.0
H418 H 0.82308 0.63463 0.91112 0.0
H419 H 0.75831 0.62279 0.89122 0.0
C420 C 0.81412 0.06783 0.59847 0.0
C421 C 0.79621 0.0349 0.62345 0.0
C422 C 0.86253 0.13286 0.64765 0.0
C423 C 0.89159 0.16074 0.62285 0.0
N424 N 0.89321 0.16059 0.57426 0.0
N425 N 0.79928 0.0351 0.67232 0.0
C426 C 0.86567 0.13056 0.59802 0.0
C427 C 0.81772 0.0674 0.64833 0.0
N428 N 0.78196 0.03875 0.57543 0.0
N429 N 0.87944 0.16909 0.67037 0.0
H430 H 0.7664 -0.01306 0.67367 0.0
H431 H 0.81913 0.05522 0.69086 0.0
H432 H 0.912 0.21758 0.66964 0.0
H433 H 0.85707 0.15293 0.68901 0.0
H434 H 0.78974 0.06181 0.55687 0.0
H435 H 0.74323 -0.00726 0.57549 0.0
H436 H 0.88198 0.1384 0.55554 0.0
H437 H 0.9293 0.20788 0.57353 0.0
C438 C 0.1594 0.13068 0.89729 0.0
C439 C 0.16858 0.17208 0.87533 0.0
C440 C 0.21793 0.12306 0.84868 0.0
C441 C 0.21005 0.08284 0.87087 0.0
N442 N 0.18735 0.05781 0.9183 0.0
N443 N 0.2198 0.21859 0.83287 0.0
C444 C 0.18595 0.09024 0.89591 0.0
C445 C 0.20199 0.17164 0.85181 0.0
N446 N 0.12131 0.12634 0.91858 0.0
N447 N 0.23922 0.11378 0.8245 0.0
H448 H 0.21007 0.25567 0.83488 0.0
H449 H 0.24918 0.22419 0.81649 0.0
H450 H 0.25433 0.08066 0.82203 0.0
H451 H 0.23882 0.13645 0.80665 0.0
H452 H 0.10668 0.09152 0.93352 0.0
H453 H 0.09925 0.15371 0.92023 0.0
H454 H 0.17759 0.06717 0.93769 0.0
H455 H 0.20373 0.02548 0.918 0.0
C456 C 0.93669 0.78902 0.66673 0.0
C457 C 0.96237 0.77299 0.64445 0.0
C458 C 0.85964 0.72261 0.62163 0.0
C459 C 0.83566 0.74434 0.64265 0.0
N460 N 0.84193 0.77945 0.68832 0.0
N461 N 0.94627 0.7082 0.60537 0.0
C462 C 0.87117 0.77078 0.66645 0.0
C463 C 0.9228 0.73359 0.62357 0.0
N464 N -0.02432 0.82402 0.68735 0.0
N465 N 0.82414 0.69653 0.59892 0.0
H466 H -0.00705 0.71654 0.60612 0.0
H467 H 0.9183 0.67467 0.59105 0.0
H468 H 0.77694 0.68601 0.59713 0.0
H469 H 0.84207 0.6877 0.58137 0.0
H470 H 0.96168 0.84317 0.70287 0.0
H471 H 0.02338 0.83559 0.68842 0.0
H472 H 0.86357 0.79498 0.70704 0.0
H473 H 0.79356 0.76572 0.68818 0.0
C474 C 0.81268 0.09167 0.85309 0.0
C475 C 0.85166 0.12738 0.87474 0.0
C476 C 0.81559 0.03243 0.90239 0.0
C477 C 0.77759 -0.0038 0.88048 0.0
N478 N 0.72327 -0.00786 0.83887 0.0
N479 N 0.87408 0.13597 0.92256 0.0
C480 C 0.77063 0.02613 0.85701 0.0
C481 C 0.84699 0.09914 0.90038 0.0
N482 N 0.81771 0.1201 0.82863 0.0
N483 N 0.8258 0.00363 0.92413 0.0
H484 H 0.89739 0.18518 0.92179 0.0
H485 H 0.86728 0.11781 0.94214 0.0
H486 H 0.80544 0.95471 0.92611 0.0
H487 H 0.85908 0.02841 0.93913 0.0
H488 H 0.79624 0.09512 0.81109 0.0
H489 H 0.84596 0.16894 0.8258 0.0
H490 H 0.71297 0.01264 0.82251 0.0
H491 H 0.69008 0.94432 0.84171 0.0
C492 C 0.30054 0.11413 0.27323 0.0
C493 C 0.3486 0.10776 0.28692 0.0
C494 C 0.38374 0.0858 0.24381 0.0
C495 C 0.33973 0.0987 0.23009 0.0
N496 N 0.2693 0.14269 0.23156 0.0
N497 N 0.44179 0.09594 0.28532 0.0
C498 C 0.30203 0.11813 0.24475 0.0
C499 C 0.39204 0.096 0.27223 0.0
N500 N 0.25128 0.11297 0.28728 0.0
N501 N 0.41555 0.06148 0.22995 0.0
H502 H 0.44882 0.103 0.30609 0.0
H503 H 0.47869 0.09396 0.27536 0.0
H504 H 0.41025 0.05305 0.20922 0.0
H505 H 0.44323 0.04503 0.23929 0.0
H506 H 0.21163 0.11072 0.27787 0.0
H507 H 0.24635 0.10706 0.30819 0.0
H508 H 0.2461 0.16304 0.24164 0.0
H509 H 0.2713 0.14941 0.21068 0.0
C510 C 0.72875 0.56064 0.26865 0.0
C511 C 0.71145 0.59783 0.2847 0.0
C512 C 0.68579 0.63758 0.24356 0.0
C513 C 0.71324 0.60875 0.22783 0.0
N514 N 0.76966 0.54991 0.22568 0.0
N515 N 0.67897 0.67743 0.28725 0.0
C516 C 0.73666 0.57168 0.24039 0.0
C517 C 0.69067 0.63736 0.27217 0.0
N518 N 0.73641 0.51384 0.2804 0.0
N519 N 0.65375 0.6639 0.23119 0.0
H520 H 0.68096 0.6791 0.30822 0.0
H521 H 0.67197 0.71286 0.2788 0.0
H522 H 0.64887 0.66453 0.21026 0.0
H523 H 0.62688 0.67956 0.24169 0.0
H524 H 0.7431 0.48123 0.26936 0.0
H525 H 0.7291 0.5033 0.30101 0.0
H526 H 0.79356 0.52854 0.23443 0.0
H527 H 0.77862 0.55851 0.20504 0.0
C528 C 0.80153 0.12633 0.23995 0.0
C529 C 0.82671 0.18333 0.22482 0.0
C530 C 0.84312 0.24302 0.26661 0.0
C531 C 0.82596 0.18707 0.28173 0.0
N532 N 0.80242 0.07799 0.28243 0.0
N533 N 0.88066 0.29759 0.2237 0.0
C534 C 0.80866 0.12928 0.26833 0.0
C535 C 0.84983 0.24228 0.23809 0.0
N536 N 0.769 0.06917 0.22731 0.0
N537 N 0.85118 0.2962 0.27935 0.0
H538 H 0.88774 0.29902 0.20288 0.0
H539 H 0.9042 0.34201 0.2327 0.0
H540 H 0.84549 0.29803 0.30015 0.0
H541 H 0.85749 0.33639 0.26904 0.0
H542 H 0.74414 0.02632 0.23772 0.0
H543 H 0.76105 0.06509 0.20654 0.0
H544 H 0.79652 0.03708 0.27313 0.0
H545 H 0.81001 0.07861 0.30314 0.0
C546 C 0.0465 0.29204 0.72581 0.0
C547 C 0.10149 0.34387 0.71416 0.0
C548 C 0.14357 0.38148 0.75937 0.0
C549 C 0.085 0.33447 0.77092 0.0
N550 N -0.02469 0.2539 0.76427 0.0
N551 N 0.19568 0.44579 0.71997 0.0
C552 C 0.03474 0.29236 0.75388 0.0
C553 C 0.14801 0.39108 0.73098 0.0
N554 N 0.00733 0.2407 0.71051 0.0
N555 N 0.19629 0.41441 0.77515 0.0
H556 H 0.19963 0.45531 0.69927 0.0
H557 H 0.22714 0.48426 0.73162 0.0
H558 H 0.19703 0.40623 0.7958 0.0
H559 H 0.24134 0.44469 0.76718 0.0
H560 H 0.97031 0.19919 0.71874 0.0
H561 H 0.01594 0.23668 0.69018 0.0
H562 H 0.93574 0.2267 0.75219 0.0
H563 H 0.96413 0.25425 0.78459 0.0
C564 C 0.26609 0.91998 0.76436 0.0
C565 C 0.2407 0.86145 0.77832 0.0
C566 C 0.23579 0.80927 0.73544 0.0
C567 C 0.24735 0.86485 0.72125 0.0
N568 N 0.26144 0.97057 0.72325 0.0
N569 N 0.19369 0.74729 0.77624 0.0
C570 C 0.26026 0.92001 0.73592 0.0
C571 C 0.22428 0.80514 0.76374 0.0
N572 N 0.29547 0.97562 0.77827 0.0
N573 N 0.23616 0.76063 0.72192 0.0
H574 H 0.1817 0.74102 0.79665 0.0
H575 H 0.1748 0.7048 0.7657 0.0
H576 H 0.24609 0.76298 0.7013 0.0
H577 H 0.23356 0.72133 0.73169 0.0
H578 H 0.31927 0.0197 0.76872 0.0
H579 H 0.30225 0.97724 0.79915 0.0
H580 H 0.2644 0.00905 0.7337 0.0
H581 H 0.25173 0.97081 0.70281 0.0
C582 C 0.6736 0.8306 0.72992 0.0
C583 C 0.62836 0.77599 0.71587 0.0
C584 C 0.59277 0.7176 0.7586 0.0
C585 C 0.63317 0.77428 0.7727 0.0
N586 N 0.69937 0.8883 0.7718 0.0
N587 N 0.53661 0.67106 0.71697 0.0
C588 C 0.66989 0.83192 0.75838 0.0
C589 C 0.5854 0.7204 0.73025 0.0
N590 N 0.72225 0.88 0.71632 0.0
N591 N 0.56371 0.6608 0.772 0.0
H592 H 0.52919 0.67193 0.69625 0.0
H593 H 0.50014 0.63199 0.72687 0.0
H594 H 0.56932 0.65638 0.79264 0.0
H595 H 0.539 0.61744 0.7622 0.0
H596 H 0.75989 0.918 0.72608 0.0
H597 H 0.72903 0.87996 0.69553 0.0
H598 H 0.72147 0.932 0.7619 0.0
H599 H 0.6958 0.89188 0.79264 0.0
C600 C 0.2712 0.94983 0.991 0.0
C601 C 0.216 0.94125 0.97728 0.0
C602 C 0.18641 -0.01804 0.01665 0.0
C603 C 0.24555 -0.00244 0.02887 0.0
N604 N 0.35004 0.00831 0.02503 0.0
N605 N 0.1263 0.9593 0.97511 0.0
C606 C 0.28962 -0.01516 0.01528 0.0
C607 C 0.17481 0.95992 0.98956 0.0
N608 N 0.30499 0.92272 0.98127 0.0
N609 N 0.14024 -0.0144 0.03116 0.0
H610 H 0.11623 0.94404 0.95517 0.0
H611 H 0.09961 -0.0207 0.9821 0.0
H612 H 0.14631 0.00073 0.05114 0.0
H613 H 0.09383 0.96798 0.0242 0.0
H614 H 0.34209 0.92238 0.99186 0.0
H615 H 0.29169 0.89469 0.96399 0.0
H616 H 0.38605 0.00592 0.01447 0.0
H617 H 0.36609 0.03609 0.04231 0.0
C618 C 0.72965 0.68855 0.49525 0.0
C619 C 0.78598 0.7272 0.48017 0.0
C620 C 0.81321 0.81469 0.51161 0.0
C621 C 0.75925 0.77403 0.52747 0.0
N622 N 0.68097 0.66645 0.53936 0.0
N623 N 0.8891 0.82178 0.47779 0.0
C624 C 0.72238 0.70903 0.52092 0.0
C625 C 0.83033 0.78879 0.48953 0.0
N626 N 0.6806 0.63472 0.48449 0.0
N627 N 0.8464 0.87809 0.51682 0.0
H628 H 0.9038 0.80326 0.46219 0.0
H629 H 0.92526 0.86446 0.48533 0.0
H630 H 0.8349 0.89864 0.53269 0.0
H631 H 0.88201 0.91081 0.50412 0.0
H632 H 0.63666 0.60883 0.49414 0.0
H633 H 0.6802 0.61999 0.46475 0.0
H634 H 0.65718 0.61771 0.53614 0.0
H635 H 0.67622 0.67904 0.55899 0.0
C636 C 0.00225 0.3182 0.99196 0.0
C637 C 0.01116 0.2743 0.9766 0.0
C638 C 0.96445 0.19633 0.01336 0.0
C639 C 0.94784 0.23741 0.02701 0.0
N640 N 0.94021 0.33287 0.02649 0.0
N641 N -0.00622 0.16843 0.97086 0.0
C642 C 0.96397 0.29725 0.01557 0.0
C643 C -0.00942 0.21246 0.98681 0.0
N644 N 0.03171 0.38038 0.98424 0.0
N645 N 0.95774 0.14331 0.02608 0.0
H646 H 0.01369 0.17875 0.95153 0.0
H647 H 0.9725 0.12061 0.976 0.0
H648 H 0.93994 0.13043 0.04566 0.0
H649 H -0.02481 0.11526 0.01816 0.0
H650 H 0.03166 0.41584 0.99592 0.0
H651 H 0.06222 0.39736 0.96759 0.0
H652 H 0.94552 0.37398 0.01741 0.0
H653 H 0.90942 0.31799 0.04305 0.0
C654 C 0.16021 0.94848 0.48006 0.0
C655 C 0.19371 0.01573 0.47863 0.0
C656 C 0.19728 0.02195 0.52788 0.0
C657 C 0.16421 0.95455 0.52945 0.0
N658 N 0.09702 0.85503 0.50765 0.0
N659 N 0.22436 0.11484 0.50038 0.0
C660 C 0.13985 0.91828 0.50567 0.0
C661 C 0.20536 0.05185 0.50235 0.0
N662 N 0.1514 0.91338 0.45736 0.0
N663 N 0.22559 0.05779 0.5502 0.0
H664 H 0.23029 0.1377 0.4818 0.0
H665 H 0.22747 0.14245 0.51696 0.0
H666 H 0.22382 0.03908 0.56933 0.0
H667 H 0.25597 0.10654 0.54924 0.0
H668 H 0.13398 0.8647 0.45785 0.0
H669 H 0.16567 0.93316 0.43816 0.0
H670 H 0.07297 0.8271 0.49109 0.0
H671 H 0.0806 0.83207 0.52622 0.0
C672 C 0.72276 0.65117 0.00058 0.0
C673 C 0.71091 0.6791 0.02332 0.0
C674 C 0.66313 0.72479 0.99381 0.0
C675 C 0.68193 0.704 0.97069 0.0
N676 N 0.74872 0.664 0.95304 0.0
N677 N 0.69331 0.76295 0.03901 0.0
C678 C 0.7173 0.67183 0.97424 0.0
C679 C 0.68834 0.7222 0.01917 0.0
N680 N 0.73697 0.60374 0.00379 0.0
N681 N 0.61886 0.74403 0.99215 0.0
H682 H 0.71514 0.7656 0.05753 0.0
H683 H 0.68365 0.79952 0.03519 0.0
H684 H 0.59377 0.74074 0.97453 0.0
H685 H 0.60129 0.75534 0.00922 0.0
H686 H 0.74007 0.57829 0.98754 0.0
H687 H 0.73941 0.58568 0.02261 0.0
H688 H 0.77911 0.64538 0.9554 0.0
H689 H 0.7512 0.68351 0.93399 0.0
C690 C 0.01428 0.27166 0.50629 0.0
C691 C 0.03681 0.23437 0.51933 0.0
C692 C -0.02317 0.14919 0.4868 0.0
C693 C 0.96104 0.19 0.47223 0.0
N694 N -0.01352 0.29818 0.46343 0.0
N695 N 0.05061 0.14251 0.51807 0.0
C696 C -0.01335 0.2538 0.48047 0.0
C697 C 0.02141 0.17442 0.50843 0.0
N698 N 0.01499 0.32175 0.51903 0.0
N699 N 0.94772 0.08622 0.48083 0.0
H700 H 0.08536 0.16071 0.53307 0.0
H701 H 0.04527 0.1014 0.5092 0.0
H702 H 0.91384 0.06581 0.46559 0.0
H703 H 0.95294 0.05343 0.49262 0.0
H704 H -0.00593 0.34654 0.5107 0.0
H705 H 0.02837 0.33333 0.53913 0.0
H706 H 0.00933 0.34623 0.46813 0.0
H707 H 0.97089 0.28848 0.44346 0.0
C708 C 0.57953 0.03557 0.11651 0.0
C709 C 0.61722 0.09097 0.1009 0.0
C710 C 0.52244 0.09639 0.08877 0.0
C711 C 0.48841 0.05082 0.10921 0.0
N712 N 0.48148 0.97372 0.14174 0.0
N713 N 0.6257 0.17381 0.07119 0.0
C714 C 0.51547 0.01814 0.12242 0.0
C715 C 0.5888 0.12033 0.08607 0.0
N716 N 0.6057 0.00051 0.12581 0.0
N717 N 0.49111 0.11748 0.07244 0.0
H718 H 0.67446 0.19224 0.06837 0.0
H719 H 0.60876 0.20198 0.06279 0.0
H720 H 0.44249 0.10141 0.07445 0.0
H721 H 0.51171 0.14629 0.05557 0.0
H722 H 0.57976 0.95704 0.13562 0.0
H723 H 0.65255 0.01241 0.12138 0.0
H724 H 0.50107 0.95353 0.15439 0.0
H725 H 0.43387 0.95908 0.14594 0.0
C726 C 0.55798 0.41304 0.43744 0.0
C727 C 0.5555 0.45914 0.42066 0.0
C728 C 0.44949 0.37984 0.40526 0.0
C729 C 0.46061 0.33186 0.41611 0.0
N730 N 0.52518 0.30243 0.44338 0.0
N731 N 0.48574 0.49258 0.40145 0.0
C732 C 0.514 0.3482 0.43299 0.0
C733 C 0.4969 0.44449 0.40838 0.0
N734 N 0.59952 0.43138 0.45858 0.0
N735 N 0.39432 0.36327 0.39156 0.0
H736 H 0.51741 0.53948 0.4066 0.0
H737 H 0.44302 0.48609 0.39355 0.0
H738 H 0.35663 0.3168 0.39089 0.0
H739 H 0.38598 0.39483 0.38044 0.0
H740 H 0.60026 0.39969 0.47263 0.0
H741 H 0.62617 0.47867 0.46438 0.0
H742 H 0.56775 0.31266 0.45285 0.0
H743 H 0.49418 0.25415 0.44091 0.0
C744 C 0.81934 0.39914 0.14357 0.0
C745 C 0.86061 0.3969 0.12396 0.0
C746 C 0.86703 0.49091 0.10252 0.0
C747 C 0.81427 0.48255 0.11845 0.0
N748 N 0.72781 0.41183 0.14821 0.0
N749 N 0.91862 0.43785 0.08199 0.0
C750 C 0.78685 0.43195 0.13741 0.0
C751 C 0.88363 0.44223 0.10263 0.0
N752 N 0.80984 0.36852 0.16779 0.0
N753 N 0.90289 0.54556 0.08826 0.0
H754 H 0.93182 0.40314 0.08114 0.0
H755 H 0.93032 0.46611 0.06468 0.0
H756 H 0.89541 0.58418 0.08899 0.0
H757 H 0.94466 0.55512 0.07823 0.0
H758 H 0.78246 0.37228 0.18319 0.0
H759 H 0.83521 0.34581 0.17334 0.0
H760 H 0.70543 0.37229 0.16088 0.0
H761 H 0.69777 0.42846 0.14157 0.0
C762 C 0.5505 0.14944 0.41074 0.0
C763 C 0.49738 0.08701 0.41112 0.0
C764 C 0.56895 0.0431 0.41339 0.0
C765 C 0.62135 0.10559 0.41402 0.0
N766 N 0.6617 0.21685 0.42147 0.0
N767 N 0.45471 0.97506 0.41845 0.0
C768 C 0.61184 0.15823 0.41573 0.0
C769 C 0.50613 0.03383 0.41425 0.0
N770 N 0.54339 0.19991 0.40334 0.0
N771 N 0.57949 -0.00694 0.41122 0.0
H772 H 0.40818 0.96711 0.41937 0.0
H773 H 0.4585 0.9353 0.42325 0.0
H774 H 0.62511 -0.00139 0.41203 0.0
H775 H 0.54363 0.94688 0.40749 0.0
H776 H 0.58173 0.24524 0.40008 0.0
H777 H 0.50003 0.19573 0.39753 0.0
H778 H 0.65612 0.25592 0.42533 0.0
H779 H 0.70762 0.22491 0.42507 0.0
C780 C 0.47446 0.33687 0.08822 0.0
C781 C 0.42859 0.30813 0.10904 0.0
C782 C 0.46884 0.40934 0.13212 0.0
C783 C 0.51703 0.43717 0.11221 0.0
N784 N 0.55674 0.43462 0.06797 0.0
N785 N 0.3699 0.31764 0.14633 0.0
C786 C 0.51647 0.40321 0.08899 0.0
C787 C 0.42163 0.34484 0.1295 0.0
N788 N 0.48033 0.30027 0.06882 0.0
N789 N 0.47038 0.44381 0.15411 0.0
H790 H 0.33474 0.27014 0.14491 0.0
H791 H 0.35889 0.34292 0.16014 0.0
H792 H 0.50296 0.49204 0.15591 0.0
H793 H 0.44138 0.4244 0.17102 0.0
H794 H 0.51758 0.31726 0.05493 0.0
H795 H 0.44942 0.2516 0.06743 0.0
H796 H 0.55535 0.41383 0.04947 0.0
H797 H 0.58813 0.48337 0.06824 0.0
C798 C 0.8926 0.48357 0.40459 0.0
C799 C 0.83172 0.47304 0.39678 0.0
C800 C 0.79525 0.36224 0.38767 0.0
C801 C 0.85486 0.37168 0.39686 0.0
N802 N 0.95693 0.43661 0.41772 0.0
N803 N 0.721 0.40156 0.38679 0.0
C804 C 0.90272 0.43104 0.40647 0.0
C805 C 0.78169 0.41205 0.39012 0.0
N806 N 0.94084 0.54378 0.40933 0.0
N807 N 0.75271 0.30659 0.3756 0.0
H808 H 0.70917 0.43727 0.38845 0.0
H809 H 0.68142 0.35658 0.38487 0.0
H810 H 0.76052 0.26831 0.37346 0.0
H811 H 0.71169 0.29993 0.36582 0.0
H812 H -0.01198 0.55536 0.41232 0.0
H813 H 0.93441 0.58316 0.40864 0.0
H814 H -0.00909 0.47713 0.42751 0.0
H815 H 0.96582 0.39881 0.41896 0.0
C816 C 0.18436 0.62943 0.61275 0.0
C817 C 0.14458 0.64751 0.59871 0.0
C818 C 0.0862 0.54223 0.57842 0.0
C819 C 0.1205 0.52244 0.59522 0.0
N820 N 0.1975 0.54402 0.63062 0.0
N821 N 0.05313 0.62016 0.57043 0.0
C822 C 0.16841 0.56518 0.61296 0.0
C823 C 0.09463 0.60394 0.58184 0.0
N824 N 0.2385 0.67399 0.6253 0.0
N825 N 0.04581 0.50208 0.5593 0.0
H826 H 0.05707 0.66453 0.57282 0.0
H827 H 0.01188 0.58819 0.56034 0.0
H828 H 0.03779 0.45608 0.55685 0.0
H829 H 0.02419 0.5158 0.54459 0.0
H830 H 0.27325 0.66465 0.63287 0.0
H831 H 0.25218 0.7219 0.62592 0.0
H832 H 0.22653 0.57123 0.64639 0.0
H833 H 0.18963 0.49778 0.63077 0.0
C834 C 0.41997 0.86176 0.86465 0.0
C835 C 0.41086 0.8925 0.88683 0.0
C836 C 0.49804 0.88889 0.91049 0.0
C837 C 0.4975 0.84706 0.89034 0.0
N838 N 0.44123 0.77872 0.85261 0.0
N839 N 0.4377 0.93197 0.93224 0.0
C840 C 0.45385 0.82935 0.86855 0.0
C841 C 0.4492 0.90569 0.91019 0.0
N842 N 0.39411 0.86165 0.84009 0.0
N843 N 0.54568 0.91414 0.92917 0.0
H844 H 0.40354 0.94632 0.93218 0.0
H845 H 0.45956 0.93617 0.95086 0.0
H846 H 0.58309 0.90441 0.92958 0.0
H847 H 0.55102 0.94911 0.9427 0.0
H848 H 0.40311 0.843 0.8228 0.0
H849 H 0.36972 0.88644 0.83662 0.0
H850 H 0.40596 0.76175 0.83781 0.0
H851 H 0.45955 0.74868 0.85654 0.0
C852 C 0.41966 0.60245 0.59936 0.0
C853 C 0.47303 0.59306 0.59778 0.0
C854 C 0.40281 0.47861 0.59549 0.0
C855 C 0.35005 0.48889 0.59548 0.0
N856 N 0.30783 0.55967 0.59002 0.0
N857 N 0.51685 0.52466 0.58928 0.0
C858 C 0.35842 0.55063 0.59488 0.0
C859 C 0.46514 0.53175 0.59432 0.0
N860 N 0.42687 0.65971 0.60693 0.0
N861 N 0.3932 0.41837 0.59728 0.0
H862 H 0.56313 0.56295 0.58807 0.0
H863 H 0.51345 0.48166 0.5841 0.0
H864 H 0.34788 0.37841 0.59707 0.0
H865 H 0.42975 0.40813 0.60042 0.0
H866 H 0.3886 0.66679 0.61106 0.0
H867 H 0.47069 0.6987 0.61184 0.0
H868 H 0.31246 0.60417 0.58681 0.0
H869 H 0.26209 0.5223 0.58643 0.0
C870 C 0.0435 0.6025 0.86937 0.0
C871 C 0.07942 0.63432 0.89255 0.0
C872 C 0.06021 0.53387 0.91189 0.0
C873 C 0.03736 0.50543 0.88639 0.0
N874 N 0.0023 0.50899 0.84129 0.0
N875 N 0.12165 0.6317 0.93642 0.0
C876 C 0.02641 0.53839 0.86537 0.0
C877 C 0.0863 0.60024 0.91436 0.0
N878 N 0.02611 0.63395 0.85132 0.0
N879 N 0.05821 0.49754 0.93341 0.0
H880 H 0.14114 0.68031 0.93905 0.0
H881 H 0.13494 0.6104 0.95144 0.0
H882 H 0.03965 0.4488 0.93196 0.0
H883 H 0.06908 0.51435 0.9531 0.0
H884 H -0.00454 0.61212 0.83518 0.0
H885 H 0.03789 0.68108 0.85393 0.0
H886 H 0.00035 0.53244 0.82397 0.0
H887 H -0.01372 0.4609 0.83845 0.0
C888 C 0.39492 0.82736 0.58054 0.0
C889 C 0.40418 0.88792 0.58819 0.0
C890 C 0.51894 0.9287 0.59163 0.0
C891 C 0.50891 0.86808 0.58456 0.0
N892 N 0.4426 0.76722 0.56356 0.0
N893 N 0.47585 1e-05 0.59292 0.0
C894 C 0.44874 0.82029 0.57571 0.0
C895 C 0.46666 0.93998 0.59112 0.0
N896 N 0.33548 0.77503 0.58024 0.0
N897 N 0.5781 0.9747 0.59951 0.0
H898 H 0.4384 0.00969 0.59177 0.0
H899 H 0.52065 0.04044 0.59289 0.0
H900 H 0.61802 0.96885 0.59839 0.0
H901 H 0.58708 0.01734 0.60809 0.0
H902 H 0.32766 0.72911 0.57818 0.0
H903 H 0.29378 0.7755 0.5847 0.0
H904 H 0.40078 0.7337 0.55425 0.0
H905 H 0.48093 0.7597 0.56034 0.0
C906 C 0.39037 0.5679 0.85622 0.0
C907 C 0.43595 0.56468 0.87314 0.0
C908 C 0.35058 0.46699 0.89291 0.0
C909 C 0.30483 0.47886 0.88003 0.0
N910 N 0.28541 0.555 0.85604 0.0
N911 N 0.45605 0.51607 0.91214 0.0
C912 C 0.32586 0.53361 0.8636 0.0
C913 C 0.41547 0.51551 0.89281 0.0
N914 N 0.40835 0.60312 0.83298 0.0
N915 N 0.33344 0.40926 0.90412 0.0
H916 H 0.5032 0.55194 0.91389 0.0
H917 H 0.44061 0.48388 0.9282 0.0
H918 H 0.28751 0.37066 0.90303 0.0
H919 H 0.36678 0.39779 0.91166 0.0
H920 H 0.37537 0.60325 0.8194 0.0
H921 H 0.45513 0.62546 0.82578 0.0
H922 H 0.30101 0.59742 0.84546 0.0
H923 H 0.23896 0.53533 0.86338 0.0
loop_
_geom_bond_atom_site_label_1
_geom_bond_atom_site_label_2
_geom_bond_distance
_geom_bond_site_symmetry_2
_ccdc_geom_bond_type
O0 Zn1 1.953 . S
O0 C16 1.225 . S
Zn1 O0 1.953 . S
Zn1 O2 1.949 . S
Zn1 O8 1.919 . S
Zn1 O13 1.924 . S
O2 Zn1 1.949 . S
O2 Zn3 1.923 . S
O2 Zn4 1.950 . S
O2 Zn5 1.945 . S
Zn3 O2 1.923 . S
Zn3 O6 1.933 1_545 S
Zn3 O9 1.941 . S
Zn3 O10 1.965 . S
Zn4 O2 1.950 . S
Zn4 O11 1.938 . S
Zn4 O12 1.906 . S
Zn4 O22 1.953 . S
Zn5 O2 1.945 . S
Zn5 O7 1.932 1_545 S
Zn5 O14 1.977 . S
Zn5 O15 1.910 . S
O6 Zn3 1.933 1_565 S
O6 C17 1.226 . S
O7 Zn5 1.932 1_565 S
O7 C17 1.307 . S
O8 Zn1 1.919 . S
O8 C19 1.253 . S
O9 Zn3 1.941 . S
O9 C19 1.283 . S
O10 Zn3 1.965 . S
O10 C18 1.303 . S
O11 Zn4 1.938 . S
O11 C18 1.247 . S
O12 Zn4 1.906 . S
O12 C20 1.304 . S
O13 Zn1 1.924 . S
O13 C21 1.311 . S
O14 Zn5 1.977 . S
O14 C20 1.272 . S
O15 Zn5 1.910 . S
O15 C21 1.231 . S
C16 O0 1.225 . S
C16 O22 1.298 . S
C17 O6 1.226 . S
C17 O7 1.307 . S
C18 O10 1.303 . S
C18 O11 1.247 . S
C19 O8 1.253 . S
C19 O9 1.283 . S
C20 O12 1.304 . S
C20 O14 1.272 . S
C21 O13 1.311 . S
C21 O15 1.231 . S
O22 Zn4 1.953 . S
O22 C16 1.298 . S
O23 Zn24 1.953 . S
O23 C39 1.225 . S
Zn24 O23 1.953 . S
Zn24 O25 1.949 . S
Zn24 O31 1.919 . S
Zn24 O36 1.924 . S
O25 Zn24 1.949 . S
O25 Zn26 1.923 . S
O25 Zn27 1.950 . S
O25 Zn28 1.945 . S
Zn26 O25 1.923 . S
Zn26 O29 1.933 . S
Zn26 O32 1.941 . S
Zn26 O33 1.965 . S
Zn27 O25 1.950 . S
Zn27 O34 1.938 . S
Zn27 O35 1.906 . S
Zn27 O45 1.953 . S
Zn28 O25 1.945 . S
Zn28 O30 1.932 . S
Zn28 O37 1.977 . S
Zn28 O38 1.910 . S
O29 Zn26 1.933 . S
O29 C40 1.226 . S
O30 Zn28 1.932 . S
O30 C40 1.307 . S
O31 Zn24 1.919 . S
O31 C42 1.253 . S
O32 Zn26 1.941 . S
O32 C42 1.283 . S
O33 Zn26 1.965 . S
O33 C41 1.303 . S
O34 Zn27 1.938 . S
O34 C41 1.247 . S
O35 Zn27 1.906 . S
O35 C43 1.304 . S
O36 Zn24 1.924 . S
O36 C44 1.311 . S
O37 Zn28 1.977 . S
O37 C43 1.272 . S
O38 Zn28 1.910 . S
O38 C44 1.231 . S
C39 O23 1.225 . S
C39 O45 1.298 . S
C40 O29 1.226 . S
C40 O30 1.307 . S
C41 O33 1.303 . S
C41 O34 1.247 . S
C42 O31 1.253 . S
C42 O32 1.283 . S
C43 O35 1.304 . S
C43 O37 1.272 . S
C44 O36 1.311 . S
C44 O38 1.231 . S
O45 Zn27 1.953 . S
O45 C39 1.298 . S
O46 Zn47 1.953 . S
O46 C62 1.225 . S
Zn47 O46 1.953 . S
Zn47 O48 1.949 . S
Zn47 O54 1.919 . S
Zn47 O59 1.924 . S
O48 Zn47 1.949 . S
O48 Zn49 1.923 . S
O48 Zn50 1.950 . S
O48 Zn51 1.945 . S
Zn49 O48 1.923 . S
Zn49 O52 1.933 1_655 S
Zn49 O55 1.941 . S
Zn49 O56 1.965 . S
Zn50 O48 1.950 . S
Zn50 O57 1.938 . S
Zn50 O58 1.906 . S
Zn50 O68 1.953 . S
Zn51 O48 1.945 . S
Zn51 O53 1.932 1_655 S
Zn51 O60 1.977 . S
Zn51 O61 1.910 . S
O52 Zn49 1.933 1_455 S
O52 C63 1.226 . S
O53 Zn51 1.932 1_455 S
O53 C63 1.307 . S
O54 Zn47 1.919 . S
O54 C65 1.253 . S
O55 Zn49 1.941 . S
O55 C65 1.283 . S
O56 Zn49 1.965 . S
O56 C64 1.303 . S
O57 Zn50 1.938 . S
O57 C64 1.247 . S
O58 Zn50 1.906 . S
O58 C66 1.304 . S
O59 Zn47 1.924 . S
O59 C67 1.311 . S
O60 Zn51 1.977 . S
O60 C66 1.272 . S
O61 Zn51 1.910 . S
O61 C67 1.231 . S
C62 O46 1.225 . S
C62 O68 1.298 . S
C63 O52 1.226 . S
C63 O53 1.307 . S
C64 O56 1.303 . S
C64 O57 1.247 . S
C65 O54 1.253 . S
C65 O55 1.283 . S
C66 O58 1.304 . S
C66 O60 1.272 . S
C67 O59 1.311 . S
C67 O61 1.231 . S
O68 Zn50 1.953 . S
O68 C62 1.298 . S
O69 Zn70 1.953 . S
O69 C85 1.225 . S
Zn70 O69 1.953 . S
Zn70 O71 1.949 . S
Zn70 O77 1.919 . S
Zn70 O82 1.924 . S
O71 Zn70 1.949 . S
O71 Zn72 1.923 . S
O71 Zn73 1.950 . S
O71 Zn74 1.945 . S
Zn72 O71 1.923 . S
Zn72 O75 1.933 1_545 S
Zn72 O78 1.941 . S
Zn72 O79 1.965 . S
Zn73 O71 1.950 . S
Zn73 O80 1.938 . S
Zn73 O81 1.906 . S
Zn73 O91 1.953 . S
Zn74 O71 1.945 . S
Zn74 O76 1.932 1_545 S
Zn74 O83 1.977 . S
Zn74 O84 1.910 . S
O75 Zn72 1.933 1_565 S
O75 C86 1.226 . S
O76 Zn74 1.932 1_565 S
O76 C86 1.307 . S
O77 Zn70 1.919 . S
O77 C88 1.253 . S
O78 Zn72 1.941 . S
O78 C88 1.283 . S
O79 Zn72 1.965 . S
O79 C87 1.303 . S
O80 Zn73 1.938 . S
O80 C87 1.247 . S
O81 Zn73 1.906 . S
O81 C89 1.304 . S
O82 Zn70 1.924 . S
O82 C90 1.311 . S
O83 Zn74 1.977 . S
O83 C89 1.272 . S
O84 Zn74 1.910 . S
O84 C90 1.231 . S
C85 O69 1.225 . S
C85 O91 1.298 . S
C86 O75 1.226 . S
C86 O76 1.307 . S
C87 O79 1.303 . S
C87 O80 1.247 . S
C88 O77 1.253 . S
C88 O78 1.283 . S
C89 O81 1.304 . S
C89 O83 1.272 . S
C90 O82 1.311 . S
C90 O84 1.231 . S
O91 Zn73 1.953 . S
O91 C85 1.298 . S
O92 Zn93 1.953 . S
O92 C108 1.225 . S
Zn93 O92 1.953 . S
Zn93 O94 1.949 . S
Zn93 O100 1.919 . S
Zn93 O105 1.924 . S
O94 Zn93 1.949 . S
O94 Zn95 1.923 . S
O94 Zn96 1.950 . S
O94 Zn97 1.945 . S
Zn95 O94 1.923 . S
Zn95 O98 1.933 . S
Zn95 O101 1.941 . S
Zn95 O102 1.965 . S
Zn96 O94 1.950 . S
Zn96 O103 1.938 . S
Zn96 O104 1.906 . S
Zn96 O114 1.953 . S
Zn97 O94 1.945 . S
Zn97 O99 1.932 . S
Zn97 O106 1.977 . S
Zn97 O107 1.910 . S
O98 Zn95 1.933 . S
O98 C109 1.226 . S
O99 Zn97 1.932 . S
O99 C109 1.307 . S
O100 Zn93 1.919 . S
O100 C111 1.253 . S
O101 Zn95 1.941 . S
O101 C111 1.283 . S
O102 Zn95 1.965 . S
O102 C110 1.303 . S
O103 Zn96 1.938 . S
O103 C110 1.247 . S
O104 Zn96 1.906 . S
O104 C112 1.304 . S
O105 Zn93 1.924 . S
O105 C113 1.311 . S
O106 Zn97 1.977 . S
O106 C112 1.272 . S
O107 Zn97 1.910 . S
O107 C113 1.231 . S
C108 O92 1.225 . S
C108 O114 1.298 . S
C109 O98 1.226 . S
C109 O99 1.307 . S
C110 O102 1.303 . S
C110 O103 1.247 . S
C111 O100 1.253 . S
C111 O101 1.283 . S
C112 O104 1.304 . S
C112 O106 1.272 . S
C113 O105 1.311 . S
C113 O107 1.231 . S
O114 Zn96 1.953 . S
O114 C108 1.298 . S
O115 Zn116 1.953 . S
O115 C131 1.225 . S
Zn116 O115 1.953 . S
Zn116 O117 1.949 . S
Zn116 O123 1.919 . S
Zn116 O128 1.924 . S
O117 Zn116 1.949 . S
O117 Zn118 1.923 . S
O117 Zn119 1.950 . S
O117 Zn120 1.945 . S
Zn118 O117 1.923 . S
Zn118 O121 1.933 1_655 S
Zn118 O124 1.941 . S
Zn118 O125 1.965 . S
Zn119 O117 1.950 . S
Zn119 O126 1.938 . S
Zn119 O127 1.906 . S
Zn119 O137 1.953 . S
Zn120 O117 1.945 . S
Zn120 O122 1.932 1_655 S
Zn120 O129 1.977 . S
Zn120 O130 1.910 . S
O121 Zn118 1.933 1_455 S
O121 C132 1.226 . S
O122 Zn120 1.932 1_455 S
O122 C132 1.307 . S
O123 Zn116 1.919 . S
O123 C134 1.253 . S
O124 Zn118 1.941 . S
O124 C134 1.283 . S
O125 Zn118 1.965 . S
O125 C133 1.303 . S
O126 Zn119 1.938 . S
O126 C133 1.247 . S
O127 Zn119 1.906 . S
O127 C135 1.304 . S
O128 Zn116 1.924 . S
O128 C136 1.311 . S
O129 Zn120 1.977 . S
O129 C135 1.272 . S
O130 Zn120 1.910 . S
O130 C136 1.231 . S
C131 O115 1.225 . S
C131 O137 1.298 . S
C132 O121 1.226 . S
C132 O122 1.307 . S
C133 O125 1.303 . S
C133 O126 1.247 . S
C134 O123 1.253 . S
C134 O124 1.283 . S
C135 O127 1.304 . S
C135 O129 1.272 . S
C136 O128 1.311 . S
C136 O130 1.231 . S
O137 Zn119 1.953 . S
O137 C131 1.298 . S
O138 Zn139 1.953 . S
O138 C154 1.225 . S
Zn139 O138 1.953 . S
Zn139 O140 1.949 . S
Zn139 O146 1.919 . S
Zn139 O151 1.924 . S
O140 Zn139 1.949 . S
O140 Zn141 1.923 . S
O140 Zn142 1.950 . S
O140 Zn143 1.945 . S
Zn141 O140 1.923 . S
Zn141 O144 1.933 1_455 S
Zn141 O147 1.941 . S
Zn141 O148 1.965 . S
Zn142 O140 1.950 . S
Zn142 O149 1.938 . S
Zn142 O150 1.906 . S
Zn142 O160 1.953 . S
Zn143 O140 1.945 . S
Zn143 O145 1.932 1_455 S
Zn143 O152 1.977 . S
Zn143 O153 1.910 . S
O144 Zn141 1.933 1_655 S
O144 C155 1.226 . S
O145 Zn143 1.932 1_655 S
O145 C155 1.307 . S
O146 Zn139 1.919 . S
O146 C157 1.253 . S
O147 Zn141 1.941 . S
O147 C157 1.283 . S
O148 Zn141 1.965 . S
O148 C156 1.303 . S
O149 Zn142 1.938 . S
O149 C156 1.247 . S
O150 Zn142 1.906 . S
O150 C158 1.304 . S
O151 Zn139 1.924 . S
O151 C159 1.311 . S
O152 Zn143 1.977 . S
O152 C158 1.272 . S
O153 Zn143 1.910 . S
O153 C159 1.231 . S
C154 O138 1.225 . S
C154 O160 1.298 . S
C155 O144 1.226 . S
C155 O145 1.307 . S
C156 O148 1.303 . S
C156 O149 1.247 . S
C157 O146 1.253 . S
C157 O147 1.283 . S
C158 O150 1.304 . S
C158 O152 1.272 . S
C159 O151 1.311 . S
C159 O153 1.231 . S
O160 Zn142 1.953 . S
O160 C154 1.298 . S
O161 Zn162 1.953 . S
O161 C177 1.225 . S
Zn162 O161 1.953 . S
Zn162 O163 1.949 . S
Zn162 O169 1.919 . S
Zn162 O174 1.924 . S
O163 Zn162 1.949 . S
O163 Zn164 1.923 . S
O163 Zn165 1.950 . S
O163 Zn166 1.945 . S
Zn164 O163 1.923 . S
Zn164 O167 1.933 1_565 S
Zn164 O170 1.941 . S
Zn164 O171 1.965 . S
Zn165 O163 1.950 . S
Zn165 O172 1.938 . S
Zn165 O173 1.906 . S
Zn165 O183 1.953 . S
Zn166 O163 1.945 . S
Zn166 O168 1.932 1_565 S
Zn166 O175 1.977 . S
Zn166 O176 1.910 . S
O167 Zn164 1.933 1_545 S
O167 C178 1.226 . S
O168 Zn166 1.932 1_545 S
O168 C178 1.307 . S
O169 Zn162 1.919 . S
O169 C180 1.253 . S
O170 Zn164 1.941 . S
O170 C180 1.283 . S
O171 Zn164 1.965 . S
O171 C179 1.303 . S
O172 Zn165 1.938 . S
O172 C179 1.247 . S
O173 Zn165 1.906 . S
O173 C181 1.304 . S
O174 Zn162 1.924 . S
O174 C182 1.311 . S
O175 Zn166 1.977 . S
O175 C181 1.272 . S
O176 Zn166 1.910 . S
O176 C182 1.231 . S
C177 O161 1.225 . S
C177 O183 1.298 . S
C178 O167 1.226 . S
C178 O168 1.307 . S
C179 O171 1.303 . S
C179 O172 1.247 . S
C180 O169 1.253 . S
C180 O170 1.283 . S
C181 O173 1.304 . S
C181 O175 1.272 . S
C182 O174 1.311 . S
C182 O176 1.231 . S
O183 Zn165 1.953 . S
O183 C177 1.298 . S
O184 Zn185 1.953 . S
O184 C200 1.225 . S
Zn185 O184 1.953 . S
Zn185 O186 1.949 . S
Zn185 O192 1.919 . S
Zn185 O197 1.924 . S
O186 Zn185 1.949 . S
O186 Zn187 1.923 . S
O186 Zn188 1.950 . S
O186 Zn189 1.945 . S
Zn187 O186 1.923 . S
Zn187 O190 1.933 . S
Zn187 O193 1.941 . S
Zn187 O194 1.965 . S
Zn188 O186 1.950 . S
Zn188 O195 1.938 . S
Zn188 O196 1.906 . S
Zn188 O206 1.953 . S
Zn189 O186 1.945 . S
Zn189 O191 1.932 . S
Zn189 O198 1.977 . S
Zn189 O199 1.910 . S
O190 Zn187 1.933 . S
O190 C201 1.226 . S
O191 Zn189 1.932 . S
O191 C201 1.307 . S
O192 Zn185 1.919 . S
O192 C203 1.253 . S
O193 Zn187 1.941 . S
O193 C203 1.283 . S
O194 Zn187 1.965 . S
O194 C202 1.303 . S
O195 Zn188 1.938 . S
O195 C202 1.247 . S
O196 Zn188 1.906 . S
O196 C204 1.304 . S
O197 Zn185 1.924 . S
O197 C205 1.311 . S
O198 Zn189 1.977 . S
O198 C204 1.272 . S
O199 Zn189 1.910 . S
O199 C205 1.231 . S
C200 O184 1.225 . S
C200 O206 1.298 . S
C201 O190 1.226 . S
C201 O191 1.307 . S
C202 O194 1.303 . S
C202 O195 1.247 . S
C203 O192 1.253 . S
C203 O193 1.283 . S
C204 O196 1.304 . S
C204 O198 1.272 . S
C205 O197 1.311 . S
C205 O199 1.231 . S
O206 Zn188 1.953 . S
O206 C200 1.298 . S
O207 Zn208 1.953 . S
O207 C223 1.225 . S
Zn208 O207 1.953 . S
Zn208 O209 1.949 . S
Zn208 O215 1.919 . S
Zn208 O220 1.924 . S
O209 Zn208 1.949 . S
O209 Zn210 1.923 . S
O209 Zn211 1.950 . S
O209 Zn212 1.945 . S
Zn210 O209 1.923 . S
Zn210 O213 1.933 1_455 S
Zn210 O216 1.941 . S
Zn210 O217 1.965 . S
Zn211 O209 1.950 . S
Zn211 O218 1.938 . S
Zn211 O219 1.906 . S
Zn211 O229 1.953 . S
Zn212 O209 1.945 . S
Zn212 O214 1.932 1_455 S
Zn212 O221 1.977 . S
Zn212 O222 1.910 . S
O213 Zn210 1.933 1_655 S
O213 C224 1.226 . S
O214 Zn212 1.932 1_655 S
O214 C224 1.307 . S
O215 Zn208 1.919 . S
O215 C226 1.253 . S
O216 Zn210 1.941 . S
O216 C226 1.283 . S
O217 Zn210 1.965 . S
O217 C225 1.303 . S
O218 Zn211 1.938 . S
O218 C225 1.247 . S
O219 Zn211 1.906 . S
O219 C227 1.304 . S
O220 Zn208 1.924 . S
O220 C228 1.311 . S
O221 Zn212 1.977 . S
O221 C227 1.272 . S
O222 Zn212 1.910 . S
O222 C228 1.231 . S
C223 O207 1.225 . S
C223 O229 1.298 . S
C224 O213 1.226 . S
C224 O214 1.307 . S
C225 O217 1.303 . S
C225 O218 1.247 . S
C226 O215 1.253 . S
C226 O216 1.283 . S
C227 O219 1.304 . S
C227 O221 1.272 . S
C228 O220 1.311 . S
C228 O222 1.231 . S
O229 Zn211 1.953 . S
O229 C223 1.298 . S
O230 Zn231 1.953 . S
O230 C246 1.225 . S
Zn231 O230 1.953 . S
Zn231 O232 1.949 . S
Zn231 O238 1.919 . S
Zn231 O243 1.924 . S
O232 Zn231 1.949 . S
O232 Zn233 1.923 . S
O232 Zn234 1.950 . S
O232 Zn235 1.945 . S
Zn233 O232 1.923 . S
Zn233 O236 1.933 1_565 S
Zn233 O239 1.941 . S
Zn233 O240 1.965 . S
Zn234 O232 1.950 . S
Zn234 O241 1.938 . S
Zn234 O242 1.906 . S
Zn234 O252 1.953 . S
Zn235 O232 1.945 . S
Zn235 O237 1.932 1_565 S
Zn235 O244 1.977 . S
Zn235 O245 1.910 . S
O236 Zn233 1.933 1_545 S
O236 C247 1.226 . S
O237 Zn235 1.932 1_545 S
O237 C247 1.307 . S
O238 Zn231 1.919 . S
O238 C249 1.253 . S
O239 Zn233 1.941 . S
O239 C249 1.283 . S
O240 Zn233 1.965 . S
O240 C248 1.303 . S
O241 Zn234 1.938 . S
O241 C248 1.247 . S
O242 Zn234 1.906 . S
O242 C250 1.304 . S
O243 Zn231 1.924 . S
O243 C251 1.311 . S
O244 Zn235 1.977 . S
O244 C250 1.272 . S
O245 Zn235 1.910 . S
O245 C251 1.231 . S
C246 O230 1.225 . S
C246 O252 1.298 . S
C247 O236 1.226 . S
C247 O237 1.307 . S
C248 O240 1.303 . S
C248 O241 1.247 . S
C249 O238 1.253 . S
C249 O239 1.283 . S
C250 O242 1.304 . S
C250 O244 1.272 . S
C251 O243 1.311 . S
C251 O245 1.231 . S
O252 Zn234 1.953 . S
O252 C246 1.298 . S
O253 Zn254 1.953 . S
O253 C269 1.225 . S
Zn254 O253 1.953 . S
Zn254 O255 1.949 . S
Zn254 O261 1.919 . S
Zn254 O266 1.924 . S
O255 Zn254 1.949 . S
O255 Zn256 1.923 . S
O255 Zn257 1.950 . S
O255 Zn258 1.945 . S
Zn256 O255 1.923 . S
Zn256 O259 1.933 . S
Zn256 O262 1.941 . S
Zn256 O263 1.965 . S
Zn257 O255 1.950 . S
Zn257 O264 1.938 . S
Zn257 O265 1.906 . S
Zn257 O275 1.953 . S
Zn258 O255 1.945 . S
Zn258 O260 1.932 . S
Zn258 O267 1.977 . S
Zn258 O268 1.910 . S
O259 Zn256 1.933 . S
O259 C270 1.226 . S
O260 Zn258 1.932 . S
O260 C270 1.307 . S
O261 Zn254 1.919 . S
O261 C272 1.253 . S
O262 Zn256 1.941 . S
O262 C272 1.283 . S
O263 Zn256 1.965 . S
O263 C271 1.303 . S
O264 Zn257 1.938 . S
O264 C271 1.247 . S
O265 Zn257 1.906 . S
O265 C273 1.304 . S
O266 Zn254 1.924 . S
O266 C274 1.311 . S
O267 Zn258 1.977 . S
O267 C273 1.272 . S
O268 Zn258 1.910 . S
O268 C274 1.231 . S
C269 O253 1.225 . S
C269 O275 1.298 . S
C270 O259 1.226 . S
C270 O260 1.307 . S
C271 O263 1.303 . S
C271 O264 1.247 . S
C272 O261 1.253 . S
C272 O262 1.283 . S
C273 O265 1.304 . S
C273 O267 1.272 . S
C274 O266 1.311 . S
C274 O268 1.231 . S
O275 Zn257 1.953 . S
O275 C269 1.298 . S
C276 C277 1.363 . S
C276 C282 1.379 . S
C276 N284 1.356 . S
C277 C276 1.363 . S
C277 C283 1.363 . S
C278 C279 1.363 . S
C278 C283 1.379 . S
C278 N285 1.356 . S
C279 C278 1.363 . S
C279 C282 1.363 . S
N280 C282 1.356 . S
N280 H292 0.984 . S
N280 H293 0.985 . S
N281 C283 1.356 . S
N281 H286 0.984 . S
N281 H287 0.985 . S
C282 C276 1.379 . S
C282 C279 1.363 . S
C282 N280 1.356 . S
C283 C277 1.363 . S
C283 C278 1.379 . S
C283 N281 1.356 . S
N284 C276 1.356 . S
N284 H290 0.984 . S
N284 H291 0.984 . S
N285 C278 1.356 . S
N285 H288 0.984 . S
N285 H289 0.985 . S
H286 N281 0.984 . S
H287 N281 0.985 . S
H288 N285 0.984 . S
H289 N285 0.985 . S
H290 N284 0.984 . S
H291 N284 0.984 . S
H292 N280 0.984 . S
H293 N280 0.985 . S
C294 C295 1.363 . S
C294 C300 1.379 . S
C294 N302 1.356 . S
C295 C294 1.363 . S
C295 C301 1.363 . S
C296 C297 1.363 . S
C296 C301 1.379 . S
C296 N303 1.356 1_455 S
C297 C296 1.363 . S
C297 C300 1.363 . S
N298 C300 1.356 . S
N298 H310 0.984 . S
N298 H311 0.985 1_455 S
N299 C301 1.356 . S
N299 H304 0.984 . S
N299 H305 0.985 . S
C300 C294 1.379 . S
C300 C297 1.363 . S
C300 N298 1.356 . S
C301 C295 1.363 . S
C301 C296 1.379 . S
C301 N299 1.356 . S
N302 C294 1.356 . S
N302 H308 0.984 . S
N302 H309 0.984 . S
N303 C296 1.356 1_655 S
N303 H306 0.984 . S
N303 H307 0.985 . S
H304 N299 0.984 . S
H305 N299 0.985 . S
H306 N303 0.984 . S
H307 N303 0.985 . S
H308 N302 0.984 . S
H309 N302 0.984 . S
H310 N298 0.984 . S
H311 N298 0.985 1_655 S
C312 C313 1.363 . S
C312 C318 1.379 . S
C312 N320 1.356 . S
C313 C312 1.363 . S
C313 C319 1.363 . S
C314 C315 1.363 . S
C314 C319 1.379 . S
C314 N321 1.356 . S
C315 C314 1.363 . S
C315 C318 1.363 . S
N316 C318 1.356 . S
N316 H328 0.984 . S
N316 H329 0.985 . S
N317 C319 1.356 1_545 S
N317 H322 0.984 . S
N317 H323 0.985 . S
C318 C312 1.379 . S
C318 C315 1.363 . S
C318 N316 1.356 . S
C319 C313 1.363 . S
C319 C314 1.379 . S
C319 N317 1.356 1_565 S
N320 C312 1.356 . S
N320 H326 0.984 . S
N320 H327 0.984 1_565 S
N321 C314 1.356 . S
N321 H324 0.984 . S
N321 H325 0.985 . S
H322 N317 0.984 . S
H323 N317 0.985 . S
H324 N321 0.984 . S
H325 N321 0.985 . S
H326 N320 0.984 . S
H327 N320 0.984 1_545 S
H328 N316 0.984 . S
H329 N316 0.985 . S
C330 C331 1.363 . S
C330 C336 1.379 . S
C330 N338 1.356 . S
C331 C330 1.363 . S
C331 C337 1.363 . S
C332 C333 1.363 . S
C332 C337 1.379 . S
C332 N339 1.356 . S
C333 C332 1.363 . S
C333 C336 1.363 . S
N334 C336 1.356 . S
N334 H346 0.984 . S
N334 H347 0.985 . S
N335 C337 1.356 . S
N335 H340 0.984 . S
N335 H341 0.985 . S
C336 C330 1.379 . S
C336 C333 1.363 . S
C336 N334 1.356 . S
C337 C331 1.363 . S
C337 C332 1.379 . S
C337 N335 1.356 . S
N338 C330 1.356 . S
N338 H344 0.984 . S
N338 H345 0.984 . S
N339 C332 1.356 . S
N339 H342 0.984 . S
N339 H343 0.985 . S
H340 N335 0.984 . S
H341 N335 0.985 . S
H342 N339 0.984 . S
H343 N339 0.985 . S
H344 N338 0.984 . S
H345 N338 0.984 . S
H346 N334 0.984 . S
H347 N334 0.985 . S
C348 C349 1.363 . S
C348 C354 1.379 . S
C348 N356 1.356 . S
C349 C348 1.363 . S
C349 C355 1.363 . S
C350 C351 1.363 . S
C350 C355 1.379 . S
C350 N357 1.356 . S
C351 C350 1.363 . S
C351 C354 1.363 . S
N352 C354 1.343 1_655 S
N352 H364 0.988 1_655 S
N352 H365 0.994 . S
N353 C355 1.356 . S
N353 H358 0.984 . S
N353 H359 0.985 . S
C354 C348 1.379 . S
C354 C351 1.363 . S
C354 N352 1.343 1_455 S
C355 C349 1.363 . S
C355 C350 1.379 . S
C355 N353 1.356 . S
N356 C348 1.356 . S
N356 H362 0.984 . S
N356 H363 0.984 . S
N357 C350 1.356 . S
N357 H360 0.984 1_455 S
N357 H361 0.985 . S
H358 N353 0.984 . S
H359 N353 0.985 . S
H360 N357 0.984 1_655 S
H361 N357 0.985 . S
H362 N356 0.984 . S
H363 N356 0.984 . S
H364 N352 0.988 1_455 S
H365 N352 0.994 . S
C366 C367 1.363 . S
C366 C372 1.379 . S
C366 N374 1.356 . S
C367 C366 1.363 . S
C367 C373 1.363 . S
C368 C369 1.363 . S
C368 C373 1.379 . S
C368 N375 1.356 . S
C369 C368 1.363 . S
C369 C372 1.363 . S
N370 C372 1.356 1_545 S
N370 H382 0.984 . S
N370 H383 0.985 . S
N371 C373 1.356 . S
N371 H376 0.984 . S
N371 H377 0.985 . S
C372 C366 1.379 . S
C372 C369 1.363 . S
C372 N370 1.356 1_565 S
C373 C367 1.363 . S
C373 C368 1.379 . S
C373 N371 1.356 . S
N374 C366 1.356 . S
N374 H380 0.984 . S
N374 H381 0.984 . S
N375 C368 1.356 . S
N375 H378 0.984 1_565 S
N375 H379 0.985 . S
H376 N371 0.984 . S
H377 N371 0.985 . S
H378 N375 0.984 1_545 S
H379 N375 0.985 . S
H380 N374 0.984 . S
H381 N374 0.984 . S
H382 N370 0.984 . S
H383 N370 0.985 . S
C384 C385 1.363 . S
C384 C390 1.379 . S
C384 N392 1.356 . S
C385 C384 1.363 . S
C385 C391 1.363 . S
C386 C387 1.363 . S
C386 C391 1.379 . S
C386 N393 1.356 . S
C387 C386 1.363 . S
C387 C390 1.363 . S
N388 C390 1.356 . S
N388 H400 0.984 . S
N388 H401 0.985 . S
N389 C391 1.356 . S
N389 H394 0.984 . S
N389 H395 0.985 . S
C390 C384 1.379 . S
C390 C387 1.363 . S
C390 N388 1.356 . S
C391 C385 1.363 . S
C391 C386 1.379 . S
C391 N389 1.356 . S
N392 C384 1.356 . S
N392 H398 0.984 . S
N392 H399 0.984 . S
N393 C386 1.356 . S
N393 H396 0.984 . S
N393 H397 0.985 . S
H394 N389 0.984 . S
H395 N389 0.985 . S
H396 N393 0.984 . S
H397 N393 0.985 . S
H398 N392 0.984 . S
H399 N392 0.984 . S
H400 N388 0.984 . S
H401 N388 0.985 . S
C402 C403 1.363 . S
C402 C408 1.379 . S
C402 N410 1.356 . S
C403 C402 1.363 . S
C403 C409 1.363 . S
C404 C405 1.363 . S
C404 C409 1.379 . S
C404 N411 1.356 . S
C405 C404 1.363 . S
C405 C408 1.363 . S
N406 C408 1.356 . S
N406 H418 0.984 . S
N406 H419 0.985 . S
N407 C409 1.356 1_455 S
N407 H412 0.984 . S
N407 H413 0.985 . S
C408 C402 1.379 . S
C408 C405 1.363 . S
C408 N406 1.356 . S
C409 C403 1.363 . S
C409 C404 1.379 . S
C409 N407 1.356 1_655 S
N410 C402 1.356 . S
N410 H416 0.984 . S
N410 H417 0.984 1_655 S
N411 C404 1.356 . S
N411 H414 0.984 . S
N411 H415 0.985 . S
H412 N407 0.984 . S
H413 N407 0.985 . S
H414 N411 0.984 . S
H415 N411 0.985 . S
H416 N410 0.984 . S
H417 N410 0.984 1_455 S
H418 N406 0.984 . S
H419 N406 0.985 . S
C420 C421 1.363 . S
C420 C426 1.379 . S
C420 N428 1.356 . S
C421 C420 1.363 . S
C421 C427 1.363 . S
C422 C423 1.363 . S
C422 C427 1.379 . S
C422 N429 1.356 . S
C423 C422 1.363 . S
C423 C426 1.363 . S
N424 C426 1.356 . S
N424 H436 0.984 . S
N424 H437 0.985 . S
N425 C427 1.356 1_565 S
N425 H430 0.984 . S
N425 H431 0.987 . S
C426 C420 1.379 . S
C426 C423 1.363 . S
C426 N424 1.356 . S
C427 C421 1.363 . S
C427 C422 1.379 . S
C427 N425 1.356 1_545 S
N428 C420 1.356 . S
N428 H434 0.984 . S
N428 H435 0.984 1_545 S
N429 C422 1.356 . S
N429 H432 0.984 . S
N429 H433 0.985 . S
H430 N425 0.984 . S
H431 N425 0.987 . S
H432 N429 0.984 . S
H433 N429 0.985 . S
H434 N428 0.984 . S
H435 N428 0.984 1_565 S
H436 N424 0.984 . S
H437 N424 0.985 . S
C438 C439 1.363 . S
C438 C444 1.379 . S
C438 N446 1.356 . S
C439 C438 1.363 . S
C439 C445 1.363 . S
C440 C441 1.363 . S
C440 C445 1.379 . S
C440 N447 1.356 . S
C441 C440 1.363 . S
C441 C444 1.363 . S
N442 C444 1.356 . S
N442 H454 0.984 . S
N442 H455 0.985 . S
N443 C445 1.356 . S
N443 H448 0.984 . S
N443 H449 0.985 . S
C444 C438 1.379 . S
C444 C441 1.363 . S
C444 N442 1.356 . S
C445 C439 1.363 . S
C445 C440 1.379 . S
C445 N443 1.356 . S
N446 C438 1.356 . S
N446 H452 0.984 . S
N446 H453 0.984 . S
N447 C440 1.356 . S
N447 H450 0.984 . S
N447 H451 0.985 . S
H448 N443 0.984 . S
H449 N443 0.985 . S
H450 N447 0.984 . S
H451 N447 0.985 . S
H452 N446 0.984 . S
H453 N446 0.984 . S
H454 N442 0.984 . S
H455 N442 0.985 . S
C456 C457 1.363 . S
C456 C462 1.379 . S
C456 N464 1.356 1_655 S
C457 C456 1.363 . S
C457 C463 1.363 . S
C458 C459 1.363 . S
C458 C463 1.379 . S
C458 N465 1.356 . S
C459 C458 1.363 . S
C459 C462 1.363 . S
N460 C462 1.356 . S
N460 H472 0.984 . S
N460 H473 0.985 . S
N461 C463 1.356 . S
N461 H466 0.984 1_655 S
N461 H467 0.985 . S
C462 C456 1.379 . S
C462 C459 1.363 . S
C462 N460 1.356 . S
C463 C457 1.363 . S
C463 C458 1.379 . S
C463 N461 1.356 . S
N464 C456 1.356 1_455 S
N464 H470 0.984 . S
N464 H471 0.984 . S
N465 C458 1.356 . S
N465 H468 0.984 . S
N465 H469 0.985 . S
H466 N461 0.984 1_455 S
H467 N461 0.985 . S
H468 N465 0.984 . S
H469 N465 0.985 . S
H470 N464 0.984 . S
H471 N464 0.984 . S
H472 N460 0.984 . S
H473 N460 0.985 . S
C474 C475 1.363 . S
C474 C480 1.379 . S
C474 N482 1.356 . S
C475 C474 1.363 . S
C475 C481 1.363 . S
C476 C477 1.363 . S
C476 C481 1.379 . S
C476 N483 1.356 . S
C477 C476 1.363 . S
C477 C480 1.363 . S
N478 C480 1.356 1_565 S
N478 H490 0.984 1_565 S
N478 H491 0.985 . S
N479 C481 1.356 . S
N479 H484 0.984 . S
N479 H485 0.985 . S
C480 C474 1.379 . S
C480 C477 1.363 . S
C480 N478 1.356 1_545 S
C481 C475 1.363 . S
C481 C476 1.379 . S
C481 N479 1.356 . S
N482 C474 1.356 . S
N482 H488 0.984 . S
N482 H489 0.984 . S
N483 C476 1.356 . S
N483 H486 0.984 1_545 S
N483 H487 0.985 . S
H484 N479 0.984 . S
H485 N479 0.985 . S
H486 N483 0.984 1_565 S
H487 N483 0.985 . S
H488 N482 0.984 . S
H489 N482 0.984 . S
H490 N478 0.984 1_545 S
H491 N478 0.985 . S
C492 C493 1.363 . S
C492 C498 1.379 . S
C492 N500 1.356 . S
C493 C492 1.363 . S
C493 C499 1.363 . S
C494 C495 1.363 . S
C494 C499 1.379 . S
C494 N501 1.356 . S
C495 C494 1.363 . S
C495 C498 1.363 . S
N496 C498 1.356 . S
N496 H508 0.984 . S
N496 H509 0.985 . S
N497 C499 1.356 . S
N497 H502 0.984 . S
N497 H503 0.985 1_545 S
C498 C492 1.379 . S
C498 C495 1.363 . S
C498 N496 1.356 . S
C499 C493 1.363 . S
C499 C494 1.379 . S
C499 N497 1.356 . S
N500 C492 1.356 . S
N500 H506 0.984 . S
N500 H507 0.984 . S
N501 C494 1.356 . S
N501 H504 0.984 . S
N501 H505 0.985 1_545 S
H502 N497 0.984 . S
H503 N497 0.985 1_565 S
H504 N501 0.984 . S
H505 N501 0.985 1_565 S
H506 N500 0.984 . S
H507 N500 0.984 . S
H508 N496 0.984 . S
H509 N496 0.985 . S
C510 C511 1.363 . S
C510 C516 1.379 . S
C510 N518 1.356 . S
C511 C510 1.363 . S
C511 C517 1.363 . S
C512 C513 1.363 . S
C512 C517 1.379 . S
C512 N519 1.356 . S
C513 C512 1.363 . S
C513 C516 1.363 . S
N514 C516 1.356 . S
N514 H526 0.984 . S
N514 H527 0.985 . S
N515 C517 1.356 . S
N515 H520 0.984 . S
N515 H521 0.985 . S
C516 C510 1.379 . S
C516 C513 1.363 . S
C516 N514 1.356 . S
C517 C511 1.363 . S
C517 C512 1.379 . S
C517 N515 1.356 . S
N518 C510 1.356 . S
N518 H524 0.984 . S
N518 H525 0.984 . S
N519 C512 1.356 . S
N519 H522 0.984 . S
N519 H523 0.985 . S
H520 N515 0.984 . S
H521 N515 0.985 . S
H522 N519 0.984 . S
H523 N519 0.985 . S
H524 N518 0.984 . S
H525 N518 0.984 . S
H526 N514 0.984 . S
H527 N514 0.985 . S
C528 C529 1.363 . S
C528 C534 1.379 . S
C528 N536 1.356 . S
C529 C528 1.363 . S
C529 C535 1.363 . S
C530 C531 1.363 . S
C530 C535 1.379 . S
C530 N537 1.356 . S
C531 C530 1.363 . S
C531 C534 1.363 . S
N532 C534 1.356 . S
N532 H544 0.984 . S
N532 H545 0.985 . S
N533 C535 1.356 . S
N533 H538 0.984 . S
N533 H539 0.985 1_655 S
C534 C528 1.379 . S
C534 C531 1.363 . S
C534 N532 1.356 . S
C535 C529 1.363 . S
C535 C530 1.379 . S
C535 N533 1.356 . S
N536 C528 1.356 . S
N536 H542 0.984 . S
N536 H543 0.984 . S
N537 C530 1.356 . S
N537 H540 0.984 . S
N537 H541 0.985 1_655 S
H538 N533 0.984 . S
H539 N533 0.985 1_455 S
H540 N537 0.984 . S
H541 N537 0.985 1_455 S
H542 N536 0.984 . S
H543 N536 0.984 . S
H544 N532 0.984 . S
H545 N532 0.985 . S
C546 C547 1.363 . S
C546 C552 1.379 . S
C546 N554 1.356 . S
C547 C546 1.363 . S
C547 C553 1.363 . S
C548 C549 1.363 . S
C548 C553 1.379 . S
C548 N555 1.356 . S
C549 C548 1.363 . S
C549 C552 1.363 . S
N550 C552 1.356 . S
N550 H562 0.984 1_455 S
N550 H563 0.985 . S
N551 C553 1.356 . S
N551 H556 0.984 . S
N551 H557 0.985 . S
C552 C546 1.379 . S
C552 C549 1.363 . S
C552 N550 1.356 . S
C553 C547 1.363 . S
C553 C548 1.379 . S
C553 N551 1.356 . S
N554 C546 1.356 . S
N554 H560 0.984 1_455 S
N554 H561 0.984 . S
N555 C548 1.356 . S
N555 H558 0.984 . S
N555 H559 0.985 . S
H556 N551 0.984 . S
H557 N551 0.985 . S
H558 N555 0.984 . S
H559 N555 0.985 . S
H560 N554 0.984 1_655 S
H561 N554 0.984 . S
H562 N550 0.984 1_655 S
H563 N550 0.985 . S
C564 C565 1.363 . S
C564 C570 1.379 . S
C564 N572 1.356 . S
C565 C564 1.363 . S
C565 C571 1.363 . S
C566 C567 1.363 . S
C566 C571 1.379 . S
C566 N573 1.356 . S
C567 C566 1.363 . S
C567 C570 1.363 . S
N568 C570 1.356 . S
N568 H580 0.984 1_565 S
N568 H581 0.985 . S
N569 C571 1.356 . S
N569 H574 0.984 . S
N569 H575 0.985 . S
C570 C564 1.379 . S
C570 C567 1.363 . S
C570 N568 1.356 . S
C571 C565 1.363 . S
C571 C566 1.379 . S
C571 N569 1.356 . S
N572 C564 1.356 . S
N572 H578 0.984 1_565 S
N572 H579 0.984 . S
N573 C566 1.356 . S
N573 H576 0.984 . S
N573 H577 0.985 . S
H574 N569 0.984 . S
H575 N569 0.985 . S
H576 N573 0.984 . S
H577 N573 0.985 . S
H578 N572 0.984 1_545 S
H579 N572 0.984 . S
H580 N568 0.984 1_545 S
H581 N568 0.985 . S
C582 C583 1.363 . S
C582 C588 1.379 . S
C582 N590 1.356 . S
C583 C582 1.363 . S
C583 C589 1.363 . S
C584 C585 1.363 . S
C584 C589 1.379 . S
C584 N591 1.356 . S
C585 C584 1.363 . S
C585 C588 1.363 . S
N586 C588 1.356 . S
N586 H598 0.984 . S
N586 H599 0.985 . S
N587 C589 1.356 . S
N587 H592 0.984 . S
N587 H593 0.985 . S
C588 C582 1.379 . S
C588 C585 1.363 . S
C588 N586 1.356 . S
C589 C583 1.363 . S
C589 C584 1.379 . S
C589 N587 1.356 . S
N590 C582 1.356 . S
N590 H596 0.984 . S
N590 H597 0.984 . S
N591 C584 1.356 . S
N591 H594 0.984 . S
N591 H595 0.985 . S
H592 N587 0.984 . S
H593 N587 0.985 . S
H594 N591 0.984 . S
H595 N591 0.985 . S
H596 N590 0.984 . S
H597 N590 0.984 . S
H598 N586 0.984 . S
H599 N586 0.985 . S
C600 C601 1.363 1_545 S
C600 C606 1.379 1_556 S
C600 N608 1.356 . S
C601 C600 1.363 1_565 S
C601 C607 1.363 . S
C602 C603 1.363 1_565 S
C602 C607 1.379 1_554 S
C602 N609 1.356 . S
C603 C602 1.363 1_545 S
C603 C606 1.363 . S
N604 C606 1.356 . S
N604 H616 0.984 . S
N604 H617 0.985 . S
N605 C607 1.356 . S
N605 H610 0.984 . S
N605 H611 0.985 . S
C606 C600 1.379 1_554 S
C606 C603 1.363 . S
C606 N604 1.356 . S
C607 C601 1.363 . S
C607 C602 1.379 1_556 S
C607 N605 1.356 . S
N608 C600 1.356 . S
N608 H614 0.984 . S
N608 H615 0.984 1_545 S
N609 C602 1.356 . S
N609 H612 0.984 1_565 S
N609 H613 0.985 . S
H610 N605 0.984 . S
H611 N605 0.985 . S
H612 N609 0.984 1_545 S
H613 N609 0.985 . S
H614 N608 0.984 . S
H615 N608 0.984 1_565 S
H616 N604 0.984 . S
H617 N604 0.985 . S
C618 C619 1.363 . S
C618 C624 1.379 . S
C618 N626 1.356 . S
C619 C618 1.363 . S
C619 C625 1.363 . S
C620 C621 1.363 . S
C620 C625 1.379 . S
C620 N627 1.356 . S
C621 C620 1.363 . S
C621 C624 1.363 . S
N622 C624 1.356 . S
N622 H634 0.984 . S
N622 H635 0.985 . S
N623 C625 1.356 . S
N623 H628 0.984 . S
N623 H629 0.985 . S
C624 C618 1.379 . S
C624 C621 1.363 . S
C624 N622 1.356 . S
C625 C619 1.363 . S
C625 C620 1.379 . S
C625 N623 1.356 . S
N626 C618 1.356 . S
N626 H632 0.984 . S
N626 H633 0.984 . S
N627 C620 1.356 . S
N627 H630 0.984 . S
N627 H631 0.985 . S
H628 N623 0.984 . S
H629 N623 0.985 . S
H630 N627 0.984 . S
H631 N627 0.985 . S
H632 N626 0.984 . S
H633 N626 0.984 . S
H634 N622 0.984 . S
H635 N622 0.985 . S
C636 C637 1.363 . S
C636 C642 1.379 1_556 S
C636 N644 1.356 . S
C637 C636 1.363 . S
C637 C643 1.363 1_455 S
C638 C639 1.363 . S
C638 C643 1.379 1_554 S
C638 N645 1.356 . S
C639 C638 1.363 . S
C639 C642 1.363 1_655 S
N640 C642 1.356 . S
N640 H652 0.984 . S
N640 H653 0.985 1_455 S
N641 C643 1.356 . S
N641 H646 0.984 1_655 S
N641 H647 0.985 . S
C642 C636 1.379 1_554 S
C642 C639 1.363 1_455 S
C642 N640 1.356 . S
C643 C637 1.363 1_655 S
C643 C638 1.379 1_556 S
C643 N641 1.356 . S
N644 C636 1.356 . S
N644 H650 0.984 . S
N644 H651 0.984 . S
N645 C638 1.356 . S
N645 H648 0.984 . S
N645 H649 0.985 . S
H646 N641 0.984 1_455 S
H647 N641 0.985 . S
H648 N645 0.984 . S
H649 N645 0.985 . S
H650 N644 0.984 . S
H651 N644 0.984 . S
H652 N640 0.984 . S
H653 N640 0.985 1_655 S
C654 C655 1.363 1_565 S
C654 C660 1.379 . S
C654 N662 1.356 . S
C655 C654 1.363 1_545 S
C655 C661 1.363 . S
C656 C657 1.363 1_545 S
C656 C661 1.379 . S
C656 N663 1.356 . S
C657 C656 1.363 1_565 S
C657 C660 1.363 . S
N658 C660 1.356 . S
N658 H670 0.984 . S
N658 H671 0.985 . S
N659 C661 1.356 . S
N659 H664 0.984 . S
N659 H665 0.985 . S
C660 C654 1.379 . S
C660 C657 1.363 . S
C660 N658 1.356 . S
C661 C655 1.363 . S
C661 C656 1.379 . S
C661 N659 1.356 . S
N662 C654 1.356 . S
N662 H668 0.984 . S
N662 H669 0.984 1_565 S
N663 C656 1.356 . S
N663 H666 0.984 1_545 S
N663 H667 0.985 . S
H664 N659 0.984 . S
H665 N659 0.985 . S
H666 N663 0.984 1_565 S
H667 N663 0.985 . S
H668 N662 0.984 . S
H669 N662 0.984 1_545 S
H670 N658 0.984 . S
H671 N658 0.985 . S
C672 C673 1.363 . S
C672 C678 1.379 1_554 S
C672 N680 1.356 . S
C673 C672 1.363 . S
C673 C679 1.363 . S
C674 C675 1.363 . S
C674 C679 1.379 1_556 S
C674 N681 1.356 . S
C675 C674 1.363 . S
C675 C678 1.363 . S
N676 C678 1.356 . S
N676 H688 0.984 . S
N676 H689 0.985 . S
N677 C679 1.356 . S
N677 H682 0.984 . S
N677 H683 0.985 . S
C678 C672 1.379 1_556 S
C678 C675 1.363 . S
C678 N676 1.356 . S
C679 C673 1.363 . S
C679 C674 1.379 1_554 S
C679 N677 1.356 . S
N680 C672 1.356 . S
N680 H686 0.982 . S
N680 H687 0.984 . S
N681 C674 1.356 . S
N681 H684 0.984 . S
N681 H685 0.982 . S
H682 N677 0.984 . S
H683 N677 0.985 . S
H684 N681 0.984 . S
H685 N681 0.982 . S
H686 N680 0.982 . S
H687 N680 0.984 . S
H688 N676 0.984 . S
H689 N676 0.985 . S
C690 C691 1.363 . S
C690 C696 1.379 . S
C690 N698 1.356 . S
C691 C690 1.363 . S
C691 C697 1.363 1_455 S
C692 C693 1.363 . S
C692 C697 1.379 . S
C692 N699 1.356 . S
C693 C692 1.363 . S
C693 C696 1.363 1_655 S
N694 C696 1.349 1_655 S
N694 H706 0.984 1_655 S
N694 H707 0.992 . S
N695 C697 1.349 1_455 S
N695 H700 0.992 . S
N695 H701 0.984 1_455 S
C696 C690 1.379 . S
C696 C693 1.363 1_455 S
C696 N694 1.349 1_455 S
C697 C691 1.363 1_655 S
C697 C692 1.379 . S
C697 N695 1.349 1_655 S
N698 C690 1.356 . S
N698 H704 0.984 . S
N698 H705 0.984 . S
N699 C692 1.356 . S
N699 H702 0.984 . S
N699 H703 0.985 . S
H700 N695 0.992 . S
H701 N695 0.984 1_655 S
H702 N699 0.984 . S
H703 N699 0.985 . S
H704 N698 0.984 . S
H705 N698 0.984 . S
H706 N694 0.984 1_455 S
H707 N694 0.992 . S
C708 C709 1.363 . S
C708 C714 1.379 . S
C708 N716 1.356 . S
C709 C708 1.363 . S
C709 C715 1.363 . S
C710 C711 1.363 . S
C710 C715 1.379 . S
C710 N717 1.356 . S
C711 C710 1.363 . S
C711 C714 1.363 . S
N712 C714 1.356 . S
N712 H724 0.984 . S
N712 H725 0.985 . S
N713 C715 1.356 . S
N713 H718 0.984 . S
N713 H719 0.985 . S
C714 C708 1.379 . S
C714 C711 1.363 . S
C714 N712 1.356 . S
C715 C709 1.363 . S
C715 C710 1.379 . S
C715 N713 1.356 . S
N716 C708 1.356 . S
N716 H722 0.984 . S
N716 H723 0.984 . S
N717 C710 1.356 . S
N717 H720 0.984 . S
N717 H721 0.985 . S
H718 N713 0.984 . S
H719 N713 0.985 . S
H720 N717 0.984 . S
H721 N717 0.985 . S
H722 N716 0.984 . S
H723 N716 0.984 . S
H724 N712 0.984 . S
H725 N712 0.985 . S
C726 C727 1.363 . S
C726 C732 1.379 . S
C726 N734 1.356 . S
C727 C726 1.363 . S
C727 C733 1.363 . S
C728 C729 1.363 . S
C728 C733 1.379 . S
C728 N735 1.356 . S
C729 C728 1.363 . S
C729 C732 1.363 . S
N730 C732 1.356 . S
N730 H742 0.984 . S
N730 H743 0.985 . S
N731 C733 1.356 . S
N731 H736 0.984 . S
N731 H737 0.985 . S
C732 C726 1.379 . S
C732 C729 1.363 . S
C732 N730 1.356 . S
C733 C727 1.363 . S
C733 C728 1.379 . S
C733 N731 1.356 . S
N734 C726 1.356 . S
N734 H740 0.984 . S
N734 H741 0.984 . S
N735 C728 1.356 . S
N735 H738 0.984 . S
N735 H739 0.985 . S
H736 N731 0.984 . S
H737 N731 0.985 . S
H738 N735 0.984 . S
H739 N735 0.985 . S
H740 N734 0.984 . S
H741 N734 0.984 . S
H742 N730 0.984 . S
H743 N730 0.985 . S
C744 C745 1.363 . S
C744 C750 1.379 . S
C744 N752 1.356 . S
C745 C744 1.363 . S
C745 C751 1.363 . S
C746 C747 1.363 . S
C746 C751 1.379 . S
C746 N753 1.356 . S
C747 C746 1.363 . S
C747 C750 1.363 . S
N748 C750 1.356 . S
N748 H760 0.984 . S
N748 H761 0.985 . S
N749 C751 1.356 . S
N749 H754 0.984 . S
N749 H755 0.985 . S
C750 C744 1.379 . S
C750 C747 1.363 . S
C750 N748 1.356 . S
C751 C745 1.363 . S
C751 C746 1.379 . S
C751 N749 1.356 . S
N752 C744 1.356 . S
N752 H758 0.984 . S
N752 H759 0.984 . S
N753 C746 1.356 . S
N753 H756 0.984 . S
N753 H757 0.985 . S
H754 N749 0.984 . S
H755 N749 0.985 . S
H756 N753 0.984 . S
H757 N753 0.985 . S
H758 N752 0.984 . S
H759 N752 0.984 . S
H760 N748 0.984 . S
H761 N748 0.985 . S
C762 C763 1.363 . S
C762 C768 1.379 . S
C762 N770 1.356 . S
C763 C762 1.363 . S
C763 C769 1.363 . S
C764 C765 1.363 . S
C764 C769 1.379 . S
C764 N771 1.356 . S
C765 C764 1.363 . S
C765 C768 1.363 . S
N766 C768 1.356 . S
N766 H778 0.984 . S
N766 H779 0.985 . S
N767 C769 1.356 . S
N767 H772 0.984 . S
N767 H773 0.985 1_545 S
C768 C762 1.379 . S
C768 C765 1.363 . S
C768 N766 1.356 . S
C769 C763 1.363 . S
C769 C764 1.379 . S
C769 N767 1.356 . S
N770 C762 1.356 . S
N770 H776 0.984 . S
N770 H777 0.984 . S
N771 C764 1.356 . S
N771 H774 0.984 . S
N771 H775 0.985 . S
H772 N767 0.984 . S
H773 N767 0.985 1_565 S
H774 N771 0.984 . S
H775 N771 0.985 . S
H776 N770 0.984 . S
H777 N770 0.984 . S
H778 N766 0.984 . S
H779 N766 0.985 . S
C780 C781 1.363 . S
C780 C786 1.379 . S
C780 N788 1.356 . S
C781 C780 1.363 . S
C781 C787 1.363 . S
C782 C783 1.363 . S
C782 C787 1.379 . S
C782 N789 1.356 . S
C783 C782 1.363 . S
C783 C786 1.363 . S
N784 C786 1.356 . S
N784 H796 0.984 . S
N784 H797 0.985 . S
N785 C787 1.356 . S
N785 H790 0.984 . S
N785 H791 0.985 . S
C786 C780 1.379 . S
C786 C783 1.363 . S
C786 N784 1.356 . S
C787 C781 1.363 . S
C787 C782 1.379 . S
C787 N785 1.356 . S
N788 C780 1.356 . S
N788 H794 0.984 . S
N788 H795 0.984 . S
N789 C782 1.356 . S
N789 H792 0.984 . S
N789 H793 0.985 . S
H790 N785 0.984 . S
H791 N785 0.985 . S
H792 N789 0.984 . S
H793 N789 0.985 . S
H794 N788 0.984 . S
H795 N788 0.984 . S
H796 N784 0.984 . S
H797 N784 0.985 . S
C798 C799 1.363 . S
C798 C804 1.379 . S
C798 N806 1.356 . S
C799 C798 1.363 . S
C799 C805 1.363 . S
C800 C801 1.363 . S
C800 C805 1.379 . S
C800 N807 1.356 . S
C801 C800 1.363 . S
C801 C804 1.363 . S
N802 C804 1.356 . S
N802 H814 0.984 . S
N802 H815 0.985 . S
N803 C805 1.356 . S
N803 H808 0.984 . S
N803 H809 0.985 . S
C804 C798 1.379 . S
C804 C801 1.363 . S
C804 N802 1.356 . S
C805 C799 1.363 . S
C805 C800 1.379 . S
C805 N803 1.356 . S
N806 C798 1.356 . S
N806 H812 0.984 . S
N806 H813 0.984 . S
N807 C800 1.356 . S
N807 H810 0.984 . S
N807 H811 0.985 . S
H808 N803 0.984 . S
H809 N803 0.985 . S
H810 N807 0.984 . S
H811 N807 0.985 . S
H812 N806 0.984 . S
H813 N806 0.984 . S
H814 N802 0.984 . S
H815 N802 0.985 . S
C816 C817 1.363 . S
C816 C822 1.379 . S
C816 N824 1.356 . S
C817 C816 1.363 . S
C817 C823 1.363 . S
C818 C819 1.363 . S
C818 C823 1.379 . S
C818 N825 1.356 . S
C819 C818 1.363 . S
C819 C822 1.363 . S
N820 C822 1.356 . S
N820 H832 0.984 . S
N820 H833 0.985 . S
N821 C823 1.356 . S
N821 H826 0.984 . S
N821 H827 0.985 . S
C822 C816 1.379 . S
C822 C819 1.363 . S
C822 N820 1.356 . S
C823 C817 1.363 . S
C823 C818 1.379 . S
C823 N821 1.356 . S
N824 C816 1.356 . S
N824 H830 0.984 . S
N824 H831 0.984 . S
N825 C818 1.356 . S
N825 H828 0.984 . S
N825 H829 0.985 . S
H826 N821 0.984 . S
H827 N821 0.985 . S
H828 N825 0.984 . S
H829 N825 0.985 . S
H830 N824 0.984 . S
H831 N824 0.984 . S
H832 N820 0.984 . S
H833 N820 0.985 . S
C834 C835 1.363 . S
C834 C840 1.379 . S
C834 N842 1.356 . S
C835 C834 1.363 . S
C835 C841 1.363 . S
C836 C837 1.363 . S
C836 C841 1.379 . S
C836 N843 1.356 . S
C837 C836 1.363 . S
C837 C840 1.363 . S
N838 C840 1.356 . S
N838 H850 0.984 . S
N838 H851 0.985 . S
N839 C841 1.356 . S
N839 H844 0.984 . S
N839 H845 0.985 . S
C840 C834 1.379 . S
C840 C837 1.363 . S
C840 N838 1.356 . S
C841 C835 1.363 . S
C841 C836 1.379 . S
C841 N839 1.356 . S
N842 C834 1.356 . S
N842 H848 0.984 . S
N842 H849 0.984 . S
N843 C836 1.356 . S
N843 H846 0.984 . S
N843 H847 0.985 . S
H844 N839 0.984 . S
H845 N839 0.985 . S
H846 N843 0.984 . S
H847 N843 0.985 . S
H848 N842 0.984 . S
H849 N842 0.984 . S
H850 N838 0.984 . S
H851 N838 0.985 . S
C852 C853 1.363 . S
C852 C858 1.379 . S
C852 N860 1.356 . S
C853 C852 1.363 . S
C853 C859 1.363 . S
C854 C855 1.363 . S
C854 C859 1.379 . S
C854 N861 1.356 . S
C855 C854 1.363 . S
C855 C858 1.363 . S
N856 C858 1.356 . S
N856 H868 0.984 . S
N856 H869 0.985 . S
N857 C859 1.356 . S
N857 H862 0.984 . S
N857 H863 0.985 . S
C858 C852 1.379 . S
C858 C855 1.363 . S
C858 N856 1.356 . S
C859 C853 1.363 . S
C859 C854 1.379 . S
C859 N857 1.356 . S
N860 C852 1.356 . S
N860 H866 0.984 . S
N860 H867 0.984 . S
N861 C854 1.356 . S
N861 H864 0.984 . S
N861 H865 0.985 . S
H862 N857 0.984 . S
H863 N857 0.985 . S
H864 N861 0.984 . S
H865 N861 0.985 . S
H866 N860 0.984 . S
H867 N860 0.984 . S
H868 N856 0.984 . S
H869 N856 0.985 . S
C870 C871 1.363 . S
C870 C876 1.379 . S
C870 N878 1.356 . S
C871 C870 1.363 . S
C871 C877 1.363 . S
C872 C873 1.363 . S
C872 C877 1.379 . S
C872 N879 1.356 . S
C873 C872 1.363 . S
C873 C876 1.363 . S
N874 C876 1.356 . S
N874 H886 0.984 . S
N874 H887 0.985 . S
N875 C877 1.356 . S
N875 H880 0.984 . S
N875 H881 0.985 . S
C876 C870 1.379 . S
C876 C873 1.363 . S
C876 N874 1.356 . S
C877 C871 1.363 . S
C877 C872 1.379 . S
C877 N875 1.356 . S
N878 C870 1.356 . S
N878 H884 0.984 . S
N878 H885 0.984 . S
N879 C872 1.356 . S
N879 H882 0.984 . S
N879 H883 0.985 . S
H880 N875 0.984 . S
H881 N875 0.985 . S
H882 N879 0.984 . S
H883 N879 0.985 . S
H884 N878 0.984 . S
H885 N878 0.984 . S
H886 N874 0.984 . S
H887 N874 0.985 . S
C888 C889 1.363 . S
C888 C894 1.379 . S
C888 N896 1.356 . S
C889 C888 1.363 . S
C889 C895 1.363 . S
C890 C891 1.363 . S
C890 C895 1.379 . S
C890 N897 1.356 . S
C891 C890 1.363 . S
C891 C894 1.363 . S
N892 C894 1.356 . S
N892 H904 0.984 . S
N892 H905 0.985 . S
N893 C895 1.356 . S
N893 H898 0.984 . S
N893 H899 0.985 1_565 S
C894 C888 1.379 . S
C894 C891 1.363 . S
C894 N892 1.356 . S
C895 C889 1.363 . S
C895 C890 1.379 . S
C895 N893 1.356 . S
N896 C888 1.356 . S
N896 H902 0.984 . S
N896 H903 0.984 . S
N897 C890 1.356 . S
N897 H900 0.984 . S
N897 H901 0.985 . S
H898 N893 0.984 . S
H899 N893 0.985 1_545 S
H900 N897 0.984 . S
H901 N897 0.985 . S
H902 N896 0.984 . S
H903 N896 0.984 . S
H904 N892 0.984 . S
H905 N892 0.985 . S
C906 C907 1.363 . S
C906 C912 1.379 . S
C906 N914 1.356 . S
C907 C906 1.363 . S
C907 C913 1.363 . S
C908 C909 1.363 . S
C908 C913 1.379 . S
C908 N915 1.356 . S
C909 C908 1.363 . S
C909 C912 1.363 . S
N910 C912 1.356 . S
N910 H922 0.984 . S
N910 H923 0.985 . S
N911 C913 1.356 . S
N911 H916 0.984 . S
N911 H917 0.985 . S
C912 C906 1.379 . S
C912 C909 1.363 . S
C912 N910 1.356 . S
C913 C907 1.363 . S
C913 C908 1.379 . S
C913 N911 1.356 . S
N914 C906 1.356 . S
N914 H920 0.984 . S
N914 H921 0.984 . S
N915 C908 1.356 . S
N915 H918 0.984 . S
N915 H919 0.985 . S
H916 N911 0.984 . S
H917 N911 0.985 . S
H918 N915 0.984 . S
H919 N915 0.985 . S
H920 N914 0.984 . S
H921 N914 0.984 . S
H922 N910 0.984 . S
H923 N910 0.985 . S
C277 C63 1.141 . S
C279 C21 1.182 . S
C295 C86 1.102 . S
C297 C44 1.127 1_455 S
C313 C67 1.182 1_565 S
C315 C109 1.141 . S
C331 C90 1.127 . S
C333 C132 1.102 . S
C349 C17 1.141 . S
C351 C113 1.182 1_455 S
C367 C40 1.102 . S
C369 C136 1.127 1_565 S
C385 C247 1.102 . S
C387 C159 1.127 . S
C403 C182 1.182 1_655 S
C405 C270 1.141 . S
C421 C205 1.127 1_545 S
C423 C155 1.102 . S
C439 C228 1.182 . S
C441 C178 1.141 . S
C457 C251 1.127 1_655 S
C459 C201 1.102 . S
C475 C224 1.141 . S
C477 C274 1.182 1_545 S
C493 C88 1.491 . S
C495 C20 1.502 . S
C511 C42 1.491 . S
C513 C112 1.502 . S
C529 C66 1.502 . S
C531 C134 1.491 . S
C547 C157 1.491 . S
C549 C227 1.502 . S
C565 C181 1.502 . S
C567 C249 1.491 . S
C583 C203 1.491 . S
C585 C273 1.502 . S
C601 C180 1.545 . S
C603 C19 1.545 . S
C619 C43 1.561 . S
C621 C204 1.561 . S
C637 C226 1.545 . S
C639 C65 1.545 . S
C655 C89 1.561 . S
C657 C250 1.561 . S
C673 C111 1.545 . S
C675 C272 1.545 . S
C691 C158 1.561 . S
C693 C135 1.561 . S
C709 C62 1.289 . S
C711 C18 1.278 . S
C727 C41 1.284 . S
C729 C85 1.308 . S
C745 C64 1.278 . S
C747 C108 1.289 . S
C763 C87 1.284 . S
C765 C131 1.307 . S
C781 C16 1.289 . S
C783 C110 1.278 . S
C799 C39 1.307 . S
C801 C133 1.284 . S
C817 C246 1.307 . S
C819 C156 1.284 . S
C835 C179 1.278 . S
C837 C269 1.289 . S
C853 C202 1.284 . S
C855 C154 1.308 . S
C871 C177 1.289 . S
C873 C225 1.278 . S
C889 C248 1.284 . S
C891 C200 1.307 . S
C907 C271 1.278 . S
C909 C223 1.289 . S
