# Generated by pormake.
# Topology vbf, (5)-cn, num edge types: 1
# Building blocks:
#     Node 0, Type 0, BuildingBlock: XOMCOT_clean_sbu_1, # of connection points: 5
#     Node 1, Type 0, BuildingBlock: XOMCOT_clean_sbu_1, # of connection points: 5
#     Node 2, Type 0, BuildingBlock: XOMCOT_clean_sbu_1, # of connection points: 5
#     Node 3, Type 0, BuildingBlock: XOMCOT_clean_sbu_1, # of connection points: 5
#     Node 4, Type 0, BuildingBlock: XOMCOT_clean_sbu_1, # of connection points: 5
#     Node 5, Type 0, BuildingBlock: XOMCOT_clean_sbu_1, # of connection points: 5
#     Node 6, Type 0, BuildingBlock: XOMCOT_clean_sbu_1, # of connection points: 5
#     Node 7, Type 0, BuildingBlock: XOMCOT_clean_sbu_1, # of connection points: 5
#     Node 8, Type 0, BuildingBlock: XOMCOT_clean_sbu_1, # of connection points: 5
#     Node 9, Type 0, BuildingBlock: XOMCOT_clean_sbu_1, # of connection points: 5
#     Node 10, Type 0, BuildingBlock: XOMCOT_clean_sbu_1, # of connection points: 5
#     Node 11, Type 0, BuildingBlock: XOMCOT_clean_sbu_1, # of connection points: 5
#     Node 12, Type 0, BuildingBlock: XOMCOT_clean_sbu_1, # of connection points: 5
#     Node 13, Type 0, BuildingBlock: XOMCOT_clean_sbu_1, # of connection points: 5
#     Node 14, Type 0, BuildingBlock: XOMCOT_clean_sbu_1, # of connection points: 5
#     Node 15, Type 0, BuildingBlock: XOMCOT_clean_sbu_1, # of connection points: 5
#     Edge 16, Type (0, 0), BuildingBlock: AJUNOK_clean_linker_0, # of connection points: 2
#     Edge 17, Type (0, 0), BuildingBlock: AJUNOK_clean_linker_0, # of connection points: 2
#     Edge 18, Type (0, 0), BuildingBlock: AJUNOK_clean_linker_0, # of connection points: 2
#     Edge 19, Type (0, 0), BuildingBlock: AJUNOK_clean_linker_0, # of connection points: 2
#     Edge 20, Type (0, 0), BuildingBlock: AJUNOK_clean_linker_0, # of connection points: 2
#     Edge 21, Type (0, 0), BuildingBlock: AJUNOK_clean_linker_0, # of connection points: 2
#     Edge 22, Type (0, 0), BuildingBlock: AJUNOK_clean_linker_0, # of connection points: 2
#     Edge 23, Type (0, 0), BuildingBlock: AJUNOK_clean_linker_0, # of connection points: 2
#     Edge 24, Type (0, 0), BuildingBlock: AJUNOK_clean_linker_0, # of connection points: 2
#     Edge 25, Type (0, 0), BuildingBlock: AJUNOK_clean_linker_0, # of connection points: 2
#     Edge 26, Type (0, 0), BuildingBlock: AJUNOK_clean_linker_0, # of connection points: 2
#     Edge 27, Type (0, 0), BuildingBlock: AJUNOK_clean_linker_0, # of connection points: 2
#     Edge 28, Type (0, 0), BuildingBlock: AJUNOK_clean_linker_0, # of connection points: 2
#     Edge 29, Type (0, 0), BuildingBlock: AJUNOK_clean_linker_0, # of connection points: 2
#     Edge 30, Type (0, 0), BuildingBlock: AJUNOK_clean_linker_0, # of connection points: 2
#     Edge 31, Type (0, 0), BuildingBlock: AJUNOK_clean_linker_0, # of connection points: 2
#     Edge 32, Type (0, 0), BuildingBlock: AJUNOK_clean_linker_0, # of connection points: 2
#     Edge 33, Type (0, 0), BuildingBlock: AJUNOK_clean_linker_0, # of connection points: 2
#     Edge 34, Type (0, 0), BuildingBlock: AJUNOK_clean_linker_0, # of connection points: 2
#     Edge 35, Type (0, 0), BuildingBlock: AJUNOK_clean_linker_0, # of connection points: 2
#     Edge 36, Type (0, 0), BuildingBlock: AJUNOK_clean_linker_0, # of connection points: 2
#     Edge 37, Type (0, 0), BuildingBlock: AJUNOK_clean_linker_0, # of connection points: 2
#     Edge 38, Type (0, 0), BuildingBlock: AJUNOK_clean_linker_0, # of connection points: 2
#     Edge 39, Type (0, 0), BuildingBlock: AJUNOK_clean_linker_0, # of connection points: 2
#     Edge 40, Type (0, 0), BuildingBlock: AJUNOK_clean_linker_0, # of connection points: 2
#     Edge 41, Type (0, 0), BuildingBlock: AJUNOK_clean_linker_0, # of connection points: 2
#     Edge 42, Type (0, 0), BuildingBlock: AJUNOK_clean_linker_0, # of connection points: 2
#     Edge 43, Type (0, 0), BuildingBlock: AJUNOK_clean_linker_0, # of connection points: 2
#     Edge 44, Type (0, 0), BuildingBlock: AJUNOK_clean_linker_0, # of connection points: 2
#     Edge 45, Type (0, 0), BuildingBlock: AJUNOK_clean_linker_0, # of connection points: 2
#     Edge 46, Type (0, 0), BuildingBlock: AJUNOK_clean_linker_0, # of connection points: 2
#     Edge 47, Type (0, 0), BuildingBlock: AJUNOK_clean_linker_0, # of connection points: 2
#     Edge 48, Type (0, 0), BuildingBlock: AJUNOK_clean_linker_0, # of connection points: 2
#     Edge 49, Type (0, 0), BuildingBlock: AJUNOK_clean_linker_0, # of connection points: 2
#     Edge 50, Type (0, 0), BuildingBlock: AJUNOK_clean_linker_0, # of connection points: 2
#     Edge 51, Type (0, 0), BuildingBlock: AJUNOK_clean_linker_0, # of connection points: 2
#     Edge 52, Type (0, 0), BuildingBlock: AJUNOK_clean_linker_0, # of connection points: 2
#     Edge 53, Type (0, 0), BuildingBlock: AJUNOK_clean_linker_0, # of connection points: 2
#     Edge 54, Type (0, 0), BuildingBlock: AJUNOK_clean_linker_0, # of connection points: 2
#     Edge 55, Type (0, 0), BuildingBlock: AJUNOK_clean_linker_0, # of connection points: 2
# Relax obj value: 0.075
# Max RMSD: 0.167
# Mean RMSD: 0.158
data_MOF--net-vbf--node1-XOMCOT_clean_sbu_1--edge1-AJUNOK_clean_linker_0
_symmetry_space_group_name_H-M    P1
_symmetry_Int_Tables_number       1
_symmetry_cell_setting            triclinic
loop_
_symmetry_equiv_pos_as_xyz
'x, y, z'
_cell_length_a     30.542556
_cell_length_b     55.828025
_cell_length_c     22.06586
_cell_angle_alpha  89.974059
_cell_angle_beta   89.508275
_cell_angle_gamma 73.975337
loop_
_atom_site_label
_atom_site_type_symbol
_atom_site_fract_x
_atom_site_fract_y
_atom_site_fract_z
_atom_type_partial_charge
C0 C 0.07046 0.38151 0.91952 0.0
C1 C 0.08762 0.39805 0.8876 0.0
N2 N 0.1311 0.39485 0.90415 0.0
N3 N 0.10303 0.36736 0.95559 0.0
C4 C 0.13893 0.377 0.94732 0.0
H5 H 0.03598 0.38023 0.91639 0.0
Co6 Co 0.09504 0.34125 0.0065 0.0
C7 C 0.19484 0.32106 0.97603 0.0
O8 O 0.18748 0.32774 0.91907 0.0
N9 N 0.08639 0.31591 0.05715 0.0
C10 C 0.09572 0.27932 0.10308 0.0
C11 C 0.11429 0.29253 0.06261 0.0
C12 C 0.05113 0.31642 0.09514 0.0
N13 N 0.05621 0.29443 0.12341 0.0
O14 O 0.09345 0.36253 0.07566 0.0
H15 H 0.14644 0.28537 0.03921 0.0
H16 H 1.02211 0.3324 0.10192 0.0
O17 O 0.16165 0.32644 0.01402 0.0
C18 C 0.05187 0.37532 0.08091 0.0
O19 O 1.02224 0.37166 0.04173 0.0
N20 N 0.0898 0.32155 0.93842 0.0
C21 C 0.06412 0.29841 0.83756 0.0
C22 C 0.10737 0.28902 0.86314 0.0
C23 C 0.11922 0.30051 0.9145 0.0
C24 C 0.04658 0.32953 0.91672 0.0
C25 C 0.03341 0.31879 0.86556 0.0
H26 H 0.15154 0.29193 0.93501 0.0
H27 H 1.02183 0.34441 0.93962 0.0
H28 H 0.17079 0.37071 0.97119 0.0
H29 H 0.0695 0.41133 0.85444 0.0
H30 H 0.11052 0.2603 0.11767 0.0
H31 H 0.13156 0.27272 0.84414 0.0
H32 H 0.99954 0.32666 0.84779 0.0
C33 C 0.95701 0.67485 0.98504 0.0
C34 C 0.93026 0.66098 0.96212 0.0
N35 N 0.89079 0.67665 0.94371 0.0
N36 N 0.93443 0.69927 0.98197 0.0
C37 C 0.89415 0.69982 0.95604 0.0
H38 H 0.9912 0.66747 0.00175 0.0
Co39 Co 0.95811 0.72502 0.00772 0.0
C40 C 0.87592 0.76715 0.04603 0.0
O41 O 0.90011 0.78315 0.05073 0.0
N42 N 0.98396 0.75041 0.03418 0.0
C43 C 0.03026 0.77493 0.04024 0.0
C44 C 1.01064 0.76154 0.00186 0.0
C45 C 0.98831 0.7573 0.09219 0.0
N46 N 1.01666 0.77196 0.0972 0.0
O47 O 0.96994 0.70921 0.08609 0.0
H48 H 1.01784 0.759 0.95392 0.0
H49 H 0.97159 0.75121 0.13023 0.0
O50 O 0.8956 0.74451 0.03102 0.0
C51 C 1.01269 0.69838 0.08464 0.0
O52 O 0.03595 0.70063 0.03557 0.0
N53 N 0.95253 0.73794 0.92908 0.0
C54 C 0.97071 0.75398 0.8144 0.0
C55 C 0.93501 0.76861 0.85017 0.0
C56 C 0.92623 0.76018 0.90764 0.0
C57 C 0.98585 0.72309 0.89366 0.0
C58 C 0.99559 0.73073 0.83636 0.0
H59 H 0.90005 0.77216 0.93526 0.0
H60 H 1.00701 0.70579 0.91176 0.0
H61 H 0.86797 0.71683 0.94626 0.0
H62 H 0.93973 0.6409 0.9574 0.0
H63 H 0.05475 0.78489 0.02761 0.0
H64 H 0.91504 0.7867 0.83459 0.0
H65 H 1.02411 0.71911 0.81098 0.0
C66 C 0.18595 0.53563 0.27913 0.0
C67 C 0.15047 0.52488 0.27919 0.0
N68 N 0.1111 0.54321 0.27746 0.0
N69 N 0.16903 0.56061 0.27723 0.0
C70 C 0.12328 0.56468 0.27712 0.0
H71 H 0.22185 0.5259 0.28021 0.0
Co72 Co 0.20407 0.58311 0.2749 0.0
C73 C 0.1498 0.62539 0.20317 0.0
O74 O 0.18599 0.62415 0.16966 0.0
N75 N 0.24047 0.6064 0.27341 0.0
C76 C 0.28869 0.62843 0.24714 0.0
C77 C 0.26808 0.61081 0.22874 0.0
C78 C 0.24549 0.62189 0.31866 0.0
N79 N 0.27446 0.63538 0.30374 0.0
O80 O 0.18712 0.59131 0.35686 0.0
H81 H 0.27329 0.60205 0.18468 0.0
H82 H 0.2291 0.62311 0.36257 0.0
O83 O 0.15131 0.60952 0.24539 0.0
C84 C 0.22017 0.57657 0.38476 0.0
O85 O 0.2549 0.56308 0.3532 0.0
N86 N 0.22491 0.571 0.19839 0.0
C87 C 0.2649 0.54025 0.10247 0.0
C88 C 0.2191 0.55447 0.09963 0.0
C89 C 0.19939 0.56963 0.14876 0.0
C90 C 0.26901 0.55677 0.202 0.0
C91 C 0.29003 0.54179 0.154 0.0
H92 H 0.16341 0.57915 0.14823 0.0
H93 H 0.28789 0.55677 0.24319 0.0
H94 H 0.09926 0.58298 0.27593 0.0
H95 H 0.15343 0.50512 0.28096 0.0
H96 H 0.31403 0.6347 0.22196 0.0
H97 H 0.19858 0.5534 0.06046 0.0
H98 H 0.32512 0.53073 0.15811 0.0
C99 C 0.8562 0.53638 0.27165 0.0
C100 C 0.89036 0.54821 0.27447 0.0
N101 N 0.93072 0.53063 0.27477 0.0
N102 N 0.87515 0.51149 0.27002 0.0
C103 C 0.92042 0.50867 0.27356 0.0
H104 H 0.82 0.5453 0.26941 0.0
Co105 Co 0.84677 0.48565 0.26364 0.0
C106 C 0.92303 0.45571 0.18218 0.0
O107 O 0.90016 0.4632 0.13251 0.0
N108 N 0.81979 0.45861 0.25909 0.0
C109 C 0.80238 0.42403 0.23039 0.0
C110 C 0.82534 0.44121 0.21494 0.0
C111 C 0.79274 0.45157 0.30051 0.0
N112 N 0.78175 0.43063 0.28435 0.0
O113 O 0.86167 0.47798 0.34613 0.0
H114 H 0.84491 0.44078 0.17391 0.0
H115 H 0.7808 0.46158 0.34192 0.0
O116 O 0.90503 0.46246 0.23434 0.0
C117 C 0.82652 0.4931 0.37022 0.0
O118 O 0.79389 0.50586 0.33485 0.0
N119 N 0.82467 0.49727 0.18606 0.0
C120 C 0.77574 0.52756 0.09478 0.0
C121 C 0.82256 0.52454 0.10111 0.0
C122 C 0.84621 0.50973 0.14772 0.0
C123 C 0.77897 0.50013 0.17993 0.0
C124 C 0.75414 0.51474 0.134 0.0
H125 H 0.88155 0.50908 0.1543 0.0
H126 H 0.7604 0.49258 0.21325 0.0
H127 H 0.94565 0.4908 0.27559 0.0
H128 H 0.88595 0.56812 0.27445 0.0
H129 H 0.80202 0.40765 0.20447 0.0
H130 H 0.84061 0.53396 0.07105 0.0
H131 H 0.71785 0.51693 0.13101 0.0
C132 C 0.08065 0.89103 0.47921 0.0
C133 C 0.10214 0.90626 0.4496 0.0
N134 N 0.14304 0.89223 0.43013 0.0
N135 N 0.10796 0.8675 0.47884 0.0
C136 C 0.14599 0.86877 0.44859 0.0
H137 H 0.04636 0.89653 0.49741 0.0
Co138 Co 0.08877 0.84069 0.50686 0.0
C139 C 0.17509 0.80115 0.54363 0.0
O140 O 0.15365 0.78391 0.5502 0.0
N141 N 0.06661 0.81411 0.53498 0.0
C142 C 1.02308 0.78804 0.5397 0.0
C143 C 0.041 0.80261 0.50236 0.0
C144 C 0.06309 0.80628 0.59254 0.0
N145 N 0.03695 0.79032 0.59652 0.0
O146 O 0.07796 0.85663 0.5857 0.0
H147 H 0.03277 0.80583 0.45506 0.0
H148 H 0.07786 0.81297 0.63122 0.0
O149 O 0.15288 0.82319 0.52737 0.0
C150 C 0.03559 0.86542 0.59812 0.0
O151 O 1.0057 0.86061 0.56098 0.0
N152 N 0.09466 0.82753 0.42794 0.0
C153 C 0.07928 0.80975 0.31434 0.0
C154 C 0.11578 0.7964 0.34998 0.0
C155 C 0.12305 0.80567 0.4069 0.0
C156 C 0.06087 0.84139 0.39217 0.0
C157 C 0.05271 0.83292 0.33515 0.0
H158 H 0.14981 0.79455 0.43456 0.0
H159 H 0.03818 0.85845 0.40973 0.0
H160 H 0.17398 0.85269 0.43726 0.0
H161 H 0.08821 0.926 0.44114 0.0
H162 H 0.99882 0.77811 0.52656 0.0
H163 H 0.13752 0.77859 0.33487 0.0
H164 H 1.02412 0.84374 0.30916 0.0
C165 C 0.96009 0.17379 0.44956 0.0
C166 C 0.93504 0.16077 0.41922 0.0
N167 N 0.89185 0.17512 0.41629 0.0
N168 N 0.93299 0.1964 0.46547 0.0
C169 C 0.89125 0.19669 0.4446 0.0
H170 H 0.9963 0.16746 0.45749 0.0
Co171 Co 0.95626 0.22047 0.50177 0.0
C172 C 0.87523 0.26123 0.54857 0.0
O173 O 0.90074 0.27604 0.56046 0.0
N174 N 0.98244 0.24389 0.53836 0.0
C175 C 1.02462 0.26997 0.55506 0.0
C176 C 1.00683 0.25786 0.51148 0.0
C177 C 0.98682 0.24757 0.59845 0.0
N178 N 1.01192 0.26351 0.60982 0.0
O179 O 0.96597 0.20102 0.57506 0.0
H180 H 1.01289 0.25869 0.46333 0.0
H181 H 0.97293 0.23811 0.63331 0.0
O182 O 0.89357 0.23935 0.52705 0.0
C183 C 1.0081 0.18897 0.57539 0.0
O184 O 0.03442 0.19228 0.53061 0.0
N185 N 0.95168 0.23731 0.42756 0.0
C186 C 0.96806 0.25882 0.31906 0.0
C187 C 0.93253 0.27151 0.35763 0.0
C188 C 0.92445 0.26025 0.41175 0.0
C189 C 0.98514 0.2245 0.38914 0.0
C190 C 0.99359 0.23477 0.33437 0.0
H191 H 0.89803 0.27066 0.4415 0.0
H192 H 1.00721 0.20667 0.40276 0.0
H193 H 0.8616 0.21264 0.44769 0.0
H194 H 0.94767 0.14233 0.39969 0.0
H195 H 0.04583 0.28234 0.54704 0.0
H196 H 0.91236 0.29023 0.347 0.0
H197 H 1.02174 0.22462 0.306 0.0
C198 C 0.19059 0.03401 0.77612 0.0
C199 C 0.15418 1.02398 0.77993 0.0
N200 N 0.11552 0.04278 0.78392 0.0
N201 N 0.17508 0.05906 0.77761 0.0
C202 C 0.12931 0.06383 0.78321 0.0
H203 H 0.2261 1.02373 0.7717 0.0
Co204 Co 0.21061 0.08162 0.77228 0.0
C205 C 0.14914 0.12119 0.69565 0.0
O206 O 0.1809 0.11961 0.65443 0.0
N207 N 0.24715 0.10486 0.76774 0.0
C208 C 0.29173 0.12792 0.73411 0.0
C209 C 0.2652 0.11279 0.71775 0.0
C210 C 0.26429 0.11547 0.81407 0.0
N211 N 0.29117 0.12953 0.79473 0.0
O212 O 0.19473 0.09081 0.85376 0.0
H213 H 0.26192 0.10692 0.67184 0.0
H214 H 0.25823 0.11276 0.86149 0.0
O215 O 0.15686 0.1073 0.74257 0.0
C216 C 0.22629 0.07466 0.88078 0.0
O217 O 0.25886 0.05969 0.84845 0.0
N218 N 0.23071 0.06884 0.69598 0.0
C219 C 0.27034 0.0375 0.60065 0.0
C220 C 0.22346 0.0498 0.6008 0.0
C221 C 0.20406 0.06514 0.64962 0.0
C222 C 0.27608 0.05669 0.69677 0.0
C223 C 0.2967 0.04119 0.6493 0.0
H224 H 0.16757 0.07286 0.65184 0.0
H225 H 0.29616 0.0583 0.73589 0.0
H226 H 0.10658 0.08241 0.7876 0.0
H227 H 0.15598 1.00435 0.77852 0.0
H228 H 0.31204 0.13594 0.70399 0.0
H229 H 0.20183 0.04705 0.56432 0.0
H230 H 0.33257 1.03139 0.65194 0.0
C231 C 0.86013 0.03522 0.79039 0.0
C232 C 0.89396 0.04718 0.79349 0.0
N233 N 0.93464 1.0299 0.78956 0.0
N234 N 0.87931 1.0105 0.7845 0.0
C235 C 0.92473 1.00782 0.78492 0.0
H236 H 0.82383 0.04395 0.79223 0.0
Co237 Co 0.84802 0.98598 0.7783 0.0
C238 C 0.92262 0.95343 0.69713 0.0
O239 O 0.9035 0.96284 0.64637 0.0
N240 N 0.8177 0.96045 0.77286 0.0
C241 C 0.79257 0.92956 0.73579 0.0
C242 C 0.8177 0.946 0.72369 0.0
C243 C 0.79228 0.9522 0.81445 0.0
N244 N 0.77649 0.93355 0.79287 0.0
O245 O 0.86414 0.97698 0.86007 0.0
H246 H 0.83431 0.94751 0.68106 0.0
H247 H 0.78439 0.95996 0.85936 0.0
O248 O 0.90374 0.96109 0.74823 0.0
C249 C 0.83099 0.99198 0.88816 0.0
O250 O 0.79724 1.00598 0.85656 0.0
N251 N 0.82537 0.99885 0.70159 0.0
C252 C 0.77681 1.02902 0.60904 0.0
C253 C 0.82438 1.02415 0.61296 0.0
C254 C 0.84781 1.00965 0.66051 0.0
C255 C 0.77893 1.0042 0.69926 0.0
C256 C 0.75419 1.01893 0.65338 0.0
H257 H 0.88371 1.00796 0.66552 0.0
H258 H 0.76018 0.99833 0.73539 0.0
H259 H 0.95022 0.99006 0.78099 0.0
H260 H 0.88888 0.06701 0.79917 0.0
H261 H 0.78664 0.91573 0.70497 0.0
H262 H 0.8433 1.03197 0.58038 0.0
H263 H 0.71738 1.02325 0.65438 0.0
C264 C 0.59819 0.39183 0.47309 0.0
C265 C 0.62426 0.40536 0.44607 0.0
N266 N 0.66274 0.38931 0.4254 0.0
N267 N 0.6204 0.36735 0.47019 0.0
C268 C 0.65966 0.36633 0.43999 0.0
H269 H 0.56442 0.39933 0.49191 0.0
Co270 Co 0.59565 0.34254 0.49928 0.0
C271 C 0.67668 0.30009 0.53902 0.0
O272 O 0.65256 0.28399 0.54307 0.0
N273 N 0.56848 0.31836 0.5286 0.0
C274 C 0.51791 0.29651 0.53932 0.0
C275 C 0.53722 0.30966 0.4994 0.0
C276 C 0.5672 0.3104 0.58634 0.0
N277 N 0.53698 0.29705 0.59372 0.0
O278 O 0.58563 0.35929 0.57731 0.0
H279 H 0.52696 0.31379 0.45295 0.0
H280 H 0.58642 0.31533 0.62301 0.0
O281 O 0.65757 0.32259 0.5226 0.0
C282 C 0.54327 0.36976 0.58635 0.0
O283 O 0.51401 0.36714 0.54533 0.0
N284 N 0.60075 0.3284 0.42145 0.0
C285 C 0.58429 0.31071 0.30826 0.0
C286 C 0.61773 0.29604 0.34618 0.0
C287 C 0.62577 0.30532 0.40269 0.0
C288 C 0.56962 0.34325 0.38385 0.0
C289 C 0.56096 0.33483 0.32701 0.0
H290 H 0.65037 0.29336 0.43164 0.0
H291 H 0.54936 0.36127 0.39971 0.0
H292 H 0.6849 0.34917 0.42789 0.0
H293 H 0.6151 0.42538 0.44009 0.0
H294 H 0.49095 0.28794 0.52976 0.0
H295 H 0.63637 0.27727 0.33309 0.0
H296 H 0.53422 0.34656 0.29964 0.0
C297 C 0.45463 0.67671 0.48167 0.0
C298 C 0.42706 0.66294 0.46074 0.0
N299 N 0.3877 0.67876 0.44257 0.0
N300 N 0.4326 0.70117 0.47754 0.0
C301 C 0.39188 0.70188 0.45291 0.0
H302 H 0.48897 0.66922 0.49777 0.0
Co303 Co 0.45708 0.72667 0.50129 0.0
C304 C 0.37513 0.76895 0.54228 0.0
O305 O 0.39921 0.78491 0.54906 0.0
N306 N 0.48411 0.75174 0.5257 0.0
C307 C 0.53362 0.7745 0.52911 0.0
C308 C 0.51201 0.76164 0.49209 0.0
C309 C 0.48971 0.75883 0.58311 0.0
N310 N 0.51998 0.77238 0.58646 0.0
O311 O 0.46865 0.71146 0.58022 0.0
H312 H 0.51873 0.75853 0.4442 0.0
H313 H 0.47398 0.7529 0.62238 0.0
O314 O 0.3949 0.74659 0.5252 0.0
C315 C 0.51103 0.69991 0.58087 0.0
O316 O 0.53599 0.70104 0.5327 0.0
N317 N 0.45093 0.7393 0.42216 0.0
C318 C 0.47056 0.75661 0.30958 0.0
C319 C 0.43607 0.77144 0.34678 0.0
C320 C 0.42665 0.76241 0.40322 0.0
C321 C 0.48206 0.72404 0.38457 0.0
C322 C 0.49226 0.73226 0.32795 0.0
H323 H 0.40233 0.7747 0.43263 0.0
H324 H 0.50168 0.70599 0.40061 0.0
H325 H 0.36599 0.71894 0.44258 0.0
H326 H 0.43583 0.64283 0.45708 0.0
H327 H 0.55841 0.78403 0.51503 0.0
H328 H 0.418 0.79022 0.33352 0.0
H329 H 0.51912 0.72025 0.30064 0.0
C330 C 0.68495 0.53685 0.76533 0.0
C331 C 0.65013 0.52564 0.76566 0.0
N332 N 0.61022 0.54358 0.7657 0.0
N333 N 0.6673 0.5618 0.76516 0.0
C334 C 0.62157 0.56537 0.76607 0.0
H335 H 0.72099 0.52741 0.76573 0.0
Co336 Co 0.70272 0.58437 0.76576 0.0
C337 C 0.64813 0.62882 0.70029 0.0
O338 O 0.68437 0.62976 0.66926 0.0
N339 N 0.73989 0.60736 0.76736 0.0
C340 C 0.7893 0.629 0.7434 0.0
C341 C 0.76743 0.6122 0.72314 0.0
C342 C 0.74653 0.62161 0.81444 0.0
N343 N 0.77618 0.6349 0.80086 0.0
O344 O 0.68522 0.59174 0.84797 0.0
H345 H 0.77166 0.60431 0.67809 0.0
H346 H 0.73066 0.62211 0.85848 0.0
O347 O 0.65009 0.61111 0.73772 0.0
C348 C 0.71623 0.57545 0.87538 0.0
O349 O 0.74994 0.56114 0.84361 0.0
N350 N 0.72386 0.57337 0.68861 0.0
C351 C 0.76451 0.54449 0.5899 0.0
C352 C 0.71926 0.55957 0.58675 0.0
C353 C 0.69923 0.57384 0.63717 0.0
C354 C 0.76739 0.5584 0.69244 0.0
C355 C 0.78864 0.54417 0.6434 0.0
H356 H 0.66365 0.58414 0.63594 0.0
H357 H 0.78553 0.55714 0.73468 0.0
H358 H 0.59702 0.58354 0.76671 0.0
H359 H 0.65395 0.50579 0.76717 0.0
H360 H 0.81464 0.63546 0.71871 0.0
H361 H 0.69932 0.55983 0.54627 0.0
H362 H 0.82302 0.53223 0.64818 0.0
C363 C 0.35773 0.53288 0.78236 0.0
C364 C 0.39191 0.54468 0.7824 0.0
N365 N 0.4323 0.52718 0.77908 0.0
N366 N 0.37644 0.50801 0.77912 0.0
C367 C 0.42193 0.50515 0.77825 0.0
H368 H 0.32149 0.54186 0.78294 0.0
Co369 Co 0.34486 0.48342 0.7737 0.0
C370 C 0.41901 0.45038 0.69369 0.0
O371 O 0.3967 0.45775 0.64355 0.0
N372 N 0.31369 0.45806 0.76958 0.0
C373 C 0.29022 0.42546 0.74007 0.0
C374 C 0.31902 0.43989 0.72741 0.0
C375 C 0.28077 0.45424 0.80706 0.0
N376 N 0.26598 0.4346 0.7901 0.0
O377 O 0.35948 0.47517 0.85614 0.0
H378 H 0.34163 0.43726 0.68889 0.0
H379 H 0.26641 0.46611 0.84479 0.0
O380 O 0.40157 0.45851 0.74529 0.0
C381 C 0.32604 0.49067 0.88249 0.0
O382 O 0.29419 0.50532 0.84917 0.0
N383 N 0.3238 0.49536 0.69605 0.0
C384 C 0.27791 0.52579 0.60262 0.0
C385 C 0.32542 0.52038 0.6078 0.0
C386 C 0.34755 0.50568 0.65566 0.0
C387 C 0.27746 0.5008 0.69173 0.0
C388 C 0.25398 0.51572 0.64532 0.0
H389 H 0.38357 0.50341 0.66146 0.0
H390 H 0.25767 0.49517 0.72694 0.0
H391 H 0.44712 0.48723 0.77692 0.0
H392 H 0.38737 0.56461 0.78284 0.0
H393 H 0.28747 0.40943 0.71442 0.0
H394 H 0.34526 0.52801 0.57609 0.0
H395 H 0.21714 0.52033 0.64483 0.0
C396 C 0.58518 0.89015 0.95638 0.0
C397 C 0.60852 0.90487 0.92835 0.0
N398 N 0.65169 0.89112 0.91927 0.0
N399 N 0.61342 0.86716 0.96501 0.0
C400 C 0.65399 0.86826 0.94163 0.0
H401 H 0.54926 0.89556 0.96747 0.0
Co402 Co 0.59254 0.84114 -0.00408 0.0
C403 C 0.67658 0.80091 0.03479 0.0
O404 O 0.65428 0.78393 0.0381 0.0
N405 N 0.56881 0.81558 0.02706 0.0
C406 C 0.52363 0.79063 0.03706 0.0
C407 C 0.54189 0.80412 -0.00296 0.0
C408 C 0.56602 0.80873 0.08561 0.0
N409 N 0.53838 0.79368 0.09308 0.0
O410 O 0.58127 0.85827 0.07269 0.0
H411 H 0.53347 0.8065 0.9496 0.0
H412 H 0.58342 0.81515 0.12199 0.0
O413 O 0.65567 0.8232 0.0188 0.0
C414 C 0.53847 0.86842 0.07771 0.0
O415 O 0.51153 0.86465 0.03483 0.0
N416 N 0.59823 0.8268 0.9186 0.0
C417 C 0.58124 0.80887 0.80593 0.0
C418 C 0.6184 0.79559 0.8407 0.0
C419 C 0.62656 0.80499 0.89718 0.0
C420 C 0.56356 0.84041 0.88387 0.0
C421 C 0.55464 0.8319 0.82744 0.0
H422 H 0.6541 0.79411 0.92406 0.0
H423 H 0.54088 0.85739 0.90179 0.0
H424 H 0.68383 0.85244 0.93828 0.0
H425 H 0.5946 0.92399 0.91392 0.0
H426 H 0.4991 0.78055 0.02612 0.0
H427 H 0.63955 0.77759 0.82587 0.0
H428 H 0.52596 0.84287 0.80181 0.0
C429 C 0.48362 0.17596 0.94456 0.0
C430 C 0.46265 0.1598 0.91765 0.0
N431 N 0.41735 0.1701 0.92071 0.0
N432 N 0.45161 0.19624 0.96486 0.0
C433 C 0.41149 0.192 0.94985 0.0
H434 H 0.51993 0.17326 0.94821 0.0
Co435 Co 0.46276 0.22365 0.0047 0.0
C436 C 0.36896 0.25164 0.04503 0.0
O437 O 0.38178 0.25043 0.1019 0.0
N438 N 0.47359 0.25126 0.0451 0.0
C439 C 0.4706 0.29035 0.0698 0.0
C440 C 0.45317 0.27548 0.03288 0.0
C441 C 0.50359 0.25197 0.08936 0.0
N442 N 0.50254 0.27549 0.10504 0.0
O443 O 0.4597 0.20719 0.08094 0.0
H444 H 0.42725 0.28197 -0.00106 0.0
H445 H 0.52644 0.23569 0.10942 0.0
O446 O 0.39772 0.2411 0.00418 0.0
C447 C 0.50045 0.19392 0.09017 0.0
O448 O 0.53243 0.1954 0.05131 0.0
N449 N 0.47091 0.23782 0.92969 0.0
C450 C 0.49055 0.25764 0.8198 0.0
C451 C 0.4507 0.25 0.82712 0.0
C452 C 0.44144 0.24025 0.88254 0.0
C453 C 0.51094 0.24387 0.92236 0.0
C454 C 0.52095 0.25431 0.86839 0.0
H455 H 0.41142 0.23387 0.88675 0.0
H456 H 0.53527 0.24073 0.95885 0.0
H457 H 0.37843 0.20478 0.95906 0.0
H458 H 0.47932 0.1423 0.89563 0.0
H459 H 0.45977 0.3105 0.0715 0.0
H460 H 0.42731 0.25095 0.79004 0.0
H461 H 0.55233 0.2597 0.86489 0.0
C462 C 0.68706 1.03245 0.2954 0.0
C463 C 0.65461 1.01963 0.30085 0.0
N464 N 0.6131 0.03613 0.29743 0.0
N465 N 0.66613 0.05692 0.28857 0.0
C466 C 0.62112 0.05859 0.29074 0.0
H467 H 0.72359 1.0245 0.29643 0.0
Co468 Co 0.69456 0.0825 0.28021 0.0
C469 C 0.62148 0.11337 0.19712 0.0
O470 O 0.64604 0.10613 0.14811 0.0
N471 N 0.72247 0.10909 0.27297 0.0
C472 C 0.74919 0.13943 0.23512 0.0
C473 C 0.7252 0.12251 0.2227 0.0
C474 C 0.74492 0.11857 0.31548 0.0
N475 N 0.76126 0.13703 0.29367 0.0
O476 O 0.67756 0.09173 0.36212 0.0
H477 H 0.71251 0.11957 0.17874 0.0
H478 H 0.75113 0.11153 0.36106 0.0
O479 O 0.63712 0.10566 0.24948 0.0
C480 C 0.71142 0.0774 0.38974 0.0
O481 O 0.74611 0.06414 0.35762 0.0
N482 N 0.71794 0.06943 0.20373 0.0
C483 C 0.76681 0.03932 0.11046 0.0
C484 C 0.71932 0.04388 0.11562 0.0
C485 C 0.69572 0.05839 0.1635 0.0
C486 C 0.76429 0.06443 0.2003 0.0
C487 C 0.78924 0.04968 0.15399 0.0
H488 H 0.65976 0.06018 0.16915 0.0
H489 H 0.78269 0.07076 0.2357 0.0
H490 H 0.59455 0.07591 0.28658 0.0
H491 H 0.66118 0.99977 0.30771 0.0
H492 H 0.75815 0.15208 0.2032 0.0
H493 H 0.70055 0.03594 0.08356 0.0
H494 H 0.82601 0.04567 0.15384 0.0
C495 C 0.35957 1.02925 0.2805 0.0
C496 C 0.39549 0.03949 0.2865 0.0
N497 N 0.43432 1.02084 0.29074 0.0
N498 N 0.3756 1.00422 0.28066 0.0
C499 C 0.42108 0.99966 0.28794 0.0
H500 H 0.3241 0.03935 0.27529 0.0
Co501 Co 0.34137 0.98134 0.27184 0.0
C502 C 0.40528 0.9445 0.19066 0.0
O503 O 0.37569 0.94839 0.14664 0.0
N504 N 0.30654 0.95751 0.26346 0.0
C505 C 0.26452 0.9342 0.22508 0.0
C506 C 0.29099 0.94977 0.21174 0.0
C507 C 0.28878 0.94594 0.30769 0.0
N508 N 0.2627 0.93205 0.28555 0.0
O509 O 0.35602 0.97118 0.3528 0.0
H510 H 0.29581 0.95607 0.16663 0.0
H511 H 0.29277 0.9484 0.35564 0.0
O512 O 0.39579 0.95625 0.24088 0.0
C513 C 0.32303 0.98643 0.38046 0.0
O514 O 0.28997 1.00086 0.34857 0.0
N515 N 0.32202 0.99526 0.19657 0.0
C516 C 0.28127 1.02669 0.10283 0.0
C517 C 0.32875 1.01615 0.10359 0.0
C518 C 0.34868 1.00083 0.15177 0.0
C519 C 0.27616 1.00617 0.19743 0.0
C520 C 0.25502 1.02166 0.15076 0.0
H521 H 0.38539 0.99421 0.1543 0.0
H522 H 0.25586 1.00336 0.23575 0.0
H523 H 0.44387 0.98112 0.29204 0.0
H524 H 0.39326 0.05918 0.28623 0.0
H525 H 0.24662 0.92586 0.19278 0.0
H526 H 0.35029 1.02004 0.06781 0.0
H527 H 0.21862 1.03022 0.15316 0.0
C528 C 0.19634 0.41317 0.90997 0.0
C529 C 0.16398 0.40557 0.87544 0.0
C530 C 0.229 0.42319 0.88202 0.0
C531 C 0.23092 0.42552 0.81855 0.0
H532 H 0.19624 0.41144 0.95884 0.0
H533 H 0.25364 0.42857 0.91002 0.0
S534 S 0.15438 0.40806 0.70777 0.0
N535 N 0.13654 0.40078 0.77428 0.0
N536 N 0.19721 0.4198 0.72231 0.0
C537 C 0.19872 0.41804 0.78371 0.0
C538 C 0.16543 0.40804 0.812 0.0
C539 C 0.84386 0.64752 0.93156 0.0
C540 C 0.85507 0.66927 0.91312 0.0
C541 C 0.81541 0.63726 0.89661 0.0
C542 C 0.79736 0.64829 0.84178 0.0
H543 H 0.85876 0.63782 0.97213 0.0
H544 H 0.80997 0.6197 0.91041 0.0
S545 S 0.81291 0.70645 0.77574 0.0
N546 N 0.84336 0.70236 0.83835 0.0
N547 N 0.78966 0.68304 0.77279 0.0
C548 C 0.80624 0.67073 0.82443 0.0
C549 C 0.83501 0.68129 0.86019 0.0
C550 C 0.07948 0.68782 0.15045 0.0
C551 C 0.03805 0.68332 0.13443 0.0
C552 C 0.11393 0.66948 0.17831 0.0
C553 C 0.10844 0.64582 0.19093 0.0
H554 H 0.08694 0.7049 0.13643 0.0
H555 H 0.14641 0.67325 0.18597 0.0
S556 S 1.00471 0.6254 0.16376 0.0
N557 N 0.99171 0.65431 0.13801 0.0
N558 N 0.05693 0.61954 0.19074 0.0
C559 C 0.06577 0.64172 0.18024 0.0
C560 C 0.03038 0.66059 0.15175 0.0
C561 C 0.0326 0.41973 0.10857 0.0
C562 C 0.0351 0.3952 0.1261 0.0
C563 C 0.99871 0.43997 0.13246 0.0
C564 C 0.96684 0.43639 0.1755 0.0
H565 H 0.05336 0.42305 0.07113 0.0
H566 H 0.99486 0.45828 0.11314 0.0
S567 S 0.96176 0.37619 0.24055 0.0
N568 N 1.00503 0.36871 0.1922 0.0
N569 N 0.94254 0.40687 0.23873 0.0
C570 C 0.972 0.41231 0.198 0.0
C571 C 1.00591 0.39165 0.17282 0.0
C572 C 0.21979 0.89659 0.40718 0.0
C573 C 0.17393 0.90045 0.39118 0.0
C574 C 0.24891 0.90684 0.37227 0.0
C575 C 0.23321 0.92076 0.31968 0.0
H576 H 0.23264 0.88631 0.44789 0.0
H577 H 0.28383 0.90396 0.38644 0.0
S578 S 0.11616 0.9353 0.25804 0.0
N579 N 0.11449 0.91843 0.31903 0.0
N580 N 0.1688 0.93765 0.25353 0.0
C581 C 0.18762 0.92418 0.30273 0.0
C582 C 0.15808 0.91402 0.33848 0.0
C583 C 0.86286 0.16054 0.32395 0.0
C584 C 0.85582 0.16874 0.38436 0.0
C585 C 0.83097 0.15105 0.29395 0.0
C586 C 0.79139 0.14889 0.32381 0.0
H587 H 0.89382 0.16101 0.30026 0.0
H588 H 0.83821 0.14441 0.24785 0.0
S589 S 0.75646 0.16867 0.48144 0.0
N590 N 0.8058 0.1751 0.47233 0.0
N591 N 0.74599 0.15672 0.41641 0.0
C592 C 0.78347 0.15754 0.38387 0.0
C593 C 0.81563 0.16767 0.41401 0.0
C594 C 0.05436 0.17929 0.66818 0.0
C595 C 0.02921 0.1713 0.62315 0.0
C596 C 0.09074 0.16228 0.6973 0.0
C597 C 0.10297 0.13684 0.68204 0.0
H598 H 0.04887 0.19903 0.67656 0.0
H599 H 0.11185 0.16937 0.7278 0.0
S600 S 0.0458 0.10646 0.57036 0.0
N601 N 1.01698 0.1362 0.56799 0.0
N602 N 0.0853 0.1043 0.62235 0.0
C603 C 0.07584 0.12843 0.64068 0.0
C604 C 0.03883 0.14568 0.61133 0.0
C605 C 0.99965 0.93047 0.65893 0.0
C606 C 0.96039 0.93035 0.69262 0.0
C607 C 0.02879 0.90827 0.63558 0.0
C608 C 1.01849 0.88541 0.6433 0.0
H609 H 1.00594 0.94803 0.64662 0.0
H610 H 0.05654 0.90946 0.60591 0.0
S611 S 0.92292 0.87478 0.73402 0.0
N612 N 0.91617 0.90511 0.73909 0.0
N613 N 0.96918 0.86364 0.69214 0.0
C614 C 0.98156 0.88483 0.68114 0.0
C615 C 0.95284 0.90728 0.70654 0.0
C616 C 0.75496 0.41858 0.38294 0.0
C617 C 0.75454 0.41794 0.31906 0.0
C618 C 0.72646 0.40798 0.41772 0.0
C619 C 0.69705 0.39605 0.38997 0.0
H620 H 0.77701 0.42767 0.40629 0.0
H621 H 0.72643 0.40965 0.46661 0.0
S622 S 0.68157 0.38944 0.22546 0.0
N623 N 0.721 0.40451 0.22996 0.0
N624 N 0.66845 0.38415 0.29606 0.0
C625 C 0.69687 0.39465 0.32665 0.0
C626 C 0.72547 0.40564 0.29098 0.0
C627 C 0.31012 0.64015 0.40074 0.0
C628 C 0.29449 0.64969 0.34356 0.0
C629 C 0.33843 0.6508 0.43476 0.0
C630 C 0.3515 0.67154 0.41318 0.0
H631 H 0.30303 0.62334 0.41732 0.0
H632 H 0.35197 0.64209 0.47703 0.0
S633 S 0.31466 0.70538 0.26981 0.0
N634 N 0.29016 0.68243 0.26953 0.0
N635 N 0.3434 0.70256 0.33374 0.0
C636 C 0.33329 0.68239 0.35825 0.0
C637 C 0.30483 0.67138 0.32329 0.0
C638 C 0.53156 0.66022 0.63852 0.0
C639 C 0.53384 0.68494 0.63222 0.0
C640 C 0.56682 0.64212 0.66704 0.0
C641 C 0.60535 0.64834 0.68909 0.0
H642 H 0.50491 0.65429 0.61605 0.0
H643 H 0.56599 0.62284 0.6665 0.0
S644 S 0.62347 0.71128 0.69238 0.0
N645 N 0.57441 0.71525 0.65737 0.0
N646 N 0.6406 0.68142 0.71027 0.0
C647 C 0.60562 0.67344 0.68822 0.0
C648 C 0.56977 0.69174 0.65992 0.0
C649 C 0.52934 0.41256 0.62635 0.0
C650 C 0.52599 0.38818 0.63482 0.0
C651 C 0.49689 0.43302 0.65197 0.0
C652 C 0.46106 0.42969 0.68845 0.0
H653 H 0.5538 0.41611 0.59423 0.0
H654 H 0.4974 0.45161 0.63863 0.0
S655 S 0.44211 0.36936 0.73268 0.0
N656 N 0.48729 0.36165 0.68752 0.0
N657 N 0.42769 0.40008 0.73814 0.0
C658 C 0.46065 0.4053 0.70307 0.0
C659 C 0.49291 0.3845 0.67567 0.0
C660 C 0.72397 0.90273 0.91492 0.0
C661 C 0.68569 0.89901 0.88569 0.0
C662 C 0.75379 0.91396 0.88431 0.0
C663 C 0.74657 0.92137 0.8233 0.0
H664 H 0.72982 0.89776 0.96219 0.0
H665 H 0.78254 0.91698 0.90842 0.0
S666 S 0.65118 0.91524 0.72722 0.0
N667 N 0.64219 0.9033 0.79313 0.0
N668 N 0.69823 0.92401 0.73521 0.0
C669 C 0.70887 0.91715 0.79351 0.0
C670 C 0.67841 0.90608 0.82485 0.0
C671 C 0.38045 0.13648 0.90434 0.0
C672 C 0.38291 0.16084 0.89262 0.0
C673 C 0.3487 0.12671 0.87441 0.0
C674 C 0.31934 0.14078 0.83062 0.0
H675 H 0.40351 0.12493 0.93649 0.0
H676 H 0.3483 0.10772 0.88365 0.0
S677 S 0.31241 0.20542 0.78383 0.0
N678 N 0.35285 0.19889 0.83544 0.0
N679 N 0.29417 0.18028 0.77795 0.0
C680 C 0.32122 0.16521 0.81911 0.0
C681 C 0.35275 0.17532 0.85045 0.0
C682 C 0.54734 0.12963 0.14562 0.0
C683 C 0.57811 0.133 0.18974 0.0
C684 C 0.51519 0.15007 0.12014 0.0
C685 C 0.51326 0.17458 0.13724 0.0
H686 H 0.55099 0.11128 0.12661 0.0
H687 H 0.49571 0.1468 0.0817 0.0
S688 S 0.58229 0.19317 0.25628 0.0
N689 N 0.60088 0.16242 0.25467 0.0
N690 N 0.54125 0.20088 0.20563 0.0
C691 C 0.54062 0.17798 0.1856 0.0
C692 C 0.57295 0.15714 0.2122 0.0
C693 C 0.48492 0.88139 0.16358 0.0
C694 C 0.51798 0.88668 0.12512 0.0
C695 C 0.4513 0.90055 0.19171 0.0
C696 C 0.44894 0.92563 0.1808 0.0
H697 H 0.48216 0.86254 0.16708 0.0
H698 H 0.42435 0.89576 0.21705 0.0
S699 S 0.52728 0.94936 0.08402 0.0
N700 N 0.54761 0.91874 0.08029 0.0
N701 N 0.48275 0.95484 0.13025 0.0
C702 C 0.48315 0.93118 0.14524 0.0
C703 C 0.51819 0.91163 0.11808 0.0
C704 C 0.98513 0.26069 0.20862 0.0
C705 C 0.98284 0.27125 0.26682 0.0
C706 C 1.00736 0.26922 0.16082 0.0
C707 C 0.02791 0.28852 0.16988 0.0
H708 H 0.97125 0.24508 0.20075 0.0
H709 H 1.00998 0.26017 0.11702 0.0
S710 S 0.03448 0.32091 0.31429 0.0
N711 N 1.00415 0.30143 0.33111 0.0
N712 N 0.04654 0.31711 0.24117 0.0
C713 C 1.02526 0.29947 0.22738 0.0
C714 C 1.00248 0.29092 0.27595 0.0
C715 C 0.05757 0.8133 0.20471 0.0
C716 C 0.06616 0.79902 0.25804 0.0
C717 C 0.04156 0.80429 0.15244 0.0
C718 C 0.0328 0.78083 0.15178 0.0
H719 H 0.06308 0.83166 0.20349 0.0
H720 H 0.0352 0.81596 0.11249 0.0
S721 S 0.05017 0.73607 0.27979 0.0
N722 N 0.06493 0.76022 0.30709 0.0
N723 N 0.03509 0.74324 0.20897 0.0
C724 C 0.04153 0.7663 0.20479 0.0
C725 C 0.05824 0.77538 0.25781 0.0
C726 C 0.2494 0.57804 0.4873 0.0
C727 C 0.2188 0.57084 0.44913 0.0
C728 C 0.26619 0.56423 0.53923 0.0
C729 C 0.25356 0.54248 0.55392 0.0
H730 H 0.26347 0.59311 0.47415 0.0
H731 H 0.29119 0.56984 0.56613 0.0
S732 S 0.17121 0.5172 0.46999 0.0
N733 N 0.17335 0.54222 0.43149 0.0
N734 N 0.20572 0.51562 0.52799 0.0
C735 C 0.22022 0.53625 0.51833 0.0
C736 C 0.20263 0.55062 0.46611 0.0
C737 C 0.76282 0.51171 0.51398 0.0
C738 C 0.78575 0.5279 0.53911 0.0
C739 C 0.78019 0.49736 0.46275 0.0
C740 C 0.82109 0.49865 0.43505 0.0
H741 H 0.73039 0.51082 0.53268 0.0
H742 H 0.75968 0.48664 0.44189 0.0
S743 S 0.89541 0.537 0.48512 0.0
N744 N 0.85288 0.5433 0.5347 0.0
N745 N 0.88517 0.51633 0.43772 0.0
C746 C 0.84587 0.51347 0.46191 0.0
C747 C 0.82821 0.52815 0.51415 0.0
C748 C 0.99353 0.78706 0.75564 0.0
C749 C 0.98496 0.76356 0.75689 0.0
C750 C 1.01138 0.79549 0.70357 0.0
C751 C 1.02092 0.78083 0.65067 0.0
H752 H 0.98742 0.79879 0.79566 0.0
H753 H 1.01732 0.81371 0.70457 0.0
S754 S 1.00444 0.7179 0.63062 0.0
N755 N 0.98673 0.72591 0.70053 0.0
N756 N 1.02114 0.7415 0.60324 0.0
C757 C 1.01234 0.75733 0.65135 0.0
C758 C 0.99417 0.74877 0.70427 0.0
C759 C 0.08091 0.28329 0.73078 0.0
C760 C 0.05127 0.28751 0.7812 0.0
C761 C 0.06796 0.27523 0.67527 0.0
C762 C 1.02496 0.27099 0.66801 0.0
H763 H 0.1139 0.2869 0.7337 0.0
H764 H 0.09184 0.27234 0.63766 0.0
S765 S 0.93561 0.27816 0.78701 0.0
N766 N 0.97793 0.28553 0.82134 0.0
N767 N 0.953 0.27129 0.71649 0.0
C768 C 0.99537 0.27462 0.71847 0.0
C769 C 1.00865 0.28269 0.7751 0.0
C770 C 0.26242 0.07528 0.97905 0.0
C771 C 0.22678 0.07044 0.94592 0.0
C772 C 0.27827 0.06198 0.03191 0.0
C773 C 0.25932 0.04318 0.05272 0.0
H774 H 0.28072 0.08788 0.96122 0.0
H775 H 0.3071 0.06551 0.05484 0.0
S776 S 0.16324 1.02468 0.98317 0.0
N777 N 0.17094 0.04707 0.93895 0.0
N778 N 0.20097 1.02158 0.0379 0.0
C779 C 0.22147 0.03943 0.02211 0.0
C780 C 0.20511 0.05323 0.9687 0.0
C781 C 0.79965 0.98879 0.98982 0.0
C782 C 0.83055 0.99693 0.9533 0.0
C783 C 0.78134 1.00171 0.04281 0.0
C784 C 0.79263 1.02352 0.06041 0.0
H785 H 0.78662 0.97364 0.97468 0.0
H786 H 0.75629 0.99532 0.06835 0.0
S787 S 0.87477 0.05126 0.98135 0.0
N788 N 0.87457 1.02661 0.94018 0.0
N789 N 0.83932 0.05155 0.03846 0.0
C790 C 0.82606 1.03075 0.02627 0.0
C791 C 0.8452 1.01727 0.97298 0.0
C792 C 0.55797 0.27075 0.68386 0.0
C793 C 0.52469 0.28744 0.64959 0.0
C794 C 0.54653 0.26104 0.73843 0.0
C795 C 0.50149 0.26814 0.76133 0.0
H796 H 0.59289 0.26491 0.66767 0.0
H797 H 0.57316 0.24766 0.76246 0.0
S798 S 0.40292 0.3134 0.68995 0.0
N799 N 0.44572 0.31155 0.64227 0.0
N800 N 0.42413 0.29441 0.74639 0.0
C801 C 0.46813 0.28539 0.72768 0.0
C802 C 0.47976 0.2948 0.67148 0.0
C803 C 0.52137 0.79889 0.74227 0.0
C804 C 0.56739 0.79836 0.74979 0.0
C805 C 0.50632 0.79026 0.689 0.0
C806 C 0.53659 0.7809 0.64094 0.0
H807 H 0.49666 0.80607 0.77798 0.0
H808 H 0.47055 0.79128 0.68492 0.0
S809 S 0.66107 0.77381 0.63919 0.0
N810 N 0.64347 0.78677 0.70552 0.0
N811 N 0.61528 0.7701 0.60552 0.0
C812 C 0.58291 0.77969 0.64823 0.0
C813 C 0.59831 0.78843 0.70272 0.0
C814 C 0.72323 0.53392 0.00677 0.0
C815 C 0.74975 0.54362 0.04657 0.0
C816 C 0.70575 0.54671 0.95387 0.0
C817 C 0.71389 0.56963 0.93958 0.0
H818 H 0.71911 0.51546 0.01391 0.0
H819 H 0.6897 0.53747 0.9211 0.0
S820 S 0.7728 0.60528 0.03508 0.0
N821 N 0.77678 0.57932 0.07328 0.0
N822 N 0.74417 0.60317 0.97304 0.0
C823 C 0.73604 0.58071 0.982 0.0
C824 C 0.75404 0.5677 0.03579 0.0
C825 C 0.32634 0.5258 0.02441 0.0
C826 C 0.2864 0.52326 0.05274 0.0
C827 C 0.34399 0.51192 0.97238 0.0
C828 C 0.32257 0.4949 0.94794 0.0
H829 H 0.3422 0.53976 0.04014 0.0
H830 H 0.37184 0.51624 0.94805 0.0
S831 S 0.22248 0.47813 0.01213 0.0
N832 N 0.22992 0.50006 0.05787 0.0
N833 N 0.26322 0.47396 0.96028 0.0
C834 C 0.28533 0.49057 0.97931 0.0
C835 C 0.2671 0.50481 0.03171 0.0
C836 C 0.49257 0.75346 0.19961 0.0
C837 C 0.48687 0.76685 0.25435 0.0
C838 C 0.51019 0.76215 0.14778 0.0
C839 C 0.52324 0.78448 0.14856 0.0
H840 H 0.48319 0.73615 0.19675 0.0
H841 H 0.51386 0.75115 0.10672 0.0
S842 S 0.51729 0.82575 0.28235 0.0
N843 N 0.49732 0.80294 0.30747 0.0
N844 N 0.53007 0.81943 0.21021 0.0
C845 C 0.51842 0.79782 0.20359 0.0
C846 C 0.50018 0.78901 0.2563 0.0
C847 C 0.55633 0.27802 0.25656 0.0
C848 C 0.56966 0.30017 0.25282 0.0
C849 C 0.53571 0.26965 0.20741 0.0
C850 C 0.52776 0.28309 0.15278 0.0
H851 H 0.55983 0.26772 0.2987 0.0
H852 H 0.52403 0.25317 0.21316 0.0
S853 S 0.56261 0.34017 0.11714 0.0
N854 N 0.57771 0.33401 0.1884 0.0
N855 N 0.53946 0.3181 0.0957 0.0
C856 C 0.54319 0.30452 0.14743 0.0
C857 C 0.56404 0.31309 0.19752 0.0
C858 C 0.76271 0.06674 0.54203 0.0
C859 C 0.75099 0.04505 0.55989 0.0
C860 C 0.74392 0.08001 0.49009 0.0
C861 C 0.71212 0.07237 0.45488 0.0
H862 H 0.78836 0.07279 0.56651 0.0
H863 H 0.75726 0.09505 0.47455 0.0
S864 S 0.66649 1.01855 0.48437 0.0
N865 N 0.70294 1.01767 0.53974 0.0
N866 N 0.6668 0.04329 0.44355 0.0
C867 C 0.69706 0.05217 0.47504 0.0
C868 C 0.7167 0.03832 0.52721 0.0
C869 C 0.26955 1.00243 0.53096 0.0
C870 C 0.29121 1.02013 0.55106 0.0
C871 C 0.28471 0.98827 0.47875 0.0
C872 C 0.32231 0.99113 0.44549 0.0
H873 H 0.23925 1.00044 0.55391 0.0
H874 H 0.26456 0.9766 0.46141 0.0
S875 S 0.39326 1.03319 0.48146 0.0
N876 N 0.35424 0.03839 0.53586 0.0
N877 N 0.3829 1.01133 0.43802 0.0
C878 C 0.3466 1.00711 0.46777 0.0
C879 C 0.33095 1.02179 0.52058 0.0
C880 C 0.29477 0.28366 0.07058 0.0
C881 C 0.32343 0.26823 0.02724 0.0
C882 C 0.25331 0.30072 0.05398 0.0
C883 C 0.23911 0.30335 0.99321 0.0
H884 H 0.30459 0.28283 0.11774 0.0
H885 H 0.23253 0.31216 0.08893 0.0
S886 S 0.29917 0.26601 0.86279 0.0
N887 N 0.33211 0.25563 0.92134 0.0
N888 N 0.25573 0.28798 0.8901 0.0
C889 C 0.26691 0.28774 0.94968 0.0
C890 C 0.30856 0.27013 0.96668 0.0
C891 C 0.79861 0.75932 0.04496 0.0
C892 C 0.82504 0.77632 0.04795 0.0
C893 C 0.75084 0.76748 0.04222 0.0
C894 C 0.72716 0.79305 0.04179 0.0
H895 H 0.81492 0.73945 0.0439 0.0
H896 H 0.73247 0.75349 0.03903 0.0
S897 S 0.77971 0.84545 0.05135 0.0
N898 N 0.82335 0.82022 0.05234 0.0
N899 N 0.7339 0.83536 0.04702 0.0
C900 C 0.75299 0.8103 0.04604 0.0
C901 C 0.80171 0.802 0.04922 0.0
C902 C 0.02984 0.55633 0.30853 0.0
C903 C 0.0656 0.54041 0.27497 0.0
C904 C 0.98564 0.55329 0.30782 0.0
C905 C 0.97572 0.53425 0.27341 0.0
H906 H 0.03637 0.57088 0.33651 0.0
H907 H 0.95929 0.56553 0.33534 0.0
S908 S 0.05587 0.4901 0.17073 0.0
N909 N 0.08707 0.50658 0.20195 0.0
N910 N 1.0043 0.50095 0.20015 0.0
C911 C 1.01085 0.51885 0.23792 0.0
C912 C 0.0557 0.5219 0.23882 0.0
C913 C 0.29829 0.76048 0.54579 0.0
C914 C 0.32421 0.77778 0.54624 0.0
C915 C 0.2504 0.76826 0.54635 0.0
C916 C 0.226 0.79373 0.54666 0.0
H917 H 0.31508 0.74067 0.54456 0.0
H918 H 0.23244 0.75403 0.54526 0.0
S919 S 0.27719 0.84679 0.54936 0.0
N920 N 0.32139 0.82183 0.54841 0.0
N921 N 0.23171 0.83627 0.54889 0.0
C922 C 0.25139 0.81127 0.54785 0.0
C923 C 0.30027 0.80336 0.54785 0.0
C924 C 0.79633 0.25558 0.54753 0.0
C925 C 0.82465 0.27159 0.54988 0.0
C926 C 0.74869 0.265 0.54555 0.0
C927 C 0.72718 0.29088 0.54497 0.0
H928 H 0.81105 0.23557 0.54684 0.0
H929 H 0.72868 0.25176 0.54315 0.0
S930 S 0.78559 0.34095 0.5506 0.0
N931 N 0.82732 0.31485 0.55208 0.0
N932 N 0.73814 0.33234 0.54779 0.0
C933 C 0.75503 0.30712 0.54785 0.0
C934 C 0.80356 0.29755 0.55049 0.0
C935 C 0.06025 1.01997 0.81605 0.0
C936 C 0.06944 0.0405 0.78672 0.0
C937 C 1.01621 1.01674 0.81722 0.0
C938 C 0.97943 0.03396 0.78927 0.0
H939 H 0.08733 1.0063 0.83857 0.0
H940 H 1.01083 1.00072 0.84056 0.0
S941 S 0.98552 0.09007 0.70314 0.0
N942 N 0.03805 0.07778 0.72682 0.0
N943 N 0.95554 0.07177 0.72932 0.0
C944 C 0.98807 0.05456 0.75974 0.0
C945 C 0.03295 0.05782 0.75841 0.0
C946 C 0.48694 0.55094 0.80662 0.0
C947 C 0.47692 0.53135 0.77438 0.0
C948 C 0.53024 0.55516 0.80287 0.0
C949 C 0.56516 0.53993 0.76676 0.0
H950 H 0.46134 0.56282 0.83582 0.0
H951 H 0.53679 0.57008 0.82947 0.0
S952 S 0.55466 0.48837 0.66697 0.0
N953 N 0.50441 0.49812 0.70071 0.0
N954 N 0.58547 0.50596 0.69396 0.0
C955 C 0.55512 0.5208 0.73287 0.0
C956 C 0.51114 0.51652 0.73661 0.0
C957 C 0.48775 0.04439 0.32394 0.0
C958 C 0.48009 1.02343 0.29502 0.0
C959 C 0.5313 0.04818 0.32546 0.0
C960 C 0.56913 1.03112 0.29841 0.0
H961 H 0.45981 0.05804 0.34558 0.0
H962 H 0.53543 0.06462 0.34806 0.0
S963 S 0.56777 0.97356 0.2156 0.0
N964 N 0.51444 0.98558 0.23764 0.0
N965 N 0.59605 0.99267 0.24111 0.0
C966 C 0.5622 1.00993 0.27004 0.0
C967 C 0.51781 1.00609 0.26821 0.0
loop_
_geom_bond_atom_site_label_1
_geom_bond_atom_site_label_2
_geom_bond_distance
_geom_bond_site_symmetry_2
_ccdc_geom_bond_type
C0 C1 1.351 . S
C0 N3 1.368 . S
C0 H5 0.931 . S
C1 C0 1.351 . S
C1 N2 1.373 . S
C1 H29 0.930 . S
N2 C1 1.373 . S
N2 C4 1.340 . S
N3 C0 1.368 . S
N3 C4 1.321 . S
N3 Co6 2.135 1_556 S
C4 N2 1.340 . S
C4 N3 1.321 . S
C4 H28 0.930 . S
H5 C0 0.931 . S
Co6 N3 2.135 1_554 S
Co6 N9 2.121 . S
Co6 O14 2.055 . S
Co6 O17 2.039 . S
Co6 N20 2.140 1_554 S
C7 O8 1.227 1_554 S
C7 O17 1.265 . S
O8 C7 1.227 1_556 S
N9 Co6 2.121 . S
N9 C11 1.375 . S
N9 C12 1.313 . S
C10 C11 1.338 . S
C10 N13 1.377 . S
C10 H30 0.930 . S
C11 N9 1.375 . S
C11 C10 1.338 . S
C11 H15 0.931 . S
C12 N9 1.313 . S
C12 N13 1.344 . S
C12 H16 0.930 . S
N13 C10 1.377 . S
N13 C12 1.344 . S
O14 Co6 2.055 . S
O14 C18 1.253 . S
H15 C11 0.931 . S
H16 C12 0.930 . S
O17 Co6 2.039 . S
O17 C7 1.265 . S
C18 O14 1.253 . S
C18 O19 1.227 . S
O19 C18 1.227 . S
N20 Co6 2.140 1_556 S
N20 C23 1.346 . S
N20 C24 1.345 . S
C21 C22 1.387 . S
C21 C25 1.391 . S
C22 C21 1.387 . S
C22 C23 1.369 . S
C22 H31 0.929 . S
C23 N20 1.346 . S
C23 C22 1.369 . S
C23 H26 0.928 . S
C24 N20 1.345 . S
C24 C25 1.371 . S
C24 H27 0.931 1_556 S
C25 C21 1.391 . S
C25 C24 1.371 . S
C25 H32 0.930 1_455 S
H26 C23 0.928 . S
H27 C24 0.931 1_554 S
H28 C4 0.930 . S
H29 C1 0.930 . S
H30 C10 0.930 . S
H31 C22 0.929 . S
H32 C25 0.930 1_655 S
C33 C34 1.351 . S
C33 N36 1.368 . S
C33 H38 0.931 . S
C34 C33 1.351 . S
C34 N35 1.373 . S
C34 H62 0.930 . S
N35 C34 1.373 . S
N35 C37 1.340 . S
N36 C33 1.368 . S
N36 C37 1.321 . S
N36 Co39 2.135 1_556 S
C37 N35 1.340 . S
C37 N36 1.321 . S
C37 H61 0.930 . S
H38 C33 0.931 . S
Co39 N36 2.135 1_554 S
Co39 N42 2.121 . S
Co39 O47 2.055 . S
Co39 O50 2.039 . S
Co39 N53 2.140 1_554 S
C40 O41 1.227 1_554 S
C40 O50 1.265 . S
O41 C40 1.227 1_556 S
N42 Co39 2.121 . S
N42 C44 1.375 . S
N42 C45 1.313 . S
C43 C44 1.338 . S
C43 N46 1.377 . S
C43 H63 0.930 . S
C44 N42 1.375 . S
C44 C43 1.338 . S
C44 H48 0.931 . S
C45 N42 1.313 . S
C45 N46 1.344 . S
C45 H49 0.930 . S
N46 C43 1.377 . S
N46 C45 1.344 . S
O47 Co39 2.055 . S
O47 C51 1.253 . S
H48 C44 0.931 . S
H49 C45 0.930 . S
O50 Co39 2.039 . S
O50 C40 1.265 . S
C51 O47 1.253 . S
C51 O52 1.227 . S
O52 C51 1.227 . S
N53 Co39 2.140 1_556 S
N53 C56 1.346 . S
N53 C57 1.345 . S
C54 C55 1.387 . S
C54 C58 1.391 . S
C55 C54 1.387 . S
C55 C56 1.369 . S
C55 H64 0.929 . S
C56 N53 1.346 . S
C56 C55 1.369 . S
C56 H59 0.928 . S
C57 N53 1.345 . S
C57 C58 1.371 . S
C57 H60 0.931 1_556 S
C58 C54 1.391 . S
C58 C57 1.371 . S
C58 H65 0.930 1_655 S
H59 C56 0.928 . S
H60 C57 0.931 1_554 S
H61 C37 0.930 . S
H62 C34 0.930 . S
H63 C43 0.930 . S
H64 C55 0.929 . S
H65 C58 0.930 1_455 S
C66 C67 1.351 . S
C66 N69 1.368 . S
C66 H71 0.931 . S
C67 C66 1.351 . S
C67 N68 1.373 . S
C67 H95 0.930 . S
N68 C67 1.373 . S
N68 C70 1.340 . S
N69 C66 1.368 . S
N69 C70 1.321 . S
N69 Co72 2.135 . S
C70 N68 1.340 . S
C70 N69 1.321 . S
C70 H94 0.930 . S
H71 C66 0.931 . S
Co72 N69 2.135 . S
Co72 N75 2.121 . S
Co72 O80 2.055 . S
Co72 O83 2.039 . S
Co72 N86 2.140 . S
C73 O74 1.227 . S
C73 O83 1.265 . S
O74 C73 1.227 . S
N75 Co72 2.121 . S
N75 C77 1.375 . S
N75 C78 1.313 . S
C76 C77 1.338 . S
C76 N79 1.377 . S
C76 H96 0.930 . S
C77 N75 1.375 . S
C77 C76 1.338 . S
C77 H81 0.931 . S
C78 N75 1.313 . S
C78 N79 1.344 . S
C78 H82 0.930 . S
N79 C76 1.377 . S
N79 C78 1.344 . S
O80 Co72 2.055 . S
O80 C84 1.253 . S
H81 C77 0.931 . S
H82 C78 0.930 . S
O83 Co72 2.039 . S
O83 C73 1.265 . S
C84 O80 1.253 . S
C84 O85 1.227 . S
O85 C84 1.227 . S
N86 Co72 2.140 . S
N86 C89 1.346 . S
N86 C90 1.345 . S
C87 C88 1.387 . S
C87 C91 1.391 . S
C88 C87 1.387 . S
C88 C89 1.369 . S
C88 H97 0.929 . S
C89 N86 1.346 . S
C89 C88 1.369 . S
C89 H92 0.928 . S
C90 N86 1.345 . S
C90 C91 1.371 . S
C90 H93 0.931 . S
C91 C87 1.391 . S
C91 C90 1.371 . S
C91 H98 0.930 . S
H92 C89 0.928 . S
H93 C90 0.931 . S
H94 C70 0.930 . S
H95 C67 0.930 . S
H96 C76 0.930 . S
H97 C88 0.929 . S
H98 C91 0.930 . S
C99 C100 1.351 . S
C99 N102 1.368 . S
C99 H104 0.931 . S
C100 C99 1.351 . S
C100 N101 1.373 . S
C100 H128 0.930 . S
N101 C100 1.373 . S
N101 C103 1.340 . S
N102 C99 1.368 . S
N102 C103 1.321 . S
N102 Co105 2.135 . S
C103 N101 1.340 . S
C103 N102 1.321 . S
C103 H127 0.930 . S
H104 C99 0.931 . S
Co105 N102 2.135 . S
Co105 N108 2.121 . S
Co105 O113 2.055 . S
Co105 O116 2.039 . S
Co105 N119 2.140 . S
C106 O107 1.227 . S
C106 O116 1.265 . S
O107 C106 1.227 . S
N108 Co105 2.121 . S
N108 C110 1.375 . S
N108 C111 1.313 . S
C109 C110 1.338 . S
C109 N112 1.377 . S
C109 H129 0.930 . S
C110 N108 1.375 . S
C110 C109 1.338 . S
C110 H114 0.931 . S
C111 N108 1.313 . S
C111 N112 1.344 . S
C111 H115 0.930 . S
N112 C109 1.377 . S
N112 C111 1.344 . S
O113 Co105 2.055 . S
O113 C117 1.253 . S
H114 C110 0.931 . S
H115 C111 0.930 . S
O116 Co105 2.039 . S
O116 C106 1.265 . S
C117 O113 1.253 . S
C117 O118 1.227 . S
O118 C117 1.227 . S
N119 Co105 2.140 . S
N119 C122 1.346 . S
N119 C123 1.345 . S
C120 C121 1.387 . S
C120 C124 1.391 . S
C121 C120 1.387 . S
C121 C122 1.369 . S
C121 H130 0.929 . S
C122 N119 1.346 . S
C122 C121 1.369 . S
C122 H125 0.928 . S
C123 N119 1.345 . S
C123 C124 1.371 . S
C123 H126 0.931 . S
C124 C120 1.391 . S
C124 C123 1.371 . S
C124 H131 0.930 . S
H125 C122 0.928 . S
H126 C123 0.931 . S
H127 C103 0.930 . S
H128 C100 0.930 . S
H129 C109 0.930 . S
H130 C121 0.929 . S
H131 C124 0.930 . S
C132 C133 1.351 . S
C132 N135 1.368 . S
C132 H137 0.931 . S
C133 C132 1.351 . S
C133 N134 1.373 . S
C133 H161 0.930 . S
N134 C133 1.373 . S
N134 C136 1.340 . S
N135 C132 1.368 . S
N135 C136 1.321 . S
N135 Co138 2.135 . S
C136 N134 1.340 . S
C136 N135 1.321 . S
C136 H160 0.930 . S
H137 C132 0.931 . S
Co138 N135 2.135 . S
Co138 N141 2.121 . S
Co138 O146 2.055 . S
Co138 O149 2.039 . S
Co138 N152 2.140 . S
C139 O140 1.227 . S
C139 O149 1.265 . S
O140 C139 1.227 . S
N141 Co138 2.121 . S
N141 C143 1.375 . S
N141 C144 1.313 . S
C142 C143 1.338 . S
C142 N145 1.377 . S
C142 H162 0.930 . S
C143 N141 1.375 . S
C143 C142 1.338 . S
C143 H147 0.931 . S
C144 N141 1.313 . S
C144 N145 1.344 . S
C144 H148 0.930 . S
N145 C142 1.377 . S
N145 C144 1.344 . S
O146 Co138 2.055 . S
O146 C150 1.253 . S
H147 C143 0.931 . S
H148 C144 0.930 . S
O149 Co138 2.039 . S
O149 C139 1.265 . S
C150 O146 1.253 . S
C150 O151 1.227 . S
O151 C150 1.227 . S
N152 Co138 2.140 . S
N152 C155 1.346 . S
N152 C156 1.345 . S
C153 C154 1.387 . S
C153 C157 1.391 . S
C154 C153 1.387 . S
C154 C155 1.369 . S
C154 H163 0.929 . S
C155 N152 1.346 . S
C155 C154 1.369 . S
C155 H158 0.928 . S
C156 N152 1.345 . S
C156 C157 1.371 . S
C156 H159 0.931 . S
C157 C153 1.391 . S
C157 C156 1.371 . S
C157 H164 0.930 1_455 S
H158 C155 0.928 . S
H159 C156 0.931 . S
H160 C136 0.930 . S
H161 C133 0.930 . S
H162 C142 0.930 . S
H163 C154 0.929 . S
H164 C157 0.930 1_655 S
C165 C166 1.351 . S
C165 N168 1.368 . S
C165 H170 0.931 . S
C166 C165 1.351 . S
C166 N167 1.373 . S
C166 H194 0.930 . S
N167 C166 1.373 . S
N167 C169 1.340 . S
N168 C165 1.368 . S
N168 C169 1.321 . S
N168 Co171 2.135 . S
C169 N167 1.340 . S
C169 N168 1.321 . S
C169 H193 0.930 . S
H170 C165 0.931 . S
Co171 N168 2.135 . S
Co171 N174 2.121 . S
Co171 O179 2.055 . S
Co171 O182 2.039 . S
Co171 N185 2.140 . S
C172 O173 1.227 . S
C172 O182 1.265 . S
O173 C172 1.227 . S
N174 Co171 2.121 . S
N174 C176 1.375 . S
N174 C177 1.313 . S
C175 C176 1.338 . S
C175 N178 1.377 . S
C175 H195 0.930 . S
C176 N174 1.375 . S
C176 C175 1.338 . S
C176 H180 0.931 . S
C177 N174 1.313 . S
C177 N178 1.344 . S
C177 H181 0.930 . S
N178 C175 1.377 . S
N178 C177 1.344 . S
O179 Co171 2.055 . S
O179 C183 1.253 . S
H180 C176 0.931 . S
H181 C177 0.930 . S
O182 Co171 2.039 . S
O182 C172 1.265 . S
C183 O179 1.253 . S
C183 O184 1.227 . S
O184 C183 1.227 . S
N185 Co171 2.140 . S
N185 C188 1.346 . S
N185 C189 1.345 . S
C186 C187 1.387 . S
C186 C190 1.391 . S
C187 C186 1.387 . S
C187 C188 1.369 . S
C187 H196 0.929 . S
C188 N185 1.346 . S
C188 C187 1.369 . S
C188 H191 0.928 . S
C189 N185 1.345 . S
C189 C190 1.371 . S
C189 H192 0.931 . S
C190 C186 1.391 . S
C190 C189 1.371 . S
C190 H197 0.930 1_655 S
H191 C188 0.928 . S
H192 C189 0.931 . S
H193 C169 0.930 . S
H194 C166 0.930 . S
H195 C175 0.930 . S
H196 C187 0.929 . S
H197 C190 0.930 1_455 S
C198 C199 1.351 1_545 S
C198 N201 1.368 . S
C198 H203 0.933 . S
C199 C198 1.351 1_565 S
C199 N200 1.373 1_565 S
C199 H227 0.930 . S
N200 C199 1.373 1_545 S
N200 C202 1.340 . S
N201 C198 1.368 . S
N201 C202 1.321 . S
N201 Co204 2.135 . S
C202 N200 1.340 . S
C202 N201 1.321 . S
C202 H226 0.930 . S
H203 C198 0.933 . S
Co204 N201 2.135 . S
Co204 N207 2.121 . S
Co204 O212 2.055 . S
Co204 O215 2.039 . S
Co204 N218 2.140 . S
C205 O206 1.227 . S
C205 O215 1.265 . S
O206 C205 1.227 . S
N207 Co204 2.121 . S
N207 C209 1.375 . S
N207 C210 1.313 . S
C208 C209 1.338 . S
C208 N211 1.377 . S
C208 H228 0.930 . S
C209 N207 1.375 . S
C209 C208 1.338 . S
C209 H213 0.931 . S
C210 N207 1.313 . S
C210 N211 1.344 . S
C210 H214 0.930 . S
N211 C208 1.377 . S
N211 C210 1.344 . S
O212 Co204 2.055 . S
O212 C216 1.253 . S
H213 C209 0.931 . S
H214 C210 0.930 . S
O215 Co204 2.039 . S
O215 C205 1.265 . S
C216 O212 1.253 . S
C216 O217 1.227 . S
O217 C216 1.227 . S
N218 Co204 2.140 . S
N218 C221 1.346 . S
N218 C222 1.345 . S
C219 C220 1.387 . S
C219 C223 1.391 . S
C220 C219 1.387 . S
C220 C221 1.369 . S
C220 H229 0.929 . S
C221 N218 1.346 . S
C221 C220 1.369 . S
C221 H224 0.928 . S
C222 N218 1.345 . S
C222 C223 1.371 . S
C222 H225 0.931 . S
C223 C219 1.391 . S
C223 C222 1.371 . S
C223 H230 0.930 . S
H224 C221 0.928 . S
H225 C222 0.931 . S
H226 C202 0.930 . S
H227 C199 0.930 . S
H228 C208 0.930 . S
H229 C220 0.929 . S
H230 C223 0.930 . S
C231 C232 1.351 1_565 S
C231 N234 1.368 . S
C231 H236 0.933 . S
C232 C231 1.351 1_545 S
C232 N233 1.373 1_545 S
C232 H260 0.930 . S
N233 C232 1.373 1_565 S
N233 C235 1.340 . S
N234 C231 1.368 . S
N234 C235 1.321 . S
N234 Co237 2.135 . S
C235 N233 1.340 . S
C235 N234 1.321 . S
C235 H259 0.930 . S
H236 C231 0.933 . S
Co237 N234 2.135 . S
Co237 N240 2.121 . S
Co237 O245 2.055 . S
Co237 O248 2.039 . S
Co237 N251 2.140 . S
C238 O239 1.227 . S
C238 O248 1.265 . S
O239 C238 1.227 . S
N240 Co237 2.121 . S
N240 C242 1.375 . S
N240 C243 1.313 . S
C241 C242 1.338 . S
C241 N244 1.377 . S
C241 H261 0.930 . S
C242 N240 1.375 . S
C242 C241 1.338 . S
C242 H246 0.931 . S
C243 N240 1.313 . S
C243 N244 1.344 . S
C243 H247 0.930 . S
N244 C241 1.377 . S
N244 C243 1.344 . S
O245 Co237 2.055 . S
O245 C249 1.253 . S
H246 C242 0.931 . S
H247 C243 0.930 . S
O248 Co237 2.039 . S
O248 C238 1.265 . S
C249 O245 1.253 . S
C249 O250 1.227 . S
O250 C249 1.227 . S
N251 Co237 2.140 . S
N251 C254 1.346 . S
N251 C255 1.345 . S
C252 C253 1.387 . S
C252 C256 1.391 . S
C253 C252 1.387 . S
C253 C254 1.369 . S
C253 H262 0.929 . S
C254 N251 1.346 . S
C254 C253 1.369 . S
C254 H257 0.928 . S
C255 N251 1.345 . S
C255 C256 1.371 . S
C255 H258 0.931 . S
C256 C252 1.391 . S
C256 C255 1.371 . S
C256 H263 0.930 . S
H257 C254 0.928 . S
H258 C255 0.931 . S
H259 C235 0.930 . S
H260 C232 0.930 . S
H261 C241 0.930 . S
H262 C253 0.929 . S
H263 C256 0.930 . S
C264 C265 1.351 . S
C264 N267 1.368 . S
C264 H269 0.931 . S
C265 C264 1.351 . S
C265 N266 1.373 . S
C265 H293 0.930 . S
N266 C265 1.373 . S
N266 C268 1.340 . S
N267 C264 1.368 . S
N267 C268 1.321 . S
N267 Co270 2.135 . S
C268 N266 1.340 . S
C268 N267 1.321 . S
C268 H292 0.930 . S
H269 C264 0.931 . S
Co270 N267 2.135 . S
Co270 N273 2.121 . S
Co270 O278 2.055 . S
Co270 O281 2.039 . S
Co270 N284 2.140 . S
C271 O272 1.227 . S
C271 O281 1.265 . S
O272 C271 1.227 . S
N273 Co270 2.121 . S
N273 C275 1.375 . S
N273 C276 1.313 . S
C274 C275 1.338 . S
C274 N277 1.377 . S
C274 H294 0.930 . S
C275 N273 1.375 . S
C275 C274 1.338 . S
C275 H279 0.931 . S
C276 N273 1.313 . S
C276 N277 1.344 . S
C276 H280 0.930 . S
N277 C274 1.377 . S
N277 C276 1.344 . S
O278 Co270 2.055 . S
O278 C282 1.253 . S
H279 C275 0.931 . S
H280 C276 0.930 . S
O281 Co270 2.039 . S
O281 C271 1.265 . S
C282 O278 1.253 . S
C282 O283 1.227 . S
O283 C282 1.227 . S
N284 Co270 2.140 . S
N284 C287 1.346 . S
N284 C288 1.345 . S
C285 C286 1.387 . S
C285 C289 1.391 . S
C286 C285 1.387 . S
C286 C287 1.369 . S
C286 H295 0.929 . S
C287 N284 1.346 . S
C287 C286 1.369 . S
C287 H290 0.928 . S
C288 N284 1.345 . S
C288 C289 1.371 . S
C288 H291 0.931 . S
C289 C285 1.391 . S
C289 C288 1.371 . S
C289 H296 0.930 . S
H290 C287 0.928 . S
H291 C288 0.931 . S
H292 C268 0.930 . S
H293 C265 0.930 . S
H294 C274 0.930 . S
H295 C286 0.929 . S
H296 C289 0.930 . S
C297 C298 1.351 . S
C297 N300 1.368 . S
C297 H302 0.931 . S
C298 C297 1.351 . S
C298 N299 1.373 . S
C298 H326 0.930 . S
N299 C298 1.373 . S
N299 C301 1.340 . S
N300 C297 1.368 . S
N300 C301 1.321 . S
N300 Co303 2.135 . S
C301 N299 1.340 . S
C301 N300 1.321 . S
C301 H325 0.930 . S
H302 C297 0.931 . S
Co303 N300 2.135 . S
Co303 N306 2.121 . S
Co303 O311 2.055 . S
Co303 O314 2.039 . S
Co303 N317 2.140 . S
C304 O305 1.227 . S
C304 O314 1.265 . S
O305 C304 1.227 . S
N306 Co303 2.121 . S
N306 C308 1.375 . S
N306 C309 1.313 . S
C307 C308 1.338 . S
C307 N310 1.377 . S
C307 H327 0.930 . S
C308 N306 1.375 . S
C308 C307 1.338 . S
C308 H312 0.931 . S
C309 N306 1.313 . S
C309 N310 1.344 . S
C309 H313 0.930 . S
N310 C307 1.377 . S
N310 C309 1.344 . S
O311 Co303 2.055 . S
O311 C315 1.253 . S
H312 C308 0.931 . S
H313 C309 0.930 . S
O314 Co303 2.039 . S
O314 C304 1.265 . S
C315 O311 1.253 . S
C315 O316 1.227 . S
O316 C315 1.227 . S
N317 Co303 2.140 . S
N317 C320 1.346 . S
N317 C321 1.345 . S
C318 C319 1.387 . S
C318 C322 1.391 . S
C319 C318 1.387 . S
C319 C320 1.369 . S
C319 H328 0.929 . S
C320 N317 1.346 . S
C320 C319 1.369 . S
C320 H323 0.928 . S
C321 N317 1.345 . S
C321 C322 1.371 . S
C321 H324 0.931 . S
C322 C318 1.391 . S
C322 C321 1.371 . S
C322 H329 0.930 . S
H323 C320 0.928 . S
H324 C321 0.931 . S
H325 C301 0.930 . S
H326 C298 0.930 . S
H327 C307 0.930 . S
H328 C319 0.929 . S
H329 C322 0.930 . S
C330 C331 1.351 . S
C330 N333 1.368 . S
C330 H335 0.931 . S
C331 C330 1.351 . S
C331 N332 1.373 . S
C331 H359 0.930 . S
N332 C331 1.373 . S
N332 C334 1.340 . S
N333 C330 1.368 . S
N333 C334 1.321 . S
N333 Co336 2.135 . S
C334 N332 1.340 . S
C334 N333 1.321 . S
C334 H358 0.930 . S
H335 C330 0.931 . S
Co336 N333 2.135 . S
Co336 N339 2.121 . S
Co336 O344 2.055 . S
Co336 O347 2.039 . S
Co336 N350 2.140 . S
C337 O338 1.227 . S
C337 O347 1.265 . S
O338 C337 1.227 . S
N339 Co336 2.121 . S
N339 C341 1.375 . S
N339 C342 1.313 . S
C340 C341 1.338 . S
C340 N343 1.377 . S
C340 H360 0.930 . S
C341 N339 1.375 . S
C341 C340 1.338 . S
C341 H345 0.931 . S
C342 N339 1.313 . S
C342 N343 1.344 . S
C342 H346 0.930 . S
N343 C340 1.377 . S
N343 C342 1.344 . S
O344 Co336 2.055 . S
O344 C348 1.253 . S
H345 C341 0.931 . S
H346 C342 0.930 . S
O347 Co336 2.039 . S
O347 C337 1.265 . S
C348 O344 1.253 . S
C348 O349 1.227 . S
O349 C348 1.227 . S
N350 Co336 2.140 . S
N350 C353 1.346 . S
N350 C354 1.345 . S
C351 C352 1.387 . S
C351 C355 1.391 . S
C352 C351 1.387 . S
C352 C353 1.369 . S
C352 H361 0.929 . S
C353 N350 1.346 . S
C353 C352 1.369 . S
C353 H356 0.928 . S
C354 N350 1.345 . S
C354 C355 1.371 . S
C354 H357 0.931 . S
C355 C351 1.391 . S
C355 C354 1.371 . S
C355 H362 0.930 . S
H356 C353 0.928 . S
H357 C354 0.931 . S
H358 C334 0.930 . S
H359 C331 0.930 . S
H360 C340 0.930 . S
H361 C352 0.929 . S
H362 C355 0.930 . S
C363 C364 1.351 . S
C363 N366 1.368 . S
C363 H368 0.931 . S
C364 C363 1.351 . S
C364 N365 1.373 . S
C364 H392 0.930 . S
N365 C364 1.373 . S
N365 C367 1.340 . S
N366 C363 1.368 . S
N366 C367 1.321 . S
N366 Co369 2.135 . S
C367 N365 1.340 . S
C367 N366 1.321 . S
C367 H391 0.930 . S
H368 C363 0.931 . S
Co369 N366 2.135 . S
Co369 N372 2.121 . S
Co369 O377 2.055 . S
Co369 O380 2.039 . S
Co369 N383 2.140 . S
C370 O371 1.227 . S
C370 O380 1.265 . S
O371 C370 1.227 . S
N372 Co369 2.121 . S
N372 C374 1.375 . S
N372 C375 1.313 . S
C373 C374 1.338 . S
C373 N376 1.377 . S
C373 H393 0.930 . S
C374 N372 1.375 . S
C374 C373 1.338 . S
C374 H378 0.931 . S
C375 N372 1.313 . S
C375 N376 1.344 . S
C375 H379 0.930 . S
N376 C373 1.377 . S
N376 C375 1.344 . S
O377 Co369 2.055 . S
O377 C381 1.253 . S
H378 C374 0.931 . S
H379 C375 0.930 . S
O380 Co369 2.039 . S
O380 C370 1.265 . S
C381 O377 1.253 . S
C381 O382 1.227 . S
O382 C381 1.227 . S
N383 Co369 2.140 . S
N383 C386 1.346 . S
N383 C387 1.345 . S
C384 C385 1.387 . S
C384 C388 1.391 . S
C385 C384 1.387 . S
C385 C386 1.369 . S
C385 H394 0.929 . S
C386 N383 1.346 . S
C386 C385 1.369 . S
C386 H389 0.928 . S
C387 N383 1.345 . S
C387 C388 1.371 . S
C387 H390 0.931 . S
C388 C384 1.391 . S
C388 C387 1.371 . S
C388 H395 0.930 . S
H389 C386 0.928 . S
H390 C387 0.931 . S
H391 C367 0.930 . S
H392 C364 0.930 . S
H393 C373 0.930 . S
H394 C385 0.929 . S
H395 C388 0.930 . S
C396 C397 1.351 . S
C396 N399 1.368 . S
C396 H401 0.931 . S
C397 C396 1.351 . S
C397 N398 1.373 . S
C397 H425 0.930 . S
N398 C397 1.373 . S
N398 C400 1.340 . S
N399 C396 1.368 . S
N399 C400 1.321 . S
N399 Co402 2.135 1_556 S
C400 N398 1.340 . S
C400 N399 1.321 . S
C400 H424 0.930 . S
H401 C396 0.931 . S
Co402 N399 2.135 1_554 S
Co402 N405 2.121 . S
Co402 O410 2.055 . S
Co402 O413 2.039 . S
Co402 N416 2.140 1_554 S
C403 O404 1.227 1_554 S
C403 O413 1.265 . S
O404 C403 1.227 1_556 S
N405 Co402 2.121 . S
N405 C407 1.375 . S
N405 C408 1.313 . S
C406 C407 1.338 . S
C406 N409 1.377 . S
C406 H426 0.930 . S
C407 N405 1.375 . S
C407 C406 1.338 . S
C407 H411 0.931 . S
C408 N405 1.313 . S
C408 N409 1.344 . S
C408 H412 0.930 . S
N409 C406 1.377 . S
N409 C408 1.344 . S
O410 Co402 2.055 . S
O410 C414 1.253 . S
H411 C407 0.931 . S
H412 C408 0.930 . S
O413 Co402 2.039 . S
O413 C403 1.265 . S
C414 O410 1.253 . S
C414 O415 1.227 . S
O415 C414 1.227 . S
N416 Co402 2.140 1_556 S
N416 C419 1.346 . S
N416 C420 1.345 . S
C417 C418 1.387 . S
C417 C421 1.391 . S
C418 C417 1.387 . S
C418 C419 1.369 . S
C418 H427 0.929 . S
C419 N416 1.346 . S
C419 C418 1.369 . S
C419 H422 0.928 . S
C420 N416 1.345 . S
C420 C421 1.371 . S
C420 H423 0.931 1_556 S
C421 C417 1.391 . S
C421 C420 1.371 . S
C421 H428 0.930 . S
H422 C419 0.928 . S
H423 C420 0.931 1_554 S
H424 C400 0.930 . S
H425 C397 0.930 . S
H426 C406 0.930 . S
H427 C418 0.929 . S
H428 C421 0.930 . S
C429 C430 1.351 . S
C429 N432 1.368 . S
C429 H434 0.931 . S
C430 C429 1.351 . S
C430 N431 1.373 . S
C430 H458 0.930 . S
N431 C430 1.373 . S
N431 C433 1.340 . S
N432 C429 1.368 . S
N432 C433 1.321 . S
N432 Co435 2.135 1_556 S
C433 N431 1.340 . S
C433 N432 1.321 . S
C433 H457 0.930 . S
H434 C429 0.931 . S
Co435 N432 2.135 1_554 S
Co435 N438 2.121 . S
Co435 O443 2.055 . S
Co435 O446 2.039 . S
Co435 N449 2.140 1_554 S
C436 O437 1.227 1_554 S
C436 O446 1.265 . S
O437 C436 1.227 1_556 S
N438 Co435 2.121 . S
N438 C440 1.375 . S
N438 C441 1.313 . S
C439 C440 1.338 . S
C439 N442 1.377 . S
C439 H459 0.930 . S
C440 N438 1.375 . S
C440 C439 1.338 . S
C440 H444 0.931 . S
C441 N438 1.313 . S
C441 N442 1.344 . S
C441 H445 0.930 . S
N442 C439 1.377 . S
N442 C441 1.344 . S
O443 Co435 2.055 . S
O443 C447 1.253 . S
H444 C440 0.931 . S
H445 C441 0.930 . S
O446 Co435 2.039 . S
O446 C436 1.265 . S
C447 O443 1.253 . S
C447 O448 1.227 . S
O448 C447 1.227 . S
N449 Co435 2.140 1_556 S
N449 C452 1.346 . S
N449 C453 1.345 . S
C450 C451 1.387 . S
C450 C454 1.391 . S
C451 C450 1.387 . S
C451 C452 1.369 . S
C451 H460 0.929 . S
C452 N449 1.346 . S
C452 C451 1.369 . S
C452 H455 0.928 . S
C453 N449 1.345 . S
C453 C454 1.371 . S
C453 H456 0.931 1_556 S
C454 C450 1.391 . S
C454 C453 1.371 . S
C454 H461 0.930 . S
H455 C452 0.928 . S
H456 C453 0.931 1_554 S
H457 C433 0.930 . S
H458 C430 0.930 . S
H459 C439 0.930 . S
H460 C451 0.929 . S
H461 C454 0.930 . S
C462 C463 1.351 1_545 S
C462 N465 1.368 . S
C462 H467 0.933 . S
C463 C462 1.351 1_565 S
C463 N464 1.373 1_565 S
C463 H491 0.930 . S
N464 C463 1.373 1_545 S
N464 C466 1.340 . S
N465 C462 1.368 . S
N465 C466 1.321 . S
N465 Co468 2.135 . S
C466 N464 1.340 . S
C466 N465 1.321 . S
C466 H490 0.930 . S
H467 C462 0.933 . S
Co468 N465 2.135 . S
Co468 N471 2.121 . S
Co468 O476 2.055 . S
Co468 O479 2.039 . S
Co468 N482 2.140 . S
C469 O470 1.227 . S
C469 O479 1.265 . S
O470 C469 1.227 . S
N471 Co468 2.121 . S
N471 C473 1.375 . S
N471 C474 1.313 . S
C472 C473 1.338 . S
C472 N475 1.377 . S
C472 H492 0.930 . S
C473 N471 1.375 . S
C473 C472 1.338 . S
C473 H477 0.931 . S
C474 N471 1.313 . S
C474 N475 1.344 . S
C474 H478 0.930 . S
N475 C472 1.377 . S
N475 C474 1.344 . S
O476 Co468 2.055 . S
O476 C480 1.253 . S
H477 C473 0.931 . S
H478 C474 0.930 . S
O479 Co468 2.039 . S
O479 C469 1.265 . S
C480 O476 1.253 . S
C480 O481 1.227 . S
O481 C480 1.227 . S
N482 Co468 2.140 . S
N482 C485 1.346 . S
N482 C486 1.345 . S
C483 C484 1.387 . S
C483 C487 1.391 . S
C484 C483 1.387 . S
C484 C485 1.369 . S
C484 H493 0.929 . S
C485 N482 1.346 . S
C485 C484 1.369 . S
C485 H488 0.928 . S
C486 N482 1.345 . S
C486 C487 1.371 . S
C486 H489 0.931 . S
C487 C483 1.391 . S
C487 C486 1.371 . S
C487 H494 0.930 . S
H488 C485 0.928 . S
H489 C486 0.931 . S
H490 C466 0.930 . S
H491 C463 0.930 . S
H492 C472 0.930 . S
H493 C484 0.929 . S
H494 C487 0.930 . S
C495 C496 1.351 1_565 S
C495 N498 1.368 . S
C495 H500 0.933 . S
C496 C495 1.351 1_545 S
C496 N497 1.373 1_545 S
C496 H524 0.930 . S
N497 C496 1.373 1_565 S
N497 C499 1.340 . S
N498 C495 1.368 . S
N498 C499 1.321 . S
N498 Co501 2.135 . S
C499 N497 1.340 . S
C499 N498 1.321 . S
C499 H523 0.930 . S
H500 C495 0.933 . S
Co501 N498 2.135 . S
Co501 N504 2.121 . S
Co501 O509 2.055 . S
Co501 O512 2.039 . S
Co501 N515 2.140 . S
C502 O503 1.227 . S
C502 O512 1.265 . S
O503 C502 1.227 . S
N504 Co501 2.121 . S
N504 C506 1.375 . S
N504 C507 1.313 . S
C505 C506 1.338 . S
C505 N508 1.377 . S
C505 H525 0.930 . S
C506 N504 1.375 . S
C506 C505 1.338 . S
C506 H510 0.931 . S
C507 N504 1.313 . S
C507 N508 1.344 . S
C507 H511 0.930 . S
N508 C505 1.377 . S
N508 C507 1.344 . S
O509 Co501 2.055 . S
O509 C513 1.253 . S
H510 C506 0.931 . S
H511 C507 0.930 . S
O512 Co501 2.039 . S
O512 C502 1.265 . S
C513 O509 1.253 . S
C513 O514 1.227 . S
O514 C513 1.227 . S
N515 Co501 2.140 . S
N515 C518 1.346 . S
N515 C519 1.345 . S
C516 C517 1.387 . S
C516 C520 1.391 . S
C517 C516 1.387 . S
C517 C518 1.369 . S
C517 H526 0.929 . S
C518 N515 1.346 . S
C518 C517 1.369 . S
C518 H521 0.928 . S
C519 N515 1.345 . S
C519 C520 1.371 . S
C519 H522 0.931 . S
C520 C516 1.391 . S
C520 C519 1.371 . S
C520 H527 0.930 . S
H521 C518 0.928 . S
H522 C519 0.931 . S
H523 C499 0.930 . S
H524 C496 0.930 . S
H525 C505 0.930 . S
H526 C517 0.929 . S
H527 C520 0.930 . S
C528 C529 1.369 . S
C528 C530 1.419 . S
C528 H532 0.930 . S
C529 C528 1.369 . S
C529 C538 1.429 . S
C530 C528 1.419 . S
C530 C531 1.363 . S
C530 H533 0.929 . S
C531 C530 1.363 . S
C531 C537 1.428 . S
H532 C528 0.930 . S
H533 C530 0.929 . S
S534 N535 1.613 . S
S534 N536 1.610 . S
N535 S534 1.613 . S
N535 C538 1.350 . S
N536 S534 1.610 . S
N536 C537 1.351 . S
C537 C531 1.428 . S
C537 N536 1.351 . S
C537 C538 1.434 . S
C538 C529 1.429 . S
C538 N535 1.350 . S
C538 C537 1.434 . S
C539 C540 1.369 . S
C539 C541 1.419 . S
C539 H543 0.930 . S
C540 C539 1.369 . S
C540 C549 1.429 . S
C541 C539 1.419 . S
C541 C542 1.363 . S
C541 H544 0.929 . S
C542 C541 1.363 . S
C542 C548 1.428 . S
H543 C539 0.930 . S
H544 C541 0.929 . S
S545 N546 1.613 . S
S545 N547 1.610 . S
N546 S545 1.613 . S
N546 C549 1.350 . S
N547 S545 1.610 . S
N547 C548 1.351 . S
C548 C542 1.428 . S
C548 N547 1.351 . S
C548 C549 1.434 . S
C549 C540 1.429 . S
C549 N546 1.350 . S
C549 C548 1.434 . S
C550 C551 1.369 . S
C550 C552 1.419 . S
C550 H554 0.930 . S
C551 C550 1.369 . S
C551 C560 1.429 . S
C552 C550 1.419 . S
C552 C553 1.363 . S
C552 H555 0.929 . S
C553 C552 1.363 . S
C553 C559 1.428 . S
H554 C550 0.930 . S
H555 C552 0.929 . S
S556 N557 1.613 1_455 S
S556 N558 1.610 . S
N557 S556 1.613 1_655 S
N557 C560 1.350 1_655 S
N558 S556 1.610 . S
N558 C559 1.351 . S
C559 C553 1.428 . S
C559 N558 1.351 . S
C559 C560 1.434 . S
C560 C551 1.429 . S
C560 N557 1.350 1_455 S
C560 C559 1.434 . S
C561 C562 1.364 1_455 S
C561 C563 1.419 1_455 S
C561 H565 0.930 . S
C562 C561 1.364 1_655 S
C562 C571 1.447 . S
C563 C561 1.419 1_655 S
C563 C564 1.363 . S
C563 H566 0.929 . S
C564 C563 1.363 . S
C564 C570 1.428 . S
H565 C561 0.930 . S
H566 C563 0.929 . S
S567 N568 1.613 . S
S567 N569 1.610 . S
N568 S567 1.613 . S
N568 C571 1.350 . S
N569 S567 1.610 . S
N569 C570 1.351 . S
C570 C564 1.428 . S
C570 N569 1.351 . S
C570 C571 1.434 . S
C571 C562 1.447 . S
C571 N568 1.350 . S
C571 C570 1.434 . S
C572 C573 1.369 . S
C572 C574 1.419 . S
C572 H576 0.930 . S
C573 C572 1.369 . S
C573 C582 1.429 . S
C574 C572 1.419 . S
C574 C575 1.363 . S
C574 H577 0.929 . S
C575 C574 1.363 . S
C575 C581 1.428 . S
H576 C572 0.930 . S
H577 C574 0.929 . S
S578 N579 1.613 . S
S578 N580 1.610 . S
N579 S578 1.613 . S
N579 C582 1.350 . S
N580 S578 1.610 . S
N580 C581 1.351 . S
C581 C575 1.428 . S
C581 N580 1.351 . S
C581 C582 1.434 . S
C582 C573 1.429 . S
C582 N579 1.350 . S
C582 C581 1.434 . S
C583 C584 1.369 . S
C583 C585 1.419 . S
C583 H587 0.930 . S
C584 C583 1.369 . S
C584 C593 1.429 . S
C585 C583 1.419 . S
C585 C586 1.363 . S
C585 H588 0.929 . S
C586 C585 1.363 . S
C586 C592 1.428 . S
H587 C583 0.930 . S
H588 C585 0.929 . S
S589 N590 1.613 . S
S589 N591 1.610 . S
N590 S589 1.613 . S
N590 C593 1.350 . S
N591 S589 1.610 . S
N591 C592 1.351 . S
C592 C586 1.428 . S
C592 N591 1.351 . S
C592 C593 1.434 . S
C593 C584 1.429 . S
C593 N590 1.350 . S
C593 C592 1.434 . S
C594 C595 1.371 . S
C594 C596 1.419 . S
C594 H598 0.930 . S
C595 C594 1.371 . S
C595 C604 1.430 . S
C596 C594 1.419 . S
C596 C597 1.363 . S
C596 H599 0.929 . S
C597 C596 1.363 . S
C597 C603 1.428 . S
H598 C594 0.930 . S
H599 C596 0.929 . S
S600 N601 1.613 . S
S600 N602 1.610 . S
N601 S600 1.613 . S
N601 C604 1.350 . S
N602 S600 1.610 . S
N602 C603 1.351 . S
C603 C597 1.428 . S
C603 N602 1.351 . S
C603 C604 1.434 . S
C604 C595 1.430 . S
C604 N601 1.350 . S
C604 C603 1.434 . S
C605 C606 1.369 . S
C605 C607 1.419 . S
C605 H609 0.930 . S
C606 C605 1.369 . S
C606 C615 1.429 . S
C607 C605 1.419 . S
C607 C608 1.364 . S
C607 H610 0.929 . S
C608 C607 1.364 . S
C608 C614 1.431 . S
H609 C605 0.930 . S
H610 C607 0.929 . S
S611 N612 1.613 . S
S611 N613 1.610 . S
N612 S611 1.613 . S
N612 C615 1.350 . S
N613 S611 1.610 . S
N613 C614 1.351 . S
C614 C608 1.431 . S
C614 N613 1.351 . S
C614 C615 1.434 . S
C615 C606 1.429 . S
C615 N612 1.350 . S
C615 C614 1.434 . S
C616 C617 1.369 . S
C616 C618 1.419 . S
C616 H620 0.930 . S
C617 C616 1.369 . S
C617 C626 1.429 . S
C618 C616 1.419 . S
C618 C619 1.363 . S
C618 H621 0.929 . S
C619 C618 1.363 . S
C619 C625 1.428 . S
H620 C616 0.930 . S
H621 C618 0.929 . S
S622 N623 1.613 . S
S622 N624 1.610 . S
N623 S622 1.613 . S
N623 C626 1.350 . S
N624 S622 1.610 . S
N624 C625 1.351 . S
C625 C619 1.428 . S
C625 N624 1.351 . S
C625 C626 1.434 . S
C626 C617 1.429 . S
C626 N623 1.350 . S
C626 C625 1.434 . S
C627 C628 1.369 . S
C627 C629 1.419 . S
C627 H631 0.930 . S
C628 C627 1.369 . S
C628 C637 1.429 . S
C629 C627 1.419 . S
C629 C630 1.363 . S
C629 H632 0.929 . S
C630 C629 1.363 . S
C630 C636 1.428 . S
H631 C627 0.930 . S
H632 C629 0.929 . S
S633 N634 1.613 . S
S633 N635 1.610 . S
N634 S633 1.613 . S
N634 C637 1.350 . S
N635 S633 1.610 . S
N635 C636 1.351 . S
C636 C630 1.428 . S
C636 N635 1.351 . S
C636 C637 1.434 . S
C637 C628 1.429 . S
C637 N634 1.350 . S
C637 C636 1.434 . S
C638 C639 1.369 . S
C638 C640 1.419 . S
C638 H642 0.930 . S
C639 C638 1.369 . S
C639 C648 1.429 . S
C640 C638 1.419 . S
C640 C641 1.363 . S
C640 H643 0.929 . S
C641 C640 1.363 . S
C641 C647 1.428 . S
H642 C638 0.930 . S
H643 C640 0.929 . S
S644 N645 1.613 . S
S644 N646 1.610 . S
N645 S644 1.613 . S
N645 C648 1.350 . S
N646 S644 1.610 . S
N646 C647 1.351 . S
C647 C641 1.428 . S
C647 N646 1.351 . S
C647 C648 1.434 . S
C648 C639 1.429 . S
C648 N645 1.350 . S
C648 C647 1.434 . S
C649 C650 1.369 . S
C649 C651 1.419 . S
C649 H653 0.930 . S
C650 C649 1.369 . S
C650 C659 1.429 . S
C651 C649 1.419 . S
C651 C652 1.363 . S
C651 H654 0.929 . S
C652 C651 1.363 . S
C652 C658 1.428 . S
H653 C649 0.930 . S
H654 C651 0.929 . S
S655 N656 1.613 . S
S655 N657 1.610 . S
N656 S655 1.613 . S
N656 C659 1.350 . S
N657 S655 1.610 . S
N657 C658 1.351 . S
C658 C652 1.428 . S
C658 N657 1.351 . S
C658 C659 1.434 . S
C659 C650 1.429 . S
C659 N656 1.350 . S
C659 C658 1.434 . S
C660 C661 1.369 . S
C660 C662 1.419 . S
C660 H664 0.930 . S
C661 C660 1.369 . S
C661 C670 1.429 . S
C662 C660 1.419 . S
C662 C663 1.363 . S
C662 H665 0.929 . S
C663 C662 1.363 . S
C663 C669 1.428 . S
H664 C660 0.930 . S
H665 C662 0.929 . S
S666 N667 1.613 . S
S666 N668 1.610 . S
N667 S666 1.613 . S
N667 C670 1.350 . S
N668 S666 1.610 . S
N668 C669 1.351 . S
C669 C663 1.428 . S
C669 N668 1.351 . S
C669 C670 1.434 . S
C670 C661 1.429 . S
C670 N667 1.350 . S
C670 C669 1.434 . S
C671 C672 1.369 . S
C671 C673 1.419 . S
C671 H675 0.930 . S
C672 C671 1.369 . S
C672 C681 1.429 . S
C673 C671 1.419 . S
C673 C674 1.363 . S
C673 H676 0.929 . S
C674 C673 1.363 . S
C674 C680 1.428 . S
H675 C671 0.930 . S
H676 C673 0.929 . S
S677 N678 1.613 . S
S677 N679 1.610 . S
N678 S677 1.613 . S
N678 C681 1.350 . S
N679 S677 1.610 . S
N679 C680 1.351 . S
C680 C674 1.428 . S
C680 N679 1.351 . S
C680 C681 1.434 . S
C681 C672 1.429 . S
C681 N678 1.350 . S
C681 C680 1.434 . S
C682 C683 1.369 . S
C682 C684 1.419 . S
C682 H686 0.930 . S
C683 C682 1.369 . S
C683 C692 1.429 . S
C684 C682 1.419 . S
C684 C685 1.363 . S
C684 H687 0.929 . S
C685 C684 1.363 . S
C685 C691 1.428 . S
H686 C682 0.930 . S
H687 C684 0.929 . S
S688 N689 1.613 . S
S688 N690 1.610 . S
N689 S688 1.613 . S
N689 C692 1.350 . S
N690 S688 1.610 . S
N690 C691 1.351 . S
C691 C685 1.428 . S
C691 N690 1.351 . S
C691 C692 1.434 . S
C692 C683 1.429 . S
C692 N689 1.350 . S
C692 C691 1.434 . S
C693 C694 1.369 . S
C693 C695 1.419 . S
C693 H697 0.930 . S
C694 C693 1.369 . S
C694 C703 1.429 . S
C695 C693 1.419 . S
C695 C696 1.363 . S
C695 H698 0.929 . S
C696 C695 1.363 . S
C696 C702 1.428 . S
H697 C693 0.930 . S
H698 C695 0.929 . S
S699 N700 1.613 . S
S699 N701 1.610 . S
N700 S699 1.613 . S
N700 C703 1.350 . S
N701 S699 1.610 . S
N701 C702 1.351 . S
C702 C696 1.428 . S
C702 N701 1.351 . S
C702 C703 1.434 . S
C703 C694 1.429 . S
C703 N700 1.350 . S
C703 C702 1.434 . S
C704 C705 1.369 . S
C704 C706 1.419 . S
C704 H708 0.930 . S
C705 C704 1.369 . S
C705 C714 1.429 . S
C706 C704 1.419 . S
C706 C707 1.363 1_655 S
C706 H709 0.929 . S
C707 C706 1.363 1_455 S
C707 C713 1.428 . S
H708 C704 0.930 . S
H709 C706 0.929 . S
S710 N711 1.597 1_455 S
S710 N712 1.610 . S
N711 S710 1.597 1_655 S
N711 C714 1.354 . S
N712 S710 1.610 . S
N712 C713 1.351 . S
C713 C707 1.428 . S
C713 N712 1.351 . S
C713 C714 1.434 1_455 S
C714 C705 1.429 . S
C714 N711 1.354 . S
C714 C713 1.434 1_655 S
C715 C716 1.369 1_655 S
C715 C717 1.419 . S
C715 H719 0.930 . S
C716 C715 1.369 1_455 S
C716 C725 1.429 . S
C717 C715 1.419 . S
C717 C718 1.363 . S
C717 H720 0.929 . S
C718 C717 1.363 . S
C718 C724 1.428 1_655 S
H719 C715 0.930 . S
H720 C717 0.929 . S
S721 N722 1.613 . S
S721 N723 1.610 . S
N722 S721 1.613 . S
N722 C725 1.350 . S
N723 S721 1.610 . S
N723 C724 1.351 . S
C724 C718 1.428 1_455 S
C724 N723 1.351 . S
C724 C725 1.434 . S
C725 C716 1.429 . S
C725 N722 1.350 . S
C725 C724 1.434 . S
C726 C727 1.369 . S
C726 C728 1.419 . S
C726 H730 0.930 . S
C727 C726 1.369 . S
C727 C736 1.429 . S
C728 C726 1.419 . S
C728 C729 1.363 . S
C728 H731 0.929 . S
C729 C728 1.363 . S
C729 C735 1.428 . S
H730 C726 0.930 . S
H731 C728 0.929 . S
S732 N733 1.613 . S
S732 N734 1.610 . S
N733 S732 1.613 . S
N733 C736 1.350 . S
N734 S732 1.610 . S
N734 C735 1.351 . S
C735 C729 1.428 . S
C735 N734 1.351 . S
C735 C736 1.434 . S
C736 C727 1.429 . S
C736 N733 1.350 . S
C736 C735 1.434 . S
C737 C738 1.369 . S
C737 C739 1.419 . S
C737 H741 0.930 . S
C738 C737 1.369 . S
C738 C747 1.429 . S
C739 C737 1.419 . S
C739 C740 1.363 . S
C739 H742 0.929 . S
C740 C739 1.363 . S
C740 C746 1.428 . S
H741 C737 0.930 . S
H742 C739 0.929 . S
S743 N744 1.613 . S
S743 N745 1.610 . S
N744 S743 1.613 . S
N744 C747 1.350 . S
N745 S743 1.610 . S
N745 C746 1.351 . S
C746 C740 1.428 . S
C746 N745 1.351 . S
C746 C747 1.434 . S
C747 C738 1.429 . S
C747 N744 1.350 . S
C747 C746 1.434 . S
C748 C749 1.369 . S
C748 C750 1.419 . S
C748 H752 0.930 . S
C749 C748 1.369 . S
C749 C758 1.429 1_655 S
C750 C748 1.419 . S
C750 C751 1.363 1_655 S
C750 H753 0.929 . S
C751 C750 1.363 1_455 S
C751 C757 1.428 . S
H752 C748 0.930 . S
H753 C750 0.929 . S
S754 N755 1.613 . S
S754 N756 1.610 . S
N755 S754 1.613 . S
N755 C758 1.350 . S
N756 S754 1.610 . S
N756 C757 1.351 . S
C757 C751 1.428 . S
C757 N756 1.351 . S
C757 C758 1.434 . S
C758 C749 1.429 1_455 S
C758 N755 1.350 . S
C758 C757 1.434 . S
C759 C760 1.369 . S
C759 C761 1.419 1_455 S
C759 H763 0.930 . S
C760 C759 1.369 . S
C760 C769 1.429 . S
C761 C759 1.419 1_655 S
C761 C762 1.363 . S
C761 H764 0.929 . S
C762 C761 1.363 . S
C762 C768 1.428 . S
H763 C759 0.930 . S
H764 C761 0.929 . S
S765 N766 1.613 . S
S765 N767 1.610 1_455 S
N766 S765 1.613 . S
N766 C769 1.350 . S
N767 S765 1.610 1_655 S
N767 C768 1.351 . S
C768 C762 1.428 . S
C768 N767 1.351 . S
C768 C769 1.434 1_655 S
C769 C760 1.429 . S
C769 N766 1.350 . S
C769 C768 1.434 1_455 S
C770 C771 1.369 . S
C770 C772 1.419 1_556 S
C770 H774 0.930 . S
C771 C770 1.369 . S
C771 C780 1.429 1_545 S
C772 C770 1.419 1_554 S
C772 C773 1.363 1_545 S
C772 H775 0.929 . S
C773 C772 1.363 1_565 S
C773 C779 1.428 1_554 S
H774 C770 0.930 . S
H775 C772 0.929 . S
S776 N777 1.613 . S
S776 N778 1.610 . S
N777 S776 1.613 . S
N777 C780 1.350 . S
N778 S776 1.610 . S
N778 C779 1.351 . S
C779 C773 1.428 1_556 S
C779 N778 1.351 . S
C779 C780 1.434 . S
C780 C771 1.429 1_565 S
C780 N777 1.350 . S
C780 C779 1.434 . S
C781 C782 1.369 . S
C781 C783 1.419 1_556 S
C781 H785 0.930 . S
C782 C781 1.369 . S
C782 C791 1.429 1_565 S
C783 C781 1.419 1_554 S
C783 C784 1.363 1_565 S
C783 H786 0.929 . S
C784 C783 1.363 1_545 S
C784 C790 1.428 1_554 S
H785 C781 0.930 . S
H786 C783 0.929 . S
S787 N788 1.613 . S
S787 N789 1.610 . S
N788 S787 1.613 . S
N788 C791 1.350 . S
N789 S787 1.610 . S
N789 C790 1.351 . S
C790 C784 1.428 1_556 S
C790 N789 1.351 . S
C790 C791 1.434 . S
C791 C782 1.429 1_545 S
C791 N788 1.350 . S
C791 C790 1.434 . S
C792 C793 1.369 . S
C792 C794 1.419 . S
C792 H796 0.930 . S
C793 C792 1.369 . S
C793 C802 1.429 . S
C794 C792 1.419 . S
C794 C795 1.363 . S
C794 H797 0.929 . S
C795 C794 1.363 . S
C795 C801 1.428 . S
H796 C792 0.930 . S
H797 C794 0.929 . S
S798 N799 1.613 . S
S798 N800 1.610 . S
N799 S798 1.613 . S
N799 C802 1.350 . S
N800 S798 1.610 . S
N800 C801 1.351 . S
C801 C795 1.428 . S
C801 N800 1.351 . S
C801 C802 1.434 . S
C802 C793 1.429 . S
C802 N799 1.350 . S
C802 C801 1.434 . S
C803 C804 1.369 . S
C803 C805 1.419 . S
C803 H807 0.930 . S
C804 C803 1.369 . S
C804 C813 1.429 . S
C805 C803 1.419 . S
C805 C806 1.363 . S
C805 H808 0.929 . S
C806 C805 1.363 . S
C806 C812 1.428 . S
H807 C803 0.930 . S
H808 C805 0.929 . S
S809 N810 1.613 . S
S809 N811 1.610 . S
N810 S809 1.613 . S
N810 C813 1.350 . S
N811 S809 1.610 . S
N811 C812 1.351 . S
C812 C806 1.428 . S
C812 N811 1.351 . S
C812 C813 1.434 . S
C813 C804 1.429 . S
C813 N810 1.350 . S
C813 C812 1.434 . S
C814 C815 1.369 1_556 S
C814 C816 1.419 . S
C814 H818 0.930 . S
C815 C814 1.369 1_554 S
C815 C824 1.429 . S
C816 C814 1.419 . S
C816 C817 1.363 . S
C816 H819 0.929 . S
C817 C816 1.363 . S
C817 C823 1.428 . S
H818 C814 0.930 . S
H819 C816 0.929 . S
S820 N821 1.613 . S
S820 N822 1.610 1_554 S
N821 S820 1.613 . S
N821 C824 1.350 . S
N822 S820 1.610 1_556 S
N822 C823 1.351 . S
C823 C817 1.428 . S
C823 N822 1.351 . S
C823 C824 1.434 1_556 S
C824 C815 1.429 . S
C824 N821 1.350 . S
C824 C823 1.434 1_554 S
C825 C826 1.369 1_556 S
C825 C827 1.419 . S
C825 H829 0.930 1_556 S
C826 C825 1.369 1_554 S
C826 C835 1.431 . S
C827 C825 1.419 . S
C827 C828 1.363 . S
C827 H830 0.929 . S
C828 C827 1.363 . S
C828 C834 1.428 . S
H829 C825 0.930 1_554 S
H830 C827 0.929 . S
S831 N832 1.613 1_556 S
S831 N833 1.610 . S
N832 S831 1.613 1_554 S
N832 C835 1.352 . S
N833 S831 1.610 . S
N833 C834 1.351 . S
C834 C828 1.428 . S
C834 N833 1.351 . S
C834 C835 1.429 1_556 S
C835 C826 1.431 . S
C835 N832 1.352 . S
C835 C834 1.429 1_554 S
C836 C837 1.369 . S
C836 C838 1.419 . S
C836 H840 0.930 . S
C837 C836 1.369 . S
C837 C846 1.429 . S
C838 C836 1.419 . S
C838 C839 1.363 . S
C838 H841 0.929 . S
C839 C838 1.363 . S
C839 C845 1.428 . S
H840 C836 0.930 . S
H841 C838 0.929 . S
S842 N843 1.613 . S
S842 N844 1.610 . S
N843 S842 1.613 . S
N843 C846 1.350 . S
N844 S842 1.610 . S
N844 C845 1.351 . S
C845 C839 1.428 . S
C845 N844 1.351 . S
C845 C846 1.434 . S
C846 C837 1.429 . S
C846 N843 1.350 . S
C846 C845 1.434 . S
C847 C848 1.369 . S
C847 C849 1.419 . S
C847 H851 0.930 . S
C848 C847 1.369 . S
C848 C857 1.429 . S
C849 C847 1.419 . S
C849 C850 1.363 . S
C849 H852 0.929 . S
C850 C849 1.363 . S
C850 C856 1.428 . S
H851 C847 0.930 . S
H852 C849 0.929 . S
S853 N854 1.613 . S
S853 N855 1.610 . S
N854 S853 1.613 . S
N854 C857 1.350 . S
N855 S853 1.610 . S
N855 C856 1.351 . S
C856 C850 1.428 . S
C856 N855 1.351 . S
C856 C857 1.434 . S
C857 C848 1.429 . S
C857 N854 1.350 . S
C857 C856 1.434 . S
C858 C859 1.369 1_545 S
C858 C860 1.419 . S
C858 H862 0.930 . S
C859 C858 1.369 1_565 S
C859 C868 1.429 . S
C860 C858 1.419 . S
C860 C861 1.363 . S
C860 H863 0.929 . S
C861 C860 1.363 . S
C861 C867 1.428 1_545 S
H862 C858 0.930 . S
H863 C860 0.929 . S
S864 N865 1.613 . S
S864 N866 1.610 . S
N865 S864 1.613 . S
N865 C868 1.350 . S
N866 S864 1.610 . S
N866 C867 1.351 . S
C867 C861 1.428 1_565 S
C867 N866 1.351 . S
C867 C868 1.434 . S
C868 C859 1.429 . S
C868 N865 1.350 . S
C868 C867 1.434 . S
C869 C870 1.369 1_565 S
C869 C871 1.419 . S
C869 H873 0.930 . S
C870 C869 1.369 1_545 S
C870 C879 1.429 . S
C871 C869 1.419 . S
C871 C872 1.363 . S
C871 H874 0.929 . S
C872 C871 1.363 . S
C872 C878 1.428 1_565 S
H873 C869 0.930 . S
H874 C871 0.929 . S
S875 N876 1.613 . S
S875 N877 1.610 . S
N876 S875 1.613 . S
N876 C879 1.350 . S
N877 S875 1.610 . S
N877 C878 1.351 . S
C878 C872 1.428 1_545 S
C878 N877 1.351 . S
C878 C879 1.434 . S
C879 C870 1.429 . S
C879 N876 1.350 . S
C879 C878 1.434 . S
C880 C881 1.369 . S
C880 C882 1.419 . S
C880 H884 0.930 . S
C881 C880 1.369 . S
C881 C890 1.429 . S
C882 C880 1.419 . S
C882 C883 1.363 . S
C882 H885 0.929 . S
C883 C882 1.363 . S
C883 C889 1.428 . S
H884 C880 0.930 . S
H885 C882 0.929 . S
S886 N887 1.613 . S
S886 N888 1.610 . S
N887 S886 1.613 . S
N887 C890 1.350 1_556 S
N888 S886 1.610 . S
N888 C889 1.351 1_556 S
C889 C883 1.428 . S
C889 N888 1.351 1_554 S
C889 C890 1.434 . S
C890 C881 1.429 . S
C890 N887 1.350 1_554 S
C890 C889 1.434 . S
C891 C892 1.369 . S
C891 C893 1.419 . S
C891 H895 0.930 . S
C892 C891 1.369 . S
C892 C901 1.429 . S
C893 C891 1.419 . S
C893 C894 1.363 . S
C893 H896 0.929 . S
C894 C893 1.363 . S
C894 C900 1.428 . S
H895 C891 0.930 . S
H896 C893 0.929 . S
S897 N898 1.613 . S
S897 N899 1.610 . S
N898 S897 1.613 . S
N898 C901 1.350 . S
N899 S897 1.610 . S
N899 C900 1.351 . S
C900 C894 1.428 . S
C900 N899 1.351 . S
C900 C901 1.434 . S
C901 C892 1.429 . S
C901 N898 1.350 . S
C901 C900 1.434 . S
C902 C903 1.369 . S
C902 C904 1.419 1_455 S
C902 H906 0.930 . S
C903 C902 1.369 . S
C903 C912 1.429 . S
C904 C902 1.419 1_655 S
C904 C905 1.363 . S
C904 H907 0.929 . S
C905 C904 1.363 . S
C905 C911 1.428 . S
H906 C902 0.930 . S
H907 C904 0.929 . S
S908 N909 1.613 . S
S908 N910 1.610 1_455 S
N909 S908 1.613 . S
N909 C912 1.350 . S
N910 S908 1.610 1_655 S
N910 C911 1.351 . S
C911 C905 1.428 . S
C911 N910 1.351 . S
C911 C912 1.434 1_655 S
C912 C903 1.429 . S
C912 N909 1.350 . S
C912 C911 1.434 1_455 S
C913 C914 1.369 . S
C913 C915 1.419 . S
C913 H917 0.930 . S
C914 C913 1.369 . S
C914 C923 1.429 . S
C915 C913 1.419 . S
C915 C916 1.363 . S
C915 H918 0.929 . S
C916 C915 1.363 . S
C916 C922 1.428 . S
H917 C913 0.930 . S
H918 C915 0.929 . S
S919 N920 1.613 . S
S919 N921 1.610 . S
N920 S919 1.613 . S
N920 C923 1.350 . S
N921 S919 1.610 . S
N921 C922 1.351 . S
C922 C916 1.428 . S
C922 N921 1.351 . S
C922 C923 1.434 . S
C923 C914 1.429 . S
C923 N920 1.350 . S
C923 C922 1.434 . S
C924 C925 1.369 . S
C924 C926 1.419 . S
C924 H928 0.930 . S
C925 C924 1.369 . S
C925 C934 1.429 . S
C926 C924 1.419 . S
C926 C927 1.363 . S
C926 H929 0.929 . S
C927 C926 1.363 . S
C927 C933 1.428 . S
H928 C924 0.930 . S
H929 C926 0.929 . S
S930 N931 1.613 . S
S930 N932 1.610 . S
N931 S930 1.613 . S
N931 C934 1.350 . S
N932 S930 1.610 . S
N932 C933 1.351 . S
C933 C927 1.428 . S
C933 N932 1.351 . S
C933 C934 1.434 . S
C934 C925 1.429 . S
C934 N931 1.350 . S
C934 C933 1.434 . S
C935 C936 1.369 1_565 S
C935 C937 1.419 1_455 S
C935 H939 0.930 . S
C936 C935 1.369 1_545 S
C936 C945 1.429 . S
C937 C935 1.419 1_655 S
C937 C938 1.363 . S
C937 H940 0.929 . S
C938 C937 1.363 . S
C938 C944 1.428 1_565 S
H939 C935 0.930 . S
H940 C937 0.929 . S
S941 N942 1.613 1_655 S
S941 N943 1.610 . S
N942 S941 1.613 1_455 S
N942 C945 1.350 . S
N943 S941 1.610 . S
N943 C944 1.351 . S
C944 C938 1.428 1_545 S
C944 N943 1.351 . S
C944 C945 1.434 1_655 S
C945 C936 1.429 . S
C945 N942 1.350 . S
C945 C944 1.434 1_455 S
C946 C947 1.369 . S
C946 C948 1.419 . S
C946 H950 0.930 . S
C947 C946 1.369 . S
C947 C956 1.429 . S
C948 C946 1.419 . S
C948 C949 1.363 . S
C948 H951 0.929 . S
C949 C948 1.363 . S
C949 C955 1.428 . S
H950 C946 0.930 . S
H951 C948 0.929 . S
S952 N953 1.613 . S
S952 N954 1.610 . S
N953 S952 1.613 . S
N953 C956 1.350 . S
N954 S952 1.610 . S
N954 C955 1.351 . S
C955 C949 1.428 . S
C955 N954 1.351 . S
C955 C956 1.434 . S
C956 C947 1.429 . S
C956 N953 1.350 . S
C956 C955 1.434 . S
C957 C958 1.369 1_545 S
C957 C959 1.419 . S
C957 H961 0.930 . S
C958 C957 1.369 1_565 S
C958 C967 1.429 . S
C959 C957 1.419 . S
C959 C960 1.363 . S
C959 H962 0.929 . S
C960 C959 1.363 . S
C960 C966 1.428 1_545 S
H961 C957 0.930 . S
H962 C959 0.929 . S
S963 N964 1.613 . S
S963 N965 1.610 . S
N964 S963 1.613 . S
N964 C967 1.350 . S
N965 S963 1.610 . S
N965 C966 1.351 . S
C966 C960 1.428 1_565 S
C966 N965 1.351 . S
C966 C967 1.434 . S
C967 C958 1.429 . S
C967 N964 1.350 . S
C967 C966 1.434 . S
C529 N2 1.688 . S
C531 N376 1.696 . S
C540 N35 1.685 . S
C542 N343 1.694 . S
C551 C51 1.428 1_455 S
C553 C73 1.402 . S
C562 C18 1.415 1_655 S
C564 C106 1.403 . S
C573 N134 1.684 . S
C575 N508 1.698 . S
C584 N167 1.683 . S
C586 N475 1.696 . S
C595 C183 1.425 1_455 S
C597 C205 1.401 . S
C606 C238 1.408 . S
C608 C150 1.423 1_655 S
C617 N112 1.697 . S
C619 N266 1.685 . S
C628 N79 1.693 . S
C630 N299 1.688 . S
C639 C315 1.423 . S
C641 C337 1.405 . S
C650 C282 1.424 . S
C652 C370 1.408 . S
C661 N398 1.687 . S
C663 N244 1.696 . S
C672 N431 1.686 . S
C674 N211 1.694 . S
C683 C469 1.408 . S
C685 C447 1.424 . S
C694 C414 1.428 . S
C696 C502 1.402 . S
C705 C186 1.415 . S
C707 N13 1.387 . S
C716 C153 1.415 . S
C718 N46 1.389 . S
C727 C84 1.391 . S
C729 C384 1.397 . S
C738 C351 1.396 . S
C740 C117 1.391 . S
C749 C54 1.415 . S
C751 N145 1.383 . S
C760 C21 1.415 . S
C762 N178 1.388 . S
C771 C216 1.392 . S
C773 C516 1.398 . S
C782 C249 1.392 . S
C784 C483 1.398 . S
C793 N277 1.389 . S
C795 C450 1.415 . S
C804 C417 1.415 . S
C806 N310 1.384 . S
C815 C120 1.397 . S
C817 C348 1.394 . S
C826 C87 1.395 . S
C828 C381 1.393 . S
C837 C318 1.415 . S
C839 N409 1.388 . S
C848 C285 1.415 . S
C850 N442 1.384 . S
C859 C252 1.397 . S
C861 C480 1.391 . S
C870 C219 1.398 . S
C872 C513 1.391 . S
C881 C436 1.336 . S
C883 C7 1.335 . S
C892 C40 1.341 . S
C894 C403 1.341 . S
C903 N68 1.315 . S
C905 N101 1.314 . S
C914 C304 1.339 . S
C916 C139 1.341 . S
C925 C172 1.339 . S
C927 C271 1.341 . S
C936 N200 1.313 . S
C938 N233 1.311 . S
C947 N365 1.311 . S
C949 N332 1.310 . S
C958 N497 1.315 . S
C960 N464 1.313 . S
