# Generated by pormake.
# Topology sow, (4)-cn, num edge types: 1
# Building blocks:
#     Node 0, Type 0, BuildingBlock: KOZSID_clean_sbu_0, # of connection points: 4
#     Node 1, Type 0, BuildingBlock: KOZSID_clean_sbu_0, # of connection points: 4
#     Node 2, Type 0, BuildingBlock: KOZSID_clean_sbu_0, # of connection points: 4
#     Node 3, Type 0, BuildingBlock: KOZSID_clean_sbu_0, # of connection points: 4
#     Node 4, Type 0, BuildingBlock: KOZSID_clean_sbu_0, # of connection points: 4
#     Node 5, Type 0, BuildingBlock: KOZSID_clean_sbu_0, # of connection points: 4
#     Node 6, Type 0, BuildingBlock: KOZSID_clean_sbu_0, # of connection points: 4
#     Node 7, Type 0, BuildingBlock: KOZSID_clean_sbu_0, # of connection points: 4
#     Edge 8, Type (0, 0), BuildingBlock: EZIPEK_clean_linker_0, # of connection points: 2
#     Edge 9, Type (0, 0), BuildingBlock: EZIPEK_clean_linker_0, # of connection points: 2
#     Edge 10, Type (0, 0), BuildingBlock: EZIPEK_clean_linker_0, # of connection points: 2
#     Edge 11, Type (0, 0), BuildingBlock: EZIPEK_clean_linker_0, # of connection points: 2
#     Edge 12, Type (0, 0), BuildingBlock: EZIPEK_clean_linker_0, # of connection points: 2
#     Edge 13, Type (0, 0), BuildingBlock: EZIPEK_clean_linker_0, # of connection points: 2
#     Edge 14, Type (0, 0), BuildingBlock: EZIPEK_clean_linker_0, # of connection points: 2
#     Edge 15, Type (0, 0), BuildingBlock: EZIPEK_clean_linker_0, # of connection points: 2
#     Edge 16, Type (0, 0), BuildingBlock: EZIPEK_clean_linker_0, # of connection points: 2
#     Edge 17, Type (0, 0), BuildingBlock: EZIPEK_clean_linker_0, # of connection points: 2
#     Edge 18, Type (0, 0), BuildingBlock: EZIPEK_clean_linker_0, # of connection points: 2
#     Edge 19, Type (0, 0), BuildingBlock: EZIPEK_clean_linker_0, # of connection points: 2
#     Edge 20, Type (0, 0), BuildingBlock: EZIPEK_clean_linker_0, # of connection points: 2
#     Edge 21, Type (0, 0), BuildingBlock: EZIPEK_clean_linker_0, # of connection points: 2
#     Edge 22, Type (0, 0), BuildingBlock: EZIPEK_clean_linker_0, # of connection points: 2
#     Edge 23, Type (0, 0), BuildingBlock: EZIPEK_clean_linker_0, # of connection points: 2
# Relax obj value: 0.060
# Max RMSD: 0.293
# Mean RMSD: 0.223
data_MOF--net-sow--node1-KOZSID_clean_sbu_0--edge1-EZIPEK_clean_linker_0
_symmetry_space_group_name_H-M    P1
_symmetry_Int_Tables_number       1
_symmetry_cell_setting            triclinic
loop_
_symmetry_equiv_pos_as_xyz
'x, y, z'
_cell_length_a     42.513135
_cell_length_b     12.575811
_cell_length_c     19.720227
_cell_angle_alpha  91.762292
_cell_angle_beta   90.437518
_cell_angle_gamma 89.753852
loop_
_atom_site_label
_atom_site_type_symbol
_atom_site_fract_x
_atom_site_fract_y
_atom_site_fract_z
_atom_type_partial_charge
C0 C 0.12794 0.24176 0.24595 0.0
C1 C 0.13011 0.13141 0.24492 0.0
C2 C 0.1609 0.10593 0.23814 0.0
C3 C 0.176 0.20073 0.23142 0.0
N4 N 0.15689 0.28645 0.23592 0.0
Co5 Co 0.16659 0.43012 0.19852 0.0
N6 N 0.20413 0.37764 0.1485 0.0
C7 C 0.2172 0.28083 0.1558 0.0
C8 C 0.24535 0.26777 0.12488 0.0
C9 C 0.25153 0.36387 0.10034 0.0
C10 C 0.22585 0.42945 0.11157 0.0
N11 N 0.17554 0.5721 0.15906 0.0
C12 C 0.19643 0.60296 0.11016 0.0
C13 C 0.19179 0.70934 0.09639 0.0
C14 C 0.16912 0.74748 0.14042 0.0
C15 C 0.16031 0.66228 0.17789 0.0
N16 N 0.12763 0.47732 0.24741 0.0
C17 C 0.11897 0.57941 0.25788 0.0
C18 C 0.08993 0.58855 0.28799 0.0
C19 C 0.07965 0.48603 0.29648 0.0
C20 C 0.10228 0.41887 0.2682 0.0
N21 N 0.19506 0.47723 0.27978 0.0
C22 C 0.23725 0.57063 0.38294 0.0
C23 C 0.20412 0.57238 0.38983 0.0
C24 C 0.1838 0.52782 0.33812 0.0
C25 C 0.24804 0.52315 0.3227 0.0
C26 C 0.22747 0.47499 0.27455 0.0
N27 N 0.13907 0.39099 0.11968 0.0
C28 C 0.08682 0.41873 0.07654 0.0
C29 C 0.08445 0.3133 0.05058 0.0
C30 C 0.11306 0.25514 0.04969 0.0
C31 C 0.13957 0.29315 0.087 0.0
C32 C 0.11451 0.45712 0.10607 0.0
H33 H 0.15957 0.24104 0.09225 0.0
H34 H 0.11422 0.53764 0.12534 0.0
H35 H 0.15908 0.52989 0.34873 0.0
H36 H 0.23937 0.43571 0.23397 0.0
C37 C 0.20334 0.20593 0.19498 0.0
C38 C 0.09784 0.30099 0.25579 0.0
C39 C 0.22274 0.53614 0.08136 0.0
C40 C 0.13538 0.66042 0.22505 0.0
H41 H 0.11156 0.07319 0.24368 0.0
H42 H 0.17031 0.02683 0.22826 0.0
H43 H 0.25983 0.19784 0.11999 0.0
H44 H 0.27218 0.3813 0.07348 0.0
H45 H 0.2038 0.75544 0.05924 0.0
H46 H 0.15965 0.82751 0.1435 0.0
H47 H 0.07657 0.66082 0.29757 0.0
H48 H 0.05692 0.4634 0.31563 0.0
H49 H 0.19375 0.60675 0.43549 0.0
H50 H 0.27296 0.52043 0.31322 0.0
H51 H 0.06689 0.47172 0.0804 0.0
H52 H 0.11464 0.17797 0.02419 0.0
C53 C 0.46443 0.4516 0.75957 0.0
C54 C 0.48651 0.51885 0.78969 0.0
C55 C 0.47388 0.62001 0.79021 0.0
C56 C 0.44462 0.61029 0.76042 0.0
N57 N 0.43737 0.50844 0.74392 0.0
Co58 Co 0.40073 0.46663 0.68426 0.0
N59 N 0.38453 0.61414 0.67073 0.0
C60 C 0.39595 0.70124 0.70328 0.0
C61 C 0.37939 0.79166 0.68735 0.0
C62 C 0.35639 0.75912 0.64136 0.0
C63 C 0.36024 0.65045 0.6308 0.0
N64 N 0.36778 0.41957 0.61843 0.0
C65 C 0.35502 0.47596 0.56777 0.0
C66 C 0.34458 0.40957 0.51581 0.0
C67 C 0.34773 0.30777 0.53664 0.0
C68 C 0.36159 0.31807 0.59932 0.0
N69 N 0.41453 0.31554 0.701 0.0
C70 C 0.39756 0.22817 0.68365 0.0
C71 C 0.41266 0.13452 0.69623 0.0
C72 C 0.4414 0.16291 0.72103 0.0
C73 C 0.44219 0.27347 0.72455 0.0
N74 N 0.36959 0.46779 0.76389 0.0
C75 C 0.32005 0.52242 0.86199 0.0
C76 C 0.31602 0.44646 0.80786 0.0
C77 C 0.34038 0.42101 0.76017 0.0
C78 C 0.35017 0.56697 0.86593 0.0
C79 C 0.3739 0.53909 0.81782 0.0
N80 N 0.43124 0.48185 0.60721 0.0
C81 C 0.48174 0.43233 0.55844 0.0
C82 C 0.48951 0.54014 0.55138 0.0
C83 C 0.46519 0.61353 0.55831 0.0
C84 C 0.43606 0.58184 0.58253 0.0
C85 C 0.45271 0.40486 0.58814 0.0
H86 H 0.41849 0.64274 0.58334 0.0
H87 H 0.44844 0.32229 0.59739 0.0
H88 H 0.33478 0.36527 0.71942 0.0
H89 H 0.39591 0.57749 0.82601 0.0
C90 C 0.42428 0.69435 0.7413 0.0
C91 C 0.47068 0.33462 0.74412 0.0
C92 C 0.34416 0.58642 0.57547 0.0
C93 C 0.37395 0.2345 0.63513 0.0
H94 H 0.51002 0.49776 0.80569 0.0
H95 H 0.48554 0.69284 0.80651 0.0
H96 H 0.38425 0.8724 0.70469 0.0
H97 H 0.33999 0.81022 0.61546 0.0
H98 H 0.33493 0.43472 0.46888 0.0
H99 H 0.34204 0.2353 0.50821 0.0
H100 H 0.40535 0.0551 0.68056 0.0
H101 H 0.46019 0.10704 0.72989 0.0
H102 H 0.29368 0.40756 0.80134 0.0
H103 H 0.35596 0.62211 0.90735 0.0
H104 H 0.49862 0.37058 0.54533 0.0
H105 H 0.46886 0.69615 0.54649 0.0
C106 C 0.62114 0.14659 0.71665 0.0
C107 C 0.62005 0.24024 0.68082 0.0
C108 C 0.65025 0.26967 0.66927 0.0
C109 C 0.66862 0.1979 0.70221 0.0
N110 N 0.65183 0.12098 0.73069 0.0
Co111 Co 0.66806 0.02225 0.80051 0.0
N112 N 0.70183 0.11953 0.8298 0.0
C113 C 0.70979 0.2066 0.79552 0.0
C114 C 0.73297 0.26459 0.82541 0.0
C115 C 0.74106 0.2071 0.87978 0.0
C116 C 0.72192 0.11994 0.88389 0.0
N117 N 0.68294 0.92526 0.8719 0.0
C118 C 0.7062 0.93609 0.9208 0.0
C119 C 0.71174 0.83686 0.94858 0.0
C120 C 0.69119 0.7654 0.9182 0.0
C121 C 0.67449 0.82196 0.87166 0.0
N122 N 0.63193 0.93398 0.77034 0.0
C123 C 0.62943 0.82978 0.78072 0.0
C124 C 0.59993 0.79304 0.76279 0.0
C125 C 0.58321 0.87981 0.73982 0.0
C126 C 0.60277 0.96724 0.74802 0.0
N127 N 0.69834 0.9397 0.73368 0.0
C128 C 0.75154 0.76722 0.61492 0.0
C129 C 0.75866 0.77525 0.71466 0.0
C130 C 0.72969 0.86586 0.77236 0.0
C131 C 0.71394 0.8428 0.57772 0.0
C132 C 0.6879 0.93604 0.64589 0.0
N133 N 0.6396 0.09182 0.86772 0.0
C134 C 0.59474 0.06102 0.93694 0.0
C135 C 0.58707 0.16999 0.94319 0.0
C136 C 0.60992 0.23989 0.91762 0.0
C137 C 0.63521 0.19937 0.87742 0.0
C138 C 0.6212 0.02526 0.90308 0.0
H139 H 0.65052 0.25459 0.85304 0.0
H140 H 0.62458 0.94086 0.89994 0.0
H141 H 0.73524 0.8695 0.82481 0.0
H142 H 0.66536 0.9812 0.63456 0.0
C143 C 0.69598 0.23096 0.73408 0.0
C144 C 0.59327 0.08224 0.73695 0.0
C145 C 0.72764 0.03149 0.93158 0.0
C146 C 0.65055 0.78242 0.82698 0.0
H147 H 0.6004 0.29044 0.66894 0.0
H148 H 0.65752 0.34556 0.65022 0.0
H149 H 0.74581 0.32986 0.80431 0.0
H150 H 0.7641 0.20781 0.89557 0.0
H151 H 0.73032 0.8149 0.98309 0.0
H152 H 0.68966 0.68108 0.92705 0.0
H153 H 0.5905 0.71512 0.77209 0.0
H154 H 0.55872 0.88048 0.72448 0.0
H155 H 0.774 0.71882 0.73774 0.0
H156 H 0.69626 0.8914 0.59766 0.0
H157 H 0.57928 0.99882 0.95264 0.0
H158 H 0.60834 0.3248 0.92689 0.0
C159 C 0.97104 0.9273 0.23776 0.0
C160 C 0.98872 0.86753 0.19163 0.0
C161 C 0.97191 0.77593 0.17635 0.0
C162 C 0.9447 0.78391 0.21368 0.0
N163 N 0.94325 0.87559 0.25051 0.0
Co164 Co 0.9086 0.91427 0.31445 0.0
N165 N 0.88883 0.7705 0.31193 0.0
C166 C 0.89491 0.69481 0.26393 0.0
C167 C 0.87763 0.60401 0.27303 0.0
C168 C 0.85925 0.62492 0.32934 0.0
C169 C 0.86623 0.7275 0.35206 0.0
N170 N 0.87601 0.95732 0.38232 0.0
C171 C 0.85379 0.89996 0.41419 0.0
C172 C 0.83136 0.96613 0.4437 0.0
C173 C 0.83953 0.06793 0.43057 0.0
C174 C 0.86664 0.05865 0.39473 0.0
N175 N 0.92676 0.06112 0.31578 0.0
C176 C 0.91185 0.15011 0.33811 0.0
C177 C 0.93062 0.23813 0.34198 0.0
C178 C 0.95933 0.20345 0.32076 0.0
C179 C 0.95625 0.09615 0.30247 0.0
N180 N 0.87849 0.94695 0.23665 0.0
C181 C 0.83368 0.95675 0.12601 0.0
C182 C 0.82463 0.96699 0.19446 0.0
C183 C 0.84666 0.95919 0.24757 0.0
C184 C 0.86491 0.9251 0.11585 0.0
C185 C 0.88718 0.93128 0.16978 0.0
N186 N 0.93841 0.86933 0.38743 0.0
C187 C 0.979 0.90155 0.47355 0.0
C188 C 0.99042 0.79623 0.46499 0.0
C189 C 0.97413 0.72879 0.4204 0.0
C190 C 0.94873 0.7657 0.38329 0.0
C191 C 0.95292 0.93668 0.434 0.0
H192 H 0.9391 0.70862 0.34824 0.0
H193 H 0.94523 0.01842 0.4397 0.0
H194 H 0.83662 0.96268 0.29682 0.0
H195 H 0.91133 0.92268 0.15555 0.0
C196 C 0.92097 0.70592 0.22012 0.0
C197 C 0.98106 0.03369 0.26769 0.0
C198 C 0.84961 0.78455 0.40879 0.0
C199 C 0.88344 0.14367 0.37115 0.0
H200 H 1.01151 0.88774 0.17172 0.0
H201 H 0.97913 0.71022 0.14323 0.0
H202 H 0.87897 0.52995 0.24374 0.0
H203 H 0.84242 0.57141 0.35088 0.0
H204 H 0.8107 0.94263 0.47022 0.0
H205 H 0.82685 0.14046 0.44291 0.0
H206 H 0.92481 0.31629 0.36295 0.0
H207 H 0.98012 0.25249 0.31994 0.0
H208 H 0.80047 0.98468 0.20727 0.0
H209 H 0.87259 0.90469 0.06538 0.0
H210 H 0.99036 0.95641 0.50921 0.0
H211 H 0.98162 0.6468 0.4125 0.0
C212 C 0.93999 0.23437 0.9244 0.0
C213 C 0.95225 0.33178 0.90558 0.0
C214 C 0.92997 0.38147 0.86894 0.0
C215 C 0.90628 0.30936 0.86224 0.0
N216 N 0.91182 0.21618 0.89252 0.0
Co217 Co 0.88731 0.08098 0.87507 0.0
N218 N 0.86078 0.14691 0.80163 0.0
C219 C 0.86154 0.25014 0.78502 0.0
C220 C 0.83979 0.27915 0.7378 0.0
C221 C 0.82371 0.18893 0.72259 0.0
C222 C 0.83696 0.10866 0.76086 0.0
N223 N 0.86232 0.94869 0.85581 0.0
C224 C 0.83887 0.92509 0.80872 0.0
C225 C 0.83025 0.81988 0.81426 0.0
C226 C 0.84884 0.7752 0.8626 0.0
C227 C 0.86794 0.85549 0.88587 0.0
N228 N 0.91532 0.01625 0.94491 0.0
C229 C 0.91326 0.91566 0.96531 0.0
C230 C 0.935 0.89106 0.01428 0.0
C231 C 0.95255 0.98131 0.02446 0.0
C232 C 0.94135 0.05496 0.97899 0.0
N233 N 0.85484 0.12884 0.95051 0.0
C234 C 0.79896 0.22783 0.09355 0.0
C235 C 0.83977 0.15818 0.11495 0.0
C236 C 0.86662 0.10571 0.03601 0.0
C237 C 0.78922 0.25313 -0.00323 0.0
C238 C 0.82018 0.19776 0.92514 0.0
N239 N 0.91994 0.02392 0.80637 0.0
C240 C 0.93884 0.85539 0.75506 0.0
C241 C 0.97024 0.8781 0.77214 0.0
C242 C 0.97617 0.98253 0.79581 0.0
C243 C 0.95106 0.05405 0.81057 0.0
C244 C 0.91459 0.93023 0.7698 0.0
H245 H 0.95759 0.13292 0.8258 0.0
H246 H 0.89144 0.90818 0.75314 0.0
H247 H 0.88965 0.07713 0.04805 0.0
H248 H 0.81562 0.21437 0.87293 0.0
C249 C 0.88259 0.31912 0.81524 0.0
C250 C 0.95729 0.15758 0.96666 0.0
C251 C 0.82466 0.99936 0.75831 0.0
C252 C 0.89118 0.84666 0.93575 0.0
H253 H 0.97566 0.36253 0.91233 0.0
H254 H 0.9323 0.45626 0.84364 0.0
H255 H 0.83563 0.35741 0.71807 0.0
H256 H 0.80356 0.18501 0.689 0.0
H257 H 0.81184 0.77938 0.78879 0.0
H258 H 0.84813 0.6941 0.87938 0.0
H259 H 0.93798 0.81605 0.03906 0.0
H260 H 0.9722 0.9902 0.05932 0.0
H261 H 0.8483 0.15145 0.16636 0.0
H262 H 0.76975 0.3034 0.98337 0.0
H263 H 0.93287 0.77919 0.7314 0.0
H264 H 1.00017 0.00845 0.80443 0.0
C265 C 0.63474 0.7204 0.45623 0.0
C266 C 0.64457 0.61772 0.46865 0.0
C267 C 0.67089 0.59994 0.43039 0.0
C268 C 0.67589 0.69292 0.39728 0.0
N269 N 0.65449 0.76917 0.41275 0.0
Co270 Co 0.65065 0.91005 0.36797 0.0
N271 N 0.68452 0.87584 0.30045 0.0
C272 C 0.69884 0.78036 0.29169 0.0
C273 C 0.72366 0.78261 0.24763 0.0
C274 C 0.72586 0.88626 0.22944 0.0
C275 C 0.70202 0.94172 0.26204 0.0
N276 N 0.64822 0.05379 0.32622 0.0
C277 C 0.67008 0.10594 0.28918 0.0
C278 C 0.66214 0.21228 0.28271 0.0
C279 C 0.63463 0.22828 0.31676 0.0
C280 C 0.62751 0.13166 0.343 0.0
N281 N 0.61556 0.9433 0.43291 0.0
C282 C 0.59807 0.03299 0.43453 0.0
C283 C 0.57295 0.02979 0.47748 0.0
C284 C 0.57417 0.93137 0.50468 0.0
C285 C 0.59981 0.87945 0.47572 0.0
N286 N 0.68345 0.9714 0.43401 0.0
C287 C 0.72952 0.02537 0.53703 0.0
C288 C 0.69957 0.07474 0.53616 0.0
C289 C 0.67688 0.04578 0.4849 0.0
C290 C 0.73741 0.96911 0.47683 0.0
C291 C 0.71423 0.9384 0.42936 0.0
N292 N 0.61803 0.84411 0.30244 0.0
C293 C 0.56727 0.84411 0.24189 0.0
C294 C 0.56527 0.73118 0.24032 0.0
C295 C 0.59267 0.6794 0.26198 0.0
C296 C 0.61857 0.73608 0.28883 0.0
C297 C 0.59291 0.89834 0.27539 0.0
H298 H 0.63824 0.68815 0.301 0.0
H299 H 0.5918 0.98374 0.28001 0.0
H300 H 0.65375 0.08017 0.48924 0.0
H301 H 0.7219 0.88204 0.39165 0.0
C302 C 0.69471 0.70188 0.33968 0.0
C303 C 0.60503 0.76486 0.48195 0.0
C304 C 0.69893 0.05846 0.26002 0.0
C305 C 0.60484 0.11618 0.3922 0.0
H306 H 0.63288 0.55993 0.49914 0.0
H307 H 0.68337 0.52525 0.42336 0.0
H308 H 0.74051 0.71976 0.23669 0.0
H309 H 0.74458 0.92 0.20094 0.0
H310 H 0.67537 0.27293 0.2578 0.0
H311 H 0.62247 0.30325 0.3254 0.0
H312 H 0.55496 0.08989 0.48534 0.0
H313 H 0.55701 0.89886 0.53855 0.0
H314 H 0.69254 0.12611 0.57827 0.0
H315 H 0.75997 0.93082 0.47242 0.0
H316 H 0.54899 0.89135 0.21893 0.0
H317 H 0.59401 0.59332 0.26023 0.0
C318 C 0.44267 0.12784 0.06897 0.0
C319 C 0.46201 0.05619 0.1018 0.0
C320 C 0.44374 0.9723 0.11758 0.0
C321 C 0.41357 0.00249 0.1021 0.0
N322 N 0.41213 0.10123 0.07674 0.0
Co323 Co 0.37819 0.2076 0.09362 0.0
N324 N 0.36025 0.12161 0.16757 0.0
C325 C 0.36592 0.01759 0.1768 0.0
C326 C 0.35277 0.9796 0.23434 0.0
C327 C 0.33691 0.06381 0.26252 0.0
C328 C 0.34027 0.1476 0.21874 0.0
N329 N 0.34414 0.31286 0.11331 0.0
C330 C 0.32534 0.32424 0.16927 0.0
C331 C 0.31166 0.42452 0.17102 0.0
C332 C 0.32066 0.47387 0.11275 0.0
C333 C 0.33887 0.40073 0.07745 0.0
N334 N 0.39777 0.28955 0.02122 0.0
C335 C 0.38475 0.37405 0.99193 0.0
C336 C 0.40534 0.42058 0.94869 0.0
C337 C 0.43214 0.35947 0.94865 0.0
C338 C 0.42789 0.28318 -0.00309 0.0
N339 N 0.34866 0.13605 0.02263 0.0
C340 C 0.30083 0.0935 0.91727 0.0
C341 C 0.33292 0.11032 0.90212 0.0
C342 C 0.35612 0.12915 0.95453 0.0
C343 C 0.29436 0.09149 0.98759 0.0
C344 C 0.31794 0.1138 0.0382 0.0
N345 N 0.40723 0.29163 0.15837 0.0
C346 C 0.4335 0.46375 0.16834 0.0
C347 C 0.4602 0.42156 0.19859 0.0
C348 C 0.45817 0.31314 0.21635 0.0
C349 C 0.43144 0.24993 0.19615 0.0
C350 C 0.40757 0.40027 0.15187 0.0
H351 H 0.43135 0.16648 0.20756 0.0
H352 H 0.38901 0.44219 0.129 0.0
H353 H 0.37995 0.14377 0.9389 0.0
H354 H 0.31059 0.11982 0.09008 0.0
C355 C 0.38935 0.96497 0.14107 0.0
C356 C 0.45349 0.21403 0.02492 0.0
C357 C 0.31945 0.24056 0.22026 0.0
C358 C 0.35762 0.42191 0.02044 0.0
H359 H 0.48678 0.063 0.1136 0.0
H360 H 0.45106 0.90531 0.14726 0.0
H361 H 0.35558 0.90133 0.25502 0.0
H362 H 0.32312 0.06165 0.30833 0.0
H363 H 0.29613 0.45768 0.20924 0.0
H364 H 0.31464 0.55367 0.09813 0.0
H365 H 0.40345 0.4982 0.928 0.0
H366 H 0.45324 0.37686 0.92108 0.0
H367 H 0.34006 0.11392 0.84967 0.0
H368 H 0.27038 0.07991 0.00387 0.0
H369 H 0.43266 0.54718 0.15607 0.0
H370 H 0.4774 0.27655 0.24348 0.0
C371 C 0.12736 0.56561 0.56208 0.0
C372 C 0.13537 0.67284 0.56371 0.0
C373 C 0.16519 0.6803 0.58902 0.0
C374 C 0.1737 0.57843 0.60346 0.0
N375 N 0.15156 0.50549 0.58671 0.0
Co376 Co 0.15064 0.35541 0.61864 0.0
N377 N 0.18895 0.37445 0.67809 0.0
C378 C 0.20644 0.46366 0.68302 0.0
C379 C 0.23501 0.44961 0.71368 0.0
C380 C 0.23677 0.34344 0.72461 0.0
C381 C 0.20781 0.3006 0.70815 0.0
N382 N 0.14931 0.20523 0.6524 0.0
C383 C 0.16919 0.15014 0.69437 0.0
C384 C 0.15999 0.04512 0.69879 0.0
C385 C 0.13448 0.03186 0.65659 0.0
C386 C 0.12931 0.12946 0.629 0.0
N387 N 0.11327 0.33492 0.55776 0.0
C388 C 0.0999 0.24109 0.54088 0.0
C389 C 0.0746 0.25087 0.49776 0.0
C390 C 0.07205 0.35749 0.48601 0.0
C391 C 0.09509 0.40751 0.52549 0.0
N392 N 0.17868 0.3045 0.54146 0.0
C393 C 0.22211 0.25155 0.43513 0.0
C394 C 0.22461 0.2063 0.49876 0.0
C395 C 0.20267 0.23207 0.54997 0.0
C396 C 0.19491 0.31187 0.42339 0.0
C397 C 0.1742 0.3407 0.47706 0.0
N398 N 0.1217 0.41153 0.69273 0.0
C399 C 0.06659 0.44678 0.71939 0.0
C400 C 0.07298 0.55225 0.74151 0.0
C401 C 0.10502 0.57621 0.75128 0.0
C402 C 0.12873 0.50486 0.72777 0.0
C403 C 0.09101 0.37831 0.69514 0.0
H404 H 0.15257 0.53103 0.73313 0.0
H405 H 0.08444 0.30234 0.67262 0.0
H406 H 0.20613 0.19325 0.59616 0.0
H407 H 0.15481 0.39338 0.46634 0.0
C408 C 0.19802 0.55377 0.64782 0.0
C409 C 0.0963 0.52359 0.53879 0.0
C410 C 0.19998 0.18826 0.72106 0.0
C411 C 0.10808 0.15025 0.57631 0.0
H412 H 0.12081 0.74061 0.55242 0.0
H413 H 0.17777 0.7528 0.60225 0.0
H414 H 0.25358 0.50748 0.72072 0.0
H415 H 0.25757 0.3008 0.74009 0.0
H416 H 0.17195 0.98286 0.72571 0.0
H417 H 0.12232 0.95816 0.64442 0.0
H418 H 0.05851 0.18903 0.48074 0.0
H419 H 0.05367 0.39505 0.45682 0.0
H420 H 0.2441 0.15363 0.50978 0.0
H421 H 0.18996 0.33672 0.37286 0.0
H422 H 0.04247 0.41975 0.71564 0.0
H423 H 0.11181 0.65326 0.77251 0.0
C424 C 0.27897 0.45626 0.94299 0.0
C425 C 0.29418 0.54371 0.91673 0.0
C426 C 0.26441 0.64582 0.00749 0.0
C427 C 0.2435 0.55783 0.01745 0.0
N428 N 0.22678 0.39044 0.97117 0.0
N429 N 0.29781 0.7358 0.92621 0.0
C430 C 0.24862 0.46937 0.97327 0.0
C431 C 0.28574 0.64379 0.94929 0.0
N432 N 0.2965 0.36716 0.9501 0.0
N433 N 0.26647 0.72552 0.05547 0.0
H434 H 0.31211 0.73687 0.8835 0.0
H435 H 0.29101 0.8103 0.94582 0.0
H436 H 0.25437 0.7227 0.10114 0.0
H437 H 0.28285 0.78672 0.05276 0.0
H438 H 0.28899 0.30308 0.97785 0.0
H439 H 0.28899 0.30308 0.97785 0.0
H440 H 0.23303 0.31066 0.96847 0.0
H441 H 0.20328 0.40553 0.98359 0.0
C442 C 0.28784 0.66831 0.42893 0.0
C443 C 0.2611 0.60246 0.43999 0.0
C444 C 0.28565 0.5551 0.55045 0.0
C445 C 0.31328 0.61501 0.53734 0.0
N446 N 0.33981 0.7308 0.4617 0.0
N447 N 0.23365 0.49172 0.51236 0.0
C448 C 0.31377 0.67326 0.47648 0.0
C449 C 0.25968 0.55106 0.50254 0.0
N450 N 0.28939 0.72823 0.37284 0.0
N451 N 0.28576 0.4937 0.60621 0.0
H452 H 0.23026 0.44313 0.55325 0.0
H453 H 0.23026 0.44313 0.55325 0.0
H454 H 0.30162 0.50597 0.6463 0.0
H455 H 0.2727 0.42457 0.60959 0.0
H456 H 0.27129 0.73273 0.33694 0.0
H457 H 0.27129 0.73273 0.33694 0.0
H458 H 0.34169 0.77306 0.41717 0.0
H459 H 0.35926 0.73595 0.4942 0.0
C460 C 0.78021 0.94306 0.07659 0.0
C461 C 0.81057 0.99487 0.06916 0.0
C462 C 0.78773 0.05118 0.96837 0.0
C463 C 0.75524 0.03756 0.98588 0.0
N464 N 0.72455 0.96351 0.07567 0.0
N465 N 0.83741 0.24142 0.02277 0.0
C466 C 0.75273 0.98653 0.04789 0.0
C467 C 0.8132 0.09186 0.01948 0.0
N468 N 0.77689 0.84688 0.1058 0.0
N469 N 0.79732 0.98196 0.91964 0.0
H470 H 0.85367 0.29463 0.04711 0.0
H471 H 0.85367 0.29463 0.04711 0.0
H472 H 0.81834 0.94429 0.92979 0.0
H473 H 0.78184 0.94418 0.88538 0.0
H474 H 0.79551 0.79994 0.12264 0.0
H475 H 0.79551 0.79994 0.12264 0.0
H476 H 0.70314 0.9906 0.05642 0.0
H477 H 0.70314 0.9906 0.05642 0.0
C478 C 0.81144 0.72903 0.57954 0.0
C479 C 0.77831 0.7345 0.56365 0.0
C480 C 0.79373 0.72511 0.44161 0.0
C481 C 0.82619 0.7357 0.45817 0.0
N482 N 0.86622 0.73549 0.54395 0.0
N483 N 0.74201 0.67172 0.47833 0.0
C484 C 0.83496 0.72953 0.52732 0.0
C485 C 0.77068 0.7132 0.49416 0.0
N486 N 0.82127 0.72127 0.64444 0.0
N487 N 0.78432 0.73333 0.37579 0.0
H488 H 0.72548 0.65543 0.51541 0.0
H489 H 0.73742 0.63712 0.43071 0.0
H490 H 0.80015 0.74133 0.33614 0.0
H491 H 0.76074 0.73836 0.36184 0.0
H492 H 0.84181 0.68136 0.65808 0.0
H493 H 0.81301 0.7744 0.68036 0.0
H494 H 0.87467 0.74829 0.59324 0.0
H495 H 0.88386 0.7308 0.5074 0.0
C496 C 0.77788 0.19422 0.21323 0.0
C497 C 0.772 0.2219 0.14515 0.0
C498 C 0.71599 0.17324 0.16049 0.0
C499 C 0.72337 0.12552 0.22337 0.0
N500 N 0.76147 0.09935 0.31248 0.0
N501 N 0.73296 0.29261 0.07272 0.0
C502 C 0.75432 0.13978 0.25082 0.0
C503 C 0.74003 0.22779 0.12441 0.0
N504 N 0.80477 0.23003 0.24411 0.0
N505 N 0.68671 0.1596 0.13245 0.0
H506 H 0.71024 0.31141 0.05665 0.0
H507 H 0.71024 0.31141 0.05665 0.0
H508 H 0.66909 0.11589 0.15502 0.0
H509 H 0.68077 0.18084 0.08339 0.0
H510 H 0.81013 0.21985 0.29511 0.0
H511 H 0.81972 0.28244 0.22006 0.0
H512 H 0.78432 0.09363 0.33147 0.0
H513 H 0.74448 0.06693 0.34331 0.0
C514 C 0.78247 0.03079 0.59239 0.0
C515 C 0.74976 1.0009 0.60224 0.0
C516 C 0.76629 0.98117 0.71341 0.0
C517 C 0.79933 0.9711 0.70244 0.0
N518 N 0.83739 0.98732 0.61547 0.0
N519 N 0.71172 0.79792 0.68099 0.0
C520 C 0.80672 0.98942 0.6349 0.0
C521 C 0.74147 0.93099 0.66525 0.0
N522 N 0.78997 0.11017 0.54989 0.0
N523 N 0.75689 0.05158 0.76185 0.0
H524 H 0.69447 0.74257 0.66293 0.0
H525 H 0.69447 0.74257 0.66293 0.0
H526 H 0.77284 0.09156 0.79369 0.0
H527 H 0.77284 0.09156 0.79369 0.0
H528 H 0.8121 0.14568 0.55224 0.0
H529 H 0.77351 0.15005 0.52041 0.0
H530 H 0.84468 0.01058 0.5681 0.0
H531 H 0.85518 0.95808 0.64674 0.0
C532 C 0.24943 0.16839 0.86992 0.0
C533 C 0.27352 0.09243 0.86325 0.0
C534 C 0.24862 0.06313 0.74811 0.0
C535 C 0.22129 0.12383 0.76889 0.0
N536 N 0.1934 0.1907 0.86661 0.0
N537 N 0.29522 0.96122 0.78451 0.0
C538 C 0.2201 0.15082 0.83803 0.0
C539 C 0.27302 0.03687 0.79835 0.0
N540 N 0.2598 0.26842 0.86707 0.0
N541 N 0.2517 0.03359 0.68157 0.0
H542 H 0.31225 0.94103 0.82034 0.0
H543 H 0.29504 0.914 0.74016 0.0
H544 H 0.23394 0.04862 0.64627 0.0
H545 H 0.27204 0.99829 0.66195 0.0
H546 H 0.24517 0.33196 0.85469 0.0
H547 H 0.24517 0.33196 0.85469 0.0
H548 H 0.19315 0.21862 0.91695 0.0
H549 H 0.17178 0.18763 0.84116 0.0
C550 C 0.26873 0.16317 0.2737 0.0
C551 C 0.29285 0.24373 0.27278 0.0
C552 C 0.27504 0.30428 0.38582 0.0
C553 C 0.24794 0.23914 0.38195 0.0
N554 N 0.22315 0.0867 0.33054 0.0
N555 N 0.31906 0.38738 0.33332 0.0
C556 C 0.2459 0.16292 0.32779 0.0
C557 C 0.29555 0.31381 0.32984 0.0
N558 N 0.26808 0.08558 0.22363 0.0
N559 N 0.28434 0.34943 0.44561 0.0
H560 H 0.33743 0.3902 0.29876 0.0
H561 H 0.3186 0.45078 0.36846 0.0
H562 H 0.27419 0.33321 0.49204 0.0
H563 H 0.27419 0.33321 0.49204 0.0
H564 H 0.25179 0.02444 0.2196 0.0
H565 H 0.28421 0.08153 0.1844 0.0
H566 H 0.22023 0.02411 0.29557 0.0
H567 H 0.207 0.08444 0.37005 0.0
C568 C 0.03891 0.25947 0.21927 0.0
C569 C 0.0659 0.23864 0.26108 0.0
C570 C 0.03966 0.06963 0.29268 0.0
C571 C 1.01249 0.09153 0.25371 0.0
N572 N 0.98649 0.20744 0.17755 0.0
N573 N 0.08449 0.13919 0.35596 0.0
C574 C 1.01259 0.18612 0.21555 0.0
C575 C 0.0638 0.14844 0.30325 0.0
N576 N 0.03795 0.35056 0.18385 0.0
N577 N 0.04339 0.97082 0.3177 0.0
H578 H 0.10119 0.19757 0.36795 0.0
H579 H 0.0832 0.0786 0.39074 0.0
H580 H 1.02603 0.91257 0.31348 0.0
H581 H 0.06534 0.94391 0.33374 0.0
H582 H 1.01968 0.37298 0.1522 0.0
H583 H 0.05547 0.40713 0.18729 0.0
H584 H 0.98056 0.28259 0.16144 0.0
H585 H 0.96923 0.15034 0.16696 0.0
C586 C 0.50843 0.1897 0.79529 0.0
C587 C 0.5033 0.27419 0.74924 0.0
C588 C 0.54866 0.19824 0.68483 0.0
C589 C 0.55878 0.13136 0.73744 0.0
N590 N 0.54111 0.04503 0.83722 0.0
N591 N 0.52762 0.37064 0.6611 0.0
C592 C 0.53643 0.12158 0.79112 0.0
C593 C 0.52605 0.28133 0.69727 0.0
N594 N 0.48582 0.17233 0.8421 0.0
N595 N 0.55919 0.17879 0.62064 0.0
H596 H 0.51307 0.43488 0.67253 0.0
H597 H 0.54543 0.38329 0.62611 0.0
H598 H 0.57447 0.11558 0.60943 0.0
H599 H 0.55092 0.2213 0.57946 0.0
H600 H 0.48287 0.0996 0.86448 0.0
H601 H 0.46759 0.22625 0.85172 0.0
H602 H 0.52645 0.03198 0.87759 0.0
H603 H 0.55985 0.99258 0.83527 0.0
C604 C 0.04585 0.72941 0.70934 0.0
C605 C 0.04681 0.63741 0.75069 0.0
C606 C 0.99862 0.70757 0.80875 0.0
C607 C 0.99654 0.79461 0.76416 0.0
N608 N 1.01602 0.87904 0.6654 0.0
N609 N 1.02153 0.53658 0.83657 0.0
C610 C 1.01976 0.8031 0.71303 0.0
C611 C 1.02231 0.62592 0.79909 0.0
N612 N 0.06989 0.74681 0.66564 0.0
N613 N 0.97888 0.70568 0.86314 0.0
H614 H 0.03993 0.48165 0.83789 0.0
H615 H 1.0018 0.51409 0.86341 0.0
H616 H 0.96158 0.76327 0.87234 0.0
H617 H 0.98121 0.65247 0.90229 0.0
H618 H 0.0733 0.81816 0.64142 0.0
H619 H 0.08744 0.69117 0.65538 0.0
H620 H 0.02987 0.88415 0.62239 0.0
H621 H 0.99721 0.93252 0.66566 0.0
C622 C 0.48295 0.59446 0.24915 0.0
C623 C 0.48812 0.49698 0.21207 0.0
C624 C 0.54051 0.5667 0.17977 0.0
C625 C 0.53612 0.6622 0.22016 0.0
N626 N 0.49672 0.77776 0.27336 0.0
N627 N 0.52441 0.38584 0.14877 0.0
C628 C 0.50536 0.67976 0.24801 0.0
C629 C 0.51764 0.48208 0.17926 0.0
N630 N 0.45753 0.60239 0.29117 0.0
N631 N 0.56558 0.56101 0.13681 0.0
H632 H 0.50822 0.32418 0.14425 0.0
H633 H 0.54673 0.36424 0.13175 0.0
H634 H 0.58116 0.62418 0.13191 0.0
H635 H 0.56889 0.50027 0.10048 0.0
H636 H 0.45424 0.6648 0.3264 0.0
H637 H 0.44168 0.54025 0.29692 0.0
H638 H 0.47338 0.7988 0.28264 0.0
H639 H 0.51211 0.84008 0.28281 0.0
C640 C 0.04537 0.15468 0.02636 0.0
C641 C 0.05235 0.26633 0.02859 0.0
C642 C 0.9954 0.2929 0.02092 0.0
C643 C 0.98979 0.18747 -0.00358 0.0
N644 N 1.01608 0.02277 0.96098 0.0
N645 N 0.02987 0.43335 0.99126 0.0
C646 C 1.01672 0.11897 0.99446 0.0
C647 C 1.02616 0.33414 0.01562 0.0
N648 N 0.06355 0.0832 0.05942 0.0
N649 N 0.97155 0.35641 0.04421 0.0
H650 H 0.05138 0.45878 0.97255 0.0
H651 H 1.01069 0.48307 0.98198 0.0
H652 H 0.94886 0.32712 0.05085 0.0
H653 H 0.97562 0.43418 0.06219 0.0
H654 H 0.05778 0.0026 0.05973 0.0
H655 H 0.08052 0.1064 0.09521 0.0
H656 H 0.03609 0.97466 0.95694 0.0
H657 H 0.99688 0.99725 0.93187 0.0
C658 C 0.55435 0.66682 0.45123 0.0
C659 C 0.57769 0.69351 0.50027 0.0
C660 C 0.54292 0.61984 0.58599 0.0
C661 C 0.52194 0.57946 0.53456 0.0
N662 N 0.51276 0.54679 0.41529 0.0
N663 N 0.59642 0.67273 0.61438 0.0
C664 C 0.52962 0.59572 0.46632 0.0
C665 C 0.57289 0.66151 0.56757 0.0
N666 N 0.55336 0.71846 0.3922 0.0
N667 N 0.53338 0.6278 0.65176 0.0
H668 H 0.61795 0.70758 0.60338 0.0
H669 H 0.59532 0.63673 0.66118 0.0
H670 H 0.51057 0.6094 0.6661 0.0
H671 H 0.54695 0.66398 0.69011 0.0
H672 H 0.5335 0.7146 0.36187 0.0
H673 H 0.56945 0.77632 0.37981 0.0
H674 H 0.51987 0.54864 0.36485 0.0
H675 H 0.49389 0.49643 0.42419 0.0
C676 C 0.5062 0.30868 0.99044 0.0
C677 C 0.48814 0.21515 0.00224 0.0
C678 C 0.53806 0.12361 0.00791 0.0
C679 C 0.55482 0.20173 0.97297 0.0
N680 N 0.54651 0.37022 0.91583 0.0
N681 N 0.49192 0.02309 0.98219 0.0
C682 C 0.53686 0.29658 0.96013 0.0
C683 C 0.50549 0.11866 -0.00198 0.0
N684 N 0.49565 0.40691 0.01032 0.0
N685 N 0.5523 0.05745 0.05209 0.0
H686 H 0.46843 0.01704 0.96668 0.0
H687 H 0.5052 0.95296 0.97988 0.0
H688 H 0.5759 0.06687 0.06613 0.0
H689 H 0.53956 1.00029 0.07754 0.0
H690 H 0.50926 0.47494 0.00483 0.0
H691 H 0.47541 0.41724 0.03939 0.0
H692 H 0.5332 0.43829 0.90694 0.0
H693 H 0.56408 0.35521 0.88048 0.0
C694 C 0.07228 0.68341 0.47866 0.0
C695 C 0.06826 0.59726 0.52297 0.0
C696 C 1.01376 0.66354 0.54425 0.0
C697 C 1.0186 0.74876 0.50042 0.0
N698 N 0.05651 0.86197 0.45093 0.0
N699 N 0.03131 0.49613 0.58826 0.0
C700 C 0.04908 0.76531 0.47517 0.0
C701 C 0.03796 0.58529 0.55366 0.0
N702 N 0.09743 0.68385 0.43601 0.0
N703 N 0.98611 0.66074 0.5791 0.0
H704 H 0.0475 0.43633 0.59626 0.0
H705 H 1.00895 0.47606 0.60452 0.0
H706 H 0.96867 0.71866 0.57357 0.0
H707 H 0.98168 0.60952 0.61831 0.0
H708 H 0.10064 0.74184 0.40009 0.0
H709 H 0.11344 0.62083 0.43234 0.0
H710 H 0.07961 0.88339 0.44054 0.0
H711 H 0.04031 0.9244 0.45032 0.0
loop_
_geom_bond_atom_site_label_1
_geom_bond_atom_site_label_2
_geom_bond_distance
_geom_bond_site_symmetry_2
_ccdc_geom_bond_type
C0 C1 1.443 . S
C0 N4 1.376 . S
C0 C38 1.389 . S
C1 C0 1.443 . S
C1 C2 1.340 . S
C1 H41 0.951 . S
C2 C1 1.340 . S
C2 C3 1.439 . S
C2 H42 0.950 1_545 S
C3 C2 1.439 . S
C3 N4 1.374 . S
C3 C37 1.395 . S
N4 C0 1.376 . S
N4 C3 1.374 . S
N4 Co5 2.008 . S
Co5 N4 2.008 . S
Co5 N6 1.995 . S
Co5 N11 2.008 . S
Co5 N16 1.995 . S
Co5 N21 2.282 . S
Co5 N27 2.282 . S
N6 Co5 1.995 . S
N6 C7 1.376 . S
N6 C10 1.383 . S
C7 N6 1.376 . S
C7 C8 1.446 . S
C7 C37 1.391 . S
C8 C7 1.446 . S
C8 C9 1.339 . S
C8 H43 0.949 . S
C9 C8 1.339 . S
C9 C10 1.439 . S
C9 H44 0.950 . S
C10 N6 1.383 . S
C10 C9 1.439 . S
C10 C39 1.392 . S
N11 Co5 2.008 . S
N11 C12 1.376 . S
N11 C15 1.374 . S
C12 N11 1.376 . S
C12 C13 1.443 . S
C12 C39 1.389 . S
C13 C12 1.443 . S
C13 C14 1.340 . S
C13 H45 0.951 . S
C14 C13 1.340 . S
C14 C15 1.439 . S
C14 H46 0.950 . S
C15 N11 1.374 . S
C15 C14 1.439 . S
C15 C40 1.395 . S
N16 Co5 1.995 . S
N16 C17 1.376 . S
N16 C20 1.383 . S
C17 N16 1.376 . S
C17 C18 1.446 . S
C17 C40 1.391 . S
C18 C17 1.446 . S
C18 C19 1.339 . S
C18 H47 0.949 . S
C19 C18 1.339 . S
C19 C20 1.439 . S
C19 H48 0.950 . S
C20 N16 1.383 . S
C20 C19 1.439 . S
C20 C38 1.392 . S
N21 Co5 2.282 . S
N21 C24 1.332 . S
N21 C26 1.332 . S
C22 C23 1.386 . S
C22 C25 1.388 . S
C23 C22 1.386 . S
C23 C24 1.382 . S
C23 H49 0.950 . S
C24 N21 1.332 . S
C24 C23 1.382 . S
C24 H35 0.952 . S
C25 C22 1.388 . S
C25 C26 1.382 . S
C25 H50 0.950 . S
C26 N21 1.332 . S
C26 C25 1.382 . S
C26 H36 0.948 . S
N27 Co5 2.282 . S
N27 C31 1.332 . S
N27 C32 1.332 . S
C28 C29 1.388 . S
C28 C32 1.382 . S
C28 H51 0.950 . S
C29 C28 1.388 . S
C29 C30 1.386 . S
C30 C29 1.386 . S
C30 C31 1.382 . S
C30 H52 0.950 1_554 S
C31 N27 1.332 . S
C31 C30 1.382 . S
C31 H33 0.952 . S
C32 N27 1.332 . S
C32 C28 1.382 . S
C32 H34 0.948 . S
H33 C31 0.952 . S
H34 C32 0.948 . S
H35 C24 0.952 . S
H36 C26 0.948 . S
C37 C3 1.395 . S
C37 C7 1.391 . S
C38 C0 1.389 . S
C38 C20 1.392 . S
C39 C10 1.392 . S
C39 C12 1.389 . S
C40 C15 1.395 . S
C40 C17 1.391 . S
H41 C1 0.951 . S
H42 C2 0.950 1_565 S
H43 C8 0.949 . S
H44 C9 0.950 . S
H45 C13 0.951 . S
H46 C14 0.950 . S
H47 C18 0.949 . S
H48 C19 0.950 . S
H49 C23 0.950 . S
H50 C25 0.950 . S
H51 C28 0.950 . S
H52 C30 0.950 1_556 S
C53 C54 1.443 . S
C53 N57 1.376 . S
C53 C91 1.389 . S
C54 C53 1.443 . S
C54 C55 1.340 . S
C54 H94 0.951 . S
C55 C54 1.340 . S
C55 C56 1.439 . S
C55 H95 0.950 . S
C56 C55 1.439 . S
C56 N57 1.374 . S
C56 C90 1.395 . S
N57 C53 1.376 . S
N57 C56 1.374 . S
N57 Co58 2.008 . S
Co58 N57 2.008 . S
Co58 N59 1.995 . S
Co58 N64 2.008 . S
Co58 N69 1.995 . S
Co58 N74 2.282 . S
Co58 N80 2.282 . S
N59 Co58 1.995 . S
N59 C60 1.376 . S
N59 C63 1.383 . S
C60 N59 1.376 . S
C60 C61 1.446 . S
C60 C90 1.391 . S
C61 C60 1.446 . S
C61 C62 1.339 . S
C61 H96 0.949 . S
C62 C61 1.339 . S
C62 C63 1.439 . S
C62 H97 0.950 . S
C63 N59 1.383 . S
C63 C62 1.439 . S
C63 C92 1.392 . S
N64 Co58 2.008 . S
N64 C65 1.376 . S
N64 C68 1.374 . S
C65 N64 1.376 . S
C65 C66 1.443 . S
C65 C92 1.389 . S
C66 C65 1.443 . S
C66 C67 1.340 . S
C66 H98 0.951 . S
C67 C66 1.340 . S
C67 C68 1.439 . S
C67 H99 0.950 . S
C68 N64 1.374 . S
C68 C67 1.439 . S
C68 C93 1.395 . S
N69 Co58 1.995 . S
N69 C70 1.376 . S
N69 C73 1.383 . S
C70 N69 1.376 . S
C70 C71 1.446 . S
C70 C93 1.391 . S
C71 C70 1.446 . S
C71 C72 1.339 . S
C71 H100 0.949 . S
C72 C71 1.339 . S
C72 C73 1.439 . S
C72 H101 0.950 . S
C73 N69 1.383 . S
C73 C72 1.439 . S
C73 C91 1.392 . S
N74 Co58 2.282 . S
N74 C77 1.332 . S
N74 C79 1.332 . S
C75 C76 1.386 . S
C75 C78 1.388 . S
C76 C75 1.386 . S
C76 C77 1.382 . S
C76 H102 0.950 . S
C77 N74 1.332 . S
C77 C76 1.382 . S
C77 H88 0.952 . S
C78 C75 1.388 . S
C78 C79 1.382 . S
C78 H103 0.950 . S
C79 N74 1.332 . S
C79 C78 1.382 . S
C79 H89 0.948 . S
N80 Co58 2.282 . S
N80 C84 1.332 . S
N80 C85 1.332 . S
C81 C82 1.388 . S
C81 C85 1.382 . S
C81 H104 0.950 . S
C82 C81 1.388 . S
C82 C83 1.386 . S
C83 C82 1.386 . S
C83 C84 1.382 . S
C83 H105 0.950 . S
C84 N80 1.332 . S
C84 C83 1.382 . S
C84 H86 0.952 . S
C85 N80 1.332 . S
C85 C81 1.382 . S
C85 H87 0.948 . S
H86 C84 0.952 . S
H87 C85 0.948 . S
H88 C77 0.952 . S
H89 C79 0.948 . S
C90 C56 1.395 . S
C90 C60 1.391 . S
C91 C53 1.389 . S
C91 C73 1.392 . S
C92 C63 1.392 . S
C92 C65 1.389 . S
C93 C68 1.395 . S
C93 C70 1.391 . S
H94 C54 0.951 . S
H95 C55 0.950 . S
H96 C61 0.949 . S
H97 C62 0.950 . S
H98 C66 0.951 . S
H99 C67 0.950 . S
H100 C71 0.949 . S
H101 C72 0.950 . S
H102 C76 0.950 . S
H103 C78 0.950 . S
H104 C81 0.950 . S
H105 C83 0.950 . S
C106 C107 1.443 . S
C106 N110 1.376 . S
C106 C144 1.389 . S
C107 C106 1.443 . S
C107 C108 1.340 . S
C107 H147 0.951 . S
C108 C107 1.340 . S
C108 C109 1.439 . S
C108 H148 0.950 . S
C109 C108 1.439 . S
C109 N110 1.374 . S
C109 C143 1.395 . S
N110 C106 1.376 . S
N110 C109 1.374 . S
N110 Co111 2.008 . S
Co111 N110 2.008 . S
Co111 N112 1.995 . S
Co111 N117 2.008 1_545 S
Co111 N122 1.995 1_545 S
Co111 N127 2.282 . S
Co111 N133 2.282 . S
N112 Co111 1.995 . S
N112 C113 1.376 . S
N112 C116 1.383 . S
C113 N112 1.376 . S
C113 C114 1.446 . S
C113 C143 1.391 . S
C114 C113 1.446 . S
C114 C115 1.339 . S
C114 H149 0.949 . S
C115 C114 1.339 . S
C115 C116 1.439 . S
C115 H150 0.950 . S
C116 N112 1.383 . S
C116 C115 1.439 . S
C116 C145 1.392 1_545 S
N117 Co111 2.008 1_565 S
N117 C118 1.376 . S
N117 C121 1.374 . S
C118 N117 1.376 . S
C118 C119 1.443 . S
C118 C145 1.389 . S
C119 C118 1.443 . S
C119 C120 1.340 . S
C119 H151 0.951 . S
C120 C119 1.340 . S
C120 C121 1.439 . S
C120 H152 0.950 . S
C121 N117 1.374 . S
C121 C120 1.439 . S
C121 C146 1.395 . S
N122 Co111 1.995 1_565 S
N122 C123 1.376 . S
N122 C126 1.383 . S
C123 N122 1.376 . S
C123 C124 1.446 . S
C123 C146 1.391 . S
C124 C123 1.446 . S
C124 C125 1.339 . S
C124 H153 0.949 . S
C125 C124 1.339 . S
C125 C126 1.439 . S
C125 H154 0.950 . S
C126 N122 1.383 . S
C126 C125 1.439 . S
C126 C144 1.392 1_565 S
N127 Co111 2.282 . S
N127 C130 1.332 1_545 S
N127 C132 1.332 . S
C128 C129 1.386 . S
C128 C131 1.388 1_565 S
C129 C128 1.386 . S
C129 C130 1.382 . S
C129 H155 0.950 . S
C130 N127 1.332 1_565 S
C130 C129 1.382 . S
C130 H141 0.952 . S
C131 C128 1.388 1_545 S
C131 C132 1.382 . S
C131 H156 0.950 . S
C132 N127 1.332 . S
C132 C131 1.382 . S
C132 H142 0.948 . S
N133 Co111 2.282 . S
N133 C137 1.332 . S
N133 C138 1.332 1_545 S
C134 C135 1.388 1_565 S
C134 C138 1.382 . S
C134 H157 0.950 . S
C135 C134 1.388 1_545 S
C135 C136 1.386 . S
C136 C135 1.386 . S
C136 C137 1.382 . S
C136 H158 0.950 1_556 S
C137 N133 1.332 . S
C137 C136 1.382 . S
C137 H139 0.952 . S
C138 N133 1.332 1_565 S
C138 C134 1.382 . S
C138 H140 0.948 . S
H139 C137 0.952 . S
H140 C138 0.948 . S
H141 C130 0.952 . S
H142 C132 0.948 . S
C143 C109 1.395 . S
C143 C113 1.391 . S
C144 C106 1.389 . S
C144 C126 1.392 1_545 S
C145 C116 1.392 1_565 S
C145 C118 1.389 . S
C146 C121 1.395 . S
C146 C123 1.391 . S
H147 C107 0.951 . S
H148 C108 0.950 . S
H149 C114 0.949 . S
H150 C115 0.950 . S
H151 C119 0.951 . S
H152 C120 0.950 . S
H153 C124 0.949 . S
H154 C125 0.950 . S
H155 C129 0.950 . S
H156 C131 0.950 . S
H157 C134 0.950 . S
H158 C136 0.950 1_554 S
C159 C160 1.443 . S
C159 N163 1.376 . S
C159 C197 1.389 1_565 S
C160 C159 1.443 . S
C160 C161 1.340 . S
C160 H200 0.951 . S
C161 C160 1.340 . S
C161 C162 1.439 . S
C161 H201 0.950 . S
C162 C161 1.439 . S
C162 N163 1.374 . S
C162 C196 1.395 . S
N163 C159 1.376 . S
N163 C162 1.374 . S
N163 Co164 2.008 1_565 S
Co164 N163 2.008 1_545 S
Co164 N165 1.995 1_545 S
Co164 N170 2.008 . S
Co164 N175 1.995 . S
Co164 N180 2.282 . S
Co164 N186 2.282 1_545 S
N165 Co164 1.995 1_565 S
N165 C166 1.376 . S
N165 C169 1.383 . S
C166 N165 1.376 . S
C166 C167 1.446 . S
C166 C196 1.391 . S
C167 C166 1.446 . S
C167 C168 1.339 . S
C167 H202 0.949 . S
C168 C167 1.339 . S
C168 C169 1.439 . S
C168 H203 0.950 . S
C169 N165 1.383 . S
C169 C168 1.439 . S
C169 C198 1.392 . S
N170 Co164 2.008 . S
N170 C171 1.376 . S
N170 C174 1.374 . S
C171 N170 1.376 . S
C171 C172 1.443 . S
C171 C198 1.389 1_545 S
C172 C171 1.443 . S
C172 C173 1.340 . S
C172 H204 0.951 . S
C173 C172 1.340 . S
C173 C174 1.439 . S
C173 H205 0.950 . S
C174 N170 1.374 . S
C174 C173 1.439 . S
C174 C199 1.395 . S
N175 Co164 1.995 . S
N175 C176 1.376 . S
N175 C179 1.383 . S
C176 N175 1.376 . S
C176 C177 1.446 . S
C176 C199 1.391 . S
C177 C176 1.446 . S
C177 C178 1.339 . S
C177 H206 0.949 . S
C178 C177 1.339 . S
C178 C179 1.439 . S
C178 H207 0.950 . S
C179 N175 1.383 . S
C179 C178 1.439 . S
C179 C197 1.392 . S
N180 Co164 2.282 . S
N180 C183 1.332 . S
N180 C185 1.332 1_545 S
C181 C182 1.386 . S
C181 C184 1.388 . S
C182 C181 1.386 . S
C182 C183 1.382 . S
C182 H208 0.950 . S
C183 N180 1.332 . S
C183 C182 1.382 . S
C183 H194 0.952 . S
C184 C181 1.388 . S
C184 C185 1.382 1_545 S
C184 H209 0.950 1_545 S
C185 N180 1.332 1_565 S
C185 C184 1.382 1_565 S
C185 H195 0.948 . S
N186 Co164 2.282 1_565 S
N186 C190 1.332 . S
N186 C191 1.332 1_565 S
C187 C188 1.388 . S
C187 C191 1.382 1_565 S
C187 H210 0.950 1_565 S
C188 C187 1.388 . S
C188 C189 1.386 . S
C189 C188 1.386 . S
C189 C190 1.382 . S
C189 H211 0.950 . S
C190 N186 1.332 . S
C190 C189 1.382 . S
C190 H192 0.952 . S
C191 N186 1.332 1_545 S
C191 C187 1.382 1_545 S
C191 H193 0.948 . S
H192 C190 0.952 . S
H193 C191 0.948 . S
H194 C183 0.952 . S
H195 C185 0.948 . S
C196 C162 1.395 . S
C196 C166 1.391 . S
C197 C159 1.389 1_545 S
C197 C179 1.392 . S
C198 C169 1.392 . S
C198 C171 1.389 1_565 S
C199 C174 1.395 . S
C199 C176 1.391 . S
H200 C160 0.951 . S
H201 C161 0.950 . S
H202 C167 0.949 . S
H203 C168 0.950 . S
H204 C172 0.951 . S
H205 C173 0.950 . S
H206 C177 0.949 . S
H207 C178 0.950 . S
H208 C182 0.950 . S
H209 C184 0.950 1_565 S
H210 C187 0.950 1_545 S
H211 C189 0.950 . S
C212 C213 1.443 . S
C212 N216 1.376 . S
C212 C250 1.389 1_556 S
C213 C212 1.443 . S
C213 C214 1.340 . S
C213 H253 0.951 . S
C214 C213 1.340 . S
C214 C215 1.439 . S
C214 H254 0.950 . S
C215 C214 1.439 . S
C215 N216 1.374 . S
C215 C249 1.395 . S
N216 C212 1.376 . S
N216 C215 1.374 . S
N216 Co217 2.008 1_545 S
Co217 N216 2.008 1_565 S
Co217 N218 1.995 1_565 S
Co217 N223 2.008 . S
Co217 N228 1.995 . S
Co217 N233 2.282 1_565 S
Co217 N239 2.282 . S
N218 Co217 1.995 1_545 S
N218 C219 1.376 . S
N218 C222 1.383 . S
C219 N218 1.376 . S
C219 C220 1.446 . S
C219 C249 1.391 . S
C220 C219 1.446 . S
C220 C221 1.339 . S
C220 H255 0.949 . S
C221 C220 1.339 . S
C221 C222 1.439 . S
C221 H256 0.950 . S
C222 N218 1.383 . S
C222 C221 1.439 . S
C222 C251 1.392 1_545 S
N223 Co217 2.008 . S
N223 C224 1.376 . S
N223 C227 1.374 . S
C224 N223 1.376 . S
C224 C225 1.443 . S
C224 C251 1.389 . S
C225 C224 1.443 . S
C225 C226 1.340 . S
C225 H257 0.951 . S
C226 C225 1.340 . S
C226 C227 1.439 . S
C226 H258 0.950 . S
C227 N223 1.374 . S
C227 C226 1.439 . S
C227 C252 1.395 . S
N228 Co217 1.995 . S
N228 C229 1.376 1_556 S
N228 C232 1.383 1_556 S
C229 N228 1.376 1_554 S
C229 C230 1.446 . S
C229 C252 1.391 1_554 S
C230 C229 1.446 . S
C230 C231 1.339 . S
C230 H259 0.949 . S
C231 C230 1.339 . S
C231 C232 1.439 . S
C231 H260 0.950 . S
C232 N228 1.383 1_554 S
C232 C231 1.439 . S
C232 C250 1.392 1_565 S
N233 Co217 2.282 1_545 S
N233 C236 1.332 1_546 S
N233 C238 1.332 . S
C234 C235 1.386 . S
C234 C237 1.388 . S
C235 C234 1.386 . S
C235 C236 1.382 1_545 S
C235 H261 0.950 1_545 S
C236 N233 1.332 1_564 S
C236 C235 1.382 1_565 S
C236 H247 0.952 . S
C237 C234 1.388 . S
C237 C238 1.382 1_554 S
C237 H262 0.950 . S
C238 N233 1.332 . S
C238 C237 1.382 1_556 S
C238 H248 0.948 . S
N239 Co217 2.282 . S
N239 C243 1.326 1_565 S
N239 C244 1.332 . S
C240 C241 1.388 . S
C240 C244 1.382 . S
C240 H263 0.950 . S
C241 C240 1.388 . S
C241 C242 1.386 . S
C242 C241 1.386 . S
C242 C243 1.380 1_565 S
C242 H264 0.950 1_565 S
C243 N239 1.326 1_545 S
C243 C242 1.380 1_545 S
C243 H245 0.960 . S
C244 N239 1.332 . S
C244 C240 1.382 . S
C244 H246 0.948 . S
H245 C243 0.960 . S
H246 C244 0.948 . S
H247 C236 0.952 . S
H248 C238 0.948 . S
C249 C215 1.395 . S
C249 C219 1.391 . S
C250 C212 1.389 1_554 S
C250 C232 1.392 1_545 S
C251 C222 1.392 1_565 S
C251 C224 1.389 . S
C252 C227 1.395 . S
C252 C229 1.391 1_556 S
H253 C213 0.951 . S
H254 C214 0.950 . S
H255 C220 0.949 . S
H256 C221 0.950 . S
H257 C225 0.951 . S
H258 C226 0.950 . S
H259 C230 0.949 . S
H260 C231 0.950 . S
H261 C235 0.950 1_565 S
H262 C237 0.950 . S
H263 C240 0.950 . S
H264 C242 0.950 1_545 S
C265 C266 1.443 . S
C265 N269 1.376 . S
C265 C303 1.389 . S
C266 C265 1.443 . S
C266 C267 1.340 . S
C266 H306 0.951 . S
C267 C266 1.340 . S
C267 C268 1.439 . S
C267 H307 0.950 . S
C268 C267 1.439 . S
C268 N269 1.374 . S
C268 C302 1.395 . S
N269 C265 1.376 . S
N269 C268 1.374 . S
N269 Co270 2.008 . S
Co270 N269 2.008 . S
Co270 N271 1.995 . S
Co270 N276 2.008 1_565 S
Co270 N281 1.995 1_565 S
Co270 N286 2.281 1_565 S
Co270 N292 2.282 . S
N271 Co270 1.995 . S
N271 C272 1.376 . S
N271 C275 1.383 . S
C272 N271 1.376 . S
C272 C273 1.446 . S
C272 C302 1.391 . S
C273 C272 1.446 . S
C273 C274 1.339 . S
C273 H308 0.949 . S
C274 C273 1.339 . S
C274 C275 1.439 . S
C274 H309 0.950 . S
C275 N271 1.383 . S
C275 C274 1.439 . S
C275 C304 1.392 1_565 S
N276 Co270 2.008 1_545 S
N276 C277 1.376 . S
N276 C280 1.374 . S
C277 N276 1.376 . S
C277 C278 1.443 . S
C277 C304 1.389 . S
C278 C277 1.443 . S
C278 C279 1.340 . S
C278 H310 0.951 . S
C279 C278 1.340 . S
C279 C280 1.439 . S
C279 H311 0.950 . S
C280 N276 1.374 . S
C280 C279 1.439 . S
C280 C305 1.395 . S
N281 Co270 1.995 1_545 S
N281 C282 1.376 . S
N281 C285 1.383 1_545 S
C282 N281 1.376 . S
C282 C283 1.446 . S
C282 C305 1.391 . S
C283 C282 1.446 . S
C283 C284 1.339 . S
C283 H312 0.949 . S
C284 C283 1.339 . S
C284 C285 1.439 1_545 S
C284 H313 0.950 . S
C285 N281 1.383 1_565 S
C285 C284 1.439 1_565 S
C285 C303 1.392 . S
N286 Co270 2.281 1_545 S
N286 C289 1.338 . S
N286 C291 1.328 1_545 S
C287 C288 1.386 . S
C287 C290 1.388 1_545 S
C288 C287 1.386 . S
C288 C289 1.382 . S
C288 H314 0.950 . S
C289 N286 1.338 . S
C289 C288 1.382 . S
C289 H300 0.952 . S
C290 C287 1.388 1_565 S
C290 C291 1.382 . S
C290 H315 0.950 . S
C291 N286 1.328 1_565 S
C291 C290 1.382 . S
C291 H301 0.948 . S
N292 Co270 2.282 . S
N292 C296 1.332 . S
N292 C297 1.332 . S
C293 C294 1.388 . S
C293 C297 1.382 . S
C293 H316 0.950 . S
C294 C293 1.388 . S
C294 C295 1.386 . S
C295 C294 1.386 . S
C295 C296 1.382 . S
C295 H317 0.950 . S
C296 N292 1.332 . S
C296 C295 1.382 . S
C296 H298 0.952 . S
C297 N292 1.332 . S
C297 C293 1.382 . S
C297 H299 0.948 1_565 S
H298 C296 0.952 . S
H299 C297 0.948 1_545 S
H300 C289 0.952 . S
H301 C291 0.948 . S
C302 C268 1.395 . S
C302 C272 1.391 . S
C303 C265 1.389 . S
C303 C285 1.392 . S
C304 C275 1.392 1_545 S
C304 C277 1.389 . S
C305 C280 1.395 . S
C305 C282 1.391 . S
H306 C266 0.951 . S
H307 C267 0.950 . S
H308 C273 0.949 . S
H309 C274 0.950 . S
H310 C278 0.951 . S
H311 C279 0.950 . S
H312 C283 0.949 . S
H313 C284 0.950 . S
H314 C288 0.950 . S
H315 C290 0.950 . S
H316 C293 0.950 . S
H317 C295 0.950 . S
C318 C319 1.443 . S
C318 N322 1.376 . S
C318 C356 1.389 1_554 S
C319 C318 1.443 . S
C319 C320 1.340 . S
C319 H359 0.951 . S
C320 C319 1.340 . S
C320 C321 1.439 . S
C320 H360 0.950 1_545 S
C321 C320 1.439 . S
C321 N322 1.374 . S
C321 C355 1.395 . S
N322 C318 1.376 . S
N322 C321 1.374 . S
N322 Co323 2.008 . S
Co323 N322 2.008 . S
Co323 N324 1.995 . S
Co323 N329 2.008 . S
Co323 N334 1.995 . S
Co323 N339 2.282 . S
Co323 N345 2.282 . S
N324 Co323 1.995 . S
N324 C325 1.376 . S
N324 C328 1.383 . S
C325 N324 1.376 . S
C325 C326 1.446 . S
C325 C355 1.391 . S
C326 C325 1.446 . S
C326 C327 1.339 . S
C326 H361 0.949 . S
C327 C326 1.339 . S
C327 C328 1.439 . S
C327 H362 0.950 . S
C328 N324 1.383 . S
C328 C327 1.439 . S
C328 C357 1.392 . S
N329 Co323 2.008 . S
N329 C330 1.376 . S
N329 C333 1.374 . S
C330 N329 1.376 . S
C330 C331 1.443 . S
C330 C357 1.389 . S
C331 C330 1.443 . S
C331 C332 1.340 . S
C331 H363 0.951 . S
C332 C331 1.340 . S
C332 C333 1.439 . S
C332 H364 0.950 . S
C333 N329 1.374 . S
C333 C332 1.439 . S
C333 C358 1.395 . S
N334 Co323 1.995 . S
N334 C335 1.376 1_554 S
N334 C338 1.383 1_554 S
C335 N334 1.376 1_556 S
C335 C336 1.446 . S
C335 C358 1.391 1_556 S
C336 C335 1.446 . S
C336 C337 1.339 . S
C336 H365 0.949 . S
C337 C336 1.339 . S
C337 C338 1.439 . S
C337 H366 0.950 . S
C338 N334 1.383 1_556 S
C338 C337 1.439 . S
C338 C356 1.392 . S
N339 Co323 2.282 . S
N339 C342 1.332 1_554 S
N339 C344 1.332 . S
C340 C341 1.386 . S
C340 C343 1.388 . S
C341 C340 1.386 . S
C341 C342 1.382 . S
C341 H367 0.950 . S
C342 N339 1.332 1_556 S
C342 C341 1.382 . S
C342 H353 0.952 . S
C343 C340 1.388 . S
C343 C344 1.382 1_556 S
C343 H368 0.950 . S
C344 N339 1.332 . S
C344 C343 1.382 1_554 S
C344 H354 0.948 . S
N345 Co323 2.282 . S
N345 C349 1.332 . S
N345 C350 1.332 . S
C346 C347 1.388 . S
C346 C350 1.382 . S
C346 H369 0.950 . S
C347 C346 1.388 . S
C347 C348 1.386 . S
C348 C347 1.386 . S
C348 C349 1.382 . S
C348 H370 0.950 . S
C349 N345 1.332 . S
C349 C348 1.382 . S
C349 H351 0.952 . S
C350 N345 1.332 . S
C350 C346 1.382 . S
C350 H352 0.948 . S
H351 C349 0.952 . S
H352 C350 0.948 . S
H353 C342 0.952 . S
H354 C344 0.948 . S
C355 C321 1.395 . S
C355 C325 1.391 . S
C356 C318 1.389 1_556 S
C356 C338 1.392 . S
C357 C328 1.392 . S
C357 C330 1.389 . S
C358 C333 1.395 . S
C358 C335 1.391 1_554 S
H359 C319 0.951 . S
H360 C320 0.950 1_565 S
H361 C326 0.949 . S
H362 C327 0.950 . S
H363 C331 0.951 . S
H364 C332 0.950 . S
H365 C336 0.949 . S
H366 C337 0.950 . S
H367 C341 0.950 . S
H368 C343 0.950 . S
H369 C346 0.950 . S
H370 C348 0.950 . S
C371 C372 1.443 . S
C371 N375 1.376 . S
C371 C409 1.389 . S
C372 C371 1.443 . S
C372 C373 1.340 . S
C372 H412 0.951 . S
C373 C372 1.340 . S
C373 C374 1.439 . S
C373 H413 0.950 . S
C374 C373 1.439 . S
C374 N375 1.374 . S
C374 C408 1.395 . S
N375 C371 1.376 . S
N375 C374 1.374 . S
N375 Co376 2.008 . S
Co376 N375 2.008 . S
Co376 N377 1.995 . S
Co376 N382 2.008 . S
Co376 N387 1.995 . S
Co376 N392 2.282 . S
Co376 N398 2.282 . S
N377 Co376 1.995 . S
N377 C378 1.376 . S
N377 C381 1.383 . S
C378 N377 1.376 . S
C378 C379 1.446 . S
C378 C408 1.391 . S
C379 C378 1.446 . S
C379 C380 1.339 . S
C379 H414 0.949 . S
C380 C379 1.339 . S
C380 C381 1.439 . S
C380 H415 0.950 . S
C381 N377 1.383 . S
C381 C380 1.439 . S
C381 C410 1.392 . S
N382 Co376 2.008 . S
N382 C383 1.376 . S
N382 C386 1.374 . S
C383 N382 1.376 . S
C383 C384 1.443 . S
C383 C410 1.389 . S
C384 C383 1.443 . S
C384 C385 1.340 . S
C384 H416 0.951 . S
C385 C384 1.340 . S
C385 C386 1.439 . S
C385 H417 0.950 1_545 S
C386 N382 1.374 . S
C386 C385 1.439 . S
C386 C411 1.395 . S
N387 Co376 1.995 . S
N387 C388 1.376 . S
N387 C391 1.383 . S
C388 N387 1.376 . S
C388 C389 1.446 . S
C388 C411 1.391 . S
C389 C388 1.446 . S
C389 C390 1.339 . S
C389 H418 0.949 . S
C390 C389 1.339 . S
C390 C391 1.439 . S
C390 H419 0.950 . S
C391 N387 1.383 . S
C391 C390 1.439 . S
C391 C409 1.392 . S
N392 Co376 2.282 . S
N392 C395 1.332 . S
N392 C397 1.332 . S
C393 C394 1.386 . S
C393 C396 1.388 . S
C394 C393 1.386 . S
C394 C395 1.382 . S
C394 H420 0.950 . S
C395 N392 1.332 . S
C395 C394 1.382 . S
C395 H406 0.952 . S
C396 C393 1.388 . S
C396 C397 1.382 . S
C396 H421 0.950 . S
C397 N392 1.332 . S
C397 C396 1.382 . S
C397 H407 0.948 . S
N398 Co376 2.282 . S
N398 C402 1.332 . S
N398 C403 1.332 . S
C399 C400 1.388 . S
C399 C403 1.382 . S
C399 H422 0.950 . S
C400 C399 1.388 . S
C400 C401 1.386 . S
C401 C400 1.386 . S
C401 C402 1.382 . S
C401 H423 0.950 . S
C402 N398 1.332 . S
C402 C401 1.382 . S
C402 H404 0.952 . S
C403 N398 1.332 . S
C403 C399 1.382 . S
C403 H405 0.948 . S
H404 C402 0.952 . S
H405 C403 0.948 . S
H406 C395 0.952 . S
H407 C397 0.948 . S
C408 C374 1.395 . S
C408 C378 1.391 . S
C409 C371 1.389 . S
C409 C391 1.392 . S
C410 C381 1.392 . S
C410 C383 1.389 . S
C411 C386 1.395 . S
C411 C388 1.391 . S
H412 C372 0.951 . S
H413 C373 0.950 . S
H414 C379 0.949 . S
H415 C380 0.950 . S
H416 C384 0.951 . S
H417 C385 0.950 1_565 S
H418 C389 0.949 . S
H419 C390 0.950 . S
H420 C394 0.950 . S
H421 C396 0.950 . S
H422 C399 0.950 . S
H423 C401 0.950 . S
C424 C425 1.363 . S
C424 C430 1.379 . S
C424 N432 1.356 . S
C425 C424 1.363 . S
C425 C431 1.363 . S
C426 C427 1.363 . S
C426 C431 1.379 . S
C426 N433 1.356 . S
C427 C426 1.363 . S
C427 C430 1.363 . S
N428 C430 1.356 1_554 S
N428 H440 0.984 1_554 S
N428 H441 0.985 . S
N429 C431 1.356 . S
N429 H434 0.984 . S
N429 H435 0.985 . S
C430 C424 1.379 . S
C430 C427 1.363 . S
C430 N428 1.356 1_556 S
C431 C425 1.363 . S
C431 C426 1.379 . S
C431 N429 1.356 . S
N432 C424 1.356 . S
N432 H438 0.984 . S
N432 H439 0.984 . S
N433 C426 1.356 . S
N433 H436 0.984 1_556 S
N433 H437 0.985 . S
H434 N429 0.984 . S
H435 N429 0.985 . S
H436 N433 0.984 1_554 S
H437 N433 0.985 . S
H438 N432 0.984 . S
H439 N432 0.984 . S
H440 N428 0.984 1_556 S
H441 N428 0.985 . S
C442 C443 1.363 . S
C442 C448 1.379 . S
C442 N450 1.356 . S
C443 C442 1.363 . S
C443 C449 1.363 . S
C444 C445 1.363 . S
C444 C449 1.379 . S
C444 N451 1.356 . S
C445 C444 1.363 . S
C445 C448 1.363 . S
N446 C448 1.356 . S
N446 H458 0.984 . S
N446 H459 0.985 . S
N447 C449 1.356 . S
N447 H452 0.984 . S
N447 H453 0.985 . S
C448 C442 1.379 . S
C448 C445 1.363 . S
C448 N446 1.356 . S
C449 C443 1.363 . S
C449 C444 1.379 . S
C449 N447 1.356 . S
N450 C442 1.356 . S
N450 H456 0.984 . S
N450 H457 0.984 . S
N451 C444 1.356 . S
N451 H454 0.984 . S
N451 H455 0.985 . S
H452 N447 0.984 . S
H453 N447 0.985 . S
H454 N451 0.984 . S
H455 N451 0.985 . S
H456 N450 0.984 . S
H457 N450 0.984 . S
H458 N446 0.984 . S
H459 N446 0.985 . S
C460 C461 1.363 . S
C460 C466 1.379 . S
C460 N468 1.356 . S
C461 C460 1.363 . S
C461 C467 1.363 . S
C462 C463 1.361 1_556 S
C462 C467 1.370 1_556 S
C462 N469 1.368 . S
C463 C462 1.361 1_554 S
C463 C466 1.363 . S
N464 C466 1.356 . S
N464 H476 0.984 . S
N464 H477 0.985 1_545 S
N465 C467 1.356 . S
N465 H470 0.984 . S
N465 H471 0.985 . S
C466 C460 1.379 . S
C466 C463 1.363 . S
C466 N464 1.356 . S
C467 C461 1.363 . S
C467 C462 1.370 1_554 S
C467 N465 1.356 . S
N468 C460 1.356 . S
N468 H474 0.984 . S
N468 H475 0.984 . S
N469 C462 1.368 . S
N469 H472 0.984 . S
N469 H473 0.985 . S
H470 N465 0.984 . S
H471 N465 0.985 . S
H472 N469 0.984 . S
H473 N469 0.985 . S
H474 N468 0.984 . S
H475 N468 0.984 . S
H476 N464 0.984 . S
H477 N464 0.985 1_565 S
C478 C479 1.363 . S
C478 C484 1.379 . S
C478 N486 1.356 . S
C479 C478 1.363 . S
C479 C485 1.363 1_565 S
C480 C481 1.363 1_545 S
C480 C485 1.379 . S
C480 N487 1.356 . S
C481 C480 1.363 1_565 S
C481 C484 1.363 . S
N482 C484 1.356 . S
N482 H494 0.984 . S
N482 H495 0.985 . S
N483 C485 1.356 . S
N483 H488 0.984 . S
N483 H489 0.985 . S
C484 C478 1.379 . S
C484 C481 1.363 . S
C484 N482 1.356 . S
C485 C479 1.363 1_545 S
C485 C480 1.379 . S
C485 N483 1.356 . S
N486 C478 1.356 . S
N486 H492 0.984 . S
N486 H493 0.984 . S
N487 C480 1.356 . S
N487 H490 0.984 . S
N487 H491 0.985 . S
H488 N483 0.984 . S
H489 N483 0.985 . S
H490 N487 0.984 . S
H491 N487 0.985 . S
H492 N486 0.984 . S
H493 N486 0.984 . S
H494 N482 0.984 . S
H495 N482 0.985 . S
C496 C497 1.363 . S
C496 C502 1.379 . S
C496 N504 1.356 . S
C497 C496 1.363 . S
C497 C503 1.363 . S
C498 C499 1.363 . S
C498 C503 1.379 . S
C498 N505 1.356 1_545 S
C499 C498 1.363 . S
C499 C502 1.363 . S
N500 C502 1.356 . S
N500 H512 0.984 . S
N500 H513 0.985 . S
N501 C503 1.356 . S
N501 H506 0.984 . S
N501 H507 0.985 1_545 S
C502 C496 1.379 . S
C502 C499 1.363 . S
C502 N500 1.356 . S
C503 C497 1.363 . S
C503 C498 1.379 . S
C503 N501 1.356 . S
N504 C496 1.356 . S
N504 H510 0.984 . S
N504 H511 0.984 . S
N505 C498 1.356 1_565 S
N505 H508 0.984 . S
N505 H509 0.985 . S
H506 N501 0.984 . S
H507 N501 0.985 1_565 S
H508 N505 0.984 . S
H509 N505 0.985 . S
H510 N504 0.984 . S
H511 N504 0.984 . S
H512 N500 0.984 . S
H513 N500 0.985 . S
C514 C515 1.363 . S
C514 C520 1.379 . S
C514 N522 1.356 . S
C515 C514 1.363 . S
C515 C521 1.363 1_545 S
C516 C517 1.363 . S
C516 C521 1.379 . S
C516 N523 1.356 . S
C517 C516 1.363 . S
C517 C520 1.363 1_565 S
N518 C520 1.356 . S
N518 H530 0.984 . S
N518 H531 0.985 . S
N519 C521 1.356 . S
N519 H524 0.984 1_565 S
N519 H525 0.985 . S
C520 C514 1.379 . S
C520 C517 1.363 1_545 S
C520 N518 1.356 . S
C521 C515 1.363 1_565 S
C521 C516 1.379 . S
C521 N519 1.356 . S
N522 C514 1.356 . S
N522 H528 0.984 . S
N522 H529 0.984 . S
N523 C516 1.356 . S
N523 H526 0.984 . S
N523 H527 0.985 . S
H524 N519 0.984 1_545 S
H525 N519 0.985 . S
H526 N523 0.984 . S
H527 N523 0.985 . S
H528 N522 0.984 . S
H529 N522 0.984 . S
H530 N518 0.984 . S
H531 N518 0.985 . S
C532 C533 1.363 . S
C532 C538 1.379 . S
C532 N540 1.356 . S
C533 C532 1.363 . S
C533 C539 1.363 . S
C534 C535 1.363 . S
C534 C539 1.379 . S
C534 N541 1.356 . S
C535 C534 1.363 . S
C535 C538 1.363 . S
N536 C538 1.356 . S
N536 H548 0.984 . S
N536 H549 0.985 . S
N537 C539 1.356 . S
N537 H542 0.984 . S
N537 H543 0.985 . S
C538 C532 1.379 . S
C538 C535 1.363 . S
C538 N536 1.356 . S
C539 C533 1.363 . S
C539 C534 1.379 . S
C539 N537 1.356 . S
N540 C532 1.356 . S
N540 H546 0.984 . S
N540 H547 0.984 . S
N541 C534 1.356 . S
N541 H544 0.984 . S
N541 H545 0.985 . S
H542 N537 0.984 . S
H543 N537 0.985 . S
H544 N541 0.984 . S
H545 N541 0.985 . S
H546 N540 0.984 . S
H547 N540 0.984 . S
H548 N536 0.984 . S
H549 N536 0.985 . S
C550 C551 1.363 . S
C550 C556 1.379 . S
C550 N558 1.356 . S
C551 C550 1.363 . S
C551 C557 1.363 . S
C552 C553 1.363 . S
C552 C557 1.379 . S
C552 N559 1.356 . S
C553 C552 1.363 . S
C553 C556 1.363 . S
N554 C556 1.356 . S
N554 H566 0.984 . S
N554 H567 0.985 . S
N555 C557 1.356 . S
N555 H560 0.984 . S
N555 H561 0.985 . S
C556 C550 1.379 . S
C556 C553 1.363 . S
C556 N554 1.356 . S
C557 C551 1.363 . S
C557 C552 1.379 . S
C557 N555 1.356 . S
N558 C550 1.356 . S
N558 H564 0.984 . S
N558 H565 0.984 . S
N559 C552 1.356 . S
N559 H562 0.984 . S
N559 H563 0.985 . S
H560 N555 0.984 . S
H561 N555 0.985 . S
H562 N559 0.984 . S
H563 N559 0.985 . S
H564 N558 0.984 . S
H565 N558 0.984 . S
H566 N554 0.984 . S
H567 N554 0.985 . S
C568 C569 1.363 . S
C568 C574 1.379 1_455 S
C568 N576 1.356 . S
C569 C568 1.363 . S
C569 C575 1.363 . S
C570 C571 1.363 1_455 S
C570 C575 1.379 . S
C570 N577 1.356 1_445 S
C571 C570 1.363 1_655 S
C571 C574 1.363 . S
N572 C574 1.356 . S
N572 H584 0.984 . S
N572 H585 0.985 . S
N573 C575 1.356 . S
N573 H578 0.984 . S
N573 H579 0.985 . S
C574 C568 1.379 1_655 S
C574 C571 1.363 . S
C574 N572 1.356 . S
C575 C569 1.363 . S
C575 C570 1.379 . S
C575 N573 1.356 . S
N576 C568 1.356 . S
N576 H582 0.984 . S
N576 H583 0.984 . S
N577 C570 1.356 1_665 S
N577 H580 0.984 . S
N577 H581 0.985 1_655 S
H578 N573 0.984 . S
H579 N573 0.985 . S
H580 N577 0.984 . S
H581 N577 0.985 1_455 S
H582 N576 0.984 . S
H583 N576 0.984 . S
H584 N572 0.984 . S
H585 N572 0.985 . S
C586 C587 1.363 . S
C586 C592 1.379 . S
C586 N594 1.356 . S
C587 C586 1.363 . S
C587 C593 1.363 . S
C588 C589 1.363 . S
C588 C593 1.379 . S
C588 N595 1.356 . S
C589 C588 1.363 . S
C589 C592 1.363 . S
N590 C592 1.356 . S
N590 H602 0.984 . S
N590 H603 0.985 . S
N591 C593 1.356 . S
N591 H596 0.984 . S
N591 H597 0.985 . S
C592 C586 1.379 . S
C592 C589 1.363 . S
C592 N590 1.356 . S
C593 C587 1.363 . S
C593 C588 1.379 . S
C593 N591 1.356 . S
N594 C586 1.356 . S
N594 H600 0.984 . S
N594 H601 0.984 . S
N595 C588 1.356 . S
N595 H598 0.984 . S
N595 H599 0.985 . S
H596 N591 0.984 . S
H597 N591 0.985 . S
H598 N595 0.984 . S
H599 N595 0.985 . S
H600 N594 0.984 . S
H601 N594 0.984 . S
H602 N590 0.984 . S
H603 N590 0.985 . S
C604 C605 1.363 . S
C604 C610 1.389 . S
C604 N612 1.356 . S
C605 C604 1.363 . S
C605 C611 1.363 1_455 S
C606 C607 1.363 . S
C606 C611 1.379 . S
C606 N613 1.356 . S
C607 C606 1.363 . S
C607 C610 1.348 1_655 S
N608 C610 1.357 . S
N608 H620 0.984 . S
N608 H621 0.985 1_455 S
N609 C611 1.356 . S
N609 H614 0.984 . S
N609 H615 0.985 . S
C610 C604 1.389 . S
C610 C607 1.348 1_455 S
C610 N608 1.357 . S
C611 C605 1.363 1_655 S
C611 C606 1.379 . S
C611 N609 1.356 . S
N612 C604 1.356 . S
N612 H618 0.984 . S
N612 H619 0.984 . S
N613 C606 1.356 . S
N613 H616 0.984 . S
N613 H617 0.985 . S
H614 N609 0.984 . S
H615 N609 0.985 . S
H616 N613 0.984 . S
H617 N613 0.985 . S
H618 N612 0.984 . S
H619 N612 0.984 . S
H620 N608 0.984 . S
H621 N608 0.985 1_655 S
C622 C623 1.363 . S
C622 C628 1.379 . S
C622 N630 1.356 . S
C623 C622 1.363 . S
C623 C629 1.363 . S
C624 C625 1.363 . S
C624 C629 1.379 . S
C624 N631 1.356 . S
C625 C624 1.363 . S
C625 C628 1.363 . S
N626 C628 1.356 . S
N626 H638 0.984 . S
N626 H639 0.985 . S
N627 C629 1.356 . S
N627 H632 0.984 . S
N627 H633 0.985 . S
C628 C622 1.379 . S
C628 C625 1.363 . S
C628 N626 1.356 . S
C629 C623 1.363 . S
C629 C624 1.379 . S
C629 N627 1.356 . S
N630 C622 1.356 . S
N630 H636 0.984 . S
N630 H637 0.984 . S
N631 C624 1.356 . S
N631 H634 0.984 . S
N631 H635 0.985 . S
H632 N627 0.984 . S
H633 N627 0.985 . S
H634 N631 0.984 . S
H635 N631 0.985 . S
H636 N630 0.984 . S
H637 N630 0.984 . S
H638 N626 0.984 . S
H639 N626 0.985 . S
C640 C641 1.363 1_554 S
C640 C646 1.379 1_455 S
C640 N648 1.356 . S
C641 C640 1.363 1_556 S
C641 C647 1.363 1_455 S
C642 C643 1.363 1_556 S
C642 C647 1.379 . S
C642 N649 1.356 . S
C643 C642 1.363 1_554 S
C643 C646 1.363 . S
N644 C646 1.356 1_565 S
N644 H656 0.984 . S
N644 H657 0.985 . S
N645 C647 1.356 . S
N645 H650 0.984 1_655 S
N645 H651 0.985 . S
C646 C640 1.379 1_655 S
C646 C643 1.363 . S
C646 N644 1.356 1_545 S
C647 C641 1.363 1_655 S
C647 C642 1.379 . S
C647 N645 1.356 . S
N648 C640 1.356 . S
N648 H654 0.984 . S
N648 H655 0.984 . S
N649 C642 1.356 . S
N649 H652 0.984 . S
N649 H653 0.985 . S
H650 N645 0.984 1_455 S
H651 N645 0.985 . S
H652 N649 0.984 . S
H653 N649 0.985 . S
H654 N648 0.984 . S
H655 N648 0.984 . S
H656 N644 0.984 . S
H657 N644 0.985 . S
C658 C659 1.363 . S
C658 C664 1.379 . S
C658 N666 1.356 . S
C659 C658 1.363 . S
C659 C665 1.363 . S
C660 C661 1.363 . S
C660 C665 1.379 . S
C660 N667 1.356 . S
C661 C660 1.363 . S
C661 C664 1.363 . S
N662 C664 1.356 . S
N662 H674 0.984 . S
N662 H675 0.985 . S
N663 C665 1.356 . S
N663 H668 0.984 . S
N663 H669 0.985 . S
C664 C658 1.379 . S
C664 C661 1.363 . S
C664 N662 1.356 . S
C665 C659 1.363 . S
C665 C660 1.379 . S
C665 N663 1.356 . S
N666 C658 1.356 . S
N666 H672 0.984 . S
N666 H673 0.984 . S
N667 C660 1.356 . S
N667 H670 0.984 . S
N667 H671 0.985 . S
H668 N663 0.984 . S
H669 N663 0.985 . S
H670 N667 0.984 . S
H671 N667 0.985 . S
H672 N666 0.984 . S
H673 N666 0.984 . S
H674 N662 0.984 . S
H675 N662 0.985 . S
C676 C677 1.363 . S
C676 C682 1.379 . S
C676 N684 1.356 . S
C677 C676 1.363 . S
C677 C683 1.363 1_556 S
C678 C679 1.363 . S
C678 C683 1.379 . S
C678 N685 1.356 1_545 S
C679 C678 1.363 . S
C679 C682 1.363 1_554 S
N680 C682 1.356 . S
N680 H692 0.984 . S
N680 H693 0.985 . S
N681 C683 1.356 . S
N681 H686 0.984 1_554 S
N681 H687 0.985 . S
C682 C676 1.379 . S
C682 C679 1.363 1_556 S
C682 N680 1.356 . S
C683 C677 1.363 1_554 S
C683 C678 1.379 . S
C683 N681 1.356 . S
N684 C676 1.356 . S
N684 H690 0.984 . S
N684 H691 0.984 . S
N685 C678 1.356 1_565 S
N685 H688 0.984 . S
N685 H689 0.985 . S
H686 N681 0.984 1_556 S
H687 N681 0.985 . S
H688 N685 0.984 . S
H689 N685 0.985 . S
H690 N684 0.984 . S
H691 N684 0.984 . S
H692 N680 0.984 . S
H693 N680 0.985 . S
C694 C695 1.363 . S
C694 C700 1.379 . S
C694 N702 1.356 . S
C695 C694 1.363 . S
C695 C701 1.363 . S
C696 C697 1.363 1_655 S
C696 C701 1.379 1_655 S
C696 N703 1.356 . S
C697 C696 1.363 1_455 S
C697 C700 1.363 . S
N698 C700 1.356 . S
N698 H710 0.984 . S
N698 H711 0.985 . S
N699 C701 1.356 . S
N699 H704 0.984 . S
N699 H705 0.985 1_455 S
C700 C694 1.379 . S
C700 C697 1.363 . S
C700 N698 1.356 . S
C701 C695 1.363 . S
C701 C696 1.379 1_455 S
C701 N699 1.356 . S
N702 C694 1.356 . S
N702 H708 0.984 . S
N702 H709 0.984 . S
N703 C696 1.356 . S
N703 H706 0.984 . S
N703 H707 0.985 . S
H704 N699 0.984 . S
H705 N699 0.985 1_655 S
H706 N703 0.984 . S
H707 N703 0.985 . S
H708 N702 0.984 . S
H709 N702 0.984 . S
H710 N698 0.984 . S
H711 N698 0.985 . S
C425 C75 2.119 . S
C427 C39 2.162 1_556 S
C443 C22 1.961 . S
C445 C92 1.928 . S
C461 C181 2.181 . S
C463 C145 2.233 1_544 S
C479 C128 1.955 . S
C481 C198 1.921 . S
C497 C234 2.037 . S
C499 C304 2.077 . S
C515 C287 1.997 . S
C517 C251 2.032 . S
C533 C340 2.071 . S
C535 C410 2.117 . S
C551 C357 1.963 . S
C553 C393 1.930 . S
C569 C38 1.738 . S
C571 C197 1.762 . S
C587 C91 1.842 . S
C589 C144 1.819 . S
C605 C400 1.771 . S
C607 C241 1.746 . S
C623 C347 1.859 . S
C625 C294 1.886 . S
C641 C29 1.550 1_556 S
C643 C250 1.569 . S
C659 C303 1.736 . S
C661 C82 1.759 . S
C677 C356 1.463 . S
C679 C135 1.441 1_554 S
C695 C409 1.878 . S
C697 C188 1.897 1_455 S
