# Generated by pormake.
# Topology vbk, (5)-cn, num edge types: 1
# Building blocks:
#     Node 0, Type 0, BuildingBlock: BEQFEK_clean_sbu_0, # of connection points: 5
#     Node 1, Type 0, BuildingBlock: BEQFEK_clean_sbu_0, # of connection points: 5
#     Node 2, Type 0, BuildingBlock: BEQFEK_clean_sbu_0, # of connection points: 5
#     Node 3, Type 0, BuildingBlock: BEQFEK_clean_sbu_0, # of connection points: 5
#     Node 4, Type 0, BuildingBlock: BEQFEK_clean_sbu_0, # of connection points: 5
#     Node 5, Type 0, BuildingBlock: BEQFEK_clean_sbu_0, # of connection points: 5
#     Node 6, Type 0, BuildingBlock: BEQFEK_clean_sbu_0, # of connection points: 5
#     Node 7, Type 0, BuildingBlock: BEQFEK_clean_sbu_0, # of connection points: 5
#     Node 8, Type 0, BuildingBlock: BEQFEK_clean_sbu_0, # of connection points: 5
#     Node 9, Type 0, BuildingBlock: BEQFEK_clean_sbu_0, # of connection points: 5
#     Node 10, Type 0, BuildingBlock: BEQFEK_clean_sbu_0, # of connection points: 5
#     Node 11, Type 0, BuildingBlock: BEQFEK_clean_sbu_0, # of connection points: 5
#     Node 12, Type 0, BuildingBlock: BEQFEK_clean_sbu_0, # of connection points: 5
#     Node 13, Type 0, BuildingBlock: BEQFEK_clean_sbu_0, # of connection points: 5
#     Node 14, Type 0, BuildingBlock: BEQFEK_clean_sbu_0, # of connection points: 5
#     Node 15, Type 0, BuildingBlock: BEQFEK_clean_sbu_0, # of connection points: 5
#     Edge 16, Type (0, 0), BuildingBlock: CIFDUS_clean_linker_0, # of connection points: 2
#     Edge 17, Type (0, 0), BuildingBlock: CIFDUS_clean_linker_0, # of connection points: 2
#     Edge 18, Type (0, 0), BuildingBlock: CIFDUS_clean_linker_0, # of connection points: 2
#     Edge 19, Type (0, 0), BuildingBlock: CIFDUS_clean_linker_0, # of connection points: 2
#     Edge 20, Type (0, 0), BuildingBlock: CIFDUS_clean_linker_0, # of connection points: 2
#     Edge 21, Type (0, 0), BuildingBlock: CIFDUS_clean_linker_0, # of connection points: 2
#     Edge 22, Type (0, 0), BuildingBlock: CIFDUS_clean_linker_0, # of connection points: 2
#     Edge 23, Type (0, 0), BuildingBlock: CIFDUS_clean_linker_0, # of connection points: 2
#     Edge 24, Type (0, 0), BuildingBlock: CIFDUS_clean_linker_0, # of connection points: 2
#     Edge 25, Type (0, 0), BuildingBlock: CIFDUS_clean_linker_0, # of connection points: 2
#     Edge 26, Type (0, 0), BuildingBlock: CIFDUS_clean_linker_0, # of connection points: 2
#     Edge 27, Type (0, 0), BuildingBlock: CIFDUS_clean_linker_0, # of connection points: 2
#     Edge 28, Type (0, 0), BuildingBlock: CIFDUS_clean_linker_0, # of connection points: 2
#     Edge 29, Type (0, 0), BuildingBlock: CIFDUS_clean_linker_0, # of connection points: 2
#     Edge 30, Type (0, 0), BuildingBlock: CIFDUS_clean_linker_0, # of connection points: 2
#     Edge 31, Type (0, 0), BuildingBlock: CIFDUS_clean_linker_0, # of connection points: 2
#     Edge 32, Type (0, 0), BuildingBlock: CIFDUS_clean_linker_0, # of connection points: 2
#     Edge 33, Type (0, 0), BuildingBlock: CIFDUS_clean_linker_0, # of connection points: 2
#     Edge 34, Type (0, 0), BuildingBlock: CIFDUS_clean_linker_0, # of connection points: 2
#     Edge 35, Type (0, 0), BuildingBlock: CIFDUS_clean_linker_0, # of connection points: 2
#     Edge 36, Type (0, 0), BuildingBlock: CIFDUS_clean_linker_0, # of connection points: 2
#     Edge 37, Type (0, 0), BuildingBlock: CIFDUS_clean_linker_0, # of connection points: 2
#     Edge 38, Type (0, 0), BuildingBlock: CIFDUS_clean_linker_0, # of connection points: 2
#     Edge 39, Type (0, 0), BuildingBlock: CIFDUS_clean_linker_0, # of connection points: 2
#     Edge 40, Type (0, 0), BuildingBlock: CIFDUS_clean_linker_0, # of connection points: 2
#     Edge 41, Type (0, 0), BuildingBlock: CIFDUS_clean_linker_0, # of connection points: 2
#     Edge 42, Type (0, 0), BuildingBlock: CIFDUS_clean_linker_0, # of connection points: 2
#     Edge 43, Type (0, 0), BuildingBlock: CIFDUS_clean_linker_0, # of connection points: 2
#     Edge 44, Type (0, 0), BuildingBlock: CIFDUS_clean_linker_0, # of connection points: 2
#     Edge 45, Type (0, 0), BuildingBlock: CIFDUS_clean_linker_0, # of connection points: 2
#     Edge 46, Type (0, 0), BuildingBlock: CIFDUS_clean_linker_0, # of connection points: 2
#     Edge 47, Type (0, 0), BuildingBlock: CIFDUS_clean_linker_0, # of connection points: 2
#     Edge 48, Type (0, 0), BuildingBlock: CIFDUS_clean_linker_0, # of connection points: 2
#     Edge 49, Type (0, 0), BuildingBlock: CIFDUS_clean_linker_0, # of connection points: 2
#     Edge 50, Type (0, 0), BuildingBlock: CIFDUS_clean_linker_0, # of connection points: 2
#     Edge 51, Type (0, 0), BuildingBlock: CIFDUS_clean_linker_0, # of connection points: 2
#     Edge 52, Type (0, 0), BuildingBlock: CIFDUS_clean_linker_0, # of connection points: 2
#     Edge 53, Type (0, 0), BuildingBlock: CIFDUS_clean_linker_0, # of connection points: 2
#     Edge 54, Type (0, 0), BuildingBlock: CIFDUS_clean_linker_0, # of connection points: 2
#     Edge 55, Type (0, 0), BuildingBlock: CIFDUS_clean_linker_0, # of connection points: 2
# Relax obj value: 0.034
# Max RMSD: 0.065
# Mean RMSD: 0.065
data_MOF--net-vbk--node1-BEQFEK_clean_sbu_0--edge1-CIFDUS_clean_linker_0
_symmetry_space_group_name_H-M    P1
_symmetry_Int_Tables_number       1
_symmetry_cell_setting            triclinic
loop_
_symmetry_equiv_pos_as_xyz
'x, y, z'
_cell_length_a     68.938214
_cell_length_b     37.165148
_cell_length_c     23.81344
_cell_angle_alpha  89.9898
_cell_angle_beta   89.922882
_cell_angle_gamma 89.876631
loop_
_atom_site_label
_atom_site_type_symbol
_atom_site_fract_x
_atom_site_fract_y
_atom_site_fract_z
_atom_type_partial_charge
Co0 Co 0.1035 0.14207 0.13607 0.0
Co1 Co 0.14832 0.15867 0.13687 0.0
C2 C 0.13216 0.08866 0.09361 0.0
O3 O 0.1148 0.09804 0.10446 0.0
O4 O 0.14645 0.109 0.10521 0.0
C5 C 0.06702 0.10532 0.15358 0.0
O6 O 0.07785 0.07622 0.1554 0.0
C7 C 0.18694 0.1511 0.18732 0.0
C8 C 0.20393 0.19203 0.14154 0.0
C9 C 0.20528 0.16619 0.18333 0.0
N10 N 0.17525 0.16755 0.15007 0.0
N11 N 0.18552 0.19187 0.12263 0.0
C12 C 0.18086 0.12003 0.22319 0.0
H13 H 0.16704 0.10844 0.20773 0.0
H14 H 0.1787 0.12915 0.26705 0.0
H15 H 0.19239 0.09912 0.22343 0.0
C16 C 0.10747 0.16387 0.25444 0.0
N17 N 0.11538 0.15533 0.20448 0.0
N18 N 0.13374 0.16496 0.20408 0.0
C19 C 0.13782 0.18165 0.25293 0.0
C20 C 0.12138 0.18105 0.28686 0.0
C21 C 0.08677 0.15672 0.26969 0.0
H22 H 0.07724 0.17585 0.24683 0.0
H23 H 0.08282 0.12905 0.25675 0.0
H24 H 0.08429 0.1595 0.31552 0.0
O25 O 0.10701 0.18042 0.07905 0.0
O26 O 0.13859 0.19284 0.07947 0.0
H27 H 0.16177 0.21317 0.22195 0.0
H28 H 0.15219 0.22802 0.28833 0.0
C29 C 0.1556 0.204 0.26244 0.0
H30 H 0.16661 0.18787 0.28518 0.0
H31 H 0.17995 0.20847 0.09118 0.0
O32 O 0.07506 0.13573 0.14628 0.0
C33 C 0.12152 0.19805 0.0605 0.0
Co34 Co 0.41006 0.84684 0.63976 0.0
Co35 Co 0.36448 0.85164 0.62756 0.0
C36 C 0.38927 0.91105 0.58828 0.0
O37 O 0.40434 0.89353 0.60287 0.0
O38 O 0.37231 0.89872 0.59695 0.0
C39 C 0.44621 0.87552 0.67705 0.0
O40 O 0.43538 0.90376 0.68822 0.0
C41 C 0.3228 0.86941 0.64822 0.0
C42 C 0.30888 0.82049 0.61454 0.0
C43 C 0.30491 0.85295 0.64056 0.0
N44 N 0.33672 0.84737 0.62813 0.0
N45 N 0.32821 0.8184 0.60752 0.0
C46 C 0.32653 0.90609 0.67171 0.0
H47 H 0.34229 0.91218 0.67136 0.0
H48 H 0.32098 0.90798 0.71529 0.0
H49 H 0.31862 0.9264 0.64632 0.0
C50 C 0.39892 0.82417 0.75354 0.0
N51 N 0.39439 0.83899 0.70371 0.0
N52 N 0.37541 0.84226 0.69974 0.0
C53 C 0.3673 0.83048 0.74786 0.0
C54 C 0.38188 0.8182 0.78338 0.0
C55 C 0.41881 0.8105 0.76749 0.0
H56 H 0.42606 0.80044 0.72898 0.0
H57 H 0.42756 0.83298 0.78457 0.0
H58 H 0.41835 0.78847 0.79887 0.0
O59 O 0.40547 0.80792 0.5856 0.0
O60 O 0.37365 0.8143 0.57415 0.0
H61 H 0.33898 0.80995 0.72988 0.0
H62 H 0.34252 0.82238 0.80276 0.0
C63 C 0.34592 0.82955 0.75864 0.0
H64 H 0.33975 0.85647 0.7504 0.0
H65 H 0.33564 0.79679 0.58954 0.0
O66 O 0.4382 0.84729 0.65794 0.0
C67 C 0.38965 0.79892 0.56211 0.0
Co68 Co 0.10507 0.85306 0.85898 0.0
Co69 Co 0.1509 0.8507 0.85576 0.0
C70 C 0.12897 0.91534 0.89723 0.0
O71 O 0.11298 0.89967 0.88778 0.0
O72 O 0.14512 0.90003 0.88651 0.0
C73 C 0.06814 0.88445 0.83564 0.0
O74 O 0.07902 0.91248 0.82416 0.0
C75 C 0.19053 0.86434 0.81077 0.0
C76 C 0.20786 0.8289 0.86591 0.0
C77 C 0.20941 0.85342 0.82239 0.0
N78 N 0.17843 0.84691 0.8459 0.0
N79 N 0.18894 0.82578 0.87861 0.0
C80 C 0.1842 0.89276 0.77026 0.0
H81 H 0.16893 0.90075 0.77846 0.0
H82 H 0.18534 0.88232 0.72679 0.0
H83 H 0.19387 0.91651 0.77357 0.0
C84 C 0.11016 0.82933 0.74265 0.0
N85 N 0.11773 0.84258 0.79031 0.0
N86 N 0.13674 0.83904 0.78912 0.0
C87 C 0.14175 0.82149 0.74155 0.0
C88 C 0.12503 0.81484 0.71039 0.0
C89 C 0.08891 0.82934 0.72973 0.0
H90 H 0.08141 0.81 0.7578 0.0
H91 H 0.08288 0.85651 0.73767 0.0
H92 H 0.08605 0.82226 0.68528 0.0
O93 O 0.11165 0.81596 0.91628 0.0
O94 O 0.14393 0.81462 0.91286 0.0
H95 H 0.16863 0.79926 0.77185 0.0
H96 H 0.16031 0.78007 0.70679 0.0
C97 C 0.16137 0.8053 0.73148 0.0
H98 H 0.17038 0.8246 0.70748 0.0
H99 H 0.18321 0.80945 0.91016 0.0
O100 O 0.07627 0.85511 0.85018 0.0
C101 C 0.12791 0.80343 0.93282 0.0
Co102 Co 0.41308 0.14453 0.35224 0.0
Co103 Co 0.36747 0.15357 0.35797 0.0
C104 C 0.38633 0.08585 0.39436 0.0
O105 O 0.4032 0.09831 0.38427 0.0
O106 O 0.37113 0.10411 0.38412 0.0
C107 C 0.45162 0.1125 0.34588 0.0
O108 O 0.44308 0.08323 0.36435 0.0
C109 C 0.32689 0.14298 0.32348 0.0
C110 C 0.31272 0.19186 0.35678 0.0
C111 C 0.30927 0.1611 0.32559 0.0
N112 N 0.34018 0.16244 0.35139 0.0
N113 N 0.33153 0.19133 0.372 0.0
C114 C 0.33106 0.10738 0.29656 0.0
H115 H 0.34689 0.10393 0.28981 0.0
H116 H 0.32325 0.10458 0.25616 0.0
H117 H 0.32592 0.08567 0.32487 0.0
C118 C 0.40629 0.17473 0.23995 0.0
N119 N 0.39952 0.15924 0.28719 0.0
N120 N 0.38049 0.16221 0.28869 0.0
C121 C 0.3745 0.17878 0.24146 0.0
C122 C 0.39063 0.18786 0.20943 0.0
C123 C 0.42735 0.18234 0.23015 0.0
H124 H 0.43364 0.19477 0.26834 0.0
H125 H 0.43509 0.15657 0.22264 0.0
H126 H 0.42975 0.20056 0.194 0.0
O127 O 0.41003 0.18245 0.40892 0.0
O128 O 0.37787 0.18656 0.41664 0.0
H129 H 0.34787 0.20596 0.26099 0.0
H130 H 0.35202 0.19989 0.18645 0.0
C131 C 0.35376 0.18755 0.22851 0.0
H132 H 0.34522 0.16245 0.2287 0.0
H133 H 0.3386 0.21127 0.39499 0.0
O134 O 0.44148 0.14056 0.33696 0.0
C135 C 0.39492 0.19598 0.43117 0.0
Co136 Co 0.91313 0.84597 0.86648 0.0
Co137 Co 0.86744 0.84252 0.85907 0.0
C138 C 0.88723 0.90585 0.9088 0.0
O139 O 0.90402 0.89215 0.90097 0.0
O140 O 0.87192 0.88973 0.89307 0.0
C141 C 0.9523 0.8725 0.84479 0.0
O142 O 0.94392 0.90306 0.83115 0.0
C143 C 0.82731 0.85916 0.82183 0.0
C144 C 0.81221 0.80898 0.84528 0.0
C145 C 0.80935 0.84231 0.82069 0.0
N146 N 0.84023 0.83658 0.84556 0.0
N147 N 0.83102 0.8068 0.85992 0.0
C148 C 0.83192 0.89664 0.80317 0.0
H149 H 0.84748 0.90281 0.80996 0.0
H150 H 0.82847 0.90005 0.75806 0.0
H151 H 0.8228 0.916 0.82699 0.0
C152 C 0.90911 0.82526 0.74724 0.0
N153 N 0.90139 0.83674 0.79609 0.0
N154 N 0.88234 0.83641 0.79233 0.0
C155 C 0.87734 0.82577 0.74028 0.0
C156 C 0.8941 0.81789 0.71006 0.0
C157 C 0.93015 0.81628 0.73997 0.0
H158 H 0.93565 0.80269 0.77824 0.0
H159 H 0.93845 0.84156 0.73418 0.0
H160 H 0.93273 0.79847 0.70338 0.0
O161 O 0.90695 0.80635 0.9179 0.0
O162 O 0.87472 0.80555 0.91562 0.0
H163 H 0.84936 0.80095 0.74461 0.0
H164 H 0.85598 0.81636 0.67489 0.0
C165 C 0.85683 0.82236 0.72041 0.0
H166 H 0.84917 0.84807 0.72776 0.0
H167 H 0.83764 0.78475 0.87917 0.0
O168 O 0.94187 0.8461 0.86009 0.0
C169 C 0.89081 0.7936 0.93421 0.0
Co170 Co 0.60366 0.13183 0.36287 0.0
Co171 Co 0.64924 0.14339 0.36125 0.0
C172 C 0.63257 0.07591 0.40504 0.0
O173 O 0.61556 0.0877 0.39478 0.0
O174 O 0.64762 0.09409 0.39256 0.0
C175 C 0.56707 0.09357 0.35641 0.0
O176 O 0.57766 0.06517 0.36841 0.0
C177 C 0.69199 0.14042 0.33514 0.0
C178 C 0.69899 0.19797 0.34563 0.0
C179 C 0.70717 0.16508 0.33164 0.0
N180 N 0.67567 0.15828 0.34991 0.0
N181 N 0.6801 0.19259 0.35627 0.0
C182 C 0.69303 0.10061 0.32633 0.0
H183 H 0.68118 0.08686 0.34921 0.0
H184 H 0.69141 0.09465 0.28094 0.0
H185 H 0.70726 0.08996 0.34054 0.0
C186 C 0.60833 0.15751 0.2462 0.0
N187 N 0.6158 0.14601 0.2953 0.0
N188 N 0.63483 0.14826 0.29338 0.0
C189 C 0.64012 0.15991 0.24207 0.0
C190 C 0.62352 0.16683 0.21056 0.0
C191 C 0.58711 0.16384 0.23703 0.0
H192 H 0.58022 0.17309 0.2766 0.0
H193 H 0.58019 0.13815 0.22446 0.0
H194 H 0.58447 0.18424 0.20392 0.0
O195 O 0.60665 0.16931 0.42 0.0
O196 O 0.63863 0.1769 0.41977 0.0
H197 H 0.66687 0.18899 0.2423 0.0
H198 H 0.66192 0.16573 0.17717 0.0
C199 C 0.66075 0.16417 0.22358 0.0
H200 H 0.66938 0.14088 0.23831 0.0
H201 H 0.67011 0.21248 0.36749 0.0
O202 O 0.57528 0.12403 0.35141 0.0
C203 C 0.62182 0.18442 0.43901 0.0
Co204 Co 0.91275 0.14842 0.13874 0.0
Co205 Co 0.86704 0.14109 0.14029 0.0
C206 C 0.89092 0.08046 0.1029 0.0
O207 O 0.90608 0.09945 0.11067 0.0
O208 O 0.87402 0.09238 0.11455 0.0
C209 C 0.95152 0.12338 0.16255 0.0
O210 O 0.94296 0.09222 0.17023 0.0
C211 C 0.82518 0.12775 0.17007 0.0
C212 C 0.81414 0.1832 0.15945 0.0
C213 C 0.80879 0.14916 0.17696 0.0
N214 N 0.83966 0.14856 0.15013 0.0
N215 N 0.83273 0.1814 0.14279 0.0
C216 C 0.82753 0.08938 0.18762 0.0
H217 H 0.84306 0.08151 0.18762 0.0
H218 H 0.82117 0.08531 0.23 0.0
H219 H 0.8195 0.07192 0.15788 0.0
C220 C 0.90499 0.17573 0.2529 0.0
N221 N 0.89921 0.15958 0.2052 0.0
N222 N 0.8804 0.15391 0.2074 0.0
C223 C 0.87375 0.16479 0.25783 0.0
C224 C 0.889 0.17967 0.28806 0.0
C225 C 0.92482 0.19132 0.26079 0.0
H226 H 0.93092 0.19973 0.21975 0.0
H227 H 0.93447 0.17045 0.27904 0.0
H228 H 0.9245 0.2149 0.2893 0.0
O229 O 0.906 0.18337 0.08012 0.0
O230 O 0.87417 0.17427 0.07802 0.0
H231 H 0.84399 0.18125 0.25706 0.0
H232 H 0.85202 0.16303 0.32344 0.0
C233 C 0.85323 0.16047 0.27715 0.0
H234 H 0.84789 0.13356 0.26487 0.0
H235 H 0.84102 0.20315 0.12901 0.0
O236 O 0.94129 0.15074 0.15009 0.0
C237 C 0.88938 0.18943 0.05906 0.0
Co238 Co 0.6012 0.83958 0.63863 0.0
Co239 Co 0.64689 0.83947 0.64603 0.0
C240 C 0.62397 0.90281 0.60129 0.0
O241 O 0.6079 0.88712 0.61026 0.0
O242 O 0.64009 0.88775 0.61334 0.0
C243 C 0.56174 0.8632 0.656 0.0
O244 O 0.56989 0.89459 0.66503 0.0
C245 C 0.68498 0.85507 0.69901 0.0
C246 C 0.70448 0.82312 0.64463 0.0
C247 C 0.70431 0.84561 0.69093 0.0
N248 N 0.67426 0.83861 0.65941 0.0
N249 N 0.68607 0.81976 0.62693 0.0
C250 C 0.677 0.88131 0.74074 0.0
H251 H 0.66172 0.88813 0.73061 0.0
H252 H 0.6776 0.86964 0.7835 0.0
H253 H 0.686 0.90604 0.7409 0.0
C254 C 0.60522 0.81832 0.75657 0.0
N255 N 0.61316 0.83062 0.70872 0.0
N256 N 0.63216 0.82731 0.71135 0.0
C257 C 0.63678 0.81056 0.75988 0.0
C258 C 0.61984 0.80458 0.79038 0.0
C259 C 0.5839 0.81885 0.76861 0.0
H260 H 0.57791 0.8456 0.7576 0.0
H261 H 0.58082 0.81365 0.81361 0.0
H262 H 0.57656 0.79827 0.74248 0.0
O263 O 0.60967 0.80317 0.58228 0.0
O264 O 0.64185 0.80245 0.58913 0.0
H265 H 0.6545 0.76752 0.79267 0.0
H266 H 0.66452 0.81171 0.79996 0.0
C267 C 0.65619 0.79395 0.77151 0.0
H268 H 0.66444 0.78994 0.73209 0.0
H269 H 0.68154 0.8044 0.59272 0.0
O270 O 0.57243 0.83621 0.64464 0.0
C271 C 0.6262 0.79095 0.56747 0.0
Co272 Co 0.60248 0.63589 0.14109 0.0
Co273 Co 0.64853 0.63854 0.14325 0.0
C274 C 0.62626 0.57487 0.09821 0.0
O275 O 0.6101 0.58967 0.1094 0.0
O276 O 0.6423 0.59034 0.10945 0.0
C277 C 0.56477 0.60628 0.16199 0.0
O278 O 0.57491 0.57654 0.16777 0.0
C279 C 0.68859 0.62493 0.18756 0.0
C280 C 0.70558 0.65926 0.13001 0.0
C281 C 0.70742 0.63558 0.17454 0.0
N282 N 0.67625 0.64174 0.15224 0.0
N283 N 0.68659 0.6622 0.11812 0.0
C284 C 0.68256 0.59725 0.22961 0.0
H285 H 0.66702 0.59024 0.22414 0.0
H286 H 0.68478 0.60781 0.27264 0.0
H287 H 0.69173 0.57284 0.225 0.0
C288 C 0.6079 0.65671 0.25832 0.0
N289 N 0.61544 0.64465 0.2098 0.0
N290 N 0.63443 0.64867 0.2106 0.0
C291 C 0.63939 0.6655 0.25875 0.0
C292 C 0.6227 0.67107 0.29068 0.0
C293 C 0.5867 0.65589 0.27199 0.0
H294 H 0.58082 0.62891 0.26212 0.0
H295 H 0.58398 0.66152 0.31706 0.0
H296 H 0.57895 0.67603 0.24586 0.0
O297 O 0.60913 0.6739 0.08533 0.0
O298 O 0.6414 0.67583 0.08836 0.0
H299 H 0.66623 0.68794 0.22852 0.0
H300 H 0.65737 0.70779 0.29264 0.0
C301 C 0.65882 0.68227 0.26882 0.0
H302 H 0.66786 0.66356 0.29391 0.0
H303 H 0.68069 0.67798 0.08614 0.0
O304 O 0.57364 0.6355 0.15119 0.0
C305 C 0.62528 0.68702 0.06909 0.0
Co306 Co 0.91764 0.349 0.63862 0.0
Co307 Co 0.87207 0.3405 0.64178 0.0
C308 C 0.88961 0.40572 0.59421 0.0
O309 O 0.90667 0.39348 0.60269 0.0
O310 O 0.87464 0.38835 0.60942 0.0
C311 C 0.95359 0.3863 0.6607 0.0
O312 O 0.94219 0.41436 0.66739 0.0
C313 C 0.83033 0.3496 0.6696 0.0
C314 C 0.81897 0.29626 0.64538 0.0
C315 C 0.81346 0.32939 0.66658 0.0
N316 N 0.84519 0.32919 0.65117 0.0
N317 N 0.83824 0.29741 0.6366 0.0
C318 C 0.83209 0.38824 0.68647 0.0
H319 H 0.8475 0.39674 0.68689 0.0
H320 H 0.82571 0.39244 0.72872 0.0
H321 H 0.82383 0.40521 0.65648 0.0
C322 C 0.9125 0.32676 0.75733 0.0
N323 N 0.90524 0.3378 0.70771 0.0
N324 N 0.88618 0.33632 0.70969 0.0
C325 C 0.88066 0.32573 0.7613 0.0
C326 C 0.89714 0.31863 0.79315 0.0
C327 C 0.9336 0.31931 0.76681 0.0
H328 H 0.9404 0.30952 0.72745 0.0
H329 H 0.9409 0.34466 0.77924 0.0
H330 H 0.93586 0.29893 0.80019 0.0
O331 O 0.91423 0.30859 0.58603 0.0
O332 O 0.88203 0.3057 0.58568 0.0
H333 H 0.85324 0.2989 0.75811 0.0
H334 H 0.8586 0.31919 0.82556 0.0
C335 C 0.85994 0.32232 0.77941 0.0
H336 H 0.85192 0.34684 0.76703 0.0
H337 H 0.84667 0.27645 0.62052 0.0
O338 O 0.94608 0.35595 0.64918 0.0
C339 C 0.8985 0.29503 0.56796 0.0
Co340 Co 0.61081 0.34103 0.86179 0.0
Co341 Co 0.65661 0.33764 0.8622 0.0
C342 C 0.63553 0.40362 0.89836 0.0
O343 O 0.61907 0.38858 0.8916 0.0
O344 O 0.65127 0.3876 0.88559 0.0
C345 C 0.57173 0.36853 0.84129 0.0
O346 O 0.58025 0.40002 0.8374 0.0
C347 C 0.69692 0.34934 0.82307 0.0
C348 C 0.71289 0.31173 0.87817 0.0
C349 C 0.71537 0.33699 0.83611 0.0
N350 N 0.68408 0.33201 0.85596 0.0
N351 N 0.69377 0.30962 0.88878 0.0
C352 C 0.69169 0.379 0.7834 0.0
H353 H 0.67577 0.38351 0.78305 0.0
H354 H 0.69673 0.3723 0.74043 0.0
H355 H 0.69918 0.40407 0.79634 0.0
C356 C 0.61761 0.31963 0.74323 0.0
N357 N 0.62426 0.32919 0.79424 0.0
N358 N 0.64322 0.32502 0.79538 0.0
C359 C 0.64913 0.31099 0.746 0.0
C360 C 0.63313 0.30751 0.71084 0.0
C361 C 0.59681 0.32291 0.726 0.0
H362 H 0.58833 0.30088 0.74563 0.0
H363 H 0.59086 0.34887 0.74115 0.0
H364 H 0.59516 0.32174 0.67972 0.0
O365 O 0.61624 0.30467 0.92158 0.0
O366 O 0.64843 0.30667 0.92456 0.0
H367 H 0.67584 0.28771 0.77564 0.0
H368 H 0.66865 0.27296 0.70681 0.0
C369 C 0.66908 0.29637 0.73569 0.0
H370 H 0.67817 0.31752 0.71617 0.0
H371 H 0.68733 0.29305 0.91884 0.0
O372 O 0.58203 0.34066 0.85031 0.0
C373 C 0.63233 0.2952 0.94335 0.0
Co374 Co 0.91035 0.64822 0.361 0.0
Co375 Co 0.86442 0.63953 0.36619 0.0
C376 C 0.88971 0.57959 0.3987 0.0
O377 O 0.90455 0.59913 0.38951 0.0
O378 O 0.87259 0.59101 0.38924 0.0
C379 C 0.94697 0.62223 0.32252 0.0
O380 O 0.93597 0.59547 0.3058 0.0
C381 C 0.82254 0.62265 0.34166 0.0
C382 C 0.80875 0.67152 0.37645 0.0
C383 C 0.80467 0.63953 0.3493 0.0
N384 N 0.83653 0.64404 0.36292 0.0
N385 N 0.82806 0.67301 0.38394 0.0
C386 C 0.82609 0.58613 0.31726 0.0
H387 H 0.84154 0.57828 0.32191 0.0
H388 H 0.82224 0.586 0.27209 0.0
H389 H 0.81665 0.56616 0.33856 0.0
C390 C 0.90019 0.67573 0.24836 0.0
N391 N 0.89532 0.65935 0.29677 0.0
N392 N 0.87642 0.6542 0.29787 0.0
C393 C 0.86876 0.66623 0.24936 0.0
C394 C 0.88349 0.6807 0.21655 0.0
C395 C 0.92 0.69038 0.23662 0.0
H396 H 0.92718 0.6982 0.27641 0.0
H397 H 0.92889 0.66915 0.21621 0.0
H398 H 0.91934 0.71411 0.20842 0.0
O399 O 0.9042 0.68252 0.4217 0.0
O400 O 0.87249 0.67215 0.42775 0.0
H401 H 0.8393 0.68283 0.2613 0.0
H402 H 0.84502 0.6697 0.18986 0.0
C403 C 0.8477 0.66379 0.23482 0.0
H404 H 0.84257 0.6362 0.24345 0.0
H405 H 0.83552 0.69416 0.40292 0.0
O406 O 0.93896 0.64929 0.34578 0.0
C407 C 0.88782 0.68762 0.44516 0.0
Co408 Co 0.41903 0.35543 0.85338 0.0
Co409 Co 0.37333 0.34985 0.85721 0.0
C410 C 0.39307 0.4165 0.89246 0.0
O411 O 0.40987 0.40295 0.88444 0.0
O412 O 0.37776 0.39897 0.88144 0.0
C413 C 0.45608 0.38703 0.82501 0.0
O414 O 0.44558 0.41602 0.81614 0.0
C415 C 0.33331 0.36431 0.82257 0.0
C416 C 0.31771 0.3171 0.85607 0.0
C417 C 0.31519 0.3482 0.82486 0.0
N418 N 0.34599 0.3434 0.85041 0.0
N419 N 0.33651 0.31552 0.87118 0.0
C420 C 0.33858 0.39939 0.79571 0.0
H421 H 0.35411 0.39935 0.7833 0.0
H422 H 0.32931 0.40529 0.75885 0.0
H423 H 0.33637 0.42124 0.82683 0.0
C424 C 0.41186 0.32493 0.74046 0.0
N425 N 0.40543 0.34115 0.78761 0.0
N426 N 0.38635 0.33957 0.78894 0.0
C427 C 0.38003 0.3231 0.74211 0.0
C428 C 0.39594 0.3127 0.71026 0.0
C429 C 0.43276 0.31624 0.7299 0.0
H430 H 0.43902 0.30313 0.76764 0.0
H431 H 0.44083 0.34163 0.72275 0.0
H432 H 0.43469 0.29833 0.69306 0.0
O433 O 0.41495 0.318 0.91099 0.0
O434 O 0.38268 0.31696 0.91674 0.0
H435 H 0.35308 0.29764 0.76296 0.0
H436 H 0.35719 0.30231 0.6882 0.0
C437 C 0.35916 0.31524 0.72973 0.0
H438 H 0.35092 0.34077 0.72905 0.0
H439 H 0.34299 0.29489 0.89427 0.0
O440 O 0.44762 0.35812 0.8397 0.0
C441 C 0.39934 0.30615 0.93266 0.0
Co442 Co 0.10319 0.64784 0.36068 0.0
Co443 Co 0.14931 0.64628 0.3534 0.0
C444 C 0.12548 0.58326 0.39619 0.0
O445 O 0.10952 0.59955 0.38757 0.0
O446 O 0.14175 0.59793 0.38466 0.0
C447 C 0.06298 0.62694 0.3428 0.0
O448 O 0.07046 0.59511 0.33222 0.0
C449 C 0.18889 0.6303 0.30501 0.0
C450 C 0.20694 0.66135 0.36422 0.0
C451 C 0.20804 0.63897 0.31793 0.0
N452 N 0.17709 0.64699 0.34216 0.0
N453 N 0.18809 0.66548 0.37721 0.0
C454 C 0.18205 0.6045 0.26122 0.0
H455 H 0.16627 0.59936 0.26588 0.0
H456 H 0.18491 0.61571 0.21889 0.0
H457 H 0.19026 0.57888 0.26472 0.0
C458 C 0.1079 0.67083 0.24374 0.0
N459 N 0.11563 0.65745 0.29112 0.0
N460 N 0.1347 0.65959 0.28836 0.0
C461 C 0.13958 0.67643 0.24011 0.0
C462 C 0.12271 0.68403 0.2101 0.0
C463 C 0.08658 0.67166 0.23189 0.0
H464 H 0.0802 0.64516 0.24234 0.0
H465 H 0.08357 0.67749 0.18706 0.0
H466 H 0.07954 0.69239 0.25861 0.0
O467 O 0.11185 0.68304 0.41845 0.0
O468 O 0.14403 0.68283 0.41136 0.0
H469 H 0.16763 0.69484 0.2674 0.0
H470 H 0.15853 0.71696 0.20541 0.0
C471 C 0.15941 0.69089 0.22799 0.0
H472 H 0.16733 0.67157 0.20088 0.0
H473 H 0.18274 0.68071 0.41063 0.0
O474 O 0.07426 0.65287 0.35489 0.0
C475 C 0.12846 0.69453 0.43352 0.0
Co476 Co 0.4111 0.65525 0.1398 0.0
Co477 Co 0.36526 0.64751 0.12882 0.0
C478 C 0.39151 0.58965 0.08942 0.0
O479 O 0.40623 0.60808 0.1039 0.0
O480 O 0.37426 0.60093 0.09781 0.0
C481 C 0.44944 0.63037 0.16893 0.0
O482 O 0.44068 0.59919 0.17412 0.0
C483 C 0.32328 0.62848 0.15021 0.0
C484 C 0.3093 0.67788 0.11813 0.0
C485 C 0.3053 0.64514 0.14314 0.0
N486 N 0.33723 0.65075 0.13078 0.0
N487 N 0.32863 0.68002 0.1113 0.0
C488 C 0.32702 0.59141 0.17225 0.0
H489 H 0.3425 0.58393 0.16671 0.0
H490 H 0.32328 0.59006 0.21747 0.0
H491 H 0.31761 0.57187 0.14998 0.0
C492 C 0.39988 0.6769 0.25369 0.0
N493 N 0.39542 0.66208 0.20386 0.0
N494 N 0.3765 0.6576 0.20051 0.0
C495 C 0.36839 0.66851 0.24914 0.0
C496 C 0.38287 0.68152 0.28428 0.0
C497 C 0.41953 0.69181 0.26691 0.0
H498 H 0.42616 0.70318 0.22838 0.0
H499 H 0.42899 0.6697 0.28216 0.0
H500 H 0.41886 0.7132 0.2993 0.0
O501 O 0.40525 0.69339 0.08545 0.0
O502 O 0.37352 0.68536 0.07464 0.0
H503 H 0.33958 0.68758 0.23347 0.0
H504 H 0.34379 0.67381 0.30548 0.0
C505 C 0.34707 0.66781 0.26084 0.0
H506 H 0.34143 0.64071 0.25131 0.0
H507 H 0.336 0.70188 0.09401 0.0
O508 O 0.43942 0.65806 0.15671 0.0
C509 C 0.38924 0.70153 0.06224 0.0
Co510 Co 0.10918 0.35033 0.63611 0.0
Co511 Co 0.15472 0.34368 0.6379 0.0
C512 C 0.13411 0.40839 0.58939 0.0
O513 O 0.11733 0.39598 0.6006 0.0
O514 O 0.14946 0.39119 0.60255 0.0
C515 C 0.06956 0.37698 0.65055 0.0
O516 O 0.07743 0.40915 0.65044 0.0
C517 C 0.19322 0.3594 0.68499 0.0
C518 C 0.21144 0.3188 0.6422 0.0
C519 C 0.21203 0.34624 0.6815 0.0
N520 N 0.182 0.34026 0.64986 0.0
N521 N 0.19302 0.31626 0.62405 0.0
C522 C 0.18618 0.39092 0.71848 0.0
H523 H 0.17179 0.40002 0.70313 0.0
H524 H 0.18481 0.38338 0.76329 0.0
H525 H 0.19681 0.41325 0.7157 0.0
C526 C 0.11491 0.33528 0.75751 0.0
N527 N 0.12197 0.34253 0.70594 0.0
N528 N 0.14083 0.33698 0.70582 0.0
C529 C 0.14621 0.3241 0.75638 0.0
C530 C 0.13006 0.32331 0.79134 0.0
C531 C 0.09398 0.33896 0.7732 0.0
H532 H 0.08571 0.31623 0.7549 0.0
H533 H 0.0881 0.36434 0.75559 0.0
H534 H 0.092 0.33916 0.81944 0.0
O535 O 0.11533 0.31063 0.5825 0.0
O536 O 0.14745 0.30556 0.58498 0.0
H537 H 0.17183 0.29617 0.72776 0.0
H538 H 0.16336 0.28253 0.79589 0.0
C539 C 0.16527 0.3059 0.76741 0.0
H540 H 0.1753 0.32499 0.78803 0.0
H541 H 0.18791 0.29776 0.59465 0.0
O542 O 0.08043 0.34943 0.64592 0.0
C543 C 0.13103 0.29558 0.56643 0.0
H544 H 0.24216 0.15811 0.14713 0.0
H545 H 0.20729 0.16026 0.29741 0.0
H546 H 0.23648 0.15586 0.35524 0.0
H547 H 0.27225 0.15669 0.36296 0.0
H548 H 0.30696 0.15438 0.21242 0.0
H549 H 0.27767 0.1532 0.15479 0.0
C550 C 0.241 0.15708 0.19255 0.0
C551 C 0.22265 0.15917 0.21802 0.0
C552 C 0.25785 0.15458 0.22544 0.0
C553 C 0.22124 0.15788 0.27682 0.0
C554 C 0.23795 0.15574 0.30992 0.0
C555 C 0.27329 0.15517 0.31756 0.0
C556 C 0.29165 0.15488 0.29188 0.0
C557 C 0.25635 0.15472 0.2847 0.0
C558 C 0.29296 0.15349 0.23308 0.0
C559 C 0.27622 0.15328 0.20012 0.0
H560 H 0.21723 0.85784 0.71036 0.0
H561 H 0.24321 0.86959 0.87381 0.0
H562 H 0.27522 0.8761 0.83087 0.0
H563 H 0.29616 0.87017 0.74808 0.0
H564 H 0.27061 0.85426 0.58507 0.0
H565 H 0.23808 0.85802 0.62619 0.0
C566 C 0.22981 0.86306 0.73633 0.0
C567 C 0.22788 0.86362 0.79509 0.0
C568 C 0.24827 0.86566 0.71136 0.0
C569 C 0.24439 0.86913 0.82844 0.0
C570 C 0.26269 0.87277 0.80393 0.0
C571 C 0.28347 0.86909 0.7213 0.0
C572 C 0.28571 0.86282 0.66351 0.0
C573 C 0.26488 0.87003 0.74557 0.0
C574 C 0.26915 0.85958 0.62962 0.0
C575 C 0.25058 0.86152 0.65316 0.0
H576 H 0.73985 0.86498 0.65483 0.0
H577 H 0.70739 0.84115 0.80503 0.0
H578 H 0.73722 0.84224 0.86035 0.0
H579 H 0.77303 0.84218 0.86345 0.0
H580 H 0.80539 0.86461 0.71256 0.0
H581 H 0.77525 0.87234 0.66019 0.0
C582 C 0.73932 0.86088 0.69992 0.0
C583 C 0.72147 0.85336 0.72595 0.0
C584 C 0.75656 0.86105 0.73122 0.0
C585 C 0.72088 0.84788 0.78426 0.0
C586 C 0.73798 0.84801 0.81578 0.0
C587 C 0.77339 0.84963 0.81941 0.0
C588 C 0.79134 0.85345 0.79206 0.0
C589 C 0.75596 0.8535 0.7894 0.0
C590 C 0.79175 0.86267 0.73491 0.0
C591 C 0.7745 0.86657 0.70476 0.0
H592 H 0.72323 0.11763 0.25481 0.0
H593 H 0.73764 0.20304 0.37032 0.0
H594 H 0.77084 0.20338 0.33572 0.0
H595 H 0.79494 0.18369 0.26702 0.0
H596 H 0.78167 0.09762 0.15253 0.0
H597 H 0.74899 0.09242 0.19341 0.0
C598 C 0.73373 0.13547 0.27379 0.0
C599 C 0.72784 0.16024 0.31537 0.0
C600 C 0.75298 0.13556 0.25358 0.0
C601 C 0.74168 0.18387 0.33806 0.0
C602 C 0.76071 0.18411 0.31835 0.0
C603 C 0.78496 0.16342 0.25169 0.0
C604 C 0.7905 0.14123 0.20678 0.0
C605 C 0.76637 0.16076 0.27522 0.0
C606 C 0.77763 0.11486 0.18733 0.0
C607 C 0.75895 0.1121 0.21045 0.0
H608 H 0.71627 0.63425 0.28622 0.0
H609 H 0.74079 0.61748 0.12174 0.0
H610 H 0.77318 0.61188 0.16245 0.0
H611 H 0.79492 0.61968 0.24318 0.0
H612 H 0.77074 0.64057 0.40685 0.0
H613 H 0.7379 0.63626 0.36857 0.0
C614 C 0.72862 0.62816 0.25962 0.0
C615 C 0.72613 0.62586 0.20114 0.0
C616 C 0.74733 0.6261 0.28323 0.0
C617 C 0.74237 0.61923 0.16692 0.0
C618 C 0.7609 0.61613 0.19015 0.0
C619 C 0.78247 0.62185 0.27081 0.0
C620 C 0.78523 0.62971 0.32795 0.0
C621 C 0.76364 0.62054 0.24807 0.0
C622 C 0.76893 0.63414 0.36279 0.0
C623 C 0.75016 0.63186 0.34086 0.0
H624 H 0.80299 0.35214 0.77013 0.0
H625 H 0.77994 0.32381 0.6081 0.0
H626 H 0.74682 0.32881 0.6447 0.0
H627 H 0.72477 0.33407 0.72574 0.0
H628 H 0.74817 0.35742 0.88932 0.0
H629 H 0.78079 0.3622 0.84938 0.0
C630 C 0.79068 0.34836 0.74248 0.0
C631 C 0.79377 0.33835 0.68635 0.0
C632 C 0.77177 0.35006 0.76437 0.0
C633 C 0.77778 0.3319 0.65138 0.0
C634 C 0.75889 0.33462 0.67233 0.0
C635 C 0.73695 0.34139 0.75212 0.0
C636 C 0.73415 0.34599 0.81009 0.0
C637 C 0.75572 0.34275 0.72915 0.0
C638 C 0.75008 0.35408 0.84445 0.0
C639 C 0.7687 0.35665 0.82168 0.0
H640 H 0.24875 0.35547 0.64562 0.0
H641 H 0.21355 0.3545 0.79528 0.0
H642 H 0.2426 0.35874 0.85357 0.0
H643 H 0.2783 0.35575 0.86185 0.0
H644 H 0.31333 0.35596 0.71187 0.0
H645 H 0.28421 0.35929 0.65378 0.0
C646 C 0.24749 0.35695 0.69099 0.0
C647 C 0.22909 0.35508 0.71616 0.0
C648 C 0.26426 0.35901 0.72413 0.0
C649 C 0.22753 0.35681 0.7749 0.0
C650 C 0.24416 0.35876 0.80827 0.0
C651 C 0.27946 0.35737 0.81648 0.0
C652 C 0.29784 0.35627 0.79104 0.0
C653 C 0.26262 0.35896 0.78336 0.0
C654 C 0.29932 0.35781 0.7323 0.0
C655 C 0.28267 0.35929 0.69908 0.0
H656 H 0.21682 0.64058 0.20594 0.0
H657 H 0.24102 0.61651 0.36843 0.0
H658 H 0.27332 0.61078 0.32706 0.0
H659 H 0.29524 0.62104 0.24722 0.0
H660 H 0.27144 0.64882 0.08576 0.0
H661 H 0.23853 0.64429 0.12366 0.0
C662 C 0.22905 0.63283 0.23184 0.0
C663 C 0.22649 0.62861 0.29007 0.0
C664 C 0.24775 0.63068 0.20794 0.0
C665 C 0.24262 0.61979 0.32345 0.0
C666 C 0.26112 0.61664 0.29984 0.0
C667 C 0.28286 0.62463 0.21982 0.0
C668 C 0.28577 0.63461 0.1635 0.0
C669 C 0.26397 0.62312 0.24243 0.0
C670 C 0.26953 0.64079 0.12915 0.0
C671 C 0.25071 0.63839 0.15089 0.0
H672 H 0.97778 0.06894 0.17309 0.0
H673 H 0.97346 0.18434 0.15607 0.0
H674 H 0.00876 0.18896 0.15352 0.0
H675 H 0.0408 0.16018 0.15263 0.0
H676 H 0.04518 0.0447 0.16816 0.0
H677 H 0.00992 0.04027 0.17492 0.0
C678 C 0.98454 0.09514 0.1692 0.0
C679 C 0.97295 0.12621 0.16454 0.0
C680 C 1.00487 0.09761 0.16723 0.0
C681 C 0.982 0.15994 0.15948 0.0
C682 C 1.0022 0.16263 0.15798 0.0
C683 C 0.03407 0.13402 0.15763 0.0
C684 C 0.04566 0.10281 0.15957 0.0
C685 C 0.01377 0.13162 0.16119 0.0
C686 C 0.03665 0.06918 0.16633 0.0
C687 C 0.01646 0.0666 0.17021 0.0
H688 H 0.53532 0.91351 0.68888 0.0
H689 H 0.54018 0.80338 0.63286 0.0
H690 H 0.50498 0.79693 0.63714 0.0
H691 H 0.47274 0.82314 0.65349 0.0
H692 H 0.4679 0.93329 0.70951 0.0
H693 H 0.50315 0.93893 0.709 0.0
C694 C 0.5287 0.88806 0.67768 0.0
C695 C 0.54041 0.85908 0.66018 0.0
C696 C 0.50843 0.88448 0.68031 0.0
C697 C 0.53155 0.82621 0.64627 0.0
C698 C 0.5114 0.82247 0.64871 0.0
C699 C 0.47938 0.84832 0.66598 0.0
C700 C 0.46763 0.87779 0.68123 0.0
C701 C 0.49969 0.8515 0.66524 0.0
C702 C 0.47654 0.91016 0.69746 0.0
C703 C 0.49672 0.91348 0.69704 0.0
H704 H 0.9791 0.9235 0.8174 0.0
H705 H 0.97371 0.81254 0.86876 0.0
H706 H 0.00891 0.80615 0.86912 0.0
H707 H 0.04133 0.83232 0.85706 0.0
H708 H 0.04674 0.94335 0.80618 0.0
H709 H 0.01153 0.94928 0.80326 0.0
C710 C 0.9856 0.89789 0.82853 0.0
C711 C 0.97372 0.86864 0.84327 0.0
C712 C 1.00592 0.89435 0.82882 0.0
C713 C 0.98246 0.83561 0.85744 0.0
C714 C 1.00262 0.83188 0.85766 0.0
C715 C 0.03482 0.85779 0.84517 0.0
C716 C 0.04672 0.88734 0.83206 0.0
C717 C 0.01451 0.86112 0.84378 0.0
C718 C 0.03799 0.92013 0.81661 0.0
C719 C 0.01781 0.92359 0.81496 0.0
H720 H 0.54122 0.14554 0.3254 0.0
H721 H 0.54476 0.03458 0.37824 0.0
H722 H 0.50946 0.0302 0.37715 0.0
H723 H 0.47753 0.05852 0.36544 0.0
H724 H 0.47391 0.16949 0.31271 0.0
H725 H 0.50924 0.17304 0.30925 0.0
C726 C 0.53428 0.12034 0.33646 0.0
C727 C 0.54567 0.09052 0.35225 0.0
C728 C 0.51393 0.11798 0.3359 0.0
C729 C 0.5364 0.05801 0.36602 0.0
C730 C 0.51619 0.05547 0.36551 0.0
C731 C 0.48444 0.08344 0.35282 0.0
C732 C 0.47303 0.11375 0.33976 0.0
C733 C 0.5048 0.08538 0.35114 0.0
C734 C 0.48229 0.14576 0.32326 0.0
C735 C 0.50253 0.14785 0.32133 0.0
H736 H 0.47504 0.57539 0.1839 0.0
H737 H 0.47221 0.69039 0.15973 0.0
H738 H 0.5076 0.69334 0.15695 0.0
H739 H 0.5394 0.66288 0.15739 0.0
H740 H 0.54191 0.54774 0.18066 0.0
H741 H 0.50668 0.54537 0.1878 0.0
C742 C 0.48213 0.60118 0.17845 0.0
C743 C 0.47092 0.63258 0.17179 0.0
C744 C 0.50249 0.60267 0.17637 0.0
C745 C 0.48043 0.66574 0.1648 0.0
C746 C 0.5007 0.66746 0.16309 0.0
C747 C 0.53225 0.63728 0.16416 0.0
C748 C 0.54335 0.60552 0.16813 0.0
C749 C 0.51188 0.63603 0.16811 0.0
C750 C 0.5338 0.57262 0.17725 0.0
C751 C 0.5136 0.5712 0.18135 0.0
H752 H 0.04226 0.42947 0.66508 0.0
H753 H 0.04877 0.31457 0.64558 0.0
H754 H 0.01364 0.30725 0.64865 0.0
H755 H 0.98098 0.33348 0.65397 0.0
H756 H 0.97436 0.4483 0.67389 0.0
H757 H 0.00955 0.45549 0.67387 0.0
C758 C 0.03601 0.4028 0.66166 0.0
C759 C 0.0482 0.37267 0.65477 0.0
C760 C 0.01573 0.39872 0.66347 0.0
C761 C 0.0398 0.3383 0.65074 0.0
C762 C 0.01967 0.33405 0.65245 0.0
C763 C 0.98721 0.36009 0.65848 0.0
C764 C 0.97498 0.3903 0.66359 0.0
C765 C 1.00749 0.36408 0.65834 0.0
C766 C 0.98337 0.42454 0.66977 0.0
C767 C 1.00353 0.42871 0.66967 0.0
H768 H 0.48207 0.33233 0.84043 0.0
H769 H 0.47855 0.44572 0.80224 0.0
H770 H 0.51386 0.44978 0.80239 0.0
H771 H 0.54579 0.42179 0.81687 0.0
H772 H 0.54938 0.30839 0.85484 0.0
H773 H 0.51409 0.3038 0.85114 0.0
C774 C 0.48901 0.35792 0.83187 0.0
C775 C 0.47759 0.38871 0.82167 0.0
C776 C 0.50939 0.36014 0.83219 0.0
C777 C 0.4869 0.42157 0.81038 0.0
C778 C 0.50714 0.42396 0.81055 0.0
C779 C 0.53888 0.39602 0.82417 0.0
C780 C 0.55029 0.36555 0.83647 0.0
C781 C 0.51853 0.39352 0.82199 0.0
C782 C 0.54102 0.33235 0.84545 0.0
C783 C 0.5208 0.32967 0.84338 0.0
H784 H 0.97431 0.67177 0.35365 0.0
H785 H 0.96802 0.56544 0.283 0.0
H786 H 1.00312 0.55782 0.28233 0.0
H787 H 0.03564 0.5802 0.30469 0.0
H788 H 0.0423 0.68666 0.37425 0.0
H789 H 1.00714 0.69527 0.37234 0.0
C790 C 0.98062 0.64702 0.33778 0.0
C791 C 0.96844 0.61919 0.31866 0.0
C792 C 1.00093 0.6427 0.33756 0.0
C793 C 0.97694 0.58735 0.29808 0.0
C794 C 0.99707 0.58288 0.29778 0.0
C795 C 0.02944 0.60533 0.31939 0.0
C796 C 0.04165 0.63261 0.33996 0.0
C797 C 0.0092 0.61019 0.31795 0.0
C798 C 0.03329 0.66512 0.35833 0.0
C799 C 0.01315 0.67008 0.35729 0.0
H800 H 0.10646 0.0565 0.02562 0.0
H801 H 0.1653 0.04751 0.08536 0.0
H802 H 0.17027 0.99405 0.02638 0.0
H803 H 0.15722 0.94886 0.95934 0.0
H804 H 0.09847 0.96117 0.89919 0.0
H805 H 0.09432 0.01475 0.95609 0.0
C806 C 0.12036 0.04272 0.02625 0.0
C807 C 0.13538 0.05552 0.06053 0.0
C808 C 0.1232 0.01283 0.99154 0.0
C809 C 0.15344 0.03789 0.05967 0.0
C810 C 0.1563 0.00746 0.02581 0.0
C811 C 0.14366 0.96366 0.95807 0.0
C812 C 0.12815 0.9508 0.92534 0.0
C813 C 0.14124 0.99463 0.99152 0.0
C814 C 0.11061 0.97021 0.92431 0.0
C815 C 0.10816 0.00085 0.95702 0.0
H816 H 0.36192 0.94685 0.52798 0.0
H817 H 0.42234 0.95059 0.57533 0.0
H818 H 0.42706 0.00362 0.5165 0.0
H819 H 0.41404 0.04905 0.4519 0.0
H820 H 0.3536 0.04532 0.40494 0.0
H821 H 0.34902 0.99178 0.46266 0.0
C822 C 0.37609 0.95943 0.52586 0.0
C823 C 0.39171 0.94484 0.55625 0.0
C824 C 0.37879 0.98964 0.49143 0.0
C825 C 0.41003 0.96129 0.55247 0.0
C826 C 0.41278 0.99154 0.51865 0.0
C827 C 0.39993 0.03627 0.45369 0.0
C828 C 0.38421 0.05114 0.42404 0.0
C829 C 0.39729 0.00582 0.4877 0.0
C830 C 0.36596 0.03444 0.42736 0.0
C831 C 0.36328 0.00391 0.46055 0.0
H832 H 0.91492 0.94078 0.96946 0.0
H833 H 0.85457 0.94656 0.92155 0.0
H834 H 0.85009 -0.00064 0.98075 0.0
H835 H 0.8632 0.04406 0.04577 0.0
H836 H 0.92363 0.03941 0.09245 0.0
H837 H 0.92805 0.98565 0.03484 0.0
C838 C 0.90083 0.95376 0.97156 0.0
C839 C 0.88514 0.9397 0.94097 0.0
C840 C 0.89827 0.98403 0.00609 0.0
C841 C 0.86693 0.95675 0.94461 0.0
C842 C 0.86431 0.9869 0.97865 0.0
C843 C 0.87728 0.03101 0.04401 0.0
C844 C 0.89302 0.04561 0.07361 0.0
C845 C 0.87983 0.00063 0.00984 0.0
C846 C 0.91125 0.02866 0.07016 0.0
C847 C 0.91382 -0.00198 0.03699 0.0
H848 H 0.6047 0.04325 0.46592 0.0
H849 H 0.66509 0.03399 0.42008 0.0
H850 H 0.66826 0.98061 0.47992 0.0
H851 H 0.65349 0.93609 0.54448 0.0
H852 H 0.59313 0.94769 0.59024 0.0
H853 H 0.59049 0.00107 0.53182 0.0
C854 C 0.61855 0.02945 0.46844 0.0
C855 C 0.63457 0.04234 0.43798 0.0
C856 C 0.62034 -0.00056 0.50354 0.0
C857 C 0.65249 0.02445 0.44278 0.0
C858 C 0.65432 0.99404 0.47718 0.0
C859 C 0.63986 0.95062 0.54225 0.0
C860 C 0.62353 0.93777 0.5716 0.0
C861 C 0.63833 0.98133 0.50791 0.0
C862 C 0.60591 0.95681 0.56795 0.0
C863 C 0.60434 0.9873 0.53435 0.0
H864 H 0.65489 0.5455 0.03312 0.0
H865 H 0.5964 0.5276 0.09183 0.0
H866 H 0.5937 0.47478 0.03209 0.0
H867 H 0.60758 0.43401 0.96268 0.0
H868 H 0.6662 0.45022 0.90425 0.0
H869 H 0.66905 0.5037 0.96353 0.0
C870 C 0.64167 0.52973 0.03337 0.0
C871 C 0.6259 0.54049 0.067 0.0
C872 C 0.64008 0.49946 0.99822 0.0
C873 C 0.60877 0.51998 0.06633 0.0
C874 C 0.60715 0.48983 0.03196 0.0
C875 C 0.62091 0.44947 0.96225 0.0
C876 C 0.63658 0.43828 0.92874 0.0
C877 C 0.62261 0.47957 0.99731 0.0
C878 C 0.65386 0.45836 0.92948 0.0
C879 C 0.65555 0.48881 0.96363 0.0
H880 H 0.91646 0.44175 0.53198 0.0
H881 H 0.85626 0.44447 0.58246 0.0
H882 H 0.85069 0.4967 0.52279 0.0
H883 H 0.86281 0.54177 0.4569 0.0
H884 H 0.92307 0.54014 0.40729 0.0
H885 H 0.92858 0.48685 0.46523 0.0
C886 C 0.90217 0.45396 0.53033 0.0
C887 C 0.88684 0.43925 0.5618 0.0
C888 C 0.89898 0.48384 0.49547 0.0
C889 C 0.86835 0.45523 0.55872 0.0
C890 C 0.8651 0.48502 0.52442 0.0
C891 C 0.87709 0.52948 0.45806 0.0
C892 C 0.89247 0.54481 0.42764 0.0
C893 C 0.88027 0.49941 0.49238 0.0
C894 C 0.91096 0.52881 0.43026 0.0
C895 C 0.91416 0.49847 0.46361 0.0
H896 H 0.41947 0.45159 0.95748 0.0
H897 H 0.36119 0.4596 0.89243 0.0
H898 H 0.35528 0.51283 0.94963 0.0
H899 H 0.36617 0.55596 0.02032 0.0
H900 H 0.42447 0.54883 0.08525 0.0
H901 H 0.43073 0.49614 0.02659 0.0
C902 C 0.4056 0.46535 0.95516 0.0
C903 C 0.39081 0.45163 0.92077 0.0
C904 C 0.40215 0.49571 0.98893 0.0
C905 C 0.37283 0.46955 0.91868 0.0
C906 C 0.36938 0.4999 0.95159 0.0
C907 C 0.38018 0.54267 0.02209 0.0
C908 C 0.39475 0.55609 0.05747 0.0
C909 C 0.38381 0.51285 0.98755 0.0
C910 C 0.41296 0.53892 0.05852 0.0
C911 C 0.41659 0.5089 0.0248 0.0
H912 H 0.15482 0.54867 0.45148 0.0
H913 H 0.0943 0.5391 0.40741 0.0
H914 H 0.09156 0.48508 0.46462 0.0
H915 H 0.10588 0.44162 0.52939 0.0
H916 H 0.16639 0.45008 0.57367 0.0
H917 H 0.16951 0.50363 0.51468 0.0
C918 C 0.14112 0.53447 0.45377 0.0
C919 C 0.1248 0.54803 0.4252 0.0
C920 C 0.13953 0.50352 0.48748 0.0
C921 C 0.1071 0.52941 0.42906 0.0
C922 C 0.10547 0.49854 0.46197 0.0
C923 C 0.11973 0.45529 0.52655 0.0
C924 C 0.13582 0.442 0.55632 0.0
C925 C 0.1215 0.48568 0.49201 0.0
C926 C 0.15373 0.45981 0.55138 0.0
C927 C 0.15555 0.49037 0.51749 0.0
H928 H 0.10355 0.27573 0.83188 0.0
H929 H 0.15493 0.33466 0.87791 0.0
H930 H 0.15653 0.30212 0.96705 0.0
H931 H 0.14458 0.25376 0.02856 0.0
H932 H 0.0921 0.19739 0.98435 0.0
H933 H 0.08933 0.23291 0.8986 0.0
C934 C 0.11474 0.28226 0.86211 0.0
C935 C 0.12915 0.30743 0.84833 0.0
C936 C 0.11542 0.2638 0.91349 0.0
C937 C 0.14382 0.31501 0.88744 0.0
C938 C 0.14472 0.29648 0.93838 0.0
C939 C 0.13244 0.24954 0.00042 0.0
C940 C 0.1187 0.22273 0.01251 0.0
C941 C 0.13083 0.27024 0.9513 0.0
C942 C 0.10289 0.21786 0.97605 0.0
C943 C 0.10133 0.23805 0.92683 0.0
H944 H 0.36543 0.79476 0.47389 0.0
H945 H 0.41478 0.74246 0.54977 0.0
H946 H 0.41594 0.69906 0.47236 0.0
H947 H 0.40365 0.67785 0.38085 0.0
H948 H 0.35704 0.73591 0.30071 0.0
H949 H 0.35371 0.77463 0.38262 0.0
C950 C 0.37631 0.77361 0.47378 0.0
C951 C 0.38994 0.7716 0.51739 0.0
C952 C 0.37728 0.74969 0.42851 0.0
C953 C 0.40417 0.74449 0.51641 0.0
C954 C 0.40482 0.71971 0.47228 0.0
C955 C 0.39275 0.69894 0.38163 0.0
C956 C 0.38034 0.70354 0.33545 0.0
C957 C 0.39158 0.72235 0.42775 0.0
C958 C 0.36635 0.73106 0.33652 0.0
C959 C 0.36459 0.75353 0.38304 0.0
H960 H 0.10419 0.79916 0.02285 0.0
H961 H 0.15333 0.74786 0.94414 0.0
H962 H 0.15553 0.7049 0.02186 0.0
H963 H 0.14394 0.6831 0.1138 0.0
H964 H 0.0974 0.73977 0.19693 0.0
H965 H 0.09351 0.77903 0.11587 0.0
C966 C 0.11522 0.77828 0.02253 0.0
C967 C 0.12845 0.77632 0.97787 0.0
C968 C 0.11683 0.75462 0.06817 0.0
C969 C 0.14296 0.74971 0.97826 0.0
C970 C 0.14424 0.72522 0.02262 0.0
C971 C 0.133 0.70411 0.11404 0.0
C972 C 0.12065 0.70789 0.16062 0.0
C973 C 0.13137 0.72765 0.06812 0.0
C974 C 0.10662 0.73541 0.16073 0.0
C975 C 0.10452 0.75817 0.11463 0.0
H976 H 0.41268 0.3183 0.60711 0.0
H977 H 0.37896 0.24724 0.71161 0.0
H978 H 0.37471 0.20576 0.63325 0.0
H979 H 0.37966 0.1906 0.53419 0.0
H980 H 0.41618 0.25749 0.43125 0.0
H981 H 0.42033 0.29988 0.50943 0.0
C982 C 0.40463 0.29351 0.61256 0.0
C983 C 0.39571 0.28613 0.66425 0.0
C984 C 0.4026 0.26935 0.56755 0.0
C985 C 0.38552 0.25377 0.67151 0.0
C986 C 0.3831 0.23006 0.62687 0.0
C987 C 0.38843 0.2146 0.52907 0.0
C988 C 0.39731 0.22159 0.47736 0.0
C989 C 0.3913 0.23787 0.57451 0.0
C990 C 0.40908 0.25206 0.47098 0.0
C991 C 0.41148 0.27613 0.51555 0.0
H992 H 0.90586 0.67798 0.12269 0.0
H993 H 0.85673 0.73285 0.19558 0.0
H994 H 0.85317 0.7693 0.11117 0.0
H995 H 0.86521 0.78832 0.01917 0.0
H996 H 0.91689 0.73951 0.95096 0.0
H997 H 0.91845 0.69812 0.03096 0.0
C998 C 0.89442 0.69797 0.11993 0.0
C999 C 0.88135 0.70225 0.16472 0.0
C1000 C 0.89299 0.71999 0.07221 0.0
C1001 C 0.86661 0.72829 0.16091 0.0
C1002 C 0.86468 0.7494 0.1129 0.0
C1003 C 0.87663 0.76823 0.02151 0.0
C1004 C 0.89081 0.76658 0.97931 0.0
C1005 C 0.87787 0.74569 0.06853 0.0
C1006 C 0.9058 0.74106 0.98315 0.0
C1007 C 0.90671 0.71752 0.02883 0.0
H1008 H 0.64644 0.2377 0.47199 0.0
H1009 H 0.59316 0.18417 0.51732 0.0
H1010 H 0.59171 0.21811 0.60478 0.0
H1011 H 0.60689 0.25927 0.67165 0.0
H1012 H 0.65848 0.31717 0.62395 0.0
H1013 H 0.65954 0.28468 0.53464 0.0
C1014 C 0.63443 0.23379 0.50081 0.0
C1015 C 0.62003 0.20828 0.48839 0.0
C1016 C 0.63352 0.25377 0.55087 0.0
C1017 C 0.60442 0.20372 0.52579 0.0
C1018 C 0.60362 0.22296 0.576 0.0
C1019 C 0.61806 0.26558 0.64113 0.0
C1020 C 0.63263 0.29048 0.65453 0.0
C1021 C 0.61824 0.24762 0.58936 0.0
C1022 C 0.64727 0.29763 0.61498 0.0
C1023 C 0.64783 0.27923 0.56381 0.0
H1024 H 0.91133 0.24758 0.03104 0.0
H1025 H 0.864 0.18135 0.97357 0.0
H1026 H 0.86271 0.21492 0.88568 0.0
H1027 H 0.87597 0.26084 0.82373 0.0
H1028 H 0.92058 0.33229 0.88347 0.0
H1029 H 0.92251 0.29819 0.97154 0.0
C1030 C 0.90069 0.24076 0.9993 0.0
C1031 C 0.88784 0.212 0.00846 0.0
C1032 C 0.89972 0.26074 0.94928 0.0
C1033 C 0.87396 0.20352 0.96748 0.0
C1034 C 0.87328 0.22255 0.91713 0.0
C1035 C 0.88574 0.26966 0.85656 0.0
C1036 C 0.89797 0.29923 0.84742 0.0
C1037 C 0.88617 0.25098 0.9075 0.0
C1038 C 0.91109 0.30943 0.88956 0.0
C1039 C 0.91211 0.29009 0.93991 0.0
H1040 H 0.6026 0.78513 0.47779 0.0
H1041 H 0.653 0.73752 0.55516 0.0
H1042 H 0.65597 0.69486 0.47722 0.0
H1043 H 0.64451 0.67207 0.38567 0.0
H1044 H 0.59643 0.72509 0.30443 0.0
H1045 H 0.59209 0.76429 0.38533 0.0
C1046 C 0.61409 0.76513 0.4778 0.0
C1047 C 0.62743 0.76411 0.52215 0.0
C1048 C 0.61609 0.74163 0.43216 0.0
C1049 C 0.64253 0.73865 0.5213 0.0
C1050 C 0.64424 0.71433 0.47682 0.0
C1051 C 0.63312 0.69226 0.38588 0.0
C1052 C 0.62046 0.69497 0.33996 0.0
C1053 C 0.63118 0.71576 0.43175 0.0
C1054 C 0.6059 0.72151 0.34022 0.0
C1055 C 0.60353 0.74424 0.38621 0.0
H1056 H 0.60083 0.69223 0.98101 0.0
H1057 H 0.65088 0.74204 0.05626 0.0
H1058 H 0.65298 0.7845 0.97788 0.0
H1059 H 0.64126 0.80579 0.8859 0.0
H1060 H 0.59369 0.75062 0.8063 0.0
H1061 H 0.58973 0.71235 0.88851 0.0
C1062 C 0.61202 0.71273 0.98052 0.0
C1063 C 0.62556 0.71434 0.02432 0.0
C1064 C 0.61357 0.73607 0.93449 0.0
C1065 C 0.64027 0.74045 0.02284 0.0
C1066 C 0.64149 0.76464 0.97808 0.0
C1067 C 0.63006 0.78535 0.88672 0.0
C1068 C 0.6175 0.78164 0.84075 0.0
C1069 C 0.62837 0.76239 0.93329 0.0
C1070 C 0.60311 0.7549 0.84199 0.0
C1071 C 0.60096 0.73271 0.88875 0.0
H1072 H 0.9138 0.18042 0.37719 0.0
H1073 H 0.86138 0.22925 0.3137 0.0
H1074 H 0.85872 0.2661 0.39766 0.0
H1075 H 0.87204 0.28696 0.48644 0.0
H1076 H 0.92667 0.24494 0.54557 0.0
H1077 H 0.92797 0.20335 0.46561 0.0
C1078 C 0.90186 0.19924 0.38182 0.0
C1079 C 0.88758 0.20151 0.33988 0.0
C1080 C 0.90092 0.22174 0.42916 0.0
C1081 C 0.8722 0.22603 0.34622 0.0
C1082 C 0.87078 0.24748 0.39393 0.0
C1083 C 0.88414 0.26841 0.48216 0.0
C1084 C 0.89914 0.26866 0.52188 0.0
C1085 C 0.8851 0.24572 0.43541 0.0
C1086 C 0.91493 0.24508 0.51535 0.0
C1087 C 0.91568 0.22138 0.46974 0.0
H1088 H 0.64396 0.2256 0.18091 0.0
H1089 H 0.6001 0.15306 0.11993 0.0
H1090 H 0.59798 0.18744 0.03209 0.0
H1091 H 0.60931 0.23808 0.97206 0.0
H1092 H 0.656 0.30513 0.03151 0.0
H1093 H 0.65676 0.27229 0.11996 0.0
C1094 C 0.63427 0.21669 0.14794 0.0
C1095 C 0.62237 0.18664 0.15661 0.0
C1096 C 0.63371 0.2356 0.0972 0.0
C1097 C 0.60936 0.17629 0.11423 0.0
C1098 C 0.60822 0.19581 0.06399 0.0
C1099 C 0.61962 0.2453 0.00451 0.0
C1100 C 0.63256 0.27392 0.99552 0.0
C1101 C 0.62038 0.22554 0.05493 0.0
C1102 C 0.64599 0.28299 0.03746 0.0
C1103 C 0.6464 0.26436 0.08809 0.0
H1104 H 0.90953 0.74624 0.47316 0.0
H1105 H 0.86332 0.67775 0.53233 0.0
H1106 H 0.86172 0.71136 0.62002 0.0
H1107 H 0.87395 0.75881 0.68081 0.0
H1108 H 0.91758 0.83198 0.61996 0.0
H1109 H 0.92014 0.79743 0.53236 0.0
C1110 C 0.89911 0.73886 0.50531 0.0
C1111 C 0.8866 0.70956 0.49652 0.0
C1112 C 0.89793 0.7589 0.55527 0.0
C1113 C 0.87301 0.70036 0.53808 0.0
C1114 C 0.87214 0.71943 0.58831 0.0
C1115 C 0.8837 0.76772 0.64787 0.0
C1116 C 0.8954 0.79804 0.65634 0.0
C1117 C 0.88454 0.74863 0.59734 0.0
C1118 C 0.90845 0.8086 0.61415 0.0
C1119 C 0.90985 0.78896 0.56414 0.0
H1120 H 0.38084 0.31137 0.03105 0.0
H1121 H 0.42064 0.24442 0.93837 0.0
H1122 H 0.42135 0.20089 0.01603 0.0
H1123 H 0.40977 0.18161 0.1099 0.0
H1124 H 0.37324 0.25325 0.20572 0.0
H1125 H 0.37195 0.29526 0.12724 0.0
C1126 C 0.38964 0.28719 0.02806 0.0
C1127 C 0.40046 0.28058 0.97937 0.0
C1128 C 0.39044 0.26319 0.07324 0.0
C1129 C 0.41216 0.24973 0.97582 0.0
C1130 C 0.41253 0.22494 0.02002 0.0
C1131 C 0.40169 0.20658 0.11347 0.0
C1132 C 0.39113 0.21391 0.16261 0.0
C1133 C 0.40164 0.23134 0.06889 0.0
C1134 C 0.38092 0.24652 0.16742 0.0
C1135 C 0.3803 0.27067 0.12281 0.0
H1136 H 0.14669 0.81365 0.61485 0.0
H1137 H 0.09929 0.75998 0.69814 0.0
H1138 H 0.09505 0.72037 0.61768 0.0
H1139 H 0.10532 0.69967 0.52464 0.0
H1140 H 0.15512 0.74797 0.44537 0.0
H1141 H 0.15811 0.79068 0.5232 0.0
C1142 C 0.13549 0.7932 0.61523 0.0
C1143 C 0.12296 0.79046 0.66158 0.0
C1144 C 0.13362 0.76947 0.56961 0.0
C1145 C 0.10864 0.76357 0.66203 0.0
C1146 C 0.10633 0.74062 0.61629 0.0
C1147 C 0.1167 0.71979 0.52426 0.0
C1148 C 0.12984 0.72105 0.47931 0.0
C1149 C 0.11871 0.74334 0.56986 0.0
C1150 C 0.14481 0.74666 0.47967 0.0
C1151 C 0.14653 0.77102 0.52409 0.0
H1152 H 0.40192 0.82305 0.88107 0.0
H1153 H 0.35736 0.76171 0.79798 0.0
H1154 H 0.35423 0.72283 0.87984 0.0
H1155 H 0.36555 0.70376 0.9724 0.0
H1156 H 0.41295 0.75982 0.05132 0.0
H1157 H 0.41382 0.803 0.97364 0.0
C1158 C 0.39151 0.80121 0.88119 0.0
C1159 C 0.37958 0.79574 0.83422 0.0
C1160 C 0.39044 0.77784 0.9274 0.0
C1161 C 0.36625 0.76721 0.83441 0.0
C1162 C 0.36461 0.74468 0.88093 0.0
C1163 C 0.37591 0.7257 0.97286 0.0
C1164 C 0.38908 0.72883 0.01744 0.0
C1165 C 0.37676 0.74952 0.92737 0.0
C1166 C 0.40268 0.75694 0.01722 0.0
C1167 C 0.40318 0.78158 0.97291 0.0
H1168 H 0.14531 0.18065 0.37659 0.0
H1169 H 0.09165 0.226 0.31614 0.0
H1170 H 0.08866 0.26217 0.40128 0.0
H1171 H 0.10287 0.2851 0.48864 0.0
H1172 H 0.15817 0.24403 0.54462 0.0
H1173 H 0.15906 0.20225 0.46551 0.0
C1174 C 0.13293 0.19833 0.38239 0.0
C1175 C 0.11864 0.20042 0.34057 0.0
C1176 C 0.13171 0.22008 0.43039 0.0
C1177 C 0.10262 0.2233 0.34837 0.0
C1178 C 0.10101 0.2443 0.39676 0.0
C1179 C 0.11496 0.2666 0.484 0.0
C1180 C 0.13044 0.26768 0.52232 0.0
C1181 C 0.11566 0.24341 0.43754 0.0
C1182 C 0.14612 0.24383 0.51546 0.0
C1183 C 0.14665 0.21996 0.47024 0.0
loop_
_geom_bond_atom_site_label_1
_geom_bond_atom_site_label_2
_geom_bond_distance
_geom_bond_site_symmetry_2
_ccdc_geom_bond_type
Co0 O3 1.970 . S
Co0 N17 1.989 . S
Co0 O25 1.967 . S
Co0 O32 1.920 . S
Co1 O4 1.966 . S
Co1 N10 2.022 . S
Co1 N18 1.993 . S
Co1 O26 1.941 . S
C2 O3 1.258 . S
C2 O4 1.263 . S
O3 Co0 1.970 . S
O3 C2 1.258 . S
O4 Co1 1.966 . S
O4 C2 1.263 . S
C5 O6 1.235 . S
C5 O32 1.289 . S
O6 C5 1.235 . S
C7 C9 1.400 . S
C7 N10 1.351 . S
C7 C12 1.501 . S
C8 C9 1.387 . S
C8 N11 1.341 . S
C9 C7 1.400 . S
C9 C8 1.387 . S
N10 Co1 2.022 . S
N10 C7 1.351 . S
N10 N11 1.365 . S
N11 C8 1.341 . S
N11 N10 1.365 . S
N11 H31 0.862 . S
C12 C7 1.501 . S
C12 H13 0.961 . S
C12 H14 0.961 . S
C12 H15 0.960 . S
H13 C12 0.961 . S
H14 C12 0.961 . S
H15 C12 0.960 . S
C16 N17 1.342 . S
C16 C20 1.401 . S
C16 C21 1.499 . S
N17 Co0 1.989 . S
N17 C16 1.342 . S
N17 N18 1.388 . S
N18 Co1 1.993 . S
N18 N17 1.388 . S
N18 C19 1.346 . S
C19 N18 1.346 . S
C19 C20 1.396 . S
C19 C29 1.510 . S
C20 C16 1.401 . S
C20 C19 1.396 . S
C21 C16 1.499 . S
C21 H22 0.959 . S
C21 H23 0.960 . S
C21 H24 0.961 . S
H22 C21 0.959 . S
H23 C21 0.960 . S
H24 C21 0.961 . S
O25 Co0 1.967 . S
O25 C33 1.258 . S
O26 Co1 1.941 . S
O26 C33 1.266 . S
H27 C29 0.959 . S
H28 C29 0.961 . S
C29 C19 1.510 . S
C29 H27 0.959 . S
C29 H28 0.961 . S
C29 H30 0.960 . S
H30 C29 0.960 . S
H31 N11 0.862 . S
O32 Co0 1.920 . S
O32 C5 1.289 . S
C33 O25 1.258 . S
C33 O26 1.266 . S
Co34 O37 1.970 . S
Co34 N51 1.989 . S
Co34 O59 1.967 . S
Co34 O66 1.920 . S
Co35 O38 1.966 . S
Co35 N44 2.022 . S
Co35 N52 1.993 . S
Co35 O60 1.941 . S
C36 O37 1.258 . S
C36 O38 1.263 . S
O37 Co34 1.970 . S
O37 C36 1.258 . S
O38 Co35 1.966 . S
O38 C36 1.263 . S
C39 O40 1.235 . S
C39 O66 1.289 . S
O40 C39 1.235 . S
C41 C43 1.400 . S
C41 N44 1.351 . S
C41 C46 1.501 . S
C42 C43 1.387 . S
C42 N45 1.341 . S
C43 C41 1.400 . S
C43 C42 1.387 . S
N44 Co35 2.022 . S
N44 C41 1.351 . S
N44 N45 1.365 . S
N45 C42 1.341 . S
N45 N44 1.365 . S
N45 H65 0.862 . S
C46 C41 1.501 . S
C46 H47 0.961 . S
C46 H48 0.961 . S
C46 H49 0.960 . S
H47 C46 0.961 . S
H48 C46 0.961 . S
H49 C46 0.960 . S
C50 N51 1.342 . S
C50 C54 1.401 . S
C50 C55 1.499 . S
N51 Co34 1.989 . S
N51 C50 1.342 . S
N51 N52 1.388 . S
N52 Co35 1.993 . S
N52 N51 1.388 . S
N52 C53 1.346 . S
C53 N52 1.346 . S
C53 C54 1.396 . S
C53 C63 1.510 . S
C54 C50 1.401 . S
C54 C53 1.396 . S
C55 C50 1.499 . S
C55 H56 0.959 . S
C55 H57 0.960 . S
C55 H58 0.961 . S
H56 C55 0.959 . S
H57 C55 0.960 . S
H58 C55 0.961 . S
O59 Co34 1.967 . S
O59 C67 1.258 . S
O60 Co35 1.941 . S
O60 C67 1.266 . S
H61 C63 0.959 . S
H62 C63 0.961 . S
C63 C53 1.510 . S
C63 H61 0.959 . S
C63 H62 0.961 . S
C63 H64 0.960 . S
H64 C63 0.960 . S
H65 N45 0.862 . S
O66 Co34 1.920 . S
O66 C39 1.289 . S
C67 O59 1.258 . S
C67 O60 1.266 . S
Co68 O71 1.970 . S
Co68 N85 1.989 . S
Co68 O93 1.967 . S
Co68 O100 1.920 . S
Co69 O72 1.966 . S
Co69 N78 2.022 . S
Co69 N86 1.993 . S
Co69 O94 1.941 . S
C70 O71 1.258 . S
C70 O72 1.263 . S
O71 Co68 1.970 . S
O71 C70 1.258 . S
O72 Co69 1.966 . S
O72 C70 1.263 . S
C73 O74 1.235 . S
C73 O100 1.289 . S
O74 C73 1.235 . S
C75 C77 1.400 . S
C75 N78 1.351 . S
C75 C80 1.501 . S
C76 C77 1.387 . S
C76 N79 1.341 . S
C77 C75 1.400 . S
C77 C76 1.387 . S
N78 Co69 2.022 . S
N78 C75 1.351 . S
N78 N79 1.365 . S
N79 C76 1.341 . S
N79 N78 1.365 . S
N79 H99 0.862 . S
C80 C75 1.501 . S
C80 H81 0.961 . S
C80 H82 0.961 . S
C80 H83 0.960 . S
H81 C80 0.961 . S
H82 C80 0.961 . S
H83 C80 0.960 . S
C84 N85 1.342 . S
C84 C88 1.401 . S
C84 C89 1.499 . S
N85 Co68 1.989 . S
N85 C84 1.342 . S
N85 N86 1.388 . S
N86 Co69 1.993 . S
N86 N85 1.388 . S
N86 C87 1.346 . S
C87 N86 1.346 . S
C87 C88 1.396 . S
C87 C97 1.510 . S
C88 C84 1.401 . S
C88 C87 1.396 . S
C89 C84 1.499 . S
C89 H90 0.959 . S
C89 H91 0.960 . S
C89 H92 0.961 . S
H90 C89 0.959 . S
H91 C89 0.960 . S
H92 C89 0.961 . S
O93 Co68 1.967 . S
O93 C101 1.258 . S
O94 Co69 1.941 . S
O94 C101 1.266 . S
H95 C97 0.959 . S
H96 C97 0.961 . S
C97 C87 1.510 . S
C97 H95 0.959 . S
C97 H96 0.961 . S
C97 H98 0.960 . S
H98 C97 0.960 . S
H99 N79 0.862 . S
O100 Co68 1.920 . S
O100 C73 1.289 . S
C101 O93 1.258 . S
C101 O94 1.266 . S
Co102 O105 1.970 . S
Co102 N119 1.989 . S
Co102 O127 1.967 . S
Co102 O134 1.920 . S
Co103 O106 1.966 . S
Co103 N112 2.022 . S
Co103 N120 1.993 . S
Co103 O128 1.941 . S
C104 O105 1.258 . S
C104 O106 1.263 . S
O105 Co102 1.970 . S
O105 C104 1.258 . S
O106 Co103 1.966 . S
O106 C104 1.263 . S
C107 O108 1.235 . S
C107 O134 1.289 . S
O108 C107 1.235 . S
C109 C111 1.400 . S
C109 N112 1.351 . S
C109 C114 1.501 . S
C110 C111 1.387 . S
C110 N113 1.341 . S
C111 C109 1.400 . S
C111 C110 1.387 . S
N112 Co103 2.022 . S
N112 C109 1.351 . S
N112 N113 1.365 . S
N113 C110 1.341 . S
N113 N112 1.365 . S
N113 H133 0.862 . S
C114 C109 1.501 . S
C114 H115 0.961 . S
C114 H116 0.961 . S
C114 H117 0.960 . S
H115 C114 0.961 . S
H116 C114 0.961 . S
H117 C114 0.960 . S
C118 N119 1.342 . S
C118 C122 1.401 . S
C118 C123 1.499 . S
N119 Co102 1.989 . S
N119 C118 1.342 . S
N119 N120 1.388 . S
N120 Co103 1.993 . S
N120 N119 1.388 . S
N120 C121 1.346 . S
C121 N120 1.346 . S
C121 C122 1.396 . S
C121 C131 1.510 . S
C122 C118 1.401 . S
C122 C121 1.396 . S
C123 C118 1.499 . S
C123 H124 0.959 . S
C123 H125 0.960 . S
C123 H126 0.961 . S
H124 C123 0.959 . S
H125 C123 0.960 . S
H126 C123 0.961 . S
O127 Co102 1.967 . S
O127 C135 1.258 . S
O128 Co103 1.941 . S
O128 C135 1.266 . S
H129 C131 0.959 . S
H130 C131 0.961 . S
C131 C121 1.510 . S
C131 H129 0.959 . S
C131 H130 0.961 . S
C131 H132 0.960 . S
H132 C131 0.960 . S
H133 N113 0.862 . S
O134 Co102 1.920 . S
O134 C107 1.289 . S
C135 O127 1.258 . S
C135 O128 1.266 . S
Co136 O139 1.970 . S
Co136 N153 1.989 . S
Co136 O161 1.967 . S
Co136 O168 1.920 . S
Co137 O140 1.966 . S
Co137 N146 2.022 . S
Co137 N154 1.993 . S
Co137 O162 1.941 . S
C138 O139 1.258 . S
C138 O140 1.263 . S
O139 Co136 1.970 . S
O139 C138 1.258 . S
O140 Co137 1.966 . S
O140 C138 1.263 . S
C141 O142 1.235 . S
C141 O168 1.289 . S
O142 C141 1.235 . S
C143 C145 1.400 . S
C143 N146 1.351 . S
C143 C148 1.501 . S
C144 C145 1.387 . S
C144 N147 1.341 . S
C145 C143 1.400 . S
C145 C144 1.387 . S
N146 Co137 2.022 . S
N146 C143 1.351 . S
N146 N147 1.365 . S
N147 C144 1.341 . S
N147 N146 1.365 . S
N147 H167 0.862 . S
C148 C143 1.501 . S
C148 H149 0.961 . S
C148 H150 0.961 . S
C148 H151 0.960 . S
H149 C148 0.961 . S
H150 C148 0.961 . S
H151 C148 0.960 . S
C152 N153 1.342 . S
C152 C156 1.401 . S
C152 C157 1.499 . S
N153 Co136 1.989 . S
N153 C152 1.342 . S
N153 N154 1.388 . S
N154 Co137 1.993 . S
N154 N153 1.388 . S
N154 C155 1.346 . S
C155 N154 1.346 . S
C155 C156 1.396 . S
C155 C165 1.510 . S
C156 C152 1.401 . S
C156 C155 1.396 . S
C157 C152 1.499 . S
C157 H158 0.959 . S
C157 H159 0.960 . S
C157 H160 0.961 . S
H158 C157 0.959 . S
H159 C157 0.960 . S
H160 C157 0.961 . S
O161 Co136 1.967 . S
O161 C169 1.258 . S
O162 Co137 1.941 . S
O162 C169 1.266 . S
H163 C165 0.959 . S
H164 C165 0.961 . S
C165 C155 1.510 . S
C165 H163 0.959 . S
C165 H164 0.961 . S
C165 H166 0.960 . S
H166 C165 0.960 . S
H167 N147 0.862 . S
O168 Co136 1.920 . S
O168 C141 1.289 . S
C169 O161 1.258 . S
C169 O162 1.266 . S
Co170 O173 1.970 . S
Co170 N187 1.989 . S
Co170 O195 1.967 . S
Co170 O202 1.920 . S
Co171 O174 1.966 . S
Co171 N180 2.022 . S
Co171 N188 1.993 . S
Co171 O196 1.941 . S
C172 O173 1.258 . S
C172 O174 1.263 . S
O173 Co170 1.970 . S
O173 C172 1.258 . S
O174 Co171 1.966 . S
O174 C172 1.263 . S
C175 O176 1.235 . S
C175 O202 1.289 . S
O176 C175 1.235 . S
C177 C179 1.400 . S
C177 N180 1.351 . S
C177 C182 1.501 . S
C178 C179 1.387 . S
C178 N181 1.341 . S
C179 C177 1.400 . S
C179 C178 1.387 . S
N180 Co171 2.022 . S
N180 C177 1.351 . S
N180 N181 1.365 . S
N181 C178 1.341 . S
N181 N180 1.365 . S
N181 H201 0.862 . S
C182 C177 1.501 . S
C182 H183 0.961 . S
C182 H184 0.961 . S
C182 H185 0.960 . S
H183 C182 0.961 . S
H184 C182 0.961 . S
H185 C182 0.960 . S
C186 N187 1.342 . S
C186 C190 1.401 . S
C186 C191 1.499 . S
N187 Co170 1.989 . S
N187 C186 1.342 . S
N187 N188 1.388 . S
N188 Co171 1.993 . S
N188 N187 1.388 . S
N188 C189 1.346 . S
C189 N188 1.346 . S
C189 C190 1.396 . S
C189 C199 1.510 . S
C190 C186 1.401 . S
C190 C189 1.396 . S
C191 C186 1.499 . S
C191 H192 0.959 . S
C191 H193 0.960 . S
C191 H194 0.961 . S
H192 C191 0.959 . S
H193 C191 0.960 . S
H194 C191 0.961 . S
O195 Co170 1.967 . S
O195 C203 1.258 . S
O196 Co171 1.941 . S
O196 C203 1.266 . S
H197 C199 0.959 . S
H198 C199 0.961 . S
C199 C189 1.510 . S
C199 H197 0.959 . S
C199 H198 0.961 . S
C199 H200 0.960 . S
H200 C199 0.960 . S
H201 N181 0.862 . S
O202 Co170 1.920 . S
O202 C175 1.289 . S
C203 O195 1.258 . S
C203 O196 1.266 . S
Co204 O207 1.970 . S
Co204 N221 1.989 . S
Co204 O229 1.967 . S
Co204 O236 1.920 . S
Co205 O208 1.966 . S
Co205 N214 2.022 . S
Co205 N222 1.993 . S
Co205 O230 1.941 . S
C206 O207 1.258 . S
C206 O208 1.263 . S
O207 Co204 1.970 . S
O207 C206 1.258 . S
O208 Co205 1.966 . S
O208 C206 1.263 . S
C209 O210 1.235 . S
C209 O236 1.289 . S
O210 C209 1.235 . S
C211 C213 1.400 . S
C211 N214 1.351 . S
C211 C216 1.501 . S
C212 C213 1.387 . S
C212 N215 1.341 . S
C213 C211 1.400 . S
C213 C212 1.387 . S
N214 Co205 2.022 . S
N214 C211 1.351 . S
N214 N215 1.365 . S
N215 C212 1.341 . S
N215 N214 1.365 . S
N215 H235 0.862 . S
C216 C211 1.501 . S
C216 H217 0.961 . S
C216 H218 0.961 . S
C216 H219 0.960 . S
H217 C216 0.961 . S
H218 C216 0.961 . S
H219 C216 0.960 . S
C220 N221 1.342 . S
C220 C224 1.401 . S
C220 C225 1.499 . S
N221 Co204 1.989 . S
N221 C220 1.342 . S
N221 N222 1.388 . S
N222 Co205 1.993 . S
N222 N221 1.388 . S
N222 C223 1.346 . S
C223 N222 1.346 . S
C223 C224 1.396 . S
C223 C233 1.510 . S
C224 C220 1.401 . S
C224 C223 1.396 . S
C225 C220 1.499 . S
C225 H226 0.959 . S
C225 H227 0.960 . S
C225 H228 0.961 . S
H226 C225 0.959 . S
H227 C225 0.960 . S
H228 C225 0.961 . S
O229 Co204 1.967 . S
O229 C237 1.258 . S
O230 Co205 1.941 . S
O230 C237 1.266 . S
H231 C233 0.959 . S
H232 C233 0.961 . S
C233 C223 1.510 . S
C233 H231 0.959 . S
C233 H232 0.961 . S
C233 H234 0.960 . S
H234 C233 0.960 . S
H235 N215 0.862 . S
O236 Co204 1.920 . S
O236 C209 1.289 . S
C237 O229 1.258 . S
C237 O230 1.266 . S
Co238 O241 1.970 . S
Co238 N255 1.989 . S
Co238 O263 1.967 . S
Co238 O270 1.920 . S
Co239 O242 1.966 . S
Co239 N248 2.022 . S
Co239 N256 1.993 . S
Co239 O264 1.941 . S
C240 O241 1.258 . S
C240 O242 1.263 . S
O241 Co238 1.970 . S
O241 C240 1.258 . S
O242 Co239 1.966 . S
O242 C240 1.263 . S
C243 O244 1.235 . S
C243 O270 1.289 . S
O244 C243 1.235 . S
C245 C247 1.400 . S
C245 N248 1.351 . S
C245 C250 1.501 . S
C246 C247 1.387 . S
C246 N249 1.341 . S
C247 C245 1.400 . S
C247 C246 1.387 . S
N248 Co239 2.022 . S
N248 C245 1.351 . S
N248 N249 1.365 . S
N249 C246 1.341 . S
N249 N248 1.365 . S
N249 H269 0.862 . S
C250 C245 1.501 . S
C250 H251 0.961 . S
C250 H252 0.961 . S
C250 H253 0.960 . S
H251 C250 0.961 . S
H252 C250 0.961 . S
H253 C250 0.960 . S
C254 N255 1.342 . S
C254 C258 1.401 . S
C254 C259 1.499 . S
N255 Co238 1.989 . S
N255 C254 1.342 . S
N255 N256 1.388 . S
N256 Co239 1.993 . S
N256 N255 1.388 . S
N256 C257 1.346 . S
C257 N256 1.346 . S
C257 C258 1.396 . S
C257 C267 1.510 . S
C258 C254 1.401 . S
C258 C257 1.396 . S
C259 C254 1.499 . S
C259 H260 0.959 . S
C259 H261 0.960 . S
C259 H262 0.961 . S
H260 C259 0.959 . S
H261 C259 0.960 . S
H262 C259 0.961 . S
O263 Co238 1.967 . S
O263 C271 1.258 . S
O264 Co239 1.941 . S
O264 C271 1.266 . S
H265 C267 0.959 . S
H266 C267 0.961 . S
C267 C257 1.510 . S
C267 H265 0.959 . S
C267 H266 0.961 . S
C267 H268 0.960 . S
H268 C267 0.960 . S
H269 N249 0.862 . S
O270 Co238 1.920 . S
O270 C243 1.289 . S
C271 O263 1.258 . S
C271 O264 1.266 . S
Co272 O275 1.970 . S
Co272 N289 1.989 . S
Co272 O297 1.967 . S
Co272 O304 1.920 . S
Co273 O276 1.966 . S
Co273 N282 2.022 . S
Co273 N290 1.993 . S
Co273 O298 1.941 . S
C274 O275 1.258 . S
C274 O276 1.263 . S
O275 Co272 1.970 . S
O275 C274 1.258 . S
O276 Co273 1.966 . S
O276 C274 1.263 . S
C277 O278 1.235 . S
C277 O304 1.289 . S
O278 C277 1.235 . S
C279 C281 1.400 . S
C279 N282 1.351 . S
C279 C284 1.501 . S
C280 C281 1.387 . S
C280 N283 1.341 . S
C281 C279 1.400 . S
C281 C280 1.387 . S
N282 Co273 2.022 . S
N282 C279 1.351 . S
N282 N283 1.365 . S
N283 C280 1.341 . S
N283 N282 1.365 . S
N283 H303 0.862 . S
C284 C279 1.501 . S
C284 H285 0.961 . S
C284 H286 0.961 . S
C284 H287 0.960 . S
H285 C284 0.961 . S
H286 C284 0.961 . S
H287 C284 0.960 . S
C288 N289 1.342 . S
C288 C292 1.401 . S
C288 C293 1.499 . S
N289 Co272 1.989 . S
N289 C288 1.342 . S
N289 N290 1.388 . S
N290 Co273 1.993 . S
N290 N289 1.388 . S
N290 C291 1.346 . S
C291 N290 1.346 . S
C291 C292 1.396 . S
C291 C301 1.510 . S
C292 C288 1.401 . S
C292 C291 1.396 . S
C293 C288 1.499 . S
C293 H294 0.959 . S
C293 H295 0.960 . S
C293 H296 0.961 . S
H294 C293 0.959 . S
H295 C293 0.960 . S
H296 C293 0.961 . S
O297 Co272 1.967 . S
O297 C305 1.258 . S
O298 Co273 1.941 . S
O298 C305 1.266 . S
H299 C301 0.959 . S
H300 C301 0.961 . S
C301 C291 1.510 . S
C301 H299 0.959 . S
C301 H300 0.961 . S
C301 H302 0.960 . S
H302 C301 0.960 . S
H303 N283 0.862 . S
O304 Co272 1.920 . S
O304 C277 1.289 . S
C305 O297 1.258 . S
C305 O298 1.266 . S
Co306 O309 1.970 . S
Co306 N323 1.989 . S
Co306 O331 1.967 . S
Co306 O338 1.920 . S
Co307 O310 1.966 . S
Co307 N316 2.022 . S
Co307 N324 1.993 . S
Co307 O332 1.941 . S
C308 O309 1.258 . S
C308 O310 1.263 . S
O309 Co306 1.970 . S
O309 C308 1.258 . S
O310 Co307 1.966 . S
O310 C308 1.263 . S
C311 O312 1.235 . S
C311 O338 1.289 . S
O312 C311 1.235 . S
C313 C315 1.400 . S
C313 N316 1.351 . S
C313 C318 1.501 . S
C314 C315 1.387 . S
C314 N317 1.341 . S
C315 C313 1.400 . S
C315 C314 1.387 . S
N316 Co307 2.022 . S
N316 C313 1.351 . S
N316 N317 1.365 . S
N317 C314 1.341 . S
N317 N316 1.365 . S
N317 H337 0.862 . S
C318 C313 1.501 . S
C318 H319 0.961 . S
C318 H320 0.961 . S
C318 H321 0.960 . S
H319 C318 0.961 . S
H320 C318 0.961 . S
H321 C318 0.960 . S
C322 N323 1.342 . S
C322 C326 1.401 . S
C322 C327 1.499 . S
N323 Co306 1.989 . S
N323 C322 1.342 . S
N323 N324 1.388 . S
N324 Co307 1.993 . S
N324 N323 1.388 . S
N324 C325 1.346 . S
C325 N324 1.346 . S
C325 C326 1.396 . S
C325 C335 1.510 . S
C326 C322 1.401 . S
C326 C325 1.396 . S
C327 C322 1.499 . S
C327 H328 0.959 . S
C327 H329 0.960 . S
C327 H330 0.961 . S
H328 C327 0.959 . S
H329 C327 0.960 . S
H330 C327 0.961 . S
O331 Co306 1.967 . S
O331 C339 1.258 . S
O332 Co307 1.941 . S
O332 C339 1.266 . S
H333 C335 0.959 . S
H334 C335 0.961 . S
C335 C325 1.510 . S
C335 H333 0.959 . S
C335 H334 0.961 . S
C335 H336 0.960 . S
H336 C335 0.960 . S
H337 N317 0.862 . S
O338 Co306 1.920 . S
O338 C311 1.289 . S
C339 O331 1.258 . S
C339 O332 1.266 . S
Co340 O343 1.970 . S
Co340 N357 1.989 . S
Co340 O365 1.967 . S
Co340 O372 1.920 . S
Co341 O344 1.966 . S
Co341 N350 2.022 . S
Co341 N358 1.993 . S
Co341 O366 1.941 . S
C342 O343 1.258 . S
C342 O344 1.263 . S
O343 Co340 1.970 . S
O343 C342 1.258 . S
O344 Co341 1.966 . S
O344 C342 1.263 . S
C345 O346 1.235 . S
C345 O372 1.289 . S
O346 C345 1.235 . S
C347 C349 1.400 . S
C347 N350 1.351 . S
C347 C352 1.501 . S
C348 C349 1.387 . S
C348 N351 1.341 . S
C349 C347 1.400 . S
C349 C348 1.387 . S
N350 Co341 2.022 . S
N350 C347 1.351 . S
N350 N351 1.365 . S
N351 C348 1.341 . S
N351 N350 1.365 . S
N351 H371 0.862 . S
C352 C347 1.501 . S
C352 H353 0.961 . S
C352 H354 0.961 . S
C352 H355 0.960 . S
H353 C352 0.961 . S
H354 C352 0.961 . S
H355 C352 0.960 . S
C356 N357 1.342 . S
C356 C360 1.401 . S
C356 C361 1.499 . S
N357 Co340 1.989 . S
N357 C356 1.342 . S
N357 N358 1.388 . S
N358 Co341 1.993 . S
N358 N357 1.388 . S
N358 C359 1.346 . S
C359 N358 1.346 . S
C359 C360 1.396 . S
C359 C369 1.510 . S
C360 C356 1.401 . S
C360 C359 1.396 . S
C361 C356 1.499 . S
C361 H362 0.959 . S
C361 H363 0.960 . S
C361 H364 0.961 . S
H362 C361 0.959 . S
H363 C361 0.960 . S
H364 C361 0.961 . S
O365 Co340 1.967 . S
O365 C373 1.258 . S
O366 Co341 1.941 . S
O366 C373 1.266 . S
H367 C369 0.959 . S
H368 C369 0.961 . S
C369 C359 1.510 . S
C369 H367 0.959 . S
C369 H368 0.961 . S
C369 H370 0.960 . S
H370 C369 0.960 . S
H371 N351 0.862 . S
O372 Co340 1.920 . S
O372 C345 1.289 . S
C373 O365 1.258 . S
C373 O366 1.266 . S
Co374 O377 1.970 . S
Co374 N391 1.989 . S
Co374 O399 1.967 . S
Co374 O406 1.920 . S
Co375 O378 1.966 . S
Co375 N384 2.022 . S
Co375 N392 1.993 . S
Co375 O400 1.941 . S
C376 O377 1.258 . S
C376 O378 1.263 . S
O377 Co374 1.970 . S
O377 C376 1.258 . S
O378 Co375 1.966 . S
O378 C376 1.263 . S
C379 O380 1.235 . S
C379 O406 1.289 . S
O380 C379 1.235 . S
C381 C383 1.400 . S
C381 N384 1.351 . S
C381 C386 1.501 . S
C382 C383 1.387 . S
C382 N385 1.341 . S
C383 C381 1.400 . S
C383 C382 1.387 . S
N384 Co375 2.022 . S
N384 C381 1.351 . S
N384 N385 1.365 . S
N385 C382 1.341 . S
N385 N384 1.365 . S
N385 H405 0.862 . S
C386 C381 1.501 . S
C386 H387 0.961 . S
C386 H388 0.961 . S
C386 H389 0.960 . S
H387 C386 0.961 . S
H388 C386 0.961 . S
H389 C386 0.960 . S
C390 N391 1.342 . S
C390 C394 1.401 . S
C390 C395 1.499 . S
N391 Co374 1.989 . S
N391 C390 1.342 . S
N391 N392 1.388 . S
N392 Co375 1.993 . S
N392 N391 1.388 . S
N392 C393 1.346 . S
C393 N392 1.346 . S
C393 C394 1.396 . S
C393 C403 1.510 . S
C394 C390 1.401 . S
C394 C393 1.396 . S
C395 C390 1.499 . S
C395 H396 0.959 . S
C395 H397 0.960 . S
C395 H398 0.961 . S
H396 C395 0.959 . S
H397 C395 0.960 . S
H398 C395 0.961 . S
O399 Co374 1.967 . S
O399 C407 1.258 . S
O400 Co375 1.941 . S
O400 C407 1.266 . S
H401 C403 0.959 . S
H402 C403 0.961 . S
C403 C393 1.510 . S
C403 H401 0.959 . S
C403 H402 0.961 . S
C403 H404 0.960 . S
H404 C403 0.960 . S
H405 N385 0.862 . S
O406 Co374 1.920 . S
O406 C379 1.289 . S
C407 O399 1.258 . S
C407 O400 1.266 . S
Co408 O411 1.970 . S
Co408 N425 1.989 . S
Co408 O433 1.967 . S
Co408 O440 1.920 . S
Co409 O412 1.966 . S
Co409 N418 2.022 . S
Co409 N426 1.993 . S
Co409 O434 1.941 . S
C410 O411 1.258 . S
C410 O412 1.263 . S
O411 Co408 1.970 . S
O411 C410 1.258 . S
O412 Co409 1.966 . S
O412 C410 1.263 . S
C413 O414 1.235 . S
C413 O440 1.289 . S
O414 C413 1.235 . S
C415 C417 1.400 . S
C415 N418 1.351 . S
C415 C420 1.501 . S
C416 C417 1.387 . S
C416 N419 1.341 . S
C417 C415 1.400 . S
C417 C416 1.387 . S
N418 Co409 2.022 . S
N418 C415 1.351 . S
N418 N419 1.365 . S
N419 C416 1.341 . S
N419 N418 1.365 . S
N419 H439 0.862 . S
C420 C415 1.501 . S
C420 H421 0.961 . S
C420 H422 0.961 . S
C420 H423 0.960 . S
H421 C420 0.961 . S
H422 C420 0.961 . S
H423 C420 0.960 . S
C424 N425 1.342 . S
C424 C428 1.401 . S
C424 C429 1.499 . S
N425 Co408 1.989 . S
N425 C424 1.342 . S
N425 N426 1.388 . S
N426 Co409 1.993 . S
N426 N425 1.388 . S
N426 C427 1.346 . S
C427 N426 1.346 . S
C427 C428 1.396 . S
C427 C437 1.510 . S
C428 C424 1.401 . S
C428 C427 1.396 . S
C429 C424 1.499 . S
C429 H430 0.959 . S
C429 H431 0.960 . S
C429 H432 0.961 . S
H430 C429 0.959 . S
H431 C429 0.960 . S
H432 C429 0.961 . S
O433 Co408 1.967 . S
O433 C441 1.258 . S
O434 Co409 1.941 . S
O434 C441 1.266 . S
H435 C437 0.959 . S
H436 C437 0.961 . S
C437 C427 1.510 . S
C437 H435 0.959 . S
C437 H436 0.961 . S
C437 H438 0.960 . S
H438 C437 0.960 . S
H439 N419 0.862 . S
O440 Co408 1.920 . S
O440 C413 1.289 . S
C441 O433 1.258 . S
C441 O434 1.266 . S
Co442 O445 1.970 . S
Co442 N459 1.989 . S
Co442 O467 1.967 . S
Co442 O474 1.920 . S
Co443 O446 1.966 . S
Co443 N452 2.022 . S
Co443 N460 1.993 . S
Co443 O468 1.941 . S
C444 O445 1.258 . S
C444 O446 1.263 . S
O445 Co442 1.970 . S
O445 C444 1.258 . S
O446 Co443 1.966 . S
O446 C444 1.263 . S
C447 O448 1.235 . S
C447 O474 1.289 . S
O448 C447 1.235 . S
C449 C451 1.400 . S
C449 N452 1.351 . S
C449 C454 1.501 . S
C450 C451 1.387 . S
C450 N453 1.341 . S
C451 C449 1.400 . S
C451 C450 1.387 . S
N452 Co443 2.022 . S
N452 C449 1.351 . S
N452 N453 1.365 . S
N453 C450 1.341 . S
N453 N452 1.365 . S
N453 H473 0.862 . S
C454 C449 1.501 . S
C454 H455 0.961 . S
C454 H456 0.961 . S
C454 H457 0.960 . S
H455 C454 0.961 . S
H456 C454 0.961 . S
H457 C454 0.960 . S
C458 N459 1.342 . S
C458 C462 1.401 . S
C458 C463 1.499 . S
N459 Co442 1.989 . S
N459 C458 1.342 . S
N459 N460 1.388 . S
N460 Co443 1.993 . S
N460 N459 1.388 . S
N460 C461 1.346 . S
C461 N460 1.346 . S
C461 C462 1.396 . S
C461 C471 1.510 . S
C462 C458 1.401 . S
C462 C461 1.396 . S
C463 C458 1.499 . S
C463 H464 0.959 . S
C463 H465 0.960 . S
C463 H466 0.961 . S
H464 C463 0.959 . S
H465 C463 0.960 . S
H466 C463 0.961 . S
O467 Co442 1.967 . S
O467 C475 1.258 . S
O468 Co443 1.941 . S
O468 C475 1.266 . S
H469 C471 0.959 . S
H470 C471 0.961 . S
C471 C461 1.510 . S
C471 H469 0.959 . S
C471 H470 0.961 . S
C471 H472 0.960 . S
H472 C471 0.960 . S
H473 N453 0.862 . S
O474 Co442 1.920 . S
O474 C447 1.289 . S
C475 O467 1.258 . S
C475 O468 1.266 . S
Co476 O479 1.970 . S
Co476 N493 1.989 . S
Co476 O501 1.967 . S
Co476 O508 1.920 . S
Co477 O480 1.966 . S
Co477 N486 2.022 . S
Co477 N494 1.993 . S
Co477 O502 1.941 . S
C478 O479 1.258 . S
C478 O480 1.263 . S
O479 Co476 1.970 . S
O479 C478 1.258 . S
O480 Co477 1.966 . S
O480 C478 1.263 . S
C481 O482 1.235 . S
C481 O508 1.289 . S
O482 C481 1.235 . S
C483 C485 1.400 . S
C483 N486 1.351 . S
C483 C488 1.501 . S
C484 C485 1.387 . S
C484 N487 1.341 . S
C485 C483 1.400 . S
C485 C484 1.387 . S
N486 Co477 2.022 . S
N486 C483 1.351 . S
N486 N487 1.365 . S
N487 C484 1.341 . S
N487 N486 1.365 . S
N487 H507 0.862 . S
C488 C483 1.501 . S
C488 H489 0.961 . S
C488 H490 0.961 . S
C488 H491 0.960 . S
H489 C488 0.961 . S
H490 C488 0.961 . S
H491 C488 0.960 . S
C492 N493 1.342 . S
C492 C496 1.401 . S
C492 C497 1.499 . S
N493 Co476 1.989 . S
N493 C492 1.342 . S
N493 N494 1.388 . S
N494 Co477 1.993 . S
N494 N493 1.388 . S
N494 C495 1.346 . S
C495 N494 1.346 . S
C495 C496 1.396 . S
C495 C505 1.510 . S
C496 C492 1.401 . S
C496 C495 1.396 . S
C497 C492 1.499 . S
C497 H498 0.959 . S
C497 H499 0.960 . S
C497 H500 0.961 . S
H498 C497 0.959 . S
H499 C497 0.960 . S
H500 C497 0.961 . S
O501 Co476 1.967 . S
O501 C509 1.258 . S
O502 Co477 1.941 . S
O502 C509 1.266 . S
H503 C505 0.959 . S
H504 C505 0.961 . S
C505 C495 1.510 . S
C505 H503 0.959 . S
C505 H504 0.961 . S
C505 H506 0.960 . S
H506 C505 0.960 . S
H507 N487 0.862 . S
O508 Co476 1.920 . S
O508 C481 1.289 . S
C509 O501 1.258 . S
C509 O502 1.266 . S
Co510 O513 1.970 . S
Co510 N527 1.989 . S
Co510 O535 1.967 . S
Co510 O542 1.920 . S
Co511 O514 1.966 . S
Co511 N520 2.022 . S
Co511 N528 1.993 . S
Co511 O536 1.941 . S
C512 O513 1.258 . S
C512 O514 1.263 . S
O513 Co510 1.970 . S
O513 C512 1.258 . S
O514 Co511 1.966 . S
O514 C512 1.263 . S
C515 O516 1.235 . S
C515 O542 1.289 . S
O516 C515 1.235 . S
C517 C519 1.400 . S
C517 N520 1.351 . S
C517 C522 1.501 . S
C518 C519 1.387 . S
C518 N521 1.341 . S
C519 C517 1.400 . S
C519 C518 1.387 . S
N520 Co511 2.022 . S
N520 C517 1.351 . S
N520 N521 1.365 . S
N521 C518 1.341 . S
N521 N520 1.365 . S
N521 H541 0.862 . S
C522 C517 1.501 . S
C522 H523 0.961 . S
C522 H524 0.961 . S
C522 H525 0.960 . S
H523 C522 0.961 . S
H524 C522 0.961 . S
H525 C522 0.960 . S
C526 N527 1.342 . S
C526 C530 1.401 . S
C526 C531 1.499 . S
N527 Co510 1.989 . S
N527 C526 1.342 . S
N527 N528 1.388 . S
N528 Co511 1.993 . S
N528 N527 1.388 . S
N528 C529 1.346 . S
C529 N528 1.346 . S
C529 C530 1.396 . S
C529 C539 1.510 . S
C530 C526 1.401 . S
C530 C529 1.396 . S
C531 C526 1.499 . S
C531 H532 0.959 . S
C531 H533 0.960 . S
C531 H534 0.961 . S
H532 C531 0.959 . S
H533 C531 0.960 . S
H534 C531 0.961 . S
O535 Co510 1.967 . S
O535 C543 1.258 . S
O536 Co511 1.941 . S
O536 C543 1.266 . S
H537 C539 0.959 . S
H538 C539 0.961 . S
C539 C529 1.510 . S
C539 H537 0.959 . S
C539 H538 0.961 . S
C539 H540 0.960 . S
H540 C539 0.960 . S
H541 N521 0.862 . S
O542 Co510 1.920 . S
O542 C515 1.289 . S
C543 O535 1.258 . S
C543 O536 1.266 . S
H544 C550 0.930 . S
H545 C553 0.930 . S
H546 C554 0.930 . S
H547 C555 0.930 . S
H548 C558 0.930 . S
H549 C559 0.930 . S
C550 H544 0.930 . S
C550 C551 1.355 . S
C550 C552 1.415 . S
C551 C550 1.355 . S
C551 C553 1.419 . S
C552 C550 1.415 . S
C552 C557 1.425 . S
C552 C559 1.409 . S
C553 H545 0.930 . S
C553 C551 1.419 . S
C553 C554 1.362 . S
C554 H546 0.930 . S
C554 C553 1.362 . S
C554 C557 1.409 . S
C555 H547 0.930 . S
C555 C556 1.355 . S
C555 C557 1.415 . S
C556 C555 1.355 . S
C556 C558 1.419 . S
C557 C552 1.425 . S
C557 C554 1.409 . S
C557 C555 1.415 . S
C558 H548 0.930 . S
C558 C556 1.419 . S
C558 C559 1.362 . S
C559 H549 0.930 . S
C559 C552 1.409 . S
C559 C558 1.362 . S
H560 C566 0.930 . S
H561 C569 0.930 . S
H562 C570 0.930 . S
H563 C571 0.930 . S
H564 C574 0.930 . S
H565 C575 0.930 . S
C566 H560 0.930 . S
C566 C567 1.355 . S
C566 C568 1.415 . S
C567 C566 1.355 . S
C567 C569 1.419 . S
C568 C566 1.415 . S
C568 C573 1.425 . S
C568 C575 1.409 . S
C569 H561 0.930 . S
C569 C567 1.419 . S
C569 C570 1.362 . S
C570 H562 0.930 . S
C570 C569 1.362 . S
C570 C573 1.409 . S
C571 H563 0.930 . S
C571 C572 1.355 . S
C571 C573 1.415 . S
C572 C571 1.355 . S
C572 C574 1.419 . S
C573 C568 1.425 . S
C573 C570 1.409 . S
C573 C571 1.415 . S
C574 H564 0.930 . S
C574 C572 1.419 . S
C574 C575 1.362 . S
C575 H565 0.930 . S
C575 C568 1.409 . S
C575 C574 1.362 . S
H576 C582 0.930 . S
H577 C585 0.930 . S
H578 C586 0.930 . S
H579 C587 0.930 . S
H580 C590 0.930 . S
H581 C591 0.930 . S
C582 H576 0.930 . S
C582 C583 1.355 . S
C582 C584 1.415 . S
C583 C582 1.355 . S
C583 C585 1.419 . S
C584 C582 1.415 . S
C584 C589 1.425 . S
C584 C591 1.409 . S
C585 H577 0.930 . S
C585 C583 1.419 . S
C585 C586 1.362 . S
C586 H578 0.930 . S
C586 C585 1.362 . S
C586 C589 1.409 . S
C587 H579 0.930 . S
C587 C588 1.355 . S
C587 C589 1.415 . S
C588 C587 1.355 . S
C588 C590 1.419 . S
C589 C584 1.425 . S
C589 C586 1.409 . S
C589 C587 1.415 . S
C590 H580 0.930 . S
C590 C588 1.419 . S
C590 C591 1.362 . S
C591 H581 0.930 . S
C591 C584 1.409 . S
C591 C590 1.362 . S
H592 C598 0.930 . S
H593 C601 0.930 . S
H594 C602 0.930 . S
H595 C603 0.930 . S
H596 C606 0.930 . S
H597 C607 0.930 . S
C598 H592 0.930 . S
C598 C599 1.355 . S
C598 C600 1.415 . S
C599 C598 1.355 . S
C599 C601 1.419 . S
C600 C598 1.415 . S
C600 C605 1.425 . S
C600 C607 1.409 . S
C601 H593 0.930 . S
C601 C599 1.419 . S
C601 C602 1.362 . S
C602 H594 0.930 . S
C602 C601 1.362 . S
C602 C605 1.409 . S
C603 H595 0.930 . S
C603 C604 1.355 . S
C603 C605 1.415 . S
C604 C603 1.355 . S
C604 C606 1.419 . S
C605 C600 1.425 . S
C605 C602 1.409 . S
C605 C603 1.415 . S
C606 H596 0.930 . S
C606 C604 1.419 . S
C606 C607 1.362 . S
C607 H597 0.930 . S
C607 C600 1.409 . S
C607 C606 1.362 . S
H608 C614 0.930 . S
H609 C617 0.930 . S
H610 C618 0.930 . S
H611 C619 0.930 . S
H612 C622 0.930 . S
H613 C623 0.930 . S
C614 H608 0.930 . S
C614 C615 1.355 . S
C614 C616 1.415 . S
C615 C614 1.355 . S
C615 C617 1.419 . S
C616 C614 1.415 . S
C616 C621 1.425 . S
C616 C623 1.409 . S
C617 H609 0.930 . S
C617 C615 1.419 . S
C617 C618 1.362 . S
C618 H610 0.930 . S
C618 C617 1.362 . S
C618 C621 1.409 . S
C619 H611 0.930 . S
C619 C620 1.355 . S
C619 C621 1.415 . S
C620 C619 1.355 . S
C620 C622 1.419 . S
C621 C616 1.425 . S
C621 C618 1.409 . S
C621 C619 1.415 . S
C622 H612 0.930 . S
C622 C620 1.419 . S
C622 C623 1.362 . S
C623 H613 0.930 . S
C623 C616 1.409 . S
C623 C622 1.362 . S
H624 C630 0.930 . S
H625 C633 0.930 . S
H626 C634 0.930 . S
H627 C635 0.930 . S
H628 C638 0.930 . S
H629 C639 0.930 . S
C630 H624 0.930 . S
C630 C631 1.355 . S
C630 C632 1.415 . S
C631 C630 1.355 . S
C631 C633 1.419 . S
C632 C630 1.415 . S
C632 C637 1.425 . S
C632 C639 1.409 . S
C633 H625 0.930 . S
C633 C631 1.419 . S
C633 C634 1.362 . S
C634 H626 0.930 . S
C634 C633 1.362 . S
C634 C637 1.409 . S
C635 H627 0.930 . S
C635 C636 1.355 . S
C635 C637 1.415 . S
C636 C635 1.355 . S
C636 C638 1.419 . S
C637 C632 1.425 . S
C637 C634 1.409 . S
C637 C635 1.415 . S
C638 H628 0.930 . S
C638 C636 1.419 . S
C638 C639 1.362 . S
C639 H629 0.930 . S
C639 C632 1.409 . S
C639 C638 1.362 . S
H640 C646 0.930 . S
H641 C649 0.930 . S
H642 C650 0.930 . S
H643 C651 0.930 . S
H644 C654 0.930 . S
H645 C655 0.930 . S
C646 H640 0.930 . S
C646 C647 1.355 . S
C646 C648 1.415 . S
C647 C646 1.355 . S
C647 C649 1.419 . S
C648 C646 1.415 . S
C648 C653 1.425 . S
C648 C655 1.409 . S
C649 H641 0.930 . S
C649 C647 1.419 . S
C649 C650 1.362 . S
C650 H642 0.930 . S
C650 C649 1.362 . S
C650 C653 1.409 . S
C651 H643 0.930 . S
C651 C652 1.355 . S
C651 C653 1.415 . S
C652 C651 1.355 . S
C652 C654 1.419 . S
C653 C648 1.425 . S
C653 C650 1.409 . S
C653 C651 1.415 . S
C654 H644 0.930 . S
C654 C652 1.419 . S
C654 C655 1.362 . S
C655 H645 0.930 . S
C655 C648 1.409 . S
C655 C654 1.362 . S
H656 C662 0.930 . S
H657 C665 0.930 . S
H658 C666 0.930 . S
H659 C667 0.930 . S
H660 C670 0.930 . S
H661 C671 0.930 . S
C662 H656 0.930 . S
C662 C663 1.355 . S
C662 C664 1.415 . S
C663 C662 1.355 . S
C663 C665 1.419 . S
C664 C662 1.415 . S
C664 C669 1.425 . S
C664 C671 1.409 . S
C665 H657 0.930 . S
C665 C663 1.419 . S
C665 C666 1.362 . S
C666 H658 0.930 . S
C666 C665 1.362 . S
C666 C669 1.409 . S
C667 H659 0.930 . S
C667 C668 1.355 . S
C667 C669 1.415 . S
C668 C667 1.355 . S
C668 C670 1.419 . S
C669 C664 1.425 . S
C669 C666 1.409 . S
C669 C667 1.415 . S
C670 H660 0.930 . S
C670 C668 1.419 . S
C670 C671 1.362 . S
C671 H661 0.930 . S
C671 C664 1.409 . S
C671 C670 1.362 . S
H672 C678 0.930 . S
H673 C681 0.930 . S
H674 C682 0.930 . S
H675 C683 0.930 . S
H676 C686 0.930 . S
H677 C687 0.930 . S
C678 H672 0.930 . S
C678 C679 1.355 . S
C678 C680 1.415 . S
C679 C678 1.355 . S
C679 C681 1.419 . S
C680 C678 1.415 . S
C680 C685 1.425 1_655 S
C680 C687 1.409 1_655 S
C681 H673 0.930 . S
C681 C679 1.419 . S
C681 C682 1.362 . S
C682 H674 0.930 . S
C682 C681 1.362 . S
C682 C685 1.409 1_655 S
C683 H675 0.930 . S
C683 C684 1.355 . S
C683 C685 1.415 . S
C684 C683 1.355 . S
C684 C686 1.419 . S
C685 C680 1.425 1_455 S
C685 C682 1.409 1_455 S
C685 C683 1.415 . S
C686 H676 0.930 . S
C686 C684 1.419 . S
C686 C687 1.362 . S
C687 H677 0.930 . S
C687 C680 1.409 1_455 S
C687 C686 1.362 . S
H688 C694 0.930 . S
H689 C697 0.930 . S
H690 C698 0.930 . S
H691 C699 0.930 . S
H692 C702 0.930 . S
H693 C703 0.930 . S
C694 H688 0.930 . S
C694 C695 1.355 . S
C694 C696 1.415 . S
C695 C694 1.355 . S
C695 C697 1.419 . S
C696 C694 1.415 . S
C696 C701 1.425 . S
C696 C703 1.409 . S
C697 H689 0.930 . S
C697 C695 1.419 . S
C697 C698 1.362 . S
C698 H690 0.930 . S
C698 C697 1.362 . S
C698 C701 1.409 . S
C699 H691 0.930 . S
C699 C700 1.355 . S
C699 C701 1.415 . S
C700 C699 1.355 . S
C700 C702 1.419 . S
C701 C696 1.425 . S
C701 C698 1.409 . S
C701 C699 1.415 . S
C702 H692 0.930 . S
C702 C700 1.419 . S
C702 C703 1.362 . S
C703 H693 0.930 . S
C703 C696 1.409 . S
C703 C702 1.362 . S
H704 C710 0.930 . S
H705 C713 0.930 . S
H706 C714 0.930 . S
H707 C715 0.930 . S
H708 C718 0.930 . S
H709 C719 0.930 . S
C710 H704 0.930 . S
C710 C711 1.355 . S
C710 C712 1.415 . S
C711 C710 1.355 . S
C711 C713 1.419 . S
C712 C710 1.415 . S
C712 C717 1.425 1_655 S
C712 C719 1.409 1_655 S
C713 H705 0.930 . S
C713 C711 1.419 . S
C713 C714 1.362 . S
C714 H706 0.930 . S
C714 C713 1.362 . S
C714 C717 1.409 1_655 S
C715 H707 0.930 . S
C715 C716 1.355 . S
C715 C717 1.415 . S
C716 C715 1.355 . S
C716 C718 1.419 . S
C717 C712 1.425 1_455 S
C717 C714 1.409 1_455 S
C717 C715 1.415 . S
C718 H708 0.930 . S
C718 C716 1.419 . S
C718 C719 1.362 . S
C719 H709 0.930 . S
C719 C712 1.409 1_455 S
C719 C718 1.362 . S
H720 C726 0.930 . S
H721 C729 0.930 . S
H722 C730 0.930 . S
H723 C731 0.930 . S
H724 C734 0.930 . S
H725 C735 0.930 . S
C726 H720 0.930 . S
C726 C727 1.355 . S
C726 C728 1.415 . S
C727 C726 1.355 . S
C727 C729 1.419 . S
C728 C726 1.415 . S
C728 C733 1.425 . S
C728 C735 1.409 . S
C729 H721 0.930 . S
C729 C727 1.419 . S
C729 C730 1.362 . S
C730 H722 0.930 . S
C730 C729 1.362 . S
C730 C733 1.409 . S
C731 H723 0.930 . S
C731 C732 1.355 . S
C731 C733 1.415 . S
C732 C731 1.355 . S
C732 C734 1.419 . S
C733 C728 1.425 . S
C733 C730 1.409 . S
C733 C731 1.415 . S
C734 H724 0.930 . S
C734 C732 1.419 . S
C734 C735 1.362 . S
C735 H725 0.930 . S
C735 C728 1.409 . S
C735 C734 1.362 . S
H736 C742 0.930 . S
H737 C745 0.930 . S
H738 C746 0.930 . S
H739 C747 0.930 . S
H740 C750 0.930 . S
H741 C751 0.930 . S
C742 H736 0.930 . S
C742 C743 1.355 . S
C742 C744 1.415 . S
C743 C742 1.355 . S
C743 C745 1.419 . S
C744 C742 1.415 . S
C744 C749 1.425 . S
C744 C751 1.409 . S
C745 H737 0.930 . S
C745 C743 1.419 . S
C745 C746 1.362 . S
C746 H738 0.930 . S
C746 C745 1.362 . S
C746 C749 1.409 . S
C747 H739 0.930 . S
C747 C748 1.355 . S
C747 C749 1.415 . S
C748 C747 1.355 . S
C748 C750 1.419 . S
C749 C744 1.425 . S
C749 C746 1.409 . S
C749 C747 1.415 . S
C750 H740 0.930 . S
C750 C748 1.419 . S
C750 C751 1.362 . S
C751 H741 0.930 . S
C751 C744 1.409 . S
C751 C750 1.362 . S
H752 C758 0.930 . S
H753 C761 0.930 . S
H754 C762 0.930 . S
H755 C763 0.930 . S
H756 C766 0.930 . S
H757 C767 0.930 . S
C758 H752 0.930 . S
C758 C759 1.355 . S
C758 C760 1.415 . S
C759 C758 1.355 . S
C759 C761 1.419 . S
C760 C758 1.415 . S
C760 C765 1.425 1_455 S
C760 C767 1.409 1_455 S
C761 H753 0.930 . S
C761 C759 1.419 . S
C761 C762 1.362 . S
C762 H754 0.930 . S
C762 C761 1.362 . S
C762 C765 1.409 1_455 S
C763 H755 0.930 . S
C763 C764 1.355 . S
C763 C765 1.415 . S
C764 C763 1.355 . S
C764 C766 1.419 . S
C765 C760 1.425 1_655 S
C765 C762 1.409 1_655 S
C765 C763 1.415 . S
C766 H756 0.930 . S
C766 C764 1.419 . S
C766 C767 1.362 . S
C767 H757 0.930 . S
C767 C760 1.409 1_655 S
C767 C766 1.362 . S
H768 C774 0.930 . S
H769 C777 0.930 . S
H770 C778 0.930 . S
H771 C779 0.930 . S
H772 C782 0.930 . S
H773 C783 0.930 . S
C774 H768 0.930 . S
C774 C775 1.355 . S
C774 C776 1.415 . S
C775 C774 1.355 . S
C775 C777 1.419 . S
C776 C774 1.415 . S
C776 C781 1.425 . S
C776 C783 1.409 . S
C777 H769 0.930 . S
C777 C775 1.419 . S
C777 C778 1.362 . S
C778 H770 0.930 . S
C778 C777 1.362 . S
C778 C781 1.409 . S
C779 H771 0.930 . S
C779 C780 1.355 . S
C779 C781 1.415 . S
C780 C779 1.355 . S
C780 C782 1.419 . S
C781 C776 1.425 . S
C781 C778 1.409 . S
C781 C779 1.415 . S
C782 H772 0.930 . S
C782 C780 1.419 . S
C782 C783 1.362 . S
C783 H773 0.930 . S
C783 C776 1.409 . S
C783 C782 1.362 . S
H784 C790 0.930 . S
H785 C793 0.930 . S
H786 C794 0.930 . S
H787 C795 0.930 . S
H788 C798 0.930 . S
H789 C799 0.930 . S
C790 H784 0.930 . S
C790 C791 1.355 . S
C790 C792 1.415 . S
C791 C790 1.355 . S
C791 C793 1.419 . S
C792 C790 1.415 . S
C792 C797 1.425 1_655 S
C792 C799 1.409 1_655 S
C793 H785 0.930 . S
C793 C791 1.419 . S
C793 C794 1.362 . S
C794 H786 0.930 . S
C794 C793 1.362 . S
C794 C797 1.409 1_655 S
C795 H787 0.930 . S
C795 C796 1.355 . S
C795 C797 1.415 . S
C796 C795 1.355 . S
C796 C798 1.419 . S
C797 C792 1.425 1_455 S
C797 C794 1.409 1_455 S
C797 C795 1.415 . S
C798 H788 0.930 . S
C798 C796 1.419 . S
C798 C799 1.362 . S
C799 H789 0.930 . S
C799 C792 1.409 1_455 S
C799 C798 1.362 . S
H800 C806 0.930 . S
H801 C809 0.930 . S
H802 C810 0.930 . S
H803 C811 0.930 . S
H804 C814 0.930 . S
H805 C815 0.930 . S
C806 H800 0.930 . S
C806 C807 1.355 . S
C806 C808 1.415 1_554 S
C807 C806 1.355 . S
C807 C809 1.419 . S
C808 C806 1.415 1_556 S
C808 C813 1.425 1_546 S
C808 C815 1.409 . S
C809 H801 0.930 . S
C809 C807 1.419 . S
C809 C810 1.362 1_545 S
C810 H802 0.930 . S
C810 C809 1.362 1_565 S
C810 C813 1.409 . S
C811 H803 0.930 . S
C811 C812 1.355 . S
C811 C813 1.415 1_556 S
C812 C811 1.355 . S
C812 C814 1.419 . S
C813 C808 1.425 1_564 S
C813 C810 1.409 . S
C813 C811 1.415 1_554 S
C814 H804 0.930 . S
C814 C812 1.419 . S
C814 C815 1.362 1_565 S
C815 H805 0.930 . S
C815 C808 1.409 . S
C815 C814 1.362 1_545 S
H816 C822 0.930 . S
H817 C825 0.930 . S
H818 C826 0.930 . S
H819 C827 0.930 . S
H820 C830 0.930 . S
H821 C831 0.930 . S
C822 H816 0.930 . S
C822 C823 1.355 . S
C822 C824 1.415 . S
C823 C822 1.355 . S
C823 C825 1.419 . S
C824 C822 1.415 . S
C824 C829 1.425 1_565 S
C824 C831 1.409 . S
C825 H817 0.930 . S
C825 C823 1.419 . S
C825 C826 1.362 1_565 S
C826 H818 0.930 . S
C826 C825 1.362 1_545 S
C826 C829 1.409 . S
C827 H819 0.930 . S
C827 C828 1.355 . S
C827 C829 1.415 . S
C828 C827 1.355 . S
C828 C830 1.419 . S
C829 C824 1.425 1_545 S
C829 C826 1.409 . S
C829 C827 1.415 . S
C830 H820 0.930 . S
C830 C828 1.419 . S
C830 C831 1.362 1_545 S
C831 H821 0.930 . S
C831 C824 1.409 . S
C831 C830 1.362 1_565 S
H832 C838 0.930 . S
H833 C841 0.930 . S
H834 C842 0.930 1_554 S
H835 C843 0.930 . S
H836 C846 0.930 . S
H837 C847 0.930 1_556 S
C838 H832 0.930 . S
C838 C839 1.355 . S
C838 C840 1.415 . S
C839 C838 1.355 . S
C839 C841 1.419 . S
C840 C838 1.415 . S
C840 C845 1.425 1_566 S
C840 C847 1.409 1_566 S
C841 H833 0.930 . S
C841 C839 1.419 . S
C841 C842 1.362 . S
C842 H834 0.930 1_556 S
C842 C841 1.362 . S
C842 C845 1.409 1_566 S
C843 H835 0.930 . S
C843 C844 1.355 . S
C843 C845 1.415 . S
C844 C843 1.355 . S
C844 C846 1.419 . S
C845 C840 1.425 1_544 S
C845 C842 1.409 1_544 S
C845 C843 1.415 . S
C846 H836 0.930 . S
C846 C844 1.419 . S
C846 C847 1.362 . S
C847 H837 0.930 1_554 S
C847 C840 1.409 1_544 S
C847 C846 1.362 . S
H848 C854 0.930 . S
H849 C857 0.930 . S
H850 C858 0.930 . S
H851 C859 0.930 . S
H852 C862 0.930 . S
H853 C863 0.930 . S
C854 H848 0.930 . S
C854 C855 1.355 . S
C854 C856 1.415 1_545 S
C855 C854 1.355 . S
C855 C857 1.419 . S
C856 C854 1.415 1_565 S
C856 C861 1.425 1_565 S
C856 C863 1.409 . S
C857 H849 0.930 . S
C857 C855 1.419 . S
C857 C858 1.362 . S
C858 H850 0.930 . S
C858 C857 1.362 . S
C858 C861 1.409 . S
C859 H851 0.930 . S
C859 C860 1.355 . S
C859 C861 1.415 1_565 S
C860 C859 1.355 . S
C860 C862 1.419 . S
C861 C856 1.425 1_545 S
C861 C858 1.409 . S
C861 C859 1.415 1_545 S
C862 H852 0.930 . S
C862 C860 1.419 . S
C862 C863 1.362 . S
C863 H853 0.930 . S
C863 C856 1.409 . S
C863 C862 1.362 . S
H864 C870 0.930 . S
H865 C873 0.930 . S
H866 C874 0.930 . S
H867 C875 0.930 . S
H868 C878 0.930 . S
H869 C879 0.930 . S
C870 H864 0.930 . S
C870 C871 1.355 . S
C870 C872 1.415 . S
C871 C870 1.355 . S
C871 C873 1.419 . S
C872 C870 1.415 . S
C872 C877 1.425 1_554 S
C872 C879 1.409 . S
C873 H865 0.930 . S
C873 C871 1.419 . S
C873 C874 1.362 1_554 S
C874 H866 0.930 . S
C874 C873 1.362 1_556 S
C874 C877 1.409 . S
C875 H867 0.930 . S
C875 C876 1.355 . S
C875 C877 1.415 . S
C876 C875 1.355 . S
C876 C878 1.419 . S
C877 C872 1.425 1_556 S
C877 C874 1.409 . S
C877 C875 1.415 . S
C878 H868 0.930 . S
C878 C876 1.419 . S
C878 C879 1.362 1_556 S
C879 H869 0.930 . S
C879 C872 1.409 . S
C879 C878 1.362 1_554 S
H880 C886 0.930 . S
H881 C889 0.930 . S
H882 C890 0.930 . S
H883 C891 0.930 . S
H884 C894 0.930 . S
H885 C895 0.930 . S
C886 H880 0.930 . S
C886 C887 1.355 . S
C886 C888 1.415 . S
C887 C886 1.355 . S
C887 C889 1.419 . S
C888 C886 1.415 . S
C888 C893 1.425 . S
C888 C895 1.409 . S
C889 H881 0.930 . S
C889 C887 1.419 . S
C889 C890 1.362 . S
C890 H882 0.930 . S
C890 C889 1.362 . S
C890 C893 1.409 . S
C891 H883 0.930 . S
C891 C892 1.355 . S
C891 C893 1.415 . S
C892 C891 1.355 . S
C892 C894 1.419 . S
C893 C888 1.425 . S
C893 C890 1.409 . S
C893 C891 1.415 . S
C894 H884 0.930 . S
C894 C892 1.419 . S
C894 C895 1.362 . S
C895 H885 0.930 . S
C895 C888 1.409 . S
C895 C894 1.362 . S
H896 C902 0.930 . S
H897 C905 0.930 . S
H898 C906 0.930 . S
H899 C907 0.930 . S
H900 C910 0.930 . S
H901 C911 0.930 . S
C902 H896 0.930 . S
C902 C903 1.355 . S
C902 C904 1.415 . S
C903 C902 1.355 . S
C903 C905 1.419 . S
C904 C902 1.415 . S
C904 C909 1.425 1_556 S
C904 C911 1.409 . S
C905 H897 0.930 . S
C905 C903 1.419 . S
C905 C906 1.362 1_556 S
C906 H898 0.930 . S
C906 C905 1.362 1_554 S
C906 C909 1.409 . S
C907 H899 0.930 . S
C907 C908 1.355 . S
C907 C909 1.415 . S
C908 C907 1.355 . S
C908 C910 1.419 . S
C909 C904 1.425 1_554 S
C909 C906 1.409 . S
C909 C907 1.415 . S
C910 H900 0.930 . S
C910 C908 1.419 . S
C910 C911 1.362 1_554 S
C911 H901 0.930 . S
C911 C904 1.409 . S
C911 C910 1.362 1_556 S
H912 C918 0.930 . S
H913 C921 0.930 . S
H914 C922 0.930 . S
H915 C923 0.930 . S
H916 C926 0.930 . S
H917 C927 0.930 . S
C918 H912 0.930 . S
C918 C919 1.355 . S
C918 C920 1.415 . S
C919 C918 1.355 . S
C919 C921 1.419 . S
C920 C918 1.415 . S
C920 C925 1.425 . S
C920 C927 1.409 . S
C921 H913 0.930 . S
C921 C919 1.419 . S
C921 C922 1.362 . S
C922 H914 0.930 . S
C922 C921 1.362 . S
C922 C925 1.409 . S
C923 H915 0.930 . S
C923 C924 1.355 . S
C923 C925 1.415 . S
C924 C923 1.355 . S
C924 C926 1.419 . S
C925 C920 1.425 . S
C925 C922 1.409 . S
C925 C923 1.415 . S
C926 H916 0.930 . S
C926 C924 1.419 . S
C926 C927 1.362 . S
C927 H917 0.930 . S
C927 C920 1.409 . S
C927 C926 1.362 . S
H928 C934 0.930 . S
H929 C937 0.930 . S
H930 C938 0.930 . S
H931 C939 0.921 1_554 S
H932 C942 0.930 . S
H933 C943 0.930 . S
C934 H928 0.930 . S
C934 C935 1.355 . S
C934 C936 1.415 . S
C935 C934 1.355 . S
C935 C937 1.419 . S
C936 C934 1.415 . S
C936 C941 1.425 . S
C936 C943 1.409 . S
C937 H929 0.930 . S
C937 C935 1.419 . S
C937 C938 1.362 . S
C938 H930 0.930 . S
C938 C937 1.362 . S
C938 C941 1.409 . S
C939 H931 0.921 1_556 S
C939 C940 1.354 1_556 S
C939 C941 1.425 . S
C940 C939 1.354 1_554 S
C940 C942 1.419 1_554 S
C941 C936 1.425 . S
C941 C938 1.409 . S
C941 C939 1.425 . S
C942 H932 0.930 . S
C942 C940 1.419 1_556 S
C942 C943 1.362 . S
C943 H933 0.930 . S
C943 C936 1.409 . S
C943 C942 1.362 . S
H944 C950 0.930 . S
H945 C953 0.930 . S
H946 C954 0.930 . S
H947 C955 0.930 . S
H948 C958 0.930 . S
H949 C959 0.930 . S
C950 H944 0.930 . S
C950 C951 1.355 . S
C950 C952 1.415 . S
C951 C950 1.355 . S
C951 C953 1.419 . S
C952 C950 1.415 . S
C952 C957 1.425 . S
C952 C959 1.409 . S
C953 H945 0.930 . S
C953 C951 1.419 . S
C953 C954 1.362 . S
C954 H946 0.930 . S
C954 C953 1.362 . S
C954 C957 1.409 . S
C955 H947 0.930 . S
C955 C956 1.355 . S
C955 C957 1.415 . S
C956 C955 1.355 . S
C956 C958 1.419 . S
C957 C952 1.425 . S
C957 C954 1.409 . S
C957 C955 1.415 . S
C958 H948 0.930 . S
C958 C956 1.419 . S
C958 C959 1.362 . S
C959 H949 0.930 . S
C959 C952 1.409 . S
C959 C958 1.362 . S
H960 C966 0.930 . S
H961 C969 0.930 . S
H962 C970 0.930 . S
H963 C971 0.930 . S
H964 C974 0.930 . S
H965 C975 0.930 . S
C966 H960 0.930 . S
C966 C967 1.355 1_554 S
C966 C968 1.415 . S
C967 C966 1.355 1_556 S
C967 C969 1.419 . S
C968 C966 1.415 . S
C968 C973 1.425 . S
C968 C975 1.409 . S
C969 H961 0.930 . S
C969 C967 1.419 . S
C969 C970 1.362 1_556 S
C970 H962 0.930 . S
C970 C969 1.362 1_554 S
C970 C973 1.409 . S
C971 H963 0.930 . S
C971 C972 1.355 . S
C971 C973 1.415 . S
C972 C971 1.355 . S
C972 C974 1.419 . S
C973 C968 1.425 . S
C973 C970 1.409 . S
C973 C971 1.415 . S
C974 H964 0.930 . S
C974 C972 1.419 . S
C974 C975 1.362 . S
C975 H965 0.930 . S
C975 C968 1.409 . S
C975 C974 1.362 . S
H976 C982 0.930 . S
H977 C985 0.930 . S
H978 C986 0.930 . S
H979 C987 0.930 . S
H980 C990 0.930 . S
H981 C991 0.930 . S
C982 H976 0.930 . S
C982 C983 1.355 . S
C982 C984 1.415 . S
C983 C982 1.355 . S
C983 C985 1.419 . S
C984 C982 1.415 . S
C984 C989 1.425 . S
C984 C991 1.409 . S
C985 H977 0.930 . S
C985 C983 1.419 . S
C985 C986 1.362 . S
C986 H978 0.930 . S
C986 C985 1.362 . S
C986 C989 1.409 . S
C987 H979 0.930 . S
C987 C988 1.355 . S
C987 C989 1.415 . S
C988 C987 1.355 . S
C988 C990 1.419 . S
C989 C984 1.425 . S
C989 C986 1.409 . S
C989 C987 1.415 . S
C990 H980 0.930 . S
C990 C988 1.419 . S
C990 C991 1.362 . S
C991 H981 0.930 . S
C991 C984 1.409 . S
C991 C990 1.362 . S
H992 C998 0.930 . S
H993 C1001 0.930 . S
H994 C1002 0.930 . S
H995 C1003 0.930 . S
H996 C1006 0.930 . S
H997 C1007 0.930 . S
C998 H992 0.930 . S
C998 C999 1.355 . S
C998 C1000 1.415 . S
C999 C998 1.355 . S
C999 C1001 1.419 . S
C1000 C998 1.415 . S
C1000 C1005 1.425 . S
C1000 C1007 1.409 . S
C1001 H993 0.930 . S
C1001 C999 1.419 . S
C1001 C1002 1.362 . S
C1002 H994 0.930 . S
C1002 C1001 1.362 . S
C1002 C1005 1.409 . S
C1003 H995 0.930 . S
C1003 C1004 1.355 1_554 S
C1003 C1005 1.415 . S
C1004 C1003 1.355 1_556 S
C1004 C1006 1.419 . S
C1005 C1000 1.425 . S
C1005 C1002 1.409 . S
C1005 C1003 1.415 . S
C1006 H996 0.930 . S
C1006 C1004 1.419 . S
C1006 C1007 1.362 1_556 S
C1007 H997 0.930 . S
C1007 C1000 1.409 . S
C1007 C1006 1.362 1_554 S
H1008 C1014 0.930 . S
H1009 C1017 0.930 . S
H1010 C1018 0.930 . S
H1011 C1019 0.930 . S
H1012 C1022 0.930 . S
H1013 C1023 0.930 . S
C1014 H1008 0.930 . S
C1014 C1015 1.355 . S
C1014 C1016 1.415 . S
C1015 C1014 1.355 . S
C1015 C1017 1.419 . S
C1016 C1014 1.415 . S
C1016 C1021 1.425 . S
C1016 C1023 1.409 . S
C1017 H1009 0.930 . S
C1017 C1015 1.419 . S
C1017 C1018 1.362 . S
C1018 H1010 0.930 . S
C1018 C1017 1.362 . S
C1018 C1021 1.409 . S
C1019 H1011 0.930 . S
C1019 C1020 1.355 . S
C1019 C1021 1.415 . S
C1020 C1019 1.355 . S
C1020 C1022 1.419 . S
C1021 C1016 1.425 . S
C1021 C1018 1.409 . S
C1021 C1019 1.415 . S
C1022 H1012 0.930 . S
C1022 C1020 1.419 . S
C1022 C1023 1.362 . S
C1023 H1013 0.930 . S
C1023 C1016 1.409 . S
C1023 C1022 1.362 . S
H1024 C1030 0.939 . S
H1025 C1033 0.930 . S
H1026 C1034 0.930 . S
H1027 C1035 0.930 . S
H1028 C1038 0.930 . S
H1029 C1039 0.930 . S
C1030 H1024 0.939 . S
C1030 C1031 1.356 . S
C1030 C1032 1.405 1_554 S
C1031 C1030 1.356 . S
C1031 C1033 1.419 1_554 S
C1032 C1030 1.405 1_556 S
C1032 C1037 1.425 . S
C1032 C1039 1.409 . S
C1033 H1025 0.930 . S
C1033 C1031 1.419 1_556 S
C1033 C1034 1.362 . S
C1034 H1026 0.930 . S
C1034 C1033 1.362 . S
C1034 C1037 1.409 . S
C1035 H1027 0.930 . S
C1035 C1036 1.355 . S
C1035 C1037 1.415 . S
C1036 C1035 1.355 . S
C1036 C1038 1.419 . S
C1037 C1032 1.425 . S
C1037 C1034 1.409 . S
C1037 C1035 1.415 . S
C1038 H1028 0.930 . S
C1038 C1036 1.419 . S
C1038 C1039 1.362 . S
C1039 H1029 0.930 . S
C1039 C1032 1.409 . S
C1039 C1038 1.362 . S
H1040 C1046 0.930 . S
H1041 C1049 0.930 . S
H1042 C1050 0.930 . S
H1043 C1051 0.930 . S
H1044 C1054 0.930 . S
H1045 C1055 0.930 . S
C1046 H1040 0.930 . S
C1046 C1047 1.355 . S
C1046 C1048 1.415 . S
C1047 C1046 1.355 . S
C1047 C1049 1.419 . S
C1048 C1046 1.415 . S
C1048 C1053 1.425 . S
C1048 C1055 1.409 . S
C1049 H1041 0.930 . S
C1049 C1047 1.419 . S
C1049 C1050 1.362 . S
C1050 H1042 0.930 . S
C1050 C1049 1.362 . S
C1050 C1053 1.409 . S
C1051 H1043 0.930 . S
C1051 C1052 1.355 . S
C1051 C1053 1.415 . S
C1052 C1051 1.355 . S
C1052 C1054 1.419 . S
C1053 C1048 1.425 . S
C1053 C1050 1.409 . S
C1053 C1051 1.415 . S
C1054 H1044 0.930 . S
C1054 C1052 1.419 . S
C1054 C1055 1.362 . S
C1055 H1045 0.930 . S
C1055 C1048 1.409 . S
C1055 C1054 1.362 . S
H1056 C1062 0.930 . S
H1057 C1065 0.930 . S
H1058 C1066 0.930 . S
H1059 C1067 0.930 . S
H1060 C1070 0.930 . S
H1061 C1071 0.930 . S
C1062 H1056 0.930 . S
C1062 C1063 1.355 1_556 S
C1062 C1064 1.415 . S
C1063 C1062 1.355 1_554 S
C1063 C1065 1.419 . S
C1064 C1062 1.415 . S
C1064 C1069 1.425 . S
C1064 C1071 1.409 . S
C1065 H1057 0.930 . S
C1065 C1063 1.419 . S
C1065 C1066 1.362 1_554 S
C1066 H1058 0.930 . S
C1066 C1065 1.362 1_556 S
C1066 C1069 1.409 . S
C1067 H1059 0.930 . S
C1067 C1068 1.355 . S
C1067 C1069 1.415 . S
C1068 C1067 1.355 . S
C1068 C1070 1.419 . S
C1069 C1064 1.425 . S
C1069 C1066 1.409 . S
C1069 C1067 1.415 . S
C1070 H1060 0.930 . S
C1070 C1068 1.419 . S
C1070 C1071 1.362 . S
C1071 H1061 0.930 . S
C1071 C1064 1.409 . S
C1071 C1070 1.362 . S
H1072 C1078 0.930 . S
H1073 C1081 0.930 . S
H1074 C1082 0.930 . S
H1075 C1083 0.930 . S
H1076 C1086 0.930 . S
H1077 C1087 0.930 . S
C1078 H1072 0.930 . S
C1078 C1079 1.355 . S
C1078 C1080 1.415 . S
C1079 C1078 1.355 . S
C1079 C1081 1.419 . S
C1080 C1078 1.415 . S
C1080 C1085 1.425 . S
C1080 C1087 1.409 . S
C1081 H1073 0.930 . S
C1081 C1079 1.419 . S
C1081 C1082 1.362 . S
C1082 H1074 0.930 . S
C1082 C1081 1.362 . S
C1082 C1085 1.409 . S
C1083 H1075 0.930 . S
C1083 C1084 1.355 . S
C1083 C1085 1.415 . S
C1084 C1083 1.355 . S
C1084 C1086 1.419 . S
C1085 C1080 1.425 . S
C1085 C1082 1.409 . S
C1085 C1083 1.415 . S
C1086 H1076 0.930 . S
C1086 C1084 1.419 . S
C1086 C1087 1.362 . S
C1087 H1077 0.930 . S
C1087 C1080 1.409 . S
C1087 C1086 1.362 . S
H1088 C1094 0.930 . S
H1089 C1097 0.930 . S
H1090 C1098 0.930 . S
H1091 C1099 0.936 . S
H1092 C1102 0.930 . S
H1093 C1103 0.930 . S
C1094 H1088 0.930 . S
C1094 C1095 1.355 . S
C1094 C1096 1.415 . S
C1095 C1094 1.355 . S
C1095 C1097 1.419 . S
C1096 C1094 1.415 . S
C1096 C1101 1.425 . S
C1096 C1103 1.409 . S
C1097 H1089 0.930 . S
C1097 C1095 1.419 . S
C1097 C1098 1.362 . S
C1098 H1090 0.930 . S
C1098 C1097 1.362 . S
C1098 C1101 1.409 . S
C1099 H1091 0.936 . S
C1099 C1100 1.355 . S
C1099 C1101 1.407 1_556 S
C1100 C1099 1.355 . S
C1100 C1102 1.419 1_556 S
C1101 C1096 1.425 . S
C1101 C1098 1.409 . S
C1101 C1099 1.407 1_554 S
C1102 H1092 0.930 . S
C1102 C1100 1.419 1_554 S
C1102 C1103 1.362 . S
C1103 H1093 0.930 . S
C1103 C1096 1.409 . S
C1103 C1102 1.362 . S
H1104 C1110 0.930 . S
H1105 C1113 0.930 . S
H1106 C1114 0.930 . S
H1107 C1115 0.930 . S
H1108 C1118 0.930 . S
H1109 C1119 0.930 . S
C1110 H1104 0.930 . S
C1110 C1111 1.355 . S
C1110 C1112 1.415 . S
C1111 C1110 1.355 . S
C1111 C1113 1.419 . S
C1112 C1110 1.415 . S
C1112 C1117 1.425 . S
C1112 C1119 1.409 . S
C1113 H1105 0.930 . S
C1113 C1111 1.419 . S
C1113 C1114 1.362 . S
C1114 H1106 0.930 . S
C1114 C1113 1.362 . S
C1114 C1117 1.409 . S
C1115 H1107 0.930 . S
C1115 C1116 1.355 . S
C1115 C1117 1.415 . S
C1116 C1115 1.355 . S
C1116 C1118 1.419 . S
C1117 C1112 1.425 . S
C1117 C1114 1.409 . S
C1117 C1115 1.415 . S
C1118 H1108 0.930 . S
C1118 C1116 1.419 . S
C1118 C1119 1.362 . S
C1119 H1109 0.930 . S
C1119 C1112 1.409 . S
C1119 C1118 1.362 . S
H1120 C1126 0.930 . S
H1121 C1129 0.930 . S
H1122 C1130 0.930 . S
H1123 C1131 0.930 . S
H1124 C1134 0.930 . S
H1125 C1135 0.930 . S
C1126 H1120 0.930 . S
C1126 C1127 1.355 1_554 S
C1126 C1128 1.415 . S
C1127 C1126 1.355 1_556 S
C1127 C1129 1.419 . S
C1128 C1126 1.415 . S
C1128 C1133 1.425 . S
C1128 C1135 1.409 . S
C1129 H1121 0.930 . S
C1129 C1127 1.419 . S
C1129 C1130 1.362 1_556 S
C1130 H1122 0.930 . S
C1130 C1129 1.362 1_554 S
C1130 C1133 1.409 . S
C1131 H1123 0.930 . S
C1131 C1132 1.355 . S
C1131 C1133 1.415 . S
C1132 C1131 1.355 . S
C1132 C1134 1.419 . S
C1133 C1128 1.425 . S
C1133 C1130 1.409 . S
C1133 C1131 1.415 . S
C1134 H1124 0.930 . S
C1134 C1132 1.419 . S
C1134 C1135 1.362 . S
C1135 H1125 0.930 . S
C1135 C1128 1.409 . S
C1135 C1134 1.362 . S
H1136 C1142 0.930 . S
H1137 C1145 0.930 . S
H1138 C1146 0.930 . S
H1139 C1147 0.930 . S
H1140 C1150 0.930 . S
H1141 C1151 0.930 . S
C1142 H1136 0.930 . S
C1142 C1143 1.355 . S
C1142 C1144 1.415 . S
C1143 C1142 1.355 . S
C1143 C1145 1.419 . S
C1144 C1142 1.415 . S
C1144 C1149 1.425 . S
C1144 C1151 1.409 . S
C1145 H1137 0.930 . S
C1145 C1143 1.419 . S
C1145 C1146 1.362 . S
C1146 H1138 0.930 . S
C1146 C1145 1.362 . S
C1146 C1149 1.409 . S
C1147 H1139 0.930 . S
C1147 C1148 1.355 . S
C1147 C1149 1.415 . S
C1148 C1147 1.355 . S
C1148 C1150 1.419 . S
C1149 C1144 1.425 . S
C1149 C1146 1.409 . S
C1149 C1147 1.415 . S
C1150 H1140 0.930 . S
C1150 C1148 1.419 . S
C1150 C1151 1.362 . S
C1151 H1141 0.930 . S
C1151 C1144 1.409 . S
C1151 C1150 1.362 . S
H1152 C1158 0.930 . S
H1153 C1161 0.930 . S
H1154 C1162 0.930 . S
H1155 C1163 0.930 . S
H1156 C1166 0.930 . S
H1157 C1167 0.930 . S
C1158 H1152 0.930 . S
C1158 C1159 1.355 . S
C1158 C1160 1.415 . S
C1159 C1158 1.355 . S
C1159 C1161 1.419 . S
C1160 C1158 1.415 . S
C1160 C1165 1.425 . S
C1160 C1167 1.409 . S
C1161 H1153 0.930 . S
C1161 C1159 1.419 . S
C1161 C1162 1.362 . S
C1162 H1154 0.930 . S
C1162 C1161 1.362 . S
C1162 C1165 1.409 . S
C1163 H1155 0.930 . S
C1163 C1164 1.355 1_556 S
C1163 C1165 1.415 . S
C1164 C1163 1.355 1_554 S
C1164 C1166 1.419 . S
C1165 C1160 1.425 . S
C1165 C1162 1.409 . S
C1165 C1163 1.415 . S
C1166 H1156 0.930 . S
C1166 C1164 1.419 . S
C1166 C1167 1.362 1_554 S
C1167 H1157 0.930 . S
C1167 C1160 1.409 . S
C1167 C1166 1.362 1_556 S
H1168 C1174 0.930 . S
H1169 C1177 0.930 . S
H1170 C1178 0.930 . S
H1171 C1179 0.930 . S
H1172 C1182 0.930 . S
H1173 C1183 0.930 . S
C1174 H1168 0.930 . S
C1174 C1175 1.355 . S
C1174 C1176 1.415 . S
C1175 C1174 1.355 . S
C1175 C1177 1.419 . S
C1176 C1174 1.415 . S
C1176 C1181 1.425 . S
C1176 C1183 1.409 . S
C1177 H1169 0.930 . S
C1177 C1175 1.419 . S
C1177 C1178 1.362 . S
C1178 H1170 0.930 . S
C1178 C1177 1.362 . S
C1178 C1181 1.409 . S
C1179 H1171 0.930 . S
C1179 C1180 1.355 . S
C1179 C1181 1.415 . S
C1180 C1179 1.355 . S
C1180 C1182 1.419 . S
C1181 C1176 1.425 . S
C1181 C1178 1.409 . S
C1181 C1179 1.415 . S
C1182 H1172 0.930 . S
C1182 C1180 1.419 . S
C1182 C1183 1.362 . S
C1183 H1173 0.930 . S
C1183 C1176 1.409 . S
C1183 C1182 1.362 . S
C551 C9 1.505 . S
C556 C111 1.441 . S
C567 C77 1.451 . S
C572 C43 1.463 . S
C583 C247 1.487 . S
C588 C145 1.469 . S
C599 C179 1.454 . S
C604 C213 1.460 . S
C615 C281 1.459 . S
C620 C383 1.454 . S
C631 C315 1.449 . S
C636 C349 1.466 . S
C647 C519 1.474 . S
C652 C417 1.483 . S
C663 C451 1.480 . S
C668 C485 1.437 . S
C679 C209 1.496 . S
C684 C5 1.481 . S
C695 C243 1.503 . S
C700 C39 1.474 . S
C711 C141 1.499 . S
C716 C73 1.478 . S
C727 C175 1.491 . S
C732 C107 1.485 . S
C743 C481 1.493 . S
C748 C277 1.484 . S
C759 C515 1.500 . S
C764 C311 1.476 . S
C775 C413 1.479 . S
C780 C345 1.497 . S
C791 C379 1.475 . S
C796 C447 1.501 . S
C807 C2 1.556 . S
C812 C70 1.552 . S
C823 C36 1.539 . S
C828 C104 1.549 . S
C839 C138 1.533 . S
C844 C206 1.523 . S
C855 C172 1.519 . S
C860 C240 1.520 . S
C871 C274 1.520 . S
C876 C342 1.528 . S
C887 C308 1.526 . S
C892 C376 1.519 . S
C903 C410 1.518 . S
C908 C478 1.520 . S
C919 C444 1.554 . S
C924 C512 1.555 . S
C935 C530 1.381 . S
C940 C33 1.377 . S
C951 C67 1.375 . S
C956 C496 1.371 . S
C967 C101 1.373 . S
C972 C462 1.376 . S
C983 C428 1.369 . S
C988 C135 1.378 . S
C999 C394 1.369 . S
C1004 C169 1.377 . S
C1015 C203 1.378 . S
C1020 C360 1.380 . S
C1031 C237 1.375 . S
C1036 C326 1.382 . S
C1047 C271 1.375 . S
C1052 C292 1.371 . S
C1063 C305 1.373 . S
C1068 C258 1.377 . S
C1079 C224 1.370 . S
C1084 C339 1.379 . S
C1095 C190 1.382 . S
C1100 C373 1.376 . S
C1111 C407 1.377 . S
C1116 C156 1.381 . S
C1127 C441 1.379 . S
C1132 C122 1.370 . S
C1143 C88 1.373 . S
C1148 C475 1.374 . S
C1159 C54 1.369 . S
C1164 C509 1.376 . S
C1175 C20 1.374 . S
C1180 C543 1.373 . S
