# Generated by pormake.
# Topology oof, (8)-cn, num edge types: 1
# Building blocks:
#     Node 0, Type 0, BuildingBlock: TAGTUT_clean_sbu_1, # of connection points: 8
#     Node 1, Type 0, BuildingBlock: TAGTUT_clean_sbu_1, # of connection points: 8
#     Node 2, Type 0, BuildingBlock: TAGTUT_clean_sbu_1, # of connection points: 8
#     Node 3, Type 0, BuildingBlock: TAGTUT_clean_sbu_1, # of connection points: 8
#     Edge 4, Type (0, 0), BuildingBlock: XIVTED_clean_linker_0, # of connection points: 2
#     Edge 5, Type (0, 0), BuildingBlock: XIVTED_clean_linker_0, # of connection points: 2
#     Edge 6, Type (0, 0), BuildingBlock: XIVTED_clean_linker_0, # of connection points: 2
#     Edge 7, Type (0, 0), BuildingBlock: XIVTED_clean_linker_0, # of connection points: 2
#     Edge 8, Type (0, 0), BuildingBlock: XIVTED_clean_linker_0, # of connection points: 2
#     Edge 9, Type (0, 0), BuildingBlock: XIVTED_clean_linker_0, # of connection points: 2
#     Edge 10, Type (0, 0), BuildingBlock: XIVTED_clean_linker_0, # of connection points: 2
#     Edge 11, Type (0, 0), BuildingBlock: XIVTED_clean_linker_0, # of connection points: 2
#     Edge 12, Type (0, 0), BuildingBlock: XIVTED_clean_linker_0, # of connection points: 2
#     Edge 13, Type (0, 0), BuildingBlock: XIVTED_clean_linker_0, # of connection points: 2
#     Edge 14, Type (0, 0), BuildingBlock: XIVTED_clean_linker_0, # of connection points: 2
#     Edge 15, Type (0, 0), BuildingBlock: XIVTED_clean_linker_0, # of connection points: 2
#     Edge 16, Type (0, 0), BuildingBlock: XIVTED_clean_linker_0, # of connection points: 2
#     Edge 17, Type (0, 0), BuildingBlock: XIVTED_clean_linker_0, # of connection points: 2
#     Edge 18, Type (0, 0), BuildingBlock: XIVTED_clean_linker_0, # of connection points: 2
#     Edge 19, Type (0, 0), BuildingBlock: XIVTED_clean_linker_0, # of connection points: 2
# Relax obj value: 0.052
# Max RMSD: 0.155
# Mean RMSD: 0.155
data_MOF--net-oof--node1-TAGTUT_clean_sbu_1--edge1-XIVTED_clean_linker_0
_symmetry_space_group_name_H-M    P1
_symmetry_Int_Tables_number       1
_symmetry_cell_setting            triclinic
loop_
_symmetry_equiv_pos_as_xyz
'x, y, z'
_cell_length_a     15.67203
_cell_length_b     55.661542
_cell_length_c     19.382639
_cell_angle_alpha  92.351361
_cell_angle_beta   102.79809
_cell_angle_gamma 103.66755
loop_
_atom_site_label
_atom_site_type_symbol
_atom_site_fract_x
_atom_site_fract_y
_atom_site_fract_z
_atom_type_partial_charge
C0 C 0.0258 0.09838 0.47455 0.0
C1 C 0.05248 0.06111 0.30963 0.0
C2 C 0.20431 0.15238 0.22333 0.0
Mg3 Mg 0.91804 0.08631 0.31581 0.0
O4 O -0.00482 0.11793 0.31596 0.0
Mg5 Mg 0.12989 0.12136 0.34903 0.0
Mg6 Mg -0.00541 0.13083 0.22092 0.0
O7 O -0.01037 0.14274 0.12539 0.0
Mg8 Mg 0.05967 0.17309 0.11007 0.0
Mg9 Mg 0.85648 0.13293 0.08139 0.0
C10 C 0.77836 0.11028 0.21546 0.0
C11 C 0.92248 0.08219 0.10233 0.0
O12 O 0.0959 0.11039 0.45504 0.0
O13 O 0.95148 0.0874 0.43012 0.0
O14 O 0.12358 0.07913 0.32352 0.0
O15 O -0.01619 0.0641 0.26582 0.0
O16 O 0.79358 0.09395 0.2583 0.0
O17 O 0.8424 0.1257 0.1973 0.0
C18 C 0.08904 0.17609 0.34637 0.0
O19 O 0.03213 0.17026 0.28522 0.0
O20 O 0.13099 0.16083 0.37663 0.0
O21 O 0.89479 0.13967 0.97399 0.0
O22 O 0.03847 0.16306 -0.00146 0.0
O23 O 0.84717 0.17352 0.09315 0.0
C24 C 0.9672 0.14998 0.95473 0.0
O25 O -0.01705 0.20053 0.11899 0.0
O26 O 0.18545 0.16859 0.18048 0.0
C27 C 0.89648 0.19583 0.10515 0.0
O28 O 0.14279 0.13507 0.23842 0.0
O29 O -0.02782 0.09249 0.16248 0.0
O30 O 0.8693 0.0932 0.06404 0.0
C31 C 0.01429 0.86603 0.02893 0.0
C32 C 0.08016 0.81966 0.87833 0.0
C33 C 0.19804 0.90391 0.76497 0.0
Mg34 Mg 0.91943 0.84309 0.87408 0.0
O35 O -0.01104 0.87359 0.85936 0.0
Mg36 Mg 0.12254 0.88268 0.9009 0.0
Mg37 Mg -0.01753 0.88467 0.76283 0.0
O38 O -0.02006 0.89638 0.66735 0.0
Mg39 Mg 0.05828 0.9272 0.66497 0.0
Mg40 Mg 0.84816 0.8945 0.63636 0.0
C41 C 0.77474 0.86393 0.76187 0.0
C42 C 0.88025 0.83886 0.64035 0.0
O43 O 0.08609 0.87643 0.00897 0.0
O44 O 0.94257 0.85292 0.98568 0.0
O45 O 0.13021 0.84188 0.89046 0.0
O46 O -0.00619 0.81527 0.86377 0.0
O47 O 0.79387 0.84758 0.80406 0.0
O48 O 0.83575 0.88164 0.7478 0.0
C49 C 0.06018 0.9341 0.87781 0.0
O50 O 0.00991 0.92383 0.81778 0.0
O51 O 0.11166 0.92278 0.91679 0.0
O52 O 0.87919 0.90426 0.52847 0.0
O53 O 0.0245 0.92633 0.55164 0.0
O54 O 0.86656 0.93737 0.65996 0.0
C55 C 0.94912 0.91584 0.508 0.0
O56 O 0.01081 0.9553 0.70947 0.0
O57 O 0.18324 0.91989 0.72096 0.0
C58 C 0.93059 0.95695 0.68418 0.0
O59 O 0.13383 0.88894 0.78414 0.0
O60 O 0.93938 0.84471 0.7005 0.0
O61 O 0.83953 0.85439 0.61017 0.0
C62 C 0.52992 0.59829 0.47705 0.0
C63 C 0.5543 0.56104 0.31094 0.0
C64 C 0.70541 0.65247 0.22457 0.0
Mg65 Mg 0.4209 0.58685 0.31892 0.0
O66 O 0.49778 0.61848 0.3191 0.0
Mg67 Mg 0.63221 0.62159 0.3509 0.0
Mg68 Mg 0.4962 0.63121 0.22379 0.0
O69 O 0.4901 0.64277 0.1278 0.0
Mg70 Mg 0.56062 0.67263 0.1102 0.0
Mg71 Mg 0.35689 0.63288 0.08415 0.0
C72 C 0.28049 0.61085 0.21944 0.0
C73 C 0.42246 0.58218 0.10683 0.0
O74 O 0.59958 0.61049 0.45733 0.0
O75 O 0.45531 0.58742 0.43283 0.0
O76 O 0.62463 0.57932 0.32516 0.0
O77 O 0.48406 0.56394 0.26883 0.0
O78 O 0.29617 0.59453 0.26218 0.0
O79 O 0.34412 0.62629 0.20088 0.0
C80 C 0.59278 0.67654 0.34863 0.0
O81 O 0.53531 0.67076 0.2877 0.0
O82 O 0.6344 0.66116 0.37867 0.0
O83 O 0.39413 0.63873 0.97608 0.0
O84 O 0.53844 0.66159 -0.00077 0.0
O85 O 0.34832 0.67369 0.09348 0.0
C86 C 0.46657 0.64849 0.95615 0.0
O87 O 0.4848 0.70036 0.11726 0.0
O88 O 0.68644 0.66845 0.18099 0.0
C89 C 0.39841 0.69592 0.10366 0.0
O90 O 0.64402 0.63526 0.24015 0.0
O91 O 0.47286 0.59278 0.16637 0.0
O92 O 0.36879 0.59298 0.0683 0.0
C93 C 0.5057 0.36588 0.03195 0.0
C94 C 0.57401 0.31914 0.88352 0.0
C95 C 0.68877 0.40293 0.76685 0.0
Mg96 Mg 0.41157 0.34204 0.87781 0.0
O97 O 0.48038 0.37248 0.86187 0.0
Mg98 Mg 0.61393 0.38211 0.90364 0.0
Mg99 Mg 0.47328 0.38333 0.76508 0.0
O100 O 0.47025 0.39487 0.66923 0.0
Mg101 Mg 0.54758 0.42592 0.6672 0.0
Mg102 Mg 0.33806 0.39271 0.63852 0.0
C103 C 0.26566 0.36235 0.76505 0.0
C104 C 0.37235 0.33729 0.64332 0.0
O105 O 0.57749 0.37625 0.01192 0.0
O106 O 0.43436 0.35248 0.98895 0.0
O107 O 0.62312 0.34146 0.89456 0.0
O108 O 0.48759 0.31442 0.86945 0.0
O109 O 0.28533 0.34616 0.80767 0.0
O110 O 0.32635 0.37997 0.75022 0.0
C111 C 0.54938 0.43305 0.87891 0.0
O112 O 0.49916 0.42245 0.81925 0.0
O113 O 0.60174 0.42208 0.91829 0.0
O114 O 0.36846 0.40261 0.53063 0.0
O115 O 0.51286 0.42542 0.55395 0.0
O116 O 0.35507 0.43557 0.66071 0.0
C117 C 0.43775 0.4147 0.51027 0.0
O118 O 0.49834 0.4534 0.71283 0.0
O119 O 0.67331 0.41883 0.72268 0.0
C120 C 0.4191 0.45518 0.68457 0.0
O121 O 0.62496 0.38798 0.78653 0.0
O122 O 0.43152 0.34332 0.70341 0.0
O123 O 0.33087 0.35264 0.61293 0.0
H124 H 0.106 0.16855 0.89224 0.0
H125 H 0.89464 0.07503 0.53953 0.0
H126 H 0.84514 0.11576 0.85227 0.0
H127 H 0.15655 0.12743 0.58282 0.0
H128 H 0.88041 0.08708 0.65814 0.0
H129 H 0.1268 0.15276 0.77986 0.0
C130 C 0.05253 0.15383 0.85948 0.0
C131 C -0.02628 0.14345 0.88189 0.0
C132 C 0.94134 0.09574 0.64185 0.0
C133 C -0.00205 0.12497 0.75356 0.0
C134 C 0.94982 0.08876 0.57433 0.0
C135 C 0.02605 0.10064 0.55062 0.0
C136 C 0.00945 0.11475 0.68565 0.0
C137 C 0.09602 0.11799 0.5984 0.0
C138 C 0.06486 0.14467 0.79554 0.0
C139 C 0.90688 0.1244 0.8371 0.0
N140 N 0.0854 0.12479 0.66329 0.0
N141 N 0.92072 0.11569 0.77514 0.0
H142 H 0.8151 0.8876 0.39984 0.0
H143 H 0.13983 0.89916 0.13201 0.0
H144 H 0.08187 0.93759 0.44297 0.0
H145 H 0.87499 0.84825 0.09156 0.0
H146 H 0.1182 0.91443 0.24489 0.0
H147 H 0.83059 0.87578 0.28177 0.0
C148 C 0.87621 0.89648 0.38407 0.0
C149 C 0.94801 0.91327 0.43188 0.0
C150 C 0.065 0.89985 0.21137 0.0
C151 C 0.96681 0.89942 0.29749 0.0
C152 C 0.07767 0.89092 0.14722 0.0
C153 C 0.00899 0.87244 0.10207 0.0
C154 C -0.01683 0.89021 0.23043 0.0
C155 C 0.92971 0.86258 0.12451 0.0
C156 C 0.88536 0.88952 0.31684 0.0
C157 C 0.02533 0.92427 0.40827 0.0
N158 N 0.91883 0.87168 0.18701 0.0
N159 N 0.03318 0.91689 0.34297 0.0
H160 H 0.34113 0.61467 0.85453 0.0
H161 H 0.66579 0.62472 0.58691 0.0
H162 H 0.60663 0.66513 0.89336 0.0
H163 H 0.39574 0.57648 0.54105 0.0
H164 H 0.65134 0.63588 0.70567 0.0
H165 H 0.36254 0.59855 0.74236 0.0
C166 C 0.40339 0.62262 0.83912 0.0
C167 C 0.47219 0.64131 0.88353 0.0
C168 C 0.59554 0.62267 0.66987 0.0
C169 C 0.49772 0.62256 0.756 0.0
C170 C 0.60403 0.6161 0.60215 0.0
C171 C 0.53098 0.60011 0.5533 0.0
C172 C 0.51347 0.61321 0.68875 0.0
C173 C 0.45312 0.58929 0.57649 0.0
C174 C 0.41592 0.6132 0.7754 0.0
C175 C 0.5517 0.65072 0.86096 0.0
N176 N 0.44585 0.59635 0.64232 0.0
N177 N 0.56235 0.64117 0.79887 0.0
H178 H 0.62849 0.40026 0.13343 0.0
H179 H 0.3038 0.38683 0.40145 0.0
H180 H 0.36735 0.34764 0.09502 0.0
H181 H 0.56964 0.43735 0.44558 0.0
H182 H 0.3193 0.37575 0.28286 0.0
H183 H 0.60531 0.41573 0.24557 0.0
C184 C 0.56688 0.3917 0.14896 0.0
C185 C 0.49972 0.37262 0.10466 0.0
C186 C 0.37386 0.38945 0.31828 0.0
C187 C 0.47207 0.39061 0.23207 0.0
C188 C 0.36472 0.39597 0.38582 0.0
C189 C 0.43637 0.41264 0.43407 0.0
C190 C 0.45518 0.39965 0.29908 0.0
C191 C 0.51332 0.42405 0.41056 0.0
C192 C 0.55328 0.40074 0.21264 0.0
C193 C 0.42095 0.3624 0.12736 0.0
N194 N 0.52125 0.41707 0.34496 0.0
N195 N 0.40919 0.3716 0.1894 0.0
H196 H 0.72899 0.15141 0.1649 0.0
H197 H 0.26926 0.11615 0.29237 0.0
H198 H 0.62405 0.08092 0.23958 0.0
H199 H 0.35262 0.18287 0.19224 0.0
H200 H 0.40921 0.10552 0.28602 0.0
H201 H 0.59394 0.16407 0.1765 0.0
C202 C 0.67663 0.13834 0.18195 0.0
C203 C 0.68835 0.11519 0.20216 0.0
C204 C 0.3972 0.12261 0.26601 0.0
C205 C 0.53546 0.12988 0.21784 0.0
C206 C 0.3178 0.12889 0.27056 0.0
C207 C 0.29807 0.15011 0.24108 0.0
C208 C 0.45713 0.1377 0.23201 0.0
C209 C 0.36421 0.16605 0.21434 0.0
C210 C 0.60016 0.14574 0.18966 0.0
C211 C 0.61835 0.09907 0.22427 0.0
N212 N 0.44036 0.1593 0.20933 0.0
N213 N 0.54532 0.10686 0.23241 0.0
H214 H 0.70833 0.89969 0.69172 0.0
H215 H 0.24478 0.86211 0.8121 0.0
H216 H 0.62688 0.83257 0.79086 0.0
H217 H 0.35399 0.93393 0.74655 0.0
H218 H 0.38056 0.84973 0.801 0.0
H219 H 0.56666 0.9095 0.69643 0.0
C220 C 0.65988 0.8867 0.713 0.0
C221 C 0.68058 0.86566 0.74292 0.0
C222 C 0.37508 0.86828 0.78982 0.0
C223 C 0.51975 0.87712 0.75008 0.0
C224 C 0.2983 0.87552 0.79733 0.0
C225 C 0.28775 0.89898 0.77936 0.0
C226 C 0.44105 0.88464 0.76408 0.0
C227 C 0.35894 0.91554 0.75997 0.0
C228 C 0.57951 0.89251 0.71659 0.0
C229 C 0.61451 0.84932 0.76868 0.0
N230 N 0.43224 0.90792 0.75192 0.0
N231 N 0.53739 0.85563 0.77286 0.0
H232 H 0.77086 0.61668 0.29553 0.0
H233 H 0.22978 0.65157 0.16692 0.0
H234 H 0.85362 0.68303 0.1937 0.0
H235 H 0.12737 0.58172 0.24606 0.0
H236 H 0.09476 0.66425 0.17849 0.0
H237 H 0.91152 0.60623 0.29061 0.0
C238 C 0.81941 0.62938 0.27365 0.0
C239 C 0.79933 0.65041 0.24321 0.0
C240 C 0.10159 0.64606 0.1927 0.0
C241 C 0.95913 0.63821 0.23574 0.0
C242 C 0.17801 0.63864 0.18504 0.0
C243 C 0.19044 0.61568 0.20648 0.0
C244 C 0.0376 0.63039 0.22201 0.0
C245 C 0.12114 0.59973 0.22981 0.0
C246 C 0.89923 0.62321 0.26994 0.0
C247 C 0.86549 0.66634 0.21646 0.0
N248 N 0.0481 0.60753 0.23781 0.0
N249 N 0.94201 0.65967 0.2122 0.0
H250 H 0.73735 0.36178 0.81768 0.0
H251 H 0.19812 0.3975 0.69252 0.0
H252 H 0.8434 0.43242 0.74425 0.0
H253 H 0.11882 0.33167 0.79758 0.0
H254 H 0.05672 0.40754 0.69694 0.0
H255 H 0.87314 0.34925 0.80747 0.0
C256 C 0.79014 0.37492 0.80127 0.0
C257 C 0.77866 0.39807 0.78096 0.0
C258 C 0.06997 0.39078 0.71847 0.0
C259 C 0.93208 0.38353 0.76673 0.0
C260 C 0.1502 0.38483 0.71507 0.0
C261 C 0.17143 0.36408 0.74656 0.0
C262 C 0.01084 0.37583 0.75337 0.0
C263 C 0.10603 0.34816 0.77402 0.0
C264 C 0.86696 0.36758 0.79431 0.0
C265 C 0.84901 0.41426 0.75955 0.0
N266 N 0.02903 0.35461 0.77793 0.0
N267 N 0.92236 0.40654 0.75211 0.0
H268 H 0.32774 0.29145 0.69346 0.0
H269 H 0.12985 0.22212 0.29696 0.0
H270 H 0.35498 0.32704 0.50337 0.0
H271 H 0.10655 0.18593 0.48674 0.0
H272 H 0.20683 0.26143 0.3716 0.0
H273 H 0.24932 0.25211 0.61912 0.0
C274 C 0.31964 0.29077 0.63638 0.0
C275 C 0.34816 0.31237 0.60442 0.0
C276 C 0.18373 0.24493 0.39684 0.0
C277 C 0.25607 0.268 0.51903 0.0
C278 C 0.13845 0.22266 0.35407 0.0
C279 C 0.1116 0.20089 0.38581 0.0
C280 C 0.2021 0.24528 0.47158 0.0
C281 C 0.12628 0.20239 0.46028 0.0
C282 C 0.27358 0.26849 0.59378 0.0
C283 C 0.33403 0.3107 0.52999 0.0
N284 N 0.17104 0.2241 0.50059 0.0
N285 N 0.28852 0.28902 0.48988 0.0
H286 H 0.75413 0.32104 0.90259 0.0
H287 H 0.71655 0.19401 0.08733 0.0
H288 H 0.50052 0.27203 0.91469 0.0
H289 H 0.9701 0.24315 0.07567 0.0
H290 H 0.63687 0.22301 0.02797 0.0
H291 H 0.8338 0.29222 0.96303 0.0
C292 C 0.71488 0.30398 0.91667 0.0
C293 C 0.62014 0.29907 0.90351 0.0
C294 C 0.70998 0.22759 0.03896 0.0
C295 C 0.71176 0.26614 0.97464 0.0
C296 C 0.75578 0.21114 0.0736 0.0
C297 C 0.85049 0.21601 0.08641 0.0
C298 C 0.75887 0.24915 0.01651 0.0
C299 C 0.89725 0.23857 0.06727 0.0
C300 C 0.76068 0.28763 0.95192 0.0
C301 C 0.57338 0.27661 0.92323 0.0
N302 N 0.85096 0.25414 0.03267 0.0
N303 N 0.61967 0.26114 0.95835 0.0
H304 H 0.62834 0.7225 0.29776 0.0
H305 H 0.8415 0.79302 0.69183 0.0
H306 H 0.61795 0.68671 0.48989 0.0
H307 H 0.85448 0.82838 0.49933 0.0
H308 H 0.76246 0.7534 0.61907 0.0
H309 H 0.70595 0.76211 0.37077 0.0
C310 C 0.64003 0.72315 0.35511 0.0
C311 C 0.61665 0.70141 0.3879 0.0
C312 C 0.78363 0.7698 0.59284 0.0
C313 C 0.70775 0.74618 0.47172 0.0
C314 C 0.83 0.79226 0.63448 0.0
C315 C 0.85465 0.81388 0.60147 0.0
C316 C 0.76199 0.76914 0.51799 0.0
C317 C 0.83639 0.81206 0.5268 0.0
C318 C 0.68562 0.74562 0.3969 0.0
C319 C 0.63509 0.70312 0.46258 0.0
N320 N 0.79073 0.7902 0.48767 0.0
N321 N 0.68005 0.725 0.50189 0.0
H322 H 0.47652 0.74379 0.08097 0.0
H323 H 0.00169 0.77165 0.8996 0.0
H324 H 0.21722 0.69397 0.07467 0.0
H325 H 0.26107 0.82145 0.90612 0.0
H326 H 0.0794 0.74228 0.9597 0.0
H327 H 0.39872 0.77297 0.01996 0.0
C328 C 0.40332 0.73917 0.06827 0.0
C329 C 0.35366 0.71623 0.08293 0.0
C330 C 0.11932 0.75954 0.94739 0.0
C331 C 0.26386 0.74941 0.01102 0.0
C332 C 0.07488 0.77622 0.91212 0.0
C333 C 0.12463 0.79922 0.89794 0.0
C334 C 0.2143 0.76585 0.96879 0.0
C335 C 0.21959 0.80406 0.91622 0.0
C336 C 0.35883 0.75574 0.03248 0.0
C337 C 0.25867 0.71132 0.06432 0.0
N338 N 0.26114 0.78768 0.95117 0.0
N339 N 0.21706 0.72762 0.02891 0.0
H340 H 0.82289 0.05265 0.98048 0.0
H341 H 0.16292 0.96426 -0.00206 0.0
H342 H 0.05761 0.05924 0.15277 0.0
H343 H 0.92544 0.95709 0.82796 0.0
H344 H 0.1278 0.99974 0.05415 0.0
H345 H 0.85951 0.01758 0.92385 0.0
C346 C 0.88133 0.04652 0.00703 0.0
C347 C 0.93654 0.05884 0.07206 0.0
C348 C 0.08394 0.99056 0.0041 0.0
C349 C -0.02007 0.01885 0.00667 0.0
C350 C 0.10431 0.97038 0.97171 0.0
C351 C 0.04785 0.95778 0.90742 0.0
C352 C 0.0062 0.99819 0.9723 0.0
C353 C -0.02776 0.96647 0.87648 0.0
C354 C 0.90256 0.02656 0.97439 0.0
C355 C 0.01198 0.05013 0.10341 0.0
N356 N 0.95351 0.986 0.90927 0.0
N357 N 0.03155 0.03078 0.07035 0.0
H358 H 0.89523 0.02754 0.31167 0.0
H359 H 0.05162 1.00281 0.71634 0.0
H360 H 0.16028 0.06185 0.44487 0.0
H361 H 0.79642 0.96457 0.57571 0.0
H362 H 0.07859 0.03144 0.62678 0.0
H363 H 0.85061 0.00886 0.41339 0.0
C364 C 0.94456 0.03105 0.36224 0.0
C365 C 0.03158 0.04666 0.36947 0.0
C366 C 0.01583 0.0171 0.61617 0.0
C367 C -0.02004 0.02518 0.48724 0.0
C368 C -0.00054 1.00096 0.66785 0.0
C369 C 0.92339 0.98046 0.65246 0.0
C370 C 0.95509 0.01286 0.54919 0.0
C371 C 0.8574 0.97955 0.58944 0.0
C372 C 0.9185 0.02051 0.42063 0.0
C373 C 0.09243 0.05009 0.4365 0.0
N374 N 0.87603 0.995 0.53925 0.0
N375 N 0.06531 0.03953 0.49284 0.0
H376 H 0.55941 0.55997 0.15726 0.0
H377 H 0.4126 0.45525 0.8284 0.0
H378 H 0.32135 0.55167 0.98691 0.0
H379 H 0.65191 0.46396 -0.00231 0.0
H380 H 0.38026 0.49102 0.88406 0.0
H381 H 0.59257 0.52446 0.10084 0.0
C382 C 0.51282 0.55038 0.1088 0.0
C383 C 0.43653 0.55871 0.07749 0.0
C384 C 0.44037 0.4853 0.90874 0.0
C385 C 0.47622 0.51831 0.01104 0.0
C386 C 0.45976 0.46503 0.87633 0.0
C387 C 0.53612 0.45672 0.90758 0.0
C388 C 0.49719 0.49736 0.97345 0.0
C389 C 0.59264 0.46973 0.97131 0.0
C390 C 0.53263 0.53024 0.07605 0.0
C391 C 0.38056 0.54587 0.01333 0.0
N392 N 0.57186 0.48932 0.00221 0.0
N393 N 0.40165 0.52639 0.9822 0.0
H394 H 0.2887 0.46165 0.57102 0.0
H395 H 0.66321 0.56253 0.44591 0.0
H396 H 0.54343 0.5005 0.71138 0.0
H397 H 0.4028 0.52483 0.31121 0.0
H398 H 0.61762 0.54223 0.54644 0.0
H399 H 0.32039 0.48957 0.48144 0.0
C400 C 0.34984 0.4766 0.58433 0.0
C401 C 0.41499 0.47804 0.64824 0.0
C402 C 0.57057 0.53843 0.4948 0.0
C403 C 0.45307 0.50968 0.5444 0.0
C404 C 0.59704 0.54977 0.43706 0.0
C405 C 0.53643 0.54571 0.36983 0.0
C406 C 0.48337 0.52267 0.48516 0.0
C407 C 0.45158 0.52886 0.36203 0.0
C408 C 0.36873 0.49233 0.53235 0.0
C409 C 0.49224 0.49818 0.66215 0.0
N410 N 0.42759 0.51812 0.41885 0.0
N411 N 0.51045 0.51275 0.6099 0.0
loop_
_geom_bond_atom_site_label_1
_geom_bond_atom_site_label_2
_geom_bond_distance
_geom_bond_site_symmetry_2
_ccdc_geom_bond_type
C0 O12 1.241 . S
C0 O13 1.280 1_455 S
C1 O14 1.277 . S
C1 O15 1.245 1_455 S
C2 O26 1.247 . S
C2 O28 1.289 . S
Mg3 O4 1.926 1_655 S
Mg3 O13 1.984 . S
Mg3 O15 1.988 . S
Mg3 O16 2.061 . S
O4 Mg3 1.926 1_455 S
O4 Mg5 1.986 . S
O4 Mg6 1.917 . S
Mg5 O4 1.986 . S
Mg5 O12 2.042 . S
Mg5 O14 2.041 . S
Mg5 O20 2.038 . S
Mg5 O28 2.238 . S
Mg6 O4 1.917 . S
Mg6 O7 1.917 . S
Mg6 O17 2.106 1_455 S
Mg6 O19 2.079 . S
Mg6 O28 2.106 . S
Mg6 O29 2.079 1_455 S
O7 Mg6 1.917 . S
O7 Mg8 1.926 . S
O7 Mg9 1.986 1_455 S
Mg8 O7 1.926 . S
Mg8 O22 1.984 . S
Mg8 O25 1.988 . S
Mg8 O26 2.061 . S
Mg9 O7 1.986 1_655 S
Mg9 O17 2.238 . S
Mg9 O21 2.042 . S
Mg9 O23 2.041 . S
Mg9 O30 2.038 . S
C10 O16 1.247 . S
C10 O17 1.289 . S
C11 O29 1.245 . S
C11 O30 1.274 . S
O12 C0 1.241 . S
O12 Mg5 2.042 . S
O13 C0 1.280 1_655 S
O13 Mg3 1.984 . S
O14 C1 1.277 . S
O14 Mg5 2.041 . S
O15 C1 1.245 1_655 S
O15 Mg3 1.988 . S
O16 Mg3 2.061 . S
O16 C10 1.247 . S
O17 Mg6 2.106 1_655 S
O17 Mg9 2.238 . S
O17 C10 1.289 . S
C18 O19 1.245 . S
C18 O20 1.274 . S
O19 Mg6 2.079 . S
O19 C18 1.245 . S
O20 Mg5 2.038 . S
O20 C18 1.274 . S
O21 Mg9 2.042 . S
O21 C24 1.241 1_654 S
O22 Mg8 1.984 . S
O22 C24 1.280 1_554 S
O23 Mg9 2.041 . S
O23 C27 1.277 . S
C24 O21 1.241 1_456 S
C24 O22 1.280 1_556 S
O25 Mg8 1.988 . S
O25 C27 1.245 1_455 S
O26 C2 1.247 . S
O26 Mg8 2.061 . S
C27 O23 1.277 . S
C27 O25 1.245 1_655 S
O28 C2 1.289 . S
O28 Mg5 2.238 . S
O28 Mg6 2.106 . S
O29 Mg6 2.079 1_655 S
O29 C11 1.245 . S
O30 Mg9 2.038 . S
O30 C11 1.274 . S
C31 O43 1.241 1_554 S
C31 O44 1.280 1_454 S
C32 O45 1.277 . S
C32 O46 1.245 1_455 S
C33 O57 1.247 . S
C33 O59 1.289 . S
Mg34 O35 1.926 1_655 S
Mg34 O44 1.984 . S
Mg34 O46 1.988 . S
Mg34 O47 2.061 . S
O35 Mg34 1.926 1_455 S
O35 Mg36 1.986 . S
O35 Mg37 1.917 . S
Mg36 O35 1.986 . S
Mg36 O43 2.042 . S
Mg36 O45 2.041 . S
Mg36 O51 2.038 . S
Mg36 O59 2.238 . S
Mg37 O35 1.917 . S
Mg37 O38 1.917 . S
Mg37 O48 2.106 1_455 S
Mg37 O50 2.079 . S
Mg37 O59 2.106 . S
Mg37 O60 2.079 1_455 S
O38 Mg37 1.917 . S
O38 Mg39 1.926 . S
O38 Mg40 1.986 1_455 S
Mg39 O38 1.926 . S
Mg39 O53 1.984 . S
Mg39 O56 1.988 . S
Mg39 O57 2.061 . S
Mg40 O38 1.986 1_655 S
Mg40 O48 2.238 . S
Mg40 O52 2.042 . S
Mg40 O54 2.041 . S
Mg40 O61 2.038 . S
C41 O47 1.247 . S
C41 O48 1.289 . S
C42 O60 1.245 . S
C42 O61 1.274 . S
O43 C31 1.241 1_556 S
O43 Mg36 2.042 . S
O44 C31 1.280 1_656 S
O44 Mg34 1.984 . S
O45 C32 1.277 . S
O45 Mg36 2.041 . S
O46 C32 1.245 1_655 S
O46 Mg34 1.988 . S
O47 Mg34 2.061 . S
O47 C41 1.247 . S
O48 Mg37 2.106 1_655 S
O48 Mg40 2.238 . S
O48 C41 1.289 . S
C49 O50 1.245 . S
C49 O51 1.274 . S
O50 Mg37 2.079 . S
O50 C49 1.245 . S
O51 Mg36 2.038 . S
O51 C49 1.274 . S
O52 Mg40 2.042 . S
O52 C55 1.241 1_655 S
O53 Mg39 1.984 . S
O53 C55 1.280 . S
O54 Mg40 2.041 . S
O54 C58 1.277 . S
C55 O52 1.241 1_455 S
C55 O53 1.280 . S
O56 Mg39 1.988 . S
O56 C58 1.245 1_455 S
O57 C33 1.247 . S
O57 Mg39 2.061 . S
C58 O54 1.277 . S
C58 O56 1.245 1_655 S
O59 C33 1.289 . S
O59 Mg36 2.238 . S
O59 Mg37 2.106 . S
O60 Mg37 2.079 1_655 S
O60 C42 1.245 . S
O61 Mg40 2.038 . S
O61 C42 1.274 . S
C62 O74 1.241 . S
C62 O75 1.280 . S
C63 O76 1.277 . S
C63 O77 1.245 . S
C64 O88 1.247 . S
C64 O90 1.289 . S
Mg65 O66 1.926 . S
Mg65 O75 1.984 . S
Mg65 O77 1.988 . S
Mg65 O78 2.061 . S
O66 Mg65 1.926 . S
O66 Mg67 1.986 . S
O66 Mg68 1.917 . S
Mg67 O66 1.986 . S
Mg67 O74 2.042 . S
Mg67 O76 2.041 . S
Mg67 O82 2.038 . S
Mg67 O90 2.238 . S
Mg68 O66 1.917 . S
Mg68 O69 1.917 . S
Mg68 O79 2.106 . S
Mg68 O81 2.079 . S
Mg68 O90 2.106 . S
Mg68 O91 2.079 . S
O69 Mg68 1.917 . S
O69 Mg70 1.926 . S
O69 Mg71 1.986 . S
Mg70 O69 1.926 . S
Mg70 O84 1.984 . S
Mg70 O87 1.988 . S
Mg70 O88 2.061 . S
Mg71 O69 1.986 . S
Mg71 O79 2.238 . S
Mg71 O83 2.042 . S
Mg71 O85 2.041 . S
Mg71 O92 2.038 . S
C72 O78 1.247 . S
C72 O79 1.289 . S
C73 O91 1.245 . S
C73 O92 1.274 . S
O74 C62 1.241 . S
O74 Mg67 2.042 . S
O75 C62 1.280 . S
O75 Mg65 1.984 . S
O76 C63 1.277 . S
O76 Mg67 2.041 . S
O77 C63 1.245 . S
O77 Mg65 1.988 . S
O78 Mg65 2.061 . S
O78 C72 1.247 . S
O79 Mg68 2.106 . S
O79 Mg71 2.238 . S
O79 C72 1.289 . S
C80 O81 1.245 . S
C80 O82 1.274 . S
O81 Mg68 2.079 . S
O81 C80 1.245 . S
O82 Mg67 2.038 . S
O82 C80 1.274 . S
O83 Mg71 2.042 . S
O83 C86 1.241 1_554 S
O84 Mg70 1.984 . S
O84 C86 1.280 1_554 S
O85 Mg71 2.041 . S
O85 C89 1.277 . S
C86 O83 1.241 1_556 S
C86 O84 1.280 1_556 S
O87 Mg70 1.988 . S
O87 C89 1.245 . S
O88 C64 1.247 . S
O88 Mg70 2.061 . S
C89 O85 1.277 . S
C89 O87 1.245 . S
O90 C64 1.289 . S
O90 Mg67 2.238 . S
O90 Mg68 2.106 . S
O91 Mg68 2.079 . S
O91 C73 1.245 . S
O92 Mg71 2.038 . S
O92 C73 1.274 . S
C93 O105 1.241 1_554 S
C93 O106 1.280 1_554 S
C94 O107 1.277 . S
C94 O108 1.245 . S
C95 O119 1.247 . S
C95 O121 1.289 . S
Mg96 O97 1.926 . S
Mg96 O106 1.984 . S
Mg96 O108 1.988 . S
Mg96 O109 2.061 . S
O97 Mg96 1.926 . S
O97 Mg98 1.986 . S
O97 Mg99 1.917 . S
Mg98 O97 1.986 . S
Mg98 O105 2.042 . S
Mg98 O107 2.041 . S
Mg98 O113 2.038 . S
Mg98 O121 2.238 . S
Mg99 O97 1.917 . S
Mg99 O100 1.917 . S
Mg99 O110 2.106 . S
Mg99 O112 2.079 . S
Mg99 O121 2.106 . S
Mg99 O122 2.079 . S
O100 Mg99 1.917 . S
O100 Mg101 1.926 . S
O100 Mg102 1.986 . S
Mg101 O100 1.926 . S
Mg101 O115 1.984 . S
Mg101 O118 1.988 . S
Mg101 O119 2.061 . S
Mg102 O100 1.986 . S
Mg102 O110 2.238 . S
Mg102 O114 2.042 . S
Mg102 O116 2.041 . S
Mg102 O123 2.038 . S
C103 O109 1.247 . S
C103 O110 1.289 . S
C104 O122 1.245 . S
C104 O123 1.274 . S
O105 C93 1.241 1_556 S
O105 Mg98 2.042 . S
O106 C93 1.280 1_556 S
O106 Mg96 1.984 . S
O107 C94 1.277 . S
O107 Mg98 2.041 . S
O108 C94 1.245 . S
O108 Mg96 1.988 . S
O109 Mg96 2.061 . S
O109 C103 1.247 . S
O110 Mg99 2.106 . S
O110 Mg102 2.238 . S
O110 C103 1.289 . S
C111 O112 1.245 . S
C111 O113 1.274 . S
O112 Mg99 2.079 . S
O112 C111 1.245 . S
O113 Mg98 2.038 . S
O113 C111 1.274 . S
O114 Mg102 2.042 . S
O114 C117 1.241 . S
O115 Mg101 1.984 . S
O115 C117 1.280 . S
O116 Mg102 2.041 . S
O116 C120 1.277 . S
C117 O114 1.241 . S
C117 O115 1.280 . S
O118 Mg101 1.988 . S
O118 C120 1.245 . S
O119 C95 1.247 . S
O119 Mg101 2.061 . S
C120 O116 1.277 . S
C120 O118 1.245 . S
O121 C95 1.289 . S
O121 Mg98 2.238 . S
O121 Mg99 2.106 . S
O122 Mg99 2.079 . S
O122 C104 1.245 . S
O123 Mg102 2.038 . S
O123 C104 1.274 . S
H124 C130 0.930 . S
H125 C134 0.930 . S
H126 C139 0.929 . S
H127 C137 0.929 . S
H128 C132 0.929 . S
H129 C138 0.929 . S
C130 H124 0.930 . S
C130 C131 1.367 . S
C130 C138 1.378 . S
C131 C130 1.367 . S
C131 C139 1.433 1_455 S
C132 H128 0.929 . S
C132 C134 1.378 . S
C132 C136 1.350 1_655 S
C133 C136 1.463 . S
C133 C138 1.350 . S
C133 N141 1.427 1_455 S
C134 H125 0.930 . S
C134 C132 1.378 . S
C134 C135 1.367 . S
C135 C134 1.367 . S
C135 C137 1.433 1_655 S
C136 C132 1.350 1_455 S
C136 C133 1.463 . S
C136 N140 1.427 . S
C137 H127 0.929 . S
C137 C135 1.433 1_455 S
C137 N140 1.384 . S
C138 H129 0.929 . S
C138 C130 1.378 . S
C138 C133 1.350 . S
C139 H126 0.929 . S
C139 C131 1.433 1_655 S
C139 N141 1.384 . S
N140 C136 1.427 . S
N140 C137 1.384 . S
N141 C133 1.427 1_655 S
N141 C139 1.384 . S
H142 C148 0.930 . S
H143 C152 0.930 . S
H144 C157 0.929 . S
H145 C155 0.929 . S
H146 C150 0.929 . S
H147 C156 0.929 . S
C148 H142 0.930 . S
C148 C149 1.367 1_655 S
C148 C156 1.378 . S
C149 C148 1.367 1_455 S
C149 C157 1.433 . S
C150 H146 0.929 . S
C150 C152 1.378 . S
C150 C154 1.350 . S
C151 C154 1.463 . S
C151 C156 1.350 1_455 S
C151 N159 1.427 . S
C152 H143 0.930 . S
C152 C150 1.378 . S
C152 C153 1.367 . S
C153 C152 1.367 . S
C153 C155 1.433 1_455 S
C154 C150 1.350 . S
C154 C151 1.463 . S
C154 N158 1.427 1_455 S
C155 H145 0.929 . S
C155 C153 1.433 1_655 S
C155 N158 1.384 . S
C156 H147 0.929 . S
C156 C148 1.378 . S
C156 C151 1.350 1_655 S
C157 H144 0.929 . S
C157 C149 1.433 . S
C157 N159 1.384 . S
N158 C154 1.427 1_655 S
N158 C155 1.384 . S
N159 C151 1.427 . S
N159 C157 1.384 . S
H160 C166 0.930 . S
H161 C170 0.930 . S
H162 C175 0.929 . S
H163 C173 0.929 . S
H164 C168 0.929 . S
H165 C174 0.929 . S
C166 H160 0.930 . S
C166 C167 1.367 . S
C166 C174 1.378 . S
C167 C166 1.367 . S
C167 C175 1.433 . S
C168 H164 0.929 . S
C168 C170 1.378 . S
C168 C172 1.350 . S
C169 C172 1.463 . S
C169 C174 1.350 . S
C169 N177 1.427 . S
C170 H161 0.930 . S
C170 C168 1.378 . S
C170 C171 1.367 . S
C171 C170 1.367 . S
C171 C173 1.433 . S
C172 C168 1.350 . S
C172 C169 1.463 . S
C172 N176 1.427 . S
C173 H163 0.929 . S
C173 C171 1.433 . S
C173 N176 1.384 . S
C174 H165 0.929 . S
C174 C166 1.378 . S
C174 C169 1.350 . S
C175 H162 0.929 . S
C175 C167 1.433 . S
C175 N177 1.384 . S
N176 C172 1.427 . S
N176 C173 1.384 . S
N177 C169 1.427 . S
N177 C175 1.384 . S
H178 C184 0.930 . S
H179 C188 0.930 . S
H180 C193 0.929 . S
H181 C191 0.929 . S
H182 C186 0.929 . S
H183 C192 0.929 . S
C184 H178 0.930 . S
C184 C185 1.367 . S
C184 C192 1.378 . S
C185 C184 1.367 . S
C185 C193 1.433 . S
C186 H182 0.929 . S
C186 C188 1.378 . S
C186 C190 1.350 . S
C187 C190 1.463 . S
C187 C192 1.350 . S
C187 N195 1.427 . S
C188 H179 0.930 . S
C188 C186 1.378 . S
C188 C189 1.367 . S
C189 C188 1.367 . S
C189 C191 1.433 . S
C190 C186 1.350 . S
C190 C187 1.463 . S
C190 N194 1.427 . S
C191 H181 0.929 . S
C191 C189 1.433 . S
C191 N194 1.384 . S
C192 H183 0.929 . S
C192 C184 1.378 . S
C192 C187 1.350 . S
C193 H180 0.929 . S
C193 C185 1.433 . S
C193 N195 1.384 . S
N194 C190 1.427 . S
N194 C191 1.384 . S
N195 C187 1.427 . S
N195 C193 1.384 . S
H196 C202 0.930 . S
H197 C206 0.930 . S
H198 C211 0.929 . S
H199 C209 0.929 . S
H200 C204 0.929 . S
H201 C210 0.929 . S
C202 H196 0.930 . S
C202 C203 1.367 . S
C202 C210 1.378 . S
C203 C202 1.367 . S
C203 C211 1.433 . S
C204 H200 0.929 . S
C204 C206 1.378 . S
C204 C208 1.350 . S
C205 C208 1.463 . S
C205 C210 1.350 . S
C205 N213 1.427 . S
C206 H197 0.930 . S
C206 C204 1.378 . S
C206 C207 1.367 . S
C207 C206 1.367 . S
C207 C209 1.433 . S
C208 C204 1.350 . S
C208 C205 1.463 . S
C208 N212 1.427 . S
C209 H199 0.929 . S
C209 C207 1.433 . S
C209 N212 1.384 . S
C210 H201 0.929 . S
C210 C202 1.378 . S
C210 C205 1.350 . S
C211 H198 0.929 . S
C211 C203 1.433 . S
C211 N213 1.384 . S
N212 C208 1.427 . S
N212 C209 1.384 . S
N213 C205 1.427 . S
N213 C211 1.384 . S
H214 C220 0.930 . S
H215 C224 0.930 . S
H216 C229 0.929 . S
H217 C227 0.929 . S
H218 C222 0.929 . S
H219 C228 0.929 . S
C220 H214 0.930 . S
C220 C221 1.367 . S
C220 C228 1.378 . S
C221 C220 1.367 . S
C221 C229 1.433 . S
C222 H218 0.929 . S
C222 C224 1.378 . S
C222 C226 1.350 . S
C223 C226 1.463 . S
C223 C228 1.350 . S
C223 N231 1.427 . S
C224 H215 0.930 . S
C224 C222 1.378 . S
C224 C225 1.367 . S
C225 C224 1.367 . S
C225 C227 1.433 . S
C226 C222 1.350 . S
C226 C223 1.463 . S
C226 N230 1.427 . S
C227 H217 0.929 . S
C227 C225 1.433 . S
C227 N230 1.384 . S
C228 H219 0.929 . S
C228 C220 1.378 . S
C228 C223 1.350 . S
C229 H216 0.929 . S
C229 C221 1.433 . S
C229 N231 1.384 . S
N230 C226 1.427 . S
N230 C227 1.384 . S
N231 C223 1.427 . S
N231 C229 1.384 . S
H232 C238 0.930 . S
H233 C242 0.930 . S
H234 C247 0.929 . S
H235 C245 0.929 . S
H236 C240 0.929 . S
H237 C246 0.929 . S
C238 H232 0.930 . S
C238 C239 1.367 . S
C238 C246 1.378 . S
C239 C238 1.367 . S
C239 C247 1.433 . S
C240 H236 0.929 . S
C240 C242 1.378 . S
C240 C244 1.350 . S
C241 C244 1.463 1_655 S
C241 C246 1.350 . S
C241 N249 1.427 . S
C242 H233 0.930 . S
C242 C240 1.378 . S
C242 C243 1.367 . S
C243 C242 1.367 . S
C243 C245 1.433 . S
C244 C240 1.350 . S
C244 C241 1.463 1_455 S
C244 N248 1.427 . S
C245 H235 0.929 . S
C245 C243 1.433 . S
C245 N248 1.384 . S
C246 H237 0.929 . S
C246 C238 1.378 . S
C246 C241 1.350 . S
C247 H234 0.929 . S
C247 C239 1.433 . S
C247 N249 1.384 . S
N248 C244 1.427 . S
N248 C245 1.384 . S
N249 C241 1.427 . S
N249 C247 1.384 . S
H250 C256 0.930 . S
H251 C260 0.930 . S
H252 C265 0.929 . S
H253 C263 0.929 . S
H254 C258 0.929 . S
H255 C264 0.929 . S
C256 H250 0.930 . S
C256 C257 1.367 . S
C256 C264 1.378 . S
C257 C256 1.367 . S
C257 C265 1.433 . S
C258 H254 0.929 . S
C258 C260 1.378 . S
C258 C262 1.350 . S
C259 C262 1.463 1_655 S
C259 C264 1.350 . S
C259 N267 1.427 . S
C260 H251 0.930 . S
C260 C258 1.378 . S
C260 C261 1.367 . S
C261 C260 1.367 . S
C261 C263 1.433 . S
C262 C258 1.350 . S
C262 C259 1.463 1_455 S
C262 N266 1.427 . S
C263 H253 0.929 . S
C263 C261 1.433 . S
C263 N266 1.384 . S
C264 H255 0.929 . S
C264 C256 1.378 . S
C264 C259 1.350 . S
C265 H252 0.929 . S
C265 C257 1.433 . S
C265 N267 1.384 . S
N266 C262 1.427 . S
N266 C263 1.384 . S
N267 C259 1.427 . S
N267 C265 1.384 . S
H268 C274 0.930 . S
H269 C278 0.930 . S
H270 C283 0.929 . S
H271 C281 0.929 . S
H272 C276 0.929 . S
H273 C282 0.929 . S
C274 H268 0.930 . S
C274 C275 1.367 . S
C274 C282 1.378 . S
C275 C274 1.367 . S
C275 C283 1.433 . S
C276 H272 0.929 . S
C276 C278 1.378 . S
C276 C280 1.350 . S
C277 C280 1.463 . S
C277 C282 1.350 . S
C277 N285 1.427 . S
C278 H269 0.930 . S
C278 C276 1.378 . S
C278 C279 1.367 . S
C279 C278 1.367 . S
C279 C281 1.433 . S
C280 C276 1.350 . S
C280 C277 1.463 . S
C280 N284 1.427 . S
C281 H271 0.929 . S
C281 C279 1.433 . S
C281 N284 1.384 . S
C282 H273 0.929 . S
C282 C274 1.378 . S
C282 C277 1.350 . S
C283 H270 0.929 . S
C283 C275 1.433 . S
C283 N285 1.384 . S
N284 C280 1.427 . S
N284 C281 1.384 . S
N285 C277 1.427 . S
N285 C283 1.384 . S
H286 C292 0.930 . S
H287 C296 0.930 . S
H288 C301 0.929 1_554 S
H289 C299 0.929 1_556 S
H290 C294 0.929 . S
H291 C300 0.929 . S
C292 H286 0.930 . S
C292 C293 1.367 . S
C292 C300 1.378 . S
C293 C292 1.367 . S
C293 C301 1.433 . S
C294 H290 0.929 . S
C294 C296 1.378 . S
C294 C298 1.350 . S
C295 C298 1.463 1_556 S
C295 C300 1.350 . S
C295 N303 1.427 1_556 S
C296 H287 0.930 . S
C296 C294 1.378 . S
C296 C297 1.367 . S
C297 C296 1.367 . S
C297 C299 1.433 . S
C298 C294 1.350 . S
C298 C295 1.463 1_554 S
C298 N302 1.427 1_554 S
C299 H289 0.929 1_554 S
C299 C297 1.433 . S
C299 N302 1.384 1_554 S
C300 H291 0.929 . S
C300 C292 1.378 . S
C300 C295 1.350 . S
C301 H288 0.929 1_556 S
C301 C293 1.433 . S
C301 N303 1.384 1_556 S
N302 C298 1.427 1_556 S
N302 C299 1.384 1_556 S
N303 C295 1.427 1_554 S
N303 C301 1.384 1_554 S
H304 C310 0.930 . S
H305 C314 0.930 . S
H306 C319 0.929 . S
H307 C317 0.929 . S
H308 C312 0.929 . S
H309 C318 0.929 . S
C310 H304 0.930 . S
C310 C311 1.367 . S
C310 C318 1.378 . S
C311 C310 1.367 . S
C311 C319 1.433 . S
C312 H308 0.929 . S
C312 C314 1.378 . S
C312 C316 1.350 . S
C313 C316 1.463 . S
C313 C318 1.350 . S
C313 N321 1.427 . S
C314 H305 0.930 . S
C314 C312 1.378 . S
C314 C315 1.367 . S
C315 C314 1.367 . S
C315 C317 1.433 . S
C316 C312 1.350 . S
C316 C313 1.463 . S
C316 N320 1.427 . S
C317 H307 0.929 . S
C317 C315 1.433 . S
C317 N320 1.384 . S
C318 H309 0.929 . S
C318 C310 1.378 . S
C318 C313 1.350 . S
C319 H306 0.929 . S
C319 C311 1.433 . S
C319 N321 1.384 . S
N320 C316 1.427 . S
N320 C317 1.384 . S
N321 C313 1.427 . S
N321 C319 1.384 . S
H322 C328 0.930 . S
H323 C332 0.930 . S
H324 C337 0.929 1_556 S
H325 C335 0.929 1_554 S
H326 C330 0.929 . S
H327 C336 0.929 . S
C328 H322 0.930 . S
C328 C329 1.367 . S
C328 C336 1.378 . S
C329 C328 1.367 . S
C329 C337 1.433 . S
C330 H326 0.929 . S
C330 C332 1.378 . S
C330 C334 1.350 . S
C331 C334 1.463 1_554 S
C331 C336 1.350 . S
C331 N339 1.427 1_554 S
C332 H323 0.930 . S
C332 C330 1.378 . S
C332 C333 1.367 . S
C333 C332 1.367 . S
C333 C335 1.433 . S
C334 C330 1.350 . S
C334 C331 1.463 1_556 S
C334 N338 1.427 1_556 S
C335 H325 0.929 1_556 S
C335 C333 1.433 . S
C335 N338 1.384 1_556 S
C336 H327 0.929 . S
C336 C328 1.378 . S
C336 C331 1.350 . S
C337 H324 0.929 1_554 S
C337 C329 1.433 . S
C337 N339 1.384 1_554 S
N338 C334 1.427 1_554 S
N338 C335 1.384 1_554 S
N339 C331 1.427 1_556 S
N339 C337 1.384 1_556 S
H340 C346 0.930 . S
H341 C350 0.930 1_655 S
H342 C355 0.929 . S
H343 C353 0.929 . S
H344 C348 0.929 1_554 S
H345 C354 0.929 1_556 S
C346 H340 0.930 . S
C346 C347 1.367 1_455 S
C346 C354 1.378 . S
C347 C346 1.367 1_655 S
C347 C355 1.433 . S
C348 H344 0.929 1_556 S
C348 C350 1.378 1_655 S
C348 C352 1.350 1_655 S
C349 C352 1.463 1_544 S
C349 C354 1.350 . S
C349 N357 1.427 1_455 S
C350 H341 0.930 1_455 S
C350 C348 1.378 1_455 S
C350 C351 1.367 . S
C351 C350 1.367 . S
C351 C353 1.433 . S
C352 C348 1.350 1_455 S
C352 C349 1.463 1_566 S
C352 N356 1.427 . S
C353 H343 0.929 . S
C353 C351 1.433 . S
C353 N356 1.384 . S
C354 H345 0.929 1_554 S
C354 C346 1.378 . S
C354 C349 1.350 . S
C355 H342 0.929 . S
C355 C347 1.433 . S
C355 N357 1.384 . S
N356 C352 1.427 . S
N356 C353 1.384 . S
N357 C349 1.427 1_655 S
N357 C355 1.384 . S
H358 C364 0.930 . S
H359 C368 0.930 . S
H360 C373 0.929 . S
H361 C371 0.929 . S
H362 C366 0.929 . S
H363 C372 0.929 . S
C364 H358 0.930 . S
C364 C365 1.367 1_655 S
C364 C372 1.378 . S
C365 C364 1.367 1_455 S
C365 C373 1.433 . S
C366 H362 0.929 . S
C366 C368 1.378 . S
C366 C370 1.350 . S
C367 C370 1.463 1_545 S
C367 C372 1.350 1_455 S
C367 N375 1.427 . S
C368 H359 0.930 . S
C368 C366 1.378 . S
C368 C369 1.367 1_455 S
C369 C368 1.367 1_655 S
C369 C371 1.433 . S
C370 C366 1.350 . S
C370 C367 1.463 1_565 S
C370 N374 1.427 1_455 S
C371 H361 0.929 . S
C371 C369 1.433 . S
C371 N374 1.384 . S
C372 H363 0.929 . S
C372 C364 1.378 . S
C372 C367 1.350 1_655 S
C373 H360 0.929 . S
C373 C365 1.433 . S
C373 N375 1.384 . S
N374 C370 1.427 1_655 S
N374 C371 1.384 . S
N375 C367 1.427 . S
N375 C373 1.384 . S
H376 C382 0.930 . S
H377 C386 0.930 . S
H378 C391 0.929 . S
H379 C389 0.929 . S
H380 C384 0.929 1_554 S
H381 C390 0.929 1_556 S
C382 H376 0.930 . S
C382 C383 1.367 . S
C382 C390 1.378 . S
C383 C382 1.367 . S
C383 C391 1.433 . S
C384 H380 0.929 1_556 S
C384 C386 1.378 . S
C384 C388 1.350 . S
C385 C388 1.463 1_554 S
C385 C390 1.350 . S
C385 N393 1.427 . S
C386 H377 0.930 . S
C386 C384 1.378 . S
C386 C387 1.367 . S
C387 C386 1.367 . S
C387 C389 1.433 . S
C388 C384 1.350 . S
C388 C385 1.463 1_556 S
C388 N392 1.427 . S
C389 H379 0.929 . S
C389 C387 1.433 . S
C389 N392 1.384 . S
C390 H381 0.929 1_554 S
C390 C382 1.378 . S
C390 C385 1.350 . S
C391 H378 0.929 . S
C391 C383 1.433 . S
C391 N393 1.384 . S
N392 C388 1.427 . S
N392 C389 1.384 . S
N393 C385 1.427 . S
N393 C391 1.384 . S
H394 C400 0.930 . S
H395 C404 0.930 . S
H396 C409 0.929 . S
H397 C407 0.929 . S
H398 C402 0.929 . S
H399 C408 0.929 . S
C400 H394 0.930 . S
C400 C401 1.367 . S
C400 C408 1.378 . S
C401 C400 1.367 . S
C401 C409 1.433 . S
C402 H398 0.929 . S
C402 C404 1.378 . S
C402 C406 1.350 . S
C403 C406 1.463 . S
C403 C408 1.350 . S
C403 N411 1.427 . S
C404 H395 0.930 . S
C404 C402 1.378 . S
C404 C405 1.367 . S
C405 C404 1.367 . S
C405 C407 1.433 . S
C406 C402 1.350 . S
C406 C403 1.463 . S
C406 N410 1.427 . S
C407 H397 0.929 . S
C407 C405 1.433 . S
C407 N410 1.384 . S
C408 H399 0.929 . S
C408 C400 1.378 . S
C408 C403 1.350 . S
C409 H396 0.929 . S
C409 C401 1.433 . S
C409 N411 1.384 . S
N410 C406 1.427 . S
N410 C407 1.384 . S
N411 C403 1.427 . S
N411 C409 1.384 . S
C131 C24 1.260 . S
C135 C0 1.260 1_655 S
C149 C55 1.258 . S
C153 C31 1.258 . S
C167 C86 1.274 . S
C171 C62 1.274 . S
C185 C93 1.259 . S
C189 C117 1.259 . S
C203 C10 0.963 . S
C207 C2 0.963 . S
C221 C41 0.970 . S
C225 C33 0.970 . S
C239 C64 0.966 . S
C243 C72 0.966 . S
C257 C95 0.974 . S
C261 C103 0.974 . S
C275 C104 1.640 . S
C279 C18 1.640 . S
C293 C94 1.992 . S
C297 C27 1.992 . S
C311 C80 1.651 . S
C315 C42 1.651 . S
C329 C89 1.992 . S
C333 C32 1.992 . S
C347 C11 2.132 . S
C351 C49 2.132 . S
C365 C1 1.327 . S
C369 C58 1.327 . S
C383 C73 2.132 . S
C387 C111 2.132 . S
C401 C120 1.328 . S
C405 C63 1.328 . S
