# Generated by pormake.
# Topology wkf, (6)-cn, num edge types: 1
# Building blocks:
#     Node 0, Type 0, BuildingBlock: IZENUY_clean_sbu_0, # of connection points: 6
#     Node 1, Type 0, BuildingBlock: IZENUY_clean_sbu_0, # of connection points: 6
#     Node 2, Type 0, BuildingBlock: IZENUY_clean_sbu_0, # of connection points: 6
#     Node 3, Type 0, BuildingBlock: IZENUY_clean_sbu_0, # of connection points: 6
#     Node 4, Type 0, BuildingBlock: IZENUY_clean_sbu_0, # of connection points: 6
#     Node 5, Type 0, BuildingBlock: IZENUY_clean_sbu_0, # of connection points: 6
#     Node 6, Type 0, BuildingBlock: IZENUY_clean_sbu_0, # of connection points: 6
#     Node 7, Type 0, BuildingBlock: IZENUY_clean_sbu_0, # of connection points: 6
#     Node 8, Type 0, BuildingBlock: IZENUY_clean_sbu_0, # of connection points: 6
#     Node 9, Type 0, BuildingBlock: IZENUY_clean_sbu_0, # of connection points: 6
#     Node 10, Type 0, BuildingBlock: IZENUY_clean_sbu_0, # of connection points: 6
#     Node 11, Type 0, BuildingBlock: IZENUY_clean_sbu_0, # of connection points: 6
#     Edge 12, Type (0, 0), BuildingBlock: EZIPEK_clean_linker_0, # of connection points: 2
#     Edge 13, Type (0, 0), BuildingBlock: EZIPEK_clean_linker_0, # of connection points: 2
#     Edge 14, Type (0, 0), BuildingBlock: EZIPEK_clean_linker_0, # of connection points: 2
#     Edge 15, Type (0, 0), BuildingBlock: EZIPEK_clean_linker_0, # of connection points: 2
#     Edge 16, Type (0, 0), BuildingBlock: EZIPEK_clean_linker_0, # of connection points: 2
#     Edge 17, Type (0, 0), BuildingBlock: EZIPEK_clean_linker_0, # of connection points: 2
#     Edge 18, Type (0, 0), BuildingBlock: EZIPEK_clean_linker_0, # of connection points: 2
#     Edge 19, Type (0, 0), BuildingBlock: EZIPEK_clean_linker_0, # of connection points: 2
#     Edge 20, Type (0, 0), BuildingBlock: EZIPEK_clean_linker_0, # of connection points: 2
#     Edge 21, Type (0, 0), BuildingBlock: EZIPEK_clean_linker_0, # of connection points: 2
#     Edge 22, Type (0, 0), BuildingBlock: EZIPEK_clean_linker_0, # of connection points: 2
#     Edge 23, Type (0, 0), BuildingBlock: EZIPEK_clean_linker_0, # of connection points: 2
#     Edge 24, Type (0, 0), BuildingBlock: EZIPEK_clean_linker_0, # of connection points: 2
#     Edge 25, Type (0, 0), BuildingBlock: EZIPEK_clean_linker_0, # of connection points: 2
#     Edge 26, Type (0, 0), BuildingBlock: EZIPEK_clean_linker_0, # of connection points: 2
#     Edge 27, Type (0, 0), BuildingBlock: EZIPEK_clean_linker_0, # of connection points: 2
#     Edge 28, Type (0, 0), BuildingBlock: EZIPEK_clean_linker_0, # of connection points: 2
#     Edge 29, Type (0, 0), BuildingBlock: EZIPEK_clean_linker_0, # of connection points: 2
#     Edge 30, Type (0, 0), BuildingBlock: EZIPEK_clean_linker_0, # of connection points: 2
#     Edge 31, Type (0, 0), BuildingBlock: EZIPEK_clean_linker_0, # of connection points: 2
#     Edge 32, Type (0, 0), BuildingBlock: EZIPEK_clean_linker_0, # of connection points: 2
#     Edge 33, Type (0, 0), BuildingBlock: EZIPEK_clean_linker_0, # of connection points: 2
#     Edge 34, Type (0, 0), BuildingBlock: EZIPEK_clean_linker_0, # of connection points: 2
#     Edge 35, Type (0, 0), BuildingBlock: EZIPEK_clean_linker_0, # of connection points: 2
#     Edge 36, Type (0, 0), BuildingBlock: EZIPEK_clean_linker_0, # of connection points: 2
#     Edge 37, Type (0, 0), BuildingBlock: EZIPEK_clean_linker_0, # of connection points: 2
#     Edge 38, Type (0, 0), BuildingBlock: EZIPEK_clean_linker_0, # of connection points: 2
#     Edge 39, Type (0, 0), BuildingBlock: EZIPEK_clean_linker_0, # of connection points: 2
#     Edge 40, Type (0, 0), BuildingBlock: EZIPEK_clean_linker_0, # of connection points: 2
#     Edge 41, Type (0, 0), BuildingBlock: EZIPEK_clean_linker_0, # of connection points: 2
#     Edge 42, Type (0, 0), BuildingBlock: EZIPEK_clean_linker_0, # of connection points: 2
#     Edge 43, Type (0, 0), BuildingBlock: EZIPEK_clean_linker_0, # of connection points: 2
#     Edge 44, Type (0, 0), BuildingBlock: EZIPEK_clean_linker_0, # of connection points: 2
#     Edge 45, Type (0, 0), BuildingBlock: EZIPEK_clean_linker_0, # of connection points: 2
#     Edge 46, Type (0, 0), BuildingBlock: EZIPEK_clean_linker_0, # of connection points: 2
#     Edge 47, Type (0, 0), BuildingBlock: EZIPEK_clean_linker_0, # of connection points: 2
# Relax obj value: 0.283
# Max RMSD: 0.255
# Mean RMSD: 0.255
data_MOF--net-wkf--node1-IZENUY_clean_sbu_0--edge1-EZIPEK_clean_linker_0
_symmetry_space_group_name_H-M    P1
_symmetry_Int_Tables_number       1
_symmetry_cell_setting            triclinic
loop_
_symmetry_equiv_pos_as_xyz
'x, y, z'
_cell_length_a     20.267142
_cell_length_b     20.288706
_cell_length_c     54.85995
_cell_angle_alpha  89.809139
_cell_angle_beta   90.032329
_cell_angle_gamma 119.84484
loop_
_atom_site_label
_atom_site_type_symbol
_atom_site_fract_x
_atom_site_fract_y
_atom_site_fract_z
_atom_type_partial_charge
Fe0 Fe 0.46491 0.14139 0.3545 0.0
Fe1 Fe 0.31103 0.12237 0.3711 0.0
O2 O 0.39398 0.11656 0.37741 0.0
Fe3 Fe 0.40866 0.08745 0.40669 0.0
O4 O 0.51188 0.14709 0.40609 0.0
O5 O 0.53407 0.21779 0.37339 0.0
O6 O 0.44806 0.2105 0.33832 0.0
C7 C 0.41782 0.24838 0.34517 0.0
C8 C 0.45991 0.01452 0.37708 0.0
O9 O 0.36683 0.22185 0.36137 0.0
C10 C 0.24963 -0.00489 0.40063 0.0
O11 O 0.39926 0.06687 0.33468 0.0
O12 O 0.30079 0.0846 0.33977 0.0
O13 O 0.41303 0.00715 0.39346 0.0
O14 O 0.49601 0.07609 0.36539 0.0
C15 C 0.35177 0.18127 0.41955 0.0
O16 O 0.24689 0.02478 0.38068 0.0
O17 O 0.3092 0.02322 0.41321 0.0
C18 C 0.33295 0.05238 0.32909 0.0
O19 O 0.3071 0.15867 0.4014 0.0
O20 O 0.40417 0.16488 0.42193 0.0
C21 C 0.55143 0.20843 0.3947 0.0
Fe22 Fe 0.30828 0.39855 0.57526 0.0
Fe23 Fe 0.32155 0.46162 0.52336 0.0
O24 O 0.2706 0.38992 0.54541 0.0
Fe25 Fe 0.18226 0.30902 0.53779 0.0
O26 O 0.1326 0.33005 0.56132 0.0
O27 O 0.21429 0.34825 0.59056 0.0
O28 O 0.30611 0.48467 0.58045 0.0
C29 C 0.3391 0.54346 0.56747 0.0
C30 C 0.2554 0.24829 0.56738 0.0
O31 O 0.3587 0.54024 0.54571 0.0
C32 C 0.26946 0.32381 0.49727 0.0
O33 O 0.41016 0.45099 0.5659 0.0
O34 O 0.40303 0.45086 0.52602 0.0
O35 O 0.19621 0.24456 0.55816 0.0
O36 O 0.31206 0.31228 0.57194 0.0
C37 C 0.1768 0.42909 0.51266 0.0
O38 O 0.29493 0.39508 0.49758 0.0
O39 O 0.22532 0.28183 0.51386 0.0
C40 C 0.4403 0.45918 0.54502 0.0
O41 O 0.24344 0.47824 0.5184 0.0
O42 O 0.15257 0.35896 0.51616 0.0
C43 C 0.1491 0.33526 0.58365 0.0
Fe44 Fe 0.90086 0.29637 0.73785 0.0
Fe45 Fe 0.83297 0.30041 0.68812 0.0
O46 O 0.86457 0.25531 0.7089 0.0
Fe47 Fe 0.86384 0.17099 0.70023 0.0
O48 O 0.79987 0.1177 0.72484 0.0
O49 O 0.86421 0.20236 0.75327 0.0
O50 O 0.81371 0.29089 0.74641 0.0
C51 C 0.7768 0.31479 0.73458 0.0
C52 C 0.0028 0.25058 0.7268 0.0
O53 O 0.79138 0.33303 0.7122 0.0
C54 C 0.92014 0.25809 0.65873 0.0
O55 O 0.94012 0.39703 0.7279 0.0
O56 O 0.92391 0.38519 0.68855 0.0
O57 O 0.94756 0.18939 0.71876 0.0
O58 O -0.00741 0.30567 0.73132 0.0
C59 C 0.72648 0.15397 0.6795 0.0
O60 O 0.86759 0.27452 0.66053 0.0
O61 O 0.92938 0.22038 0.6754 0.0
C62 C 0.95368 0.42626 0.70672 0.0
O63 O 0.74041 0.21891 0.68581 0.0
O64 O 0.77825 0.13579 0.68037 0.0
C65 C 0.8122 0.13581 0.74706 0.0
Fe66 Fe 0.52347 0.83098 0.85557 0.0
Fe67 Fe 0.6844 0.86914 0.86998 0.0
O68 O 0.59805 0.86756 0.87721 0.0
Fe69 Fe 0.58975 0.90465 0.90553 0.0
O70 O 0.50506 0.82073 0.91387 0.0
O71 O 0.44676 0.7858 0.87848 0.0
O72 O 0.52067 0.74092 0.85435 0.0
C73 C 0.57482 0.73347 0.84684 0.0
C74 C 0.51465 0.95434 0.8726 0.0
O75 O 0.64214 0.78873 0.84819 0.0
C76 C 0.73807 0.00215 0.8984 0.0
O77 O 0.59001 0.8717 0.82899 0.0
O78 O 0.70298 0.9375 0.84593 0.0
O79 O 0.53533 0.94826 0.89385 0.0
O80 O 0.51757 0.91628 0.85504 0.0
C81 C 0.65929 0.81332 0.91627 0.0
O82 O 0.74613 0.94865 0.89014 0.0
O83 O 0.6734 -0.00505 0.89964 0.0
C84 C 0.65928 0.92534 0.82798 0.0
O85 O 0.66885 0.8021 0.89418 0.0
O86 O 0.64159 0.86358 0.92217 0.0
C87 C 0.44673 0.77993 0.90155 0.0
Fe88 Fe 0.66407 0.52419 0.02396 0.0
Fe89 Fe 0.79545 0.6787 0.03922 0.0
O90 O 0.70748 0.59679 0.0459 0.0
Fe91 Fe 0.66394 0.5886 0.07449 0.0
O92 O 0.66563 0.50331 0.0816 0.0
O93 O 0.62293 0.44553 0.04654 0.0
O94 O 0.74515 0.51105 0.02278 0.0
C95 C 0.81003 0.56178 0.01622 0.0
C96 C 0.53978 0.526 0.04135 0.0
O97 O 0.82972 0.63136 0.01809 0.0
C98 C 0.71944 0.73755 0.06822 0.0
O99 O 0.69714 0.59093 0.99771 0.0
O100 O 0.75235 0.70383 0.01447 0.0
O101 O 0.56521 0.53569 0.06295 0.0
O102 O 0.58047 0.53182 0.02339 0.0
C103 C 0.8219 0.65176 0.08573 0.0
O104 O 0.7796 0.7426 0.05934 0.0
O105 O 0.65964 0.67427 0.06926 0.0
C106 C 0.72178 0.662 0.99607 0.0
O107 O 0.84163 0.65621 0.06367 0.0
O108 O 0.75567 0.63954 0.09114 0.0
C109 C 0.63886 0.44437 0.06887 0.0
Fe110 Fe 0.1166 0.81004 0.20452 0.0
Fe111 Fe 0.09554 0.67883 0.2387 0.0
O112 O 0.1178 0.72401 0.2096 0.0
Fe113 Fe 0.14251 0.68236 0.18524 0.0
O114 O 0.20415 0.77039 0.16877 0.0
O115 O 0.21427 0.85806 0.19346 0.0
O116 O 0.15508 0.85041 0.23457 0.0
C117 C 0.18155 0.83014 0.25213 0.0
C118 C 0.04368 0.71979 0.16292 0.0
O119 O 0.16991 0.76294 0.25393 0.0
C120 C 0.02848 0.55364 0.2094 0.0
O121 O 0.01931 0.77096 0.21543 0.0
O122 O 0.02498 0.70556 0.24666 0.0
O123 O 0.05973 0.66818 0.16775 0.0
O124 O 0.07683 0.78361 0.17359 0.0
C125 C 0.22261 0.66888 0.22315 0.0
O126 O 0.01848 0.59074 0.226 0.0
O127 O 0.08658 0.58456 0.19603 0.0
C128 C -0.00649 0.73675 0.23542 0.0
O129 O 0.16352 0.64487 0.23612 0.0
O130 O 0.22616 0.69518 0.2019 0.0
C131 C 0.23852 0.83876 0.17525 0.0
Fe132 Fe 0.84711 0.52395 0.49511 0.0
Fe133 Fe 0.86555 0.67839 0.48062 0.0
O134 O 0.87421 0.59806 0.4733 0.0
Fe135 Fe 0.91081 0.59347 0.44424 0.0
O136 O 0.82675 0.50678 0.43706 0.0
O137 O 0.80655 0.44711 0.4723 0.0
O138 O 0.75305 0.50911 0.49831 0.0
C139 C 0.73645 0.55814 0.50478 0.0
C140 C 0.97503 0.52955 0.47609 0.0
O141 O 0.78381 0.62816 0.50177 0.0
C142 C 0.00078 0.7435 0.45151 0.0
O143 O 0.88192 0.58895 0.52154 0.0
O144 O 0.9343 0.70312 0.50517 0.0
O145 O 0.96031 0.54313 0.45485 0.0
O146 O 0.93863 0.5312 0.49427 0.0
C147 C 0.81176 0.65253 0.43385 0.0
O148 O 0.94517 0.74619 0.46102 0.0
O149 O -0.0017 0.68077 0.4491 0.0
C150 C 0.92931 0.65964 0.52258 0.0
O151 O 0.79685 0.65636 0.45606 0.0
O152 O 0.86715 0.64279 0.42815 0.0
C153 C 0.79116 0.44832 0.44992 0.0
Fe154 Fe 0.29633 0.83357 0.66267 0.0
Fe155 Fe 0.16817 0.87066 0.65039 0.0
O156 O 0.25286 0.86895 0.64198 0.0
Fe157 Fe 0.29634 0.90281 0.61285 0.0
O158 O 0.33146 0.83573 0.60987 0.0
O159 O 0.28347 0.75881 0.64126 0.0
O160 O 0.2095 0.76356 0.67776 0.0
C161 C 0.13995 0.73654 0.67331 0.0
C162 C 0.42289 0.95973 0.6418 0.0
O163 O 0.11791 0.77223 0.66002 0.0
C164 C 0.23879 0.00154 0.62258 0.0
O165 O 0.31179 0.9063 0.68515 0.0
O166 O 0.20185 0.90452 0.68138 0.0
O167 O 0.38505 0.97489 0.62678 0.0
O168 O 0.39372 0.89597 0.6522 0.0
C169 C 0.14255 0.81759 0.60123 0.0
O170 O 0.20511 0.9692 0.64191 0.0
O171 O 0.26976 0.97475 0.60927 0.0
C172 C 0.26488 0.92657 0.69217 0.0
O173 O 0.12262 0.83745 0.62051 0.0
O174 O 0.21074 0.83517 0.59713 0.0
C175 C 0.30987 0.77189 0.61974 0.0
Fe176 Fe 0.45327 0.30574 0.83152 0.0
Fe177 Fe 0.29433 0.17647 0.81716 0.0
O178 O 0.38038 0.2608 0.80935 0.0
Fe179 Fe 0.39279 0.30002 0.77962 0.0
O180 O 0.47723 0.29377 0.77438 0.0
O181 O 0.53232 0.3386 0.80966 0.0
O182 O 0.46076 0.22185 0.83532 0.0
C183 C 0.40762 0.15701 0.84103 0.0
C184 C 0.46298 0.43196 0.81044 0.0
O185 O 0.33878 0.14069 0.83903 0.0
C186 C 0.24167 0.25382 0.78601 0.0
O187 O 0.3874 0.28148 0.85728 0.0
O188 O 0.27379 0.22675 0.84058 0.0
O189 O 0.44975 0.40095 0.78953 0.0
O190 O 0.45203 0.39348 0.8295 0.0
C191 C 0.32055 0.13895 0.77168 0.0
O192 O 0.23392 0.19477 0.79645 0.0
O193 O 0.30782 0.30872 0.78207 0.0
C194 C 0.31867 0.26599 0.85737 0.0
O195 O 0.30853 0.12128 0.79397 0.0
O196 O 0.34056 0.20633 0.76466 0.0
C197 C 0.53513 0.32119 0.78774 0.0
Fe198 Fe 0.11705 0.3118 0.97754 0.0
Fe199 Fe 0.07839 0.40719 0.94323 0.0
O200 O 0.10778 0.39305 0.97222 0.0
Fe201 Fe 0.12857 0.45936 0.99596 0.0
O202 O 0.2238 0.47586 0.99901 0.0
O203 O 0.19268 0.35603 1.00054 0.0
O204 O 0.19103 0.34234 0.95484 0.0
C205 C 0.18631 0.35994 0.93309 0.0
C206 C 0.04648 0.31431 0.01953 0.0
O207 O 0.12965 0.36692 0.92664 0.0
C208 C 0.00322 0.45618 0.97668 0.0
O209 O 0.0442 0.25042 0.95551 0.0
O210 O 0.99119 0.31736 0.94455 0.0
O211 O 0.09069 0.386 0.02023 0.0
O212 O 0.04329 0.27833 1.00046 0.0
C213 C 0.18952 0.55208 0.95373 0.0
O214 O 0.02325 0.45089 0.95514 0.0
O215 O 0.0362 0.44853 0.99488 0.0
C216 C 0.98954 0.25488 0.94626 0.0
O217 O 0.16312 0.49697 0.93937 0.0
O218 O 0.16816 0.54367 0.97578 0.0
C219 C 0.23983 0.42528 1.00425 0.0
Fe220 Fe 0.81379 0.12667 0.14629 0.0
Fe221 Fe 0.67452 0.08942 0.11349 0.0
O222 O 0.72541 0.12301 0.14122 0.0
Fe223 Fe 0.68484 0.15122 0.1648 0.0
O224 O 0.77407 0.21709 0.1798 0.0
O225 O 0.8611 0.2269 0.1543 0.0
O226 O 0.84836 0.15769 0.11529 0.0
C227 C 0.82283 0.17556 0.09688 0.0
C228 C 0.72846 0.06059 0.1895 0.0
O229 O 0.75395 0.159 0.09535 0.0
C230 C 0.5541 0.02907 0.14532 0.0
O231 O 0.77661 0.02745 0.13814 0.0
O232 O 0.70293 0.01927 0.10744 0.0
O233 O 0.67471 0.07231 0.18352 0.0
O234 O 0.79215 0.0957 0.17854 0.0
C235 C 0.66447 0.21997 0.1251 0.0
O236 O 0.5905 0.01459 0.12957 0.0
O237 O 0.58633 0.09311 0.15526 0.0
C238 C 0.73899 -0.00557 0.11935 0.0
O239 O 0.63926 0.15707 0.11407 0.0
O240 O 0.6932 0.2298 0.14626 0.0
C241 C 0.84014 0.25394 0.17119 0.0
Fe242 Fe 0.59767 0.68274 0.27771 0.0
Fe243 Fe 0.52607 0.67631 0.3281 0.0
O244 O 0.60201 0.72271 0.30694 0.0
Fe245 Fe 0.68437 0.81025 0.31463 0.0
O246 O 0.66587 0.85924 0.28998 0.0
O247 O 0.65326 0.77559 0.26223 0.0
O248 O 0.5146 0.68781 0.26952 0.0
C249 C 0.45494 0.66573 0.28186 0.0
C250 C 0.74627 0.73305 0.28865 0.0
O251 O 0.45125 0.64855 0.3044 0.0
C252 C 0.66241 0.72478 0.35582 0.0
O253 O 0.53899 0.58201 0.28705 0.0
O254 O 0.52533 0.58759 0.32645 0.0
O255 O 0.74911 0.79398 0.29538 0.0
O256 O 0.68215 0.67585 0.2841 0.0
C257 C 0.56816 0.82248 0.33973 0.0
O258 O 0.59065 0.69775 0.35457 0.0
O259 O 0.70703 0.76584 0.33919 0.0
C260 C 0.51973 0.55019 0.30773 0.0
O261 O 0.51712 0.75899 0.3326 0.0
O262 O 0.63743 0.84439 0.3359 0.0
C263 C 0.66299 0.8405 0.26786 0.0
C264 C 0.19088 0.87101 0.29602 0.0
C265 C 0.22166 0.88584 0.27209 0.0
C266 C 0.31912 0.01409 0.28494 0.0
C267 C 0.29269 -0.00372 0.3093 0.0
N268 N 0.21657 0.89949 0.33882 0.0
N269 N 0.32461 0.96607 0.24512 0.0
C270 C 0.23204 0.92249 0.31509 0.0
C271 C 0.28841 0.95603 0.26691 0.0
N272 N 0.12118 0.80915 0.30057 0.0
N273 N 0.37247 0.08688 0.2789 0.0
H274 H 0.3048 0.92427 0.23174 0.0
H275 H 0.37805 0.01237 0.24142 0.0
H276 H 0.39617 0.1307 0.29164 0.0
H277 H 0.38817 0.10517 0.26098 0.0
H278 H 0.09262 0.80071 0.31708 0.0
H279 H 0.08863 0.77003 0.28722 0.0
H280 H 0.1777 0.84396 0.34402 0.0
H281 H 0.24965 0.93312 0.35314 0.0
C282 C 0.30093 0.31519 0.45269 0.0
C283 C 0.29218 0.28849 0.47723 0.0
C284 C 0.31831 0.18819 0.4634 0.0
C285 C 0.33582 0.2206 0.4397 0.0
N286 N 0.35874 0.32489 0.41321 0.0
N287 N 0.31276 0.20947 0.50625 0.0
C288 C 0.33173 0.28718 0.43481 0.0
C289 C 0.30663 0.22785 0.48268 0.0
N290 N 0.27596 0.3639 0.4459 0.0
N291 N 0.30922 0.11765 0.46752 0.0
H292 H 0.30818 0.23771 0.52131 0.0
H293 H 0.33169 0.17177 0.51085 0.0
H294 H 0.31623 0.08556 0.4541 0.0
H295 H 0.28711 0.0877 0.48373 0.0
H296 H 0.27372 0.37836 0.4278 0.0
H297 H 0.24951 0.38336 0.45776 0.0
H298 H 0.36483 0.37814 0.40969 0.0
H299 H 0.38239 0.30669 0.3998 0.0
C300 C 0.00761 0.35127 0.62602 0.0
C301 C 0.96807 0.27631 0.63613 0.0
C302 C 0.04886 0.24174 0.6123 0.0
C303 C 0.08769 0.31574 0.60196 0.0
N304 N 0.09714 0.43765 0.59586 0.0
N305 N 0.93427 0.14505 0.63189 0.0
C306 C 0.06461 0.36933 0.60781 0.0
C307 C 0.98375 0.22006 0.6271 0.0
N308 N -0.00668 0.40634 0.6343 0.0
N309 N 0.07511 0.19234 0.60852 0.0
H310 H 0.88371 0.1268 0.64153 0.0
H311 H 0.93857 0.10081 0.62392 0.0
H312 H 0.12255 0.20595 0.59787 0.0
H313 H 0.05427 0.14084 0.61778 0.0
H314 H 0.02873 0.46409 0.63091 0.0
H315 H 0.94645 0.39506 0.64484 0.0
H316 H 0.0766 0.47551 0.59675 0.0
H317 H 0.14266 0.45486 0.58385 0.0
C318 C 0.69005 0.03643 0.76765 0.0
C319 C 0.77098 0.07523 0.76603 0.0
C320 C 0.77134 0.994 0.79931 0.0
C321 C 0.69375 0.96978 0.8048 0.0
N322 N 0.58074 0.97636 0.79415 0.0
N323 N 0.88945 0.08948 0.78114 0.0
C324 C 0.65316 0.9926 0.78885 0.0
C325 C 0.81192 0.05414 0.78229 0.0
N326 N 0.64754 0.0401 0.74894 0.0
N327 N 0.80495 0.9557 0.80891 0.0
H328 H 0.92134 0.12835 0.76757 0.0
H329 H 0.92222 0.08277 0.79452 0.0
H330 H 0.77492 0.90586 0.81908 0.0
H331 H 0.85921 0.96687 0.80399 0.0
H332 H 0.58854 0.00613 0.74813 0.0
H333 H 0.6711 0.07128 0.73312 0.0
H334 H 0.55297 -0.00024 0.78449 0.0
H335 H 0.55046 0.94606 0.80938 0.0
C336 C 0.74035 0.81633 0.9519 0.0
C337 C 0.67937 0.77369 0.93551 0.0
C338 C 0.66362 0.65507 0.95359 0.0
C339 C 0.71632 0.69789 0.97237 0.0
N340 N 0.83138 0.81567 0.98035 0.0
N341 N 0.58078 0.6517 0.92109 0.0
C342 C 0.76207 0.77785 0.96911 0.0
C343 C 0.64083 0.69286 0.93636 0.0
N344 N 0.77851 0.89391 0.95096 0.0
N345 N 0.64145 0.58008 0.95035 0.0
H346 H 0.56408 0.67614 0.90743 0.0
H347 H 0.54323 0.59374 0.92325 0.0
H348 H 0.66741 0.55332 0.95899 0.0
H349 H 0.6073 0.54747 0.936 0.0
H350 H 0.81473 0.9281 0.96471 0.0
H351 H 0.77163 0.92458 0.93695 0.0
H352 H 0.87072 0.87273 0.97736 0.0
H353 H 0.85464 0.78746 0.98986 0.0
C354 C 0.01212 0.74102 0.12003 0.0
C355 C 0.98781 0.70749 0.14338 0.0
C356 C 0.85734 0.63487 0.12861 0.0
C357 C 0.87969 0.67144 0.1055 0.0
N358 N 0.9761 0.78037 0.08312 0.0
N359 N 0.88317 0.65186 0.17167 0.0
C360 C 0.95667 0.73037 0.10214 0.0
C361 C 0.90916 0.66325 0.14828 0.0
N362 N 0.08787 0.78434 0.11504 0.0
N363 N 0.78822 0.57109 0.13183 0.0
H364 H 0.9196 0.67529 0.18649 0.0
H365 H 0.82542 0.62569 0.17598 0.0
H366 H 0.7511 0.5432 0.11754 0.0
H367 H 0.77219 0.5408 0.14819 0.0
H368 H 0.10901 0.80266 0.09751 0.0
H369 H 0.12946 0.79841 0.12832 0.0
H370 H 0.03007 0.82777 0.08114 0.0
H371 H 0.93648 0.78104 0.07118 0.0
C372 C 0.05399 0.81134 0.56817 0.0
C373 C 0.08435 0.77442 0.58235 0.0
C374 C 0.00929 0.65746 0.55878 0.0
C375 C 0.97571 0.69391 0.54526 0.0
N376 N 0.94634 0.79584 0.54487 0.0
N377 N 0.07966 0.65827 0.59477 0.0
C378 C 0.99214 0.76799 0.5523 0.0
C379 C 0.0582 0.69609 0.57883 0.0
N380 N 0.08613 0.88847 0.56903 0.0
N381 N -0.00188 0.58779 0.55214 0.0
H382 H 0.11833 0.68541 0.60887 0.0
H383 H 0.05477 0.59934 0.59534 0.0
H384 H 0.96331 0.55541 0.53805 0.0
H385 H 0.02783 0.56317 0.5597 0.0
H386 H 0.07082 0.91885 0.55718 0.0
H387 H 0.13366 0.92237 0.57968 0.0
H388 H 0.95265 0.84709 0.55117 0.0
H389 H 0.89621 0.76342 0.53512 0.0
C390 C 0.27481 0.04509 0.70981 0.0
C391 C 0.28407 0.9808 0.71297 0.0
C392 C 0.32064 0.01949 0.75562 0.0
C393 C 0.30189 0.07852 0.75279 0.0
N394 N 0.23248 0.1241 0.72873 0.0
N395 N 0.30464 0.89993 0.74055 0.0
C396 C 0.27014 0.0841 0.73037 0.0
C397 C 0.30407 0.96604 0.73635 0.0
N398 N 0.27513 0.07227 0.68706 0.0
N399 N 0.35598 0.01483 0.77619 0.0
H400 H 0.29424 0.86013 0.72699 0.0
H401 H 0.30948 0.88175 0.7579 0.0
H402 H 0.36482 0.0479 0.7915 0.0
H403 H 0.38053 0.98041 0.77754 0.0
H404 H 0.27352 0.12221 0.68395 0.0
H405 H 0.28936 0.05161 0.67188 0.0
H406 H 0.20379 0.12462 0.713 0.0
H407 H 0.22106 0.14764 0.74388 0.0
C408 C 0.28575 0.32552 0.92005 0.0
C409 C 0.23739 0.35519 0.91406 0.0
C410 C 0.25937 0.3439 0.87056 0.0
C411 C 0.29218 0.29821 0.87692 0.0
N412 N 0.3323 0.24169 0.9083 0.0
N413 N 0.21357 0.42794 0.88425 0.0
C414 C 0.30485 0.28857 0.90181 0.0
C415 C 0.23365 0.37426 0.88936 0.0
N416 N 0.31956 0.33891 0.94243 0.0
N417 N 0.25398 0.35923 0.84658 0.0
H418 H 0.20689 0.45984 0.89787 0.0
H419 H 0.21293 0.44826 0.86689 0.0
H420 H 0.28138 0.34755 0.83261 0.0
H421 H 0.2214 0.38235 0.84031 0.0
H422 H 0.35982 0.32329 0.947 0.0
H423 H 0.31758 0.37666 0.95483 0.0
H424 H 0.3339 0.226 0.92631 0.0
H425 H 0.34698 0.21303 0.89569 0.0
C426 C 0.86729 0.1743 0.05422 0.0
C427 C 0.87635 0.21392 0.07631 0.0
C428 C 0.00485 0.31139 0.06359 0.0
C429 C -0.00544 0.27356 0.04086 0.0
N430 N 0.9319 0.14904 0.02196 0.0
N431 N 0.94797 0.32617 0.10054 0.0
C432 C 0.92999 0.19953 0.038 0.0
C433 C 0.94363 0.28411 0.08056 0.0
N434 N 0.79915 0.11172 0.04869 0.0
N435 N 0.07554 0.36804 0.07022 0.0
H436 H 0.90459 0.30779 0.11343 0.0
H437 H 0.99084 0.38213 0.10317 0.0
H438 H 0.12424 0.38234 0.0601 0.0
H439 H 0.0884 0.39327 0.08735 0.0
H440 H 0.78682 0.08672 0.0315 0.0
H441 H 0.75261 0.08839 0.06044 0.0
H442 H 0.8882 0.09297 0.02031 0.0
H443 H 0.98179 0.15742 0.01376 0.0
C444 C 0.6376 0.93345 0.24499 0.0
C445 C 0.68243 0.89863 0.24837 0.0
C446 C 0.75568 0.96489 0.21193 0.0
C447 C 0.71762 0.00838 0.21065 0.0
N448 N 0.64124 0.0494 0.23316 0.0
N449 N 0.79728 0.8967 0.23821 0.0
C450 C 0.66412 -0.00266 0.22932 0.0
C451 C 0.7457 0.91932 0.23288 0.0
N452 N 0.56785 0.90355 0.25569 0.0
N453 N 0.79767 0.96228 0.19291 0.0
H454 H 0.79267 0.86423 0.25351 0.0
H455 H 0.84858 0.91699 0.22885 0.0
H456 H 0.80481 0.99025 0.17651 0.0
H457 H 0.81868 0.92469 0.19241 0.0
H458 H 0.53061 0.9239 0.25208 0.0
H459 H 0.54445 0.85325 0.26576 0.0
H460 H 0.60549 0.04463 0.24755 0.0
H461 H 0.66609 0.10194 0.22433 0.0
C462 C 0.74601 0.62456 0.39249 0.0
C463 C 0.77117 0.67005 0.41407 0.0
C464 C 0.71891 0.74852 0.39787 0.0
C465 C 0.6958 0.70392 0.37644 0.0
N466 N 0.69689 0.60762 0.35125 0.0
N467 N 0.79411 0.78514 0.43479 0.0
C468 C 0.7118 0.64411 0.37324 0.0
C469 C 0.76001 0.7341 0.41627 0.0
N470 N 0.75257 0.56099 0.39043 0.0
N471 N 0.70336 0.80644 0.40029 0.0
H472 H 0.82843 0.78072 0.44803 0.0
H473 H 0.79525 0.83684 0.43594 0.0
H474 H 0.68387 0.82559 0.38586 0.0
H475 H 0.70695 0.83369 0.41669 0.0
H476 H 0.72427 0.5191 0.37737 0.0
H477 H 0.78143 0.54596 0.40275 0.0
H478 H 0.71685 0.57123 0.34624 0.0
H479 H 0.66877 0.61757 0.33704 0.0
C480 C 0.51676 0.90962 0.33548 0.0
C481 C 0.54445 0.8735 0.35098 0.0
C482 C 0.50943 0.92377 0.38631 0.0
C483 C 0.47462 0.95231 0.3703 0.0
N484 N 0.41432 0.93577 0.33146 0.0
N485 N 0.54623 0.82773 0.39158 0.0
C486 C 0.46914 0.93442 0.34533 0.0
C487 C 0.53479 0.87493 0.37665 0.0
N488 N 0.53585 0.9206 0.31145 0.0
N489 N 0.51959 0.94388 0.41029 0.0
H490 H 0.55936 0.78775 0.38477 0.0
H491 H 0.53458 0.82289 0.41021 0.0
H492 H 0.50032 0.97832 0.41787 0.0
H493 H 0.55119 0.92999 0.42209 0.0
H494 H 0.51963 0.95101 0.2999 0.0
H495 H 0.57453 0.90645 0.30414 0.0
H496 H 0.40674 0.92166 0.31302 0.0
H497 H 0.36963 0.93832 0.33988 0.0
C498 C 0.53076 0.43072 0.52455 0.0
C499 C 0.51992 0.4771 0.54131 0.0
C500 C 0.65608 0.57022 0.53844 0.0
C501 C 0.66229 0.53129 0.51771 0.0
N502 N 0.59647 0.42846 0.48871 0.0
N503 N 0.5718 0.59575 0.563 0.0
C504 C 0.5974 0.46208 0.51031 0.0
C505 C 0.58256 0.54807 0.54815 0.0
N506 N 0.47537 0.35689 0.52151 0.0
N507 N 0.71978 0.62545 0.54965 0.0
H508 H 0.51932 0.5808 0.57082 0.0
H509 H 0.61395 0.65173 0.56622 0.0
H510 H 0.77462 0.6392 0.54451 0.0
H511 H 0.71791 0.65089 0.56591 0.0
H512 H 0.48309 0.31783 0.51139 0.0
H513 H 0.42443 0.33366 0.53109 0.0
H514 H 0.54758 0.38295 0.48139 0.0
H515 H 0.64158 0.45107 0.47666 0.0
C516 C 0.10115 0.6393 0.70723 0.0
C517 C 0.08401 0.66139 0.68442 0.0
C518 C 0.96649 0.53851 0.6835 0.0
C519 C -0.00557 0.5101 0.70223 0.0
N520 N 0.09569 0.53555 0.73065 0.0
N521 N -0.0003 0.62196 0.64908 0.0
C522 C 0.0636 0.56109 0.71395 0.0
C523 C 0.01622 0.60868 0.67211 0.0
N524 N 0.15061 0.69307 0.72303 0.0
N525 N 0.8918 0.49932 0.67667 0.0
H526 H 0.03229 0.67113 0.63913 0.0
H527 H 0.95579 0.57988 0.63876 0.0
H528 H 0.85193 0.44894 0.68497 0.0
H529 H 0.86774 0.52175 0.66479 0.0
H530 H 0.16081 0.67992 0.74051 0.0
H531 H 0.17264 0.75101 0.71994 0.0
H532 H 0.15005 0.57017 0.73769 0.0
H533 H 0.0714 0.47882 0.73587 0.0
C534 C 0.48567 0.09425 0.83618 0.0
C535 C 0.42871 0.10003 0.84944 0.0
C536 C 0.4255 0.00679 0.87897 0.0
C537 C 0.48942 0.00994 0.86717 0.0
N538 N 0.59286 0.07388 0.83872 0.0
N539 N 0.34953 0.06706 0.88548 0.0
C540 C 0.5232 0.05892 0.84705 0.0
C541 C 0.39972 0.05761 0.87142 0.0
N542 N 0.50183 0.11924 0.81265 0.0
N543 N 0.38747 0.95355 0.89665 0.0
H544 H 0.32678 0.10092 0.88029 0.0
H545 H 0.33415 0.045 0.90304 0.0
H546 H 0.40517 0.91644 0.90303 0.0
H547 H 0.33524 0.94245 0.90373 0.0
H548 H 0.53438 0.10541 0.80134 0.0
H549 H 0.47678 0.14657 0.80366 0.0
H550 H 0.62233 0.11371 0.82511 0.0
H551 H 0.62438 0.05219 0.84706 0.0
C552 C 0.38002 0.50784 1.00332 0.0
C553 C 0.3152 0.44867 0.0149 0.0
C554 C 0.39765 0.43921 0.04578 0.0
C555 C 0.46055 0.5054 0.03583 0.0
N556 N 0.50606 0.61407 0.00907 0.0
N557 N 0.26073 0.365 0.04971 0.0
C558 C 0.44963 0.54352 0.01595 0.0
C559 C 0.3233 0.41639 0.03697 0.0
N560 N 0.37685 0.52657 0.97959 0.0
N561 N 0.40877 0.39522 0.0623 0.0
H562 H 0.20534 0.34519 0.0437 0.0
H563 H 0.26394 0.34656 0.0672 0.0
H564 H 0.46228 0.40828 0.06863 0.0
H565 H 0.36552 0.34209 0.06801 0.0
H566 H 0.42592 0.56056 0.96953 0.0
H567 H 0.32727 0.50044 0.96917 0.0
H568 H 0.49836 0.64591 0.99561 0.0
H569 H 0.55722 0.64367 0.01859 0.0
C570 C 0.91488 0.45938 0.18685 0.0
C571 C 0.97207 0.47338 0.20408 0.0
C572 C 0.94188 0.34052 0.20064 0.0
C573 C 0.89165 0.3304 0.18112 0.0
N574 N 0.84434 0.38587 0.15199 0.0
N575 N 0.0449 0.42967 0.22663 0.0
C576 C 0.88194 0.39142 0.17322 0.0
C577 C 0.98693 0.41443 0.21084 0.0
N578 N 0.89155 0.51111 0.18366 0.0
N579 N 0.9456 0.27953 0.20957 0.0
H580 H 0.07544 0.48188 0.23544 0.0
H581 H 0.06469 0.39206 0.23016 0.0
H582 H 0.91535 0.2255 0.20189 0.0
H583 H 0.97509 0.28147 0.22535 0.0
H584 H 0.84434 0.50035 0.17321 0.0
H585 H 0.9143 0.5606 0.19391 0.0
H586 H 0.84111 0.43115 0.14424 0.0
H587 H 0.82459 0.33877 0.14066 0.0
C588 C 0.03437 0.44625 0.47079 0.0
C589 C 0.03643 0.51161 0.48087 0.0
C590 C 0.12469 0.51794 0.51236 0.0
C591 C 0.12685 0.45547 0.50163 0.0
N592 N 0.09579 0.3704 0.4673 0.0
N593 N 0.10109 0.62235 0.50631 0.0
C594 C 0.08524 0.42251 0.47983 0.0
C595 C 0.08777 0.55169 0.49997 0.0
N596 N 0.98184 0.40474 0.45339 0.0
N597 N 0.15332 0.54209 0.53521 0.0
H598 H 0.0746 0.64873 0.49758 0.0
H599 H 0.14344 0.65722 0.51854 0.0
H600 H 0.1769 0.5164 0.54581 0.0
H601 H 0.14584 0.58211 0.54476 0.0
H602 H 0.97066 0.35107 0.44787 0.0
H603 H 0.94618 0.42181 0.44539 0.0
H604 H 0.07379 0.35135 0.44994 0.0
H605 H 0.13173 0.35079 0.4732 0.0
C606 C 0.56449 0.01435 0.63792 0.0
C607 C 0.50192 0.01654 0.64858 0.0
C608 C 0.58455 0.09865 0.68103 0.0
C609 C 0.64916 0.10244 0.66927 0.0
N610 N 0.7012 0.07863 0.63279 0.0
N611 N 0.45535 0.074 0.67693 0.0
C612 C 0.63946 0.06412 0.64669 0.0
C613 C 0.51312 0.06315 0.66903 0.0
N614 N 0.55233 0.96428 0.61955 0.0
N615 N 0.59023 0.12616 0.70414 0.0
H616 H 0.40265 0.04918 0.66832 0.0
H617 H 0.46206 0.11337 0.69025 0.0
H618 H 0.64057 0.15182 0.71409 0.0
H619 H 0.54324 0.11679 0.71449 0.0
H620 H 0.59445 0.9537 0.61303 0.0
H621 H 0.49876 0.92979 0.61191 0.0
H622 H 0.69675 0.05768 0.61519 0.0
H623 H 0.75679 0.1181 0.6376 0.0
C624 C 0.59177 0.61975 0.84 0.0
C625 C 0.55693 0.66284 0.83337 0.0
C626 C 0.46857 0.55923 0.80644 0.0
C627 C 0.50301 0.51619 0.81345 0.0
N628 N 0.6158 0.51881 0.82862 0.0
N629 N 0.47905 0.68342 0.80438 0.0
C630 C 0.57058 0.55087 0.8276 0.0
C631 C 0.50045 0.63559 0.81472 0.0
N632 N 0.64187 0.64176 0.85899 0.0
N633 N 0.4041 0.52664 0.79263 0.0
H634 H 0.50346 0.74044 0.80919 0.0
H635 H 0.44335 0.66898 0.78929 0.0
H636 H 0.38266 0.47304 0.7849 0.0
H637 H 0.37043 0.55141 0.78971 0.0
H638 H 0.6614 0.60719 0.86636 0.0
H639 H 0.65908 0.69148 0.86878 0.0
H640 H 0.6689 0.54458 0.83704 0.0
H641 H 0.60471 0.47186 0.81813 0.0
C642 C 0.87059 0.48163 0.01682 0.0
C643 C 0.86025 0.53734 1.00474 0.0
C644 C 0.94016 0.53764 0.97113 0.0
C645 C 0.94291 0.47546 0.98226 0.0
N646 N 0.88662 0.37273 0.01161 0.0
N647 N 0.8703 0.60536 0.96737 0.0
C648 C 0.89961 0.44212 1.00368 0.0
C649 C 0.8904 0.56155 0.98093 0.0
N650 N 0.8569 0.46921 0.04124 0.0
N651 N 0.98734 0.5769 0.95225 0.0
H652 H 0.83328 0.62323 0.97365 0.0
H653 H 0.88481 0.61783 0.94904 0.0
H654 H 0.02465 0.56218 0.94438 0.0
H655 H -0.00664 0.62784 0.94564 0.0
H656 H 0.87365 0.43616 0.05117 0.0
H657 H 0.83786 0.49897 0.05189 0.0
H658 H 0.85181 0.34472 0.02651 0.0
H659 H 0.90388 0.34014 1.00166 0.0
C660 C 0.44219 0.98825 0.17342 0.0
C661 C 0.47124 0.97713 0.1511 0.0
C662 C 0.34073 0.87636 0.14146 0.0
C663 C 0.31305 0.89383 0.16318 0.0
N664 N 0.33852 0.00053 0.18896 0.0
N665 N 0.43799 0.92579 0.11015 0.0
C666 C 0.36374 0.96063 0.17576 0.0
C667 C 0.41793 0.92518 0.13396 0.0
N668 N 0.48802 0.02255 0.19297 0.0
N669 N 0.29394 0.81582 0.12726 0.0
H670 H 0.49071 0.96469 0.10295 0.0
H671 H 0.39887 0.89388 0.09667 0.0
H672 H 0.23504 0.78732 0.12852 0.0
H673 H 0.31464 0.79428 0.11392 0.0
H674 H 0.46656 0.02838 0.20961 0.0
H675 H 0.54407 0.03448 0.19372 0.0
H676 H 0.37612 0.05199 0.19729 0.0
H677 H 0.28229 0.98882 0.1883 0.0
C678 C 0.41093 0.42116 0.31928 0.0
C679 C 0.48675 0.46673 0.31079 0.0
C680 C 0.51756 0.37176 0.32523 0.0
C681 C 0.44063 0.32309 0.33282 0.0
N682 N 0.30977 0.29384 0.32864 0.0
N683 N 0.60038 0.46977 0.29698 0.0
C684 C 0.38574 0.34545 0.32743 0.0
C685 C 0.53585 0.4365 0.31072 0.0
N686 N 0.36282 0.45002 0.31949 0.0
N687 N 0.57497 0.36067 0.33329 0.0
H688 H 0.61291 0.51522 0.28534 0.0
H689 H 0.63516 0.44585 0.29481 0.0
H690 H 0.56698 0.31964 0.34604 0.0
H691 H 0.6322 0.39908 0.32987 0.0
H692 H 0.31012 0.4231 0.32821 0.0
H693 H 0.37739 0.50258 0.31179 0.0
H694 H 0.26792 0.30603 0.32298 0.0
H695 H 0.28864 0.23638 0.33233 0.0
C696 C 0.13755 0.82005 0.43891 0.0
C697 C 0.06353 0.811 0.43892 0.0
C698 C 0.11168 0.92649 0.41384 0.0
C699 C 0.18188 0.92795 0.41098 0.0
N700 N 0.25086 0.85991 0.41495 0.0
N701 N 0.97714 0.84473 0.41901 0.0
C702 C 0.1915 0.86963 0.42172 0.0
C703 C 0.04941 0.86121 0.42439 0.0
N704 N 0.15751 0.7834 0.45574 0.0
N705 N 0.10427 0.98756 0.4074 0.0
H706 H 0.92979 0.79369 0.42378 0.0
H707 H 0.96511 0.87702 0.40688 0.0
H708 H 0.14865 0.03772 0.40027 0.0
H709 H 0.05573 0.99083 0.41149 0.0
H710 H 0.21288 0.79301 0.4574 0.0
H711 H 0.12136 0.7511 0.46986 0.0
H712 H 0.2571 0.81465 0.42112 0.0
H713 H 0.28744 0.891 0.40076 0.0
C714 C 0.31881 0.18554 0.58979 0.0
C715 C 0.25213 0.17952 0.57898 0.0
C716 C 0.17367 0.06314 0.60247 0.0
C717 C 0.24 0.07052 0.61353 0.0
N718 N 0.37341 0.14542 0.62192 0.0
N719 N 0.12296 0.09133 0.5667 0.0
C720 C 0.31187 0.13414 0.60848 0.0
C721 C 0.18102 0.11247 0.58299 0.0
N722 N 0.38863 0.23498 0.58033 0.0
N723 N 0.10361 0.00859 0.61042 0.0
H724 H 0.13071 0.11741 0.54973 0.0
H725 H 0.07128 0.0408 0.56807 0.0
H726 H 0.09632 0.9713 0.62461 0.0
H727 H 0.05319 0.00543 0.60457 0.0
H728 H 0.43911 0.23808 0.58601 0.0
H729 H 0.3948 0.26507 0.56435 0.0
H730 H 0.42631 0.19469 0.62104 0.0
H731 H 0.36907 0.10827 0.63582 0.0
C732 C 0.1123 0.18283 0.76486 0.0
C733 C 0.17489 0.25247 0.77321 0.0
C734 C 0.13343 0.32179 0.74599 0.0
C735 C 0.07195 0.25198 0.73762 0.0
N736 N 0.03129 0.11976 0.73051 0.0
N737 N 0.22549 0.38702 0.77789 0.0
C738 C 0.06975 0.18346 0.74441 0.0
C739 C 0.18039 0.32185 0.76533 0.0
N740 N 0.08863 0.11647 0.77737 0.0
N741 N 0.15028 0.38775 0.73419 0.0
H742 H 0.25327 0.38695 0.79387 0.0
H743 H 0.22686 0.43826 0.77455 0.0
H744 H 0.12176 0.38825 0.71841 0.0
H745 H 0.1983 0.43985 0.73799 0.0
H746 H 0.04028 0.06585 0.77246 0.0
H747 H 0.10748 0.11417 0.79482 0.0
H748 H 0.03301 0.07004 0.73392 0.0
H749 H 0.00906 0.12063 0.71346 0.0
C750 C 0.87284 0.10863 0.89849 0.0
C751 C 0.8023 0.06708 0.91079 0.0
C752 C 0.85459 0.15106 0.94624 0.0
C753 C 0.92652 0.18773 0.93471 0.0
N754 N 0.00853 0.19208 0.90201 0.0
N755 N 0.73121 0.03855 0.94875 0.0
C756 C 0.93714 0.16347 0.91153 0.0
C757 C 0.79425 0.08558 0.93529 0.0
N758 N 0.87769 0.09845 0.87406 0.0
N759 N 0.84384 0.17867 0.96769 0.0
H760 H 0.68579 0.98869 0.94213 0.0
H761 H 0.72708 0.04477 0.96743 0.0
H762 H 0.88785 0.22362 0.97713 0.0
H763 H 0.79039 0.1603 0.97532 0.0
H764 H 0.92572 0.13296 0.86362 0.0
H765 H 0.83124 0.06066 0.86361 0.0
H766 H 0.02013 0.17047 0.88641 0.0
H767 H 0.05727 0.23242 0.91088 0.0
C768 C 0.69647 0.85545 0.11849 0.0
C769 C 0.74249 0.92925 0.10896 0.0
C770 C 0.76519 0.87662 0.07196 0.0
C771 C 0.72449 0.80265 0.08214 0.0
N772 N 0.66928 0.72557 0.11863 0.0
N773 N 0.83999 0.01054 0.08055 0.0
C774 C 0.69487 0.79279 0.10641 0.0
C775 C 0.78285 0.93998 0.08688 0.0
N776 N 0.65326 0.84488 0.13881 0.0
N777 N 0.78441 0.88664 0.0478 0.0
H778 H 0.85752 0.05708 0.092 0.0
H779 H 0.87563 0.02057 0.06563 0.0
H780 H 0.7692 0.84151 0.03583 0.0
H781 H 0.80796 0.93938 0.03915 0.0
H782 H 0.61151 0.79143 0.14484 0.0
H783 H 0.65568 0.88989 0.1487 0.0
H784 H 0.65505 0.71905 0.13707 0.0
H785 H 0.66971 0.67848 0.11148 0.0
C786 C 0.88534 0.80424 0.27505 0.0
C787 C 0.8171 0.73458 0.27952 0.0
C788 C 0.86547 0.6672 0.25491 0.0
C789 C 0.92893 0.73756 0.24787 0.0
N790 N -0.00271 0.87485 0.24989 0.0
N791 N 0.767 0.60083 0.28495 0.0
C792 C 0.93813 0.8067 0.25744 0.0
C793 C 0.81383 0.66599 0.27256 0.0
N794 N 0.9043 0.86557 0.28965 0.0
N795 N 0.85309 0.60144 0.24413 0.0
H796 H 0.73684 0.60133 0.30027 0.0
H797 H 0.76706 0.54998 0.28246 0.0
H798 H 0.88901 0.60043 0.23075 0.0
H799 H 0.80354 0.54945 0.24669 0.0
H800 H 0.95578 0.91632 0.28848 0.0
H801 H 0.87484 0.86175 0.30563 0.0
H802 H 0.00106 0.9268 0.25383 0.0
H803 H 0.03955 0.87987 0.23801 0.0
C804 C 0.72733 0.31491 0.43379 0.0
C805 C 0.72565 0.38282 0.43826 0.0
C806 C 0.60802 0.33491 0.41447 0.0
C807 C 0.61463 0.27109 0.40783 0.0
N808 N 0.68361 0.20284 0.40847 0.0
N809 N 0.66708 0.46044 0.43174 0.0
C810 C 0.67499 0.26154 0.41685 0.0
C811 C 0.66664 0.39352 0.42829 0.0
N812 N 0.7785 0.30129 0.44576 0.0
N813 N 0.544 0.33806 0.40852 0.0
H814 H 0.70589 0.50357 0.44297 0.0
H815 H 0.63162 0.47549 0.42249 0.0
H816 H 0.50069 0.29814 0.39755 0.0
H817 H 0.53057 0.3771 0.41593 0.0
H818 H 0.77803 0.2498 0.44504 0.0
H819 H 0.81761 0.33917 0.45824 0.0
H820 H 0.73049 0.19664 0.41238 0.0
H821 H 0.64683 0.16352 0.39576 0.0
C822 C 0.36709 0.68567 0.61688 0.0
C823 C 0.32428 0.71635 0.60621 0.0
C824 C 0.33015 0.6621 0.56678 0.0
C825 C 0.35469 0.61647 0.57873 0.0
N826 N 0.40694 0.59113 0.61472 0.0
N827 N 0.25473 0.72193 0.57119 0.0
C828 C 0.37654 0.63043 0.6037 0.0
C829 C 0.30394 0.70213 0.5811 0.0
N830 N 0.40201 0.71191 0.63887 0.0
N831 N 0.33071 0.66706 0.54192 0.0
H832 H 0.22499 0.73958 0.58197 0.0
H833 H 0.2349 0.7101 0.55334 0.0
H834 H 0.35334 0.64231 0.53061 0.0
H835 H 0.31862 0.70469 0.53264 0.0
H836 H 0.43988 0.69695 0.64643 0.0
H837 H 0.39923 0.7545 0.64859 0.0
H838 H 0.41417 0.59039 0.63349 0.0
H839 H 0.4233 0.5576 0.60491 0.0
C840 C 0.64045 0.29195 0.78525 0.0
C841 C 0.60776 0.33488 0.77689 0.0
C842 C 0.69958 0.38096 0.74316 0.0
C843 C 0.71708 0.32245 0.7482 0.0
N844 N 0.68252 0.20744 0.77133 0.0
N845 N 0.60664 0.42239 0.7472 0.0
C846 C 0.68162 0.27383 0.76857 0.0
C847 C 0.63698 0.37965 0.75545 0.0
N848 N 0.63295 0.26838 0.80888 0.0
N849 N 0.74528 0.44053 0.72833 0.0
H850 H 0.56565 0.42815 0.75697 0.0
H851 H 0.62024 0.4493 0.73024 0.0
H852 H 0.79687 0.44884 0.72165 0.0
H853 H 0.73743 0.487 0.72555 0.0
H854 H 0.66265 0.2427 0.81577 0.0
H855 H 0.60512 0.28242 0.82204 0.0
H856 H 0.65547 0.16992 0.7857 0.0
H857 H 0.70075 0.18503 0.7576 0.0
C858 C 0.30304 0.70841 0.90789 0.0
C859 C 0.3771 0.72577 0.91543 0.0
C860 C 0.32253 0.65981 0.95411 0.0
C861 C 0.24904 0.62624 0.9439 0.0
N862 N 0.16855 0.61806 0.91015 0.0
N863 N 0.45302 0.70162 0.94456 0.0
C864 C 0.23903 0.65064 0.92051 0.0
C865 C 0.38577 0.69736 0.93835 0.0
N866 N 0.29306 0.74885 0.88972 0.0
N867 N 0.33254 0.65421 0.97848 0.0
H868 H 0.49676 0.71556 0.93216 0.0
H869 H 0.46208 0.68233 0.96106 0.0
H870 H 0.28763 0.6299 0.99082 0.0
H871 H 0.3857 0.68284 0.98684 0.0
H872 H 0.24003 0.74214 0.88533 0.0
H873 H 0.33766 0.79527 0.88103 0.0
H874 H 0.15971 0.62681 0.89198 0.0
H875 H 0.11956 0.57911 0.91936 0.0
C876 C 0.603 0.30088 0.11919 0.0
C877 C 0.65801 0.2809 0.1123 0.0
C878 C 0.67285 0.34258 0.07279 0.0
C879 C 0.62878 0.37443 0.08103 0.0
N880 N 0.5522 0.38543 0.11281 0.0
N881 N 0.7615 0.30354 0.08588 0.0
C882 C 0.59369 0.35382 0.1045 0.0
C883 C 0.69734 0.3075 0.08997 0.0
N884 N 0.55864 0.26814 0.13927 0.0
N885 N 0.69196 0.34583 0.04881 0.0
H886 H 0.78727 0.29034 0.09999 0.0
H887 H 0.79407 0.32336 0.0701 0.0
H888 H 0.67193 0.36742 0.0353 0.0
H889 H 0.71945 0.31789 0.042 0.0
H890 H 0.51201 0.27422 0.14374 0.0
H891 H 0.56561 0.23075 0.15065 0.0
H892 H 0.53326 0.38008 0.13074 0.0
H893 H 0.53946 0.41981 0.10192 0.0
C894 C 0.37779 0.72381 0.26857 0.0
C895 C 0.38836 0.65994 0.26869 0.0
C896 C 0.29295 0.6021 0.23621 0.0
C897 C 0.28881 0.66974 0.23469 0.0
N898 N 0.34005 0.80112 0.24533 0.0
N899 N 0.36148 0.54026 0.25125 0.0
C900 C 0.33548 0.73258 0.24958 0.0
C901 C 0.3475 0.59951 0.25204 0.0
N902 N 0.40605 0.77502 0.28709 0.0
N903 N 0.24379 0.54018 0.22287 0.0
H904 H 0.39756 0.53461 0.2636 0.0
H905 H 0.34005 0.49869 0.2378 0.0
H906 H 0.20653 0.54219 0.21014 0.0
H907 H 0.23756 0.48642 0.22517 0.0
H908 H 0.39304 0.81823 0.28927 0.0
H909 H 0.43544 0.76893 0.30164 0.0
H910 H 0.37826 0.85092 0.25428 0.0
H911 H 0.31128 0.80951 0.23096 0.0
loop_
_geom_bond_atom_site_label_1
_geom_bond_atom_site_label_2
_geom_bond_distance
_geom_bond_site_symmetry_2
_ccdc_geom_bond_type
Fe0 O2 1.918 . S
Fe0 O5 1.997 . S
Fe0 O6 2.002 . S
Fe0 O11 1.976 . S
Fe0 O14 1.996 . S
Fe1 O2 1.918 . S
Fe1 O9 1.997 . S
Fe1 O12 1.996 . S
Fe1 O16 1.976 . S
Fe1 O19 2.002 . S
O2 Fe0 1.918 . S
O2 Fe1 1.918 . S
O2 Fe3 1.918 . S
Fe3 O2 1.918 . S
Fe3 O4 2.002 . S
Fe3 O13 1.976 . S
Fe3 O17 1.996 . S
Fe3 O20 1.997 . S
O4 Fe3 2.002 . S
O4 C21 1.295 . S
O5 Fe0 1.997 . S
O5 C21 1.235 . S
O6 Fe0 2.002 . S
O6 C7 1.295 . S
C7 O6 1.295 . S
C7 O9 1.235 . S
C8 O13 1.287 . S
C8 O14 1.255 . S
O9 Fe1 1.997 . S
O9 C7 1.235 . S
C10 O16 1.287 1_565 S
C10 O17 1.255 1_565 S
O11 Fe0 1.976 . S
O11 C18 1.287 . S
O12 Fe1 1.996 . S
O12 C18 1.255 . S
O13 Fe3 1.976 . S
O13 C8 1.287 . S
O14 Fe0 1.996 . S
O14 C8 1.255 . S
C15 O19 1.295 . S
C15 O20 1.235 . S
O16 Fe1 1.976 . S
O16 C10 1.287 1_545 S
O17 Fe3 1.996 . S
O17 C10 1.255 1_545 S
C18 O11 1.287 . S
C18 O12 1.255 . S
O19 Fe1 2.002 . S
O19 C15 1.295 . S
O20 Fe3 1.997 . S
O20 C15 1.235 . S
C21 O4 1.295 . S
C21 O5 1.235 . S
Fe22 O24 1.918 . S
Fe22 O27 1.997 . S
Fe22 O28 2.002 . S
Fe22 O33 1.976 . S
Fe22 O36 1.996 . S
Fe23 O24 1.918 . S
Fe23 O31 1.997 . S
Fe23 O34 1.996 . S
Fe23 O38 1.976 . S
Fe23 O41 2.002 . S
O24 Fe22 1.918 . S
O24 Fe23 1.918 . S
O24 Fe25 1.918 . S
Fe25 O24 1.918 . S
Fe25 O26 2.002 . S
Fe25 O35 1.976 . S
Fe25 O39 1.996 . S
Fe25 O42 1.997 . S
O26 Fe25 2.002 . S
O26 C43 1.295 . S
O27 Fe22 1.997 . S
O27 C43 1.235 . S
O28 Fe22 2.002 . S
O28 C29 1.295 . S
C29 O28 1.295 . S
C29 O31 1.235 . S
C30 O35 1.287 . S
C30 O36 1.255 . S
O31 Fe23 1.997 . S
O31 C29 1.235 . S
C32 O38 1.287 . S
C32 O39 1.255 . S
O33 Fe22 1.976 . S
O33 C40 1.287 . S
O34 Fe23 1.996 . S
O34 C40 1.255 . S
O35 Fe25 1.976 . S
O35 C30 1.287 . S
O36 Fe22 1.996 . S
O36 C30 1.255 . S
C37 O41 1.295 . S
C37 O42 1.235 . S
O38 Fe23 1.976 . S
O38 C32 1.287 . S
O39 Fe25 1.996 . S
O39 C32 1.255 . S
C40 O33 1.287 . S
C40 O34 1.255 . S
O41 Fe23 2.002 . S
O41 C37 1.295 . S
O42 Fe25 1.997 . S
O42 C37 1.235 . S
C43 O26 1.295 . S
C43 O27 1.235 . S
Fe44 O46 1.918 . S
Fe44 O49 1.997 . S
Fe44 O50 2.002 . S
Fe44 O55 1.976 . S
Fe44 O58 1.996 . S
Fe45 O46 1.918 . S
Fe45 O53 1.997 . S
Fe45 O56 1.996 . S
Fe45 O60 1.976 . S
Fe45 O63 2.002 . S
O46 Fe44 1.918 . S
O46 Fe45 1.918 . S
O46 Fe47 1.918 . S
Fe47 O46 1.918 . S
Fe47 O48 2.002 . S
Fe47 O57 1.976 . S
Fe47 O61 1.996 . S
Fe47 O64 1.997 . S
O48 Fe47 2.002 . S
O48 C65 1.295 . S
O49 Fe44 1.997 . S
O49 C65 1.235 . S
O50 Fe44 2.002 . S
O50 C51 1.295 . S
C51 O50 1.295 . S
C51 O53 1.235 . S
C52 O57 1.287 1_455 S
C52 O58 1.255 1_455 S
O53 Fe45 1.997 . S
O53 C51 1.235 . S
C54 O60 1.287 . S
C54 O61 1.255 . S
O55 Fe44 1.976 . S
O55 C62 1.287 . S
O56 Fe45 1.996 . S
O56 C62 1.255 . S
O57 Fe47 1.976 . S
O57 C52 1.287 1_655 S
O58 Fe44 1.996 . S
O58 C52 1.255 1_655 S
C59 O63 1.295 . S
C59 O64 1.235 . S
O60 Fe45 1.976 . S
O60 C54 1.287 . S
O61 Fe47 1.996 . S
O61 C54 1.255 . S
C62 O55 1.287 . S
C62 O56 1.255 . S
O63 Fe45 2.002 . S
O63 C59 1.295 . S
O64 Fe47 1.997 . S
O64 C59 1.235 . S
C65 O48 1.295 . S
C65 O49 1.235 . S
Fe66 O68 1.918 . S
Fe66 O71 1.997 . S
Fe66 O72 2.002 . S
Fe66 O77 1.976 . S
Fe66 O80 1.996 . S
Fe67 O68 1.918 . S
Fe67 O75 1.997 . S
Fe67 O78 1.996 . S
Fe67 O82 1.976 . S
Fe67 O85 2.002 . S
O68 Fe66 1.918 . S
O68 Fe67 1.918 . S
O68 Fe69 1.918 . S
Fe69 O68 1.918 . S
Fe69 O70 2.002 . S
Fe69 O79 1.976 . S
Fe69 O83 1.996 . S
Fe69 O86 1.997 . S
O70 Fe69 2.002 . S
O70 C87 1.295 . S
O71 Fe66 1.997 . S
O71 C87 1.235 . S
O72 Fe66 2.002 . S
O72 C73 1.295 . S
C73 O72 1.295 . S
C73 O75 1.235 . S
C74 O79 1.287 . S
C74 O80 1.255 . S
O75 Fe67 1.997 . S
O75 C73 1.235 . S
C76 O82 1.287 1_545 S
C76 O83 1.255 1_545 S
O77 Fe66 1.976 . S
O77 C84 1.287 . S
O78 Fe67 1.996 . S
O78 C84 1.255 . S
O79 Fe69 1.976 . S
O79 C74 1.287 . S
O80 Fe66 1.996 . S
O80 C74 1.255 . S
C81 O85 1.295 . S
C81 O86 1.235 . S
O82 Fe67 1.976 . S
O82 C76 1.287 1_565 S
O83 Fe69 1.996 . S
O83 C76 1.255 1_565 S
C84 O77 1.287 . S
C84 O78 1.255 . S
O85 Fe67 2.002 . S
O85 C81 1.295 . S
O86 Fe69 1.997 . S
O86 C81 1.235 . S
C87 O70 1.295 . S
C87 O71 1.235 . S
Fe88 O90 1.918 . S
Fe88 O93 1.997 . S
Fe88 O94 2.002 . S
Fe88 O99 1.976 1_554 S
Fe88 O102 1.996 . S
Fe89 O90 1.918 . S
Fe89 O97 1.997 . S
Fe89 O100 1.996 1_554 S
Fe89 O104 1.976 . S
Fe89 O107 2.002 . S
O90 Fe88 1.918 . S
O90 Fe89 1.918 . S
O90 Fe91 1.918 . S
Fe91 O90 1.918 . S
Fe91 O92 2.002 . S
Fe91 O101 1.976 . S
Fe91 O105 1.996 . S
Fe91 O108 1.997 . S
O92 Fe91 2.002 . S
O92 C109 1.295 . S
O93 Fe88 1.997 . S
O93 C109 1.235 . S
O94 Fe88 2.002 . S
O94 C95 1.295 . S
C95 O94 1.295 . S
C95 O97 1.235 . S
C96 O101 1.287 . S
C96 O102 1.255 . S
O97 Fe89 1.997 . S
O97 C95 1.235 . S
C98 O104 1.287 . S
C98 O105 1.255 . S
O99 Fe88 1.976 1_556 S
O99 C106 1.287 . S
O100 Fe89 1.996 1_556 S
O100 C106 1.255 . S
O101 Fe91 1.976 . S
O101 C96 1.287 . S
O102 Fe88 1.996 . S
O102 C96 1.255 . S
C103 O107 1.295 . S
C103 O108 1.235 . S
O104 Fe89 1.976 . S
O104 C98 1.287 . S
O105 Fe91 1.996 . S
O105 C98 1.255 . S
C106 O99 1.287 . S
C106 O100 1.255 . S
O107 Fe89 2.002 . S
O107 C103 1.295 . S
O108 Fe91 1.997 . S
O108 C103 1.235 . S
C109 O92 1.295 . S
C109 O93 1.235 . S
Fe110 O112 1.918 . S
Fe110 O115 1.997 . S
Fe110 O116 2.002 . S
Fe110 O121 1.976 . S
Fe110 O124 1.996 . S
Fe111 O112 1.918 . S
Fe111 O119 1.997 . S
Fe111 O122 1.996 . S
Fe111 O126 1.976 . S
Fe111 O129 2.002 . S
O112 Fe110 1.918 . S
O112 Fe111 1.918 . S
O112 Fe113 1.918 . S
Fe113 O112 1.918 . S
Fe113 O114 2.002 . S
Fe113 O123 1.976 . S
Fe113 O127 1.996 . S
Fe113 O130 1.997 . S
O114 Fe113 2.002 . S
O114 C131 1.295 . S
O115 Fe110 1.997 . S
O115 C131 1.235 . S
O116 Fe110 2.002 . S
O116 C117 1.295 . S
C117 O116 1.295 . S
C117 O119 1.235 . S
C118 O123 1.287 . S
C118 O124 1.255 . S
O119 Fe111 1.997 . S
O119 C117 1.235 . S
C120 O126 1.287 . S
C120 O127 1.255 . S
O121 Fe110 1.976 . S
O121 C128 1.287 1_455 S
O122 Fe111 1.996 . S
O122 C128 1.255 1_455 S
O123 Fe113 1.976 . S
O123 C118 1.287 . S
O124 Fe110 1.996 . S
O124 C118 1.255 . S
C125 O129 1.295 . S
C125 O130 1.235 . S
O126 Fe111 1.976 . S
O126 C120 1.287 . S
O127 Fe113 1.996 . S
O127 C120 1.255 . S
C128 O121 1.287 1_655 S
C128 O122 1.255 1_655 S
O129 Fe111 2.002 . S
O129 C125 1.295 . S
O130 Fe113 1.997 . S
O130 C125 1.235 . S
C131 O114 1.295 . S
C131 O115 1.235 . S
Fe132 O134 1.918 . S
Fe132 O137 1.997 . S
Fe132 O138 2.002 . S
Fe132 O143 1.976 . S
Fe132 O146 1.996 . S
Fe133 O134 1.918 . S
Fe133 O141 1.997 . S
Fe133 O144 1.996 . S
Fe133 O148 1.976 . S
Fe133 O151 2.002 . S
O134 Fe132 1.918 . S
O134 Fe133 1.918 . S
O134 Fe135 1.918 . S
Fe135 O134 1.918 . S
Fe135 O136 2.002 . S
Fe135 O145 1.976 . S
Fe135 O149 1.996 . S
Fe135 O152 1.997 . S
O136 Fe135 2.002 . S
O136 C153 1.295 . S
O137 Fe132 1.997 . S
O137 C153 1.235 . S
O138 Fe132 2.002 . S
O138 C139 1.295 . S
C139 O138 1.295 . S
C139 O141 1.235 . S
C140 O145 1.287 . S
C140 O146 1.255 . S
O141 Fe133 1.997 . S
O141 C139 1.235 . S
C142 O148 1.287 1_455 S
C142 O149 1.255 1_455 S
O143 Fe132 1.976 . S
O143 C150 1.287 . S
O144 Fe133 1.996 . S
O144 C150 1.255 . S
O145 Fe135 1.976 . S
O145 C140 1.287 . S
O146 Fe132 1.996 . S
O146 C140 1.255 . S
C147 O151 1.295 . S
C147 O152 1.235 . S
O148 Fe133 1.976 . S
O148 C142 1.287 1_655 S
O149 Fe135 1.996 . S
O149 C142 1.255 1_655 S
C150 O143 1.287 . S
C150 O144 1.255 . S
O151 Fe133 2.002 . S
O151 C147 1.295 . S
O152 Fe135 1.997 . S
O152 C147 1.235 . S
C153 O136 1.295 . S
C153 O137 1.235 . S
Fe154 O156 1.918 . S
Fe154 O159 1.997 . S
Fe154 O160 2.002 . S
Fe154 O165 1.976 . S
Fe154 O168 1.996 . S
Fe155 O156 1.918 . S
Fe155 O163 1.997 . S
Fe155 O166 1.996 . S
Fe155 O170 1.976 . S
Fe155 O173 2.002 . S
O156 Fe154 1.918 . S
O156 Fe155 1.918 . S
O156 Fe157 1.918 . S
Fe157 O156 1.918 . S
Fe157 O158 2.002 . S
Fe157 O167 1.976 . S
Fe157 O171 1.996 . S
Fe157 O174 1.997 . S
O158 Fe157 2.002 . S
O158 C175 1.295 . S
O159 Fe154 1.997 . S
O159 C175 1.235 . S
O160 Fe154 2.002 . S
O160 C161 1.295 . S
C161 O160 1.295 . S
C161 O163 1.235 . S
C162 O167 1.287 . S
C162 O168 1.255 . S
O163 Fe155 1.997 . S
O163 C161 1.235 . S
C164 O170 1.287 1_545 S
C164 O171 1.255 1_545 S
O165 Fe154 1.976 . S
O165 C172 1.287 . S
O166 Fe155 1.996 . S
O166 C172 1.255 . S
O167 Fe157 1.976 . S
O167 C162 1.287 . S
O168 Fe154 1.996 . S
O168 C162 1.255 . S
C169 O173 1.295 . S
C169 O174 1.235 . S
O170 Fe155 1.976 . S
O170 C164 1.287 1_565 S
O171 Fe157 1.996 . S
O171 C164 1.255 1_565 S
C172 O165 1.287 . S
C172 O166 1.255 . S
O173 Fe155 2.002 . S
O173 C169 1.295 . S
O174 Fe157 1.997 . S
O174 C169 1.235 . S
C175 O158 1.295 . S
C175 O159 1.235 . S
Fe176 O178 1.918 . S
Fe176 O181 1.997 . S
Fe176 O182 2.002 . S
Fe176 O187 1.976 . S
Fe176 O190 1.996 . S
Fe177 O178 1.918 . S
Fe177 O185 1.997 . S
Fe177 O188 1.996 . S
Fe177 O192 1.976 . S
Fe177 O195 2.002 . S
O178 Fe176 1.918 . S
O178 Fe177 1.918 . S
O178 Fe179 1.918 . S
Fe179 O178 1.918 . S
Fe179 O180 2.002 . S
Fe179 O189 1.976 . S
Fe179 O193 1.996 . S
Fe179 O196 1.997 . S
O180 Fe179 2.002 . S
O180 C197 1.295 . S
O181 Fe176 1.997 . S
O181 C197 1.235 . S
O182 Fe176 2.002 . S
O182 C183 1.295 . S
C183 O182 1.295 . S
C183 O185 1.235 . S
C184 O189 1.287 . S
C184 O190 1.255 . S
O185 Fe177 1.997 . S
O185 C183 1.235 . S
C186 O192 1.287 . S
C186 O193 1.255 . S
O187 Fe176 1.976 . S
O187 C194 1.287 . S
O188 Fe177 1.996 . S
O188 C194 1.255 . S
O189 Fe179 1.976 . S
O189 C184 1.287 . S
O190 Fe176 1.996 . S
O190 C184 1.255 . S
C191 O195 1.295 . S
C191 O196 1.235 . S
O192 Fe177 1.976 . S
O192 C186 1.287 . S
O193 Fe179 1.996 . S
O193 C186 1.255 . S
C194 O187 1.287 . S
C194 O188 1.255 . S
O195 Fe177 2.002 . S
O195 C191 1.295 . S
O196 Fe179 1.997 . S
O196 C191 1.235 . S
C197 O180 1.295 . S
C197 O181 1.235 . S
Fe198 O200 1.918 . S
Fe198 O203 1.997 . S
Fe198 O204 2.002 . S
Fe198 O209 1.976 . S
Fe198 O212 1.996 1_556 S
Fe199 O200 1.918 . S
Fe199 O207 1.997 . S
Fe199 O210 1.996 . S
Fe199 O214 1.976 . S
Fe199 O217 2.002 . S
O200 Fe198 1.918 . S
O200 Fe199 1.918 . S
O200 Fe201 1.918 . S
Fe201 O200 1.918 . S
Fe201 O202 2.002 . S
Fe201 O211 1.976 1_556 S
Fe201 O215 1.996 . S
Fe201 O218 1.997 . S
O202 Fe201 2.002 . S
O202 C219 1.295 . S
O203 Fe198 1.997 . S
O203 C219 1.235 . S
O204 Fe198 2.002 . S
O204 C205 1.295 . S
C205 O204 1.295 . S
C205 O207 1.235 . S
C206 O211 1.287 . S
C206 O212 1.255 . S
O207 Fe199 1.997 . S
O207 C205 1.235 . S
C208 O214 1.287 . S
C208 O215 1.255 . S
O209 Fe198 1.976 . S
O209 C216 1.287 1_455 S
O210 Fe199 1.996 . S
O210 C216 1.255 1_455 S
O211 Fe201 1.976 1_554 S
O211 C206 1.287 . S
O212 Fe198 1.996 1_554 S
O212 C206 1.255 . S
C213 O217 1.295 . S
C213 O218 1.235 . S
O214 Fe199 1.976 . S
O214 C208 1.287 . S
O215 Fe201 1.996 . S
O215 C208 1.255 . S
C216 O209 1.287 1_655 S
C216 O210 1.255 1_655 S
O217 Fe199 2.002 . S
O217 C213 1.295 . S
O218 Fe201 1.997 . S
O218 C213 1.235 . S
C219 O202 1.295 . S
C219 O203 1.235 . S
Fe220 O222 1.918 . S
Fe220 O225 1.997 . S
Fe220 O226 2.002 . S
Fe220 O231 1.976 . S
Fe220 O234 1.996 . S
Fe221 O222 1.918 . S
Fe221 O229 1.997 . S
Fe221 O232 1.996 . S
Fe221 O236 1.976 . S
Fe221 O239 2.002 . S
O222 Fe220 1.918 . S
O222 Fe221 1.918 . S
O222 Fe223 1.918 . S
Fe223 O222 1.918 . S
Fe223 O224 2.002 . S
Fe223 O233 1.976 . S
Fe223 O237 1.996 . S
Fe223 O240 1.997 . S
O224 Fe223 2.002 . S
O224 C241 1.295 . S
O225 Fe220 1.997 . S
O225 C241 1.235 . S
O226 Fe220 2.002 . S
O226 C227 1.295 . S
C227 O226 1.295 . S
C227 O229 1.235 . S
C228 O233 1.287 . S
C228 O234 1.255 . S
O229 Fe221 1.997 . S
O229 C227 1.235 . S
C230 O236 1.287 . S
C230 O237 1.255 . S
O231 Fe220 1.976 . S
O231 C238 1.287 1_545 S
O232 Fe221 1.996 . S
O232 C238 1.255 1_545 S
O233 Fe223 1.976 . S
O233 C228 1.287 . S
O234 Fe220 1.996 . S
O234 C228 1.255 . S
C235 O239 1.295 . S
C235 O240 1.235 . S
O236 Fe221 1.976 . S
O236 C230 1.287 . S
O237 Fe223 1.996 . S
O237 C230 1.255 . S
C238 O231 1.287 1_565 S
C238 O232 1.255 1_565 S
O239 Fe221 2.002 . S
O239 C235 1.295 . S
O240 Fe223 1.997 . S
O240 C235 1.235 . S
C241 O224 1.295 . S
C241 O225 1.235 . S
Fe242 O244 1.918 . S
Fe242 O247 1.997 . S
Fe242 O248 2.002 . S
Fe242 O253 1.976 . S
Fe242 O256 1.996 . S
Fe243 O244 1.918 . S
Fe243 O251 1.997 . S
Fe243 O254 1.996 . S
Fe243 O258 1.976 . S
Fe243 O261 2.002 . S
O244 Fe242 1.918 . S
O244 Fe243 1.918 . S
O244 Fe245 1.918 . S
Fe245 O244 1.918 . S
Fe245 O246 2.002 . S
Fe245 O255 1.976 . S
Fe245 O259 1.996 . S
Fe245 O262 1.997 . S
O246 Fe245 2.002 . S
O246 C263 1.295 . S
O247 Fe242 1.997 . S
O247 C263 1.235 . S
O248 Fe242 2.002 . S
O248 C249 1.295 . S
C249 O248 1.295 . S
C249 O251 1.235 . S
C250 O255 1.287 . S
C250 O256 1.255 . S
O251 Fe243 1.997 . S
O251 C249 1.235 . S
C252 O258 1.287 . S
C252 O259 1.255 . S
O253 Fe242 1.976 . S
O253 C260 1.287 . S
O254 Fe243 1.996 . S
O254 C260 1.255 . S
O255 Fe245 1.976 . S
O255 C250 1.287 . S
O256 Fe242 1.996 . S
O256 C250 1.255 . S
C257 O261 1.295 . S
C257 O262 1.235 . S
O258 Fe243 1.976 . S
O258 C252 1.287 . S
O259 Fe245 1.996 . S
O259 C252 1.255 . S
C260 O253 1.287 . S
C260 O254 1.255 . S
O261 Fe243 2.002 . S
O261 C257 1.295 . S
O262 Fe245 1.997 . S
O262 C257 1.235 . S
C263 O246 1.295 . S
C263 O247 1.235 . S
C264 C265 1.363 . S
C264 C270 1.370 1_565 S
C264 N272 1.356 . S
C265 C264 1.363 . S
C265 C271 1.363 . S
C266 C267 1.363 . S
C266 C271 1.379 1_545 S
C266 N273 1.356 . S
C267 C266 1.363 . S
C267 C270 1.366 . S
N268 C270 1.364 . S
N268 H280 0.984 1_545 S
N268 H281 0.985 . S
N269 C271 1.356 . S
N269 H274 0.984 . S
N269 H275 0.985 . S
C270 C264 1.370 1_545 S
C270 C267 1.366 . S
C270 N268 1.364 . S
C271 C265 1.363 . S
C271 C266 1.379 1_565 S
C271 N269 1.356 . S
N272 C264 1.356 . S
N272 H278 0.984 . S
N272 H279 0.984 . S
N273 C266 1.356 . S
N273 H276 0.984 . S
N273 H277 0.985 . S
H274 N269 0.984 . S
H275 N269 0.985 . S
H276 N273 0.984 . S
H277 N273 0.985 . S
H278 N272 0.984 . S
H279 N272 0.984 . S
H280 N268 0.984 1_565 S
H281 N268 0.985 . S
C282 C283 1.363 . S
C282 C288 1.379 . S
C282 N290 1.356 . S
C283 C282 1.363 . S
C283 C289 1.363 . S
C284 C285 1.363 . S
C284 C289 1.379 . S
C284 N291 1.356 . S
C285 C284 1.363 . S
C285 C288 1.363 . S
N286 C288 1.356 . S
N286 H298 0.984 . S
N286 H299 0.985 . S
N287 C289 1.356 . S
N287 H292 0.984 . S
N287 H293 0.985 . S
C288 C282 1.379 . S
C288 C285 1.363 . S
C288 N286 1.356 . S
C289 C283 1.363 . S
C289 C284 1.379 . S
C289 N287 1.356 . S
N290 C282 1.356 . S
N290 H296 0.984 . S
N290 H297 0.984 . S
N291 C284 1.356 . S
N291 H294 0.984 . S
N291 H295 0.985 . S
H292 N287 0.984 . S
H293 N287 0.985 . S
H294 N291 0.984 . S
H295 N291 0.985 . S
H296 N290 0.984 . S
H297 N290 0.984 . S
H298 N286 0.984 . S
H299 N286 0.985 . S
C300 C301 1.363 . S
C300 C306 1.379 1_655 S
C300 N308 1.356 . S
C301 C300 1.363 . S
C301 C307 1.363 . S
C302 C303 1.363 . S
C302 C307 1.379 1_455 S
C302 N309 1.356 . S
C303 C302 1.363 . S
C303 C306 1.363 . S
N304 C306 1.356 . S
N304 H316 0.984 . S
N304 H317 0.985 . S
N305 C307 1.356 . S
N305 H310 0.984 . S
N305 H311 0.985 . S
C306 C300 1.379 1_455 S
C306 C303 1.363 . S
C306 N304 1.356 . S
C307 C301 1.363 . S
C307 C302 1.379 1_655 S
C307 N305 1.356 . S
N308 C300 1.356 . S
N308 H314 0.984 . S
N308 H315 0.984 . S
N309 C302 1.356 . S
N309 H312 0.984 . S
N309 H313 0.985 . S
H310 N305 0.984 . S
H311 N305 0.985 . S
H312 N309 0.984 . S
H313 N309 0.985 . S
H314 N308 0.984 . S
H315 N308 0.984 . S
H316 N304 0.984 . S
H317 N304 0.985 . S
C318 C319 1.363 1_565 S
C318 C324 1.379 . S
C318 N326 1.359 . S
C319 C318 1.363 1_545 S
C319 C325 1.363 . S
C320 C321 1.363 1_545 S
C320 C325 1.379 . S
C320 N327 1.356 . S
C321 C320 1.363 1_565 S
C321 C324 1.363 . S
N322 C324 1.356 . S
N322 H334 0.984 . S
N322 H335 0.985 . S
N323 C325 1.356 . S
N323 H328 0.984 . S
N323 H329 0.985 . S
C324 C318 1.379 . S
C324 C321 1.363 . S
C324 N322 1.356 . S
C325 C319 1.363 . S
C325 C320 1.379 . S
C325 N323 1.356 . S
N326 C318 1.359 . S
N326 H332 0.989 . S
N326 H333 0.978 1_565 S
N327 C320 1.356 . S
N327 H330 0.984 1_545 S
N327 H331 0.985 . S
H328 N323 0.984 . S
H329 N323 0.985 . S
H330 N327 0.984 1_565 S
H331 N327 0.985 . S
H332 N326 0.989 . S
H333 N326 0.978 1_545 S
H334 N322 0.984 . S
H335 N322 0.985 . S
C336 C337 1.363 . S
C336 C342 1.379 . S
C336 N344 1.356 . S
C337 C336 1.363 . S
C337 C343 1.363 . S
C338 C339 1.363 . S
C338 C343 1.379 . S
C338 N345 1.356 . S
C339 C338 1.363 . S
C339 C342 1.363 . S
N340 C342 1.356 . S
N340 H352 0.984 . S
N340 H353 0.985 . S
N341 C343 1.356 . S
N341 H346 0.984 . S
N341 H347 0.985 . S
C342 C336 1.379 . S
C342 C339 1.363 . S
C342 N340 1.356 . S
C343 C337 1.363 . S
C343 C338 1.379 . S
C343 N341 1.356 . S
N344 C336 1.356 . S
N344 H350 0.984 . S
N344 H351 0.984 . S
N345 C338 1.356 . S
N345 H348 0.984 . S
N345 H349 0.985 . S
H346 N341 0.984 . S
H347 N341 0.985 . S
H348 N345 0.984 . S
H349 N345 0.985 . S
H350 N344 0.984 . S
H351 N344 0.984 . S
H352 N340 0.984 . S
H353 N340 0.985 . S
C354 C355 1.363 . S
C354 C360 1.379 1_455 S
C354 N362 1.356 . S
C355 C354 1.363 . S
C355 C361 1.363 1_455 S
C356 C357 1.363 . S
C356 C361 1.379 . S
C356 N363 1.356 . S
C357 C356 1.363 . S
C357 C360 1.363 . S
N358 C360 1.356 . S
N358 H370 0.984 1_655 S
N358 H371 0.985 . S
N359 C361 1.356 1_455 S
N359 H364 0.984 . S
N359 H365 0.985 1_455 S
C360 C354 1.379 1_655 S
C360 C357 1.363 . S
C360 N358 1.356 . S
C361 C355 1.363 1_655 S
C361 C356 1.379 . S
C361 N359 1.356 1_655 S
N362 C354 1.356 . S
N362 H368 0.984 . S
N362 H369 0.984 . S
N363 C356 1.356 . S
N363 H366 0.984 . S
N363 H367 0.985 . S
H364 N359 0.984 . S
H365 N359 0.985 1_655 S
H366 N363 0.984 . S
H367 N363 0.985 . S
H368 N362 0.984 . S
H369 N362 0.984 . S
H370 N358 0.984 1_455 S
H371 N358 0.985 . S
C372 C373 1.363 . S
C372 C378 1.379 1_455 S
C372 N380 1.356 . S
C373 C372 1.363 . S
C373 C379 1.363 . S
C374 C375 1.363 . S
C374 C379 1.379 1_655 S
C374 N381 1.356 . S
C375 C374 1.363 . S
C375 C378 1.363 . S
N376 C378 1.356 . S
N376 H388 0.984 . S
N376 H389 0.985 . S
N377 C379 1.356 . S
N377 H382 0.984 . S
N377 H383 0.985 . S
C378 C372 1.379 1_655 S
C378 C375 1.363 . S
C378 N376 1.356 . S
C379 C373 1.363 . S
C379 C374 1.379 1_455 S
C379 N377 1.356 . S
N380 C372 1.356 . S
N380 H386 0.984 . S
N380 H387 0.984 . S
N381 C374 1.356 . S
N381 H384 0.984 . S
N381 H385 0.985 . S
H382 N377 0.984 . S
H383 N377 0.985 . S
H384 N381 0.984 . S
H385 N381 0.985 . S
H386 N380 0.984 . S
H387 N380 0.984 . S
H388 N376 0.984 . S
H389 N376 0.985 . S
C390 C391 1.363 1_545 S
C390 C396 1.379 . S
C390 N398 1.356 . S
C391 C390 1.363 1_565 S
C391 C397 1.363 . S
C392 C393 1.363 1_565 S
C392 C397 1.379 . S
C392 N399 1.356 . S
C393 C392 1.363 1_545 S
C393 C396 1.363 . S
N394 C396 1.356 . S
N394 H406 0.984 . S
N394 H407 0.985 . S
N395 C397 1.356 . S
N395 H400 0.984 . S
N395 H401 0.985 . S
C396 C390 1.379 . S
C396 C393 1.363 . S
C396 N394 1.356 . S
C397 C391 1.363 . S
C397 C392 1.379 . S
C397 N395 1.356 . S
N398 C390 1.356 . S
N398 H404 0.984 . S
N398 H405 0.984 1_545 S
N399 C392 1.356 . S
N399 H402 0.984 1_565 S
N399 H403 0.985 . S
H400 N395 0.984 . S
H401 N395 0.985 . S
H402 N399 0.984 1_545 S
H403 N399 0.985 . S
H404 N398 0.984 . S
H405 N398 0.984 1_565 S
H406 N394 0.984 . S
H407 N394 0.985 . S
C408 C409 1.363 . S
C408 C414 1.379 . S
C408 N416 1.356 . S
C409 C408 1.363 . S
C409 C415 1.363 . S
C410 C411 1.363 . S
C410 C415 1.379 . S
C410 N417 1.356 . S
C411 C410 1.363 . S
C411 C414 1.363 . S
N412 C414 1.356 . S
N412 H424 0.984 . S
N412 H425 0.985 . S
N413 C415 1.356 . S
N413 H418 0.984 . S
N413 H419 0.985 . S
C414 C408 1.379 . S
C414 C411 1.363 . S
C414 N412 1.356 . S
C415 C409 1.363 . S
C415 C410 1.379 . S
C415 N413 1.356 . S
N416 C408 1.356 . S
N416 H422 0.984 . S
N416 H423 0.984 . S
N417 C410 1.356 . S
N417 H420 0.984 . S
N417 H421 0.985 . S
H418 N413 0.984 . S
H419 N413 0.985 . S
H420 N417 0.984 . S
H421 N417 0.985 . S
H422 N416 0.984 . S
H423 N416 0.984 . S
H424 N412 0.984 . S
H425 N412 0.985 . S
C426 C427 1.363 . S
C426 C432 1.379 . S
C426 N434 1.356 . S
C427 C426 1.363 . S
C427 C433 1.363 1_655 S
C428 C429 1.363 . S
C428 C433 1.379 . S
C428 N435 1.356 . S
C429 C428 1.363 . S
C429 C432 1.363 1_455 S
N430 C432 1.356 . S
N430 H442 0.984 . S
N430 H443 0.987 1_655 S
N431 C433 1.356 1_655 S
N431 H436 0.984 . S
N431 H437 0.985 1_655 S
C432 C426 1.379 . S
C432 C429 1.363 1_655 S
C432 N430 1.356 . S
C433 C427 1.363 1_455 S
C433 C428 1.379 . S
C433 N431 1.356 1_455 S
N434 C426 1.356 . S
N434 H440 0.984 . S
N434 H441 0.984 . S
N435 C428 1.356 . S
N435 H438 0.984 . S
N435 H439 0.985 . S
H436 N431 0.984 . S
H437 N431 0.985 1_455 S
H438 N435 0.984 . S
H439 N435 0.985 . S
H440 N434 0.984 . S
H441 N434 0.984 . S
H442 N430 0.984 . S
H443 N430 0.987 1_455 S
C444 C445 1.363 . S
C444 C450 1.379 1_565 S
C444 N452 1.356 . S
C445 C444 1.363 . S
C445 C451 1.363 . S
C446 C447 1.363 1_565 S
C446 C451 1.379 . S
C446 N453 1.356 1_565 S
C447 C446 1.363 1_545 S
C447 C450 1.363 . S
N448 C450 1.356 . S
N448 H460 0.984 . S
N448 H461 0.985 . S
N449 C451 1.356 . S
N449 H454 0.984 . S
N449 H455 0.985 . S
C450 C444 1.379 1_545 S
C450 C447 1.363 . S
C450 N448 1.356 . S
C451 C445 1.363 . S
C451 C446 1.379 . S
C451 N449 1.356 . S
N452 C444 1.356 . S
N452 H458 0.984 1_565 S
N452 H459 0.984 . S
N453 C446 1.356 1_545 S
N453 H456 0.984 . S
N453 H457 0.985 1_545 S
H454 N449 0.984 . S
H455 N449 0.985 . S
H456 N453 0.984 . S
H457 N453 0.985 1_565 S
H458 N452 0.984 1_545 S
H459 N452 0.984 . S
H460 N448 0.984 . S
H461 N448 0.985 . S
C462 C463 1.363 . S
C462 C468 1.379 . S
C462 N470 1.356 . S
C463 C462 1.363 . S
C463 C469 1.363 . S
C464 C465 1.363 . S
C464 C469 1.379 . S
C464 N471 1.356 . S
C465 C464 1.363 . S
C465 C468 1.363 . S
N466 C468 1.356 . S
N466 H478 0.984 . S
N466 H479 0.985 . S
N467 C469 1.356 . S
N467 H472 0.984 . S
N467 H473 0.985 . S
C468 C462 1.379 . S
C468 C465 1.363 . S
C468 N466 1.356 . S
C469 C463 1.363 . S
C469 C464 1.379 . S
C469 N467 1.356 . S
N470 C462 1.356 . S
N470 H476 0.984 . S
N470 H477 0.984 . S
N471 C464 1.356 . S
N471 H474 0.984 . S
N471 H475 0.985 . S
H472 N467 0.984 . S
H473 N467 0.985 . S
H474 N471 0.984 . S
H475 N471 0.985 . S
H476 N470 0.984 . S
H477 N470 0.984 . S
H478 N466 0.984 . S
H479 N466 0.985 . S
C480 C481 1.360 1_545 S
C480 C486 1.381 . S
C480 N488 1.356 . S
C481 C480 1.360 1_565 S
C481 C487 1.363 . S
C482 C483 1.363 1_565 S
C482 C487 1.379 . S
C482 N489 1.356 . S
C483 C482 1.363 1_545 S
C483 C486 1.363 . S
N484 C486 1.356 . S
N484 H496 0.984 . S
N484 H497 0.985 . S
N485 C487 1.356 . S
N485 H490 0.984 . S
N485 H491 0.985 . S
C486 C480 1.381 . S
C486 C483 1.363 . S
C486 N484 1.356 . S
C487 C481 1.363 . S
C487 C482 1.379 . S
C487 N485 1.356 . S
N488 C480 1.356 . S
N488 H494 0.984 . S
N488 H495 0.984 1_545 S
N489 C482 1.356 . S
N489 H492 0.984 . S
N489 H493 0.985 . S
H490 N485 0.984 . S
H491 N485 0.985 . S
H492 N489 0.984 . S
H493 N489 0.985 . S
H494 N488 0.984 . S
H495 N488 0.984 1_565 S
H496 N484 0.984 . S
H497 N484 0.985 . S
C498 C499 1.363 . S
C498 C504 1.379 . S
C498 N506 1.356 . S
C499 C498 1.363 . S
C499 C505 1.363 . S
C500 C501 1.363 . S
C500 C505 1.379 . S
C500 N507 1.356 . S
C501 C500 1.363 . S
C501 C504 1.363 . S
N502 C504 1.356 . S
N502 H514 0.984 . S
N502 H515 0.985 . S
N503 C505 1.356 . S
N503 H508 0.984 . S
N503 H509 0.985 . S
C504 C498 1.379 . S
C504 C501 1.363 . S
C504 N502 1.356 . S
C505 C499 1.363 . S
C505 C500 1.379 . S
C505 N503 1.356 . S
N506 C498 1.356 . S
N506 H512 0.984 . S
N506 H513 0.984 . S
N507 C500 1.356 . S
N507 H510 0.984 . S
N507 H511 0.985 . S
H508 N503 0.984 . S
H509 N503 0.985 . S
H510 N507 0.984 . S
H511 N507 0.985 . S
H512 N506 0.984 . S
H513 N506 0.984 . S
H514 N502 0.984 . S
H515 N502 0.985 . S
C516 C517 1.363 . S
C516 C522 1.379 . S
C516 N524 1.356 . S
C517 C516 1.363 . S
C517 C523 1.363 1_455 S
C518 C519 1.363 . S
C518 C523 1.379 . S
C518 N525 1.356 . S
C519 C518 1.363 . S
C519 C522 1.363 1_655 S
N520 C522 1.356 . S
N520 H532 0.984 . S
N520 H533 0.985 . S
N521 C523 1.356 . S
N521 H526 0.984 1_655 S
N521 H527 0.985 . S
C522 C516 1.379 . S
C522 C519 1.363 1_455 S
C522 N520 1.356 . S
C523 C517 1.363 1_655 S
C523 C518 1.379 . S
C523 N521 1.356 . S
N524 C516 1.356 . S
N524 H530 0.984 . S
N524 H531 0.984 . S
N525 C518 1.356 . S
N525 H528 0.984 . S
N525 H529 0.985 . S
H526 N521 0.984 1_455 S
H527 N521 0.985 . S
H528 N525 0.984 . S
H529 N525 0.985 . S
H530 N524 0.984 . S
H531 N524 0.984 . S
H532 N520 0.984 . S
H533 N520 0.985 . S
C534 C535 1.363 . S
C534 C540 1.379 1_545 S
C534 N542 1.356 . S
C535 C534 1.363 . S
C535 C541 1.363 . S
C536 C537 1.363 1_545 S
C536 C541 1.379 . S
C536 N543 1.362 . S
C537 C536 1.363 1_565 S
C537 C540 1.363 . S
N538 C540 1.356 . S
N538 H550 0.984 . S
N538 H551 0.985 . S
N539 C541 1.356 . S
N539 H544 0.984 . S
N539 H545 0.985 . S
C540 C534 1.379 1_565 S
C540 C537 1.363 . S
C540 N538 1.356 . S
C541 C535 1.363 . S
C541 C536 1.379 . S
C541 N539 1.356 . S
N542 C534 1.356 . S
N542 H548 0.984 . S
N542 H549 0.984 . S
N543 C536 1.362 . S
N543 H546 0.971 1_545 S
N543 H547 0.993 . S
H544 N539 0.984 . S
H545 N539 0.985 . S
H546 N543 0.971 1_565 S
H547 N543 0.993 . S
H548 N542 0.984 . S
H549 N542 0.984 . S
H550 N538 0.984 . S
H551 N538 0.985 . S
C552 C553 1.363 1_556 S
C552 C558 1.379 1_556 S
C552 N560 1.356 . S
C553 C552 1.363 1_554 S
C553 C559 1.363 . S
C554 C555 1.363 . S
C554 C559 1.379 . S
C554 N561 1.356 . S
C555 C554 1.363 . S
C555 C558 1.363 . S
N556 C558 1.356 1_556 S
N556 H568 0.984 . S
N556 H569 0.985 1_556 S
N557 C559 1.356 . S
N557 H562 0.984 . S
N557 H563 0.985 . S
C558 C552 1.379 1_554 S
C558 C555 1.363 . S
C558 N556 1.356 1_554 S
C559 C553 1.363 . S
C559 C554 1.379 . S
C559 N557 1.356 . S
N560 C552 1.356 . S
N560 H566 0.984 . S
N560 H567 0.984 . S
N561 C554 1.356 . S
N561 H564 0.984 . S
N561 H565 0.985 . S
H562 N557 0.984 . S
H563 N557 0.985 . S
H564 N561 0.984 . S
H565 N561 0.985 . S
H566 N560 0.984 . S
H567 N560 0.984 . S
H568 N556 0.984 . S
H569 N556 0.985 1_554 S
C570 C571 1.363 1_655 S
C570 C576 1.379 . S
C570 N578 1.356 . S
C571 C570 1.363 1_455 S
C571 C577 1.363 . S
C572 C573 1.363 . S
C572 C577 1.379 1_655 S
C572 N579 1.356 . S
C573 C572 1.363 . S
C573 C576 1.363 . S
N574 C576 1.356 . S
N574 H586 0.984 . S
N574 H587 0.985 . S
N575 C577 1.356 . S
N575 H580 0.984 . S
N575 H581 0.985 . S
C576 C570 1.379 . S
C576 C573 1.363 . S
C576 N574 1.356 . S
C577 C571 1.363 . S
C577 C572 1.379 1_455 S
C577 N575 1.356 . S
N578 C570 1.356 . S
N578 H584 0.984 . S
N578 H585 0.984 1_655 S
N579 C572 1.356 . S
N579 H582 0.984 . S
N579 H583 0.985 . S
H580 N575 0.984 . S
H581 N575 0.985 . S
H582 N579 0.984 . S
H583 N579 0.985 . S
H584 N578 0.984 . S
H585 N578 0.984 1_455 S
H586 N574 0.984 . S
H587 N574 0.985 . S
C588 C589 1.363 . S
C588 C594 1.379 . S
C588 N596 1.356 . S
C589 C588 1.363 . S
C589 C595 1.363 1_655 S
C590 C591 1.363 . S
C590 C595 1.379 . S
C590 N597 1.356 . S
C591 C590 1.363 . S
C591 C594 1.363 1_455 S
N592 C594 1.356 . S
N592 H604 0.984 . S
N592 H605 0.985 . S
N593 C595 1.356 . S
N593 H598 0.984 . S
N593 H599 0.985 . S
C594 C588 1.379 . S
C594 C591 1.363 1_655 S
C594 N592 1.356 . S
C595 C589 1.363 1_455 S
C595 C590 1.379 . S
C595 N593 1.356 . S
N596 C588 1.356 . S
N596 H602 0.984 . S
N596 H603 0.984 . S
N597 C590 1.356 . S
N597 H600 0.984 . S
N597 H601 0.985 . S
H598 N593 0.984 . S
H599 N593 0.985 . S
H600 N597 0.984 . S
H601 N597 0.985 . S
H602 N596 0.984 . S
H603 N596 0.984 . S
H604 N592 0.984 . S
H605 N592 0.985 . S
C606 C607 1.363 1_545 S
C606 C612 1.379 . S
C606 N614 1.356 . S
C607 C606 1.363 1_565 S
C607 C613 1.363 . S
C608 C609 1.363 . S
C608 C613 1.379 1_545 S
C608 N615 1.356 . S
C609 C608 1.363 . S
C609 C612 1.363 . S
N610 C612 1.356 . S
N610 H622 0.984 . S
N610 H623 0.985 . S
N611 C613 1.356 . S
N611 H616 0.984 . S
N611 H617 0.985 . S
C612 C606 1.379 . S
C612 C609 1.363 . S
C612 N610 1.356 . S
C613 C607 1.363 . S
C613 C608 1.379 1_565 S
C613 N611 1.356 . S
N614 C606 1.356 . S
N614 H620 0.984 . S
N614 H621 0.984 1_545 S
N615 C608 1.356 . S
N615 H618 0.984 . S
N615 H619 0.985 . S
H616 N611 0.984 . S
H617 N611 0.985 . S
H618 N615 0.984 . S
H619 N615 0.985 . S
H620 N614 0.984 . S
H621 N614 0.984 1_565 S
H622 N610 0.984 . S
H623 N610 0.985 . S
C624 C625 1.363 . S
C624 C630 1.379 . S
C624 N632 1.356 . S
C625 C624 1.363 . S
C625 C631 1.363 . S
C626 C627 1.363 . S
C626 C631 1.379 . S
C626 N633 1.356 . S
C627 C626 1.363 . S
C627 C630 1.363 . S
N628 C630 1.356 . S
N628 H640 0.984 . S
N628 H641 0.985 . S
N629 C631 1.356 . S
N629 H634 0.984 . S
N629 H635 0.985 . S
C630 C624 1.379 . S
C630 C627 1.363 . S
C630 N628 1.356 . S
C631 C625 1.363 . S
C631 C626 1.379 . S
C631 N629 1.356 . S
N632 C624 1.356 . S
N632 H638 0.984 . S
N632 H639 0.984 . S
N633 C626 1.356 . S
N633 H636 0.984 . S
N633 H637 0.985 . S
H634 N629 0.984 . S
H635 N629 0.985 . S
H636 N633 0.984 . S
H637 N633 0.985 . S
H638 N632 0.984 . S
H639 N632 0.984 . S
H640 N628 0.984 . S
H641 N628 0.985 . S
C642 C643 1.363 1_554 S
C642 C648 1.379 1_554 S
C642 N650 1.356 . S
C643 C642 1.363 1_556 S
C643 C649 1.363 1_655 S
C644 C645 1.363 . S
C644 C649 1.379 . S
C644 N651 1.356 . S
C645 C644 1.363 . S
C645 C648 1.363 1_455 S
N646 C648 1.356 . S
N646 H658 0.984 1_556 S
N646 H659 0.985 . S
N647 C649 1.356 . S
N647 H652 0.984 1_455 S
N647 H653 0.985 . S
C648 C642 1.379 1_556 S
C648 C645 1.363 1_655 S
C648 N646 1.356 . S
C649 C643 1.363 1_455 S
C649 C644 1.379 . S
C649 N647 1.356 . S
N650 C642 1.356 . S
N650 H656 0.984 . S
N650 H657 0.984 . S
N651 C644 1.356 . S
N651 H654 0.984 . S
N651 H655 0.985 . S
H652 N647 0.984 1_655 S
H653 N647 0.985 . S
H654 N651 0.984 . S
H655 N651 0.985 . S
H656 N650 0.984 . S
H657 N650 0.984 . S
H658 N646 0.984 1_554 S
H659 N646 0.985 . S
C660 C661 1.363 . S
C660 C666 1.379 . S
C660 N668 1.356 . S
C661 C660 1.363 . S
C661 C667 1.363 1_545 S
C662 C663 1.363 . S
C662 C667 1.379 . S
C662 N669 1.356 . S
C663 C662 1.363 . S
C663 C666 1.363 1_565 S
N664 C666 1.356 . S
N664 H676 0.984 . S
N664 H677 0.985 1_545 S
N665 C667 1.356 . S
N665 H670 0.984 . S
N665 H671 0.985 . S
C666 C660 1.379 . S
C666 C663 1.363 1_545 S
C666 N664 1.356 . S
C667 C661 1.363 1_565 S
C667 C662 1.379 . S
C667 N665 1.356 . S
N668 C660 1.356 . S
N668 H674 0.984 . S
N668 H675 0.984 . S
N669 C662 1.356 . S
N669 H672 0.984 . S
N669 H673 0.985 . S
H670 N665 0.984 . S
H671 N665 0.985 . S
H672 N669 0.984 . S
H673 N669 0.985 . S
H674 N668 0.984 . S
H675 N668 0.984 . S
H676 N664 0.984 . S
H677 N664 0.985 1_565 S
C678 C679 1.363 . S
C678 C684 1.379 . S
C678 N686 1.356 . S
C679 C678 1.363 . S
C679 C685 1.363 . S
C680 C681 1.363 . S
C680 C685 1.379 . S
C680 N687 1.356 . S
C681 C680 1.363 . S
C681 C684 1.363 . S
N682 C684 1.356 . S
N682 H694 0.984 . S
N682 H695 0.985 . S
N683 C685 1.356 . S
N683 H688 0.984 . S
N683 H689 0.985 . S
C684 C678 1.379 . S
C684 C681 1.363 . S
C684 N682 1.356 . S
C685 C679 1.363 . S
C685 C680 1.379 . S
C685 N683 1.356 . S
N686 C678 1.356 . S
N686 H692 0.984 . S
N686 H693 0.984 . S
N687 C680 1.356 . S
N687 H690 0.984 . S
N687 H691 0.985 . S
H688 N683 0.984 . S
H689 N683 0.985 . S
H690 N687 0.984 . S
H691 N687 0.985 . S
H692 N686 0.984 . S
H693 N686 0.984 . S
H694 N682 0.984 . S
H695 N682 0.985 . S
C696 C697 1.363 . S
C696 C702 1.379 . S
C696 N704 1.356 . S
C697 C696 1.363 . S
C697 C703 1.363 . S
C698 C699 1.363 . S
C698 C703 1.379 . S
C698 N705 1.356 . S
C699 C698 1.363 . S
C699 C702 1.363 . S
N700 C702 1.356 . S
N700 H712 0.984 . S
N700 H713 0.985 . S
N701 C703 1.356 1_655 S
N701 H706 0.984 . S
N701 H707 0.985 . S
C702 C696 1.379 . S
C702 C699 1.363 . S
C702 N700 1.356 . S
C703 C697 1.363 . S
C703 C698 1.379 . S
C703 N701 1.356 1_455 S
N704 C696 1.356 . S
N704 H710 0.984 . S
N704 H711 0.984 . S
N705 C698 1.356 . S
N705 H708 0.984 . S
N705 H709 0.985 . S
H706 N701 0.984 . S
H707 N701 0.985 . S
H708 N705 0.984 . S
H709 N705 0.985 . S
H710 N704 0.984 . S
H711 N704 0.984 . S
H712 N700 0.984 . S
H713 N700 0.985 . S
C714 C715 1.363 . S
C714 C720 1.379 . S
C714 N722 1.356 . S
C715 C714 1.363 . S
C715 C721 1.363 . S
C716 C717 1.363 . S
C716 C721 1.379 . S
C716 N723 1.356 1_545 S
C717 C716 1.363 . S
C717 C720 1.363 . S
N718 C720 1.356 . S
N718 H730 0.984 . S
N718 H731 0.985 . S
N719 C721 1.356 . S
N719 H724 0.984 . S
N719 H725 0.985 . S
C720 C714 1.379 . S
C720 C717 1.363 . S
C720 N718 1.356 . S
C721 C715 1.363 . S
C721 C716 1.379 . S
C721 N719 1.356 . S
N722 C714 1.356 . S
N722 H728 0.984 . S
N722 H729 0.984 . S
N723 C716 1.356 1_565 S
N723 H726 0.984 . S
N723 H727 0.985 . S
H724 N719 0.984 . S
H725 N719 0.985 . S
H726 N723 0.984 . S
H727 N723 0.985 . S
H728 N722 0.984 . S
H729 N722 0.984 . S
H730 N718 0.984 . S
H731 N718 0.985 . S
C732 C733 1.363 . S
C732 C738 1.379 . S
C732 N740 1.356 . S
C733 C732 1.363 . S
C733 C739 1.363 . S
C734 C735 1.363 . S
C734 C739 1.379 . S
C734 N741 1.356 . S
C735 C734 1.363 . S
C735 C738 1.363 . S
N736 C738 1.356 . S
N736 H748 0.984 . S
N736 H749 0.985 . S
N737 C739 1.356 . S
N737 H742 0.984 . S
N737 H743 0.985 . S
C738 C732 1.379 . S
C738 C735 1.363 . S
C738 N736 1.356 . S
C739 C733 1.363 . S
C739 C734 1.379 . S
C739 N737 1.356 . S
N740 C732 1.356 . S
N740 H746 0.984 . S
N740 H747 0.984 . S
N741 C734 1.356 . S
N741 H744 0.984 . S
N741 H745 0.985 . S
H742 N737 0.984 . S
H743 N737 0.985 . S
H744 N741 0.984 . S
H745 N741 0.985 . S
H746 N740 0.984 . S
H747 N740 0.984 . S
H748 N736 0.984 . S
H749 N736 0.985 . S
C750 C751 1.363 . S
C750 C756 1.379 . S
C750 N758 1.356 . S
C751 C750 1.363 . S
C751 C757 1.363 . S
C752 C753 1.363 . S
C752 C757 1.379 . S
C752 N759 1.356 . S
C753 C752 1.363 . S
C753 C756 1.363 . S
N754 C756 1.356 1_455 S
N754 H766 0.984 . S
N754 H767 0.985 . S
N755 C757 1.356 1_565 S
N755 H760 0.984 . S
N755 H761 0.985 . S
C756 C750 1.379 . S
C756 C753 1.363 . S
C756 N754 1.356 1_655 S
C757 C751 1.363 . S
C757 C752 1.379 . S
C757 N755 1.356 1_545 S
N758 C750 1.356 . S
N758 H764 0.984 . S
N758 H765 0.984 . S
N759 C752 1.356 . S
N759 H762 0.984 . S
N759 H763 0.985 . S
H760 N755 0.984 . S
H761 N755 0.985 . S
H762 N759 0.984 . S
H763 N759 0.985 . S
H764 N758 0.984 . S
H765 N758 0.984 . S
H766 N754 0.984 . S
H767 N754 0.985 . S
C768 C769 1.363 . S
C768 C774 1.379 . S
C768 N776 1.356 . S
C769 C768 1.363 . S
C769 C775 1.363 . S
C770 C771 1.363 . S
C770 C775 1.379 . S
C770 N777 1.356 . S
C771 C770 1.363 . S
C771 C774 1.363 . S
N772 C774 1.356 . S
N772 H784 0.984 . S
N772 H785 0.985 . S
N773 C775 1.356 1_545 S
N773 H778 0.984 . S
N773 H779 0.985 . S
C774 C768 1.379 . S
C774 C771 1.363 . S
C774 N772 1.356 . S
C775 C769 1.363 . S
C775 C770 1.379 . S
C775 N773 1.356 1_565 S
N776 C768 1.356 . S
N776 H782 0.984 . S
N776 H783 0.984 . S
N777 C770 1.356 . S
N777 H780 0.984 . S
N777 H781 0.985 . S
H778 N773 0.984 . S
H779 N773 0.985 . S
H780 N777 0.984 . S
H781 N777 0.985 . S
H782 N776 0.984 . S
H783 N776 0.984 . S
H784 N772 0.984 . S
H785 N772 0.985 . S
C786 C787 1.363 . S
C786 C792 1.379 . S
C786 N794 1.356 . S
C787 C786 1.363 . S
C787 C793 1.363 . S
C788 C789 1.363 . S
C788 C793 1.379 . S
C788 N795 1.356 . S
C789 C788 1.363 . S
C789 C792 1.363 . S
N790 C792 1.356 . S
N790 H802 0.984 . S
N790 H803 0.985 . S
N791 C793 1.356 . S
N791 H796 0.984 . S
N791 H797 0.985 . S
C792 C786 1.379 . S
C792 C789 1.363 . S
C792 N790 1.356 . S
C793 C787 1.363 . S
C793 C788 1.379 . S
C793 N791 1.356 . S
N794 C786 1.356 . S
N794 H800 0.984 . S
N794 H801 0.984 . S
N795 C788 1.356 . S
N795 H798 0.984 . S
N795 H799 0.985 . S
H796 N791 0.984 . S
H797 N791 0.985 . S
H798 N795 0.984 . S
H799 N795 0.985 . S
H800 N794 0.984 . S
H801 N794 0.984 . S
H802 N790 0.984 . S
H803 N790 0.985 . S
C804 C805 1.363 . S
C804 C810 1.379 . S
C804 N812 1.356 . S
C805 C804 1.363 . S
C805 C811 1.363 . S
C806 C807 1.363 . S
C806 C811 1.379 . S
C806 N813 1.356 . S
C807 C806 1.363 . S
C807 C810 1.363 . S
N808 C810 1.356 . S
N808 H820 0.984 . S
N808 H821 0.985 . S
N809 C811 1.356 . S
N809 H814 0.984 . S
N809 H815 0.985 . S
C810 C804 1.379 . S
C810 C807 1.363 . S
C810 N808 1.356 . S
C811 C805 1.363 . S
C811 C806 1.379 . S
C811 N809 1.356 . S
N812 C804 1.356 . S
N812 H818 0.984 . S
N812 H819 0.984 . S
N813 C806 1.356 . S
N813 H816 0.984 . S
N813 H817 0.985 . S
H814 N809 0.984 . S
H815 N809 0.985 . S
H816 N813 0.984 . S
H817 N813 0.985 . S
H818 N812 0.984 . S
H819 N812 0.984 . S
H820 N808 0.984 . S
H821 N808 0.985 . S
C822 C823 1.363 . S
C822 C828 1.379 . S
C822 N830 1.356 . S
C823 C822 1.363 . S
C823 C829 1.363 . S
C824 C825 1.363 . S
C824 C829 1.379 . S
C824 N831 1.356 . S
C825 C824 1.363 . S
C825 C828 1.363 . S
N826 C828 1.356 . S
N826 H838 0.984 . S
N826 H839 0.985 . S
N827 C829 1.356 . S
N827 H832 0.984 . S
N827 H833 0.985 . S
C828 C822 1.379 . S
C828 C825 1.363 . S
C828 N826 1.356 . S
C829 C823 1.363 . S
C829 C824 1.379 . S
C829 N827 1.356 . S
N830 C822 1.356 . S
N830 H836 0.984 . S
N830 H837 0.984 . S
N831 C824 1.356 . S
N831 H834 0.984 . S
N831 H835 0.985 . S
H832 N827 0.984 . S
H833 N827 0.985 . S
H834 N831 0.984 . S
H835 N831 0.985 . S
H836 N830 0.984 . S
H837 N830 0.984 . S
H838 N826 0.984 . S
H839 N826 0.985 . S
C840 C841 1.363 . S
C840 C846 1.379 . S
C840 N848 1.356 . S
C841 C840 1.363 . S
C841 C847 1.363 . S
C842 C843 1.363 . S
C842 C847 1.379 . S
C842 N849 1.356 . S
C843 C842 1.363 . S
C843 C846 1.363 . S
N844 C846 1.356 . S
N844 H856 0.984 . S
N844 H857 0.985 . S
N845 C847 1.356 . S
N845 H850 0.984 . S
N845 H851 0.985 . S
C846 C840 1.379 . S
C846 C843 1.363 . S
C846 N844 1.356 . S
C847 C841 1.363 . S
C847 C842 1.379 . S
C847 N845 1.356 . S
N848 C840 1.356 . S
N848 H854 0.984 . S
N848 H855 0.984 . S
N849 C842 1.356 . S
N849 H852 0.984 . S
N849 H853 0.985 . S
H850 N845 0.984 . S
H851 N845 0.985 . S
H852 N849 0.984 . S
H853 N849 0.985 . S
H854 N848 0.984 . S
H855 N848 0.984 . S
H856 N844 0.984 . S
H857 N844 0.985 . S
C858 C859 1.363 . S
C858 C864 1.379 . S
C858 N866 1.356 . S
C859 C858 1.363 . S
C859 C865 1.363 . S
C860 C861 1.363 . S
C860 C865 1.379 . S
C860 N867 1.356 . S
C861 C860 1.363 . S
C861 C864 1.363 . S
N862 C864 1.356 . S
N862 H874 0.984 . S
N862 H875 0.985 . S
N863 C865 1.356 . S
N863 H868 0.984 . S
N863 H869 0.985 . S
C864 C858 1.379 . S
C864 C861 1.363 . S
C864 N862 1.356 . S
C865 C859 1.363 . S
C865 C860 1.379 . S
C865 N863 1.356 . S
N866 C858 1.356 . S
N866 H872 0.984 . S
N866 H873 0.984 . S
N867 C860 1.356 . S
N867 H870 0.984 . S
N867 H871 0.985 . S
H868 N863 0.984 . S
H869 N863 0.985 . S
H870 N867 0.984 . S
H871 N867 0.985 . S
H872 N866 0.984 . S
H873 N866 0.984 . S
H874 N862 0.984 . S
H875 N862 0.985 . S
C876 C877 1.363 . S
C876 C882 1.379 . S
C876 N884 1.356 . S
C877 C876 1.363 . S
C877 C883 1.363 . S
C878 C879 1.363 . S
C878 C883 1.379 . S
C878 N885 1.356 . S
C879 C878 1.363 . S
C879 C882 1.363 . S
N880 C882 1.356 . S
N880 H892 0.984 . S
N880 H893 0.985 . S
N881 C883 1.356 . S
N881 H886 0.984 . S
N881 H887 0.985 . S
C882 C876 1.379 . S
C882 C879 1.363 . S
C882 N880 1.356 . S
C883 C877 1.363 . S
C883 C878 1.379 . S
C883 N881 1.356 . S
N884 C876 1.356 . S
N884 H890 0.984 . S
N884 H891 0.984 . S
N885 C878 1.356 . S
N885 H888 0.984 . S
N885 H889 0.985 . S
H886 N881 0.984 . S
H887 N881 0.985 . S
H888 N885 0.984 . S
H889 N885 0.985 . S
H890 N884 0.984 . S
H891 N884 0.984 . S
H892 N880 0.984 . S
H893 N880 0.985 . S
C894 C895 1.363 . S
C894 C900 1.379 . S
C894 N902 1.356 . S
C895 C894 1.363 . S
C895 C901 1.363 . S
C896 C897 1.363 . S
C896 C901 1.379 . S
C896 N903 1.356 . S
C897 C896 1.363 . S
C897 C900 1.363 . S
N898 C900 1.356 . S
N898 H910 0.984 . S
N898 H911 0.985 . S
N899 C901 1.356 . S
N899 H904 0.984 . S
N899 H905 0.985 . S
C900 C894 1.379 . S
C900 C897 1.363 . S
C900 N898 1.356 . S
C901 C895 1.363 . S
C901 C896 1.379 . S
C901 N899 1.356 . S
N902 C894 1.356 . S
N902 H908 0.984 . S
N902 H909 0.984 . S
N903 C896 1.356 . S
N903 H906 0.984 . S
N903 H907 0.985 . S
H904 N899 0.984 . S
H905 N899 0.985 . S
H906 N903 0.984 . S
H907 N903 0.985 . S
H908 N902 0.984 . S
H909 N902 0.984 . S
H910 N898 0.984 . S
H911 N898 0.985 . S
C265 C117 1.210 . S
C267 C18 1.198 . S
C283 C32 1.198 . S
C285 C15 1.210 . S
C301 C54 1.198 . S
C303 C43 1.210 . S
C319 C65 1.210 . S
C321 C84 1.198 . S
C337 C81 1.210 . S
C339 C106 1.198 . S
C355 C118 1.198 . S
C357 C103 1.210 . S
C373 C169 1.210 . S
C375 C150 1.198 . S
C391 C172 1.198 . S
C393 C191 1.210 . S
C409 C205 1.210 . S
C411 C194 1.198 . S
C427 C227 1.210 . S
C429 C206 1.198 . S
C445 C263 1.210 . S
C447 C228 1.198 . S
C463 C147 1.210 . S
C465 C252 1.198 . S
C481 C257 1.435 . S
C483 C8 1.432 . S
C499 C40 1.433 . S
C501 C139 1.435 . S
C517 C161 1.435 . S
C519 C62 1.433 . S
C535 C183 1.435 . S
C537 C74 1.432 . S
C553 C219 1.435 1_554 S
C555 C96 1.433 . S
C571 C120 1.433 . S
C573 C241 1.435 . S
C589 C140 1.432 . S
C591 C37 1.435 . S
C607 C162 1.433 . S
C609 C59 1.435 . S
C625 C73 1.435 . S
C627 C184 1.433 . S
C643 C95 1.435 1_556 S
C645 C208 1.432 . S
C661 C230 1.433 . S
C663 C131 1.435 . S
C679 C260 1.433 . S
C681 C7 1.435 . S
C697 C142 1.195 . S
C699 C10 1.195 . S
C715 C30 1.195 . S
C717 C164 1.195 . S
C733 C186 1.195 . S
C735 C52 1.195 . S
C751 C76 1.195 . S
C753 C216 1.195 . S
C769 C238 1.195 . S
C771 C98 1.195 . S
C787 C250 1.195 . S
C789 C128 1.195 . S
C805 C153 1.137 . S
C807 C21 1.137 . S
C823 C175 1.137 . S
C825 C29 1.137 . S
C841 C197 1.137 . S
C843 C51 1.137 . S
C859 C87 1.137 . S
C861 C213 1.137 . S
C877 C235 1.137 . S
C879 C109 1.137 . S
C895 C249 1.137 . S
C897 C125 1.137 . S
